# Generated by pormake.
# Topology sxa, (6)-cn, num edge types: 1
# Building blocks:
#     Node 0, Type 0, BuildingBlock: IZENUY_clean_sbu_0, # of connection points: 6
#     Node 1, Type 0, BuildingBlock: IZENUY_clean_sbu_0, # of connection points: 6
#     Node 2, Type 0, BuildingBlock: IZENUY_clean_sbu_0, # of connection points: 6
#     Node 3, Type 0, BuildingBlock: IZENUY_clean_sbu_0, # of connection points: 6
#     Edge 4, Type (0, 0), BuildingBlock: XUDNAN_clean_linker_2, # of connection points: 2
#     Edge 5, Type (0, 0), BuildingBlock: XUDNAN_clean_linker_2, # of connection points: 2
#     Edge 6, Type (0, 0), BuildingBlock: XUDNAN_clean_linker_2, # of connection points: 2
#     Edge 7, Type (0, 0), BuildingBlock: XUDNAN_clean_linker_2, # of connection points: 2
#     Edge 8, Type (0, 0), BuildingBlock: XUDNAN_clean_linker_2, # of connection points: 2
#     Edge 9, Type (0, 0), BuildingBlock: XUDNAN_clean_linker_2, # of connection points: 2
#     Edge 10, Type (0, 0), BuildingBlock: XUDNAN_clean_linker_2, # of connection points: 2
#     Edge 11, Type (0, 0), BuildingBlock: XUDNAN_clean_linker_2, # of connection points: 2
#     Edge 12, Type (0, 0), BuildingBlock: XUDNAN_clean_linker_2, # of connection points: 2
#     Edge 13, Type (0, 0), BuildingBlock: XUDNAN_clean_linker_2, # of connection points: 2
#     Edge 14, Type (0, 0), BuildingBlock: XUDNAN_clean_linker_2, # of connection points: 2
#     Edge 15, Type (0, 0), BuildingBlock: XUDNAN_clean_linker_2, # of connection points: 2
# Relax obj value: 0.274
# Max RMSD: 0.267
# Mean RMSD: 0.267
data_MOF--net-sxa--node1-IZENUY_clean_sbu_0--edge1-XUDNAN_clean_linker_2
_symmetry_space_group_name_H-M    P1
_symmetry_Int_Tables_number       1
_symmetry_cell_setting            triclinic
loop_
_symmetry_equiv_pos_as_xyz
'x, y, z'
_cell_length_a     24.334327
_cell_length_b     26.909506
_cell_length_c     17.054362
_cell_angle_alpha  89.928273
_cell_angle_beta   90.107166
_cell_angle_gamma 90.034261
loop_
_atom_site_label
_atom_site_type_symbol
_atom_site_fract_x
_atom_site_fract_y
_atom_site_fract_z
_atom_type_partial_charge
Fe0 Fe 0.02161 0.84703 0.32781 0.0
Fe1 Fe -0.00228 0.73329 0.34426 0.0
O2 O 0.00379 0.78834 0.28612 0.0
Fe3 Fe -0.00912 0.7841 0.18406 0.0
O4 O 0.06088 0.80028 0.1627 0.0
O5 O 0.06608 0.86429 0.24435 0.0
O6 O 0.08315 0.82252 0.37443 0.0
C7 C 0.09044 0.78265 0.41179 0.0
C8 C 0.95197 0.88148 0.21336 0.0
O9 O 0.05463 0.74847 0.41121 0.0
C10 C 0.90568 0.73158 0.24344 0.0
O11 O 0.97899 0.83833 0.41626 0.0
O12 O 0.94666 0.7618 0.40717 0.0
O13 O 0.9695 0.84815 0.16855 0.0
O14 O 0.9627 0.87976 0.28554 0.0
C15 C 0.04086 0.69087 0.21273 0.0
O16 O 0.93913 0.70851 0.28745 0.0
O17 O 0.9204 0.76855 0.20307 0.0
C18 C 0.94415 0.80515 0.43513 0.0
O19 O 0.04789 0.69907 0.28496 0.0
O20 O 0.00941 0.71866 0.17373 0.0
C21 C 0.08386 0.83991 0.18559 0.0
Fe22 Fe 0.51461 0.319 0.18505 0.0
Fe23 Fe 0.51023 0.37126 0.34394 0.0
O24 O 0.50292 0.31586 0.28743 0.0
Fe25 Fe 0.48524 0.2577 0.33051 0.0
O26 O 0.54384 0.22486 0.28763 0.0
O27 O 0.53308 0.25404 0.17 0.0
O28 O 0.58578 0.3328 0.20274 0.0
C29 C 0.60183 0.36964 0.24253 0.0
C30 C 0.42086 0.26509 0.18964 0.0
O31 O 0.56924 0.39403 0.286 0.0
C32 C 0.41747 0.32323 0.41365 0.0
O33 O 0.49844 0.3849 0.17334 0.0
O34 O 0.46041 0.4056 0.28388 0.0
O35 O 0.43945 0.24054 0.24802 0.0
O36 O 0.44383 0.3046 0.16606 0.0
C37 C 0.56349 0.29975 0.43663 0.0
O38 O 0.45315 0.35752 0.41119 0.0
O39 O 0.42453 0.28276 0.37794 0.0
C40 C 0.46747 0.41334 0.21161 0.0
O41 O 0.56097 0.34292 0.40789 0.0
O42 O 0.52881 0.26643 0.41804 0.0
C43 C 0.55092 0.22072 0.21484 0.0
Fe44 Fe 0.01852 0.28402 0.94938 0.0
Fe45 Fe -0.01322 0.34733 0.80624 0.0
O46 O 0.00491 0.28856 0.84755 0.0
Fe47 Fe 0.01062 0.23367 0.78922 0.0
O48 O 0.96068 0.19937 0.84891 0.0
O49 O 2e-05 0.21851 0.95966 0.0
O50 O 0.94869 0.30002 0.97172 0.0
C51 C 0.92547 0.33961 0.94915 0.0
C52 C 0.10329 0.23178 0.88866 0.0
O53 O 0.94276 0.3642 0.89021 0.0
C54 C 0.06372 0.30581 0.69815 0.0
O55 O 0.03994 0.34804 0.96491 0.0
O56 O 0.04582 0.38016 0.84803 0.0
O57 O 0.06945 0.20872 0.84533 0.0
O58 O 0.08888 0.26864 0.92931 0.0
C59 C 0.91762 0.28303 0.72273 0.0
O60 O 0.029 0.33894 0.71738 0.0
O61 O 0.06134 0.26238 0.726 0.0
C62 C 0.05695 0.38168 0.92012 0.0
O63 O 0.92502 0.32281 0.76018 0.0
O64 O 0.95351 0.24898 0.72281 0.0
C65 C 0.96809 0.19097 0.92103 0.0
Fe66 Fe 0.49819 0.87179 0.79053 0.0
Fe67 Fe 0.52238 0.75783 0.80421 0.0
O68 O 0.50473 0.81612 0.84747 0.0
Fe69 Fe 0.49231 0.81919 0.94967 0.0
O70 O 0.4219 0.83535 0.93159 0.0
O71 O 0.44006 0.89611 0.8484 0.0
O72 O 0.44672 0.84364 0.72758 0.0
C73 C 0.44447 0.80064 0.69827 0.0
C74 C 0.544 0.91148 0.92309 0.0
O75 O 0.47971 0.76755 0.7159 0.0
C76 C 0.58481 0.76297 0.94669 0.0
O77 O 0.55475 0.85711 0.72276 0.0
O78 O 0.5838 0.78299 0.75853 0.0
O79 O 0.512 0.88412 0.96171 0.0
O80 O 0.54861 0.9058 0.84992 0.0
C81 C 0.45266 0.72232 0.91754 0.0
O82 O 0.56695 0.73936 0.88715 0.0
O83 O 0.56213 0.80241 0.9704 0.0
C84 C 0.59076 0.82309 0.72163 0.0
O85 O 0.4635 0.7246 0.84547 0.0
O86 O 0.47028 0.75518 0.96325 0.0
C87 C 0.40689 0.87256 0.89206 0.0
H88 H 0.02827 0.47824 0.88877 0.0
H89 H 0.12833 0.38735 1.04245 0.0
H90 H 0.14407 0.45968 0.1289 0.0
H91 H 0.10428 0.59915 0.91863 0.0
H92 H 0.04105 0.634 0.91766 0.0
H93 H 0.04691 0.57792 0.86058 0.0
H94 H 0.96058 0.54262 0.92987 0.0
H95 H 0.95496 0.59805 0.98805 0.0
H96 H 0.95964 0.53826 1.03534 0.0
H97 H 0.13664 0.53886 0.2098 0.0
H98 H 0.11039 0.61846 0.27278 0.0
H99 H 0.01495 0.65688 0.06617 0.0
C100 C 0.05577 0.47431 0.9384 0.0
C101 C 0.07828 0.42749 0.9578 0.0
C102 C 0.11165 0.42316 1.02569 0.0
C103 C 0.1206 0.46402 0.07536 0.0
C104 C 0.09577 0.5092 1.05669 0.0
C105 C 0.06457 0.51472 0.98918 0.0
C106 C 0.03757 0.56546 0.98674 0.0
C107 C 0.05873 0.59594 0.91675 0.0
C108 C 0.97448 0.56079 0.98492 0.0
C109 C 0.05736 0.5871 1.06391 0.0
C110 C 0.09116 0.55437 0.10343 0.0
C111 C 0.11101 0.56515 0.17859 0.0
C112 C 0.09579 0.61041 0.21413 0.0
C113 C 0.06093 0.64437 0.17461 0.0
C114 C 0.04229 0.63234 0.09805 0.0
H115 H 0.49589 0.44773 0.06626 0.0
H116 H 0.39662 0.48526 0.26886 0.0
H117 H 0.37044 0.56458 0.20455 0.0
H118 H 0.55004 0.56653 1.03781 0.0
H119 H 0.55127 0.56244 0.93237 0.0
H120 H 0.5562 0.50688 0.99063 0.0
H121 H 0.47211 0.47014 0.91715 0.0
H122 H 0.4666 0.52597 0.85916 0.0
H123 H 0.40843 0.50432 0.91489 0.0
H124 H 0.36296 0.6435 0.12287 0.0
H125 H 0.37908 0.71598 1.03662 0.0
H126 H 0.48285 0.62616 0.88732 0.0
C127 C 0.46772 0.47202 0.09689 0.0
C128 C 0.44795 0.45983 0.17273 0.0
C129 C 0.4121 0.49347 0.21078 0.0
C130 C 0.39687 0.53854 0.17444 0.0
C131 C 0.41771 0.54945 0.09997 0.0
C132 C 0.45252 0.51705 1.06184 0.0
C133 C 0.47336 0.53899 0.98544 0.0
C134 C 0.53643 0.54401 0.98669 0.0
C135 C 0.45395 0.508 0.91499 0.0
C136 C 0.44564 0.5894 0.98669 0.0
C137 C 0.41323 0.59455 1.05287 0.0
C138 C 0.38736 0.63941 0.07028 0.0
C139 C 0.39647 0.68034 1.02068 0.0
C140 C 0.43096 0.67632 0.9541 0.0
C141 C 0.45448 0.62978 0.93583 0.0
H142 H 0.53492 1.01083 0.88704 0.0
H143 H 0.6017 0.90843 1.05839 0.0
H144 H 0.62165 0.97843 0.14768 0.0
H145 H 0.62819 0.11945 0.93263 0.0
H146 H 0.57289 0.16328 0.91985 0.0
H147 H 0.57368 0.10651 0.86385 0.0
H148 H 0.47638 0.08519 0.91548 0.0
H149 H 0.47555 0.14143 0.97226 0.0
H150 H 0.4647 0.08238 1.01975 0.0
H151 H 0.62016 0.05782 0.22717 0.0
H152 H 0.60149 0.14031 0.28614 0.0
H153 H 0.53662 0.19113 1.06283 0.0
C154 C 0.55625 1.00363 0.94167 0.0
C155 C 0.56829 0.95442 0.96497 0.0
C156 C 0.59339 0.94602 1.03882 0.0
C157 C 0.60465 0.98556 0.09007 0.0
C158 C 0.59036 1.03355 0.06696 0.0
C159 C 0.56727 1.04283 0.99405 0.0
C160 C 0.55041 0.09693 0.98688 0.0
C161 C 0.58327 0.12308 0.92195 0.0
C162 C 0.48809 0.10173 0.97278 0.0
C163 C 0.56642 0.11617 0.06741 0.0
C164 C 0.58962 0.07922 0.1128 0.0
C165 C 0.60314 0.08735 0.19153 0.0
C166 C 0.59232 0.1343 0.22472 0.0
C167 C 0.56835 0.17265 0.17921 0.0
C168 C 0.55619 0.16323 0.09916 0.0
H169 H 0.98037 0.97798 0.245 0.0
H170 H 0.88067 0.88717 0.09094 0.0
H171 H 0.86478 0.95969 1.00468 0.0
H172 H 0.90422 0.09884 0.2152 0.0
H173 H 0.96744 0.13379 0.2163 0.0
H174 H 0.96156 0.0776 0.27333 0.0
H175 H 0.04797 1.04257 0.20418 0.0
H176 H 0.05362 0.0981 0.14604 0.0
H177 H 0.04901 1.0384 0.0987 0.0
H178 H 0.87209 1.03903 0.92401 0.0
H179 H 0.89844 0.11871 0.86103 0.0
H180 H -0.00623 0.15692 0.06775 0.0
C181 C 0.95291 0.97411 0.19533 0.0
C182 C 0.93053 0.92728 0.17575 0.0
C183 C 0.89722 0.923 0.10783 0.0
C184 C 0.88818 0.96397 1.05827 0.0
C185 C 0.91288 1.00917 0.07711 0.0
C186 C 0.94404 1.01461 0.14465 0.0
C187 C 0.97102 0.06538 0.14718 0.0
C188 C 0.94977 0.0957 0.21716 0.0
C189 C 0.03411 0.06081 0.14912 0.0
C190 C 0.95128 0.08713 0.07 0.0
C191 C 0.9175 0.05443 1.03044 0.0
C192 C 0.8977 0.06529 0.95525 0.0
C193 C 0.91298 0.1106 0.91972 0.0
C194 C 0.94787 0.1445 0.95925 0.0
C195 C 0.96643 0.13241 1.03585 0.0
H196 H 0.36846 0.86434 0.63185 0.0
H197 H 0.40988 0.70792 0.651 0.0
H198 H 0.32403 0.68628 0.58114 0.0
H199 H 0.22519 0.85152 0.66313 0.0
H200 H 0.20553 0.89872 0.59344 0.0
H201 H 0.27125 0.90223 0.64185 0.0
H202 H 0.32052 0.90547 0.50742 0.0
H203 H 0.25493 0.90262 0.45846 0.0
H204 H 0.30731 0.8575 0.43611 0.0
H205 H 0.22921 0.68152 0.51726 0.0
H206 H 0.13929 0.69439 0.45245 0.0
H207 H 0.16162 0.85398 0.4694 0.0
C208 C 0.36006 0.8255 0.62037 0.0
C209 C 0.39653 0.78788 0.6469 0.0
C210 C 0.38328 0.73756 0.63082 0.0
C211 C 0.33427 0.72486 0.59154 0.0
C212 C 0.29882 0.76282 0.56777 0.0
C213 C 0.31159 0.81218 0.58054 0.0
C214 C 0.26653 0.84593 0.54924 0.0
C215 C 0.2406 0.87639 0.61589 0.0
C216 C 0.28865 0.87988 0.48392 0.0
C217 C 0.22626 0.80792 0.51701 0.0
C218 C 0.24533 0.76014 0.52909 0.0
C219 C 0.21426 0.71883 0.5069 0.0
C220 C 0.16297 0.72652 0.47048 0.0
C221 C 0.14318 0.77517 0.45541 0.0
C222 C 0.17556 0.81629 0.47941 0.0
H223 H 0.1392 0.24237 0.63121 0.0
H224 H 0.0985 0.39883 0.65178 0.0
H225 H 0.18451 0.42052 0.58257 0.0
H226 H 0.28221 0.2546 0.66439 0.0
H227 H 0.30186 0.20756 0.59472 0.0
H228 H 0.23598 0.20414 0.64237 0.0
H229 H 0.18707 0.20156 0.50735 0.0
H230 H 0.25281 0.20428 0.45916 0.0
H231 H 0.20074 0.2497 0.43638 0.0
H232 H 0.27954 0.42509 0.51883 0.0
H233 H 0.36939 0.41188 0.4544 0.0
H234 H 0.34605 0.25238 0.4713 0.0
C235 C 0.14775 0.28125 0.62016 0.0
C236 C 0.11148 0.31885 0.64688 0.0
C237 C 0.12496 0.36921 0.6314 0.0
C238 C 0.17406 0.38193 0.59251 0.0
C239 C 0.20935 0.34394 0.56866 0.0
C240 C 0.19631 0.29457 0.58093 0.0
C241 C 0.24124 0.26073 0.55004 0.0
C242 C 0.26683 0.22995 0.61686 0.0
C243 C 0.21914 0.22709 0.48432 0.0
C244 C 0.28175 0.29868 0.51846 0.0
C245 C 0.26295 0.34652 0.5305 0.0
C246 C 0.29428 0.38773 0.50856 0.0
C247 C 0.34553 0.37985 0.47237 0.0
C248 C 0.36501 0.33112 0.45739 0.0
C249 C 0.3324 0.29014 0.48127 0.0
H250 H 0.8455 0.35417 0.66684 0.0
H251 H 0.86945 0.19468 0.68126 0.0
H252 H 0.7796 0.18145 0.61656 0.0
H253 H 0.69998 0.35599 0.70067 0.0
H254 H 0.68634 0.40452 0.63035 0.0
H255 H 0.75206 0.40163 0.67895 0.0
H256 H 0.80139 0.39929 0.54439 0.0
H257 H 0.73584 0.40276 0.49551 0.0
H258 H 0.78232 0.35256 0.4737 0.0
H259 H 0.68487 0.18572 0.5526 0.0
H260 H 0.59895 0.20703 0.48268 0.0
H261 H 0.63852 0.36371 0.50459 0.0
C262 C 0.8319 0.31644 0.65634 0.0
C263 C 0.86475 0.27544 0.67954 0.0
C264 C 0.84541 0.22672 0.66385 0.0
C265 C 0.79415 0.21882 0.62748 0.0
C266 C 0.76265 0.25999 0.606 0.0
C267 C 0.78121 0.30787 0.61879 0.0
C268 C 0.74049 0.34571 0.58709 0.0
C269 C 0.71842 0.37892 0.65322 0.0
C270 C 0.76657 0.37691 0.52127 0.0
C271 C 0.69588 0.31173 0.55522 0.0
C272 C 0.70917 0.26241 0.56729 0.0
C273 C 0.67421 0.22427 0.54279 0.0
C274 C 0.62514 0.23678 0.5035 0.0
C275 C 0.61136 0.28708 0.48816 0.0
C276 C 0.64732 0.32487 0.51549 0.0
H277 H 0.86851 0.74164 0.5026 0.0
H278 H 0.90923 0.8981 0.48077 0.0
H279 H 0.82341 0.91983 0.55017 0.0
H280 H 0.72511 0.75368 0.47076 0.0
H281 H 0.7058 0.7068 0.54111 0.0
H282 H 0.77143 0.70331 0.49282 0.0
H283 H 0.82099 0.70107 0.62735 0.0
H284 H 0.75549 0.7039 0.67619 0.0
H285 H 0.80772 0.74939 0.69795 0.0
H286 H 0.72857 0.92453 0.61425 0.0
H287 H 0.63892 0.91153 0.67946 0.0
H288 H 0.66209 0.75199 0.66457 0.0
C289 C 0.85998 0.78052 0.51339 0.0
C290 C 0.89626 0.81811 0.48625 0.0
C291 C 0.88279 0.86848 0.50143 0.0
C292 C 0.83378 0.88123 0.54044 0.0
C293 C 0.79853 0.84328 0.56481 0.0
C294 C 0.81151 0.79389 0.55287 0.0
C295 C 0.76666 0.76012 0.58461 0.0
C296 C 0.74073 0.72916 0.51838 0.0
C297 C 0.78906 0.72665 0.65044 0.0
C298 C 0.72629 0.79813 0.61624 0.0
C299 C 0.74508 0.84594 0.60345 0.0
C300 C 0.71385 0.8872 0.62514 0.0
C301 C 0.66271 0.87944 0.66181 0.0
C302 C 0.64324 0.83077 0.67762 0.0
C303 C 0.67576 0.78971 0.65403 0.0
H304 H 0.3135 0.82388 0.86694 0.0
H305 H 0.37993 0.96059 0.96018 0.0
H306 H 0.293 0.97558 1.0316 0.0
H307 H 0.15986 0.86323 0.8655 0.0
H308 H 0.14113 0.80109 0.89473 0.0
H309 H 0.19931 0.81094 0.83122 0.0
H310 H 0.25987 0.76142 0.92889 0.0
H311 H 0.20304 0.75311 0.99424 0.0
H312 H 0.2652 0.78215 1.02914 0.0
H313 H 0.21178 0.96289 0.1194 0.0
H314 H 0.13852 0.92887 0.20431 0.0
H315 H 0.12774 0.79895 1.05428 0.0
C316 C 0.30801 0.85847 0.89847 0.0
C317 C 0.35206 0.89163 0.90753 0.0
C318 C 0.34549 0.93566 0.95134 0.0
C319 C 0.29646 0.94418 0.99234 0.0
C320 C 0.25488 0.90852 0.98743 0.0
C321 C 0.25968 0.86712 0.93964 0.0
C322 C 0.21418 0.83011 0.95413 0.0
C323 C 0.17636 0.82614 0.88212 0.0
C324 C 0.23698 0.77875 0.97805 0.0
C325 C 0.18547 0.85519 1.02155 0.0
C326 C 0.20851 0.90081 1.03906 0.0
C327 C 0.19235 0.92792 0.10477 0.0
C328 C 0.15124 0.90803 0.15319 0.0
C329 C 0.12748 0.86122 0.13597 0.0
C330 C 0.14469 0.835 0.06885 0.0
H331 H 0.19841 0.27687 0.86034 0.0
H332 H 0.1268 0.14464 0.96149 0.0
H333 H 0.21259 0.12906 1.03552 0.0
H334 H 0.35179 0.23336 0.86751 0.0
H335 H 0.3717 0.29588 0.89268 0.0
H336 H 0.31461 0.28539 0.82715 0.0
H337 H 0.25369 0.33934 0.91765 0.0
H338 H 0.30921 0.34825 0.98522 0.0
H339 H 0.24545 0.32179 1.01907 0.0
H340 H 0.29202 0.14249 0.12559 0.0
H341 H 0.36365 0.17785 0.2122 0.0
H342 H 0.38105 0.303 1.05319 0.0
C343 C 0.20264 0.24291 0.89404 0.0
C344 C 0.15742 0.21133 0.90468 0.0
C345 C 0.1622 0.16824 0.95141 0.0
C346 C 0.21059 0.1594 0.9939 0.0
C347 C 0.25335 0.19378 0.98758 0.0
C348 C 0.25038 0.234 0.93681 0.0
C349 C 0.2966 0.2704 0.95062 0.0
C350 C 0.33603 0.27127 0.88032 0.0
C351 C 0.27489 0.32296 0.9693 0.0
C352 C 0.32315 0.24676 1.02129 0.0
C353 C 0.29879 0.20203 1.04079 0.0
C354 C 0.3126 0.17666 0.10945 0.0
C355 C 0.35274 0.19733 0.1588 0.0
C356 C 0.37781 0.24324 0.13955 0.0
C357 C 0.36295 0.26771 0.06952 0.0
H358 H 0.69506 0.32011 0.2657 0.0
H359 H 0.62905 0.45775 0.17492 0.0
H360 H 0.7162 0.47354 0.10444 0.0
H361 H 0.84861 0.36053 0.26983 0.0
H362 H 0.86801 0.29876 0.23992 0.0
H363 H 0.80938 0.30769 0.30287 0.0
H364 H 0.74972 0.2585 0.2038 0.0
H365 H 0.80705 0.25101 0.13918 0.0
H366 H 0.74495 0.27987 0.10372 0.0
H367 H 0.79748 0.46181 1.01705 0.0
H368 H 0.87088 0.42865 0.93179 0.0
H369 H 0.88185 0.29765 0.07994 0.0
C370 C 0.70065 0.35497 0.23482 0.0
C371 C 0.65672 0.38823 0.2262 0.0
C372 C 0.66343 0.43271 0.18335 0.0
C373 C 0.71258 0.44172 0.14297 0.0
C374 C 0.75419 0.40614 0.14767 0.0
C375 C 0.74923 0.36424 0.19452 0.0
C376 C 0.79507 0.32766 0.18007 0.0
C377 C 0.83251 0.32344 0.25247 0.0
C378 C 0.77282 0.27631 0.15518 0.0
C379 C 0.82398 0.35346 0.11339 0.0
C380 C 0.80085 0.39914 0.09648 0.0
C381 C 0.81703 0.42682 1.03125 0.0
C382 C 0.8582 0.40741 0.98261 0.0
C383 C 0.88199 0.36053 0.99919 0.0
C384 C 0.86486 0.33378 0.06592 0.0
H385 H 0.81071 0.77699 0.27088 0.0
H386 H 0.88186 0.64445 0.17079 0.0
H387 H 0.79562 0.62843 0.09791 0.0
H388 H 0.65803 0.73313 0.26782 0.0
H389 H 0.63746 0.79536 0.24183 0.0
H390 H 0.69551 0.78564 0.30594 0.0
H391 H 0.75502 0.83911 0.21251 0.0
H392 H 0.69842 0.84739 0.14653 0.0
H393 H 0.76174 0.82093 0.11122 0.0
H394 H 0.71469 0.64092 1.00948 0.0
H395 H 0.64155 0.67541 0.92438 0.0
H396 H 0.6258 0.80127 0.08182 0.0
C397 C 0.80638 0.74293 0.23757 0.0
C398 C 0.85151 0.7113 0.22705 0.0
C399 C 0.84653 0.66808 0.18081 0.0
C400 C 0.79789 0.65899 0.13899 0.0
C401 C 0.7551 0.69327 0.14547 0.0
C402 C 0.7584 0.73373 0.19555 0.0
C403 C 0.71184 0.7698 0.18231 0.0
C404 C 0.67341 0.77102 0.25371 0.0
C405 C 0.73307 0.82232 0.16188 0.0
C406 C 0.68443 0.74555 0.11291 0.0
C407 C 0.70886 0.70091 0.09339 0.0
C408 C 0.69414 0.67504 1.02564 0.0
C409 C 0.65311 0.6952 0.97715 0.0
C410 C 0.6281 0.74108 0.99637 0.0
C411 C 0.64378 0.76596 0.0656 0.0
loop_
_geom_bond_atom_site_label_1
_geom_bond_atom_site_label_2
_geom_bond_distance
_geom_bond_site_symmetry_2
_ccdc_geom_bond_type
Fe0 O2 1.918 . S
Fe0 O5 1.997 . S
Fe0 O6 2.002 . S
Fe0 O11 1.976 . S
Fe0 O14 1.996 . S
Fe1 O2 1.918 1_655 S
Fe1 O9 1.997 1_655 S
Fe1 O12 1.996 . S
Fe1 O16 1.976 . S
Fe1 O19 2.002 1_655 S
O2 Fe0 1.918 . S
O2 Fe1 1.918 1_455 S
O2 Fe3 1.918 . S
Fe3 O2 1.918 . S
Fe3 O4 2.002 . S
Fe3 O13 1.976 . S
Fe3 O17 1.996 1_455 S
Fe3 O20 1.997 . S
O4 Fe3 2.002 . S
O4 C21 1.295 . S
O5 Fe0 1.997 . S
O5 C21 1.235 . S
O6 Fe0 2.002 . S
O6 C7 1.295 . S
C7 O6 1.295 . S
C7 O9 1.235 . S
C8 O13 1.287 . S
C8 O14 1.255 . S
O9 Fe1 1.997 1_455 S
O9 C7 1.235 . S
C10 O16 1.287 . S
C10 O17 1.255 . S
O11 Fe0 1.976 . S
O11 C18 1.287 1_455 S
O12 Fe1 1.996 . S
O12 C18 1.255 . S
O13 Fe3 1.976 . S
O13 C8 1.287 . S
O14 Fe0 1.996 . S
O14 C8 1.255 . S
C15 O19 1.295 . S
C15 O20 1.235 . S
O16 Fe1 1.976 . S
O16 C10 1.287 . S
O17 Fe3 1.996 1_655 S
O17 C10 1.255 . S
C18 O11 1.287 1_655 S
C18 O12 1.255 . S
O19 Fe1 2.002 1_455 S
O19 C15 1.295 . S
O20 Fe3 1.997 . S
O20 C15 1.235 . S
C21 O4 1.295 . S
C21 O5 1.235 . S
Fe22 O24 1.918 . S
Fe22 O27 1.997 . S
Fe22 O28 2.002 . S
Fe22 O33 1.976 . S
Fe22 O36 1.996 . S
Fe23 O24 1.918 . S
Fe23 O31 1.997 . S
Fe23 O34 1.996 . S
Fe23 O38 1.976 . S
Fe23 O41 2.002 . S
O24 Fe22 1.918 . S
O24 Fe23 1.918 . S
O24 Fe25 1.918 . S
Fe25 O24 1.918 . S
Fe25 O26 2.002 . S
Fe25 O35 1.976 . S
Fe25 O39 1.996 . S
Fe25 O42 1.997 . S
O26 Fe25 2.002 . S
O26 C43 1.295 . S
O27 Fe22 1.997 . S
O27 C43 1.235 . S
O28 Fe22 2.002 . S
O28 C29 1.295 . S
C29 O28 1.295 . S
C29 O31 1.235 . S
C30 O35 1.287 . S
C30 O36 1.255 . S
O31 Fe23 1.997 . S
O31 C29 1.235 . S
C32 O38 1.287 . S
C32 O39 1.255 . S
O33 Fe22 1.976 . S
O33 C40 1.287 . S
O34 Fe23 1.996 . S
O34 C40 1.255 . S
O35 Fe25 1.976 . S
O35 C30 1.287 . S
O36 Fe22 1.996 . S
O36 C30 1.255 . S
C37 O41 1.295 . S
C37 O42 1.235 . S
O38 Fe23 1.976 . S
O38 C32 1.287 . S
O39 Fe25 1.996 . S
O39 C32 1.255 . S
C40 O33 1.287 . S
C40 O34 1.255 . S
O41 Fe23 2.002 . S
O41 C37 1.295 . S
O42 Fe25 1.997 . S
O42 C37 1.235 . S
C43 O26 1.295 . S
C43 O27 1.235 . S
Fe44 O46 1.918 . S
Fe44 O49 1.997 . S
Fe44 O50 2.002 1_455 S
Fe44 O55 1.976 . S
Fe44 O58 1.996 . S
Fe45 O46 1.918 1_655 S
Fe45 O53 1.997 . S
Fe45 O56 1.996 1_655 S
Fe45 O60 1.976 1_655 S
Fe45 O63 2.002 . S
O46 Fe44 1.918 . S
O46 Fe45 1.918 1_455 S
O46 Fe47 1.918 . S
Fe47 O46 1.918 . S
Fe47 O48 2.002 . S
Fe47 O57 1.976 . S
Fe47 O61 1.996 . S
Fe47 O64 1.997 . S
O48 Fe47 2.002 . S
O48 C65 1.295 . S
O49 Fe44 1.997 . S
O49 C65 1.235 . S
O50 Fe44 2.002 1_655 S
O50 C51 1.295 . S
C51 O50 1.295 . S
C51 O53 1.235 . S
C52 O57 1.287 . S
C52 O58 1.255 . S
O53 Fe45 1.997 . S
O53 C51 1.235 . S
C54 O60 1.287 . S
C54 O61 1.255 . S
O55 Fe44 1.976 . S
O55 C62 1.287 . S
O56 Fe45 1.996 1_455 S
O56 C62 1.255 . S
O57 Fe47 1.976 . S
O57 C52 1.287 . S
O58 Fe44 1.996 . S
O58 C52 1.255 . S
C59 O63 1.295 . S
C59 O64 1.235 1_655 S
O60 Fe45 1.976 1_455 S
O60 C54 1.287 . S
O61 Fe47 1.996 . S
O61 C54 1.255 . S
C62 O55 1.287 . S
C62 O56 1.255 . S
O63 Fe45 2.002 . S
O63 C59 1.295 . S
O64 Fe47 1.997 . S
O64 C59 1.235 1_455 S
C65 O48 1.295 . S
C65 O49 1.235 . S
Fe66 O68 1.918 . S
Fe66 O71 1.997 . S
Fe66 O72 2.002 . S
Fe66 O77 1.976 . S
Fe66 O80 1.996 . S
Fe67 O68 1.918 . S
Fe67 O75 1.997 . S
Fe67 O78 1.996 . S
Fe67 O82 1.976 . S
Fe67 O85 2.002 . S
O68 Fe66 1.918 . S
O68 Fe67 1.918 . S
O68 Fe69 1.918 . S
Fe69 O68 1.918 . S
Fe69 O70 2.002 . S
Fe69 O79 1.976 . S
Fe69 O83 1.996 . S
Fe69 O86 1.997 . S
O70 Fe69 2.002 . S
O70 C87 1.295 . S
O71 Fe66 1.997 . S
O71 C87 1.235 . S
O72 Fe66 2.002 . S
O72 C73 1.295 . S
C73 O72 1.295 . S
C73 O75 1.235 . S
C74 O79 1.287 . S
C74 O80 1.255 . S
O75 Fe67 1.997 . S
O75 C73 1.235 . S
C76 O82 1.287 . S
C76 O83 1.255 . S
O77 Fe66 1.976 . S
O77 C84 1.287 . S
O78 Fe67 1.996 . S
O78 C84 1.255 . S
O79 Fe69 1.976 . S
O79 C74 1.287 . S
O80 Fe66 1.996 . S
O80 C74 1.255 . S
C81 O85 1.295 . S
C81 O86 1.235 . S
O82 Fe67 1.976 . S
O82 C76 1.287 . S
O83 Fe69 1.996 . S
O83 C76 1.255 . S
C84 O77 1.287 . S
C84 O78 1.255 . S
O85 Fe67 2.002 . S
O85 C81 1.295 . S
O86 Fe69 1.997 . S
O86 C81 1.235 . S
C87 O70 1.295 . S
C87 O71 1.235 . S
H88 C100 0.930 1_655 S
H89 C102 0.930 . S
H90 C103 0.930 . S
H91 C107 0.959 1_455 S
H92 C107 0.959 . S
H93 C107 0.961 . S
H94 C108 0.960 . S
H95 C108 0.961 . S
H96 C108 0.959 1_554 S
H97 C111 0.929 . S
H98 C112 0.931 . S
H99 C114 0.930 1_655 S
C100 H88 0.930 1_455 S
C100 C101 1.399 . S
C100 C105 1.399 . S
C101 C100 1.399 . S
C101 C102 1.376 . S
C102 H89 0.930 . S
C102 C101 1.376 . S
C102 C103 1.388 1_556 S
C103 H90 0.930 . S
C103 C102 1.388 1_554 S
C103 C104 1.390 . S
C104 C103 1.390 . S
C104 C105 1.394 1_554 S
C104 C110 1.465 . S
C105 C100 1.399 . S
C105 C104 1.394 1_556 S
C105 C106 1.516 1_455 S
C106 C105 1.516 1_655 S
C106 C107 1.502 . S
C106 C108 1.561 . S
C106 C109 1.526 1_656 S
C107 H91 0.959 1_655 S
C107 H92 0.959 . S
C107 H93 0.961 . S
C107 C106 1.502 . S
C108 H94 0.960 . S
C108 H95 0.961 . S
C108 H96 0.959 1_556 S
C108 C106 1.561 . S
C109 C106 1.526 1_454 S
C109 C110 1.396 . S
C109 C114 1.390 . S
C110 C104 1.465 . S
C110 C109 1.396 . S
C110 C111 1.399 . S
C111 H97 0.929 . S
C111 C110 1.399 . S
C111 C112 1.385 . S
C112 H98 0.931 . S
C112 C111 1.385 . S
C112 C113 1.389 . S
C113 C112 1.389 . S
C113 C114 1.387 . S
C114 H99 0.930 1_455 S
C114 C109 1.390 . S
C114 C113 1.387 . S
H115 C127 0.930 1_556 S
H116 C129 0.930 . S
H117 C130 0.930 . S
H118 C134 0.959 . S
H119 C134 0.959 . S
H120 C134 0.961 . S
H121 C135 0.960 . S
H122 C135 0.961 . S
H123 C135 0.959 . S
H124 C138 0.929 . S
H125 C139 0.931 . S
H126 C141 0.930 . S
C127 H115 0.930 1_554 S
C127 C128 1.399 . S
C127 C132 1.399 1_554 S
C128 C127 1.399 . S
C128 C129 1.376 . S
C129 H116 0.930 . S
C129 C128 1.376 . S
C129 C130 1.388 . S
C130 H117 0.930 . S
C130 C129 1.388 . S
C130 C131 1.390 . S
C131 C130 1.390 . S
C131 C132 1.394 1_554 S
C131 C137 1.465 . S
C132 C127 1.399 1_556 S
C132 C131 1.394 1_556 S
C132 C133 1.516 . S
C133 C132 1.516 . S
C133 C134 1.502 . S
C133 C135 1.561 . S
C133 C136 1.526 . S
C134 H118 0.959 . S
C134 H119 0.959 . S
C134 H120 0.961 . S
C134 C133 1.502 . S
C135 H121 0.960 . S
C135 H122 0.961 . S
C135 H123 0.959 . S
C135 C133 1.561 . S
C136 C133 1.526 . S
C136 C137 1.396 1_556 S
C136 C141 1.390 . S
C137 C131 1.465 . S
C137 C136 1.396 1_554 S
C137 C138 1.399 . S
C138 H124 0.929 . S
C138 C137 1.399 . S
C138 C139 1.385 1_554 S
C139 H125 0.931 . S
C139 C138 1.385 1_556 S
C139 C140 1.389 . S
C140 C139 1.389 . S
C140 C141 1.387 . S
C141 H126 0.930 . S
C141 C136 1.390 . S
C141 C140 1.387 . S
H142 C154 0.930 . S
H143 C156 0.930 . S
H144 C157 0.930 . S
H145 C161 0.959 . S
H146 C161 0.959 . S
H147 C161 0.961 . S
H148 C162 0.960 1_565 S
H149 C162 0.961 . S
H150 C162 0.959 1_554 S
H151 C165 0.929 . S
H152 C166 0.931 . S
H153 C168 0.930 . S
C154 H142 0.930 . S
C154 C155 1.399 . S
C154 C159 1.399 . S
C155 C154 1.399 . S
C155 C156 1.376 . S
C156 H143 0.930 . S
C156 C155 1.376 . S
C156 C157 1.388 1_556 S
C157 H144 0.930 . S
C157 C156 1.388 1_554 S
C157 C158 1.390 . S
C158 C157 1.390 . S
C158 C159 1.394 1_554 S
C158 C164 1.465 1_565 S
C159 C154 1.399 . S
C159 C158 1.394 1_556 S
C159 C160 1.516 1_565 S
C160 C159 1.516 1_545 S
C160 C161 1.502 . S
C160 C162 1.561 . S
C160 C163 1.526 1_556 S
C161 H145 0.959 . S
C161 H146 0.959 . S
C161 H147 0.961 . S
C161 C160 1.502 . S
C162 H148 0.960 1_545 S
C162 H149 0.961 . S
C162 H150 0.959 1_556 S
C162 C160 1.561 . S
C163 C160 1.526 1_554 S
C163 C164 1.396 . S
C163 C168 1.390 . S
C164 C158 1.465 1_545 S
C164 C163 1.396 . S
C164 C165 1.399 . S
C165 H151 0.929 . S
C165 C164 1.399 . S
C165 C166 1.385 . S
C166 H152 0.931 . S
C166 C165 1.385 . S
C166 C167 1.389 . S
C167 C166 1.389 . S
C167 C168 1.387 . S
C168 H153 0.930 . S
C168 C163 1.390 . S
C168 C167 1.387 . S
H169 C181 0.930 . S
H170 C183 0.930 . S
H171 C184 0.930 . S
H172 C188 0.959 . S
H173 C188 0.959 . S
H174 C188 0.961 . S
H175 C189 0.953 1_564 S
H176 C189 0.970 . S
H177 C189 0.955 1_565 S
H178 C192 0.929 . S
H179 C193 0.931 . S
H180 C195 0.930 . S
C181 H169 0.930 . S
C181 C182 1.399 . S
C181 C186 1.399 . S
C182 C181 1.399 . S
C182 C183 1.376 1_455 S
C183 H170 0.930 . S
C183 C182 1.376 1_655 S
C183 C184 1.388 1_554 S
C184 H171 0.930 . S
C184 C183 1.388 1_556 S
C184 C185 1.390 . S
C185 C184 1.390 . S
C185 C186 1.394 1_656 S
C185 C191 1.465 1_565 S
C186 C181 1.399 . S
C186 C185 1.394 1_454 S
C186 C187 1.516 1_565 S
C187 C186 1.516 1_545 S
C187 C188 1.502 . S
C187 C189 1.564 1_554 S
C187 C190 1.526 1_554 S
C188 H172 0.959 . S
C188 H173 0.959 . S
C188 H174 0.961 . S
C188 C187 1.502 . S
C189 H175 0.953 1_546 S
C189 H176 0.970 . S
C189 H177 0.955 1_545 S
C189 C187 1.564 1_556 S
C190 C187 1.526 1_556 S
C190 C191 1.396 1_455 S
C190 C195 1.390 . S
C191 C185 1.465 1_545 S
C191 C190 1.396 1_655 S
C191 C192 1.399 . S
C192 H178 0.929 . S
C192 C191 1.399 . S
C192 C193 1.385 . S
C193 H179 0.931 . S
C193 C192 1.385 . S
C193 C194 1.389 1_655 S
C194 C193 1.389 1_455 S
C194 C195 1.387 . S
C195 H180 0.930 . S
C195 C190 1.390 . S
C195 C194 1.387 . S
H196 C208 0.930 . S
H197 C210 0.930 . S
H198 C211 0.930 . S
H199 C215 0.959 . S
H200 C215 0.959 . S
H201 C215 0.961 . S
H202 C216 0.960 . S
H203 C216 0.961 . S
H204 C216 0.959 . S
H205 C219 0.929 . S
H206 C220 0.931 . S
H207 C222 0.930 . S
C208 H196 0.930 . S
C208 C209 1.399 . S
C208 C213 1.399 . S
C209 C208 1.399 . S
C209 C210 1.376 . S
C210 H197 0.930 . S
C210 C209 1.376 . S
C210 C211 1.388 . S
C211 H198 0.930 . S
C211 C210 1.388 . S
C211 C212 1.390 . S
C212 C211 1.390 . S
C212 C213 1.394 . S
C212 C218 1.465 . S
C213 C208 1.399 . S
C213 C212 1.394 . S
C213 C214 1.516 . S
C214 C213 1.516 . S
C214 C215 1.502 . S
C214 C216 1.561 . S
C214 C217 1.526 . S
C215 H199 0.959 . S
C215 H200 0.959 . S
C215 H201 0.961 . S
C215 C214 1.502 . S
C216 H202 0.960 . S
C216 H203 0.961 . S
C216 H204 0.959 . S
C216 C214 1.561 . S
C217 C214 1.526 . S
C217 C218 1.396 . S
C217 C222 1.390 . S
C218 C212 1.465 . S
C218 C217 1.396 . S
C218 C219 1.399 . S
C219 H205 0.929 . S
C219 C218 1.399 . S
C219 C220 1.385 . S
C220 H206 0.931 . S
C220 C219 1.385 . S
C220 C221 1.389 . S
C221 C220 1.389 . S
C221 C222 1.387 . S
C222 H207 0.930 . S
C222 C217 1.390 . S
C222 C221 1.387 . S
H223 C235 0.930 . S
H224 C237 0.930 . S
H225 C238 0.930 . S
H226 C242 0.959 . S
H227 C242 0.959 . S
H228 C242 0.961 . S
H229 C243 0.960 . S
H230 C243 0.961 . S
H231 C243 0.959 . S
H232 C246 0.929 . S
H233 C247 0.931 . S
H234 C249 0.930 . S
C235 H223 0.930 . S
C235 C236 1.399 . S
C235 C240 1.399 . S
C236 C235 1.399 . S
C236 C237 1.376 . S
C237 H224 0.930 . S
C237 C236 1.376 . S
C237 C238 1.388 . S
C238 H225 0.930 . S
C238 C237 1.388 . S
C238 C239 1.390 . S
C239 C238 1.390 . S
C239 C240 1.394 . S
C239 C245 1.465 . S
C240 C235 1.399 . S
C240 C239 1.394 . S
C240 C241 1.516 . S
C241 C240 1.516 . S
C241 C242 1.502 . S
C241 C243 1.561 . S
C241 C244 1.526 . S
C242 H226 0.959 . S
C242 H227 0.959 . S
C242 H228 0.961 . S
C242 C241 1.502 . S
C243 H229 0.960 . S
C243 H230 0.961 . S
C243 H231 0.959 . S
C243 C241 1.561 . S
C244 C241 1.526 . S
C244 C245 1.396 . S
C244 C249 1.390 . S
C245 C239 1.465 . S
C245 C244 1.396 . S
C245 C246 1.399 . S
C246 H232 0.929 . S
C246 C245 1.399 . S
C246 C247 1.385 . S
C247 H233 0.931 . S
C247 C246 1.385 . S
C247 C248 1.389 . S
C248 C247 1.389 . S
C248 C249 1.387 . S
C249 H234 0.930 . S
C249 C244 1.390 . S
C249 C248 1.387 . S
H250 C262 0.930 . S
H251 C264 0.930 . S
H252 C265 0.930 . S
H253 C269 0.959 . S
H254 C269 0.959 . S
H255 C269 0.961 . S
H256 C270 0.960 . S
H257 C270 0.961 . S
H258 C270 0.959 . S
H259 C273 0.929 . S
H260 C274 0.931 . S
H261 C276 0.930 . S
C262 H250 0.930 . S
C262 C263 1.399 . S
C262 C267 1.399 . S
C263 C262 1.399 . S
C263 C264 1.376 . S
C264 H251 0.930 . S
C264 C263 1.376 . S
C264 C265 1.388 . S
C265 H252 0.930 . S
C265 C264 1.388 . S
C265 C266 1.390 . S
C266 C265 1.390 . S
C266 C267 1.394 . S
C266 C272 1.465 . S
C267 C262 1.399 . S
C267 C266 1.394 . S
C267 C268 1.516 . S
C268 C267 1.516 . S
C268 C269 1.502 . S
C268 C270 1.561 . S
C268 C271 1.526 . S
C269 H253 0.959 . S
C269 H254 0.959 . S
C269 H255 0.961 . S
C269 C268 1.502 . S
C270 H256 0.960 . S
C270 H257 0.961 . S
C270 H258 0.959 . S
C270 C268 1.561 . S
C271 C268 1.526 . S
C271 C272 1.396 . S
C271 C276 1.390 . S
C272 C266 1.465 . S
C272 C271 1.396 . S
C272 C273 1.399 . S
C273 H259 0.929 . S
C273 C272 1.399 . S
C273 C274 1.385 . S
C274 H260 0.931 . S
C274 C273 1.385 . S
C274 C275 1.389 . S
C275 C274 1.389 . S
C275 C276 1.387 . S
C276 H261 0.930 . S
C276 C271 1.390 . S
C276 C275 1.387 . S
H277 C289 0.930 . S
H278 C291 0.930 . S
H279 C292 0.930 . S
H280 C296 0.959 . S
H281 C296 0.959 . S
H282 C296 0.961 . S
H283 C297 0.960 . S
H284 C297 0.961 . S
H285 C297 0.959 . S
H286 C300 0.929 . S
H287 C301 0.931 . S
H288 C303 0.930 . S
C289 H277 0.930 . S
C289 C290 1.399 . S
C289 C294 1.399 . S
C290 C289 1.399 . S
C290 C291 1.376 . S
C291 H278 0.930 . S
C291 C290 1.376 . S
C291 C292 1.388 . S
C292 H279 0.930 . S
C292 C291 1.388 . S
C292 C293 1.390 . S
C293 C292 1.390 . S
C293 C294 1.394 . S
C293 C299 1.465 . S
C294 C289 1.399 . S
C294 C293 1.394 . S
C294 C295 1.516 . S
C295 C294 1.516 . S
C295 C296 1.502 . S
C295 C297 1.561 . S
C295 C298 1.526 . S
C296 H280 0.959 . S
C296 H281 0.959 . S
C296 H282 0.961 . S
C296 C295 1.502 . S
C297 H283 0.960 . S
C297 H284 0.961 . S
C297 H285 0.959 . S
C297 C295 1.561 . S
C298 C295 1.526 . S
C298 C299 1.396 . S
C298 C303 1.390 . S
C299 C293 1.465 . S
C299 C298 1.396 . S
C299 C300 1.399 . S
C300 H286 0.929 . S
C300 C299 1.399 . S
C300 C301 1.385 . S
C301 H287 0.931 . S
C301 C300 1.385 . S
C301 C302 1.389 . S
C302 C301 1.389 . S
C302 C303 1.387 . S
C303 H288 0.930 . S
C303 C298 1.390 . S
C303 C302 1.387 . S
H304 C316 0.930 . S
H305 C318 0.930 . S
H306 C319 0.930 1_554 S
H307 C323 0.959 . S
H308 C323 0.959 . S
H309 C323 0.961 . S
H310 C324 0.960 1_556 S
H311 C324 0.961 . S
H312 C324 0.959 . S
H313 C327 0.929 . S
H314 C328 0.931 . S
H315 C330 0.930 . S
C316 H304 0.930 . S
C316 C317 1.399 . S
C316 C321 1.399 . S
C317 C316 1.399 . S
C317 C318 1.376 . S
C318 H305 0.930 . S
C318 C317 1.376 . S
C318 C319 1.388 . S
C319 H306 0.930 1_556 S
C319 C318 1.388 . S
C319 C320 1.390 . S
C320 C319 1.390 . S
C320 C321 1.394 . S
C320 C326 1.465 1_556 S
C321 C316 1.399 . S
C321 C320 1.394 . S
C321 C322 1.516 . S
C322 C321 1.516 . S
C322 C323 1.502 . S
C322 C324 1.561 1_556 S
C322 C325 1.526 1_556 S
C323 H307 0.959 . S
C323 H308 0.959 . S
C323 H309 0.961 . S
C323 C322 1.502 . S
C324 H310 0.960 1_554 S
C324 H311 0.961 . S
C324 H312 0.959 . S
C324 C322 1.561 1_554 S
C325 C322 1.526 1_554 S
C325 C326 1.396 . S
C325 C330 1.390 . S
C326 C320 1.465 1_554 S
C326 C325 1.396 . S
C326 C327 1.399 . S
C327 H313 0.929 . S
C327 C326 1.399 . S
C327 C328 1.385 . S
C328 H314 0.931 . S
C328 C327 1.385 . S
C328 C329 1.389 . S
C329 C328 1.389 . S
C329 C330 1.387 . S
C330 H315 0.930 . S
C330 C325 1.390 . S
C330 C329 1.387 . S
H331 C343 0.930 . S
H332 C345 0.930 . S
H333 C346 0.930 . S
H334 C350 0.959 . S
H335 C350 0.959 . S
H336 C350 0.961 . S
H337 C351 0.960 . S
H338 C351 0.961 . S
H339 C351 0.959 . S
H340 C354 0.929 . S
H341 C355 0.931 . S
H342 C357 0.930 . S
C343 H331 0.930 . S
C343 C344 1.399 . S
C343 C348 1.399 . S
C344 C343 1.399 . S
C344 C345 1.376 . S
C345 H332 0.930 . S
C345 C344 1.376 . S
C345 C346 1.388 . S
C346 H333 0.930 . S
C346 C345 1.388 . S
C346 C347 1.390 . S
C347 C346 1.390 . S
C347 C348 1.394 . S
C347 C353 1.465 1_556 S
C348 C343 1.399 . S
C348 C347 1.394 . S
C348 C349 1.516 1_556 S
C349 C348 1.516 1_554 S
C349 C350 1.502 . S
C349 C351 1.561 . S
C349 C352 1.526 . S
C350 H334 0.959 . S
C350 H335 0.959 . S
C350 H336 0.961 . S
C350 C349 1.502 . S
C351 H337 0.960 . S
C351 H338 0.961 . S
C351 H339 0.959 . S
C351 C349 1.561 . S
C352 C349 1.526 . S
C352 C353 1.396 . S
C352 C357 1.390 . S
C353 C347 1.465 1_554 S
C353 C352 1.396 . S
C353 C354 1.399 1_554 S
C354 H340 0.929 . S
C354 C353 1.399 1_556 S
C354 C355 1.385 1_556 S
C355 H341 0.931 . S
C355 C354 1.385 1_554 S
C355 C356 1.389 . S
C356 C355 1.389 . S
C356 C357 1.387 . S
C357 H342 0.930 . S
C357 C352 1.390 . S
C357 C356 1.387 . S
H358 C370 0.930 . S
H359 C372 0.930 . S
H360 C373 0.930 . S
H361 C377 0.959 . S
H362 C377 0.959 . S
H363 C377 0.961 . S
H364 C378 0.960 . S
H365 C378 0.961 . S
H366 C378 0.959 . S
H367 C381 0.929 . S
H368 C382 0.931 . S
H369 C384 0.930 . S
C370 H358 0.930 . S
C370 C371 1.399 . S
C370 C375 1.399 . S
C371 C370 1.399 . S
C371 C372 1.376 . S
C372 H359 0.930 . S
C372 C371 1.376 . S
C372 C373 1.388 . S
C373 H360 0.930 . S
C373 C372 1.388 . S
C373 C374 1.390 . S
C374 C373 1.390 . S
C374 C375 1.394 . S
C374 C380 1.465 1_554 S
C375 C370 1.399 . S
C375 C374 1.394 . S
C375 C376 1.516 . S
C376 C375 1.516 . S
C376 C377 1.502 . S
C376 C378 1.561 1_554 S
C376 C379 1.526 1_554 S
C377 H361 0.959 . S
C377 H362 0.959 . S
C377 H363 0.961 . S
C377 C376 1.502 . S
C378 H364 0.960 . S
C378 H365 0.961 . S
C378 H366 0.959 . S
C378 C376 1.561 1_556 S
C379 C376 1.526 1_556 S
C379 C380 1.396 . S
C379 C384 1.390 . S
C380 C374 1.465 1_556 S
C380 C379 1.396 . S
C380 C381 1.399 . S
C381 H367 0.929 . S
C381 C380 1.399 . S
C381 C382 1.385 . S
C382 H368 0.931 . S
C382 C381 1.385 . S
C382 C383 1.389 . S
C383 C382 1.389 . S
C383 C384 1.387 . S
C384 H369 0.930 . S
C384 C379 1.390 . S
C384 C383 1.387 . S
H385 C397 0.930 . S
H386 C399 0.930 . S
H387 C400 0.930 . S
H388 C404 0.959 . S
H389 C404 0.959 . S
H390 C404 0.961 . S
H391 C405 0.960 . S
H392 C405 0.961 . S
H393 C405 0.959 1_556 S
H394 C408 0.929 . S
H395 C409 0.931 . S
H396 C411 0.930 . S
C397 H385 0.930 . S
C397 C398 1.399 . S
C397 C402 1.399 . S
C398 C397 1.399 . S
C398 C399 1.376 . S
C399 H386 0.930 . S
C399 C398 1.376 . S
C399 C400 1.388 1_554 S
C400 H387 0.930 . S
C400 C399 1.388 1_556 S
C400 C401 1.390 . S
C401 C400 1.390 . S
C401 C402 1.391 1_556 S
C401 C407 1.467 . S
C402 C397 1.399 . S
C402 C401 1.391 1_554 S
C402 C403 1.516 . S
C403 C402 1.516 . S
C403 C404 1.502 . S
C403 C405 1.561 . S
C403 C406 1.526 1_554 S
C404 H388 0.959 . S
C404 H389 0.959 . S
C404 H390 0.961 . S
C404 C403 1.502 . S
C405 H391 0.960 . S
C405 H392 0.961 . S
C405 H393 0.959 1_554 S
C405 C403 1.561 . S
C406 C403 1.526 1_556 S
C406 C407 1.396 . S
C406 C411 1.390 . S
C407 C401 1.467 . S
C407 C406 1.396 . S
C407 C408 1.399 . S
C408 H394 0.929 . S
C408 C407 1.399 . S
C408 C409 1.385 . S
C409 H395 0.931 . S
C409 C408 1.385 . S
C409 C410 1.389 . S
C410 C409 1.389 . S
C410 C411 1.387 . S
C411 H396 0.930 . S
C411 C406 1.390 . S
C411 C410 1.387 . S
C101 C62 1.582 . S
C113 C15 1.584 . S
C128 C40 1.593 . S
C140 C81 1.572 . S
C155 C74 1.580 . S
C167 C43 1.581 . S
C182 C8 1.584 . S
C194 C65 1.585 . S
C209 C73 2.227 . S
C221 C7 2.226 . S
C236 C54 2.168 . S
C248 C32 2.159 . S
C263 C59 2.213 . S
C275 C37 2.211 . S
C290 C18 2.137 . S
C302 C84 2.122 . S
C317 C87 0.366 . S
C329 C21 0.490 . S
C344 C52 0.428 . S
C356 C30 0.276 . S
C371 C29 0.383 . S
C383 C51 0.473 . S
C398 C10 0.237 . S
C410 C76 0.439 . S
