# Generated by pormake.
# Topology wjc, (7)-cn, num edge types: 1
# Building blocks:
#     Node 0, Type 0, BuildingBlock: HICVOG_clean_sbu_0, # of connection points: 7
#     Node 1, Type 0, BuildingBlock: HICVOG_clean_sbu_0, # of connection points: 7
#     Node 2, Type 0, BuildingBlock: HICVOG_clean_sbu_0, # of connection points: 7
#     Node 3, Type 0, BuildingBlock: HICVOG_clean_sbu_0, # of connection points: 7
#     Node 4, Type 0, BuildingBlock: HICVOG_clean_sbu_0, # of connection points: 7
#     Node 5, Type 0, BuildingBlock: HICVOG_clean_sbu_0, # of connection points: 7
#     Node 6, Type 0, BuildingBlock: HICVOG_clean_sbu_0, # of connection points: 7
#     Node 7, Type 0, BuildingBlock: HICVOG_clean_sbu_0, # of connection points: 7
#     Node 8, Type 0, BuildingBlock: HICVOG_clean_sbu_0, # of connection points: 7
#     Node 9, Type 0, BuildingBlock: HICVOG_clean_sbu_0, # of connection points: 7
#     Node 10, Type 0, BuildingBlock: HICVOG_clean_sbu_0, # of connection points: 7
#     Node 11, Type 0, BuildingBlock: HICVOG_clean_sbu_0, # of connection points: 7
#     Node 12, Type 0, BuildingBlock: HICVOG_clean_sbu_0, # of connection points: 7
#     Node 13, Type 0, BuildingBlock: HICVOG_clean_sbu_0, # of connection points: 7
#     Node 14, Type 0, BuildingBlock: HICVOG_clean_sbu_0, # of connection points: 7
#     Node 15, Type 0, BuildingBlock: HICVOG_clean_sbu_0, # of connection points: 7
#     Node 16, Type 0, BuildingBlock: HICVOG_clean_sbu_0, # of connection points: 7
#     Node 17, Type 0, BuildingBlock: HICVOG_clean_sbu_0, # of connection points: 7
#     Node 18, Type 0, BuildingBlock: HICVOG_clean_sbu_0, # of connection points: 7
#     Node 19, Type 0, BuildingBlock: HICVOG_clean_sbu_0, # of connection points: 7
#     Node 20, Type 0, BuildingBlock: HICVOG_clean_sbu_0, # of connection points: 7
#     Node 21, Type 0, BuildingBlock: HICVOG_clean_sbu_0, # of connection points: 7
#     Node 22, Type 0, BuildingBlock: HICVOG_clean_sbu_0, # of connection points: 7
#     Node 23, Type 0, BuildingBlock: HICVOG_clean_sbu_0, # of connection points: 7
#     Edge 24, Type (0, 0), BuildingBlock: XIVTED_clean_linker_0, # of connection points: 2
#     Edge 25, Type (0, 0), BuildingBlock: XIVTED_clean_linker_0, # of connection points: 2
#     Edge 26, Type (0, 0), BuildingBlock: XIVTED_clean_linker_0, # of connection points: 2
#     Edge 27, Type (0, 0), BuildingBlock: XIVTED_clean_linker_0, # of connection points: 2
#     Edge 28, Type (0, 0), BuildingBlock: XIVTED_clean_linker_0, # of connection points: 2
#     Edge 29, Type (0, 0), BuildingBlock: XIVTED_clean_linker_0, # of connection points: 2
#     Edge 30, Type (0, 0), BuildingBlock: XIVTED_clean_linker_0, # of connection points: 2
#     Edge 31, Type (0, 0), BuildingBlock: XIVTED_clean_linker_0, # of connection points: 2
#     Edge 32, Type (0, 0), BuildingBlock: XIVTED_clean_linker_0, # of connection points: 2
#     Edge 33, Type (0, 0), BuildingBlock: XIVTED_clean_linker_0, # of connection points: 2
#     Edge 34, Type (0, 0), BuildingBlock: XIVTED_clean_linker_0, # of connection points: 2
#     Edge 35, Type (0, 0), BuildingBlock: XIVTED_clean_linker_0, # of connection points: 2
#     Edge 36, Type (0, 0), BuildingBlock: XIVTED_clean_linker_0, # of connection points: 2
#     Edge 37, Type (0, 0), BuildingBlock: XIVTED_clean_linker_0, # of connection points: 2
#     Edge 38, Type (0, 0), BuildingBlock: XIVTED_clean_linker_0, # of connection points: 2
#     Edge 39, Type (0, 0), BuildingBlock: XIVTED_clean_linker_0, # of connection points: 2
#     Edge 40, Type (0, 0), BuildingBlock: XIVTED_clean_linker_0, # of connection points: 2
#     Edge 41, Type (0, 0), BuildingBlock: XIVTED_clean_linker_0, # of connection points: 2
#     Edge 42, Type (0, 0), BuildingBlock: XIVTED_clean_linker_0, # of connection points: 2
#     Edge 43, Type (0, 0), BuildingBlock: XIVTED_clean_linker_0, # of connection points: 2
#     Edge 44, Type (0, 0), BuildingBlock: XIVTED_clean_linker_0, # of connection points: 2
#     Edge 45, Type (0, 0), BuildingBlock: XIVTED_clean_linker_0, # of connection points: 2
#     Edge 46, Type (0, 0), BuildingBlock: XIVTED_clean_linker_0, # of connection points: 2
#     Edge 47, Type (0, 0), BuildingBlock: XIVTED_clean_linker_0, # of connection points: 2
#     Edge 48, Type (0, 0), BuildingBlock: XIVTED_clean_linker_0, # of connection points: 2
#     Edge 49, Type (0, 0), BuildingBlock: XIVTED_clean_linker_0, # of connection points: 2
#     Edge 50, Type (0, 0), BuildingBlock: XIVTED_clean_linker_0, # of connection points: 2
#     Edge 51, Type (0, 0), BuildingBlock: XIVTED_clean_linker_0, # of connection points: 2
#     Edge 52, Type (0, 0), BuildingBlock: XIVTED_clean_linker_0, # of connection points: 2
#     Edge 53, Type (0, 0), BuildingBlock: XIVTED_clean_linker_0, # of connection points: 2
#     Edge 54, Type (0, 0), BuildingBlock: XIVTED_clean_linker_0, # of connection points: 2
#     Edge 55, Type (0, 0), BuildingBlock: XIVTED_clean_linker_0, # of connection points: 2
#     Edge 56, Type (0, 0), BuildingBlock: XIVTED_clean_linker_0, # of connection points: 2
#     Edge 57, Type (0, 0), BuildingBlock: XIVTED_clean_linker_0, # of connection points: 2
#     Edge 58, Type (0, 0), BuildingBlock: XIVTED_clean_linker_0, # of connection points: 2
#     Edge 59, Type (0, 0), BuildingBlock: XIVTED_clean_linker_0, # of connection points: 2
#     Edge 60, Type (0, 0), BuildingBlock: XIVTED_clean_linker_0, # of connection points: 2
#     Edge 61, Type (0, 0), BuildingBlock: XIVTED_clean_linker_0, # of connection points: 2
#     Edge 62, Type (0, 0), BuildingBlock: XIVTED_clean_linker_0, # of connection points: 2
#     Edge 63, Type (0, 0), BuildingBlock: XIVTED_clean_linker_0, # of connection points: 2
#     Edge 64, Type (0, 0), BuildingBlock: XIVTED_clean_linker_0, # of connection points: 2
#     Edge 65, Type (0, 0), BuildingBlock: XIVTED_clean_linker_0, # of connection points: 2
#     Edge 66, Type (0, 0), BuildingBlock: XIVTED_clean_linker_0, # of connection points: 2
#     Edge 67, Type (0, 0), BuildingBlock: XIVTED_clean_linker_0, # of connection points: 2
#     Edge 68, Type (0, 0), BuildingBlock: XIVTED_clean_linker_0, # of connection points: 2
#     Edge 69, Type (0, 0), BuildingBlock: XIVTED_clean_linker_0, # of connection points: 2
#     Edge 70, Type (0, 0), BuildingBlock: XIVTED_clean_linker_0, # of connection points: 2
#     Edge 71, Type (0, 0), BuildingBlock: XIVTED_clean_linker_0, # of connection points: 2
#     Edge 72, Type (0, 0), BuildingBlock: XIVTED_clean_linker_0, # of connection points: 2
#     Edge 73, Type (0, 0), BuildingBlock: XIVTED_clean_linker_0, # of connection points: 2
#     Edge 74, Type (0, 0), BuildingBlock: XIVTED_clean_linker_0, # of connection points: 2
#     Edge 75, Type (0, 0), BuildingBlock: XIVTED_clean_linker_0, # of connection points: 2
#     Edge 76, Type (0, 0), BuildingBlock: XIVTED_clean_linker_0, # of connection points: 2
#     Edge 77, Type (0, 0), BuildingBlock: XIVTED_clean_linker_0, # of connection points: 2
#     Edge 78, Type (0, 0), BuildingBlock: XIVTED_clean_linker_0, # of connection points: 2
#     Edge 79, Type (0, 0), BuildingBlock: XIVTED_clean_linker_0, # of connection points: 2
#     Edge 80, Type (0, 0), BuildingBlock: XIVTED_clean_linker_0, # of connection points: 2
#     Edge 81, Type (0, 0), BuildingBlock: XIVTED_clean_linker_0, # of connection points: 2
#     Edge 82, Type (0, 0), BuildingBlock: XIVTED_clean_linker_0, # of connection points: 2
#     Edge 83, Type (0, 0), BuildingBlock: XIVTED_clean_linker_0, # of connection points: 2
#     Edge 84, Type (0, 0), BuildingBlock: XIVTED_clean_linker_0, # of connection points: 2
#     Edge 85, Type (0, 0), BuildingBlock: XIVTED_clean_linker_0, # of connection points: 2
#     Edge 86, Type (0, 0), BuildingBlock: XIVTED_clean_linker_0, # of connection points: 2
#     Edge 87, Type (0, 0), BuildingBlock: XIVTED_clean_linker_0, # of connection points: 2
#     Edge 88, Type (0, 0), BuildingBlock: XIVTED_clean_linker_0, # of connection points: 2
#     Edge 89, Type (0, 0), BuildingBlock: XIVTED_clean_linker_0, # of connection points: 2
#     Edge 90, Type (0, 0), BuildingBlock: XIVTED_clean_linker_0, # of connection points: 2
#     Edge 91, Type (0, 0), BuildingBlock: XIVTED_clean_linker_0, # of connection points: 2
#     Edge 92, Type (0, 0), BuildingBlock: XIVTED_clean_linker_0, # of connection points: 2
#     Edge 93, Type (0, 0), BuildingBlock: XIVTED_clean_linker_0, # of connection points: 2
#     Edge 94, Type (0, 0), BuildingBlock: XIVTED_clean_linker_0, # of connection points: 2
#     Edge 95, Type (0, 0), BuildingBlock: XIVTED_clean_linker_0, # of connection points: 2
#     Edge 96, Type (0, 0), BuildingBlock: XIVTED_clean_linker_0, # of connection points: 2
#     Edge 97, Type (0, 0), BuildingBlock: XIVTED_clean_linker_0, # of connection points: 2
#     Edge 98, Type (0, 0), BuildingBlock: XIVTED_clean_linker_0, # of connection points: 2
#     Edge 99, Type (0, 0), BuildingBlock: XIVTED_clean_linker_0, # of connection points: 2
#     Edge 100, Type (0, 0), BuildingBlock: XIVTED_clean_linker_0, # of connection points: 2
#     Edge 101, Type (0, 0), BuildingBlock: XIVTED_clean_linker_0, # of connection points: 2
#     Edge 102, Type (0, 0), BuildingBlock: XIVTED_clean_linker_0, # of connection points: 2
#     Edge 103, Type (0, 0), BuildingBlock: XIVTED_clean_linker_0, # of connection points: 2
#     Edge 104, Type (0, 0), BuildingBlock: XIVTED_clean_linker_0, # of connection points: 2
#     Edge 105, Type (0, 0), BuildingBlock: XIVTED_clean_linker_0, # of connection points: 2
#     Edge 106, Type (0, 0), BuildingBlock: XIVTED_clean_linker_0, # of connection points: 2
#     Edge 107, Type (0, 0), BuildingBlock: XIVTED_clean_linker_0, # of connection points: 2
# Relax obj value: 0.233
# Max RMSD: 0.226
# Mean RMSD: 0.226
data_MOF--net-wjc--node1-HICVOG_clean_sbu_0--edge1-XIVTED_clean_linker_0
_symmetry_space_group_name_H-M    P1
_symmetry_Int_Tables_number       1
_symmetry_cell_setting            triclinic
loop_
_symmetry_equiv_pos_as_xyz
'x, y, z'
_cell_length_a     41.394599
_cell_length_b     41.403726
_cell_length_c     80.684571
_cell_angle_alpha  89.99396
_cell_angle_beta   89.999275
_cell_angle_gamma 120.01447
loop_
_atom_site_label
_atom_site_type_symbol
_atom_site_fract_x
_atom_site_fract_y
_atom_site_fract_z
_atom_type_partial_charge
Zn0 Zn 0.4268 0.10936 0.11118 0.0
C1 C 0.50727 0.13499 0.14573 0.0
N2 N 0.51195 0.10976 0.13734 0.0
C3 C 0.48329 0.09545 0.12664 0.0
N4 N 0.46182 0.11147 0.12816 0.0
N5 N 0.47685 0.13589 0.14044 0.0
C6 C 0.51403 0.23992 0.14638 0.0
O7 O 0.50188 0.23046 0.13111 0.0
O8 O 0.38458 0.05553 0.10857 0.0
Zn9 Zn 0.45836 0.1642 0.15187 0.0
N10 N 0.4565 0.12629 0.09114 0.0
C11 C 0.51697 0.16862 0.0807 0.0
C12 C 0.49154 0.15537 0.09369 0.0
C13 C 0.44532 0.1105 0.07584 0.0
N14 N 0.50623 0.15258 0.06556 0.0
C15 C 0.47104 0.12402 0.06264 0.0
O16 O 0.42224 0.17214 0.13895 0.0
C17 C 0.40369 0.16546 0.12563 0.0
O18 O 0.40416 0.14375 0.1145 0.0
H19 H 0.49982 0.16776 0.10586 0.0
H20 H 0.4173 0.08736 0.07409 0.0
C21 C 0.43711 0.16038 0.18574 0.0
C22 C 0.42081 0.14279 0.20086 0.0
C23 C 0.40141 0.08398 0.18822 0.0
C24 C 0.41746 0.10163 0.17328 0.0
N25 N 0.43505 0.13941 0.17237 0.0
N26 N 0.40352 0.10486 0.20161 0.0
H27 H 0.45197 0.19042 0.18457 0.0
C28 C 0.36034 0.04163 0.12006 0.0
O29 O 0.36376 0.06255 0.13294 0.0
O30 O 0.50014 0.21555 0.15776 0.0
H31 H 0.41615 0.08545 0.16251 0.0
H32 H 0.5451 0.19138 0.08262 0.0
H33 H 0.38743 0.05391 0.1892 0.0
Zn34 Zn 0.29719 0.45487 0.15336 0.0
C35 C 0.39152 0.47954 0.12861 0.0
N36 N 0.40561 0.50846 0.13917 0.0
C37 C 0.37553 0.50391 0.14737 0.0
N38 N 0.34434 0.47324 0.14214 0.0
N39 N 0.35402 0.45798 0.13006 0.0
C40 C 0.32347 0.35664 0.12168 0.0
O41 O 0.30611 0.35971 0.1347 0.0
O42 O 0.2874 0.49664 0.159 0.0
Zn43 Zn 0.32151 0.42299 0.113 0.0
N44 N 0.29824 0.43188 0.17403 0.0
C45 C 0.32029 0.39895 0.19023 0.0
C46 C 0.31863 0.41453 0.17516 0.0
C47 C 0.2791 0.43406 0.1873 0.0
N48 N 0.30143 0.40132 0.20352 0.0
C49 C 0.28056 0.41833 0.20255 0.0
O50 O 0.26446 0.4001 0.11614 0.0
C51 C 0.24193 0.39973 0.12706 0.0
O52 O 0.25339 0.41851 0.14034 0.0
H53 H 0.33367 0.41311 0.16448 0.0
H54 H 0.26369 0.44865 0.18598 0.0
C55 C 0.33923 0.44174 0.07776 0.0
C56 C 0.3512 0.46738 0.06453 0.0
C57 C 0.35176 0.51304 0.08252 0.0
C58 C 0.33977 0.48766 0.09553 0.0
N59 N 0.33431 0.45281 0.09302 0.0
N60 N 0.35732 0.50241 0.06741 0.0
H61 H 0.33475 0.41386 0.07606 0.0
C62 C 0.27612 0.50981 0.14763 0.0
O63 O 0.27275 0.49701 0.13245 0.0
O64 O 0.33344 0.38101 0.11027 0.0
H65 H 0.33541 0.49583 0.10767 0.0
H66 H 0.33656 0.38519 0.19139 0.0
H67 H 0.35672 0.54103 0.08441 0.0
Zn68 Zn 0.90366 0.31883 0.11357 0.0
C69 C 0.87695 0.37269 0.1482 0.0
N70 N 0.90253 0.4028 0.14002 0.0
C71 C 0.91723 0.38877 0.12937 0.0
N72 N 0.90115 0.35124 0.13072 0.0
N73 N 0.87636 0.34152 0.14288 0.0
C74 C 0.77275 0.27423 0.14842 0.0
O75 O 0.78315 0.27204 0.13327 0.0
O76 O 0.95741 0.33005 0.11126 0.0
Zn77 Zn 0.84787 0.29429 0.15408 0.0
N78 N 0.88771 0.3325 0.09349 0.0
C79 C 0.84605 0.35127 0.08284 0.0
C80 C 0.85866 0.33856 0.09588 0.0
C81 C 0.90406 0.33745 0.07831 0.0
N82 N 0.86266 0.35693 0.06782 0.0
C83 C 0.89119 0.35017 0.06506 0.0
O84 O 0.83967 0.25077 0.14065 0.0
C85 C 0.84652 0.23927 0.12727 0.0
O86 O 0.86879 0.26177 0.11637 0.0
H87 H 0.8458 0.33413 0.10795 0.0
H88 H 0.92713 0.33243 0.07669 0.0
C89 C 0.85293 0.27718 0.18809 0.0
C90 C 0.87138 0.27536 0.2024 0.0
C91 C 0.92926 0.30871 0.18822 0.0
C92 C 0.9108 0.31034 0.17407 0.0
N93 N 0.87307 0.29437 0.17425 0.0
N94 N 0.90919 0.29111 0.20196 0.0
H95 H 0.82284 0.26412 0.18774 0.0
C96 C 0.97023 0.31768 0.12237 0.0
O97 O 0.94829 0.29834 0.13469 0.0
O98 O 0.79645 0.28448 0.16008 0.0
H99 H 0.9263 0.32381 0.16294 0.0
H100 H 0.82333 0.35674 0.08464 0.0
H101 H 0.95928 0.32104 0.18824 0.0
Zn102 Zn 0.55819 0.84513 0.15306 0.0
C103 C 0.53176 0.91291 0.12784 0.0
N104 N 0.50288 0.89789 0.13842 0.0
C105 C 0.50809 0.87303 0.14683 0.0
N106 N 0.53908 0.87303 0.14169 0.0
N107 N 0.55398 0.89774 0.1295 0.0
C108 C 0.65569 0.96779 0.12211 0.0
O109 O 0.65164 0.94636 0.13487 0.0
O110 O 0.51687 0.79351 0.1589 0.0
Zn111 Zn 0.58945 0.90064 0.11258 0.0
N112 N 0.5813 0.86984 0.17357 0.0
C113 C 0.6141 0.92513 0.18959 0.0
C114 C 0.59839 0.90758 0.17459 0.0
C115 C 0.57945 0.84882 0.1869 0.0
N116 N 0.6121 0.90419 0.20293 0.0
C117 C 0.59532 0.86631 0.20208 0.0
O118 O 0.61194 0.86608 0.11559 0.0
C119 C 0.61279 0.84444 0.12666 0.0
O120 O 0.59451 0.83764 0.14006 0.0
H121 H 0.59952 0.9238 0.16386 0.0
H122 H 0.56501 0.8188 0.18566 0.0
C123 C 0.57199 0.90145 0.07729 0.0
C124 C 0.54669 0.8888 0.06394 0.0
C125 C 0.50012 0.84321 0.08146 0.0
C126 C 0.52516 0.85561 0.0946 0.0
N127 N 0.5603 0.88476 0.09239 0.0
N128 N 0.51136 0.86014 0.06651 0.0
H129 H 0.60008 0.92464 0.07582 0.0
C130 C 0.50379 0.76908 0.14753 0.0
O131 O 0.51641 0.77864 0.13233 0.0
O132 O 0.6319 0.95444 0.11042 0.0
H133 H 0.51647 0.8425 0.10662 0.0
H134 H 0.62767 0.95516 0.19065 0.0
H135 H 0.4719 0.8204 0.08311 0.0
Zn136 Zn 0.69314 0.58611 0.11265 0.0
C137 C 0.64002 0.5046 0.14684 0.0
N138 N 0.60975 0.49944 0.13862 0.0
C139 C 0.62333 0.52847 0.12813 0.0
N140 N 0.66076 0.55073 0.12966 0.0
N141 N 0.67085 0.53576 0.1417 0.0
C142 C 0.7401 0.50117 0.14768 0.0
O143 O 0.74342 0.51392 0.13249 0.0
O144 O 0.68133 0.62818 0.11021 0.0
Zn145 Zn 0.71789 0.55518 0.15309 0.0
N146 N 0.6801 0.55668 0.09253 0.0
C147 C 0.66158 0.49638 0.08178 0.0
C148 C 0.67396 0.52153 0.09488 0.0
C149 C 0.67552 0.56826 0.07732 0.0
N150 N 0.65632 0.50752 0.06674 0.0
C151 C 0.66314 0.54285 0.06401 0.0
O152 O 0.76164 0.59169 0.14009 0.0
C153 C 0.77293 0.61002 0.12669 0.0
O154 O 0.75028 0.60904 0.11567 0.0
H155 H 0.6781 0.51294 0.10697 0.0
H156 H 0.68055 0.59636 0.07573 0.0
C157 C 0.73538 0.57658 0.18692 0.0
C158 C 0.73391 0.59266 0.20207 0.0
C159 C 0.69368 0.61118 0.18957 0.0
C160 C 0.69545 0.59535 0.17459 0.0
N161 N 0.71613 0.5783 0.1736 0.0
N162 N 0.71277 0.60939 0.20291 0.0
H163 H 0.75097 0.56216 0.18568 0.0
C164 C 0.6921 0.6528 0.12154 0.0
O165 O 0.71016 0.64989 0.13433 0.0
O166 O 0.72842 0.51405 0.159 0.0
H167 H 0.6803 0.59639 0.16387 0.0
H168 H 0.65608 0.46817 0.08355 0.0
H169 H 0.67719 0.62473 0.19062 0.0
Zn170 Zn 0.16801 0.71632 0.15368 0.0
C171 C 0.09864 0.62112 0.12941 0.0
N172 N 0.11368 0.60753 0.14011 0.0
C173 C 0.13915 0.63788 0.14817 0.0
N174 N 0.13933 0.66878 0.14276 0.0
N175 N 0.11436 0.65865 0.13065 0.0
C176 C 0.04453 0.69172 0.12157 0.0
O177 O 0.06599 0.71173 0.13389 0.0
O178 O 0.21932 0.72603 0.15982 0.0
Zn179 Zn 0.11174 0.69065 0.11327 0.0
N180 N 0.14325 0.71703 0.17387 0.0
C181 C 0.08774 0.70432 0.18803 0.0
C182 C 0.10561 0.70192 0.17382 0.0
C183 C 0.16384 0.7341 0.18763 0.0
N184 N 0.10828 0.72179 0.20169 0.0
C185 C 0.146 0.73669 0.20199 0.0
O186 O 0.14655 0.74784 0.11581 0.0
C187 C 0.16898 0.7706 0.12659 0.0
O188 O 0.17607 0.75947 0.14001 0.0
H189 H 0.08976 0.68857 0.16276 0.0
H190 H 0.19385 0.74651 0.18716 0.0
C191 C 0.11214 0.67355 0.07791 0.0
C192 C 0.1246 0.66076 0.06452 0.0
C193 C 0.16728 0.65559 0.08246 0.0
C194 C 0.15514 0.66845 0.0956 0.0
N195 N 0.12746 0.67656 0.09321 0.0
N196 N 0.1517 0.65193 0.06731 0.0
H197 H 0.09019 0.68025 0.07629 0.0
C198 C 0.24371 0.73683 0.14844 0.0
O199 O 0.23423 0.73977 0.13321 0.0
O200 O 0.05791 0.67917 0.1108 0.0
H201 H 0.16734 0.67146 0.10775 0.0
H202 H 0.05781 0.69268 0.18817 0.0
H203 H 0.18891 0.64851 0.08425 0.0
Zn204 Zn 0.90475 0.58766 0.39473 0.0
C205 C 0.87753 0.50503 0.36114 0.0
N206 N 0.90269 0.50048 0.36965 0.0
C207 C 0.91758 0.52976 0.38001 0.0
N208 N 0.90202 0.55159 0.37814 0.0
N209 N 0.87723 0.53603 0.36602 0.0
C210 C 0.77379 0.49819 0.35991 0.0
O211 O 0.7833 0.51067 0.37513 0.0
O212 O 0.95866 0.63029 0.39678 0.0
Zn213 Zn 0.84902 0.55436 0.35437 0.0
N214 N 0.88898 0.55912 0.41511 0.0
C215 C 0.84741 0.4992 0.42629 0.0
C216 C 0.85983 0.52393 0.41303 0.0
C217 C 0.90564 0.57116 0.4302 0.0
N218 N 0.86432 0.51078 0.44121 0.0
C219 C 0.89297 0.54615 0.44367 0.0
O220 O 0.84045 0.59029 0.36716 0.0
C221 C 0.84721 0.60915 0.38039 0.0
O222 O 0.86954 0.60947 0.39141 0.0
H223 H 0.84673 0.51496 0.40102 0.0
H224 H 0.92883 0.59928 0.43157 0.0
C225 C 0.85295 0.57603 0.32057 0.0
C226 C 0.8705 0.59206 0.30541 0.0
C227 C 0.92923 0.6101 0.31784 0.0
C228 C 0.91162 0.59429 0.33283 0.0
N229 N 0.87389 0.57751 0.33386 0.0
N230 N 0.90836 0.60854 0.30454 0.0
H231 H 0.82293 0.56179 0.32184 0.0
C232 C 0.97292 0.65273 0.38466 0.0
O233 O 0.95226 0.64757 0.37147 0.0
O234 O 0.79796 0.51222 0.34847 0.0
H235 H 0.92778 0.59509 0.34351 0.0
H236 H 0.8246 0.47095 0.42474 0.0
H237 H 0.95925 0.62343 0.31676 0.0
Zn238 Zn 0.30247 0.84614 0.35328 0.0
C239 C 0.39534 0.91229 0.3798 0.0
N240 N 0.41026 0.8992 0.3688 0.0
C241 C 0.38091 0.87559 0.35967 0.0
N242 N 0.34922 0.87411 0.36486 0.0
N243 N 0.35802 0.8971 0.37771 0.0
C244 C 0.32333 0.96663 0.38538 0.0
O245 O 0.30424 0.94517 0.37289 0.0
O246 O 0.29342 0.79538 0.34678 0.0
Zn247 Zn 0.32456 0.8996 0.39434 0.0
N248 N 0.30271 0.87212 0.33334 0.0
C249 C 0.31767 0.92875 0.31963 0.0
C250 C 0.31932 0.9099 0.33364 0.0
C251 C 0.28486 0.85232 0.31953 0.0
N252 N 0.29942 0.90902 0.30592 0.0
C253 C 0.28301 0.87115 0.30537 0.0
O254 O 0.26765 0.86416 0.39112 0.0
C255 C 0.24582 0.84213 0.37998 0.0
O256 O 0.2582 0.83632 0.36661 0.0
H257 H 0.33328 0.92513 0.34474 0.0
H258 H 0.2713 0.8222 0.3198 0.0
C259 C 0.34159 0.90101 0.42981 0.0
C260 C 0.35397 0.88884 0.44345 0.0
C261 C 0.35668 0.84364 0.4263 0.0
C262 C 0.3443 0.85557 0.41289 0.0
N263 N 0.33757 0.8843 0.41479 0.0
N264 N 0.36136 0.86058 0.44118 0.0
H265 H 0.33611 0.92387 0.43102 0.0
C266 C 0.28605 0.77188 0.35832 0.0
O267 O 0.28657 0.78226 0.37376 0.0
O268 O 0.33533 0.95334 0.39646 0.0
H269 H 0.34068 0.84244 0.40092 0.0
H270 H 0.33051 0.95882 0.3197 0.0
H271 H 0.36266 0.82116 0.42491 0.0
Zn272 Zn 0.45837 0.29299 0.35381 0.0
C273 C 0.48608 0.38702 0.37944 0.0
N274 N 0.51577 0.40039 0.36934 0.0
C275 C 0.51014 0.37025 0.36087 0.0
N276 N 0.47821 0.33966 0.36552 0.0
N277 N 0.46301 0.34981 0.37745 0.0
C278 C 0.35448 0.31583 0.40274 0.0
O279 O 0.34967 0.29029 0.41368 0.0
O280 O 0.49923 0.28199 0.34804 0.0
Zn281 Zn 0.42513 0.31733 0.39363 0.0
N282 N 0.43612 0.29587 0.33324 0.0
C283 C 0.40498 0.32016 0.31719 0.0
C284 C 0.42005 0.31746 0.33223 0.0
C285 C 0.43758 0.27661 0.31987 0.0
N286 N 0.40652 0.30105 0.30381 0.0
C287 C 0.42227 0.27901 0.30465 0.0
O288 O 0.40244 0.26014 0.39066 0.0
C289 C 0.40222 0.2376 0.37977 0.0
O290 O 0.42128 0.24905 0.36657 0.0
H291 H 0.41922 0.33262 0.34299 0.0
H292 H 0.45126 0.26031 0.32112 0.0
C293 C 0.44036 0.33637 0.42928 0.0
C294 C 0.46482 0.34803 0.44294 0.0
C295 C 0.51092 0.34577 0.4263 0.0
C296 C 0.48666 0.33396 0.41288 0.0
N297 N 0.45218 0.33006 0.41447 0.0
N298 N 0.49953 0.35263 0.44095 0.0
H299 H 0.41291 0.33325 0.43034 0.0
C300 C 0.51188 0.27046 0.35952 0.0
O301 O 0.49898 0.26755 0.37466 0.0
O302 O 0.38353 0.33017 0.39364 0.0
H303 H 0.49548 0.32849 0.4011 0.0
H304 H 0.39224 0.33738 0.31613 0.0
H305 H 0.53861 0.3495 0.42511 0.0
Zn306 Zn 0.17095 0.45832 0.35586 0.0
C307 C 0.10286 0.48451 0.38095 0.0
N308 N 0.11821 0.51354 0.37045 0.0
C309 C 0.1429 0.50803 0.36206 0.0
N310 N 0.14264 0.47694 0.36716 0.0
N311 N 0.11772 0.46201 0.37928 0.0
C312 C 0.04666 0.35759 0.38645 0.0
O313 O 0.06909 0.35985 0.37441 0.0
O314 O 0.22303 0.50016 0.35018 0.0
Zn315 Zn 0.11323 0.42529 0.39599 0.0
N316 N 0.14542 0.43386 0.33543 0.0
C317 C 0.08909 0.394 0.32102 0.0
C318 C 0.10766 0.41217 0.33553 0.0
C319 C 0.1653 0.43829 0.32133 0.0
N320 N 0.10908 0.39774 0.30707 0.0
C321 C 0.14697 0.4192 0.30679 0.0
O322 O 0.14795 0.40289 0.39329 0.0
C323 C 0.17121 0.4037 0.38265 0.0
O324 O 0.1787 0.42298 0.36951 0.0
H325 H 0.09218 0.40912 0.34678 0.0
H326 H 0.19503 0.45681 0.32137 0.0
C327 C 0.11051 0.44029 0.4315 0.0
C328 C 0.12228 0.46465 0.44519 0.0
C329 C 0.16832 0.5127 0.42839 0.0
C330 C 0.15681 0.4886 0.41491 0.0
N331 N 0.12781 0.45318 0.41658 0.0
N332 N 0.15074 0.50028 0.44313 0.0
H333 H 0.08752 0.41197 0.43257 0.0
C334 C 0.24723 0.49192 0.3453 0.0
O335 O 0.23778 0.45664 0.34401 0.0
O336 O 0.05912 0.38291 0.39751 0.0
H337 H 0.17047 0.49825 0.40305 0.0
H338 H 0.05902 0.37673 0.32089 0.0
H339 H 0.19096 0.54113 0.42715 0.0
Zn340 Zn 0.69591 0.108 0.39518 0.0
C341 C 0.64138 0.13441 0.36076 0.0
N342 N 0.61142 0.10881 0.36902 0.0
C343 C 0.62573 0.09429 0.37962 0.0
N344 N 0.66327 0.11053 0.37817 0.0
N345 N 0.67273 0.13528 0.36601 0.0
C346 C 0.73942 0.23932 0.36027 0.0
O347 O 0.74185 0.22924 0.37545 0.0
O348 O 0.68431 0.05407 0.39751 0.0
Zn349 Zn 0.71985 0.16412 0.35473 0.0
N350 N 0.68254 0.12405 0.41531 0.0
C351 C 0.66385 0.16568 0.42606 0.0
C352 C 0.6764 0.15306 0.41298 0.0
C353 C 0.67782 0.10777 0.4305 0.0
N354 N 0.65842 0.14914 0.44109 0.0
C355 C 0.66527 0.12066 0.4438 0.0
O356 O 0.76361 0.17262 0.36809 0.0
C357 C 0.77531 0.16561 0.38137 0.0
O358 O 0.75297 0.14298 0.39222 0.0
H359 H 0.68063 0.16587 0.4009 0.0
H360 H 0.68289 0.08472 0.43208 0.0
C361 C 0.73717 0.159 0.32073 0.0
C362 C 0.73885 0.14045 0.30644 0.0
C363 C 0.7049 0.08261 0.32058 0.0
C364 C 0.70339 0.10116 0.33472 0.0
N365 N 0.71974 0.13893 0.33455 0.0
N366 N 0.72274 0.1026 0.30686 0.0
H367 H 0.75049 0.18911 0.32108 0.0
C368 C 0.69489 0.04021 0.3861 0.0
O369 O 0.71315 0.06131 0.37339 0.0
O370 O 0.72923 0.21543 0.34869 0.0
H371 H 0.6897 0.08571 0.34582 0.0
H372 H 0.65831 0.18837 0.42431 0.0
H373 H 0.69226 0.05256 0.32055 0.0
Zn374 Zn 0.5554 0.71146 0.35374 0.0
C375 C 0.53028 0.61824 0.37962 0.0
N376 N 0.50269 0.60334 0.36841 0.0
C377 C 0.50799 0.633 0.35964 0.0
N378 N 0.53742 0.66477 0.36522 0.0
N379 N 0.55172 0.65574 0.37796 0.0
C380 C 0.65401 0.68717 0.38554 0.0
O381 O 0.65069 0.70465 0.37264 0.0
O382 O 0.5131 0.72127 0.34857 0.0
Zn383 Zn 0.58744 0.68871 0.39471 0.0
N384 N 0.57858 0.70953 0.3331 0.0
C385 C 0.61516 0.68974 0.31815 0.0
C386 C 0.59813 0.69121 0.33283 0.0
C387 C 0.57533 0.72641 0.31922 0.0
N388 N 0.6124 0.70711 0.30438 0.0
C389 C 0.59315 0.72585 0.30447 0.0
O390 O 0.61004 0.74564 0.39128 0.0
C391 C 0.61049 0.76759 0.38004 0.0
O392 O 0.59183 0.7554 0.36676 0.0
H393 H 0.60035 0.6778 0.34393 0.0
H394 H 0.55862 0.73967 0.31961 0.0
C395 C 0.57042 0.67172 0.43013 0.0
C396 C 0.54526 0.65942 0.44354 0.0
C397 C 0.49839 0.65758 0.42595 0.0
C398 C 0.52328 0.66985 0.41275 0.0
N399 N 0.55851 0.67611 0.41497 0.0
N400 N 0.50985 0.65249 0.44095 0.0
H401 H 0.59857 0.6768 0.43161 0.0
C402 C 0.52068 0.75377 0.34406 0.0
O403 O 0.55579 0.78016 0.34281 0.0
O404 O 0.62981 0.67702 0.39705 0.0
H405 H 0.51439 0.67373 0.40068 0.0
H406 H 0.63069 0.67512 0.31773 0.0
H407 H 0.47011 0.65197 0.42429 0.0
Zn408 Zn 0.59208 0.90508 0.89475 0.0
C409 C 0.51096 0.87859 0.86049 0.0
N410 N 0.5067 0.90431 0.86868 0.0
C411 C 0.53567 0.919 0.87921 0.0
N412 N 0.55696 0.90276 0.87778 0.0
N413 N 0.5415 0.87782 0.86572 0.0
C414 C 0.50418 0.77364 0.86039 0.0
O415 O 0.51685 0.78356 0.87556 0.0
O416 O 0.63449 0.95886 0.89718 0.0
Zn417 Zn 0.55967 0.84909 0.85442 0.0
N418 N 0.56253 0.88851 0.91483 0.0
C419 C 0.50217 0.84635 0.92542 0.0
C420 C 0.52743 0.85948 0.91236 0.0
C421 C 0.57395 0.90437 0.93009 0.0
N422 N 0.51316 0.86243 0.94053 0.0
C423 C 0.54843 0.89095 0.94337 0.0
O424 O 0.59596 0.84137 0.86733 0.0
C425 C 0.61474 0.84842 0.88059 0.0
O426 O 0.61453 0.87052 0.89159 0.0
H427 H 0.51898 0.84699 0.90022 0.0
H428 H 0.60204 0.92745 0.93176 0.0
C429 C 0.58067 0.8517 0.82061 0.0
C430 C 0.59664 0.86868 0.80535 0.0
C431 C 0.61549 0.92792 0.8174 0.0
C432 C 0.59976 0.91088 0.83249 0.0
N433 N 0.58259 0.87317 0.83376 0.0
N434 N 0.61349 0.90653 0.80424 0.0
H435 H 0.56616 0.82173 0.82206 0.0
C436 C 0.65795 0.97263 0.88539 0.0
O437 O 0.65355 0.95164 0.87241 0.0
O438 O 0.51768 0.79766 0.84886 0.0
H439 H 0.60097 0.92747 0.84308 0.0
H440 H 0.47399 0.82362 0.92356 0.0
H441 H 0.62912 0.95792 0.81614 0.0
Zn442 Zn 0.71941 0.55924 0.8541 0.0
C443 C 0.62551 0.5335 0.87941 0.0
N444 N 0.61133 0.50469 0.8688 0.0
C445 C 0.64129 0.50957 0.86038 0.0
N446 N 0.67249 0.54032 0.86556 0.0
N447 N 0.66295 0.55533 0.87779 0.0
C448 C 0.69403 0.65667 0.8859 0.0
O449 O 0.71128 0.65319 0.87294 0.0
O450 O 0.72966 0.51783 0.84843 0.0
Zn451 Zn 0.69572 0.59043 0.89476 0.0
N452 N 0.71755 0.58218 0.83356 0.0
C453 C 0.69495 0.61519 0.81776 0.0
C454 C 0.69706 0.59947 0.83271 0.0
C455 C 0.73628 0.58013 0.82011 0.0
N456 N 0.71351 0.61306 0.8043 0.0
C457 C 0.73445 0.59609 0.80497 0.0
O458 O 0.75275 0.61323 0.89149 0.0
C459 C 0.77512 0.61401 0.88038 0.0
O460 O 0.76344 0.59562 0.86702 0.0
H461 H 0.68232 0.60076 0.84353 0.0
H462 H 0.75173 0.56553 0.82122 0.0
C463 C 0.6782 0.57162 0.93006 0.0
C464 C 0.66644 0.54592 0.94326 0.0
C465 C 0.66614 0.50051 0.92518 0.0
C466 C 0.67791 0.52594 0.9122 0.0
N467 N 0.68315 0.56069 0.91476 0.0
N468 N 0.66055 0.51099 0.94032 0.0
H469 H 0.68251 0.59942 0.9318 0.0
C470 C 0.74024 0.5047 0.86009 0.0
O471 O 0.7425 0.5174 0.87522 0.0
O472 O 0.68397 0.63254 0.89743 0.0
H473 H 0.6823 0.51788 0.90004 0.0
H474 H 0.67861 0.62891 0.81683 0.0
H475 H 0.66135 0.4726 0.92325 0.0
Zn476 Zn 0.11391 0.69543 0.89496 0.0
C477 C 0.14137 0.64102 0.86096 0.0
N478 N 0.11638 0.61107 0.8694 0.0
C479 C 0.10145 0.62512 0.87992 0.0
N480 N 0.11683 0.66252 0.87821 0.0
N481 N 0.14155 0.67212 0.86603 0.0
C482 C 0.24489 0.73918 0.86059 0.0
O483 O 0.23444 0.74126 0.87574 0.0
O484 O 0.06005 0.68404 0.89707 0.0
Zn485 Zn 0.16952 0.71885 0.85445 0.0
N486 N 0.13006 0.6828 0.91527 0.0
C487 C 0.17228 0.66511 0.92627 0.0
C488 C 0.15945 0.67718 0.91308 0.0
C489 C 0.11354 0.67796 0.93041 0.0
N490 N 0.15551 0.65954 0.94124 0.0
C491 C 0.12661 0.66583 0.94381 0.0
O492 O 0.17691 0.763 0.86718 0.0
C493 C 0.17005 0.77471 0.8805 0.0
O494 O 0.14842 0.75241 0.89162 0.0
H495 H 0.17242 0.68148 0.90103 0.0
H496 H 0.09015 0.68254 0.93188 0.0
C497 C 0.16575 0.73506 0.82032 0.0
C498 C 0.14805 0.73291 0.80512 0.0
C499 C 0.08935 0.69364 0.8179 0.0
C500 C 0.10709 0.69606 0.83291 0.0
N501 N 0.14487 0.71659 0.8338 0.0
N502 N 0.11013 0.71194 0.80442 0.0
H503 H 0.19579 0.75054 0.82147 0.0
C504 C 0.04657 0.694 0.88526 0.0
O505 O 0.06787 0.71087 0.87239 0.0
O506 O 0.22123 0.72899 0.84892 0.0
H507 H 0.09099 0.68151 0.84375 0.0
H508 H 0.1953 0.66002 0.92462 0.0
H509 H 0.05928 0.67727 0.81694 0.0
Zn510 Zn 0.42898 0.11351 0.89321 0.0
C511 C 0.50945 0.1411 0.85845 0.0
N512 N 0.51458 0.11594 0.86666 0.0
C513 C 0.4859 0.10087 0.87735 0.0
N514 N 0.46385 0.11627 0.87595 0.0
N515 N 0.47855 0.14107 0.86377 0.0
C516 C 0.51425 0.2445 0.85776 0.0
O517 O 0.50202 0.23464 0.87299 0.0
O518 O 0.38667 0.05967 0.89573 0.0
Zn519 Zn 0.4592 0.16907 0.85262 0.0
N520 N 0.4588 0.12957 0.91324 0.0
C521 C 0.51935 0.17087 0.92388 0.0
C522 C 0.49411 0.15823 0.91082 0.0
C523 C 0.44715 0.11364 0.92849 0.0
N524 N 0.50812 0.15473 0.93898 0.0
C525 C 0.47264 0.12657 0.94179 0.0
O526 O 0.42412 0.17737 0.86623 0.0
C527 C 0.40607 0.17047 0.8797 0.0
O528 O 0.4066 0.14823 0.89053 0.0
H529 H 0.50274 0.17082 0.8987 0.0
H530 H 0.4189 0.09086 0.93012 0.0
C531 C 0.43639 0.16326 0.81867 0.0
C532 C 0.41597 0.1445 0.80443 0.0
C533 C 0.39163 0.08694 0.81886 0.0
C534 C 0.41188 0.1057 0.83293 0.0
N535 N 0.43363 0.14342 0.83259 0.0
N536 N 0.39394 0.1067 0.80503 0.0
H537 H 0.45342 0.19335 0.8189 0.0
C538 C 0.36079 0.04619 0.88493 0.0
O539 O 0.36231 0.06755 0.87256 0.0
O540 O 0.50056 0.22036 0.84628 0.0
H541 H 0.41001 0.09045 0.84412 0.0
H542 H 0.54768 0.1933 0.92206 0.0
H543 H 0.37396 0.05693 0.81896 0.0
Zn544 Zn 0.29923 0.45856 0.855 0.0
C545 C 0.39401 0.48415 0.87953 0.0
N546 N 0.40774 0.51312 0.869 0.0
C547 C 0.37751 0.5083 0.86086 0.0
N548 N 0.34655 0.47735 0.86607 0.0
N549 N 0.35652 0.46222 0.8781 0.0
C550 C 0.3234 0.35965 0.88607 0.0
O551 O 0.30412 0.36248 0.87379 0.0
O552 O 0.28954 0.50019 0.84889 0.0
Zn553 Zn 0.32425 0.42706 0.89525 0.0
N554 N 0.29902 0.43332 0.83486 0.0
C555 C 0.31375 0.39217 0.82053 0.0
C556 C 0.31561 0.41214 0.83476 0.0
C557 C 0.28096 0.43578 0.82124 0.0
N558 N 0.29535 0.39422 0.80699 0.0
C559 C 0.27895 0.4157 0.80685 0.0
O560 O 0.26706 0.40488 0.89265 0.0
C561 C 0.24447 0.40486 0.88186 0.0
O562 O 0.25587 0.42336 0.86851 0.0
H563 H 0.32977 0.41048 0.84572 0.0
H564 H 0.26742 0.45234 0.82184 0.0
C565 C 0.34267 0.44466 0.93055 0.0
C566 C 0.35568 0.47007 0.94387 0.0
C567 C 0.35825 0.5171 0.92616 0.0
C568 C 0.3452 0.49195 0.91307 0.0
N569 N 0.33828 0.45652 0.91538 0.0
N570 N 0.36332 0.50567 0.94117 0.0
H571 H 0.33694 0.41631 0.93211 0.0
C572 C 0.27919 0.51386 0.86041 0.0
O573 O 0.27667 0.50144 0.87562 0.0
O574 O 0.33553 0.38452 0.89733 0.0
H575 H 0.34114 0.50076 0.90102 0.0
H576 H 0.32658 0.37494 0.82028 0.0
H577 H 0.36439 0.54553 0.92442 0.0
Zn578 Zn 0.90564 0.32346 0.8955 0.0
C579 C 0.87966 0.37837 0.86112 0.0
N580 N 0.90509 0.40827 0.86945 0.0
C581 C 0.91951 0.39392 0.8801 0.0
N582 N 0.90337 0.35642 0.87858 0.0
N583 N 0.87879 0.34703 0.86637 0.0
C584 C 0.77467 0.28073 0.86058 0.0
O585 O 0.78431 0.27821 0.87583 0.0
O586 O 0.9594 0.33471 0.89791 0.0
Zn587 Zn 0.85018 0.30021 0.85493 0.0
N588 N 0.88921 0.33627 0.91568 0.0
C589 C 0.84746 0.35476 0.92648 0.0
C590 C 0.86043 0.34275 0.91332 0.0
C591 C 0.90495 0.34015 0.93094 0.0
N592 N 0.86343 0.3593 0.94159 0.0
C593 C 0.8917 0.35213 0.94433 0.0
O594 O 0.84206 0.25611 0.86789 0.0
C595 C 0.84886 0.24426 0.88118 0.0
O596 O 0.8709 0.26648 0.89222 0.0
H597 H 0.84802 0.33915 0.90118 0.0
H598 H 0.92784 0.33483 0.93253 0.0
C599 C 0.85376 0.28245 0.82103 0.0
C600 C 0.8713 0.28391 0.80586 0.0
C601 C 0.93012 0.32384 0.81839 0.0
C602 C 0.91254 0.32209 0.83337 0.0
N603 N 0.87477 0.30157 0.83437 0.0
N604 N 0.9092 0.30489 0.80505 0.0
H605 H 0.82373 0.26698 0.82224 0.0
C606 C 0.973 0.32439 0.88628 0.0
O607 O 0.95185 0.30722 0.87341 0.0
O608 O 0.79882 0.29085 0.84912 0.0
H609 H 0.92876 0.33715 0.8441 0.0
H610 H 0.82493 0.36053 0.92471 0.0
H611 H 0.96017 0.3402 0.81735 0.0
Zn612 Zn 0.17227 0.45618 0.65455 0.0
C613 C 0.10564 0.48538 0.63012 0.0
N614 N 0.12117 0.51366 0.64099 0.0
C615 C 0.14545 0.50717 0.64917 0.0
N616 N 0.1448 0.4762 0.6436 0.0
N617 N 0.12006 0.46242 0.63137 0.0
C618 C 0.04494 0.35426 0.60611 0.0
O619 O 0.06593 0.34865 0.59563 0.0
O620 O 0.22431 0.49724 0.66073 0.0
Zn621 Zn 0.11401 0.42546 0.61454 0.0
N622 N 0.14548 0.42969 0.67432 0.0
C623 C 0.08872 0.38285 0.6863 0.0
C624 C 0.10849 0.40477 0.67276 0.0
C625 C 0.16346 0.43407 0.68901 0.0
N626 N 0.10687 0.38638 0.7008 0.0
C627 C 0.14386 0.41153 0.70262 0.0
O628 O 0.14825 0.40243 0.61669 0.0
C629 C 0.17125 0.40229 0.62721 0.0
O630 O 0.1793 0.42093 0.64054 0.0
H631 H 0.0947 0.40156 0.66098 0.0
H632 H 0.19293 0.45382 0.68989 0.0
C633 C 0.11 0.44015 0.57888 0.0
C634 C 0.12172 0.46449 0.56516 0.0
C635 C 0.1676 0.51266 0.58196 0.0
C636 C 0.15629 0.48853 0.59542 0.0
N637 N 0.12735 0.45305 0.59379 0.0
N638 N 0.15005 0.50017 0.56722 0.0
H639 H 0.08713 0.41182 0.57778 0.0
C640 C 0.24855 0.48923 0.66584 0.0
O641 O 0.2391 0.454 0.66744 0.0
O642 O 0.05943 0.38404 0.61473 0.0
H643 H 0.17016 0.49821 0.60723 0.0
H644 H 0.05931 0.36268 0.68522 0.0
H645 H 0.19018 0.54112 0.58319 0.0
Zn646 Zn 0.71784 0.16642 0.65337 0.0
C647 C 0.62448 0.09563 0.62841 0.0
N648 N 0.60984 0.11029 0.63877 0.0
C649 C 0.63954 0.13594 0.64713 0.0
N650 N 0.67102 0.13675 0.64216 0.0
N651 N 0.66196 0.11179 0.63012 0.0
C652 C 0.69237 0.04119 0.62364 0.0
O653 O 0.7078 0.06204 0.63679 0.0
O654 O 0.72624 0.21743 0.65917 0.0
Zn655 Zn 0.69516 0.10904 0.61339 0.0
N656 N 0.71796 0.14235 0.67387 0.0
C657 C 0.69752 0.08729 0.68986 0.0
C658 C 0.69838 0.10457 0.6749 0.0
C659 C 0.73693 0.16371 0.68716 0.0
N660 N 0.71629 0.10854 0.70316 0.0
C661 C 0.73627 0.14648 0.70231 0.0
O662 O 0.75222 0.14463 0.61633 0.0
C663 C 0.77407 0.16859 0.62691 0.0
O664 O 0.76155 0.17568 0.63991 0.0
H665 H 0.68332 0.08808 0.66424 0.0
H666 H 0.75156 0.19373 0.68593 0.0
C667 C 0.6776 0.10824 0.57788 0.0
C668 C 0.66542 0.12115 0.56443 0.0
C669 C 0.66357 0.16621 0.582 0.0
C670 C 0.67579 0.15361 0.59521 0.0
N671 N 0.68195 0.12457 0.59304 0.0
N672 N 0.65855 0.14966 0.567 0.0
H673 H 0.68273 0.0852 0.57643 0.0
C674 C 0.73677 0.24168 0.64774 0.0
O675 O 0.73996 0.23219 0.63254 0.0
O676 O 0.68409 0.0552 0.61145 0.0
H677 H 0.67982 0.16652 0.60725 0.0
H678 H 0.68193 0.05722 0.69092 0.0
H679 H 0.65803 0.18892 0.58363 0.0
Zn680 Zn 0.58976 0.69092 0.61288 0.0
C681 C 0.51056 0.63166 0.64761 0.0
N682 N 0.50582 0.60299 0.63823 0.0
C683 C 0.53342 0.61923 0.62708 0.0
N684 N 0.55427 0.65657 0.62932 0.0
N685 N 0.53974 0.66417 0.6424 0.0
C686 C 0.49819 0.72495 0.64794 0.0
O687 O 0.50891 0.72435 0.63266 0.0
O688 O 0.63294 0.68053 0.61036 0.0
Zn689 Zn 0.55698 0.71044 0.65418 0.0
N690 N 0.56095 0.67897 0.59263 0.0
C691 C 0.50109 0.66202 0.5818 0.0
C692 C 0.52606 0.67358 0.59496 0.0
C693 C 0.57243 0.67428 0.57742 0.0
N694 N 0.51212 0.65667 0.56674 0.0
C695 C 0.54717 0.66266 0.56405 0.0
O696 O 0.59235 0.75572 0.64153 0.0
C697 C 0.61081 0.76873 0.62825 0.0
O698 O 0.61103 0.74743 0.61686 0.0
H699 H 0.51752 0.6776 0.60709 0.0
H700 H 0.60029 0.67861 0.57588 0.0
C701 C 0.57862 0.72892 0.68791 0.0
C702 C 0.59468 0.72779 0.70312 0.0
C703 C 0.61259 0.68671 0.69102 0.0
C704 C 0.5968 0.68816 0.67598 0.0
N705 N 0.58006 0.70911 0.67476 0.0
N706 N 0.6111 0.70638 0.70419 0.0
H707 H 0.56442 0.74469 0.68649 0.0
C708 C 0.65622 0.68997 0.62222 0.0
O709 O 0.65129 0.7058 0.63535 0.0
O710 O 0.5142 0.71842 0.65981 0.0
H711 H 0.59763 0.67258 0.66539 0.0
H712 H 0.47308 0.65713 0.58354 0.0
H713 H 0.62589 0.67003 0.69225 0.0
Zn714 Zn 0.84969 0.55733 0.65326 0.0
C715 C 0.91758 0.53057 0.62845 0.0
N716 N 0.90158 0.5012 0.63875 0.0
C717 C 0.87632 0.50631 0.64685 0.0
N718 N 0.87703 0.5377 0.64182 0.0
N719 N 0.90257 0.55298 0.62997 0.0
C720 C 0.97313 0.65499 0.62249 0.0
O721 O 0.95179 0.65125 0.63525 0.0
O722 O 0.79804 0.51628 0.65923 0.0
Zn723 Zn 0.90578 0.58862 0.61299 0.0
N724 N 0.87499 0.58065 0.67367 0.0
C725 C 0.93083 0.61365 0.68932 0.0
C726 C 0.91277 0.59772 0.67443 0.0
C727 C 0.85442 0.57899 0.68713 0.0
N728 N 0.91035 0.6119 0.7028 0.0
C729 C 0.87244 0.59513 0.7022 0.0
O730 O 0.87099 0.61108 0.61583 0.0
C731 C 0.84905 0.6118 0.62678 0.0
O732 O 0.84213 0.59353 0.64019 0.0
H733 H 0.92862 0.59867 0.6636 0.0
H734 H 0.82436 0.56453 0.68609 0.0
C735 C 0.90618 0.57155 0.57757 0.0
C736 C 0.89344 0.5464 0.56415 0.0
C737 C 0.84893 0.49922 0.58181 0.0
C738 C 0.86138 0.52412 0.59499 0.0
N739 N 0.89006 0.5595 0.59276 0.0
N740 N 0.86528 0.51084 0.56678 0.0
H741 H 0.92895 0.59986 0.57607 0.0
C742 C 0.77383 0.50344 0.64776 0.0
O743 O 0.78379 0.51622 0.6326 0.0
O744 O 0.95965 0.63103 0.61088 0.0
H745 H 0.84859 0.51516 0.60706 0.0
H746 H 0.9609 0.62721 0.69018 0.0
H747 H 0.82649 0.47084 0.58348 0.0
Zn748 Zn 0.32478 0.90092 0.61298 0.0
C749 C 0.37777 0.86891 0.64576 0.0
N750 N 0.40781 0.89301 0.6371 0.0
C751 C 0.39443 0.90926 0.62697 0.0
N752 N 0.35733 0.89546 0.62909 0.0
N753 N 0.34727 0.8705 0.64118 0.0
C754 C 0.28084 0.76858 0.64814 0.0
O755 O 0.27846 0.77762 0.63276 0.0
O756 O 0.33818 0.95543 0.61292 0.0
Zn757 Zn 0.30084 0.84426 0.65305 0.0
N758 N 0.33708 0.88651 0.59206 0.0
C759 C 0.35337 0.84409 0.58005 0.0
C760 C 0.34176 0.85639 0.59359 0.0
C761 C 0.34234 0.90425 0.5772 0.0
N762 N 0.35926 0.86201 0.56536 0.0
C763 C 0.35384 0.89161 0.56343 0.0
O764 O 0.25678 0.83663 0.64019 0.0
C765 C 0.24521 0.84415 0.62699 0.0
O766 O 0.26765 0.86663 0.61612 0.0
H767 H 0.33703 0.84235 0.60539 0.0
H768 H 0.33849 0.92816 0.57619 0.0
C769 C 0.28485 0.85014 0.6869 0.0
C770 C 0.28733 0.86849 0.70194 0.0
C771 C 0.32794 0.92645 0.68888 0.0
C772 C 0.32518 0.90805 0.67402 0.0
N773 N 0.30382 0.87032 0.67336 0.0
N774 N 0.30913 0.90634 0.70243 0.0
H775 H 0.26873 0.82009 0.68593 0.0
C776 C 0.32307 0.97035 0.60448 0.0
O777 O 0.29581 0.94966 0.59422 0.0
O778 O 0.29064 0.79307 0.65941 0.0
H779 H 0.3401 0.9236 0.66313 0.0
H780 H 0.35773 0.82051 0.58118 0.0
H781 H 0.34497 0.95648 0.68967 0.0
Zn782 Zn 0.45957 0.29649 0.65194 0.0
C783 C 0.48382 0.39088 0.62742 0.0
N784 N 0.51255 0.40516 0.63809 0.0
C785 C 0.50811 0.37522 0.64637 0.0
N786 N 0.47763 0.34391 0.64109 0.0
N787 N 0.46243 0.35337 0.62889 0.0
C788 C 0.35808 0.31739 0.61994 0.0
O789 O 0.35895 0.29608 0.6318 0.0
O790 O 0.50163 0.28793 0.65874 0.0
Zn791 Zn 0.42758 0.32088 0.61167 0.0
N792 N 0.4317 0.29413 0.67157 0.0
C793 C 0.38654 0.30505 0.6846 0.0
C794 C 0.40838 0.30828 0.67086 0.0
C795 C 0.43451 0.27724 0.68555 0.0
N796 N 0.38892 0.28779 0.69848 0.0
C797 C 0.4125 0.27386 0.69945 0.0
O798 O 0.40672 0.26384 0.61383 0.0
C799 C 0.40877 0.2417 0.62425 0.0
O800 O 0.4273 0.25375 0.63755 0.0
H801 H 0.40654 0.32157 0.65965 0.0
H802 H 0.45286 0.26568 0.68561 0.0
C803 C 0.44428 0.33958 0.57644 0.0
C804 C 0.46922 0.35304 0.56295 0.0
C805 C 0.51752 0.35741 0.58036 0.0
C806 C 0.4928 0.34385 0.5936 0.0
N807 N 0.45695 0.33582 0.59152 0.0
N808 N 0.50524 0.36179 0.56542 0.0
H809 H 0.41559 0.33293 0.57508 0.0
C810 C 0.51605 0.278 0.64737 0.0
O811 O 0.50431 0.27564 0.63205 0.0
O812 O 0.38466 0.33141 0.6095 0.0
H813 H 0.50226 0.34029 0.6056 0.0
H814 H 0.36762 0.31593 0.6842 0.0
H815 H 0.54627 0.36445 0.58191 0.0
H816 H 0.34303 0.98928 0.0953 0.0
H817 H 0.18395 0.82465 0.14908 0.0
H818 H 0.30593 1.00438 0.14317 0.0
H819 H 0.20255 0.80925 0.09786 0.0
H820 H 0.22738 0.89126 0.14633 0.0
H821 H 0.29178 0.92413 0.09524 0.0
C822 C 0.32408 0.97902 0.10575 0.0
C823 C 0.32901 1.00241 0.11931 0.0
C824 C 0.22175 0.8736 0.13557 0.0
C825 C 0.27036 0.92794 0.11929 0.0
C826 C 0.19677 0.83551 0.13713 0.0
C827 C 0.18953 0.81141 0.12366 0.0
C828 C 0.24047 0.88797 0.12049 0.0
C829 C 0.20708 0.82697 0.10849 0.0
C830 C 0.29476 0.94186 0.10567 0.0
C831 C 0.30349 0.98753 0.13247 0.0
N832 N 0.23221 0.86426 0.10736 0.0
N833 N 0.27557 0.95138 0.13216 0.0
H834 H 0.35757 0.33962 0.09639 0.0
H835 H 0.36562 0.1802 0.14879 0.0
H836 H 0.30753 0.30219 0.14463 0.0
H837 H 0.39721 0.19925 0.09728 0.0
H838 H 0.34235 0.22365 0.14673 0.0
H839 H 0.37154 0.28846 0.09577 0.0
C840 C 0.34939 0.32063 0.10681 0.0
C841 C 0.33148 0.32543 0.12063 0.0
C842 C 0.35386 0.21811 0.13576 0.0
C843 C 0.34739 0.26686 0.11997 0.0
C844 C 0.36702 0.19311 0.13692 0.0
C845 C 0.38325 0.18599 0.12317 0.0
C846 C 0.35751 0.23696 0.12079 0.0
C847 C 0.38452 0.20367 0.10813 0.0
C848 C 0.35726 0.29136 0.10641 0.0
C849 C 0.32148 0.29984 0.13373 0.0
N850 N 0.37232 0.22881 0.10738 0.0
N851 N 0.32974 0.27196 0.13311 0.0
H852 H 1.00639 0.29943 0.14558 0.0
H853 H 0.203 0.39086 0.09803 0.0
H854 H 0.02343 0.35313 0.09796 0.0
H855 H 0.18794 0.36393 0.1501 0.0
H856 H 0.13537 0.36717 0.09561 0.0
H857 H 0.07094 0.3134 0.14527 0.0
C858 C 0.02364 0.31406 0.13499 0.0
C859 C 0.00937 0.32532 0.12182 0.0
C860 C 0.14691 0.36603 0.10749 0.0
C861 C 0.08384 0.3414 0.12138 0.0
C862 C 0.18536 0.37913 0.10883 0.0
C863 C 0.20104 0.37933 0.12429 0.0
C864 C 0.12413 0.35263 0.12167 0.0
C865 C 0.17704 0.3644 0.13796 0.0
C866 C 0.06062 0.32206 0.13483 0.0
C867 C 0.03327 0.34411 0.10843 0.0
N868 N 0.13998 0.35181 0.13634 0.0
N869 N 0.06936 0.35165 0.10856 0.0
H870 H 0.81646 0.20053 0.09815 0.0
H871 H 0.70858 1.00426 0.14588 0.0
H872 H 0.82747 0.1851 0.15027 0.0
H873 H 0.67506 0.02065 0.0974 0.0
H874 H 0.75928 0.06871 0.14572 0.0
H875 H 0.77217 0.13299 0.09565 0.0
C876 C 0.81026 0.18284 0.10895 0.0
C877 C 0.82561 0.1984 0.12445 0.0
C878 C 0.74097 0.0583 0.13506 0.0
C879 C 0.77498 0.12158 0.12173 0.0
C880 C 0.7119 0.02136 0.13514 0.0
C881 C 0.68724 0.00692 0.12167 0.0
C882 C 0.74577 0.08133 0.1214 0.0
C883 C 0.69326 0.03062 0.10809 0.0
C884 C 0.78472 0.14443 0.10756 0.0
C885 C 0.81618 0.17432 0.1381 0.0
N886 N 0.72185 0.0667 0.10831 0.0
N887 N 0.79152 0.13732 0.13643 0.0
H888 H 0.6568 0.6695 0.09671 0.0
H889 H 0.65173 0.82994 0.14946 0.0
H890 H 0.70954 0.70776 0.1444 0.0
H891 H 0.61829 0.81052 0.09817 0.0
H892 H 0.67483 0.78638 0.14709 0.0
H893 H 0.64312 0.72085 0.09632 0.0
C894 C 0.66564 0.68872 0.10706 0.0
C895 C 0.68422 0.6841 0.12065 0.0
C896 C 0.66296 0.79188 0.13623 0.0
C897 C 0.66864 0.74289 0.12027 0.0
C898 C 0.6499 0.81693 0.13757 0.0
C899 C 0.6332 0.82397 0.12398 0.0
C900 C 0.65871 0.77288 0.12125 0.0
C901 C 0.63135 0.80616 0.1089 0.0
C902 C 0.65793 0.7181 0.10679 0.0
C903 C 0.69505 0.70996 0.13368 0.0
N904 N 0.64345 0.78096 0.10799 0.0
N905 N 0.68693 0.73795 0.13319 0.0
H906 H 0.99191 0.6536 0.09728 0.0
H907 H 0.82643 0.64999 0.14933 0.0
H908 H 1.00733 0.71118 0.14374 0.0
H909 H 0.81228 0.61505 0.09825 0.0
H910 H 0.89324 0.67367 0.1469 0.0
H911 H 0.92666 0.63928 0.09684 0.0
C912 C 0.98169 0.66338 0.10734 0.0
C913 C 1.00522 0.68351 0.12061 0.0
C914 C 0.8758 0.66136 0.1361 0.0
C915 C 0.93059 0.66716 0.12018 0.0
C916 C 0.8376 0.64796 0.13747 0.0
C917 C 0.81381 0.6307 0.12395 0.0
C918 C 0.89054 0.65684 0.12117 0.0
C919 C 0.82975 0.62858 0.10892 0.0
C920 C 0.94448 0.65531 0.10704 0.0
C921 C 0.99038 0.6955 0.13328 0.0
N922 N 0.86712 0.64098 0.10799 0.0
N923 N 0.95413 0.68695 0.13279 0.0
H924 H 0.20573 0.81375 0.40902 0.0
H925 H 0.01121 0.70271 0.36007 0.0
H926 H 0.19244 0.82006 0.35632 0.0
H927 H 0.02469 0.6739 0.41 0.0
H928 H 0.07607 0.75249 0.36013 0.0
H929 H 0.13807 0.76965 0.41127 0.0
C930 C 0.18852 0.80648 0.39801 0.0
C931 C 0.20476 0.82053 0.38246 0.0
C932 C 0.06494 0.73542 0.37113 0.0
C933 C 0.12774 0.77014 0.3849 0.0
C934 C 0.02775 0.70688 0.37111 0.0
C935 C 0.01234 0.6838 0.38502 0.0
C936 C 0.08729 0.74133 0.38518 0.0
C937 C 0.03539 0.69088 0.39896 0.0
C938 C 0.15003 0.78107 0.39927 0.0
C939 C 0.18122 0.80979 0.36855 0.0
N940 N 0.07174 0.71895 0.39868 0.0
N941 N 0.14413 0.78532 0.3701 0.0
H942 H 0.36384 0.18402 0.35693 0.0
H943 H 0.35935 0.01919 0.40995 0.0
H944 H 0.39611 0.19826 0.40837 0.0
H945 H 0.30496 1.00363 0.36261 0.0
H946 H 0.37289 0.08419 0.41019 0.0
H947 H 0.34086 0.11736 0.35941 0.0
C948 C 0.3654 0.17289 0.36887 0.0
C949 C 0.38172 0.19669 0.38249 0.0
C950 C 0.35774 0.0664 0.39984 0.0
C951 C 0.35642 0.12011 0.38534 0.0
C952 C 0.35012 0.02932 0.39965 0.0
C953 C 0.3311 1.00582 0.3862 0.0
C954 C 0.34655 0.08018 0.38641 0.0
C955 C 0.31977 0.02056 0.37323 0.0
C956 C 0.35242 0.13478 0.37028 0.0
C957 C 0.38331 0.18079 0.39763 0.0
N958 N 0.32786 0.05667 0.37362 0.0
N959 N 0.37133 0.14352 0.3986 0.0
H960 H 0.21224 0.39015 0.36031 0.0
H961 H 0.29478 0.30043 0.42295 0.0
H962 H 0.18059 0.37389 0.41194 0.0
H963 H 0.34842 0.35651 0.37747 0.0
H964 H 0.24706 0.31836 0.41849 0.0
H965 H 0.25515 0.3675 0.36557 0.0
C966 C 0.21413 0.38167 0.3728 0.0
C967 C 0.19305 0.38462 0.38576 0.0
C968 C 0.26934 0.32671 0.40954 0.0
C969 C 0.24257 0.3582 0.39185 0.0
C970 C 0.29655 0.31646 0.41203 0.0
C971 C 0.32571 0.32694 0.40055 0.0
C972 C 0.27097 0.34704 0.39532 0.0
C973 C 0.32659 0.34781 0.38668 0.0
C974 C 0.23882 0.36875 0.37578 0.0
C975 C 0.19634 0.37228 0.40158 0.0
N976 N 0.29959 0.35692 0.38442 0.0
N977 N 0.22084 0.35976 0.40422 0.0
H978 H 0.01087 0.30337 0.36312 0.0
H979 H 0.814 0.19624 0.41042 0.0
H980 H 0.99299 0.33966 0.41065 0.0
H981 H 0.82953 0.18481 0.35836 0.0
H982 H 0.88144 0.24102 0.41287 0.0
H983 H 0.94641 0.25253 0.36329 0.0
C984 C 0.99345 0.30063 0.37365 0.0
C985 C 1.00747 0.32611 0.38684 0.0
C986 C 0.87005 0.22827 0.40098 0.0
C987 C 0.93311 0.2674 0.38714 0.0
C988 C 0.83171 0.20244 0.39963 0.0
C989 C 0.8162 0.1868 0.38416 0.0
C990 C 0.89291 0.23799 0.38682 0.0
C991 C 0.84029 0.19628 0.37051 0.0
C992 C 0.95651 0.2715 0.37373 0.0
C993 C 0.98335 0.32084 0.40016 0.0
N994 N 0.87725 0.2212 0.37215 0.0
N995 N 0.94733 0.29212 0.39996 0.0
H996 H 0.64478 0.82048 0.35641 0.0
H997 H 0.66071 0.98829 0.4111 0.0
H998 H 0.62075 0.80807 0.40876 0.0
H999 H 0.7092 1.00186 0.36244 0.0
H1000 H 0.64533 0.9227 0.41098 0.0
H1001 H 0.66876 0.88728 0.35885 0.0
C1002 C 0.64511 0.83199 0.36851 0.0
C1003 C 0.63082 0.80864 0.38241 0.0
C1004 C 0.65959 0.94019 0.40041 0.0
C1005 C 0.65754 0.8855 0.38527 0.0
C1006 C 0.66826 0.9776 0.40043 0.0
C1007 C 0.68617 1.00071 0.38672 0.0
C1008 C 0.66856 0.9257 0.38651 0.0
C1009 C 0.69533 0.98525 0.37328 0.0
C1010 C 0.65874 0.87021 0.3699 0.0
C1011 C 0.63184 0.82513 0.39777 0.0
N1012 N 0.68623 0.94884 0.37348 0.0
N1013 N 0.64448 0.86253 0.39876 0.0
H1014 H 0.67222 0.65365 0.4107 0.0
H1015 H 0.83008 0.64522 0.35711 0.0
H1016 H 0.70754 0.70265 0.36216 0.0
H1017 H 0.81437 0.61629 0.40896 0.0
H1018 H 0.78594 0.66763 0.35939 0.0
H1019 H 0.72362 0.63997 0.41094 0.0
C1020 C 0.69078 0.66165 0.40013 0.0
C1021 C 0.68533 0.67921 0.38635 0.0
C1022 C 0.79236 0.65689 0.37038 0.0
C1023 C 0.74418 0.66362 0.38656 0.0
C1024 C 0.81774 0.6442 0.36909 0.0
C1025 C 0.82605 0.629 0.38288 0.0
C1026 C 0.77429 0.65378 0.38553 0.0
C1027 C 0.80905 0.62819 0.39807 0.0
C1028 C 0.7202 0.65395 0.40031 0.0
C1029 C 0.7104 0.68899 0.37304 0.0
N1030 N 0.78353 0.63992 0.39895 0.0
N1031 N 0.73842 0.68089 0.37345 0.0
H1032 H 0.81923 0.20473 0.91017 0.0
H1033 H 0.71021 0.00985 0.86146 0.0
H1034 H 0.8294 0.19067 0.85784 0.0
H1035 H 0.67804 0.02474 0.9105 0.0
H1036 H 0.76092 0.07427 0.8618 0.0
H1037 H 0.77496 0.13714 0.91241 0.0
C1038 C 0.81285 0.18733 0.89926 0.0
C1039 C 0.82796 0.20331 0.88379 0.0
C1040 C 0.74291 0.06354 0.87254 0.0
C1041 C 0.77734 0.12642 0.88621 0.0
C1042 C 0.71382 0.02661 0.87236 0.0
C1043 C 0.68953 0.01175 0.88593 0.0
C1044 C 0.7481 0.08616 0.88641 0.0
C1045 C 0.69594 0.03504 0.89972 0.0
C1046 C 0.78732 0.14889 0.90051 0.0
C1047 C 0.81831 0.17958 0.87 0.0
N1048 N 0.72454 0.07112 0.89959 0.0
N1049 N 0.79365 0.14254 0.87153 0.0
H1050 H 0.65215 0.83257 0.85752 0.0
H1051 H 0.66031 0.67462 0.91103 0.0
H1052 H 0.62165 0.81564 0.90918 0.0
H1053 H 0.71003 0.71051 0.86264 0.0
H1054 H 0.64661 0.72597 0.91129 0.0
H1055 H 0.67524 0.78901 0.8599 0.0
C1056 C 0.65095 0.8201 0.86948 0.0
C1057 C 0.63508 0.82784 0.88318 0.0
C1058 C 0.66076 0.7227 0.90069 0.0
C1059 C 0.6606 0.77676 0.88595 0.0
C1060 C 0.66848 0.69331 0.9005 0.0
C1061 C 0.68621 0.68803 0.88674 0.0
C1062 C 0.6706 0.74681 0.88699 0.0
C1063 C 0.69621 0.71324 0.87349 0.0
C1064 C 0.66401 0.79505 0.87083 0.0
C1065 C 0.63405 0.81072 0.89836 0.0
N1066 N 0.68809 0.74123 0.87392 0.0
N1067 N 0.64614 0.78551 0.89929 0.0
H1068 H 0.00983 0.70939 0.86123 0.0
H1069 H 0.81427 0.62346 0.90943 0.0
H1070 H 0.99398 0.66166 0.91017 0.0
H1071 H 0.82908 0.64855 0.85718 0.0
H1072 H 0.88178 0.64652 0.91181 0.0
H1073 H 0.94545 0.69586 0.86139 0.0
C1074 C 0.99286 0.69613 0.87206 0.0
C1075 C 1.00745 0.68647 0.88567 0.0
C1076 C 0.87022 0.64738 0.89989 0.0
C1077 C 0.9331 0.67086 0.88594 0.0
C1078 C 0.83182 0.63463 0.89857 0.0
C1079 C 0.81607 0.63408 0.88308 0.0
C1080 C 0.89289 0.66003 0.88565 0.0
C1081 C 0.83999 0.64833 0.86935 0.0
C1082 C 0.95596 0.68839 0.87214 0.0
C1083 C 0.98391 0.66945 0.89937 0.0
N1084 N 0.87699 0.66054 0.87096 0.0
N1085 N 0.94786 0.66209 0.89914 0.0
H1086 H 0.34583 0.99394 0.90946 0.0
H1087 H 0.18439 0.8278 0.85751 0.0
H1088 H 0.30449 0.00871 0.86263 0.0
H1089 H 0.20409 0.81459 0.90886 0.0
H1090 H 0.2278 0.89459 0.85972 0.0
H1091 H 0.29476 0.92876 0.91 0.0
C1092 C 0.326 0.9836 0.89933 0.0
C1093 C 0.32964 0.00692 0.88593 0.0
C1094 C 0.22237 0.87736 0.87062 0.0
C1095 C 0.27121 0.93237 0.88648 0.0
C1096 C 0.19742 0.83918 0.86937 0.0
C1097 C 0.19049 0.81565 0.88304 0.0
C1098 C 0.24139 0.89235 0.88558 0.0
C1099 C 0.20834 0.83185 0.89808 0.0
C1100 C 0.29677 0.94642 0.89969 0.0
C1101 C 0.30301 0.99191 0.8732 0.0
N1102 N 0.23345 0.86919 0.8989 0.0
N1103 N 0.27522 0.95571 0.87375 0.0
H1104 H 0.30513 0.30565 0.86267 0.0
H1105 H 0.39819 0.20059 0.90896 0.0
H1106 H 0.35958 0.34194 0.91015 0.0
H1107 H 0.37006 0.18923 0.85702 0.0
H1108 H 0.37459 0.24452 0.9118 0.0
H1109 H 0.31959 0.25543 0.86257 0.0
C1110 C 0.32004 0.30303 0.87314 0.0
C1111 C 0.33133 0.32833 0.88639 0.0
C1112 C 0.3732 0.23197 0.89985 0.0
C1113 C 0.348 0.27036 0.88637 0.0
C1114 C 0.38627 0.20664 0.89827 0.0
C1115 C 0.38608 0.19128 0.88273 0.0
C1116 C 0.35944 0.24146 0.88583 0.0
C1117 C 0.37087 0.20051 0.86922 0.0
C1118 C 0.32832 0.27425 0.87307 0.0
C1119 C 0.35048 0.32323 0.89963 0.0
N1120 N 0.3583 0.22495 0.87108 0.0
N1121 N 0.3583 0.29487 0.89927 0.0
H1122 H 0.00976 0.30773 0.86275 0.0
H1123 H 0.20563 0.39684 0.9109 0.0
H1124 H 0.02551 0.35787 0.91115 0.0
H1125 H 0.19041 0.36888 0.85894 0.0
H1126 H 0.13804 0.37357 0.91327 0.0
H1127 H 0.07414 0.32134 0.86317 0.0
C1128 C 0.0267 0.32153 0.87353 0.0
C1129 C 0.0121 0.33187 0.88689 0.0
C1130 C 0.14953 0.37212 0.90142 0.0
C1131 C 0.08647 0.3476 0.88745 0.0
C1132 C 0.18797 0.38499 0.90011 0.0
C1133 C 0.2036 0.38478 0.88469 0.0
C1134 C 0.12674 0.35859 0.88725 0.0
C1135 C 0.17956 0.36969 0.87105 0.0
C1136 C 0.06361 0.32932 0.87375 0.0
C1137 C 0.03561 0.34956 0.90053 0.0
N1138 N 0.14255 0.35738 0.87264 0.0
N1139 N 0.07168 0.35698 0.90044 0.0
H1140 H 0.82681 0.21753 0.64825 0.0
H1141 H 1.00177 0.29149 0.58732 0.0
H1142 H 0.81507 0.17373 0.59865 0.0
H1143 H 0.99697 0.35127 0.6302 0.0
H1144 H 0.93621 0.24381 0.59201 0.0
H1145 H 0.89205 0.26104 0.64283 0.0
C1146 C 0.83792 0.21677 0.63619 0.0
C1147 C 0.81497 0.19187 0.62384 0.0
C1148 C 0.94958 0.26743 0.60034 0.0
C1149 C 0.89067 0.24246 0.61754 0.0
C1150 C 0.987 0.29464 0.59771 0.0
C1151 C 1.00503 0.32551 0.6084 0.0
C1152 C 0.93021 0.27083 0.6139 0.0
C1153 C 0.98439 0.32809 0.62161 0.0
C1154 C 0.87538 0.24193 0.6331 0.0
C1155 C 0.83155 0.19237 0.60854 0.0
N1156 N 0.9483 0.3011 0.62401 0.0
N1157 N 0.86842 0.21739 0.60579 0.0
H1158 H 0.62438 0.80946 0.59933 0.0
H1159 H 0.70292 1.00293 0.64861 0.0
H1160 H 0.63963 0.82162 0.6523 0.0
H1161 H 0.66346 0.9896 0.59818 0.0
H1162 H 0.68828 0.93821 0.64869 0.0
H1163 H 0.64744 0.87698 0.5972 0.0
C1164 C 0.63325 0.82639 0.61044 0.0
C1165 C 0.62999 0.80985 0.62602 0.0
C1166 C 0.68287 0.94935 0.63756 0.0
C1167 C 0.65607 0.88676 0.6237 0.0
C1168 C 0.69127 0.98645 0.63749 0.0
C1169 C 0.68426 1.00186 0.62339 0.0
C1170 C 0.66738 0.92711 0.6234 0.0
C1171 C 0.66918 0.9789 0.60936 0.0
C1172 C 0.64605 0.86481 0.60924 0.0
C1173 C 0.64145 0.83307 0.64004 0.0
N1174 N 0.66118 0.94265 0.60972 0.0
N1175 N 0.65383 0.87012 0.63854 0.0
H1176 H 0.70904 0.70608 0.64599 0.0
H1177 H 0.81814 0.61963 0.59772 0.0
H1178 H 0.67658 0.65799 0.59715 0.0
H1179 H 0.83073 0.64774 0.64967 0.0
H1180 H 0.77339 0.64234 0.59532 0.0
H1181 H 0.76023 0.69312 0.64563 0.0
C1182 C 0.71268 0.69286 0.63513 0.0
C1183 C 0.68815 0.68292 0.62162 0.0
C1184 C 0.78641 0.64397 0.60717 0.0
C1185 C 0.74732 0.66791 0.62112 0.0
C1186 C 0.81223 0.63142 0.6085 0.0
C1187 C 0.82818 0.63182 0.62392 0.0
C1188 C 0.77692 0.65732 0.62134 0.0
C1189 C 0.81904 0.6468 0.63755 0.0
C1190 C 0.74206 0.68544 0.63493 0.0
C1191 C 0.69465 0.66599 0.60788 0.0
N1192 N 0.79406 0.65875 0.63595 0.0
N1193 N 0.72352 0.65889 0.608 0.0
H1194 H 0.01016 0.70781 0.64623 0.0
H1195 H 0.20581 0.81495 0.59795 0.0
H1196 H 0.02566 0.67407 0.59764 0.0
H1197 H 0.19153 0.82522 0.65025 0.0
H1198 H 0.13812 0.77112 0.59563 0.0
H1199 H 0.07477 0.75823 0.64594 0.0
C1200 C 0.02709 0.71103 0.63544 0.0
C1201 C 0.01235 0.68638 0.62198 0.0
C1202 C 0.14985 0.78342 0.60754 0.0
C1203 C 0.08693 0.74459 0.62156 0.0
C1204 C 0.18834 0.8087 0.60883 0.0
C1205 C 0.20427 0.8237 0.62432 0.0
C1206 C 0.12727 0.7736 0.62181 0.0
C1207 C 0.18046 0.81422 0.63808 0.0
C1208 C 0.06412 0.73993 0.63529 0.0
C1209 C 0.03586 0.69225 0.60834 0.0
N1210 N 0.14337 0.78982 0.63651 0.0
N1211 N 0.07202 0.7207 0.60848 0.0
H1212 H 0.37246 0.01855 0.62728 0.0
H1213 H 0.36968 0.20102 0.59645 0.0
H1214 H 0.30192 0.01392 0.58688 0.0
H1215 H 0.41055 0.18941 0.64406 0.0
H1216 H 0.34779 0.13458 0.59097 0.0
H1217 H 0.3913 0.08381 0.63157 0.0
C1218 C 0.36095 0.03125 0.61926 0.0
C1219 C 0.33539 0.01052 0.60674 0.0
C1220 C 0.3614 0.14676 0.60262 0.0
C1221 C 0.357 0.08581 0.61161 0.0
C1222 C 0.37382 0.18462 0.60577 0.0
C1223 C 0.39216 0.20111 0.62071 0.0
C1224 C 0.36777 0.12552 0.61443 0.0
C1225 C 0.39678 0.17834 0.63232 0.0
C1226 C 0.37164 0.06861 0.62176 0.0
C1227 C 0.32156 0.02876 0.59673 0.0
N1228 N 0.38496 0.14207 0.62888 0.0
N1229 N 0.33258 0.0654 0.59935 0.0
H1230 H 0.18521 0.3622 0.64954 0.0
H1231 H 0.34447 0.35737 0.59632 0.0
H1232 H 0.20387 0.39653 0.59835 0.0
H1233 H 0.30084 0.29641 0.64195 0.0
H1234 H 0.29405 0.37239 0.59635 0.0
H1235 H 0.22731 0.33743 0.64651 0.0
C1236 C 0.19773 0.36387 0.63753 0.0
C1237 C 0.19093 0.38127 0.62415 0.0
C1238 C 0.29539 0.35544 0.60625 0.0
C1239 C 0.24029 0.35388 0.62068 0.0
C1240 C 0.32424 0.34698 0.60629 0.0
C1241 C 0.32708 0.32572 0.61921 0.0
C1242 C 0.26945 0.34291 0.61932 0.0
C1243 C 0.29997 0.31296 0.63176 0.0
C1244 C 0.22191 0.34983 0.63582 0.0
C1245 C 0.20809 0.38294 0.60891 0.0
N1246 N 0.2726 0.32198 0.63156 0.0
N1247 N 0.2325 0.36993 0.60764 0.0
H1248 H 0.51147 0.10451 0.04312 0.0
H1249 H 0.40958 0.10947 0.96004 0.0
H1250 H 0.41065 0.11078 0.04334 0.0
H1251 H 0.51414 0.11052 0.96241 0.0
H1252 H 0.40148 0.0968 0.99002 0.0
H1253 H 0.50442 0.09267 0.0134 0.0
C1254 C 0.48739 0.10266 0.0369 0.0
C1255 C 0.46173 0.1088 0.04563 0.0
C1256 C 0.4258 0.09906 0.98389 0.0
C1257 C 0.45397 0.09643 0.0114 0.0
C1258 C 0.43028 0.10601 0.96678 0.0
C1259 C 0.46274 0.1113 0.9588 0.0
C1260 C 0.4539 0.09725 0.99295 0.0
C1261 C 0.48891 0.10702 0.96812 0.0
C1262 C 0.48341 0.09604 0.0199 0.0
C1263 C 0.43096 0.10602 0.03702 0.0
N1264 N 0.48408 0.10058 0.98466 0.0
N1265 N 0.42827 0.10072 0.02027 0.0
H1266 H 0.30646 0.40458 0.04595 0.0
H1267 H 0.41549 0.50917 0.96365 0.0
H1268 H 0.40915 0.51003 0.04429 0.0
H1269 H 0.30773 0.40916 0.96272 0.0
H1270 H 0.41958 0.50096 0.99332 0.0
H1271 H 0.31201 0.39739 0.01596 0.0
C1272 C 0.33066 0.42567 0.03936 0.0
C1273 C 0.35729 0.45809 0.04753 0.0
C1274 C 0.3952 0.48038 0.98667 0.0
C1275 C 0.36364 0.45028 0.01339 0.0
C1276 C 0.39297 0.48502 0.9697 0.0
C1277 C 0.36116 0.45995 0.96079 0.0
C1278 C 0.365 0.45087 0.99496 0.0
C1279 C 0.3328 0.42904 0.96918 0.0
C1280 C 0.33368 0.4217 0.02225 0.0
C1281 C 0.38783 0.48479 0.03842 0.0
N1282 N 0.33504 0.42571 0.98591 0.0
N1283 N 0.38999 0.48044 0.02187 0.0
H1284 H 0.91212 0.41083 0.04584 0.0
H1285 H 0.90803 0.30548 0.96243 0.0
H1286 H 0.90437 0.30311 0.0457 0.0
H1287 H 0.90801 0.40945 0.96513 0.0
H1288 H 0.92008 0.30928 0.99246 0.0
H1289 H 0.92492 0.41635 0.0162 0.0
C1290 C 0.91386 0.38862 0.03956 0.0
C1291 C 0.90701 0.35643 0.04816 0.0
C1292 C 0.9182 0.33161 0.98639 0.0
C1293 C 0.92046 0.36186 0.01401 0.0
C1294 C 0.91161 0.32958 0.96926 0.0
C1295 C 0.90677 0.35709 0.96136 0.0
C1296 C 0.92012 0.36144 0.99555 0.0
C1297 C 0.91117 0.38746 0.97078 0.0
C1298 C 0.92102 0.39166 0.0226 0.0
C1299 C 0.90966 0.32846 0.03947 0.0
N1300 N 0.91726 0.38864 0.98734 0.0
N1301 N 0.9155 0.33149 0.02276 0.0
H1302 H 0.6112 0.90784 0.96175 0.0
H1303 H 0.50704 0.90956 0.04456 0.0
H1304 H 0.50664 0.90683 0.96388 0.0
H1305 H 0.60773 0.90306 0.04492 0.0
H1306 H 0.51515 0.92307 0.01499 0.0
H1307 H 0.61867 0.91973 0.99179 0.0
C1308 C 0.59039 0.91118 0.96846 0.0
C1309 C 0.5581 0.90608 0.9604 0.0
C1310 C 0.53591 0.91929 0.02149 0.0
C1311 C 0.5662 0.91923 0.9946 0.0
C1312 C 0.53131 0.91172 0.03841 0.0
C1313 C 0.55662 0.905 0.04712 0.0
C1314 C 0.5656 0.91927 0.01305 0.0
C1315 C 0.58767 0.90822 0.0386 0.0
C1316 C 0.59451 0.91769 0.9856 0.0
C1317 C 0.53175 0.91019 0.96966 0.0
N1318 N 0.59095 0.91444 0.02192 0.0
N1319 N 0.53622 0.91618 0.98624 0.0
H1320 H 0.60361 0.50265 0.04422 0.0
H1321 H 0.71096 0.60872 0.96189 0.0
H1322 H 0.7101 0.60418 0.04514 0.0
H1323 H 0.60875 0.50283 0.96354 0.0
H1324 H 0.70558 0.61556 0.99193 0.0
H1325 H 0.59909 0.51075 0.01458 0.0
C1326 C 0.62576 0.52709 0.03817 0.0
C1327 C 0.65734 0.55264 0.04708 0.0
C1328 C 0.68397 0.59123 0.98562 0.0
C1329 C 0.65304 0.56165 0.01293 0.0
C1330 C 0.68689 0.58746 0.96849 0.0
C1331 C 0.66036 0.55502 0.9603 0.0
C1332 C 0.65422 0.56242 0.99449 0.0
C1333 C 0.63 0.52809 0.96942 0.0
C1334 C 0.62328 0.53168 0.02122 0.0
C1335 C 0.68522 0.58392 0.03868 0.0
N1336 N 0.62794 0.53225 0.98599 0.0
N1337 N 0.68277 0.58722 0.02197 0.0
H1338 H 0.11057 0.70933 0.04662 0.0
H1339 H 0.10394 0.60443 0.96269 0.0
H1340 H 0.10687 0.60359 0.04341 0.0
H1341 H 0.11463 0.71341 0.96334 0.0
H1342 H 0.09088 0.59852 0.99232 0.0
H1343 H 0.09892 0.70661 0.01659 0.0
C1344 C 0.10628 0.6851 0.03968 0.0
C1345 C 0.10994 0.65674 0.04745 0.0
C1346 C 0.09547 0.62358 0.98603 0.0
C1347 C 0.09703 0.6536 0.01323 0.0
C1348 C 0.10275 0.62683 0.96909 0.0
C1349 C 0.11047 0.65946 0.96063 0.0
C1350 C 0.09682 0.6536 0.99477 0.0
C1351 C 0.10861 0.68771 0.96946 0.0
C1352 C 0.09991 0.68368 0.02254 0.0
C1353 C 0.10464 0.62623 0.03787 0.0
N1354 N 0.10266 0.68445 0.98616 0.0
N1355 N 0.09878 0.62563 0.02131 0.0
H1356 H 0.90905 0.60901 0.54593 0.0
H1357 H 0.91532 0.50774 0.46296 0.0
H1358 H 0.91131 0.50615 0.54363 0.0
H1359 H 0.90551 0.60654 0.46273 0.0
H1360 H 0.92847 0.51583 0.49258 0.0
H1361 H 0.92142 0.6172 0.51593 0.0
C1362 C 0.91322 0.58875 0.5392 0.0
C1363 C 0.90891 0.5567 0.5472 0.0
C1364 C 0.92406 0.53621 0.48609 0.0
C1365 C 0.92261 0.56561 0.51303 0.0
C1366 C 0.91672 0.53163 0.46916 0.0
C1367 C 0.90918 0.5564 0.46047 0.0
C1368 C 0.92296 0.56529 0.49458 0.0
C1369 C 0.91135 0.58694 0.46903 0.0
C1370 C 0.92 0.59327 0.52208 0.0
C1371 C 0.91407 0.53106 0.5379 0.0
N1372 N 0.91735 0.59017 0.48573 0.0
N1373 N 0.9203 0.5359 0.52134 0.0
H1374 H 0.41556 0.91647 0.54455 0.0
H1375 H 0.30686 0.90501 0.46122 0.0
H1376 H 0.30544 0.90305 0.54434 0.0
H1377 H 0.4123 0.90799 0.46403 0.0
H1378 H 0.3112 0.91897 0.49108 0.0
H1379 H 0.42063 0.92932 0.51489 0.0
C1380 C 0.39278 0.91716 0.53825 0.0
C1381 C 0.36005 0.90864 0.54681 0.0
C1382 C 0.33374 0.91736 0.48506 0.0
C1383 C 0.3649 0.92186 0.51267 0.0
C1384 C 0.33138 0.90967 0.46802 0.0
C1385 C 0.35917 0.90509 0.46023 0.0
C1386 C 0.36417 0.92066 0.49423 0.0
C1387 C 0.39011 0.91092 0.46962 0.0
C1388 C 0.39553 0.92426 0.52129 0.0
C1389 C 0.33123 0.90973 0.53813 0.0
N1390 N 0.39161 0.91806 0.48609 0.0
N1391 N 0.334 0.91545 0.52141 0.0
H1392 H 0.40594 0.30515 0.54532 0.0
H1393 H 0.50318 0.41018 0.46141 0.0
H1394 H 0.50813 0.41079 0.54201 0.0
H1395 H 0.40475 0.3013 0.4623 0.0
H1396 H 0.49592 0.41661 0.49101 0.0
H1397 H 0.39615 0.30852 0.51543 0.0
C1398 C 0.42573 0.32951 0.5384 0.0
C1399 C 0.45808 0.35762 0.54607 0.0
C1400 C 0.47541 0.3915 0.48477 0.0
C1401 C 0.44732 0.36149 0.51201 0.0
C1402 C 0.47947 0.38797 0.46784 0.0
C1403 C 0.4546 0.35518 0.4595 0.0
C1404 C 0.44678 0.36155 0.49357 0.0
C1405 C 0.42439 0.32712 0.46835 0.0
C1406 C 0.42028 0.33131 0.52134 0.0
C1407 C 0.48305 0.38833 0.53653 0.0
N1408 N 0.4217 0.33061 0.48503 0.0
N1409 N 0.47733 0.38926 0.52003 0.0
H1410 H 0.10755 0.40209 0.54721 0.0
H1411 H 0.09663 0.50055 0.46425 0.0
H1412 H 0.10039 0.50231 0.54486 0.0
H1413 H 0.11157 0.40479 0.46414 0.0
H1414 H 0.08273 0.49163 0.4938 0.0
H1415 H 0.09469 0.39313 0.51726 0.0
C1416 C 0.10211 0.42151 0.54049 0.0
C1417 C 0.10524 0.45312 0.54843 0.0
C1418 C 0.0884 0.47206 0.48735 0.0
C1419 C 0.09105 0.4434 0.51432 0.0
C1420 C 0.09615 0.47709 0.47045 0.0
C1421 C 0.10536 0.45347 0.46183 0.0
C1422 C 0.09081 0.44372 0.49587 0.0
C1423 C 0.10441 0.42349 0.47039 0.0
C1424 C 0.09508 0.41658 0.52339 0.0
C1425 C 0.09851 0.47775 0.53915 0.0
N1426 N 0.09801 0.41986 0.48706 0.0
N1427 N 0.09211 0.47257 0.52261 0.0
H1428 H 0.60491 0.09985 0.46323 0.0
H1429 H 0.71191 0.10482 0.54621 0.0
H1430 H 0.71262 0.10751 0.46297 0.0
H1431 H 0.60735 0.10377 0.54395 0.0
H1432 H 0.70757 0.09245 0.51621 0.0
H1433 H 0.59986 0.0871 0.49288 0.0
C1434 C 0.62722 0.0981 0.46943 0.0
C1435 C 0.65927 0.1049 0.46071 0.0
C1436 C 0.68522 0.09414 0.52237 0.0
C1437 C 0.65437 0.09151 0.49487 0.0
C1438 C 0.68756 0.1009 0.53949 0.0
C1439 C 0.66003 0.10555 0.5475 0.0
C1440 C 0.65508 0.09189 0.51332 0.0
C1441 C 0.62934 0.10073 0.5382 0.0
C1442 C 0.62444 0.09097 0.48639 0.0
C1443 C 0.68737 0.10225 0.46929 0.0
N1444 N 0.62787 0.09451 0.52165 0.0
N1445 N 0.68461 0.09645 0.486 0.0
H1446 H 0.50612 0.59939 0.46318 0.0
H1447 H 0.61006 0.70783 0.54562 0.0
H1448 H 0.60618 0.70709 0.46241 0.0
H1449 H 0.50521 0.60454 0.54381 0.0
H1450 H 0.61757 0.70256 0.51563 0.0
H1451 H 0.51433 0.59492 0.49282 0.0
C1452 C 0.53029 0.62181 0.46926 0.0
C1453 C 0.55537 0.65371 0.46041 0.0
C1454 C 0.59334 0.68069 0.52189 0.0
C1455 C 0.56444 0.64948 0.49455 0.0
C1456 C 0.5892 0.68356 0.539 0.0
C1457 C 0.55682 0.65668 0.54712 0.0
C1458 C 0.56498 0.65064 0.51299 0.0
C1459 C 0.5304 0.62604 0.53797 0.0
C1460 C 0.53493 0.61937 0.48621 0.0
C1461 C 0.5863 0.68196 0.46884 0.0
N1462 N 0.53491 0.62404 0.52143 0.0
N1463 N 0.58962 0.67953 0.48555 0.0
H1464 H 0.42498 0.21163 0.20312 0.0
H1465 H 0.42305 0.21257 0.30239 0.0
H1466 H 0.41898 0.12249 0.23322 0.0
H1467 H 0.42265 0.29865 0.27229 0.0
H1468 H 0.42418 0.18058 0.27724 0.0
H1469 H 0.42678 0.24505 0.22828 0.0
C1470 C 0.42455 0.19919 0.21497 0.0
C1471 C 0.42234 0.16422 0.21596 0.0
C1472 C 0.42401 0.20655 0.27614 0.0
C1473 C 0.42364 0.20234 0.24496 0.0
C1474 C 0.42371 0.22513 0.29055 0.0
C1475 C 0.42328 0.25882 0.28956 0.0
C1476 C 0.42381 0.22161 0.26056 0.0
C1477 C 0.42295 0.27281 0.27372 0.0
C1478 C 0.42523 0.21824 0.22938 0.0
C1479 C 0.42067 0.14929 0.23179 0.0
N1480 N 0.42331 0.25423 0.25988 0.0
N1481 N 0.42144 0.16842 0.24563 0.0
H1482 H 0.21465 0.4202 0.20468 0.0
H1483 H 0.21799 0.42937 0.30386 0.0
H1484 H 0.30071 0.42002 0.23487 0.0
H1485 H 0.12341 0.41254 0.2746 0.0
H1486 H 0.25068 0.43118 0.2785 0.0
H1487 H 0.18302 0.42238 0.22988 0.0
C1488 C 0.22724 0.4211 0.21656 0.0
C1489 C 0.26076 0.42032 0.21759 0.0
C1490 C 0.22285 0.42727 0.2776 0.0
C1491 C 0.22417 0.42225 0.24655 0.0
C1492 C 0.20419 0.42662 0.29212 0.0
C1493 C 0.16791 0.42134 0.29143 0.0
C1494 C 0.20527 0.42259 0.26219 0.0
C1495 C 0.15131 0.41672 0.27576 0.0
C1496 C 0.20891 0.42201 0.23097 0.0
C1497 C 0.27496 0.42051 0.23342 0.0
N1498 N 0.17012 0.41755 0.26178 0.0
N1499 N 0.2567 0.42156 0.24723 0.0
H1500 H 0.8098 0.27375 0.21643 0.0
H1501 H 0.78102 0.12473 0.28571 0.0
H1502 H 0.8865 0.23289 0.22322 0.0
H1503 H 0.741 0.20216 0.29227 0.0
H1504 H 0.81304 0.15773 0.26037 0.0
H1505 H 0.77736 0.24137 0.24193 0.0
C1506 C 0.81962 0.25772 0.22319 0.0
C1507 C 0.85077 0.25578 0.21763 0.0
C1508 C 0.79737 0.16757 0.2674 0.0
C1509 C 0.81379 0.21875 0.24672 0.0
C1510 C 0.77898 0.14869 0.28181 0.0
C1511 C 0.75862 0.16092 0.29121 0.0
C1512 C 0.79474 0.19845 0.26208 0.0
C1513 C 0.75689 0.19214 0.28556 0.0
C1514 C 0.80129 0.23954 0.23779 0.0
C1515 C 0.86266 0.23517 0.22707 0.0
N1516 N 0.77451 0.2097 0.27128 0.0
N1517 N 0.84399 0.21721 0.24105 0.0
H1518 H 0.59453 0.88535 0.23438 0.0
H1519 H 0.59721 0.70779 0.27223 0.0
H1520 H 0.59344 0.79856 0.2043 0.0
H1521 H 0.58741 0.7894 0.30181 0.0
H1522 H 0.59681 0.74095 0.2472 0.0
H1523 H 0.59294 0.85089 0.25921 0.0
C1524 C 0.59387 0.85902 0.23296 0.0
C1525 C 0.59369 0.84478 0.21715 0.0
C1526 C 0.59449 0.75142 0.25917 0.0
C1527 C 0.59201 0.80507 0.24564 0.0
C1528 C 0.5948 0.73255 0.27349 0.0
C1529 C 0.59181 0.74537 0.28921 0.0
C1530 C 0.59159 0.7837 0.26055 0.0
C1531 C 0.58885 0.77774 0.29002 0.0
C1532 C 0.59284 0.83927 0.24717 0.0
C1533 C 0.59278 0.8104 0.21615 0.0
N1534 N 0.58891 0.79575 0.27592 0.0
N1535 N 0.59207 0.79182 0.23019 0.0
H1536 H 0.79938 0.58992 0.20412 0.0
H1537 H 0.8025 0.58979 0.30339 0.0
H1538 H 0.71542 0.59375 0.23449 0.0
H1539 H 0.88997 0.59305 0.27299 0.0
H1540 H 0.769 0.58859 0.27835 0.0
H1541 H 0.83147 0.58841 0.22917 0.0
C1542 C 0.7873 0.58994 0.21601 0.0
C1543 C 0.75416 0.59143 0.21711 0.0
C1544 C 0.79545 0.58941 0.27715 0.0
C1545 C 0.79152 0.59046 0.24599 0.0
C1546 C 0.81455 0.58975 0.2915 0.0
C1547 C 0.84906 0.591 0.29039 0.0
C1548 C 0.81087 0.59038 0.26152 0.0
C1549 C 0.86353 0.5921 0.27451 0.0
C1550 C 0.80594 0.58942 0.23036 0.0
C1551 C 0.74081 0.5926 0.23299 0.0
N1552 N 0.84437 0.59167 0.26074 0.0
N1553 N 0.75944 0.592 0.24677 0.0
H1554 H 0.2072 0.73698 0.21571 0.0
H1555 H 0.24091 0.88772 0.28498 0.0
H1556 H 0.13265 0.78031 0.22291 0.0
H1557 H 0.27956 0.80906 0.29096 0.0
H1558 H 0.20777 0.85488 0.2598 0.0
H1559 H 0.24078 0.76936 0.24099 0.0
C1560 C 0.19809 0.75354 0.22251 0.0
C1561 C 0.16721 0.75618 0.21713 0.0
C1562 C 0.22339 0.84474 0.26666 0.0
C1563 C 0.20551 0.79323 0.24598 0.0
C1564 C 0.24243 0.86354 0.28099 0.0
C1565 C 0.26273 0.85091 0.29018 0.0
C1566 C 0.22529 0.81352 0.26124 0.0
C1567 C 0.26375 0.8194 0.28441 0.0
C1568 C 0.21707 0.77174 0.237 0.0
C1569 C 0.15625 0.77748 0.22662 0.0
N1570 N 0.24549 0.80192 0.27024 0.0
N1571 N 0.17555 0.79543 0.24049 0.0
H1572 H 0.59274 0.79371 0.70462 0.0
H1573 H 0.59363 0.80031 0.80385 0.0
H1574 H 0.59574 0.71028 0.73569 0.0
H1575 H 0.59749 0.88714 0.77278 0.0
H1576 H 0.59177 0.76578 0.77907 0.0
H1577 H 0.59184 0.82689 0.72941 0.0
C1578 C 0.5927 0.78198 0.71661 0.0
C1579 C 0.59378 0.74867 0.71798 0.0
C1580 C 0.59287 0.79232 0.77767 0.0
C1581 C 0.59353 0.78726 0.74655 0.0
C1582 C 0.59358 0.81201 0.79186 0.0
C1583 C 0.59519 0.84664 0.79049 0.0
C1584 C 0.59382 0.80726 0.76192 0.0
C1585 C 0.59626 0.86062 0.7745 0.0
C1586 C 0.59254 0.80124 0.7308 0.0
C1587 C 0.59491 0.73578 0.73397 0.0
N1588 N 0.59547 0.84089 0.76088 0.0
N1589 N 0.59465 0.755 0.74759 0.0
H1590 H 0.71473 0.5967 0.77273 0.0
H1591 H 0.89298 0.59606 0.73444 0.0
H1592 H 0.79969 0.59307 0.8024 0.0
H1593 H 0.80442 0.59262 0.70481 0.0
H1594 H 0.85941 0.59536 0.75945 0.0
H1595 H 0.7474 0.59557 0.74774 0.0
C1596 C 0.74018 0.59555 0.77403 0.0
C1597 C 0.75409 0.59453 0.78979 0.0
C1598 C 0.84722 0.59454 0.74747 0.0
C1599 C 0.79186 0.59337 0.76109 0.0
C1600 C 0.86644 0.59505 0.73316 0.0
C1601 C 0.85145 0.59394 0.7174 0.0
C1602 C 0.81278 0.59326 0.74611 0.0
C1603 C 0.81687 0.59264 0.71659 0.0
C1604 C 0.75878 0.5948 0.75972 0.0
C1605 C 0.78726 0.59303 0.79061 0.0
N1606 N 0.79881 0.59241 0.73072 0.0
N1607 N 0.80499 0.59258 0.77649 0.0
H1608 H 0.3074 0.88935 0.73413 0.0
H1609 H 0.12768 0.71266 0.77293 0.0
H1610 H 0.2212 0.80107 0.70477 0.0
H1611 H 0.21655 0.79792 0.80238 0.0
H1612 H 0.16154 0.74478 0.74786 0.0
H1613 H 0.27447 0.85638 0.75924 0.0
C1614 C 0.28163 0.863 0.73292 0.0
C1615 C 0.26746 0.8479 0.71721 0.0
C1616 C 0.17374 0.75635 0.75981 0.0
C1617 C 0.22941 0.80992 0.74605 0.0
C1618 C 0.15435 0.73806 0.77416 0.0
C1619 C 0.16932 0.75221 0.78989 0.0
C1620 C 0.20834 0.78935 0.76109 0.0
C1621 C 0.2041 0.7853 0.79063 0.0
C1622 C 0.26288 0.84412 0.7473 0.0
C1623 C 0.23386 0.81357 0.71652 0.0
N1624 N 0.22232 0.80272 0.77646 0.0
N1625 N 0.21603 0.79586 0.7307 0.0
H1626 H 0.47554 0.20654 0.79038 0.0
H1627 H 0.35422 0.22976 0.71967 0.0
H1628 H 0.35843 0.1281 0.78334 0.0
H1629 H 0.4729 0.27484 0.71452 0.0
H1630 H 0.35544 0.19862 0.74524 0.0
H1631 H 0.47531 0.23826 0.76471 0.0
C1632 C 0.44972 0.19618 0.78354 0.0
C1633 C 0.41683 0.16475 0.78909 0.0
C1634 C 0.38118 0.2152 0.73847 0.0
C1635 C 0.41648 0.2009 0.75976 0.0
C1636 C 0.38054 0.2331 0.72392 0.0
C1637 C 0.41342 0.25463 0.71484 0.0
C1638 C 0.41509 0.21945 0.74424 0.0
C1639 C 0.44677 0.258 0.72096 0.0
C1640 C 0.44971 0.21411 0.76883 0.0
C1641 C 0.38439 0.15217 0.77952 0.0
N1642 N 0.4468 0.24078 0.73535 0.0
N1643 N 0.38496 0.17043 0.76542 0.0
H1644 H 0.27476 0.47487 0.79351 0.0
H1645 H 0.12978 0.35331 0.72283 0.0
H1646 H 0.23735 0.35825 0.78579 0.0
H1647 H 0.20093 0.47256 0.71852 0.0
H1648 H 0.16205 0.35465 0.74844 0.0
H1649 H 0.24123 0.47451 0.76837 0.0
C1650 C 0.25922 0.44912 0.78664 0.0
C1651 C 0.25862 0.41642 0.79183 0.0
C1652 C 0.17063 0.38051 0.74187 0.0
C1653 C 0.2203 0.41591 0.76311 0.0
C1654 C 0.1521 0.37981 0.72731 0.0
C1655 C 0.1629 0.41279 0.71841 0.0
C1656 C 0.19977 0.41454 0.74781 0.0
C1657 C 0.19209 0.44635 0.72481 0.0
C1658 C 0.24036 0.44903 0.77223 0.0
C1659 C 0.23862 0.38407 0.78223 0.0
N1660 N 0.20942 0.44639 0.73916 0.0
N1661 N 0.22005 0.38456 0.76842 0.0
H1662 H 0.80313 0.21843 0.80372 0.0
H1663 H 0.80034 0.21588 0.70441 0.0
H1664 H 0.89092 0.30277 0.77348 0.0
H1665 H 0.71806 0.1265 0.7347 0.0
H1666 H 0.8319 0.24978 0.72952 0.0
H1667 H 0.76982 0.18629 0.7786 0.0
C1668 C 0.81528 0.23058 0.79184 0.0
C1669 C 0.84985 0.2638 0.7908 0.0
C1670 C 0.80685 0.22281 0.73068 0.0
C1671 C 0.81187 0.22644 0.76185 0.0
C1672 C 0.78852 0.20349 0.7163 0.0
C1673 C 0.75605 0.16829 0.71736 0.0
C1674 C 0.79274 0.20697 0.74629 0.0
C1675 C 0.74296 0.15346 0.73322 0.0
C1676 C 0.7963 0.21192 0.77746 0.0
C1677 C 0.86443 0.27729 0.77494 0.0
N1678 N 0.76126 0.17285 0.74702 0.0
N1679 N 0.84538 0.25866 0.76113 0.0
H1680 H 0.53497 0.11127 0.10294 0.0
H1681 H 0.58625 0.9848 0.12156 0.0
H1682 H 0.43157 0.022 0.122 0.0
H1683 H 0.47728 0.899 0.10595 0.0
H1684 H 0.57235 0.0319 0.11095 0.0
H1685 H 0.55182 0.06556 0.09332 0.0
C1686 C 0.51484 0.08184 0.10426 0.0
C1687 C 0.48199 0.07031 0.11343 0.0
C1688 C 0.5521 1.00274 0.10905 0.0
C1689 C 0.50169 0.01814 0.10305 0.0
C1690 C 0.56032 0.97581 0.11498 0.0
C1691 C 0.53282 0.93808 0.11467 0.0
C1692 C 0.5159 0.99158 0.10317 0.0
C1693 C 0.49914 0.92798 0.10646 0.0
C1694 C 0.52485 0.05586 0.09906 0.0
C1695 C 0.45712 0.032 0.11498 0.0
N1696 N 0.49101 0.95455 0.10163 0.0
N1697 N 0.46788 0.00721 0.1102 0.0
H1698 H 0.60569 0.58294 0.12235 0.0
H1699 H 0.427 0.53121 0.10487 0.0
H1700 H 0.58223 0.47423 0.10623 0.0
H1701 H 0.41385 0.42825 0.12398 0.0
H1702 H 0.48937 0.54819 0.09489 0.0
H1703 H 0.54419 0.56892 0.11232 0.0
C1704 C 0.58854 0.55705 0.11577 0.0
C1705 C 0.59888 0.52965 0.11517 0.0
C1706 C 0.47234 0.52129 0.10072 0.0
C1707 C 0.52792 0.51257 0.10436 0.0
C1708 C 0.43646 0.5112 0.10614 0.0
C1709 C 0.41547 0.47842 0.1154 0.0
C1710 C 0.48713 0.49827 0.10458 0.0
C1711 C 0.42914 0.45373 0.11688 0.0
C1712 C 0.55312 0.54875 0.11019 0.0
C1713 C 0.57504 0.49601 0.10697 0.0
N1714 N 0.46457 0.46455 0.11188 0.0
N1715 N 0.5401 0.48778 0.1025 0.0
H1716 H 0.90079 0.42411 0.10567 0.0
H1717 H 0.02649 0.60298 0.12328 0.0
H1718 H 0.99095 0.4115 0.12474 0.0
H1719 H 0.11264 0.58032 0.1077 0.0
H1720 H 0.97953 0.54141 0.11311 0.0
H1721 H 0.94593 0.48664 0.0958 0.0
C1722 C 0.9303 0.43373 0.10695 0.0
C1723 C 0.94223 0.41282 0.11617 0.0
C1724 C 1.00872 0.55054 0.11112 0.0
C1725 C 0.99378 0.48472 0.1055 0.0
C1726 C 0.03555 0.58599 0.11679 0.0
C1727 C 0.07337 0.59659 0.11637 0.0
C1728 C 0.02007 0.52555 0.10539 0.0
C1729 C 0.08359 0.57296 0.10828 0.0
C1730 C 0.95595 0.46972 0.1016 0.0
C1731 C 0.98064 0.42672 0.11767 0.0
N1732 N 0.05713 0.53798 0.10371 0.0
N1733 N 1.00511 0.46225 0.11275 0.0
H1734 H 0.11793 0.53654 0.40437 0.0
H1735 H 0.98935 0.5851 0.38573 0.0
H1736 H 0.02933 0.43252 0.38548 0.0
H1737 H 0.90492 0.47642 0.40233 0.0
H1738 H 0.03729 0.57223 0.39615 0.0
H1739 H 0.07174 0.5527 0.41402 0.0
C1740 C 0.08856 0.51616 0.40307 0.0
C1741 C 0.07734 0.4833 0.39396 0.0
C1742 C 1.00826 0.55184 0.3983 0.0
C1743 C 0.02461 0.50219 0.40441 0.0
C1744 C 0.98086 0.55949 0.3925 0.0
C1745 C 0.94324 0.53175 0.39313 0.0
C1746 C 0.99769 0.51594 0.40438 0.0
C1747 C 0.93379 0.49846 0.40157 0.0
C1748 C 0.06231 0.52576 0.40831 0.0
C1749 C 0.03909 0.45808 0.39246 0.0
N1750 N 0.9608 0.49083 0.40625 0.0
N1751 N 0.01401 0.46845 0.39727 0.0
H1752 H 0.59041 0.11042 0.40345 0.0
H1753 H 0.41185 0.98366 0.38648 0.0
H1754 H 0.60355 0.0207 0.38425 0.0
H1755 H 0.4356 0.89811 0.40174 0.0
H1756 H 0.47319 0.0309 0.39668 0.0
H1757 H 0.5283 0.06495 0.41366 0.0
C1758 C 0.58101 0.08095 0.40221 0.0
C1759 C 0.60193 0.06921 0.39287 0.0
C1760 C 0.46436 1.00177 0.39861 0.0
C1761 C 0.53048 0.01728 0.40391 0.0
C1762 C 0.42899 0.97475 0.39295 0.0
C1763 C 0.41881 0.93704 0.39322 0.0
C1764 C 0.48968 0.99072 0.40421 0.0
C1765 C 0.44265 0.92706 0.40128 0.0
C1766 C 0.54526 0.05511 0.40775 0.0
C1767 C 0.58832 0.03086 0.3914 0.0
N1768 N 0.47758 0.95371 0.40582 0.0
N1769 N 0.55299 0.00619 0.39651 0.0
H1770 H 0.43064 0.40375 0.38449 0.0
H1771 H 0.47767 0.58112 0.40281 0.0
H1772 H 0.53953 0.42941 0.40144 0.0
H1773 H 0.58281 0.59779 0.38483 0.0
H1774 H 0.46147 0.5186 0.41224 0.0
H1775 H 0.4429 0.46463 0.39457 0.0
C1776 C 0.45618 0.42122 0.39125 0.0
C1777 C 0.48412 0.41163 0.39212 0.0
C1778 C 0.48864 0.53641 0.40679 0.0
C1779 C 0.49922 0.48198 0.40299 0.0
C1780 C 0.49829 0.57239 0.40171 0.0
C1781 C 0.53152 0.59447 0.39289 0.0
C1782 C 0.51258 0.52261 0.40307 0.0
C1783 C 0.55698 0.5817 0.3916 0.0
C1784 C 0.46347 0.4563 0.39686 0.0
C1785 C 0.51733 0.43597 0.40049 0.0
N1786 N 0.54662 0.54617 0.39627 0.0
N1787 N 0.52458 0.47058 0.40502 0.0
H1788 H 0.43192 0.02894 0.88397 0.0
H1789 H 0.48468 0.90372 0.90318 0.0
H1790 H 0.54104 0.11555 0.89897 0.0
H1791 H 0.58725 0.99267 0.8833 0.0
H1792 H 0.46772 0.9495 0.91256 0.0
H1793 H 0.44644 0.98233 0.89471 0.0
C1794 C 0.45804 0.03821 0.89044 0.0
C1795 C 0.48537 0.07601 0.89055 0.0
C1796 C 0.49455 0.95914 0.9067 0.0
C1797 C 0.50298 0.0231 0.90219 0.0
C1798 C 0.50465 0.93314 0.90163 0.0
C1799 C 0.53725 0.9445 0.8923 0.0
C1800 C 0.51741 0.99674 0.90242 0.0
C1801 C 0.56189 0.9828 0.89045 0.0
C1802 C 0.46661 0.01159 0.89644 0.0
C1803 C 0.5193 0.08651 0.89862 0.0
N1804 N 0.55106 0.0076 0.89511 0.0
N1805 N 0.52774 0.06021 0.90353 0.0
H1806 H 0.4117 0.42976 0.88541 0.0
H1807 H 0.59017 0.48169 0.90311 0.0
H1808 H 0.43477 0.53837 0.90149 0.0
H1809 H 0.60331 0.58482 0.88425 0.0
H1810 H 0.52775 0.46455 0.91307 0.0
H1811 H 0.47308 0.44384 0.89562 0.0
C1812 C 0.42874 0.45564 0.89202 0.0
C1813 C 0.41834 0.48299 0.89256 0.0
C1814 C 0.54478 0.49152 0.9073 0.0
C1815 C 0.48915 0.50014 0.9036 0.0
C1816 C 0.58069 0.5017 0.9019 0.0
C1817 C 0.60168 0.53456 0.89269 0.0
C1818 C 0.52996 0.51453 0.90348 0.0
C1819 C 0.58801 0.55926 0.89129 0.0
C1820 C 0.46408 0.46397 0.89771 0.0
C1821 C 0.44201 0.51662 0.9008 0.0
N1822 N 0.55254 0.54835 0.89627 0.0
N1823 N 0.47689 0.52487 0.9054 0.0
H1824 H 0.02938 0.60748 0.8858 0.0
H1825 H 0.90313 0.42913 0.90387 0.0
H1826 H 0.11514 0.58494 0.90211 0.0
H1827 H 0.9931 0.41622 0.8848 0.0
H1828 H 0.94841 0.4916 0.91376 0.0
H1829 H 0.98218 0.54614 0.89609 0.0
C1830 C 0.03829 0.59059 0.89248 0.0
C1831 C 0.07609 0.60111 0.89306 0.0
C1832 C 0.95835 0.4746 0.90797 0.0
C1833 C 0.02252 0.53032 0.90417 0.0
C1834 C 0.93262 0.43865 0.90261 0.0
C1835 C 0.94447 0.4177 0.89337 0.0
C1836 C 0.99617 0.4895 0.90407 0.0
C1837 C 0.98286 0.43147 0.89188 0.0
C1838 C 0.01133 0.55526 0.89821 0.0
C1839 C 0.08612 0.5776 0.9014 0.0
N1840 N 1.00741 0.46697 0.89682 0.0
N1841 N 0.05954 0.54271 0.90601 0.0
H1842 H 0.98959 0.58633 0.62357 0.0
H1843 H 0.12121 0.53934 0.60765 0.0
H1844 H 0.9074 0.4769 0.60676 0.0
H1845 H 0.03205 0.4339 0.62503 0.0
H1846 H 0.07525 0.55557 0.59773 0.0
H1847 H 0.03882 0.57408 0.6144 0.0
C1848 C 0.98192 0.56065 0.61701 0.0
C1849 C 0.94449 0.53257 0.61595 0.0
C1850 C 0.06568 0.52839 0.60321 0.0
C1851 C 1.00038 0.51749 0.60612 0.0
C1852 C 0.09181 0.51877 0.6086 0.0
C1853 C 0.08032 0.48531 0.61727 0.0
C1854 C 0.02777 0.5043 0.60656 0.0
C1855 C 0.04204 0.45987 0.61835 0.0
C1856 C 0.01005 0.55335 0.61194 0.0
C1857 C 0.93609 0.49921 0.60784 0.0
N1858 N 0.01704 0.47023 0.61339 0.0
N1859 N 0.96373 0.49199 0.60383 0.0
H1860 H 0.5888 0.11099 0.60449 0.0
H1861 H 0.41117 0.9813 0.62175 0.0
H1862 H 0.60361 0.02234 0.62378 0.0
H1863 H 0.43652 0.89778 0.60497 0.0
H1864 H 0.47228 0.02975 0.61185 0.0
H1865 H 0.52703 0.0648 0.59422 0.0
C1866 C 0.57986 0.08163 0.60573 0.0
C1867 C 0.60109 0.07037 0.61514 0.0
C1868 C 0.46383 1.00082 0.60954 0.0
C1869 C 0.53015 0.01764 0.60396 0.0
C1870 C 0.4286 0.97313 0.61504 0.0
C1871 C 0.41892 0.93559 0.61421 0.0
C1872 C 0.48952 0.99061 0.60359 0.0
C1873 C 0.44322 0.92658 0.6059 0.0
C1874 C 0.54433 0.05538 0.60014 0.0
C1875 C 0.58812 0.03213 0.61658 0.0
N1876 N 0.47799 0.95384 0.60153 0.0
N1877 N 0.553 0.00705 0.6114 0.0
H1878 H 0.42951 0.40837 0.62093 0.0
H1879 H 0.48186 0.58583 0.6031 0.0
H1880 H 0.5381 0.43046 0.60529 0.0
H1881 H 0.58545 0.59861 0.62111 0.0
H1882 H 0.46447 0.52365 0.59278 0.0
H1883 H 0.44366 0.46917 0.60996 0.0
C1884 C 0.45541 0.42503 0.61427 0.0
C1885 C 0.48276 0.41461 0.61408 0.0
C1886 C 0.49161 0.54057 0.59842 0.0
C1887 C 0.49995 0.48476 0.60213 0.0
C1888 C 0.50195 0.5764 0.604 0.0
C1889 C 0.53493 0.59709 0.61317 0.0
C1890 C 0.5146 0.5256 0.60203 0.0
C1891 C 0.55975 0.58349 0.61415 0.0
C1892 C 0.46376 0.46004 0.60811 0.0
C1893 C 0.51636 0.43774 0.60572 0.0
N1894 N 0.54865 0.54809 0.60906 0.0
N1895 N 0.52464 0.47234 0.60066 0.0
H1896 H 0.72688 0.28387 0.1276 0.0
H1897 H 0.54568 0.13885 0.17393 0.0
H1898 H 0.73095 0.24394 0.17646 0.0
H1899 H 0.54664 0.20141 0.13119 0.0
H1900 H 0.61221 0.18373 0.17823 0.0
H1901 H 0.66054 0.2612 0.1313 0.0
C1902 C 0.71372 0.27053 0.13918 0.0
C1903 C 0.73406 0.26508 0.15162 0.0
C1904 C 0.59744 0.18863 0.16837 0.0
C1905 C 0.6579 0.23837 0.15591 0.0
C1906 C 0.55943 0.16324 0.16605 0.0
C1907 C 0.54044 0.16741 0.15259 0.0
C1908 C 0.61654 0.2175 0.15679 0.0
C1909 C 0.55981 0.19834 0.14219 0.0
C1910 C 0.67586 0.25775 0.14136 0.0
C1911 C 0.71597 0.24831 0.16653 0.0
N1912 N 0.59683 0.22188 0.14437 0.0
N1913 N 0.67861 0.23473 0.16814 0.0
H1914 H 0.34663 0.54122 0.13245 0.0
H1915 H 0.49049 0.73093 0.17683 0.0
H1916 H 0.41146 0.54495 0.17483 0.0
H1917 H 0.45076 0.71961 0.12656 0.0
H1918 H 0.44668 0.6641 0.18129 0.0
H1919 H 0.36699 0.6069 0.13628 0.0
C1920 C 0.36327 0.55538 0.14324 0.0
C1921 C 0.37604 0.53729 0.15378 0.0
C1922 C 0.4472 0.6765 0.1694 0.0
C1923 C 0.40254 0.61353 0.15731 0.0
C1924 C 0.47209 0.7145 0.16685 0.0
C1925 C 0.47464 0.73045 0.1512 0.0
C1926 C 0.42437 0.65473 0.15629 0.0
C1927 C 0.45018 0.70816 0.1387 0.0
C1928 C 0.37576 0.59319 0.14516 0.0
C1929 C 0.40018 0.55777 0.16675 0.0
N1930 N 0.42623 0.67141 0.14149 0.0
N1931 N 0.41323 0.59509 0.16801 0.0
H1932 H 0.76447 0.48768 0.17708 0.0
H1933 H 0.81141 0.3446 0.13278 0.0
H1934 H 0.73709 0.44845 0.1267 0.0
H1935 H 0.87099 0.40799 0.17572 0.0
H1936 H 0.7661 0.36499 0.13639 0.0
H1937 H 0.78745 0.44387 0.18163 0.0
C1938 C 0.76273 0.4694 0.16708 0.0
C1939 C 0.74962 0.47208 0.15139 0.0
C1940 C 0.78822 0.37343 0.14544 0.0
C1941 C 0.77502 0.42181 0.15659 0.0
C1942 C 0.81351 0.36088 0.14365 0.0
C1943 C 0.84392 0.37318 0.15443 0.0
C1944 C 0.79429 0.39989 0.15769 0.0
C1945 C 0.84721 0.39702 0.16746 0.0
C1946 C 0.77581 0.4445 0.16969 0.0
C1947 C 0.74773 0.44776 0.13888 0.0
N1948 N 0.82299 0.41018 0.16859 0.0
N1949 N 0.7605 0.42382 0.14172 0.0
H1950 H 0.28244 0.76247 0.17757 0.0
H1951 H 0.47056 0.80635 0.13233 0.0
H1952 H 0.29226 0.73137 0.12761 0.0
H1953 H 0.46822 0.86838 0.17463 0.0
H1954 H 0.40513 0.76084 0.13674 0.0
H1955 H 0.34928 0.78512 0.18183 0.0
C1956 C 0.29854 0.75981 0.16763 0.0
C1957 C 0.28219 0.74582 0.1521 0.0
C1958 C 0.41911 0.78357 0.14548 0.0
C1959 C 0.3579 0.77085 0.15696 0.0
C1960 C 0.45681 0.80902 0.14323 0.0
C1961 C 0.47519 0.84017 0.15359 0.0
C1962 C 0.39915 0.79025 0.15775 0.0
C1963 C 0.45517 0.84405 0.16669 0.0
C1964 C 0.33654 0.77271 0.17006 0.0
C1965 C 0.30404 0.74274 0.13964 0.0
N1966 N 0.41792 0.81968 0.16825 0.0
N1967 N 0.3408 0.75539 0.14231 0.0
H1968 H 0.6699 0.46827 0.13183 0.0
H1969 H 0.52695 0.27763 0.17578 0.0
H1970 H 0.60479 0.46327 0.17432 0.0
H1971 H 0.56735 0.28977 0.1256 0.0
H1972 H 0.57049 0.34443 0.18042 0.0
H1973 H 0.65028 0.40271 0.13551 0.0
C1974 C 0.65336 0.45388 0.14261 0.0
C1975 C 0.64026 0.47156 0.15322 0.0
C1976 C 0.5702 0.33222 0.16851 0.0
C1977 C 0.61462 0.39544 0.15659 0.0
C1978 C 0.54545 0.29422 0.16585 0.0
C1979 C 0.54315 0.2785 0.15018 0.0
C1980 C 0.59311 0.35423 0.15548 0.0
C1981 C 0.56775 0.30103 0.13776 0.0
C1982 C 0.6413 0.41613 0.14445 0.0
C1983 C 0.6163 0.45077 0.16619 0.0
N1984 N 0.59152 0.33778 0.14064 0.0
N1985 N 0.60367 0.41352 0.16737 0.0
H1986 H 0.20478 0.66647 0.13273 0.0
H1987 H 0.25229 0.52378 0.17706 0.0
H1988 H 0.1456 0.6031 0.17576 0.0
H1989 H 0.27906 0.56245 0.12658 0.0
H1990 H 0.22949 0.56772 0.1816 0.0
H1991 H 0.25026 0.64624 0.13628 0.0
C1992 C 0.20278 0.65021 0.14359 0.0
C1993 C 0.1724 0.63782 0.15441 0.0
C1994 C 0.24096 0.56695 0.16964 0.0
C1995 C 0.22229 0.61139 0.15762 0.0
C1996 C 0.25395 0.54198 0.16704 0.0
C1997 C 0.26683 0.53909 0.15132 0.0
C1998 C 0.2416 0.58951 0.15651 0.0
C1999 C 0.26861 0.5633 0.13878 0.0
C2000 C 0.22819 0.63777 0.14535 0.0
C2001 C 0.16934 0.61412 0.16747 0.0
N2002 N 0.25592 0.58732 0.14162 0.0
N2003 N 0.19366 0.60109 0.16857 0.0
H2004 H 0.8722 0.46594 0.33298 0.0
H2005 H 0.73038 0.28566 0.38105 0.0
H2006 H 0.81196 0.46584 0.37644 0.0
H2007 H 0.76854 0.28045 0.33194 0.0
H2008 H 0.75256 0.35181 0.37705 0.0
H2009 H 0.82755 0.39915 0.32928 0.0
C2010 C 0.84831 0.45229 0.34116 0.0
C2011 C 0.84477 0.47162 0.35465 0.0
C2012 C 0.75574 0.33628 0.367 0.0
C2013 C 0.795 0.39523 0.35112 0.0
C2014 C 0.74323 0.29852 0.36935 0.0
C2015 C 0.74831 0.2779 0.35693 0.0
C2016 C 0.77446 0.35388 0.35228 0.0
C2017 C 0.76445 0.29562 0.34187 0.0
C2018 C 0.82308 0.41412 0.33919 0.0
C2019 C 0.81454 0.45237 0.36543 0.0
N2020 N 0.77776 0.33289 0.34008 0.0
N2021 N 0.79116 0.41522 0.36357 0.0
H2022 H 0.44757 0.71476 0.35415 0.0
H2023 H 0.41373 0.88223 0.32972 0.0
H2024 H 0.52571 0.81316 0.32715 0.0
H2025 H 0.35921 0.80623 0.37009 0.0
H2026 H 0.44032 0.8437 0.3208 0.0
H2027 H 0.40145 0.73529 0.35231 0.0
C2028 C 0.4548 0.7403 0.34757 0.0
C2029 C 0.49076 0.7627 0.34109 0.0
C2030 C 0.42111 0.83453 0.33116 0.0
C2031 C 0.43817 0.7861 0.33883 0.0
C2032 C 0.40554 0.85619 0.33608 0.0
C2033 C 0.38298 0.84643 0.35023 0.0
C2034 C 0.41443 0.80331 0.34066 0.0
C2035 C 0.37471 0.8135 0.35859 0.0
C2036 C 0.42849 0.75199 0.34654 0.0
C2037 C 0.49855 0.79544 0.33263 0.0
N2038 N 0.39074 0.79331 0.3538 0.0
N2039 N 0.47262 0.80636 0.33189 0.0
H2040 H 0.73545 0.48389 0.33062 0.0
H2041 H 0.54687 0.3407 0.37579 0.0
H2042 H 0.7251 0.44463 0.38093 0.0
H2043 H 0.55005 0.40404 0.33293 0.0
H2044 H 0.61236 0.36034 0.37166 0.0
H2045 H 0.66883 0.43919 0.32626 0.0
C2046 C 0.7193 0.46539 0.34064 0.0
C2047 C 0.73542 0.46838 0.35627 0.0
C2048 C 0.59853 0.36889 0.36274 0.0
C2049 C 0.65993 0.4171 0.35129 0.0
C2050 C 0.56083 0.35683 0.36484 0.0
C2051 C 0.54272 0.36951 0.35427 0.0
C2052 C 0.61871 0.39517 0.35038 0.0
C2053 C 0.56292 0.39289 0.34105 0.0
C2054 C 0.68141 0.43997 0.33813 0.0
C2055 C 0.71349 0.44374 0.3688 0.0
N2056 N 0.60015 0.40559 0.33963 0.0
N2057 N 0.67682 0.41933 0.36607 0.0
H2058 H 0.21344 0.54279 0.37335 0.0
H2059 H 0.25511 0.73245 0.32981 0.0
H2060 H 0.14346 0.54851 0.33534 0.0
H2061 H 0.2935 0.72312 0.37832 0.0
H2062 H 0.22971 0.66519 0.32572 0.0
H2063 H 0.25925 0.60826 0.36842 0.0
C2064 C 0.20871 0.55735 0.36331 0.0
C2065 C 0.17512 0.54015 0.35445 0.0
C2066 C 0.24434 0.67811 0.33711 0.0
C2067 C 0.22636 0.61548 0.34937 0.0
C2068 C 0.25883 0.71638 0.33945 0.0
C2069 C 0.27571 0.73305 0.35457 0.0
C2070 C 0.24741 0.65673 0.34987 0.0
C2071 C 0.28 0.71113 0.36662 0.0
C2072 C 0.23454 0.59489 0.36071 0.0
C2073 C 0.16945 0.56073 0.34217 0.0
N2074 N 0.26568 0.67404 0.36406 0.0
N2075 N 0.19461 0.5976 0.34013 0.0
H2076 H 0.66893 0.20021 0.3759 0.0
H2077 H 0.52582 0.24548 0.3304 0.0
H2078 H 0.60599 0.13944 0.33307 0.0
H2079 H 0.56431 0.27395 0.38082 0.0
H2080 H 0.56982 0.22256 0.32631 0.0
H2081 H 0.64824 0.24519 0.37186 0.0
C2082 C 0.65266 0.19775 0.36497 0.0
C2083 C 0.64058 0.16713 0.35434 0.0
C2084 C 0.56898 0.23442 0.33815 0.0
C2085 C 0.61357 0.21639 0.35058 0.0
C2086 C 0.54397 0.24747 0.3405 0.0
C2087 C 0.54103 0.26087 0.35608 0.0
C2088 C 0.59152 0.23556 0.3514 0.0
C2089 C 0.56519 0.26307 0.36873 0.0
C2090 C 0.63995 0.22286 0.36293 0.0
C2091 C 0.61678 0.1634 0.34121 0.0
N2092 N 0.58925 0.25035 0.36614 0.0
N2093 N 0.60348 0.18746 0.33983 0.0
H2094 H 0.46498 0.66336 0.36638 0.0
H2095 H 0.29841 0.48569 0.32644 0.0
H2096 H 0.47896 0.59227 0.33174 0.0
H2097 H 0.28417 0.56471 0.35579 0.0
H2098 H 0.36452 0.53137 0.32347 0.0
H2099 H 0.40041 0.6372 0.35734 0.0
C2100 C 0.45504 0.64383 0.35613 0.0
C2101 C 0.47745 0.63052 0.34949 0.0
C2102 C 0.34692 0.53908 0.33034 0.0
C2103 C 0.40282 0.5983 0.33997 0.0
C2104 C 0.30916 0.51287 0.33212 0.0
C2105 C 0.28594 0.52123 0.34163 0.0
C2106 C 0.36179 0.5737 0.3384 0.0
C2107 C 0.30117 0.55708 0.34845 0.0
C2108 C 0.41787 0.62825 0.3512 0.0
C2109 C 0.46262 0.60363 0.33694 0.0
N2110 N 0.33831 0.58178 0.34697 0.0
N2111 N 0.42598 0.5878 0.33282 0.0
H2112 H 0.47091 0.87319 0.83266 0.0
H2113 H 0.29226 0.73241 0.88167 0.0
H2114 H 0.47244 0.81295 0.8758 0.0
H2115 H 0.28544 0.76733 0.83208 0.0
H2116 H 0.35849 0.75507 0.8775 0.0
H2117 H 0.40405 0.82838 0.82932 0.0
C2118 C 0.45759 0.84928 0.84084 0.0
C2119 C 0.4774 0.84579 0.85414 0.0
C2120 C 0.34256 0.7574 0.86739 0.0
C2121 C 0.40096 0.79585 0.85104 0.0
C2122 C 0.30477 0.74465 0.86984 0.0
C2123 C 0.28367 0.74866 0.85731 0.0
C2124 C 0.35968 0.77526 0.85245 0.0
C2125 C 0.30098 0.76407 0.84209 0.0
C2126 C 0.4194 0.82395 0.83908 0.0
C2127 C 0.4586 0.81549 0.86492 0.0
N2128 N 0.33826 0.7776 0.84019 0.0
N2129 N 0.42139 0.79204 0.86329 0.0
H2130 H 0.66956 0.47141 0.87499 0.0
H2131 H 0.52655 0.28404 0.82889 0.0
H2132 H 0.60598 0.46985 0.83253 0.0
H2133 H 0.56831 0.29274 0.87863 0.0
H2134 H 0.57007 0.35116 0.82498 0.0
H2135 H 0.6499 0.40617 0.87035 0.0
C2136 C 0.65337 0.45787 0.86402 0.0
C2137 C 0.64085 0.47646 0.85365 0.0
C2138 C 0.57008 0.33813 0.83662 0.0
C2139 C 0.61488 0.40052 0.84923 0.0
C2140 C 0.54536 0.29995 0.83886 0.0
C2141 C 0.54345 0.28319 0.85422 0.0
C2142 C 0.59333 0.35923 0.84976 0.0
C2143 C 0.56841 0.30482 0.86671 0.0
C2144 C 0.64123 0.42026 0.86163 0.0
C2145 C 0.61711 0.45666 0.84047 0.0
N2146 N 0.59212 0.34174 0.86424 0.0
N2147 N 0.60431 0.41945 0.83877 0.0
H2148 H 0.14671 0.60733 0.83279 0.0
H2149 H 0.28824 0.56941 0.88109 0.0
H2150 H 0.20719 0.66815 0.87607 0.0
H2151 H 0.25048 0.52583 0.83197 0.0
H2152 H 0.26644 0.61361 0.87687 0.0
H2153 H 0.19159 0.5855 0.82907 0.0
C2154 C 0.17071 0.61782 0.84091 0.0
C2155 C 0.17423 0.64075 0.85436 0.0
C2156 C 0.26328 0.5948 0.86686 0.0
C2157 C 0.22427 0.6145 0.85083 0.0
C2158 C 0.27554 0.56941 0.86934 0.0
C2159 C 0.27044 0.54358 0.85698 0.0
C2160 C 0.24474 0.59367 0.85208 0.0
C2161 C 0.25455 0.54518 0.84186 0.0
C2162 C 0.19607 0.60506 0.83893 0.0
C2163 C 0.20464 0.65209 0.86506 0.0
N2164 N 0.24144 0.56927 0.83995 0.0
N2165 N 0.22814 0.63848 0.86321 0.0
H2166 H 0.72656 0.28765 0.88114 0.0
H2167 H 0.55011 0.14781 0.83066 0.0
H2168 H 0.73538 0.25322 0.83172 0.0
H2169 H 0.54679 0.20655 0.874 0.0
H2170 H 0.61696 0.19304 0.82777 0.0
H2171 H 0.66058 0.26535 0.87635 0.0
C2172 C 0.71454 0.2756 0.86921 0.0
C2173 C 0.73613 0.2716 0.85692 0.0
C2174 C 0.60122 0.19708 0.83746 0.0
C2175 C 0.6604 0.2454 0.85135 0.0
C2176 C 0.56301 0.17153 0.83896 0.0
C2177 C 0.54269 0.17441 0.8522 0.0
C2178 C 0.61916 0.22481 0.84962 0.0
C2179 C 0.561 0.20447 0.86315 0.0
C2180 C 0.6769 0.26305 0.86641 0.0
C2181 C 0.71946 0.25646 0.84156 0.0
N2182 N 0.59822 0.22813 0.86177 0.0
N2183 N 0.6823 0.24311 0.83932 0.0
H2184 H 0.34959 0.54559 0.87654 0.0
H2185 H 0.49022 0.7351 0.83117 0.0
H2186 H 0.41159 0.54926 0.8331 0.0
H2187 H 0.45179 0.72429 0.88164 0.0
H2188 H 0.44666 0.66815 0.82697 0.0
H2189 H 0.36932 0.61113 0.87279 0.0
C2190 C 0.36546 0.5597 0.86557 0.0
C2191 C 0.37755 0.54162 0.85467 0.0
C2192 C 0.44739 0.68068 0.83885 0.0
C2193 C 0.40346 0.61777 0.8512 0.0
C2194 C 0.47214 0.71877 0.84125 0.0
C2195 C 0.475 0.73492 0.85688 0.0
C2196 C 0.42504 0.65901 0.85209 0.0
C2197 C 0.45095 0.71271 0.86951 0.0
C2198 C 0.3776 0.59745 0.86368 0.0
C2199 C 0.40078 0.56206 0.84146 0.0
N2200 N 0.42717 0.67587 0.86687 0.0
N2201 N 0.41356 0.59934 0.84022 0.0
H2202 H 0.7324 0.45013 0.88113 0.0
H2203 H 0.87456 0.41261 0.83306 0.0
H2204 H 0.76916 0.49257 0.83177 0.0
H2205 H 0.81399 0.35163 0.8763 0.0
H2206 H 0.82964 0.43441 0.82935 0.0
H2207 H 0.75501 0.4065 0.87716 0.0
C2208 C 0.74505 0.45 0.86939 0.0
C2209 C 0.74961 0.47534 0.85687 0.0
C2210 C 0.82517 0.41485 0.8392 0.0
C2211 C 0.7762 0.42589 0.85226 0.0
C2212 C 0.85056 0.40212 0.84118 0.0
C2213 C 0.84697 0.3791 0.85461 0.0
C2214 C 0.79691 0.4053 0.85108 0.0
C2215 C 0.81658 0.36777 0.86532 0.0
C2216 C 0.75778 0.42493 0.86706 0.0
C2217 C 0.76549 0.47359 0.84177 0.0
N2218 N 0.79305 0.38134 0.86347 0.0
N2219 N 0.77902 0.44983 0.83999 0.0
H2220 H 0.14659 0.54663 0.67632 0.0
H2221 H 0.28939 0.72058 0.62814 0.0
H2222 H 0.21591 0.54159 0.63781 0.0
H2223 H 0.25425 0.73047 0.67727 0.0
H2224 H 0.26894 0.6552 0.63364 0.0
H2225 H 0.19192 0.6129 0.6802 0.0
C2226 C 0.17242 0.55906 0.66934 0.0
C2227 C 0.17792 0.53868 0.65692 0.0
C2228 C 0.26622 0.67171 0.64336 0.0
C2229 C 0.22861 0.61459 0.66052 0.0
C2230 C 0.27759 0.70894 0.64015 0.0
C2231 C 0.27271 0.73055 0.65214 0.0
C2232 C 0.24883 0.65567 0.65852 0.0
C2233 C 0.25804 0.71446 0.66763 0.0
C2234 C 0.19809 0.59698 0.6714 0.0
C2235 C 0.21109 0.55625 0.64776 0.0
N2236 N 0.24574 0.67765 0.67026 0.0
N2237 N 0.23475 0.59344 0.64944 0.0
H2238 H 0.5733 0.2886 0.6275 0.0
H2239 H 0.60519 0.1415 0.67509 0.0
H2240 H 0.52528 0.2467 0.67562 0.0
H2241 H 0.66612 0.20128 0.63169 0.0
H2242 H 0.58437 0.18719 0.67886 0.0
H2243 H 0.61618 0.26519 0.63179 0.0
C2244 C 0.5721 0.27471 0.63906 0.0
C2245 C 0.54539 0.26889 0.6511 0.0
C2246 C 0.60367 0.19128 0.66894 0.0
C2247 C 0.59382 0.2412 0.65603 0.0
C2248 C 0.61583 0.16544 0.66692 0.0
C2249 C 0.63864 0.16866 0.65346 0.0
C2250 C 0.61362 0.21967 0.65709 0.0
C2251 C 0.65014 0.19896 0.64269 0.0
C2252 C 0.59668 0.26145 0.64157 0.0
C2253 C 0.54538 0.25139 0.66599 0.0
N2254 N 0.63722 0.22301 0.64462 0.0
N2255 N 0.56868 0.23733 0.6679 0.0
H2256 H 0.48564 0.5966 0.67726 0.0
H2257 H 0.28256 0.56269 0.6564 0.0
H2258 H 0.461 0.65166 0.63822 0.0
H2259 H 0.30387 0.48327 0.68157 0.0
H2260 H 0.34923 0.60842 0.65761 0.0
H2261 H 0.42075 0.56856 0.68686 0.0
C2262 C 0.46715 0.60457 0.67136 0.0
C2263 C 0.47905 0.62789 0.65743 0.0
C2264 C 0.33917 0.58118 0.66312 0.0
C2265 C 0.4048 0.59492 0.66778 0.0
C2266 C 0.3011 0.55506 0.66245 0.0
C2267 C 0.2877 0.51885 0.6686 0.0
C2268 C 0.36397 0.5711 0.67009 0.0
C2269 C 0.31309 0.51063 0.67638 0.0
C2270 C 0.43007 0.5882 0.67667 0.0
C2271 C 0.45358 0.63581 0.64962 0.0
N2272 N 0.35007 0.53641 0.67674 0.0
N2273 N 0.41758 0.61913 0.65479 0.0
H2274 H 0.76169 0.28015 0.67696 0.0
H2275 H 0.81033 0.4696 0.63163 0.0
H2276 H 0.73264 0.29076 0.62672 0.0
H2277 H 0.86974 0.46555 0.67459 0.0
H2278 H 0.76402 0.40424 0.63564 0.0
H2279 H 0.78516 0.34711 0.68119 0.0
C2280 C 0.75961 0.29644 0.66694 0.0
C2281 C 0.74595 0.28024 0.65136 0.0
C2282 C 0.78636 0.41783 0.64459 0.0
C2283 C 0.77202 0.35617 0.65618 0.0
C2284 C 0.81227 0.45548 0.64256 0.0
C2285 C 0.84293 0.47336 0.65323 0.0
C2286 C 0.79202 0.39743 0.65699 0.0
C2287 C 0.84582 0.4529 0.6664 0.0
C2288 C 0.773 0.33453 0.66936 0.0
C2289 C 0.74368 0.30238 0.63881 0.0
N2290 N 0.82099 0.41573 0.66778 0.0
N2291 N 0.75683 0.33924 0.64146 0.0
H2292 H 0.44197 0.71471 0.62729 0.0
H2293 H 0.40763 0.86062 0.67457 0.0
H2294 H 0.48739 0.75602 0.67586 0.0
H2295 H 0.35121 0.80423 0.6298 0.0
H2296 H 0.42699 0.81393 0.67869 0.0
H2297 H 0.39879 0.73796 0.631 0.0
C2298 C 0.44257 0.72844 0.63882 0.0
C2299 C 0.4687 0.73419 0.65114 0.0
C2300 C 0.40895 0.81079 0.66836 0.0
C2301 C 0.41982 0.76158 0.65543 0.0
C2302 C 0.39759 0.83718 0.66614 0.0
C2303 C 0.37663 0.83529 0.65218 0.0
C2304 C 0.40012 0.78321 0.65621 0.0
C2305 C 0.36588 0.8056 0.64112 0.0
C2306 C 0.41779 0.7416 0.64099 0.0
C2307 C 0.46785 0.75144 0.66598 0.0
N2308 N 0.37808 0.78102 0.64325 0.0
N2309 N 0.44435 0.76532 0.66758 0.0
H2310 H 0.54642 0.34816 0.63095 0.0
H2311 H 0.73477 0.4899 0.67683 0.0
H2312 H 0.54856 0.41001 0.67417 0.0
H2313 H 0.72501 0.45076 0.62654 0.0
H2314 H 0.66771 0.44622 0.68085 0.0
H2315 H 0.61196 0.36835 0.63503 0.0
C2316 C 0.5602 0.3641 0.64195 0.0
C2317 C 0.54167 0.37594 0.6527 0.0
C2318 C 0.6805 0.44684 0.66905 0.0
C2319 C 0.61787 0.40248 0.65653 0.0
C2320 C 0.71863 0.47165 0.66675 0.0
C2321 C 0.73508 0.47433 0.65122 0.0
C2322 C 0.65912 0.42425 0.6558 0.0
C2323 C 0.71317 0.45008 0.63859 0.0
C2324 C 0.59796 0.37652 0.64403 0.0
C2325 C 0.56172 0.39936 0.66594 0.0
N2326 N 0.6763 0.42624 0.64113 0.0
N2327 N 0.59904 0.41244 0.66735 0.0
loop_
_geom_bond_atom_site_label_1
_geom_bond_atom_site_label_2
_geom_bond_distance
_geom_bond_site_symmetry_2
_ccdc_geom_bond_type
Zn0 N4 2.020 . S
Zn0 O8 2.019 . S
Zn0 N10 2.119 . S
Zn0 O18 1.975 . S
C1 N2 1.334 . S
C1 N5 1.336 . S
N2 C1 1.334 . S
N2 C3 1.334 . S
C3 N2 1.334 . S
C3 N4 1.336 . S
N4 Zn0 2.020 . S
N4 C3 1.336 . S
N4 N5 1.354 . S
N5 C1 1.336 . S
N5 N4 1.354 . S
N5 Zn9 2.020 . S
C6 O7 1.244 . S
C6 O30 1.257 . S
O7 C6 1.244 . S
O8 Zn0 2.019 . S
O8 C28 1.257 . S
Zn9 N5 2.020 . S
Zn9 O16 1.975 . S
Zn9 N25 2.119 . S
Zn9 O30 2.019 . S
N10 Zn0 2.119 . S
N10 C12 1.334 . S
N10 C13 1.328 . S
C11 C12 1.391 . S
C11 N14 1.329 . S
C11 H32 0.930 . S
C12 N10 1.334 . S
C12 C11 1.391 . S
C12 H19 0.930 . S
C13 N10 1.328 . S
C13 C15 1.392 . S
C13 H20 0.930 . S
N14 C11 1.329 . S
N14 C15 1.331 . S
C15 C13 1.392 . S
C15 N14 1.331 . S
O16 Zn9 1.975 . S
O16 C17 1.252 . S
C17 O16 1.252 . S
C17 O18 1.252 . S
O18 Zn0 1.975 . S
O18 C17 1.252 . S
H19 C12 0.930 . S
H20 C13 0.930 . S
C21 C22 1.392 . S
C21 N25 1.328 . S
C21 H27 0.930 . S
C22 C21 1.392 . S
C22 N26 1.331 . S
C23 C24 1.391 . S
C23 N26 1.329 . S
C23 H33 0.930 . S
C24 C23 1.391 . S
C24 N25 1.334 . S
C24 H31 0.930 . S
N25 Zn9 2.119 . S
N25 C21 1.328 . S
N25 C24 1.334 . S
N26 C22 1.331 . S
N26 C23 1.329 . S
H27 C21 0.930 . S
C28 O8 1.257 . S
C28 O29 1.244 . S
O29 C28 1.244 . S
O30 C6 1.257 . S
O30 Zn9 2.019 . S
H31 C24 0.930 . S
H32 C11 0.930 . S
H33 C23 0.930 . S
Zn34 N38 2.020 . S
Zn34 O42 2.019 . S
Zn34 N44 2.119 . S
Zn34 O52 1.975 . S
C35 N36 1.334 . S
C35 N39 1.336 . S
N36 C35 1.334 . S
N36 C37 1.334 . S
C37 N36 1.334 . S
C37 N38 1.336 . S
N38 Zn34 2.020 . S
N38 C37 1.336 . S
N38 N39 1.354 . S
N39 C35 1.336 . S
N39 N38 1.354 . S
N39 Zn43 2.020 . S
C40 O41 1.244 . S
C40 O64 1.257 . S
O41 C40 1.244 . S
O42 Zn34 2.019 . S
O42 C62 1.257 . S
Zn43 N39 2.020 . S
Zn43 O50 1.975 . S
Zn43 N59 2.119 . S
Zn43 O64 2.019 . S
N44 Zn34 2.119 . S
N44 C46 1.334 . S
N44 C47 1.328 . S
C45 C46 1.391 . S
C45 N48 1.329 . S
C45 H66 0.930 . S
C46 N44 1.334 . S
C46 C45 1.391 . S
C46 H53 0.930 . S
C47 N44 1.328 . S
C47 C49 1.392 . S
C47 H54 0.930 . S
N48 C45 1.329 . S
N48 C49 1.331 . S
C49 C47 1.392 . S
C49 N48 1.331 . S
O50 Zn43 1.975 . S
O50 C51 1.252 . S
C51 O50 1.252 . S
C51 O52 1.252 . S
O52 Zn34 1.975 . S
O52 C51 1.252 . S
H53 C46 0.930 . S
H54 C47 0.930 . S
C55 C56 1.392 . S
C55 N59 1.328 . S
C55 H61 0.930 . S
C56 C55 1.392 . S
C56 N60 1.331 . S
C57 C58 1.391 . S
C57 N60 1.329 . S
C57 H67 0.930 . S
C58 C57 1.391 . S
C58 N59 1.334 . S
C58 H65 0.930 . S
N59 Zn43 2.119 . S
N59 C55 1.328 . S
N59 C58 1.334 . S
N60 C56 1.331 . S
N60 C57 1.329 . S
H61 C55 0.930 . S
C62 O42 1.257 . S
C62 O63 1.244 . S
O63 C62 1.244 . S
O64 C40 1.257 . S
O64 Zn43 2.019 . S
H65 C58 0.930 . S
H66 C45 0.930 . S
H67 C57 0.930 . S
Zn68 N72 2.020 . S
Zn68 O76 2.019 . S
Zn68 N78 2.119 . S
Zn68 O86 1.975 . S
C69 N70 1.334 . S
C69 N73 1.336 . S
N70 C69 1.334 . S
N70 C71 1.334 . S
C71 N70 1.334 . S
C71 N72 1.336 . S
N72 Zn68 2.020 . S
N72 C71 1.336 . S
N72 N73 1.354 . S
N73 C69 1.336 . S
N73 N72 1.354 . S
N73 Zn77 2.020 . S
C74 O75 1.244 . S
C74 O98 1.257 . S
O75 C74 1.244 . S
O76 Zn68 2.019 . S
O76 C96 1.257 . S
Zn77 N73 2.020 . S
Zn77 O84 1.975 . S
Zn77 N93 2.119 . S
Zn77 O98 2.019 . S
N78 Zn68 2.119 . S
N78 C80 1.334 . S
N78 C81 1.328 . S
C79 C80 1.391 . S
C79 N82 1.329 . S
C79 H100 0.930 . S
C80 N78 1.334 . S
C80 C79 1.391 . S
C80 H87 0.930 . S
C81 N78 1.328 . S
C81 C83 1.392 . S
C81 H88 0.930 . S
N82 C79 1.329 . S
N82 C83 1.331 . S
C83 C81 1.392 . S
C83 N82 1.331 . S
O84 Zn77 1.975 . S
O84 C85 1.252 . S
C85 O84 1.252 . S
C85 O86 1.252 . S
O86 Zn68 1.975 . S
O86 C85 1.252 . S
H87 C80 0.930 . S
H88 C81 0.930 . S
C89 C90 1.392 . S
C89 N93 1.328 . S
C89 H95 0.930 . S
C90 C89 1.392 . S
C90 N94 1.331 . S
C91 C92 1.391 . S
C91 N94 1.329 . S
C91 H101 0.930 . S
C92 C91 1.391 . S
C92 N93 1.334 . S
C92 H99 0.930 . S
N93 Zn77 2.119 . S
N93 C89 1.328 . S
N93 C92 1.334 . S
N94 C90 1.331 . S
N94 C91 1.329 . S
H95 C89 0.930 . S
C96 O76 1.257 . S
C96 O97 1.244 . S
O97 C96 1.244 . S
O98 C74 1.257 . S
O98 Zn77 2.019 . S
H99 C92 0.930 . S
H100 C79 0.930 . S
H101 C91 0.930 . S
Zn102 N106 2.020 . S
Zn102 O110 2.019 . S
Zn102 N112 2.119 . S
Zn102 O120 1.975 . S
C103 N104 1.334 . S
C103 N107 1.336 . S
N104 C103 1.334 . S
N104 C105 1.334 . S
C105 N104 1.334 . S
C105 N106 1.336 . S
N106 Zn102 2.020 . S
N106 C105 1.336 . S
N106 N107 1.354 . S
N107 C103 1.336 . S
N107 N106 1.354 . S
N107 Zn111 2.020 . S
C108 O109 1.244 . S
C108 O132 1.257 . S
O109 C108 1.244 . S
O110 Zn102 2.019 . S
O110 C130 1.257 . S
Zn111 N107 2.020 . S
Zn111 O118 1.975 . S
Zn111 N127 2.119 . S
Zn111 O132 2.019 . S
N112 Zn102 2.119 . S
N112 C114 1.334 . S
N112 C115 1.328 . S
C113 C114 1.391 . S
C113 N116 1.329 . S
C113 H134 0.930 . S
C114 N112 1.334 . S
C114 C113 1.391 . S
C114 H121 0.930 . S
C115 N112 1.328 . S
C115 C117 1.392 . S
C115 H122 0.930 . S
N116 C113 1.329 . S
N116 C117 1.331 . S
C117 C115 1.392 . S
C117 N116 1.331 . S
O118 Zn111 1.975 . S
O118 C119 1.252 . S
C119 O118 1.252 . S
C119 O120 1.252 . S
O120 Zn102 1.975 . S
O120 C119 1.252 . S
H121 C114 0.930 . S
H122 C115 0.930 . S
C123 C124 1.392 . S
C123 N127 1.328 . S
C123 H129 0.930 . S
C124 C123 1.392 . S
C124 N128 1.331 . S
C125 C126 1.391 . S
C125 N128 1.329 . S
C125 H135 0.930 . S
C126 C125 1.391 . S
C126 N127 1.334 . S
C126 H133 0.930 . S
N127 Zn111 2.119 . S
N127 C123 1.328 . S
N127 C126 1.334 . S
N128 C124 1.331 . S
N128 C125 1.329 . S
H129 C123 0.930 . S
C130 O110 1.257 . S
C130 O131 1.244 . S
O131 C130 1.244 . S
O132 C108 1.257 . S
O132 Zn111 2.019 . S
H133 C126 0.930 . S
H134 C113 0.930 . S
H135 C125 0.930 . S
Zn136 N140 2.020 . S
Zn136 O144 2.019 . S
Zn136 N146 2.119 . S
Zn136 O154 1.975 . S
C137 N138 1.334 . S
C137 N141 1.336 . S
N138 C137 1.334 . S
N138 C139 1.334 . S
C139 N138 1.334 . S
C139 N140 1.336 . S
N140 Zn136 2.020 . S
N140 C139 1.336 . S
N140 N141 1.354 . S
N141 C137 1.336 . S
N141 N140 1.354 . S
N141 Zn145 2.020 . S
C142 O143 1.244 . S
C142 O166 1.257 . S
O143 C142 1.244 . S
O144 Zn136 2.019 . S
O144 C164 1.257 . S
Zn145 N141 2.020 . S
Zn145 O152 1.975 . S
Zn145 N161 2.119 . S
Zn145 O166 2.019 . S
N146 Zn136 2.119 . S
N146 C148 1.334 . S
N146 C149 1.328 . S
C147 C148 1.391 . S
C147 N150 1.329 . S
C147 H168 0.930 . S
C148 N146 1.334 . S
C148 C147 1.391 . S
C148 H155 0.930 . S
C149 N146 1.328 . S
C149 C151 1.392 . S
C149 H156 0.930 . S
N150 C147 1.329 . S
N150 C151 1.331 . S
C151 C149 1.392 . S
C151 N150 1.331 . S
O152 Zn145 1.975 . S
O152 C153 1.252 . S
C153 O152 1.252 . S
C153 O154 1.252 . S
O154 Zn136 1.975 . S
O154 C153 1.252 . S
H155 C148 0.930 . S
H156 C149 0.930 . S
C157 C158 1.392 . S
C157 N161 1.328 . S
C157 H163 0.930 . S
C158 C157 1.392 . S
C158 N162 1.331 . S
C159 C160 1.391 . S
C159 N162 1.329 . S
C159 H169 0.930 . S
C160 C159 1.391 . S
C160 N161 1.334 . S
C160 H167 0.930 . S
N161 Zn145 2.119 . S
N161 C157 1.328 . S
N161 C160 1.334 . S
N162 C158 1.331 . S
N162 C159 1.329 . S
H163 C157 0.930 . S
C164 O144 1.257 . S
C164 O165 1.244 . S
O165 C164 1.244 . S
O166 C142 1.257 . S
O166 Zn145 2.019 . S
H167 C160 0.930 . S
H168 C147 0.930 . S
H169 C159 0.930 . S
Zn170 N174 2.020 . S
Zn170 O178 2.019 . S
Zn170 N180 2.119 . S
Zn170 O188 1.975 . S
C171 N172 1.334 . S
C171 N175 1.336 . S
N172 C171 1.334 . S
N172 C173 1.334 . S
C173 N172 1.334 . S
C173 N174 1.336 . S
N174 Zn170 2.020 . S
N174 C173 1.336 . S
N174 N175 1.354 . S
N175 C171 1.336 . S
N175 N174 1.354 . S
N175 Zn179 2.020 . S
C176 O177 1.244 . S
C176 O200 1.257 . S
O177 C176 1.244 . S
O178 Zn170 2.019 . S
O178 C198 1.257 . S
Zn179 N175 2.020 . S
Zn179 O186 1.975 . S
Zn179 N195 2.119 . S
Zn179 O200 2.019 . S
N180 Zn170 2.119 . S
N180 C182 1.334 . S
N180 C183 1.328 . S
C181 C182 1.391 . S
C181 N184 1.329 . S
C181 H202 0.930 . S
C182 N180 1.334 . S
C182 C181 1.391 . S
C182 H189 0.930 . S
C183 N180 1.328 . S
C183 C185 1.392 . S
C183 H190 0.930 . S
N184 C181 1.329 . S
N184 C185 1.331 . S
C185 C183 1.392 . S
C185 N184 1.331 . S
O186 Zn179 1.975 . S
O186 C187 1.252 . S
C187 O186 1.252 . S
C187 O188 1.252 . S
O188 Zn170 1.975 . S
O188 C187 1.252 . S
H189 C182 0.930 . S
H190 C183 0.930 . S
C191 C192 1.392 . S
C191 N195 1.328 . S
C191 H197 0.930 . S
C192 C191 1.392 . S
C192 N196 1.331 . S
C193 C194 1.391 . S
C193 N196 1.329 . S
C193 H203 0.930 . S
C194 C193 1.391 . S
C194 N195 1.334 . S
C194 H201 0.930 . S
N195 Zn179 2.119 . S
N195 C191 1.328 . S
N195 C194 1.334 . S
N196 C192 1.331 . S
N196 C193 1.329 . S
H197 C191 0.930 . S
C198 O178 1.257 . S
C198 O199 1.244 . S
O199 C198 1.244 . S
O200 C176 1.257 . S
O200 Zn179 2.019 . S
H201 C194 0.930 . S
H202 C181 0.930 . S
H203 C193 0.930 . S
Zn204 N208 2.020 . S
Zn204 O212 2.019 . S
Zn204 N214 2.119 . S
Zn204 O222 1.975 . S
C205 N206 1.334 . S
C205 N209 1.336 . S
N206 C205 1.334 . S
N206 C207 1.334 . S
C207 N206 1.334 . S
C207 N208 1.336 . S
N208 Zn204 2.020 . S
N208 C207 1.336 . S
N208 N209 1.354 . S
N209 C205 1.336 . S
N209 N208 1.354 . S
N209 Zn213 2.020 . S
C210 O211 1.244 . S
C210 O234 1.257 . S
O211 C210 1.244 . S
O212 Zn204 2.019 . S
O212 C232 1.257 . S
Zn213 N209 2.020 . S
Zn213 O220 1.975 . S
Zn213 N229 2.119 . S
Zn213 O234 2.019 . S
N214 Zn204 2.119 . S
N214 C216 1.334 . S
N214 C217 1.328 . S
C215 C216 1.391 . S
C215 N218 1.329 . S
C215 H236 0.930 . S
C216 N214 1.334 . S
C216 C215 1.391 . S
C216 H223 0.930 . S
C217 N214 1.328 . S
C217 C219 1.392 . S
C217 H224 0.930 . S
N218 C215 1.329 . S
N218 C219 1.331 . S
C219 C217 1.392 . S
C219 N218 1.331 . S
O220 Zn213 1.975 . S
O220 C221 1.252 . S
C221 O220 1.252 . S
C221 O222 1.252 . S
O222 Zn204 1.975 . S
O222 C221 1.252 . S
H223 C216 0.930 . S
H224 C217 0.930 . S
C225 C226 1.392 . S
C225 N229 1.328 . S
C225 H231 0.930 . S
C226 C225 1.392 . S
C226 N230 1.331 . S
C227 C228 1.391 . S
C227 N230 1.329 . S
C227 H237 0.930 . S
C228 C227 1.391 . S
C228 N229 1.334 . S
C228 H235 0.930 . S
N229 Zn213 2.119 . S
N229 C225 1.328 . S
N229 C228 1.334 . S
N230 C226 1.331 . S
N230 C227 1.329 . S
H231 C225 0.930 . S
C232 O212 1.257 . S
C232 O233 1.244 . S
O233 C232 1.244 . S
O234 C210 1.257 . S
O234 Zn213 2.019 . S
H235 C228 0.930 . S
H236 C215 0.930 . S
H237 C227 0.930 . S
Zn238 N242 2.020 . S
Zn238 O246 2.019 . S
Zn238 N248 2.119 . S
Zn238 O256 1.975 . S
C239 N240 1.334 . S
C239 N243 1.336 . S
N240 C239 1.334 . S
N240 C241 1.334 . S
C241 N240 1.334 . S
C241 N242 1.336 . S
N242 Zn238 2.020 . S
N242 C241 1.336 . S
N242 N243 1.354 . S
N243 C239 1.336 . S
N243 N242 1.354 . S
N243 Zn247 2.020 . S
C244 O245 1.244 . S
C244 O268 1.257 . S
O245 C244 1.244 . S
O246 Zn238 2.019 . S
O246 C266 1.257 . S
Zn247 N243 2.020 . S
Zn247 O254 1.975 . S
Zn247 N263 2.119 . S
Zn247 O268 2.019 . S
N248 Zn238 2.119 . S
N248 C250 1.334 . S
N248 C251 1.328 . S
C249 C250 1.391 . S
C249 N252 1.329 . S
C249 H270 0.930 . S
C250 N248 1.334 . S
C250 C249 1.391 . S
C250 H257 0.930 . S
C251 N248 1.328 . S
C251 C253 1.392 . S
C251 H258 0.930 . S
N252 C249 1.329 . S
N252 C253 1.331 . S
C253 C251 1.392 . S
C253 N252 1.331 . S
O254 Zn247 1.975 . S
O254 C255 1.252 . S
C255 O254 1.252 . S
C255 O256 1.252 . S
O256 Zn238 1.975 . S
O256 C255 1.252 . S
H257 C250 0.930 . S
H258 C251 0.930 . S
C259 C260 1.392 . S
C259 N263 1.328 . S
C259 H265 0.930 . S
C260 C259 1.392 . S
C260 N264 1.331 . S
C261 C262 1.391 . S
C261 N264 1.329 . S
C261 H271 0.930 . S
C262 C261 1.391 . S
C262 N263 1.334 . S
C262 H269 0.930 . S
N263 Zn247 2.119 . S
N263 C259 1.328 . S
N263 C262 1.334 . S
N264 C260 1.331 . S
N264 C261 1.329 . S
H265 C259 0.930 . S
C266 O246 1.257 . S
C266 O267 1.244 . S
O267 C266 1.244 . S
O268 C244 1.257 . S
O268 Zn247 2.019 . S
H269 C262 0.930 . S
H270 C249 0.930 . S
H271 C261 0.930 . S
Zn272 N276 2.020 . S
Zn272 O280 2.019 . S
Zn272 N282 2.119 . S
Zn272 O290 1.975 . S
C273 N274 1.334 . S
C273 N277 1.336 . S
N274 C273 1.334 . S
N274 C275 1.334 . S
C275 N274 1.334 . S
C275 N276 1.336 . S
N276 Zn272 2.020 . S
N276 C275 1.336 . S
N276 N277 1.354 . S
N277 C273 1.336 . S
N277 N276 1.354 . S
N277 Zn281 2.020 . S
C278 O279 1.244 . S
C278 O302 1.257 . S
O279 C278 1.244 . S
O280 Zn272 2.019 . S
O280 C300 1.257 . S
Zn281 N277 2.020 . S
Zn281 O288 1.975 . S
Zn281 N297 2.119 . S
Zn281 O302 2.019 . S
N282 Zn272 2.119 . S
N282 C284 1.334 . S
N282 C285 1.328 . S
C283 C284 1.391 . S
C283 N286 1.329 . S
C283 H304 0.930 . S
C284 N282 1.334 . S
C284 C283 1.391 . S
C284 H291 0.930 . S
C285 N282 1.328 . S
C285 C287 1.392 . S
C285 H292 0.930 . S
N286 C283 1.329 . S
N286 C287 1.331 . S
C287 C285 1.392 . S
C287 N286 1.331 . S
O288 Zn281 1.975 . S
O288 C289 1.252 . S
C289 O288 1.252 . S
C289 O290 1.252 . S
O290 Zn272 1.975 . S
O290 C289 1.252 . S
H291 C284 0.930 . S
H292 C285 0.930 . S
C293 C294 1.392 . S
C293 N297 1.328 . S
C293 H299 0.930 . S
C294 C293 1.392 . S
C294 N298 1.331 . S
C295 C296 1.391 . S
C295 N298 1.329 . S
C295 H305 0.930 . S
C296 C295 1.391 . S
C296 N297 1.334 . S
C296 H303 0.930 . S
N297 Zn281 2.119 . S
N297 C293 1.328 . S
N297 C296 1.334 . S
N298 C294 1.331 . S
N298 C295 1.329 . S
H299 C293 0.930 . S
C300 O280 1.257 . S
C300 O301 1.244 . S
O301 C300 1.244 . S
O302 C278 1.257 . S
O302 Zn281 2.019 . S
H303 C296 0.930 . S
H304 C283 0.930 . S
H305 C295 0.930 . S
Zn306 N310 2.020 . S
Zn306 O314 2.019 . S
Zn306 N316 2.119 . S
Zn306 O324 1.975 . S
C307 N308 1.334 . S
C307 N311 1.336 . S
N308 C307 1.334 . S
N308 C309 1.334 . S
C309 N308 1.334 . S
C309 N310 1.336 . S
N310 Zn306 2.020 . S
N310 C309 1.336 . S
N310 N311 1.354 . S
N311 C307 1.336 . S
N311 N310 1.354 . S
N311 Zn315 2.020 . S
C312 O313 1.244 . S
C312 O336 1.257 . S
O313 C312 1.244 . S
O314 Zn306 2.019 . S
O314 C334 1.257 . S
Zn315 N311 2.020 . S
Zn315 O322 1.975 . S
Zn315 N331 2.119 . S
Zn315 O336 2.019 . S
N316 Zn306 2.119 . S
N316 C318 1.334 . S
N316 C319 1.328 . S
C317 C318 1.391 . S
C317 N320 1.329 . S
C317 H338 0.930 . S
C318 N316 1.334 . S
C318 C317 1.391 . S
C318 H325 0.930 . S
C319 N316 1.328 . S
C319 C321 1.392 . S
C319 H326 0.930 . S
N320 C317 1.329 . S
N320 C321 1.331 . S
C321 C319 1.392 . S
C321 N320 1.331 . S
O322 Zn315 1.975 . S
O322 C323 1.252 . S
C323 O322 1.252 . S
C323 O324 1.252 . S
O324 Zn306 1.975 . S
O324 C323 1.252 . S
H325 C318 0.930 . S
H326 C319 0.930 . S
C327 C328 1.392 . S
C327 N331 1.328 . S
C327 H333 0.930 . S
C328 C327 1.392 . S
C328 N332 1.331 . S
C329 C330 1.391 . S
C329 N332 1.329 . S
C329 H339 0.930 . S
C330 C329 1.391 . S
C330 N331 1.334 . S
C330 H337 0.930 . S
N331 Zn315 2.119 . S
N331 C327 1.328 . S
N331 C330 1.334 . S
N332 C328 1.331 . S
N332 C329 1.329 . S
H333 C327 0.930 . S
C334 O314 1.257 . S
C334 O335 1.244 . S
O335 C334 1.244 . S
O336 C312 1.257 . S
O336 Zn315 2.019 . S
H337 C330 0.930 . S
H338 C317 0.930 . S
H339 C329 0.930 . S
Zn340 N344 2.020 . S
Zn340 O348 2.019 . S
Zn340 N350 2.119 . S
Zn340 O358 1.975 . S
C341 N342 1.334 . S
C341 N345 1.336 . S
N342 C341 1.334 . S
N342 C343 1.334 . S
C343 N342 1.334 . S
C343 N344 1.336 . S
N344 Zn340 2.020 . S
N344 C343 1.336 . S
N344 N345 1.354 . S
N345 C341 1.336 . S
N345 N344 1.354 . S
N345 Zn349 2.020 . S
C346 O347 1.244 . S
C346 O370 1.257 . S
O347 C346 1.244 . S
O348 Zn340 2.019 . S
O348 C368 1.257 . S
Zn349 N345 2.020 . S
Zn349 O356 1.975 . S
Zn349 N365 2.119 . S
Zn349 O370 2.019 . S
N350 Zn340 2.119 . S
N350 C352 1.334 . S
N350 C353 1.328 . S
C351 C352 1.391 . S
C351 N354 1.329 . S
C351 H372 0.930 . S
C352 N350 1.334 . S
C352 C351 1.391 . S
C352 H359 0.930 . S
C353 N350 1.328 . S
C353 C355 1.392 . S
C353 H360 0.930 . S
N354 C351 1.329 . S
N354 C355 1.331 . S
C355 C353 1.392 . S
C355 N354 1.331 . S
O356 Zn349 1.975 . S
O356 C357 1.252 . S
C357 O356 1.252 . S
C357 O358 1.252 . S
O358 Zn340 1.975 . S
O358 C357 1.252 . S
H359 C352 0.930 . S
H360 C353 0.930 . S
C361 C362 1.392 . S
C361 N365 1.328 . S
C361 H367 0.930 . S
C362 C361 1.392 . S
C362 N366 1.331 . S
C363 C364 1.391 . S
C363 N366 1.329 . S
C363 H373 0.930 . S
C364 C363 1.391 . S
C364 N365 1.334 . S
C364 H371 0.930 . S
N365 Zn349 2.119 . S
N365 C361 1.328 . S
N365 C364 1.334 . S
N366 C362 1.331 . S
N366 C363 1.329 . S
H367 C361 0.930 . S
C368 O348 1.257 . S
C368 O369 1.244 . S
O369 C368 1.244 . S
O370 C346 1.257 . S
O370 Zn349 2.019 . S
H371 C364 0.930 . S
H372 C351 0.930 . S
H373 C363 0.930 . S
Zn374 N378 2.020 . S
Zn374 O382 2.019 . S
Zn374 N384 2.119 . S
Zn374 O392 1.975 . S
C375 N376 1.334 . S
C375 N379 1.336 . S
N376 C375 1.334 . S
N376 C377 1.334 . S
C377 N376 1.334 . S
C377 N378 1.336 . S
N378 Zn374 2.020 . S
N378 C377 1.336 . S
N378 N379 1.354 . S
N379 C375 1.336 . S
N379 N378 1.354 . S
N379 Zn383 2.020 . S
C380 O381 1.244 . S
C380 O404 1.257 . S
O381 C380 1.244 . S
O382 Zn374 2.019 . S
O382 C402 1.257 . S
Zn383 N379 2.020 . S
Zn383 O390 1.975 . S
Zn383 N399 2.119 . S
Zn383 O404 2.019 . S
N384 Zn374 2.119 . S
N384 C386 1.334 . S
N384 C387 1.328 . S
C385 C386 1.391 . S
C385 N388 1.329 . S
C385 H406 0.930 . S
C386 N384 1.334 . S
C386 C385 1.391 . S
C386 H393 0.930 . S
C387 N384 1.328 . S
C387 C389 1.392 . S
C387 H394 0.930 . S
N388 C385 1.329 . S
N388 C389 1.331 . S
C389 C387 1.392 . S
C389 N388 1.331 . S
O390 Zn383 1.975 . S
O390 C391 1.252 . S
C391 O390 1.252 . S
C391 O392 1.252 . S
O392 Zn374 1.975 . S
O392 C391 1.252 . S
H393 C386 0.930 . S
H394 C387 0.930 . S
C395 C396 1.392 . S
C395 N399 1.328 . S
C395 H401 0.930 . S
C396 C395 1.392 . S
C396 N400 1.331 . S
C397 C398 1.391 . S
C397 N400 1.329 . S
C397 H407 0.930 . S
C398 C397 1.391 . S
C398 N399 1.334 . S
C398 H405 0.930 . S
N399 Zn383 2.119 . S
N399 C395 1.328 . S
N399 C398 1.334 . S
N400 C396 1.331 . S
N400 C397 1.329 . S
H401 C395 0.930 . S
C402 O382 1.257 . S
C402 O403 1.244 . S
O403 C402 1.244 . S
O404 C380 1.257 . S
O404 Zn383 2.019 . S
H405 C398 0.930 . S
H406 C385 0.930 . S
H407 C397 0.930 . S
Zn408 N412 2.020 . S
Zn408 O416 2.019 . S
Zn408 N418 2.119 . S
Zn408 O426 1.975 . S
C409 N410 1.334 . S
C409 N413 1.336 . S
N410 C409 1.334 . S
N410 C411 1.334 . S
C411 N410 1.334 . S
C411 N412 1.336 . S
N412 Zn408 2.020 . S
N412 C411 1.336 . S
N412 N413 1.354 . S
N413 C409 1.336 . S
N413 N412 1.354 . S
N413 Zn417 2.020 . S
C414 O415 1.244 . S
C414 O438 1.257 . S
O415 C414 1.244 . S
O416 Zn408 2.019 . S
O416 C436 1.257 . S
Zn417 N413 2.020 . S
Zn417 O424 1.975 . S
Zn417 N433 2.119 . S
Zn417 O438 2.019 . S
N418 Zn408 2.119 . S
N418 C420 1.334 . S
N418 C421 1.328 . S
C419 C420 1.391 . S
C419 N422 1.329 . S
C419 H440 0.930 . S
C420 N418 1.334 . S
C420 C419 1.391 . S
C420 H427 0.930 . S
C421 N418 1.328 . S
C421 C423 1.392 . S
C421 H428 0.930 . S
N422 C419 1.329 . S
N422 C423 1.331 . S
C423 C421 1.392 . S
C423 N422 1.331 . S
O424 Zn417 1.975 . S
O424 C425 1.252 . S
C425 O424 1.252 . S
C425 O426 1.252 . S
O426 Zn408 1.975 . S
O426 C425 1.252 . S
H427 C420 0.930 . S
H428 C421 0.930 . S
C429 C430 1.392 . S
C429 N433 1.328 . S
C429 H435 0.930 . S
C430 C429 1.392 . S
C430 N434 1.331 . S
C431 C432 1.391 . S
C431 N434 1.329 . S
C431 H441 0.930 . S
C432 C431 1.391 . S
C432 N433 1.334 . S
C432 H439 0.930 . S
N433 Zn417 2.119 . S
N433 C429 1.328 . S
N433 C432 1.334 . S
N434 C430 1.331 . S
N434 C431 1.329 . S
H435 C429 0.930 . S
C436 O416 1.257 . S
C436 O437 1.244 . S
O437 C436 1.244 . S
O438 C414 1.257 . S
O438 Zn417 2.019 . S
H439 C432 0.930 . S
H440 C419 0.930 . S
H441 C431 0.930 . S
Zn442 N446 2.020 . S
Zn442 O450 2.019 . S
Zn442 N452 2.119 . S
Zn442 O460 1.975 . S
C443 N444 1.334 . S
C443 N447 1.336 . S
N444 C443 1.334 . S
N444 C445 1.334 . S
C445 N444 1.334 . S
C445 N446 1.336 . S
N446 Zn442 2.020 . S
N446 C445 1.336 . S
N446 N447 1.354 . S
N447 C443 1.336 . S
N447 N446 1.354 . S
N447 Zn451 2.020 . S
C448 O449 1.244 . S
C448 O472 1.257 . S
O449 C448 1.244 . S
O450 Zn442 2.019 . S
O450 C470 1.257 . S
Zn451 N447 2.020 . S
Zn451 O458 1.975 . S
Zn451 N467 2.119 . S
Zn451 O472 2.019 . S
N452 Zn442 2.119 . S
N452 C454 1.334 . S
N452 C455 1.328 . S
C453 C454 1.391 . S
C453 N456 1.329 . S
C453 H474 0.930 . S
C454 N452 1.334 . S
C454 C453 1.391 . S
C454 H461 0.930 . S
C455 N452 1.328 . S
C455 C457 1.392 . S
C455 H462 0.930 . S
N456 C453 1.329 . S
N456 C457 1.331 . S
C457 C455 1.392 . S
C457 N456 1.331 . S
O458 Zn451 1.975 . S
O458 C459 1.252 . S
C459 O458 1.252 . S
C459 O460 1.252 . S
O460 Zn442 1.975 . S
O460 C459 1.252 . S
H461 C454 0.930 . S
H462 C455 0.930 . S
C463 C464 1.392 . S
C463 N467 1.328 . S
C463 H469 0.930 . S
C464 C463 1.392 . S
C464 N468 1.331 . S
C465 C466 1.391 . S
C465 N468 1.329 . S
C465 H475 0.930 . S
C466 C465 1.391 . S
C466 N467 1.334 . S
C466 H473 0.930 . S
N467 Zn451 2.119 . S
N467 C463 1.328 . S
N467 C466 1.334 . S
N468 C464 1.331 . S
N468 C465 1.329 . S
H469 C463 0.930 . S
C470 O450 1.257 . S
C470 O471 1.244 . S
O471 C470 1.244 . S
O472 C448 1.257 . S
O472 Zn451 2.019 . S
H473 C466 0.930 . S
H474 C453 0.930 . S
H475 C465 0.930 . S
Zn476 N480 2.020 . S
Zn476 O484 2.019 . S
Zn476 N486 2.119 . S
Zn476 O494 1.975 . S
C477 N478 1.334 . S
C477 N481 1.336 . S
N478 C477 1.334 . S
N478 C479 1.334 . S
C479 N478 1.334 . S
C479 N480 1.336 . S
N480 Zn476 2.020 . S
N480 C479 1.336 . S
N480 N481 1.354 . S
N481 C477 1.336 . S
N481 N480 1.354 . S
N481 Zn485 2.020 . S
C482 O483 1.244 . S
C482 O506 1.257 . S
O483 C482 1.244 . S
O484 Zn476 2.019 . S
O484 C504 1.257 . S
Zn485 N481 2.020 . S
Zn485 O492 1.975 . S
Zn485 N501 2.119 . S
Zn485 O506 2.019 . S
N486 Zn476 2.119 . S
N486 C488 1.334 . S
N486 C489 1.328 . S
C487 C488 1.391 . S
C487 N490 1.329 . S
C487 H508 0.930 . S
C488 N486 1.334 . S
C488 C487 1.391 . S
C488 H495 0.930 . S
C489 N486 1.328 . S
C489 C491 1.392 . S
C489 H496 0.930 . S
N490 C487 1.329 . S
N490 C491 1.331 . S
C491 C489 1.392 . S
C491 N490 1.331 . S
O492 Zn485 1.975 . S
O492 C493 1.252 . S
C493 O492 1.252 . S
C493 O494 1.252 . S
O494 Zn476 1.975 . S
O494 C493 1.252 . S
H495 C488 0.930 . S
H496 C489 0.930 . S
C497 C498 1.392 . S
C497 N501 1.328 . S
C497 H503 0.930 . S
C498 C497 1.392 . S
C498 N502 1.331 . S
C499 C500 1.391 . S
C499 N502 1.329 . S
C499 H509 0.930 . S
C500 C499 1.391 . S
C500 N501 1.334 . S
C500 H507 0.930 . S
N501 Zn485 2.119 . S
N501 C497 1.328 . S
N501 C500 1.334 . S
N502 C498 1.331 . S
N502 C499 1.329 . S
H503 C497 0.930 . S
C504 O484 1.257 . S
C504 O505 1.244 . S
O505 C504 1.244 . S
O506 C482 1.257 . S
O506 Zn485 2.019 . S
H507 C500 0.930 . S
H508 C487 0.930 . S
H509 C499 0.930 . S
Zn510 N514 2.020 . S
Zn510 O518 2.019 . S
Zn510 N520 2.119 . S
Zn510 O528 1.975 . S
C511 N512 1.334 . S
C511 N515 1.336 . S
N512 C511 1.334 . S
N512 C513 1.334 . S
C513 N512 1.334 . S
C513 N514 1.336 . S
N514 Zn510 2.020 . S
N514 C513 1.336 . S
N514 N515 1.354 . S
N515 C511 1.336 . S
N515 N514 1.354 . S
N515 Zn519 2.020 . S
C516 O517 1.244 . S
C516 O540 1.257 . S
O517 C516 1.244 . S
O518 Zn510 2.019 . S
O518 C538 1.257 . S
Zn519 N515 2.020 . S
Zn519 O526 1.975 . S
Zn519 N535 2.119 . S
Zn519 O540 2.019 . S
N520 Zn510 2.119 . S
N520 C522 1.334 . S
N520 C523 1.328 . S
C521 C522 1.391 . S
C521 N524 1.329 . S
C521 H542 0.930 . S
C522 N520 1.334 . S
C522 C521 1.391 . S
C522 H529 0.930 . S
C523 N520 1.328 . S
C523 C525 1.392 . S
C523 H530 0.930 . S
N524 C521 1.329 . S
N524 C525 1.331 . S
C525 C523 1.392 . S
C525 N524 1.331 . S
O526 Zn519 1.975 . S
O526 C527 1.252 . S
C527 O526 1.252 . S
C527 O528 1.252 . S
O528 Zn510 1.975 . S
O528 C527 1.252 . S
H529 C522 0.930 . S
H530 C523 0.930 . S
C531 C532 1.392 . S
C531 N535 1.328 . S
C531 H537 0.930 . S
C532 C531 1.392 . S
C532 N536 1.331 . S
C533 C534 1.391 . S
C533 N536 1.329 . S
C533 H543 0.930 . S
C534 C533 1.391 . S
C534 N535 1.334 . S
C534 H541 0.930 . S
N535 Zn519 2.119 . S
N535 C531 1.328 . S
N535 C534 1.334 . S
N536 C532 1.331 . S
N536 C533 1.329 . S
H537 C531 0.930 . S
C538 O518 1.257 . S
C538 O539 1.244 . S
O539 C538 1.244 . S
O540 C516 1.257 . S
O540 Zn519 2.019 . S
H541 C534 0.930 . S
H542 C521 0.930 . S
H543 C533 0.930 . S
Zn544 N548 2.020 . S
Zn544 O552 2.019 . S
Zn544 N554 2.119 . S
Zn544 O562 1.975 . S
C545 N546 1.334 . S
C545 N549 1.336 . S
N546 C545 1.334 . S
N546 C547 1.334 . S
C547 N546 1.334 . S
C547 N548 1.336 . S
N548 Zn544 2.020 . S
N548 C547 1.336 . S
N548 N549 1.354 . S
N549 C545 1.336 . S
N549 N548 1.354 . S
N549 Zn553 2.020 . S
C550 O551 1.244 . S
C550 O574 1.257 . S
O551 C550 1.244 . S
O552 Zn544 2.019 . S
O552 C572 1.257 . S
Zn553 N549 2.020 . S
Zn553 O560 1.975 . S
Zn553 N569 2.119 . S
Zn553 O574 2.019 . S
N554 Zn544 2.119 . S
N554 C556 1.334 . S
N554 C557 1.328 . S
C555 C556 1.391 . S
C555 N558 1.329 . S
C555 H576 0.930 . S
C556 N554 1.334 . S
C556 C555 1.391 . S
C556 H563 0.930 . S
C557 N554 1.328 . S
C557 C559 1.392 . S
C557 H564 0.930 . S
N558 C555 1.329 . S
N558 C559 1.331 . S
C559 C557 1.392 . S
C559 N558 1.331 . S
O560 Zn553 1.975 . S
O560 C561 1.252 . S
C561 O560 1.252 . S
C561 O562 1.252 . S
O562 Zn544 1.975 . S
O562 C561 1.252 . S
H563 C556 0.930 . S
H564 C557 0.930 . S
C565 C566 1.392 . S
C565 N569 1.328 . S
C565 H571 0.930 . S
C566 C565 1.392 . S
C566 N570 1.331 . S
C567 C568 1.391 . S
C567 N570 1.329 . S
C567 H577 0.930 . S
C568 C567 1.391 . S
C568 N569 1.334 . S
C568 H575 0.930 . S
N569 Zn553 2.119 . S
N569 C565 1.328 . S
N569 C568 1.334 . S
N570 C566 1.331 . S
N570 C567 1.329 . S
H571 C565 0.930 . S
C572 O552 1.257 . S
C572 O573 1.244 . S
O573 C572 1.244 . S
O574 C550 1.257 . S
O574 Zn553 2.019 . S
H575 C568 0.930 . S
H576 C555 0.930 . S
H577 C567 0.930 . S
Zn578 N582 2.020 . S
Zn578 O586 2.019 . S
Zn578 N588 2.119 . S
Zn578 O596 1.975 . S
C579 N580 1.334 . S
C579 N583 1.336 . S
N580 C579 1.334 . S
N580 C581 1.334 . S
C581 N580 1.334 . S
C581 N582 1.336 . S
N582 Zn578 2.020 . S
N582 C581 1.336 . S
N582 N583 1.354 . S
N583 C579 1.336 . S
N583 N582 1.354 . S
N583 Zn587 2.020 . S
C584 O585 1.244 . S
C584 O608 1.257 . S
O585 C584 1.244 . S
O586 Zn578 2.019 . S
O586 C606 1.257 . S
Zn587 N583 2.020 . S
Zn587 O594 1.975 . S
Zn587 N603 2.119 . S
Zn587 O608 2.019 . S
N588 Zn578 2.119 . S
N588 C590 1.334 . S
N588 C591 1.328 . S
C589 C590 1.391 . S
C589 N592 1.329 . S
C589 H610 0.930 . S
C590 N588 1.334 . S
C590 C589 1.391 . S
C590 H597 0.930 . S
C591 N588 1.328 . S
C591 C593 1.392 . S
C591 H598 0.930 . S
N592 C589 1.329 . S
N592 C593 1.331 . S
C593 C591 1.392 . S
C593 N592 1.331 . S
O594 Zn587 1.975 . S
O594 C595 1.252 . S
C595 O594 1.252 . S
C595 O596 1.252 . S
O596 Zn578 1.975 . S
O596 C595 1.252 . S
H597 C590 0.930 . S
H598 C591 0.930 . S
C599 C600 1.392 . S
C599 N603 1.328 . S
C599 H605 0.930 . S
C600 C599 1.392 . S
C600 N604 1.331 . S
C601 C602 1.391 . S
C601 N604 1.329 . S
C601 H611 0.930 . S
C602 C601 1.391 . S
C602 N603 1.334 . S
C602 H609 0.930 . S
N603 Zn587 2.119 . S
N603 C599 1.328 . S
N603 C602 1.334 . S
N604 C600 1.331 . S
N604 C601 1.329 . S
H605 C599 0.930 . S
C606 O586 1.257 . S
C606 O607 1.244 . S
O607 C606 1.244 . S
O608 C584 1.257 . S
O608 Zn587 2.019 . S
H609 C602 0.930 . S
H610 C589 0.930 . S
H611 C601 0.930 . S
Zn612 N616 2.020 . S
Zn612 O620 2.019 . S
Zn612 N622 2.119 . S
Zn612 O630 1.975 . S
C613 N614 1.334 . S
C613 N617 1.336 . S
N614 C613 1.334 . S
N614 C615 1.334 . S
C615 N614 1.334 . S
C615 N616 1.336 . S
N616 Zn612 2.020 . S
N616 C615 1.336 . S
N616 N617 1.354 . S
N617 C613 1.336 . S
N617 N616 1.354 . S
N617 Zn621 2.020 . S
C618 O619 1.244 . S
C618 O642 1.257 . S
O619 C618 1.244 . S
O620 Zn612 2.019 . S
O620 C640 1.257 . S
Zn621 N617 2.020 . S
Zn621 O628 1.975 . S
Zn621 N637 2.119 . S
Zn621 O642 2.019 . S
N622 Zn612 2.119 . S
N622 C624 1.334 . S
N622 C625 1.328 . S
C623 C624 1.391 . S
C623 N626 1.329 . S
C623 H644 0.930 . S
C624 N622 1.334 . S
C624 C623 1.391 . S
C624 H631 0.930 . S
C625 N622 1.328 . S
C625 C627 1.392 . S
C625 H632 0.930 . S
N626 C623 1.329 . S
N626 C627 1.331 . S
C627 C625 1.392 . S
C627 N626 1.331 . S
O628 Zn621 1.975 . S
O628 C629 1.252 . S
C629 O628 1.252 . S
C629 O630 1.252 . S
O630 Zn612 1.975 . S
O630 C629 1.252 . S
H631 C624 0.930 . S
H632 C625 0.930 . S
C633 C634 1.392 . S
C633 N637 1.328 . S
C633 H639 0.930 . S
C634 C633 1.392 . S
C634 N638 1.331 . S
C635 C636 1.391 . S
C635 N638 1.329 . S
C635 H645 0.930 . S
C636 C635 1.391 . S
C636 N637 1.334 . S
C636 H643 0.930 . S
N637 Zn621 2.119 . S
N637 C633 1.328 . S
N637 C636 1.334 . S
N638 C634 1.331 . S
N638 C635 1.329 . S
H639 C633 0.930 . S
C640 O620 1.257 . S
C640 O641 1.244 . S
O641 C640 1.244 . S
O642 C618 1.257 . S
O642 Zn621 2.019 . S
H643 C636 0.930 . S
H644 C623 0.930 . S
H645 C635 0.930 . S
Zn646 N650 2.020 . S
Zn646 O654 2.019 . S
Zn646 N656 2.119 . S
Zn646 O664 1.975 . S
C647 N648 1.334 . S
C647 N651 1.336 . S
N648 C647 1.334 . S
N648 C649 1.334 . S
C649 N648 1.334 . S
C649 N650 1.336 . S
N650 Zn646 2.020 . S
N650 C649 1.336 . S
N650 N651 1.354 . S
N651 C647 1.336 . S
N651 N650 1.354 . S
N651 Zn655 2.020 . S
C652 O653 1.244 . S
C652 O676 1.257 . S
O653 C652 1.244 . S
O654 Zn646 2.019 . S
O654 C674 1.257 . S
Zn655 N651 2.020 . S
Zn655 O662 1.975 . S
Zn655 N671 2.119 . S
Zn655 O676 2.019 . S
N656 Zn646 2.119 . S
N656 C658 1.334 . S
N656 C659 1.328 . S
C657 C658 1.391 . S
C657 N660 1.329 . S
C657 H678 0.930 . S
C658 N656 1.334 . S
C658 C657 1.391 . S
C658 H665 0.930 . S
C659 N656 1.328 . S
C659 C661 1.392 . S
C659 H666 0.930 . S
N660 C657 1.329 . S
N660 C661 1.331 . S
C661 C659 1.392 . S
C661 N660 1.331 . S
O662 Zn655 1.975 . S
O662 C663 1.252 . S
C663 O662 1.252 . S
C663 O664 1.252 . S
O664 Zn646 1.975 . S
O664 C663 1.252 . S
H665 C658 0.930 . S
H666 C659 0.930 . S
C667 C668 1.392 . S
C667 N671 1.328 . S
C667 H673 0.930 . S
C668 C667 1.392 . S
C668 N672 1.331 . S
C669 C670 1.391 . S
C669 N672 1.329 . S
C669 H679 0.930 . S
C670 C669 1.391 . S
C670 N671 1.334 . S
C670 H677 0.930 . S
N671 Zn655 2.119 . S
N671 C667 1.328 . S
N671 C670 1.334 . S
N672 C668 1.331 . S
N672 C669 1.329 . S
H673 C667 0.930 . S
C674 O654 1.257 . S
C674 O675 1.244 . S
O675 C674 1.244 . S
O676 C652 1.257 . S
O676 Zn655 2.019 . S
H677 C670 0.930 . S
H678 C657 0.930 . S
H679 C669 0.930 . S
Zn680 N684 2.020 . S
Zn680 O688 2.019 . S
Zn680 N690 2.119 . S
Zn680 O698 1.975 . S
C681 N682 1.334 . S
C681 N685 1.336 . S
N682 C681 1.334 . S
N682 C683 1.334 . S
C683 N682 1.334 . S
C683 N684 1.336 . S
N684 Zn680 2.020 . S
N684 C683 1.336 . S
N684 N685 1.354 . S
N685 C681 1.336 . S
N685 N684 1.354 . S
N685 Zn689 2.020 . S
C686 O687 1.244 . S
C686 O710 1.257 . S
O687 C686 1.244 . S
O688 Zn680 2.019 . S
O688 C708 1.257 . S
Zn689 N685 2.020 . S
Zn689 O696 1.975 . S
Zn689 N705 2.119 . S
Zn689 O710 2.019 . S
N690 Zn680 2.119 . S
N690 C692 1.334 . S
N690 C693 1.328 . S
C691 C692 1.391 . S
C691 N694 1.329 . S
C691 H712 0.930 . S
C692 N690 1.334 . S
C692 C691 1.391 . S
C692 H699 0.930 . S
C693 N690 1.328 . S
C693 C695 1.392 . S
C693 H700 0.930 . S
N694 C691 1.329 . S
N694 C695 1.331 . S
C695 C693 1.392 . S
C695 N694 1.331 . S
O696 Zn689 1.975 . S
O696 C697 1.252 . S
C697 O696 1.252 . S
C697 O698 1.252 . S
O698 Zn680 1.975 . S
O698 C697 1.252 . S
H699 C692 0.930 . S
H700 C693 0.930 . S
C701 C702 1.392 . S
C701 N705 1.328 . S
C701 H707 0.930 . S
C702 C701 1.392 . S
C702 N706 1.331 . S
C703 C704 1.391 . S
C703 N706 1.329 . S
C703 H713 0.930 . S
C704 C703 1.391 . S
C704 N705 1.334 . S
C704 H711 0.930 . S
N705 Zn689 2.119 . S
N705 C701 1.328 . S
N705 C704 1.334 . S
N706 C702 1.331 . S
N706 C703 1.329 . S
H707 C701 0.930 . S
C708 O688 1.257 . S
C708 O709 1.244 . S
O709 C708 1.244 . S
O710 C686 1.257 . S
O710 Zn689 2.019 . S
H711 C704 0.930 . S
H712 C691 0.930 . S
H713 C703 0.930 . S
Zn714 N718 2.020 . S
Zn714 O722 2.019 . S
Zn714 N724 2.119 . S
Zn714 O732 1.975 . S
C715 N716 1.334 . S
C715 N719 1.336 . S
N716 C715 1.334 . S
N716 C717 1.334 . S
C717 N716 1.334 . S
C717 N718 1.336 . S
N718 Zn714 2.020 . S
N718 C717 1.336 . S
N718 N719 1.354 . S
N719 C715 1.336 . S
N719 N718 1.354 . S
N719 Zn723 2.020 . S
C720 O721 1.244 . S
C720 O744 1.257 . S
O721 C720 1.244 . S
O722 Zn714 2.019 . S
O722 C742 1.257 . S
Zn723 N719 2.020 . S
Zn723 O730 1.975 . S
Zn723 N739 2.119 . S
Zn723 O744 2.019 . S
N724 Zn714 2.119 . S
N724 C726 1.334 . S
N724 C727 1.328 . S
C725 C726 1.391 . S
C725 N728 1.329 . S
C725 H746 0.930 . S
C726 N724 1.334 . S
C726 C725 1.391 . S
C726 H733 0.930 . S
C727 N724 1.328 . S
C727 C729 1.392 . S
C727 H734 0.930 . S
N728 C725 1.329 . S
N728 C729 1.331 . S
C729 C727 1.392 . S
C729 N728 1.331 . S
O730 Zn723 1.975 . S
O730 C731 1.252 . S
C731 O730 1.252 . S
C731 O732 1.252 . S
O732 Zn714 1.975 . S
O732 C731 1.252 . S
H733 C726 0.930 . S
H734 C727 0.930 . S
C735 C736 1.392 . S
C735 N739 1.328 . S
C735 H741 0.930 . S
C736 C735 1.392 . S
C736 N740 1.331 . S
C737 C738 1.391 . S
C737 N740 1.329 . S
C737 H747 0.930 . S
C738 C737 1.391 . S
C738 N739 1.334 . S
C738 H745 0.930 . S
N739 Zn723 2.119 . S
N739 C735 1.328 . S
N739 C738 1.334 . S
N740 C736 1.331 . S
N740 C737 1.329 . S
H741 C735 0.930 . S
C742 O722 1.257 . S
C742 O743 1.244 . S
O743 C742 1.244 . S
O744 C720 1.257 . S
O744 Zn723 2.019 . S
H745 C738 0.930 . S
H746 C725 0.930 . S
H747 C737 0.930 . S
Zn748 N752 2.020 . S
Zn748 O756 2.019 . S
Zn748 N758 2.119 . S
Zn748 O766 1.975 . S
C749 N750 1.334 . S
C749 N753 1.336 . S
N750 C749 1.334 . S
N750 C751 1.334 . S
C751 N750 1.334 . S
C751 N752 1.336 . S
N752 Zn748 2.020 . S
N752 C751 1.336 . S
N752 N753 1.354 . S
N753 C749 1.336 . S
N753 N752 1.354 . S
N753 Zn757 2.020 . S
C754 O755 1.244 . S
C754 O778 1.257 . S
O755 C754 1.244 . S
O756 Zn748 2.019 . S
O756 C776 1.257 . S
Zn757 N753 2.020 . S
Zn757 O764 1.975 . S
Zn757 N773 2.119 . S
Zn757 O778 2.019 . S
N758 Zn748 2.119 . S
N758 C760 1.334 . S
N758 C761 1.328 . S
C759 C760 1.391 . S
C759 N762 1.329 . S
C759 H780 0.930 . S
C760 N758 1.334 . S
C760 C759 1.391 . S
C760 H767 0.930 . S
C761 N758 1.328 . S
C761 C763 1.392 . S
C761 H768 0.930 . S
N762 C759 1.329 . S
N762 C763 1.331 . S
C763 C761 1.392 . S
C763 N762 1.331 . S
O764 Zn757 1.975 . S
O764 C765 1.252 . S
C765 O764 1.252 . S
C765 O766 1.252 . S
O766 Zn748 1.975 . S
O766 C765 1.252 . S
H767 C760 0.930 . S
H768 C761 0.930 . S
C769 C770 1.392 . S
C769 N773 1.328 . S
C769 H775 0.930 . S
C770 C769 1.392 . S
C770 N774 1.331 . S
C771 C772 1.391 . S
C771 N774 1.329 . S
C771 H781 0.930 . S
C772 C771 1.391 . S
C772 N773 1.334 . S
C772 H779 0.930 . S
N773 Zn757 2.119 . S
N773 C769 1.328 . S
N773 C772 1.334 . S
N774 C770 1.331 . S
N774 C771 1.329 . S
H775 C769 0.930 . S
C776 O756 1.257 . S
C776 O777 1.244 . S
O777 C776 1.244 . S
O778 C754 1.257 . S
O778 Zn757 2.019 . S
H779 C772 0.930 . S
H780 C759 0.930 . S
H781 C771 0.930 . S
Zn782 N786 2.020 . S
Zn782 O790 2.019 . S
Zn782 N792 2.119 . S
Zn782 O800 1.975 . S
C783 N784 1.334 . S
C783 N787 1.336 . S
N784 C783 1.334 . S
N784 C785 1.334 . S
C785 N784 1.334 . S
C785 N786 1.336 . S
N786 Zn782 2.020 . S
N786 C785 1.336 . S
N786 N787 1.354 . S
N787 C783 1.336 . S
N787 N786 1.354 . S
N787 Zn791 2.020 . S
C788 O789 1.244 . S
C788 O812 1.257 . S
O789 C788 1.244 . S
O790 Zn782 2.019 . S
O790 C810 1.257 . S
Zn791 N787 2.020 . S
Zn791 O798 1.975 . S
Zn791 N807 2.119 . S
Zn791 O812 2.019 . S
N792 Zn782 2.119 . S
N792 C794 1.334 . S
N792 C795 1.328 . S
C793 C794 1.391 . S
C793 N796 1.329 . S
C793 H814 0.930 . S
C794 N792 1.334 . S
C794 C793 1.391 . S
C794 H801 0.930 . S
C795 N792 1.328 . S
C795 C797 1.392 . S
C795 H802 0.930 . S
N796 C793 1.329 . S
N796 C797 1.331 . S
C797 C795 1.392 . S
C797 N796 1.331 . S
O798 Zn791 1.975 . S
O798 C799 1.252 . S
C799 O798 1.252 . S
C799 O800 1.252 . S
O800 Zn782 1.975 . S
O800 C799 1.252 . S
H801 C794 0.930 . S
H802 C795 0.930 . S
C803 C804 1.392 . S
C803 N807 1.328 . S
C803 H809 0.930 . S
C804 C803 1.392 . S
C804 N808 1.331 . S
C805 C806 1.391 . S
C805 N808 1.329 . S
C805 H815 0.930 . S
C806 C805 1.391 . S
C806 N807 1.334 . S
C806 H813 0.930 . S
N807 Zn791 2.119 . S
N807 C803 1.328 . S
N807 C806 1.334 . S
N808 C804 1.331 . S
N808 C805 1.329 . S
H809 C803 0.930 . S
C810 O790 1.257 . S
C810 O811 1.244 . S
O811 C810 1.244 . S
O812 C788 1.257 . S
O812 Zn791 2.019 . S
H813 C806 0.930 . S
H814 C793 0.930 . S
H815 C805 0.930 . S
H816 C822 0.930 . S
H817 C826 0.930 . S
H818 C831 0.941 . S
H819 C829 0.929 . S
H820 C824 0.929 . S
H821 C830 0.929 . S
C822 H816 0.930 . S
C822 C823 1.367 . S
C822 C830 1.378 . S
C823 C822 1.367 . S
C823 C831 1.433 . S
C824 H820 0.929 . S
C824 C826 1.378 . S
C824 C828 1.350 . S
C825 C828 1.463 . S
C825 C830 1.350 . S
C825 N833 1.427 . S
C826 H817 0.930 . S
C826 C824 1.378 . S
C826 C827 1.367 . S
C827 C826 1.367 . S
C827 C829 1.433 . S
C828 C824 1.350 . S
C828 C825 1.463 . S
C828 N832 1.427 . S
C829 H819 0.929 . S
C829 C827 1.433 . S
C829 N832 1.384 . S
C830 H821 0.929 . S
C830 C822 1.378 . S
C830 C825 1.350 . S
C831 H818 0.941 . S
C831 C823 1.433 . S
C831 N833 1.384 . S
N832 C828 1.427 . S
N832 C829 1.384 . S
N833 C825 1.427 . S
N833 C831 1.384 . S
H834 C840 0.930 . S
H835 C844 0.930 . S
H836 C849 0.929 . S
H837 C847 0.929 . S
H838 C842 0.929 . S
H839 C848 0.929 . S
C840 H834 0.930 . S
C840 C841 1.367 . S
C840 C848 1.378 . S
C841 C840 1.367 . S
C841 C849 1.433 . S
C842 H838 0.929 . S
C842 C844 1.378 . S
C842 C846 1.350 . S
C843 C846 1.463 . S
C843 C848 1.350 . S
C843 N851 1.427 . S
C844 H835 0.930 . S
C844 C842 1.378 . S
C844 C845 1.367 . S
C845 C844 1.367 . S
C845 C847 1.433 . S
C846 C842 1.350 . S
C846 C843 1.463 . S
C846 N850 1.427 . S
C847 H837 0.929 . S
C847 C845 1.433 . S
C847 N850 1.384 . S
C848 H839 0.929 . S
C848 C840 1.378 . S
C848 C843 1.350 . S
C849 H836 0.929 . S
C849 C841 1.433 . S
C849 N851 1.384 . S
N850 C846 1.427 . S
N850 C847 1.384 . S
N851 C843 1.427 . S
N851 C849 1.384 . S
H852 C858 0.930 . S
H853 C862 0.930 . S
H854 C867 0.929 . S
H855 C865 0.929 . S
H856 C860 0.929 . S
H857 C866 0.929 . S
C858 H852 0.930 . S
C858 C859 1.367 . S
C858 C866 1.378 . S
C859 C858 1.367 . S
C859 C867 1.433 . S
C860 H856 0.929 . S
C860 C862 1.378 . S
C860 C864 1.350 . S
C861 C864 1.463 . S
C861 C866 1.350 . S
C861 N869 1.427 . S
C862 H853 0.930 . S
C862 C860 1.378 . S
C862 C863 1.367 . S
C863 C862 1.367 . S
C863 C865 1.433 . S
C864 C860 1.350 . S
C864 C861 1.463 . S
C864 N868 1.427 . S
C865 H855 0.929 . S
C865 C863 1.433 . S
C865 N868 1.384 . S
C866 H857 0.929 . S
C866 C858 1.378 . S
C866 C861 1.350 . S
C867 H854 0.929 . S
C867 C859 1.433 . S
C867 N869 1.384 . S
N868 C864 1.427 . S
N868 C865 1.384 . S
N869 C861 1.427 . S
N869 C867 1.384 . S
H870 C876 0.930 . S
H871 C880 0.930 . S
H872 C885 0.929 . S
H873 C883 0.929 . S
H874 C878 0.929 . S
H875 C884 0.929 . S
C876 H870 0.930 . S
C876 C877 1.367 . S
C876 C884 1.378 . S
C877 C876 1.367 . S
C877 C885 1.433 . S
C878 H874 0.929 . S
C878 C880 1.378 . S
C878 C882 1.350 . S
C879 C882 1.463 . S
C879 C884 1.350 . S
C879 N887 1.427 . S
C880 H871 0.930 . S
C880 C878 1.378 . S
C880 C881 1.367 . S
C881 C880 1.367 . S
C881 C883 1.433 . S
C882 C878 1.350 . S
C882 C879 1.463 . S
C882 N886 1.427 . S
C883 H873 0.929 . S
C883 C881 1.433 . S
C883 N886 1.384 . S
C884 H875 0.929 . S
C884 C876 1.378 . S
C884 C879 1.350 . S
C885 H872 0.929 . S
C885 C877 1.433 . S
C885 N887 1.384 . S
N886 C882 1.427 . S
N886 C883 1.384 . S
N887 C879 1.427 . S
N887 C885 1.384 . S
H888 C894 0.930 . S
H889 C898 0.930 . S
H890 C903 0.929 . S
H891 C901 0.929 . S
H892 C896 0.929 . S
H893 C902 0.929 . S
C894 H888 0.930 . S
C894 C895 1.367 . S
C894 C902 1.378 . S
C895 C894 1.367 . S
C895 C903 1.433 . S
C896 H892 0.929 . S
C896 C898 1.378 . S
C896 C900 1.350 . S
C897 C900 1.463 . S
C897 C902 1.350 . S
C897 N905 1.427 . S
C898 H889 0.930 . S
C898 C896 1.378 . S
C898 C899 1.367 . S
C899 C898 1.367 . S
C899 C901 1.433 . S
C900 C896 1.350 . S
C900 C897 1.463 . S
C900 N904 1.427 . S
C901 H891 0.929 . S
C901 C899 1.433 . S
C901 N904 1.384 . S
C902 H893 0.929 . S
C902 C894 1.378 . S
C902 C897 1.350 . S
C903 H890 0.929 . S
C903 C895 1.433 . S
C903 N905 1.384 . S
N904 C900 1.427 . S
N904 C901 1.384 . S
N905 C897 1.427 . S
N905 C903 1.384 . S
H906 C912 0.930 . S
H907 C916 0.930 . S
H908 C921 0.922 1_455 S
H909 C919 0.929 . S
H910 C914 0.929 . S
H911 C920 0.929 . S
C912 H906 0.930 . S
C912 C913 1.367 . S
C912 C920 1.378 . S
C913 C912 1.367 . S
C913 C921 1.433 . S
C914 H910 0.929 . S
C914 C916 1.378 . S
C914 C918 1.350 . S
C915 C918 1.463 . S
C915 C920 1.350 . S
C915 N923 1.427 . S
C916 H907 0.930 . S
C916 C914 1.378 . S
C916 C917 1.367 . S
C917 C916 1.367 . S
C917 C919 1.433 . S
C918 C914 1.350 . S
C918 C915 1.463 . S
C918 N922 1.427 . S
C919 H909 0.929 . S
C919 C917 1.433 . S
C919 N922 1.384 . S
C920 H911 0.929 . S
C920 C912 1.378 . S
C920 C915 1.350 . S
C921 H908 0.922 1_655 S
C921 C913 1.433 . S
C921 N923 1.384 . S
N922 C918 1.427 . S
N922 C919 1.384 . S
N923 C915 1.427 . S
N923 C921 1.384 . S
H924 C930 0.930 . S
H925 C934 0.930 . S
H926 C939 0.929 . S
H927 C937 0.929 . S
H928 C932 0.929 . S
H929 C938 0.929 . S
C930 H924 0.930 . S
C930 C931 1.367 . S
C930 C938 1.378 . S
C931 C930 1.367 . S
C931 C939 1.433 . S
C932 H928 0.929 . S
C932 C934 1.378 . S
C932 C936 1.350 . S
C933 C936 1.463 . S
C933 C938 1.350 . S
C933 N941 1.427 . S
C934 H925 0.930 . S
C934 C932 1.378 . S
C934 C935 1.367 . S
C935 C934 1.367 . S
C935 C937 1.433 . S
C936 C932 1.350 . S
C936 C933 1.463 . S
C936 N940 1.427 . S
C937 H927 0.929 . S
C937 C935 1.433 . S
C937 N940 1.384 . S
C938 H929 0.929 . S
C938 C930 1.378 . S
C938 C933 1.350 . S
C939 H926 0.929 . S
C939 C931 1.433 . S
C939 N941 1.384 . S
N940 C936 1.427 . S
N940 C937 1.384 . S
N941 C933 1.427 . S
N941 C939 1.384 . S
H942 C948 0.930 . S
H943 C952 0.930 1_565 S
H944 C957 0.929 . S
H945 C955 0.929 . S
H946 C950 0.929 . S
H947 C956 0.929 . S
C948 H942 0.930 . S
C948 C949 1.367 . S
C948 C956 1.378 . S
C949 C948 1.367 . S
C949 C957 1.433 . S
C950 H946 0.929 . S
C950 C952 1.378 . S
C950 C954 1.350 . S
C951 C954 1.463 . S
C951 C956 1.350 . S
C951 N959 1.427 . S
C952 H943 0.930 1_545 S
C952 C950 1.378 . S
C952 C953 1.367 . S
C953 C952 1.367 . S
C953 C955 1.433 . S
C954 C950 1.350 . S
C954 C951 1.463 . S
C954 N958 1.427 . S
C955 H945 0.929 . S
C955 C953 1.433 . S
C955 N958 1.384 . S
C956 H947 0.929 . S
C956 C948 1.378 . S
C956 C951 1.350 . S
C957 H944 0.929 . S
C957 C949 1.433 . S
C957 N959 1.384 . S
N958 C954 1.427 . S
N958 C955 1.384 . S
N959 C951 1.427 . S
N959 C957 1.384 . S
H960 C966 0.930 . S
H961 C970 0.930 . S
H962 C975 0.929 . S
H963 C973 0.929 . S
H964 C968 0.929 . S
H965 C974 0.929 . S
C966 H960 0.930 . S
C966 C967 1.367 . S
C966 C974 1.378 . S
C967 C966 1.367 . S
C967 C975 1.433 . S
C968 H964 0.929 . S
C968 C970 1.378 . S
C968 C972 1.350 . S
C969 C972 1.463 . S
C969 C974 1.350 . S
C969 N977 1.427 . S
C970 H961 0.930 . S
C970 C968 1.378 . S
C970 C971 1.367 . S
C971 C970 1.367 . S
C971 C973 1.433 . S
C972 C968 1.350 . S
C972 C969 1.463 . S
C972 N976 1.427 . S
C973 H963 0.929 . S
C973 C971 1.433 . S
C973 N976 1.384 . S
C974 H965 0.929 . S
C974 C966 1.378 . S
C974 C969 1.350 . S
C975 H962 0.929 . S
C975 C967 1.433 . S
C975 N977 1.384 . S
N976 C972 1.427 . S
N976 C973 1.384 . S
N977 C969 1.427 . S
N977 C975 1.384 . S
H978 C984 0.930 . S
H979 C988 0.930 . S
H980 C993 0.929 . S
H981 C991 0.929 . S
H982 C986 0.929 . S
H983 C992 0.929 . S
C984 H978 0.930 . S
C984 C985 1.367 . S
C984 C992 1.378 . S
C985 C984 1.367 . S
C985 C993 1.433 . S
C986 H982 0.929 . S
C986 C988 1.378 . S
C986 C990 1.350 . S
C987 C990 1.463 . S
C987 C992 1.350 . S
C987 N995 1.427 . S
C988 H979 0.930 . S
C988 C986 1.378 . S
C988 C989 1.367 . S
C989 C988 1.367 . S
C989 C991 1.433 . S
C990 C986 1.350 . S
C990 C987 1.463 . S
C990 N994 1.427 . S
C991 H981 0.929 . S
C991 C989 1.433 . S
C991 N994 1.384 . S
C992 H983 0.929 . S
C992 C984 1.378 . S
C992 C987 1.350 . S
C993 H980 0.929 . S
C993 C985 1.433 . S
C993 N995 1.384 . S
N994 C990 1.427 . S
N994 C991 1.384 . S
N995 C987 1.427 . S
N995 C993 1.384 . S
H996 C1002 0.930 . S
H997 C1006 0.930 . S
H998 C1011 0.929 . S
H999 C1009 0.929 . S
H1000 C1004 0.929 . S
H1001 C1010 0.929 . S
C1002 H996 0.930 . S
C1002 C1003 1.367 . S
C1002 C1010 1.378 . S
C1003 C1002 1.367 . S
C1003 C1011 1.433 . S
C1004 H1000 0.929 . S
C1004 C1006 1.378 . S
C1004 C1008 1.350 . S
C1005 C1008 1.463 . S
C1005 C1010 1.350 . S
C1005 N1013 1.427 . S
C1006 H997 0.930 . S
C1006 C1004 1.378 . S
C1006 C1007 1.367 . S
C1007 C1006 1.367 . S
C1007 C1009 1.433 . S
C1008 C1004 1.350 . S
C1008 C1005 1.463 . S
C1008 N1012 1.427 . S
C1009 H999 0.929 . S
C1009 C1007 1.433 . S
C1009 N1012 1.384 . S
C1010 H1001 0.929 . S
C1010 C1002 1.378 . S
C1010 C1005 1.350 . S
C1011 H998 0.929 . S
C1011 C1003 1.433 . S
C1011 N1013 1.384 . S
N1012 C1008 1.427 . S
N1012 C1009 1.384 . S
N1013 C1005 1.427 . S
N1013 C1011 1.384 . S
H1014 C1020 0.930 . S
H1015 C1024 0.930 . S
H1016 C1029 0.929 . S
H1017 C1027 0.929 . S
H1018 C1022 0.929 . S
H1019 C1028 0.929 . S
C1020 H1014 0.930 . S
C1020 C1021 1.367 . S
C1020 C1028 1.378 . S
C1021 C1020 1.367 . S
C1021 C1029 1.433 . S
C1022 H1018 0.929 . S
C1022 C1024 1.378 . S
C1022 C1026 1.350 . S
C1023 C1026 1.463 . S
C1023 C1028 1.350 . S
C1023 N1031 1.427 . S
C1024 H1015 0.930 . S
C1024 C1022 1.378 . S
C1024 C1025 1.367 . S
C1025 C1024 1.367 . S
C1025 C1027 1.433 . S
C1026 C1022 1.350 . S
C1026 C1023 1.463 . S
C1026 N1030 1.427 . S
C1027 H1017 0.929 . S
C1027 C1025 1.433 . S
C1027 N1030 1.384 . S
C1028 H1019 0.929 . S
C1028 C1020 1.378 . S
C1028 C1023 1.350 . S
C1029 H1016 0.929 . S
C1029 C1021 1.433 . S
C1029 N1031 1.384 . S
N1030 C1026 1.427 . S
N1030 C1027 1.384 . S
N1031 C1023 1.427 . S
N1031 C1029 1.384 . S
H1032 C1038 0.930 . S
H1033 C1042 0.930 . S
H1034 C1047 0.929 . S
H1035 C1045 0.953 . S
H1036 C1040 0.929 . S
H1037 C1046 0.929 . S
C1038 H1032 0.930 . S
C1038 C1039 1.367 . S
C1038 C1046 1.378 . S
C1039 C1038 1.367 . S
C1039 C1047 1.433 . S
C1040 H1036 0.929 . S
C1040 C1042 1.378 . S
C1040 C1044 1.350 . S
C1041 C1044 1.463 . S
C1041 C1046 1.350 . S
C1041 N1049 1.427 . S
C1042 H1033 0.930 . S
C1042 C1040 1.378 . S
C1042 C1043 1.367 . S
C1043 C1042 1.367 . S
C1043 C1045 1.433 . S
C1044 C1040 1.350 . S
C1044 C1041 1.463 . S
C1044 N1048 1.427 . S
C1045 H1035 0.953 . S
C1045 C1043 1.433 . S
C1045 N1048 1.384 . S
C1046 H1037 0.929 . S
C1046 C1038 1.378 . S
C1046 C1041 1.350 . S
C1047 H1034 0.929 . S
C1047 C1039 1.433 . S
C1047 N1049 1.384 . S
N1048 C1044 1.427 . S
N1048 C1045 1.384 . S
N1049 C1041 1.427 . S
N1049 C1047 1.384 . S
H1050 C1056 0.930 . S
H1051 C1060 0.930 . S
H1052 C1065 0.929 . S
H1053 C1063 0.929 . S
H1054 C1058 0.929 . S
H1055 C1064 0.929 . S
C1056 H1050 0.930 . S
C1056 C1057 1.367 . S
C1056 C1064 1.378 . S
C1057 C1056 1.367 . S
C1057 C1065 1.433 . S
C1058 H1054 0.929 . S
C1058 C1060 1.378 . S
C1058 C1062 1.350 . S
C1059 C1062 1.463 . S
C1059 C1064 1.350 . S
C1059 N1067 1.427 . S
C1060 H1051 0.930 . S
C1060 C1058 1.378 . S
C1060 C1061 1.367 . S
C1061 C1060 1.367 . S
C1061 C1063 1.433 . S
C1062 C1058 1.350 . S
C1062 C1059 1.463 . S
C1062 N1066 1.427 . S
C1063 H1053 0.929 . S
C1063 C1061 1.433 . S
C1063 N1066 1.384 . S
C1064 H1055 0.929 . S
C1064 C1056 1.378 . S
C1064 C1059 1.350 . S
C1065 H1052 0.929 . S
C1065 C1057 1.433 . S
C1065 N1067 1.384 . S
N1066 C1062 1.427 . S
N1066 C1063 1.384 . S
N1067 C1059 1.427 . S
N1067 C1065 1.384 . S
H1068 C1074 0.930 . S
H1069 C1078 0.930 . S
H1070 C1083 0.930 1_455 S
H1071 C1081 0.929 . S
H1072 C1076 0.929 . S
H1073 C1082 0.929 . S
C1074 H1068 0.930 . S
C1074 C1075 1.367 . S
C1074 C1082 1.378 . S
C1075 C1074 1.367 . S
C1075 C1083 1.433 . S
C1076 H1072 0.929 . S
C1076 C1078 1.378 . S
C1076 C1080 1.350 . S
C1077 C1080 1.463 . S
C1077 C1082 1.350 . S
C1077 N1085 1.427 . S
C1078 H1069 0.930 . S
C1078 C1076 1.378 . S
C1078 C1079 1.367 . S
C1079 C1078 1.367 . S
C1079 C1081 1.433 . S
C1080 C1076 1.350 . S
C1080 C1077 1.463 . S
C1080 N1084 1.427 . S
C1081 H1071 0.929 . S
C1081 C1079 1.433 . S
C1081 N1084 1.384 . S
C1082 H1073 0.929 . S
C1082 C1074 1.378 . S
C1082 C1077 1.350 . S
C1083 H1070 0.930 1_655 S
C1083 C1075 1.433 . S
C1083 N1085 1.384 . S
N1084 C1080 1.427 . S
N1084 C1081 1.384 . S
N1085 C1077 1.427 . S
N1085 C1083 1.384 . S
H1086 C1092 0.930 . S
H1087 C1096 0.930 . S
H1088 C1101 0.929 . S
H1089 C1099 0.929 . S
H1090 C1094 0.929 . S
H1091 C1100 0.929 . S
C1092 H1086 0.930 . S
C1092 C1093 1.367 . S
C1092 C1100 1.378 . S
C1093 C1092 1.367 . S
C1093 C1101 1.433 . S
C1094 H1090 0.929 . S
C1094 C1096 1.378 . S
C1094 C1098 1.350 . S
C1095 C1098 1.463 . S
C1095 C1100 1.350 . S
C1095 N1103 1.427 . S
C1096 H1087 0.930 . S
C1096 C1094 1.378 . S
C1096 C1097 1.367 . S
C1097 C1096 1.367 . S
C1097 C1099 1.433 . S
C1098 C1094 1.350 . S
C1098 C1095 1.463 . S
C1098 N1102 1.427 . S
C1099 H1089 0.929 . S
C1099 C1097 1.433 . S
C1099 N1102 1.384 . S
C1100 H1091 0.929 . S
C1100 C1092 1.378 . S
C1100 C1095 1.350 . S
C1101 H1088 0.929 . S
C1101 C1093 1.433 . S
C1101 N1103 1.384 . S
N1102 C1098 1.427 . S
N1102 C1099 1.384 . S
N1103 C1095 1.427 . S
N1103 C1101 1.384 . S
H1104 C1110 0.930 . S
H1105 C1114 0.930 . S
H1106 C1119 0.929 . S
H1107 C1117 0.929 . S
H1108 C1112 0.929 . S
H1109 C1118 0.929 . S
C1110 H1104 0.930 . S
C1110 C1111 1.367 . S
C1110 C1118 1.378 . S
C1111 C1110 1.367 . S
C1111 C1119 1.433 . S
C1112 H1108 0.929 . S
C1112 C1114 1.378 . S
C1112 C1116 1.350 . S
C1113 C1116 1.463 . S
C1113 C1118 1.350 . S
C1113 N1121 1.427 . S
C1114 H1105 0.930 . S
C1114 C1112 1.378 . S
C1114 C1115 1.367 . S
C1115 C1114 1.367 . S
C1115 C1117 1.433 . S
C1116 C1112 1.350 . S
C1116 C1113 1.463 . S
C1116 N1120 1.427 . S
C1117 H1107 0.929 . S
C1117 C1115 1.433 . S
C1117 N1120 1.384 . S
C1118 H1109 0.929 . S
C1118 C1110 1.378 . S
C1118 C1113 1.350 . S
C1119 H1106 0.929 . S
C1119 C1111 1.433 . S
C1119 N1121 1.384 . S
N1120 C1116 1.427 . S
N1120 C1117 1.384 . S
N1121 C1113 1.427 . S
N1121 C1119 1.384 . S
H1122 C1128 0.930 . S
H1123 C1132 0.930 . S
H1124 C1137 0.929 . S
H1125 C1135 0.929 . S
H1126 C1130 0.929 . S
H1127 C1136 0.929 . S
C1128 H1122 0.930 . S
C1128 C1129 1.367 . S
C1128 C1136 1.378 . S
C1129 C1128 1.367 . S
C1129 C1137 1.433 . S
C1130 H1126 0.929 . S
C1130 C1132 1.378 . S
C1130 C1134 1.350 . S
C1131 C1134 1.463 . S
C1131 C1136 1.350 . S
C1131 N1139 1.427 . S
C1132 H1123 0.930 . S
C1132 C1130 1.378 . S
C1132 C1133 1.367 . S
C1133 C1132 1.367 . S
C1133 C1135 1.433 . S
C1134 C1130 1.350 . S
C1134 C1131 1.463 . S
C1134 N1138 1.427 . S
C1135 H1125 0.929 . S
C1135 C1133 1.433 . S
C1135 N1138 1.384 . S
C1136 H1127 0.929 . S
C1136 C1128 1.378 . S
C1136 C1131 1.350 . S
C1137 H1124 0.929 . S
C1137 C1129 1.433 . S
C1137 N1139 1.384 . S
N1138 C1134 1.427 . S
N1138 C1135 1.384 . S
N1139 C1131 1.427 . S
N1139 C1137 1.384 . S
H1140 C1146 0.930 . S
H1141 C1150 0.930 1_455 S
H1142 C1155 0.929 . S
H1143 C1153 0.929 . S
H1144 C1148 0.929 . S
H1145 C1154 0.929 . S
C1146 H1140 0.930 . S
C1146 C1147 1.367 . S
C1146 C1154 1.378 . S
C1147 C1146 1.367 . S
C1147 C1155 1.433 . S
C1148 H1144 0.929 . S
C1148 C1150 1.378 . S
C1148 C1152 1.350 . S
C1149 C1152 1.463 . S
C1149 C1154 1.350 . S
C1149 N1157 1.427 . S
C1150 H1141 0.930 1_655 S
C1150 C1148 1.378 . S
C1150 C1151 1.367 . S
C1151 C1150 1.367 . S
C1151 C1153 1.433 . S
C1152 C1148 1.350 . S
C1152 C1149 1.463 . S
C1152 N1156 1.427 . S
C1153 H1143 0.929 . S
C1153 C1151 1.433 . S
C1153 N1156 1.384 . S
C1154 H1145 0.929 . S
C1154 C1146 1.378 . S
C1154 C1149 1.350 . S
C1155 H1142 0.929 . S
C1155 C1147 1.433 . S
C1155 N1157 1.384 . S
N1156 C1152 1.427 . S
N1156 C1153 1.384 . S
N1157 C1149 1.427 . S
N1157 C1155 1.384 . S
H1158 C1164 0.930 . S
H1159 C1168 0.930 1_545 S
H1160 C1173 0.929 . S
H1161 C1171 0.929 . S
H1162 C1166 0.929 . S
H1163 C1172 0.929 . S
C1164 H1158 0.930 . S
C1164 C1165 1.367 . S
C1164 C1172 1.378 . S
C1165 C1164 1.367 . S
C1165 C1173 1.433 . S
C1166 H1162 0.929 . S
C1166 C1168 1.378 . S
C1166 C1170 1.350 . S
C1167 C1170 1.463 . S
C1167 C1172 1.350 . S
C1167 N1175 1.427 . S
C1168 H1159 0.930 1_565 S
C1168 C1166 1.378 . S
C1168 C1169 1.367 . S
C1169 C1168 1.367 . S
C1169 C1171 1.433 . S
C1170 C1166 1.350 . S
C1170 C1167 1.463 . S
C1170 N1174 1.427 . S
C1171 H1161 0.929 . S
C1171 C1169 1.433 . S
C1171 N1174 1.384 . S
C1172 H1163 0.929 . S
C1172 C1164 1.378 . S
C1172 C1167 1.350 . S
C1173 H1160 0.929 . S
C1173 C1165 1.433 . S
C1173 N1175 1.384 . S
N1174 C1170 1.427 . S
N1174 C1171 1.384 . S
N1175 C1167 1.427 . S
N1175 C1173 1.384 . S
H1176 C1182 0.930 . S
H1177 C1186 0.930 . S
H1178 C1191 0.929 . S
H1179 C1189 0.929 . S
H1180 C1184 0.929 . S
H1181 C1190 0.929 . S
C1182 H1176 0.930 . S
C1182 C1183 1.367 . S
C1182 C1190 1.378 . S
C1183 C1182 1.367 . S
C1183 C1191 1.433 . S
C1184 H1180 0.929 . S
C1184 C1186 1.378 . S
C1184 C1188 1.350 . S
C1185 C1188 1.463 . S
C1185 C1190 1.350 . S
C1185 N1193 1.427 . S
C1186 H1177 0.930 . S
C1186 C1184 1.378 . S
C1186 C1187 1.367 . S
C1187 C1186 1.367 . S
C1187 C1189 1.433 . S
C1188 C1184 1.350 . S
C1188 C1185 1.463 . S
C1188 N1192 1.427 . S
C1189 H1179 0.929 . S
C1189 C1187 1.433 . S
C1189 N1192 1.384 . S
C1190 H1181 0.929 . S
C1190 C1182 1.378 . S
C1190 C1185 1.350 . S
C1191 H1178 0.929 . S
C1191 C1183 1.433 . S
C1191 N1193 1.384 . S
N1192 C1188 1.427 . S
N1192 C1189 1.384 . S
N1193 C1185 1.427 . S
N1193 C1191 1.384 . S
H1194 C1200 0.930 . S
H1195 C1204 0.930 . S
H1196 C1209 0.929 . S
H1197 C1207 0.929 . S
H1198 C1202 0.929 . S
H1199 C1208 0.929 . S
C1200 H1194 0.930 . S
C1200 C1201 1.367 . S
C1200 C1208 1.378 . S
C1201 C1200 1.367 . S
C1201 C1209 1.433 . S
C1202 H1198 0.929 . S
C1202 C1204 1.378 . S
C1202 C1206 1.350 . S
C1203 C1206 1.463 . S
C1203 C1208 1.350 . S
C1203 N1211 1.427 . S
C1204 H1195 0.930 . S
C1204 C1202 1.378 . S
C1204 C1205 1.367 . S
C1205 C1204 1.367 . S
C1205 C1207 1.433 . S
C1206 C1202 1.350 . S
C1206 C1203 1.463 . S
C1206 N1210 1.427 . S
C1207 H1197 0.929 . S
C1207 C1205 1.433 . S
C1207 N1210 1.384 . S
C1208 H1199 0.929 . S
C1208 C1200 1.378 . S
C1208 C1203 1.350 . S
C1209 H1196 0.929 . S
C1209 C1201 1.433 . S
C1209 N1211 1.384 . S
N1210 C1206 1.427 . S
N1210 C1207 1.384 . S
N1211 C1203 1.427 . S
N1211 C1209 1.384 . S
H1212 C1218 0.930 . S
H1213 C1222 0.930 . S
H1214 C1227 0.929 1_565 S
H1215 C1225 0.929 . S
H1216 C1220 0.929 . S
H1217 C1226 0.929 . S
C1218 H1212 0.930 . S
C1218 C1219 1.367 . S
C1218 C1226 1.378 . S
C1219 C1218 1.367 . S
C1219 C1227 1.433 . S
C1220 H1216 0.929 . S
C1220 C1222 1.378 . S
C1220 C1224 1.350 . S
C1221 C1224 1.463 . S
C1221 C1226 1.350 . S
C1221 N1229 1.427 . S
C1222 H1213 0.930 . S
C1222 C1220 1.378 . S
C1222 C1223 1.367 . S
C1223 C1222 1.367 . S
C1223 C1225 1.433 . S
C1224 C1220 1.350 . S
C1224 C1221 1.463 . S
C1224 N1228 1.427 . S
C1225 H1215 0.929 . S
C1225 C1223 1.433 . S
C1225 N1228 1.384 . S
C1226 H1217 0.929 . S
C1226 C1218 1.378 . S
C1226 C1221 1.350 . S
C1227 H1214 0.929 1_545 S
C1227 C1219 1.433 . S
C1227 N1229 1.384 . S
N1228 C1224 1.427 . S
N1228 C1225 1.384 . S
N1229 C1221 1.427 . S
N1229 C1227 1.384 . S
H1230 C1236 0.930 . S
H1231 C1240 0.930 . S
H1232 C1245 0.929 . S
H1233 C1243 0.929 . S
H1234 C1238 0.929 . S
H1235 C1244 0.929 . S
C1236 H1230 0.930 . S
C1236 C1237 1.367 . S
C1236 C1244 1.378 . S
C1237 C1236 1.367 . S
C1237 C1245 1.433 . S
C1238 H1234 0.929 . S
C1238 C1240 1.378 . S
C1238 C1242 1.350 . S
C1239 C1242 1.463 . S
C1239 C1244 1.350 . S
C1239 N1247 1.427 . S
C1240 H1231 0.930 . S
C1240 C1238 1.378 . S
C1240 C1241 1.367 . S
C1241 C1240 1.367 . S
C1241 C1243 1.433 . S
C1242 C1238 1.350 . S
C1242 C1239 1.463 . S
C1242 N1246 1.427 . S
C1243 H1233 0.929 . S
C1243 C1241 1.433 . S
C1243 N1246 1.384 . S
C1244 H1235 0.929 . S
C1244 C1236 1.378 . S
C1244 C1239 1.350 . S
C1245 H1232 0.929 . S
C1245 C1237 1.433 . S
C1245 N1247 1.384 . S
N1246 C1242 1.427 . S
N1246 C1243 1.384 . S
N1247 C1239 1.427 . S
N1247 C1245 1.384 . S
H1248 C1254 0.930 . S
H1249 C1258 0.930 . S
H1250 C1263 0.929 . S
H1251 C1261 0.929 . S
H1252 C1256 0.929 . S
H1253 C1262 0.929 . S
C1254 H1248 0.930 . S
C1254 C1255 1.367 . S
C1254 C1262 1.378 . S
C1255 C1254 1.367 . S
C1255 C1263 1.433 . S
C1256 H1252 0.929 . S
C1256 C1258 1.378 . S
C1256 C1260 1.350 . S
C1257 C1260 1.463 1_554 S
C1257 C1262 1.350 . S
C1257 N1265 1.427 . S
C1258 H1249 0.930 . S
C1258 C1256 1.378 . S
C1258 C1259 1.367 . S
C1259 C1258 1.367 . S
C1259 C1261 1.433 . S
C1260 C1256 1.350 . S
C1260 C1257 1.463 1_556 S
C1260 N1264 1.427 . S
C1261 H1251 0.929 . S
C1261 C1259 1.433 . S
C1261 N1264 1.384 . S
C1262 H1253 0.929 . S
C1262 C1254 1.378 . S
C1262 C1257 1.350 . S
C1263 H1250 0.929 . S
C1263 C1255 1.433 . S
C1263 N1265 1.384 . S
N1264 C1260 1.427 . S
N1264 C1261 1.384 . S
N1265 C1257 1.427 . S
N1265 C1263 1.384 . S
H1266 C1272 0.930 . S
H1267 C1276 0.930 . S
H1268 C1281 0.929 . S
H1269 C1279 0.929 . S
H1270 C1274 0.929 . S
H1271 C1280 0.929 . S
C1272 H1266 0.930 . S
C1272 C1273 1.367 . S
C1272 C1280 1.378 . S
C1273 C1272 1.367 . S
C1273 C1281 1.433 . S
C1274 H1270 0.929 . S
C1274 C1276 1.378 . S
C1274 C1278 1.350 . S
C1275 C1278 1.463 1_554 S
C1275 C1280 1.350 . S
C1275 N1283 1.427 . S
C1276 H1267 0.930 . S
C1276 C1274 1.378 . S
C1276 C1277 1.367 . S
C1277 C1276 1.367 . S
C1277 C1279 1.433 . S
C1278 C1274 1.350 . S
C1278 C1275 1.463 1_556 S
C1278 N1282 1.427 . S
C1279 H1269 0.929 . S
C1279 C1277 1.433 . S
C1279 N1282 1.384 . S
C1280 H1271 0.929 . S
C1280 C1272 1.378 . S
C1280 C1275 1.350 . S
C1281 H1268 0.929 . S
C1281 C1273 1.433 . S
C1281 N1283 1.384 . S
N1282 C1278 1.427 . S
N1282 C1279 1.384 . S
N1283 C1275 1.427 . S
N1283 C1281 1.384 . S
H1284 C1290 0.930 . S
H1285 C1294 0.930 . S
H1286 C1299 0.929 . S
H1287 C1297 0.929 . S
H1288 C1292 0.929 . S
H1289 C1298 0.929 . S
C1290 H1284 0.930 . S
C1290 C1291 1.367 . S
C1290 C1298 1.378 . S
C1291 C1290 1.367 . S
C1291 C1299 1.433 . S
C1292 H1288 0.929 . S
C1292 C1294 1.378 . S
C1292 C1296 1.350 . S
C1293 C1296 1.463 1_554 S
C1293 C1298 1.350 . S
C1293 N1301 1.427 . S
C1294 H1285 0.930 . S
C1294 C1292 1.378 . S
C1294 C1295 1.367 . S
C1295 C1294 1.367 . S
C1295 C1297 1.433 . S
C1296 C1292 1.350 . S
C1296 C1293 1.463 1_556 S
C1296 N1300 1.427 . S
C1297 H1287 0.929 . S
C1297 C1295 1.433 . S
C1297 N1300 1.384 . S
C1298 H1289 0.929 . S
C1298 C1290 1.378 . S
C1298 C1293 1.350 . S
C1299 H1286 0.929 . S
C1299 C1291 1.433 . S
C1299 N1301 1.384 . S
N1300 C1296 1.427 . S
N1300 C1297 1.384 . S
N1301 C1293 1.427 . S
N1301 C1299 1.384 . S
H1302 C1308 0.930 . S
H1303 C1312 0.930 . S
H1304 C1317 0.929 . S
H1305 C1315 0.929 . S
H1306 C1310 0.929 . S
H1307 C1316 0.929 . S
C1308 H1302 0.930 . S
C1308 C1309 1.367 . S
C1308 C1316 1.378 . S
C1309 C1308 1.367 . S
C1309 C1317 1.433 . S
C1310 H1306 0.929 . S
C1310 C1312 1.378 . S
C1310 C1314 1.350 . S
C1311 C1314 1.463 1_556 S
C1311 C1316 1.350 . S
C1311 N1319 1.427 . S
C1312 H1303 0.930 . S
C1312 C1310 1.378 . S
C1312 C1313 1.367 . S
C1313 C1312 1.367 . S
C1313 C1315 1.433 . S
C1314 C1310 1.350 . S
C1314 C1311 1.463 1_554 S
C1314 N1318 1.427 . S
C1315 H1305 0.929 . S
C1315 C1313 1.433 . S
C1315 N1318 1.384 . S
C1316 H1307 0.929 . S
C1316 C1308 1.378 . S
C1316 C1311 1.350 . S
C1317 H1304 0.929 . S
C1317 C1309 1.433 . S
C1317 N1319 1.384 . S
N1318 C1314 1.427 . S
N1318 C1315 1.384 . S
N1319 C1311 1.427 . S
N1319 C1317 1.384 . S
H1320 C1326 0.930 . S
H1321 C1330 0.930 . S
H1322 C1335 0.929 . S
H1323 C1333 0.929 . S
H1324 C1328 0.929 . S
H1325 C1334 0.929 . S
C1326 H1320 0.930 . S
C1326 C1327 1.367 . S
C1326 C1334 1.378 . S
C1327 C1326 1.367 . S
C1327 C1335 1.433 . S
C1328 H1324 0.929 . S
C1328 C1330 1.378 . S
C1328 C1332 1.350 . S
C1329 C1332 1.463 1_554 S
C1329 C1334 1.350 . S
C1329 N1337 1.427 . S
C1330 H1321 0.930 . S
C1330 C1328 1.378 . S
C1330 C1331 1.367 . S
C1331 C1330 1.367 . S
C1331 C1333 1.433 . S
C1332 C1328 1.350 . S
C1332 C1329 1.463 1_556 S
C1332 N1336 1.427 . S
C1333 H1323 0.929 . S
C1333 C1331 1.433 . S
C1333 N1336 1.384 . S
C1334 H1325 0.929 . S
C1334 C1326 1.378 . S
C1334 C1329 1.350 . S
C1335 H1322 0.929 . S
C1335 C1327 1.433 . S
C1335 N1337 1.384 . S
N1336 C1332 1.427 . S
N1336 C1333 1.384 . S
N1337 C1329 1.427 . S
N1337 C1335 1.384 . S
H1338 C1344 0.930 . S
H1339 C1348 0.930 . S
H1340 C1353 0.929 . S
H1341 C1351 0.929 . S
H1342 C1346 0.929 . S
H1343 C1352 0.929 . S
C1344 H1338 0.930 . S
C1344 C1345 1.367 . S
C1344 C1352 1.378 . S
C1345 C1344 1.367 . S
C1345 C1353 1.433 . S
C1346 H1342 0.929 . S
C1346 C1348 1.378 . S
C1346 C1350 1.350 . S
C1347 C1350 1.463 1_554 S
C1347 C1352 1.350 . S
C1347 N1355 1.427 . S
C1348 H1339 0.930 . S
C1348 C1346 1.378 . S
C1348 C1349 1.367 . S
C1349 C1348 1.367 . S
C1349 C1351 1.433 . S
C1350 C1346 1.350 . S
C1350 C1347 1.463 1_556 S
C1350 N1354 1.427 . S
C1351 H1341 0.929 . S
C1351 C1349 1.433 . S
C1351 N1354 1.384 . S
C1352 H1343 0.929 . S
C1352 C1344 1.378 . S
C1352 C1347 1.350 . S
C1353 H1340 0.929 . S
C1353 C1345 1.433 . S
C1353 N1355 1.384 . S
N1354 C1350 1.427 . S
N1354 C1351 1.384 . S
N1355 C1347 1.427 . S
N1355 C1353 1.384 . S
H1356 C1362 0.930 . S
H1357 C1366 0.930 . S
H1358 C1371 0.929 . S
H1359 C1369 0.929 . S
H1360 C1364 0.929 . S
H1361 C1370 0.929 . S
C1362 H1356 0.930 . S
C1362 C1363 1.367 . S
C1362 C1370 1.378 . S
C1363 C1362 1.367 . S
C1363 C1371 1.433 . S
C1364 H1360 0.929 . S
C1364 C1366 1.378 . S
C1364 C1368 1.350 . S
C1365 C1368 1.463 . S
C1365 C1370 1.350 . S
C1365 N1373 1.427 . S
C1366 H1357 0.930 . S
C1366 C1364 1.378 . S
C1366 C1367 1.367 . S
C1367 C1366 1.367 . S
C1367 C1369 1.433 . S
C1368 C1364 1.350 . S
C1368 C1365 1.463 . S
C1368 N1372 1.427 . S
C1369 H1359 0.929 . S
C1369 C1367 1.433 . S
C1369 N1372 1.384 . S
C1370 H1361 0.929 . S
C1370 C1362 1.378 . S
C1370 C1365 1.350 . S
C1371 H1358 0.929 . S
C1371 C1363 1.433 . S
C1371 N1373 1.384 . S
N1372 C1368 1.427 . S
N1372 C1369 1.384 . S
N1373 C1365 1.427 . S
N1373 C1371 1.384 . S
H1374 C1380 0.930 . S
H1375 C1384 0.930 . S
H1376 C1389 0.929 . S
H1377 C1387 0.929 . S
H1378 C1382 0.929 . S
H1379 C1388 0.929 . S
C1380 H1374 0.930 . S
C1380 C1381 1.367 . S
C1380 C1388 1.378 . S
C1381 C1380 1.367 . S
C1381 C1389 1.433 . S
C1382 H1378 0.929 . S
C1382 C1384 1.378 . S
C1382 C1386 1.350 . S
C1383 C1386 1.463 . S
C1383 C1388 1.350 . S
C1383 N1391 1.427 . S
C1384 H1375 0.930 . S
C1384 C1382 1.378 . S
C1384 C1385 1.367 . S
C1385 C1384 1.367 . S
C1385 C1387 1.433 . S
C1386 C1382 1.350 . S
C1386 C1383 1.463 . S
C1386 N1390 1.427 . S
C1387 H1377 0.929 . S
C1387 C1385 1.433 . S
C1387 N1390 1.384 . S
C1388 H1379 0.929 . S
C1388 C1380 1.378 . S
C1388 C1383 1.350 . S
C1389 H1376 0.929 . S
C1389 C1381 1.433 . S
C1389 N1391 1.384 . S
N1390 C1386 1.427 . S
N1390 C1387 1.384 . S
N1391 C1383 1.427 . S
N1391 C1389 1.384 . S
H1392 C1398 0.930 . S
H1393 C1402 0.930 . S
H1394 C1407 0.929 . S
H1395 C1405 0.929 . S
H1396 C1400 0.929 . S
H1397 C1406 0.929 . S
C1398 H1392 0.930 . S
C1398 C1399 1.367 . S
C1398 C1406 1.378 . S
C1399 C1398 1.367 . S
C1399 C1407 1.433 . S
C1400 H1396 0.929 . S
C1400 C1402 1.378 . S
C1400 C1404 1.350 . S
C1401 C1404 1.463 . S
C1401 C1406 1.350 . S
C1401 N1409 1.427 . S
C1402 H1393 0.930 . S
C1402 C1400 1.378 . S
C1402 C1403 1.367 . S
C1403 C1402 1.367 . S
C1403 C1405 1.433 . S
C1404 C1400 1.350 . S
C1404 C1401 1.463 . S
C1404 N1408 1.427 . S
C1405 H1395 0.929 . S
C1405 C1403 1.433 . S
C1405 N1408 1.384 . S
C1406 H1397 0.929 . S
C1406 C1398 1.378 . S
C1406 C1401 1.350 . S
C1407 H1394 0.929 . S
C1407 C1399 1.433 . S
C1407 N1409 1.384 . S
N1408 C1404 1.427 . S
N1408 C1405 1.384 . S
N1409 C1401 1.427 . S
N1409 C1407 1.384 . S
H1410 C1416 0.930 . S
H1411 C1420 0.930 . S
H1412 C1425 0.929 . S
H1413 C1423 0.929 . S
H1414 C1418 0.929 . S
H1415 C1424 0.929 . S
C1416 H1410 0.930 . S
C1416 C1417 1.367 . S
C1416 C1424 1.378 . S
C1417 C1416 1.367 . S
C1417 C1425 1.433 . S
C1418 H1414 0.929 . S
C1418 C1420 1.378 . S
C1418 C1422 1.350 . S
C1419 C1422 1.463 . S
C1419 C1424 1.350 . S
C1419 N1427 1.427 . S
C1420 H1411 0.930 . S
C1420 C1418 1.378 . S
C1420 C1421 1.367 . S
C1421 C1420 1.367 . S
C1421 C1423 1.433 . S
C1422 C1418 1.350 . S
C1422 C1419 1.463 . S
C1422 N1426 1.427 . S
C1423 H1413 0.929 . S
C1423 C1421 1.433 . S
C1423 N1426 1.384 . S
C1424 H1415 0.929 . S
C1424 C1416 1.378 . S
C1424 C1419 1.350 . S
C1425 H1412 0.929 . S
C1425 C1417 1.433 . S
C1425 N1427 1.384 . S
N1426 C1422 1.427 . S
N1426 C1423 1.384 . S
N1427 C1419 1.427 . S
N1427 C1425 1.384 . S
H1428 C1434 0.930 . S
H1429 C1438 0.930 . S
H1430 C1443 0.929 . S
H1431 C1441 0.929 . S
H1432 C1436 0.929 . S
H1433 C1442 0.929 . S
C1434 H1428 0.930 . S
C1434 C1435 1.367 . S
C1434 C1442 1.378 . S
C1435 C1434 1.367 . S
C1435 C1443 1.433 . S
C1436 H1432 0.929 . S
C1436 C1438 1.378 . S
C1436 C1440 1.350 . S
C1437 C1440 1.463 . S
C1437 C1442 1.350 . S
C1437 N1445 1.427 . S
C1438 H1429 0.930 . S
C1438 C1436 1.378 . S
C1438 C1439 1.367 . S
C1439 C1438 1.367 . S
C1439 C1441 1.433 . S
C1440 C1436 1.350 . S
C1440 C1437 1.463 . S
C1440 N1444 1.427 . S
C1441 H1431 0.929 . S
C1441 C1439 1.433 . S
C1441 N1444 1.384 . S
C1442 H1433 0.929 . S
C1442 C1434 1.378 . S
C1442 C1437 1.350 . S
C1443 H1430 0.929 . S
C1443 C1435 1.433 . S
C1443 N1445 1.384 . S
N1444 C1440 1.427 . S
N1444 C1441 1.384 . S
N1445 C1437 1.427 . S
N1445 C1443 1.384 . S
H1446 C1452 0.930 . S
H1447 C1456 0.930 . S
H1448 C1461 0.929 . S
H1449 C1459 0.929 . S
H1450 C1454 0.929 . S
H1451 C1460 0.929 . S
C1452 H1446 0.930 . S
C1452 C1453 1.367 . S
C1452 C1460 1.378 . S
C1453 C1452 1.367 . S
C1453 C1461 1.433 . S
C1454 H1450 0.929 . S
C1454 C1456 1.378 . S
C1454 C1458 1.350 . S
C1455 C1458 1.463 . S
C1455 C1460 1.350 . S
C1455 N1463 1.427 . S
C1456 H1447 0.930 . S
C1456 C1454 1.378 . S
C1456 C1457 1.367 . S
C1457 C1456 1.367 . S
C1457 C1459 1.433 . S
C1458 C1454 1.350 . S
C1458 C1455 1.463 . S
C1458 N1462 1.427 . S
C1459 H1449 0.929 . S
C1459 C1457 1.433 . S
C1459 N1462 1.384 . S
C1460 H1451 0.929 . S
C1460 C1452 1.378 . S
C1460 C1455 1.350 . S
C1461 H1448 0.929 . S
C1461 C1453 1.433 . S
C1461 N1463 1.384 . S
N1462 C1458 1.427 . S
N1462 C1459 1.384 . S
N1463 C1455 1.427 . S
N1463 C1461 1.384 . S
H1464 C1470 0.930 . S
H1465 C1474 0.930 . S
H1466 C1479 0.929 . S
H1467 C1477 0.929 . S
H1468 C1472 0.929 . S
H1469 C1478 0.929 . S
C1470 H1464 0.930 . S
C1470 C1471 1.367 . S
C1470 C1478 1.378 . S
C1471 C1470 1.367 . S
C1471 C1479 1.433 . S
C1472 H1468 0.929 . S
C1472 C1474 1.378 . S
C1472 C1476 1.350 . S
C1473 C1476 1.463 . S
C1473 C1478 1.350 . S
C1473 N1481 1.427 . S
C1474 H1465 0.930 . S
C1474 C1472 1.378 . S
C1474 C1475 1.367 . S
C1475 C1474 1.367 . S
C1475 C1477 1.433 . S
C1476 C1472 1.350 . S
C1476 C1473 1.463 . S
C1476 N1480 1.427 . S
C1477 H1467 0.929 . S
C1477 C1475 1.433 . S
C1477 N1480 1.384 . S
C1478 H1469 0.929 . S
C1478 C1470 1.378 . S
C1478 C1473 1.350 . S
C1479 H1466 0.929 . S
C1479 C1471 1.433 . S
C1479 N1481 1.384 . S
N1480 C1476 1.427 . S
N1480 C1477 1.384 . S
N1481 C1473 1.427 . S
N1481 C1479 1.384 . S
H1482 C1488 0.930 . S
H1483 C1492 0.930 . S
H1484 C1497 0.929 . S
H1485 C1495 0.929 . S
H1486 C1490 0.929 . S
H1487 C1496 0.929 . S
C1488 H1482 0.930 . S
C1488 C1489 1.367 . S
C1488 C1496 1.378 . S
C1489 C1488 1.367 . S
C1489 C1497 1.433 . S
C1490 H1486 0.929 . S
C1490 C1492 1.378 . S
C1490 C1494 1.350 . S
C1491 C1494 1.463 . S
C1491 C1496 1.350 . S
C1491 N1499 1.427 . S
C1492 H1483 0.930 . S
C1492 C1490 1.378 . S
C1492 C1493 1.367 . S
C1493 C1492 1.367 . S
C1493 C1495 1.433 . S
C1494 C1490 1.350 . S
C1494 C1491 1.463 . S
C1494 N1498 1.427 . S
C1495 H1485 0.929 . S
C1495 C1493 1.433 . S
C1495 N1498 1.384 . S
C1496 H1487 0.929 . S
C1496 C1488 1.378 . S
C1496 C1491 1.350 . S
C1497 H1484 0.929 . S
C1497 C1489 1.433 . S
C1497 N1499 1.384 . S
N1498 C1494 1.427 . S
N1498 C1495 1.384 . S
N1499 C1491 1.427 . S
N1499 C1497 1.384 . S
H1500 C1506 0.930 . S
H1501 C1510 0.930 . S
H1502 C1515 0.929 . S
H1503 C1513 0.929 . S
H1504 C1508 0.929 . S
H1505 C1514 0.929 . S
C1506 H1500 0.930 . S
C1506 C1507 1.367 . S
C1506 C1514 1.378 . S
C1507 C1506 1.367 . S
C1507 C1515 1.433 . S
C1508 H1504 0.929 . S
C1508 C1510 1.378 . S
C1508 C1512 1.350 . S
C1509 C1512 1.463 . S
C1509 C1514 1.350 . S
C1509 N1517 1.427 . S
C1510 H1501 0.930 . S
C1510 C1508 1.378 . S
C1510 C1511 1.367 . S
C1511 C1510 1.367 . S
C1511 C1513 1.433 . S
C1512 C1508 1.350 . S
C1512 C1509 1.463 . S
C1512 N1516 1.427 . S
C1513 H1503 0.929 . S
C1513 C1511 1.433 . S
C1513 N1516 1.384 . S
C1514 H1505 0.929 . S
C1514 C1506 1.378 . S
C1514 C1509 1.350 . S
C1515 H1502 0.929 . S
C1515 C1507 1.433 . S
C1515 N1517 1.384 . S
N1516 C1512 1.427 . S
N1516 C1513 1.384 . S
N1517 C1509 1.427 . S
N1517 C1515 1.384 . S
H1518 C1524 0.930 . S
H1519 C1528 0.930 . S
H1520 C1533 0.929 . S
H1521 C1531 0.929 . S
H1522 C1526 0.929 . S
H1523 C1532 0.929 . S
C1524 H1518 0.930 . S
C1524 C1525 1.367 . S
C1524 C1532 1.378 . S
C1525 C1524 1.367 . S
C1525 C1533 1.433 . S
C1526 H1522 0.929 . S
C1526 C1528 1.378 . S
C1526 C1530 1.350 . S
C1527 C1530 1.463 . S
C1527 C1532 1.350 . S
C1527 N1535 1.427 . S
C1528 H1519 0.930 . S
C1528 C1526 1.378 . S
C1528 C1529 1.367 . S
C1529 C1528 1.367 . S
C1529 C1531 1.433 . S
C1530 C1526 1.350 . S
C1530 C1527 1.463 . S
C1530 N1534 1.427 . S
C1531 H1521 0.929 . S
C1531 C1529 1.433 . S
C1531 N1534 1.384 . S
C1532 H1523 0.929 . S
C1532 C1524 1.378 . S
C1532 C1527 1.350 . S
C1533 H1520 0.929 . S
C1533 C1525 1.433 . S
C1533 N1535 1.384 . S
N1534 C1530 1.427 . S
N1534 C1531 1.384 . S
N1535 C1527 1.427 . S
N1535 C1533 1.384 . S
H1536 C1542 0.930 . S
H1537 C1546 0.930 . S
H1538 C1551 0.929 . S
H1539 C1549 0.929 . S
H1540 C1544 0.929 . S
H1541 C1550 0.929 . S
C1542 H1536 0.930 . S
C1542 C1543 1.367 . S
C1542 C1550 1.378 . S
C1543 C1542 1.367 . S
C1543 C1551 1.433 . S
C1544 H1540 0.929 . S
C1544 C1546 1.378 . S
C1544 C1548 1.350 . S
C1545 C1548 1.463 . S
C1545 C1550 1.350 . S
C1545 N1553 1.427 . S
C1546 H1537 0.930 . S
C1546 C1544 1.378 . S
C1546 C1547 1.367 . S
C1547 C1546 1.367 . S
C1547 C1549 1.433 . S
C1548 C1544 1.350 . S
C1548 C1545 1.463 . S
C1548 N1552 1.427 . S
C1549 H1539 0.929 . S
C1549 C1547 1.433 . S
C1549 N1552 1.384 . S
C1550 H1541 0.929 . S
C1550 C1542 1.378 . S
C1550 C1545 1.350 . S
C1551 H1538 0.929 . S
C1551 C1543 1.433 . S
C1551 N1553 1.384 . S
N1552 C1548 1.427 . S
N1552 C1549 1.384 . S
N1553 C1545 1.427 . S
N1553 C1551 1.384 . S
H1554 C1560 0.930 . S
H1555 C1564 0.930 . S
H1556 C1569 0.929 . S
H1557 C1567 0.929 . S
H1558 C1562 0.929 . S
H1559 C1568 0.929 . S
C1560 H1554 0.930 . S
C1560 C1561 1.367 . S
C1560 C1568 1.378 . S
C1561 C1560 1.367 . S
C1561 C1569 1.433 . S
C1562 H1558 0.929 . S
C1562 C1564 1.378 . S
C1562 C1566 1.350 . S
C1563 C1566 1.463 . S
C1563 C1568 1.350 . S
C1563 N1571 1.427 . S
C1564 H1555 0.930 . S
C1564 C1562 1.378 . S
C1564 C1565 1.367 . S
C1565 C1564 1.367 . S
C1565 C1567 1.433 . S
C1566 C1562 1.350 . S
C1566 C1563 1.463 . S
C1566 N1570 1.427 . S
C1567 H1557 0.929 . S
C1567 C1565 1.433 . S
C1567 N1570 1.384 . S
C1568 H1559 0.929 . S
C1568 C1560 1.378 . S
C1568 C1563 1.350 . S
C1569 H1556 0.929 . S
C1569 C1561 1.433 . S
C1569 N1571 1.384 . S
N1570 C1566 1.427 . S
N1570 C1567 1.384 . S
N1571 C1563 1.427 . S
N1571 C1569 1.384 . S
H1572 C1578 0.930 . S
H1573 C1582 0.930 . S
H1574 C1587 0.929 . S
H1575 C1585 0.929 . S
H1576 C1580 0.929 . S
H1577 C1586 0.929 . S
C1578 H1572 0.930 . S
C1578 C1579 1.367 . S
C1578 C1586 1.378 . S
C1579 C1578 1.367 . S
C1579 C1587 1.433 . S
C1580 H1576 0.929 . S
C1580 C1582 1.378 . S
C1580 C1584 1.350 . S
C1581 C1584 1.463 . S
C1581 C1586 1.350 . S
C1581 N1589 1.427 . S
C1582 H1573 0.930 . S
C1582 C1580 1.378 . S
C1582 C1583 1.367 . S
C1583 C1582 1.367 . S
C1583 C1585 1.433 . S
C1584 C1580 1.350 . S
C1584 C1581 1.463 . S
C1584 N1588 1.427 . S
C1585 H1575 0.929 . S
C1585 C1583 1.433 . S
C1585 N1588 1.384 . S
C1586 H1577 0.929 . S
C1586 C1578 1.378 . S
C1586 C1581 1.350 . S
C1587 H1574 0.929 . S
C1587 C1579 1.433 . S
C1587 N1589 1.384 . S
N1588 C1584 1.427 . S
N1588 C1585 1.384 . S
N1589 C1581 1.427 . S
N1589 C1587 1.384 . S
H1590 C1596 0.930 . S
H1591 C1600 0.930 . S
H1592 C1605 0.929 . S
H1593 C1603 0.929 . S
H1594 C1598 0.929 . S
H1595 C1604 0.929 . S
C1596 H1590 0.930 . S
C1596 C1597 1.367 . S
C1596 C1604 1.378 . S
C1597 C1596 1.367 . S
C1597 C1605 1.433 . S
C1598 H1594 0.929 . S
C1598 C1600 1.378 . S
C1598 C1602 1.350 . S
C1599 C1602 1.463 . S
C1599 C1604 1.350 . S
C1599 N1607 1.427 . S
C1600 H1591 0.930 . S
C1600 C1598 1.378 . S
C1600 C1601 1.367 . S
C1601 C1600 1.367 . S
C1601 C1603 1.433 . S
C1602 C1598 1.350 . S
C1602 C1599 1.463 . S
C1602 N1606 1.427 . S
C1603 H1593 0.929 . S
C1603 C1601 1.433 . S
C1603 N1606 1.384 . S
C1604 H1595 0.929 . S
C1604 C1596 1.378 . S
C1604 C1599 1.350 . S
C1605 H1592 0.929 . S
C1605 C1597 1.433 . S
C1605 N1607 1.384 . S
N1606 C1602 1.427 . S
N1606 C1603 1.384 . S
N1607 C1599 1.427 . S
N1607 C1605 1.384 . S
H1608 C1614 0.930 . S
H1609 C1618 0.930 . S
H1610 C1623 0.929 . S
H1611 C1621 0.929 . S
H1612 C1616 0.929 . S
H1613 C1622 0.929 . S
C1614 H1608 0.930 . S
C1614 C1615 1.367 . S
C1614 C1622 1.378 . S
C1615 C1614 1.367 . S
C1615 C1623 1.433 . S
C1616 H1612 0.929 . S
C1616 C1618 1.378 . S
C1616 C1620 1.350 . S
C1617 C1620 1.463 . S
C1617 C1622 1.350 . S
C1617 N1625 1.427 . S
C1618 H1609 0.930 . S
C1618 C1616 1.378 . S
C1618 C1619 1.367 . S
C1619 C1618 1.367 . S
C1619 C1621 1.433 . S
C1620 C1616 1.350 . S
C1620 C1617 1.463 . S
C1620 N1624 1.427 . S
C1621 H1611 0.929 . S
C1621 C1619 1.433 . S
C1621 N1624 1.384 . S
C1622 H1613 0.929 . S
C1622 C1614 1.378 . S
C1622 C1617 1.350 . S
C1623 H1610 0.929 . S
C1623 C1615 1.433 . S
C1623 N1625 1.384 . S
N1624 C1620 1.427 . S
N1624 C1621 1.384 . S
N1625 C1617 1.427 . S
N1625 C1623 1.384 . S
H1626 C1632 0.930 . S
H1627 C1636 0.930 . S
H1628 C1641 0.929 . S
H1629 C1639 0.929 . S
H1630 C1634 0.929 . S
H1631 C1640 0.929 . S
C1632 H1626 0.930 . S
C1632 C1633 1.367 . S
C1632 C1640 1.378 . S
C1633 C1632 1.367 . S
C1633 C1641 1.433 . S
C1634 H1630 0.929 . S
C1634 C1636 1.378 . S
C1634 C1638 1.350 . S
C1635 C1638 1.463 . S
C1635 C1640 1.350 . S
C1635 N1643 1.427 . S
C1636 H1627 0.930 . S
C1636 C1634 1.378 . S
C1636 C1637 1.367 . S
C1637 C1636 1.367 . S
C1637 C1639 1.433 . S
C1638 C1634 1.350 . S
C1638 C1635 1.463 . S
C1638 N1642 1.427 . S
C1639 H1629 0.929 . S
C1639 C1637 1.433 . S
C1639 N1642 1.384 . S
C1640 H1631 0.929 . S
C1640 C1632 1.378 . S
C1640 C1635 1.350 . S
C1641 H1628 0.929 . S
C1641 C1633 1.433 . S
C1641 N1643 1.384 . S
N1642 C1638 1.427 . S
N1642 C1639 1.384 . S
N1643 C1635 1.427 . S
N1643 C1641 1.384 . S
H1644 C1650 0.930 . S
H1645 C1654 0.930 . S
H1646 C1659 0.929 . S
H1647 C1657 0.929 . S
H1648 C1652 0.929 . S
H1649 C1658 0.929 . S
C1650 H1644 0.930 . S
C1650 C1651 1.367 . S
C1650 C1658 1.378 . S
C1651 C1650 1.367 . S
C1651 C1659 1.433 . S
C1652 H1648 0.929 . S
C1652 C1654 1.378 . S
C1652 C1656 1.350 . S
C1653 C1656 1.463 . S
C1653 C1658 1.350 . S
C1653 N1661 1.427 . S
C1654 H1645 0.930 . S
C1654 C1652 1.378 . S
C1654 C1655 1.367 . S
C1655 C1654 1.367 . S
C1655 C1657 1.433 . S
C1656 C1652 1.350 . S
C1656 C1653 1.463 . S
C1656 N1660 1.427 . S
C1657 H1647 0.929 . S
C1657 C1655 1.433 . S
C1657 N1660 1.384 . S
C1658 H1649 0.929 . S
C1658 C1650 1.378 . S
C1658 C1653 1.350 . S
C1659 H1646 0.929 . S
C1659 C1651 1.433 . S
C1659 N1661 1.384 . S
N1660 C1656 1.427 . S
N1660 C1657 1.384 . S
N1661 C1653 1.427 . S
N1661 C1659 1.384 . S
H1662 C1668 0.930 . S
H1663 C1672 0.930 . S
H1664 C1677 0.929 . S
H1665 C1675 0.929 . S
H1666 C1670 0.929 . S
H1667 C1676 0.929 . S
C1668 H1662 0.930 . S
C1668 C1669 1.367 . S
C1668 C1676 1.378 . S
C1669 C1668 1.367 . S
C1669 C1677 1.433 . S
C1670 H1666 0.929 . S
C1670 C1672 1.378 . S
C1670 C1674 1.350 . S
C1671 C1674 1.463 . S
C1671 C1676 1.350 . S
C1671 N1679 1.427 . S
C1672 H1663 0.930 . S
C1672 C1670 1.378 . S
C1672 C1673 1.367 . S
C1673 C1672 1.367 . S
C1673 C1675 1.433 . S
C1674 C1670 1.350 . S
C1674 C1671 1.463 . S
C1674 N1678 1.427 . S
C1675 H1665 0.929 . S
C1675 C1673 1.433 . S
C1675 N1678 1.384 . S
C1676 H1667 0.929 . S
C1676 C1668 1.378 . S
C1676 C1671 1.350 . S
C1677 H1664 0.929 . S
C1677 C1669 1.433 . S
C1677 N1679 1.384 . S
N1678 C1674 1.427 . S
N1678 C1675 1.384 . S
N1679 C1671 1.427 . S
N1679 C1677 1.384 . S
H1680 C1686 0.930 . S
H1681 C1690 0.930 . S
H1682 C1695 0.929 . S
H1683 C1693 0.929 . S
H1684 C1688 0.929 . S
H1685 C1694 0.929 . S
C1686 H1680 0.930 . S
C1686 C1687 1.367 . S
C1686 C1694 1.378 . S
C1687 C1686 1.367 . S
C1687 C1695 1.433 . S
C1688 H1684 0.929 . S
C1688 C1690 1.378 . S
C1688 C1692 1.350 . S
C1689 C1692 1.463 1_545 S
C1689 C1694 1.350 . S
C1689 N1697 1.427 1_545 S
C1690 H1681 0.930 . S
C1690 C1688 1.378 . S
C1690 C1691 1.367 . S
C1691 C1690 1.367 . S
C1691 C1693 1.433 . S
C1692 C1688 1.350 . S
C1692 C1689 1.463 1_565 S
C1692 N1696 1.427 1_565 S
C1693 H1683 0.929 . S
C1693 C1691 1.433 . S
C1693 N1696 1.384 1_565 S
C1694 H1685 0.929 . S
C1694 C1686 1.378 . S
C1694 C1689 1.350 . S
C1695 H1682 0.929 . S
C1695 C1687 1.433 . S
C1695 N1697 1.384 1_545 S
N1696 C1692 1.427 1_545 S
N1696 C1693 1.384 1_545 S
N1697 C1689 1.427 1_565 S
N1697 C1695 1.384 1_565 S
H1698 C1704 0.930 . S
H1699 C1708 0.930 . S
H1700 C1713 0.929 . S
H1701 C1711 0.929 . S
H1702 C1706 0.929 . S
H1703 C1712 0.929 . S
C1704 H1698 0.930 . S
C1704 C1705 1.367 . S
C1704 C1712 1.378 . S
C1705 C1704 1.367 . S
C1705 C1713 1.433 . S
C1706 H1702 0.929 . S
C1706 C1708 1.378 . S
C1706 C1710 1.350 . S
C1707 C1710 1.463 . S
C1707 C1712 1.350 . S
C1707 N1715 1.427 . S
C1708 H1699 0.930 . S
C1708 C1706 1.378 . S
C1708 C1709 1.367 . S
C1709 C1708 1.367 . S
C1709 C1711 1.433 . S
C1710 C1706 1.350 . S
C1710 C1707 1.463 . S
C1710 N1714 1.427 . S
C1711 H1701 0.929 . S
C1711 C1709 1.433 . S
C1711 N1714 1.384 . S
C1712 H1703 0.929 . S
C1712 C1704 1.378 . S
C1712 C1707 1.350 . S
C1713 H1700 0.929 . S
C1713 C1705 1.433 . S
C1713 N1715 1.384 . S
N1714 C1710 1.427 . S
N1714 C1711 1.384 . S
N1715 C1707 1.427 . S
N1715 C1713 1.384 . S
H1716 C1722 0.930 . S
H1717 C1726 0.930 . S
H1718 C1731 0.929 . S
H1719 C1729 0.929 . S
H1720 C1724 0.929 . S
H1721 C1730 0.929 . S
C1722 H1716 0.930 . S
C1722 C1723 1.367 . S
C1722 C1730 1.378 . S
C1723 C1722 1.367 . S
C1723 C1731 1.433 . S
C1724 H1720 0.929 . S
C1724 C1726 1.378 . S
C1724 C1728 1.350 . S
C1725 C1728 1.463 1_655 S
C1725 C1730 1.350 . S
C1725 N1733 1.427 . S
C1726 H1717 0.930 . S
C1726 C1724 1.378 . S
C1726 C1727 1.367 . S
C1727 C1726 1.367 . S
C1727 C1729 1.433 . S
C1728 C1724 1.350 . S
C1728 C1725 1.463 1_455 S
C1728 N1732 1.427 . S
C1729 H1719 0.929 . S
C1729 C1727 1.433 . S
C1729 N1732 1.384 . S
C1730 H1721 0.929 . S
C1730 C1722 1.378 . S
C1730 C1725 1.350 . S
C1731 H1718 0.929 . S
C1731 C1723 1.433 . S
C1731 N1733 1.384 . S
N1732 C1728 1.427 . S
N1732 C1729 1.384 . S
N1733 C1725 1.427 . S
N1733 C1731 1.384 . S
H1734 C1740 0.930 . S
H1735 C1744 0.930 . S
H1736 C1749 0.929 . S
H1737 C1747 0.929 . S
H1738 C1742 0.929 . S
H1739 C1748 0.929 . S
C1740 H1734 0.930 . S
C1740 C1741 1.367 . S
C1740 C1748 1.378 . S
C1741 C1740 1.367 . S
C1741 C1749 1.433 . S
C1742 H1738 0.929 . S
C1742 C1744 1.378 . S
C1742 C1746 1.350 . S
C1743 C1746 1.463 1_455 S
C1743 C1748 1.350 . S
C1743 N1751 1.427 . S
C1744 H1735 0.930 . S
C1744 C1742 1.378 . S
C1744 C1745 1.367 . S
C1745 C1744 1.367 . S
C1745 C1747 1.433 . S
C1746 C1742 1.350 . S
C1746 C1743 1.463 1_655 S
C1746 N1750 1.427 . S
C1747 H1737 0.929 . S
C1747 C1745 1.433 . S
C1747 N1750 1.384 . S
C1748 H1739 0.929 . S
C1748 C1740 1.378 . S
C1748 C1743 1.350 . S
C1749 H1736 0.929 . S
C1749 C1741 1.433 . S
C1749 N1751 1.384 . S
N1750 C1746 1.427 . S
N1750 C1747 1.384 . S
N1751 C1743 1.427 . S
N1751 C1749 1.384 . S
H1752 C1758 0.930 . S
H1753 C1762 0.930 . S
H1754 C1767 0.929 . S
H1755 C1765 0.929 . S
H1756 C1760 0.929 . S
H1757 C1766 0.929 . S
C1758 H1752 0.930 . S
C1758 C1759 1.367 . S
C1758 C1766 1.378 . S
C1759 C1758 1.367 . S
C1759 C1767 1.433 . S
C1760 H1756 0.929 . S
C1760 C1762 1.378 . S
C1760 C1764 1.350 . S
C1761 C1764 1.463 1_545 S
C1761 C1766 1.350 . S
C1761 N1769 1.427 . S
C1762 H1753 0.930 . S
C1762 C1760 1.378 . S
C1762 C1763 1.367 . S
C1763 C1762 1.367 . S
C1763 C1765 1.433 . S
C1764 C1760 1.350 . S
C1764 C1761 1.463 1_565 S
C1764 N1768 1.427 . S
C1765 H1755 0.929 . S
C1765 C1763 1.433 . S
C1765 N1768 1.384 . S
C1766 H1757 0.929 . S
C1766 C1758 1.378 . S
C1766 C1761 1.350 . S
C1767 H1754 0.929 . S
C1767 C1759 1.433 . S
C1767 N1769 1.384 . S
N1768 C1764 1.427 . S
N1768 C1765 1.384 . S
N1769 C1761 1.427 . S
N1769 C1767 1.384 . S
H1770 C1776 0.930 . S
H1771 C1780 0.930 . S
H1772 C1785 0.929 . S
H1773 C1783 0.929 . S
H1774 C1778 0.929 . S
H1775 C1784 0.929 . S
C1776 H1770 0.930 . S
C1776 C1777 1.367 . S
C1776 C1784 1.378 . S
C1777 C1776 1.367 . S
C1777 C1785 1.433 . S
C1778 H1774 0.929 . S
C1778 C1780 1.378 . S
C1778 C1782 1.350 . S
C1779 C1782 1.463 . S
C1779 C1784 1.350 . S
C1779 N1787 1.427 . S
C1780 H1771 0.930 . S
C1780 C1778 1.378 . S
C1780 C1781 1.367 . S
C1781 C1780 1.367 . S
C1781 C1783 1.433 . S
C1782 C1778 1.350 . S
C1782 C1779 1.463 . S
C1782 N1786 1.427 . S
C1783 H1773 0.929 . S
C1783 C1781 1.433 . S
C1783 N1786 1.384 . S
C1784 H1775 0.929 . S
C1784 C1776 1.378 . S
C1784 C1779 1.350 . S
C1785 H1772 0.929 . S
C1785 C1777 1.433 . S
C1785 N1787 1.384 . S
N1786 C1782 1.427 . S
N1786 C1783 1.384 . S
N1787 C1779 1.427 . S
N1787 C1785 1.384 . S
H1788 C1794 0.930 . S
H1789 C1798 0.930 . S
H1790 C1803 0.929 . S
H1791 C1801 0.929 . S
H1792 C1796 0.929 . S
H1793 C1802 0.929 . S
C1794 H1788 0.930 . S
C1794 C1795 1.367 . S
C1794 C1802 1.378 . S
C1795 C1794 1.367 . S
C1795 C1803 1.433 . S
C1796 H1792 0.929 . S
C1796 C1798 1.378 . S
C1796 C1800 1.350 . S
C1797 C1800 1.463 1_545 S
C1797 C1802 1.350 . S
C1797 N1805 1.427 . S
C1798 H1789 0.930 . S
C1798 C1796 1.378 . S
C1798 C1799 1.367 . S
C1799 C1798 1.367 . S
C1799 C1801 1.433 . S
C1800 C1796 1.350 . S
C1800 C1797 1.463 1_565 S
C1800 N1804 1.427 . S
C1801 H1791 0.929 . S
C1801 C1799 1.433 . S
C1801 N1804 1.384 . S
C1802 H1793 0.929 . S
C1802 C1794 1.378 . S
C1802 C1797 1.350 . S
C1803 H1790 0.929 . S
C1803 C1795 1.433 . S
C1803 N1805 1.384 . S
N1804 C1800 1.427 . S
N1804 C1801 1.384 . S
N1805 C1797 1.427 . S
N1805 C1803 1.384 . S
H1806 C1812 0.930 . S
H1807 C1816 0.930 . S
H1808 C1821 0.929 . S
H1809 C1819 0.929 . S
H1810 C1814 0.929 . S
H1811 C1820 0.929 . S
C1812 H1806 0.930 . S
C1812 C1813 1.367 . S
C1812 C1820 1.378 . S
C1813 C1812 1.367 . S
C1813 C1821 1.433 . S
C1814 H1810 0.929 . S
C1814 C1816 1.378 . S
C1814 C1818 1.350 . S
C1815 C1818 1.463 . S
C1815 C1820 1.350 . S
C1815 N1823 1.427 . S
C1816 H1807 0.930 . S
C1816 C1814 1.378 . S
C1816 C1817 1.367 . S
C1817 C1816 1.367 . S
C1817 C1819 1.433 . S
C1818 C1814 1.350 . S
C1818 C1815 1.463 . S
C1818 N1822 1.427 . S
C1819 H1809 0.929 . S
C1819 C1817 1.433 . S
C1819 N1822 1.384 . S
C1820 H1811 0.929 . S
C1820 C1812 1.378 . S
C1820 C1815 1.350 . S
C1821 H1808 0.929 . S
C1821 C1813 1.433 . S
C1821 N1823 1.384 . S
N1822 C1818 1.427 . S
N1822 C1819 1.384 . S
N1823 C1815 1.427 . S
N1823 C1821 1.384 . S
H1824 C1830 0.930 . S
H1825 C1834 0.930 . S
H1826 C1839 0.929 . S
H1827 C1837 0.929 . S
H1828 C1832 0.929 . S
H1829 C1838 0.929 . S
C1830 H1824 0.930 . S
C1830 C1831 1.367 . S
C1830 C1838 1.378 . S
C1831 C1830 1.367 . S
C1831 C1839 1.433 . S
C1832 H1828 0.929 . S
C1832 C1834 1.378 . S
C1832 C1836 1.350 . S
C1833 C1836 1.463 1_455 S
C1833 C1838 1.350 . S
C1833 N1841 1.427 . S
C1834 H1825 0.930 . S
C1834 C1832 1.378 . S
C1834 C1835 1.367 . S
C1835 C1834 1.367 . S
C1835 C1837 1.433 . S
C1836 C1832 1.350 . S
C1836 C1833 1.463 1_655 S
C1836 N1840 1.427 . S
C1837 H1827 0.929 . S
C1837 C1835 1.433 . S
C1837 N1840 1.384 . S
C1838 H1829 0.929 . S
C1838 C1830 1.378 . S
C1838 C1833 1.350 . S
C1839 H1826 0.929 . S
C1839 C1831 1.433 . S
C1839 N1841 1.384 . S
N1840 C1836 1.427 . S
N1840 C1837 1.384 . S
N1841 C1833 1.427 . S
N1841 C1839 1.384 . S
H1842 C1848 0.930 . S
H1843 C1852 0.930 . S
H1844 C1857 0.929 . S
H1845 C1855 0.929 . S
H1846 C1850 0.929 . S
H1847 C1856 0.929 . S
C1848 H1842 0.930 . S
C1848 C1849 1.367 . S
C1848 C1856 1.378 . S
C1849 C1848 1.367 . S
C1849 C1857 1.433 . S
C1850 H1846 0.929 . S
C1850 C1852 1.378 . S
C1850 C1854 1.350 . S
C1851 C1854 1.463 1_655 S
C1851 C1856 1.350 . S
C1851 N1859 1.427 . S
C1852 H1843 0.930 . S
C1852 C1850 1.378 . S
C1852 C1853 1.367 . S
C1853 C1852 1.367 . S
C1853 C1855 1.433 . S
C1854 C1850 1.350 . S
C1854 C1851 1.463 1_455 S
C1854 N1858 1.427 . S
C1855 H1845 0.929 . S
C1855 C1853 1.433 . S
C1855 N1858 1.384 . S
C1856 H1847 0.929 . S
C1856 C1848 1.378 . S
C1856 C1851 1.350 . S
C1857 H1844 0.929 . S
C1857 C1849 1.433 . S
C1857 N1859 1.384 . S
N1858 C1854 1.427 . S
N1858 C1855 1.384 . S
N1859 C1851 1.427 . S
N1859 C1857 1.384 . S
H1860 C1866 0.930 . S
H1861 C1870 0.930 . S
H1862 C1875 0.929 . S
H1863 C1873 0.929 . S
H1864 C1868 0.929 . S
H1865 C1874 0.929 . S
C1866 H1860 0.930 . S
C1866 C1867 1.367 . S
C1866 C1874 1.378 1_545 S
C1867 C1866 1.367 . S
C1867 C1875 1.433 . S
C1868 H1864 0.929 . S
C1868 C1870 1.378 1_545 S
C1868 C1872 1.350 1_545 S
C1869 C1872 1.463 1_545 S
C1869 C1874 1.350 1_545 S
C1869 N1877 1.427 . S
C1870 H1861 0.930 . S
C1870 C1868 1.378 1_565 S
C1870 C1871 1.367 . S
C1871 C1870 1.367 . S
C1871 C1873 1.433 . S
C1872 C1868 1.350 1_565 S
C1872 C1869 1.463 1_565 S
C1872 N1876 1.427 . S
C1873 H1863 0.929 . S
C1873 C1871 1.433 . S
C1873 N1876 1.384 . S
C1874 H1865 0.929 . S
C1874 C1866 1.378 1_565 S
C1874 C1869 1.350 1_565 S
C1875 H1862 0.929 . S
C1875 C1867 1.433 . S
C1875 N1877 1.384 . S
N1876 C1872 1.427 . S
N1876 C1873 1.384 . S
N1877 C1869 1.427 . S
N1877 C1875 1.384 . S
H1878 C1884 0.930 . S
H1879 C1888 0.930 . S
H1880 C1893 0.929 . S
H1881 C1891 0.929 . S
H1882 C1886 0.929 . S
H1883 C1892 0.929 . S
C1884 H1878 0.930 . S
C1884 C1885 1.367 . S
C1884 C1892 1.378 . S
C1885 C1884 1.367 . S
C1885 C1893 1.433 . S
C1886 H1882 0.929 . S
C1886 C1888 1.378 . S
C1886 C1890 1.350 . S
C1887 C1890 1.463 . S
C1887 C1892 1.350 . S
C1887 N1895 1.427 . S
C1888 H1879 0.930 . S
C1888 C1886 1.378 . S
C1888 C1889 1.367 . S
C1889 C1888 1.367 . S
C1889 C1891 1.433 . S
C1890 C1886 1.350 . S
C1890 C1887 1.463 . S
C1890 N1894 1.427 . S
C1891 H1881 0.929 . S
C1891 C1889 1.433 . S
C1891 N1894 1.384 . S
C1892 H1883 0.929 . S
C1892 C1884 1.378 . S
C1892 C1887 1.350 . S
C1893 H1880 0.929 . S
C1893 C1885 1.433 . S
C1893 N1895 1.384 . S
N1894 C1890 1.427 . S
N1894 C1891 1.384 . S
N1895 C1887 1.427 . S
N1895 C1893 1.384 . S
H1896 C1902 0.930 . S
H1897 C1906 0.930 . S
H1898 C1911 0.929 . S
H1899 C1909 0.929 . S
H1900 C1904 0.929 . S
H1901 C1910 0.929 . S
C1902 H1896 0.930 . S
C1902 C1903 1.367 . S
C1902 C1910 1.378 . S
C1903 C1902 1.367 . S
C1903 C1911 1.433 . S
C1904 H1900 0.929 . S
C1904 C1906 1.378 . S
C1904 C1908 1.350 . S
C1905 C1908 1.463 . S
C1905 C1910 1.350 . S
C1905 N1913 1.427 . S
C1906 H1897 0.930 . S
C1906 C1904 1.378 . S
C1906 C1907 1.367 . S
C1907 C1906 1.367 . S
C1907 C1909 1.433 . S
C1908 C1904 1.350 . S
C1908 C1905 1.463 . S
C1908 N1912 1.427 . S
C1909 H1899 0.929 . S
C1909 C1907 1.433 . S
C1909 N1912 1.384 . S
C1910 H1901 0.929 . S
C1910 C1902 1.378 . S
C1910 C1905 1.350 . S
C1911 H1898 0.929 . S
C1911 C1903 1.433 . S
C1911 N1913 1.384 . S
N1912 C1908 1.427 . S
N1912 C1909 1.384 . S
N1913 C1905 1.427 . S
N1913 C1911 1.384 . S
H1914 C1920 0.930 . S
H1915 C1924 0.930 . S
H1916 C1929 0.929 . S
H1917 C1927 0.929 . S
H1918 C1922 0.929 . S
H1919 C1928 0.929 . S
C1920 H1914 0.930 . S
C1920 C1921 1.367 . S
C1920 C1928 1.378 . S
C1921 C1920 1.367 . S
C1921 C1929 1.433 . S
C1922 H1918 0.929 . S
C1922 C1924 1.378 . S
C1922 C1926 1.350 . S
C1923 C1926 1.463 . S
C1923 C1928 1.350 . S
C1923 N1931 1.427 . S
C1924 H1915 0.930 . S
C1924 C1922 1.378 . S
C1924 C1925 1.367 . S
C1925 C1924 1.367 . S
C1925 C1927 1.433 . S
C1926 C1922 1.350 . S
C1926 C1923 1.463 . S
C1926 N1930 1.427 . S
C1927 H1917 0.929 . S
C1927 C1925 1.433 . S
C1927 N1930 1.384 . S
C1928 H1919 0.929 . S
C1928 C1920 1.378 . S
C1928 C1923 1.350 . S
C1929 H1916 0.929 . S
C1929 C1921 1.433 . S
C1929 N1931 1.384 . S
N1930 C1926 1.427 . S
N1930 C1927 1.384 . S
N1931 C1923 1.427 . S
N1931 C1929 1.384 . S
H1932 C1938 0.930 . S
H1933 C1942 0.930 . S
H1934 C1947 0.929 . S
H1935 C1945 0.929 . S
H1936 C1940 0.929 . S
H1937 C1946 0.929 . S
C1938 H1932 0.930 . S
C1938 C1939 1.367 . S
C1938 C1946 1.378 . S
C1939 C1938 1.367 . S
C1939 C1947 1.433 . S
C1940 H1936 0.929 . S
C1940 C1942 1.378 . S
C1940 C1944 1.350 . S
C1941 C1944 1.463 . S
C1941 C1946 1.350 . S
C1941 N1949 1.427 . S
C1942 H1933 0.930 . S
C1942 C1940 1.378 . S
C1942 C1943 1.367 . S
C1943 C1942 1.367 . S
C1943 C1945 1.433 . S
C1944 C1940 1.350 . S
C1944 C1941 1.463 . S
C1944 N1948 1.427 . S
C1945 H1935 0.929 . S
C1945 C1943 1.433 . S
C1945 N1948 1.384 . S
C1946 H1937 0.929 . S
C1946 C1938 1.378 . S
C1946 C1941 1.350 . S
C1947 H1934 0.929 . S
C1947 C1939 1.433 . S
C1947 N1949 1.384 . S
N1948 C1944 1.427 . S
N1948 C1945 1.384 . S
N1949 C1941 1.427 . S
N1949 C1947 1.384 . S
H1950 C1956 0.930 . S
H1951 C1960 0.930 . S
H1952 C1965 0.929 . S
H1953 C1963 0.929 . S
H1954 C1958 0.929 . S
H1955 C1964 0.929 . S
C1956 H1950 0.930 . S
C1956 C1957 1.367 . S
C1956 C1964 1.378 . S
C1957 C1956 1.367 . S
C1957 C1965 1.433 . S
C1958 H1954 0.929 . S
C1958 C1960 1.378 . S
C1958 C1962 1.350 . S
C1959 C1962 1.463 . S
C1959 C1964 1.350 . S
C1959 N1967 1.427 . S
C1960 H1951 0.930 . S
C1960 C1958 1.378 . S
C1960 C1961 1.367 . S
C1961 C1960 1.367 . S
C1961 C1963 1.433 . S
C1962 C1958 1.350 . S
C1962 C1959 1.463 . S
C1962 N1966 1.427 . S
C1963 H1953 0.929 . S
C1963 C1961 1.433 . S
C1963 N1966 1.384 . S
C1964 H1955 0.929 . S
C1964 C1956 1.378 . S
C1964 C1959 1.350 . S
C1965 H1952 0.929 . S
C1965 C1957 1.433 . S
C1965 N1967 1.384 . S
N1966 C1962 1.427 . S
N1966 C1963 1.384 . S
N1967 C1959 1.427 . S
N1967 C1965 1.384 . S
H1968 C1974 0.930 . S
H1969 C1978 0.930 . S
H1970 C1983 0.929 . S
H1971 C1981 0.929 . S
H1972 C1976 0.929 . S
H1973 C1982 0.929 . S
C1974 H1968 0.930 . S
C1974 C1975 1.367 . S
C1974 C1982 1.378 . S
C1975 C1974 1.367 . S
C1975 C1983 1.433 . S
C1976 H1972 0.929 . S
C1976 C1978 1.378 . S
C1976 C1980 1.350 . S
C1977 C1980 1.463 . S
C1977 C1982 1.350 . S
C1977 N1985 1.427 . S
C1978 H1969 0.930 . S
C1978 C1976 1.378 . S
C1978 C1979 1.367 . S
C1979 C1978 1.367 . S
C1979 C1981 1.433 . S
C1980 C1976 1.350 . S
C1980 C1977 1.463 . S
C1980 N1984 1.427 . S
C1981 H1971 0.929 . S
C1981 C1979 1.433 . S
C1981 N1984 1.384 . S
C1982 H1973 0.929 . S
C1982 C1974 1.378 . S
C1982 C1977 1.350 . S
C1983 H1970 0.929 . S
C1983 C1975 1.433 . S
C1983 N1985 1.384 . S
N1984 C1980 1.427 . S
N1984 C1981 1.384 . S
N1985 C1977 1.427 . S
N1985 C1983 1.384 . S
H1986 C1992 0.930 . S
H1987 C1996 0.930 . S
H1988 C2001 0.929 . S
H1989 C1999 0.929 . S
H1990 C1994 0.929 . S
H1991 C2000 0.929 . S
C1992 H1986 0.930 . S
C1992 C1993 1.367 . S
C1992 C2000 1.378 . S
C1993 C1992 1.367 . S
C1993 C2001 1.433 . S
C1994 H1990 0.929 . S
C1994 C1996 1.378 . S
C1994 C1998 1.350 . S
C1995 C1998 1.463 . S
C1995 C2000 1.350 . S
C1995 N2003 1.427 . S
C1996 H1987 0.930 . S
C1996 C1994 1.378 . S
C1996 C1997 1.367 . S
C1997 C1996 1.367 . S
C1997 C1999 1.433 . S
C1998 C1994 1.350 . S
C1998 C1995 1.463 . S
C1998 N2002 1.427 . S
C1999 H1989 0.929 . S
C1999 C1997 1.433 . S
C1999 N2002 1.384 . S
C2000 H1991 0.929 . S
C2000 C1992 1.378 . S
C2000 C1995 1.350 . S
C2001 H1988 0.929 . S
C2001 C1993 1.433 . S
C2001 N2003 1.384 . S
N2002 C1998 1.427 . S
N2002 C1999 1.384 . S
N2003 C1995 1.427 . S
N2003 C2001 1.384 . S
H2004 C2010 0.930 . S
H2005 C2014 0.930 . S
H2006 C2019 0.929 . S
H2007 C2017 0.929 . S
H2008 C2012 0.929 . S
H2009 C2018 0.929 . S
C2010 H2004 0.930 . S
C2010 C2011 1.367 . S
C2010 C2018 1.378 . S
C2011 C2010 1.367 . S
C2011 C2019 1.433 . S
C2012 H2008 0.929 . S
C2012 C2014 1.378 . S
C2012 C2016 1.350 . S
C2013 C2016 1.463 . S
C2013 C2018 1.350 . S
C2013 N2021 1.427 . S
C2014 H2005 0.930 . S
C2014 C2012 1.378 . S
C2014 C2015 1.367 . S
C2015 C2014 1.367 . S
C2015 C2017 1.433 . S
C2016 C2012 1.350 . S
C2016 C2013 1.463 . S
C2016 N2020 1.427 . S
C2017 H2007 0.929 . S
C2017 C2015 1.433 . S
C2017 N2020 1.384 . S
C2018 H2009 0.929 . S
C2018 C2010 1.378 . S
C2018 C2013 1.350 . S
C2019 H2006 0.929 . S
C2019 C2011 1.433 . S
C2019 N2021 1.384 . S
N2020 C2016 1.427 . S
N2020 C2017 1.384 . S
N2021 C2013 1.427 . S
N2021 C2019 1.384 . S
H2022 C2028 0.930 . S
H2023 C2032 0.930 . S
H2024 C2037 0.929 . S
H2025 C2035 0.929 . S
H2026 C2030 0.929 . S
H2027 C2036 0.929 . S
C2028 H2022 0.930 . S
C2028 C2029 1.367 . S
C2028 C2036 1.378 . S
C2029 C2028 1.367 . S
C2029 C2037 1.433 . S
C2030 H2026 0.929 . S
C2030 C2032 1.378 . S
C2030 C2034 1.350 . S
C2031 C2034 1.463 . S
C2031 C2036 1.350 . S
C2031 N2039 1.427 . S
C2032 H2023 0.930 . S
C2032 C2030 1.378 . S
C2032 C2033 1.367 . S
C2033 C2032 1.367 . S
C2033 C2035 1.433 . S
C2034 C2030 1.350 . S
C2034 C2031 1.463 . S
C2034 N2038 1.427 . S
C2035 H2025 0.929 . S
C2035 C2033 1.433 . S
C2035 N2038 1.384 . S
C2036 H2027 0.929 . S
C2036 C2028 1.378 . S
C2036 C2031 1.350 . S
C2037 H2024 0.929 . S
C2037 C2029 1.433 . S
C2037 N2039 1.384 . S
N2038 C2034 1.427 . S
N2038 C2035 1.384 . S
N2039 C2031 1.427 . S
N2039 C2037 1.384 . S
H2040 C2046 0.930 . S
H2041 C2050 0.930 . S
H2042 C2055 0.929 . S
H2043 C2053 0.929 . S
H2044 C2048 0.929 . S
H2045 C2054 0.929 . S
C2046 H2040 0.930 . S
C2046 C2047 1.367 . S
C2046 C2054 1.378 . S
C2047 C2046 1.367 . S
C2047 C2055 1.433 . S
C2048 H2044 0.929 . S
C2048 C2050 1.378 . S
C2048 C2052 1.350 . S
C2049 C2052 1.463 . S
C2049 C2054 1.350 . S
C2049 N2057 1.427 . S
C2050 H2041 0.930 . S
C2050 C2048 1.378 . S
C2050 C2051 1.367 . S
C2051 C2050 1.367 . S
C2051 C2053 1.433 . S
C2052 C2048 1.350 . S
C2052 C2049 1.463 . S
C2052 N2056 1.427 . S
C2053 H2043 0.929 . S
C2053 C2051 1.433 . S
C2053 N2056 1.384 . S
C2054 H2045 0.929 . S
C2054 C2046 1.378 . S
C2054 C2049 1.350 . S
C2055 H2042 0.929 . S
C2055 C2047 1.433 . S
C2055 N2057 1.384 . S
N2056 C2052 1.427 . S
N2056 C2053 1.384 . S
N2057 C2049 1.427 . S
N2057 C2055 1.384 . S
H2058 C2064 0.930 . S
H2059 C2068 0.930 . S
H2060 C2073 0.929 . S
H2061 C2071 0.929 . S
H2062 C2066 0.929 . S
H2063 C2072 0.929 . S
C2064 H2058 0.930 . S
C2064 C2065 1.367 . S
C2064 C2072 1.378 . S
C2065 C2064 1.367 . S
C2065 C2073 1.433 . S
C2066 H2062 0.929 . S
C2066 C2068 1.378 . S
C2066 C2070 1.350 . S
C2067 C2070 1.463 . S
C2067 C2072 1.350 . S
C2067 N2075 1.427 . S
C2068 H2059 0.930 . S
C2068 C2066 1.378 . S
C2068 C2069 1.367 . S
C2069 C2068 1.367 . S
C2069 C2071 1.433 . S
C2070 C2066 1.350 . S
C2070 C2067 1.463 . S
C2070 N2074 1.427 . S
C2071 H2061 0.929 . S
C2071 C2069 1.433 . S
C2071 N2074 1.384 . S
C2072 H2063 0.929 . S
C2072 C2064 1.378 . S
C2072 C2067 1.350 . S
C2073 H2060 0.929 . S
C2073 C2065 1.433 . S
C2073 N2075 1.384 . S
N2074 C2070 1.427 . S
N2074 C2071 1.384 . S
N2075 C2067 1.427 . S
N2075 C2073 1.384 . S
H2076 C2082 0.930 . S
H2077 C2086 0.930 . S
H2078 C2091 0.929 . S
H2079 C2089 0.929 . S
H2080 C2084 0.929 . S
H2081 C2090 0.929 . S
C2082 H2076 0.930 . S
C2082 C2083 1.367 . S
C2082 C2090 1.378 . S
C2083 C2082 1.367 . S
C2083 C2091 1.433 . S
C2084 H2080 0.929 . S
C2084 C2086 1.378 . S
C2084 C2088 1.350 . S
C2085 C2088 1.463 . S
C2085 C2090 1.350 . S
C2085 N2093 1.427 . S
C2086 H2077 0.930 . S
C2086 C2084 1.378 . S
C2086 C2087 1.367 . S
C2087 C2086 1.367 . S
C2087 C2089 1.433 . S
C2088 C2084 1.350 . S
C2088 C2085 1.463 . S
C2088 N2092 1.427 . S
C2089 H2079 0.929 . S
C2089 C2087 1.433 . S
C2089 N2092 1.384 . S
C2090 H2081 0.929 . S
C2090 C2082 1.378 . S
C2090 C2085 1.350 . S
C2091 H2078 0.929 . S
C2091 C2083 1.433 . S
C2091 N2093 1.384 . S
N2092 C2088 1.427 . S
N2092 C2089 1.384 . S
N2093 C2085 1.427 . S
N2093 C2091 1.384 . S
H2094 C2100 0.930 . S
H2095 C2104 0.930 . S
H2096 C2109 0.929 . S
H2097 C2107 0.929 . S
H2098 C2102 0.929 . S
H2099 C2108 0.929 . S
C2100 H2094 0.930 . S
C2100 C2101 1.367 . S
C2100 C2108 1.378 . S
C2101 C2100 1.367 . S
C2101 C2109 1.433 . S
C2102 H2098 0.929 . S
C2102 C2104 1.378 . S
C2102 C2106 1.350 . S
C2103 C2106 1.463 . S
C2103 C2108 1.350 . S
C2103 N2111 1.427 . S
C2104 H2095 0.930 . S
C2104 C2102 1.378 . S
C2104 C2105 1.367 . S
C2105 C2104 1.367 . S
C2105 C2107 1.433 . S
C2106 C2102 1.350 . S
C2106 C2103 1.463 . S
C2106 N2110 1.427 . S
C2107 H2097 0.929 . S
C2107 C2105 1.433 . S
C2107 N2110 1.384 . S
C2108 H2099 0.929 . S
C2108 C2100 1.378 . S
C2108 C2103 1.350 . S
C2109 H2096 0.929 . S
C2109 C2101 1.433 . S
C2109 N2111 1.384 . S
N2110 C2106 1.427 . S
N2110 C2107 1.384 . S
N2111 C2103 1.427 . S
N2111 C2109 1.384 . S
H2112 C2118 0.930 . S
H2113 C2122 0.930 . S
H2114 C2127 0.929 . S
H2115 C2125 0.929 . S
H2116 C2120 0.929 . S
H2117 C2126 0.929 . S
C2118 H2112 0.930 . S
C2118 C2119 1.367 . S
C2118 C2126 1.378 . S
C2119 C2118 1.367 . S
C2119 C2127 1.433 . S
C2120 H2116 0.929 . S
C2120 C2122 1.378 . S
C2120 C2124 1.350 . S
C2121 C2124 1.463 . S
C2121 C2126 1.350 . S
C2121 N2129 1.427 . S
C2122 H2113 0.930 . S
C2122 C2120 1.378 . S
C2122 C2123 1.367 . S
C2123 C2122 1.367 . S
C2123 C2125 1.433 . S
C2124 C2120 1.350 . S
C2124 C2121 1.463 . S
C2124 N2128 1.427 . S
C2125 H2115 0.929 . S
C2125 C2123 1.433 . S
C2125 N2128 1.384 . S
C2126 H2117 0.929 . S
C2126 C2118 1.378 . S
C2126 C2121 1.350 . S
C2127 H2114 0.929 . S
C2127 C2119 1.433 . S
C2127 N2129 1.384 . S
N2128 C2124 1.427 . S
N2128 C2125 1.384 . S
N2129 C2121 1.427 . S
N2129 C2127 1.384 . S
H2130 C2136 0.930 . S
H2131 C2140 0.930 . S
H2132 C2145 0.929 . S
H2133 C2143 0.929 . S
H2134 C2138 0.929 . S
H2135 C2144 0.929 . S
C2136 H2130 0.930 . S
C2136 C2137 1.367 . S
C2136 C2144 1.378 . S
C2137 C2136 1.367 . S
C2137 C2145 1.433 . S
C2138 H2134 0.929 . S
C2138 C2140 1.378 . S
C2138 C2142 1.350 . S
C2139 C2142 1.463 . S
C2139 C2144 1.350 . S
C2139 N2147 1.427 . S
C2140 H2131 0.930 . S
C2140 C2138 1.378 . S
C2140 C2141 1.367 . S
C2141 C2140 1.367 . S
C2141 C2143 1.433 . S
C2142 C2138 1.350 . S
C2142 C2139 1.463 . S
C2142 N2146 1.427 . S
C2143 H2133 0.929 . S
C2143 C2141 1.433 . S
C2143 N2146 1.384 . S
C2144 H2135 0.929 . S
C2144 C2136 1.378 . S
C2144 C2139 1.350 . S
C2145 H2132 0.929 . S
C2145 C2137 1.433 . S
C2145 N2147 1.384 . S
N2146 C2142 1.427 . S
N2146 C2143 1.384 . S
N2147 C2139 1.427 . S
N2147 C2145 1.384 . S
H2148 C2154 0.930 . S
H2149 C2158 0.930 . S
H2150 C2163 0.929 . S
H2151 C2161 0.929 . S
H2152 C2156 0.929 . S
H2153 C2162 0.929 . S
C2154 H2148 0.930 . S
C2154 C2155 1.367 . S
C2154 C2162 1.378 . S
C2155 C2154 1.367 . S
C2155 C2163 1.433 . S
C2156 H2152 0.929 . S
C2156 C2158 1.378 . S
C2156 C2160 1.350 . S
C2157 C2160 1.463 . S
C2157 C2162 1.350 . S
C2157 N2165 1.427 . S
C2158 H2149 0.930 . S
C2158 C2156 1.378 . S
C2158 C2159 1.367 . S
C2159 C2158 1.367 . S
C2159 C2161 1.433 . S
C2160 C2156 1.350 . S
C2160 C2157 1.463 . S
C2160 N2164 1.427 . S
C2161 H2151 0.929 . S
C2161 C2159 1.433 . S
C2161 N2164 1.384 . S
C2162 H2153 0.929 . S
C2162 C2154 1.378 . S
C2162 C2157 1.350 . S
C2163 H2150 0.929 . S
C2163 C2155 1.433 . S
C2163 N2165 1.384 . S
N2164 C2160 1.427 . S
N2164 C2161 1.384 . S
N2165 C2157 1.427 . S
N2165 C2163 1.384 . S
H2166 C2172 0.930 . S
H2167 C2176 0.930 . S
H2168 C2181 0.929 . S
H2169 C2179 0.929 . S
H2170 C2174 0.929 . S
H2171 C2180 0.929 . S
C2172 H2166 0.930 . S
C2172 C2173 1.367 . S
C2172 C2180 1.378 . S
C2173 C2172 1.367 . S
C2173 C2181 1.433 . S
C2174 H2170 0.929 . S
C2174 C2176 1.378 . S
C2174 C2178 1.350 . S
C2175 C2178 1.463 . S
C2175 C2180 1.350 . S
C2175 N2183 1.427 . S
C2176 H2167 0.930 . S
C2176 C2174 1.378 . S
C2176 C2177 1.367 . S
C2177 C2176 1.367 . S
C2177 C2179 1.433 . S
C2178 C2174 1.350 . S
C2178 C2175 1.463 . S
C2178 N2182 1.427 . S
C2179 H2169 0.929 . S
C2179 C2177 1.433 . S
C2179 N2182 1.384 . S
C2180 H2171 0.929 . S
C2180 C2172 1.378 . S
C2180 C2175 1.350 . S
C2181 H2168 0.929 . S
C2181 C2173 1.433 . S
C2181 N2183 1.384 . S
N2182 C2178 1.427 . S
N2182 C2179 1.384 . S
N2183 C2175 1.427 . S
N2183 C2181 1.384 . S
H2184 C2190 0.930 . S
H2185 C2194 0.930 . S
H2186 C2199 0.929 . S
H2187 C2197 0.929 . S
H2188 C2192 0.929 . S
H2189 C2198 0.929 . S
C2190 H2184 0.930 . S
C2190 C2191 1.367 . S
C2190 C2198 1.378 . S
C2191 C2190 1.367 . S
C2191 C2199 1.433 . S
C2192 H2188 0.929 . S
C2192 C2194 1.378 . S
C2192 C2196 1.350 . S
C2193 C2196 1.463 . S
C2193 C2198 1.350 . S
C2193 N2201 1.427 . S
C2194 H2185 0.930 . S
C2194 C2192 1.378 . S
C2194 C2195 1.367 . S
C2195 C2194 1.367 . S
C2195 C2197 1.433 . S
C2196 C2192 1.350 . S
C2196 C2193 1.463 . S
C2196 N2200 1.427 . S
C2197 H2187 0.929 . S
C2197 C2195 1.433 . S
C2197 N2200 1.384 . S
C2198 H2189 0.929 . S
C2198 C2190 1.378 . S
C2198 C2193 1.350 . S
C2199 H2186 0.929 . S
C2199 C2191 1.433 . S
C2199 N2201 1.384 . S
N2200 C2196 1.427 . S
N2200 C2197 1.384 . S
N2201 C2193 1.427 . S
N2201 C2199 1.384 . S
H2202 C2208 0.930 . S
H2203 C2212 0.930 . S
H2204 C2217 0.929 . S
H2205 C2215 0.929 . S
H2206 C2210 0.929 . S
H2207 C2216 0.929 . S
C2208 H2202 0.930 . S
C2208 C2209 1.367 . S
C2208 C2216 1.378 . S
C2209 C2208 1.367 . S
C2209 C2217 1.433 . S
C2210 H2206 0.929 . S
C2210 C2212 1.378 . S
C2210 C2214 1.350 . S
C2211 C2214 1.463 . S
C2211 C2216 1.350 . S
C2211 N2219 1.427 . S
C2212 H2203 0.930 . S
C2212 C2210 1.378 . S
C2212 C2213 1.367 . S
C2213 C2212 1.367 . S
C2213 C2215 1.433 . S
C2214 C2210 1.350 . S
C2214 C2211 1.463 . S
C2214 N2218 1.427 . S
C2215 H2205 0.929 . S
C2215 C2213 1.433 . S
C2215 N2218 1.384 . S
C2216 H2207 0.929 . S
C2216 C2208 1.378 . S
C2216 C2211 1.350 . S
C2217 H2204 0.929 . S
C2217 C2209 1.433 . S
C2217 N2219 1.384 . S
N2218 C2214 1.427 . S
N2218 C2215 1.384 . S
N2219 C2211 1.427 . S
N2219 C2217 1.384 . S
H2220 C2226 0.930 . S
H2221 C2230 0.930 . S
H2222 C2235 0.929 . S
H2223 C2233 0.929 . S
H2224 C2228 0.929 . S
H2225 C2234 0.929 . S
C2226 H2220 0.930 . S
C2226 C2227 1.367 . S
C2226 C2234 1.378 . S
C2227 C2226 1.367 . S
C2227 C2235 1.433 . S
C2228 H2224 0.929 . S
C2228 C2230 1.378 . S
C2228 C2232 1.350 . S
C2229 C2232 1.463 . S
C2229 C2234 1.350 . S
C2229 N2237 1.427 . S
C2230 H2221 0.930 . S
C2230 C2228 1.378 . S
C2230 C2231 1.367 . S
C2231 C2230 1.367 . S
C2231 C2233 1.433 . S
C2232 C2228 1.350 . S
C2232 C2229 1.463 . S
C2232 N2236 1.427 . S
C2233 H2223 0.929 . S
C2233 C2231 1.433 . S
C2233 N2236 1.384 . S
C2234 H2225 0.929 . S
C2234 C2226 1.378 . S
C2234 C2229 1.350 . S
C2235 H2222 0.929 . S
C2235 C2227 1.433 . S
C2235 N2237 1.384 . S
N2236 C2232 1.427 . S
N2236 C2233 1.384 . S
N2237 C2229 1.427 . S
N2237 C2235 1.384 . S
H2238 C2244 0.930 . S
H2239 C2248 0.930 . S
H2240 C2253 0.929 . S
H2241 C2251 0.929 . S
H2242 C2246 0.929 . S
H2243 C2252 0.929 . S
C2244 H2238 0.930 . S
C2244 C2245 1.367 . S
C2244 C2252 1.378 . S
C2245 C2244 1.367 . S
C2245 C2253 1.433 . S
C2246 H2242 0.929 . S
C2246 C2248 1.378 . S
C2246 C2250 1.350 . S
C2247 C2250 1.463 . S
C2247 C2252 1.350 . S
C2247 N2255 1.427 . S
C2248 H2239 0.930 . S
C2248 C2246 1.378 . S
C2248 C2249 1.367 . S
C2249 C2248 1.367 . S
C2249 C2251 1.433 . S
C2250 C2246 1.350 . S
C2250 C2247 1.463 . S
C2250 N2254 1.427 . S
C2251 H2241 0.929 . S
C2251 C2249 1.433 . S
C2251 N2254 1.384 . S
C2252 H2243 0.929 . S
C2252 C2244 1.378 . S
C2252 C2247 1.350 . S
C2253 H2240 0.929 . S
C2253 C2245 1.433 . S
C2253 N2255 1.384 . S
N2254 C2250 1.427 . S
N2254 C2251 1.384 . S
N2255 C2247 1.427 . S
N2255 C2253 1.384 . S
H2256 C2262 0.930 . S
H2257 C2266 0.930 . S
H2258 C2271 0.929 . S
H2259 C2269 0.929 . S
H2260 C2264 0.929 . S
H2261 C2270 0.929 . S
C2262 H2256 0.930 . S
C2262 C2263 1.367 . S
C2262 C2270 1.378 . S
C2263 C2262 1.367 . S
C2263 C2271 1.433 . S
C2264 H2260 0.929 . S
C2264 C2266 1.378 . S
C2264 C2268 1.350 . S
C2265 C2268 1.463 . S
C2265 C2270 1.350 . S
C2265 N2273 1.427 . S
C2266 H2257 0.930 . S
C2266 C2264 1.378 . S
C2266 C2267 1.367 . S
C2267 C2266 1.367 . S
C2267 C2269 1.433 . S
C2268 C2264 1.350 . S
C2268 C2265 1.463 . S
C2268 N2272 1.427 . S
C2269 H2259 0.929 . S
C2269 C2267 1.433 . S
C2269 N2272 1.384 . S
C2270 H2261 0.929 . S
C2270 C2262 1.378 . S
C2270 C2265 1.350 . S
C2271 H2258 0.929 . S
C2271 C2263 1.433 . S
C2271 N2273 1.384 . S
N2272 C2268 1.427 . S
N2272 C2269 1.384 . S
N2273 C2265 1.427 . S
N2273 C2271 1.384 . S
H2274 C2280 0.930 . S
H2275 C2284 0.930 . S
H2276 C2289 0.929 . S
H2277 C2287 0.929 . S
H2278 C2282 0.929 . S
H2279 C2288 0.929 . S
C2280 H2274 0.930 . S
C2280 C2281 1.367 . S
C2280 C2288 1.378 . S
C2281 C2280 1.367 . S
C2281 C2289 1.433 . S
C2282 H2278 0.929 . S
C2282 C2284 1.378 . S
C2282 C2286 1.350 . S
C2283 C2286 1.463 . S
C2283 C2288 1.350 . S
C2283 N2291 1.427 . S
C2284 H2275 0.930 . S
C2284 C2282 1.378 . S
C2284 C2285 1.367 . S
C2285 C2284 1.367 . S
C2285 C2287 1.433 . S
C2286 C2282 1.350 . S
C2286 C2283 1.463 . S
C2286 N2290 1.427 . S
C2287 H2277 0.929 . S
C2287 C2285 1.433 . S
C2287 N2290 1.384 . S
C2288 H2279 0.929 . S
C2288 C2280 1.378 . S
C2288 C2283 1.350 . S
C2289 H2276 0.929 . S
C2289 C2281 1.433 . S
C2289 N2291 1.384 . S
N2290 C2286 1.427 . S
N2290 C2287 1.384 . S
N2291 C2283 1.427 . S
N2291 C2289 1.384 . S
H2292 C2298 0.930 . S
H2293 C2302 0.930 . S
H2294 C2307 0.929 . S
H2295 C2305 0.929 . S
H2296 C2300 0.929 . S
H2297 C2306 0.929 . S
C2298 H2292 0.930 . S
C2298 C2299 1.367 . S
C2298 C2306 1.378 . S
C2299 C2298 1.367 . S
C2299 C2307 1.433 . S
C2300 H2296 0.929 . S
C2300 C2302 1.378 . S
C2300 C2304 1.350 . S
C2301 C2304 1.463 . S
C2301 C2306 1.350 . S
C2301 N2309 1.427 . S
C2302 H2293 0.930 . S
C2302 C2300 1.378 . S
C2302 C2303 1.367 . S
C2303 C2302 1.367 . S
C2303 C2305 1.433 . S
C2304 C2300 1.350 . S
C2304 C2301 1.463 . S
C2304 N2308 1.427 . S
C2305 H2295 0.929 . S
C2305 C2303 1.433 . S
C2305 N2308 1.384 . S
C2306 H2297 0.929 . S
C2306 C2298 1.378 . S
C2306 C2301 1.350 . S
C2307 H2294 0.929 . S
C2307 C2299 1.433 . S
C2307 N2309 1.384 . S
N2308 C2304 1.427 . S
N2308 C2305 1.384 . S
N2309 C2301 1.427 . S
N2309 C2307 1.384 . S
H2310 C2316 0.930 . S
H2311 C2320 0.930 . S
H2312 C2325 0.929 . S
H2313 C2323 0.929 . S
H2314 C2318 0.929 . S
H2315 C2324 0.929 . S
C2316 H2310 0.930 . S
C2316 C2317 1.367 . S
C2316 C2324 1.378 . S
C2317 C2316 1.367 . S
C2317 C2325 1.433 . S
C2318 H2314 0.929 . S
C2318 C2320 1.378 . S
C2318 C2322 1.350 . S
C2319 C2322 1.463 . S
C2319 C2324 1.350 . S
C2319 N2327 1.427 . S
C2320 H2311 0.930 . S
C2320 C2318 1.378 . S
C2320 C2321 1.367 . S
C2321 C2320 1.367 . S
C2321 C2323 1.433 . S
C2322 C2318 1.350 . S
C2322 C2319 1.463 . S
C2322 N2326 1.427 . S
C2323 H2313 0.929 . S
C2323 C2321 1.433 . S
C2323 N2326 1.384 . S
C2324 H2315 0.929 . S
C2324 C2316 1.378 . S
C2324 C2319 1.350 . S
C2325 H2312 0.929 . S
C2325 C2317 1.433 . S
C2325 N2327 1.384 . S
N2326 C2322 1.427 . S
N2326 C2323 1.384 . S
N2327 C2319 1.427 . S
N2327 C2325 1.384 . S
C823 C28 1.215 1_565 S
C827 C187 1.191 . S
C841 C40 1.216 . S
C845 C17 1.188 . S
C859 C96 1.215 1_455 S
C863 C51 1.186 . S
C877 C85 1.187 . S
C881 C108 1.215 1_545 S
C895 C164 1.213 . S
C899 C119 1.194 . S
C913 C176 1.215 1_655 S
C917 C153 1.191 . S
C931 C255 1.192 . S
C935 C232 1.213 1_455 S
C949 C289 1.179 . S
C953 C244 1.218 1_545 S
C967 C323 1.179 . S
C971 C278 1.218 . S
C985 C312 1.216 1_655 S
C989 C357 1.185 . S
C1003 C391 1.183 . S
C1007 C368 1.217 1_565 S
C1021 C380 1.217 . S
C1025 C221 1.183 . S
C1039 C595 1.193 . S
C1043 C436 1.213 1_545 S
C1057 C425 1.185 . S
C1061 C448 1.217 . S
C1075 C504 1.213 1_655 S
C1079 C459 1.193 . S
C1093 C538 1.217 1_565 S
C1097 C493 1.186 . S
C1111 C550 1.214 . S
C1115 C527 1.190 . S
C1129 C606 1.216 1_455 S
C1133 C561 1.184 . S
C1147 C663 1.178 . S
C1151 C618 1.218 1_655 S
C1165 C697 1.180 . S
C1169 C652 1.217 1_565 S
C1183 C708 1.213 . S
C1187 C731 1.192 . S
C1201 C720 1.215 1_455 S
C1205 C765 1.187 . S
C1219 C776 1.213 1_545 S
C1223 C799 1.195 . S
C1237 C629 1.183 . S
C1241 C788 1.217 . S
C1255 C15 1.739 . S
C1259 C525 1.753 . S
C1273 C56 1.748 . S
C1277 C566 1.744 . S
C1291 C83 1.752 . S
C1295 C593 1.740 . S
C1309 C423 1.751 . S
C1313 C124 1.741 . S
C1327 C151 1.740 . S
C1331 C464 1.752 . S
C1345 C192 1.739 . S
C1349 C491 1.752 . S
C1363 C736 1.753 . S
C1367 C219 1.738 . S
C1381 C763 1.750 . S
C1385 C260 1.742 . S
C1399 C804 1.738 . S
C1403 C294 1.754 . S
C1417 C634 1.738 . S
C1421 C328 1.754 . S
C1435 C355 1.738 . S
C1439 C668 1.754 . S
C1453 C396 1.739 . S
C1457 C695 1.753 . S
C1471 C22 1.523 . S
C1475 C287 1.531 . S
C1489 C49 1.531 . S
C1493 C321 1.523 . S
C1507 C90 1.530 . S
C1511 C362 1.517 . S
C1525 C117 1.518 . S
C1529 C389 1.521 . S
C1543 C158 1.530 . S
C1547 C226 1.526 . S
C1561 C185 1.529 . S
C1565 C253 1.517 . S
C1579 C702 1.527 . S
C1583 C430 1.530 . S
C1597 C457 1.516 . S
C1601 C729 1.526 . S
C1615 C770 1.517 . S
C1619 C498 1.523 . S
C1633 C532 1.531 . S
C1637 C797 1.518 . S
C1651 C559 1.528 . S
C1655 C627 1.517 . S
C1669 C600 1.529 . S
C1673 C661 1.528 . S
C1687 C3 1.708 . S
C1691 C103 1.702 . S
C1705 C139 1.710 . S
C1709 C35 1.721 . S
C1723 C71 1.712 . S
C1727 C171 1.703 . S
C1741 C307 1.712 . S
C1745 C207 1.703 . S
C1759 C343 1.714 . S
C1763 C239 1.704 . S
C1777 C273 1.714 . S
C1781 C375 1.722 . S
C1795 C513 1.709 . S
C1799 C411 1.719 . S
C1813 C545 1.710 . S
C1817 C443 1.720 . S
C1831 C479 1.705 . S
C1835 C581 1.715 . S
C1849 C715 1.703 . S
C1853 C613 1.713 . S
C1867 C647 1.723 . S
C1871 C751 1.717 . S
C1885 C783 1.704 . S
C1889 C683 1.714 . S
C1903 C74 1.458 . S
C1907 C1 1.352 . S
C1921 C37 1.334 . S
C1925 C130 1.456 . S
C1939 C142 1.455 . S
C1943 C69 1.335 . S
C1957 C198 1.457 . S
C1961 C105 1.332 . S
C1975 C137 1.332 . S
C1979 C6 1.456 . S
C1993 C173 1.334 . S
C1997 C62 1.455 . S
C2011 C205 1.351 . S
C2015 C346 1.458 . S
C2029 C402 1.457 . S
C2033 C241 1.335 . S
C2047 C210 1.457 . S
C2051 C275 1.332 . S
C2065 C309 1.335 . S
C2069 C266 1.456 . S
C2083 C341 1.344 . S
C2087 C300 1.455 . S
C2101 C377 1.351 . S
C2105 C334 1.456 . S
C2119 C409 1.347 . S
C2123 C482 1.458 . S
C2137 C445 1.332 . S
C2141 C516 1.457 . S
C2155 C477 1.354 . S
C2159 C572 1.457 . S
C2173 C584 1.458 . S
C2177 C511 1.344 . S
C2191 C547 1.332 . S
C2195 C414 1.456 . S
C2209 C470 1.456 . S
C2213 C579 1.353 . S
C2227 C615 1.345 . S
C2231 C754 1.458 . S
C2245 C810 1.458 . S
C2249 C649 1.349 . S
C2263 C681 1.336 . S
C2267 C640 1.457 . S
C2281 C674 1.455 . S
C2285 C717 1.338 . S
C2299 C686 1.457 . S
C2303 C749 1.354 . S
C2317 C785 1.337 . S
C2321 C742 1.456 . S
