# Generated by pormake.
# Topology xfu, (5)-cn, num edge types: 1
# Building blocks:
#     Node 0, Type 0, BuildingBlock: BEQFEK_clean_sbu_0, # of connection points: 5
#     Node 1, Type 0, BuildingBlock: BEQFEK_clean_sbu_0, # of connection points: 5
#     Node 2, Type 0, BuildingBlock: BEQFEK_clean_sbu_0, # of connection points: 5
#     Node 3, Type 0, BuildingBlock: BEQFEK_clean_sbu_0, # of connection points: 5
#     Node 4, Type 0, BuildingBlock: BEQFEK_clean_sbu_0, # of connection points: 5
#     Node 5, Type 0, BuildingBlock: BEQFEK_clean_sbu_0, # of connection points: 5
#     Node 6, Type 0, BuildingBlock: BEQFEK_clean_sbu_0, # of connection points: 5
#     Node 7, Type 0, BuildingBlock: BEQFEK_clean_sbu_0, # of connection points: 5
#     Edge 8, Type (0, 0), BuildingBlock: EZIPEK_clean_linker_0, # of connection points: 2
#     Edge 9, Type (0, 0), BuildingBlock: EZIPEK_clean_linker_0, # of connection points: 2
#     Edge 10, Type (0, 0), BuildingBlock: EZIPEK_clean_linker_0, # of connection points: 2
#     Edge 11, Type (0, 0), BuildingBlock: EZIPEK_clean_linker_0, # of connection points: 2
#     Edge 12, Type (0, 0), BuildingBlock: EZIPEK_clean_linker_0, # of connection points: 2
#     Edge 13, Type (0, 0), BuildingBlock: EZIPEK_clean_linker_0, # of connection points: 2
#     Edge 14, Type (0, 0), BuildingBlock: EZIPEK_clean_linker_0, # of connection points: 2
#     Edge 15, Type (0, 0), BuildingBlock: EZIPEK_clean_linker_0, # of connection points: 2
#     Edge 16, Type (0, 0), BuildingBlock: EZIPEK_clean_linker_0, # of connection points: 2
#     Edge 17, Type (0, 0), BuildingBlock: EZIPEK_clean_linker_0, # of connection points: 2
#     Edge 18, Type (0, 0), BuildingBlock: EZIPEK_clean_linker_0, # of connection points: 2
#     Edge 19, Type (0, 0), BuildingBlock: EZIPEK_clean_linker_0, # of connection points: 2
#     Edge 20, Type (0, 0), BuildingBlock: EZIPEK_clean_linker_0, # of connection points: 2
#     Edge 21, Type (0, 0), BuildingBlock: EZIPEK_clean_linker_0, # of connection points: 2
#     Edge 22, Type (0, 0), BuildingBlock: EZIPEK_clean_linker_0, # of connection points: 2
#     Edge 23, Type (0, 0), BuildingBlock: EZIPEK_clean_linker_0, # of connection points: 2
#     Edge 24, Type (0, 0), BuildingBlock: EZIPEK_clean_linker_0, # of connection points: 2
#     Edge 25, Type (0, 0), BuildingBlock: EZIPEK_clean_linker_0, # of connection points: 2
#     Edge 26, Type (0, 0), BuildingBlock: EZIPEK_clean_linker_0, # of connection points: 2
#     Edge 27, Type (0, 0), BuildingBlock: EZIPEK_clean_linker_0, # of connection points: 2
# Relax obj value: 0.263
# Max RMSD: 0.192
# Mean RMSD: 0.192
data_MOF--net-xfu--node1-BEQFEK_clean_sbu_0--edge1-EZIPEK_clean_linker_0
_symmetry_space_group_name_H-M    P1
_symmetry_Int_Tables_number       1
_symmetry_cell_setting            triclinic
loop_
_symmetry_equiv_pos_as_xyz
'x, y, z'
_cell_length_a     22.713192
_cell_length_b     22.885573
_cell_length_c     44.865784
_cell_angle_alpha  89.903914
_cell_angle_beta   90.00848
_cell_angle_gamma 89.962405
loop_
_atom_site_label
_atom_site_type_symbol
_atom_site_fract_x
_atom_site_fract_y
_atom_site_fract_z
_atom_type_partial_charge
Co0 Co 0.07794 0.28801 0.67486 0.0
Co1 Co 0.07105 0.17829 0.63333 0.0
C2 C 0.1746 0.2599 0.63248 0.0
O3 O 0.15181 0.29176 0.65256 0.0
O4 O 0.14761 0.21554 0.62221 0.0
C5 C 0.08639 0.41005 0.69445 0.0
O6 O 0.09024 0.4251 0.66626 0.0
C7 C 0.06062 0.1223 0.57553 0.0
C8 C 0.03494 0.03191 0.58706 0.0
C9 C 0.04683 0.06873 0.56331 0.0
N10 N 0.05704 0.11784 0.60528 0.0
N11 N 0.04192 0.06364 0.61211 0.0
C12 C 0.0759 0.17717 0.55918 0.0
H13 H 0.1229 0.17531 0.55247 0.0
H14 H 0.06909 0.21588 0.57365 0.0
H15 H 0.04893 0.18114 0.53863 0.0
C16 C 0.95916 0.30745 0.64957 0.0
N17 N 0.01157 0.28002 0.64959 0.0
N18 N 0.00766 0.23247 0.6332 0.0
C19 C 0.95212 0.22734 0.62297 0.0
C20 C 0.91951 0.27454 0.63308 0.0
C21 C 0.94499 0.35913 0.66855 0.0
H22 H 0.94644 0.34563 0.69229 0.0
H23 H 0.97834 0.39363 0.66496 0.0
H24 H 0.90077 0.37713 0.66336 0.0
O25 O 0.08193 0.22049 0.70212 0.0
O26 O 0.0762 0.14175 0.67337 0.0
H27 H 0.94263 0.1344 0.62026 0.0
H28 H 0.8798 0.17456 0.60644 0.0
C29 C 0.92855 0.17397 0.60789 0.0
H30 H 0.94681 0.1717 0.58502 0.0
H31 H 0.03601 0.04842 0.63384 0.0
O32 O 0.07633 0.3571 0.70137 0.0
C33 C 0.08097 0.16527 0.69895 0.0
Co34 Co 0.78765 0.55933 0.16684 0.0
Co35 Co 0.90523 0.56505 0.13203 0.0
C36 C 0.80704 0.6558 0.1269 0.0
O37 O 0.76939 0.62349 0.13977 0.0
O38 O 0.86022 0.63907 0.12379 0.0
C39 C 0.6667 0.55455 0.19134 0.0
O40 O 0.64493 0.55369 0.16423 0.0
C41 C 0.9599 0.55824 0.07395 0.0
C42 C 0.05505 0.56085 0.08417 0.0
C43 C 0.0149 0.5577 0.06102 0.0
N44 N 0.96665 0.56137 0.10358 0.0
N45 N 0.02362 0.56297 0.10964 0.0
C46 C 0.90188 0.55576 0.05829 0.0
H47 H 0.86498 0.55668 0.0745 0.0
H48 H 0.89951 0.51527 0.04476 0.0
H49 H 0.89817 0.59329 0.04271 0.0
C50 C 0.7863 0.43905 0.14351 0.0
N51 N 0.80902 0.49307 0.14525 0.0
N52 N 0.85947 0.49487 0.13085 0.0
C53 C 0.87132 0.44109 0.12018 0.0
C54 C 0.82512 0.40424 0.12763 0.0
C55 C 0.73121 0.4202 0.15901 0.0
H56 H 0.73846 0.42167 0.18345 0.0
H57 H 0.69516 0.45103 0.15357 0.0
H58 H 0.71806 0.37534 0.15245 0.0
O59 O 0.85256 0.58237 0.19397 0.0
O60 O 0.93958 0.57488 0.17175 0.0
H61 H 0.96548 0.44721 0.11703 0.0
H62 H 0.93596 0.37572 0.10834 0.0
C63 C 0.92857 0.42351 0.10632 0.0
H64 H 0.92779 0.43493 0.0823 0.0
H65 H 0.04101 0.56574 0.13112 0.0
O66 O 0.72192 0.55057 0.19522 0.0
C67 C 0.90849 0.58479 0.19472 0.0
Co68 Co 0.50725 0.30002 0.6768 0.0
Co69 Co 0.51824 0.40756 0.63397 0.0
C70 C 0.41384 0.3266 0.63257 0.0
O71 O 0.43519 0.29542 0.65336 0.0
O72 O 0.44184 0.37031 0.62218 0.0
C73 C 0.49013 0.18141 0.69703 0.0
O74 O 0.48213 0.16854 0.6688 0.0
C75 C 0.53265 0.45958 0.57537 0.0
C76 C 0.55124 0.5522 0.58555 0.0
C77 C 0.54334 0.5132 0.56235 0.0
N78 N 0.53412 0.46612 0.60505 0.0
N79 N 0.54537 0.52156 0.61107 0.0
C80 C 0.51975 0.40332 0.55984 0.0
H81 H 0.526 0.36577 0.57521 0.0
H82 H 0.5486 0.39852 0.54002 0.0
H83 H 0.4734 0.40383 0.55201 0.0
C84 C 0.62563 0.27565 0.65273 0.0
N85 N 0.57478 0.30573 0.65255 0.0
N86 N 0.58088 0.35266 0.63582 0.0
C87 C 0.63662 0.35506 0.62567 0.0
C88 C 0.66689 0.30638 0.63606 0.0
C89 C 0.63578 0.22168 0.6709 0.0
H90 H 0.60192 0.1887 0.66521 0.0
H91 H 0.68008 0.20285 0.66684 0.0
H92 H 0.63089 0.23228 0.6949 0.0
O93 O 0.50052 0.36919 0.70266 0.0
O94 O 0.51029 0.4466 0.67321 0.0
H95 H 0.71117 0.40562 0.60991 0.0
H96 H 0.64695 0.40661 0.58632 0.0
C97 C 0.66235 0.40665 0.60978 0.0
H98 H 0.64709 0.44762 0.62045 0.0
H99 H 0.54829 0.53862 0.63257 0.0
O100 O 0.5066 0.23246 0.70425 0.0
C101 C 0.50213 0.42428 0.69888 0.0
Co102 Co 0.81681 0.99446 0.15402 0.0
Co103 Co 0.69379 0.00916 0.12292 0.0
C104 C 0.76912 0.90141 0.11526 0.0
O105 O 0.81082 0.92127 0.13123 0.0
O106 O 0.72343 0.93163 0.10951 0.0
C107 C 0.89658 0.95362 0.1941 0.0
O108 O 0.86025 0.90949 0.19102 0.0
C109 C 0.62923 0.0278 0.0683 0.0
C110 C 0.54083 0.05514 0.08334 0.0
C111 C 0.57457 0.04499 0.05815 0.0
N112 N 0.62845 0.02779 0.09819 0.0
N113 N 0.57543 0.04399 0.10715 0.0
C114 C 0.68192 0.01297 0.04984 0.0
H115 H 0.72264 0.01451 0.06348 0.0
H116 H 0.68555 0.04361 0.03071 0.0
H117 H 0.67654 0.96821 0.04077 0.0
C118 C 0.83475 0.11128 0.12973 0.0
N119 N 0.80394 0.06127 0.13109 0.0
N120 N 0.75111 0.06968 0.11988 0.0
C121 C 0.74624 0.12606 0.11152 0.0
C122 C 0.79892 0.15428 0.11767 0.0
C123 C 0.89361 0.11976 0.14403 0.0
H124 H 0.92282 0.0825 0.1384 0.0
H125 H 0.91421 0.16132 0.13665 0.0
H126 H 0.88815 0.12063 0.16861 0.0
O127 O 0.75643 0.98936 0.18523 0.0
O128 O 0.66757 -0.00273 0.16498 0.0
H129 H 0.69255 0.20266 0.10292 0.0
H130 H 0.67971 0.14102 0.0789 0.0
C131 C 0.68977 0.15429 0.1021 0.0
H132 H 0.65336 0.13924 0.11667 0.0
H133 H 0.56305 0.04794 0.12945 0.0
O134 O 0.8906 -0.00204 0.17733 0.0
C135 C 0.70068 0.98903 0.18755 0.0
Co136 Co 0.01786 0.78125 0.33335 0.0
Co137 Co 0.01844 0.89676 0.37 0.0
C138 C 0.92332 0.80377 0.37723 0.0
O139 O 0.94822 0.76999 0.3586 0.0
O140 O 0.9458 0.85342 0.38304 0.0
C141 C 0.9944 0.67041 0.30697 0.0
O142 O 0.9602 0.66225 0.33018 0.0
C143 C 0.03061 0.95534 0.42671 0.0
C144 C 0.03755 0.04854 0.41425 0.0
C145 C 0.03637 0.01075 0.43837 0.0
N146 N 0.02853 0.95963 0.39694 0.0
N147 N 0.03275 0.01544 0.38953 0.0
C148 C 0.02611 0.89926 0.44365 0.0
H149 H 0.98174 0.89624 0.45389 0.0
H150 H 0.03281 0.86133 0.42864 0.0
H151 H 0.05908 0.89847 0.46192 0.0
C152 C 0.13946 0.77492 0.35512 0.0
N153 N 0.08554 0.79904 0.35545 0.0
N154 N 0.08752 0.8493 0.36957 0.0
C155 C 0.1436 0.85963 0.37796 0.0
C156 C 0.17841 0.81281 0.36905 0.0
C157 C 0.15424 0.71975 0.33892 0.0
H158 H 0.15493 0.7286 0.3146 0.0
H159 H 0.11978 0.68645 0.34325 0.0
H160 H 0.19786 0.70256 0.34586 0.0
O161 O 0.00043 0.8452 0.30524 0.0
O162 O 0.00418 0.9293 0.32978 0.0
H163 H 0.14359 0.95329 0.37886 0.0
H164 H 0.21319 0.92035 0.3893 0.0
C165 C 0.1646 0.91624 0.39077 0.0
H166 H 0.15149 0.91849 0.41455 0.0
H167 H 0.03193 0.03094 0.36764 0.0
O168 O 0.02861 0.71418 0.30642 0.0
C169 C 0.99642 0.90056 0.30586 0.0
Co170 Co 0.2917 0.52149 0.82922 0.0
Co171 Co 0.17473 0.52846 0.86485 0.0
C172 C 0.25818 0.42438 0.86649 0.0
O173 O 0.29918 0.45169 0.85324 0.0
O174 O 0.20809 0.44785 0.87107 0.0
C175 C 0.41485 0.52136 0.80616 0.0
O176 O 0.43556 0.52405 0.83343 0.0
C177 C 0.11849 0.53446 0.92264 0.0
C178 C 0.02622 0.55643 0.91168 0.0
C179 C 0.06429 0.54588 0.93518 0.0
N180 N 0.11328 0.53825 0.89294 0.0
N181 N 0.05795 0.55103 0.88643 0.0
C182 C 0.17481 0.52232 0.93872 0.0
H183 H 0.21234 0.5204 0.92292 0.0
H184 H 0.18272 0.55685 0.9556 0.0
H185 H 0.17105 0.48009 0.95077 0.0
C186 C 0.31043 0.63704 0.8572 0.0
N187 N 0.28061 0.58678 0.85385 0.0
N188 N 0.23065 0.59002 0.86863 0.0
C189 C 0.22624 0.64344 0.881 0.0
C190 C 0.27666 0.67482 0.87421 0.0
C191 C 0.36696 0.65099 0.8417 0.0
H192 H 0.40238 0.62342 0.85119 0.0
H193 H 0.37976 0.69741 0.84451 0.0
H194 H 0.36259 0.64084 0.8177 0.0
O195 O 0.2242 0.51025 0.80159 0.0
O196 O 0.14045 0.5303 0.82462 0.0
H197 H 0.13224 0.65241 0.88265 0.0
H198 H 0.17205 0.71537 0.89631 0.0
C199 C 0.17157 0.66693 0.89525 0.0
H200 H 0.16847 0.64971 0.9183 0.0
H201 H 0.04202 0.55668 0.8648 0.0
O202 O 0.35968 0.52431 0.80174 0.0
C203 C 0.16846 0.51605 0.80123 0.0
Co204 Co 0.59118 0.77919 0.32309 0.0
Co205 Co 0.57448 0.67104 0.36481 0.0
C206 C 0.68328 0.74826 0.36687 0.0
O207 O 0.66368 0.78299 0.34705 0.0
O208 O 0.65338 0.70436 0.37569 0.0
C209 C 0.61245 0.89517 0.29832 0.0
O210 O 0.63158 0.9101 0.32486 0.0
C211 C 0.56203 0.61869 0.42352 0.0
C212 C 0.52836 0.53027 0.41355 0.0
C213 C 0.54488 0.56681 0.43662 0.0
N214 N 0.55608 0.61346 0.3939 0.0
N215 N 0.53603 0.56047 0.38801 0.0
C216 C 0.58352 0.6725 0.43887 0.0
H217 H 0.63144 0.668 0.44314 0.0
H218 H 0.57621 0.71154 0.42462 0.0
H219 H 0.56096 0.67802 0.46064 0.0
C220 C 0.47333 0.80823 0.3469 0.0
N221 N 0.52281 0.77586 0.34697 0.0
N222 N 0.51465 0.72919 0.36364 0.0
C223 C 0.45906 0.72963 0.37412 0.0
C224 C 0.43088 0.77959 0.36379 0.0
C225 C 0.46533 0.86241 0.32865 0.0
H226 H 0.50216 0.89295 0.33314 0.0
H227 H 0.42288 0.88429 0.33372 0.0
H228 H 0.46678 0.85092 0.30464 0.0
O229 O 0.59592 0.70922 0.29728 0.0
O230 O 0.57884 0.63154 0.32556 0.0
H231 H 0.38297 0.68473 0.39232 0.0
H232 H 0.4503 0.67763 0.41335 0.0
C233 C 0.43143 0.67977 0.39058 0.0
H234 H 0.44165 0.63818 0.37905 0.0
H235 H 0.5276 0.54493 0.36658 0.0
O236 O 0.59063 0.84472 0.29438 0.0
C237 C 0.58985 0.65423 0.30027 0.0
Co238 Co 0.26679 0.07108 0.83493 0.0
Co239 Co 0.38706 0.08146 0.8686 0.0
C240 C 0.29621 0.17612 0.87093 0.0
O241 O 0.2618 0.14856 0.85357 0.0
O242 O 0.34513 0.15461 0.87937 0.0
C243 C 0.15072 0.08631 0.80991 0.0
O244 O 0.1495 0.13331 0.82667 0.0
C245 C 0.4521 0.07484 0.92386 0.0
C246 C 0.54492 0.06891 0.90951 0.0
C247 C 0.50889 0.06984 0.93442 0.0
N248 N 0.45384 0.07657 0.89399 0.0
N249 N 0.50948 0.07328 0.88545 0.0
C250 C 0.39693 0.07686 0.942 0.0
H251 H 0.39716 0.1168 0.95599 0.0
H252 H 0.35741 0.07707 0.92747 0.0
H253 H 0.39547 0.03862 0.95723 0.0
C254 C 0.26179 0.96051 0.86638 0.0
N255 N 0.28644 0.01308 0.86221 0.0
N256 N 0.33955 0.01357 0.87384 0.0
C257 C 0.35131 0.95997 0.88487 0.0
C258 C 0.30243 0.92465 0.88038 0.0
C259 C 0.20461 0.94225 0.8527 0.0
H260 H 0.17133 0.97722 0.85582 0.0
H261 H 0.18837 0.90094 0.86276 0.0
H262 H 0.21091 0.93564 0.82841 0.0
O263 O 0.32719 0.07517 0.80347 0.0
O264 O 0.41221 0.09171 0.8263 0.0
H265 H 0.41567 0.89211 0.89331 0.0
H266 H 0.41708 0.95293 0.91856 0.0
C267 C 0.41094 0.94027 0.89493 0.0
H268 H 0.44563 0.96169 0.8814 0.0
H269 H 0.52319 0.07345 0.86325 0.0
O270 O 0.19486 0.05262 0.81213 0.0
C271 C 0.38173 0.08739 0.80252 0.0
C272 C 0.986 0.03434 0.48642 0.0
C273 C 0.03905 0.0268 0.4702 0.0
C274 C 0.097 0.04233 0.51556 0.0
C275 C 0.0441 0.05366 0.53134 0.0
N276 N 0.93902 0.06866 0.53166 0.0
N277 N 0.14502 0.02949 0.46768 0.0
C278 C 0.98873 0.05183 0.51675 0.0
C279 C 0.09462 0.03258 0.4843 0.0
N280 N 0.93307 0.02361 0.47294 0.0
N281 N 0.14919 0.03908 0.5307 0.0
H282 H 0.14502 0.02046 0.4449 0.0
H283 H 0.18662 0.03968 0.47587 0.0
H284 H 0.15266 0.04667 0.55356 0.0
H285 H 0.18844 0.02477 0.52123 0.0
H286 H 0.89327 0.02145 0.48439 0.0
H287 H 0.92912 0.01295 0.45044 0.0
H288 H 0.89839 0.07498 0.52141 0.0
H289 H 0.93906 0.08049 0.5541 0.0
C290 C 0.02935 0.60701 0.01183 0.0
C291 C 0.02825 0.5548 0.02888 0.0
C292 C 0.0448 0.49653 0.98393 0.0
C293 C 0.05034 0.54897 0.96728 0.0
N294 N 0.05639 0.65415 0.9654 0.0
N295 N 0.04079 0.45043 0.03264 0.0
C296 C 0.04477 0.60429 0.9812 0.0
C297 C 0.03774 0.49964 0.01535 0.0
N298 N 0.01453 0.65902 0.02483 0.0
N299 N 0.0444 0.4439 0.96951 0.0
H300 H 0.03389 0.45081 0.05562 0.0
H301 H 0.05407 0.40982 0.02468 0.0
H302 H 0.04979 0.43999 0.94651 0.0
H303 H 0.03431 0.40441 0.97984 0.0
H304 H 0.00754 0.69743 0.01287 0.0
H305 H 0.00513 0.66314 0.04748 0.0
H306 H 0.05994 0.6953 0.97508 0.0
H307 H 0.06686 0.65408 0.94278 0.0
C308 C 0.59787 0.52672 0.51439 0.0
C309 C 0.54378 0.52712 0.53018 0.0
C310 C 0.49096 0.55667 0.48496 0.0
C311 C 0.5444 0.55259 0.46877 0.0
N312 N 0.64731 0.52725 0.46642 0.0
N313 N 0.4379 0.5351 0.53059 0.0
C314 C 0.59758 0.53592 0.48304 0.0
C315 C 0.48999 0.53996 0.51548 0.0
N316 N 0.64952 0.51836 0.52951 0.0
N317 N 0.44162 0.57836 0.47138 0.0
H318 H 0.43552 0.52515 0.55325 0.0
H319 H 0.39681 0.53704 0.52037 0.0
H320 H 0.44034 0.58994 0.4489 0.0
H321 H 0.40309 0.58889 0.48272 0.0
H322 H 0.69095 0.52402 0.52005 0.0
H323 H 0.65123 0.5093 0.55229 0.0
H324 H 0.6859 0.50903 0.4748 0.0
H325 H 0.64892 0.53446 0.44347 0.0
C326 C 0.5342 0.11438 0.98373 0.0
C327 C 0.52712 0.06372 0.96592 0.0
C328 C 0.54475 0.00114 0.0094 0.0
C329 C 0.55613 0.05171 0.02669 0.0
N330 N 0.56979 0.15597 0.03004 0.0
N331 N 0.53223 0.95909 0.9602 0.0
C332 C 0.55291 0.10829 0.01382 0.0
C333 C 0.53439 0.00709 0.97829 0.0
N334 N 0.52206 0.16825 0.97198 0.0
N335 N 0.54193 0.94763 0.02296 0.0
H336 H 0.52318 0.96159 0.93745 0.0
H337 H 0.54358 0.91716 0.96715 0.0
H338 H 0.54944 0.94161 0.0457 0.0
H339 H 0.5276 0.90983 0.01234 0.0
H340 H 0.51948 0.20621 0.98467 0.0
H341 H 0.51072 0.17468 0.94968 0.0
H342 H 0.57519 0.1975 0.02095 0.0
H343 H 0.58256 0.15343 0.05232 0.0
C344 C 0.13541 0.05609 0.75679 0.0
C345 C 0.11299 0.08367 0.78259 0.0
C346 C 0.04786 0.14187 0.75078 0.0
C347 C 0.08492 0.12862 0.72614 0.0
N348 N 0.16587 0.0717 0.70599 0.0
N349 N 0.03426 0.13873 0.80459 0.0
C350 C 0.12835 0.08423 0.7289 0.0
C351 C 0.06413 0.12172 0.77968 0.0
N352 N 0.16245 0.00302 0.75887 0.0
N353 N 0.99725 0.17302 0.74628 0.0
H354 H 0.04176 0.11902 0.82526 0.0
H355 H 0.00268 0.17168 0.80487 0.0
H356 H 0.98356 0.18616 0.72508 0.0
H357 H 0.96638 0.18146 0.76285 0.0
H358 H 0.17651 0.9796 0.74026 0.0
H359 H 0.16276 0.97919 0.77872 0.0
H360 H 0.20199 0.04398 0.70851 0.0
H361 H 0.16441 0.09244 0.68534 0.0
C362 C 0.9945 0.59259 0.26754 0.0
C363 C 0.97482 0.64766 0.27793 0.0
C364 C 0.92239 0.66486 0.23112 0.0
C365 C 0.93629 0.6072 0.22208 0.0
N366 N 0.981 0.51363 0.23205 0.0
N367 N 0.91265 0.73281 0.27196 0.0
C368 C 0.97155 0.57035 0.24027 0.0
C369 C 0.93675 0.68293 0.26036 0.0
N370 N 0.03556 0.56217 0.28354 0.0
N371 N 0.89694 0.70293 0.21139 0.0
H372 H 0.92185 0.74806 0.29335 0.0
H373 H 0.87945 0.75649 0.26141 0.0
H374 H 0.88662 0.69157 0.18948 0.0
H375 H 0.89141 0.74731 0.21568 0.0
H376 H 0.05625 0.52456 0.27578 0.0
H377 H 0.052 0.57696 0.3039 0.0
H378 H 0.00092 0.48272 0.24579 0.0
H379 H 0.96548 0.49634 0.21204 0.0
C380 C 0.43816 0.53669 0.75256 0.0
C381 C 0.45316 0.50933 0.77993 0.0
C382 C 0.52085 0.44589 0.75247 0.0
C383 C 0.49292 0.46192 0.7254 0.0
N384 N 0.41909 0.52107 0.70036 0.0
N385 N 0.50801 0.43251 0.80529 0.0
C386 C 0.45078 0.50781 0.72538 0.0
C387 C 0.49536 0.46325 0.77995 0.0
N388 N 0.41102 0.5899 0.75262 0.0
N389 N 0.57147 0.41365 0.75189 0.0
H390 H 0.49031 0.44156 0.8261 0.0
H391 H 0.53301 0.39429 0.80511 0.0
H392 H 0.59196 0.4017 0.73197 0.0
H393 H 0.59628 0.40483 0.77092 0.0
H394 H 0.40305 0.6138 0.73323 0.0
H395 H 0.40315 0.6128 0.77229 0.0
H396 H 0.38349 0.54984 0.7006 0.0
H397 H 0.4241 0.49979 0.68006 0.0
C398 C 0.68533 0.89787 0.25745 0.0
C399 C 0.63676 0.92451 0.27172 0.0
C400 C 0.63202 -0.00174 0.23197 0.0
C401 C 0.67587 0.9669 0.21602 0.0
N402 N 0.73271 0.87783 0.21067 0.0
N403 N 0.55973 -0.00329 0.27202 0.0
C404 C 0.69945 0.91426 0.22799 0.0
C405 C 0.60884 0.97393 0.25886 0.0
N406 N 0.71851 0.85706 0.27216 0.0
N407 N 0.61417 0.05188 0.22206 0.0
H408 H 0.54317 0.98081 0.29216 0.0
H409 H 0.53362 0.02877 0.26215 0.0
H410 H 0.63065 0.07097 0.20267 0.0
H411 H 0.58661 0.07931 0.23421 0.0
H412 H 0.75821 0.84103 0.26386 0.0
H413 H 0.70976 0.84373 0.29397 0.0
H414 H 0.746 0.83637 0.21756 0.0
H415 H 0.74156 0.88583 0.18827 0.0
C416 C 0.01311 0.92115 0.25198 0.0
C417 C 0.97886 0.93044 0.27801 0.0
C418 C 0.9024 0.97732 0.24789 0.0
C419 C 0.93118 0.95733 0.22182 0.0
N420 N 0.0141 0.91177 0.19805 0.0
N421 N 0.88863 0.96422 0.30091 0.0
C422 C 0.98714 0.93046 0.22353 0.0
C423 C 0.92343 0.95896 0.27618 0.0
N424 N 0.07035 0.90348 0.25467 0.0
N425 N 0.85431 0.01295 0.24552 0.0
H426 H 0.90175 0.95125 0.32216 0.0
H427 H 0.84481 0.97753 0.30009 0.0
H428 H 0.83787 0.02705 0.22503 0.0
H429 H 0.83449 0.03322 0.2637 0.0
H430 H 0.09926 0.90022 0.23675 0.0
H431 H 0.09044 0.89722 0.27537 0.0
H432 H 0.05165 0.88566 0.19788 0.0
H433 H 0.99709 0.92058 0.1769 0.0
C434 C 0.08619 0.46594 0.77265 0.0
C435 C 0.13686 0.50249 0.77303 0.0
C436 C 0.1495 0.48766 0.71935 0.0
C437 C 0.09802 0.45228 0.71893 0.0
N438 N 0.00599 0.42893 0.74274 0.0
N439 N 0.20149 0.56526 0.74478 0.0
C440 C 0.0624 0.44894 0.74479 0.0
C441 C 0.16318 0.51931 0.74564 0.0
N442 N 0.06329 0.44303 0.7983 0.0
N443 N 0.18805 0.48794 0.69597 0.0
H444 H 0.21068 0.59061 0.76354 0.0
H445 H 0.21842 0.58205 0.72494 0.0
H446 H 0.18208 0.46407 0.67652 0.0
H447 H 0.22915 0.50807 0.69708 0.0
H448 H 0.03024 0.41144 0.79825 0.0
H449 H 0.08058 0.45023 0.81942 0.0
H450 H 0.97663 0.42971 0.7606 0.0
H451 H 0.98691 0.41867 0.72229 0.0
C452 C 0.56946 0.63721 0.24634 0.0
C453 C 0.59575 0.61727 0.27316 0.0
C454 C 0.64312 0.5389 0.24488 0.0
C455 C 0.63013 0.56863 0.21791 0.0
N456 N 0.58362 0.65193 0.19371 0.0
N457 N 0.66297 0.54979 0.29741 0.0
C458 C 0.59294 0.61872 0.2186 0.0
C459 C 0.63312 0.56743 0.27252 0.0
N460 N 0.52222 0.67412 0.24738 0.0
N461 N 0.66609 0.48379 0.24396 0.0
H462 H 0.65963 0.57034 0.318 0.0
H463 H 0.6955 0.51766 0.29691 0.0
H464 H 0.6726 0.46167 0.2239 0.0
H465 H 0.67218 0.45817 0.26295 0.0
H466 H 0.49843 0.68619 0.22847 0.0
H467 H 0.5029 0.68698 0.26744 0.0
H468 H 0.56275 0.69249 0.19443 0.0
H469 H 0.60056 0.64227 0.17279 0.0
C470 C 0.46507 0.0851 0.76513 0.0
C471 C 0.40779 0.10453 0.7733 0.0
C472 C 0.4002 0.15712 0.72571 0.0
C473 C 0.46062 0.14648 0.72035 0.0
N474 N 0.5525 0.10314 0.7353 0.0
N475 N 0.32557 0.17009 0.76303 0.0
C476 C 0.49367 0.11105 0.74012 0.0
C477 C 0.37614 0.14287 0.75389 0.0
N478 N 0.49126 0.04063 0.78058 0.0
N479 N 0.36583 0.18225 0.70417 0.0
H480 H 0.30693 0.16532 0.78403 0.0
H481 H 0.30534 0.20334 0.75087 0.0
H482 H 0.38192 0.19529 0.68346 0.0
H483 H 0.32011 0.18479 0.70576 0.0
H484 H 0.53074 0.02132 0.77407 0.0
H485 H 0.47055 0.0189 0.79813 0.0
H486 H 0.58045 0.08338 0.75073 0.0
H487 H 0.57388 0.11939 0.71643 0.0
C488 C 0.82287 0.28781 0.60633 0.0
C489 C 0.85438 0.27975 0.63332 0.0
C490 C 0.76439 0.29549 0.6618 0.0
C491 C 0.73147 0.29674 0.63496 0.0
N492 N 0.72808 0.28317 0.58163 0.0
N493 N 0.85104 0.25734 0.68598 0.0
C494 C 0.76032 0.2896 0.60713 0.0
C495 C 0.82392 0.2778 0.66086 0.0
N496 N 0.85255 0.29535 0.58012 0.0
N497 N 0.74 0.31379 0.68801 0.0
H498 H 0.89388 0.24089 0.68593 0.0
H499 H 0.82866 0.25068 0.70599 0.0
H500 H 0.69749 0.33075 0.68947 0.0
H501 H 0.76438 0.31828 0.70756 0.0
H502 H 0.83194 0.30738 0.56029 0.0
H503 H 0.89838 0.29427 0.5787 0.0
H504 H 0.74671 0.27219 0.56118 0.0
H505 H 0.68215 0.28362 0.58145 0.0
C506 C 0.82494 0.30467 0.15042 0.0
C507 C 0.82286 0.3399 0.12447 0.0
C508 C 0.81341 0.25227 0.09357 0.0
C509 C 0.80777 0.21822 0.11984 0.0
N510 N 0.79432 0.21423 0.17329 0.0
N511 N 0.80864 0.34887 0.07137 0.0
C512 C 0.80974 0.24495 0.14832 0.0
C513 C 0.8156 0.31419 0.09596 0.0
N514 N 0.84287 0.32789 0.17697 0.0
N515 N 0.81756 0.22539 0.06647 0.0
H516 H 0.81033 0.39437 0.07225 0.0
H517 H 0.79684 0.33284 0.0505 0.0
H518 H 0.81528 0.18012 0.06396 0.0
H519 H 0.82782 0.24744 0.04683 0.0
H520 H 0.85054 0.30259 0.19591 0.0
H521 H 0.85609 0.3713 0.17924 0.0
H522 H 0.78939 0.23362 0.19414 0.0
H523 H 0.78042 0.17084 0.17275 0.0
C524 C 0.33945 0.8029 0.39318 0.0
C525 C 0.3667 0.79217 0.36523 0.0
C526 C 0.27263 0.80854 0.34013 0.0
C527 C 0.24379 0.80995 0.36812 0.0
N528 N 0.24875 0.80205 0.42169 0.0
N529 N 0.35577 0.77127 0.31268 0.0
C530 C 0.27693 0.80567 0.39484 0.0
C531 C 0.33243 0.79138 0.3388 0.0
N532 N 0.3733 0.81134 0.41798 0.0
N533 N 0.24343 0.825 0.31484 0.0
H534 H 0.39854 0.75514 0.3109 0.0
H535 H 0.33055 0.7647 0.29356 0.0
H536 H 0.20011 0.84019 0.31506 0.0
H537 H 0.26427 0.82965 0.29428 0.0
H538 H 0.35618 0.82494 0.43835 0.0
H539 H 0.4192 0.80976 0.41751 0.0
H540 H 0.27034 0.79252 0.4416 0.0
H541 H 0.20306 0.80402 0.42378 0.0
C542 C 0.30021 0.83196 0.85158 0.0
C543 C 0.30161 0.86011 0.87964 0.0
C544 C 0.29386 0.76534 0.90465 0.0
C545 C 0.28425 0.73879 0.87651 0.0
N546 N 0.26314 0.74974 0.82394 0.0
N547 N 0.29526 0.85542 0.93319 0.0
C548 C 0.28301 0.77291 0.85015 0.0
C549 C 0.29742 0.82731 0.90637 0.0
N550 N 0.3167 0.86121 0.82633 0.0
N551 N 0.30065 0.73136 0.92949 0.0
H552 H 0.29924 0.90066 0.93516 0.0
H553 H 0.28584 0.8344 0.95323 0.0
H554 H 0.29755 0.68589 0.92898 0.0
H555 H 0.31356 0.74779 0.95011 0.0
H556 H 0.32142 0.84073 0.80574 0.0
H557 H 0.33188 0.90421 0.82659 0.0
H558 H 0.25631 0.77483 0.80484 0.0
H559 H 0.2474 0.70711 0.82209 0.0
C560 C 0.30769 0.3538 0.62124 0.0
C561 C 0.35373 0.31163 0.62191 0.0
C562 C 0.2812 0.2326 0.62287 0.0
C563 C 0.23512 0.2747 0.62241 0.0
N564 N 0.20523 0.37257 0.6096 0.0
N565 N 0.38345 0.21278 0.6114 0.0
C566 C 0.2488 0.33438 0.61747 0.0
C567 C 0.33996 0.25163 0.6184 0.0
N568 N 0.31867 0.41152 0.62663 0.0
N569 N 0.27039 0.17556 0.63009 0.0
H570 H 0.42675 0.22603 0.60746 0.0
H571 H 0.37515 0.16912 0.60631 0.0
H572 H 0.22876 0.15898 0.63467 0.0
H573 H 0.30393 0.14547 0.63414 0.0
H574 H 0.28525 0.44203 0.63002 0.0
H575 H 0.36044 0.42871 0.63011 0.0
H576 H 0.21345 0.4157 0.60339 0.0
H577 H 0.16187 0.35905 0.6061 0.0
C578 C 0.81369 0.74668 0.09451 0.0
C579 C 0.79074 0.71741 0.12002 0.0
C580 C 0.73391 0.80479 0.13216 0.0
C581 C 0.76684 0.83739 0.11116 0.0
N582 N 0.84003 0.84019 0.07248 0.0
N583 N 0.74235 0.72781 0.16815 0.0
C584 C 0.80733 0.80852 0.09224 0.0
C585 C 0.75378 0.74854 0.14011 0.0
N586 N 0.83994 0.71559 0.07223 0.0
N587 N 0.68533 0.82802 0.14563 0.0
H588 H 0.76316 0.69149 0.17738 0.0
H589 H 0.71881 0.75167 0.18394 0.0
H590 H 0.66912 0.86955 0.1409 0.0
H591 H 0.65779 0.80333 0.15935 0.0
H592 H 0.85357 0.73435 0.05222 0.0
H593 H 0.84216 0.67011 0.07243 0.0
H594 H 0.87487 0.82249 0.06038 0.0
H595 H 0.83373 0.885 0.0694 0.0
C596 C 0.75826 0.81416 0.39055 0.0
C597 C 0.74353 0.75846 0.37874 0.0
C598 C 0.84597 0.72791 0.38502 0.0
C599 C 0.86298 0.78704 0.38818 0.0
N600 N 0.83429 0.88421 0.40352 0.0
N601 N 0.77508 0.6616 0.36381 0.0
C602 C 0.81879 0.82956 0.39427 0.0
C603 C 0.7875 0.71451 0.37641 0.0
N604 N 0.71414 0.85132 0.39897 0.0
N605 N 0.88613 0.68474 0.3903 0.0
H606 H 0.73357 0.64997 0.35597 0.0
H607 H 0.80751 0.63098 0.35869 0.0
H608 H 0.92855 0.69413 0.3979 0.0
H609 H 0.87526 0.6405 0.39057 0.0
H610 H 0.72102 0.89089 0.4098 0.0
H611 H 0.66971 0.84016 0.39735 0.0
H612 H 0.80591 0.91993 0.40321 0.0
H613 H 0.8752 0.8933 0.41289 0.0
C614 C 0.26394 0.26831 0.89734 0.0
C615 C 0.28895 0.23994 0.8723 0.0
C616 C 0.28308 0.32951 0.84337 0.0
C617 C 0.26493 0.36037 0.86916 0.0
N618 N 0.24368 0.36097 0.92182 0.0
N619 N 0.33868 0.24793 0.82488 0.0
C620 C 0.2566 0.33031 0.89658 0.0
C621 C 0.30369 0.27196 0.8464 0.0
N622 N 0.24687 0.23608 0.92146 0.0
N623 N 0.27786 0.35396 0.81564 0.0
H624 H 0.35675 0.2062 0.82672 0.0
H625 H 0.35493 0.27189 0.80688 0.0
H626 H 0.25862 0.39471 0.81193 0.0
H627 H 0.28584 0.33069 0.79609 0.0
H628 H 0.22316 0.2533 0.93926 0.0
H629 H 0.25368 0.19102 0.92273 0.0
H630 H 0.24229 0.34222 0.94297 0.0
H631 H 0.23845 0.40623 0.92184 0.0
loop_
_geom_bond_atom_site_label_1
_geom_bond_atom_site_label_2
_geom_bond_distance
_geom_bond_site_symmetry_2
_ccdc_geom_bond_type
Co0 O3 1.970 . S
Co0 N17 1.989 . S
Co0 O25 1.967 . S
Co0 O32 1.920 . S
Co1 O4 1.966 . S
Co1 N10 2.022 . S
Co1 N18 1.993 . S
Co1 O26 1.941 . S
C2 O3 1.258 . S
C2 O4 1.263 . S
O3 Co0 1.970 . S
O3 C2 1.258 . S
O4 Co1 1.966 . S
O4 C2 1.263 . S
C5 O6 1.235 . S
C5 O32 1.289 . S
O6 C5 1.235 . S
C7 C9 1.400 . S
C7 N10 1.351 . S
C7 C12 1.501 . S
C8 C9 1.387 . S
C8 N11 1.341 . S
C9 C7 1.400 . S
C9 C8 1.387 . S
N10 Co1 2.022 . S
N10 C7 1.351 . S
N10 N11 1.365 . S
N11 C8 1.341 . S
N11 N10 1.365 . S
N11 H31 0.862 . S
C12 C7 1.501 . S
C12 H13 0.961 . S
C12 H14 0.961 . S
C12 H15 0.960 . S
H13 C12 0.961 . S
H14 C12 0.961 . S
H15 C12 0.960 . S
C16 N17 1.342 1_655 S
C16 C20 1.401 . S
C16 C21 1.499 . S
N17 Co0 1.989 . S
N17 C16 1.342 1_455 S
N17 N18 1.388 . S
N18 Co1 1.993 . S
N18 N17 1.388 . S
N18 C19 1.346 1_455 S
C19 N18 1.346 1_655 S
C19 C20 1.396 . S
C19 C29 1.510 . S
C20 C16 1.401 . S
C20 C19 1.396 . S
C21 C16 1.499 . S
C21 H22 0.959 . S
C21 H23 0.960 . S
C21 H24 0.961 . S
H22 C21 0.959 . S
H23 C21 0.960 . S
H24 C21 0.961 . S
O25 Co0 1.967 . S
O25 C33 1.258 . S
O26 Co1 1.941 . S
O26 C33 1.266 . S
H27 C29 0.959 . S
H28 C29 0.961 . S
C29 C19 1.510 . S
C29 H27 0.959 . S
C29 H28 0.961 . S
C29 H30 0.960 . S
H30 C29 0.960 . S
H31 N11 0.862 . S
O32 Co0 1.920 . S
O32 C5 1.289 . S
C33 O25 1.258 . S
C33 O26 1.266 . S
Co34 O37 1.970 . S
Co34 N51 1.989 . S
Co34 O59 1.967 . S
Co34 O66 1.920 . S
Co35 O38 1.966 . S
Co35 N44 2.022 . S
Co35 N52 1.993 . S
Co35 O60 1.941 . S
C36 O37 1.258 . S
C36 O38 1.263 . S
O37 Co34 1.970 . S
O37 C36 1.258 . S
O38 Co35 1.966 . S
O38 C36 1.263 . S
C39 O40 1.235 . S
C39 O66 1.289 . S
O40 C39 1.235 . S
C41 C43 1.400 . S
C41 N44 1.351 . S
C41 C46 1.501 . S
C42 C43 1.387 1_455 S
C42 N45 1.341 1_455 S
C43 C41 1.400 . S
C43 C42 1.387 1_655 S
N44 Co35 2.022 . S
N44 C41 1.351 . S
N44 N45 1.365 . S
N45 C42 1.341 1_655 S
N45 N44 1.365 . S
N45 H65 0.862 1_655 S
C46 C41 1.501 . S
C46 H47 0.961 . S
C46 H48 0.961 . S
C46 H49 0.960 . S
H47 C46 0.961 . S
H48 C46 0.961 . S
H49 C46 0.960 . S
C50 N51 1.342 . S
C50 C54 1.401 . S
C50 C55 1.499 . S
N51 Co34 1.989 . S
N51 C50 1.342 . S
N51 N52 1.388 . S
N52 Co35 1.993 . S
N52 N51 1.388 . S
N52 C53 1.346 . S
C53 N52 1.346 . S
C53 C54 1.396 . S
C53 C63 1.510 . S
C54 C50 1.401 . S
C54 C53 1.396 . S
C55 C50 1.499 . S
C55 H56 0.959 . S
C55 H57 0.960 . S
C55 H58 0.961 . S
H56 C55 0.959 . S
H57 C55 0.960 . S
H58 C55 0.961 . S
O59 Co34 1.967 . S
O59 C67 1.258 . S
O60 Co35 1.941 . S
O60 C67 1.266 . S
H61 C63 0.959 . S
H62 C63 0.961 . S
C63 C53 1.510 . S
C63 H61 0.959 . S
C63 H62 0.961 . S
C63 H64 0.960 . S
H64 C63 0.960 . S
H65 N45 0.862 1_455 S
O66 Co34 1.920 . S
O66 C39 1.289 . S
C67 O59 1.258 . S
C67 O60 1.266 . S
Co68 O71 1.970 . S
Co68 N85 1.989 . S
Co68 O93 1.967 . S
Co68 O100 1.920 . S
Co69 O72 1.966 . S
Co69 N78 2.022 . S
Co69 N86 1.993 . S
Co69 O94 1.941 . S
C70 O71 1.258 . S
C70 O72 1.263 . S
O71 Co68 1.970 . S
O71 C70 1.258 . S
O72 Co69 1.966 . S
O72 C70 1.263 . S
C73 O74 1.235 . S
C73 O100 1.289 . S
O74 C73 1.235 . S
C75 C77 1.400 . S
C75 N78 1.351 . S
C75 C80 1.501 . S
C76 C77 1.387 . S
C76 N79 1.341 . S
C77 C75 1.400 . S
C77 C76 1.387 . S
N78 Co69 2.022 . S
N78 C75 1.351 . S
N78 N79 1.365 . S
N79 C76 1.341 . S
N79 N78 1.365 . S
N79 H99 0.862 . S
C80 C75 1.501 . S
C80 H81 0.961 . S
C80 H82 0.961 . S
C80 H83 0.960 . S
H81 C80 0.961 . S
H82 C80 0.961 . S
H83 C80 0.960 . S
C84 N85 1.342 . S
C84 C88 1.401 . S
C84 C89 1.499 . S
N85 Co68 1.989 . S
N85 C84 1.342 . S
N85 N86 1.388 . S
N86 Co69 1.993 . S
N86 N85 1.388 . S
N86 C87 1.346 . S
C87 N86 1.346 . S
C87 C88 1.396 . S
C87 C97 1.510 . S
C88 C84 1.401 . S
C88 C87 1.396 . S
C89 C84 1.499 . S
C89 H90 0.959 . S
C89 H91 0.960 . S
C89 H92 0.961 . S
H90 C89 0.959 . S
H91 C89 0.960 . S
H92 C89 0.961 . S
O93 Co68 1.967 . S
O93 C101 1.258 . S
O94 Co69 1.941 . S
O94 C101 1.266 . S
H95 C97 0.959 . S
H96 C97 0.961 . S
C97 C87 1.510 . S
C97 H95 0.959 . S
C97 H96 0.961 . S
C97 H98 0.960 . S
H98 C97 0.960 . S
H99 N79 0.862 . S
O100 Co68 1.920 . S
O100 C73 1.289 . S
C101 O93 1.258 . S
C101 O94 1.266 . S
Co102 O105 1.970 1_545 S
Co102 N119 1.989 . S
Co102 O127 1.967 1_545 S
Co102 O134 1.920 . S
Co103 O106 1.966 1_545 S
Co103 N112 2.022 . S
Co103 N120 1.993 . S
Co103 O128 1.941 1_545 S
C104 O105 1.258 . S
C104 O106 1.263 . S
O105 Co102 1.970 1_565 S
O105 C104 1.258 . S
O106 Co103 1.966 1_565 S
O106 C104 1.263 . S
C107 O108 1.235 . S
C107 O134 1.289 . S
O108 C107 1.235 . S
C109 C111 1.400 . S
C109 N112 1.351 . S
C109 C114 1.501 1_545 S
C110 C111 1.387 . S
C110 N113 1.341 . S
C111 C109 1.400 . S
C111 C110 1.387 . S
N112 Co103 2.022 . S
N112 C109 1.351 . S
N112 N113 1.365 . S
N113 C110 1.341 . S
N113 N112 1.365 . S
N113 H133 0.862 . S
C114 C109 1.501 1_565 S
C114 H115 0.961 . S
C114 H116 0.961 . S
C114 H117 0.960 . S
H115 C114 0.961 . S
H116 C114 0.961 . S
H117 C114 0.960 . S
C118 N119 1.342 . S
C118 C122 1.401 . S
C118 C123 1.499 . S
N119 Co102 1.989 . S
N119 C118 1.342 . S
N119 N120 1.388 . S
N120 Co103 1.993 . S
N120 N119 1.388 . S
N120 C121 1.346 . S
C121 N120 1.346 . S
C121 C122 1.396 . S
C121 C131 1.510 . S
C122 C118 1.401 . S
C122 C121 1.396 . S
C123 C118 1.499 . S
C123 H124 0.959 . S
C123 H125 0.960 . S
C123 H126 0.961 . S
H124 C123 0.959 . S
H125 C123 0.960 . S
H126 C123 0.961 . S
O127 Co102 1.967 1_565 S
O127 C135 1.258 . S
O128 Co103 1.941 1_565 S
O128 C135 1.266 . S
H129 C131 0.959 . S
H130 C131 0.961 . S
C131 C121 1.510 . S
C131 H129 0.959 . S
C131 H130 0.961 . S
C131 H132 0.960 . S
H132 C131 0.960 . S
H133 N113 0.862 . S
O134 Co102 1.920 . S
O134 C107 1.289 . S
C135 O127 1.258 . S
C135 O128 1.266 . S
Co136 O139 1.970 1_455 S
Co136 N153 1.989 . S
Co136 O161 1.967 1_455 S
Co136 O168 1.920 . S
Co137 O140 1.966 1_455 S
Co137 N146 2.022 . S
Co137 N154 1.993 . S
Co137 O162 1.941 1_455 S
C138 O139 1.258 . S
C138 O140 1.263 . S
O139 Co136 1.970 1_655 S
O139 C138 1.258 . S
O140 Co137 1.966 1_655 S
O140 C138 1.263 . S
C141 O142 1.235 . S
C141 O168 1.289 . S
O142 C141 1.235 . S
C143 C145 1.400 . S
C143 N146 1.351 . S
C143 C148 1.501 1_455 S
C144 C145 1.387 1_545 S
C144 N147 1.341 1_545 S
C145 C143 1.400 . S
C145 C144 1.387 1_565 S
N146 Co137 2.022 . S
N146 C143 1.351 . S
N146 N147 1.365 . S
N147 C144 1.341 1_565 S
N147 N146 1.365 . S
N147 H167 0.862 1_565 S
C148 C143 1.501 1_655 S
C148 H149 0.961 . S
C148 H150 0.961 . S
C148 H151 0.960 . S
H149 C148 0.961 . S
H150 C148 0.961 . S
H151 C148 0.960 . S
C152 N153 1.342 . S
C152 C156 1.401 . S
C152 C157 1.499 . S
N153 Co136 1.989 . S
N153 C152 1.342 . S
N153 N154 1.388 . S
N154 Co137 1.993 . S
N154 N153 1.388 . S
N154 C155 1.346 . S
C155 N154 1.346 . S
C155 C156 1.396 . S
C155 C165 1.510 . S
C156 C152 1.401 . S
C156 C155 1.396 . S
C157 C152 1.499 . S
C157 H158 0.959 . S
C157 H159 0.960 . S
C157 H160 0.961 . S
H158 C157 0.959 . S
H159 C157 0.960 . S
H160 C157 0.961 . S
O161 Co136 1.967 1_655 S
O161 C169 1.258 . S
O162 Co137 1.941 1_655 S
O162 C169 1.266 . S
H163 C165 0.959 . S
H164 C165 0.961 . S
C165 C155 1.510 . S
C165 H163 0.959 . S
C165 H164 0.961 . S
C165 H166 0.960 . S
H166 C165 0.960 . S
H167 N147 0.862 1_545 S
O168 Co136 1.920 . S
O168 C141 1.289 . S
C169 O161 1.258 . S
C169 O162 1.266 . S
Co170 O173 1.970 . S
Co170 N187 1.989 . S
Co170 O195 1.967 . S
Co170 O202 1.920 . S
Co171 O174 1.966 . S
Co171 N180 2.022 . S
Co171 N188 1.993 . S
Co171 O196 1.941 . S
C172 O173 1.258 . S
C172 O174 1.263 . S
O173 Co170 1.970 . S
O173 C172 1.258 . S
O174 Co171 1.966 . S
O174 C172 1.263 . S
C175 O176 1.235 . S
C175 O202 1.289 . S
O176 C175 1.235 . S
C177 C179 1.400 . S
C177 N180 1.351 . S
C177 C182 1.501 . S
C178 C179 1.387 . S
C178 N181 1.341 . S
C179 C177 1.400 . S
C179 C178 1.387 . S
N180 Co171 2.022 . S
N180 C177 1.351 . S
N180 N181 1.365 . S
N181 C178 1.341 . S
N181 N180 1.365 . S
N181 H201 0.862 . S
C182 C177 1.501 . S
C182 H183 0.961 . S
C182 H184 0.961 . S
C182 H185 0.960 . S
H183 C182 0.961 . S
H184 C182 0.961 . S
H185 C182 0.960 . S
C186 N187 1.342 . S
C186 C190 1.401 . S
C186 C191 1.499 . S
N187 Co170 1.989 . S
N187 C186 1.342 . S
N187 N188 1.388 . S
N188 Co171 1.993 . S
N188 N187 1.388 . S
N188 C189 1.346 . S
C189 N188 1.346 . S
C189 C190 1.396 . S
C189 C199 1.510 . S
C190 C186 1.401 . S
C190 C189 1.396 . S
C191 C186 1.499 . S
C191 H192 0.959 . S
C191 H193 0.960 . S
C191 H194 0.961 . S
H192 C191 0.959 . S
H193 C191 0.960 . S
H194 C191 0.961 . S
O195 Co170 1.967 . S
O195 C203 1.258 . S
O196 Co171 1.941 . S
O196 C203 1.266 . S
H197 C199 0.959 . S
H198 C199 0.961 . S
C199 C189 1.510 . S
C199 H197 0.959 . S
C199 H198 0.961 . S
C199 H200 0.960 . S
H200 C199 0.960 . S
H201 N181 0.862 . S
O202 Co170 1.920 . S
O202 C175 1.289 . S
C203 O195 1.258 . S
C203 O196 1.266 . S
Co204 O207 1.970 . S
Co204 N221 1.989 . S
Co204 O229 1.967 . S
Co204 O236 1.920 . S
Co205 O208 1.966 . S
Co205 N214 2.022 . S
Co205 N222 1.993 . S
Co205 O230 1.941 . S
C206 O207 1.258 . S
C206 O208 1.263 . S
O207 Co204 1.970 . S
O207 C206 1.258 . S
O208 Co205 1.966 . S
O208 C206 1.263 . S
C209 O210 1.235 . S
C209 O236 1.289 . S
O210 C209 1.235 . S
C211 C213 1.400 . S
C211 N214 1.351 . S
C211 C216 1.501 . S
C212 C213 1.387 . S
C212 N215 1.341 . S
C213 C211 1.400 . S
C213 C212 1.387 . S
N214 Co205 2.022 . S
N214 C211 1.351 . S
N214 N215 1.365 . S
N215 C212 1.341 . S
N215 N214 1.365 . S
N215 H235 0.862 . S
C216 C211 1.501 . S
C216 H217 0.961 . S
C216 H218 0.961 . S
C216 H219 0.960 . S
H217 C216 0.961 . S
H218 C216 0.961 . S
H219 C216 0.960 . S
C220 N221 1.342 . S
C220 C224 1.401 . S
C220 C225 1.499 . S
N221 Co204 1.989 . S
N221 C220 1.342 . S
N221 N222 1.388 . S
N222 Co205 1.993 . S
N222 N221 1.388 . S
N222 C223 1.346 . S
C223 N222 1.346 . S
C223 C224 1.396 . S
C223 C233 1.510 . S
C224 C220 1.401 . S
C224 C223 1.396 . S
C225 C220 1.499 . S
C225 H226 0.959 . S
C225 H227 0.960 . S
C225 H228 0.961 . S
H226 C225 0.959 . S
H227 C225 0.960 . S
H228 C225 0.961 . S
O229 Co204 1.967 . S
O229 C237 1.258 . S
O230 Co205 1.941 . S
O230 C237 1.266 . S
H231 C233 0.959 . S
H232 C233 0.961 . S
C233 C223 1.510 . S
C233 H231 0.959 . S
C233 H232 0.961 . S
C233 H234 0.960 . S
H234 C233 0.960 . S
H235 N215 0.862 . S
O236 Co204 1.920 . S
O236 C209 1.289 . S
C237 O229 1.258 . S
C237 O230 1.266 . S
Co238 O241 1.970 . S
Co238 N255 1.989 . S
Co238 O263 1.967 . S
Co238 O270 1.920 . S
Co239 O242 1.966 . S
Co239 N248 2.022 . S
Co239 N256 1.993 . S
Co239 O264 1.941 . S
C240 O241 1.258 . S
C240 O242 1.263 . S
O241 Co238 1.970 . S
O241 C240 1.258 . S
O242 Co239 1.966 . S
O242 C240 1.263 . S
C243 O244 1.235 . S
C243 O270 1.289 . S
O244 C243 1.235 . S
C245 C247 1.400 . S
C245 N248 1.351 . S
C245 C250 1.501 . S
C246 C247 1.387 . S
C246 N249 1.341 . S
C247 C245 1.400 . S
C247 C246 1.387 . S
N248 Co239 2.022 . S
N248 C245 1.351 . S
N248 N249 1.365 . S
N249 C246 1.341 . S
N249 N248 1.365 . S
N249 H269 0.862 . S
C250 C245 1.501 . S
C250 H251 0.961 . S
C250 H252 0.961 . S
C250 H253 0.960 . S
H251 C250 0.961 . S
H252 C250 0.961 . S
H253 C250 0.960 . S
C254 N255 1.342 1_565 S
C254 C258 1.401 . S
C254 C259 1.499 . S
N255 Co238 1.989 . S
N255 C254 1.342 1_545 S
N255 N256 1.388 . S
N256 Co239 1.993 . S
N256 N255 1.388 . S
N256 C257 1.346 1_545 S
C257 N256 1.346 1_565 S
C257 C258 1.396 . S
C257 C267 1.510 . S
C258 C254 1.401 . S
C258 C257 1.396 . S
C259 C254 1.499 . S
C259 H260 0.959 . S
C259 H261 0.960 . S
C259 H262 0.961 . S
H260 C259 0.959 . S
H261 C259 0.960 . S
H262 C259 0.961 . S
O263 Co238 1.967 . S
O263 C271 1.258 . S
O264 Co239 1.941 . S
O264 C271 1.266 . S
H265 C267 0.959 . S
H266 C267 0.961 . S
C267 C257 1.510 . S
C267 H265 0.959 . S
C267 H266 0.961 . S
C267 H268 0.960 . S
H268 C267 0.960 . S
H269 N249 0.862 . S
O270 Co238 1.920 . S
O270 C243 1.289 . S
C271 O263 1.258 . S
C271 O264 1.266 . S
C272 C273 1.363 . S
C272 C278 1.379 . S
C272 N280 1.356 . S
C273 C272 1.363 . S
C273 C279 1.363 1_545 S
C274 C275 1.363 . S
C274 C279 1.379 1_545 S
C274 N281 1.356 1_455 S
C275 C274 1.363 . S
C275 C278 1.363 . S
N276 C278 1.356 . S
N276 H288 0.984 . S
N276 H289 0.985 . S
N277 C279 1.356 1_655 S
N277 H282 0.984 . S
N277 H283 0.985 . S
C278 C272 1.379 . S
C278 C275 1.363 . S
C278 N276 1.356 . S
C279 C273 1.363 1_565 S
C279 C274 1.379 1_565 S
C279 N277 1.356 1_455 S
N280 C272 1.356 . S
N280 H286 0.984 . S
N280 H287 0.984 . S
N281 C274 1.356 1_655 S
N281 H284 0.984 . S
N281 H285 0.985 . S
H282 N277 0.984 . S
H283 N277 0.985 . S
H284 N281 0.984 . S
H285 N281 0.985 . S
H286 N280 0.984 . S
H287 N280 0.984 . S
H288 N276 0.984 . S
H289 N276 0.985 . S
C290 C291 1.363 . S
C290 C296 1.379 1_554 S
C290 N298 1.356 1_455 S
C291 C290 1.363 . S
C291 C297 1.363 . S
C292 C293 1.363 . S
C292 C297 1.379 1_556 S
C292 N299 1.356 . S
C293 C292 1.363 . S
C293 C296 1.363 . S
N294 C296 1.356 . S
N294 H306 0.984 . S
N294 H307 0.985 . S
N295 C297 1.356 . S
N295 H300 0.984 . S
N295 H301 0.985 . S
C296 C290 1.379 1_556 S
C296 C293 1.363 . S
C296 N294 1.356 . S
C297 C291 1.363 . S
C297 C292 1.379 1_554 S
C297 N295 1.356 . S
N298 C290 1.356 1_655 S
N298 H304 0.984 . S
N298 H305 0.984 . S
N299 C292 1.356 . S
N299 H302 0.984 . S
N299 H303 0.985 . S
H300 N295 0.984 . S
H301 N295 0.985 . S
H302 N299 0.984 . S
H303 N299 0.985 . S
H304 N298 0.984 . S
H305 N298 0.984 . S
H306 N294 0.984 . S
H307 N294 0.985 . S
C308 C309 1.363 . S
C308 C314 1.379 . S
C308 N316 1.356 . S
C309 C308 1.363 . S
C309 C315 1.363 . S
C310 C311 1.363 . S
C310 C315 1.379 . S
C310 N317 1.356 . S
C311 C310 1.363 . S
C311 C314 1.363 . S
N312 C314 1.356 . S
N312 H324 0.984 . S
N312 H325 0.985 . S
N313 C315 1.356 . S
N313 H318 0.984 . S
N313 H319 0.985 . S
C314 C308 1.379 . S
C314 C311 1.363 . S
C314 N312 1.356 . S
C315 C309 1.363 . S
C315 C310 1.379 . S
C315 N313 1.356 . S
N316 C308 1.356 . S
N316 H322 0.984 . S
N316 H323 0.984 . S
N317 C310 1.356 . S
N317 H320 0.984 . S
N317 H321 0.985 . S
H318 N313 0.984 . S
H319 N313 0.985 . S
H320 N317 0.984 . S
H321 N317 0.985 . S
H322 N316 0.984 . S
H323 N316 0.984 . S
H324 N312 0.984 . S
H325 N312 0.985 . S
C326 C327 1.363 . S
C326 C332 1.379 1_556 S
C326 N334 1.356 . S
C327 C326 1.363 . S
C327 C333 1.363 1_545 S
C328 C329 1.363 . S
C328 C333 1.379 1_544 S
C328 N335 1.356 1_545 S
C329 C328 1.363 . S
C329 C332 1.363 . S
N330 C332 1.356 . S
N330 H342 0.984 . S
N330 H343 0.985 . S
N331 C333 1.356 . S
N331 H336 0.984 . S
N331 H337 0.985 . S
C332 C326 1.379 1_554 S
C332 C329 1.363 . S
C332 N330 1.356 . S
C333 C327 1.363 1_565 S
C333 C328 1.379 1_566 S
C333 N331 1.356 . S
N334 C326 1.356 . S
N334 H340 0.984 . S
N334 H341 0.984 . S
N335 C328 1.356 1_565 S
N335 H338 0.984 . S
N335 H339 0.985 . S
H336 N331 0.984 . S
H337 N331 0.985 . S
H338 N335 0.984 . S
H339 N335 0.985 . S
H340 N334 0.984 . S
H341 N334 0.984 . S
H342 N330 0.984 . S
H343 N330 0.985 . S
C344 C345 1.363 . S
C344 C350 1.379 . S
C344 N352 1.356 . S
C345 C344 1.363 . S
C345 C351 1.363 . S
C346 C347 1.363 . S
C346 C351 1.379 . S
C346 N353 1.356 . S
C347 C346 1.363 . S
C347 C350 1.363 . S
N348 C350 1.356 . S
N348 H360 0.984 . S
N348 H361 0.985 . S
N349 C351 1.356 . S
N349 H354 0.984 . S
N349 H355 0.985 . S
C350 C344 1.379 . S
C350 C347 1.363 . S
C350 N348 1.356 . S
C351 C345 1.363 . S
C351 C346 1.379 . S
C351 N349 1.356 . S
N352 C344 1.356 . S
N352 H358 0.984 1_545 S
N352 H359 0.984 . S
N353 C346 1.356 . S
N353 H356 0.984 . S
N353 H357 0.985 . S
H354 N349 0.984 . S
H355 N349 0.985 . S
H356 N353 0.984 . S
H357 N353 0.985 . S
H358 N352 0.984 1_565 S
H359 N352 0.984 . S
H360 N348 0.984 . S
H361 N348 0.985 . S
C362 C363 1.363 1_455 S
C362 C368 1.379 1_455 S
C362 N370 1.356 . S
C363 C362 1.363 1_655 S
C363 C369 1.363 . S
C364 C365 1.363 . S
C364 C369 1.379 . S
C364 N371 1.356 . S
C365 C364 1.363 . S
C365 C368 1.363 . S
N366 C368 1.357 . S
N366 H378 0.977 1_655 S
N366 H379 0.991 . S
N367 C369 1.356 . S
N367 H372 0.984 . S
N367 H373 0.985 . S
C368 C362 1.379 1_655 S
C368 C365 1.363 . S
C368 N366 1.357 . S
C369 C363 1.363 . S
C369 C364 1.379 . S
C369 N367 1.356 . S
N370 C362 1.356 . S
N370 H376 0.984 . S
N370 H377 0.984 . S
N371 C364 1.356 . S
N371 H374 0.984 . S
N371 H375 0.985 . S
H372 N367 0.984 . S
H373 N367 0.985 . S
H374 N371 0.984 . S
H375 N371 0.985 . S
H376 N370 0.984 . S
H377 N370 0.984 . S
H378 N366 0.977 1_455 S
H379 N366 0.991 . S
C380 C381 1.363 . S
C380 C386 1.379 . S
C380 N388 1.356 . S
C381 C380 1.363 . S
C381 C387 1.363 . S
C382 C383 1.363 . S
C382 C387 1.379 . S
C382 N389 1.356 . S
C383 C382 1.363 . S
C383 C386 1.363 . S
N384 C386 1.356 . S
N384 H396 0.984 . S
N384 H397 0.985 . S
N385 C387 1.356 . S
N385 H390 0.984 . S
N385 H391 0.985 . S
C386 C380 1.379 . S
C386 C383 1.363 . S
C386 N384 1.356 . S
C387 C381 1.363 . S
C387 C382 1.379 . S
C387 N385 1.356 . S
N388 C380 1.356 . S
N388 H394 0.984 . S
N388 H395 0.984 . S
N389 C382 1.356 . S
N389 H392 0.984 . S
N389 H393 0.985 . S
H390 N385 0.984 . S
H391 N385 0.985 . S
H392 N389 0.984 . S
H393 N389 0.985 . S
H394 N388 0.984 . S
H395 N388 0.984 . S
H396 N384 0.984 . S
H397 N384 0.985 . S
C398 C399 1.363 . S
C398 C404 1.379 . S
C398 N406 1.356 . S
C399 C398 1.363 . S
C399 C405 1.363 . S
C400 C401 1.355 1_545 S
C400 C405 1.375 1_545 S
C400 N407 1.368 . S
C401 C400 1.355 1_565 S
C401 C404 1.363 . S
N402 C404 1.356 . S
N402 H414 0.984 . S
N402 H415 0.985 . S
N403 C405 1.356 1_545 S
N403 H408 0.984 1_545 S
N403 H409 0.985 . S
C404 C398 1.379 . S
C404 C401 1.363 . S
C404 N402 1.356 . S
C405 C399 1.363 . S
C405 C400 1.375 1_565 S
C405 N403 1.356 1_565 S
N406 C398 1.356 . S
N406 H412 0.984 . S
N406 H413 0.984 . S
N407 C400 1.368 . S
N407 H410 0.984 . S
N407 H411 0.985 . S
H408 N403 0.984 1_565 S
H409 N403 0.985 . S
H410 N407 0.984 . S
H411 N407 0.985 . S
H412 N406 0.984 . S
H413 N406 0.984 . S
H414 N402 0.984 . S
H415 N402 0.985 . S
C416 C417 1.363 . S
C416 C422 1.379 . S
C416 N424 1.356 1_655 S
C417 C416 1.363 . S
C417 C423 1.363 . S
C418 C419 1.363 . S
C418 C423 1.379 1_545 S
C418 N425 1.356 . S
C419 C418 1.363 . S
C419 C422 1.363 1_545 S
N420 C422 1.356 . S
N420 H432 0.984 1_655 S
N420 H433 0.985 . S
N421 C423 1.356 . S
N421 H426 0.984 . S
N421 H427 0.985 1_565 S
C422 C416 1.379 . S
C422 C419 1.363 1_565 S
C422 N420 1.356 . S
C423 C417 1.363 . S
C423 C418 1.379 1_565 S
C423 N421 1.356 . S
N424 C416 1.356 1_455 S
N424 H430 0.984 . S
N424 H431 0.984 . S
N425 C418 1.356 . S
N425 H428 0.984 . S
N425 H429 0.985 . S
H426 N421 0.984 . S
H427 N421 0.985 1_545 S
H428 N425 0.984 . S
H429 N425 0.985 . S
H430 N424 0.984 . S
H431 N424 0.984 . S
H432 N420 0.984 1_455 S
H433 N420 0.985 . S
C434 C435 1.363 . S
C434 C440 1.379 . S
C434 N442 1.356 . S
C435 C434 1.363 . S
C435 C441 1.363 . S
C436 C437 1.363 . S
C436 C441 1.379 . S
C436 N443 1.356 . S
C437 C436 1.363 . S
C437 C440 1.363 . S
N438 C440 1.356 . S
N438 H450 0.984 1_455 S
N438 H451 0.985 . S
N439 C441 1.356 . S
N439 H444 0.984 . S
N439 H445 0.985 . S
C440 C434 1.379 . S
C440 C437 1.363 . S
C440 N438 1.356 . S
C441 C435 1.363 . S
C441 C436 1.379 . S
C441 N439 1.356 . S
N442 C434 1.356 . S
N442 H448 0.984 . S
N442 H449 0.984 . S
N443 C436 1.356 . S
N443 H446 0.984 . S
N443 H447 0.985 . S
H444 N439 0.984 . S
H445 N439 0.985 . S
H446 N443 0.984 . S
H447 N443 0.985 . S
H448 N442 0.984 . S
H449 N442 0.984 . S
H450 N438 0.984 1_655 S
H451 N438 0.985 . S
C452 C453 1.363 . S
C452 C458 1.379 . S
C452 N460 1.356 . S
C453 C452 1.363 . S
C453 C459 1.363 . S
C454 C455 1.363 . S
C454 C459 1.379 . S
C454 N461 1.356 . S
C455 C454 1.363 . S
C455 C458 1.363 . S
N456 C458 1.356 . S
N456 H468 0.984 . S
N456 H469 0.985 . S
N457 C459 1.356 . S
N457 H462 0.984 . S
N457 H463 0.985 . S
C458 C452 1.379 . S
C458 C455 1.363 . S
C458 N456 1.356 . S
C459 C453 1.363 . S
C459 C454 1.379 . S
C459 N457 1.356 . S
N460 C452 1.356 . S
N460 H466 0.984 . S
N460 H467 0.984 . S
N461 C454 1.356 . S
N461 H464 0.984 . S
N461 H465 0.985 . S
H462 N457 0.984 . S
H463 N457 0.985 . S
H464 N461 0.984 . S
H465 N461 0.985 . S
H466 N460 0.984 . S
H467 N460 0.984 . S
H468 N456 0.984 . S
H469 N456 0.985 . S
C470 C471 1.363 . S
C470 C476 1.379 . S
C470 N478 1.356 . S
C471 C470 1.363 . S
C471 C477 1.363 . S
C472 C473 1.363 . S
C472 C477 1.379 . S
C472 N479 1.356 . S
C473 C472 1.363 . S
C473 C476 1.363 . S
N474 C476 1.356 . S
N474 H486 0.984 . S
N474 H487 0.985 . S
N475 C477 1.356 . S
N475 H480 0.984 . S
N475 H481 0.985 . S
C476 C470 1.379 . S
C476 C473 1.363 . S
C476 N474 1.356 . S
C477 C471 1.363 . S
C477 C472 1.379 . S
C477 N475 1.356 . S
N478 C470 1.356 . S
N478 H484 0.984 . S
N478 H485 0.984 . S
N479 C472 1.356 . S
N479 H482 0.984 . S
N479 H483 0.985 . S
H480 N475 0.984 . S
H481 N475 0.985 . S
H482 N479 0.984 . S
H483 N479 0.985 . S
H484 N478 0.984 . S
H485 N478 0.984 . S
H486 N474 0.984 . S
H487 N474 0.985 . S
C488 C489 1.363 . S
C488 C494 1.379 . S
C488 N496 1.356 . S
C489 C488 1.363 . S
C489 C495 1.363 . S
C490 C491 1.363 . S
C490 C495 1.379 . S
C490 N497 1.356 . S
C491 C490 1.363 . S
C491 C494 1.363 . S
N492 C494 1.356 . S
N492 H504 0.984 . S
N492 H505 0.985 . S
N493 C495 1.356 . S
N493 H498 0.984 . S
N493 H499 0.985 . S
C494 C488 1.379 . S
C494 C491 1.363 . S
C494 N492 1.356 . S
C495 C489 1.363 . S
C495 C490 1.379 . S
C495 N493 1.356 . S
N496 C488 1.356 . S
N496 H502 0.984 . S
N496 H503 0.984 . S
N497 C490 1.356 . S
N497 H500 0.984 . S
N497 H501 0.985 . S
H498 N493 0.984 . S
H499 N493 0.985 . S
H500 N497 0.984 . S
H501 N497 0.985 . S
H502 N496 0.984 . S
H503 N496 0.984 . S
H504 N492 0.984 . S
H505 N492 0.985 . S
C506 C507 1.363 . S
C506 C512 1.379 . S
C506 N514 1.356 . S
C507 C506 1.363 . S
C507 C513 1.363 . S
C508 C509 1.363 . S
C508 C513 1.379 . S
C508 N515 1.356 . S
C509 C508 1.363 . S
C509 C512 1.363 . S
N510 C512 1.356 . S
N510 H522 0.984 . S
N510 H523 0.985 . S
N511 C513 1.356 . S
N511 H516 0.984 . S
N511 H517 0.985 . S
C512 C506 1.379 . S
C512 C509 1.363 . S
C512 N510 1.356 . S
C513 C507 1.363 . S
C513 C508 1.379 . S
C513 N511 1.356 . S
N514 C506 1.356 . S
N514 H520 0.984 . S
N514 H521 0.984 . S
N515 C508 1.356 . S
N515 H518 0.984 . S
N515 H519 0.985 . S
H516 N511 0.984 . S
H517 N511 0.985 . S
H518 N515 0.984 . S
H519 N515 0.985 . S
H520 N514 0.984 . S
H521 N514 0.984 . S
H522 N510 0.984 . S
H523 N510 0.985 . S
C524 C525 1.363 . S
C524 C530 1.379 . S
C524 N532 1.356 . S
C525 C524 1.363 . S
C525 C531 1.363 . S
C526 C527 1.363 . S
C526 C531 1.379 . S
C526 N533 1.356 . S
C527 C526 1.363 . S
C527 C530 1.363 . S
N528 C530 1.356 . S
N528 H540 0.984 . S
N528 H541 0.985 . S
N529 C531 1.356 . S
N529 H534 0.984 . S
N529 H535 0.985 . S
C530 C524 1.379 . S
C530 C527 1.363 . S
C530 N528 1.356 . S
C531 C525 1.363 . S
C531 C526 1.379 . S
C531 N529 1.356 . S
N532 C524 1.356 . S
N532 H538 0.984 . S
N532 H539 0.984 . S
N533 C526 1.356 . S
N533 H536 0.984 . S
N533 H537 0.985 . S
H534 N529 0.984 . S
H535 N529 0.985 . S
H536 N533 0.984 . S
H537 N533 0.985 . S
H538 N532 0.984 . S
H539 N532 0.984 . S
H540 N528 0.984 . S
H541 N528 0.985 . S
C542 C543 1.363 . S
C542 C548 1.379 . S
C542 N550 1.356 . S
C543 C542 1.363 . S
C543 C549 1.363 . S
C544 C545 1.363 . S
C544 C549 1.379 . S
C544 N551 1.356 . S
C545 C544 1.363 . S
C545 C548 1.363 . S
N546 C548 1.356 . S
N546 H558 0.984 . S
N546 H559 0.985 . S
N547 C549 1.356 . S
N547 H552 0.984 . S
N547 H553 0.985 . S
C548 C542 1.379 . S
C548 C545 1.363 . S
C548 N546 1.356 . S
C549 C543 1.363 . S
C549 C544 1.379 . S
C549 N547 1.356 . S
N550 C542 1.356 . S
N550 H556 0.984 . S
N550 H557 0.984 . S
N551 C544 1.356 . S
N551 H554 0.984 . S
N551 H555 0.985 . S
H552 N547 0.984 . S
H553 N547 0.985 . S
H554 N551 0.984 . S
H555 N551 0.985 . S
H556 N550 0.984 . S
H557 N550 0.984 . S
H558 N546 0.984 . S
H559 N546 0.985 . S
C560 C561 1.363 . S
C560 C566 1.379 . S
C560 N568 1.356 . S
C561 C560 1.363 . S
C561 C567 1.363 . S
C562 C563 1.363 . S
C562 C567 1.379 . S
C562 N569 1.356 . S
C563 C562 1.363 . S
C563 C566 1.363 . S
N564 C566 1.356 . S
N564 H576 0.984 . S
N564 H577 0.985 . S
N565 C567 1.356 . S
N565 H570 0.984 . S
N565 H571 0.985 . S
C566 C560 1.379 . S
C566 C563 1.363 . S
C566 N564 1.356 . S
C567 C561 1.363 . S
C567 C562 1.379 . S
C567 N565 1.356 . S
N568 C560 1.356 . S
N568 H574 0.984 . S
N568 H575 0.984 . S
N569 C562 1.356 . S
N569 H572 0.984 . S
N569 H573 0.985 . S
H570 N565 0.984 . S
H571 N565 0.985 . S
H572 N569 0.984 . S
H573 N569 0.985 . S
H574 N568 0.984 . S
H575 N568 0.984 . S
H576 N564 0.984 . S
H577 N564 0.985 . S
C578 C579 1.363 . S
C578 C584 1.379 . S
C578 N586 1.356 . S
C579 C578 1.363 . S
C579 C585 1.363 . S
C580 C581 1.363 . S
C580 C585 1.379 . S
C580 N587 1.356 . S
C581 C580 1.363 . S
C581 C584 1.363 . S
N582 C584 1.356 . S
N582 H594 0.984 . S
N582 H595 0.985 . S
N583 C585 1.356 . S
N583 H588 0.984 . S
N583 H589 0.985 . S
C584 C578 1.379 . S
C584 C581 1.363 . S
C584 N582 1.356 . S
C585 C579 1.363 . S
C585 C580 1.379 . S
C585 N583 1.356 . S
N586 C578 1.356 . S
N586 H592 0.984 . S
N586 H593 0.984 . S
N587 C580 1.356 . S
N587 H590 0.984 . S
N587 H591 0.985 . S
H588 N583 0.984 . S
H589 N583 0.985 . S
H590 N587 0.984 . S
H591 N587 0.985 . S
H592 N586 0.984 . S
H593 N586 0.984 . S
H594 N582 0.984 . S
H595 N582 0.985 . S
C596 C597 1.363 . S
C596 C602 1.379 . S
C596 N604 1.356 . S
C597 C596 1.363 . S
C597 C603 1.363 . S
C598 C599 1.363 . S
C598 C603 1.379 . S
C598 N605 1.356 . S
C599 C598 1.363 . S
C599 C602 1.363 . S
N600 C602 1.356 . S
N600 H612 0.984 . S
N600 H613 0.985 . S
N601 C603 1.356 . S
N601 H606 0.984 . S
N601 H607 0.985 . S
C602 C596 1.379 . S
C602 C599 1.363 . S
C602 N600 1.356 . S
C603 C597 1.363 . S
C603 C598 1.379 . S
C603 N601 1.356 . S
N604 C596 1.356 . S
N604 H610 0.984 . S
N604 H611 0.984 . S
N605 C598 1.356 . S
N605 H608 0.984 . S
N605 H609 0.985 . S
H606 N601 0.984 . S
H607 N601 0.985 . S
H608 N605 0.984 . S
H609 N605 0.985 . S
H610 N604 0.984 . S
H611 N604 0.984 . S
H612 N600 0.984 . S
H613 N600 0.985 . S
C614 C615 1.363 . S
C614 C620 1.379 . S
C614 N622 1.356 . S
C615 C614 1.363 . S
C615 C621 1.363 . S
C616 C617 1.363 . S
C616 C621 1.379 . S
C616 N623 1.356 . S
C617 C616 1.363 . S
C617 C620 1.363 . S
N618 C620 1.356 . S
N618 H630 0.984 . S
N618 H631 0.985 . S
N619 C621 1.356 . S
N619 H624 0.984 . S
N619 H625 0.985 . S
C620 C614 1.379 . S
C620 C617 1.363 . S
C620 N618 1.356 . S
C621 C615 1.363 . S
C621 C616 1.379 . S
C621 N619 1.356 . S
N622 C614 1.356 . S
N622 H628 0.984 . S
N622 H629 0.984 . S
N623 C616 1.356 . S
N623 H626 0.984 . S
N623 H627 0.985 . S
H624 N619 0.984 . S
H625 N619 0.985 . S
H626 N623 0.984 . S
H627 N623 0.985 . S
H628 N622 0.984 . S
H629 N622 0.984 . S
H630 N618 0.984 . S
H631 N618 0.985 . S
C273 C145 1.452 1_545 S
C275 C9 1.452 . S
C291 C43 1.452 1_455 S
C293 C179 1.452 . S
C309 C77 1.452 . S
C311 C213 1.452 . S
C327 C247 1.452 . S
C329 C111 1.452 . S
C345 C243 1.039 . S
C347 C33 1.060 . S
C363 C141 1.039 1_655 S
C365 C67 1.060 . S
C381 C175 1.039 . S
C383 C101 1.059 . S
C399 C209 1.039 . S
C401 C135 1.060 . S
C417 C169 1.060 . S
C419 C107 1.039 . S
C435 C203 1.060 . S
C437 C5 1.039 . S
C453 C237 1.060 . S
C455 C39 1.039 . S
C471 C271 1.060 . S
C473 C73 1.039 . S
C489 C20 1.325 . S
C491 C88 1.325 . S
C507 C54 1.326 . S
C509 C122 1.326 . S
C525 C224 1.325 . S
C527 C156 1.325 . S
C543 C258 1.326 . S
C545 C190 1.326 . S
C561 C70 1.451 . S
C563 C2 1.451 . S
C579 C36 1.451 . S
C581 C104 1.451 . S
C597 C206 1.451 . S
C599 C138 1.451 . S
C615 C240 1.451 . S
C617 C172 1.451 . S
