# Generated by pormake.
# Topology dei, (4)-cn, num edge types: 1
# Building blocks:
#     Node 0, Type 0, BuildingBlock: QUQFOY_clean_sbu_1, # of connection points: 4
#     Node 1, Type 0, BuildingBlock: QUQFOY_clean_sbu_1, # of connection points: 4
#     Node 2, Type 0, BuildingBlock: QUQFOY_clean_sbu_1, # of connection points: 4
#     Node 3, Type 0, BuildingBlock: QUQFOY_clean_sbu_1, # of connection points: 4
#     Node 4, Type 0, BuildingBlock: QUQFOY_clean_sbu_1, # of connection points: 4
#     Node 5, Type 0, BuildingBlock: QUQFOY_clean_sbu_1, # of connection points: 4
#     Node 6, Type 0, BuildingBlock: QUQFOY_clean_sbu_1, # of connection points: 4
#     Node 7, Type 0, BuildingBlock: QUQFOY_clean_sbu_1, # of connection points: 4
#     Node 8, Type 0, BuildingBlock: QUQFOY_clean_sbu_1, # of connection points: 4
#     Node 9, Type 0, BuildingBlock: QUQFOY_clean_sbu_1, # of connection points: 4
#     Node 10, Type 0, BuildingBlock: QUQFOY_clean_sbu_1, # of connection points: 4
#     Node 11, Type 0, BuildingBlock: QUQFOY_clean_sbu_1, # of connection points: 4
#     Node 12, Type 0, BuildingBlock: QUQFOY_clean_sbu_1, # of connection points: 4
#     Node 13, Type 0, BuildingBlock: QUQFOY_clean_sbu_1, # of connection points: 4
#     Node 14, Type 0, BuildingBlock: QUQFOY_clean_sbu_1, # of connection points: 4
#     Node 15, Type 0, BuildingBlock: QUQFOY_clean_sbu_1, # of connection points: 4
#     Node 16, Type 0, BuildingBlock: QUQFOY_clean_sbu_1, # of connection points: 4
#     Node 17, Type 0, BuildingBlock: QUQFOY_clean_sbu_1, # of connection points: 4
#     Node 18, Type 0, BuildingBlock: QUQFOY_clean_sbu_1, # of connection points: 4
#     Node 19, Type 0, BuildingBlock: QUQFOY_clean_sbu_1, # of connection points: 4
#     Node 20, Type 0, BuildingBlock: QUQFOY_clean_sbu_1, # of connection points: 4
#     Node 21, Type 0, BuildingBlock: QUQFOY_clean_sbu_1, # of connection points: 4
#     Node 22, Type 0, BuildingBlock: QUQFOY_clean_sbu_1, # of connection points: 4
#     Node 23, Type 0, BuildingBlock: QUQFOY_clean_sbu_1, # of connection points: 4
#     Node 24, Type 0, BuildingBlock: QUQFOY_clean_sbu_1, # of connection points: 4
#     Node 25, Type 0, BuildingBlock: QUQFOY_clean_sbu_1, # of connection points: 4
#     Node 26, Type 0, BuildingBlock: QUQFOY_clean_sbu_1, # of connection points: 4
#     Node 27, Type 0, BuildingBlock: QUQFOY_clean_sbu_1, # of connection points: 4
#     Node 28, Type 0, BuildingBlock: QUQFOY_clean_sbu_1, # of connection points: 4
#     Node 29, Type 0, BuildingBlock: QUQFOY_clean_sbu_1, # of connection points: 4
#     Node 30, Type 0, BuildingBlock: QUQFOY_clean_sbu_1, # of connection points: 4
#     Node 31, Type 0, BuildingBlock: QUQFOY_clean_sbu_1, # of connection points: 4
#     Edge 32, Type (0, 0), BuildingBlock: ZUJKAS_clean_linker_0, # of connection points: 2
#     Edge 33, Type (0, 0), BuildingBlock: ZUJKAS_clean_linker_0, # of connection points: 2
#     Edge 34, Type (0, 0), BuildingBlock: ZUJKAS_clean_linker_0, # of connection points: 2
#     Edge 35, Type (0, 0), BuildingBlock: ZUJKAS_clean_linker_0, # of connection points: 2
#     Edge 36, Type (0, 0), BuildingBlock: ZUJKAS_clean_linker_0, # of connection points: 2
#     Edge 37, Type (0, 0), BuildingBlock: ZUJKAS_clean_linker_0, # of connection points: 2
#     Edge 38, Type (0, 0), BuildingBlock: ZUJKAS_clean_linker_0, # of connection points: 2
#     Edge 39, Type (0, 0), BuildingBlock: ZUJKAS_clean_linker_0, # of connection points: 2
#     Edge 40, Type (0, 0), BuildingBlock: ZUJKAS_clean_linker_0, # of connection points: 2
#     Edge 41, Type (0, 0), BuildingBlock: ZUJKAS_clean_linker_0, # of connection points: 2
#     Edge 42, Type (0, 0), BuildingBlock: ZUJKAS_clean_linker_0, # of connection points: 2
#     Edge 43, Type (0, 0), BuildingBlock: ZUJKAS_clean_linker_0, # of connection points: 2
#     Edge 44, Type (0, 0), BuildingBlock: ZUJKAS_clean_linker_0, # of connection points: 2
#     Edge 45, Type (0, 0), BuildingBlock: ZUJKAS_clean_linker_0, # of connection points: 2
#     Edge 46, Type (0, 0), BuildingBlock: ZUJKAS_clean_linker_0, # of connection points: 2
#     Edge 47, Type (0, 0), BuildingBlock: ZUJKAS_clean_linker_0, # of connection points: 2
#     Edge 48, Type (0, 0), BuildingBlock: ZUJKAS_clean_linker_0, # of connection points: 2
#     Edge 49, Type (0, 0), BuildingBlock: ZUJKAS_clean_linker_0, # of connection points: 2
#     Edge 50, Type (0, 0), BuildingBlock: ZUJKAS_clean_linker_0, # of connection points: 2
#     Edge 51, Type (0, 0), BuildingBlock: ZUJKAS_clean_linker_0, # of connection points: 2
#     Edge 52, Type (0, 0), BuildingBlock: ZUJKAS_clean_linker_0, # of connection points: 2
#     Edge 53, Type (0, 0), BuildingBlock: ZUJKAS_clean_linker_0, # of connection points: 2
#     Edge 54, Type (0, 0), BuildingBlock: ZUJKAS_clean_linker_0, # of connection points: 2
#     Edge 55, Type (0, 0), BuildingBlock: ZUJKAS_clean_linker_0, # of connection points: 2
#     Edge 56, Type (0, 0), BuildingBlock: ZUJKAS_clean_linker_0, # of connection points: 2
#     Edge 57, Type (0, 0), BuildingBlock: ZUJKAS_clean_linker_0, # of connection points: 2
#     Edge 58, Type (0, 0), BuildingBlock: ZUJKAS_clean_linker_0, # of connection points: 2
#     Edge 59, Type (0, 0), BuildingBlock: ZUJKAS_clean_linker_0, # of connection points: 2
#     Edge 60, Type (0, 0), BuildingBlock: ZUJKAS_clean_linker_0, # of connection points: 2
#     Edge 61, Type (0, 0), BuildingBlock: ZUJKAS_clean_linker_0, # of connection points: 2
#     Edge 62, Type (0, 0), BuildingBlock: ZUJKAS_clean_linker_0, # of connection points: 2
#     Edge 63, Type (0, 0), BuildingBlock: ZUJKAS_clean_linker_0, # of connection points: 2
#     Edge 64, Type (0, 0), BuildingBlock: ZUJKAS_clean_linker_0, # of connection points: 2
#     Edge 65, Type (0, 0), BuildingBlock: ZUJKAS_clean_linker_0, # of connection points: 2
#     Edge 66, Type (0, 0), BuildingBlock: ZUJKAS_clean_linker_0, # of connection points: 2
#     Edge 67, Type (0, 0), BuildingBlock: ZUJKAS_clean_linker_0, # of connection points: 2
#     Edge 68, Type (0, 0), BuildingBlock: ZUJKAS_clean_linker_0, # of connection points: 2
#     Edge 69, Type (0, 0), BuildingBlock: ZUJKAS_clean_linker_0, # of connection points: 2
#     Edge 70, Type (0, 0), BuildingBlock: ZUJKAS_clean_linker_0, # of connection points: 2
#     Edge 71, Type (0, 0), BuildingBlock: ZUJKAS_clean_linker_0, # of connection points: 2
#     Edge 72, Type (0, 0), BuildingBlock: ZUJKAS_clean_linker_0, # of connection points: 2
#     Edge 73, Type (0, 0), BuildingBlock: ZUJKAS_clean_linker_0, # of connection points: 2
#     Edge 74, Type (0, 0), BuildingBlock: ZUJKAS_clean_linker_0, # of connection points: 2
#     Edge 75, Type (0, 0), BuildingBlock: ZUJKAS_clean_linker_0, # of connection points: 2
#     Edge 76, Type (0, 0), BuildingBlock: ZUJKAS_clean_linker_0, # of connection points: 2
#     Edge 77, Type (0, 0), BuildingBlock: ZUJKAS_clean_linker_0, # of connection points: 2
#     Edge 78, Type (0, 0), BuildingBlock: ZUJKAS_clean_linker_0, # of connection points: 2
#     Edge 79, Type (0, 0), BuildingBlock: ZUJKAS_clean_linker_0, # of connection points: 2
#     Edge 80, Type (0, 0), BuildingBlock: ZUJKAS_clean_linker_0, # of connection points: 2
#     Edge 81, Type (0, 0), BuildingBlock: ZUJKAS_clean_linker_0, # of connection points: 2
#     Edge 82, Type (0, 0), BuildingBlock: ZUJKAS_clean_linker_0, # of connection points: 2
#     Edge 83, Type (0, 0), BuildingBlock: ZUJKAS_clean_linker_0, # of connection points: 2
#     Edge 84, Type (0, 0), BuildingBlock: ZUJKAS_clean_linker_0, # of connection points: 2
#     Edge 85, Type (0, 0), BuildingBlock: ZUJKAS_clean_linker_0, # of connection points: 2
#     Edge 86, Type (0, 0), BuildingBlock: ZUJKAS_clean_linker_0, # of connection points: 2
#     Edge 87, Type (0, 0), BuildingBlock: ZUJKAS_clean_linker_0, # of connection points: 2
#     Edge 88, Type (0, 0), BuildingBlock: ZUJKAS_clean_linker_0, # of connection points: 2
#     Edge 89, Type (0, 0), BuildingBlock: ZUJKAS_clean_linker_0, # of connection points: 2
#     Edge 90, Type (0, 0), BuildingBlock: ZUJKAS_clean_linker_0, # of connection points: 2
#     Edge 91, Type (0, 0), BuildingBlock: ZUJKAS_clean_linker_0, # of connection points: 2
#     Edge 92, Type (0, 0), BuildingBlock: ZUJKAS_clean_linker_0, # of connection points: 2
#     Edge 93, Type (0, 0), BuildingBlock: ZUJKAS_clean_linker_0, # of connection points: 2
#     Edge 94, Type (0, 0), BuildingBlock: ZUJKAS_clean_linker_0, # of connection points: 2
#     Edge 95, Type (0, 0), BuildingBlock: ZUJKAS_clean_linker_0, # of connection points: 2
# Relax obj value: 0.264
# Max RMSD: 0.148
# Mean RMSD: 0.148
data_MOF--net-dei--node1-QUQFOY_clean_sbu_1--edge1-ZUJKAS_clean_linker_0
_symmetry_space_group_name_H-M    P1
_symmetry_Int_Tables_number       1
_symmetry_cell_setting            triclinic
loop_
_symmetry_equiv_pos_as_xyz
'x, y, z'
_cell_length_a     74.760984
_cell_length_b     74.734977
_cell_length_c     118.39431
_cell_angle_alpha  90.00908
_cell_angle_beta   89.982381
_cell_angle_gamma 89.975638
loop_
_atom_site_label
_atom_site_type_symbol
_atom_site_fract_x
_atom_site_fract_y
_atom_site_fract_z
_atom_type_partial_charge
O0 O 0.11476 0.62919 0.02928 0.0
Cd1 Cd 0.14233 0.6287 0.0286 0.0
Cd2 Cd 0.13895 0.63815 0.05174 0.0
O3 O 0.11245 0.6337 0.04765 0.0
O4 O 0.14868 0.61296 0.01549 0.0
O5 O 0.15408 0.60549 0.03323 0.0
C6 C 0.1542 0.60116 0.02265 0.0
C7 C 0.14634 0.63144 0.07062 0.0
C8 C 0.10521 0.63088 0.0381 0.0
C9 C 0.15638 0.66481 0.03532 0.0
O10 O 0.15097 0.66083 0.0452 0.0
O11 O 0.155 0.65352 0.02729 0.0
O12 O 0.1369 0.64518 0.06796 0.0
O13 O 0.15183 0.62128 0.06251 0.0
O14 O 0.60818 0.90137 0.29465 0.0
Cd15 Cd 0.6309 0.88933 0.30114 0.0
Cd16 Cd 0.63993 0.89271 0.27785 0.0
O17 O 0.61498 0.90513 0.27664 0.0
O18 O 0.62369 0.88694 0.31731 0.0
O19 O 0.64756 0.90208 0.31211 0.0
C20 C 0.63733 0.89639 0.32013 0.0
C21 C 0.6673 0.9049 0.27195 0.0
C22 C 0.60393 0.90662 0.28479 0.0
C23 C 0.63826 0.85561 0.28738 0.0
O24 O 0.63973 0.86514 0.27855 0.0
O25 O 0.63551 0.86286 0.29695 0.0
O26 O 0.65561 0.89925 0.26476 0.0
O27 O 0.66294 0.90471 0.28253 0.0
O28 O 0.40329 0.38958 0.52878 0.0
Cd29 Cd 0.37571 0.38992 0.52845 0.0
Cd30 Cd 0.37981 0.38071 0.55171 0.0
O31 O 0.40605 0.38567 0.54718 0.0
O32 O 0.36888 0.40549 0.51536 0.0
O33 O 0.36402 0.41311 0.53315 0.0
C34 C 0.36355 0.41734 0.52256 0.0
C35 C 0.3735 0.38677 0.57086 0.0
C36 C 0.41304 0.38828 0.53753 0.0
C37 C 0.36212 0.35379 0.53554 0.0
O38 O 0.36784 0.35788 0.54532 0.0
O39 O 0.36314 0.36502 0.52746 0.0
O40 O 0.38322 0.37345 0.56779 0.0
O41 O 0.36706 0.39687 0.56301 0.0
O42 O 0.91046 0.11682 0.79473 0.0
Cd43 Cd 0.88759 0.12883 0.80102 0.0
Cd44 Cd 0.879 0.12539 0.77784 0.0
O45 O 0.90397 0.113 0.77668 0.0
O46 O 0.89445 0.13117 0.81725 0.0
O47 O 0.87072 0.11599 0.81183 0.0
C48 C 0.88078 0.12165 0.81994 0.0
C49 C 0.85144 0.11306 0.77248 0.0
C50 C 0.91489 0.11155 0.7849 0.0
C51 C 0.88048 0.16252 0.78722 0.0
O52 O 0.87918 0.15295 0.77839 0.0
O53 O 0.88305 0.15531 0.79681 0.0
O54 O 0.86287 0.11848 0.76505 0.0
O55 O 0.8562 0.11352 0.78298 0.0
O56 O 0.11483 0.38998 0.98042 0.0
Cd57 Cd 0.14237 0.39019 0.98119 0.0
Cd58 Cd 0.13937 0.38161 0.95795 0.0
O59 O 0.11282 0.38608 0.96198 0.0
O60 O 0.14897 0.40624 0.9941 0.0
O61 O 0.15434 0.41305 0.97623 0.0
C62 C 0.15456 0.41773 0.98675 0.0
C63 C 0.14677 0.38847 0.93908 0.0
C64 C 0.10542 0.38864 0.97152 0.0
C65 C 0.15636 0.35428 0.97417 0.0
O66 O 0.15129 0.35874 0.96431 0.0
O67 O 0.15474 0.3652 0.98239 0.0
O68 O 0.13729 0.37475 0.94171 0.0
O69 O 0.1523 0.39854 0.94722 0.0
O70 O 0.90963 0.90075 0.21388 0.0
Cd71 Cd 0.88671 0.88891 0.20755 0.0
Cd72 Cd 0.87808 0.89237 0.23072 0.0
O73 O 0.90307 0.90467 0.23191 0.0
O74 O 0.8935 0.88669 0.19131 0.0
O75 O 0.86988 0.90197 0.19683 0.0
C76 C 0.87988 0.89632 0.18869 0.0
C77 C 0.85056 0.90472 0.23618 0.0
C78 C 0.91404 0.90604 0.22371 0.0
C79 C 0.8794 0.85523 0.22127 0.0
O80 O 0.87816 0.86481 0.23011 0.0
O81 O 0.882 0.86243 0.21168 0.0
O82 O 0.86199 0.89916 0.24357 0.0
O83 O 0.85531 0.9044 0.22567 0.0
O84 O 0.403 0.62828 0.48131 0.0
Cd85 Cd 0.37543 0.62823 0.48146 0.0
Cd86 Cd 0.37999 0.63745 0.45832 0.0
O87 O 0.40611 0.63194 0.46291 0.0
O88 O 0.36819 0.61221 0.49424 0.0
O89 O 0.36366 0.60538 0.47629 0.0
C90 C 0.36295 0.6007 0.4868 0.0
C91 C 0.37344 0.63145 0.4392 0.0
C92 C 0.41291 0.62929 0.47261 0.0
C93 C 0.36234 0.66451 0.47447 0.0
O94 O 0.36826 0.66042 0.46472 0.0
O95 O 0.36303 0.65321 0.48252 0.0
O96 O 0.38336 0.64464 0.44223 0.0
O97 O 0.36699 0.62142 0.44708 0.0
O98 O 0.60816 0.11429 0.7147 0.0
Cd99 Cd 0.6299 0.12745 0.70768 0.0
Cd100 Cd 0.64058 0.12546 0.73087 0.0
O101 O 0.61561 0.11343 0.73279 0.0
O102 O 0.62221 0.12886 0.69155 0.0
O103 O 0.64702 0.11527 0.69673 0.0
C104 C 0.63635 0.12015 0.68874 0.0
C105 C 0.66799 0.11356 0.73699 0.0
C106 C 0.60449 0.11028 0.72488 0.0
C107 C 0.63737 0.16201 0.72072 0.0
O108 O 0.64037 0.15288 0.72957 0.0
O109 O 0.63346 0.15432 0.71146 0.0
O110 O 0.65638 0.11975 0.74406 0.0
O111 O 0.66354 0.11306 0.72643 0.0
O112 O 0.90382 0.38973 0.98016 0.0
Cd113 Cd 0.87628 0.39004 0.9809 0.0
Cd114 Cd 0.87931 0.38157 0.95765 0.0
O115 O 0.90584 0.38606 0.96171 0.0
O116 O 0.86969 0.40616 0.99378 0.0
O117 O 0.86435 0.41291 0.9759 0.0
C118 C 0.86413 0.41763 0.98641 0.0
C119 C 0.87209 0.38819 0.93871 0.0
C120 C 0.91323 0.38849 0.97126 0.0
C121 C 0.86227 0.35422 0.97384 0.0
O122 O 0.86741 0.35869 0.96399 0.0
O123 O 0.86384 0.3651 0.98207 0.0
O124 O 0.88167 0.37459 0.94144 0.0
O125 O 0.86635 0.39828 0.94678 0.0
O126 O 0.37842 0.15431 0.73145 0.0
Cd127 Cd 0.37851 0.12663 0.73076 0.0
Cd128 Cd 0.38582 0.13328 0.70799 0.0
O129 O 0.37813 0.15849 0.71301 0.0
O130 O 0.36318 0.11837 0.74362 0.0
O131 O 0.35538 0.11527 0.72571 0.0
C132 C 0.35126 0.11377 0.73628 0.0
C133 C 0.38 0.12655 0.68887 0.0
C134 C 0.37714 0.1647 0.72298 0.0
C135 C 0.41496 0.1167 0.72297 0.0
O136 O 0.41029 0.12439 0.71386 0.0
O137 O 0.40362 0.11422 0.73086 0.0
O138 O 0.39202 0.13788 0.69186 0.0
O139 O 0.37099 0.11883 0.69679 0.0
O140 O 0.61437 0.62905 0.48207 0.0
Cd141 Cd 0.64194 0.62877 0.48223 0.0
Cd142 Cd 0.63772 0.63767 0.4592 0.0
O143 O 0.61143 0.63295 0.46369 0.0
O144 O 0.64912 0.61246 0.49488 0.0
O145 O 0.65355 0.60594 0.47686 0.0
C146 C 0.65426 0.60106 0.48734 0.0
C147 C 0.64445 0.63072 0.44026 0.0
C148 C 0.60452 0.63033 0.47336 0.0
C149 C 0.6556 0.66476 0.47514 0.0
O150 O 0.64983 0.66056 0.46539 0.0
O151 O 0.65456 0.65364 0.48328 0.0
O152 O 0.63495 0.64439 0.44299 0.0
O153 O 0.65039 0.62077 0.44834 0.0
O154 O 0.13995 0.86507 0.23089 0.0
Cd155 Cd 0.14007 0.89265 0.23133 0.0
Cd156 Cd 0.13173 0.88873 0.20806 0.0
O157 O 0.13658 0.86239 0.21244 0.0
O158 O 0.15557 0.89956 0.24442 0.0
O159 O 0.16317 0.90446 0.22663 0.0
C160 C 0.16739 0.90493 0.23723 0.0
C161 C 0.13853 0.89572 0.18912 0.0
C162 C 0.13896 0.85535 0.2221 0.0
C163 C 0.10417 0.90612 0.22398 0.0
O164 O 0.10868 0.90056 0.21423 0.0
O165 O 0.11507 0.90505 0.23222 0.0
O166 O 0.12498 0.88606 0.19184 0.0
O167 O 0.14847 0.90163 0.19721 0.0
O168 O 0.90362 0.62884 0.02911 0.0
Cd169 Cd 0.87606 0.62838 0.02834 0.0
Cd170 Cd 0.87908 0.63701 0.05158 0.0
O171 O 0.90566 0.63291 0.04753 0.0
O172 O 0.86968 0.61267 0.01523 0.0
O173 O 0.86421 0.60526 0.03298 0.0
C174 C 0.86408 0.60092 0.0224 0.0
C175 C 0.87174 0.63001 0.07044 0.0
C176 C 0.91304 0.63038 0.03798 0.0
C177 C 0.86176 0.66416 0.0354 0.0
O178 O 0.86691 0.65976 0.04526 0.0
O179 O 0.86346 0.65325 0.02719 0.0
O180 O 0.88107 0.64385 0.06783 0.0
O181 O 0.86634 0.6199 0.06229 0.0
O182 O 0.14027 0.15387 0.77937 0.0
Cd183 Cd 0.14071 0.12632 0.77844 0.0
Cd184 Cd 0.13194 0.1291 0.80171 0.0
O185 O 0.13613 0.15573 0.79779 0.0
O186 O 0.15674 0.1201 0.76544 0.0
O187 O 0.16366 0.1143 0.78323 0.0
C188 C 0.16829 0.11435 0.7727 0.0
C189 C 0.13863 0.12162 0.8206 0.0
C190 C 0.13871 0.16321 0.78829 0.0
C191 C 0.10491 0.11199 0.78534 0.0
O192 O 0.10926 0.11703 0.79523 0.0
O193 O 0.11585 0.11375 0.77715 0.0
O194 O 0.12485 0.131 0.81793 0.0
O195 O 0.14886 0.11625 0.8125 0.0
O196 O 0.61464 0.38905 0.52807 0.0
Cd197 Cd 0.64221 0.38951 0.52753 0.0
Cd198 Cd 0.63877 0.38043 0.55067 0.0
O199 O 0.6123 0.38475 0.54645 0.0
O200 O 0.64882 0.4054 0.51455 0.0
O201 O 0.65394 0.41259 0.53238 0.0
C202 C 0.65426 0.41707 0.52182 0.0
C203 C 0.64565 0.38721 0.56963 0.0
C204 C 0.60507 0.38744 0.53688 0.0
C205 C 0.65638 0.35356 0.53446 0.0
O206 O 0.65098 0.35771 0.54432 0.0
O207 O 0.6549 0.36468 0.52635 0.0
O208 O 0.6363 0.37347 0.56687 0.0
O209 O 0.65139 0.39732 0.56157 0.0
O210 O 0.37768 0.86457 0.2791 0.0
Cd211 Cd 0.37804 0.89217 0.27849 0.0
Cd212 Cd 0.38918 0.8882 0.30128 0.0
O213 O 0.38687 0.86162 0.29675 0.0
O214 O 0.36193 0.8989 0.26563 0.0
O215 O 0.35539 0.90455 0.2835 0.0
C216 C 0.3506 0.90474 0.273 0.0
C217 C 0.38207 0.89448 0.32027 0.0
C218 C 0.38196 0.85476 0.28743 0.0
C219 C 0.41441 0.90677 0.28474 0.0
O220 O 0.4107 0.90193 0.29476 0.0
O221 O 0.40318 0.90434 0.27677 0.0
O222 O 0.39642 0.8861 0.31745 0.0
O223 O 0.37152 0.89953 0.31225 0.0
O224 O 0.61474 0.12855 0.52825 0.0
Cd225 Cd 0.64232 0.12837 0.52801 0.0
Cd226 Cd 0.63785 0.13777 0.55108 0.0
O227 O 0.61159 0.13284 0.54659 0.0
O228 O 0.64925 0.11273 0.51497 0.0
O229 O 0.65414 0.10527 0.53277 0.0
C230 C 0.65463 0.10096 0.52219 0.0
C231 C 0.64475 0.13097 0.57003 0.0
C232 C 0.6048 0.12999 0.53691 0.0
C233 C 0.65564 0.16464 0.53496 0.0
O234 O 0.64979 0.16063 0.54473 0.0
O235 O 0.6548 0.15331 0.52692 0.0
O236 O 0.63514 0.14457 0.56731 0.0
O237 O 0.65068 0.12101 0.56195 0.0
O238 O 0.1074 0.40132 0.79555 0.0
Cd239 Cd 0.13031 0.38945 0.80189 0.0
Cd240 Cd 0.13892 0.39249 0.77864 0.0
O241 O 0.11389 0.40476 0.77747 0.0
O242 O 0.1236 0.38746 0.81816 0.0
O243 O 0.14731 0.40246 0.81252 0.0
C244 C 0.13733 0.39697 0.82071 0.0
C245 C 0.16624 0.40473 0.77266 0.0
C246 C 0.10296 0.40637 0.78568 0.0
C247 C 0.13746 0.35551 0.78834 0.0
O248 O 0.13885 0.36493 0.77945 0.0
O249 O 0.1348 0.36289 0.79787 0.0
O250 O 0.15453 0.399 0.7655 0.0
O251 O 0.16192 0.40461 0.78324 0.0
O252 O 0.90377 0.88941 0.02907 0.0
Cd253 Cd 0.87623 0.88989 0.02822 0.0
Cd254 Cd 0.87896 0.88121 0.05142 0.0
O255 O 0.90562 0.88516 0.04748 0.0
O256 O 0.86987 0.90606 0.01532 0.0
O257 O 0.86431 0.91279 0.03318 0.0
C258 C 0.86422 0.91753 0.02267 0.0
C259 C 0.8715 0.8882 0.07027 0.0
C260 C 0.91311 0.88776 0.03798 0.0
C261 C 0.86174 0.85417 0.03513 0.0
O262 O 0.86671 0.85856 0.04503 0.0
O263 O 0.86366 0.86504 0.02692 0.0
O264 O 0.88077 0.87431 0.06767 0.0
O265 O 0.86624 0.89838 0.06211 0.0
O266 O 0.40918 0.619 0.29512 0.0
Cd267 Cd 0.3852 0.62987 0.30086 0.0
Cd268 Cd 0.37863 0.62528 0.27756 0.0
O269 O 0.4031 0.61211 0.27739 0.0
O270 O 0.39155 0.63449 0.31698 0.0
O271 O 0.36955 0.6165 0.31217 0.0
C272 C 0.37882 0.62402 0.32004 0.0
C273 C 0.35092 0.61354 0.27198 0.0
C274 C 0.41395 0.61235 0.28568 0.0
C275 C 0.37827 0.66248 0.28612 0.0
O276 O 0.38003 0.65279 0.27739 0.0
O277 O 0.3783 0.65557 0.29593 0.0
O278 O 0.36293 0.61798 0.26465 0.0
O279 O 0.35513 0.61468 0.28256 0.0
O280 O 0.61475 0.88985 0.48056 0.0
Cd281 Cd 0.64232 0.89004 0.48085 0.0
Cd282 Cd 0.63804 0.88059 0.45783 0.0
O283 O 0.61173 0.88551 0.46222 0.0
O284 O 0.64921 0.90614 0.49368 0.0
O285 O 0.65413 0.91294 0.47576 0.0
C286 C 0.65458 0.91765 0.48628 0.0
C287 C 0.6451 0.88728 0.43888 0.0
C288 C 0.60487 0.88838 0.47188 0.0
C289 C 0.65571 0.85376 0.47406 0.0
O290 O 0.64993 0.85775 0.46427 0.0
O291 O 0.65482 0.86512 0.48207 0.0
O292 O 0.63552 0.87367 0.44161 0.0
O293 O 0.65091 0.89731 0.44696 0.0
O294 O 0.40925 0.40027 0.71539 0.0
Cd295 Cd 0.38599 0.38854 0.70944 0.0
Cd296 Cd 0.37741 0.39376 0.73252 0.0
O297 O 0.4024 0.40618 0.73316 0.0
O298 O 0.39263 0.38407 0.69335 0.0
O299 O 0.36986 0.40118 0.69808 0.0
C300 C 0.37946 0.39397 0.69024 0.0
C301 C 0.34982 0.40639 0.73755 0.0
C302 C 0.41355 0.40651 0.72502 0.0
C303 C 0.37819 0.35607 0.72429 0.0
O304 O 0.37753 0.3662 0.7329 0.0
O305 O 0.38047 0.36265 0.7145 0.0
O306 O 0.36134 0.40167 0.74511 0.0
O307 O 0.35455 0.40514 0.72706 0.0
O308 O 0.90368 0.12801 0.98015 0.0
Cd309 Cd 0.87612 0.12801 0.9807 0.0
Cd310 Cd 0.87987 0.13648 0.95743 0.0
O311 O 0.90622 0.13148 0.9617 0.0
O312 O 0.8693 0.11246 0.99379 0.0
O313 O 0.86411 0.105 0.97601 0.0
C314 C 0.86375 0.10071 0.9866 0.0
C315 C 0.87267 0.12974 0.93852 0.0
C316 C 0.91333 0.129 0.97133 0.0
C317 C 0.8627 0.16401 0.97348 0.0
O318 O 0.86816 0.15953 0.9637 0.0
O319 O 0.86382 0.15305 0.9817 0.0
O320 O 0.88238 0.14327 0.9412 0.0
O321 O 0.86682 0.11978 0.94662 0.0
O322 O 0.10832 0.61843 0.21436 0.0
Cd323 Cd 0.13141 0.63006 0.20811 0.0
Cd324 Cd 0.13982 0.62624 0.23132 0.0
O325 O 0.11476 0.61401 0.23236 0.0
O326 O 0.12464 0.63263 0.19189 0.0
O327 O 0.14807 0.61698 0.19729 0.0
C328 C 0.13814 0.62289 0.18919 0.0
C329 C 0.16729 0.61374 0.23676 0.0
C330 C 0.10381 0.61295 0.22413 0.0
C331 C 0.13896 0.66348 0.22204 0.0
O332 O 0.13987 0.65381 0.23085 0.0
O333 O 0.13649 0.65639 0.21241 0.0
O334 O 0.15582 0.6192 0.24416 0.0
O335 O 0.1626 0.61423 0.22624 0.0
O336 O 0.40344 0.8898 0.48116 0.0
Cd337 Cd 0.37586 0.88984 0.48152 0.0
Cd338 Cd 0.37995 0.88068 0.4584 0.0
O339 O 0.40617 0.88598 0.46276 0.0
O340 O 0.36883 0.90604 0.49427 0.0
O341 O 0.36395 0.91262 0.47631 0.0
C342 C 0.36344 0.91744 0.48681 0.0
C343 C 0.37315 0.88688 0.43935 0.0
C344 C 0.41318 0.88868 0.47239 0.0
C345 C 0.3626 0.8536 0.47462 0.0
O346 O 0.36829 0.85774 0.46484 0.0
O347 O 0.36348 0.86486 0.48269 0.0
O348 O 0.38291 0.8735 0.44227 0.0
O349 O 0.36696 0.89696 0.44729 0.0
O350 O 0.87748 0.65374 0.23031 0.0
Cd351 Cd 0.87751 0.62619 0.23111 0.0
Cd352 Cd 0.88612 0.62939 0.20783 0.0
O353 O 0.88117 0.65586 0.21187 0.0
O354 O 0.86153 0.61961 0.24406 0.0
O355 O 0.85471 0.61403 0.22622 0.0
C356 C 0.85004 0.61391 0.23675 0.0
C357 C 0.87954 0.62187 0.18894 0.0
C358 C 0.87859 0.66319 0.22142 0.0
C359 C 0.91354 0.6126 0.2241 0.0
O360 O 0.90908 0.61775 0.21425 0.0
O361 O 0.90258 0.614 0.23231 0.0
O362 O 0.89307 0.63159 0.19161 0.0
O363 O 0.86949 0.61619 0.19705 0.0
O364 O 0.1148 0.12829 0.98068 0.0
Cd365 Cd 0.14236 0.12811 0.98124 0.0
Cd366 Cd 0.13879 0.13663 0.95804 0.0
O367 O 0.11236 0.13187 0.96224 0.0
O368 O 0.14914 0.11203 0.9941 0.0
O369 O 0.15425 0.10523 0.9762 0.0
C370 C 0.15458 0.10052 0.98671 0.0
C371 C 0.14609 0.1298 0.93914 0.0
C372 C 0.1052 0.1294 0.97185 0.0
C373 C 0.156 0.16405 0.97412 0.0
O374 O 0.15059 0.1596 0.96433 0.0
O375 O 0.15477 0.15308 0.98233 0.0
O376 O 0.13645 0.14341 0.94179 0.0
O377 O 0.1518 0.11981 0.94727 0.0
O378 O 0.6381 0.36372 0.72953 0.0
Cd379 Cd 0.63855 0.3913 0.73032 0.0
Cd380 Cd 0.62912 0.38831 0.70723 0.0
O381 O 0.63332 0.36172 0.71118 0.0
O382 O 0.6548 0.39761 0.74319 0.0
O383 O 0.66147 0.40315 0.72533 0.0
C384 C 0.66626 0.40322 0.73583 0.0
C385 C 0.636 0.39567 0.68837 0.0
C386 C 0.63625 0.35431 0.72066 0.0
C387 C 0.60254 0.40572 0.7237 0.0
O388 O 0.60655 0.40052 0.71379 0.0
O389 O 0.61376 0.40402 0.73175 0.0
O390 O 0.62216 0.38638 0.69101 0.0
O391 O 0.64614 0.4011 0.6965 0.0
O392 O 0.40336 0.12844 0.52769 0.0
Cd393 Cd 0.37578 0.12847 0.52753 0.0
Cd394 Cd 0.38017 0.13721 0.55074 0.0
O395 O 0.40627 0.13182 0.54611 0.0
O396 O 0.36852 0.11283 0.51456 0.0
O397 O 0.36395 0.10547 0.53243 0.0
C398 C 0.36325 0.10112 0.52186 0.0
C399 C 0.37396 0.13072 0.56983 0.0
C400 C 0.41318 0.12931 0.53643 0.0
C401 C 0.36268 0.16465 0.53484 0.0
O402 O 0.36851 0.16036 0.54457 0.0
O403 O 0.36342 0.15351 0.5267 0.0
O404 O 0.38378 0.14402 0.56687 0.0
O405 O 0.36729 0.12094 0.5619 0.0
O406 O 0.63928 0.65378 0.27945 0.0
Cd407 Cd 0.63958 0.62618 0.27906 0.0
Cd408 Cd 0.63102 0.63015 0.30231 0.0
O409 O 0.63597 0.65643 0.2979 0.0
O410 O 0.65515 0.61931 0.26597 0.0
O411 O 0.66274 0.61443 0.28376 0.0
C412 C 0.66698 0.61395 0.27316 0.0
C413 C 0.63745 0.62335 0.32133 0.0
C414 C 0.63829 0.66349 0.28824 0.0
C415 C 0.60357 0.61276 0.28638 0.0
O416 O 0.60794 0.6185 0.29611 0.0
O417 O 0.61464 0.61362 0.2782 0.0
O418 O 0.62409 0.63318 0.31847 0.0
O419 O 0.64742 0.61714 0.31334 0.0
O420 O 0.11482 0.88917 0.02936 0.0
Cd421 Cd 0.14238 0.88963 0.02857 0.0
Cd422 Cd 0.13923 0.88015 0.05172 0.0
O423 O 0.11266 0.88439 0.04771 0.0
O424 O 0.14863 0.90542 0.01546 0.0
O425 O 0.15425 0.91276 0.0332 0.0
C426 C 0.15429 0.91714 0.02263 0.0
C427 C 0.14668 0.88697 0.07058 0.0
C428 C 0.10534 0.88732 0.03819 0.0
C429 C 0.15669 0.85358 0.03525 0.0
O430 O 0.15145 0.85758 0.04516 0.0
O431 O 0.15505 0.8648 0.02721 0.0
O432 O 0.13737 0.87314 0.06795 0.0
O433 O 0.15201 0.89717 0.06245 0.0
O434 O 0.87766 0.36419 0.77819 0.0
Cd435 Cd 0.87714 0.39176 0.77754 0.0
Cd436 Cd 0.88538 0.38855 0.80086 0.0
O437 O 0.88117 0.36205 0.79665 0.0
O438 O 0.86144 0.39831 0.76446 0.0
O439 O 0.85396 0.40346 0.78224 0.0
C440 C 0.84964 0.40374 0.77166 0.0
C441 C 0.87856 0.39547 0.81982 0.0
C442 C 0.87891 0.35472 0.78707 0.0
C443 C 0.91279 0.40595 0.78487 0.0
O444 O 0.90824 0.40068 0.79467 0.0
O445 O 0.90201 0.40441 0.77658 0.0
O446 O 0.89227 0.38607 0.81707 0.0
O447 O 0.86846 0.4012 0.81176 0.0
H448 H 0.11606 0.62826 0.1713 0.0
H449 H 0.12252 0.62394 0.15132 0.0
H450 H 0.17536 0.6049 0.15958 0.0
H451 H 0.16894 0.60915 0.1798 0.0
H452 H 0.1739 0.63269 0.14269 0.0
H453 H 0.12745 0.57723 0.13277 0.0
H454 H 0.11702 0.59494 0.14063 0.0
H455 H 0.13474 0.58215 0.14699 0.0
C456 C 0.12901 0.62297 0.16892 0.0
C457 C 0.14199 0.61905 0.17715 0.0
C458 C 0.13263 0.62039 0.15747 0.0
C459 C 0.14931 0.61386 0.15397 0.0
C460 C 0.16233 0.60979 0.16213 0.0
H461 H 0.15963 0.60042 0.07997 0.0
H462 H 0.16397 0.59395 0.10017 0.0
C463 C 0.15864 0.61221 0.17366 0.0
C464 C 0.15328 0.61264 0.14171 0.0
H465 H 0.13651 0.59575 0.11709 0.0
C466 C 0.16603 0.62432 0.1371 0.0
C467 C 0.14316 0.60157 0.13443 0.0
C468 C 0.12994 0.58813 0.13895 0.0
C469 C 0.16796 0.62617 0.12535 0.0
C470 C 0.15677 0.61618 0.11806 0.0
C471 C 0.14498 0.60353 0.12268 0.0
C472 C 0.15556 0.62018 0.10581 0.0
C473 C 0.18154 0.63925 0.12083 0.0
C474 C 0.14931 0.63698 0.10232 0.0
C475 C 0.14669 0.64063 0.09089 0.0
C476 C 0.15027 0.62756 0.08265 0.0
C477 C 0.15684 0.61079 0.08611 0.0
C478 C 0.1593 0.60708 0.09763 0.0
H479 H 0.19251 0.64155 0.12698 0.0
H480 H 0.18738 0.63446 0.11275 0.0
H481 H 0.17488 0.65229 0.11923 0.0
H482 H 0.146 0.64717 0.10849 0.0
H483 H 0.14161 0.65368 0.08852 0.0
H484 H 0.63974 0.86516 0.42099 0.0
H485 H 0.64398 0.87164 0.401 0.0
H486 H 0.66277 0.92458 0.40925 0.0
H487 H 0.65861 0.91814 0.42947 0.0
H488 H 0.63498 0.92298 0.39235 0.0
H489 H 0.69071 0.87676 0.38247 0.0
H490 H 0.67301 0.86629 0.39031 0.0
H491 H 0.68572 0.88405 0.39669 0.0
C492 C 0.64496 0.87814 0.4186 0.0
C493 C 0.64885 0.89114 0.42683 0.0
C494 C 0.64748 0.88177 0.40715 0.0
C495 C 0.65392 0.89849 0.40364 0.0
C496 C 0.65794 0.91153 0.41181 0.0
H497 H 0.66811 0.90969 0.32975 0.0
H498 H 0.67425 0.91372 0.35002 0.0
C499 C 0.65558 0.90782 0.42334 0.0
C500 C 0.65514 0.90246 0.39139 0.0
H501 H 0.67235 0.88594 0.36677 0.0
C502 C 0.64343 0.91518 0.38677 0.0
C503 C 0.66632 0.89242 0.38411 0.0
C504 C 0.67979 0.87923 0.38865 0.0
C505 C 0.64169 0.91719 0.37502 0.0
C506 C 0.65182 0.90611 0.36773 0.0
C507 C 0.66447 0.89432 0.37236 0.0
C508 C 0.64802 0.90504 0.35545 0.0
C509 C 0.62857 0.93074 0.37049 0.0
C510 C 0.63132 0.89874 0.35182 0.0
C511 C 0.62785 0.8963 0.34034 0.0
C512 C 0.64101 0.90011 0.3322 0.0
C513 C 0.65768 0.90672 0.33582 0.0
C514 C 0.66121 0.90901 0.34737 0.0
H515 H 0.6261 0.94162 0.37669 0.0
H516 H 0.63346 0.93672 0.36247 0.0
H517 H 0.61562 0.92401 0.36877 0.0
H518 H 0.62106 0.89526 0.3579 0.0
H519 H 0.61488 0.89118 0.33787 0.0
H520 H 0.3537 0.41522 0.68031 0.0
H521 H 0.34724 0.41809 0.65997 0.0
H522 H 0.38972 0.38095 0.65249 0.0
H523 H 0.39633 0.37807 0.67255 0.0
H524 H 0.37841 0.42535 0.6405 0.0
H525 H 0.33769 0.3632 0.63822 0.0
H526 H 0.33917 0.37664 0.65088 0.0
H527 H 0.35749 0.3625 0.64687 0.0
C528 C 0.36169 0.40773 0.67431 0.0
C529 C 0.37551 0.3964 0.67806 0.0
C530 C 0.358 0.40941 0.66273 0.0
C531 C 0.36799 0.39967 0.65479 0.0
C532 C 0.38185 0.38853 0.65851 0.0
H533 H 0.38518 0.36687 0.58859 0.0
H534 H 0.38084 0.37236 0.60866 0.0
C535 C 0.3856 0.38693 0.67 0.0
C536 C 0.36409 0.40063 0.64255 0.0
H537 H 0.34871 0.37479 0.62088 0.0
C538 C 0.37153 0.41457 0.63617 0.0
C539 C 0.3552 0.38647 0.637 0.0
C540 C 0.34679 0.37136 0.64355 0.0
C541 C 0.37129 0.41413 0.62428 0.0
C542 C 0.36321 0.39944 0.61871 0.0
C543 C 0.35488 0.38604 0.62515 0.0
C544 C 0.36525 0.39647 0.60637 0.0
C545 C 0.3807 0.42872 0.61779 0.0
C546 C 0.35779 0.40816 0.59836 0.0
C547 C 0.36029 0.40506 0.58676 0.0
C548 C 0.37025 0.3902 0.58304 0.0
C549 C 0.37747 0.37846 0.59113 0.0
C550 C 0.37497 0.38155 0.60264 0.0
H551 H 0.38848 0.43773 0.6234 0.0
H552 H 0.38991 0.42284 0.61143 0.0
H553 H 0.37065 0.43689 0.61321 0.0
H554 H 0.35002 0.41962 0.60105 0.0
H555 H 0.35451 0.41431 0.58074 0.0
H556 H 0.87789 0.15188 0.92063 0.0
H557 H 0.87348 0.14545 0.90065 0.0
H558 H 0.85462 0.09254 0.90893 0.0
H559 H 0.85897 0.09893 0.92914 0.0
H560 H 0.88232 0.09409 0.89197 0.0
H561 H 0.82669 0.14047 0.88221 0.0
H562 H 0.84441 0.15092 0.89004 0.0
H563 H 0.8317 0.13315 0.89642 0.0
C564 C 0.87263 0.13892 0.91825 0.0
C565 C 0.86878 0.12591 0.92648 0.0
C566 C 0.86999 0.13532 0.90681 0.0
C567 C 0.86348 0.11862 0.90331 0.0
C568 C 0.8595 0.10558 0.91148 0.0
H569 H 0.84986 0.10821 0.82932 0.0
H570 H 0.84344 0.10388 0.84952 0.0
C571 C 0.86197 0.10925 0.923 0.0
C572 C 0.86221 0.11468 0.89106 0.0
H573 H 0.84516 0.13147 0.86648 0.0
C574 C 0.8739 0.10196 0.8864 0.0
C575 C 0.85108 0.1248 0.8838 0.0
C576 C 0.83762 0.13798 0.88837 0.0
C577 C 0.87569 0.10006 0.87465 0.0
C578 C 0.86564 0.11125 0.8674 0.0
C579 C 0.85298 0.123 0.87205 0.0
C580 C 0.86959 0.1125 0.85514 0.0
C581 C 0.88881 0.08653 0.87009 0.0
C582 C 0.88633 0.11887 0.85164 0.0
C583 C 0.88995 0.1215 0.8402 0.0
C584 C 0.87691 0.11778 0.83197 0.0
C585 C 0.8602 0.11111 0.83545 0.0
C586 C 0.85651 0.10865 0.84698 0.0
H587 H 0.8912 0.07556 0.87624 0.0
H588 H 0.88397 0.08066 0.86203 0.0
H589 H 0.90179 0.09324 0.86845 0.0
H590 H 0.8965 0.12227 0.8578 0.0
H591 H 0.90296 0.12666 0.83782 0.0
H592 H 0.14201 0.36635 0.92113 0.0
H593 H 0.14634 0.37299 0.90118 0.0
H594 H 0.1644 0.42611 0.90961 0.0
H595 H 0.1601 0.41952 0.9298 0.0
H596 H 0.13698 0.42459 0.89276 0.0
H597 H 0.19265 0.37854 0.88255 0.0
H598 H 0.17504 0.36777 0.8903 0.0
H599 H 0.18762 0.3855 0.89683 0.0
C600 C 0.14709 0.37941 0.91879 0.0
C601 C 0.15071 0.39242 0.92706 0.0
C602 C 0.14969 0.38313 0.90737 0.0
C603 C 0.15594 0.39994 0.90391 0.0
C604 C 0.15973 0.41299 0.91212 0.0
H605 H 0.16847 0.41033 0.82984 0.0
H606 H 0.17525 0.41475 0.84999 0.0
C607 C 0.15728 0.4092 0.92363 0.0
C608 C 0.15709 0.40402 0.89166 0.0
H609 H 0.17381 0.38742 0.86694 0.0
C610 C 0.14534 0.41677 0.88712 0.0
C611 C 0.16814 0.39398 0.88431 0.0
C612 C 0.18171 0.38081 0.88875 0.0
C613 C 0.14337 0.41875 0.87539 0.0
C614 C 0.15331 0.4076 0.86804 0.0
C615 C 0.16606 0.39585 0.87258 0.0
C616 C 0.14912 0.40636 0.85581 0.0
C617 C 0.1302 0.43233 0.87095 0.0
C618 C 0.13228 0.4001 0.85244 0.0
C619 C 0.12845 0.39743 0.84103 0.0
C620 C 0.14139 0.40098 0.8327 0.0
C621 C 0.1582 0.40756 0.83605 0.0
C622 C 0.16209 0.41008 0.84754 0.0
H623 H 0.12801 0.44331 0.87712 0.0
H624 H 0.13486 0.43817 0.86284 0.0
H625 H 0.11715 0.42567 0.86945 0.0
H626 H 0.12219 0.39681 0.85867 0.0
H627 H 0.11538 0.39235 0.83876 0.0
H628 H 0.87561 0.86594 0.08821 0.0
H629 H 0.87117 0.87261 0.10815 0.0
H630 H 0.8543 0.92613 0.0997 0.0
H631 H 0.8587 0.9195 0.07952 0.0
H632 H 0.88151 0.92395 0.11668 0.0
H633 H 0.82475 0.87913 0.12656 0.0
H634 H 0.8422 0.86801 0.11886 0.0
H635 H 0.83008 0.88604 0.11232 0.0
C636 C 0.87076 0.87909 0.09054 0.0
C637 C 0.86751 0.8922 0.08227 0.0
C638 C 0.8681 0.88284 0.10196 0.0
C639 C 0.86215 0.89977 0.10541 0.0
C640 C 0.85873 0.91291 0.0972 0.0
H641 H 0.84907 0.91025 0.17944 0.0
H642 H 0.84258 0.91482 0.15926 0.0
C643 C 0.86123 0.90911 0.08569 0.0
C644 C 0.86095 0.90384 0.11765 0.0
H645 H 0.8436 0.88753 0.14227 0.0
C646 C 0.87293 0.9163 0.12227 0.0
C647 C 0.8496 0.89403 0.12494 0.0
C648 C 0.83579 0.88118 0.12042 0.0
C649 C 0.8748 0.9182 0.13401 0.0
C650 C 0.86455 0.90725 0.1413 0.0
C651 C 0.85159 0.8958 0.13668 0.0
C652 C 0.86857 0.90587 0.15354 0.0
C653 C 0.88822 0.93145 0.13853 0.0
C654 C 0.88525 0.89924 0.15697 0.0
C655 C 0.88891 0.89649 0.16839 0.0
C656 C 0.87598 0.90033 0.17667 0.0
C657 C 0.85933 0.90726 0.17326 0.0
C658 C 0.8556 0.90985 0.16176 0.0
H659 H 0.89071 0.94242 0.13239 0.0
H660 H 0.88361 0.93736 0.14663 0.0
H661 H 0.90111 0.9245 0.14007 0.0
H662 H 0.89532 0.89573 0.15078 0.0
H663 H 0.90186 0.89113 0.17071 0.0
H664 H 0.38326 0.65239 0.42149 0.0
H665 H 0.37845 0.6471 0.40145 0.0
H666 H 0.35094 0.59787 0.40906 0.0
H667 H 0.3558 0.60305 0.42936 0.0
H668 H 0.37762 0.59508 0.39174 0.0
H669 H 0.33161 0.6516 0.38352 0.0
H670 H 0.35127 0.6584 0.39108 0.0
H671 H 0.33577 0.64309 0.39756 0.0
C672 C 0.37607 0.64046 0.41897 0.0
C673 C 0.36986 0.62816 0.42705 0.0
C674 C 0.37323 0.63753 0.40748 0.0
C675 C 0.36406 0.62226 0.40376 0.0
C676 C 0.3579 0.60983 0.41177 0.0
H677 H 0.35237 0.60349 0.32985 0.0
H678 H 0.34605 0.60022 0.35017 0.0
C679 C 0.36067 0.61281 0.42335 0.0
C680 C 0.36183 0.61919 0.39145 0.0
H681 H 0.34792 0.64024 0.3674 0.0
C682 C 0.37072 0.60467 0.38642 0.0
C683 C 0.35275 0.63167 0.38452 0.0
C684 C 0.34215 0.64697 0.38946 0.0
C685 C 0.37186 0.60309 0.3746 0.0
C686 C 0.36389 0.6163 0.36772 0.0
C687 C 0.35405 0.63015 0.37273 0.0
C688 C 0.36774 0.61739 0.35548 0.0
C689 C 0.38245 0.58795 0.36949 0.0
C690 C 0.38201 0.62806 0.35183 0.0
C691 C 0.38563 0.62994 0.34034 0.0
C692 C 0.37502 0.62123 0.33221 0.0
C693 C 0.36079 0.61037 0.33589 0.0
C694 C 0.35716 0.60848 0.34747 0.0
H695 H 0.38667 0.57798 0.37591 0.0
H696 H 0.37435 0.58111 0.36292 0.0
H697 H 0.39456 0.59341 0.36529 0.0
H698 H 0.39028 0.63506 0.35791 0.0
H699 H 0.3967 0.63841 0.33784 0.0
H700 H 0.61354 0.12385 0.67102 0.0
H701 H 0.61995 0.12017 0.65098 0.0
H702 H 0.67415 0.10486 0.65884 0.0
H703 H 0.6678 0.10852 0.6791 0.0
H704 H 0.67096 0.13231 0.64227 0.0
H705 H 0.62749 0.07472 0.63189 0.0
H706 H 0.61598 0.09171 0.63977 0.0
H707 H 0.63432 0.07985 0.64617 0.0
C708 C 0.62679 0.11948 0.66854 0.0
C709 C 0.64017 0.11648 0.67667 0.0
C710 C 0.63039 0.11726 0.65706 0.0
C711 C 0.64744 0.11199 0.65342 0.0
C712 C 0.66084 0.10878 0.66149 0.0
H713 H 0.65897 0.10035 0.57936 0.0
H714 H 0.66311 0.09378 0.59956 0.0
C715 C 0.65719 0.11085 0.67304 0.0
C716 C 0.65135 0.11129 0.64113 0.0
H717 H 0.63548 0.09408 0.61636 0.0
C718 C 0.6635 0.12368 0.63661 0.0
C719 C 0.64179 0.09989 0.63375 0.0
C720 C 0.62929 0.08566 0.63814 0.0
C721 C 0.66537 0.12584 0.62488 0.0
C722 C 0.6547 0.11545 0.61751 0.0
C723 C 0.64353 0.10217 0.62201 0.0
C724 C 0.65344 0.11953 0.60526 0.0
C725 C 0.67832 0.13964 0.62048 0.0
C726 C 0.64654 0.1361 0.60181 0.0
C727 C 0.64405 0.13981 0.59037 0.0
C728 C 0.64841 0.12703 0.58209 0.0
C729 C 0.65557 0.1105 0.58553 0.0
C730 C 0.65792 0.10672 0.59705 0.0
H731 H 0.68914 0.14237 0.62668 0.0
H732 H 0.68445 0.13526 0.61239 0.0
H733 H 0.67106 0.15237 0.61895 0.0
H734 H 0.64266 0.14605 0.608 0.0
H735 H 0.63849 0.15267 0.58803 0.0
H736 H 0.9004 0.38927 0.83772 0.0
H737 H 0.8939 0.3933 0.85772 0.0
H738 H 0.84159 0.41379 0.8495 0.0
H739 H 0.84802 0.40978 0.82926 0.0
H740 H 0.88291 0.4256 0.8699 0.0
H741 H 0.83319 0.37006 0.87136 0.0
H742 H 0.84906 0.37219 0.85994 0.0
H743 H 0.83045 0.38726 0.86084 0.0
C744 C 0.88752 0.39473 0.84011 0.0
C745 C 0.87467 0.3991 0.83188 0.0
C746 C 0.88386 0.39708 0.85157 0.0
C747 C 0.86725 0.40372 0.85509 0.0
C748 C 0.85446 0.40851 0.84693 0.0
H749 H 0.85649 0.41814 0.92934 0.0
H750 H 0.85207 0.42443 0.90912 0.0
C751 C 0.85817 0.40627 0.83539 0.0
C752 C 0.86342 0.40482 0.86737 0.0
H753 H 0.84237 0.38228 0.88865 0.0
C754 C 0.87374 0.41644 0.87402 0.0
C755 C 0.85156 0.39273 0.87268 0.0
C756 C 0.84043 0.37975 0.8659 0.0
C757 C 0.87315 0.4157 0.88588 0.0
C758 C 0.86187 0.40305 0.89119 0.0
C759 C 0.85091 0.39203 0.88453 0.0
C760 C 0.86323 0.39926 0.90346 0.0
C761 C 0.88542 0.42762 0.89264 0.0
C762 C 0.87061 0.38293 0.90695 0.0
C763 C 0.87317 0.37934 0.91839 0.0
C764 C 0.86829 0.39197 0.92665 0.0
C765 C 0.86042 0.40817 0.92318 0.0
C766 C 0.85794 0.4118 0.91165 0.0
H767 H 0.89473 0.43532 0.88718 0.0
H768 H 0.87731 0.43724 0.89761 0.0
H769 H 0.89339 0.41951 0.89867 0.0
H770 H 0.87479 0.37307 0.90077 0.0
H771 H 0.87918 0.36669 0.92075 0.0
H772 H 0.35361 0.10592 0.67911 0.0
H773 H 0.34888 0.1005 0.65881 0.0
H774 H 0.39461 0.13342 0.65108 0.0
H775 H 0.39943 0.13883 0.67111 0.0
H776 H 0.34336 0.12712 0.6413 0.0
H777 H 0.40414 0.08667 0.63347 0.0
H778 H 0.39495 0.08992 0.64744 0.0
H779 H 0.40877 0.10689 0.64111 0.0
C780 C 0.3627 0.11189 0.67307 0.0
C781 C 0.37693 0.12275 0.67673 0.0
C782 C 0.35997 0.1088 0.66149 0.0
C783 C 0.37158 0.11632 0.65346 0.0
C784 C 0.38571 0.12718 0.65713 0.0
H785 H 0.38617 0.14987 0.58776 0.0
H786 H 0.38278 0.14324 0.60779 0.0
C787 C 0.38837 0.13035 0.66861 0.0
C788 C 0.36882 0.11364 0.64117 0.0
H789 H 0.39143 0.10166 0.61726 0.0
C790 C 0.35361 0.12111 0.63605 0.0
C791 C 0.38218 0.10573 0.63432 0.0
C792 C 0.39835 0.09669 0.63937 0.0
C793 C 0.35211 0.12206 0.62422 0.0
C794 C 0.36611 0.11534 0.61743 0.0
C795 C 0.38073 0.10683 0.62252 0.0
C796 C 0.36709 0.11932 0.6052 0.0
C797 C 0.33615 0.13119 0.619 0.0
C798 C 0.35928 0.10803 0.59712 0.0
C799 C 0.3612 0.11178 0.58556 0.0
C800 C 0.37099 0.12683 0.58198 0.0
C801 C 0.37855 0.13816 0.59018 0.0
C802 C 0.37664 0.13441 0.60165 0.0
H803 H 0.32572 0.13447 0.62536 0.0
H804 H 0.34053 0.14376 0.61484 0.0
H805 H 0.3302 0.12249 0.61239 0.0
H806 H 0.35191 0.09627 0.59974 0.0
H807 H 0.35523 0.1028 0.57945 0.0
H808 H 0.63818 0.65241 0.42228 0.0
H809 H 0.64203 0.64567 0.40229 0.0
H810 H 0.66226 0.59332 0.41068 0.0
H811 H 0.65851 0.60001 0.43091 0.0
H812 H 0.67523 0.63323 0.39024 0.0
H813 H 0.61727 0.58634 0.38883 0.0
H814 H 0.61952 0.6028 0.3999 0.0
H815 H 0.63392 0.58363 0.3997 0.0
C816 C 0.64355 0.63948 0.41993 0.0
C817 C 0.64795 0.6267 0.4282 0.0
C818 C 0.6458 0.63568 0.40848 0.0
C819 C 0.65234 0.61899 0.40502 0.0
C820 C 0.65712 0.60626 0.41321 0.0
H821 H 0.66654 0.60645 0.33088 0.0
H822 H 0.67253 0.6021 0.35113 0.0
C823 C 0.655 0.61012 0.42474 0.0
C824 C 0.65333 0.61501 0.39277 0.0
H825 H 0.62973 0.59514 0.37152 0.0
C826 C 0.66559 0.62457 0.38612 0.0
C827 C 0.64061 0.60383 0.38747 0.0
C828 C 0.62699 0.59355 0.39427 0.0
C829 C 0.66491 0.6239 0.37426 0.0
C830 C 0.65165 0.61334 0.36896 0.0
C831 C 0.63995 0.60312 0.37562 0.0
C832 C 0.64803 0.61479 0.35667 0.0
C833 C 0.6776 0.63534 0.36749 0.0
C834 C 0.63217 0.62303 0.3531 0.0
C835 C 0.62875 0.62553 0.34164 0.0
C836 C 0.64108 0.61976 0.33343 0.0
C837 C 0.65681 0.61108 0.33699 0.0
C838 C 0.66027 0.60864 0.34854 0.0
H839 H 0.68582 0.64423 0.37293 0.0
H840 H 0.68675 0.6266 0.36258 0.0
H841 H 0.67005 0.64373 0.36139 0.0
H842 H 0.62255 0.62788 0.35923 0.0
H843 H 0.61646 0.63219 0.33922 0.0
H844 H 0.16922 0.90965 0.17972 0.0
H845 H 0.17561 0.91392 0.1595 0.0
H846 H 0.12297 0.89437 0.15124 0.0
H847 H 0.11654 0.89005 0.17122 0.0
H848 H 0.17453 0.88623 0.14261 0.0
H849 H 0.1273 0.94106 0.13269 0.0
H850 H 0.1346 0.93619 0.14692 0.0
H851 H 0.11707 0.9232 0.14051 0.0
C852 C 0.15896 0.90648 0.17358 0.0
C853 C 0.14238 0.89951 0.17707 0.0
C854 C 0.16263 0.90891 0.16205 0.0
C855 C 0.14966 0.90471 0.15389 0.0
C856 C 0.13304 0.89803 0.1574 0.0
H857 H 0.14243 0.86468 0.0885 0.0
H858 H 0.14682 0.87129 0.10845 0.0
C859 C 0.12944 0.89544 0.16884 0.0
C860 C 0.15361 0.90598 0.14163 0.0
H861 H 0.13657 0.9226 0.11701 0.0
C862 C 0.16653 0.89448 0.13701 0.0
C863 C 0.14331 0.9169 0.13435 0.0
C864 C 0.12991 0.93018 0.13887 0.0
C865 C 0.16848 0.89265 0.12527 0.0
C866 C 0.15713 0.90247 0.11798 0.0
C867 C 0.14516 0.91496 0.1226 0.0
C868 C 0.15594 0.89842 0.10574 0.0
C869 C 0.18225 0.87976 0.12074 0.0
C870 C 0.15944 0.91156 0.09754 0.0
C871 C 0.15697 0.90779 0.08603 0.0
C872 C 0.15065 0.89092 0.08259 0.0
C873 C 0.14731 0.87781 0.09084 0.0
C874 C 0.14994 0.88152 0.10227 0.0
H875 H 0.19328 0.87765 0.12689 0.0
H876 H 0.1758 0.86662 0.11917 0.0
H877 H 0.188 0.88462 0.11266 0.0
H878 H 0.16391 0.92475 0.10006 0.0
H879 H 0.15957 0.91818 0.07988 0.0
H880 H 0.85882 0.59878 0.07971 0.0
H881 H 0.85445 0.59217 0.09989 0.0
H882 H 0.87165 0.64557 0.10834 0.0
H883 H 0.87607 0.65222 0.08839 0.0
H884 H 0.88179 0.59429 0.1169 0.0
H885 H 0.82504 0.63925 0.12669 0.0
H886 H 0.83036 0.63224 0.11246 0.0
H887 H 0.84254 0.65026 0.11897 0.0
C888 C 0.86144 0.60915 0.08588 0.0
C889 C 0.8678 0.62602 0.08245 0.0
C890 C 0.85895 0.60535 0.09738 0.0
C891 C 0.86247 0.61847 0.10559 0.0
C892 C 0.86852 0.63536 0.10215 0.0
H893 H 0.90171 0.62705 0.17106 0.0
H894 H 0.89536 0.62246 0.15109 0.0
C895 C 0.87116 0.6391 0.09072 0.0
C896 C 0.86122 0.61442 0.11784 0.0
H897 H 0.84374 0.63073 0.14242 0.0
C898 C 0.87318 0.60194 0.12247 0.0
C899 C 0.84984 0.62425 0.1251 0.0
C900 C 0.83608 0.63713 0.12055 0.0
C901 C 0.87498 0.60003 0.13422 0.0
C902 C 0.86467 0.61098 0.14149 0.0
C903 C 0.85176 0.62245 0.13685 0.0
C904 C 0.8686 0.61232 0.15375 0.0
C905 C 0.88837 0.58677 0.13877 0.0
C906 C 0.85556 0.60831 0.16192 0.0
C907 C 0.85917 0.6109 0.17343 0.0
C908 C 0.87577 0.61784 0.17692 0.0
C909 C 0.88879 0.62168 0.16869 0.0
C910 C 0.88523 0.61894 0.15725 0.0
H911 H 0.89093 0.57582 0.13262 0.0
H912 H 0.90124 0.59372 0.14036 0.0
H913 H 0.8837 0.58083 0.14685 0.0
H914 H 0.84256 0.60335 0.15937 0.0
H915 H 0.84886 0.6079 0.17957 0.0
H916 H 0.16967 0.10851 0.83 0.0
H917 H 0.17602 0.10409 0.85021 0.0
H918 H 0.12261 0.12158 0.85842 0.0
H919 H 0.11622 0.12603 0.83845 0.0
H920 H 0.17393 0.13139 0.86716 0.0
H921 H 0.12842 0.0751 0.87688 0.0
H922 H 0.13554 0.08033 0.86267 0.0
H923 H 0.11759 0.09268 0.86914 0.0
C924 C 0.15924 0.11118 0.83612 0.0
C925 C 0.14245 0.11763 0.83262 0.0
C926 C 0.16288 0.10867 0.84765 0.0
C927 C 0.14969 0.11226 0.8558 0.0
C928 C 0.13287 0.11839 0.85227 0.0
H929 H 0.14092 0.15185 0.9212 0.0
H930 H 0.14546 0.14534 0.90125 0.0
C931 C 0.12929 0.12105 0.84083 0.0
C932 C 0.15361 0.11103 0.86806 0.0
H933 H 0.13694 0.09381 0.89262 0.0
C934 C 0.16615 0.12288 0.87272 0.0
C935 C 0.14362 0.09978 0.87531 0.0
C936 C 0.13066 0.08612 0.87074 0.0
C937 C 0.16798 0.12472 0.88448 0.0
C938 C 0.15688 0.11455 0.89172 0.0
C939 C 0.14533 0.10173 0.88706 0.0
C940 C 0.1555 0.11854 0.90397 0.0
C941 C 0.18132 0.138 0.88905 0.0
C942 C 0.15945 0.10553 0.91217 0.0
C943 C 0.1569 0.10924 0.92368 0.0
C944 C 0.15004 0.12591 0.92712 0.0
C945 C 0.14622 0.13887 0.91886 0.0
C946 C 0.14893 0.13523 0.90743 0.0
H947 H 0.1923 0.14049 0.88292 0.0
H948 H 0.17445 0.15093 0.89065 0.0
H949 H 0.18719 0.13327 0.89713 0.0
H950 H 0.16437 0.09249 0.90965 0.0
H951 H 0.15988 0.09895 0.92984 0.0
H952 H 0.63867 0.36574 0.58761 0.0
H953 H 0.64242 0.37244 0.60759 0.0
H954 H 0.66426 0.42415 0.59923 0.0
H955 H 0.66047 0.41754 0.579 0.0
H956 H 0.6742 0.38242 0.62004 0.0
H957 H 0.62081 0.43451 0.62061 0.0
H958 H 0.62284 0.41861 0.6092 0.0
H959 H 0.63852 0.43667 0.61039 0.0
C960 C 0.64436 0.37853 0.58996 0.0
C961 C 0.64916 0.39116 0.5817 0.0
C962 C 0.64655 0.3823 0.60141 0.0
C963 C 0.65348 0.39882 0.6049 0.0
C964 C 0.65872 0.41137 0.5967 0.0
H965 H 0.6667 0.40998 0.67918 0.0
H966 H 0.67355 0.41396 0.659 0.0
C967 C 0.65661 0.40755 0.58517 0.0
C968 C 0.65441 0.40281 0.61716 0.0
H969 H 0.63237 0.42532 0.63807 0.0
C970 C 0.66537 0.39208 0.624 0.0
C971 C 0.64275 0.41533 0.62227 0.0
C972 C 0.63045 0.42693 0.6153 0.0
C973 C 0.66436 0.39292 0.63584 0.0
C974 C 0.65214 0.40489 0.64095 0.0
C975 C 0.64181 0.41624 0.63411 0.0
C976 C 0.648 0.40395 0.65319 0.0
C977 C 0.6755 0.3802 0.6428 0.0
C978 C 0.63128 0.39741 0.65659 0.0
C979 C 0.62737 0.3951 0.66801 0.0
C980 C 0.64007 0.39941 0.67634 0.0
C981 C 0.65666 0.40651 0.67296 0.0
C982 C 0.66061 0.40873 0.66146 0.0
H983 H 0.68285 0.37039 0.63749 0.0
H984 H 0.68541 0.38792 0.6478 0.0
H985 H 0.66689 0.37276 0.64883 0.0
H986 H 0.62136 0.39363 0.65035 0.0
H987 H 0.61443 0.38969 0.6703 0.0
H988 H 0.40396 0.88861 0.33822 0.0
H989 H 0.39721 0.8922 0.35822 0.0
H990 H 0.3444 0.9113 0.34994 0.0
H991 H 0.35105 0.90767 0.32971 0.0
H992 H 0.38575 0.92364 0.37052 0.0
H993 H 0.33643 0.86775 0.37162 0.0
H994 H 0.35211 0.87039 0.36014 0.0
H995 H 0.33326 0.88513 0.36129 0.0
C996 C 0.39091 0.89365 0.3406 0.0
C997 C 0.37799 0.89774 0.33235 0.0
C998 C 0.38711 0.89575 0.35205 0.0
C999 C 0.37028 0.90188 0.35557 0.0
C1000 C 0.35742 0.90638 0.34739 0.0
H1001 H 0.35766 0.91661 0.42964 0.0
H1002 H 0.35385 0.92263 0.40935 0.0
C1003 C 0.36126 0.90436 0.33586 0.0
C1004 C 0.36635 0.90282 0.36784 0.0
H1005 H 0.34489 0.8803 0.38897 0.0
C1006 C 0.37653 0.91445 0.37457 0.0
C1007 C 0.35442 0.8907 0.37306 0.0
C1008 C 0.34344 0.87768 0.36622 0.0
C1009 C 0.3757 0.91373 0.38642 0.0
C1010 C 0.3643 0.9011 0.39165 0.0
C1011 C 0.35351 0.89004 0.38491 0.0
C1012 C 0.3653 0.89744 0.40395 0.0
C1013 C 0.38782 0.92567 0.39327 0.0
C1014 C 0.37263 0.88119 0.40761 0.0
C1015 C 0.37485 0.87775 0.4191 0.0
C1016 C 0.36966 0.89046 0.42723 0.0
C1017 C 0.36182 0.90657 0.42358 0.0
C1018 C 0.35969 0.91006 0.41201 0.0
H1019 H 0.39728 0.93333 0.38789 0.0
H1020 H 0.3796 0.93534 0.39814 0.0
H1021 H 0.39562 0.91759 0.39941 0.0
H1022 H 0.37705 0.87128 0.40153 0.0
H1023 H 0.38085 0.86517 0.42159 0.0
H1024 H 0.08087 0.63396 0.05522 0.0
H1025 H 0.04831 0.63302 0.05388 0.0
H1026 H 0.05205 0.62492 0.0179 0.0
H1027 H 0.08474 0.62564 0.01914 0.0
H1028 H 0.02653 0.65604 0.04105 0.0
H1029 H 0.0178 0.58497 0.02823 0.0
H1030 H 0.03842 0.59332 0.03417 0.0
H1031 H 0.03291 0.5979 0.01969 0.0
C1032 C 0.07482 0.63186 0.04701 0.0
C1033 C 0.08545 0.62985 0.03728 0.0
C1034 C 0.0562 0.63134 0.04627 0.0
C1035 C 0.04779 0.62871 0.03582 0.0
C1036 C 0.0583 0.62665 0.02608 0.0
H1037 H 0.93379 0.62547 0.01909 0.0
H1038 H 0.96652 0.62533 0.01797 0.0
C1039 C 0.07697 0.62717 0.02681 0.0
C1040 C 0.02801 0.62883 0.03514 0.0
H1041 H 0.9917 0.60277 0.02915 0.0
C1042 C 0.01891 0.6444 0.03843 0.0
C1043 C 0.01814 0.61366 0.03165 0.0
C1044 C 0.02725 0.59644 0.02831 0.0
C1045 C 1.00017 0.6452 0.03841 0.0
C1046 C 0.99028 0.6299 0.03519 0.0
C1047 C 0.99936 0.61445 0.03164 0.0
C1048 C 0.97051 0.62954 0.03587 0.0
C1049 C 0.99112 0.66246 0.04176 0.0
C1050 C 0.96196 0.6316 0.04633 0.0
C1051 C 0.94332 0.63169 0.04702 0.0
C1052 C 0.93283 0.62963 0.03724 0.0
C1053 C 0.94146 0.62717 0.02678 0.0
C1054 C 0.96015 0.62706 0.02612 0.0
H1055 H 1.00029 0.67409 0.04097 0.0
H1056 H 0.97909 0.66496 0.03649 0.0
H1057 H 0.98682 0.66155 0.05071 0.0
H1058 H 0.96973 0.63317 0.05399 0.0
H1059 H 0.93716 0.63349 0.05522 0.0
H1060 H 0.6364 0.68807 0.30528 0.0
H1061 H 0.63697 0.7206 0.30373 0.0
H1062 H 0.64304 0.71643 0.26761 0.0
H1063 H 0.64264 0.6837 0.26906 0.0
H1064 H 0.66627 0.74193 0.27831 0.0
H1065 H 0.59538 0.75081 0.29099 0.0
H1066 H 0.60822 0.73742 0.30062 0.0
H1067 H 0.60433 0.72953 0.28649 0.0
C1068 C 0.63788 0.694 0.29699 0.0
C1069 C 0.63934 0.68324 0.28728 0.0
C1070 C 0.63812 0.71262 0.29612 0.0
C1071 C 0.63973 0.72089 0.28554 0.0
C1072 C 0.64166 0.71026 0.27585 0.0
H1073 H 0.6431 0.83509 0.26839 0.0
H1074 H 0.64389 0.80239 0.26717 0.0
C1075 C 0.64141 0.69158 0.2767 0.0
C1076 C 0.63934 0.74065 0.28469 0.0
H1077 H 0.61344 0.77702 0.29071 0.0
C1078 C 0.65468 0.74964 0.2809 0.0
C1079 C 0.62416 0.75061 0.28804 0.0
C1080 C 0.60702 0.74162 0.29167 0.0
C1081 C 0.65549 0.76843 0.28082 0.0
C1082 C 0.64046 0.77838 0.28447 0.0
C1083 C 0.62498 0.76935 0.28798 0.0
C1084 C 0.64064 0.79817 0.28513 0.0
C1085 C 0.67261 0.77748 0.27723 0.0
C1086 C 0.6383 0.80661 0.29561 0.0
C1087 C 0.63774 0.82524 0.29634 0.0
C1088 C 0.63941 0.83584 0.28658 0.0
C1089 C 0.64184 0.82734 0.27608 0.0
C1090 C 0.64239 0.80865 0.27536 0.0
H1091 H 0.68405 0.768 0.27701 0.0
H1092 H 0.67087 0.78311 0.26863 0.0
H1093 H 0.67595 0.78867 0.28303 0.0
H1094 H 0.63686 0.79874 0.30324 0.0
H1095 H 0.63585 0.83131 0.30456 0.0
H1096 H 0.43774 0.38575 0.55446 0.0
H1097 H 0.47026 0.38652 0.55282 0.0
H1098 H 0.46578 0.39373 0.5168 0.0
H1099 H 0.43311 0.39315 0.51834 0.0
H1100 H 0.4914 0.3628 0.53982 0.0
H1101 H 0.50076 0.43363 0.52661 0.0
H1102 H 0.48024 0.42567 0.5329 0.0
H1103 H 0.4852 0.42072 0.51839 0.0
C1104 C 0.44361 0.38763 0.54618 0.0
C1105 C 0.43278 0.3894 0.53652 0.0
C1106 C 0.46222 0.38806 0.54527 0.0
C1107 C 0.4704 0.39036 0.53471 0.0
C1108 C 0.4597 0.39224 0.52505 0.0
H1109 H 0.58456 0.39247 0.5179 0.0
H1110 H 0.55184 0.39288 0.51665 0.0
C1111 C 0.44104 0.39181 0.52594 0.0
C1112 C 0.49016 0.38999 0.53386 0.0
H1113 H 0.52669 0.41564 0.5277 0.0
C1114 C 0.49912 0.37434 0.53715 0.0
C1115 C 0.50016 0.40502 0.53028 0.0
C1116 C 0.49117 0.42229 0.52691 0.0
C1117 C 0.51785 0.37335 0.53706 0.0
C1118 C 0.52787 0.38853 0.5338 0.0
C1119 C 0.51893 0.40405 0.53023 0.0
C1120 C 0.54764 0.38875 0.53454 0.0
C1121 C 0.52674 0.35602 0.54043 0.0
C1122 C 0.55607 0.38665 0.54503 0.0
C1123 C 0.57469 0.38639 0.54579 0.0
C1124 C 0.5853 0.38834 0.53605 0.0
C1125 C 0.5768 0.39085 0.52556 0.0
C1126 C 0.55812 0.39112 0.52482 0.0
H1127 H 0.51748 0.34447 0.53961 0.0
H1128 H 0.5388 0.35342 0.5352 0.0
H1129 H 0.53097 0.35688 0.5494 0.0
H1130 H 0.54821 0.38517 0.55267 0.0
H1131 H 0.58075 0.38456 0.55401 0.0
H1132 H 0.88136 0.33055 0.80431 0.0
H1133 H 0.88118 0.29797 0.80305 0.0
H1134 H 0.87473 0.30127 0.76692 0.0
H1135 H 0.87472 0.33401 0.76808 0.0
H1136 H 0.85188 0.2759 0.77778 0.0
H1137 H 0.9228 0.2677 0.79056 0.0
H1138 H 0.90985 0.28112 0.80013 0.0
H1139 H 0.9137 0.28887 0.78596 0.0
C1140 C 0.87988 0.32441 0.79608 0.0
C1141 C 0.87818 0.33493 0.78628 0.0
C1142 C 0.87987 0.30577 0.79538 0.0
C1143 C 0.87826 0.29724 0.78487 0.0
C1144 C 0.87612 0.30763 0.7751 0.0
H1145 H 0.87574 0.18293 0.76818 0.0
H1146 H 0.87481 0.21561 0.76689 0.0
C1147 C 0.87614 0.32633 0.77578 0.0
C1148 C 0.87878 0.27747 0.78418 0.0
H1149 H 0.90492 0.24136 0.79042 0.0
C1150 C 0.86352 0.2683 0.78043 0.0
C1151 C 0.89402 0.26766 0.78761 0.0
C1152 C 0.91109 0.27682 0.79119 0.0
C1153 C 0.86285 0.24951 0.78045 0.0
C1154 C 0.87794 0.23972 0.78415 0.0
C1155 C 0.89334 0.24891 0.78765 0.0
C1156 C 0.87792 0.21994 0.78485 0.0
C1157 C 0.84581 0.2403 0.77688 0.0
C1158 C 0.88025 0.21157 0.79535 0.0
C1159 C 0.88089 0.19294 0.79612 0.0
C1160 C 0.87931 0.18228 0.78638 0.0
C1161 C 0.87693 0.19072 0.77585 0.0
C1162 C 0.87629 0.20939 0.7751 0.0
H1163 H 0.83429 0.24968 0.77663 0.0
H1164 H 0.84761 0.23462 0.76829 0.0
H1165 H 0.84255 0.22912 0.78271 0.0
H1166 H 0.8816 0.21949 0.80297 0.0
H1167 H 0.88275 0.18693 0.80436 0.0
H1168 H 0.93729 0.38627 0.95393 0.0
H1169 H 0.96987 0.38685 0.9551 0.0
H1170 H 0.96673 0.39334 0.99123 0.0
H1171 H 0.93401 0.39295 0.99016 0.0
H1172 H 0.99173 0.41644 0.98037 0.0
H1173 H 1.00073 0.34564 0.96744 0.0
H1174 H 0.98719 0.35851 0.9579 0.0
H1175 H 0.97947 0.35448 0.97206 0.0
C1176 C 0.94347 0.38784 0.96214 0.0
C1177 C 0.933 0.38944 0.97197 0.0
C1178 C 0.96212 0.38808 0.96279 0.0
C1179 C 0.97069 0.38982 0.97327 0.0
C1180 C 0.96034 0.39186 0.98307 0.0
H1181 H 0.08466 0.3933 0.99042 0.0
H1182 H 0.05196 0.39405 0.99147 0.0
C1183 C 0.94165 0.39161 0.98244 0.0
C1184 C 0.99046 0.38954 0.97391 0.0
H1185 H 0.02687 0.36378 0.96772 0.0
C1186 C 0.99945 0.40489 0.97771 0.0
C1187 C 1.00044 0.37442 0.97047 0.0
C1188 C 0.99149 0.35726 0.96683 0.0
C1189 C 0.01823 0.40575 0.97775 0.0
C1190 C 0.02819 0.39075 0.97405 0.0
C1191 C 0.01918 0.37529 0.97049 0.0
C1192 C 0.04798 0.39092 0.97348 0.0
C1193 C 0.02724 0.42286 0.98137 0.0
C1194 C 0.05655 0.38866 0.96304 0.0
C1195 C 0.07518 0.38812 0.9624 0.0
C1196 C 0.08566 0.38975 0.97222 0.0
C1197 C 0.07701 0.39208 0.98269 0.0
C1198 C 0.05833 0.39261 0.98331 0.0
H1199 H 0.01776 0.43431 0.98156 0.0
H1200 H 0.03278 0.42112 0.99 0.0
H1201 H 0.03849 0.42621 0.97562 0.0
H1202 H 0.04878 0.38726 0.95536 0.0
H1203 H 0.08136 0.3863 0.95421 0.0
H1204 H 0.87424 0.83492 0.2403 0.0
H1205 H 0.87237 0.80228 0.24156 0.0
H1206 H 0.87959 0.79823 0.20552 0.0
H1207 H 0.88128 0.83078 0.20413 0.0
H1208 H 0.85149 0.77687 0.21417 0.0
H1209 H 0.91475 0.7674 0.23818 0.0
H1210 H 0.89898 0.78279 0.24426 0.0
H1211 H 0.90942 0.78804 0.23101 0.0
C1212 C 0.87544 0.8271 0.23264 0.0
C1213 C 0.878 0.83549 0.22211 0.0
C1214 C 0.87445 0.80844 0.23339 0.0
C1215 C 0.87609 0.79786 0.22365 0.0
C1216 C 0.87837 0.80618 0.21314 0.0
H1217 H 0.87982 0.68736 0.2041 0.0
H1218 H 0.87799 0.7199 0.2053 0.0
C1219 C 0.87936 0.8248 0.21237 0.0
C1220 C 0.87533 0.77808 0.22433 0.0
H1221 H 0.89771 0.74155 0.23435 0.0
C1222 C 0.86156 0.76913 0.2186 0.0
C1223 C 0.88844 0.76806 0.23018 0.0
C1224 C 0.90384 0.77699 0.23619 0.0
C1225 C 0.8606 0.75038 0.2185 0.0
C1226 C 0.87396 0.74035 0.2241 0.0
C1227 C 0.8875 0.7493 0.23006 0.0
C1228 C 0.87461 0.72057 0.22344 0.0
C1229 C 0.84525 0.74148 0.21243 0.0
C1230 C 0.8737 0.71016 0.23329 0.0
C1231 C 0.87483 0.6915 0.23265 0.0
C1232 C 0.87705 0.68294 0.22215 0.0
C1233 C 0.87803 0.69347 0.21232 0.0
C1234 C 0.87687 0.71209 0.21297 0.0
H1235 H 0.83369 0.75071 0.21144 0.0
H1236 H 0.8497 0.73741 0.20386 0.0
H1237 H 0.84072 0.72933 0.217 0.0
H1238 H 0.87208 0.71648 0.24146 0.0
H1239 H 0.87408 0.68381 0.24039 0.0
H1240 H 0.43786 0.62975 0.45574 0.0
H1241 H 0.47028 0.62765 0.45754 0.0
H1242 H 0.46517 0.62287 0.49369 0.0
H1243 H 0.43259 0.62513 0.49201 0.0
H1244 H 0.4908 0.64814 0.48666 0.0
H1245 H 0.5004 0.58325 0.46482 0.0
H1246 H 0.48744 0.59897 0.45679 0.0
H1247 H 0.47888 0.59061 0.46998 0.0
C1248 C 0.44356 0.62815 0.46408 0.0
C1249 C 0.43258 0.62756 0.47373 0.0
C1250 C 0.46212 0.62683 0.46508 0.0
C1251 C 0.4701 0.62481 0.47573 0.0
C1252 C 0.45924 0.62429 0.48539 0.0
H1253 H 0.58469 0.6254 0.49264 0.0
H1254 H 0.55209 0.62322 0.4942 0.0
C1255 C 0.44063 0.62557 0.4844 0.0
C1256 C 0.48983 0.62404 0.47672 0.0
H1257 H 0.52653 0.60131 0.4673 0.0
C1258 C 0.49865 0.63778 0.48258 0.0
C1259 C 0.49997 0.61047 0.4714 0.0
C1260 C 0.4912 0.59489 0.46549 0.0
C1261 C 0.5174 0.63878 0.48279 0.0
C1262 C 0.52753 0.62553 0.47713 0.0
C1263 C 0.5187 0.61149 0.47158 0.0
C1264 C 0.54727 0.62654 0.47631 0.0
C1265 C 0.52622 0.65439 0.48864 0.0
C1266 C 0.55533 0.62876 0.46571 0.0
C1267 C 0.5739 0.62995 0.46477 0.0
C1268 C 0.58482 0.62885 0.47442 0.0
C1269 C 0.57669 0.6264 0.48504 0.0
C1270 C 0.55806 0.62522 0.48596 0.0
H1271 H 0.51652 0.6652 0.49065 0.0
H1272 H 0.53229 0.64973 0.49667 0.0
H1273 H 0.53706 0.66005 0.48331 0.0
H1274 H 0.54722 0.62975 0.45815 0.0
H1275 H 0.57968 0.63178 0.45646 0.0
H1276 H 0.63275 0.18578 0.70337 0.0
H1277 H 0.63406 0.21841 0.70423 0.0
H1278 H 0.6455 0.21584 0.73988 0.0
H1279 H 0.64409 0.18315 0.73916 0.0
H1280 H 0.61832 0.24048 0.73401 0.0
H1281 H 0.67901 0.24969 0.70766 0.0
H1282 H 0.66208 0.23605 0.70121 0.0
H1283 H 0.67305 0.22842 0.71384 0.0
C1284 C 0.63562 0.19211 0.7114 0.0
C1285 C 0.63837 0.18181 0.7212 0.0
C1286 C 0.63647 0.21077 0.71185 0.0
C1287 C 0.64014 0.2195 0.72208 0.0
C1288 C 0.64276 0.20932 0.73189 0.0
H1289 H 0.6428 0.33354 0.73933 0.0
H1290 H 0.64432 0.30085 0.74027 0.0
C1291 C 0.64196 0.19064 0.73145 0.0
C1292 C 0.64068 0.2393 0.72257 0.0
H1293 H 0.6619 0.27582 0.71162 0.0
C1294 C 0.62794 0.24824 0.72921 0.0
C1295 C 0.65326 0.24933 0.7163 0.0
C1296 C 0.66774 0.24041 0.70943 0.0
C1297 C 0.62705 0.26701 0.72943 0.0
C1298 C 0.63945 0.27704 0.723 0.0
C1299 C 0.65239 0.26808 0.71653 0.0
C1300 C 0.6388 0.29684 0.72251 0.0
C1301 C 0.61248 0.27592 0.73623 0.0
C1302 C 0.63564 0.30541 0.71217 0.0
C1303 C 0.63487 0.32405 0.71158 0.0
C1304 C 0.63733 0.33453 0.72133 0.0
C1305 C 0.64073 0.32589 0.73168 0.0
C1306 C 0.64152 0.30721 0.73225 0.0
H1307 H 0.60169 0.26638 0.73856 0.0
H1308 H 0.61829 0.28134 0.74415 0.0
H1309 H 0.60648 0.28722 0.73147 0.0
H1310 H 0.63358 0.29764 0.70455 0.0
H1311 H 0.63227 0.33023 0.70347 0.0
H1312 H 0.37823 0.33086 0.70761 0.0
H1313 H 0.37687 0.29844 0.70966 0.0
H1314 H 0.37373 0.30406 0.74586 0.0
H1315 H 0.37488 0.33669 0.74391 0.0
H1316 H 0.40158 0.27736 0.7217 0.0
H1317 H 0.33238 0.26937 0.73834 0.0
H1318 H 0.33984 0.28964 0.73151 0.0
H1319 H 0.34659 0.28484 0.74574 0.0
C1320 C 0.37712 0.32528 0.71602 0.0
C1321 C 0.37667 0.33641 0.7256 0.0
C1322 C 0.37635 0.30672 0.71717 0.0
C1323 C 0.37504 0.29887 0.7279 0.0
C1324 C 0.37444 0.30988 0.73749 0.0
H1325 H 0.3758 0.1835 0.74294 0.0
H1326 H 0.37522 0.21614 0.74529 0.0
C1327 C 0.37519 0.32851 0.73636 0.0
C1328 C 0.3752 0.27913 0.72891 0.0
H1329 H 0.34948 0.24305 0.73602 0.0
C1330 C 0.39023 0.26987 0.7249 0.0
C1331 C 0.36042 0.26941 0.73317 0.0
C1332 C 0.34381 0.27874 0.73738 0.0
C1333 C 0.39074 0.25113 0.72477 0.0
C1334 C 0.37573 0.24141 0.72863 0.0
C1335 C 0.36093 0.25061 0.73305 0.0
C1336 C 0.37481 0.22175 0.72738 0.0
C1337 C 0.40728 0.24185 0.7204 0.0
C1338 C 0.37431 0.21421 0.71654 0.0
C1339 C 0.37461 0.19569 0.71517 0.0
C1340 C 0.37539 0.18429 0.72461 0.0
C1341 C 0.37527 0.19189 0.73549 0.0
C1342 C 0.37493 0.21051 0.73686 0.0
H1343 H 0.41911 0.25085 0.72047 0.0
H1344 H 0.41038 0.22977 0.7255 0.0
H1345 H 0.40495 0.23752 0.71155 0.0
H1346 H 0.37397 0.2227 0.70913 0.0
H1347 H 0.37456 0.19034 0.70666 0.0
H1348 H 0.13842 0.68799 0.20491 0.0
H1349 H 0.14053 0.72047 0.20638 0.0
H1350 H 0.14534 0.71631 0.24257 0.0
H1351 H 0.14307 0.68368 0.24123 0.0
H1352 H 0.12015 0.74183 0.23531 0.0
H1353 H 0.185 0.75064 0.21331 0.0
H1354 H 0.16918 0.73757 0.20544 0.0
H1355 H 0.17759 0.72926 0.21867 0.0
C1356 C 0.14003 0.69392 0.2132 0.0
C1357 C 0.14063 0.68319 0.22296 0.0
C1358 C 0.14135 0.71251 0.21401 0.0
C1359 C 0.14339 0.72076 0.22456 0.0
C1360 C 0.14391 0.71016 0.23434 0.0
H1361 H 0.14361 0.83531 0.24131 0.0
H1362 H 0.14548 0.80268 0.24277 0.0
C1363 C 0.14262 0.69153 0.23354 0.0
C1364 C 0.14422 0.74052 0.22537 0.0
H1365 H 0.16722 0.77693 0.21578 0.0
C1366 C 0.13055 0.74953 0.23117 0.0
C1367 C 0.15784 0.75049 0.21997 0.0
C1368 C 0.17334 0.74151 0.21408 0.0
C1369 C 0.1297 0.76831 0.23131 0.0
C1370 C 0.14304 0.77826 0.22562 0.0
C1371 C 0.15698 0.76924 0.22009 0.0
C1372 C 0.14231 0.79802 0.22484 0.0
C1373 C 0.11416 0.77732 0.23712 0.0
C1374 C 0.14033 0.8062 0.21426 0.0
C1375 C 0.13933 0.8248 0.21338 0.0
C1376 C 0.14038 0.83563 0.22308 0.0
C1377 C 0.14265 0.82738 0.23367 0.0
C1378 C 0.14364 0.80874 0.23454 0.0
H1379 H 0.10319 0.76776 0.23904 0.0
H1380 H 0.11881 0.78321 0.24521 0.0
H1381 H 0.10872 0.78831 0.23183 0.0
H1382 H 0.13934 0.79815 0.20667 0.0
H1383 H 0.13764 0.83067 0.20508 0.0
H1384 H 0.13585 0.18715 0.80565 0.0
H1385 H 0.13617 0.21975 0.80457 0.0
H1386 H 0.14353 0.21691 0.7685 0.0
H1387 H 0.14342 0.18417 0.76948 0.0
H1388 H 0.16614 0.24201 0.77959 0.0
H1389 H 0.09506 0.25041 0.79198 0.0
H1390 H 0.10782 0.23693 0.80161 0.0
H1391 H 0.10415 0.22923 0.78741 0.0
C1392 C 0.13755 0.1934 0.79747 0.0
C1393 C 0.13949 0.18301 0.78764 0.0
C1394 C 0.13764 0.21206 0.79687 0.0
C1395 C 0.13956 0.22072 0.78644 0.0
C1396 C 0.14191 0.21045 0.77663 0.0
H1397 H 0.14253 0.33479 0.76946 0.0
H1398 H 0.14348 0.30209 0.76839 0.0
C1399 C 0.14182 0.19175 0.77721 0.0
C1400 C 0.13914 0.2405 0.78583 0.0
H1401 H 0.11299 0.2767 0.7919 0.0
C1402 C 0.15449 0.24963 0.78218 0.0
C1403 C 0.12388 0.25036 0.78919 0.0
C1404 C 0.10672 0.24126 0.79267 0.0
C1405 C 0.1552 0.26842 0.78217 0.0
C1406 C 0.14006 0.27825 0.78577 0.0
C1407 C 0.1246 0.26911 0.78921 0.0
C1408 C 0.14006 0.29805 0.78636 0.0
C1409 C 0.17231 0.27758 0.77869 0.0
C1410 C 0.13756 0.30659 0.79678 0.0
C1411 C 0.13691 0.32523 0.79743 0.0
C1412 C 0.13865 0.33574 0.78763 0.0
C1413 C 0.14121 0.32713 0.77718 0.0
C1414 C 0.14186 0.30844 0.77655 0.0
H1415 H 0.18383 0.26819 0.77858 0.0
H1416 H 0.17069 0.28313 0.77006 0.0
H1417 H 0.17545 0.28884 0.78448 0.0
H1418 H 0.13608 0.2988 0.80444 0.0
H1419 H 0.13491 0.33138 0.80562 0.0
H1420 H 0.39588 0.68395 0.27124 0.0
H1421 H 0.39612 0.71672 0.27085 0.0
H1422 H 0.35682 0.71774 0.29758 0.0
H1423 H 0.35764 0.68506 0.29854 0.0
H1424 H 0.3741 0.74173 0.26662 0.0
H1425 H 0.3927 0.74902 0.31155 0.0
H1426 H 0.39225 0.72757 0.30464 0.0
H1427 H 0.37195 0.73729 0.31018 0.0
C1428 C 0.38731 0.69123 0.27701 0.0
C1429 C 0.37693 0.68207 0.28502 0.0
C1430 C 0.38743 0.70994 0.27679 0.0
C1431 C 0.37689 0.71979 0.28443 0.0
C1432 C 0.36565 0.71053 0.29194 0.0
H1433 H 0.35759 0.83463 0.27594 0.0
H1434 H 0.35603 0.80194 0.27495 0.0
C1435 C 0.36597 0.69186 0.2924 0.0
C1436 C 0.37786 0.73968 0.28462 0.0
H1437 H 0.38291 0.77547 0.30223 0.0
C1438 C 0.37618 0.7491 0.2744 0.0
C1439 C 0.38097 0.74937 0.29472 0.0
C1440 C 0.38478 0.74027 0.30585 0.0
C1441 C 0.37739 0.76786 0.274 0.0
C1442 C 0.37943 0.77758 0.2842 0.0
C1443 C 0.38116 0.76813 0.2944 0.0
C1444 C 0.3803 0.79748 0.28458 0.0
C1445 C 0.37707 0.77688 0.2626 0.0
C1446 C 0.39399 0.80597 0.29071 0.0
C1447 C 0.39443 0.82458 0.29167 0.0
C1448 C 0.38145 0.83513 0.2863 0.0
C1449 C 0.36789 0.82675 0.28004 0.0
C1450 C 0.36711 0.80808 0.27937 0.0
H1451 H 0.38168 0.76767 0.25582 0.0
H1452 H 0.36315 0.78087 0.26056 0.0
H1453 H 0.38567 0.78899 0.26247 0.0
H1454 H 0.40434 0.79818 0.29481 0.0
H1455 H 0.40506 0.83075 0.29652 0.0
H1456 H 0.43316 0.12517 0.51713 0.0
H1457 H 0.46578 0.12284 0.51565 0.0
H1458 H 0.47029 0.12757 0.55183 0.0
H1459 H 0.43785 0.12973 0.55343 0.0
H1460 H 0.4914 0.14795 0.52283 0.0
H1461 H 0.50038 0.08313 0.54481 0.0
H1462 H 0.47897 0.09056 0.53953 0.0
H1463 H 0.48735 0.0989 0.55276 0.0
C1464 C 0.44109 0.12559 0.52478 0.0
C1465 C 0.43287 0.12757 0.53541 0.0
C1466 C 0.45971 0.12426 0.52391 0.0
C1467 C 0.47041 0.12474 0.53365 0.0
C1468 C 0.46225 0.12678 0.54424 0.0
H1469 H 0.57971 0.13165 0.55368 0.0
H1470 H 0.54725 0.12968 0.5518 0.0
C1471 C 0.44369 0.12813 0.54512 0.0
C1472 C 0.49015 0.1239 0.53279 0.0
H1473 H 0.5266 0.10116 0.54257 0.0
C1474 C 0.49913 0.13759 0.52699 0.0
C1475 C 0.50016 0.11034 0.53823 0.0
C1476 C 0.49123 0.0948 0.54409 0.0
C1477 C 0.51789 0.13856 0.52694 0.0
C1478 C 0.52787 0.12533 0.53271 0.0
C1479 C 0.51889 0.11133 0.5382 0.0
C1480 C 0.54759 0.12627 0.53366 0.0
C1481 C 0.52687 0.15412 0.52113 0.0
C1482 C 0.55853 0.1248 0.52408 0.0
C1483 C 0.57714 0.12593 0.52511 0.0
C1484 C 0.58511 0.12849 0.53576 0.0
C1485 C 0.57405 0.12973 0.54534 0.0
C1486 C 0.55549 0.12858 0.5443 0.0
H1487 H 0.51724 0.16494 0.51901 0.0
H1488 H 0.5376 0.15979 0.52654 0.0
H1489 H 0.5331 0.14941 0.51316 0.0
H1490 H 0.55269 0.12273 0.51581 0.0
H1491 H 0.58526 0.12483 0.51756 0.0
H1492 H 0.93403 0.89283 0.01919 0.0
H1493 H 0.96677 0.89296 0.01819 0.0
H1494 H 0.96965 0.88472 0.05418 0.0
H1495 H 0.93706 0.8844 0.05529 0.0
H1496 H 0.99177 0.91541 0.02953 0.0
H1497 H 1.00044 0.844 0.04113 0.0
H1498 H 0.97924 0.85314 0.03663 0.0
H1499 H 0.98689 0.85646 0.05088 0.0
C1500 C 0.94162 0.89103 0.0269 0.0
C1501 C 0.9329 0.88847 0.03731 0.0
C1502 C 0.96032 0.89114 0.0263 0.0
C1503 C 0.97059 0.88855 0.03608 0.0
C1504 C 0.96195 0.88638 0.04651 0.0
H1505 H 0.08111 0.88394 0.05536 0.0
H1506 H 0.04854 0.88485 0.05411 0.0
C1507 C 0.9433 0.88628 0.04712 0.0
C1508 C 0.99037 0.88822 0.03547 0.0
H1509 H 0.02665 0.86206 0.04126 0.0
C1510 C 0.99943 0.90371 0.03199 0.0
C1511 C 1.00028 0.87291 0.03865 0.0
C1512 C 0.99124 0.85562 0.04193 0.0
C1513 C 0.01821 0.90451 0.03201 0.0
C1514 C 0.0281 0.88931 0.03544 0.0
C1515 C 0.01902 0.87371 0.03869 0.0
C1516 C 0.04789 0.88941 0.03607 0.0
C1517 C 0.0273 0.92177 0.02874 0.0
C1518 C 0.05833 0.8916 0.02632 0.0
C1519 C 0.07701 0.8911 0.02699 0.0
C1520 C 0.08557 0.8883 0.03744 0.0
C1521 C 0.07501 0.88614 0.04718 0.0
C1522 C 0.05637 0.88664 0.04649 0.0
H1523 H 0.01786 0.93325 0.02876 0.0
H1524 H 0.03852 0.9248 0.03458 0.0
H1525 H 0.03288 0.92042 0.0201 0.0
H1526 H 0.05203 0.89343 0.01816 0.0
H1527 H 0.08472 0.89274 0.01932 0.0
H1528 H 0.43328 0.89317 0.49159 0.0
H1529 H 0.4659 0.8955 0.49297 0.0
H1530 H 0.47021 0.89004 0.45682 0.0
H1531 H 0.43775 0.88786 0.45532 0.0
H1532 H 0.4915 0.87022 0.4859 0.0
H1533 H 0.50026 0.93469 0.46347 0.0
H1534 H 0.47889 0.92734 0.46886 0.0
H1535 H 0.48721 0.91875 0.45568 0.0
C1536 C 0.44116 0.89258 0.48393 0.0
C1537 C 0.43287 0.89039 0.47334 0.0
C1538 C 0.45978 0.89391 0.48474 0.0
C1539 C 0.47042 0.89324 0.47498 0.0
C1540 C 0.46221 0.89099 0.46443 0.0
H1541 H 0.57989 0.88651 0.45506 0.0
H1542 H 0.54742 0.88838 0.45687 0.0
C1543 C 0.44364 0.88963 0.4636 0.0
C1544 C 0.49017 0.89411 0.47578 0.0
H1545 H 0.52654 0.91683 0.46589 0.0
C1546 C 0.49919 0.88053 0.48167 0.0
C1547 C 0.50012 0.90761 0.47026 0.0
C1548 C 0.49114 0.92303 0.4643 0.0
C1549 C 0.51795 0.87963 0.48174 0.0
C1550 C 0.52789 0.89282 0.4759 0.0
C1551 C 0.51887 0.90669 0.47031 0.0
C1552 C 0.54762 0.89195 0.47499 0.0
C1553 C 0.52698 0.86419 0.48765 0.0
C1554 C 0.5585 0.89356 0.48459 0.0
C1555 C 0.57712 0.89248 0.48361 0.0
C1556 C 0.58517 0.88984 0.47298 0.0
C1557 C 0.57418 0.88849 0.46338 0.0
C1558 C 0.5556 0.88958 0.46438 0.0
H1559 H 0.5174 0.85334 0.48978 0.0
H1560 H 0.53781 0.85852 0.4823 0.0
H1561 H 0.53311 0.86903 0.49562 0.0
H1562 H 0.55259 0.89569 0.49284 0.0
H1563 H 0.58518 0.89367 0.49117 0.0
H1564 H 0.08073 0.13097 0.95473 0.0
H1565 H 0.0482 0.12928 0.95616 0.0
H1566 H 0.05229 0.12272 0.99224 0.0
H1567 H 0.08493 0.12459 0.99094 0.0
H1568 H 0.02691 0.10127 0.96504 0.0
H1569 H 0.01737 0.16504 0.98855 0.0
H1570 H 0.038 0.15961 0.98141 0.0
H1571 H 0.03277 0.14938 0.99472 0.0
C1572 C 0.07476 0.12919 0.96299 0.0
C1573 C 0.08547 0.12801 0.97273 0.0
C1574 C 0.05616 0.1282 0.96378 0.0
C1575 C 0.04785 0.1261 0.97431 0.0
C1576 C 0.05845 0.12466 0.98405 0.0
H1577 H 0.93353 0.12478 0.9905 0.0
H1578 H 0.96616 0.12266 0.99184 0.0
C1579 C 0.07709 0.12564 0.98328 0.0
C1580 C 0.02809 0.12534 0.975 0.0
H1581 H 0.99152 0.14804 0.9847 0.0
C1582 C 0.01916 0.11145 0.96937 0.0
C1583 C 0.01805 0.1386 0.98072 0.0
C1584 C 0.02696 0.1541 0.98663 0.0
C1585 C 1.00042 0.11054 0.96921 0.0
C1586 C 0.99037 0.12406 0.97465 0.0
C1587 C 0.99929 0.1377 0.98053 0.0
C1588 C 0.97061 0.12481 0.97384 0.0
C1589 C 0.99154 0.09508 0.96323 0.0
C1590 C 0.96236 0.12692 0.96329 0.0
C1591 C 0.94377 0.12815 0.96248 0.0
C1592 C 0.93304 0.12741 0.97224 0.0
C1593 C 0.94137 0.12535 0.98282 0.0
C1594 C 0.96001 0.12414 0.98361 0.0
H1595 H 1.00072 0.08345 0.96241 0.0
H1596 H 0.9793 0.09072 0.96778 0.0
H1597 H 0.98762 0.09933 0.9546 0.0
H1598 H 0.97033 0.12785 0.95567 0.0
H1599 H 0.93784 0.12981 0.9542 0.0
H1600 H 0.16158 0.44672 0.97323 0.0
H1601 H 0.16555 0.47792 0.97908 0.0
H1602 H 0.16178 0.46207 0.014 0.0
H1603 H 0.15786 0.4309 0.00825 0.0
H1604 H 0.14003 0.49729 0.99172 0.0
H1605 H 0.20531 0.49579 0.01397 0.0
H1606 H 0.19838 0.47839 1.00432 0.0
H1607 H 0.1897 0.47896 0.01847 0.0
C1608 C 0.16196 0.4498 0.98216 0.0
C1609 C 0.15942 0.43625 0.99026 0.0
C1610 C 0.16417 0.46768 0.9855 0.0
C1611 C 0.16413 0.47237 0.99699 0.0
C1612 C 0.16219 0.45879 0.0051 0.0
H1613 H 0.15973 0.57126 0.03568 0.0
H1614 H 0.16317 0.5403 0.02919 0.0
C1615 C 0.15987 0.44094 1.00178 0.0
C1616 C 0.16457 0.49155 1.00048 0.0
H1617 H 0.18772 0.52211 0.01627 0.0
C1618 C 0.15056 0.50276 0.99699 0.0
C1619 C 0.17819 0.49865 0.00747 0.0
C1620 C 0.19385 0.48739 0.01122 0.0
C1621 C 0.14954 0.52072 1.0005 0.0
C1622 C 0.16319 0.52789 0.00747 0.0
C1623 C 0.17728 0.51668 0.01091 0.0
C1624 C 0.16283 0.54689 0.0114 0.0
C1625 C 0.13345 0.53163 0.99703 0.0
C1626 C 0.16216 0.56104 1.00359 0.0
C1627 C 0.16008 0.57873 0.00727 0.0
C1628 C 0.15889 0.58275 0.01886 0.0
C1629 C 0.16059 0.56867 0.02669 0.0
C1630 C 0.16254 0.55093 0.02299 0.0
H1631 H 0.12205 0.52297 0.99451 0.0
H1632 H 0.12898 0.54054 1.00398 0.0
H1633 H 0.13703 0.54006 0.98966 0.0
H1634 H 0.16286 0.55837 0.99461 0.0
H1635 H 0.15897 0.58923 1.001 0.0
H1636 H 0.83701 0.9073 0.25762 0.0
H1637 H 0.80572 0.91118 0.26319 0.0
H1638 H 0.79069 0.91679 0.22823 0.0
H1639 H 0.82197 0.91281 0.22255 0.0
H1640 H 0.77962 0.93889 0.25891 0.0
H1641 H 0.76085 0.87373 0.23963 0.0
H1642 H 0.7838 0.87996 0.24222 0.0
H1643 H 0.77198 0.88918 0.23037 0.0
C1644 C 0.8271 0.9096 0.2511 0.0
C1645 C 0.83203 0.90962 0.23962 0.0
C1646 C 0.8092 0.91182 0.25431 0.0
C1647 C 0.7958 0.91398 0.24613 0.0
C1648 C 0.80076 0.91485 0.23469 0.0
H1649 H 0.67948 0.90888 0.2503 0.0
H1650 H 0.71033 0.9132 0.24402 0.0
C1651 C 0.81868 0.91269 0.23146 0.0
C1652 C 0.7766 0.9144 0.24954 0.0
H1653 H 0.73759 0.89079 0.24761 0.0
C1654 C 0.7704 0.92841 0.25643 0.0
C1655 C 0.76458 0.9007 0.24633 0.0
C1656 C 0.77059 0.88494 0.23931 0.0
C1657 C 0.75245 0.92919 0.26005 0.0
C1658 C 0.74046 0.91537 0.25692 0.0
C1659 C 0.7467 0.90143 0.24999 0.0
C1660 C 0.72147 0.91478 0.26086 0.0
C1661 C 0.74647 0.94501 0.26701 0.0
C1662 C 0.71729 0.91446 0.27244 0.0
C1663 C 0.69957 0.91214 0.27607 0.0
C1664 C 0.68566 0.90985 0.2682 0.0
C1665 C 0.68982 0.91063 0.25661 0.0
C1666 C 0.7075 0.91305 0.253 0.0
H1667 H 0.75533 0.95675 0.26571 0.0
H1668 H 0.73253 0.94893 0.26492 0.0
H1669 H 0.747 0.94139 0.27609 0.0
H1670 H 0.7278 0.91532 0.27871 0.0
H1671 H 0.69689 0.91142 0.28505 0.0
H1672 H 0.35854 0.42917 0.50091 0.0
H1673 H 0.35451 0.46 0.49449 0.0
H1674 H 0.35438 0.47819 0.52905 0.0
H1675 H 0.35799 0.44726 0.53556 0.0
H1676 H 0.32956 0.49621 0.51604 0.0
H1677 H 0.39538 0.4955 0.49439 0.0
H1678 H 0.38046 0.47831 0.4896 0.0
H1679 H 0.38849 0.47799 0.50393 0.0
C1680 C 0.35744 0.43968 0.50717 0.0
C1681 C 0.35874 0.43571 0.51876 0.0
C1682 C 0.35527 0.45735 0.50347 0.0
C1683 C 0.35461 0.47153 0.51126 0.0
C1684 C 0.355 0.46753 0.52286 0.0
H1685 H 0.359 0.58748 0.50823 0.0
H1686 H 0.35502 0.55629 0.5139 0.0
C1687 C 0.35704 0.44981 0.52658 0.0
C1688 C 0.35418 0.4905 0.50731 0.0
H1689 H 0.37738 0.52116 0.49163 0.0
C1690 C 0.34003 0.50166 0.51071 0.0
C1691 C 0.36787 0.49771 0.50038 0.0
C1692 C 0.384 0.48683 0.49694 0.0
C1693 C 0.33908 0.51968 0.50725 0.0
C1694 C 0.35274 0.52683 0.50031 0.0
C1695 C 0.36682 0.51566 0.49687 0.0
C1696 C 0.35318 0.54602 0.49686 0.0
C1697 C 0.32333 0.53087 0.51094 0.0
C1698 C 0.35346 0.55075 0.48537 0.0
C1699 C 0.35573 0.56864 0.48208 0.0
C1700 C 0.35799 0.58218 0.49022 0.0
C1701 C 0.35721 0.57745 0.50172 0.0
C1702 C 0.35485 0.55959 0.505 0.0
H1703 H 0.31183 0.52241 0.51355 0.0
H1704 H 0.3273 0.53919 0.51828 0.0
H1705 H 0.31892 0.53996 0.50406 0.0
H1706 H 0.35231 0.54052 0.47892 0.0
H1707 H 0.35637 0.57175 0.47315 0.0
H1708 H 0.82252 0.10662 0.78617 0.0
H1709 H 0.79127 0.10263 0.78044 0.0
H1710 H 0.80694 0.10509 0.74544 0.0
H1711 H 0.83816 0.10905 0.75107 0.0
H1712 H 0.77211 0.12799 0.7674 0.0
H1713 H 0.77286 0.06173 0.74625 0.0
H1714 H 0.7903 0.06885 0.75581 0.0
H1715 H 0.78986 0.07698 0.74153 0.0
C1716 C 0.81939 0.10594 0.77725 0.0
C1717 C 0.8329 0.10813 0.76908 0.0
C1718 C 0.80149 0.10372 0.77398 0.0
C1719 C 0.79674 0.10339 0.7625 0.0
C1720 C 0.81027 0.10497 0.75434 0.0
H1721 H 0.69772 0.10699 0.724 0.0
H1722 H 0.72867 0.1035 0.73047 0.0
C1723 C 0.82815 0.10731 0.75759 0.0
C1724 C 0.77755 0.10299 0.75907 0.0
H1725 H 0.74668 0.07944 0.74377 0.0
C1726 C 0.76651 0.11728 0.76233 0.0
C1727 C 0.77028 0.08913 0.75234 0.0
C1728 C 0.78136 0.07321 0.74884 0.0
C1729 C 0.74855 0.11833 0.75884 0.0
C1730 C 0.7412 0.10443 0.75215 0.0
C1731 C 0.75224 0.09007 0.74893 0.0
C1732 C 0.72219 0.10481 0.74826 0.0
C1733 C 0.73784 0.1347 0.76205 0.0
C1734 C 0.70811 0.10604 0.75609 0.0
C1735 C 0.69043 0.10816 0.75241 0.0
C1736 C 0.68636 0.10882 0.74081 0.0
C1737 C 0.70035 0.10654 0.73299 0.0
C1738 C 0.71808 0.10457 0.73668 0.0
H1739 H 0.74663 0.14613 0.76432 0.0
H1740 H 0.72892 0.13893 0.75504 0.0
H1741 H 0.72944 0.13157 0.76951 0.0
H1742 H 0.71083 0.10575 0.76507 0.0
H1743 H 0.67999 0.10971 0.75868 0.0
H1744 H 0.86019 0.58877 1.00074 0.0
H1745 H 0.85592 0.55793 0.99443 0.0
H1746 H 0.8538 0.54036 0.0291 0.0
H1747 H 0.85764 0.57127 0.03547 0.0
H1748 H 0.87829 0.53064 0.99797 0.0
H1749 H 0.81237 0.51286 0.0161 0.0
H1750 H 0.8202 0.53567 0.01533 0.0
H1751 H 0.82774 0.52115 0.02649 0.0
C1752 C 0.85846 0.57841 0.00704 0.0
C1753 C 0.85921 0.58255 0.01863 0.0
C1754 C 0.85606 0.56073 1.00341 0.0
C1755 C 0.85433 0.54674 0.01126 0.0
C1756 C 0.85465 0.55089 0.02284 0.0
H1757 H 0.86172 0.43114 0.00787 0.0
H1758 H 0.85793 0.46244 0.01349 0.0
C1759 C 0.85694 0.56861 0.02649 0.0
C1760 C 0.85373 0.52775 0.0073 0.0
H1761 H 0.83021 0.48857 0.00927 0.0
C1762 C 0.86765 0.52152 1.00035 0.0
C1763 C 0.83992 0.51574 0.01043 0.0
C1764 C 0.82412 0.52172 0.01741 0.0
C1765 C 0.86837 0.50365 0.99667 0.0
C1766 C 0.85467 0.49161 0.99988 0.0
C1767 C 0.84069 0.4978 0.00679 0.0
C1768 C 0.85507 0.47242 0.99644 0.0
C1769 C 0.8841 0.49764 0.98963 0.0
C1770 C 0.85415 0.4675 0.985 0.0
C1771 C 0.85626 0.44957 0.98175 0.0
C1772 C 0.85933 0.43618 0.98988 0.0
C1773 C 0.85942 0.44108 1.00137 0.0
C1774 C 0.85725 0.45898 1.00461 0.0
H1775 H 0.89531 0.50739 0.98994 0.0
H1776 H 0.88909 0.48442 0.99252 0.0
H1777 H 0.87983 0.49628 0.98069 0.0
H1778 H 0.8522 0.47759 0.97856 0.0
H1779 H 0.85608 0.44631 0.97284 0.0
H1780 H 0.19693 0.10529 0.78605 0.0
H1781 H 0.22811 0.10121 0.78018 0.0
H1782 H 0.21288 0.10896 0.74542 0.0
H1783 H 0.18169 0.1129 0.75118 0.0
H1784 H 0.23841 0.0809 0.74874 0.0
H1785 H 0.25881 0.14406 0.76989 0.0
H1786 H 0.24762 0.12815 0.7788 0.0
H1787 H 0.23569 0.13844 0.76734 0.0
C1788 C 0.20015 0.10588 0.77714 0.0
C1789 C 0.18677 0.10955 0.7691 0.0
C1790 C 0.21802 0.10367 0.7738 0.0
C1791 C 0.22291 0.1051 0.76237 0.0
C1792 C 0.20947 0.10789 0.75429 0.0
H1793 H 0.3214 0.10896 0.72313 0.0
H1794 H 0.29051 0.10509 0.7295 0.0
C1795 C 0.19161 0.11015 0.75761 0.0
C1796 C 0.24207 0.10452 0.75887 0.0
H1797 H 0.28166 0.12704 0.76139 0.0
C1798 C 0.24789 0.09096 0.75152 0.0
C1799 C 0.25445 0.11768 0.76247 0.0
C1800 C 0.24887 0.13301 0.76998 0.0
C1801 C 0.26578 0.09006 0.74779 0.0
C1802 C 0.27812 0.10332 0.75131 0.0
C1803 C 0.27228 0.11681 0.75871 0.0
C1804 C 0.29707 0.10382 0.74729 0.0
C1805 C 0.27133 0.07473 0.74028 0.0
C1806 C 0.31118 0.10448 0.75512 0.0
C1807 C 0.32886 0.10686 0.7515 0.0
C1808 C 0.33289 0.10869 0.73995 0.0
C1809 C 0.31883 0.10742 0.73208 0.0
C1810 C 0.30112 0.10513 0.73572 0.0
H1811 H 0.26218 0.0631 0.7412 0.0
H1812 H 0.27084 0.07913 0.73134 0.0
H1813 H 0.28518 0.07029 0.7422 0.0
H1814 H 0.30846 0.10355 0.76409 0.0
H1815 H 0.33931 0.10781 0.75781 0.0
H1816 H 0.65809 0.42963 0.50025 0.0
H1817 H 0.66236 0.46058 0.49417 0.0
H1818 H 0.66467 0.4775 0.52896 0.0
H1819 H 0.6608 0.44647 0.53511 0.0
H1820 H 0.63994 0.48787 0.49807 0.0
H1821 H 0.70615 0.50512 0.51597 0.0
H1822 H 0.69827 0.48234 0.51501 0.0
H1823 H 0.69087 0.49659 0.52634 0.0
C1824 C 0.65986 0.43987 0.50662 0.0
C1825 C 0.65914 0.43551 0.51818 0.0
C1826 C 0.66226 0.45761 0.50313 0.0
C1827 C 0.66403 0.47145 0.51108 0.0
C1828 C 0.66377 0.46708 0.52263 0.0
H1829 H 0.65735 0.58715 0.50866 0.0
H1830 H 0.66112 0.55574 0.51398 0.0
C1831 C 0.66147 0.4493 0.52614 0.0
C1832 C 0.66464 0.49051 0.50727 0.0
H1833 H 0.68834 0.52956 0.50937 0.0
C1834 C 0.65064 0.49691 0.50045 0.0
C1835 C 0.67854 0.5024 0.5104 0.0
C1836 C 0.6944 0.49624 0.51724 0.0
C1837 C 0.64992 0.51486 0.49691 0.0
C1838 C 0.66372 0.52679 0.50012 0.0
C1839 C 0.67778 0.52042 0.50689 0.0
C1840 C 0.66334 0.54604 0.49683 0.0
C1841 C 0.63408 0.52104 0.49004 0.0
C1842 C 0.66393 0.55118 0.48542 0.0
C1843 C 0.66182 0.56918 0.48233 0.0
C1844 C 0.65909 0.58243 0.4906 0.0
C1845 C 0.65937 0.57733 0.50205 0.0
C1846 C 0.66153 0.55935 0.50513 0.0
H1847 H 0.62281 0.51137 0.49042 0.0
H1848 H 0.62925 0.53427 0.49303 0.0
H1849 H 0.63816 0.52246 0.48107 0.0
H1850 H 0.66561 0.5412 0.47887 0.0
H1851 H 0.66172 0.5726 0.47344 0.0
H1852 H 0.19735 0.91019 0.22422 0.0
H1853 H 0.22826 0.91372 0.23075 0.0
H1854 H 0.20996 0.91427 0.26528 0.0
H1855 H 0.17915 0.91029 0.25886 0.0
H1856 H 0.24643 0.93852 0.24353 0.0
H1857 H 0.24516 0.87321 0.26577 0.0
H1858 H 0.2277 0.88005 0.2562 0.0
H1859 H 0.22812 0.8884 0.27045 0.0
C1860 C 0.19987 0.91128 0.2332 0.0
C1861 C 0.18575 0.90977 0.24101 0.0
C1862 C 0.21758 0.91327 0.23693 0.0
C1863 C 0.22154 0.91382 0.24853 0.0
C1864 C 0.20735 0.91337 0.25631 0.0
H1865 H 0.32181 0.91221 0.2866 0.0
H1866 H 0.29061 0.91646 0.28082 0.0
C1867 C 0.18968 0.91124 0.2526 0.0
C1868 C 0.2405 0.91417 0.25249 0.0
H1869 H 0.27095 0.89105 0.26839 0.0
C1870 C 0.25179 0.92813 0.24896 0.0
C1871 C 0.24759 0.90057 0.25955 0.0
C1872 C 0.23659 0.88462 0.26314 0.0
C1873 C 0.26982 0.92898 0.2524 0.0
C1874 C 0.27684 0.91541 0.25947 0.0
C1875 C 0.26554 0.90153 0.26305 0.0
C1876 C 0.29602 0.91485 0.2629 0.0
C1877 C 0.28116 0.94451 0.24854 0.0
C1878 C 0.30952 0.9127 0.25476 0.0
C1879 C 0.32736 0.91022 0.25804 0.0
C1880 C 0.33213 0.90981 0.26954 0.0
C1881 C 0.31866 0.91256 0.27767 0.0
C1882 C 0.30079 0.91494 0.27438 0.0
H1883 H 0.27283 0.95601 0.24577 0.0
H1884 H 0.29025 0.94903 0.25538 0.0
H1885 H 0.28948 0.94022 0.24127 0.0
H1886 H 0.30618 0.91225 0.24587 0.0
H1887 H 0.33734 0.90806 0.25154 0.0
H1888 H 0.66085 0.0713 0.5353 0.0
H1889 H 0.66473 0.04037 0.52895 0.0
H1890 H 0.6632 0.05795 0.49427 0.0
H1891 H 0.65891 0.08881 0.50056 0.0
H1892 H 0.64057 0.03074 0.49777 0.0
H1893 H 0.7063 0.01272 0.51609 0.0
H1894 H 0.69085 0.02114 0.5264 0.0
H1895 H 0.69857 0.03557 0.51525 0.0
C1896 C 0.6617 0.06864 0.52632 0.0
C1897 C 0.65958 0.08259 0.51845 0.0
C1898 C 0.664 0.05091 0.52269 0.0
C1899 C 0.66448 0.04675 0.51111 0.0
C1900 C 0.66293 0.06076 0.50325 0.0
H1901 H 0.66245 0.94634 0.47266 0.0
H1902 H 0.66637 0.97762 0.47837 0.0
C1903 C 0.66053 0.07845 0.50687 0.0
C1904 C 0.66506 0.02777 0.50716 0.0
H1905 H 0.68849 0.98852 0.50915 0.0
C1906 C 0.65118 0.02159 0.50017 0.0
C1907 C 0.67883 0.01572 0.51031 0.0
C1908 C 0.69457 0.02164 0.51734 0.0
C1909 C 0.65043 1.00371 0.49648 0.0
C1910 C 0.66409 0.99163 0.49972 0.0
C1911 C 0.67804 0.99778 0.50665 0.0
C1912 C 0.66368 0.97244 0.49627 0.0
C1913 C 0.63471 0.99776 0.48943 0.0
C1914 C 0.66162 0.959 0.50444 0.0
C1915 C 0.65945 0.94109 0.50121 0.0
C1916 C 0.65941 0.9362 0.48972 0.0
C1917 C 0.66237 0.94959 0.48158 0.0
C1918 C 0.6645 0.96752 0.48482 0.0
H1919 H 0.62349 1.0075 0.48979 0.0
H1920 H 0.63898 0.99649 0.48049 0.0
H1921 H 0.62974 0.98451 0.49228 0.0
H1922 H 0.66104 0.96244 0.51332 0.0
H1923 H 0.65724 0.93115 0.50772 0.0
H1924 H 0.17822 0.40906 0.75098 0.0
H1925 H 0.20905 0.41327 0.74462 0.0
H1926 H 0.22685 0.41501 0.77924 0.0
H1927 H 0.19593 0.41121 0.78569 0.0
H1928 H 0.24462 0.43959 0.76589 0.0
H1929 H 0.24516 0.3729 0.74532 0.0
H1930 H 0.22779 0.38738 0.74023 0.0
H1931 H 0.22746 0.37991 0.75468 0.0
C1932 C 0.18865 0.41055 0.75726 0.0
C1933 C 0.18458 0.40964 0.76886 0.0
C1934 C 0.20632 0.41282 0.7536 0.0
C1935 C 0.22039 0.41399 0.76143 0.0
C1936 C 0.21627 0.41399 0.77302 0.0
H1937 H 0.3364 0.41122 0.75886 0.0
H1938 H 0.30511 0.41502 0.76437 0.0
C1939 C 0.19856 0.41184 0.7767 0.0
C1940 C 0.23939 0.41454 0.75755 0.0
H1941 H 0.27055 0.39117 0.74236 0.0
C1942 C 0.25029 0.429 0.76076 0.0
C1943 C 0.24688 0.40068 0.75087 0.0
C1944 C 0.23629 0.38425 0.74765 0.0
C1945 C 0.26832 0.43008 0.75735 0.0
C1946 C 0.27575 0.41624 0.75065 0.0
C1947 C 0.26484 0.40185 0.74741 0.0
C1948 C 0.29497 0.41595 0.74726 0.0
C1949 C 0.27921 0.44615 0.76081 0.0
C1950 C 0.2998 0.41523 0.7358 0.0
C1951 C 0.31774 0.41306 0.7326 0.0
C1952 C 0.33123 0.41134 0.74082 0.0
C1953 C 0.3264 0.41259 0.75229 0.0
C1954 C 0.30849 0.41485 0.75547 0.0
H1955 H 0.27055 0.45763 0.7632 0.0
H1956 H 0.28751 0.4426 0.76825 0.0
H1957 H 0.28831 0.45041 0.7539 0.0
H1958 H 0.28961 0.41596 0.72931 0.0
H1959 H 0.32093 0.41205 0.7237 0.0
H1960 H 0.86205 0.93104 1.0012 0.0
H1961 H 0.85813 0.96231 0.99558 0.0
H1962 H 0.8519 0.97744 0.03048 0.0
H1963 H 0.8559 0.94618 0.03622 0.0
H1964 H 0.8302 0.98823 0.99966 0.0
H1965 H 0.8949 1.00756 0.0193 0.0
H1966 H 0.88887 0.98454 0.0167 0.0
H1967 H 0.87938 0.99635 0.02848 0.0
C1968 C 0.85962 0.94096 0.0077 0.0
C1969 C 0.85941 0.93607 0.01918 0.0
C1970 C 0.85737 0.95885 1.00445 0.0
C1971 C 0.85501 0.97228 0.01261 0.0
C1972 C 0.85399 0.96735 0.02405 0.0
H1973 H 0.85946 0.08866 0.00825 0.0
H1974 H 0.8552 0.05782 0.01458 0.0
C1975 C 0.85617 0.94944 0.0273 0.0
C1976 C 0.85451 0.99146 0.00916 0.0
H1977 H 0.8778 0.03067 0.01118 0.0
C1978 C 0.84057 0.99754 1.00219 0.0
C1979 C 0.86807 1.00361 0.01245 0.0
C1980 C 0.88376 0.99773 0.01957 0.0
C1981 C 0.83972 0.01547 0.99854 0.0
C1982 C 0.8534 0.02759 1.00173 0.0
C1983 C 0.86727 0.02147 0.00875 0.0
C1984 C 0.85393 0.04656 0.99775 0.0
C1985 C 0.82397 0.02132 0.99148 0.0
C1986 C 0.85439 0.05068 0.98617 0.0
C1987 C 0.85667 0.06839 0.98251 0.0
C1988 C 0.85879 0.08237 0.99037 0.0
C1989 C 0.85785 0.07827 1.00196 0.0
C1990 C 0.85546 0.06059 0.0056 0.0
H1991 H 0.81227 0.01238 0.99273 0.0
H1992 H 0.81993 0.03525 0.99352 0.0
H1993 H 0.82772 0.02075 0.98242 0.0
H1994 H 0.85369 0.04012 0.97992 0.0
H1995 H 0.85752 0.07102 0.97353 0.0
H1996 H 0.33887 0.6076 0.25047 0.0
H1997 H 0.30795 0.60377 0.24421 0.0
H1998 H 0.28997 0.60588 0.27878 0.0
H1999 H 0.32097 0.60932 0.28515 0.0
H2000 H 0.27158 0.58054 0.26633 0.0
H2001 H 0.273 0.64518 0.24332 0.0
H2002 H 0.28997 0.62976 0.23884 0.0
H2003 H 0.29044 0.63858 0.25297 0.0
C2004 C 0.32838 0.60705 0.25677 0.0
C2005 C 0.33244 0.60892 0.26832 0.0
C2006 C 0.31066 0.60499 0.25316 0.0
C2007 C 0.29653 0.605 0.26099 0.0
C2008 C 0.3006 0.60598 0.27256 0.0
H2009 H 0.18062 0.61053 0.25821 0.0
H2010 H 0.21181 0.60649 0.26386 0.0
C2011 C 0.31836 0.60793 0.2762 0.0
C2012 C 0.27753 0.60463 0.25709 0.0
H2013 H 0.24708 0.62744 0.24104 0.0
C2014 C 0.26622 0.5908 0.26081 0.0
C2015 C 0.27046 0.61805 0.24991 0.0
C2016 C 0.28152 0.63383 0.2461 0.0
C2017 C 0.24817 0.58992 0.25742 0.0
C2018 C 0.24114 0.60333 0.25023 0.0
C2019 C 0.25248 0.61708 0.24647 0.0
C2020 C 0.22194 0.60386 0.24682 0.0
C2021 C 0.23683 0.5745 0.26144 0.0
C2022 C 0.21713 0.60373 0.23534 0.0
C2023 C 0.19925 0.60604 0.23207 0.0
C2024 C 0.18579 0.60875 0.24021 0.0
C2025 C 0.19059 0.60838 0.2517 0.0
C2026 C 0.20845 0.60599 0.25496 0.0
H2027 H 0.24517 0.56299 0.2642 0.0
H2028 H 0.22868 0.57892 0.26876 0.0
H2029 H 0.22758 0.56991 0.2547 0.0
H2030 H 0.2273 0.60221 0.22889 0.0
H2031 H 0.19609 0.60636 0.22314 0.0
H2032 H 0.35869 0.08879 0.50028 0.0
H2033 H 0.35436 0.05788 0.49412 0.0
H2034 H 0.35318 0.04061 0.52886 0.0
H2035 H 0.35712 0.07158 0.53509 0.0
H2036 H 0.37707 0.03072 0.49763 0.0
H2037 H 0.31154 0.01279 0.51627 0.0
H2038 H 0.31922 0.03564 0.51531 0.0
H2039 H 0.32706 0.02134 0.52649 0.0
C2040 C 0.35714 0.07848 0.50663 0.0
C2041 C 0.35822 0.08273 0.5182 0.0
C2042 C 0.35471 0.06077 0.50309 0.0
C2043 C 0.35325 0.04683 0.511 0.0
C2044 C 0.35384 0.05109 0.52257 0.0
H2045 H 0.36079 0.93123 0.50818 0.0
H2046 H 0.35689 0.96258 0.51362 0.0
C2047 C 0.35618 0.06885 0.52613 0.0
C2048 C 0.35267 0.02781 0.50712 0.0
H2049 H 0.32938 0.98854 0.50939 0.0
C2050 C 0.36651 0.02157 0.50011 0.0
C2051 C 0.33897 0.01577 0.51038 0.0
C2052 C 0.32326 0.02174 0.51744 0.0
C2053 C 0.36728 1.00365 0.49651 0.0
C2054 C 0.35369 0.99158 0.49986 0.0
C2055 C 0.33977 0.99779 0.50681 0.0
C2056 C 0.35414 0.97234 0.49651 0.0
C2057 C 0.38297 0.99765 0.48943 0.0
C2058 C 0.3533 0.96726 0.4851 0.0
C2059 C 0.35549 0.94929 0.48195 0.0
C2060 C 0.35853 0.93602 0.49016 0.0
C2061 C 0.35851 0.94107 0.50162 0.0
C2062 C 0.35628 0.95901 0.50476 0.0
H2063 H 0.39417 1.00742 0.48971 0.0
H2064 H 0.388 0.98444 0.49232 0.0
H2065 H 0.37864 0.99627 0.48051 0.0
H2066 H 0.35137 0.97726 0.47859 0.0
H2067 H 0.35539 0.94591 0.47305 0.0
H2068 H 0.679 0.60954 0.2515 0.0
H2069 H 0.70981 0.60523 0.24515 0.0
H2070 H 0.72762 0.60404 0.27978 0.0
H2071 H 0.69675 0.60793 0.2862 0.0
H2072 H 0.73701 0.6278 0.24838 0.0
H2073 H 0.75525 0.56241 0.26711 0.0
H2074 H 0.7324 0.57012 0.26632 0.0
H2075 H 0.74695 0.57801 0.27736 0.0
C2076 C 0.68941 0.608 0.25779 0.0
C2077 C 0.68534 0.60903 0.26938 0.0
C2078 C 0.70707 0.60558 0.25413 0.0
C2079 C 0.72113 0.60411 0.26195 0.0
C2080 C 0.71704 0.6047 0.27355 0.0
H2081 H 0.83664 0.61179 0.25825 0.0
H2082 H 0.8054 0.60799 0.26395 0.0
C2083 C 0.69934 0.60701 0.27722 0.0
C2084 C 0.74008 0.60349 0.25795 0.0
H2085 H 0.77939 0.5802 0.26005 0.0
C2086 C 0.7462 0.61726 0.25084 0.0
C2087 C 0.75218 0.58981 0.26118 0.0
C2088 C 0.74634 0.57416 0.26832 0.0
C2089 C 0.76405 0.61798 0.24711 0.0
C2090 C 0.77618 0.60441 0.25043 0.0
C2091 C 0.7701 0.59057 0.25748 0.0
C2092 C 0.79535 0.60482 0.24695 0.0
C2093 C 0.76992 0.63357 0.23991 0.0
C2094 C 0.80023 0.60371 0.2355 0.0
C2095 C 0.81813 0.60582 0.2322 0.0
C2096 C 0.83154 0.60908 0.24029 0.0
C2097 C 0.8267 0.60934 0.25178 0.0
C2098 C 0.80881 0.60717 0.25507 0.0
H2099 H 0.76013 0.64476 0.24017 0.0
H2100 H 0.78314 0.63867 0.24272 0.0
H2101 H 0.77122 0.6291 0.23101 0.0
H2102 H 0.79011 0.60161 0.22909 0.0
H2103 H 0.82134 0.60551 0.22328 0.0
H2104 H 0.15795 0.92937 1.00097 0.0
H2105 H 0.16223 0.96022 0.99468 0.0
H2106 H 0.16475 0.97768 0.02936 0.0
H2107 H 0.1609 0.94676 0.03571 0.0
H2108 H 0.13999 0.98759 0.99835 0.0
H2109 H 0.20616 1.00506 0.01622 0.0
H2110 H 0.19823 0.98228 0.01545 0.0
H2111 H 0.19084 0.9968 0.02666 0.0
C2112 C 0.15977 0.93971 0.00727 0.0
C2113 C 0.15913 0.93553 0.01886 0.0
C2114 C 0.16217 0.95739 1.00366 0.0
C2115 C 0.16401 0.97136 0.01152 0.0
C2116 C 0.1638 0.96717 0.0231 0.0
H2117 H 0.1572 0.08703 0.00817 0.0
H2118 H 0.16088 0.05573 0.01378 0.0
C2119 C 0.16151 0.94944 0.02673 0.0
C2120 C 0.16465 0.99035 0.00758 0.0
H2121 H 0.18838 0.02942 0.00946 0.0
C2122 C 0.1507 0.99666 1.00069 0.0
C2123 C 0.17855 1.0023 0.01065 0.0
C2124 C 0.19438 0.99624 0.01756 0.0
C2125 C 0.15003 0.01454 0.99701 0.0
C2126 C 0.16381 0.02651 1.00017 0.0
C2127 C 0.17783 0.02025 0.00702 0.0
C2128 C 0.16349 0.0457 0.99673 0.0
C2129 C 0.13426 0.02062 0.99004 0.0
C2130 C 0.16431 0.0506 0.98528 0.0
C2131 C 0.16227 0.06854 0.98203 0.0
C2132 C 0.15935 0.08196 0.99017 0.0
C2133 C 0.15937 0.07708 1.00166 0.0
C2134 C 0.16148 0.05916 0.0049 0.0
H2135 H 0.12299 0.01094 0.99041 0.0
H2136 H 0.12938 0.03388 0.99295 0.0
H2137 H 0.13844 0.02194 0.98109 0.0
H2138 H 0.16613 0.04049 0.97883 0.0
H2139 H 0.16235 0.07178 0.97311 0.0
H2140 H 0.83745 0.40779 0.75002 0.0
H2141 H 0.80658 0.41192 0.74374 0.0
H2142 H 0.78902 0.41354 0.77842 0.0
H2143 H 0.81995 0.40984 0.78477 0.0
H2144 H 0.77945 0.38935 0.74718 0.0
H2145 H 0.76122 0.45495 0.76564 0.0
H2146 H 0.78408 0.44726 0.76482 0.0
H2147 H 0.76962 0.4395 0.77595 0.0
C2148 C 0.82708 0.40939 0.75633 0.0
C2149 C 0.83124 0.40853 0.76791 0.0
C2150 C 0.80939 0.4117 0.75272 0.0
C2151 C 0.79539 0.41324 0.76058 0.0
C2152 C 0.79955 0.41283 0.77216 0.0
H2153 H 0.67985 0.40537 0.75728 0.0
H2154 H 0.71113 0.40918 0.76287 0.0
C2155 C 0.81729 0.41063 0.77579 0.0
C2156 C 0.7764 0.41378 0.75664 0.0
H2157 H 0.73706 0.43702 0.75875 0.0
C2158 C 0.77026 0.3999 0.74962 0.0
C2159 C 0.7643 0.42748 0.75984 0.0
C2160 C 0.77016 0.44323 0.76689 0.0
C2161 C 0.75239 0.39911 0.74595 0.0
C2162 C 0.74025 0.41269 0.74924 0.0
C2163 C 0.74636 0.42663 0.75621 0.0
C2164 C 0.72106 0.41222 0.74582 0.0
C2165 C 0.74649 0.38342 0.73884 0.0
C2166 C 0.71611 0.41323 0.73439 0.0
C2167 C 0.69818 0.41111 0.73115 0.0
C2168 C 0.68482 0.40794 0.73929 0.0
C2169 C 0.68975 0.40774 0.75077 0.0
C2170 C 0.70766 0.40992 0.754 0.0
H2171 H 0.75631 0.37226 0.7391 0.0
H2172 H 0.7333 0.37833 0.74171 0.0
H2173 H 0.7451 0.38779 0.72992 0.0
H2174 H 0.72617 0.41527 0.72794 0.0
H2175 H 0.6949 0.41137 0.72225 0.0
H2176 H 0.16657 0.82854 0.05081 0.0
H2177 H 0.17208 0.79679 0.04778 0.0
H2178 H 0.16606 0.80411 0.01186 0.0
H2179 H 0.1603 0.83613 0.01485 0.0
H2180 H 0.14509 0.77681 0.02019 0.0
H2181 H 0.21414 0.76828 0.03587 0.0
H2182 H 0.20035 0.77988 0.04587 0.0
H2183 H 0.20496 0.78994 0.03236 0.0
C2184 C 0.16676 0.82354 0.04223 0.0
C2185 C 0.16298 0.83497 0.03308 0.0
C2186 C 0.17004 0.80532 0.0405 0.0
C2187 C 0.16973 0.79801 0.02958 0.0
C2188 C 0.16652 0.80945 0.02037 0.0
H2189 H 0.16143 0.6818 0.01487 0.0
H2190 H 0.16697 0.71382 0.01174 0.0
C2191 C 0.16331 0.82778 0.02208 0.0
C2192 C 0.171 0.77823 0.02805 0.0
H2193 H 0.19577 0.7417 0.03567 0.0
C2194 C 0.15634 0.76913 0.02334 0.0
C2195 C 0.18566 0.76817 0.03217 0.0
C2196 C 0.20224 0.77709 0.03674 0.0
C2197 C 0.15546 0.75031 0.0233 0.0
C2198 C 0.16976 0.74026 0.02792 0.0
C2199 C 0.18478 0.74936 0.03215 0.0
C2200 C 0.16855 0.72049 0.02951 0.0
C2201 C 0.13874 0.74138 0.01892 0.0
C2202 C 0.16845 0.71342 0.04048 0.0
C2203 C 0.16542 0.69519 0.04229 0.0
C2204 C 0.16249 0.68348 0.03315 0.0
C2205 C 0.1636 0.6904 0.02211 0.0
C2206 C 0.1666 0.70874 0.02031 0.0
H2207 H 0.12767 0.75108 0.01758 0.0
H2208 H 0.1417 0.73485 0.01071 0.0
H2209 H 0.13409 0.73089 0.02488 0.0
H2210 H 0.17002 0.72217 0.04772 0.0
H2211 H 0.16478 0.69038 0.05091 0.0
H2212 H 0.58576 0.90945 0.26458 0.0
H2213 H 0.55342 0.91368 0.26204 0.0
H2214 H 0.54725 0.92089 0.29796 0.0
H2215 H 0.57929 0.91656 0.30057 0.0
H2216 H 0.52596 0.89363 0.28885 0.0
H2217 H 0.51846 0.95665 0.26429 0.0
H2218 H 0.53407 0.94044 0.25888 0.0
H2219 H 0.53856 0.95136 0.27208 0.0
C2220 C 0.57758 0.91241 0.2719 0.0
C2221 C 0.58516 0.91255 0.28279 0.0
C2222 C 0.55908 0.91485 0.27043 0.0
C2223 C 0.54787 0.91764 0.27981 0.0
C2224 C 0.55559 0.91874 0.29059 0.0
H2225 H 0.43821 0.92063 0.29978 0.0
H2226 H 0.47033 0.92467 0.29719 0.0
C2227 C 0.57397 0.91626 0.29207 0.0
C2228 C 0.528 0.91746 0.27873 0.0
H2229 H 0.49196 0.94051 0.26836 0.0
C2230 C 0.51857 0.90387 0.28434 0.0
C2231 C 0.51833 0.9307 0.27273 0.0
C2232 C 0.52779 0.94572 0.2667 0.0
C2233 C 0.49981 0.90331 0.28431 0.0
C2234 C 0.49008 0.91687 0.27866 0.0
C2235 C 0.49945 0.93018 0.27273 0.0
C2236 C 0.47023 0.91766 0.27947 0.0
C2237 C 0.49049 0.88823 0.29042 0.0
C2238 C 0.45933 0.91324 0.27022 0.0
C2239 C 0.44079 0.911 0.27166 0.0
C2240 C 0.43293 0.91308 0.28239 0.0
C2241 C 0.4438 0.91877 0.29142 0.0
C2242 C 0.4622 0.92107 0.28996 0.0
H2243 H 0.49962 0.87678 0.292 0.0
H2244 H 0.48557 0.89316 0.2987 0.0
H2245 H 0.47879 0.8834 0.28551 0.0
H2246 H 0.46527 0.91057 0.26204 0.0
H2247 H 0.43284 0.90655 0.26455 0.0
H2248 H 0.35646 0.18205 0.51465 0.0
H2249 H 0.35092 0.21415 0.51187 0.0
H2250 H 0.35051 0.22198 0.54794 0.0
H2251 H 0.35577 0.19012 0.5508 0.0
H2252 H 0.32389 0.24167 0.53677 0.0
H2253 H 0.39059 0.25135 0.51676 0.0
H2254 H 0.3761 0.23519 0.51022 0.0
H2255 H 0.38472 0.23105 0.52413 0.0
C2256 C 0.35489 0.19056 0.52199 0.0
C2257 C 0.35673 0.18346 0.53295 0.0
C2258 C 0.35188 0.20895 0.52039 0.0
C2259 C 0.35064 0.22057 0.5297 0.0
C2260 C 0.35152 0.21334 0.54062 0.0
H2261 H 0.35372 0.32854 0.55132 0.0
H2262 H 0.34829 0.29676 0.54838 0.0
C2263 C 0.35456 0.19505 0.54223 0.0
C2264 C 0.34931 0.24036 0.52827 0.0
H2265 H 0.37331 0.27703 0.51997 0.0
C2266 C 0.3346 0.24939 0.53297 0.0
C2267 C 0.36325 0.25048 0.52328 0.0
C2268 C 0.37965 0.24162 0.51837 0.0
C2269 C 0.33368 0.2682 0.5331 0.0
C2270 C 0.348 0.27832 0.52859 0.0
C2271 C 0.36232 0.2693 0.52342 0.0
C2272 C 0.3493 0.2981 0.53013 0.0
C2273 C 0.31742 0.27704 0.53818 0.0
C2274 C 0.35174 0.30961 0.52086 0.0
C2275 C 0.35491 0.32796 0.52252 0.0
C2276 C 0.35596 0.3351 0.53351 0.0
C2277 C 0.35297 0.32358 0.54274 0.0
C2278 C 0.34973 0.30535 0.54106 0.0
H2279 H 0.3055 0.2682 0.53764 0.0
H2280 H 0.31997 0.27979 0.54725 0.0
H2281 H 0.31434 0.28991 0.53391 0.0
H2282 H 0.35161 0.30432 0.51234 0.0
H2283 H 0.35729 0.33637 0.51523 0.0
H2284 H 0.93892 0.10061 0.80078 0.0
H2285 H 0.97112 0.09676 0.79854 0.0
H2286 H 0.96627 0.10607 0.76275 0.0
H2287 H 0.93376 0.10982 0.76489 0.0
H2288 H 0.9927 0.07816 0.76963 0.0
H2289 H 1.00092 0.1428 0.79209 0.0
H2290 H 0.98733 0.12684 0.7995 0.0
H2291 H 0.9798 0.1357 0.78621 0.0
C2292 C 0.94458 0.10152 0.79237 0.0
C2293 C 0.93372 0.10573 0.78303 0.0
C2294 C 0.96304 0.09935 0.79112 0.0
C2295 C 0.97116 0.10147 0.78052 0.0
C2296 C 0.96029 0.10446 0.77102 0.0
H2297 H 0.08654 0.1093 0.76518 0.0
H2298 H 0.05417 0.10511 0.76278 0.0
C2299 C 0.9417 0.10656 0.77226 0.0
C2300 C 0.99103 0.1021 0.77968 0.0
H2301 H 0.02716 0.12543 0.78943 0.0
C2302 C 1.00027 0.08857 0.77385 0.0
C2303 C 1.0009 0.11579 0.78511 0.0
C2304 C 0.99177 0.13121 0.791 0.0
C2305 C 0.01915 0.08796 0.77376 0.0
C2306 C 0.02895 0.1013 0.77957 0.0
C2307 C 0.01965 0.1151 0.78507 0.0
C2308 C 0.04882 0.10102 0.78055 0.0
C2309 C 0.02849 0.07275 0.76783 0.0
C2310 C 0.05665 0.09981 0.79129 0.0
C2311 C 0.07505 0.10224 0.79269 0.0
C2312 C 0.08614 0.10604 0.78338 0.0
C2313 C 0.07844 0.10628 0.77253 0.0
C2314 C 0.05992 0.10387 0.77113 0.0
H2315 H 0.01906 0.06192 0.76542 0.0
H2316 H 0.03497 0.07786 0.76004 0.0
H2317 H 0.03911 0.06703 0.7733 0.0
H2318 H 0.04839 0.09762 0.79869 0.0
H2319 H 0.08046 0.10186 0.80118 0.0
H2320 H 0.16528 0.18852 0.95809 0.0
H2321 H 0.16944 0.22064 0.96047 0.0
H2322 H 0.16335 0.21497 0.9965 0.0
H2323 H 0.15926 0.18256 0.9942 0.0
H2324 H 0.14223 0.24196 0.96991 0.0
H2325 H 0.20618 0.25009 0.99338 0.0
H2326 H 0.20076 0.22989 0.98572 0.0
H2327 H 0.19031 0.23439 0.99906 0.0
C2328 C 0.16518 0.19397 0.96657 0.0
C2329 C 0.16183 0.18289 0.97595 0.0
C2330 C 0.16757 0.2124 0.96791 0.0
C2331 C 0.16674 0.22027 0.97866 0.0
C2332 C 0.1643 0.20919 0.98813 0.0
H2333 H 0.158 0.33547 0.9942 0.0
H2334 H 0.16172 0.30295 0.99638 0.0
C2335 C 0.16194 0.19064 0.9868 0.0
C2336 C 0.1665 0.24016 0.97962 0.0
H2337 H 0.18979 0.27646 0.98939 0.0
C2338 C 0.15263 0.24946 0.9742 0.0
C2339 C 0.17993 0.24999 0.98533 0.0
C2340 C 0.19524 0.24067 0.99116 0.0
C2341 C 0.15196 0.26823 0.97415 0.0
C2342 C 0.16571 0.27811 0.97948 0.0
C2343 C 0.17932 0.26887 0.98524 0.0
C2344 C 0.16635 0.29798 0.97862 0.0
C2345 C 0.13648 0.27737 0.96833 0.0
C2346 C 0.16848 0.30606 0.96802 0.0
C2347 C 0.16635 0.32453 0.96674 0.0
C2348 C 0.16213 0.33544 0.97606 0.0
C2349 C 0.16127 0.32749 0.98684 0.0
C2350 C 0.16335 0.3089 0.98811 0.0
H2351 H 0.1249 0.26821 0.96725 0.0
H2352 H 0.13202 0.28931 0.97315 0.0
H2353 H 0.14079 0.28185 0.95981 0.0
H2354 H 0.17107 0.29795 0.96061 0.0
H2355 H 0.16728 0.33016 0.95833 0.0
H2356 H 0.93828 0.91644 0.20781 0.0
H2357 H 0.97045 0.92033 0.21015 0.0
H2358 H 0.96518 0.91206 0.24601 0.0
H2359 H 0.9327 0.90824 0.24377 0.0
H2360 H 0.99164 0.94004 0.23871 0.0
H2361 H 1.00023 0.87438 0.2175 0.0
H2362 H 0.98657 0.88996 0.20982 0.0
H2363 H 0.97908 0.88165 0.22326 0.0
C2364 C 0.94384 0.91576 0.21625 0.0
C2365 C 0.93287 0.91182 0.22559 0.0
C2366 C 0.96228 0.91796 0.21756 0.0
C2367 C 0.97027 0.91616 0.22822 0.0
C2368 C 0.95929 0.91343 0.2377 0.0
H2369 H 0.08562 0.90984 0.24401 0.0
H2370 H 0.0532 0.9139 0.24625 0.0
C2371 C 0.94072 0.91129 0.2364 0.0
C2372 C 0.99013 0.9156 0.22914 0.0
H2373 H 0.0264 0.89189 0.21995 0.0
C2374 C 0.99928 0.92944 0.23472 0.0
C2375 C 1.00008 0.90168 0.22402 0.0
C2376 C 0.99103 0.88597 0.2184 0.0
C2377 C 0.01815 0.93011 0.23484 0.0
C2378 C 0.02805 0.91651 0.22933 0.0
C2379 C 0.01883 0.90241 0.22409 0.0
C2380 C 0.04792 0.91681 0.22837 0.0
C2381 C 0.02739 0.94566 0.24047 0.0
C2382 C 0.05581 0.91739 0.21762 0.0
C2383 C 0.07423 0.91503 0.21632 0.0
C2384 C 0.0853 0.91194 0.22574 0.0
C2385 C 0.07754 0.91231 0.23658 0.0
C2386 C 0.05898 0.91465 0.23788 0.0
H2387 H 0.01791 0.95661 0.24258 0.0
H2388 H 0.03374 0.941 0.24841 0.0
H2389 H 0.03809 0.95107 0.23494 0.0
H2390 H 0.04757 0.91904 0.21016 0.0
H2391 H 0.07969 0.91492 0.20784 0.0
H2392 H 0.35737 0.68195 0.49476 0.0
H2393 H 0.35168 0.71402 0.49762 0.0
H2394 H 0.34878 0.72158 0.46157 0.0
H2395 H 0.35425 0.68979 0.45865 0.0
H2396 H 0.37352 0.74139 0.48994 0.0
H2397 H 0.30568 0.74997 0.47226 0.0
H2398 H 0.31456 0.72833 0.47608 0.0
H2399 H 0.32023 0.73832 0.46271 0.0
C2400 C 0.35508 0.69037 0.48745 0.0
C2401 C 0.35625 0.68323 0.47647 0.0
C2402 C 0.35191 0.70873 0.4891 0.0
C2403 C 0.34957 0.72024 0.47982 0.0
C2404 C 0.35014 0.71299 0.46889 0.0
H2405 H 0.35541 0.82798 0.45883 0.0
H2406 H 0.35024 0.79616 0.46185 0.0
C2407 C 0.3534 0.69475 0.46723 0.0
C2408 C 0.3482 0.74001 0.48135 0.0
H2409 H 0.32394 0.77655 0.47313 0.0
C2410 C 0.3625 0.74909 0.48649 0.0
C2411 C 0.33383 0.75007 0.47684 0.0
C2412 C 0.31762 0.74116 0.47177 0.0
C2413 C 0.36336 0.76791 0.4866 0.0
C2414 C 0.34938 0.77798 0.4816 0.0
C2415 C 0.33469 0.76888 0.47694 0.0
C2416 C 0.35066 0.79775 0.48009 0.0
C2417 C 0.37976 0.77683 0.49145 0.0
C2418 C 0.35203 0.80948 0.48935 0.0
C2419 C 0.355 0.82785 0.48764 0.0
C2420 C 0.35665 0.83483 0.47664 0.0
C2421 C 0.35434 0.82314 0.46743 0.0
C2422 C 0.35135 0.80487 0.46913 0.0
H2423 H 0.39074 0.76713 0.49305 0.0
H2424 H 0.38477 0.78739 0.48566 0.0
H2425 H 0.37623 0.78326 0.4996 0.0
H2426 H 0.3512 0.80437 0.49789 0.0
H2427 H 0.35668 0.83644 0.49494 0.0
H2428 H 0.44315 0.13371 0.71355 0.0
H2429 H 0.47482 0.12737 0.71567 0.0
H2430 H 0.4625 0.08306 0.73769 0.0
H2431 H 0.43039 0.09014 0.73609 0.0
H2432 H 0.49083 0.09918 0.74535 0.0
H2433 H 0.50221 0.09008 0.69986 0.0
H2434 H 0.49288 0.11184 0.7021 0.0
H2435 H 0.48001 0.09217 0.70564 0.0
C2436 C 0.4471 0.12252 0.71881 0.0
C2437 C 0.43419 0.11223 0.7245 0.0
C2438 C 0.4653 0.11881 0.71995 0.0
C2439 C 0.47118 0.10429 0.72649 0.0
C2440 C 0.45836 0.09419 0.73245 0.0
H2441 H 0.58495 0.08455 0.7142 0.0
H2442 H 0.55287 0.07882 0.71618 0.0
C2443 C 0.44001 0.0982 0.73152 0.0
C2444 C 0.49075 0.10018 0.72716 0.0
H2445 H 0.52829 0.09822 0.71081 0.0
C2446 C 0.499 0.09864 0.73779 0.0
C2447 C 0.50153 0.09883 0.71735 0.0
C2448 C 0.49362 0.09809 0.70562 0.0
C2449 C 0.51772 0.09687 0.73885 0.0
C2450 C 0.52864 0.09749 0.72904 0.0
C2451 C 0.52022 0.09804 0.71842 0.0
C2452 C 0.54869 0.09844 0.72943 0.0
C2453 C 0.52541 0.09414 0.7505 0.0
C2454 C 0.55745 0.11083 0.73648 0.0
C2455 C 0.57598 0.11349 0.73568 0.0
C2456 C 0.58607 0.10434 0.72751 0.0
C2457 C 0.5775 0.09165 0.72065 0.0
C2458 C 0.5591 0.08851 0.72173 0.0
H2459 H 0.5159 0.08669 0.75596 0.0
H2460 H 0.53824 0.08667 0.75023 0.0
H2461 H 0.52771 0.10736 0.7545 0.0
H2462 H 0.5499 0.11923 0.7422 0.0
H2463 H 0.58217 0.12368 0.74089 0.0
H2464 H 0.86049 0.33536 0.99385 0.0
H2465 H 0.85675 0.30284 0.99598 0.0
H2466 H 0.84766 0.29794 0.96018 0.0
H2467 H 0.85145 0.33015 0.95794 0.0
H2468 H 0.82861 0.27634 0.98874 0.0
H2469 H 0.89395 0.26826 0.96706 0.0
H2470 H 0.88672 0.2893 0.973 0.0
H2471 H 0.87818 0.282 0.95958 0.0
C2472 C 0.85727 0.32741 0.98647 0.0
C2473 C 0.85648 0.33538 0.9757 0.0
C2474 C 0.85518 0.30881 0.98771 0.0
C2475 C 0.85224 0.29793 0.97821 0.0
C2476 C 0.85018 0.30603 0.9676 0.0
H2477 H 0.85385 0.18862 0.95743 0.0
H2478 H 0.84966 0.22072 0.95985 0.0
C2479 C 0.85233 0.3245 0.96635 0.0
C2480 C 0.8529 0.27806 0.97904 0.0
H2481 H 0.87663 0.24199 0.96956 0.0
C2482 C 0.83918 0.26878 0.98466 0.0
C2483 C 0.86678 0.26823 0.97379 0.0
C2484 C 0.88235 0.27741 0.9681 0.0
C2485 C 0.8386 0.2499 0.9847 0.0
C2486 C 0.85216 0.24012 0.97908 0.0
C2487 C 0.86614 0.24946 0.97379 0.0
C2488 C 0.85196 0.22024 0.97805 0.0
C2489 C 0.82317 0.24054 0.99038 0.0
C2490 C 0.8542 0.20911 0.98752 0.0
C2491 C 0.85657 0.19056 0.98617 0.0
C2492 C 0.85691 0.18288 0.9753 0.0
C2493 C 0.85377 0.19402 0.96592 0.0
C2494 C 0.85137 0.21244 0.96728 0.0
H2495 H 0.81217 0.24994 0.99253 0.0
H2496 H 0.81779 0.22979 0.98487 0.0
H2497 H 0.82794 0.23422 0.99831 0.0
H2498 H 0.85496 0.21483 0.99591 0.0
H2499 H 0.85908 0.18243 0.99357 0.0
H2500 H 0.66292 0.82792 0.4584 0.0
H2501 H 0.6681 0.79613 0.46161 0.0
H2502 H 0.66722 0.8049 0.4976 0.0
H2503 H 0.66173 0.83692 0.49446 0.0
H2504 H 0.69444 0.77662 0.47307 0.0
H2505 H 0.62752 0.76772 0.49293 0.0
H2506 H 0.63355 0.78782 0.4854 0.0
H2507 H 0.64202 0.78395 0.49938 0.0
C2508 C 0.66401 0.8232 0.46703 0.0
C2509 C 0.66172 0.83504 0.47617 0.0
C2510 C 0.66701 0.80496 0.46884 0.0
C2511 C 0.66772 0.79801 0.47984 0.0
C2512 C 0.66638 0.80988 0.48902 0.0
H2513 H 0.66039 0.68256 0.49533 0.0
H2514 H 0.66624 0.71463 0.49798 0.0
C2515 C 0.6634 0.82822 0.48721 0.0
C2516 C 0.66895 0.77826 0.48148 0.0
H2517 H 0.64472 0.74189 0.49005 0.0
C2518 C 0.68366 0.76905 0.47691 0.0
C2519 C 0.65493 0.76832 0.48652 0.0
C2520 C 0.63852 0.77737 0.49128 0.0
C2521 C 0.6845 0.75023 0.47697 0.0
C2522 C 0.67009 0.74028 0.48153 0.0
C2523 C 0.65577 0.74949 0.48656 0.0
C2524 C 0.6687 0.72048 0.48014 0.0
C2525 C 0.70075 0.74119 0.47201 0.0
C2526 C 0.66829 0.71301 0.46927 0.0
C2527 C 0.66497 0.69477 0.46774 0.0
C2528 C 0.66185 0.68346 0.47705 0.0
C2529 C 0.66287 0.69081 0.48798 0.0
C2530 C 0.66613 0.70917 0.4895 0.0
H2531 H 0.71271 0.74998 0.47251 0.0
H2532 H 0.70373 0.72841 0.4764 0.0
H2533 H 0.69825 0.73826 0.46296 0.0
H2534 H 0.66982 0.72144 0.46189 0.0
H2535 H 0.66424 0.68964 0.45919 0.0
H2536 H 0.85161 0.68851 0.0513 0.0
H2537 H 0.84734 0.72061 0.04888 0.0
H2538 H 0.85486 0.71504 0.01296 0.0
H2539 H 0.85905 0.68265 0.01529 0.0
H2540 H 0.8749 0.74193 0.03988 0.0
H2541 H 0.81188 0.75015 0.01544 0.0
H2542 H 0.81701 0.72994 0.02317 0.0
H2543 H 0.82796 0.73443 0.00999 0.0
C2544 C 0.85198 0.69398 0.04283 0.0
C2545 C 0.85578 0.68294 0.0335 0.0
C2546 C 0.84953 0.71239 0.04147 0.0
C2547 C 0.85074 0.72029 0.03075 0.0
C2548 C 0.8536 0.70924 0.0213 0.0
H2549 H 0.86056 0.83526 0.01513 0.0
H2550 H 0.85663 0.80277 0.01298 0.0
C2551 C 0.85602 0.6907 0.02266 0.0
C2552 C 0.85102 0.74017 0.0298 0.0
H2553 H 0.82819 0.77649 0.01963 0.0
C2554 C 0.86469 0.74945 0.03543 0.0
C2555 C 0.83783 0.75001 0.02387 0.0
C2556 C 0.82273 0.74071 0.01781 0.0
C2557 C 0.8654 0.76821 0.03546 0.0
C2558 C 0.85188 0.77811 0.0299 0.0
C2559 C 0.83847 0.76889 0.02395 0.0
C2560 C 0.85131 0.79799 0.03069 0.0
C2561 C 0.88068 0.77732 0.0415 0.0
C2562 C 0.84884 0.80617 0.04124 0.0
C2563 C 0.8511 0.82462 0.04249 0.0
C2564 C 0.85577 0.83541 0.0332 0.0
C2565 C 0.85694 0.82738 0.02246 0.0
C2566 C 0.85474 0.8088 0.02122 0.0
H2567 H 0.89218 0.76812 0.04277 0.0
H2568 H 0.88537 0.78921 0.03672 0.0
H2569 H 0.87606 0.78188 0.04993 0.0
H2570 H 0.84592 0.79813 0.04863 0.0
H2571 H 0.84993 0.83032 0.05087 0.0
H2572 H 0.66568 0.32862 0.55023 0.0
H2573 H 0.67112 0.29682 0.54738 0.0
H2574 H 0.66619 0.30382 0.51138 0.0
H2575 H 0.66048 0.33589 0.51418 0.0
H2576 H 0.64494 0.27668 0.51948 0.0
H2577 H 0.71337 0.26803 0.53615 0.0
H2578 H 0.6993 0.27973 0.54595 0.0
H2579 H 0.70439 0.2897 0.53248 0.0
C2580 C 0.6661 0.32354 0.54167 0.0
C2581 C 0.66263 0.3349 0.53243 0.0
C2582 C 0.66934 0.30529 0.54005 0.0
C2583 C 0.66931 0.29788 0.52916 0.0
C2584 C 0.66642 0.30924 0.51986 0.0
H2585 H 0.66155 0.18159 0.51459 0.0
H2586 H 0.66715 0.21361 0.51152 0.0
C2587 C 0.66324 0.3276 0.52147 0.0
C2588 C 0.67055 0.27807 0.52771 0.0
H2589 H 0.6949 0.24151 0.53581 0.0
C2590 C 0.65604 0.26899 0.52282 0.0
C2591 C 0.68503 0.26799 0.53208 0.0
C2592 C 0.70148 0.27688 0.53686 0.0
C2593 C 0.65509 0.25018 0.52282 0.0
C2594 C 0.66918 0.24011 0.52769 0.0
C2595 C 0.68407 0.24919 0.53211 0.0
C2596 C 0.66786 0.22036 0.52929 0.0
C2597 C 0.63852 0.24126 0.51821 0.0
C2598 C 0.66721 0.21335 0.54027 0.0
C2599 C 0.66412 0.19511 0.54205 0.0
C2600 C 0.6617 0.18335 0.53288 0.0
C2601 C 0.66333 0.19023 0.52185 0.0
C2602 C 0.66637 0.20857 0.52008 0.0
H2603 H 0.62756 0.25099 0.51664 0.0
H2604 H 0.6418 0.23461 0.51009 0.0
H2605 H 0.6336 0.23086 0.52415 0.0
H2606 H 0.6684 0.22212 0.54752 0.0
H2607 H 0.66307 0.19034 0.55066 0.0
H2608 H 0.9369 0.41579 0.80098 0.0
H2609 H 0.96903 0.42002 0.79879 0.0
H2610 H 0.96405 0.41308 0.76279 0.0
H2611 H 0.93162 0.40892 0.76489 0.0
H2612 H 0.9905 0.39253 0.78971 0.0
H2613 H 0.9991 0.45606 0.76582 0.0
H2614 H 0.97879 0.45081 0.77342 0.0
H2615 H 0.98345 0.4401 0.76018 0.0
C2616 C 0.9425 0.41554 0.79254 0.0
C2617 C 0.93161 0.41191 0.78312 0.0
C2618 C 0.96093 0.41796 0.79132 0.0
C2619 C 0.96901 0.4169 0.78064 0.0
C2620 C 0.95811 0.41421 0.7711 0.0
H2621 H 0.08427 0.40806 0.76561 0.0
H2622 H 0.05178 0.41179 0.76335 0.0
C2623 C 0.93956 0.41182 0.77232 0.0
C2624 C 0.9889 0.41663 0.77982 0.0
H2625 H 0.02537 0.43969 0.7701 0.0
C2626 C 0.99809 0.40284 0.78539 0.0
C2627 C 0.99883 0.42995 0.77407 0.0
C2628 C 0.98963 0.44517 0.76807 0.0
C2629 C 0.01685 0.40212 0.78556 0.0
C2630 C 0.02683 0.41578 0.78018 0.0
C2631 C 0.01771 0.42931 0.77428 0.0
C2632 C 0.0467 0.41635 0.7811 0.0
C2633 C 0.02586 0.3867 0.79151 0.0
C2634 C 0.0547 0.41845 0.79174 0.0
C2635 C 0.07315 0.41629 0.79306 0.0
C2636 C 0.08412 0.41211 0.78375 0.0
C2637 C 0.07625 0.41129 0.77295 0.0
C2638 C 0.05767 0.41338 0.77165 0.0
H2639 H 0.01666 0.37514 0.79257 0.0
H2640 H 0.03788 0.38217 0.7868 0.0
H2641 H 0.03017 0.39109 0.80004 0.0
H2642 H 0.04655 0.42103 0.79912 0.0
H2643 H 0.07873 0.4172 0.80148 0.0
H2644 H 0.43209 0.60521 0.26593 0.0
H2645 H 0.46427 0.59968 0.26368 0.0
H2646 H 0.47093 0.60153 0.29982 0.0
H2647 H 0.43898 0.60693 0.30215 0.0
H2648 H 0.4913 0.62297 0.27071 0.0
H2649 H 0.49973 0.55712 0.29133 0.0
H2650 H 0.4782 0.56538 0.28678 0.0
H2651 H 0.48765 0.57273 0.29997 0.0
C2652 C 0.44034 0.60405 0.27341 0.0
C2653 C 0.43288 0.6065 0.28423 0.0
C2654 C 0.45876 0.60095 0.2721 0.0
C2655 C 0.47004 0.59997 0.28158 0.0
C2656 C 0.46251 0.60186 0.29238 0.0
H2657 H 0.57807 0.60659 0.30241 0.0
H2658 H 0.54621 0.60149 0.29964 0.0
C2659 C 0.44419 0.60505 0.29369 0.0
C2660 C 0.48983 0.59855 0.28028 0.0
H2661 H 0.52628 0.57504 0.28946 0.0
C2662 C 0.49896 0.61231 0.27462 0.0
C2663 C 0.49984 0.58466 0.28539 0.0
C2664 C 0.49085 0.56904 0.29111 0.0
C2665 C 0.51778 0.61313 0.2745 0.0
C2666 C 0.5278 0.5996 0.28 0.0
C2667 C 0.51865 0.58543 0.28525 0.0
C2668 C 0.5476 0.60088 0.2814 0.0
C2669 C 0.52672 0.62904 0.26904 0.0
C2670 C 0.55925 0.60163 0.27207 0.0
C2671 C 0.57765 0.60461 0.27363 0.0
C2672 C 0.58475 0.60683 0.28455 0.0
C2673 C 0.57314 0.60508 0.29386 0.0
C2674 C 0.55485 0.60213 0.2923 0.0
H2675 H 0.51708 0.63998 0.26721 0.0
H2676 H 0.53748 0.63441 0.27455 0.0
H2677 H 0.53287 0.62483 0.26094 0.0
H2678 H 0.55406 0.60031 0.26358 0.0
H2679 H 0.58616 0.60582 0.26626 0.0
H2680 H 0.43894 0.41311 0.70896 0.0
H2681 H 0.47085 0.41819 0.71173 0.0
H2682 H 0.46321 0.41818 0.74782 0.0
H2683 H 0.43107 0.41288 0.74513 0.0
H2684 H 0.49077 0.44499 0.72306 0.0
H2685 H 0.50004 0.3779 0.74266 0.0
H2686 H 0.47985 0.38395 0.73523 0.0
H2687 H 0.48388 0.39242 0.74919 0.0
C2688 C 0.44394 0.41439 0.71751 0.0
C2689 C 0.43238 0.41241 0.72683 0.0
C2690 C 0.46224 0.41733 0.71907 0.0
C2691 C 0.46953 0.41826 0.72997 0.0
C2692 C 0.45795 0.4172 0.73932 0.0
H2693 H 0.58526 0.40994 0.74413 0.0
H2694 H 0.5533 0.4159 0.74716 0.0
C2695 C 0.43954 0.41432 0.73776 0.0
C2696 C 0.48932 0.41941 0.73137 0.0
H2697 H 0.52583 0.39496 0.73943 0.0
C2698 C 0.49843 0.43415 0.72677 0.0
C2699 C 0.49935 0.40531 0.73625 0.0
C2700 C 0.49038 0.38891 0.74106 0.0
C2701 C 0.51724 0.43494 0.72664 0.0
C2702 C 0.52728 0.42044 0.73101 0.0
C2703 C 0.51817 0.40608 0.73608 0.0
C2704 C 0.54704 0.419 0.72942 0.0
C2705 C 0.52616 0.45126 0.7217 0.0
C2706 C 0.55425 0.41893 0.71847 0.0
C2707 C 0.57244 0.41556 0.71672 0.0
C2708 C 0.58394 0.41205 0.72588 0.0
C2709 C 0.57685 0.41273 0.73689 0.0
C2710 C 0.55855 0.41605 0.73863 0.0
H2711 H 0.51744 0.46325 0.72245 0.0
H2712 H 0.53911 0.45409 0.72593 0.0
H2713 H 0.52873 0.44896 0.71258 0.0
H2714 H 0.54566 0.42074 0.7112 0.0
H2715 H 0.57735 0.4151 0.70812 0.0
H2716 H 0.93228 0.6107 0.24416 0.0
H2717 H 0.96479 0.60707 0.24638 0.0
H2718 H 0.97002 0.59847 0.21054 0.0
H2719 H 0.93782 0.60217 0.20822 0.0
H2720 H 0.99137 0.57911 0.23914 0.0
H2721 H 0.99963 0.6446 0.21769 0.0
H2722 H 0.97853 0.63732 0.22351 0.0
H2723 H 0.986 0.6289 0.21009 0.0
C2724 C 0.9403 0.60763 0.23679 0.0
C2725 C 0.93242 0.60694 0.22599 0.0
C2726 C 0.95889 0.60559 0.23807 0.0
C2727 C 0.96987 0.60282 0.22859 0.0
C2728 C 0.96186 0.60088 0.21795 0.0
H2729 H 0.07923 0.60422 0.20805 0.0
H2730 H 0.04712 0.60015 0.21043 0.0
C2731 C 0.9434 0.60297 0.21665 0.0
C2732 C 0.98973 0.60346 0.2295 0.0
H2733 H 0.02587 0.6272 0.22018 0.0
C2734 C 0.99896 0.5897 0.23511 0.0
C2735 C 0.99961 0.61737 0.22431 0.0
C2736 C 0.99047 0.63299 0.21864 0.0
C2737 C 0.01784 0.58908 0.2352 0.0
C2738 C 0.02766 0.60267 0.22963 0.0
C2739 C 0.01837 0.61669 0.22436 0.0
C2740 C 0.04754 0.60242 0.22863 0.0
C2741 C 0.02715 0.57361 0.24086 0.0
C2742 C 0.05865 0.60459 0.23812 0.0
C2743 C 0.0772 0.6069 0.23679 0.0
C2744 C 0.08492 0.60723 0.22593 0.0
C2745 C 0.0738 0.60415 0.21653 0.0
C2746 C 0.05538 0.60182 0.21787 0.0
H2747 H 0.01772 0.56263 0.24299 0.0
H2748 H 0.03788 0.56821 0.23534 0.0
H2749 H 0.03347 0.57834 0.2488 0.0
H2750 H 0.0529 0.60536 0.2465 0.0
H2751 H 0.08532 0.60937 0.2442 0.0
loop_
_geom_bond_atom_site_label_1
_geom_bond_atom_site_label_2
_geom_bond_distance
_geom_bond_site_symmetry_2
_ccdc_geom_bond_type
O0 Cd1 2.223 . S
O0 C8 1.315 . S
Cd1 O0 2.223 . S
Cd1 O4 2.297 . S
Cd1 O5 2.439 . S
Cd1 O11 2.240 . S
Cd2 O3 2.240 . S
Cd2 O10 2.223 . S
Cd2 O12 2.297 . S
Cd2 O13 2.439 . S
O3 Cd2 2.240 . S
O3 C8 1.279 . S
O4 Cd1 2.297 . S
O4 C6 1.247 . S
O5 Cd1 2.439 . S
O5 C6 1.208 . S
C6 O4 1.247 . S
C6 O5 1.208 . S
C7 O12 1.247 . S
C7 O13 1.208 . S
C8 O0 1.315 . S
C8 O3 1.279 . S
C9 O10 1.315 . S
C9 O11 1.279 . S
O10 Cd2 2.223 . S
O10 C9 1.315 . S
O11 Cd1 2.240 . S
O11 C9 1.279 . S
O12 Cd2 2.297 . S
O12 C7 1.247 . S
O13 Cd2 2.439 . S
O13 C7 1.208 . S
O14 Cd15 2.223 . S
O14 C22 1.315 . S
Cd15 O14 2.223 . S
Cd15 O18 2.297 . S
Cd15 O19 2.439 . S
Cd15 O25 2.240 . S
Cd16 O17 2.240 . S
Cd16 O24 2.223 . S
Cd16 O26 2.297 . S
Cd16 O27 2.439 . S
O17 Cd16 2.240 . S
O17 C22 1.279 . S
O18 Cd15 2.297 . S
O18 C20 1.247 . S
O19 Cd15 2.439 . S
O19 C20 1.208 . S
C20 O18 1.247 . S
C20 O19 1.208 . S
C21 O26 1.247 . S
C21 O27 1.208 . S
C22 O14 1.315 . S
C22 O17 1.279 . S
C23 O24 1.315 . S
C23 O25 1.279 . S
O24 Cd16 2.223 . S
O24 C23 1.315 . S
O25 Cd15 2.240 . S
O25 C23 1.279 . S
O26 Cd16 2.297 . S
O26 C21 1.247 . S
O27 Cd16 2.439 . S
O27 C21 1.208 . S
O28 Cd29 2.223 . S
O28 C36 1.315 . S
Cd29 O28 2.223 . S
Cd29 O32 2.297 . S
Cd29 O33 2.439 . S
Cd29 O39 2.240 . S
Cd30 O31 2.240 . S
Cd30 O38 2.223 . S
Cd30 O40 2.297 . S
Cd30 O41 2.439 . S
O31 Cd30 2.240 . S
O31 C36 1.279 . S
O32 Cd29 2.297 . S
O32 C34 1.247 . S
O33 Cd29 2.439 . S
O33 C34 1.208 . S
C34 O32 1.247 . S
C34 O33 1.208 . S
C35 O40 1.247 . S
C35 O41 1.208 . S
C36 O28 1.315 . S
C36 O31 1.279 . S
C37 O38 1.315 . S
C37 O39 1.279 . S
O38 Cd30 2.223 . S
O38 C37 1.315 . S
O39 Cd29 2.240 . S
O39 C37 1.279 . S
O40 Cd30 2.297 . S
O40 C35 1.247 . S
O41 Cd30 2.439 . S
O41 C35 1.208 . S
O42 Cd43 2.223 . S
O42 C50 1.315 . S
Cd43 O42 2.223 . S
Cd43 O46 2.297 . S
Cd43 O47 2.439 . S
Cd43 O53 2.240 . S
Cd44 O45 2.240 . S
Cd44 O52 2.223 . S
Cd44 O54 2.297 . S
Cd44 O55 2.439 . S
O45 Cd44 2.240 . S
O45 C50 1.279 . S
O46 Cd43 2.297 . S
O46 C48 1.247 . S
O47 Cd43 2.439 . S
O47 C48 1.208 . S
C48 O46 1.247 . S
C48 O47 1.208 . S
C49 O54 1.247 . S
C49 O55 1.208 . S
C50 O42 1.315 . S
C50 O45 1.279 . S
C51 O52 1.315 . S
C51 O53 1.279 . S
O52 Cd44 2.223 . S
O52 C51 1.315 . S
O53 Cd43 2.240 . S
O53 C51 1.279 . S
O54 Cd44 2.297 . S
O54 C49 1.247 . S
O55 Cd44 2.439 . S
O55 C49 1.208 . S
O56 Cd57 2.223 . S
O56 C64 1.315 . S
Cd57 O56 2.223 . S
Cd57 O60 2.297 . S
Cd57 O61 2.439 . S
Cd57 O67 2.240 . S
Cd58 O59 2.240 . S
Cd58 O66 2.223 . S
Cd58 O68 2.297 . S
Cd58 O69 2.439 . S
O59 Cd58 2.240 . S
O59 C64 1.279 . S
O60 Cd57 2.297 . S
O60 C62 1.247 . S
O61 Cd57 2.439 . S
O61 C62 1.208 . S
C62 O60 1.247 . S
C62 O61 1.208 . S
C63 O68 1.247 . S
C63 O69 1.208 . S
C64 O56 1.315 . S
C64 O59 1.279 . S
C65 O66 1.315 . S
C65 O67 1.279 . S
O66 Cd58 2.223 . S
O66 C65 1.315 . S
O67 Cd57 2.240 . S
O67 C65 1.279 . S
O68 Cd58 2.297 . S
O68 C63 1.247 . S
O69 Cd58 2.439 . S
O69 C63 1.208 . S
O70 Cd71 2.223 . S
O70 C78 1.315 . S
Cd71 O70 2.223 . S
Cd71 O74 2.297 . S
Cd71 O75 2.439 . S
Cd71 O81 2.240 . S
Cd72 O73 2.240 . S
Cd72 O80 2.223 . S
Cd72 O82 2.297 . S
Cd72 O83 2.439 . S
O73 Cd72 2.240 . S
O73 C78 1.279 . S
O74 Cd71 2.297 . S
O74 C76 1.247 . S
O75 Cd71 2.439 . S
O75 C76 1.208 . S
C76 O74 1.247 . S
C76 O75 1.208 . S
C77 O82 1.247 . S
C77 O83 1.208 . S
C78 O70 1.315 . S
C78 O73 1.279 . S
C79 O80 1.315 . S
C79 O81 1.279 . S
O80 Cd72 2.223 . S
O80 C79 1.315 . S
O81 Cd71 2.240 . S
O81 C79 1.279 . S
O82 Cd72 2.297 . S
O82 C77 1.247 . S
O83 Cd72 2.439 . S
O83 C77 1.208 . S
O84 Cd85 2.223 . S
O84 C92 1.315 . S
Cd85 O84 2.223 . S
Cd85 O88 2.297 . S
Cd85 O89 2.439 . S
Cd85 O95 2.240 . S
Cd86 O87 2.240 . S
Cd86 O94 2.223 . S
Cd86 O96 2.297 . S
Cd86 O97 2.439 . S
O87 Cd86 2.240 . S
O87 C92 1.279 . S
O88 Cd85 2.297 . S
O88 C90 1.247 . S
O89 Cd85 2.439 . S
O89 C90 1.208 . S
C90 O88 1.247 . S
C90 O89 1.208 . S
C91 O96 1.247 . S
C91 O97 1.208 . S
C92 O84 1.315 . S
C92 O87 1.279 . S
C93 O94 1.315 . S
C93 O95 1.279 . S
O94 Cd86 2.223 . S
O94 C93 1.315 . S
O95 Cd85 2.240 . S
O95 C93 1.279 . S
O96 Cd86 2.297 . S
O96 C91 1.247 . S
O97 Cd86 2.439 . S
O97 C91 1.208 . S
O98 Cd99 2.223 . S
O98 C106 1.315 . S
Cd99 O98 2.223 . S
Cd99 O102 2.297 . S
Cd99 O103 2.439 . S
Cd99 O109 2.240 . S
Cd100 O101 2.240 . S
Cd100 O108 2.223 . S
Cd100 O110 2.297 . S
Cd100 O111 2.439 . S
O101 Cd100 2.240 . S
O101 C106 1.279 . S
O102 Cd99 2.297 . S
O102 C104 1.247 . S
O103 Cd99 2.439 . S
O103 C104 1.208 . S
C104 O102 1.247 . S
C104 O103 1.208 . S
C105 O110 1.247 . S
C105 O111 1.208 . S
C106 O98 1.315 . S
C106 O101 1.279 . S
C107 O108 1.315 . S
C107 O109 1.279 . S
O108 Cd100 2.223 . S
O108 C107 1.315 . S
O109 Cd99 2.240 . S
O109 C107 1.279 . S
O110 Cd100 2.297 . S
O110 C105 1.247 . S
O111 Cd100 2.439 . S
O111 C105 1.208 . S
O112 Cd113 2.223 . S
O112 C120 1.315 . S
Cd113 O112 2.223 . S
Cd113 O116 2.297 . S
Cd113 O117 2.439 . S
Cd113 O123 2.240 . S
Cd114 O115 2.240 . S
Cd114 O122 2.223 . S
Cd114 O124 2.297 . S
Cd114 O125 2.439 . S
O115 Cd114 2.240 . S
O115 C120 1.279 . S
O116 Cd113 2.297 . S
O116 C118 1.247 . S
O117 Cd113 2.439 . S
O117 C118 1.208 . S
C118 O116 1.247 . S
C118 O117 1.208 . S
C119 O124 1.247 . S
C119 O125 1.208 . S
C120 O112 1.315 . S
C120 O115 1.279 . S
C121 O122 1.315 . S
C121 O123 1.279 . S
O122 Cd114 2.223 . S
O122 C121 1.315 . S
O123 Cd113 2.240 . S
O123 C121 1.279 . S
O124 Cd114 2.297 . S
O124 C119 1.247 . S
O125 Cd114 2.439 . S
O125 C119 1.208 . S
O126 Cd127 2.223 . S
O126 C134 1.315 . S
Cd127 O126 2.223 . S
Cd127 O130 2.297 . S
Cd127 O131 2.439 . S
Cd127 O137 2.240 . S
Cd128 O129 2.240 . S
Cd128 O136 2.223 . S
Cd128 O138 2.297 . S
Cd128 O139 2.439 . S
O129 Cd128 2.240 . S
O129 C134 1.279 . S
O130 Cd127 2.297 . S
O130 C132 1.247 . S
O131 Cd127 2.439 . S
O131 C132 1.208 . S
C132 O130 1.247 . S
C132 O131 1.208 . S
C133 O138 1.247 . S
C133 O139 1.208 . S
C134 O126 1.315 . S
C134 O129 1.279 . S
C135 O136 1.315 . S
C135 O137 1.279 . S
O136 Cd128 2.223 . S
O136 C135 1.315 . S
O137 Cd127 2.240 . S
O137 C135 1.279 . S
O138 Cd128 2.297 . S
O138 C133 1.247 . S
O139 Cd128 2.439 . S
O139 C133 1.208 . S
O140 Cd141 2.223 . S
O140 C148 1.315 . S
Cd141 O140 2.223 . S
Cd141 O144 2.297 . S
Cd141 O145 2.439 . S
Cd141 O151 2.240 . S
Cd142 O143 2.240 . S
Cd142 O150 2.223 . S
Cd142 O152 2.297 . S
Cd142 O153 2.439 . S
O143 Cd142 2.240 . S
O143 C148 1.279 . S
O144 Cd141 2.297 . S
O144 C146 1.247 . S
O145 Cd141 2.439 . S
O145 C146 1.208 . S
C146 O144 1.247 . S
C146 O145 1.208 . S
C147 O152 1.247 . S
C147 O153 1.208 . S
C148 O140 1.315 . S
C148 O143 1.279 . S
C149 O150 1.315 . S
C149 O151 1.279 . S
O150 Cd142 2.223 . S
O150 C149 1.315 . S
O151 Cd141 2.240 . S
O151 C149 1.279 . S
O152 Cd142 2.297 . S
O152 C147 1.247 . S
O153 Cd142 2.439 . S
O153 C147 1.208 . S
O154 Cd155 2.223 . S
O154 C162 1.315 . S
Cd155 O154 2.223 . S
Cd155 O158 2.297 . S
Cd155 O159 2.439 . S
Cd155 O165 2.240 . S
Cd156 O157 2.240 . S
Cd156 O164 2.223 . S
Cd156 O166 2.297 . S
Cd156 O167 2.439 . S
O157 Cd156 2.240 . S
O157 C162 1.279 . S
O158 Cd155 2.297 . S
O158 C160 1.247 . S
O159 Cd155 2.439 . S
O159 C160 1.208 . S
C160 O158 1.247 . S
C160 O159 1.208 . S
C161 O166 1.247 . S
C161 O167 1.208 . S
C162 O154 1.315 . S
C162 O157 1.279 . S
C163 O164 1.315 . S
C163 O165 1.279 . S
O164 Cd156 2.223 . S
O164 C163 1.315 . S
O165 Cd155 2.240 . S
O165 C163 1.279 . S
O166 Cd156 2.297 . S
O166 C161 1.247 . S
O167 Cd156 2.439 . S
O167 C161 1.208 . S
O168 Cd169 2.223 . S
O168 C176 1.315 . S
Cd169 O168 2.223 . S
Cd169 O172 2.297 . S
Cd169 O173 2.439 . S
Cd169 O179 2.240 . S
Cd170 O171 2.240 . S
Cd170 O178 2.223 . S
Cd170 O180 2.297 . S
Cd170 O181 2.439 . S
O171 Cd170 2.240 . S
O171 C176 1.279 . S
O172 Cd169 2.297 . S
O172 C174 1.247 . S
O173 Cd169 2.439 . S
O173 C174 1.208 . S
C174 O172 1.247 . S
C174 O173 1.208 . S
C175 O180 1.247 . S
C175 O181 1.208 . S
C176 O168 1.315 . S
C176 O171 1.279 . S
C177 O178 1.315 . S
C177 O179 1.279 . S
O178 Cd170 2.223 . S
O178 C177 1.315 . S
O179 Cd169 2.240 . S
O179 C177 1.279 . S
O180 Cd170 2.297 . S
O180 C175 1.247 . S
O181 Cd170 2.439 . S
O181 C175 1.208 . S
O182 Cd183 2.223 . S
O182 C190 1.315 . S
Cd183 O182 2.223 . S
Cd183 O186 2.297 . S
Cd183 O187 2.439 . S
Cd183 O193 2.240 . S
Cd184 O185 2.240 . S
Cd184 O192 2.223 . S
Cd184 O194 2.297 . S
Cd184 O195 2.439 . S
O185 Cd184 2.240 . S
O185 C190 1.279 . S
O186 Cd183 2.297 . S
O186 C188 1.247 . S
O187 Cd183 2.439 . S
O187 C188 1.208 . S
C188 O186 1.247 . S
C188 O187 1.208 . S
C189 O194 1.247 . S
C189 O195 1.208 . S
C190 O182 1.315 . S
C190 O185 1.279 . S
C191 O192 1.315 . S
C191 O193 1.279 . S
O192 Cd184 2.223 . S
O192 C191 1.315 . S
O193 Cd183 2.240 . S
O193 C191 1.279 . S
O194 Cd184 2.297 . S
O194 C189 1.247 . S
O195 Cd184 2.439 . S
O195 C189 1.208 . S
O196 Cd197 2.223 . S
O196 C204 1.315 . S
Cd197 O196 2.223 . S
Cd197 O200 2.297 . S
Cd197 O201 2.439 . S
Cd197 O207 2.240 . S
Cd198 O199 2.240 . S
Cd198 O206 2.223 . S
Cd198 O208 2.297 . S
Cd198 O209 2.439 . S
O199 Cd198 2.240 . S
O199 C204 1.279 . S
O200 Cd197 2.297 . S
O200 C202 1.247 . S
O201 Cd197 2.439 . S
O201 C202 1.208 . S
C202 O200 1.247 . S
C202 O201 1.208 . S
C203 O208 1.247 . S
C203 O209 1.208 . S
C204 O196 1.315 . S
C204 O199 1.279 . S
C205 O206 1.315 . S
C205 O207 1.279 . S
O206 Cd198 2.223 . S
O206 C205 1.315 . S
O207 Cd197 2.240 . S
O207 C205 1.279 . S
O208 Cd198 2.297 . S
O208 C203 1.247 . S
O209 Cd198 2.439 . S
O209 C203 1.208 . S
O210 Cd211 2.223 . S
O210 C218 1.315 . S
Cd211 O210 2.223 . S
Cd211 O214 2.297 . S
Cd211 O215 2.439 . S
Cd211 O221 2.240 . S
Cd212 O213 2.240 . S
Cd212 O220 2.223 . S
Cd212 O222 2.297 . S
Cd212 O223 2.439 . S
O213 Cd212 2.240 . S
O213 C218 1.279 . S
O214 Cd211 2.297 . S
O214 C216 1.247 . S
O215 Cd211 2.439 . S
O215 C216 1.208 . S
C216 O214 1.247 . S
C216 O215 1.208 . S
C217 O222 1.247 . S
C217 O223 1.208 . S
C218 O210 1.315 . S
C218 O213 1.279 . S
C219 O220 1.315 . S
C219 O221 1.279 . S
O220 Cd212 2.223 . S
O220 C219 1.315 . S
O221 Cd211 2.240 . S
O221 C219 1.279 . S
O222 Cd212 2.297 . S
O222 C217 1.247 . S
O223 Cd212 2.439 . S
O223 C217 1.208 . S
O224 Cd225 2.223 . S
O224 C232 1.315 . S
Cd225 O224 2.223 . S
Cd225 O228 2.297 . S
Cd225 O229 2.439 . S
Cd225 O235 2.240 . S
Cd226 O227 2.240 . S
Cd226 O234 2.223 . S
Cd226 O236 2.297 . S
Cd226 O237 2.439 . S
O227 Cd226 2.240 . S
O227 C232 1.279 . S
O228 Cd225 2.297 . S
O228 C230 1.247 . S
O229 Cd225 2.439 . S
O229 C230 1.208 . S
C230 O228 1.247 . S
C230 O229 1.208 . S
C231 O236 1.247 . S
C231 O237 1.208 . S
C232 O224 1.315 . S
C232 O227 1.279 . S
C233 O234 1.315 . S
C233 O235 1.279 . S
O234 Cd226 2.223 . S
O234 C233 1.315 . S
O235 Cd225 2.240 . S
O235 C233 1.279 . S
O236 Cd226 2.297 . S
O236 C231 1.247 . S
O237 Cd226 2.439 . S
O237 C231 1.208 . S
O238 Cd239 2.223 . S
O238 C246 1.315 . S
Cd239 O238 2.223 . S
Cd239 O242 2.297 . S
Cd239 O243 2.439 . S
Cd239 O249 2.240 . S
Cd240 O241 2.240 . S
Cd240 O248 2.223 . S
Cd240 O250 2.297 . S
Cd240 O251 2.439 . S
O241 Cd240 2.240 . S
O241 C246 1.279 . S
O242 Cd239 2.297 . S
O242 C244 1.247 . S
O243 Cd239 2.439 . S
O243 C244 1.208 . S
C244 O242 1.247 . S
C244 O243 1.208 . S
C245 O250 1.247 . S
C245 O251 1.208 . S
C246 O238 1.315 . S
C246 O241 1.279 . S
C247 O248 1.315 . S
C247 O249 1.279 . S
O248 Cd240 2.223 . S
O248 C247 1.315 . S
O249 Cd239 2.240 . S
O249 C247 1.279 . S
O250 Cd240 2.297 . S
O250 C245 1.247 . S
O251 Cd240 2.439 . S
O251 C245 1.208 . S
O252 Cd253 2.223 . S
O252 C260 1.315 . S
Cd253 O252 2.223 . S
Cd253 O256 2.297 . S
Cd253 O257 2.439 . S
Cd253 O263 2.240 . S
Cd254 O255 2.240 . S
Cd254 O262 2.223 . S
Cd254 O264 2.297 . S
Cd254 O265 2.439 . S
O255 Cd254 2.240 . S
O255 C260 1.279 . S
O256 Cd253 2.297 . S
O256 C258 1.247 . S
O257 Cd253 2.439 . S
O257 C258 1.208 . S
C258 O256 1.247 . S
C258 O257 1.208 . S
C259 O264 1.247 . S
C259 O265 1.208 . S
C260 O252 1.315 . S
C260 O255 1.279 . S
C261 O262 1.315 . S
C261 O263 1.279 . S
O262 Cd254 2.223 . S
O262 C261 1.315 . S
O263 Cd253 2.240 . S
O263 C261 1.279 . S
O264 Cd254 2.297 . S
O264 C259 1.247 . S
O265 Cd254 2.439 . S
O265 C259 1.208 . S
O266 Cd267 2.223 . S
O266 C274 1.315 . S
Cd267 O266 2.223 . S
Cd267 O270 2.297 . S
Cd267 O271 2.439 . S
Cd267 O277 2.240 . S
Cd268 O269 2.240 . S
Cd268 O276 2.223 . S
Cd268 O278 2.297 . S
Cd268 O279 2.439 . S
O269 Cd268 2.240 . S
O269 C274 1.279 . S
O270 Cd267 2.297 . S
O270 C272 1.247 . S
O271 Cd267 2.439 . S
O271 C272 1.208 . S
C272 O270 1.247 . S
C272 O271 1.208 . S
C273 O278 1.247 . S
C273 O279 1.208 . S
C274 O266 1.315 . S
C274 O269 1.279 . S
C275 O276 1.315 . S
C275 O277 1.279 . S
O276 Cd268 2.223 . S
O276 C275 1.315 . S
O277 Cd267 2.240 . S
O277 C275 1.279 . S
O278 Cd268 2.297 . S
O278 C273 1.247 . S
O279 Cd268 2.439 . S
O279 C273 1.208 . S
O280 Cd281 2.223 . S
O280 C288 1.315 . S
Cd281 O280 2.223 . S
Cd281 O284 2.297 . S
Cd281 O285 2.439 . S
Cd281 O291 2.240 . S
Cd282 O283 2.240 . S
Cd282 O290 2.223 . S
Cd282 O292 2.297 . S
Cd282 O293 2.439 . S
O283 Cd282 2.240 . S
O283 C288 1.279 . S
O284 Cd281 2.297 . S
O284 C286 1.247 . S
O285 Cd281 2.439 . S
O285 C286 1.208 . S
C286 O284 1.247 . S
C286 O285 1.208 . S
C287 O292 1.247 . S
C287 O293 1.208 . S
C288 O280 1.315 . S
C288 O283 1.279 . S
C289 O290 1.315 . S
C289 O291 1.279 . S
O290 Cd282 2.223 . S
O290 C289 1.315 . S
O291 Cd281 2.240 . S
O291 C289 1.279 . S
O292 Cd282 2.297 . S
O292 C287 1.247 . S
O293 Cd282 2.439 . S
O293 C287 1.208 . S
O294 Cd295 2.223 . S
O294 C302 1.315 . S
Cd295 O294 2.223 . S
Cd295 O298 2.297 . S
Cd295 O299 2.439 . S
Cd295 O305 2.240 . S
Cd296 O297 2.240 . S
Cd296 O304 2.223 . S
Cd296 O306 2.297 . S
Cd296 O307 2.439 . S
O297 Cd296 2.240 . S
O297 C302 1.279 . S
O298 Cd295 2.297 . S
O298 C300 1.247 . S
O299 Cd295 2.439 . S
O299 C300 1.208 . S
C300 O298 1.247 . S
C300 O299 1.208 . S
C301 O306 1.247 . S
C301 O307 1.208 . S
C302 O294 1.315 . S
C302 O297 1.279 . S
C303 O304 1.315 . S
C303 O305 1.279 . S
O304 Cd296 2.223 . S
O304 C303 1.315 . S
O305 Cd295 2.240 . S
O305 C303 1.279 . S
O306 Cd296 2.297 . S
O306 C301 1.247 . S
O307 Cd296 2.439 . S
O307 C301 1.208 . S
O308 Cd309 2.223 . S
O308 C316 1.315 . S
Cd309 O308 2.223 . S
Cd309 O312 2.297 . S
Cd309 O313 2.439 . S
Cd309 O319 2.240 . S
Cd310 O311 2.240 . S
Cd310 O318 2.223 . S
Cd310 O320 2.297 . S
Cd310 O321 2.439 . S
O311 Cd310 2.240 . S
O311 C316 1.279 . S
O312 Cd309 2.297 . S
O312 C314 1.247 . S
O313 Cd309 2.439 . S
O313 C314 1.208 . S
C314 O312 1.247 . S
C314 O313 1.208 . S
C315 O320 1.247 . S
C315 O321 1.208 . S
C316 O308 1.315 . S
C316 O311 1.279 . S
C317 O318 1.315 . S
C317 O319 1.279 . S
O318 Cd310 2.223 . S
O318 C317 1.315 . S
O319 Cd309 2.240 . S
O319 C317 1.279 . S
O320 Cd310 2.297 . S
O320 C315 1.247 . S
O321 Cd310 2.439 . S
O321 C315 1.208 . S
O322 Cd323 2.223 . S
O322 C330 1.315 . S
Cd323 O322 2.223 . S
Cd323 O326 2.297 . S
Cd323 O327 2.439 . S
Cd323 O333 2.240 . S
Cd324 O325 2.240 . S
Cd324 O332 2.223 . S
Cd324 O334 2.297 . S
Cd324 O335 2.439 . S
O325 Cd324 2.240 . S
O325 C330 1.279 . S
O326 Cd323 2.297 . S
O326 C328 1.247 . S
O327 Cd323 2.439 . S
O327 C328 1.208 . S
C328 O326 1.247 . S
C328 O327 1.208 . S
C329 O334 1.247 . S
C329 O335 1.208 . S
C330 O322 1.315 . S
C330 O325 1.279 . S
C331 O332 1.315 . S
C331 O333 1.279 . S
O332 Cd324 2.223 . S
O332 C331 1.315 . S
O333 Cd323 2.240 . S
O333 C331 1.279 . S
O334 Cd324 2.297 . S
O334 C329 1.247 . S
O335 Cd324 2.439 . S
O335 C329 1.208 . S
O336 Cd337 2.223 . S
O336 C344 1.315 . S
Cd337 O336 2.223 . S
Cd337 O340 2.297 . S
Cd337 O341 2.439 . S
Cd337 O347 2.240 . S
Cd338 O339 2.240 . S
Cd338 O346 2.223 . S
Cd338 O348 2.297 . S
Cd338 O349 2.439 . S
O339 Cd338 2.240 . S
O339 C344 1.279 . S
O340 Cd337 2.297 . S
O340 C342 1.247 . S
O341 Cd337 2.439 . S
O341 C342 1.208 . S
C342 O340 1.247 . S
C342 O341 1.208 . S
C343 O348 1.247 . S
C343 O349 1.208 . S
C344 O336 1.315 . S
C344 O339 1.279 . S
C345 O346 1.315 . S
C345 O347 1.279 . S
O346 Cd338 2.223 . S
O346 C345 1.315 . S
O347 Cd337 2.240 . S
O347 C345 1.279 . S
O348 Cd338 2.297 . S
O348 C343 1.247 . S
O349 Cd338 2.439 . S
O349 C343 1.208 . S
O350 Cd351 2.223 . S
O350 C358 1.315 . S
Cd351 O350 2.223 . S
Cd351 O354 2.297 . S
Cd351 O355 2.439 . S
Cd351 O361 2.240 . S
Cd352 O353 2.240 . S
Cd352 O360 2.223 . S
Cd352 O362 2.297 . S
Cd352 O363 2.439 . S
O353 Cd352 2.240 . S
O353 C358 1.279 . S
O354 Cd351 2.297 . S
O354 C356 1.247 . S
O355 Cd351 2.439 . S
O355 C356 1.208 . S
C356 O354 1.247 . S
C356 O355 1.208 . S
C357 O362 1.247 . S
C357 O363 1.208 . S
C358 O350 1.315 . S
C358 O353 1.279 . S
C359 O360 1.315 . S
C359 O361 1.279 . S
O360 Cd352 2.223 . S
O360 C359 1.315 . S
O361 Cd351 2.240 . S
O361 C359 1.279 . S
O362 Cd352 2.297 . S
O362 C357 1.247 . S
O363 Cd352 2.439 . S
O363 C357 1.208 . S
O364 Cd365 2.223 . S
O364 C372 1.315 . S
Cd365 O364 2.223 . S
Cd365 O368 2.297 . S
Cd365 O369 2.439 . S
Cd365 O375 2.240 . S
Cd366 O367 2.240 . S
Cd366 O374 2.223 . S
Cd366 O376 2.297 . S
Cd366 O377 2.439 . S
O367 Cd366 2.240 . S
O367 C372 1.279 . S
O368 Cd365 2.297 . S
O368 C370 1.247 . S
O369 Cd365 2.439 . S
O369 C370 1.208 . S
C370 O368 1.247 . S
C370 O369 1.208 . S
C371 O376 1.247 . S
C371 O377 1.208 . S
C372 O364 1.315 . S
C372 O367 1.279 . S
C373 O374 1.315 . S
C373 O375 1.279 . S
O374 Cd366 2.223 . S
O374 C373 1.315 . S
O375 Cd365 2.240 . S
O375 C373 1.279 . S
O376 Cd366 2.297 . S
O376 C371 1.247 . S
O377 Cd366 2.439 . S
O377 C371 1.208 . S
O378 Cd379 2.223 . S
O378 C386 1.315 . S
Cd379 O378 2.223 . S
Cd379 O382 2.297 . S
Cd379 O383 2.439 . S
Cd379 O389 2.240 . S
Cd380 O381 2.240 . S
Cd380 O388 2.223 . S
Cd380 O390 2.297 . S
Cd380 O391 2.439 . S
O381 Cd380 2.240 . S
O381 C386 1.279 . S
O382 Cd379 2.297 . S
O382 C384 1.247 . S
O383 Cd379 2.439 . S
O383 C384 1.208 . S
C384 O382 1.247 . S
C384 O383 1.208 . S
C385 O390 1.247 . S
C385 O391 1.208 . S
C386 O378 1.315 . S
C386 O381 1.279 . S
C387 O388 1.315 . S
C387 O389 1.279 . S
O388 Cd380 2.223 . S
O388 C387 1.315 . S
O389 Cd379 2.240 . S
O389 C387 1.279 . S
O390 Cd380 2.297 . S
O390 C385 1.247 . S
O391 Cd380 2.439 . S
O391 C385 1.208 . S
O392 Cd393 2.223 . S
O392 C400 1.315 . S
Cd393 O392 2.223 . S
Cd393 O396 2.297 . S
Cd393 O397 2.439 . S
Cd393 O403 2.240 . S
Cd394 O395 2.240 . S
Cd394 O402 2.223 . S
Cd394 O404 2.297 . S
Cd394 O405 2.439 . S
O395 Cd394 2.240 . S
O395 C400 1.279 . S
O396 Cd393 2.297 . S
O396 C398 1.247 . S
O397 Cd393 2.439 . S
O397 C398 1.208 . S
C398 O396 1.247 . S
C398 O397 1.208 . S
C399 O404 1.247 . S
C399 O405 1.208 . S
C400 O392 1.315 . S
C400 O395 1.279 . S
C401 O402 1.315 . S
C401 O403 1.279 . S
O402 Cd394 2.223 . S
O402 C401 1.315 . S
O403 Cd393 2.240 . S
O403 C401 1.279 . S
O404 Cd394 2.297 . S
O404 C399 1.247 . S
O405 Cd394 2.439 . S
O405 C399 1.208 . S
O406 Cd407 2.223 . S
O406 C414 1.315 . S
Cd407 O406 2.223 . S
Cd407 O410 2.297 . S
Cd407 O411 2.439 . S
Cd407 O417 2.240 . S
Cd408 O409 2.240 . S
Cd408 O416 2.223 . S
Cd408 O418 2.297 . S
Cd408 O419 2.439 . S
O409 Cd408 2.240 . S
O409 C414 1.279 . S
O410 Cd407 2.297 . S
O410 C412 1.247 . S
O411 Cd407 2.439 . S
O411 C412 1.208 . S
C412 O410 1.247 . S
C412 O411 1.208 . S
C413 O418 1.247 . S
C413 O419 1.208 . S
C414 O406 1.315 . S
C414 O409 1.279 . S
C415 O416 1.315 . S
C415 O417 1.279 . S
O416 Cd408 2.223 . S
O416 C415 1.315 . S
O417 Cd407 2.240 . S
O417 C415 1.279 . S
O418 Cd408 2.297 . S
O418 C413 1.247 . S
O419 Cd408 2.439 . S
O419 C413 1.208 . S
O420 Cd421 2.223 . S
O420 C428 1.315 . S
Cd421 O420 2.223 . S
Cd421 O424 2.297 . S
Cd421 O425 2.439 . S
Cd421 O431 2.240 . S
Cd422 O423 2.240 . S
Cd422 O430 2.223 . S
Cd422 O432 2.297 . S
Cd422 O433 2.439 . S
O423 Cd422 2.240 . S
O423 C428 1.279 . S
O424 Cd421 2.297 . S
O424 C426 1.247 . S
O425 Cd421 2.439 . S
O425 C426 1.208 . S
C426 O424 1.247 . S
C426 O425 1.208 . S
C427 O432 1.247 . S
C427 O433 1.208 . S
C428 O420 1.315 . S
C428 O423 1.279 . S
C429 O430 1.315 . S
C429 O431 1.279 . S
O430 Cd422 2.223 . S
O430 C429 1.315 . S
O431 Cd421 2.240 . S
O431 C429 1.279 . S
O432 Cd422 2.297 . S
O432 C427 1.247 . S
O433 Cd422 2.439 . S
O433 C427 1.208 . S
O434 Cd435 2.223 . S
O434 C442 1.315 . S
Cd435 O434 2.223 . S
Cd435 O438 2.297 . S
Cd435 O439 2.439 . S
Cd435 O445 2.240 . S
Cd436 O437 2.240 . S
Cd436 O444 2.223 . S
Cd436 O446 2.297 . S
Cd436 O447 2.439 . S
O437 Cd436 2.240 . S
O437 C442 1.279 . S
O438 Cd435 2.297 . S
O438 C440 1.247 . S
O439 Cd435 2.439 . S
O439 C440 1.208 . S
C440 O438 1.247 . S
C440 O439 1.208 . S
C441 O446 1.247 . S
C441 O447 1.208 . S
C442 O434 1.315 . S
C442 O437 1.279 . S
C443 O444 1.315 . S
C443 O445 1.279 . S
O444 Cd436 2.223 . S
O444 C443 1.315 . S
O445 Cd435 2.240 . S
O445 C443 1.279 . S
O446 Cd436 2.297 . S
O446 C441 1.247 . S
O447 Cd436 2.439 . S
O447 C441 1.208 . S
H448 C456 0.929 . S
H449 C458 0.930 . S
H450 C460 0.930 . S
H451 C463 0.929 . S
H452 C466 0.930 . S
H453 C468 0.960 . S
H454 C468 0.960 . S
H455 C468 0.960 . S
C456 H448 0.929 . S
C456 C457 1.377 . S
C456 C458 1.384 . S
C457 C456 1.377 . S
C457 C463 1.390 . S
C458 H449 0.930 . S
C458 C456 1.384 . S
C458 C459 1.372 . S
C459 C458 1.372 . S
C459 C460 1.400 . S
C459 C464 1.490 . S
C460 H450 0.930 . S
C460 C459 1.400 . S
C460 C463 1.386 . S
H461 C477 0.930 . S
H462 C478 0.931 . S
C463 H451 0.929 . S
C463 C457 1.390 . S
C463 C460 1.386 . S
C464 C459 1.490 . S
C464 C466 1.395 . S
C464 C467 1.403 . S
H465 C471 0.930 . S
C466 H452 0.930 . S
C466 C464 1.395 . S
C466 C469 1.403 . S
C467 C464 1.403 . S
C467 C468 1.524 . S
C467 C471 1.400 . S
C468 H453 0.960 . S
C468 H454 0.960 . S
C468 H455 0.960 . S
C468 C467 1.524 . S
C469 C466 1.403 . S
C469 C470 1.392 . S
C469 C473 1.495 . S
C470 C469 1.392 . S
C470 C471 1.385 . S
C470 C472 1.478 . S
C471 H465 0.930 . S
C471 C467 1.400 . S
C471 C470 1.385 . S
C472 C470 1.478 . S
C472 C474 1.381 . S
C472 C478 1.383 . S
C473 C469 1.495 . S
C473 H479 0.959 . S
C473 H480 0.961 . S
C473 H481 0.960 . S
C474 C472 1.381 . S
C474 C475 1.394 . S
C474 H482 0.930 . S
C475 C474 1.394 . S
C475 C476 1.383 . S
C475 H483 0.929 . S
C476 C475 1.383 . S
C476 C477 1.377 . S
C477 H461 0.930 . S
C477 C476 1.377 . S
C477 C478 1.379 . S
C478 H462 0.931 . S
C478 C472 1.383 . S
C478 C477 1.379 . S
H479 C473 0.959 . S
H480 C473 0.961 . S
H481 C473 0.960 . S
H482 C474 0.930 . S
H483 C475 0.929 . S
H484 C492 0.929 . S
H485 C494 0.930 . S
H486 C496 0.930 . S
H487 C499 0.929 . S
H488 C502 0.930 . S
H489 C504 0.960 . S
H490 C504 0.960 . S
H491 C504 0.960 . S
C492 H484 0.929 . S
C492 C493 1.377 . S
C492 C494 1.384 . S
C493 C492 1.377 . S
C493 C499 1.390 . S
C494 H485 0.930 . S
C494 C492 1.384 . S
C494 C495 1.372 . S
C495 C494 1.372 . S
C495 C496 1.400 . S
C495 C500 1.490 . S
C496 H486 0.930 . S
C496 C495 1.400 . S
C496 C499 1.386 . S
H497 C513 0.930 . S
H498 C514 0.931 . S
C499 H487 0.929 . S
C499 C493 1.390 . S
C499 C496 1.386 . S
C500 C495 1.490 . S
C500 C502 1.395 . S
C500 C503 1.403 . S
H501 C507 0.930 . S
C502 H488 0.930 . S
C502 C500 1.395 . S
C502 C505 1.403 . S
C503 C500 1.403 . S
C503 C504 1.524 . S
C503 C507 1.400 . S
C504 H489 0.960 . S
C504 H490 0.960 . S
C504 H491 0.960 . S
C504 C503 1.524 . S
C505 C502 1.403 . S
C505 C506 1.392 . S
C505 C509 1.495 . S
C506 C505 1.392 . S
C506 C507 1.385 . S
C506 C508 1.478 . S
C507 H501 0.930 . S
C507 C503 1.400 . S
C507 C506 1.385 . S
C508 C506 1.478 . S
C508 C510 1.381 . S
C508 C514 1.383 . S
C509 C505 1.495 . S
C509 H515 0.959 . S
C509 H516 0.961 . S
C509 H517 0.960 . S
C510 C508 1.381 . S
C510 C511 1.394 . S
C510 H518 0.930 . S
C511 C510 1.394 . S
C511 C512 1.383 . S
C511 H519 0.929 . S
C512 C511 1.383 . S
C512 C513 1.377 . S
C513 H497 0.930 . S
C513 C512 1.377 . S
C513 C514 1.379 . S
C514 H498 0.931 . S
C514 C508 1.383 . S
C514 C513 1.379 . S
H515 C509 0.959 . S
H516 C509 0.961 . S
H517 C509 0.960 . S
H518 C510 0.930 . S
H519 C511 0.929 . S
H520 C528 0.929 . S
H521 C530 0.930 . S
H522 C532 0.930 . S
H523 C535 0.929 . S
H524 C538 0.930 . S
H525 C540 0.960 . S
H526 C540 0.960 . S
H527 C540 0.960 . S
C528 H520 0.929 . S
C528 C529 1.377 . S
C528 C530 1.384 . S
C529 C528 1.377 . S
C529 C535 1.390 . S
C530 H521 0.930 . S
C530 C528 1.384 . S
C530 C531 1.372 . S
C531 C530 1.372 . S
C531 C532 1.400 . S
C531 C536 1.490 . S
C532 H522 0.930 . S
C532 C531 1.400 . S
C532 C535 1.386 . S
H533 C549 0.930 . S
H534 C550 0.931 . S
C535 H523 0.929 . S
C535 C529 1.390 . S
C535 C532 1.386 . S
C536 C531 1.490 . S
C536 C538 1.395 . S
C536 C539 1.403 . S
H537 C543 0.930 . S
C538 H524 0.930 . S
C538 C536 1.395 . S
C538 C541 1.403 . S
C539 C536 1.403 . S
C539 C540 1.524 . S
C539 C543 1.400 . S
C540 H525 0.960 . S
C540 H526 0.960 . S
C540 H527 0.960 . S
C540 C539 1.524 . S
C541 C538 1.403 . S
C541 C542 1.392 . S
C541 C545 1.495 . S
C542 C541 1.392 . S
C542 C543 1.385 . S
C542 C544 1.478 . S
C543 H537 0.930 . S
C543 C539 1.400 . S
C543 C542 1.385 . S
C544 C542 1.478 . S
C544 C546 1.381 . S
C544 C550 1.383 . S
C545 C541 1.495 . S
C545 H551 0.959 . S
C545 H552 0.961 . S
C545 H553 0.960 . S
C546 C544 1.381 . S
C546 C547 1.394 . S
C546 H554 0.930 . S
C547 C546 1.394 . S
C547 C548 1.383 . S
C547 H555 0.929 . S
C548 C547 1.383 . S
C548 C549 1.377 . S
C549 H533 0.930 . S
C549 C548 1.377 . S
C549 C550 1.379 . S
C550 H534 0.931 . S
C550 C544 1.383 . S
C550 C549 1.379 . S
H551 C545 0.959 . S
H552 C545 0.961 . S
H553 C545 0.960 . S
H554 C546 0.930 . S
H555 C547 0.929 . S
H556 C564 0.929 . S
H557 C566 0.930 . S
H558 C568 0.930 . S
H559 C571 0.929 . S
H560 C574 0.930 . S
H561 C576 0.960 . S
H562 C576 0.960 . S
H563 C576 0.960 . S
C564 H556 0.929 . S
C564 C565 1.377 . S
C564 C566 1.384 . S
C565 C564 1.377 . S
C565 C571 1.390 . S
C566 H557 0.930 . S
C566 C564 1.384 . S
C566 C567 1.372 . S
C567 C566 1.372 . S
C567 C568 1.400 . S
C567 C572 1.490 . S
C568 H558 0.930 . S
C568 C567 1.400 . S
C568 C571 1.386 . S
H569 C585 0.930 . S
H570 C586 0.931 . S
C571 H559 0.929 . S
C571 C565 1.390 . S
C571 C568 1.386 . S
C572 C567 1.490 . S
C572 C574 1.395 . S
C572 C575 1.403 . S
H573 C579 0.930 . S
C574 H560 0.930 . S
C574 C572 1.395 . S
C574 C577 1.403 . S
C575 C572 1.403 . S
C575 C576 1.524 . S
C575 C579 1.400 . S
C576 H561 0.960 . S
C576 H562 0.960 . S
C576 H563 0.960 . S
C576 C575 1.524 . S
C577 C574 1.403 . S
C577 C578 1.392 . S
C577 C581 1.495 . S
C578 C577 1.392 . S
C578 C579 1.385 . S
C578 C580 1.478 . S
C579 H573 0.930 . S
C579 C575 1.400 . S
C579 C578 1.385 . S
C580 C578 1.478 . S
C580 C582 1.381 . S
C580 C586 1.383 . S
C581 C577 1.495 . S
C581 H587 0.959 . S
C581 H588 0.961 . S
C581 H589 0.960 . S
C582 C580 1.381 . S
C582 C583 1.394 . S
C582 H590 0.930 . S
C583 C582 1.394 . S
C583 C584 1.383 . S
C583 H591 0.929 . S
C584 C583 1.383 . S
C584 C585 1.377 . S
C585 H569 0.930 . S
C585 C584 1.377 . S
C585 C586 1.379 . S
C586 H570 0.931 . S
C586 C580 1.383 . S
C586 C585 1.379 . S
H587 C581 0.959 . S
H588 C581 0.961 . S
H589 C581 0.960 . S
H590 C582 0.930 . S
H591 C583 0.929 . S
H592 C600 0.929 . S
H593 C602 0.930 . S
H594 C604 0.930 . S
H595 C607 0.929 . S
H596 C610 0.930 . S
H597 C612 0.960 . S
H598 C612 0.960 . S
H599 C612 0.960 . S
C600 H592 0.929 . S
C600 C601 1.377 . S
C600 C602 1.384 . S
C601 C600 1.377 . S
C601 C607 1.390 . S
C602 H593 0.930 . S
C602 C600 1.384 . S
C602 C603 1.372 . S
C603 C602 1.372 . S
C603 C604 1.400 . S
C603 C608 1.490 . S
C604 H594 0.930 . S
C604 C603 1.400 . S
C604 C607 1.386 . S
H605 C621 0.930 . S
H606 C622 0.931 . S
C607 H595 0.929 . S
C607 C601 1.390 . S
C607 C604 1.386 . S
C608 C603 1.490 . S
C608 C610 1.395 . S
C608 C611 1.403 . S
H609 C615 0.930 . S
C610 H596 0.930 . S
C610 C608 1.395 . S
C610 C613 1.403 . S
C611 C608 1.403 . S
C611 C612 1.524 . S
C611 C615 1.400 . S
C612 H597 0.960 . S
C612 H598 0.960 . S
C612 H599 0.960 . S
C612 C611 1.524 . S
C613 C610 1.403 . S
C613 C614 1.392 . S
C613 C617 1.495 . S
C614 C613 1.392 . S
C614 C615 1.385 . S
C614 C616 1.478 . S
C615 H609 0.930 . S
C615 C611 1.400 . S
C615 C614 1.385 . S
C616 C614 1.478 . S
C616 C618 1.381 . S
C616 C622 1.383 . S
C617 C613 1.495 . S
C617 H623 0.959 . S
C617 H624 0.961 . S
C617 H625 0.960 . S
C618 C616 1.381 . S
C618 C619 1.394 . S
C618 H626 0.930 . S
C619 C618 1.394 . S
C619 C620 1.383 . S
C619 H627 0.929 . S
C620 C619 1.383 . S
C620 C621 1.377 . S
C621 H605 0.930 . S
C621 C620 1.377 . S
C621 C622 1.379 . S
C622 H606 0.931 . S
C622 C616 1.383 . S
C622 C621 1.379 . S
H623 C617 0.959 . S
H624 C617 0.961 . S
H625 C617 0.960 . S
H626 C618 0.930 . S
H627 C619 0.929 . S
H628 C636 0.929 . S
H629 C638 0.930 . S
H630 C640 0.930 . S
H631 C643 0.929 . S
H632 C646 0.930 . S
H633 C648 0.960 . S
H634 C648 0.960 . S
H635 C648 0.960 . S
C636 H628 0.929 . S
C636 C637 1.377 . S
C636 C638 1.384 . S
C637 C636 1.377 . S
C637 C643 1.390 . S
C638 H629 0.930 . S
C638 C636 1.384 . S
C638 C639 1.372 . S
C639 C638 1.372 . S
C639 C640 1.400 . S
C639 C644 1.490 . S
C640 H630 0.930 . S
C640 C639 1.400 . S
C640 C643 1.386 . S
H641 C657 0.930 . S
H642 C658 0.931 . S
C643 H631 0.929 . S
C643 C637 1.390 . S
C643 C640 1.386 . S
C644 C639 1.490 . S
C644 C646 1.395 . S
C644 C647 1.403 . S
H645 C651 0.930 . S
C646 H632 0.930 . S
C646 C644 1.395 . S
C646 C649 1.403 . S
C647 C644 1.403 . S
C647 C648 1.524 . S
C647 C651 1.400 . S
C648 H633 0.960 . S
C648 H634 0.960 . S
C648 H635 0.960 . S
C648 C647 1.524 . S
C649 C646 1.403 . S
C649 C650 1.392 . S
C649 C653 1.495 . S
C650 C649 1.392 . S
C650 C651 1.385 . S
C650 C652 1.478 . S
C651 H645 0.930 . S
C651 C647 1.400 . S
C651 C650 1.385 . S
C652 C650 1.478 . S
C652 C654 1.381 . S
C652 C658 1.383 . S
C653 C649 1.495 . S
C653 H659 0.959 . S
C653 H660 0.961 . S
C653 H661 0.960 . S
C654 C652 1.381 . S
C654 C655 1.394 . S
C654 H662 0.930 . S
C655 C654 1.394 . S
C655 C656 1.383 . S
C655 H663 0.929 . S
C656 C655 1.383 . S
C656 C657 1.377 . S
C657 H641 0.930 . S
C657 C656 1.377 . S
C657 C658 1.379 . S
C658 H642 0.931 . S
C658 C652 1.383 . S
C658 C657 1.379 . S
H659 C653 0.959 . S
H660 C653 0.961 . S
H661 C653 0.960 . S
H662 C654 0.930 . S
H663 C655 0.929 . S
H664 C672 0.929 . S
H665 C674 0.930 . S
H666 C676 0.930 . S
H667 C679 0.929 . S
H668 C682 0.930 . S
H669 C684 0.960 . S
H670 C684 0.960 . S
H671 C684 0.960 . S
C672 H664 0.929 . S
C672 C673 1.377 . S
C672 C674 1.384 . S
C673 C672 1.377 . S
C673 C679 1.390 . S
C674 H665 0.930 . S
C674 C672 1.384 . S
C674 C675 1.372 . S
C675 C674 1.372 . S
C675 C676 1.400 . S
C675 C680 1.490 . S
C676 H666 0.930 . S
C676 C675 1.400 . S
C676 C679 1.386 . S
H677 C693 0.930 . S
H678 C694 0.931 . S
C679 H667 0.929 . S
C679 C673 1.390 . S
C679 C676 1.386 . S
C680 C675 1.490 . S
C680 C682 1.395 . S
C680 C683 1.403 . S
H681 C687 0.930 . S
C682 H668 0.930 . S
C682 C680 1.395 . S
C682 C685 1.403 . S
C683 C680 1.403 . S
C683 C684 1.524 . S
C683 C687 1.400 . S
C684 H669 0.960 . S
C684 H670 0.960 . S
C684 H671 0.960 . S
C684 C683 1.524 . S
C685 C682 1.403 . S
C685 C686 1.392 . S
C685 C689 1.495 . S
C686 C685 1.392 . S
C686 C687 1.385 . S
C686 C688 1.478 . S
C687 H681 0.930 . S
C687 C683 1.400 . S
C687 C686 1.385 . S
C688 C686 1.478 . S
C688 C690 1.381 . S
C688 C694 1.383 . S
C689 C685 1.495 . S
C689 H695 0.959 . S
C689 H696 0.961 . S
C689 H697 0.960 . S
C690 C688 1.381 . S
C690 C691 1.394 . S
C690 H698 0.930 . S
C691 C690 1.394 . S
C691 C692 1.383 . S
C691 H699 0.929 . S
C692 C691 1.383 . S
C692 C693 1.377 . S
C693 H677 0.930 . S
C693 C692 1.377 . S
C693 C694 1.379 . S
C694 H678 0.931 . S
C694 C688 1.383 . S
C694 C693 1.379 . S
H695 C689 0.959 . S
H696 C689 0.961 . S
H697 C689 0.960 . S
H698 C690 0.930 . S
H699 C691 0.929 . S
H700 C708 0.929 . S
H701 C710 0.930 . S
H702 C712 0.930 . S
H703 C715 0.929 . S
H704 C718 0.930 . S
H705 C720 0.960 . S
H706 C720 0.960 . S
H707 C720 0.960 . S
C708 H700 0.929 . S
C708 C709 1.377 . S
C708 C710 1.384 . S
C709 C708 1.377 . S
C709 C715 1.390 . S
C710 H701 0.930 . S
C710 C708 1.384 . S
C710 C711 1.372 . S
C711 C710 1.372 . S
C711 C712 1.400 . S
C711 C716 1.490 . S
C712 H702 0.930 . S
C712 C711 1.400 . S
C712 C715 1.386 . S
H713 C729 0.930 . S
H714 C730 0.931 . S
C715 H703 0.929 . S
C715 C709 1.390 . S
C715 C712 1.386 . S
C716 C711 1.490 . S
C716 C718 1.395 . S
C716 C719 1.403 . S
H717 C723 0.930 . S
C718 H704 0.930 . S
C718 C716 1.395 . S
C718 C721 1.403 . S
C719 C716 1.403 . S
C719 C720 1.524 . S
C719 C723 1.400 . S
C720 H705 0.960 . S
C720 H706 0.960 . S
C720 H707 0.960 . S
C720 C719 1.524 . S
C721 C718 1.403 . S
C721 C722 1.392 . S
C721 C725 1.495 . S
C722 C721 1.392 . S
C722 C723 1.385 . S
C722 C724 1.478 . S
C723 H717 0.930 . S
C723 C719 1.400 . S
C723 C722 1.385 . S
C724 C722 1.478 . S
C724 C726 1.381 . S
C724 C730 1.383 . S
C725 C721 1.495 . S
C725 H731 0.959 . S
C725 H732 0.961 . S
C725 H733 0.960 . S
C726 C724 1.381 . S
C726 C727 1.394 . S
C726 H734 0.930 . S
C727 C726 1.394 . S
C727 C728 1.383 . S
C727 H735 0.929 . S
C728 C727 1.383 . S
C728 C729 1.377 . S
C729 H713 0.930 . S
C729 C728 1.377 . S
C729 C730 1.379 . S
C730 H714 0.931 . S
C730 C724 1.383 . S
C730 C729 1.379 . S
H731 C725 0.959 . S
H732 C725 0.961 . S
H733 C725 0.960 . S
H734 C726 0.930 . S
H735 C727 0.929 . S
H736 C744 0.929 . S
H737 C746 0.930 . S
H738 C748 0.930 . S
H739 C751 0.929 . S
H740 C754 0.930 . S
H741 C756 0.960 . S
H742 C756 0.960 . S
H743 C756 0.960 . S
C744 H736 0.929 . S
C744 C745 1.377 . S
C744 C746 1.384 . S
C745 C744 1.377 . S
C745 C751 1.390 . S
C746 H737 0.930 . S
C746 C744 1.384 . S
C746 C747 1.372 . S
C747 C746 1.372 . S
C747 C748 1.400 . S
C747 C752 1.490 . S
C748 H738 0.930 . S
C748 C747 1.400 . S
C748 C751 1.386 . S
H749 C765 0.930 . S
H750 C766 0.931 . S
C751 H739 0.929 . S
C751 C745 1.390 . S
C751 C748 1.386 . S
C752 C747 1.490 . S
C752 C754 1.395 . S
C752 C755 1.403 . S
H753 C759 0.930 . S
C754 H740 0.930 . S
C754 C752 1.395 . S
C754 C757 1.403 . S
C755 C752 1.403 . S
C755 C756 1.524 . S
C755 C759 1.400 . S
C756 H741 0.960 . S
C756 H742 0.960 . S
C756 H743 0.960 . S
C756 C755 1.524 . S
C757 C754 1.403 . S
C757 C758 1.392 . S
C757 C761 1.495 . S
C758 C757 1.392 . S
C758 C759 1.385 . S
C758 C760 1.478 . S
C759 H753 0.930 . S
C759 C755 1.400 . S
C759 C758 1.385 . S
C760 C758 1.478 . S
C760 C762 1.381 . S
C760 C766 1.383 . S
C761 C757 1.495 . S
C761 H767 0.959 . S
C761 H768 0.961 . S
C761 H769 0.960 . S
C762 C760 1.381 . S
C762 C763 1.394 . S
C762 H770 0.930 . S
C763 C762 1.394 . S
C763 C764 1.383 . S
C763 H771 0.929 . S
C764 C763 1.383 . S
C764 C765 1.377 . S
C765 H749 0.930 . S
C765 C764 1.377 . S
C765 C766 1.379 . S
C766 H750 0.931 . S
C766 C760 1.383 . S
C766 C765 1.379 . S
H767 C761 0.959 . S
H768 C761 0.961 . S
H769 C761 0.960 . S
H770 C762 0.930 . S
H771 C763 0.929 . S
H772 C780 0.929 . S
H773 C782 0.930 . S
H774 C784 0.930 . S
H775 C787 0.929 . S
H776 C790 0.930 . S
H777 C792 0.960 . S
H778 C792 0.960 . S
H779 C792 0.960 . S
C780 H772 0.929 . S
C780 C781 1.377 . S
C780 C782 1.384 . S
C781 C780 1.377 . S
C781 C787 1.390 . S
C782 H773 0.930 . S
C782 C780 1.384 . S
C782 C783 1.372 . S
C783 C782 1.372 . S
C783 C784 1.400 . S
C783 C788 1.490 . S
C784 H774 0.930 . S
C784 C783 1.400 . S
C784 C787 1.386 . S
H785 C801 0.930 . S
H786 C802 0.931 . S
C787 H775 0.929 . S
C787 C781 1.390 . S
C787 C784 1.386 . S
C788 C783 1.490 . S
C788 C790 1.395 . S
C788 C791 1.403 . S
H789 C795 0.930 . S
C790 H776 0.930 . S
C790 C788 1.395 . S
C790 C793 1.403 . S
C791 C788 1.403 . S
C791 C792 1.524 . S
C791 C795 1.400 . S
C792 H777 0.960 . S
C792 H778 0.960 . S
C792 H779 0.960 . S
C792 C791 1.524 . S
C793 C790 1.403 . S
C793 C794 1.392 . S
C793 C797 1.495 . S
C794 C793 1.392 . S
C794 C795 1.385 . S
C794 C796 1.478 . S
C795 H789 0.930 . S
C795 C791 1.400 . S
C795 C794 1.385 . S
C796 C794 1.478 . S
C796 C798 1.381 . S
C796 C802 1.383 . S
C797 C793 1.495 . S
C797 H803 0.959 . S
C797 H804 0.961 . S
C797 H805 0.960 . S
C798 C796 1.381 . S
C798 C799 1.394 . S
C798 H806 0.930 . S
C799 C798 1.394 . S
C799 C800 1.383 . S
C799 H807 0.929 . S
C800 C799 1.383 . S
C800 C801 1.377 . S
C801 H785 0.930 . S
C801 C800 1.377 . S
C801 C802 1.379 . S
C802 H786 0.931 . S
C802 C796 1.383 . S
C802 C801 1.379 . S
H803 C797 0.959 . S
H804 C797 0.961 . S
H805 C797 0.960 . S
H806 C798 0.930 . S
H807 C799 0.929 . S
H808 C816 0.929 . S
H809 C818 0.930 . S
H810 C820 0.930 . S
H811 C823 0.929 . S
H812 C826 0.930 . S
H813 C828 0.960 . S
H814 C828 0.960 . S
H815 C828 0.960 . S
C816 H808 0.929 . S
C816 C817 1.377 . S
C816 C818 1.384 . S
C817 C816 1.377 . S
C817 C823 1.390 . S
C818 H809 0.930 . S
C818 C816 1.384 . S
C818 C819 1.372 . S
C819 C818 1.372 . S
C819 C820 1.400 . S
C819 C824 1.490 . S
C820 H810 0.930 . S
C820 C819 1.400 . S
C820 C823 1.386 . S
H821 C837 0.930 . S
H822 C838 0.931 . S
C823 H811 0.929 . S
C823 C817 1.390 . S
C823 C820 1.386 . S
C824 C819 1.490 . S
C824 C826 1.395 . S
C824 C827 1.403 . S
H825 C831 0.930 . S
C826 H812 0.930 . S
C826 C824 1.395 . S
C826 C829 1.403 . S
C827 C824 1.403 . S
C827 C828 1.524 . S
C827 C831 1.400 . S
C828 H813 0.960 . S
C828 H814 0.960 . S
C828 H815 0.960 . S
C828 C827 1.524 . S
C829 C826 1.403 . S
C829 C830 1.392 . S
C829 C833 1.495 . S
C830 C829 1.392 . S
C830 C831 1.385 . S
C830 C832 1.478 . S
C831 H825 0.930 . S
C831 C827 1.400 . S
C831 C830 1.385 . S
C832 C830 1.478 . S
C832 C834 1.381 . S
C832 C838 1.383 . S
C833 C829 1.495 . S
C833 H839 0.959 . S
C833 H840 0.961 . S
C833 H841 0.960 . S
C834 C832 1.381 . S
C834 C835 1.394 . S
C834 H842 0.930 . S
C835 C834 1.394 . S
C835 C836 1.383 . S
C835 H843 0.929 . S
C836 C835 1.383 . S
C836 C837 1.377 . S
C837 H821 0.930 . S
C837 C836 1.377 . S
C837 C838 1.379 . S
C838 H822 0.931 . S
C838 C832 1.383 . S
C838 C837 1.379 . S
H839 C833 0.959 . S
H840 C833 0.961 . S
H841 C833 0.960 . S
H842 C834 0.930 . S
H843 C835 0.929 . S
H844 C852 0.929 . S
H845 C854 0.930 . S
H846 C856 0.930 . S
H847 C859 0.929 . S
H848 C862 0.930 . S
H849 C864 0.960 . S
H850 C864 0.960 . S
H851 C864 0.960 . S
C852 H844 0.929 . S
C852 C853 1.377 . S
C852 C854 1.384 . S
C853 C852 1.377 . S
C853 C859 1.390 . S
C854 H845 0.930 . S
C854 C852 1.384 . S
C854 C855 1.372 . S
C855 C854 1.372 . S
C855 C856 1.400 . S
C855 C860 1.490 . S
C856 H846 0.930 . S
C856 C855 1.400 . S
C856 C859 1.386 . S
H857 C873 0.930 . S
H858 C874 0.931 . S
C859 H847 0.929 . S
C859 C853 1.390 . S
C859 C856 1.386 . S
C860 C855 1.490 . S
C860 C862 1.395 . S
C860 C863 1.403 . S
H861 C867 0.930 . S
C862 H848 0.930 . S
C862 C860 1.395 . S
C862 C865 1.403 . S
C863 C860 1.403 . S
C863 C864 1.524 . S
C863 C867 1.400 . S
C864 H849 0.960 . S
C864 H850 0.960 . S
C864 H851 0.960 . S
C864 C863 1.524 . S
C865 C862 1.403 . S
C865 C866 1.392 . S
C865 C869 1.495 . S
C866 C865 1.392 . S
C866 C867 1.385 . S
C866 C868 1.478 . S
C867 H861 0.930 . S
C867 C863 1.400 . S
C867 C866 1.385 . S
C868 C866 1.478 . S
C868 C870 1.381 . S
C868 C874 1.383 . S
C869 C865 1.495 . S
C869 H875 0.959 . S
C869 H876 0.961 . S
C869 H877 0.960 . S
C870 C868 1.381 . S
C870 C871 1.394 . S
C870 H878 0.930 . S
C871 C870 1.394 . S
C871 C872 1.383 . S
C871 H879 0.929 . S
C872 C871 1.383 . S
C872 C873 1.377 . S
C873 H857 0.930 . S
C873 C872 1.377 . S
C873 C874 1.379 . S
C874 H858 0.931 . S
C874 C868 1.383 . S
C874 C873 1.379 . S
H875 C869 0.959 . S
H876 C869 0.961 . S
H877 C869 0.960 . S
H878 C870 0.930 . S
H879 C871 0.929 . S
H880 C888 0.929 . S
H881 C890 0.930 . S
H882 C892 0.930 . S
H883 C895 0.929 . S
H884 C898 0.930 . S
H885 C900 0.960 . S
H886 C900 0.960 . S
H887 C900 0.960 . S
C888 H880 0.929 . S
C888 C889 1.377 . S
C888 C890 1.384 . S
C889 C888 1.377 . S
C889 C895 1.390 . S
C890 H881 0.930 . S
C890 C888 1.384 . S
C890 C891 1.372 . S
C891 C890 1.372 . S
C891 C892 1.400 . S
C891 C896 1.490 . S
C892 H882 0.930 . S
C892 C891 1.400 . S
C892 C895 1.386 . S
H893 C909 0.930 . S
H894 C910 0.931 . S
C895 H883 0.929 . S
C895 C889 1.390 . S
C895 C892 1.386 . S
C896 C891 1.490 . S
C896 C898 1.395 . S
C896 C899 1.403 . S
H897 C903 0.930 . S
C898 H884 0.930 . S
C898 C896 1.395 . S
C898 C901 1.403 . S
C899 C896 1.403 . S
C899 C900 1.524 . S
C899 C903 1.400 . S
C900 H885 0.960 . S
C900 H886 0.960 . S
C900 H887 0.960 . S
C900 C899 1.524 . S
C901 C898 1.403 . S
C901 C902 1.392 . S
C901 C905 1.495 . S
C902 C901 1.392 . S
C902 C903 1.385 . S
C902 C904 1.478 . S
C903 H897 0.930 . S
C903 C899 1.400 . S
C903 C902 1.385 . S
C904 C902 1.478 . S
C904 C906 1.381 . S
C904 C910 1.383 . S
C905 C901 1.495 . S
C905 H911 0.959 . S
C905 H912 0.961 . S
C905 H913 0.960 . S
C906 C904 1.381 . S
C906 C907 1.394 . S
C906 H914 0.930 . S
C907 C906 1.394 . S
C907 C908 1.383 . S
C907 H915 0.929 . S
C908 C907 1.383 . S
C908 C909 1.377 . S
C909 H893 0.930 . S
C909 C908 1.377 . S
C909 C910 1.379 . S
C910 H894 0.931 . S
C910 C904 1.383 . S
C910 C909 1.379 . S
H911 C905 0.959 . S
H912 C905 0.961 . S
H913 C905 0.960 . S
H914 C906 0.930 . S
H915 C907 0.929 . S
H916 C924 0.929 . S
H917 C926 0.930 . S
H918 C928 0.930 . S
H919 C931 0.929 . S
H920 C934 0.930 . S
H921 C936 0.960 . S
H922 C936 0.960 . S
H923 C936 0.960 . S
C924 H916 0.929 . S
C924 C925 1.377 . S
C924 C926 1.384 . S
C925 C924 1.377 . S
C925 C931 1.390 . S
C926 H917 0.930 . S
C926 C924 1.384 . S
C926 C927 1.372 . S
C927 C926 1.372 . S
C927 C928 1.400 . S
C927 C932 1.490 . S
C928 H918 0.930 . S
C928 C927 1.400 . S
C928 C931 1.386 . S
H929 C945 0.930 . S
H930 C946 0.931 . S
C931 H919 0.929 . S
C931 C925 1.390 . S
C931 C928 1.386 . S
C932 C927 1.490 . S
C932 C934 1.395 . S
C932 C935 1.403 . S
H933 C939 0.930 . S
C934 H920 0.930 . S
C934 C932 1.395 . S
C934 C937 1.403 . S
C935 C932 1.403 . S
C935 C936 1.524 . S
C935 C939 1.400 . S
C936 H921 0.960 . S
C936 H922 0.960 . S
C936 H923 0.960 . S
C936 C935 1.524 . S
C937 C934 1.403 . S
C937 C938 1.392 . S
C937 C941 1.495 . S
C938 C937 1.392 . S
C938 C939 1.385 . S
C938 C940 1.478 . S
C939 H933 0.930 . S
C939 C935 1.400 . S
C939 C938 1.385 . S
C940 C938 1.478 . S
C940 C942 1.381 . S
C940 C946 1.383 . S
C941 C937 1.495 . S
C941 H947 0.959 . S
C941 H948 0.961 . S
C941 H949 0.960 . S
C942 C940 1.381 . S
C942 C943 1.394 . S
C942 H950 0.930 . S
C943 C942 1.394 . S
C943 C944 1.383 . S
C943 H951 0.929 . S
C944 C943 1.383 . S
C944 C945 1.377 . S
C945 H929 0.930 . S
C945 C944 1.377 . S
C945 C946 1.379 . S
C946 H930 0.931 . S
C946 C940 1.383 . S
C946 C945 1.379 . S
H947 C941 0.959 . S
H948 C941 0.961 . S
H949 C941 0.960 . S
H950 C942 0.930 . S
H951 C943 0.929 . S
H952 C960 0.929 . S
H953 C962 0.930 . S
H954 C964 0.930 . S
H955 C967 0.929 . S
H956 C970 0.930 . S
H957 C972 0.960 . S
H958 C972 0.960 . S
H959 C972 0.960 . S
C960 H952 0.929 . S
C960 C961 1.377 . S
C960 C962 1.384 . S
C961 C960 1.377 . S
C961 C967 1.390 . S
C962 H953 0.930 . S
C962 C960 1.384 . S
C962 C963 1.372 . S
C963 C962 1.372 . S
C963 C964 1.400 . S
C963 C968 1.490 . S
C964 H954 0.930 . S
C964 C963 1.400 . S
C964 C967 1.386 . S
H965 C981 0.930 . S
H966 C982 0.931 . S
C967 H955 0.929 . S
C967 C961 1.390 . S
C967 C964 1.386 . S
C968 C963 1.490 . S
C968 C970 1.395 . S
C968 C971 1.403 . S
H969 C975 0.930 . S
C970 H956 0.930 . S
C970 C968 1.395 . S
C970 C973 1.403 . S
C971 C968 1.403 . S
C971 C972 1.524 . S
C971 C975 1.400 . S
C972 H957 0.960 . S
C972 H958 0.960 . S
C972 H959 0.960 . S
C972 C971 1.524 . S
C973 C970 1.403 . S
C973 C974 1.392 . S
C973 C977 1.495 . S
C974 C973 1.392 . S
C974 C975 1.385 . S
C974 C976 1.478 . S
C975 H969 0.930 . S
C975 C971 1.400 . S
C975 C974 1.385 . S
C976 C974 1.478 . S
C976 C978 1.381 . S
C976 C982 1.383 . S
C977 C973 1.495 . S
C977 H983 0.959 . S
C977 H984 0.961 . S
C977 H985 0.960 . S
C978 C976 1.381 . S
C978 C979 1.394 . S
C978 H986 0.930 . S
C979 C978 1.394 . S
C979 C980 1.383 . S
C979 H987 0.929 . S
C980 C979 1.383 . S
C980 C981 1.377 . S
C981 H965 0.930 . S
C981 C980 1.377 . S
C981 C982 1.379 . S
C982 H966 0.931 . S
C982 C976 1.383 . S
C982 C981 1.379 . S
H983 C977 0.959 . S
H984 C977 0.961 . S
H985 C977 0.960 . S
H986 C978 0.930 . S
H987 C979 0.929 . S
H988 C996 0.929 . S
H989 C998 0.930 . S
H990 C1000 0.930 . S
H991 C1003 0.929 . S
H992 C1006 0.930 . S
H993 C1008 0.960 . S
H994 C1008 0.960 . S
H995 C1008 0.960 . S
C996 H988 0.929 . S
C996 C997 1.377 . S
C996 C998 1.384 . S
C997 C996 1.377 . S
C997 C1003 1.390 . S
C998 H989 0.930 . S
C998 C996 1.384 . S
C998 C999 1.372 . S
C999 C998 1.372 . S
C999 C1000 1.400 . S
C999 C1004 1.490 . S
C1000 H990 0.930 . S
C1000 C999 1.400 . S
C1000 C1003 1.386 . S
H1001 C1017 0.930 . S
H1002 C1018 0.931 . S
C1003 H991 0.929 . S
C1003 C997 1.390 . S
C1003 C1000 1.386 . S
C1004 C999 1.490 . S
C1004 C1006 1.395 . S
C1004 C1007 1.403 . S
H1005 C1011 0.930 . S
C1006 H992 0.930 . S
C1006 C1004 1.395 . S
C1006 C1009 1.403 . S
C1007 C1004 1.403 . S
C1007 C1008 1.524 . S
C1007 C1011 1.400 . S
C1008 H993 0.960 . S
C1008 H994 0.960 . S
C1008 H995 0.960 . S
C1008 C1007 1.524 . S
C1009 C1006 1.403 . S
C1009 C1010 1.392 . S
C1009 C1013 1.495 . S
C1010 C1009 1.392 . S
C1010 C1011 1.385 . S
C1010 C1012 1.478 . S
C1011 H1005 0.930 . S
C1011 C1007 1.400 . S
C1011 C1010 1.385 . S
C1012 C1010 1.478 . S
C1012 C1014 1.381 . S
C1012 C1018 1.383 . S
C1013 C1009 1.495 . S
C1013 H1019 0.959 . S
C1013 H1020 0.961 . S
C1013 H1021 0.960 . S
C1014 C1012 1.381 . S
C1014 C1015 1.394 . S
C1014 H1022 0.930 . S
C1015 C1014 1.394 . S
C1015 C1016 1.383 . S
C1015 H1023 0.929 . S
C1016 C1015 1.383 . S
C1016 C1017 1.377 . S
C1017 H1001 0.930 . S
C1017 C1016 1.377 . S
C1017 C1018 1.379 . S
C1018 H1002 0.931 . S
C1018 C1012 1.383 . S
C1018 C1017 1.379 . S
H1019 C1013 0.959 . S
H1020 C1013 0.961 . S
H1021 C1013 0.960 . S
H1022 C1014 0.930 . S
H1023 C1015 0.929 . S
H1024 C1032 0.929 . S
H1025 C1034 0.930 . S
H1026 C1036 0.930 . S
H1027 C1039 0.929 . S
H1028 C1042 0.930 . S
H1029 C1044 0.960 . S
H1030 C1044 0.960 . S
H1031 C1044 0.960 . S
C1032 H1024 0.929 . S
C1032 C1033 1.377 . S
C1032 C1034 1.384 . S
C1033 C1032 1.377 . S
C1033 C1039 1.390 . S
C1034 H1025 0.930 . S
C1034 C1032 1.384 . S
C1034 C1035 1.372 . S
C1035 C1034 1.372 . S
C1035 C1036 1.400 . S
C1035 C1040 1.490 . S
C1036 H1026 0.930 . S
C1036 C1035 1.400 . S
C1036 C1039 1.386 . S
H1037 C1053 0.930 . S
H1038 C1054 0.931 . S
C1039 H1027 0.929 . S
C1039 C1033 1.390 . S
C1039 C1036 1.386 . S
C1040 C1035 1.490 . S
C1040 C1042 1.395 . S
C1040 C1043 1.403 . S
H1041 C1047 0.930 . S
C1042 H1028 0.930 . S
C1042 C1040 1.395 . S
C1042 C1045 1.403 1_455 S
C1043 C1040 1.403 . S
C1043 C1044 1.524 . S
C1043 C1047 1.400 1_455 S
C1044 H1029 0.960 . S
C1044 H1030 0.960 . S
C1044 H1031 0.960 . S
C1044 C1043 1.524 . S
C1045 C1042 1.403 1_655 S
C1045 C1046 1.392 . S
C1045 C1049 1.495 . S
C1046 C1045 1.392 . S
C1046 C1047 1.385 . S
C1046 C1048 1.478 . S
C1047 H1041 0.930 . S
C1047 C1043 1.400 1_655 S
C1047 C1046 1.385 . S
C1048 C1046 1.478 . S
C1048 C1050 1.381 . S
C1048 C1054 1.383 . S
C1049 C1045 1.495 . S
C1049 H1055 0.959 . S
C1049 H1056 0.961 . S
C1049 H1057 0.960 . S
C1050 C1048 1.381 . S
C1050 C1051 1.394 . S
C1050 H1058 0.930 . S
C1051 C1050 1.394 . S
C1051 C1052 1.383 . S
C1051 H1059 0.929 . S
C1052 C1051 1.383 . S
C1052 C1053 1.377 . S
C1053 H1037 0.930 . S
C1053 C1052 1.377 . S
C1053 C1054 1.379 . S
C1054 H1038 0.931 . S
C1054 C1048 1.383 . S
C1054 C1053 1.379 . S
H1055 C1049 0.959 . S
H1056 C1049 0.961 . S
H1057 C1049 0.960 . S
H1058 C1050 0.930 . S
H1059 C1051 0.929 . S
H1060 C1068 0.929 . S
H1061 C1070 0.930 . S
H1062 C1072 0.930 . S
H1063 C1075 0.929 . S
H1064 C1078 0.930 . S
H1065 C1080 0.960 . S
H1066 C1080 0.960 . S
H1067 C1080 0.960 . S
C1068 H1060 0.929 . S
C1068 C1069 1.377 . S
C1068 C1070 1.384 . S
C1069 C1068 1.377 . S
C1069 C1075 1.390 . S
C1070 H1061 0.930 . S
C1070 C1068 1.384 . S
C1070 C1071 1.372 . S
C1071 C1070 1.372 . S
C1071 C1072 1.400 . S
C1071 C1076 1.490 . S
C1072 H1062 0.930 . S
C1072 C1071 1.400 . S
C1072 C1075 1.386 . S
H1073 C1089 0.930 . S
H1074 C1090 0.931 . S
C1075 H1063 0.929 . S
C1075 C1069 1.390 . S
C1075 C1072 1.386 . S
C1076 C1071 1.490 . S
C1076 C1078 1.395 . S
C1076 C1079 1.403 . S
H1077 C1083 0.930 . S
C1078 H1064 0.930 . S
C1078 C1076 1.395 . S
C1078 C1081 1.403 . S
C1079 C1076 1.403 . S
C1079 C1080 1.524 . S
C1079 C1083 1.400 . S
C1080 H1065 0.960 . S
C1080 H1066 0.960 . S
C1080 H1067 0.960 . S
C1080 C1079 1.524 . S
C1081 C1078 1.403 . S
C1081 C1082 1.392 . S
C1081 C1085 1.495 . S
C1082 C1081 1.392 . S
C1082 C1083 1.385 . S
C1082 C1084 1.478 . S
C1083 H1077 0.930 . S
C1083 C1079 1.400 . S
C1083 C1082 1.385 . S
C1084 C1082 1.478 . S
C1084 C1086 1.381 . S
C1084 C1090 1.383 . S
C1085 C1081 1.495 . S
C1085 H1091 0.959 . S
C1085 H1092 0.961 . S
C1085 H1093 0.960 . S
C1086 C1084 1.381 . S
C1086 C1087 1.394 . S
C1086 H1094 0.930 . S
C1087 C1086 1.394 . S
C1087 C1088 1.383 . S
C1087 H1095 0.929 . S
C1088 C1087 1.383 . S
C1088 C1089 1.377 . S
C1089 H1073 0.930 . S
C1089 C1088 1.377 . S
C1089 C1090 1.379 . S
C1090 H1074 0.931 . S
C1090 C1084 1.383 . S
C1090 C1089 1.379 . S
H1091 C1085 0.959 . S
H1092 C1085 0.961 . S
H1093 C1085 0.960 . S
H1094 C1086 0.930 . S
H1095 C1087 0.929 . S
H1096 C1104 0.929 . S
H1097 C1106 0.930 . S
H1098 C1108 0.930 . S
H1099 C1111 0.929 . S
H1100 C1114 0.930 . S
H1101 C1116 0.960 . S
H1102 C1116 0.960 . S
H1103 C1116 0.960 . S
C1104 H1096 0.929 . S
C1104 C1105 1.377 . S
C1104 C1106 1.384 . S
C1105 C1104 1.377 . S
C1105 C1111 1.390 . S
C1106 H1097 0.930 . S
C1106 C1104 1.384 . S
C1106 C1107 1.372 . S
C1107 C1106 1.372 . S
C1107 C1108 1.400 . S
C1107 C1112 1.490 . S
C1108 H1098 0.930 . S
C1108 C1107 1.400 . S
C1108 C1111 1.386 . S
H1109 C1125 0.930 . S
H1110 C1126 0.931 . S
C1111 H1099 0.929 . S
C1111 C1105 1.390 . S
C1111 C1108 1.386 . S
C1112 C1107 1.490 . S
C1112 C1114 1.395 . S
C1112 C1115 1.403 . S
H1113 C1119 0.930 . S
C1114 H1100 0.930 . S
C1114 C1112 1.395 . S
C1114 C1117 1.403 . S
C1115 C1112 1.403 . S
C1115 C1116 1.524 . S
C1115 C1119 1.400 . S
C1116 H1101 0.960 . S
C1116 H1102 0.960 . S
C1116 H1103 0.960 . S
C1116 C1115 1.524 . S
C1117 C1114 1.403 . S
C1117 C1118 1.392 . S
C1117 C1121 1.495 . S
C1118 C1117 1.392 . S
C1118 C1119 1.385 . S
C1118 C1120 1.478 . S
C1119 H1113 0.930 . S
C1119 C1115 1.400 . S
C1119 C1118 1.385 . S
C1120 C1118 1.478 . S
C1120 C1122 1.381 . S
C1120 C1126 1.383 . S
C1121 C1117 1.495 . S
C1121 H1127 0.959 . S
C1121 H1128 0.961 . S
C1121 H1129 0.960 . S
C1122 C1120 1.381 . S
C1122 C1123 1.394 . S
C1122 H1130 0.930 . S
C1123 C1122 1.394 . S
C1123 C1124 1.383 . S
C1123 H1131 0.929 . S
C1124 C1123 1.383 . S
C1124 C1125 1.377 . S
C1125 H1109 0.930 . S
C1125 C1124 1.377 . S
C1125 C1126 1.379 . S
C1126 H1110 0.931 . S
C1126 C1120 1.383 . S
C1126 C1125 1.379 . S
H1127 C1121 0.959 . S
H1128 C1121 0.961 . S
H1129 C1121 0.960 . S
H1130 C1122 0.930 . S
H1131 C1123 0.929 . S
H1132 C1140 0.929 . S
H1133 C1142 0.930 . S
H1134 C1144 0.930 . S
H1135 C1147 0.929 . S
H1136 C1150 0.930 . S
H1137 C1152 0.960 . S
H1138 C1152 0.960 . S
H1139 C1152 0.960 . S
C1140 H1132 0.929 . S
C1140 C1141 1.377 . S
C1140 C1142 1.384 . S
C1141 C1140 1.377 . S
C1141 C1147 1.390 . S
C1142 H1133 0.930 . S
C1142 C1140 1.384 . S
C1142 C1143 1.372 . S
C1143 C1142 1.372 . S
C1143 C1144 1.400 . S
C1143 C1148 1.490 . S
C1144 H1134 0.930 . S
C1144 C1143 1.400 . S
C1144 C1147 1.386 . S
H1145 C1161 0.930 . S
H1146 C1162 0.931 . S
C1147 H1135 0.929 . S
C1147 C1141 1.390 . S
C1147 C1144 1.386 . S
C1148 C1143 1.490 . S
C1148 C1150 1.395 . S
C1148 C1151 1.403 . S
H1149 C1155 0.930 . S
C1150 H1136 0.930 . S
C1150 C1148 1.395 . S
C1150 C1153 1.403 . S
C1151 C1148 1.403 . S
C1151 C1152 1.524 . S
C1151 C1155 1.400 . S
C1152 H1137 0.960 . S
C1152 H1138 0.960 . S
C1152 H1139 0.960 . S
C1152 C1151 1.524 . S
C1153 C1150 1.403 . S
C1153 C1154 1.392 . S
C1153 C1157 1.495 . S
C1154 C1153 1.392 . S
C1154 C1155 1.385 . S
C1154 C1156 1.478 . S
C1155 H1149 0.930 . S
C1155 C1151 1.400 . S
C1155 C1154 1.385 . S
C1156 C1154 1.478 . S
C1156 C1158 1.381 . S
C1156 C1162 1.383 . S
C1157 C1153 1.495 . S
C1157 H1163 0.959 . S
C1157 H1164 0.961 . S
C1157 H1165 0.960 . S
C1158 C1156 1.381 . S
C1158 C1159 1.394 . S
C1158 H1166 0.930 . S
C1159 C1158 1.394 . S
C1159 C1160 1.383 . S
C1159 H1167 0.929 . S
C1160 C1159 1.383 . S
C1160 C1161 1.377 . S
C1161 H1145 0.930 . S
C1161 C1160 1.377 . S
C1161 C1162 1.379 . S
C1162 H1146 0.931 . S
C1162 C1156 1.383 . S
C1162 C1161 1.379 . S
H1163 C1157 0.959 . S
H1164 C1157 0.961 . S
H1165 C1157 0.960 . S
H1166 C1158 0.930 . S
H1167 C1159 0.929 . S
H1168 C1176 0.929 . S
H1169 C1178 0.930 . S
H1170 C1180 0.930 . S
H1171 C1183 0.929 . S
H1172 C1186 0.930 . S
H1173 C1188 0.960 . S
H1174 C1188 0.960 . S
H1175 C1188 0.960 . S
C1176 H1168 0.929 . S
C1176 C1177 1.377 . S
C1176 C1178 1.384 . S
C1177 C1176 1.377 . S
C1177 C1183 1.390 . S
C1178 H1169 0.930 . S
C1178 C1176 1.384 . S
C1178 C1179 1.372 . S
C1179 C1178 1.372 . S
C1179 C1180 1.400 . S
C1179 C1184 1.490 . S
C1180 H1170 0.930 . S
C1180 C1179 1.400 . S
C1180 C1183 1.386 . S
H1181 C1197 0.930 . S
H1182 C1198 0.931 . S
C1183 H1171 0.929 . S
C1183 C1177 1.390 . S
C1183 C1180 1.386 . S
C1184 C1179 1.490 . S
C1184 C1186 1.395 . S
C1184 C1187 1.403 . S
H1185 C1191 0.930 . S
C1186 H1172 0.930 . S
C1186 C1184 1.395 . S
C1186 C1189 1.403 1_655 S
C1187 C1184 1.403 . S
C1187 C1188 1.524 . S
C1187 C1191 1.400 1_655 S
C1188 H1173 0.960 . S
C1188 H1174 0.960 . S
C1188 H1175 0.960 . S
C1188 C1187 1.524 . S
C1189 C1186 1.403 1_455 S
C1189 C1190 1.392 . S
C1189 C1193 1.495 . S
C1190 C1189 1.392 . S
C1190 C1191 1.385 . S
C1190 C1192 1.478 . S
C1191 H1185 0.930 . S
C1191 C1187 1.400 1_455 S
C1191 C1190 1.385 . S
C1192 C1190 1.478 . S
C1192 C1194 1.381 . S
C1192 C1198 1.383 . S
C1193 C1189 1.495 . S
C1193 H1199 0.980 . S
C1193 H1200 0.961 . S
C1193 H1201 0.960 . S
C1194 C1192 1.381 . S
C1194 C1195 1.394 . S
C1194 H1202 0.930 . S
C1195 C1194 1.394 . S
C1195 C1196 1.383 . S
C1195 H1203 0.929 . S
C1196 C1195 1.383 . S
C1196 C1197 1.377 . S
C1197 H1181 0.930 . S
C1197 C1196 1.377 . S
C1197 C1198 1.379 . S
C1198 H1182 0.931 . S
C1198 C1192 1.383 . S
C1198 C1197 1.379 . S
H1199 C1193 0.980 . S
H1200 C1193 0.961 . S
H1201 C1193 0.960 . S
H1202 C1194 0.930 . S
H1203 C1195 0.929 . S
H1204 C1212 0.929 . S
H1205 C1214 0.930 . S
H1206 C1216 0.930 . S
H1207 C1219 0.929 . S
H1208 C1222 0.930 . S
H1209 C1224 0.960 . S
H1210 C1224 0.960 . S
H1211 C1224 0.960 . S
C1212 H1204 0.929 . S
C1212 C1213 1.377 . S
C1212 C1214 1.384 . S
C1213 C1212 1.377 . S
C1213 C1219 1.390 . S
C1214 H1205 0.930 . S
C1214 C1212 1.384 . S
C1214 C1215 1.372 . S
C1215 C1214 1.372 . S
C1215 C1216 1.400 . S
C1215 C1220 1.490 . S
C1216 H1206 0.930 . S
C1216 C1215 1.400 . S
C1216 C1219 1.386 . S
H1217 C1233 0.930 . S
H1218 C1234 0.931 . S
C1219 H1207 0.929 . S
C1219 C1213 1.390 . S
C1219 C1216 1.386 . S
C1220 C1215 1.490 . S
C1220 C1222 1.395 . S
C1220 C1223 1.403 . S
H1221 C1227 0.930 . S
C1222 H1208 0.930 . S
C1222 C1220 1.395 . S
C1222 C1225 1.403 . S
C1223 C1220 1.403 . S
C1223 C1224 1.524 . S
C1223 C1227 1.400 . S
C1224 H1209 0.960 . S
C1224 H1210 0.960 . S
C1224 H1211 0.960 . S
C1224 C1223 1.524 . S
C1225 C1222 1.403 . S
C1225 C1226 1.392 . S
C1225 C1229 1.495 . S
C1226 C1225 1.392 . S
C1226 C1227 1.385 . S
C1226 C1228 1.478 . S
C1227 H1221 0.930 . S
C1227 C1223 1.400 . S
C1227 C1226 1.385 . S
C1228 C1226 1.478 . S
C1228 C1230 1.381 . S
C1228 C1234 1.383 . S
C1229 C1225 1.495 . S
C1229 H1235 0.959 . S
C1229 H1236 0.961 . S
C1229 H1237 0.960 . S
C1230 C1228 1.381 . S
C1230 C1231 1.394 . S
C1230 H1238 0.930 . S
C1231 C1230 1.394 . S
C1231 C1232 1.383 . S
C1231 H1239 0.929 . S
C1232 C1231 1.383 . S
C1232 C1233 1.377 . S
C1233 H1217 0.930 . S
C1233 C1232 1.377 . S
C1233 C1234 1.379 . S
C1234 H1218 0.931 . S
C1234 C1228 1.383 . S
C1234 C1233 1.379 . S
H1235 C1229 0.959 . S
H1236 C1229 0.961 . S
H1237 C1229 0.960 . S
H1238 C1230 0.930 . S
H1239 C1231 0.929 . S
H1240 C1248 0.929 . S
H1241 C1250 0.930 . S
H1242 C1252 0.930 . S
H1243 C1255 0.929 . S
H1244 C1258 0.930 . S
H1245 C1260 0.960 . S
H1246 C1260 0.960 . S
H1247 C1260 0.960 . S
C1248 H1240 0.929 . S
C1248 C1249 1.377 . S
C1248 C1250 1.384 . S
C1249 C1248 1.377 . S
C1249 C1255 1.390 . S
C1250 H1241 0.930 . S
C1250 C1248 1.384 . S
C1250 C1251 1.372 . S
C1251 C1250 1.372 . S
C1251 C1252 1.400 . S
C1251 C1256 1.490 . S
C1252 H1242 0.930 . S
C1252 C1251 1.400 . S
C1252 C1255 1.386 . S
H1253 C1269 0.930 . S
H1254 C1270 0.931 . S
C1255 H1243 0.929 . S
C1255 C1249 1.390 . S
C1255 C1252 1.386 . S
C1256 C1251 1.490 . S
C1256 C1258 1.395 . S
C1256 C1259 1.403 . S
H1257 C1263 0.930 . S
C1258 H1244 0.930 . S
C1258 C1256 1.395 . S
C1258 C1261 1.403 . S
C1259 C1256 1.403 . S
C1259 C1260 1.524 . S
C1259 C1263 1.400 . S
C1260 H1245 0.960 . S
C1260 H1246 0.960 . S
C1260 H1247 0.960 . S
C1260 C1259 1.524 . S
C1261 C1258 1.403 . S
C1261 C1262 1.392 . S
C1261 C1265 1.495 . S
C1262 C1261 1.392 . S
C1262 C1263 1.385 . S
C1262 C1264 1.478 . S
C1263 H1257 0.930 . S
C1263 C1259 1.400 . S
C1263 C1262 1.385 . S
C1264 C1262 1.478 . S
C1264 C1266 1.381 . S
C1264 C1270 1.383 . S
C1265 C1261 1.495 . S
C1265 H1271 0.959 . S
C1265 H1272 0.961 . S
C1265 H1273 0.960 . S
C1266 C1264 1.381 . S
C1266 C1267 1.394 . S
C1266 H1274 0.930 . S
C1267 C1266 1.394 . S
C1267 C1268 1.383 . S
C1267 H1275 0.929 . S
C1268 C1267 1.383 . S
C1268 C1269 1.377 . S
C1269 H1253 0.930 . S
C1269 C1268 1.377 . S
C1269 C1270 1.379 . S
C1270 H1254 0.931 . S
C1270 C1264 1.383 . S
C1270 C1269 1.379 . S
H1271 C1265 0.959 . S
H1272 C1265 0.961 . S
H1273 C1265 0.960 . S
H1274 C1266 0.930 . S
H1275 C1267 0.929 . S
H1276 C1284 0.929 . S
H1277 C1286 0.930 . S
H1278 C1288 0.930 . S
H1279 C1291 0.929 . S
H1280 C1294 0.930 . S
H1281 C1296 0.960 . S
H1282 C1296 0.960 . S
H1283 C1296 0.960 . S
C1284 H1276 0.929 . S
C1284 C1285 1.377 . S
C1284 C1286 1.384 . S
C1285 C1284 1.377 . S
C1285 C1291 1.390 . S
C1286 H1277 0.930 . S
C1286 C1284 1.384 . S
C1286 C1287 1.372 . S
C1287 C1286 1.372 . S
C1287 C1288 1.400 . S
C1287 C1292 1.490 . S
C1288 H1278 0.930 . S
C1288 C1287 1.400 . S
C1288 C1291 1.386 . S
H1289 C1305 0.930 . S
H1290 C1306 0.931 . S
C1291 H1279 0.929 . S
C1291 C1285 1.390 . S
C1291 C1288 1.386 . S
C1292 C1287 1.490 . S
C1292 C1294 1.395 . S
C1292 C1295 1.403 . S
H1293 C1299 0.930 . S
C1294 H1280 0.930 . S
C1294 C1292 1.395 . S
C1294 C1297 1.403 . S
C1295 C1292 1.403 . S
C1295 C1296 1.524 . S
C1295 C1299 1.400 . S
C1296 H1281 0.960 . S
C1296 H1282 0.960 . S
C1296 H1283 0.960 . S
C1296 C1295 1.524 . S
C1297 C1294 1.403 . S
C1297 C1298 1.392 . S
C1297 C1301 1.495 . S
C1298 C1297 1.392 . S
C1298 C1299 1.385 . S
C1298 C1300 1.478 . S
C1299 H1293 0.930 . S
C1299 C1295 1.400 . S
C1299 C1298 1.385 . S
C1300 C1298 1.478 . S
C1300 C1302 1.381 . S
C1300 C1306 1.383 . S
C1301 C1297 1.495 . S
C1301 H1307 0.959 . S
C1301 H1308 0.961 . S
C1301 H1309 0.960 . S
C1302 C1300 1.381 . S
C1302 C1303 1.394 . S
C1302 H1310 0.930 . S
C1303 C1302 1.394 . S
C1303 C1304 1.383 . S
C1303 H1311 0.929 . S
C1304 C1303 1.383 . S
C1304 C1305 1.377 . S
C1305 H1289 0.930 . S
C1305 C1304 1.377 . S
C1305 C1306 1.379 . S
C1306 H1290 0.931 . S
C1306 C1300 1.383 . S
C1306 C1305 1.379 . S
H1307 C1301 0.959 . S
H1308 C1301 0.961 . S
H1309 C1301 0.960 . S
H1310 C1302 0.930 . S
H1311 C1303 0.929 . S
H1312 C1320 0.929 . S
H1313 C1322 0.930 . S
H1314 C1324 0.930 . S
H1315 C1327 0.929 . S
H1316 C1330 0.930 . S
H1317 C1332 0.960 . S
H1318 C1332 0.960 . S
H1319 C1332 0.960 . S
C1320 H1312 0.929 . S
C1320 C1321 1.377 . S
C1320 C1322 1.384 . S
C1321 C1320 1.377 . S
C1321 C1327 1.390 . S
C1322 H1313 0.930 . S
C1322 C1320 1.384 . S
C1322 C1323 1.372 . S
C1323 C1322 1.372 . S
C1323 C1324 1.400 . S
C1323 C1328 1.490 . S
C1324 H1314 0.930 . S
C1324 C1323 1.400 . S
C1324 C1327 1.386 . S
H1325 C1341 0.930 . S
H1326 C1342 0.931 . S
C1327 H1315 0.929 . S
C1327 C1321 1.390 . S
C1327 C1324 1.386 . S
C1328 C1323 1.490 . S
C1328 C1330 1.395 . S
C1328 C1331 1.403 . S
H1329 C1335 0.930 . S
C1330 H1316 0.930 . S
C1330 C1328 1.395 . S
C1330 C1333 1.403 . S
C1331 C1328 1.403 . S
C1331 C1332 1.524 . S
C1331 C1335 1.400 . S
C1332 H1317 0.960 . S
C1332 H1318 0.960 . S
C1332 H1319 0.960 . S
C1332 C1331 1.524 . S
C1333 C1330 1.403 . S
C1333 C1334 1.392 . S
C1333 C1337 1.495 . S
C1334 C1333 1.392 . S
C1334 C1335 1.385 . S
C1334 C1336 1.478 . S
C1335 H1329 0.930 . S
C1335 C1331 1.400 . S
C1335 C1334 1.385 . S
C1336 C1334 1.478 . S
C1336 C1338 1.381 . S
C1336 C1342 1.383 . S
C1337 C1333 1.495 . S
C1337 H1343 0.959 . S
C1337 H1344 0.961 . S
C1337 H1345 0.960 . S
C1338 C1336 1.381 . S
C1338 C1339 1.394 . S
C1338 H1346 0.930 . S
C1339 C1338 1.394 . S
C1339 C1340 1.383 . S
C1339 H1347 0.929 . S
C1340 C1339 1.383 . S
C1340 C1341 1.377 . S
C1341 H1325 0.930 . S
C1341 C1340 1.377 . S
C1341 C1342 1.379 . S
C1342 H1326 0.931 . S
C1342 C1336 1.383 . S
C1342 C1341 1.379 . S
H1343 C1337 0.959 . S
H1344 C1337 0.961 . S
H1345 C1337 0.960 . S
H1346 C1338 0.930 . S
H1347 C1339 0.929 . S
H1348 C1356 0.929 . S
H1349 C1358 0.930 . S
H1350 C1360 0.930 . S
H1351 C1363 0.929 . S
H1352 C1366 0.930 . S
H1353 C1368 0.960 . S
H1354 C1368 0.960 . S
H1355 C1368 0.960 . S
C1356 H1348 0.929 . S
C1356 C1357 1.377 . S
C1356 C1358 1.384 . S
C1357 C1356 1.377 . S
C1357 C1363 1.390 . S
C1358 H1349 0.930 . S
C1358 C1356 1.384 . S
C1358 C1359 1.372 . S
C1359 C1358 1.372 . S
C1359 C1360 1.400 . S
C1359 C1364 1.490 . S
C1360 H1350 0.930 . S
C1360 C1359 1.400 . S
C1360 C1363 1.386 . S
H1361 C1377 0.930 . S
H1362 C1378 0.931 . S
C1363 H1351 0.929 . S
C1363 C1357 1.390 . S
C1363 C1360 1.386 . S
C1364 C1359 1.490 . S
C1364 C1366 1.395 . S
C1364 C1367 1.403 . S
H1365 C1371 0.930 . S
C1366 H1352 0.930 . S
C1366 C1364 1.395 . S
C1366 C1369 1.403 . S
C1367 C1364 1.403 . S
C1367 C1368 1.524 . S
C1367 C1371 1.400 . S
C1368 H1353 0.960 . S
C1368 H1354 0.960 . S
C1368 H1355 0.960 . S
C1368 C1367 1.524 . S
C1369 C1366 1.403 . S
C1369 C1370 1.392 . S
C1369 C1373 1.495 . S
C1370 C1369 1.392 . S
C1370 C1371 1.385 . S
C1370 C1372 1.478 . S
C1371 H1365 0.930 . S
C1371 C1367 1.400 . S
C1371 C1370 1.385 . S
C1372 C1370 1.478 . S
C1372 C1374 1.381 . S
C1372 C1378 1.383 . S
C1373 C1369 1.495 . S
C1373 H1379 0.959 . S
C1373 H1380 0.961 . S
C1373 H1381 0.960 . S
C1374 C1372 1.381 . S
C1374 C1375 1.394 . S
C1374 H1382 0.930 . S
C1375 C1374 1.394 . S
C1375 C1376 1.383 . S
C1375 H1383 0.929 . S
C1376 C1375 1.383 . S
C1376 C1377 1.377 . S
C1377 H1361 0.930 . S
C1377 C1376 1.377 . S
C1377 C1378 1.379 . S
C1378 H1362 0.931 . S
C1378 C1372 1.383 . S
C1378 C1377 1.379 . S
H1379 C1373 0.959 . S
H1380 C1373 0.961 . S
H1381 C1373 0.960 . S
H1382 C1374 0.930 . S
H1383 C1375 0.929 . S
H1384 C1392 0.929 . S
H1385 C1394 0.930 . S
H1386 C1396 0.930 . S
H1387 C1399 0.929 . S
H1388 C1402 0.930 . S
H1389 C1404 0.960 . S
H1390 C1404 0.960 . S
H1391 C1404 0.960 . S
C1392 H1384 0.929 . S
C1392 C1393 1.377 . S
C1392 C1394 1.384 . S
C1393 C1392 1.377 . S
C1393 C1399 1.390 . S
C1394 H1385 0.930 . S
C1394 C1392 1.384 . S
C1394 C1395 1.372 . S
C1395 C1394 1.372 . S
C1395 C1396 1.400 . S
C1395 C1400 1.490 . S
C1396 H1386 0.930 . S
C1396 C1395 1.400 . S
C1396 C1399 1.386 . S
H1397 C1413 0.930 . S
H1398 C1414 0.931 . S
C1399 H1387 0.929 . S
C1399 C1393 1.390 . S
C1399 C1396 1.386 . S
C1400 C1395 1.490 . S
C1400 C1402 1.395 . S
C1400 C1403 1.403 . S
H1401 C1407 0.930 . S
C1402 H1388 0.930 . S
C1402 C1400 1.395 . S
C1402 C1405 1.403 . S
C1403 C1400 1.403 . S
C1403 C1404 1.524 . S
C1403 C1407 1.400 . S
C1404 H1389 0.960 . S
C1404 H1390 0.960 . S
C1404 H1391 0.960 . S
C1404 C1403 1.524 . S
C1405 C1402 1.403 . S
C1405 C1406 1.392 . S
C1405 C1409 1.495 . S
C1406 C1405 1.392 . S
C1406 C1407 1.385 . S
C1406 C1408 1.478 . S
C1407 H1401 0.930 . S
C1407 C1403 1.400 . S
C1407 C1406 1.385 . S
C1408 C1406 1.478 . S
C1408 C1410 1.381 . S
C1408 C1414 1.383 . S
C1409 C1405 1.495 . S
C1409 H1415 0.959 . S
C1409 H1416 0.961 . S
C1409 H1417 0.960 . S
C1410 C1408 1.381 . S
C1410 C1411 1.394 . S
C1410 H1418 0.930 . S
C1411 C1410 1.394 . S
C1411 C1412 1.383 . S
C1411 H1419 0.929 . S
C1412 C1411 1.383 . S
C1412 C1413 1.377 . S
C1413 H1397 0.930 . S
C1413 C1412 1.377 . S
C1413 C1414 1.379 . S
C1414 H1398 0.931 . S
C1414 C1408 1.383 . S
C1414 C1413 1.379 . S
H1415 C1409 0.959 . S
H1416 C1409 0.961 . S
H1417 C1409 0.960 . S
H1418 C1410 0.930 . S
H1419 C1411 0.929 . S
H1420 C1428 0.929 . S
H1421 C1430 0.930 . S
H1422 C1432 0.930 . S
H1423 C1435 0.929 . S
H1424 C1438 0.930 . S
H1425 C1440 0.960 . S
H1426 C1440 0.960 . S
H1427 C1440 0.960 . S
C1428 H1420 0.929 . S
C1428 C1429 1.377 . S
C1428 C1430 1.384 . S
C1429 C1428 1.377 . S
C1429 C1435 1.390 . S
C1430 H1421 0.930 . S
C1430 C1428 1.384 . S
C1430 C1431 1.372 . S
C1431 C1430 1.372 . S
C1431 C1432 1.400 . S
C1431 C1436 1.490 . S
C1432 H1422 0.930 . S
C1432 C1431 1.400 . S
C1432 C1435 1.386 . S
H1433 C1449 0.930 . S
H1434 C1450 0.931 . S
C1435 H1423 0.929 . S
C1435 C1429 1.390 . S
C1435 C1432 1.386 . S
C1436 C1431 1.490 . S
C1436 C1438 1.395 . S
C1436 C1439 1.403 . S
H1437 C1443 0.930 . S
C1438 H1424 0.930 . S
C1438 C1436 1.395 . S
C1438 C1441 1.403 . S
C1439 C1436 1.403 . S
C1439 C1440 1.524 . S
C1439 C1443 1.400 . S
C1440 H1425 0.960 . S
C1440 H1426 0.960 . S
C1440 H1427 0.960 . S
C1440 C1439 1.524 . S
C1441 C1438 1.403 . S
C1441 C1442 1.392 . S
C1441 C1445 1.495 . S
C1442 C1441 1.392 . S
C1442 C1443 1.385 . S
C1442 C1444 1.478 . S
C1443 H1437 0.930 . S
C1443 C1439 1.400 . S
C1443 C1442 1.385 . S
C1444 C1442 1.478 . S
C1444 C1446 1.381 . S
C1444 C1450 1.383 . S
C1445 C1441 1.495 . S
C1445 H1451 0.959 . S
C1445 H1452 0.961 . S
C1445 H1453 0.960 . S
C1446 C1444 1.381 . S
C1446 C1447 1.394 . S
C1446 H1454 0.930 . S
C1447 C1446 1.394 . S
C1447 C1448 1.383 . S
C1447 H1455 0.929 . S
C1448 C1447 1.383 . S
C1448 C1449 1.377 . S
C1449 H1433 0.930 . S
C1449 C1448 1.377 . S
C1449 C1450 1.379 . S
C1450 H1434 0.931 . S
C1450 C1444 1.383 . S
C1450 C1449 1.379 . S
H1451 C1445 0.959 . S
H1452 C1445 0.961 . S
H1453 C1445 0.960 . S
H1454 C1446 0.930 . S
H1455 C1447 0.929 . S
H1456 C1464 0.929 . S
H1457 C1466 0.930 . S
H1458 C1468 0.930 . S
H1459 C1471 0.929 . S
H1460 C1474 0.930 . S
H1461 C1476 0.960 . S
H1462 C1476 0.960 . S
H1463 C1476 0.960 . S
C1464 H1456 0.929 . S
C1464 C1465 1.377 . S
C1464 C1466 1.384 . S
C1465 C1464 1.377 . S
C1465 C1471 1.390 . S
C1466 H1457 0.930 . S
C1466 C1464 1.384 . S
C1466 C1467 1.372 . S
C1467 C1466 1.372 . S
C1467 C1468 1.400 . S
C1467 C1472 1.490 . S
C1468 H1458 0.930 . S
C1468 C1467 1.400 . S
C1468 C1471 1.386 . S
H1469 C1485 0.930 . S
H1470 C1486 0.931 . S
C1471 H1459 0.929 . S
C1471 C1465 1.390 . S
C1471 C1468 1.386 . S
C1472 C1467 1.490 . S
C1472 C1474 1.395 . S
C1472 C1475 1.403 . S
H1473 C1479 0.930 . S
C1474 H1460 0.930 . S
C1474 C1472 1.395 . S
C1474 C1477 1.403 . S
C1475 C1472 1.403 . S
C1475 C1476 1.524 . S
C1475 C1479 1.400 . S
C1476 H1461 0.960 . S
C1476 H1462 0.960 . S
C1476 H1463 0.960 . S
C1476 C1475 1.524 . S
C1477 C1474 1.403 . S
C1477 C1478 1.392 . S
C1477 C1481 1.495 . S
C1478 C1477 1.392 . S
C1478 C1479 1.385 . S
C1478 C1480 1.478 . S
C1479 H1473 0.930 . S
C1479 C1475 1.400 . S
C1479 C1478 1.385 . S
C1480 C1478 1.478 . S
C1480 C1482 1.381 . S
C1480 C1486 1.383 . S
C1481 C1477 1.495 . S
C1481 H1487 0.959 . S
C1481 H1488 0.961 . S
C1481 H1489 0.960 . S
C1482 C1480 1.381 . S
C1482 C1483 1.394 . S
C1482 H1490 0.930 . S
C1483 C1482 1.394 . S
C1483 C1484 1.383 . S
C1483 H1491 0.929 . S
C1484 C1483 1.383 . S
C1484 C1485 1.377 . S
C1485 H1469 0.930 . S
C1485 C1484 1.377 . S
C1485 C1486 1.379 . S
C1486 H1470 0.931 . S
C1486 C1480 1.383 . S
C1486 C1485 1.379 . S
H1487 C1481 0.959 . S
H1488 C1481 0.961 . S
H1489 C1481 0.960 . S
H1490 C1482 0.930 . S
H1491 C1483 0.929 . S
H1492 C1500 0.929 . S
H1493 C1502 0.930 . S
H1494 C1504 0.930 . S
H1495 C1507 0.929 . S
H1496 C1510 0.930 . S
H1497 C1512 0.960 . S
H1498 C1512 0.960 . S
H1499 C1512 0.960 . S
C1500 H1492 0.929 . S
C1500 C1501 1.377 . S
C1500 C1502 1.384 . S
C1501 C1500 1.377 . S
C1501 C1507 1.390 . S
C1502 H1493 0.930 . S
C1502 C1500 1.384 . S
C1502 C1503 1.372 . S
C1503 C1502 1.372 . S
C1503 C1504 1.400 . S
C1503 C1508 1.490 . S
C1504 H1494 0.930 . S
C1504 C1503 1.400 . S
C1504 C1507 1.386 . S
H1505 C1521 0.930 . S
H1506 C1522 0.931 . S
C1507 H1495 0.929 . S
C1507 C1501 1.390 . S
C1507 C1504 1.386 . S
C1508 C1503 1.490 . S
C1508 C1510 1.395 . S
C1508 C1511 1.403 . S
H1509 C1515 0.930 . S
C1510 H1496 0.930 . S
C1510 C1508 1.395 . S
C1510 C1513 1.403 1_655 S
C1511 C1508 1.403 . S
C1511 C1512 1.524 . S
C1511 C1515 1.400 1_655 S
C1512 H1497 0.960 . S
C1512 H1498 0.960 . S
C1512 H1499 0.960 . S
C1512 C1511 1.524 . S
C1513 C1510 1.403 1_455 S
C1513 C1514 1.392 . S
C1513 C1517 1.495 . S
C1514 C1513 1.392 . S
C1514 C1515 1.385 . S
C1514 C1516 1.478 . S
C1515 H1509 0.930 . S
C1515 C1511 1.400 1_455 S
C1515 C1514 1.385 . S
C1516 C1514 1.478 . S
C1516 C1518 1.381 . S
C1516 C1522 1.383 . S
C1517 C1513 1.495 . S
C1517 H1523 0.944 1_554 S
C1517 H1524 0.961 . S
C1517 H1525 0.960 . S
C1518 C1516 1.381 . S
C1518 C1519 1.394 . S
C1518 H1526 0.930 . S
C1519 C1518 1.394 . S
C1519 C1520 1.383 . S
C1519 H1527 0.929 . S
C1520 C1519 1.383 . S
C1520 C1521 1.377 . S
C1521 H1505 0.930 . S
C1521 C1520 1.377 . S
C1521 C1522 1.379 . S
C1522 H1506 0.931 . S
C1522 C1516 1.383 . S
C1522 C1521 1.379 . S
H1523 C1517 0.944 1_556 S
H1524 C1517 0.961 . S
H1525 C1517 0.960 . S
H1526 C1518 0.930 . S
H1527 C1519 0.929 . S
H1528 C1536 0.929 . S
H1529 C1538 0.930 . S
H1530 C1540 0.930 . S
H1531 C1543 0.929 . S
H1532 C1546 0.930 . S
H1533 C1548 0.960 . S
H1534 C1548 0.960 . S
H1535 C1548 0.960 . S
C1536 H1528 0.929 . S
C1536 C1537 1.377 . S
C1536 C1538 1.384 . S
C1537 C1536 1.377 . S
C1537 C1543 1.390 . S
C1538 H1529 0.930 . S
C1538 C1536 1.384 . S
C1538 C1539 1.372 . S
C1539 C1538 1.372 . S
C1539 C1540 1.400 . S
C1539 C1544 1.490 . S
C1540 H1530 0.930 . S
C1540 C1539 1.400 . S
C1540 C1543 1.386 . S
H1541 C1557 0.930 . S
H1542 C1558 0.931 . S
C1543 H1531 0.929 . S
C1543 C1537 1.390 . S
C1543 C1540 1.386 . S
C1544 C1539 1.490 . S
C1544 C1546 1.395 . S
C1544 C1547 1.403 . S
H1545 C1551 0.930 . S
C1546 H1532 0.930 . S
C1546 C1544 1.395 . S
C1546 C1549 1.403 . S
C1547 C1544 1.403 . S
C1547 C1548 1.524 . S
C1547 C1551 1.400 . S
C1548 H1533 0.960 . S
C1548 H1534 0.960 . S
C1548 H1535 0.960 . S
C1548 C1547 1.524 . S
C1549 C1546 1.403 . S
C1549 C1550 1.392 . S
C1549 C1553 1.495 . S
C1550 C1549 1.392 . S
C1550 C1551 1.385 . S
C1550 C1552 1.478 . S
C1551 H1545 0.930 . S
C1551 C1547 1.400 . S
C1551 C1550 1.385 . S
C1552 C1550 1.478 . S
C1552 C1554 1.381 . S
C1552 C1558 1.383 . S
C1553 C1549 1.495 . S
C1553 H1559 0.959 . S
C1553 H1560 0.961 . S
C1553 H1561 0.960 . S
C1554 C1552 1.381 . S
C1554 C1555 1.394 . S
C1554 H1562 0.930 . S
C1555 C1554 1.394 . S
C1555 C1556 1.383 . S
C1555 H1563 0.929 . S
C1556 C1555 1.383 . S
C1556 C1557 1.377 . S
C1557 H1541 0.930 . S
C1557 C1556 1.377 . S
C1557 C1558 1.379 . S
C1558 H1542 0.931 . S
C1558 C1552 1.383 . S
C1558 C1557 1.379 . S
H1559 C1553 0.959 . S
H1560 C1553 0.961 . S
H1561 C1553 0.960 . S
H1562 C1554 0.930 . S
H1563 C1555 0.929 . S
H1564 C1572 0.929 . S
H1565 C1574 0.930 . S
H1566 C1576 0.930 . S
H1567 C1579 0.929 . S
H1568 C1582 0.930 . S
H1569 C1584 0.960 . S
H1570 C1584 0.960 . S
H1571 C1584 0.960 . S
C1572 H1564 0.929 . S
C1572 C1573 1.377 . S
C1572 C1574 1.384 . S
C1573 C1572 1.377 . S
C1573 C1579 1.390 . S
C1574 H1565 0.930 . S
C1574 C1572 1.384 . S
C1574 C1575 1.372 . S
C1575 C1574 1.372 . S
C1575 C1576 1.400 . S
C1575 C1580 1.490 . S
C1576 H1566 0.930 . S
C1576 C1575 1.400 . S
C1576 C1579 1.386 . S
H1577 C1593 0.930 . S
H1578 C1594 0.931 . S
C1579 H1567 0.929 . S
C1579 C1573 1.390 . S
C1579 C1576 1.386 . S
C1580 C1575 1.490 . S
C1580 C1582 1.395 . S
C1580 C1583 1.403 . S
H1581 C1587 0.930 . S
C1582 H1568 0.930 . S
C1582 C1580 1.395 . S
C1582 C1585 1.403 1_455 S
C1583 C1580 1.403 . S
C1583 C1584 1.524 . S
C1583 C1587 1.400 1_455 S
C1584 H1569 0.960 . S
C1584 H1570 0.960 . S
C1584 H1571 0.960 . S
C1584 C1583 1.524 . S
C1585 C1582 1.403 1_655 S
C1585 C1586 1.392 . S
C1585 C1589 1.495 . S
C1586 C1585 1.392 . S
C1586 C1587 1.385 . S
C1586 C1588 1.478 . S
C1587 H1581 0.930 . S
C1587 C1583 1.400 1_655 S
C1587 C1586 1.385 . S
C1588 C1586 1.478 . S
C1588 C1590 1.381 . S
C1588 C1594 1.383 . S
C1589 C1585 1.495 . S
C1589 H1595 0.959 . S
C1589 H1596 0.961 . S
C1589 H1597 0.960 . S
C1590 C1588 1.381 . S
C1590 C1591 1.394 . S
C1590 H1598 0.930 . S
C1591 C1590 1.394 . S
C1591 C1592 1.383 . S
C1591 H1599 0.929 . S
C1592 C1591 1.383 . S
C1592 C1593 1.377 . S
C1593 H1577 0.930 . S
C1593 C1592 1.377 . S
C1593 C1594 1.379 . S
C1594 H1578 0.931 . S
C1594 C1588 1.383 . S
C1594 C1593 1.379 . S
H1595 C1589 0.959 . S
H1596 C1589 0.961 . S
H1597 C1589 0.960 . S
H1598 C1590 0.930 . S
H1599 C1591 0.929 . S
H1600 C1608 0.929 . S
H1601 C1610 0.930 . S
H1602 C1612 0.878 1_554 S
H1603 C1615 0.929 . S
H1604 C1618 0.930 . S
H1605 C1620 0.960 . S
H1606 C1620 0.960 . S
H1607 C1620 0.960 . S
C1608 H1600 0.929 . S
C1608 C1609 1.377 . S
C1608 C1610 1.384 . S
C1609 C1608 1.377 . S
C1609 C1615 1.390 . S
C1610 H1601 0.930 . S
C1610 C1608 1.384 . S
C1610 C1611 1.372 . S
C1611 C1610 1.372 . S
C1611 C1612 1.400 . S
C1611 C1616 1.490 . S
C1612 H1602 0.878 1_556 S
C1612 C1611 1.400 . S
C1612 C1615 1.386 . S
H1613 C1629 0.930 . S
H1614 C1630 0.931 . S
C1615 H1603 0.929 . S
C1615 C1609 1.390 . S
C1615 C1612 1.386 . S
C1616 C1611 1.490 . S
C1616 C1618 1.395 . S
C1616 C1619 1.403 1_556 S
H1617 C1623 0.930 . S
C1618 H1604 0.930 . S
C1618 C1616 1.395 . S
C1618 C1621 1.403 . S
C1619 C1616 1.403 1_554 S
C1619 C1620 1.524 . S
C1619 C1623 1.400 . S
C1620 H1605 0.960 . S
C1620 H1606 0.960 . S
C1620 H1607 0.960 . S
C1620 C1619 1.524 . S
C1621 C1618 1.403 . S
C1621 C1622 1.392 1_556 S
C1621 C1625 1.495 . S
C1622 C1621 1.392 1_554 S
C1622 C1623 1.385 . S
C1622 C1624 1.478 . S
C1623 H1617 0.930 . S
C1623 C1619 1.400 . S
C1623 C1622 1.385 . S
C1624 C1622 1.478 . S
C1624 C1626 1.381 . S
C1624 C1630 1.383 . S
C1625 C1621 1.495 . S
C1625 H1631 0.959 . S
C1625 H1632 0.961 . S
C1625 H1633 0.960 . S
C1626 C1624 1.381 . S
C1626 C1627 1.394 . S
C1626 H1634 0.930 1_554 S
C1627 C1626 1.394 . S
C1627 C1628 1.383 . S
C1627 H1635 0.929 . S
C1628 C1627 1.383 . S
C1628 C1629 1.377 . S
C1629 H1613 0.930 . S
C1629 C1628 1.377 . S
C1629 C1630 1.379 . S
C1630 H1614 0.931 . S
C1630 C1624 1.383 . S
C1630 C1629 1.379 . S
H1631 C1625 0.959 . S
H1632 C1625 0.961 . S
H1633 C1625 0.960 . S
H1634 C1626 0.930 1_556 S
H1635 C1627 0.929 . S
H1636 C1644 0.929 . S
H1637 C1646 0.930 . S
H1638 C1648 0.930 . S
H1639 C1651 0.929 . S
H1640 C1654 0.930 . S
H1641 C1656 0.960 . S
H1642 C1656 0.960 . S
H1643 C1656 0.960 . S
C1644 H1636 0.929 . S
C1644 C1645 1.377 . S
C1644 C1646 1.384 . S
C1645 C1644 1.377 . S
C1645 C1651 1.390 . S
C1646 H1637 0.930 . S
C1646 C1644 1.384 . S
C1646 C1647 1.372 . S
C1647 C1646 1.372 . S
C1647 C1648 1.400 . S
C1647 C1652 1.490 . S
C1648 H1638 0.930 . S
C1648 C1647 1.400 . S
C1648 C1651 1.386 . S
H1649 C1665 0.930 . S
H1650 C1666 0.931 . S
C1651 H1639 0.929 . S
C1651 C1645 1.390 . S
C1651 C1648 1.386 . S
C1652 C1647 1.490 . S
C1652 C1654 1.395 . S
C1652 C1655 1.403 . S
H1653 C1659 0.930 . S
C1654 H1640 0.930 . S
C1654 C1652 1.395 . S
C1654 C1657 1.403 . S
C1655 C1652 1.403 . S
C1655 C1656 1.524 . S
C1655 C1659 1.400 . S
C1656 H1641 0.960 . S
C1656 H1642 0.960 . S
C1656 H1643 0.960 . S
C1656 C1655 1.524 . S
C1657 C1654 1.403 . S
C1657 C1658 1.392 . S
C1657 C1661 1.495 . S
C1658 C1657 1.392 . S
C1658 C1659 1.385 . S
C1658 C1660 1.478 . S
C1659 H1653 0.930 . S
C1659 C1655 1.400 . S
C1659 C1658 1.385 . S
C1660 C1658 1.478 . S
C1660 C1662 1.381 . S
C1660 C1666 1.383 . S
C1661 C1657 1.495 . S
C1661 H1667 0.959 . S
C1661 H1668 0.961 . S
C1661 H1669 0.960 . S
C1662 C1660 1.381 . S
C1662 C1663 1.394 . S
C1662 H1670 0.930 . S
C1663 C1662 1.394 . S
C1663 C1664 1.383 . S
C1663 H1671 0.929 . S
C1664 C1663 1.383 . S
C1664 C1665 1.377 . S
C1665 H1649 0.930 . S
C1665 C1664 1.377 . S
C1665 C1666 1.379 . S
C1666 H1650 0.931 . S
C1666 C1660 1.383 . S
C1666 C1665 1.379 . S
H1667 C1661 0.959 . S
H1668 C1661 0.961 . S
H1669 C1661 0.960 . S
H1670 C1662 0.930 . S
H1671 C1663 0.929 . S
H1672 C1680 0.929 . S
H1673 C1682 0.930 . S
H1674 C1684 0.930 . S
H1675 C1687 0.929 . S
H1676 C1690 0.930 . S
H1677 C1692 0.960 . S
H1678 C1692 0.960 . S
H1679 C1692 0.960 . S
C1680 H1672 0.929 . S
C1680 C1681 1.377 . S
C1680 C1682 1.384 . S
C1681 C1680 1.377 . S
C1681 C1687 1.390 . S
C1682 H1673 0.930 . S
C1682 C1680 1.384 . S
C1682 C1683 1.372 . S
C1683 C1682 1.372 . S
C1683 C1684 1.400 . S
C1683 C1688 1.490 . S
C1684 H1674 0.930 . S
C1684 C1683 1.400 . S
C1684 C1687 1.386 . S
H1685 C1701 0.930 . S
H1686 C1702 0.931 . S
C1687 H1675 0.929 . S
C1687 C1681 1.390 . S
C1687 C1684 1.386 . S
C1688 C1683 1.490 . S
C1688 C1690 1.395 . S
C1688 C1691 1.403 . S
H1689 C1695 0.930 . S
C1690 H1676 0.930 . S
C1690 C1688 1.395 . S
C1690 C1693 1.403 . S
C1691 C1688 1.403 . S
C1691 C1692 1.524 . S
C1691 C1695 1.400 . S
C1692 H1677 0.960 . S
C1692 H1678 0.960 . S
C1692 H1679 0.960 . S
C1692 C1691 1.524 . S
C1693 C1690 1.403 . S
C1693 C1694 1.392 . S
C1693 C1697 1.495 . S
C1694 C1693 1.392 . S
C1694 C1695 1.385 . S
C1694 C1696 1.478 . S
C1695 H1689 0.930 . S
C1695 C1691 1.400 . S
C1695 C1694 1.385 . S
C1696 C1694 1.478 . S
C1696 C1698 1.381 . S
C1696 C1702 1.383 . S
C1697 C1693 1.495 . S
C1697 H1703 0.959 . S
C1697 H1704 0.961 . S
C1697 H1705 0.960 . S
C1698 C1696 1.381 . S
C1698 C1699 1.394 . S
C1698 H1706 0.930 . S
C1699 C1698 1.394 . S
C1699 C1700 1.383 . S
C1699 H1707 0.929 . S
C1700 C1699 1.383 . S
C1700 C1701 1.377 . S
C1701 H1685 0.930 . S
C1701 C1700 1.377 . S
C1701 C1702 1.379 . S
C1702 H1686 0.931 . S
C1702 C1696 1.383 . S
C1702 C1701 1.379 . S
H1703 C1697 0.959 . S
H1704 C1697 0.961 . S
H1705 C1697 0.960 . S
H1706 C1698 0.930 . S
H1707 C1699 0.929 . S
H1708 C1716 0.929 . S
H1709 C1718 0.930 . S
H1710 C1720 0.930 . S
H1711 C1723 0.929 . S
H1712 C1726 0.930 . S
H1713 C1728 0.960 . S
H1714 C1728 0.960 . S
H1715 C1728 0.960 . S
C1716 H1708 0.929 . S
C1716 C1717 1.377 . S
C1716 C1718 1.384 . S
C1717 C1716 1.377 . S
C1717 C1723 1.390 . S
C1718 H1709 0.930 . S
C1718 C1716 1.384 . S
C1718 C1719 1.372 . S
C1719 C1718 1.372 . S
C1719 C1720 1.400 . S
C1719 C1724 1.490 . S
C1720 H1710 0.930 . S
C1720 C1719 1.400 . S
C1720 C1723 1.386 . S
H1721 C1737 0.930 . S
H1722 C1738 0.931 . S
C1723 H1711 0.929 . S
C1723 C1717 1.390 . S
C1723 C1720 1.386 . S
C1724 C1719 1.490 . S
C1724 C1726 1.395 . S
C1724 C1727 1.403 . S
H1725 C1731 0.930 . S
C1726 H1712 0.930 . S
C1726 C1724 1.395 . S
C1726 C1729 1.403 . S
C1727 C1724 1.403 . S
C1727 C1728 1.524 . S
C1727 C1731 1.400 . S
C1728 H1713 0.960 . S
C1728 H1714 0.960 . S
C1728 H1715 0.960 . S
C1728 C1727 1.524 . S
C1729 C1726 1.403 . S
C1729 C1730 1.392 . S
C1729 C1733 1.495 . S
C1730 C1729 1.392 . S
C1730 C1731 1.385 . S
C1730 C1732 1.478 . S
C1731 H1725 0.930 . S
C1731 C1727 1.400 . S
C1731 C1730 1.385 . S
C1732 C1730 1.478 . S
C1732 C1734 1.381 . S
C1732 C1738 1.383 . S
C1733 C1729 1.495 . S
C1733 H1739 0.959 . S
C1733 H1740 0.961 . S
C1733 H1741 0.960 . S
C1734 C1732 1.381 . S
C1734 C1735 1.394 . S
C1734 H1742 0.930 . S
C1735 C1734 1.394 . S
C1735 C1736 1.383 . S
C1735 H1743 0.929 . S
C1736 C1735 1.383 . S
C1736 C1737 1.377 . S
C1737 H1721 0.930 . S
C1737 C1736 1.377 . S
C1737 C1738 1.379 . S
C1738 H1722 0.931 . S
C1738 C1732 1.383 . S
C1738 C1737 1.379 . S
H1739 C1733 0.959 . S
H1740 C1733 0.961 . S
H1741 C1733 0.960 . S
H1742 C1734 0.930 . S
H1743 C1735 0.929 . S
H1744 C1752 0.929 . S
H1745 C1754 0.930 1_556 S
H1746 C1756 0.930 . S
H1747 C1759 0.929 . S
H1748 C1762 0.930 . S
H1749 C1764 0.960 . S
H1750 C1764 0.960 . S
H1751 C1764 0.960 . S
C1752 H1744 0.929 . S
C1752 C1753 1.377 . S
C1752 C1754 1.384 . S
C1753 C1752 1.377 . S
C1753 C1759 1.390 . S
C1754 H1745 0.930 1_554 S
C1754 C1752 1.384 . S
C1754 C1755 1.372 . S
C1755 C1754 1.372 . S
C1755 C1756 1.400 . S
C1755 C1760 1.490 . S
C1756 H1746 0.930 . S
C1756 C1755 1.400 . S
C1756 C1759 1.386 . S
H1757 C1773 0.930 . S
H1758 C1774 0.931 1_554 S
C1759 H1747 0.929 . S
C1759 C1753 1.390 . S
C1759 C1756 1.386 . S
C1760 C1755 1.490 . S
C1760 C1762 1.395 1_554 S
C1760 C1763 1.403 . S
H1761 C1767 0.930 . S
C1762 H1748 0.930 . S
C1762 C1760 1.395 1_556 S
C1762 C1765 1.403 . S
C1763 C1760 1.403 . S
C1763 C1764 1.524 . S
C1763 C1767 1.400 . S
C1764 H1749 0.960 . S
C1764 H1750 0.960 . S
C1764 H1751 0.960 . S
C1764 C1763 1.524 . S
C1765 C1762 1.403 . S
C1765 C1766 1.392 . S
C1765 C1769 1.495 . S
C1766 C1765 1.392 . S
C1766 C1767 1.385 1_556 S
C1766 C1768 1.478 . S
C1767 H1761 0.930 . S
C1767 C1763 1.400 . S
C1767 C1766 1.385 1_554 S
C1768 C1766 1.478 . S
C1768 C1770 1.381 . S
C1768 C1774 1.383 . S
C1769 C1765 1.495 . S
C1769 H1775 0.959 . S
C1769 H1776 0.961 . S
C1769 H1777 0.960 . S
C1770 C1768 1.381 . S
C1770 C1771 1.394 . S
C1770 H1778 0.930 . S
C1771 C1770 1.394 . S
C1771 C1772 1.383 . S
C1771 H1779 0.929 . S
C1772 C1771 1.383 . S
C1772 C1773 1.377 . S
C1773 H1757 0.930 . S
C1773 C1772 1.377 . S
C1773 C1774 1.379 . S
C1774 H1758 0.931 1_556 S
C1774 C1768 1.383 . S
C1774 C1773 1.379 . S
H1775 C1769 0.959 . S
H1776 C1769 0.961 . S
H1777 C1769 0.960 . S
H1778 C1770 0.930 . S
H1779 C1771 0.929 . S
H1780 C1788 0.929 . S
H1781 C1790 0.930 . S
H1782 C1792 0.930 . S
H1783 C1795 0.929 . S
H1784 C1798 0.930 . S
H1785 C1800 0.960 . S
H1786 C1800 0.960 . S
H1787 C1800 0.960 . S
C1788 H1780 0.929 . S
C1788 C1789 1.377 . S
C1788 C1790 1.384 . S
C1789 C1788 1.377 . S
C1789 C1795 1.390 . S
C1790 H1781 0.930 . S
C1790 C1788 1.384 . S
C1790 C1791 1.372 . S
C1791 C1790 1.372 . S
C1791 C1792 1.400 . S
C1791 C1796 1.490 . S
C1792 H1782 0.930 . S
C1792 C1791 1.400 . S
C1792 C1795 1.386 . S
H1793 C1809 0.930 . S
H1794 C1810 0.931 . S
C1795 H1783 0.929 . S
C1795 C1789 1.390 . S
C1795 C1792 1.386 . S
C1796 C1791 1.490 . S
C1796 C1798 1.395 . S
C1796 C1799 1.403 . S
H1797 C1803 0.930 . S
C1798 H1784 0.930 . S
C1798 C1796 1.395 . S
C1798 C1801 1.403 . S
C1799 C1796 1.403 . S
C1799 C1800 1.524 . S
C1799 C1803 1.400 . S
C1800 H1785 0.960 . S
C1800 H1786 0.960 . S
C1800 H1787 0.960 . S
C1800 C1799 1.524 . S
C1801 C1798 1.403 . S
C1801 C1802 1.392 . S
C1801 C1805 1.495 . S
C1802 C1801 1.392 . S
C1802 C1803 1.385 . S
C1802 C1804 1.478 . S
C1803 H1797 0.930 . S
C1803 C1799 1.400 . S
C1803 C1802 1.385 . S
C1804 C1802 1.478 . S
C1804 C1806 1.381 . S
C1804 C1810 1.383 . S
C1805 C1801 1.495 . S
C1805 H1811 0.959 . S
C1805 H1812 0.961 . S
C1805 H1813 0.960 . S
C1806 C1804 1.381 . S
C1806 C1807 1.394 . S
C1806 H1814 0.930 . S
C1807 C1806 1.394 . S
C1807 C1808 1.383 . S
C1807 H1815 0.929 . S
C1808 C1807 1.383 . S
C1808 C1809 1.377 . S
C1809 H1793 0.930 . S
C1809 C1808 1.377 . S
C1809 C1810 1.379 . S
C1810 H1794 0.931 . S
C1810 C1804 1.383 . S
C1810 C1809 1.379 . S
H1811 C1805 0.959 . S
H1812 C1805 0.961 . S
H1813 C1805 0.960 . S
H1814 C1806 0.930 . S
H1815 C1807 0.929 . S
H1816 C1824 0.929 . S
H1817 C1826 0.930 . S
H1818 C1828 0.930 . S
H1819 C1831 0.929 . S
H1820 C1834 0.930 . S
H1821 C1836 0.960 . S
H1822 C1836 0.960 . S
H1823 C1836 0.960 . S
C1824 H1816 0.929 . S
C1824 C1825 1.377 . S
C1824 C1826 1.384 . S
C1825 C1824 1.377 . S
C1825 C1831 1.390 . S
C1826 H1817 0.930 . S
C1826 C1824 1.384 . S
C1826 C1827 1.372 . S
C1827 C1826 1.372 . S
C1827 C1828 1.400 . S
C1827 C1832 1.490 . S
C1828 H1818 0.930 . S
C1828 C1827 1.400 . S
C1828 C1831 1.386 . S
H1829 C1845 0.930 . S
H1830 C1846 0.931 . S
C1831 H1819 0.929 . S
C1831 C1825 1.390 . S
C1831 C1828 1.386 . S
C1832 C1827 1.490 . S
C1832 C1834 1.395 . S
C1832 C1835 1.403 . S
H1833 C1839 0.930 . S
C1834 H1820 0.930 . S
C1834 C1832 1.395 . S
C1834 C1837 1.403 . S
C1835 C1832 1.403 . S
C1835 C1836 1.524 . S
C1835 C1839 1.400 . S
C1836 H1821 0.960 . S
C1836 H1822 0.960 . S
C1836 H1823 0.960 . S
C1836 C1835 1.524 . S
C1837 C1834 1.403 . S
C1837 C1838 1.392 . S
C1837 C1841 1.495 . S
C1838 C1837 1.392 . S
C1838 C1839 1.385 . S
C1838 C1840 1.478 . S
C1839 H1833 0.930 . S
C1839 C1835 1.400 . S
C1839 C1838 1.385 . S
C1840 C1838 1.478 . S
C1840 C1842 1.381 . S
C1840 C1846 1.383 . S
C1841 C1837 1.495 . S
C1841 H1847 0.959 . S
C1841 H1848 0.961 . S
C1841 H1849 0.960 . S
C1842 C1840 1.381 . S
C1842 C1843 1.394 . S
C1842 H1850 0.930 . S
C1843 C1842 1.394 . S
C1843 C1844 1.383 . S
C1843 H1851 0.929 . S
C1844 C1843 1.383 . S
C1844 C1845 1.377 . S
C1845 H1829 0.930 . S
C1845 C1844 1.377 . S
C1845 C1846 1.379 . S
C1846 H1830 0.931 . S
C1846 C1840 1.383 . S
C1846 C1845 1.379 . S
H1847 C1841 0.959 . S
H1848 C1841 0.961 . S
H1849 C1841 0.960 . S
H1850 C1842 0.930 . S
H1851 C1843 0.929 . S
H1852 C1860 0.929 . S
H1853 C1862 0.930 . S
H1854 C1864 0.930 . S
H1855 C1867 0.929 . S
H1856 C1870 0.930 . S
H1857 C1872 0.960 . S
H1858 C1872 0.960 . S
H1859 C1872 0.960 . S
C1860 H1852 0.929 . S
C1860 C1861 1.377 . S
C1860 C1862 1.384 . S
C1861 C1860 1.377 . S
C1861 C1867 1.390 . S
C1862 H1853 0.930 . S
C1862 C1860 1.384 . S
C1862 C1863 1.372 . S
C1863 C1862 1.372 . S
C1863 C1864 1.400 . S
C1863 C1868 1.490 . S
C1864 H1854 0.930 . S
C1864 C1863 1.400 . S
C1864 C1867 1.386 . S
H1865 C1881 0.930 . S
H1866 C1882 0.931 . S
C1867 H1855 0.929 . S
C1867 C1861 1.390 . S
C1867 C1864 1.386 . S
C1868 C1863 1.490 . S
C1868 C1870 1.395 . S
C1868 C1871 1.403 . S
H1869 C1875 0.930 . S
C1870 H1856 0.930 . S
C1870 C1868 1.395 . S
C1870 C1873 1.403 . S
C1871 C1868 1.403 . S
C1871 C1872 1.524 . S
C1871 C1875 1.400 . S
C1872 H1857 0.960 . S
C1872 H1858 0.960 . S
C1872 H1859 0.960 . S
C1872 C1871 1.524 . S
C1873 C1870 1.403 . S
C1873 C1874 1.392 . S
C1873 C1877 1.495 . S
C1874 C1873 1.392 . S
C1874 C1875 1.385 . S
C1874 C1876 1.478 . S
C1875 H1869 0.930 . S
C1875 C1871 1.400 . S
C1875 C1874 1.385 . S
C1876 C1874 1.478 . S
C1876 C1878 1.381 . S
C1876 C1882 1.383 . S
C1877 C1873 1.495 . S
C1877 H1883 0.959 . S
C1877 H1884 0.961 . S
C1877 H1885 0.960 . S
C1878 C1876 1.381 . S
C1878 C1879 1.394 . S
C1878 H1886 0.930 . S
C1879 C1878 1.394 . S
C1879 C1880 1.383 . S
C1879 H1887 0.929 . S
C1880 C1879 1.383 . S
C1880 C1881 1.377 . S
C1881 H1865 0.930 . S
C1881 C1880 1.377 . S
C1881 C1882 1.379 . S
C1882 H1866 0.931 . S
C1882 C1876 1.383 . S
C1882 C1881 1.379 . S
H1883 C1877 0.959 . S
H1884 C1877 0.961 . S
H1885 C1877 0.960 . S
H1886 C1878 0.930 . S
H1887 C1879 0.929 . S
H1888 C1896 0.929 . S
H1889 C1898 0.930 . S
H1890 C1900 0.930 . S
H1891 C1903 0.929 . S
H1892 C1906 0.930 . S
H1893 C1908 0.960 1_565 S
H1894 C1908 0.960 . S
H1895 C1908 0.960 . S
C1896 H1888 0.929 . S
C1896 C1897 1.377 . S
C1896 C1898 1.384 . S
C1897 C1896 1.377 . S
C1897 C1903 1.390 . S
C1898 H1889 0.930 . S
C1898 C1896 1.384 . S
C1898 C1899 1.372 . S
C1899 C1898 1.372 . S
C1899 C1900 1.400 . S
C1899 C1904 1.490 . S
C1900 H1890 0.930 . S
C1900 C1899 1.400 . S
C1900 C1903 1.386 . S
H1901 C1917 0.930 . S
H1902 C1918 0.931 . S
C1903 H1891 0.929 . S
C1903 C1897 1.390 . S
C1903 C1900 1.386 . S
C1904 C1899 1.490 . S
C1904 C1906 1.395 . S
C1904 C1907 1.403 . S
H1905 C1911 0.930 . S
C1906 H1892 0.930 . S
C1906 C1904 1.395 . S
C1906 C1909 1.403 1_545 S
C1907 C1904 1.403 . S
C1907 C1908 1.524 . S
C1907 C1911 1.400 1_545 S
C1908 H1893 0.960 1_545 S
C1908 H1894 0.960 . S
C1908 H1895 0.960 . S
C1908 C1907 1.524 . S
C1909 C1906 1.403 1_565 S
C1909 C1910 1.392 . S
C1909 C1913 1.495 . S
C1910 C1909 1.392 . S
C1910 C1911 1.385 . S
C1910 C1912 1.478 . S
C1911 H1905 0.930 . S
C1911 C1907 1.400 1_565 S
C1911 C1910 1.385 . S
C1912 C1910 1.478 . S
C1912 C1914 1.381 . S
C1912 C1918 1.383 . S
C1913 C1909 1.495 . S
C1913 H1919 0.959 1_565 S
C1913 H1920 0.961 . S
C1913 H1921 0.960 . S
C1914 C1912 1.381 . S
C1914 C1915 1.394 . S
C1914 H1922 0.930 . S
C1915 C1914 1.394 . S
C1915 C1916 1.383 . S
C1915 H1923 0.929 . S
C1916 C1915 1.383 . S
C1916 C1917 1.377 . S
C1917 H1901 0.930 . S
C1917 C1916 1.377 . S
C1917 C1918 1.379 . S
C1918 H1902 0.931 . S
C1918 C1912 1.383 . S
C1918 C1917 1.379 . S
H1919 C1913 0.959 1_545 S
H1920 C1913 0.961 . S
H1921 C1913 0.960 . S
H1922 C1914 0.930 . S
H1923 C1915 0.929 . S
H1924 C1932 0.929 . S
H1925 C1934 0.930 . S
H1926 C1936 0.930 . S
H1927 C1939 0.929 . S
H1928 C1942 0.930 . S
H1929 C1944 0.960 . S
H1930 C1944 0.960 . S
H1931 C1944 0.960 . S
C1932 H1924 0.929 . S
C1932 C1933 1.377 . S
C1932 C1934 1.384 . S
C1933 C1932 1.377 . S
C1933 C1939 1.390 . S
C1934 H1925 0.930 . S
C1934 C1932 1.384 . S
C1934 C1935 1.372 . S
C1935 C1934 1.372 . S
C1935 C1936 1.400 . S
C1935 C1940 1.490 . S
C1936 H1926 0.930 . S
C1936 C1935 1.400 . S
C1936 C1939 1.386 . S
H1937 C1953 0.930 . S
H1938 C1954 0.931 . S
C1939 H1927 0.929 . S
C1939 C1933 1.390 . S
C1939 C1936 1.386 . S
C1940 C1935 1.490 . S
C1940 C1942 1.395 . S
C1940 C1943 1.403 . S
H1941 C1947 0.930 . S
C1942 H1928 0.930 . S
C1942 C1940 1.395 . S
C1942 C1945 1.403 . S
C1943 C1940 1.403 . S
C1943 C1944 1.524 . S
C1943 C1947 1.400 . S
C1944 H1929 0.960 . S
C1944 H1930 0.960 . S
C1944 H1931 0.960 . S
C1944 C1943 1.524 . S
C1945 C1942 1.403 . S
C1945 C1946 1.392 . S
C1945 C1949 1.495 . S
C1946 C1945 1.392 . S
C1946 C1947 1.385 . S
C1946 C1948 1.478 . S
C1947 H1941 0.930 . S
C1947 C1943 1.400 . S
C1947 C1946 1.385 . S
C1948 C1946 1.478 . S
C1948 C1950 1.381 . S
C1948 C1954 1.383 . S
C1949 C1945 1.495 . S
C1949 H1955 0.959 . S
C1949 H1956 0.961 . S
C1949 H1957 0.960 . S
C1950 C1948 1.381 . S
C1950 C1951 1.394 . S
C1950 H1958 0.930 . S
C1951 C1950 1.394 . S
C1951 C1952 1.383 . S
C1951 H1959 0.929 . S
C1952 C1951 1.383 . S
C1952 C1953 1.377 . S
C1953 H1937 0.930 . S
C1953 C1952 1.377 . S
C1953 C1954 1.379 . S
C1954 H1938 0.931 . S
C1954 C1948 1.383 . S
C1954 C1953 1.379 . S
H1955 C1949 0.959 . S
H1956 C1949 0.961 . S
H1957 C1949 0.960 . S
H1958 C1950 0.930 . S
H1959 C1951 0.929 . S
H1960 C1968 0.929 . S
H1961 C1970 0.930 . S
H1962 C1972 0.930 . S
H1963 C1975 0.929 . S
H1964 C1978 0.930 . S
H1965 C1980 0.960 1_545 S
H1966 C1980 0.960 . S
H1967 C1980 0.960 . S
C1968 H1960 0.929 . S
C1968 C1969 1.377 . S
C1968 C1970 1.384 . S
C1969 C1968 1.377 . S
C1969 C1975 1.390 . S
C1970 H1961 0.930 . S
C1970 C1968 1.384 . S
C1970 C1971 1.372 . S
C1971 C1970 1.372 . S
C1971 C1972 1.400 . S
C1971 C1976 1.490 . S
C1972 H1962 0.930 . S
C1972 C1971 1.400 . S
C1972 C1975 1.386 . S
H1973 C1989 0.930 . S
H1974 C1990 0.931 . S
C1975 H1963 0.929 . S
C1975 C1969 1.390 . S
C1975 C1972 1.386 . S
C1976 C1971 1.490 . S
C1976 C1978 1.395 1_554 S
C1976 C1979 1.403 . S
H1977 C1983 0.930 . S
C1978 H1964 0.930 . S
C1978 C1976 1.395 1_556 S
C1978 C1981 1.361 1_565 S
C1979 C1976 1.403 . S
C1979 C1980 1.524 . S
C1979 C1983 1.400 1_565 S
C1980 H1965 0.960 1_565 S
C1980 H1966 0.960 . S
C1980 H1967 0.960 . S
C1980 C1979 1.524 . S
C1981 C1978 1.361 1_545 S
C1981 C1982 1.432 . S
C1981 C1985 1.498 . S
C1982 C1981 1.432 . S
C1982 C1983 1.385 1_556 S
C1982 C1984 1.478 . S
C1983 H1977 0.930 . S
C1983 C1979 1.400 1_545 S
C1983 C1982 1.385 1_554 S
C1984 C1982 1.478 . S
C1984 C1986 1.381 . S
C1984 C1990 1.383 . S
C1985 C1981 1.498 . S
C1985 H1991 0.959 1_545 S
C1985 H1992 0.961 . S
C1985 H1993 0.960 . S
C1986 C1984 1.381 . S
C1986 C1987 1.394 . S
C1986 H1994 0.930 . S
C1987 C1986 1.394 . S
C1987 C1988 1.383 . S
C1987 H1995 0.929 . S
C1988 C1987 1.383 . S
C1988 C1989 1.377 . S
C1989 H1973 0.930 . S
C1989 C1988 1.377 . S
C1989 C1990 1.379 . S
C1990 H1974 0.931 . S
C1990 C1984 1.383 . S
C1990 C1989 1.379 . S
H1991 C1985 0.959 1_565 S
H1992 C1985 0.961 . S
H1993 C1985 0.960 . S
H1994 C1986 0.930 . S
H1995 C1987 0.929 . S
H1996 C2004 0.929 . S
H1997 C2006 0.930 . S
H1998 C2008 0.930 . S
H1999 C2011 0.929 . S
H2000 C2014 0.930 . S
H2001 C2016 0.960 . S
H2002 C2016 0.960 . S
H2003 C2016 0.960 . S
C2004 H1996 0.929 . S
C2004 C2005 1.377 . S
C2004 C2006 1.384 . S
C2005 C2004 1.377 . S
C2005 C2011 1.390 . S
C2006 H1997 0.930 . S
C2006 C2004 1.384 . S
C2006 C2007 1.372 . S
C2007 C2006 1.372 . S
C2007 C2008 1.400 . S
C2007 C2012 1.490 . S
C2008 H1998 0.930 . S
C2008 C2007 1.400 . S
C2008 C2011 1.386 . S
H2009 C2025 0.930 . S
H2010 C2026 0.931 . S
C2011 H1999 0.929 . S
C2011 C2005 1.390 . S
C2011 C2008 1.386 . S
C2012 C2007 1.490 . S
C2012 C2014 1.395 . S
C2012 C2015 1.403 . S
H2013 C2019 0.930 . S
C2014 H2000 0.930 . S
C2014 C2012 1.395 . S
C2014 C2017 1.403 . S
C2015 C2012 1.403 . S
C2015 C2016 1.524 . S
C2015 C2019 1.400 . S
C2016 H2001 0.960 . S
C2016 H2002 0.960 . S
C2016 H2003 0.960 . S
C2016 C2015 1.524 . S
C2017 C2014 1.403 . S
C2017 C2018 1.392 . S
C2017 C2021 1.495 . S
C2018 C2017 1.392 . S
C2018 C2019 1.385 . S
C2018 C2020 1.478 . S
C2019 H2013 0.930 . S
C2019 C2015 1.400 . S
C2019 C2018 1.385 . S
C2020 C2018 1.478 . S
C2020 C2022 1.381 . S
C2020 C2026 1.383 . S
C2021 C2017 1.495 . S
C2021 H2027 0.959 . S
C2021 H2028 0.961 . S
C2021 H2029 0.960 . S
C2022 C2020 1.381 . S
C2022 C2023 1.394 . S
C2022 H2030 0.930 . S
C2023 C2022 1.394 . S
C2023 C2024 1.383 . S
C2023 H2031 0.929 . S
C2024 C2023 1.383 . S
C2024 C2025 1.377 . S
C2025 H2009 0.930 . S
C2025 C2024 1.377 . S
C2025 C2026 1.379 . S
C2026 H2010 0.931 . S
C2026 C2020 1.383 . S
C2026 C2025 1.379 . S
H2027 C2021 0.959 . S
H2028 C2021 0.961 . S
H2029 C2021 0.960 . S
H2030 C2022 0.930 . S
H2031 C2023 0.929 . S
H2032 C2040 0.929 . S
H2033 C2042 0.930 . S
H2034 C2044 0.930 . S
H2035 C2047 0.929 . S
H2036 C2050 0.930 . S
H2037 C2052 0.958 . S
H2038 C2052 0.960 . S
H2039 C2052 0.960 . S
C2040 H2032 0.929 . S
C2040 C2041 1.377 . S
C2040 C2042 1.384 . S
C2041 C2040 1.377 . S
C2041 C2047 1.390 . S
C2042 H2033 0.930 . S
C2042 C2040 1.384 . S
C2042 C2043 1.372 . S
C2043 C2042 1.372 . S
C2043 C2044 1.400 . S
C2043 C2048 1.490 . S
C2044 H2034 0.930 . S
C2044 C2043 1.400 . S
C2044 C2047 1.386 . S
H2045 C2061 0.930 . S
H2046 C2062 0.931 . S
C2047 H2035 0.929 . S
C2047 C2041 1.390 . S
C2047 C2044 1.386 . S
C2048 C2043 1.490 . S
C2048 C2050 1.395 . S
C2048 C2051 1.403 . S
H2049 C2055 0.930 . S
C2050 H2036 0.930 . S
C2050 C2048 1.395 . S
C2050 C2053 1.403 1_545 S
C2051 C2048 1.403 . S
C2051 C2052 1.524 . S
C2051 C2055 1.400 1_545 S
C2052 H2037 0.958 . S
C2052 H2038 0.960 . S
C2052 H2039 0.960 . S
C2052 C2051 1.524 . S
C2053 C2050 1.403 1_565 S
C2053 C2054 1.392 . S
C2053 C2057 1.495 . S
C2054 C2053 1.392 . S
C2054 C2055 1.385 . S
C2054 C2056 1.478 . S
C2055 H2049 0.930 . S
C2055 C2051 1.400 1_565 S
C2055 C2054 1.385 . S
C2056 C2054 1.478 . S
C2056 C2058 1.381 . S
C2056 C2062 1.383 . S
C2057 C2053 1.495 . S
C2057 H2063 0.924 1_565 S
C2057 H2064 0.961 . S
C2057 H2065 0.960 . S
C2058 C2056 1.381 . S
C2058 C2059 1.394 . S
C2058 H2066 0.930 . S
C2059 C2058 1.394 . S
C2059 C2060 1.383 . S
C2059 H2067 0.929 . S
C2060 C2059 1.383 . S
C2060 C2061 1.377 . S
C2061 H2045 0.930 . S
C2061 C2060 1.377 . S
C2061 C2062 1.379 . S
C2062 H2046 0.931 . S
C2062 C2056 1.383 . S
C2062 C2061 1.379 . S
H2063 C2057 0.924 1_545 S
H2064 C2057 0.961 . S
H2065 C2057 0.960 . S
H2066 C2058 0.930 . S
H2067 C2059 0.929 . S
H2068 C2076 0.929 . S
H2069 C2078 0.930 . S
H2070 C2080 0.930 . S
H2071 C2083 0.929 . S
H2072 C2086 0.930 . S
H2073 C2088 0.960 . S
H2074 C2088 0.960 . S
H2075 C2088 0.960 . S
C2076 H2068 0.929 . S
C2076 C2077 1.377 . S
C2076 C2078 1.384 . S
C2077 C2076 1.377 . S
C2077 C2083 1.390 . S
C2078 H2069 0.930 . S
C2078 C2076 1.384 . S
C2078 C2079 1.372 . S
C2079 C2078 1.372 . S
C2079 C2080 1.400 . S
C2079 C2084 1.490 . S
C2080 H2070 0.930 . S
C2080 C2079 1.400 . S
C2080 C2083 1.386 . S
H2081 C2097 0.930 . S
H2082 C2098 0.931 . S
C2083 H2071 0.929 . S
C2083 C2077 1.390 . S
C2083 C2080 1.386 . S
C2084 C2079 1.490 . S
C2084 C2086 1.395 . S
C2084 C2087 1.403 . S
H2085 C2091 0.930 . S
C2086 H2072 0.930 . S
C2086 C2084 1.395 . S
C2086 C2089 1.403 . S
C2087 C2084 1.403 . S
C2087 C2088 1.524 . S
C2087 C2091 1.400 . S
C2088 H2073 0.960 . S
C2088 H2074 0.960 . S
C2088 H2075 0.960 . S
C2088 C2087 1.524 . S
C2089 C2086 1.403 . S
C2089 C2090 1.392 . S
C2089 C2093 1.495 . S
C2090 C2089 1.392 . S
C2090 C2091 1.385 . S
C2090 C2092 1.478 . S
C2091 H2085 0.930 . S
C2091 C2087 1.400 . S
C2091 C2090 1.385 . S
C2092 C2090 1.478 . S
C2092 C2094 1.381 . S
C2092 C2098 1.383 . S
C2093 C2089 1.495 . S
C2093 H2099 0.959 . S
C2093 H2100 0.961 . S
C2093 H2101 0.960 . S
C2094 C2092 1.381 . S
C2094 C2095 1.394 . S
C2094 H2102 0.930 . S
C2095 C2094 1.394 . S
C2095 C2096 1.383 . S
C2095 H2103 0.929 . S
C2096 C2095 1.383 . S
C2096 C2097 1.377 . S
C2097 H2081 0.930 . S
C2097 C2096 1.377 . S
C2097 C2098 1.379 . S
C2098 H2082 0.931 . S
C2098 C2092 1.383 . S
C2098 C2097 1.379 . S
H2099 C2093 0.959 . S
H2100 C2093 0.961 . S
H2101 C2093 0.960 . S
H2102 C2094 0.930 . S
H2103 C2095 0.929 . S
H2104 C2112 0.929 . S
H2105 C2114 0.930 1_556 S
H2106 C2116 0.930 . S
H2107 C2119 0.929 . S
H2108 C2122 0.930 . S
H2109 C2124 0.960 1_545 S
H2110 C2124 0.960 . S
H2111 C2124 0.960 . S
C2112 H2104 0.929 . S
C2112 C2113 1.377 . S
C2112 C2114 1.384 . S
C2113 C2112 1.377 . S
C2113 C2119 1.390 . S
C2114 H2105 0.930 1_554 S
C2114 C2112 1.384 . S
C2114 C2115 1.372 . S
C2115 C2114 1.372 . S
C2115 C2116 1.400 . S
C2115 C2120 1.490 . S
C2116 H2106 0.930 . S
C2116 C2115 1.400 . S
C2116 C2119 1.386 . S
H2117 C2133 0.930 . S
H2118 C2134 0.931 1_554 S
C2119 H2107 0.929 . S
C2119 C2113 1.390 . S
C2119 C2116 1.386 . S
C2120 C2115 1.490 . S
C2120 C2122 1.395 1_554 S
C2120 C2123 1.403 . S
H2121 C2127 0.930 . S
C2122 H2108 0.930 . S
C2122 C2120 1.395 1_556 S
C2122 C2125 1.403 1_565 S
C2123 C2120 1.403 . S
C2123 C2124 1.524 . S
C2123 C2127 1.400 1_565 S
C2124 H2109 0.960 1_565 S
C2124 H2110 0.960 . S
C2124 H2111 0.960 . S
C2124 C2123 1.524 . S
C2125 C2122 1.403 1_545 S
C2125 C2126 1.392 . S
C2125 C2129 1.495 . S
C2126 C2125 1.392 . S
C2126 C2127 1.385 1_556 S
C2126 C2128 1.478 . S
C2127 H2121 0.930 . S
C2127 C2123 1.400 1_545 S
C2127 C2126 1.385 1_554 S
C2128 C2126 1.478 . S
C2128 C2130 1.381 . S
C2128 C2134 1.383 . S
C2129 C2125 1.495 . S
C2129 H2135 0.959 1_545 S
C2129 H2136 0.961 . S
C2129 H2137 0.960 . S
C2130 C2128 1.381 . S
C2130 C2131 1.394 . S
C2130 H2138 0.930 . S
C2131 C2130 1.394 . S
C2131 C2132 1.383 . S
C2131 H2139 0.929 . S
C2132 C2131 1.383 . S
C2132 C2133 1.377 . S
C2133 H2117 0.930 . S
C2133 C2132 1.377 . S
C2133 C2134 1.379 . S
C2134 H2118 0.931 1_556 S
C2134 C2128 1.383 . S
C2134 C2133 1.379 . S
H2135 C2129 0.959 1_565 S
H2136 C2129 0.961 . S
H2137 C2129 0.960 . S
H2138 C2130 0.930 . S
H2139 C2131 0.929 . S
H2140 C2148 0.929 . S
H2141 C2150 0.930 . S
H2142 C2152 0.930 . S
H2143 C2155 0.929 . S
H2144 C2158 0.930 . S
H2145 C2160 0.960 . S
H2146 C2160 0.960 . S
H2147 C2160 0.960 . S
C2148 H2140 0.929 . S
C2148 C2149 1.377 . S
C2148 C2150 1.384 . S
C2149 C2148 1.377 . S
C2149 C2155 1.390 . S
C2150 H2141 0.930 . S
C2150 C2148 1.384 . S
C2150 C2151 1.372 . S
C2151 C2150 1.372 . S
C2151 C2152 1.400 . S
C2151 C2156 1.490 . S
C2152 H2142 0.930 . S
C2152 C2151 1.400 . S
C2152 C2155 1.386 . S
H2153 C2169 0.930 . S
H2154 C2170 0.931 . S
C2155 H2143 0.929 . S
C2155 C2149 1.390 . S
C2155 C2152 1.386 . S
C2156 C2151 1.490 . S
C2156 C2158 1.395 . S
C2156 C2159 1.403 . S
H2157 C2163 0.930 . S
C2158 H2144 0.930 . S
C2158 C2156 1.395 . S
C2158 C2161 1.403 . S
C2159 C2156 1.403 . S
C2159 C2160 1.524 . S
C2159 C2163 1.400 . S
C2160 H2145 0.960 . S
C2160 H2146 0.960 . S
C2160 H2147 0.960 . S
C2160 C2159 1.524 . S
C2161 C2158 1.403 . S
C2161 C2162 1.392 . S
C2161 C2165 1.495 . S
C2162 C2161 1.392 . S
C2162 C2163 1.385 . S
C2162 C2164 1.478 . S
C2163 H2157 0.930 . S
C2163 C2159 1.400 . S
C2163 C2162 1.385 . S
C2164 C2162 1.478 . S
C2164 C2166 1.381 . S
C2164 C2170 1.383 . S
C2165 C2161 1.495 . S
C2165 H2171 0.959 . S
C2165 H2172 0.961 . S
C2165 H2173 0.960 . S
C2166 C2164 1.381 . S
C2166 C2167 1.394 . S
C2166 H2174 0.930 . S
C2167 C2166 1.394 . S
C2167 C2168 1.383 . S
C2167 H2175 0.929 . S
C2168 C2167 1.383 . S
C2168 C2169 1.377 . S
C2169 H2153 0.930 . S
C2169 C2168 1.377 . S
C2169 C2170 1.379 . S
C2170 H2154 0.931 . S
C2170 C2164 1.383 . S
C2170 C2169 1.379 . S
H2171 C2165 0.959 . S
H2172 C2165 0.961 . S
H2173 C2165 0.960 . S
H2174 C2166 0.930 . S
H2175 C2167 0.929 . S
H2176 C2184 0.929 . S
H2177 C2186 0.930 . S
H2178 C2188 0.930 . S
H2179 C2191 0.929 . S
H2180 C2194 0.930 . S
H2181 C2196 0.960 . S
H2182 C2196 0.960 . S
H2183 C2196 0.960 . S
C2184 H2176 0.929 . S
C2184 C2185 1.377 . S
C2184 C2186 1.384 . S
C2185 C2184 1.377 . S
C2185 C2191 1.390 . S
C2186 H2177 0.930 . S
C2186 C2184 1.384 . S
C2186 C2187 1.372 . S
C2187 C2186 1.372 . S
C2187 C2188 1.400 . S
C2187 C2192 1.490 . S
C2188 H2178 0.930 . S
C2188 C2187 1.400 . S
C2188 C2191 1.386 . S
H2189 C2205 0.930 . S
H2190 C2206 0.931 . S
C2191 H2179 0.929 . S
C2191 C2185 1.390 . S
C2191 C2188 1.386 . S
C2192 C2187 1.490 . S
C2192 C2194 1.395 . S
C2192 C2195 1.403 . S
H2193 C2199 0.930 . S
C2194 H2180 0.930 . S
C2194 C2192 1.395 . S
C2194 C2197 1.403 . S
C2195 C2192 1.403 . S
C2195 C2196 1.524 . S
C2195 C2199 1.400 . S
C2196 H2181 0.960 . S
C2196 H2182 0.960 . S
C2196 H2183 0.960 . S
C2196 C2195 1.524 . S
C2197 C2194 1.403 . S
C2197 C2198 1.392 . S
C2197 C2201 1.495 . S
C2198 C2197 1.392 . S
C2198 C2199 1.385 . S
C2198 C2200 1.478 . S
C2199 H2193 0.930 . S
C2199 C2195 1.400 . S
C2199 C2198 1.385 . S
C2200 C2198 1.478 . S
C2200 C2202 1.381 . S
C2200 C2206 1.383 . S
C2201 C2197 1.495 . S
C2201 H2207 0.959 . S
C2201 H2208 0.961 . S
C2201 H2209 0.960 . S
C2202 C2200 1.381 . S
C2202 C2203 1.394 . S
C2202 H2210 0.930 . S
C2203 C2202 1.394 . S
C2203 C2204 1.383 . S
C2203 H2211 0.929 . S
C2204 C2203 1.383 . S
C2204 C2205 1.377 . S
C2205 H2189 0.930 . S
C2205 C2204 1.377 . S
C2205 C2206 1.379 . S
C2206 H2190 0.931 . S
C2206 C2200 1.383 . S
C2206 C2205 1.379 . S
H2207 C2201 0.959 . S
H2208 C2201 0.961 . S
H2209 C2201 0.960 . S
H2210 C2202 0.930 . S
H2211 C2203 0.929 . S
H2212 C2220 0.929 . S
H2213 C2222 0.930 . S
H2214 C2224 0.930 . S
H2215 C2227 0.929 . S
H2216 C2230 0.930 . S
H2217 C2232 0.960 . S
H2218 C2232 0.960 . S
H2219 C2232 0.960 . S
C2220 H2212 0.929 . S
C2220 C2221 1.377 . S
C2220 C2222 1.384 . S
C2221 C2220 1.377 . S
C2221 C2227 1.390 . S
C2222 H2213 0.930 . S
C2222 C2220 1.384 . S
C2222 C2223 1.372 . S
C2223 C2222 1.372 . S
C2223 C2224 1.400 . S
C2223 C2228 1.490 . S
C2224 H2214 0.930 . S
C2224 C2223 1.400 . S
C2224 C2227 1.386 . S
H2225 C2241 0.930 . S
H2226 C2242 0.931 . S
C2227 H2215 0.929 . S
C2227 C2221 1.390 . S
C2227 C2224 1.386 . S
C2228 C2223 1.490 . S
C2228 C2230 1.395 . S
C2228 C2231 1.403 . S
H2229 C2235 0.930 . S
C2230 H2216 0.930 . S
C2230 C2228 1.395 . S
C2230 C2233 1.403 . S
C2231 C2228 1.403 . S
C2231 C2232 1.524 . S
C2231 C2235 1.400 . S
C2232 H2217 0.960 . S
C2232 H2218 0.960 . S
C2232 H2219 0.960 . S
C2232 C2231 1.524 . S
C2233 C2230 1.403 . S
C2233 C2234 1.392 . S
C2233 C2237 1.495 . S
C2234 C2233 1.392 . S
C2234 C2235 1.385 . S
C2234 C2236 1.478 . S
C2235 H2229 0.930 . S
C2235 C2231 1.400 . S
C2235 C2234 1.385 . S
C2236 C2234 1.478 . S
C2236 C2238 1.381 . S
C2236 C2242 1.383 . S
C2237 C2233 1.495 . S
C2237 H2243 0.959 . S
C2237 H2244 0.961 . S
C2237 H2245 0.960 . S
C2238 C2236 1.381 . S
C2238 C2239 1.394 . S
C2238 H2246 0.930 . S
C2239 C2238 1.394 . S
C2239 C2240 1.383 . S
C2239 H2247 0.929 . S
C2240 C2239 1.383 . S
C2240 C2241 1.377 . S
C2241 H2225 0.930 . S
C2241 C2240 1.377 . S
C2241 C2242 1.379 . S
C2242 H2226 0.931 . S
C2242 C2236 1.383 . S
C2242 C2241 1.379 . S
H2243 C2237 0.959 . S
H2244 C2237 0.961 . S
H2245 C2237 0.960 . S
H2246 C2238 0.930 . S
H2247 C2239 0.929 . S
H2248 C2256 0.929 . S
H2249 C2258 0.930 . S
H2250 C2260 0.930 . S
H2251 C2263 0.929 . S
H2252 C2266 0.930 . S
H2253 C2268 0.960 . S
H2254 C2268 0.960 . S
H2255 C2268 0.960 . S
C2256 H2248 0.929 . S
C2256 C2257 1.377 . S
C2256 C2258 1.384 . S
C2257 C2256 1.377 . S
C2257 C2263 1.390 . S
C2258 H2249 0.930 . S
C2258 C2256 1.384 . S
C2258 C2259 1.372 . S
C2259 C2258 1.372 . S
C2259 C2260 1.400 . S
C2259 C2264 1.490 . S
C2260 H2250 0.930 . S
C2260 C2259 1.400 . S
C2260 C2263 1.386 . S
H2261 C2277 0.930 . S
H2262 C2278 0.931 . S
C2263 H2251 0.929 . S
C2263 C2257 1.390 . S
C2263 C2260 1.386 . S
C2264 C2259 1.490 . S
C2264 C2266 1.395 . S
C2264 C2267 1.403 . S
H2265 C2271 0.930 . S
C2266 H2252 0.930 . S
C2266 C2264 1.395 . S
C2266 C2269 1.403 . S
C2267 C2264 1.403 . S
C2267 C2268 1.524 . S
C2267 C2271 1.400 . S
C2268 H2253 0.960 . S
C2268 H2254 0.960 . S
C2268 H2255 0.960 . S
C2268 C2267 1.524 . S
C2269 C2266 1.403 . S
C2269 C2270 1.392 . S
C2269 C2273 1.495 . S
C2270 C2269 1.392 . S
C2270 C2271 1.385 . S
C2270 C2272 1.478 . S
C2271 H2265 0.930 . S
C2271 C2267 1.400 . S
C2271 C2270 1.385 . S
C2272 C2270 1.478 . S
C2272 C2274 1.381 . S
C2272 C2278 1.383 . S
C2273 C2269 1.495 . S
C2273 H2279 0.959 . S
C2273 H2280 0.961 . S
C2273 H2281 0.960 . S
C2274 C2272 1.381 . S
C2274 C2275 1.394 . S
C2274 H2282 0.930 . S
C2275 C2274 1.394 . S
C2275 C2276 1.383 . S
C2275 H2283 0.929 . S
C2276 C2275 1.383 . S
C2276 C2277 1.377 . S
C2277 H2261 0.930 . S
C2277 C2276 1.377 . S
C2277 C2278 1.379 . S
C2278 H2262 0.931 . S
C2278 C2272 1.383 . S
C2278 C2277 1.379 . S
H2279 C2273 0.959 . S
H2280 C2273 0.961 . S
H2281 C2273 0.960 . S
H2282 C2274 0.930 . S
H2283 C2275 0.929 . S
H2284 C2292 0.929 . S
H2285 C2294 0.930 . S
H2286 C2296 0.930 . S
H2287 C2299 0.929 . S
H2288 C2302 0.930 . S
H2289 C2304 0.960 . S
H2290 C2304 0.960 . S
H2291 C2304 0.960 . S
C2292 H2284 0.929 . S
C2292 C2293 1.377 . S
C2292 C2294 1.384 . S
C2293 C2292 1.377 . S
C2293 C2299 1.390 . S
C2294 H2285 0.930 . S
C2294 C2292 1.384 . S
C2294 C2295 1.372 . S
C2295 C2294 1.372 . S
C2295 C2296 1.400 . S
C2295 C2300 1.490 . S
C2296 H2286 0.930 . S
C2296 C2295 1.400 . S
C2296 C2299 1.386 . S
H2297 C2313 0.930 . S
H2298 C2314 0.931 . S
C2299 H2287 0.929 . S
C2299 C2293 1.390 . S
C2299 C2296 1.386 . S
C2300 C2295 1.490 . S
C2300 C2302 1.395 . S
C2300 C2303 1.403 . S
H2301 C2307 0.930 . S
C2302 H2288 0.930 . S
C2302 C2300 1.395 . S
C2302 C2305 1.403 1_655 S
C2303 C2300 1.403 . S
C2303 C2304 1.524 . S
C2303 C2307 1.400 1_655 S
C2304 H2289 0.960 . S
C2304 H2290 0.960 . S
C2304 H2291 0.960 . S
C2304 C2303 1.524 . S
C2305 C2302 1.403 1_455 S
C2305 C2306 1.392 . S
C2305 C2309 1.495 . S
C2306 C2305 1.392 . S
C2306 C2307 1.385 . S
C2306 C2308 1.478 . S
C2307 H2301 0.930 . S
C2307 C2303 1.400 1_455 S
C2307 C2306 1.385 . S
C2308 C2306 1.478 . S
C2308 C2310 1.381 . S
C2308 C2314 1.383 . S
C2309 C2305 1.495 . S
C2309 H2315 0.959 . S
C2309 H2316 0.961 . S
C2309 H2317 0.960 . S
C2310 C2308 1.381 . S
C2310 C2311 1.394 . S
C2310 H2318 0.930 . S
C2311 C2310 1.394 . S
C2311 C2312 1.383 . S
C2311 H2319 0.929 . S
C2312 C2311 1.383 . S
C2312 C2313 1.377 . S
C2313 H2297 0.930 . S
C2313 C2312 1.377 . S
C2313 C2314 1.379 . S
C2314 H2298 0.931 . S
C2314 C2308 1.383 . S
C2314 C2313 1.379 . S
H2315 C2309 0.959 . S
H2316 C2309 0.961 . S
H2317 C2309 0.960 . S
H2318 C2310 0.930 . S
H2319 C2311 0.929 . S
H2320 C2328 0.929 . S
H2321 C2330 0.930 . S
H2322 C2332 0.930 . S
H2323 C2335 0.929 . S
H2324 C2338 0.930 . S
H2325 C2340 0.960 . S
H2326 C2340 0.960 . S
H2327 C2340 0.960 . S
C2328 H2320 0.929 . S
C2328 C2329 1.377 . S
C2328 C2330 1.384 . S
C2329 C2328 1.377 . S
C2329 C2335 1.390 . S
C2330 H2321 0.930 . S
C2330 C2328 1.384 . S
C2330 C2331 1.372 . S
C2331 C2330 1.372 . S
C2331 C2332 1.400 . S
C2331 C2336 1.490 . S
C2332 H2322 0.930 . S
C2332 C2331 1.400 . S
C2332 C2335 1.386 . S
H2333 C2349 0.930 . S
H2334 C2350 0.931 . S
C2335 H2323 0.929 . S
C2335 C2329 1.390 . S
C2335 C2332 1.386 . S
C2336 C2331 1.490 . S
C2336 C2338 1.395 . S
C2336 C2339 1.403 . S
H2337 C2343 0.930 . S
C2338 H2324 0.930 . S
C2338 C2336 1.395 . S
C2338 C2341 1.403 . S
C2339 C2336 1.403 . S
C2339 C2340 1.524 . S
C2339 C2343 1.400 . S
C2340 H2325 0.960 . S
C2340 H2326 0.960 . S
C2340 H2327 0.960 . S
C2340 C2339 1.524 . S
C2341 C2338 1.403 . S
C2341 C2342 1.392 . S
C2341 C2345 1.495 . S
C2342 C2341 1.392 . S
C2342 C2343 1.385 . S
C2342 C2344 1.478 . S
C2343 H2337 0.930 . S
C2343 C2339 1.400 . S
C2343 C2342 1.385 . S
C2344 C2342 1.478 . S
C2344 C2346 1.381 . S
C2344 C2350 1.383 . S
C2345 C2341 1.495 . S
C2345 H2351 0.959 . S
C2345 H2352 0.961 . S
C2345 H2353 0.960 . S
C2346 C2344 1.381 . S
C2346 C2347 1.394 . S
C2346 H2354 0.930 . S
C2347 C2346 1.394 . S
C2347 C2348 1.383 . S
C2347 H2355 0.929 . S
C2348 C2347 1.383 . S
C2348 C2349 1.377 . S
C2349 H2333 0.930 . S
C2349 C2348 1.377 . S
C2349 C2350 1.379 . S
C2350 H2334 0.931 . S
C2350 C2344 1.383 . S
C2350 C2349 1.379 . S
H2351 C2345 0.959 . S
H2352 C2345 0.961 . S
H2353 C2345 0.960 . S
H2354 C2346 0.930 . S
H2355 C2347 0.929 . S
H2356 C2364 0.929 . S
H2357 C2366 0.930 . S
H2358 C2368 0.930 . S
H2359 C2371 0.929 . S
H2360 C2374 0.930 . S
H2361 C2376 0.960 . S
H2362 C2376 0.960 . S
H2363 C2376 0.960 . S
C2364 H2356 0.929 . S
C2364 C2365 1.377 . S
C2364 C2366 1.384 . S
C2365 C2364 1.377 . S
C2365 C2371 1.390 . S
C2366 H2357 0.930 . S
C2366 C2364 1.384 . S
C2366 C2367 1.372 . S
C2367 C2366 1.372 . S
C2367 C2368 1.400 . S
C2367 C2372 1.490 . S
C2368 H2358 0.930 . S
C2368 C2367 1.400 . S
C2368 C2371 1.386 . S
H2369 C2385 0.930 . S
H2370 C2386 0.931 . S
C2371 H2359 0.929 . S
C2371 C2365 1.390 . S
C2371 C2368 1.386 . S
C2372 C2367 1.490 . S
C2372 C2374 1.395 . S
C2372 C2375 1.403 . S
H2373 C2379 0.930 . S
C2374 H2360 0.930 . S
C2374 C2372 1.395 . S
C2374 C2377 1.403 1_655 S
C2375 C2372 1.403 . S
C2375 C2376 1.524 . S
C2375 C2379 1.400 1_655 S
C2376 H2361 0.960 . S
C2376 H2362 0.960 . S
C2376 H2363 0.960 . S
C2376 C2375 1.524 . S
C2377 C2374 1.403 1_455 S
C2377 C2378 1.392 . S
C2377 C2381 1.495 . S
C2378 C2377 1.392 . S
C2378 C2379 1.385 . S
C2378 C2380 1.478 . S
C2379 H2373 0.930 . S
C2379 C2375 1.400 1_455 S
C2379 C2378 1.385 . S
C2380 C2378 1.478 . S
C2380 C2382 1.381 . S
C2380 C2386 1.383 . S
C2381 C2377 1.495 . S
C2381 H2387 0.959 . S
C2381 H2388 0.961 . S
C2381 H2389 0.960 . S
C2382 C2380 1.381 . S
C2382 C2383 1.394 . S
C2382 H2390 0.930 . S
C2383 C2382 1.394 . S
C2383 C2384 1.383 . S
C2383 H2391 0.929 . S
C2384 C2383 1.383 . S
C2384 C2385 1.377 . S
C2385 H2369 0.930 . S
C2385 C2384 1.377 . S
C2385 C2386 1.379 . S
C2386 H2370 0.931 . S
C2386 C2380 1.383 . S
C2386 C2385 1.379 . S
H2387 C2381 0.959 . S
H2388 C2381 0.961 . S
H2389 C2381 0.960 . S
H2390 C2382 0.930 . S
H2391 C2383 0.929 . S
H2392 C2400 0.929 . S
H2393 C2402 0.930 . S
H2394 C2404 0.930 . S
H2395 C2407 0.929 . S
H2396 C2410 0.930 . S
H2397 C2412 0.960 . S
H2398 C2412 0.960 . S
H2399 C2412 0.960 . S
C2400 H2392 0.929 . S
C2400 C2401 1.377 . S
C2400 C2402 1.384 . S
C2401 C2400 1.377 . S
C2401 C2407 1.390 . S
C2402 H2393 0.930 . S
C2402 C2400 1.384 . S
C2402 C2403 1.372 . S
C2403 C2402 1.372 . S
C2403 C2404 1.400 . S
C2403 C2408 1.490 . S
C2404 H2394 0.930 . S
C2404 C2403 1.400 . S
C2404 C2407 1.386 . S
H2405 C2421 0.930 . S
H2406 C2422 0.931 . S
C2407 H2395 0.929 . S
C2407 C2401 1.390 . S
C2407 C2404 1.386 . S
C2408 C2403 1.490 . S
C2408 C2410 1.395 . S
C2408 C2411 1.403 . S
H2409 C2415 0.930 . S
C2410 H2396 0.930 . S
C2410 C2408 1.395 . S
C2410 C2413 1.403 . S
C2411 C2408 1.403 . S
C2411 C2412 1.524 . S
C2411 C2415 1.400 . S
C2412 H2397 0.960 . S
C2412 H2398 0.960 . S
C2412 H2399 0.960 . S
C2412 C2411 1.524 . S
C2413 C2410 1.403 . S
C2413 C2414 1.392 . S
C2413 C2417 1.495 . S
C2414 C2413 1.392 . S
C2414 C2415 1.385 . S
C2414 C2416 1.478 . S
C2415 H2409 0.930 . S
C2415 C2411 1.400 . S
C2415 C2414 1.385 . S
C2416 C2414 1.478 . S
C2416 C2418 1.381 . S
C2416 C2422 1.383 . S
C2417 C2413 1.495 . S
C2417 H2423 0.959 . S
C2417 H2424 0.961 . S
C2417 H2425 0.960 . S
C2418 C2416 1.381 . S
C2418 C2419 1.394 . S
C2418 H2426 0.930 . S
C2419 C2418 1.394 . S
C2419 C2420 1.383 . S
C2419 H2427 0.929 . S
C2420 C2419 1.383 . S
C2420 C2421 1.377 . S
C2421 H2405 0.930 . S
C2421 C2420 1.377 . S
C2421 C2422 1.379 . S
C2422 H2406 0.931 . S
C2422 C2416 1.383 . S
C2422 C2421 1.379 . S
H2423 C2417 0.959 . S
H2424 C2417 0.961 . S
H2425 C2417 0.960 . S
H2426 C2418 0.930 . S
H2427 C2419 0.929 . S
H2428 C2436 0.929 . S
H2429 C2438 0.930 . S
H2430 C2440 0.930 . S
H2431 C2443 0.929 . S
H2432 C2446 0.930 . S
H2433 C2448 0.960 . S
H2434 C2448 0.960 . S
H2435 C2448 0.960 . S
C2436 H2428 0.929 . S
C2436 C2437 1.377 . S
C2436 C2438 1.384 . S
C2437 C2436 1.377 . S
C2437 C2443 1.390 . S
C2438 H2429 0.930 . S
C2438 C2436 1.384 . S
C2438 C2439 1.372 . S
C2439 C2438 1.372 . S
C2439 C2440 1.400 . S
C2439 C2444 1.490 . S
C2440 H2430 0.930 . S
C2440 C2439 1.400 . S
C2440 C2443 1.386 . S
H2441 C2457 0.930 . S
H2442 C2458 0.931 . S
C2443 H2431 0.929 . S
C2443 C2437 1.390 . S
C2443 C2440 1.386 . S
C2444 C2439 1.490 . S
C2444 C2446 1.395 . S
C2444 C2447 1.403 . S
H2445 C2451 0.930 . S
C2446 H2432 0.930 . S
C2446 C2444 1.395 . S
C2446 C2449 1.403 . S
C2447 C2444 1.403 . S
C2447 C2448 1.524 . S
C2447 C2451 1.400 . S
C2448 H2433 0.960 . S
C2448 H2434 0.960 . S
C2448 H2435 0.960 . S
C2448 C2447 1.524 . S
C2449 C2446 1.403 . S
C2449 C2450 1.392 . S
C2449 C2453 1.495 . S
C2450 C2449 1.392 . S
C2450 C2451 1.385 . S
C2450 C2452 1.478 . S
C2451 H2445 0.930 . S
C2451 C2447 1.400 . S
C2451 C2450 1.385 . S
C2452 C2450 1.478 . S
C2452 C2454 1.381 . S
C2452 C2458 1.383 . S
C2453 C2449 1.495 . S
C2453 H2459 0.959 . S
C2453 H2460 0.961 . S
C2453 H2461 0.960 . S
C2454 C2452 1.381 . S
C2454 C2455 1.394 . S
C2454 H2462 0.930 . S
C2455 C2454 1.394 . S
C2455 C2456 1.383 . S
C2455 H2463 0.929 . S
C2456 C2455 1.383 . S
C2456 C2457 1.377 . S
C2457 H2441 0.930 . S
C2457 C2456 1.377 . S
C2457 C2458 1.379 . S
C2458 H2442 0.931 . S
C2458 C2452 1.383 . S
C2458 C2457 1.379 . S
H2459 C2453 0.959 . S
H2460 C2453 0.961 . S
H2461 C2453 0.960 . S
H2462 C2454 0.930 . S
H2463 C2455 0.929 . S
H2464 C2472 0.929 . S
H2465 C2474 0.930 . S
H2466 C2476 0.930 . S
H2467 C2479 0.929 . S
H2468 C2482 0.930 . S
H2469 C2484 0.960 . S
H2470 C2484 0.960 . S
H2471 C2484 0.960 . S
C2472 H2464 0.929 . S
C2472 C2473 1.377 . S
C2472 C2474 1.384 . S
C2473 C2472 1.377 . S
C2473 C2479 1.390 . S
C2474 H2465 0.930 . S
C2474 C2472 1.384 . S
C2474 C2475 1.372 . S
C2475 C2474 1.372 . S
C2475 C2476 1.400 . S
C2475 C2480 1.490 . S
C2476 H2466 0.930 . S
C2476 C2475 1.400 . S
C2476 C2479 1.386 . S
H2477 C2493 0.930 . S
H2478 C2494 0.931 . S
C2479 H2467 0.929 . S
C2479 C2473 1.390 . S
C2479 C2476 1.386 . S
C2480 C2475 1.490 . S
C2480 C2482 1.395 . S
C2480 C2483 1.403 . S
H2481 C2487 0.930 . S
C2482 H2468 0.930 . S
C2482 C2480 1.395 . S
C2482 C2485 1.403 . S
C2483 C2480 1.403 . S
C2483 C2484 1.524 . S
C2483 C2487 1.400 . S
C2484 H2469 0.960 . S
C2484 H2470 0.960 . S
C2484 H2471 0.960 . S
C2484 C2483 1.524 . S
C2485 C2482 1.403 . S
C2485 C2486 1.392 . S
C2485 C2489 1.495 . S
C2486 C2485 1.392 . S
C2486 C2487 1.385 . S
C2486 C2488 1.478 . S
C2487 H2481 0.930 . S
C2487 C2483 1.400 . S
C2487 C2486 1.385 . S
C2488 C2486 1.478 . S
C2488 C2490 1.381 . S
C2488 C2494 1.383 . S
C2489 C2485 1.495 . S
C2489 H2495 0.959 . S
C2489 H2496 0.961 . S
C2489 H2497 0.960 . S
C2490 C2488 1.381 . S
C2490 C2491 1.394 . S
C2490 H2498 0.930 . S
C2491 C2490 1.394 . S
C2491 C2492 1.383 . S
C2491 H2499 0.929 . S
C2492 C2491 1.383 . S
C2492 C2493 1.377 . S
C2493 H2477 0.930 . S
C2493 C2492 1.377 . S
C2493 C2494 1.379 . S
C2494 H2478 0.931 . S
C2494 C2488 1.383 . S
C2494 C2493 1.379 . S
H2495 C2489 0.959 . S
H2496 C2489 0.961 . S
H2497 C2489 0.960 . S
H2498 C2490 0.930 . S
H2499 C2491 0.929 . S
H2500 C2508 0.929 . S
H2501 C2510 0.930 . S
H2502 C2512 0.930 . S
H2503 C2515 0.929 . S
H2504 C2518 0.930 . S
H2505 C2520 0.960 . S
H2506 C2520 0.960 . S
H2507 C2520 0.960 . S
C2508 H2500 0.929 . S
C2508 C2509 1.377 . S
C2508 C2510 1.384 . S
C2509 C2508 1.377 . S
C2509 C2515 1.390 . S
C2510 H2501 0.930 . S
C2510 C2508 1.384 . S
C2510 C2511 1.372 . S
C2511 C2510 1.372 . S
C2511 C2512 1.400 . S
C2511 C2516 1.490 . S
C2512 H2502 0.930 . S
C2512 C2511 1.400 . S
C2512 C2515 1.386 . S
H2513 C2529 0.930 . S
H2514 C2530 0.931 . S
C2515 H2503 0.929 . S
C2515 C2509 1.390 . S
C2515 C2512 1.386 . S
C2516 C2511 1.490 . S
C2516 C2518 1.395 . S
C2516 C2519 1.403 . S
H2517 C2523 0.930 . S
C2518 H2504 0.930 . S
C2518 C2516 1.395 . S
C2518 C2521 1.403 . S
C2519 C2516 1.403 . S
C2519 C2520 1.524 . S
C2519 C2523 1.400 . S
C2520 H2505 0.960 . S
C2520 H2506 0.960 . S
C2520 H2507 0.960 . S
C2520 C2519 1.524 . S
C2521 C2518 1.403 . S
C2521 C2522 1.392 . S
C2521 C2525 1.495 . S
C2522 C2521 1.392 . S
C2522 C2523 1.385 . S
C2522 C2524 1.478 . S
C2523 H2517 0.930 . S
C2523 C2519 1.400 . S
C2523 C2522 1.385 . S
C2524 C2522 1.478 . S
C2524 C2526 1.381 . S
C2524 C2530 1.383 . S
C2525 C2521 1.495 . S
C2525 H2531 0.959 . S
C2525 H2532 0.961 . S
C2525 H2533 0.960 . S
C2526 C2524 1.381 . S
C2526 C2527 1.394 . S
C2526 H2534 0.930 . S
C2527 C2526 1.394 . S
C2527 C2528 1.383 . S
C2527 H2535 0.929 . S
C2528 C2527 1.383 . S
C2528 C2529 1.377 . S
C2529 H2513 0.930 . S
C2529 C2528 1.377 . S
C2529 C2530 1.379 . S
C2530 H2514 0.931 . S
C2530 C2524 1.383 . S
C2530 C2529 1.379 . S
H2531 C2525 0.959 . S
H2532 C2525 0.961 . S
H2533 C2525 0.960 . S
H2534 C2526 0.930 . S
H2535 C2527 0.929 . S
H2536 C2544 0.929 . S
H2537 C2546 0.930 . S
H2538 C2548 0.930 . S
H2539 C2551 0.929 . S
H2540 C2554 0.930 . S
H2541 C2556 0.960 . S
H2542 C2556 0.960 . S
H2543 C2556 0.960 . S
C2544 H2536 0.929 . S
C2544 C2545 1.377 . S
C2544 C2546 1.384 . S
C2545 C2544 1.377 . S
C2545 C2551 1.390 . S
C2546 H2537 0.930 . S
C2546 C2544 1.384 . S
C2546 C2547 1.372 . S
C2547 C2546 1.372 . S
C2547 C2548 1.400 . S
C2547 C2552 1.490 . S
C2548 H2538 0.930 . S
C2548 C2547 1.400 . S
C2548 C2551 1.386 . S
H2549 C2565 0.930 . S
H2550 C2566 0.931 . S
C2551 H2539 0.929 . S
C2551 C2545 1.390 . S
C2551 C2548 1.386 . S
C2552 C2547 1.490 . S
C2552 C2554 1.395 . S
C2552 C2555 1.403 . S
H2553 C2559 0.930 . S
C2554 H2540 0.930 . S
C2554 C2552 1.395 . S
C2554 C2557 1.403 . S
C2555 C2552 1.403 . S
C2555 C2556 1.524 . S
C2555 C2559 1.400 . S
C2556 H2541 0.960 . S
C2556 H2542 0.960 . S
C2556 H2543 0.960 . S
C2556 C2555 1.524 . S
C2557 C2554 1.403 . S
C2557 C2558 1.392 . S
C2557 C2561 1.495 . S
C2558 C2557 1.392 . S
C2558 C2559 1.385 . S
C2558 C2560 1.478 . S
C2559 H2553 0.930 . S
C2559 C2555 1.400 . S
C2559 C2558 1.385 . S
C2560 C2558 1.478 . S
C2560 C2562 1.381 . S
C2560 C2566 1.383 . S
C2561 C2557 1.495 . S
C2561 H2567 0.959 . S
C2561 H2568 0.961 . S
C2561 H2569 0.960 . S
C2562 C2560 1.381 . S
C2562 C2563 1.394 . S
C2562 H2570 0.930 . S
C2563 C2562 1.394 . S
C2563 C2564 1.383 . S
C2563 H2571 0.929 . S
C2564 C2563 1.383 . S
C2564 C2565 1.377 . S
C2565 H2549 0.930 . S
C2565 C2564 1.377 . S
C2565 C2566 1.379 . S
C2566 H2550 0.931 . S
C2566 C2560 1.383 . S
C2566 C2565 1.379 . S
H2567 C2561 0.959 . S
H2568 C2561 0.961 . S
H2569 C2561 0.960 . S
H2570 C2562 0.930 . S
H2571 C2563 0.929 . S
H2572 C2580 0.929 . S
H2573 C2582 0.930 . S
H2574 C2584 0.930 . S
H2575 C2587 0.929 . S
H2576 C2590 0.930 . S
H2577 C2592 0.960 . S
H2578 C2592 0.960 . S
H2579 C2592 0.960 . S
C2580 H2572 0.929 . S
C2580 C2581 1.377 . S
C2580 C2582 1.384 . S
C2581 C2580 1.377 . S
C2581 C2587 1.390 . S
C2582 H2573 0.930 . S
C2582 C2580 1.384 . S
C2582 C2583 1.372 . S
C2583 C2582 1.372 . S
C2583 C2584 1.400 . S
C2583 C2588 1.490 . S
C2584 H2574 0.930 . S
C2584 C2583 1.400 . S
C2584 C2587 1.386 . S
H2585 C2601 0.930 . S
H2586 C2602 0.931 . S
C2587 H2575 0.929 . S
C2587 C2581 1.390 . S
C2587 C2584 1.386 . S
C2588 C2583 1.490 . S
C2588 C2590 1.395 . S
C2588 C2591 1.403 . S
H2589 C2595 0.930 . S
C2590 H2576 0.930 . S
C2590 C2588 1.395 . S
C2590 C2593 1.403 . S
C2591 C2588 1.403 . S
C2591 C2592 1.524 . S
C2591 C2595 1.400 . S
C2592 H2577 0.960 . S
C2592 H2578 0.960 . S
C2592 H2579 0.960 . S
C2592 C2591 1.524 . S
C2593 C2590 1.403 . S
C2593 C2594 1.392 . S
C2593 C2597 1.495 . S
C2594 C2593 1.392 . S
C2594 C2595 1.385 . S
C2594 C2596 1.478 . S
C2595 H2589 0.930 . S
C2595 C2591 1.400 . S
C2595 C2594 1.385 . S
C2596 C2594 1.478 . S
C2596 C2598 1.381 . S
C2596 C2602 1.383 . S
C2597 C2593 1.495 . S
C2597 H2603 0.959 . S
C2597 H2604 0.961 . S
C2597 H2605 0.960 . S
C2598 C2596 1.381 . S
C2598 C2599 1.394 . S
C2598 H2606 0.930 . S
C2599 C2598 1.394 . S
C2599 C2600 1.383 . S
C2599 H2607 0.929 . S
C2600 C2599 1.383 . S
C2600 C2601 1.377 . S
C2601 H2585 0.930 . S
C2601 C2600 1.377 . S
C2601 C2602 1.379 . S
C2602 H2586 0.931 . S
C2602 C2596 1.383 . S
C2602 C2601 1.379 . S
H2603 C2597 0.959 . S
H2604 C2597 0.961 . S
H2605 C2597 0.960 . S
H2606 C2598 0.930 . S
H2607 C2599 0.929 . S
H2608 C2616 0.929 . S
H2609 C2618 0.930 . S
H2610 C2620 0.930 . S
H2611 C2623 0.929 . S
H2612 C2626 0.930 . S
H2613 C2628 0.960 . S
H2614 C2628 0.960 . S
H2615 C2628 0.960 . S
C2616 H2608 0.929 . S
C2616 C2617 1.377 . S
C2616 C2618 1.384 . S
C2617 C2616 1.377 . S
C2617 C2623 1.390 . S
C2618 H2609 0.930 . S
C2618 C2616 1.384 . S
C2618 C2619 1.372 . S
C2619 C2618 1.372 . S
C2619 C2620 1.400 . S
C2619 C2624 1.490 . S
C2620 H2610 0.930 . S
C2620 C2619 1.400 . S
C2620 C2623 1.386 . S
H2621 C2637 0.930 . S
H2622 C2638 0.931 . S
C2623 H2611 0.929 . S
C2623 C2617 1.390 . S
C2623 C2620 1.386 . S
C2624 C2619 1.490 . S
C2624 C2626 1.395 . S
C2624 C2627 1.403 . S
H2625 C2631 0.930 . S
C2626 H2612 0.930 . S
C2626 C2624 1.395 . S
C2626 C2629 1.403 1_655 S
C2627 C2624 1.403 . S
C2627 C2628 1.524 . S
C2627 C2631 1.400 1_655 S
C2628 H2613 0.960 . S
C2628 H2614 0.960 . S
C2628 H2615 0.960 . S
C2628 C2627 1.524 . S
C2629 C2626 1.403 1_455 S
C2629 C2630 1.392 . S
C2629 C2633 1.495 . S
C2630 C2629 1.392 . S
C2630 C2631 1.385 . S
C2630 C2632 1.478 . S
C2631 H2625 0.930 . S
C2631 C2627 1.400 1_455 S
C2631 C2630 1.385 . S
C2632 C2630 1.478 . S
C2632 C2634 1.381 . S
C2632 C2638 1.383 . S
C2633 C2629 1.495 . S
C2633 H2639 0.959 . S
C2633 H2640 0.961 . S
C2633 H2641 0.960 . S
C2634 C2632 1.381 . S
C2634 C2635 1.394 . S
C2634 H2642 0.930 . S
C2635 C2634 1.394 . S
C2635 C2636 1.383 . S
C2635 H2643 0.929 . S
C2636 C2635 1.383 . S
C2636 C2637 1.377 . S
C2637 H2621 0.930 . S
C2637 C2636 1.377 . S
C2637 C2638 1.379 . S
C2638 H2622 0.931 . S
C2638 C2632 1.383 . S
C2638 C2637 1.379 . S
H2639 C2633 0.959 . S
H2640 C2633 0.961 . S
H2641 C2633 0.960 . S
H2642 C2634 0.930 . S
H2643 C2635 0.929 . S
H2644 C2652 0.929 . S
H2645 C2654 0.930 . S
H2646 C2656 0.930 . S
H2647 C2659 0.929 . S
H2648 C2662 0.930 . S
H2649 C2664 0.960 . S
H2650 C2664 0.960 . S
H2651 C2664 0.960 . S
C2652 H2644 0.929 . S
C2652 C2653 1.377 . S
C2652 C2654 1.384 . S
C2653 C2652 1.377 . S
C2653 C2659 1.390 . S
C2654 H2645 0.930 . S
C2654 C2652 1.384 . S
C2654 C2655 1.372 . S
C2655 C2654 1.372 . S
C2655 C2656 1.400 . S
C2655 C2660 1.490 . S
C2656 H2646 0.930 . S
C2656 C2655 1.400 . S
C2656 C2659 1.386 . S
H2657 C2673 0.930 . S
H2658 C2674 0.931 . S
C2659 H2647 0.929 . S
C2659 C2653 1.390 . S
C2659 C2656 1.386 . S
C2660 C2655 1.490 . S
C2660 C2662 1.395 . S
C2660 C2663 1.403 . S
H2661 C2667 0.930 . S
C2662 H2648 0.930 . S
C2662 C2660 1.395 . S
C2662 C2665 1.403 . S
C2663 C2660 1.403 . S
C2663 C2664 1.524 . S
C2663 C2667 1.400 . S
C2664 H2649 0.960 . S
C2664 H2650 0.960 . S
C2664 H2651 0.960 . S
C2664 C2663 1.524 . S
C2665 C2662 1.403 . S
C2665 C2666 1.392 . S
C2665 C2669 1.495 . S
C2666 C2665 1.392 . S
C2666 C2667 1.385 . S
C2666 C2668 1.478 . S
C2667 H2661 0.930 . S
C2667 C2663 1.400 . S
C2667 C2666 1.385 . S
C2668 C2666 1.478 . S
C2668 C2670 1.381 . S
C2668 C2674 1.383 . S
C2669 C2665 1.495 . S
C2669 H2675 0.959 . S
C2669 H2676 0.961 . S
C2669 H2677 0.960 . S
C2670 C2668 1.381 . S
C2670 C2671 1.394 . S
C2670 H2678 0.930 . S
C2671 C2670 1.394 . S
C2671 C2672 1.383 . S
C2671 H2679 0.929 . S
C2672 C2671 1.383 . S
C2672 C2673 1.377 . S
C2673 H2657 0.930 . S
C2673 C2672 1.377 . S
C2673 C2674 1.379 . S
C2674 H2658 0.931 . S
C2674 C2668 1.383 . S
C2674 C2673 1.379 . S
H2675 C2669 0.959 . S
H2676 C2669 0.961 . S
H2677 C2669 0.960 . S
H2678 C2670 0.930 . S
H2679 C2671 0.929 . S
H2680 C2688 0.929 . S
H2681 C2690 0.930 . S
H2682 C2692 0.930 . S
H2683 C2695 0.929 . S
H2684 C2698 0.930 . S
H2685 C2700 0.960 . S
H2686 C2700 0.960 . S
H2687 C2700 0.960 . S
C2688 H2680 0.929 . S
C2688 C2689 1.377 . S
C2688 C2690 1.384 . S
C2689 C2688 1.377 . S
C2689 C2695 1.390 . S
C2690 H2681 0.930 . S
C2690 C2688 1.384 . S
C2690 C2691 1.372 . S
C2691 C2690 1.372 . S
C2691 C2692 1.400 . S
C2691 C2696 1.490 . S
C2692 H2682 0.930 . S
C2692 C2691 1.400 . S
C2692 C2695 1.386 . S
H2693 C2709 0.930 . S
H2694 C2710 0.931 . S
C2695 H2683 0.929 . S
C2695 C2689 1.390 . S
C2695 C2692 1.386 . S
C2696 C2691 1.490 . S
C2696 C2698 1.395 . S
C2696 C2699 1.403 . S
H2697 C2703 0.930 . S
C2698 H2684 0.930 . S
C2698 C2696 1.395 . S
C2698 C2701 1.403 . S
C2699 C2696 1.403 . S
C2699 C2700 1.524 . S
C2699 C2703 1.400 . S
C2700 H2685 0.960 . S
C2700 H2686 0.960 . S
C2700 H2687 0.960 . S
C2700 C2699 1.524 . S
C2701 C2698 1.403 . S
C2701 C2702 1.392 . S
C2701 C2705 1.495 . S
C2702 C2701 1.392 . S
C2702 C2703 1.385 . S
C2702 C2704 1.478 . S
C2703 H2697 0.930 . S
C2703 C2699 1.400 . S
C2703 C2702 1.385 . S
C2704 C2702 1.478 . S
C2704 C2706 1.381 . S
C2704 C2710 1.383 . S
C2705 C2701 1.495 . S
C2705 H2711 0.959 . S
C2705 H2712 0.961 . S
C2705 H2713 0.960 . S
C2706 C2704 1.381 . S
C2706 C2707 1.394 . S
C2706 H2714 0.930 . S
C2707 C2706 1.394 . S
C2707 C2708 1.383 . S
C2707 H2715 0.929 . S
C2708 C2707 1.383 . S
C2708 C2709 1.377 . S
C2709 H2693 0.930 . S
C2709 C2708 1.377 . S
C2709 C2710 1.379 . S
C2710 H2694 0.931 . S
C2710 C2704 1.383 . S
C2710 C2709 1.379 . S
H2711 C2705 0.959 . S
H2712 C2705 0.961 . S
H2713 C2705 0.960 . S
H2714 C2706 0.930 . S
H2715 C2707 0.929 . S
H2716 C2724 0.929 . S
H2717 C2726 0.930 . S
H2718 C2728 0.930 . S
H2719 C2731 0.929 . S
H2720 C2734 0.930 . S
H2721 C2736 0.960 . S
H2722 C2736 0.960 . S
H2723 C2736 0.960 . S
C2724 H2716 0.929 . S
C2724 C2725 1.377 . S
C2724 C2726 1.384 . S
C2725 C2724 1.377 . S
C2725 C2731 1.390 . S
C2726 H2717 0.930 . S
C2726 C2724 1.384 . S
C2726 C2727 1.372 . S
C2727 C2726 1.372 . S
C2727 C2728 1.400 . S
C2727 C2732 1.490 . S
C2728 H2718 0.930 . S
C2728 C2727 1.400 . S
C2728 C2731 1.386 . S
H2729 C2745 0.930 . S
H2730 C2746 0.931 . S
C2731 H2719 0.929 . S
C2731 C2725 1.390 . S
C2731 C2728 1.386 . S
C2732 C2727 1.490 . S
C2732 C2734 1.395 . S
C2732 C2735 1.403 . S
H2733 C2739 0.930 . S
C2734 H2720 0.930 . S
C2734 C2732 1.395 . S
C2734 C2737 1.403 1_655 S
C2735 C2732 1.403 . S
C2735 C2736 1.524 . S
C2735 C2739 1.400 1_655 S
C2736 H2721 0.960 . S
C2736 H2722 0.960 . S
C2736 H2723 0.960 . S
C2736 C2735 1.524 . S
C2737 C2734 1.403 1_455 S
C2737 C2738 1.392 . S
C2737 C2741 1.495 . S
C2738 C2737 1.392 . S
C2738 C2739 1.385 . S
C2738 C2740 1.478 . S
C2739 H2733 0.930 . S
C2739 C2735 1.400 1_455 S
C2739 C2738 1.385 . S
C2740 C2738 1.478 . S
C2740 C2742 1.381 . S
C2740 C2746 1.383 . S
C2741 C2737 1.495 . S
C2741 H2747 0.959 . S
C2741 H2748 0.961 . S
C2741 H2749 0.960 . S
C2742 C2740 1.381 . S
C2742 C2743 1.394 . S
C2742 H2750 0.930 . S
C2743 C2742 1.394 . S
C2743 C2744 1.383 . S
C2743 H2751 0.929 . S
C2744 C2743 1.383 . S
C2744 C2745 1.377 . S
C2745 H2729 0.930 . S
C2745 C2744 1.377 . S
C2745 C2746 1.379 . S
C2746 H2730 0.931 . S
C2746 C2740 1.383 . S
C2746 C2745 1.379 . S
H2747 C2741 0.959 . S
H2748 C2741 0.961 . S
H2749 C2741 0.960 . S
H2750 C2742 0.930 . S
H2751 C2743 0.929 . S
C457 C328 1.697 . S
C476 C7 1.675 . S
C493 C287 1.688 . S
C512 C20 1.714 . S
C529 C300 1.692 . S
C548 C35 1.681 . S
C565 C315 1.695 . S
C584 C48 1.684 . S
C601 C63 1.687 . S
C620 C244 1.720 . S
C637 C259 1.695 . S
C656 C76 1.683 . S
C673 C91 1.687 . S
C692 C272 1.720 . S
C709 C104 1.698 . S
C728 C231 1.664 . S
C745 C441 1.687 . S
C764 C119 1.686 . S
C781 C133 1.691 . S
C800 C399 1.709 . S
C817 C147 1.688 . S
C836 C413 1.696 . S
C853 C161 1.699 . S
C872 C427 1.706 . S
C889 C175 1.694 . S
C908 C357 1.673 . S
C925 C189 1.698 . S
C944 C371 1.721 . S
C961 C203 1.691 . S
C980 C385 1.661 . S
C997 C217 1.685 . S
C1016 C343 1.669 . S
C1033 C8 1.150 . S
C1052 C176 1.160 . S
C1069 C414 1.150 . S
C1088 C23 1.147 . S
C1105 C36 1.149 . S
C1124 C204 1.159 . S
C1141 C442 1.150 . S
C1160 C51 1.146 . S
C1177 C120 1.150 . S
C1196 C64 1.148 . S
C1213 C79 1.151 . S
C1232 C358 1.142 . S
C1249 C92 1.150 . S
C1268 C148 1.160 . S
C1285 C107 1.152 . S
C1304 C386 1.157 . S
C1321 C303 1.150 . S
C1340 C134 1.160 . S
C1357 C331 1.151 . S
C1376 C162 1.160 . S
C1393 C190 1.151 . S
C1412 C247 1.143 . S
C1429 C275 1.152 . S
C1448 C218 1.157 . S
C1465 C400 1.150 . S
C1484 C232 1.160 . S
C1501 C260 1.153 . S
C1520 C428 1.154 . S
C1537 C344 1.151 . S
C1556 C288 1.160 . S
C1573 C372 1.153 . S
C1592 C316 1.140 . S
C1609 C62 1.189 . S
C1628 C6 1.167 . S
C1645 C77 1.187 . S
C1664 C21 1.202 . S
C1681 C34 1.185 . S
C1700 C90 1.178 . S
C1717 C49 1.191 . S
C1736 C105 1.169 . S
C1753 C174 1.187 . S
C1772 C118 1.183 . S
C1789 C188 1.191 . S
C1808 C132 1.202 . S
C1825 C202 1.189 . S
C1844 C146 1.188 . S
C1861 C160 1.185 . S
C1880 C216 1.177 . S
C1897 C230 1.189 . S
C1916 C286 1.190 . S
C1933 C245 1.186 . S
C1952 C301 1.179 . S
C1969 C258 1.187 . S
C1988 C314 1.202 . S
C2005 C273 1.185 . S
C2024 C329 1.185 . S
C2041 C398 1.187 . S
C2060 C342 1.181 . S
C2077 C412 1.191 . S
C2096 C356 1.200 . S
C2113 C426 1.187 . S
C2132 C370 1.184 . S
C2149 C440 1.186 . S
C2168 C384 1.176 . S
C2185 C429 1.694 . S
C2204 C9 1.702 . S
C2221 C22 1.704 . S
C2240 C219 1.677 . S
C2257 C401 1.704 . S
C2276 C37 1.685 . S
C2293 C50 1.695 . S
C2312 C191 1.714 . S
C2329 C373 1.702 . S
C2348 C65 1.673 . S
C2365 C78 1.695 . S
C2384 C163 1.715 . S
C2401 C93 1.699 . S
C2420 C345 1.716 . S
C2437 C135 1.695 . S
C2456 C106 1.715 . S
C2473 C121 1.700 . S
C2492 C317 1.714 . S
C2509 C289 1.694 . S
C2528 C149 1.701 . S
C2545 C177 1.695 . S
C2564 C261 1.693 . S
C2581 C205 1.694 . S
C2600 C233 1.707 . S
C2617 C443 1.698 . S
C2636 C246 1.679 . S
C2653 C274 1.696 . S
C2672 C415 1.718 . S
C2689 C302 1.702 . S
C2708 C387 1.672 . S
C2725 C359 1.702 . S
C2744 C330 1.706 . S
