# Generated by pormake.
# Topology yfu, (5)-cn, num edge types: 1
# Building blocks:
#     Node 0, Type 0, BuildingBlock: BEQFEK_clean_sbu_0, # of connection points: 5
#     Node 1, Type 0, BuildingBlock: BEQFEK_clean_sbu_0, # of connection points: 5
#     Node 2, Type 0, BuildingBlock: BEQFEK_clean_sbu_0, # of connection points: 5
#     Node 3, Type 0, BuildingBlock: BEQFEK_clean_sbu_0, # of connection points: 5
#     Node 4, Type 0, BuildingBlock: BEQFEK_clean_sbu_0, # of connection points: 5
#     Node 5, Type 0, BuildingBlock: BEQFEK_clean_sbu_0, # of connection points: 5
#     Node 6, Type 0, BuildingBlock: BEQFEK_clean_sbu_0, # of connection points: 5
#     Node 7, Type 0, BuildingBlock: BEQFEK_clean_sbu_0, # of connection points: 5
#     Node 8, Type 0, BuildingBlock: BEQFEK_clean_sbu_0, # of connection points: 5
#     Node 9, Type 0, BuildingBlock: BEQFEK_clean_sbu_0, # of connection points: 5
#     Node 10, Type 0, BuildingBlock: BEQFEK_clean_sbu_0, # of connection points: 5
#     Node 11, Type 0, BuildingBlock: BEQFEK_clean_sbu_0, # of connection points: 5
#     Node 12, Type 0, BuildingBlock: BEQFEK_clean_sbu_0, # of connection points: 5
#     Node 13, Type 0, BuildingBlock: BEQFEK_clean_sbu_0, # of connection points: 5
#     Node 14, Type 0, BuildingBlock: BEQFEK_clean_sbu_0, # of connection points: 5
#     Node 15, Type 0, BuildingBlock: BEQFEK_clean_sbu_0, # of connection points: 5
#     Node 16, Type 0, BuildingBlock: BEQFEK_clean_sbu_0, # of connection points: 5
#     Node 17, Type 0, BuildingBlock: BEQFEK_clean_sbu_0, # of connection points: 5
#     Node 18, Type 0, BuildingBlock: BEQFEK_clean_sbu_0, # of connection points: 5
#     Node 19, Type 0, BuildingBlock: BEQFEK_clean_sbu_0, # of connection points: 5
#     Node 20, Type 0, BuildingBlock: BEQFEK_clean_sbu_0, # of connection points: 5
#     Node 21, Type 0, BuildingBlock: BEQFEK_clean_sbu_0, # of connection points: 5
#     Node 22, Type 0, BuildingBlock: BEQFEK_clean_sbu_0, # of connection points: 5
#     Node 23, Type 0, BuildingBlock: BEQFEK_clean_sbu_0, # of connection points: 5
#     Node 24, Type 0, BuildingBlock: BEQFEK_clean_sbu_0, # of connection points: 5
#     Node 25, Type 0, BuildingBlock: BEQFEK_clean_sbu_0, # of connection points: 5
#     Node 26, Type 0, BuildingBlock: BEQFEK_clean_sbu_0, # of connection points: 5
#     Node 27, Type 0, BuildingBlock: BEQFEK_clean_sbu_0, # of connection points: 5
#     Node 28, Type 0, BuildingBlock: BEQFEK_clean_sbu_0, # of connection points: 5
#     Node 29, Type 0, BuildingBlock: BEQFEK_clean_sbu_0, # of connection points: 5
#     Node 30, Type 0, BuildingBlock: BEQFEK_clean_sbu_0, # of connection points: 5
#     Node 31, Type 0, BuildingBlock: BEQFEK_clean_sbu_0, # of connection points: 5
#     Edge 32, Type (0, 0), BuildingBlock: EZIPEK_clean_linker_0, # of connection points: 2
#     Edge 33, Type (0, 0), BuildingBlock: EZIPEK_clean_linker_0, # of connection points: 2
#     Edge 34, Type (0, 0), BuildingBlock: EZIPEK_clean_linker_0, # of connection points: 2
#     Edge 35, Type (0, 0), BuildingBlock: EZIPEK_clean_linker_0, # of connection points: 2
#     Edge 36, Type (0, 0), BuildingBlock: EZIPEK_clean_linker_0, # of connection points: 2
#     Edge 37, Type (0, 0), BuildingBlock: EZIPEK_clean_linker_0, # of connection points: 2
#     Edge 38, Type (0, 0), BuildingBlock: EZIPEK_clean_linker_0, # of connection points: 2
#     Edge 39, Type (0, 0), BuildingBlock: EZIPEK_clean_linker_0, # of connection points: 2
#     Edge 40, Type (0, 0), BuildingBlock: EZIPEK_clean_linker_0, # of connection points: 2
#     Edge 41, Type (0, 0), BuildingBlock: EZIPEK_clean_linker_0, # of connection points: 2
#     Edge 42, Type (0, 0), BuildingBlock: EZIPEK_clean_linker_0, # of connection points: 2
#     Edge 43, Type (0, 0), BuildingBlock: EZIPEK_clean_linker_0, # of connection points: 2
#     Edge 44, Type (0, 0), BuildingBlock: EZIPEK_clean_linker_0, # of connection points: 2
#     Edge 45, Type (0, 0), BuildingBlock: EZIPEK_clean_linker_0, # of connection points: 2
#     Edge 46, Type (0, 0), BuildingBlock: EZIPEK_clean_linker_0, # of connection points: 2
#     Edge 47, Type (0, 0), BuildingBlock: EZIPEK_clean_linker_0, # of connection points: 2
#     Edge 48, Type (0, 0), BuildingBlock: EZIPEK_clean_linker_0, # of connection points: 2
#     Edge 49, Type (0, 0), BuildingBlock: EZIPEK_clean_linker_0, # of connection points: 2
#     Edge 50, Type (0, 0), BuildingBlock: EZIPEK_clean_linker_0, # of connection points: 2
#     Edge 51, Type (0, 0), BuildingBlock: EZIPEK_clean_linker_0, # of connection points: 2
#     Edge 52, Type (0, 0), BuildingBlock: EZIPEK_clean_linker_0, # of connection points: 2
#     Edge 53, Type (0, 0), BuildingBlock: EZIPEK_clean_linker_0, # of connection points: 2
#     Edge 54, Type (0, 0), BuildingBlock: EZIPEK_clean_linker_0, # of connection points: 2
#     Edge 55, Type (0, 0), BuildingBlock: EZIPEK_clean_linker_0, # of connection points: 2
#     Edge 56, Type (0, 0), BuildingBlock: EZIPEK_clean_linker_0, # of connection points: 2
#     Edge 57, Type (0, 0), BuildingBlock: EZIPEK_clean_linker_0, # of connection points: 2
#     Edge 58, Type (0, 0), BuildingBlock: EZIPEK_clean_linker_0, # of connection points: 2
#     Edge 59, Type (0, 0), BuildingBlock: EZIPEK_clean_linker_0, # of connection points: 2
#     Edge 60, Type (0, 0), BuildingBlock: EZIPEK_clean_linker_0, # of connection points: 2
#     Edge 61, Type (0, 0), BuildingBlock: EZIPEK_clean_linker_0, # of connection points: 2
#     Edge 62, Type (0, 0), BuildingBlock: EZIPEK_clean_linker_0, # of connection points: 2
#     Edge 63, Type (0, 0), BuildingBlock: EZIPEK_clean_linker_0, # of connection points: 2
#     Edge 64, Type (0, 0), BuildingBlock: EZIPEK_clean_linker_0, # of connection points: 2
#     Edge 65, Type (0, 0), BuildingBlock: EZIPEK_clean_linker_0, # of connection points: 2
#     Edge 66, Type (0, 0), BuildingBlock: EZIPEK_clean_linker_0, # of connection points: 2
#     Edge 67, Type (0, 0), BuildingBlock: EZIPEK_clean_linker_0, # of connection points: 2
#     Edge 68, Type (0, 0), BuildingBlock: EZIPEK_clean_linker_0, # of connection points: 2
#     Edge 69, Type (0, 0), BuildingBlock: EZIPEK_clean_linker_0, # of connection points: 2
#     Edge 70, Type (0, 0), BuildingBlock: EZIPEK_clean_linker_0, # of connection points: 2
#     Edge 71, Type (0, 0), BuildingBlock: EZIPEK_clean_linker_0, # of connection points: 2
#     Edge 72, Type (0, 0), BuildingBlock: EZIPEK_clean_linker_0, # of connection points: 2
#     Edge 73, Type (0, 0), BuildingBlock: EZIPEK_clean_linker_0, # of connection points: 2
#     Edge 74, Type (0, 0), BuildingBlock: EZIPEK_clean_linker_0, # of connection points: 2
#     Edge 75, Type (0, 0), BuildingBlock: EZIPEK_clean_linker_0, # of connection points: 2
#     Edge 76, Type (0, 0), BuildingBlock: EZIPEK_clean_linker_0, # of connection points: 2
#     Edge 77, Type (0, 0), BuildingBlock: EZIPEK_clean_linker_0, # of connection points: 2
#     Edge 78, Type (0, 0), BuildingBlock: EZIPEK_clean_linker_0, # of connection points: 2
#     Edge 79, Type (0, 0), BuildingBlock: EZIPEK_clean_linker_0, # of connection points: 2
#     Edge 80, Type (0, 0), BuildingBlock: EZIPEK_clean_linker_0, # of connection points: 2
#     Edge 81, Type (0, 0), BuildingBlock: EZIPEK_clean_linker_0, # of connection points: 2
#     Edge 82, Type (0, 0), BuildingBlock: EZIPEK_clean_linker_0, # of connection points: 2
#     Edge 83, Type (0, 0), BuildingBlock: EZIPEK_clean_linker_0, # of connection points: 2
#     Edge 84, Type (0, 0), BuildingBlock: EZIPEK_clean_linker_0, # of connection points: 2
#     Edge 85, Type (0, 0), BuildingBlock: EZIPEK_clean_linker_0, # of connection points: 2
#     Edge 86, Type (0, 0), BuildingBlock: EZIPEK_clean_linker_0, # of connection points: 2
#     Edge 87, Type (0, 0), BuildingBlock: EZIPEK_clean_linker_0, # of connection points: 2
#     Edge 88, Type (0, 0), BuildingBlock: EZIPEK_clean_linker_0, # of connection points: 2
#     Edge 89, Type (0, 0), BuildingBlock: EZIPEK_clean_linker_0, # of connection points: 2
#     Edge 90, Type (0, 0), BuildingBlock: EZIPEK_clean_linker_0, # of connection points: 2
#     Edge 91, Type (0, 0), BuildingBlock: EZIPEK_clean_linker_0, # of connection points: 2
#     Edge 92, Type (0, 0), BuildingBlock: EZIPEK_clean_linker_0, # of connection points: 2
#     Edge 93, Type (0, 0), BuildingBlock: EZIPEK_clean_linker_0, # of connection points: 2
#     Edge 94, Type (0, 0), BuildingBlock: EZIPEK_clean_linker_0, # of connection points: 2
#     Edge 95, Type (0, 0), BuildingBlock: EZIPEK_clean_linker_0, # of connection points: 2
#     Edge 96, Type (0, 0), BuildingBlock: EZIPEK_clean_linker_0, # of connection points: 2
#     Edge 97, Type (0, 0), BuildingBlock: EZIPEK_clean_linker_0, # of connection points: 2
#     Edge 98, Type (0, 0), BuildingBlock: EZIPEK_clean_linker_0, # of connection points: 2
#     Edge 99, Type (0, 0), BuildingBlock: EZIPEK_clean_linker_0, # of connection points: 2
#     Edge 100, Type (0, 0), BuildingBlock: EZIPEK_clean_linker_0, # of connection points: 2
#     Edge 101, Type (0, 0), BuildingBlock: EZIPEK_clean_linker_0, # of connection points: 2
#     Edge 102, Type (0, 0), BuildingBlock: EZIPEK_clean_linker_0, # of connection points: 2
#     Edge 103, Type (0, 0), BuildingBlock: EZIPEK_clean_linker_0, # of connection points: 2
#     Edge 104, Type (0, 0), BuildingBlock: EZIPEK_clean_linker_0, # of connection points: 2
#     Edge 105, Type (0, 0), BuildingBlock: EZIPEK_clean_linker_0, # of connection points: 2
#     Edge 106, Type (0, 0), BuildingBlock: EZIPEK_clean_linker_0, # of connection points: 2
#     Edge 107, Type (0, 0), BuildingBlock: EZIPEK_clean_linker_0, # of connection points: 2
#     Edge 108, Type (0, 0), BuildingBlock: EZIPEK_clean_linker_0, # of connection points: 2
#     Edge 109, Type (0, 0), BuildingBlock: EZIPEK_clean_linker_0, # of connection points: 2
#     Edge 110, Type (0, 0), BuildingBlock: EZIPEK_clean_linker_0, # of connection points: 2
#     Edge 111, Type (0, 0), BuildingBlock: EZIPEK_clean_linker_0, # of connection points: 2
# Relax obj value: 0.388
# Max RMSD: 0.212
# Mean RMSD: 0.212
data_MOF--net-yfu--node1-BEQFEK_clean_sbu_0--edge1-EZIPEK_clean_linker_0
_symmetry_space_group_name_H-M    P1
_symmetry_Int_Tables_number       1
_symmetry_cell_setting            triclinic
loop_
_symmetry_equiv_pos_as_xyz
'x, y, z'
_cell_length_a     37.590818
_cell_length_b     37.523267
_cell_length_c     67.20352
_cell_angle_alpha  90.024981
_cell_angle_beta   89.994565
_cell_angle_gamma 89.974001
loop_
_atom_site_label
_atom_site_type_symbol
_atom_site_fract_x
_atom_site_fract_y
_atom_site_fract_z
_atom_type_partial_charge
Co0 Co 0.02546 0.13 0.323 0.0
Co1 Co 0.06288 0.06644 0.34463 0.0
C2 C 0.09354 0.13756 0.34798 0.0
O3 O 0.06752 0.14982 0.33781 0.0
O4 O 0.09752 0.10422 0.35075 0.0
C5 C 0.02069 0.18924 0.2953 0.0
O6 O 0.0556 0.18777 0.29521 0.0
C7 C 0.11159 0.00882 0.35756 0.0
C8 C 0.07351 0.96444 0.36148 0.0
C9 C 0.10924 0.97299 0.36244 0.0
N10 N 0.07861 0.02088 0.35367 0.0
N11 N 0.05601 0.99426 0.35618 0.0
C12 C 0.14444 0.03119 0.35656 0.0
H13 H 0.14386 0.04802 0.34299 0.0
H14 H 0.16883 0.01452 0.35668 0.0
H15 H 0.14495 0.04933 0.3696 0.0
C16 C 0.02853 0.07963 0.28944 0.0
N17 N 0.03608 0.08921 0.30825 0.0
N18 N 0.05533 0.06429 0.3167 0.0
C19 C 0.06345 0.03949 0.30297 0.0
C20 C 0.04603 0.04779 0.28529 0.0
C21 C 0.0028 0.09935 0.27648 0.0
H22 H 0.98035 0.1094 0.28562 0.0
H23 H 0.01634 0.12272 0.26979 0.0
H24 H 0.99235 0.08209 0.26442 0.0
O25 O 0.99001 0.11873 0.34258 0.0
O26 O 0.01799 0.07738 0.36027 0.0
H27 H 0.07594 0.98849 0.3153 0.0
H28 H 0.09875 0.99811 0.29225 0.0
C29 C 0.08908 0.00965 0.30645 0.0
H30 H 0.11214 0.01974 0.31503 0.0
H31 H 0.02862 0.99634 0.35393 0.0
O32 O 0.004 0.16731 0.30622 0.0
C33 C 0.99135 0.09782 0.35734 0.0
Co34 Co 0.12578 0.78611 0.57049 0.0
Co35 Co 0.1947 0.80888 0.59323 0.0
C36 C 0.12581 0.84781 0.59889 0.0
O37 O 0.11035 0.82682 0.5868 0.0
O38 O 0.15905 0.84517 0.60235 0.0
C39 C 0.06343 0.79439 0.54679 0.0
O40 O 0.069 0.82823 0.55064 0.0
C41 C 0.25426 0.85497 0.60446 0.0
C42 C 0.293 0.8163 0.61657 0.0
C43 C 0.2878 0.85218 0.6128 0.0
N44 N 0.24017 0.82216 0.60326 0.0
N45 N 0.26343 0.79915 0.61053 0.0
C46 C 0.23554 0.88824 0.59814 0.0
H47 H 0.22075 0.89922 0.61105 0.0
H48 H 0.21618 0.88225 0.58612 0.0
H49 H 0.25486 0.90865 0.59304 0.0
C50 C 0.17321 0.79463 0.53585 0.0
N51 N 0.16676 0.79639 0.55553 0.0
N52 N 0.19603 0.80582 0.56489 0.0
C53 C 0.22211 0.81036 0.55134 0.0
C54 C 0.20844 0.80349 0.53258 0.0
C55 C 0.14635 0.78381 0.52061 0.0
H56 H 0.13556 0.75721 0.52451 0.0
H57 H 0.124 0.80311 0.52074 0.0
H58 H 0.15803 0.78288 0.50545 0.0
O59 O 0.13409 0.74627 0.58867 0.0
O60 O 0.18294 0.76135 0.60519 0.0
H61 H 0.26974 0.80345 0.56838 0.0
H62 H 0.27723 0.81774 0.54301 0.0
C63 C 0.25956 0.82045 0.55616 0.0
H64 H 0.2599 0.84858 0.56117 0.0
H65 H 0.25912 0.77173 0.61137 0.0
O66 O 0.08571 0.77186 0.55338 0.0
C67 C 0.1573 0.7399 0.60195 0.0
Co68 Co 0.46337 0.87053 0.81826 0.0
Co69 Co 0.4386 0.93617 0.8439 0.0
C70 C 0.40743 0.8623 0.84869 0.0
O71 O 0.42446 0.85044 0.83374 0.0
O72 O 0.41069 0.89452 0.85452 0.0
C73 C 0.46342 0.8094 0.79165 0.0
O74 O 0.42927 0.80818 0.79574 0.0
C75 C 0.38792 0.99238 0.85594 0.0
C76 C 0.42338 0.03025 0.87146 0.0
C77 C 0.38845 0.02486 0.86576 0.0
N78 N 0.42119 0.97918 0.8557 0.0
N79 N 0.4422 0.00192 0.86508 0.0
C80 C 0.35635 0.97411 0.84711 0.0
H81 H 0.36484 0.95154 0.83753 0.0
H82 H 0.34032 0.99335 0.83833 0.0
H83 H 0.33926 0.96385 0.85929 0.0
C84 C 0.44935 0.92002 0.78562 0.0
N85 N 0.44856 0.91158 0.80503 0.0
N86 N 0.43802 0.93938 0.81546 0.0
C87 C 0.43221 0.96666 0.8028 0.0
C88 C 0.439 0.95513 0.7836 0.0
C89 C 0.46212 0.89562 0.76952 0.0
H90 H 0.44503 0.87155 0.76915 0.0
H91 H 0.46141 0.90868 0.75471 0.0
H92 H 0.48972 0.887 0.77286 0.0
O93 O 0.50304 0.88119 0.83658 0.0
O94 O 0.48837 0.93025 0.85314 0.0
H95 H 0.42789 0.02306 0.79671 0.0
H96 H 0.39424 0.00447 0.81263 0.0
C97 C 0.42292 0.00375 0.8089 0.0
H98 H 0.43854 0.01162 0.82217 0.0
H99 H 0.4695 0.99824 0.867 0.0
O100 O 0.4818 0.83385 0.79972 0.0
C101 C 0.51018 0.90522 0.84934 0.0
Co102 Co 0.36976 0.2072 0.06715 0.0
Co103 Co 0.30691 0.17878 0.09338 0.0
C104 C 0.38066 0.14573 0.09359 0.0
O105 O 0.39095 0.16508 0.0792 0.0
O106 O 0.34934 0.14846 0.10081 0.0
C107 C 0.4336 0.21497 0.0449 0.0
O108 O 0.43822 0.18115 0.04914 0.0
C109 C 0.25624 0.1239 0.10677 0.0
C110 C 0.21055 0.15661 0.11649 0.0
C111 C 0.22182 0.12175 0.11408 0.0
N112 N 0.26475 0.1585 0.1046 0.0
N113 N 0.23739 0.1779 0.11059 0.0
C114 C 0.28055 0.09374 0.10169 0.0
H115 H 0.3017 0.09206 0.11316 0.0
H116 H 0.29354 0.09902 0.08715 0.0
H117 H 0.26607 0.06799 0.10118 0.0
C118 C 0.31815 0.19791 0.03533 0.0
N119 N 0.32768 0.1955 0.05452 0.0
N120 N 0.30077 0.18379 0.06518 0.0
C121 C 0.27275 0.17902 0.05291 0.0
C122 C 0.28306 0.18757 0.03369 0.0
C123 C 0.3421 0.21068 0.01906 0.0
H124 H 0.36747 0.19558 0.01953 0.0
H125 H 0.32963 0.20749 0.00419 0.0
H126 H 0.3484 0.23922 0.02156 0.0
O127 O 0.36209 0.24273 0.08843 0.0
O128 O 0.31477 0.2264 0.10594 0.0
H129 H 0.21748 0.1671 0.04682 0.0
H130 H 0.23806 0.14183 0.06656 0.0
C131 C 0.23639 0.16832 0.05949 0.0
H132 H 0.22646 0.18762 0.07068 0.0
H133 H 0.23682 0.2057 0.11031 0.0
O134 O 0.40425 0.22993 0.04907 0.0
C135 C 0.34018 0.24804 0.10255 0.0
Co136 Co 0.01501 0.87758 0.17952 0.0
Co137 Co 0.0574 0.93374 0.15465 0.0
C138 C 0.08194 0.85931 0.15604 0.0
O139 O 0.0572 0.85265 0.16843 0.0
O140 O 0.08642 0.89058 0.14908 0.0
C141 C 0.01363 0.82428 0.20844 0.0
O142 O 0.04722 0.83365 0.20949 0.0
C143 C 0.11345 0.98254 0.14003 0.0
C144 C 0.0822 0.03178 0.13535 0.0
C145 C 0.11632 0.01807 0.13461 0.0
N146 N 0.07909 0.97566 0.14411 0.0
N147 N 0.06058 0.00514 0.14112 0.0
C148 C 0.14284 0.9559 0.14187 0.0
H149 H 0.13881 0.93447 0.13072 0.0
H150 H 0.14186 0.94341 0.15682 0.0
H151 H 0.16925 0.9684 0.13949 0.0
C152 C 0.02047 0.93261 0.21003 0.0
N153 N 0.02744 0.91983 0.19181 0.0
N154 N 0.04973 0.94099 0.18256 0.0
C155 C 0.06008 0.96666 0.19534 0.0
C156 C 0.04139 0.96266 0.21314 0.0
C157 C 0.99305 0.91691 0.22361 0.0
H158 H 0.97028 0.90678 0.21474 0.0
H159 H 0.00471 0.89394 0.23169 0.0
H160 H 0.98343 0.93685 0.23457 0.0
O161 O 0.98235 0.88624 0.15773 0.0
O162 O 0.01145 0.92629 0.13958 0.0
H163 H 0.07924 0.01413 0.18138 0.0
H164 H 0.09995 0.00447 0.20502 0.0
C165 C 0.08934 0.99255 0.19113 0.0
H166 H 0.11115 0.97862 0.18322 0.0
H167 H 0.03321 0.00728 0.14349 0.0
O168 O 0.99306 0.84307 0.19772 0.0
C169 C 0.98451 0.90627 0.14257 0.0
Co170 Co 0.37097 0.79324 0.42159 0.0
Co171 Co 0.30342 0.81641 0.39798 0.0
C172 C 0.37116 0.85741 0.39477 0.0
O173 O 0.38627 0.83574 0.4066 0.0
O174 O 0.33825 0.85447 0.39067 0.0
C175 C 0.42775 0.80319 0.44944 0.0
O176 O 0.41318 0.83438 0.45294 0.0
C177 C 0.24477 0.86353 0.38766 0.0
C178 C 0.20716 0.82755 0.37234 0.0
C179 C 0.21213 0.86253 0.37827 0.0
N180 N 0.25865 0.83056 0.38746 0.0
N181 N 0.23607 0.80911 0.37828 0.0
C182 C 0.26281 0.89543 0.39636 0.0
H183 H 0.27816 0.90904 0.38448 0.0
H184 H 0.28151 0.88724 0.4083 0.0
H185 H 0.24293 0.91453 0.40233 0.0
C186 C 0.32051 0.79654 0.45539 0.0
N187 N 0.32869 0.80064 0.43602 0.0
N188 N 0.30004 0.81058 0.42619 0.0
C189 C 0.2728 0.81356 0.43918 0.0
C190 C 0.28502 0.80499 0.45802 0.0
C191 C 0.34576 0.7835 0.47096 0.0
H192 H 0.36276 0.80594 0.47591 0.0
H193 H 0.33135 0.77297 0.48411 0.0
H194 H 0.36301 0.76235 0.46466 0.0
O195 O 0.36512 0.75449 0.40232 0.0
O196 O 0.31812 0.7708 0.38441 0.0
H197 H 0.2169 0.81872 0.44628 0.0
H198 H 0.23474 0.85215 0.42985 0.0
C199 C 0.23553 0.82347 0.43375 0.0
H200 H 0.22679 0.80779 0.42066 0.0
H201 H 0.24044 0.78196 0.37601 0.0
O202 O 0.41197 0.78088 0.43831 0.0
C203 C 0.34332 0.74904 0.38819 0.0
Co204 Co 0.46732 0.11736 0.67327 0.0
Co205 Co 0.44108 0.0498 0.65008 0.0
C206 C 0.40381 0.12057 0.64673 0.0
O207 O 0.4258 0.13536 0.65855 0.0
O208 O 0.40581 0.08744 0.64258 0.0
C209 C 0.46891 0.17801 0.69998 0.0
O210 O 0.43422 0.17817 0.69758 0.0
C211 C 0.39277 0.99174 0.63855 0.0
C212 C 0.43036 0.95217 0.62618 0.0
C213 C 0.39472 0.95816 0.63008 0.0
N214 N 0.42587 0.00506 0.63972 0.0
N215 N 0.44819 0.9813 0.63227 0.0
C216 C 0.36007 0.01114 0.64511 0.0
H217 H 0.36662 0.03015 0.65723 0.0
H218 H 0.33929 0.99217 0.65014 0.0
H219 H 0.34936 0.02649 0.63233 0.0
C220 C 0.45745 0.06911 0.70742 0.0
N221 N 0.45626 0.07607 0.6878 0.0
N222 N 0.44563 0.04738 0.67821 0.0
C223 C 0.43978 0.0212 0.69154 0.0
C224 C 0.44695 0.03425 0.71036 0.0
C225 C 0.46838 0.09532 0.72303 0.0
H226 H 0.49507 0.10603 0.71938 0.0
H227 H 0.44925 0.11781 0.72317 0.0
H228 H 0.46905 0.08302 0.73804 0.0
O229 O 0.50502 0.10801 0.65404 0.0
O230 O 0.48809 0.05994 0.63737 0.0
H231 H 0.44357 0.97361 0.67407 0.0
H232 H 0.42949 0.9663 0.69948 0.0
C233 C 0.42748 0.98446 0.68649 0.0
H234 H 0.3993 0.98586 0.68174 0.0
H235 H 0.47568 0.98494 0.6314 0.0
O236 O 0.48688 0.15473 0.6907 0.0
C237 C 0.51024 0.08493 0.64054 0.0
Co238 Co 0.12563 0.2134 0.92128 0.0
Co239 Co 0.1944 0.18705 0.89902 0.0
C240 C 0.12262 0.1517 0.89373 0.0
O241 O 0.10722 0.17281 0.90587 0.0
O242 O 0.15595 0.15368 0.89034 0.0
C243 C 0.06404 0.22163 0.94807 0.0
O244 O 0.05891 0.18715 0.94623 0.0
C245 C 0.25009 0.13512 0.88877 0.0
C246 C 0.29296 0.16993 0.87745 0.0
C247 C 0.28438 0.13467 0.88117 0.0
N248 N 0.23896 0.16915 0.88964 0.0
N249 N 0.2647 0.18981 0.88281 0.0
C250 C 0.22786 0.10386 0.89471 0.0
H251 H 0.21111 0.11091 0.90773 0.0
H252 H 0.24463 0.08033 0.89818 0.0
H253 H 0.20988 0.09692 0.8822 0.0
C254 C 0.17155 0.20198 0.95615 0.0
N255 N 0.16571 0.20104 0.9364 0.0
N256 N 0.19498 0.19085 0.92726 0.0
C257 C 0.22044 0.18519 0.94102 0.0
C258 C 0.20631 0.19195 0.95965 0.0
C259 C 0.14454 0.21268 0.97136 0.0
H260 H 0.13537 0.2402 0.96825 0.0
H261 H 0.12132 0.19457 0.97036 0.0
H262 H 0.15554 0.21148 0.98667 0.0
O263 O 0.13735 0.25082 0.90235 0.0
O264 O 0.18656 0.23495 0.88644 0.0
H265 H 0.2686 0.18971 0.92419 0.0
H266 H 0.27505 0.17612 0.94978 0.0
C267 C 0.25756 0.17361 0.93655 0.0
H268 H 0.25678 0.14531 0.93193 0.0
H269 H 0.263 0.2175 0.88188 0.0
O270 O 0.08917 0.23575 0.93828 0.0
C271 C 0.16121 0.25686 0.88944 0.0
Co272 Co 0.96926 0.88192 0.67568 0.0
Co273 Co 0.93976 0.94255 0.64786 0.0
C274 C 0.90894 0.86884 0.64761 0.0
O275 O 0.92894 0.85992 0.66203 0.0
O276 O 0.91015 0.90005 0.64007 0.0
C277 C 0.96752 0.82431 0.70328 0.0
O278 O 0.93306 0.82782 0.70072 0.0
C279 C 0.88845 0.99656 0.63279 0.0
C280 C 0.92497 0.03717 0.62059 0.0
C281 C 0.88938 0.02984 0.62382 0.0
N282 N 0.92209 0.9848 0.63498 0.0
N283 N 0.9437 0.00913 0.62745 0.0
C284 C 0.85617 0.97662 0.63944 0.0
H285 H 0.86348 0.95594 0.65051 0.0
H286 H 0.83627 0.99522 0.64586 0.0
H287 H 0.84389 0.96343 0.62635 0.0
C288 C 0.95666 0.93583 0.70653 0.0
N289 N 0.95568 0.92465 0.68752 0.0
N290 N 0.94139 0.94949 0.67623 0.0
C291 C 0.93218 0.97712 0.68795 0.0
C292 C 0.94167 0.96946 0.70744 0.0
C293 C 0.97199 0.91477 0.72336 0.0
H294 H 0.99811 0.90355 0.71888 0.0
H295 H 0.95398 0.89217 0.72679 0.0
H296 H 0.97524 0.9314 0.7369 0.0
O297 O 0.0071 0.88923 0.65602 0.0
O298 O 0.98908 0.9344 0.63728 0.0
H299 H 0.93112 0.02281 0.66919 0.0
H300 H 0.90935 0.02951 0.6929 0.0
C301 C 0.91432 0.01015 0.68075 0.0
H302 H 0.88839 0.00283 0.67415 0.0
H303 H 0.97137 0.00695 0.6274 0.0
O304 O 0.98779 0.84672 0.6948 0.0
C305 C 0.01209 0.9107 0.64166 0.0
Co306 Co 0.86892 0.22746 0.42776 0.0
Co307 Co 0.80865 0.19856 0.39989 0.0
C308 C 0.88289 0.16601 0.40211 0.0
O309 O 0.89147 0.18516 0.41693 0.0
O310 O 0.85245 0.16898 0.39377 0.0
C311 C 0.92689 0.23561 0.45543 0.0
O312 O 0.93101 0.20124 0.4525 0.0
C313 C 0.75472 0.1452 0.3879 0.0
C314 C 0.7203 0.17719 0.36812 0.0
C315 C 0.7242 0.14364 0.37635 0.0
N316 N 0.76819 0.17835 0.3867 0.0
N317 N 0.74753 0.19724 0.37476 0.0
C318 C 0.77083 0.11567 0.39978 0.0
H319 H 0.79121 0.12622 0.41018 0.0
H320 H 0.74986 0.10125 0.40815 0.0
H321 H 0.78354 0.09636 0.38948 0.0
C322 C 0.81506 0.21671 0.45824 0.0
N323 N 0.82584 0.21521 0.43923 0.0
N324 N 0.79988 0.20324 0.4279 0.0
C325 C 0.77118 0.19764 0.43955 0.0
C326 C 0.78016 0.20557 0.45904 0.0
C327 C 0.83796 0.22851 0.47521 0.0
H328 H 0.84589 0.25668 0.4729 0.0
H329 H 0.86252 0.21212 0.47553 0.0
H330 H 0.82401 0.226 0.48969 0.0
O331 O 0.86242 0.26292 0.4065 0.0
O332 O 0.81614 0.24664 0.38821 0.0
H333 H 0.72967 0.19825 0.41769 0.0
H334 H 0.71434 0.19351 0.44309 0.0
C335 C 0.7355 0.18606 0.43234 0.0
H336 H 0.73561 0.15666 0.43086 0.0
H337 H 0.75179 0.224 0.37131 0.0
O338 O 0.90128 0.25106 0.44669 0.0
C339 C 0.84095 0.26853 0.39223 0.0
Co340 Co 0.52748 0.11073 0.17583 0.0
Co341 Co 0.56107 0.0483 0.1509 0.0
C342 C 0.59142 0.12058 0.14861 0.0
O343 O 0.56738 0.13242 0.16032 0.0
O344 O 0.59414 0.08751 0.14465 0.0
C345 C 0.52431 0.16906 0.20407 0.0
O346 O 0.55908 0.16945 0.20208 0.0
C347 C 0.61213 0.99496 0.13564 0.0
C348 C 0.57656 0.94962 0.12893 0.0
C349 C 0.61187 0.96005 0.12887 0.0
N350 N 0.57845 0.00467 0.13975 0.0
N351 N 0.55733 0.97752 0.13555 0.0
C352 C 0.64376 0.01869 0.13818 0.0
H353 H 0.64427 0.03826 0.1258 0.0
H354 H 0.6415 0.03387 0.15229 0.0
H355 H 0.66893 0.00323 0.13799 0.0
C356 C 0.53948 0.05989 0.20859 0.0
N357 N 0.54082 0.06913 0.18925 0.0
N358 N 0.55637 0.04362 0.17903 0.0
C359 C 0.567 0.01806 0.19176 0.0
C360 C 0.55631 0.02729 0.21085 0.0
C361 C 0.52253 0.08193 0.22453 0.0
H362 H 0.49646 0.09205 0.21926 0.0
H363 H 0.53977 0.10519 0.2278 0.0
H364 H 0.51874 0.06631 0.23839 0.0
O365 O 0.4903 0.1006 0.15676 0.0
O366 O 0.51486 0.06005 0.13698 0.0
H367 H 0.57411 0.96902 0.17612 0.0
H368 H 0.59874 0.97161 0.19917 0.0
C369 C 0.58949 0.9869 0.18604 0.0
H370 H 0.61303 0.99678 0.17784 0.0
H371 H 0.52979 0.97784 0.13753 0.0
O372 O 0.50682 0.14635 0.19408 0.0
C373 C 0.48931 0.081 0.14139 0.0
Co374 Co 0.63066 0.78675 0.91719 0.0
Co375 Co 0.69788 0.81085 0.89301 0.0
C376 C 0.62927 0.84976 0.88969 0.0
O377 O 0.61475 0.82808 0.90172 0.0
O378 O 0.66227 0.84788 0.88565 0.0
C379 C 0.57372 0.79595 0.94522 0.0
O380 O 0.58537 0.8288 0.94692 0.0
C381 C 0.75535 0.85926 0.88197 0.0
C382 C 0.79478 0.82338 0.86806 0.0
C383 C 0.7885 0.85867 0.87302 0.0
N384 N 0.74253 0.82584 0.88238 0.0
N385 N 0.76619 0.80449 0.87402 0.0
C386 C 0.73572 0.89109 0.88966 0.0
H387 H 0.71825 0.9015 0.87769 0.0
H388 H 0.71871 0.88344 0.90246 0.0
H389 H 0.75437 0.91256 0.89412 0.0
C390 C 0.68056 0.79243 0.95062 0.0
N391 N 0.67266 0.7954 0.93118 0.0
N392 N 0.70116 0.80557 0.9213 0.0
C393 C 0.72804 0.80988 0.93439 0.0
C394 C 0.71566 0.80191 0.95327 0.0
C395 C 0.65523 0.78017 0.96632 0.0
H396 H 0.63882 0.75791 0.96055 0.0
H397 H 0.6375 0.80262 0.97039 0.0
H398 H 0.66942 0.77136 0.97993 0.0
O399 O 0.63725 0.74816 0.89821 0.0
O400 O 0.68295 0.7652 0.87943 0.0
H401 H 0.77454 0.8062 0.91609 0.0
H402 H 0.78345 0.81775 0.94177 0.0
C403 C 0.76482 0.82147 0.92912 0.0
H404 H 0.76403 0.85013 0.92521 0.0
H405 H 0.76286 0.77703 0.87241 0.0
O406 O 0.59038 0.77378 0.9344 0.0
C407 C 0.65818 0.74317 0.88362 0.0
Co408 Co 0.96875 0.1299 0.8178 0.0
Co409 Co 0.93822 0.06365 0.84042 0.0
C410 C 0.90864 0.1367 0.84672 0.0
O411 O 0.92923 0.14852 0.83327 0.0
O412 O 0.90882 0.10387 0.85173 0.0
C413 C 0.96713 0.18759 0.78961 0.0
O414 O 0.93617 0.17471 0.7841 0.0
C415 C 0.88862 0.00484 0.85064 0.0
C416 C 0.92591 0.96585 0.86382 0.0
C417 C 0.89056 0.97106 0.85896 0.0
N418 N 0.92153 0.01893 0.85045 0.0
N419 N 0.9436 0.99547 0.85841 0.0
C420 C 0.85611 0.02347 0.8432 0.0
H421 H 0.86345 0.04791 0.83485 0.0
H422 H 0.84045 0.00533 0.83354 0.0
H423 H 0.83911 0.03086 0.85606 0.0
C424 C 0.9562 0.08492 0.78315 0.0
N425 N 0.95361 0.09111 0.80274 0.0
N426 N 0.93876 0.06388 0.81168 0.0
C427 C 0.9302 0.03952 0.79773 0.0
C428 C 0.93779 0.05333 0.7787 0.0
C429 C 0.98501 0.10267 0.77125 0.0
H430 H 0.00622 0.1124 0.78138 0.0
H431 H 0.9744 0.12625 0.76333 0.0
H432 H 0.99745 0.08394 0.76055 0.0
O433 O 0.00688 0.11738 0.83612 0.0
O434 O 0.9875 0.06889 0.85146 0.0
H435 H 0.93039 0.98297 0.79075 0.0
H436 H 0.89448 0.99836 0.80663 0.0
C437 C 0.92303 0.0014 0.80296 0.0
H438 H 0.93884 0.9937 0.81617 0.0
H439 H 0.97091 0.99954 0.86002 0.0
O440 O 0.98594 0.17074 0.80214 0.0
C441 C 0.0111 0.09273 0.84883 0.0
Co442 Co 0.6206 0.21378 0.57158 0.0
Co443 Co 0.6908 0.18771 0.59261 0.0
C444 C 0.62169 0.14986 0.5983 0.0
O445 O 0.6058 0.172 0.58707 0.0
O446 O 0.65504 0.15185 0.60135 0.0
C447 C 0.55996 0.20842 0.5456 0.0
O448 O 0.57118 0.17576 0.54235 0.0
C449 C 0.74875 0.13772 0.60159 0.0
C450 C 0.79131 0.17361 0.61216 0.0
C451 C 0.78351 0.13816 0.60842 0.0
N452 N 0.73659 0.17143 0.60108 0.0
N453 N 0.76217 0.19275 0.60745 0.0
C454 C 0.7271 0.10582 0.59602 0.0
H455 H 0.71026 0.09817 0.60889 0.0
H456 H 0.70925 0.11243 0.58339 0.0
H457 H 0.74436 0.08288 0.59208 0.0
C458 C 0.66682 0.20828 0.53619 0.0
N459 N 0.66071 0.20402 0.55576 0.0
N460 N 0.69001 0.19257 0.56443 0.0
C461 C 0.71543 0.18862 0.55046 0.0
C462 C 0.70143 0.19833 0.53224 0.0
C463 C 0.64109 0.22443 0.52191 0.0
H464 H 0.61947 0.20515 0.51888 0.0
H465 H 0.65395 0.23145 0.50758 0.0
H466 H 0.62958 0.24873 0.52873 0.0
O467 O 0.6314 0.25197 0.59022 0.0
O468 O 0.68092 0.23517 0.60571 0.0
H469 H 0.7645 0.19393 0.5663 0.0
H470 H 0.76959 0.17882 0.54092 0.0
C471 C 0.75277 0.17709 0.55445 0.0
H472 H 0.75228 0.1491 0.55963 0.0
H473 H 0.75974 0.22038 0.60854 0.0
O474 O 0.57853 0.22942 0.55617 0.0
C475 C 0.65559 0.25737 0.60307 0.0
Co476 Co 0.53349 0.87859 0.32634 0.0
Co477 Co 0.55996 0.94888 0.34698 0.0
C478 C 0.5929 0.87805 0.35596 0.0
O479 O 0.57195 0.86263 0.34388 0.0
O480 O 0.59198 0.91167 0.35853 0.0
C481 C 0.5393 0.81922 0.29894 0.0
O482 O 0.57115 0.83166 0.2949 0.0
C483 C 0.61261 0.00408 0.35642 0.0
C484 C 0.57888 0.04987 0.36486 0.0
C485 C 0.61399 0.03945 0.36241 0.0
N486 N 0.57829 0.99419 0.35518 0.0
N487 N 0.55827 0.02165 0.36033 0.0
C488 C 0.64323 0.97966 0.3524 0.0
H489 H 0.64604 0.96088 0.36505 0.0
H490 H 0.63777 0.96371 0.33882 0.0
H491 H 0.66851 0.99458 0.35067 0.0
C492 C 0.54719 0.92088 0.2904 0.0
N493 N 0.54858 0.91655 0.3102 0.0
N494 N 0.56021 0.94587 0.31855 0.0
C495 C 0.56742 0.96979 0.30417 0.0
C496 C 0.56306 0.95358 0.28545 0.0
C497 C 0.52119 0.89991 0.27818 0.0
H498 H 0.49999 0.88885 0.28786 0.0
H499 H 0.53492 0.87724 0.27104 0.0
H500 H 0.50824 0.91673 0.26671 0.0
O501 O 0.49337 0.89259 0.34306 0.0
O502 O 0.51021 0.94274 0.35795 0.0
H503 H 0.56044 0.0251 0.29535 0.0
H504 H 0.59552 0.01653 0.31323 0.0
C505 C 0.56846 0.00899 0.30841 0.0
H506 H 0.54983 0.01535 0.32068 0.0
H507 H 0.5305 0.02119 0.36062 0.0
O508 O 0.51918 0.83592 0.31094 0.0
C509 C 0.48736 0.91805 0.3551 0.0
Co510 Co 0.87364 0.78148 0.06358 0.0
Co511 Co 0.80837 0.80587 0.08873 0.0
C512 C 0.88122 0.84012 0.09226 0.0
O513 O 0.89259 0.82288 0.07732 0.0
O514 O 0.84955 0.83579 0.09873 0.0
C515 C 0.93547 0.78279 0.03911 0.0
O516 O 0.93285 0.81731 0.04201 0.0
C517 C 0.75201 0.85647 0.10014 0.0
C518 C 0.7142 0.82125 0.11584 0.0
C519 C 0.71961 0.85611 0.10991 0.0
N520 N 0.76519 0.82316 0.10011 0.0
N521 N 0.74244 0.80225 0.10955 0.0
C522 C 0.77025 0.88797 0.09119 0.0
H523 H 0.78112 0.90486 0.10331 0.0
H524 H 0.7923 0.8793 0.08132 0.0
H525 H 0.75087 0.90431 0.08269 0.0
C526 C 0.8247 0.79285 0.03058 0.0
N527 N 0.83251 0.79375 0.05005 0.0
N528 N 0.8046 0.80451 0.06025 0.0
C529 C 0.77768 0.81027 0.04734 0.0
C530 C 0.78977 0.80329 0.02823 0.0
C531 C 0.85005 0.7812 0.01469 0.0
H532 H 0.87365 0.79892 0.01483 0.0
H533 H 0.83767 0.78203 -0.00029 0.0
H534 H 0.85926 0.75369 0.0179 0.0
O535 O 0.8652 0.74309 0.08312 0.0
O536 O 0.81551 0.75679 0.09916 0.0
H537 H 0.72169 0.81568 0.04073 0.0
H538 H 0.74028 0.84921 0.0568 0.0
C539 C 0.74067 0.82044 0.05309 0.0
H540 H 0.73219 0.80511 0.06636 0.0
H541 H 0.74616 0.77496 0.11166 0.0
O542 O 0.91098 0.763 0.04596 0.0
C543 C 0.84153 0.73582 0.09601 0.0
Co544 Co 0.52176 0.61708 0.81746 0.0
Co545 Co 0.55697 0.55751 0.84381 0.0
C546 C 0.58786 0.63068 0.84139 0.0
O547 O 0.56554 0.63868 0.8279 0.0
O548 O 0.58815 0.5998 0.84934 0.0
C549 C 0.52119 0.67206 0.78861 0.0
O550 O 0.55349 0.66061 0.78473 0.0
C551 C 0.61026 0.50473 0.85804 0.0
C552 C 0.57502 0.46203 0.86919 0.0
C553 C 0.61039 0.47091 0.86642 0.0
N554 N 0.57624 0.51522 0.85574 0.0
N555 N 0.5554 0.48962 0.86258 0.0
C556 C 0.64179 0.52669 0.85229 0.0
H557 H 0.63556 0.54274 0.83888 0.0
H558 H 0.66544 0.50968 0.84955 0.0
H559 H 0.64801 0.54536 0.86462 0.0
C560 C 0.52843 0.56205 0.78635 0.0
N561 N 0.53209 0.57375 0.80518 0.0
N562 N 0.5491 0.54968 0.8158 0.0
C563 C 0.55764 0.52223 0.80378 0.0
C564 C 0.54477 0.5291 0.78482 0.0
C565 C 0.5104 0.58238 0.7701 0.0
H566 H 0.48718 0.59704 0.77617 0.0
H567 H 0.52928 0.60208 0.76381 0.0
H568 H 0.50171 0.56425 0.75798 0.0
O569 O 0.48853 0.61103 0.83977 0.0
O570 O 0.51139 0.56744 0.85811 0.0
H571 H 0.56595 0.47607 0.82175 0.0
H572 H 0.58572 0.47304 0.79731 0.0
C573 C 0.57988 0.49119 0.80992 0.0
H574 H 0.60534 0.50132 0.81593 0.0
H575 H 0.52766 0.49074 0.86243 0.0
O576 O 0.50126 0.65413 0.80011 0.0
C577 C 0.48718 0.5904 0.85473 0.0
Co578 Co 0.62391 0.27998 0.06968 0.0
Co579 Co 0.68758 0.30403 0.09615 0.0
C580 C 0.61574 0.33983 0.09754 0.0
O581 O 0.60546 0.32282 0.08226 0.0
O582 O 0.64663 0.33499 0.10492 0.0
C583 C 0.56742 0.28448 0.0414 0.0
O584 O 0.57791 0.31754 0.03885 0.0
C585 C 0.74399 0.35374 0.10836 0.0
C586 C 0.78083 0.31797 0.12445 0.0
C587 C 0.77614 0.35289 0.1184 0.0
N588 N 0.73029 0.32067 0.10831 0.0
N589 N 0.75237 0.29945 0.11803 0.0
C590 C 0.72653 0.38542 0.09908 0.0
H591 H 0.70462 0.37697 0.08906 0.0
H592 H 0.74639 0.40132 0.09069 0.0
H593 H 0.71552 0.40266 0.11101 0.0
C594 C 0.67631 0.28731 0.0377 0.0
N595 N 0.66656 0.2895 0.0569 0.0
N596 N 0.69351 0.30079 0.06771 0.0
C597 C 0.72149 0.30608 0.05548 0.0
C598 C 0.71128 0.29804 0.0362 0.0
C599 C 0.65267 0.27496 0.02118 0.0
H600 H 0.63681 0.25169 0.02613 0.0
H601 H 0.63412 0.29677 0.01715 0.0
H602 H 0.66823 0.26768 0.00775 0.0
O603 O 0.62946 0.24261 0.09015 0.0
O604 O 0.67784 0.25616 0.10752 0.0
H605 H 0.76561 0.3033 0.07556 0.0
H606 H 0.77767 0.31338 0.05011 0.0
C607 C 0.75756 0.31787 0.06195 0.0
H608 H 0.75647 0.34677 0.06526 0.0
H609 H 0.7482 0.27222 0.1201 0.0
O610 O 0.58577 0.26348 0.05205 0.0
C611 C 0.65152 0.2358 0.104 0.0
Co612 Co 0.9672 0.38619 0.32367 0.0
Co613 Co 0.93845 0.45429 0.34573 0.0
C614 C 0.90329 0.38392 0.35064 0.0
O615 O 0.92601 0.36953 0.33914 0.0
O616 O 0.9037 0.41726 0.35413 0.0
C617 C 0.96238 0.32655 0.29702 0.0
O618 O 0.93019 0.33866 0.2935 0.0
C619 C 0.88881 0.51118 0.35707 0.0
C620 C 0.92545 0.55367 0.36702 0.0
C621 C 0.88982 0.54562 0.36444 0.0
N622 N 0.9224 0.49938 0.35521 0.0
N623 N 0.94417 0.52487 0.36124 0.0
C624 C 0.85658 0.48952 0.35223 0.0
H625 H 0.85022 0.47222 0.36513 0.0
H626 H 0.86202 0.47206 0.33924 0.0
H627 H 0.83328 0.50683 0.34916 0.0
C628 C 0.95908 0.43409 0.28877 0.0
N629 N 0.9561 0.42691 0.30833 0.0
N630 N 0.94317 0.45514 0.31751 0.0
C631 C 0.93685 0.4808 0.30393 0.0
C632 C 0.94661 0.46822 0.28538 0.0
C633 C 0.97529 0.40955 0.27381 0.0
H634 H 0.95608 0.38817 0.27011 0.0
H635 H 0.98235 0.42378 0.25989 0.0
H636 H -0.00052 0.39732 0.2803 0.0
O637 O 0.0049 0.39705 0.34266 0.0
O638 O 0.98549 0.44496 0.35879 0.0
H639 H 0.93845 0.5299 0.32008 0.0
H640 H 0.92113 0.53404 0.29512 0.0
C641 C 0.922 0.5168 0.30852 0.0
H642 H 0.89464 0.5135 0.31434 0.0
H643 H 0.97185 0.52262 0.36133 0.0
O644 O 0.98333 0.34447 0.30796 0.0
C645 C 0.00868 0.42066 0.35606 0.0
Co646 Co 0.87065 0.70477 0.57417 0.0
Co647 Co 0.80386 0.68338 0.59961 0.0
C648 C 0.87338 0.64484 0.60347 0.0
O649 O 0.88787 0.66534 0.59075 0.0
O650 O 0.84035 0.6472 0.60762 0.0
C651 C 0.93498 0.73382 0.56357 0.0
O652 O 0.93594 0.7374 0.583 0.0
C653 C 0.74398 0.63755 0.61117 0.0
C654 C 0.70788 0.67548 0.62618 0.0
C655 C 0.71136 0.6401 0.62065 0.0
N656 N 0.75918 0.66998 0.61101 0.0
N657 N 0.73748 0.69253 0.62005 0.0
C658 C 0.76069 0.60478 0.60263 0.0
H659 H 0.7817 0.61201 0.59175 0.0
H660 H 0.74031 0.58777 0.59539 0.0
H661 H 0.77294 0.58917 0.61487 0.0
C662 C 0.82116 0.69403 0.54145 0.0
N663 N 0.82883 0.69344 0.56095 0.0
N664 N 0.80001 0.68585 0.57123 0.0
C665 C 0.77283 0.68156 0.55834 0.0
C666 C 0.78551 0.68644 0.53918 0.0
C667 C 0.84724 0.70319 0.52544 0.0
H668 H 0.85584 0.73128 0.52732 0.0
H669 H 0.87111 0.68599 0.52691 0.0
H670 H 0.83556 0.69973 0.5104 0.0
O671 O 0.8631 0.7454 0.5916 0.0
O672 O 0.81865 0.73037 0.61167 0.0
H673 H 0.72773 0.68955 0.57735 0.0
H674 H 0.71665 0.67977 0.55169 0.0
C675 C 0.73529 0.67378 0.56406 0.0
H676 H 0.73324 0.64504 0.56764 0.0
H677 H 0.74278 0.71962 0.62193 0.0
O678 O 0.90834 0.71906 0.55545 0.0
C679 C 0.84286 0.75209 0.60624 0.0
Co680 Co 0.52793 0.37065 0.67165 0.0
Co681 Co 0.5547 0.44036 0.65075 0.0
C682 C 0.59136 0.37056 0.64443 0.0
O683 O 0.56901 0.3551 0.65571 0.0
O684 O 0.58997 0.40407 0.64141 0.0
C685 C 0.53012 0.31278 0.70029 0.0
O686 O 0.5603 0.32658 0.70643 0.0
C687 C 0.6034 0.49988 0.64198 0.0
C688 C 0.56682 0.53997 0.62926 0.0
C689 C 0.60211 0.53403 0.63414 0.0
N690 N 0.57032 0.48624 0.64183 0.0
N691 N 0.5486 0.51036 0.6342 0.0
C692 C 0.63553 0.48009 0.64903 0.0
H693 H 0.62795 0.46045 0.66063 0.0
H694 H 0.6559 0.49869 0.65491 0.0
H695 H 0.64724 0.46538 0.63628 0.0
C696 C 0.53617 0.41554 0.70733 0.0
N697 N 0.53974 0.41013 0.68768 0.0
N698 N 0.55205 0.43908 0.67922 0.0
C699 C 0.55817 0.46358 0.69345 0.0
C700 C 0.5517 0.44845 0.71225 0.0
C701 C 0.50791 0.39608 0.71873 0.0
H702 H 0.48743 0.38603 0.70824 0.0
H703 H 0.51939 0.37273 0.72647 0.0
H704 H 0.4944 0.41377 0.72958 0.0
O705 O 0.4893 0.38203 0.65364 0.0
O706 O 0.50658 0.43127 0.63815 0.0
H707 H 0.55358 0.51967 0.70113 0.0
H708 H 0.59032 0.50778 0.68492 0.0
C709 C 0.56219 0.50236 0.68867 0.0
H710 H 0.54565 0.50922 0.67558 0.0
H711 H 0.52128 0.50661 0.63237 0.0
O712 O 0.51215 0.32853 0.68694 0.0
C713 C 0.484 0.40634 0.64087 0.0
Co714 Co 0.87639 0.29294 0.92684 0.0
Co715 Co 0.80886 0.31763 0.9032 0.0
C716 C 0.87766 0.35671 0.89981 0.0
O717 O 0.89265 0.33439 0.91133 0.0
O718 O 0.84444 0.35504 0.89627 0.0
C719 C 0.93728 0.29718 0.95284 0.0
O720 O 0.92845 0.33072 0.95549 0.0
C721 C 0.75042 0.36584 0.89284 0.0
C722 C 0.71191 0.32971 0.87837 0.0
C723 C 0.71735 0.36489 0.88381 0.0
N724 N 0.76395 0.33267 0.89291 0.0
N725 N 0.74079 0.31117 0.88424 0.0
C726 C 0.76932 0.39783 0.90084 0.0
H727 H 0.78689 0.39006 0.91338 0.0
H728 H 0.75008 0.41847 0.90576 0.0
H729 H 0.78612 0.40933 0.88888 0.0
C730 C 0.82694 0.29826 0.96061 0.0
N731 N 0.83478 0.30202 0.94121 0.0
N732 N 0.80598 0.3116 0.93141 0.0
C733 C 0.77887 0.31447 0.94446 0.0
C734 C 0.7914 0.30622 0.96328 0.0
C735 C 0.8525 0.28531 0.976 0.0
H736 H 0.87431 0.30494 0.97766 0.0
H737 H 0.83945 0.2815 0.99066 0.0
H738 H 0.86417 0.25971 0.97096 0.0
O739 O 0.86817 0.25454 0.90818 0.0
O740 O 0.82317 0.27212 0.88915 0.0
H741 H 0.723 0.31941 0.9517 0.0
H742 H 0.74069 0.35262 0.93505 0.0
C743 C 0.74152 0.32402 0.93909 0.0
H744 H 0.73276 0.30811 0.92609 0.0
H745 H 0.74475 0.28387 0.88228 0.0
O746 O 0.91691 0.27673 0.94304 0.0
C747 C 0.84744 0.24965 0.89354 0.0
Co748 Co 0.95801 0.62131 0.17089 0.0
Co749 Co 0.93338 0.55102 0.14947 0.0
C750 C 0.89893 0.62158 0.14106 0.0
O751 O 0.91942 0.63711 0.15336 0.0
O752 O 0.90031 0.58797 0.13838 0.0
C753 C 0.96282 0.69281 0.18543 0.0
O754 O 0.9397 0.69966 0.1713 0.0
C755 C 0.88399 0.49313 0.13982 0.0
C756 C 0.9204 0.4505 0.12977 0.0
C757 C 0.88485 0.45832 0.13296 0.0
N758 N 0.91755 0.50533 0.14078 0.0
N759 N 0.93918 0.47974 0.13472 0.0
C760 C 0.85194 0.51486 0.14498 0.0
H761 H 0.84438 0.53115 0.13187 0.0
H762 H 0.85825 0.5333 0.15741 0.0
H763 H 0.82908 0.49761 0.14901 0.0
C764 C 0.94612 0.57736 0.20631 0.0
N765 N 0.9444 0.58238 0.18652 0.0
N766 N 0.93478 0.55249 0.1778 0.0
C767 C 0.93046 0.52733 0.19191 0.0
C768 C 0.93747 0.54229 0.21033 0.0
C769 C 0.95799 0.60503 0.22089 0.0
H770 H 0.98617 0.61198 0.21788 0.0
H771 H 0.94178 0.6295 0.21892 0.0
H772 H 0.95543 0.59549 0.23646 0.0
O773 O 0.99861 0.60831 0.15409 0.0
O774 O 0.98237 0.55852 0.1386 0.0
H775 H 0.93904 0.47867 0.17599 0.0
H776 H 0.92424 0.47254 0.20137 0.0
C777 C 0.92153 0.48929 0.18785 0.0
H778 H 0.89363 0.48816 0.18267 0.0
H779 H 0.96682 0.48221 0.13404 0.0
O780 O 0.97339 0.66107 0.18821 0.0
C781 C 0.00491 0.58322 0.14184 0.0
Co782 Co 0.62457 0.71628 0.43058 0.0
Co783 Co 0.69057 0.69449 0.40478 0.0
C784 C 0.61849 0.65989 0.39999 0.0
O785 O 0.60585 0.67712 0.41469 0.0
O786 O 0.65058 0.66408 0.39421 0.0
C787 C 0.56087 0.7447 0.43984 0.0
O788 O 0.56094 0.74382 0.42032 0.0
C789 C 0.74811 0.64673 0.39171 0.0
C790 C 0.78556 0.68467 0.37779 0.0
C791 C 0.78072 0.64902 0.38224 0.0
N792 N 0.73423 0.67966 0.39295 0.0
N793 N 0.7567 0.70219 0.38453 0.0
C794 C 0.73034 0.61382 0.39932 0.0
H795 H 0.70803 0.62082 0.40941 0.0
H796 H 0.74989 0.59675 0.40721 0.0
H797 H 0.71982 0.59838 0.38652 0.0
C798 C 0.67343 0.70128 0.46313 0.0
N799 N 0.66583 0.7025 0.44363 0.0
N800 N 0.694 0.69326 0.4332 0.0
C801 C 0.72079 0.68628 0.44598 0.0
C802 C 0.70843 0.69094 0.46524 0.0
C803 C 0.64792 0.71117 0.47929 0.0
H804 H 0.62295 0.69577 0.47745 0.0
H805 H 0.65925 0.70594 0.49426 0.0
H806 H 0.64123 0.73988 0.47798 0.0
O807 O 0.63308 0.75673 0.41251 0.0
O808 O 0.68183 0.74403 0.39538 0.0
H809 H 0.77672 0.68033 0.45264 0.0
H810 H 0.7584 0.64861 0.43537 0.0
C811 C 0.7579 0.67692 0.44006 0.0
H812 H 0.7665 0.69376 0.4274 0.0
H813 H 0.75246 0.7296 0.38352 0.0
O814 O 0.58751 0.73266 0.44924 0.0
C815 C 0.65603 0.76478 0.39939 0.0
Co816 Co 0.46386 0.36247 0.17754 0.0
Co817 Co 0.43365 0.43052 0.1565 0.0
C818 C 0.4011 0.36023 0.14898 0.0
O819 O 0.4246 0.34597 0.16008 0.0
O820 O 0.39928 0.39394 0.14686 0.0
C821 C 0.46162 0.30346 0.20563 0.0
O822 O 0.43113 0.31662 0.21175 0.0
C823 C 0.38629 0.49094 0.14692 0.0
C824 C 0.42459 0.53027 0.13506 0.0
C825 C 0.38892 0.52514 0.13925 0.0
N826 N 0.41903 0.47649 0.14734 0.0
N827 N 0.44176 0.50015 0.1402 0.0
C828 C 0.35328 0.472 0.15335 0.0
H829 H 0.34058 0.45971 0.14012 0.0
H830 H 0.35989 0.45058 0.16413 0.0
H831 H 0.33402 0.49094 0.16005 0.0
C832 C 0.45348 0.40644 0.21316 0.0
N833 N 0.44983 0.40095 0.19352 0.0
N834 N 0.43634 0.42936 0.18506 0.0
C835 C 0.42917 0.45351 0.19935 0.0
C836 C 0.43679 0.43878 0.21813 0.0
C837 C 0.48225 0.3874 0.22439 0.0
H838 H 0.5023 0.37693 0.21376 0.0
H839 H 0.47114 0.36427 0.2325 0.0
H840 H 0.4963 0.40553 0.23477 0.0
O841 O 0.50337 0.37575 0.16068 0.0
O842 O 0.4806 0.42023 0.14307 0.0
H843 H 0.4296 0.50979 0.2071 0.0
H844 H 0.39371 0.49531 0.19097 0.0
C845 C 0.42223 0.49192 0.19465 0.0
H846 H 0.43819 0.50008 0.18159 0.0
H847 H 0.46908 0.49577 0.13892 0.0
O848 O 0.47966 0.32001 0.19262 0.0
C849 C 0.50576 0.39841 0.14675 0.0
Co850 Co 0.37476 0.71347 0.93439 0.0
Co851 Co 0.31044 0.68819 0.90851 0.0
C852 C 0.38389 0.65351 0.90716 0.0
O853 O 0.39415 0.66984 0.9227 0.0
O854 O 0.35276 0.65839 0.89998 0.0
C855 C 0.44195 0.72481 0.95224 0.0
O856 O 0.44806 0.69211 0.94623 0.0
C857 C 0.25585 0.63624 0.89613 0.0
C858 C 0.21711 0.67131 0.88099 0.0
C859 C 0.22361 0.63623 0.88616 0.0
N860 N 0.26791 0.66993 0.89692 0.0
N861 N 0.2446 0.69073 0.88783 0.0
C862 C 0.27514 0.6048 0.90446 0.0
H863 H 0.28831 0.59025 0.89211 0.0
H864 H 0.29562 0.61355 0.91531 0.0
H865 H 0.25618 0.58623 0.9117 0.0
C866 C 0.3244 0.70478 0.96674 0.0
N867 N 0.33275 0.70348 0.94737 0.0
N868 N 0.30528 0.69229 0.93696 0.0
C869 C 0.2781 0.68644 0.94968 0.0
C870 C 0.28952 0.69405 0.96887 0.0
C871 C 0.34963 0.71591 0.98279 0.0
H872 H 0.37512 0.70131 0.98104 0.0
H873 H 0.3385 0.71081 0.99782 0.0
H874 H 0.35536 0.74477 0.98119 0.0
O875 O 0.36738 0.74797 0.91278 0.0
O876 O 0.31845 0.73536 0.89589 0.0
H877 H 0.23271 0.68862 0.93045 0.0
H878 H 0.22253 0.67713 0.95602 0.0
C879 C 0.24198 0.67381 0.94374 0.0
H880 H 0.24375 0.64514 0.9399 0.0
H881 H 0.24745 0.71825 0.88632 0.0
O882 O 0.41062 0.73733 0.95132 0.0
C883 C 0.34514 0.75525 0.89916 0.0
Co884 Co 0.03748 0.62238 0.67602 0.0
Co885 Co 0.06298 0.55503 0.65219 0.0
C886 C 0.09759 0.62545 0.64621 0.0
O887 O 0.07678 0.63953 0.65893 0.0
O888 O 0.09644 0.59221 0.64239 0.0
C889 C 0.01971 0.69149 0.68648 0.0
O890 O 0.02515 0.69549 0.66731 0.0
C891 C 0.10906 0.49608 0.63859 0.0
C892 C 0.06931 0.45481 0.63109 0.0
C893 C 0.10549 0.46134 0.63193 0.0
N894 N 0.07638 0.50955 0.64175 0.0
N895 N 0.05276 0.48481 0.63708 0.0
C896 C 0.14294 0.51602 0.64202 0.0
H897 H 0.13888 0.53748 0.65316 0.0
H898 H 0.16432 0.49771 0.64703 0.0
H899 H 0.15147 0.52838 0.62781 0.0
C900 C 0.04823 0.57335 0.70982 0.0
N901 N 0.04996 0.58125 0.6903 0.0
N902 N 0.06267 0.55371 0.68049 0.0
C903 C 0.07068 0.52787 0.69361 0.0
C904 C 0.06142 0.5392 0.71256 0.0
C905 C 0.03293 0.59756 0.72529 0.0
H906 H 0.00653 0.60732 0.72029 0.0
H907 H 0.05055 0.62107 0.72704 0.0
H908 H 0.0302 0.58386 0.73984 0.0
O909 O 0.99687 0.61298 0.65869 0.0
O910 O 0.01379 0.56498 0.64182 0.0
H911 H 0.06884 0.47789 0.6785 0.0
H912 H 0.09389 0.47681 0.70147 0.0
C913 C 0.08728 0.49306 0.6882 0.0
H914 H 0.11216 0.49832 0.67992 0.0
H915 H 0.02529 0.4882 0.63831 0.0
O916 O 0.02404 0.66113 0.69439 0.0
C917 C 0.99106 0.58934 0.64553 0.0
Co918 Co 0.11942 0.29339 0.42579 0.0
Co919 Co 0.18871 0.32056 0.4042 0.0
C920 C 0.11981 0.35883 0.39992 0.0
O921 O 0.10423 0.33602 0.41089 0.0
O922 O 0.15314 0.35732 0.39683 0.0
C923 C 0.06025 0.2991 0.45283 0.0
O924 O 0.07221 0.33152 0.45592 0.0
C925 C 0.24624 0.37024 0.39414 0.0
C926 C 0.28943 0.33372 0.38507 0.0
C927 C 0.28132 0.3694 0.38782 0.0
N928 N 0.23427 0.33654 0.39536 0.0
N929 N 0.26016 0.31485 0.38982 0.0
C930 C 0.22421 0.4024 0.39874 0.0
H931 H 0.20898 0.39789 0.41267 0.0
H932 H 0.24082 0.42668 0.40018 0.0
H933 H 0.20477 0.40651 0.38653 0.0
C934 C 0.16808 0.29573 0.4605 0.0
N935 N 0.16069 0.30153 0.44117 0.0
N936 N 0.18954 0.31332 0.43221 0.0
C937 C 0.2159 0.31595 0.44573 0.0
C938 C 0.20309 0.30498 0.46399 0.0
C939 C 0.14289 0.27949 0.47503 0.0
H940 H 0.12228 0.2994 0.47897 0.0
H941 H 0.15662 0.27099 0.48885 0.0
H942 H 0.12987 0.25617 0.46799 0.0
O943 O 0.12882 0.25624 0.40606 0.0
O944 O 0.17711 0.27482 0.38992 0.0
H945 H 0.26998 0.32758 0.45475 0.0
H946 H 0.25177 0.35522 0.43529 0.0
C947 C 0.25293 0.32782 0.44127 0.0
H948 H 0.2648 0.31009 0.42988 0.0
H949 H 0.25795 0.28713 0.38946 0.0
O950 O 0.07777 0.27787 0.44181 0.0
C951 C 0.15197 0.25239 0.39242 0.0
Co952 Co 0.46658 0.61858 0.31606 0.0
Co953 Co 0.43935 0.56102 0.34638 0.0
C954 C 0.40672 0.63478 0.3433 0.0
O955 O 0.42398 0.64121 0.32746 0.0
O956 O 0.41014 0.60507 0.3524 0.0
C957 C 0.4752 0.68226 0.29445 0.0
O958 O 0.44161 0.687 0.29904 0.0
C959 C 0.38747 0.50841 0.36186 0.0
C960 C 0.42294 0.47131 0.37794 0.0
C961 C 0.38786 0.47689 0.3726 0.0
N962 N 0.42097 0.52084 0.36069 0.0
N963 N 0.44194 0.49868 0.37052 0.0
C964 C 0.35588 0.52601 0.3526 0.0
H965 H 0.36444 0.54562 0.34121 0.0
H966 H 0.3381 0.50575 0.34581 0.0
H967 H 0.34061 0.54007 0.36435 0.0
C968 C 0.45637 0.56099 0.28731 0.0
N969 N 0.45538 0.57418 0.3059 0.0
N970 N 0.44282 0.55004 0.31825 0.0
C971 C 0.43524 0.52049 0.30764 0.0
C972 C 0.44352 0.52646 0.28778 0.0
C973 C 0.46896 0.58147 0.26958 0.0
H974 H 0.49616 0.59173 0.27247 0.0
H975 H 0.45133 0.60485 0.2673 0.0
H976 H 0.46911 0.56475 0.25595 0.0
O977 O 0.50225 0.61421 0.33727 0.0
O978 O 0.48707 0.57102 0.35804 0.0
H979 H 0.43541 0.47887 0.32919 0.0
H980 H 0.41825 0.46539 0.30521 0.0
C981 C 0.41947 0.48743 0.31617 0.0
H982 H 0.39198 0.49333 0.32104 0.0
H983 H 0.46944 0.50177 0.37177 0.0
O984 O 0.4893 0.65181 0.29694 0.0
C985 C 0.50858 0.59517 0.35247 0.0
Co986 Co 0.12717 0.70339 0.07795 0.0
Co987 Co 0.19307 0.6803 0.10341 0.0
C988 C 0.1249 0.63892 0.10396 0.0
O989 O 0.11038 0.66067 0.09191 0.0
O990 O 0.15751 0.64193 0.10883 0.0
C991 C 0.05932 0.72125 0.06425 0.0
O992 O 0.05076 0.71226 0.08252 0.0
C993 C 0.2517 0.63351 0.11504 0.0
C994 C 0.28793 0.67015 0.13091 0.0
C995 C 0.28393 0.63503 0.12498 0.0
N996 N 0.23722 0.66625 0.11503 0.0
N997 N 0.25897 0.68805 0.12456 0.0
C998 C 0.23449 0.60142 0.10603 0.0
H999 H 0.21772 0.60935 0.09317 0.0
H1000 H 0.25467 0.58159 0.10127 0.0
H1001 H 0.21706 0.58879 0.11734 0.0
C1002 C 0.17877 0.69851 0.04573 0.0
N1003 N 0.17036 0.69595 0.06509 0.0
N1004 N 0.19877 0.6872 0.07542 0.0
C1005 C 0.22644 0.68409 0.06272 0.0
C1006 C 0.21448 0.69101 0.04359 0.0
C1007 C 0.15295 0.70777 0.02959 0.0
H1008 H 0.14267 0.73512 0.03214 0.0
H1009 H 0.13008 0.68912 0.03015 0.0
H1010 H 0.16544 0.70641 0.01465 0.0
O1011 O 0.13082 0.74096 0.09788 0.0
O1012 O 0.17577 0.72464 0.11738 0.0
H1013 H 0.27123 0.68858 0.08229 0.0
H1014 H 0.28266 0.68028 0.0565 0.0
C1015 C 0.26344 0.67418 0.06856 0.0
H1016 H 0.26417 0.64515 0.07153 0.0
H1017 H 0.2541 0.71517 0.12668 0.0
O1018 O 0.0913 0.71863 0.05853 0.0
C1019 C 0.15042 0.74589 0.11304 0.0
Co1020 Co 0.03159 0.37877 0.82393 0.0
Co1021 Co 0.06339 0.44476 0.8462 0.0
C1022 C 0.09579 0.3721 0.85006 0.0
O1023 O 0.07246 0.35853 0.83857 0.0
O1024 O 0.09608 0.40534 0.854 0.0
C1025 C 0.02807 0.32219 0.79439 0.0
O1026 O 0.06289 0.32486 0.79406 0.0
C1027 C 0.11601 0.49906 0.8575 0.0
C1028 C 0.08166 0.54116 0.87019 0.0
C1029 C 0.11674 0.53254 0.86619 0.0
N1030 N 0.08195 0.4884 0.8563 0.0
N1031 N 0.06157 0.51368 0.86393 0.0
C1032 C 0.147 0.477 0.85097 0.0
H1033 H 0.13993 0.46175 0.83737 0.0
H1034 H 0.17076 0.49379 0.84817 0.0
H1035 H 0.15348 0.45757 0.86288 0.0
C1036 C 0.04191 0.42568 0.78952 0.0
N1037 N 0.04533 0.4189 0.80902 0.0
N1038 N 0.05989 0.44628 0.81794 0.0
C1039 C 0.06772 0.4711 0.80417 0.0
C1040 C 0.05979 0.45764 0.78513 0.0
C1041 C 0.01256 0.40835 0.77783 0.0
H1042 H 0.99102 0.40003 0.78811 0.0
H1043 H 0.02243 0.38401 0.7703 0.0
H1044 H 0.00061 0.42692 0.76689 0.0
O1045 O 0.99468 0.39072 0.84312 0.0
O1046 O 0.01555 0.43799 0.85911 0.0
H1047 H 0.06839 0.52781 0.79756 0.0
H1048 H 0.10359 0.51178 0.81375 0.0
C1049 C 0.07518 0.50907 0.80971 0.0
H1050 H 0.05908 0.51657 0.82287 0.0
H1051 H 0.03389 0.51212 0.8649 0.0
O1052 O 0.01093 0.34181 0.80645 0.0
C1053 C 0.99152 0.41454 0.85642 0.0
Co1054 Co 0.36691 0.27789 0.57356 0.0
Co1055 Co 0.30007 0.30265 0.5975 0.0
C1056 C 0.37085 0.34107 0.60012 0.0
O1057 O 0.38559 0.31962 0.58794 0.0
O1058 O 0.33796 0.33823 0.60456 0.0
C1059 C 0.42736 0.2737 0.54663 0.0
O1060 O 0.43008 0.30828 0.5493 0.0
C1061 C 0.24245 0.35193 0.60776 0.0
C1062 C 0.204 0.31636 0.62274 0.0
C1063 C 0.20941 0.35125 0.61682 0.0
N1064 N 0.25599 0.31881 0.60813 0.0
N1065 N 0.2329 0.29766 0.61712 0.0
C1066 C 0.26111 0.38355 0.59918 0.0
H1067 H 0.27533 0.39772 0.6113 0.0
H1068 H 0.28086 0.37498 0.58787 0.0
H1069 H 0.24171 0.40233 0.59246 0.0
C1070 C 0.31736 0.28674 0.53992 0.0
N1071 N 0.32503 0.28825 0.55946 0.0
N1072 N 0.29637 0.29768 0.56941 0.0
C1073 C 0.26941 0.30212 0.55642 0.0
C1074 C 0.28194 0.29554 0.53741 0.0
C1075 C 0.34348 0.27722 0.524 0.0
H1076 H 0.35392 0.25002 0.52678 0.0
H1077 H 0.36616 0.29608 0.52454 0.0
H1078 H 0.33122 0.27818 0.50899 0.0
O1079 O 0.3586 0.24026 0.59302 0.0
O1080 O 0.31061 0.25547 0.61019 0.0
H1081 H 0.2236 0.29771 0.57525 0.0
H1082 H 0.21352 0.30734 0.54949 0.0
C1083 C 0.23235 0.31256 0.56188 0.0
H1084 H 0.23205 0.34148 0.56518 0.0
H1085 H 0.23683 0.27043 0.61936 0.0
O1086 O 0.4029 0.25729 0.5558 0.0
C1087 C 0.3361 0.23401 0.60666 0.0
C1088 C 0.1445 0.18715 0.38869 0.0
C1089 C 0.14833 0.2207 0.37938 0.0
C1090 C 0.12942 0.19397 0.34784 0.0
C1091 C 0.11743 0.16332 0.35828 0.0
N1092 N 0.11023 0.1331 0.3901 0.0
N1093 N 0.14302 0.25692 0.34979 0.0
C1094 C 0.1247 0.16004 0.37904 0.0
C1095 C 0.14109 0.2243 0.35875 0.0
N1096 N 0.15922 0.18157 0.40701 0.0
N1097 N 0.12982 0.19394 0.32751 0.0
H1098 H 0.15162 0.27982 0.35712 0.0
H1099 H 0.13379 0.26169 0.33542 0.0
H1100 H 0.12253 0.17166 0.31916 0.0
H1101 H 0.14098 0.21441 0.31911 0.0
H1102 H 0.16001 0.15662 0.4138 0.0
H1103 H 0.17406 0.20114 0.41431 0.0
H1104 H 0.1117 0.13236 0.40557 0.0
H1105 H 0.09368 0.1134 0.38442 0.0
C1106 C 0.07719 0.89839 0.64014 0.0
C1107 C 0.04526 0.90613 0.62976 0.0
C1108 C 0.07581 0.89148 0.59864 0.0
C1109 C 0.10324 0.87436 0.60954 0.0
N1110 N 0.12839 0.85985 0.64187 0.0
N1111 N 0.01368 0.90737 0.59822 0.0
C1112 C 0.1041 0.87797 0.63062 0.0
C1113 C 0.04452 0.90277 0.60867 0.0
N1114 N 0.08152 0.91018 0.65922 0.0
N1115 N 0.07958 0.89654 0.57863 0.0
H1116 H 0.9896 0.91467 0.60464 0.0
H1117 H 0.01138 0.90093 0.58319 0.0
H1118 H 0.10277 0.88939 0.57106 0.0
H1119 H 0.06159 0.9113 0.57017 0.0
H1120 H 0.10543 0.90777 0.66696 0.0
H1121 H 0.06247 0.92593 0.66634 0.0
H1122 H 0.12695 0.85862 0.65734 0.0
H1123 H 0.14817 0.84357 0.63603 0.0
C1124 C 0.33885 0.81482 0.88166 0.0
C1125 C 0.35643 0.78168 0.88415 0.0
C1126 C 0.40775 0.80369 0.86596 0.0
C1127 C 0.38927 0.83571 0.86148 0.0
N1128 N 0.33459 0.8695 0.8624 0.0
N1129 N 0.40168 0.74103 0.87269 0.0
C1130 C 0.35395 0.84076 0.86858 0.0
C1131 C 0.38892 0.775 0.8743 0.0
N1132 N 0.30849 0.82176 0.8921 0.0
N1133 N 0.4438 0.80124 0.8635 0.0
H1134 H 0.38757 0.71897 0.8779 0.0
H1135 H 0.42403 0.73462 0.86421 0.0
H1136 H 0.45964 0.82276 0.85928 0.0
H1137 H 0.45845 0.77917 0.86818 0.0
H1138 H 0.29647 0.84676 0.89253 0.0
H1139 H 0.29655 0.80282 0.9013 0.0
H1140 H 0.30772 0.87286 0.86569 0.0
H1141 H 0.34464 0.88849 0.85258 0.0
C1142 C 0.40555 0.08969 0.10967 0.0
C1143 C 0.40867 0.12643 0.10479 0.0
C1144 C 0.4691 0.12699 0.11804 0.0
C1145 C 0.46395 0.09242 0.12588 0.0
N1146 N 0.42693 0.04083 0.13032 0.0
N1147 N 0.44035 0.18212 0.10958 0.0
C1148 C 0.43209 0.07355 0.12195 0.0
C1149 C 0.43971 0.14566 0.11029 0.0
N1150 N 0.37799 0.0702 0.10218 0.0
N1151 N 0.50209 0.14229 0.11834 0.0
H1152 H 0.41829 0.19758 0.10585 0.0
H1153 H 0.46139 0.19721 0.11515 0.0
H1154 H 0.52445 0.12916 0.12388 0.0
H1155 H 0.50782 0.16625 0.11117 0.0
H1156 H 0.37585 0.04271 0.10387 0.0
H1157 H 0.35885 0.08123 0.09278 0.0
H1158 H 0.40278 0.02727 0.12977 0.0
H1159 H 0.44658 0.02815 0.13871 0.0
C1160 C 0.15614 0.80397 0.13209 0.0
C1161 C 0.13738 0.77217 0.12778 0.0
C1162 C 0.08312 0.79723 0.14182 0.0
C1163 C 0.10192 0.8287 0.14734 0.0
N1164 N 0.1586 0.85781 0.15211 0.0
N1165 N 0.08737 0.73419 0.13505 0.0
C1166 C 0.13923 0.83085 0.14382 0.0
C1167 C 0.10241 0.76736 0.135 0.0
N1168 N 0.18943 0.80898 0.12449 0.0
N1169 N 0.04673 0.79643 0.14132 0.0
H1170 H 0.10109 0.71149 0.13034 0.0
H1171 H 0.06299 0.72882 0.14182 0.0
H1172 H 0.03065 0.81846 0.14407 0.0
H1173 H 0.03245 0.77496 0.13557 0.0
H1174 H 0.20289 0.8332 0.12528 0.0
H1175 H 0.20267 0.78934 0.11636 0.0
H1176 H 0.18624 0.85913 0.15135 0.0
H1177 H 0.14732 0.87682 0.16151 0.0
C1178 C 0.42219 0.90832 0.35474 0.0
C1179 C 0.45284 0.917 0.36597 0.0
C1180 C 0.41981 0.9027 0.39636 0.0
C1181 C 0.3939 0.88461 0.38477 0.0
N1182 N 0.37154 0.86934 0.3519 0.0
N1183 N 0.48061 0.92358 0.39825 0.0
C1184 C 0.39467 0.88794 0.36367 0.0
C1185 C 0.45138 0.91544 0.38707 0.0
N1186 N 0.42006 0.91879 0.33532 0.0
N1187 N 0.4142 0.90735 0.41627 0.0
H1188 H 0.50411 0.93354 0.39227 0.0
H1189 H 0.48215 0.91874 0.41348 0.0
H1190 H 0.39092 0.89879 0.42327 0.0
H1191 H 0.43065 0.92283 0.42527 0.0
H1192 H 0.39713 0.91584 0.32675 0.0
H1193 H 0.44003 0.93395 0.3286 0.0
H1194 H 0.37429 0.86768 0.3365 0.0
H1195 H 0.35129 0.85318 0.3573 0.0
C1196 C 0.37167 0.14324 0.61602 0.0
C1197 C 0.37669 0.14363 0.63701 0.0
C1198 C 0.3454 0.20092 0.63915 0.0
C1199 C 0.34098 0.20059 0.61817 0.0
N1200 N 0.3368 0.16537 0.58835 0.0
N1201 N 0.35659 0.1658 0.66877 0.0
C1202 C 0.34939 0.16939 0.60728 0.0
C1203 C 0.35943 0.17012 0.64865 0.0
N1204 N 0.39039 0.12044 0.60408 0.0
N1205 N 0.33881 0.23109 0.64991 0.0
H1206 H 0.3657 0.14293 0.676 0.0
H1207 H 0.34182 0.18286 0.6778 0.0
H1208 H 0.32838 0.2543 0.64376 0.0
H1209 H 0.34595 0.2338 0.66481 0.0
H1210 H 0.39028 0.12232 0.58861 0.0
H1211 H 0.40873 0.10193 0.6093 0.0
H1212 H 0.33973 0.14186 0.58024 0.0
H1213 H 0.32005 0.18418 0.58175 0.0
C1214 C 0.07261 0.10796 0.89294 0.0
C1215 C 0.10011 0.12596 0.88256 0.0
C1216 C 0.07601 0.10267 0.85134 0.0
C1217 C 0.04386 0.09412 0.86118 0.0
N1218 N 0.01128 0.08901 0.89222 0.0
N1219 N 0.12618 0.14246 0.85071 0.0
C1220 C 0.04222 0.09595 0.8823 0.0
C1221 C 0.10203 0.12317 0.86144 0.0
N1222 N 0.0755 0.1026 0.91297 0.0
N1223 N 0.08099 0.09212 0.83209 0.0
H1224 H 0.14477 0.15965 0.85693 0.0
H1225 H 0.12552 0.14401 0.83523 0.0
H1226 H 0.06213 0.07683 0.82451 0.0
H1227 H 0.1051 0.09515 0.82462 0.0
H1228 H 0.05762 0.08709 0.92106 0.0
H1229 H 0.09799 0.11035 0.921 0.0
H1230 H 0.00782 0.09463 0.90728 0.0
H1231 H 0.98828 0.07971 0.88539 0.0
C1232 C 0.89014 0.77714 0.62726 0.0
C1233 C 0.8552 0.78064 0.61974 0.0
C1234 C 0.85278 0.84176 0.63272 0.0
C1235 C 0.88967 0.83963 0.63731 0.0
N1236 N 0.94528 0.80773 0.63307 0.0
N1237 N 0.80339 0.81677 0.61387 0.0
C1238 C 0.90888 0.80794 0.63301 0.0
C1239 C 0.83634 0.81308 0.62213 0.0
N1240 N 0.90556 0.74425 0.62883 0.0
N1241 N 0.83338 0.87045 0.63892 0.0
H1242 H 0.79054 0.79581 0.60662 0.0
H1243 H 0.78982 0.84095 0.61325 0.0
H1244 H 0.84456 0.89146 0.64691 0.0
H1245 H 0.80582 0.872 0.63757 0.0
H1246 H 0.92997 0.74014 0.63583 0.0
H1247 H 0.89218 0.72078 0.62512 0.0
H1248 H 0.9602 0.78591 0.62829 0.0
H1249 H 0.96057 0.83054 0.63538 0.0
C1250 C 0.97441 0.13797 0.38426 0.0
C1251 C 0.96669 0.10645 0.37369 0.0
C1252 C 0.9052 0.1091 0.38575 0.0
C1253 C 0.91149 0.14437 0.39271 0.0
N1254 N 0.95131 0.19544 0.3931 0.0
N1255 N 0.92478 0.06175 0.36353 0.0
C1256 C 0.94603 0.15959 0.39077 0.0
C1257 C 0.93208 0.09168 0.37431 0.0
N1258 N 0.0089 0.1483 0.38702 0.0
N1259 N 0.87419 0.09209 0.39037 0.0
H1260 H 0.94457 0.04787 0.35585 0.0
H1261 H 0.89914 0.05183 0.36155 0.0
H1262 H 0.85465 0.10365 0.39929 0.0
H1263 H 0.86942 0.06544 0.38696 0.0
H1264 H 0.01599 0.16983 0.39599 0.0
H1265 H 0.03032 0.13302 0.38205 0.0
H1266 H 0.97559 0.20778 0.39017 0.0
H1267 H 0.93072 0.21366 0.39517 0.0
C1268 C 0.61735 0.1448 0.1166 0.0
C1269 C 0.61395 0.14666 0.13771 0.0
C1270 C 0.64022 0.20646 0.13733 0.0
C1271 C 0.64493 0.20375 0.11639 0.0
N1272 N 0.64918 0.16581 0.08759 0.0
N1273 N 0.63233 0.17455 0.16836 0.0
C1274 C 0.63742 0.17125 0.10659 0.0
C1275 C 0.62884 0.17596 0.14814 0.0
N1276 N 0.59912 0.11994 0.10576 0.0
N1277 N 0.6441 0.23846 0.14679 0.0
H1278 H 0.62524 0.15211 0.17663 0.0
H1279 H 0.64577 0.19391 0.17655 0.0
H1280 H 0.65159 0.26182 0.13957 0.0
H1281 H 0.63691 0.24245 0.1616 0.0
H1282 H 0.59808 0.12037 0.09026 0.0
H1283 H 0.58181 0.10132 0.11187 0.0
H1284 H 0.64712 0.14131 0.08037 0.0
H1285 H 0.6645 0.1846 0.07999 0.0
C1286 C 0.57864 0.89227 0.89055 0.0
C1287 C 0.60558 0.87532 0.87922 0.0
C1288 C 0.57551 0.89487 0.84882 0.0
C1289 C 0.5446 0.90261 0.86007 0.0
N1290 N 0.51619 0.90678 0.89241 0.0
N1291 N 0.62839 0.85883 0.84662 0.0
C1292 C 0.5461 0.90168 0.8812 0.0
C1293 C 0.60429 0.87686 0.85806 0.0
N1294 N 0.58402 0.89861 0.91033 0.0
N1295 N 0.57707 0.90436 0.82922 0.0
H1296 H 0.64989 0.84468 0.85226 0.0
H1297 H 0.62539 0.85564 0.8313 0.0
H1298 H 0.55646 0.91818 0.82221 0.0
H1299 H 0.60013 0.90208 0.8207 0.0
H1300 H 0.56644 0.91337 0.91905 0.0
H1301 H 0.60797 0.89233 0.91738 0.0
H1302 H 0.51543 0.90222 0.9077 0.0
H1303 H 0.49135 0.91271 0.88646 0.0
C1304 C 0.91155 0.19329 0.86561 0.0
C1305 C 0.89068 0.16395 0.85921 0.0
C1306 C 0.83822 0.19139 0.87487 0.0
C1307 C 0.85888 0.22213 0.87911 0.0
N1308 N 0.91202 0.25623 0.8725 0.0
N1309 N 0.83284 0.13698 0.85534 0.0
C1310 C 0.89447 0.22432 0.87242 0.0
C1311 C 0.85351 0.16341 0.86315 0.0
N1312 N 0.94785 0.19094 0.86622 0.0
N1313 N 0.80467 0.18853 0.88245 0.0
H1314 H 0.84331 0.11628 0.84679 0.0
H1315 H 0.80518 0.13702 0.85615 0.0
H1316 H 0.79275 0.20898 0.89059 0.0
H1317 H 0.78963 0.16527 0.88163 0.0
H1318 H 0.96383 0.2108 0.87239 0.0
H1319 H 0.96167 0.16753 0.86297 0.0
H1320 H 0.93714 0.25954 0.86618 0.0
H1321 H 0.89984 0.28004 0.87679 0.0
C1322 C 0.60152 0.11714 0.62938 0.0
C1323 C 0.59965 0.12245 0.60844 0.0
C1324 C 0.54147 0.09309 0.60748 0.0
C1325 C 0.54302 0.08874 0.62845 0.0
N1326 N 0.57976 0.0833 0.65758 0.0
N1327 N 0.57494 0.10303 0.57717 0.0
C1328 C 0.5751 0.09597 0.63871 0.0
C1329 C 0.57202 0.10597 0.59737 0.0
N1330 N 0.62615 0.13454 0.64077 0.0
N1331 N 0.51043 0.08773 0.59734 0.0
H1332 H 0.59758 0.11145 0.5695 0.0
H1333 H 0.55686 0.08885 0.56848 0.0
H1334 H 0.48723 0.07833 0.60395 0.0
H1335 H 0.50707 0.09498 0.5825 0.0
H1336 H 0.62541 0.13454 0.65627 0.0
H1337 H 0.64553 0.15147 0.63511 0.0
H1338 H 0.6038 0.08525 0.66523 0.0
H1339 H 0.5607 0.06742 0.66459 0.0
C1340 C 0.64005 0.82928 0.39826 0.0
C1341 C 0.6501 0.79798 0.38782 0.0
C1342 C 0.6366 0.82829 0.35649 0.0
C1343 C 0.61835 0.8553 0.36713 0.0
N1344 N 0.60075 0.88021 0.39894 0.0
N1345 N 0.65399 0.76651 0.35629 0.0
C1346 C 0.62009 0.85601 0.38826 0.0
C1347 C 0.64808 0.79728 0.36668 0.0
N1348 N 0.64933 0.8332 0.41779 0.0
N1349 N 0.64256 0.83217 0.33655 0.0
H1350 H 0.66098 0.7424 0.36283 0.0
H1351 H 0.64867 0.76412 0.34112 0.0
H1352 H 0.63508 0.85508 0.32879 0.0
H1353 H 0.65827 0.8146 0.32835 0.0
H1354 H 0.64528 0.85671 0.42573 0.0
H1355 H 0.66456 0.81424 0.42533 0.0
H1356 H 0.59823 0.87909 0.41436 0.0
H1357 H 0.58486 0.89977 0.39251 0.0
C1358 C 0.92555 0.91134 0.12494 0.0
C1359 C 0.96048 0.89728 0.12596 0.0
C1360 C 0.94233 0.84564 0.1067 0.0
C1361 C 0.90789 0.86069 0.10395 0.0
N1362 N 0.86948 0.91207 0.10699 0.0
N1363 N 0.00455 0.85749 0.11237 0.0
C1364 C 0.9002 0.89491 0.11203 0.0
C1365 C 0.96969 0.86692 0.11471 0.0
N1366 N 0.91652 0.93978 0.13654 0.0
N1367 N 0.94836 0.81013 0.1035 0.0
H1368 H 0.02542 0.87248 0.11825 0.0
H1369 H 0.0126 0.83695 0.10292 0.0
H1370 H 0.92822 0.79198 0.1002 0.0
H1371 H 0.97245 0.79778 0.10692 0.0
H1372 H 0.89048 0.94887 0.13811 0.0
H1373 H 0.93516 0.95308 0.14535 0.0
H1374 H 0.8639 0.9382 0.11121 0.0
H1375 H 0.85116 0.90142 0.09699 0.0
C1376 C 0.61294 0.72302 0.85982 0.0
C1377 C 0.64629 0.71666 0.86877 0.0
C1378 C 0.64551 0.65579 0.8555 0.0
C1379 C 0.60909 0.66029 0.8502 0.0
N1380 N 0.55598 0.69723 0.85286 0.0
N1381 N 0.69463 0.67677 0.87599 0.0
C1382 C 0.5922 0.69377 0.85362 0.0
C1383 C 0.66292 0.683 0.86675 0.0
N1384 N 0.60055 0.75709 0.85783 0.0
N1385 N 0.66363 0.62625 0.84934 0.0
H1386 H 0.7083 0.69672 0.88366 0.0
H1387 H 0.70623 0.65161 0.87689 0.0
H1388 H 0.65209 0.60682 0.84033 0.0
H1389 H 0.69087 0.62288 0.85146 0.0
H1390 H 0.57756 0.76326 0.84985 0.0
H1391 H 0.61535 0.77926 0.86226 0.0
H1392 H 0.54282 0.72057 0.85696 0.0
H1393 H 0.53862 0.67591 0.85088 0.0
C1394 C 0.55537 0.33915 0.11274 0.0
C1395 C 0.58767 0.35793 0.10935 0.0
C1396 C 0.56488 0.40771 0.12946 0.0
C1397 C 0.53189 0.38972 0.1311 0.0
N1398 N 0.49245 0.34381 0.11922 0.0
N1399 N 0.62127 0.41252 0.11186 0.0
C1400 C 0.52604 0.35749 0.12078 0.0
C1401 C 0.59196 0.39307 0.11693 0.0
N1402 N 0.5534 0.30308 0.10989 0.0
N1403 N 0.57054 0.43802 0.14023 0.0
H1404 H 0.64119 0.40257 0.10259 0.0
H1405 H 0.62444 0.43929 0.11555 0.0
H1406 H 0.55055 0.4497 0.14883 0.0
H1407 H 0.59523 0.45042 0.14135 0.0
H1408 H 0.53119 0.28801 0.1138 0.0
H1409 H 0.57529 0.28737 0.10618 0.0
H1410 H 0.48648 0.32146 0.11066 0.0
H1411 H 0.47009 0.35695 0.12478 0.0
C1412 C 0.84981 0.30105 0.35949 0.0
C1413 C 0.84589 0.30172 0.38052 0.0
C1414 C 0.87345 0.36071 0.38188 0.0
C1415 C 0.87753 0.36011 0.36083 0.0
N1416 N 0.85766 0.33603 0.32951 0.0
N1417 N 0.84092 0.33755 0.41014 0.0
C1418 C 0.86147 0.3324 0.34962 0.0
C1419 C 0.85311 0.33357 0.39112 0.0
N1420 N 0.84519 0.27018 0.34902 0.0
N1421 N 0.89122 0.38496 0.39336 0.0
H1422 H 0.82524 0.31826 0.41709 0.0
H1423 H 0.84296 0.36142 0.418 0.0
H1424 H 0.90784 0.40465 0.38771 0.0
H1425 H 0.89205 0.3834 0.40884 0.0
H1426 H 0.85185 0.26771 0.33403 0.0
H1427 H 0.83737 0.24622 0.35545 0.0
H1428 H 0.84358 0.31792 0.32078 0.0
H1429 H 0.86525 0.35916 0.32199 0.0
C1430 C 0.89782 0.61876 0.63557 0.0
C1431 C 0.89705 0.61979 0.6144 0.0
C1432 C 0.95618 0.59235 0.61316 0.0
C1433 C 0.95703 0.5917 0.63431 0.0
N1434 N 0.9232 0.59063 0.66473 0.0
N1435 N 0.91905 0.59499 0.58372 0.0
C1436 C 0.92579 0.60006 0.64516 0.0
C1437 C 0.92403 0.60203 0.60346 0.0
N1438 N 0.87414 0.63791 0.64672 0.0
N1439 N 0.98632 0.58671 0.60223 0.0
H1440 H 0.89533 0.60121 0.57641 0.0
H1441 H 0.93664 0.5796 0.57535 0.0
H1442 H 0.01089 0.58039 0.60839 0.0
H1443 H 0.98753 0.5912 0.58694 0.0
H1444 H 0.87679 0.64109 0.66205 0.0
H1445 H 0.85366 0.65319 0.6408 0.0
H1446 H 0.89985 0.59354 0.67295 0.0
H1447 H 0.94314 0.57623 0.67197 0.0
C1448 C 0.64546 0.32254 0.60446 0.0
C1449 C 0.65263 0.29062 0.61495 0.0
C1450 C 0.63488 0.32032 0.6458 0.0
C1451 C 0.61865 0.34789 0.63449 0.0
N1452 N 0.60736 0.37404 0.60202 0.0
N1453 N 0.65389 0.25876 0.64622 0.0
C1454 C 0.62435 0.34936 0.61357 0.0
C1455 C 0.64814 0.28957 0.6359 0.0
N1456 N 0.65811 0.3266 0.58555 0.0
N1457 N 0.63738 0.32355 0.66599 0.0
H1458 H 0.66401 0.23569 0.63974 0.0
H1459 H 0.64651 0.25548 0.66106 0.0
H1460 H 0.62878 0.34633 0.67353 0.0
H1461 H 0.65136 0.3056 0.67487 0.0
H1462 H 0.65629 0.35047 0.57768 0.0
H1463 H 0.67381 0.30718 0.57869 0.0
H1464 H 0.60758 0.37315 0.58653 0.0
H1465 H 0.59055 0.39368 0.60757 0.0
C1466 C 0.96056 0.40929 0.88981 0.0
C1467 C 0.95884 0.4134 0.86883 0.0
C1468 C 0.89885 0.38826 0.86842 0.0
C1469 C 0.90078 0.38306 0.88942 0.0
N1470 N 0.92721 0.40167 0.92039 0.0
N1471 N 0.92174 0.42078 0.84002 0.0
C1472 C 0.92953 0.39823 0.9002 0.0
C1473 C 0.92614 0.40797 0.85888 0.0
N1474 N 0.99204 0.41322 0.89971 0.0
N1475 N 0.87332 0.37195 0.85715 0.0
H1476 H 0.94151 0.4355 0.83284 0.0
H1477 H 0.89741 0.42021 0.83258 0.0
H1478 H 0.8532 0.35595 0.86281 0.0
H1479 H 0.87396 0.3718 0.84165 0.0
H1480 H 0.99536 0.40603 0.91457 0.0
H1481 H 0.01548 0.42147 0.8929 0.0
H1482 H 0.94624 0.41496 0.92889 0.0
H1483 H 0.90429 0.39468 0.92825 0.0
C1484 C 0.85595 0.67098 0.09766 0.0
C1485 C 0.84595 0.70258 0.10781 0.0
C1486 C 0.85591 0.6719 0.13947 0.0
C1487 C 0.87439 0.64443 0.12931 0.0
N1488 N 0.89423 0.61936 0.09791 0.0
N1489 N 0.83946 0.73402 0.13918 0.0
C1490 C 0.87443 0.64381 0.10815 0.0
C1491 C 0.84595 0.70318 0.12897 0.0
N1492 N 0.84797 0.66709 0.07795 0.0
N1493 N 0.84837 0.66822 0.15924 0.0
H1494 H 0.83329 0.75816 0.13241 0.0
H1495 H 0.84335 0.73638 0.15448 0.0
H1496 H 0.85484 0.64517 0.16717 0.0
H1497 H 0.83242 0.68611 0.16707 0.0
H1498 H 0.85197 0.64336 0.07019 0.0
H1499 H 0.83368 0.68628 0.07003 0.0
H1500 H 0.89833 0.62084 0.0826 0.0
H1501 H 0.90901 0.59929 0.10465 0.0
C1502 C 0.59504 0.60484 0.38219 0.0
C1503 C 0.5924 0.64164 0.387 0.0
C1504 C 0.53244 0.64353 0.37338 0.0
C1505 C 0.53635 0.60832 0.36622 0.0
N1506 N 0.57244 0.55585 0.36202 0.0
N1507 N 0.563 0.69803 0.38117 0.0
C1508 C 0.56798 0.5889 0.37014 0.0
C1509 C 0.56239 0.6616 0.3808 0.0
N1510 N 0.62261 0.58513 0.3895 0.0
N1511 N 0.49975 0.65945 0.37364 0.0
H1512 H 0.58558 0.71258 0.38512 0.0
H1513 H 0.54261 0.71364 0.37527 0.0
H1514 H 0.47662 0.64604 0.36944 0.0
H1515 H 0.49516 0.6842 0.38023 0.0
H1516 H 0.62421 0.55754 0.38809 0.0
H1517 H 0.64278 0.59622 0.39818 0.0
H1518 H 0.5963 0.54178 0.36265 0.0
H1519 H 0.55268 0.54344 0.3536 0.0
C1520 C 0.3736 0.33902 0.11659 0.0
C1521 C 0.3771 0.33607 0.13761 0.0
C1522 C 0.35063 0.27633 0.13636 0.0
C1523 C 0.34621 0.27977 0.11543 0.0
N1524 N 0.34231 0.31896 0.08714 0.0
N1525 N 0.35809 0.30706 0.16779 0.0
C1526 C 0.35381 0.3128 0.10611 0.0
C1527 C 0.36183 0.30643 0.14757 0.0
N1528 N 0.39137 0.36486 0.10627 0.0
N1529 N 0.34692 0.24397 0.14544 0.0
H1530 H 0.3652 0.32915 0.17636 0.0
H1531 H 0.34444 0.28745 0.17568 0.0
H1532 H 0.33974 0.22077 0.13797 0.0
H1533 H 0.35406 0.23952 0.16022 0.0
H1534 H 0.39274 0.36526 0.09078 0.0
H1535 H 0.40761 0.38391 0.11289 0.0
H1536 H 0.34446 0.34372 0.08021 0.0
H1537 H 0.32709 0.30046 0.07925 0.0
C1538 C 0.42812 0.58562 0.87248 0.0
C1539 C 0.46257 0.60058 0.87089 0.0
C1540 C 0.44535 0.64981 0.89244 0.0
C1541 C 0.41124 0.63395 0.89536 0.0
N1542 N 0.37343 0.58239 0.89164 0.0
N1543 N 0.50711 0.64014 0.88418 0.0
C1544 C 0.40352 0.60045 0.8864 0.0
C1545 C 0.47222 0.6302 0.88265 0.0
N1546 N 0.41877 0.55783 0.86046 0.0
N1547 N 0.45157 0.68467 0.89732 0.0
H1548 H 0.52767 0.62638 0.87711 0.0
H1549 H 0.51587 0.65963 0.89409 0.0
H1550 H 0.43221 0.70189 0.90275 0.0
H1551 H 0.47492 0.698 0.89353 0.0
H1552 H 0.39285 0.54823 0.85934 0.0
H1553 H 0.43682 0.5457 0.85078 0.0
H1554 H 0.36781 0.55662 0.88681 0.0
H1555 H 0.35585 0.5918 0.90243 0.0
C1556 C 0.15052 0.70819 0.63507 0.0
C1557 C 0.15272 0.70698 0.61397 0.0
C1558 C 0.12376 0.64858 0.61385 0.0
C1559 C 0.12192 0.64947 0.635 0.0
N1560 N 0.14529 0.67398 0.66549 0.0
N1561 N 0.15386 0.67059 0.58446 0.0
C1562 C 0.13942 0.67722 0.64552 0.0
C1563 C 0.14375 0.67513 0.60382 0.0
N1564 N 0.15626 0.73928 0.64518 0.0
N1565 N 0.10417 0.62472 0.60306 0.0
H1566 H 0.16911 0.68949 0.57689 0.0
H1567 H 0.15057 0.64663 0.57682 0.0
H1568 H 0.08727 0.60587 0.60931 0.0
H1569 H 0.10195 0.62601 0.58762 0.0
H1570 H 0.1507 0.74217 0.66029 0.0
H1571 H 0.16369 0.76303 0.63837 0.0
H1572 H 0.16045 0.69216 0.6736 0.0
H1573 H 0.13843 0.65106 0.67341 0.0
C1574 C 0.06864 0.40116 0.40024 0.0
C1575 C 0.09739 0.38574 0.38957 0.0
C1576 C 0.07372 0.41218 0.35904 0.0
C1577 C 0.04087 0.41814 0.36874 0.0
N1578 N 0.00654 0.41763 0.39924 0.0
N1579 N 0.12568 0.37486 0.35752 0.0
C1580 C 0.03828 0.41334 0.38964 0.0
C1581 C 0.10018 0.39151 0.36867 0.0
N1582 N 0.07032 0.4038 0.42048 0.0
N1583 N 0.07903 0.42543 0.34035 0.0
H1584 H 0.14504 0.35798 0.36324 0.0
H1585 H 0.12566 0.37528 0.34201 0.0
H1586 H 0.05984 0.44083 0.33311 0.0
H1587 H 0.10357 0.42445 0.33314 0.0
H1588 H 0.05131 0.41726 0.42892 0.0
H1589 H 0.09276 0.39592 0.42851 0.0
H1590 H 0.00253 0.41 0.41398 0.0
H1591 H 0.9835 0.42659 0.39227 0.0
C1592 C 0.40275 0.69954 0.35346 0.0
C1593 C 0.38694 0.66491 0.35281 0.0
C1594 C 0.33808 0.68688 0.37393 0.0
C1595 C 0.35329 0.72139 0.3735 0.0
N1596 N 0.39323 0.76281 0.35778 0.0
N1597 N 0.3349 0.62854 0.35838 0.0
C1598 C 0.38313 0.7284 0.36139 0.0
C1599 C 0.35311 0.6594 0.36185 0.0
N1600 N 0.43755 0.70475 0.34823 0.0
N1601 N 0.30997 0.68019 0.38623 0.0
H1602 H 0.34436 0.60874 0.34888 0.0
H1603 H 0.30895 0.62422 0.36325 0.0
H1604 H 0.29773 0.7002 0.39458 0.0
H1605 H 0.30019 0.65468 0.38893 0.0
H1606 H 0.45083 0.72879 0.35048 0.0
H1607 H 0.4548 0.68449 0.34402 0.0
H1608 H 0.41277 0.76954 0.34744 0.0
H1609 H 0.37946 0.7847 0.36351 0.0
C1610 C 0.09974 0.60833 0.13466 0.0
C1611 C 0.10144 0.61197 0.11356 0.0
C1612 C 0.042 0.58574 0.11042 0.0
C1613 C 0.03973 0.58386 0.13147 0.0
N1614 N 0.07101 0.57912 0.16254 0.0
N1615 N 0.08084 0.59097 0.08175 0.0
C1616 C 0.0704 0.59008 0.14316 0.0
C1617 C 0.07482 0.59586 0.1016 0.0
N1618 N 0.12388 0.62467 0.14683 0.0
N1619 N 0.01253 0.58073 0.09887 0.0
H1620 H 0.10506 0.59766 0.07512 0.0
H1621 H 0.06353 0.57693 0.07251 0.0
H1622 H 0.98787 0.57331 0.10455 0.0
H1623 H 0.01203 0.58626 0.08368 0.0
H1624 H 0.12041 0.62663 0.16218 0.0
H1625 H 0.14619 0.63835 0.14191 0.0
H1626 H 0.09378 0.58014 0.17137 0.0
H1627 H 0.04975 0.56539 0.16897 0.0
C1628 C 0.14998 0.32172 0.88897 0.0
C1629 C 0.15773 0.29048 0.87799 0.0
C1630 C 0.13844 0.32097 0.84768 0.0
C1631 C 0.12211 0.3478 0.8595 0.0
N1632 N 0.10988 0.3714 0.89248 0.0
N1633 N 0.15898 0.25992 0.84631 0.0
C1634 C 0.12786 0.3482 0.88042 0.0
C1635 C 0.15268 0.29015 0.85707 0.0
N1636 N 0.16287 0.32531 0.90786 0.0
N1637 N 0.14037 0.32506 0.82751 0.0
H1638 H 0.16997 0.23692 0.85241 0.0
H1639 H 0.15131 0.25702 0.8315 0.0
H1640 H 0.13114 0.34791 0.82031 0.0
H1641 H 0.1545 0.30776 0.8183 0.0
H1642 H 0.16047 0.34876 0.91608 0.0
H1643 H 0.1793 0.30607 0.91433 0.0
H1644 H 0.11048 0.36972 0.90795 0.0
H1645 H 0.09156 0.39004 0.88737 0.0
C1646 C 0.42027 0.38578 0.59852 0.0
C1647 C 0.39373 0.36832 0.61001 0.0
C1648 C 0.41916 0.39562 0.63989 0.0
C1649 C 0.4505 0.4038 0.62918 0.0
N1650 N 0.48102 0.40698 0.59755 0.0
N1651 N 0.37015 0.35475 0.64289 0.0
C1652 C 0.45091 0.39983 0.60818 0.0
C1653 C 0.39306 0.37342 0.63102 0.0
N1654 N 0.41614 0.38888 0.57841 0.0
N1655 N 0.41516 0.40805 0.65886 0.0
H1656 H 0.35178 0.33629 0.63769 0.0
H1657 H 0.3718 0.35499 0.65837 0.0
H1658 H 0.43418 0.42444 0.66554 0.0
H1659 H 0.3916 0.40536 0.6669 0.0
H1660 H 0.43325 0.40375 0.56948 0.0
H1661 H 0.39336 0.37988 0.57107 0.0
H1662 H 0.48399 0.40007 0.58262 0.0
H1663 H 0.5038 0.41802 0.60382 0.0
C1664 C 0.1418 0.93397 0.38648 0.0
C1665 C 0.13826 0.94747 0.36688 0.0
C1666 C 0.1872 0.90919 0.35569 0.0
C1667 C 0.1876 0.89263 0.37463 0.0
N1668 N 0.16307 0.8861 0.40757 0.0
N1669 N 0.15426 0.94501 0.33212 0.0
C1670 C 0.1644 0.90425 0.38996 0.0
C1671 C 0.16023 0.93449 0.35129 0.0
N1672 N 0.12413 0.9501 0.40182 0.0
N1673 N 0.21296 0.90117 0.34204 0.0
H1674 H 0.13485 0.96354 0.32828 0.0
H1675 H 0.16657 0.93336 0.31985 0.0
H1676 H 0.23293 0.88244 0.34468 0.0
H1677 H 0.21639 0.91519 0.32881 0.0
H1678 H 0.12834 0.94384 0.41673 0.0
H1679 H 0.10754 0.9721 0.39978 0.0
H1680 H 0.14403 0.89081 0.41851 0.0
H1681 H 0.17934 0.86429 0.41066 0.0
C1682 C 0.35559 0.92643 0.60575 0.0
C1683 C 0.36537 0.93302 0.62578 0.0
C1684 C 0.32002 0.89087 0.63719 0.0
C1685 C 0.3134 0.88111 0.61716 0.0
N1686 N 0.32895 0.88522 0.5824 0.0
N1687 N 0.36127 0.91737 0.66053 0.0
C1688 C 0.33218 0.89779 0.6014 0.0
C1689 C 0.34868 0.91423 0.64154 0.0
N1690 N 0.36811 0.94797 0.59092 0.0
N1691 N 0.29849 0.87838 0.65202 0.0
H1692 H 0.38271 0.93365 0.66421 0.0
H1693 H 0.35263 0.90147 0.67227 0.0
H1694 H 0.27713 0.86128 0.64937 0.0
H1695 H 0.29977 0.88751 0.66664 0.0
H1696 H 0.35901 0.94672 0.5763 0.0
H1697 H 0.3852 0.96936 0.59359 0.0
H1698 H 0.34482 0.89386 0.57065 0.0
H1699 H 0.31264 0.86378 0.57871 0.0
C1700 C 0.32294 0.08401 0.89312 0.0
C1701 C 0.30778 0.10359 0.87715 0.0
C1702 C 0.34556 0.07144 0.85353 0.0
C1703 C 0.3587 0.05003 0.8693 0.0
N1704 N 0.35437 0.03069 0.9034 0.0
N1705 N 0.2985 0.11023 0.84185 0.0
C1706 C 0.34553 0.05461 0.88889 0.0
C1707 C 0.31712 0.09543 0.85724 0.0
N1708 N 0.31745 0.09465 0.91231 0.0
N1709 N 0.36154 0.0704 0.83529 0.0
H1710 H 0.27717 0.1276 0.84404 0.0
H1711 H 0.30191 0.10256 0.82707 0.0
H1712 H 0.38336 0.05421 0.83226 0.0
H1713 H 0.35545 0.08807 0.82383 0.0
H1714 H 0.33086 0.08373 0.92442 0.0
H1715 H 0.30196 0.11667 0.91596 0.0
H1716 H 0.34274 0.03066 0.91747 0.0
H1717 H 0.37086 0.0088 0.90077 0.0
C1718 C 0.18279 0.07059 0.10377 0.0
C1719 C 0.20053 0.08965 0.11909 0.0
C1720 C 0.16985 0.0539 0.14439 0.0
C1721 C 0.14853 0.03868 0.12919 0.0
N1722 N 0.13438 0.03102 0.09452 0.0
N1723 N 0.21294 0.09912 0.15384 0.0
C1724 C 0.15525 0.04625 0.10887 0.0
C1725 C 0.19493 0.08086 0.13938 0.0
N1726 N 0.19236 0.07572 0.08437 0.0
N1727 N 0.16603 0.0425 0.16359 0.0
H1728 H 0.23323 0.1172 0.15065 0.0
H1729 H 0.2072 0.09748 0.16895 0.0
H1730 H 0.14741 0.0234 0.16775 0.0
H1731 H 0.18278 0.04985 0.1752 0.0
H1732 H 0.18309 0.06037 0.07258 0.0
H1733 H 0.21199 0.09366 0.08014 0.0
H1734 H 0.13453 0.03863 0.07964 0.0
H1735 H 0.11552 0.01141 0.09765 0.0
C1736 C 0.84682 0.05974 0.60041 0.0
C1737 C 0.85954 0.05491 0.62007 0.0
C1738 C 0.81671 0.09918 0.63218 0.0
C1739 C 0.80758 0.10755 0.61229 0.0
N1740 N 0.81743 0.09922 0.57712 0.0
N1741 N 0.86123 0.07484 0.6542 0.0
C1742 C 0.82337 0.08858 0.59626 0.0
C1743 C 0.8456 0.07578 0.63588 0.0
N1744 N 0.85696 0.03663 0.58575 0.0
N1745 N 0.79746 0.11321 0.64757 0.0
H1746 H 0.88347 0.05932 0.65719 0.0
H1747 H 0.85452 0.09214 0.66574 0.0
H1748 H 0.77583 0.1302 0.6454 0.0
H1749 H 0.80069 0.10521 0.6623 0.0
H1750 H 0.8458 0.03659 0.57156 0.0
H1751 H 0.87433 0.01541 0.58829 0.0
H1752 H 0.83115 0.08893 0.56494 0.0
H1753 H 0.8009 0.12053 0.57354 0.0
C1754 C 0.69777 0.09576 0.35502 0.0
C1755 C 0.69913 0.1135 0.37361 0.0
C1756 C 0.65072 0.07579 0.38592 0.0
C1757 C 0.64563 0.06213 0.36646 0.0
N1758 N 0.66173 0.06266 0.33165 0.0
N1759 N 0.67292 0.12462 0.40579 0.0
C1760 C 0.66867 0.07279 0.35077 0.0
C1761 C 0.6747 0.1045 0.38889 0.0
N1762 N 0.72446 0.10064 0.34148 0.0
N1763 N 0.63306 0.06095 0.40164 0.0
H1764 H 0.68904 0.14675 0.40812 0.0
H1765 H 0.65316 0.12153 0.41652 0.0
H1766 H 0.61588 0.03929 0.40006 0.0
H1767 H 0.6383 0.06763 0.4164 0.0
H1768 H 0.72679 0.08568 0.32848 0.0
H1769 H 0.74616 0.1173 0.34415 0.0
H1770 H 0.67514 0.07295 0.31937 0.0
H1771 H 0.64064 0.04608 0.32789 0.0
C1772 C 0.66507 0.92328 0.13872 0.0
C1773 C 0.64248 0.9369 0.12358 0.0
C1774 C 0.67164 0.89849 0.09899 0.0
C1775 C 0.6953 0.8863 0.11397 0.0
N1776 N 0.7201 0.89288 0.1468 0.0
N1777 N 0.62911 0.9435 0.08871 0.0
C1778 C 0.69382 0.90066 0.13343 0.0
C1779 C 0.64734 0.9264 0.10349 0.0
N1780 N 0.6579 0.93026 0.15826 0.0
N1781 N 0.67125 0.88232 0.08077 0.0
H1782 H 0.61123 0.96418 0.09152 0.0
H1783 H 0.63409 0.93949 0.07363 0.0
H1784 H 0.68863 0.86179 0.07697 0.0
H1785 H 0.65199 0.8873 0.07 0.0
H1786 H 0.67102 0.91788 0.17003 0.0
H1787 H 0.63665 0.94604 0.16276 0.0
H1788 H 0.72244 0.90545 0.16056 0.0
H1789 H 0.74155 0.87631 0.14339 0.0
C1790 C 0.83026 0.90589 0.88561 0.0
C1791 C 0.81288 0.88906 0.86939 0.0
C1792 C 0.84693 0.92571 0.84605 0.0
C1793 C 0.86172 0.94479 0.8623 0.0
N1794 N 0.86191 0.95798 0.89741 0.0
N1795 N 0.79919 0.88779 0.83433 0.0
C1796 C 0.85157 0.93644 0.88206 0.0
C1797 C 0.81949 0.90051 0.84964 0.0
N1798 N 0.82795 0.89163 0.90426 0.0
N1799 N 0.86039 0.93014 0.82734 0.0
H1800 H 0.77871 0.86941 0.83641 0.0
H1801 H 0.80047 0.89795 0.81993 0.0
H1802 H 0.88137 0.94737 0.82428 0.0
H1803 H 0.85314 0.91427 0.81528 0.0
H1804 H 0.84291 0.90071 0.91629 0.0
H1805 H 0.81381 0.8684 0.90727 0.0
H1806 H 0.85238 0.95515 0.91188 0.0
H1807 H 0.87731 0.9808 0.89531 0.0
C1808 C 0.67244 0.41023 0.89531 0.0
C1809 C 0.69286 0.395 0.8797 0.0
C1810 C 0.66 0.43036 0.85524 0.0
C1811 C 0.64104 0.44723 0.87092 0.0
N1812 N 0.63452 0.45893 0.90598 0.0
N1813 N 0.71201 0.39642 0.84549 0.0
C1814 C 0.64899 0.43896 0.89101 0.0
C1815 C 0.68853 0.40698 0.85987 0.0
N1816 N 0.67416 0.39617 0.91403 0.0
N1817 N 0.64955 0.43501 0.83596 0.0
H1818 H 0.73334 0.37939 0.84838 0.0
H1819 H 0.71236 0.40718 0.83121 0.0
H1820 H 0.62832 0.45126 0.832 0.0
H1821 H 0.6598 0.42031 0.82412 0.0
H1822 H 0.65709 0.40359 0.92552 0.0
H1823 H 0.6907 0.37488 0.91767 0.0
H1824 H 0.64202 0.45646 0.92083 0.0
H1825 H 0.61744 0.48033 0.90332 0.0
C1826 C 0.82351 0.39448 0.10594 0.0
C1827 C 0.8016 0.38236 0.12174 0.0
C1828 C 0.83477 0.41949 0.14519 0.0
C1829 C 0.85462 0.4339 0.12911 0.0
N1830 N 0.8624 0.44098 0.09371 0.0
N1831 N 0.78129 0.38864 0.15557 0.0
C1832 C 0.84722 0.42325 0.10931 0.0
C1833 C 0.80558 0.39664 0.14111 0.0
N1834 N 0.82312 0.3773 0.08803 0.0
N1835 N 0.84495 0.42595 0.16435 0.0
H1836 H 0.75956 0.37193 0.15308 0.0
H1837 H 0.78085 0.40114 0.16941 0.0
H1838 H 0.86702 0.44141 0.16787 0.0
H1839 H 0.8337 0.41323 0.1766 0.0
H1840 H 0.84112 0.38269 0.07663 0.0
H1841 H 0.80715 0.3552 0.08529 0.0
H1842 H 0.85521 0.43658 0.07894 0.0
H1843 H 0.87959 0.46253 0.09562 0.0
C1844 C 0.83978 0.58545 0.35341 0.0
C1845 C 0.85962 0.56961 0.36905 0.0
C1846 C 0.82805 0.60629 0.39343 0.0
C1847 C 0.80639 0.6201 0.37797 0.0
N1848 N 0.78662 0.6178 0.34388 0.0
N1849 N 0.8676 0.55908 0.40416 0.0
C1850 C 0.81066 0.60804 0.35813 0.0
C1851 C 0.85215 0.5782 0.38915 0.0
N1852 N 0.8498 0.58036 0.33407 0.0
N1853 N 0.82693 0.62119 0.41197 0.0
H1854 H 0.88521 0.5381 0.40156 0.0
H1855 H 0.86038 0.56178 0.41905 0.0
H1856 H 0.81032 0.64247 0.41551 0.0
H1857 H 0.84476 0.61473 0.42327 0.0
H1858 H 0.83872 0.59425 0.32217 0.0
H1859 H 0.87141 0.56457 0.33005 0.0
H1860 H 0.78628 0.60691 0.32962 0.0
H1861 H 0.76498 0.6344 0.34684 0.0
C1862 C 0.64888 0.57613 0.64717 0.0
C1863 C 0.63181 0.55943 0.63079 0.0
C1864 C 0.66492 0.59767 0.60783 0.0
C1865 C 0.68469 0.61158 0.62405 0.0
N1866 N 0.70012 0.60922 0.65886 0.0
N1867 N 0.62885 0.54911 0.59539 0.0
C1868 C 0.67811 0.59929 0.64365 0.0
C1869 C 0.64149 0.56859 0.61106 0.0
N1870 N 0.63606 0.5714 0.66599 0.0
N1871 N 0.66707 0.6134 0.58955 0.0
H1872 H 0.61198 0.52727 0.59719 0.0
H1873 H 0.63786 0.55243 0.58085 0.0
H1874 H 0.68259 0.63586 0.58691 0.0
H1875 H 0.65066 0.60656 0.57766 0.0
H1876 H 0.64518 0.58572 0.67825 0.0
H1877 H 0.61388 0.55574 0.66902 0.0
H1878 H 0.69873 0.59817 0.67305 0.0
H1879 H 0.72188 0.62608 0.65683 0.0
C1880 C 0.32926 0.59111 0.1125 0.0
C1881 C 0.30958 0.60567 0.12858 0.0
C1882 C 0.34322 0.56865 0.15195 0.0
C1883 C 0.3602 0.5515 0.13568 0.0
N1884 N 0.36411 0.54142 0.1003 0.0
N1885 N 0.29289 0.60357 0.16322 0.0
C1886 C 0.35157 0.5612 0.11588 0.0
C1887 C 0.31504 0.59298 0.14821 0.0
N1888 N 0.32802 0.60689 0.0942 0.0
N1889 N 0.35515 0.56313 0.17089 0.0
H1890 H 0.27181 0.62123 0.16103 0.0
H1891 H 0.29339 0.59232 0.17739 0.0
H1892 H 0.37649 0.54642 0.17413 0.0
H1893 H 0.3462 0.57768 0.18311 0.0
H1894 H 0.34451 0.59956 0.08243 0.0
H1895 H 0.31308 0.6297 0.09139 0.0
H1896 H 0.35576 0.54516 0.08567 0.0
H1897 H 0.38021 0.51903 0.10222 0.0
C1898 C 0.16751 0.57227 0.85602 0.0
C1899 C 0.1479 0.55495 0.87125 0.0
C1900 C 0.17927 0.58971 0.89658 0.0
C1901 C 0.2001 0.60573 0.88142 0.0
N1902 N 0.22011 0.60624 0.84736 0.0
N1903 N 0.14121 0.54044 0.90598 0.0
C1904 C 0.19618 0.595 0.86133 0.0
C1905 C 0.1558 0.56151 0.89154 0.0
N1906 N 0.1576 0.56861 0.83657 0.0
N1907 N 0.18038 0.60269 0.91556 0.0
H1908 H 0.12424 0.5192 0.90276 0.0
H1909 H 0.14867 0.54176 0.92089 0.0
H1910 H 0.19677 0.62375 0.91976 0.0
H1911 H 0.1629 0.59466 0.92671 0.0
H1912 H 0.16837 0.58373 0.82506 0.0
H1913 H 0.13651 0.55253 0.83211 0.0
H1914 H 0.22066 0.59651 0.83284 0.0
H1915 H 0.2416 0.62272 0.85081 0.0
C1916 C 0.16427 0.39541 0.60441 0.0
C1917 C 0.18474 0.38135 0.62032 0.0
C1918 C 0.15208 0.41847 0.64396 0.0
C1919 C 0.13386 0.4349 0.6279 0.0
N1920 N 0.12704 0.44375 0.59258 0.0
N1921 N 0.20351 0.38462 0.65458 0.0
C1922 C 0.14138 0.42486 0.60801 0.0
C1923 C 0.18035 0.39454 0.63991 0.0
N1924 N 0.16535 0.37958 0.58612 0.0
N1925 N 0.14117 0.42421 0.66307 0.0
H1926 H 0.22467 0.36716 0.65213 0.0
H1927 H 0.20376 0.39628 0.66865 0.0
H1928 H 0.11953 0.44031 0.66653 0.0
H1929 H 0.15112 0.41019 0.67523 0.0
H1930 H 0.14832 0.38635 0.5745 0.0
H1931 H 0.18107 0.35737 0.58312 0.0
H1932 H 0.13446 0.43996 0.5778 0.0
H1933 H 0.11003 0.46539 0.59471 0.0
C1934 C 0.34759 0.4278 0.36086 0.0
C1935 C 0.35822 0.45164 0.37612 0.0
C1936 C 0.31847 0.42145 0.39951 0.0
C1937 C 0.30563 0.3997 0.38375 0.0
N1938 N 0.3017 0.38845 0.34848 0.0
N1939 N 0.34914 0.47575 0.40896 0.0
C1940 C 0.31819 0.40491 0.3641 0.0
C1941 C 0.34208 0.44999 0.39513 0.0
N1942 N 0.36677 0.42547 0.34367 0.0
N1943 N 0.30975 0.41375 0.41875 0.0
H1944 H 0.36661 0.49681 0.40627 0.0
H1945 H 0.33538 0.47796 0.42236 0.0
H1946 H 0.29319 0.39266 0.42258 0.0
H1947 H 0.32137 0.42626 0.43097 0.0
H1948 H 0.36223 0.40615 0.33283 0.0
H1949 H 0.38977 0.44022 0.34132 0.0
H1950 H 0.30768 0.39406 0.33367 0.0
H1951 H 0.27955 0.37201 0.35025 0.0
C1952 C 0.04976 0.04263 0.2478 0.0
C1953 C 0.0449 0.02631 0.26664 0.0
C1954 C 0.04607 0.96834 0.25038 0.0
C1955 C 0.04356 0.98486 0.23148 0.0
N1956 N 0.03215 0.03956 0.21338 0.0
N1957 N 0.02613 0.97317 0.28425 0.0
C1958 C 0.0422 0.02263 0.23044 0.0
C1959 C 0.03932 0.98897 0.26753 0.0
N1960 N 0.06284 0.07641 0.24626 0.0
N1961 N 0.05618 0.93358 0.25219 0.0
H1962 H 0.01753 0.98776 0.29656 0.0
H1963 H 0.01985 0.9461 0.28476 0.0
H1964 H 0.06452 0.9184 0.24004 0.0
H1965 H 0.06025 0.92158 0.26601 0.0
H1966 H 0.06882 0.08806 0.23257 0.0
H1967 H 0.07155 0.09089 0.25858 0.0
H1968 H 0.0287 0.06712 0.21268 0.0
H1969 H 0.02327 0.02585 0.20083 0.0
C1970 C 0.23642 0.83698 0.50437 0.0
C1971 C 0.2277 0.80392 0.51334 0.0
C1972 C 0.25306 0.77179 0.48495 0.0
C1973 C 0.26463 0.80469 0.47688 0.0
N1974 N 0.27179 0.86833 0.4798 0.0
N1975 N 0.23212 0.73981 0.514 0.0
C1976 C 0.25751 0.83727 0.48682 0.0
C1977 C 0.23719 0.77126 0.50413 0.0
N1978 N 0.22368 0.86801 0.51233 0.0
N1979 N 0.25649 0.74119 0.47407 0.0
H1980 H 0.22046 0.73832 0.52806 0.0
H1981 H 0.24204 0.71547 0.50904 0.0
H1982 H 0.26831 0.74053 0.46002 0.0
H1983 H 0.2451 0.717 0.47818 0.0
H1984 H 0.22579 0.89265 0.50531 0.0
H1985 H 0.20841 0.86885 0.52529 0.0
H1986 H 0.27096 0.89232 0.48757 0.0
H1987 H 0.28692 0.86968 0.46681 0.0
C1988 C 0.4765 0.00353 0.73887 0.0
C1989 C 0.44476 0.01486 0.72943 0.0
C1990 C 0.40897 0.98633 0.75532 0.0
C1991 C 0.44076 0.97699 0.76538 0.0
N1992 N 0.50434 0.98254 0.76917 0.0
N1993 N 0.38109 0.02263 0.72987 0.0
C1994 C 0.47445 0.98734 0.75788 0.0
C1995 C 0.41101 0.00788 0.738 0.0
N1996 N 0.50848 0.00717 0.72938 0.0
N1997 N 0.37701 0.97371 0.76199 0.0
H1998 H 0.38159 0.03836 0.71707 0.0
H1999 H 0.35617 0.02169 0.73661 0.0
H2000 H 0.37446 0.95843 0.77489 0.0
H2001 H 0.35334 0.97619 0.75408 0.0
H2002 H 0.53201 0.9958 0.73454 0.0
H2003 H 0.51113 0.01908 0.71544 0.0
H2004 H 0.5291 0.99298 0.76541 0.0
H2005 H 0.50387 0.97084 0.78324 0.0
C2006 C 0.2322 0.15719 0.9879 0.0
C2007 C 0.22483 0.19063 0.979 0.0
C2008 C 0.25016 0.2216 0.00769 0.0
C2009 C 0.26102 0.18829 0.01553 0.0
N2010 N 0.2662 0.12446 0.0125 0.0
N2011 N 0.23078 0.25466 0.97872 0.0
C2012 C 0.25297 0.15602 0.00553 0.0
C2013 C 0.2348 0.2229 0.98844 0.0
N2014 N 0.21863 0.12669 0.97974 0.0
N2015 N 0.2538 0.25186 0.01886 0.0
H2016 H 0.21954 0.25673 0.96457 0.0
H2017 H 0.24118 0.27862 0.98392 0.0
H2018 H 0.26487 0.25186 0.03309 0.0
H2019 H 0.24302 0.27637 0.01481 0.0
H2020 H 0.21984 0.10191 0.98667 0.0
H2021 H 0.20359 0.12654 0.96669 0.0
H2022 H 0.26473 0.10059 0.00465 0.0
H2023 H 0.28096 0.12248 0.0256 0.0
C2024 C 0.91192 0.98347 0.74014 0.0
C2025 C 0.93688 0.99265 0.72507 0.0
C2026 C 0.94465 0.05032 0.7409 0.0
C2027 C 0.93009 0.03663 0.75861 0.0
N2028 N 0.8767 0.00573 0.76771 0.0
N2029 N 0.97828 0.03606 0.71165 0.0
C2030 C 0.90671 0.00734 0.75635 0.0
C2031 C 0.95373 0.02644 0.72559 0.0
N2032 N 0.89324 0.95233 0.739 0.0
N2033 N 0.9424 0.08578 0.73694 0.0
H2034 H 0.98678 0.01897 0.70037 0.0
H2035 H 0.99208 0.06015 0.71256 0.0
H2036 H 0.92815 0.10279 0.74631 0.0
H2037 H 0.94998 0.09663 0.72328 0.0
H2038 H 0.87795 0.94256 0.75072 0.0
H2039 H 0.89433 0.93546 0.72669 0.0
H2040 H 0.85674 0.98683 0.76572 0.0
H2041 H 0.87 0.0263 0.77749 0.0
C2042 C 0.73099 0.23373 0.50547 0.0
C2043 C 0.72018 0.20018 0.513 0.0
C2044 C 0.74878 0.16981 0.48509 0.0
C2045 C 0.75747 0.20351 0.4769 0.0
N2046 N 0.75077 0.26742 0.47682 0.0
N2047 N 0.71287 0.13681 0.50868 0.0
C2048 C 0.74669 0.23549 0.48635 0.0
C2049 C 0.72727 0.16832 0.5024 0.0
N2050 N 0.72737 0.26372 0.51688 0.0
N2051 N 0.7623 0.13936 0.47683 0.0
H2052 H 0.69728 0.13467 0.52147 0.0
H2053 H 0.71391 0.11337 0.5004 0.0
H2054 H 0.77804 0.13932 0.46405 0.0
H2055 H 0.76022 0.11437 0.48345 0.0
H2056 H 0.73835 0.28825 0.51305 0.0
H2057 H 0.71589 0.26353 0.53101 0.0
H2058 H 0.74014 0.29125 0.48211 0.0
H2059 H 0.76196 0.26964 0.46267 0.0
C2060 C 0.55029 0.97146 0.23098 0.0
C2061 C 0.56277 0.007 0.22943 0.0
C2062 C 0.5907 0.00062 0.26226 0.0
C2063 C 0.57094 0.96887 0.26504 0.0
N2064 N 0.56774 0.91579 0.24527 0.0
N2065 N 0.60045 0.05381 0.2425 0.0
C2066 C 0.56062 0.95109 0.24754 0.0
C2067 C 0.58486 0.0212 0.24474 0.0
N2068 N 0.52844 0.95692 0.21696 0.0
N2069 N 0.6186 0.00774 0.27461 0.0
H2070 H 0.59976 0.06803 0.22919 0.0
H2071 H 0.613 0.06723 0.25411 0.0
H2072 H 0.62662 0.98956 0.28547 0.0
H2073 H 0.63619 0.02884 0.27255 0.0
H2074 H 0.5178 0.93139 0.21859 0.0
H2075 H 0.51867 0.97127 0.20485 0.0
H2076 H 0.56332 0.90231 0.23191 0.0
H2077 H 0.58257 0.90195 0.25591 0.0
C2078 C 0.76024 0.77032 0.00056 0.0
C2079 C 0.76928 0.80332 0.00949 0.0
C2080 C 0.74134 0.83563 0.98201 0.0
C2081 C 0.73537 0.80266 0.97226 0.0
N2082 N 0.74393 0.73907 0.97038 0.0
N2083 N 0.77288 0.86743 0.008 0.0
C2084 C 0.74623 0.77009 0.981 0.0
C2085 C 0.76099 0.83607 5e-05 0.0
N2086 N 0.7641 0.73932 0.01104 0.0
N2087 N 0.72738 0.86634 0.97431 0.0
H2088 H 0.78681 0.86882 0.0214 0.0
H2089 H 0.7712 0.89181 0.00067 0.0
H2090 H 0.71339 0.86714 0.96092 0.0
H2091 H 0.72737 0.89057 0.98186 0.0
H2092 H 0.75454 0.71482 0.0061 0.0
H2093 H 0.774 0.7385 0.02553 0.0
H2094 H 0.75493 0.71507 0.97515 0.0
H2095 H 0.73367 0.73788 0.95598 0.0
C2096 C 0.57383 0.51833 0.75156 0.0
C2097 C 0.55014 0.50696 0.7668 0.0
C2098 C 0.54519 0.44954 0.75021 0.0
C2099 C 0.55833 0.4649 0.73255 0.0
N2100 N 0.60961 0.4993 0.72351 0.0
N2101 N 0.51293 0.46023 0.78048 0.0
C2102 C 0.57998 0.49546 0.73502 0.0
C2103 C 0.53563 0.47211 0.7661 0.0
N2104 N 0.59063 0.55049 0.75289 0.0
N2105 N 0.54932 0.41402 0.7535 0.0
H2106 H 0.50456 0.47609 0.79235 0.0
H2107 H 0.50045 0.43545 0.77949 0.0
H2108 H 0.56422 0.39833 0.74374 0.0
H2109 H 0.54288 0.40199 0.76703 0.0
H2110 H 0.60467 0.56172 0.74109 0.0
H2111 H 0.58925 0.56668 0.76548 0.0
H2112 H 0.62847 0.51926 0.72564 0.0
H2113 H 0.61738 0.47956 0.71345 0.0
C2114 C 0.73935 0.33409 0.00912 0.0
C2115 C 0.73285 0.30036 0.01789 0.0
C2116 C 0.76192 0.27047 0.98996 0.0
C2117 C 0.7709 0.30426 0.98199 0.0
N2118 N 0.7733 0.36824 0.98512 0.0
N2119 N 0.7429 0.23692 0.01885 0.0
C2120 C 0.76107 0.33614 0.99189 0.0
C2121 C 0.74562 0.26864 0.00895 0.0
N2122 N 0.72384 0.36399 0.0169 0.0
N2123 N 0.76797 0.24024 0.97909 0.0
H2124 H 0.73097 0.23458 0.0328 0.0
H2125 H 0.75508 0.21352 0.01405 0.0
H2126 H 0.7799 0.24053 0.96508 0.0
H2127 H 0.75853 0.21521 0.98318 0.0
H2128 H 0.72427 0.38872 0.00989 0.0
H2129 H 0.70811 0.36362 0.02969 0.0
H2130 H 0.77034 0.39202 0.99292 0.0
H2131 H 0.78893 0.3708 0.97237 0.0
C2132 C 0.97558 0.50119 0.25738 0.0
C2133 C 0.94428 0.48726 0.26617 0.0
C2134 C 0.90818 0.51253 0.23935 0.0
C2135 C 0.93979 0.52359 0.22966 0.0
N2136 N 0.00389 0.52302 0.22742 0.0
N2137 N 0.88143 0.47473 0.26446 0.0
C2138 C 0.97364 0.51646 0.23811 0.0
C2139 C 0.9107 0.49155 0.25686 0.0
N2140 N 0.00696 0.50064 0.26766 0.0
N2141 N 0.87581 0.52292 0.23209 0.0
H2142 H 0.88221 0.45932 0.27737 0.0
H2143 H 0.85703 0.47363 0.25716 0.0
H2144 H 0.87296 0.53811 0.21919 0.0
H2145 H 0.85197 0.51899 0.23965 0.0
H2146 H 0.02977 0.51391 0.26293 0.0
H2147 H 0.00948 0.48938 0.28178 0.0
H2148 H 0.02908 0.51479 0.23193 0.0
H2149 H 0.00362 0.53395 0.21315 0.0
C2150 C 0.75577 0.72067 0.51209 0.0
C2151 C 0.76497 0.68729 0.52048 0.0
C2152 C 0.73573 0.65606 0.49303 0.0
C2153 C 0.72899 0.68944 0.48391 0.0
N2154 N 0.73729 0.75313 0.48271 0.0
N2155 N 0.76812 0.62324 0.51831 0.0
C2156 C 0.74034 0.72169 0.49286 0.0
C2157 C 0.75614 0.65492 0.5108 0.0
N2158 N 0.76088 0.75131 0.52275 0.0
N2159 N 0.72178 0.62564 0.48498 0.0
H2160 H 0.78246 0.62139 0.53156 0.0
H2161 H 0.76602 0.59907 0.51081 0.0
H2162 H 0.70737 0.62543 0.47171 0.0
H2163 H 0.72232 0.60099 0.49206 0.0
H2164 H 0.75116 0.77606 0.51835 0.0
H2165 H 0.77227 0.75164 0.5369 0.0
H2166 H 0.74859 0.77695 0.48751 0.0
H2167 H 0.726 0.75495 0.46857 0.0
C2168 C 0.4564 0.46884 0.27034 0.0
C2169 C 0.43786 0.50174 0.27087 0.0
C2170 C 0.40557 0.48393 0.24077 0.0
C2171 C 0.43008 0.4556 0.23831 0.0
N2172 N 0.4464 0.40848 0.26052 0.0
N2173 N 0.3906 0.53886 0.25788 0.0
C2174 C 0.44709 0.44365 0.25572 0.0
C2175 C 0.41088 0.50875 0.25653 0.0
N2176 N 0.48259 0.46118 0.28371 0.0
N2177 N 0.37509 0.48416 0.22976 0.0
H2178 H 0.39184 0.55623 0.26997 0.0
H2179 H 0.37367 0.54737 0.24658 0.0
H2180 H 0.36897 0.46335 0.22003 0.0
H2181 H 0.35442 0.50225 0.23187 0.0
H2182 H 0.49751 0.43776 0.28277 0.0
H2183 H 0.49099 0.47917 0.29457 0.0
H2184 H 0.45592 0.39884 0.27408 0.0
H2185 H 0.43123 0.39057 0.2522 0.0
C2186 C 0.25787 0.72514 0.99649 0.0
C2187 C 0.26903 0.69275 0.98761 0.0
C2188 C 0.24348 0.65882 0.01523 0.0
C2189 C 0.235 0.69138 0.02485 0.0
N2190 N 0.2389 0.75543 0.02652 0.0
N2191 N 0.27714 0.62908 0.98929 0.0
C2192 C 0.24358 0.72456 0.01601 0.0
C2193 C 0.2631 0.65961 0.99717 0.0
N2194 N 0.26004 0.7563 0.98601 0.0
N2195 N 0.23183 0.62727 0.02305 0.0
H2196 H 0.29104 0.62854 0.97586 0.0
H2197 H 0.27724 0.60471 0.99669 0.0
H2198 H 0.21799 0.62561 0.03648 0.0
H2199 H 0.23361 0.603 0.01561 0.0
H2200 H 0.24889 0.7802 0.99084 0.0
H2201 H 0.27032 0.75772 0.97161 0.0
H2202 H 0.24812 0.78014 0.02173 0.0
H2203 H 0.22847 0.756 0.0409 0.0
C2204 C 0.08781 0.52676 0.74638 0.0
C2205 C 0.06322 0.51783 0.73108 0.0
C2206 C 0.05298 0.46097 0.74734 0.0
C2207 C 0.06768 0.47442 0.76507 0.0
N2208 N 0.12155 0.50431 0.77445 0.0
N2209 N 0.01999 0.47591 0.71801 0.0
C2210 C 0.09179 0.50319 0.76286 0.0
C2211 C 0.04485 0.48488 0.73192 0.0
N2212 N 0.10747 0.55727 0.74516 0.0
N2213 N 0.0545 0.42545 0.74338 0.0
H2214 H 0.01203 0.49319 0.7067 0.0
H2215 H 0.00532 0.45236 0.71904 0.0
H2216 H 0.0684 0.40814 0.75274 0.0
H2217 H 0.04678 0.41477 0.7297 0.0
H2218 H 0.12259 0.567 0.75696 0.0
H2219 H 0.10719 0.57387 0.73273 0.0
H2220 H 0.14201 0.52268 0.77253 0.0
H2221 H 0.12766 0.4837 0.78431 0.0
C2222 C 0.23538 0.26878 0.48953 0.0
C2223 C 0.22302 0.30243 0.48289 0.0
C2224 C 0.25218 0.33181 0.51099 0.0
C2225 C 0.26183 0.29789 0.51855 0.0
N2226 N 0.25809 0.23378 0.51703 0.0
N2227 N 0.2147 0.36538 0.48841 0.0
C2228 C 0.25219 0.26623 0.50838 0.0
C2229 C 0.23 0.33383 0.49394 0.0
N2230 N 0.2319 0.23948 0.47758 0.0
N2231 N 0.26518 0.36206 0.51971 0.0
H2232 H 0.19859 0.36795 0.47585 0.0
H2233 H 0.21558 0.38836 0.49708 0.0
H2234 H 0.28155 0.36165 0.53224 0.0
H2235 H 0.26225 0.38739 0.51362 0.0
H2236 H 0.24387 0.21506 0.48063 0.0
H2237 H 0.21936 0.24025 0.46374 0.0
H2238 H 0.24816 0.20995 0.51135 0.0
H2239 H 0.27048 0.23083 0.53082 0.0
C2240 C 0.96496 0.22562 0.29187 0.0
C2241 C 0.00135 0.22109 0.28727 0.0
C2242 C 0.00606 0.28504 0.28055 0.0
C2243 C 0.97307 0.29019 0.29061 0.0
N2244 N 0.92168 0.26417 0.30707 0.0
N2245 N 0.04971 0.24296 0.26748 0.0
C2246 C 0.95212 0.26021 0.29615 0.0
C2247 C 0.02006 0.24985 0.27858 0.0
N2248 N 0.94256 0.19703 0.29155 0.0
N2249 N 0.02399 0.31386 0.27326 0.0
H2250 H 0.05718 0.21697 0.26384 0.0
H2251 H 0.06466 0.26221 0.26017 0.0
H2252 H 0.01278 0.33921 0.27291 0.0
H2253 H 0.04973 0.31299 0.26762 0.0
H2254 H 0.91511 0.19932 0.29338 0.0
H2255 H 0.95096 0.17202 0.28661 0.0
H2256 H 0.90806 0.24263 0.31321 0.0
H2257 H 0.91176 0.28866 0.31175 0.0
C2258 C 0.99077 0.72805 0.54363 0.0
C2259 C 0.96338 0.74989 0.55148 0.0
C2260 C 0.99744 0.8033 0.54314 0.0
C2261 C 0.02765 0.78136 0.5405 0.0
N2262 N 0.04883 0.72571 0.52761 0.0
N2263 N 0.93768 0.8081 0.55647 0.0
C2264 C 0.02281 0.74445 0.53716 0.0
C2265 C 0.96552 0.78756 0.55016 0.0
N2266 N 0.98706 0.69183 0.54372 0.0
N2267 N -0.00092 0.83851 0.53816 0.0
H2268 H 0.91328 0.79722 0.56072 0.0
H2269 H 0.93921 0.83563 0.55821 0.0
H2270 H 0.02119 0.84922 0.53093 0.0
H2271 H 0.97734 0.85567 0.53871 0.0
H2272 H 0.00752 0.67417 0.54029 0.0
H2273 H 0.96348 0.67927 0.54794 0.0
H2274 H 0.04661 0.69903 0.52358 0.0
H2275 H 0.07138 0.73839 0.52194 0.0
C2276 C 0.46164 0.74944 0.7741 0.0
C2277 C 0.48165 0.77805 0.78222 0.0
C2278 C 0.53132 0.7384 0.78912 0.0
C2279 C 0.51018 0.70876 0.78327 0.0
N2280 N 0.45982 0.68655 0.76495 0.0
N2281 N 0.54124 0.80142 0.78453 0.0
C2282 C 0.4767 0.71448 0.77397 0.0
C2283 C 0.51848 0.77316 0.78543 0.0
N2284 N 0.42874 0.75605 0.76634 0.0
N2285 N 0.56208 0.73396 0.79969 0.0
H2286 H 0.5329 0.82651 0.77971 0.0
H2287 H 0.56876 0.79859 0.78565 0.0
H2288 H 0.57194 0.70928 0.80409 0.0
H2289 H 0.57592 0.75532 0.8059 0.0
H2290 H 0.41074 0.73639 0.76217 0.0
H2291 H 0.4199 0.78197 0.76362 0.0
H2292 H 0.43611 0.68871 0.75709 0.0
H2293 H 0.47106 0.66115 0.76421 0.0
C2294 C 0.47467 0.26331 0.05605 0.0
C2295 C 0.46517 0.23752 0.0415 0.0
C2296 C 0.52125 0.24819 0.02391 0.0
C2297 C 0.52996 0.27456 0.03819 0.0
N2298 N 0.51069 0.31444 0.0643 0.0
N2299 N 0.47551 0.2103 0.00956 0.0
C2300 C 0.50497 0.28484 0.05288 0.0
C2301 C 0.48723 0.23157 0.0247 0.0
N2302 N 0.45693 0.26507 0.07383 0.0
N2303 N 0.54596 0.23838 0.01005 0.0
H2304 H 0.45066 0.19791 0.00982 0.0
H2305 H 0.489 0.20727 0.99613 0.0
H2306 H 0.57028 0.25154 0.00855 0.0
H2307 H 0.54302 0.2165 0.00065 0.0
H2308 H 0.46549 0.28063 0.08572 0.0
H2309 H 0.43614 0.24816 0.07775 0.0
H2310 H 0.4913 0.32515 0.07363 0.0
H2311 H 0.53318 0.33045 0.06301 0.0
C2312 C 0.95299 0.74564 0.20749 0.0
C2313 C 0.97702 0.72234 0.19764 0.0
C2314 C 0.02654 0.75909 0.20903 0.0
C2315 C 0.00235 0.78707 0.21291 0.0
N2316 N 0.94288 0.8049 0.22115 0.0
N2317 N 0.03774 0.70768 0.18848 0.0
C2318 C 0.96555 0.77936 0.21417 0.0
C2319 C 0.01423 0.72873 0.19861 0.0
N2320 N 0.91854 0.73534 0.21046 0.0
N2321 N 0.0609 0.76135 0.21539 0.0
H2322 H 0.03015 0.68579 0.17994 0.0
H2323 H 0.06464 0.71401 0.18711 0.0
H2324 H 0.0694 0.78178 0.2248 0.0
H2325 H 0.07908 0.74055 0.21383 0.0
H2326 H 0.90019 0.75002 0.21867 0.0
H2327 H 0.9091 0.71038 0.20609 0.0
H2328 H 0.91529 0.80305 0.22044 0.0
H2329 H 0.95234 0.82851 0.22747 0.0
C2330 C 0.52764 0.80048 0.44529 0.0
C2331 C 0.53209 0.76409 0.45 0.0
C2332 C 0.47245 0.7626 0.46427 0.0
C2333 C 0.46511 0.79554 0.45483 0.0
N2334 N 0.48635 0.84721 0.43671 0.0
N2335 N 0.5108 0.71056 0.46568 0.0
C2336 C 0.4931 0.81553 0.44601 0.0
C2337 C 0.50542 0.74535 0.46051 0.0
N2338 N 0.55651 0.82024 0.43975 0.0
N2339 N 0.44743 0.74782 0.47646 0.0
H2340 H 0.53514 0.69773 0.46358 0.0
H2341 H 0.4909 0.69411 0.47129 0.0
H2342 H 0.42345 0.76074 0.47953 0.0
H2343 H 0.45176 0.72497 0.4849 0.0
H2344 H 0.5557 0.84777 0.43785 0.0
H2345 H 0.58209 0.80941 0.43912 0.0
H2346 H 0.50474 0.86 0.42759 0.0
H2347 H 0.4619 0.86009 0.4372 0.0
C2348 C 0.46806 0.23851 0.71645 0.0
C2349 C 0.48763 0.20914 0.70916 0.0
C2350 C 0.53967 0.24672 0.70382 0.0
C2351 C 0.51808 0.27728 0.70721 0.0
N2352 N 0.46346 0.30274 0.71966 0.0
N2353 N 0.54613 0.18317 0.7089 0.0
C2354 C 0.48291 0.27326 0.71478 0.0
C2355 C 0.5249 0.21249 0.70706 0.0
N2356 N 0.43652 0.23265 0.72598 0.0
N2357 N 0.57298 0.24988 0.69585 0.0
H2358 H 0.53591 0.15849 0.7132 0.0
H2359 H 0.57382 0.18444 0.70898 0.0
H2360 H 0.58501 0.27417 0.69263 0.0
H2361 H 0.58767 0.22807 0.69087 0.0
H2362 H 0.42141 0.25251 0.73271 0.0
H2363 H 0.42763 0.20694 0.72918 0.0
H2364 H 0.43638 0.3023 0.72284 0.0
H2365 H 0.47455 0.32811 0.7201 0.0
C2366 C 0.03707 0.28212 0.95377 0.0
C2367 C 0.03687 0.24511 0.95786 0.0
C2368 C 0.97511 0.25068 0.96902 0.0
C2369 C 0.97281 0.2835 0.95855 0.0
N2370 N 0.00292 0.33068 0.94037 0.0
N2371 N 0.01 0.19775 0.97669 0.0
C2372 C 0.00423 0.29986 0.95118 0.0
C2373 C 0.00717 0.23045 0.96794 0.0
N2374 N 0.06838 0.30044 0.95293 0.0
N2375 N 0.94678 0.23952 0.9801 0.0
H2376 H 0.03462 0.18549 0.97887 0.0
H2377 H 0.98857 0.18333 0.98224 0.0
H2378 H 0.92409 0.25519 0.98184 0.0
H2379 H 0.94666 0.21665 0.98883 0.0
H2380 H 0.06955 0.32802 0.95117 0.0
H2381 H 0.09251 0.28879 0.95699 0.0
H2382 H 0.02503 0.34089 0.93294 0.0
H2383 H 0.97959 0.34456 0.93734 0.0
C2384 C 0.02006 0.78409 0.70839 0.0
C2385 C 0.98287 0.78938 0.70965 0.0
C2386 C 0.97263 0.72582 0.7046 0.0
C2387 C 0.00863 0.72245 0.69849 0.0
N2388 N 0.06826 0.74592 0.69718 0.0
N2389 N 0.92826 0.763 0.72081 0.0
C2390 C 0.03309 0.75068 0.70162 0.0
C2391 C 0.96044 0.75937 0.71164 0.0
N2392 N 0.0424 0.81082 0.71417 0.0
N2393 N 0.94968 0.69788 0.70235 0.0
H2394 H 0.92071 0.78694 0.72752 0.0
H2395 H 0.91142 0.74171 0.72393 0.0
H2396 H 0.95787 0.67271 0.69761 0.0
H2397 H 0.92227 0.70009 0.70425 0.0
H2398 H 0.06996 0.80836 0.71476 0.0
H2399 H 0.03266 0.83435 0.72045 0.0
H2400 H 0.08682 0.76648 0.69692 0.0
H2401 H 0.07869 0.72117 0.69311 0.0
C2402 C 0.99375 0.30744 0.45362 0.0
C2403 C 0.02443 0.28831 0.45985 0.0
C2404 C 0.98647 0.24024 0.47259 0.0
C2405 C 0.95684 0.25731 0.46372 0.0
N2406 N 0.93036 0.31495 0.45817 0.0
N2407 N 0.04918 0.2433 0.48128 0.0
C2408 C 0.95976 0.29363 0.45833 0.0
C2409 C 0.02052 0.25675 0.47134 0.0
N2410 N 0.99661 0.33719 0.44201 0.0
N2411 N 0.98169 0.2086 0.48225 0.0
H2412 H 0.07351 0.25647 0.48148 0.0
H2413 H 0.04833 0.22127 0.49064 0.0
H2414 H 0.95632 0.199 0.48561 0.0
H2415 H 0.00229 0.1923 0.48713 0.0
H2416 H 0.97465 0.34941 0.43544 0.0
H2417 H 0.02079 0.34797 0.43748 0.0
H2418 H 0.93158 0.34229 0.45549 0.0
H2419 H 0.90587 0.30616 0.46359 0.0
C2420 C 0.45282 0.23711 0.20815 0.0
C2421 C 0.47394 0.26775 0.21212 0.0
C2422 C 0.52419 0.22909 0.22122 0.0
C2423 C 0.50511 0.19978 0.21345 0.0
N2424 N 0.4469 0.17331 0.2124 0.0
N2425 N 0.52785 0.29326 0.2254 0.0
C2426 C 0.46786 0.20289 0.21109 0.0
C2427 C 0.50896 0.26377 0.21991 0.0
N2428 N 0.41971 0.24027 0.19992 0.0
N2429 N 0.55562 0.22319 0.23086 0.0
H2430 H 0.5164 0.31849 0.2261 0.0
H2431 H 0.55482 0.29302 0.22886 0.0
H2432 H 0.56468 0.19745 0.23386 0.0
H2433 H 0.57043 0.24293 0.23788 0.0
H2434 H 0.4054 0.21852 0.19455 0.0
H2435 H 0.40751 0.26457 0.1969 0.0
H2436 H 0.4192 0.17433 0.21228 0.0
H2437 H 0.45729 0.14855 0.21644 0.0
C2438 C 0.5094 0.79526 0.93763 0.0
C2439 C 0.53709 0.78672 0.95105 0.0
C2440 C 0.49745 0.74601 0.96894 0.0
C2441 C 0.47228 0.74967 0.95339 0.0
N2442 N 0.45588 0.77495 0.92148 0.0
N2443 N 0.55815 0.75587 0.98008 0.0
C2444 C 0.47824 0.7741 0.93754 0.0
C2445 C 0.53115 0.76295 0.96708 0.0
N2446 N 0.51331 0.82291 0.92457 0.0
N2447 N 0.48893 0.72643 0.98541 0.0
H2448 H 0.58207 0.76991 0.9798 0.0
H2449 H 0.55731 0.7357 0.99069 0.0
H2450 H 0.46432 0.71389 0.98704 0.0
H2451 H 0.50486 0.72491 0.99805 0.0
H2452 H 0.49259 0.83269 0.91583 0.0
H2453 H 0.53624 0.83843 0.92381 0.0
H2454 H 0.46144 0.78885 0.90844 0.0
H2455 H 0.4332 0.7593 0.92028 0.0
C2456 C 0.01322 0.22883 0.77568 0.0
C2457 C 0.97857 0.22385 0.78375 0.0
C2458 C 0.97205 0.28838 0.78693 0.0
C2459 C 0.00916 0.29202 0.7843 0.0
N2460 N 0.05907 0.2708 0.76539 0.0
N2461 N 0.92468 0.24971 0.79756 0.0
C2462 C 0.02818 0.26372 0.77531 0.0
C2463 C 0.95737 0.25386 0.78895 0.0
N2464 N 0.03203 0.2 0.76906 0.0
N2465 N 0.95085 0.3179 0.78685 0.0
H2466 H 0.9127 0.22512 0.80002 0.0
H2467 H 0.91054 0.27082 0.80381 0.0
H2468 H 0.961 0.34313 0.78365 0.0
H2469 H 0.92316 0.3167 0.78717 0.0
H2470 H 0.05884 0.20076 0.76524 0.0
H2471 H 0.0207 0.17474 0.7678 0.0
H2472 H 0.07377 0.25182 0.75766 0.0
H2473 H 0.06759 0.29684 0.76279 0.0
C2474 C 0.49332 0.20091 0.5452 0.0
C2475 C 0.52408 0.22008 0.53917 0.0
C2476 C 0.48657 0.27026 0.5287 0.0
C2477 C 0.45705 0.2528 0.53743 0.0
N2478 N 0.42977 0.195 0.54097 0.0
N2479 N 0.54859 0.26652 0.51865 0.0
C2480 C 0.45949 0.21584 0.54135 0.0
C2481 C 0.52025 0.25284 0.52877 0.0
N2482 N 0.49595 0.17005 0.5559 0.0
N2483 N 0.48209 0.30297 0.52019 0.0
H2484 H 0.57247 0.25268 0.51746 0.0
H2485 H 0.54766 0.28943 0.50996 0.0
H2486 H 0.45685 0.31327 0.51721 0.0
H2487 H 0.50289 0.31941 0.51574 0.0
H2488 H 0.47392 0.15768 0.5623 0.0
H2489 H 0.52 0.15837 0.55993 0.0
H2490 H 0.43066 0.16738 0.54258 0.0
H2491 H 0.40526 0.20484 0.53616 0.0
C2492 C 0.54207 0.75488 0.30706 0.0
C2493 C 0.53005 0.78201 0.29408 0.0
C2494 C 0.4909 0.73917 0.27739 0.0
C2495 C 0.49806 0.71417 0.29265 0.0
N2496 N 0.52667 0.70071 0.32414 0.0
N2497 N 0.49257 0.80098 0.26701 0.0
C2498 C 0.52317 0.72228 0.30787 0.0
C2499 C 0.50459 0.77436 0.2791 0.0
N2500 N 0.57079 0.76065 0.31913 0.0
N2501 N 0.47111 0.72912 0.26128 0.0
H2502 H 0.5033 0.82652 0.2673 0.0
H2503 H 0.47095 0.79825 0.25745 0.0
H2504 H 0.46099 0.70337 0.25967 0.0
H2505 H 0.46749 0.74508 0.24877 0.0
H2506 H 0.58293 0.7405 0.32736 0.0
H2507 H 0.58464 0.7847 0.31952 0.0
H2508 H 0.54134 0.70768 0.3367 0.0
H2509 H 0.51218 0.67748 0.3262 0.0
C2510 C 0.97364 0.72862 0.03518 0.0
C2511 C 0.97067 0.76617 0.03476 0.0
C2512 C 0.032 0.7724 0.04584 0.0
C2513 C 0.03195 0.73557 0.05077 0.0
N2514 N 0.00604 0.6771 0.04748 0.0
N2515 N 0.00246 0.82017 0.02787 0.0
C2516 C 0.00402 0.713 0.04422 0.0
C2517 C 0.00179 0.78703 0.03619 0.0
N2518 N 0.94754 0.70851 0.02663 0.0
N2519 N 0.0595 0.79381 0.05167 0.0
H2520 H 0.98121 0.82965 0.01938 0.0
H2521 H 0.02518 0.83599 0.02721 0.0
H2522 H 0.08228 0.78413 0.05867 0.0
H2523 H 0.05884 0.82149 0.0506 0.0
H2524 H 0.94846 0.68089 0.02538 0.0
H2525 H 0.92641 0.72034 0.01899 0.0
H2526 H 0.98508 0.65954 0.04504 0.0
H2527 H 0.0288 0.6649 0.05321 0.0
loop_
_geom_bond_atom_site_label_1
_geom_bond_atom_site_label_2
_geom_bond_distance
_geom_bond_site_symmetry_2
_ccdc_geom_bond_type
Co0 O3 1.970 . S
Co0 N17 1.989 . S
Co0 O25 1.967 . S
Co0 O32 1.920 . S
Co1 O4 1.966 . S
Co1 N10 2.022 . S
Co1 N18 1.993 . S
Co1 O26 1.941 . S
C2 O3 1.258 . S
C2 O4 1.263 . S
O3 Co0 1.970 . S
O3 C2 1.258 . S
O4 Co1 1.966 . S
O4 C2 1.263 . S
C5 O6 1.235 . S
C5 O32 1.289 . S
O6 C5 1.235 . S
C7 C9 1.400 1_545 S
C7 N10 1.351 . S
C7 C12 1.501 . S
C8 C9 1.387 . S
C8 N11 1.341 . S
C9 C7 1.400 1_565 S
C9 C8 1.387 . S
N10 Co1 2.022 . S
N10 C7 1.351 . S
N10 N11 1.365 1_545 S
N11 C8 1.341 . S
N11 N10 1.365 1_565 S
N11 H31 0.862 . S
C12 C7 1.501 . S
C12 H13 0.961 . S
C12 H14 0.961 . S
C12 H15 0.960 . S
H13 C12 0.961 . S
H14 C12 0.961 . S
H15 C12 0.960 . S
C16 N17 1.342 . S
C16 C20 1.401 . S
C16 C21 1.499 . S
N17 Co0 1.989 . S
N17 C16 1.342 . S
N17 N18 1.388 . S
N18 Co1 1.993 . S
N18 N17 1.388 . S
N18 C19 1.346 . S
C19 N18 1.346 . S
C19 C20 1.396 . S
C19 C29 1.510 . S
C20 C16 1.401 . S
C20 C19 1.396 . S
C21 C16 1.499 . S
C21 H22 0.959 . S
C21 H23 0.960 . S
C21 H24 0.961 . S
H22 C21 0.959 . S
H23 C21 0.960 . S
H24 C21 0.961 . S
O25 Co0 1.967 . S
O25 C33 1.258 . S
O26 Co1 1.941 . S
O26 C33 1.266 . S
H27 C29 0.959 1_565 S
H28 C29 0.961 . S
C29 C19 1.510 . S
C29 H27 0.959 1_545 S
C29 H28 0.961 . S
C29 H30 0.960 . S
H30 C29 0.960 . S
H31 N11 0.862 . S
O32 Co0 1.920 . S
O32 C5 1.289 . S
C33 O25 1.258 . S
C33 O26 1.266 . S
Co34 O37 1.970 . S
Co34 N51 1.989 . S
Co34 O59 1.967 . S
Co34 O66 1.920 . S
Co35 O38 1.966 . S
Co35 N44 2.022 . S
Co35 N52 1.993 . S
Co35 O60 1.941 . S
C36 O37 1.258 . S
C36 O38 1.263 . S
O37 Co34 1.970 . S
O37 C36 1.258 . S
O38 Co35 1.966 . S
O38 C36 1.263 . S
C39 O40 1.235 . S
C39 O66 1.289 . S
O40 C39 1.235 . S
C41 C43 1.400 . S
C41 N44 1.351 . S
C41 C46 1.501 . S
C42 C43 1.387 . S
C42 N45 1.341 . S
C43 C41 1.400 . S
C43 C42 1.387 . S
N44 Co35 2.022 . S
N44 C41 1.351 . S
N44 N45 1.365 . S
N45 C42 1.341 . S
N45 N44 1.365 . S
N45 H65 0.862 . S
C46 C41 1.501 . S
C46 H47 0.961 . S
C46 H48 0.961 . S
C46 H49 0.960 . S
H47 C46 0.961 . S
H48 C46 0.961 . S
H49 C46 0.960 . S
C50 N51 1.342 . S
C50 C54 1.401 . S
C50 C55 1.499 . S
N51 Co34 1.989 . S
N51 C50 1.342 . S
N51 N52 1.388 . S
N52 Co35 1.993 . S
N52 N51 1.388 . S
N52 C53 1.346 . S
C53 N52 1.346 . S
C53 C54 1.396 . S
C53 C63 1.510 . S
C54 C50 1.401 . S
C54 C53 1.396 . S
C55 C50 1.499 . S
C55 H56 0.959 . S
C55 H57 0.960 . S
C55 H58 0.961 . S
H56 C55 0.959 . S
H57 C55 0.960 . S
H58 C55 0.961 . S
O59 Co34 1.967 . S
O59 C67 1.258 . S
O60 Co35 1.941 . S
O60 C67 1.266 . S
H61 C63 0.959 . S
H62 C63 0.961 . S
C63 C53 1.510 . S
C63 H61 0.959 . S
C63 H62 0.961 . S
C63 H64 0.960 . S
H64 C63 0.960 . S
H65 N45 0.862 . S
O66 Co34 1.920 . S
O66 C39 1.289 . S
C67 O59 1.258 . S
C67 O60 1.266 . S
Co68 O71 1.970 . S
Co68 N85 1.989 . S
Co68 O93 1.967 . S
Co68 O100 1.920 . S
Co69 O72 1.966 . S
Co69 N78 2.022 . S
Co69 N86 1.993 . S
Co69 O94 1.941 . S
C70 O71 1.258 . S
C70 O72 1.263 . S
O71 Co68 1.970 . S
O71 C70 1.258 . S
O72 Co69 1.966 . S
O72 C70 1.263 . S
C73 O74 1.235 . S
C73 O100 1.289 . S
O74 C73 1.235 . S
C75 C77 1.400 1_565 S
C75 N78 1.351 . S
C75 C80 1.501 . S
C76 C77 1.387 . S
C76 N79 1.341 . S
C77 C75 1.400 1_545 S
C77 C76 1.387 . S
N78 Co69 2.022 . S
N78 C75 1.351 . S
N78 N79 1.365 1_565 S
N79 C76 1.341 . S
N79 N78 1.365 1_545 S
N79 H99 0.862 . S
C80 C75 1.501 . S
C80 H81 0.961 . S
C80 H82 0.961 . S
C80 H83 0.960 . S
H81 C80 0.961 . S
H82 C80 0.961 . S
H83 C80 0.960 . S
C84 N85 1.342 . S
C84 C88 1.401 . S
C84 C89 1.499 . S
N85 Co68 1.989 . S
N85 C84 1.342 . S
N85 N86 1.388 . S
N86 Co69 1.993 . S
N86 N85 1.388 . S
N86 C87 1.346 . S
C87 N86 1.346 . S
C87 C88 1.396 . S
C87 C97 1.510 . S
C88 C84 1.401 . S
C88 C87 1.396 . S
C89 C84 1.499 . S
C89 H90 0.959 . S
C89 H91 0.960 . S
C89 H92 0.961 . S
H90 C89 0.959 . S
H91 C89 0.960 . S
H92 C89 0.961 . S
O93 Co68 1.967 . S
O93 C101 1.258 . S
O94 Co69 1.941 . S
O94 C101 1.266 . S
H95 C97 0.959 1_545 S
H96 C97 0.961 . S
C97 C87 1.510 . S
C97 H95 0.959 1_565 S
C97 H96 0.961 . S
C97 H98 0.960 . S
H98 C97 0.960 . S
H99 N79 0.862 . S
O100 Co68 1.920 . S
O100 C73 1.289 . S
C101 O93 1.258 . S
C101 O94 1.266 . S
Co102 O105 1.970 . S
Co102 N119 1.989 . S
Co102 O127 1.967 . S
Co102 O134 1.920 . S
Co103 O106 1.966 . S
Co103 N112 2.022 . S
Co103 N120 1.993 . S
Co103 O128 1.941 . S
C104 O105 1.258 . S
C104 O106 1.263 . S
O105 Co102 1.970 . S
O105 C104 1.258 . S
O106 Co103 1.966 . S
O106 C104 1.263 . S
C107 O108 1.235 . S
C107 O134 1.289 . S
O108 C107 1.235 . S
C109 C111 1.400 . S
C109 N112 1.351 . S
C109 C114 1.501 . S
C110 C111 1.387 . S
C110 N113 1.341 . S
C111 C109 1.400 . S
C111 C110 1.387 . S
N112 Co103 2.022 . S
N112 C109 1.351 . S
N112 N113 1.365 . S
N113 C110 1.341 . S
N113 N112 1.365 . S
N113 H133 0.862 . S
C114 C109 1.501 . S
C114 H115 0.961 . S
C114 H116 0.961 . S
C114 H117 0.960 . S
H115 C114 0.961 . S
H116 C114 0.961 . S
H117 C114 0.960 . S
C118 N119 1.342 . S
C118 C122 1.401 . S
C118 C123 1.499 . S
N119 Co102 1.989 . S
N119 C118 1.342 . S
N119 N120 1.388 . S
N120 Co103 1.993 . S
N120 N119 1.388 . S
N120 C121 1.346 . S
C121 N120 1.346 . S
C121 C122 1.396 . S
C121 C131 1.510 . S
C122 C118 1.401 . S
C122 C121 1.396 . S
C123 C118 1.499 . S
C123 H124 0.959 . S
C123 H125 0.960 . S
C123 H126 0.961 . S
H124 C123 0.959 . S
H125 C123 0.960 . S
H126 C123 0.961 . S
O127 Co102 1.967 . S
O127 C135 1.258 . S
O128 Co103 1.941 . S
O128 C135 1.266 . S
H129 C131 0.959 . S
H130 C131 0.961 . S
C131 C121 1.510 . S
C131 H129 0.959 . S
C131 H130 0.961 . S
C131 H132 0.960 . S
H132 C131 0.960 . S
H133 N113 0.862 . S
O134 Co102 1.920 . S
O134 C107 1.289 . S
C135 O127 1.258 . S
C135 O128 1.266 . S
Co136 O139 1.970 . S
Co136 N153 1.989 . S
Co136 O161 1.967 . S
Co136 O168 1.920 . S
Co137 O140 1.966 . S
Co137 N146 2.022 . S
Co137 N154 1.993 . S
Co137 O162 1.941 . S
C138 O139 1.258 . S
C138 O140 1.263 . S
O139 Co136 1.970 . S
O139 C138 1.258 . S
O140 Co137 1.966 . S
O140 C138 1.263 . S
C141 O142 1.235 . S
C141 O168 1.289 . S
O142 C141 1.235 . S
C143 C145 1.400 1_565 S
C143 N146 1.351 . S
C143 C148 1.501 . S
C144 C145 1.387 . S
C144 N147 1.341 . S
C145 C143 1.400 1_545 S
C145 C144 1.387 . S
N146 Co137 2.022 . S
N146 C143 1.351 . S
N146 N147 1.365 1_565 S
N147 C144 1.341 . S
N147 N146 1.365 1_545 S
N147 H167 0.862 . S
C148 C143 1.501 . S
C148 H149 0.961 . S
C148 H150 0.961 . S
C148 H151 0.960 . S
H149 C148 0.961 . S
H150 C148 0.961 . S
H151 C148 0.960 . S
C152 N153 1.342 . S
C152 C156 1.401 . S
C152 C157 1.499 . S
N153 Co136 1.989 . S
N153 C152 1.342 . S
N153 N154 1.388 . S
N154 Co137 1.993 . S
N154 N153 1.388 . S
N154 C155 1.346 . S
C155 N154 1.346 . S
C155 C156 1.396 . S
C155 C165 1.510 . S
C156 C152 1.401 . S
C156 C155 1.396 . S
C157 C152 1.499 . S
C157 H158 0.959 . S
C157 H159 0.960 . S
C157 H160 0.961 . S
H158 C157 0.959 . S
H159 C157 0.960 . S
H160 C157 0.961 . S
O161 Co136 1.967 . S
O161 C169 1.258 . S
O162 Co137 1.941 . S
O162 C169 1.266 . S
H163 C165 0.959 1_545 S
H164 C165 0.961 . S
C165 C155 1.510 . S
C165 H163 0.959 1_565 S
C165 H164 0.961 . S
C165 H166 0.960 . S
H166 C165 0.960 . S
H167 N147 0.862 . S
O168 Co136 1.920 . S
O168 C141 1.289 . S
C169 O161 1.258 . S
C169 O162 1.266 . S
Co170 O173 1.970 . S
Co170 N187 1.989 . S
Co170 O195 1.967 . S
Co170 O202 1.920 . S
Co171 O174 1.966 . S
Co171 N180 2.022 . S
Co171 N188 1.993 . S
Co171 O196 1.941 . S
C172 O173 1.258 . S
C172 O174 1.263 . S
O173 Co170 1.970 . S
O173 C172 1.258 . S
O174 Co171 1.966 . S
O174 C172 1.263 . S
C175 O176 1.235 . S
C175 O202 1.289 . S
O176 C175 1.235 . S
C177 C179 1.400 . S
C177 N180 1.351 . S
C177 C182 1.501 . S
C178 C179 1.387 . S
C178 N181 1.341 . S
C179 C177 1.400 . S
C179 C178 1.387 . S
N180 Co171 2.022 . S
N180 C177 1.351 . S
N180 N181 1.365 . S
N181 C178 1.341 . S
N181 N180 1.365 . S
N181 H201 0.862 . S
C182 C177 1.501 . S
C182 H183 0.961 . S
C182 H184 0.961 . S
C182 H185 0.960 . S
H183 C182 0.961 . S
H184 C182 0.961 . S
H185 C182 0.960 . S
C186 N187 1.342 . S
C186 C190 1.401 . S
C186 C191 1.499 . S
N187 Co170 1.989 . S
N187 C186 1.342 . S
N187 N188 1.388 . S
N188 Co171 1.993 . S
N188 N187 1.388 . S
N188 C189 1.346 . S
C189 N188 1.346 . S
C189 C190 1.396 . S
C189 C199 1.510 . S
C190 C186 1.401 . S
C190 C189 1.396 . S
C191 C186 1.499 . S
C191 H192 0.959 . S
C191 H193 0.960 . S
C191 H194 0.961 . S
H192 C191 0.959 . S
H193 C191 0.960 . S
H194 C191 0.961 . S
O195 Co170 1.967 . S
O195 C203 1.258 . S
O196 Co171 1.941 . S
O196 C203 1.266 . S
H197 C199 0.959 . S
H198 C199 0.961 . S
C199 C189 1.510 . S
C199 H197 0.959 . S
C199 H198 0.961 . S
C199 H200 0.960 . S
H200 C199 0.960 . S
H201 N181 0.862 . S
O202 Co170 1.920 . S
O202 C175 1.289 . S
C203 O195 1.258 . S
C203 O196 1.266 . S
Co204 O207 1.970 . S
Co204 N221 1.989 . S
Co204 O229 1.967 . S
Co204 O236 1.920 . S
Co205 O208 1.966 . S
Co205 N214 2.022 . S
Co205 N222 1.993 . S
Co205 O230 1.941 . S
C206 O207 1.258 . S
C206 O208 1.263 . S
O207 Co204 1.970 . S
O207 C206 1.258 . S
O208 Co205 1.966 . S
O208 C206 1.263 . S
C209 O210 1.235 . S
C209 O236 1.289 . S
O210 C209 1.235 . S
C211 C213 1.400 1_545 S
C211 N214 1.351 . S
C211 C216 1.501 . S
C212 C213 1.387 . S
C212 N215 1.341 . S
C213 C211 1.400 1_565 S
C213 C212 1.387 . S
N214 Co205 2.022 . S
N214 C211 1.351 . S
N214 N215 1.365 1_545 S
N215 C212 1.341 . S
N215 N214 1.365 1_565 S
N215 H235 0.862 . S
C216 C211 1.501 . S
C216 H217 0.961 . S
C216 H218 0.961 . S
C216 H219 0.960 . S
H217 C216 0.961 . S
H218 C216 0.961 . S
H219 C216 0.960 . S
C220 N221 1.342 . S
C220 C224 1.401 . S
C220 C225 1.499 . S
N221 Co204 1.989 . S
N221 C220 1.342 . S
N221 N222 1.388 . S
N222 Co205 1.993 . S
N222 N221 1.388 . S
N222 C223 1.346 . S
C223 N222 1.346 . S
C223 C224 1.396 . S
C223 C233 1.510 . S
C224 C220 1.401 . S
C224 C223 1.396 . S
C225 C220 1.499 . S
C225 H226 0.959 . S
C225 H227 0.960 . S
C225 H228 0.961 . S
H226 C225 0.959 . S
H227 C225 0.960 . S
H228 C225 0.961 . S
O229 Co204 1.967 . S
O229 C237 1.258 . S
O230 Co205 1.941 . S
O230 C237 1.266 . S
H231 C233 0.959 1_565 S
H232 C233 0.961 . S
C233 C223 1.510 . S
C233 H231 0.959 1_545 S
C233 H232 0.961 . S
C233 H234 0.960 . S
H234 C233 0.960 . S
H235 N215 0.862 . S
O236 Co204 1.920 . S
O236 C209 1.289 . S
C237 O229 1.258 . S
C237 O230 1.266 . S
Co238 O241 1.970 . S
Co238 N255 1.989 . S
Co238 O263 1.967 . S
Co238 O270 1.920 . S
Co239 O242 1.966 . S
Co239 N248 2.022 . S
Co239 N256 1.993 . S
Co239 O264 1.941 . S
C240 O241 1.258 . S
C240 O242 1.263 . S
O241 Co238 1.970 . S
O241 C240 1.258 . S
O242 Co239 1.966 . S
O242 C240 1.263 . S
C243 O244 1.235 . S
C243 O270 1.289 . S
O244 C243 1.235 . S
C245 C247 1.400 . S
C245 N248 1.351 . S
C245 C250 1.501 . S
C246 C247 1.387 . S
C246 N249 1.341 . S
C247 C245 1.400 . S
C247 C246 1.387 . S
N248 Co239 2.022 . S
N248 C245 1.351 . S
N248 N249 1.365 . S
N249 C246 1.341 . S
N249 N248 1.365 . S
N249 H269 0.862 . S
C250 C245 1.501 . S
C250 H251 0.961 . S
C250 H252 0.961 . S
C250 H253 0.960 . S
H251 C250 0.961 . S
H252 C250 0.961 . S
H253 C250 0.960 . S
C254 N255 1.342 . S
C254 C258 1.401 . S
C254 C259 1.499 . S
N255 Co238 1.989 . S
N255 C254 1.342 . S
N255 N256 1.388 . S
N256 Co239 1.993 . S
N256 N255 1.388 . S
N256 C257 1.346 . S
C257 N256 1.346 . S
C257 C258 1.396 . S
C257 C267 1.510 . S
C258 C254 1.401 . S
C258 C257 1.396 . S
C259 C254 1.499 . S
C259 H260 0.959 . S
C259 H261 0.960 . S
C259 H262 0.961 . S
H260 C259 0.959 . S
H261 C259 0.960 . S
H262 C259 0.961 . S
O263 Co238 1.967 . S
O263 C271 1.258 . S
O264 Co239 1.941 . S
O264 C271 1.266 . S
H265 C267 0.959 . S
H266 C267 0.961 . S
C267 C257 1.510 . S
C267 H265 0.959 . S
C267 H266 0.961 . S
C267 H268 0.960 . S
H268 C267 0.960 . S
H269 N249 0.862 . S
O270 Co238 1.920 . S
O270 C243 1.289 . S
C271 O263 1.258 . S
C271 O264 1.266 . S
Co272 O275 1.970 . S
Co272 N289 1.989 . S
Co272 O297 1.967 . S
Co272 O304 1.920 . S
Co273 O276 1.966 . S
Co273 N282 2.022 . S
Co273 N290 1.993 . S
Co273 O298 1.941 . S
C274 O275 1.258 . S
C274 O276 1.263 . S
O275 Co272 1.970 . S
O275 C274 1.258 . S
O276 Co273 1.966 . S
O276 C274 1.263 . S
C277 O278 1.235 . S
C277 O304 1.289 . S
O278 C277 1.235 . S
C279 C281 1.400 1_565 S
C279 N282 1.351 . S
C279 C284 1.501 . S
C280 C281 1.387 . S
C280 N283 1.341 . S
C281 C279 1.400 1_545 S
C281 C280 1.387 . S
N282 Co273 2.022 . S
N282 C279 1.351 . S
N282 N283 1.365 1_565 S
N283 C280 1.341 . S
N283 N282 1.365 1_545 S
N283 H303 0.862 . S
C284 C279 1.501 . S
C284 H285 0.961 . S
C284 H286 0.961 . S
C284 H287 0.960 . S
H285 C284 0.961 . S
H286 C284 0.961 . S
H287 C284 0.960 . S
C288 N289 1.342 . S
C288 C292 1.401 . S
C288 C293 1.499 . S
N289 Co272 1.989 . S
N289 C288 1.342 . S
N289 N290 1.388 . S
N290 Co273 1.993 . S
N290 N289 1.388 . S
N290 C291 1.346 . S
C291 N290 1.346 . S
C291 C292 1.396 . S
C291 C301 1.510 . S
C292 C288 1.401 . S
C292 C291 1.396 . S
C293 C288 1.499 . S
C293 H294 0.959 . S
C293 H295 0.960 . S
C293 H296 0.961 . S
H294 C293 0.959 . S
H295 C293 0.960 . S
H296 C293 0.961 . S
O297 Co272 1.967 . S
O297 C305 1.258 . S
O298 Co273 1.941 . S
O298 C305 1.266 . S
H299 C301 0.959 1_545 S
H300 C301 0.961 . S
C301 C291 1.510 . S
C301 H299 0.959 1_565 S
C301 H300 0.961 . S
C301 H302 0.960 . S
H302 C301 0.960 . S
H303 N283 0.862 . S
O304 Co272 1.920 . S
O304 C277 1.289 . S
C305 O297 1.258 . S
C305 O298 1.266 . S
Co306 O309 1.970 . S
Co306 N323 1.989 . S
Co306 O331 1.967 . S
Co306 O338 1.920 . S
Co307 O310 1.966 . S
Co307 N316 2.022 . S
Co307 N324 1.993 . S
Co307 O332 1.941 . S
C308 O309 1.258 . S
C308 O310 1.263 . S
O309 Co306 1.970 . S
O309 C308 1.258 . S
O310 Co307 1.966 . S
O310 C308 1.263 . S
C311 O312 1.235 . S
C311 O338 1.289 . S
O312 C311 1.235 . S
C313 C315 1.400 . S
C313 N316 1.351 . S
C313 C318 1.501 . S
C314 C315 1.387 . S
C314 N317 1.341 . S
C315 C313 1.400 . S
C315 C314 1.387 . S
N316 Co307 2.022 . S
N316 C313 1.351 . S
N316 N317 1.365 . S
N317 C314 1.341 . S
N317 N316 1.365 . S
N317 H337 0.862 . S
C318 C313 1.501 . S
C318 H319 0.961 . S
C318 H320 0.961 . S
C318 H321 0.960 . S
H319 C318 0.961 . S
H320 C318 0.961 . S
H321 C318 0.960 . S
C322 N323 1.342 . S
C322 C326 1.401 . S
C322 C327 1.499 . S
N323 Co306 1.989 . S
N323 C322 1.342 . S
N323 N324 1.388 . S
N324 Co307 1.993 . S
N324 N323 1.388 . S
N324 C325 1.346 . S
C325 N324 1.346 . S
C325 C326 1.396 . S
C325 C335 1.510 . S
C326 C322 1.401 . S
C326 C325 1.396 . S
C327 C322 1.499 . S
C327 H328 0.959 . S
C327 H329 0.960 . S
C327 H330 0.961 . S
H328 C327 0.959 . S
H329 C327 0.960 . S
H330 C327 0.961 . S
O331 Co306 1.967 . S
O331 C339 1.258 . S
O332 Co307 1.941 . S
O332 C339 1.266 . S
H333 C335 0.959 . S
H334 C335 0.961 . S
C335 C325 1.510 . S
C335 H333 0.959 . S
C335 H334 0.961 . S
C335 H336 0.960 . S
H336 C335 0.960 . S
H337 N317 0.862 . S
O338 Co306 1.920 . S
O338 C311 1.289 . S
C339 O331 1.258 . S
C339 O332 1.266 . S
Co340 O343 1.970 . S
Co340 N357 1.989 . S
Co340 O365 1.967 . S
Co340 O372 1.920 . S
Co341 O344 1.966 . S
Co341 N350 2.022 . S
Co341 N358 1.993 . S
Co341 O366 1.941 . S
C342 O343 1.258 . S
C342 O344 1.263 . S
O343 Co340 1.970 . S
O343 C342 1.258 . S
O344 Co341 1.966 . S
O344 C342 1.263 . S
C345 O346 1.235 . S
C345 O372 1.289 . S
O346 C345 1.235 . S
C347 C349 1.400 1_545 S
C347 N350 1.351 . S
C347 C352 1.501 . S
C348 C349 1.387 . S
C348 N351 1.341 . S
C349 C347 1.400 1_565 S
C349 C348 1.387 . S
N350 Co341 2.022 . S
N350 C347 1.351 . S
N350 N351 1.365 1_545 S
N351 C348 1.341 . S
N351 N350 1.365 1_565 S
N351 H371 0.862 . S
C352 C347 1.501 . S
C352 H353 0.961 . S
C352 H354 0.961 . S
C352 H355 0.960 . S
H353 C352 0.961 . S
H354 C352 0.961 . S
H355 C352 0.960 . S
C356 N357 1.342 . S
C356 C360 1.401 . S
C356 C361 1.499 . S
N357 Co340 1.989 . S
N357 C356 1.342 . S
N357 N358 1.388 . S
N358 Co341 1.993 . S
N358 N357 1.388 . S
N358 C359 1.346 . S
C359 N358 1.346 . S
C359 C360 1.396 . S
C359 C369 1.510 . S
C360 C356 1.401 . S
C360 C359 1.396 . S
C361 C356 1.499 . S
C361 H362 0.959 . S
C361 H363 0.960 . S
C361 H364 0.961 . S
H362 C361 0.959 . S
H363 C361 0.960 . S
H364 C361 0.961 . S
O365 Co340 1.967 . S
O365 C373 1.258 . S
O366 Co341 1.941 . S
O366 C373 1.266 . S
H367 C369 0.959 1_565 S
H368 C369 0.961 . S
C369 C359 1.510 . S
C369 H367 0.959 1_545 S
C369 H368 0.961 . S
C369 H370 0.960 . S
H370 C369 0.960 . S
H371 N351 0.862 . S
O372 Co340 1.920 . S
O372 C345 1.289 . S
C373 O365 1.258 . S
C373 O366 1.266 . S
Co374 O377 1.970 . S
Co374 N391 1.989 . S
Co374 O399 1.967 . S
Co374 O406 1.920 . S
Co375 O378 1.966 . S
Co375 N384 2.022 . S
Co375 N392 1.993 . S
Co375 O400 1.941 . S
C376 O377 1.258 . S
C376 O378 1.263 . S
O377 Co374 1.970 . S
O377 C376 1.258 . S
O378 Co375 1.966 . S
O378 C376 1.263 . S
C379 O380 1.235 . S
C379 O406 1.289 . S
O380 C379 1.235 . S
C381 C383 1.400 . S
C381 N384 1.351 . S
C381 C386 1.501 . S
C382 C383 1.387 . S
C382 N385 1.341 . S
C383 C381 1.400 . S
C383 C382 1.387 . S
N384 Co375 2.022 . S
N384 C381 1.351 . S
N384 N385 1.365 . S
N385 C382 1.341 . S
N385 N384 1.365 . S
N385 H405 0.862 . S
C386 C381 1.501 . S
C386 H387 0.961 . S
C386 H388 0.961 . S
C386 H389 0.960 . S
H387 C386 0.961 . S
H388 C386 0.961 . S
H389 C386 0.960 . S
C390 N391 1.342 . S
C390 C394 1.401 . S
C390 C395 1.499 . S
N391 Co374 1.989 . S
N391 C390 1.342 . S
N391 N392 1.388 . S
N392 Co375 1.993 . S
N392 N391 1.388 . S
N392 C393 1.346 . S
C393 N392 1.346 . S
C393 C394 1.396 . S
C393 C403 1.510 . S
C394 C390 1.401 . S
C394 C393 1.396 . S
C395 C390 1.499 . S
C395 H396 0.959 . S
C395 H397 0.960 . S
C395 H398 0.961 . S
H396 C395 0.959 . S
H397 C395 0.960 . S
H398 C395 0.961 . S
O399 Co374 1.967 . S
O399 C407 1.258 . S
O400 Co375 1.941 . S
O400 C407 1.266 . S
H401 C403 0.959 . S
H402 C403 0.961 . S
C403 C393 1.510 . S
C403 H401 0.959 . S
C403 H402 0.961 . S
C403 H404 0.960 . S
H404 C403 0.960 . S
H405 N385 0.862 . S
O406 Co374 1.920 . S
O406 C379 1.289 . S
C407 O399 1.258 . S
C407 O400 1.266 . S
Co408 O411 1.970 . S
Co408 N425 1.989 . S
Co408 O433 1.967 . S
Co408 O440 1.920 . S
Co409 O412 1.966 . S
Co409 N418 2.022 . S
Co409 N426 1.993 . S
Co409 O434 1.941 . S
C410 O411 1.258 . S
C410 O412 1.263 . S
O411 Co408 1.970 . S
O411 C410 1.258 . S
O412 Co409 1.966 . S
O412 C410 1.263 . S
C413 O414 1.235 . S
C413 O440 1.289 . S
O414 C413 1.235 . S
C415 C417 1.400 1_545 S
C415 N418 1.351 . S
C415 C420 1.501 . S
C416 C417 1.387 . S
C416 N419 1.341 . S
C417 C415 1.400 1_565 S
C417 C416 1.387 . S
N418 Co409 2.022 . S
N418 C415 1.351 . S
N418 N419 1.365 1_545 S
N419 C416 1.341 . S
N419 N418 1.365 1_565 S
N419 H439 0.862 . S
C420 C415 1.501 . S
C420 H421 0.961 . S
C420 H422 0.961 . S
C420 H423 0.960 . S
H421 C420 0.961 . S
H422 C420 0.961 . S
H423 C420 0.960 . S
C424 N425 1.342 . S
C424 C428 1.401 . S
C424 C429 1.499 . S
N425 Co408 1.989 . S
N425 C424 1.342 . S
N425 N426 1.388 . S
N426 Co409 1.993 . S
N426 N425 1.388 . S
N426 C427 1.346 . S
C427 N426 1.346 . S
C427 C428 1.396 . S
C427 C437 1.510 . S
C428 C424 1.401 . S
C428 C427 1.396 . S
C429 C424 1.499 . S
C429 H430 0.959 . S
C429 H431 0.960 . S
C429 H432 0.961 . S
H430 C429 0.959 . S
H431 C429 0.960 . S
H432 C429 0.961 . S
O433 Co408 1.967 . S
O433 C441 1.258 . S
O434 Co409 1.941 . S
O434 C441 1.266 . S
H435 C437 0.959 1_565 S
H436 C437 0.961 . S
C437 C427 1.510 . S
C437 H435 0.959 1_545 S
C437 H436 0.961 . S
C437 H438 0.960 . S
H438 C437 0.960 . S
H439 N419 0.862 . S
O440 Co408 1.920 . S
O440 C413 1.289 . S
C441 O433 1.258 . S
C441 O434 1.266 . S
Co442 O445 1.970 . S
Co442 N459 1.989 . S
Co442 O467 1.967 . S
Co442 O474 1.920 . S
Co443 O446 1.966 . S
Co443 N452 2.022 . S
Co443 N460 1.993 . S
Co443 O468 1.941 . S
C444 O445 1.258 . S
C444 O446 1.263 . S
O445 Co442 1.970 . S
O445 C444 1.258 . S
O446 Co443 1.966 . S
O446 C444 1.263 . S
C447 O448 1.235 . S
C447 O474 1.289 . S
O448 C447 1.235 . S
C449 C451 1.400 . S
C449 N452 1.351 . S
C449 C454 1.501 . S
C450 C451 1.387 . S
C450 N453 1.341 . S
C451 C449 1.400 . S
C451 C450 1.387 . S
N452 Co443 2.022 . S
N452 C449 1.351 . S
N452 N453 1.365 . S
N453 C450 1.341 . S
N453 N452 1.365 . S
N453 H473 0.862 . S
C454 C449 1.501 . S
C454 H455 0.961 . S
C454 H456 0.961 . S
C454 H457 0.960 . S
H455 C454 0.961 . S
H456 C454 0.961 . S
H457 C454 0.960 . S
C458 N459 1.342 . S
C458 C462 1.401 . S
C458 C463 1.499 . S
N459 Co442 1.989 . S
N459 C458 1.342 . S
N459 N460 1.388 . S
N460 Co443 1.993 . S
N460 N459 1.388 . S
N460 C461 1.346 . S
C461 N460 1.346 . S
C461 C462 1.396 . S
C461 C471 1.510 . S
C462 C458 1.401 . S
C462 C461 1.396 . S
C463 C458 1.499 . S
C463 H464 0.959 . S
C463 H465 0.960 . S
C463 H466 0.961 . S
H464 C463 0.959 . S
H465 C463 0.960 . S
H466 C463 0.961 . S
O467 Co442 1.967 . S
O467 C475 1.258 . S
O468 Co443 1.941 . S
O468 C475 1.266 . S
H469 C471 0.959 . S
H470 C471 0.961 . S
C471 C461 1.510 . S
C471 H469 0.959 . S
C471 H470 0.961 . S
C471 H472 0.960 . S
H472 C471 0.960 . S
H473 N453 0.862 . S
O474 Co442 1.920 . S
O474 C447 1.289 . S
C475 O467 1.258 . S
C475 O468 1.266 . S
Co476 O479 1.970 . S
Co476 N493 1.989 . S
Co476 O501 1.967 . S
Co476 O508 1.920 . S
Co477 O480 1.966 . S
Co477 N486 2.022 . S
Co477 N494 1.993 . S
Co477 O502 1.941 . S
C478 O479 1.258 . S
C478 O480 1.263 . S
O479 Co476 1.970 . S
O479 C478 1.258 . S
O480 Co477 1.966 . S
O480 C478 1.263 . S
C481 O482 1.235 . S
C481 O508 1.289 . S
O482 C481 1.235 . S
C483 C485 1.400 1_565 S
C483 N486 1.351 . S
C483 C488 1.501 . S
C484 C485 1.387 . S
C484 N487 1.341 . S
C485 C483 1.400 1_545 S
C485 C484 1.387 . S
N486 Co477 2.022 . S
N486 C483 1.351 . S
N486 N487 1.365 1_565 S
N487 C484 1.341 . S
N487 N486 1.365 1_545 S
N487 H507 0.862 . S
C488 C483 1.501 . S
C488 H489 0.961 . S
C488 H490 0.961 . S
C488 H491 0.960 . S
H489 C488 0.961 . S
H490 C488 0.961 . S
H491 C488 0.960 . S
C492 N493 1.342 . S
C492 C496 1.401 . S
C492 C497 1.499 . S
N493 Co476 1.989 . S
N493 C492 1.342 . S
N493 N494 1.388 . S
N494 Co477 1.993 . S
N494 N493 1.388 . S
N494 C495 1.346 . S
C495 N494 1.346 . S
C495 C496 1.396 . S
C495 C505 1.510 . S
C496 C492 1.401 . S
C496 C495 1.396 . S
C497 C492 1.499 . S
C497 H498 0.959 . S
C497 H499 0.960 . S
C497 H500 0.961 . S
H498 C497 0.959 . S
H499 C497 0.960 . S
H500 C497 0.961 . S
O501 Co476 1.967 . S
O501 C509 1.258 . S
O502 Co477 1.941 . S
O502 C509 1.266 . S
H503 C505 0.959 1_545 S
H504 C505 0.961 . S
C505 C495 1.510 . S
C505 H503 0.959 1_565 S
C505 H504 0.961 . S
C505 H506 0.960 . S
H506 C505 0.960 . S
H507 N487 0.862 . S
O508 Co476 1.920 . S
O508 C481 1.289 . S
C509 O501 1.258 . S
C509 O502 1.266 . S
Co510 O513 1.970 . S
Co510 N527 1.989 . S
Co510 O535 1.967 . S
Co510 O542 1.920 . S
Co511 O514 1.966 . S
Co511 N520 2.022 . S
Co511 N528 1.993 . S
Co511 O536 1.941 . S
C512 O513 1.258 . S
C512 O514 1.263 . S
O513 Co510 1.970 . S
O513 C512 1.258 . S
O514 Co511 1.966 . S
O514 C512 1.263 . S
C515 O516 1.235 . S
C515 O542 1.289 . S
O516 C515 1.235 . S
C517 C519 1.400 . S
C517 N520 1.351 . S
C517 C522 1.501 . S
C518 C519 1.387 . S
C518 N521 1.341 . S
C519 C517 1.400 . S
C519 C518 1.387 . S
N520 Co511 2.022 . S
N520 C517 1.351 . S
N520 N521 1.365 . S
N521 C518 1.341 . S
N521 N520 1.365 . S
N521 H541 0.862 . S
C522 C517 1.501 . S
C522 H523 0.961 . S
C522 H524 0.961 . S
C522 H525 0.960 . S
H523 C522 0.961 . S
H524 C522 0.961 . S
H525 C522 0.960 . S
C526 N527 1.342 . S
C526 C530 1.401 . S
C526 C531 1.499 . S
N527 Co510 1.989 . S
N527 C526 1.342 . S
N527 N528 1.388 . S
N528 Co511 1.993 . S
N528 N527 1.388 . S
N528 C529 1.346 . S
C529 N528 1.346 . S
C529 C530 1.396 . S
C529 C539 1.510 . S
C530 C526 1.401 . S
C530 C529 1.396 . S
C531 C526 1.499 . S
C531 H532 0.959 . S
C531 H533 0.960 . S
C531 H534 0.961 . S
H532 C531 0.959 . S
H533 C531 0.960 . S
H534 C531 0.961 . S
O535 Co510 1.967 . S
O535 C543 1.258 . S
O536 Co511 1.941 . S
O536 C543 1.266 . S
H537 C539 0.959 . S
H538 C539 0.961 . S
C539 C529 1.510 . S
C539 H537 0.959 . S
C539 H538 0.961 . S
C539 H540 0.960 . S
H540 C539 0.960 . S
H541 N521 0.862 . S
O542 Co510 1.920 . S
O542 C515 1.289 . S
C543 O535 1.258 . S
C543 O536 1.266 . S
Co544 O547 1.970 . S
Co544 N561 1.989 . S
Co544 O569 1.967 . S
Co544 O576 1.920 . S
Co545 O548 1.966 . S
Co545 N554 2.022 . S
Co545 N562 1.993 . S
Co545 O570 1.941 . S
C546 O547 1.258 . S
C546 O548 1.263 . S
O547 Co544 1.970 . S
O547 C546 1.258 . S
O548 Co545 1.966 . S
O548 C546 1.263 . S
C549 O550 1.235 . S
C549 O576 1.289 . S
O550 C549 1.235 . S
C551 C553 1.400 . S
C551 N554 1.351 . S
C551 C556 1.501 . S
C552 C553 1.387 . S
C552 N555 1.341 . S
C553 C551 1.400 . S
C553 C552 1.387 . S
N554 Co545 2.022 . S
N554 C551 1.351 . S
N554 N555 1.365 . S
N555 C552 1.341 . S
N555 N554 1.365 . S
N555 H575 0.862 . S
C556 C551 1.501 . S
C556 H557 0.961 . S
C556 H558 0.961 . S
C556 H559 0.960 . S
H557 C556 0.961 . S
H558 C556 0.961 . S
H559 C556 0.960 . S
C560 N561 1.342 . S
C560 C564 1.401 . S
C560 C565 1.499 . S
N561 Co544 1.989 . S
N561 C560 1.342 . S
N561 N562 1.388 . S
N562 Co545 1.993 . S
N562 N561 1.388 . S
N562 C563 1.346 . S
C563 N562 1.346 . S
C563 C564 1.396 . S
C563 C573 1.510 . S
C564 C560 1.401 . S
C564 C563 1.396 . S
C565 C560 1.499 . S
C565 H566 0.959 . S
C565 H567 0.960 . S
C565 H568 0.961 . S
H566 C565 0.959 . S
H567 C565 0.960 . S
H568 C565 0.961 . S
O569 Co544 1.967 . S
O569 C577 1.258 . S
O570 Co545 1.941 . S
O570 C577 1.266 . S
H571 C573 0.959 . S
H572 C573 0.961 . S
C573 C563 1.510 . S
C573 H571 0.959 . S
C573 H572 0.961 . S
C573 H574 0.960 . S
H574 C573 0.960 . S
H575 N555 0.862 . S
O576 Co544 1.920 . S
O576 C549 1.289 . S
C577 O569 1.258 . S
C577 O570 1.266 . S
Co578 O581 1.970 . S
Co578 N595 1.989 . S
Co578 O603 1.967 . S
Co578 O610 1.920 . S
Co579 O582 1.966 . S
Co579 N588 2.022 . S
Co579 N596 1.993 . S
Co579 O604 1.941 . S
C580 O581 1.258 . S
C580 O582 1.263 . S
O581 Co578 1.970 . S
O581 C580 1.258 . S
O582 Co579 1.966 . S
O582 C580 1.263 . S
C583 O584 1.235 . S
C583 O610 1.289 . S
O584 C583 1.235 . S
C585 C587 1.400 . S
C585 N588 1.351 . S
C585 C590 1.501 . S
C586 C587 1.387 . S
C586 N589 1.341 . S
C587 C585 1.400 . S
C587 C586 1.387 . S
N588 Co579 2.022 . S
N588 C585 1.351 . S
N588 N589 1.365 . S
N589 C586 1.341 . S
N589 N588 1.365 . S
N589 H609 0.862 . S
C590 C585 1.501 . S
C590 H591 0.961 . S
C590 H592 0.961 . S
C590 H593 0.960 . S
H591 C590 0.961 . S
H592 C590 0.961 . S
H593 C590 0.960 . S
C594 N595 1.342 . S
C594 C598 1.401 . S
C594 C599 1.499 . S
N595 Co578 1.989 . S
N595 C594 1.342 . S
N595 N596 1.388 . S
N596 Co579 1.993 . S
N596 N595 1.388 . S
N596 C597 1.346 . S
C597 N596 1.346 . S
C597 C598 1.396 . S
C597 C607 1.510 . S
C598 C594 1.401 . S
C598 C597 1.396 . S
C599 C594 1.499 . S
C599 H600 0.959 . S
C599 H601 0.960 . S
C599 H602 0.961 . S
H600 C599 0.959 . S
H601 C599 0.960 . S
H602 C599 0.961 . S
O603 Co578 1.967 . S
O603 C611 1.258 . S
O604 Co579 1.941 . S
O604 C611 1.266 . S
H605 C607 0.959 . S
H606 C607 0.961 . S
C607 C597 1.510 . S
C607 H605 0.959 . S
C607 H606 0.961 . S
C607 H608 0.960 . S
H608 C607 0.960 . S
H609 N589 0.862 . S
O610 Co578 1.920 . S
O610 C583 1.289 . S
C611 O603 1.258 . S
C611 O604 1.266 . S
Co612 O615 1.970 . S
Co612 N629 1.989 . S
Co612 O637 1.967 . S
Co612 O644 1.920 . S
Co613 O616 1.966 . S
Co613 N622 2.022 . S
Co613 N630 1.993 . S
Co613 O638 1.941 . S
C614 O615 1.258 . S
C614 O616 1.263 . S
O615 Co612 1.970 . S
O615 C614 1.258 . S
O616 Co613 1.966 . S
O616 C614 1.263 . S
C617 O618 1.235 . S
C617 O644 1.289 . S
O618 C617 1.235 . S
C619 C621 1.400 . S
C619 N622 1.351 . S
C619 C624 1.501 . S
C620 C621 1.387 . S
C620 N623 1.341 . S
C621 C619 1.400 . S
C621 C620 1.387 . S
N622 Co613 2.022 . S
N622 C619 1.351 . S
N622 N623 1.365 . S
N623 C620 1.341 . S
N623 N622 1.365 . S
N623 H643 0.862 . S
C624 C619 1.501 . S
C624 H625 0.961 . S
C624 H626 0.961 . S
C624 H627 0.960 . S
H625 C624 0.961 . S
H626 C624 0.961 . S
H627 C624 0.960 . S
C628 N629 1.342 . S
C628 C632 1.401 . S
C628 C633 1.499 . S
N629 Co612 1.989 . S
N629 C628 1.342 . S
N629 N630 1.388 . S
N630 Co613 1.993 . S
N630 N629 1.388 . S
N630 C631 1.346 . S
C631 N630 1.346 . S
C631 C632 1.396 . S
C631 C641 1.510 . S
C632 C628 1.401 . S
C632 C631 1.396 . S
C633 C628 1.499 . S
C633 H634 0.959 . S
C633 H635 0.960 . S
C633 H636 0.961 . S
H634 C633 0.959 . S
H635 C633 0.960 . S
H636 C633 0.961 . S
O637 Co612 1.967 . S
O637 C645 1.258 . S
O638 Co613 1.941 . S
O638 C645 1.266 . S
H639 C641 0.959 . S
H640 C641 0.961 . S
C641 C631 1.510 . S
C641 H639 0.959 . S
C641 H640 0.961 . S
C641 H642 0.960 . S
H642 C641 0.960 . S
H643 N623 0.862 . S
O644 Co612 1.920 . S
O644 C617 1.289 . S
C645 O637 1.258 . S
C645 O638 1.266 . S
Co646 O649 1.970 . S
Co646 N663 1.989 . S
Co646 O671 1.967 . S
Co646 O678 1.920 . S
Co647 O650 1.966 . S
Co647 N656 2.022 . S
Co647 N664 1.993 . S
Co647 O672 1.941 . S
C648 O649 1.258 . S
C648 O650 1.263 . S
O649 Co646 1.970 . S
O649 C648 1.258 . S
O650 Co647 1.966 . S
O650 C648 1.263 . S
C651 O652 1.235 . S
C651 O678 1.289 . S
O652 C651 1.235 . S
C653 C655 1.400 . S
C653 N656 1.351 . S
C653 C658 1.501 . S
C654 C655 1.387 . S
C654 N657 1.341 . S
C655 C653 1.400 . S
C655 C654 1.387 . S
N656 Co647 2.022 . S
N656 C653 1.351 . S
N656 N657 1.365 . S
N657 C654 1.341 . S
N657 N656 1.365 . S
N657 H677 0.862 . S
C658 C653 1.501 . S
C658 H659 0.961 . S
C658 H660 0.961 . S
C658 H661 0.960 . S
H659 C658 0.961 . S
H660 C658 0.961 . S
H661 C658 0.960 . S
C662 N663 1.342 . S
C662 C666 1.401 . S
C662 C667 1.499 . S
N663 Co646 1.989 . S
N663 C662 1.342 . S
N663 N664 1.388 . S
N664 Co647 1.993 . S
N664 N663 1.388 . S
N664 C665 1.346 . S
C665 N664 1.346 . S
C665 C666 1.396 . S
C665 C675 1.510 . S
C666 C662 1.401 . S
C666 C665 1.396 . S
C667 C662 1.499 . S
C667 H668 0.959 . S
C667 H669 0.960 . S
C667 H670 0.961 . S
H668 C667 0.959 . S
H669 C667 0.960 . S
H670 C667 0.961 . S
O671 Co646 1.967 . S
O671 C679 1.258 . S
O672 Co647 1.941 . S
O672 C679 1.266 . S
H673 C675 0.959 . S
H674 C675 0.961 . S
C675 C665 1.510 . S
C675 H673 0.959 . S
C675 H674 0.961 . S
C675 H676 0.960 . S
H676 C675 0.960 . S
H677 N657 0.862 . S
O678 Co646 1.920 . S
O678 C651 1.289 . S
C679 O671 1.258 . S
C679 O672 1.266 . S
Co680 O683 1.970 . S
Co680 N697 1.989 . S
Co680 O705 1.967 . S
Co680 O712 1.920 . S
Co681 O684 1.966 . S
Co681 N690 2.022 . S
Co681 N698 1.993 . S
Co681 O706 1.941 . S
C682 O683 1.258 . S
C682 O684 1.263 . S
O683 Co680 1.970 . S
O683 C682 1.258 . S
O684 Co681 1.966 . S
O684 C682 1.263 . S
C685 O686 1.235 . S
C685 O712 1.289 . S
O686 C685 1.235 . S
C687 C689 1.400 . S
C687 N690 1.351 . S
C687 C692 1.501 . S
C688 C689 1.387 . S
C688 N691 1.341 . S
C689 C687 1.400 . S
C689 C688 1.387 . S
N690 Co681 2.022 . S
N690 C687 1.351 . S
N690 N691 1.365 . S
N691 C688 1.341 . S
N691 N690 1.365 . S
N691 H711 0.862 . S
C692 C687 1.501 . S
C692 H693 0.961 . S
C692 H694 0.961 . S
C692 H695 0.960 . S
H693 C692 0.961 . S
H694 C692 0.961 . S
H695 C692 0.960 . S
C696 N697 1.342 . S
C696 C700 1.401 . S
C696 C701 1.499 . S
N697 Co680 1.989 . S
N697 C696 1.342 . S
N697 N698 1.388 . S
N698 Co681 1.993 . S
N698 N697 1.388 . S
N698 C699 1.346 . S
C699 N698 1.346 . S
C699 C700 1.396 . S
C699 C709 1.510 . S
C700 C696 1.401 . S
C700 C699 1.396 . S
C701 C696 1.499 . S
C701 H702 0.959 . S
C701 H703 0.960 . S
C701 H704 0.961 . S
H702 C701 0.959 . S
H703 C701 0.960 . S
H704 C701 0.961 . S
O705 Co680 1.967 . S
O705 C713 1.258 . S
O706 Co681 1.941 . S
O706 C713 1.266 . S
H707 C709 0.959 . S
H708 C709 0.961 . S
C709 C699 1.510 . S
C709 H707 0.959 . S
C709 H708 0.961 . S
C709 H710 0.960 . S
H710 C709 0.960 . S
H711 N691 0.862 . S
O712 Co680 1.920 . S
O712 C685 1.289 . S
C713 O705 1.258 . S
C713 O706 1.266 . S
Co714 O717 1.970 . S
Co714 N731 1.989 . S
Co714 O739 1.967 . S
Co714 O746 1.920 . S
Co715 O718 1.966 . S
Co715 N724 2.022 . S
Co715 N732 1.993 . S
Co715 O740 1.941 . S
C716 O717 1.258 . S
C716 O718 1.263 . S
O717 Co714 1.970 . S
O717 C716 1.258 . S
O718 Co715 1.966 . S
O718 C716 1.263 . S
C719 O720 1.235 . S
C719 O746 1.289 . S
O720 C719 1.235 . S
C721 C723 1.400 . S
C721 N724 1.351 . S
C721 C726 1.501 . S
C722 C723 1.387 . S
C722 N725 1.341 . S
C723 C721 1.400 . S
C723 C722 1.387 . S
N724 Co715 2.022 . S
N724 C721 1.351 . S
N724 N725 1.365 . S
N725 C722 1.341 . S
N725 N724 1.365 . S
N725 H745 0.862 . S
C726 C721 1.501 . S
C726 H727 0.961 . S
C726 H728 0.961 . S
C726 H729 0.960 . S
H727 C726 0.961 . S
H728 C726 0.961 . S
H729 C726 0.960 . S
C730 N731 1.342 . S
C730 C734 1.401 . S
C730 C735 1.499 . S
N731 Co714 1.989 . S
N731 C730 1.342 . S
N731 N732 1.388 . S
N732 Co715 1.993 . S
N732 N731 1.388 . S
N732 C733 1.346 . S
C733 N732 1.346 . S
C733 C734 1.396 . S
C733 C743 1.510 . S
C734 C730 1.401 . S
C734 C733 1.396 . S
C735 C730 1.499 . S
C735 H736 0.959 . S
C735 H737 0.960 . S
C735 H738 0.961 . S
H736 C735 0.959 . S
H737 C735 0.960 . S
H738 C735 0.961 . S
O739 Co714 1.967 . S
O739 C747 1.258 . S
O740 Co715 1.941 . S
O740 C747 1.266 . S
H741 C743 0.959 . S
H742 C743 0.961 . S
C743 C733 1.510 . S
C743 H741 0.959 . S
C743 H742 0.961 . S
C743 H744 0.960 . S
H744 C743 0.960 . S
H745 N725 0.862 . S
O746 Co714 1.920 . S
O746 C719 1.289 . S
C747 O739 1.258 . S
C747 O740 1.266 . S
Co748 O751 1.970 . S
Co748 N765 1.989 . S
Co748 O773 1.967 . S
Co748 O780 1.920 . S
Co749 O752 1.966 . S
Co749 N758 2.022 . S
Co749 N766 1.993 . S
Co749 O774 1.941 . S
C750 O751 1.258 . S
C750 O752 1.263 . S
O751 Co748 1.970 . S
O751 C750 1.258 . S
O752 Co749 1.966 . S
O752 C750 1.263 . S
C753 O754 1.235 . S
C753 O780 1.289 . S
O754 C753 1.235 . S
C755 C757 1.400 . S
C755 N758 1.351 . S
C755 C760 1.501 . S
C756 C757 1.387 . S
C756 N759 1.341 . S
C757 C755 1.400 . S
C757 C756 1.387 . S
N758 Co749 2.022 . S
N758 C755 1.351 . S
N758 N759 1.365 . S
N759 C756 1.341 . S
N759 N758 1.365 . S
N759 H779 0.862 . S
C760 C755 1.501 . S
C760 H761 0.961 . S
C760 H762 0.961 . S
C760 H763 0.960 . S
H761 C760 0.961 . S
H762 C760 0.961 . S
H763 C760 0.960 . S
C764 N765 1.342 . S
C764 C768 1.401 . S
C764 C769 1.499 . S
N765 Co748 1.989 . S
N765 C764 1.342 . S
N765 N766 1.388 . S
N766 Co749 1.993 . S
N766 N765 1.388 . S
N766 C767 1.346 . S
C767 N766 1.346 . S
C767 C768 1.396 . S
C767 C777 1.510 . S
C768 C764 1.401 . S
C768 C767 1.396 . S
C769 C764 1.499 . S
C769 H770 0.959 . S
C769 H771 0.960 . S
C769 H772 0.961 . S
H770 C769 0.959 . S
H771 C769 0.960 . S
H772 C769 0.961 . S
O773 Co748 1.967 . S
O773 C781 1.258 . S
O774 Co749 1.941 . S
O774 C781 1.266 . S
H775 C777 0.959 . S
H776 C777 0.961 . S
C777 C767 1.510 . S
C777 H775 0.959 . S
C777 H776 0.961 . S
C777 H778 0.960 . S
H778 C777 0.960 . S
H779 N759 0.862 . S
O780 Co748 1.920 . S
O780 C753 1.289 . S
C781 O773 1.258 . S
C781 O774 1.266 . S
Co782 O785 1.970 . S
Co782 N799 1.989 . S
Co782 O807 1.967 . S
Co782 O814 1.920 . S
Co783 O786 1.966 . S
Co783 N792 2.022 . S
Co783 N800 1.993 . S
Co783 O808 1.941 . S
C784 O785 1.258 . S
C784 O786 1.263 . S
O785 Co782 1.970 . S
O785 C784 1.258 . S
O786 Co783 1.966 . S
O786 C784 1.263 . S
C787 O788 1.235 . S
C787 O814 1.289 . S
O788 C787 1.235 . S
C789 C791 1.400 . S
C789 N792 1.351 . S
C789 C794 1.501 . S
C790 C791 1.387 . S
C790 N793 1.341 . S
C791 C789 1.400 . S
C791 C790 1.387 . S
N792 Co783 2.022 . S
N792 C789 1.351 . S
N792 N793 1.365 . S
N793 C790 1.341 . S
N793 N792 1.365 . S
N793 H813 0.862 . S
C794 C789 1.501 . S
C794 H795 0.961 . S
C794 H796 0.961 . S
C794 H797 0.960 . S
H795 C794 0.961 . S
H796 C794 0.961 . S
H797 C794 0.960 . S
C798 N799 1.342 . S
C798 C802 1.401 . S
C798 C803 1.499 . S
N799 Co782 1.989 . S
N799 C798 1.342 . S
N799 N800 1.388 . S
N800 Co783 1.993 . S
N800 N799 1.388 . S
N800 C801 1.346 . S
C801 N800 1.346 . S
C801 C802 1.396 . S
C801 C811 1.510 . S
C802 C798 1.401 . S
C802 C801 1.396 . S
C803 C798 1.499 . S
C803 H804 0.959 . S
C803 H805 0.960 . S
C803 H806 0.961 . S
H804 C803 0.959 . S
H805 C803 0.960 . S
H806 C803 0.961 . S
O807 Co782 1.967 . S
O807 C815 1.258 . S
O808 Co783 1.941 . S
O808 C815 1.266 . S
H809 C811 0.959 . S
H810 C811 0.961 . S
C811 C801 1.510 . S
C811 H809 0.959 . S
C811 H810 0.961 . S
C811 H812 0.960 . S
H812 C811 0.960 . S
H813 N793 0.862 . S
O814 Co782 1.920 . S
O814 C787 1.289 . S
C815 O807 1.258 . S
C815 O808 1.266 . S
Co816 O819 1.970 . S
Co816 N833 1.989 . S
Co816 O841 1.967 . S
Co816 O848 1.920 . S
Co817 O820 1.966 . S
Co817 N826 2.022 . S
Co817 N834 1.993 . S
Co817 O842 1.941 . S
C818 O819 1.258 . S
C818 O820 1.263 . S
O819 Co816 1.970 . S
O819 C818 1.258 . S
O820 Co817 1.966 . S
O820 C818 1.263 . S
C821 O822 1.235 . S
C821 O848 1.289 . S
O822 C821 1.235 . S
C823 C825 1.400 . S
C823 N826 1.351 . S
C823 C828 1.501 . S
C824 C825 1.387 . S
C824 N827 1.341 . S
C825 C823 1.400 . S
C825 C824 1.387 . S
N826 Co817 2.022 . S
N826 C823 1.351 . S
N826 N827 1.365 . S
N827 C824 1.341 . S
N827 N826 1.365 . S
N827 H847 0.862 . S
C828 C823 1.501 . S
C828 H829 0.961 . S
C828 H830 0.961 . S
C828 H831 0.960 . S
H829 C828 0.961 . S
H830 C828 0.961 . S
H831 C828 0.960 . S
C832 N833 1.342 . S
C832 C836 1.401 . S
C832 C837 1.499 . S
N833 Co816 1.989 . S
N833 C832 1.342 . S
N833 N834 1.388 . S
N834 Co817 1.993 . S
N834 N833 1.388 . S
N834 C835 1.346 . S
C835 N834 1.346 . S
C835 C836 1.396 . S
C835 C845 1.510 . S
C836 C832 1.401 . S
C836 C835 1.396 . S
C837 C832 1.499 . S
C837 H838 0.959 . S
C837 H839 0.960 . S
C837 H840 0.961 . S
H838 C837 0.959 . S
H839 C837 0.960 . S
H840 C837 0.961 . S
O841 Co816 1.967 . S
O841 C849 1.258 . S
O842 Co817 1.941 . S
O842 C849 1.266 . S
H843 C845 0.959 . S
H844 C845 0.961 . S
C845 C835 1.510 . S
C845 H843 0.959 . S
C845 H844 0.961 . S
C845 H846 0.960 . S
H846 C845 0.960 . S
H847 N827 0.862 . S
O848 Co816 1.920 . S
O848 C821 1.289 . S
C849 O841 1.258 . S
C849 O842 1.266 . S
Co850 O853 1.970 . S
Co850 N867 1.989 . S
Co850 O875 1.967 . S
Co850 O882 1.920 . S
Co851 O854 1.966 . S
Co851 N860 2.022 . S
Co851 N868 1.993 . S
Co851 O876 1.941 . S
C852 O853 1.258 . S
C852 O854 1.263 . S
O853 Co850 1.970 . S
O853 C852 1.258 . S
O854 Co851 1.966 . S
O854 C852 1.263 . S
C855 O856 1.235 . S
C855 O882 1.289 . S
O856 C855 1.235 . S
C857 C859 1.400 . S
C857 N860 1.351 . S
C857 C862 1.501 . S
C858 C859 1.387 . S
C858 N861 1.341 . S
C859 C857 1.400 . S
C859 C858 1.387 . S
N860 Co851 2.022 . S
N860 C857 1.351 . S
N860 N861 1.365 . S
N861 C858 1.341 . S
N861 N860 1.365 . S
N861 H881 0.862 . S
C862 C857 1.501 . S
C862 H863 0.961 . S
C862 H864 0.961 . S
C862 H865 0.960 . S
H863 C862 0.961 . S
H864 C862 0.961 . S
H865 C862 0.960 . S
C866 N867 1.342 . S
C866 C870 1.401 . S
C866 C871 1.499 . S
N867 Co850 1.989 . S
N867 C866 1.342 . S
N867 N868 1.388 . S
N868 Co851 1.993 . S
N868 N867 1.388 . S
N868 C869 1.346 . S
C869 N868 1.346 . S
C869 C870 1.396 . S
C869 C879 1.510 . S
C870 C866 1.401 . S
C870 C869 1.396 . S
C871 C866 1.499 . S
C871 H872 0.959 . S
C871 H873 0.960 . S
C871 H874 0.961 . S
H872 C871 0.959 . S
H873 C871 0.960 . S
H874 C871 0.961 . S
O875 Co850 1.967 . S
O875 C883 1.258 . S
O876 Co851 1.941 . S
O876 C883 1.266 . S
H877 C879 0.959 . S
H878 C879 0.961 . S
C879 C869 1.510 . S
C879 H877 0.959 . S
C879 H878 0.961 . S
C879 H880 0.960 . S
H880 C879 0.960 . S
H881 N861 0.862 . S
O882 Co850 1.920 . S
O882 C855 1.289 . S
C883 O875 1.258 . S
C883 O876 1.266 . S
Co884 O887 1.970 . S
Co884 N901 1.989 . S
Co884 O909 1.967 . S
Co884 O916 1.920 . S
Co885 O888 1.966 . S
Co885 N894 2.022 . S
Co885 N902 1.993 . S
Co885 O910 1.941 . S
C886 O887 1.258 . S
C886 O888 1.263 . S
O887 Co884 1.970 . S
O887 C886 1.258 . S
O888 Co885 1.966 . S
O888 C886 1.263 . S
C889 O890 1.235 . S
C889 O916 1.289 . S
O890 C889 1.235 . S
C891 C893 1.400 . S
C891 N894 1.351 . S
C891 C896 1.501 . S
C892 C893 1.387 . S
C892 N895 1.341 . S
C893 C891 1.400 . S
C893 C892 1.387 . S
N894 Co885 2.022 . S
N894 C891 1.351 . S
N894 N895 1.365 . S
N895 C892 1.341 . S
N895 N894 1.365 . S
N895 H915 0.862 . S
C896 C891 1.501 . S
C896 H897 0.961 . S
C896 H898 0.961 . S
C896 H899 0.960 . S
H897 C896 0.961 . S
H898 C896 0.961 . S
H899 C896 0.960 . S
C900 N901 1.342 . S
C900 C904 1.401 . S
C900 C905 1.499 . S
N901 Co884 1.989 . S
N901 C900 1.342 . S
N901 N902 1.388 . S
N902 Co885 1.993 . S
N902 N901 1.388 . S
N902 C903 1.346 . S
C903 N902 1.346 . S
C903 C904 1.396 . S
C903 C913 1.510 . S
C904 C900 1.401 . S
C904 C903 1.396 . S
C905 C900 1.499 . S
C905 H906 0.959 . S
C905 H907 0.960 . S
C905 H908 0.961 . S
H906 C905 0.959 . S
H907 C905 0.960 . S
H908 C905 0.961 . S
O909 Co884 1.967 . S
O909 C917 1.258 . S
O910 Co885 1.941 . S
O910 C917 1.266 . S
H911 C913 0.959 . S
H912 C913 0.961 . S
C913 C903 1.510 . S
C913 H911 0.959 . S
C913 H912 0.961 . S
C913 H914 0.960 . S
H914 C913 0.960 . S
H915 N895 0.862 . S
O916 Co884 1.920 . S
O916 C889 1.289 . S
C917 O909 1.258 . S
C917 O910 1.266 . S
Co918 O921 1.970 . S
Co918 N935 1.989 . S
Co918 O943 1.967 . S
Co918 O950 1.920 . S
Co919 O922 1.966 . S
Co919 N928 2.022 . S
Co919 N936 1.993 . S
Co919 O944 1.941 . S
C920 O921 1.258 . S
C920 O922 1.263 . S
O921 Co918 1.970 . S
O921 C920 1.258 . S
O922 Co919 1.966 . S
O922 C920 1.263 . S
C923 O924 1.235 . S
C923 O950 1.289 . S
O924 C923 1.235 . S
C925 C927 1.400 . S
C925 N928 1.351 . S
C925 C930 1.501 . S
C926 C927 1.387 . S
C926 N929 1.341 . S
C927 C925 1.400 . S
C927 C926 1.387 . S
N928 Co919 2.022 . S
N928 C925 1.351 . S
N928 N929 1.365 . S
N929 C926 1.341 . S
N929 N928 1.365 . S
N929 H949 0.862 . S
C930 C925 1.501 . S
C930 H931 0.961 . S
C930 H932 0.961 . S
C930 H933 0.960 . S
H931 C930 0.961 . S
H932 C930 0.961 . S
H933 C930 0.960 . S
C934 N935 1.342 . S
C934 C938 1.401 . S
C934 C939 1.499 . S
N935 Co918 1.989 . S
N935 C934 1.342 . S
N935 N936 1.388 . S
N936 Co919 1.993 . S
N936 N935 1.388 . S
N936 C937 1.346 . S
C937 N936 1.346 . S
C937 C938 1.396 . S
C937 C947 1.510 . S
C938 C934 1.401 . S
C938 C937 1.396 . S
C939 C934 1.499 . S
C939 H940 0.959 . S
C939 H941 0.960 . S
C939 H942 0.961 . S
H940 C939 0.959 . S
H941 C939 0.960 . S
H942 C939 0.961 . S
O943 Co918 1.967 . S
O943 C951 1.258 . S
O944 Co919 1.941 . S
O944 C951 1.266 . S
H945 C947 0.959 . S
H946 C947 0.961 . S
C947 C937 1.510 . S
C947 H945 0.959 . S
C947 H946 0.961 . S
C947 H948 0.960 . S
H948 C947 0.960 . S
H949 N929 0.862 . S
O950 Co918 1.920 . S
O950 C923 1.289 . S
C951 O943 1.258 . S
C951 O944 1.266 . S
Co952 O955 1.970 . S
Co952 N969 1.989 . S
Co952 O977 1.967 . S
Co952 O984 1.920 . S
Co953 O956 1.966 . S
Co953 N962 2.022 . S
Co953 N970 1.993 . S
Co953 O978 1.941 . S
C954 O955 1.258 . S
C954 O956 1.263 . S
O955 Co952 1.970 . S
O955 C954 1.258 . S
O956 Co953 1.966 . S
O956 C954 1.263 . S
C957 O958 1.235 . S
C957 O984 1.289 . S
O958 C957 1.235 . S
C959 C961 1.400 . S
C959 N962 1.351 . S
C959 C964 1.501 . S
C960 C961 1.387 . S
C960 N963 1.341 . S
C961 C959 1.400 . S
C961 C960 1.387 . S
N962 Co953 2.022 . S
N962 C959 1.351 . S
N962 N963 1.365 . S
N963 C960 1.341 . S
N963 N962 1.365 . S
N963 H983 0.862 . S
C964 C959 1.501 . S
C964 H965 0.961 . S
C964 H966 0.961 . S
C964 H967 0.960 . S
H965 C964 0.961 . S
H966 C964 0.961 . S
H967 C964 0.960 . S
C968 N969 1.342 . S
C968 C972 1.401 . S
C968 C973 1.499 . S
N969 Co952 1.989 . S
N969 C968 1.342 . S
N969 N970 1.388 . S
N970 Co953 1.993 . S
N970 N969 1.388 . S
N970 C971 1.346 . S
C971 N970 1.346 . S
C971 C972 1.396 . S
C971 C981 1.510 . S
C972 C968 1.401 . S
C972 C971 1.396 . S
C973 C968 1.499 . S
C973 H974 0.959 . S
C973 H975 0.960 . S
C973 H976 0.961 . S
H974 C973 0.959 . S
H975 C973 0.960 . S
H976 C973 0.961 . S
O977 Co952 1.967 . S
O977 C985 1.258 . S
O978 Co953 1.941 . S
O978 C985 1.266 . S
H979 C981 0.959 . S
H980 C981 0.961 . S
C981 C971 1.510 . S
C981 H979 0.959 . S
C981 H980 0.961 . S
C981 H982 0.960 . S
H982 C981 0.960 . S
H983 N963 0.862 . S
O984 Co952 1.920 . S
O984 C957 1.289 . S
C985 O977 1.258 . S
C985 O978 1.266 . S
Co986 O989 1.970 . S
Co986 N1003 1.989 . S
Co986 O1011 1.967 . S
Co986 O1018 1.920 . S
Co987 O990 1.966 . S
Co987 N996 2.022 . S
Co987 N1004 1.993 . S
Co987 O1012 1.941 . S
C988 O989 1.258 . S
C988 O990 1.263 . S
O989 Co986 1.970 . S
O989 C988 1.258 . S
O990 Co987 1.966 . S
O990 C988 1.263 . S
C991 O992 1.235 . S
C991 O1018 1.289 . S
O992 C991 1.235 . S
C993 C995 1.400 . S
C993 N996 1.351 . S
C993 C998 1.501 . S
C994 C995 1.387 . S
C994 N997 1.341 . S
C995 C993 1.400 . S
C995 C994 1.387 . S
N996 Co987 2.022 . S
N996 C993 1.351 . S
N996 N997 1.365 . S
N997 C994 1.341 . S
N997 N996 1.365 . S
N997 H1017 0.862 . S
C998 C993 1.501 . S
C998 H999 0.961 . S
C998 H1000 0.961 . S
C998 H1001 0.960 . S
H999 C998 0.961 . S
H1000 C998 0.961 . S
H1001 C998 0.960 . S
C1002 N1003 1.342 . S
C1002 C1006 1.401 . S
C1002 C1007 1.499 . S
N1003 Co986 1.989 . S
N1003 C1002 1.342 . S
N1003 N1004 1.388 . S
N1004 Co987 1.993 . S
N1004 N1003 1.388 . S
N1004 C1005 1.346 . S
C1005 N1004 1.346 . S
C1005 C1006 1.396 . S
C1005 C1015 1.510 . S
C1006 C1002 1.401 . S
C1006 C1005 1.396 . S
C1007 C1002 1.499 . S
C1007 H1008 0.959 . S
C1007 H1009 0.960 . S
C1007 H1010 0.961 . S
H1008 C1007 0.959 . S
H1009 C1007 0.960 . S
H1010 C1007 0.961 . S
O1011 Co986 1.967 . S
O1011 C1019 1.258 . S
O1012 Co987 1.941 . S
O1012 C1019 1.266 . S
H1013 C1015 0.959 . S
H1014 C1015 0.961 . S
C1015 C1005 1.510 . S
C1015 H1013 0.959 . S
C1015 H1014 0.961 . S
C1015 H1016 0.960 . S
H1016 C1015 0.960 . S
H1017 N997 0.862 . S
O1018 Co986 1.920 . S
O1018 C991 1.289 . S
C1019 O1011 1.258 . S
C1019 O1012 1.266 . S
Co1020 O1023 1.970 . S
Co1020 N1037 1.989 . S
Co1020 O1045 1.967 . S
Co1020 O1052 1.920 . S
Co1021 O1024 1.966 . S
Co1021 N1030 2.022 . S
Co1021 N1038 1.993 . S
Co1021 O1046 1.941 . S
C1022 O1023 1.258 . S
C1022 O1024 1.263 . S
O1023 Co1020 1.970 . S
O1023 C1022 1.258 . S
O1024 Co1021 1.966 . S
O1024 C1022 1.263 . S
C1025 O1026 1.235 . S
C1025 O1052 1.289 . S
O1026 C1025 1.235 . S
C1027 C1029 1.400 . S
C1027 N1030 1.351 . S
C1027 C1032 1.501 . S
C1028 C1029 1.387 . S
C1028 N1031 1.341 . S
C1029 C1027 1.400 . S
C1029 C1028 1.387 . S
N1030 Co1021 2.022 . S
N1030 C1027 1.351 . S
N1030 N1031 1.365 . S
N1031 C1028 1.341 . S
N1031 N1030 1.365 . S
N1031 H1051 0.862 . S
C1032 C1027 1.501 . S
C1032 H1033 0.961 . S
C1032 H1034 0.961 . S
C1032 H1035 0.960 . S
H1033 C1032 0.961 . S
H1034 C1032 0.961 . S
H1035 C1032 0.960 . S
C1036 N1037 1.342 . S
C1036 C1040 1.401 . S
C1036 C1041 1.499 . S
N1037 Co1020 1.989 . S
N1037 C1036 1.342 . S
N1037 N1038 1.388 . S
N1038 Co1021 1.993 . S
N1038 N1037 1.388 . S
N1038 C1039 1.346 . S
C1039 N1038 1.346 . S
C1039 C1040 1.396 . S
C1039 C1049 1.510 . S
C1040 C1036 1.401 . S
C1040 C1039 1.396 . S
C1041 C1036 1.499 . S
C1041 H1042 0.959 . S
C1041 H1043 0.960 . S
C1041 H1044 0.961 . S
H1042 C1041 0.959 . S
H1043 C1041 0.960 . S
H1044 C1041 0.961 . S
O1045 Co1020 1.967 . S
O1045 C1053 1.258 . S
O1046 Co1021 1.941 . S
O1046 C1053 1.266 . S
H1047 C1049 0.959 . S
H1048 C1049 0.961 . S
C1049 C1039 1.510 . S
C1049 H1047 0.959 . S
C1049 H1048 0.961 . S
C1049 H1050 0.960 . S
H1050 C1049 0.960 . S
H1051 N1031 0.862 . S
O1052 Co1020 1.920 . S
O1052 C1025 1.289 . S
C1053 O1045 1.258 . S
C1053 O1046 1.266 . S
Co1054 O1057 1.970 . S
Co1054 N1071 1.989 . S
Co1054 O1079 1.967 . S
Co1054 O1086 1.920 . S
Co1055 O1058 1.966 . S
Co1055 N1064 2.022 . S
Co1055 N1072 1.993 . S
Co1055 O1080 1.941 . S
C1056 O1057 1.258 . S
C1056 O1058 1.263 . S
O1057 Co1054 1.970 . S
O1057 C1056 1.258 . S
O1058 Co1055 1.966 . S
O1058 C1056 1.263 . S
C1059 O1060 1.235 . S
C1059 O1086 1.289 . S
O1060 C1059 1.235 . S
C1061 C1063 1.400 . S
C1061 N1064 1.351 . S
C1061 C1066 1.501 . S
C1062 C1063 1.387 . S
C1062 N1065 1.341 . S
C1063 C1061 1.400 . S
C1063 C1062 1.387 . S
N1064 Co1055 2.022 . S
N1064 C1061 1.351 . S
N1064 N1065 1.365 . S
N1065 C1062 1.341 . S
N1065 N1064 1.365 . S
N1065 H1085 0.862 . S
C1066 C1061 1.501 . S
C1066 H1067 0.961 . S
C1066 H1068 0.961 . S
C1066 H1069 0.960 . S
H1067 C1066 0.961 . S
H1068 C1066 0.961 . S
H1069 C1066 0.960 . S
C1070 N1071 1.342 . S
C1070 C1074 1.401 . S
C1070 C1075 1.499 . S
N1071 Co1054 1.989 . S
N1071 C1070 1.342 . S
N1071 N1072 1.388 . S
N1072 Co1055 1.993 . S
N1072 N1071 1.388 . S
N1072 C1073 1.346 . S
C1073 N1072 1.346 . S
C1073 C1074 1.396 . S
C1073 C1083 1.510 . S
C1074 C1070 1.401 . S
C1074 C1073 1.396 . S
C1075 C1070 1.499 . S
C1075 H1076 0.959 . S
C1075 H1077 0.960 . S
C1075 H1078 0.961 . S
H1076 C1075 0.959 . S
H1077 C1075 0.960 . S
H1078 C1075 0.961 . S
O1079 Co1054 1.967 . S
O1079 C1087 1.258 . S
O1080 Co1055 1.941 . S
O1080 C1087 1.266 . S
H1081 C1083 0.959 . S
H1082 C1083 0.961 . S
C1083 C1073 1.510 . S
C1083 H1081 0.959 . S
C1083 H1082 0.961 . S
C1083 H1084 0.960 . S
H1084 C1083 0.960 . S
H1085 N1065 0.862 . S
O1086 Co1054 1.920 . S
O1086 C1059 1.289 . S
C1087 O1079 1.258 . S
C1087 O1080 1.266 . S
C1088 C1089 1.363 . S
C1088 C1094 1.379 . S
C1088 N1096 1.356 . S
C1089 C1088 1.363 . S
C1089 C1095 1.363 . S
C1090 C1091 1.363 . S
C1090 C1095 1.379 . S
C1090 N1097 1.356 . S
C1091 C1090 1.363 . S
C1091 C1094 1.363 . S
N1092 C1094 1.356 . S
N1092 H1104 0.984 . S
N1092 H1105 0.985 . S
N1093 C1095 1.356 . S
N1093 H1098 0.984 . S
N1093 H1099 0.985 . S
C1094 C1088 1.379 . S
C1094 C1091 1.363 . S
C1094 N1092 1.356 . S
C1095 C1089 1.363 . S
C1095 C1090 1.379 . S
C1095 N1093 1.356 . S
N1096 C1088 1.356 . S
N1096 H1102 0.984 . S
N1096 H1103 0.984 . S
N1097 C1090 1.356 . S
N1097 H1100 0.984 . S
N1097 H1101 0.985 . S
H1098 N1093 0.984 . S
H1099 N1093 0.985 . S
H1100 N1097 0.984 . S
H1101 N1097 0.985 . S
H1102 N1096 0.984 . S
H1103 N1096 0.984 . S
H1104 N1092 0.984 . S
H1105 N1092 0.985 . S
C1106 C1107 1.363 . S
C1106 C1112 1.379 . S
C1106 N1114 1.356 . S
C1107 C1106 1.363 . S
C1107 C1113 1.363 . S
C1108 C1109 1.363 . S
C1108 C1113 1.379 . S
C1108 N1115 1.356 . S
C1109 C1108 1.363 . S
C1109 C1112 1.363 . S
N1110 C1112 1.356 . S
N1110 H1122 0.984 . S
N1110 H1123 0.985 . S
N1111 C1113 1.356 1_655 S
N1111 H1116 0.984 . S
N1111 H1117 0.985 . S
C1112 C1106 1.379 . S
C1112 C1109 1.363 . S
C1112 N1110 1.356 . S
C1113 C1107 1.363 . S
C1113 C1108 1.379 . S
C1113 N1111 1.356 1_455 S
N1114 C1106 1.356 . S
N1114 H1120 0.984 . S
N1114 H1121 0.984 . S
N1115 C1108 1.356 . S
N1115 H1118 0.984 . S
N1115 H1119 0.985 . S
H1116 N1111 0.984 . S
H1117 N1111 0.985 . S
H1118 N1115 0.984 . S
H1119 N1115 0.985 . S
H1120 N1114 0.984 . S
H1121 N1114 0.984 . S
H1122 N1110 0.984 . S
H1123 N1110 0.985 . S
C1124 C1125 1.363 . S
C1124 C1130 1.379 . S
C1124 N1132 1.356 . S
C1125 C1124 1.363 . S
C1125 C1131 1.363 . S
C1126 C1127 1.363 . S
C1126 C1131 1.379 . S
C1126 N1133 1.356 . S
C1127 C1126 1.363 . S
C1127 C1130 1.363 . S
N1128 C1130 1.356 . S
N1128 H1140 0.984 . S
N1128 H1141 0.985 . S
N1129 C1131 1.356 . S
N1129 H1134 0.984 . S
N1129 H1135 0.985 . S
C1130 C1124 1.379 . S
C1130 C1127 1.363 . S
C1130 N1128 1.356 . S
C1131 C1125 1.363 . S
C1131 C1126 1.379 . S
C1131 N1129 1.356 . S
N1132 C1124 1.356 . S
N1132 H1138 0.984 . S
N1132 H1139 0.984 . S
N1133 C1126 1.356 . S
N1133 H1136 0.984 . S
N1133 H1137 0.985 . S
H1134 N1129 0.984 . S
H1135 N1129 0.985 . S
H1136 N1133 0.984 . S
H1137 N1133 0.985 . S
H1138 N1132 0.984 . S
H1139 N1132 0.984 . S
H1140 N1128 0.984 . S
H1141 N1128 0.985 . S
C1142 C1143 1.363 . S
C1142 C1148 1.379 . S
C1142 N1150 1.356 . S
C1143 C1142 1.363 . S
C1143 C1149 1.363 . S
C1144 C1145 1.363 . S
C1144 C1149 1.379 . S
C1144 N1151 1.356 . S
C1145 C1144 1.363 . S
C1145 C1148 1.363 . S
N1146 C1148 1.356 . S
N1146 H1158 0.984 . S
N1146 H1159 0.985 . S
N1147 C1149 1.356 . S
N1147 H1152 0.984 . S
N1147 H1153 0.985 . S
C1148 C1142 1.379 . S
C1148 C1145 1.363 . S
C1148 N1146 1.356 . S
C1149 C1143 1.363 . S
C1149 C1144 1.379 . S
C1149 N1147 1.356 . S
N1150 C1142 1.356 . S
N1150 H1156 0.984 . S
N1150 H1157 0.984 . S
N1151 C1144 1.356 . S
N1151 H1154 0.984 . S
N1151 H1155 0.985 . S
H1152 N1147 0.984 . S
H1153 N1147 0.985 . S
H1154 N1151 0.984 . S
H1155 N1151 0.985 . S
H1156 N1150 0.984 . S
H1157 N1150 0.984 . S
H1158 N1146 0.984 . S
H1159 N1146 0.985 . S
C1160 C1161 1.363 . S
C1160 C1166 1.379 . S
C1160 N1168 1.356 . S
C1161 C1160 1.363 . S
C1161 C1167 1.363 . S
C1162 C1163 1.363 . S
C1162 C1167 1.379 . S
C1162 N1169 1.356 . S
C1163 C1162 1.363 . S
C1163 C1166 1.363 . S
N1164 C1166 1.356 . S
N1164 H1176 0.984 . S
N1164 H1177 0.985 . S
N1165 C1167 1.356 . S
N1165 H1170 0.984 . S
N1165 H1171 0.985 . S
C1166 C1160 1.379 . S
C1166 C1163 1.363 . S
C1166 N1164 1.356 . S
C1167 C1161 1.363 . S
C1167 C1162 1.379 . S
C1167 N1165 1.356 . S
N1168 C1160 1.356 . S
N1168 H1174 0.984 . S
N1168 H1175 0.984 . S
N1169 C1162 1.356 . S
N1169 H1172 0.984 . S
N1169 H1173 0.985 . S
H1170 N1165 0.984 . S
H1171 N1165 0.985 . S
H1172 N1169 0.984 . S
H1173 N1169 0.985 . S
H1174 N1168 0.984 . S
H1175 N1168 0.984 . S
H1176 N1164 0.984 . S
H1177 N1164 0.985 . S
C1178 C1179 1.363 . S
C1178 C1184 1.379 . S
C1178 N1186 1.356 . S
C1179 C1178 1.363 . S
C1179 C1185 1.363 . S
C1180 C1181 1.363 . S
C1180 C1185 1.379 . S
C1180 N1187 1.356 . S
C1181 C1180 1.363 . S
C1181 C1184 1.363 . S
N1182 C1184 1.356 . S
N1182 H1194 0.984 . S
N1182 H1195 0.985 . S
N1183 C1185 1.356 . S
N1183 H1188 0.984 . S
N1183 H1189 0.985 . S
C1184 C1178 1.379 . S
C1184 C1181 1.363 . S
C1184 N1182 1.356 . S
C1185 C1179 1.363 . S
C1185 C1180 1.379 . S
C1185 N1183 1.356 . S
N1186 C1178 1.356 . S
N1186 H1192 0.984 . S
N1186 H1193 0.984 . S
N1187 C1180 1.356 . S
N1187 H1190 0.984 . S
N1187 H1191 0.985 . S
H1188 N1183 0.984 . S
H1189 N1183 0.985 . S
H1190 N1187 0.984 . S
H1191 N1187 0.985 . S
H1192 N1186 0.984 . S
H1193 N1186 0.984 . S
H1194 N1182 0.984 . S
H1195 N1182 0.985 . S
C1196 C1197 1.363 . S
C1196 C1202 1.379 . S
C1196 N1204 1.356 . S
C1197 C1196 1.363 . S
C1197 C1203 1.363 . S
C1198 C1199 1.363 . S
C1198 C1203 1.379 . S
C1198 N1205 1.356 . S
C1199 C1198 1.363 . S
C1199 C1202 1.363 . S
N1200 C1202 1.356 . S
N1200 H1212 0.984 . S
N1200 H1213 0.985 . S
N1201 C1203 1.356 . S
N1201 H1206 0.984 . S
N1201 H1207 0.985 . S
C1202 C1196 1.379 . S
C1202 C1199 1.363 . S
C1202 N1200 1.356 . S
C1203 C1197 1.363 . S
C1203 C1198 1.379 . S
C1203 N1201 1.356 . S
N1204 C1196 1.356 . S
N1204 H1210 0.984 . S
N1204 H1211 0.984 . S
N1205 C1198 1.356 . S
N1205 H1208 0.984 . S
N1205 H1209 0.985 . S
H1206 N1201 0.984 . S
H1207 N1201 0.985 . S
H1208 N1205 0.984 . S
H1209 N1205 0.985 . S
H1210 N1204 0.984 . S
H1211 N1204 0.984 . S
H1212 N1200 0.984 . S
H1213 N1200 0.985 . S
C1214 C1215 1.363 . S
C1214 C1220 1.379 . S
C1214 N1222 1.356 . S
C1215 C1214 1.363 . S
C1215 C1221 1.363 . S
C1216 C1217 1.363 . S
C1216 C1221 1.379 . S
C1216 N1223 1.356 . S
C1217 C1216 1.363 . S
C1217 C1220 1.363 . S
N1218 C1220 1.356 1_655 S
N1218 H1230 0.984 . S
N1218 H1231 0.985 . S
N1219 C1221 1.356 . S
N1219 H1224 0.984 . S
N1219 H1225 0.985 . S
C1220 C1214 1.379 . S
C1220 C1217 1.363 . S
C1220 N1218 1.356 1_455 S
C1221 C1215 1.363 . S
C1221 C1216 1.379 . S
C1221 N1219 1.356 . S
N1222 C1214 1.356 . S
N1222 H1228 0.984 . S
N1222 H1229 0.984 . S
N1223 C1216 1.356 . S
N1223 H1226 0.984 . S
N1223 H1227 0.985 . S
H1224 N1219 0.984 . S
H1225 N1219 0.985 . S
H1226 N1223 0.984 . S
H1227 N1223 0.985 . S
H1228 N1222 0.984 . S
H1229 N1222 0.984 . S
H1230 N1218 0.984 . S
H1231 N1218 0.985 . S
C1232 C1233 1.363 . S
C1232 C1238 1.379 . S
C1232 N1240 1.356 . S
C1233 C1232 1.363 . S
C1233 C1239 1.363 . S
C1234 C1235 1.363 . S
C1234 C1239 1.379 . S
C1234 N1241 1.356 . S
C1235 C1234 1.363 . S
C1235 C1238 1.363 . S
N1236 C1238 1.356 . S
N1236 H1248 0.984 . S
N1236 H1249 0.985 . S
N1237 C1239 1.356 . S
N1237 H1242 0.984 . S
N1237 H1243 0.985 . S
C1238 C1232 1.379 . S
C1238 C1235 1.363 . S
C1238 N1236 1.356 . S
C1239 C1233 1.363 . S
C1239 C1234 1.379 . S
C1239 N1237 1.356 . S
N1240 C1232 1.356 . S
N1240 H1246 0.984 . S
N1240 H1247 0.984 . S
N1241 C1234 1.356 . S
N1241 H1244 0.984 . S
N1241 H1245 0.985 . S
H1242 N1237 0.984 . S
H1243 N1237 0.985 . S
H1244 N1241 0.984 . S
H1245 N1241 0.985 . S
H1246 N1240 0.984 . S
H1247 N1240 0.984 . S
H1248 N1236 0.984 . S
H1249 N1236 0.985 . S
C1250 C1251 1.363 . S
C1250 C1256 1.379 . S
C1250 N1258 1.356 . S
C1251 C1250 1.363 . S
C1251 C1257 1.363 . S
C1252 C1253 1.363 . S
C1252 C1257 1.379 . S
C1252 N1259 1.356 . S
C1253 C1252 1.363 . S
C1253 C1256 1.363 . S
N1254 C1256 1.356 . S
N1254 H1266 0.984 . S
N1254 H1267 0.985 . S
N1255 C1257 1.356 . S
N1255 H1260 0.984 . S
N1255 H1261 0.985 . S
C1256 C1250 1.379 . S
C1256 C1253 1.363 . S
C1256 N1254 1.356 . S
C1257 C1251 1.363 . S
C1257 C1252 1.379 . S
C1257 N1255 1.356 . S
N1258 C1250 1.356 . S
N1258 H1264 0.984 . S
N1258 H1265 0.984 1_655 S
N1259 C1252 1.356 . S
N1259 H1262 0.984 . S
N1259 H1263 0.985 . S
H1260 N1255 0.984 . S
H1261 N1255 0.985 . S
H1262 N1259 0.984 . S
H1263 N1259 0.985 . S
H1264 N1258 0.984 . S
H1265 N1258 0.984 1_455 S
H1266 N1254 0.984 . S
H1267 N1254 0.985 . S
C1268 C1269 1.363 . S
C1268 C1274 1.379 . S
C1268 N1276 1.356 . S
C1269 C1268 1.363 . S
C1269 C1275 1.363 . S
C1270 C1271 1.363 . S
C1270 C1275 1.379 . S
C1270 N1277 1.356 . S
C1271 C1270 1.363 . S
C1271 C1274 1.363 . S
N1272 C1274 1.356 . S
N1272 H1284 0.984 . S
N1272 H1285 0.985 . S
N1273 C1275 1.356 . S
N1273 H1278 0.984 . S
N1273 H1279 0.985 . S
C1274 C1268 1.379 . S
C1274 C1271 1.363 . S
C1274 N1272 1.356 . S
C1275 C1269 1.363 . S
C1275 C1270 1.379 . S
C1275 N1273 1.356 . S
N1276 C1268 1.356 . S
N1276 H1282 0.984 . S
N1276 H1283 0.984 . S
N1277 C1270 1.356 . S
N1277 H1280 0.984 . S
N1277 H1281 0.985 . S
H1278 N1273 0.984 . S
H1279 N1273 0.985 . S
H1280 N1277 0.984 . S
H1281 N1277 0.985 . S
H1282 N1276 0.984 . S
H1283 N1276 0.984 . S
H1284 N1272 0.984 . S
H1285 N1272 0.985 . S
C1286 C1287 1.363 . S
C1286 C1292 1.379 . S
C1286 N1294 1.356 . S
C1287 C1286 1.363 . S
C1287 C1293 1.363 . S
C1288 C1289 1.363 . S
C1288 C1293 1.379 . S
C1288 N1295 1.356 . S
C1289 C1288 1.363 . S
C1289 C1292 1.363 . S
N1290 C1292 1.356 . S
N1290 H1302 0.984 . S
N1290 H1303 0.985 . S
N1291 C1293 1.356 . S
N1291 H1296 0.984 . S
N1291 H1297 0.985 . S
C1292 C1286 1.379 . S
C1292 C1289 1.363 . S
C1292 N1290 1.356 . S
C1293 C1287 1.363 . S
C1293 C1288 1.379 . S
C1293 N1291 1.356 . S
N1294 C1286 1.356 . S
N1294 H1300 0.984 . S
N1294 H1301 0.984 . S
N1295 C1288 1.356 . S
N1295 H1298 0.984 . S
N1295 H1299 0.985 . S
H1296 N1291 0.984 . S
H1297 N1291 0.985 . S
H1298 N1295 0.984 . S
H1299 N1295 0.985 . S
H1300 N1294 0.984 . S
H1301 N1294 0.984 . S
H1302 N1290 0.984 . S
H1303 N1290 0.985 . S
C1304 C1305 1.363 . S
C1304 C1310 1.379 . S
C1304 N1312 1.356 . S
C1305 C1304 1.363 . S
C1305 C1311 1.363 . S
C1306 C1307 1.363 . S
C1306 C1311 1.379 . S
C1306 N1313 1.356 . S
C1307 C1306 1.363 . S
C1307 C1310 1.363 . S
N1308 C1310 1.356 . S
N1308 H1320 0.984 . S
N1308 H1321 0.985 . S
N1309 C1311 1.356 . S
N1309 H1314 0.984 . S
N1309 H1315 0.985 . S
C1310 C1304 1.379 . S
C1310 C1307 1.363 . S
C1310 N1308 1.356 . S
C1311 C1305 1.363 . S
C1311 C1306 1.379 . S
C1311 N1309 1.356 . S
N1312 C1304 1.356 . S
N1312 H1318 0.984 . S
N1312 H1319 0.984 . S
N1313 C1306 1.356 . S
N1313 H1316 0.984 . S
N1313 H1317 0.985 . S
H1314 N1309 0.984 . S
H1315 N1309 0.985 . S
H1316 N1313 0.984 . S
H1317 N1313 0.985 . S
H1318 N1312 0.984 . S
H1319 N1312 0.984 . S
H1320 N1308 0.984 . S
H1321 N1308 0.985 . S
C1322 C1323 1.363 . S
C1322 C1328 1.379 . S
C1322 N1330 1.356 . S
C1323 C1322 1.363 . S
C1323 C1329 1.363 . S
C1324 C1325 1.363 . S
C1324 C1329 1.379 . S
C1324 N1331 1.356 . S
C1325 C1324 1.363 . S
C1325 C1328 1.363 . S
N1326 C1328 1.356 . S
N1326 H1338 0.984 . S
N1326 H1339 0.985 . S
N1327 C1329 1.356 . S
N1327 H1332 0.984 . S
N1327 H1333 0.985 . S
C1328 C1322 1.379 . S
C1328 C1325 1.363 . S
C1328 N1326 1.356 . S
C1329 C1323 1.363 . S
C1329 C1324 1.379 . S
C1329 N1327 1.356 . S
N1330 C1322 1.356 . S
N1330 H1336 0.984 . S
N1330 H1337 0.984 . S
N1331 C1324 1.356 . S
N1331 H1334 0.984 . S
N1331 H1335 0.985 . S
H1332 N1327 0.984 . S
H1333 N1327 0.985 . S
H1334 N1331 0.984 . S
H1335 N1331 0.985 . S
H1336 N1330 0.984 . S
H1337 N1330 0.984 . S
H1338 N1326 0.984 . S
H1339 N1326 0.985 . S
C1340 C1341 1.363 . S
C1340 C1346 1.379 . S
C1340 N1348 1.356 . S
C1341 C1340 1.363 . S
C1341 C1347 1.363 . S
C1342 C1343 1.363 . S
C1342 C1347 1.379 . S
C1342 N1349 1.356 . S
C1343 C1342 1.363 . S
C1343 C1346 1.363 . S
N1344 C1346 1.356 . S
N1344 H1356 0.984 . S
N1344 H1357 0.985 . S
N1345 C1347 1.356 . S
N1345 H1350 0.984 . S
N1345 H1351 0.985 . S
C1346 C1340 1.379 . S
C1346 C1343 1.363 . S
C1346 N1344 1.356 . S
C1347 C1341 1.363 . S
C1347 C1342 1.379 . S
C1347 N1345 1.356 . S
N1348 C1340 1.356 . S
N1348 H1354 0.984 . S
N1348 H1355 0.984 . S
N1349 C1342 1.356 . S
N1349 H1352 0.984 . S
N1349 H1353 0.985 . S
H1350 N1345 0.984 . S
H1351 N1345 0.985 . S
H1352 N1349 0.984 . S
H1353 N1349 0.985 . S
H1354 N1348 0.984 . S
H1355 N1348 0.984 . S
H1356 N1344 0.984 . S
H1357 N1344 0.985 . S
C1358 C1359 1.363 . S
C1358 C1364 1.379 . S
C1358 N1366 1.356 . S
C1359 C1358 1.363 . S
C1359 C1365 1.363 . S
C1360 C1361 1.363 . S
C1360 C1365 1.379 . S
C1360 N1367 1.356 . S
C1361 C1360 1.363 . S
C1361 C1364 1.363 . S
N1362 C1364 1.356 . S
N1362 H1374 0.984 . S
N1362 H1375 0.985 . S
N1363 C1365 1.356 1_455 S
N1363 H1368 0.984 . S
N1363 H1369 0.985 . S
C1364 C1358 1.379 . S
C1364 C1361 1.363 . S
C1364 N1362 1.356 . S
C1365 C1359 1.363 . S
C1365 C1360 1.379 . S
C1365 N1363 1.356 1_655 S
N1366 C1358 1.356 . S
N1366 H1372 0.984 . S
N1366 H1373 0.984 . S
N1367 C1360 1.356 . S
N1367 H1370 0.984 . S
N1367 H1371 0.985 . S
H1368 N1363 0.984 . S
H1369 N1363 0.985 . S
H1370 N1367 0.984 . S
H1371 N1367 0.985 . S
H1372 N1366 0.984 . S
H1373 N1366 0.984 . S
H1374 N1362 0.984 . S
H1375 N1362 0.985 . S
C1376 C1377 1.363 . S
C1376 C1382 1.379 . S
C1376 N1384 1.356 . S
C1377 C1376 1.363 . S
C1377 C1383 1.363 . S
C1378 C1379 1.363 . S
C1378 C1383 1.379 . S
C1378 N1385 1.356 . S
C1379 C1378 1.363 . S
C1379 C1382 1.363 . S
N1380 C1382 1.356 . S
N1380 H1392 0.984 . S
N1380 H1393 0.985 . S
N1381 C1383 1.356 . S
N1381 H1386 0.984 . S
N1381 H1387 0.985 . S
C1382 C1376 1.379 . S
C1382 C1379 1.363 . S
C1382 N1380 1.356 . S
C1383 C1377 1.363 . S
C1383 C1378 1.379 . S
C1383 N1381 1.356 . S
N1384 C1376 1.356 . S
N1384 H1390 0.984 . S
N1384 H1391 0.984 . S
N1385 C1378 1.356 . S
N1385 H1388 0.984 . S
N1385 H1389 0.985 . S
H1386 N1381 0.984 . S
H1387 N1381 0.985 . S
H1388 N1385 0.984 . S
H1389 N1385 0.985 . S
H1390 N1384 0.984 . S
H1391 N1384 0.984 . S
H1392 N1380 0.984 . S
H1393 N1380 0.985 . S
C1394 C1395 1.363 . S
C1394 C1400 1.379 . S
C1394 N1402 1.356 . S
C1395 C1394 1.363 . S
C1395 C1401 1.363 . S
C1396 C1397 1.363 . S
C1396 C1401 1.379 . S
C1396 N1403 1.356 . S
C1397 C1396 1.363 . S
C1397 C1400 1.363 . S
N1398 C1400 1.356 . S
N1398 H1410 0.984 . S
N1398 H1411 0.985 . S
N1399 C1401 1.356 . S
N1399 H1404 0.984 . S
N1399 H1405 0.985 . S
C1400 C1394 1.379 . S
C1400 C1397 1.363 . S
C1400 N1398 1.356 . S
C1401 C1395 1.363 . S
C1401 C1396 1.379 . S
C1401 N1399 1.356 . S
N1402 C1394 1.356 . S
N1402 H1408 0.984 . S
N1402 H1409 0.984 . S
N1403 C1396 1.356 . S
N1403 H1406 0.984 . S
N1403 H1407 0.985 . S
H1404 N1399 0.984 . S
H1405 N1399 0.985 . S
H1406 N1403 0.984 . S
H1407 N1403 0.985 . S
H1408 N1402 0.984 . S
H1409 N1402 0.984 . S
H1410 N1398 0.984 . S
H1411 N1398 0.985 . S
C1412 C1413 1.363 . S
C1412 C1418 1.379 . S
C1412 N1420 1.356 . S
C1413 C1412 1.363 . S
C1413 C1419 1.363 . S
C1414 C1415 1.363 . S
C1414 C1419 1.379 . S
C1414 N1421 1.356 . S
C1415 C1414 1.363 . S
C1415 C1418 1.363 . S
N1416 C1418 1.356 . S
N1416 H1428 0.984 . S
N1416 H1429 0.985 . S
N1417 C1419 1.356 . S
N1417 H1422 0.984 . S
N1417 H1423 0.985 . S
C1418 C1412 1.379 . S
C1418 C1415 1.363 . S
C1418 N1416 1.356 . S
C1419 C1413 1.363 . S
C1419 C1414 1.379 . S
C1419 N1417 1.356 . S
N1420 C1412 1.356 . S
N1420 H1426 0.984 . S
N1420 H1427 0.984 . S
N1421 C1414 1.356 . S
N1421 H1424 0.984 . S
N1421 H1425 0.985 . S
H1422 N1417 0.984 . S
H1423 N1417 0.985 . S
H1424 N1421 0.984 . S
H1425 N1421 0.985 . S
H1426 N1420 0.984 . S
H1427 N1420 0.984 . S
H1428 N1416 0.984 . S
H1429 N1416 0.985 . S
C1430 C1431 1.363 . S
C1430 C1436 1.379 . S
C1430 N1438 1.356 . S
C1431 C1430 1.363 . S
C1431 C1437 1.363 . S
C1432 C1433 1.363 . S
C1432 C1437 1.379 . S
C1432 N1439 1.356 . S
C1433 C1432 1.363 . S
C1433 C1436 1.363 . S
N1434 C1436 1.356 . S
N1434 H1446 0.984 . S
N1434 H1447 0.985 . S
N1435 C1437 1.356 . S
N1435 H1440 0.984 . S
N1435 H1441 0.985 . S
C1436 C1430 1.379 . S
C1436 C1433 1.363 . S
C1436 N1434 1.356 . S
C1437 C1431 1.363 . S
C1437 C1432 1.379 . S
C1437 N1435 1.356 . S
N1438 C1430 1.356 . S
N1438 H1444 0.984 . S
N1438 H1445 0.984 . S
N1439 C1432 1.356 . S
N1439 H1442 0.984 1_655 S
N1439 H1443 0.985 1_655 S
H1440 N1435 0.984 . S
H1441 N1435 0.985 . S
H1442 N1439 0.984 1_455 S
H1443 N1439 0.985 1_455 S
H1444 N1438 0.984 . S
H1445 N1438 0.984 . S
H1446 N1434 0.984 . S
H1447 N1434 0.985 . S
C1448 C1449 1.363 . S
C1448 C1454 1.379 . S
C1448 N1456 1.356 . S
C1449 C1448 1.363 . S
C1449 C1455 1.363 . S
C1450 C1451 1.363 . S
C1450 C1455 1.379 . S
C1450 N1457 1.356 . S
C1451 C1450 1.363 . S
C1451 C1454 1.363 . S
N1452 C1454 1.356 . S
N1452 H1464 0.984 . S
N1452 H1465 0.985 . S
N1453 C1455 1.356 . S
N1453 H1458 0.984 . S
N1453 H1459 0.985 . S
C1454 C1448 1.379 . S
C1454 C1451 1.363 . S
C1454 N1452 1.356 . S
C1455 C1449 1.363 . S
C1455 C1450 1.379 . S
C1455 N1453 1.356 . S
N1456 C1448 1.356 . S
N1456 H1462 0.984 . S
N1456 H1463 0.984 . S
N1457 C1450 1.356 . S
N1457 H1460 0.984 . S
N1457 H1461 0.985 . S
H1458 N1453 0.984 . S
H1459 N1453 0.985 . S
H1460 N1457 0.984 . S
H1461 N1457 0.985 . S
H1462 N1456 0.984 . S
H1463 N1456 0.984 . S
H1464 N1452 0.984 . S
H1465 N1452 0.985 . S
C1466 C1467 1.363 . S
C1466 C1472 1.379 . S
C1466 N1474 1.356 . S
C1467 C1466 1.363 . S
C1467 C1473 1.363 . S
C1468 C1469 1.363 . S
C1468 C1473 1.379 . S
C1468 N1475 1.356 . S
C1469 C1468 1.363 . S
C1469 C1472 1.363 . S
N1470 C1472 1.356 . S
N1470 H1482 0.984 . S
N1470 H1483 0.985 . S
N1471 C1473 1.356 . S
N1471 H1476 0.984 . S
N1471 H1477 0.985 . S
C1472 C1466 1.379 . S
C1472 C1469 1.363 . S
C1472 N1470 1.356 . S
C1473 C1467 1.363 . S
C1473 C1468 1.379 . S
C1473 N1471 1.356 . S
N1474 C1466 1.356 . S
N1474 H1480 0.984 . S
N1474 H1481 0.984 1_655 S
N1475 C1468 1.356 . S
N1475 H1478 0.984 . S
N1475 H1479 0.985 . S
H1476 N1471 0.984 . S
H1477 N1471 0.985 . S
H1478 N1475 0.984 . S
H1479 N1475 0.985 . S
H1480 N1474 0.984 . S
H1481 N1474 0.984 1_455 S
H1482 N1470 0.984 . S
H1483 N1470 0.985 . S
C1484 C1485 1.363 . S
C1484 C1490 1.379 . S
C1484 N1492 1.356 . S
C1485 C1484 1.363 . S
C1485 C1491 1.363 . S
C1486 C1487 1.363 . S
C1486 C1491 1.379 . S
C1486 N1493 1.356 . S
C1487 C1486 1.363 . S
C1487 C1490 1.363 . S
N1488 C1490 1.356 . S
N1488 H1500 0.984 . S
N1488 H1501 0.985 . S
N1489 C1491 1.356 . S
N1489 H1494 0.984 . S
N1489 H1495 0.985 . S
C1490 C1484 1.379 . S
C1490 C1487 1.363 . S
C1490 N1488 1.356 . S
C1491 C1485 1.363 . S
C1491 C1486 1.379 . S
C1491 N1489 1.356 . S
N1492 C1484 1.356 . S
N1492 H1498 0.984 . S
N1492 H1499 0.984 . S
N1493 C1486 1.356 . S
N1493 H1496 0.984 . S
N1493 H1497 0.985 . S
H1494 N1489 0.984 . S
H1495 N1489 0.985 . S
H1496 N1493 0.984 . S
H1497 N1493 0.985 . S
H1498 N1492 0.984 . S
H1499 N1492 0.984 . S
H1500 N1488 0.984 . S
H1501 N1488 0.985 . S
C1502 C1503 1.363 . S
C1502 C1508 1.379 . S
C1502 N1510 1.356 . S
C1503 C1502 1.363 . S
C1503 C1509 1.363 . S
C1504 C1505 1.363 . S
C1504 C1509 1.379 . S
C1504 N1511 1.356 . S
C1505 C1504 1.363 . S
C1505 C1508 1.363 . S
N1506 C1508 1.356 . S
N1506 H1518 0.984 . S
N1506 H1519 0.985 . S
N1507 C1509 1.356 . S
N1507 H1512 0.984 . S
N1507 H1513 0.985 . S
C1508 C1502 1.379 . S
C1508 C1505 1.363 . S
C1508 N1506 1.356 . S
C1509 C1503 1.363 . S
C1509 C1504 1.379 . S
C1509 N1507 1.356 . S
N1510 C1502 1.356 . S
N1510 H1516 0.984 . S
N1510 H1517 0.984 . S
N1511 C1504 1.356 . S
N1511 H1514 0.984 . S
N1511 H1515 0.985 . S
H1512 N1507 0.984 . S
H1513 N1507 0.985 . S
H1514 N1511 0.984 . S
H1515 N1511 0.985 . S
H1516 N1510 0.984 . S
H1517 N1510 0.984 . S
H1518 N1506 0.984 . S
H1519 N1506 0.985 . S
C1520 C1521 1.363 . S
C1520 C1526 1.379 . S
C1520 N1528 1.356 . S
C1521 C1520 1.363 . S
C1521 C1527 1.363 . S
C1522 C1523 1.363 . S
C1522 C1527 1.379 . S
C1522 N1529 1.356 . S
C1523 C1522 1.363 . S
C1523 C1526 1.363 . S
N1524 C1526 1.356 . S
N1524 H1536 0.984 . S
N1524 H1537 0.985 . S
N1525 C1527 1.356 . S
N1525 H1530 0.984 . S
N1525 H1531 0.985 . S
C1526 C1520 1.379 . S
C1526 C1523 1.363 . S
C1526 N1524 1.356 . S
C1527 C1521 1.363 . S
C1527 C1522 1.379 . S
C1527 N1525 1.356 . S
N1528 C1520 1.356 . S
N1528 H1534 0.984 . S
N1528 H1535 0.984 . S
N1529 C1522 1.356 . S
N1529 H1532 0.984 . S
N1529 H1533 0.985 . S
H1530 N1525 0.984 . S
H1531 N1525 0.985 . S
H1532 N1529 0.984 . S
H1533 N1529 0.985 . S
H1534 N1528 0.984 . S
H1535 N1528 0.984 . S
H1536 N1524 0.984 . S
H1537 N1524 0.985 . S
C1538 C1539 1.363 . S
C1538 C1544 1.379 . S
C1538 N1546 1.356 . S
C1539 C1538 1.363 . S
C1539 C1545 1.363 . S
C1540 C1541 1.363 . S
C1540 C1545 1.379 . S
C1540 N1547 1.356 . S
C1541 C1540 1.363 . S
C1541 C1544 1.363 . S
N1542 C1544 1.356 . S
N1542 H1554 0.984 . S
N1542 H1555 0.985 . S
N1543 C1545 1.356 . S
N1543 H1548 0.984 . S
N1543 H1549 0.985 . S
C1544 C1538 1.379 . S
C1544 C1541 1.363 . S
C1544 N1542 1.356 . S
C1545 C1539 1.363 . S
C1545 C1540 1.379 . S
C1545 N1543 1.356 . S
N1546 C1538 1.356 . S
N1546 H1552 0.984 . S
N1546 H1553 0.984 . S
N1547 C1540 1.356 . S
N1547 H1550 0.984 . S
N1547 H1551 0.985 . S
H1548 N1543 0.984 . S
H1549 N1543 0.985 . S
H1550 N1547 0.984 . S
H1551 N1547 0.985 . S
H1552 N1546 0.984 . S
H1553 N1546 0.984 . S
H1554 N1542 0.984 . S
H1555 N1542 0.985 . S
C1556 C1557 1.363 . S
C1556 C1562 1.379 . S
C1556 N1564 1.356 . S
C1557 C1556 1.363 . S
C1557 C1563 1.363 . S
C1558 C1559 1.363 . S
C1558 C1563 1.379 . S
C1558 N1565 1.356 . S
C1559 C1558 1.363 . S
C1559 C1562 1.363 . S
N1560 C1562 1.356 . S
N1560 H1572 0.984 . S
N1560 H1573 0.985 . S
N1561 C1563 1.356 . S
N1561 H1566 0.984 . S
N1561 H1567 0.985 . S
C1562 C1556 1.379 . S
C1562 C1559 1.363 . S
C1562 N1560 1.356 . S
C1563 C1557 1.363 . S
C1563 C1558 1.379 . S
C1563 N1561 1.356 . S
N1564 C1556 1.356 . S
N1564 H1570 0.984 . S
N1564 H1571 0.984 . S
N1565 C1558 1.356 . S
N1565 H1568 0.984 . S
N1565 H1569 0.985 . S
H1566 N1561 0.984 . S
H1567 N1561 0.985 . S
H1568 N1565 0.984 . S
H1569 N1565 0.985 . S
H1570 N1564 0.984 . S
H1571 N1564 0.984 . S
H1572 N1560 0.984 . S
H1573 N1560 0.985 . S
C1574 C1575 1.363 . S
C1574 C1580 1.379 . S
C1574 N1582 1.356 . S
C1575 C1574 1.363 . S
C1575 C1581 1.363 . S
C1576 C1577 1.363 . S
C1576 C1581 1.379 . S
C1576 N1583 1.356 . S
C1577 C1576 1.363 . S
C1577 C1580 1.363 . S
N1578 C1580 1.356 1_655 S
N1578 H1590 0.984 . S
N1578 H1591 0.985 . S
N1579 C1581 1.356 . S
N1579 H1584 0.984 . S
N1579 H1585 0.985 . S
C1580 C1574 1.379 . S
C1580 C1577 1.363 . S
C1580 N1578 1.356 1_455 S
C1581 C1575 1.363 . S
C1581 C1576 1.379 . S
C1581 N1579 1.356 . S
N1582 C1574 1.356 . S
N1582 H1588 0.984 . S
N1582 H1589 0.984 . S
N1583 C1576 1.356 . S
N1583 H1586 0.984 . S
N1583 H1587 0.985 . S
H1584 N1579 0.984 . S
H1585 N1579 0.985 . S
H1586 N1583 0.984 . S
H1587 N1583 0.985 . S
H1588 N1582 0.984 . S
H1589 N1582 0.984 . S
H1590 N1578 0.984 . S
H1591 N1578 0.985 . S
C1592 C1593 1.363 . S
C1592 C1598 1.379 . S
C1592 N1600 1.356 . S
C1593 C1592 1.363 . S
C1593 C1599 1.363 . S
C1594 C1595 1.363 . S
C1594 C1599 1.379 . S
C1594 N1601 1.356 . S
C1595 C1594 1.363 . S
C1595 C1598 1.363 . S
N1596 C1598 1.356 . S
N1596 H1608 0.984 . S
N1596 H1609 0.985 . S
N1597 C1599 1.356 . S
N1597 H1602 0.984 . S
N1597 H1603 0.985 . S
C1598 C1592 1.379 . S
C1598 C1595 1.363 . S
C1598 N1596 1.356 . S
C1599 C1593 1.363 . S
C1599 C1594 1.379 . S
C1599 N1597 1.356 . S
N1600 C1592 1.356 . S
N1600 H1606 0.984 . S
N1600 H1607 0.984 . S
N1601 C1594 1.356 . S
N1601 H1604 0.984 . S
N1601 H1605 0.985 . S
H1602 N1597 0.984 . S
H1603 N1597 0.985 . S
H1604 N1601 0.984 . S
H1605 N1601 0.985 . S
H1606 N1600 0.984 . S
H1607 N1600 0.984 . S
H1608 N1596 0.984 . S
H1609 N1596 0.985 . S
C1610 C1611 1.363 . S
C1610 C1616 1.379 . S
C1610 N1618 1.356 . S
C1611 C1610 1.363 . S
C1611 C1617 1.363 . S
C1612 C1613 1.363 . S
C1612 C1617 1.379 . S
C1612 N1619 1.356 1_455 S
C1613 C1612 1.363 . S
C1613 C1616 1.363 . S
N1614 C1616 1.356 . S
N1614 H1626 0.984 . S
N1614 H1627 0.985 . S
N1615 C1617 1.356 . S
N1615 H1620 0.984 . S
N1615 H1621 0.985 . S
C1616 C1610 1.379 . S
C1616 C1613 1.363 . S
C1616 N1614 1.356 . S
C1617 C1611 1.363 . S
C1617 C1612 1.379 . S
C1617 N1615 1.356 . S
N1618 C1610 1.356 . S
N1618 H1624 0.984 . S
N1618 H1625 0.984 . S
N1619 C1612 1.356 1_655 S
N1619 H1622 0.984 . S
N1619 H1623 0.985 . S
H1620 N1615 0.984 . S
H1621 N1615 0.985 . S
H1622 N1619 0.984 . S
H1623 N1619 0.985 . S
H1624 N1618 0.984 . S
H1625 N1618 0.984 . S
H1626 N1614 0.984 . S
H1627 N1614 0.985 . S
C1628 C1629 1.363 . S
C1628 C1634 1.379 . S
C1628 N1636 1.356 . S
C1629 C1628 1.363 . S
C1629 C1635 1.363 . S
C1630 C1631 1.363 . S
C1630 C1635 1.379 . S
C1630 N1637 1.356 . S
C1631 C1630 1.363 . S
C1631 C1634 1.363 . S
N1632 C1634 1.356 . S
N1632 H1644 0.984 . S
N1632 H1645 0.985 . S
N1633 C1635 1.356 . S
N1633 H1638 0.984 . S
N1633 H1639 0.985 . S
C1634 C1628 1.379 . S
C1634 C1631 1.363 . S
C1634 N1632 1.356 . S
C1635 C1629 1.363 . S
C1635 C1630 1.379 . S
C1635 N1633 1.356 . S
N1636 C1628 1.356 . S
N1636 H1642 0.984 . S
N1636 H1643 0.984 . S
N1637 C1630 1.356 . S
N1637 H1640 0.984 . S
N1637 H1641 0.985 . S
H1638 N1633 0.984 . S
H1639 N1633 0.985 . S
H1640 N1637 0.984 . S
H1641 N1637 0.985 . S
H1642 N1636 0.984 . S
H1643 N1636 0.984 . S
H1644 N1632 0.984 . S
H1645 N1632 0.985 . S
C1646 C1647 1.363 . S
C1646 C1652 1.379 . S
C1646 N1654 1.356 . S
C1647 C1646 1.363 . S
C1647 C1653 1.363 . S
C1648 C1649 1.363 . S
C1648 C1653 1.379 . S
C1648 N1655 1.356 . S
C1649 C1648 1.363 . S
C1649 C1652 1.363 . S
N1650 C1652 1.356 . S
N1650 H1662 0.984 . S
N1650 H1663 0.985 . S
N1651 C1653 1.356 . S
N1651 H1656 0.984 . S
N1651 H1657 0.985 . S
C1652 C1646 1.379 . S
C1652 C1649 1.363 . S
C1652 N1650 1.356 . S
C1653 C1647 1.363 . S
C1653 C1648 1.379 . S
C1653 N1651 1.356 . S
N1654 C1646 1.356 . S
N1654 H1660 0.984 . S
N1654 H1661 0.984 . S
N1655 C1648 1.356 . S
N1655 H1658 0.984 . S
N1655 H1659 0.985 . S
H1656 N1651 0.984 . S
H1657 N1651 0.985 . S
H1658 N1655 0.984 . S
H1659 N1655 0.985 . S
H1660 N1654 0.984 . S
H1661 N1654 0.984 . S
H1662 N1650 0.984 . S
H1663 N1650 0.985 . S
C1664 C1665 1.363 . S
C1664 C1670 1.379 . S
C1664 N1672 1.356 1_565 S
C1665 C1664 1.363 . S
C1665 C1671 1.363 . S
C1666 C1667 1.363 . S
C1666 C1671 1.379 . S
C1666 N1673 1.356 . S
C1667 C1666 1.363 . S
C1667 C1670 1.363 . S
N1668 C1670 1.356 . S
N1668 H1680 0.984 . S
N1668 H1681 0.985 . S
N1669 C1671 1.356 . S
N1669 H1674 0.984 . S
N1669 H1675 0.985 . S
C1670 C1664 1.379 . S
C1670 C1667 1.363 . S
C1670 N1668 1.356 . S
C1671 C1665 1.363 . S
C1671 C1666 1.379 . S
C1671 N1669 1.356 . S
N1672 C1664 1.356 1_545 S
N1672 H1678 0.984 . S
N1672 H1679 0.984 . S
N1673 C1666 1.356 . S
N1673 H1676 0.984 . S
N1673 H1677 0.985 . S
H1674 N1669 0.984 . S
H1675 N1669 0.985 . S
H1676 N1673 0.984 . S
H1677 N1673 0.985 . S
H1678 N1672 0.984 . S
H1679 N1672 0.984 . S
H1680 N1668 0.984 . S
H1681 N1668 0.985 . S
C1682 C1683 1.363 . S
C1682 C1688 1.379 . S
C1682 N1690 1.356 1_565 S
C1683 C1682 1.363 . S
C1683 C1689 1.363 . S
C1684 C1685 1.363 . S
C1684 C1689 1.379 . S
C1684 N1691 1.356 . S
C1685 C1684 1.363 . S
C1685 C1688 1.363 . S
N1686 C1688 1.356 . S
N1686 H1698 0.984 . S
N1686 H1699 0.985 . S
N1687 C1689 1.356 . S
N1687 H1692 0.984 . S
N1687 H1693 0.985 . S
C1688 C1682 1.379 . S
C1688 C1685 1.363 . S
C1688 N1686 1.356 . S
C1689 C1683 1.363 . S
C1689 C1684 1.379 . S
C1689 N1687 1.356 . S
N1690 C1682 1.356 1_545 S
N1690 H1696 0.984 . S
N1690 H1697 0.984 . S
N1691 C1684 1.356 . S
N1691 H1694 0.984 . S
N1691 H1695 0.985 . S
H1692 N1687 0.984 . S
H1693 N1687 0.985 . S
H1694 N1691 0.984 . S
H1695 N1691 0.985 . S
H1696 N1690 0.984 . S
H1697 N1690 0.984 . S
H1698 N1686 0.984 . S
H1699 N1686 0.985 . S
C1700 C1701 1.363 . S
C1700 C1706 1.379 . S
C1700 N1708 1.356 . S
C1701 C1700 1.363 . S
C1701 C1707 1.363 . S
C1702 C1703 1.363 . S
C1702 C1707 1.379 . S
C1702 N1709 1.356 . S
C1703 C1702 1.363 . S
C1703 C1706 1.363 . S
N1704 C1706 1.356 . S
N1704 H1716 0.984 . S
N1704 H1717 0.983 . S
N1705 C1707 1.356 . S
N1705 H1710 0.984 . S
N1705 H1711 0.985 . S
C1706 C1700 1.379 . S
C1706 C1703 1.363 . S
C1706 N1704 1.356 . S
C1707 C1701 1.363 . S
C1707 C1702 1.379 . S
C1707 N1705 1.356 . S
N1708 C1700 1.356 . S
N1708 H1714 0.984 . S
N1708 H1715 0.984 . S
N1709 C1702 1.356 . S
N1709 H1712 0.984 . S
N1709 H1713 0.985 . S
H1710 N1705 0.984 . S
H1711 N1705 0.985 . S
H1712 N1709 0.984 . S
H1713 N1709 0.985 . S
H1714 N1708 0.984 . S
H1715 N1708 0.984 . S
H1716 N1704 0.984 . S
H1717 N1704 0.983 . S
C1718 C1719 1.363 . S
C1718 C1724 1.379 . S
C1718 N1726 1.356 . S
C1719 C1718 1.363 . S
C1719 C1725 1.363 . S
C1720 C1721 1.363 . S
C1720 C1725 1.379 . S
C1720 N1727 1.356 . S
C1721 C1720 1.363 . S
C1721 C1724 1.363 . S
N1722 C1724 1.356 . S
N1722 H1734 0.984 1_545 S
N1722 H1735 0.985 1_545 S
N1723 C1725 1.356 . S
N1723 H1728 0.984 . S
N1723 H1729 0.985 . S
C1724 C1718 1.379 . S
C1724 C1721 1.363 . S
C1724 N1722 1.356 . S
C1725 C1719 1.363 . S
C1725 C1720 1.379 . S
C1725 N1723 1.356 . S
N1726 C1718 1.356 . S
N1726 H1732 0.984 . S
N1726 H1733 0.984 . S
N1727 C1720 1.356 . S
N1727 H1730 0.984 . S
N1727 H1731 0.985 . S
H1728 N1723 0.984 . S
H1729 N1723 0.985 . S
H1730 N1727 0.984 . S
H1731 N1727 0.985 . S
H1732 N1726 0.984 . S
H1733 N1726 0.984 . S
H1734 N1722 0.984 1_565 S
H1735 N1722 0.985 1_565 S
C1736 C1737 1.363 . S
C1736 C1742 1.379 . S
C1736 N1744 1.356 1_545 S
C1737 C1736 1.363 . S
C1737 C1743 1.363 . S
C1738 C1739 1.363 . S
C1738 C1743 1.379 . S
C1738 N1745 1.356 . S
C1739 C1738 1.363 . S
C1739 C1742 1.363 . S
N1740 C1742 1.356 . S
N1740 H1752 0.984 . S
N1740 H1753 0.985 . S
N1741 C1743 1.356 . S
N1741 H1746 0.984 . S
N1741 H1747 0.985 . S
C1742 C1736 1.379 . S
C1742 C1739 1.363 . S
C1742 N1740 1.356 . S
C1743 C1737 1.363 . S
C1743 C1738 1.379 . S
C1743 N1741 1.356 . S
N1744 C1736 1.356 1_565 S
N1744 H1750 0.984 . S
N1744 H1751 0.984 . S
N1745 C1738 1.356 . S
N1745 H1748 0.984 . S
N1745 H1749 0.985 . S
H1746 N1741 0.984 . S
H1747 N1741 0.985 . S
H1748 N1745 0.984 . S
H1749 N1745 0.985 . S
H1750 N1744 0.984 . S
H1751 N1744 0.984 . S
H1752 N1740 0.984 . S
H1753 N1740 0.985 . S
C1754 C1755 1.363 . S
C1754 C1760 1.379 . S
C1754 N1762 1.356 . S
C1755 C1754 1.363 . S
C1755 C1761 1.363 . S
C1756 C1757 1.363 . S
C1756 C1761 1.379 . S
C1756 N1763 1.356 . S
C1757 C1756 1.363 . S
C1757 C1760 1.363 . S
N1758 C1760 1.356 . S
N1758 H1770 0.978 1_545 S
N1758 H1771 0.985 1_545 S
N1759 C1761 1.356 . S
N1759 H1764 0.984 . S
N1759 H1765 0.985 . S
C1760 C1754 1.379 . S
C1760 C1757 1.363 . S
C1760 N1758 1.356 . S
C1761 C1755 1.363 . S
C1761 C1756 1.379 . S
C1761 N1759 1.356 . S
N1762 C1754 1.356 . S
N1762 H1768 0.984 . S
N1762 H1769 0.984 . S
N1763 C1756 1.356 . S
N1763 H1766 0.984 . S
N1763 H1767 0.985 . S
H1764 N1759 0.984 . S
H1765 N1759 0.985 . S
H1766 N1763 0.984 . S
H1767 N1763 0.985 . S
H1768 N1762 0.984 . S
H1769 N1762 0.984 . S
H1770 N1758 0.978 1_565 S
H1771 N1758 0.985 1_565 S
C1772 C1773 1.363 . S
C1772 C1778 1.379 . S
C1772 N1780 1.356 . S
C1773 C1772 1.363 . S
C1773 C1779 1.363 . S
C1774 C1775 1.363 . S
C1774 C1779 1.379 . S
C1774 N1781 1.356 . S
C1775 C1774 1.363 . S
C1775 C1778 1.363 . S
N1776 C1778 1.356 . S
N1776 H1788 0.984 . S
N1776 H1789 0.985 . S
N1777 C1779 1.356 . S
N1777 H1782 0.984 1_565 S
N1777 H1783 0.985 . S
C1778 C1772 1.379 . S
C1778 C1775 1.363 . S
C1778 N1776 1.356 . S
C1779 C1773 1.363 . S
C1779 C1774 1.379 . S
C1779 N1777 1.356 . S
N1780 C1772 1.356 . S
N1780 H1786 0.984 . S
N1780 H1787 0.984 . S
N1781 C1774 1.356 . S
N1781 H1784 0.984 . S
N1781 H1785 0.985 . S
H1782 N1777 0.984 1_545 S
H1783 N1777 0.985 . S
H1784 N1781 0.984 . S
H1785 N1781 0.985 . S
H1786 N1780 0.984 . S
H1787 N1780 0.984 . S
H1788 N1776 0.984 . S
H1789 N1776 0.985 . S
C1790 C1791 1.363 . S
C1790 C1796 1.379 . S
C1790 N1798 1.356 . S
C1791 C1790 1.363 . S
C1791 C1797 1.363 . S
C1792 C1793 1.363 . S
C1792 C1797 1.379 . S
C1792 N1799 1.356 . S
C1793 C1792 1.363 . S
C1793 C1796 1.363 . S
N1794 C1796 1.356 1_545 S
N1794 H1806 0.984 . S
N1794 H1807 0.985 . S
N1795 C1797 1.356 . S
N1795 H1800 0.984 . S
N1795 H1801 0.985 . S
C1796 C1790 1.379 . S
C1796 C1793 1.363 . S
C1796 N1794 1.356 1_565 S
C1797 C1791 1.363 . S
C1797 C1792 1.379 . S
C1797 N1795 1.356 . S
N1798 C1790 1.356 . S
N1798 H1804 0.984 . S
N1798 H1805 0.984 . S
N1799 C1792 1.356 . S
N1799 H1802 0.984 . S
N1799 H1803 0.985 . S
H1800 N1795 0.984 . S
H1801 N1795 0.985 . S
H1802 N1799 0.984 . S
H1803 N1799 0.985 . S
H1804 N1798 0.984 . S
H1805 N1798 0.984 . S
H1806 N1794 0.984 . S
H1807 N1794 0.985 . S
C1808 C1809 1.363 . S
C1808 C1814 1.379 . S
C1808 N1816 1.356 . S
C1809 C1808 1.363 . S
C1809 C1815 1.363 . S
C1810 C1811 1.363 . S
C1810 C1815 1.379 . S
C1810 N1817 1.356 . S
C1811 C1810 1.363 . S
C1811 C1814 1.363 . S
N1812 C1814 1.356 . S
N1812 H1824 0.984 . S
N1812 H1825 0.985 . S
N1813 C1815 1.356 . S
N1813 H1818 0.984 . S
N1813 H1819 0.985 . S
C1814 C1808 1.379 . S
C1814 C1811 1.363 . S
C1814 N1812 1.356 . S
C1815 C1809 1.363 . S
C1815 C1810 1.379 . S
C1815 N1813 1.356 . S
N1816 C1808 1.356 . S
N1816 H1822 0.984 . S
N1816 H1823 0.984 . S
N1817 C1810 1.356 . S
N1817 H1820 0.984 . S
N1817 H1821 0.985 . S
H1818 N1813 0.984 . S
H1819 N1813 0.985 . S
H1820 N1817 0.984 . S
H1821 N1817 0.985 . S
H1822 N1816 0.984 . S
H1823 N1816 0.984 . S
H1824 N1812 0.984 . S
H1825 N1812 0.985 . S
C1826 C1827 1.363 . S
C1826 C1832 1.379 . S
C1826 N1834 1.356 . S
C1827 C1826 1.363 . S
C1827 C1833 1.363 . S
C1828 C1829 1.363 . S
C1828 C1833 1.379 . S
C1828 N1835 1.356 . S
C1829 C1828 1.363 . S
C1829 C1832 1.363 . S
N1830 C1832 1.356 . S
N1830 H1842 0.984 . S
N1830 H1843 0.985 . S
N1831 C1833 1.356 . S
N1831 H1836 0.984 . S
N1831 H1837 0.985 . S
C1832 C1826 1.379 . S
C1832 C1829 1.363 . S
C1832 N1830 1.356 . S
C1833 C1827 1.363 . S
C1833 C1828 1.379 . S
C1833 N1831 1.356 . S
N1834 C1826 1.356 . S
N1834 H1840 0.984 . S
N1834 H1841 0.984 . S
N1835 C1828 1.356 . S
N1835 H1838 0.984 . S
N1835 H1839 0.985 . S
H1836 N1831 0.984 . S
H1837 N1831 0.985 . S
H1838 N1835 0.984 . S
H1839 N1835 0.985 . S
H1840 N1834 0.984 . S
H1841 N1834 0.984 . S
H1842 N1830 0.984 . S
H1843 N1830 0.985 . S
C1844 C1845 1.363 . S
C1844 C1850 1.379 . S
C1844 N1852 1.356 . S
C1845 C1844 1.363 . S
C1845 C1851 1.363 . S
C1846 C1847 1.363 . S
C1846 C1851 1.379 . S
C1846 N1853 1.356 . S
C1847 C1846 1.363 . S
C1847 C1850 1.363 . S
N1848 C1850 1.356 . S
N1848 H1860 0.984 . S
N1848 H1861 0.985 . S
N1849 C1851 1.356 . S
N1849 H1854 0.984 . S
N1849 H1855 0.985 . S
C1850 C1844 1.379 . S
C1850 C1847 1.363 . S
C1850 N1848 1.356 . S
C1851 C1845 1.363 . S
C1851 C1846 1.379 . S
C1851 N1849 1.356 . S
N1852 C1844 1.356 . S
N1852 H1858 0.984 . S
N1852 H1859 0.984 . S
N1853 C1846 1.356 . S
N1853 H1856 0.984 . S
N1853 H1857 0.985 . S
H1854 N1849 0.984 . S
H1855 N1849 0.985 . S
H1856 N1853 0.984 . S
H1857 N1853 0.985 . S
H1858 N1852 0.984 . S
H1859 N1852 0.984 . S
H1860 N1848 0.984 . S
H1861 N1848 0.985 . S
C1862 C1863 1.363 . S
C1862 C1868 1.379 . S
C1862 N1870 1.356 . S
C1863 C1862 1.363 . S
C1863 C1869 1.363 . S
C1864 C1865 1.363 . S
C1864 C1869 1.379 . S
C1864 N1871 1.356 . S
C1865 C1864 1.363 . S
C1865 C1868 1.363 . S
N1866 C1868 1.356 . S
N1866 H1878 0.984 . S
N1866 H1879 0.985 . S
N1867 C1869 1.356 . S
N1867 H1872 0.984 . S
N1867 H1873 0.985 . S
C1868 C1862 1.379 . S
C1868 C1865 1.363 . S
C1868 N1866 1.356 . S
C1869 C1863 1.363 . S
C1869 C1864 1.379 . S
C1869 N1867 1.356 . S
N1870 C1862 1.356 . S
N1870 H1876 0.984 . S
N1870 H1877 0.984 . S
N1871 C1864 1.356 . S
N1871 H1874 0.984 . S
N1871 H1875 0.985 . S
H1872 N1867 0.984 . S
H1873 N1867 0.985 . S
H1874 N1871 0.984 . S
H1875 N1871 0.985 . S
H1876 N1870 0.984 . S
H1877 N1870 0.984 . S
H1878 N1866 0.984 . S
H1879 N1866 0.985 . S
C1880 C1881 1.363 . S
C1880 C1886 1.379 . S
C1880 N1888 1.356 . S
C1881 C1880 1.363 . S
C1881 C1887 1.363 . S
C1882 C1883 1.363 . S
C1882 C1887 1.379 . S
C1882 N1889 1.356 . S
C1883 C1882 1.363 . S
C1883 C1886 1.363 . S
N1884 C1886 1.356 . S
N1884 H1896 0.984 . S
N1884 H1897 0.985 . S
N1885 C1887 1.356 . S
N1885 H1890 0.984 . S
N1885 H1891 0.985 . S
C1886 C1880 1.379 . S
C1886 C1883 1.363 . S
C1886 N1884 1.356 . S
C1887 C1881 1.363 . S
C1887 C1882 1.379 . S
C1887 N1885 1.356 . S
N1888 C1880 1.356 . S
N1888 H1894 0.984 . S
N1888 H1895 0.984 . S
N1889 C1882 1.356 . S
N1889 H1892 0.984 . S
N1889 H1893 0.985 . S
H1890 N1885 0.984 . S
H1891 N1885 0.985 . S
H1892 N1889 0.984 . S
H1893 N1889 0.985 . S
H1894 N1888 0.984 . S
H1895 N1888 0.984 . S
H1896 N1884 0.984 . S
H1897 N1884 0.985 . S
C1898 C1899 1.363 . S
C1898 C1904 1.379 . S
C1898 N1906 1.356 . S
C1899 C1898 1.363 . S
C1899 C1905 1.363 . S
C1900 C1901 1.363 . S
C1900 C1905 1.379 . S
C1900 N1907 1.356 . S
C1901 C1900 1.363 . S
C1901 C1904 1.363 . S
N1902 C1904 1.356 . S
N1902 H1914 0.984 . S
N1902 H1915 0.985 . S
N1903 C1905 1.356 . S
N1903 H1908 0.984 . S
N1903 H1909 0.985 . S
C1904 C1898 1.379 . S
C1904 C1901 1.363 . S
C1904 N1902 1.356 . S
C1905 C1899 1.363 . S
C1905 C1900 1.379 . S
C1905 N1903 1.356 . S
N1906 C1898 1.356 . S
N1906 H1912 0.984 . S
N1906 H1913 0.984 . S
N1907 C1900 1.356 . S
N1907 H1910 0.984 . S
N1907 H1911 0.985 . S
H1908 N1903 0.984 . S
H1909 N1903 0.985 . S
H1910 N1907 0.984 . S
H1911 N1907 0.985 . S
H1912 N1906 0.984 . S
H1913 N1906 0.984 . S
H1914 N1902 0.984 . S
H1915 N1902 0.985 . S
C1916 C1917 1.363 . S
C1916 C1922 1.379 . S
C1916 N1924 1.356 . S
C1917 C1916 1.363 . S
C1917 C1923 1.363 . S
C1918 C1919 1.363 . S
C1918 C1923 1.379 . S
C1918 N1925 1.356 . S
C1919 C1918 1.363 . S
C1919 C1922 1.363 . S
N1920 C1922 1.356 . S
N1920 H1932 0.984 . S
N1920 H1933 0.985 . S
N1921 C1923 1.356 . S
N1921 H1926 0.984 . S
N1921 H1927 0.985 . S
C1922 C1916 1.379 . S
C1922 C1919 1.363 . S
C1922 N1920 1.356 . S
C1923 C1917 1.363 . S
C1923 C1918 1.379 . S
C1923 N1921 1.356 . S
N1924 C1916 1.356 . S
N1924 H1930 0.984 . S
N1924 H1931 0.984 . S
N1925 C1918 1.356 . S
N1925 H1928 0.984 . S
N1925 H1929 0.985 . S
H1926 N1921 0.984 . S
H1927 N1921 0.985 . S
H1928 N1925 0.984 . S
H1929 N1925 0.985 . S
H1930 N1924 0.984 . S
H1931 N1924 0.984 . S
H1932 N1920 0.984 . S
H1933 N1920 0.985 . S
C1934 C1935 1.363 . S
C1934 C1940 1.379 . S
C1934 N1942 1.356 . S
C1935 C1934 1.363 . S
C1935 C1941 1.363 . S
C1936 C1937 1.363 . S
C1936 C1941 1.379 . S
C1936 N1943 1.356 . S
C1937 C1936 1.363 . S
C1937 C1940 1.363 . S
N1938 C1940 1.356 . S
N1938 H1950 0.984 . S
N1938 H1951 0.985 . S
N1939 C1941 1.356 . S
N1939 H1944 0.984 . S
N1939 H1945 0.985 . S
C1940 C1934 1.379 . S
C1940 C1937 1.363 . S
C1940 N1938 1.356 . S
C1941 C1935 1.363 . S
C1941 C1936 1.379 . S
C1941 N1939 1.356 . S
N1942 C1934 1.356 . S
N1942 H1948 0.984 . S
N1942 H1949 0.984 . S
N1943 C1936 1.356 . S
N1943 H1946 0.984 . S
N1943 H1947 0.985 . S
H1944 N1939 0.984 . S
H1945 N1939 0.985 . S
H1946 N1943 0.984 . S
H1947 N1943 0.985 . S
H1948 N1942 0.984 . S
H1949 N1942 0.984 . S
H1950 N1938 0.984 . S
H1951 N1938 0.985 . S
C1952 C1953 1.363 . S
C1952 C1958 1.379 . S
C1952 N1960 1.356 . S
C1953 C1952 1.363 . S
C1953 C1959 1.363 1_545 S
C1954 C1955 1.363 . S
C1954 C1959 1.379 . S
C1954 N1961 1.356 . S
C1955 C1954 1.363 . S
C1955 C1958 1.363 1_565 S
N1956 C1958 1.356 . S
N1956 H1968 0.984 . S
N1956 H1969 0.985 1_545 S
N1957 C1959 1.356 . S
N1957 H1962 0.984 1_565 S
N1957 H1963 0.985 . S
C1958 C1952 1.379 . S
C1958 C1955 1.363 1_545 S
C1958 N1956 1.356 . S
C1959 C1953 1.363 1_565 S
C1959 C1954 1.379 . S
C1959 N1957 1.356 . S
N1960 C1952 1.356 . S
N1960 H1966 0.984 . S
N1960 H1967 0.984 . S
N1961 C1954 1.356 . S
N1961 H1964 0.984 . S
N1961 H1965 0.985 . S
H1962 N1957 0.984 1_545 S
H1963 N1957 0.985 . S
H1964 N1961 0.984 . S
H1965 N1961 0.985 . S
H1966 N1960 0.984 . S
H1967 N1960 0.984 . S
H1968 N1956 0.984 . S
H1969 N1956 0.985 1_565 S
C1970 C1971 1.363 . S
C1970 C1976 1.379 . S
C1970 N1978 1.356 . S
C1971 C1970 1.363 . S
C1971 C1977 1.363 . S
C1972 C1973 1.363 . S
C1972 C1977 1.379 . S
C1972 N1979 1.356 . S
C1973 C1972 1.363 . S
C1973 C1976 1.363 . S
N1974 C1976 1.356 . S
N1974 H1986 0.984 . S
N1974 H1987 0.985 . S
N1975 C1977 1.356 . S
N1975 H1980 0.984 . S
N1975 H1981 0.985 . S
C1976 C1970 1.379 . S
C1976 C1973 1.363 . S
C1976 N1974 1.356 . S
C1977 C1971 1.363 . S
C1977 C1972 1.379 . S
C1977 N1975 1.356 . S
N1978 C1970 1.356 . S
N1978 H1984 0.984 . S
N1978 H1985 0.984 . S
N1979 C1972 1.356 . S
N1979 H1982 0.984 . S
N1979 H1983 0.985 . S
H1980 N1975 0.984 . S
H1981 N1975 0.985 . S
H1982 N1979 0.984 . S
H1983 N1979 0.985 . S
H1984 N1978 0.984 . S
H1985 N1978 0.984 . S
H1986 N1974 0.984 . S
H1987 N1974 0.985 . S
C1988 C1989 1.363 . S
C1988 C1994 1.379 1_545 S
C1988 N1996 1.356 . S
C1989 C1988 1.363 . S
C1989 C1995 1.363 . S
C1990 C1991 1.363 . S
C1990 C1995 1.379 1_565 S
C1990 N1997 1.356 . S
C1991 C1990 1.363 . S
C1991 C1994 1.363 . S
N1992 C1994 1.356 . S
N1992 H2004 0.984 . S
N1992 H2005 0.985 . S
N1993 C1995 1.356 . S
N1993 H1998 0.984 . S
N1993 H1999 0.985 . S
C1994 C1988 1.379 1_565 S
C1994 C1991 1.363 . S
C1994 N1992 1.356 . S
C1995 C1989 1.363 . S
C1995 C1990 1.379 1_545 S
C1995 N1993 1.356 . S
N1996 C1988 1.356 . S
N1996 H2002 0.984 . S
N1996 H2003 0.984 . S
N1997 C1990 1.356 . S
N1997 H2000 0.984 . S
N1997 H2001 0.985 . S
H1998 N1993 0.984 . S
H1999 N1993 0.985 . S
H2000 N1997 0.984 . S
H2001 N1997 0.985 . S
H2002 N1996 0.984 . S
H2003 N1996 0.984 . S
H2004 N1992 0.984 . S
H2005 N1992 0.985 . S
C2006 C2007 1.361 1_554 S
C2006 C2012 1.381 . S
C2006 N2014 1.356 1_554 S
C2007 C2006 1.361 1_556 S
C2007 C2013 1.363 . S
C2008 C2009 1.361 1_556 S
C2008 C2013 1.381 . S
C2008 N2015 1.356 1_556 S
C2009 C2008 1.361 1_554 S
C2009 C2012 1.363 . S
N2010 C2012 1.356 . S
N2010 H2022 0.984 . S
N2010 H2023 0.985 . S
N2011 C2013 1.356 . S
N2011 H2016 0.984 . S
N2011 H2017 0.985 . S
C2012 C2006 1.381 . S
C2012 C2009 1.363 . S
C2012 N2010 1.356 . S
C2013 C2007 1.363 . S
C2013 C2008 1.381 . S
C2013 N2011 1.356 . S
N2014 C2006 1.356 1_556 S
N2014 H2020 0.984 1_556 S
N2014 H2021 0.984 . S
N2015 C2008 1.356 1_554 S
N2015 H2018 0.984 . S
N2015 H2019 0.985 1_554 S
H2016 N2011 0.984 . S
H2017 N2011 0.985 . S
H2018 N2015 0.984 . S
H2019 N2015 0.985 1_556 S
H2020 N2014 0.984 1_554 S
H2021 N2014 0.984 . S
H2022 N2010 0.984 . S
H2023 N2010 0.985 . S
C2024 C2025 1.363 . S
C2024 C2030 1.379 . S
C2024 N2032 1.356 . S
C2025 C2024 1.363 . S
C2025 C2031 1.363 1_565 S
C2026 C2027 1.363 . S
C2026 C2031 1.379 . S
C2026 N2033 1.356 . S
C2027 C2026 1.363 . S
C2027 C2030 1.363 1_545 S
N2028 C2030 1.356 1_545 S
N2028 H2040 0.984 1_545 S
N2028 H2041 0.985 . S
N2029 C2031 1.356 1_565 S
N2029 H2034 0.984 . S
N2029 H2035 0.985 1_565 S
C2030 C2024 1.379 . S
C2030 C2027 1.363 1_565 S
C2030 N2028 1.356 1_565 S
C2031 C2025 1.363 1_545 S
C2031 C2026 1.379 . S
C2031 N2029 1.356 1_545 S
N2032 C2024 1.356 . S
N2032 H2038 0.984 . S
N2032 H2039 0.984 . S
N2033 C2026 1.356 . S
N2033 H2036 0.984 . S
N2033 H2037 0.985 . S
H2034 N2029 0.984 . S
H2035 N2029 0.985 1_545 S
H2036 N2033 0.984 . S
H2037 N2033 0.985 . S
H2038 N2032 0.984 . S
H2039 N2032 0.984 . S
H2040 N2028 0.984 1_565 S
H2041 N2028 0.985 . S
C2042 C2043 1.363 . S
C2042 C2048 1.379 . S
C2042 N2050 1.356 . S
C2043 C2042 1.363 . S
C2043 C2049 1.363 . S
C2044 C2045 1.363 . S
C2044 C2049 1.379 . S
C2044 N2051 1.356 . S
C2045 C2044 1.363 . S
C2045 C2048 1.363 . S
N2046 C2048 1.356 . S
N2046 H2058 0.984 . S
N2046 H2059 0.985 . S
N2047 C2049 1.356 . S
N2047 H2052 0.984 . S
N2047 H2053 0.985 . S
C2048 C2042 1.379 . S
C2048 C2045 1.363 . S
C2048 N2046 1.356 . S
C2049 C2043 1.363 . S
C2049 C2044 1.379 . S
C2049 N2047 1.356 . S
N2050 C2042 1.356 . S
N2050 H2056 0.984 . S
N2050 H2057 0.984 . S
N2051 C2044 1.356 . S
N2051 H2054 0.984 . S
N2051 H2055 0.985 . S
H2052 N2047 0.984 . S
H2053 N2047 0.985 . S
H2054 N2051 0.984 . S
H2055 N2051 0.985 . S
H2056 N2050 0.984 . S
H2057 N2050 0.984 . S
H2058 N2046 0.984 . S
H2059 N2046 0.985 . S
C2060 C2061 1.363 1_565 S
C2060 C2066 1.379 . S
C2060 N2068 1.356 1_565 S
C2061 C2060 1.363 1_545 S
C2061 C2067 1.363 . S
C2062 C2063 1.363 1_545 S
C2062 C2067 1.379 . S
C2062 N2069 1.356 1_545 S
C2063 C2062 1.363 1_565 S
C2063 C2066 1.363 . S
N2064 C2066 1.356 . S
N2064 H2076 0.984 . S
N2064 H2077 0.985 . S
N2065 C2067 1.356 . S
N2065 H2070 0.984 . S
N2065 H2071 0.985 . S
C2066 C2060 1.379 . S
C2066 C2063 1.363 . S
C2066 N2064 1.356 . S
C2067 C2061 1.363 . S
C2067 C2062 1.379 . S
C2067 N2065 1.356 . S
N2068 C2060 1.356 1_545 S
N2068 H2074 0.984 1_545 S
N2068 H2075 0.984 . S
N2069 C2062 1.356 1_565 S
N2069 H2072 0.984 . S
N2069 H2073 0.985 1_565 S
H2070 N2065 0.984 . S
H2071 N2065 0.985 . S
H2072 N2069 0.984 . S
H2073 N2069 0.985 1_545 S
H2074 N2068 0.984 1_565 S
H2075 N2068 0.984 . S
H2076 N2064 0.984 . S
H2077 N2064 0.985 . S
C2078 C2079 1.361 1_556 S
C2078 C2084 1.381 . S
C2078 N2086 1.356 1_556 S
C2079 C2078 1.361 1_554 S
C2079 C2085 1.363 . S
C2080 C2081 1.361 1_554 S
C2080 C2085 1.381 . S
C2080 N2087 1.356 1_554 S
C2081 C2080 1.361 1_556 S
C2081 C2084 1.363 . S
N2082 C2084 1.356 . S
N2082 H2094 0.984 . S
N2082 H2095 0.985 . S
N2083 C2085 1.356 . S
N2083 H2088 0.984 . S
N2083 H2089 0.985 . S
C2084 C2078 1.381 . S
C2084 C2081 1.363 . S
C2084 N2082 1.356 . S
C2085 C2079 1.363 . S
C2085 C2080 1.381 . S
C2085 N2083 1.356 . S
N2086 C2078 1.356 1_554 S
N2086 H2092 0.984 1_554 S
N2086 H2093 0.984 . S
N2087 C2080 1.356 1_556 S
N2087 H2090 0.984 . S
N2087 H2091 0.985 1_556 S
H2088 N2083 0.984 . S
H2089 N2083 0.985 . S
H2090 N2087 0.984 . S
H2091 N2087 0.985 1_554 S
H2092 N2086 0.984 1_556 S
H2093 N2086 0.984 . S
H2094 N2082 0.984 . S
H2095 N2082 0.985 . S
C2096 C2097 1.363 . S
C2096 C2102 1.379 . S
C2096 N2104 1.356 . S
C2097 C2096 1.363 . S
C2097 C2103 1.363 . S
C2098 C2099 1.363 . S
C2098 C2103 1.379 . S
C2098 N2105 1.356 . S
C2099 C2098 1.363 . S
C2099 C2102 1.363 . S
N2100 C2102 1.356 . S
N2100 H2112 0.984 . S
N2100 H2113 0.985 . S
N2101 C2103 1.356 . S
N2101 H2106 0.984 . S
N2101 H2107 0.985 . S
C2102 C2096 1.379 . S
C2102 C2099 1.363 . S
C2102 N2100 1.356 . S
C2103 C2097 1.363 . S
C2103 C2098 1.379 . S
C2103 N2101 1.356 . S
N2104 C2096 1.356 . S
N2104 H2110 0.984 . S
N2104 H2111 0.984 . S
N2105 C2098 1.356 . S
N2105 H2108 0.984 . S
N2105 H2109 0.985 . S
H2106 N2101 0.984 . S
H2107 N2101 0.985 . S
H2108 N2105 0.984 . S
H2109 N2105 0.985 . S
H2110 N2104 0.984 . S
H2111 N2104 0.984 . S
H2112 N2100 0.984 . S
H2113 N2100 0.985 . S
C2114 C2115 1.361 1_556 S
C2114 C2120 1.381 . S
C2114 N2122 1.356 1_556 S
C2115 C2114 1.361 1_554 S
C2115 C2121 1.363 . S
C2116 C2117 1.361 1_554 S
C2116 C2121 1.381 . S
C2116 N2123 1.356 1_554 S
C2117 C2116 1.361 1_556 S
C2117 C2120 1.363 . S
N2118 C2120 1.356 . S
N2118 H2130 0.984 . S
N2118 H2131 0.985 . S
N2119 C2121 1.356 . S
N2119 H2124 0.984 . S
N2119 H2125 0.985 . S
C2120 C2114 1.381 . S
C2120 C2117 1.363 . S
C2120 N2118 1.356 . S
C2121 C2115 1.363 . S
C2121 C2116 1.381 . S
C2121 N2119 1.356 . S
N2122 C2114 1.356 1_554 S
N2122 H2128 0.984 1_554 S
N2122 H2129 0.984 . S
N2123 C2116 1.356 1_556 S
N2123 H2126 0.984 . S
N2123 H2127 0.985 1_556 S
H2124 N2119 0.984 . S
H2125 N2119 0.985 . S
H2126 N2123 0.984 . S
H2127 N2123 0.985 1_554 S
H2128 N2122 0.984 1_556 S
H2129 N2122 0.984 . S
H2130 N2118 0.984 . S
H2131 N2118 0.985 . S
C2132 C2133 1.363 . S
C2132 C2138 1.379 . S
C2132 N2140 1.356 . S
C2133 C2132 1.363 . S
C2133 C2139 1.363 . S
C2134 C2135 1.363 . S
C2134 C2139 1.379 . S
C2134 N2141 1.356 . S
C2135 C2134 1.363 . S
C2135 C2138 1.363 . S
N2136 C2138 1.356 . S
N2136 H2148 0.984 1_655 S
N2136 H2149 0.985 . S
N2137 C2139 1.356 . S
N2137 H2142 0.984 . S
N2137 H2143 0.985 . S
C2138 C2132 1.379 . S
C2138 C2135 1.363 . S
C2138 N2136 1.356 . S
C2139 C2133 1.363 . S
C2139 C2134 1.379 . S
C2139 N2137 1.356 . S
N2140 C2132 1.356 . S
N2140 H2146 0.984 1_655 S
N2140 H2147 0.984 . S
N2141 C2134 1.356 . S
N2141 H2144 0.984 . S
N2141 H2145 0.985 . S
H2142 N2137 0.984 . S
H2143 N2137 0.985 . S
H2144 N2141 0.984 . S
H2145 N2141 0.985 . S
H2146 N2140 0.984 1_455 S
H2147 N2140 0.984 . S
H2148 N2136 0.984 1_455 S
H2149 N2136 0.985 . S
C2150 C2151 1.363 . S
C2150 C2156 1.379 . S
C2150 N2158 1.356 . S
C2151 C2150 1.363 . S
C2151 C2157 1.363 . S
C2152 C2153 1.363 . S
C2152 C2157 1.379 . S
C2152 N2159 1.356 . S
C2153 C2152 1.363 . S
C2153 C2156 1.363 . S
N2154 C2156 1.356 . S
N2154 H2166 0.984 . S
N2154 H2167 0.985 . S
N2155 C2157 1.356 . S
N2155 H2160 0.984 . S
N2155 H2161 0.985 . S
C2156 C2150 1.379 . S
C2156 C2153 1.363 . S
C2156 N2154 1.356 . S
C2157 C2151 1.363 . S
C2157 C2152 1.379 . S
C2157 N2155 1.356 . S
N2158 C2150 1.356 . S
N2158 H2164 0.984 . S
N2158 H2165 0.984 . S
N2159 C2152 1.356 . S
N2159 H2162 0.984 . S
N2159 H2163 0.985 . S
H2160 N2155 0.984 . S
H2161 N2155 0.985 . S
H2162 N2159 0.984 . S
H2163 N2159 0.985 . S
H2164 N2158 0.984 . S
H2165 N2158 0.984 . S
H2166 N2154 0.984 . S
H2167 N2154 0.985 . S
C2168 C2169 1.363 . S
C2168 C2174 1.379 . S
C2168 N2176 1.356 . S
C2169 C2168 1.363 . S
C2169 C2175 1.363 . S
C2170 C2171 1.363 . S
C2170 C2175 1.379 . S
C2170 N2177 1.356 . S
C2171 C2170 1.363 . S
C2171 C2174 1.363 . S
N2172 C2174 1.356 . S
N2172 H2184 0.984 . S
N2172 H2185 0.985 . S
N2173 C2175 1.356 . S
N2173 H2178 0.984 . S
N2173 H2179 0.985 . S
C2174 C2168 1.379 . S
C2174 C2171 1.363 . S
C2174 N2172 1.356 . S
C2175 C2169 1.363 . S
C2175 C2170 1.379 . S
C2175 N2173 1.356 . S
N2176 C2168 1.356 . S
N2176 H2182 0.984 . S
N2176 H2183 0.984 . S
N2177 C2170 1.356 . S
N2177 H2180 0.984 . S
N2177 H2181 0.985 . S
H2178 N2173 0.984 . S
H2179 N2173 0.985 . S
H2180 N2177 0.984 . S
H2181 N2177 0.985 . S
H2182 N2176 0.984 . S
H2183 N2176 0.984 . S
H2184 N2172 0.984 . S
H2185 N2172 0.985 . S
C2186 C2187 1.361 1_554 S
C2186 C2192 1.381 . S
C2186 N2194 1.356 1_554 S
C2187 C2186 1.361 1_556 S
C2187 C2193 1.363 . S
C2188 C2189 1.361 1_556 S
C2188 C2193 1.381 . S
C2188 N2195 1.356 1_556 S
C2189 C2188 1.361 1_554 S
C2189 C2192 1.363 . S
N2190 C2192 1.356 . S
N2190 H2202 0.984 . S
N2190 H2203 0.985 . S
N2191 C2193 1.356 . S
N2191 H2196 0.984 . S
N2191 H2197 0.985 . S
C2192 C2186 1.381 . S
C2192 C2189 1.363 . S
C2192 N2190 1.356 . S
C2193 C2187 1.363 . S
C2193 C2188 1.381 . S
C2193 N2191 1.356 . S
N2194 C2186 1.356 1_556 S
N2194 H2200 0.984 1_556 S
N2194 H2201 0.984 . S
N2195 C2188 1.356 1_554 S
N2195 H2198 0.984 . S
N2195 H2199 0.985 1_554 S
H2196 N2191 0.984 . S
H2197 N2191 0.985 . S
H2198 N2195 0.984 . S
H2199 N2195 0.985 1_556 S
H2200 N2194 0.984 1_554 S
H2201 N2194 0.984 . S
H2202 N2190 0.984 . S
H2203 N2190 0.985 . S
C2204 C2205 1.363 . S
C2204 C2210 1.379 . S
C2204 N2212 1.356 . S
C2205 C2204 1.363 . S
C2205 C2211 1.363 . S
C2206 C2207 1.363 . S
C2206 C2211 1.379 . S
C2206 N2213 1.356 . S
C2207 C2206 1.363 . S
C2207 C2210 1.363 . S
N2208 C2210 1.356 . S
N2208 H2220 0.984 . S
N2208 H2221 0.985 . S
N2209 C2211 1.356 . S
N2209 H2214 0.984 . S
N2209 H2215 0.985 . S
C2210 C2204 1.379 . S
C2210 C2207 1.363 . S
C2210 N2208 1.356 . S
C2211 C2205 1.363 . S
C2211 C2206 1.379 . S
C2211 N2209 1.356 . S
N2212 C2204 1.356 . S
N2212 H2218 0.984 . S
N2212 H2219 0.984 . S
N2213 C2206 1.356 . S
N2213 H2216 0.984 . S
N2213 H2217 0.985 . S
H2214 N2209 0.984 . S
H2215 N2209 0.985 . S
H2216 N2213 0.984 . S
H2217 N2213 0.985 . S
H2218 N2212 0.984 . S
H2219 N2212 0.984 . S
H2220 N2208 0.984 . S
H2221 N2208 0.985 . S
C2222 C2223 1.363 . S
C2222 C2228 1.379 . S
C2222 N2230 1.356 . S
C2223 C2222 1.363 . S
C2223 C2229 1.363 . S
C2224 C2225 1.363 . S
C2224 C2229 1.379 . S
C2224 N2231 1.356 . S
C2225 C2224 1.363 . S
C2225 C2228 1.363 . S
N2226 C2228 1.356 . S
N2226 H2238 0.984 . S
N2226 H2239 0.985 . S
N2227 C2229 1.356 . S
N2227 H2232 0.984 . S
N2227 H2233 0.985 . S
C2228 C2222 1.379 . S
C2228 C2225 1.363 . S
C2228 N2226 1.356 . S
C2229 C2223 1.363 . S
C2229 C2224 1.379 . S
C2229 N2227 1.356 . S
N2230 C2222 1.356 . S
N2230 H2236 0.984 . S
N2230 H2237 0.984 . S
N2231 C2224 1.356 . S
N2231 H2234 0.984 . S
N2231 H2235 0.985 . S
H2232 N2227 0.984 . S
H2233 N2227 0.985 . S
H2234 N2231 0.984 . S
H2235 N2231 0.985 . S
H2236 N2230 0.984 . S
H2237 N2230 0.984 . S
H2238 N2226 0.984 . S
H2239 N2226 0.985 . S
C2240 C2241 1.363 1_655 S
C2240 C2246 1.379 . S
C2240 N2248 1.356 . S
C2241 C2240 1.363 1_455 S
C2241 C2247 1.363 . S
C2242 C2243 1.363 1_455 S
C2242 C2247 1.379 . S
C2242 N2249 1.356 . S
C2243 C2242 1.363 1_655 S
C2243 C2246 1.363 . S
N2244 C2246 1.356 . S
N2244 H2256 0.984 . S
N2244 H2257 0.985 . S
N2245 C2247 1.356 . S
N2245 H2250 0.984 . S
N2245 H2251 0.985 . S
C2246 C2240 1.379 . S
C2246 C2243 1.363 . S
C2246 N2244 1.356 . S
C2247 C2241 1.363 . S
C2247 C2242 1.379 . S
C2247 N2245 1.356 . S
N2248 C2240 1.356 . S
N2248 H2254 0.984 . S
N2248 H2255 0.984 . S
N2249 C2242 1.356 . S
N2249 H2252 0.984 . S
N2249 H2253 0.985 . S
H2250 N2245 0.984 . S
H2251 N2245 0.985 . S
H2252 N2249 0.984 . S
H2253 N2249 0.985 . S
H2254 N2248 0.984 . S
H2255 N2248 0.984 . S
H2256 N2244 0.984 . S
H2257 N2244 0.985 . S
C2258 C2259 1.363 . S
C2258 C2264 1.379 1_655 S
C2258 N2266 1.356 . S
C2259 C2258 1.363 . S
C2259 C2265 1.363 . S
C2260 C2261 1.363 . S
C2260 C2265 1.379 1_455 S
C2260 N2267 1.356 . S
C2261 C2260 1.363 . S
C2261 C2264 1.363 . S
N2262 C2264 1.356 . S
N2262 H2274 0.984 . S
N2262 H2275 0.985 . S
N2263 C2265 1.356 . S
N2263 H2268 0.984 . S
N2263 H2269 0.985 . S
C2264 C2258 1.379 1_455 S
C2264 C2261 1.363 . S
C2264 N2262 1.356 . S
C2265 C2259 1.363 . S
C2265 C2260 1.379 1_655 S
C2265 N2263 1.356 . S
N2266 C2258 1.356 . S
N2266 H2272 0.984 . S
N2266 H2273 0.984 . S
N2267 C2260 1.356 . S
N2267 H2270 0.984 . S
N2267 H2271 0.985 . S
H2268 N2263 0.984 . S
H2269 N2263 0.985 . S
H2270 N2267 0.984 . S
H2271 N2267 0.985 . S
H2272 N2266 0.984 . S
H2273 N2266 0.984 . S
H2274 N2262 0.984 . S
H2275 N2262 0.985 . S
C2276 C2277 1.363 . S
C2276 C2282 1.379 . S
C2276 N2284 1.356 . S
C2277 C2276 1.363 . S
C2277 C2283 1.363 . S
C2278 C2279 1.363 . S
C2278 C2283 1.379 . S
C2278 N2285 1.356 . S
C2279 C2278 1.363 . S
C2279 C2282 1.363 . S
N2280 C2282 1.356 . S
N2280 H2292 0.984 . S
N2280 H2293 0.985 . S
N2281 C2283 1.356 . S
N2281 H2286 0.984 . S
N2281 H2287 0.985 . S
C2282 C2276 1.379 . S
C2282 C2279 1.363 . S
C2282 N2280 1.356 . S
C2283 C2277 1.363 . S
C2283 C2278 1.379 . S
C2283 N2281 1.356 . S
N2284 C2276 1.356 . S
N2284 H2290 0.984 . S
N2284 H2291 0.984 . S
N2285 C2278 1.356 . S
N2285 H2288 0.984 . S
N2285 H2289 0.985 . S
H2286 N2281 0.984 . S
H2287 N2281 0.985 . S
H2288 N2285 0.984 . S
H2289 N2285 0.985 . S
H2290 N2284 0.984 . S
H2291 N2284 0.984 . S
H2292 N2280 0.984 . S
H2293 N2280 0.985 . S
C2294 C2295 1.363 . S
C2294 C2300 1.379 . S
C2294 N2302 1.356 . S
C2295 C2294 1.363 . S
C2295 C2301 1.363 . S
C2296 C2297 1.363 . S
C2296 C2301 1.379 . S
C2296 N2303 1.356 . S
C2297 C2296 1.363 . S
C2297 C2300 1.363 . S
N2298 C2300 1.356 . S
N2298 H2310 0.984 . S
N2298 H2311 0.985 . S
N2299 C2301 1.356 . S
N2299 H2304 0.984 . S
N2299 H2305 0.985 . S
C2300 C2294 1.379 . S
C2300 C2297 1.363 . S
C2300 N2298 1.356 . S
C2301 C2295 1.363 . S
C2301 C2296 1.379 . S
C2301 N2299 1.356 . S
N2302 C2294 1.356 . S
N2302 H2308 0.984 . S
N2302 H2309 0.984 . S
N2303 C2296 1.356 . S
N2303 H2306 0.984 . S
N2303 H2307 0.985 . S
H2304 N2299 0.984 . S
H2305 N2299 0.985 . S
H2306 N2303 0.984 . S
H2307 N2303 0.985 . S
H2308 N2302 0.984 . S
H2309 N2302 0.984 . S
H2310 N2298 0.984 . S
H2311 N2298 0.985 . S
C2312 C2313 1.363 . S
C2312 C2318 1.379 . S
C2312 N2320 1.356 . S
C2313 C2312 1.363 . S
C2313 C2319 1.363 1_655 S
C2314 C2315 1.363 . S
C2314 C2319 1.379 . S
C2314 N2321 1.356 . S
C2315 C2314 1.363 . S
C2315 C2318 1.363 1_455 S
N2316 C2318 1.356 . S
N2316 H2328 0.984 . S
N2316 H2329 0.985 . S
N2317 C2319 1.356 . S
N2317 H2322 0.984 . S
N2317 H2323 0.985 . S
C2318 C2312 1.379 . S
C2318 C2315 1.363 1_655 S
C2318 N2316 1.356 . S
C2319 C2313 1.363 1_455 S
C2319 C2314 1.379 . S
C2319 N2317 1.356 . S
N2320 C2312 1.356 . S
N2320 H2326 0.984 . S
N2320 H2327 0.984 . S
N2321 C2314 1.356 . S
N2321 H2324 0.984 . S
N2321 H2325 0.985 . S
H2322 N2317 0.984 . S
H2323 N2317 0.985 . S
H2324 N2321 0.984 . S
H2325 N2321 0.985 . S
H2326 N2320 0.984 . S
H2327 N2320 0.984 . S
H2328 N2316 0.984 . S
H2329 N2316 0.985 . S
C2330 C2331 1.363 . S
C2330 C2336 1.379 . S
C2330 N2338 1.356 . S
C2331 C2330 1.363 . S
C2331 C2337 1.363 . S
C2332 C2333 1.363 . S
C2332 C2337 1.379 . S
C2332 N2339 1.356 . S
C2333 C2332 1.363 . S
C2333 C2336 1.363 . S
N2334 C2336 1.356 . S
N2334 H2346 0.984 . S
N2334 H2347 0.985 . S
N2335 C2337 1.356 . S
N2335 H2340 0.984 . S
N2335 H2341 0.985 . S
C2336 C2330 1.379 . S
C2336 C2333 1.363 . S
C2336 N2334 1.356 . S
C2337 C2331 1.363 . S
C2337 C2332 1.379 . S
C2337 N2335 1.356 . S
N2338 C2330 1.356 . S
N2338 H2344 0.984 . S
N2338 H2345 0.984 . S
N2339 C2332 1.356 . S
N2339 H2342 0.984 . S
N2339 H2343 0.985 . S
H2340 N2335 0.984 . S
H2341 N2335 0.985 . S
H2342 N2339 0.984 . S
H2343 N2339 0.985 . S
H2344 N2338 0.984 . S
H2345 N2338 0.984 . S
H2346 N2334 0.984 . S
H2347 N2334 0.985 . S
C2348 C2349 1.363 . S
C2348 C2354 1.379 . S
C2348 N2356 1.356 . S
C2349 C2348 1.363 . S
C2349 C2355 1.363 . S
C2350 C2351 1.363 . S
C2350 C2355 1.379 . S
C2350 N2357 1.356 . S
C2351 C2350 1.363 . S
C2351 C2354 1.363 . S
N2352 C2354 1.356 . S
N2352 H2364 0.984 . S
N2352 H2365 0.985 . S
N2353 C2355 1.356 . S
N2353 H2358 0.984 . S
N2353 H2359 0.985 . S
C2354 C2348 1.379 . S
C2354 C2351 1.363 . S
C2354 N2352 1.356 . S
C2355 C2349 1.363 . S
C2355 C2350 1.379 . S
C2355 N2353 1.356 . S
N2356 C2348 1.356 . S
N2356 H2362 0.984 . S
N2356 H2363 0.984 . S
N2357 C2350 1.356 . S
N2357 H2360 0.984 . S
N2357 H2361 0.985 . S
H2358 N2353 0.984 . S
H2359 N2353 0.985 . S
H2360 N2357 0.984 . S
H2361 N2357 0.985 . S
H2362 N2356 0.984 . S
H2363 N2356 0.984 . S
H2364 N2352 0.984 . S
H2365 N2352 0.985 . S
C2366 C2367 1.363 . S
C2366 C2372 1.379 1_455 S
C2366 N2374 1.356 . S
C2367 C2366 1.363 . S
C2367 C2373 1.363 . S
C2368 C2369 1.363 . S
C2368 C2373 1.379 1_655 S
C2368 N2375 1.356 . S
C2369 C2368 1.363 . S
C2369 C2372 1.363 . S
N2370 C2372 1.356 . S
N2370 H2382 0.984 . S
N2370 H2383 0.985 . S
N2371 C2373 1.356 . S
N2371 H2376 0.984 . S
N2371 H2377 0.985 . S
C2372 C2366 1.379 1_655 S
C2372 C2369 1.363 . S
C2372 N2370 1.356 . S
C2373 C2367 1.363 . S
C2373 C2368 1.379 1_455 S
C2373 N2371 1.356 . S
N2374 C2366 1.356 . S
N2374 H2380 0.984 . S
N2374 H2381 0.984 . S
N2375 C2368 1.356 . S
N2375 H2378 0.984 . S
N2375 H2379 0.985 . S
H2376 N2371 0.984 . S
H2377 N2371 0.985 . S
H2378 N2375 0.984 . S
H2379 N2375 0.985 . S
H2380 N2374 0.984 . S
H2381 N2374 0.984 . S
H2382 N2370 0.984 . S
H2383 N2370 0.985 . S
C2384 C2385 1.363 1_455 S
C2384 C2390 1.379 . S
C2384 N2392 1.356 . S
C2385 C2384 1.363 1_655 S
C2385 C2391 1.363 . S
C2386 C2387 1.363 1_655 S
C2386 C2391 1.379 . S
C2386 N2393 1.356 . S
C2387 C2386 1.363 1_455 S
C2387 C2390 1.363 . S
N2388 C2390 1.356 . S
N2388 H2400 0.984 . S
N2388 H2401 0.985 . S
N2389 C2391 1.356 . S
N2389 H2394 0.984 . S
N2389 H2395 0.985 . S
C2390 C2384 1.379 . S
C2390 C2387 1.363 . S
C2390 N2388 1.356 . S
C2391 C2385 1.363 . S
C2391 C2386 1.379 . S
C2391 N2389 1.356 . S
N2392 C2384 1.356 . S
N2392 H2398 0.984 . S
N2392 H2399 0.984 . S
N2393 C2386 1.356 . S
N2393 H2396 0.984 . S
N2393 H2397 0.985 . S
H2394 N2389 0.984 . S
H2395 N2389 0.985 . S
H2396 N2393 0.984 . S
H2397 N2393 0.985 . S
H2398 N2392 0.984 . S
H2399 N2392 0.984 . S
H2400 N2388 0.984 . S
H2401 N2388 0.985 . S
C2402 C2403 1.363 . S
C2402 C2408 1.379 1_455 S
C2402 N2410 1.356 . S
C2403 C2402 1.363 . S
C2403 C2409 1.363 . S
C2404 C2405 1.363 . S
C2404 C2409 1.379 1_655 S
C2404 N2411 1.356 . S
C2405 C2404 1.363 . S
C2405 C2408 1.363 . S
N2406 C2408 1.356 . S
N2406 H2418 0.984 . S
N2406 H2419 0.985 . S
N2407 C2409 1.356 . S
N2407 H2412 0.984 . S
N2407 H2413 0.985 . S
C2408 C2402 1.379 1_655 S
C2408 C2405 1.363 . S
C2408 N2406 1.356 . S
C2409 C2403 1.363 . S
C2409 C2404 1.379 1_455 S
C2409 N2407 1.356 . S
N2410 C2402 1.356 . S
N2410 H2416 0.984 . S
N2410 H2417 0.984 . S
N2411 C2404 1.356 . S
N2411 H2414 0.984 . S
N2411 H2415 0.985 . S
H2412 N2407 0.984 . S
H2413 N2407 0.985 . S
H2414 N2411 0.984 . S
H2415 N2411 0.985 . S
H2416 N2410 0.984 . S
H2417 N2410 0.984 . S
H2418 N2406 0.984 . S
H2419 N2406 0.985 . S
C2420 C2421 1.363 . S
C2420 C2426 1.379 . S
C2420 N2428 1.356 . S
C2421 C2420 1.363 . S
C2421 C2427 1.363 . S
C2422 C2423 1.363 . S
C2422 C2427 1.379 . S
C2422 N2429 1.356 . S
C2423 C2422 1.363 . S
C2423 C2426 1.363 . S
N2424 C2426 1.356 . S
N2424 H2436 0.984 . S
N2424 H2437 0.985 . S
N2425 C2427 1.356 . S
N2425 H2430 0.984 . S
N2425 H2431 0.985 . S
C2426 C2420 1.379 . S
C2426 C2423 1.363 . S
C2426 N2424 1.356 . S
C2427 C2421 1.363 . S
C2427 C2422 1.379 . S
C2427 N2425 1.356 . S
N2428 C2420 1.356 . S
N2428 H2434 0.984 . S
N2428 H2435 0.984 . S
N2429 C2422 1.356 . S
N2429 H2432 0.984 . S
N2429 H2433 0.985 . S
H2430 N2425 0.984 . S
H2431 N2425 0.985 . S
H2432 N2429 0.984 . S
H2433 N2429 0.985 . S
H2434 N2428 0.984 . S
H2435 N2428 0.984 . S
H2436 N2424 0.984 . S
H2437 N2424 0.985 . S
C2438 C2439 1.363 . S
C2438 C2444 1.379 . S
C2438 N2446 1.356 . S
C2439 C2438 1.363 . S
C2439 C2445 1.363 . S
C2440 C2441 1.363 . S
C2440 C2445 1.379 . S
C2440 N2447 1.356 . S
C2441 C2440 1.363 . S
C2441 C2444 1.363 . S
N2442 C2444 1.356 . S
N2442 H2454 0.984 . S
N2442 H2455 0.985 . S
N2443 C2445 1.356 . S
N2443 H2448 0.984 . S
N2443 H2449 0.985 . S
C2444 C2438 1.379 . S
C2444 C2441 1.363 . S
C2444 N2442 1.356 . S
C2445 C2439 1.363 . S
C2445 C2440 1.379 . S
C2445 N2443 1.356 . S
N2446 C2438 1.356 . S
N2446 H2452 0.984 . S
N2446 H2453 0.984 . S
N2447 C2440 1.356 . S
N2447 H2450 0.984 . S
N2447 H2451 0.985 . S
H2448 N2443 0.984 . S
H2449 N2443 0.985 . S
H2450 N2447 0.984 . S
H2451 N2447 0.985 . S
H2452 N2446 0.984 . S
H2453 N2446 0.984 . S
H2454 N2442 0.984 . S
H2455 N2442 0.985 . S
C2456 C2457 1.363 1_455 S
C2456 C2462 1.379 . S
C2456 N2464 1.356 . S
C2457 C2456 1.363 1_655 S
C2457 C2463 1.363 . S
C2458 C2459 1.363 1_655 S
C2458 C2463 1.379 . S
C2458 N2465 1.356 . S
C2459 C2458 1.363 1_455 S
C2459 C2462 1.363 . S
N2460 C2462 1.356 . S
N2460 H2472 0.984 . S
N2460 H2473 0.985 . S
N2461 C2463 1.356 . S
N2461 H2466 0.984 . S
N2461 H2467 0.985 . S
C2462 C2456 1.379 . S
C2462 C2459 1.363 . S
C2462 N2460 1.356 . S
C2463 C2457 1.363 . S
C2463 C2458 1.379 . S
C2463 N2461 1.356 . S
N2464 C2456 1.356 . S
N2464 H2470 0.984 . S
N2464 H2471 0.984 . S
N2465 C2458 1.356 . S
N2465 H2468 0.984 . S
N2465 H2469 0.985 . S
H2466 N2461 0.984 . S
H2467 N2461 0.985 . S
H2468 N2465 0.984 . S
H2469 N2465 0.985 . S
H2470 N2464 0.984 . S
H2471 N2464 0.984 . S
H2472 N2460 0.984 . S
H2473 N2460 0.985 . S
C2474 C2475 1.363 . S
C2474 C2480 1.379 . S
C2474 N2482 1.356 . S
C2475 C2474 1.363 . S
C2475 C2481 1.363 . S
C2476 C2477 1.363 . S
C2476 C2481 1.379 . S
C2476 N2483 1.356 . S
C2477 C2476 1.363 . S
C2477 C2480 1.363 . S
N2478 C2480 1.356 . S
N2478 H2490 0.984 . S
N2478 H2491 0.985 . S
N2479 C2481 1.356 . S
N2479 H2484 0.984 . S
N2479 H2485 0.985 . S
C2480 C2474 1.379 . S
C2480 C2477 1.363 . S
C2480 N2478 1.356 . S
C2481 C2475 1.363 . S
C2481 C2476 1.379 . S
C2481 N2479 1.356 . S
N2482 C2474 1.356 . S
N2482 H2488 0.984 . S
N2482 H2489 0.984 . S
N2483 C2476 1.356 . S
N2483 H2486 0.984 . S
N2483 H2487 0.985 . S
H2484 N2479 0.984 . S
H2485 N2479 0.985 . S
H2486 N2483 0.984 . S
H2487 N2483 0.985 . S
H2488 N2482 0.984 . S
H2489 N2482 0.984 . S
H2490 N2478 0.984 . S
H2491 N2478 0.985 . S
C2492 C2493 1.363 . S
C2492 C2498 1.379 . S
C2492 N2500 1.356 . S
C2493 C2492 1.363 . S
C2493 C2499 1.363 . S
C2494 C2495 1.363 . S
C2494 C2499 1.379 . S
C2494 N2501 1.356 . S
C2495 C2494 1.363 . S
C2495 C2498 1.363 . S
N2496 C2498 1.356 . S
N2496 H2508 0.984 . S
N2496 H2509 0.985 . S
N2497 C2499 1.356 . S
N2497 H2502 0.984 . S
N2497 H2503 0.985 . S
C2498 C2492 1.379 . S
C2498 C2495 1.363 . S
C2498 N2496 1.356 . S
C2499 C2493 1.363 . S
C2499 C2494 1.379 . S
C2499 N2497 1.356 . S
N2500 C2492 1.356 . S
N2500 H2506 0.984 . S
N2500 H2507 0.984 . S
N2501 C2494 1.356 . S
N2501 H2504 0.984 . S
N2501 H2505 0.985 . S
H2502 N2497 0.984 . S
H2503 N2497 0.985 . S
H2504 N2501 0.984 . S
H2505 N2501 0.985 . S
H2506 N2500 0.984 . S
H2507 N2500 0.984 . S
H2508 N2496 0.984 . S
H2509 N2496 0.985 . S
C2510 C2511 1.363 . S
C2510 C2516 1.379 1_655 S
C2510 N2518 1.356 . S
C2511 C2510 1.363 . S
C2511 C2517 1.363 . S
C2512 C2513 1.363 . S
C2512 C2517 1.379 1_455 S
C2512 N2519 1.356 . S
C2513 C2512 1.363 . S
C2513 C2516 1.363 . S
N2514 C2516 1.356 . S
N2514 H2526 0.984 . S
N2514 H2527 0.985 . S
N2515 C2517 1.356 . S
N2515 H2520 0.984 . S
N2515 H2521 0.985 . S
C2516 C2510 1.379 1_455 S
C2516 C2513 1.363 . S
C2516 N2514 1.356 . S
C2517 C2511 1.363 . S
C2517 C2512 1.379 1_655 S
C2517 N2515 1.356 . S
N2518 C2510 1.356 . S
N2518 H2524 0.984 . S
N2518 H2525 0.984 . S
N2519 C2512 1.356 . S
N2519 H2522 0.984 . S
N2519 H2523 0.985 . S
H2520 N2515 0.984 . S
H2521 N2515 0.985 . S
H2522 N2519 0.984 . S
H2523 N2519 0.985 . S
H2524 N2518 0.984 . S
H2525 N2518 0.984 . S
H2526 N2514 0.984 . S
H2527 N2514 0.985 . S
C1089 C951 1.449 . S
C1091 C2 1.481 . S
C1107 C305 1.449 1_455 S
C1109 C36 1.481 . S
C1125 C883 1.449 . S
C1127 C70 1.481 . S
C1143 C104 1.481 . S
C1145 C373 1.449 . S
C1161 C1019 1.449 . S
C1163 C138 1.481 . S
C1179 C509 1.449 . S
C1181 C172 1.481 . S
C1197 C206 1.481 . S
C1199 C1087 1.449 . S
C1215 C240 1.481 . S
C1217 C441 1.449 1_455 S
C1233 C679 1.449 . S
C1235 C274 1.481 . S
C1251 C33 1.449 1_655 S
C1253 C308 1.481 . S
C1269 C342 1.481 . S
C1271 C611 1.449 . S
C1287 C376 1.481 . S
C1289 C101 1.449 . S
C1305 C410 1.481 . S
C1307 C747 1.449 . S
C1323 C444 1.481 . S
C1325 C237 1.449 . S
C1341 C815 1.449 . S
C1343 C478 1.481 . S
C1359 C169 1.449 1_655 S
C1361 C512 1.481 . S
C1377 C407 1.449 . S
C1379 C546 1.481 . S
C1395 C580 1.481 . S
C1397 C849 1.449 . S
C1413 C339 1.449 . S
C1415 C614 1.481 . S
C1431 C648 1.481 . S
C1433 C917 1.449 1_655 S
C1449 C475 1.449 . S
C1451 C682 1.481 . S
C1467 C1053 1.449 1_655 S
C1469 C716 1.481 . S
C1485 C543 1.449 . S
C1487 C750 1.481 . S
C1503 C784 1.481 . S
C1505 C985 1.449 . S
C1521 C818 1.481 . S
C1523 C135 1.449 . S
C1539 C577 1.449 . S
C1541 C852 1.481 . S
C1557 C67 1.449 . S
C1559 C886 1.481 . S
C1575 C920 1.481 . S
C1577 C645 1.449 1_455 S
C1593 C954 1.481 . S
C1595 C203 1.449 . S
C1611 C988 1.481 . S
C1613 C781 1.449 1_455 S
C1629 C271 1.449 . S
C1631 C1022 1.481 . S
C1647 C1056 1.481 . S
C1649 C713 1.449 . S
C1665 C9 1.325 . S
C1667 C179 1.325 . S
C1683 C213 1.325 . S
C1685 C43 1.325 . S
C1701 C247 1.325 . S
C1703 C77 1.325 . S
C1719 C111 1.325 . S
C1721 C145 1.325 . S
C1737 C281 1.325 . S
C1739 C451 1.325 . S
C1755 C315 1.325 . S
C1757 C485 1.325 . S
C1773 C349 1.325 . S
C1775 C519 1.325 . S
C1791 C383 1.325 . S
C1793 C417 1.325 . S
C1809 C723 1.325 . S
C1811 C553 1.325 . S
C1827 C587 1.325 . S
C1829 C757 1.325 . S
C1845 C621 1.325 . S
C1847 C791 1.325 . S
C1863 C689 1.325 . S
C1865 C655 1.325 . S
C1881 C995 1.325 . S
C1883 C825 1.325 . S
C1899 C1029 1.325 . S
C1901 C859 1.325 . S
C1917 C1063 1.325 . S
C1919 C893 1.325 . S
C1935 C961 1.325 . S
C1937 C927 1.325 . S
C1953 C20 1.436 . S
C1955 C156 1.436 . S
C1971 C54 1.437 . S
C1973 C190 1.437 . S
C1989 C224 1.436 . S
C1991 C88 1.436 . S
C2007 C258 1.436 . S
C2009 C122 1.436 . S
C2025 C292 1.436 . S
C2027 C428 1.436 . S
C2043 C462 1.437 . S
C2045 C326 1.437 . S
C2061 C360 1.436 . S
C2063 C496 1.436 . S
C2079 C530 1.436 . S
C2081 C394 1.436 . S
C2097 C564 1.436 . S
C2099 C700 1.436 . S
C2115 C598 1.436 . S
C2117 C734 1.436 . S
C2133 C632 1.436 . S
C2135 C768 1.436 . S
C2151 C666 1.437 . S
C2153 C802 1.437 . S
C2169 C972 1.436 . S
C2171 C836 1.436 . S
C2187 C870 1.436 . S
C2189 C1006 1.436 . S
C2205 C904 1.436 . S
C2207 C1040 1.436 . S
C2223 C938 1.437 . S
C2225 C1074 1.437 . S
C2241 C5 1.028 . S
C2243 C617 1.028 . S
C2259 C651 1.028 . S
C2261 C39 1.028 . S
C2277 C73 1.028 . S
C2279 C549 1.028 . S
C2295 C107 1.028 . S
C2297 C583 1.028 . S
C2313 C753 1.028 . S
C2315 C141 1.028 . S
C2331 C787 1.028 . S
C2333 C175 1.028 . S
C2349 C209 1.028 . S
C2351 C685 1.028 . S
C2367 C243 1.028 . S
C2369 C719 1.028 . S
C2385 C277 1.028 . S
C2387 C889 1.028 . S
C2403 C923 1.028 . S
C2405 C311 1.028 . S
C2421 C821 1.028 . S
C2423 C345 1.028 . S
C2439 C379 1.028 . S
C2441 C855 1.028 . S
C2457 C413 1.028 . S
C2459 C1025 1.028 . S
C2475 C447 1.028 . S
C2477 C1059 1.028 . S
C2493 C481 1.028 . S
C2495 C957 1.028 . S
C2511 C515 1.028 . S
C2513 C991 1.028 . S
