# Generated by pormake.
# Topology uoc, (4)-cn, num edge types: 1
# Building blocks:
#     Node 0, Type 0, BuildingBlock: CEKHIL_clean_sbu_0, # of connection points: 4
#     Node 1, Type 0, BuildingBlock: CEKHIL_clean_sbu_0, # of connection points: 4
#     Node 2, Type 0, BuildingBlock: CEKHIL_clean_sbu_0, # of connection points: 4
#     Node 3, Type 0, BuildingBlock: CEKHIL_clean_sbu_0, # of connection points: 4
#     Node 4, Type 0, BuildingBlock: CEKHIL_clean_sbu_0, # of connection points: 4
#     Node 5, Type 0, BuildingBlock: CEKHIL_clean_sbu_0, # of connection points: 4
#     Node 6, Type 0, BuildingBlock: CEKHIL_clean_sbu_0, # of connection points: 4
#     Node 7, Type 0, BuildingBlock: CEKHIL_clean_sbu_0, # of connection points: 4
#     Edge 8, Type (0, 0), BuildingBlock: XUDNAN_clean_linker_2, # of connection points: 2
#     Edge 9, Type (0, 0), BuildingBlock: XUDNAN_clean_linker_2, # of connection points: 2
#     Edge 10, Type (0, 0), BuildingBlock: XUDNAN_clean_linker_2, # of connection points: 2
#     Edge 11, Type (0, 0), BuildingBlock: XUDNAN_clean_linker_2, # of connection points: 2
#     Edge 12, Type (0, 0), BuildingBlock: XUDNAN_clean_linker_2, # of connection points: 2
#     Edge 13, Type (0, 0), BuildingBlock: XUDNAN_clean_linker_2, # of connection points: 2
#     Edge 14, Type (0, 0), BuildingBlock: XUDNAN_clean_linker_2, # of connection points: 2
#     Edge 15, Type (0, 0), BuildingBlock: XUDNAN_clean_linker_2, # of connection points: 2
#     Edge 16, Type (0, 0), BuildingBlock: XUDNAN_clean_linker_2, # of connection points: 2
#     Edge 17, Type (0, 0), BuildingBlock: XUDNAN_clean_linker_2, # of connection points: 2
#     Edge 18, Type (0, 0), BuildingBlock: XUDNAN_clean_linker_2, # of connection points: 2
#     Edge 19, Type (0, 0), BuildingBlock: XUDNAN_clean_linker_2, # of connection points: 2
#     Edge 20, Type (0, 0), BuildingBlock: XUDNAN_clean_linker_2, # of connection points: 2
#     Edge 21, Type (0, 0), BuildingBlock: XUDNAN_clean_linker_2, # of connection points: 2
#     Edge 22, Type (0, 0), BuildingBlock: XUDNAN_clean_linker_2, # of connection points: 2
#     Edge 23, Type (0, 0), BuildingBlock: XUDNAN_clean_linker_2, # of connection points: 2
# Relax obj value: 0.097
# Max RMSD: 0.108
# Mean RMSD: 0.108
data_MOF--net-uoc--node1-CEKHIL_clean_sbu_0--edge1-XUDNAN_clean_linker_2
_symmetry_space_group_name_H-M    P1
_symmetry_Int_Tables_number       1
_symmetry_cell_setting            triclinic
loop_
_symmetry_equiv_pos_as_xyz
'x, y, z'
_cell_length_a     27.047576
_cell_length_b     27.057321
_cell_length_c     54.218454
_cell_angle_alpha  90.063309
_cell_angle_beta   90.045144
_cell_angle_gamma 92.511398
loop_
_atom_site_label
_atom_site_type_symbol
_atom_site_fract_x
_atom_site_fract_y
_atom_site_fract_z
_atom_type_partial_charge
Co0 Co 0.10075 0.26488 0.11112 0.0
O1 O 0.10769 0.33585 0.11422 0.0
O2 O 0.03846 0.29077 0.12063 0.0
C3 C 0.14008 0.25904 0.07518 0.0
O4 O 0.07813 0.19225 0.10832 0.0
Co5 Co 0.19022 0.19926 0.11304 0.0
O6 O 0.14294 0.14348 0.10492 0.0
C7 C 0.15877 0.24814 0.15807 0.0
C8 C 0.06111 0.33416 0.12012 0.0
C9 C 0.09657 0.14969 0.10494 0.0
O10 O 0.11885 0.25821 0.14673 0.0
O11 O 0.19471 0.2275 0.14744 0.0
O12 O 0.09409 0.27081 0.07589 0.0
O13 O 0.16271 0.25585 0.0962 0.0
Co14 Co 0.77956 0.60616 0.38184 0.0
O15 O 0.84953 0.62174 0.38552 0.0
O16 O 0.81636 0.54957 0.37281 0.0
C17 C 0.75484 0.63925 0.41754 0.0
O18 O 0.71023 0.57502 0.3769 0.0
Co19 Co 0.70316 0.68738 0.37702 0.0
O20 O 0.65302 0.63215 0.38098 0.0
C21 C 0.76817 0.66777 0.33517 0.0
C22 C 0.85574 0.57709 0.37762 0.0
C23 C 0.66488 0.58736 0.37855 0.0
O24 O 0.78298 0.62959 0.34665 0.0
O25 O 0.73847 0.698 0.3447 0.0
O26 O 0.77294 0.59548 0.41734 0.0
O27 O 0.75699 0.66308 0.39688 0.0
Co28 Co 0.39509 0.23398 0.6139 0.0
O29 O 0.39882 0.16335 0.61198 0.0
O30 O 0.45815 0.2143 0.62664 0.0
C31 C 0.3661 0.24481 0.57577 0.0
O32 O 0.40476 0.30905 0.61784 0.0
Co33 Co 0.29327 0.28113 0.6115 0.0
O34 O 0.33265 0.34436 0.60994 0.0
C35 C 0.32167 0.2303 0.6566 0.0
C36 C 0.44255 0.16917 0.62166 0.0
C37 C 0.3788 0.34744 0.6147 0.0
O38 O 0.36521 0.22662 0.64759 0.0
O39 O 0.28592 0.24852 0.64469 0.0
O40 O 0.41311 0.24039 0.57947 0.0
O41 O 0.33746 0.2374 0.59465 0.0
Co42 Co 0.72082 0.89155 0.87843 0.0
O43 O 0.65267 0.86918 0.87632 0.0
O44 O 0.68081 0.94475 0.86677 0.0
C45 C 0.73403 0.86159 0.91632 0.0
O46 O 0.78894 0.92747 0.87933 0.0
Co47 Co 0.79993 0.81402 0.8797 0.0
O48 O 0.84614 0.87132 0.88645 0.0
C49 C 0.75296 0.83439 0.83264 0.0
C50 C 0.64322 0.91324 0.86889 0.0
C51 C 0.83392 0.91592 0.88366 0.0
O52 O 0.73158 0.86969 0.84358 0.0
O53 O 0.77957 0.80395 0.84414 0.0
O54 O 0.714 0.90379 0.9132 0.0
O55 O 0.74091 0.8359 0.89645 0.0
Co56 Co 0.6112 0.76713 0.61717 0.0
O57 O 0.63041 0.83599 0.6138 0.0
O58 O 0.55958 0.80748 0.63001 0.0
C59 C 0.63146 0.74466 0.57879 0.0
O60 O 0.57816 0.69868 0.62267 0.0
Co61 Co 0.68994 0.68967 0.61585 0.0
O62 O 0.6329 0.64154 0.61328 0.0
C63 C 0.68363 0.75169 0.65954 0.0
C64 C 0.58847 0.8453 0.62399 0.0
C65 C 0.58919 0.65349 0.61867 0.0
O66 O 0.64356 0.7675 0.65042 0.0
O67 O 0.71063 0.72142 0.64818 0.0
O68 O 0.58938 0.76397 0.58344 0.0
O69 O 0.66258 0.74384 0.59706 0.0
Co70 Co 0.25492 0.10844 0.87924 0.0
O71 O 0.32572 0.10573 0.8784 0.0
O72 O 0.27353 0.042 0.87115 0.0
C73 C 0.25064 0.15077 0.91473 0.0
O74 O 0.17938 0.09778 0.87938 0.0
Co75 Co 0.2073 0.21038 0.87536 0.0
O76 O 0.14587 0.17188 0.88412 0.0
C77 C 0.24945 0.16621 0.83109 0.0
C78 C 0.31912 0.05934 0.87275 0.0
C79 C 0.1418 0.12483 0.88283 0.0
O80 O 0.25512 0.1262 0.8433 0.0
O81 O 0.23389 0.20572 0.84086 0.0
O82 O 0.25513 0.10315 0.91502 0.0
O83 O 0.25402 0.17153 0.89329 0.0
Co84 Co 0.88382 0.73147 0.11193 0.0
O85 O 0.86987 0.66205 0.11505 0.0
O86 O 0.94461 0.69818 0.11902 0.0
C87 C 0.83975 0.74212 0.07737 0.0
O88 O 0.91008 0.80349 0.10898 0.0
Co89 Co 0.79439 0.79859 0.11795 0.0
O90 O 0.84234 0.84801 0.10357 0.0
C91 C 0.83451 0.75086 0.16152 0.0
C92 C 0.91644 0.65782 0.11966 0.0
C93 C 0.88918 0.84405 0.1034 0.0
O94 O 0.87154 0.73887 0.14832 0.0
O95 O 0.79708 0.772 0.15255 0.0
O96 O 0.88437 0.7264 0.07607 0.0
O97 O 0.82164 0.7449 0.09938 0.0
Co98 Co 0.24657 0.38972 0.37697 0.0
O99 O 0.17606 0.39331 0.38015 0.0
O100 O 0.22676 0.45491 0.36749 0.0
C101 C 0.25906 0.35213 0.41317 0.0
O102 O 0.32147 0.40026 0.37273 0.0
Co103 Co 0.29441 0.28765 0.3739 0.0
O104 O 0.35695 0.32746 0.37838 0.0
C105 C 0.24202 0.32476 0.33078 0.0
C106 C 0.18195 0.43852 0.37246 0.0
C107 C 0.35994 0.3742 0.37536 0.0
O108 O 0.23793 0.36644 0.34186 0.0
O109 O 0.26074 0.28718 0.34091 0.0
O110 O 0.25465 0.39978 0.41239 0.0
O111 O 0.25098 0.32874 0.39268 0.0
H112 H 0.19281 0.18279 0.05761 0.0
H113 H 0.14101 0.3274 0.03916 0.0
H114 H 0.17312 0.31911 -0.00322 0.0
H115 H 0.30443 0.18586 0.01644 0.0
H116 H 0.29437 0.12173 0.00805 0.0
H117 H 0.27605 0.14282 0.0381 0.0
H118 H 0.18682 0.10756 0.03013 0.0
H119 H 0.2047 0.08678 4e-05 0.0
H120 H 0.15386 0.12722 0.0032 0.0
H121 H 0.20255 0.29221 0.9558 0.0
H122 H 0.2247 0.24694 0.91811 0.0
H123 H 0.25277 0.1174 0.96227 0.0
C124 C 0.19 0.21322 0.04479 0.0
C125 C 0.16563 0.25614 0.05149 0.0
C126 C 0.16036 0.29459 0.0342 0.0
C127 C 0.17854 0.29026 0.0102 0.0
C128 C 0.20129 0.24692 0.00379 0.0
C129 C 0.20704 0.20896 0.02052 0.0
C130 C 0.22719 0.16397 0.00805 0.0
C131 C 0.27857 0.15296 0.01827 0.0
C132 C 0.19097 0.11874 0.0105 0.0
C133 C 0.23044 0.18213 0.98166 0.0
C134 C 0.21629 0.2304 0.97971 0.0
C135 C 0.21425 0.25456 0.95708 0.0
C136 C 0.22674 0.22855 0.93578 0.0
C137 C 0.24031 0.17875 0.93732 0.0
C138 C 0.24259 0.15551 0.96058 0.0
H139 H 0.7291 0.72628 0.29911 0.0
H140 H 0.85002 0.63014 0.31408 0.0
H141 H 0.882 0.64463 0.27207 0.0
H142 H 0.70836 0.68603 0.23712 0.0
H143 H 0.69413 0.74629 0.22568 0.0
H144 H 0.68201 0.73064 0.25743 0.0
H145 H 0.73558 0.80733 0.27145 0.0
H146 H 0.748 0.82316 0.23972 0.0
H147 H 0.79856 0.8151 0.2608 0.0
H148 H 0.90036 0.66808 0.22861 0.0
H149 H 0.9018 0.69542 0.18539 0.0
H150 H 0.76785 0.77508 0.19774 0.0
C151 C 0.76252 0.7086 0.29361 0.0
C152 C 0.78709 0.67711 0.30992 0.0
C153 C 0.83039 0.65419 0.3019 0.0
C154 C 0.84903 0.6624 0.2781 0.0
C155 C 0.82386 0.69344 0.26248 0.0
C156 C 0.78143 0.716 0.26978 0.0
C157 C 0.7604 0.74592 0.24892 0.0
C158 C 0.70813 0.72601 0.24187 0.0
C159 C 0.76067 0.80116 0.25563 0.0
C160 C 0.79746 0.73624 0.22871 0.0
C161 C 0.834 0.7063 0.23707 0.0
C162 C 0.87204 0.69166 0.22183 0.0
C163 C 0.87252 0.70754 0.19728 0.0
C164 C 0.83494 0.73754 0.18805 0.0
C165 C 0.79716 0.7523 0.20415 0.0
H166 H 0.31849 0.32293 0.55665 0.0
H167 H 0.3731 0.17907 0.53882 0.0
H168 H 0.34694 0.189 0.49542 0.0
H169 H 0.2124 0.31982 0.51408 0.0
H170 H 0.22151 0.3841 0.50584 0.0
H171 H 0.23941 0.36332 0.536 0.0
H172 H 0.32835 0.39995 0.52876 0.0
H173 H 0.31081 0.42058 0.49856 0.0
H174 H 0.36233 0.38109 0.50201 0.0
H175 H 0.3177 0.21535 0.45419 0.0
H176 H 0.29104 0.25832 0.41669 0.0
H177 H 0.26059 0.38793 0.46047 0.0
C178 C 0.32379 0.29328 0.5436 0.0
C179 C 0.34673 0.24987 0.5508 0.0
C180 C 0.35488 0.21225 0.53339 0.0
C181 C 0.34016 0.21756 0.50883 0.0
C182 C 0.31812 0.26109 0.50207 0.0
C183 C 0.31022 0.29849 0.51885 0.0
C184 C 0.28951 0.34308 0.50629 0.0
C185 C 0.23762 0.35315 0.51614 0.0
C186 C 0.32487 0.38887 0.50907 0.0
C187 C 0.28738 0.32498 0.47984 0.0
C188 C 0.30343 0.27735 0.47792 0.0
C189 C 0.305 0.25265 0.45542 0.0
C190 C 0.28983 0.27735 0.43424 0.0
C191 C 0.27403 0.32644 0.43571 0.0
C192 C 0.27277 0.35047 0.45882 0.0
H193 H 0.76859 0.75466 0.80149 0.0
H194 H 0.723 0.90678 0.80226 0.0
H195 H 0.70778 0.9027 0.75779 0.0
H196 H 0.82836 0.76068 0.73981 0.0
H197 H 0.80683 0.69895 0.73141 0.0
H198 H 0.81882 0.71416 0.76331 0.0
H199 H 0.72955 0.684 0.77467 0.0
H200 H 0.71729 0.66876 0.74285 0.0
H201 H 0.67798 0.71008 0.759 0.0
H202 H 0.69068 0.88219 0.71491 0.0
H203 H 0.6723 0.84537 0.67435 0.0
H204 H 0.72924 0.70609 0.6989 0.0
C205 C 0.75616 0.78725 0.79218 0.0
C206 C 0.74695 0.83101 0.80549 0.0
C207 C 0.73007 0.87269 0.79265 0.0
C208 C 0.72155 0.87093 0.76729 0.0
C209 C 0.73015 0.8273 0.75481 0.0
C210 C 0.74716 0.78614 0.76662 0.0
C211 C 0.75046 0.74319 0.74864 0.0
C212 C 0.80433 0.72838 0.74561 0.0
C213 C 0.71681 0.6989 0.75678 0.0
C214 C 0.7314 0.76655 0.72517 0.0
C215 C 0.72041 0.81526 0.72933 0.0
C216 C 0.69966 0.84429 0.71127 0.0
C217 C 0.68916 0.82293 0.68833 0.0
C218 C 0.69951 0.77299 0.6835 0.0
C219 C 0.72173 0.74458 0.70203 0.0
H220 H 0.27071 0.26026 0.29485 0.0
H221 H 0.17095 0.37844 0.30912 0.0
H222 H 0.13782 0.36973 0.26687 0.0
H223 H 0.29893 0.29602 0.23222 0.0
H224 H 0.30194 0.23336 0.22119 0.0
H225 H 0.31696 0.24776 0.25283 0.0
H226 H 0.25122 0.18161 0.26741 0.0
H227 H 0.23586 0.16714 0.2358 0.0
H228 H 0.18821 0.18481 0.25687 0.0
H229 H 0.11403 0.34717 0.22397 0.0
H230 H 0.10514 0.31697 0.18137 0.0
H231 H 0.22312 0.21577 0.19364 0.0
C232 C 0.24178 0.28416 0.28909 0.0
C233 C 0.22322 0.31992 0.30528 0.0
C234 C 0.18583 0.35097 0.29698 0.0
C235 C 0.16662 0.34614 0.27308 0.0
C236 C 0.1856 0.31048 0.25762 0.0
C237 C 0.22268 0.28037 0.26513 0.0
C238 C 0.23763 0.24626 0.24448 0.0
C239 C 0.29209 0.25648 0.23725 0.0
C240 C 0.22762 0.19172 0.25157 0.0
C241 C 0.20295 0.26183 0.22423 0.0
C242 C 0.17298 0.29856 0.23238 0.0
C243 C 0.13738 0.31855 0.21731 0.0
C244 C 0.13252 0.3009 0.19315 0.0
C245 C 0.16346 0.26393 0.18413 0.0
C246 C 0.1991 0.24415 0.19996 0.0
H247 H 0.69877 0.67857 0.56148 0.0
H248 H 0.59407 0.78631 0.53807 0.0
H249 H 0.61453 0.77054 0.49473 0.0
H250 H 0.79075 0.70424 0.51447 0.0
H251 H 0.80484 0.64041 0.5098 0.0
H252 H 0.78311 0.66053 0.5394 0.0
H253 H 0.71149 0.59384 0.53766 0.0
H254 H 0.733 0.57352 0.50804 0.0
H255 H 0.67015 0.59193 0.51154 0.0
H256 H 0.64765 0.74685 0.45443 0.0
H257 H 0.68816 0.71135 0.41828 0.0
H258 H 0.76777 0.61387 0.46622 0.0
C259 C 0.68047 0.69883 0.54716 0.0
C260 C 0.64505 0.73381 0.55309 0.0
C261 C 0.62122 0.75924 0.53393 0.0
C262 C 0.63266 0.75068 0.50924 0.0
C263 C 0.66749 0.716 0.50391 0.0
C264 C 0.69075 0.68996 0.52218 0.0
C265 C 0.72558 0.65357 0.51099 0.0
C266 C 0.77925 0.66542 0.51915 0.0
C267 C 0.70905 0.60004 0.51744 0.0
C268 C 0.71858 0.66394 0.48371 0.0
C269 C 0.68512 0.7004 0.48019 0.0
C270 C 0.6736 0.71792 0.45685 0.0
C271 C 0.69689 0.6976 0.43644 0.0
C272 C 0.73076 0.65968 0.43945 0.0
C273 C 0.74155 0.64246 0.4634 0.0
H274 H 0.26152 0.26708 0.69242 0.0
H275 H 0.36353 0.15132 0.67744 0.0
H276 H 0.35263 0.12015 0.71991 0.0
H277 H 0.30587 0.29269 0.75319 0.0
H278 H 0.24605 0.30507 0.76584 0.0
H279 H 0.25829 0.31602 0.73362 0.0
H280 H 0.18263 0.25866 0.72191 0.0
H281 H 0.17008 0.24762 0.75411 0.0
H282 H 0.17836 0.19624 0.73356 0.0
H283 H 0.33225 0.10227 0.76365 0.0
H284 H 0.30741 0.10136 0.80731 0.0
H285 H 0.22197 0.23148 0.79513 0.0
C286 C 0.28091 0.23477 0.69806 0.0
C287 C 0.31305 0.21129 0.68172 0.0
C288 C 0.33876 0.16978 0.68977 0.0
C289 C 0.33267 0.1517 0.71378 0.0
C290 C 0.30119 0.17593 0.72957 0.0
C291 C 0.276 0.21676 0.72218 0.0
C292 C 0.24705 0.23774 0.74339 0.0
C293 C 0.26543 0.29103 0.74936 0.0
C294 C 0.19122 0.23487 0.73791 0.0
C295 C 0.26009 0.20237 0.7638 0.0
C296 C 0.29088 0.1667 0.75529 0.0
C297 C 0.30809 0.12994 0.77058 0.0
C298 C 0.29366 0.12972 0.79535 0.0
C299 C 0.26276 0.16638 0.80466 0.0
C300 C 0.24576 0.2031 0.78859 0.0
H301 H 0.86757 0.73271 0.02912 0.0
H302 H 0.75296 0.78989 0.07586 0.0
H303 H 0.7113 0.82207 0.03907 0.0
H304 H 0.87565 0.83259 0.9873 0.0
H305 H 0.88483 0.79516 0.9603 0.0
H306 H 0.90433 0.77394 0.99007 0.0
H307 H 0.85103 0.69283 0.98435 0.0
H308 H 0.83141 0.71372 0.95449 0.0
H309 H 0.786 0.69596 0.97751 0.0
H310 H 0.68617 0.85367 -0.00165 0.0
H311 H 0.67622 0.88046 0.95535 0.0
H312 H 0.80467 0.79992 0.93395 0.0
C313 C 0.83342 0.75157 0.03157 0.0
C314 C 0.81339 0.75889 0.05532 0.0
C315 C 0.76879 0.7838 0.05783 0.0
C316 C 0.74489 0.80216 0.03706 0.0
C317 C 0.76583 0.79473 0.01394 0.0
C318 C 0.80883 0.76971 0.011 0.0
C319 C 0.8241 0.768 0.98409 0.0
C320 C 0.87525 0.79398 0.98022 0.0
C321 C 0.82306 0.71444 0.97455 0.0
C322 C 0.78345 0.79689 0.97242 0.0
C323 C 0.75034 0.81188 0.99008 0.0
C324 C 0.71137 0.84159 0.9843 0.0
C325 C 0.70618 0.85674 0.95985 0.0
C326 C 0.73946 0.84182 0.9414 0.0
C327 C 0.77824 0.81096 0.94768 0.0
H328 H 0.10627 0.05277 0.11896 0.0
H329 H 0.00953 0.15006 0.08006 0.0
H330 H 0.95133 0.07934 0.0716 0.0
H331 H 0.0824 0.94159 0.08071 0.0
H332 H 0.08215 0.90002 0.10667 0.0
H333 H 0.11931 0.95696 0.10757 0.0
H334 H 0.07609 0.98199 0.14804 0.0
H335 H 0.03909 0.92507 0.14734 0.0
H336 H 0.00953 0.98343 0.14888 0.0
H337 H 0.90248 0.00072 0.06866 0.0
H338 H 0.86015 0.91966 0.07497 0.0
H339 H 0.98522 0.87157 0.11764 0.0
C340 C 0.07312 0.05886 0.10838 0.0
C341 C 0.06241 0.10675 0.09999 0.0
C342 C 0.01827 0.1137 0.08668 0.0
C343 C 0.98524 0.0737 0.08162 0.0
C344 C 0.99663 0.02706 0.09021 0.0
C345 C 0.03911 0.01936 0.10356 0.0
C346 C 0.0399 0.96618 0.11253 0.0
C347 C 0.08354 0.93963 0.10118 0.0
C348 C 0.04122 0.96406 0.14088 0.0
C349 C 0.99081 0.94554 0.10246 0.0
C350 C 0.96712 0.98131 0.08928 0.0
C351 C 0.92063 0.97235 0.07889 0.0
C352 C 0.89684 0.92614 0.08267 0.0
C353 C 0.91921 0.8893 0.09694 0.0
C354 C 0.96744 0.89876 0.10645 0.0
H355 H 0.12285 0.47876 0.40696 0.0
H356 H 0.14291 0.46172 0.32823 0.0
H357 H 0.06206 0.49882 0.32074 0.0
H358 H 0.9968 0.44944 0.40952 0.0
H359 H 0.982 0.4951 0.43228 0.0
H360 H 0.043 0.47117 0.43144 0.0
H361 H 0.08183 0.56 0.42725 0.0
H362 H 0.02091 0.58435 0.42845 0.0
H363 H 0.0613 0.59949 0.40287 0.0
H364 H 0.97461 0.52622 0.32243 0.0
H365 H 0.89094 0.55387 0.33269 0.0
H366 H 0.93077 0.56116 0.41003 0.0
C367 C 0.11059 0.48423 0.38817 0.0
C368 C 0.13876 0.46814 0.36808 0.0
C369 C 0.12178 0.47471 0.34372 0.0
C370 C 0.07596 0.49545 0.33936 0.0
C371 C 0.04835 0.51017 0.35959 0.0
C372 C 0.06553 0.50601 0.3835 0.0
C373 C 0.02829 0.524 0.40196 0.0
C374 C 0.01154 0.48244 0.41985 0.0
C375 C 0.04934 0.56968 0.41596 0.0
C376 C 0.98679 0.53735 0.38478 0.0
C377 C 0.99898 0.52871 0.36042 0.0
C378 C 0.96509 0.53428 0.34135 0.0
C379 C 0.91774 0.54966 0.34731 0.0
C380 C 0.90522 0.56007 0.37201 0.0
C381 C 0.94012 0.55415 0.39096 0.0
H382 H 0.47804 0.37494 0.61158 0.0
H383 H 0.33302 0.43376 0.62315 0.0
H384 H 0.37107 0.51784 0.62654 0.0
H385 H 0.546 0.45791 0.65309 0.0
H386 H 0.59938 0.46432 0.63328 0.0
H387 H 0.56098 0.40824 0.63259 0.0
H388 H 0.54841 0.41853 0.58551 0.0
H389 H 0.58675 0.47464 0.58605 0.0
H390 H 0.52479 0.47523 0.57383 0.0
H391 H 0.4245 0.59595 0.62832 0.0
H392 H 0.48974 0.6627 0.62708 0.0
H393 H 0.59963 0.55345 0.61349 0.0
C394 C 0.45437 0.40545 0.61503 0.0
C395 C 0.40255 0.39762 0.61717 0.0
C396 C 0.3728 0.43872 0.62136 0.0
C397 C 0.39405 0.4867 0.6234 0.0
C398 C 0.44513 0.4932 0.62106 0.0
C399 C 0.47493 0.4538 0.61686 0.0
C400 C 0.52863 0.47126 0.61421 0.0
C401 C 0.56063 0.44912 0.63451 0.0
C402 C 0.54829 0.4592 0.58837 0.0
C403 C 0.52429 0.52649 0.61769 0.0
C404 C 0.47585 0.53838 0.62169 0.0
C405 C 0.46264 0.58712 0.62522 0.0
C406 C 0.49998 0.6248 0.6245 0.0
C407 C 0.54992 0.61354 0.62021 0.0
C408 C 0.56192 0.56354 0.61685 0.0
H409 H 0.60621 0.00619 0.86518 0.0
H410 H 0.56311 0.84983 0.86355 0.0
H411 H 0.47539 0.87026 0.86098 0.0
H412 H 0.51175 0.04188 0.90393 0.0
H413 H 0.50157 0.09995 0.8889 0.0
H414 H 0.56138 0.07358 0.88732 0.0
H415 H 0.55834 0.07644 0.83957 0.0
H416 H 0.49852 0.10319 0.841 0.0
H417 H 0.50636 0.04735 0.82355 0.0
H418 H 0.39198 0.90715 0.86214 0.0
H419 H 0.31911 0.95849 0.86714 0.0
H420 H 0.41621 0.09049 0.86885 0.0
C421 C 0.57835 0.97636 0.86367 0.0
C422 C 0.59149 0.92646 0.86443 0.0
C423 C 0.55391 0.88837 0.86294 0.0
C424 C 0.50393 0.89956 0.86141 0.0
C425 C 0.49202 0.94906 0.86132 0.0
C426 C 0.5281 0.9869 0.86228 0.0
C427 C 0.5051 0.03687 0.86366 0.0
C428 C 0.52089 0.06467 0.88737 0.0
C429 C 0.51784 0.06778 0.84057 0.0
C430 C 0.45067 0.02104 0.86419 0.0
C431 C 0.44383 0.97031 0.86242 0.0
C432 C 0.39681 0.947 0.86329 0.0
C433 C 0.35566 0.97639 0.86617 0.0
C434 C 0.36198 0.02838 0.86843 0.0
C435 C 0.41015 0.0508 0.86719 0.0
H436 H 0.00959 0.62204 0.11246 0.0
H437 H 0.86311 0.5829 0.14085 0.0
H438 H 0.88748 0.49758 0.14782 0.0
H439 H 0.02281 0.51374 0.07895 0.0
H440 H 0.08777 0.50761 0.08506 0.0
H441 H 0.06199 0.56778 0.08555 0.0
H442 H 0.09477 0.58219 0.13001 0.0
H443 H 0.121 0.52207 0.12959 0.0
H444 H 0.07863 0.53772 0.15373 0.0
H445 H 0.92295 0.41536 0.14731 0.0
H446 H 0.96918 0.34015 0.14012 0.0
H447 H 0.09338 0.4304 0.1121 0.0
C448 C 0.98327 0.59571 0.12074 0.0
C449 C 0.93455 0.60894 0.12616 0.0
C450 C 0.9006 0.57338 0.13647 0.0
C451 C 0.91412 0.52488 0.14063 0.0
C452 C 0.96182 0.5124 0.13442 0.0
C453 C 0.99612 0.54665 0.12485 0.0
C454 C 0.04352 0.52209 0.11792 0.0
C455 C 0.05464 0.52817 0.09023 0.0
C456 C 0.08706 0.54222 0.13376 0.0
C457 C 0.02967 0.4687 0.12434 0.0
C458 C 0.98257 0.46418 0.1341 0.0
C459 C 0.96022 0.41838 0.14005 0.0
C460 C 0.98664 0.37587 0.13579 0.0
C461 C 0.03485 0.37949 0.12566 0.0
C462 C 0.05679 0.4266 0.12015 0.0
H463 H 0.38589 0.47409 0.37846 0.0
H464 H 0.44801 0.32947 0.37068 0.0
H465 H 0.53184 0.36839 0.37029 0.0
H466 H 0.47428 0.54063 0.33924 0.0
H467 H 0.4773 0.59521 0.35837 0.0
H468 H 0.42157 0.55627 0.35755 0.0
H469 H 0.42509 0.54677 0.40506 0.0
H470 H 0.48089 0.5856 0.40602 0.0
H471 H 0.48015 0.52447 0.41923 0.0
H472 H 0.60904 0.422 0.37111 0.0
H473 H 0.67506 0.48753 0.37327 0.0
H474 H 0.56396 0.59782 0.38096 0.0
C475 C 0.41709 0.45065 0.37652 0.0
C476 C 0.41013 0.39865 0.37458 0.0
C477 C 0.45214 0.36934 0.37229 0.0
C478 C 0.50005 0.39108 0.372 0.0
C479 C 0.50562 0.44224 0.3741 0.0
C480 C 0.46543 0.47175 0.37634 0.0
C481 C 0.48206 0.5258 0.37879 0.0
C482 C 0.46265 0.55626 0.35719 0.0
C483 C 0.4661 0.54689 0.40376 0.0
C484 C 0.53779 0.52189 0.37747 0.0
C485 C 0.55049 0.47333 0.37475 0.0
C486 C 0.59962 0.46023 0.37322 0.0
C487 C 0.63689 0.49781 0.37447 0.0
C488 C 0.62493 0.54799 0.37727 0.0
C489 C 0.57453 0.55993 0.37879 0.0
H490 H 0.41124 0.07195 0.62217 0.0
H491 H 0.54197 0.16892 0.63159 0.0
H492 H 0.59296 0.09576 0.63645 0.0
H493 H 0.44742 0.97712 0.66662 0.0
H494 H 0.42099 0.92718 0.64816 0.0
H495 H 0.3946 0.98717 0.64725 0.0
H496 H 0.40539 0.98946 0.59977 0.0
H497 H 0.43188 0.92964 0.60053 0.0
H498 H 0.46575 0.98132 0.58668 0.0
H499 H 0.63041 0.01239 0.63571 0.0
H500 H 0.65137 0.92479 0.63173 0.0
H501 H 0.49555 0.88199 0.62504 0.0
C502 C 0.45053 0.07785 0.62553 0.0
C503 C 0.4728 0.12605 0.62642 0.0
C504 C 0.52423 0.13227 0.63091 0.0
C505 C 0.55341 0.09097 0.6337 0.0
C506 C 0.53036 0.04389 0.63234 0.0
C507 C 0.47998 0.03715 0.62867 0.0
C508 C 0.46447 0.98273 0.62714 0.0
C509 C 0.42982 0.96767 0.64857 0.0
C510 C 0.44048 0.97007 0.60204 0.0
C511 C 0.51424 0.9598 0.62978 0.0
C512 C 0.55175 0.99575 0.6328 0.0
C513 C 0.6013 0.98391 0.63378 0.0
C514 C 0.61284 0.93414 0.63141 0.0
C515 C 0.575 0.8968 0.62831 0.0
C516 C 0.52506 0.90977 0.62789 0.0
H517 H 0.93432 0.90455 0.88391 0.0
H518 H 0.82421 0.01668 0.88552 0.0
H519 H 0.89119 0.08181 0.88666 0.0
H520 H 0.02308 0.96641 0.92457 0.0
H521 H 0.07589 0.94685 0.90745 0.0
H522 H 0.01937 0.90906 0.90757 0.0
H523 H 0.0172 0.91116 0.8598 0.0
H524 H 0.07369 0.94893 0.85953 0.0
H525 H 0.0194 0.96997 0.84414 0.0
H526 H 0.96994 0.13447 0.88734 0.0
H527 H 0.05439 0.17166 0.8861 0.0
H528 H 0.11377 0.02508 0.8831 0.0
C529 C 0.92408 0.94276 0.88468 0.0
C530 C 0.87378 0.95541 0.88475 0.0
C531 C 0.86232 0.00598 0.88548 0.0
C532 C 0.90014 0.04323 0.88618 0.0
C533 C 0.94921 0.02935 0.88603 0.0
C534 C 0.96127 0.98035 0.88521 0.0
C535 C 0.01691 0.97534 0.8845 0.0
C536 C 0.03486 0.94779 0.90739 0.0
C537 C 0.03271 0.94985 0.86057 0.0
C538 C 0.03438 0.02929 0.88496 0.0
C539 C 0.99468 0.05974 0.886 0.0
C540 C 0.00127 0.11098 0.88653 0.0
C541 C 0.04962 0.13172 0.88583 0.0
C542 C 0.09111 0.1014 0.88446 0.0
C543 C 0.08308 0.04939 0.88413 0.0
loop_
_geom_bond_atom_site_label_1
_geom_bond_atom_site_label_2
_geom_bond_distance
_geom_bond_site_symmetry_2
_ccdc_geom_bond_type
Co0 O1 2.216 . S
Co0 O2 2.091 . S
Co0 O4 2.004 . S
Co0 O10 2.021 . S
Co0 O12 2.137 . S
Co0 O13 2.244 . S
O1 Co0 2.216 . S
O1 C8 1.247 . S
O2 Co0 2.091 . S
O2 C8 1.261 . S
C3 O12 1.247 . S
C3 O13 1.272 . S
O4 Co0 2.004 . S
O4 C9 1.259 . S
Co5 O6 2.061 . S
Co5 O11 2.052 . S
Co5 O13 2.135 . S
O6 Co5 2.061 . S
O6 C9 1.235 . S
C7 O10 1.238 . S
C7 O11 1.241 . S
C8 O1 1.247 . S
C8 O2 1.261 . S
C9 O4 1.259 . S
C9 O6 1.235 . S
O10 Co0 2.021 . S
O10 C7 1.238 . S
O11 Co5 2.052 . S
O11 C7 1.241 . S
O12 Co0 2.137 . S
O12 C3 1.247 . S
O13 Co0 2.244 . S
O13 C3 1.272 . S
O13 Co5 2.135 . S
Co14 O15 2.216 . S
Co14 O16 2.091 . S
Co14 O18 2.004 . S
Co14 O24 2.021 . S
Co14 O26 2.137 . S
Co14 O27 2.244 . S
O15 Co14 2.216 . S
O15 C22 1.247 . S
O16 Co14 2.091 . S
O16 C22 1.261 . S
C17 O26 1.247 . S
C17 O27 1.272 . S
O18 Co14 2.004 . S
O18 C23 1.259 . S
Co19 O20 2.061 . S
Co19 O25 2.052 . S
Co19 O27 2.135 . S
O20 Co19 2.061 . S
O20 C23 1.235 . S
C21 O24 1.238 . S
C21 O25 1.241 . S
C22 O15 1.247 . S
C22 O16 1.261 . S
C23 O18 1.259 . S
C23 O20 1.235 . S
O24 Co14 2.021 . S
O24 C21 1.238 . S
O25 Co19 2.052 . S
O25 C21 1.241 . S
O26 Co14 2.137 . S
O26 C17 1.247 . S
O27 Co14 2.244 . S
O27 C17 1.272 . S
O27 Co19 2.135 . S
Co28 O29 2.216 . S
Co28 O30 2.091 . S
Co28 O32 2.004 . S
Co28 O38 2.021 . S
Co28 O40 2.137 . S
Co28 O41 2.244 . S
O29 Co28 2.216 . S
O29 C36 1.247 . S
O30 Co28 2.091 . S
O30 C36 1.261 . S
C31 O40 1.247 . S
C31 O41 1.272 . S
O32 Co28 2.004 . S
O32 C37 1.259 . S
Co33 O34 2.061 . S
Co33 O39 2.052 . S
Co33 O41 2.135 . S
O34 Co33 2.061 . S
O34 C37 1.235 . S
C35 O38 1.238 . S
C35 O39 1.241 . S
C36 O29 1.247 . S
C36 O30 1.261 . S
C37 O32 1.259 . S
C37 O34 1.235 . S
O38 Co28 2.021 . S
O38 C35 1.238 . S
O39 Co33 2.052 . S
O39 C35 1.241 . S
O40 Co28 2.137 . S
O40 C31 1.247 . S
O41 Co28 2.244 . S
O41 C31 1.272 . S
O41 Co33 2.135 . S
Co42 O43 2.216 . S
Co42 O44 2.091 . S
Co42 O46 2.004 . S
Co42 O52 2.021 . S
Co42 O54 2.137 . S
Co42 O55 2.244 . S
O43 Co42 2.216 . S
O43 C50 1.247 . S
O44 Co42 2.091 . S
O44 C50 1.261 . S
C45 O54 1.247 . S
C45 O55 1.272 . S
O46 Co42 2.004 . S
O46 C51 1.259 . S
Co47 O48 2.061 . S
Co47 O53 2.052 . S
Co47 O55 2.135 . S
O48 Co47 2.061 . S
O48 C51 1.235 . S
C49 O52 1.238 . S
C49 O53 1.241 . S
C50 O43 1.247 . S
C50 O44 1.261 . S
C51 O46 1.259 . S
C51 O48 1.235 . S
O52 Co42 2.021 . S
O52 C49 1.238 . S
O53 Co47 2.052 . S
O53 C49 1.241 . S
O54 Co42 2.137 . S
O54 C45 1.247 . S
O55 Co42 2.244 . S
O55 C45 1.272 . S
O55 Co47 2.135 . S
Co56 O57 2.216 . S
Co56 O58 2.091 . S
Co56 O60 2.004 . S
Co56 O66 2.021 . S
Co56 O68 2.137 . S
Co56 O69 2.244 . S
O57 Co56 2.216 . S
O57 C64 1.247 . S
O58 Co56 2.091 . S
O58 C64 1.261 . S
C59 O68 1.247 . S
C59 O69 1.272 . S
O60 Co56 2.004 . S
O60 C65 1.259 . S
Co61 O62 2.061 . S
Co61 O67 2.052 . S
Co61 O69 2.135 . S
O62 Co61 2.061 . S
O62 C65 1.235 . S
C63 O66 1.238 . S
C63 O67 1.241 . S
C64 O57 1.247 . S
C64 O58 1.261 . S
C65 O60 1.259 . S
C65 O62 1.235 . S
O66 Co56 2.021 . S
O66 C63 1.238 . S
O67 Co61 2.052 . S
O67 C63 1.241 . S
O68 Co56 2.137 . S
O68 C59 1.247 . S
O69 Co56 2.244 . S
O69 C59 1.272 . S
O69 Co61 2.135 . S
Co70 O71 2.216 . S
Co70 O72 2.091 . S
Co70 O74 2.004 . S
Co70 O80 2.021 . S
Co70 O82 2.137 . S
Co70 O83 2.244 . S
O71 Co70 2.216 . S
O71 C78 1.247 . S
O72 Co70 2.091 . S
O72 C78 1.261 . S
C73 O82 1.247 . S
C73 O83 1.272 . S
O74 Co70 2.004 . S
O74 C79 1.259 . S
Co75 O76 2.061 . S
Co75 O81 2.052 . S
Co75 O83 2.135 . S
O76 Co75 2.061 . S
O76 C79 1.235 . S
C77 O80 1.238 . S
C77 O81 1.241 . S
C78 O71 1.247 . S
C78 O72 1.261 . S
C79 O74 1.259 . S
C79 O76 1.235 . S
O80 Co70 2.021 . S
O80 C77 1.238 . S
O81 Co75 2.052 . S
O81 C77 1.241 . S
O82 Co70 2.137 . S
O82 C73 1.247 . S
O83 Co70 2.244 . S
O83 C73 1.272 . S
O83 Co75 2.135 . S
Co84 O85 2.216 . S
Co84 O86 2.091 . S
Co84 O88 2.004 . S
Co84 O94 2.021 . S
Co84 O96 2.137 . S
Co84 O97 2.244 . S
O85 Co84 2.216 . S
O85 C92 1.247 . S
O86 Co84 2.091 . S
O86 C92 1.261 . S
C87 O96 1.247 . S
C87 O97 1.272 . S
O88 Co84 2.004 . S
O88 C93 1.259 . S
Co89 O90 2.061 . S
Co89 O95 2.052 . S
Co89 O97 2.135 . S
O90 Co89 2.061 . S
O90 C93 1.235 . S
C91 O94 1.238 . S
C91 O95 1.241 . S
C92 O85 1.247 . S
C92 O86 1.261 . S
C93 O88 1.259 . S
C93 O90 1.235 . S
O94 Co84 2.021 . S
O94 C91 1.238 . S
O95 Co89 2.052 . S
O95 C91 1.241 . S
O96 Co84 2.137 . S
O96 C87 1.247 . S
O97 Co84 2.244 . S
O97 C87 1.272 . S
O97 Co89 2.135 . S
Co98 O99 2.216 . S
Co98 O100 2.091 . S
Co98 O102 2.004 . S
Co98 O108 2.021 . S
Co98 O110 2.137 . S
Co98 O111 2.244 . S
O99 Co98 2.216 . S
O99 C106 1.247 . S
O100 Co98 2.091 . S
O100 C106 1.261 . S
C101 O110 1.247 . S
C101 O111 1.272 . S
O102 Co98 2.004 . S
O102 C107 1.259 . S
Co103 O104 2.061 . S
Co103 O109 2.052 . S
Co103 O111 2.135 . S
O104 Co103 2.061 . S
O104 C107 1.235 . S
C105 O108 1.238 . S
C105 O109 1.241 . S
C106 O99 1.247 . S
C106 O100 1.261 . S
C107 O102 1.259 . S
C107 O104 1.235 . S
O108 Co98 2.021 . S
O108 C105 1.238 . S
O109 Co103 2.052 . S
O109 C105 1.241 . S
O110 Co98 2.137 . S
O110 C101 1.247 . S
O111 Co98 2.244 . S
O111 C101 1.272 . S
O111 Co103 2.135 . S
H112 C124 0.930 . S
H113 C126 0.930 . S
H114 C127 0.930 . S
H115 C131 0.959 . S
H116 C131 0.979 . S
H117 C131 0.961 . S
H118 C132 0.960 . S
H119 C132 0.961 1_556 S
H120 C132 0.959 . S
H121 C135 0.929 . S
H122 C136 0.931 . S
H123 C138 0.930 . S
C124 H112 0.930 . S
C124 C125 1.399 . S
C124 C129 1.399 . S
C125 C124 1.399 . S
C125 C126 1.376 . S
C126 H113 0.930 . S
C126 C125 1.376 . S
C126 C127 1.388 . S
C127 H114 0.930 . S
C127 C126 1.388 . S
C127 C128 1.390 . S
C128 C127 1.390 . S
C128 C129 1.394 . S
C128 C134 1.465 1_554 S
C129 C124 1.399 . S
C129 C128 1.394 . S
C129 C130 1.516 . S
C130 C129 1.516 . S
C130 C131 1.502 . S
C130 C132 1.561 . S
C130 C133 1.526 1_554 S
C131 H115 0.959 . S
C131 H116 0.979 . S
C131 H117 0.961 . S
C131 C130 1.502 . S
C132 H118 0.960 . S
C132 H119 0.961 1_554 S
C132 H120 0.959 . S
C132 C130 1.561 . S
C133 C130 1.526 1_556 S
C133 C134 1.396 . S
C133 C138 1.390 . S
C134 C128 1.465 1_556 S
C134 C133 1.396 . S
C134 C135 1.399 . S
C135 H121 0.929 . S
C135 C134 1.399 . S
C135 C136 1.385 . S
C136 H122 0.931 . S
C136 C135 1.385 . S
C136 C137 1.389 . S
C137 C136 1.389 . S
C137 C138 1.387 . S
C138 H123 0.930 . S
C138 C133 1.390 . S
C138 C137 1.387 . S
H139 C151 0.930 . S
H140 C153 0.930 . S
H141 C154 0.930 . S
H142 C158 0.959 . S
H143 C158 0.959 . S
H144 C158 0.961 . S
H145 C159 0.960 . S
H146 C159 0.961 . S
H147 C159 0.959 . S
H148 C162 0.929 . S
H149 C163 0.931 . S
H150 C165 0.930 . S
C151 H139 0.930 . S
C151 C152 1.399 . S
C151 C156 1.399 . S
C152 C151 1.399 . S
C152 C153 1.376 . S
C153 H140 0.930 . S
C153 C152 1.376 . S
C153 C154 1.388 . S
C154 H141 0.930 . S
C154 C153 1.388 . S
C154 C155 1.390 . S
C155 C154 1.390 . S
C155 C156 1.394 . S
C155 C161 1.465 . S
C156 C151 1.399 . S
C156 C155 1.394 . S
C156 C157 1.516 . S
C157 C156 1.516 . S
C157 C158 1.502 . S
C157 C159 1.561 . S
C157 C160 1.526 . S
C158 H142 0.959 . S
C158 H143 0.959 . S
C158 H144 0.961 . S
C158 C157 1.502 . S
C159 H145 0.960 . S
C159 H146 0.961 . S
C159 H147 0.959 . S
C159 C157 1.561 . S
C160 C157 1.526 . S
C160 C161 1.396 . S
C160 C165 1.390 . S
C161 C155 1.465 . S
C161 C160 1.396 . S
C161 C162 1.399 . S
C162 H148 0.929 . S
C162 C161 1.399 . S
C162 C163 1.385 . S
C163 H149 0.931 . S
C163 C162 1.385 . S
C163 C164 1.389 . S
C164 C163 1.389 . S
C164 C165 1.387 . S
C165 H150 0.930 . S
C165 C160 1.390 . S
C165 C164 1.387 . S
H166 C178 0.930 . S
H167 C180 0.930 . S
H168 C181 0.930 . S
H169 C185 0.959 . S
H170 C185 0.959 . S
H171 C185 0.961 . S
H172 C186 0.960 . S
H173 C186 0.961 . S
H174 C186 0.959 . S
H175 C189 0.929 . S
H176 C190 0.931 . S
H177 C192 0.930 . S
C178 H166 0.930 . S
C178 C179 1.399 . S
C178 C183 1.399 . S
C179 C178 1.399 . S
C179 C180 1.376 . S
C180 H167 0.930 . S
C180 C179 1.376 . S
C180 C181 1.388 . S
C181 H168 0.930 . S
C181 C180 1.388 . S
C181 C182 1.390 . S
C182 C181 1.390 . S
C182 C183 1.394 . S
C182 C188 1.465 . S
C183 C178 1.399 . S
C183 C182 1.394 . S
C183 C184 1.516 . S
C184 C183 1.516 . S
C184 C185 1.502 . S
C184 C186 1.561 . S
C184 C187 1.526 . S
C185 H169 0.959 . S
C185 H170 0.959 . S
C185 H171 0.961 . S
C185 C184 1.502 . S
C186 H172 0.960 . S
C186 H173 0.961 . S
C186 H174 0.959 . S
C186 C184 1.561 . S
C187 C184 1.526 . S
C187 C188 1.396 . S
C187 C192 1.390 . S
C188 C182 1.465 . S
C188 C187 1.396 . S
C188 C189 1.399 . S
C189 H175 0.929 . S
C189 C188 1.399 . S
C189 C190 1.385 . S
C190 H176 0.931 . S
C190 C189 1.385 . S
C190 C191 1.389 . S
C191 C190 1.389 . S
C191 C192 1.387 . S
C192 H177 0.930 . S
C192 C187 1.390 . S
C192 C191 1.387 . S
H193 C205 0.930 . S
H194 C207 0.930 . S
H195 C208 0.930 . S
H196 C212 0.959 . S
H197 C212 0.959 . S
H198 C212 0.961 . S
H199 C213 0.960 . S
H200 C213 0.961 . S
H201 C213 0.959 . S
H202 C216 0.929 . S
H203 C217 0.931 . S
H204 C219 0.930 . S
C205 H193 0.930 . S
C205 C206 1.399 . S
C205 C210 1.399 . S
C206 C205 1.399 . S
C206 C207 1.376 . S
C207 H194 0.930 . S
C207 C206 1.376 . S
C207 C208 1.388 . S
C208 H195 0.930 . S
C208 C207 1.388 . S
C208 C209 1.390 . S
C209 C208 1.390 . S
C209 C210 1.394 . S
C209 C215 1.465 . S
C210 C205 1.399 . S
C210 C209 1.394 . S
C210 C211 1.516 . S
C211 C210 1.516 . S
C211 C212 1.502 . S
C211 C213 1.561 . S
C211 C214 1.526 . S
C212 H196 0.959 . S
C212 H197 0.959 . S
C212 H198 0.961 . S
C212 C211 1.502 . S
C213 H199 0.960 . S
C213 H200 0.961 . S
C213 H201 0.959 . S
C213 C211 1.561 . S
C214 C211 1.526 . S
C214 C215 1.396 . S
C214 C219 1.390 . S
C215 C209 1.465 . S
C215 C214 1.396 . S
C215 C216 1.399 . S
C216 H202 0.929 . S
C216 C215 1.399 . S
C216 C217 1.385 . S
C217 H203 0.931 . S
C217 C216 1.385 . S
C217 C218 1.389 . S
C218 C217 1.389 . S
C218 C219 1.387 . S
C219 H204 0.930 . S
C219 C214 1.390 . S
C219 C218 1.387 . S
H220 C232 0.930 . S
H221 C234 0.930 . S
H222 C235 0.930 . S
H223 C239 0.959 . S
H224 C239 0.959 . S
H225 C239 0.961 . S
H226 C240 0.960 . S
H227 C240 0.961 . S
H228 C240 0.959 . S
H229 C243 0.929 . S
H230 C244 0.931 . S
H231 C246 0.930 . S
C232 H220 0.930 . S
C232 C233 1.399 . S
C232 C237 1.399 . S
C233 C232 1.399 . S
C233 C234 1.376 . S
C234 H221 0.930 . S
C234 C233 1.376 . S
C234 C235 1.388 . S
C235 H222 0.930 . S
C235 C234 1.388 . S
C235 C236 1.390 . S
C236 C235 1.390 . S
C236 C237 1.394 . S
C236 C242 1.465 . S
C237 C232 1.399 . S
C237 C236 1.394 . S
C237 C238 1.516 . S
C238 C237 1.516 . S
C238 C239 1.502 . S
C238 C240 1.561 . S
C238 C241 1.526 . S
C239 H223 0.959 . S
C239 H224 0.959 . S
C239 H225 0.961 . S
C239 C238 1.502 . S
C240 H226 0.960 . S
C240 H227 0.961 . S
C240 H228 0.959 . S
C240 C238 1.561 . S
C241 C238 1.526 . S
C241 C242 1.396 . S
C241 C246 1.390 . S
C242 C236 1.465 . S
C242 C241 1.396 . S
C242 C243 1.399 . S
C243 H229 0.929 . S
C243 C242 1.399 . S
C243 C244 1.385 . S
C244 H230 0.931 . S
C244 C243 1.385 . S
C244 C245 1.389 . S
C245 C244 1.389 . S
C245 C246 1.387 . S
C246 H231 0.930 . S
C246 C241 1.390 . S
C246 C245 1.387 . S
H247 C259 0.930 . S
H248 C261 0.930 . S
H249 C262 0.930 . S
H250 C266 0.959 . S
H251 C266 0.959 . S
H252 C266 0.961 . S
H253 C267 0.960 . S
H254 C267 0.961 . S
H255 C267 0.959 . S
H256 C270 0.929 . S
H257 C271 0.931 . S
H258 C273 0.930 . S
C259 H247 0.930 . S
C259 C260 1.399 . S
C259 C264 1.399 . S
C260 C259 1.399 . S
C260 C261 1.376 . S
C261 H248 0.930 . S
C261 C260 1.376 . S
C261 C262 1.388 . S
C262 H249 0.930 . S
C262 C261 1.388 . S
C262 C263 1.390 . S
C263 C262 1.390 . S
C263 C264 1.394 . S
C263 C269 1.465 . S
C264 C259 1.399 . S
C264 C263 1.394 . S
C264 C265 1.516 . S
C265 C264 1.516 . S
C265 C266 1.502 . S
C265 C267 1.561 . S
C265 C268 1.526 . S
C266 H250 0.959 . S
C266 H251 0.959 . S
C266 H252 0.961 . S
C266 C265 1.502 . S
C267 H253 0.960 . S
C267 H254 0.961 . S
C267 H255 0.959 . S
C267 C265 1.561 . S
C268 C265 1.526 . S
C268 C269 1.396 . S
C268 C273 1.390 . S
C269 C263 1.465 . S
C269 C268 1.396 . S
C269 C270 1.399 . S
C270 H256 0.929 . S
C270 C269 1.399 . S
C270 C271 1.385 . S
C271 H257 0.931 . S
C271 C270 1.385 . S
C271 C272 1.389 . S
C272 C271 1.389 . S
C272 C273 1.387 . S
C273 H258 0.930 . S
C273 C268 1.390 . S
C273 C272 1.387 . S
H274 C286 0.930 . S
H275 C288 0.930 . S
H276 C289 0.930 . S
H277 C293 0.959 . S
H278 C293 0.959 . S
H279 C293 0.961 . S
H280 C294 0.960 . S
H281 C294 0.961 . S
H282 C294 0.959 . S
H283 C297 0.929 . S
H284 C298 0.931 . S
H285 C300 0.930 . S
C286 H274 0.930 . S
C286 C287 1.399 . S
C286 C291 1.399 . S
C287 C286 1.399 . S
C287 C288 1.376 . S
C288 H275 0.930 . S
C288 C287 1.376 . S
C288 C289 1.388 . S
C289 H276 0.930 . S
C289 C288 1.388 . S
C289 C290 1.390 . S
C290 C289 1.390 . S
C290 C291 1.394 . S
C290 C296 1.465 . S
C291 C286 1.399 . S
C291 C290 1.394 . S
C291 C292 1.516 . S
C292 C291 1.516 . S
C292 C293 1.502 . S
C292 C294 1.561 . S
C292 C295 1.526 . S
C293 H277 0.959 . S
C293 H278 0.959 . S
C293 H279 0.961 . S
C293 C292 1.502 . S
C294 H280 0.960 . S
C294 H281 0.961 . S
C294 H282 0.959 . S
C294 C292 1.561 . S
C295 C292 1.526 . S
C295 C296 1.396 . S
C295 C300 1.390 . S
C296 C290 1.465 . S
C296 C295 1.396 . S
C296 C297 1.399 . S
C297 H283 0.929 . S
C297 C296 1.399 . S
C297 C298 1.385 . S
C298 H284 0.931 . S
C298 C297 1.385 . S
C298 C299 1.389 . S
C299 C298 1.389 . S
C299 C300 1.387 . S
C300 H285 0.930 . S
C300 C295 1.390 . S
C300 C299 1.387 . S
H301 C313 0.930 . S
H302 C315 0.930 . S
H303 C316 0.930 . S
H304 C320 0.959 . S
H305 C320 0.959 . S
H306 C320 0.969 . S
H307 C321 0.960 1_554 S
H308 C321 0.961 . S
H309 C321 0.959 . S
H310 C324 0.929 . S
H311 C325 0.931 . S
H312 C327 0.930 . S
C313 H301 0.930 . S
C313 C314 1.399 . S
C313 C318 1.399 . S
C314 C313 1.399 . S
C314 C315 1.376 . S
C315 H302 0.930 . S
C315 C314 1.376 . S
C315 C316 1.388 . S
C316 H303 0.930 . S
C316 C315 1.388 . S
C316 C317 1.390 . S
C317 C316 1.390 . S
C317 C318 1.394 . S
C317 C323 1.465 1_554 S
C318 C313 1.399 . S
C318 C317 1.394 . S
C318 C319 1.516 1_554 S
C319 C318 1.516 1_556 S
C319 C320 1.502 . S
C319 C321 1.561 . S
C319 C322 1.526 . S
C320 H304 0.959 . S
C320 H305 0.959 . S
C320 H306 0.969 . S
C320 C319 1.502 . S
C321 H307 0.960 1_556 S
C321 H308 0.961 . S
C321 H309 0.959 . S
C321 C319 1.561 . S
C322 C319 1.526 . S
C322 C323 1.396 . S
C322 C327 1.390 . S
C323 C317 1.465 1_556 S
C323 C322 1.396 . S
C323 C324 1.399 . S
C324 H310 0.929 . S
C324 C323 1.399 . S
C324 C325 1.385 . S
C325 H311 0.931 . S
C325 C324 1.385 . S
C325 C326 1.389 . S
C326 C325 1.389 . S
C326 C327 1.387 . S
C327 H312 0.930 . S
C327 C322 1.390 . S
C327 C326 1.387 . S
H328 C340 0.930 . S
H329 C342 0.930 . S
H330 C343 0.930 1_655 S
H331 C347 0.959 . S
H332 C347 0.959 . S
H333 C347 0.961 . S
H334 C348 0.960 1_455 S
H335 C348 0.961 1_565 S
H336 C348 0.959 . S
H337 C351 0.929 . S
H338 C352 0.931 . S
H339 C354 0.930 . S
C340 H328 0.930 . S
C340 C341 1.399 . S
C340 C345 1.399 . S
C341 C340 1.399 . S
C341 C342 1.376 . S
C342 H329 0.930 . S
C342 C341 1.376 . S
C342 C343 1.388 . S
C343 H330 0.930 1_455 S
C343 C342 1.388 . S
C343 C344 1.390 . S
C344 C343 1.390 . S
C344 C345 1.405 . S
C344 C350 1.455 1_445 S
C345 C340 1.399 . S
C345 C344 1.405 . S
C345 C346 1.516 1_545 S
C346 C345 1.516 1_565 S
C346 C347 1.502 . S
C346 C348 1.561 1_465 S
C346 C349 1.526 1_455 S
C347 H331 0.959 . S
C347 H332 0.959 . S
C347 H333 0.961 . S
C347 C346 1.502 . S
C348 H334 0.960 1_655 S
C348 H335 0.961 1_545 S
C348 H336 0.959 . S
C348 C346 1.561 1_645 S
C349 C346 1.526 1_655 S
C349 C350 1.396 . S
C349 C354 1.390 . S
C350 C344 1.455 1_665 S
C350 C349 1.396 . S
C350 C351 1.399 . S
C351 H337 0.929 . S
C351 C350 1.399 . S
C351 C352 1.385 . S
C352 H338 0.931 . S
C352 C351 1.385 . S
C352 C353 1.389 . S
C353 C352 1.389 . S
C353 C354 1.387 . S
C354 H339 0.930 . S
C354 C349 1.390 . S
C354 C353 1.387 . S
H355 C367 0.930 . S
H356 C369 0.930 . S
H357 C370 0.930 . S
H358 C374 0.959 . S
H359 C374 0.959 . S
H360 C374 0.961 1_455 S
H361 C375 0.960 . S
H362 C375 0.961 . S
H363 C375 0.959 . S
H364 C378 0.929 . S
H365 C379 0.931 . S
H366 C381 0.930 . S
C367 H355 0.930 . S
C367 C368 1.399 . S
C367 C372 1.399 . S
C368 C367 1.399 . S
C368 C369 1.376 . S
C369 H356 0.930 . S
C369 C368 1.376 . S
C369 C370 1.388 . S
C370 H357 0.930 . S
C370 C369 1.388 . S
C370 C371 1.390 . S
C371 C370 1.390 . S
C371 C372 1.394 . S
C371 C377 1.465 1_455 S
C372 C367 1.399 . S
C372 C371 1.394 . S
C372 C373 1.516 . S
C373 C372 1.516 . S
C373 C374 1.502 1_455 S
C373 C375 1.561 . S
C373 C376 1.526 1_455 S
C374 H358 0.959 . S
C374 H359 0.959 . S
C374 H360 0.961 1_655 S
C374 C373 1.502 1_655 S
C375 H361 0.960 . S
C375 H362 0.961 . S
C375 H363 0.959 . S
C375 C373 1.561 . S
C376 C373 1.526 1_655 S
C376 C377 1.396 . S
C376 C381 1.390 . S
C377 C371 1.465 1_655 S
C377 C376 1.396 . S
C377 C378 1.399 . S
C378 H364 0.929 . S
C378 C377 1.399 . S
C378 C379 1.385 . S
C379 H365 0.931 . S
C379 C378 1.385 . S
C379 C380 1.389 . S
C380 C379 1.389 . S
C380 C381 1.387 . S
C381 H366 0.930 . S
C381 C376 1.390 . S
C381 C380 1.387 . S
H382 C394 0.930 . S
H383 C396 0.930 . S
H384 C397 0.930 . S
H385 C401 0.959 . S
H386 C401 0.959 . S
H387 C401 0.961 . S
H388 C402 0.960 . S
H389 C402 0.961 . S
H390 C402 0.959 . S
H391 C405 0.929 . S
H392 C406 0.931 . S
H393 C408 0.930 . S
C394 H382 0.930 . S
C394 C395 1.399 . S
C394 C399 1.399 . S
C395 C394 1.399 . S
C395 C396 1.376 . S
C396 H383 0.930 . S
C396 C395 1.376 . S
C396 C397 1.388 . S
C397 H384 0.930 . S
C397 C396 1.388 . S
C397 C398 1.390 . S
C398 C397 1.390 . S
C398 C399 1.394 . S
C398 C404 1.465 . S
C399 C394 1.399 . S
C399 C398 1.394 . S
C399 C400 1.516 . S
C400 C399 1.516 . S
C400 C401 1.502 . S
C400 C402 1.561 . S
C400 C403 1.526 . S
C401 H385 0.959 . S
C401 H386 0.959 . S
C401 H387 0.961 . S
C401 C400 1.502 . S
C402 H388 0.960 . S
C402 H389 0.961 . S
C402 H390 0.959 . S
C402 C400 1.561 . S
C403 C400 1.526 . S
C403 C404 1.396 . S
C403 C408 1.390 . S
C404 C398 1.465 . S
C404 C403 1.396 . S
C404 C405 1.399 . S
C405 H391 0.929 . S
C405 C404 1.399 . S
C405 C406 1.385 . S
C406 H392 0.931 . S
C406 C405 1.385 . S
C406 C407 1.389 . S
C407 C406 1.389 . S
C407 C408 1.387 . S
C408 H393 0.930 . S
C408 C403 1.390 . S
C408 C407 1.387 . S
H409 C421 0.930 . S
H410 C423 0.930 . S
H411 C424 0.930 . S
H412 C428 0.959 . S
H413 C428 0.959 . S
H414 C428 0.956 1_565 S
H415 C429 0.960 . S
H416 C429 0.961 . S
H417 C429 0.959 . S
H418 C432 0.929 . S
H419 C433 0.931 . S
H420 C435 0.930 . S
C421 H409 0.930 . S
C421 C422 1.399 . S
C421 C426 1.399 . S
C422 C421 1.399 . S
C422 C423 1.376 . S
C423 H410 0.930 . S
C423 C422 1.376 . S
C423 C424 1.388 . S
C424 H411 0.930 . S
C424 C423 1.388 . S
C424 C425 1.390 . S
C425 C424 1.390 . S
C425 C426 1.394 . S
C425 C431 1.465 1_565 S
C426 C421 1.399 . S
C426 C425 1.394 . S
C426 C427 1.516 . S
C427 C426 1.516 . S
C427 C428 1.502 1_565 S
C427 C429 1.561 . S
C427 C430 1.526 1_565 S
C428 H412 0.959 . S
C428 H413 0.959 . S
C428 H414 0.956 1_545 S
C428 C427 1.502 1_545 S
C429 H415 0.960 . S
C429 H416 0.961 . S
C429 H417 0.959 . S
C429 C427 1.561 . S
C430 C427 1.526 1_545 S
C430 C431 1.396 . S
C430 C435 1.390 . S
C431 C425 1.465 1_545 S
C431 C430 1.396 . S
C431 C432 1.399 . S
C432 H418 0.929 . S
C432 C431 1.399 . S
C432 C433 1.385 . S
C433 H419 0.931 . S
C433 C432 1.385 . S
C433 C434 1.389 . S
C434 C433 1.389 . S
C434 C435 1.387 . S
C435 H420 0.930 . S
C435 C430 1.390 . S
C435 C434 1.387 . S
H436 C448 0.930 . S
H437 C450 0.930 . S
H438 C451 0.930 . S
H439 C455 0.959 . S
H440 C455 0.959 . S
H441 C455 0.961 . S
H442 C456 0.960 . S
H443 C456 0.961 . S
H444 C456 0.959 . S
H445 C459 0.929 . S
H446 C460 0.931 . S
H447 C462 0.930 . S
C448 H436 0.930 . S
C448 C449 1.399 . S
C448 C453 1.399 . S
C449 C448 1.399 . S
C449 C450 1.376 . S
C450 H437 0.930 . S
C450 C449 1.376 . S
C450 C451 1.388 . S
C451 H438 0.930 . S
C451 C450 1.388 . S
C451 C452 1.390 . S
C452 C451 1.390 . S
C452 C453 1.394 . S
C452 C458 1.465 . S
C453 C448 1.399 . S
C453 C452 1.394 . S
C453 C454 1.516 1_655 S
C454 C453 1.516 1_455 S
C454 C455 1.502 . S
C454 C456 1.561 . S
C454 C457 1.526 . S
C455 H439 0.959 . S
C455 H440 0.959 . S
C455 H441 0.961 . S
C455 C454 1.502 . S
C456 H442 0.960 . S
C456 H443 0.961 . S
C456 H444 0.959 . S
C456 C454 1.561 . S
C457 C454 1.526 . S
C457 C458 1.396 1_455 S
C457 C462 1.390 . S
C458 C452 1.465 . S
C458 C457 1.396 1_655 S
C458 C459 1.399 . S
C459 H445 0.929 . S
C459 C458 1.399 . S
C459 C460 1.385 1_655 S
C460 H446 0.931 . S
C460 C459 1.385 1_455 S
C460 C461 1.389 . S
C461 C460 1.389 . S
C461 C462 1.387 . S
C462 H447 0.930 . S
C462 C457 1.390 . S
C462 C461 1.387 . S
H463 C475 0.930 . S
H464 C477 0.930 . S
H465 C478 0.930 . S
H466 C482 0.959 . S
H467 C482 0.959 . S
H468 C482 0.961 . S
H469 C483 0.960 . S
H470 C483 0.961 . S
H471 C483 0.959 . S
H472 C486 0.929 . S
H473 C487 0.931 . S
H474 C489 0.930 . S
C475 H463 0.930 . S
C475 C476 1.399 . S
C475 C480 1.399 . S
C476 C475 1.399 . S
C476 C477 1.376 . S
C477 H464 0.930 . S
C477 C476 1.376 . S
C477 C478 1.388 . S
C478 H465 0.930 . S
C478 C477 1.388 . S
C478 C479 1.390 . S
C479 C478 1.390 . S
C479 C480 1.394 . S
C479 C485 1.465 . S
C480 C475 1.399 . S
C480 C479 1.394 . S
C480 C481 1.516 . S
C481 C480 1.516 . S
C481 C482 1.502 . S
C481 C483 1.561 . S
C481 C484 1.526 . S
C482 H466 0.959 . S
C482 H467 0.959 . S
C482 H468 0.961 . S
C482 C481 1.502 . S
C483 H469 0.960 . S
C483 H470 0.961 . S
C483 H471 0.959 . S
C483 C481 1.561 . S
C484 C481 1.526 . S
C484 C485 1.396 . S
C484 C489 1.390 . S
C485 C479 1.465 . S
C485 C484 1.396 . S
C485 C486 1.399 . S
C486 H472 0.929 . S
C486 C485 1.399 . S
C486 C487 1.385 . S
C487 H473 0.931 . S
C487 C486 1.385 . S
C487 C488 1.389 . S
C488 C487 1.389 . S
C488 C489 1.387 . S
C489 H474 0.930 . S
C489 C484 1.390 . S
C489 C488 1.387 . S
H490 C502 0.930 . S
H491 C504 0.930 . S
H492 C505 0.930 . S
H493 C509 0.959 . S
H494 C509 0.959 . S
H495 C509 0.961 . S
H496 C510 0.960 . S
H497 C510 0.961 . S
H498 C510 0.959 . S
H499 C513 0.929 1_545 S
H500 C514 0.931 . S
H501 C516 0.930 . S
C502 H490 0.930 . S
C502 C503 1.399 . S
C502 C507 1.399 . S
C503 C502 1.399 . S
C503 C504 1.376 . S
C504 H491 0.930 . S
C504 C503 1.376 . S
C504 C505 1.388 . S
C505 H492 0.930 . S
C505 C504 1.388 . S
C505 C506 1.390 . S
C506 C505 1.390 . S
C506 C507 1.394 . S
C506 C512 1.465 1_545 S
C507 C502 1.399 . S
C507 C506 1.394 . S
C507 C508 1.516 1_545 S
C508 C507 1.516 1_565 S
C508 C509 1.502 . S
C508 C510 1.561 . S
C508 C511 1.526 . S
C509 H493 0.959 . S
C509 H494 0.959 . S
C509 H495 0.961 . S
C509 C508 1.502 . S
C510 H496 0.960 . S
C510 H497 0.961 . S
C510 H498 0.959 . S
C510 C508 1.561 . S
C511 C508 1.526 . S
C511 C512 1.396 . S
C511 C516 1.390 . S
C512 C506 1.465 1_565 S
C512 C511 1.396 . S
C512 C513 1.399 . S
C513 H499 0.929 1_565 S
C513 C512 1.399 . S
C513 C514 1.385 . S
C514 H500 0.931 . S
C514 C513 1.385 . S
C514 C515 1.389 . S
C515 C514 1.389 . S
C515 C516 1.387 . S
C516 H501 0.930 . S
C516 C511 1.390 . S
C516 C515 1.387 . S
H517 C529 0.930 . S
H518 C531 0.930 . S
H519 C532 0.930 . S
H520 C536 0.959 . S
H521 C536 0.959 . S
H522 C536 0.961 . S
H523 C537 0.960 . S
H524 C537 0.961 . S
H525 C537 0.959 . S
H526 C540 0.929 1_655 S
H527 C541 0.931 . S
H528 C543 0.930 . S
C529 H517 0.930 . S
C529 C530 1.399 . S
C529 C534 1.399 . S
C530 C529 1.399 . S
C530 C531 1.376 . S
C531 H518 0.930 . S
C531 C530 1.376 . S
C531 C532 1.388 1_565 S
C532 H519 0.930 . S
C532 C531 1.388 1_545 S
C532 C533 1.390 . S
C533 C532 1.390 . S
C533 C534 1.394 1_545 S
C533 C539 1.465 1_655 S
C534 C529 1.399 . S
C534 C533 1.394 1_565 S
C534 C535 1.516 1_655 S
C535 C534 1.516 1_455 S
C535 C536 1.502 . S
C535 C537 1.561 . S
C535 C538 1.526 1_565 S
C536 H520 0.959 . S
C536 H521 0.959 . S
C536 H522 0.961 . S
C536 C535 1.502 . S
C537 H523 0.960 . S
C537 H524 0.961 . S
C537 H525 0.959 . S
C537 C535 1.561 . S
C538 C535 1.526 1_545 S
C538 C539 1.396 . S
C538 C543 1.390 . S
C539 C533 1.465 1_455 S
C539 C538 1.396 . S
C539 C540 1.399 . S
C540 H526 0.929 1_455 S
C540 C539 1.399 . S
C540 C541 1.385 . S
C541 H527 0.931 . S
C541 C540 1.385 . S
C541 C542 1.389 . S
C542 C541 1.389 . S
C542 C543 1.387 . S
C543 H528 0.930 . S
C543 C538 1.390 . S
C543 C542 1.387 . S
C125 C3 1.180 . S
C137 C73 1.235 . S
C152 C21 1.248 . S
C164 C91 1.245 . S
C179 C31 1.192 . S
C191 C101 1.244 . S
C206 C49 1.248 . S
C218 C63 1.244 . S
C233 C105 1.249 . S
C245 C7 1.243 . S
C260 C59 1.176 . S
C272 C17 1.226 . S
C287 C35 1.251 . S
C299 C77 1.219 . S
C314 C87 1.236 . S
C326 C45 1.182 . S
C341 C9 1.574 . S
C353 C93 1.562 . S
C368 C106 1.564 . S
C380 C22 1.571 . S
C395 C37 1.575 . S
C407 C65 1.583 . S
C422 C50 1.578 . S
C434 C78 1.573 . S
C449 C92 1.583 . S
C461 C8 1.556 . S
C476 C107 1.573 . S
C488 C23 1.584 . S
C503 C36 1.556 . S
C515 C64 1.588 . S
C530 C51 1.583 . S
C542 C79 1.567 . S
