# Generated by pormake.
# Topology snp, (6)-cn, num edge types: 1
# Building blocks:
#     Node 0, Type 0, BuildingBlock: KUMJIN_clean_sbu_0, # of connection points: 6
#     Node 1, Type 0, BuildingBlock: KUMJIN_clean_sbu_0, # of connection points: 6
#     Node 2, Type 0, BuildingBlock: KUMJIN_clean_sbu_0, # of connection points: 6
#     Node 3, Type 0, BuildingBlock: KUMJIN_clean_sbu_0, # of connection points: 6
#     Edge 4, Type (0, 0), BuildingBlock: ZUJKAS_clean_linker_0, # of connection points: 2
#     Edge 5, Type (0, 0), BuildingBlock: ZUJKAS_clean_linker_0, # of connection points: 2
#     Edge 6, Type (0, 0), BuildingBlock: ZUJKAS_clean_linker_0, # of connection points: 2
#     Edge 7, Type (0, 0), BuildingBlock: ZUJKAS_clean_linker_0, # of connection points: 2
#     Edge 8, Type (0, 0), BuildingBlock: ZUJKAS_clean_linker_0, # of connection points: 2
#     Edge 9, Type (0, 0), BuildingBlock: ZUJKAS_clean_linker_0, # of connection points: 2
#     Edge 10, Type (0, 0), BuildingBlock: ZUJKAS_clean_linker_0, # of connection points: 2
#     Edge 11, Type (0, 0), BuildingBlock: ZUJKAS_clean_linker_0, # of connection points: 2
#     Edge 12, Type (0, 0), BuildingBlock: ZUJKAS_clean_linker_0, # of connection points: 2
#     Edge 13, Type (0, 0), BuildingBlock: ZUJKAS_clean_linker_0, # of connection points: 2
#     Edge 14, Type (0, 0), BuildingBlock: ZUJKAS_clean_linker_0, # of connection points: 2
#     Edge 15, Type (0, 0), BuildingBlock: ZUJKAS_clean_linker_0, # of connection points: 2
# Relax obj value: 0.231
# Max RMSD: 0.214
# Mean RMSD: 0.201
data_MOF--net-snp--node1-KUMJIN_clean_sbu_0--edge1-ZUJKAS_clean_linker_0
_symmetry_space_group_name_H-M    P1
_symmetry_Int_Tables_number       1
_symmetry_cell_setting            triclinic
loop_
_symmetry_equiv_pos_as_xyz
'x, y, z'
_cell_length_a     32.274714
_cell_length_b     33.398772
_cell_length_c     40.656258
_cell_angle_alpha  114.32971
_cell_angle_beta   107.16777
_cell_angle_gamma 75.669691
loop_
_atom_site_label
_atom_site_type_symbol
_atom_site_fract_x
_atom_site_fract_y
_atom_site_fract_z
_atom_type_partial_charge
Eu0 Eu 0.28541 0.10882 0.09338 0.0
C1 C 0.37539 0.9333 1.02064 0.0
C2 C 0.3169 0.89205 0.97678 0.0
C3 C 0.39046 0.86975 0.96564 0.0
C4 C 0.33154 0.92667 1.01023 0.0
C5 C 0.40523 0.90406 0.99857 0.0
C6 C 0.34646 0.86394 0.95468 0.0
C7 C 0.46386 0.94116 0.04481 0.0
N8 N 0.3895 0.96642 0.05295 0.0
C9 C 0.43357 0.96897 0.06588 0.0
C10 C 0.44962 0.90884 1.01082 0.0
Eu11 Eu 0.3371 1.00354 0.09065 0.0
N12 N 0.30327 0.9537 0.03238 0.0
C13 C 0.26003 0.94789 0.02196 0.0
C14 C 0.27281 0.88643 0.96629 0.0
C15 C 0.24428 0.91465 0.98882 0.0
H16 H 0.44652 0.99071 0.09345 0.0
H17 H 0.21 0.9107 0.98076 0.0
H18 H 0.33566 0.83718 0.92913 0.0
H19 H 0.49844 0.94376 0.05545 0.0
H20 H 0.23659 0.96909 0.0382 0.0
H21 H 0.40918 0.19386 0.20844 0.0
H22 H 0.26045 0.86045 0.94075 0.0
H23 H 0.17557 0.12923 0.07537 0.0
H24 H 0.38223 0.13039 0.15373 0.0
H25 H 0.119 0.19137 0.09984 0.0
H26 H 0.41302 0.84712 0.94861 0.0
H27 H 0.3566 0.25848 0.23608 0.0
H28 H 0.27888 0.29571 0.2349 0.0
H29 H 0.47341 0.88667 0.99488 0.0
H30 H 0.2005 0.29466 0.20603 0.0
N31 N 0.31495 0.15735 0.15221 0.0
C32 C 0.35896 0.15747 0.16657 0.0
C33 C 0.34448 0.23016 0.21271 0.0
C34 C 0.29942 0.22992 0.19767 0.0
C35 C 0.37432 0.1937 0.19722 0.0
C36 C 0.2852 0.19237 0.16712 0.0
H37 H 0.1407 0.25588 0.15619 0.0
N38 N 0.22762 0.15648 0.11976 0.0
C39 C 0.15291 0.19155 0.11463 0.0
C40 C 0.24053 0.19171 0.15068 0.0
C41 C 0.18479 0.15621 0.10116 0.0
C42 C 0.16535 0.22795 0.14644 0.0
C43 C 0.20958 0.22862 0.16465 0.0
O44 O 0.25147 0.14827 0.05854 0.0
O45 O 0.30411 0.04109 0.05015 0.0
O46 O 0.38786 0.04762 0.1034 0.0
O47 O 0.34653 0.09046 0.07083 0.0
O48 O 0.23904 0.07238 0.04223 0.0
O49 O 0.31097 0.16604 0.09985 0.0
O50 O 0.39551 0.97797 0.12399 0.0
O51 O 0.32408 0.07375 0.13236 0.0
O52 O 0.24045 0.08247 0.11024 0.0
O53 O 0.26899 1.0073 0.09787 0.0
O54 O 0.32471 0.0229 0.1481 0.0
O55 O 0.3447 0.93664 0.08973 0.0
C56 C 0.26658 0.03938 0.02657 0.0
C57 C 0.29589 0.19147 0.05247 0.0
C58 C 0.32581 0.17732 1.00015 0.0
C59 C 0.30507 0.16285 1.01816 0.0
C60 C 0.33757 0.22033 1.01683 0.0
C61 C 0.30729 0.23445 0.06872 0.0
C62 C 0.32819 0.24876 0.05096 0.0
C63 C 0.38498 0.07253 0.08466 0.0
C64 C 0.28006 0.17612 0.07456 0.0
C65 C 0.22379 0.26581 0.19525 0.0
C66 C 0.26849 0.26645 0.21167 0.0
C67 C 0.31888 0.06571 0.15958 0.0
C68 C 0.38965 0.92085 0.1413 0.0
C69 C 0.35641 0.92732 0.15938 0.0
C70 C 0.36371 0.90849 0.18586 0.0
C71 C 0.40398 0.88275 0.19409 0.0
C72 C 0.4299 0.89507 0.14949 0.0
C73 C 0.43697 0.87599 0.17581 0.0
C74 C 0.23911 0.04228 0.10847 0.0
C75 C 0.38259 0.93958 0.1131 0.0
H76 H 0.29642 0.12956 1.00564 0.0
H77 H 0.35261 0.2325 1.00286 0.0
H78 H 0.30095 0.25655 0.09563 0.0
H79 H 0.33699 0.28192 0.06358 0.0
H80 H 0.32497 0.94667 0.15285 0.0
H81 H 0.40967 0.86773 0.21441 0.0
H82 H 0.45568 0.88952 0.13537 0.0
H83 H 0.46796 0.8559 0.18198 0.0
Eu84 Eu 0.06517 0.28622 0.53308 0.0
C85 C 0.2351 0.31294 0.54662 0.0
C86 C 0.27358 0.23865 0.52053 0.0
C87 C 0.29269 0.30062 0.51438 0.0
C88 C 0.242 0.26776 0.54074 0.0
C89 C 0.26126 0.32963 0.53404 0.0
C90 C 0.29863 0.25529 0.50744 0.0
C91 C 0.22644 0.40358 0.56378 0.0
N92 N 0.20428 0.34083 0.56558 0.0
C93 C 0.20143 0.38586 0.57571 0.0
C94 C 0.25613 0.37534 0.54247 0.0
Eu95 Eu 0.16952 0.30787 0.59021 0.0
N96 N 0.21805 0.25209 0.55432 0.0
C97 C 0.2243 0.20763 0.54813 0.0
C98 C 0.27935 0.19339 0.51394 0.0
C99 C 0.25452 0.17786 0.52768 0.0
H100 H 0.18194 0.40909 0.59491 0.0
H101 H 0.25884 0.14281 0.52272 0.0
H102 H 0.32308 0.23334 0.49216 0.0
H103 H 0.22368 0.4392 0.57202 0.0
H104 H 0.20644 0.19378 0.55834 0.0
H105 H 0.97995 0.43245 0.62598 0.0
H106 H 0.30299 0.17014 0.49832 0.0
H107 H 0.04556 0.18066 0.49379 0.0
H108 H 0.04126 0.38911 0.5964 0.0
H109 H 0.98582 0.13927 0.48301 0.0
H110 H 0.3129 0.313 0.50463 0.0
H111 H 0.91549 0.39746 0.61485 0.0
H112 H 0.87849 0.32939 0.58492 0.0
H113 H 0.27601 0.38928 0.53372 0.0
H114 H 0.88041 0.24985 0.54681 0.0
N115 N 0.01235 0.32981 0.5683 0.0
C116 C 0.01354 0.37327 0.59097 0.0
C117 C 0.94232 0.37821 0.60146 0.0
C118 C 0.94133 0.33356 0.57837 0.0
C119 C 0.97871 0.39804 0.60793 0.0
C120 C 0.97713 0.30992 0.56164 0.0
H121 H 0.92048 0.17869 0.50933 0.0
N122 N 0.01476 0.24204 0.52696 0.0
C123 C 0.98357 0.17442 0.49953 0.0
C124 C 0.97857 0.26468 0.54063 0.0
C125 C 0.0174 0.19775 0.5059 0.0
C126 C 0.94662 0.19686 0.51427 0.0
C127 C 0.94377 0.24249 0.53513 0.0
O128 O 0.03283 0.25559 0.47528 0.0
O129 O 0.13367 0.28799 0.52908 0.0
O130 O 0.12691 0.37271 0.5919 0.0
O131 O 0.08033 0.34977 0.53492 0.0
O132 O 0.10631 0.23001 0.49631 0.0
O133 O 0.01691 0.32769 0.50588 0.0
O134 O 0.20112 0.36206 0.63481 0.0
O135 O 0.0993 0.31262 0.59307 0.0
O136 O 0.08594 0.23681 0.56123 0.0
O137 O 0.15902 0.24417 0.59177 0.0
O138 O 0.14445 0.31833 0.6409 0.0
O139 O 0.23146 0.29388 0.6263 0.0
C140 C 0.13871 0.25032 0.50248 0.0
C141 C 0.97736 0.29752 0.44268 0.0
C142 C 0.94358 0.33877 0.40229 0.0
C143 C 0.97479 0.33383 0.43304 0.0
C144 C 0.91446 0.30733 0.38163 0.0
C145 C 0.94875 0.26601 0.42175 0.0
C146 C 0.91712 0.27117 0.39138 0.0
C147 C 0.10022 0.38074 0.56328 0.0
C148 C 0.00904 0.29342 0.4753 0.0
C149 C 0.90749 0.26633 0.5508 0.0
C150 C 0.90632 0.31168 0.57242 0.0
C151 C 0.10294 0.31765 0.62729 0.0
C152 C 0.23959 0.34663 0.68778 0.0
C153 C 0.2423 0.31379 0.70162 0.0
C154 C 0.24735 0.32476 0.73951 0.0
C155 C 0.24922 0.36906 0.76379 0.0
C156 C 0.24223 0.39074 0.71231 0.0
C157 C 0.24682 0.40187 0.75015 0.0
C158 C 0.12296 0.22635 0.58289 0.0
C159 C 0.23218 0.33569 0.64784 0.0
H160 H 0.99767 0.35759 0.44885 0.0
H161 H 0.89083 0.30967 0.35702 0.0
H162 H 0.95056 0.23786 0.42917 0.0
H163 H 0.89504 0.24684 0.37507 0.0
H164 H 0.2402 0.27962 0.68302 0.0
H165 H 0.25361 0.37804 0.7933 0.0
H166 H 0.24028 0.41661 0.70213 0.0
H167 H 0.24871 0.43592 0.76894 0.0
Eu168 Eu 0.83414 0.19845 0.99799 0.0
C169 C 0.90383 0.01083 0.99953 0.0
C170 C 0.84506 0.96618 0.96528 0.0
C171 C 0.91991 0.93338 0.96007 0.0
C172 C 0.85934 1.0074 0.98937 0.0
C173 C 0.93455 0.97308 0.98628 0.0
C174 C 0.87526 0.92994 0.9496 0.0
C175 C 0.9923 0.01335 0.03092 0.0
N176 N 0.91748 0.04923 0.02559 0.0
C177 C 0.96087 0.04978 0.04327 0.0
C178 C 0.97921 0.97528 1.00156 0.0
Eu179 Eu 0.86107 0.10974 0.04344 0.0
N180 N 0.83055 0.0429 1.00512 0.0
C181 C 0.78837 0.0374 1.00102 0.0
C182 C 0.80096 0.96209 0.95835 0.0
C183 C 0.77276 0.99754 0.97695 0.0
H184 H 0.97133 0.07928 0.06589 0.0
H185 H 0.73905 0.994 0.97321 0.0
H186 H 0.86459 0.8985 0.93045 0.0
H187 H 0.02655 0.01446 0.04414 0.0
H188 H 0.76632 0.0629 1.01673 0.0
H189 H 0.92619 0.33485 0.09321 0.0
H190 H 0.78879 0.93112 0.93991 0.0
H191 H 0.73081 0.21029 0.94994 0.0
H192 H 0.91581 0.2606 0.04596 0.0
H193 H 0.66225 0.2637 0.95688 0.0
H194 H 0.94304 0.90446 0.94908 0.0
H195 H 0.86206 0.38875 0.11321 0.0
H196 H 0.77979 0.40787 0.10414 0.0
H197 H 1.00368 0.94691 0.99228 0.0
H198 H 0.70711 0.38842 0.06646 0.0
N199 N 0.84648 0.2716 0.03954 0.0
C200 C 0.88743 0.28371 0.05407 0.0
C201 C 0.85731 0.35617 0.09232 0.0
C202 C 0.81522 0.34471 0.07513 0.0
C203 C 0.89352 0.32594 0.08094 0.0
C204 C 0.81099 0.30189 0.04803 0.0
H205 H 0.66298 0.33512 1.01034 0.0
N206 N 0.76914 0.25104 0.99911 0.0
C207 C 0.69251 0.27175 0.97697 0.0
C208 C 0.77064 0.29113 0.02701 0.0
C209 C 0.73131 0.24181 0.9729 0.0
C210 C 0.69299 0.31194 1.00728 0.0
C211 C 0.73267 0.32257 0.0323 0.0
O212 O 0.82473 0.19484 0.94036 0.0
O213 O 0.84107 0.12857 0.9936 0.0
O214 O 0.91502 0.11026 1.01799 0.0
O215 O 0.90491 0.1836 0.0247 0.0
O216 O 0.80228 0.14239 0.94915 0.0
O217 O 0.88579 0.2079 0.97691 0.0
O218 O 0.90583 0.11039 0.09684 0.0
O219 O 0.8615 0.18017 0.04879 0.0
O220 O 0.77322 0.19495 1.0157 0.0
O221 O 0.78802 0.12799 0.02709 0.0
O222 O 0.84344 0.17271 0.09025 0.0
O223 O 0.84287 0.089 0.08143 0.0
C224 C 0.81909 0.11076 0.96171 0.0
C225 C 0.86735 0.23477 0.92669 0.0
C226 C 0.89532 0.2563 0.88506 0.0
C227 C 0.89268 0.2237 0.89907 0.0
C228 C 0.87213 0.29893 0.8993 0.0
C229 C 0.84531 0.27814 0.93926 0.0
C230 C 0.8476 0.30954 0.9257 0.0
C231 C 0.92679 0.14332 1.01457 0.0
C232 C 0.86353 0.20284 0.94352 0.0
C233 C 0.73601 0.36406 0.06137 0.0
C234 C 0.77735 0.37514 0.08281 0.0
C235 C 0.84864 0.2009 0.07846 0.0
C236 C 0.8994 0.05646 0.12048 0.0
C237 C 0.90365 0.06063 0.15806 0.0
C238 C 0.92146 0.02313 0.16937 0.0
C239 C 0.93397 0.98239 0.14244 0.0
C240 C 0.91198 0.01452 0.09519 0.0
C241 C 0.92916 0.97818 0.10602 0.0
C242 C 0.76158 0.16309 1.02169 0.0
C243 C 0.87992 0.09393 0.10608 0.0
H244 H 0.91031 0.19051 0.889 0.0
H245 H 0.87289 0.32458 0.88976 0.0
H246 H 0.82614 0.2879 0.95991 0.0
H247 H 0.83014 0.34279 0.93593 0.0
H248 H 0.89363 0.09247 0.17813 0.0
H249 H 0.94735 0.95316 0.14959 0.0
H250 H 0.90792 0.00945 0.06657 0.0
H251 H 0.93865 0.94621 0.08584 0.0
Eu252 Eu 0.01658 0.91256 0.56057 0.0
C253 C 0.18622 0.79558 0.58496 0.0
C254 C 0.232 0.84256 0.63937 0.0
C255 C 0.24458 0.76294 0.62438 0.0
C256 C 0.19695 0.83757 0.60802 0.0
C257 C 0.21111 0.75776 0.59239 0.0
C258 C 0.25493 0.80523 0.64785 0.0
C259 C 0.17331 0.71162 0.53315 0.0
N260 N 0.15454 0.79121 0.55354 0.0
C261 C 0.14971 0.74976 0.52688 0.0
C262 C 0.20364 0.71557 0.56634 0.0
Eu263 Eu 0.12193 0.85813 0.54248 0.0
N264 N 0.17523 0.87315 0.5987 0.0
C265 C 0.18865 0.91392 0.61829 0.0
C266 C 0.24419 0.88473 0.66059 0.0
C267 C 0.22268 0.92046 0.64978 0.0
H268 H 0.12839 0.74584 0.49997 0.0
H269 H 0.23262 0.953 0.66547 0.0
H270 H 0.28177 0.80855 0.67185 0.0
H271 H 0.16893 0.67926 0.51186 0.0
H272 H 0.17322 0.94182 0.61 0.0
H273 H 0.93299 0.79693 0.43159 0.0
H274 H 0.27095 0.8898 0.68476 0.0
H275 H 1.00041 0.02385 0.59746 0.0
H276 H 0.99433 0.81922 0.48541 0.0
H277 H 0.94063 0.08445 0.58943 0.0
H278 H 0.26375 0.73426 0.63051 0.0
H279 H 0.86967 0.85292 0.42087 0.0
H280 H 0.83309 0.93213 0.44087 0.0
H281 H 0.22265 0.68588 0.5708 0.0
H282 H 0.83518 0.00979 0.48342 0.0
N283 N 0.96716 0.88746 0.50352 0.0
C284 C 0.96758 0.8441 0.48025 0.0
C285 C 0.89686 0.86306 0.44415 0.0
C286 C 0.89652 0.90745 0.46836 0.0
C287 C 0.93265 0.83135 0.45001 0.0
C288 C 0.93262 0.91895 0.49828 0.0
H289 H 0.87532 0.06692 0.53835 0.0
N290 N 0.97008 0.97402 0.55012 0.0
C291 C 0.93872 0.05064 0.5701 0.0
C292 C 0.93413 0.96332 0.52221 0.0
C293 C 0.97269 0.01663 0.57434 0.0
C294 C 0.90176 0.04053 0.54133 0.0
C295 C 0.89912 0.9965 0.51691 0.0
O296 O 0.97634 0.9468 0.60189 0.0
O297 O 0.08496 0.88986 0.59016 0.0
O298 O 0.07646 0.80832 0.52474 0.0
O299 O 0.03408 0.84583 0.56752 0.0
O300 O 0.0554 0.95433 0.61566 0.0
O301 O 0.96231 0.88308 0.55755 0.0
O302 O 0.1573 0.81185 0.50062 0.0
O303 O 0.05277 0.87818 0.51481 0.0
O304 O 0.0396 0.95476 0.54015 0.0
O305 O 0.1134 0.93237 0.5581 0.0
O306 O 0.09771 0.85564 0.48317 0.0
O307 O 0.17676 0.87846 0.53463 0.0
C308 C 0.08941 0.925 0.61985 0.0
C309 C 0.92496 0.90891 0.6055 0.0
C310 C 0.92131 0.88783 0.65451 0.0
C311 C 0.94593 0.8981 0.63666 0.0
C312 C 0.87572 0.88844 0.64085 0.0
C313 C 0.87958 0.90959 0.59205 0.0
C314 C 0.85502 0.89933 0.60972 0.0
C315 C 0.05251 0.80849 0.54575 0.0
C316 C 0.94938 0.9172 0.58487 0.0
C317 C 0.86258 0.98476 0.4877 0.0
C318 C 0.86135 0.94047 0.46347 0.0
C319 C 0.05754 0.87326 0.48282 0.0
C320 C 0.21893 0.82776 0.48938 0.0
C321 C 0.21652 0.84929 0.46577 0.0
C322 C 0.2415 0.83029 0.43891 0.0
C323 C 0.27087 0.79102 0.43699 0.0
C324 C 0.24819 0.78848 0.48761 0.0
C325 C 0.2747 0.77058 0.4618 0.0
C326 C 0.0809 0.95565 0.54213 0.0
C327 C 0.18343 0.84001 0.50821 0.0
H328 H 0.98104 0.89775 0.64695 0.0
H329 H 0.85593 0.88182 0.65492 0.0
H330 H 0.86326 0.91776 0.56769 0.0
H331 H 0.81995 0.90012 0.59947 0.0
H332 H 0.19234 0.87848 0.46596 0.0
H333 H 0.29002 0.77584 0.4159 0.0
H334 H 0.24913 0.77082 0.50505 0.0
H335 H 0.29684 0.73992 0.46 0.0
H336 H 0.97848 0.20297 0.02318 0.0
H337 H 0.05646 0.1814 0.023 0.0
H338 H 0.03695 0.04534 0.96451 0.0
H339 H 0.9619 0.06428 0.96931 0.0
H340 H 0.03702 0.15043 0.0698 0.0
H341 H 0.16078 0.0225 1.00448 0.0
H342 H 0.12195 0.05477 0.97914 0.0
H343 H 0.10983 1.00383 0.97736 0.0
C344 C 0.99068 0.16841 1.00953 0.0
C345 C 0.96549 0.1347 0.99973 0.0
C346 C 0.03512 0.15614 1.00826 0.0
C347 C 0.05272 0.11108 1.00075 0.0
C348 C 0.0245 0.08027 0.9761 0.0
H349 H 0.20349 0.96762 0.09432 0.0
H350 H 0.12622 0.97405 0.09458 0.0
C351 C 0.98111 0.09092 0.97917 0.0
C352 C 0.07667 0.09876 0.03331 0.0
H353 H 0.13532 1.00777 0.04988 0.0
C354 C 0.0597 0.11981 0.06572 0.0
C355 C 0.10505 0.05836 0.0287 0.0
C356 C 0.12545 0.034 0.99546 0.0
C357 C 0.06821 0.10048 0.09208 0.0
C358 C 0.09708 0.0601 0.08776 0.0
C359 C 0.11384 0.03913 0.05509 0.0
C360 C 0.11878 0.04568 0.12003 0.0
C361 C 0.04507 0.12355 0.12383 0.0
C362 C 0.14181 0.07858 0.14909 0.0
C363 C 0.18471 0.07722 0.14783 0.0
C364 C 0.20513 0.03852 0.12375 0.0
C365 C 0.18705 0.99903 0.11039 0.0
C366 C 0.14302 1.00266 0.11131 0.0
H367 H 0.01066 0.13704 0.11402 0.0
H368 H 0.04491 0.10104 0.13764 0.0
H369 H 0.06133 0.1525 0.14427 0.0
H370 H 0.12506 0.11013 0.16438 0.0
H371 H 0.19957 0.10738 0.1621 0.0
H372 H 0.02417 1.00714 0.50342 0.0
H373 H 0.04646 0.07244 0.5049 0.0
H374 H 0.18013 0.01821 0.52748 0.0
H375 H 0.1612 0.95407 0.53005 0.0
H376 H 0.05519 0.06516 0.57142 0.0
H377 H 0.20879 0.12859 0.59728 0.0
H378 H 0.18282 0.09805 0.55058 0.0
H379 H 0.22 0.06931 0.57967 0.0
C380 C 0.05873 0.00797 0.50793 0.0
C381 C 0.09114 0.97894 0.52253 0.0
C382 C 0.07168 0.04542 0.50847 0.0
C383 C 0.11417 0.05409 0.52904 0.0
C384 C 0.14584 0.016 0.52239 0.0
H385 H 0.1778 0.22916 0.64988 0.0
H386 H 0.1671 0.20075 0.69295 0.0
C387 C 0.13511 0.97886 0.5236 0.0
C388 C 0.11753 0.07947 0.56987 0.0
H389 H 0.19055 0.12487 0.6496 0.0
C390 C 0.08487 0.07933 0.58708 0.0
C391 C 0.15693 0.09526 0.59345 0.0
C392 C 0.19391 0.09794 0.57913 0.0
C393 C 0.08902 0.09909 0.62542 0.0
C394 C 0.12215 0.12601 0.64562 0.0
C395 C 0.16074 0.11181 0.63187 0.0
C396 C 0.1074 0.17527 0.65745 0.0
C397 C 0.05203 0.10146 0.64203 0.0
C398 C 0.07027 0.18677 0.63258 0.0
C399 C 0.07748 0.19654 0.60483 0.0
C400 C 0.11793 0.20891 0.6091 0.0
C401 C 0.14826 0.21507 0.64339 0.0
C402 C 0.14083 0.20155 0.6693 0.0
H403 H 0.05436 0.06921 0.64473 0.0
H404 H 0.05351 0.12807 0.66986 0.0
H405 H 0.01976 0.10705 0.62367 0.0
H406 H 0.039 0.17683 0.62813 0.0
H407 H 0.05093 0.19604 0.58109 0.0
H408 H 0.70506 0.10749 0.97217 0.0
H409 H 0.63989 0.09373 0.98277 0.0
H410 H 0.65398 0.20354 0.08753 0.0
H411 H 0.71859 0.21794 0.07625 0.0
H412 H 0.6378 0.06869 0.03673 0.0
H413 H 0.52453 0.22633 0.04853 0.0
H414 H 0.57303 0.21284 0.0304 0.0
H415 H 0.57707 0.23386 0.07956 0.0
C416 C 0.69287 0.13 0.99659 0.0
C417 C 0.71585 0.16479 0.02277 0.0
C418 C 0.65607 0.12165 1.00298 0.0
C419 C 0.64151 0.1477 0.03586 0.0
C420 C 0.66364 0.18356 0.06151 0.0
H421 H 0.47031 0.06645 0.12433 0.0
H422 H 0.53458 0.08147 0.11294 0.0
C423 C 0.70037 0.19212 0.05494 0.0
C424 C 0.60509 0.13545 0.04409 0.0
H425 H 0.50428 0.17528 0.0656 0.0
C426 C 0.60858 0.09204 0.043 0.0
C427 C 0.56677 0.16568 0.0522 0.0
C428 C 0.55981 0.21214 0.05243 0.0
C429 C 0.57497 0.07818 0.04968 0.0
C430 C 0.53692 0.10864 0.05809 0.0
C431 C 0.53352 0.15198 0.05933 0.0
C432 C 0.49911 0.09606 0.06397 0.0
C433 C 0.57985 0.03074 0.04664 0.0
C434 C 0.45769 0.09945 0.04049 0.0
C435 C 0.42103 0.09128 0.04712 0.0
C436 C 0.42477 0.07943 0.07743 0.0
C437 C 0.4664 0.07514 0.10059 0.0
C438 C 0.5032 0.08355 0.094 0.0
H439 H 0.60737 0.00944 0.03349 0.0
H440 H 0.58633 0.02982 0.07469 0.0
H441 H 0.54916 0.01649 0.0303 0.0
H442 H 0.45363 0.10891 1.0171 0.0
H443 H 0.38961 0.09437 0.02844 0.0
H444 H 0.10534 0.45833 0.62268 0.0
H445 H 0.09758 0.53303 0.62225 0.0
H446 H 0.07247 0.4792 0.50307 0.0
H447 H 0.07975 0.40437 0.5032 0.0
H448 H 0.14466 0.54394 0.5521 0.0
H449 H 0.9742 0.60086 0.57463 0.0
H450 H 0.01284 0.57078 0.60167 0.0
H451 H 0.9945 0.54285 0.55288 0.0
C452 C 0.09786 0.46253 0.5964 0.0
C453 C 0.09284 0.42581 0.56295 0.0
C454 C 0.09353 0.50504 0.59623 0.0
C455 C 0.08443 0.51126 0.56264 0.0
C456 C 0.07937 0.47475 0.52919 0.0
H457 H 0.04984 0.72757 0.49071 0.0
H458 H 0.06143 0.65557 0.49718 0.0
C459 C 0.08321 0.43226 0.52931 0.0
C460 C 0.08019 0.55601 0.56243 0.0
H461 H 0.00917 0.65229 0.57066 0.0
C462 C 0.11512 0.56773 0.55613 0.0
C463 C 0.04173 0.58673 0.56809 0.0
C464 C 1.00342 0.57494 0.57458 0.0
C465 C 0.1123 0.60976 0.55506 0.0
C466 C 0.07344 0.64024 0.55998 0.0
C467 C 0.03886 0.62869 0.56692 0.0
C468 C 0.06716 0.68365 0.55644 0.0
C469 C 0.1509 0.6216 0.54915 0.0
C470 C 0.06543 0.72305 0.58754 0.0
C471 C 0.0584 0.76416 0.58385 0.0
C472 C 0.053 0.76618 0.54899 0.0
C473 C 0.05377 0.7267 0.51782 0.0
C474 C 0.06081 0.6857 0.52153 0.0
H475 H 0.18084 0.597 0.55148 0.0
H476 H 0.14286 0.62305 0.52116 0.0
H477 H 0.15789 0.6548 0.5698 0.0
H478 H 0.07017 0.72191 0.61467 0.0
H479 H 0.05887 0.79418 0.60837 0.0
H480 H 0.16087 0.16717 0.45365 0.0
H481 H 0.19105 0.14333 0.39895 0.0
H482 H 0.19938 0.27933 0.42187 0.0
H483 H 0.16929 0.30317 0.47726 0.0
H484 H 0.16301 0.15282 0.33694 0.0
H485 H 0.31339 0.23206 0.3942 0.0
H486 H 0.28194 0.23081 0.42371 0.0
H487 H 0.26409 0.27047 0.40113 0.0
C488 C 0.16979 0.19225 0.44765 0.0
C489 C 0.16303 0.23732 0.47121 0.0
C490 C 0.18711 0.1784 0.41572 0.0
C491 C 0.19876 0.20872 0.40506 0.0
C492 C 0.19237 0.25409 0.42881 0.0
H493 H 0.32317 0.15425 0.21568 0.0
H494 H 0.28837 0.19088 0.2683 0.0
C495 C 0.17488 0.26805 0.46103 0.0
C496 C 0.21489 0.19225 0.36846 0.0
H497 H 0.29578 0.19472 0.32958 0.0
C498 C 0.19225 0.16215 0.33573 0.0
C499 C 0.25254 0.20424 0.36505 0.0
C500 C 0.27968 0.23587 0.39789 0.0
C501 C 0.20523 0.14441 0.30109 0.0
C502 C 0.24417 0.15459 0.2979 0.0
C503 C 0.26637 0.18555 0.33056 0.0
C504 C 0.26246 0.13336 0.26183 0.0
C505 C 0.17512 0.1162 0.26802 0.0
C506 C 0.26121 0.08821 0.23853 0.0
C507 C 0.2775 0.06877 0.20562 0.0
C508 C 0.29761 0.09235 0.19378 0.0
C509 C 0.30252 0.13627 0.21889 0.0
C510 C 0.2842 0.15673 0.25112 0.0
H511 H 0.14064 0.12592 0.27131 0.0
H512 H 0.17605 0.11898 0.24199 0.0
H513 H 0.18476 0.08099 0.26567 0.0
H514 H 0.24863 0.06679 0.24603 0.0
H515 H 0.27503 0.03397 0.18959 0.0
H516 H 0.02462 0.27796 0.60785 0.0
H517 H 0.98673 0.26926 0.64802 0.0
H518 H 0.08854 0.32451 0.74133 0.0
H519 H 0.12187 0.33887 0.70176 0.0
H520 H 1.00523 0.22062 0.68922 0.0
H521 H 0.9935 0.39117 0.79234 0.0
H522 H 1.00789 0.37829 0.74914 0.0
H523 H 0.04887 0.36937 0.78766 0.0
C524 C 0.03643 0.29251 0.63691 0.0
C525 C 0.07474 0.31285 0.65043 0.0
C526 C 0.01575 0.28548 0.66049 0.0
C527 C 0.03312 0.29729 0.69913 0.0
C528 C 0.07212 0.31647 0.71252 0.0
H529 H 0.97204 0.28744 0.89634 0.0
H530 H 1.00426 0.29367 0.85138 0.0
C531 C 0.09174 0.3245 0.68916 0.0
C532 C 0.01231 0.28825 0.72507 0.0
H533 H 0.98337 0.33552 0.81 0.0
C534 C 1.00028 0.24613 0.71547 0.0
C535 C 1.00521 0.32052 0.76006 0.0
C536 C 0.01411 0.36746 0.77278 0.0
C537 C 0.98349 0.23534 0.73941 0.0
C538 C 0.97674 0.26763 0.7746 0.0
C539 C 0.9883 0.30983 0.78382 0.0
C540 C 0.9585 0.25908 0.80238 0.0
C541 C 0.97493 0.18835 0.7269 0.0
C542 C 0.9217 0.23671 0.79162 0.0
C543 C 0.90377 0.232 0.81788 0.0
C544 C 0.92135 0.24963 0.85642 0.0
C545 C 0.95815 0.27169 0.86716 0.0
C546 C 0.97635 0.27598 0.84101 0.0
H547 H 0.99481 0.16479 0.70671 0.0
H548 H 0.98236 0.17735 0.75059 0.0
H549 H 0.93993 0.18641 0.71285 0.0
H550 H 0.90509 0.22445 0.76285 0.0
H551 H 0.87439 0.21657 0.80801 0.0
H552 H 0.9854 0.94356 0.47858 0.0
H553 H 0.95066 0.9688 0.42715 0.0
H554 H 0.0528 0.88422 0.37137 0.0
H555 H 0.07999 0.85216 0.41826 0.0
H556 H 0.96077 0.01233 0.39643 0.0
H557 H 0.96864 0.85177 0.28179 0.0
H558 H 0.98019 0.85453 0.32862 0.0
H559 H 0.02307 0.85638 0.309 0.0
C560 C 0.99714 0.92651 0.45382 0.0
C561 C 0.03275 0.8918 0.45218 0.0
C562 C 0.97865 0.94285 0.42445 0.0
C563 C 0.99683 0.92702 0.3928 0.0
C564 C 0.03476 0.89512 0.39283 0.0
H565 H 0.99914 1.00352 0.21364 0.0
H566 H 0.01178 0.98406 0.26798 0.0
C567 C 0.05113 0.87708 0.42081 0.0
C568 C 0.97858 0.94481 0.36098 0.0
H569 H 0.96933 0.91478 0.26738 0.0
C570 C 0.96218 0.99045 0.36825 0.0
C571 C 0.97839 0.91729 0.3231 0.0
C572 C 0.98798 0.86728 0.31022 0.0
C573 C 0.94868 0.00889 0.34001 0.0
C574 C 0.95265 0.98183 0.30315 0.0
C575 C 0.96725 0.93625 0.29557 0.0
C576 C 0.94408 0.99974 0.27233 0.0
C577 C 0.93107 0.0576 0.34987 0.0
C578 C 0.90169 0.01637 0.25618 0.0
C579 C 0.89431 0.02786 0.22463 0.0
C580 C 0.9291 0.02334 0.20829 0.0
C581 C 0.97151 0.00842 0.22555 0.0
C582 C 0.97879 0.99679 0.25669 0.0
H583 H 0.93441 0.07548 0.38018 0.0
H584 H 0.94829 0.07336 0.33945 0.0
H585 H 0.89579 0.06144 0.33629 0.0
H586 H 0.87388 0.01852 0.26687 0.0
H587 H 0.86102 0.03779 0.21175 0.0
H588 H 0.13549 0.8594 0.65085 0.0
H589 H 0.17247 0.87052 0.71606 0.0
H590 H 0.13468 0.01161 0.74604 0.0
H591 H 0.10028 1.00095 0.68126 0.0
H592 H 0.24295 0.94505 0.77531 0.0
H593 H 0.08564 0.96007 0.81163 0.0
H594 H 0.09431 0.92877 0.76526 0.0
H595 H 0.0861 0.98826 0.78232 0.0
C596 C 0.13619 0.89293 0.67096 0.0
C597 C 0.11547 0.92919 0.6595 0.0
C598 C 0.15713 0.89937 0.70881 0.0
C599 C 0.15709 0.94224 0.73715 0.0
C600 C 0.13609 0.97815 0.72563 0.0
H601 H 0.1934 0.06206 0.97947 0.0
H602 H 0.17199 0.03653 0.91297 0.0
C603 C 0.11613 0.97183 0.688 0.0
C604 C 0.17663 0.95018 0.77864 0.0
H605 H 0.14693 0.97649 0.86069 0.0
C606 C 0.22191 0.95174 0.79395 0.0
C607 C 0.15005 0.95947 0.80398 0.0
C608 C 0.10131 0.95895 0.79027 0.0
C609 C 0.24056 0.9636 0.83293 0.0
C610 C 0.21385 0.9732 0.85869 0.0
C611 C 0.16862 0.97013 0.84267 0.0
C612 C 0.23025 0.98907 0.9018 0.0
C613 C 0.28869 0.9676 0.84579 0.0
C614 C 0.27149 0.97307 0.92095 0.0
C615 C 0.28491 0.98964 0.96063 0.0
C616 C 0.25667 0.02067 0.9835 0.0
C617 C 0.21597 0.03656 0.96416 0.0
C618 C 0.20335 0.02162 0.92503 0.0
H619 H 0.30123 0.97224 0.8251 0.0
H620 H 0.29541 0.99602 0.87231 0.0
H621 H 0.30731 0.93652 0.84959 0.0
H622 H 0.29378 0.94736 0.90553 0.0
H623 H 0.3176 0.97821 0.97309 0.0
H624 H 0.8914 0.0995 0.93972 0.0
H625 H 0.92443 0.0337 0.89601 0.0
H626 H 0.81997 0.96405 0.88125 0.0
H627 H 0.78571 0.03202 0.92453 0.0
H628 H 0.95715 0.9514 0.88879 0.0
H629 H 0.80608 0.96046 0.78003 0.0
H630 H 0.81356 1.00208 0.82582 0.0
H631 H 0.79803 0.94989 0.81735 0.0
C632 C 0.87657 0.06951 0.92821 0.0
C633 C 0.83786 0.06932 0.93688 0.0
C634 C 0.89527 0.03201 0.90316 0.0
C635 C 0.87506 0.99373 0.88581 0.0
C636 C 0.83604 0.99338 0.89443 0.0
H637 H 0.91468 0.82123 0.67375 0.0
H638 H 0.9218 0.82803 0.73721 0.0
C639 C 0.81671 0.03173 0.91916 0.0
C640 C 0.89202 0.95761 0.85496 0.0
H641 H 0.86659 0.91171 0.76109 0.0
C642 C 0.93721 0.94157 0.86086 0.0
C643 C 0.86604 0.9461 0.81857 0.0
C644 C 0.81841 0.96577 0.80987 0.0
C645 C 0.95756 0.91671 0.83102 0.0
C646 C 0.93159 0.90594 0.79487 0.0
C647 C 0.88608 0.91913 0.78915 0.0
C648 C 0.95024 0.88883 0.762 0.0
C649 C 1.00673 0.90488 0.83809 0.0
C650 C 0.96766 0.91868 0.75541 0.0
C651 C 0.96338 0.915 0.71922 0.0
C652 C 0.94157 0.88153 0.68973 0.0
C653 C 0.93095 0.84765 0.69632 0.0
C654 C 0.93554 0.85116 0.73247 0.0
H655 H 0.02074 0.90474 0.8665 0.0
H656 H 0.01667 0.8719 0.81769 0.0
H657 H 0.02094 0.92997 0.83513 0.0
H658 H 0.97863 0.94827 0.77788 0.0
H659 H 0.97193 0.94142 0.71466 0.0
H660 H 0.29519 0.86301 0.16004 0.0
H661 H 0.24631 0.86336 0.19633 0.0
H662 H 0.3076 0.96777 0.29032 0.0
H663 H 0.35595 0.96767 0.25383 0.0
H664 H 0.29135 0.84029 0.25602 0.0
H665 H 0.18077 0.99901 0.30195 0.0
H666 H 0.20453 0.98211 0.2623 0.0
H667 H 0.23634 1.00602 0.30833 0.0
C668 C 0.29685 0.88703 0.18802 0.0
C669 C 0.32912 0.91498 0.20469 0.0
C670 C 0.26891 0.88747 0.20856 0.0
C671 C 0.27315 0.9159 0.2458 0.0
C672 C 0.30316 0.94634 0.2614 0.0
H673 H 0.2683 0.90477 0.44652 0.0
H674 H 0.26305 0.93053 0.3967 0.0
C675 C 0.33109 0.94588 0.24085 0.0
C676 C 0.25486 0.90625 0.27036 0.0
H677 H 0.19763 0.95331 0.33881 0.0
C678 C 0.26982 0.86454 0.27341 0.0
C679 C 0.22796 0.93857 0.29362 0.0
C680 C 0.21117 0.98384 0.29122 0.0
C681 C 0.26013 0.8547 0.30021 0.0
C682 C 0.23341 0.88704 0.32371 0.0
C683 C 0.21746 0.92849 0.32019 0.0
C684 C 0.22607 0.87925 0.35437 0.0
C685 C 0.28088 0.8108 0.30459 0.0
C686 C 0.20532 0.84327 0.34701 0.0
C687 C 0.20947 0.82791 0.37503 0.0
C688 C 0.23351 0.84912 0.41061 0.0
C689 C 0.25046 0.8877 0.41884 0.0
C690 C 0.24694 0.90265 0.39067 0.0
H691 H 0.30801 0.79414 0.28974 0.0
H692 H 0.29407 0.81541 0.33423 0.0
H693 H 0.25577 0.78825 0.29312 0.0
H694 H 0.18865 0.82528 0.31913 0.0
H695 H 0.19532 0.79864 0.3687 0.0
H696 H 0.20422 0.32222 0.78677 0.0
H697 H 0.22195 0.26791 0.81688 0.0
H698 H 0.32147 0.19392 0.75432 0.0
H699 H 0.30379 0.24781 0.72401 0.0
H700 H 0.26753 0.14197 0.77103 0.0
H701 H 0.34886 0.27779 0.8891 0.0
H702 H 0.29252 0.29298 0.86925 0.0
H703 H 0.33322 0.27679 0.84234 0.0
C704 C 0.2293 0.29391 0.77908 0.0
C705 C 0.25326 0.28937 0.75376 0.0
C706 C 0.23903 0.26282 0.79587 0.0
C707 C 0.27307 0.22734 0.78772 0.0
C708 C 0.29488 0.22101 0.76055 0.0
H709 H 0.3988 0.15392 0.97203 0.0
H710 H 0.39674 0.1418 0.90812 0.0
C711 C 0.28494 0.25187 0.74353 0.0
C712 C 0.29102 0.20208 0.81216 0.0
H713 H 0.34416 0.21571 0.90074 0.0
C714 C 0.28485 0.15759 0.79929 0.0
C715 C 0.31438 0.22264 0.84855 0.0
C716 C 0.32305 0.27007 0.86318 0.0
C717 C 0.29943 0.1337 0.82303 0.0
C718 C 0.32053 0.15515 0.86009 0.0
C719 C 0.32865 0.19894 0.87209 0.0
C720 C 0.32739 0.13716 0.88909 0.0
C721 C 0.29103 0.08639 0.80874 0.0
C722 C 0.29013 0.13376 0.89831 0.0
C723 C 0.29138 0.14034 0.93466 0.0
C724 C 0.32976 0.15079 0.96185 0.0
C725 C 0.36877 0.14647 0.95134 0.0
C726 C 0.36766 0.13923 0.91485 0.0
H727 H 0.28986 0.07009 0.77858 0.0
H728 H 0.3166 0.0667 0.82341 0.0
H729 H 0.25879 0.08617 0.81319 0.0
H730 H 0.25862 0.13268 0.87904 0.0
H731 H 0.26094 0.14345 0.94229 0.0
H732 H 0.79415 0.26938 0.1154 0.0
H733 H 0.81787 0.33091 0.17275 0.0
H734 H 0.95114 0.28866 0.15857 0.0
H735 H 0.92783 0.22655 0.10243 0.0
H736 H 0.92774 0.27369 0.21455 0.0
H737 H 0.87431 0.44937 0.22457 0.0
H738 H 0.83672 0.40968 0.19725 0.0
H739 H 0.8852 0.40507 0.18223 0.0
C740 C 0.82807 0.27482 0.1238 0.0
C741 C 0.85919 0.24432 0.10449 0.0
C742 C 0.84149 0.31016 0.15615 0.0
C743 C 0.88612 0.31469 0.16938 0.0
C744 C 0.91646 0.28626 0.14823 0.0
H745 H 0.01513 0.35376 0.38911 0.0
H746 H 0.01031 0.37218 0.33596 0.0
C747 C 0.90321 0.25072 0.11635 0.0
C748 C 0.90272 0.33714 0.20915 0.0
H749 H 0.90502 0.4369 0.28106 0.0
C750 C 0.92383 0.30946 0.22906 0.0
C751 C 0.89582 0.38355 0.22767 0.0
C752 C 0.87188 0.41393 0.20698 0.0
C753 C 0.9376 0.32665 0.26734 0.0
C754 C 0.93184 0.37341 0.28625 0.0
C755 C 0.9109 0.40134 0.26627 0.0
C756 C 0.94007 0.39193 0.32691 0.0
C757 C 0.95514 0.29408 0.28708 0.0
C758 C 0.90345 0.4043 0.34264 0.0
C759 C 0.90614 0.39413 0.3732 0.0
C760 C 0.94544 0.37183 0.38774 0.0
C761 C 0.98418 0.37013 0.37777 0.0
C762 C 0.9815 0.3808 0.34737 0.0
H763 H 0.9909 0.2941 0.29836 0.0
H764 H 0.93892 0.30337 0.31028 0.0
H765 H 0.94992 0.25952 0.2684 0.0
H766 H 0.87137 0.41423 0.32775 0.0
H767 H 0.87622 0.39712 0.38152 0.0
loop_
_geom_bond_atom_site_label_1
_geom_bond_atom_site_label_2
_geom_bond_distance
_geom_bond_site_symmetry_2
_ccdc_geom_bond_type
Eu0 N31 2.657 . S
Eu0 N38 2.609 . S
Eu0 O44 2.558 1_554 S
Eu0 O45 2.594 1_545 S
Eu0 O47 2.339 . S
Eu0 O48 2.563 1_554 S
Eu0 O49 2.419 . S
Eu0 O51 2.380 . S
Eu0 O52 2.432 . S
Eu0 C64 2.848 1_554 S
C1 C4 1.429 1_554 S
C1 C5 1.411 1_554 S
C1 N8 1.377 . S
C2 C4 1.420 . S
C2 C6 1.423 . S
C2 C14 1.392 . S
C3 C5 1.420 . S
C3 C6 1.351 . S
C3 H26 0.931 . S
C4 C1 1.429 1_556 S
C4 C2 1.420 . S
C4 N12 1.362 1_556 S
C5 C1 1.411 1_556 S
C5 C3 1.420 . S
C5 C10 1.395 1_556 S
C6 C2 1.423 . S
C6 C3 1.351 . S
C6 H18 0.930 . S
C7 C9 1.400 . S
C7 C10 1.386 . S
C7 H19 0.930 . S
N8 C1 1.377 . S
N8 C9 1.321 . S
N8 Eu11 2.609 . S
C9 C7 1.400 . S
C9 N8 1.321 . S
C9 H16 0.930 . S
C10 C5 1.395 1_554 S
C10 C7 1.386 . S
C10 H29 0.930 . S
Eu11 N8 2.609 . S
Eu11 N12 2.657 . S
Eu11 O45 2.394 . S
Eu11 O46 2.432 1_565 S
Eu11 O50 2.558 . S
Eu11 O51 2.612 1_565 S
Eu11 O53 2.341 . S
Eu11 O54 2.563 1_565 S
Eu11 O55 2.419 . S
Eu11 C75 2.848 . S
N12 C4 1.362 1_554 S
N12 Eu11 2.657 . S
N12 C13 1.334 1_554 S
C13 N12 1.334 1_556 S
C13 C15 1.413 . S
C13 H20 0.929 1_556 S
C14 C2 1.392 . S
C14 C15 1.367 . S
C14 H22 0.930 . S
C15 C13 1.413 . S
C15 C14 1.367 . S
C15 H17 0.930 . S
H16 C9 0.930 . S
H17 C15 0.930 . S
H18 C6 0.930 . S
H19 C7 0.930 . S
H20 C13 0.929 1_554 S
H21 C35 0.930 . S
H22 C14 0.930 . S
H23 C41 0.930 . S
H24 C32 0.929 . S
H25 C39 0.930 . S
H26 C3 0.931 . S
H27 C33 0.930 . S
H28 C66 0.930 . S
H29 C10 0.930 . S
H30 C65 0.931 . S
N31 Eu0 2.657 . S
N31 C32 1.334 . S
N31 C36 1.362 . S
C32 H24 0.929 . S
C32 N31 1.334 . S
C32 C35 1.413 . S
C33 H27 0.930 . S
C33 C34 1.392 . S
C33 C35 1.367 . S
C34 C33 1.392 . S
C34 C36 1.420 . S
C34 C66 1.423 . S
C35 H21 0.930 . S
C35 C32 1.413 . S
C35 C33 1.367 . S
C36 N31 1.362 . S
C36 C34 1.420 . S
C36 C40 1.429 . S
H37 C42 0.930 . S
N38 Eu0 2.609 . S
N38 C40 1.377 . S
N38 C41 1.321 . S
C39 H25 0.930 . S
C39 C41 1.400 . S
C39 C42 1.386 . S
C40 C36 1.429 . S
C40 N38 1.377 . S
C40 C43 1.411 . S
C41 H23 0.930 . S
C41 N38 1.321 . S
C41 C39 1.400 . S
C42 H37 0.930 . S
C42 C39 1.386 . S
C42 C43 1.395 . S
C43 C40 1.411 . S
C43 C42 1.395 . S
C43 C65 1.420 . S
O44 Eu0 2.558 1_556 S
O44 C64 1.257 . S
O45 Eu0 2.594 1_565 S
O45 Eu11 2.394 . S
O45 C56 1.269 1_554 S
O46 Eu11 2.432 1_545 S
O46 C63 1.264 . S
O47 Eu0 2.339 . S
O47 C63 1.254 . S
O48 Eu0 2.563 1_556 S
O48 C56 1.235 1_545 S
O49 Eu0 2.419 . S
O49 C64 1.249 1_554 S
O50 Eu11 2.558 . S
O50 C75 1.257 . S
O51 Eu0 2.380 . S
O51 Eu11 2.612 1_545 S
O51 C67 1.276 . S
O52 Eu0 2.432 . S
O52 C74 1.264 . S
O53 Eu11 2.341 . S
O53 C74 1.241 1_565 S
O54 Eu11 2.563 1_545 S
O54 C67 1.235 . S
O55 Eu11 2.419 . S
O55 C75 1.249 . S
C56 O45 1.269 1_556 S
C56 O48 1.235 1_565 S
C57 C59 1.393 . S
C57 C61 1.395 . S
C57 C64 1.492 . S
C58 C59 1.392 . S
C58 C60 1.386 . S
C59 C57 1.393 . S
C59 C58 1.392 . S
C59 H76 0.930 . S
C60 C58 1.386 . S
C60 C62 1.395 . S
C60 H77 0.930 . S
C61 C57 1.395 . S
C61 C62 1.379 . S
C61 H78 0.930 . S
C62 C60 1.395 . S
C62 C61 1.379 . S
C62 H79 0.930 . S
C63 O46 1.264 . S
C63 O47 1.254 . S
C64 Eu0 2.848 1_556 S
C64 O44 1.257 . S
C64 O49 1.249 1_556 S
C64 C57 1.492 . S
C65 H30 0.931 . S
C65 C43 1.420 . S
C65 C66 1.351 . S
C66 H28 0.930 . S
C66 C34 1.423 . S
C66 C65 1.351 . S
C67 O51 1.276 . S
C67 O54 1.235 . S
C68 C69 1.393 . S
C68 C72 1.395 . S
C68 C75 1.492 . S
C69 C68 1.393 . S
C69 C70 1.392 . S
C69 H80 0.930 . S
C70 C69 1.392 . S
C70 C71 1.386 . S
C71 C70 1.386 . S
C71 C73 1.395 . S
C71 H81 0.930 . S
C72 C68 1.395 . S
C72 C73 1.379 . S
C72 H82 0.930 . S
C73 C71 1.395 . S
C73 C72 1.379 . S
C73 H83 0.930 . S
C74 O52 1.264 . S
C74 O53 1.241 1_545 S
C75 Eu11 2.848 . S
C75 O50 1.257 . S
C75 O55 1.249 . S
C75 C68 1.492 . S
H76 C59 0.930 . S
H77 C60 0.930 . S
H78 C61 0.930 . S
H79 C62 0.930 . S
H80 C69 0.930 . S
H81 C71 0.930 . S
H82 C72 0.930 . S
H83 C73 0.930 . S
Eu84 N115 2.657 1_455 S
Eu84 N122 2.609 1_455 S
Eu84 O128 2.558 . S
Eu84 O129 2.612 . S
Eu84 O131 2.339 . S
Eu84 O132 2.563 . S
Eu84 O133 2.419 . S
Eu84 O135 2.380 . S
Eu84 O136 2.432 . S
Eu84 C148 2.848 1_455 S
C85 C88 1.429 . S
C85 C89 1.411 . S
C85 N92 1.377 . S
C86 C88 1.420 . S
C86 C90 1.423 . S
C86 C98 1.392 . S
C87 C89 1.420 . S
C87 C90 1.351 . S
C87 H110 0.931 . S
C88 C85 1.429 . S
C88 C86 1.420 . S
C88 N96 1.362 . S
C89 C85 1.411 . S
C89 C87 1.420 . S
C89 C94 1.395 . S
C90 C86 1.423 . S
C90 C87 1.351 . S
C90 H102 0.930 . S
C91 C93 1.400 . S
C91 C94 1.386 . S
C91 H103 0.930 . S
N92 C85 1.377 . S
N92 C93 1.321 . S
N92 Eu95 2.609 . S
C93 C91 1.400 . S
C93 N92 1.321 . S
C93 H100 0.930 . S
C94 C89 1.395 . S
C94 C91 1.386 . S
C94 H113 0.930 . S
Eu95 N92 2.609 . S
Eu95 N96 2.657 . S
Eu95 O129 2.380 . S
Eu95 O130 2.432 . S
Eu95 O134 2.558 . S
Eu95 O135 2.612 . S
Eu95 O137 2.339 . S
Eu95 O138 2.563 . S
Eu95 O139 2.419 . S
Eu95 C159 2.848 . S
N96 C88 1.362 . S
N96 Eu95 2.657 . S
N96 C97 1.334 . S
C97 N96 1.334 . S
C97 C99 1.413 . S
C97 H104 0.929 . S
C98 C86 1.392 . S
C98 C99 1.367 . S
C98 H106 0.930 . S
C99 C97 1.413 . S
C99 C98 1.367 . S
C99 H101 0.930 . S
H100 C93 0.930 . S
H101 C99 0.930 . S
H102 C90 0.930 . S
H103 C91 0.930 . S
H104 C97 0.929 . S
H105 C119 0.930 . S
H106 C98 0.930 . S
H107 C125 0.930 1_455 S
H108 C116 0.929 1_455 S
H109 C123 0.930 . S
H110 C87 0.931 . S
H111 C117 0.930 . S
H112 C150 0.930 . S
H113 C94 0.930 . S
H114 C149 0.931 . S
N115 Eu84 2.657 1_655 S
N115 C116 1.334 . S
N115 C120 1.362 . S
C116 H108 0.929 1_655 S
C116 N115 1.334 . S
C116 C119 1.413 . S
C117 H111 0.930 . S
C117 C118 1.392 . S
C117 C119 1.367 . S
C118 C117 1.392 . S
C118 C120 1.420 . S
C118 C150 1.423 . S
C119 H105 0.930 . S
C119 C116 1.413 . S
C119 C117 1.367 . S
C120 N115 1.362 . S
C120 C118 1.420 . S
C120 C124 1.429 . S
H121 C126 0.930 . S
N122 Eu84 2.609 1_655 S
N122 C124 1.377 . S
N122 C125 1.321 . S
C123 H109 0.930 . S
C123 C125 1.400 . S
C123 C126 1.386 . S
C124 C120 1.429 . S
C124 N122 1.377 . S
C124 C127 1.411 . S
C125 H107 0.930 1_655 S
C125 N122 1.321 . S
C125 C123 1.400 . S
C126 H121 0.930 . S
C126 C123 1.386 . S
C126 C127 1.395 . S
C127 C124 1.411 . S
C127 C126 1.395 . S
C127 C149 1.420 . S
O128 Eu84 2.558 . S
O128 C148 1.257 1_455 S
O129 Eu84 2.612 . S
O129 Eu95 2.380 . S
O129 C140 1.276 . S
O130 Eu95 2.432 . S
O130 C147 1.264 . S
O131 Eu84 2.339 . S
O131 C147 1.254 . S
O132 Eu84 2.563 . S
O132 C140 1.235 . S
O133 Eu84 2.419 . S
O133 C148 1.249 1_455 S
O134 Eu95 2.558 . S
O134 C159 1.257 . S
O135 Eu84 2.380 . S
O135 Eu95 2.612 . S
O135 C151 1.276 . S
O136 Eu84 2.432 . S
O136 C158 1.264 . S
O137 Eu95 2.339 . S
O137 C158 1.254 . S
O138 Eu95 2.563 . S
O138 C151 1.235 . S
O139 Eu95 2.419 . S
O139 C159 1.249 . S
C140 O129 1.276 . S
C140 O132 1.235 . S
C141 C143 1.393 . S
C141 C145 1.395 . S
C141 C148 1.492 . S
C142 C143 1.392 . S
C142 C144 1.386 . S
C143 C141 1.393 . S
C143 C142 1.392 . S
C143 H160 0.930 . S
C144 C142 1.386 . S
C144 C146 1.395 . S
C144 H161 0.930 . S
C145 C141 1.395 . S
C145 C146 1.379 . S
C145 H162 0.930 . S
C146 C144 1.395 . S
C146 C145 1.379 . S
C146 H163 0.930 . S
C147 O130 1.264 . S
C147 O131 1.254 . S
C148 Eu84 2.848 1_655 S
C148 O128 1.257 1_655 S
C148 O133 1.249 1_655 S
C148 C141 1.492 . S
C149 H114 0.931 . S
C149 C127 1.420 . S
C149 C150 1.351 . S
C150 H112 0.930 . S
C150 C118 1.423 . S
C150 C149 1.351 . S
C151 O135 1.276 . S
C151 O138 1.235 . S
C152 C153 1.393 . S
C152 C156 1.395 . S
C152 C159 1.492 . S
C153 C152 1.393 . S
C153 C154 1.392 . S
C153 H164 0.930 . S
C154 C153 1.392 . S
C154 C155 1.386 . S
C155 C154 1.386 . S
C155 C157 1.395 . S
C155 H165 0.930 . S
C156 C152 1.395 . S
C156 C157 1.379 . S
C156 H166 0.930 . S
C157 C155 1.395 . S
C157 C156 1.379 . S
C157 H167 0.930 . S
C158 O136 1.264 . S
C158 O137 1.254 . S
C159 Eu95 2.848 . S
C159 O134 1.257 . S
C159 O139 1.249 . S
C159 C152 1.492 . S
H160 C143 0.930 . S
H161 C144 0.930 . S
H162 C145 0.930 . S
H163 C146 0.930 . S
H164 C153 0.930 . S
H165 C155 0.930 . S
H166 C156 0.930 . S
H167 C157 0.930 . S
Eu168 N199 2.657 . S
Eu168 N206 2.609 . S
Eu168 O212 2.558 1_554 S
Eu168 O213 2.612 1_554 S
Eu168 O215 2.339 . S
Eu168 O216 2.563 1_554 S
Eu168 O217 2.419 1_554 S
Eu168 O219 2.380 . S
Eu168 O220 2.432 . S
Eu168 C232 2.848 1_554 S
C169 C172 1.429 . S
C169 C173 1.411 . S
C169 N176 1.377 1_566 S
C170 C172 1.420 . S
C170 C174 1.423 . S
C170 C182 1.392 . S
C171 C173 1.420 . S
C171 C174 1.351 . S
C171 H194 0.931 . S
C172 C169 1.429 . S
C172 C170 1.420 . S
C172 N180 1.362 1_565 S
C173 C169 1.411 . S
C173 C171 1.420 . S
C173 C178 1.395 . S
C174 C170 1.423 . S
C174 C171 1.351 . S
C174 H186 0.930 . S
C175 C177 1.400 1_565 S
C175 C178 1.386 1_554 S
C175 H187 0.930 1_655 S
N176 C169 1.377 1_544 S
N176 C177 1.321 . S
N176 Eu179 2.609 . S
C177 C175 1.400 1_545 S
C177 N176 1.321 . S
C177 H184 0.930 . S
C178 C173 1.395 . S
C178 C175 1.386 1_556 S
C178 H197 0.930 . S
Eu179 N176 2.609 . S
Eu179 N180 2.657 1_554 S
Eu179 O213 2.380 1_554 S
Eu179 O214 2.432 . S
Eu179 O218 2.558 . S
Eu179 O219 2.612 . S
Eu179 O221 2.339 . S
Eu179 O222 2.563 . S
Eu179 O223 2.419 . S
Eu179 C243 2.848 . S
N180 C172 1.362 1_545 S
N180 Eu179 2.657 1_556 S
N180 C181 1.334 . S
C181 N180 1.334 . S
C181 C183 1.413 1_545 S
C181 H188 0.929 . S
C182 C170 1.392 . S
C182 C183 1.367 . S
C182 H190 0.930 . S
C183 C181 1.413 1_565 S
C183 C182 1.367 . S
C183 H185 0.930 . S
H184 C177 0.930 . S
H185 C183 0.930 . S
H186 C174 0.930 . S
H187 C175 0.930 1_455 S
H188 C181 0.929 . S
H189 C203 0.930 . S
H190 C182 0.930 . S
H191 C209 0.931 1_556 S
H192 C200 0.929 . S
H193 C207 0.930 . S
H194 C171 0.931 . S
H195 C201 0.930 . S
H196 C234 0.930 . S
H197 C178 0.930 . S
H198 C233 0.931 . S
N199 Eu168 2.657 . S
N199 C200 1.334 . S
N199 C204 1.362 . S
C200 H192 0.929 . S
C200 N199 1.334 . S
C200 C203 1.413 . S
C201 H195 0.930 . S
C201 C202 1.392 . S
C201 C203 1.367 . S
C202 C201 1.392 . S
C202 C204 1.420 . S
C202 C234 1.423 . S
C203 H189 0.930 . S
C203 C200 1.413 . S
C203 C201 1.367 . S
C204 N199 1.362 . S
C204 C202 1.420 . S
C204 C208 1.429 . S
H205 C210 0.930 . S
N206 Eu168 2.609 . S
N206 C208 1.377 . S
N206 C209 1.321 . S
C207 H193 0.930 . S
C207 C209 1.400 . S
C207 C210 1.386 . S
C208 C204 1.429 . S
C208 N206 1.377 . S
C208 C211 1.411 . S
C209 H191 0.931 1_554 S
C209 N206 1.321 . S
C209 C207 1.400 . S
C210 H205 0.930 . S
C210 C207 1.386 . S
C210 C211 1.395 . S
C211 C208 1.411 . S
C211 C210 1.395 . S
C211 C233 1.420 . S
O212 Eu168 2.558 1_556 S
O212 C232 1.257 . S
O213 Eu168 2.612 1_556 S
O213 Eu179 2.380 1_556 S
O213 C224 1.276 . S
O214 Eu179 2.432 . S
O214 C231 1.264 . S
O215 Eu168 2.339 . S
O215 C231 1.254 . S
O216 Eu168 2.563 1_556 S
O216 C224 1.235 . S
O217 Eu168 2.419 1_556 S
O217 C232 1.249 . S
O218 Eu179 2.558 . S
O218 C243 1.257 . S
O219 Eu168 2.380 . S
O219 Eu179 2.612 . S
O219 C235 1.276 . S
O220 Eu168 2.432 . S
O220 C242 1.264 . S
O221 Eu179 2.339 . S
O221 C242 1.254 . S
O222 Eu179 2.563 . S
O222 C235 1.235 . S
O223 Eu179 2.419 . S
O223 C243 1.249 . S
C224 O213 1.276 . S
C224 O216 1.235 . S
C225 C227 1.393 . S
C225 C229 1.395 . S
C225 C232 1.492 . S
C226 C227 1.392 . S
C226 C228 1.386 . S
C227 C225 1.393 . S
C227 C226 1.392 . S
C227 H244 0.930 . S
C228 C226 1.386 . S
C228 C230 1.395 . S
C228 H245 0.930 . S
C229 C225 1.395 . S
C229 C230 1.379 . S
C229 H246 0.930 . S
C230 C228 1.395 . S
C230 C229 1.379 . S
C230 H247 0.930 . S
C231 O214 1.264 . S
C231 O215 1.254 . S
C232 Eu168 2.848 1_556 S
C232 O212 1.257 . S
C232 O217 1.249 . S
C232 C225 1.492 . S
C233 H198 0.931 . S
C233 C211 1.420 . S
C233 C234 1.351 . S
C234 H196 0.930 . S
C234 C202 1.423 . S
C234 C233 1.351 . S
C235 O219 1.276 . S
C235 O222 1.235 . S
C236 C237 1.393 . S
C236 C240 1.395 1_545 S
C236 C243 1.492 . S
C237 C236 1.393 . S
C237 C238 1.392 . S
C237 H248 0.930 . S
C238 C237 1.392 . S
C238 C239 1.386 1_545 S
C239 C238 1.386 1_565 S
C239 C241 1.395 . S
C239 H249 0.930 . S
C240 C236 1.395 1_565 S
C240 C241 1.379 . S
C240 H250 0.930 . S
C241 C239 1.395 . S
C241 C240 1.379 . S
C241 H251 0.930 . S
C242 O220 1.264 . S
C242 O221 1.254 . S
C243 Eu179 2.848 . S
C243 O218 1.257 . S
C243 O223 1.249 . S
C243 C236 1.492 . S
H244 C227 0.930 . S
H245 C228 0.930 . S
H246 C229 0.930 . S
H247 C230 0.930 . S
H248 C237 0.930 . S
H249 C239 0.930 . S
H250 C240 0.930 . S
H251 C241 0.930 . S
Eu252 N283 2.657 1_455 S
Eu252 N290 2.609 1_455 S
Eu252 O296 2.558 1_455 S
Eu252 O297 2.612 . S
Eu252 O299 2.339 . S
Eu252 O300 2.563 . S
Eu252 O301 2.419 1_455 S
Eu252 O303 2.380 . S
Eu252 O304 2.432 . S
Eu252 C316 2.848 1_455 S
C253 C256 1.429 . S
C253 C257 1.411 . S
C253 N260 1.377 . S
C254 C256 1.420 . S
C254 C258 1.423 . S
C254 C266 1.392 . S
C255 C257 1.420 . S
C255 C258 1.351 . S
C255 H278 0.931 . S
C256 C253 1.429 . S
C256 C254 1.420 . S
C256 N264 1.362 . S
C257 C253 1.411 . S
C257 C255 1.420 . S
C257 C262 1.395 . S
C258 C254 1.423 . S
C258 C255 1.351 . S
C258 H270 0.930 . S
C259 C261 1.400 . S
C259 C262 1.386 . S
C259 H271 0.930 . S
N260 C253 1.377 . S
N260 C261 1.321 . S
N260 Eu263 2.609 . S
C261 C259 1.400 . S
C261 N260 1.321 . S
C261 H268 0.930 . S
C262 C257 1.395 . S
C262 C259 1.386 . S
C262 H281 0.930 . S
Eu263 N260 2.609 . S
Eu263 N264 2.657 . S
Eu263 O297 2.380 . S
Eu263 O298 2.432 . S
Eu263 O302 2.558 . S
Eu263 O303 2.612 . S
Eu263 O305 2.339 . S
Eu263 O306 2.563 . S
Eu263 O307 2.419 . S
Eu263 C327 2.848 . S
N264 C256 1.362 . S
N264 Eu263 2.657 . S
N264 C265 1.334 . S
C265 N264 1.334 . S
C265 C267 1.413 . S
C265 H272 0.929 . S
C266 C254 1.392 . S
C266 C267 1.367 . S
C266 H274 0.930 . S
C267 C265 1.413 . S
C267 C266 1.367 . S
C267 H269 0.930 . S
H268 C261 0.930 . S
H269 C267 0.930 . S
H270 C258 0.930 . S
H271 C259 0.930 . S
H272 C265 0.929 . S
H273 C287 0.930 . S
H274 C266 0.930 . S
H275 C293 0.932 . S
H276 C284 0.929 . S
H277 C291 0.930 . S
H278 C255 0.931 . S
H279 C285 0.930 . S
H280 C318 0.930 . S
H281 C262 0.930 . S
H282 C317 0.931 . S
N283 Eu252 2.657 1_655 S
N283 C284 1.334 . S
N283 C288 1.362 . S
C284 H276 0.929 . S
C284 N283 1.334 . S
C284 C287 1.413 . S
C285 H279 0.930 . S
C285 C286 1.392 . S
C285 C287 1.367 . S
C286 C285 1.392 . S
C286 C288 1.420 . S
C286 C318 1.423 . S
C287 H273 0.930 . S
C287 C284 1.413 . S
C287 C285 1.367 . S
C288 N283 1.362 . S
C288 C286 1.420 . S
C288 C292 1.429 . S
H289 C294 0.930 . S
N290 Eu252 2.609 1_655 S
N290 C292 1.377 . S
N290 C293 1.321 . S
C291 H277 0.930 . S
C291 C293 1.400 1_545 S
C291 C294 1.386 . S
C292 C288 1.429 . S
C292 N290 1.377 . S
C292 C295 1.411 . S
C293 H275 0.932 . S
C293 N290 1.321 . S
C293 C291 1.400 1_565 S
C294 H289 0.930 . S
C294 C291 1.386 . S
C294 C295 1.395 1_545 S
C295 C292 1.411 . S
C295 C294 1.395 1_565 S
C295 C317 1.420 . S
O296 Eu252 2.558 1_655 S
O296 C316 1.257 . S
O297 Eu252 2.612 . S
O297 Eu263 2.380 . S
O297 C308 1.276 . S
O298 Eu263 2.432 . S
O298 C315 1.264 . S
O299 Eu252 2.339 . S
O299 C315 1.254 . S
O300 Eu252 2.563 . S
O300 C308 1.235 . S
O301 Eu252 2.419 1_655 S
O301 C316 1.249 . S
O302 Eu263 2.558 . S
O302 C327 1.257 . S
O303 Eu252 2.380 . S
O303 Eu263 2.612 . S
O303 C319 1.276 . S
O304 Eu252 2.432 . S
O304 C326 1.264 . S
O305 Eu263 2.339 . S
O305 C326 1.254 . S
O306 Eu263 2.563 . S
O306 C319 1.235 . S
O307 Eu263 2.419 . S
O307 C327 1.249 . S
C308 O297 1.276 . S
C308 O300 1.235 . S
C309 C311 1.393 . S
C309 C313 1.395 . S
C309 C316 1.492 . S
C310 C311 1.392 . S
C310 C312 1.386 . S
C311 C309 1.393 . S
C311 C310 1.392 . S
C311 H328 0.930 . S
C312 C310 1.386 . S
C312 C314 1.395 . S
C312 H329 0.930 . S
C313 C309 1.395 . S
C313 C314 1.379 . S
C313 H330 0.930 . S
C314 C312 1.395 . S
C314 C313 1.379 . S
C314 H331 0.930 . S
C315 O298 1.264 . S
C315 O299 1.254 . S
C316 Eu252 2.848 1_655 S
C316 O296 1.257 . S
C316 O301 1.249 . S
C316 C309 1.492 . S
C317 H282 0.931 . S
C317 C295 1.420 . S
C317 C318 1.351 . S
C318 H280 0.930 . S
C318 C286 1.423 . S
C318 C317 1.351 . S
C319 O303 1.276 . S
C319 O306 1.235 . S
C320 C321 1.393 . S
C320 C324 1.395 . S
C320 C327 1.492 . S
C321 C320 1.393 . S
C321 C322 1.392 . S
C321 H332 0.930 . S
C322 C321 1.392 . S
C322 C323 1.386 . S
C323 C322 1.386 . S
C323 C325 1.395 . S
C323 H333 0.930 . S
C324 C320 1.395 . S
C324 C325 1.379 . S
C324 H334 0.930 . S
C325 C323 1.395 . S
C325 C324 1.379 . S
C325 H335 0.930 . S
C326 O304 1.264 . S
C326 O305 1.254 . S
C327 Eu263 2.848 . S
C327 O302 1.257 . S
C327 O307 1.249 . S
C327 C320 1.492 . S
H328 C311 0.930 . S
H329 C312 0.930 . S
H330 C313 0.930 . S
H331 C314 0.930 . S
H332 C321 0.930 . S
H333 C323 0.930 . S
H334 C324 0.930 . S
H335 C325 0.930 . S
H336 C344 0.929 . S
H337 C346 0.930 . S
H338 C348 0.930 1_556 S
H339 C351 0.929 . S
H340 C354 0.930 . S
H341 C356 0.960 . S
H342 C356 0.960 . S
H343 C356 0.960 . S
C344 H336 0.929 . S
C344 C345 1.377 . S
C344 C346 1.384 . S
C345 C344 1.377 . S
C345 C351 1.390 1_554 S
C346 H337 0.930 . S
C346 C344 1.384 . S
C346 C347 1.372 . S
C347 C346 1.372 . S
C347 C348 1.402 . S
C347 C352 1.490 1_655 S
C348 H338 0.930 1_554 S
C348 C347 1.402 . S
C348 C351 1.384 1_554 S
H349 C365 0.930 . S
H350 C366 0.931 1_565 S
C351 H339 0.929 . S
C351 C345 1.390 1_556 S
C351 C348 1.384 1_556 S
C352 C347 1.490 1_455 S
C352 C354 1.395 . S
C352 C355 1.403 . S
H353 C359 0.930 1_556 S
C354 H340 0.930 . S
C354 C352 1.395 . S
C354 C357 1.403 . S
C355 C352 1.403 . S
C355 C356 1.524 1_554 S
C355 C359 1.400 . S
C356 H341 0.960 . S
C356 H342 0.960 . S
C356 H343 0.960 . S
C356 C355 1.524 1_556 S
C357 C354 1.403 . S
C357 C358 1.392 . S
C357 C361 1.495 . S
C358 C357 1.392 . S
C358 C359 1.385 . S
C358 C360 1.478 . S
C359 H353 0.930 1_554 S
C359 C355 1.400 . S
C359 C358 1.385 . S
C360 C358 1.478 . S
C360 C362 1.381 . S
C360 C366 1.383 . S
C361 C357 1.495 . S
C361 H367 0.959 . S
C361 H368 0.961 . S
C361 H369 0.960 . S
C362 C360 1.381 . S
C362 C363 1.394 . S
C362 H370 0.930 . S
C363 C362 1.394 . S
C363 C364 1.383 . S
C363 H371 0.929 . S
C364 C363 1.383 . S
C364 C365 1.377 1_545 S
C365 H349 0.930 . S
C365 C364 1.377 1_565 S
C365 C366 1.379 1_565 S
C366 H350 0.931 1_545 S
C366 C360 1.383 . S
C366 C365 1.379 1_545 S
H367 C361 0.959 . S
H368 C361 0.961 . S
H369 C361 0.960 . S
H370 C362 0.930 . S
H371 C363 0.929 . S
H372 C380 0.929 . S
H373 C382 0.930 . S
H374 C384 0.930 1_545 S
H375 C387 0.929 . S
H376 C390 0.930 . S
H377 C392 0.960 . S
H378 C392 0.954 1_565 S
H379 C392 0.960 . S
C380 H372 0.929 . S
C380 C381 1.377 . S
C380 C382 1.384 . S
C381 C380 1.377 . S
C381 C387 1.390 . S
C382 H373 0.930 . S
C382 C380 1.384 . S
C382 C383 1.372 1_565 S
C383 C382 1.372 1_545 S
C383 C384 1.400 1_545 S
C383 C388 1.490 . S
C384 H374 0.930 1_565 S
C384 C383 1.400 1_565 S
C384 C387 1.386 . S
H385 C401 0.930 . S
H386 C402 0.931 . S
C387 H375 0.929 . S
C387 C381 1.390 . S
C387 C384 1.386 . S
C388 C383 1.490 . S
C388 C390 1.395 . S
C388 C391 1.403 . S
H389 C395 0.930 . S
C390 H376 0.930 . S
C390 C388 1.395 . S
C390 C393 1.403 . S
C391 C388 1.403 . S
C391 C392 1.524 . S
C391 C395 1.400 . S
C392 H377 0.960 . S
C392 H378 0.954 1_545 S
C392 H379 0.960 . S
C392 C391 1.524 . S
C393 C390 1.403 . S
C393 C394 1.392 . S
C393 C397 1.495 1_455 S
C394 C393 1.392 . S
C394 C395 1.385 . S
C394 C396 1.478 . S
C395 H389 0.930 . S
C395 C391 1.400 . S
C395 C394 1.385 . S
C396 C394 1.478 . S
C396 C398 1.381 . S
C396 C402 1.383 . S
C397 C393 1.495 1_655 S
C397 H403 0.959 . S
C397 H404 0.961 . S
C397 H405 0.960 . S
C398 C396 1.381 . S
C398 C399 1.394 . S
C398 H406 0.930 . S
C399 C398 1.394 . S
C399 C400 1.383 . S
C399 H407 0.929 . S
C400 C399 1.383 . S
C400 C401 1.377 . S
C401 H385 0.930 . S
C401 C400 1.377 . S
C401 C402 1.379 . S
C402 H386 0.931 . S
C402 C396 1.383 . S
C402 C401 1.379 . S
H403 C397 0.959 . S
H404 C397 0.961 . S
H405 C397 0.960 . S
H406 C398 0.930 . S
H407 C399 0.929 . S
H408 C416 0.929 . S
H409 C418 0.930 . S
H410 C420 0.930 . S
H411 C423 0.929 . S
H412 C426 0.930 . S
H413 C428 0.960 . S
H414 C428 0.960 . S
H415 C428 0.960 . S
C416 H408 0.929 . S
C416 C417 1.377 1_556 S
C416 C418 1.384 . S
C417 C416 1.377 1_554 S
C417 C423 1.390 . S
C418 H409 0.930 . S
C418 C416 1.384 . S
C418 C419 1.372 1_556 S
C419 C418 1.372 1_554 S
C419 C420 1.400 . S
C419 C424 1.490 . S
C420 H410 0.930 . S
C420 C419 1.400 . S
C420 C423 1.386 . S
H421 C437 0.930 . S
H422 C438 0.931 . S
C423 H411 0.929 . S
C423 C417 1.390 . S
C423 C420 1.386 . S
C424 C419 1.490 . S
C424 C426 1.395 . S
C424 C427 1.403 . S
H425 C431 0.930 . S
C426 H412 0.930 . S
C426 C424 1.395 . S
C426 C429 1.403 . S
C427 C424 1.403 . S
C427 C428 1.524 . S
C427 C431 1.400 . S
C428 H413 0.960 . S
C428 H414 0.960 . S
C428 H415 0.960 . S
C428 C427 1.524 . S
C429 C426 1.403 . S
C429 C430 1.392 . S
C429 C433 1.495 1_545 S
C430 C429 1.392 . S
C430 C431 1.385 . S
C430 C432 1.478 . S
C431 H425 0.930 . S
C431 C427 1.400 . S
C431 C430 1.385 . S
C432 C430 1.478 . S
C432 C434 1.381 . S
C432 C438 1.383 . S
C433 C429 1.495 1_565 S
C433 H439 0.959 . S
C433 H440 0.961 . S
C433 H441 0.960 . S
C434 C432 1.381 . S
C434 C435 1.394 . S
C434 H442 0.930 1_554 S
C435 C434 1.394 . S
C435 C436 1.383 . S
C435 H443 0.929 1_544 S
C436 C435 1.383 . S
C436 C437 1.377 . S
C437 H421 0.930 . S
C437 C436 1.377 . S
C437 C438 1.379 . S
C438 H422 0.931 . S
C438 C432 1.383 . S
C438 C437 1.379 . S
H439 C433 0.959 . S
H440 C433 0.961 . S
H441 C433 0.960 . S
H442 C434 0.930 1_556 S
H443 C435 0.929 1_566 S
H444 C452 0.929 . S
H445 C454 0.930 . S
H446 C456 0.930 . S
H447 C459 0.929 . S
H448 C462 0.930 . S
H449 C464 0.960 1_655 S
H450 C464 0.960 . S
H451 C464 0.960 1_655 S
C452 H444 0.929 . S
C452 C453 1.377 . S
C452 C454 1.384 . S
C453 C452 1.377 . S
C453 C459 1.390 . S
C454 H445 0.930 . S
C454 C452 1.384 . S
C454 C455 1.372 . S
C455 C454 1.372 . S
C455 C456 1.400 . S
C455 C460 1.490 . S
C456 H446 0.930 . S
C456 C455 1.400 . S
C456 C459 1.386 . S
H457 C473 0.930 . S
H458 C474 0.931 . S
C459 H447 0.929 . S
C459 C453 1.390 . S
C459 C456 1.386 . S
C460 C455 1.490 . S
C460 C462 1.395 . S
C460 C463 1.403 . S
H461 C467 0.930 . S
C462 H448 0.930 . S
C462 C460 1.395 . S
C462 C465 1.403 . S
C463 C460 1.403 . S
C463 C464 1.524 . S
C463 C467 1.400 . S
C464 H449 0.960 1_455 S
C464 H450 0.960 . S
C464 H451 0.960 1_455 S
C464 C463 1.524 . S
C465 C462 1.403 . S
C465 C466 1.392 . S
C465 C469 1.495 . S
C466 C465 1.392 . S
C466 C467 1.385 . S
C466 C468 1.478 . S
C467 H461 0.930 . S
C467 C463 1.400 . S
C467 C466 1.385 . S
C468 C466 1.478 . S
C468 C470 1.381 . S
C468 C474 1.383 . S
C469 C465 1.495 . S
C469 H475 0.959 . S
C469 H476 0.961 . S
C469 H477 0.960 . S
C470 C468 1.381 . S
C470 C471 1.394 . S
C470 H478 0.930 . S
C471 C470 1.394 . S
C471 C472 1.383 . S
C471 H479 0.929 . S
C472 C471 1.383 . S
C472 C473 1.377 . S
C473 H457 0.930 . S
C473 C472 1.377 . S
C473 C474 1.379 . S
C474 H458 0.931 . S
C474 C468 1.383 . S
C474 C473 1.379 . S
H475 C469 0.959 . S
H476 C469 0.961 . S
H477 C469 0.960 . S
H478 C470 0.930 . S
H479 C471 0.929 . S
H480 C488 0.929 . S
H481 C490 0.930 . S
H482 C492 0.930 . S
H483 C495 0.929 . S
H484 C498 0.930 . S
H485 C500 0.960 . S
H486 C500 0.960 . S
H487 C500 0.960 . S
C488 H480 0.929 . S
C488 C489 1.377 . S
C488 C490 1.384 . S
C489 C488 1.377 . S
C489 C495 1.390 . S
C490 H481 0.930 . S
C490 C488 1.384 . S
C490 C491 1.372 . S
C491 C490 1.372 . S
C491 C492 1.400 . S
C491 C496 1.490 . S
C492 H482 0.930 . S
C492 C491 1.400 . S
C492 C495 1.386 . S
H493 C509 0.930 . S
H494 C510 0.931 . S
C495 H483 0.929 . S
C495 C489 1.390 . S
C495 C492 1.386 . S
C496 C491 1.490 . S
C496 C498 1.395 . S
C496 C499 1.403 . S
H497 C503 0.930 . S
C498 H484 0.930 . S
C498 C496 1.395 . S
C498 C501 1.403 . S
C499 C496 1.403 . S
C499 C500 1.524 . S
C499 C503 1.400 . S
C500 H485 0.960 . S
C500 H486 0.960 . S
C500 H487 0.960 . S
C500 C499 1.524 . S
C501 C498 1.403 . S
C501 C502 1.392 . S
C501 C505 1.495 . S
C502 C501 1.392 . S
C502 C503 1.385 . S
C502 C504 1.478 . S
C503 H497 0.930 . S
C503 C499 1.400 . S
C503 C502 1.385 . S
C504 C502 1.478 . S
C504 C506 1.381 . S
C504 C510 1.383 . S
C505 C501 1.495 . S
C505 H511 0.959 . S
C505 H512 0.961 . S
C505 H513 0.960 . S
C506 C504 1.381 . S
C506 C507 1.394 . S
C506 H514 0.930 . S
C507 C506 1.394 . S
C507 C508 1.383 . S
C507 H515 0.929 . S
C508 C507 1.383 . S
C508 C509 1.377 . S
C509 H493 0.930 . S
C509 C508 1.377 . S
C509 C510 1.379 . S
C510 H494 0.931 . S
C510 C504 1.383 . S
C510 C509 1.379 . S
H511 C505 0.959 . S
H512 C505 0.961 . S
H513 C505 0.960 . S
H514 C506 0.930 . S
H515 C507 0.929 . S
H516 C524 0.929 . S
H517 C526 0.930 . S
H518 C528 0.930 . S
H519 C531 0.929 . S
H520 C534 0.930 . S
H521 C536 0.960 . S
H522 C536 0.960 . S
H523 C536 0.960 . S
C524 H516 0.929 . S
C524 C525 1.377 1_655 S
C524 C526 1.384 . S
C525 C524 1.377 1_455 S
C525 C531 1.390 . S
C526 H517 0.930 . S
C526 C524 1.384 . S
C526 C527 1.372 . S
C527 C526 1.372 . S
C527 C528 1.400 1_655 S
C527 C532 1.490 . S
C528 H518 0.930 . S
C528 C527 1.400 1_455 S
C528 C531 1.386 . S
H529 C545 0.930 . S
H530 C546 0.931 . S
C531 H519 0.929 . S
C531 C525 1.390 . S
C531 C528 1.386 . S
C532 C527 1.490 . S
C532 C534 1.395 . S
C532 C535 1.403 . S
H533 C539 0.930 . S
C534 H520 0.930 . S
C534 C532 1.395 . S
C534 C537 1.403 . S
C535 C532 1.403 . S
C535 C536 1.524 . S
C535 C539 1.400 . S
C536 H521 0.960 . S
C536 H522 0.960 . S
C536 H523 0.960 . S
C536 C535 1.524 . S
C537 C534 1.403 . S
C537 C538 1.392 . S
C537 C541 1.495 . S
C538 C537 1.392 . S
C538 C539 1.385 . S
C538 C540 1.478 . S
C539 H533 0.930 . S
C539 C535 1.400 . S
C539 C538 1.385 . S
C540 C538 1.478 . S
C540 C542 1.381 . S
C540 C546 1.383 . S
C541 C537 1.495 . S
C541 H547 0.959 . S
C541 H548 0.961 . S
C541 H549 0.960 . S
C542 C540 1.381 . S
C542 C543 1.394 . S
C542 H550 0.930 . S
C543 C542 1.394 . S
C543 C544 1.383 . S
C543 H551 0.929 . S
C544 C543 1.383 . S
C544 C545 1.377 . S
C545 H529 0.930 . S
C545 C544 1.377 . S
C545 C546 1.379 . S
C546 H530 0.931 . S
C546 C540 1.383 . S
C546 C545 1.379 . S
H547 C541 0.959 . S
H548 C541 0.961 . S
H549 C541 0.960 . S
H550 C542 0.930 . S
H551 C543 0.929 . S
H552 C560 0.929 . S
H553 C562 0.930 . S
H554 C564 0.930 1_455 S
H555 C567 0.929 . S
H556 C570 0.930 . S
H557 C572 0.960 . S
H558 C572 0.960 . S
H559 C572 0.960 . S
C560 H552 0.929 . S
C560 C561 1.377 . S
C560 C562 1.384 . S
C561 C560 1.377 . S
C561 C567 1.390 1_655 S
C562 H553 0.930 . S
C562 C560 1.384 . S
C562 C563 1.372 . S
C563 C562 1.372 . S
C563 C564 1.400 . S
C563 C568 1.490 . S
C564 H554 0.930 1_655 S
C564 C563 1.400 . S
C564 C567 1.386 1_655 S
H565 C581 0.930 . S
H566 C582 0.931 . S
C567 H555 0.929 . S
C567 C561 1.390 1_455 S
C567 C564 1.386 1_455 S
C568 C563 1.490 . S
C568 C570 1.395 . S
C568 C571 1.403 . S
H569 C575 0.930 . S
C570 H556 0.930 . S
C570 C568 1.395 . S
C570 C573 1.403 . S
C571 C568 1.403 . S
C571 C572 1.524 . S
C571 C575 1.400 . S
C572 H557 0.960 . S
C572 H558 0.960 . S
C572 H559 0.960 . S
C572 C571 1.524 . S
C573 C570 1.403 . S
C573 C574 1.392 . S
C573 C577 1.495 1_565 S
C574 C573 1.392 . S
C574 C575 1.385 . S
C574 C576 1.478 . S
C575 H569 0.930 . S
C575 C571 1.400 . S
C575 C574 1.385 . S
C576 C574 1.478 . S
C576 C578 1.381 . S
C576 C582 1.383 . S
C577 C573 1.495 1_545 S
C577 H583 0.959 . S
C577 H584 0.961 . S
C577 H585 0.960 . S
C578 C576 1.381 . S
C578 C579 1.401 . S
C578 H586 0.930 . S
C579 C578 1.401 . S
C579 C580 1.388 . S
C579 H587 0.927 1_565 S
C580 C579 1.388 . S
C580 C581 1.381 . S
C581 H565 0.930 . S
C581 C580 1.381 . S
C581 C582 1.379 . S
C582 H566 0.931 . S
C582 C576 1.383 . S
C582 C581 1.379 . S
H583 C577 0.959 . S
H584 C577 0.961 . S
H585 C577 0.960 . S
H586 C578 0.930 . S
H587 C579 0.927 1_545 S
H588 C596 0.929 . S
H589 C598 0.930 . S
H590 C600 0.930 . S
H591 C603 0.929 . S
H592 C606 0.930 . S
H593 C608 0.960 . S
H594 C608 0.960 . S
H595 C608 0.960 . S
C596 H588 0.929 . S
C596 C597 1.377 . S
C596 C598 1.384 . S
C597 C596 1.377 . S
C597 C603 1.390 . S
C598 H589 0.930 . S
C598 C596 1.384 . S
C598 C599 1.372 . S
C599 C598 1.372 . S
C599 C600 1.400 . S
C599 C604 1.490 . S
C600 H590 0.930 . S
C600 C599 1.400 . S
C600 C603 1.386 . S
H601 C617 0.930 1_545 S
H602 C618 0.931 1_545 S
C603 H591 0.929 . S
C603 C597 1.390 . S
C603 C600 1.386 . S
C604 C599 1.490 . S
C604 C606 1.395 . S
C604 C607 1.403 . S
H605 C611 0.930 . S
C606 H592 0.930 . S
C606 C604 1.395 . S
C606 C609 1.403 . S
C607 C604 1.403 . S
C607 C608 1.524 . S
C607 C611 1.400 . S
C608 H593 0.960 . S
C608 H594 0.960 . S
C608 H595 0.960 . S
C608 C607 1.524 . S
C609 C606 1.403 . S
C609 C610 1.392 . S
C609 C613 1.495 . S
C610 C609 1.392 . S
C610 C611 1.385 . S
C610 C612 1.478 . S
C611 H605 0.930 . S
C611 C607 1.400 . S
C611 C610 1.385 . S
C612 C610 1.478 . S
C612 C614 1.381 . S
C612 C618 1.383 . S
C613 C609 1.495 . S
C613 H619 0.959 . S
C613 H620 0.961 . S
C613 H621 0.960 . S
C614 C612 1.381 . S
C614 C615 1.394 . S
C614 H622 0.930 . S
C615 C614 1.394 . S
C615 C616 1.383 . S
C615 H623 0.929 . S
C616 C615 1.383 . S
C616 C617 1.377 . S
C617 H601 0.930 1_565 S
C617 C616 1.377 . S
C617 C618 1.379 . S
C618 H602 0.931 1_565 S
C618 C612 1.383 . S
C618 C617 1.379 . S
H619 C613 0.959 . S
H620 C613 0.961 . S
H621 C613 0.960 . S
H622 C614 0.930 . S
H623 C615 0.929 . S
H624 C632 0.929 . S
H625 C634 0.930 . S
H626 C636 0.930 1_565 S
H627 C639 0.929 . S
H628 C642 0.929 1_545 S
H629 C644 0.960 . S
H630 C644 0.960 1_545 S
H631 C644 0.960 . S
C632 H624 0.929 . S
C632 C633 1.377 . S
C632 C634 1.384 . S
C633 C632 1.377 . S
C633 C639 1.390 . S
C634 H625 0.930 . S
C634 C632 1.384 . S
C634 C635 1.372 . S
C635 C634 1.372 . S
C635 C636 1.400 . S
C635 C640 1.490 . S
C636 H626 0.930 1_545 S
C636 C635 1.400 . S
C636 C639 1.386 . S
H637 C653 0.930 . S
H638 C654 0.931 . S
C639 H627 0.929 . S
C639 C633 1.390 . S
C639 C636 1.386 . S
C640 C635 1.490 . S
C640 C642 1.395 1_545 S
C640 C643 1.403 1_545 S
H641 C647 0.930 . S
C642 H628 0.929 1_565 S
C642 C640 1.395 1_565 S
C642 C645 1.404 . S
C643 C640 1.403 1_565 S
C643 C644 1.524 . S
C643 C647 1.400 . S
C644 H629 0.960 . S
C644 H630 0.960 1_565 S
C644 H631 0.960 . S
C644 C643 1.524 . S
C645 C642 1.404 . S
C645 C646 1.392 . S
C645 C649 1.495 . S
C646 C645 1.392 . S
C646 C647 1.385 . S
C646 C648 1.478 . S
C647 H641 0.930 . S
C647 C643 1.400 . S
C647 C646 1.385 . S
C648 C646 1.478 . S
C648 C650 1.381 . S
C648 C654 1.383 . S
C649 C645 1.495 . S
C649 H655 0.959 . S
C649 H656 0.961 . S
C649 H657 0.960 . S
C650 C648 1.381 . S
C650 C651 1.394 . S
C650 H658 0.930 . S
C651 C650 1.394 . S
C651 C652 1.383 . S
C651 H659 0.929 . S
C652 C651 1.383 . S
C652 C653 1.377 . S
C653 H637 0.930 . S
C653 C652 1.377 . S
C653 C654 1.379 . S
C654 H638 0.931 . S
C654 C648 1.383 . S
C654 C653 1.379 . S
H655 C649 0.959 . S
H656 C649 0.961 . S
H657 C649 0.960 . S
H658 C650 0.930 . S
H659 C651 0.929 . S
H660 C668 0.929 . S
H661 C670 0.930 . S
H662 C672 0.930 . S
H663 C675 0.929 . S
H664 C678 0.930 . S
H665 C680 0.960 . S
H666 C680 0.960 . S
H667 C680 0.960 . S
C668 H660 0.929 . S
C668 C669 1.377 . S
C668 C670 1.384 . S
C669 C668 1.377 . S
C669 C675 1.390 . S
C670 H661 0.930 . S
C670 C668 1.384 . S
C670 C671 1.372 . S
C671 C670 1.372 . S
C671 C672 1.400 . S
C671 C676 1.490 . S
C672 H662 0.930 . S
C672 C671 1.400 . S
C672 C675 1.386 . S
H673 C689 0.930 . S
H674 C690 0.931 . S
C675 H663 0.929 . S
C675 C669 1.390 . S
C675 C672 1.386 . S
C676 C671 1.490 . S
C676 C678 1.395 . S
C676 C679 1.403 . S
H677 C683 0.930 . S
C678 H664 0.930 . S
C678 C676 1.395 . S
C678 C681 1.403 . S
C679 C676 1.403 . S
C679 C680 1.524 . S
C679 C683 1.400 . S
C680 H665 0.960 . S
C680 H666 0.960 . S
C680 H667 0.960 . S
C680 C679 1.524 . S
C681 C678 1.403 . S
C681 C682 1.392 . S
C681 C685 1.495 . S
C682 C681 1.392 . S
C682 C683 1.385 . S
C682 C684 1.478 . S
C683 H677 0.930 . S
C683 C679 1.400 . S
C683 C682 1.385 . S
C684 C682 1.478 . S
C684 C686 1.381 . S
C684 C690 1.383 . S
C685 C681 1.495 . S
C685 H691 0.959 . S
C685 H692 0.961 . S
C685 H693 0.960 . S
C686 C684 1.381 . S
C686 C687 1.394 . S
C686 H694 0.930 . S
C687 C686 1.394 . S
C687 C688 1.383 . S
C687 H695 0.929 . S
C688 C687 1.383 . S
C688 C689 1.377 . S
C689 H673 0.930 . S
C689 C688 1.377 . S
C689 C690 1.379 . S
C690 H674 0.931 . S
C690 C684 1.383 . S
C690 C689 1.379 . S
H691 C685 0.959 . S
H692 C685 0.961 . S
H693 C685 0.960 . S
H694 C686 0.930 . S
H695 C687 0.929 . S
H696 C704 0.929 . S
H697 C706 0.930 . S
H698 C708 0.930 . S
H699 C711 0.929 . S
H700 C714 0.930 . S
H701 C716 0.960 . S
H702 C716 0.960 . S
H703 C716 0.960 . S
C704 H696 0.929 . S
C704 C705 1.377 . S
C704 C706 1.384 . S
C705 C704 1.377 . S
C705 C711 1.390 . S
C706 H697 0.930 . S
C706 C704 1.384 . S
C706 C707 1.372 . S
C707 C706 1.372 . S
C707 C708 1.400 . S
C707 C712 1.490 . S
C708 H698 0.930 . S
C708 C707 1.400 . S
C708 C711 1.386 . S
H709 C725 0.930 . S
H710 C726 0.931 . S
C711 H699 0.929 . S
C711 C705 1.390 . S
C711 C708 1.386 . S
C712 C707 1.490 . S
C712 C714 1.395 . S
C712 C715 1.403 . S
H713 C719 0.930 . S
C714 H700 0.930 . S
C714 C712 1.395 . S
C714 C717 1.403 . S
C715 C712 1.403 . S
C715 C716 1.524 . S
C715 C719 1.400 . S
C716 H701 0.960 . S
C716 H702 0.960 . S
C716 H703 0.960 . S
C716 C715 1.524 . S
C717 C714 1.403 . S
C717 C718 1.392 . S
C717 C721 1.495 . S
C718 C717 1.392 . S
C718 C719 1.385 . S
C718 C720 1.478 . S
C719 H713 0.930 . S
C719 C715 1.400 . S
C719 C718 1.385 . S
C720 C718 1.478 . S
C720 C722 1.381 . S
C720 C726 1.383 . S
C721 C717 1.495 . S
C721 H727 0.959 . S
C721 H728 0.961 . S
C721 H729 0.960 . S
C722 C720 1.381 . S
C722 C723 1.394 . S
C722 H730 0.930 . S
C723 C722 1.394 . S
C723 C724 1.383 . S
C723 H731 0.929 . S
C724 C723 1.383 . S
C724 C725 1.377 . S
C725 H709 0.930 . S
C725 C724 1.377 . S
C725 C726 1.379 . S
C726 H710 0.931 . S
C726 C720 1.383 . S
C726 C725 1.379 . S
H727 C721 0.959 . S
H728 C721 0.961 . S
H729 C721 0.960 . S
H730 C722 0.930 . S
H731 C723 0.929 . S
H732 C740 0.929 . S
H733 C742 0.930 . S
H734 C744 0.930 . S
H735 C747 0.929 . S
H736 C750 0.930 . S
H737 C752 0.960 . S
H738 C752 0.960 . S
H739 C752 0.960 . S
C740 H732 0.929 . S
C740 C741 1.377 . S
C740 C742 1.384 . S
C741 C740 1.377 . S
C741 C747 1.390 . S
C742 H733 0.930 . S
C742 C740 1.384 . S
C742 C743 1.372 . S
C743 C742 1.372 . S
C743 C744 1.400 . S
C743 C748 1.490 . S
C744 H734 0.930 . S
C744 C743 1.400 . S
C744 C747 1.386 . S
H745 C761 0.930 1_455 S
H746 C762 0.931 . S
C747 H735 0.929 . S
C747 C741 1.390 . S
C747 C744 1.386 . S
C748 C743 1.490 . S
C748 C750 1.395 . S
C748 C751 1.403 . S
H749 C755 0.930 . S
C750 H736 0.930 . S
C750 C748 1.395 . S
C750 C753 1.403 . S
C751 C748 1.403 . S
C751 C752 1.524 . S
C751 C755 1.400 . S
C752 H737 0.960 . S
C752 H738 0.960 . S
C752 H739 0.960 . S
C752 C751 1.524 . S
C753 C750 1.403 . S
C753 C754 1.392 . S
C753 C757 1.495 . S
C754 C753 1.392 . S
C754 C755 1.385 . S
C754 C756 1.478 . S
C755 H749 0.930 . S
C755 C751 1.400 . S
C755 C754 1.385 . S
C756 C754 1.478 . S
C756 C758 1.381 . S
C756 C762 1.383 . S
C757 C753 1.495 . S
C757 H763 0.959 . S
C757 H764 0.961 . S
C757 H765 0.960 . S
C758 C756 1.381 . S
C758 C759 1.394 . S
C758 H766 0.930 . S
C759 C758 1.394 . S
C759 C760 1.383 . S
C759 H767 0.929 . S
C760 C759 1.383 . S
C760 C761 1.377 . S
C761 H745 0.930 1_655 S
C761 C760 1.377 . S
C761 C762 1.379 . S
C762 H746 0.931 . S
C762 C756 1.383 . S
C762 C761 1.379 . S
H763 C757 0.959 . S
H764 C757 0.961 . S
H765 C757 0.960 . S
H766 C758 0.930 . S
H767 C759 0.929 . S
C345 C231 0.885 . S
C364 C74 0.938 . S
C381 C326 0.757 . S
C400 C158 0.735 . S
C417 C242 1.002 . S
C436 C63 1.031 . S
C453 C147 0.775 . S
C472 C315 0.770 . S
C489 C140 2.893 . S
C508 C67 2.948 . S
C525 C151 3.291 . S
C544 C226 3.324 . S
C561 C319 2.420 1_655 S
C580 C238 2.118 1_565 S
C597 C308 2.194 . S
C616 C56 2.087 . S
C633 C224 0.752 . S
C652 C310 0.770 . S
C669 C70 0.826 . S
C688 C322 0.743 . S
C705 C154 0.497 . S
C724 C58 0.900 . S
C741 C235 0.605 . S
C760 C142 0.969 . S
