# Generated by pormake.
# Topology afw, (4)-cn, num edge types: 1
# Building blocks:
#     Node 0, Type 0, BuildingBlock: QUQFOY_clean_sbu_1, # of connection points: 4
#     Node 1, Type 0, BuildingBlock: QUQFOY_clean_sbu_1, # of connection points: 4
#     Node 2, Type 0, BuildingBlock: QUQFOY_clean_sbu_1, # of connection points: 4
#     Node 3, Type 0, BuildingBlock: QUQFOY_clean_sbu_1, # of connection points: 4
#     Node 4, Type 0, BuildingBlock: QUQFOY_clean_sbu_1, # of connection points: 4
#     Node 5, Type 0, BuildingBlock: QUQFOY_clean_sbu_1, # of connection points: 4
#     Node 6, Type 0, BuildingBlock: QUQFOY_clean_sbu_1, # of connection points: 4
#     Node 7, Type 0, BuildingBlock: QUQFOY_clean_sbu_1, # of connection points: 4
#     Node 8, Type 0, BuildingBlock: QUQFOY_clean_sbu_1, # of connection points: 4
#     Edge 9, Type (0, 0), BuildingBlock: EZIPEK_clean_linker_0, # of connection points: 2
#     Edge 10, Type (0, 0), BuildingBlock: EZIPEK_clean_linker_0, # of connection points: 2
#     Edge 11, Type (0, 0), BuildingBlock: EZIPEK_clean_linker_0, # of connection points: 2
#     Edge 12, Type (0, 0), BuildingBlock: EZIPEK_clean_linker_0, # of connection points: 2
#     Edge 13, Type (0, 0), BuildingBlock: EZIPEK_clean_linker_0, # of connection points: 2
#     Edge 14, Type (0, 0), BuildingBlock: EZIPEK_clean_linker_0, # of connection points: 2
#     Edge 15, Type (0, 0), BuildingBlock: EZIPEK_clean_linker_0, # of connection points: 2
#     Edge 16, Type (0, 0), BuildingBlock: EZIPEK_clean_linker_0, # of connection points: 2
#     Edge 17, Type (0, 0), BuildingBlock: EZIPEK_clean_linker_0, # of connection points: 2
#     Edge 18, Type (0, 0), BuildingBlock: EZIPEK_clean_linker_0, # of connection points: 2
#     Edge 19, Type (0, 0), BuildingBlock: EZIPEK_clean_linker_0, # of connection points: 2
#     Edge 20, Type (0, 0), BuildingBlock: EZIPEK_clean_linker_0, # of connection points: 2
#     Edge 21, Type (0, 0), BuildingBlock: EZIPEK_clean_linker_0, # of connection points: 2
#     Edge 22, Type (0, 0), BuildingBlock: EZIPEK_clean_linker_0, # of connection points: 2
#     Edge 23, Type (0, 0), BuildingBlock: EZIPEK_clean_linker_0, # of connection points: 2
#     Edge 24, Type (0, 0), BuildingBlock: EZIPEK_clean_linker_0, # of connection points: 2
#     Edge 25, Type (0, 0), BuildingBlock: EZIPEK_clean_linker_0, # of connection points: 2
#     Edge 26, Type (0, 0), BuildingBlock: EZIPEK_clean_linker_0, # of connection points: 2
# Relax obj value: 0.118
# Max RMSD: 0.155
# Mean RMSD: 0.155
data_MOF--net-afw--node1-QUQFOY_clean_sbu_1--edge1-EZIPEK_clean_linker_0
_symmetry_space_group_name_H-M    P1
_symmetry_Int_Tables_number       1
_symmetry_cell_setting            triclinic
loop_
_symmetry_equiv_pos_as_xyz
'x, y, z'
_cell_length_a     31.864811
_cell_length_b     31.875675
_cell_length_c     27.102928
_cell_angle_alpha  89.396809
_cell_angle_beta   90.214226
_cell_angle_gamma 119.72845
loop_
_atom_site_label
_atom_site_type_symbol
_atom_site_fract_x
_atom_site_fract_y
_atom_site_fract_z
_atom_type_partial_charge
O0 O 0.05325 0.18228 1.01272 0.0
Cd1 Cd -0.00081 0.20029 1.00831 0.0
Cd2 Cd 0.00549 0.18986 0.10337 0.0
O3 O 0.07105 0.19421 0.09184 0.0
O4 O 0.00249 0.2184 0.93731 0.0
O5 O 0.0185 0.27027 0.99789 0.0
C6 C 0.01679 0.26192 0.95121 0.0
C7 C 0.99089 0.2405 0.15141 0.0
C8 C 0.07944 0.18417 0.0491 0.0
C9 C 0.91901 0.11303 0.05278 0.0
O10 O 0.94727 0.12281 0.08934 0.0
O11 O 0.92906 0.14421 1.01859 0.0
O12 O -0.00181 0.20775 0.17148 0.0
O13 O 0.9947 0.24638 0.10401 0.0
O14 O 0.88484 0.84992 0.09877 0.0
Cd15 Cd 0.81446 0.83461 0.1092 0.0
Cd16 Cd 0.81523 0.82955 1.01213 0.0
O17 O 0.88083 0.83201 1.01981 0.0
O18 O 0.79859 0.81135 0.17876 0.0
O19 O 0.76215 0.76537 0.11395 0.0
C20 C 0.76823 0.76969 0.16117 0.0
C21 C 0.75379 0.777 0.96046 0.0
C22 C 0.90437 0.84517 0.05997 0.0
C23 C 0.80835 0.91286 0.05676 0.0
O24 O 0.8174 0.89484 1.01944 0.0
O25 O 0.80226 0.892 0.09847 0.0
O26 O 0.79335 0.81195 0.9428 0.0
O27 O 0.75014 0.76972 1.00759 0.0
O28 O 0.12921 0.95784 1.01317 0.0
Cd29 Cd 0.19962 0.01098 0.99781 0.0
Cd30 Cd 0.20083 0.01127 0.09323 0.0
O31 O 0.13904 0.94477 0.09119 0.0
O32 O 0.21159 0.00055 0.92828 0.0
O33 O 0.25342 0.99566 0.99151 0.0
C34 C 0.24477 0.99214 0.94468 0.0
C35 C 0.26567 0.02882 0.14454 0.0
C36 C 0.11232 0.9344 0.05322 0.0
C37 C 0.1942 0.09101 0.03917 0.0
O38 O 0.18715 0.06706 0.07894 0.0
O39 O 0.20889 0.07956 1.00085 0.0
O40 O 0.22535 0.02246 0.16203 0.0
O41 O 0.26883 0.02328 0.09781 0.0
O42 O 0.63935 0.46663 0.43191 0.0
Cd43 Cd 0.69367 0.53566 0.44673 0.0
Cd44 Cd 0.68447 0.54624 0.35202 0.0
O45 O 0.61784 0.48469 0.36094 0.0
O46 O 0.68695 0.54829 0.51706 0.0
O47 O 0.67553 0.58698 0.45424 0.0
C48 C 0.67434 0.5788 0.50121 0.0
C49 C 0.6956 0.60848 0.29809 0.0
C50 C 0.61062 0.45458 0.39552 0.0
C51 C 0.77339 0.54267 0.38817 0.0
O52 O 0.74404 0.53637 0.35334 0.0
O53 O 0.76246 0.5485 0.43162 0.0
O54 O 0.68542 0.56661 0.28208 0.0
O55 O 0.6964 0.61446 0.3452 0.0
O56 O 0.55039 0.15826 0.42231 0.0
Cd57 Cd 0.48555 0.15624 0.43118 0.0
Cd58 Cd 0.48656 0.16019 0.33442 0.0
O59 O 0.55347 0.16481 0.3411 0.0
O60 O 0.46534 0.12987 0.49921 0.0
O61 O 0.42432 0.09209 0.4322 0.0
C62 C 0.43029 0.0921 0.47938 0.0
C63 C 0.42749 0.11186 0.27825 0.0
C64 C 0.57335 0.16545 0.38208 0.0
C65 C 0.49726 0.24704 0.38656 0.0
O66 O 0.49069 0.22561 0.34569 0.0
O67 O 0.49373 0.22488 0.42701 0.0
O68 O 0.46776 0.14809 0.26374 0.0
O69 O 0.42181 0.10082 0.32464 0.0
O70 O 0.85078 0.40266 0.41113 0.0
Cd71 Cd 0.86624 0.34738 0.42338 0.0
Cd72 Cd 0.86807 0.35127 0.32874 0.0
O73 O 0.88297 0.42154 0.33698 0.0
O74 O 0.88607 0.35349 0.49376 0.0
O75 O 0.93561 0.36468 0.43142 0.0
C76 C 0.92882 0.36542 0.47831 0.0
C77 C 0.9116 0.3289 0.27773 0.0
C78 C 0.86428 0.4307 0.3737 0.0
C79 C 0.78154 0.27113 0.37813 0.0
O80 O 0.79671 0.29944 0.34101 0.0
O81 O 0.80926 0.27839 0.41469 0.0
O82 O 0.88249 0.34228 0.2597 0.0
O83 O 0.91794 0.33051 0.32496 0.0
O84 O 0.39961 0.85808 0.66983 0.0
Cd85 Cd 0.33873 0.86428 0.66339 0.0
Cd86 Cd 0.34493 0.86759 0.76051 0.0
O87 O 0.40758 0.86391 0.75081 0.0
O88 O 0.33996 0.88356 0.59311 0.0
O89 O 0.34724 0.93091 0.6557 0.0
C90 C 0.3484 0.9251 0.60872 0.0
C91 C 0.33421 0.91924 0.81162 0.0
C92 C 0.42101 0.85691 0.70901 0.0
C93 C 0.26246 0.77879 0.71668 0.0
O94 O 0.28383 0.80146 0.75539 0.0
O95 O 0.27603 0.79872 0.67441 0.0
O96 O 0.34194 0.88613 0.82969 0.0
O97 O 0.33677 0.92592 0.76436 0.0
O98 O 0.21642 0.50216 0.75041 0.0
Cd99 Cd 0.14459 0.48407 0.7575 0.0
Cd100 Cd 0.15569 0.49134 0.66231 0.0
O101 O 0.21672 0.48555 0.67175 0.0
O102 O 0.12848 0.46073 0.82705 0.0
O103 O 0.09242 0.41454 0.76241 0.0
C104 C 0.09801 0.41911 0.80964 0.0
C105 C 0.09144 0.44408 0.61163 0.0
C106 C 0.23805 0.4978 0.71315 0.0
C107 C 0.15263 0.57164 0.71551 0.0
O108 O 0.167 0.55931 0.67761 0.0
O109 O 0.13251 0.54177 0.75082 0.0
O110 O 0.13197 0.47701 0.59331 0.0
O111 O 0.08817 0.43616 0.65872 0.0
O112 O 0.46731 0.62448 0.68454 0.0
Cd113 Cd 0.53884 0.67778 0.67623 0.0
Cd114 Cd 0.52999 0.67612 0.7714 0.0
O115 O 0.46863 0.6097 0.76393 0.0
O116 O 0.55732 0.66809 0.60893 0.0
O117 O 0.5916 0.6607 0.67744 0.0
C118 C 0.5875 0.65784 0.62999 0.0
C119 C 0.5917 0.69311 0.8269 0.0
C120 C 0.44648 0.59964 0.72291 0.0
C121 C 0.5307 0.75792 0.71445 0.0
O122 O 0.51848 0.73269 0.75379 0.0
O123 O 0.54929 0.74704 0.67889 0.0
O124 O 0.55013 0.68575 0.84171 0.0
O125 O 0.59759 0.68825 0.78058 0.0
C126 C 0.12116 0.09546 1.01642 0.0
C127 C 0.16944 0.11959 1.03404 0.0
C128 C 0.16125 0.1898 0.05563 0.0
C129 C 0.11141 0.16312 0.0435 0.0
N130 N 0.04158 0.08621 1.02363 0.0
N131 N 0.23494 0.18765 0.07416 0.0
C132 C 0.09075 0.1149 1.02654 0.0
C133 C 0.18946 0.16632 0.05466 0.0
N134 N 0.10379 0.0533 0.99084 0.0
N135 N 0.18166 0.23763 0.06693 0.0
H136 H 0.257 0.1721 0.07191 0.0
H137 H 0.24976 0.21926 0.09463 0.0
H138 H 0.16185 0.25563 0.06784 0.0
H139 H 0.21866 0.26025 0.07165 0.0
H140 H 0.07079 0.03735 0.97239 0.0
H141 H 0.12383 0.0363 0.98394 0.0
H142 H 0.02448 0.04941 1.01621 0.0
H143 H 0.01722 0.09742 1.03392 0.0
C144 C 0.83021 0.98702 1.00639 0.0
C145 C 0.81498 0.96285 0.05236 0.0
C146 C 0.84766 0.04174 0.09203 0.0
C147 C 0.87639 0.06363 0.04924 0.0
N148 N 0.89529 0.05446 0.96438 0.0
N149 N 0.7932 0.96749 0.13624 0.0
C150 C 0.86696 0.03605 1.00547 0.0
C151 C 0.81831 0.99036 0.09452 0.0
N152 N 0.80961 0.96302 0.96385 0.0
N153 N 0.84796 0.0703 0.12944 0.0
H154 H 0.76538 0.93162 0.13595 0.0
H155 H 0.79879 0.98407 0.17037 0.0
H156 H 0.86751 0.10794 0.12719 0.0
H157 H 0.82604 0.05737 0.16058 0.0
H158 H 0.81735 0.98008 0.92937 0.0
H159 H 0.78031 0.92784 0.96437 0.0
H160 H 0.89199 0.03322 0.93401 0.0
H161 H 0.92494 0.08908 0.96184 0.0
C162 C 0.98687 0.91568 0.07036 0.0
C163 C 0.95753 0.86598 0.05924 0.0
C164 C 0.03032 0.85991 0.04398 0.0
C165 C 0.05919 0.90836 0.05955 0.0
N166 N 0.06476 0.97977 0.09639 0.0
N167 N 0.95023 0.78881 0.04118 0.0
C168 C 0.03732 0.93525 0.07581 0.0
C169 C 0.97893 0.83743 0.04753 0.0
N170 N 0.96695 0.94508 0.07267 0.0
N171 N 0.05205 0.83587 1.0251 0.0
H172 H 0.91261 0.77155 0.04347 0.0
H173 H 0.96362 0.76515 1.03723 0.0
H174 H 0.08954 0.85094 1.02388 0.0
H175 H 0.03321 0.80234 1.00823 0.0
H176 H 0.98729 0.98247 0.07581 0.0
H177 H 0.93047 0.93314 0.06624 0.0
H178 H 0.05007 -0.00153 0.11393 0.0
H179 H 0.10211 0.99639 0.10013 0.0
C180 C 0.86578 0.50246 0.41334 0.0
C181 C 0.8541 0.47148 0.37201 0.0
C182 C 0.81723 0.51454 0.33276 0.0
C183 C 0.8145 0.5331 0.37907 0.0
N184 N 0.85087 0.55909 0.45912 0.0
N185 N 0.81442 0.44653 0.2923 0.0
C186 C 0.84366 0.53177 0.41819 0.0
C187 C 0.82957 0.47768 0.33111 0.0
N188 N 0.89901 0.5047 0.44679 0.0
N189 N 0.80903 0.53276 0.29039 0.0
H190 H 0.81928 0.41666 0.29009 0.0
H191 H 0.79233 0.44769 0.26445 0.0
H192 H 0.80471 0.56312 0.29062 0.0
H193 H 0.81363 0.52231 0.2554 0.0
H194 H 0.91155 0.52831 0.47639 0.0
H195 H 0.91748 0.48564 0.44214 0.0
H196 H 0.86585 0.55505 0.49178 0.0
H197 H 0.84277 0.58702 0.45961 0.0
C198 C 0.5673 0.326 0.35967 0.0
C199 C 0.52269 0.30064 0.38579 0.0
C200 C 0.53407 0.37766 0.41706 0.0
C201 C 0.5766 0.40263 0.38801 0.0
N202 N 0.62861 0.40124 0.32402 0.0
N203 N 0.45988 0.30215 0.43347 0.0
C204 C 0.59113 0.37699 0.35645 0.0
C205 C 0.50491 0.32646 0.41285 0.0
N206 N 0.58938 0.30192 0.34131 0.0
N207 N 0.52218 0.40284 0.44922 0.0
H208 H 0.43784 0.26479 0.43068 0.0
H209 H 0.44288 0.31917 0.44985 0.0
H210 H 0.5416 0.44046 0.45133 0.0
H211 H 0.49479 0.38649 0.47543 0.0
H212 H 0.62467 0.31937 0.32785 0.0
H213 H 0.57534 0.26477 0.34433 0.0
H214 H 0.63637 0.38409 0.29589 0.0
H215 H 0.64965 0.43873 0.3222 0.0
C216 C 0.65262 0.23314 0.41016 0.0
C217 C 0.62674 0.18876 0.38441 0.0
C218 C 0.70343 0.19687 0.35553 0.0
C219 C 0.72885 0.23929 0.38412 0.0
N220 N 0.72781 0.29317 0.44584 0.0
N221 N 0.62673 0.12466 0.3383 0.0
C222 C 0.70346 0.2555 0.41413 0.0
C223 C 0.65196 0.16947 0.35868 0.0
N224 N 0.6293 0.25641 0.42744 0.0
N225 N 0.7285 0.1834 0.32485 0.0
H226 H 0.58913 0.10395 0.34027 0.0
H227 H 0.64298 0.10647 0.32289 0.0
H228 H 0.7662 0.20147 0.3236 0.0
H229 H 0.71215 0.15605 0.29896 0.0
H230 H 0.6473 0.29175 0.44028 0.0
H231 H 0.59229 0.24319 0.42431 0.0
H232 H 0.71061 0.30172 0.47334 0.0
H233 H 0.7653 0.31387 0.44763 0.0
C234 C 0.43432 0.78895 0.68466 0.0
C235 C 0.45283 0.83524 0.70649 0.0
C236 C 0.52646 0.83351 0.73034 0.0
C237 C 0.50907 0.78902 0.70539 0.0
N238 N 0.4509 0.72944 0.64974 0.0
N239 N 0.51936 0.90517 0.74323 0.0
C240 C 0.46481 0.76882 0.67914 0.0
C241 C 0.49986 0.85868 0.72734 0.0
N242 N 0.38634 0.76202 0.67282 0.0
N243 N 0.56777 0.85104 0.75768 0.0
H244 H 0.50078 0.92441 0.74116 0.0
H245 H 0.55508 0.92588 0.75467 0.0
H246 H 0.58903 0.83453 0.75852 0.0
H247 H 0.57961 0.88033 0.78127 0.0
H248 H 0.36991 0.72572 0.66322 0.0
H249 H 0.36128 0.77353 0.67765 0.0
H250 H 0.422 0.71726 0.62523 0.0
H251 H 0.47016 0.71114 0.64632 0.0
C252 C 0.18389 0.70269 0.6978 0.0
C253 C 0.23002 0.72573 0.72068 0.0
C254 C 0.21569 0.64757 0.75282 0.0
C255 C 0.1731 0.62391 0.724 0.0
N256 N 0.11731 0.62779 0.66666 0.0
N257 N 0.29441 0.71772 0.75995 0.0
C258 C 0.15723 0.65118 0.69588 0.0
C259 C 0.247 0.69768 0.74601 0.0
N260 N 0.16529 0.72993 0.67894 0.0
N261 N 0.22739 0.62219 0.78578 0.0
H262 H 0.32036 0.75367 0.7538 0.0
H263 H 0.3097 0.69732 0.77263 0.0
H264 H 0.20738 0.58492 0.79071 0.0
H265 H 0.25499 0.63891 0.81162 0.0
H266 H 0.13013 0.71527 0.6657 0.0
H267 H 0.1838 0.76758 0.68041 0.0
H268 H 0.10686 0.64537 0.64098 0.0
H269 H 0.09587 0.59021 0.66658 0.0
C270 C 0.31738 0.57326 0.71638 0.0
C271 C 0.29144 0.52205 0.71459 0.0
C272 C 0.36784 0.52064 0.7167 0.0
C273 C 0.39307 0.57148 0.72278 0.0
N274 N 0.39144 0.64525 0.73799 0.0
N275 N 0.29026 0.44602 0.71743 0.0
C276 C 0.36765 0.59746 0.7255 0.0
C277 C 0.31618 0.49533 0.71589 0.0
N278 N 0.29425 0.59905 0.70734 0.0
N279 N 0.39331 0.49696 0.71074 0.0
H280 H 0.25257 0.42685 0.71587 0.0
H281 H 0.30567 0.42422 0.72316 0.0
H282 H 0.43097 0.51459 0.7125 0.0
H283 H 0.37756 0.46069 0.70132 0.0
H284 H 0.31223 0.63641 0.70248 0.0
H285 H 0.25742 0.58294 0.69985 0.0
H286 H 0.37392 0.6646 0.74604 0.0
H287 H 0.42844 0.66469 0.74482 0.0
C288 C 0.0148 0.33135 0.90822 0.0
C289 C 0.03622 0.30183 0.91445 0.0
C290 C 0.09251 0.34459 0.8465 0.0
C291 C 0.07404 0.37685 0.84318 0.0
N292 N 0.02121 0.40481 0.87326 0.0
N293 N 0.1015 0.28631 0.89665 0.0
C294 C 0.03622 0.3714 0.87483 0.0
C295 C 0.07651 0.30981 0.88528 0.0
N296 N 0.97307 0.32002 0.93284 0.0
N297 N 0.12566 0.34735 0.81278 0.0
H298 H 0.09223 0.26174 0.92587 0.0
H299 H 0.1343 0.29459 0.88037 0.0
H300 H 0.14034 0.37384 0.78523 0.0
H301 H 0.13596 0.32117 0.8097 0.0
H302 H 0.95284 0.33699 0.92619 0.0
H303 H 0.95646 0.2909 0.95743 0.0
H304 H 0.99784 0.40621 0.89907 0.0
H305 H 0.03436 0.43308 0.84751 0.0
C306 C 0.68461 0.77736 0.91853 0.0
C307 C 0.71083 0.75301 0.92843 0.0
C308 C 0.65672 0.68687 0.87418 0.0
C309 C 0.6332 0.71334 0.86121 0.0
N310 N 0.63089 0.78793 0.86303 0.0
N311 N 0.72605 0.68755 0.91297 0.0
C312 C 0.6487 0.75968 0.88132 0.0
C313 C 0.69806 0.70849 0.90552 0.0
N314 N 0.6935 0.81708 0.94534 0.0
N315 N 0.63861 0.64068 0.85778 0.0
H316 H 0.75556 0.70189 0.9369 0.0
H317 H 0.72194 0.65782 0.89342 0.0
H318 H 0.60865 0.62409 0.83458 0.0
H319 H 0.65099 0.61761 0.86975 0.0
H320 H 0.67186 0.83307 0.94367 0.0
H321 H 0.71998 0.83171 0.97261 0.0
H322 H 0.64483 0.82407 0.87225 0.0
H323 H 0.60528 0.77696 0.83488 0.0
C324 C 0.34207 0.98133 0.87317 0.0
C325 C 0.31263 0.94098 0.84333 0.0
C326 C 0.23992 0.93166 0.88389 0.0
C327 C 0.26886 0.97451 0.91076 0.0
N328 N 0.34666 0.04427 0.92647 0.0
N329 N 0.23344 0.88208 0.81414 0.0
C330 C 0.31983 0.0005 0.90434 0.0
C331 C 0.26152 0.91767 0.84666 0.0
N332 N 0.39113 0.00081 0.87215 0.0
N333 N 0.19224 0.90268 0.89594 0.0
H334 H 0.24758 0.86933 0.78728 0.0
H335 H 0.19624 0.86787 0.81105 0.0
H336 H 0.1752 0.91053 0.92425 0.0
H337 H 0.17068 0.86838 0.88142 0.0
H338 H 0.41441 0.02679 0.89687 0.0
H339 H 0.4084 0.98871 0.84827 0.0
H340 H 0.38321 0.06728 0.91932 0.0
H341 H 0.33153 0.05945 0.94925 0.0
C342 C 0.36744 0.04093 0.22843 0.0
C343 C 0.38631 0.08943 0.24372 0.0
C344 C 0.33075 0.09909 0.18831 0.0
C345 C 0.30895 0.04951 0.17627 0.0
N346 N 0.30256 0.97151 0.18716 0.0
N347 N 0.38034 0.16206 0.24567 0.0
C348 C 0.32626 0.01987 0.19684 0.0
C349 C 0.36654 0.11787 0.22558 0.0
N350 N 0.38969 0.01565 0.24306 0.0
N351 N 0.31799 0.12856 0.16321 0.0
H352 H 0.40596 0.17709 0.27369 0.0
H353 H 0.36319 0.18196 0.23795 0.0
H354 H 0.29166 0.11616 0.1357 0.0
H355 H 0.33645 0.16602 0.16641 0.0
H356 H 0.38091 0.98188 0.22939 0.0
H357 H 0.41946 0.03 0.26664 0.0
H358 H 0.31 0.94684 0.20496 0.0
H359 H 0.27318 0.95546 0.16315 0.0
C360 C 0.92145 0.24825 0.18189 0.0
C361 C 0.97197 0.26582 0.18157 0.0
C362 C 0.98388 0.32785 0.24163 0.0
C363 C 0.93298 0.3074 0.24515 0.0
N364 N 0.85303 0.24181 0.22681 0.0
N365 N 0.05128 0.31843 0.21432 0.0
C366 C 0.90163 0.26601 0.2173 0.0
C367 C 0.00324 0.30447 0.21249 0.0
N368 N 0.89225 0.21445 0.14836 0.0
N369 N 0.01361 0.37052 0.26454 0.0
H370 H 0.06687 0.30348 0.19182 0.0
H371 H 0.07508 0.34261 0.24007 0.0
H372 H 0.00062 0.38872 0.28583 0.0
H373 H 0.05088 0.38989 0.25937 0.0
H374 H 0.85611 0.20451 0.1431 0.0
H375 H 0.90488 0.19902 0.12287 0.0
H376 H 0.82912 0.20843 0.21164 0.0
H377 H 0.83697 0.25237 0.25375 0.0
C378 C 0.75458 0.66195 0.23418 0.0
C379 C 0.71303 0.64993 0.2632 0.0
C380 C 0.7078 0.71776 0.22601 0.0
C381 C 0.74665 0.72676 0.19406 0.0
N382 N 0.8026 0.70327 0.1622 0.0
N383 N 0.64616 0.66196 0.28306 0.0
C384 C 0.7684 0.69731 0.19623 0.0
C385 C 0.68856 0.67674 0.25828 0.0
N386 N 0.78278 0.6418 0.24501 0.0
N387 N 0.68975 0.74872 0.2258 0.0
H388 H 0.63125 0.63215 0.30691 0.0
H389 H 0.62392 0.67687 0.27732 0.0
H390 H 0.70159 0.77773 0.20108 0.0
H391 H 0.66518 0.74744 0.25182 0.0
H392 H 0.81627 0.65293 0.22872 0.0
H393 H 0.77537 0.6175 0.27412 0.0
H394 H 0.81529 0.67901 0.15831 0.0
H395 H 0.81575 0.73032 0.13515 0.0
C396 C 0.01591 0.4395 0.57995 0.0
C397 C 0.04813 0.42091 0.57998 0.0
C398 C -0.00071 0.36216 0.51679 0.0
C399 C 0.9698 0.38392 0.51341 0.0
N400 N 0.95588 0.4495 0.53476 0.0
N401 N 0.07446 0.36843 0.54565 0.0
C402 C 0.97942 0.42406 0.54336 0.0
C403 C 0.04103 0.38337 0.54749 0.0
N404 N 0.02028 0.47223 0.61476 0.0
N405 N 0.9863 0.32021 0.49228 0.0
H406 H 0.10421 0.38171 0.56922 0.0
H407 H 0.07441 0.34519 0.51891 0.0
H408 H 0.9556 0.30333 0.47011 0.0
H409 H 0.00347 0.29992 0.49708 0.0
H410 H 0.99433 0.48251 0.6203 0.0
H411 H 0.04794 0.48647 0.64084 0.0
H412 H 0.96535 0.4823 0.55142 0.0
H413 H 0.9299 0.4406 0.50735 0.0
C414 C 0.61204 0.56844 0.56343 0.0
C415 C 0.65407 0.59987 0.53581 0.0
C416 C 0.65285 0.67018 0.57024 0.0
C417 C 0.61303 0.63869 0.6004 0.0
N418 N 0.55929 0.5585 0.63204 0.0
N419 N 0.71913 0.68025 0.5181 0.0
C420 C 0.59432 0.58803 0.5992 0.0
C421 C 0.67578 0.65072 0.54055 0.0
N422 N 0.58709 0.52012 0.55322 0.0
N423 N 0.66826 0.71857 0.56953 0.0
H424 H 0.73702 0.66713 0.49645 0.0
H425 H 0.73932 0.71729 0.52404 0.0
H426 H 0.65381 0.73424 0.59259 0.0
H427 H 0.69331 0.74276 0.54425 0.0
H428 H 0.55329 0.49636 0.56811 0.0
H429 H 0.5976 0.50423 0.5261 0.0
H430 H 0.54838 0.52203 0.63679 0.0
H431 H 0.54366 0.57104 0.65743 0.0
C432 C 0.34364 0.99491 0.56944 0.0
C433 C 0.36687 0.96686 0.57408 0.0
C434 C 0.42477 0.01577 0.50959 0.0
C435 C 0.4049 0.04689 0.50864 0.0
N436 N 0.34859 0.06965 0.5401 0.0
N437 N 0.43632 0.95768 0.5568 0.0
C438 C 0.36514 0.03749 0.53928 0.0
C439 C 0.40907 0.97894 0.54612 0.0
N440 N 0.30043 0.98005 0.59259 0.0
N441 N 0.45899 0.02154 0.47568 0.0
H442 H 0.42792 0.93226 0.58502 0.0
H443 H 0.4702 0.96901 0.54135 0.0
H444 H 0.47286 0.04908 0.44915 0.0
H445 H 0.47056 0.99646 0.47105 0.0
H446 H 0.27931 0.99623 0.58699 0.0
H447 H 0.28375 0.94897 0.61462 0.0
H448 H 0.32326 0.06784 0.56544 0.0
H449 H 0.36241 0.09999 0.51695 0.0
loop_
_geom_bond_atom_site_label_1
_geom_bond_atom_site_label_2
_geom_bond_distance
_geom_bond_site_symmetry_2
_ccdc_geom_bond_type
O0 Cd1 2.221 1_455 S
O0 C8 1.315 . S
Cd1 O0 2.221 1_655 S
Cd1 O4 2.297 1_655 S
Cd1 O5 2.439 1_655 S
Cd1 O11 2.241 1_556 S
Cd2 O3 2.240 . S
Cd2 O10 2.223 1_455 S
Cd2 O12 2.297 1_455 S
Cd2 O13 2.439 1_455 S
O3 Cd2 2.240 . S
O3 C8 1.279 1_554 S
O4 Cd1 2.297 1_455 S
O4 C6 1.247 . S
O5 Cd1 2.439 1_455 S
O5 C6 1.208 . S
C6 O4 1.247 . S
C6 O5 1.208 . S
C7 O12 1.247 . S
C7 O13 1.208 . S
C8 O0 1.315 . S
C8 O3 1.279 1_556 S
C9 O10 1.315 . S
C9 O11 1.279 . S
O10 Cd2 2.223 1_655 S
O10 C9 1.315 . S
O11 Cd1 2.241 1_554 S
O11 C9 1.279 . S
O12 Cd2 2.297 1_655 S
O12 C7 1.247 . S
O13 Cd2 2.439 1_655 S
O13 C7 1.208 . S
O14 Cd15 2.223 . S
O14 C22 1.315 . S
Cd15 O14 2.223 . S
Cd15 O18 2.297 . S
Cd15 O19 2.439 . S
Cd15 O25 2.240 . S
Cd16 O17 2.240 1_556 S
Cd16 O24 2.223 . S
Cd16 O26 2.297 . S
Cd16 O27 2.439 . S
O17 Cd16 2.240 1_554 S
O17 C22 1.279 . S
O18 Cd15 2.297 . S
O18 C20 1.247 . S
O19 Cd15 2.439 . S
O19 C20 1.208 . S
C20 O18 1.247 . S
C20 O19 1.208 . S
C21 O26 1.247 . S
C21 O27 1.208 . S
C22 O14 1.315 . S
C22 O17 1.279 . S
C23 O24 1.315 . S
C23 O25 1.279 1_556 S
O24 Cd16 2.223 . S
O24 C23 1.315 . S
O25 Cd15 2.240 . S
O25 C23 1.279 1_554 S
O26 Cd16 2.297 . S
O26 C21 1.247 . S
O27 Cd16 2.439 . S
O27 C21 1.208 . S
O28 Cd29 2.223 1_565 S
O28 C36 1.315 . S
Cd29 O28 2.223 1_545 S
Cd29 O32 2.297 1_545 S
Cd29 O33 2.439 1_545 S
Cd29 O39 2.240 1_556 S
Cd30 O31 2.240 1_545 S
Cd30 O38 2.223 . S
Cd30 O40 2.297 . S
Cd30 O41 2.439 . S
O31 Cd30 2.240 1_565 S
O31 C36 1.279 1_554 S
O32 Cd29 2.297 1_565 S
O32 C34 1.247 . S
O33 Cd29 2.439 1_565 S
O33 C34 1.208 . S
C34 O32 1.247 . S
C34 O33 1.208 . S
C35 O40 1.247 . S
C35 O41 1.208 . S
C36 O28 1.315 . S
C36 O31 1.279 1_556 S
C37 O38 1.315 . S
C37 O39 1.279 . S
O38 Cd30 2.223 . S
O38 C37 1.315 . S
O39 Cd29 2.240 1_554 S
O39 C37 1.279 . S
O40 Cd30 2.297 . S
O40 C35 1.247 . S
O41 Cd30 2.439 . S
O41 C35 1.208 . S
O42 Cd43 2.223 . S
O42 C50 1.315 . S
Cd43 O42 2.223 . S
Cd43 O46 2.297 . S
Cd43 O47 2.439 . S
Cd43 O53 2.240 . S
Cd44 O45 2.240 . S
Cd44 O52 2.223 . S
Cd44 O54 2.297 . S
Cd44 O55 2.439 . S
O45 Cd44 2.240 . S
O45 C50 1.279 . S
O46 Cd43 2.297 . S
O46 C48 1.247 . S
O47 Cd43 2.439 . S
O47 C48 1.208 . S
C48 O46 1.247 . S
C48 O47 1.208 . S
C49 O54 1.247 . S
C49 O55 1.208 . S
C50 O42 1.315 . S
C50 O45 1.279 . S
C51 O52 1.315 . S
C51 O53 1.279 . S
O52 Cd44 2.223 . S
O52 C51 1.315 . S
O53 Cd43 2.240 . S
O53 C51 1.279 . S
O54 Cd44 2.297 . S
O54 C49 1.247 . S
O55 Cd44 2.439 . S
O55 C49 1.208 . S
O56 Cd57 2.223 . S
O56 C64 1.315 . S
Cd57 O56 2.223 . S
Cd57 O60 2.297 . S
Cd57 O61 2.439 . S
Cd57 O67 2.240 . S
Cd58 O59 2.240 . S
Cd58 O66 2.223 . S
Cd58 O68 2.297 . S
Cd58 O69 2.439 . S
O59 Cd58 2.240 . S
O59 C64 1.279 . S
O60 Cd57 2.297 . S
O60 C62 1.247 . S
O61 Cd57 2.439 . S
O61 C62 1.208 . S
C62 O60 1.247 . S
C62 O61 1.208 . S
C63 O68 1.247 . S
C63 O69 1.208 . S
C64 O56 1.315 . S
C64 O59 1.279 . S
C65 O66 1.315 . S
C65 O67 1.279 . S
O66 Cd58 2.223 . S
O66 C65 1.315 . S
O67 Cd57 2.240 . S
O67 C65 1.279 . S
O68 Cd58 2.297 . S
O68 C63 1.247 . S
O69 Cd58 2.439 . S
O69 C63 1.208 . S
O70 Cd71 2.223 . S
O70 C78 1.315 . S
Cd71 O70 2.223 . S
Cd71 O74 2.297 . S
Cd71 O75 2.439 . S
Cd71 O81 2.240 . S
Cd72 O73 2.240 . S
Cd72 O80 2.223 . S
Cd72 O82 2.297 . S
Cd72 O83 2.439 . S
O73 Cd72 2.240 . S
O73 C78 1.279 . S
O74 Cd71 2.297 . S
O74 C76 1.247 . S
O75 Cd71 2.439 . S
O75 C76 1.208 . S
C76 O74 1.247 . S
C76 O75 1.208 . S
C77 O82 1.247 . S
C77 O83 1.208 . S
C78 O70 1.315 . S
C78 O73 1.279 . S
C79 O80 1.315 . S
C79 O81 1.279 . S
O80 Cd72 2.223 . S
O80 C79 1.315 . S
O81 Cd71 2.240 . S
O81 C79 1.279 . S
O82 Cd72 2.297 . S
O82 C77 1.247 . S
O83 Cd72 2.439 . S
O83 C77 1.208 . S
O84 Cd85 2.223 . S
O84 C92 1.315 . S
Cd85 O84 2.223 . S
Cd85 O88 2.297 . S
Cd85 O89 2.439 . S
Cd85 O95 2.240 . S
Cd86 O87 2.240 . S
Cd86 O94 2.223 . S
Cd86 O96 2.297 . S
Cd86 O97 2.439 . S
O87 Cd86 2.240 . S
O87 C92 1.279 . S
O88 Cd85 2.297 . S
O88 C90 1.247 . S
O89 Cd85 2.439 . S
O89 C90 1.208 . S
C90 O88 1.247 . S
C90 O89 1.208 . S
C91 O96 1.247 . S
C91 O97 1.208 . S
C92 O84 1.315 . S
C92 O87 1.279 . S
C93 O94 1.315 . S
C93 O95 1.279 . S
O94 Cd86 2.223 . S
O94 C93 1.315 . S
O95 Cd85 2.240 . S
O95 C93 1.279 . S
O96 Cd86 2.297 . S
O96 C91 1.247 . S
O97 Cd86 2.439 . S
O97 C91 1.208 . S
O98 Cd99 2.223 . S
O98 C106 1.315 . S
Cd99 O98 2.223 . S
Cd99 O102 2.297 . S
Cd99 O103 2.439 . S
Cd99 O109 2.240 . S
Cd100 O101 2.240 . S
Cd100 O108 2.223 . S
Cd100 O110 2.297 . S
Cd100 O111 2.439 . S
O101 Cd100 2.240 . S
O101 C106 1.279 . S
O102 Cd99 2.297 . S
O102 C104 1.247 . S
O103 Cd99 2.439 . S
O103 C104 1.208 . S
C104 O102 1.247 . S
C104 O103 1.208 . S
C105 O110 1.247 . S
C105 O111 1.208 . S
C106 O98 1.315 . S
C106 O101 1.279 . S
C107 O108 1.315 . S
C107 O109 1.279 . S
O108 Cd100 2.223 . S
O108 C107 1.315 . S
O109 Cd99 2.240 . S
O109 C107 1.279 . S
O110 Cd100 2.297 . S
O110 C105 1.247 . S
O111 Cd100 2.439 . S
O111 C105 1.208 . S
O112 Cd113 2.223 . S
O112 C120 1.315 . S
Cd113 O112 2.223 . S
Cd113 O116 2.297 . S
Cd113 O117 2.439 . S
Cd113 O123 2.240 . S
Cd114 O115 2.240 . S
Cd114 O122 2.223 . S
Cd114 O124 2.297 . S
Cd114 O125 2.439 . S
O115 Cd114 2.240 . S
O115 C120 1.279 . S
O116 Cd113 2.297 . S
O116 C118 1.247 . S
O117 Cd113 2.439 . S
O117 C118 1.208 . S
C118 O116 1.247 . S
C118 O117 1.208 . S
C119 O124 1.247 . S
C119 O125 1.208 . S
C120 O112 1.315 . S
C120 O115 1.279 . S
C121 O122 1.315 . S
C121 O123 1.279 . S
O122 Cd114 2.223 . S
O122 C121 1.315 . S
O123 Cd113 2.240 . S
O123 C121 1.279 . S
O124 Cd114 2.297 . S
O124 C119 1.247 . S
O125 Cd114 2.439 . S
O125 C119 1.208 . S
C126 C127 1.363 . S
C126 C132 1.379 . S
C126 N134 1.356 . S
C127 C126 1.363 . S
C127 C133 1.363 . S
C128 C129 1.363 1_556 S
C128 C133 1.379 1_556 S
C128 N135 1.356 . S
C129 C128 1.363 1_554 S
C129 C132 1.363 . S
N130 C132 1.356 . S
N130 H142 0.984 . S
N130 H143 0.985 . S
N131 C133 1.356 1_556 S
N131 H136 0.984 1_556 S
N131 H137 0.985 . S
C132 C126 1.379 . S
C132 C129 1.363 . S
C132 N130 1.356 . S
C133 C127 1.363 . S
C133 C128 1.379 1_554 S
C133 N131 1.356 1_554 S
N134 C126 1.356 . S
N134 H140 0.984 . S
N134 H141 0.984 . S
N135 C128 1.356 . S
N135 H138 0.984 . S
N135 H139 0.985 . S
H136 N131 0.984 1_554 S
H137 N131 0.985 . S
H138 N135 0.984 . S
H139 N135 0.985 . S
H140 N134 0.984 . S
H141 N134 0.984 . S
H142 N130 0.984 . S
H143 N130 0.985 . S
C144 C145 1.363 1_556 S
C144 C150 1.379 1_565 S
C144 N152 1.356 . S
C145 C144 1.363 1_554 S
C145 C151 1.363 . S
C146 C147 1.363 . S
C146 C151 1.379 1_545 S
C146 N153 1.356 . S
C147 C146 1.363 . S
C147 C150 1.363 1_554 S
N148 C150 1.356 . S
N148 H160 0.984 . S
N148 H161 0.985 . S
N149 C151 1.356 . S
N149 H154 0.984 . S
N149 H155 0.985 . S
C150 C144 1.379 1_545 S
C150 C147 1.363 1_556 S
C150 N148 1.356 . S
C151 C145 1.363 . S
C151 C146 1.379 1_565 S
C151 N149 1.356 . S
N152 C144 1.356 . S
N152 H158 0.984 . S
N152 H159 0.984 . S
N153 C146 1.356 . S
N153 H156 0.984 . S
N153 H157 0.985 . S
H154 N149 0.984 . S
H155 N149 0.985 . S
H156 N153 0.984 . S
H157 N153 0.985 . S
H158 N152 0.984 . S
H159 N152 0.984 . S
H160 N148 0.984 . S
H161 N148 0.985 . S
C162 C163 1.363 . S
C162 C168 1.379 1_655 S
C162 N170 1.356 . S
C163 C162 1.363 . S
C163 C169 1.363 1_554 S
C164 C165 1.363 1_556 S
C164 C169 1.379 1_455 S
C164 N171 1.356 . S
C165 C164 1.363 1_554 S
C165 C168 1.363 . S
N166 C168 1.356 . S
N166 H178 0.984 1_565 S
N166 H179 0.985 . S
N167 C169 1.356 . S
N167 H172 0.984 . S
N167 H173 0.985 . S
C168 C162 1.379 1_455 S
C168 C165 1.363 . S
C168 N166 1.356 . S
C169 C163 1.363 1_556 S
C169 C164 1.379 1_655 S
C169 N167 1.356 . S
N170 C162 1.356 . S
N170 H176 0.984 . S
N170 H177 0.984 . S
N171 C164 1.356 . S
N171 H174 0.984 . S
N171 H175 0.985 . S
H172 N167 0.984 . S
H173 N167 0.985 . S
H174 N171 0.984 . S
H175 N171 0.985 . S
H176 N170 0.984 . S
H177 N170 0.984 . S
H178 N166 0.984 1_545 S
H179 N166 0.985 . S
C180 C181 1.363 . S
C180 C186 1.379 . S
C180 N188 1.356 . S
C181 C180 1.363 . S
C181 C187 1.363 . S
C182 C183 1.363 . S
C182 C187 1.379 . S
C182 N189 1.356 . S
C183 C182 1.363 . S
C183 C186 1.363 . S
N184 C186 1.356 . S
N184 H196 0.984 . S
N184 H197 0.985 . S
N185 C187 1.356 . S
N185 H190 0.984 . S
N185 H191 0.985 . S
C186 C180 1.379 . S
C186 C183 1.363 . S
C186 N184 1.356 . S
C187 C181 1.363 . S
C187 C182 1.379 . S
C187 N185 1.356 . S
N188 C180 1.356 . S
N188 H194 0.984 . S
N188 H195 0.984 . S
N189 C182 1.356 . S
N189 H192 0.984 . S
N189 H193 0.985 . S
H190 N185 0.984 . S
H191 N185 0.985 . S
H192 N189 0.984 . S
H193 N189 0.985 . S
H194 N188 0.984 . S
H195 N188 0.984 . S
H196 N184 0.984 . S
H197 N184 0.985 . S
C198 C199 1.363 . S
C198 C204 1.379 . S
C198 N206 1.356 . S
C199 C198 1.363 . S
C199 C205 1.363 . S
C200 C201 1.363 . S
C200 C205 1.379 . S
C200 N207 1.356 . S
C201 C200 1.363 . S
C201 C204 1.363 . S
N202 C204 1.356 . S
N202 H214 0.984 . S
N202 H215 0.985 . S
N203 C205 1.356 . S
N203 H208 0.984 . S
N203 H209 0.985 . S
C204 C198 1.379 . S
C204 C201 1.363 . S
C204 N202 1.356 . S
C205 C199 1.363 . S
C205 C200 1.379 . S
C205 N203 1.356 . S
N206 C198 1.356 . S
N206 H212 0.984 . S
N206 H213 0.984 . S
N207 C200 1.356 . S
N207 H210 0.984 . S
N207 H211 0.985 . S
H208 N203 0.984 . S
H209 N203 0.985 . S
H210 N207 0.984 . S
H211 N207 0.985 . S
H212 N206 0.984 . S
H213 N206 0.984 . S
H214 N202 0.984 . S
H215 N202 0.985 . S
C216 C217 1.363 . S
C216 C222 1.379 . S
C216 N224 1.356 . S
C217 C216 1.363 . S
C217 C223 1.363 . S
C218 C219 1.363 . S
C218 C223 1.379 . S
C218 N225 1.356 . S
C219 C218 1.363 . S
C219 C222 1.363 . S
N220 C222 1.356 . S
N220 H232 0.984 . S
N220 H233 0.985 . S
N221 C223 1.356 . S
N221 H226 0.984 . S
N221 H227 0.985 . S
C222 C216 1.379 . S
C222 C219 1.363 . S
C222 N220 1.356 . S
C223 C217 1.363 . S
C223 C218 1.379 . S
C223 N221 1.356 . S
N224 C216 1.356 . S
N224 H230 0.984 . S
N224 H231 0.984 . S
N225 C218 1.356 . S
N225 H228 0.984 . S
N225 H229 0.985 . S
H226 N221 0.984 . S
H227 N221 0.985 . S
H228 N225 0.984 . S
H229 N225 0.985 . S
H230 N224 0.984 . S
H231 N224 0.984 . S
H232 N220 0.984 . S
H233 N220 0.985 . S
C234 C235 1.363 . S
C234 C240 1.379 . S
C234 N242 1.356 . S
C235 C234 1.363 . S
C235 C241 1.363 . S
C236 C237 1.363 . S
C236 C241 1.379 . S
C236 N243 1.356 . S
C237 C236 1.363 . S
C237 C240 1.363 . S
N238 C240 1.356 . S
N238 H250 0.984 . S
N238 H251 0.985 . S
N239 C241 1.356 . S
N239 H244 0.984 . S
N239 H245 0.985 . S
C240 C234 1.379 . S
C240 C237 1.363 . S
C240 N238 1.356 . S
C241 C235 1.363 . S
C241 C236 1.379 . S
C241 N239 1.356 . S
N242 C234 1.356 . S
N242 H248 0.984 . S
N242 H249 0.984 . S
N243 C236 1.356 . S
N243 H246 0.984 . S
N243 H247 0.985 . S
H244 N239 0.984 . S
H245 N239 0.985 . S
H246 N243 0.984 . S
H247 N243 0.985 . S
H248 N242 0.984 . S
H249 N242 0.984 . S
H250 N238 0.984 . S
H251 N238 0.985 . S
C252 C253 1.363 . S
C252 C258 1.379 . S
C252 N260 1.356 . S
C253 C252 1.363 . S
C253 C259 1.363 . S
C254 C255 1.363 . S
C254 C259 1.379 . S
C254 N261 1.356 . S
C255 C254 1.363 . S
C255 C258 1.363 . S
N256 C258 1.356 . S
N256 H268 0.984 . S
N256 H269 0.985 . S
N257 C259 1.356 . S
N257 H262 0.984 . S
N257 H263 0.985 . S
C258 C252 1.379 . S
C258 C255 1.363 . S
C258 N256 1.356 . S
C259 C253 1.363 . S
C259 C254 1.379 . S
C259 N257 1.356 . S
N260 C252 1.356 . S
N260 H266 0.984 . S
N260 H267 0.984 . S
N261 C254 1.356 . S
N261 H264 0.984 . S
N261 H265 0.985 . S
H262 N257 0.984 . S
H263 N257 0.985 . S
H264 N261 0.984 . S
H265 N261 0.985 . S
H266 N260 0.984 . S
H267 N260 0.984 . S
H268 N256 0.984 . S
H269 N256 0.985 . S
C270 C271 1.363 . S
C270 C276 1.379 . S
C270 N278 1.356 . S
C271 C270 1.363 . S
C271 C277 1.363 . S
C272 C273 1.363 . S
C272 C277 1.379 . S
C272 N279 1.356 . S
C273 C272 1.363 . S
C273 C276 1.363 . S
N274 C276 1.356 . S
N274 H286 0.984 . S
N274 H287 0.985 . S
N275 C277 1.356 . S
N275 H280 0.984 . S
N275 H281 0.985 . S
C276 C270 1.379 . S
C276 C273 1.363 . S
C276 N274 1.356 . S
C277 C271 1.363 . S
C277 C272 1.379 . S
C277 N275 1.356 . S
N278 C270 1.356 . S
N278 H284 0.984 . S
N278 H285 0.984 . S
N279 C272 1.356 . S
N279 H282 0.984 . S
N279 H283 0.985 . S
H280 N275 0.984 . S
H281 N275 0.985 . S
H282 N279 0.984 . S
H283 N279 0.985 . S
H284 N278 0.984 . S
H285 N278 0.984 . S
H286 N274 0.984 . S
H287 N274 0.985 . S
C288 C289 1.363 . S
C288 C294 1.379 . S
C288 N296 1.356 . S
C289 C288 1.363 . S
C289 C295 1.363 . S
C290 C291 1.363 . S
C290 C295 1.379 . S
C290 N297 1.356 . S
C291 C290 1.363 . S
C291 C294 1.363 . S
N292 C294 1.356 . S
N292 H304 0.984 . S
N292 H305 0.985 . S
N293 C295 1.356 . S
N293 H298 0.984 . S
N293 H299 0.985 . S
C294 C288 1.379 . S
C294 C291 1.363 . S
C294 N292 1.356 . S
C295 C289 1.363 . S
C295 C290 1.379 . S
C295 N293 1.356 . S
N296 C288 1.356 . S
N296 H302 0.984 . S
N296 H303 0.984 . S
N297 C290 1.356 . S
N297 H300 0.984 . S
N297 H301 0.985 . S
H298 N293 0.984 . S
H299 N293 0.985 . S
H300 N297 0.984 . S
H301 N297 0.985 . S
H302 N296 0.984 . S
H303 N296 0.984 . S
H304 N292 0.984 . S
H305 N292 0.985 . S
C306 C307 1.363 . S
C306 C312 1.379 . S
C306 N314 1.356 . S
C307 C306 1.363 . S
C307 C313 1.363 . S
C308 C309 1.363 . S
C308 C313 1.379 . S
C308 N315 1.356 . S
C309 C308 1.363 . S
C309 C312 1.363 . S
N310 C312 1.356 . S
N310 H322 0.984 . S
N310 H323 0.985 . S
N311 C313 1.356 . S
N311 H316 0.984 . S
N311 H317 0.985 . S
C312 C306 1.379 . S
C312 C309 1.363 . S
C312 N310 1.356 . S
C313 C307 1.363 . S
C313 C308 1.379 . S
C313 N311 1.356 . S
N314 C306 1.356 . S
N314 H320 0.984 . S
N314 H321 0.984 . S
N315 C308 1.356 . S
N315 H318 0.984 . S
N315 H319 0.985 . S
H316 N311 0.984 . S
H317 N311 0.985 . S
H318 N315 0.984 . S
H319 N315 0.985 . S
H320 N314 0.984 . S
H321 N314 0.984 . S
H322 N310 0.984 . S
H323 N310 0.985 . S
C324 C325 1.363 . S
C324 C330 1.379 . S
C324 N332 1.356 . S
C325 C324 1.363 . S
C325 C331 1.363 . S
C326 C327 1.363 . S
C326 C331 1.379 . S
C326 N333 1.356 . S
C327 C326 1.363 . S
C327 C330 1.363 . S
N328 C330 1.356 1_545 S
N328 H340 0.984 . S
N328 H341 0.985 . S
N329 C331 1.356 . S
N329 H334 0.984 . S
N329 H335 0.985 . S
C330 C324 1.379 . S
C330 C327 1.363 . S
C330 N328 1.356 1_565 S
C331 C325 1.363 . S
C331 C326 1.379 . S
C331 N329 1.356 . S
N332 C324 1.356 . S
N332 H338 0.984 . S
N332 H339 0.984 . S
N333 C326 1.356 . S
N333 H336 0.984 . S
N333 H337 0.985 . S
H334 N329 0.984 . S
H335 N329 0.985 . S
H336 N333 0.984 . S
H337 N333 0.985 . S
H338 N332 0.984 . S
H339 N332 0.984 . S
H340 N328 0.984 . S
H341 N328 0.985 . S
C342 C343 1.363 . S
C342 C348 1.379 . S
C342 N350 1.356 . S
C343 C342 1.363 . S
C343 C349 1.363 . S
C344 C345 1.363 . S
C344 C349 1.379 . S
C344 N351 1.356 . S
C345 C344 1.363 . S
C345 C348 1.363 . S
N346 C348 1.356 . S
N346 H358 0.984 1_545 S
N346 H359 0.985 . S
N347 C349 1.356 . S
N347 H352 0.984 . S
N347 H353 0.985 . S
C348 C342 1.379 . S
C348 C345 1.363 . S
C348 N346 1.356 . S
C349 C343 1.363 . S
C349 C344 1.379 . S
C349 N347 1.356 . S
N350 C342 1.356 . S
N350 H356 0.984 . S
N350 H357 0.984 . S
N351 C344 1.356 . S
N351 H354 0.984 . S
N351 H355 0.985 . S
H352 N347 0.984 . S
H353 N347 0.985 . S
H354 N351 0.984 . S
H355 N351 0.985 . S
H356 N350 0.984 . S
H357 N350 0.984 . S
H358 N346 0.984 1_565 S
H359 N346 0.985 . S
C360 C361 1.363 . S
C360 C366 1.379 . S
C360 N368 1.356 . S
C361 C360 1.363 . S
C361 C367 1.363 . S
C362 C363 1.363 . S
C362 C367 1.379 . S
C362 N369 1.356 . S
C363 C362 1.363 . S
C363 C366 1.363 . S
N364 C366 1.356 . S
N364 H376 0.984 . S
N364 H377 0.985 . S
N365 C367 1.356 1_455 S
N365 H370 0.984 . S
N365 H371 0.985 . S
C366 C360 1.379 . S
C366 C363 1.363 . S
C366 N364 1.356 . S
C367 C361 1.363 . S
C367 C362 1.379 . S
C367 N365 1.356 1_655 S
N368 C360 1.356 . S
N368 H374 0.984 . S
N368 H375 0.984 . S
N369 C362 1.356 . S
N369 H372 0.984 . S
N369 H373 0.985 1_655 S
H370 N365 0.984 . S
H371 N365 0.985 . S
H372 N369 0.984 . S
H373 N369 0.985 1_455 S
H374 N368 0.984 . S
H375 N368 0.984 . S
H376 N364 0.984 . S
H377 N364 0.985 . S
C378 C379 1.363 . S
C378 C384 1.379 . S
C378 N386 1.356 . S
C379 C378 1.363 . S
C379 C385 1.363 . S
C380 C381 1.363 . S
C380 C385 1.379 . S
C380 N387 1.356 . S
C381 C380 1.363 . S
C381 C384 1.363 . S
N382 C384 1.356 . S
N382 H394 0.984 . S
N382 H395 0.985 . S
N383 C385 1.356 . S
N383 H388 0.984 . S
N383 H389 0.985 . S
C384 C378 1.379 . S
C384 C381 1.363 . S
C384 N382 1.356 . S
C385 C379 1.363 . S
C385 C380 1.379 . S
C385 N383 1.356 . S
N386 C378 1.356 . S
N386 H392 0.984 . S
N386 H393 0.984 . S
N387 C380 1.356 . S
N387 H390 0.984 . S
N387 H391 0.985 . S
H388 N383 0.984 . S
H389 N383 0.985 . S
H390 N387 0.984 . S
H391 N387 0.985 . S
H392 N386 0.984 . S
H393 N386 0.984 . S
H394 N382 0.984 . S
H395 N382 0.985 . S
C396 C397 1.363 . S
C396 C402 1.379 1_455 S
C396 N404 1.356 . S
C397 C396 1.363 . S
C397 C403 1.363 . S
C398 C399 1.363 1_455 S
C398 C403 1.379 . S
C398 N405 1.353 . S
C399 C398 1.363 1_655 S
C399 C402 1.363 . S
N400 C402 1.356 . S
N400 H412 0.984 . S
N400 H413 0.985 . S
N401 C403 1.356 . S
N401 H406 0.984 . S
N401 H407 0.985 . S
C402 C396 1.379 1_655 S
C402 C399 1.363 . S
C402 N400 1.356 . S
C403 C397 1.363 . S
C403 C398 1.379 . S
C403 N401 1.356 . S
N404 C396 1.356 . S
N404 H410 0.984 . S
N404 H411 0.984 . S
N405 C398 1.353 . S
N405 H408 0.967 1_455 S
N405 H409 1.006 . S
H406 N401 0.984 . S
H407 N401 0.985 . S
H408 N405 0.967 1_655 S
H409 N405 1.006 . S
H410 N404 0.984 . S
H411 N404 0.984 . S
H412 N400 0.984 . S
H413 N400 0.985 . S
C414 C415 1.363 . S
C414 C420 1.379 . S
C414 N422 1.356 . S
C415 C414 1.363 . S
C415 C421 1.363 . S
C416 C417 1.363 . S
C416 C421 1.379 . S
C416 N423 1.356 . S
C417 C416 1.363 . S
C417 C420 1.363 . S
N418 C420 1.356 . S
N418 H430 0.984 . S
N418 H431 0.985 . S
N419 C421 1.356 . S
N419 H424 0.984 . S
N419 H425 0.985 . S
C420 C414 1.379 . S
C420 C417 1.363 . S
C420 N418 1.356 . S
C421 C415 1.363 . S
C421 C416 1.379 . S
C421 N419 1.356 . S
N422 C414 1.356 . S
N422 H428 0.984 . S
N422 H429 0.984 . S
N423 C416 1.356 . S
N423 H426 0.984 . S
N423 H427 0.985 . S
H424 N419 0.984 . S
H425 N419 0.985 . S
H426 N423 0.984 . S
H427 N423 0.985 . S
H428 N422 0.984 . S
H429 N422 0.984 . S
H430 N418 0.984 . S
H431 N418 0.985 . S
C432 C433 1.363 1_545 S
C432 C438 1.379 . S
C432 N440 1.356 . S
C433 C432 1.363 1_565 S
C433 C439 1.363 . S
C434 C435 1.363 . S
C434 C439 1.379 1_545 S
C434 N441 1.354 1_545 S
C435 C434 1.363 . S
C435 C438 1.363 . S
N436 C438 1.356 . S
N436 H448 0.984 . S
N436 H449 0.985 . S
N437 C439 1.356 . S
N437 H442 0.984 . S
N437 H443 0.985 . S
C438 C432 1.379 . S
C438 C435 1.363 . S
C438 N436 1.356 . S
C439 C433 1.363 . S
C439 C434 1.379 1_565 S
C439 N437 1.356 . S
N440 C432 1.356 . S
N440 H446 0.984 . S
N440 H447 0.984 . S
N441 C434 1.354 1_565 S
N441 H444 0.978 1_565 S
N441 H445 0.993 . S
H442 N437 0.984 . S
H443 N437 0.985 . S
H444 N441 0.978 1_545 S
H445 N441 0.993 . S
H446 N440 0.984 . S
H447 N440 0.984 . S
H448 N436 0.984 . S
H449 N436 0.985 . S
C127 C37 1.342 . S
C129 C8 1.342 1_554 S
C145 C23 1.342 1_554 S
C147 C9 1.342 . S
C163 C22 1.342 . S
C165 C36 1.342 1_554 S
C181 C78 1.342 . S
C183 C51 1.342 . S
C199 C65 1.342 . S
C201 C50 1.342 . S
C217 C64 1.342 . S
C219 C79 1.342 . S
C235 C92 1.342 . S
C237 C121 1.342 . S
C253 C93 1.342 . S
C255 C107 1.342 . S
C271 C106 1.342 . S
C273 C120 1.342 . S
C289 C6 1.473 . S
C291 C104 1.473 . S
C307 C21 1.473 . S
C309 C119 1.473 . S
C325 C91 1.473 . S
C327 C34 1.473 . S
C343 C63 1.473 . S
C345 C35 1.473 . S
C361 C7 1.473 . S
C363 C77 1.473 . S
C379 C49 1.473 . S
C381 C20 1.473 . S
C397 C105 1.473 . S
C399 C76 1.473 . S
C415 C48 1.473 . S
C417 C118 1.473 . S
C433 C90 1.473 . S
C435 C62 1.473 . S
