# Generated by pormake.
# Topology oof, (8)-cn, num edge types: 1
# Building blocks:
#     Node 0, Type 0, BuildingBlock: LIZSOE_clean_sbu_0, # of connection points: 8
#     Node 1, Type 0, BuildingBlock: LIZSOE_clean_sbu_0, # of connection points: 8
#     Node 2, Type 0, BuildingBlock: LIZSOE_clean_sbu_0, # of connection points: 8
#     Node 3, Type 0, BuildingBlock: LIZSOE_clean_sbu_0, # of connection points: 8
#     Edge 4, Type (0, 0), BuildingBlock: FUNLAD_clean_linker_1, # of connection points: 2
#     Edge 5, Type (0, 0), BuildingBlock: FUNLAD_clean_linker_1, # of connection points: 2
#     Edge 6, Type (0, 0), BuildingBlock: FUNLAD_clean_linker_1, # of connection points: 2
#     Edge 7, Type (0, 0), BuildingBlock: FUNLAD_clean_linker_1, # of connection points: 2
#     Edge 8, Type (0, 0), BuildingBlock: FUNLAD_clean_linker_1, # of connection points: 2
#     Edge 9, Type (0, 0), BuildingBlock: FUNLAD_clean_linker_1, # of connection points: 2
#     Edge 10, Type (0, 0), BuildingBlock: FUNLAD_clean_linker_1, # of connection points: 2
#     Edge 11, Type (0, 0), BuildingBlock: FUNLAD_clean_linker_1, # of connection points: 2
#     Edge 12, Type (0, 0), BuildingBlock: FUNLAD_clean_linker_1, # of connection points: 2
#     Edge 13, Type (0, 0), BuildingBlock: FUNLAD_clean_linker_1, # of connection points: 2
#     Edge 14, Type (0, 0), BuildingBlock: FUNLAD_clean_linker_1, # of connection points: 2
#     Edge 15, Type (0, 0), BuildingBlock: FUNLAD_clean_linker_1, # of connection points: 2
#     Edge 16, Type (0, 0), BuildingBlock: FUNLAD_clean_linker_1, # of connection points: 2
#     Edge 17, Type (0, 0), BuildingBlock: FUNLAD_clean_linker_1, # of connection points: 2
#     Edge 18, Type (0, 0), BuildingBlock: FUNLAD_clean_linker_1, # of connection points: 2
#     Edge 19, Type (0, 0), BuildingBlock: FUNLAD_clean_linker_1, # of connection points: 2
# Relax obj value: 0.084
# Max RMSD: 0.206
# Mean RMSD: 0.203
data_MOF--net-oof--node1-LIZSOE_clean_sbu_0--edge1-FUNLAD_clean_linker_1
_symmetry_space_group_name_H-M    P1
_symmetry_Int_Tables_number       1
_symmetry_cell_setting            triclinic
loop_
_symmetry_equiv_pos_as_xyz
'x, y, z'
_cell_length_a     15.978824
_cell_length_b     45.574662
_cell_length_c     23.746388
_cell_angle_alpha  88.714681
_cell_angle_beta   115.45083
_cell_angle_gamma 89.646581
loop_
_atom_site_label
_atom_site_type_symbol
_atom_site_fract_x
_atom_site_fract_y
_atom_site_fract_z
_atom_type_partial_charge
Co0 Co 0.99119 0.15749 0.1225 0.0
N1 N 1.01148 0.15068 0.05326 0.0
C2 C 0.94292 0.13951 1.00248 0.0
N3 N 0.06187 0.14452 0.97952 0.0
C4 C 0.08333 0.15387 0.03775 0.0
C5 C 0.97362 0.13539 0.95758 0.0
Co6 Co 0.02859 0.1298 0.40649 0.0
N7 N 0.02163 0.1415 0.48022 0.0
N8 N 0.04926 0.15474 0.57701 0.0
C9 C 0.95842 0.14971 0.5457 0.0
C10 C 0.94175 0.14141 0.48686 0.0
C11 C 0.08658 0.15005 0.53646 0.0
Co12 Co 1.00703 0.14275 0.26411 0.0
C13 C 0.08026 0.10842 0.40192 0.0
H14 H 0.87514 0.13487 0.45187 0.0
O15 O 0.96758 0.16734 0.18452 0.0
O16 O 0.04866 0.18097 0.30758 0.0
O17 O 0.13664 0.13646 0.27208 0.0
O18 O 0.96757 0.10483 0.21579 0.0
O19 O 0.95671 0.11932 0.12238 0.0
O20 O 0.05715 0.16836 0.39895 0.0
O21 O 0.03867 0.11635 0.34153 0.0
O22 O 0.90109 0.13915 0.35864 0.0
O23 O 0.11394 0.14554 0.17397 0.0
O24 O 0.02487 0.19422 0.12905 0.0
O25 O 0.87804 0.14855 0.25915 0.0
O26 O 0.15078 0.1221 0.44257 0.0
C27 C 0.1661 0.13815 0.22997 0.0
C28 C 0.18696 0.1549 0.55164 0.0
H29 H 0.19544 0.16401 0.51088 0.0
H30 H 0.21829 0.17033 0.59042 0.0
H31 H 0.22557 0.13367 0.56595 0.0
C32 C 0.06494 0.18736 0.36274 0.0
C33 C 0.9529 0.0995 0.15937 0.0
H34 H 0.87499 0.13418 0.99896 0.0
H35 H 0.20337 0.17953 0.05123 0.0
H36 H 0.22472 0.14888 0.10473 0.0
H37 H 0.16811 0.18159 0.1136 0.0
C38 C 0.17476 0.16688 0.07924 0.0
C39 C 0.99209 0.19302 0.17051 0.0
C40 C 0.84873 0.14612 0.30182 0.0
H41 H 0.93408 0.12579 0.91275 0.0
H42 H 0.90836 0.1506 0.56516 0.0
Co43 Co 0.99377 0.90124 0.64263 0.0
N44 N 1.00668 0.88487 0.57664 0.0
C45 C 0.05621 0.8614 0.57338 0.0
N46 N 0.9698 0.87637 0.47629 0.0
C47 C 0.95398 0.8932 0.5169 0.0
C48 C 0.03449 0.85634 0.51188 0.0
Co49 Co 0.95187 0.86623 0.8903 0.0
N50 N 0.89205 0.86727 0.94238 0.0
N51 N 0.85811 0.86949 0.02459 0.0
C52 C 0.78869 0.85579 0.97879 0.0
C53 C 0.81015 0.85422 0.92884 0.0
C54 C 0.91991 0.87626 1.00167 0.0
Co55 Co 0.99716 0.89172 0.77616 0.0
C56 C 0.08326 0.85912 0.90399 0.0
H57 H 0.77104 0.84252 0.88682 0.0
O58 O 0.98163 0.92033 0.70355 0.0
O59 O 0.0243 0.92642 0.83242 0.0
O60 O 0.12997 0.88655 0.79557 0.0
O61 O 0.96097 0.85519 0.72315 0.0
O62 O 0.89886 0.87595 0.62958 0.0
O63 O 0.96222 0.90779 0.89338 0.0
O64 O 0.01658 0.86309 0.84728 0.0
O65 O 0.83942 0.86946 0.82187 0.0
O66 O 0.09017 0.87447 0.69797 0.0
O67 O 0.08024 0.92604 0.65797 0.0
O68 O 0.86063 0.89761 0.75172 0.0
O69 O 0.06281 0.86288 0.95058 0.0
C70 C 0.15172 0.87724 0.75358 0.0
C71 C 1.01148 0.89008 0.0398 0.0
H72 H 0.03891 0.90174 1.01026 0.0
H73 H 1.00453 0.90589 0.07248 0.0
H74 H 0.06213 0.8727 0.06785 0.0
C75 C 0.99455 0.92936 0.87441 0.0
C76 C 0.90708 0.85416 0.66507 0.0
H77 H 0.1024 0.84793 0.61255 0.0
H78 H 0.86928 0.92336 0.53956 0.0
H79 H 0.81482 0.90904 0.46184 0.0
H80 H 0.90298 0.93618 0.47953 0.0
C81 C 0.88089 0.91685 0.4987 0.0
C82 C 0.04035 0.93666 0.69083 0.0
C83 C 0.80788 0.88389 0.77067 0.0
H84 H 0.06308 0.83882 0.49519 0.0
H85 H 0.73019 0.8457 0.98269 0.0
Co86 Co 0.53571 0.64984 0.13634 0.0
N87 N 0.59223 0.64314 0.08509 0.0
C88 C 0.67427 0.62979 0.09765 0.0
N89 N 0.6196 0.64682 1.00073 0.0
C90 C 0.55955 0.65255 0.02529 0.0
C91 C 0.69174 0.63229 0.04587 0.0
Co92 Co 0.50832 0.63537 0.40195 0.0
N93 N 0.49435 0.65252 0.46755 0.0
N94 N 0.51427 0.67253 0.55779 0.0
C95 C 0.42337 0.66749 0.52456 0.0
C96 C 0.41159 0.65508 0.46964 0.0
C97 C 0.55615 0.66339 0.52235 0.0
Co98 Co 0.50921 0.63852 0.26495 0.0
C99 C 0.59138 0.60452 0.39637 0.0
H100 H 0.3469 0.64731 0.43447 0.0
O101 O 0.48074 0.65923 0.18217 0.0
O102 O 0.53634 0.67889 0.30047 0.0
O103 O 0.64591 0.63398 0.2902 0.0
O104 O 0.48625 0.59862 0.2231 0.0
O105 O 0.52666 0.6102 0.14611 0.0
O106 O 0.57061 0.66853 0.39835 0.0
O107 O 0.5259 0.61667 0.34543 0.0
O108 O 0.39453 0.65195 0.34421 0.0
O109 O 0.65072 0.64968 0.20298 0.0
O110 O 0.54061 0.68822 0.13152 0.0
O111 O 0.37548 0.64409 0.24619 0.0
O112 O 0.61642 0.6183 0.44825 0.0
C113 C 0.69096 0.64255 0.26012 0.0
C114 C 0.65991 0.66232 0.54502 0.0
H115 H 0.68144 0.66173 0.50672 0.0
H116 H 0.69202 0.68179 0.57287 0.0
H117 H 0.68811 0.64245 0.57551 0.0
C118 C 0.57109 0.686 0.357 0.0
C119 C 0.50571 0.59134 0.17776 0.0
H120 H 0.71889 0.61912 0.14164 0.0
H121 H 0.42762 0.66742 1.01934 0.0
H122 H 0.42691 0.65668 0.94644 0.0
H123 H 0.47814 0.69068 0.97927 0.0
C124 C 0.46742 0.66773 0.99095 0.0
C125 C 0.4936 0.68575 0.16444 0.0
C126 C 0.34506 0.65264 0.28521 0.0
H127 H 0.75216 0.62387 0.04157 0.0
H128 H 0.36959 0.67141 0.53984 0.0
Co129 Co 0.49399 0.39559 0.63407 0.0
N130 N 0.48722 0.3761 0.56389 0.0
C131 C 0.40157 0.36945 0.52083 0.0
N132 N 0.49567 0.35718 0.47989 0.0
C133 C 0.54374 0.36865 0.53678 0.0
C134 C 0.40661 0.35732 0.47054 0.0
Co135 Co 0.49292 0.37229 0.89783 0.0
N136 N 0.44308 0.37639 0.95427 0.0
N137 N 0.41951 0.37106 0.04047 0.0
C138 C 0.36564 0.39339 1.0051 0.0
C139 C 0.37867 0.39622 0.95176 0.0
C140 C 0.46489 0.36072 1.00785 0.0
Co141 Co 0.51976 0.3922 0.77383 0.0
C142 C 0.62102 0.36506 0.90536 0.0
H143 H 0.34455 0.41207 0.91405 0.0
O144 O 0.49559 0.41814 0.69507 0.0
O145 O 0.55048 0.42928 0.82377 0.0
O146 O 0.64855 0.38681 0.7855 0.0
O147 O 0.48459 0.35338 0.72999 0.0
O148 O 0.40305 0.37127 0.63659 0.0
O149 O 0.49518 0.41358 0.89038 0.0
O150 O 0.54886 0.36663 0.85067 0.0
O151 O 0.37458 0.37116 0.83411 0.0
O152 O 0.60306 0.37052 0.68897 0.0
O153 O 0.57517 0.41941 0.63566 0.0
O154 O 0.3836 0.39699 0.75603 0.0
O155 O 0.61007 0.37355 0.95373 0.0
C156 C 0.66669 0.37441 0.74436 0.0
C157 C 0.53002 0.33472 0.02678 0.0
H158 H 0.58468 0.33734 0.07473 0.0
H159 H 0.49086 0.3146 0.02587 0.0
H160 H 0.56173 0.33131 0.99417 0.0
C161 C 0.52327 0.43421 0.86634 0.0
C162 C 0.41923 0.3508 0.67605 0.0
H163 H 0.33767 0.37435 0.52416 0.0
H164 H 0.65623 0.38995 0.52743 0.0
H165 H 0.68509 0.35517 0.56719 0.0
H166 H 0.66976 0.38694 0.60659 0.0
C167 C 0.64448 0.37573 0.56175 0.0
C168 C 0.54801 0.43254 0.67283 0.0
C169 C 0.33626 0.38392 0.78087 0.0
H170 H 0.34842 0.3501 0.42914 0.0
H171 H 0.32194 0.40733 1.01801 0.0
H172 H 0.19548 0.14503 0.97409 0.0
C173 C 0.12076 0.14385 0.94759 0.0
H174 H 1.01 0.14152 0.85791 0.0
H175 H 0.25242 0.19403 0.72948 0.0
H176 H 0.26418 0.23858 0.78751 0.0
H177 H 0.21868 0.23864 0.87461 0.0
H178 H 0.16308 0.19425 0.90506 0.0
C179 C 0.0844 0.14238 0.88534 0.0
C180 C 0.14115 0.14075 0.85011 0.0
C181 C 0.1756 0.16675 0.83463 0.0
C182 C 0.19978 0.16697 0.78374 0.0
C183 C 0.23204 0.19316 0.76749 0.0
C184 C 0.23927 0.21868 0.80042 0.0
C185 C 0.21376 0.21869 0.84954 0.0
C186 C 0.18189 0.19309 0.86653 0.0
H187 H 0.05335 0.17219 0.66196 0.0
C188 C 0.09327 0.16008 0.64251 0.0
H189 H 0.20421 0.13012 0.66297 0.0
H190 H 0.09962 0.08608 0.87887 0.0
H191 H 0.0952 0.04123 0.82377 0.0
H192 H 0.13473 0.04183 0.73399 0.0
H193 H 0.17934 0.08705 0.6991 0.0
C194 C 0.16888 0.14471 0.68143 0.0
C195 C 0.18667 0.14157 0.74791 0.0
C196 C 0.16617 0.11456 0.76945 0.0
C197 C 0.14282 0.11422 0.82071 0.0
C198 C 0.11726 0.0874 0.83968 0.0
C199 C 0.11474 0.06158 0.80863 0.0
C200 C 0.13704 0.06191 0.75811 0.0
C201 C 0.16226 0.08806 0.73841 0.0
H202 H 0.87654 0.89764 0.38788 0.0
C203 C 0.9256 0.87957 0.40934 0.0
H204 H 0.991 0.84277 0.3913 0.0
H205 H 0.7102 0.82719 0.11287 0.0
H206 H 0.67207 0.78548 0.16226 0.0
H207 H 0.73645 0.78051 0.27697 0.0
H208 H 0.84021 0.81704 0.34294 0.0
C209 C 0.94503 0.86167 0.37236 0.0
C210 C 0.9003 0.86621 0.3037 0.0
C211 C 0.8383 0.84495 0.26603 0.0
C212 C 0.8001 0.84805 0.20002 0.0
C213 C 0.74065 0.82605 0.16329 0.0
C214 C 0.71804 0.80201 0.19105 0.0
C215 C 0.75428 0.79921 0.25563 0.0
C216 C 0.81393 0.82031 0.29293 0.0
H217 H 0.94355 0.87232 0.12431 0.0
C218 C 0.87274 0.87145 0.08832 0.0
H219 H 0.73114 0.87122 0.07033 0.0
H220 H 0.02056 0.91064 0.36214 0.0
H221 H 0.04782 0.95418 0.31249 0.0
H222 H 0.96799 0.96189 0.1982 0.0
H223 H 0.8621 0.92553 0.133 0.0
C224 C 0.80258 0.87225 0.10502 0.0
C225 C 0.8237 0.87249 0.17223 0.0
C226 C 0.87901 0.89505 0.2099 0.0
C227 C 0.92039 0.89142 0.27578 0.0
C228 C 0.98316 0.91288 0.312 0.0
C229 C 1.00011 0.93794 0.28403 0.0
C230 C 0.95552 0.94223 0.21971 0.0
C231 C 0.89554 0.92112 0.18285 0.0
H232 H 0.53782 0.65759 0.90234 0.0
C233 C 0.60781 0.65486 0.93914 0.0
H234 H 0.75078 0.65823 0.96198 0.0
H235 H 0.63897 0.62951 0.67633 0.0
H236 H 0.73898 0.58797 0.72995 0.0
H237 H 0.80669 0.5827 0.84476 0.0
H238 H 0.77454 0.61913 0.90635 0.0
C239 C 0.68003 0.6605 0.92629 0.0
C240 C 0.66245 0.66793 0.86123 0.0
C241 C 0.68479 0.64701 0.82657 0.0
C242 C 0.64509 0.64991 0.76061 0.0
C243 C 0.66611 0.62825 0.72654 0.0
C244 C 0.7239 0.60432 0.75682 0.0
C245 C 0.76199 0.60136 0.82142 0.0
C246 C 0.74285 0.62238 0.85618 0.0
H247 H 0.6291 0.68957 0.63998 0.0
C248 C 0.55976 0.68072 0.62193 0.0
H249 H 0.45817 0.66279 0.64659 0.0
H250 H 0.62681 0.71545 0.9163 0.0
H251 H 0.53085 0.75819 0.86281 0.0
H252 H 0.45786 0.76255 0.74786 0.0
H253 H 0.48103 0.72437 0.68553 0.0
C254 C 0.52529 0.67302 0.66228 0.0
C255 C 0.58305 0.67366 0.73017 0.0
C256 C 0.569 0.69621 0.76522 0.0
C257 C 0.60989 0.69351 0.83119 0.0
C258 C 0.59546 0.71629 0.86579 0.0
C259 C 0.5411 0.74092 0.83573 0.0
C260 C 0.50007 0.74339 0.77095 0.0
C261 C 0.51358 0.72134 0.73578 0.0
H262 H 0.42337 0.38379 0.12898 0.0
C263 C 0.43644 0.3657 0.10448 0.0
H264 H 0.47288 0.32043 0.1125 0.0
H265 H 0.6233 0.38437 0.39155 0.0
H266 H 0.7303 0.41007 0.36081 0.0
H267 H 0.73116 0.4015 0.25872 0.0
H268 H 0.62288 0.36771 0.18628 0.0
C269 C 0.46731 0.33996 0.13562 0.0
C270 C 0.4875 0.33756 0.20267 0.0
C271 C 0.55549 0.35568 0.24615 0.0
C272 C 0.55742 0.35971 0.30577 0.0
C273 C 0.62037 0.37992 0.34625 0.0
C274 C 0.68221 0.39483 0.32916 0.0
C275 C 0.68262 0.39004 0.27168 0.0
C276 C 0.62002 0.37074 0.23046 0.0
H277 H 0.59726 0.34009 0.44906 0.0
C278 C 0.52837 0.34967 0.43424 0.0
H279 H 0.40542 0.36487 0.35932 0.0
H280 H 0.36024 0.29709 0.13409 0.0
H281 H 0.2609 0.2687 0.16786 0.0
H282 H 0.27173 0.27327 0.27408 0.0
H283 H 0.37962 0.30714 0.34651 0.0
C284 C 0.47329 0.35468 0.37351 0.0
C285 C 0.49411 0.34444 0.32232 0.0
C286 C 0.43535 0.32325 0.28218 0.0
C287 C 0.43116 0.31999 0.22178 0.0
C288 C 0.36701 0.30017 0.18088 0.0
C289 C 0.30984 0.28368 0.19973 0.0
C290 C 0.31567 0.28632 0.25948 0.0
C291 C 0.37747 0.30588 0.30042 0.0
H292 H 0.73925 0.16831 0.31786 0.0
C293 C 0.75145 0.15297 0.28765 0.0
H294 H 0.69384 0.11903 0.22428 0.0
H295 H 0.39736 0.09776 0.3339 0.0
H296 H 0.4932 0.05365 0.36957 0.0
H297 H 0.63312 0.04769 0.35151 0.0
H298 H 0.67949 0.08612 0.29909 0.0
C299 C 0.68096 0.13662 0.24987 0.0
C300 C 0.58911 0.13858 0.25236 0.0
C301 C 0.56184 0.11566 0.28208 0.0
C302 C 0.47945 0.11874 0.29092 0.0
C303 C 0.45702 0.09615 0.32377 0.0
C304 C 0.51188 0.07079 0.34498 0.0
C305 C 0.59076 0.06745 0.33491 0.0
C306 C 0.61644 0.08968 0.30458 0.0
H307 H 0.27135 0.11233 0.21613 0.0
C308 C 0.26205 0.12984 0.24338 0.0
H309 H 0.32216 0.16684 0.2961 0.0
H310 H 0.61604 0.18507 0.18778 0.0
H311 H 0.51472 0.22771 0.1453 0.0
H312 H 0.36946 0.23233 0.15701 0.0
H313 H 0.32575 0.1951 0.21328 0.0
C314 C 0.3335 0.1474 0.27442 0.0
C315 C 0.42239 0.1443 0.268 0.0
C316 C 0.44798 0.16672 0.23612 0.0
C317 C 0.53142 0.16388 0.22852 0.0
C318 C 0.55427 0.18634 0.19564 0.0
C319 C 0.49647 0.21084 0.17067 0.0
C320 C 0.41477 0.21351 0.1775 0.0
C321 C 0.39056 0.19189 0.20992 0.0
H322 H 0.67567 0.90583 0.70565 0.0
C323 C 0.70628 0.88713 0.73729 0.0
H324 H 0.68389 0.84915 0.78094 0.0
H325 H 0.33169 0.92628 0.77166 0.0
H326 H 0.44102 0.96369 0.82766 0.0
H327 H 0.60501 0.95956 0.84644 0.0
H328 H 0.65958 0.91875 0.80755 0.0
C329 C 0.65328 0.86887 0.75288 0.0
C330 C 0.55379 0.87386 0.73635 0.0
C331 C 0.52483 0.89738 0.76256 0.0
C332 C 0.43184 0.89885 0.75529 0.0
C333 C 0.40256 0.92341 0.77822 0.0
C334 C 0.46452 0.94514 0.81026 0.0
C335 C 0.55668 0.94287 0.82057 0.0
C336 C 0.58698 0.9193 0.79741 0.0
H337 H 0.30257 0.87072 0.81312 0.0
C338 C 0.24965 0.87369 0.76554 0.0
H339 H 0.22105 0.88122 0.67062 0.0
H340 H 0.58551 0.82723 0.67698 0.0
H341 H 0.47691 0.78898 0.62392 0.0
H342 H 0.31841 0.78997 0.61711 0.0
H343 H 0.26766 0.82917 0.66326 0.0
C344 C 0.2735 0.87712 0.71784 0.0
C345 C 0.37034 0.87589 0.7256 0.0
C346 C 0.39879 0.85271 0.69867 0.0
C347 C 0.4904 0.85186 0.70354 0.0
C348 C 0.51704 0.82861 0.67567 0.0
C349 C 0.45527 0.80662 0.64476 0.0
C350 C 0.36601 0.80721 0.64082 0.0
C351 C 0.33771 0.8299 0.66739 0.0
H352 H 0.83119 0.63913 0.33997 0.0
C353 C 0.79278 0.64491 0.29074 0.0
H354 H 0.79735 0.6617 0.20829 0.0
H355 H 0.15658 0.7246 0.27635 0.0
H356 H 0.04823 0.76592 0.24914 0.0
H357 H 0.88895 0.75914 0.23817 0.0
H358 H 0.83673 0.71101 0.25399 0.0
C359 C 0.83675 0.65476 0.25678 0.0
C360 C 0.93744 0.65946 0.28108 0.0
C361 C 0.9677 0.68797 0.27411 0.0
C362 C 0.0597 0.69202 0.28148 0.0
C363 C 0.08741 0.72045 0.27192 0.0
C364 C 0.02599 0.74433 0.25629 0.0
C365 C 0.93624 0.7405 0.25002 0.0
C366 C 0.90705 0.71273 0.25883 0.0
H367 H 0.19652 0.65034 0.22051 0.0
C368 C 0.24594 0.65939 0.26396 0.0
H369 H 0.26528 0.68164 0.34595 0.0
H370 H 0.90212 0.6015 0.29734 0.0
H371 H 0.01393 0.5614 0.33279 0.0
H372 H 0.17788 0.56958 0.35601 0.0
H373 H 0.22981 0.61779 0.34187 0.0
C374 C 0.21662 0.67164 0.30349 0.0
C375 C 0.12137 0.66768 0.29707 0.0
C376 C 0.09375 0.63965 0.30948 0.0
C377 C 1.00061 0.63529 0.29957 0.0
C378 C 0.97275 0.60652 0.30681 0.0
C379 C 0.0363 0.58316 0.32689 0.0
C380 C 0.12848 0.58774 0.33974 0.0
C381 C 0.15723 0.61556 0.33108 0.0
H382 H 0.81685 0.37905 0.80061 0.0
C383 C 0.76558 0.36961 0.75828 0.0
H384 H 0.74484 0.34729 0.67679 0.0
H385 H 0.13063 0.42706 0.75892 0.0
H386 H 0.02844 0.46937 0.73859 0.0
H387 H 0.86104 0.46331 0.70695 0.0
H388 H 0.79563 0.4149 0.69762 0.0
C389 C 0.79374 0.35852 0.71711 0.0
C390 C 0.89085 0.36223 0.72414 0.0
C391 C 0.92707 0.39077 0.72525 0.0
C392 C 0.02271 0.39428 0.73963 0.0
C393 C 0.05819 0.42302 0.74574 0.0
C394 C 1.00022 0.44756 0.73435 0.0
C395 C 0.90606 0.44416 0.71679 0.0
C396 C 0.86955 0.41619 0.7122 0.0
H397 H 0.1978 0.39374 0.70206 0.0
C398 C 0.23318 0.38394 0.74864 0.0
H399 H 0.21997 0.36125 0.82294 0.0
H400 H 0.84097 0.3046 0.71579 0.0
H401 H 0.93903 0.2623 0.72405 0.0
H402 H 0.10169 0.26848 0.74197 0.0
H403 H 0.16796 0.31699 0.75261 0.0
C404 C 0.1838 0.37173 0.77706 0.0
C405 C 0.08071 0.36923 0.74876 0.0
C406 C 0.04185 0.34082 0.74087 0.0
C407 C 0.94726 0.33729 0.72912 0.0
C408 C 0.91186 0.30857 0.72386 0.0
C409 C 0.96743 0.28409 0.72862 0.0
C410 C 0.05917 0.28755 0.73896 0.0
C411 C 0.09639 0.3155 0.74521 0.0
H412 H 0.40231 0.30237 0.67949 0.0
C413 C 0.37211 0.32268 0.65367 0.0
H414 H 0.265 0.34272 0.5738 0.0
H415 H 0.27656 0.22193 0.43681 0.0
H416 H 0.42699 0.23782 0.44887 0.0
H417 H 0.50099 0.2805 0.51236 0.0
H418 H 0.42587 0.30681 0.56577 0.0
C419 C 0.29734 0.32225 0.59788 0.0
C420 C 0.25653 0.29515 0.56381 0.0
C421 C 0.30051 0.2803 0.53162 0.0
C422 C 0.25549 0.25663 0.49223 0.0
C423 C 0.30422 0.24105 0.46429 0.0
C424 C 0.39153 0.24976 0.47137 0.0
C425 C 0.43335 0.27371 0.50728 0.0
C426 C 0.38915 0.28869 0.5376 0.0
H427 H 0.11413 0.23283 0.35944 0.0
C428 C 0.0999 0.21657 0.3882 0.0
H429 H 0.1006 0.2061 0.4753 0.0
H430 H 0.15423 0.31885 0.61926 0.0
H431 H 0.99831 0.3055 0.60181 0.0
H432 H 0.91633 0.26637 0.52946 0.0
H433 H 0.98901 0.24055 0.47359 0.0
C434 C 0.11988 0.22196 0.44843 0.0
C435 C 0.16434 0.24884 0.48267 0.0
C436 C 0.12005 0.26417 0.51421 0.0
C437 C 0.16654 0.28708 0.55517 0.0
C438 C 0.12128 0.3016 0.58681 0.0
C439 C 0.03204 0.29406 0.57753 0.0
C440 C 0.98593 0.27201 0.53683 0.0
C441 C 0.02887 0.25723 0.50535 0.0
H442 H 0.66562 0.32088 0.89372 0.0
C443 C 0.69015 0.34066 0.92019 0.0
H444 H 0.78747 0.35952 1.00084 0.0
H445 H 0.83692 0.26009 0.19846 0.0
H446 H 0.80089 0.30347 0.24147 0.0
H447 H 0.76289 0.35055 0.18227 0.0
H448 H 0.75626 0.35446 0.07941 0.0
C449 C 0.76408 0.33906 0.97692 0.0
C450 C 0.79704 0.31086 1.01541 0.0
C451 C 0.79936 0.30884 0.0763 0.0
C452 C 0.82307 0.28167 0.11145 0.0
C453 C 0.82175 0.28023 0.17068 0.0
C454 C 0.80071 0.30492 0.19585 0.0
C455 C 0.77902 0.3314 0.16244 0.0
C456 C 0.77676 0.33337 0.1032 0.0
H457 H 0.98777 0.23852 0.19634 0.0
C458 C 0.9438 0.22057 0.1717 0.0
H459 H 0.82439 0.20884 0.09351 0.0
H460 H 0.82366 0.30838 0.90935 0.0
H461 H 0.86688 0.26546 0.86884 0.0
H462 H 0.89876 0.21788 0.92636 0.0
H463 H 0.88898 0.21303 0.02475 0.0
C464 C 0.86394 0.22707 0.1206 0.0
C465 C 0.8452 0.25642 0.08653 0.0
C466 C 0.84695 0.25875 0.02702 0.0
C467 C 0.82505 0.28602 0.99235 0.0
C468 C 0.83442 0.28794 0.93574 0.0
C469 C 0.86037 0.26354 0.91231 0.0
C470 C 0.87856 0.23679 0.94477 0.0
C471 C 0.87243 0.23432 1.00142 0.0
H472 H 0.63287 0.72833 0.34622 0.0
C473 C 0.61224 0.71518 0.37671 0.0
H474 H 0.60439 0.71181 0.46323 0.0
H475 H 0.96079 0.78517 0.61125 0.0
H476 H 0.0378 0.73813 0.62067 0.0
H477 H 0.95272 0.69627 0.55879 0.0
H478 H 0.79038 0.70145 0.48607 0.0
C479 C 0.62772 0.72456 0.4338 0.0
C480 C 0.6817 0.75089 0.46281 0.0
C481 C 0.77608 0.74742 0.50596 0.0
C482 C 0.82444 0.77134 0.54293 0.0
C483 C 0.91973 0.76754 0.58355 0.0
C484 C 0.96503 0.74066 0.58915 0.0
C485 C 0.91717 0.7171 0.55426 0.0
C486 C 0.82391 0.72033 0.51292 0.0
H487 H 0.86002 0.80816 0.66456 0.0
C488 C 0.86278 0.82658 0.63561 0.0
H489 H 0.83062 0.8429 0.54429 0.0
H490 H 0.50272 0.76492 0.38281 0.0
H491 H 0.42418 0.81183 0.37342 0.0
H492 H 0.50599 0.85302 0.43935 0.0
H493 H 0.66645 0.84762 0.51504 0.0
C494 C 0.82758 0.82435 0.5729 0.0
C495 C 0.77729 0.79844 0.53787 0.0
C496 C 0.68324 0.80201 0.49372 0.0
C497 C 0.63563 0.77823 0.45604 0.0
C498 C 0.54174 0.78228 0.41277 0.0
C499 C 0.49594 0.80908 0.40684 0.0
C500 C 0.54206 0.83229 0.44388 0.0
C501 C 0.63444 0.82892 0.48697 0.0
H502 H 0.44396 0.72585 0.19342 0.0
C503 C 0.42909 0.7108 0.15563 0.0
H504 H 0.36416 0.7038 0.05931 0.0
H505 H 0.12424 0.82442 0.038 0.0
H506 H 0.06907 0.80115 0.10774 0.0
H507 H 0.13685 0.754 0.16163 0.0
H508 H 0.2611 0.73008 0.14624 0.0
C509 C 0.37316 0.71914 0.09578 0.0
C510 C 0.34219 0.75003 0.07266 0.0
C511 C 0.26994 0.76387 0.08208 0.0
C512 C 0.2305 0.79108 0.05038 0.0
C513 C 0.15762 0.80405 0.06072 0.0
C514 C 0.12483 0.79081 0.10062 0.0
C515 C 0.16295 0.76427 0.13093 0.0
C516 C 0.23436 0.7508 0.12174 0.0
H517 H 0.15685 0.82219 0.88426 0.0
C518 C 0.16301 0.83847 0.91846 0.0
H519 H 0.22871 0.85079 1.01226 0.0
H520 H 0.48648 0.73151 0.04866 0.0
H521 H 0.54243 0.75472 0.97896 0.0
H522 H 0.47151 0.80105 0.92224 0.0
H523 H 0.34399 0.82437 0.93504 0.0
C524 C 0.22431 0.83404 0.97922 0.0
C525 C 0.2625 0.80443 1.00836 0.0
C526 C 0.33597 0.79084 0.99992 0.0
C527 C 0.37622 0.76387 0.03234 0.0
C528 C 0.45146 0.7514 0.02407 0.0
C529 C 0.48488 0.76468 0.98457 0.0
C530 C 0.44505 0.79078 0.95272 0.0
C531 C 0.37175 0.80389 0.96037 0.0
H532 H 0.91919 0.05161 0.15723 0.0
C533 C 0.94267 0.06905 0.13589 0.0
H534 H 0.99197 0.08125 0.06911 0.0
H535 H 0.10128 0.94747 0.05109 0.0
H536 H 0.19622 0.94707 0.16291 0.0
H537 H 0.18395 0.9874 0.2267 0.0
H538 H 0.07647 0.02812 0.17919 0.0
C539 C 0.96651 0.06353 0.08859 0.0
C540 C 0.9567 0.03537 0.05565 0.0
C541 C 0.01901 1.01151 0.08437 0.0
C542 C 0.02525 0.988 0.04761 0.0
C543 C 0.09093 0.96512 0.07716 0.0
C544 C 0.14677 0.96487 0.14116 0.0
C545 C 0.14003 0.98761 0.17703 0.0
C546 C 0.07777 1.01086 0.14913 0.0
H547 H 0.03168 0.97655 0.89292 0.0
C548 C 0.99919 0.95802 0.90464 0.0
H549 H 0.93138 0.94233 0.95862 0.0
H550 H 0.82729 0.0769 0.98601 0.0
H551 H 0.72973 0.07648 0.87463 0.0
H552 H 0.73815 0.03521 0.81167 0.0
H553 H 0.84532 0.99439 0.85946 0.0
C554 C 0.96378 0.96088 0.94696 0.0
C555 C 0.96806 0.98796 0.98235 0.0
C556 C 0.90444 1.01151 0.95389 0.0
C557 C 0.89917 0.03523 0.99041 0.0
C558 C 0.83515 0.05854 0.96046 0.0
C559 C 0.77823 0.05847 0.89663 0.0
C560 C 0.78292 0.03523 0.8612 0.0
C561 C 0.84484 1.01192 0.88926 0.0
H562 H 1.00892 0.06485 0.39192 0.0
C563 C 0.05757 0.07959 0.42504 0.0
H564 H 0.13696 0.08928 0.51977 0.0
H565 H 0.84491 1.00971 0.57993 0.0
H566 H 0.72382 0.04288 0.50919 0.0
H567 H 0.75723 0.07946 0.4438 0.0
H568 H 0.90934 0.08213 0.44588 0.0
C569 C 0.08846 0.07421 0.48761 0.0
C570 C 0.06291 0.04914 0.51948 0.0
C571 C 0.97236 0.04706 0.51643 0.0
C572 C 0.95345 0.02613 0.55519 0.0
C573 C 0.86255 0.02491 0.55116 0.0
C574 C 0.79268 0.04392 0.51115 0.0
C575 C 0.81133 0.06445 0.47415 0.0
C576 C 0.89957 0.06593 0.4762 0.0
H577 H 0.06748 0.98314 0.71966 0.0
C578 C 0.02794 0.96915 0.68109 0.0
H579 H 0.95753 0.9647 0.58414 0.0
H580 H 0.24449 0.04768 0.54002 0.0
H581 H 0.36701 0.01645 0.61433 0.0
H582 H 0.33486 0.98039 0.68109 0.0
H583 H 0.18134 0.97563 0.67479 0.0
C584 C 0.99665 0.97951 0.62108 0.0
C585 C 0.02443 1.00707 0.59753 0.0
C586 C 0.11601 1.00994 0.60235 0.0
C587 C 0.13485 0.03087 0.56353 0.0
C588 C 0.22648 0.03266 0.56885 0.0
C589 C 0.29751 1.0147 0.61102 0.0
C590 C 0.27937 0.99438 0.64851 0.0
C591 C 0.19005 0.99184 0.6442 0.0
H592 H 0.44251 0.54706 0.15303 0.0
C593 C 0.49882 0.56084 0.15498 0.0
H594 H 0.60813 0.56772 0.12921 0.0
H595 H 0.54074 0.4341 0.02443 0.0
H596 H 0.5754 0.41692 0.12934 0.0
H597 H 0.58976 0.45173 0.21098 0.0
H598 H 0.56904 0.50416 0.18767 0.0
C599 C 0.55199 0.55331 0.12545 0.0
C600 C 0.52743 0.53137 0.07498 0.0
C601 C 0.5387 0.50084 0.08902 0.0
C602 C 0.52964 0.48071 0.0416 0.0
C603 C 0.54401 0.45036 0.05778 0.0
C604 C 0.56489 0.44017 0.11814 0.0
C605 C 0.57313 0.4598 0.16408 0.0
C606 C 0.5609 0.48982 0.15006 0.0
H607 H 0.58854 0.4777 0.8981 0.0
C608 C 0.53399 0.46317 0.89647 0.0
H609 H 0.42979 0.4542 0.92601 0.0
H610 H 0.4977 0.58832 0.03054 0.0
H611 H 0.46218 0.60543 0.92526 0.0
H612 H 0.44504 0.57054 0.84347 0.0
H613 H 0.46383 0.5182 0.86645 0.0
C614 C 0.48446 0.469 0.92935 0.0
C615 C 0.50832 0.49097 0.97971 0.0
C616 C 0.4967 0.52148 0.96559 0.0
C617 C 0.50645 0.54164 1.01311 0.0
C618 C 0.49323 0.57202 0.99705 0.0
C619 C 0.47202 0.58217 0.93659 0.0
C620 C 0.46221 0.56251 0.89048 0.0
C621 C 0.47358 0.53249 0.9044 0.0
H622 H 0.47052 0.47519 0.64845 0.0
C623 C 0.53655 0.46486 0.65723 0.0
H624 H 0.65805 0.46621 0.64359 0.0
H625 H 0.5367 0.51664 0.37725 0.0
H626 H 0.56342 0.46531 0.3652 0.0
H627 H 0.58951 0.42905 0.44967 0.0
H628 H 0.58977 0.44377 0.54682 0.0
C629 C 0.59263 0.47744 0.63346 0.0
C630 C 0.56216 0.49924 0.57884 0.0
C631 C 0.56444 0.49057 0.52193 0.0
C632 C 0.55015 0.51162 0.47275 0.0
C633 C 0.54965 0.50184 0.41643 0.0
C634 C 0.56424 0.47237 0.40867 0.0
C635 C 0.57904 0.45195 0.45632 0.0
C636 C 0.57925 0.46079 0.51216 0.0
H637 H 0.64973 0.55988 0.42683 0.0
C638 C 0.58579 0.57274 0.41025 0.0
H639 H 0.45887 0.57878 0.41517 0.0
H640 H 0.55018 0.52378 0.67876 0.0
H641 H 0.51406 0.57466 0.68807 0.0
H642 H 0.48709 0.6108 0.60302 0.0
H643 H 0.49972 0.59671 0.50957 0.0
C644 C 0.51931 0.56439 0.42856 0.0
C645 C 0.53447 0.54165 0.47985 0.0
C646 C 0.52803 0.5501 0.53552 0.0
C647 C 0.54221 0.52904 0.58474 0.0
C648 C 0.53816 0.53862 0.63979 0.0
C649 C 0.51781 0.56779 0.64585 0.0
C650 C 0.50292 0.58816 0.59805 0.0
C651 C 0.50938 0.57967 0.54409 0.0
loop_
_geom_bond_atom_site_label_1
_geom_bond_atom_site_label_2
_geom_bond_distance
_geom_bond_site_symmetry_2
_ccdc_geom_bond_type
Co0 N1 2.034 . S
Co0 O15 2.262 1_455 S
Co0 O19 1.958 1_455 S
Co0 O23 1.950 . S
Co0 O24 2.057 1_455 S
N1 Co0 2.034 . S
N1 C2 1.368 . S
N1 C4 1.332 . S
C2 N1 1.368 . S
C2 C5 1.374 1_554 S
C2 H34 0.932 1_455 S
N3 C4 1.346 1_556 S
N3 C5 1.337 . S
C4 N1 1.332 . S
C4 N3 1.346 1_554 S
C4 C38 1.361 . S
C5 C2 1.374 1_556 S
C5 N3 1.337 . S
C5 H41 0.930 . S
Co6 N7 2.034 . S
Co6 O20 1.950 1_655 S
Co6 O21 2.262 1_655 S
Co6 O22 1.958 . S
Co6 O26 2.057 1_655 S
N7 Co6 2.034 . S
N7 C10 1.366 . S
N7 C11 1.332 . S
N8 C9 1.337 . S
N8 C11 1.346 . S
C9 N8 1.337 . S
C9 C10 1.377 . S
C9 H42 0.930 . S
C10 N7 1.366 . S
C10 C9 1.377 . S
C10 H14 0.931 . S
C11 N7 1.332 . S
C11 N8 1.346 . S
C11 C28 1.361 1_655 S
Co12 O15 2.097 . S
Co12 O16 2.065 1_655 S
Co12 O17 2.065 1_655 S
Co12 O18 2.042 . S
Co12 O21 2.097 1_655 S
Co12 O25 2.042 . S
C13 O21 1.253 . S
C13 O26 1.263 . S
H14 C10 0.931 . S
O15 Co0 2.262 1_655 S
O15 Co12 2.097 . S
O15 C39 1.253 . S
O16 Co12 2.065 1_455 S
O16 C32 1.221 . S
O17 Co12 2.065 1_455 S
O17 C27 1.221 . S
O18 Co12 2.042 . S
O18 C33 1.237 . S
O19 Co0 1.958 1_655 S
O19 C33 1.278 . S
O20 Co6 1.950 1_455 S
O20 C32 1.277 . S
O21 Co6 2.262 1_455 S
O21 Co12 2.097 1_455 S
O21 C13 1.253 . S
O22 Co6 1.958 . S
O22 C40 1.278 . S
O23 Co0 1.950 . S
O23 C27 1.277 . S
O24 Co0 2.057 1_655 S
O24 C39 1.263 . S
O25 Co12 2.042 . S
O25 C40 1.237 . S
O26 Co6 2.057 1_455 S
O26 C13 1.263 . S
C27 O17 1.221 . S
C27 O23 1.277 . S
C28 C11 1.361 1_455 S
C28 H29 0.960 . S
C28 H30 0.961 . S
C28 H31 0.961 . S
H29 C28 0.960 . S
H30 C28 0.961 . S
H31 C28 0.961 . S
C32 O16 1.221 . S
C32 O20 1.277 . S
C33 O18 1.237 . S
C33 O19 1.278 . S
H34 C2 0.932 1_655 S
H35 C38 0.961 . S
H36 C38 0.961 . S
H37 C38 0.960 . S
C38 C4 1.361 . S
C38 H35 0.961 . S
C38 H36 0.961 . S
C38 H37 0.960 . S
C39 O15 1.253 . S
C39 O24 1.263 . S
C40 O22 1.278 . S
C40 O25 1.237 . S
H41 C5 0.930 . S
H42 C9 0.930 . S
Co43 N44 2.034 . S
Co43 O58 2.262 1_455 S
Co43 O62 1.958 1_455 S
Co43 O66 1.950 . S
Co43 O67 2.057 1_455 S
N44 Co43 2.034 . S
N44 C45 1.366 . S
N44 C47 1.332 . S
C45 N44 1.366 . S
C45 C48 1.377 . S
C45 H77 0.931 1_455 S
N46 C47 1.346 . S
N46 C48 1.337 . S
C47 N44 1.332 . S
C47 N46 1.346 . S
C47 C81 1.361 . S
C48 C45 1.377 . S
C48 N46 1.337 . S
C48 H84 0.930 . S
Co49 N50 2.034 . S
Co49 O63 1.950 1_655 S
Co49 O64 2.262 1_655 S
Co49 O65 1.958 . S
Co49 O69 2.057 1_655 S
N50 Co49 2.034 . S
N50 C53 1.366 . S
N50 C54 1.332 1_556 S
N51 C52 1.338 . S
N51 C54 1.346 . S
C52 N51 1.338 . S
C52 C53 1.375 1_554 S
C52 H85 0.932 . S
C53 N50 1.366 . S
C53 C52 1.375 1_556 S
C53 H57 0.931 . S
C54 N50 1.332 1_554 S
C54 N51 1.346 . S
C54 C71 1.361 1_655 S
Co55 O58 2.097 . S
Co55 O59 2.065 1_655 S
Co55 O60 2.065 1_655 S
Co55 O61 2.042 . S
Co55 O64 2.097 1_655 S
Co55 O68 2.042 . S
C56 O64 1.253 . S
C56 O69 1.263 . S
H57 C53 0.931 . S
O58 Co43 2.262 1_655 S
O58 Co55 2.097 . S
O58 C82 1.253 . S
O59 Co55 2.065 1_455 S
O59 C75 1.221 . S
O60 Co55 2.065 1_455 S
O60 C70 1.221 . S
O61 Co55 2.042 . S
O61 C76 1.237 . S
O62 Co43 1.958 1_655 S
O62 C76 1.278 . S
O63 Co49 1.950 1_455 S
O63 C75 1.277 . S
O64 Co49 2.262 1_455 S
O64 Co55 2.097 1_455 S
O64 C56 1.253 . S
O65 Co49 1.958 . S
O65 C83 1.278 . S
O66 Co43 1.950 . S
O66 C70 1.277 . S
O67 Co43 2.057 1_655 S
O67 C82 1.263 . S
O68 Co55 2.042 . S
O68 C83 1.237 . S
O69 Co49 2.057 1_455 S
O69 C56 1.263 . S
C70 O60 1.221 . S
C70 O66 1.277 . S
C71 C54 1.361 1_455 S
C71 H72 0.960 1_554 S
C71 H73 0.961 . S
C71 H74 0.961 . S
H72 C71 0.960 1_556 S
H73 C71 0.961 . S
H74 C71 0.961 . S
C75 O59 1.221 . S
C75 O63 1.277 . S
C76 O61 1.237 . S
C76 O62 1.278 . S
H77 C45 0.931 1_655 S
H78 C81 0.961 . S
H79 C81 0.961 . S
H80 C81 0.960 . S
C81 C47 1.361 . S
C81 H78 0.961 . S
C81 H79 0.961 . S
C81 H80 0.960 . S
C82 O58 1.253 . S
C82 O67 1.263 . S
C83 O65 1.278 . S
C83 O68 1.237 . S
H84 C48 0.930 . S
H85 C52 0.932 . S
Co86 N87 2.034 . S
Co86 O101 2.262 . S
Co86 O105 1.958 . S
Co86 O109 1.950 . S
Co86 O110 2.057 . S
N87 Co86 2.034 . S
N87 C88 1.368 . S
N87 C90 1.332 . S
C88 N87 1.368 . S
C88 C91 1.374 1_554 S
C88 H120 0.932 . S
N89 C90 1.346 1_556 S
N89 C91 1.337 . S
C90 N87 1.332 . S
C90 N89 1.346 1_554 S
C90 C124 1.361 . S
C91 C88 1.374 1_556 S
C91 N89 1.337 . S
C91 H127 0.930 . S
Co92 N93 2.034 . S
Co92 O106 1.950 . S
Co92 O107 2.262 . S
Co92 O108 1.958 . S
Co92 O112 2.057 . S
N93 Co92 2.034 . S
N93 C96 1.366 . S
N93 C97 1.332 . S
N94 C95 1.337 . S
N94 C97 1.346 . S
C95 N94 1.337 . S
C95 C96 1.377 . S
C95 H128 0.930 . S
C96 N93 1.366 . S
C96 C95 1.377 . S
C96 H100 0.931 . S
C97 N93 1.332 . S
C97 N94 1.346 . S
C97 C114 1.361 . S
Co98 O101 2.097 . S
Co98 O102 2.065 . S
Co98 O103 2.065 . S
Co98 O104 2.042 . S
Co98 O107 2.097 . S
Co98 O111 2.042 . S
C99 O107 1.253 . S
C99 O112 1.263 . S
H100 C96 0.931 . S
O101 Co86 2.262 . S
O101 Co98 2.097 . S
O101 C125 1.253 . S
O102 Co98 2.065 . S
O102 C118 1.221 . S
O103 Co98 2.065 . S
O103 C113 1.221 . S
O104 Co98 2.042 . S
O104 C119 1.237 . S
O105 Co86 1.958 . S
O105 C119 1.278 . S
O106 Co92 1.950 . S
O106 C118 1.277 . S
O107 Co92 2.262 . S
O107 Co98 2.097 . S
O107 C99 1.253 . S
O108 Co92 1.958 . S
O108 C126 1.278 . S
O109 Co86 1.950 . S
O109 C113 1.277 . S
O110 Co86 2.057 . S
O110 C125 1.263 . S
O111 Co98 2.042 . S
O111 C126 1.237 . S
O112 Co92 2.057 . S
O112 C99 1.263 . S
C113 O103 1.221 . S
C113 O109 1.277 . S
C114 C97 1.361 . S
C114 H115 0.960 . S
C114 H116 0.961 . S
C114 H117 0.961 . S
H115 C114 0.960 . S
H116 C114 0.961 . S
H117 C114 0.961 . S
C118 O102 1.221 . S
C118 O106 1.277 . S
C119 O104 1.237 . S
C119 O105 1.278 . S
H120 C88 0.932 . S
H121 C124 0.961 . S
H122 C124 0.961 . S
H123 C124 0.960 . S
C124 C90 1.361 . S
C124 H121 0.961 . S
C124 H122 0.961 . S
C124 H123 0.960 . S
C125 O101 1.253 . S
C125 O110 1.263 . S
C126 O108 1.278 . S
C126 O111 1.237 . S
H127 C91 0.930 . S
H128 C95 0.930 . S
Co129 N130 2.034 . S
Co129 O144 2.262 . S
Co129 O148 1.958 . S
Co129 O152 1.950 . S
Co129 O153 2.057 . S
N130 Co129 2.034 . S
N130 C131 1.366 . S
N130 C133 1.332 . S
C131 N130 1.366 . S
C131 C134 1.377 . S
C131 H163 0.931 . S
N132 C133 1.346 . S
N132 C134 1.337 . S
C133 N130 1.332 . S
C133 N132 1.346 . S
C133 C167 1.361 . S
C134 C131 1.377 . S
C134 N132 1.337 . S
C134 H170 0.930 . S
Co135 N136 2.034 . S
Co135 O149 1.950 . S
Co135 O150 2.262 . S
Co135 O151 1.958 . S
Co135 O155 2.057 . S
N136 Co135 2.034 . S
N136 C139 1.366 . S
N136 C140 1.332 1_556 S
N137 C138 1.338 . S
N137 C140 1.346 . S
C138 N137 1.338 . S
C138 C139 1.374 1_554 S
C138 H171 0.932 . S
C139 N136 1.366 . S
C139 C138 1.374 1_556 S
C139 H143 0.931 . S
C140 N136 1.332 1_554 S
C140 N137 1.346 . S
C140 C157 1.361 . S
Co141 O144 2.097 . S
Co141 O145 2.065 . S
Co141 O146 2.065 . S
Co141 O147 2.042 . S
Co141 O150 2.097 . S
Co141 O154 2.042 . S
C142 O150 1.253 . S
C142 O155 1.263 . S
H143 C139 0.931 . S
O144 Co129 2.262 . S
O144 Co141 2.097 . S
O144 C168 1.253 . S
O145 Co141 2.065 . S
O145 C161 1.221 . S
O146 Co141 2.065 . S
O146 C156 1.221 . S
O147 Co141 2.042 . S
O147 C162 1.237 . S
O148 Co129 1.958 . S
O148 C162 1.278 . S
O149 Co135 1.950 . S
O149 C161 1.277 . S
O150 Co135 2.262 . S
O150 Co141 2.097 . S
O150 C142 1.253 . S
O151 Co135 1.958 . S
O151 C169 1.278 . S
O152 Co129 1.950 . S
O152 C156 1.277 . S
O153 Co129 2.057 . S
O153 C168 1.263 . S
O154 Co141 2.042 . S
O154 C169 1.237 . S
O155 Co135 2.057 . S
O155 C142 1.263 . S
C156 O146 1.221 . S
C156 O152 1.277 . S
C157 C140 1.361 . S
C157 H158 0.960 1_554 S
C157 H159 0.961 . S
C157 H160 0.961 . S
H158 C157 0.960 1_556 S
H159 C157 0.961 . S
H160 C157 0.961 . S
C161 O145 1.221 . S
C161 O149 1.277 . S
C162 O147 1.237 . S
C162 O148 1.278 . S
H163 C131 0.931 . S
H164 C167 0.961 . S
H165 C167 0.961 . S
H166 C167 0.960 . S
C167 C133 1.361 . S
C167 H164 0.961 . S
C167 H165 0.961 . S
C167 H166 0.960 . S
C168 O144 1.253 . S
C168 O153 1.263 . S
C169 O151 1.278 . S
C169 O154 1.237 . S
H170 C134 0.930 . S
H171 C138 0.932 . S
H172 C173 0.951 . S
C173 H172 0.951 . S
C173 C179 1.265 . S
H174 C179 0.950 1_655 S
H175 C183 0.949 . S
H176 C184 0.950 . S
H177 C185 0.951 . S
H178 C186 0.951 . S
C179 C173 1.265 . S
C179 H174 0.950 1_455 S
C179 C180 1.478 . S
C180 C179 1.478 . S
C180 C181 1.397 1_455 S
C180 C197 1.394 . S
C181 C180 1.397 1_655 S
C181 C182 1.438 . S
C181 C186 1.429 . S
C182 C181 1.438 . S
C182 C183 1.428 . S
C182 C195 1.394 1_655 S
C183 H175 0.949 . S
C183 C182 1.428 . S
C183 C184 1.345 . S
C184 H176 0.950 . S
C184 C183 1.345 . S
C184 C185 1.424 . S
C185 H177 0.951 . S
C185 C184 1.424 . S
C185 C186 1.347 . S
C186 H178 0.951 . S
C186 C181 1.429 . S
C186 C185 1.347 . S
H187 C188 0.951 . S
C188 H187 0.951 . S
C188 C194 1.265 1_655 S
H189 C194 0.950 . S
H190 C198 0.949 . S
H191 C199 0.950 . S
H192 C200 0.951 . S
H193 C201 0.951 . S
C194 C188 1.265 1_455 S
C194 H189 0.950 . S
C194 C195 1.478 . S
C195 C182 1.394 1_455 S
C195 C194 1.478 . S
C195 C196 1.397 . S
C196 C195 1.397 . S
C196 C197 1.438 . S
C196 C201 1.429 . S
C197 C180 1.394 . S
C197 C196 1.438 . S
C197 C198 1.428 . S
C198 H190 0.949 . S
C198 C197 1.428 . S
C198 C199 1.345 . S
C199 H191 0.950 . S
C199 C198 1.345 . S
C199 C200 1.424 . S
C200 H192 0.951 . S
C200 C199 1.424 . S
C200 C201 1.347 . S
C201 H193 0.951 . S
C201 C196 1.429 . S
C201 C200 1.347 . S
H202 C203 0.951 . S
C203 H202 0.951 . S
C203 C209 1.265 . S
H204 C209 0.950 . S
H205 C213 0.949 1_655 S
H206 C214 0.950 . S
H207 C215 0.951 . S
H208 C216 0.951 . S
C209 C203 1.265 . S
C209 H204 0.950 . S
C209 C210 1.478 . S
C210 C209 1.478 . S
C210 C211 1.397 . S
C210 C227 1.394 . S
C211 C210 1.397 . S
C211 C212 1.438 . S
C211 C216 1.429 . S
C212 C211 1.438 . S
C212 C213 1.428 . S
C212 C225 1.394 1_455 S
C213 H205 0.949 1_455 S
C213 C212 1.428 . S
C213 C214 1.345 . S
C214 H206 0.950 . S
C214 C213 1.345 . S
C214 C215 1.424 . S
C215 H207 0.951 . S
C215 C214 1.424 . S
C215 C216 1.347 . S
C216 H208 0.951 . S
C216 C211 1.429 . S
C216 C215 1.347 . S
H217 C218 0.951 1_455 S
C218 H217 0.951 1_655 S
C218 C224 1.265 . S
H219 C224 0.950 . S
H220 C228 0.949 . S
H221 C229 0.950 . S
H222 C230 0.951 . S
H223 C231 0.951 . S
C224 C218 1.265 . S
C224 H219 0.950 . S
C224 C225 1.478 . S
C225 C212 1.394 1_655 S
C225 C224 1.478 . S
C225 C226 1.397 . S
C226 C225 1.397 . S
C226 C227 1.438 1_655 S
C226 C231 1.429 . S
C227 C210 1.394 . S
C227 C226 1.438 1_455 S
C227 C228 1.428 . S
C228 H220 0.949 . S
C228 C227 1.428 . S
C228 C229 1.345 1_455 S
C229 H221 0.950 . S
C229 C228 1.345 1_655 S
C229 C230 1.424 . S
C230 H222 0.951 . S
C230 C229 1.424 . S
C230 C231 1.347 . S
C231 H223 0.951 . S
C231 C226 1.429 . S
C231 C230 1.347 . S
H232 C233 0.951 . S
C233 H232 0.951 . S
C233 C239 1.265 . S
H234 C239 0.950 . S
H235 C243 0.949 . S
H236 C244 0.950 . S
H237 C245 0.951 . S
H238 C246 0.951 . S
C239 C233 1.265 . S
C239 H234 0.950 . S
C239 C240 1.478 . S
C240 C239 1.478 . S
C240 C241 1.397 . S
C240 C257 1.394 . S
C241 C240 1.397 . S
C241 C242 1.438 . S
C241 C246 1.429 . S
C242 C241 1.438 . S
C242 C243 1.428 . S
C242 C255 1.394 . S
C243 H235 0.949 . S
C243 C242 1.428 . S
C243 C244 1.345 . S
C244 H236 0.950 . S
C244 C243 1.345 . S
C244 C245 1.424 . S
C245 H237 0.951 . S
C245 C244 1.424 . S
C245 C246 1.347 . S
C246 H238 0.951 . S
C246 C241 1.429 . S
C246 C245 1.347 . S
H247 C248 0.951 . S
C248 H247 0.951 . S
C248 C254 1.265 . S
H249 C254 0.950 . S
H250 C258 0.949 . S
H251 C259 0.950 . S
H252 C260 0.951 . S
H253 C261 0.951 . S
C254 C248 1.265 . S
C254 H249 0.950 . S
C254 C255 1.478 . S
C255 C242 1.394 . S
C255 C254 1.478 . S
C255 C256 1.397 . S
C256 C255 1.397 . S
C256 C257 1.438 . S
C256 C261 1.429 . S
C257 C240 1.394 . S
C257 C256 1.438 . S
C257 C258 1.428 . S
C258 H250 0.949 . S
C258 C257 1.428 . S
C258 C259 1.345 . S
C259 H251 0.950 . S
C259 C258 1.345 . S
C259 C260 1.424 . S
C260 H252 0.951 . S
C260 C259 1.424 . S
C260 C261 1.347 . S
C261 H253 0.951 . S
C261 C256 1.429 . S
C261 C260 1.347 . S
H262 C263 0.951 . S
C263 H262 0.951 . S
C263 C269 1.265 . S
H264 C269 0.950 . S
H265 C273 0.949 . S
H266 C274 0.950 . S
H267 C275 0.951 . S
H268 C276 0.951 . S
C269 C263 1.265 . S
C269 H264 0.950 . S
C269 C270 1.478 . S
C270 C269 1.478 . S
C270 C271 1.397 . S
C270 C287 1.394 . S
C271 C270 1.397 . S
C271 C272 1.438 . S
C271 C276 1.429 . S
C272 C271 1.438 . S
C272 C273 1.428 . S
C272 C285 1.394 . S
C273 H265 0.949 . S
C273 C272 1.428 . S
C273 C274 1.345 . S
C274 H266 0.950 . S
C274 C273 1.345 . S
C274 C275 1.424 . S
C275 H267 0.951 . S
C275 C274 1.424 . S
C275 C276 1.347 . S
C276 H268 0.951 . S
C276 C271 1.429 . S
C276 C275 1.347 . S
H277 C278 0.951 . S
C278 H277 0.951 . S
C278 C284 1.265 . S
H279 C284 0.950 . S
H280 C288 0.949 . S
H281 C289 0.950 . S
H282 C290 0.951 . S
H283 C291 0.951 . S
C284 C278 1.265 . S
C284 H279 0.950 . S
C284 C285 1.478 . S
C285 C272 1.394 . S
C285 C284 1.478 . S
C285 C286 1.397 . S
C286 C285 1.397 . S
C286 C287 1.438 . S
C286 C291 1.429 . S
C287 C270 1.394 . S
C287 C286 1.438 . S
C287 C288 1.428 . S
C288 H280 0.949 . S
C288 C287 1.428 . S
C288 C289 1.345 . S
C289 H281 0.950 . S
C289 C288 1.345 . S
C289 C290 1.424 . S
C290 H282 0.951 . S
C290 C289 1.424 . S
C290 C291 1.347 . S
C291 H283 0.951 . S
C291 C286 1.429 . S
C291 C290 1.347 . S
H292 C293 0.951 . S
C293 H292 0.951 . S
C293 C299 1.265 . S
H294 C299 0.950 . S
H295 C303 0.949 . S
H296 C304 0.950 . S
H297 C305 0.951 . S
H298 C306 0.951 . S
C299 C293 1.265 . S
C299 H294 0.950 . S
C299 C300 1.478 . S
C300 C299 1.478 . S
C300 C301 1.397 . S
C300 C317 1.394 . S
C301 C300 1.397 . S
C301 C302 1.438 . S
C301 C306 1.429 . S
C302 C301 1.438 . S
C302 C303 1.428 . S
C302 C315 1.394 . S
C303 H295 0.949 . S
C303 C302 1.428 . S
C303 C304 1.345 . S
C304 H296 0.950 . S
C304 C303 1.345 . S
C304 C305 1.424 . S
C305 H297 0.951 . S
C305 C304 1.424 . S
C305 C306 1.347 . S
C306 H298 0.951 . S
C306 C301 1.429 . S
C306 C305 1.347 . S
H307 C308 0.951 . S
C308 H307 0.951 . S
C308 C314 1.265 . S
H309 C314 0.950 . S
H310 C318 0.949 . S
H311 C319 0.950 . S
H312 C320 0.951 . S
H313 C321 0.951 . S
C314 C308 1.265 . S
C314 H309 0.950 . S
C314 C315 1.478 . S
C315 C302 1.394 . S
C315 C314 1.478 . S
C315 C316 1.397 . S
C316 C315 1.397 . S
C316 C317 1.438 . S
C316 C321 1.429 . S
C317 C300 1.394 . S
C317 C316 1.438 . S
C317 C318 1.428 . S
C318 H310 0.949 . S
C318 C317 1.428 . S
C318 C319 1.345 . S
C319 H311 0.950 . S
C319 C318 1.345 . S
C319 C320 1.424 . S
C320 H312 0.951 . S
C320 C319 1.424 . S
C320 C321 1.347 . S
C321 H313 0.951 . S
C321 C316 1.429 . S
C321 C320 1.347 . S
H322 C323 0.951 . S
C323 H322 0.951 . S
C323 C329 1.265 . S
H324 C329 0.950 . S
H325 C333 0.949 . S
H326 C334 0.950 . S
H327 C335 0.951 . S
H328 C336 0.951 . S
C329 C323 1.265 . S
C329 H324 0.950 . S
C329 C330 1.478 . S
C330 C329 1.478 . S
C330 C331 1.397 . S
C330 C347 1.394 . S
C331 C330 1.397 . S
C331 C332 1.438 . S
C331 C336 1.429 . S
C332 C331 1.438 . S
C332 C333 1.428 . S
C332 C345 1.394 . S
C333 H325 0.949 . S
C333 C332 1.428 . S
C333 C334 1.345 . S
C334 H326 0.950 . S
C334 C333 1.345 . S
C334 C335 1.424 . S
C335 H327 0.951 . S
C335 C334 1.424 . S
C335 C336 1.347 . S
C336 H328 0.951 . S
C336 C331 1.429 . S
C336 C335 1.347 . S
H337 C338 0.951 . S
C338 H337 0.951 . S
C338 C344 1.265 . S
H339 C344 0.950 . S
H340 C348 0.949 . S
H341 C349 0.950 . S
H342 C350 0.951 . S
H343 C351 0.951 . S
C344 C338 1.265 . S
C344 H339 0.950 . S
C344 C345 1.478 . S
C345 C332 1.394 . S
C345 C344 1.478 . S
C345 C346 1.397 . S
C346 C345 1.397 . S
C346 C347 1.438 . S
C346 C351 1.429 . S
C347 C330 1.394 . S
C347 C346 1.438 . S
C347 C348 1.428 . S
C348 H340 0.949 . S
C348 C347 1.428 . S
C348 C349 1.345 . S
C349 H341 0.950 . S
C349 C348 1.345 . S
C349 C350 1.424 . S
C350 H342 0.951 . S
C350 C349 1.424 . S
C350 C351 1.347 . S
C351 H343 0.951 . S
C351 C346 1.429 . S
C351 C350 1.347 . S
H352 C353 0.951 . S
C353 H352 0.951 . S
C353 C359 1.265 . S
H354 C359 0.950 . S
H355 C363 0.949 . S
H356 C364 0.951 . S
H357 C365 0.951 . S
H358 C366 0.951 . S
C359 C353 1.265 . S
C359 H354 0.950 . S
C359 C360 1.478 . S
C360 C359 1.478 . S
C360 C361 1.397 . S
C360 C377 1.394 . S
C361 C360 1.397 . S
C361 C362 1.438 1_655 S
C361 C366 1.429 . S
C362 C361 1.438 1_455 S
C362 C363 1.428 . S
C362 C375 1.394 . S
C363 H355 0.949 . S
C363 C362 1.428 . S
C363 C364 1.346 . S
C364 H356 0.951 . S
C364 C363 1.346 . S
C364 C365 1.422 1_455 S
C365 H357 0.951 . S
C365 C364 1.422 1_655 S
C365 C366 1.347 . S
C366 H358 0.951 . S
C366 C361 1.429 . S
C366 C365 1.347 . S
H367 C368 0.951 . S
C368 H367 0.951 . S
C368 C374 1.265 . S
H369 C374 0.950 . S
H370 C378 0.949 . S
H371 C379 0.950 . S
H372 C380 0.951 . S
H373 C381 0.951 . S
C374 C368 1.265 . S
C374 H369 0.950 . S
C374 C375 1.478 . S
C375 C362 1.394 . S
C375 C374 1.478 . S
C375 C376 1.397 . S
C376 C375 1.397 . S
C376 C377 1.438 1_455 S
C376 C381 1.429 . S
C377 C360 1.394 . S
C377 C376 1.438 1_655 S
C377 C378 1.428 . S
C378 H370 0.949 . S
C378 C377 1.428 . S
C378 C379 1.345 . S
C379 H371 0.950 . S
C379 C378 1.345 . S
C379 C380 1.424 1_655 S
C380 H372 0.951 . S
C380 C379 1.424 1_455 S
C380 C381 1.347 . S
C381 H373 0.951 . S
C381 C376 1.429 . S
C381 C380 1.347 . S
H382 C383 0.951 . S
C383 H382 0.951 . S
C383 C389 1.265 . S
H384 C389 0.950 . S
H385 C393 0.949 . S
H386 C394 0.950 . S
H387 C395 0.951 . S
H388 C396 0.951 . S
C389 C383 1.265 . S
C389 H384 0.950 . S
C389 C390 1.478 . S
C390 C389 1.478 . S
C390 C391 1.397 . S
C390 C407 1.394 . S
C391 C390 1.397 . S
C391 C392 1.438 1_655 S
C391 C396 1.429 . S
C392 C391 1.438 1_455 S
C392 C393 1.428 . S
C392 C405 1.394 . S
C393 H385 0.949 . S
C393 C392 1.428 . S
C393 C394 1.345 . S
C394 H386 0.950 . S
C394 C393 1.345 . S
C394 C395 1.424 1_455 S
C395 H387 0.951 . S
C395 C394 1.424 1_655 S
C395 C396 1.347 . S
C396 H388 0.951 . S
C396 C391 1.429 . S
C396 C395 1.347 . S
H397 C398 0.951 . S
C398 H397 0.951 . S
C398 C404 1.265 . S
H399 C404 0.950 . S
H400 C408 0.949 . S
H401 C409 0.950 . S
H402 C410 0.951 . S
H403 C411 0.951 . S
C404 C398 1.265 . S
C404 H399 0.950 . S
C404 C405 1.478 . S
C405 C392 1.394 . S
C405 C404 1.478 . S
C405 C406 1.397 . S
C406 C405 1.397 . S
C406 C407 1.438 1_455 S
C406 C411 1.429 . S
C407 C390 1.394 . S
C407 C406 1.438 1_655 S
C407 C408 1.428 . S
C408 H400 0.949 . S
C408 C407 1.428 . S
C408 C409 1.345 . S
C409 H401 0.950 . S
C409 C408 1.345 . S
C409 C410 1.424 1_655 S
C410 H402 0.951 . S
C410 C409 1.424 1_455 S
C410 C411 1.347 . S
C411 H403 0.951 . S
C411 C406 1.429 . S
C411 C410 1.347 . S
H412 C413 0.951 . S
C413 H412 0.951 . S
C413 C419 1.265 . S
H414 C419 0.950 . S
H415 C423 0.949 . S
H416 C424 0.950 . S
H417 C425 0.951 . S
H418 C426 0.951 . S
C419 C413 1.265 . S
C419 H414 0.950 . S
C419 C420 1.478 . S
C420 C419 1.478 . S
C420 C421 1.397 . S
C420 C437 1.394 . S
C421 C420 1.397 . S
C421 C422 1.438 . S
C421 C426 1.429 . S
C422 C421 1.438 . S
C422 C423 1.428 . S
C422 C435 1.394 . S
C423 H415 0.949 . S
C423 C422 1.428 . S
C423 C424 1.345 . S
C424 H416 0.950 . S
C424 C423 1.345 . S
C424 C425 1.424 . S
C425 H417 0.951 . S
C425 C424 1.424 . S
C425 C426 1.347 . S
C426 H418 0.951 . S
C426 C421 1.429 . S
C426 C425 1.347 . S
H427 C428 0.951 . S
C428 H427 0.951 . S
C428 C434 1.265 . S
H429 C434 0.950 . S
H430 C438 0.949 . S
H431 C439 0.950 . S
H432 C440 0.951 1_655 S
H433 C441 0.951 . S
C434 C428 1.265 . S
C434 H429 0.950 . S
C434 C435 1.478 . S
C435 C422 1.394 . S
C435 C434 1.478 . S
C435 C436 1.397 . S
C436 C435 1.397 . S
C436 C437 1.438 . S
C436 C441 1.429 . S
C437 C420 1.394 . S
C437 C436 1.438 . S
C437 C438 1.428 . S
C438 H430 0.949 . S
C438 C437 1.428 . S
C438 C439 1.345 . S
C439 H431 0.950 . S
C439 C438 1.345 . S
C439 C440 1.424 . S
C440 H432 0.951 1_455 S
C440 C439 1.424 . S
C440 C441 1.347 . S
C441 H433 0.951 . S
C441 C436 1.429 . S
C441 C440 1.347 . S
H442 C443 0.951 . S
C443 H442 0.951 . S
C443 C449 1.265 . S
H444 C449 0.950 . S
H445 C453 0.949 . S
H446 C454 0.950 . S
H447 C455 0.951 . S
H448 C456 0.951 . S
C449 C443 1.265 . S
C449 H444 0.950 . S
C449 C450 1.478 . S
C450 C449 1.478 . S
C450 C451 1.397 1_556 S
C450 C467 1.394 . S
C451 C450 1.397 1_554 S
C451 C452 1.438 . S
C451 C456 1.429 . S
C452 C451 1.438 . S
C452 C453 1.428 . S
C452 C465 1.394 . S
C453 H445 0.949 . S
C453 C452 1.428 . S
C453 C454 1.345 . S
C454 H446 0.950 . S
C454 C453 1.345 . S
C454 C455 1.424 . S
C455 H447 0.951 . S
C455 C454 1.424 . S
C455 C456 1.347 . S
C456 H448 0.951 . S
C456 C451 1.429 . S
C456 C455 1.347 . S
H457 C458 0.951 . S
C458 H457 0.951 . S
C458 C464 1.265 . S
H459 C464 0.950 . S
H460 C468 0.949 . S
H461 C469 0.950 . S
H462 C470 0.951 . S
H463 C471 0.951 . S
C464 C458 1.265 . S
C464 H459 0.950 . S
C464 C465 1.478 . S
C465 C452 1.394 . S
C465 C464 1.478 . S
C465 C466 1.397 1_554 S
C466 C465 1.397 1_556 S
C466 C467 1.438 . S
C466 C471 1.429 . S
C467 C450 1.394 . S
C467 C466 1.438 . S
C467 C468 1.428 . S
C468 H460 0.949 . S
C468 C467 1.428 . S
C468 C469 1.345 . S
C469 H461 0.950 . S
C469 C468 1.345 . S
C469 C470 1.424 . S
C470 H462 0.951 . S
C470 C469 1.424 . S
C470 C471 1.347 . S
C471 H463 0.951 . S
C471 C466 1.429 . S
C471 C470 1.347 . S
H472 C473 0.951 . S
C473 H472 0.951 . S
C473 C479 1.265 . S
H474 C479 0.950 . S
H475 C483 0.949 . S
H476 C484 0.950 . S
H477 C485 0.951 . S
H478 C486 0.951 . S
C479 C473 1.265 . S
C479 H474 0.950 . S
C479 C480 1.478 . S
C480 C479 1.478 . S
C480 C481 1.397 . S
C480 C497 1.394 . S
C481 C480 1.397 . S
C481 C482 1.438 . S
C481 C486 1.429 . S
C482 C481 1.438 . S
C482 C483 1.428 . S
C482 C495 1.394 . S
C483 H475 0.949 . S
C483 C482 1.428 . S
C483 C484 1.345 . S
C484 H476 0.950 . S
C484 C483 1.345 . S
C484 C485 1.424 . S
C485 H477 0.951 . S
C485 C484 1.424 . S
C485 C486 1.347 . S
C486 H478 0.951 . S
C486 C481 1.429 . S
C486 C485 1.347 . S
H487 C488 0.951 . S
C488 H487 0.951 . S
C488 C494 1.265 . S
H489 C494 0.950 . S
H490 C498 0.949 . S
H491 C499 0.950 . S
H492 C500 0.951 1_455 S
H493 C501 0.951 . S
C494 C488 1.265 . S
C494 H489 0.950 . S
C494 C495 1.478 . S
C495 C482 1.394 . S
C495 C494 1.478 . S
C495 C496 1.397 . S
C496 C495 1.397 . S
C496 C497 1.438 . S
C496 C501 1.429 . S
C497 C480 1.394 . S
C497 C496 1.438 . S
C497 C498 1.428 . S
C498 H490 0.949 . S
C498 C497 1.428 . S
C498 C499 1.345 . S
C499 H491 0.950 . S
C499 C498 1.345 . S
C499 C500 1.424 . S
C500 H492 0.951 1_655 S
C500 C499 1.424 . S
C500 C501 1.347 . S
C501 H493 0.951 . S
C501 C496 1.429 . S
C501 C500 1.347 . S
H502 C503 0.951 . S
C503 H502 0.951 . S
C503 C509 1.265 . S
H504 C509 0.950 . S
H505 C513 0.949 . S
H506 C514 0.950 1_655 S
H507 C515 0.951 . S
H508 C516 0.951 . S
C509 C503 1.265 . S
C509 H504 0.950 . S
C509 C510 1.478 . S
C510 C509 1.478 . S
C510 C511 1.397 1_554 S
C510 C527 1.394 . S
C511 C510 1.397 1_556 S
C511 C512 1.438 . S
C511 C516 1.429 . S
C512 C511 1.438 . S
C512 C513 1.428 . S
C512 C525 1.394 . S
C513 H505 0.949 . S
C513 C512 1.428 . S
C513 C514 1.345 . S
C514 H506 0.950 1_455 S
C514 C513 1.345 . S
C514 C515 1.424 . S
C515 H507 0.951 . S
C515 C514 1.424 . S
C515 C516 1.347 . S
C516 H508 0.951 . S
C516 C511 1.429 . S
C516 C515 1.347 . S
H517 C518 0.951 . S
C518 H517 0.951 . S
C518 C524 1.265 . S
H519 C524 0.950 . S
H520 C528 0.949 . S
H521 C529 0.950 . S
H522 C530 0.951 . S
H523 C531 0.951 . S
C524 C518 1.265 . S
C524 H519 0.950 . S
C524 C525 1.478 . S
C525 C512 1.394 . S
C525 C524 1.478 . S
C525 C526 1.397 1_556 S
C526 C525 1.397 1_554 S
C526 C527 1.438 . S
C526 C531 1.429 . S
C527 C510 1.394 . S
C527 C526 1.438 . S
C527 C528 1.428 . S
C528 H520 0.949 . S
C528 C527 1.428 . S
C528 C529 1.345 . S
C529 H521 0.950 . S
C529 C528 1.345 . S
C529 C530 1.424 . S
C530 H522 0.951 . S
C530 C529 1.424 . S
C530 C531 1.347 . S
C531 H523 0.951 . S
C531 C526 1.429 . S
C531 C530 1.347 . S
H532 C533 0.951 . S
C533 H532 0.951 . S
C533 C539 1.265 . S
H534 C539 0.950 1_455 S
H535 C543 0.949 1_556 S
H536 C544 0.950 . S
H537 C545 0.951 . S
H538 C546 0.951 . S
C539 C533 1.265 . S
C539 H534 0.950 1_655 S
C539 C540 1.478 . S
C540 C539 1.478 . S
C540 C541 1.397 1_645 S
C540 C557 1.394 1_554 S
C541 C540 1.397 1_465 S
C541 C542 1.438 . S
C541 C546 1.429 . S
C542 C541 1.438 . S
C542 C543 1.428 . S
C542 C555 1.394 1_554 S
C543 H535 0.949 1_554 S
C543 C542 1.428 . S
C543 C544 1.345 . S
C544 H536 0.950 . S
C544 C543 1.345 . S
C544 C545 1.424 . S
C545 H537 0.951 . S
C545 C544 1.424 . S
C545 C546 1.347 . S
C546 H538 0.951 . S
C546 C541 1.429 . S
C546 C545 1.347 . S
H547 C548 0.951 . S
C548 H547 0.951 . S
C548 C554 1.265 . S
H549 C554 0.950 1_655 S
H550 C558 0.949 1_554 S
H551 C559 0.950 . S
H552 C560 0.951 . S
H553 C561 0.951 . S
C554 C548 1.265 . S
C554 H549 0.950 1_455 S
C554 C555 1.478 . S
C555 C542 1.394 1_556 S
C555 C554 1.478 . S
C555 C556 1.397 1_465 S
C556 C555 1.397 1_645 S
C556 C557 1.438 . S
C556 C561 1.429 . S
C557 C540 1.394 1_556 S
C557 C556 1.438 . S
C557 C558 1.428 . S
C558 H550 0.949 1_556 S
C558 C557 1.428 . S
C558 C559 1.345 . S
C559 H551 0.950 . S
C559 C558 1.345 . S
C559 C560 1.424 . S
C560 H552 0.951 . S
C560 C559 1.424 . S
C560 C561 1.347 . S
C561 H553 0.951 . S
C561 C556 1.429 . S
C561 C560 1.347 . S
H562 C563 0.951 . S
C563 H562 0.951 . S
C563 C569 1.265 . S
H564 C569 0.950 1_655 S
H565 C573 0.949 . S
H566 C574 0.950 . S
H567 C575 0.951 . S
H568 C576 0.951 . S
C569 C563 1.265 . S
C569 H564 0.950 1_455 S
C569 C570 1.478 . S
C570 C569 1.478 . S
C570 C571 1.397 1_445 S
C570 C587 1.394 . S
C571 C570 1.397 1_665 S
C571 C572 1.438 . S
C571 C576 1.429 . S
C572 C571 1.438 . S
C572 C573 1.428 . S
C572 C585 1.394 . S
C573 H565 0.949 . S
C573 C572 1.428 . S
C573 C574 1.345 . S
C574 H566 0.950 . S
C574 C573 1.345 . S
C574 C575 1.424 . S
C575 H567 0.951 . S
C575 C574 1.424 . S
C575 C576 1.347 . S
C576 H568 0.951 . S
C576 C571 1.429 . S
C576 C575 1.347 . S
H577 C578 0.951 . S
C578 H577 0.951 . S
C578 C584 1.265 . S
H579 C584 0.950 1_455 S
H580 C588 0.949 . S
H581 C589 0.950 . S
H582 C590 0.951 . S
H583 C591 0.951 . S
C584 C578 1.265 . S
C584 H579 0.950 1_655 S
C584 C585 1.478 . S
C585 C572 1.394 . S
C585 C584 1.478 . S
C585 C586 1.397 1_665 S
C586 C585 1.397 1_445 S
C586 C587 1.438 . S
C586 C591 1.429 . S
C587 C570 1.394 . S
C587 C586 1.438 . S
C587 C588 1.428 . S
C588 H580 0.949 . S
C588 C587 1.428 . S
C588 C589 1.345 . S
C589 H581 0.950 . S
C589 C588 1.345 . S
C589 C590 1.424 . S
C590 H582 0.951 . S
C590 C589 1.424 . S
C590 C591 1.347 . S
C591 H583 0.951 . S
C591 C586 1.429 . S
C591 C590 1.347 . S
H592 C593 0.951 . S
C593 H592 0.951 . S
C593 C599 1.265 . S
H594 C599 0.950 . S
H595 C603 0.949 1_556 S
H596 C604 0.950 . S
H597 C605 0.951 . S
H598 C606 0.951 . S
C599 C593 1.265 . S
C599 H594 0.950 . S
C599 C600 1.478 . S
C600 C599 1.478 . S
C600 C601 1.397 . S
C600 C617 1.394 1_554 S
C601 C600 1.397 . S
C601 C602 1.438 . S
C601 C606 1.429 . S
C602 C601 1.438 . S
C602 C603 1.428 . S
C602 C615 1.394 1_554 S
C603 H595 0.949 1_554 S
C603 C602 1.428 . S
C603 C604 1.345 . S
C604 H596 0.950 . S
C604 C603 1.345 . S
C604 C605 1.424 . S
C605 H597 0.951 . S
C605 C604 1.424 . S
C605 C606 1.347 . S
C606 H598 0.951 . S
C606 C601 1.429 . S
C606 C605 1.347 . S
H607 C608 0.951 . S
C608 H607 0.951 . S
C608 C614 1.265 . S
H609 C614 0.950 . S
H610 C618 0.949 1_554 S
H611 C619 0.950 . S
H612 C620 0.951 . S
H613 C621 0.951 . S
C614 C608 1.265 . S
C614 H609 0.950 . S
C614 C615 1.478 . S
C615 C602 1.394 1_556 S
C615 C614 1.478 . S
C615 C616 1.397 . S
C616 C615 1.397 . S
C616 C617 1.438 . S
C616 C621 1.429 . S
C617 C600 1.394 1_556 S
C617 C616 1.438 . S
C617 C618 1.428 . S
C618 H610 0.949 1_556 S
C618 C617 1.428 . S
C618 C619 1.345 . S
C619 H611 0.950 . S
C619 C618 1.345 . S
C619 C620 1.424 . S
C620 H612 0.951 . S
C620 C619 1.424 . S
C620 C621 1.347 . S
C621 H613 0.951 . S
C621 C616 1.429 . S
C621 C620 1.347 . S
H622 C623 0.951 . S
C623 H622 0.951 . S
C623 C629 1.265 . S
H624 C629 0.950 . S
H625 C633 0.949 . S
H626 C634 0.950 . S
H627 C635 0.951 . S
H628 C636 0.951 . S
C629 C623 1.265 . S
C629 H624 0.950 . S
C629 C630 1.478 . S
C630 C629 1.478 . S
C630 C631 1.397 . S
C630 C647 1.394 . S
C631 C630 1.397 . S
C631 C632 1.438 . S
C631 C636 1.429 . S
C632 C631 1.438 . S
C632 C633 1.428 . S
C632 C645 1.394 . S
C633 H625 0.949 . S
C633 C632 1.428 . S
C633 C634 1.345 . S
C634 H626 0.950 . S
C634 C633 1.345 . S
C634 C635 1.424 . S
C635 H627 0.951 . S
C635 C634 1.424 . S
C635 C636 1.347 . S
C636 H628 0.951 . S
C636 C631 1.429 . S
C636 C635 1.347 . S
H637 C638 0.951 . S
C638 H637 0.951 . S
C638 C644 1.265 . S
H639 C644 0.950 . S
H640 C648 0.949 . S
H641 C649 0.950 . S
H642 C650 0.951 . S
H643 C651 0.951 . S
C644 C638 1.265 . S
C644 H639 0.950 . S
C644 C645 1.478 . S
C645 C632 1.394 . S
C645 C644 1.478 . S
C645 C646 1.397 . S
C646 C645 1.397 . S
C646 C647 1.438 . S
C646 C651 1.429 . S
C647 C630 1.394 . S
C647 C646 1.438 . S
C647 C648 1.428 . S
C648 H640 0.949 . S
C648 C647 1.428 . S
C648 C649 1.345 . S
C649 H641 0.950 . S
C649 C648 1.345 . S
C649 C650 1.424 . S
C650 H642 0.951 . S
C650 C649 1.424 . S
C650 C651 1.347 . S
C651 H643 0.951 . S
C651 C646 1.429 . S
C651 C650 1.347 . S
C173 N3 1.222 . S
C188 N8 1.230 . S
C203 N46 1.168 . S
C218 N51 1.255 . S
C233 N89 1.147 . S
C248 N94 1.239 . S
C263 N137 1.247 . S
C278 N132 1.239 . S
C293 C40 1.109 . S
C308 C27 1.111 . S
C323 C83 1.242 . S
C338 C70 1.242 . S
C353 C113 1.243 . S
C368 C126 1.242 . S
C383 C156 1.242 . S
C398 C169 1.242 . S
C413 C162 1.523 . S
C428 C32 1.536 . S
C443 C142 1.496 . S
C458 C39 1.497 . S
C473 C118 1.481 . S
C488 C76 1.462 . S
C503 C125 1.593 . S
C518 C56 1.597 . S
C533 C33 1.822 . S
C548 C75 1.804 . S
C563 C13 1.841 . S
C578 C82 1.863 . S
C593 C119 1.824 . S
C608 C161 1.806 . S
C623 C168 1.870 . S
C638 C99 1.847 . S
