# Generated by pormake.
# Topology wlc, (5)-cn, num edge types: 1
# Building blocks:
#     Node 0, Type 0, BuildingBlock: BEQFEK_clean_sbu_0, # of connection points: 5
#     Node 1, Type 0, BuildingBlock: BEQFEK_clean_sbu_0, # of connection points: 5
#     Node 2, Type 0, BuildingBlock: BEQFEK_clean_sbu_0, # of connection points: 5
#     Node 3, Type 0, BuildingBlock: BEQFEK_clean_sbu_0, # of connection points: 5
#     Node 4, Type 0, BuildingBlock: BEQFEK_clean_sbu_0, # of connection points: 5
#     Node 5, Type 0, BuildingBlock: BEQFEK_clean_sbu_0, # of connection points: 5
#     Node 6, Type 0, BuildingBlock: BEQFEK_clean_sbu_0, # of connection points: 5
#     Node 7, Type 0, BuildingBlock: BEQFEK_clean_sbu_0, # of connection points: 5
#     Node 8, Type 0, BuildingBlock: BEQFEK_clean_sbu_0, # of connection points: 5
#     Node 9, Type 0, BuildingBlock: BEQFEK_clean_sbu_0, # of connection points: 5
#     Node 10, Type 0, BuildingBlock: BEQFEK_clean_sbu_0, # of connection points: 5
#     Node 11, Type 0, BuildingBlock: BEQFEK_clean_sbu_0, # of connection points: 5
#     Edge 12, Type (0, 0), BuildingBlock: CIFDUS_clean_linker_0, # of connection points: 2
#     Edge 13, Type (0, 0), BuildingBlock: CIFDUS_clean_linker_0, # of connection points: 2
#     Edge 14, Type (0, 0), BuildingBlock: CIFDUS_clean_linker_0, # of connection points: 2
#     Edge 15, Type (0, 0), BuildingBlock: CIFDUS_clean_linker_0, # of connection points: 2
#     Edge 16, Type (0, 0), BuildingBlock: CIFDUS_clean_linker_0, # of connection points: 2
#     Edge 17, Type (0, 0), BuildingBlock: CIFDUS_clean_linker_0, # of connection points: 2
#     Edge 18, Type (0, 0), BuildingBlock: CIFDUS_clean_linker_0, # of connection points: 2
#     Edge 19, Type (0, 0), BuildingBlock: CIFDUS_clean_linker_0, # of connection points: 2
#     Edge 20, Type (0, 0), BuildingBlock: CIFDUS_clean_linker_0, # of connection points: 2
#     Edge 21, Type (0, 0), BuildingBlock: CIFDUS_clean_linker_0, # of connection points: 2
#     Edge 22, Type (0, 0), BuildingBlock: CIFDUS_clean_linker_0, # of connection points: 2
#     Edge 23, Type (0, 0), BuildingBlock: CIFDUS_clean_linker_0, # of connection points: 2
#     Edge 24, Type (0, 0), BuildingBlock: CIFDUS_clean_linker_0, # of connection points: 2
#     Edge 25, Type (0, 0), BuildingBlock: CIFDUS_clean_linker_0, # of connection points: 2
#     Edge 26, Type (0, 0), BuildingBlock: CIFDUS_clean_linker_0, # of connection points: 2
#     Edge 27, Type (0, 0), BuildingBlock: CIFDUS_clean_linker_0, # of connection points: 2
#     Edge 28, Type (0, 0), BuildingBlock: CIFDUS_clean_linker_0, # of connection points: 2
#     Edge 29, Type (0, 0), BuildingBlock: CIFDUS_clean_linker_0, # of connection points: 2
#     Edge 30, Type (0, 0), BuildingBlock: CIFDUS_clean_linker_0, # of connection points: 2
#     Edge 31, Type (0, 0), BuildingBlock: CIFDUS_clean_linker_0, # of connection points: 2
#     Edge 32, Type (0, 0), BuildingBlock: CIFDUS_clean_linker_0, # of connection points: 2
#     Edge 33, Type (0, 0), BuildingBlock: CIFDUS_clean_linker_0, # of connection points: 2
#     Edge 34, Type (0, 0), BuildingBlock: CIFDUS_clean_linker_0, # of connection points: 2
#     Edge 35, Type (0, 0), BuildingBlock: CIFDUS_clean_linker_0, # of connection points: 2
#     Edge 36, Type (0, 0), BuildingBlock: CIFDUS_clean_linker_0, # of connection points: 2
#     Edge 37, Type (0, 0), BuildingBlock: CIFDUS_clean_linker_0, # of connection points: 2
#     Edge 38, Type (0, 0), BuildingBlock: CIFDUS_clean_linker_0, # of connection points: 2
#     Edge 39, Type (0, 0), BuildingBlock: CIFDUS_clean_linker_0, # of connection points: 2
#     Edge 40, Type (0, 0), BuildingBlock: CIFDUS_clean_linker_0, # of connection points: 2
#     Edge 41, Type (0, 0), BuildingBlock: CIFDUS_clean_linker_0, # of connection points: 2
# Relax obj value: 0.802
# Max RMSD: 0.279
# Mean RMSD: 0.279
data_MOF--net-wlc--node1-BEQFEK_clean_sbu_0--edge1-CIFDUS_clean_linker_0
_symmetry_space_group_name_H-M    P1
_symmetry_Int_Tables_number       1
_symmetry_cell_setting            triclinic
loop_
_symmetry_equiv_pos_as_xyz
'x, y, z'
_cell_length_a     41.223724
_cell_length_b     41.250667
_cell_length_c     27.072857
_cell_angle_alpha  89.876861
_cell_angle_beta   90.007045
_cell_angle_gamma 120.0651
loop_
_atom_site_label
_atom_site_type_symbol
_atom_site_fract_x
_atom_site_fract_y
_atom_site_fract_z
_atom_type_partial_charge
Co0 Co 0.10398 0.41047 0.15132 0.0
Co1 Co 0.05146 0.33706 0.10209 0.0
C2 C 0.1335 0.36823 0.12705 0.0
O3 O 0.13958 0.40068 0.11736 0.0
O4 O 0.10025 0.34106 0.12299 0.0
C5 C 0.16059 0.48598 0.16227 0.0
O6 O 0.16904 0.48144 0.11698 0.0
C7 C 0.04629 0.30931 0.00507 0.0
C8 C 0.993 0.25564 0.00325 0.0
C9 C 0.02195 0.2814 0.97351 0.0
N10 N 0.03215 0.30111 0.05088 0.0
N11 N 0.00075 0.26843 0.05009 0.0
C12 C 0.08041 0.34555 0.99132 0.0
H13 H 0.10137 0.35484 0.0215 0.0
H14 H 0.07262 0.36745 0.98614 0.0
H15 H 0.09284 0.34261 0.95642 0.0
C16 C 0.06401 0.43963 0.09178 0.0
N17 N 0.07181 0.41282 0.10519 0.0
N18 N 0.04944 0.38148 0.08203 0.0
C19 C 0.02621 0.38754 0.05287 0.0
C20 C 0.03524 0.42485 0.05742 0.0
C21 C 0.08033 0.47714 0.11608 0.0
H22 H 0.10707 0.49672 0.09751 0.0
H23 H 0.06122 0.48871 0.11326 0.0
H24 H 0.08575 0.47498 0.15566 0.0
O25 O 0.07369 0.37011 0.20106 0.0
O26 O 0.02572 0.32018 0.16572 0.0
H27 H 0.96799 0.34742 0.04633 0.0
H28 H 0.99029 0.36956 0.98904 0.0
C29 C 0.99399 0.35788 0.02418 0.0
H30 H -0.00217 0.33388 0.01624 0.0
H31 H 0.9834 0.25619 0.08069 0.0
O32 O 0.13375 0.45852 0.18463 0.0
C33 C 0.04405 0.33782 0.20417 0.0
Co34 Co 0.56306 0.65767 0.1841 0.0
Co35 Co 0.63346 0.69418 0.11485 0.0
C36 C 0.60982 0.73975 0.17523 0.0
O37 O 0.58222 0.71065 0.19313 0.0
O38 O 0.63098 0.73777 0.14268 0.0
C39 C 0.49141 0.64373 0.21253 0.0
O40 O 0.49872 0.67013 0.1799 0.0
C41 C 0.6537 0.72267 0.01695 0.0
C42 C 0.7016 0.71536 -0.00172 0.0
C43 C 0.67567 0.72357 0.97759 0.0
N44 N 0.66504 0.71301 0.05811 0.0
N45 N 0.69454 0.70983 0.04717 0.0
C46 C 0.62076 0.72869 0.01533 0.0
H47 H 0.59437 0.70131 0.01585 0.0
H48 H 0.62145 0.74434 0.98156 0.0
H49 H 0.62076 0.74445 0.04845 0.0
C50 C 0.52817 0.6116 0.09633 0.0
N51 N 0.5566 0.64188 0.11801 0.0
N52 N 0.58723 0.65317 0.09187 0.0
C53 C 0.57968 0.62901 0.05414 0.0
C54 C 0.54182 0.60224 0.0552 0.0
C55 C 0.48891 0.59147 0.1156 0.0
H56 H 0.47964 0.61214 0.12074 0.0
H57 H 0.46916 0.56985 0.08961 0.0
H58 H 0.48806 0.57839 0.15177 0.0
O59 O 0.60042 0.6472 0.21532 0.0
O60 O 0.6527 0.67608 0.16951 0.0
H61 H 0.59995 0.5971 0.01489 0.0
H62 H 0.6144 0.6426 0.99002 0.0
C63 C 0.60914 0.62657 0.02473 0.0
H64 H 0.63559 0.63826 0.04602 0.0
H65 H 0.70773 0.70077 0.07197 0.0
O66 O 0.51499 0.63291 0.21992 0.0
C67 C 0.63463 0.65671 0.20726 0.0
Co68 Co 0.34176 0.95501 0.17419 0.0
Co69 Co 0.30376 0.97459 0.0891 0.0
C70 C 0.25993 0.90777 0.14933 0.0
O71 O 0.28903 0.91852 0.1751 0.0
O72 O 0.26075 0.92449 0.10949 0.0
C73 C 0.35543 0.89857 0.19132 0.0
O74 O 0.33551 0.88811 0.15055 0.0
C75 C 0.27089 0.97109 0.99098 0.0
C76 C 0.28536 0.02983 0.97973 0.0
C77 C 0.26874 0.99515 0.9567 0.0
N78 N 0.28856 0.99088 0.03166 0.0
N79 N 0.29665 0.02586 0.02487 0.0
C80 C 0.25577 0.92981 0.98581 0.0
H81 H 0.24506 0.91548 0.02162 0.0
H82 H 0.27855 0.92471 0.97378 0.0
H83 H 0.23265 0.91742 0.95846 0.0
C84 C 0.39952 0.97373 0.10024 0.0
N85 N 0.36495 0.96669 0.11234 0.0
N86 N 0.34984 0.97462 0.07492 0.0
C87 C 0.37464 0.98643 0.03687 0.0
C88 C 0.40678 0.98564 0.05167 0.0
C89 C 0.42784 0.97615 0.13702 0.0
H90 H 0.42079 0.98119 0.17466 0.0
H91 H 0.42846 0.94964 0.13671 0.0
H92 H 0.45635 -0.00082 0.12736 0.0
O93 O 0.34582 -0.00023 0.20302 0.0
O94 O 0.31167 0.0095 0.14702 0.0
H95 H 0.36622 0.02556 0.99498 0.0
H96 H 0.39191 0.00717 0.96233 0.0
C97 C 0.36867 0.00032 0.98857 0.0
H98 H 0.34208 0.97857 0.97194 0.0
H99 H 0.31077 0.04725 0.05055 0.0
O100 O 0.3624 0.92911 0.21194 0.0
C101 C 0.3293 0.01719 0.18829 0.0
Co102 Co 0.59634 0.95399 0.31367 0.0
Co103 Co 0.65694 0.97533 0.39521 0.0
C104 C 0.63141 0.90719 0.33809 0.0
O105 O 0.61224 0.91725 0.31282 0.0
O106 O 0.64882 0.92499 0.37648 0.0
C107 C 0.52493 0.89788 0.30146 0.0
O108 O 0.53496 0.88817 0.34243 0.0
C109 C 0.68657 0.96979 0.49119 0.0
C110 C 0.72716 0.02872 0.50869 0.0
C111 C 0.71006 0.99279 0.52836 0.0
N112 N 0.68901 0.99124 0.45217 0.0
N113 N 0.71388 0.02639 0.46255 0.0
C114 C 0.66233 0.928 0.49206 0.0
H115 H 0.66892 0.91605 0.45958 0.0
H116 H 0.63243 0.92024 0.48953 0.0
H117 H 0.66705 0.91541 0.52553 0.0
C118 C 0.56006 0.97429 0.38939 0.0
N119 N 0.58726 0.96726 0.37563 0.0
N120 N 0.61116 0.97512 0.4119 0.0
C121 C 0.59878 0.9863 0.45119 0.0
C122 C 0.56564 0.98569 0.43813 0.0
C123 C 0.53361 0.97711 0.35399 0.0
H124 H 0.54454 0.98138 0.31572 0.0
H125 H 0.50602 0.95111 0.3558 0.0
H126 H 0.52934 0.0008 0.36399 0.0
O127 O 0.636 -0.00214 0.28178 0.0
O128 O 0.68232 0.00892 0.33454 0.0
H129 H 0.64609 0.02443 0.49417 0.0
H130 H 0.60207 0.00334 0.52752 0.0
C131 C 0.61879 -0.00161 0.49959 0.0
H132 H 0.62438 0.97642 0.51363 0.0
H133 H 0.7205 0.04896 0.43906 0.0
O134 O 0.54849 0.92763 0.279 0.0
C135 C 0.67053 0.0155 0.29385 0.0
Co136 Co 0.08058 0.65564 0.29895 0.0
Co137 Co 0.04739 0.68949 0.3724 0.0
C138 C 0.11623 0.73751 0.31224 0.0
O139 O 0.11422 0.70889 0.2922 0.0
O140 O 0.09376 0.73459 0.34647 0.0
C141 C 0.12366 0.64532 0.22335 0.0
O142 O 0.12552 0.67455 0.20116 0.0
C143 C 0.05169 0.71774 0.47064 0.0
C144 C -0.00325 0.71351 0.48227 0.0
C145 C 0.0299 0.72206 0.50626 0.0
N146 N 0.03206 0.70635 0.42841 0.0
N147 N -0.00054 0.70452 0.43518 0.0
C148 C 0.09062 0.72408 0.47593 0.0
H149 H 0.10615 0.73451 0.44069 0.0
H150 H 0.08927 0.69715 0.48465 0.0
H151 H 0.10601 0.74449 0.50579 0.0
C152 C 0.07129 0.60728 0.38289 0.0
N153 N 0.07168 0.63767 0.36401 0.0
N154 N 0.05332 0.64811 0.39338 0.0
C155 C 0.03895 0.62327 0.43118 0.0
C156 C 0.04992 0.59641 0.42584 0.0
C157 C 0.09109 0.58914 0.35963 0.0
H158 H 0.07476 0.57232 0.32737 0.0
H159 H 0.11899 0.61119 0.3465 0.0
H160 H 0.09502 0.57087 0.38617 0.0
O161 O 0.03331 0.64569 0.2676 0.0
O162 O 0.01121 0.674 0.31626 0.0
H163 H 0.99084 0.59256 0.47871 0.0
H164 H 0.02517 0.63831 0.5003 0.0
C165 C 0.01057 0.62178 0.46702 0.0
H166 H 0.99439 0.63378 0.45017 0.0
H167 H 0.97848 0.69555 0.40845 0.0
O168 O 0.10442 0.63237 0.26255 0.0
C169 C 0.00951 0.65603 0.27701 0.0
Co170 Co 0.30253 0.41137 0.36779 0.0
Co171 Co 0.27355 0.33482 0.41822 0.0
C172 C 0.22619 0.3672 0.38249 0.0
O173 O 0.25312 0.40002 0.38958 0.0
O174 O 0.2299 0.33947 0.39452 0.0
C175 C 0.32412 0.48842 0.3578 0.0
O176 O 0.3064 0.48312 0.39999 0.0
C177 C 0.25062 0.29272 0.50927 0.0
C178 C 0.24783 0.23972 0.48801 0.0
C179 C 0.24631 0.25949 0.52853 0.0
N180 N 0.2556 0.29281 0.4604 0.0
N181 N 0.25261 0.26058 0.44752 0.0
C182 C 0.25446 0.32598 0.53672 0.0
H183 H 0.2628 0.35007 0.51142 0.0
H184 H 0.27525 0.33409 0.56694 0.0
H185 H 0.22706 0.31867 0.55347 0.0
C186 C 0.36414 0.43564 0.43931 0.0
N187 N 0.33035 0.41016 0.42156 0.0
N188 N 0.3186 0.37782 0.44392 0.0
C189 C 0.34551 0.38177 0.47621 0.0
C190 C 0.37495 0.41864 0.47455 0.0
C191 C 0.38567 0.47555 0.4225 0.0
H192 H 0.37007 0.48963 0.43394 0.0
H193 H 0.41397 0.49113 0.43909 0.0
H194 H 0.38819 0.47673 0.38168 0.0
O195 O 0.29862 0.37427 0.31689 0.0
O196 O 0.28696 0.32179 0.35612 0.0
H197 H 0.37526 0.35525 0.50462 0.0
H198 H 0.3359 0.34819 0.54073 0.0
C199 C 0.34616 0.35012 0.50241 0.0
H200 H 0.32826 0.32327 0.48314 0.0
H201 H 0.25654 0.25396 0.41165 0.0
O202 O 0.32594 0.46151 0.33787 0.0
C203 C 0.29375 0.34112 0.31688 0.0
Co204 Co 0.94535 0.58948 0.79815 0.0
Co205 Co 0.97123 0.65387 0.87438 0.0
C206 C 0.90263 0.62911 0.81556 0.0
O207 O 0.90976 0.60659 0.7932 0.0
O208 O 0.92238 0.64822 0.85191 0.0
C209 C 0.88808 0.51978 0.77372 0.0
O210 O 0.874 0.52638 0.81342 0.0
C211 C 0.9648 0.67758 0.97226 0.0
C212 C 0.02048 0.72672 0.98615 0.0
C213 C 0.9865 0.70263 0.00882 0.0
N214 N 0.98532 0.68573 0.93073 0.0
N215 N 0.01831 0.71575 0.9388 0.0
C216 C 0.92546 0.64548 0.97669 0.0
H217 H 0.90891 0.6449 0.94413 0.0
H218 H 0.92566 0.6187 0.97727 0.0
H219 H 0.9116 0.64775 0.01059 0.0
C220 C 0.96007 0.55188 0.87941 0.0
N221 N 0.9554 0.57996 0.86225 0.0
N222 N 0.96913 0.6077 0.89406 0.0
C223 C 0.9838 0.5982 0.93246 0.0
C224 C 0.97787 0.56222 0.92478 0.0
C225 C 0.95394 0.51896 0.84899 0.0
H226 H 0.92355 0.49818 0.84807 0.0
H227 H 0.96892 0.50515 0.86433 0.0
H228 H 0.96369 0.52807 0.81063 0.0
O229 O 0.99136 0.62829 0.76784 0.0
O230 O 0.00689 0.67755 0.81681 0.0
H231 H 0.02611 0.65242 0.95751 0.0
H232 H 0.02251 0.61395 0.99411 0.0
C233 C 0.00652 0.62437 0.97303 0.0
H234 H 0.9875 0.62713 -0.00078 0.0
H235 H 0.04001 0.72741 0.91295 0.0
O236 O 0.92103 0.54357 0.75972 0.0
C237 C 0.01187 0.66296 0.77788 0.0
Co238 Co 0.40043 0.31443 0.84284 0.0
Co239 Co 0.3303 0.29621 0.90053 0.0
C240 C 0.35937 0.24315 0.87912 0.0
O241 O 0.3927 0.26992 0.87729 0.0
O242 O 0.33278 0.24989 0.88488 0.0
C243 C 0.47356 0.32925 0.82107 0.0
O244 O 0.47028 0.31419 0.86489 0.0
C245 C 0.31377 0.28612 0.0022 0.0
C246 C 0.26043 0.28585 0.01026 0.0
C247 C 0.28964 0.28677 0.03693 0.0
N248 N 0.30016 0.28576 0.95719 0.0
N249 N 0.26778 0.28475 0.96192 0.0
C250 C 0.35052 0.28795 0.01121 0.0
H251 H 0.37343 0.31756 0.01118 0.0
H252 H 0.35038 0.27534 0.04755 0.0
H253 H 0.35636 0.27324 0.98132 0.0
C254 C 0.43386 0.38449 0.90206 0.0
N255 N 0.40599 0.35038 0.88856 0.0
N256 N 0.37514 0.3429 0.91186 0.0
C257 C 0.38189 0.37285 0.93934 0.0
C258 C 0.41949 0.3998 0.93505 0.0
C259 C 0.47369 0.4007 0.88596 0.0
H260 H 0.47512 0.40082 0.84505 0.0
H261 H 0.48424 0.38258 0.90037 0.0
H262 H 0.49196 0.42945 0.90004 0.0
O263 O 0.35601 0.30207 0.79849 0.0
O264 O 0.30877 0.30137 0.84023 0.0
H265 H 0.35984 0.40771 0.96352 0.0
H266 H 0.34916 0.36865 0.00273 0.0
C267 C 0.35213 0.37778 0.96384 0.0
H268 H 0.32486 0.36076 0.94491 0.0
H269 H 0.25208 0.28585 0.9324 0.0
O270 O 0.44652 0.33224 0.80366 0.0
C271 C 0.3235 0.29915 0.7999 0.0
Co272 Co 0.65861 0.04911 0.81155 0.0
Co273 Co 0.70401 0.03578 0.89236 0.0
C274 C 0.74209 0.09714 0.81986 0.0
O275 O 0.7104 0.08577 0.8001 0.0
O276 O 0.74502 0.08308 0.86047 0.0
C277 C 0.63857 0.09614 0.75695 0.0
O278 O 0.67212 0.12388 0.76791 0.0
C279 C 0.73808 0.04812 0.99025 0.0
C280 C 0.72941 0.9923 0.00912 0.0
C281 C 0.7411 0.02748 0.02897 0.0
N282 N 0.72411 0.02578 0.95047 0.0
N283 N 0.7199 0.99271 0.96163 0.0
C284 C 0.74809 0.0884 0.99046 0.0
H285 H 0.7619 0.10184 0.95509 0.0
H286 H 0.72232 0.09038 0.99339 0.0
H287 H 0.76715 0.10377 0.02157 0.0
C288 C 0.60949 0.04089 0.89307 0.0
N289 N 0.64215 0.04514 0.87647 0.0
N290 N 0.65895 0.03716 0.91166 0.0
C291 C 0.63675 0.02727 0.95251 0.0
C292 C 0.6049 0.03001 0.94211 0.0
C293 C 0.58002 0.03982 0.85977 0.0
H294 H 0.57717 0.02251 0.82706 0.0
H295 H 0.58881 0.06877 0.84778 0.0
H296 H 0.55213 0.02751 0.87755 0.0
O297 O 0.65227 0.0017 0.79034 0.0
O298 O 0.69291 0.99655 0.83931 0.0
H299 H 0.6522 0.99143 0.99069 0.0
H300 H 0.61986 0.00075 0.0246 0.0
C301 C 0.64428 0.01282 -0.00067 0.0
H302 H 0.66785 0.03619 0.01899 0.0
H303 H 0.70838 0.96976 0.93784 0.0
O304 O 0.62946 0.06289 0.76913 0.0
C305 C 0.67087 0.98587 0.80198 0.0
Co306 Co 0.38219 0.06231 0.67619 0.0
Co307 Co 0.32448 0.04683 0.59517 0.0
C308 C 0.35721 0.11389 0.66519 0.0
O309 O 0.38489 0.10976 0.67447 0.0
O310 O 0.33156 0.09152 0.63592 0.0
C311 C 0.44891 0.09718 0.73244 0.0
O312 O 0.45355 0.12828 0.71249 0.0
C313 C 0.31987 0.0739 0.49913 0.0
C314 C 0.26894 0.0269 0.46702 0.0
C315 C 0.30059 0.06073 0.4548 0.0
N316 N 0.30158 0.04832 0.53461 0.0
N317 N 0.27038 0.02085 0.51571 0.0
C318 C 0.35701 0.10849 0.50741 0.0
H319 H 0.37917 0.10083 0.51045 0.0
H320 H 0.36392 0.12889 0.47682 0.0
H321 H 0.35646 0.12161 0.54289 0.0
C322 C 0.42037 0.04322 0.60138 0.0
N323 N 0.39318 0.05024 0.61529 0.0
N324 N 0.36896 0.04239 0.57935 0.0
C325 C 0.38033 0.02933 0.54079 0.0
C326 C 0.41378 0.03038 0.55328 0.0
C327 C 0.44844 0.04288 0.63626 0.0
H328 H 0.46986 0.07213 0.6453 0.0
H329 H 0.46261 0.02834 0.62087 0.0
H330 H 0.4341 0.02802 0.67063 0.0
O331 O 0.33281 0.02307 0.69871 0.0
O332 O 0.2898 0.00454 0.63921 0.0
H333 H 0.34144 0.98149 0.49961 0.0
H334 H 0.37725 0.0184 0.46275 0.0
C335 C 0.35822 0.01231 0.49479 0.0
H336 H 0.33867 0.02243 0.48708 0.0
H337 H 0.25178 0.99657 0.5349 0.0
O338 O 0.4188 0.06662 0.72442 0.0
C339 C 0.29965 0.00179 0.68305 0.0
Co340 Co 0.9152 0.32096 0.64959 0.0
Co341 Co 0.96702 0.2959 0.60101 0.0
C342 C 0.88664 0.24194 0.63101 0.0
O343 O 0.88049 0.26822 0.6416 0.0
O344 O 0.91852 0.24846 0.6155 0.0
C345 C 0.86017 0.32938 0.70582 0.0
O346 O 0.85171 0.29804 0.72883 0.0
C347 C 0.98905 0.27753 0.50927 0.0
C348 C 0.04509 0.2859 0.52611 0.0
C349 C 0.02059 0.27974 0.48729 0.0
N350 N 0.99532 0.28331 0.55796 0.0
N351 N 0.02833 0.28707 0.56819 0.0
C352 C 0.95539 0.27499 0.48433 0.0
H353 H 0.93744 0.27904 0.51122 0.0
H354 H 0.964 0.29603 0.45427 0.0
H355 H 0.9385 0.24678 0.46779 0.0
C356 C 0.9433 0.37665 0.57057 0.0
N357 N 0.93964 0.34539 0.59157 0.0
N358 N 0.96421 0.33758 0.57253 0.0
C359 C 0.98534 0.36481 0.53941 0.0
C360 C 0.97254 0.3903 0.53697 0.0
C361 C 0.91998 0.39379 0.58399 0.0
H362 H 0.92885 0.4074 0.62068 0.0
H363 H 0.89014 0.3715 0.5864 0.0
H364 H 0.92274 0.41491 0.55633 0.0
O365 O 0.95237 0.32716 0.70075 0.0
O366 O 0.99096 0.31042 0.66629 0.0
H367 H 0.03329 0.35713 0.53985 0.0
H368 H 0.0413 0.40025 0.51144 0.0
C369 C 0.0207 0.37003 0.51649 0.0
H370 H 0.01439 0.35677 0.47953 0.0
H371 H 0.04062 0.2934 0.60315 0.0
O372 O 0.88598 0.34269 0.67352 0.0
C373 C 0.98037 0.32199 0.70313 0.0
Co374 Co 0.65189 0.57992 0.69554 0.0
Co375 Co 0.68512 0.63897 0.61074 0.0
C376 C 0.73259 0.61725 0.66657 0.0
O377 O 0.7048 0.59692 0.69384 0.0
O378 O 0.72931 0.63352 0.62857 0.0
C379 C 0.6426 0.51323 0.73506 0.0
O380 O 0.66547 0.51765 0.69857 0.0
C381 C 0.70585 0.65827 0.50803 0.0
C382 C 0.70756 0.71234 0.49972 0.0
C383 C 0.71097 0.68533 0.4735 0.0
N384 N 0.69904 0.66846 0.55218 0.0
N385 N 0.70076 0.70115 0.54725 0.0
C386 C 0.70811 0.62356 0.49979 0.0
H387 H 0.72055 0.61775 0.53255 0.0
H388 H 0.67959 0.59921 0.49477 0.0
H389 H 0.72507 0.62647 0.46647 0.0
C390 C 0.59477 0.53692 0.62066 0.0
N391 N 0.62785 0.56664 0.63368 0.0
N392 N 0.6391 0.5925 0.59915 0.0
C393 C 0.61236 0.58041 0.56368 0.0
C394 C 0.58354 0.54455 0.5759 0.0
C395 C 0.57463 0.50191 0.65085 0.0
H396 H 0.59424 0.49172 0.65874 0.0
H397 H 0.5502 0.47921 0.63138 0.0
H398 H 0.5656 0.50817 0.68644 0.0
O399 O 0.64839 0.62195 0.72349 0.0
O400 O 0.67907 0.66685 0.66721 0.0
H401 H 0.58161 0.59708 0.51546 0.0
H402 H 0.62317 0.60068 0.48921 0.0
C403 C 0.61101 0.60474 0.52351 0.0
H404 H 0.62696 0.63463 0.53426 0.0
H405 H 0.69601 0.71515 0.5759 0.0
O406 O 0.63141 0.53668 0.74064 0.0
C407 C 0.66293 0.65591 0.70915 0.0
H408 H 0.99639 0.27188 0.7434 0.0
H409 H -0.00147 0.37567 0.77239 0.0
H410 H 0.01485 0.3734 0.85872 0.0
H411 H 0.02177 0.33871 0.92688 0.0
H412 H 0.01406 0.23207 0.901 0.0
H413 H 0.0059 0.23804 0.8121 0.0
C414 C 0.00147 0.29443 0.76847 0.0
C415 C -0.0031 0.32421 0.75185 0.0
C416 C 0.00904 0.29195 0.81843 0.0
C417 C 0.00233 0.35276 0.78463 0.0
C418 C 0.01137 0.35131 0.83387 0.0
C419 C 0.01926 0.31723 0.90161 0.0
C420 C 0.01928 0.28537 0.91988 0.0
C421 C 0.01383 0.32058 0.85134 0.0
C422 C 0.01444 0.25695 0.88729 0.0
C423 C 0.00985 0.26043 0.83669 0.0
H424 H 0.7224 0.75098 0.89839 0.0
H425 H 0.60554 0.68304 0.93746 0.0
H426 H 0.58996 0.66168 0.8533 0.0
H427 H 0.61103 0.65232 0.77286 0.0
H428 H 0.72709 0.71994 0.73148 0.0
H429 H 0.74127 0.75199 0.81122 0.0
C430 C 0.69342 0.73242 0.88801 0.0
C431 C 0.6654 0.71864 0.92454 0.0
C432 C 0.68444 0.71982 0.83896 0.0
C433 C 0.62788 0.69463 0.91055 0.0
C434 C 0.61881 0.68195 0.86216 0.0
C435 C 0.63908 0.67516 0.78066 0.0
C436 C 0.66801 0.68364 0.74687 0.0
C437 C 0.64706 0.69301 0.82667 0.0
C438 C 0.70431 0.71319 0.75701 0.0
C439 C 0.71253 0.73113 0.80288 0.0
H440 H 0.25335 0.01793 0.73209 0.0
H441 H 0.29041 0.93747 0.72236 0.0
H442 H 0.2781 0.92348 0.81032 0.0
H443 H 0.27433 0.9475 0.89113 0.0
H444 H 0.24029 0.03055 0.90237 0.0
H445 H 0.23503 0.03118 0.8126 0.0
C446 C 0.25639 0.99562 0.74873 0.0
C447 C 0.27253 0.97856 0.72098 0.0
C448 C 0.25169 0.98973 0.80002 0.0
C449 C 0.2774 0.95046 0.74296 0.0
C450 C 0.27125 0.94319 0.79355 0.0
C451 C 0.26371 0.96422 0.87459 0.0
C452 C 0.25748 0.98877 0.90385 0.0
C453 C 0.26097 0.9646 0.82289 0.0
C454 C 0.24549 0.01154 0.88078 0.0
C455 C 0.24237 0.01184 0.8294 0.0
H456 H 0.65209 0.94436 0.58742 0.0
H457 H 0.77066 0.02396 0.58912 0.0
H458 H 0.77108 0.01954 0.6792 0.0
H459 H 0.73512 0.00245 0.75664 0.0
H460 H 0.61611 0.92584 0.75352 0.0
H461 H 0.61897 0.91694 0.66482 0.0
C462 C 0.67849 0.95915 0.60698 0.0
C463 C 0.71148 0.98398 0.58129 0.0
C464 C 0.67842 0.95664 0.65875 0.0
C465 C 0.74493 0.00457 0.60799 0.0
C466 C 0.74519 0.00199 0.6595 0.0
C467 C 0.71026 0.98207 0.73701 0.0
C468 C 0.67544 0.96477 0.76148 0.0
C469 C 0.71178 0.97924 0.68538 0.0
C470 C 0.64324 0.9391 0.7355 0.0
C471 C 0.64478 0.93474 0.68454 0.0
H472 H 0.06505 0.69508 0.56478 0.0
H473 H 0.00486 0.75554 0.57023 0.0
H474 H 0.00274 0.75108 0.66044 0.0
H475 H 0.00785 0.71965 0.73509 0.0
H476 H 0.06436 0.65585 0.72681 0.0
H477 H 0.0806 0.6743 0.64054 0.0
C478 C 0.0532 0.7091 0.58536 0.0
C479 C 0.03558 0.7261 0.56053 0.0
C480 C 0.05164 0.70592 0.63699 0.0
C481 C 0.01863 0.74229 0.58845 0.0
C482 C 0.01744 0.73977 0.64002 0.0
C483 C 0.02541 0.7115 0.715 0.0
C484 C 0.03518 0.68669 0.73706 0.0
C485 C 0.03256 0.72032 0.66453 0.0
C486 C 0.05699 0.67533 0.71052 0.0
C487 C 0.06568 0.68535 0.661 0.0
H488 H 0.22247 0.27566 0.61432 0.0
H489 H 0.28895 0.22987 0.55772 0.0
H490 H 0.31709 0.23603 0.63863 0.0
H491 H 0.32989 0.26316 0.72114 0.0
H492 H 0.26646 0.31236 0.77761 0.0
H493 H 0.23109 0.2976 0.70025 0.0
C494 C 0.24312 0.2671 0.61975 0.0
C495 C 0.25467 0.25376 0.57971 0.0
C496 C 0.26056 0.2724 0.66578 0.0
C497 C 0.27987 0.2407 0.58782 0.0
C498 C 0.2964 0.24467 0.63391 0.0
C499 C 0.30842 0.2708 0.71646 0.0
C500 C 0.30142 0.28973 0.75422 0.0
C501 C 0.28826 0.26213 0.67233 0.0
C502 C 0.27267 0.2983 0.74851 0.0
C503 C 0.25238 0.28973 0.70449 0.0
H504 H 0.00834 0.71506 0.23774 0.0
H505 H 0.96281 0.59624 0.22076 0.0
H506 H 0.94472 0.59974 0.13573 0.0
H507 H 0.95475 0.63832 0.06296 0.0
H508 H 0.00765 0.75835 0.07646 0.0
H509 H 0.01039 0.75295 0.16627 0.0
C510 C 0.99286 0.68975 0.21601 0.0
C511 C 0.98639 0.65535 0.23533 0.0
C512 C 0.98505 0.69251 0.16618 0.0
C513 C 0.96749 0.62284 0.20662 0.0
C514 C 0.95769 0.62499 0.15787 0.0
C515 C 0.96548 0.66325 0.08543 0.0
C516 C 0.98065 0.69872 0.06299 0.0
C517 C 0.96821 0.65996 0.13659 0.0
C518 C 0.99571 0.73075 0.09294 0.0
C519 C -0.00267 0.72765 0.14422 0.0
H520 H 0.34325 0.36669 0.24194 0.0
H521 H 0.23581 0.27529 0.28664 0.0
H522 H 0.22489 0.24891 0.20327 0.0
H523 H 0.24432 0.2551 0.11584 0.0
H524 H 0.3544 0.34392 0.07438 0.0
H525 H 0.36612 0.36791 0.15798 0.0
C526 C 0.31783 0.34068 0.23335 0.0
C527 C 0.29031 0.32286 0.26955 0.0
C528 C 0.31215 0.3254 0.18593 0.0
C529 C 0.25742 0.28913 0.25883 0.0
C530 C 0.25108 0.27424 0.21128 0.0
C531 C 0.27098 0.27936 0.12552 0.0
C532 C 0.29822 0.29786 0.08899 0.0
C533 C 0.27798 0.29258 0.17426 0.0
C534 C 0.33286 0.32911 0.1017 0.0
C535 C 0.33964 0.343 0.14961 0.0
H536 H 0.72671 0.0069 0.2578 0.0
H537 H 0.66994 0.0697 0.23791 0.0
H538 H 0.69372 0.08543 0.15346 0.0
H539 H 0.71742 0.06858 0.08132 0.0
H540 H 0.77005 0.00147 0.09851 0.0
H541 H 0.76103 -6e-05 0.18789 0.0
C542 C 0.72122 0.02561 0.23572 0.0
C543 C 0.69687 0.03738 0.254 0.0
C544 C 0.7332 0.03266 0.18616 0.0
C545 C 0.68899 0.06071 0.22467 0.0
C546 C 0.70212 0.0692 0.17613 0.0
C547 C 0.72859 0.05509 0.10445 0.0
C548 C 0.74458 0.03528 0.08293 0.0
C549 C 0.72237 0.05349 0.15567 0.0
C550 C 0.75759 0.01689 0.11404 0.0
C551 C 0.75234 0.01592 0.1652 0.0
H552 H 0.37823 0.05925 0.25904 0.0
H553 H 0.26841 0.02594 0.20173 0.0
H554 H 0.25148 0.04378 0.27954 0.0
H555 H 0.26355 0.05514 0.3693 0.0
H556 H 0.37243 0.08301 0.42583 0.0
H557 H 0.39408 0.08187 0.34351 0.0
C558 C 0.35106 0.05719 0.263 0.0
C559 C 0.32442 0.04073 0.22518 0.0
C560 C 0.34108 0.06607 0.30834 0.0
C561 C 0.28944 0.03854 0.23039 0.0
C562 C 0.27956 0.04823 0.27519 0.0
C563 C 0.29237 0.06219 0.36324 0.0
C564 C 0.3163 0.06975 0.40403 0.0
C565 C 0.30444 0.05992 0.31537 0.0
C566 C 0.35351 0.07841 0.39563 0.0
C567 C 0.3659 0.07711 0.34824 0.0
H568 H 0.97777 0.24953 0.40389 0.0
H569 H 0.08953 0.32976 0.4525 0.0
H570 H 0.10656 0.35378 0.36882 0.0
H571 H 0.08845 0.3563 0.28424 0.0
H572 H 0.9766 0.27811 0.23398 0.0
H573 H 0.96047 0.2497 0.31655 0.0
C574 C 0.00572 0.27242 0.39626 0.0
C575 C 0.03192 0.28854 0.43483 0.0
C576 C 0.01512 0.28692 0.34807 0.0
C577 C 0.06866 0.31691 0.42372 0.0
C578 C 0.07838 0.33098 0.3759 0.0
C579 C 0.06039 0.33316 0.29122 0.0
C580 C 0.03348 0.31984 0.25333 0.0
C581 C 0.05153 0.31697 0.33825 0.0
C582 C -0.00234 0.28915 0.26275 0.0
C583 C 0.98851 0.27287 0.30985 0.0
H584 H 0.69956 0.70889 0.2476 0.0
H585 H 0.61271 0.59332 0.26059 0.0
H586 H 0.63424 0.59027 0.34372 0.0
H587 H 0.66865 0.62403 0.41728 0.0
H588 H 0.75058 0.74162 0.40798 0.0
H589 H 0.74014 0.74063 0.31883 0.0
C590 C 0.68646 0.68267 0.26797 0.0
C591 C 0.65484 0.65128 0.24822 0.0
C592 C 0.69751 0.68189 0.31683 0.0
C593 C 0.63731 0.61768 0.27519 0.0
C594 C 0.64935 0.61609 0.32284 0.0
C595 C 0.68537 0.64908 0.39555 0.0
C596 C 0.71063 0.68279 0.41904 0.0
C597 C 0.67813 0.64855 0.34487 0.0
C598 C 0.73103 0.71535 0.39053 0.0
C599 C 0.725 0.71478 0.33965 0.0
H600 H 0.94061 0.49324 0.96635 0.0
H601 H 0.05164 0.58618 0.9403 0.0
H602 H 0.07906 0.55132 0.97779 0.0
H603 H 0.07139 0.49374 0.01571 0.0
H604 H 0.96044 0.40154 0.04529 0.0
H605 H 0.93296 0.43607 0.0073 0.0
C606 C 0.97078 0.50588 0.96959 0.0
C607 C 0.99416 0.54242 0.9517 0.0
C608 C 0.98628 0.48549 0.9908 0.0
C609 C 0.03319 0.55844 0.95506 0.0
C610 C 0.04882 0.53837 0.97597 0.0
C611 C 0.04118 0.48131 0.01417 0.0
C612 C 0.01803 0.44495 0.03294 0.0
C613 C 0.02564 0.50181 0.99369 0.0
C614 C 0.97895 0.42905 0.0301 0.0
C615 C 0.9632 0.44902 0.00893 0.0
H616 H 0.49924 0.53105 0.08832 0.0
H617 H 0.54163 0.59616 0.95493 0.0
H618 H 0.50767 0.53911 0.90518 0.0
H619 H 0.46417 0.47063 0.9001 0.0
H620 H 0.42026 0.40677 0.03418 0.0
H621 H 0.4553 0.4636 0.08341 0.0
C622 C 0.50052 0.53281 0.04832 0.0
C623 C 0.52218 0.56772 0.02516 0.0
C624 C 0.48034 0.50019 0.02025 0.0
C625 C 0.52486 0.5695 0.97343 0.0
C626 C 0.50534 0.53698 0.94507 0.0
C627 C 0.46254 0.46935 0.9401 0.0
C628 C 0.44002 0.43477 0.96372 0.0
C629 C 0.48275 0.50218 0.9681 0.0
C630 C 0.43742 0.43324 0.01542 0.0
C631 C 0.45757 0.46562 0.0435 0.0
H632 H 0.5694 0.06921 0.95821 0.0
H633 H 0.56048 0.96229 0.98731 0.0
H634 H 0.49809 0.93911 0.02295 0.0
H635 H 0.44458 0.94819 0.04174 0.0
H636 H 0.45165 0.05359 0.00749 0.0
H637 H 0.51546 0.07795 0.97574 0.0
C638 C 0.55394 0.04102 0.97313 0.0
C639 C 0.56998 0.01782 0.97127 0.0
C640 C 0.51724 0.02724 0.99093 0.0
C641 C 0.54944 0.98116 0.98986 0.0
C642 C 0.51342 0.96766 0.00931 0.0
C643 C 0.46005 0.97638 0.02682 0.0
C644 C 0.44326 -0.0011 0.02617 0.0
C645 C 0.4968 0.99023 0.00923 0.0
C646 C 0.4636 0.03544 0.00719 0.0
C647 C 0.50027 0.04951 0.98976 0.0
H648 H 0.49021 0.94897 0.44765 0.0
H649 H 0.58983 0.05163 0.48776 0.0
H650 H 0.55123 0.07546 0.52355 0.0
H651 H 0.48905 0.06759 0.54144 0.0
H652 H 0.38949 0.96401 0.50391 0.0
H653 H 0.42798 0.94078 0.46655 0.0
C654 C 0.5034 0.97647 0.46456 0.0
C655 C 0.54281 -0.00163 0.46566 0.0
C656 C 0.481 0.99018 0.48412 0.0
C657 C 0.55962 0.03393 0.48754 0.0
C658 C 0.53753 0.04774 0.50731 0.0
C659 C 0.47582 0.03997 0.52484 0.0
C660 C 0.43642 0.01768 0.52512 0.0
C661 C 0.49821 0.02624 0.50537 0.0
C662 C 0.41961 0.98206 0.50333 0.0
C663 C 0.44169 0.96853 0.48267 0.0
H664 H 0.02608 0.52636 0.38954 0.0
H665 H 0.04363 0.58654 0.52611 0.0
H666 H 0.02149 0.52821 0.57272 0.0
H667 H -0.00276 0.45989 0.57444 0.0
H668 H 0.9843 0.40099 0.43807 0.0
H669 H 0.00623 0.45938 0.39145 0.0
C670 C 0.02594 0.52699 0.42954 0.0
C671 C 0.03685 0.56097 0.45428 0.0
C672 C 0.01431 0.49358 0.45605 0.0
C673 C 0.03514 0.5608 0.50611 0.0
C674 C 0.02273 0.52749 0.53278 0.0
C675 C -0.00063 0.46 0.5345 0.0
C676 C 0.98887 0.42626 0.50949 0.0
C677 C 0.01224 0.49371 0.50813 0.0
C678 C 0.99225 0.42668 0.45793 0.0
C679 C 0.00457 0.45998 0.43136 0.0
H680 H 0.51317 0.50795 0.61535 0.0
H681 H 0.57283 0.5293 0.47742 0.0
H682 H 0.51368 0.49005 0.43403 0.0
H683 H 0.44475 0.45014 0.43542 0.0
H684 H 0.38553 0.4268 0.57374 0.0
H685 H 0.44497 0.46457 0.61761 0.0
C686 C 0.51332 0.50339 0.57595 0.0
C687 C 0.54742 0.52118 0.54969 0.0
C688 C 0.47935 0.47994 0.5516 0.0
C689 C 0.54696 0.51606 0.49839 0.0
C690 C 0.5132 0.49336 0.47368 0.0
C691 C 0.44509 0.45304 0.47526 0.0
C692 C 0.41104 0.43609 0.5015 0.0
C693 C 0.47925 0.47515 0.49991 0.0
C694 C 0.41152 0.43962 0.55301 0.0
C695 C 0.44541 0.46148 0.57791 0.0
H696 H 0.17325 0.54657 0.10876 0.0
H697 H 0.17234 0.50857 0.25756 0.0
H698 H 0.16799 0.56135 0.29027 0.0
H699 H 0.15008 0.60837 0.27567 0.0
H700 H 0.14229 0.64164 0.12714 0.0
H701 H 0.16441 0.60062 0.09471 0.0
C702 C 0.17343 0.55069 0.14834 0.0
C703 C 0.17239 0.5236 0.1809 0.0
C704 C 0.16814 0.57945 0.16663 0.0
C705 C 0.1728 0.52907 0.23204 0.0
C706 C 0.16989 0.55893 0.25064 0.0
C707 C 0.15357 0.60693 0.23624 0.0
C708 C 0.14347 0.62685 0.20365 0.0
C709 C 0.16504 0.58265 0.21816 0.0
C710 C 0.14942 0.62598 0.15277 0.0
C711 C 0.16196 0.60252 0.13432 0.0
H712 H 0.47179 0.63369 0.30854 0.0
H713 H 0.42674 0.60423 0.16134 0.0
H714 H 0.36714 0.55477 0.1943 0.0
H715 H 0.3325 0.51363 0.26436 0.0
H716 H 0.37424 0.5476 0.41228 0.0
H717 H 0.43029 0.60246 0.38002 0.0
C718 C 0.44847 0.61702 0.28401 0.0
C719 C 0.45362 0.62144 0.2328 0.0
C720 C 0.41397 0.58954 0.30331 0.0
C721 C 0.4234 0.60052 0.20095 0.0
C722 C 0.38936 0.57231 0.21974 0.0
C723 C 0.35334 0.53383 0.28943 0.0
C724 C 0.3501 0.52639 0.34024 0.0
C725 C 0.38497 0.56559 0.27072 0.0
C726 C 0.37665 0.55271 0.37284 0.0
C727 C 0.40876 0.58391 0.35443 0.0
H728 H 0.36991 0.88309 0.28277 0.0
H729 H 0.39182 0.87704 0.12839 0.0
H730 H 0.44526 0.86953 0.14941 0.0
H731 H 0.49315 0.87958 0.21139 0.0
H732 H 0.4684 0.87993 0.36597 0.0
H733 H 0.40786 0.87374 0.34547 0.0
C734 C 0.38566 0.87874 0.25401 0.0
C735 C 0.37813 0.88176 0.20437 0.0
C736 C 0.41589 0.87389 0.26636 0.0
C737 C 0.39773 0.87523 0.16699 0.0
C738 C 0.4284 0.87123 0.17892 0.0
C739 C 0.47378 0.87688 0.24041 0.0
C740 C 0.48521 0.8814 0.28977 0.0
C741 C 0.43895 0.87277 0.2284 0.0
C742 C 0.46 0.87699 0.32756 0.0
C743 C 0.42559 0.87375 0.3159 0.0
H744 H 0.85483 0.38073 0.6517 0.0
H745 H 0.83351 0.33228 0.7976 0.0
H746 H 0.83121 0.38638 0.83045 0.0
H747 H 0.8513 0.45325 0.82042 0.0
H748 H 0.88378 0.50436 0.67634 0.0
H749 H 0.86582 0.44364 0.63956 0.0
C750 C 0.84889 0.38169 0.69052 0.0
C751 C 0.84564 0.35348 0.72259 0.0
C752 C 0.85041 0.4138 0.70939 0.0
C753 C 0.83659 0.35408 0.77241 0.0
C754 C 0.83574 0.38518 0.79122 0.0
C755 C 0.85325 0.45066 0.7808 0.0
C756 C 0.86912 0.48281 0.75089 0.0
C757 C 0.84509 0.41618 0.76058 0.0
C758 C 0.87194 0.47971 0.69976 0.0
C759 C 0.86174 0.44514 0.67887 0.0
H760 H 0.53524 0.3797 0.86871 0.0
H761 H 0.49408 0.33186 0.72514 0.0
H762 H 0.55084 0.38224 0.68649 0.0
H763 H 0.60485 0.44567 0.69262 0.0
H764 H 0.63468 0.50094 0.83387 0.0
H765 H 0.59022 0.44226 0.87513 0.0
C766 C 0.53912 0.38002 0.82908 0.0
C767 C 0.51078 0.35259 0.79952 0.0
C768 C 0.56964 0.41091 0.80702 0.0
C769 C 0.51583 0.35294 0.7483 0.0
C770 C 0.54801 0.38182 0.72633 0.0
C771 C 0.60195 0.44455 0.7325 0.0
C772 C 0.62251 0.47717 0.76048 0.0
C773 C 0.57404 0.41192 0.75511 0.0
C774 C 0.61884 0.47585 0.81199 0.0
C775 C 0.5934 0.44247 0.83536 0.0
H776 H 0.56507 0.04581 0.75524 0.0
H777 H 0.64353 0.16316 0.73075 0.0
H778 H 0.59107 0.17531 0.72466 0.0
H779 H 0.52269 0.15172 0.72893 0.0
H780 H 0.44831 0.03638 0.7713 0.0
H781 H 0.50057 0.02506 0.77281 0.0
C782 C 0.57113 0.0743 0.7494 0.0
C783 C 0.60819 0.10361 0.74433 0.0
C784 C 0.54174 0.08159 0.75115 0.0
C785 C 0.61513 0.14006 0.73492 0.0
C786 C 0.58527 0.14709 0.73223 0.0
C787 C 0.5181 0.12441 0.73974 0.0
C788 C 0.48155 0.09465 0.7486 0.0
C789 C 0.54847 0.11807 0.74133 0.0
C790 C 0.47609 0.05959 0.76342 0.0
C791 C 0.50582 0.05289 0.76368 0.0
H792 H 0.24766 0.40709 0.29859 0.0
H793 H 0.15258 0.31316 0.36736 0.0
H794 H 0.11672 0.30118 0.29032 0.0
H795 H 0.11223 0.31963 0.20485 0.0
H796 H 0.20866 0.4132 0.1372 0.0
H797 H 0.24499 0.42212 0.21229 0.0
C798 C 0.21882 0.38435 0.29715 0.0
C799 C 0.20223 0.36181 0.33915 0.0
C800 C 0.19918 0.37695 0.2526 0.0
C801 C 0.1655 0.33145 0.33589 0.0
C802 C 0.14527 0.32439 0.29174 0.0
C803 C 0.14154 0.34124 0.20588 0.0
C804 C 0.15782 0.36571 0.16524 0.0
C805 C 0.16188 0.34703 0.24985 0.0
C806 C 0.19565 0.39388 0.16771 0.0
C807 C 0.21621 0.39933 0.21088 0.0
H808 H 0.649 0.90028 0.24559 0.0
H809 H 0.62005 0.84411 0.38668 0.0
H810 H 0.61189 0.78676 0.3476 0.0
H811 H 0.60673 0.75157 0.27194 0.0
H812 H 0.63745 0.80835 0.13117 0.0
H813 H 0.65124 0.86717 0.17151 0.0
C814 C 0.64162 0.8756 0.26783 0.0
C815 C 0.63481 0.87591 0.31867 0.0
C816 C 0.63671 0.84306 0.24505 0.0
C817 C 0.62559 0.84426 0.34754 0.0
C818 C 0.62056 0.81153 0.32509 0.0
C819 C 0.61645 0.7769 0.25015 0.0
C820 C 0.62019 0.77576 0.19859 0.0
C821 C 0.62489 0.81039 0.27368 0.0
C822 C 0.63394 0.80873 0.17078 0.0
C823 C 0.64183 0.84218 0.19384 0.0
H824 H 0.23636 0.89945 0.24275 0.0
H825 H 0.20707 0.84532 0.10062 0.0
H826 H 0.15829 0.78743 0.13968 0.0
H827 H 0.1294 0.75108 0.21527 0.0
H828 H 0.15784 0.80566 0.35724 0.0
H829 H 0.20214 0.86517 0.31716 0.0
C830 C 0.21872 0.87511 0.22026 0.0
C831 C 0.22522 0.87622 0.16907 0.0
C832 C 0.19139 0.8422 0.24304 0.0
C833 C 0.20224 0.84495 0.14001 0.0
C834 C 0.17477 0.81188 0.16244 0.0
C835 C 0.14536 0.77607 0.23742 0.0
C836 C 0.14135 0.77406 0.28922 0.0
C837 C 0.17006 0.80995 0.21406 0.0
C838 C 0.16103 0.80665 0.31745 0.0
C839 C 0.18619 0.84051 0.29453 0.0
H840 H 0.88597 0.62862 0.71983 0.0
H841 H 0.85213 0.64131 0.86596 0.0
H842 H 0.79717 0.64134 0.83097 0.0
H843 H 0.75648 0.63191 0.75983 0.0
H844 H 0.79098 0.62086 0.61344 0.0
H845 H 0.84883 0.62641 0.64755 0.0
C846 C 0.86664 0.63166 0.74396 0.0
C847 C 0.8724 0.63424 0.79542 0.0
C848 C 0.83552 0.63178 0.72358 0.0
C849 C 0.84794 0.6391 0.82633 0.0
C850 C 0.81658 0.63894 0.80634 0.0
C851 C 0.77687 0.63098 0.73539 0.0
C852 C 0.7695 0.62527 0.68442 0.0
C853 C 0.80972 0.63436 0.75522 0.0
C854 C 0.79622 0.62502 0.65277 0.0
C855 C 0.82904 0.62803 0.67232 0.0
H856 H 0.38457 0.13168 0.75695 0.0
H857 H 0.31284 0.14641 0.65418 0.0
H858 H 0.30131 0.18271 0.71683 0.0
H859 H 0.31604 0.21383 0.79867 0.0
H860 H 0.38993 0.19976 0.89795 0.0
H861 H 0.39496 0.1577 0.839 0.0
C862 C 0.36662 0.14304 0.74766 0.0
C863 C 0.35047 0.13735 0.70029 0.0
C864 C 0.35974 0.16291 0.78375 0.0
C865 C 0.32621 0.15112 0.68996 0.0
C866 C 0.31942 0.17153 0.72589 0.0
C867 C 0.33202 0.20031 0.80805 0.0
C868 C 0.35209 0.20912 0.85289 0.0
C869 C 0.33633 0.17781 0.77279 0.0
C870 C 0.37373 0.19261 0.86414 0.0
C871 C 0.37707 0.16918 0.83012 0.0
H872 H 0.89409 0.21515 0.71729 0.0
H873 H 0.8187 0.19055 0.59471 0.0
H874 H 0.76727 0.14175 0.64345 0.0
H875 H 0.74277 0.11245 0.723 0.0
H876 H 0.81631 0.13906 0.84872 0.0
H877 H 0.86988 0.18155 0.79669 0.0
C878 C 0.86666 0.19791 0.70082 0.0
C879 C 0.86012 0.20538 0.65216 0.0
C880 C 0.83694 0.17154 0.73009 0.0
C881 C 0.82437 0.1843 0.63153 0.0
C882 C 0.79497 0.15698 0.65971 0.0
C883 C 0.77043 0.12755 0.73947 0.0
C884 C 0.77536 0.12322 0.79019 0.0
C885 C 0.80071 0.15151 0.70949 0.0
C886 C 0.81165 0.14234 0.81011 0.0
C887 C 0.84223 0.16641 0.78028 0.0
loop_
_geom_bond_atom_site_label_1
_geom_bond_atom_site_label_2
_geom_bond_distance
_geom_bond_site_symmetry_2
_ccdc_geom_bond_type
Co0 O3 1.970 . S
Co0 N17 1.989 . S
Co0 O25 1.967 . S
Co0 O32 1.920 . S
Co1 O4 1.966 . S
Co1 N10 2.022 . S
Co1 N18 1.993 . S
Co1 O26 1.941 . S
C2 O3 1.258 . S
C2 O4 1.263 . S
O3 Co0 1.970 . S
O3 C2 1.258 . S
O4 Co1 1.966 . S
O4 C2 1.263 . S
C5 O6 1.235 . S
C5 O32 1.289 . S
O6 C5 1.235 . S
C7 C9 1.400 . S
C7 N10 1.351 1_556 S
C7 C12 1.501 1_556 S
C8 C9 1.387 . S
C8 N11 1.341 1_556 S
C9 C7 1.400 . S
C9 C8 1.387 . S
N10 Co1 2.022 . S
N10 C7 1.351 1_554 S
N10 N11 1.365 . S
N11 C8 1.341 1_554 S
N11 N10 1.365 . S
N11 H31 0.862 1_455 S
C12 C7 1.501 1_554 S
C12 H13 0.961 . S
C12 H14 0.961 1_554 S
C12 H15 0.960 . S
H13 C12 0.961 . S
H14 C12 0.961 1_556 S
H15 C12 0.960 . S
C16 N17 1.342 . S
C16 C20 1.401 . S
C16 C21 1.499 . S
N17 Co0 1.989 . S
N17 C16 1.342 . S
N17 N18 1.388 . S
N18 Co1 1.993 . S
N18 N17 1.388 . S
N18 C19 1.346 . S
C19 N18 1.346 . S
C19 C20 1.396 . S
C19 C29 1.510 1_554 S
C20 C16 1.401 . S
C20 C19 1.396 . S
C21 C16 1.499 . S
C21 H22 0.959 . S
C21 H23 0.960 . S
C21 H24 0.961 . S
H22 C21 0.959 . S
H23 C21 0.960 . S
H24 C21 0.961 . S
O25 Co0 1.967 . S
O25 C33 1.258 . S
O26 Co1 1.941 . S
O26 C33 1.266 . S
H27 C29 0.957 . S
H28 C29 0.961 . S
C29 C19 1.510 1_556 S
C29 H27 0.957 . S
C29 H28 0.961 . S
C29 H30 0.960 . S
H30 C29 0.960 . S
H31 N11 0.862 1_655 S
O32 Co0 1.920 . S
O32 C5 1.289 . S
C33 O25 1.258 . S
C33 O26 1.266 . S
Co34 O37 1.970 . S
Co34 N51 1.989 . S
Co34 O59 1.967 . S
Co34 O66 1.920 . S
Co35 O38 1.966 . S
Co35 N44 2.022 . S
Co35 N52 1.993 . S
Co35 O60 1.941 . S
C36 O37 1.258 . S
C36 O38 1.263 . S
O37 Co34 1.970 . S
O37 C36 1.258 . S
O38 Co35 1.966 . S
O38 C36 1.263 . S
C39 O40 1.235 . S
C39 O66 1.289 . S
O40 C39 1.235 . S
C41 C43 1.400 . S
C41 N44 1.351 1_556 S
C41 C46 1.501 1_556 S
C42 C43 1.387 . S
C42 N45 1.341 1_556 S
C43 C41 1.400 . S
C43 C42 1.387 . S
N44 Co35 2.022 . S
N44 C41 1.351 1_554 S
N44 N45 1.365 . S
N45 C42 1.341 1_554 S
N45 N44 1.365 . S
N45 H65 0.862 . S
C46 C41 1.501 1_554 S
C46 H47 0.961 . S
C46 H48 0.961 1_554 S
C46 H49 0.960 . S
H47 C46 0.961 . S
H48 C46 0.961 1_556 S
H49 C46 0.960 . S
C50 N51 1.342 . S
C50 C54 1.401 . S
C50 C55 1.499 . S
N51 Co34 1.989 . S
N51 C50 1.342 . S
N51 N52 1.388 . S
N52 Co35 1.993 . S
N52 N51 1.388 . S
N52 C53 1.346 . S
C53 N52 1.346 . S
C53 C54 1.396 . S
C53 C63 1.510 1_554 S
C54 C50 1.401 . S
C54 C53 1.396 . S
C55 C50 1.499 . S
C55 H56 0.959 . S
C55 H57 0.960 . S
C55 H58 0.961 . S
H56 C55 0.959 . S
H57 C55 0.960 . S
H58 C55 0.961 . S
O59 Co34 1.967 . S
O59 C67 1.258 . S
O60 Co35 1.941 . S
O60 C67 1.266 . S
H61 C63 0.959 . S
H62 C63 0.961 . S
C63 C53 1.510 1_556 S
C63 H61 0.959 . S
C63 H62 0.961 . S
C63 H64 0.960 . S
H64 C63 0.960 . S
H65 N45 0.862 . S
O66 Co34 1.920 . S
O66 C39 1.289 . S
C67 O59 1.258 . S
C67 O60 1.266 . S
Co68 O71 1.970 . S
Co68 N85 1.989 . S
Co68 O93 1.967 . S
Co68 O100 1.920 . S
Co69 O72 1.966 . S
Co69 N78 2.022 . S
Co69 N86 1.993 . S
Co69 O94 1.941 . S
C70 O71 1.258 . S
C70 O72 1.263 . S
O71 Co68 1.970 . S
O71 C70 1.258 . S
O72 Co69 1.966 . S
O72 C70 1.263 . S
C73 O74 1.235 . S
C73 O100 1.289 . S
O74 C73 1.235 . S
C75 C77 1.400 . S
C75 N78 1.351 1_556 S
C75 C80 1.501 1_556 S
C76 C77 1.387 . S
C76 N79 1.341 1_556 S
C77 C75 1.400 . S
C77 C76 1.387 . S
N78 Co69 2.022 . S
N78 C75 1.351 1_554 S
N78 N79 1.365 . S
N79 C76 1.341 1_554 S
N79 N78 1.365 . S
N79 H99 0.862 1_565 S
C80 C75 1.501 1_554 S
C80 H81 0.961 . S
C80 H82 0.961 1_554 S
C80 H83 0.960 . S
H81 C80 0.961 . S
H82 C80 0.961 1_556 S
H83 C80 0.960 . S
C84 N85 1.342 . S
C84 C88 1.401 . S
C84 C89 1.499 . S
N85 Co68 1.989 . S
N85 C84 1.342 . S
N85 N86 1.388 . S
N86 Co69 1.993 . S
N86 N85 1.388 . S
N86 C87 1.346 . S
C87 N86 1.346 . S
C87 C88 1.396 . S
C87 C97 1.510 1_554 S
C88 C84 1.401 . S
C88 C87 1.396 . S
C89 C84 1.499 . S
C89 H90 0.959 . S
C89 H91 0.960 . S
C89 H92 0.961 . S
H90 C89 0.959 . S
H91 C89 0.960 . S
H92 C89 0.961 . S
O93 Co68 1.967 . S
O93 C101 1.258 . S
O94 Co69 1.941 . S
O94 C101 1.266 . S
H95 C97 0.957 . S
H96 C97 0.961 . S
C97 C87 1.510 1_556 S
C97 H95 0.957 . S
C97 H96 0.961 . S
C97 H98 0.960 . S
H98 C97 0.960 . S
H99 N79 0.862 1_545 S
O100 Co68 1.920 . S
O100 C73 1.289 . S
C101 O93 1.258 . S
C101 O94 1.266 . S
Co102 O105 1.970 . S
Co102 N119 1.989 . S
Co102 O127 1.967 . S
Co102 O134 1.920 . S
Co103 O106 1.966 . S
Co103 N112 2.022 . S
Co103 N120 1.993 . S
Co103 O128 1.941 . S
C104 O105 1.258 . S
C104 O106 1.263 . S
O105 Co102 1.970 . S
O105 C104 1.258 . S
O106 Co103 1.966 . S
O106 C104 1.263 . S
C107 O108 1.235 . S
C107 O134 1.289 . S
O108 C107 1.235 . S
C109 C111 1.400 . S
C109 N112 1.351 . S
C109 C114 1.501 . S
C110 C111 1.387 . S
C110 N113 1.341 . S
C111 C109 1.400 . S
C111 C110 1.387 . S
N112 Co103 2.022 . S
N112 C109 1.351 . S
N112 N113 1.365 . S
N113 C110 1.341 . S
N113 N112 1.365 . S
N113 H133 0.862 1_565 S
C114 C109 1.501 . S
C114 H115 0.961 . S
C114 H116 0.961 . S
C114 H117 0.960 . S
H115 C114 0.961 . S
H116 C114 0.961 . S
H117 C114 0.960 . S
C118 N119 1.342 . S
C118 C122 1.401 . S
C118 C123 1.499 . S
N119 Co102 1.989 . S
N119 C118 1.342 . S
N119 N120 1.388 . S
N120 Co103 1.993 . S
N120 N119 1.388 . S
N120 C121 1.346 . S
C121 N120 1.346 . S
C121 C122 1.396 . S
C121 C131 1.510 . S
C122 C118 1.401 . S
C122 C121 1.396 . S
C123 C118 1.499 . S
C123 H124 0.959 . S
C123 H125 0.960 . S
C123 H126 0.961 . S
H124 C123 0.959 . S
H125 C123 0.960 . S
H126 C123 0.961 . S
O127 Co102 1.967 . S
O127 C135 1.258 . S
O128 Co103 1.941 . S
O128 C135 1.266 . S
H129 C131 0.957 . S
H130 C131 0.961 . S
C131 C121 1.510 . S
C131 H129 0.957 . S
C131 H130 0.961 . S
C131 H132 0.960 . S
H132 C131 0.960 . S
H133 N113 0.862 1_545 S
O134 Co102 1.920 . S
O134 C107 1.289 . S
C135 O127 1.258 . S
C135 O128 1.266 . S
Co136 O139 1.970 . S
Co136 N153 1.989 . S
Co136 O161 1.967 . S
Co136 O168 1.920 . S
Co137 O140 1.966 . S
Co137 N146 2.022 . S
Co137 N154 1.993 . S
Co137 O162 1.941 . S
C138 O139 1.258 . S
C138 O140 1.263 . S
O139 Co136 1.970 . S
O139 C138 1.258 . S
O140 Co137 1.966 . S
O140 C138 1.263 . S
C141 O142 1.235 . S
C141 O168 1.289 . S
O142 C141 1.235 . S
C143 C145 1.400 . S
C143 N146 1.351 . S
C143 C148 1.501 . S
C144 C145 1.387 . S
C144 N147 1.341 . S
C145 C143 1.400 . S
C145 C144 1.387 . S
N146 Co137 2.022 . S
N146 C143 1.351 . S
N146 N147 1.365 . S
N147 C144 1.341 . S
N147 N146 1.365 . S
N147 H167 0.862 1_455 S
C148 C143 1.501 . S
C148 H149 0.961 . S
C148 H150 0.961 . S
C148 H151 0.960 . S
H149 C148 0.961 . S
H150 C148 0.961 . S
H151 C148 0.960 . S
C152 N153 1.342 . S
C152 C156 1.401 . S
C152 C157 1.499 . S
N153 Co136 1.989 . S
N153 C152 1.342 . S
N153 N154 1.388 . S
N154 Co137 1.993 . S
N154 N153 1.388 . S
N154 C155 1.346 . S
C155 N154 1.346 . S
C155 C156 1.396 . S
C155 C165 1.510 . S
C156 C152 1.401 . S
C156 C155 1.396 . S
C157 C152 1.499 . S
C157 H158 0.959 . S
C157 H159 0.960 . S
C157 H160 0.961 . S
H158 C157 0.959 . S
H159 C157 0.960 . S
H160 C157 0.961 . S
O161 Co136 1.967 . S
O161 C169 1.258 . S
O162 Co137 1.941 . S
O162 C169 1.266 . S
H163 C165 0.957 . S
H164 C165 0.961 . S
C165 C155 1.510 . S
C165 H163 0.957 . S
C165 H164 0.961 . S
C165 H166 0.960 . S
H166 C165 0.960 . S
H167 N147 0.862 1_655 S
O168 Co136 1.920 . S
O168 C141 1.289 . S
C169 O161 1.258 . S
C169 O162 1.266 . S
Co170 O173 1.970 . S
Co170 N187 1.989 . S
Co170 O195 1.967 . S
Co170 O202 1.920 . S
Co171 O174 1.966 . S
Co171 N180 2.022 . S
Co171 N188 1.993 . S
Co171 O196 1.941 . S
C172 O173 1.258 . S
C172 O174 1.263 . S
O173 Co170 1.970 . S
O173 C172 1.258 . S
O174 Co171 1.966 . S
O174 C172 1.263 . S
C175 O176 1.235 . S
C175 O202 1.289 . S
O176 C175 1.235 . S
C177 C179 1.400 . S
C177 N180 1.351 . S
C177 C182 1.501 . S
C178 C179 1.387 . S
C178 N181 1.341 . S
C179 C177 1.400 . S
C179 C178 1.387 . S
N180 Co171 2.022 . S
N180 C177 1.351 . S
N180 N181 1.365 . S
N181 C178 1.341 . S
N181 N180 1.365 . S
N181 H201 0.862 . S
C182 C177 1.501 . S
C182 H183 0.961 . S
C182 H184 0.961 . S
C182 H185 0.960 . S
H183 C182 0.961 . S
H184 C182 0.961 . S
H185 C182 0.960 . S
C186 N187 1.342 . S
C186 C190 1.401 . S
C186 C191 1.499 . S
N187 Co170 1.989 . S
N187 C186 1.342 . S
N187 N188 1.388 . S
N188 Co171 1.993 . S
N188 N187 1.388 . S
N188 C189 1.346 . S
C189 N188 1.346 . S
C189 C190 1.396 . S
C189 C199 1.510 . S
C190 C186 1.401 . S
C190 C189 1.396 . S
C191 C186 1.499 . S
C191 H192 0.959 . S
C191 H193 0.960 . S
C191 H194 0.961 . S
H192 C191 0.959 . S
H193 C191 0.960 . S
H194 C191 0.961 . S
O195 Co170 1.967 . S
O195 C203 1.258 . S
O196 Co171 1.941 . S
O196 C203 1.266 . S
H197 C199 0.959 . S
H198 C199 0.961 . S
C199 C189 1.510 . S
C199 H197 0.959 . S
C199 H198 0.961 . S
C199 H200 0.960 . S
H200 C199 0.960 . S
H201 N181 0.862 . S
O202 Co170 1.920 . S
O202 C175 1.289 . S
C203 O195 1.258 . S
C203 O196 1.266 . S
Co204 O207 1.970 . S
Co204 N221 1.989 . S
Co204 O229 1.967 . S
Co204 O236 1.920 . S
Co205 O208 1.966 . S
Co205 N214 2.022 . S
Co205 N222 1.993 . S
Co205 O230 1.941 . S
C206 O207 1.258 . S
C206 O208 1.263 . S
O207 Co204 1.970 . S
O207 C206 1.258 . S
O208 Co205 1.966 . S
O208 C206 1.263 . S
C209 O210 1.235 . S
C209 O236 1.289 . S
O210 C209 1.235 . S
C211 C213 1.400 . S
C211 N214 1.351 1_554 S
C211 C216 1.501 1_554 S
C212 C213 1.387 . S
C212 N215 1.341 1_554 S
C213 C211 1.400 . S
C213 C212 1.387 . S
N214 Co205 2.022 . S
N214 C211 1.351 1_556 S
N214 N215 1.365 . S
N215 C212 1.341 1_556 S
N215 N214 1.365 . S
N215 H235 0.862 1_655 S
C216 C211 1.501 1_556 S
C216 H217 0.961 . S
C216 H218 0.961 1_556 S
C216 H219 0.960 . S
H217 C216 0.961 . S
H218 C216 0.961 1_554 S
H219 C216 0.960 . S
C220 N221 1.342 . S
C220 C224 1.401 . S
C220 C225 1.499 . S
N221 Co204 1.989 . S
N221 C220 1.342 . S
N221 N222 1.388 . S
N222 Co205 1.993 . S
N222 N221 1.388 . S
N222 C223 1.346 . S
C223 N222 1.346 . S
C223 C224 1.396 . S
C223 C233 1.510 1_556 S
C224 C220 1.401 . S
C224 C223 1.396 . S
C225 C220 1.499 . S
C225 H226 0.959 . S
C225 H227 0.960 . S
C225 H228 0.961 . S
H226 C225 0.959 . S
H227 C225 0.960 . S
H228 C225 0.961 . S
O229 Co204 1.967 . S
O229 C237 1.258 . S
O230 Co205 1.941 . S
O230 C237 1.266 . S
H231 C233 0.957 . S
H232 C233 0.961 . S
C233 C223 1.510 1_554 S
C233 H231 0.957 . S
C233 H232 0.961 . S
C233 H234 0.960 . S
H234 C233 0.960 . S
H235 N215 0.862 1_455 S
O236 Co204 1.920 . S
O236 C209 1.289 . S
C237 O229 1.258 . S
C237 O230 1.266 . S
Co238 O241 1.970 . S
Co238 N255 1.989 . S
Co238 O263 1.967 . S
Co238 O270 1.920 . S
Co239 O242 1.966 . S
Co239 N248 2.022 . S
Co239 N256 1.993 . S
Co239 O264 1.941 . S
C240 O241 1.258 . S
C240 O242 1.263 . S
O241 Co238 1.970 . S
O241 C240 1.258 . S
O242 Co239 1.966 . S
O242 C240 1.263 . S
C243 O244 1.235 . S
C243 O270 1.289 . S
O244 C243 1.235 . S
C245 C247 1.400 . S
C245 N248 1.351 1_554 S
C245 C250 1.501 1_554 S
C246 C247 1.387 . S
C246 N249 1.341 1_554 S
C247 C245 1.400 . S
C247 C246 1.387 . S
N248 Co239 2.022 . S
N248 C245 1.351 1_556 S
N248 N249 1.365 . S
N249 C246 1.341 1_556 S
N249 N248 1.365 . S
N249 H269 0.862 . S
C250 C245 1.501 1_556 S
C250 H251 0.961 . S
C250 H252 0.961 1_556 S
C250 H253 0.960 . S
H251 C250 0.961 . S
H252 C250 0.961 1_554 S
H253 C250 0.960 . S
C254 N255 1.342 . S
C254 C258 1.401 . S
C254 C259 1.499 . S
N255 Co238 1.989 . S
N255 C254 1.342 . S
N255 N256 1.388 . S
N256 Co239 1.993 . S
N256 N255 1.388 . S
N256 C257 1.346 . S
C257 N256 1.346 . S
C257 C258 1.396 . S
C257 C267 1.510 1_556 S
C258 C254 1.401 . S
C258 C257 1.396 . S
C259 C254 1.499 . S
C259 H260 0.959 . S
C259 H261 0.960 . S
C259 H262 0.961 . S
H260 C259 0.959 . S
H261 C259 0.960 . S
H262 C259 0.961 . S
O263 Co238 1.967 . S
O263 C271 1.258 . S
O264 Co239 1.941 . S
O264 C271 1.266 . S
H265 C267 0.959 . S
H266 C267 0.961 . S
C267 C257 1.510 1_554 S
C267 H265 0.959 . S
C267 H266 0.961 . S
C267 H268 0.960 . S
H268 C267 0.960 . S
H269 N249 0.862 . S
O270 Co238 1.920 . S
O270 C243 1.289 . S
C271 O263 1.258 . S
C271 O264 1.266 . S
Co272 O275 1.970 . S
Co272 N289 1.989 . S
Co272 O297 1.967 . S
Co272 O304 1.920 . S
Co273 O276 1.966 . S
Co273 N282 2.022 . S
Co273 N290 1.993 . S
Co273 O298 1.941 . S
C274 O275 1.258 . S
C274 O276 1.263 . S
O275 Co272 1.970 . S
O275 C274 1.258 . S
O276 Co273 1.966 . S
O276 C274 1.263 . S
C277 O278 1.235 . S
C277 O304 1.289 . S
O278 C277 1.235 . S
C279 C281 1.400 . S
C279 N282 1.351 1_554 S
C279 C284 1.501 1_554 S
C280 C281 1.387 . S
C280 N283 1.341 1_554 S
C281 C279 1.400 . S
C281 C280 1.387 . S
N282 Co273 2.022 . S
N282 C279 1.351 1_556 S
N282 N283 1.365 . S
N283 C280 1.341 1_556 S
N283 N282 1.365 . S
N283 H303 0.862 1_545 S
C284 C279 1.501 1_556 S
C284 H285 0.961 . S
C284 H286 0.961 1_556 S
C284 H287 0.960 . S
H285 C284 0.961 . S
H286 C284 0.961 1_554 S
H287 C284 0.960 . S
C288 N289 1.342 . S
C288 C292 1.401 . S
C288 C293 1.499 . S
N289 Co272 1.989 . S
N289 C288 1.342 . S
N289 N290 1.388 . S
N290 Co273 1.993 . S
N290 N289 1.388 . S
N290 C291 1.346 . S
C291 N290 1.346 . S
C291 C292 1.396 . S
C291 C301 1.510 1_556 S
C292 C288 1.401 . S
C292 C291 1.396 . S
C293 C288 1.499 . S
C293 H294 0.959 . S
C293 H295 0.960 . S
C293 H296 0.961 . S
H294 C293 0.959 . S
H295 C293 0.960 . S
H296 C293 0.961 . S
O297 Co272 1.967 . S
O297 C305 1.258 . S
O298 Co273 1.941 . S
O298 C305 1.266 . S
H299 C301 0.957 . S
H300 C301 0.961 . S
C301 C291 1.510 1_554 S
C301 H299 0.957 . S
C301 H300 0.961 . S
C301 H302 0.960 . S
H302 C301 0.960 . S
H303 N283 0.862 1_565 S
O304 Co272 1.920 . S
O304 C277 1.289 . S
C305 O297 1.258 . S
C305 O298 1.266 . S
Co306 O309 1.970 . S
Co306 N323 1.989 . S
Co306 O331 1.967 . S
Co306 O338 1.920 . S
Co307 O310 1.966 . S
Co307 N316 2.022 . S
Co307 N324 1.993 . S
Co307 O332 1.941 . S
C308 O309 1.258 . S
C308 O310 1.263 . S
O309 Co306 1.970 . S
O309 C308 1.258 . S
O310 Co307 1.966 . S
O310 C308 1.263 . S
C311 O312 1.235 . S
C311 O338 1.289 . S
O312 C311 1.235 . S
C313 C315 1.400 . S
C313 N316 1.351 . S
C313 C318 1.501 . S
C314 C315 1.387 . S
C314 N317 1.341 . S
C315 C313 1.400 . S
C315 C314 1.387 . S
N316 Co307 2.022 . S
N316 C313 1.351 . S
N316 N317 1.365 . S
N317 C314 1.341 . S
N317 N316 1.365 . S
N317 H337 0.862 1_545 S
C318 C313 1.501 . S
C318 H319 0.961 . S
C318 H320 0.961 . S
C318 H321 0.960 . S
H319 C318 0.961 . S
H320 C318 0.961 . S
H321 C318 0.960 . S
C322 N323 1.342 . S
C322 C326 1.401 . S
C322 C327 1.499 . S
N323 Co306 1.989 . S
N323 C322 1.342 . S
N323 N324 1.388 . S
N324 Co307 1.993 . S
N324 N323 1.388 . S
N324 C325 1.346 . S
C325 N324 1.346 . S
C325 C326 1.396 . S
C325 C335 1.510 . S
C326 C322 1.401 . S
C326 C325 1.396 . S
C327 C322 1.499 . S
C327 H328 0.959 . S
C327 H329 0.960 . S
C327 H330 0.961 . S
H328 C327 0.959 . S
H329 C327 0.960 . S
H330 C327 0.961 . S
O331 Co306 1.967 . S
O331 C339 1.258 . S
O332 Co307 1.941 . S
O332 C339 1.266 . S
H333 C335 0.957 . S
H334 C335 0.961 . S
C335 C325 1.510 . S
C335 H333 0.957 . S
C335 H334 0.961 . S
C335 H336 0.960 . S
H336 C335 0.960 . S
H337 N317 0.862 1_565 S
O338 Co306 1.920 . S
O338 C311 1.289 . S
C339 O331 1.258 . S
C339 O332 1.266 . S
Co340 O343 1.970 . S
Co340 N357 1.989 . S
Co340 O365 1.967 . S
Co340 O372 1.920 . S
Co341 O344 1.966 . S
Co341 N350 2.022 . S
Co341 N358 1.993 . S
Co341 O366 1.941 . S
C342 O343 1.258 . S
C342 O344 1.263 . S
O343 Co340 1.970 . S
O343 C342 1.258 . S
O344 Co341 1.966 . S
O344 C342 1.263 . S
C345 O346 1.235 . S
C345 O372 1.289 . S
O346 C345 1.235 . S
C347 C349 1.400 . S
C347 N350 1.351 . S
C347 C352 1.501 . S
C348 C349 1.387 . S
C348 N351 1.341 . S
C349 C347 1.400 . S
C349 C348 1.387 . S
N350 Co341 2.022 . S
N350 C347 1.351 . S
N350 N351 1.365 . S
N351 C348 1.341 . S
N351 N350 1.365 . S
N351 H371 0.862 1_655 S
C352 C347 1.501 . S
C352 H353 0.961 . S
C352 H354 0.961 . S
C352 H355 0.960 . S
H353 C352 0.961 . S
H354 C352 0.961 . S
H355 C352 0.960 . S
C356 N357 1.342 . S
C356 C360 1.401 . S
C356 C361 1.499 . S
N357 Co340 1.989 . S
N357 C356 1.342 . S
N357 N358 1.388 . S
N358 Co341 1.993 . S
N358 N357 1.388 . S
N358 C359 1.346 . S
C359 N358 1.346 . S
C359 C360 1.396 . S
C359 C369 1.510 . S
C360 C356 1.401 . S
C360 C359 1.396 . S
C361 C356 1.499 . S
C361 H362 0.959 . S
C361 H363 0.960 . S
C361 H364 0.961 . S
H362 C361 0.959 . S
H363 C361 0.960 . S
H364 C361 0.961 . S
O365 Co340 1.967 . S
O365 C373 1.258 . S
O366 Co341 1.941 . S
O366 C373 1.266 . S
H367 C369 0.957 . S
H368 C369 0.961 . S
C369 C359 1.510 . S
C369 H367 0.957 . S
C369 H368 0.961 . S
C369 H370 0.960 . S
H370 C369 0.960 . S
H371 N351 0.862 1_455 S
O372 Co340 1.920 . S
O372 C345 1.289 . S
C373 O365 1.258 . S
C373 O366 1.266 . S
Co374 O377 1.970 . S
Co374 N391 1.989 . S
Co374 O399 1.967 . S
Co374 O406 1.920 . S
Co375 O378 1.966 . S
Co375 N384 2.022 . S
Co375 N392 1.993 . S
Co375 O400 1.941 . S
C376 O377 1.258 . S
C376 O378 1.263 . S
O377 Co374 1.970 . S
O377 C376 1.258 . S
O378 Co375 1.966 . S
O378 C376 1.263 . S
C379 O380 1.235 . S
C379 O406 1.289 . S
O380 C379 1.235 . S
C381 C383 1.400 . S
C381 N384 1.351 . S
C381 C386 1.501 . S
C382 C383 1.387 . S
C382 N385 1.341 . S
C383 C381 1.400 . S
C383 C382 1.387 . S
N384 Co375 2.022 . S
N384 C381 1.351 . S
N384 N385 1.365 . S
N385 C382 1.341 . S
N385 N384 1.365 . S
N385 H405 0.862 . S
C386 C381 1.501 . S
C386 H387 0.961 . S
C386 H388 0.961 . S
C386 H389 0.960 . S
H387 C386 0.961 . S
H388 C386 0.961 . S
H389 C386 0.960 . S
C390 N391 1.342 . S
C390 C394 1.401 . S
C390 C395 1.499 . S
N391 Co374 1.989 . S
N391 C390 1.342 . S
N391 N392 1.388 . S
N392 Co375 1.993 . S
N392 N391 1.388 . S
N392 C393 1.346 . S
C393 N392 1.346 . S
C393 C394 1.396 . S
C393 C403 1.510 . S
C394 C390 1.401 . S
C394 C393 1.396 . S
C395 C390 1.499 . S
C395 H396 0.959 . S
C395 H397 0.960 . S
C395 H398 0.961 . S
H396 C395 0.959 . S
H397 C395 0.960 . S
H398 C395 0.961 . S
O399 Co374 1.967 . S
O399 C407 1.258 . S
O400 Co375 1.941 . S
O400 C407 1.266 . S
H401 C403 0.959 . S
H402 C403 0.961 . S
C403 C393 1.510 . S
C403 H401 0.959 . S
C403 H402 0.961 . S
C403 H404 0.960 . S
H404 C403 0.960 . S
H405 N385 0.862 . S
O406 Co374 1.920 . S
O406 C379 1.289 . S
C407 O399 1.258 . S
C407 O400 1.266 . S
H408 C414 0.930 1_655 S
H409 C417 0.930 . S
H410 C418 0.930 . S
H411 C419 0.930 . S
H412 C422 0.930 . S
H413 C423 0.930 . S
C414 H408 0.930 1_455 S
C414 C415 1.355 1_455 S
C414 C416 1.415 . S
C415 C414 1.355 1_655 S
C415 C417 1.419 . S
C416 C414 1.415 . S
C416 C421 1.425 . S
C416 C423 1.409 . S
C417 H409 0.930 . S
C417 C415 1.419 . S
C417 C418 1.362 1_655 S
C418 H410 0.930 . S
C418 C417 1.362 1_455 S
C418 C421 1.409 . S
C419 H411 0.930 . S
C419 C420 1.355 . S
C419 C421 1.415 . S
C420 C419 1.355 . S
C420 C422 1.419 . S
C421 C416 1.425 . S
C421 C418 1.409 . S
C421 C419 1.415 . S
C422 H412 0.930 . S
C422 C420 1.419 . S
C422 C423 1.362 . S
C423 H413 0.930 . S
C423 C416 1.409 . S
C423 C422 1.362 . S
H424 C430 0.930 . S
H425 C433 0.930 . S
H426 C434 0.930 . S
H427 C435 0.930 . S
H428 C438 0.930 . S
H429 C439 0.930 . S
C430 H424 0.930 . S
C430 C431 1.355 . S
C430 C432 1.415 . S
C431 C430 1.355 . S
C431 C433 1.419 . S
C432 C430 1.415 . S
C432 C437 1.425 . S
C432 C439 1.409 . S
C433 H425 0.930 . S
C433 C431 1.419 . S
C433 C434 1.362 . S
C434 H426 0.930 . S
C434 C433 1.362 . S
C434 C437 1.409 . S
C435 H427 0.930 . S
C435 C436 1.355 . S
C435 C437 1.415 . S
C436 C435 1.355 . S
C436 C438 1.419 . S
C437 C432 1.425 . S
C437 C434 1.409 . S
C437 C435 1.415 . S
C438 H428 0.930 . S
C438 C436 1.419 . S
C438 C439 1.362 . S
C439 H429 0.930 . S
C439 C432 1.409 . S
C439 C438 1.362 . S
H440 C446 0.930 . S
H441 C449 0.930 . S
H442 C450 0.930 . S
H443 C451 0.930 . S
H444 C454 0.930 1_545 S
H445 C455 0.930 . S
C446 H440 0.930 . S
C446 C447 1.355 . S
C446 C448 1.420 . S
C447 C446 1.355 . S
C447 C449 1.419 1_545 S
C448 C446 1.420 . S
C448 C453 1.410 1_545 S
C448 C455 1.419 . S
C449 H441 0.930 . S
C449 C447 1.419 1_565 S
C449 C450 1.362 . S
C450 H442 0.930 . S
C450 C449 1.362 . S
C450 C453 1.409 . S
C451 H443 0.930 . S
C451 C452 1.355 . S
C451 C453 1.415 . S
C452 C451 1.355 . S
C452 C454 1.419 . S
C453 C448 1.410 1_565 S
C453 C450 1.409 . S
C453 C451 1.415 . S
C454 H444 0.930 1_565 S
C454 C452 1.419 . S
C454 C455 1.362 1_565 S
C455 H445 0.930 . S
C455 C448 1.419 . S
C455 C454 1.362 1_545 S
H456 C462 0.930 1_545 S
H457 C465 0.930 . S
H458 C466 0.930 . S
H459 C467 0.930 . S
H460 C470 0.930 . S
H461 C471 0.930 . S
C462 H456 0.930 1_565 S
C462 C463 1.355 . S
C462 C464 1.415 . S
C463 C462 1.355 . S
C463 C465 1.419 . S
C464 C462 1.415 . S
C464 C469 1.425 . S
C464 C471 1.409 1_565 S
C465 H457 0.930 . S
C465 C463 1.419 . S
C465 C466 1.362 . S
C466 H458 0.930 . S
C466 C465 1.362 . S
C466 C469 1.409 . S
C467 H459 0.930 . S
C467 C468 1.355 1_565 S
C467 C469 1.415 . S
C468 C467 1.355 1_545 S
C468 C470 1.419 . S
C469 C464 1.425 . S
C469 C466 1.409 . S
C469 C467 1.415 . S
C470 H460 0.930 . S
C470 C468 1.419 . S
C470 C471 1.362 . S
C471 H461 0.930 . S
C471 C464 1.409 1_545 S
C471 C470 1.362 . S
H472 C478 0.930 1_655 S
H473 C481 0.930 . S
H474 C482 0.930 . S
H475 C483 0.930 . S
H476 C486 0.930 . S
H477 C487 0.930 . S
C478 H472 0.930 1_455 S
C478 C479 1.355 . S
C478 C480 1.415 . S
C479 C478 1.355 . S
C479 C481 1.419 . S
C480 C478 1.415 . S
C480 C485 1.425 . S
C480 C487 1.409 1_455 S
C481 H473 0.930 . S
C481 C479 1.419 . S
C481 C482 1.362 . S
C482 H474 0.930 . S
C482 C481 1.362 . S
C482 C485 1.409 . S
C483 H475 0.930 . S
C483 C484 1.355 1_455 S
C483 C485 1.415 . S
C484 C483 1.355 1_655 S
C484 C486 1.419 . S
C485 C480 1.425 . S
C485 C482 1.409 . S
C485 C483 1.415 . S
C486 H476 0.930 . S
C486 C484 1.419 . S
C486 C487 1.362 . S
C487 H477 0.930 . S
C487 C480 1.409 1_655 S
C487 C486 1.362 . S
H488 C494 0.930 . S
H489 C497 0.930 . S
H490 C498 0.930 . S
H491 C499 0.930 . S
H492 C502 0.930 . S
H493 C503 0.930 . S
C494 H488 0.930 . S
C494 C495 1.355 . S
C494 C496 1.415 . S
C495 C494 1.355 . S
C495 C497 1.419 . S
C496 C494 1.415 . S
C496 C501 1.425 . S
C496 C503 1.409 . S
C497 H489 0.930 . S
C497 C495 1.419 . S
C497 C498 1.362 . S
C498 H490 0.930 . S
C498 C497 1.362 . S
C498 C501 1.409 . S
C499 H491 0.930 . S
C499 C500 1.355 . S
C499 C501 1.415 . S
C500 C499 1.355 . S
C500 C502 1.419 . S
C501 C496 1.425 . S
C501 C498 1.409 . S
C501 C499 1.415 . S
C502 H492 0.930 . S
C502 C500 1.419 . S
C502 C503 1.362 . S
C503 H493 0.930 . S
C503 C496 1.409 . S
C503 C502 1.362 . S
H504 C510 0.930 . S
H505 C513 0.930 . S
H506 C514 0.930 . S
H507 C515 0.930 . S
H508 C518 0.930 . S
H509 C519 0.930 1_455 S
C510 H504 0.930 . S
C510 C511 1.355 . S
C510 C512 1.415 1_455 S
C511 C510 1.355 . S
C511 C513 1.419 1_455 S
C512 C510 1.415 1_655 S
C512 C517 1.425 . S
C512 C519 1.409 . S
C513 H505 0.930 . S
C513 C511 1.419 1_655 S
C513 C514 1.362 . S
C514 H506 0.930 . S
C514 C513 1.362 . S
C514 C517 1.409 . S
C515 H507 0.930 . S
C515 C516 1.355 . S
C515 C517 1.415 . S
C516 C515 1.355 . S
C516 C518 1.419 . S
C517 C512 1.425 . S
C517 C514 1.409 . S
C517 C515 1.415 . S
C518 H508 0.930 . S
C518 C516 1.419 . S
C518 C519 1.362 . S
C519 H509 0.930 1_655 S
C519 C512 1.409 . S
C519 C518 1.362 . S
H520 C526 0.930 . S
H521 C529 0.930 . S
H522 C530 0.930 . S
H523 C531 0.930 . S
H524 C534 0.930 . S
H525 C535 0.930 . S
C526 H520 0.930 . S
C526 C527 1.355 . S
C526 C528 1.415 . S
C527 C526 1.355 . S
C527 C529 1.419 . S
C528 C526 1.415 . S
C528 C533 1.425 . S
C528 C535 1.409 . S
C529 H521 0.930 . S
C529 C527 1.419 . S
C529 C530 1.362 . S
C530 H522 0.930 . S
C530 C529 1.362 . S
C530 C533 1.409 . S
C531 H523 0.930 . S
C531 C532 1.355 . S
C531 C533 1.415 . S
C532 C531 1.355 . S
C532 C534 1.419 . S
C533 C528 1.425 . S
C533 C530 1.409 . S
C533 C531 1.415 . S
C534 H524 0.930 . S
C534 C532 1.419 . S
C534 C535 1.362 . S
C535 H525 0.930 . S
C535 C528 1.409 . S
C535 C534 1.362 . S
H536 C542 0.930 . S
H537 C545 0.930 . S
H538 C546 0.930 . S
H539 C547 0.930 . S
H540 C550 0.930 . S
H541 C551 0.930 . S
C542 H536 0.930 . S
C542 C543 1.355 . S
C542 C544 1.415 . S
C543 C542 1.355 . S
C543 C545 1.419 1_565 S
C544 C542 1.415 . S
C544 C549 1.425 1_565 S
C544 C551 1.409 . S
C545 H537 0.930 . S
C545 C543 1.419 1_545 S
C545 C546 1.362 . S
C546 H538 0.930 . S
C546 C545 1.362 . S
C546 C549 1.409 . S
C547 H539 0.930 . S
C547 C548 1.355 . S
C547 C549 1.415 . S
C548 C547 1.355 . S
C548 C550 1.419 1_545 S
C549 C544 1.425 1_545 S
C549 C546 1.409 . S
C549 C547 1.415 . S
C550 H540 0.930 . S
C550 C548 1.419 1_565 S
C550 C551 1.362 . S
C551 H541 0.930 . S
C551 C544 1.409 . S
C551 C550 1.362 . S
H552 C558 0.930 . S
H553 C561 0.930 . S
H554 C562 0.930 . S
H555 C563 0.930 1_565 S
H556 C566 0.930 . S
H557 C567 0.930 . S
C558 H552 0.930 . S
C558 C559 1.355 1_545 S
C558 C560 1.415 . S
C559 C558 1.355 1_565 S
C559 C561 1.419 . S
C560 C558 1.415 . S
C560 C565 1.425 . S
C560 C567 1.409 . S
C561 H553 0.930 . S
C561 C559 1.419 . S
C561 C562 1.362 . S
C562 H554 0.930 . S
C562 C561 1.362 . S
C562 C565 1.409 1_565 S
C563 H555 0.930 1_545 S
C563 C564 1.355 . S
C563 C565 1.415 . S
C564 C563 1.355 . S
C564 C566 1.419 . S
C565 C560 1.425 . S
C565 C562 1.409 1_545 S
C565 C563 1.415 . S
C566 H556 0.930 . S
C566 C564 1.419 . S
C566 C567 1.362 . S
C567 H557 0.930 . S
C567 C560 1.409 . S
C567 C566 1.362 . S
H568 C574 0.930 . S
H569 C577 0.930 . S
H570 C578 0.930 1_455 S
H571 C579 0.930 . S
H572 C582 0.930 . S
H573 C583 0.930 . S
C574 H568 0.930 . S
C574 C575 1.355 . S
C574 C576 1.415 . S
C575 C574 1.355 . S
C575 C577 1.419 . S
C576 C574 1.415 . S
C576 C581 1.425 . S
C576 C583 1.409 . S
C577 H569 0.930 . S
C577 C575 1.419 . S
C577 C578 1.362 . S
C578 H570 0.930 1_655 S
C578 C577 1.362 . S
C578 C581 1.409 . S
C579 H571 0.930 . S
C579 C580 1.355 . S
C579 C581 1.415 1_455 S
C580 C579 1.355 . S
C580 C582 1.419 1_455 S
C581 C576 1.425 . S
C581 C578 1.409 . S
C581 C579 1.415 1_655 S
C582 H572 0.930 . S
C582 C580 1.419 1_655 S
C582 C583 1.362 . S
C583 H573 0.930 . S
C583 C576 1.409 . S
C583 C582 1.362 . S
H584 C590 0.930 . S
H585 C593 0.930 . S
H586 C594 0.930 . S
H587 C595 0.930 . S
H588 C598 0.930 . S
H589 C599 0.930 . S
C590 H584 0.930 . S
C590 C591 1.355 . S
C590 C592 1.415 . S
C591 C590 1.355 . S
C591 C593 1.419 . S
C592 C590 1.415 . S
C592 C597 1.425 . S
C592 C599 1.409 . S
C593 H585 0.930 . S
C593 C591 1.419 . S
C593 C594 1.362 . S
C594 H586 0.930 . S
C594 C593 1.362 . S
C594 C597 1.409 . S
C595 H587 0.930 . S
C595 C596 1.355 . S
C595 C597 1.415 . S
C596 C595 1.355 . S
C596 C598 1.419 . S
C597 C592 1.425 . S
C597 C594 1.409 . S
C597 C595 1.415 . S
C598 H588 0.930 . S
C598 C596 1.419 . S
C598 C599 1.362 . S
C599 H589 0.930 . S
C599 C592 1.409 . S
C599 C598 1.362 . S
H600 C606 0.930 . S
H601 C609 0.930 . S
H602 C610 0.930 . S
H603 C611 0.930 . S
H604 C614 0.930 . S
H605 C615 0.930 . S
C606 H600 0.930 . S
C606 C607 1.355 1_554 S
C606 C608 1.415 . S
C607 C606 1.355 1_556 S
C607 C609 1.419 1_655 S
C608 C606 1.415 . S
C608 C613 1.425 1_654 S
C608 C615 1.409 . S
C609 H601 0.930 . S
C609 C607 1.419 1_455 S
C609 C610 1.362 . S
C610 H602 0.930 . S
C610 C609 1.362 . S
C610 C613 1.409 . S
C611 H603 0.930 . S
C611 C612 1.355 1_556 S
C611 C613 1.415 . S
C612 C611 1.355 1_554 S
C612 C614 1.419 1_455 S
C613 C608 1.425 1_456 S
C613 C610 1.409 . S
C613 C611 1.415 . S
C614 H604 0.930 . S
C614 C612 1.419 1_655 S
C614 C615 1.362 . S
C615 H605 0.930 . S
C615 C608 1.409 . S
C615 C614 1.362 . S
H616 C622 0.930 1_556 S
H617 C625 0.930 . S
H618 C626 0.930 . S
H619 C627 0.930 1_554 S
H620 C630 0.930 . S
H621 C631 0.930 . S
C622 H616 0.930 1_554 S
C622 C623 1.355 . S
C622 C624 1.415 1_554 S
C623 C622 1.355 . S
C623 C625 1.419 . S
C624 C622 1.415 1_556 S
C624 C629 1.425 1_556 S
C624 C631 1.409 . S
C625 H617 0.930 . S
C625 C623 1.419 . S
C625 C626 1.362 . S
C626 H618 0.930 . S
C626 C625 1.362 . S
C626 C629 1.409 . S
C627 H619 0.930 1_556 S
C627 C628 1.355 . S
C627 C629 1.415 1_556 S
C628 C627 1.355 . S
C628 C630 1.419 . S
C629 C624 1.425 1_554 S
C629 C626 1.409 . S
C629 C627 1.415 1_554 S
C630 H620 0.930 . S
C630 C628 1.419 . S
C630 C631 1.362 . S
C631 H621 0.930 . S
C631 C624 1.409 . S
C631 C630 1.362 . S
H632 C638 0.930 . S
H633 C641 0.930 . S
H634 C642 0.930 . S
H635 C643 0.930 . S
H636 C646 0.930 . S
H637 C647 0.930 . S
C638 H632 0.930 . S
C638 C639 1.355 . S
C638 C640 1.415 . S
C639 C638 1.355 . S
C639 C641 1.419 1_545 S
C640 C638 1.415 . S
C640 C645 1.425 1_546 S
C640 C647 1.409 . S
C641 H633 0.930 . S
C641 C639 1.419 1_565 S
C641 C642 1.362 1_556 S
C642 H634 0.930 . S
C642 C641 1.362 1_554 S
C642 C645 1.409 . S
C643 H635 0.930 . S
C643 C644 1.355 . S
C643 C645 1.415 . S
C644 C643 1.355 . S
C644 C646 1.419 1_565 S
C645 C640 1.425 1_564 S
C645 C642 1.409 . S
C645 C643 1.415 . S
C646 H636 0.930 . S
C646 C644 1.419 1_545 S
C646 C647 1.362 1_554 S
C647 H637 0.930 . S
C647 C640 1.409 . S
C647 C646 1.362 1_556 S
H648 C654 0.930 . S
H649 C657 0.930 . S
H650 C658 0.930 . S
H651 C659 0.930 . S
H652 C662 0.930 . S
H653 C663 0.930 . S
C654 H648 0.930 . S
C654 C655 1.355 . S
C654 C656 1.415 . S
C655 C654 1.355 . S
C655 C657 1.419 1_565 S
C656 C654 1.415 . S
C656 C661 1.425 1_565 S
C656 C663 1.409 . S
C657 H649 0.930 . S
C657 C655 1.419 1_545 S
C657 C658 1.362 . S
C658 H650 0.930 . S
C658 C657 1.362 . S
C658 C661 1.409 . S
C659 H651 0.930 . S
C659 C660 1.355 . S
C659 C661 1.415 . S
C660 C659 1.355 . S
C660 C662 1.419 1_545 S
C661 C656 1.425 1_545 S
C661 C658 1.409 . S
C661 C659 1.415 . S
C662 H652 0.930 . S
C662 C660 1.419 1_565 S
C662 C663 1.362 . S
C663 H653 0.930 . S
C663 C656 1.409 . S
C663 C662 1.362 . S
H664 C670 0.930 . S
H665 C673 0.930 . S
H666 C674 0.930 . S
H667 C675 0.930 . S
H668 C678 0.930 . S
H669 C679 0.930 . S
C670 H664 0.930 . S
C670 C671 1.355 1_655 S
C670 C672 1.415 . S
C671 C670 1.355 1_455 S
C671 C673 1.419 . S
C672 C670 1.415 . S
C672 C677 1.425 1_655 S
C672 C679 1.409 . S
C673 H665 0.930 . S
C673 C671 1.419 . S
C673 C674 1.362 . S
C674 H666 0.930 . S
C674 C673 1.362 . S
C674 C677 1.409 . S
C675 H667 0.930 . S
C675 C676 1.355 1_455 S
C675 C677 1.415 . S
C676 C675 1.355 1_655 S
C676 C678 1.419 . S
C677 C672 1.425 1_455 S
C677 C674 1.409 . S
C677 C675 1.415 . S
C678 H668 0.930 . S
C678 C676 1.419 . S
C678 C679 1.362 . S
C679 H669 0.930 . S
C679 C672 1.409 . S
C679 C678 1.362 . S
H680 C686 0.930 . S
H681 C689 0.930 . S
H682 C690 0.930 . S
H683 C691 0.930 . S
H684 C694 0.930 . S
H685 C695 0.930 . S
C686 H680 0.930 . S
C686 C687 1.355 . S
C686 C688 1.415 . S
C687 C686 1.355 . S
C687 C689 1.419 . S
C688 C686 1.415 . S
C688 C693 1.425 . S
C688 C695 1.409 . S
C689 H681 0.930 . S
C689 C687 1.419 . S
C689 C690 1.362 . S
C690 H682 0.930 . S
C690 C689 1.362 . S
C690 C693 1.409 . S
C691 H683 0.930 . S
C691 C692 1.355 . S
C691 C693 1.415 . S
C692 C691 1.355 . S
C692 C694 1.419 . S
C693 C688 1.425 . S
C693 C690 1.409 . S
C693 C691 1.415 . S
C694 H684 0.930 . S
C694 C692 1.419 . S
C694 C695 1.362 . S
C695 H685 0.930 . S
C695 C688 1.409 . S
C695 C694 1.362 . S
H696 C702 0.930 . S
H697 C705 0.930 . S
H698 C706 0.930 . S
H699 C707 0.930 . S
H700 C710 0.930 . S
H701 C711 0.930 . S
C702 H696 0.930 . S
C702 C703 1.355 . S
C702 C704 1.415 . S
C703 C702 1.355 . S
C703 C705 1.419 . S
C704 C702 1.415 . S
C704 C709 1.425 . S
C704 C711 1.409 . S
C705 H697 0.930 . S
C705 C703 1.419 . S
C705 C706 1.362 . S
C706 H698 0.930 . S
C706 C705 1.362 . S
C706 C709 1.409 . S
C707 H699 0.930 . S
C707 C708 1.355 . S
C707 C709 1.415 . S
C708 C707 1.355 . S
C708 C710 1.419 . S
C709 C704 1.425 . S
C709 C706 1.409 . S
C709 C707 1.415 . S
C710 H700 0.930 . S
C710 C708 1.419 . S
C710 C711 1.362 . S
C711 H701 0.930 . S
C711 C704 1.409 . S
C711 C710 1.362 . S
H712 C718 0.930 . S
H713 C721 0.930 . S
H714 C722 0.930 . S
H715 C723 0.930 . S
H716 C726 0.930 . S
H717 C727 0.930 . S
C718 H712 0.930 . S
C718 C719 1.355 . S
C718 C720 1.415 . S
C719 C718 1.355 . S
C719 C721 1.419 . S
C720 C718 1.415 . S
C720 C725 1.425 . S
C720 C727 1.409 . S
C721 H713 0.930 . S
C721 C719 1.419 . S
C721 C722 1.362 . S
C722 H714 0.930 . S
C722 C721 1.362 . S
C722 C725 1.409 . S
C723 H715 0.930 . S
C723 C724 1.355 . S
C723 C725 1.415 . S
C724 C723 1.355 . S
C724 C726 1.419 . S
C725 C720 1.425 . S
C725 C722 1.409 . S
C725 C723 1.415 . S
C726 H716 0.930 . S
C726 C724 1.419 . S
C726 C727 1.362 . S
C727 H717 0.930 . S
C727 C720 1.409 . S
C727 C726 1.362 . S
H728 C734 0.930 . S
H729 C737 0.930 . S
H730 C738 0.930 . S
H731 C739 0.930 . S
H732 C742 0.930 . S
H733 C743 0.930 . S
C734 H728 0.930 . S
C734 C735 1.355 . S
C734 C736 1.415 . S
C735 C734 1.355 . S
C735 C737 1.419 . S
C736 C734 1.415 . S
C736 C741 1.425 . S
C736 C743 1.409 . S
C737 H729 0.930 . S
C737 C735 1.419 . S
C737 C738 1.362 . S
C738 H730 0.930 . S
C738 C737 1.362 . S
C738 C741 1.409 . S
C739 H731 0.930 . S
C739 C740 1.355 . S
C739 C741 1.415 . S
C740 C739 1.355 . S
C740 C742 1.419 . S
C741 C736 1.425 . S
C741 C738 1.409 . S
C741 C739 1.415 . S
C742 H732 0.930 . S
C742 C740 1.419 . S
C742 C743 1.362 . S
C743 H733 0.930 . S
C743 C736 1.409 . S
C743 C742 1.362 . S
H744 C750 0.930 . S
H745 C753 0.930 . S
H746 C754 0.930 . S
H747 C755 0.930 . S
H748 C758 0.930 . S
H749 C759 0.930 . S
C750 H744 0.930 . S
C750 C751 1.355 . S
C750 C752 1.415 . S
C751 C750 1.355 . S
C751 C753 1.419 . S
C752 C750 1.415 . S
C752 C757 1.425 . S
C752 C759 1.409 . S
C753 H745 0.930 . S
C753 C751 1.419 . S
C753 C754 1.362 . S
C754 H746 0.930 . S
C754 C753 1.362 . S
C754 C757 1.409 . S
C755 H747 0.930 . S
C755 C756 1.355 . S
C755 C757 1.415 . S
C756 C755 1.355 . S
C756 C758 1.419 . S
C757 C752 1.425 . S
C757 C754 1.409 . S
C757 C755 1.415 . S
C758 H748 0.930 . S
C758 C756 1.419 . S
C758 C759 1.362 . S
C759 H749 0.930 . S
C759 C752 1.409 . S
C759 C758 1.362 . S
H760 C766 0.930 . S
H761 C769 0.930 . S
H762 C770 0.930 . S
H763 C771 0.930 . S
H764 C774 0.930 . S
H765 C775 0.930 . S
C766 H760 0.930 . S
C766 C767 1.355 . S
C766 C768 1.415 . S
C767 C766 1.355 . S
C767 C769 1.419 . S
C768 C766 1.415 . S
C768 C773 1.425 . S
C768 C775 1.409 . S
C769 H761 0.930 . S
C769 C767 1.419 . S
C769 C770 1.362 . S
C770 H762 0.930 . S
C770 C769 1.362 . S
C770 C773 1.409 . S
C771 H763 0.930 . S
C771 C772 1.355 . S
C771 C773 1.415 . S
C772 C771 1.355 . S
C772 C774 1.419 . S
C773 C768 1.425 . S
C773 C770 1.409 . S
C773 C771 1.415 . S
C774 H764 0.930 . S
C774 C772 1.419 . S
C774 C775 1.362 . S
C775 H765 0.930 . S
C775 C768 1.409 . S
C775 C774 1.362 . S
H776 C782 0.930 . S
H777 C785 0.930 . S
H778 C786 0.930 . S
H779 C787 0.930 . S
H780 C790 0.930 . S
H781 C791 0.930 . S
C782 H776 0.930 . S
C782 C783 1.355 . S
C782 C784 1.415 . S
C783 C782 1.355 . S
C783 C785 1.419 . S
C784 C782 1.415 . S
C784 C789 1.425 . S
C784 C791 1.409 . S
C785 H777 0.930 . S
C785 C783 1.419 . S
C785 C786 1.362 . S
C786 H778 0.930 . S
C786 C785 1.362 . S
C786 C789 1.409 . S
C787 H779 0.930 . S
C787 C788 1.355 . S
C787 C789 1.415 . S
C788 C787 1.355 . S
C788 C790 1.419 . S
C789 C784 1.425 . S
C789 C786 1.409 . S
C789 C787 1.415 . S
C790 H780 0.930 . S
C790 C788 1.419 . S
C790 C791 1.362 . S
C791 H781 0.930 . S
C791 C784 1.409 . S
C791 C790 1.362 . S
H792 C798 0.930 . S
H793 C801 0.930 . S
H794 C802 0.930 . S
H795 C803 0.930 . S
H796 C806 0.930 . S
H797 C807 0.930 . S
C798 H792 0.930 . S
C798 C799 1.355 . S
C798 C800 1.415 . S
C799 C798 1.355 . S
C799 C801 1.419 . S
C800 C798 1.415 . S
C800 C805 1.425 . S
C800 C807 1.409 . S
C801 H793 0.930 . S
C801 C799 1.419 . S
C801 C802 1.362 . S
C802 H794 0.930 . S
C802 C801 1.362 . S
C802 C805 1.409 . S
C803 H795 0.930 . S
C803 C804 1.355 . S
C803 C805 1.415 . S
C804 C803 1.355 . S
C804 C806 1.419 . S
C805 C800 1.425 . S
C805 C802 1.409 . S
C805 C803 1.415 . S
C806 H796 0.930 . S
C806 C804 1.419 . S
C806 C807 1.362 . S
C807 H797 0.930 . S
C807 C800 1.409 . S
C807 C806 1.362 . S
H808 C814 0.930 . S
H809 C817 0.930 . S
H810 C818 0.930 . S
H811 C819 0.930 . S
H812 C822 0.930 . S
H813 C823 0.930 . S
C814 H808 0.930 . S
C814 C815 1.355 . S
C814 C816 1.415 . S
C815 C814 1.355 . S
C815 C817 1.419 . S
C816 C814 1.415 . S
C816 C821 1.425 . S
C816 C823 1.409 . S
C817 H809 0.930 . S
C817 C815 1.419 . S
C817 C818 1.362 . S
C818 H810 0.930 . S
C818 C817 1.362 . S
C818 C821 1.409 . S
C819 H811 0.930 . S
C819 C820 1.355 . S
C819 C821 1.415 . S
C820 C819 1.355 . S
C820 C822 1.419 . S
C821 C816 1.425 . S
C821 C818 1.409 . S
C821 C819 1.415 . S
C822 H812 0.930 . S
C822 C820 1.419 . S
C822 C823 1.362 . S
C823 H813 0.930 . S
C823 C816 1.409 . S
C823 C822 1.362 . S
H824 C830 0.930 . S
H825 C833 0.930 . S
H826 C834 0.930 . S
H827 C835 0.930 . S
H828 C838 0.930 . S
H829 C839 0.930 . S
C830 H824 0.930 . S
C830 C831 1.355 . S
C830 C832 1.415 . S
C831 C830 1.355 . S
C831 C833 1.419 . S
C832 C830 1.415 . S
C832 C837 1.425 . S
C832 C839 1.409 . S
C833 H825 0.930 . S
C833 C831 1.419 . S
C833 C834 1.362 . S
C834 H826 0.930 . S
C834 C833 1.362 . S
C834 C837 1.409 . S
C835 H827 0.930 . S
C835 C836 1.355 . S
C835 C837 1.415 . S
C836 C835 1.355 . S
C836 C838 1.419 . S
C837 C832 1.425 . S
C837 C834 1.409 . S
C837 C835 1.415 . S
C838 H828 0.930 . S
C838 C836 1.419 . S
C838 C839 1.362 . S
C839 H829 0.930 . S
C839 C832 1.409 . S
C839 C838 1.362 . S
H840 C846 0.930 . S
H841 C849 0.930 . S
H842 C850 0.930 . S
H843 C851 0.930 . S
H844 C854 0.930 . S
H845 C855 0.930 . S
C846 H840 0.930 . S
C846 C847 1.355 . S
C846 C848 1.415 . S
C847 C846 1.355 . S
C847 C849 1.419 . S
C848 C846 1.415 . S
C848 C853 1.425 . S
C848 C855 1.409 . S
C849 H841 0.930 . S
C849 C847 1.419 . S
C849 C850 1.362 . S
C850 H842 0.930 . S
C850 C849 1.362 . S
C850 C853 1.409 . S
C851 H843 0.930 . S
C851 C852 1.355 . S
C851 C853 1.415 . S
C852 C851 1.355 . S
C852 C854 1.419 . S
C853 C848 1.425 . S
C853 C850 1.409 . S
C853 C851 1.415 . S
C854 H844 0.930 . S
C854 C852 1.419 . S
C854 C855 1.362 . S
C855 H845 0.930 . S
C855 C848 1.409 . S
C855 C854 1.362 . S
H856 C862 0.930 . S
H857 C865 0.930 . S
H858 C866 0.930 . S
H859 C867 0.930 . S
H860 C870 0.930 . S
H861 C871 0.930 . S
C862 H856 0.930 . S
C862 C863 1.355 . S
C862 C864 1.415 . S
C863 C862 1.355 . S
C863 C865 1.419 . S
C864 C862 1.415 . S
C864 C869 1.425 . S
C864 C871 1.409 . S
C865 H857 0.930 . S
C865 C863 1.419 . S
C865 C866 1.362 . S
C866 H858 0.930 . S
C866 C865 1.362 . S
C866 C869 1.409 . S
C867 H859 0.930 . S
C867 C868 1.355 . S
C867 C869 1.415 . S
C868 C867 1.355 . S
C868 C870 1.419 . S
C869 C864 1.425 . S
C869 C866 1.409 . S
C869 C867 1.415 . S
C870 H860 0.930 . S
C870 C868 1.419 . S
C870 C871 1.362 . S
C871 H861 0.930 . S
C871 C864 1.409 . S
C871 C870 1.362 . S
H872 C878 0.930 . S
H873 C881 0.930 . S
H874 C882 0.930 . S
H875 C883 0.930 . S
H876 C886 0.930 . S
H877 C887 0.930 . S
C878 H872 0.930 . S
C878 C879 1.355 . S
C878 C880 1.415 . S
C879 C878 1.355 . S
C879 C881 1.419 . S
C880 C878 1.415 . S
C880 C885 1.425 . S
C880 C887 1.409 . S
C881 H873 0.930 . S
C881 C879 1.419 . S
C881 C882 1.362 . S
C882 H874 0.930 . S
C882 C881 1.362 . S
C882 C885 1.409 . S
C883 H875 0.930 . S
C883 C884 1.355 . S
C883 C885 1.415 . S
C884 C883 1.355 . S
C884 C886 1.419 . S
C885 C880 1.425 . S
C885 C882 1.409 . S
C885 C883 1.415 . S
C886 H876 0.930 . S
C886 C884 1.419 . S
C886 C887 1.362 . S
C887 H877 0.930 . S
C887 C880 1.409 . S
C887 C886 1.362 . S
C415 C373 1.599 . S
C420 C9 1.472 . S
C431 C43 1.395 . S
C436 C407 1.598 . S
C447 C339 1.627 . S
C452 C77 1.361 . S
C463 C111 1.473 . S
C468 C305 1.598 . S
C479 C145 1.474 . S
C484 C237 1.593 . S
C495 C179 1.354 . S
C500 C271 1.626 . S
C511 C169 1.619 . S
C516 C213 1.426 . S
C527 C203 1.597 . S
C532 C247 1.398 . S
C543 C135 1.628 . S
C548 C281 1.364 . S
C559 C101 1.590 . S
C564 C315 1.429 . S
C575 C349 1.349 . S
C580 C33 1.622 . S
C591 C67 1.624 . S
C596 C383 1.404 . S
C607 C224 1.340 . S
C612 C20 1.340 . S
C623 C54 1.339 . S
C628 C258 1.339 . S
C639 C292 1.379 . S
C644 C88 1.379 . S
C655 C122 1.363 . S
C660 C326 1.363 . S
C671 C156 1.339 . S
C676 C360 1.339 . S
C687 C394 1.377 . S
C692 C190 1.377 . S
C703 C5 0.795 . S
C708 C141 0.824 . S
C719 C39 0.729 . S
C724 C175 0.756 . S
C735 C73 0.704 . S
C740 C107 0.718 . S
C751 C345 0.786 . S
C756 C209 0.755 . S
C767 C243 0.867 . S
C772 C379 0.860 . S
C783 C277 0.775 . S
C788 C311 0.745 . S
C799 C172 1.465 . S
C804 C2 1.458 . S
C815 C104 1.453 . S
C820 C36 1.456 . S
C831 C70 1.477 . S
C836 C138 1.489 . S
C847 C206 1.454 . S
C852 C376 1.458 . S
C863 C308 1.470 . S
C868 C240 1.461 . S
C879 C342 1.456 . S
C884 C274 1.454 . S
