# Generated by pormake.
# Topology nfa, (4)-cn, num edge types: 1
# Building blocks:
#     Node 0, Type 0, BuildingBlock: KOZSID_clean_sbu_0, # of connection points: 4
#     Node 1, Type 0, BuildingBlock: KOZSID_clean_sbu_0, # of connection points: 4
#     Node 2, Type 0, BuildingBlock: KOZSID_clean_sbu_0, # of connection points: 4
#     Node 3, Type 0, BuildingBlock: KOZSID_clean_sbu_0, # of connection points: 4
#     Node 4, Type 0, BuildingBlock: KOZSID_clean_sbu_0, # of connection points: 4
#     Node 5, Type 0, BuildingBlock: KOZSID_clean_sbu_0, # of connection points: 4
#     Node 6, Type 0, BuildingBlock: KOZSID_clean_sbu_0, # of connection points: 4
#     Node 7, Type 0, BuildingBlock: KOZSID_clean_sbu_0, # of connection points: 4
#     Node 8, Type 0, BuildingBlock: KOZSID_clean_sbu_0, # of connection points: 4
#     Node 9, Type 0, BuildingBlock: KOZSID_clean_sbu_0, # of connection points: 4
#     Node 10, Type 0, BuildingBlock: KOZSID_clean_sbu_0, # of connection points: 4
#     Node 11, Type 0, BuildingBlock: KOZSID_clean_sbu_0, # of connection points: 4
#     Node 12, Type 0, BuildingBlock: KOZSID_clean_sbu_0, # of connection points: 4
#     Node 13, Type 0, BuildingBlock: KOZSID_clean_sbu_0, # of connection points: 4
#     Node 14, Type 0, BuildingBlock: KOZSID_clean_sbu_0, # of connection points: 4
#     Node 15, Type 0, BuildingBlock: KOZSID_clean_sbu_0, # of connection points: 4
#     Node 16, Type 0, BuildingBlock: KOZSID_clean_sbu_0, # of connection points: 4
#     Node 17, Type 0, BuildingBlock: KOZSID_clean_sbu_0, # of connection points: 4
#     Node 18, Type 0, BuildingBlock: KOZSID_clean_sbu_0, # of connection points: 4
#     Node 19, Type 0, BuildingBlock: KOZSID_clean_sbu_0, # of connection points: 4
#     Node 20, Type 0, BuildingBlock: KOZSID_clean_sbu_0, # of connection points: 4
#     Node 21, Type 0, BuildingBlock: KOZSID_clean_sbu_0, # of connection points: 4
#     Node 22, Type 0, BuildingBlock: KOZSID_clean_sbu_0, # of connection points: 4
#     Node 23, Type 0, BuildingBlock: KOZSID_clean_sbu_0, # of connection points: 4
#     Edge 24, Type (0, 0), BuildingBlock: AJUNOK_clean_linker_0, # of connection points: 2
#     Edge 25, Type (0, 0), BuildingBlock: AJUNOK_clean_linker_0, # of connection points: 2
#     Edge 26, Type (0, 0), BuildingBlock: AJUNOK_clean_linker_0, # of connection points: 2
#     Edge 27, Type (0, 0), BuildingBlock: AJUNOK_clean_linker_0, # of connection points: 2
#     Edge 28, Type (0, 0), BuildingBlock: AJUNOK_clean_linker_0, # of connection points: 2
#     Edge 29, Type (0, 0), BuildingBlock: AJUNOK_clean_linker_0, # of connection points: 2
#     Edge 30, Type (0, 0), BuildingBlock: AJUNOK_clean_linker_0, # of connection points: 2
#     Edge 31, Type (0, 0), BuildingBlock: AJUNOK_clean_linker_0, # of connection points: 2
#     Edge 32, Type (0, 0), BuildingBlock: AJUNOK_clean_linker_0, # of connection points: 2
#     Edge 33, Type (0, 0), BuildingBlock: AJUNOK_clean_linker_0, # of connection points: 2
#     Edge 34, Type (0, 0), BuildingBlock: AJUNOK_clean_linker_0, # of connection points: 2
#     Edge 35, Type (0, 0), BuildingBlock: AJUNOK_clean_linker_0, # of connection points: 2
#     Edge 36, Type (0, 0), BuildingBlock: AJUNOK_clean_linker_0, # of connection points: 2
#     Edge 37, Type (0, 0), BuildingBlock: AJUNOK_clean_linker_0, # of connection points: 2
#     Edge 38, Type (0, 0), BuildingBlock: AJUNOK_clean_linker_0, # of connection points: 2
#     Edge 39, Type (0, 0), BuildingBlock: AJUNOK_clean_linker_0, # of connection points: 2
#     Edge 40, Type (0, 0), BuildingBlock: AJUNOK_clean_linker_0, # of connection points: 2
#     Edge 41, Type (0, 0), BuildingBlock: AJUNOK_clean_linker_0, # of connection points: 2
#     Edge 42, Type (0, 0), BuildingBlock: AJUNOK_clean_linker_0, # of connection points: 2
#     Edge 43, Type (0, 0), BuildingBlock: AJUNOK_clean_linker_0, # of connection points: 2
#     Edge 44, Type (0, 0), BuildingBlock: AJUNOK_clean_linker_0, # of connection points: 2
#     Edge 45, Type (0, 0), BuildingBlock: AJUNOK_clean_linker_0, # of connection points: 2
#     Edge 46, Type (0, 0), BuildingBlock: AJUNOK_clean_linker_0, # of connection points: 2
#     Edge 47, Type (0, 0), BuildingBlock: AJUNOK_clean_linker_0, # of connection points: 2
#     Edge 48, Type (0, 0), BuildingBlock: AJUNOK_clean_linker_0, # of connection points: 2
#     Edge 49, Type (0, 0), BuildingBlock: AJUNOK_clean_linker_0, # of connection points: 2
#     Edge 50, Type (0, 0), BuildingBlock: AJUNOK_clean_linker_0, # of connection points: 2
#     Edge 51, Type (0, 0), BuildingBlock: AJUNOK_clean_linker_0, # of connection points: 2
#     Edge 52, Type (0, 0), BuildingBlock: AJUNOK_clean_linker_0, # of connection points: 2
#     Edge 53, Type (0, 0), BuildingBlock: AJUNOK_clean_linker_0, # of connection points: 2
#     Edge 54, Type (0, 0), BuildingBlock: AJUNOK_clean_linker_0, # of connection points: 2
#     Edge 55, Type (0, 0), BuildingBlock: AJUNOK_clean_linker_0, # of connection points: 2
#     Edge 56, Type (0, 0), BuildingBlock: AJUNOK_clean_linker_0, # of connection points: 2
#     Edge 57, Type (0, 0), BuildingBlock: AJUNOK_clean_linker_0, # of connection points: 2
#     Edge 58, Type (0, 0), BuildingBlock: AJUNOK_clean_linker_0, # of connection points: 2
#     Edge 59, Type (0, 0), BuildingBlock: AJUNOK_clean_linker_0, # of connection points: 2
#     Edge 60, Type (0, 0), BuildingBlock: AJUNOK_clean_linker_0, # of connection points: 2
#     Edge 61, Type (0, 0), BuildingBlock: AJUNOK_clean_linker_0, # of connection points: 2
#     Edge 62, Type (0, 0), BuildingBlock: AJUNOK_clean_linker_0, # of connection points: 2
#     Edge 63, Type (0, 0), BuildingBlock: AJUNOK_clean_linker_0, # of connection points: 2
#     Edge 64, Type (0, 0), BuildingBlock: AJUNOK_clean_linker_0, # of connection points: 2
#     Edge 65, Type (0, 0), BuildingBlock: AJUNOK_clean_linker_0, # of connection points: 2
#     Edge 66, Type (0, 0), BuildingBlock: AJUNOK_clean_linker_0, # of connection points: 2
#     Edge 67, Type (0, 0), BuildingBlock: AJUNOK_clean_linker_0, # of connection points: 2
#     Edge 68, Type (0, 0), BuildingBlock: AJUNOK_clean_linker_0, # of connection points: 2
#     Edge 69, Type (0, 0), BuildingBlock: AJUNOK_clean_linker_0, # of connection points: 2
#     Edge 70, Type (0, 0), BuildingBlock: AJUNOK_clean_linker_0, # of connection points: 2
#     Edge 71, Type (0, 0), BuildingBlock: AJUNOK_clean_linker_0, # of connection points: 2
# Relax obj value: 0.048
# Max RMSD: 0.152
# Mean RMSD: 0.110
data_MOF--net-nfa--node1-KOZSID_clean_sbu_0--edge1-AJUNOK_clean_linker_0
_symmetry_space_group_name_H-M    P1
_symmetry_Int_Tables_number       1
_symmetry_cell_setting            triclinic
loop_
_symmetry_equiv_pos_as_xyz
'x, y, z'
_cell_length_a     38.294546
_cell_length_b     39.332444
_cell_length_c     40.176085
_cell_angle_alpha  88.804963
_cell_angle_beta   87.353364
_cell_angle_gamma 86.17234
loop_
_atom_site_label
_atom_site_type_symbol
_atom_site_fract_x
_atom_site_fract_y
_atom_site_fract_z
_atom_type_partial_charge
C0 C 0.02794 0.38274 0.37082 0.0
C1 C 0.99374 0.39247 0.38121 0.0
C2 C 0.99481 0.42246 0.3976 0.0
C3 C 0.02942 0.42961 0.39607 0.0
N4 N 0.05047 0.40624 0.37921 0.0
Co5 Co 0.10287 0.40628 0.37271 0.0
N6 N 0.10511 0.44806 0.40032 0.0
C7 C 0.07812 0.46403 0.41792 0.0
C8 C 0.08684 0.4935 0.43225 0.0
C9 C 0.12114 0.497 0.42255 0.0
C10 C 0.13154 0.46933 0.40279 0.0
N11 N 0.15508 0.40722 0.36503 0.0
C12 C 0.17662 0.43258 0.37019 0.0
C13 C 0.21059 0.42425 0.35816 0.0
C14 C 0.21032 0.39312 0.34382 0.0
C15 C 0.17635 0.38426 0.34794 0.0
N16 N 0.10103 0.36389 0.34589 0.0
C17 C 0.12891 0.34565 0.33189 0.0
C18 C 0.12077 0.31552 0.31869 0.0
C19 C 0.08568 0.31391 0.32521 0.0
C20 C 0.07415 0.34352 0.34177 0.0
N21 N 0.09749 0.43592 0.33249 0.0
C22 C 0.1011 0.48519 0.28068 0.0
C23 C 0.11846 0.45286 0.27731 0.0
C24 C 0.11619 0.42867 0.30331 0.0
C25 C 0.08043 0.49155 0.3097 0.0
C26 C 0.07835 0.46653 0.33463 0.0
N27 N 0.10807 0.37653 0.4133 0.0
C28 C 0.13348 0.32547 0.43992 0.0
C29 C 0.10562 0.32538 0.46379 0.0
C30 C 0.0809 0.35315 0.46359 0.0
C31 C 0.08316 0.37856 0.43897 0.0
C32 C 0.13403 0.35088 0.41496 0.0
H33 H 0.06365 0.399 0.44079 0.0
H34 H 0.15535 0.34879 0.39696 0.0
H35 H 0.13062 0.40469 0.29983 0.0
H36 H 0.06226 0.47319 0.3561 0.0
C37 C 0.04371 0.45496 0.41431 0.0
C38 C 0.03786 0.35011 0.35472 0.0
C39 C 0.16575 0.46563 0.38469 0.0
C40 C 0.16282 0.35632 0.33349 0.0
H41 H 0.97059 0.37864 0.37833 0.0
H42 H 0.97318 0.43644 0.41059 0.0
H43 H 0.06956 0.51174 0.44588 0.0
H44 H 0.1362 0.51839 0.42793 0.0
H45 H 0.23295 0.43966 0.35864 0.0
H46 H 0.2319 0.37939 0.33053 0.0
H47 H 0.13852 0.2963 0.30698 0.0
H48 H 0.07068 0.29263 0.31943 0.0
H49 H 0.13422 0.44643 0.25497 0.0
H50 H 0.06684 0.51621 0.31395 0.0
H51 H 0.15469 0.30586 0.44011 0.0
H52 H 0.05916 0.35501 0.48183 0.0
C53 C 0.88911 0.77893 0.62202 0.0
C54 C 0.87827 0.74926 0.63737 0.0
C55 C 0.84963 0.7585 0.6575 0.0
C56 C 0.84453 0.79313 0.65318 0.0
N57 N 0.86766 0.80646 0.63087 0.0
Co58 Co 0.87165 0.85606 0.61935 0.0
N59 N 0.83253 0.87029 0.65185 0.0
C60 C 0.81494 0.84982 0.67315 0.0
C61 C 0.78979 0.86707 0.69287 0.0
C62 C 0.79043 0.90036 0.68254 0.0
C63 C 0.8154 0.90135 0.65639 0.0
N64 N 0.87573 0.9059 0.60813 0.0
C65 C 0.85175 0.93267 0.61331 0.0
C66 C 0.8612 0.96117 0.5947 0.0
C67 C 0.89233 0.9526 0.57842 0.0
C68 C 0.8998 0.91914 0.58664 0.0
N69 N 0.91058 0.84188 0.58637 0.0
C70 C 0.92884 0.86268 0.56597 0.0
C71 C 0.95593 0.84629 0.54805 0.0
C72 C 0.95558 0.81305 0.55812 0.0
C73 C 0.92793 0.81099 0.58161 0.0
N74 N 0.83679 0.85392 0.5845 0.0
C75 C 0.78276 0.85894 0.53861 0.0
C76 C 0.81248 0.87776 0.53418 0.0
C77 C 0.83943 0.87369 0.55623 0.0
C78 C 0.78158 0.8363 0.566 0.0
C79 C 0.80811 0.83495 0.58893 0.0
N80 N 0.90665 0.85778 0.65429 0.0
C81 C 0.96613 0.86598 0.66858 0.0
C82 C 0.96228 0.84608 0.69758 0.0
C83 C 0.9294 0.83411 0.70562 0.0
C84 C 0.90201 0.8409 0.68421 0.0
C85 C 0.93817 0.87161 0.64755 0.0
H86 H 0.87774 0.83101 0.69189 0.0
H87 H 0.94308 0.88631 0.62552 0.0
H88 H 0.86182 0.88756 0.55017 0.0
H89 H 0.80467 0.81857 0.61011 0.0
C90 C 0.82078 0.81433 0.67212 0.0
C91 C 0.92118 0.78 0.60094 0.0
C92 C 0.81899 0.93114 0.63401 0.0
C93 C 0.92313 0.8979 0.56765 0.0
H94 H 0.89066 0.7238 0.63519 0.0
H95 H 0.83531 0.74217 0.67446 0.0
H96 H 0.772 0.85652 0.71145 0.0
H97 H 0.77295 0.92116 0.69177 0.0
H98 H 0.84648 0.98506 0.59057 0.0
H99 H 0.9057 0.9678 0.55969 0.0
H100 H 0.97506 0.85752 0.53126 0.0
H101 H 0.97477 0.79315 0.55017 0.0
H102 H 0.81527 0.896 0.51387 0.0
H103 H 0.76056 0.81946 0.57001 0.0
H104 H 0.99083 0.87676 0.6618 0.0
H105 H 0.92495 0.8185 0.72773 0.0
C106 C 0.45654 0.62818 0.90112 0.0
C107 C 0.49047 0.61949 0.91044 0.0
C108 C 0.48846 0.59295 0.93277 0.0
C109 C 0.45356 0.58703 0.93576 0.0
N110 N 0.43332 0.60759 0.91601 0.0
Co111 Co 0.38104 0.61044 0.9152 0.0
N112 N 0.37773 0.57198 0.94846 0.0
C113 C 0.40437 0.55416 0.9632 0.0
C114 C 0.39414 0.52611 0.98111 0.0
C115 C 0.35906 0.52531 0.97646 0.0
C116 C 0.35006 0.55314 0.95623 0.0
N117 N 0.32875 0.61444 0.91593 0.0
C118 C 0.30568 0.59306 0.92967 0.0
C119 C 0.27138 0.60445 0.92388 0.0
C120 C 0.27307 0.63361 0.90495 0.0
C121 C 0.30813 0.63833 0.90034 0.0
N122 N 0.38405 0.64737 0.88036 0.0
C123 C 0.35707 0.66382 0.86483 0.0
C124 C 0.36727 0.6885 0.84255 0.0
C125 C 0.4028 0.6881 0.84434 0.0
C126 C 0.41224 0.66304 0.8677 0.0
N127 N 0.38243 0.576 0.87902 0.0
C128 C 0.38141 0.52339 0.83137 0.0
C129 C 0.35633 0.55113 0.83192 0.0
C130 C 0.35746 0.57701 0.85549 0.0
C131 C 0.40805 0.52382 0.85415 0.0
C132 C 0.4078 0.54968 0.8777 0.0
N133 N 0.37998 0.64511 0.95148 0.0
C134 C 0.36883 0.70356 0.96996 0.0
C135 C 0.38515 0.69631 1.00002 0.0
C136 C 0.39751 0.66244 0.00576 0.0
C137 C 0.39483 0.63763 0.98146 0.0
C138 C 0.36633 0.67793 0.94648 0.0
H139 H 0.40529 0.61261 0.98753 0.0
H140 H 0.3536 0.68556 0.92423 0.0
H141 H 0.33735 0.59723 0.85478 0.0
H142 H 0.42829 0.5476 0.89491 0.0
C143 C 0.43897 0.5625 0.95684 0.0
C144 C 0.44738 0.65767 0.87996 0.0
C145 C 0.31574 0.55912 0.94249 0.0
C146 C 0.32249 0.65969 0.87593 0.0
H147 H 0.51403 0.63175 0.90258 0.0
H148 H 0.50977 0.58006 0.94583 0.0
H149 H 0.41057 0.50738 0.99431 0.0
H150 H 0.34228 0.50575 0.98549 0.0
H151 H 0.24776 0.5918 0.93046 0.0
H152 H 0.25156 0.64784 0.89338 0.0
H153 H 0.35066 0.7062 0.82836 0.0
H154 H 0.41951 0.70552 0.83122 0.0
H155 H 0.33518 0.55252 0.81486 0.0
H156 H 0.42932 0.50427 0.85398 0.0
H157 H 0.35848 0.72919 0.96415 0.0
H158 H 0.40909 0.65483 0.02906 0.0
C159 C 0.59536 0.20853 0.15043 0.0
C160 C 0.59767 0.23708 0.16987 0.0
C161 C 0.62773 0.23216 0.18672 0.0
C162 C 0.64138 0.20042 0.1779 0.0
N163 N 0.62192 0.18479 0.15627 0.0
Co164 Co 0.62518 0.13477 0.14653 0.0
N165 N 0.66614 0.12558 0.17554 0.0
C166 C 0.68237 0.14888 0.19235 0.0
C167 C 0.71323 0.1364 0.20534 0.0
C168 C 0.7176 0.10336 0.19533 0.0
C169 C 0.68879 0.09747 0.17706 0.0
N170 N 0.62675 0.08465 0.13838 0.0
C171 C 0.65031 0.05962 0.14784 0.0
C172 C 0.64111 0.02782 0.13828 0.0
C173 C 0.61164 0.03329 0.12051 0.0
C174 C 0.60434 0.0679 0.12074 0.0
N175 N 0.58599 0.14369 0.11588 0.0
C176 C 0.57296 0.1209 0.09589 0.0
C177 C 0.54979 0.13532 0.07387 0.0
C178 C 0.54745 0.16927 0.08069 0.0
C179 C 0.56867 0.17347 0.10728 0.0
N180 N 0.6595 0.14145 0.10805 0.0
C181 C 0.71254 0.14732 0.05629 0.0
C182 C 0.6887 0.1217 0.05635 0.0
C183 C 0.66244 0.11958 0.08176 0.0
C184 C 0.70782 0.17096 0.08207 0.0
C185 C 0.68193 0.16729 0.10762 0.0
N186 N 0.59074 0.12848 0.18513 0.0
C187 C 0.53536 0.10917 0.20808 0.0
C188 C 0.53752 0.12731 0.23773 0.0
C189 C 0.56827 0.1445 0.24058 0.0
C190 C 0.59457 0.14364 0.21503 0.0
C191 C 0.56123 0.11104 0.1821 0.0
H192 H 0.61758 0.15608 0.21992 0.0
H193 H 0.55664 0.09834 0.15963 0.0
H194 H 0.64524 0.09948 0.07988 0.0
H195 H 0.68075 0.18568 0.12689 0.0
C196 C 0.66968 0.18294 0.19281 0.0
C197 C 0.56806 0.20493 0.12634 0.0
C198 C 0.68463 0.06565 0.15985 0.0
C199 C 0.58103 0.08596 0.10008 0.0
H200 H 0.57915 0.25886 0.17276 0.0
H201 H 0.63726 0.24882 0.2049 0.0
H202 H 0.73137 0.15019 0.21892 0.0
H203 H 0.74014 0.08622 0.19997 0.0
H204 H 0.65587 0.00361 0.14145 0.0
H205 H 0.59874 0.01461 0.10693 0.0
H206 H 0.53555 0.12258 0.05568 0.0
H207 H 0.53074 0.18848 0.06847 0.0
H208 H 0.69054 0.10263 0.03721 0.0
H209 H 0.72378 0.19257 0.08273 0.0
H210 H 0.51407 0.09323 0.20438 0.0
H211 H 0.57243 0.15924 0.26227 0.0
C212 C 0.13983 0.61929 0.17975 0.0
C213 C 0.15343 0.62868 0.20936 0.0
C214 C 0.17092 0.65729 0.20239 0.0
C215 C 0.16691 0.66383 0.16909 0.0
N216 N 0.1476 0.64132 0.15439 0.0
Co217 Co 0.13597 0.64095 0.10619 0.0
N218 N 0.16382 0.68171 0.09531 0.0
C219 C 0.18228 0.6988 0.11672 0.0
C220 C 0.20047 0.72426 0.10187 0.0
C221 C 0.19278 0.72386 0.06907 0.0
C222 C 0.16972 0.69841 0.06583 0.0
N223 N 0.12404 0.64073 0.05809 0.0
C224 C 0.12927 0.66429 0.03348 0.0
C225 C 0.10993 0.65825 0.00597 0.0
C226 C 0.09389 0.62889 0.01251 0.0
C227 C 0.1031 0.61926 0.04396 0.0
N228 N 0.10832 0.60009 0.11686 0.0
C229 C 0.0906 0.58252 0.0953 0.0
C230 C 0.07655 0.55404 0.10888 0.0
C231 C 0.08603 0.55304 0.1411 0.0
C232 C 0.10509 0.5814 0.14543 0.0
N233 N 0.09352 0.67192 0.11581 0.0
C234 C 0.03465 0.7184 0.12648 0.0
C235 C 0.03171 0.68762 0.11034 0.0
C236 C 0.06121 0.66493 0.10531 0.0
C237 C 0.06748 0.7252 0.13747 0.0
C238 C 0.09604 0.70169 0.1324 0.0
N239 N 0.17855 0.60999 0.09718 0.0
C240 C 0.2047 0.55391 0.08353 0.0
C241 C 0.23581 0.56092 0.09835 0.0
C242 C 0.23862 0.59382 0.10973 0.0
C243 C 0.21005 0.61758 0.10903 0.0
C244 C 0.17681 0.57897 0.08258 0.0
H245 H 0.21392 0.64146 0.11949 0.0
H246 H 0.15367 0.57233 0.07106 0.0
H247 H 0.05726 0.64206 0.09266 0.0
H248 H 0.12002 0.70853 0.14178 0.0
C249 C 0.18255 0.68971 0.15059 0.0
C250 C 0.12023 0.58893 0.1769 0.0
C251 C 0.15283 0.69218 0.03469 0.0
C252 C 0.08901 0.59254 0.06203 0.0
H253 H 0.15133 0.61587 0.23341 0.0
H254 H 0.18546 0.67125 0.21943 0.0
H255 H 0.21738 0.74107 0.11347 0.0
H256 H 0.20282 0.74072 0.04985 0.0
H257 H 0.10705 0.6736 0.98352 0.0
H258 H 0.07622 0.61689 0.99683 0.0
H259 H 0.06194 0.5357 0.09657 0.0
H260 H 0.08006 0.53321 0.15912 0.0
H261 H 0.00677 0.68106 0.10147 0.0
H262 H 0.07155 0.74902 0.14929 0.0
H263 H 0.20114 0.52888 0.07403 0.0
H264 H 0.26252 0.60098 0.12034 0.0
C265 C 0.6521 0.90796 0.43941 0.0
C266 C 0.64513 0.92763 0.46765 0.0
C267 C 0.62547 0.95621 0.45806 0.0
C268 C 0.62172 0.95282 0.42457 0.0
N269 N 0.63727 0.92354 0.41256 0.0
Co270 Co 0.64275 0.91229 0.36463 0.0
N271 N 0.60539 0.94704 0.3525 0.0
C272 C 0.59273 0.97352 0.37095 0.0
C273 C 0.56436 0.99082 0.35715 0.0
C274 C 0.55885 0.97386 0.32843 0.0
C275 C 0.58443 0.94722 0.3262 0.0
N276 N 0.64843 0.90183 0.3167 0.0
C277 C 0.62496 0.90739 0.29284 0.0
C278 C 0.63844 0.89568 0.26229 0.0
C279 C 0.67161 0.8817 0.26761 0.0
C280 C 0.67638 0.88579 0.301 0.0
N281 N 0.67957 0.87674 0.37582 0.0
C282 C 0.70236 0.86038 0.35404 0.0
C283 C 0.72196 0.83419 0.36863 0.0
C284 C 0.71142 0.83467 0.40167 0.0
C285 C 0.68643 0.86179 0.40562 0.0
N286 N 0.60697 0.87833 0.37089 0.0
C287 C 0.55388 0.83134 0.37721 0.0
C288 C 0.58689 0.82233 0.36186 0.0
C289 C 0.61275 0.84612 0.35868 0.0
C290 C 0.54885 0.86418 0.39043 0.0
C291 C 0.57562 0.88694 0.38738 0.0
N292 N 0.67857 0.94673 0.35924 0.0
C293 C 0.72787 0.97284 0.38156 0.0
C294 C 0.72495 1.00027 0.35881 0.0
C295 C 0.69937 0.99911 0.33482 0.0
C296 C 0.67654 0.97221 0.33543 0.0
C297 C 0.70471 0.94674 0.38142 0.0
H298 H 0.65665 0.97251 0.31719 0.0
H299 H 0.70764 0.927 0.4001 0.0
H300 H 0.63701 0.8387 0.34531 0.0
H301 H 0.57062 0.91184 0.39795 0.0
C302 C 0.60217 0.97551 0.40407 0.0
C303 C 0.67675 0.87742 0.43808 0.0
C304 C 0.58947 0.9226 0.29904 0.0
C305 C 0.70109 0.86697 0.31968 0.0
H306 H 0.6544 0.92288 0.49241 0.0
H307 H 0.6155 0.97714 0.47362 0.0
H308 H 0.54795 0.01162 0.3679 0.0
H309 H 0.53793 0.98011 0.31179 0.0
H310 H 0.62515 0.89606 0.23907 0.0
H311 H 0.68887 0.8677 0.24988 0.0
H312 H 0.7412 0.8165 0.35664 0.0
H313 H 0.72249 0.81833 0.42104 0.0
H314 H 0.59224 0.79774 0.35047 0.0
H315 H 0.52428 0.87239 0.40314 0.0
H316 H 0.74787 0.97159 0.39983 0.0
H317 H 0.69624 0.01939 0.31634 0.0
C318 C 0.35942 0.38391 0.73644 0.0
C319 C 0.33862 0.37705 0.7647 0.0
C320 C 0.32183 0.34852 0.75839 0.0
C321 C 0.33268 0.33986 0.72654 0.0
N322 N 0.35601 0.36066 0.71224 0.0
Co323 Co 0.37161 0.36173 0.66369 0.0
N324 N 0.34275 0.32295 0.65296 0.0
C325 C 0.32294 0.30521 0.67494 0.0
C326 C 0.30791 0.27847 0.66119 0.0
C327 C 0.3198 0.27835 0.62864 0.0
C328 C 0.34169 0.30502 0.62444 0.0
N329 N 0.38557 0.36448 0.61484 0.0
C330 C 0.38106 0.34252 0.58984 0.0
C331 C 0.39933 0.35192 0.56076 0.0
C332 C 0.41519 0.38087 0.56736 0.0
C333 C 0.40658 0.38733 0.60017 0.0
N334 N 0.4021 0.39908 0.67478 0.0
C335 C 0.42516 0.41397 0.65367 0.0
C336 C 0.44268 0.43872 0.66806 0.0
C337 C 0.42946 0.44024 0.70017 0.0
C338 C 0.40418 0.41654 0.7034 0.0
N339 N 0.41129 0.32711 0.67086 0.0
C340 C 0.46034 0.26959 0.66995 0.0
C341 C 0.46357 0.29691 0.64738 0.0
C342 C 0.44012 0.3256 0.64928 0.0
C343 C 0.43281 0.27273 0.69427 0.0
C344 C 0.40863 0.30125 0.6941 0.0
N345 N 0.33177 0.3959 0.65634 0.0
C346 C 0.3105 0.45388 0.64353 0.0
C347 C 0.27618 0.44695 0.6536 0.0
C348 C 0.27004 0.41351 0.66357 0.0
C349 C 0.29792 0.38868 0.66485 0.0
C350 C 0.33756 0.42818 0.64475 0.0
H351 H 0.29143 0.36389 0.67319 0.0
H352 H 0.3631 0.43518 0.63671 0.0
H353 H 0.44525 0.34567 0.63193 0.0
H354 H 0.38752 0.30142 0.71246 0.0
C355 C 0.31904 0.31439 0.70833 0.0
C356 C 0.38097 0.41351 0.7332 0.0
C357 C 0.36211 0.3112 0.59332 0.0
C358 C 0.42497 0.40851 0.61951 0.0
H359 H 0.33481 0.39176 0.78717 0.0
H360 H 0.30255 0.33658 0.77447 0.0
H361 H 0.2909 0.26075 0.67351 0.0
H362 H 0.31367 0.26016 0.6103 0.0
H363 H 0.40292 0.33828 0.53766 0.0
H364 H 0.43366 0.39368 0.5511 0.0
H365 H 0.46124 0.45518 0.6561 0.0
H366 H 0.43647 0.45791 0.71866 0.0
H367 H 0.48331 0.29613 0.62726 0.0
H368 H 0.42938 0.253 0.7131 0.0
H369 H 0.31668 0.47924 0.63522 0.0
H370 H 0.24379 0.40633 0.67023 0.0
C371 C 0.85421 0.1218 0.95305 0.0
C372 C 0.85956 0.10204 0.98173 0.0
C373 C 0.88551 0.07759 0.97394 0.0
C374 C 0.89446 0.08336 0.94102 0.0
N375 N 0.87632 0.11039 0.92752 0.0
Co376 Co 0.8785 0.12328 0.87912 0.0
N377 N 0.92263 0.09432 0.87014 0.0
C378 C 0.93642 0.07016 0.89076 0.0
C379 C 0.96927 0.05765 0.88014 0.0
C380 C 0.97659 0.07489 0.85093 0.0
C381 C 0.94733 0.09649 0.8448 0.0
N382 N 0.88033 0.1352 0.8307 0.0
C383 C 0.90728 0.13169 0.80758 0.0
C384 C 0.89663 0.14253 0.77632 0.0
C385 C 0.86205 0.15375 0.7802 0.0
C386 C 0.85342 0.14891 0.81343 0.0
N387 N 0.8349 0.15314 0.88774 0.0
C388 C 0.81441 0.1674 0.86416 0.0
C389 C 0.78648 0.18737 0.87696 0.0
C390 C 0.78893 0.18494 0.91081 0.0
C391 C 0.81804 0.16307 0.91688 0.0
N392 N 0.90676 0.1613 0.88785 0.0
C393 C 0.95428 0.21163 0.89239 0.0
C394 C 0.9249 0.21717 0.87303 0.0
C395 C 0.90127 0.19178 0.87133 0.0
C396 C 0.95845 0.18113 0.9107 0.0
C397 C 0.93434 0.15641 0.90822 0.0
N398 N 0.85038 0.08484 0.87049 0.0
C399 C 0.80136 0.05218 0.88657 0.0
C400 C 0.8123 0.02747 0.86331 0.0
C401 C 0.84242 0.03211 0.84306 0.0
C402 C 0.86088 0.06137 0.84673 0.0
C403 C 0.82065 0.08038 0.88981 0.0
H404 H 0.88394 0.06467 0.83083 0.0
H405 H 0.81165 0.09797 0.90876 0.0
H406 H 0.87935 0.19633 0.85561 0.0
H407 H 0.93903 0.13272 0.92162 0.0
C408 C 0.9214 0.06549 0.92271 0.0
C409 C 0.82483 0.14788 0.95008 0.0
C410 C 0.94286 0.11744 0.81412 0.0
C411 C 0.82345 0.16323 0.83029 0.0
H412 H 0.84534 0.10396 0.00555 0.0
H413 H 0.89632 0.05777 0.9903 0.0
H414 H 0.98682 0.03983 0.89319 0.0
H415 H 1.00101 0.07221 0.83636 0.0
H416 H 0.9123 0.14272 0.7532 0.0
H417 H 0.84576 0.16569 0.76138 0.0
H418 H 0.76662 0.2019 0.86334 0.0
H419 H 0.77038 0.19662 0.92899 0.0
H420 H 0.92067 0.2406 0.85871 0.0
H421 H 0.98108 0.17566 0.92561 0.0
H422 H 0.77848 0.04919 0.90304 0.0
H423 H 0.8516 0.01334 0.82476 0.0
C424 C 0.27968 0.13099 0.42977 0.0
C425 C 0.24902 0.15012 0.42257 0.0
C426 C 0.25504 0.16634 0.39272 0.0
C427 C 0.28914 0.15715 0.38341 0.0
N428 N 0.30508 0.13515 0.40522 0.0
Co429 Co 0.35681 0.12136 0.40467 0.0
N430 N 0.3678 0.1533 0.36674 0.0
C431 C 0.34504 0.17637 0.35268 0.0
C432 C 0.35981 0.19464 0.32686 0.0
C433 C 0.39383 0.18179 0.32371 0.0
C434 C 0.39775 0.15591 0.34753 0.0
N435 N 0.40821 0.10656 0.40356 0.0
C436 C 0.43378 0.11145 0.37947 0.0
C437 C 0.46434 0.09186 0.38604 0.0
C438 C 0.45801 0.07425 0.41502 0.0
C439 C 0.42392 0.0834 0.42435 0.0
N440 N 0.34601 0.09 0.44311 0.0
C441 C 0.3689 0.06794 0.45828 0.0
C442 C 0.35379 0.04876 0.48318 0.0
C443 C 0.31936 0.06037 0.48495 0.0
C444 C 0.31573 0.08676 0.46159 0.0
N445 N 0.35027 0.08487 0.37182 0.0
C446 C 0.34997 0.03618 0.32052 0.0
C447 C 0.36495 0.02786 0.35101 0.0
C448 C 0.36457 0.05222 0.37614 0.0
C449 C 0.33418 0.06905 0.31669 0.0
C450 C 0.33438 0.0926 0.34242 0.0
N451 N 0.36336 0.15825 0.43729 0.0
C452 C 0.39019 0.1803 0.48554 0.0
C453 C 0.36636 0.2092 0.48668 0.0
C454 C 0.34111 0.21138 0.46252 0.0
C455 C 0.34127 0.18716 0.43766 0.0
C456 C 0.38782 0.15508 0.46131 0.0
H457 H 0.32239 0.19238 0.41944 0.0
H458 H 0.40588 0.13316 0.46259 0.0
H459 H 0.37674 0.04422 0.39857 0.0
H460 H 0.32235 0.11727 0.3375 0.0
C461 C 0.30912 0.17611 0.3606 0.0
C462 C 0.28471 0.1109 0.46094 0.0
C463 C 0.42937 0.13268 0.34913 0.0
C464 C 0.40452 0.06667 0.44916 0.0
H465 H 0.22539 0.15443 0.43793 0.0
H466 H 0.23781 0.1856 0.38115 0.0
H467 H 0.34686 0.21355 0.31088 0.0
H468 H 0.41306 0.18937 0.30489 0.0
H469 H 0.48831 0.08887 0.37086 0.0
H470 H 0.47538 0.05508 0.42653 0.0
H471 H 0.36651 0.0295 0.49894 0.0
H472 H 0.29969 0.05194 0.50291 0.0
H473 H 0.37711 0.00262 0.35547 0.0
H474 H 0.3226 0.07708 0.29349 0.0
H475 H 0.41053 0.17681 0.50336 0.0
H476 H 0.32029 0.23129 0.46269 0.0
C477 C 0.18904 0.14061 0.60836 0.0
C478 C 0.21379 0.16483 0.60914 0.0
C479 C 0.20893 0.18062 0.63903 0.0
C480 C 0.18057 0.16647 0.65434 0.0
N481 N 0.16711 0.14229 0.6362 0.0
Co482 Co 0.11861 0.12587 0.64323 0.0
N483 N 0.1082 0.15345 0.68455 0.0
C484 C 0.131 0.17251 0.69921 0.0
C485 C 0.11951 0.18392 0.73003 0.0
C486 C 0.08773 0.17066 0.7359 0.0
C487 C 0.08125 0.15227 0.70793 0.0
N488 N 0.06944 0.11132 0.64847 0.0
C489 C 0.04426 0.1177 0.67292 0.0
C490 C 0.01297 0.10439 0.66529 0.0
C491 C 0.01921 0.08743 0.63607 0.0
C492 C 0.05359 0.09193 0.6271 0.0
N493 N 0.12961 0.09641 0.60352 0.0
C494 C 0.10873 0.07339 0.59197 0.0
C495 C 0.12433 0.05397 0.56683 0.0
C496 C 0.15687 0.06583 0.56154 0.0
C497 C 0.15895 0.09272 0.58312 0.0
N498 N 0.13532 0.08764 0.67281 0.0
C499 C 0.1505 0.03816 0.72288 0.0
C500 C 0.12512 0.03346 0.69979 0.0
C501 C 0.11826 0.05807 0.675 0.0
C502 C 0.16965 0.06716 0.71917 0.0
C503 C 0.16178 0.09135 0.69406 0.0
N504 N 0.1021 0.16433 0.61383 0.0
C505 C 0.0832 0.18441 0.5598 0.0
C506 C 0.09442 0.2169 0.56534 0.0
C507 C 0.10605 0.22333 0.59694 0.0
C508 C 0.10894 0.19711 0.62081 0.0
C509 C 0.08746 0.15862 0.58411 0.0
H510 H 0.11819 0.20372 0.64426 0.0
H511 H 0.07982 0.13398 0.57792 0.0
H512 H 0.09831 0.05301 0.65846 0.0
H513 H 0.17692 0.11322 0.69273 0.0
C514 C 0.16348 0.1783 0.68372 0.0
C515 C 0.18741 0.11627 0.58093 0.0
C516 C 0.04985 0.13306 0.70509 0.0
C517 C 0.07337 0.07364 0.60249 0.0
H518 H 0.23274 0.17153 0.58977 0.0
H519 H 0.22298 0.20151 0.64762 0.0
H520 H 0.13317 0.19906 0.74677 0.0
H521 H 0.07186 0.17351 0.75873 0.0
H522 H 0.98869 0.10524 0.68024 0.0
H523 H 1.00142 0.07196 0.62391 0.0
H524 H 0.11293 0.03442 0.55308 0.0
H525 H 0.17623 0.0566 0.54283 0.0
H526 H 0.10983 0.01123 0.70134 0.0
H527 H 0.19052 0.07131 0.73561 0.0
H528 H 0.07194 0.17854 0.53654 0.0
H529 H 0.11437 0.24817 0.60297 0.0
C530 C 0.13305 0.92735 0.84747 0.0
C531 C 0.10341 0.94981 0.84841 0.0
C532 C 0.07647 0.93233 0.86218 0.0
C533 C 0.09094 0.90027 0.86894 0.0
N534 N 0.12561 0.89656 0.86103 0.0
Co535 Co 0.15501 0.8529 0.86385 0.0
N536 N 0.11905 0.83126 0.8927 0.0
C537 C 0.08488 0.84144 0.89592 0.0
C538 C 0.0663 0.8208 0.91716 0.0
C539 C 0.09046 0.79621 0.92809 0.0
C540 C 0.12252 0.8035 0.91301 0.0
N541 N 0.18395 0.80905 0.86678 0.0
C542 C 0.18371 0.78511 0.89161 0.0
C543 C 0.2132 0.76267 0.88851 0.0
C544 C 0.23116 0.77166 0.85979 0.0
C545 C 0.21263 0.79986 0.84752 0.0
N546 N 0.19138 0.87451 0.83505 0.0
C547 C 0.21926 0.85805 0.81943 0.0
C548 C 0.2403 0.87939 0.80157 0.0
C549 C 0.22426 0.91126 0.80545 0.0
C550 C 0.19401 0.90751 0.82528 0.0
N551 N 0.17628 0.8682 0.90373 0.0
C552 C 0.2045 0.87551 0.96589 0.0
C553 C 0.22602 0.86556 0.93823 0.0
C554 C 0.21148 0.86235 0.90736 0.0
C555 C 0.16896 0.88404 0.96132 0.0
C556 C 0.15542 0.88046 0.92995 0.0
N557 N 0.13296 0.83725 0.82433 0.0
C558 C 0.09155 0.80103 0.80252 0.0
C559 C 0.08438 0.82507 0.77717 0.0
C560 C 0.10464 0.85319 0.77366 0.0
C561 C 0.12868 0.85885 0.79752 0.0
C562 C 0.11679 0.8072 0.82542 0.0
H563 H 0.14156 0.88213 0.7955 0.0
H564 H 0.12116 0.78896 0.84547 0.0
H565 H 0.22853 0.8534 0.88692 0.0
H566 H 0.12771 0.88582 0.92741 0.0
C567 C 0.07312 0.87355 0.88385 0.0
C568 C 0.16568 0.93451 0.82853 0.0
C569 C 0.15559 0.78325 0.91782 0.0
C570 C 0.22702 0.82335 0.82526 0.0
H571 H 0.10092 0.97564 0.83865 0.0
H572 H 0.04943 0.94174 0.86627 0.0
H573 H 0.03891 0.82414 0.92507 0.0
H574 H 0.08517 0.77556 0.94542 0.0
H575 H 0.22216 0.74296 0.90581 0.0
H576 H 0.25668 0.76113 0.851 0.0
H577 H 0.26453 0.87264 0.78761 0.0
H578 H 0.23288 0.93445 0.79369 0.0
H579 H 0.25381 0.85942 0.94062 0.0
H580 H 0.15144 0.89189 0.98209 0.0
H581 H 0.07652 0.77871 0.80564 0.0
H582 H 0.09983 0.87224 0.75423 0.0
C583 C 0.37561 0.94392 0.18015 0.0
C584 C 0.38677 0.97572 0.17081 0.0
C585 C 0.40213 0.97252 0.13955 0.0
C586 C 0.39958 0.93906 0.13162 0.0
N587 N 0.38273 0.92087 0.15556 0.0
Co588 Co 0.37767 0.87033 0.15582 0.0
N589 N 0.40214 0.86491 0.11072 0.0
C590 C 0.4136 0.89032 0.09076 0.0
C591 C 0.4257 0.87972 0.05976 0.0
C592 C 0.42074 0.84564 0.05953 0.0
C593 C 0.40596 0.83735 0.09055 0.0
N594 N 0.37496 0.81947 0.15733 0.0
C595 C 0.38358 0.79576 0.13369 0.0
C596 C 0.37695 0.7632 0.14518 0.0
C597 C 0.36281 0.76655 0.17687 0.0
C598 C 0.36175 0.8008 0.18295 0.0
N599 N 0.35097 0.8758 0.19975 0.0
C600 C 0.33589 0.85088 0.21776 0.0
C601 C 0.31989 0.86183 0.2472 0.0
C602 C 0.32545 0.89571 0.24826 0.0
C603 C 0.34466 0.90353 0.21929 0.0
N604 N 0.33289 0.8761 0.1326 0.0
C605 C 0.2778 0.87786 0.08852 0.0
C606 C 0.28181 0.85158 0.11227 0.0
C607 C 0.30899 0.85155 0.13446 0.0
C608 C 0.30004 0.90446 0.08898 0.0
C609 C 0.32698 0.90321 0.11113 0.0
N610 N 0.42257 0.86547 0.17875 0.0
C611 C 0.45142 0.86037 0.23103 0.0
C612 C 0.47895 0.87877 0.21773 0.0
C613 C 0.47957 0.88719 0.18386 0.0
C614 C 0.45165 0.87968 0.16479 0.0
C615 C 0.42376 0.85366 0.21106 0.0
H616 H 0.45348 0.88713 0.13916 0.0
H617 H 0.40286 0.84032 0.22263 0.0
H618 H 0.3109 0.8308 0.15206 0.0
H619 H 0.34354 0.92387 0.10915 0.0
C620 C 0.41233 0.92386 0.10191 0.0
C621 C 0.35879 0.9368 0.21278 0.0
C622 C 0.39488 0.80323 0.09924 0.0
C623 C 0.34278 0.81676 0.20939 0.0
H624 H 0.38441 0.99872 0.18531 0.0
H625 H 0.41418 0.99213 0.12459 0.0
H626 H 0.43614 0.8951 0.03948 0.0
H627 H 0.42664 0.82886 0.03871 0.0
H628 H 0.38038 0.73972 0.13149 0.0
H629 H 0.35239 0.74668 0.1927 0.0
H630 H 0.30762 0.84657 0.26657 0.0
H631 H 0.31765 0.91233 0.26879 0.0
H632 H 0.2647 0.83069 0.11307 0.0
H633 H 0.2981 0.92526 0.07092 0.0
H634 H 0.45043 0.85253 0.25705 0.0
H635 H 0.50119 0.90019 0.17229 0.0
C636 C 0.33857 0.42854 0.14983 0.0
C637 C 0.30888 0.42905 0.17105 0.0
C638 C 0.30809 0.39735 0.18539 0.0
C639 C 0.33702 0.37935 0.17193 0.0
N640 N 0.35703 0.39788 0.1509 0.0
Co641 Co 0.39725 0.38011 0.12109 0.0
N642 N 0.39312 0.33214 0.13794 0.0
C643 C 0.37067 0.32199 0.16256 0.0
C644 C 0.37875 0.28981 0.17458 0.0
C645 C 0.40876 0.27899 0.15734 0.0
C646 C 0.41692 0.305 0.13487 0.0
N647 N 0.43518 0.36243 0.08926 0.0
C648 C 0.44962 0.33038 0.08569 0.0
C649 C 0.47246 0.32805 0.05782 0.0
C650 C 0.47435 0.36045 0.04504 0.0
C651 C 0.45185 0.38038 0.06516 0.0
N652 N 0.40333 0.42825 0.10601 0.0
C653 C 0.42914 0.43936 0.08528 0.0
C654 C 0.42516 0.47369 0.07821 0.0
C655 C 0.39458 0.4848 0.09465 0.0
C656 C 0.38156 0.45649 0.11073 0.0
N657 N 0.43204 0.38492 0.15644 0.0
C658 C 0.4836 0.37922 0.20583 0.0
C659 C 0.4928 0.38434 0.17195 0.0
C660 C 0.46694 0.38778 0.14811 0.0
C661 C 0.44771 0.37846 0.21438 0.0
C662 C 0.42272 0.38132 0.18969 0.0
N663 N 0.36291 0.37473 0.08571 0.0
C664 C 0.33977 0.39238 0.03237 0.0
C665 C 0.31264 0.37023 0.03602 0.0
C666 C 0.31141 0.35023 0.06542 0.0
C667 C 0.33634 0.35304 0.0898 0.0
C668 C 0.36463 0.39363 0.05667 0.0
H669 H 0.33352 0.33755 0.11186 0.0
H670 H 0.38467 0.4108 0.0515 0.0
H671 H 0.47603 0.39173 0.12283 0.0
H672 H 0.396 0.37979 0.19812 0.0
C673 C 0.34493 0.34461 0.1767 0.0
C674 C 0.34671 0.45652 0.12692 0.0
C675 C 0.44803 0.30404 0.11187 0.0
C676 C 0.44991 0.41603 0.06581 0.0
H677 H 0.28898 0.4496 0.17475 0.0
H678 H 0.28787 0.38804 0.20225 0.0
H679 H 0.3658 0.27669 0.19512 0.0
H680 H 0.42337 0.25527 0.16256 0.0
H681 H 0.48856 0.30586 0.04963 0.0
H682 H 0.49183 0.36874 0.025 0.0
H683 H 0.44064 0.48821 0.06051 0.0
H684 H 0.38201 0.51023 0.09314 0.0
H685 H 0.51998 0.38459 0.16339 0.0
H686 H 0.43876 0.37535 0.24016 0.0
H687 H 0.34157 0.40983 0.0113 0.0
H688 H 0.29133 0.33235 0.06977 0.0
C689 C 0.92902 0.85689 0.11412 0.0
C690 C 0.96013 0.86118 0.09581 0.0
C691 C 0.95574 0.89136 0.07869 0.0
C692 C 0.92239 0.90374 0.0875 0.0
N693 N 0.90543 0.88373 0.10981 0.0
Co694 Co 0.85559 0.89111 0.1273 0.0
N695 N 0.84878 0.93523 0.10158 0.0
C696 C 0.87346 0.95063 0.08262 0.0
C697 C 0.86357 0.98338 0.07315 0.0
C698 C 0.83097 0.98973 0.08766 0.0
C699 C 0.82251 0.96011 0.10472 0.0
N700 N 0.8052 0.89721 0.14302 0.0
C701 C 0.78164 0.924 0.1389 0.0
C702 C 0.7491 0.91767 0.15357 0.0
C703 C 0.75278 0.88639 0.16884 0.0
C704 C 0.78706 0.87529 0.16224 0.0
N705 N 0.86293 0.8483 0.1548 0.0
C706 C 0.83935 0.83488 0.17655 0.0
C707 C 0.85139 0.80486 0.19122 0.0
C708 C 0.88454 0.79856 0.17788 0.0
C709 C 0.89095 0.82532 0.15583 0.0
N710 N 0.8695 0.91822 0.16487 0.0
C711 C 0.87489 0.97417 0.20564 0.0
C712 C 0.8496 0.95084 0.21312 0.0
C713 C 0.84793 0.92257 0.19287 0.0
C714 C 0.90019 0.96651 0.1804 0.0
C715 C 0.89734 0.93827 0.16073 0.0
N716 N 0.84163 0.86454 0.08936 0.0
C717 C 0.81958 0.81332 0.06857 0.0
C718 C 0.83266 0.82107 0.03663 0.0
C719 C 0.84809 0.85178 0.03081 0.0
C720 C 0.85184 0.8733 0.05735 0.0
C721 C 0.82419 0.83541 0.0945 0.0
H722 H 0.86423 0.89626 0.05152 0.0
H723 H 0.81456 0.82778 0.11862 0.0
H724 H 0.82772 0.90573 0.19913 0.0
H725 H 0.91688 0.93448 0.1412 0.0
C726 C 0.90674 0.93474 0.07653 0.0
C727 C 0.92308 0.82672 0.13488 0.0
C728 C 0.79012 0.9572 0.12511 0.0
C729 C 0.80448 0.8478 0.17832 0.0
H730 H 0.98356 0.84418 0.09479 0.0
H731 H 0.97459 0.90288 0.06182 0.0
H732 H 0.87899 1.00115 0.0589 0.0
H733 H 0.81594 0.01396 0.0868 0.0
H734 H 0.72574 0.93476 0.1548 0.0
H735 H 0.73347 0.87428 0.18472 0.0
H736 H 0.83705 0.78847 0.2081 0.0
H737 H 0.90148 0.77611 0.1829 0.0
H738 H 0.83004 0.95531 0.23317 0.0
H739 H 0.92125 0.98313 0.17489 0.0
H740 H 0.80727 0.78964 0.07376 0.0
H741 H 0.85822 0.8586 0.00611 0.0
C742 C 0.16878 0.58872 0.64407 0.0
C743 C 0.19984 0.60039 0.65452 0.0
C744 C 0.20014 0.63399 0.64493 0.0
C745 C 0.16926 0.64109 0.62941 0.0
N746 N 0.14912 0.61424 0.62925 0.0
Co747 Co 0.10368 0.61353 0.60731 0.0
N748 N 0.099 0.66403 0.60335 0.0
C749 C 0.12501 0.6852 0.60481 0.0
C750 C 0.11349 0.7189 0.60151 0.0
C751 C 0.07801 0.71879 0.59792 0.0
C752 C 0.06988 0.68492 0.59942 0.0
N753 N 0.0582 0.61331 0.58546 0.0
C754 C 0.03207 0.63829 0.58409 0.0
C755 C 0.00299 0.6265 0.5697 0.0
C756 C 0.01163 0.5933 0.5613 0.0
C757 C 0.04517 0.58643 0.57137 0.0
N758 N 0.10817 0.56285 0.61087 0.0
C759 C 0.08945 0.54142 0.59425 0.0
C760 C 0.09836 0.50772 0.60101 0.0
C761 C 0.12489 0.50782 0.62266 0.0
C762 C 0.13078 0.54175 0.62792 0.0
N763 N 0.07852 0.61617 0.65061 0.0
C764 C 0.03052 0.63172 0.70376 0.0
C765 C 0.02917 0.60155 0.68573 0.0
C766 C 0.05277 0.59473 0.65881 0.0
C767 C 0.05864 0.6521 0.69614 0.0
C768 C 0.08311 0.64297 0.67066 0.0
N769 N 0.12901 0.61184 0.56391 0.0
C770 C 0.18347 0.59736 0.53385 0.0
C771 C 0.17694 0.62469 0.51181 0.0
C772 C 0.14422 0.64277 0.51372 0.0
C773 C 0.12019 0.63536 0.53964 0.0
C774 C 0.15911 0.59134 0.55976 0.0
H775 H 0.09574 0.65064 0.54162 0.0
H776 H 0.16611 0.57188 0.57779 0.0
H777 H 0.04901 0.57308 0.64372 0.0
H778 H 0.1042 0.65934 0.66553 0.0
C779 C 0.15742 0.67301 0.61657 0.0
C780 C 0.1616 0.55241 0.64442 0.0
C781 C 0.03467 0.67318 0.5959 0.0
C782 C 0.06132 0.55382 0.57553 0.0
H783 H 0.22077 0.58573 0.66658 0.0
H784 H 0.22052 0.65112 0.64869 0.0
H785 H 0.12864 0.74098 0.60345 0.0
H786 H 0.06012 0.74103 0.59498 0.0
H787 H 0.97777 0.63986 0.56642 0.0
H788 H 0.99447 0.57557 0.55141 0.0
H789 H 0.0868 0.4857 0.59153 0.0
H790 H 0.13918 0.48542 0.63244 0.0
H791 H 0.00913 0.58388 0.6913 0.0
H792 H 0.06108 0.67614 0.70799 0.0
H793 H 0.20837 0.58254 0.53273 0.0
H794 H 0.13809 0.66362 0.49647 0.0
C795 C 0.66891 0.76725 0.92454 0.0
C796 C 0.68994 0.73754 0.91942 0.0
C797 C 0.7057 0.7405 0.8884 0.0
C798 C 0.693 0.7714 0.87601 0.0
N799 N 0.67121 0.78902 0.89788 0.0
Co800 Co 0.6424 0.83253 0.88873 0.0
N801 N 0.65657 0.83176 0.84005 0.0
C802 C 0.67853 0.80819 0.82444 0.0
C803 C 0.68469 0.8153 0.79121 0.0
C804 C 0.6661 0.84554 0.78539 0.0
C805 C 0.64978 0.85528 0.81557 0.0
N806 N 0.61324 0.87585 0.88 0.0
C807 C 0.61055 0.8952 0.85177 0.0
C808 C 0.58923 0.92476 0.85724 0.0
C809 C 0.57831 0.92416 0.88999 0.0
C810 C 0.59361 0.89458 0.90278 0.0
N811 N 0.62825 0.83322 0.93731 0.0
C812 C 0.60863 0.85783 0.95382 0.0
C813 C 0.60273 0.85046 0.98703 0.0
C814 C 0.61841 0.81864 0.9917 0.0
C815 C 0.63256 0.80834 0.96082 0.0
N816 N 0.68299 0.86001 0.89622 0.0
C817 C 0.73106 0.91047 0.88719 0.0
C818 C 0.7018 0.91538 0.90899 0.0
C819 C 0.67845 0.88979 0.91342 0.0
C820 C 0.73863 0.87818 0.87403 0.0
C821 C 0.7146 0.85321 0.87939 0.0
N822 N 0.60209 0.80544 0.8806 0.0
C823 C 0.54157 0.79327 0.89119 0.0
C824 C 0.54693 0.76267 0.87396 0.0
C825 C 0.58014 0.75445 0.85941 0.0
C826 C 0.60686 0.77629 0.86247 0.0
C827 C 0.56938 0.81409 0.89432 0.0
H828 H 0.63152 0.76847 0.85084 0.0
H829 H 0.56414 0.83662 0.90857 0.0
H830 H 0.65607 0.89548 0.92944 0.0
H831 H 0.72138 0.82935 0.86813 0.0
C832 C 0.69503 0.78111 0.84225 0.0
C833 C 0.6452 0.77329 0.95382 0.0
C834 C 0.62975 0.88796 0.82013 0.0
C835 C 0.59258 0.88534 0.93657 0.0
H836 H 0.6924 0.71518 0.9354 0.0
H837 H 0.72217 0.72122 0.87544 0.0
H838 H 0.70166 0.80085 0.77358 0.0
H839 H 0.66552 0.85943 0.76186 0.0
H840 H 0.58316 0.9454 0.83984 0.0
H841 H 0.56239 0.94373 0.90325 0.0
H842 H 0.58699 0.86546 0.00516 0.0
H843 H 0.61743 0.80371 0.01463 0.0
H844 H 0.69612 0.93942 0.92144 0.0
H845 H 0.76189 0.87278 0.85815 0.0
H846 H 0.51623 0.8008 0.90282 0.0
H847 H 0.58609 0.73061 0.84671 0.0
C848 C 0.95259 0.20596 0.35777 0.0
C849 C 0.98679 0.19726 0.36633 0.0
C850 C 0.98793 0.16393 0.37669 0.0
C851 C 0.95453 0.15412 0.37385 0.0
N852 N 0.9323 0.17883 0.3614 0.0
Co853 Co 0.88037 0.17621 0.35754 0.0
N854 N 0.88116 0.12813 0.37578 0.0
C855 C 0.91004 0.10865 0.38393 0.0
C856 C 0.90368 0.0754 0.39149 0.0
C857 C 0.86879 0.07316 0.38695 0.0
C858 C 0.85577 0.10532 0.37692 0.0
N859 N 0.82808 0.17447 0.35591 0.0
C860 C 0.80722 0.1479 0.36068 0.0
C861 C 0.7724 0.15783 0.35569 0.0
C862 C 0.77135 0.19149 0.3464 0.0
C863 C 0.80544 0.20025 0.34642 0.0
N864 N 0.87975 0.22337 0.33721 0.0
C865 C 0.85138 0.24125 0.32554 0.0
C866 C 0.85791 0.27373 0.31517 0.0
C867 C 0.89234 0.277 0.32105 0.0
C868 C 0.90513 0.24611 0.33454 0.0
N869 N 0.88662 0.15637 0.31268 0.0
C870 C 0.88289 0.10443 0.26749 0.0
C871 C 0.8562 0.13026 0.26978 0.0
C872 C 0.85907 0.1567 0.29201 0.0
C873 C 0.91385 0.10826 0.28341 0.0
C874 C 0.9155 0.13499 0.30522 0.0
N875 N 0.8749 0.19563 0.40256 0.0
C876 C 0.8686 0.24781 0.43316 0.0
C877 C 0.89255 0.2344 0.456 0.0
C878 C 0.9031 0.1998 0.45454 0.0
C879 C 0.89343 0.18076 0.42799 0.0
C880 C 0.85954 0.22774 0.40706 0.0
H881 H 0.90314 0.15471 0.42742 0.0
H882 H 0.84201 0.23938 0.38958 0.0
H883 H 0.8376 0.17553 0.29403 0.0
H884 H 0.93941 0.13607 0.31762 0.0
C885 C 0.94294 0.12213 0.38296 0.0
C886 C 0.94059 0.24051 0.347 0.0
C887 C 0.81956 0.11242 0.36703 0.0
C888 C 0.8179 0.22969 0.33142 0.0
H889 H 0.00853 0.21352 0.36571 0.0
H890 H 0.01027 0.14887 0.38588 0.0
H891 H 0.92243 0.05493 0.39833 0.0
H892 H 0.85474 0.05021 0.38961 0.0
H893 H 0.75036 0.14193 0.35693 0.0
H894 H 0.74881 0.20701 0.33826 0.0
H895 H 0.8392 0.29358 0.30682 0.0
H896 H 0.90583 0.30018 0.31747 0.0
H897 H 0.83241 0.12877 0.25646 0.0
H898 H 0.93576 0.08944 0.28075 0.0
H899 H 0.85836 0.27413 0.43432 0.0
H900 H 0.91967 0.18777 0.47313 0.0
C901 C 0.55345 0.11571 0.64554 0.0
C902 C 0.52367 0.10731 0.63004 0.0
C903 C 0.53348 0.08011 0.61025 0.0
C904 C 0.56863 0.07344 0.61462 0.0
N905 N 0.58162 0.09439 0.63661 0.0
Co906 Co 0.63222 0.09618 0.64753 0.0
N907 N 0.64789 0.06143 0.61357 0.0
C908 C 0.62804 0.04879 0.59045 0.0
C909 C 0.64659 0.02644 0.56943 0.0
C910 C 0.67991 0.02392 0.58061 0.0
C911 C 0.67955 0.04421 0.60853 0.0
N912 N 0.68253 0.09664 0.6597 0.0
C913 C 0.70896 0.07204 0.65484 0.0
C914 C 0.73648 0.07706 0.67532 0.0
C915 C 0.72794 0.10619 0.69227 0.0
C916 C 0.69522 0.11679 0.68262 0.0
N917 N 0.61679 0.13173 0.68096 0.0
C918 C 0.63732 0.14786 0.70106 0.0
C919 C 0.61944 0.17155 0.72104 0.0
C920 C 0.58548 0.17145 0.71226 0.0
C921 C 0.58487 0.14786 0.68708 0.0
N922 N 0.62649 0.05907 0.68135 0.0
C923 C 0.62797 0.00232 0.7255 0.0
C924 C 0.63955 0.03349 0.73507 0.0
C925 C 0.63829 0.06146 0.71287 0.0
C926 C 0.61415 1.00052 0.69411 0.0
C927 C 0.61368 0.02891 0.67263 0.0
N928 N 0.63804 0.13313 0.61292 0.0
C929 C 0.66441 0.18404 0.59078 0.0
C930 C 0.64467 0.184 0.56221 0.0
C931 C 0.62073 0.15906 0.56045 0.0
C932 C 0.6184 0.134 0.58518 0.0
C933 C 0.66061 0.15857 0.61579 0.0
H934 H 0.60024 0.11567 0.58083 0.0
H935 H 0.67624 0.15983 0.63706 0.0
H936 H 0.64773 0.08453 0.7214 0.0
H937 H 0.60374 0.02552 0.64868 0.0
C938 C 0.59139 0.05389 0.59296 0.0
C939 C 0.55488 0.14568 0.66632 0.0
C940 C 0.7081 0.04319 0.63195 0.0
C941 C 0.67327 0.14031 0.70034 0.0
H942 H 0.49797 0.12048 0.63142 0.0
H943 H 0.51753 0.06852 0.59265 0.0
H944 H 0.63661 0.01197 0.54974 0.0
H945 H 0.70136 0.00722 0.57077 0.0
H946 H 0.75946 0.06064 0.67995 0.0
H947 H 0.74231 0.11633 0.71199 0.0
H948 H 0.63 0.18774 0.73902 0.0
H949 H 0.56396 0.18827 0.72178 0.0
H950 H 0.64957 0.0363 0.75957 0.0
H951 H 0.6046 0.97697 0.68577 0.0
H952 H 0.68302 0.20322 0.5936 0.0
H953 H 0.60364 0.1586 0.53973 0.0
C954 C 0.17369 0.39368 0.93706 0.0
C955 C 0.16561 0.41544 0.96352 0.0
C956 C 0.13728 0.43609 0.95495 0.0
C957 C 0.12985 0.42624 0.92371 0.0
N958 N 0.15116 0.39995 0.91198 0.0
Co959 Co 0.15424 0.3837 0.86473 0.0
N960 N 0.11353 0.41525 0.8515 0.0
C961 C 0.09447 0.43725 0.87161 0.0
C962 C 0.06588 0.45296 0.857 0.0
C963 C 0.06619 0.43957 0.82588 0.0
C964 C 0.09531 0.41665 0.82315 0.0
N965 N 0.15899 0.36912 0.81715 0.0
C966 C 0.13786 0.37637 0.79131 0.0
C967 C 0.15121 0.36089 0.7623 0.0
C968 C 0.18131 0.34252 0.77033 0.0
C969 C 0.18477 0.34795 0.80361 0.0
N970 N 0.19304 0.35023 0.87833 0.0
C971 C 0.21066 0.32695 0.85854 0.0
C972 C 0.23517 0.30665 0.87478 0.0
C973 C 0.23363 0.31821 0.90669 0.0
C974 C 0.20867 0.34548 0.9079 0.0
N975 N 0.12042 0.34883 0.8752 0.0
C976 C 0.06773 0.30282 0.88468 0.0
C977 C 0.09695 0.29516 0.8634 0.0
C978 C 0.123 0.31827 0.85922 0.0
C979 C 0.06591 0.33331 0.902 0.0
C980 C 0.09247 0.35571 0.89708 0.0
N981 N 0.1881 0.419 0.85502 0.0
C982 C 0.24736 0.43244 0.86414 0.0
C983 C 0.23505 0.4643 0.87615 0.0
C984 C 0.20045 0.47553 0.87046 0.0
C985 C 0.17764 0.4527 0.85902 0.0
C986 C 0.22342 0.41032 0.85306 0.0
H987 H 0.15124 0.46236 0.85592 0.0
H988 H 0.23367 0.38556 0.84545 0.0
H989 H 0.14463 0.31129 0.84244 0.0
H990 H 0.0894 0.3789 0.91054 0.0
C991 C 0.10402 0.44205 0.90419 0.0
C992 C 0.20412 0.36879 0.93604 0.0
C993 C 0.1041 0.39609 0.79356 0.0
C994 C 0.20715 0.32838 0.82405 0.0
H995 H 0.17934 0.41727 0.98624 0.0
H996 H 0.1245 0.45675 0.96927 0.0
H997 H 0.04662 0.47132 0.86795 0.0
H998 H 0.04682 0.4456 0.80752 0.0
H999 H 0.13961 0.36174 0.73821 0.0
H1000 H 0.19744 0.32544 0.75433 0.0
H1001 H 0.25341 0.28713 0.86423 0.0
H1002 H 0.25055 0.30905 0.92626 0.0
H1003 H 0.09953 0.27156 0.84979 0.0
H1004 H 0.04353 0.34043 0.91847 0.0
H1005 H 0.27468 0.42371 0.86549 0.0
H1006 H 0.19056 0.50122 0.87649 0.0
C1007 C 0.33116 0.65176 0.43681 0.0
C1008 C 0.34305 0.63987 0.4672 0.0
C1009 C 0.37709 0.62731 0.46118 0.0
C1010 C 0.38385 0.63231 0.42755 0.0
N1011 N 0.35631 0.64746 0.41233 0.0
Co1012 Co 0.35242 0.65698 0.36405 0.0
N1013 N 0.39223 0.62354 0.3526 0.0
C1014 C 0.41569 0.6102 0.37417 0.0
C1015 C 0.44182 0.58958 0.35921 0.0
C1016 C 0.43501 0.59063 0.32606 0.0
C1017 C 0.40486 0.61191 0.3225 0.0
N1018 N 0.34787 0.66685 0.31568 0.0
C1019 C 0.36329 0.65064 0.28889 0.0
C1020 C 0.35228 0.66601 0.25937 0.0
C1021 C 0.33043 0.69364 0.26803 0.0
C1022 C 0.32895 0.69339 0.30219 0.0
N1023 N 0.31299 0.69046 0.37582 0.0
C1024 C 0.29941 0.71571 0.35633 0.0
C1025 C 0.2705 0.73287 0.37111 0.0
C1026 C 0.26546 0.71711 0.40159 0.0
C1027 C 0.29184 0.69135 0.40365 0.0
N1028 N 0.38603 0.69314 0.3665 0.0
C1029 C 0.43822 0.74002 0.37257 0.0
C1030 C 0.43979 0.71719 0.34629 0.0
C1031 C 0.4135 0.69445 0.34355 0.0
C1032 C 0.40929 0.73968 0.39536 0.0
C1033 C 0.38367 0.71589 0.39205 0.0
N1034 N 0.31908 0.62054 0.36236 0.0
C1035 C 0.26164 0.602 0.35134 0.0
C1036 C 0.26869 0.57073 0.36815 0.0
C1037 C 0.30233 0.56451 0.38037 0.0
C1038 C 0.32683 0.58955 0.37741 0.0
C1039 C 0.28707 0.62639 0.34866 0.0
H1040 H 0.35179 0.58402 0.38826 0.0
H1041 H 0.28037 0.6504 0.33633 0.0
H1042 H 0.41607 0.6774 0.32314 0.0
H1043 H 0.36234 0.71545 0.41056 0.0
C1044 C 0.41126 0.616 0.40848 0.0
C1045 C 0.2962 0.6674 0.43158 0.0
C1046 C 0.39338 0.62557 0.29003 0.0
C1047 C 0.30817 0.71614 0.32222 0.0
H1048 H 0.32839 0.63969 0.49089 0.0
H1049 H 0.39392 0.61396 0.47877 0.0
H1050 H 0.46354 0.5758 0.37091 0.0
H1051 H 0.45159 0.57846 0.30668 0.0
H1052 H 0.36082 0.65906 0.23422 0.0
H1053 H 0.31739 0.71184 0.25138 0.0
H1054 H 0.25337 0.75252 0.36001 0.0
H1055 H 0.24417 0.72315 0.41954 0.0
H1056 H 0.46145 0.71674 0.32793 0.0
H1057 H 0.407 0.75697 0.41608 0.0
H1058 H 0.23623 0.60808 0.34118 0.0
H1059 H 0.30972 0.54048 0.39258 0.0
C1060 C 0.76954 0.62846 0.87369 0.0
C1061 C 0.73639 0.64174 0.86606 0.0
C1062 C 0.74061 0.662 0.8383 0.0
C1063 C 0.776 0.66011 0.83078 0.0
N1064 N 0.79448 0.63889 0.85141 0.0
Co1065 Co 0.8467 0.63141 0.85244 0.0
N1066 N 0.85376 0.66561 0.81536 0.0
C1067 C 0.82859 0.68388 0.79879 0.0
C1068 C 0.84158 0.704 0.77346 0.0
C1069 C 0.87708 0.6976 0.77335 0.0
C1070 C 0.88368 0.67383 0.79867 0.0
N1071 N 0.8989 0.62451 0.8544 0.0
C1072 C 0.92452 0.63675 0.83405 0.0
C1073 C 0.95749 0.62364 0.84306 0.0
C1074 C 0.95249 0.6027 0.86996 0.0
C1075 C 0.917 0.60372 0.87572 0.0
N1076 N 0.83974 0.5965 0.88887 0.0
C1077 C 0.86475 0.57667 0.90397 0.0
C1078 C 0.85203 0.55584 0.92871 0.0
C1079 C 0.81679 0.56341 0.93016 0.0
C1080 C 0.8101 0.58856 0.90603 0.0
N1081 N 0.84699 0.59525 0.81859 0.0
C1082 C 0.85242 0.54745 0.7669 0.0
C1083 C 0.8704 0.54139 0.79618 0.0
C1084 C 0.86752 0.56552 0.82141 0.0
C1085 C 0.83119 0.57755 0.76432 0.0
C1086 C 0.82829 0.60042 0.79047 0.0
N1087 N 0.84618 0.66778 0.88591 0.0
C1088 C 0.8576 0.68656 0.94099 0.0
C1089 C 0.84067 0.71852 0.93462 0.0
C1090 C 0.82749 0.72487 0.9032 0.0
C1091 C 0.83011 0.6993 0.87964 0.0
C1092 C 0.86036 0.66185 0.91634 0.0
H1093 H 0.81861 0.70575 0.85664 0.0
H1094 H 0.87367 0.63802 0.92255 0.0
H1095 H 0.88257 0.55978 0.84267 0.0
H1096 H 0.81132 0.62248 0.78687 0.0
C1097 C 0.79296 0.6805 0.80692 0.0
C1098 C 0.77638 0.60746 0.9033 0.0
C1099 C 0.91854 0.65811 0.80435 0.0
C1100 C 0.90005 0.58174 0.89766 0.0
H1101 H 0.71195 0.63802 0.87987 0.0
H1102 H 0.72049 0.67771 0.82616 0.0
H1103 H 0.82694 0.72058 0.7565 0.0
H1104 H 0.896 0.70838 0.75601 0.0
H1105 H 0.9827 0.62713 0.83083 0.0
H1106 H 0.97227 0.58693 0.88251 0.0
H1107 H 0.86681 0.53881 0.94516 0.0
H1108 H 0.79859 0.55284 0.94827 0.0
H1109 H 0.88695 0.51827 0.79956 0.0
H1110 H 0.81744 0.58408 0.74189 0.0
H1111 H 0.86836 0.68045 0.96501 0.0
H1112 H 0.81531 0.74957 0.89655 0.0
C1113 C 0.61833 0.54299 0.13953 0.0
C1114 C 0.60252 0.51249 0.13651 0.0
C1115 C 0.57416 0.5193 0.11726 0.0
C1116 C 0.57422 0.55342 0.10942 0.0
N1117 N 0.60137 0.56835 0.12191 0.0
Co1118 Co 0.60904 0.61777 0.1184 0.0
N1119 N 0.57586 0.62529 0.08194 0.0
C1120 C 0.55146 0.60434 0.07367 0.0
C1121 C 0.53612 0.61439 0.04445 0.0
C1122 C 0.55211 0.64322 0.03377 0.0
C1123 C 0.57603 0.64954 0.0574 0.0
N1124 N 0.61602 0.66707 0.11516 0.0
C1125 C 0.61059 0.68872 0.08917 0.0
C1126 C 0.61895 0.7214 0.09658 0.0
C1127 C 0.63061 0.71974 0.12843 0.0
C1128 C 0.62853 0.68629 0.13853 0.0
N1129 N 0.64274 0.61112 0.15455 0.0
C1130 C 0.65441 0.63617 0.17272 0.0
C1131 C 0.67668 0.62434 0.19669 0.0
C1132 C 0.67859 0.58965 0.19407 0.0
C1133 C 0.65716 0.58211 0.16853 0.0
N1134 N 0.64669 0.60877 0.08466 0.0
C1135 C 0.69206 0.60686 0.02783 0.0
C1136 C 0.70077 0.62338 0.05682 0.0
C1137 C 0.67734 0.62464 0.08474 0.0
C1138 C 0.66158 0.58901 0.02939 0.0
C1139 C 0.64011 0.58936 0.05817 0.0
N1140 N 0.57048 0.62632 0.1515 0.0
C1141 C 0.53792 0.60616 0.19967 0.0
C1142 C 0.50949 0.62872 0.19248 0.0
C1143 C 0.51297 0.65188 0.16575 0.0
C1144 C 0.54379 0.65024 0.14548 0.0
C1145 C 0.56813 0.60557 0.17912 0.0
H1146 H 0.54552 0.66741 0.12423 0.0
H1147 H 0.58896 0.58727 0.18507 0.0
H1148 H 0.68331 0.63943 0.10583 0.0
H1149 H 0.61676 0.57569 0.05791 0.0
C1150 C 0.55127 0.57156 0.08809 0.0
C1151 C 0.6459 0.54766 0.16316 0.0
C1152 C 0.59841 0.67861 0.05712 0.0
C1153 C 0.64578 0.67055 0.16519 0.0
H1154 H 0.60994 0.48815 0.14812 0.0
H1155 H 0.55574 0.50147 0.10987 0.0
H1156 H 0.51781 0.60077 0.03092 0.0
H1157 H 0.54744 0.65695 0.01067 0.0
H1158 H 0.61775 0.74369 0.08031 0.0
H1159 H 0.64166 0.73992 0.14159 0.0
H1160 H 0.68974 0.63911 0.21421 0.0
H1161 H 0.69272 0.57198 0.21039 0.0
H1162 H 0.72496 0.6359 0.05792 0.0
H1163 H 0.65325 0.57577 0.00809 0.0
H1164 H 0.53668 0.58873 0.22088 0.0
H1165 H 0.4917 0.67028 0.15995 0.0
C1166 C 0.7313 0.36111 0.38643 0.0
C1167 C 0.76301 0.3432 0.37865 0.0
C1168 C 0.75854 0.32544 0.35047 0.0
C1169 C 0.72443 0.33316 0.34262 0.0
N1170 N 0.70698 0.3554 0.36376 0.0
Co1171 Co 0.65541 0.36934 0.36424 0.0
N1172 N 0.64716 0.3381 0.32678 0.0
C1173 C 0.6712 0.31616 0.3116 0.0
C1174 C 0.65882 0.30043 0.28476 0.0
C1175 C 0.62516 0.3138 0.28206 0.0
C1176 C 0.61893 0.33705 0.30744 0.0
N1177 N 0.60398 0.38358 0.36447 0.0
C1178 C 0.57975 0.37802 0.34175 0.0
C1179 C 0.54773 0.39514 0.34978 0.0
C1180 C 0.55206 0.41291 0.37795 0.0
C1181 C 0.58635 0.4057 0.38552 0.0
N1182 N 0.66337 0.40044 0.40172 0.0
C1183 C 0.63908 0.42188 0.41724 0.0
C1184 C 0.6518 0.43925 0.44279 0.0
C1185 C 0.686 0.42741 0.44442 0.0
C1186 C 0.6921 0.40308 0.41992 0.0
N1187 N 0.66398 0.40621 0.33059 0.0
C1188 C 0.66501 0.45447 0.27733 0.0
C1189 C 0.64889 0.46275 0.30839 0.0
C1190 C 0.64867 0.43848 0.33442 0.0
C1191 C 0.6824 0.42223 0.27424 0.0
C1192 C 0.6822 0.39905 0.30112 0.0
N1193 N 0.64712 0.33232 0.39799 0.0
C1194 C 0.62549 0.31415 0.45288 0.0
C1195 C 0.64629 0.28347 0.45105 0.0
C1196 C 0.66669 0.2776 0.4217 0.0
C1197 C 0.66584 0.30149 0.39552 0.0
C1198 C 0.62631 0.33801 0.42632 0.0
H1199 H 0.68155 0.29475 0.3739 0.0
H1200 H 0.61042 0.36115 0.42953 0.0
H1201 H 0.63501 0.44606 0.35705 0.0
H1202 H 0.69583 0.37497 0.29691 0.0
C1203 C 0.70652 0.31547 0.31949 0.0
C1204 C 0.72458 0.38118 0.41682 0.0
C1205 C 0.58667 0.35916 0.31087 0.0
C1206 C 0.60393 0.42287 0.4091 0.0
H1207 H 0.7865 0.34161 0.39267 0.0
H1208 H 0.7772 0.30714 0.33857 0.0
H1209 H 0.67326 0.28305 0.2678 0.0
H1210 H 0.6077 0.30828 0.26273 0.0
H1211 H 0.52417 0.39597 0.33583 0.0
H1212 H 0.53309 0.43066 0.39023 0.0
H1213 H 0.6375 0.45723 0.45925 0.0
H1214 H 0.70399 0.43473 0.46259 0.0
H1215 H 0.63568 0.48763 0.31243 0.0
H1216 H 0.69488 0.41408 0.25077 0.0
H1217 H 0.60875 0.31988 0.47478 0.0
H1218 H 0.68413 0.25493 0.41894 0.0
C1219 C 0.8955 0.45965 0.6285 0.0
C1220 C 0.9046 0.49237 0.61993 0.0
C1221 C 0.92758 0.48941 0.59297 0.0
C1222 C 0.93114 0.4552 0.58664 0.0
N1223 N 0.91112 0.43625 0.6074 0.0
Co1224 Co 0.91085 0.38539 0.60922 0.0
N1225 N 0.9455 0.38069 0.57029 0.0
C1226 C 0.96032 0.40608 0.55273 0.0
C1227 C 0.97952 0.39518 0.52481 0.0
C1228 C 0.97582 0.3609 0.52393 0.0
C1229 C 0.95477 0.35292 0.55161 0.0
N1230 N 0.91208 0.33456 0.61216 0.0
C1231 C 0.92781 0.31126 0.5912 0.0
C1232 C 0.92256 0.27824 0.60204 0.0
C1233 C 0.90186 0.28087 0.63062 0.0
C1234 C 0.89584 0.31523 0.63547 0.0
N1235 N 0.87474 0.38972 0.64685 0.0
C1236 C 0.85888 0.36401 0.66303 0.0
C1237 C 0.83608 0.37469 0.68853 0.0
C1238 C 0.83782 0.40919 0.68898 0.0
C1239 C 0.86158 0.41768 0.66344 0.0
N1240 N 0.87233 0.38637 0.57697 0.0
C1241 C 0.82156 0.38401 0.52727 0.0
C1242 C 0.82236 0.36104 0.55455 0.0
C1243 C 0.8472 0.36305 0.57911 0.0
C1244 C 0.8462 0.40893 0.52642 0.0
C1245 C 0.87112 0.40948 0.55094 0.0
N1246 N 0.94944 0.38464 0.64155 0.0
C1247 C 0.97039 0.37309 0.69716 0.0
C1248 C 1.00182 0.38832 0.68931 0.0
C1249 C 0.00687 0.40068 0.65659 0.0
C1250 C 0.98063 0.3988 0.63348 0.0
C1251 C 0.94504 0.37132 0.67321 0.0
H1252 H 0.9862 0.40921 0.60927 0.0
H1253 H 0.92187 0.35933 0.68118 0.0
H1254 H 0.84655 0.34449 0.59893 0.0
H1255 H 0.88953 0.42865 0.54803 0.0
C1256 C 0.95316 0.44006 0.56164 0.0
C1257 C 0.87343 0.45194 0.6579 0.0
C1258 C 0.94183 0.31935 0.55803 0.0
C1259 C 0.87045 0.33005 0.65764 0.0
H1260 H 0.8961 0.51581 0.63241 0.0
H1261 H 0.9407 0.50968 0.57999 0.0
H1262 H 0.99313 0.41056 0.5064 0.0
H1263 H 0.98632 0.34398 0.50452 0.0
H1264 H 0.93075 0.25491 0.5892 0.0
H1265 H 0.89041 0.26029 0.64468 0.0
H1266 H 0.82169 0.35907 0.70612 0.0
H1267 H 0.82437 0.42577 0.70721 0.0
H1268 H 0.8051 0.34037 0.55652 0.0
H1269 H 0.8466 0.4281 0.50671 0.0
H1270 H 0.96494 0.36296 0.722 0.0
H1271 H 0.03113 0.41161 0.64856 0.0
C1272 C 0.09008 0.30411 0.52185 0.0
C1273 C 0.10217 0.29698 0.4889 0.0
C1274 C 0.08655 0.27809 0.54592 0.0
C1275 C 0.09542 0.24369 0.53839 0.0
H1276 H 0.08376 0.33013 0.52944 0.0
H1277 H 0.077 0.28513 0.57079 0.0
S1278 S 0.12716 0.21089 0.45554 0.0
N1279 N 0.12086 0.25244 0.44953 0.0
N1280 N 0.11685 0.20391 0.49531 0.0
C1281 C 0.10721 0.23607 0.50545 0.0
C1282 C 0.1101 0.26256 0.4807 0.0
C1283 C 0.02576 0.82799 0.70387 0.0
C1284 C 0.9926 0.83754 0.71881 0.0
C1285 C 0.05532 0.82199 0.72304 0.0
C1286 C 0.05259 0.82459 0.75786 0.0
H1287 H 0.02904 0.82572 0.67707 0.0
H1288 H 0.08062 0.8162 0.71054 0.0
S1289 S 0.97245 0.8488 0.80938 0.0
N1290 N 0.95926 0.84959 0.7708 0.0
N1291 N 0.01467 0.83705 0.80671 0.0
C1292 C 0.0196 0.83294 0.77326 0.0
C1293 C 0.98961 0.83965 0.75379 0.0
C1294 C 0.3631 0.77413 0.05537 0.0
C1295 C 0.39358 0.77658 0.07315 0.0
C1296 C 0.36069 0.74834 0.03186 0.0
C1297 C 0.38864 0.72377 0.02516 0.0
H1298 H 0.34079 0.7921 0.05997 0.0
H1299 H 0.33639 0.74735 0.01927 0.0
S1300 S 0.47469 0.72002 0.06493 0.0
N1301 N 0.45236 0.7528 0.08252 0.0
N1302 N 0.44849 0.70487 0.0381 0.0
C1303 C 0.41946 0.72635 0.04276 0.0
C1304 C 0.42177 0.75259 0.06673 0.0
C1305 C 0.49155 0.13727 0.32509 0.0
C1306 C 0.45643 0.131 0.32037 0.0
C1307 C 0.51721 0.13487 0.29883 0.0
C1308 C 0.50895 0.12825 0.26563 0.0
H1309 H 0.4995 0.14382 0.34955 0.0
H1310 H 0.54386 0.13814 0.30518 0.0
S1311 S 0.41888 0.11378 0.23945 0.0
N1312 N 0.41416 0.11818 0.28017 0.0
N1313 N 0.4607 0.11845 0.22993 0.0
C1314 C 0.47317 0.12347 0.26043 0.0
C1315 C 0.44744 0.12401 0.28776 0.0
C1316 C 0.15061 0.77229 0.97938 0.0
C1317 C 0.15816 0.75941 0.94724 0.0
C1318 C 0.1494 0.75057 0.00749 0.0
C1319 C 0.15774 0.71529 0.00487 0.0
H1320 H 0.14435 0.79933 0.98266 0.0
H1321 H 0.14128 0.76142 0.0314 0.0
S1322 S 0.17884 0.66847 0.92663 0.0
N1323 N 0.17018 0.70832 0.91432 0.0
N1324 N 0.17603 0.66879 0.96774 0.0
C1325 C 0.16725 0.70236 0.97308 0.0
C1326 C 0.16533 0.72401 0.94415 0.0
C1327 C 0.54085 0.93494 0.25919 0.0
C1328 C 0.56035 0.9116 0.27916 0.0
C1329 C 0.5144 0.92417 0.23949 0.0
C1330 C 0.50669 0.88966 0.23895 0.0
H1331 H 0.54666 0.9615 0.25798 0.0
H1332 H 0.4999 0.94296 0.22452 0.0
S1333 S 0.55297 0.81794 0.28324 0.0
N1334 N 0.57207 0.85203 0.29454 0.0
N1335 N 0.52216 0.83203 0.25807 0.0
C1336 C 0.52648 0.86605 0.2581 0.0
C1337 C 0.55348 0.87693 0.27788 0.0
C1338 C 0.37653 0.25187 0.57095 0.0
C1339 C 0.36337 0.28575 0.56561 0.0
C1340 C 0.37769 0.22757 0.5455 0.0
C1341 C 0.36677 0.23621 0.51308 0.0
H1342 H 0.38563 0.24395 0.59522 0.0
H1343 H 0.38671 0.20165 0.55168 0.0
S1344 S 0.33214 0.32284 0.48594 0.0
N1345 N 0.33803 0.32656 0.52607 0.0
N1346 N 0.34528 0.28315 0.47701 0.0
C1347 C 0.35477 0.27067 0.50731 0.0
C1348 C 0.35177 0.29475 0.53377 0.0
C1349 C 0.0064 0.15688 0.75003 0.0
C1350 C 0.02398 0.12853 0.73424 0.0
C1351 C 0.98132 0.1529 0.77643 0.0
C1352 C 0.97173 0.12042 0.7875 0.0
H1353 H 0.01175 0.18244 0.74165 0.0
H1354 H 0.96873 0.17551 0.78786 0.0
S1355 S 0.00697 0.03799 0.752 0.0
N1356 N 0.02944 0.06676 0.73148 0.0
N1357 N 0.97939 0.05949 0.77788 0.0
C1358 C 0.98804 0.09191 0.77099 0.0
C1359 C 0.01475 0.09592 0.74521 0.0
C1360 C 0.28037 0.53247 0.13545 0.0
C1361 C 0.26444 0.53413 0.10439 0.0
C1362 C 0.30735 0.50782 0.14231 0.0
C1363 C 0.31917 0.48353 0.11861 0.0
H1364 H 0.27161 0.5501 0.15492 0.0
H1365 H 0.31874 0.50744 0.16652 0.0
S1366 S 0.28755 0.47687 0.03333 0.0
N1367 N 0.26378 0.50967 0.04931 0.0
N1368 N 0.31387 0.46281 0.06276 0.0
C1369 C 0.30395 0.48495 0.08742 0.0
C1370 C 0.27659 0.51021 0.08025 0.0
C1371 C 0.80897 0.96462 0.87121 0.0
C1372 C 0.79271 0.99644 0.86244 0.0
C1373 C 0.78904 0.93642 0.87829 0.0
C1374 C 0.75229 0.93939 0.87706 0.0
H1375 H 0.83696 0.96202 0.87446 0.0
H1376 H 0.80229 0.91264 0.88623 0.0
S1377 S 0.69809 0.01596 0.85027 0.0
N1378 N 0.7385 0.02834 0.84914 0.0
N1379 N 0.701 0.9756 0.86257 0.0
C1380 C 0.73609 0.97058 0.8663 0.0
C1381 C 0.75633 0.99904 0.85889 0.0
C1382 C 0.78855 0.06967 0.3343 0.0
C1383 C 0.795 0.08412 0.36507 0.0
C1384 C 0.7656 0.04308 0.33223 0.0
C1385 C 0.74815 0.02976 0.3609 0.0
H1386 H 0.80156 0.07885 0.31167 0.0
H1387 H 0.76203 0.03245 0.30807 0.0
S1388 S 0.75411 0.06106 0.44707 0.0
N1389 N 0.78087 0.08442 0.42441 0.0
N1390 N 0.73769 0.03524 0.42084 0.0
C1391 C 0.75397 0.04475 0.39168 0.0
C1392 C 0.77731 0.07166 0.39368 0.0
C1393 C 0.73377 0.02304 0.17514 0.0
C1394 C 0.71497 0.04128 0.15054 0.0
C1395 C 0.75933 0.99705 0.16652 0.0
C1396 C 0.76611 0.98763 0.13309 0.0
H1397 H 0.72781 0.02798 0.20128 0.0
H1398 H 0.77298 0.98329 0.18621 0.0
S1399 S 0.72291 0.02629 0.05951 0.0
N1400 N 0.70544 0.04835 0.09133 0.0
N1401 N 0.75105 0.99753 0.07554 0.0
C1402 C 0.74737 0.00544 0.10834 0.0
C1403 C 0.72239 0.03269 0.11697 0.0
C1404 C 0.21785 0.52263 0.62322 0.0
C1405 C 0.19143 0.52644 0.64859 0.0
C1406 C 0.24508 0.49708 0.62519 0.0
C1407 C 0.24702 0.47423 0.65264 0.0
H1408 H 0.21716 0.53925 0.60139 0.0
H1409 H 0.26437 0.49483 0.60466 0.0
S1410 S 0.18444 0.47457 0.72625 0.0
N1411 N 0.16876 0.50592 0.70206 0.0
N1412 N 0.22031 0.45826 0.70649 0.0
C1413 C 0.2208 0.47816 0.67843 0.0
C1414 C 0.19297 0.50417 0.67625 0.0
C1415 C 0.19568 0.51144 0.35106 0.0
C1416 C 0.19011 0.49426 0.38178 0.0
C1417 C 0.22046 0.53646 0.347 0.0
C1418 C 0.24123 0.54501 0.37336 0.0
H1419 H 0.18103 0.50515 0.32984 0.0
H1420 H 0.224 0.54855 0.32273 0.0
S1421 S 0.23577 0.50794 0.45925 0.0
N1422 N 0.20679 0.48797 0.43913 0.0
N1423 N 0.25304 0.53464 0.43186 0.0
C1424 C 0.23544 0.52815 0.40435 0.0
C1425 C 0.21005 0.50292 0.40846 0.0
C1426 C 0.31169 0.51277 0.90184 0.0
C1427 C 0.29761 0.53012 0.93011 0.0
C1428 C 0.29177 0.49077 0.88474 0.0
C1429 C 0.25724 0.48512 0.89581 0.0
H1430 H 0.33776 0.51734 0.89218 0.0
H1431 H 0.30298 0.47922 0.86209 0.0
S1432 S 0.21193 0.51807 0.97351 0.0
N1433 N 0.24971 0.53615 0.97157 0.0
N1434 N 0.21232 0.4939 0.94035 0.0
C1435 C 0.24422 0.49987 0.92598 0.0
C1436 C 0.26445 0.5225 0.94304 0.0
C1437 C 0.65656 0.72457 0.99456 0.0
C1438 C 0.63275 0.74509 0.97608 0.0
C1439 C 0.64489 0.70128 0.01889 0.0
C1440 C 0.60895 0.69844 0.02664 0.0
H1441 H 0.68435 0.72783 0.99151 0.0
H1442 H 0.66418 0.68676 0.03319 0.0
S1443 S 0.53601 0.74996 0.98878 0.0
N1444 N 0.57145 0.76177 0.96788 0.0
N1445 N 0.54983 0.72093 0.01627 0.0
C1446 C 0.58485 0.71936 0.00893 0.0
C1447 C 0.59668 0.742 0.98311 0.0
C1448 C 0.53129 0.34492 0.28335 0.0
C1449 C 0.56155 0.36336 0.28304 0.0
C1450 C 0.50657 0.35007 0.25839 0.0
C1451 C 0.51086 0.37403 0.23198 0.0
H1452 H 0.52658 0.32652 0.30321 0.0
H1453 H 0.48397 0.33488 0.25976 0.0
S1454 S 0.586 0.42896 0.22035 0.0
N1455 N 0.59476 0.4062 0.25431 0.0
N1456 N 0.54834 0.41671 0.20805 0.0
C1457 C 0.54132 0.39249 0.23154 0.0
C1458 C 0.56654 0.387 0.25686 0.0
C1459 C 0.89521 0.29906 0.52397 0.0
C1460 C 0.93098 0.29898 0.53015 0.0
C1461 C 0.88305 0.27832 0.49985 0.0
C1462 C 0.90634 0.25639 0.48112 0.0
H1463 H 0.87637 0.3148 0.53843 0.0
H1464 H 0.85512 0.27895 0.49638 0.0
S1465 S 0.00308 0.24727 0.48719 0.0
N1466 N 0.98981 0.27551 0.51572 0.0
N1467 N 0.96732 0.23669 0.46946 0.0
C1468 C 0.94245 0.25631 0.48673 0.0
C1469 C 0.95473 0.27757 0.51146 0.0
C1470 C 0.94018 0.63935 0.74792 0.0
C1471 C 0.94573 0.65724 0.77676 0.0
C1472 C 0.96735 0.63267 0.72403 0.0
C1473 C 1.00168 0.64227 0.7287 0.0
H1474 H 0.91488 0.62949 0.74429 0.0
H1475 H 0.96125 0.61924 0.70202 0.0
S1476 S 0.02786 0.69359 0.79933 0.0
N1477 N 0.98563 0.68929 0.80674 0.0
N1478 N 0.0384 0.67282 0.76464 0.0
C1479 C 0.00691 0.66175 0.75707 0.0
C1480 C 0.9785 0.6702 0.78035 0.0
C1481 C 0.64704 0.2682 0.51271 0.0
C1482 C 0.64684 0.25778 0.47927 0.0
C1483 C 0.64773 0.24436 0.53946 0.0
C1484 C 0.64837 0.20909 0.53388 0.0
H1485 H 0.64669 0.29504 0.51831 0.0
H1486 H 0.6468 0.25367 0.56469 0.0
S1487 S 0.64956 0.16805 0.4513 0.0
N1488 N 0.64707 0.20927 0.44255 0.0
N1489 N 0.65106 0.1649 0.49221 0.0
C1490 C 0.64932 0.19833 0.50057 0.0
C1491 C 0.64786 0.22247 0.4735 0.0
C1492 C 0.06065 0.36514 0.76236 0.0
C1493 C 0.07879 0.39462 0.76624 0.0
C1494 C 0.03623 0.36328 0.73739 0.0
C1495 C 0.02891 0.39081 0.71508 0.0
H1496 H 0.06523 0.34339 0.77896 0.0
H1497 H 0.02312 0.33989 0.73547 0.0
S1498 S 0.07034 0.47375 0.71473 0.0
N1499 N 0.08879 0.45158 0.74537 0.0
N1500 N 0.04241 0.44878 0.69913 0.0
C1501 C 0.04736 0.42038 0.71863 0.0
C1502 C 0.07234 0.42211 0.74399 0.0
C1503 C 0.86668 0.75063 0.97934 0.0
C1504 C 0.83763 0.74527 0.96032 0.0
C1505 C 0.86475 0.77549 0.00384 0.0
C1506 C 0.83369 0.79566 0.01032 0.0
H1507 H 0.89126 0.73579 0.97501 0.0
H1508 H 0.88766 0.77889 0.01797 0.0
S1509 S 0.75025 0.79251 0.96792 0.0
N1510 N 0.77675 0.76292 0.9497 0.0
N1511 N 0.77343 0.80939 0.99628 0.0
C1512 C 0.80449 0.7909 0.99168 0.0
C1513 C 0.80642 0.76581 0.96645 0.0
C1514 C 0.43613 0.65696 0.2539 0.0
C1515 C 0.42016 0.62637 0.26191 0.0
C1516 C 0.46396 0.65791 0.23015 0.0
C1517 C 0.47695 0.62827 0.21373 0.0
H1518 H 0.42765 0.68025 0.26662 0.0
H1519 H 0.47634 0.68166 0.22565 0.0
S1520 S 0.44137 0.54292 0.22243 0.0
N1521 N 0.41691 0.56672 0.24906 0.0
N1522 N 0.46982 0.56822 0.20465 0.0
C1523 C 0.4601 0.59793 0.22021 0.0
C1524 C 0.4315 0.59707 0.24419 0.0
C1525 C 0.79758 0.99365 0.6354 0.0
C1526 C 0.79007 0.95927 0.63302 0.0
C1527 C 0.77168 0.02018 0.63164 0.0
C1528 C 0.7359 0.01396 0.63173 0.0
H1529 H 0.82387 1.00042 0.63977 0.0
H1530 H 0.77995 0.04593 0.62948 0.0
S1531 S 0.70088 0.92828 0.62849 0.0
N1532 N 0.7438 0.92044 0.62777 0.0
N1533 N 0.69405 0.97002 0.63145 0.0
C1534 C 0.72751 0.97956 0.63149 0.0
C1535 C 0.75457 0.95247 0.63039 0.0
C1536 C 0.14387 0.54343 0.21598 0.0
C1537 C 0.11556 0.56508 0.20579 0.0
C1538 C 0.13897 0.51773 0.24021 0.0
C1539 C 0.1055 0.51254 0.25482 0.0
H1540 H 0.1698 0.54595 0.20462 0.0
H1541 H 0.1616 0.5018 0.24754 0.0
S1542 S 0.02287 0.56267 0.23576 0.0
N1543 N 0.05332 0.58053 0.21225 0.0
N1544 N 0.04348 0.53124 0.2564 0.0
C1545 C 0.07704 0.53439 0.24482 0.0
C1546 C 0.08225 0.56092 0.22071 0.0
C1547 C 0.76335 0.87121 0.48052 0.0
C1548 C 0.75444 0.86258 0.51394 0.0
C1549 C 0.73796 0.877 0.45698 0.0
C1550 C 0.70254 0.87196 0.46479 0.0
H1551 H 0.7903 0.87356 0.472 0.0
H1552 H 0.7464 0.88494 0.43207 0.0
S1553 S 0.66413 0.84907 0.54783 0.0
N1554 N 0.70627 0.85139 0.55386 0.0
N1555 N 0.65936 0.85704 0.50773 0.0
C1556 C 0.69294 0.8623 0.49758 0.0
C1557 C 0.71864 0.85856 0.52244 0.0
C1558 C 0.36969 0.50103 0.77429 0.0
C1559 C 0.37998 0.49453 0.80726 0.0
C1560 C 0.36932 0.47472 0.75101 0.0
C1561 C 0.37956 0.44065 0.75937 0.0
H1562 H 0.36251 0.52683 0.76605 0.0
H1563 H 0.36146 0.48117 0.72597 0.0
S1564 S 0.40724 0.40899 0.8423 0.0
N1565 N 0.39824 0.45024 0.84736 0.0
N1566 N 0.4004 0.40179 0.80288 0.0
C1567 C 0.38978 0.43363 0.79211 0.0
C1568 C 0.38929 0.46022 0.81614 0.0
C1569 C 0.7629 0.13867 0.97145 0.0
C1570 C 0.79614 0.15006 0.97722 0.0
C1571 C 0.73614 0.13875 0.99668 0.0
C1572 C 0.7415 0.1492 0.02942 0.0
H1573 H 0.75753 0.12933 0.94716 0.0
H1574 H 0.71098 0.13044 0.99024 0.0
S1575 S 0.82505 0.17976 0.05777 0.0
N1576 N 0.83305 0.17251 0.01773 0.0
N1577 N 0.78428 0.16987 0.06601 0.0
C1578 C 0.77502 0.16032 0.03551 0.0
C1579 C 0.80187 0.16131 0.00935 0.0
C1580 C 0.22346 0.11246 0.48969 0.0
C1581 C 0.25994 0.11446 0.49167 0.0
C1582 C 0.20053 0.11511 0.51816 0.0
C1583 C 0.213 0.11587 0.55067 0.0
H1584 H 0.21227 0.10806 0.46607 0.0
H1585 H 0.17265 0.11537 0.51464 0.0
S1586 S 0.30685 0.11634 0.57051 0.0
N1587 N 0.3073 0.11855 0.52944 0.0
N1588 N 0.2654 0.11371 0.58291 0.0
C1589 C 0.24969 0.11534 0.55322 0.0
C1590 C 0.27271 0.11674 0.52397 0.0
C1591 C 0.15836 0.97761 0.74324 0.0
C1592 C 0.15674 0.01259 0.75028 0.0
C1593 C 0.16182 0.95281 0.76858 0.0
C1594 C 0.16404 0.96186 0.80209 0.0
H1595 H 0.15674 0.96925 0.71787 0.0
H1596 H 0.16246 0.92628 0.76184 0.0
S1597 S 0.16138 0.0496 0.83414 0.0
N1598 N 0.15748 0.05495 0.79355 0.0
N1599 N 0.1651 0.00798 0.84105 0.0
C1600 C 0.16322 0.9966 0.80954 0.0
C1601 C 0.15938 0.02202 0.7837 0.0
C1602 C 0.25639 0.84685 0.04078 0.0
C1603 C 0.25387 0.87594 0.06073 0.0
C1604 C 0.23945 0.84667 0.01062 0.0
C1605 C 0.21921 0.87549 0.9994 0.0
H1606 H 0.27306 0.8247 0.04762 0.0
H1607 H 0.24289 0.82406 0.99555 0.0
S1608 S 0.20153 0.95678 0.0441 0.0
N1609 N 0.22734 0.93326 0.06857 0.0
N1610 N 0.19572 0.93302 0.01164 0.0
C1611 C 0.21493 0.90406 0.01996 0.0
C1612 C 0.23227 0.90428 0.05065 0.0
C1613 C 0.38332 0.99232 0.28401 0.0
C1614 C 0.35161 0.01109 0.29273 0.0
C1615 C 0.38561 0.96885 0.25784 0.0
C1616 C 0.35627 0.96307 0.23946 0.0
H1617 H 0.40668 0.99602 0.29734 0.0
H1618 H 0.41044 0.95488 0.2521 0.0
S1619 S 0.26707 0.00446 0.25231 0.0
N1620 N 0.29002 0.02134 0.28083 0.0
N1621 N 0.29468 0.97764 0.23163 0.0
C1622 C 0.32454 0.98156 0.24771 0.0
C1623 C 0.32213 0.00545 0.2743 0.0
C1624 C 0.50353 0.22082 0.12424 0.0
C1625 C 0.53809 0.23116 0.12282 0.0
C1626 C 0.47494 0.24408 0.11901 0.0
C1627 C 0.47906 0.27928 0.1164 0.0
H1628 H 0.49854 0.19423 0.12829 0.0
H1629 H 0.44949 0.23419 0.11676 0.0
S1630 S 0.56404 0.31985 0.10975 0.0
N1631 N 0.57503 0.27864 0.1127 0.0
N1632 N 0.52084 0.32343 0.11268 0.0
C1633 C 0.51347 0.29016 0.11586 0.0
C1634 C 0.54294 0.26596 0.11702 0.0
C1635 C 0.99624 0.24719 0.8604 0.0
C1636 C 0.98198 0.2362 0.89136 0.0
C1637 C 0.02411 0.26854 0.85853 0.0
C1638 C 0.03858 0.27986 0.88755 0.0
H1639 H 0.98627 0.23863 0.83743 0.0
H1640 H 0.03429 0.27643 0.83417 0.0
S1641 S 0.01027 0.2588 0.97466 0.0
N1642 N 0.98386 0.23867 0.95165 0.0
N1643 N 0.03662 0.27856 0.94814 0.0
C1644 C 0.02435 0.26933 0.91866 0.0
C1645 C 0.99602 0.2475 0.92056 0.0
C1646 C 0.98283 0.75203 0.10332 0.0
C1647 C 0.00431 0.74409 0.13035 0.0
C1648 C 0.95607 0.77819 0.10529 0.0
C1649 C 0.94988 0.79745 0.13429 0.0
H1650 H 0.98742 0.73867 0.08006 0.0
H1651 H 0.94056 0.78393 0.08375 0.0
S1652 S 0.99662 0.78573 0.21277 0.0
N1653 N 0.01551 0.7563 0.18795 0.0
N1654 N 0.96632 0.80647 0.19083 0.0
C1655 C 0.97049 0.78945 0.16168 0.0
C1656 C 0.99741 0.76254 0.15991 0.0
C1657 C 0.46179 0.79864 0.3714 0.0
C1658 C 0.46731 0.76318 0.37616 0.0
C1659 C 0.48969 0.82032 0.37209 0.0
C1660 C 0.52436 0.8076 0.37795 0.0
H1661 H 0.43587 0.8096 0.36618 0.0
H1662 H 0.4841 0.84726 0.36716 0.0
S1663 S 0.55171 0.71663 0.39492 0.0
N1664 N 0.50949 0.71639 0.38831 0.0
N1665 N 0.56146 0.75683 0.39101 0.0
C1666 C 0.52981 0.77214 0.38371 0.0
C1667 C 0.50148 0.7501 0.3825 0.0
C1668 C 0.98442 0.70732 0.57006 0.0
C1669 C 0.00362 0.6983 0.59833 0.0
C1670 C 0.95661 0.73246 0.57154 0.0
C1671 C 0.94808 0.75067 0.60088 0.0
H1672 H 0.99145 0.69545 0.5464 0.0
H1673 H 0.94252 0.73865 0.54921 0.0
S1674 S 0.9906 0.73736 0.68158 0.0
N1675 N 0.01164 0.70919 0.65667 0.0
N1676 N 0.96078 0.7579 0.65888 0.0
C1677 C 0.96694 0.74189 0.62933 0.0
C1678 C 0.99459 0.71562 0.62808 0.0
C1679 C 0.99813 0.30698 0.38123 0.0
C1680 C 0.01158 0.32334 0.35229 0.0
C1681 C 0.975 0.28064 0.37935 0.0
C1682 C 0.96453 0.2694 0.34845 0.0
H1683 H 0.00592 0.31434 0.40551 0.0
H1684 H 0.9654 0.26874 0.40224 0.0
S1685 S 0.99201 0.30392 0.26541 0.0
N1686 N 0.01169 0.32699 0.29191 0.0
N1687 N 0.96991 0.27656 0.28832 0.0
C1688 C 0.97777 0.28559 0.31941 0.0
C1689 C 1.00075 0.31278 0.32135 0.0
C1690 C 0.47599 0.70542 0.90478 0.0
C1691 C 0.47142 0.68557 0.87693 0.0
C1692 C 0.49944 0.73123 0.90313 0.0
C1693 C 0.51921 0.73801 0.8736 0.0
H1694 H 0.46166 0.7006 0.92812 0.0
H1695 H 0.5028 0.74528 0.92546 0.0
S1696 S 0.51388 0.69459 0.79292 0.0
N1697 N 0.48682 0.67482 0.81873 0.0
N1698 N 0.5301 0.72432 0.81497 0.0
C1699 C 0.51371 0.71897 0.84517 0.0
C1700 C 0.49005 0.69246 0.84702 0.0
C1701 C 0.60028 0.92562 0.77707 0.0
C1702 C 0.63079 0.91509 0.79364 0.0
C1703 C 0.59971 0.9536 0.75479 0.0
C1704 C 0.62969 0.97193 0.74818 0.0
H1705 H 0.57643 0.91272 0.78216 0.0
H1706 H 0.57537 0.96146 0.74327 0.0
S1707 S 0.71751 0.95111 0.78141 0.0
N1708 N 0.69249 0.92294 0.79974 0.0
N1709 N 0.69171 0.9751 0.7573 0.0
C1710 C 0.66082 0.96054 0.76341 0.0
C1711 C 0.66133 0.93213 0.78617 0.0
C1712 C 0.22426 0.36311 0.9955 0.0
C1713 C 0.23205 0.36908 0.96137 0.0
C1714 C 0.25023 0.36346 0.01926 0.0
C1715 C 0.28553 0.36881 0.00993 0.0
H1716 H 0.19775 0.35833 0.00397 0.0
H1717 H 0.2423 0.35995 0.04524 0.0
S1718 S 0.32013 0.38207 0.92275 0.0
N1719 N 0.27766 0.37947 0.91925 0.0
N1720 N 0.32688 0.37709 0.96287 0.0
C1721 C 0.29377 0.37344 0.9755 0.0
C1722 C 0.26707 0.37419 0.95158 0.0
C1723 C 0.87737 0.06925 0.21738 0.0
C1724 C 0.87748 0.07179 0.25207 0.0
C1725 C 0.87583 0.03746 0.20267 0.0
C1726 C 0.8741 0.00739 0.22226 0.0
H1727 H 0.8795 0.09176 0.2016 0.0
H1728 H 0.87636 0.03631 0.17572 0.0
S1729 S 0.87103 1.00159 0.31453 0.0
N1730 N 0.87385 0.04256 0.30584 0.0
N1731 N 0.87082 0.98266 0.27821 0.0
C1732 C 0.87278 0.00996 0.25708 0.0
C1733 C 0.87458 0.04227 0.27199 0.0
C1734 C 0.22306 0.61507 0.46635 0.0
C1735 C 0.20585 0.63674 0.49009 0.0
C1736 C 0.25249 0.62525 0.44764 0.0
C1737 C 0.26564 0.6572 0.4523 0.0
H1738 H 0.21372 0.59015 0.46238 0.0
H1739 H 0.26509 0.60807 0.42947 0.0
S1740 S 0.23194 0.72181 0.51349 0.0
N1741 N 0.20507 0.69075 0.51852 0.0
N1742 N 0.26086 0.70951 0.48362 0.0
C1743 C 0.24915 0.67878 0.47639 0.0
C1744 C 0.21903 0.66863 0.49519 0.0
C1745 C 0.7157 0.58008 0.9743 0.0
C1746 C 0.71355 0.60824 0.99576 0.0
C1747 C 0.73399 0.58091 0.94336 0.0
C1748 C 0.75201 0.6094 0.93307 0.0
H1749 H 0.70376 0.55672 0.98157 0.0
H1750 H 0.7354 0.5585 0.928 0.0
S1751 S 0.75548 0.68972 0.9786 0.0
N1752 N 0.73043 0.66627 0.00294 0.0
N1753 N 0.76697 0.6664 0.94574 0.0
C1754 C 0.7502 0.63777 0.95371 0.0
C1755 C 0.73075 0.63742 0.98493 0.0
C1756 C 0.62899 0.49637 0.24282 0.0
C1757 C 0.6614 0.47829 0.24793 0.0
C1758 C 0.62398 0.51767 0.21481 0.0
C1759 C 0.65118 0.52198 0.19071 0.0
H1760 H 0.60693 0.49358 0.2603 0.0
H1761 H 0.59865 0.53119 0.21218 0.0
S1762 S 0.74175 0.48305 0.19291 0.0
N1763 N 0.72183 0.46802 0.22692 0.0
N1764 N 0.7119 0.50777 0.17402 0.0
C1765 C 0.68375 0.50451 0.19541 0.0
C1766 C 0.689 0.4828 0.22404 0.0
C1767 C 0.80679 0.39093 0.46626 0.0
C1768 C 0.79641 0.38179 0.49936 0.0
C1769 C 0.78389 0.39033 0.43982 0.0
C1770 C 0.74976 0.37946 0.44478 0.0
H1771 H 0.83298 0.39874 0.46047 0.0
H1772 H 0.79292 0.39881 0.41528 0.0
S1773 S 0.70853 0.35265 0.52558 0.0
N1774 N 0.74807 0.36254 0.53506 0.0
N1775 N 0.70662 0.35878 0.48493 0.0
C1776 C 0.73909 0.36951 0.47732 0.0
C1777 C 0.76196 0.37112 0.50456 0.0
C1778 C 0.89045 0.50838 0.72989 0.0
C1779 C 0.85689 0.52324 0.73878 0.0
C1780 C 0.89558 0.48574 0.70339 0.0
C1781 C 0.86745 0.47744 0.68461 0.0
H1782 H 0.91303 0.51445 0.74333 0.0
H1783 H 0.9217 0.47443 0.69766 0.0
S1784 S 0.77466 0.50906 0.69691 0.0
N1785 N 0.79491 0.52705 0.72669 0.0
N1786 N 0.80533 0.48617 0.67553 0.0
C1787 C 0.83401 0.49253 0.69252 0.0
C1788 C 0.82852 0.51499 0.71995 0.0
C1789 C 0.49455 0.17558 0.67421 0.0
C1790 C 0.52986 0.17644 0.66325 0.0
C1791 C 0.47233 0.20557 0.6758 0.0
C1792 C 0.48474 0.23791 0.66763 0.0
H1793 H 0.48422 0.1517 0.68243 0.0
H1794 H 0.44518 0.20323 0.68372 0.0
S1795 S 0.57637 0.25345 0.63897 0.0
N1796 N 0.57627 0.21168 0.64327 0.0
N1797 N 0.53617 0.26824 0.6497 0.0
C1798 C 0.52039 0.23886 0.65693 0.0
C1799 C 0.54245 0.20817 0.65396 0.0
loop_
_geom_bond_atom_site_label_1
_geom_bond_atom_site_label_2
_geom_bond_distance
_geom_bond_site_symmetry_2
_ccdc_geom_bond_type
C0 C1 1.443 1_455 S
C0 N4 1.376 . S
C0 C38 1.389 . S
C1 C0 1.443 1_655 S
C1 C2 1.345 . S
C1 H41 0.951 . S
C2 C1 1.345 . S
C2 C3 1.414 1_655 S
C2 H42 0.967 . S
C3 C2 1.414 1_455 S
C3 N4 1.374 . S
C3 C37 1.395 . S
N4 C0 1.376 . S
N4 C3 1.374 . S
N4 Co5 2.008 . S
Co5 N4 2.008 . S
Co5 N6 1.995 . S
Co5 N11 2.008 . S
Co5 N16 1.995 . S
Co5 N21 2.282 . S
Co5 N27 2.282 . S
N6 Co5 1.995 . S
N6 C7 1.376 . S
N6 C10 1.383 . S
C7 N6 1.376 . S
C7 C8 1.446 . S
C7 C37 1.391 . S
C8 C7 1.446 . S
C8 C9 1.339 . S
C8 H43 0.949 . S
C9 C8 1.339 . S
C9 C10 1.439 . S
C9 H44 0.950 . S
C10 N6 1.383 . S
C10 C9 1.439 . S
C10 C39 1.392 . S
N11 Co5 2.008 . S
N11 C12 1.376 . S
N11 C15 1.374 . S
C12 N11 1.376 . S
C12 C13 1.443 . S
C12 C39 1.389 . S
C13 C12 1.443 . S
C13 C14 1.340 . S
C13 H45 0.951 . S
C14 C13 1.340 . S
C14 C15 1.439 . S
C14 H46 0.950 . S
C15 N11 1.374 . S
C15 C14 1.439 . S
C15 C40 1.395 . S
N16 Co5 1.995 . S
N16 C17 1.376 . S
N16 C20 1.383 . S
C17 N16 1.376 . S
C17 C18 1.446 . S
C17 C40 1.391 . S
C18 C17 1.446 . S
C18 C19 1.339 . S
C18 H47 0.949 . S
C19 C18 1.339 . S
C19 C20 1.439 . S
C19 H48 0.950 . S
C20 N16 1.383 . S
C20 C19 1.439 . S
C20 C38 1.392 . S
N21 Co5 2.282 . S
N21 C24 1.332 . S
N21 C26 1.332 . S
C22 C23 1.386 . S
C22 C25 1.388 . S
C23 C22 1.386 . S
C23 C24 1.382 . S
C23 H49 0.950 . S
C24 N21 1.332 . S
C24 C23 1.382 . S
C24 H35 0.952 . S
C25 C22 1.388 . S
C25 C26 1.382 . S
C25 H50 0.950 . S
C26 N21 1.332 . S
C26 C25 1.382 . S
C26 H36 0.948 . S
N27 Co5 2.282 . S
N27 C31 1.332 . S
N27 C32 1.332 . S
C28 C29 1.388 . S
C28 C32 1.382 . S
C28 H51 0.950 . S
C29 C28 1.388 . S
C29 C30 1.386 . S
C30 C29 1.386 . S
C30 C31 1.382 . S
C30 H52 0.950 . S
C31 N27 1.332 . S
C31 C30 1.382 . S
C31 H33 0.952 . S
C32 N27 1.332 . S
C32 C28 1.382 . S
C32 H34 0.948 . S
H33 C31 0.952 . S
H34 C32 0.948 . S
H35 C24 0.952 . S
H36 C26 0.948 . S
C37 C3 1.395 . S
C37 C7 1.391 . S
C38 C0 1.389 . S
C38 C20 1.392 . S
C39 C10 1.392 . S
C39 C12 1.389 . S
C40 C15 1.395 . S
C40 C17 1.391 . S
H41 C1 0.951 . S
H42 C2 0.967 . S
H43 C8 0.949 . S
H44 C9 0.950 . S
H45 C13 0.951 . S
H46 C14 0.950 . S
H47 C18 0.949 . S
H48 C19 0.950 . S
H49 C23 0.950 . S
H50 C25 0.950 . S
H51 C28 0.950 . S
H52 C30 0.950 . S
C53 C54 1.443 . S
C53 N57 1.376 . S
C53 C91 1.389 . S
C54 C53 1.443 . S
C54 C55 1.340 . S
C54 H94 0.951 . S
C55 C54 1.340 . S
C55 C56 1.439 . S
C55 H95 0.950 . S
C56 C55 1.439 . S
C56 N57 1.374 . S
C56 C90 1.395 . S
N57 C53 1.376 . S
N57 C56 1.374 . S
N57 Co58 2.008 . S
Co58 N57 2.008 . S
Co58 N59 1.995 . S
Co58 N64 2.008 . S
Co58 N69 1.995 . S
Co58 N74 2.282 . S
Co58 N80 2.282 . S
N59 Co58 1.995 . S
N59 C60 1.376 . S
N59 C63 1.383 . S
C60 N59 1.376 . S
C60 C61 1.446 . S
C60 C90 1.391 . S
C61 C60 1.446 . S
C61 C62 1.339 . S
C61 H96 0.949 . S
C62 C61 1.339 . S
C62 C63 1.439 . S
C62 H97 0.950 . S
C63 N59 1.383 . S
C63 C62 1.439 . S
C63 C92 1.392 . S
N64 Co58 2.008 . S
N64 C65 1.376 . S
N64 C68 1.374 . S
C65 N64 1.376 . S
C65 C66 1.443 . S
C65 C92 1.389 . S
C66 C65 1.443 . S
C66 C67 1.340 . S
C66 H98 0.951 . S
C67 C66 1.340 . S
C67 C68 1.439 . S
C67 H99 0.950 . S
C68 N64 1.374 . S
C68 C67 1.439 . S
C68 C93 1.395 . S
N69 Co58 1.995 . S
N69 C70 1.376 . S
N69 C73 1.383 . S
C70 N69 1.376 . S
C70 C71 1.446 . S
C70 C93 1.391 . S
C71 C70 1.446 . S
C71 C72 1.339 . S
C71 H100 0.949 . S
C72 C71 1.339 . S
C72 C73 1.439 . S
C72 H101 0.950 . S
C73 N69 1.383 . S
C73 C72 1.439 . S
C73 C91 1.392 . S
N74 Co58 2.282 . S
N74 C77 1.332 . S
N74 C79 1.332 . S
C75 C76 1.386 . S
C75 C78 1.388 . S
C76 C75 1.386 . S
C76 C77 1.382 . S
C76 H102 0.950 . S
C77 N74 1.332 . S
C77 C76 1.382 . S
C77 H88 0.952 . S
C78 C75 1.388 . S
C78 C79 1.382 . S
C78 H103 0.950 . S
C79 N74 1.332 . S
C79 C78 1.382 . S
C79 H89 0.948 . S
N80 Co58 2.282 . S
N80 C84 1.332 . S
N80 C85 1.332 . S
C81 C82 1.388 . S
C81 C85 1.382 . S
C81 H104 0.950 . S
C82 C81 1.388 . S
C82 C83 1.386 . S
C83 C82 1.386 . S
C83 C84 1.382 . S
C83 H105 0.950 . S
C84 N80 1.332 . S
C84 C83 1.382 . S
C84 H86 0.952 . S
C85 N80 1.332 . S
C85 C81 1.382 . S
C85 H87 0.948 . S
H86 C84 0.952 . S
H87 C85 0.948 . S
H88 C77 0.952 . S
H89 C79 0.948 . S
C90 C56 1.395 . S
C90 C60 1.391 . S
C91 C53 1.389 . S
C91 C73 1.392 . S
C92 C63 1.392 . S
C92 C65 1.389 . S
C93 C68 1.395 . S
C93 C70 1.391 . S
H94 C54 0.951 . S
H95 C55 0.950 . S
H96 C61 0.949 . S
H97 C62 0.950 . S
H98 C66 0.951 . S
H99 C67 0.950 . S
H100 C71 0.949 . S
H101 C72 0.950 . S
H102 C76 0.950 . S
H103 C78 0.950 . S
H104 C81 0.950 . S
H105 C83 0.950 . S
C106 C107 1.443 . S
C106 N110 1.376 . S
C106 C144 1.389 . S
C107 C106 1.443 . S
C107 C108 1.340 . S
C107 H147 0.951 . S
C108 C107 1.340 . S
C108 C109 1.439 . S
C108 H148 0.950 . S
C109 C108 1.439 . S
C109 N110 1.374 . S
C109 C143 1.395 . S
N110 C106 1.376 . S
N110 C109 1.374 . S
N110 Co111 2.008 . S
Co111 N110 2.008 . S
Co111 N112 1.995 . S
Co111 N117 2.008 . S
Co111 N122 1.995 . S
Co111 N127 2.282 . S
Co111 N133 2.282 . S
N112 Co111 1.995 . S
N112 C113 1.376 . S
N112 C116 1.383 . S
C113 N112 1.376 . S
C113 C114 1.446 . S
C113 C143 1.391 . S
C114 C113 1.446 . S
C114 C115 1.339 . S
C114 H149 0.949 . S
C115 C114 1.339 . S
C115 C116 1.439 . S
C115 H150 0.950 . S
C116 N112 1.383 . S
C116 C115 1.439 . S
C116 C145 1.392 . S
N117 Co111 2.008 . S
N117 C118 1.376 . S
N117 C121 1.374 . S
C118 N117 1.376 . S
C118 C119 1.443 . S
C118 C145 1.389 . S
C119 C118 1.443 . S
C119 C120 1.340 . S
C119 H151 0.951 . S
C120 C119 1.340 . S
C120 C121 1.439 . S
C120 H152 0.950 . S
C121 N117 1.374 . S
C121 C120 1.439 . S
C121 C146 1.395 . S
N122 Co111 1.995 . S
N122 C123 1.376 . S
N122 C126 1.383 . S
C123 N122 1.376 . S
C123 C124 1.446 . S
C123 C146 1.391 . S
C124 C123 1.446 . S
C124 C125 1.339 . S
C124 H153 0.949 . S
C125 C124 1.339 . S
C125 C126 1.439 . S
C125 H154 0.950 . S
C126 N122 1.383 . S
C126 C125 1.439 . S
C126 C144 1.392 . S
N127 Co111 2.282 . S
N127 C130 1.332 . S
N127 C132 1.332 . S
C128 C129 1.386 . S
C128 C131 1.388 . S
C129 C128 1.386 . S
C129 C130 1.382 . S
C129 H155 0.950 . S
C130 N127 1.332 . S
C130 C129 1.382 . S
C130 H141 0.952 . S
C131 C128 1.388 . S
C131 C132 1.382 . S
C131 H156 0.950 . S
C132 N127 1.332 . S
C132 C131 1.382 . S
C132 H142 0.948 . S
N133 Co111 2.282 . S
N133 C137 1.332 . S
N133 C138 1.332 . S
C134 C135 1.388 . S
C134 C138 1.382 . S
C134 H157 0.950 . S
C135 C134 1.388 . S
C135 C136 1.386 . S
C136 C135 1.386 . S
C136 C137 1.382 . S
C136 H158 0.950 1_556 S
C137 N133 1.332 . S
C137 C136 1.382 . S
C137 H139 0.952 . S
C138 N133 1.332 . S
C138 C134 1.382 . S
C138 H140 0.948 . S
H139 C137 0.952 . S
H140 C138 0.948 . S
H141 C130 0.952 . S
H142 C132 0.948 . S
C143 C109 1.395 . S
C143 C113 1.391 . S
C144 C106 1.389 . S
C144 C126 1.392 . S
C145 C116 1.392 . S
C145 C118 1.389 . S
C146 C121 1.395 . S
C146 C123 1.391 . S
H147 C107 0.951 . S
H148 C108 0.950 . S
H149 C114 0.949 . S
H150 C115 0.950 . S
H151 C119 0.951 . S
H152 C120 0.950 . S
H153 C124 0.949 . S
H154 C125 0.950 . S
H155 C129 0.950 . S
H156 C131 0.950 . S
H157 C134 0.950 . S
H158 C136 0.950 1_554 S
C159 C160 1.443 . S
C159 N163 1.376 . S
C159 C197 1.389 . S
C160 C159 1.443 . S
C160 C161 1.340 . S
C160 H200 0.951 . S
C161 C160 1.340 . S
C161 C162 1.439 . S
C161 H201 0.950 . S
C162 C161 1.439 . S
C162 N163 1.374 . S
C162 C196 1.395 . S
N163 C159 1.376 . S
N163 C162 1.374 . S
N163 Co164 2.008 . S
Co164 N163 2.008 . S
Co164 N165 1.995 . S
Co164 N170 2.008 . S
Co164 N175 1.995 . S
Co164 N180 2.282 . S
Co164 N186 2.282 . S
N165 Co164 1.995 . S
N165 C166 1.376 . S
N165 C169 1.383 . S
C166 N165 1.376 . S
C166 C167 1.446 . S
C166 C196 1.391 . S
C167 C166 1.446 . S
C167 C168 1.339 . S
C167 H202 0.949 . S
C168 C167 1.339 . S
C168 C169 1.439 . S
C168 H203 0.950 . S
C169 N165 1.383 . S
C169 C168 1.439 . S
C169 C198 1.392 . S
N170 Co164 2.008 . S
N170 C171 1.376 . S
N170 C174 1.374 . S
C171 N170 1.376 . S
C171 C172 1.443 . S
C171 C198 1.389 . S
C172 C171 1.443 . S
C172 C173 1.340 . S
C172 H204 0.951 . S
C173 C172 1.340 . S
C173 C174 1.439 . S
C173 H205 0.950 . S
C174 N170 1.374 . S
C174 C173 1.439 . S
C174 C199 1.395 . S
N175 Co164 1.995 . S
N175 C176 1.376 . S
N175 C179 1.383 . S
C176 N175 1.376 . S
C176 C177 1.446 . S
C176 C199 1.391 . S
C177 C176 1.446 . S
C177 C178 1.339 . S
C177 H206 0.949 . S
C178 C177 1.339 . S
C178 C179 1.439 . S
C178 H207 0.950 . S
C179 N175 1.383 . S
C179 C178 1.439 . S
C179 C197 1.392 . S
N180 Co164 2.282 . S
N180 C183 1.332 . S
N180 C185 1.332 . S
C181 C182 1.386 . S
C181 C184 1.388 . S
C182 C181 1.386 . S
C182 C183 1.382 . S
C182 H208 0.950 . S
C183 N180 1.332 . S
C183 C182 1.382 . S
C183 H194 0.952 . S
C184 C181 1.388 . S
C184 C185 1.382 . S
C184 H209 0.950 . S
C185 N180 1.332 . S
C185 C184 1.382 . S
C185 H195 0.948 . S
N186 Co164 2.282 . S
N186 C190 1.332 . S
N186 C191 1.332 . S
C187 C188 1.388 . S
C187 C191 1.382 . S
C187 H210 0.950 . S
C188 C187 1.388 . S
C188 C189 1.386 . S
C189 C188 1.386 . S
C189 C190 1.382 . S
C189 H211 0.950 . S
C190 N186 1.332 . S
C190 C189 1.382 . S
C190 H192 0.952 . S
C191 N186 1.332 . S
C191 C187 1.382 . S
C191 H193 0.948 . S
H192 C190 0.952 . S
H193 C191 0.948 . S
H194 C183 0.952 . S
H195 C185 0.948 . S
C196 C162 1.395 . S
C196 C166 1.391 . S
C197 C159 1.389 . S
C197 C179 1.392 . S
C198 C169 1.392 . S
C198 C171 1.389 . S
C199 C174 1.395 . S
C199 C176 1.391 . S
H200 C160 0.951 . S
H201 C161 0.950 . S
H202 C167 0.949 . S
H203 C168 0.950 . S
H204 C172 0.951 . S
H205 C173 0.950 . S
H206 C177 0.949 . S
H207 C178 0.950 . S
H208 C182 0.950 . S
H209 C184 0.950 . S
H210 C187 0.950 . S
H211 C189 0.950 . S
C212 C213 1.443 . S
C212 N216 1.376 . S
C212 C250 1.389 . S
C213 C212 1.443 . S
C213 C214 1.340 . S
C213 H253 0.951 . S
C214 C213 1.340 . S
C214 C215 1.439 . S
C214 H254 0.950 . S
C215 C214 1.439 . S
C215 N216 1.374 . S
C215 C249 1.395 . S
N216 C212 1.376 . S
N216 C215 1.374 . S
N216 Co217 2.008 . S
Co217 N216 2.008 . S
Co217 N218 1.995 . S
Co217 N223 2.008 . S
Co217 N228 1.995 . S
Co217 N233 2.282 . S
Co217 N239 2.282 . S
N218 Co217 1.995 . S
N218 C219 1.376 . S
N218 C222 1.383 . S
C219 N218 1.376 . S
C219 C220 1.446 . S
C219 C249 1.391 . S
C220 C219 1.446 . S
C220 C221 1.339 . S
C220 H255 0.949 . S
C221 C220 1.339 . S
C221 C222 1.439 . S
C221 H256 0.950 . S
C222 N218 1.383 . S
C222 C221 1.439 . S
C222 C251 1.392 . S
N223 Co217 2.008 . S
N223 C224 1.376 . S
N223 C227 1.374 . S
C224 N223 1.376 . S
C224 C225 1.443 . S
C224 C251 1.389 . S
C225 C224 1.443 . S
C225 C226 1.340 . S
C225 H257 0.951 1_554 S
C226 C225 1.340 . S
C226 C227 1.439 . S
C226 H258 0.950 . S
C227 N223 1.374 . S
C227 C226 1.439 . S
C227 C252 1.395 . S
N228 Co217 1.995 . S
N228 C229 1.376 . S
N228 C232 1.383 . S
C229 N228 1.376 . S
C229 C230 1.446 . S
C229 C252 1.391 . S
C230 C229 1.446 . S
C230 C231 1.339 . S
C230 H259 0.949 . S
C231 C230 1.339 . S
C231 C232 1.439 . S
C231 H260 0.950 . S
C232 N228 1.383 . S
C232 C231 1.439 . S
C232 C250 1.392 . S
N233 Co217 2.282 . S
N233 C236 1.332 . S
N233 C238 1.332 . S
C234 C235 1.386 . S
C234 C237 1.388 . S
C235 C234 1.386 . S
C235 C236 1.382 . S
C235 H261 0.950 1_455 S
C236 N233 1.332 . S
C236 C235 1.382 . S
C236 H247 0.952 . S
C237 C234 1.388 . S
C237 C238 1.382 . S
C237 H262 0.950 . S
C238 N233 1.332 . S
C238 C237 1.382 . S
C238 H248 0.948 . S
N239 Co217 2.282 . S
N239 C243 1.332 . S
N239 C244 1.332 . S
C240 C241 1.388 . S
C240 C244 1.382 . S
C240 H263 0.950 . S
C241 C240 1.388 . S
C241 C242 1.386 . S
C242 C241 1.386 . S
C242 C243 1.382 . S
C242 H264 0.950 . S
C243 N239 1.332 . S
C243 C242 1.382 . S
C243 H245 0.952 . S
C244 N239 1.332 . S
C244 C240 1.382 . S
C244 H246 0.948 . S
H245 C243 0.952 . S
H246 C244 0.948 . S
H247 C236 0.952 . S
H248 C238 0.948 . S
C249 C215 1.395 . S
C249 C219 1.391 . S
C250 C212 1.389 . S
C250 C232 1.392 . S
C251 C222 1.392 . S
C251 C224 1.389 . S
C252 C227 1.395 . S
C252 C229 1.391 . S
H253 C213 0.951 . S
H254 C214 0.950 . S
H255 C220 0.949 . S
H256 C221 0.950 . S
H257 C225 0.951 1_556 S
H258 C226 0.950 . S
H259 C230 0.949 . S
H260 C231 0.950 . S
H261 C235 0.950 1_655 S
H262 C237 0.950 . S
H263 C240 0.950 . S
H264 C242 0.950 . S
C265 C266 1.443 . S
C265 N269 1.376 . S
C265 C303 1.389 . S
C266 C265 1.443 . S
C266 C267 1.340 . S
C266 H306 0.951 . S
C267 C266 1.340 . S
C267 C268 1.439 . S
C267 H307 0.950 . S
C268 C267 1.439 . S
C268 N269 1.374 . S
C268 C302 1.395 . S
N269 C265 1.376 . S
N269 C268 1.374 . S
N269 Co270 2.008 . S
Co270 N269 2.008 . S
Co270 N271 1.995 . S
Co270 N276 2.008 . S
Co270 N281 1.995 . S
Co270 N286 2.282 . S
Co270 N292 2.282 . S
N271 Co270 1.995 . S
N271 C272 1.376 . S
N271 C275 1.383 . S
C272 N271 1.376 . S
C272 C273 1.446 . S
C272 C302 1.391 . S
C273 C272 1.446 . S
C273 C274 1.339 . S
C273 H308 0.949 . S
C274 C273 1.339 . S
C274 C275 1.439 . S
C274 H309 0.950 . S
C275 N271 1.383 . S
C275 C274 1.439 . S
C275 C304 1.392 . S
N276 Co270 2.008 . S
N276 C277 1.376 . S
N276 C280 1.374 . S
C277 N276 1.376 . S
C277 C278 1.443 . S
C277 C304 1.389 . S
C278 C277 1.443 . S
C278 C279 1.340 . S
C278 H310 0.951 . S
C279 C278 1.340 . S
C279 C280 1.439 . S
C279 H311 0.950 . S
C280 N276 1.374 . S
C280 C279 1.439 . S
C280 C305 1.395 . S
N281 Co270 1.995 . S
N281 C282 1.376 . S
N281 C285 1.383 . S
C282 N281 1.376 . S
C282 C283 1.446 . S
C282 C305 1.391 . S
C283 C282 1.446 . S
C283 C284 1.339 . S
C283 H312 0.949 . S
C284 C283 1.339 . S
C284 C285 1.439 . S
C284 H313 0.950 . S
C285 N281 1.383 . S
C285 C284 1.439 . S
C285 C303 1.392 . S
N286 Co270 2.282 . S
N286 C289 1.332 . S
N286 C291 1.332 . S
C287 C288 1.386 . S
C287 C290 1.388 . S
C288 C287 1.386 . S
C288 C289 1.382 . S
C288 H314 0.950 . S
C289 N286 1.332 . S
C289 C288 1.382 . S
C289 H300 0.952 . S
C290 C287 1.388 . S
C290 C291 1.382 . S
C290 H315 0.950 . S
C291 N286 1.332 . S
C291 C290 1.382 . S
C291 H301 0.948 . S
N292 Co270 2.282 . S
N292 C296 1.332 . S
N292 C297 1.332 . S
C293 C294 1.388 . S
C293 C297 1.382 . S
C293 H316 0.950 . S
C294 C293 1.388 . S
C294 C295 1.386 . S
C295 C294 1.386 . S
C295 C296 1.382 . S
C295 H317 0.950 1_565 S
C296 N292 1.332 . S
C296 C295 1.382 . S
C296 H298 0.952 . S
C297 N292 1.332 . S
C297 C293 1.382 . S
C297 H299 0.948 . S
H298 C296 0.952 . S
H299 C297 0.948 . S
H300 C289 0.952 . S
H301 C291 0.948 . S
C302 C268 1.395 . S
C302 C272 1.391 . S
C303 C265 1.389 . S
C303 C285 1.392 . S
C304 C275 1.392 . S
C304 C277 1.389 . S
C305 C280 1.395 . S
C305 C282 1.391 . S
H306 C266 0.951 . S
H307 C267 0.950 . S
H308 C273 0.949 . S
H309 C274 0.950 . S
H310 C278 0.951 . S
H311 C279 0.950 . S
H312 C283 0.949 . S
H313 C284 0.950 . S
H314 C288 0.950 . S
H315 C290 0.950 . S
H316 C293 0.950 . S
H317 C295 0.950 1_545 S
C318 C319 1.443 . S
C318 N322 1.376 . S
C318 C356 1.389 . S
C319 C318 1.443 . S
C319 C320 1.340 . S
C319 H359 0.951 . S
C320 C319 1.340 . S
C320 C321 1.439 . S
C320 H360 0.950 . S
C321 C320 1.439 . S
C321 N322 1.374 . S
C321 C355 1.395 . S
N322 C318 1.376 . S
N322 C321 1.374 . S
N322 Co323 2.008 . S
Co323 N322 2.008 . S
Co323 N324 1.995 . S
Co323 N329 2.008 . S
Co323 N334 1.995 . S
Co323 N339 2.282 . S
Co323 N345 2.282 . S
N324 Co323 1.995 . S
N324 C325 1.376 . S
N324 C328 1.383 . S
C325 N324 1.376 . S
C325 C326 1.446 . S
C325 C355 1.391 . S
C326 C325 1.446 . S
C326 C327 1.339 . S
C326 H361 0.949 . S
C327 C326 1.339 . S
C327 C328 1.439 . S
C327 H362 0.950 . S
C328 N324 1.383 . S
C328 C327 1.439 . S
C328 C357 1.392 . S
N329 Co323 2.008 . S
N329 C330 1.376 . S
N329 C333 1.374 . S
C330 N329 1.376 . S
C330 C331 1.443 . S
C330 C357 1.389 . S
C331 C330 1.443 . S
C331 C332 1.340 . S
C331 H363 0.951 . S
C332 C331 1.340 . S
C332 C333 1.439 . S
C332 H364 0.950 . S
C333 N329 1.374 . S
C333 C332 1.439 . S
C333 C358 1.395 . S
N334 Co323 1.995 . S
N334 C335 1.376 . S
N334 C338 1.383 . S
C335 N334 1.376 . S
C335 C336 1.446 . S
C335 C358 1.391 . S
C336 C335 1.446 . S
C336 C337 1.339 . S
C336 H365 0.949 . S
C337 C336 1.339 . S
C337 C338 1.439 . S
C337 H366 0.950 . S
C338 N334 1.383 . S
C338 C337 1.439 . S
C338 C356 1.392 . S
N339 Co323 2.282 . S
N339 C342 1.332 . S
N339 C344 1.332 . S
C340 C341 1.386 . S
C340 C343 1.388 . S
C341 C340 1.386 . S
C341 C342 1.382 . S
C341 H367 0.950 . S
C342 N339 1.332 . S
C342 C341 1.382 . S
C342 H353 0.952 . S
C343 C340 1.388 . S
C343 C344 1.382 . S
C343 H368 0.950 . S
C344 N339 1.332 . S
C344 C343 1.382 . S
C344 H354 0.948 . S
N345 Co323 2.282 . S
N345 C349 1.332 . S
N345 C350 1.332 . S
C346 C347 1.388 . S
C346 C350 1.382 . S
C346 H369 0.950 . S
C347 C346 1.388 . S
C347 C348 1.386 . S
C348 C347 1.386 . S
C348 C349 1.382 . S
C348 H370 0.950 . S
C349 N345 1.332 . S
C349 C348 1.382 . S
C349 H351 0.952 . S
C350 N345 1.332 . S
C350 C346 1.382 . S
C350 H352 0.948 . S
H351 C349 0.952 . S
H352 C350 0.948 . S
H353 C342 0.952 . S
H354 C344 0.948 . S
C355 C321 1.395 . S
C355 C325 1.391 . S
C356 C318 1.389 . S
C356 C338 1.392 . S
C357 C328 1.392 . S
C357 C330 1.389 . S
C358 C333 1.395 . S
C358 C335 1.391 . S
H359 C319 0.951 . S
H360 C320 0.950 . S
H361 C326 0.949 . S
H362 C327 0.950 . S
H363 C331 0.951 . S
H364 C332 0.950 . S
H365 C336 0.949 . S
H366 C337 0.950 . S
H367 C341 0.950 . S
H368 C343 0.950 . S
H369 C346 0.950 . S
H370 C348 0.950 . S
C371 C372 1.443 . S
C371 N375 1.376 . S
C371 C409 1.389 . S
C372 C371 1.443 . S
C372 C373 1.340 . S
C372 H412 0.951 . S
C373 C372 1.340 . S
C373 C374 1.439 . S
C373 H413 0.950 . S
C374 C373 1.439 . S
C374 N375 1.374 . S
C374 C408 1.395 . S
N375 C371 1.376 . S
N375 C374 1.374 . S
N375 Co376 2.008 . S
Co376 N375 2.008 . S
Co376 N377 1.995 . S
Co376 N382 2.008 . S
Co376 N387 1.995 . S
Co376 N392 2.282 . S
Co376 N398 2.282 . S
N377 Co376 1.995 . S
N377 C378 1.376 . S
N377 C381 1.383 . S
C378 N377 1.376 . S
C378 C379 1.446 . S
C378 C408 1.391 . S
C379 C378 1.446 . S
C379 C380 1.339 . S
C379 H414 0.949 . S
C380 C379 1.339 . S
C380 C381 1.439 . S
C380 H415 0.950 . S
C381 N377 1.383 . S
C381 C380 1.439 . S
C381 C410 1.392 . S
N382 Co376 2.008 . S
N382 C383 1.376 . S
N382 C386 1.374 . S
C383 N382 1.376 . S
C383 C384 1.443 . S
C383 C410 1.389 . S
C384 C383 1.443 . S
C384 C385 1.340 . S
C384 H416 0.951 . S
C385 C384 1.340 . S
C385 C386 1.439 . S
C385 H417 0.950 . S
C386 N382 1.374 . S
C386 C385 1.439 . S
C386 C411 1.395 . S
N387 Co376 1.995 . S
N387 C388 1.376 . S
N387 C391 1.383 . S
C388 N387 1.376 . S
C388 C389 1.446 . S
C388 C411 1.391 . S
C389 C388 1.446 . S
C389 C390 1.339 . S
C389 H418 0.949 . S
C390 C389 1.339 . S
C390 C391 1.439 . S
C390 H419 0.950 . S
C391 N387 1.383 . S
C391 C390 1.439 . S
C391 C409 1.392 . S
N392 Co376 2.282 . S
N392 C395 1.332 . S
N392 C397 1.332 . S
C393 C394 1.386 . S
C393 C396 1.388 . S
C394 C393 1.386 . S
C394 C395 1.382 . S
C394 H420 0.950 . S
C395 N392 1.332 . S
C395 C394 1.382 . S
C395 H406 0.952 . S
C396 C393 1.388 . S
C396 C397 1.382 . S
C396 H421 0.950 . S
C397 N392 1.332 . S
C397 C396 1.382 . S
C397 H407 0.948 . S
N398 Co376 2.282 . S
N398 C402 1.332 . S
N398 C403 1.332 . S
C399 C400 1.388 . S
C399 C403 1.382 . S
C399 H422 0.950 . S
C400 C399 1.388 . S
C400 C401 1.386 . S
C401 C400 1.386 . S
C401 C402 1.382 . S
C401 H423 0.950 1_545 S
C402 N398 1.332 . S
C402 C401 1.382 . S
C402 H404 0.952 . S
C403 N398 1.332 . S
C403 C399 1.382 . S
C403 H405 0.948 . S
H404 C402 0.952 . S
H405 C403 0.948 . S
H406 C395 0.952 . S
H407 C397 0.948 . S
C408 C374 1.395 . S
C408 C378 1.391 . S
C409 C371 1.389 . S
C409 C391 1.392 . S
C410 C381 1.392 . S
C410 C383 1.389 . S
C411 C386 1.395 . S
C411 C388 1.391 . S
H412 C372 0.951 . S
H413 C373 0.950 . S
H414 C379 0.949 . S
H415 C380 0.950 . S
H416 C384 0.951 . S
H417 C385 0.950 . S
H418 C389 0.949 . S
H419 C390 0.950 . S
H420 C394 0.950 . S
H421 C396 0.950 . S
H422 C399 0.950 . S
H423 C401 0.950 1_565 S
C424 C425 1.443 . S
C424 N428 1.376 . S
C424 C462 1.389 . S
C425 C424 1.443 . S
C425 C426 1.340 . S
C425 H465 0.951 . S
C426 C425 1.340 . S
C426 C427 1.439 . S
C426 H466 0.950 . S
C427 C426 1.439 . S
C427 N428 1.374 . S
C427 C461 1.395 . S
N428 C424 1.376 . S
N428 C427 1.374 . S
N428 Co429 2.008 . S
Co429 N428 2.008 . S
Co429 N430 1.995 . S
Co429 N435 2.008 . S
Co429 N440 1.995 . S
Co429 N445 2.282 . S
Co429 N451 2.282 . S
N430 Co429 1.995 . S
N430 C431 1.376 . S
N430 C434 1.383 . S
C431 N430 1.376 . S
C431 C432 1.446 . S
C431 C461 1.391 . S
C432 C431 1.446 . S
C432 C433 1.339 . S
C432 H467 0.949 . S
C433 C432 1.339 . S
C433 C434 1.439 . S
C433 H468 0.950 . S
C434 N430 1.383 . S
C434 C433 1.439 . S
C434 C463 1.392 . S
N435 Co429 2.008 . S
N435 C436 1.376 . S
N435 C439 1.374 . S
C436 N435 1.376 . S
C436 C437 1.443 . S
C436 C463 1.389 . S
C437 C436 1.443 . S
C437 C438 1.340 . S
C437 H469 0.951 . S
C438 C437 1.340 . S
C438 C439 1.439 . S
C438 H470 0.950 . S
C439 N435 1.374 . S
C439 C438 1.439 . S
C439 C464 1.395 . S
N440 Co429 1.995 . S
N440 C441 1.376 . S
N440 C444 1.383 . S
C441 N440 1.376 . S
C441 C442 1.446 . S
C441 C464 1.391 . S
C442 C441 1.446 . S
C442 C443 1.339 . S
C442 H471 0.949 . S
C443 C442 1.339 . S
C443 C444 1.439 . S
C443 H472 0.950 . S
C444 N440 1.383 . S
C444 C443 1.439 . S
C444 C462 1.392 . S
N445 Co429 2.282 . S
N445 C448 1.332 . S
N445 C450 1.332 . S
C446 C447 1.386 . S
C446 C449 1.388 . S
C447 C446 1.386 . S
C447 C448 1.382 . S
C447 H473 0.950 1_545 S
C448 N445 1.332 . S
C448 C447 1.382 . S
C448 H459 0.952 . S
C449 C446 1.388 . S
C449 C450 1.382 . S
C449 H474 0.950 . S
C450 N445 1.332 . S
C450 C449 1.382 . S
C450 H460 0.948 . S
N451 Co429 2.282 . S
N451 C455 1.332 . S
N451 C456 1.332 . S
C452 C453 1.388 . S
C452 C456 1.382 . S
C452 H475 0.950 . S
C453 C452 1.388 . S
C453 C454 1.386 . S
C454 C453 1.386 . S
C454 C455 1.382 . S
C454 H476 0.950 . S
C455 N451 1.332 . S
C455 C454 1.382 . S
C455 H457 0.952 . S
C456 N451 1.332 . S
C456 C452 1.382 . S
C456 H458 0.948 . S
H457 C455 0.952 . S
H458 C456 0.948 . S
H459 C448 0.952 . S
H460 C450 0.948 . S
C461 C427 1.395 . S
C461 C431 1.391 . S
C462 C424 1.389 . S
C462 C444 1.392 . S
C463 C434 1.392 . S
C463 C436 1.389 . S
C464 C439 1.395 . S
C464 C441 1.391 . S
H465 C425 0.951 . S
H466 C426 0.950 . S
H467 C432 0.949 . S
H468 C433 0.950 . S
H469 C437 0.951 . S
H470 C438 0.950 . S
H471 C442 0.949 . S
H472 C443 0.950 . S
H473 C447 0.950 1_565 S
H474 C449 0.950 . S
H475 C452 0.950 . S
H476 C454 0.950 . S
C477 C478 1.443 . S
C477 N481 1.376 . S
C477 C515 1.389 . S
C478 C477 1.443 . S
C478 C479 1.340 . S
C478 H518 0.951 . S
C479 C478 1.340 . S
C479 C480 1.439 . S
C479 H519 0.950 . S
C480 C479 1.439 . S
C480 N481 1.374 . S
C480 C514 1.395 . S
N481 C477 1.376 . S
N481 C480 1.374 . S
N481 Co482 2.008 . S
Co482 N481 2.008 . S
Co482 N483 1.995 . S
Co482 N488 2.008 . S
Co482 N493 1.995 . S
Co482 N498 2.282 . S
Co482 N504 2.282 . S
N483 Co482 1.995 . S
N483 C484 1.376 . S
N483 C487 1.383 . S
C484 N483 1.376 . S
C484 C485 1.446 . S
C484 C514 1.391 . S
C485 C484 1.446 . S
C485 C486 1.339 . S
C485 H520 0.949 . S
C486 C485 1.339 . S
C486 C487 1.439 . S
C486 H521 0.950 . S
C487 N483 1.383 . S
C487 C486 1.439 . S
C487 C516 1.392 . S
N488 Co482 2.008 . S
N488 C489 1.376 . S
N488 C492 1.374 . S
C489 N488 1.376 . S
C489 C490 1.443 . S
C489 C516 1.389 . S
C490 C489 1.443 . S
C490 C491 1.340 . S
C490 H522 0.951 . S
C491 C490 1.340 . S
C491 C492 1.439 . S
C491 H523 0.950 . S
C492 N488 1.374 . S
C492 C491 1.439 . S
C492 C517 1.395 . S
N493 Co482 1.995 . S
N493 C494 1.376 . S
N493 C497 1.383 . S
C494 N493 1.376 . S
C494 C495 1.446 . S
C494 C517 1.391 . S
C495 C494 1.446 . S
C495 C496 1.339 . S
C495 H524 0.949 . S
C496 C495 1.339 . S
C496 C497 1.439 . S
C496 H525 0.950 . S
C497 N493 1.383 . S
C497 C496 1.439 . S
C497 C515 1.392 . S
N498 Co482 2.282 . S
N498 C501 1.332 . S
N498 C503 1.332 . S
C499 C500 1.386 1_545 S
C499 C502 1.388 . S
C500 C499 1.386 1_565 S
C500 C501 1.382 1_565 S
C500 H526 0.950 . S
C501 N498 1.332 . S
C501 C500 1.382 1_545 S
C501 H512 0.952 . S
C502 C499 1.388 . S
C502 C503 1.382 . S
C502 H527 0.950 . S
C503 N498 1.332 . S
C503 C502 1.382 . S
C503 H513 0.948 . S
N504 Co482 2.282 . S
N504 C508 1.332 . S
N504 C509 1.332 . S
C505 C506 1.388 . S
C505 C509 1.382 . S
C505 H528 0.950 . S
C506 C505 1.388 . S
C506 C507 1.386 . S
C507 C506 1.386 . S
C507 C508 1.382 . S
C507 H529 0.950 . S
C508 N504 1.332 . S
C508 C507 1.382 . S
C508 H510 0.952 . S
C509 N504 1.332 . S
C509 C505 1.382 . S
C509 H511 0.948 . S
H510 C508 0.952 . S
H511 C509 0.948 . S
H512 C501 0.952 . S
H513 C503 0.948 . S
C514 C480 1.395 . S
C514 C484 1.391 . S
C515 C477 1.389 . S
C515 C497 1.392 . S
C516 C487 1.392 . S
C516 C489 1.389 . S
C517 C492 1.395 . S
C517 C494 1.391 . S
H518 C478 0.951 . S
H519 C479 0.950 . S
H520 C485 0.949 . S
H521 C486 0.950 . S
H522 C490 0.951 . S
H523 C491 0.950 . S
H524 C495 0.949 . S
H525 C496 0.950 . S
H526 C500 0.950 . S
H527 C502 0.950 . S
H528 C505 0.950 . S
H529 C507 0.950 . S
C530 C531 1.443 . S
C530 N534 1.376 . S
C530 C568 1.389 . S
C531 C530 1.443 . S
C531 C532 1.340 . S
C531 H571 0.951 . S
C532 C531 1.340 . S
C532 C533 1.439 . S
C532 H572 0.950 . S
C533 C532 1.439 . S
C533 N534 1.374 . S
C533 C567 1.395 . S
N534 C530 1.376 . S
N534 C533 1.374 . S
N534 Co535 2.008 . S
Co535 N534 2.008 . S
Co535 N536 1.995 . S
Co535 N541 2.008 . S
Co535 N546 1.995 . S
Co535 N551 2.282 . S
Co535 N557 2.282 . S
N536 Co535 1.995 . S
N536 C537 1.376 . S
N536 C540 1.383 . S
C537 N536 1.376 . S
C537 C538 1.446 . S
C537 C567 1.391 . S
C538 C537 1.446 . S
C538 C539 1.339 . S
C538 H573 0.949 . S
C539 C538 1.339 . S
C539 C540 1.439 . S
C539 H574 0.950 . S
C540 N536 1.383 . S
C540 C539 1.439 . S
C540 C569 1.392 . S
N541 Co535 2.008 . S
N541 C542 1.376 . S
N541 C545 1.374 . S
C542 N541 1.376 . S
C542 C543 1.443 . S
C542 C569 1.389 . S
C543 C542 1.443 . S
C543 C544 1.340 . S
C543 H575 0.951 . S
C544 C543 1.340 . S
C544 C545 1.439 . S
C544 H576 0.950 . S
C545 N541 1.374 . S
C545 C544 1.439 . S
C545 C570 1.395 . S
N546 Co535 1.995 . S
N546 C547 1.376 . S
N546 C550 1.383 . S
C547 N546 1.376 . S
C547 C548 1.446 . S
C547 C570 1.391 . S
C548 C547 1.446 . S
C548 C549 1.339 . S
C548 H577 0.949 . S
C549 C548 1.339 . S
C549 C550 1.439 . S
C549 H578 0.950 . S
C550 N546 1.383 . S
C550 C549 1.439 . S
C550 C568 1.392 . S
N551 Co535 2.282 . S
N551 C554 1.332 . S
N551 C556 1.332 . S
C552 C553 1.386 . S
C552 C555 1.388 . S
C553 C552 1.386 . S
C553 C554 1.382 . S
C553 H579 0.950 . S
C554 N551 1.332 . S
C554 C553 1.382 . S
C554 H565 0.952 . S
C555 C552 1.388 . S
C555 C556 1.382 . S
C555 H580 0.924 1_556 S
C556 N551 1.332 . S
C556 C555 1.382 . S
C556 H566 0.948 . S
N557 Co535 2.282 . S
N557 C561 1.332 . S
N557 C562 1.332 . S
C558 C559 1.388 . S
C558 C562 1.382 . S
C558 H581 0.950 . S
C559 C558 1.388 . S
C559 C560 1.386 . S
C560 C559 1.386 . S
C560 C561 1.382 . S
C560 H582 0.950 . S
C561 N557 1.332 . S
C561 C560 1.382 . S
C561 H563 0.952 . S
C562 N557 1.332 . S
C562 C558 1.382 . S
C562 H564 0.948 . S
H563 C561 0.952 . S
H564 C562 0.948 . S
H565 C554 0.952 . S
H566 C556 0.948 . S
C567 C533 1.395 . S
C567 C537 1.391 . S
C568 C530 1.389 . S
C568 C550 1.392 . S
C569 C540 1.392 . S
C569 C542 1.389 . S
C570 C545 1.395 . S
C570 C547 1.391 . S
H571 C531 0.951 . S
H572 C532 0.950 . S
H573 C538 0.949 . S
H574 C539 0.950 . S
H575 C543 0.951 . S
H576 C544 0.950 . S
H577 C548 0.949 . S
H578 C549 0.950 . S
H579 C553 0.950 . S
H580 C555 0.924 1_554 S
H581 C558 0.950 . S
H582 C560 0.950 . S
C583 C584 1.443 . S
C583 N587 1.376 . S
C583 C621 1.389 . S
C584 C583 1.443 . S
C584 C585 1.340 . S
C584 H624 0.951 . S
C585 C584 1.340 . S
C585 C586 1.439 . S
C585 H625 0.950 . S
C586 C585 1.439 . S
C586 N587 1.374 . S
C586 C620 1.395 . S
N587 C583 1.376 . S
N587 C586 1.374 . S
N587 Co588 2.008 . S
Co588 N587 2.008 . S
Co588 N589 1.995 . S
Co588 N594 2.008 . S
Co588 N599 1.995 . S
Co588 N604 2.282 . S
Co588 N610 2.282 . S
N589 Co588 1.995 . S
N589 C590 1.376 . S
N589 C593 1.383 . S
C590 N589 1.376 . S
C590 C591 1.446 . S
C590 C620 1.391 . S
C591 C590 1.446 . S
C591 C592 1.339 . S
C591 H626 0.949 . S
C592 C591 1.339 . S
C592 C593 1.439 . S
C592 H627 0.950 . S
C593 N589 1.383 . S
C593 C592 1.439 . S
C593 C622 1.392 . S
N594 Co588 2.008 . S
N594 C595 1.376 . S
N594 C598 1.374 . S
C595 N594 1.376 . S
C595 C596 1.443 . S
C595 C622 1.389 . S
C596 C595 1.443 . S
C596 C597 1.340 . S
C596 H628 0.951 . S
C597 C596 1.340 . S
C597 C598 1.439 . S
C597 H629 0.950 . S
C598 N594 1.374 . S
C598 C597 1.439 . S
C598 C623 1.395 . S
N599 Co588 1.995 . S
N599 C600 1.376 . S
N599 C603 1.383 . S
C600 N599 1.376 . S
C600 C601 1.446 . S
C600 C623 1.391 . S
C601 C600 1.446 . S
C601 C602 1.339 . S
C601 H630 0.949 . S
C602 C601 1.339 . S
C602 C603 1.439 . S
C602 H631 0.950 . S
C603 N599 1.383 . S
C603 C602 1.439 . S
C603 C621 1.392 . S
N604 Co588 2.282 . S
N604 C607 1.332 . S
N604 C609 1.332 . S
C605 C606 1.386 . S
C605 C608 1.388 . S
C606 C605 1.386 . S
C606 C607 1.382 . S
C606 H632 0.950 . S
C607 N604 1.332 . S
C607 C606 1.382 . S
C607 H618 0.952 . S
C608 C605 1.388 . S
C608 C609 1.382 . S
C608 H633 0.950 . S
C609 N604 1.332 . S
C609 C608 1.382 . S
C609 H619 0.948 . S
N610 Co588 2.282 . S
N610 C614 1.332 . S
N610 C615 1.332 . S
C611 C612 1.388 . S
C611 C615 1.382 . S
C611 H634 0.950 . S
C612 C611 1.388 . S
C612 C613 1.386 . S
C613 C612 1.386 . S
C613 C614 1.382 . S
C613 H635 0.950 . S
C614 N610 1.332 . S
C614 C613 1.382 . S
C614 H616 0.952 . S
C615 N610 1.332 . S
C615 C611 1.382 . S
C615 H617 0.948 . S
H616 C614 0.952 . S
H617 C615 0.948 . S
H618 C607 0.952 . S
H619 C609 0.948 . S
C620 C586 1.395 . S
C620 C590 1.391 . S
C621 C583 1.389 . S
C621 C603 1.392 . S
C622 C593 1.392 . S
C622 C595 1.389 . S
C623 C598 1.395 . S
C623 C600 1.391 . S
H624 C584 0.951 . S
H625 C585 0.950 . S
H626 C591 0.949 . S
H627 C592 0.950 . S
H628 C596 0.951 . S
H629 C597 0.950 . S
H630 C601 0.949 . S
H631 C602 0.950 . S
H632 C606 0.950 . S
H633 C608 0.950 . S
H634 C611 0.950 . S
H635 C613 0.950 . S
C636 C637 1.443 . S
C636 N640 1.376 . S
C636 C674 1.389 . S
C637 C636 1.443 . S
C637 C638 1.340 . S
C637 H677 0.951 . S
C638 C637 1.340 . S
C638 C639 1.439 . S
C638 H678 0.950 . S
C639 C638 1.439 . S
C639 N640 1.374 . S
C639 C673 1.395 . S
N640 C636 1.376 . S
N640 C639 1.374 . S
N640 Co641 2.008 . S
Co641 N640 2.008 . S
Co641 N642 1.995 . S
Co641 N647 2.008 . S
Co641 N652 1.995 . S
Co641 N657 2.282 . S
Co641 N663 2.282 . S
N642 Co641 1.995 . S
N642 C643 1.376 . S
N642 C646 1.383 . S
C643 N642 1.376 . S
C643 C644 1.446 . S
C643 C673 1.391 . S
C644 C643 1.446 . S
C644 C645 1.339 . S
C644 H679 0.949 . S
C645 C644 1.339 . S
C645 C646 1.439 . S
C645 H680 0.950 . S
C646 N642 1.383 . S
C646 C645 1.439 . S
C646 C675 1.392 . S
N647 Co641 2.008 . S
N647 C648 1.376 . S
N647 C651 1.374 . S
C648 N647 1.376 . S
C648 C649 1.443 . S
C648 C675 1.389 . S
C649 C648 1.443 . S
C649 C650 1.340 . S
C649 H681 0.951 . S
C650 C649 1.340 . S
C650 C651 1.439 . S
C650 H682 0.950 . S
C651 N647 1.374 . S
C651 C650 1.439 . S
C651 C676 1.395 . S
N652 Co641 1.995 . S
N652 C653 1.376 . S
N652 C656 1.383 . S
C653 N652 1.376 . S
C653 C654 1.446 . S
C653 C676 1.391 . S
C654 C653 1.446 . S
C654 C655 1.339 . S
C654 H683 0.949 . S
C655 C654 1.339 . S
C655 C656 1.439 . S
C655 H684 0.950 . S
C656 N652 1.383 . S
C656 C655 1.439 . S
C656 C674 1.392 . S
N657 Co641 2.282 . S
N657 C660 1.332 . S
N657 C662 1.332 . S
C658 C659 1.386 . S
C658 C661 1.388 . S
C659 C658 1.386 . S
C659 C660 1.382 . S
C659 H685 0.950 . S
C660 N657 1.332 . S
C660 C659 1.382 . S
C660 H671 0.952 . S
C661 C658 1.388 . S
C661 C662 1.382 . S
C661 H686 0.950 . S
C662 N657 1.332 . S
C662 C661 1.382 . S
C662 H672 0.948 . S
N663 Co641 2.282 . S
N663 C667 1.332 . S
N663 C668 1.332 . S
C664 C665 1.388 . S
C664 C668 1.382 . S
C664 H687 0.950 . S
C665 C664 1.388 . S
C665 C666 1.386 . S
C666 C665 1.386 . S
C666 C667 1.382 . S
C666 H688 0.950 . S
C667 N663 1.332 . S
C667 C666 1.382 . S
C667 H669 0.952 . S
C668 N663 1.332 . S
C668 C664 1.382 . S
C668 H670 0.948 . S
H669 C667 0.952 . S
H670 C668 0.948 . S
H671 C660 0.952 . S
H672 C662 0.948 . S
C673 C639 1.395 . S
C673 C643 1.391 . S
C674 C636 1.389 . S
C674 C656 1.392 . S
C675 C646 1.392 . S
C675 C648 1.389 . S
C676 C651 1.395 . S
C676 C653 1.391 . S
H677 C637 0.951 . S
H678 C638 0.950 . S
H679 C644 0.949 . S
H680 C645 0.950 . S
H681 C649 0.951 . S
H682 C650 0.950 . S
H683 C654 0.949 . S
H684 C655 0.950 . S
H685 C659 0.950 . S
H686 C661 0.950 . S
H687 C664 0.950 . S
H688 C666 0.950 . S
C689 C690 1.443 . S
C689 N693 1.376 . S
C689 C727 1.389 . S
C690 C689 1.443 . S
C690 C691 1.340 . S
C690 H730 0.951 . S
C691 C690 1.340 . S
C691 C692 1.439 . S
C691 H731 0.950 . S
C692 C691 1.439 . S
C692 N693 1.374 . S
C692 C726 1.395 . S
N693 C689 1.376 . S
N693 C692 1.374 . S
N693 Co694 2.008 . S
Co694 N693 2.008 . S
Co694 N695 1.995 . S
Co694 N700 2.008 . S
Co694 N705 1.995 . S
Co694 N710 2.282 . S
Co694 N716 2.282 . S
N695 Co694 1.995 . S
N695 C696 1.376 . S
N695 C699 1.383 . S
C696 N695 1.376 . S
C696 C697 1.446 . S
C696 C726 1.391 . S
C697 C696 1.446 . S
C697 C698 1.339 . S
C697 H732 0.949 1_565 S
C698 C697 1.339 . S
C698 C699 1.439 . S
C698 H733 0.950 1_565 S
C699 N695 1.383 . S
C699 C698 1.439 . S
C699 C728 1.392 . S
N700 Co694 2.008 . S
N700 C701 1.376 . S
N700 C704 1.374 . S
C701 N700 1.376 . S
C701 C702 1.443 . S
C701 C728 1.389 . S
C702 C701 1.443 . S
C702 C703 1.340 . S
C702 H734 0.951 . S
C703 C702 1.340 . S
C703 C704 1.439 . S
C703 H735 0.950 . S
C704 N700 1.374 . S
C704 C703 1.439 . S
C704 C729 1.395 . S
N705 Co694 1.995 . S
N705 C706 1.376 . S
N705 C709 1.383 . S
C706 N705 1.376 . S
C706 C707 1.446 . S
C706 C729 1.391 . S
C707 C706 1.446 . S
C707 C708 1.339 . S
C707 H736 0.949 . S
C708 C707 1.339 . S
C708 C709 1.439 . S
C708 H737 0.950 . S
C709 N705 1.383 . S
C709 C708 1.439 . S
C709 C727 1.392 . S
N710 Co694 2.282 . S
N710 C713 1.332 . S
N710 C715 1.332 . S
C711 C712 1.386 . S
C711 C714 1.388 . S
C712 C711 1.386 . S
C712 C713 1.382 . S
C712 H738 0.950 . S
C713 N710 1.332 . S
C713 C712 1.382 . S
C713 H724 0.952 . S
C714 C711 1.388 . S
C714 C715 1.382 . S
C714 H739 0.950 1_565 S
C715 N710 1.332 . S
C715 C714 1.382 . S
C715 H725 0.948 . S
N716 Co694 2.282 . S
N716 C720 1.332 . S
N716 C721 1.332 . S
C717 C718 1.388 . S
C717 C721 1.382 . S
C717 H740 0.950 . S
C718 C717 1.388 . S
C718 C719 1.386 . S
C719 C718 1.386 . S
C719 C720 1.382 . S
C719 H741 0.950 1_554 S
C720 N716 1.332 . S
C720 C719 1.382 . S
C720 H722 0.952 . S
C721 N716 1.332 . S
C721 C717 1.382 . S
C721 H723 0.948 . S
H722 C720 0.952 . S
H723 C721 0.948 . S
H724 C713 0.952 . S
H725 C715 0.948 . S
C726 C692 1.395 . S
C726 C696 1.391 . S
C727 C689 1.389 . S
C727 C709 1.392 . S
C728 C699 1.392 . S
C728 C701 1.389 . S
C729 C704 1.395 . S
C729 C706 1.391 . S
H730 C690 0.951 . S
H731 C691 0.950 . S
H732 C697 0.949 1_545 S
H733 C698 0.950 1_545 S
H734 C702 0.951 . S
H735 C703 0.950 . S
H736 C707 0.949 . S
H737 C708 0.950 . S
H738 C712 0.950 . S
H739 C714 0.950 1_545 S
H740 C717 0.950 . S
H741 C719 0.950 1_556 S
C742 C743 1.443 . S
C742 N746 1.376 . S
C742 C780 1.389 . S
C743 C742 1.443 . S
C743 C744 1.340 . S
C743 H783 0.951 . S
C744 C743 1.340 . S
C744 C745 1.439 . S
C744 H784 0.950 . S
C745 C744 1.439 . S
C745 N746 1.374 . S
C745 C779 1.395 . S
N746 C742 1.376 . S
N746 C745 1.374 . S
N746 Co747 2.008 . S
Co747 N746 2.008 . S
Co747 N748 1.995 . S
Co747 N753 2.008 . S
Co747 N758 1.995 . S
Co747 N763 2.282 . S
Co747 N769 2.282 . S
N748 Co747 1.995 . S
N748 C749 1.376 . S
N748 C752 1.383 . S
C749 N748 1.376 . S
C749 C750 1.446 . S
C749 C779 1.391 . S
C750 C749 1.446 . S
C750 C751 1.339 . S
C750 H785 0.949 . S
C751 C750 1.339 . S
C751 C752 1.439 . S
C751 H786 0.950 . S
C752 N748 1.383 . S
C752 C751 1.439 . S
C752 C781 1.392 . S
N753 Co747 2.008 . S
N753 C754 1.376 . S
N753 C757 1.374 . S
C754 N753 1.376 . S
C754 C755 1.443 . S
C754 C781 1.389 . S
C755 C754 1.443 . S
C755 C756 1.340 . S
C755 H787 0.951 1_455 S
C756 C755 1.340 . S
C756 C757 1.439 . S
C756 H788 0.950 . S
C757 N753 1.374 . S
C757 C756 1.439 . S
C757 C782 1.395 . S
N758 Co747 1.995 . S
N758 C759 1.376 . S
N758 C762 1.383 . S
C759 N758 1.376 . S
C759 C760 1.446 . S
C759 C782 1.391 . S
C760 C759 1.446 . S
C760 C761 1.339 . S
C760 H789 0.949 . S
C761 C760 1.339 . S
C761 C762 1.439 . S
C761 H790 0.950 . S
C762 N758 1.383 . S
C762 C761 1.439 . S
C762 C780 1.392 . S
N763 Co747 2.282 . S
N763 C766 1.332 . S
N763 C768 1.332 . S
C764 C765 1.386 . S
C764 C767 1.388 . S
C765 C764 1.386 . S
C765 C766 1.382 . S
C765 H791 0.950 . S
C766 N763 1.332 . S
C766 C765 1.382 . S
C766 H777 0.952 . S
C767 C764 1.388 . S
C767 C768 1.382 . S
C767 H792 0.950 . S
C768 N763 1.332 . S
C768 C767 1.382 . S
C768 H778 0.948 . S
N769 Co747 2.282 . S
N769 C773 1.332 . S
N769 C774 1.332 . S
C770 C771 1.388 . S
C770 C774 1.382 . S
C770 H793 0.950 . S
C771 C770 1.388 . S
C771 C772 1.386 . S
C772 C771 1.386 . S
C772 C773 1.382 . S
C772 H794 0.950 . S
C773 N769 1.332 . S
C773 C772 1.382 . S
C773 H775 0.952 . S
C774 N769 1.332 . S
C774 C770 1.382 . S
C774 H776 0.948 . S
H775 C773 0.952 . S
H776 C774 0.948 . S
H777 C766 0.952 . S
H778 C768 0.948 . S
C779 C745 1.395 . S
C779 C749 1.391 . S
C780 C742 1.389 . S
C780 C762 1.392 . S
C781 C752 1.392 . S
C781 C754 1.389 . S
C782 C757 1.395 . S
C782 C759 1.391 . S
H783 C743 0.951 . S
H784 C744 0.950 . S
H785 C750 0.949 . S
H786 C751 0.950 . S
H787 C755 0.951 1_655 S
H788 C756 0.950 . S
H789 C760 0.949 . S
H790 C761 0.950 . S
H791 C765 0.950 . S
H792 C767 0.950 . S
H793 C770 0.950 . S
H794 C772 0.950 . S
C795 C796 1.443 . S
C795 N799 1.376 . S
C795 C833 1.389 . S
C796 C795 1.443 . S
C796 C797 1.340 . S
C796 H836 0.951 . S
C797 C796 1.340 . S
C797 C798 1.439 . S
C797 H837 0.950 . S
C798 C797 1.439 . S
C798 N799 1.374 . S
C798 C832 1.395 . S
N799 C795 1.376 . S
N799 C798 1.374 . S
N799 Co800 2.008 . S
Co800 N799 2.008 . S
Co800 N801 1.995 . S
Co800 N806 2.008 . S
Co800 N811 1.995 . S
Co800 N816 2.282 . S
Co800 N822 2.282 . S
N801 Co800 1.995 . S
N801 C802 1.376 . S
N801 C805 1.383 . S
C802 N801 1.376 . S
C802 C803 1.446 . S
C802 C832 1.391 . S
C803 C802 1.446 . S
C803 C804 1.339 . S
C803 H838 0.949 . S
C804 C803 1.339 . S
C804 C805 1.439 . S
C804 H839 0.950 . S
C805 N801 1.383 . S
C805 C804 1.439 . S
C805 C834 1.392 . S
N806 Co800 2.008 . S
N806 C807 1.376 . S
N806 C810 1.374 . S
C807 N806 1.376 . S
C807 C808 1.443 . S
C807 C834 1.389 . S
C808 C807 1.443 . S
C808 C809 1.340 . S
C808 H840 0.951 . S
C809 C808 1.340 . S
C809 C810 1.439 . S
C809 H841 0.950 . S
C810 N806 1.374 . S
C810 C809 1.439 . S
C810 C835 1.395 . S
N811 Co800 1.995 . S
N811 C812 1.376 . S
N811 C815 1.383 . S
C812 N811 1.376 . S
C812 C813 1.446 . S
C812 C835 1.391 . S
C813 C812 1.446 . S
C813 C814 1.339 . S
C813 H842 0.949 . S
C814 C813 1.339 . S
C814 C815 1.439 . S
C814 H843 0.950 1_556 S
C815 N811 1.383 . S
C815 C814 1.439 . S
C815 C833 1.392 . S
N816 Co800 2.282 . S
N816 C819 1.332 . S
N816 C821 1.332 . S
C817 C818 1.386 . S
C817 C820 1.388 . S
C818 C817 1.386 . S
C818 C819 1.382 . S
C818 H844 0.950 . S
C819 N816 1.332 . S
C819 C818 1.382 . S
C819 H830 0.952 . S
C820 C817 1.388 . S
C820 C821 1.382 . S
C820 H845 0.950 . S
C821 N816 1.332 . S
C821 C820 1.382 . S
C821 H831 0.948 . S
N822 Co800 2.282 . S
N822 C826 1.332 . S
N822 C827 1.332 . S
C823 C824 1.388 . S
C823 C827 1.382 . S
C823 H846 0.950 . S
C824 C823 1.388 . S
C824 C825 1.386 . S
C825 C824 1.386 . S
C825 C826 1.382 . S
C825 H847 0.950 . S
C826 N822 1.332 . S
C826 C825 1.382 . S
C826 H828 0.952 . S
C827 N822 1.332 . S
C827 C823 1.382 . S
C827 H829 0.948 . S
H828 C826 0.952 . S
H829 C827 0.948 . S
H830 C819 0.952 . S
H831 C821 0.948 . S
C832 C798 1.395 . S
C832 C802 1.391 . S
C833 C795 1.389 . S
C833 C815 1.392 . S
C834 C805 1.392 . S
C834 C807 1.389 . S
C835 C810 1.395 . S
C835 C812 1.391 . S
H836 C796 0.951 . S
H837 C797 0.950 . S
H838 C803 0.949 . S
H839 C804 0.950 . S
H840 C808 0.951 . S
H841 C809 0.950 . S
H842 C813 0.949 . S
H843 C814 0.950 1_554 S
H844 C818 0.950 . S
H845 C820 0.950 . S
H846 C823 0.950 . S
H847 C825 0.950 . S
C848 C849 1.443 . S
C848 N852 1.376 . S
C848 C886 1.389 . S
C849 C848 1.443 . S
C849 C850 1.340 . S
C849 H889 0.951 1_655 S
C850 C849 1.340 . S
C850 C851 1.439 . S
C850 H890 0.950 1_655 S
C851 C850 1.439 . S
C851 N852 1.374 . S
C851 C885 1.395 . S
N852 C848 1.376 . S
N852 C851 1.374 . S
N852 Co853 2.008 . S
Co853 N852 2.008 . S
Co853 N854 1.995 . S
Co853 N859 2.008 . S
Co853 N864 1.995 . S
Co853 N869 2.282 . S
Co853 N875 2.282 . S
N854 Co853 1.995 . S
N854 C855 1.376 . S
N854 C858 1.383 . S
C855 N854 1.376 . S
C855 C856 1.446 . S
C855 C885 1.391 . S
C856 C855 1.446 . S
C856 C857 1.339 . S
C856 H891 0.949 . S
C857 C856 1.339 . S
C857 C858 1.439 . S
C857 H892 0.950 . S
C858 N854 1.383 . S
C858 C857 1.439 . S
C858 C887 1.392 . S
N859 Co853 2.008 . S
N859 C860 1.376 . S
N859 C863 1.374 . S
C860 N859 1.376 . S
C860 C861 1.443 . S
C860 C887 1.389 . S
C861 C860 1.443 . S
C861 C862 1.340 . S
C861 H893 0.951 . S
C862 C861 1.340 . S
C862 C863 1.439 . S
C862 H894 0.950 . S
C863 N859 1.374 . S
C863 C862 1.439 . S
C863 C888 1.395 . S
N864 Co853 1.995 . S
N864 C865 1.376 . S
N864 C868 1.383 . S
C865 N864 1.376 . S
C865 C866 1.446 . S
C865 C888 1.391 . S
C866 C865 1.446 . S
C866 C867 1.339 . S
C866 H895 0.949 . S
C867 C866 1.339 . S
C867 C868 1.439 . S
C867 H896 0.950 . S
C868 N864 1.383 . S
C868 C867 1.439 . S
C868 C886 1.392 . S
N869 Co853 2.282 . S
N869 C872 1.332 . S
N869 C874 1.332 . S
C870 C871 1.386 . S
C870 C873 1.388 . S
C871 C870 1.386 . S
C871 C872 1.382 . S
C871 H897 0.950 . S
C872 N869 1.332 . S
C872 C871 1.382 . S
C872 H883 0.952 . S
C873 C870 1.388 . S
C873 C874 1.382 . S
C873 H898 0.950 . S
C874 N869 1.332 . S
C874 C873 1.382 . S
C874 H884 0.948 . S
N875 Co853 2.282 . S
N875 C879 1.332 . S
N875 C880 1.332 . S
C876 C877 1.388 . S
C876 C880 1.382 . S
C876 H899 0.950 . S
C877 C876 1.388 . S
C877 C878 1.386 . S
C878 C877 1.386 . S
C878 C879 1.382 . S
C878 H900 0.950 . S
C879 N875 1.332 . S
C879 C878 1.382 . S
C879 H881 0.952 . S
C880 N875 1.332 . S
C880 C876 1.382 . S
C880 H882 0.948 . S
H881 C879 0.952 . S
H882 C880 0.948 . S
H883 C872 0.952 . S
H884 C874 0.948 . S
C885 C851 1.395 . S
C885 C855 1.391 . S
C886 C848 1.389 . S
C886 C868 1.392 . S
C887 C858 1.392 . S
C887 C860 1.389 . S
C888 C863 1.395 . S
C888 C865 1.391 . S
H889 C849 0.951 1_455 S
H890 C850 0.950 1_455 S
H891 C856 0.949 . S
H892 C857 0.950 . S
H893 C861 0.951 . S
H894 C862 0.950 . S
H895 C866 0.949 . S
H896 C867 0.950 . S
H897 C871 0.950 . S
H898 C873 0.950 . S
H899 C876 0.950 . S
H900 C878 0.950 . S
C901 C902 1.443 . S
C901 N905 1.376 . S
C901 C939 1.389 . S
C902 C901 1.443 . S
C902 C903 1.340 . S
C902 H942 0.951 . S
C903 C902 1.340 . S
C903 C904 1.439 . S
C903 H943 0.950 . S
C904 C903 1.439 . S
C904 N905 1.374 . S
C904 C938 1.395 . S
N905 C901 1.376 . S
N905 C904 1.374 . S
N905 Co906 2.008 . S
Co906 N905 2.008 . S
Co906 N907 1.995 . S
Co906 N912 2.008 . S
Co906 N917 1.995 . S
Co906 N922 2.282 . S
Co906 N928 2.282 . S
N907 Co906 1.995 . S
N907 C908 1.376 . S
N907 C911 1.383 . S
C908 N907 1.376 . S
C908 C909 1.446 . S
C908 C938 1.391 . S
C909 C908 1.446 . S
C909 C910 1.339 . S
C909 H944 0.949 1_545 S
C910 C909 1.339 . S
C910 C911 1.443 . S
C910 H945 0.945 1_545 S
C911 N907 1.383 . S
C911 C910 1.443 . S
C911 C940 1.392 . S
N912 Co906 2.008 . S
N912 C913 1.376 . S
N912 C916 1.374 . S
C913 N912 1.376 . S
C913 C914 1.443 . S
C913 C940 1.389 . S
C914 C913 1.443 . S
C914 C915 1.340 . S
C914 H946 0.951 . S
C915 C914 1.340 . S
C915 C916 1.439 . S
C915 H947 0.950 . S
C916 N912 1.374 . S
C916 C915 1.439 . S
C916 C941 1.395 . S
N917 Co906 1.995 . S
N917 C918 1.376 . S
N917 C921 1.383 . S
C918 N917 1.376 . S
C918 C919 1.446 . S
C918 C941 1.391 . S
C919 C918 1.446 . S
C919 C920 1.339 . S
C919 H948 0.949 . S
C920 C919 1.339 . S
C920 C921 1.439 . S
C920 H949 0.950 . S
C921 N917 1.383 . S
C921 C920 1.439 . S
C921 C939 1.392 . S
N922 Co906 2.282 . S
N922 C925 1.332 . S
N922 C927 1.332 . S
C923 C924 1.386 . S
C923 C926 1.388 1_545 S
C924 C923 1.386 . S
C924 C925 1.382 . S
C924 H950 0.950 . S
C925 N922 1.332 . S
C925 C924 1.382 . S
C925 H936 0.952 . S
C926 C923 1.388 1_565 S
C926 C927 1.382 1_565 S
C926 H951 0.950 . S
C927 N922 1.332 . S
C927 C926 1.382 1_545 S
C927 H937 0.948 . S
N928 Co906 2.282 . S
N928 C932 1.332 . S
N928 C933 1.332 . S
C929 C930 1.388 . S
C929 C933 1.382 . S
C929 H952 0.950 . S
C930 C929 1.388 . S
C930 C931 1.386 . S
C931 C930 1.386 . S
C931 C932 1.382 . S
C931 H953 0.950 . S
C932 N928 1.332 . S
C932 C931 1.382 . S
C932 H934 0.952 . S
C933 N928 1.332 . S
C933 C929 1.382 . S
C933 H935 0.948 . S
H934 C932 0.952 . S
H935 C933 0.948 . S
H936 C925 0.952 . S
H937 C927 0.948 . S
C938 C904 1.395 . S
C938 C908 1.391 . S
C939 C901 1.389 . S
C939 C921 1.392 . S
C940 C911 1.392 . S
C940 C913 1.389 . S
C941 C916 1.395 . S
C941 C918 1.391 . S
H942 C902 0.951 . S
H943 C903 0.950 . S
H944 C909 0.949 1_565 S
H945 C910 0.945 1_565 S
H946 C914 0.951 . S
H947 C915 0.950 . S
H948 C919 0.949 . S
H949 C920 0.950 . S
H950 C924 0.950 . S
H951 C926 0.950 . S
H952 C929 0.950 . S
H953 C931 0.950 . S
C954 C955 1.443 . S
C954 N958 1.376 . S
C954 C992 1.389 . S
C955 C954 1.443 . S
C955 C956 1.340 . S
C955 H995 0.951 . S
C956 C955 1.340 . S
C956 C957 1.439 . S
C956 H996 0.950 . S
C957 C956 1.439 . S
C957 N958 1.374 . S
C957 C991 1.395 . S
N958 C954 1.376 . S
N958 C957 1.374 . S
N958 Co959 2.008 . S
Co959 N958 2.008 . S
Co959 N960 1.995 . S
Co959 N965 2.008 . S
Co959 N970 1.995 . S
Co959 N975 2.282 . S
Co959 N981 2.282 . S
N960 Co959 1.995 . S
N960 C961 1.376 . S
N960 C964 1.383 . S
C961 N960 1.376 . S
C961 C962 1.446 . S
C961 C991 1.391 . S
C962 C961 1.446 . S
C962 C963 1.339 . S
C962 H997 0.949 . S
C963 C962 1.339 . S
C963 C964 1.439 . S
C963 H998 0.950 . S
C964 N960 1.383 . S
C964 C963 1.439 . S
C964 C993 1.392 . S
N965 Co959 2.008 . S
N965 C966 1.376 . S
N965 C969 1.374 . S
C966 N965 1.376 . S
C966 C967 1.443 . S
C966 C993 1.389 . S
C967 C966 1.443 . S
C967 C968 1.340 . S
C967 H999 0.951 . S
C968 C967 1.340 . S
C968 C969 1.439 . S
C968 H1000 0.950 . S
C969 N965 1.374 . S
C969 C968 1.439 . S
C969 C994 1.395 . S
N970 Co959 1.995 . S
N970 C971 1.376 . S
N970 C974 1.383 . S
C971 N970 1.376 . S
C971 C972 1.446 . S
C971 C994 1.391 . S
C972 C971 1.446 . S
C972 C973 1.339 . S
C972 H1001 0.949 . S
C973 C972 1.339 . S
C973 C974 1.439 . S
C973 H1002 0.950 . S
C974 N970 1.383 . S
C974 C973 1.439 . S
C974 C992 1.392 . S
N975 Co959 2.282 . S
N975 C978 1.332 . S
N975 C980 1.332 . S
C976 C977 1.386 . S
C976 C979 1.388 . S
C977 C976 1.386 . S
C977 C978 1.382 . S
C977 H1003 0.950 . S
C978 N975 1.332 . S
C978 C977 1.382 . S
C978 H989 0.952 . S
C979 C976 1.388 . S
C979 C980 1.382 . S
C979 H1004 0.950 . S
C980 N975 1.332 . S
C980 C979 1.382 . S
C980 H990 0.948 . S
N981 Co959 2.282 . S
N981 C985 1.332 . S
N981 C986 1.332 . S
C982 C983 1.388 . S
C982 C986 1.382 . S
C982 H1005 0.950 . S
C983 C982 1.388 . S
C983 C984 1.386 . S
C984 C983 1.386 . S
C984 C985 1.382 . S
C984 H1006 0.950 . S
C985 N981 1.332 . S
C985 C984 1.382 . S
C985 H987 0.952 . S
C986 N981 1.332 . S
C986 C982 1.382 . S
C986 H988 0.948 . S
H987 C985 0.952 . S
H988 C986 0.948 . S
H989 C978 0.952 . S
H990 C980 0.948 . S
C991 C957 1.395 . S
C991 C961 1.391 . S
C992 C954 1.389 . S
C992 C974 1.392 . S
C993 C964 1.392 . S
C993 C966 1.389 . S
C994 C969 1.395 . S
C994 C971 1.391 . S
H995 C955 0.951 . S
H996 C956 0.950 . S
H997 C962 0.949 . S
H998 C963 0.950 . S
H999 C967 0.951 . S
H1000 C968 0.950 . S
H1001 C972 0.949 . S
H1002 C973 0.950 . S
H1003 C977 0.950 . S
H1004 C979 0.950 . S
H1005 C982 0.950 . S
H1006 C984 0.950 . S
C1007 C1008 1.443 . S
C1007 N1011 1.376 . S
C1007 C1045 1.389 . S
C1008 C1007 1.443 . S
C1008 C1009 1.340 . S
C1008 H1048 0.951 . S
C1009 C1008 1.340 . S
C1009 C1010 1.439 . S
C1009 H1049 0.950 . S
C1010 C1009 1.439 . S
C1010 N1011 1.374 . S
C1010 C1044 1.395 . S
N1011 C1007 1.376 . S
N1011 C1010 1.374 . S
N1011 Co1012 2.008 . S
Co1012 N1011 2.008 . S
Co1012 N1013 1.995 . S
Co1012 N1018 2.008 . S
Co1012 N1023 1.995 . S
Co1012 N1028 2.282 . S
Co1012 N1034 2.282 . S
N1013 Co1012 1.995 . S
N1013 C1014 1.376 . S
N1013 C1017 1.383 . S
C1014 N1013 1.376 . S
C1014 C1015 1.446 . S
C1014 C1044 1.391 . S
C1015 C1014 1.446 . S
C1015 C1016 1.339 . S
C1015 H1050 0.949 . S
C1016 C1015 1.339 . S
C1016 C1017 1.439 . S
C1016 H1051 0.950 . S
C1017 N1013 1.383 . S
C1017 C1016 1.439 . S
C1017 C1046 1.392 . S
N1018 Co1012 2.008 . S
N1018 C1019 1.376 . S
N1018 C1022 1.374 . S
C1019 N1018 1.376 . S
C1019 C1020 1.443 . S
C1019 C1046 1.389 . S
C1020 C1019 1.443 . S
C1020 C1021 1.340 . S
C1020 H1052 0.951 . S
C1021 C1020 1.340 . S
C1021 C1022 1.439 . S
C1021 H1053 0.950 . S
C1022 N1018 1.374 . S
C1022 C1021 1.439 . S
C1022 C1047 1.395 . S
N1023 Co1012 1.995 . S
N1023 C1024 1.376 . S
N1023 C1027 1.383 . S
C1024 N1023 1.376 . S
C1024 C1025 1.446 . S
C1024 C1047 1.391 . S
C1025 C1024 1.446 . S
C1025 C1026 1.339 . S
C1025 H1054 0.949 . S
C1026 C1025 1.339 . S
C1026 C1027 1.439 . S
C1026 H1055 0.950 . S
C1027 N1023 1.383 . S
C1027 C1026 1.439 . S
C1027 C1045 1.392 . S
N1028 Co1012 2.282 . S
N1028 C1031 1.332 . S
N1028 C1033 1.332 . S
C1029 C1030 1.386 . S
C1029 C1032 1.388 . S
C1030 C1029 1.386 . S
C1030 C1031 1.382 . S
C1030 H1056 0.950 . S
C1031 N1028 1.332 . S
C1031 C1030 1.382 . S
C1031 H1042 0.952 . S
C1032 C1029 1.388 . S
C1032 C1033 1.382 . S
C1032 H1057 0.950 . S
C1033 N1028 1.332 . S
C1033 C1032 1.382 . S
C1033 H1043 0.948 . S
N1034 Co1012 2.282 . S
N1034 C1038 1.332 . S
N1034 C1039 1.332 . S
C1035 C1036 1.388 . S
C1035 C1039 1.382 . S
C1035 H1058 0.950 . S
C1036 C1035 1.388 . S
C1036 C1037 1.386 . S
C1037 C1036 1.386 . S
C1037 C1038 1.382 . S
C1037 H1059 0.950 . S
C1038 N1034 1.332 . S
C1038 C1037 1.382 . S
C1038 H1040 0.952 . S
C1039 N1034 1.332 . S
C1039 C1035 1.382 . S
C1039 H1041 0.948 . S
H1040 C1038 0.952 . S
H1041 C1039 0.948 . S
H1042 C1031 0.952 . S
H1043 C1033 0.948 . S
C1044 C1010 1.395 . S
C1044 C1014 1.391 . S
C1045 C1007 1.389 . S
C1045 C1027 1.392 . S
C1046 C1017 1.392 . S
C1046 C1019 1.389 . S
C1047 C1022 1.395 . S
C1047 C1024 1.391 . S
H1048 C1008 0.951 . S
H1049 C1009 0.950 . S
H1050 C1015 0.949 . S
H1051 C1016 0.950 . S
H1052 C1020 0.951 . S
H1053 C1021 0.950 . S
H1054 C1025 0.949 . S
H1055 C1026 0.950 . S
H1056 C1030 0.950 . S
H1057 C1032 0.950 . S
H1058 C1035 0.950 . S
H1059 C1037 0.950 . S
C1060 C1061 1.443 . S
C1060 N1064 1.376 . S
C1060 C1098 1.389 . S
C1061 C1060 1.443 . S
C1061 C1062 1.340 . S
C1061 H1101 0.951 . S
C1062 C1061 1.340 . S
C1062 C1063 1.439 . S
C1062 H1102 0.950 . S
C1063 C1062 1.439 . S
C1063 N1064 1.374 . S
C1063 C1097 1.395 . S
N1064 C1060 1.376 . S
N1064 C1063 1.374 . S
N1064 Co1065 2.008 . S
Co1065 N1064 2.008 . S
Co1065 N1066 1.995 . S
Co1065 N1071 2.008 . S
Co1065 N1076 1.995 . S
Co1065 N1081 2.282 . S
Co1065 N1087 2.282 . S
N1066 Co1065 1.995 . S
N1066 C1067 1.376 . S
N1066 C1070 1.383 . S
C1067 N1066 1.376 . S
C1067 C1068 1.446 . S
C1067 C1097 1.391 . S
C1068 C1067 1.446 . S
C1068 C1069 1.339 . S
C1068 H1103 0.949 . S
C1069 C1068 1.339 . S
C1069 C1070 1.439 . S
C1069 H1104 0.950 . S
C1070 N1066 1.383 . S
C1070 C1069 1.439 . S
C1070 C1099 1.392 . S
N1071 Co1065 2.008 . S
N1071 C1072 1.376 . S
N1071 C1075 1.374 . S
C1072 N1071 1.376 . S
C1072 C1073 1.443 . S
C1072 C1099 1.389 . S
C1073 C1072 1.443 . S
C1073 C1074 1.340 . S
C1073 H1105 0.951 . S
C1074 C1073 1.340 . S
C1074 C1075 1.439 . S
C1074 H1106 0.950 . S
C1075 N1071 1.374 . S
C1075 C1074 1.439 . S
C1075 C1100 1.395 . S
N1076 Co1065 1.995 . S
N1076 C1077 1.376 . S
N1076 C1080 1.383 . S
C1077 N1076 1.376 . S
C1077 C1078 1.446 . S
C1077 C1100 1.391 . S
C1078 C1077 1.446 . S
C1078 C1079 1.339 . S
C1078 H1107 0.949 . S
C1079 C1078 1.339 . S
C1079 C1080 1.439 . S
C1079 H1108 0.950 . S
C1080 N1076 1.383 . S
C1080 C1079 1.439 . S
C1080 C1098 1.392 . S
N1081 Co1065 2.282 . S
N1081 C1084 1.332 . S
N1081 C1086 1.332 . S
C1082 C1083 1.386 . S
C1082 C1085 1.388 . S
C1083 C1082 1.386 . S
C1083 C1084 1.382 . S
C1083 H1109 0.950 . S
C1084 N1081 1.332 . S
C1084 C1083 1.382 . S
C1084 H1095 0.952 . S
C1085 C1082 1.388 . S
C1085 C1086 1.382 . S
C1085 H1110 0.950 . S
C1086 N1081 1.332 . S
C1086 C1085 1.382 . S
C1086 H1096 0.948 . S
N1087 Co1065 2.282 . S
N1087 C1091 1.332 . S
N1087 C1092 1.332 . S
C1088 C1089 1.388 . S
C1088 C1092 1.382 . S
C1088 H1111 0.950 . S
C1089 C1088 1.388 . S
C1089 C1090 1.386 . S
C1090 C1089 1.386 . S
C1090 C1091 1.382 . S
C1090 H1112 0.950 . S
C1091 N1087 1.332 . S
C1091 C1090 1.382 . S
C1091 H1093 0.952 . S
C1092 N1087 1.332 . S
C1092 C1088 1.382 . S
C1092 H1094 0.948 . S
H1093 C1091 0.952 . S
H1094 C1092 0.948 . S
H1095 C1084 0.952 . S
H1096 C1086 0.948 . S
C1097 C1063 1.395 . S
C1097 C1067 1.391 . S
C1098 C1060 1.389 . S
C1098 C1080 1.392 . S
C1099 C1070 1.392 . S
C1099 C1072 1.389 . S
C1100 C1075 1.395 . S
C1100 C1077 1.391 . S
H1101 C1061 0.951 . S
H1102 C1062 0.950 . S
H1103 C1068 0.949 . S
H1104 C1069 0.950 . S
H1105 C1073 0.951 . S
H1106 C1074 0.950 . S
H1107 C1078 0.949 . S
H1108 C1079 0.950 . S
H1109 C1083 0.950 . S
H1110 C1085 0.950 . S
H1111 C1088 0.950 . S
H1112 C1090 0.950 . S
C1113 C1114 1.443 . S
C1113 N1117 1.376 . S
C1113 C1151 1.389 . S
C1114 C1113 1.443 . S
C1114 C1115 1.340 . S
C1114 H1154 0.951 . S
C1115 C1114 1.340 . S
C1115 C1116 1.439 . S
C1115 H1155 0.950 . S
C1116 C1115 1.439 . S
C1116 N1117 1.374 . S
C1116 C1150 1.395 . S
N1117 C1113 1.376 . S
N1117 C1116 1.374 . S
N1117 Co1118 2.008 . S
Co1118 N1117 2.008 . S
Co1118 N1119 1.995 . S
Co1118 N1124 2.008 . S
Co1118 N1129 1.995 . S
Co1118 N1134 2.282 . S
Co1118 N1140 2.282 . S
N1119 Co1118 1.995 . S
N1119 C1120 1.376 . S
N1119 C1123 1.383 . S
C1120 N1119 1.376 . S
C1120 C1121 1.446 . S
C1120 C1150 1.391 . S
C1121 C1120 1.446 . S
C1121 C1122 1.339 . S
C1121 H1156 0.949 . S
C1122 C1121 1.339 . S
C1122 C1123 1.439 . S
C1122 H1157 0.950 . S
C1123 N1119 1.383 . S
C1123 C1122 1.439 . S
C1123 C1152 1.392 . S
N1124 Co1118 2.008 . S
N1124 C1125 1.376 . S
N1124 C1128 1.374 . S
C1125 N1124 1.376 . S
C1125 C1126 1.443 . S
C1125 C1152 1.389 . S
C1126 C1125 1.443 . S
C1126 C1127 1.340 . S
C1126 H1158 0.951 . S
C1127 C1126 1.340 . S
C1127 C1128 1.439 . S
C1127 H1159 0.950 . S
C1128 N1124 1.374 . S
C1128 C1127 1.439 . S
C1128 C1153 1.395 . S
N1129 Co1118 1.995 . S
N1129 C1130 1.376 . S
N1129 C1133 1.383 . S
C1130 N1129 1.376 . S
C1130 C1131 1.446 . S
C1130 C1153 1.391 . S
C1131 C1130 1.446 . S
C1131 C1132 1.339 . S
C1131 H1160 0.949 . S
C1132 C1131 1.339 . S
C1132 C1133 1.439 . S
C1132 H1161 0.950 . S
C1133 N1129 1.383 . S
C1133 C1132 1.439 . S
C1133 C1151 1.392 . S
N1134 Co1118 2.282 . S
N1134 C1137 1.332 . S
N1134 C1139 1.332 . S
C1135 C1136 1.386 . S
C1135 C1138 1.388 . S
C1136 C1135 1.386 . S
C1136 C1137 1.382 . S
C1136 H1162 0.950 . S
C1137 N1134 1.332 . S
C1137 C1136 1.382 . S
C1137 H1148 0.952 . S
C1138 C1135 1.388 . S
C1138 C1139 1.382 . S
C1138 H1163 0.950 1_554 S
C1139 N1134 1.332 . S
C1139 C1138 1.382 . S
C1139 H1149 0.948 . S
N1140 Co1118 2.282 . S
N1140 C1144 1.332 . S
N1140 C1145 1.332 . S
C1141 C1142 1.388 . S
C1141 C1145 1.382 . S
C1141 H1164 0.950 . S
C1142 C1141 1.388 . S
C1142 C1143 1.386 . S
C1143 C1142 1.386 . S
C1143 C1144 1.382 . S
C1143 H1165 0.950 . S
C1144 N1140 1.332 . S
C1144 C1143 1.382 . S
C1144 H1146 0.952 . S
C1145 N1140 1.332 . S
C1145 C1141 1.382 . S
C1145 H1147 0.948 . S
H1146 C1144 0.952 . S
H1147 C1145 0.948 . S
H1148 C1137 0.952 . S
H1149 C1139 0.948 . S
C1150 C1116 1.395 . S
C1150 C1120 1.391 . S
C1151 C1113 1.389 . S
C1151 C1133 1.392 . S
C1152 C1123 1.392 . S
C1152 C1125 1.389 . S
C1153 C1128 1.395 . S
C1153 C1130 1.391 . S
H1154 C1114 0.951 . S
H1155 C1115 0.950 . S
H1156 C1121 0.949 . S
H1157 C1122 0.950 . S
H1158 C1126 0.951 . S
H1159 C1127 0.950 . S
H1160 C1131 0.949 . S
H1161 C1132 0.950 . S
H1162 C1136 0.950 . S
H1163 C1138 0.950 1_556 S
H1164 C1141 0.950 . S
H1165 C1143 0.950 . S
C1166 C1167 1.443 . S
C1166 N1170 1.376 . S
C1166 C1204 1.389 . S
C1167 C1166 1.443 . S
C1167 C1168 1.340 . S
C1167 H1207 0.951 . S
C1168 C1167 1.340 . S
C1168 C1169 1.439 . S
C1168 H1208 0.950 . S
C1169 C1168 1.439 . S
C1169 N1170 1.374 . S
C1169 C1203 1.395 . S
N1170 C1166 1.376 . S
N1170 C1169 1.374 . S
N1170 Co1171 2.008 . S
Co1171 N1170 2.008 . S
Co1171 N1172 1.995 . S
Co1171 N1177 2.008 . S
Co1171 N1182 1.995 . S
Co1171 N1187 2.282 . S
Co1171 N1193 2.282 . S
N1172 Co1171 1.995 . S
N1172 C1173 1.376 . S
N1172 C1176 1.383 . S
C1173 N1172 1.376 . S
C1173 C1174 1.446 . S
C1173 C1203 1.391 . S
C1174 C1173 1.446 . S
C1174 C1175 1.339 . S
C1174 H1209 0.949 . S
C1175 C1174 1.339 . S
C1175 C1176 1.439 . S
C1175 H1210 0.950 . S
C1176 N1172 1.383 . S
C1176 C1175 1.439 . S
C1176 C1205 1.392 . S
N1177 Co1171 2.008 . S
N1177 C1178 1.376 . S
N1177 C1181 1.374 . S
C1178 N1177 1.376 . S
C1178 C1179 1.443 . S
C1178 C1205 1.389 . S
C1179 C1178 1.443 . S
C1179 C1180 1.340 . S
C1179 H1211 0.951 . S
C1180 C1179 1.340 . S
C1180 C1181 1.439 . S
C1180 H1212 0.950 . S
C1181 N1177 1.374 . S
C1181 C1180 1.439 . S
C1181 C1206 1.395 . S
N1182 Co1171 1.995 . S
N1182 C1183 1.376 . S
N1182 C1186 1.383 . S
C1183 N1182 1.376 . S
C1183 C1184 1.446 . S
C1183 C1206 1.391 . S
C1184 C1183 1.446 . S
C1184 C1185 1.339 . S
C1184 H1213 0.949 . S
C1185 C1184 1.339 . S
C1185 C1186 1.439 . S
C1185 H1214 0.950 . S
C1186 N1182 1.383 . S
C1186 C1185 1.439 . S
C1186 C1204 1.392 . S
N1187 Co1171 2.282 . S
N1187 C1190 1.332 . S
N1187 C1192 1.332 . S
C1188 C1189 1.386 . S
C1188 C1191 1.388 . S
C1189 C1188 1.386 . S
C1189 C1190 1.382 . S
C1189 H1215 0.950 . S
C1190 N1187 1.332 . S
C1190 C1189 1.382 . S
C1190 H1201 0.952 . S
C1191 C1188 1.388 . S
C1191 C1192 1.382 . S
C1191 H1216 0.950 . S
C1192 N1187 1.332 . S
C1192 C1191 1.382 . S
C1192 H1202 0.948 . S
N1193 Co1171 2.282 . S
N1193 C1197 1.332 . S
N1193 C1198 1.332 . S
C1194 C1195 1.388 . S
C1194 C1198 1.382 . S
C1194 H1217 0.950 . S
C1195 C1194 1.388 . S
C1195 C1196 1.386 . S
C1196 C1195 1.386 . S
C1196 C1197 1.382 . S
C1196 H1218 0.950 . S
C1197 N1193 1.332 . S
C1197 C1196 1.382 . S
C1197 H1199 0.952 . S
C1198 N1193 1.332 . S
C1198 C1194 1.382 . S
C1198 H1200 0.948 . S
H1199 C1197 0.952 . S
H1200 C1198 0.948 . S
H1201 C1190 0.952 . S
H1202 C1192 0.948 . S
C1203 C1169 1.395 . S
C1203 C1173 1.391 . S
C1204 C1166 1.389 . S
C1204 C1186 1.392 . S
C1205 C1176 1.392 . S
C1205 C1178 1.389 . S
C1206 C1181 1.395 . S
C1206 C1183 1.391 . S
H1207 C1167 0.951 . S
H1208 C1168 0.950 . S
H1209 C1174 0.949 . S
H1210 C1175 0.950 . S
H1211 C1179 0.951 . S
H1212 C1180 0.950 . S
H1213 C1184 0.949 . S
H1214 C1185 0.950 . S
H1215 C1189 0.950 . S
H1216 C1191 0.950 . S
H1217 C1194 0.950 . S
H1218 C1196 0.950 . S
C1219 C1220 1.443 . S
C1219 N1223 1.376 . S
C1219 C1257 1.389 . S
C1220 C1219 1.443 . S
C1220 C1221 1.340 . S
C1220 H1260 0.951 . S
C1221 C1220 1.340 . S
C1221 C1222 1.439 . S
C1221 H1261 0.950 . S
C1222 C1221 1.439 . S
C1222 N1223 1.374 . S
C1222 C1256 1.395 . S
N1223 C1219 1.376 . S
N1223 C1222 1.374 . S
N1223 Co1224 2.008 . S
Co1224 N1223 2.008 . S
Co1224 N1225 1.995 . S
Co1224 N1230 2.008 . S
Co1224 N1235 1.995 . S
Co1224 N1240 2.282 . S
Co1224 N1246 2.282 . S
N1225 Co1224 1.995 . S
N1225 C1226 1.376 . S
N1225 C1229 1.383 . S
C1226 N1225 1.376 . S
C1226 C1227 1.446 . S
C1226 C1256 1.391 . S
C1227 C1226 1.446 . S
C1227 C1228 1.339 . S
C1227 H1262 0.949 . S
C1228 C1227 1.339 . S
C1228 C1229 1.439 . S
C1228 H1263 0.950 . S
C1229 N1225 1.383 . S
C1229 C1228 1.439 . S
C1229 C1258 1.392 . S
N1230 Co1224 2.008 . S
N1230 C1231 1.376 . S
N1230 C1234 1.374 . S
C1231 N1230 1.376 . S
C1231 C1232 1.443 . S
C1231 C1258 1.389 . S
C1232 C1231 1.443 . S
C1232 C1233 1.340 . S
C1232 H1264 0.951 . S
C1233 C1232 1.340 . S
C1233 C1234 1.439 . S
C1233 H1265 0.950 . S
C1234 N1230 1.374 . S
C1234 C1233 1.439 . S
C1234 C1259 1.395 . S
N1235 Co1224 1.995 . S
N1235 C1236 1.376 . S
N1235 C1239 1.383 . S
C1236 N1235 1.376 . S
C1236 C1237 1.446 . S
C1236 C1259 1.391 . S
C1237 C1236 1.446 . S
C1237 C1238 1.339 . S
C1237 H1266 0.949 . S
C1238 C1237 1.339 . S
C1238 C1239 1.439 . S
C1238 H1267 0.950 . S
C1239 N1235 1.383 . S
C1239 C1238 1.439 . S
C1239 C1257 1.392 . S
N1240 Co1224 2.282 . S
N1240 C1243 1.332 . S
N1240 C1245 1.332 . S
C1241 C1242 1.386 . S
C1241 C1244 1.388 . S
C1242 C1241 1.386 . S
C1242 C1243 1.382 . S
C1242 H1268 0.950 . S
C1243 N1240 1.332 . S
C1243 C1242 1.382 . S
C1243 H1254 0.952 . S
C1244 C1241 1.388 . S
C1244 C1245 1.382 . S
C1244 H1269 0.950 . S
C1245 N1240 1.332 . S
C1245 C1244 1.382 . S
C1245 H1255 0.948 . S
N1246 Co1224 2.282 . S
N1246 C1250 1.332 . S
N1246 C1251 1.332 . S
C1247 C1248 1.388 . S
C1247 C1251 1.382 . S
C1247 H1270 0.950 . S
C1248 C1247 1.388 . S
C1248 C1249 1.386 . S
C1249 C1248 1.386 . S
C1249 C1250 1.382 . S
C1249 H1271 0.950 1_655 S
C1250 N1246 1.332 . S
C1250 C1249 1.382 . S
C1250 H1252 0.952 . S
C1251 N1246 1.332 . S
C1251 C1247 1.382 . S
C1251 H1253 0.948 . S
H1252 C1250 0.952 . S
H1253 C1251 0.948 . S
H1254 C1243 0.952 . S
H1255 C1245 0.948 . S
C1256 C1222 1.395 . S
C1256 C1226 1.391 . S
C1257 C1219 1.389 . S
C1257 C1239 1.392 . S
C1258 C1229 1.392 . S
C1258 C1231 1.389 . S
C1259 C1234 1.395 . S
C1259 C1236 1.391 . S
H1260 C1220 0.951 . S
H1261 C1221 0.950 . S
H1262 C1227 0.949 . S
H1263 C1228 0.950 . S
H1264 C1232 0.951 . S
H1265 C1233 0.950 . S
H1266 C1237 0.949 . S
H1267 C1238 0.950 . S
H1268 C1242 0.950 . S
H1269 C1244 0.950 . S
H1270 C1247 0.950 . S
H1271 C1249 0.950 1_455 S
C1272 C1273 1.369 . S
C1272 C1274 1.419 . S
C1272 H1276 0.930 . S
C1273 C1272 1.369 . S
C1273 C1282 1.429 . S
C1274 C1272 1.419 . S
C1274 C1275 1.363 . S
C1274 H1277 0.929 . S
C1275 C1274 1.363 . S
C1275 C1281 1.428 . S
H1276 C1272 0.930 . S
H1277 C1274 0.929 . S
S1278 N1279 1.613 . S
S1278 N1280 1.610 . S
N1279 S1278 1.613 . S
N1279 C1282 1.350 . S
N1280 S1278 1.610 . S
N1280 C1281 1.351 . S
C1281 C1275 1.428 . S
C1281 N1280 1.351 . S
C1281 C1282 1.434 . S
C1282 C1273 1.429 . S
C1282 N1279 1.350 . S
C1282 C1281 1.434 . S
C1283 C1284 1.369 1_455 S
C1283 C1285 1.419 . S
C1283 H1287 0.930 . S
C1284 C1283 1.369 1_655 S
C1284 C1293 1.429 . S
C1285 C1283 1.419 . S
C1285 C1286 1.363 . S
C1285 H1288 0.929 . S
C1286 C1285 1.363 . S
C1286 C1292 1.428 1_455 S
H1287 C1283 0.930 . S
H1288 C1285 0.929 . S
S1289 N1290 1.613 . S
S1289 N1291 1.610 . S
N1290 S1289 1.613 . S
N1290 C1293 1.350 . S
N1291 S1289 1.610 . S
N1291 C1292 1.351 . S
C1292 C1286 1.428 1_655 S
C1292 N1291 1.351 . S
C1292 C1293 1.434 . S
C1293 C1284 1.429 . S
C1293 N1290 1.350 . S
C1293 C1292 1.434 . S
C1294 C1295 1.369 . S
C1294 C1296 1.419 . S
C1294 H1298 0.930 . S
C1295 C1294 1.369 . S
C1295 C1304 1.429 . S
C1296 C1294 1.419 . S
C1296 C1297 1.363 . S
C1296 H1299 0.929 . S
C1297 C1296 1.363 . S
C1297 C1303 1.428 . S
H1298 C1294 0.930 . S
H1299 C1296 0.929 . S
S1300 N1301 1.613 1_556 S
S1300 N1302 1.610 . S
N1301 S1300 1.613 1_554 S
N1301 C1304 1.350 . S
N1302 S1300 1.610 . S
N1302 C1303 1.351 1_556 S
C1303 C1297 1.428 . S
C1303 N1302 1.351 1_554 S
C1303 C1304 1.434 . S
C1304 C1295 1.429 . S
C1304 N1301 1.350 . S
C1304 C1303 1.434 . S
C1305 C1306 1.369 . S
C1305 C1307 1.419 . S
C1305 H1309 0.930 . S
C1306 C1305 1.369 . S
C1306 C1315 1.429 . S
C1307 C1305 1.419 . S
C1307 C1308 1.363 . S
C1307 H1310 0.929 . S
C1308 C1307 1.363 . S
C1308 C1314 1.428 . S
H1309 C1305 0.930 . S
H1310 C1307 0.929 . S
S1311 N1312 1.613 . S
S1311 N1313 1.610 . S
N1312 S1311 1.613 . S
N1312 C1315 1.350 . S
N1313 S1311 1.610 . S
N1313 C1314 1.351 . S
C1314 C1308 1.428 . S
C1314 N1313 1.351 . S
C1314 C1315 1.434 . S
C1315 C1306 1.429 . S
C1315 N1312 1.350 . S
C1315 C1314 1.434 . S
C1316 C1317 1.369 1_554 S
C1316 C1318 1.419 . S
C1316 H1320 0.930 . S
C1317 C1316 1.369 1_556 S
C1317 C1326 1.429 . S
C1318 C1316 1.419 . S
C1318 C1319 1.363 . S
C1318 H1321 0.929 . S
C1319 C1318 1.363 . S
C1319 C1325 1.428 1_554 S
H1320 C1316 0.930 . S
H1321 C1318 0.929 . S
S1322 N1323 1.613 . S
S1322 N1324 1.610 . S
N1323 S1322 1.613 . S
N1323 C1326 1.350 . S
N1324 S1322 1.610 . S
N1324 C1325 1.351 . S
C1325 C1319 1.428 1_556 S
C1325 N1324 1.351 . S
C1325 C1326 1.434 . S
C1326 C1317 1.429 . S
C1326 N1323 1.350 . S
C1326 C1325 1.434 . S
C1327 C1328 1.369 . S
C1327 C1329 1.419 . S
C1327 H1331 0.930 . S
C1328 C1327 1.369 . S
C1328 C1337 1.429 . S
C1329 C1327 1.419 . S
C1329 C1330 1.363 . S
C1329 H1332 0.929 . S
C1330 C1329 1.363 . S
C1330 C1336 1.428 . S
H1331 C1327 0.930 . S
H1332 C1329 0.929 . S
S1333 N1334 1.613 . S
S1333 N1335 1.610 . S
N1334 S1333 1.613 . S
N1334 C1337 1.350 . S
N1335 S1333 1.610 . S
N1335 C1336 1.351 . S
C1336 C1330 1.428 . S
C1336 N1335 1.351 . S
C1336 C1337 1.434 . S
C1337 C1328 1.429 . S
C1337 N1334 1.350 . S
C1337 C1336 1.434 . S
C1338 C1339 1.369 . S
C1338 C1340 1.419 . S
C1338 H1342 0.930 . S
C1339 C1338 1.369 . S
C1339 C1348 1.429 . S
C1340 C1338 1.419 . S
C1340 C1341 1.363 . S
C1340 H1343 0.929 . S
C1341 C1340 1.363 . S
C1341 C1347 1.428 . S
H1342 C1338 0.930 . S
H1343 C1340 0.929 . S
S1344 N1345 1.613 . S
S1344 N1346 1.610 . S
N1345 S1344 1.613 . S
N1345 C1348 1.350 . S
N1346 S1344 1.610 . S
N1346 C1347 1.351 . S
C1347 C1341 1.428 . S
C1347 N1346 1.351 . S
C1347 C1348 1.434 . S
C1348 C1339 1.429 . S
C1348 N1345 1.350 . S
C1348 C1347 1.434 . S
C1349 C1350 1.369 . S
C1349 C1351 1.419 1_455 S
C1349 H1353 0.930 . S
C1350 C1349 1.369 . S
C1350 C1359 1.429 . S
C1351 C1349 1.419 1_655 S
C1351 C1352 1.363 . S
C1351 H1354 0.929 . S
C1352 C1351 1.363 . S
C1352 C1358 1.428 1_655 S
H1353 C1349 0.930 . S
H1354 C1351 0.929 . S
S1355 N1356 1.613 . S
S1355 N1357 1.610 . S
N1356 S1355 1.613 . S
N1356 C1359 1.350 . S
N1357 S1355 1.610 . S
N1357 C1358 1.351 . S
C1358 C1352 1.428 1_455 S
C1358 N1357 1.351 . S
C1358 C1359 1.434 . S
C1359 C1350 1.429 . S
C1359 N1356 1.350 . S
C1359 C1358 1.434 . S
C1360 C1361 1.369 . S
C1360 C1362 1.419 . S
C1360 H1364 0.930 . S
C1361 C1360 1.369 . S
C1361 C1370 1.429 . S
C1362 C1360 1.419 . S
C1362 C1363 1.363 . S
C1362 H1365 0.929 . S
C1363 C1362 1.363 . S
C1363 C1369 1.428 . S
H1364 C1360 0.930 . S
H1365 C1362 0.929 . S
S1366 N1367 1.613 . S
S1366 N1368 1.610 . S
N1367 S1366 1.613 . S
N1367 C1370 1.350 . S
N1368 S1366 1.610 . S
N1368 C1369 1.351 . S
C1369 C1363 1.428 . S
C1369 N1368 1.351 . S
C1369 C1370 1.434 . S
C1370 C1361 1.429 . S
C1370 N1367 1.350 . S
C1370 C1369 1.434 . S
C1371 C1372 1.369 1_565 S
C1371 C1373 1.419 . S
C1371 H1375 0.930 . S
C1372 C1371 1.369 1_545 S
C1372 C1381 1.429 . S
C1373 C1371 1.419 . S
C1373 C1374 1.363 . S
C1373 H1376 0.929 . S
C1374 C1373 1.363 . S
C1374 C1380 1.428 . S
H1375 C1371 0.930 . S
H1376 C1373 0.929 . S
S1377 N1378 1.613 . S
S1377 N1379 1.610 1_545 S
N1378 S1377 1.613 . S
N1378 C1381 1.350 . S
N1379 S1377 1.610 1_565 S
N1379 C1380 1.351 . S
C1380 C1374 1.428 . S
C1380 N1379 1.351 . S
C1380 C1381 1.434 1_565 S
C1381 C1372 1.429 . S
C1381 N1378 1.350 . S
C1381 C1380 1.434 1_545 S
C1382 C1383 1.369 . S
C1382 C1384 1.419 . S
C1382 H1386 0.930 . S
C1383 C1382 1.369 . S
C1383 C1392 1.429 . S
C1384 C1382 1.419 . S
C1384 C1385 1.363 . S
C1384 H1387 0.929 . S
C1385 C1384 1.363 . S
C1385 C1391 1.428 . S
H1386 C1382 0.930 . S
H1387 C1384 0.929 . S
S1388 N1389 1.613 . S
S1388 N1390 1.610 . S
N1389 S1388 1.613 . S
N1389 C1392 1.350 . S
N1390 S1388 1.610 . S
N1390 C1391 1.351 . S
C1391 C1385 1.428 . S
C1391 N1390 1.351 . S
C1391 C1392 1.434 . S
C1392 C1383 1.429 . S
C1392 N1389 1.350 . S
C1392 C1391 1.434 . S
C1393 C1394 1.369 . S
C1393 C1395 1.419 . S
C1393 H1397 0.930 . S
C1394 C1393 1.369 . S
C1394 C1403 1.429 . S
C1395 C1393 1.419 . S
C1395 C1396 1.363 1_545 S
C1395 H1398 0.929 1_545 S
C1396 C1395 1.363 1_565 S
C1396 C1402 1.428 1_565 S
H1397 C1393 0.930 . S
H1398 C1395 0.929 1_565 S
S1399 N1400 1.613 . S
S1399 N1401 1.594 1_545 S
N1400 S1399 1.613 . S
N1400 C1403 1.350 . S
N1401 S1399 1.594 1_565 S
N1401 C1402 1.343 1_565 S
C1402 C1396 1.428 1_545 S
C1402 N1401 1.343 1_545 S
C1402 C1403 1.434 . S
C1403 C1394 1.429 . S
C1403 N1400 1.350 . S
C1403 C1402 1.434 . S
C1404 C1405 1.369 . S
C1404 C1406 1.419 . S
C1404 H1408 0.930 . S
C1405 C1404 1.369 . S
C1405 C1414 1.429 . S
C1406 C1404 1.419 . S
C1406 C1407 1.363 . S
C1406 H1409 0.929 . S
C1407 C1406 1.363 . S
C1407 C1413 1.428 . S
H1408 C1404 0.930 . S
H1409 C1406 0.929 . S
S1410 N1411 1.613 . S
S1410 N1412 1.610 . S
N1411 S1410 1.613 . S
N1411 C1414 1.350 . S
N1412 S1410 1.610 . S
N1412 C1413 1.351 . S
C1413 C1407 1.428 . S
C1413 N1412 1.351 . S
C1413 C1414 1.434 . S
C1414 C1405 1.429 . S
C1414 N1411 1.350 . S
C1414 C1413 1.434 . S
C1415 C1416 1.369 . S
C1415 C1417 1.419 . S
C1415 H1419 0.930 . S
C1416 C1415 1.369 . S
C1416 C1425 1.429 . S
C1417 C1415 1.419 . S
C1417 C1418 1.363 . S
C1417 H1420 0.929 . S
C1418 C1417 1.363 . S
C1418 C1424 1.428 . S
H1419 C1415 0.930 . S
H1420 C1417 0.929 . S
S1421 N1422 1.613 . S
S1421 N1423 1.610 . S
N1422 S1421 1.613 . S
N1422 C1425 1.350 . S
N1423 S1421 1.610 . S
N1423 C1424 1.351 . S
C1424 C1418 1.428 . S
C1424 N1423 1.351 . S
C1424 C1425 1.434 . S
C1425 C1416 1.429 . S
C1425 N1422 1.350 . S
C1425 C1424 1.434 . S
C1426 C1427 1.369 . S
C1426 C1428 1.419 . S
C1426 H1430 0.930 . S
C1427 C1426 1.369 . S
C1427 C1436 1.429 . S
C1428 C1426 1.419 . S
C1428 C1429 1.363 . S
C1428 H1431 0.929 . S
C1429 C1428 1.363 . S
C1429 C1435 1.428 . S
H1430 C1426 0.930 . S
H1431 C1428 0.929 . S
S1432 N1433 1.613 . S
S1432 N1434 1.610 . S
N1433 S1432 1.613 . S
N1433 C1436 1.350 . S
N1434 S1432 1.610 . S
N1434 C1435 1.351 . S
C1435 C1429 1.428 . S
C1435 N1434 1.351 . S
C1435 C1436 1.434 . S
C1436 C1427 1.429 . S
C1436 N1433 1.350 . S
C1436 C1435 1.434 . S
C1437 C1438 1.369 . S
C1437 C1439 1.419 1_556 S
C1437 H1441 0.930 . S
C1438 C1437 1.369 . S
C1438 C1447 1.429 . S
C1439 C1437 1.419 1_554 S
C1439 C1440 1.363 . S
C1439 H1442 0.929 . S
C1440 C1439 1.363 . S
C1440 C1446 1.428 . S
H1441 C1437 0.930 . S
H1442 C1439 0.929 . S
S1443 N1444 1.628 . S
S1443 N1445 1.610 . S
N1444 S1443 1.628 . S
N1444 C1447 1.349 1_554 S
N1445 S1443 1.610 . S
N1445 C1446 1.351 . S
C1446 C1440 1.428 . S
C1446 N1445 1.351 . S
C1446 C1447 1.434 1_554 S
C1447 C1438 1.429 . S
C1447 N1444 1.349 1_556 S
C1447 C1446 1.434 1_556 S
C1448 C1449 1.369 . S
C1448 C1450 1.419 . S
C1448 H1452 0.930 . S
C1449 C1448 1.369 . S
C1449 C1458 1.429 . S
C1450 C1448 1.419 . S
C1450 C1451 1.363 . S
C1450 H1453 0.929 . S
C1451 C1450 1.363 . S
C1451 C1457 1.428 . S
H1452 C1448 0.930 . S
H1453 C1450 0.929 . S
S1454 N1455 1.613 . S
S1454 N1456 1.610 . S
N1455 S1454 1.613 . S
N1455 C1458 1.350 . S
N1456 S1454 1.610 . S
N1456 C1457 1.351 . S
C1457 C1451 1.428 . S
C1457 N1456 1.351 . S
C1457 C1458 1.434 . S
C1458 C1449 1.429 . S
C1458 N1455 1.350 . S
C1458 C1457 1.434 . S
C1459 C1460 1.369 . S
C1459 C1461 1.419 . S
C1459 H1463 0.930 . S
C1460 C1459 1.369 . S
C1460 C1469 1.429 . S
C1461 C1459 1.419 . S
C1461 C1462 1.363 . S
C1461 H1464 0.929 . S
C1462 C1461 1.363 . S
C1462 C1468 1.428 . S
H1463 C1459 0.930 . S
H1464 C1461 0.929 . S
S1465 N1466 1.613 . S
S1465 N1467 1.610 . S
N1466 S1465 1.613 . S
N1466 C1469 1.350 . S
N1467 S1465 1.610 . S
N1467 C1468 1.351 . S
C1468 C1462 1.428 . S
C1468 N1467 1.351 . S
C1468 C1469 1.434 . S
C1469 C1460 1.429 . S
C1469 N1466 1.350 . S
C1469 C1468 1.434 . S
C1470 C1471 1.369 . S
C1470 C1472 1.419 . S
C1470 H1474 0.930 . S
C1471 C1470 1.369 . S
C1471 C1480 1.429 . S
C1472 C1470 1.419 . S
C1472 C1473 1.363 . S
C1472 H1475 0.929 . S
C1473 C1472 1.363 . S
C1473 C1479 1.428 . S
H1474 C1470 0.930 . S
H1475 C1472 0.929 . S
S1476 N1477 1.613 1_455 S
S1476 N1478 1.610 . S
N1477 S1476 1.613 1_655 S
N1477 C1480 1.350 . S
N1478 S1476 1.610 . S
N1478 C1479 1.351 1_455 S
C1479 C1473 1.428 . S
C1479 N1478 1.351 1_655 S
C1479 C1480 1.434 . S
C1480 C1471 1.429 . S
C1480 N1477 1.350 . S
C1480 C1479 1.434 . S
C1481 C1482 1.369 . S
C1481 C1483 1.419 . S
C1481 H1485 0.930 . S
C1482 C1481 1.369 . S
C1482 C1491 1.429 . S
C1483 C1481 1.419 . S
C1483 C1484 1.363 . S
C1483 H1486 0.929 . S
C1484 C1483 1.363 . S
C1484 C1490 1.428 . S
H1485 C1481 0.930 . S
H1486 C1483 0.929 . S
S1487 N1488 1.613 . S
S1487 N1489 1.610 . S
N1488 S1487 1.613 . S
N1488 C1491 1.350 . S
N1489 S1487 1.610 . S
N1489 C1490 1.351 . S
C1490 C1484 1.428 . S
C1490 N1489 1.351 . S
C1490 C1491 1.434 . S
C1491 C1482 1.429 . S
C1491 N1488 1.350 . S
C1491 C1490 1.434 . S
C1492 C1493 1.369 . S
C1492 C1494 1.419 . S
C1492 H1496 0.930 . S
C1493 C1492 1.369 . S
C1493 C1502 1.429 . S
C1494 C1492 1.419 . S
C1494 C1495 1.363 . S
C1494 H1497 0.929 1_455 S
C1495 C1494 1.363 . S
C1495 C1501 1.428 . S
H1496 C1492 0.930 . S
H1497 C1494 0.929 1_655 S
S1498 N1499 1.613 . S
S1498 N1500 1.610 . S
N1499 S1498 1.613 . S
N1499 C1502 1.350 . S
N1500 S1498 1.610 . S
N1500 C1501 1.351 . S
C1501 C1495 1.428 . S
C1501 N1500 1.351 . S
C1501 C1502 1.434 . S
C1502 C1493 1.429 . S
C1502 N1499 1.350 . S
C1502 C1501 1.434 . S
C1503 C1504 1.369 . S
C1503 C1505 1.419 . S
C1503 H1507 0.930 . S
C1504 C1503 1.369 . S
C1504 C1513 1.429 . S
C1505 C1503 1.419 . S
C1505 C1506 1.363 1_556 S
C1505 H1508 0.929 1_556 S
C1506 C1505 1.363 1_554 S
C1506 C1512 1.428 1_554 S
H1507 C1503 0.930 . S
H1508 C1505 0.929 1_554 S
S1509 N1510 1.613 . S
S1509 N1511 1.610 . S
N1510 S1509 1.613 . S
N1510 C1513 1.350 . S
N1511 S1509 1.610 . S
N1511 C1512 1.351 . S
C1512 C1506 1.428 1_556 S
C1512 N1511 1.351 . S
C1512 C1513 1.434 . S
C1513 C1504 1.429 . S
C1513 N1510 1.350 . S
C1513 C1512 1.434 . S
C1514 C1515 1.369 . S
C1514 C1516 1.419 . S
C1514 H1518 0.930 . S
C1515 C1514 1.369 . S
C1515 C1524 1.429 . S
C1516 C1514 1.419 . S
C1516 C1517 1.363 . S
C1516 H1519 0.929 . S
C1517 C1516 1.363 . S
C1517 C1523 1.428 . S
H1518 C1514 0.930 . S
H1519 C1516 0.929 . S
S1520 N1521 1.613 . S
S1520 N1522 1.610 . S
N1521 S1520 1.613 . S
N1521 C1524 1.350 . S
N1522 S1520 1.610 . S
N1522 C1523 1.351 . S
C1523 C1517 1.428 . S
C1523 N1522 1.351 . S
C1523 C1524 1.434 . S
C1524 C1515 1.429 . S
C1524 N1521 1.350 . S
C1524 C1523 1.434 . S
C1525 C1526 1.369 . S
C1525 C1527 1.419 1_565 S
C1525 H1529 0.930 . S
C1526 C1525 1.369 . S
C1526 C1535 1.429 . S
C1527 C1525 1.419 1_545 S
C1527 C1528 1.372 . S
C1527 H1530 0.929 . S
C1528 C1527 1.372 . S
C1528 C1534 1.397 1_545 S
H1529 C1525 0.930 . S
H1530 C1527 0.929 . S
S1531 N1532 1.613 . S
S1531 N1533 1.610 . S
N1532 S1531 1.613 . S
N1532 C1535 1.350 . S
N1533 S1531 1.610 . S
N1533 C1534 1.351 . S
C1534 C1528 1.397 1_565 S
C1534 N1533 1.351 . S
C1534 C1535 1.434 . S
C1535 C1526 1.429 . S
C1535 N1532 1.350 . S
C1535 C1534 1.434 . S
C1536 C1537 1.369 . S
C1536 C1538 1.419 . S
C1536 H1540 0.930 . S
C1537 C1536 1.369 . S
C1537 C1546 1.429 . S
C1538 C1536 1.419 . S
C1538 C1539 1.363 . S
C1538 H1541 0.929 . S
C1539 C1538 1.363 . S
C1539 C1545 1.428 . S
H1540 C1536 0.930 . S
H1541 C1538 0.929 . S
S1542 N1543 1.613 . S
S1542 N1544 1.610 . S
N1543 S1542 1.613 . S
N1543 C1546 1.350 . S
N1544 S1542 1.610 . S
N1544 C1545 1.351 . S
C1545 C1539 1.428 . S
C1545 N1544 1.351 . S
C1545 C1546 1.434 . S
C1546 C1537 1.429 . S
C1546 N1543 1.350 . S
C1546 C1545 1.434 . S
C1547 C1548 1.369 . S
C1547 C1549 1.419 . S
C1547 H1551 0.930 . S
C1548 C1547 1.369 . S
C1548 C1557 1.429 . S
C1549 C1547 1.419 . S
C1549 C1550 1.363 . S
C1549 H1552 0.929 . S
C1550 C1549 1.363 . S
C1550 C1556 1.428 . S
H1551 C1547 0.930 . S
H1552 C1549 0.929 . S
S1553 N1554 1.613 . S
S1553 N1555 1.610 . S
N1554 S1553 1.613 . S
N1554 C1557 1.350 . S
N1555 S1553 1.610 . S
N1555 C1556 1.351 . S
C1556 C1550 1.428 . S
C1556 N1555 1.351 . S
C1556 C1557 1.434 . S
C1557 C1548 1.429 . S
C1557 N1554 1.350 . S
C1557 C1556 1.434 . S
C1558 C1559 1.369 . S
C1558 C1560 1.419 . S
C1558 H1562 0.930 . S
C1559 C1558 1.369 . S
C1559 C1568 1.429 . S
C1560 C1558 1.419 . S
C1560 C1561 1.363 . S
C1560 H1563 0.929 . S
C1561 C1560 1.363 . S
C1561 C1567 1.428 . S
H1562 C1558 0.930 . S
H1563 C1560 0.929 . S
S1564 N1565 1.613 . S
S1564 N1566 1.610 . S
N1565 S1564 1.613 . S
N1565 C1568 1.350 . S
N1566 S1564 1.610 . S
N1566 C1567 1.351 . S
C1567 C1561 1.428 . S
C1567 N1566 1.351 . S
C1567 C1568 1.434 . S
C1568 C1559 1.429 . S
C1568 N1565 1.350 . S
C1568 C1567 1.434 . S
C1569 C1570 1.369 . S
C1569 C1571 1.419 . S
C1569 H1573 0.930 . S
C1570 C1569 1.369 . S
C1570 C1579 1.429 . S
C1571 C1569 1.419 . S
C1571 C1572 1.363 1_556 S
C1571 H1574 0.929 . S
C1572 C1571 1.363 1_554 S
C1572 C1578 1.428 . S
H1573 C1569 0.930 . S
H1574 C1571 0.929 . S
S1575 N1576 1.613 . S
S1575 N1577 1.610 . S
N1576 S1575 1.613 . S
N1576 C1579 1.350 1_554 S
N1577 S1575 1.610 . S
N1577 C1578 1.351 . S
C1578 C1572 1.428 . S
C1578 N1577 1.351 . S
C1578 C1579 1.434 1_554 S
C1579 C1570 1.429 . S
C1579 N1576 1.350 1_556 S
C1579 C1578 1.434 1_556 S
C1580 C1581 1.369 . S
C1580 C1582 1.419 . S
C1580 H1584 0.930 . S
C1581 C1580 1.369 . S
C1581 C1590 1.429 . S
C1582 C1580 1.419 . S
C1582 C1583 1.363 . S
C1582 H1585 0.929 . S
C1583 C1582 1.363 . S
C1583 C1589 1.428 . S
H1584 C1580 0.930 . S
H1585 C1582 0.929 . S
S1586 N1587 1.613 . S
S1586 N1588 1.610 . S
N1587 S1586 1.613 . S
N1587 C1590 1.350 . S
N1588 S1586 1.610 . S
N1588 C1589 1.351 . S
C1589 C1583 1.428 . S
C1589 N1588 1.351 . S
C1589 C1590 1.434 . S
C1590 C1581 1.429 . S
C1590 N1587 1.350 . S
C1590 C1589 1.434 . S
C1591 C1592 1.369 . S
C1591 C1593 1.419 . S
C1591 H1595 0.930 . S
C1592 C1591 1.369 . S
C1592 C1601 1.429 . S
C1593 C1591 1.419 . S
C1593 C1594 1.363 . S
C1593 H1596 0.929 . S
C1594 C1593 1.363 . S
C1594 C1600 1.428 . S
H1595 C1591 0.930 . S
H1596 C1593 0.929 . S
S1597 N1598 1.613 . S
S1597 N1599 1.610 1_545 S
N1598 S1597 1.613 . S
N1598 C1601 1.350 1_545 S
N1599 S1597 1.610 1_565 S
N1599 C1600 1.351 . S
C1600 C1594 1.428 . S
C1600 N1599 1.351 . S
C1600 C1601 1.434 . S
C1601 C1592 1.429 . S
C1601 N1598 1.350 1_565 S
C1601 C1600 1.434 . S
C1602 C1603 1.369 . S
C1602 C1604 1.419 . S
C1602 H1606 0.930 . S
C1603 C1602 1.369 . S
C1603 C1612 1.429 . S
C1604 C1602 1.419 . S
C1604 C1605 1.363 1_554 S
C1604 H1607 0.929 . S
C1605 C1604 1.363 1_556 S
C1605 C1611 1.428 . S
H1606 C1602 0.930 . S
H1607 C1604 0.929 . S
S1608 N1609 1.613 1_556 S
S1608 N1610 1.610 . S
N1609 S1608 1.613 1_554 S
N1609 C1612 1.350 . S
N1610 S1608 1.610 . S
N1610 C1611 1.351 . S
C1611 C1605 1.428 . S
C1611 N1610 1.351 . S
C1611 C1612 1.434 1_556 S
C1612 C1603 1.429 . S
C1612 N1609 1.350 . S
C1612 C1611 1.434 1_554 S
C1613 C1614 1.369 . S
C1613 C1615 1.419 . S
C1613 H1617 0.930 . S
C1614 C1613 1.369 . S
C1614 C1623 1.429 . S
C1615 C1613 1.419 . S
C1615 C1616 1.363 . S
C1615 H1618 0.929 . S
C1616 C1615 1.363 . S
C1616 C1622 1.428 . S
H1617 C1613 0.930 . S
H1618 C1615 0.929 . S
S1619 N1620 1.613 . S
S1619 N1621 1.610 1_545 S
N1620 S1619 1.613 . S
N1620 C1623 1.350 1_545 S
N1621 S1619 1.610 1_565 S
N1621 C1622 1.351 . S
C1622 C1616 1.428 . S
C1622 N1621 1.351 . S
C1622 C1623 1.434 . S
C1623 C1614 1.429 . S
C1623 N1620 1.350 1_565 S
C1623 C1622 1.434 . S
C1624 C1625 1.369 . S
C1624 C1626 1.419 . S
C1624 H1628 0.930 . S
C1625 C1624 1.369 . S
C1625 C1634 1.429 . S
C1626 C1624 1.419 . S
C1626 C1627 1.363 . S
C1626 H1629 0.929 . S
C1627 C1626 1.363 . S
C1627 C1633 1.428 . S
H1628 C1624 0.930 . S
H1629 C1626 0.929 . S
S1630 N1631 1.613 . S
S1630 N1632 1.610 . S
N1631 S1630 1.613 . S
N1631 C1634 1.350 . S
N1632 S1630 1.610 . S
N1632 C1633 1.351 . S
C1633 C1627 1.428 . S
C1633 N1632 1.351 . S
C1633 C1634 1.434 . S
C1634 C1625 1.429 . S
C1634 N1631 1.350 . S
C1634 C1633 1.434 . S
C1635 C1636 1.369 1_455 S
C1635 C1637 1.419 . S
C1635 H1639 0.930 . S
C1636 C1635 1.369 1_655 S
C1636 C1645 1.429 . S
C1637 C1635 1.419 . S
C1637 C1638 1.363 . S
C1637 H1640 0.929 . S
C1638 C1637 1.363 . S
C1638 C1644 1.428 . S
H1639 C1635 0.930 . S
H1640 C1637 0.929 . S
S1641 N1642 1.613 . S
S1641 N1643 1.610 1_655 S
N1642 S1641 1.613 . S
N1642 C1645 1.350 . S
N1643 S1641 1.610 1_455 S
N1643 C1644 1.351 . S
C1644 C1638 1.428 . S
C1644 N1643 1.351 . S
C1644 C1645 1.434 1_455 S
C1645 C1636 1.429 . S
C1645 N1642 1.350 . S
C1645 C1644 1.434 1_655 S
C1646 C1647 1.369 . S
C1646 C1648 1.419 . S
C1646 H1650 0.930 . S
C1647 C1646 1.369 . S
C1647 C1656 1.429 . S
C1648 C1646 1.419 . S
C1648 C1649 1.363 . S
C1648 H1651 0.929 . S
C1649 C1648 1.363 . S
C1649 C1655 1.428 . S
H1650 C1646 0.930 . S
H1651 C1648 0.929 . S
S1652 N1653 1.613 . S
S1652 N1654 1.610 . S
N1653 S1652 1.613 . S
N1653 C1656 1.350 . S
N1654 S1652 1.610 . S
N1654 C1655 1.351 . S
C1655 C1649 1.428 . S
C1655 N1654 1.351 . S
C1655 C1656 1.434 . S
C1656 C1647 1.429 . S
C1656 N1653 1.350 . S
C1656 C1655 1.434 . S
C1657 C1658 1.369 . S
C1657 C1659 1.419 . S
C1657 H1661 0.930 . S
C1658 C1657 1.369 . S
C1658 C1667 1.429 . S
C1659 C1657 1.419 . S
C1659 C1660 1.363 . S
C1659 H1662 0.929 . S
C1660 C1659 1.363 . S
C1660 C1666 1.428 . S
H1661 C1657 0.930 . S
H1662 C1659 0.929 . S
S1663 N1664 1.613 . S
S1663 N1665 1.610 . S
N1664 S1663 1.613 . S
N1664 C1667 1.350 . S
N1665 S1663 1.610 . S
N1665 C1666 1.351 . S
C1666 C1660 1.428 . S
C1666 N1665 1.351 . S
C1666 C1667 1.434 . S
C1667 C1658 1.429 . S
C1667 N1664 1.350 . S
C1667 C1666 1.434 . S
C1668 C1669 1.369 . S
C1668 C1670 1.419 1_455 S
C1668 H1672 0.930 . S
C1669 C1668 1.369 . S
C1669 C1678 1.429 . S
C1670 C1668 1.419 1_655 S
C1670 C1671 1.363 . S
C1670 H1673 0.929 . S
C1671 C1670 1.363 . S
C1671 C1677 1.428 . S
H1672 C1668 0.930 . S
H1673 C1670 0.929 . S
S1674 N1675 1.613 . S
S1674 N1676 1.610 1_455 S
N1675 S1674 1.613 . S
N1675 C1678 1.350 . S
N1676 S1674 1.610 1_655 S
N1676 C1677 1.351 . S
C1677 C1671 1.428 . S
C1677 N1676 1.351 . S
C1677 C1678 1.434 1_655 S
C1678 C1669 1.429 . S
C1678 N1675 1.350 . S
C1678 C1677 1.434 1_455 S
C1679 C1680 1.369 . S
C1679 C1681 1.419 . S
C1679 H1683 0.930 . S
C1680 C1679 1.369 . S
C1680 C1689 1.429 1_455 S
C1681 C1679 1.419 . S
C1681 C1682 1.363 1_455 S
C1681 H1684 0.929 . S
C1682 C1681 1.363 1_655 S
C1682 C1688 1.428 . S
H1683 C1679 0.930 . S
H1684 C1681 0.929 . S
S1685 N1686 1.613 . S
S1685 N1687 1.610 . S
N1686 S1685 1.613 . S
N1686 C1689 1.350 . S
N1687 S1685 1.610 . S
N1687 C1688 1.351 . S
C1688 C1682 1.428 . S
C1688 N1687 1.351 . S
C1688 C1689 1.434 . S
C1689 C1680 1.429 1_655 S
C1689 N1686 1.350 . S
C1689 C1688 1.434 . S
C1690 C1691 1.369 . S
C1690 C1692 1.419 . S
C1690 H1694 0.930 . S
C1691 C1690 1.369 . S
C1691 C1700 1.429 . S
C1692 C1690 1.419 . S
C1692 C1693 1.363 . S
C1692 H1695 0.929 . S
C1693 C1692 1.363 . S
C1693 C1699 1.428 . S
H1694 C1690 0.930 . S
H1695 C1692 0.929 . S
S1696 N1697 1.613 . S
S1696 N1698 1.610 . S
N1697 S1696 1.613 . S
N1697 C1700 1.350 . S
N1698 S1696 1.610 . S
N1698 C1699 1.351 . S
C1699 C1693 1.428 . S
C1699 N1698 1.351 . S
C1699 C1700 1.434 . S
C1700 C1691 1.429 . S
C1700 N1697 1.350 . S
C1700 C1699 1.434 . S
C1701 C1702 1.369 . S
C1701 C1703 1.419 . S
C1701 H1705 0.930 . S
C1702 C1701 1.369 . S
C1702 C1711 1.429 . S
C1703 C1701 1.419 . S
C1703 C1704 1.363 . S
C1703 H1706 0.929 . S
C1704 C1703 1.363 . S
C1704 C1710 1.428 . S
H1705 C1701 0.930 . S
H1706 C1703 0.929 . S
S1707 N1708 1.613 . S
S1707 N1709 1.610 . S
N1708 S1707 1.613 . S
N1708 C1711 1.350 . S
N1709 S1707 1.610 . S
N1709 C1710 1.351 . S
C1710 C1704 1.428 . S
C1710 N1709 1.351 . S
C1710 C1711 1.434 . S
C1711 C1702 1.429 . S
C1711 N1708 1.350 . S
C1711 C1710 1.434 . S
C1712 C1713 1.369 . S
C1712 C1714 1.419 1_556 S
C1712 H1716 0.930 1_556 S
C1713 C1712 1.369 . S
C1713 C1722 1.429 . S
C1714 C1712 1.419 1_554 S
C1714 C1715 1.363 . S
C1714 H1717 0.929 . S
C1715 C1714 1.363 . S
C1715 C1721 1.428 1_554 S
H1716 C1712 0.930 1_554 S
H1717 C1714 0.929 . S
S1718 N1719 1.613 . S
S1718 N1720 1.610 . S
N1719 S1718 1.613 . S
N1719 C1722 1.350 . S
N1720 S1718 1.610 . S
N1720 C1721 1.351 . S
C1721 C1715 1.428 1_556 S
C1721 N1720 1.351 . S
C1721 C1722 1.434 . S
C1722 C1713 1.429 . S
C1722 N1719 1.350 . S
C1722 C1721 1.434 . S
C1723 C1724 1.369 . S
C1723 C1725 1.419 . S
C1723 H1727 0.930 . S
C1724 C1723 1.369 . S
C1724 C1733 1.429 . S
C1725 C1723 1.419 . S
C1725 C1726 1.363 . S
C1725 H1728 0.929 . S
C1726 C1725 1.363 . S
C1726 C1732 1.429 . S
H1727 C1723 0.930 . S
H1728 C1725 0.929 . S
S1729 N1730 1.613 1_565 S
S1729 N1731 1.610 . S
N1730 S1729 1.613 1_545 S
N1730 C1733 1.350 . S
N1731 S1729 1.610 . S
N1731 C1732 1.325 1_565 S
C1732 C1726 1.429 . S
C1732 N1731 1.325 1_545 S
C1732 C1733 1.461 . S
C1733 C1724 1.429 . S
C1733 N1730 1.350 . S
C1733 C1732 1.461 . S
C1734 C1735 1.369 . S
C1734 C1736 1.419 . S
C1734 H1738 0.930 . S
C1735 C1734 1.369 . S
C1735 C1744 1.429 . S
C1736 C1734 1.419 . S
C1736 C1737 1.363 . S
C1736 H1739 0.929 . S
C1737 C1736 1.363 . S
C1737 C1743 1.428 . S
H1738 C1734 0.930 . S
H1739 C1736 0.929 . S
S1740 N1741 1.613 . S
S1740 N1742 1.610 . S
N1741 S1740 1.613 . S
N1741 C1744 1.350 . S
N1742 S1740 1.610 . S
N1742 C1743 1.351 . S
C1743 C1737 1.428 . S
C1743 N1742 1.351 . S
C1743 C1744 1.434 . S
C1744 C1735 1.429 . S
C1744 N1741 1.350 . S
C1744 C1743 1.434 . S
C1745 C1746 1.369 . S
C1745 C1747 1.419 . S
C1745 H1749 0.930 . S
C1746 C1745 1.369 . S
C1746 C1755 1.429 . S
C1747 C1745 1.419 . S
C1747 C1748 1.363 . S
C1747 H1750 0.929 . S
C1748 C1747 1.363 . S
C1748 C1754 1.428 . S
H1749 C1745 0.930 . S
H1750 C1747 0.929 . S
S1751 N1752 1.613 1_556 S
S1751 N1753 1.610 . S
N1752 S1751 1.613 1_554 S
N1752 C1755 1.350 1_554 S
N1753 S1751 1.610 . S
N1753 C1754 1.351 . S
C1754 C1748 1.428 . S
C1754 N1753 1.351 . S
C1754 C1755 1.434 . S
C1755 C1746 1.429 . S
C1755 N1752 1.350 1_556 S
C1755 C1754 1.434 . S
C1756 C1757 1.369 . S
C1756 C1758 1.419 . S
C1756 H1760 0.930 . S
C1757 C1756 1.369 . S
C1757 C1766 1.429 . S
C1758 C1756 1.419 . S
C1758 C1759 1.363 . S
C1758 H1761 0.929 . S
C1759 C1758 1.363 . S
C1759 C1765 1.428 . S
H1760 C1756 0.930 . S
H1761 C1758 0.929 . S
S1762 N1763 1.613 . S
S1762 N1764 1.610 . S
N1763 S1762 1.613 . S
N1763 C1766 1.350 . S
N1764 S1762 1.610 . S
N1764 C1765 1.351 . S
C1765 C1759 1.428 . S
C1765 N1764 1.351 . S
C1765 C1766 1.434 . S
C1766 C1757 1.429 . S
C1766 N1763 1.350 . S
C1766 C1765 1.434 . S
C1767 C1768 1.369 . S
C1767 C1769 1.419 . S
C1767 H1771 0.930 . S
C1768 C1767 1.369 . S
C1768 C1777 1.429 . S
C1769 C1767 1.419 . S
C1769 C1770 1.363 . S
C1769 H1772 0.929 . S
C1770 C1769 1.363 . S
C1770 C1776 1.428 . S
H1771 C1767 0.930 . S
H1772 C1769 0.929 . S
S1773 N1774 1.613 . S
S1773 N1775 1.610 . S
N1774 S1773 1.613 . S
N1774 C1777 1.350 . S
N1775 S1773 1.610 . S
N1775 C1776 1.351 . S
C1776 C1770 1.428 . S
C1776 N1775 1.351 . S
C1776 C1777 1.434 . S
C1777 C1768 1.429 . S
C1777 N1774 1.350 . S
C1777 C1776 1.434 . S
C1778 C1779 1.369 . S
C1778 C1780 1.419 . S
C1778 H1782 0.930 . S
C1779 C1778 1.369 . S
C1779 C1788 1.429 . S
C1780 C1778 1.419 . S
C1780 C1781 1.363 . S
C1780 H1783 0.929 . S
C1781 C1780 1.363 . S
C1781 C1787 1.428 . S
H1782 C1778 0.930 . S
H1783 C1780 0.929 . S
S1784 N1785 1.613 . S
S1784 N1786 1.610 . S
N1785 S1784 1.613 . S
N1785 C1788 1.350 . S
N1786 S1784 1.610 . S
N1786 C1787 1.351 . S
C1787 C1781 1.428 . S
C1787 N1786 1.351 . S
C1787 C1788 1.434 . S
C1788 C1779 1.429 . S
C1788 N1785 1.350 . S
C1788 C1787 1.434 . S
C1789 C1790 1.369 . S
C1789 C1791 1.419 . S
C1789 H1793 0.930 . S
C1790 C1789 1.369 . S
C1790 C1799 1.429 . S
C1791 C1789 1.419 . S
C1791 C1792 1.363 . S
C1791 H1794 0.929 . S
C1792 C1791 1.363 . S
C1792 C1798 1.428 . S
H1793 C1789 0.930 . S
H1794 C1791 0.929 . S
S1795 N1796 1.613 . S
S1795 N1797 1.610 . S
N1796 S1795 1.613 . S
N1796 C1799 1.350 . S
N1797 S1795 1.610 . S
N1797 C1798 1.351 . S
C1798 C1792 1.428 . S
C1798 N1797 1.351 . S
C1798 C1799 1.434 . S
C1799 C1790 1.429 . S
C1799 N1796 1.350 . S
C1799 C1798 1.434 . S
C1273 C29 1.421 . S
C1275 C506 1.421 . S
C1284 C82 1.229 . S
C1286 C559 1.226 . S
C1295 C622 1.757 . S
C1297 C135 1.761 1_554 S
C1306 C463 1.679 . S
C1308 C188 1.680 . S
C1317 C569 1.515 . S
C1319 C251 1.512 . S
C1328 C304 1.356 . S
C1330 C612 1.376 . S
C1339 C357 1.598 . S
C1341 C453 1.598 . S
C1350 C516 1.755 . S
C1352 C410 1.755 . S
C1361 C241 1.531 . S
C1363 C674 1.530 . S
C1372 C400 1.284 . S
C1374 C817 1.280 . S
C1383 C887 1.728 . S
C1385 C294 1.734 1_545 S
C1394 C198 1.547 . S
C1396 C728 1.551 . S
C1405 C780 1.595 . S
C1407 C347 1.595 . S
C1416 C39 1.637 . S
C1418 C1036 1.634 . S
C1427 C145 1.359 . S
C1429 C983 1.356 . S
C1438 C833 1.497 . S
C1440 C1152 1.489 . S
C1449 C1205 1.590 . S
C1451 C658 1.593 . S
C1460 C1258 1.285 . S
C1462 C877 1.286 . S
C1471 C1099 1.290 . S
C1473 C764 1.296 1_655 S
C1482 C1195 1.482 . S
C1484 C930 1.480 . S
C1493 C993 1.746 . S
C1495 C1248 1.748 1_455 S
C1504 C1089 1.264 . S
C1506 C718 1.263 . S
C1515 C1046 1.415 . S
C1517 C1142 1.410 . S
C1526 C92 1.567 . S
C1528 C940 1.589 . S
C1537 C250 1.271 . S
C1539 C22 1.258 . S
C1548 C75 1.034 . S
C1550 C303 1.046 . S
C1559 C128 1.436 . S
C1561 C356 1.449 . S
C1570 C409 1.443 . S
C1572 C181 1.428 . S
C1581 C462 1.526 . S
C1583 C515 1.523 . S
C1592 C499 1.249 1_565 S
C1594 C568 1.261 . S
C1603 C605 1.006 . S
C1605 C552 1.012 . S
C1614 C446 1.389 1_565 S
C1616 C621 1.399 . S
C1625 C197 1.318 . S
C1627 C675 1.309 . S
C1636 C393 1.008 . S
C1638 C976 1.007 . S
C1647 C234 1.343 1_655 S
C1649 C727 1.345 . S
C1658 C1029 1.306 . S
C1660 C287 1.304 . S
C1669 C781 1.299 . S
C1671 C91 1.305 . S
C1680 C38 1.392 . S
C1682 C886 1.393 . S
C1691 C144 0.970 . S
C1693 C824 0.976 . S
C1702 C834 1.233 . S
C1704 C923 1.239 1_565 S
C1713 C992 1.332 . S
C1715 C665 1.323 . S
C1724 C870 1.008 . S
C1726 C711 1.020 1_545 S
C1735 C771 1.115 . S
C1737 C1045 1.117 . S
C1746 C1135 1.164 1_556 S
C1748 C1098 1.166 . S
C1757 C1188 1.249 . S
C1759 C1151 1.257 . S
C1768 C1241 1.452 . S
C1770 C1204 1.462 . S
C1779 C1082 1.082 . S
C1781 C1257 1.090 . S
C1790 C939 1.327 . S
C1792 C340 1.327 . S
