# Generated by pormake.
# Topology eta-c, (3)-cn, num edge types: 1
# Building blocks:
#     Node 0, Type 0, BuildingBlock: WUSLED_clean_sbu_0, # of connection points: 3
#     Node 1, Type 0, BuildingBlock: WUSLED_clean_sbu_0, # of connection points: 3
#     Node 2, Type 0, BuildingBlock: WUSLED_clean_sbu_0, # of connection points: 3
#     Node 3, Type 0, BuildingBlock: WUSLED_clean_sbu_0, # of connection points: 3
#     Node 4, Type 0, BuildingBlock: WUSLED_clean_sbu_0, # of connection points: 3
#     Node 5, Type 0, BuildingBlock: WUSLED_clean_sbu_0, # of connection points: 3
#     Edge 6, Type (0, 0), BuildingBlock: FUNLAD_clean_linker_1, # of connection points: 2
#     Edge 7, Type (0, 0), BuildingBlock: FUNLAD_clean_linker_1, # of connection points: 2
#     Edge 8, Type (0, 0), BuildingBlock: FUNLAD_clean_linker_1, # of connection points: 2
#     Edge 9, Type (0, 0), BuildingBlock: FUNLAD_clean_linker_1, # of connection points: 2
#     Edge 10, Type (0, 0), BuildingBlock: FUNLAD_clean_linker_1, # of connection points: 2
#     Edge 11, Type (0, 0), BuildingBlock: FUNLAD_clean_linker_1, # of connection points: 2
#     Edge 12, Type (0, 0), BuildingBlock: FUNLAD_clean_linker_1, # of connection points: 2
#     Edge 13, Type (0, 0), BuildingBlock: FUNLAD_clean_linker_1, # of connection points: 2
#     Edge 14, Type (0, 0), BuildingBlock: FUNLAD_clean_linker_1, # of connection points: 2
# Relax obj value: 0.000
# Max RMSD: 0.004
# Mean RMSD: 0.004
data_MOF--net-eta-c--node1-WUSLED_clean_sbu_0--edge1-FUNLAD_clean_linker_1
_symmetry_space_group_name_H-M    P1
_symmetry_Int_Tables_number       1
_symmetry_cell_setting            triclinic
loop_
_symmetry_equiv_pos_as_xyz
'x, y, z'
_cell_length_a     67.820722
_cell_length_b     68.972192
_cell_length_c     28.209361
_cell_angle_alpha  91.14779
_cell_angle_beta   89.337861
_cell_angle_gamma 119.12559
loop_
_atom_site_label
_atom_site_type_symbol
_atom_site_fract_x
_atom_site_fract_y
_atom_site_fract_z
_atom_type_partial_charge
C0 C 0.40702 0.81 0.15901 0.0
C1 C 0.39743 0.78735 0.14735 0.0
C2 C 0.37902 0.77758 0.2248 0.0
C3 C 0.38351 0.77131 0.17992 0.0
C4 C 0.38863 0.8004 0.23608 0.0
C5 C 0.40253 0.8164 0.20349 0.0
U6 U 0.43503 0.82742 0.03723 0.0
O7 O 0.4396 0.85496 0.99218 0.0
O8 O 0.46925 0.85368 1.01844 0.0
C9 C 0.46171 0.86524 0.99589 0.0
C10 C 0.4215 0.82713 0.12508 0.0
C11 C 0.47264 0.88918 1.0079 0.0
C12 C 0.4737 0.92053 0.0512 0.0
C13 C 0.46339 0.89764 0.04178 0.0
C14 C 0.50291 0.92672 0.99381 0.0
C15 C 0.49344 0.93544 0.02702 0.0
C16 C 0.49253 0.90386 0.98432 0.0
C17 C 0.42408 0.78142 0.9439 0.0
C18 C 0.44669 0.78313 0.87488 0.0
C19 C 0.40807 0.7535 0.88084 0.0
C20 C 0.40592 0.76227 0.92452 0.0
C21 C 0.42864 0.76368 0.85556 0.0
C22 C 0.44446 0.79194 0.91854 0.0
C23 C 0.42142 0.78955 0.99108 0.0
O24 O 0.44059 0.82756 0.11398 0.0
O25 O 0.4111 0.82924 0.08814 0.0
O26 O 0.40984 0.80026 0.99245 0.0
O27 O 0.4394 0.79865 1.01836 0.0
H28 H 0.40064 0.78209 0.11302 0.0
H29 H 0.37623 0.75392 0.16997 0.0
H30 H 0.38516 0.8061 0.2695 0.0
H31 H 0.40965 0.83383 0.21292 0.0
H32 H 0.46609 0.92663 0.07728 0.0
H33 H 0.44811 0.88659 0.0607 0.0
H34 H 0.51839 0.9373 0.97519 0.0
H35 H 0.50005 0.89763 0.95832 0.0
H36 H 0.46269 0.79148 0.85632 0.0
H37 H 0.39349 0.73878 0.86758 0.0
H38 H 0.39001 0.75394 0.94346 0.0
H39 H 0.45872 0.80684 0.93264 0.0
C40 C 0.62411 0.39569 0.49511 0.0
C41 C 0.61128 0.39002 0.53689 0.0
C42 C 0.62943 0.36905 0.56315 0.0
C43 C 0.61392 0.37689 0.5707 0.0
C44 C 0.64237 0.37495 0.52128 0.0
C45 C 0.63967 0.38806 0.48742 0.0
U46 U 0.63569 0.42326 0.37395 0.0
O47 O 0.61288 0.42783 0.3263 0.0
O48 O 0.64263 0.45692 0.35558 0.0
C49 C 0.6239 0.44957 0.33108 0.0
C50 C 0.62126 0.40979 0.46035 0.0
C51 C 0.61005 0.46022 0.34216 0.0
C52 C 0.58074 0.46271 0.38799 0.0
C53 C 0.59391 0.45249 0.37862 0.0
C54 C 0.59992 0.4887 0.32507 0.0
C55 C 0.58339 0.48082 0.36113 0.0
C56 C 0.61301 0.47842 0.31567 0.0
C57 C 0.67363 0.41324 0.28513 0.0
C58 C 0.69122 0.40005 0.22671 0.0
C59 C 0.69107 0.43463 0.21446 0.0
C60 C 0.67934 0.43187 0.25723 0.0
C61 C 0.697 0.4187 0.1985 0.0
C62 C 0.67962 0.39738 0.26953 0.0
C63 C 0.66193 0.41018 0.33103 0.0
O64 O 0.63947 0.42866 0.45118 0.0
O65 O 0.60976 0.39949 0.4221 0.0
O66 O 0.63979 0.39875 0.32969 0.0
O67 O 0.66956 0.42776 0.35919 0.0
H68 H 0.59933 0.39593 0.54359 0.0
H69 H 0.6041 0.37337 0.60299 0.0
H70 H 0.65455 0.36933 0.51462 0.0
H71 H 0.64977 0.39232 0.45536 0.0
H72 H 0.56835 0.45636 0.41626 0.0
H73 H 0.59146 0.43854 0.39975 0.0
H74 H 0.60314 0.50293 0.30425 0.0
H75 H 0.62554 0.48475 0.28765 0.0
H76 H 0.69607 0.38775 0.21657 0.0
H77 H 0.69544 0.44923 0.19367 0.0
H78 H 0.67489 0.44434 0.26868 0.0
H79 H 0.67553 0.38298 0.2908 0.0
C80 C 0.2497 0.65275 0.57667 0.0
C81 C 0.24456 0.65049 0.5282 0.0
C82 C 0.28174 0.68157 0.51057 0.0
C83 C 0.26038 0.66475 0.4954 0.0
C84 C 0.2868 0.68373 0.55923 0.0
C85 C 0.27101 0.66937 0.59198 0.0
U86 U 0.23267 0.62318 0.69579 0.0
O87 O 0.20509 0.61796 0.74461 0.0
O88 O 0.20598 0.58922 0.71212 0.0
C89 C 0.19451 0.59629 0.73821 0.0
C90 C 0.23253 0.6379 0.61065 0.0
C91 C 0.17003 0.58573 0.72873 0.0
C92 C 0.13724 0.58662 0.69708 0.0
C93 C 0.16068 0.5964 0.7026 0.0
C94 C 0.13221 0.55512 0.74254 0.0
C95 C 0.12269 0.56589 0.71698 0.0
C96 C 0.15561 0.56496 0.74823 0.0
C97 C 0.27969 0.63205 0.78335 0.0
C98 C 0.27318 0.61778 0.86345 0.0
C99 C 0.31119 0.63679 0.83183 0.0
C100 C 0.30284 0.63989 0.7892 0.0
C101 C 0.29646 0.62585 0.8698 0.0
C102 C 0.26484 0.62089 0.82066 0.0
C103 C 0.2715 0.63568 0.73805 0.0
O104 O 0.23213 0.61896 0.61805 0.0
O105 O 0.23041 0.64739 0.64983 0.0
O106 O 0.26064 0.64709 0.74059 0.0
O107 O 0.26191 0.61837 0.70923 0.0
H108 H 0.22816 0.63784 0.51574 0.0
H109 H 0.25551 0.66287 0.45851 0.0
H110 H 0.30303 0.69659 0.57199 0.0
H111 H 0.27536 0.67137 0.62926 0.0
H112 H 0.13043 0.59538 0.67753 0.0
H113 H 0.17146 0.61245 0.68718 0.0
H114 H 0.1217 0.53949 0.75968 0.0
H115 H 0.16246 0.55653 0.76885 0.0
H116 H 0.26138 0.6091 0.89175 0.0
H117 H 0.32912 0.64267 0.83427 0.0
H118 H 0.31453 0.64837 0.76058 0.0
H119 H 0.24686 0.61459 0.81669 0.0
C120 C 0.61506 0.23323 0.90679 0.0
C121 C 0.63545 0.25177 0.89326 0.0
C122 C 0.61526 0.26283 0.83845 0.0
C123 C 0.63556 0.26642 0.85937 0.0
C124 C 0.59493 0.24451 0.85281 0.0
C125 C 0.59484 0.22981 0.88632 0.0
U126 U 0.63042 0.21803 0.02628 0.0
O127 O 0.60907 0.1909 0.07447 0.0
O128 O 0.63949 0.19236 0.04302 0.0
C129 C 0.6211 0.1808 0.06818 0.0
C130 C 0.61433 0.21706 0.94146 0.0
C131 C 0.60823 0.15675 0.05728 0.0
C132 C 0.58618 0.11891 0.08533 0.0
C133 C 0.59785 0.14184 0.09432 0.0
C134 C 0.59502 0.12545 1.00181 0.0
C135 C 0.58462 0.11042 0.03885 0.0
C136 C 0.60658 0.1484 1.01082 0.0
C137 C 0.66787 0.26544 0.11373 0.0
C138 C 0.69049 0.26419 0.17868 0.0
C139 C 0.68343 0.29526 0.17294 0.0
C140 C 0.67073 0.28573 0.13186 0.0
C141 C 0.69352 0.2846 0.19686 0.0
C142 C 0.67767 0.2546 0.13767 0.0
C143 C 0.65551 0.25658 0.06878 0.0
O144 O 0.63326 0.21666 0.94867 0.0
O145 O 0.603 0.21537 0.9807 0.0
O146 O 0.63338 0.24569 0.07186 0.0
O147 O 0.66362 0.24719 0.03928 0.0
H148 H 0.6513 0.25498 0.90884 0.0
H149 H 0.65151 0.28068 0.85033 0.0
H150 H 0.57903 0.24141 0.83764 0.0
H151 H 0.57891 0.21566 0.89621 0.0
H152 H 0.579 0.10798 0.11511 0.0
H153 H 0.59905 0.14793 0.13047 0.0
H154 H 0.59423 0.11943 0.96573 0.0
H155 H 0.6144 0.15957 0.98158 0.0
H156 H 0.69817 0.25567 0.19614 0.0
H157 H 0.68584 0.31128 0.18478 0.0
H158 H 0.66347 0.29445 0.11366 0.0
H159 H 0.6757 0.23893 0.12431 0.0
C160 C 0.41513 0.61707 0.23322 0.0
C161 C 0.39237 0.6118 0.23741 0.0
C162 C 0.39292 0.62443 0.15692 0.0
C163 C 0.38136 0.61544 0.19965 0.0
C164 C 0.41578 0.63013 0.15341 0.0
C165 C 0.4267 0.62636 0.19095 0.0
U166 U 0.43503 0.62113 0.36248 0.0
O167 O 0.43685 0.59576 0.40563 0.0
O168 O 0.4677 0.62669 0.38947 0.0
C169 C 0.459 0.60687 0.40807 0.0
C170 C 0.42701 0.61245 0.27142 0.0
C171 C 0.47073 0.59412 0.3966 0.0
C172 C 0.48884 0.57335 0.42365 0.0
C173 C 0.47715 0.58503 0.43342 0.0
C174 C 0.48779 0.57967 0.33981 0.0
C175 C 0.49428 0.57047 0.37659 0.0
C176 C 0.47602 0.59128 0.34965 0.0
C177 C 0.41894 0.65297 0.45605 0.0
C178 C 0.43834 0.67528 0.52587 0.0
C179 C 0.39765 0.65796 0.52067 0.0
C180 C 0.3983 0.64891 0.47625 0.0
C181 C 0.41763 0.67154 0.5457 0.0
C182 C 0.43898 0.66609 0.48147 0.0
C183 C 0.41903 0.64423 0.4077 0.0
O184 O 0.44536 0.62963 0.28803 0.0
O185 O 0.41442 0.59881 0.3047 0.0
O186 O 0.40747 0.62256 0.40189 0.0
O187 O 0.43837 0.65333 0.38473 0.0
H188 H 0.38302 0.6048 0.26974 0.0
H189 H 0.36393 0.6114 0.20435 0.0
H190 H 0.42517 0.63723 0.12116 0.0
H191 H 0.44424 0.63055 0.1868 0.0
H192 H 0.49403 0.56717 0.45322 0.0
H193 H 0.47335 0.58719 0.46993 0.0
H194 H 0.49186 0.57787 0.30329 0.0
H195 H 0.47121 0.59819 0.32068 0.0
H196 H 0.45406 0.68511 0.54458 0.0
H197 H 0.38145 0.65463 0.53515 0.0
H198 H 0.38263 0.63891 0.45735 0.0
H199 H 0.45515 0.66938 0.46697 0.0
C200 C 0.8193 0.39964 0.56617 0.0
C201 C 0.79659 0.3941 0.57204 0.0
C202 C 0.78771 0.37696 0.49301 0.0
C203 C 0.78098 0.38299 0.53566 0.0
C204 C 0.81054 0.38257 0.48741 0.0
C205 C 0.82613 0.39376 0.52371 0.0
U206 U 0.83555 0.42041 0.69455 0.0
O207 O 0.86297 0.42218 0.73847 0.0
O208 O 0.86219 0.45272 0.72168 0.0
C209 C 0.87353 0.44399 0.74111 0.0
C210 C 0.83615 0.41179 0.60347 0.0
C211 C 0.89798 0.45515 0.73128 0.0
C212 C 0.93012 0.46025 0.68321 0.0
C213 C 0.90672 0.4501 0.69045 0.0
C214 C 0.93623 0.48085 0.75708 0.0
C215 C 0.94519 0.47578 0.71633 0.0
C216 C 0.91288 0.47067 0.7643 0.0
C217 C 0.78803 0.40484 0.78753 0.0
C218 C 0.78951 0.42272 0.86382 0.0
C219 C 0.75931 0.38548 0.84737 0.0
C220 C 0.76839 0.386 0.80238 0.0
C221 C 0.76952 0.40388 0.87847 0.0
C222 C 0.79868 0.42317 0.81872 0.0
C223 C 0.79667 0.4049 0.73919 0.0
O224 O 0.83663 0.42995 0.62022 0.0
O225 O 0.83769 0.39954 0.63673 0.0
O226 O 0.80737 0.39347 0.73299 0.0
O227 O 0.80632 0.42399 0.71725 0.0
H228 H 0.79097 0.39849 0.6046 0.0
H229 H 0.76358 0.37904 0.54092 0.0
H230 H 0.81663 0.37886 0.45475 0.0
H231 H 0.84362 0.39802 0.51841 0.0
H232 H 0.93648 0.45585 0.65173 0.0
H233 H 0.89549 0.43811 0.66454 0.0
H234 H 0.94707 0.49214 0.78432 0.0
H235 H 0.90644 0.47465 0.79623 0.0
H236 H 0.79828 0.43702 0.88708 0.0
H237 H 0.74404 0.37069 0.85768 0.0
H238 H 0.75994 0.37165 0.77896 0.0
H239 H 0.81402 0.43783 0.80823 0.0
H240 H 0.49712 0.96465 0.0687 0.0
C241 C 0.50367 0.95973 0.03811 0.0
H242 H 0.52619 0.97201 0.97977 0.0
H243 H 0.53468 0.06691 0.97854 0.0
H244 H 0.51277 0.05024 0.90744 0.0
H245 H 0.49806 1.01049 0.88879 0.0
H246 H 0.50502 0.98712 0.94138 0.0
C247 C 0.52006 0.97592 1.01222 0.0
C248 C 0.52903 0.99999 0.02415 0.0
C249 C 0.52521 1.01359 0.99261 0.0
C250 C 0.53407 0.03666 1.00293 0.0
C251 C 0.52907 0.04952 0.97174 0.0
C252 C 0.51633 0.04012 0.93094 0.0
C253 C 0.50802 1.01773 0.92047 0.0
C254 C 0.51224 1.00452 0.95091 0.0
H255 H 0.57823 0.08074 0.99558 0.0
C256 C 0.57329 0.0861 0.02796 0.0
H257 H 0.55145 0.07525 0.08746 0.0
H258 H 0.54114 0.97925 0.09061 0.0
H259 H 0.56285 0.99588 0.1619 0.0
H260 H 0.57762 0.03565 0.18043 0.0
H261 H 0.57091 0.05906 0.12755 0.0
C262 C 0.55707 0.07054 0.05525 0.0
C263 C 0.54721 0.04627 0.04434 0.0
C264 C 0.55083 0.03262 0.07614 0.0
C265 C 0.54196 1.00955 0.06584 0.0
C266 C 0.5468 0.99665 0.09726 0.0
C267 C 0.55942 1.00604 0.13822 0.0
C268 C 0.56776 0.02843 0.14863 0.0
C269 C 0.56369 0.04167 0.11798 0.0
H270 H 0.51618 0.56246 0.33063 0.0
C271 C 0.50751 0.55894 0.36465 0.0
H272 H 0.50037 0.53996 0.42696 0.0
H273 H 0.53696 0.48734 0.28072 0.0
H274 H 0.50347 0.47774 0.23438 0.0
H275 H 0.47846 0.49324 0.25516 0.0
H276 H 0.48685 0.51855 0.32216 0.0
C277 C 0.50898 0.54418 0.39301 0.0
C278 C 0.5236 0.53413 0.38069 0.0
C279 C 0.5183 0.5191 0.34168 0.0
C280 C 0.53256 0.50987 0.33014 0.0
C281 C 0.52682 0.49493 0.29099 0.0
C282 C 0.50759 0.4892 0.26416 0.0
C283 C 0.49352 0.49794 0.27583 0.0
C284 C 0.49864 0.51261 0.31422 0.0
H285 H 0.55936 0.48643 0.40557 0.0
C286 C 0.56902 0.49122 0.37275 0.0
H287 H 0.57504 0.51007 0.3105 0.0
H288 H 0.5383 0.5618 0.45855 0.0
H289 H 0.57173 0.57134 0.50502 0.0
H290 H 0.59684 0.55598 0.48409 0.0
H291 H 0.58861 0.53086 0.41687 0.0
C292 C 0.56695 0.50583 0.34496 0.0
C293 C 0.5519 0.5153 0.35808 0.0
C294 C 0.55713 0.53024 0.39727 0.0
C295 C 0.54283 0.53944 0.40885 0.0
C296 C 0.54849 0.55428 0.44817 0.0
C297 C 0.56769 0.55997 0.4751 0.0
C298 C 0.58181 0.5513 0.46336 0.0
C299 C 0.57676 0.53672 0.42481 0.0
H300 H 0.09163 0.5684 0.70676 0.0
C301 C 0.09778 0.55678 0.71321 0.0
H302 H 0.08807 0.52298 0.72358 0.0
H303 H 0.99294 0.49534 0.81298 0.0
H304 H 1.01362 0.49401 0.88123 0.0
H305 H 0.05467 0.50798 0.87673 0.0
H306 H 0.0753 0.52326 0.80393 0.0
C307 C 0.08257 0.53511 0.71773 0.0
C308 C 0.05776 0.52712 0.71988 0.0
C309 C 0.04593 0.51834 0.76284 0.0
C310 C 1.02228 0.51057 0.76565 0.0
C311 C 1.01093 0.50172 0.80896 0.0
C312 C 1.02258 0.50081 0.84843 0.0
C313 C 0.04569 0.50865 0.84588 0.0
C314 C 0.05731 0.51734 0.80376 0.0
H315 H 0.97561 0.47642 0.68461 0.0
C316 C 0.97001 0.4853 0.70864 0.0
H317 H 0.98094 0.51364 0.75363 0.0
H318 H 0.07463 0.54075 0.63073 0.0
H319 H 0.05411 0.54294 0.56305 0.0
H320 H 1.0136 0.53148 0.56928 0.0
H321 H 0.99325 0.51741 0.64302 0.0
C322 C 0.98577 0.50412 0.72986 0.0
C323 C 1.01041 0.51161 0.72557 0.0
C324 C 1.02222 0.5204 0.68257 0.0
C325 C 0.04583 0.52782 0.6795 0.0
C326 C 0.05693 0.53561 0.63554 0.0
C327 C 0.04532 0.53684 0.59631 0.0
C328 C 1.02249 0.53032 0.59978 0.0
C329 C 1.01099 0.52219 0.64229 0.0
H330 H 0.35301 0.74335 0.24299 0.0
C331 C 0.36354 0.75992 0.25779 0.0
H332 H 0.37316 0.77897 0.32163 0.0
H333 H 0.27128 0.69851 0.37979 0.0
H334 H 0.25724 0.71352 0.32021 0.0
H335 H 0.28347 0.74344 0.268 0.0
H336 H 0.32387 0.75843 0.27481 0.0
C337 C 0.36191 0.76319 0.30464 0.0
C338 C 0.34585 0.74494 0.33583 0.0
C339 C 0.32221 0.73647 0.33166 0.0
C340 C 0.30707 0.71943 0.36233 0.0
C341 C 0.28357 0.71138 0.35741 0.0
C342 C 0.27525 0.71989 0.32344 0.0
C343 C 0.29002 0.73672 0.29401 0.0
C344 C 0.31322 0.74506 0.29808 0.0
H345 H 0.31122 0.71376 0.49168 0.0
C346 C 0.29865 0.6978 0.47717 0.0
H347 H 0.28736 0.67785 0.41479 0.0
H348 H 0.39006 0.75738 0.35338 0.0
H349 H 0.40411 0.74215 0.41259 0.0
H350 H 0.37786 0.71212 0.4646 0.0
H351 H 0.33743 0.69726 0.45802 0.0
C352 C 0.29941 0.69369 0.43046 0.0
C353 C 0.31554 0.71114 0.39779 0.0
C354 C 0.33917 0.71942 0.4016 0.0
C355 C 0.35431 0.73648 0.37096 0.0
C356 C 0.3778 0.74449 0.37575 0.0
C357 C 0.3861 0.73584 0.40948 0.0
C358 C 0.37133 0.71895 0.43881 0.0
C359 C 0.34813 0.71069 0.4349 0.0
H360 H 0.64895 0.35499 0.59706 0.0
C361 C 0.63312 0.35539 0.59866 0.0
H362 H 0.60158 0.34271 0.63382 0.0
H363 H 0.63318 0.2703 0.70018 0.0
H364 H 0.63016 0.25947 0.6171 0.0
H365 H 0.62293 0.28046 0.55635 0.0
H366 H 0.61886 0.31248 0.57816 0.0
C367 C 0.6177 0.34303 0.63143 0.0
C368 C 0.6224 0.33027 0.66756 0.0
C369 C 0.62451 0.3114 0.65416 0.0
C370 C 0.62823 0.299 0.68934 0.0
C371 C 0.6303 0.28027 0.67498 0.0
C372 C 0.62856 0.27384 0.62741 0.0
C373 C 0.62452 0.28568 0.59321 0.0
C374 C 0.62238 0.30416 0.60622 0.0
H375 H 0.59834 0.27765 0.79764 0.0
C376 C 0.6144 0.278 0.80269 0.0
H377 H 0.64772 0.29099 0.77606 0.0
H378 H 0.61962 0.36572 0.70538 0.0
H379 H 0.62264 0.37645 0.78849 0.0
H380 H 0.62914 0.35497 0.84927 0.0
H381 H 0.63257 0.32256 0.82733 0.0
C382 C 0.63188 0.29127 0.77478 0.0
C383 C 0.62928 0.3051 0.73793 0.0
C384 C 0.62745 0.3241 0.75127 0.0
C385 C 0.62389 0.3366 0.71612 0.0
C386 C 0.62218 0.35553 0.73055 0.0
C387 C 0.62396 0.36193 0.77815 0.0
C388 C 0.6276 0.34982 0.81237 0.0
C389 C 0.62941 0.33117 0.7993 0.0
H390 H 0.39296 0.64004 0.08901 0.0
C391 C 0.38199 0.62845 0.11552 0.0
H392 H 0.34813 0.60477 0.13107 0.0
H393 H 0.33538 0.66892 0.9748 0.0
H394 H 0.34891 0.6969 0.0376 0.0
H395 H 0.36268 0.69045 0.11301 0.0
H396 H 0.36311 0.656 0.12602 0.0
C397 C 0.35959 0.61768 0.1075 0.0
C398 C 0.3501 0.62124 0.06306 0.0
C399 C 0.34978 0.64139 0.0561 0.0
C400 C 0.34164 0.64503 1.0127 0.0
C401 C 0.34151 0.66532 1.00686 0.0
C402 C 0.34915 0.68151 0.0427 0.0
C403 C 0.35692 0.67788 0.08515 0.0
C404 C 0.3572 0.65807 0.09204 0.0
H405 H 0.29216 0.60946 0.939 0.0
C406 C 0.30458 0.62188 0.91569 0.0
H407 H 0.3389 0.64657 0.90974 0.0
H408 H 0.34746 0.58042 0.06567 0.0
H409 H 0.33415 0.55247 1.00284 0.0
H410 H 0.32104 0.55912 0.92681 0.0
H411 H 0.32095 0.59363 0.91327 0.0
C412 C 0.32625 0.63295 0.93014 0.0
C413 C 0.3336 0.62843 0.97642 0.0
C414 C 0.33368 0.60815 0.98361 0.0
C415 C 0.34167 0.60447 0.02718 0.0
C416 C 0.3416 0.5841 0.03333 0.0
C417 C 0.33405 0.56792 0.99751 0.0
C418 C 0.32664 0.57166 0.95473 0.0
C419 C 0.32653 0.59153 0.94757 0.0
H420 H 0.75543 0.36716 0.45589 0.0
C421 C 0.7707 0.36571 0.45464 0.0
H422 H 0.78711 0.35028 0.41848 0.0
H423 H 0.69549 0.27672 0.32499 0.0
H424 H 0.69795 0.25591 0.39072 0.0
H425 H 0.72681 0.27436 0.45282 0.0
H426 H 0.75324 0.31385 0.44981 0.0
C427 C 0.77295 0.35348 0.41932 0.0
C428 C 0.75539 0.3425 0.38186 0.0
C429 C 0.74044 0.31932 0.38334 0.0
C430 C 0.72414 0.30856 0.34682 0.0
C431 C 0.70873 0.2856 0.35067 0.0
C432 C 0.70983 0.27347 0.38848 0.0
C433 C 0.72605 0.28387 0.42349 0.0
C434 C 0.74116 0.30653 0.42125 0.0
H435 H 0.72072 0.28967 0.24667 0.0
C436 C 0.70829 0.29483 0.23905 0.0
H437 H 0.6945 0.31511 0.26231 0.0
H438 H 0.78159 0.38711 0.3679 0.0
H439 H 0.77915 0.40803 0.30231 0.0
H440 H 0.75125 0.38943 0.23857 0.0
H441 H 0.72567 0.34979 0.23988 0.0
C442 C 0.70691 0.30981 0.26837 0.0
C443 C 0.72327 0.32092 0.308 0.0
C444 C 0.738 0.3442 0.30697 0.0
C445 C 0.75408 0.35498 0.34384 0.0
C446 C 0.76888 0.37813 0.34122 0.0
C447 C 0.76772 0.39034 0.30366 0.0
C448 C 0.75202 0.37986 0.26775 0.0
C449 C 0.73736 0.35708 0.26907 0.0
H450 H 0.39979 0.67326 0.61059 0.0
C451 C 0.41603 0.68111 0.59249 0.0
H452 H 0.44894 0.70885 0.59388 0.0
H453 H 0.41834 0.76424 0.72892 0.0
H454 H 0.42287 0.78272 0.65428 0.0
H455 H 0.43073 0.76792 0.58045 0.0
H456 H 0.43393 0.7344 0.58083 0.0
C457 C 0.433 0.69952 0.61233 0.0
C458 C 0.42962 0.70908 0.65771 0.0
C459 C 0.42848 0.72907 0.65725 0.0
C460 C 0.42437 0.73785 0.70007 0.0
C461 C 0.42215 0.7572 0.69792 0.0
C462 C 0.42455 0.76791 0.65517 0.0
C463 C 0.42894 0.75956 0.61359 0.0
C464 C 0.4308 0.74032 0.61435 0.0
H465 H 0.44827 0.76434 0.79151 0.0
C466 C 0.43214 0.75473 0.80933 0.0
H467 H 0.40099 0.72465 0.80567 0.0
H468 H 0.43272 0.6715 0.67182 0.0
H469 H 0.42843 0.65305 0.74653 0.0
H470 H 0.42123 0.66815 0.82068 0.0
H471 H 0.41838 0.70185 0.82065 0.0
C472 C 0.41692 0.73545 0.78863 0.0
C473 C 0.42195 0.7269 0.7436 0.0
C474 C 0.42337 0.70704 0.74408 0.0
C475 C 0.42733 0.6982 0.70121 0.0
C476 C 0.42925 0.67868 0.70309 0.0
C477 C 0.42695 0.66798 0.7458 0.0
C478 C 0.42292 0.67649 0.78756 0.0
C479 C 0.42123 0.69582 0.78698 0.0
H480 H 0.74659 0.386 0.93791 0.0
C481 C 0.75887 0.40242 0.92579 0.0
H482 H 0.7733 0.43685 0.94109 0.0
H483 H 0.69032 0.42194 0.0718 0.0
H484 H 0.68396 0.4386 1.00303 0.0
H485 H 0.70757 0.44589 0.9314 0.0
H486 H 0.73755 0.43633 0.92799 0.0
C487 C 0.76245 0.42007 0.95312 0.0
C488 C 0.74947 0.41718 0.99805 0.0
C489 C 0.73248 0.42353 1.00016 0.0
C490 C 0.71919 0.41979 0.04196 0.0
C491 C 0.70149 0.42514 0.04183 0.0
C492 C 0.69751 0.43455 1.00236 0.0
C493 C 0.71077 0.43861 0.962 0.0
C494 C 0.72798 0.43309 0.96059 0.0
H495 H 0.71978 0.43944 0.1413 0.0
C496 C 0.70992 0.42246 0.15338 0.0
H497 H 0.69945 0.38877 0.13679 0.0
H498 H 0.78189 0.40476 1.00743 0.0
H499 H 0.78853 0.38835 0.07647 0.0
H500 H 0.76556 0.38186 0.1489 0.0
H501 H 0.73588 0.39182 0.15281 0.0
C502 C 0.70941 0.40593 0.12619 0.0
C503 C 0.72337 0.4103 0.08224 0.0
C504 C 0.74055 0.40419 0.08027 0.0
C505 C 0.75368 0.40773 0.0383 0.0
C506 C 0.77108 0.40199 0.03794 0.0
C507 C 0.77518 0.39268 0.07745 0.0
C508 C 0.76226 0.38904 0.11824 0.0
C509 C 0.74521 0.39478 0.11993 0.0
loop_
_geom_bond_atom_site_label_1
_geom_bond_atom_site_label_2
_geom_bond_distance
_geom_bond_site_symmetry_2
_ccdc_geom_bond_type
C0 C1 1.264 . S
C0 C5 1.479 . S
C0 C10 1.465 . S
C1 C0 1.264 . S
C1 C3 1.339 . S
C1 H28 0.931 . S
C2 C3 1.395 . S
C2 C4 1.320 . S
C3 C1 1.339 . S
C3 C2 1.395 . S
C3 H29 0.929 . S
C4 C2 1.320 . S
C4 C5 1.405 . S
C4 H30 0.930 . S
C5 C0 1.479 . S
C5 C4 1.405 . S
C5 H31 0.931 . S
U6 O7 2.454 . S
U6 O8 2.458 1_554 S
U6 C9 2.984 . S
U6 C10 2.847 . S
U6 C23 2.882 1_554 S
U6 O24 2.441 . S
U6 O25 2.420 . S
U6 O26 2.455 1_554 S
U6 O27 2.449 1_554 S
O7 U6 2.454 . S
O7 C9 1.353 . S
O8 U6 2.458 1_556 S
O8 C9 1.286 1_556 S
C9 U6 2.984 . S
C9 O7 1.353 . S
C9 O8 1.286 1_554 S
C9 C11 1.363 . S
C10 C0 1.465 . S
C10 U6 2.847 . S
C10 O24 1.249 . S
C10 O25 1.202 . S
C11 C9 1.363 . S
C11 C13 1.408 . S
C11 C16 1.342 1_554 S
C12 C13 1.310 . S
C12 C15 1.461 . S
C12 H32 0.932 . S
C13 C11 1.408 . S
C13 C12 1.310 . S
C13 H33 0.930 . S
C14 C15 1.474 1_556 S
C14 C16 1.285 . S
C14 H34 0.929 . S
C15 C12 1.461 . S
C15 C14 1.474 1_554 S
C16 C11 1.342 1_556 S
C16 C14 1.285 . S
C16 H35 0.930 . S
C17 C20 1.424 . S
C17 C22 1.245 . S
C17 C23 1.428 . S
C18 C21 1.260 . S
C18 C22 1.477 . S
C18 H36 0.932 . S
C19 C20 1.384 . S
C19 C21 1.479 . S
C19 H37 0.929 . S
C20 C17 1.424 . S
C20 C19 1.384 . S
C20 H38 0.928 . S
C21 C18 1.260 . S
C21 C19 1.479 . S
C22 C17 1.245 . S
C22 C18 1.477 . S
C22 H39 0.932 . S
C23 U6 2.882 1_556 S
C23 C17 1.428 . S
C23 O26 1.301 . S
C23 O27 1.282 . S
O24 U6 2.441 . S
O24 C10 1.249 . S
O25 U6 2.420 . S
O25 C10 1.202 . S
O26 U6 2.455 1_556 S
O26 C23 1.301 . S
O27 U6 2.449 1_556 S
O27 C23 1.282 . S
H28 C1 0.931 . S
H29 C3 0.929 . S
H30 C4 0.930 . S
H31 C5 0.931 . S
H32 C12 0.932 . S
H33 C13 0.930 . S
H34 C14 0.929 . S
H35 C16 0.930 . S
H36 C18 0.932 . S
H37 C19 0.929 . S
H38 C20 0.928 . S
H39 C22 0.932 . S
C40 C41 1.264 . S
C40 C45 1.479 . S
C40 C50 1.465 . S
C41 C40 1.264 . S
C41 C43 1.339 . S
C41 H68 0.931 . S
C42 C43 1.395 . S
C42 C44 1.320 . S
C43 C41 1.339 . S
C43 C42 1.395 . S
C43 H69 0.929 . S
C44 C42 1.320 . S
C44 C45 1.405 . S
C44 H70 0.930 . S
C45 C40 1.479 . S
C45 C44 1.405 . S
C45 H71 0.931 . S
U46 O47 2.454 . S
U46 O48 2.458 . S
U46 C49 2.984 . S
U46 C50 2.847 . S
U46 C63 2.882 . S
U46 O64 2.441 . S
U46 O65 2.420 . S
U46 O66 2.455 . S
U46 O67 2.449 . S
O47 U46 2.454 . S
O47 C49 1.353 . S
O48 U46 2.458 . S
O48 C49 1.286 . S
C49 U46 2.984 . S
C49 O47 1.353 . S
C49 O48 1.286 . S
C49 C51 1.363 . S
C50 C40 1.465 . S
C50 U46 2.847 . S
C50 O64 1.249 . S
C50 O65 1.202 . S
C51 C49 1.363 . S
C51 C53 1.408 . S
C51 C56 1.342 . S
C52 C53 1.310 . S
C52 C55 1.461 . S
C52 H72 0.932 . S
C53 C51 1.408 . S
C53 C52 1.310 . S
C53 H73 0.930 . S
C54 C55 1.474 . S
C54 C56 1.285 . S
C54 H74 0.929 . S
C55 C52 1.461 . S
C55 C54 1.474 . S
C56 C51 1.342 . S
C56 C54 1.285 . S
C56 H75 0.930 . S
C57 C60 1.424 . S
C57 C62 1.245 . S
C57 C63 1.428 . S
C58 C61 1.260 . S
C58 C62 1.477 . S
C58 H76 0.932 . S
C59 C60 1.384 . S
C59 C61 1.479 . S
C59 H77 0.929 . S
C60 C57 1.424 . S
C60 C59 1.384 . S
C60 H78 0.928 . S
C61 C58 1.260 . S
C61 C59 1.479 . S
C62 C57 1.245 . S
C62 C58 1.477 . S
C62 H79 0.932 . S
C63 U46 2.882 . S
C63 C57 1.428 . S
C63 O66 1.301 . S
C63 O67 1.282 . S
O64 U46 2.441 . S
O64 C50 1.249 . S
O65 U46 2.420 . S
O65 C50 1.202 . S
O66 U46 2.455 . S
O66 C63 1.301 . S
O67 U46 2.449 . S
O67 C63 1.282 . S
H68 C41 0.931 . S
H69 C43 0.929 . S
H70 C44 0.930 . S
H71 C45 0.931 . S
H72 C52 0.932 . S
H73 C53 0.930 . S
H74 C54 0.929 . S
H75 C56 0.930 . S
H76 C58 0.932 . S
H77 C59 0.929 . S
H78 C60 0.928 . S
H79 C62 0.932 . S
C80 C81 1.264 . S
C80 C85 1.479 . S
C80 C90 1.465 . S
C81 C80 1.264 . S
C81 C83 1.339 . S
C81 H108 0.931 . S
C82 C83 1.395 . S
C82 C84 1.320 . S
C83 C81 1.339 . S
C83 C82 1.395 . S
C83 H109 0.929 . S
C84 C82 1.320 . S
C84 C85 1.405 . S
C84 H110 0.930 . S
C85 C80 1.479 . S
C85 C84 1.405 . S
C85 H111 0.931 . S
U86 O87 2.454 . S
U86 O88 2.458 . S
U86 C89 2.984 . S
U86 C90 2.847 . S
U86 C103 2.882 . S
U86 O104 2.441 . S
U86 O105 2.420 . S
U86 O106 2.455 . S
U86 O107 2.449 . S
O87 U86 2.454 . S
O87 C89 1.353 . S
O88 U86 2.458 . S
O88 C89 1.286 . S
C89 U86 2.984 . S
C89 O87 1.353 . S
C89 O88 1.286 . S
C89 C91 1.363 . S
C90 C80 1.465 . S
C90 U86 2.847 . S
C90 O104 1.249 . S
C90 O105 1.202 . S
C91 C89 1.363 . S
C91 C93 1.408 . S
C91 C96 1.342 . S
C92 C93 1.310 . S
C92 C95 1.461 . S
C92 H112 0.932 . S
C93 C91 1.408 . S
C93 C92 1.310 . S
C93 H113 0.930 . S
C94 C95 1.474 . S
C94 C96 1.285 . S
C94 H114 0.929 . S
C95 C92 1.461 . S
C95 C94 1.474 . S
C96 C91 1.342 . S
C96 C94 1.285 . S
C96 H115 0.930 . S
C97 C100 1.424 . S
C97 C102 1.245 . S
C97 C103 1.428 . S
C98 C101 1.260 . S
C98 C102 1.477 . S
C98 H116 0.932 . S
C99 C100 1.384 . S
C99 C101 1.479 . S
C99 H117 0.929 . S
C100 C97 1.424 . S
C100 C99 1.384 . S
C100 H118 0.928 . S
C101 C98 1.260 . S
C101 C99 1.479 . S
C102 C97 1.245 . S
C102 C98 1.477 . S
C102 H119 0.932 . S
C103 U86 2.882 . S
C103 C97 1.428 . S
C103 O106 1.301 . S
C103 O107 1.282 . S
O104 U86 2.441 . S
O104 C90 1.249 . S
O105 U86 2.420 . S
O105 C90 1.202 . S
O106 U86 2.455 . S
O106 C103 1.301 . S
O107 U86 2.449 . S
O107 C103 1.282 . S
H108 C81 0.931 . S
H109 C83 0.929 . S
H110 C84 0.930 . S
H111 C85 0.931 . S
H112 C92 0.932 . S
H113 C93 0.930 . S
H114 C94 0.929 . S
H115 C96 0.930 . S
H116 C98 0.932 . S
H117 C99 0.929 . S
H118 C100 0.928 . S
H119 C102 0.932 . S
C120 C121 1.264 . S
C120 C125 1.479 . S
C120 C130 1.465 . S
C121 C120 1.264 . S
C121 C123 1.339 . S
C121 H148 0.931 . S
C122 C123 1.395 . S
C122 C124 1.320 . S
C123 C121 1.339 . S
C123 C122 1.395 . S
C123 H149 0.929 . S
C124 C122 1.320 . S
C124 C125 1.405 . S
C124 H150 0.930 . S
C125 C120 1.479 . S
C125 C124 1.405 . S
C125 H151 0.931 . S
U126 O127 2.454 1_554 S
U126 O128 2.458 . S
U126 C129 2.984 . S
U126 C130 2.847 1_554 S
U126 C143 2.882 . S
U126 O144 2.441 1_554 S
U126 O145 2.420 1_554 S
U126 O146 2.455 . S
U126 O147 2.449 . S
O127 U126 2.454 1_556 S
O127 C129 1.353 1_556 S
O128 U126 2.458 . S
O128 C129 1.286 . S
C129 U126 2.984 . S
C129 O127 1.353 1_554 S
C129 O128 1.286 . S
C129 C131 1.363 . S
C130 C120 1.465 . S
C130 U126 2.847 1_556 S
C130 O144 1.249 . S
C130 O145 1.202 . S
C131 C129 1.363 . S
C131 C133 1.408 1_554 S
C131 C136 1.342 . S
C132 C133 1.310 . S
C132 C135 1.461 1_556 S
C132 H152 0.932 . S
C133 C131 1.408 1_556 S
C133 C132 1.310 . S
C133 H153 0.930 . S
C134 C135 1.474 . S
C134 C136 1.285 . S
C134 H154 0.929 . S
C135 C132 1.461 1_554 S
C135 C134 1.474 . S
C136 C131 1.342 . S
C136 C134 1.285 . S
C136 H155 0.930 . S
C137 C140 1.424 . S
C137 C142 1.245 . S
C137 C143 1.428 . S
C138 C141 1.260 . S
C138 C142 1.477 . S
C138 H156 0.932 . S
C139 C140 1.384 . S
C139 C141 1.479 . S
C139 H157 0.929 . S
C140 C137 1.424 . S
C140 C139 1.384 . S
C140 H158 0.928 . S
C141 C138 1.260 . S
C141 C139 1.479 . S
C142 C137 1.245 . S
C142 C138 1.477 . S
C142 H159 0.932 . S
C143 U126 2.882 . S
C143 C137 1.428 . S
C143 O146 1.301 . S
C143 O147 1.282 . S
O144 U126 2.441 1_556 S
O144 C130 1.249 . S
O145 U126 2.420 1_556 S
O145 C130 1.202 . S
O146 U126 2.455 . S
O146 C143 1.301 . S
O147 U126 2.449 . S
O147 C143 1.282 . S
H148 C121 0.931 . S
H149 C123 0.929 . S
H150 C124 0.930 . S
H151 C125 0.931 . S
H152 C132 0.932 . S
H153 C133 0.930 . S
H154 C134 0.929 . S
H155 C136 0.930 . S
H156 C138 0.932 . S
H157 C139 0.929 . S
H158 C140 0.928 . S
H159 C142 0.932 . S
C160 C161 1.264 . S
C160 C165 1.479 . S
C160 C170 1.465 . S
C161 C160 1.264 . S
C161 C163 1.339 . S
C161 H188 0.931 . S
C162 C163 1.395 . S
C162 C164 1.320 . S
C163 C161 1.339 . S
C163 C162 1.395 . S
C163 H189 0.929 . S
C164 C162 1.320 . S
C164 C165 1.405 . S
C164 H190 0.930 . S
C165 C160 1.479 . S
C165 C164 1.405 . S
C165 H191 0.931 . S
U166 O167 2.454 . S
U166 O168 2.458 . S
U166 C169 2.984 . S
U166 C170 2.847 . S
U166 C183 2.882 . S
U166 O184 2.441 . S
U166 O185 2.420 . S
U166 O186 2.455 . S
U166 O187 2.449 . S
O167 U166 2.454 . S
O167 C169 1.353 . S
O168 U166 2.458 . S
O168 C169 1.286 . S
C169 U166 2.984 . S
C169 O167 1.353 . S
C169 O168 1.286 . S
C169 C171 1.363 . S
C170 C160 1.465 . S
C170 U166 2.847 . S
C170 O184 1.249 . S
C170 O185 1.202 . S
C171 C169 1.363 . S
C171 C173 1.408 . S
C171 C176 1.342 . S
C172 C173 1.310 . S
C172 C175 1.461 . S
C172 H192 0.932 . S
C173 C171 1.408 . S
C173 C172 1.310 . S
C173 H193 0.930 . S
C174 C175 1.474 . S
C174 C176 1.285 . S
C174 H194 0.929 . S
C175 C172 1.461 . S
C175 C174 1.474 . S
C176 C171 1.342 . S
C176 C174 1.285 . S
C176 H195 0.930 . S
C177 C180 1.424 . S
C177 C182 1.245 . S
C177 C183 1.428 . S
C178 C181 1.260 . S
C178 C182 1.477 . S
C178 H196 0.932 . S
C179 C180 1.384 . S
C179 C181 1.479 . S
C179 H197 0.929 . S
C180 C177 1.424 . S
C180 C179 1.384 . S
C180 H198 0.928 . S
C181 C178 1.260 . S
C181 C179 1.479 . S
C182 C177 1.245 . S
C182 C178 1.477 . S
C182 H199 0.932 . S
C183 U166 2.882 . S
C183 C177 1.428 . S
C183 O186 1.301 . S
C183 O187 1.282 . S
O184 U166 2.441 . S
O184 C170 1.249 . S
O185 U166 2.420 . S
O185 C170 1.202 . S
O186 U166 2.455 . S
O186 C183 1.301 . S
O187 U166 2.449 . S
O187 C183 1.282 . S
H188 C161 0.931 . S
H189 C163 0.929 . S
H190 C164 0.930 . S
H191 C165 0.931 . S
H192 C172 0.932 . S
H193 C173 0.930 . S
H194 C174 0.929 . S
H195 C176 0.930 . S
H196 C178 0.932 . S
H197 C179 0.929 . S
H198 C180 0.928 . S
H199 C182 0.932 . S
C200 C201 1.264 . S
C200 C205 1.479 . S
C200 C210 1.465 . S
C201 C200 1.264 . S
C201 C203 1.339 . S
C201 H228 0.931 . S
C202 C203 1.395 . S
C202 C204 1.320 . S
C203 C201 1.339 . S
C203 C202 1.395 . S
C203 H229 0.929 . S
C204 C202 1.320 . S
C204 C205 1.405 . S
C204 H230 0.930 . S
C205 C200 1.479 . S
C205 C204 1.405 . S
C205 H231 0.931 . S
U206 O207 2.454 . S
U206 O208 2.458 . S
U206 C209 2.984 . S
U206 C210 2.847 . S
U206 C223 2.882 . S
U206 O224 2.441 . S
U206 O225 2.420 . S
U206 O226 2.455 . S
U206 O227 2.449 . S
O207 U206 2.454 . S
O207 C209 1.353 . S
O208 U206 2.458 . S
O208 C209 1.286 . S
C209 U206 2.984 . S
C209 O207 1.353 . S
C209 O208 1.286 . S
C209 C211 1.363 . S
C210 C200 1.465 . S
C210 U206 2.847 . S
C210 O224 1.249 . S
C210 O225 1.202 . S
C211 C209 1.363 . S
C211 C213 1.408 . S
C211 C216 1.342 . S
C212 C213 1.310 . S
C212 C215 1.461 . S
C212 H232 0.932 . S
C213 C211 1.408 . S
C213 C212 1.310 . S
C213 H233 0.930 . S
C214 C215 1.474 . S
C214 C216 1.285 . S
C214 H234 0.929 . S
C215 C212 1.461 . S
C215 C214 1.474 . S
C216 C211 1.342 . S
C216 C214 1.285 . S
C216 H235 0.930 . S
C217 C220 1.424 . S
C217 C222 1.245 . S
C217 C223 1.428 . S
C218 C221 1.260 . S
C218 C222 1.477 . S
C218 H236 0.932 . S
C219 C220 1.384 . S
C219 C221 1.479 . S
C219 H237 0.929 . S
C220 C217 1.424 . S
C220 C219 1.384 . S
C220 H238 0.928 . S
C221 C218 1.260 . S
C221 C219 1.479 . S
C222 C217 1.245 . S
C222 C218 1.477 . S
C222 H239 0.932 . S
C223 U206 2.882 . S
C223 C217 1.428 . S
C223 O226 1.301 . S
C223 O227 1.282 . S
O224 U206 2.441 . S
O224 C210 1.249 . S
O225 U206 2.420 . S
O225 C210 1.202 . S
O226 U206 2.455 . S
O226 C223 1.301 . S
O227 U206 2.449 . S
O227 C223 1.282 . S
H228 C201 0.931 . S
H229 C203 0.929 . S
H230 C204 0.930 . S
H231 C205 0.931 . S
H232 C212 0.932 . S
H233 C213 0.930 . S
H234 C214 0.929 . S
H235 C216 0.930 . S
H236 C218 0.932 . S
H237 C219 0.929 . S
H238 C220 0.928 . S
H239 C222 0.932 . S
H240 C241 0.951 . S
C241 H240 0.951 . S
C241 C247 1.265 . S
H242 C247 0.950 . S
H243 C251 0.949 . S
H244 C252 0.950 . S
H245 C253 0.951 . S
H246 C254 0.951 . S
C247 C241 1.265 . S
C247 H242 0.950 . S
C247 C248 1.478 . S
C248 C247 1.478 . S
C248 C249 1.397 1_554 S
C248 C265 1.394 . S
C249 C248 1.397 1_556 S
C249 C250 1.438 1_565 S
C249 C254 1.429 . S
C250 C249 1.438 1_545 S
C250 C251 1.428 . S
C250 C263 1.394 1_556 S
C251 H243 0.949 . S
C251 C250 1.428 . S
C251 C252 1.345 . S
C252 H244 0.950 . S
C252 C251 1.345 . S
C252 C253 1.424 1_545 S
C253 H245 0.951 . S
C253 C252 1.424 1_565 S
C253 C254 1.347 . S
C254 H246 0.951 . S
C254 C249 1.429 . S
C254 C253 1.347 . S
H255 C256 0.951 . S
C256 H255 0.951 . S
C256 C262 1.265 . S
H257 C262 0.950 . S
H258 C266 0.949 . S
H259 C267 0.950 . S
H260 C268 0.951 . S
H261 C269 0.951 . S
C262 C256 1.265 . S
C262 H257 0.950 . S
C262 C263 1.478 . S
C263 C250 1.394 1_554 S
C263 C262 1.478 . S
C263 C264 1.397 . S
C264 C263 1.397 . S
C264 C265 1.438 1_545 S
C264 C269 1.429 . S
C265 C248 1.394 . S
C265 C264 1.438 1_565 S
C265 C266 1.428 . S
C266 H258 0.949 . S
C266 C265 1.428 . S
C266 C267 1.345 . S
C267 H259 0.950 . S
C267 C266 1.345 . S
C267 C268 1.424 1_565 S
C268 H260 0.951 . S
C268 C267 1.424 1_545 S
C268 C269 1.347 . S
C269 H261 0.951 . S
C269 C264 1.429 . S
C269 C268 1.347 . S
H270 C271 0.951 . S
C271 H270 0.951 . S
C271 C277 1.265 . S
H272 C277 0.950 . S
H273 C281 0.949 . S
H274 C282 0.950 . S
H275 C283 0.951 . S
H276 C284 0.951 . S
C277 C271 1.265 . S
C277 H272 0.950 . S
C277 C278 1.478 . S
C278 C277 1.478 . S
C278 C279 1.397 . S
C278 C295 1.394 . S
C279 C278 1.397 . S
C279 C280 1.438 . S
C279 C284 1.429 . S
C280 C279 1.438 . S
C280 C281 1.428 . S
C280 C293 1.394 . S
C281 H273 0.949 . S
C281 C280 1.428 . S
C281 C282 1.345 . S
C282 H274 0.950 . S
C282 C281 1.345 . S
C282 C283 1.424 . S
C283 H275 0.951 . S
C283 C282 1.424 . S
C283 C284 1.347 . S
C284 H276 0.951 . S
C284 C279 1.429 . S
C284 C283 1.347 . S
H285 C286 0.951 . S
C286 H285 0.951 . S
C286 C292 1.265 . S
H287 C292 0.950 . S
H288 C296 0.949 . S
H289 C297 0.950 . S
H290 C298 0.951 . S
H291 C299 0.951 . S
C292 C286 1.265 . S
C292 H287 0.950 . S
C292 C293 1.478 . S
C293 C280 1.394 . S
C293 C292 1.478 . S
C293 C294 1.397 . S
C294 C293 1.397 . S
C294 C295 1.438 . S
C294 C299 1.429 . S
C295 C278 1.394 . S
C295 C294 1.438 . S
C295 C296 1.428 . S
C296 H288 0.949 . S
C296 C295 1.428 . S
C296 C297 1.345 . S
C297 H289 0.950 . S
C297 C296 1.345 . S
C297 C298 1.424 . S
C298 H290 0.951 . S
C298 C297 1.424 . S
C298 C299 1.347 . S
C299 H291 0.951 . S
C299 C294 1.429 . S
C299 C298 1.347 . S
H300 C301 0.951 . S
C301 H300 0.951 . S
C301 C307 1.265 . S
H302 C307 0.950 . S
H303 C311 0.949 . S
H304 C312 0.950 . S
H305 C313 0.951 . S
H306 C314 0.951 . S
C307 C301 1.265 . S
C307 H302 0.950 . S
C307 C308 1.478 . S
C308 C307 1.478 . S
C308 C309 1.397 . S
C308 C325 1.394 . S
C309 C308 1.397 . S
C309 C310 1.438 1_455 S
C309 C314 1.429 . S
C310 C309 1.438 1_655 S
C310 C311 1.428 . S
C310 C323 1.394 . S
C311 H303 0.949 . S
C311 C310 1.428 . S
C311 C312 1.345 . S
C312 H304 0.950 . S
C312 C311 1.345 . S
C312 C313 1.424 1_655 S
C313 H305 0.951 . S
C313 C312 1.424 1_455 S
C313 C314 1.347 . S
C314 H306 0.951 . S
C314 C309 1.429 . S
C314 C313 1.347 . S
H315 C316 0.951 . S
C316 H315 0.951 . S
C316 C322 1.265 . S
H317 C322 0.950 . S
H318 C326 0.949 . S
H319 C327 0.950 . S
H320 C328 0.951 . S
H321 C329 0.951 . S
C322 C316 1.265 . S
C322 H317 0.950 . S
C322 C323 1.478 . S
C323 C310 1.394 . S
C323 C322 1.478 . S
C323 C324 1.397 . S
C324 C323 1.397 . S
C324 C325 1.438 1_655 S
C324 C329 1.429 . S
C325 C308 1.394 . S
C325 C324 1.438 1_455 S
C325 C326 1.428 . S
C326 H318 0.949 . S
C326 C325 1.428 . S
C326 C327 1.345 . S
C327 H319 0.950 . S
C327 C326 1.345 . S
C327 C328 1.424 1_455 S
C328 H320 0.951 . S
C328 C327 1.424 1_655 S
C328 C329 1.347 . S
C329 H321 0.951 . S
C329 C324 1.429 . S
C329 C328 1.347 . S
H330 C331 0.951 . S
C331 H330 0.951 . S
C331 C337 1.265 . S
H332 C337 0.950 . S
H333 C341 0.949 . S
H334 C342 0.950 . S
H335 C343 0.951 . S
H336 C344 0.951 . S
C337 C331 1.265 . S
C337 H332 0.950 . S
C337 C338 1.478 . S
C338 C337 1.478 . S
C338 C339 1.397 . S
C338 C355 1.394 . S
C339 C338 1.397 . S
C339 C340 1.438 . S
C339 C344 1.429 . S
C340 C339 1.438 . S
C340 C341 1.428 . S
C340 C353 1.394 . S
C341 H333 0.949 . S
C341 C340 1.428 . S
C341 C342 1.345 . S
C342 H334 0.950 . S
C342 C341 1.345 . S
C342 C343 1.424 . S
C343 H335 0.951 . S
C343 C342 1.424 . S
C343 C344 1.347 . S
C344 H336 0.951 . S
C344 C339 1.429 . S
C344 C343 1.347 . S
H345 C346 0.951 . S
C346 H345 0.951 . S
C346 C352 1.265 . S
H347 C352 0.950 . S
H348 C356 0.949 . S
H349 C357 0.950 . S
H350 C358 0.951 . S
H351 C359 0.951 . S
C352 C346 1.265 . S
C352 H347 0.950 . S
C352 C353 1.478 . S
C353 C340 1.394 . S
C353 C352 1.478 . S
C353 C354 1.397 . S
C354 C353 1.397 . S
C354 C355 1.438 . S
C354 C359 1.429 . S
C355 C338 1.394 . S
C355 C354 1.438 . S
C355 C356 1.428 . S
C356 H348 0.949 . S
C356 C355 1.428 . S
C356 C357 1.345 . S
C357 H349 0.950 . S
C357 C356 1.345 . S
C357 C358 1.424 . S
C358 H350 0.951 . S
C358 C357 1.424 . S
C358 C359 1.347 . S
C359 H351 0.951 . S
C359 C354 1.429 . S
C359 C358 1.347 . S
H360 C361 0.951 . S
C361 H360 0.951 . S
C361 C367 1.265 . S
H362 C367 0.950 . S
H363 C371 0.949 . S
H364 C372 0.950 . S
H365 C373 0.951 . S
H366 C374 0.951 . S
C367 C361 1.265 . S
C367 H362 0.950 . S
C367 C368 1.478 . S
C368 C367 1.478 . S
C368 C369 1.397 . S
C368 C385 1.394 . S
C369 C368 1.397 . S
C369 C370 1.438 . S
C369 C374 1.429 . S
C370 C369 1.438 . S
C370 C371 1.428 . S
C370 C383 1.394 . S
C371 H363 0.949 . S
C371 C370 1.428 . S
C371 C372 1.345 . S
C372 H364 0.950 . S
C372 C371 1.345 . S
C372 C373 1.424 . S
C373 H365 0.951 . S
C373 C372 1.424 . S
C373 C374 1.347 . S
C374 H366 0.951 . S
C374 C369 1.429 . S
C374 C373 1.347 . S
H375 C376 0.951 . S
C376 H375 0.951 . S
C376 C382 1.265 . S
H377 C382 0.950 . S
H378 C386 0.949 . S
H379 C387 0.950 . S
H380 C388 0.951 . S
H381 C389 0.951 . S
C382 C376 1.265 . S
C382 H377 0.950 . S
C382 C383 1.478 . S
C383 C370 1.394 . S
C383 C382 1.478 . S
C383 C384 1.397 . S
C384 C383 1.397 . S
C384 C385 1.438 . S
C384 C389 1.429 . S
C385 C368 1.394 . S
C385 C384 1.438 . S
C385 C386 1.428 . S
C386 H378 0.949 . S
C386 C385 1.428 . S
C386 C387 1.345 . S
C387 H379 0.950 . S
C387 C386 1.345 . S
C387 C388 1.424 . S
C388 H380 0.951 . S
C388 C387 1.424 . S
C388 C389 1.347 . S
C389 H381 0.951 . S
C389 C384 1.429 . S
C389 C388 1.347 . S
H390 C391 0.951 . S
C391 H390 0.951 . S
C391 C397 1.265 . S
H392 C397 0.950 . S
H393 C401 0.949 . S
H394 C402 0.950 1_556 S
H395 C403 0.951 . S
H396 C404 0.951 . S
C397 C391 1.265 . S
C397 H392 0.950 . S
C397 C398 1.478 . S
C398 C397 1.478 . S
C398 C399 1.397 . S
C398 C415 1.394 . S
C399 C398 1.397 . S
C399 C400 1.438 1_554 S
C399 C404 1.429 . S
C400 C399 1.438 1_556 S
C400 C401 1.428 . S
C400 C413 1.394 . S
C401 H393 0.949 . S
C401 C400 1.428 . S
C401 C402 1.345 1_556 S
C402 H394 0.950 1_554 S
C402 C401 1.345 1_554 S
C402 C403 1.424 . S
C403 H395 0.951 . S
C403 C402 1.424 . S
C403 C404 1.347 . S
C404 H396 0.951 . S
C404 C399 1.429 . S
C404 C403 1.347 . S
H405 C406 0.951 . S
C406 H405 0.951 . S
C406 C412 1.265 . S
H407 C412 0.950 . S
H408 C416 0.949 . S
H409 C417 0.950 . S
H410 C418 0.951 . S
H411 C419 0.951 . S
C412 C406 1.265 . S
C412 H407 0.950 . S
C412 C413 1.478 . S
C413 C400 1.394 . S
C413 C412 1.478 . S
C413 C414 1.397 . S
C414 C413 1.397 . S
C414 C415 1.438 1_556 S
C414 C419 1.429 . S
C415 C398 1.394 . S
C415 C414 1.438 1_554 S
C415 C416 1.428 . S
C416 H408 0.949 . S
C416 C415 1.428 . S
C416 C417 1.345 . S
C417 H409 0.950 . S
C417 C416 1.345 . S
C417 C418 1.424 1_554 S
C418 H410 0.951 . S
C418 C417 1.424 1_556 S
C418 C419 1.347 . S
C419 H411 0.951 . S
C419 C414 1.429 . S
C419 C418 1.347 . S
H420 C421 0.951 . S
C421 H420 0.951 . S
C421 C427 1.265 . S
H422 C427 0.950 . S
H423 C431 0.949 . S
H424 C432 0.950 . S
H425 C433 0.951 . S
H426 C434 0.951 . S
C427 C421 1.265 . S
C427 H422 0.950 . S
C427 C428 1.478 . S
C428 C427 1.478 . S
C428 C429 1.397 . S
C428 C445 1.394 . S
C429 C428 1.397 . S
C429 C430 1.438 . S
C429 C434 1.429 . S
C430 C429 1.438 . S
C430 C431 1.428 . S
C430 C443 1.394 . S
C431 H423 0.949 . S
C431 C430 1.428 . S
C431 C432 1.345 . S
C432 H424 0.950 . S
C432 C431 1.345 . S
C432 C433 1.424 . S
C433 H425 0.951 . S
C433 C432 1.424 . S
C433 C434 1.347 . S
C434 H426 0.951 . S
C434 C429 1.429 . S
C434 C433 1.347 . S
H435 C436 0.951 . S
C436 H435 0.951 . S
C436 C442 1.265 . S
H437 C442 0.950 . S
H438 C446 0.949 . S
H439 C447 0.950 . S
H440 C448 0.951 . S
H441 C449 0.951 . S
C442 C436 1.265 . S
C442 H437 0.950 . S
C442 C443 1.478 . S
C443 C430 1.394 . S
C443 C442 1.478 . S
C443 C444 1.397 . S
C444 C443 1.397 . S
C444 C445 1.438 . S
C444 C449 1.429 . S
C445 C428 1.394 . S
C445 C444 1.438 . S
C445 C446 1.428 . S
C446 H438 0.949 . S
C446 C445 1.428 . S
C446 C447 1.345 . S
C447 H439 0.950 . S
C447 C446 1.345 . S
C447 C448 1.424 . S
C448 H440 0.951 . S
C448 C447 1.424 . S
C448 C449 1.347 . S
C449 H441 0.951 . S
C449 C444 1.429 . S
C449 C448 1.347 . S
H450 C451 0.951 . S
C451 H450 0.951 . S
C451 C457 1.265 . S
H452 C457 0.950 . S
H453 C461 0.949 . S
H454 C462 0.950 . S
H455 C463 0.951 . S
H456 C464 0.951 . S
C457 C451 1.265 . S
C457 H452 0.950 . S
C457 C458 1.478 . S
C458 C457 1.478 . S
C458 C459 1.397 . S
C458 C475 1.394 . S
C459 C458 1.397 . S
C459 C460 1.438 . S
C459 C464 1.429 . S
C460 C459 1.438 . S
C460 C461 1.428 . S
C460 C473 1.394 . S
C461 H453 0.949 . S
C461 C460 1.428 . S
C461 C462 1.345 . S
C462 H454 0.950 . S
C462 C461 1.345 . S
C462 C463 1.424 . S
C463 H455 0.951 . S
C463 C462 1.424 . S
C463 C464 1.347 . S
C464 H456 0.951 . S
C464 C459 1.429 . S
C464 C463 1.347 . S
H465 C466 0.951 . S
C466 H465 0.951 . S
C466 C472 1.265 . S
H467 C472 0.950 . S
H468 C476 0.949 . S
H469 C477 0.950 . S
H470 C478 0.951 . S
H471 C479 0.951 . S
C472 C466 1.265 . S
C472 H467 0.950 . S
C472 C473 1.478 . S
C473 C460 1.394 . S
C473 C472 1.478 . S
C473 C474 1.397 . S
C474 C473 1.397 . S
C474 C475 1.438 . S
C474 C479 1.429 . S
C475 C458 1.394 . S
C475 C474 1.438 . S
C475 C476 1.428 . S
C476 H468 0.949 . S
C476 C475 1.428 . S
C476 C477 1.345 . S
C477 H469 0.950 . S
C477 C476 1.345 . S
C477 C478 1.424 . S
C478 H470 0.951 . S
C478 C477 1.424 . S
C478 C479 1.347 . S
C479 H471 0.951 . S
C479 C474 1.429 . S
C479 C478 1.347 . S
H480 C481 0.951 . S
C481 H480 0.951 . S
C481 C487 1.265 . S
H482 C487 0.950 . S
H483 C491 0.949 . S
H484 C492 0.950 . S
H485 C493 0.951 . S
H486 C494 0.951 . S
C487 C481 1.265 . S
C487 H482 0.950 . S
C487 C488 1.478 . S
C488 C487 1.478 . S
C488 C489 1.397 . S
C488 C505 1.395 . S
C489 C488 1.397 . S
C489 C490 1.438 1_556 S
C489 C494 1.429 . S
C490 C489 1.438 1_554 S
C490 C491 1.428 . S
C490 C503 1.394 . S
C491 H483 0.949 . S
C491 C490 1.428 . S
C491 C492 1.345 . S
C492 H484 0.950 . S
C492 C491 1.345 . S
C492 C493 1.424 1_554 S
C493 H485 0.951 . S
C493 C492 1.424 1_556 S
C493 C494 1.347 . S
C494 H486 0.951 . S
C494 C489 1.429 . S
C494 C493 1.347 . S
H495 C496 0.951 . S
C496 H495 0.951 . S
C496 C502 1.265 . S
H497 C502 0.950 . S
H498 C506 0.949 . S
H499 C507 0.950 1_556 S
H500 C508 0.951 . S
H501 C509 0.951 . S
C502 C496 1.265 . S
C502 H497 0.950 . S
C502 C503 1.478 . S
C503 C490 1.394 . S
C503 C502 1.478 . S
C503 C504 1.397 . S
C504 C503 1.397 . S
C504 C505 1.436 1_554 S
C504 C509 1.429 . S
C505 C488 1.395 . S
C505 C504 1.436 1_556 S
C505 C506 1.428 . S
C506 H498 0.949 . S
C506 C505 1.428 . S
C506 C507 1.345 1_556 S
C507 H499 0.950 1_554 S
C507 C506 1.345 1_554 S
C507 C508 1.424 . S
C508 H500 0.951 . S
C508 C507 1.424 . S
C508 C509 1.347 . S
C509 H501 0.951 . S
C509 C504 1.429 . S
C509 C508 1.347 . S
C241 C15 1.488 . S
C256 C135 1.491 . S
C271 C175 1.492 . S
C286 C55 1.488 . S
C301 C95 1.497 . S
C316 C215 1.497 . S
C331 C2 1.501 . S
C346 C82 1.459 . S
C361 C42 1.496 . S
C376 C122 1.462 . S
C391 C162 1.482 . S
C406 C101 1.473 . S
C421 C202 1.502 . S
C436 C141 1.502 . S
C451 C181 1.462 . S
C466 C21 1.500 . S
C481 C221 1.481 . S
C496 C61 1.500 . S
