# Generated by pormake.
# Topology wjx, (5)-cn, num edge types: 1
# Building blocks:
#     Node 0, Type 0, BuildingBlock: XOMCOT_clean_sbu_1, # of connection points: 5
#     Node 1, Type 0, BuildingBlock: XOMCOT_clean_sbu_1, # of connection points: 5
#     Node 2, Type 0, BuildingBlock: XOMCOT_clean_sbu_1, # of connection points: 5
#     Node 3, Type 0, BuildingBlock: XOMCOT_clean_sbu_1, # of connection points: 5
#     Node 4, Type 0, BuildingBlock: XOMCOT_clean_sbu_1, # of connection points: 5
#     Node 5, Type 0, BuildingBlock: XOMCOT_clean_sbu_1, # of connection points: 5
#     Node 6, Type 0, BuildingBlock: XOMCOT_clean_sbu_1, # of connection points: 5
#     Node 7, Type 0, BuildingBlock: XOMCOT_clean_sbu_1, # of connection points: 5
#     Node 8, Type 0, BuildingBlock: XOMCOT_clean_sbu_1, # of connection points: 5
#     Node 9, Type 0, BuildingBlock: XOMCOT_clean_sbu_1, # of connection points: 5
#     Node 10, Type 0, BuildingBlock: XOMCOT_clean_sbu_1, # of connection points: 5
#     Node 11, Type 0, BuildingBlock: XOMCOT_clean_sbu_1, # of connection points: 5
#     Edge 12, Type (0, 0), BuildingBlock: ZUJKAS_clean_linker_0, # of connection points: 2
#     Edge 13, Type (0, 0), BuildingBlock: ZUJKAS_clean_linker_0, # of connection points: 2
#     Edge 14, Type (0, 0), BuildingBlock: ZUJKAS_clean_linker_0, # of connection points: 2
#     Edge 15, Type (0, 0), BuildingBlock: ZUJKAS_clean_linker_0, # of connection points: 2
#     Edge 16, Type (0, 0), BuildingBlock: ZUJKAS_clean_linker_0, # of connection points: 2
#     Edge 17, Type (0, 0), BuildingBlock: ZUJKAS_clean_linker_0, # of connection points: 2
#     Edge 18, Type (0, 0), BuildingBlock: ZUJKAS_clean_linker_0, # of connection points: 2
#     Edge 19, Type (0, 0), BuildingBlock: ZUJKAS_clean_linker_0, # of connection points: 2
#     Edge 20, Type (0, 0), BuildingBlock: ZUJKAS_clean_linker_0, # of connection points: 2
#     Edge 21, Type (0, 0), BuildingBlock: ZUJKAS_clean_linker_0, # of connection points: 2
#     Edge 22, Type (0, 0), BuildingBlock: ZUJKAS_clean_linker_0, # of connection points: 2
#     Edge 23, Type (0, 0), BuildingBlock: ZUJKAS_clean_linker_0, # of connection points: 2
#     Edge 24, Type (0, 0), BuildingBlock: ZUJKAS_clean_linker_0, # of connection points: 2
#     Edge 25, Type (0, 0), BuildingBlock: ZUJKAS_clean_linker_0, # of connection points: 2
#     Edge 26, Type (0, 0), BuildingBlock: ZUJKAS_clean_linker_0, # of connection points: 2
#     Edge 27, Type (0, 0), BuildingBlock: ZUJKAS_clean_linker_0, # of connection points: 2
#     Edge 28, Type (0, 0), BuildingBlock: ZUJKAS_clean_linker_0, # of connection points: 2
#     Edge 29, Type (0, 0), BuildingBlock: ZUJKAS_clean_linker_0, # of connection points: 2
#     Edge 30, Type (0, 0), BuildingBlock: ZUJKAS_clean_linker_0, # of connection points: 2
#     Edge 31, Type (0, 0), BuildingBlock: ZUJKAS_clean_linker_0, # of connection points: 2
#     Edge 32, Type (0, 0), BuildingBlock: ZUJKAS_clean_linker_0, # of connection points: 2
#     Edge 33, Type (0, 0), BuildingBlock: ZUJKAS_clean_linker_0, # of connection points: 2
#     Edge 34, Type (0, 0), BuildingBlock: ZUJKAS_clean_linker_0, # of connection points: 2
#     Edge 35, Type (0, 0), BuildingBlock: ZUJKAS_clean_linker_0, # of connection points: 2
#     Edge 36, Type (0, 0), BuildingBlock: ZUJKAS_clean_linker_0, # of connection points: 2
#     Edge 37, Type (0, 0), BuildingBlock: ZUJKAS_clean_linker_0, # of connection points: 2
#     Edge 38, Type (0, 0), BuildingBlock: ZUJKAS_clean_linker_0, # of connection points: 2
#     Edge 39, Type (0, 0), BuildingBlock: ZUJKAS_clean_linker_0, # of connection points: 2
#     Edge 40, Type (0, 0), BuildingBlock: ZUJKAS_clean_linker_0, # of connection points: 2
#     Edge 41, Type (0, 0), BuildingBlock: ZUJKAS_clean_linker_0, # of connection points: 2
# Relax obj value: 0.120
# Max RMSD: 0.108
# Mean RMSD: 0.108
data_MOF--net-wjx--node1-XOMCOT_clean_sbu_1--edge1-ZUJKAS_clean_linker_0
_symmetry_space_group_name_H-M    P1
_symmetry_Int_Tables_number       1
_symmetry_cell_setting            triclinic
loop_
_symmetry_equiv_pos_as_xyz
'x, y, z'
_cell_length_a     92.807906
_cell_length_b     92.892019
_cell_length_c     22.059999
_cell_angle_alpha  90.069424
_cell_angle_beta   89.994083
_cell_angle_gamma 120.02894
loop_
_atom_site_label
_atom_site_type_symbol
_atom_site_fract_x
_atom_site_fract_y
_atom_site_fract_z
_atom_type_partial_charge
C0 C 0.14463 0.45123 0.14888 0.0
C1 C 0.14785 0.45119 0.20964 0.0
N2 N 0.13498 0.43771 0.23526 0.0
N3 N 0.12979 0.43785 0.1356 0.0
C4 C 0.12427 0.42969 0.18906 0.0
H5 H 0.15227 0.46085 0.1168 0.0
Co6 Co 0.12 0.43443 0.05837 0.0
C7 C 0.08439 0.41458 0.10436 0.0
O8 O 0.08183 0.42717 0.09921 0.0
N9 N 0.11058 0.43094 0.97883 0.0
C10 C 0.09382 0.42718 0.90052 0.0
C11 C 0.09532 0.42807 0.96248 0.0
C12 C 0.11808 0.43172 0.92502 0.0
N13 N 0.10816 0.4295 0.87676 0.0
O14 O 0.12754 0.4189 0.04121 0.0
H15 H 0.08588 0.42724 0.99271 0.0
H16 H 0.13079 0.43444 0.92081 0.0
O17 O 0.09842 0.41597 0.08962 0.0
C18 C 0.14253 0.42699 0.02216 0.0
O19 O 0.14936 0.44317 0.01549 0.0
N20 N 0.11466 0.45145 0.07486 0.0
C21 C 0.11279 0.48011 0.09942 0.0
C22 C 0.10901 0.46808 0.14424 0.0
C23 C 0.1103 0.45405 0.13144 0.0
C24 C 0.11883 0.46333 0.03123 0.0
C25 C 0.11767 0.47755 0.04214 0.0
H26 H 0.1075 0.44515 0.16729 0.0
H27 H 0.12371 0.46219 0.98815 0.0
H28 H 0.11233 0.41851 0.1945 0.0
H29 H 0.15845 0.46089 0.2336 0.0
H30 H 0.08298 0.42508 0.87494 0.0
H31 H 0.10517 0.4695 0.18916 0.0
H32 H 0.12124 0.48679 1.00674 0.0
C33 C 0.69055 0.14173 0.50613 0.0
C34 C 0.69218 0.14441 0.56762 0.0
N35 N 0.69194 0.13124 0.59426 0.0
N36 N 0.68933 0.12696 0.49355 0.0
C37 C 0.69034 0.12088 0.54824 0.0
H38 H 0.68949 0.14969 0.47289 0.0
Co39 Co 0.68397 0.11749 0.41615 0.0
C40 C 0.68951 0.08907 0.42344 0.0
O41 O 0.69944 0.09491 0.37628 0.0
N42 N 0.67826 0.10807 0.33765 0.0
C43 C 0.66467 0.09017 0.26305 0.0
C44 C 0.66586 0.09253 0.32476 0.0
C45 C 0.68442 0.1149 0.28269 0.0
N46 N 0.67636 0.10426 0.23654 0.0
O47 O 0.7074 0.12774 0.39763 0.0
H48 H 0.65803 0.08349 0.35826 0.0
H49 H 0.69432 0.12756 0.27618 0.0
O50 O 0.68311 0.09731 0.44541 0.0
C51 C 0.713 0.14241 0.37703 0.0
O52 O 0.70243 0.14777 0.36906 0.0
N53 N 0.66141 0.10898 0.43416 0.0
C54 C 0.62952 0.10219 0.46597 0.0
C55 C 0.63715 0.09458 0.49689 0.0
C56 C 0.65313 0.09811 0.4802 0.0
C57 C 0.65408 0.11625 0.40291 0.0
C58 C 0.63806 0.11289 0.41762 0.0
H59 H 0.65905 0.09265 0.50609 0.0
H60 H 0.66097 0.12515 0.36764 0.0
H61 H 0.68889 0.10868 0.55468 0.0
H62 H 0.69304 0.15505 0.59104 0.0
H63 H 0.65592 0.07891 0.23954 0.0
H64 H 0.63096 0.08623 0.53443 0.0
H65 H 0.63273 0.11923 0.39318 0.0
C66 C 0.57475 0.70925 0.85728 0.0
C67 C 0.57815 0.71159 0.91815 0.0
N68 N 0.57836 0.69821 0.94027 0.0
N69 N 0.57298 0.6945 0.8401 0.0
C70 C 0.57521 0.68801 0.892 0.0
H71 H 0.573 0.71759 0.82826 0.0
Co72 Co 0.56645 0.6853 0.76185 0.0
C73 C 0.58919 0.67229 0.72649 0.0
O74 O 0.5788 0.66295 0.684 0.0
N75 N 0.55934 0.67631 0.68243 0.0
C76 C 0.5433 0.66148 0.60506 0.0
C77 C 0.54438 0.66326 0.66695 0.0
C78 C 0.56702 0.68236 0.62832 0.0
N79 N 0.55753 0.67352 0.58055 0.0
O80 O 0.57994 0.70725 0.72726 0.0
H81 H 0.53456 0.65555 0.6981 0.0
H82 H 0.57925 0.69323 0.62398 0.0
O83 O 0.58556 0.68135 0.75989 0.0
C84 C 0.57107 0.71325 0.70783 0.0
O85 O 0.55478 0.70383 0.71021 0.0
N86 N 0.55206 0.66442 0.79715 0.0
C87 C 0.526 0.63481 0.84375 0.0
C88 C 0.54118 0.63599 0.82749 0.0
C89 C 0.55411 0.65094 0.80443 0.0
C90 C 0.53773 0.66374 0.81577 0.0
C91 C 0.52453 0.64908 0.83886 0.0
H92 H 0.56553 0.65138 0.79234 0.0
H93 H 0.53638 0.67458 0.81069 0.0
H94 H 0.57411 0.67587 0.89471 0.0
H95 H 0.57945 0.72199 0.94472 0.0
H96 H 0.53276 0.65203 0.5801 0.0
H97 H 0.54291 0.62532 0.83077 0.0
H98 H 0.5132 0.64889 0.85213 0.0
C99 C 0.86118 0.55681 0.16295 0.0
C100 C 0.85914 0.55695 0.22466 0.0
N101 N 0.87428 0.56549 0.25049 0.0
N102 N 0.87754 0.5654 0.1495 0.0
C103 C 0.88522 0.57046 0.20396 0.0
H104 H 0.8513 0.55037 0.13037 0.0
Co105 Co 0.88674 0.56772 0.0721 0.0
C106 C 0.91577 0.60151 0.07606 0.0
O107 O 0.91014 0.60531 0.02758 0.0
N108 N 0.89607 0.56982 0.99417 0.0
C109 C 0.9143 0.57367 0.92147 0.0
C110 C 0.91176 0.57318 0.98296 0.0
C111 C 0.88928 0.56812 0.93838 0.0
N112 N 0.90013 0.57048 0.89322 0.0
O113 O 0.87745 0.58147 0.04864 0.0
H114 H 0.92089 0.57527 0.01743 0.0
H115 H 0.87656 0.56497 0.9307 0.0
O116 O 0.90734 0.58704 0.09925 0.0
C117 C 0.86293 0.57298 0.02575 0.0
O118 O 0.85679 0.5569 0.0186 0.0
N119 N 0.89418 0.55309 0.09441 0.0
C120 C 0.89939 0.52715 0.12933 0.0
C121 C 0.91035 0.54356 0.14806 0.0
C122 C 0.9075 0.5564 0.13026 0.0
C123 C 0.88368 0.53735 0.07461 0.0
C124 C 0.88606 0.52422 0.09132 0.0
H125 H 0.91576 0.56883 0.14669 0.0
H126 H 0.87314 0.53496 0.04655 0.0
H127 H 0.89858 0.57746 0.2096 0.0
H128 H 0.84742 0.55065 0.24879 0.0
H129 H 0.92582 0.57643 0.89952 0.0
H130 H 0.92071 0.54639 0.17785 0.0
H131 H 0.87744 0.51183 0.07489 0.0
C132 C 0.32845 0.86886 0.45472 0.0
C133 C 0.32897 0.86715 0.51633 0.0
N134 N 0.32465 0.87746 0.54343 0.0
N135 N 0.32396 0.88029 0.44275 0.0
C136 C 0.32165 0.88529 0.49759 0.0
H137 H 0.33117 0.86218 0.42064 0.0
Co138 Co 0.32135 0.88634 0.36515 0.0
C139 C 0.33535 0.92254 0.36823 0.0
O140 O 0.34269 0.9229 0.31682 0.0
N141 N 0.31797 0.89194 0.28615 0.0
C142 C 0.30703 0.90048 0.21459 0.0
C143 C 0.30842 0.89888 0.27569 0.0
C144 C 0.32189 0.88905 0.22997 0.0
N145 N 0.31546 0.89423 0.18562 0.0
O146 O 0.29786 0.87694 0.37963 0.0
H147 H 0.30264 0.90246 0.31061 0.0
H148 H 0.32872 0.88272 0.22111 0.0
O149 O 0.32611 0.90855 0.39454 0.0
C150 C 0.29023 0.86117 0.37372 0.0
O151 O 0.29899 0.85397 0.36117 0.0
N152 N 0.34424 0.89391 0.35144 0.0
C153 C 0.37616 0.89764 0.3492 0.0
C154 C 0.37276 0.90805 0.38513 0.0
C155 C 0.35668 0.90573 0.38677 0.0
C156 C 0.34731 0.88356 0.31688 0.0
C157 C 0.3632 0.8854 0.3141 0.0
H158 H 0.35407 0.9126 0.42021 0.0
H159 H 0.3371 0.87289 0.29529 0.0
H160 H 0.31755 0.89423 0.50364 0.0
H161 H 0.33243 0.85903 0.53921 0.0
H162 H 0.30026 0.90581 0.19338 0.0
H163 H 0.38213 0.91714 0.4152 0.0
H164 H 0.3651 0.8768 0.2868 0.0
C165 C 0.45487 0.31321 0.82611 0.0
C166 C 0.45594 0.31152 0.88758 0.0
N167 N 0.44358 0.31271 0.91481 0.0
N168 N 0.44189 0.31544 0.81422 0.0
C169 C 0.43513 0.31494 0.8692 0.0
H170 H 0.46345 0.3135 0.79232 0.0
Co171 Co 0.43784 0.32093 0.7371 0.0
C172 C 0.40452 0.31705 0.74703 0.0
O173 O 0.39978 0.30704 0.69989 0.0
N174 N 0.43415 0.32675 0.65868 0.0
C175 C 0.4305 0.34086 0.58447 0.0
C176 C 0.43161 0.33955 0.64614 0.0
C177 C 0.43451 0.32048 0.60352 0.0
N178 N 0.43233 0.32885 0.55762 0.0
O179 O 0.4236 0.2976 0.72 0.0
H180 H 0.43085 0.34761 0.67983 0.0
H181 H 0.43683 0.31031 0.59656 0.0
O182 O 0.41927 0.32298 0.76768 0.0
C183 C 0.43167 0.29116 0.69686 0.0
O184 O 0.44761 0.30084 0.68553 0.0
N185 N 0.45287 0.34335 0.75391 0.0
C186 C 0.47942 0.37473 0.78401 0.0
C187 C 0.46428 0.36789 0.81583 0.0
C188 C 0.45114 0.35217 0.80007 0.0
C189 C 0.46725 0.3499 0.72148 0.0
C190 C 0.4806 0.36563 0.73524 0.0
H191 H 0.43992 0.34683 0.82695 0.0
H192 H 0.46854 0.34263 0.68576 0.0
H193 H 0.42485 0.31714 0.87614 0.0
H194 H 0.46534 0.30991 0.91056 0.0
H195 H 0.42848 0.34995 0.5612 0.0
H196 H 0.4628 0.37426 0.85439 0.0
H197 H 0.49185 0.37043 0.7085 0.0
C198 C 0.57221 0.86623 0.47681 0.0
C199 C 0.57438 0.86605 0.41546 0.0
N200 N 0.57483 0.87956 0.39121 0.0
N201 N 0.57147 0.8799 0.49219 0.0
C202 C 0.57325 0.8879 0.43884 0.0
H203 H 0.57048 0.85645 0.50749 0.0
Co204 Co 0.56578 0.88374 0.57007 0.0
C205 C 0.59102 0.91943 0.60185 0.0
O206 O 0.5833 0.9188 0.65238 0.0
N207 N 0.55933 0.88664 0.64926 0.0
C208 C 0.54361 0.88635 0.72625 0.0
C209 C 0.54465 0.88546 0.66444 0.0
C210 C 0.56678 0.88783 0.70356 0.0
N211 N 0.55754 0.88784 0.75101 0.0
O212 O 0.57919 0.87524 0.60518 0.0
H213 H 0.53492 0.88355 0.63309 0.0
H214 H 0.57869 0.88847 0.70828 0.0
O215 O 0.58522 0.90663 0.56719 0.0
C216 C 0.57046 0.86061 0.62688 0.0
O217 O 0.55418 0.85385 0.6268 0.0
N218 N 0.55164 0.89052 0.5346 0.0
C219 C 0.52644 0.89542 0.4876 0.0
C220 C 0.54108 0.9088 0.51126 0.0
C221 C 0.55357 0.90611 0.5345 0.0
C222 C 0.53767 0.87747 0.51052 0.0
C223 C 0.52496 0.87964 0.48662 0.0
H224 H 0.56441 0.91651 0.5538 0.0
H225 H 0.53622 0.86517 0.5115 0.0
H226 H 0.57234 0.89902 0.43456 0.0
H227 H 0.57504 0.85636 0.39044 0.0
H228 H 0.53329 0.88582 0.75102 0.0
H229 H 0.54281 0.92122 0.51246 0.0
H230 H 0.5138 0.8689 0.46965 0.0
C231 C 0.68785 0.54811 0.8591 0.0
C232 C 0.68731 0.5455 0.79764 0.0
N233 N 0.68531 0.55729 0.7697 0.0
N234 N 0.68623 0.56148 0.87011 0.0
C235 C 0.68481 0.56691 0.81486 0.0
H236 H 0.68916 0.54063 0.89381 0.0
Co237 Co 0.68553 0.56861 0.94789 0.0
C238 C 0.67122 0.59036 0.93891 0.0
O239 O 0.66211 0.58198 0.98569 0.0
N240 N 0.68563 0.576 0.02813 0.0
C241 C 0.69391 0.59414 0.10447 0.0
C242 C 0.69463 0.59228 0.04318 0.0
C243 C 0.6799 0.56818 0.08201 0.0
N244 N 0.68466 0.57897 0.12908 0.0
O245 O 0.7094 0.58276 0.94604 0.0
H246 H 0.70171 0.60224 0.01148 0.0
H247 H 0.67278 0.55488 0.08745 0.0
O248 O 0.68182 0.58672 0.91677 0.0
C249 C 0.71594 0.57526 0.97296 0.0
O250 O 0.7059 0.56055 0.99638 0.0
N251 N 0.66232 0.55305 0.94879 0.0
C252 C 0.63019 0.52563 0.93623 0.0
C253 C 0.63542 0.53986 0.90066 0.0
C254 C 0.65157 0.55325 0.90668 0.0
C255 C 0.65757 0.53906 0.98235 0.0
C256 C 0.64144 0.52538 0.97804 0.0
H257 H 0.65561 0.5633 0.87469 0.0
H258 H 0.66666 0.53797 1.00952 0.0
H259 H 0.68293 0.57738 0.80799 0.0
H260 H 0.68838 0.53569 0.77545 0.0
H261 H 0.70039 0.60574 0.12924 0.0
H262 H 0.62727 0.54043 0.86676 0.0
H263 H 0.63815 0.51433 1.00443 0.0
C264 C 0.14568 0.69302 0.17217 0.0
C265 C 0.14878 0.69604 0.11121 0.0
N266 N 0.13604 0.69694 0.08577 0.0
N267 N 0.13103 0.69198 0.18564 0.0
C268 C 0.12555 0.69467 0.13223 0.0
H269 H 0.15322 0.69088 0.20421 0.0
Co270 Co 0.12104 0.68587 0.26256 0.0
C271 C 0.08567 0.6697 0.21393 0.0
O272 O 0.08326 0.65464 0.22058 0.0
N273 N 0.11135 0.68024 0.34161 0.0
C274 C 0.09406 0.66818 0.41931 0.0
C275 C 0.09589 0.66822 0.35759 0.0
C276 C 0.11869 0.6872 0.39539 0.0
N277 N 0.1084 0.68016 0.44337 0.0
O278 O 0.12844 0.70898 0.27842 0.0
H279 H 0.08651 0.65953 0.32734 0.0
H280 H 0.13137 0.69724 0.39959 0.0
O281 O 0.09951 0.68249 0.22936 0.0
C282 C 0.14341 0.71578 0.2977 0.0
O283 O 0.15016 0.70635 0.30417 0.0
N284 N 0.11586 0.66346 0.24779 0.0
C285 C 0.11405 0.63281 0.22672 0.0
C286 C 0.11067 0.64095 0.18026 0.0
C287 C 0.11191 0.65632 0.19137 0.0
C288 C 0.11967 0.65587 0.29301 0.0
C289 C 0.11852 0.64043 0.28382 0.0
H290 H 0.10938 0.66231 0.15436 0.0
H291 H 0.12425 0.662 0.33612 0.0
H292 H 0.11376 0.69425 0.12705 0.0
H293 H 0.15916 0.69653 0.08706 0.0
H294 H 0.0831 0.65957 0.44454 0.0
H295 H 0.10715 0.63554 0.1354 0.0
H296 H 0.12179 0.63485 0.32049 0.0
C297 C 0.46018 0.13922 0.56673 0.0
C298 C 0.46238 0.14157 0.5052 0.0
N299 N 0.44913 0.12902 0.47707 0.0
N300 N 0.44566 0.12523 0.57757 0.0
C301 C 0.43911 0.11932 0.52225 0.0
H302 H 0.46877 0.14699 0.60156 0.0
Co303 Co 0.43838 0.11709 0.65481 0.0
C304 C 0.41704 0.08098 0.64269 0.0
O305 O 0.42537 0.08006 0.68931 0.0
N306 N 0.4308 0.10941 0.73468 0.0
C307 C 0.41261 0.09861 0.81065 0.0
C308 C 0.41444 0.10112 0.74927 0.0
C309 C 0.43865 0.11233 0.78895 0.0
N310 N 0.42785 0.10571 0.83564 0.0
O311 O 0.42397 0.12646 0.65275 0.0
H312 H 0.40438 0.09755 0.71726 0.0
H313 H 0.45192 0.11963 0.7951 0.0
O314 O 0.42058 0.09533 0.62212 0.0
C315 C 0.43042 0.13995 0.68324 0.0
O316 O 0.44454 0.14461 0.71161 0.0
N317 N 0.45413 0.10969 0.65565 0.0
C318 C 0.48169 0.10509 0.64344 0.0
C319 C 0.46765 0.09649 0.60623 0.0
C320 C 0.45424 0.09922 0.61212 0.0
C321 C 0.46794 0.11865 0.69056 0.0
C322 C 0.48164 0.11624 0.68641 0.0
H323 H 0.44443 0.09364 0.57881 0.0
H324 H 0.46892 0.1286 0.7187 0.0
H325 H 0.42729 0.1081 0.51532 0.0
H326 H 0.47319 0.15152 0.48312 0.0
H327 H 0.40096 0.09275 0.83531 0.0
H328 H 0.46739 0.08845 0.57014 0.0
H329 H 0.49233 0.12353 0.71518 0.0
C330 C 0.32524 0.45938 0.88975 0.0
C331 C 0.32565 0.46166 0.82816 0.0
N332 N 0.32391 0.44789 0.80068 0.0
N333 N 0.32334 0.44431 0.9013 0.0
C334 C 0.32248 0.43753 0.84631 0.0
H335 H 0.32649 0.46824 0.92416 0.0
Co336 Co 0.3227 0.43657 0.97897 0.0
C337 C 0.33633 0.41408 0.97245 0.0
O338 O 0.34481 0.42178 0.02133 0.0
N339 N 0.32131 0.42858 0.05893 0.0
C340 C 0.31237 0.41012 0.13418 0.0
C341 C 0.31201 0.41225 0.07286 0.0
C342 C 0.32676 0.43616 0.1134 0.0
N343 N 0.32162 0.42517 0.15967 0.0
O344 O 0.29892 0.42255 0.9721 0.0
H345 H 0.30514 0.40245 0.04027 0.0
H346 H 0.3341 0.44942 0.11988 0.0
O347 O 0.32664 0.41862 0.94826 0.0
C348 C 0.29204 0.43026 0.99481 0.0
O349 O 0.30176 0.4452 0.01718 0.0
N350 N 0.34584 0.45192 0.98498 0.0
C351 C 0.37796 0.47969 0.9782 0.0
C352 C 0.37352 0.46545 0.94325 0.0
C353 C 0.35735 0.4519 0.94616 0.0
C354 C 0.34986 0.46582 0.01822 0.0
C355 C 0.3659 0.47967 0.01663 0.0
H356 H 0.3539 0.44195 0.914 0.0
H357 H 0.34025 0.46671 0.04263 0.0
H358 H 0.32077 0.42522 0.83994 0.0
H359 H 0.32749 0.47279 0.8056 0.0
H360 H 0.30581 0.39844 0.15839 0.0
H361 H 0.38228 0.46501 0.91192 0.0
H362 H 0.3685 0.49066 0.04228 0.0
C363 C 0.86675 0.32569 0.21021 0.0
C364 C 0.86477 0.32613 0.1487 0.0
N365 N 0.87643 0.32388 0.12073 0.0
N366 N 0.87964 0.32326 0.22126 0.0
C367 C 0.88526 0.32212 0.16602 0.0
H368 H 0.85945 0.32731 0.24492 0.0
Co369 Co 0.88683 0.32252 0.29878 0.0
C370 C 0.92262 0.33431 0.29093 0.0
O371 O 0.92413 0.34336 0.33896 0.0
N372 N 0.89347 0.32104 0.37868 0.0
C373 C 0.90244 0.31153 0.45394 0.0
C374 C 0.89999 0.31129 0.39262 0.0
C375 C 0.89155 0.32662 0.43321 0.0
N376 N 0.89709 0.32114 0.47948 0.0
O377 O 0.876 0.29864 0.2932 0.0
H378 H 0.90253 0.30412 0.36008 0.0
H379 H 0.88592 0.33422 0.43973 0.0
O380 O 0.90817 0.32518 0.2673 0.0
C381 C 0.86155 0.29254 0.31673 0.0
O382 O 0.85713 0.30294 0.33853 0.0
N383 N 0.89566 0.34583 0.30374 0.0
C384 C 0.90098 0.37827 0.29492 0.0
C385 C 0.91038 0.37326 0.26023 0.0
C386 C 0.9073 0.35694 0.26431 0.0
C387 C 0.88624 0.35043 0.33695 0.0
C388 C 0.88893 0.36662 0.33437 0.0
H389 H 0.91345 0.35302 0.23231 0.0
H390 H 0.87569 0.34117 0.36214 0.0
H391 H 0.8956 0.32 0.15925 0.0
H392 H 0.85567 0.32837 0.12656 0.0
H393 H 0.90712 0.30458 0.47816 0.0
H394 H 0.91929 0.38153 0.22711 0.0
H395 H 0.88112 0.36975 0.36128 0.0
H396 H 0.06714 0.38656 0.03611 0.0
H397 H 0.0384 0.36421 0.05584 0.0
H398 H 0.04009 0.38539 0.23154 0.0
H399 H 0.06856 0.40769 0.21161 0.0
H400 H 0.02177 0.34783 0.22271 0.0
H401 H 1.00285 0.38024 0.05514 0.0
H402 H 0.01792 0.37441 0.03306 0.0
H403 H 0.02336 0.39043 0.08859 0.0
C404 C 0.06158 0.38595 0.07991 0.0
C405 C 0.07005 0.39863 0.12283 0.0
C406 C 0.04513 0.37332 0.09086 0.0
C407 C 0.03708 0.37325 0.14494 0.0
C408 C 0.04608 0.38518 0.18963 0.0
H409 H 0.95263 0.34685 0.34564 0.0
H410 H 0.97877 0.35199 0.30226 0.0
C411 C 0.06236 0.39785 0.17842 0.0
C412 C 0.01885 0.36232 0.15286 0.0
H413 H 0.98207 0.36039 0.11759 0.0
C414 C 0.01301 0.35028 0.19877 0.0
C415 C 0.00741 0.36544 0.12132 0.0
C416 C 0.01308 0.37835 0.07184 0.0
C417 C 0.99618 0.34192 0.21616 0.0
C418 C 0.985 0.34607 0.18812 0.0
C419 C 0.99061 0.35723 0.13922 0.0
C420 C 0.96842 0.34115 0.21483 0.0
C421 C 0.99066 0.32909 0.26582 0.0
C422 C 0.95375 0.33357 0.17989 0.0
C423 C 0.93857 0.33068 0.20475 0.0
C424 C 0.93794 0.33561 0.26457 0.0
C425 C 0.95261 0.34291 0.29939 0.0
C426 C 0.96762 0.34569 0.27482 0.0
H427 H 0.99812 0.32275 0.26532 0.0
H428 H 0.99265 0.33535 0.31044 0.0
H429 H 0.97728 0.31958 0.26143 0.0
H430 H 0.95411 0.33015 0.13318 0.0
H431 H 0.92751 0.32513 0.17667 0.0
H432 H 0.67212 0.07408 0.52684 0.0
H433 H 0.65907 0.04461 0.55389 0.0
H434 H 0.67913 0.03513 0.39236 0.0
H435 H 0.69237 0.0646 0.36511 0.0
H436 H 0.64183 0.0144 0.41557 0.0
H437 H 0.68179 0.01618 0.60648 0.0
H438 H 0.67564 0.03175 0.60665 0.0
H439 H 0.68919 0.03196 0.5482 0.0
C440 C 0.67398 0.06579 0.49749 0.0
C441 C 0.6833 0.07172 0.4438 0.0
C442 C 0.66654 0.04896 0.5131 0.0
C443 C 0.66819 0.03772 0.47521 0.0
C444 C 0.67777 0.04363 0.42231 0.0
H445 H 0.6076 0.92785 0.49208 0.0
H446 H 0.62809 0.95586 0.45704 0.0
C447 C 0.68538 0.0605 0.40699 0.0
C448 C 0.659 0.01966 0.48898 0.0
H449 H 0.65647 0.99095 0.59125 0.0
C450 C 0.6451 0.00917 0.45348 0.0
C451 C 0.66333 0.01297 0.53852 0.0
C452 C 0.67836 0.02372 0.57713 0.0
C453 C 0.6349 0.99225 0.46795 0.0
C454 C 0.63903 0.98555 0.51833 0.0
C455 C 0.65331 0.99601 0.55253 0.0
C456 C 0.62786 0.96824 0.54003 0.0
C457 C 0.61933 0.98198 0.43108 0.0
C458 C 0.62153 0.96573 0.59919 0.0
C459 C 0.61011 0.9498 0.61956 0.0
C460 C 0.60463 0.9359 0.58123 0.0
C461 C 0.61147 0.93828 0.52267 0.0
C462 C 0.62306 0.95431 0.50238 0.0
H463 H 0.61599 0.98988 0.40344 0.0
H464 H 0.62139 0.97384 0.39965 0.0
H465 H 0.60863 0.97395 0.46083 0.0
H466 H 0.62506 0.9762 0.62929 0.0
H467 H 0.60525 0.94849 0.6651 0.0
H468 H 0.69194 0.61884 0.8737 0.0
H469 H 0.68494 0.63963 0.83577 0.0
H470 H 0.63451 0.60894 0.89858 0.0
H471 H 0.64146 0.58876 0.9375 0.0
H472 H 0.66271 0.63907 0.75447 0.0
H473 H 0.64626 0.65212 0.97926 0.0
H474 H 0.65719 0.64075 0.96994 0.0
H475 H 0.63477 0.63017 0.9657 0.0
C476 C 0.67939 0.61661 0.87909 0.0
C477 C 0.66734 0.60236 0.90958 0.0
C478 C 0.67541 0.62849 0.85769 0.0
C479 C 0.65933 0.62615 0.86635 0.0
C480 C 0.64716 0.61142 0.8936 0.0
H481 H 0.596 0.64939 0.67813 0.0
H482 H 0.61669 0.64243 0.71037 0.0
C483 C 0.65115 0.5998 0.91549 0.0
C484 C 0.65474 0.63864 0.84646 0.0
H485 H 0.63221 0.65645 0.89367 0.0
C486 C 0.65637 0.6432 0.78514 0.0
C487 C 0.64699 0.64463 0.88661 0.0
C488 C 0.6464 0.64182 0.95415 0.0
C489 C 0.64913 0.65224 0.76207 0.0
C490 C 0.63948 0.6563 0.80092 0.0
C491 C 0.63921 0.65307 0.86322 0.0
C492 C 0.6281 0.66203 0.77747 0.0
C493 C 0.65172 0.65708 0.69605 0.0
C494 C 0.62709 0.67515 0.8054 0.0
C495 C 0.61479 0.67892 0.78802 0.0
C496 C 0.6033 0.66968 0.74216 0.0
C497 C 0.60468 0.65691 0.71326 0.0
C498 C 0.61673 0.65301 0.7312 0.0
H499 H 0.66426 0.65981 0.68082 0.0
H500 H 0.64243 0.64652 0.66834 0.0
H501 H 0.65044 0.66814 0.68718 0.0
H502 H 0.63558 0.68223 0.84166 0.0
H503 H 0.61406 0.68881 0.81132 0.0
H504 H 0.06867 0.68196 0.27591 0.0
H505 H 0.0398 0.67491 0.25503 0.0
H506 H 0.04107 0.65216 0.08613 0.0
H507 H 0.06962 0.65882 0.10762 0.0
H508 H 0.02066 0.67847 0.1558 0.0
H509 H 0.00629 0.61354 0.19214 0.0
H510 H 0.02615 0.63126 0.21167 0.0
H511 H 0.02159 0.62428 0.1343 0.0
C512 C 0.06298 0.67612 0.23319 0.0
C513 C 0.07132 0.67102 0.19306 0.0
C514 C 0.04647 0.67197 0.2215 0.0
C515 C 0.0382 0.66272 0.16958 0.0
C516 C 0.04714 0.65909 0.12684 0.0
H517 H 0.94051 0.62861 0.01774 0.0
H518 H 0.96981 0.64483 0.04617 0.0
C519 C 0.06348 0.66304 0.13882 0.0
C520 C 0.01985 0.65498 0.16339 0.0
H521 H 0.98444 0.6171 0.15366 0.0
C522 C 0.01269 0.66506 0.15569 0.0
C523 C 0.00941 0.63749 0.16471 0.0
C524 C 0.01619 0.62599 0.17675 0.0
C525 C 0.9954 0.65805 0.14704 0.0
C526 C 0.98509 0.64051 0.14504 0.0
C527 C 0.99227 0.63052 0.15475 0.0
C528 C 0.96693 0.63207 0.13126 0.0
C529 C 0.98838 0.66952 0.14077 0.0
C530 C 0.95543 0.61933 0.16919 0.0
C531 C 0.93867 0.60981 0.15246 0.0
C532 C 0.93301 0.61285 0.09747 0.0
C533 C 0.94439 0.62602 0.06068 0.0
C534 C 0.96119 0.63542 0.07712 0.0
H535 H 0.9965 0.68168 0.16319 0.0
H536 H 0.98762 0.67196 0.09198 0.0
H537 H 0.97571 0.66394 0.16057 0.0
H538 H 0.95952 0.61644 0.2111 0.0
H539 H 0.93024 0.59981 0.18198 0.0
H540 H 0.39053 0.07471 0.568 0.0
H541 H 0.37012 0.04766 0.52363 0.0
H542 H 0.39686 0.02535 0.60214 0.0
H543 H 0.41656 0.05172 0.64771 0.0
H544 H 0.37224 0.02769 0.44455 0.0
H545 H 0.35138 0.99268 0.65754 0.0
H546 H 0.3637 0.01508 0.6565 0.0
H547 H 0.37359 0.00257 0.65424 0.0
C548 C 0.39191 0.06395 0.5759 0.0
C549 C 0.40497 0.06528 0.61223 0.0
C550 C 0.38025 0.04851 0.55076 0.0
C551 C 0.38157 0.03426 0.56138 0.0
C552 C 0.39505 0.03588 0.59549 0.0
H553 H 0.3621 0.95274 0.345 0.0
H554 H 0.36969 0.97928 0.39124 0.0
C555 C 0.40644 0.05109 0.62114 0.0
C556 C 0.36963 0.01776 0.53467 0.0
H557 H 0.34991 0.97631 0.56801 0.0
C558 C 0.36703 0.01647 0.47176 0.0
C559 C 0.36222 0.00304 0.56999 0.0
C560 C 0.36272 0.00346 0.63837 0.0
C561 C 0.35858 1.00089 0.44288 0.0
C562 C 0.35318 0.98621 0.47751 0.0
C563 C 0.35442 0.98749 0.54093 0.0
C564 C 0.3479 0.96975 0.44872 0.0
C565 C 0.3558 1.00044 0.37536 0.0
C566 C 0.33351 0.95516 0.46774 0.0
C567 C 0.32934 0.93967 0.4423 0.0
C568 C 0.33943 0.93856 0.39711 0.0
C569 C 0.35385 0.95315 0.37882 0.0
C570 C 0.35814 0.96846 0.40483 0.0
H571 H 0.35392 0.01085 0.36115 0.0
H572 H 0.36701 1.00199 0.35141 0.0
H573 H 0.34484 0.98855 0.36078 0.0
H574 H 0.32552 0.95575 0.50223 0.0
H575 H 0.31819 0.92863 0.45748 0.0
H576 H 0.35542 0.4021 0.01781 0.0
H577 H 0.36231 0.38259 0.97192 0.0
H578 H 0.33101 0.37689 0.81868 0.0
H579 H 0.32429 0.39705 0.86415 0.0
H580 H 0.34319 0.35029 0.94071 0.0
H581 H 0.37471 0.38838 0.73675 0.0
H582 H 0.36908 0.39667 0.80069 0.0
H583 H 0.35343 0.38311 0.7477 0.0
C584 C 0.34993 0.39677 0.97427 0.0
C585 C 0.33937 0.40128 0.94448 0.0
C586 C 0.35388 0.38552 0.94815 0.0
C587 C 0.34738 0.37839 0.89149 0.0
C588 C 0.33645 0.38247 0.86196 0.0
H589 H 0.37653 0.3143 0.69432 0.0
H590 H 0.36051 0.32734 0.72721 0.0
C591 C 0.33251 0.39389 0.88817 0.0
C592 C 0.35248 0.36693 0.86434 0.0
H593 H 0.37519 0.36349 0.74891 0.0
C594 C 0.35002 0.35309 0.89839 0.0
C595 C 0.36142 0.37056 0.80912 0.0
C596 C 0.36497 0.38554 0.77148 0.0
C597 C 0.3567 0.34316 0.87988 0.0
C598 C 0.36614 0.34717 0.82598 0.0
C599 C 0.36796 0.36049 0.79034 0.0
C600 C 0.37515 0.33839 0.80795 0.0
C601 C 0.35389 0.32862 0.91866 0.0
C602 C 0.38866 0.34023 0.84261 0.0
C603 C 0.39791 0.33289 0.82381 0.0
C604 C 0.39379 0.32349 0.77004 0.0
C605 C 0.37998 0.32135 0.73618 0.0
C606 C 0.37084 0.32885 0.75472 0.0
H607 H 0.34328 0.32481 0.95033 0.0
H608 H 0.35147 0.31779 0.89005 0.0
H609 H 0.36523 0.33217 0.94596 0.0
H610 H 0.39231 0.3477 0.88351 0.0
H611 H 0.40846 0.33481 0.85093 0.0
H612 H 0.12901 0.42062 0.82335 0.0
H613 H 0.13471 0.42093 0.71428 0.0
H614 H 0.10169 0.43988 0.67675 0.0
H615 H 0.09607 0.43973 0.78497 0.0
H616 H 0.10941 0.40399 0.61551 0.0
H617 H 0.14697 0.47265 0.59106 0.0
H618 H 0.14376 0.46232 0.66326 0.0
H619 H 0.12753 0.46497 0.63054 0.0
C620 C 0.12309 0.42499 0.79185 0.0
C621 C 0.11205 0.43011 0.81296 0.0
C622 C 0.12627 0.42506 0.72957 0.0
C623 C 0.11867 0.4305 0.68742 0.0
C624 C 0.10776 0.43572 0.70843 0.0
H625 H 0.10556 0.42091 0.29622 0.0
H626 H 0.10177 0.41782 0.40627 0.0
C627 C 0.10447 0.43551 0.77038 0.0
C628 C 0.12197 0.43069 0.62133 0.0
H629 H 0.13868 0.45683 0.50032 0.0
C630 C 0.1159 0.41553 0.59029 0.0
C631 C 0.1305 0.44575 0.58859 0.0
C632 C 0.13771 0.46238 0.61992 0.0
C633 C 0.11783 0.41505 0.52709 0.0
C634 C 0.12595 0.43012 0.49408 0.0
C635 C 0.13235 0.44527 0.52548 0.0
C636 C 0.12809 0.43057 0.42702 0.0
C637 C 0.11128 0.39844 0.49617 0.0
C638 C 0.14412 0.43869 0.40186 0.0
C639 C 0.14632 0.44042 0.33901 0.0
C640 C 0.13254 0.43421 0.2996 0.0
C641 C 0.11646 0.42566 0.32488 0.0
C642 C 0.11427 0.4239 0.38794 0.0
H643 H 0.10901 0.38845 0.52897 0.0
H644 H 0.09932 0.39503 0.47353 0.0
H645 H 0.12012 0.39902 0.46102 0.0
H646 H 0.15498 0.44392 0.431 0.0
H647 H 0.15888 0.44685 0.32132 0.0
H648 H 0.67875 0.14166 0.68152 0.0
H649 H 0.67838 0.13712 0.79039 0.0
H650 H 0.70381 0.10946 0.76327 0.0
H651 H 0.70392 0.11374 0.65328 0.0
H652 H 0.67931 0.09419 0.84335 0.0
H653 H 0.71585 0.1604 0.90837 0.0
H654 H 0.69797 0.1564 0.86449 0.0
H655 H 0.71408 0.15359 0.83075 0.0
C656 C 0.68447 0.13479 0.69863 0.0
C657 C 0.6916 0.12827 0.65869 0.0
C658 C 0.68429 0.13224 0.7611 0.0
C659 C 0.6915 0.12336 0.78551 0.0
C660 C 0.69833 0.11651 0.74569 0.0
H661 H 0.7058 0.12415 0.1802 0.0
H662 H 0.71065 0.12838 0.07064 0.0
C663 C 0.69835 0.11892 0.68286 0.0
C664 C 0.69132 0.12082 0.85234 0.0
H665 H 0.70005 0.14136 0.988 0.0
C666 C 0.68402 0.10453 0.87493 0.0
C667 C 0.69777 0.13428 0.89389 0.0
C668 C 0.70702 0.15214 0.87311 0.0
C669 C 0.68237 0.10131 0.93761 0.0
C670 C 0.68773 0.11471 0.97905 0.0
C671 C 0.69567 0.13103 0.95648 0.0
C672 C 0.68487 0.11208 0.0457 0.0
C673 C 0.67502 0.08355 0.9586 0.0
C674 C 0.66876 0.1018 0.0685 0.0
C675 C 0.66601 0.09929 0.13091 0.0
C676 C 0.67926 0.10724 0.17223 0.0
C677 C 0.69533 0.11791 0.14957 0.0
C678 C 0.69811 0.12027 0.08694 0.0
H679 H 0.67694 0.07586 0.92441 0.0
H680 H 0.68058 0.08279 1.00222 0.0
H681 H 0.66141 0.07806 0.96498 0.0
H682 H 0.65822 0.09581 0.03803 0.0
H683 H 0.65343 0.09129 0.1469 0.0
H684 H 0.58799 0.68783 0.52669 0.0
H685 H 0.59395 0.69234 0.41756 0.0
H686 H 0.5415 0.67015 0.3804 0.0
H687 H 0.5355 0.6659 0.4886 0.0
H688 H 0.58124 0.66775 0.31918 0.0
H689 H 0.56304 0.716 0.29456 0.0
H690 H 0.56764 0.71026 0.36717 0.0
H691 H 0.54781 0.69731 0.33167 0.0
C692 C 0.57776 0.68406 0.49528 0.0
C693 C 0.56127 0.6765 0.51657 0.0
C694 C 0.58117 0.68653 0.43293 0.0
C695 C 0.56817 0.68168 0.39086 0.0
C696 C 0.55174 0.67412 0.412 0.0
H697 H 0.56288 0.66844 0.99877 0.0
H698 H 0.56189 0.66406 0.10877 0.0
C699 C 0.54832 0.67158 0.47401 0.0
C700 C 0.57162 0.68454 0.32477 0.0
H701 H 0.56707 0.70478 0.20365 0.0
C702 C 0.57826 0.67593 0.29388 0.0
C703 C 0.56785 0.6953 0.29191 0.0
C704 C 0.56133 0.70538 0.32296 0.0
C705 C 0.58085 0.67753 0.2307 0.0
C706 C 0.57655 0.68788 0.19757 0.0
C707 C 0.57026 0.69675 0.22886 0.0
C708 C 0.57859 0.68997 0.13056 0.0
C709 C 0.58832 0.66826 0.20008 0.0
C710 C 0.58837 0.70592 0.10599 0.0
C711 C 0.58889 0.70843 0.04339 0.0
C712 C 0.57959 0.69506 1.00367 0.0
C713 C 0.57034 0.67896 0.02802 0.0
C714 C 0.56977 0.67645 0.09095 0.0
H715 H 0.59483 0.66442 0.23299 0.0
H716 H 0.57825 0.65687 0.17841 0.0
H717 H 0.59727 0.67599 0.16427 0.0
H718 H 0.59531 0.71655 0.13548 0.0
H719 H 0.5963 0.72095 0.02606 0.0
H720 H 0.87666 0.57451 0.83354 0.0
H721 H 0.87227 0.57365 0.724 0.0
H722 H 0.91332 0.56507 0.69551 0.0
H723 H 0.91734 0.56517 0.8046 0.0
H724 H 0.89318 0.59355 0.63501 0.0
H725 H 0.8775 0.52841 0.5944 0.0
H726 H 0.87814 0.53646 0.66944 0.0
H727 H 0.89708 0.54052 0.63227 0.0
C728 C 0.88459 0.57215 0.80419 0.0
C729 C 0.89733 0.56983 0.82843 0.0
C730 C 0.88214 0.5718 0.7414 0.0
C731 C 0.89229 0.56903 0.70141 0.0
C732 C 0.90508 0.56686 0.72535 0.0
H733 H 0.90108 0.56751 0.30814 0.0
H734 H 0.90606 0.56935 0.41788 0.0
C735 C 0.90751 0.56715 0.78801 0.0
C736 C 0.88983 0.56888 0.63466 0.0
H737 H 0.88283 0.54535 0.50695 0.0
C738 C 0.89081 0.58297 0.60709 0.0
C739 C 0.88675 0.55507 0.5981 0.0
C740 C 0.88464 0.5392 0.62507 0.0
C741 C 0.88908 0.58373 0.54402 0.0
C742 C 0.88618 0.57 0.50758 0.0
C743 C 0.88519 0.55591 0.535 0.0
C744 C 0.88364 0.5698 0.44105 0.0
C745 C 0.89063 0.59931 0.5166 0.0
C746 C 0.86941 0.56945 0.41777 0.0
C747 C 0.86652 0.56834 0.35525 0.0
C748 C 0.87783 0.56762 0.31465 0.0
C749 C 0.89224 0.56825 0.33809 0.0
C750 C 0.89505 0.5692 0.40076 0.0
H751 H 0.89635 0.60998 0.54862 0.0
H752 H 0.89821 0.60273 0.47455 0.0
H753 H 0.87805 0.59703 0.50439 0.0
H754 H 0.86035 0.56971 0.44807 0.0
H755 H 0.85538 0.568 0.33863 0.0
H756 H 0.33919 0.89121 0.12365 0.0
H757 H 0.3409 0.88867 0.01389 0.0
H758 H 0.29655 0.89205 0.99043 0.0
H759 H 0.29427 0.89376 0.09969 0.0
H760 H 0.29548 0.86734 0.92364 0.0
H761 H 0.35588 0.92519 0.88818 0.0
H762 H 0.35687 0.91126 0.9421 0.0
H763 H 0.34447 0.9207 0.95844 0.0
C764 C 0.32973 0.89129 0.09527 0.0
C765 C 0.31665 0.8928 0.12084 0.0
C766 C 0.33086 0.89007 0.03239 0.0
C767 C 0.31903 0.8905 0.99388 0.0
C768 C 0.3059 0.89184 0.01924 0.0
H769 H 0.32685 0.90429 0.60195 0.0
H770 H 0.32486 0.90747 0.71129 0.0
C771 C 0.30471 0.89296 0.08191 0.0
C772 C 0.31993 0.88903 0.9272 0.0
H773 H 0.34467 0.90696 0.80358 0.0
C774 C 0.30621 0.87603 0.89737 0.0
C775 C 0.33383 0.90054 0.89288 0.0
C776 C 0.34854 0.91531 0.92187 0.0
C777 C 0.30611 0.87408 0.8343 0.0
C778 C 0.32027 0.88521 0.80025 0.0
C779 C 0.33388 0.89837 0.82988 0.0
C780 C 0.32126 0.88323 0.73396 0.0
C781 C 0.29071 0.86027 0.80466 0.0
C782 C 0.32003 0.86863 0.71054 0.0
C783 C 0.32097 0.8667 0.64819 0.0
C784 C 0.32337 0.87943 0.60779 0.0
C785 C 0.32475 0.89414 0.63151 0.0
C786 C 0.32375 0.89603 0.69405 0.0
H787 H 0.27952 0.85616 0.83361 0.0
H788 H 0.28835 0.86422 0.76002 0.0
H789 H 0.29243 0.84941 0.79736 0.0
H790 H 0.31843 0.85871 0.74057 0.0
H791 H 0.31968 0.85513 0.63178 0.0
H792 H 0.4673 0.32456 1.00194 0.0
H793 H 0.46337 0.3253 0.11091 0.0
H794 H 0.41038 0.30274 0.08413 0.0
H795 H 0.41436 0.30232 0.97417 0.0
H796 H 0.42078 0.32723 0.16381 0.0
H797 H 0.44736 0.288 0.22959 0.0
H798 H 0.46194 0.30555 0.18594 0.0
H799 H 0.44268 0.2901 0.15185 0.0
C800 C 0.45478 0.31956 0.01918 0.0
C801 C 0.44111 0.31317 0.97933 0.0
C802 C 0.45253 0.31993 0.0817 0.0
C803 C 0.43653 0.31364 0.10624 0.0
C804 C 0.42285 0.30752 0.06649 0.0
H805 H 0.42177 0.29934 0.50034 0.0
H806 H 0.4213 0.29465 0.39069 0.0
C807 C 0.42512 0.30731 1.00365 0.0
C808 C 0.43426 0.31406 0.1731 0.0
H809 H 0.44495 0.30437 0.30907 0.0
C810 C 0.42591 0.32207 0.19551 0.0
C811 C 0.44062 0.30703 0.21483 0.0
C812 C 0.44848 0.29703 0.1943 0.0
C813 C 0.42433 0.3238 0.25815 0.0
C814 C 0.43174 0.31781 0.29981 0.0
C815 C 0.4395 0.30923 0.27741 0.0
C816 C 0.43187 0.32059 0.36654 0.0
C817 C 0.41455 0.33188 0.27884 0.0
C818 C 0.43825 0.33674 0.38988 0.0
C819 C 0.43838 0.3394 0.45235 0.0
C820 C 0.43243 0.32602 0.49323 0.0
C821 C 0.42648 0.3099 0.47006 0.0
C822 C 0.42616 0.30722 0.40736 0.0
H823 H 0.40521 0.33049 0.24433 0.0
H824 H 0.40799 0.32649 0.3222 0.0
H825 H 0.42317 0.34539 0.28555 0.0
H826 H 0.4433 0.34736 0.35978 0.0
H827 H 0.44338 0.352 0.46875 0.0
H828 H 0.58808 0.9033 0.80419 0.0
H829 H 0.59416 0.9054 0.91318 0.0
H830 H 0.54162 0.87655 0.95151 0.0
H831 H 0.53551 0.87449 0.84333 0.0
H832 H 0.55743 0.90396 0.02494 0.0
H833 H 0.59159 0.869 0.02258 0.0
H834 H 0.59982 0.88674 0.97328 0.0
H835 H 0.57956 0.86918 0.95866 0.0
C836 C 0.57786 0.89727 0.83587 0.0
C837 C 0.56131 0.88874 0.81494 0.0
C838 C 0.58134 0.89849 0.89817 0.0
C839 C 0.56835 0.89102 0.94064 0.0
C840 C 0.55186 0.88249 0.91973 0.0
H841 H 0.56228 0.85683 0.30082 0.0
H842 H 0.56249 0.86196 0.19278 0.0
C843 C 0.54838 0.88135 0.85774 0.0
C844 C 0.57169 0.89194 1.00696 0.0
H845 H 0.58901 0.87944 0.11672 0.0
C846 C 0.56446 0.89873 0.04505 0.0
C847 C 0.58078 0.88502 0.03317 0.0
C848 C 0.58828 0.87694 0.99503 0.0
C849 C 0.56567 0.89838 0.10854 0.0
C850 C 0.57461 0.89131 0.13474 0.0
C851 C 0.58225 0.88496 0.09659 0.0
C852 C 0.57475 0.88872 0.20128 0.0
C853 C 0.55669 0.90485 0.14704 0.0
C854 C 0.58155 0.90208 0.24254 0.0
C855 C 0.58145 0.89916 0.30507 0.0
C856 C 0.57473 0.88284 0.32722 0.0
C857 C 0.5679 0.86957 0.28555 0.0
C858 C 0.56794 0.87248 0.22354 0.0
H859 H 0.54771 0.90684 0.12014 0.0
H860 H 0.54986 0.8961 0.18454 0.0
H861 H 0.56591 0.91694 0.16737 0.0
H862 H 0.58711 0.91476 0.22639 0.0
H863 H 0.5869 0.90963 0.33592 0.0
H864 H 0.69142 0.58516 0.70824 0.0
H865 H 0.68888 0.58779 0.59908 0.0
H866 H 0.67364 0.53602 0.57517 0.0
H867 H 0.67542 0.53308 0.68413 0.0
H868 H 0.706 0.58287 0.50873 0.0
H869 H 0.63836 0.53949 0.47914 0.0
H870 H 0.64775 0.54691 0.55262 0.0
H871 H 0.64891 0.53019 0.51613 0.0
C872 C 0.68724 0.57425 0.68003 0.0
C873 C 0.68363 0.5589 0.70533 0.0
C874 C 0.68589 0.57581 0.61751 0.0
C875 C 0.68082 0.56204 0.57905 0.0
C876 C 0.67722 0.54673 0.60405 0.0
H877 H 0.67933 0.55083 0.18682 0.0
H878 H 0.67746 0.54612 0.29661 0.0
C879 C 0.6785 0.54514 0.66648 0.0
C880 C 0.68014 0.56391 0.51249 0.0
H881 H 0.65461 0.54883 0.38881 0.0
C882 C 0.69473 0.5755 0.48261 0.0
C883 C 0.66544 0.55423 0.47842 0.0
C884 C 0.64918 0.54212 0.50823 0.0
C885 C 0.69508 0.57754 0.41954 0.0
C886 C 0.68042 0.56782 0.38555 0.0
C887 C 0.66583 0.55619 0.41517 0.0
C888 C 0.68004 0.56996 0.31926 0.0
C889 C 0.71118 0.58992 0.38946 0.0
C890 C 0.68159 0.58468 0.29593 0.0
C891 C 0.68252 0.58735 0.23347 0.0
C892 C 0.68196 0.57535 0.19301 0.0
C893 C 0.6797 0.56028 0.21655 0.0
C894 C 0.67872 0.5576 0.27925 0.0
H895 H 0.72205 0.59397 0.42011 0.0
H896 H 0.71329 0.58454 0.3477 0.0
H897 H 0.71048 0.60107 0.37622 0.0
H898 H 0.68236 0.59424 0.32617 0.0
H899 H 0.68388 0.59892 0.2169 0.0
H900 H 0.08604 0.67435 0.53276 0.0
H901 H 0.09146 0.67913 0.64114 0.0
H902 H 0.14395 0.69975 0.60889 0.0
H903 H 0.13862 0.69479 0.49991 0.0
H904 H 0.10634 0.66555 0.71504 0.0
H905 H 0.14217 0.73461 0.7199 0.0
H906 H 0.1297 0.72301 0.65557 0.0
H907 H 0.14973 0.72498 0.66799 0.0
C908 C 0.09876 0.67986 0.54842 0.0
C909 C 0.11187 0.68406 0.5072 0.0
C910 C 0.10184 0.68268 0.61057 0.0
C911 C 0.11811 0.68992 0.63325 0.0
C912 C 0.13131 0.69441 0.59238 0.0
H913 H 0.15951 0.71011 0.99742 0.0
H914 H 0.15489 0.70858 0.88805 0.0
C915 C 0.12823 0.69156 0.52997 0.0
C916 C 0.12103 0.69192 0.69989 0.0
H917 H 0.14012 0.72074 0.81232 0.0
C918 C 0.11368 0.67763 0.73635 0.0
C919 C 0.13066 0.70767 0.72764 0.0
C920 C 0.13843 0.72349 0.69099 0.0
C921 C 0.11587 0.6786 0.79958 0.0
C922 C 0.12536 0.69436 0.82755 0.0
C923 C 0.13278 0.70867 0.79102 0.0
C924 C 0.12805 0.69616 0.89441 0.0
C925 C 0.10838 0.66266 0.83559 0.0
C926 C 0.11455 0.69013 0.93477 0.0
C927 C 0.11714 0.69083 0.99757 0.0
C928 C 0.13333 0.69771 0.02147 0.0
C929 C 0.14686 0.70443 0.98084 0.0
C930 C 0.14425 0.70367 0.91814 0.0
H931 H 0.1055 0.65178 0.80643 0.0
H932 H 0.11688 0.6634 0.8724 0.0
H933 H 0.09656 0.66044 0.85648 0.0
H934 H 0.10194 0.68463 0.91767 0.0
H935 H 0.1064 0.68547 0.02711 0.0
H936 H 0.46361 0.152 0.38764 0.0
H937 H 0.4604 0.14716 0.27849 0.0
H938 H 0.42576 0.09521 0.30925 0.0
H939 H 0.42919 0.09976 0.41872 0.0
H940 H 0.46594 0.1225 0.21002 0.0
H941 H 0.4018 0.11268 0.19183 0.0
H942 H 0.41534 0.12347 0.25505 0.0
H943 H 0.40539 0.10125 0.24995 0.0
C944 C 0.4554 0.13949 0.37153 0.0
C945 C 0.44669 0.12627 0.41244 0.0
C946 C 0.45354 0.13679 0.30899 0.0
C947 C 0.44279 0.12086 0.28598 0.0
C948 C 0.43398 0.10764 0.32629 0.0
H949 H 0.41045 0.08312 0.92213 0.0
H950 H 0.41504 0.08641 0.03167 0.0
C951 C 0.43591 0.1103 0.38894 0.0
C952 C 0.44098 0.1181 0.21966 0.0
H953 H 0.41368 0.10906 0.10285 0.0
C954 C 0.45454 0.11956 0.1864 0.0
C955 C 0.42607 0.11423 0.18933 0.0
C956 C 0.4113 0.1129 0.22304 0.0
C957 C 0.45349 0.11702 0.12337 0.0
C958 C 0.43862 0.11334 0.09277 0.0
C959 C 0.42507 0.11186 0.12629 0.0
C960 C 0.43676 0.11098 0.02603 0.0
C961 C 0.46818 0.11791 0.09053 0.0
C962 C 0.44751 0.12364 0.98628 0.0
C963 C 0.44497 0.12171 0.92356 0.0
C964 C 0.43147 0.1072 0.89958 0.0
C965 C 0.42087 0.09448 0.93942 0.0
C966 C 0.4235 0.09634 1.00195 0.0
H967 H 0.47634 0.11584 0.12183 0.0
H968 H 0.46406 0.10857 0.05347 0.0
H969 H 0.47572 0.13046 0.07038 0.0
H970 H 0.45757 0.13523 1.00379 0.0
H971 H 0.45317 0.13182 0.89403 0.0
H972 H 0.31706 0.46346 0.71049 0.0
H973 H 0.31826 0.45967 0.6016 0.0
H974 H 0.33177 0.42222 0.6342 0.0
H975 H 0.33108 0.42621 0.74358 0.0
H976 H 0.3477 0.46243 0.53367 0.0
H977 H 0.28969 0.40083 0.51734 0.0
H978 H 0.29361 0.41496 0.57969 0.0
H979 H 0.30435 0.40343 0.57575 0.0
C980 C 0.32045 0.45451 0.69486 0.0
C981 C 0.32402 0.44518 0.73623 0.0
C982 C 0.32104 0.45232 0.63248 0.0
C983 C 0.32503 0.44064 0.61008 0.0
C984 C 0.32851 0.4312 0.65083 0.0
H985 H 0.32498 0.40614 0.24437 0.0
H986 H 0.32733 0.41065 0.35402 0.0
C987 C 0.32802 0.43345 0.71337 0.0
C988 C 0.32566 0.43848 0.54391 0.0
H989 H 0.30504 0.4118 0.42763 0.0
C990 C 0.33842 0.45136 0.5103 0.0
C991 C 0.31355 0.42401 0.51397 0.0
C992 C 0.29943 0.41 0.54819 0.0
C993 C 0.33948 0.45009 0.4472 0.0
C994 C 0.32717 0.43572 0.41692 0.0
C995 C 0.31447 0.4228 0.45084 0.0
C996 C 0.32705 0.4338 0.3501 0.0
C997 C 0.35394 0.46399 0.41387 0.0
C998 C 0.32623 0.44535 0.31132 0.0
C999 C 0.32502 0.44285 0.24855 0.0
C1000 C 0.32432 0.42858 0.2236 0.0
C1001 C 0.32535 0.41715 0.26245 0.0
C1002 C 0.32672 0.41974 0.32503 0.0
H1003 H 0.36464 0.47136 0.44467 0.0
H1004 H 0.35818 0.45913 0.37603 0.0
H1005 H 0.35001 0.47254 0.39475 0.0
H1006 H 0.32602 0.45607 0.32967 0.0
H1007 H 0.32398 0.45172 0.21977 0.0
H1008 H 0.91909 0.32378 0.56472 0.0
H1009 H 0.91654 0.3255 0.67449 0.0
H1010 H 0.87044 0.32548 0.64929 0.0
H1011 H 0.87313 0.32406 0.53913 0.0
H1012 H 0.89006 0.34769 0.73606 0.0
H1013 H 0.88499 0.28645 0.77779 0.0
H1014 H 0.90364 0.30069 0.73826 0.0
H1015 H 0.88371 0.29346 0.70281 0.0
C1016 C 0.90843 0.32417 0.58267 0.0
C1017 C 0.89623 0.32362 0.54351 0.0
C1018 C 0.90695 0.32508 0.64533 0.0
C1019 C 0.89308 0.32517 0.67016 0.0
C1020 C 0.88118 0.32529 0.63108 0.0
H1021 H 0.85402 0.318 0.03119 0.0
H1022 H 0.85872 0.31914 0.92217 0.0
C1023 C 0.88276 0.32455 0.56822 0.0
C1024 C 0.8909 0.32494 0.73685 0.0
H1025 H 0.88778 0.3028 0.86469 0.0
C1026 C 0.8895 0.33785 0.76414 0.0
C1027 C 0.89011 0.31203 0.77344 0.0
C1028 C 0.89052 0.29728 0.74659 0.0
C1029 C 0.88758 0.33832 0.82712 0.0
C1030 C 0.88698 0.32553 0.86354 0.0
C1031 C 0.8884 0.31264 0.83646 0.0
C1032 C 0.88431 0.32502 0.92977 0.0
C1033 C 0.88634 0.35255 0.85453 0.0
C1034 C 0.8971 0.32768 0.97008 0.0
C1035 C 0.89453 0.32721 0.03273 0.0
C1036 C 0.87905 0.32391 0.05614 0.0
C1037 C 0.8662 0.32093 0.01518 0.0
C1038 C 0.86882 0.32152 0.9527 0.0
H1039 H 0.89009 0.36294 0.822 0.0
H1040 H 0.87328 0.34806 0.86843 0.0
H1041 H 0.89428 0.35732 0.89563 0.0
H1042 H 0.90913 0.33032 0.95303 0.0
H1043 H 0.90477 0.32973 0.06259 0.0
H1044 H 0.12391 0.49922 0.20183 0.0
H1045 H 0.12323 0.52461 0.22502 0.0
H1046 H 0.10061 0.52174 0.05138 0.0
H1047 H 0.10091 0.49607 0.02825 0.0
H1048 H 0.13845 0.55469 0.15848 0.0
H1049 H 0.06989 0.5273 0.1739 0.0
H1050 H 0.07983 0.51485 0.17733 0.0
H1051 H 0.07717 0.52241 0.10571 0.0
C1052 C 0.11857 0.50384 0.16887 0.0
C1053 C 0.11234 0.49555 0.11334 0.0
C1054 C 0.11829 0.51841 0.18206 0.0
C1055 C 0.11168 0.52492 0.14026 0.0
C1056 C 0.10553 0.51676 0.08465 0.0
H1057 H 0.12587 0.62436 0.1274 0.0
H1058 H 0.12516 0.59811 0.10759 0.0
C1059 C 0.10586 0.5022 0.07127 0.0
C1060 C 0.1117 0.54054 0.15432 0.0
H1061 H 0.08623 0.55675 0.17713 0.0
C1062 C 0.12704 0.55515 0.16267 0.0
C1063 C 0.09678 0.54103 0.16046 0.0
C1064 C 0.07995 0.52555 0.15444 0.0
C1065 C 0.12788 0.57033 0.17597 0.0
C1066 C 0.11298 0.57092 0.18045 0.0
C1067 C 0.09762 0.55626 0.17321 0.0
C1068 C 0.11314 0.58669 0.19226 0.0
C1069 C 0.14469 0.5856 0.18577 0.0
C1070 C 0.10631 0.58884 0.24594 0.0
C1071 C 0.10662 0.60381 0.25732 0.0
C1072 C 0.1136 0.61683 0.21482 0.0
C1073 C 0.12025 0.61453 0.16077 0.0
C1074 C 0.12 0.5996 0.14961 0.0
H1075 H 0.15449 0.58235 0.19483 0.0
H1076 H 0.14827 0.59344 0.14444 0.0
H1077 H 0.1443 0.59311 0.22427 0.0
H1078 H 0.10087 0.57897 0.27926 0.0
H1079 H 0.10124 0.60514 0.29905 0.0
H1080 H 0.6198 0.10357 0.58163 0.0
H1081 H 0.594 0.10224 0.61445 0.0
H1082 H 0.57669 0.09444 0.42931 0.0
H1083 H 0.6027 0.09618 0.3961 0.0
H1084 H 0.57248 0.11767 0.48081 0.0
H1085 H 0.54784 0.06383 0.63641 0.0
H1086 H 0.56851 0.07965 0.65654 0.0
H1087 H 0.5649 0.06887 0.58532 0.0
C1088 C 0.61035 0.10126 0.54808 0.0
C1089 C 0.61323 0.0999 0.4863 0.0
C1090 C 0.59557 0.10045 0.56693 0.0
C1091 C 0.58323 0.09795 0.52455 0.0
C1092 C 0.58599 0.09632 0.46292 0.0
H1093 H 0.48309 0.07713 0.61274 0.0
H1094 H 0.5076 0.07538 0.58414 0.0
C1095 C 0.60085 0.09733 0.44396 0.0
C1096 C 0.56796 0.09815 0.54383 0.0
H1097 H 0.53525 0.08084 0.64275 0.0
C1098 C 0.56429 0.10952 0.51594 0.0
C1099 C 0.55712 0.0874 0.58916 0.0
C1100 C 0.55968 0.07414 0.61813 0.0
C1101 C 0.55028 0.11063 0.53265 0.0
C1102 C 0.53989 0.10044 0.58 0.0
C1103 C 0.54336 0.08884 0.60716 0.0
C1104 C 0.52514 0.10138 0.60086 0.0
C1105 C 0.54659 0.12248 0.49838 0.0
C1106 C 0.52685 0.11647 0.62149 0.0
C1107 C 0.51282 0.11759 0.63688 0.0
C1108 C 0.49676 0.10356 0.63297 0.0
C1109 C 0.4952 0.08827 0.61517 0.0
C1110 C 0.50923 0.08721 0.59922 0.0
H1111 H 0.55262 0.12552 0.45306 0.0
H1112 H 0.53299 0.11721 0.49214 0.0
H1113 H 0.55154 0.13427 0.52426 0.0
H1114 H 0.53903 0.12748 0.62466 0.0
H1115 H 0.51459 0.12961 0.64982 0.0
H1116 H 0.52584 0.61134 0.92011 0.0
H1117 H 0.50189 0.58467 0.95025 0.0
H1118 H 0.46961 0.59517 0.84167 0.0
H1119 H 0.49339 0.62174 0.81139 0.0
H1120 H 0.45678 0.58336 0.95528 0.0
H1121 H 0.47754 0.54305 0.84479 0.0
H1122 H 0.49216 0.55802 0.89736 0.0
H1123 H 0.48706 0.56499 0.82896 0.0
C1124 C 0.51365 0.60791 0.90234 0.0
C1125 C 0.51154 0.61869 0.86334 0.0
C1126 C 0.49998 0.59265 0.91955 0.0
C1127 C 0.48398 0.58783 0.89763 0.0
C1128 C 0.48184 0.59864 0.85921 0.0
H1129 H 0.39477 0.49276 0.87218 0.0
H1130 H 0.42098 0.51867 0.8577 0.0
C1131 C 0.49545 0.61387 0.84216 0.0
C1132 C 0.46936 0.5716 0.91467 0.0
H1133 H 0.45272 0.52956 0.90192 0.0
C1134 C 0.45591 0.57158 0.94393 0.0
C1135 C 0.46819 0.55626 0.89922 0.0
C1136 C 0.48192 0.55548 0.86538 0.0
C1137 C 0.44127 0.55667 0.95762 0.0
C1138 C 0.44015 0.54132 0.94264 0.0
C1139 C 0.45366 0.54133 0.91388 0.0
C1140 C 0.42468 0.52517 0.95287 0.0
C1141 C 0.4269 0.5575 0.98596 0.0
C1142 C 0.41817 0.52002 0.01139 0.0
C1143 C 0.40314 0.50513 0.0199 0.0
C1144 C 0.39443 0.49503 0.97007 0.0
C1145 C 0.40124 0.50006 0.91171 0.0
C1146 C 0.41621 0.51494 0.90327 0.0
H1147 H 0.42834 0.57007 0.98168 0.0
H1148 H 0.41492 0.54831 0.96472 0.0
H1149 H 0.42626 0.55453 0.03493 0.0
H1150 H 0.42467 0.52755 0.05048 0.0
H1151 H 0.39834 0.50152 0.06548 0.0
H1152 H 0.92946 0.40833 0.27574 0.0
H1153 H 0.93164 0.43523 0.25402 0.0
H1154 H 0.87839 0.41277 0.26976 0.0
H1155 H 0.87604 0.38591 0.29049 0.0
H1156 H 0.91677 0.44291 0.15777 0.0
H1157 H 0.89558 0.45381 0.37905 0.0
H1158 H 0.90221 0.43869 0.36912 0.0
H1159 H 0.88159 0.4338 0.34695 0.0
C1160 C 0.91821 0.40912 0.27476 0.0
C1161 C 0.90259 0.39493 0.28547 0.0
C1162 C 0.91949 0.42452 0.26255 0.0
C1163 C 0.90521 0.42608 0.26127 0.0
C1164 C 0.88963 0.41198 0.27205 0.0
H1165 H 0.87503 0.49637 0.16604 0.0
H1166 H 0.87801 0.47287 0.19836 0.0
C1167 C 0.88832 0.3966 0.2841 0.0
C1168 C 0.90637 0.44219 0.24569 0.0
H1169 H 0.896 0.4706 0.2963 0.0
C1170 C 0.91245 0.44911 0.18831 0.0
C1171 C 0.90072 0.45025 0.28561 0.0
C1172 C 0.8948 0.44386 0.34886 0.0
C1173 C 0.91234 0.46347 0.16878 0.0
C1174 C 0.90626 0.47126 0.20813 0.0
C1175 C 0.90061 0.46459 0.26611 0.0
C1176 C 0.90479 0.4858 0.18888 0.0
C1177 C 0.91807 0.46976 0.10529 0.0
C1178 C 0.9189 0.501 0.17346 0.0
C1179 C 0.91723 0.51449 0.15449 0.0
C1180 C 0.90141 0.51303 0.15064 0.0
C1181 C 0.88736 0.49786 0.16724 0.0
C1182 C 0.88905 0.48443 0.18623 0.0
H1183 H 0.91899 0.4604 0.07664 0.0
H1184 H 0.90944 0.47315 0.08313 0.0
H1185 H 0.93056 0.48107 0.1073 0.0
H1186 H 0.9312 0.50243 0.17614 0.0
H1187 H 0.92829 0.52597 0.14194 0.0
H1188 H 0.51446 0.9139 0.54147 0.0
H1189 H 0.49007 0.91586 0.51216 0.0
H1190 H 0.48187 0.88362 0.35955 0.0
H1191 H 0.50648 0.88186 0.38776 0.0
H1192 H 0.47803 0.91209 0.33402 0.0
H1193 H 0.44206 0.87623 0.53554 0.0
H1194 H 0.46209 0.89397 0.55155 0.0
H1195 H 0.46079 0.87661 0.51076 0.0
C1196 C 0.50765 0.90744 0.50108 0.0
C1197 C 0.51238 0.89765 0.46713 0.0
C1198 C 0.49362 0.90846 0.48473 0.0
C1199 C 0.48404 0.8997 0.4342 0.0
C1200 C 0.48905 0.8904 0.39893 0.0
H1201 H 0.38196 0.87157 0.35657 0.0
H1202 H 0.40851 0.87262 0.37251 0.0
C1203 C 0.50305 0.88932 0.41534 0.0
C1204 C 0.46847 0.89974 0.41935 0.0
H1205 H 0.42944 0.88738 0.47272 0.0
C1206 C 0.46739 0.90671 0.36428 0.0
C1207 C 0.45457 0.89254 0.45865 0.0
C1208 C 0.45479 0.88427 0.51724 0.0
C1209 C 0.45281 0.90682 0.34778 0.0
C1210 C 0.43901 0.89987 0.38761 0.0
C1211 C 0.44007 0.89278 0.4424 0.0
C1212 C 0.42319 0.89947 0.37307 0.0
C1213 C 0.45214 0.91407 0.2874 0.0
C1214 C 0.42264 0.91424 0.36769 0.0
C1215 C 0.40745 0.9137 0.35818 0.0
C1216 C 0.39252 0.89836 0.35393 0.0
C1217 C 0.39321 0.8836 0.35839 0.0
C1218 C 0.40837 0.88416 0.36804 0.0
H1219 H 0.4622 0.91543 0.25653 0.0
H1220 H 0.43994 0.90617 0.26492 0.0
H1221 H 0.45365 0.92657 0.29468 0.0
H1222 H 0.43389 0.92619 0.37237 0.0
H1223 H 0.40736 0.92528 0.35484 0.0
H1224 H 0.61607 0.51165 0.8277 0.0
H1225 H 0.58923 0.48675 0.80925 0.0
H1226 H 0.58004 0.48065 1.00179 0.0
H1227 H 0.60722 0.50547 0.02059 0.0
H1228 H 0.57208 0.45185 0.95066 0.0
H1229 H 0.54362 0.48108 0.815 0.0
H1230 H 0.56303 0.48513 0.7828 0.0
H1231 H 0.56269 0.49315 0.8569 0.0
C1232 C 0.60824 0.50514 0.86612 0.0
C1233 C 0.61366 0.51063 0.92561 0.0
C1234 C 0.59284 0.49093 0.85548 0.0
C1235 C 0.58237 0.48203 0.904 0.0
C1236 C 0.58782 0.48739 0.96357 0.0
H1237 H 0.48007 0.40271 0.82951 0.0
H1238 H 0.50426 0.42842 0.86491 0.0
C1239 C 0.60335 0.50154 0.9743 0.0
C1240 C 0.56612 0.46673 0.8923 0.0
H1241 H 0.53079 0.45135 0.80663 0.0
C1242 C 0.56297 0.45179 0.91972 0.0
C1243 C 0.55402 0.46664 0.85291 0.0
C1244 C 0.55593 0.48241 0.82579 0.0
C1245 C 0.54841 0.4367 0.90693 0.0
C1246 C 0.5369 0.43643 0.86409 0.0
C1247 C 0.53971 0.45147 0.83867 0.0
C1248 C 0.52213 0.42065 0.8438 0.0
C1249 C 0.5455 0.42124 0.93987 0.0
C1250 C 0.5241 0.40779 0.81932 0.0
C1251 C 0.51028 0.39298 0.80001 0.0
C1252 C 0.49414 0.39075 0.80351 0.0
C1253 C 0.49224 0.40382 0.82694 0.0
C1254 C 0.50609 0.4186 0.84683 0.0
H1255 H 0.55206 0.42436 0.98422 0.0
H1256 H 0.53204 0.4126 0.94791 0.0
H1257 H 0.55047 0.41472 0.9122 0.0
H1258 H 0.53636 0.40921 0.81492 0.0
H1259 H 0.5123 0.38318 0.78312 0.0
H1260 H 0.27541 0.44384 0.04893 0.0
H1261 H 0.24574 0.43361 0.05078 0.0
H1262 H 0.23687 0.39037 0.94825 0.0
H1263 H 0.26708 0.4008 0.94541 0.0
H1264 H 0.21947 0.4048 0.90313 0.0
H1265 H 0.20922 0.39703 0.14948 0.0
H1266 H 0.22647 0.41727 0.13358 0.0
H1267 H 0.22771 0.39905 0.11416 0.0
C1268 C 0.26725 0.43206 0.02707 0.0
C1269 C 0.27369 0.42313 0.99708 0.0
C1270 C 0.25018 0.42613 0.02874 0.0
C1271 C 0.23897 0.41101 1.001 0.0
C1272 C 0.24527 0.40197 0.97072 0.0
H1273 H 0.1391 0.39756 0.06621 0.0
H1274 H 0.15932 0.38786 0.05523 0.0
C1275 C 0.26251 0.40793 0.96911 0.0
C1276 C 0.22092 0.40566 1.00064 0.0
H1277 H 0.19078 0.40412 0.09379 0.0
C1278 C 0.213 0.40418 0.94487 0.0
C1279 C 0.21219 0.40436 0.05492 0.0
C1280 C 0.2193 0.40432 0.11635 0.0
C1281 C 0.19737 0.40316 0.94199 0.0
C1282 C 0.18964 0.40404 0.9962 0.0
C1283 C 0.19676 0.40376 0.05203 0.0
C1284 C 0.1759 0.40797 0.99597 0.0
C1285 C 0.18962 0.40179 0.88064 0.0
C1286 C 0.17835 0.42234 0.96606 0.0
C1287 C 0.16693 0.42782 0.97228 0.0
C1288 C 0.15276 0.41918 1.00904 0.0
C1289 C 0.14983 0.40439 0.03719 0.0
C1290 C 0.16141 0.39889 0.03109 0.0
H1291 H 0.19279 0.39449 0.84896 0.0
H1292 H 0.17587 0.39584 0.88359 0.0
H1293 H 0.19467 0.41442 0.86108 0.0
H1294 H 0.18958 0.42987 0.94017 0.0
H1295 H 0.16957 0.43926 0.94988 0.0
H1296 H 0.86463 0.26632 0.27154 0.0
H1297 H 0.84387 0.23644 0.2781 0.0
H1298 H 0.81102 0.24818 0.37733 0.0
H1299 H 0.83142 0.27756 0.37176 0.0
H1300 H 0.81339 0.22185 0.42789 0.0
H1301 H 0.80006 0.21313 0.18008 0.0
H1302 H 0.82125 0.22131 0.20448 0.0
H1303 H 0.81136 0.23354 0.21387 0.0
C1304 C 0.85299 0.26247 0.29487 0.0
C1305 C 0.84968 0.27437 0.32078 0.0
C1306 C 0.84112 0.24541 0.29841 0.0
C1307 C 0.82582 0.24006 0.32788 0.0
C1308 C 0.82273 0.25196 0.35451 0.0
H1309 H 0.72626 0.17151 0.3156 0.0
H1310 H 0.7554 0.19207 0.30147 0.0
C1311 C 0.83444 0.26883 0.35098 0.0
C1312 C 0.81252 0.22227 0.33052 0.0
H1313 H 0.78177 0.19175 0.24447 0.0
C1314 C 0.80668 0.21505 0.38774 0.0
C1315 C 0.80376 0.21345 0.27807 0.0
C1316 C 0.80928 0.22069 0.21551 0.0
C1317 C 0.79171 0.19987 0.39425 0.0
C1318 C 0.78244 0.19151 0.34194 0.0
C1319 C 0.78891 0.19814 0.2845 0.0
C1320 C 0.76484 0.17775 0.34615 0.0
C1321 C 0.78529 0.1936 0.45723 0.0
C1322 C 0.76031 0.16254 0.3749 0.0
C1323 C 0.74343 0.15061 0.38342 0.0
C1324 C 0.73088 0.15377 0.36331 0.0
C1325 C 0.73555 0.16869 0.33229 0.0
C1326 C 0.75227 0.18048 0.3238 0.0
H1327 H 0.7929 0.20273 0.49286 0.0
H1328 H 0.77221 0.19076 0.46183 0.0
H1329 H 0.78555 0.18196 0.4655 0.0
H1330 H 0.76979 0.16003 0.39173 0.0
H1331 H 0.74023 0.13921 0.40724 0.0
H1332 H 0.6011 0.8646 0.59602 0.0
H1333 H 0.61038 0.84424 0.61091 0.0
H1334 H 0.56516 0.81243 0.70867 0.0
H1335 H 0.55605 0.83264 0.69506 0.0
H1336 H 0.5926 0.81291 0.75974 0.0
H1337 H 0.58941 0.80129 0.51094 0.0
H1338 H 0.60321 0.82218 0.5365 0.0
H1339 H 0.58113 0.81331 0.54484 0.0
C1340 C 0.59335 0.85343 0.62184 0.0
C1341 C 0.57777 0.85016 0.64387 0.0
C1342 C 0.59858 0.84173 0.62981 0.0
C1343 C 0.58832 0.82663 0.65994 0.0
C1344 C 0.57328 0.82392 0.68507 0.0
H1345 H 0.55627 0.72655 0.64062 0.0
H1346 H 0.56519 0.75581 0.62657 0.0
C1347 C 0.56806 0.8355 0.67706 0.0
C1348 C 0.59226 0.81293 0.66226 0.0
H1349 H 0.59237 0.78273 0.57391 0.0
C1350 C 0.59295 0.8065 0.71912 0.0
C1351 C 0.5926 0.80452 0.60917 0.0
C1352 C 0.59145 0.81054 0.54679 0.0
C1353 C 0.5929 0.79138 0.72446 0.0
C1354 C 0.59243 0.78256 0.67139 0.0
C1355 C 0.59283 0.78954 0.61451 0.0
C1356 C 0.5886 0.76496 0.67389 0.0
C1357 C 0.59208 0.78437 0.78687 0.0
C1358 C 0.59906 0.76025 0.70335 0.0
C1359 C 0.59393 0.74335 0.71153 0.0
C1360 C 0.57826 0.73095 0.69042 0.0
C1361 C 0.56835 0.73578 0.6579 0.0
C1362 C 0.57346 0.75254 0.64964 0.0
H1363 H 0.59017 0.79162 0.82287 0.0
H1364 H 0.58179 0.77126 0.78938 0.0
H1365 H 0.6039 0.78455 0.79646 0.0
H1366 H 0.61093 0.76962 0.72158 0.0
H1367 H 0.60183 0.74001 0.73685 0.0
H1368 H 0.83434 0.55841 0.96062 0.0
H1369 H 0.81479 0.56813 0.94449 0.0
H1370 H 0.84754 0.61378 0.03851 0.0
H1371 H 0.86729 0.60382 0.05625 0.0
H1372 H 0.81658 0.60041 0.08082 0.0
H1373 H 0.81246 0.60059 0.83238 0.0
H1374 H 0.80969 0.58095 0.8563 0.0
H1375 H 0.82921 0.59971 0.87065 0.0
C1376 C 0.8376 0.57065 0.97721 0.0
C1377 C 0.8524 0.58031 1.00996 0.0
C1378 C 0.82643 0.5763 0.96724 0.0
C1379 C 0.82976 0.59186 0.98907 0.0
C1380 C 0.84476 0.6018 0.02056 0.0
H1381 H 0.74148 0.60226 0.91348 0.0
H1382 H 0.77144 0.6115 0.91822 0.0
C1383 C 0.85605 0.59612 0.03058 0.0
C1384 C 0.81659 0.59653 0.98448 0.0
H1385 H 0.78677 0.59407 0.88716 0.0
C1386 C 0.81035 0.59949 0.03817 0.0
C1387 C 0.80859 0.59579 0.92886 0.0
C1388 C 0.8155 0.59428 0.86881 0.0
C1389 C 0.79549 0.60005 0.03842 0.0
C1390 C 0.78639 0.59718 0.98384 0.0
C1391 C 0.7935 0.59592 0.92932 0.0
C1392 C 0.76864 0.59295 0.98382 0.0
C1393 C 0.78936 0.60308 0.09776 0.0
C1394 C 0.75712 0.57944 0.01858 0.0
C1395 C 0.7402 0.57419 0.01589 0.0
C1396 C 0.7342 0.58218 0.97787 0.0
C1397 C 0.74571 0.5959 0.94347 0.0
C1398 C 0.76281 0.60117 0.94609 0.0
H1399 H 0.79996 0.61128 0.12773 0.0
H1400 H 0.7815 0.60884 0.09076 0.0
H1401 H 0.78188 0.59106 0.12163 0.0
H1402 H 0.76115 0.57255 0.04665 0.0
H1403 H 0.73176 0.56356 0.04302 0.0
H1404 H 0.26616 0.86847 0.33808 0.0
H1405 H 0.23594 0.84874 0.33127 0.0
H1406 H 0.24325 0.81059 0.41173 0.0
H1407 H 0.27313 0.82994 0.41751 0.0
H1408 H 0.22262 0.81639 0.26466 0.0
H1409 H 0.20255 0.80816 0.50442 0.0
H1410 H 0.22077 0.82667 0.47708 0.0
H1411 H 0.22173 0.80819 0.49305 0.0
C1412 C 0.26119 0.85598 0.3556 0.0
C1413 C 0.27194 0.85071 0.37843 0.0
C1414 C 0.24399 0.84473 0.35143 0.0
C1415 C 0.23734 0.82824 0.37154 0.0
C1416 C 0.24805 0.82329 0.39674 0.0
H1417 H 0.17014 0.72981 0.37162 0.0
H1418 H 0.18953 0.75912 0.38864 0.0
C1419 C 0.26514 0.83435 0.39982 0.0
C1420 C 0.21963 0.81547 0.36147 0.0
H1421 H 0.18629 0.78499 0.43746 0.0
C1422 C 0.21437 0.80979 0.30213 0.0
C1423 C 0.20894 0.80692 0.41046 0.0
C1424 C 0.2137 0.81288 0.47486 0.0
C1425 C 0.19942 0.79485 0.29099 0.0
C1426 C 0.18937 0.78555 0.34055 0.0
C1427 C 0.19397 0.79207 0.39943 0.0
C1428 C 0.17612 0.76782 0.33372 0.0
C1429 C 0.19526 0.7884 0.22684 0.0
C1430 C 0.16175 0.76282 0.29829 0.0
C1431 C 0.15048 0.74581 0.28828 0.0
C1432 C 0.15352 0.73367 0.31338 0.0
C1433 C 0.16749 0.73881 0.35096 0.0
C1434 C 0.1786 0.75562 0.36106 0.0
H1435 H 0.2053 0.79627 0.1944 0.0
H1436 H 0.19304 0.77551 0.22428 0.0
H1437 H 0.18368 0.78813 0.21233 0.0
H1438 H 0.15945 0.77202 0.27743 0.0
H1439 H 0.1398 0.74221 0.25919 0.0
H1440 H 0.4369 0.27701 0.59886 0.0
H1441 H 0.42978 0.24806 0.58694 0.0
H1442 H 0.40359 0.236 0.75763 0.0
H1443 H 0.41015 0.265 0.76818 0.0
H1444 H 0.44192 0.23494 0.66023 0.0
H1445 H 0.37337 0.1947 0.66259 0.0
H1446 H 0.38345 0.21687 0.65019 0.0
H1447 H 0.381 0.20873 0.72585 0.0
C1448 C 0.42913 0.26804 0.63281 0.0
C1449 C 0.42404 0.27319 0.68437 0.0
C1450 C 0.42509 0.25149 0.62606 0.0
C1451 C 0.41612 0.23973 0.67127 0.0
C1452 C 0.41021 0.24467 0.72139 0.0
H1453 H 0.43413 0.16158 0.77211 0.0
H1454 H 0.42791 0.18414 0.76744 0.0
C1455 C 0.41399 0.26127 0.72755 0.0
C1456 C 0.41528 0.22327 0.66987 0.0
H1457 H 0.38931 0.18118 0.68173 0.0
C1458 C 0.43034 0.22322 0.6641 0.0
C1459 C 0.40023 0.20788 0.6748 0.0
C1460 C 0.38358 0.20699 0.67809 0.0
C1461 C 0.43083 0.20839 0.66443 0.0
C1462 C 0.41591 0.19308 0.67209 0.0
C1463 C 0.40075 0.19295 0.6763 0.0
C1464 C 0.41634 0.1774 0.67906 0.0
C1465 C 0.44742 0.20924 0.65725 0.0
C1466 C 0.41115 0.1656 0.63203 0.0
C1467 C 0.41461 0.1525 0.63478 0.0
C1468 C 0.4234 0.15118 0.68438 0.0
C1469 C 0.42749 0.16236 0.73301 0.0
C1470 C 0.42392 0.17526 0.73051 0.0
H1471 H 0.45698 0.22129 0.63768 0.0
H1472 H 0.45188 0.20787 0.70238 0.0
H1473 H 0.44626 0.19901 0.62773 0.0
H1474 H 0.40531 0.16707 0.59186 0.0
H1475 H 0.41138 0.1441 0.59656 0.0
loop_
_geom_bond_atom_site_label_1
_geom_bond_atom_site_label_2
_geom_bond_distance
_geom_bond_site_symmetry_2
_ccdc_geom_bond_type
C0 C1 1.351 . S
C0 N3 1.368 . S
C0 H5 0.931 . S
C1 C0 1.351 . S
C1 N2 1.373 . S
C1 H29 0.930 . S
N2 C1 1.373 . S
N2 C4 1.340 . S
N3 C0 1.368 . S
N3 C4 1.321 . S
N3 Co6 2.135 . S
C4 N2 1.340 . S
C4 N3 1.321 . S
C4 H28 0.930 . S
H5 C0 0.931 . S
Co6 N3 2.135 . S
Co6 N9 2.121 . S
Co6 O14 2.055 . S
Co6 O17 2.039 . S
Co6 N20 2.140 . S
C7 O8 1.227 . S
C7 O17 1.265 . S
O8 C7 1.227 . S
N9 Co6 2.121 . S
N9 C11 1.375 . S
N9 C12 1.313 1_554 S
C10 C11 1.338 1_556 S
C10 N13 1.377 . S
C10 H30 0.930 . S
C11 N9 1.375 . S
C11 C10 1.338 1_554 S
C11 H15 0.931 . S
C12 N9 1.313 1_556 S
C12 N13 1.344 . S
C12 H16 0.930 . S
N13 C10 1.377 . S
N13 C12 1.344 . S
O14 Co6 2.055 . S
O14 C18 1.253 . S
H15 C11 0.931 . S
H16 C12 0.930 . S
O17 Co6 2.039 . S
O17 C7 1.265 . S
C18 O14 1.253 . S
C18 O19 1.227 . S
O19 C18 1.227 . S
N20 Co6 2.140 . S
N20 C23 1.346 . S
N20 C24 1.345 . S
C21 C22 1.387 . S
C21 C25 1.391 . S
C22 C21 1.387 . S
C22 C23 1.369 . S
C22 H31 0.929 . S
C23 N20 1.346 . S
C23 C22 1.369 . S
C23 H26 0.928 . S
C24 N20 1.345 . S
C24 C25 1.371 . S
C24 H27 0.931 . S
C25 C21 1.391 . S
C25 C24 1.371 . S
C25 H32 0.930 . S
H26 C23 0.928 . S
H27 C24 0.931 . S
H28 C4 0.930 . S
H29 C1 0.930 . S
H30 C10 0.930 . S
H31 C22 0.929 . S
H32 C25 0.930 . S
C33 C34 1.351 . S
C33 N36 1.368 . S
C33 H38 0.931 . S
C34 C33 1.351 . S
C34 N35 1.373 . S
C34 H62 0.930 . S
N35 C34 1.373 . S
N35 C37 1.340 . S
N36 C33 1.368 . S
N36 C37 1.321 . S
N36 Co39 2.135 . S
C37 N35 1.340 . S
C37 N36 1.321 . S
C37 H61 0.930 . S
H38 C33 0.931 . S
Co39 N36 2.135 . S
Co39 N42 2.121 . S
Co39 O47 2.055 . S
Co39 O50 2.039 . S
Co39 N53 2.140 . S
C40 O41 1.227 . S
C40 O50 1.265 . S
O41 C40 1.227 . S
N42 Co39 2.121 . S
N42 C44 1.375 . S
N42 C45 1.313 . S
C43 C44 1.338 . S
C43 N46 1.377 . S
C43 H63 0.930 . S
C44 N42 1.375 . S
C44 C43 1.338 . S
C44 H48 0.931 . S
C45 N42 1.313 . S
C45 N46 1.344 . S
C45 H49 0.930 . S
N46 C43 1.377 . S
N46 C45 1.344 . S
O47 Co39 2.055 . S
O47 C51 1.253 . S
H48 C44 0.931 . S
H49 C45 0.930 . S
O50 Co39 2.039 . S
O50 C40 1.265 . S
C51 O47 1.253 . S
C51 O52 1.227 . S
O52 C51 1.227 . S
N53 Co39 2.140 . S
N53 C56 1.346 . S
N53 C57 1.345 . S
C54 C55 1.387 . S
C54 C58 1.391 . S
C55 C54 1.387 . S
C55 C56 1.369 . S
C55 H64 0.929 . S
C56 N53 1.346 . S
C56 C55 1.369 . S
C56 H59 0.928 . S
C57 N53 1.345 . S
C57 C58 1.371 . S
C57 H60 0.931 . S
C58 C54 1.391 . S
C58 C57 1.371 . S
C58 H65 0.930 . S
H59 C56 0.928 . S
H60 C57 0.931 . S
H61 C37 0.930 . S
H62 C34 0.930 . S
H63 C43 0.930 . S
H64 C55 0.929 . S
H65 C58 0.930 . S
C66 C67 1.351 . S
C66 N69 1.368 . S
C66 H71 0.931 . S
C67 C66 1.351 . S
C67 N68 1.373 . S
C67 H95 0.930 . S
N68 C67 1.373 . S
N68 C70 1.340 . S
N69 C66 1.368 . S
N69 C70 1.321 . S
N69 Co72 2.135 . S
C70 N68 1.340 . S
C70 N69 1.321 . S
C70 H94 0.930 . S
H71 C66 0.931 . S
Co72 N69 2.135 . S
Co72 N75 2.121 . S
Co72 O80 2.055 . S
Co72 O83 2.039 . S
Co72 N86 2.140 . S
C73 O74 1.227 . S
C73 O83 1.265 . S
O74 C73 1.227 . S
N75 Co72 2.121 . S
N75 C77 1.375 . S
N75 C78 1.313 . S
C76 C77 1.338 . S
C76 N79 1.377 . S
C76 H96 0.930 . S
C77 N75 1.375 . S
C77 C76 1.338 . S
C77 H81 0.931 . S
C78 N75 1.313 . S
C78 N79 1.344 . S
C78 H82 0.930 . S
N79 C76 1.377 . S
N79 C78 1.344 . S
O80 Co72 2.055 . S
O80 C84 1.253 . S
H81 C77 0.931 . S
H82 C78 0.930 . S
O83 Co72 2.039 . S
O83 C73 1.265 . S
C84 O80 1.253 . S
C84 O85 1.227 . S
O85 C84 1.227 . S
N86 Co72 2.140 . S
N86 C89 1.346 . S
N86 C90 1.345 . S
C87 C88 1.387 . S
C87 C91 1.391 . S
C88 C87 1.387 . S
C88 C89 1.369 . S
C88 H97 0.929 . S
C89 N86 1.346 . S
C89 C88 1.369 . S
C89 H92 0.928 . S
C90 N86 1.345 . S
C90 C91 1.371 . S
C90 H93 0.931 . S
C91 C87 1.391 . S
C91 C90 1.371 . S
C91 H98 0.930 . S
H92 C89 0.928 . S
H93 C90 0.931 . S
H94 C70 0.930 . S
H95 C67 0.930 . S
H96 C76 0.930 . S
H97 C88 0.929 . S
H98 C91 0.930 . S
C99 C100 1.351 . S
C99 N102 1.368 . S
C99 H104 0.931 . S
C100 C99 1.351 . S
C100 N101 1.373 . S
C100 H128 0.930 . S
N101 C100 1.373 . S
N101 C103 1.340 . S
N102 C99 1.368 . S
N102 C103 1.321 . S
N102 Co105 2.135 . S
C103 N101 1.340 . S
C103 N102 1.321 . S
C103 H127 0.930 . S
H104 C99 0.931 . S
Co105 N102 2.135 . S
Co105 N108 2.121 . S
Co105 O113 2.055 . S
Co105 O116 2.039 . S
Co105 N119 2.140 . S
C106 O107 1.227 . S
C106 O116 1.265 . S
O107 C106 1.227 . S
N108 Co105 2.121 . S
N108 C110 1.375 . S
N108 C111 1.313 1_554 S
C109 C110 1.338 1_556 S
C109 N112 1.377 . S
C109 H129 0.930 . S
C110 N108 1.375 . S
C110 C109 1.338 1_554 S
C110 H114 0.931 . S
C111 N108 1.313 1_556 S
C111 N112 1.344 . S
C111 H115 0.930 . S
N112 C109 1.377 . S
N112 C111 1.344 . S
O113 Co105 2.055 . S
O113 C117 1.253 . S
H114 C110 0.931 . S
H115 C111 0.930 . S
O116 Co105 2.039 . S
O116 C106 1.265 . S
C117 O113 1.253 . S
C117 O118 1.227 . S
O118 C117 1.227 . S
N119 Co105 2.140 . S
N119 C122 1.346 . S
N119 C123 1.345 . S
C120 C121 1.387 . S
C120 C124 1.391 . S
C121 C120 1.387 . S
C121 C122 1.369 . S
C121 H130 0.929 . S
C122 N119 1.346 . S
C122 C121 1.369 . S
C122 H125 0.928 . S
C123 N119 1.345 . S
C123 C124 1.371 . S
C123 H126 0.931 . S
C124 C120 1.391 . S
C124 C123 1.371 . S
C124 H131 0.930 . S
H125 C122 0.928 . S
H126 C123 0.931 . S
H127 C103 0.930 . S
H128 C100 0.930 . S
H129 C109 0.930 . S
H130 C121 0.929 . S
H131 C124 0.930 . S
C132 C133 1.351 . S
C132 N135 1.368 . S
C132 H137 0.931 . S
C133 C132 1.351 . S
C133 N134 1.373 . S
C133 H161 0.930 . S
N134 C133 1.373 . S
N134 C136 1.340 . S
N135 C132 1.368 . S
N135 C136 1.321 . S
N135 Co138 2.135 . S
C136 N134 1.340 . S
C136 N135 1.321 . S
C136 H160 0.930 . S
H137 C132 0.931 . S
Co138 N135 2.135 . S
Co138 N141 2.121 . S
Co138 O146 2.055 . S
Co138 O149 2.039 . S
Co138 N152 2.140 . S
C139 O140 1.227 . S
C139 O149 1.265 . S
O140 C139 1.227 . S
N141 Co138 2.121 . S
N141 C143 1.375 . S
N141 C144 1.313 . S
C142 C143 1.338 . S
C142 N145 1.377 . S
C142 H162 0.930 . S
C143 N141 1.375 . S
C143 C142 1.338 . S
C143 H147 0.931 . S
C144 N141 1.313 . S
C144 N145 1.344 . S
C144 H148 0.930 . S
N145 C142 1.377 . S
N145 C144 1.344 . S
O146 Co138 2.055 . S
O146 C150 1.253 . S
H147 C143 0.931 . S
H148 C144 0.930 . S
O149 Co138 2.039 . S
O149 C139 1.265 . S
C150 O146 1.253 . S
C150 O151 1.227 . S
O151 C150 1.227 . S
N152 Co138 2.140 . S
N152 C155 1.346 . S
N152 C156 1.345 . S
C153 C154 1.387 . S
C153 C157 1.391 . S
C154 C153 1.387 . S
C154 C155 1.369 . S
C154 H163 0.929 . S
C155 N152 1.346 . S
C155 C154 1.369 . S
C155 H158 0.928 . S
C156 N152 1.345 . S
C156 C157 1.371 . S
C156 H159 0.931 . S
C157 C153 1.391 . S
C157 C156 1.371 . S
C157 H164 0.930 . S
H158 C155 0.928 . S
H159 C156 0.931 . S
H160 C136 0.930 . S
H161 C133 0.930 . S
H162 C142 0.930 . S
H163 C154 0.929 . S
H164 C157 0.930 . S
C165 C166 1.351 . S
C165 N168 1.368 . S
C165 H170 0.931 . S
C166 C165 1.351 . S
C166 N167 1.373 . S
C166 H194 0.930 . S
N167 C166 1.373 . S
N167 C169 1.340 . S
N168 C165 1.368 . S
N168 C169 1.321 . S
N168 Co171 2.135 . S
C169 N167 1.340 . S
C169 N168 1.321 . S
C169 H193 0.930 . S
H170 C165 0.931 . S
Co171 N168 2.135 . S
Co171 N174 2.121 . S
Co171 O179 2.055 . S
Co171 O182 2.039 . S
Co171 N185 2.140 . S
C172 O173 1.227 . S
C172 O182 1.265 . S
O173 C172 1.227 . S
N174 Co171 2.121 . S
N174 C176 1.375 . S
N174 C177 1.313 . S
C175 C176 1.338 . S
C175 N178 1.377 . S
C175 H195 0.930 . S
C176 N174 1.375 . S
C176 C175 1.338 . S
C176 H180 0.931 . S
C177 N174 1.313 . S
C177 N178 1.344 . S
C177 H181 0.930 . S
N178 C175 1.377 . S
N178 C177 1.344 . S
O179 Co171 2.055 . S
O179 C183 1.253 . S
H180 C176 0.931 . S
H181 C177 0.930 . S
O182 Co171 2.039 . S
O182 C172 1.265 . S
C183 O179 1.253 . S
C183 O184 1.227 . S
O184 C183 1.227 . S
N185 Co171 2.140 . S
N185 C188 1.346 . S
N185 C189 1.345 . S
C186 C187 1.387 . S
C186 C190 1.391 . S
C187 C186 1.387 . S
C187 C188 1.369 . S
C187 H196 0.929 . S
C188 N185 1.346 . S
C188 C187 1.369 . S
C188 H191 0.928 . S
C189 N185 1.345 . S
C189 C190 1.371 . S
C189 H192 0.931 . S
C190 C186 1.391 . S
C190 C189 1.371 . S
C190 H197 0.930 . S
H191 C188 0.928 . S
H192 C189 0.931 . S
H193 C169 0.930 . S
H194 C166 0.930 . S
H195 C175 0.930 . S
H196 C187 0.929 . S
H197 C190 0.930 . S
C198 C199 1.351 . S
C198 N201 1.368 . S
C198 H203 0.931 . S
C199 C198 1.351 . S
C199 N200 1.373 . S
C199 H227 0.930 . S
N200 C199 1.373 . S
N200 C202 1.340 . S
N201 C198 1.368 . S
N201 C202 1.321 . S
N201 Co204 2.135 . S
C202 N200 1.340 . S
C202 N201 1.321 . S
C202 H226 0.930 . S
H203 C198 0.931 . S
Co204 N201 2.135 . S
Co204 N207 2.121 . S
Co204 O212 2.055 . S
Co204 O215 2.039 . S
Co204 N218 2.140 . S
C205 O206 1.227 . S
C205 O215 1.265 . S
O206 C205 1.227 . S
N207 Co204 2.121 . S
N207 C209 1.375 . S
N207 C210 1.313 . S
C208 C209 1.338 . S
C208 N211 1.377 . S
C208 H228 0.930 . S
C209 N207 1.375 . S
C209 C208 1.338 . S
C209 H213 0.931 . S
C210 N207 1.313 . S
C210 N211 1.344 . S
C210 H214 0.930 . S
N211 C208 1.377 . S
N211 C210 1.344 . S
O212 Co204 2.055 . S
O212 C216 1.253 . S
H213 C209 0.931 . S
H214 C210 0.930 . S
O215 Co204 2.039 . S
O215 C205 1.265 . S
C216 O212 1.253 . S
C216 O217 1.227 . S
O217 C216 1.227 . S
N218 Co204 2.140 . S
N218 C221 1.346 . S
N218 C222 1.345 . S
C219 C220 1.387 . S
C219 C223 1.391 . S
C220 C219 1.387 . S
C220 C221 1.369 . S
C220 H229 0.929 . S
C221 N218 1.346 . S
C221 C220 1.369 . S
C221 H224 0.928 . S
C222 N218 1.345 . S
C222 C223 1.371 . S
C222 H225 0.931 . S
C223 C219 1.391 . S
C223 C222 1.371 . S
C223 H230 0.930 . S
H224 C221 0.928 . S
H225 C222 0.931 . S
H226 C202 0.930 . S
H227 C199 0.930 . S
H228 C208 0.930 . S
H229 C220 0.929 . S
H230 C223 0.930 . S
C231 C232 1.351 . S
C231 N234 1.368 . S
C231 H236 0.931 . S
C232 C231 1.351 . S
C232 N233 1.373 . S
C232 H260 0.930 . S
N233 C232 1.373 . S
N233 C235 1.340 . S
N234 C231 1.368 . S
N234 C235 1.321 . S
N234 Co237 2.135 . S
C235 N233 1.340 . S
C235 N234 1.321 . S
C235 H259 0.930 . S
H236 C231 0.931 . S
Co237 N234 2.135 . S
Co237 N240 2.121 . S
Co237 O245 2.055 . S
Co237 O248 2.039 . S
Co237 N251 2.140 . S
C238 O239 1.227 . S
C238 O248 1.265 . S
O239 C238 1.227 . S
N240 Co237 2.121 . S
N240 C242 1.375 . S
N240 C243 1.313 1_556 S
C241 C242 1.338 1_554 S
C241 N244 1.377 . S
C241 H261 0.930 . S
C242 N240 1.375 . S
C242 C241 1.338 1_556 S
C242 H246 0.931 . S
C243 N240 1.313 1_554 S
C243 N244 1.344 . S
C243 H247 0.930 . S
N244 C241 1.377 . S
N244 C243 1.344 . S
O245 Co237 2.055 . S
O245 C249 1.253 . S
H246 C242 0.931 . S
H247 C243 0.930 . S
O248 Co237 2.039 . S
O248 C238 1.265 . S
C249 O245 1.253 . S
C249 O250 1.227 . S
O250 C249 1.227 . S
N251 Co237 2.140 . S
N251 C254 1.346 . S
N251 C255 1.345 . S
C252 C253 1.387 . S
C252 C256 1.391 . S
C253 C252 1.387 . S
C253 C254 1.369 . S
C253 H262 0.929 . S
C254 N251 1.346 . S
C254 C253 1.369 . S
C254 H257 0.928 . S
C255 N251 1.345 . S
C255 C256 1.371 . S
C255 H258 0.931 . S
C256 C252 1.391 . S
C256 C255 1.371 . S
C256 H263 0.930 . S
H257 C254 0.928 . S
H258 C255 0.931 . S
H259 C235 0.930 . S
H260 C232 0.930 . S
H261 C241 0.930 . S
H262 C253 0.929 . S
H263 C256 0.930 . S
C264 C265 1.351 . S
C264 N267 1.368 . S
C264 H269 0.931 . S
C265 C264 1.351 . S
C265 N266 1.373 . S
C265 H293 0.930 . S
N266 C265 1.373 . S
N266 C268 1.340 . S
N267 C264 1.368 . S
N267 C268 1.321 . S
N267 Co270 2.135 . S
C268 N266 1.340 . S
C268 N267 1.321 . S
C268 H292 0.930 . S
H269 C264 0.931 . S
Co270 N267 2.135 . S
Co270 N273 2.121 . S
Co270 O278 2.055 . S
Co270 O281 2.039 . S
Co270 N284 2.140 . S
C271 O272 1.227 . S
C271 O281 1.265 . S
O272 C271 1.227 . S
N273 Co270 2.121 . S
N273 C275 1.375 . S
N273 C276 1.313 . S
C274 C275 1.338 . S
C274 N277 1.377 . S
C274 H294 0.930 . S
C275 N273 1.375 . S
C275 C274 1.338 . S
C275 H279 0.931 . S
C276 N273 1.313 . S
C276 N277 1.344 . S
C276 H280 0.930 . S
N277 C274 1.377 . S
N277 C276 1.344 . S
O278 Co270 2.055 . S
O278 C282 1.253 . S
H279 C275 0.931 . S
H280 C276 0.930 . S
O281 Co270 2.039 . S
O281 C271 1.265 . S
C282 O278 1.253 . S
C282 O283 1.227 . S
O283 C282 1.227 . S
N284 Co270 2.140 . S
N284 C287 1.346 . S
N284 C288 1.345 . S
C285 C286 1.387 . S
C285 C289 1.391 . S
C286 C285 1.387 . S
C286 C287 1.369 . S
C286 H295 0.929 . S
C287 N284 1.346 . S
C287 C286 1.369 . S
C287 H290 0.928 . S
C288 N284 1.345 . S
C288 C289 1.371 . S
C288 H291 0.931 . S
C289 C285 1.391 . S
C289 C288 1.371 . S
C289 H296 0.930 . S
H290 C287 0.928 . S
H291 C288 0.931 . S
H292 C268 0.930 . S
H293 C265 0.930 . S
H294 C274 0.930 . S
H295 C286 0.929 . S
H296 C289 0.930 . S
C297 C298 1.351 . S
C297 N300 1.368 . S
C297 H302 0.931 . S
C298 C297 1.351 . S
C298 N299 1.373 . S
C298 H326 0.930 . S
N299 C298 1.373 . S
N299 C301 1.340 . S
N300 C297 1.368 . S
N300 C301 1.321 . S
N300 Co303 2.135 . S
C301 N299 1.340 . S
C301 N300 1.321 . S
C301 H325 0.930 . S
H302 C297 0.931 . S
Co303 N300 2.135 . S
Co303 N306 2.121 . S
Co303 O311 2.055 . S
Co303 O314 2.039 . S
Co303 N317 2.140 . S
C304 O305 1.227 . S
C304 O314 1.265 . S
O305 C304 1.227 . S
N306 Co303 2.121 . S
N306 C308 1.375 . S
N306 C309 1.313 . S
C307 C308 1.338 . S
C307 N310 1.377 . S
C307 H327 0.930 . S
C308 N306 1.375 . S
C308 C307 1.338 . S
C308 H312 0.931 . S
C309 N306 1.313 . S
C309 N310 1.344 . S
C309 H313 0.930 . S
N310 C307 1.377 . S
N310 C309 1.344 . S
O311 Co303 2.055 . S
O311 C315 1.253 . S
H312 C308 0.931 . S
H313 C309 0.930 . S
O314 Co303 2.039 . S
O314 C304 1.265 . S
C315 O311 1.253 . S
C315 O316 1.227 . S
O316 C315 1.227 . S
N317 Co303 2.140 . S
N317 C320 1.346 . S
N317 C321 1.345 . S
C318 C319 1.387 . S
C318 C322 1.391 . S
C319 C318 1.387 . S
C319 C320 1.369 . S
C319 H328 0.929 . S
C320 N317 1.346 . S
C320 C319 1.369 . S
C320 H323 0.928 . S
C321 N317 1.345 . S
C321 C322 1.371 . S
C321 H324 0.931 . S
C322 C318 1.391 . S
C322 C321 1.371 . S
C322 H329 0.930 . S
H323 C320 0.928 . S
H324 C321 0.931 . S
H325 C301 0.930 . S
H326 C298 0.930 . S
H327 C307 0.930 . S
H328 C319 0.929 . S
H329 C322 0.930 . S
C330 C331 1.351 . S
C330 N333 1.368 . S
C330 H335 0.931 . S
C331 C330 1.351 . S
C331 N332 1.373 . S
C331 H359 0.930 . S
N332 C331 1.373 . S
N332 C334 1.340 . S
N333 C330 1.368 . S
N333 C334 1.321 . S
N333 Co336 2.135 . S
C334 N332 1.340 . S
C334 N333 1.321 . S
C334 H358 0.930 . S
H335 C330 0.931 . S
Co336 N333 2.135 . S
Co336 N339 2.121 . S
Co336 O344 2.055 . S
Co336 O347 2.039 . S
Co336 N350 2.140 . S
C337 O338 1.227 . S
C337 O347 1.265 . S
O338 C337 1.227 . S
N339 Co336 2.121 . S
N339 C341 1.375 . S
N339 C342 1.313 1_556 S
C340 C341 1.338 1_554 S
C340 N343 1.377 . S
C340 H360 0.930 . S
C341 N339 1.375 . S
C341 C340 1.338 1_556 S
C341 H345 0.931 . S
C342 N339 1.313 1_554 S
C342 N343 1.344 . S
C342 H346 0.930 . S
N343 C340 1.377 . S
N343 C342 1.344 . S
O344 Co336 2.055 . S
O344 C348 1.253 . S
H345 C341 0.931 . S
H346 C342 0.930 . S
O347 Co336 2.039 . S
O347 C337 1.265 . S
C348 O344 1.253 . S
C348 O349 1.227 . S
O349 C348 1.227 . S
N350 Co336 2.140 . S
N350 C353 1.346 . S
N350 C354 1.345 . S
C351 C352 1.387 . S
C351 C355 1.391 . S
C352 C351 1.387 . S
C352 C353 1.369 . S
C352 H361 0.929 . S
C353 N350 1.346 . S
C353 C352 1.369 . S
C353 H356 0.928 . S
C354 N350 1.345 . S
C354 C355 1.371 . S
C354 H357 0.931 . S
C355 C351 1.391 . S
C355 C354 1.371 . S
C355 H362 0.930 . S
H356 C353 0.928 . S
H357 C354 0.931 . S
H358 C334 0.930 . S
H359 C331 0.930 . S
H360 C340 0.930 . S
H361 C352 0.929 . S
H362 C355 0.930 . S
C363 C364 1.351 . S
C363 N366 1.368 . S
C363 H368 0.931 . S
C364 C363 1.351 . S
C364 N365 1.373 . S
C364 H392 0.930 . S
N365 C364 1.373 . S
N365 C367 1.340 . S
N366 C363 1.368 . S
N366 C367 1.321 . S
N366 Co369 2.135 . S
C367 N365 1.340 . S
C367 N366 1.321 . S
C367 H391 0.930 . S
H368 C363 0.931 . S
Co369 N366 2.135 . S
Co369 N372 2.121 . S
Co369 O377 2.055 . S
Co369 O380 2.039 . S
Co369 N383 2.140 . S
C370 O371 1.227 . S
C370 O380 1.265 . S
O371 C370 1.227 . S
N372 Co369 2.121 . S
N372 C374 1.375 . S
N372 C375 1.313 . S
C373 C374 1.338 . S
C373 N376 1.377 . S
C373 H393 0.930 . S
C374 N372 1.375 . S
C374 C373 1.338 . S
C374 H378 0.931 . S
C375 N372 1.313 . S
C375 N376 1.344 . S
C375 H379 0.930 . S
N376 C373 1.377 . S
N376 C375 1.344 . S
O377 Co369 2.055 . S
O377 C381 1.253 . S
H378 C374 0.931 . S
H379 C375 0.930 . S
O380 Co369 2.039 . S
O380 C370 1.265 . S
C381 O377 1.253 . S
C381 O382 1.227 . S
O382 C381 1.227 . S
N383 Co369 2.140 . S
N383 C386 1.346 . S
N383 C387 1.345 . S
C384 C385 1.387 . S
C384 C388 1.391 . S
C385 C384 1.387 . S
C385 C386 1.369 . S
C385 H394 0.929 . S
C386 N383 1.346 . S
C386 C385 1.369 . S
C386 H389 0.928 . S
C387 N383 1.345 . S
C387 C388 1.371 . S
C387 H390 0.931 . S
C388 C384 1.391 . S
C388 C387 1.371 . S
C388 H395 0.930 . S
H389 C386 0.928 . S
H390 C387 0.931 . S
H391 C367 0.930 . S
H392 C364 0.930 . S
H393 C373 0.930 . S
H394 C385 0.929 . S
H395 C388 0.930 . S
H396 C404 0.929 . S
H397 C406 0.930 . S
H398 C408 0.930 . S
H399 C411 0.929 . S
H400 C414 0.930 . S
H401 C416 0.960 . S
H402 C416 0.960 . S
H403 C416 0.960 . S
C404 H396 0.929 . S
C404 C405 1.377 . S
C404 C406 1.384 . S
C405 C404 1.377 . S
C405 C411 1.390 . S
C406 H397 0.930 . S
C406 C404 1.384 . S
C406 C407 1.372 . S
C407 C406 1.372 . S
C407 C408 1.400 . S
C407 C412 1.490 . S
C408 H398 0.930 . S
C408 C407 1.400 . S
C408 C411 1.386 . S
H409 C425 0.930 . S
H410 C426 0.931 . S
C411 H399 0.929 . S
C411 C405 1.390 . S
C411 C408 1.386 . S
C412 C407 1.490 . S
C412 C414 1.395 . S
C412 C415 1.403 . S
H413 C419 0.930 . S
C414 H400 0.930 . S
C414 C412 1.395 . S
C414 C417 1.403 1_455 S
C415 C412 1.403 . S
C415 C416 1.524 . S
C415 C419 1.400 1_455 S
C416 H401 0.960 . S
C416 H402 0.960 . S
C416 H403 0.960 . S
C416 C415 1.524 . S
C417 C414 1.403 1_655 S
C417 C418 1.392 . S
C417 C421 1.495 . S
C418 C417 1.392 . S
C418 C419 1.385 . S
C418 C420 1.478 . S
C419 H413 0.930 . S
C419 C415 1.400 1_655 S
C419 C418 1.385 . S
C420 C418 1.478 . S
C420 C422 1.381 . S
C420 C426 1.383 . S
C421 C417 1.495 . S
C421 H427 0.959 . S
C421 H428 0.961 . S
C421 H429 0.960 . S
C422 C420 1.381 . S
C422 C423 1.394 . S
C422 H430 0.930 . S
C423 C422 1.394 . S
C423 C424 1.383 . S
C423 H431 0.929 . S
C424 C423 1.383 . S
C424 C425 1.377 . S
C425 H409 0.930 . S
C425 C424 1.377 . S
C425 C426 1.379 . S
C426 H410 0.931 . S
C426 C420 1.383 . S
C426 C425 1.379 . S
H427 C421 0.959 . S
H428 C421 0.961 . S
H429 C421 0.960 . S
H430 C422 0.930 . S
H431 C423 0.929 . S
H432 C440 0.929 . S
H433 C442 0.930 . S
H434 C444 0.930 . S
H435 C447 0.929 . S
H436 C450 0.930 . S
H437 C452 0.960 . S
H438 C452 0.960 . S
H439 C452 0.960 . S
C440 H432 0.929 . S
C440 C441 1.377 . S
C440 C442 1.384 . S
C441 C440 1.377 . S
C441 C447 1.390 . S
C442 H433 0.930 . S
C442 C440 1.384 . S
C442 C443 1.372 . S
C443 C442 1.372 . S
C443 C444 1.400 . S
C443 C448 1.490 . S
C444 H434 0.930 . S
C444 C443 1.400 . S
C444 C447 1.386 . S
H445 C461 0.930 . S
H446 C462 0.931 . S
C447 H435 0.929 . S
C447 C441 1.390 . S
C447 C444 1.386 . S
C448 C443 1.490 . S
C448 C450 1.395 . S
C448 C451 1.403 . S
H449 C455 0.930 . S
C450 H436 0.930 . S
C450 C448 1.395 . S
C450 C453 1.403 1_545 S
C451 C448 1.403 . S
C451 C452 1.524 . S
C451 C455 1.400 1_545 S
C452 H437 0.960 . S
C452 H438 0.960 . S
C452 H439 0.960 . S
C452 C451 1.524 . S
C453 C450 1.403 1_565 S
C453 C454 1.392 . S
C453 C457 1.495 . S
C454 C453 1.392 . S
C454 C455 1.385 . S
C454 C456 1.478 . S
C455 H449 0.930 . S
C455 C451 1.400 1_565 S
C455 C454 1.385 . S
C456 C454 1.478 . S
C456 C458 1.381 . S
C456 C462 1.383 . S
C457 C453 1.495 . S
C457 H463 0.959 . S
C457 H464 0.961 . S
C457 H465 0.960 . S
C458 C456 1.381 . S
C458 C459 1.394 . S
C458 H466 0.930 . S
C459 C458 1.394 . S
C459 C460 1.383 . S
C459 H467 0.929 . S
C460 C459 1.383 . S
C460 C461 1.377 . S
C461 H445 0.930 . S
C461 C460 1.377 . S
C461 C462 1.379 . S
C462 H446 0.931 . S
C462 C456 1.383 . S
C462 C461 1.379 . S
H463 C457 0.959 . S
H464 C457 0.961 . S
H465 C457 0.960 . S
H466 C458 0.930 . S
H467 C459 0.929 . S
H468 C476 0.929 . S
H469 C478 0.930 . S
H470 C480 0.930 . S
H471 C483 0.929 . S
H472 C486 0.930 . S
H473 C488 0.960 . S
H474 C488 0.960 . S
H475 C488 0.960 . S
C476 H468 0.929 . S
C476 C477 1.377 . S
C476 C478 1.384 . S
C477 C476 1.377 . S
C477 C483 1.390 . S
C478 H469 0.930 . S
C478 C476 1.384 . S
C478 C479 1.372 . S
C479 C478 1.372 . S
C479 C480 1.400 . S
C479 C484 1.490 . S
C480 H470 0.930 . S
C480 C479 1.400 . S
C480 C483 1.386 . S
H481 C497 0.930 . S
H482 C498 0.931 . S
C483 H471 0.929 . S
C483 C477 1.390 . S
C483 C480 1.386 . S
C484 C479 1.490 . S
C484 C486 1.395 . S
C484 C487 1.403 . S
H485 C491 0.930 . S
C486 H472 0.930 . S
C486 C484 1.395 . S
C486 C489 1.403 . S
C487 C484 1.403 . S
C487 C488 1.524 . S
C487 C491 1.400 . S
C488 H473 0.960 . S
C488 H474 0.960 . S
C488 H475 0.960 . S
C488 C487 1.524 . S
C489 C486 1.403 . S
C489 C490 1.392 . S
C489 C493 1.495 . S
C490 C489 1.392 . S
C490 C491 1.385 . S
C490 C492 1.478 . S
C491 H485 0.930 . S
C491 C487 1.400 . S
C491 C490 1.385 . S
C492 C490 1.478 . S
C492 C494 1.381 . S
C492 C498 1.383 . S
C493 C489 1.495 . S
C493 H499 0.959 . S
C493 H500 0.961 . S
C493 H501 0.960 . S
C494 C492 1.381 . S
C494 C495 1.394 . S
C494 H502 0.930 . S
C495 C494 1.394 . S
C495 C496 1.383 . S
C495 H503 0.929 . S
C496 C495 1.383 . S
C496 C497 1.377 . S
C497 H481 0.930 . S
C497 C496 1.377 . S
C497 C498 1.379 . S
C498 H482 0.931 . S
C498 C492 1.383 . S
C498 C497 1.379 . S
H499 C493 0.959 . S
H500 C493 0.961 . S
H501 C493 0.960 . S
H502 C494 0.930 . S
H503 C495 0.929 . S
H504 C512 0.929 . S
H505 C514 0.930 . S
H506 C516 0.930 . S
H507 C519 0.929 . S
H508 C522 0.930 . S
H509 C524 0.960 . S
H510 C524 0.960 . S
H511 C524 0.960 . S
C512 H504 0.929 . S
C512 C513 1.377 . S
C512 C514 1.384 . S
C513 C512 1.377 . S
C513 C519 1.390 . S
C514 H505 0.930 . S
C514 C512 1.384 . S
C514 C515 1.372 . S
C515 C514 1.372 . S
C515 C516 1.400 . S
C515 C520 1.490 . S
C516 H506 0.930 . S
C516 C515 1.400 . S
C516 C519 1.386 . S
H517 C533 0.930 . S
H518 C534 0.931 . S
C519 H507 0.929 . S
C519 C513 1.390 . S
C519 C516 1.386 . S
C520 C515 1.490 . S
C520 C522 1.395 . S
C520 C523 1.403 . S
H521 C527 0.930 . S
C522 H508 0.930 . S
C522 C520 1.395 . S
C522 C525 1.403 1_455 S
C523 C520 1.403 . S
C523 C524 1.524 . S
C523 C527 1.400 1_455 S
C524 H509 0.960 . S
C524 H510 0.960 . S
C524 H511 0.960 . S
C524 C523 1.524 . S
C525 C522 1.403 1_655 S
C525 C526 1.392 . S
C525 C529 1.495 . S
C526 C525 1.392 . S
C526 C527 1.385 . S
C526 C528 1.478 . S
C527 H521 0.930 . S
C527 C523 1.400 1_655 S
C527 C526 1.385 . S
C528 C526 1.478 . S
C528 C530 1.381 . S
C528 C534 1.383 . S
C529 C525 1.495 . S
C529 H535 0.959 . S
C529 H536 0.961 . S
C529 H537 0.960 . S
C530 C528 1.381 . S
C530 C531 1.394 . S
C530 H538 0.930 . S
C531 C530 1.394 . S
C531 C532 1.383 . S
C531 H539 0.929 . S
C532 C531 1.383 . S
C532 C533 1.377 . S
C533 H517 0.930 . S
C533 C532 1.377 . S
C533 C534 1.379 . S
C534 H518 0.931 . S
C534 C528 1.383 . S
C534 C533 1.379 . S
H535 C529 0.959 . S
H536 C529 0.961 . S
H537 C529 0.960 . S
H538 C530 0.930 . S
H539 C531 0.929 . S
H540 C548 0.929 . S
H541 C550 0.930 . S
H542 C552 0.930 . S
H543 C555 0.929 . S
H544 C558 0.930 . S
H545 C560 0.960 . S
H546 C560 0.960 . S
H547 C560 0.960 . S
C548 H540 0.929 . S
C548 C549 1.377 . S
C548 C550 1.384 . S
C549 C548 1.377 . S
C549 C555 1.390 . S
C550 H541 0.930 . S
C550 C548 1.384 . S
C550 C551 1.372 . S
C551 C550 1.372 . S
C551 C552 1.400 . S
C551 C556 1.490 . S
C552 H542 0.930 . S
C552 C551 1.400 . S
C552 C555 1.386 . S
H553 C569 0.930 . S
H554 C570 0.931 . S
C555 H543 0.929 . S
C555 C549 1.390 . S
C555 C552 1.386 . S
C556 C551 1.490 . S
C556 C558 1.395 . S
C556 C559 1.403 . S
H557 C563 0.930 . S
C558 H544 0.930 . S
C558 C556 1.395 . S
C558 C561 1.403 1_545 S
C559 C556 1.403 . S
C559 C560 1.524 . S
C559 C563 1.400 1_545 S
C560 H545 0.960 . S
C560 H546 0.960 . S
C560 H547 0.960 . S
C560 C559 1.524 . S
C561 C558 1.403 1_565 S
C561 C562 1.392 . S
C561 C565 1.495 . S
C562 C561 1.392 . S
C562 C563 1.385 . S
C562 C564 1.478 . S
C563 H557 0.930 . S
C563 C559 1.400 1_565 S
C563 C562 1.385 . S
C564 C562 1.478 . S
C564 C566 1.381 . S
C564 C570 1.383 . S
C565 C561 1.495 . S
C565 H571 0.959 . S
C565 H572 0.961 . S
C565 H573 0.960 . S
C566 C564 1.381 . S
C566 C567 1.394 . S
C566 H574 0.930 . S
C567 C566 1.394 . S
C567 C568 1.383 . S
C567 H575 0.929 . S
C568 C567 1.383 . S
C568 C569 1.377 . S
C569 H553 0.930 . S
C569 C568 1.377 . S
C569 C570 1.379 . S
C570 H554 0.931 . S
C570 C564 1.383 . S
C570 C569 1.379 . S
H571 C565 0.959 . S
H572 C565 0.961 . S
H573 C565 0.960 . S
H574 C566 0.930 . S
H575 C567 0.929 . S
H576 C584 0.929 . S
H577 C586 0.930 . S
H578 C588 0.930 . S
H579 C591 0.929 . S
H580 C594 0.930 . S
H581 C596 0.960 . S
H582 C596 0.960 . S
H583 C596 0.960 . S
C584 H576 0.929 . S
C584 C585 1.377 . S
C584 C586 1.384 . S
C585 C584 1.377 . S
C585 C591 1.390 . S
C586 H577 0.930 . S
C586 C584 1.384 . S
C586 C587 1.372 . S
C587 C586 1.372 . S
C587 C588 1.400 . S
C587 C592 1.490 . S
C588 H578 0.930 . S
C588 C587 1.400 . S
C588 C591 1.386 . S
H589 C605 0.930 . S
H590 C606 0.931 . S
C591 H579 0.929 . S
C591 C585 1.390 . S
C591 C588 1.386 . S
C592 C587 1.490 . S
C592 C594 1.395 . S
C592 C595 1.403 . S
H593 C599 0.930 . S
C594 H580 0.930 . S
C594 C592 1.395 . S
C594 C597 1.403 . S
C595 C592 1.403 . S
C595 C596 1.524 . S
C595 C599 1.400 . S
C596 H581 0.960 . S
C596 H582 0.960 . S
C596 H583 0.960 . S
C596 C595 1.524 . S
C597 C594 1.403 . S
C597 C598 1.392 . S
C597 C601 1.495 . S
C598 C597 1.392 . S
C598 C599 1.385 . S
C598 C600 1.478 . S
C599 H593 0.930 . S
C599 C595 1.400 . S
C599 C598 1.385 . S
C600 C598 1.478 . S
C600 C602 1.381 . S
C600 C606 1.383 . S
C601 C597 1.495 . S
C601 H607 0.959 . S
C601 H608 0.961 . S
C601 H609 0.960 . S
C602 C600 1.381 . S
C602 C603 1.394 . S
C602 H610 0.930 . S
C603 C602 1.394 . S
C603 C604 1.383 . S
C603 H611 0.929 . S
C604 C603 1.383 . S
C604 C605 1.377 . S
C605 H589 0.930 . S
C605 C604 1.377 . S
C605 C606 1.379 . S
C606 H590 0.931 . S
C606 C600 1.383 . S
C606 C605 1.379 . S
H607 C601 0.959 . S
H608 C601 0.961 . S
H609 C601 0.960 . S
H610 C602 0.930 . S
H611 C603 0.929 . S
H612 C620 0.929 . S
H613 C622 0.930 . S
H614 C624 0.930 . S
H615 C627 0.929 . S
H616 C630 0.930 . S
H617 C632 0.960 . S
H618 C632 0.960 . S
H619 C632 0.960 . S
C620 H612 0.929 . S
C620 C621 1.377 . S
C620 C622 1.384 . S
C621 C620 1.377 . S
C621 C627 1.390 . S
C622 H613 0.930 . S
C622 C620 1.384 . S
C622 C623 1.372 . S
C623 C622 1.372 . S
C623 C624 1.400 . S
C623 C628 1.490 . S
C624 H614 0.930 . S
C624 C623 1.400 . S
C624 C627 1.386 . S
H625 C641 0.930 . S
H626 C642 0.931 . S
C627 H615 0.929 . S
C627 C621 1.390 . S
C627 C624 1.386 . S
C628 C623 1.490 . S
C628 C630 1.395 . S
C628 C631 1.403 . S
H629 C635 0.930 . S
C630 H616 0.930 . S
C630 C628 1.395 . S
C630 C633 1.403 . S
C631 C628 1.403 . S
C631 C632 1.524 . S
C631 C635 1.400 . S
C632 H617 0.960 . S
C632 H618 0.960 . S
C632 H619 0.960 . S
C632 C631 1.524 . S
C633 C630 1.403 . S
C633 C634 1.392 . S
C633 C637 1.495 . S
C634 C633 1.392 . S
C634 C635 1.385 . S
C634 C636 1.478 . S
C635 H629 0.930 . S
C635 C631 1.400 . S
C635 C634 1.385 . S
C636 C634 1.478 . S
C636 C638 1.381 . S
C636 C642 1.383 . S
C637 C633 1.495 . S
C637 H643 0.959 . S
C637 H644 0.961 . S
C637 H645 0.960 . S
C638 C636 1.381 . S
C638 C639 1.394 . S
C638 H646 0.930 . S
C639 C638 1.394 . S
C639 C640 1.383 . S
C639 H647 0.929 . S
C640 C639 1.383 . S
C640 C641 1.377 . S
C641 H625 0.930 . S
C641 C640 1.377 . S
C641 C642 1.379 . S
C642 H626 0.931 . S
C642 C636 1.383 . S
C642 C641 1.379 . S
H643 C637 0.959 . S
H644 C637 0.961 . S
H645 C637 0.960 . S
H646 C638 0.930 . S
H647 C639 0.929 . S
H648 C656 0.929 . S
H649 C658 0.930 . S
H650 C660 0.930 . S
H651 C663 0.929 . S
H652 C666 0.930 . S
H653 C668 0.960 . S
H654 C668 0.960 . S
H655 C668 0.960 . S
C656 H648 0.929 . S
C656 C657 1.377 . S
C656 C658 1.384 . S
C657 C656 1.377 . S
C657 C663 1.390 . S
C658 H649 0.930 . S
C658 C656 1.384 . S
C658 C659 1.372 . S
C659 C658 1.372 . S
C659 C660 1.400 . S
C659 C664 1.490 . S
C660 H650 0.930 . S
C660 C659 1.400 . S
C660 C663 1.386 . S
H661 C677 0.930 . S
H662 C678 0.931 . S
C663 H651 0.929 . S
C663 C657 1.390 . S
C663 C660 1.386 . S
C664 C659 1.490 . S
C664 C666 1.395 . S
C664 C667 1.403 . S
H665 C671 0.930 1_554 S
C666 H652 0.930 . S
C666 C664 1.395 . S
C666 C669 1.403 . S
C667 C664 1.403 . S
C667 C668 1.524 . S
C667 C671 1.400 . S
C668 H653 0.960 . S
C668 H654 0.960 . S
C668 H655 0.960 . S
C668 C667 1.524 . S
C669 C666 1.403 . S
C669 C670 1.392 1_556 S
C669 C673 1.495 1_556 S
C670 C669 1.392 1_554 S
C670 C671 1.385 1_554 S
C670 C672 1.478 . S
C671 H665 0.930 1_556 S
C671 C667 1.400 . S
C671 C670 1.385 1_556 S
C672 C670 1.478 . S
C672 C674 1.381 . S
C672 C678 1.383 . S
C673 C669 1.495 1_554 S
C673 H679 0.959 1_554 S
C673 H680 0.961 . S
C673 H681 0.960 . S
C674 C672 1.381 . S
C674 C675 1.394 . S
C674 H682 0.930 . S
C675 C674 1.394 . S
C675 C676 1.383 . S
C675 H683 0.929 . S
C676 C675 1.383 . S
C676 C677 1.377 . S
C677 H661 0.930 . S
C677 C676 1.377 . S
C677 C678 1.379 . S
C678 H662 0.931 . S
C678 C672 1.383 . S
C678 C677 1.379 . S
H679 C673 0.959 1_556 S
H680 C673 0.961 . S
H681 C673 0.960 . S
H682 C674 0.930 . S
H683 C675 0.929 . S
H684 C692 0.929 . S
H685 C694 0.930 . S
H686 C696 0.930 . S
H687 C699 0.929 . S
H688 C702 0.930 . S
H689 C704 0.960 . S
H690 C704 0.960 . S
H691 C704 0.960 . S
C692 H684 0.929 . S
C692 C693 1.377 . S
C692 C694 1.384 . S
C693 C692 1.377 . S
C693 C699 1.390 . S
C694 H685 0.930 . S
C694 C692 1.384 . S
C694 C695 1.372 . S
C695 C694 1.372 . S
C695 C696 1.400 . S
C695 C700 1.490 . S
C696 H686 0.930 . S
C696 C695 1.400 . S
C696 C699 1.386 . S
H697 C713 0.930 . S
H698 C714 0.931 . S
C699 H687 0.929 . S
C699 C693 1.390 . S
C699 C696 1.386 . S
C700 C695 1.490 . S
C700 C702 1.395 . S
C700 C703 1.403 . S
H701 C707 0.930 . S
C702 H688 0.930 . S
C702 C700 1.395 . S
C702 C705 1.403 . S
C703 C700 1.403 . S
C703 C704 1.524 . S
C703 C707 1.400 . S
C704 H689 0.960 . S
C704 H690 0.960 . S
C704 H691 0.960 . S
C704 C703 1.524 . S
C705 C702 1.403 . S
C705 C706 1.392 . S
C705 C709 1.495 . S
C706 C705 1.392 . S
C706 C707 1.385 . S
C706 C708 1.478 . S
C707 H701 0.930 . S
C707 C703 1.400 . S
C707 C706 1.385 . S
C708 C706 1.478 . S
C708 C710 1.381 . S
C708 C714 1.383 . S
C709 C705 1.495 . S
C709 H715 0.959 . S
C709 H716 0.961 . S
C709 H717 0.960 . S
C710 C708 1.381 . S
C710 C711 1.394 . S
C710 H718 0.930 . S
C711 C710 1.394 . S
C711 C712 1.383 . S
C711 H719 0.929 . S
C712 C711 1.383 . S
C712 C713 1.377 . S
C713 H697 0.930 . S
C713 C712 1.377 . S
C713 C714 1.379 . S
C714 H698 0.931 . S
C714 C708 1.383 . S
C714 C713 1.379 . S
H715 C709 0.959 . S
H716 C709 0.961 . S
H717 C709 0.960 . S
H718 C710 0.930 . S
H719 C711 0.929 . S
H720 C728 0.929 . S
H721 C730 0.930 . S
H722 C732 0.930 . S
H723 C735 0.929 . S
H724 C738 0.930 . S
H725 C740 0.960 . S
H726 C740 0.960 . S
H727 C740 0.960 . S
C728 H720 0.929 . S
C728 C729 1.377 . S
C728 C730 1.384 . S
C729 C728 1.377 . S
C729 C735 1.390 . S
C730 H721 0.930 . S
C730 C728 1.384 . S
C730 C731 1.372 . S
C731 C730 1.372 . S
C731 C732 1.400 . S
C731 C736 1.490 . S
C732 H722 0.930 . S
C732 C731 1.400 . S
C732 C735 1.386 . S
H733 C749 0.930 . S
H734 C750 0.931 . S
C735 H723 0.929 . S
C735 C729 1.390 . S
C735 C732 1.386 . S
C736 C731 1.490 . S
C736 C738 1.395 . S
C736 C739 1.403 . S
H737 C743 0.930 . S
C738 H724 0.930 . S
C738 C736 1.395 . S
C738 C741 1.403 . S
C739 C736 1.403 . S
C739 C740 1.524 . S
C739 C743 1.400 . S
C740 H725 0.960 . S
C740 H726 0.960 . S
C740 H727 0.960 . S
C740 C739 1.524 . S
C741 C738 1.403 . S
C741 C742 1.392 . S
C741 C745 1.495 . S
C742 C741 1.392 . S
C742 C743 1.385 . S
C742 C744 1.478 . S
C743 H737 0.930 . S
C743 C739 1.400 . S
C743 C742 1.385 . S
C744 C742 1.478 . S
C744 C746 1.381 . S
C744 C750 1.383 . S
C745 C741 1.495 . S
C745 H751 0.959 . S
C745 H752 0.961 . S
C745 H753 0.960 . S
C746 C744 1.381 . S
C746 C747 1.394 . S
C746 H754 0.930 . S
C747 C746 1.394 . S
C747 C748 1.383 . S
C747 H755 0.929 . S
C748 C747 1.383 . S
C748 C749 1.377 . S
C749 H733 0.930 . S
C749 C748 1.377 . S
C749 C750 1.379 . S
C750 H734 0.931 . S
C750 C744 1.383 . S
C750 C749 1.379 . S
H751 C745 0.959 . S
H752 C745 0.961 . S
H753 C745 0.960 . S
H754 C746 0.930 . S
H755 C747 0.929 . S
H756 C764 0.929 . S
H757 C766 0.930 . S
H758 C768 0.930 . S
H759 C771 0.929 . S
H760 C774 0.930 1_554 S
H761 C776 0.960 1_556 S
H762 C776 0.960 . S
H763 C776 0.960 . S
C764 H756 0.929 . S
C764 C765 1.377 . S
C764 C766 1.384 . S
C765 C764 1.377 . S
C765 C771 1.390 . S
C766 H757 0.930 . S
C766 C764 1.384 . S
C766 C767 1.372 . S
C767 C766 1.372 . S
C767 C768 1.400 . S
C767 C772 1.490 . S
C768 H758 0.930 . S
C768 C767 1.400 . S
C768 C771 1.386 . S
H769 C785 0.930 . S
H770 C786 0.931 . S
C771 H759 0.929 . S
C771 C765 1.390 . S
C771 C768 1.386 . S
C772 C767 1.490 . S
C772 C774 1.395 1_554 S
C772 C775 1.403 1_554 S
H773 C779 0.930 . S
C774 H760 0.930 1_556 S
C774 C772 1.395 1_556 S
C774 C777 1.403 . S
C775 C772 1.403 1_556 S
C775 C776 1.524 1_556 S
C775 C779 1.400 . S
C776 H761 0.960 1_554 S
C776 H762 0.960 . S
C776 H763 0.960 . S
C776 C775 1.524 1_554 S
C777 C774 1.403 . S
C777 C778 1.392 . S
C777 C781 1.495 . S
C778 C777 1.392 . S
C778 C779 1.385 . S
C778 C780 1.478 . S
C779 H773 0.930 . S
C779 C775 1.400 . S
C779 C778 1.385 . S
C780 C778 1.478 . S
C780 C782 1.381 . S
C780 C786 1.383 . S
C781 C777 1.495 . S
C781 H787 0.959 . S
C781 H788 0.961 . S
C781 H789 0.960 . S
C782 C780 1.381 . S
C782 C783 1.394 . S
C782 H790 0.930 . S
C783 C782 1.394 . S
C783 C784 1.383 . S
C783 H791 0.929 . S
C784 C783 1.383 . S
C784 C785 1.377 . S
C785 H769 0.930 . S
C785 C784 1.377 . S
C785 C786 1.379 . S
C786 H770 0.931 . S
C786 C780 1.383 . S
C786 C785 1.379 . S
H787 C781 0.959 . S
H788 C781 0.961 . S
H789 C781 0.960 . S
H790 C782 0.930 . S
H791 C783 0.929 . S
H792 C800 0.929 . S
H793 C802 0.930 . S
H794 C804 0.930 . S
H795 C807 0.929 . S
H796 C810 0.930 . S
H797 C812 0.960 . S
H798 C812 0.960 . S
H799 C812 0.960 . S
C800 H792 0.929 . S
C800 C801 1.377 . S
C800 C802 1.384 . S
C801 C800 1.377 . S
C801 C807 1.390 . S
C802 H793 0.930 . S
C802 C800 1.384 . S
C802 C803 1.372 . S
C803 C802 1.372 . S
C803 C804 1.400 . S
C803 C808 1.490 . S
C804 H794 0.930 . S
C804 C803 1.400 . S
C804 C807 1.386 . S
H805 C821 0.930 . S
H806 C822 0.931 . S
C807 H795 0.929 . S
C807 C801 1.390 . S
C807 C804 1.386 . S
C808 C803 1.490 . S
C808 C810 1.395 . S
C808 C811 1.403 . S
H809 C815 0.930 . S
C810 H796 0.930 . S
C810 C808 1.395 . S
C810 C813 1.403 . S
C811 C808 1.403 . S
C811 C812 1.524 . S
C811 C815 1.400 . S
C812 H797 0.960 . S
C812 H798 0.960 . S
C812 H799 0.960 . S
C812 C811 1.524 . S
C813 C810 1.403 . S
C813 C814 1.392 . S
C813 C817 1.495 . S
C814 C813 1.392 . S
C814 C815 1.385 . S
C814 C816 1.478 . S
C815 H809 0.930 . S
C815 C811 1.400 . S
C815 C814 1.385 . S
C816 C814 1.478 . S
C816 C818 1.381 . S
C816 C822 1.383 . S
C817 C813 1.495 . S
C817 H823 0.959 . S
C817 H824 0.961 . S
C817 H825 0.960 . S
C818 C816 1.381 . S
C818 C819 1.394 . S
C818 H826 0.930 . S
C819 C818 1.394 . S
C819 C820 1.383 . S
C819 H827 0.929 . S
C820 C819 1.383 . S
C820 C821 1.377 . S
C821 H805 0.930 . S
C821 C820 1.377 . S
C821 C822 1.379 . S
C822 H806 0.931 . S
C822 C816 1.383 . S
C822 C821 1.379 . S
H823 C817 0.959 . S
H824 C817 0.961 . S
H825 C817 0.960 . S
H826 C818 0.930 . S
H827 C819 0.929 . S
H828 C836 0.929 . S
H829 C838 0.930 . S
H830 C840 0.930 . S
H831 C843 0.929 . S
H832 C846 0.930 1_556 S
H833 C848 0.960 1_554 S
H834 C848 0.960 . S
H835 C848 0.960 . S
C836 H828 0.929 . S
C836 C837 1.377 . S
C836 C838 1.384 . S
C837 C836 1.377 . S
C837 C843 1.390 . S
C838 H829 0.930 . S
C838 C836 1.384 . S
C838 C839 1.372 . S
C839 C838 1.372 . S
C839 C840 1.400 . S
C839 C844 1.490 . S
C840 H830 0.930 . S
C840 C839 1.400 . S
C840 C843 1.386 . S
H841 C857 0.930 . S
H842 C858 0.931 . S
C843 H831 0.929 . S
C843 C837 1.390 . S
C843 C840 1.386 . S
C844 C839 1.490 . S
C844 C846 1.395 1_556 S
C844 C847 1.403 1_556 S
H845 C851 0.930 . S
C846 H832 0.930 1_554 S
C846 C844 1.395 1_554 S
C846 C849 1.403 . S
C847 C844 1.403 1_554 S
C847 C848 1.524 1_554 S
C847 C851 1.400 . S
C848 H833 0.960 1_556 S
C848 H834 0.960 . S
C848 H835 0.960 . S
C848 C847 1.524 1_556 S
C849 C846 1.403 . S
C849 C850 1.392 . S
C849 C853 1.495 . S
C850 C849 1.392 . S
C850 C851 1.385 . S
C850 C852 1.478 . S
C851 H845 0.930 . S
C851 C847 1.400 . S
C851 C850 1.385 . S
C852 C850 1.478 . S
C852 C854 1.381 . S
C852 C858 1.383 . S
C853 C849 1.495 . S
C853 H859 0.959 . S
C853 H860 0.961 . S
C853 H861 0.960 . S
C854 C852 1.381 . S
C854 C855 1.394 . S
C854 H862 0.930 . S
C855 C854 1.394 . S
C855 C856 1.383 . S
C855 H863 0.929 . S
C856 C855 1.383 . S
C856 C857 1.377 . S
C857 H841 0.930 . S
C857 C856 1.377 . S
C857 C858 1.379 . S
C858 H842 0.931 . S
C858 C852 1.383 . S
C858 C857 1.379 . S
H859 C853 0.959 . S
H860 C853 0.961 . S
H861 C853 0.960 . S
H862 C854 0.930 . S
H863 C855 0.929 . S
H864 C872 0.929 . S
H865 C874 0.930 . S
H866 C876 0.930 . S
H867 C879 0.929 . S
H868 C882 0.930 . S
H869 C884 0.960 . S
H870 C884 0.960 . S
H871 C884 0.960 . S
C872 H864 0.929 . S
C872 C873 1.377 . S
C872 C874 1.384 . S
C873 C872 1.377 . S
C873 C879 1.390 . S
C874 H865 0.930 . S
C874 C872 1.384 . S
C874 C875 1.372 . S
C875 C874 1.372 . S
C875 C876 1.400 . S
C875 C880 1.490 . S
C876 H866 0.930 . S
C876 C875 1.400 . S
C876 C879 1.386 . S
H877 C893 0.930 . S
H878 C894 0.931 . S
C879 H867 0.929 . S
C879 C873 1.390 . S
C879 C876 1.386 . S
C880 C875 1.490 . S
C880 C882 1.395 . S
C880 C883 1.403 . S
H881 C887 0.930 . S
C882 H868 0.930 . S
C882 C880 1.395 . S
C882 C885 1.403 . S
C883 C880 1.403 . S
C883 C884 1.524 . S
C883 C887 1.400 . S
C884 H869 0.960 . S
C884 H870 0.960 . S
C884 H871 0.960 . S
C884 C883 1.524 . S
C885 C882 1.403 . S
C885 C886 1.392 . S
C885 C889 1.495 . S
C886 C885 1.392 . S
C886 C887 1.385 . S
C886 C888 1.478 . S
C887 H881 0.930 . S
C887 C883 1.400 . S
C887 C886 1.385 . S
C888 C886 1.478 . S
C888 C890 1.381 . S
C888 C894 1.383 . S
C889 C885 1.495 . S
C889 H895 0.959 . S
C889 H896 0.961 . S
C889 H897 0.960 . S
C890 C888 1.381 . S
C890 C891 1.394 . S
C890 H898 0.930 . S
C891 C890 1.394 . S
C891 C892 1.383 . S
C891 H899 0.929 . S
C892 C891 1.383 . S
C892 C893 1.377 . S
C893 H877 0.930 . S
C893 C892 1.377 . S
C893 C894 1.379 . S
C894 H878 0.931 . S
C894 C888 1.383 . S
C894 C893 1.379 . S
H895 C889 0.959 . S
H896 C889 0.961 . S
H897 C889 0.960 . S
H898 C890 0.930 . S
H899 C891 0.929 . S
H900 C908 0.929 . S
H901 C910 0.930 . S
H902 C912 0.930 . S
H903 C915 0.929 . S
H904 C918 0.930 . S
H905 C920 0.960 . S
H906 C920 0.960 . S
H907 C920 0.960 . S
C908 H900 0.929 . S
C908 C909 1.377 . S
C908 C910 1.384 . S
C909 C908 1.377 . S
C909 C915 1.390 . S
C910 H901 0.930 . S
C910 C908 1.384 . S
C910 C911 1.372 . S
C911 C910 1.372 . S
C911 C912 1.400 . S
C911 C916 1.490 . S
C912 H902 0.930 . S
C912 C911 1.400 . S
C912 C915 1.386 . S
H913 C929 0.930 . S
H914 C930 0.931 . S
C915 H903 0.929 . S
C915 C909 1.390 . S
C915 C912 1.386 . S
C916 C911 1.490 . S
C916 C918 1.395 . S
C916 C919 1.403 . S
H917 C923 0.930 . S
C918 H904 0.930 . S
C918 C916 1.395 . S
C918 C921 1.403 . S
C919 C916 1.403 . S
C919 C920 1.524 . S
C919 C923 1.400 . S
C920 H905 0.960 . S
C920 H906 0.960 . S
C920 H907 0.960 . S
C920 C919 1.524 . S
C921 C918 1.403 . S
C921 C922 1.392 . S
C921 C925 1.495 . S
C922 C921 1.392 . S
C922 C923 1.385 . S
C922 C924 1.478 . S
C923 H917 0.930 . S
C923 C919 1.400 . S
C923 C922 1.385 . S
C924 C922 1.478 . S
C924 C926 1.381 . S
C924 C930 1.383 . S
C925 C921 1.495 . S
C925 H931 0.959 . S
C925 H932 0.961 . S
C925 H933 0.960 . S
C926 C924 1.381 . S
C926 C927 1.394 . S
C926 H934 0.930 . S
C927 C926 1.394 . S
C927 C928 1.383 . S
C927 H935 0.929 . S
C928 C927 1.383 . S
C928 C929 1.377 . S
C929 H913 0.930 . S
C929 C928 1.377 . S
C929 C930 1.379 . S
C930 H914 0.931 . S
C930 C924 1.383 . S
C930 C929 1.379 . S
H931 C925 0.959 . S
H932 C925 0.961 . S
H933 C925 0.960 . S
H934 C926 0.930 . S
H935 C927 0.929 . S
H936 C944 0.929 . S
H937 C946 0.930 . S
H938 C948 0.930 . S
H939 C951 0.929 . S
H940 C954 0.930 . S
H941 C956 0.960 . S
H942 C956 0.960 . S
H943 C956 0.960 . S
C944 H936 0.929 . S
C944 C945 1.377 . S
C944 C946 1.384 . S
C945 C944 1.377 . S
C945 C951 1.390 . S
C946 H937 0.930 . S
C946 C944 1.384 . S
C946 C947 1.372 . S
C947 C946 1.372 . S
C947 C948 1.400 . S
C947 C952 1.490 . S
C948 H938 0.930 . S
C948 C947 1.400 . S
C948 C951 1.386 . S
H949 C965 0.930 . S
H950 C966 0.931 . S
C951 H939 0.929 . S
C951 C945 1.390 . S
C951 C948 1.386 . S
C952 C947 1.490 . S
C952 C954 1.395 . S
C952 C955 1.403 . S
H953 C959 0.930 1_556 S
C954 H940 0.930 . S
C954 C952 1.395 . S
C954 C957 1.403 . S
C955 C952 1.403 . S
C955 C956 1.524 . S
C955 C959 1.400 . S
C956 H941 0.960 . S
C956 H942 0.960 . S
C956 H943 0.960 . S
C956 C955 1.524 . S
C957 C954 1.403 . S
C957 C958 1.392 1_554 S
C957 C961 1.495 1_554 S
C958 C957 1.392 1_556 S
C958 C959 1.385 1_556 S
C958 C960 1.478 . S
C959 H953 0.930 1_554 S
C959 C955 1.400 . S
C959 C958 1.385 1_554 S
C960 C958 1.478 . S
C960 C962 1.381 . S
C960 C966 1.383 . S
C961 C957 1.495 1_556 S
C961 H967 0.959 1_556 S
C961 H968 0.961 . S
C961 H969 0.960 . S
C962 C960 1.381 . S
C962 C963 1.394 . S
C962 H970 0.930 . S
C963 C962 1.394 . S
C963 C964 1.383 . S
C963 H971 0.929 . S
C964 C963 1.383 . S
C964 C965 1.377 . S
C965 H949 0.930 . S
C965 C964 1.377 . S
C965 C966 1.379 . S
C966 H950 0.931 . S
C966 C960 1.383 . S
C966 C965 1.379 . S
H967 C961 0.959 1_554 S
H968 C961 0.961 . S
H969 C961 0.960 . S
H970 C962 0.930 . S
H971 C963 0.929 . S
H972 C980 0.929 . S
H973 C982 0.930 . S
H974 C984 0.930 . S
H975 C987 0.929 . S
H976 C990 0.930 . S
H977 C992 0.960 . S
H978 C992 0.960 . S
H979 C992 0.960 . S
C980 H972 0.929 . S
C980 C981 1.377 . S
C980 C982 1.384 . S
C981 C980 1.377 . S
C981 C987 1.390 . S
C982 H973 0.930 . S
C982 C980 1.384 . S
C982 C983 1.372 . S
C983 C982 1.372 . S
C983 C984 1.400 . S
C983 C988 1.490 . S
C984 H974 0.930 . S
C984 C983 1.400 . S
C984 C987 1.386 . S
H985 C1001 0.930 . S
H986 C1002 0.931 . S
C987 H975 0.929 . S
C987 C981 1.390 . S
C987 C984 1.386 . S
C988 C983 1.490 . S
C988 C990 1.395 . S
C988 C991 1.403 . S
H989 C995 0.930 . S
C990 H976 0.930 . S
C990 C988 1.395 . S
C990 C993 1.403 . S
C991 C988 1.403 . S
C991 C992 1.524 . S
C991 C995 1.400 . S
C992 H977 0.960 . S
C992 H978 0.960 . S
C992 H979 0.960 . S
C992 C991 1.524 . S
C993 C990 1.403 . S
C993 C994 1.392 . S
C993 C997 1.495 . S
C994 C993 1.392 . S
C994 C995 1.385 . S
C994 C996 1.478 . S
C995 H989 0.930 . S
C995 C991 1.400 . S
C995 C994 1.385 . S
C996 C994 1.478 . S
C996 C998 1.381 . S
C996 C1002 1.383 . S
C997 C993 1.495 . S
C997 H1003 0.959 . S
C997 H1004 0.961 . S
C997 H1005 0.960 . S
C998 C996 1.381 . S
C998 C999 1.394 . S
C998 H1006 0.930 . S
C999 C998 1.394 . S
C999 C1000 1.383 . S
C999 H1007 0.929 . S
C1000 C999 1.383 . S
C1000 C1001 1.377 . S
C1001 H985 0.930 . S
C1001 C1000 1.377 . S
C1001 C1002 1.379 . S
C1002 H986 0.931 . S
C1002 C996 1.383 . S
C1002 C1001 1.379 . S
H1003 C997 0.959 . S
H1004 C997 0.961 . S
H1005 C997 0.960 . S
H1006 C998 0.930 . S
H1007 C999 0.929 . S
H1008 C1016 0.929 . S
H1009 C1018 0.930 . S
H1010 C1020 0.930 . S
H1011 C1023 0.929 . S
H1012 C1026 0.930 . S
H1013 C1028 0.960 . S
H1014 C1028 0.960 . S
H1015 C1028 0.960 . S
C1016 H1008 0.929 . S
C1016 C1017 1.377 . S
C1016 C1018 1.384 . S
C1017 C1016 1.377 . S
C1017 C1023 1.390 . S
C1018 H1009 0.930 . S
C1018 C1016 1.384 . S
C1018 C1019 1.372 . S
C1019 C1018 1.372 . S
C1019 C1020 1.400 . S
C1019 C1024 1.490 . S
C1020 H1010 0.930 . S
C1020 C1019 1.400 . S
C1020 C1023 1.386 . S
H1021 C1037 0.930 . S
H1022 C1038 0.931 . S
C1023 H1011 0.929 . S
C1023 C1017 1.390 . S
C1023 C1020 1.386 . S
C1024 C1019 1.490 . S
C1024 C1026 1.395 . S
C1024 C1027 1.403 . S
H1025 C1031 0.930 . S
C1026 H1012 0.930 . S
C1026 C1024 1.395 . S
C1026 C1029 1.403 . S
C1027 C1024 1.403 . S
C1027 C1028 1.524 . S
C1027 C1031 1.400 . S
C1028 H1013 0.960 . S
C1028 H1014 0.960 . S
C1028 H1015 0.960 . S
C1028 C1027 1.524 . S
C1029 C1026 1.403 . S
C1029 C1030 1.392 . S
C1029 C1033 1.495 . S
C1030 C1029 1.392 . S
C1030 C1031 1.385 . S
C1030 C1032 1.478 . S
C1031 H1025 0.930 . S
C1031 C1027 1.400 . S
C1031 C1030 1.385 . S
C1032 C1030 1.478 . S
C1032 C1034 1.381 . S
C1032 C1038 1.383 . S
C1033 C1029 1.495 . S
C1033 H1039 0.959 . S
C1033 H1040 0.961 . S
C1033 H1041 0.960 . S
C1034 C1032 1.381 . S
C1034 C1035 1.394 . S
C1034 H1042 0.930 . S
C1035 C1034 1.394 . S
C1035 C1036 1.383 . S
C1035 H1043 0.929 . S
C1036 C1035 1.383 . S
C1036 C1037 1.377 . S
C1037 H1021 0.930 . S
C1037 C1036 1.377 . S
C1037 C1038 1.379 . S
C1038 H1022 0.931 . S
C1038 C1032 1.383 . S
C1038 C1037 1.379 . S
H1039 C1033 0.959 . S
H1040 C1033 0.961 . S
H1041 C1033 0.960 . S
H1042 C1034 0.930 . S
H1043 C1035 0.929 . S
H1044 C1052 0.929 . S
H1045 C1054 0.930 . S
H1046 C1056 0.930 . S
H1047 C1059 0.929 . S
H1048 C1062 0.930 . S
H1049 C1064 0.960 . S
H1050 C1064 0.960 . S
H1051 C1064 0.960 . S
C1052 H1044 0.929 . S
C1052 C1053 1.377 . S
C1052 C1054 1.384 . S
C1053 C1052 1.377 . S
C1053 C1059 1.390 . S
C1054 H1045 0.930 . S
C1054 C1052 1.384 . S
C1054 C1055 1.372 . S
C1055 C1054 1.372 . S
C1055 C1056 1.400 . S
C1055 C1060 1.490 . S
C1056 H1046 0.930 . S
C1056 C1055 1.400 . S
C1056 C1059 1.386 . S
H1057 C1073 0.930 . S
H1058 C1074 0.931 . S
C1059 H1047 0.929 . S
C1059 C1053 1.390 . S
C1059 C1056 1.386 . S
C1060 C1055 1.490 . S
C1060 C1062 1.395 . S
C1060 C1063 1.403 . S
H1061 C1067 0.930 . S
C1062 H1048 0.930 . S
C1062 C1060 1.395 . S
C1062 C1065 1.403 . S
C1063 C1060 1.403 . S
C1063 C1064 1.524 . S
C1063 C1067 1.400 . S
C1064 H1049 0.960 . S
C1064 H1050 0.960 . S
C1064 H1051 0.960 . S
C1064 C1063 1.524 . S
C1065 C1062 1.403 . S
C1065 C1066 1.392 . S
C1065 C1069 1.495 . S
C1066 C1065 1.392 . S
C1066 C1067 1.385 . S
C1066 C1068 1.478 . S
C1067 H1061 0.930 . S
C1067 C1063 1.400 . S
C1067 C1066 1.385 . S
C1068 C1066 1.478 . S
C1068 C1070 1.381 . S
C1068 C1074 1.383 . S
C1069 C1065 1.495 . S
C1069 H1075 0.959 . S
C1069 H1076 0.961 . S
C1069 H1077 0.960 . S
C1070 C1068 1.381 . S
C1070 C1071 1.394 . S
C1070 H1078 0.930 . S
C1071 C1070 1.394 . S
C1071 C1072 1.383 . S
C1071 H1079 0.929 . S
C1072 C1071 1.383 . S
C1072 C1073 1.377 . S
C1073 H1057 0.930 . S
C1073 C1072 1.377 . S
C1073 C1074 1.379 . S
C1074 H1058 0.931 . S
C1074 C1068 1.383 . S
C1074 C1073 1.379 . S
H1075 C1069 0.959 . S
H1076 C1069 0.961 . S
H1077 C1069 0.960 . S
H1078 C1070 0.930 . S
H1079 C1071 0.929 . S
H1080 C1088 0.929 . S
H1081 C1090 0.930 . S
H1082 C1092 0.930 . S
H1083 C1095 0.929 . S
H1084 C1098 0.930 . S
H1085 C1100 0.960 . S
H1086 C1100 0.960 . S
H1087 C1100 0.960 . S
C1088 H1080 0.929 . S
C1088 C1089 1.377 . S
C1088 C1090 1.384 . S
C1089 C1088 1.377 . S
C1089 C1095 1.390 . S
C1090 H1081 0.930 . S
C1090 C1088 1.384 . S
C1090 C1091 1.372 . S
C1091 C1090 1.372 . S
C1091 C1092 1.400 . S
C1091 C1096 1.490 . S
C1092 H1082 0.930 . S
C1092 C1091 1.400 . S
C1092 C1095 1.386 . S
H1093 C1109 0.930 . S
H1094 C1110 0.931 . S
C1095 H1083 0.929 . S
C1095 C1089 1.390 . S
C1095 C1092 1.386 . S
C1096 C1091 1.490 . S
C1096 C1098 1.395 . S
C1096 C1099 1.403 . S
H1097 C1103 0.930 . S
C1098 H1084 0.930 . S
C1098 C1096 1.395 . S
C1098 C1101 1.403 . S
C1099 C1096 1.403 . S
C1099 C1100 1.524 . S
C1099 C1103 1.400 . S
C1100 H1085 0.960 . S
C1100 H1086 0.960 . S
C1100 H1087 0.960 . S
C1100 C1099 1.524 . S
C1101 C1098 1.403 . S
C1101 C1102 1.392 . S
C1101 C1105 1.495 . S
C1102 C1101 1.392 . S
C1102 C1103 1.385 . S
C1102 C1104 1.478 . S
C1103 H1097 0.930 . S
C1103 C1099 1.400 . S
C1103 C1102 1.385 . S
C1104 C1102 1.478 . S
C1104 C1106 1.381 . S
C1104 C1110 1.383 . S
C1105 C1101 1.495 . S
C1105 H1111 0.959 . S
C1105 H1112 0.961 . S
C1105 H1113 0.960 . S
C1106 C1104 1.381 . S
C1106 C1107 1.394 . S
C1106 H1114 0.930 . S
C1107 C1106 1.394 . S
C1107 C1108 1.383 . S
C1107 H1115 0.929 . S
C1108 C1107 1.383 . S
C1108 C1109 1.377 . S
C1109 H1093 0.930 . S
C1109 C1108 1.377 . S
C1109 C1110 1.379 . S
C1110 H1094 0.931 . S
C1110 C1104 1.383 . S
C1110 C1109 1.379 . S
H1111 C1105 0.959 . S
H1112 C1105 0.961 . S
H1113 C1105 0.960 . S
H1114 C1106 0.930 . S
H1115 C1107 0.929 . S
H1116 C1124 0.929 . S
H1117 C1126 0.930 . S
H1118 C1128 0.930 . S
H1119 C1131 0.929 . S
H1120 C1134 0.930 . S
H1121 C1136 0.960 . S
H1122 C1136 0.960 . S
H1123 C1136 0.960 . S
C1124 H1116 0.929 . S
C1124 C1125 1.377 . S
C1124 C1126 1.384 . S
C1125 C1124 1.377 . S
C1125 C1131 1.390 . S
C1126 H1117 0.930 . S
C1126 C1124 1.384 . S
C1126 C1127 1.372 . S
C1127 C1126 1.372 . S
C1127 C1128 1.400 . S
C1127 C1132 1.490 . S
C1128 H1118 0.930 . S
C1128 C1127 1.400 . S
C1128 C1131 1.386 . S
H1129 C1145 0.930 . S
H1130 C1146 0.931 . S
C1131 H1119 0.929 . S
C1131 C1125 1.390 . S
C1131 C1128 1.386 . S
C1132 C1127 1.490 . S
C1132 C1134 1.395 . S
C1132 C1135 1.403 . S
H1133 C1139 0.930 . S
C1134 H1120 0.930 . S
C1134 C1132 1.395 . S
C1134 C1137 1.403 . S
C1135 C1132 1.403 . S
C1135 C1136 1.524 . S
C1135 C1139 1.400 . S
C1136 H1121 0.960 . S
C1136 H1122 0.960 . S
C1136 H1123 0.960 . S
C1136 C1135 1.524 . S
C1137 C1134 1.403 . S
C1137 C1138 1.392 . S
C1137 C1141 1.495 . S
C1138 C1137 1.392 . S
C1138 C1139 1.385 . S
C1138 C1140 1.478 . S
C1139 H1133 0.930 . S
C1139 C1135 1.400 . S
C1139 C1138 1.385 . S
C1140 C1138 1.478 . S
C1140 C1142 1.381 . S
C1140 C1146 1.383 . S
C1141 C1137 1.495 . S
C1141 H1147 0.959 . S
C1141 H1148 0.961 . S
C1141 H1149 0.960 . S
C1142 C1140 1.381 . S
C1142 C1143 1.394 . S
C1142 H1150 0.930 . S
C1143 C1142 1.394 . S
C1143 C1144 1.383 . S
C1143 H1151 0.929 . S
C1144 C1143 1.383 . S
C1144 C1145 1.377 . S
C1145 H1129 0.930 . S
C1145 C1144 1.377 . S
C1145 C1146 1.379 . S
C1146 H1130 0.931 . S
C1146 C1140 1.383 . S
C1146 C1145 1.379 . S
H1147 C1141 0.959 . S
H1148 C1141 0.961 . S
H1149 C1141 0.960 . S
H1150 C1142 0.930 . S
H1151 C1143 0.929 . S
H1152 C1160 0.929 . S
H1153 C1162 0.930 . S
H1154 C1164 0.930 . S
H1155 C1167 0.929 . S
H1156 C1170 0.930 . S
H1157 C1172 0.960 . S
H1158 C1172 0.960 . S
H1159 C1172 0.960 . S
C1160 H1152 0.929 . S
C1160 C1161 1.377 . S
C1160 C1162 1.384 . S
C1161 C1160 1.377 . S
C1161 C1167 1.390 . S
C1162 H1153 0.930 . S
C1162 C1160 1.384 . S
C1162 C1163 1.372 . S
C1163 C1162 1.372 . S
C1163 C1164 1.400 . S
C1163 C1168 1.490 . S
C1164 H1154 0.930 . S
C1164 C1163 1.400 . S
C1164 C1167 1.386 . S
H1165 C1181 0.930 . S
H1166 C1182 0.931 . S
C1167 H1155 0.929 . S
C1167 C1161 1.390 . S
C1167 C1164 1.386 . S
C1168 C1163 1.490 . S
C1168 C1170 1.395 . S
C1168 C1171 1.403 . S
H1169 C1175 0.930 . S
C1170 H1156 0.930 . S
C1170 C1168 1.395 . S
C1170 C1173 1.403 . S
C1171 C1168 1.403 . S
C1171 C1172 1.524 . S
C1171 C1175 1.400 . S
C1172 H1157 0.960 . S
C1172 H1158 0.960 . S
C1172 H1159 0.960 . S
C1172 C1171 1.524 . S
C1173 C1170 1.403 . S
C1173 C1174 1.392 . S
C1173 C1177 1.495 . S
C1174 C1173 1.392 . S
C1174 C1175 1.385 . S
C1174 C1176 1.478 . S
C1175 H1169 0.930 . S
C1175 C1171 1.400 . S
C1175 C1174 1.385 . S
C1176 C1174 1.478 . S
C1176 C1178 1.381 . S
C1176 C1182 1.383 . S
C1177 C1173 1.495 . S
C1177 H1183 0.959 . S
C1177 H1184 0.961 . S
C1177 H1185 0.960 . S
C1178 C1176 1.381 . S
C1178 C1179 1.394 . S
C1178 H1186 0.930 . S
C1179 C1178 1.394 . S
C1179 C1180 1.383 . S
C1179 H1187 0.929 . S
C1180 C1179 1.383 . S
C1180 C1181 1.377 . S
C1181 H1165 0.930 . S
C1181 C1180 1.377 . S
C1181 C1182 1.379 . S
C1182 H1166 0.931 . S
C1182 C1176 1.383 . S
C1182 C1181 1.379 . S
H1183 C1177 0.959 . S
H1184 C1177 0.961 . S
H1185 C1177 0.960 . S
H1186 C1178 0.930 . S
H1187 C1179 0.929 . S
H1188 C1196 0.929 . S
H1189 C1198 0.930 . S
H1190 C1200 0.930 . S
H1191 C1203 0.929 . S
H1192 C1206 0.930 . S
H1193 C1208 0.960 . S
H1194 C1208 0.960 . S
H1195 C1208 0.960 . S
C1196 H1188 0.929 . S
C1196 C1197 1.377 . S
C1196 C1198 1.384 . S
C1197 C1196 1.377 . S
C1197 C1203 1.390 . S
C1198 H1189 0.930 . S
C1198 C1196 1.384 . S
C1198 C1199 1.372 . S
C1199 C1198 1.372 . S
C1199 C1200 1.400 . S
C1199 C1204 1.490 . S
C1200 H1190 0.930 . S
C1200 C1199 1.400 . S
C1200 C1203 1.386 . S
H1201 C1217 0.930 . S
H1202 C1218 0.931 . S
C1203 H1191 0.929 . S
C1203 C1197 1.390 . S
C1203 C1200 1.386 . S
C1204 C1199 1.490 . S
C1204 C1206 1.395 . S
C1204 C1207 1.403 . S
H1205 C1211 0.930 . S
C1206 H1192 0.930 . S
C1206 C1204 1.395 . S
C1206 C1209 1.403 . S
C1207 C1204 1.403 . S
C1207 C1208 1.524 . S
C1207 C1211 1.400 . S
C1208 H1193 0.960 . S
C1208 H1194 0.960 . S
C1208 H1195 0.960 . S
C1208 C1207 1.524 . S
C1209 C1206 1.403 . S
C1209 C1210 1.392 . S
C1209 C1213 1.495 . S
C1210 C1209 1.392 . S
C1210 C1211 1.385 . S
C1210 C1212 1.478 . S
C1211 H1205 0.930 . S
C1211 C1207 1.400 . S
C1211 C1210 1.385 . S
C1212 C1210 1.478 . S
C1212 C1214 1.381 . S
C1212 C1218 1.383 . S
C1213 C1209 1.495 . S
C1213 H1219 0.959 . S
C1213 H1220 0.961 . S
C1213 H1221 0.960 . S
C1214 C1212 1.381 . S
C1214 C1215 1.394 . S
C1214 H1222 0.930 . S
C1215 C1214 1.394 . S
C1215 C1216 1.383 . S
C1215 H1223 0.929 . S
C1216 C1215 1.383 . S
C1216 C1217 1.377 . S
C1217 H1201 0.930 . S
C1217 C1216 1.377 . S
C1217 C1218 1.379 . S
C1218 H1202 0.931 . S
C1218 C1212 1.383 . S
C1218 C1217 1.379 . S
H1219 C1213 0.959 . S
H1220 C1213 0.961 . S
H1221 C1213 0.960 . S
H1222 C1214 0.930 . S
H1223 C1215 0.929 . S
H1224 C1232 0.929 . S
H1225 C1234 0.930 . S
H1226 C1236 0.930 . S
H1227 C1239 0.929 . S
H1228 C1242 0.930 . S
H1229 C1244 0.960 . S
H1230 C1244 0.960 . S
H1231 C1244 0.960 . S
C1232 H1224 0.929 . S
C1232 C1233 1.377 . S
C1232 C1234 1.384 . S
C1233 C1232 1.377 . S
C1233 C1239 1.390 . S
C1234 H1225 0.930 . S
C1234 C1232 1.384 . S
C1234 C1235 1.372 . S
C1235 C1234 1.372 . S
C1235 C1236 1.400 . S
C1235 C1240 1.490 . S
C1236 H1226 0.930 . S
C1236 C1235 1.400 . S
C1236 C1239 1.386 . S
H1237 C1253 0.930 . S
H1238 C1254 0.931 . S
C1239 H1227 0.929 . S
C1239 C1233 1.390 . S
C1239 C1236 1.386 . S
C1240 C1235 1.490 . S
C1240 C1242 1.395 . S
C1240 C1243 1.403 . S
H1241 C1247 0.930 . S
C1242 H1228 0.930 . S
C1242 C1240 1.395 . S
C1242 C1245 1.403 . S
C1243 C1240 1.403 . S
C1243 C1244 1.524 . S
C1243 C1247 1.400 . S
C1244 H1229 0.960 . S
C1244 H1230 0.960 . S
C1244 H1231 0.960 . S
C1244 C1243 1.524 . S
C1245 C1242 1.403 . S
C1245 C1246 1.392 . S
C1245 C1249 1.495 . S
C1246 C1245 1.392 . S
C1246 C1247 1.385 . S
C1246 C1248 1.478 . S
C1247 H1241 0.930 . S
C1247 C1243 1.400 . S
C1247 C1246 1.385 . S
C1248 C1246 1.478 . S
C1248 C1250 1.381 . S
C1248 C1254 1.383 . S
C1249 C1245 1.495 . S
C1249 H1255 0.959 . S
C1249 H1256 0.961 . S
C1249 H1257 0.960 . S
C1250 C1248 1.381 . S
C1250 C1251 1.394 . S
C1250 H1258 0.930 . S
C1251 C1250 1.394 . S
C1251 C1252 1.383 . S
C1251 H1259 0.929 . S
C1252 C1251 1.383 . S
C1252 C1253 1.377 . S
C1253 H1237 0.930 . S
C1253 C1252 1.377 . S
C1253 C1254 1.379 . S
C1254 H1238 0.931 . S
C1254 C1248 1.383 . S
C1254 C1253 1.379 . S
H1255 C1249 0.959 . S
H1256 C1249 0.961 . S
H1257 C1249 0.960 . S
H1258 C1250 0.930 . S
H1259 C1251 0.929 . S
H1260 C1268 0.929 . S
H1261 C1270 0.930 . S
H1262 C1272 0.930 . S
H1263 C1275 0.929 . S
H1264 C1278 0.930 . S
H1265 C1280 0.960 . S
H1266 C1280 0.960 . S
H1267 C1280 0.960 . S
C1268 H1260 0.929 . S
C1268 C1269 1.377 . S
C1268 C1270 1.384 . S
C1269 C1268 1.377 . S
C1269 C1275 1.390 . S
C1270 H1261 0.930 . S
C1270 C1268 1.384 . S
C1270 C1271 1.372 . S
C1271 C1270 1.372 . S
C1271 C1272 1.400 . S
C1271 C1276 1.490 . S
C1272 H1262 0.930 . S
C1272 C1271 1.400 . S
C1272 C1275 1.386 . S
H1273 C1289 0.930 . S
H1274 C1290 0.931 . S
C1275 H1263 0.929 . S
C1275 C1269 1.390 . S
C1275 C1272 1.386 . S
C1276 C1271 1.490 . S
C1276 C1278 1.395 . S
C1276 C1279 1.403 1_556 S
H1277 C1283 0.930 . S
C1278 H1264 0.930 . S
C1278 C1276 1.395 . S
C1278 C1281 1.403 . S
C1279 C1276 1.403 1_554 S
C1279 C1280 1.524 . S
C1279 C1283 1.400 . S
C1280 H1265 0.960 . S
C1280 H1266 0.960 . S
C1280 H1267 0.960 . S
C1280 C1279 1.524 . S
C1281 C1278 1.403 . S
C1281 C1282 1.392 1_556 S
C1281 C1285 1.495 . S
C1282 C1281 1.392 1_554 S
C1282 C1283 1.385 . S
C1282 C1284 1.478 . S
C1283 H1277 0.930 . S
C1283 C1279 1.400 . S
C1283 C1282 1.385 . S
C1284 C1282 1.478 . S
C1284 C1286 1.381 . S
C1284 C1290 1.383 . S
C1285 C1281 1.495 . S
C1285 H1291 0.959 . S
C1285 H1292 0.961 . S
C1285 H1293 0.960 . S
C1286 C1284 1.381 . S
C1286 C1287 1.394 . S
C1286 H1294 0.930 . S
C1287 C1286 1.394 . S
C1287 C1288 1.383 . S
C1287 H1295 0.929 . S
C1288 C1287 1.383 . S
C1288 C1289 1.377 . S
C1289 H1273 0.930 . S
C1289 C1288 1.377 . S
C1289 C1290 1.379 . S
C1290 H1274 0.931 . S
C1290 C1284 1.383 . S
C1290 C1289 1.379 . S
H1291 C1285 0.959 . S
H1292 C1285 0.961 . S
H1293 C1285 0.960 . S
H1294 C1286 0.930 . S
H1295 C1287 0.929 . S
H1296 C1304 0.929 . S
H1297 C1306 0.930 . S
H1298 C1308 0.930 . S
H1299 C1311 0.929 . S
H1300 C1314 0.930 . S
H1301 C1316 0.960 . S
H1302 C1316 0.960 . S
H1303 C1316 0.960 . S
C1304 H1296 0.929 . S
C1304 C1305 1.377 . S
C1304 C1306 1.384 . S
C1305 C1304 1.377 . S
C1305 C1311 1.390 . S
C1306 H1297 0.930 . S
C1306 C1304 1.384 . S
C1306 C1307 1.372 . S
C1307 C1306 1.372 . S
C1307 C1308 1.400 . S
C1307 C1312 1.490 . S
C1308 H1298 0.930 . S
C1308 C1307 1.400 . S
C1308 C1311 1.386 . S
H1309 C1325 0.930 . S
H1310 C1326 0.931 . S
C1311 H1299 0.929 . S
C1311 C1305 1.390 . S
C1311 C1308 1.386 . S
C1312 C1307 1.490 . S
C1312 C1314 1.395 . S
C1312 C1315 1.403 . S
H1313 C1319 0.930 . S
C1314 H1300 0.930 . S
C1314 C1312 1.395 . S
C1314 C1317 1.403 . S
C1315 C1312 1.403 . S
C1315 C1316 1.524 . S
C1315 C1319 1.400 . S
C1316 H1301 0.960 . S
C1316 H1302 0.960 . S
C1316 H1303 0.960 . S
C1316 C1315 1.524 . S
C1317 C1314 1.403 . S
C1317 C1318 1.392 . S
C1317 C1321 1.495 . S
C1318 C1317 1.392 . S
C1318 C1319 1.385 . S
C1318 C1320 1.478 . S
C1319 H1313 0.930 . S
C1319 C1315 1.400 . S
C1319 C1318 1.385 . S
C1320 C1318 1.478 . S
C1320 C1322 1.381 . S
C1320 C1326 1.383 . S
C1321 C1317 1.495 . S
C1321 H1327 0.959 . S
C1321 H1328 0.961 . S
C1321 H1329 0.960 . S
C1322 C1320 1.381 . S
C1322 C1323 1.394 . S
C1322 H1330 0.930 . S
C1323 C1322 1.394 . S
C1323 C1324 1.383 . S
C1323 H1331 0.929 . S
C1324 C1323 1.383 . S
C1324 C1325 1.377 . S
C1325 H1309 0.930 . S
C1325 C1324 1.377 . S
C1325 C1326 1.379 . S
C1326 H1310 0.931 . S
C1326 C1320 1.383 . S
C1326 C1325 1.379 . S
H1327 C1321 0.959 . S
H1328 C1321 0.961 . S
H1329 C1321 0.960 . S
H1330 C1322 0.930 . S
H1331 C1323 0.929 . S
H1332 C1340 0.929 . S
H1333 C1342 0.930 . S
H1334 C1344 0.930 . S
H1335 C1347 0.929 . S
H1336 C1350 0.930 . S
H1337 C1352 0.960 . S
H1338 C1352 0.960 . S
H1339 C1352 0.960 . S
C1340 H1332 0.929 . S
C1340 C1341 1.377 . S
C1340 C1342 1.384 . S
C1341 C1340 1.377 . S
C1341 C1347 1.390 . S
C1342 H1333 0.930 . S
C1342 C1340 1.384 . S
C1342 C1343 1.372 . S
C1343 C1342 1.372 . S
C1343 C1344 1.400 . S
C1343 C1348 1.490 . S
C1344 H1334 0.930 . S
C1344 C1343 1.400 . S
C1344 C1347 1.386 . S
H1345 C1361 0.930 . S
H1346 C1362 0.931 . S
C1347 H1335 0.929 . S
C1347 C1341 1.390 . S
C1347 C1344 1.386 . S
C1348 C1343 1.490 . S
C1348 C1350 1.395 . S
C1348 C1351 1.403 . S
H1349 C1355 0.930 . S
C1350 H1336 0.930 . S
C1350 C1348 1.395 . S
C1350 C1353 1.403 . S
C1351 C1348 1.403 . S
C1351 C1352 1.524 . S
C1351 C1355 1.400 . S
C1352 H1337 0.960 . S
C1352 H1338 0.960 . S
C1352 H1339 0.960 . S
C1352 C1351 1.524 . S
C1353 C1350 1.403 . S
C1353 C1354 1.392 . S
C1353 C1357 1.495 . S
C1354 C1353 1.392 . S
C1354 C1355 1.385 . S
C1354 C1356 1.478 . S
C1355 H1349 0.930 . S
C1355 C1351 1.400 . S
C1355 C1354 1.385 . S
C1356 C1354 1.478 . S
C1356 C1358 1.381 . S
C1356 C1362 1.383 . S
C1357 C1353 1.495 . S
C1357 H1363 0.959 . S
C1357 H1364 0.961 . S
C1357 H1365 0.960 . S
C1358 C1356 1.381 . S
C1358 C1359 1.394 . S
C1358 H1366 0.930 . S
C1359 C1358 1.394 . S
C1359 C1360 1.383 . S
C1359 H1367 0.929 . S
C1360 C1359 1.383 . S
C1360 C1361 1.377 . S
C1361 H1345 0.930 . S
C1361 C1360 1.377 . S
C1361 C1362 1.379 . S
C1362 H1346 0.931 . S
C1362 C1356 1.383 . S
C1362 C1361 1.379 . S
H1363 C1357 0.959 . S
H1364 C1357 0.961 . S
H1365 C1357 0.960 . S
H1366 C1358 0.930 . S
H1367 C1359 0.929 . S
H1368 C1376 0.929 . S
H1369 C1378 0.930 . S
H1370 C1380 0.930 1_556 S
H1371 C1383 0.929 . S
H1372 C1386 0.930 . S
H1373 C1388 0.960 . S
H1374 C1388 0.960 . S
H1375 C1388 0.960 . S
C1376 H1368 0.929 . S
C1376 C1377 1.377 . S
C1376 C1378 1.384 . S
C1377 C1376 1.377 . S
C1377 C1383 1.390 . S
C1378 H1369 0.930 . S
C1378 C1376 1.384 . S
C1378 C1379 1.372 . S
C1379 C1378 1.372 . S
C1379 C1380 1.400 . S
C1379 C1384 1.490 . S
C1380 H1370 0.930 1_554 S
C1380 C1379 1.400 . S
C1380 C1383 1.386 . S
H1381 C1397 0.930 . S
H1382 C1398 0.931 . S
C1383 H1371 0.929 . S
C1383 C1377 1.390 . S
C1383 C1380 1.386 . S
C1384 C1379 1.490 . S
C1384 C1386 1.395 . S
C1384 C1387 1.403 1_554 S
H1385 C1391 0.930 . S
C1386 H1372 0.930 . S
C1386 C1384 1.395 . S
C1386 C1389 1.403 . S
C1387 C1384 1.403 1_556 S
C1387 C1388 1.524 . S
C1387 C1391 1.400 . S
C1388 H1373 0.960 . S
C1388 H1374 0.960 . S
C1388 H1375 0.960 . S
C1388 C1387 1.524 . S
C1389 C1386 1.403 . S
C1389 C1390 1.392 1_554 S
C1389 C1393 1.495 . S
C1390 C1389 1.392 1_556 S
C1390 C1391 1.385 . S
C1390 C1392 1.478 . S
C1391 H1385 0.930 . S
C1391 C1387 1.400 . S
C1391 C1390 1.385 . S
C1392 C1390 1.478 . S
C1392 C1394 1.381 . S
C1392 C1398 1.383 . S
C1393 C1389 1.495 . S
C1393 H1399 0.959 . S
C1393 H1400 0.961 . S
C1393 H1401 0.960 . S
C1394 C1392 1.381 . S
C1394 C1395 1.394 . S
C1394 H1402 0.930 1_556 S
C1395 C1394 1.394 . S
C1395 C1396 1.383 . S
C1395 H1403 0.929 . S
C1396 C1395 1.383 . S
C1396 C1397 1.377 . S
C1397 H1381 0.930 . S
C1397 C1396 1.377 . S
C1397 C1398 1.379 . S
C1398 H1382 0.931 . S
C1398 C1392 1.383 . S
C1398 C1397 1.379 . S
H1399 C1393 0.959 . S
H1400 C1393 0.961 . S
H1401 C1393 0.960 . S
H1402 C1394 0.930 1_554 S
H1403 C1395 0.929 . S
H1404 C1412 0.929 . S
H1405 C1414 0.930 . S
H1406 C1416 0.930 . S
H1407 C1419 0.929 . S
H1408 C1422 0.930 . S
H1409 C1424 0.960 . S
H1410 C1424 0.960 . S
H1411 C1424 0.960 . S
C1412 H1404 0.929 . S
C1412 C1413 1.377 . S
C1412 C1414 1.384 . S
C1413 C1412 1.377 . S
C1413 C1419 1.390 . S
C1414 H1405 0.930 . S
C1414 C1412 1.384 . S
C1414 C1415 1.372 . S
C1415 C1414 1.372 . S
C1415 C1416 1.400 . S
C1415 C1420 1.490 . S
C1416 H1406 0.930 . S
C1416 C1415 1.400 . S
C1416 C1419 1.386 . S
H1417 C1433 0.930 . S
H1418 C1434 0.931 . S
C1419 H1407 0.929 . S
C1419 C1413 1.390 . S
C1419 C1416 1.386 . S
C1420 C1415 1.490 . S
C1420 C1422 1.395 . S
C1420 C1423 1.403 . S
H1421 C1427 0.930 . S
C1422 H1408 0.930 . S
C1422 C1420 1.395 . S
C1422 C1425 1.403 . S
C1423 C1420 1.403 . S
C1423 C1424 1.524 . S
C1423 C1427 1.400 . S
C1424 H1409 0.960 . S
C1424 H1410 0.960 . S
C1424 H1411 0.960 . S
C1424 C1423 1.524 . S
C1425 C1422 1.403 . S
C1425 C1426 1.392 . S
C1425 C1429 1.495 . S
C1426 C1425 1.392 . S
C1426 C1427 1.385 . S
C1426 C1428 1.478 . S
C1427 H1421 0.930 . S
C1427 C1423 1.400 . S
C1427 C1426 1.385 . S
C1428 C1426 1.478 . S
C1428 C1430 1.381 . S
C1428 C1434 1.383 . S
C1429 C1425 1.495 . S
C1429 H1435 0.959 . S
C1429 H1436 0.961 . S
C1429 H1437 0.960 . S
C1430 C1428 1.381 . S
C1430 C1431 1.394 . S
C1430 H1438 0.930 . S
C1431 C1430 1.394 . S
C1431 C1432 1.383 . S
C1431 H1439 0.929 . S
C1432 C1431 1.383 . S
C1432 C1433 1.377 . S
C1433 H1417 0.930 . S
C1433 C1432 1.377 . S
C1433 C1434 1.379 . S
C1434 H1418 0.931 . S
C1434 C1428 1.383 . S
C1434 C1433 1.379 . S
H1435 C1429 0.959 . S
H1436 C1429 0.961 . S
H1437 C1429 0.960 . S
H1438 C1430 0.930 . S
H1439 C1431 0.929 . S
H1440 C1448 0.929 . S
H1441 C1450 0.930 . S
H1442 C1452 0.930 . S
H1443 C1455 0.929 . S
H1444 C1458 0.930 . S
H1445 C1460 0.960 . S
H1446 C1460 0.960 . S
H1447 C1460 0.960 . S
C1448 H1440 0.929 . S
C1448 C1449 1.377 . S
C1448 C1450 1.384 . S
C1449 C1448 1.377 . S
C1449 C1455 1.390 . S
C1450 H1441 0.930 . S
C1450 C1448 1.384 . S
C1450 C1451 1.372 . S
C1451 C1450 1.372 . S
C1451 C1452 1.400 . S
C1451 C1456 1.490 . S
C1452 H1442 0.930 . S
C1452 C1451 1.400 . S
C1452 C1455 1.386 . S
H1453 C1469 0.930 . S
H1454 C1470 0.931 . S
C1455 H1443 0.929 . S
C1455 C1449 1.390 . S
C1455 C1452 1.386 . S
C1456 C1451 1.490 . S
C1456 C1458 1.395 . S
C1456 C1459 1.403 . S
H1457 C1463 0.930 . S
C1458 H1444 0.930 . S
C1458 C1456 1.395 . S
C1458 C1461 1.403 . S
C1459 C1456 1.403 . S
C1459 C1460 1.524 . S
C1459 C1463 1.400 . S
C1460 H1445 0.960 . S
C1460 H1446 0.960 . S
C1460 H1447 0.960 . S
C1460 C1459 1.524 . S
C1461 C1458 1.403 . S
C1461 C1462 1.392 . S
C1461 C1465 1.495 . S
C1462 C1461 1.392 . S
C1462 C1463 1.385 . S
C1462 C1464 1.478 . S
C1463 H1457 0.930 . S
C1463 C1459 1.400 . S
C1463 C1462 1.385 . S
C1464 C1462 1.478 . S
C1464 C1466 1.381 . S
C1464 C1470 1.383 . S
C1465 C1461 1.495 . S
C1465 H1471 0.959 . S
C1465 H1472 0.961 . S
C1465 H1473 0.960 . S
C1466 C1464 1.381 . S
C1466 C1467 1.394 . S
C1466 H1474 0.930 . S
C1467 C1466 1.394 . S
C1467 C1468 1.383 . S
C1467 H1475 0.929 . S
C1468 C1467 1.383 . S
C1468 C1469 1.377 . S
C1469 H1453 0.930 . S
C1469 C1468 1.377 . S
C1469 C1470 1.379 . S
C1470 H1454 0.931 . S
C1470 C1464 1.383 . S
C1470 C1469 1.379 . S
H1471 C1465 0.959 . S
H1472 C1465 0.961 . S
H1473 C1465 0.960 . S
H1474 C1466 0.930 . S
H1475 C1467 0.929 . S
C405 C7 1.142 . S
C424 C370 1.166 . S
C441 C40 1.136 . S
C460 C205 1.129 . S
C477 C238 1.142 . S
C496 C73 1.165 . S
C513 C271 1.143 . S
C532 C106 1.165 . S
C549 C304 1.144 . S
C568 C139 1.117 . S
C585 C337 1.138 . S
C604 C172 1.157 . S
C621 N13 1.369 . S
C640 N2 1.372 . S
C657 N35 1.359 . S
C676 N46 1.343 . S
C693 N79 1.369 . S
C712 N68 1.363 1_554 S
C729 N112 1.365 . S
C748 N101 1.340 . S
C765 N145 1.367 . S
C784 N134 1.350 . S
C801 N167 1.360 1_554 S
C820 N178 1.340 . S
C837 N211 1.368 . S
C856 N200 1.381 . S
C873 N233 1.367 . S
C892 N244 1.374 . S
C909 N277 1.364 . S
C928 N266 1.379 1_556 S
C945 N299 1.361 . S
C964 N310 1.376 . S
C981 N332 1.361 . S
C1000 N343 1.375 . S
C1017 N376 1.360 . S
C1036 N365 1.357 1_556 S
C1053 C21 1.589 . S
C1072 C285 1.593 . S
C1089 C54 1.590 . S
C1108 C318 1.592 . S
C1125 C87 1.589 . S
C1144 C351 1.593 . S
C1161 C384 1.591 . S
C1180 C120 1.582 . S
C1197 C219 1.590 . S
C1216 C153 1.588 . S
C1233 C252 1.590 . S
C1252 C186 1.591 . S
C1269 C348 1.096 . S
C1288 C18 1.081 . S
C1305 C381 1.103 . S
C1324 C51 1.115 . S
C1341 C216 1.102 . S
C1360 C84 1.103 . S
C1377 C117 1.097 . S
C1396 C249 1.089 . S
C1413 C150 1.100 . S
C1432 C282 1.091 . S
C1449 C183 1.099 . S
C1468 C315 1.087 . S
