# Generated by pormake.
# Topology ulg, (4)-cn, num edge types: 1
# Building blocks:
#     Node 0, Type 0, BuildingBlock: CEKHIL_clean_sbu_0, # of connection points: 4
#     Node 1, Type 0, BuildingBlock: CEKHIL_clean_sbu_0, # of connection points: 4
#     Node 2, Type 0, BuildingBlock: CEKHIL_clean_sbu_0, # of connection points: 4
#     Node 3, Type 0, BuildingBlock: CEKHIL_clean_sbu_0, # of connection points: 4
#     Node 4, Type 0, BuildingBlock: CEKHIL_clean_sbu_0, # of connection points: 4
#     Node 5, Type 0, BuildingBlock: CEKHIL_clean_sbu_0, # of connection points: 4
#     Node 6, Type 0, BuildingBlock: CEKHIL_clean_sbu_0, # of connection points: 4
#     Node 7, Type 0, BuildingBlock: CEKHIL_clean_sbu_0, # of connection points: 4
#     Node 8, Type 0, BuildingBlock: CEKHIL_clean_sbu_0, # of connection points: 4
#     Node 9, Type 0, BuildingBlock: CEKHIL_clean_sbu_0, # of connection points: 4
#     Node 10, Type 0, BuildingBlock: CEKHIL_clean_sbu_0, # of connection points: 4
#     Node 11, Type 0, BuildingBlock: CEKHIL_clean_sbu_0, # of connection points: 4
#     Node 12, Type 0, BuildingBlock: CEKHIL_clean_sbu_0, # of connection points: 4
#     Node 13, Type 0, BuildingBlock: CEKHIL_clean_sbu_0, # of connection points: 4
#     Node 14, Type 0, BuildingBlock: CEKHIL_clean_sbu_0, # of connection points: 4
#     Node 15, Type 0, BuildingBlock: CEKHIL_clean_sbu_0, # of connection points: 4
#     Node 16, Type 0, BuildingBlock: CEKHIL_clean_sbu_0, # of connection points: 4
#     Node 17, Type 0, BuildingBlock: CEKHIL_clean_sbu_0, # of connection points: 4
#     Node 18, Type 0, BuildingBlock: CEKHIL_clean_sbu_0, # of connection points: 4
#     Node 19, Type 0, BuildingBlock: CEKHIL_clean_sbu_0, # of connection points: 4
#     Node 20, Type 0, BuildingBlock: CEKHIL_clean_sbu_0, # of connection points: 4
#     Node 21, Type 0, BuildingBlock: CEKHIL_clean_sbu_0, # of connection points: 4
#     Node 22, Type 0, BuildingBlock: CEKHIL_clean_sbu_0, # of connection points: 4
#     Node 23, Type 0, BuildingBlock: CEKHIL_clean_sbu_0, # of connection points: 4
#     Node 24, Type 0, BuildingBlock: CEKHIL_clean_sbu_0, # of connection points: 4
#     Node 25, Type 0, BuildingBlock: CEKHIL_clean_sbu_0, # of connection points: 4
#     Node 26, Type 0, BuildingBlock: CEKHIL_clean_sbu_0, # of connection points: 4
#     Node 27, Type 0, BuildingBlock: CEKHIL_clean_sbu_0, # of connection points: 4
#     Node 28, Type 0, BuildingBlock: CEKHIL_clean_sbu_0, # of connection points: 4
#     Node 29, Type 0, BuildingBlock: CEKHIL_clean_sbu_0, # of connection points: 4
#     Node 30, Type 0, BuildingBlock: CEKHIL_clean_sbu_0, # of connection points: 4
#     Node 31, Type 0, BuildingBlock: CEKHIL_clean_sbu_0, # of connection points: 4
#     Node 32, Type 0, BuildingBlock: CEKHIL_clean_sbu_0, # of connection points: 4
#     Node 33, Type 0, BuildingBlock: CEKHIL_clean_sbu_0, # of connection points: 4
#     Node 34, Type 0, BuildingBlock: CEKHIL_clean_sbu_0, # of connection points: 4
#     Node 35, Type 0, BuildingBlock: CEKHIL_clean_sbu_0, # of connection points: 4
#     Node 36, Type 0, BuildingBlock: CEKHIL_clean_sbu_0, # of connection points: 4
#     Node 37, Type 0, BuildingBlock: CEKHIL_clean_sbu_0, # of connection points: 4
#     Node 38, Type 0, BuildingBlock: CEKHIL_clean_sbu_0, # of connection points: 4
#     Node 39, Type 0, BuildingBlock: CEKHIL_clean_sbu_0, # of connection points: 4
#     Node 40, Type 0, BuildingBlock: CEKHIL_clean_sbu_0, # of connection points: 4
#     Node 41, Type 0, BuildingBlock: CEKHIL_clean_sbu_0, # of connection points: 4
#     Node 42, Type 0, BuildingBlock: CEKHIL_clean_sbu_0, # of connection points: 4
#     Node 43, Type 0, BuildingBlock: CEKHIL_clean_sbu_0, # of connection points: 4
#     Node 44, Type 0, BuildingBlock: CEKHIL_clean_sbu_0, # of connection points: 4
#     Node 45, Type 0, BuildingBlock: CEKHIL_clean_sbu_0, # of connection points: 4
#     Node 46, Type 0, BuildingBlock: CEKHIL_clean_sbu_0, # of connection points: 4
#     Node 47, Type 0, BuildingBlock: CEKHIL_clean_sbu_0, # of connection points: 4
#     Node 48, Type 0, BuildingBlock: CEKHIL_clean_sbu_0, # of connection points: 4
#     Node 49, Type 0, BuildingBlock: CEKHIL_clean_sbu_0, # of connection points: 4
#     Node 50, Type 0, BuildingBlock: CEKHIL_clean_sbu_0, # of connection points: 4
#     Node 51, Type 0, BuildingBlock: CEKHIL_clean_sbu_0, # of connection points: 4
#     Node 52, Type 0, BuildingBlock: CEKHIL_clean_sbu_0, # of connection points: 4
#     Node 53, Type 0, BuildingBlock: CEKHIL_clean_sbu_0, # of connection points: 4
#     Node 54, Type 0, BuildingBlock: CEKHIL_clean_sbu_0, # of connection points: 4
#     Node 55, Type 0, BuildingBlock: CEKHIL_clean_sbu_0, # of connection points: 4
#     Node 56, Type 0, BuildingBlock: CEKHIL_clean_sbu_0, # of connection points: 4
#     Node 57, Type 0, BuildingBlock: CEKHIL_clean_sbu_0, # of connection points: 4
#     Node 58, Type 0, BuildingBlock: CEKHIL_clean_sbu_0, # of connection points: 4
#     Node 59, Type 0, BuildingBlock: CEKHIL_clean_sbu_0, # of connection points: 4
#     Node 60, Type 0, BuildingBlock: CEKHIL_clean_sbu_0, # of connection points: 4
#     Node 61, Type 0, BuildingBlock: CEKHIL_clean_sbu_0, # of connection points: 4
#     Node 62, Type 0, BuildingBlock: CEKHIL_clean_sbu_0, # of connection points: 4
#     Node 63, Type 0, BuildingBlock: CEKHIL_clean_sbu_0, # of connection points: 4
#     Node 64, Type 0, BuildingBlock: CEKHIL_clean_sbu_0, # of connection points: 4
#     Node 65, Type 0, BuildingBlock: CEKHIL_clean_sbu_0, # of connection points: 4
#     Node 66, Type 0, BuildingBlock: CEKHIL_clean_sbu_0, # of connection points: 4
#     Node 67, Type 0, BuildingBlock: CEKHIL_clean_sbu_0, # of connection points: 4
#     Node 68, Type 0, BuildingBlock: CEKHIL_clean_sbu_0, # of connection points: 4
#     Node 69, Type 0, BuildingBlock: CEKHIL_clean_sbu_0, # of connection points: 4
#     Node 70, Type 0, BuildingBlock: CEKHIL_clean_sbu_0, # of connection points: 4
#     Node 71, Type 0, BuildingBlock: CEKHIL_clean_sbu_0, # of connection points: 4
#     Node 72, Type 0, BuildingBlock: CEKHIL_clean_sbu_0, # of connection points: 4
#     Node 73, Type 0, BuildingBlock: CEKHIL_clean_sbu_0, # of connection points: 4
#     Node 74, Type 0, BuildingBlock: CEKHIL_clean_sbu_0, # of connection points: 4
#     Node 75, Type 0, BuildingBlock: CEKHIL_clean_sbu_0, # of connection points: 4
#     Node 76, Type 0, BuildingBlock: CEKHIL_clean_sbu_0, # of connection points: 4
#     Node 77, Type 0, BuildingBlock: CEKHIL_clean_sbu_0, # of connection points: 4
#     Node 78, Type 0, BuildingBlock: CEKHIL_clean_sbu_0, # of connection points: 4
#     Node 79, Type 0, BuildingBlock: CEKHIL_clean_sbu_0, # of connection points: 4
#     Node 80, Type 0, BuildingBlock: CEKHIL_clean_sbu_0, # of connection points: 4
#     Node 81, Type 0, BuildingBlock: CEKHIL_clean_sbu_0, # of connection points: 4
#     Node 82, Type 0, BuildingBlock: CEKHIL_clean_sbu_0, # of connection points: 4
#     Node 83, Type 0, BuildingBlock: CEKHIL_clean_sbu_0, # of connection points: 4
#     Node 84, Type 0, BuildingBlock: CEKHIL_clean_sbu_0, # of connection points: 4
#     Node 85, Type 0, BuildingBlock: CEKHIL_clean_sbu_0, # of connection points: 4
#     Node 86, Type 0, BuildingBlock: CEKHIL_clean_sbu_0, # of connection points: 4
#     Node 87, Type 0, BuildingBlock: CEKHIL_clean_sbu_0, # of connection points: 4
#     Node 88, Type 0, BuildingBlock: CEKHIL_clean_sbu_0, # of connection points: 4
#     Node 89, Type 0, BuildingBlock: CEKHIL_clean_sbu_0, # of connection points: 4
#     Node 90, Type 0, BuildingBlock: CEKHIL_clean_sbu_0, # of connection points: 4
#     Node 91, Type 0, BuildingBlock: CEKHIL_clean_sbu_0, # of connection points: 4
#     Node 92, Type 0, BuildingBlock: CEKHIL_clean_sbu_0, # of connection points: 4
#     Node 93, Type 0, BuildingBlock: CEKHIL_clean_sbu_0, # of connection points: 4
#     Node 94, Type 0, BuildingBlock: CEKHIL_clean_sbu_0, # of connection points: 4
#     Node 95, Type 0, BuildingBlock: CEKHIL_clean_sbu_0, # of connection points: 4
#     Edge 96, Type (0, 0), BuildingBlock: OJICUG_clean_linker_0, # of connection points: 2
#     Edge 97, Type (0, 0), BuildingBlock: OJICUG_clean_linker_0, # of connection points: 2
#     Edge 98, Type (0, 0), BuildingBlock: OJICUG_clean_linker_0, # of connection points: 2
#     Edge 99, Type (0, 0), BuildingBlock: OJICUG_clean_linker_0, # of connection points: 2
#     Edge 100, Type (0, 0), BuildingBlock: OJICUG_clean_linker_0, # of connection points: 2
#     Edge 101, Type (0, 0), BuildingBlock: OJICUG_clean_linker_0, # of connection points: 2
#     Edge 102, Type (0, 0), BuildingBlock: OJICUG_clean_linker_0, # of connection points: 2
#     Edge 103, Type (0, 0), BuildingBlock: OJICUG_clean_linker_0, # of connection points: 2
#     Edge 104, Type (0, 0), BuildingBlock: OJICUG_clean_linker_0, # of connection points: 2
#     Edge 105, Type (0, 0), BuildingBlock: OJICUG_clean_linker_0, # of connection points: 2
#     Edge 106, Type (0, 0), BuildingBlock: OJICUG_clean_linker_0, # of connection points: 2
#     Edge 107, Type (0, 0), BuildingBlock: OJICUG_clean_linker_0, # of connection points: 2
#     Edge 108, Type (0, 0), BuildingBlock: OJICUG_clean_linker_0, # of connection points: 2
#     Edge 109, Type (0, 0), BuildingBlock: OJICUG_clean_linker_0, # of connection points: 2
#     Edge 110, Type (0, 0), BuildingBlock: OJICUG_clean_linker_0, # of connection points: 2
#     Edge 111, Type (0, 0), BuildingBlock: OJICUG_clean_linker_0, # of connection points: 2
#     Edge 112, Type (0, 0), BuildingBlock: OJICUG_clean_linker_0, # of connection points: 2
#     Edge 113, Type (0, 0), BuildingBlock: OJICUG_clean_linker_0, # of connection points: 2
#     Edge 114, Type (0, 0), BuildingBlock: OJICUG_clean_linker_0, # of connection points: 2
#     Edge 115, Type (0, 0), BuildingBlock: OJICUG_clean_linker_0, # of connection points: 2
#     Edge 116, Type (0, 0), BuildingBlock: OJICUG_clean_linker_0, # of connection points: 2
#     Edge 117, Type (0, 0), BuildingBlock: OJICUG_clean_linker_0, # of connection points: 2
#     Edge 118, Type (0, 0), BuildingBlock: OJICUG_clean_linker_0, # of connection points: 2
#     Edge 119, Type (0, 0), BuildingBlock: OJICUG_clean_linker_0, # of connection points: 2
#     Edge 120, Type (0, 0), BuildingBlock: OJICUG_clean_linker_0, # of connection points: 2
#     Edge 121, Type (0, 0), BuildingBlock: OJICUG_clean_linker_0, # of connection points: 2
#     Edge 122, Type (0, 0), BuildingBlock: OJICUG_clean_linker_0, # of connection points: 2
#     Edge 123, Type (0, 0), BuildingBlock: OJICUG_clean_linker_0, # of connection points: 2
#     Edge 124, Type (0, 0), BuildingBlock: OJICUG_clean_linker_0, # of connection points: 2
#     Edge 125, Type (0, 0), BuildingBlock: OJICUG_clean_linker_0, # of connection points: 2
#     Edge 126, Type (0, 0), BuildingBlock: OJICUG_clean_linker_0, # of connection points: 2
#     Edge 127, Type (0, 0), BuildingBlock: OJICUG_clean_linker_0, # of connection points: 2
#     Edge 128, Type (0, 0), BuildingBlock: OJICUG_clean_linker_0, # of connection points: 2
#     Edge 129, Type (0, 0), BuildingBlock: OJICUG_clean_linker_0, # of connection points: 2
#     Edge 130, Type (0, 0), BuildingBlock: OJICUG_clean_linker_0, # of connection points: 2
#     Edge 131, Type (0, 0), BuildingBlock: OJICUG_clean_linker_0, # of connection points: 2
#     Edge 132, Type (0, 0), BuildingBlock: OJICUG_clean_linker_0, # of connection points: 2
#     Edge 133, Type (0, 0), BuildingBlock: OJICUG_clean_linker_0, # of connection points: 2
#     Edge 134, Type (0, 0), BuildingBlock: OJICUG_clean_linker_0, # of connection points: 2
#     Edge 135, Type (0, 0), BuildingBlock: OJICUG_clean_linker_0, # of connection points: 2
#     Edge 136, Type (0, 0), BuildingBlock: OJICUG_clean_linker_0, # of connection points: 2
#     Edge 137, Type (0, 0), BuildingBlock: OJICUG_clean_linker_0, # of connection points: 2
#     Edge 138, Type (0, 0), BuildingBlock: OJICUG_clean_linker_0, # of connection points: 2
#     Edge 139, Type (0, 0), BuildingBlock: OJICUG_clean_linker_0, # of connection points: 2
#     Edge 140, Type (0, 0), BuildingBlock: OJICUG_clean_linker_0, # of connection points: 2
#     Edge 141, Type (0, 0), BuildingBlock: OJICUG_clean_linker_0, # of connection points: 2
#     Edge 142, Type (0, 0), BuildingBlock: OJICUG_clean_linker_0, # of connection points: 2
#     Edge 143, Type (0, 0), BuildingBlock: OJICUG_clean_linker_0, # of connection points: 2
#     Edge 144, Type (0, 0), BuildingBlock: OJICUG_clean_linker_0, # of connection points: 2
#     Edge 145, Type (0, 0), BuildingBlock: OJICUG_clean_linker_0, # of connection points: 2
#     Edge 146, Type (0, 0), BuildingBlock: OJICUG_clean_linker_0, # of connection points: 2
#     Edge 147, Type (0, 0), BuildingBlock: OJICUG_clean_linker_0, # of connection points: 2
#     Edge 148, Type (0, 0), BuildingBlock: OJICUG_clean_linker_0, # of connection points: 2
#     Edge 149, Type (0, 0), BuildingBlock: OJICUG_clean_linker_0, # of connection points: 2
#     Edge 150, Type (0, 0), BuildingBlock: OJICUG_clean_linker_0, # of connection points: 2
#     Edge 151, Type (0, 0), BuildingBlock: OJICUG_clean_linker_0, # of connection points: 2
#     Edge 152, Type (0, 0), BuildingBlock: OJICUG_clean_linker_0, # of connection points: 2
#     Edge 153, Type (0, 0), BuildingBlock: OJICUG_clean_linker_0, # of connection points: 2
#     Edge 154, Type (0, 0), BuildingBlock: OJICUG_clean_linker_0, # of connection points: 2
#     Edge 155, Type (0, 0), BuildingBlock: OJICUG_clean_linker_0, # of connection points: 2
#     Edge 156, Type (0, 0), BuildingBlock: OJICUG_clean_linker_0, # of connection points: 2
#     Edge 157, Type (0, 0), BuildingBlock: OJICUG_clean_linker_0, # of connection points: 2
#     Edge 158, Type (0, 0), BuildingBlock: OJICUG_clean_linker_0, # of connection points: 2
#     Edge 159, Type (0, 0), BuildingBlock: OJICUG_clean_linker_0, # of connection points: 2
#     Edge 160, Type (0, 0), BuildingBlock: OJICUG_clean_linker_0, # of connection points: 2
#     Edge 161, Type (0, 0), BuildingBlock: OJICUG_clean_linker_0, # of connection points: 2
#     Edge 162, Type (0, 0), BuildingBlock: OJICUG_clean_linker_0, # of connection points: 2
#     Edge 163, Type (0, 0), BuildingBlock: OJICUG_clean_linker_0, # of connection points: 2
#     Edge 164, Type (0, 0), BuildingBlock: OJICUG_clean_linker_0, # of connection points: 2
#     Edge 165, Type (0, 0), BuildingBlock: OJICUG_clean_linker_0, # of connection points: 2
#     Edge 166, Type (0, 0), BuildingBlock: OJICUG_clean_linker_0, # of connection points: 2
#     Edge 167, Type (0, 0), BuildingBlock: OJICUG_clean_linker_0, # of connection points: 2
#     Edge 168, Type (0, 0), BuildingBlock: OJICUG_clean_linker_0, # of connection points: 2
#     Edge 169, Type (0, 0), BuildingBlock: OJICUG_clean_linker_0, # of connection points: 2
#     Edge 170, Type (0, 0), BuildingBlock: OJICUG_clean_linker_0, # of connection points: 2
#     Edge 171, Type (0, 0), BuildingBlock: OJICUG_clean_linker_0, # of connection points: 2
#     Edge 172, Type (0, 0), BuildingBlock: OJICUG_clean_linker_0, # of connection points: 2
#     Edge 173, Type (0, 0), BuildingBlock: OJICUG_clean_linker_0, # of connection points: 2
#     Edge 174, Type (0, 0), BuildingBlock: OJICUG_clean_linker_0, # of connection points: 2
#     Edge 175, Type (0, 0), BuildingBlock: OJICUG_clean_linker_0, # of connection points: 2
#     Edge 176, Type (0, 0), BuildingBlock: OJICUG_clean_linker_0, # of connection points: 2
#     Edge 177, Type (0, 0), BuildingBlock: OJICUG_clean_linker_0, # of connection points: 2
#     Edge 178, Type (0, 0), BuildingBlock: OJICUG_clean_linker_0, # of connection points: 2
#     Edge 179, Type (0, 0), BuildingBlock: OJICUG_clean_linker_0, # of connection points: 2
#     Edge 180, Type (0, 0), BuildingBlock: OJICUG_clean_linker_0, # of connection points: 2
#     Edge 181, Type (0, 0), BuildingBlock: OJICUG_clean_linker_0, # of connection points: 2
#     Edge 182, Type (0, 0), BuildingBlock: OJICUG_clean_linker_0, # of connection points: 2
#     Edge 183, Type (0, 0), BuildingBlock: OJICUG_clean_linker_0, # of connection points: 2
#     Edge 184, Type (0, 0), BuildingBlock: OJICUG_clean_linker_0, # of connection points: 2
#     Edge 185, Type (0, 0), BuildingBlock: OJICUG_clean_linker_0, # of connection points: 2
#     Edge 186, Type (0, 0), BuildingBlock: OJICUG_clean_linker_0, # of connection points: 2
#     Edge 187, Type (0, 0), BuildingBlock: OJICUG_clean_linker_0, # of connection points: 2
#     Edge 188, Type (0, 0), BuildingBlock: OJICUG_clean_linker_0, # of connection points: 2
#     Edge 189, Type (0, 0), BuildingBlock: OJICUG_clean_linker_0, # of connection points: 2
#     Edge 190, Type (0, 0), BuildingBlock: OJICUG_clean_linker_0, # of connection points: 2
#     Edge 191, Type (0, 0), BuildingBlock: OJICUG_clean_linker_0, # of connection points: 2
#     Edge 192, Type (0, 0), BuildingBlock: OJICUG_clean_linker_0, # of connection points: 2
#     Edge 193, Type (0, 0), BuildingBlock: OJICUG_clean_linker_0, # of connection points: 2
#     Edge 194, Type (0, 0), BuildingBlock: OJICUG_clean_linker_0, # of connection points: 2
#     Edge 195, Type (0, 0), BuildingBlock: OJICUG_clean_linker_0, # of connection points: 2
#     Edge 196, Type (0, 0), BuildingBlock: OJICUG_clean_linker_0, # of connection points: 2
#     Edge 197, Type (0, 0), BuildingBlock: OJICUG_clean_linker_0, # of connection points: 2
#     Edge 198, Type (0, 0), BuildingBlock: OJICUG_clean_linker_0, # of connection points: 2
#     Edge 199, Type (0, 0), BuildingBlock: OJICUG_clean_linker_0, # of connection points: 2
#     Edge 200, Type (0, 0), BuildingBlock: OJICUG_clean_linker_0, # of connection points: 2
#     Edge 201, Type (0, 0), BuildingBlock: OJICUG_clean_linker_0, # of connection points: 2
#     Edge 202, Type (0, 0), BuildingBlock: OJICUG_clean_linker_0, # of connection points: 2
#     Edge 203, Type (0, 0), BuildingBlock: OJICUG_clean_linker_0, # of connection points: 2
#     Edge 204, Type (0, 0), BuildingBlock: OJICUG_clean_linker_0, # of connection points: 2
#     Edge 205, Type (0, 0), BuildingBlock: OJICUG_clean_linker_0, # of connection points: 2
#     Edge 206, Type (0, 0), BuildingBlock: OJICUG_clean_linker_0, # of connection points: 2
#     Edge 207, Type (0, 0), BuildingBlock: OJICUG_clean_linker_0, # of connection points: 2
#     Edge 208, Type (0, 0), BuildingBlock: OJICUG_clean_linker_0, # of connection points: 2
#     Edge 209, Type (0, 0), BuildingBlock: OJICUG_clean_linker_0, # of connection points: 2
#     Edge 210, Type (0, 0), BuildingBlock: OJICUG_clean_linker_0, # of connection points: 2
#     Edge 211, Type (0, 0), BuildingBlock: OJICUG_clean_linker_0, # of connection points: 2
#     Edge 212, Type (0, 0), BuildingBlock: OJICUG_clean_linker_0, # of connection points: 2
#     Edge 213, Type (0, 0), BuildingBlock: OJICUG_clean_linker_0, # of connection points: 2
#     Edge 214, Type (0, 0), BuildingBlock: OJICUG_clean_linker_0, # of connection points: 2
#     Edge 215, Type (0, 0), BuildingBlock: OJICUG_clean_linker_0, # of connection points: 2
#     Edge 216, Type (0, 0), BuildingBlock: OJICUG_clean_linker_0, # of connection points: 2
#     Edge 217, Type (0, 0), BuildingBlock: OJICUG_clean_linker_0, # of connection points: 2
#     Edge 218, Type (0, 0), BuildingBlock: OJICUG_clean_linker_0, # of connection points: 2
#     Edge 219, Type (0, 0), BuildingBlock: OJICUG_clean_linker_0, # of connection points: 2
#     Edge 220, Type (0, 0), BuildingBlock: OJICUG_clean_linker_0, # of connection points: 2
#     Edge 221, Type (0, 0), BuildingBlock: OJICUG_clean_linker_0, # of connection points: 2
#     Edge 222, Type (0, 0), BuildingBlock: OJICUG_clean_linker_0, # of connection points: 2
#     Edge 223, Type (0, 0), BuildingBlock: OJICUG_clean_linker_0, # of connection points: 2
#     Edge 224, Type (0, 0), BuildingBlock: OJICUG_clean_linker_0, # of connection points: 2
#     Edge 225, Type (0, 0), BuildingBlock: OJICUG_clean_linker_0, # of connection points: 2
#     Edge 226, Type (0, 0), BuildingBlock: OJICUG_clean_linker_0, # of connection points: 2
#     Edge 227, Type (0, 0), BuildingBlock: OJICUG_clean_linker_0, # of connection points: 2
#     Edge 228, Type (0, 0), BuildingBlock: OJICUG_clean_linker_0, # of connection points: 2
#     Edge 229, Type (0, 0), BuildingBlock: OJICUG_clean_linker_0, # of connection points: 2
#     Edge 230, Type (0, 0), BuildingBlock: OJICUG_clean_linker_0, # of connection points: 2
#     Edge 231, Type (0, 0), BuildingBlock: OJICUG_clean_linker_0, # of connection points: 2
#     Edge 232, Type (0, 0), BuildingBlock: OJICUG_clean_linker_0, # of connection points: 2
#     Edge 233, Type (0, 0), BuildingBlock: OJICUG_clean_linker_0, # of connection points: 2
#     Edge 234, Type (0, 0), BuildingBlock: OJICUG_clean_linker_0, # of connection points: 2
#     Edge 235, Type (0, 0), BuildingBlock: OJICUG_clean_linker_0, # of connection points: 2
#     Edge 236, Type (0, 0), BuildingBlock: OJICUG_clean_linker_0, # of connection points: 2
#     Edge 237, Type (0, 0), BuildingBlock: OJICUG_clean_linker_0, # of connection points: 2
#     Edge 238, Type (0, 0), BuildingBlock: OJICUG_clean_linker_0, # of connection points: 2
#     Edge 239, Type (0, 0), BuildingBlock: OJICUG_clean_linker_0, # of connection points: 2
#     Edge 240, Type (0, 0), BuildingBlock: OJICUG_clean_linker_0, # of connection points: 2
#     Edge 241, Type (0, 0), BuildingBlock: OJICUG_clean_linker_0, # of connection points: 2
#     Edge 242, Type (0, 0), BuildingBlock: OJICUG_clean_linker_0, # of connection points: 2
#     Edge 243, Type (0, 0), BuildingBlock: OJICUG_clean_linker_0, # of connection points: 2
#     Edge 244, Type (0, 0), BuildingBlock: OJICUG_clean_linker_0, # of connection points: 2
#     Edge 245, Type (0, 0), BuildingBlock: OJICUG_clean_linker_0, # of connection points: 2
#     Edge 246, Type (0, 0), BuildingBlock: OJICUG_clean_linker_0, # of connection points: 2
#     Edge 247, Type (0, 0), BuildingBlock: OJICUG_clean_linker_0, # of connection points: 2
#     Edge 248, Type (0, 0), BuildingBlock: OJICUG_clean_linker_0, # of connection points: 2
#     Edge 249, Type (0, 0), BuildingBlock: OJICUG_clean_linker_0, # of connection points: 2
#     Edge 250, Type (0, 0), BuildingBlock: OJICUG_clean_linker_0, # of connection points: 2
#     Edge 251, Type (0, 0), BuildingBlock: OJICUG_clean_linker_0, # of connection points: 2
#     Edge 252, Type (0, 0), BuildingBlock: OJICUG_clean_linker_0, # of connection points: 2
#     Edge 253, Type (0, 0), BuildingBlock: OJICUG_clean_linker_0, # of connection points: 2
#     Edge 254, Type (0, 0), BuildingBlock: OJICUG_clean_linker_0, # of connection points: 2
#     Edge 255, Type (0, 0), BuildingBlock: OJICUG_clean_linker_0, # of connection points: 2
#     Edge 256, Type (0, 0), BuildingBlock: OJICUG_clean_linker_0, # of connection points: 2
#     Edge 257, Type (0, 0), BuildingBlock: OJICUG_clean_linker_0, # of connection points: 2
#     Edge 258, Type (0, 0), BuildingBlock: OJICUG_clean_linker_0, # of connection points: 2
#     Edge 259, Type (0, 0), BuildingBlock: OJICUG_clean_linker_0, # of connection points: 2
#     Edge 260, Type (0, 0), BuildingBlock: OJICUG_clean_linker_0, # of connection points: 2
#     Edge 261, Type (0, 0), BuildingBlock: OJICUG_clean_linker_0, # of connection points: 2
#     Edge 262, Type (0, 0), BuildingBlock: OJICUG_clean_linker_0, # of connection points: 2
#     Edge 263, Type (0, 0), BuildingBlock: OJICUG_clean_linker_0, # of connection points: 2
#     Edge 264, Type (0, 0), BuildingBlock: OJICUG_clean_linker_0, # of connection points: 2
#     Edge 265, Type (0, 0), BuildingBlock: OJICUG_clean_linker_0, # of connection points: 2
#     Edge 266, Type (0, 0), BuildingBlock: OJICUG_clean_linker_0, # of connection points: 2
#     Edge 267, Type (0, 0), BuildingBlock: OJICUG_clean_linker_0, # of connection points: 2
#     Edge 268, Type (0, 0), BuildingBlock: OJICUG_clean_linker_0, # of connection points: 2
#     Edge 269, Type (0, 0), BuildingBlock: OJICUG_clean_linker_0, # of connection points: 2
#     Edge 270, Type (0, 0), BuildingBlock: OJICUG_clean_linker_0, # of connection points: 2
#     Edge 271, Type (0, 0), BuildingBlock: OJICUG_clean_linker_0, # of connection points: 2
#     Edge 272, Type (0, 0), BuildingBlock: OJICUG_clean_linker_0, # of connection points: 2
#     Edge 273, Type (0, 0), BuildingBlock: OJICUG_clean_linker_0, # of connection points: 2
#     Edge 274, Type (0, 0), BuildingBlock: OJICUG_clean_linker_0, # of connection points: 2
#     Edge 275, Type (0, 0), BuildingBlock: OJICUG_clean_linker_0, # of connection points: 2
#     Edge 276, Type (0, 0), BuildingBlock: OJICUG_clean_linker_0, # of connection points: 2
#     Edge 277, Type (0, 0), BuildingBlock: OJICUG_clean_linker_0, # of connection points: 2
#     Edge 278, Type (0, 0), BuildingBlock: OJICUG_clean_linker_0, # of connection points: 2
#     Edge 279, Type (0, 0), BuildingBlock: OJICUG_clean_linker_0, # of connection points: 2
#     Edge 280, Type (0, 0), BuildingBlock: OJICUG_clean_linker_0, # of connection points: 2
#     Edge 281, Type (0, 0), BuildingBlock: OJICUG_clean_linker_0, # of connection points: 2
#     Edge 282, Type (0, 0), BuildingBlock: OJICUG_clean_linker_0, # of connection points: 2
#     Edge 283, Type (0, 0), BuildingBlock: OJICUG_clean_linker_0, # of connection points: 2
#     Edge 284, Type (0, 0), BuildingBlock: OJICUG_clean_linker_0, # of connection points: 2
#     Edge 285, Type (0, 0), BuildingBlock: OJICUG_clean_linker_0, # of connection points: 2
#     Edge 286, Type (0, 0), BuildingBlock: OJICUG_clean_linker_0, # of connection points: 2
#     Edge 287, Type (0, 0), BuildingBlock: OJICUG_clean_linker_0, # of connection points: 2
# Relax obj value: 0.559
# Max RMSD: 0.157
# Mean RMSD: 0.157
data_MOF--net-ulg--node1-CEKHIL_clean_sbu_0--edge1-OJICUG_clean_linker_0
_symmetry_space_group_name_H-M    P1
_symmetry_Int_Tables_number       1
_symmetry_cell_setting            triclinic
loop_
_symmetry_equiv_pos_as_xyz
'x, y, z'
_cell_length_a     66.891635
_cell_length_b     66.893277
_cell_length_c     66.89491
_cell_angle_alpha  89.997998
_cell_angle_beta   89.997849
_cell_angle_gamma 89.99805
loop_
_atom_site_label
_atom_site_type_symbol
_atom_site_fract_x
_atom_site_fract_y
_atom_site_fract_z
_atom_type_partial_charge
Co0 Co 0.06773 0.5419 0.17002 0.0
O1 O 0.04311 0.536 0.18384 0.0
O2 O 0.05075 0.52526 0.15348 0.0
C3 C 0.08838 0.53583 0.19631 0.0
O4 O 0.09159 0.54368 0.15111 0.0
Co5 Co 0.0966 0.57559 0.18386 0.0
O6 O 0.1157 0.56201 0.16557 0.0
C7 C 0.05984 0.58585 0.16148 0.0
C8 C 0.03815 0.5255 0.16828 0.0
C9 C 0.10962 0.55033 0.15179 0.0
O10 O 0.05614 0.56723 0.1579 0.0
O11 O 0.07386 0.59175 0.17311 0.0
O12 O 0.08188 0.52109 0.1854 0.0
O13 O 0.08092 0.55299 0.19202 0.0
Co14 Co 0.71205 0.31778 0.41979 0.0
O15 O 0.71793 0.29319 0.43364 0.0
O16 O 0.72872 0.30079 0.40329 0.0
C17 C 0.71813 0.33844 0.44608 0.0
O18 O 0.71029 0.34164 0.40087 0.0
Co19 Co 0.67836 0.34668 0.43361 0.0
O20 O 0.69197 0.36576 0.41532 0.0
C21 C 0.6681 0.30995 0.41118 0.0
C22 C 0.72847 0.28822 0.41812 0.0
C23 C 0.70364 0.35967 0.40154 0.0
O24 O 0.68672 0.3062 0.40765 0.0
O25 O 0.6622 0.32398 0.42279 0.0
O26 O 0.73286 0.33192 0.43517 0.0
O27 O 0.70096 0.33099 0.44178 0.0
Co28 Co 0.93644 0.96169 0.67025 0.0
O29 O 0.96108 0.9675 0.68406 0.0
O30 O 0.95343 0.97835 0.65375 0.0
C31 C 0.91584 0.96774 0.6966 0.0
O32 O 0.91255 0.96003 0.65137 0.0
Co33 Co 0.90748 0.92805 0.68403 0.0
O34 O 0.8884 0.94174 0.6658 0.0
C35 C 0.94418 0.91774 0.66158 0.0
C36 C 0.96604 0.97804 0.66853 0.0
C37 C 0.89451 0.95343 0.65205 0.0
O38 O 0.94795 0.93636 0.65805 0.0
O39 O 0.93015 0.91186 0.6732 0.0
O40 O 0.92236 0.98249 0.68571 0.0
O41 O 0.92324 0.95058 0.69225 0.0
Co42 Co 0.2922 0.18627 0.92029 0.0
O43 O 0.28623 0.21081 0.93421 0.0
O44 O 0.27541 0.2032 0.90387 0.0
C45 C 0.28631 0.1655 0.94654 0.0
O46 O 0.294 0.16247 0.90131 0.0
Co47 Co 0.32607 0.1575 0.9339 0.0
O48 O 0.31248 0.13839 0.91562 0.0
C49 C 0.33609 0.19431 0.9115 0.0
C50 C 0.27563 0.21575 0.91871 0.0
C51 C 0.30073 0.14447 0.90191 0.0
O52 O 0.31743 0.19799 0.90808 0.0
O53 O 0.3421 0.18028 0.92305 0.0
O54 O 0.27151 0.17198 0.9357 0.0
O55 O 0.30343 0.17305 0.94222 0.0
Co56 Co 0.06799 0.46183 0.83386 0.0
O57 O 0.04339 0.46779 0.82004 0.0
O58 O 0.05112 0.47858 0.85036 0.0
C59 C 0.08866 0.46774 0.80754 0.0
O60 O 0.09185 0.46003 0.85275 0.0
Co61 Co 0.09677 0.428 0.82013 0.0
O62 O 0.11592 0.44159 0.83837 0.0
C63 C 0.05999 0.41792 0.84256 0.0
C64 C 0.0385 0.47836 0.83558 0.0
C65 C 0.10986 0.45333 0.8521 0.0
O66 O 0.05632 0.43657 0.84606 0.0
O67 O 0.074 0.41195 0.83097 0.0
O68 O 0.08221 0.48253 0.81841 0.0
O69 O 0.08114 0.45062 0.81188 0.0
Co70 Co 0.79197 0.31751 0.08393 0.0
O71 O 0.78614 0.29289 0.07012 0.0
O72 O 0.77526 0.30056 0.10042 0.0
C73 C 0.78597 0.33811 0.05758 0.0
O74 O 0.79367 0.34141 0.1028 0.0
Co75 Co 0.82569 0.34638 0.07016 0.0
O76 O 0.812 0.36551 0.08834 0.0
C77 C 0.8359 0.30971 0.0927 0.0
C78 C 0.77555 0.28796 0.08562 0.0
C79 C 0.80029 0.35944 0.10209 0.0
O80 O 0.81727 0.30596 0.09618 0.0
O81 O 0.84183 0.32371 0.08107 0.0
O82 O 0.77121 0.33162 0.06846 0.0
O83 O 0.80313 0.33068 0.06194 0.0
Co84 Co 0.93634 0.04229 0.33397 0.0
O85 O 0.96096 0.03641 0.32014 0.0
O86 O 0.95327 0.02556 0.35045 0.0
C87 C 0.91572 0.03634 0.30763 0.0
O88 O 0.91247 0.04401 0.35286 0.0
Co89 Co 0.90749 0.07605 0.32025 0.0
O90 O 0.88837 0.06241 0.33849 0.0
C91 C 0.94424 0.0862 0.3427 0.0
C92 C 0.96588 0.02583 0.33566 0.0
C93 C 0.89445 0.05068 0.35222 0.0
O94 O 0.94795 0.06756 0.34619 0.0
O95 O 0.93022 0.09215 0.3311 0.0
O96 O 0.92219 0.02156 0.31849 0.0
O97 O 0.92318 0.05348 0.31199 0.0
Co98 Co 0.2118 0.18629 0.58404 0.0
O99 O 0.21755 0.21088 0.57015 0.0
O100 O 0.22848 0.20332 0.60046 0.0
C101 C 0.21781 0.16563 0.55774 0.0
O102 O 0.21018 0.16244 0.60299 0.0
Co103 Co 0.17812 0.15731 0.57041 0.0
O104 O 0.19189 0.13826 0.58862 0.0
C105 C 0.16786 0.19404 0.59282 0.0
C106 C 0.22814 0.21589 0.58563 0.0
C107 C 0.2036 0.14439 0.60234 0.0
O108 O 0.18649 0.19782 0.59628 0.0
O109 O 0.16195 0.17999 0.58125 0.0
O110 O 0.23257 0.17218 0.56858 0.0
O111 O 0.20064 0.17304 0.56211 0.0
Co112 Co 0.17009 0.0678 0.54223 0.0
O113 O 0.1839 0.0432 0.53628 0.0
O114 O 0.15353 0.05086 0.5256 0.0
C115 C 0.19637 0.08846 0.53611 0.0
O116 O 0.1512 0.09166 0.54406 0.0
Co117 Co 0.18399 0.09665 0.57591 0.0
O118 O 0.16567 0.11576 0.56237 0.0
C119 C 0.16159 0.05992 0.58619 0.0
C120 C 0.16833 0.03826 0.52579 0.0
C121 C 0.15188 0.10968 0.55072 0.0
O122 O 0.15802 0.0562 0.56757 0.0
O123 O 0.17322 0.07394 0.59208 0.0
O124 O 0.18543 0.08196 0.5214 0.0
O125 O 0.19212 0.08099 0.55328 0.0
Co126 Co 0.18644 0.41957 0.79221 0.0
O127 O 0.21105 0.43342 0.78635 0.0
O128 O 0.20346 0.40308 0.77557 0.0
C129 C 0.1658 0.44587 0.78609 0.0
O130 O 0.16257 0.40066 0.79396 0.0
Co131 Co 0.15749 0.43345 0.82583 0.0
O132 O 0.13842 0.41516 0.8122 0.0
C133 C 0.19419 0.41102 0.8362 0.0
C134 C 0.21602 0.41791 0.7758 0.0
C135 C 0.14453 0.40136 0.80057 0.0
O136 O 0.19798 0.40745 0.81759 0.0
O137 O 0.18016 0.42265 0.84204 0.0
O138 O 0.17233 0.43494 0.77138 0.0
O139 O 0.17322 0.44158 0.80327 0.0
Co140 Co 0.83378 0.43592 0.04185 0.0
O141 O 0.81995 0.46051 0.0359 0.0
O142 O 0.85031 0.45285 0.02517 0.0
C143 C 0.8075 0.41525 0.03581 0.0
O144 O 0.85268 0.41207 0.04368 0.0
Co145 Co 0.81995 0.40713 0.07561 0.0
O146 O 0.83823 0.388 0.06205 0.0
C147 C 0.84236 0.44389 0.08578 0.0
C148 C 0.83551 0.46545 0.02538 0.0
C149 C 0.852 0.39406 0.05036 0.0
O150 O 0.8459 0.44757 0.06715 0.0
O151 O 0.83075 0.42987 0.09172 0.0
O152 O 0.81841 0.42173 0.02107 0.0
O153 O 0.81177 0.42275 0.05296 0.0
Co154 Co 0.81799 0.08429 0.29199 0.0
O155 O 0.79338 0.07047 0.28608 0.0
O156 O 0.80101 0.10083 0.27536 0.0
C157 C 0.83863 0.05799 0.28588 0.0
O158 O 0.84186 0.10318 0.29379 0.0
Co159 Co 0.84688 0.07037 0.32565 0.0
O160 O 0.86597 0.08869 0.31208 0.0
C161 C 0.81016 0.09279 0.33597 0.0
C162 C 0.78842 0.08602 0.27557 0.0
C163 C 0.85989 0.10249 0.30044 0.0
O164 O 0.80642 0.09638 0.31736 0.0
O165 O 0.82418 0.08114 0.34183 0.0
O166 O 0.83213 0.06893 0.27117 0.0
O167 O 0.83118 0.06226 0.30305 0.0
Co168 Co 0.16993 0.93635 0.46196 0.0
O169 O 0.18375 0.96096 0.46782 0.0
O170 O 0.15341 0.95332 0.47861 0.0
C171 C 0.19625 0.91573 0.46803 0.0
O172 O 0.15104 0.91248 0.46024 0.0
Co173 Co 0.18374 0.90743 0.42831 0.0
O174 O 0.16548 0.88834 0.44195 0.0
C175 C 0.16135 0.94416 0.41801 0.0
C176 C 0.16821 0.96592 0.47835 0.0
C177 C 0.15172 0.89444 0.45362 0.0
O178 O 0.15778 0.94791 0.43662 0.0
O179 O 0.17297 0.93013 0.41213 0.0
O180 O 0.18534 0.92224 0.48276 0.0
O181 O 0.19193 0.92316 0.45086 0.0
Co182 Co 0.31741 0.42027 0.71103 0.0
O183 O 0.29286 0.43405 0.71733 0.0
O184 O 0.30065 0.40363 0.72778 0.0
C185 C 0.33819 0.4465 0.71699 0.0
O186 O 0.34122 0.40136 0.70887 0.0
Co187 Co 0.34591 0.43425 0.67707 0.0
O188 O 0.36512 0.41577 0.69024 0.0
C189 C 0.30906 0.41191 0.66712 0.0
C190 C 0.28804 0.41842 0.7278 0.0
C191 C 0.35914 0.40198 0.70195 0.0
O192 O 0.30554 0.40827 0.68577 0.0
O193 O 0.32299 0.4236 0.66112 0.0
O194 O 0.33182 0.43553 0.73174 0.0
O195 O 0.33052 0.44233 0.6999 0.0
Co196 Co 0.83386 0.5675 0.96178 0.0
O197 O 0.82007 0.54285 0.96755 0.0
O198 O 0.85035 0.55054 0.97847 0.0
C199 C 0.80748 0.58806 0.96777 0.0
O200 O 0.85271 0.59141 0.96015 0.0
Co201 Co 0.82013 0.59641 0.92809 0.0
O202 O 0.83828 0.61553 0.94182 0.0
C203 C 0.84268 0.55976 0.91785 0.0
C204 C 0.83558 0.53791 0.97813 0.0
C205 C 0.85201 0.60945 0.95355 0.0
O206 O 0.84615 0.556 0.93648 0.0
O207 O 0.83106 0.57376 0.91192 0.0
O208 O 0.81834 0.58155 0.98254 0.0
O209 O 0.81187 0.58066 0.95061 0.0
Co210 Co 0.68644 0.08412 0.21175 0.0
O211 O 0.71106 0.07032 0.2177 0.0
O212 O 0.70343 0.10071 0.22832 0.0
C213 C 0.66577 0.05787 0.21795 0.0
O214 O 0.66258 0.10302 0.20992 0.0
Co215 Co 0.65754 0.07013 0.17815 0.0
O216 O 0.63845 0.08848 0.19168 0.0
C217 C 0.69426 0.09249 0.16775 0.0
C218 C 0.71602 0.08591 0.22815 0.0
C219 C 0.64454 0.1023 0.2033 0.0
O220 O 0.698 0.09613 0.18635 0.0
O221 O 0.68024 0.08083 0.16192 0.0
O222 O 0.6723 0.06883 0.23263 0.0
O223 O 0.67323 0.06207 0.20077 0.0
Co224 Co 0.54169 0.17012 0.06753 0.0
O225 O 0.53583 0.18399 0.04295 0.0
O226 O 0.52503 0.15364 0.05051 0.0
C227 C 0.53564 0.19638 0.08823 0.0
O228 O 0.54344 0.15118 0.09138 0.0
Co229 Co 0.57541 0.1839 0.09641 0.0
O230 O 0.56178 0.16563 0.11549 0.0
C231 C 0.58564 0.16149 0.05967 0.0
C232 C 0.52531 0.16846 0.03794 0.0
C233 C 0.55009 0.15187 0.10941 0.0
O234 O 0.56702 0.15797 0.05594 0.0
O235 O 0.59156 0.1731 0.07369 0.0
O236 O 0.5209 0.1855 0.0817 0.0
O237 O 0.55279 0.19209 0.08077 0.0
Co238 Co 0.04197 0.83403 0.43632 0.0
O239 O 0.03608 0.82018 0.46092 0.0
O240 O 0.02528 0.85052 0.45329 0.0
C241 C 0.03594 0.80773 0.41567 0.0
O242 O 0.04373 0.85294 0.41246 0.0
Co243 Co 0.07569 0.82023 0.40745 0.0
O244 O 0.06207 0.8385 0.38836 0.0
C245 C 0.08591 0.84266 0.44419 0.0
C246 C 0.02553 0.83571 0.46587 0.0
C247 C 0.05038 0.85226 0.39443 0.0
O248 O 0.06728 0.84619 0.44792 0.0
O249 O 0.09183 0.83105 0.43017 0.0
O250 O 0.02119 0.81862 0.42217 0.0
O251 O 0.05309 0.81204 0.42313 0.0
Co252 Co 0.4197 0.29194 0.68542 0.0
O253 O 0.43337 0.2864 0.71019 0.0
O254 O 0.4031 0.27545 0.7025 0.0
C255 C 0.44619 0.28567 0.66509 0.0
O256 O 0.40096 0.29341 0.6614 0.0
Co257 Co 0.43373 0.32528 0.6562 0.0
O258 O 0.4155 0.31151 0.63718 0.0
C259 C 0.41092 0.33597 0.69259 0.0
C260 C 0.41783 0.27589 0.71518 0.0
C261 C 0.40169 0.29991 0.64332 0.0
O262 O 0.40743 0.31739 0.69659 0.0
O263 O 0.42261 0.34171 0.67855 0.0
O264 O 0.43523 0.271 0.67166 0.0
O265 O 0.44178 0.30292 0.67227 0.0
Co266 Co 0.96165 0.67012 0.93648 0.0
O267 O 0.96745 0.6839 0.96114 0.0
O268 O 0.97834 0.65362 0.95342 0.0
C269 C 0.96764 0.69651 0.91593 0.0
O270 O 0.96001 0.65128 0.91257 0.0
Co271 Co 0.92796 0.68388 0.90757 0.0
O272 O 0.94167 0.66569 0.88845 0.0
C273 C 0.91772 0.66136 0.94424 0.0
C274 C 0.97803 0.66838 0.96606 0.0
C275 C 0.95339 0.65196 0.89453 0.0
O276 O 0.93635 0.65786 0.94799 0.0
O277 O 0.91181 0.67299 0.93024 0.0
O278 O 0.98241 0.68564 0.92242 0.0
O279 O 0.95048 0.69212 0.92333 0.0
Co280 Co 0.08372 0.71184 0.18641 0.0
O281 O 0.06992 0.71769 0.21104 0.0
O282 O 0.10025 0.72849 0.20336 0.0
C283 C 0.05738 0.71789 0.16581 0.0
O284 O 0.10259 0.71014 0.16252 0.0
Co285 Co 0.06992 0.67819 0.15747 0.0
O286 O 0.08817 0.69185 0.13838 0.0
C287 C 0.09236 0.66788 0.19417 0.0
C288 C 0.08547 0.72822 0.21598 0.0
C289 C 0.10192 0.70353 0.14448 0.0
O290 O 0.0959 0.6865 0.19793 0.0
O291 O 0.08074 0.662 0.18014 0.0
O292 O 0.06828 0.73264 0.17231 0.0
O293 O 0.06171 0.70073 0.17322 0.0
Co294 Co 0.46206 0.83404 0.06779 0.0
O295 O 0.46783 0.82022 0.04316 0.0
O296 O 0.47865 0.85056 0.05076 0.0
C297 C 0.4682 0.80772 0.08839 0.0
O298 O 0.46039 0.85292 0.09168 0.0
Co299 Co 0.42847 0.82019 0.09679 0.0
O300 O 0.44215 0.83845 0.11584 0.0
C301 C 0.41808 0.84264 0.06011 0.0
C302 C 0.47834 0.83576 0.03816 0.0
C303 C 0.45381 0.85223 0.10973 0.0
O304 O 0.43669 0.84619 0.05632 0.0
O305 O 0.41223 0.831 0.07414 0.0
O306 O 0.48291 0.81863 0.08184 0.0
O307 O 0.45101 0.81203 0.08101 0.0
Co308 Co 0.41973 0.21267 0.81754 0.0
O309 O 0.4335 0.21862 0.79292 0.0
O310 O 0.40312 0.22927 0.80058 0.0
C311 C 0.44604 0.21882 0.83815 0.0
O312 O 0.40088 0.2108 0.84144 0.0
Co313 Co 0.43378 0.17899 0.84635 0.0
O314 O 0.41548 0.19251 0.86549 0.0
C315 C 0.41137 0.16868 0.80963 0.0
C316 C 0.41791 0.22908 0.78797 0.0
C317 C 0.40164 0.20414 0.85946 0.0
O318 O 0.40769 0.18729 0.80595 0.0
O319 O 0.42307 0.16283 0.82361 0.0
O320 O 0.43507 0.23352 0.83169 0.0
O321 O 0.4418 0.20165 0.83068 0.0
Co322 Co 0.58385 0.29191 0.3177 0.0
O323 O 0.56996 0.28598 0.29314 0.0
O324 O 0.60034 0.27525 0.3007 0.0
C325 C 0.55763 0.28585 0.33845 0.0
O326 O 0.60283 0.29371 0.34151 0.0
Co327 Co 0.5701 0.32563 0.34658 0.0
O328 O 0.58844 0.31206 0.36564 0.0
C329 C 0.59239 0.33586 0.30977 0.0
C330 C 0.58551 0.27547 0.28814 0.0
C331 C 0.6022 0.30038 0.35953 0.0
O332 O 0.59594 0.31723 0.30606 0.0
O333 O 0.5808 0.34177 0.32381 0.0
O334 O 0.56852 0.27112 0.33193 0.0
O335 O 0.56188 0.30301 0.33096 0.0
Co336 Co 0.06804 0.04179 0.67029 0.0
O337 O 0.04344 0.03584 0.68413 0.0
O338 O 0.05109 0.02512 0.65377 0.0
C339 C 0.08872 0.03575 0.69657 0.0
O340 O 0.09189 0.04361 0.65138 0.0
Co341 Co 0.09687 0.07552 0.68412 0.0
O342 O 0.11598 0.06195 0.66583 0.0
C343 C 0.0601 0.08574 0.66174 0.0
C344 C 0.0385 0.02533 0.66857 0.0
C345 C 0.10991 0.05028 0.65205 0.0
O346 O 0.0564 0.06712 0.65818 0.0
O347 O 0.07412 0.09165 0.67335 0.0
O348 O 0.08223 0.02101 0.68566 0.0
O349 O 0.08123 0.0529 0.6923 0.0
Co350 Co 0.71164 0.81756 0.92021 0.0
O351 O 0.7175 0.79296 0.93406 0.0
O352 O 0.72831 0.80059 0.90372 0.0
C353 C 0.71764 0.83825 0.94649 0.0
O354 O 0.70992 0.84141 0.90128 0.0
Co355 Co 0.67792 0.84647 0.93391 0.0
O356 O 0.69157 0.86554 0.91564 0.0
C357 C 0.6677 0.8097 0.91155 0.0
C358 C 0.72803 0.78799 0.91852 0.0
C359 C 0.70328 0.85944 0.90191 0.0
O360 O 0.68633 0.80597 0.90803 0.0
O361 O 0.66178 0.82374 0.92314 0.0
O362 O 0.7324 0.83173 0.93563 0.0
O363 O 0.70049 0.83079 0.94217 0.0
Co364 Co 0.9359 0.46214 0.16989 0.0
O365 O 0.96049 0.46802 0.18375 0.0
O366 O 0.95293 0.47873 0.15336 0.0
C367 C 0.91521 0.46829 0.19613 0.0
O368 O 0.91206 0.46036 0.15095 0.0
Co369 Co 0.90697 0.4285 0.18376 0.0
O370 O 0.88792 0.44208 0.16541 0.0
C371 C 0.94372 0.41816 0.16142 0.0
C372 C 0.9655 0.47849 0.16819 0.0
C373 C 0.89402 0.45372 0.15162 0.0
O374 O 0.94747 0.43677 0.15783 0.0
O375 O 0.92968 0.4123 0.17304 0.0
O376 O 0.92175 0.48299 0.1852 0.0
O377 O 0.92265 0.45111 0.19189 0.0
Co378 Co 0.29242 0.6867 0.42007 0.0
O379 O 0.28658 0.71134 0.43385 0.0
O380 O 0.27576 0.70364 0.40354 0.0
C381 C 0.28637 0.66612 0.44644 0.0
O382 O 0.29411 0.66279 0.40122 0.0
Co383 Co 0.32607 0.65776 0.43389 0.0
O384 O 0.31239 0.63865 0.41567 0.0
C385 C 0.33638 0.69445 0.41141 0.0
C386 C 0.27603 0.71626 0.41831 0.0
C387 C 0.3007 0.64475 0.40191 0.0
O388 O 0.31776 0.69821 0.40787 0.0
O389 O 0.34225 0.68043 0.42305 0.0
O390 O 0.27163 0.67262 0.43553 0.0
O391 O 0.30354 0.67353 0.44209 0.0
Co392 Co 0.06778 0.96196 0.33389 0.0
O393 O 0.04315 0.96782 0.32009 0.0
O394 O 0.05085 0.97866 0.3504 0.0
C395 C 0.08839 0.96795 0.30754 0.0
O396 O 0.09166 0.96026 0.35277 0.0
Co397 Co 0.09667 0.92825 0.32015 0.0
O398 O 0.11578 0.94191 0.33837 0.0
C399 C 0.05996 0.91804 0.34263 0.0
C400 C 0.03823 0.97839 0.33562 0.0
C401 C 0.1097 0.95362 0.35211 0.0
O402 O 0.05622 0.93667 0.34612 0.0
O403 O 0.07398 0.91211 0.33102 0.0
O404 O 0.0819 0.98272 0.31842 0.0
O405 O 0.08095 0.9508 0.3119 0.0
Co406 Co 0.79195 0.81794 0.58417 0.0
O407 O 0.78607 0.79336 0.5703 0.0
O408 O 0.77529 0.80094 0.60066 0.0
C409 C 0.78591 0.83864 0.5579 0.0
O410 O 0.79372 0.84178 0.60311 0.0
Co411 Co 0.82568 0.84681 0.5704 0.0
O412 O 0.81208 0.86589 0.5887 0.0
C413 C 0.83589 0.81004 0.59276 0.0
C414 C 0.77556 0.78837 0.58584 0.0
C415 C 0.80039 0.8598 0.60246 0.0
O416 O 0.81727 0.80633 0.5963 0.0
O417 O 0.84181 0.82407 0.58116 0.0
O418 O 0.77116 0.83212 0.56879 0.0
O419 O 0.80306 0.83117 0.56219 0.0
Co420 Co 0.93658 0.54219 0.834 0.0
O421 O 0.96122 0.5364 0.82019 0.0
O422 O 0.95358 0.52556 0.85051 0.0
C423 C 0.91598 0.5361 0.80767 0.0
O424 O 0.91269 0.54386 0.85288 0.0
Co425 Co 0.9076 0.57581 0.82019 0.0
O426 O 0.88853 0.5621 0.8384 0.0
C427 C 0.94427 0.58616 0.84268 0.0
C428 C 0.96618 0.52585 0.83571 0.0
C429 C 0.89463 0.55043 0.85217 0.0
O430 O 0.94807 0.56755 0.84619 0.0
O431 O 0.93023 0.59203 0.83105 0.0
O432 O 0.92252 0.52137 0.81857 0.0
O433 O 0.92337 0.55328 0.812 0.0
Co434 Co 0.21177 0.68639 0.08418 0.0
O435 O 0.21766 0.71102 0.07039 0.0
O436 O 0.22843 0.70334 0.10072 0.0
C437 C 0.21784 0.66579 0.05785 0.0
O438 O 0.21002 0.6625 0.10305 0.0
Co439 Co 0.1781 0.6575 0.07032 0.0
O440 O 0.19172 0.63839 0.08858 0.0
C441 C 0.16781 0.6942 0.09277 0.0
C442 C 0.22819 0.71596 0.08593 0.0
C443 C 0.20339 0.64447 0.10236 0.0
O444 O 0.18643 0.69794 0.09633 0.0
O445 O 0.16193 0.68019 0.08113 0.0
O446 O 0.23257 0.67228 0.06877 0.0
O447 O 0.20067 0.67322 0.06216 0.0
Co448 Co 0.16996 0.56798 0.04205 0.0
O449 O 0.18381 0.5434 0.03611 0.0
O450 O 0.15346 0.55104 0.02534 0.0
C451 C 0.19624 0.58867 0.03606 0.0
O452 O 0.15103 0.59183 0.04386 0.0
Co453 Co 0.18373 0.5968 0.07582 0.0
O454 O 0.16543 0.61591 0.06225 0.0
C455 C 0.16134 0.56002 0.08598 0.0
C456 C 0.16827 0.53845 0.02557 0.0
C457 C 0.15167 0.60984 0.05055 0.0
O458 O 0.15781 0.55633 0.06735 0.0
O459 O 0.17295 0.57404 0.09191 0.0
O460 O 0.18535 0.58219 0.0213 0.0
O461 O 0.19194 0.58117 0.0532 0.0
Co462 Co 0.18613 0.92009 0.29196 0.0
O463 O 0.21076 0.93389 0.28612 0.0
O464 O 0.20314 0.90354 0.27536 0.0
C465 C 0.1655 0.94639 0.28583 0.0
O466 O 0.16225 0.9012 0.29369 0.0
Co467 Co 0.15718 0.93396 0.32557 0.0
O468 O 0.13811 0.91567 0.31195 0.0
C469 C 0.19389 0.91155 0.33593 0.0
C470 C 0.21574 0.91833 0.27564 0.0
C471 C 0.14421 0.90189 0.3003 0.0
O472 O 0.19765 0.90797 0.31733 0.0
O473 O 0.17986 0.92319 0.34179 0.0
O474 O 0.17203 0.93546 0.27111 0.0
O475 O 0.17292 0.9421 0.303 0.0
Co476 Co 0.83397 0.93635 0.54232 0.0
O477 O 0.82021 0.96101 0.53645 0.0
O478 O 0.85051 0.95327 0.52563 0.0
C479 C 0.8076 0.91578 0.5363 0.0
O480 O 0.85281 0.91244 0.54404 0.0
Co481 Co 0.82013 0.90748 0.57601 0.0
O482 O 0.83834 0.88834 0.56236 0.0
C483 C 0.84267 0.94415 0.58626 0.0
C484 C 0.83575 0.96591 0.52589 0.0
C485 C 0.8521 0.8944 0.55067 0.0
O486 O 0.84619 0.94789 0.56763 0.0
O487 O 0.83103 0.93015 0.59217 0.0
O488 O 0.8185 0.92226 0.52155 0.0
O489 O 0.81195 0.92321 0.55345 0.0
Co490 Co 0.81806 0.58383 0.79214 0.0
O491 O 0.79349 0.56995 0.78621 0.0
O492 O 0.80109 0.60032 0.77547 0.0
C493 C 0.83878 0.55758 0.78611 0.0
O494 O 0.84187 0.60278 0.79393 0.0
Co495 Co 0.84692 0.57009 0.82587 0.0
O496 O 0.866 0.5884 0.81229 0.0
C497 C 0.81012 0.59242 0.83607 0.0
C498 C 0.78852 0.58549 0.77569 0.0
C499 C 0.85989 0.60215 0.8006 0.0
O500 O 0.80641 0.59594 0.81745 0.0
O501 O 0.82416 0.58084 0.84201 0.0
O502 O 0.83226 0.56847 0.77136 0.0
O503 O 0.83129 0.56186 0.80326 0.0
Co504 Co 0.16998 0.43631 0.96204 0.0
O505 O 0.18385 0.46091 0.96789 0.0
O506 O 0.15346 0.45337 0.9786 0.0
C507 C 0.19622 0.41561 0.96822 0.0
O508 O 0.15103 0.41249 0.96031 0.0
Co509 Co 0.18382 0.40728 0.92848 0.0
O510 O 0.16546 0.38828 0.9421 0.0
C511 C 0.16151 0.44402 0.91804 0.0
C512 C 0.16828 0.46593 0.97835 0.0
C513 C 0.15168 0.39443 0.95373 0.0
O514 O 0.15793 0.44783 0.93664 0.0
O515 O 0.17312 0.42996 0.91222 0.0
O516 O 0.1853 0.42219 0.98291 0.0
O517 O 0.19198 0.42303 0.95103 0.0
Co518 Co 0.31802 0.91996 0.21231 0.0
O519 O 0.29341 0.9338 0.21818 0.0
O520 O 0.30101 0.90344 0.22895 0.0
C521 C 0.33867 0.94624 0.2184 0.0
O522 O 0.34188 0.90105 0.21054 0.0
Co523 Co 0.3469 0.93381 0.17863 0.0
O524 O 0.36598 0.91552 0.19222 0.0
C525 C 0.31017 0.9114 0.16835 0.0
C526 C 0.28843 0.91825 0.22868 0.0
C527 C 0.35991 0.90174 0.20388 0.0
O528 O 0.30644 0.90784 0.18697 0.0
O529 O 0.32419 0.92302 0.16246 0.0
O530 O 0.33216 0.93532 0.23313 0.0
O531 O 0.33122 0.94196 0.20124 0.0
Co532 Co 0.83415 0.06786 0.46206 0.0
O533 O 0.82032 0.04325 0.46793 0.0
O534 O 0.85066 0.05088 0.47872 0.0
C535 C 0.80785 0.08851 0.46812 0.0
O536 O 0.85307 0.09172 0.46034 0.0
Co537 Co 0.82037 0.09681 0.42841 0.0
O538 O 0.83865 0.11587 0.44205 0.0
C539 C 0.84276 0.06007 0.41811 0.0
C540 C 0.83585 0.03829 0.47847 0.0
C541 C 0.85241 0.10976 0.45372 0.0
O542 O 0.84631 0.0563 0.43672 0.0
O543 O 0.83115 0.07411 0.41223 0.0
O544 O 0.81874 0.082 0.48286 0.0
O545 O 0.81216 0.08107 0.45096 0.0
Co546 Co 0.68659 0.58367 0.71191 0.0
O547 O 0.71121 0.56987 0.71779 0.0
O548 O 0.70352 0.6002 0.72858 0.0
C549 C 0.66597 0.55735 0.71794 0.0
O550 O 0.6627 0.60255 0.71016 0.0
Co551 Co 0.65773 0.56986 0.67819 0.0
O552 O 0.63861 0.58809 0.69182 0.0
C553 C 0.69445 0.59233 0.66797 0.0
C554 C 0.71613 0.58542 0.72833 0.0
C555 C 0.64467 0.60186 0.70351 0.0
O556 O 0.69817 0.59585 0.6866 0.0
O557 O 0.68043 0.5807 0.66205 0.0
O558 O 0.67245 0.56825 0.73269 0.0
O559 O 0.67342 0.56167 0.70078 0.0
Co560 Co 0.54259 0.67001 0.56757 0.0
O561 O 0.53673 0.68386 0.54297 0.0
O562 O 0.52597 0.65349 0.55057 0.0
C563 C 0.53648 0.69627 0.58825 0.0
O564 O 0.54434 0.65109 0.59141 0.0
Co565 Co 0.57624 0.68383 0.5965 0.0
O566 O 0.56263 0.66552 0.61556 0.0
C567 C 0.58656 0.66142 0.55978 0.0
C568 C 0.52622 0.66831 0.53799 0.0
C569 C 0.55096 0.65175 0.60945 0.0
O570 O 0.56794 0.65789 0.55601 0.0
O571 O 0.59244 0.67303 0.57382 0.0
O572 O 0.52176 0.68537 0.5817 0.0
O573 O 0.55365 0.69201 0.5808 0.0
Co574 Co 0.04184 0.33412 0.93638 0.0
O575 O 0.036 0.32032 0.96101 0.0
O576 O 0.02516 0.35063 0.95334 0.0
C577 C 0.03581 0.30776 0.91581 0.0
O578 O 0.04357 0.35297 0.91247 0.0
Co579 Co 0.07555 0.32027 0.90754 0.0
O580 O 0.06192 0.33848 0.8884 0.0
C581 C 0.08578 0.34278 0.94422 0.0
C582 C 0.02544 0.33584 0.96595 0.0
C583 C 0.05022 0.35226 0.89445 0.0
O584 O 0.06715 0.34632 0.94793 0.0
O585 O 0.0917 0.33114 0.93022 0.0
O586 O 0.02106 0.31867 0.92229 0.0
O587 O 0.05296 0.3121 0.92324 0.0
Co588 Co 0.42031 0.79203 0.18615 0.0
O589 O 0.43416 0.78613 0.21074 0.0
O590 O 0.40382 0.77533 0.20309 0.0
C591 C 0.44662 0.78605 0.16549 0.0
O592 O 0.40139 0.79378 0.1623 0.0
Co593 Co 0.43403 0.82578 0.15728 0.0
O594 O 0.41576 0.81216 0.13818 0.0
C595 C 0.41164 0.83595 0.19406 0.0
C596 C 0.41863 0.77558 0.21568 0.0
C597 C 0.40202 0.80045 0.14428 0.0
O598 O 0.40813 0.81732 0.19777 0.0
O599 O 0.42323 0.84189 0.18003 0.0
O600 O 0.43574 0.77128 0.17198 0.0
O601 O 0.44228 0.80319 0.17295 0.0
Co602 Co 0.96224 0.17008 0.43647 0.0
O603 O 0.9681 0.18387 0.4611 0.0
O604 O 0.97888 0.15354 0.45343 0.0
C605 C 0.9683 0.19641 0.41586 0.0
O606 O 0.96049 0.15121 0.41258 0.0
Co607 Co 0.92855 0.18393 0.4076 0.0
O608 O 0.94218 0.16569 0.38848 0.0
C609 C 0.91828 0.16146 0.44429 0.0
C610 C 0.97862 0.16832 0.46605 0.0
C611 C 0.95386 0.15191 0.39455 0.0
O612 O 0.9369 0.15791 0.44802 0.0
O613 O 0.91238 0.17311 0.43028 0.0
O614 O 0.98304 0.1855 0.42236 0.0
O615 O 0.95114 0.19209 0.4233 0.0
Co616 Co 0.08394 0.21176 0.6866 0.0
O617 O 0.07013 0.21755 0.71124 0.0
O618 O 0.10045 0.2284 0.70358 0.0
C619 C 0.05759 0.21782 0.66602 0.0
O620 O 0.1028 0.21009 0.6627 0.0
Co621 Co 0.07014 0.17811 0.65766 0.0
O622 O 0.08836 0.1918 0.63857 0.0
C623 C 0.09262 0.16781 0.69434 0.0
C624 C 0.08567 0.22809 0.7162 0.0
C625 C 0.10211 0.20349 0.64466 0.0
O626 O 0.09614 0.18643 0.6981 0.0
O627 O 0.08099 0.16192 0.68032 0.0
O628 O 0.06848 0.23256 0.67253 0.0
O629 O 0.06194 0.20065 0.67342 0.0
Co630 Co 0.46205 0.334 0.56785 0.0
O631 O 0.46776 0.32022 0.54317 0.0
O632 O 0.47876 0.35047 0.55089 0.0
C633 C 0.46802 0.30754 0.58831 0.0
O634 O 0.46051 0.35285 0.59177 0.0
Co635 Co 0.42844 0.32032 0.5969 0.0
O636 O 0.44222 0.3385 0.61597 0.0
C637 C 0.41813 0.3429 0.56025 0.0
C638 C 0.47839 0.33571 0.53825 0.0
C639 C 0.45393 0.35222 0.60983 0.0
O640 O 0.43675 0.34634 0.55641 0.0
O641 O 0.41224 0.33132 0.57431 0.0
O642 O 0.4828 0.31841 0.58183 0.0
O643 O 0.45085 0.31202 0.581 0.0
Co644 Co 0.42037 0.71189 0.31767 0.0
O645 O 0.43416 0.71767 0.29301 0.0
O646 O 0.40388 0.7286 0.30073 0.0
C647 C 0.44676 0.71785 0.33822 0.0
O648 O 0.40152 0.71027 0.34158 0.0
Co649 Co 0.43407 0.67819 0.34658 0.0
O650 O 0.41592 0.69192 0.3657 0.0
C651 C 0.41153 0.66798 0.30991 0.0
C652 C 0.41864 0.72827 0.28809 0.0
C653 C 0.40219 0.70366 0.35962 0.0
O654 O 0.40807 0.68661 0.30616 0.0
O655 O 0.42314 0.66204 0.32392 0.0
O656 O 0.43591 0.73263 0.33172 0.0
O657 O 0.44235 0.7007 0.33082 0.0
Co658 Co 0.58386 0.79166 0.81777 0.0
O659 O 0.57011 0.78575 0.79313 0.0
O660 O 0.60042 0.77495 0.80089 0.0
C661 C 0.55749 0.78567 0.83834 0.0
O662 O 0.60269 0.79343 0.84169 0.0
Co663 Co 0.57001 0.82542 0.84655 0.0
O664 O 0.58821 0.81181 0.86573 0.0
C665 C 0.59255 0.83558 0.80986 0.0
C666 C 0.58566 0.7752 0.78825 0.0
C667 C 0.60197 0.8001 0.8597 0.0
O668 O 0.59608 0.81695 0.80618 0.0
O669 O 0.5809 0.84152 0.82384 0.0
O670 O 0.56839 0.77091 0.8319 0.0
O671 O 0.56184 0.80282 0.83088 0.0
Co672 Co 0.56828 0.54192 0.6698 0.0
O673 O 0.54363 0.53614 0.68359 0.0
O674 O 0.55128 0.5253 0.65328 0.0
C675 C 0.58886 0.53585 0.69614 0.0
O676 O 0.59218 0.54358 0.65093 0.0
Co677 Co 0.59723 0.57556 0.6836 0.0
O678 O 0.61632 0.56187 0.66537 0.0
C679 C 0.56056 0.58588 0.66112 0.0
C680 C 0.53865 0.52562 0.66805 0.0
C681 C 0.61023 0.55019 0.65161 0.0
O682 O 0.55679 0.56726 0.6576 0.0
O683 O 0.57458 0.59176 0.67275 0.0
O684 O 0.58233 0.52111 0.68525 0.0
O685 O 0.58147 0.55302 0.6918 0.0
Co686 Co 0.21168 0.31761 0.9206 0.0
O687 O 0.21758 0.29302 0.93446 0.0
O688 O 0.22834 0.30064 0.90411 0.0
C689 C 0.21771 0.33833 0.94686 0.0
O690 O 0.20995 0.34143 0.90164 0.0
Co691 Co 0.178 0.34657 0.93428 0.0
O692 O 0.19163 0.36561 0.91596 0.0
C693 C 0.16773 0.30976 0.91198 0.0
C694 C 0.22811 0.28806 0.91891 0.0
C695 C 0.20332 0.35946 0.90223 0.0
O696 O 0.18636 0.30601 0.90847 0.0
O697 O 0.16183 0.32383 0.92355 0.0
O698 O 0.23246 0.33179 0.93598 0.0
O699 O 0.20055 0.33087 0.94256 0.0
Co700 Co 0.4364 0.96189 0.17032 0.0
O701 O 0.46103 0.96777 0.18411 0.0
O702 O 0.45331 0.97861 0.15381 0.0
C703 C 0.41579 0.96785 0.19667 0.0
O704 O 0.41251 0.96016 0.15145 0.0
Co705 Co 0.40756 0.92814 0.18406 0.0
O706 O 0.38842 0.94178 0.16585 0.0
C707 C 0.44427 0.91797 0.16157 0.0
C708 C 0.46594 0.97835 0.16858 0.0
C709 C 0.39449 0.95351 0.15212 0.0
O710 O 0.44799 0.93661 0.15808 0.0
O711 O 0.43026 0.91203 0.17319 0.0
O712 O 0.42226 0.98262 0.1858 0.0
O713 O 0.42325 0.9507 0.19231 0.0
Co714 Co 0.7923 0.18628 0.42017 0.0
O715 O 0.78637 0.2109 0.43396 0.0
O716 O 0.77567 0.20322 0.4036 0.0
C717 C 0.78622 0.16564 0.44648 0.0
O718 O 0.79409 0.16242 0.40128 0.0
Co719 Co 0.82596 0.15739 0.43403 0.0
O720 O 0.81241 0.13829 0.41571 0.0
C721 C 0.83626 0.19414 0.41166 0.0
C722 C 0.77588 0.21583 0.41838 0.0
C723 C 0.80074 0.14439 0.40193 0.0
O724 O 0.81765 0.19787 0.40807 0.0
O725 O 0.84214 0.18011 0.42329 0.0
O726 O 0.77149 0.17214 0.43555 0.0
O727 O 0.80338 0.1731 0.44219 0.0
Co728 Co 0.56758 0.46172 0.33392 0.0
O729 O 0.54294 0.46756 0.32015 0.0
O730 O 0.55064 0.47839 0.35045 0.0
C731 C 0.58815 0.46778 0.30756 0.0
O732 O 0.5915 0.46002 0.35277 0.0
Co733 Co 0.59649 0.42806 0.32007 0.0
O734 O 0.6156 0.44171 0.33829 0.0
C735 C 0.55983 0.41778 0.34261 0.0
C736 C 0.53801 0.47811 0.33568 0.0
C737 C 0.60953 0.45339 0.35206 0.0
O738 O 0.55607 0.4364 0.34613 0.0
O739 O 0.57383 0.41188 0.33096 0.0
O740 O 0.58165 0.48252 0.31846 0.0
O741 O 0.58074 0.45061 0.3119 0.0
Co742 Co 0.29175 0.31793 0.58341 0.0
O743 O 0.28582 0.29331 0.56962 0.0
O744 O 0.27509 0.30102 0.59997 0.0
C745 C 0.28573 0.33859 0.55711 0.0
O746 O 0.29349 0.34181 0.60229 0.0
Co747 Co 0.32545 0.3468 0.56965 0.0
O748 O 0.31173 0.36595 0.5878 0.0
C749 C 0.3357 0.30998 0.59193 0.0
C750 C 0.27532 0.28839 0.5852 0.0
C751 C 0.30003 0.35987 0.60156 0.0
O752 O 0.31707 0.30631 0.59554 0.0
O753 O 0.3416 0.32403 0.58033 0.0
O754 O 0.27097 0.3321 0.56801 0.0
O755 O 0.30287 0.33111 0.56142 0.0
Co756 Co 0.43641 0.04227 0.83358 0.0
O757 O 0.46103 0.03638 0.81976 0.0
O758 O 0.45338 0.02564 0.85011 0.0
C759 C 0.41578 0.03616 0.80728 0.0
O760 O 0.41254 0.044 0.85248 0.0
Co761 Co 0.40742 0.07587 0.81974 0.0
O762 O 0.38836 0.06224 0.83805 0.0
C763 C 0.44416 0.08624 0.84211 0.0
C764 C 0.46597 0.02586 0.8353 0.0
C765 C 0.39449 0.05059 0.85182 0.0
O766 O 0.44795 0.06764 0.84569 0.0
O767 O 0.43011 0.09208 0.8305 0.0
O768 O 0.4223 0.02144 0.8182 0.0
O769 O 0.4232 0.05333 0.81157 0.0
Co770 Co 0.71167 0.18608 0.08362 0.0
O771 O 0.71752 0.21074 0.06986 0.0
O772 O 0.72836 0.20298 0.10015 0.0
C773 C 0.71765 0.16551 0.05724 0.0
O774 O 0.70999 0.16218 0.10246 0.0
Co775 Co 0.67797 0.15717 0.06988 0.0
O776 O 0.69166 0.13805 0.08807 0.0
C777 C 0.66774 0.19388 0.09235 0.0
C778 C 0.72808 0.21563 0.0854 0.0
C779 C 0.70338 0.14414 0.1018 0.0
O780 O 0.68636 0.19762 0.09586 0.0
O781 O 0.66182 0.17986 0.08074 0.0
O782 O 0.73242 0.17199 0.06812 0.0
O783 O 0.70049 0.17294 0.06162 0.0
Co784 Co 0.66965 0.06782 0.04167 0.0
O785 O 0.68346 0.0432 0.0358 0.0
O786 O 0.6531 0.05082 0.02506 0.0
C787 C 0.69596 0.08844 0.03553 0.0
O788 O 0.65076 0.0917 0.04343 0.0
Co789 Co 0.68356 0.09676 0.07529 0.0
O790 O 0.66525 0.11583 0.06169 0.0
C791 C 0.66116 0.06004 0.08565 0.0
C792 C 0.66791 0.03823 0.0253 0.0
C793 C 0.65146 0.10974 0.05005 0.0
O794 O 0.65755 0.05629 0.06704 0.0
O795 O 0.6728 0.07406 0.0915 0.0
O796 O 0.68502 0.08193 0.02083 0.0
O797 O 0.69168 0.08102 0.05271 0.0
Co798 Co 0.68593 0.41998 0.29177 0.0
O799 O 0.71051 0.43384 0.28588 0.0
O800 O 0.7029 0.4035 0.27508 0.0
C801 C 0.66525 0.44626 0.28576 0.0
O802 O 0.66209 0.40105 0.29354 0.0
Co803 Co 0.65707 0.43372 0.32551 0.0
O804 O 0.63798 0.41545 0.31189 0.0
C805 C 0.69385 0.41134 0.33571 0.0
C806 C 0.71548 0.41831 0.27533 0.0
C807 C 0.64406 0.4017 0.30019 0.0
O808 O 0.69756 0.40782 0.31708 0.0
O809 O 0.67982 0.42293 0.34164 0.0
O810 O 0.67175 0.43537 0.27101 0.0
O811 O 0.67273 0.44195 0.30291 0.0
Co812 Co 0.33398 0.43644 0.54169 0.0
O813 O 0.32015 0.46102 0.53571 0.0
O814 O 0.35051 0.45336 0.52498 0.0
C815 C 0.3077 0.41575 0.53571 0.0
O816 O 0.3529 0.41259 0.54358 0.0
Co817 Co 0.32014 0.40776 0.57555 0.0
O818 O 0.3385 0.38862 0.56213 0.0
C819 C 0.34259 0.44452 0.58559 0.0
C820 C 0.33571 0.46596 0.5252 0.0
C821 C 0.35226 0.39463 0.5504 0.0
O822 O 0.34613 0.44813 0.56695 0.0
O823 O 0.33094 0.43056 0.59158 0.0
O824 O 0.3186 0.4222 0.52095 0.0
O825 O 0.31198 0.42328 0.55284 0.0
Co826 Co 0.31806 0.08428 0.792 0.0
O827 O 0.29345 0.07042 0.78623 0.0
O828 O 0.30103 0.10075 0.77538 0.0
C829 C 0.33868 0.05797 0.78591 0.0
O830 O 0.3419 0.10322 0.79364 0.0
Co831 Co 0.34711 0.07057 0.82559 0.0
O832 O 0.36613 0.08886 0.81189 0.0
C833 C 0.31036 0.09292 0.83596 0.0
C834 C 0.28845 0.08594 0.77569 0.0
C835 C 0.35996 0.1026 0.80021 0.0
O836 O 0.30655 0.09645 0.81735 0.0
O837 O 0.32443 0.08134 0.84182 0.0
O838 O 0.33214 0.06886 0.77118 0.0
O839 O 0.33131 0.06231 0.8031 0.0
Co840 Co 0.6697 0.9361 0.96176 0.0
O841 O 0.68351 0.96072 0.96762 0.0
O842 O 0.65315 0.9531 0.97835 0.0
C843 C 0.69599 0.91546 0.96791 0.0
O844 O 0.6508 0.91223 0.96002 0.0
Co845 Co 0.68358 0.90714 0.92816 0.0
O846 O 0.66528 0.88807 0.94178 0.0
C847 C 0.66117 0.94384 0.91777 0.0
C848 C 0.66794 0.9657 0.97811 0.0
C849 C 0.65149 0.89419 0.95342 0.0
O850 O 0.6576 0.94762 0.93638 0.0
O851 O 0.6728 0.9298 0.91193 0.0
O852 O 0.68506 0.922 0.98261 0.0
O853 O 0.69172 0.92288 0.95073 0.0
Co854 Co 0.8175 0.4202 0.21167 0.0
O855 O 0.79284 0.43398 0.21747 0.0
O856 O 0.80057 0.4037 0.22837 0.0
C857 C 0.83806 0.44659 0.21764 0.0
O858 O 0.84141 0.40136 0.21003 0.0
Co859 Co 0.8464 0.43392 0.17797 0.0
O860 O 0.86553 0.41575 0.19168 0.0
C861 C 0.80973 0.41139 0.16775 0.0
C862 C 0.78792 0.41845 0.22805 0.0
C863 C 0.85945 0.40203 0.20341 0.0
O864 O 0.80598 0.40792 0.18638 0.0
O865 O 0.82374 0.42301 0.16182 0.0
O866 O 0.83157 0.43573 0.23241 0.0
O867 O 0.83065 0.44219 0.20049 0.0
Co868 Co 0.33419 0.56831 0.462 0.0
O869 O 0.32031 0.54372 0.46783 0.0
O870 O 0.35067 0.55126 0.47862 0.0
C871 C 0.30794 0.589 0.46809 0.0
O872 O 0.35315 0.59213 0.46027 0.0
Co873 Co 0.32043 0.59726 0.42834 0.0
O874 O 0.33877 0.61629 0.44195 0.0
C875 C 0.34274 0.56048 0.41804 0.0
C876 C 0.33585 0.53869 0.47832 0.0
C877 C 0.35253 0.61016 0.45362 0.0
O878 O 0.3463 0.55674 0.43666 0.0
O879 O 0.33115 0.57453 0.41216 0.0
O880 O 0.31883 0.58245 0.48282 0.0
O881 O 0.31222 0.58157 0.45092 0.0
Co882 Co 0.18641 0.08392 0.71207 0.0
O883 O 0.21106 0.07016 0.71794 0.0
O884 O 0.20332 0.10047 0.72875 0.0
C885 C 0.16584 0.05755 0.7181 0.0
O886 O 0.1625 0.10276 0.71035 0.0
Co887 Co 0.15756 0.0701 0.67837 0.0
O888 O 0.13841 0.08829 0.69202 0.0
C889 C 0.19424 0.09261 0.66814 0.0
C890 C 0.21597 0.08572 0.72848 0.0
C891 C 0.14447 0.10205 0.70372 0.0
O892 O 0.19796 0.09614 0.68676 0.0
O893 O 0.18024 0.08097 0.66222 0.0
O894 O 0.17232 0.06846 0.73285 0.0
O895 O 0.17328 0.0619 0.70094 0.0
Co896 Co 0.04205 0.16992 0.56824 0.0
O897 O 0.0362 0.18377 0.54364 0.0
O898 O 0.02541 0.15342 0.55124 0.0
C899 C 0.03597 0.19621 0.5889 0.0
O900 O 0.04378 0.15099 0.5921 0.0
Co901 Co 0.07572 0.18371 0.59717 0.0
O902 O 0.0621 0.1654 0.61623 0.0
C903 C 0.086 0.16133 0.56042 0.0
C904 C 0.02568 0.16823 0.53865 0.0
C905 C 0.05042 0.15164 0.61013 0.0
O906 O 0.06738 0.15779 0.55668 0.0
O907 O 0.0919 0.17294 0.57446 0.0
O908 O 0.02124 0.18531 0.58238 0.0
O909 O 0.05314 0.19191 0.58147 0.0
Co910 Co 0.54172 0.83384 0.93595 0.0
O911 O 0.53585 0.82006 0.96059 0.0
O912 O 0.52506 0.85039 0.95288 0.0
C913 C 0.5357 0.80748 0.91537 0.0
O914 O 0.54347 0.85268 0.91204 0.0
Co915 Co 0.57544 0.81998 0.90712 0.0
O916 O 0.56184 0.83821 0.88797 0.0
C917 C 0.58566 0.84247 0.94381 0.0
C918 C 0.52533 0.83562 0.96551 0.0
C919 C 0.55014 0.85198 0.89402 0.0
O920 O 0.56704 0.84602 0.94751 0.0
O921 O 0.59158 0.83082 0.92982 0.0
O922 O 0.52094 0.81839 0.92184 0.0
O923 O 0.55285 0.81181 0.92281 0.0
Co924 Co 0.91992 0.29225 0.18648 0.0
O925 O 0.93378 0.28649 0.2111 0.0
O926 O 0.90347 0.2756 0.20352 0.0
C927 C 0.94624 0.2862 0.16586 0.0
O928 O 0.901 0.29387 0.16262 0.0
Co929 Co 0.93363 0.32587 0.15747 0.0
O930 O 0.9154 0.31213 0.13843 0.0
C931 C 0.91123 0.33621 0.19418 0.0
C932 C 0.91828 0.27593 0.2161 0.0
C933 C 0.90166 0.30044 0.14456 0.0
O934 O 0.90772 0.31759 0.19798 0.0
O935 O 0.92283 0.34208 0.18014 0.0
O936 O 0.93537 0.27145 0.17241 0.0
O937 O 0.94189 0.30337 0.17324 0.0
Co938 Co 0.4625 0.6701 0.43599 0.0
O939 O 0.46845 0.68393 0.46057 0.0
O940 O 0.47912 0.65355 0.45295 0.0
C941 C 0.46861 0.69636 0.41531 0.0
O942 O 0.46065 0.65119 0.41214 0.0
Co943 Co 0.42881 0.684 0.40714 0.0
O944 O 0.44234 0.66568 0.38804 0.0
C945 C 0.41853 0.66165 0.44391 0.0
C946 C 0.47894 0.66836 0.46553 0.0
C947 C 0.45399 0.65188 0.39412 0.0
O948 O 0.43714 0.65805 0.44761 0.0
O949 O 0.41264 0.67328 0.42988 0.0
O950 O 0.48332 0.68542 0.42181 0.0
O951 O 0.45145 0.69213 0.42279 0.0
Co952 Co 0.58423 0.71159 0.6862 0.0
O953 O 0.57035 0.71741 0.71079 0.0
O954 O 0.6007 0.72824 0.70322 0.0
C955 C 0.55797 0.71765 0.66551 0.0
O956 O 0.60318 0.70991 0.66237 0.0
Co957 Co 0.57053 0.67793 0.65724 0.0
O958 O 0.5888 0.69163 0.63819 0.0
C959 C 0.59289 0.66764 0.69399 0.0
C960 C 0.58587 0.72794 0.71579 0.0
C961 C 0.60254 0.70331 0.64432 0.0
O962 O 0.5964 0.68626 0.69775 0.0
O963 O 0.58131 0.66174 0.67993 0.0
O964 O 0.56884 0.73239 0.67207 0.0
O965 O 0.56227 0.70049 0.67294 0.0
Co966 Co 0.96176 0.83376 0.56784 0.0
O967 O 0.9676 0.81999 0.54319 0.0
O968 O 0.97844 0.85029 0.55091 0.0
C969 C 0.96777 0.8074 0.58843 0.0
O970 O 0.96008 0.85262 0.59174 0.0
Co971 Co 0.92807 0.81999 0.59675 0.0
O972 O 0.94176 0.83819 0.61587 0.0
C973 C 0.91782 0.8425 0.56007 0.0
C974 C 0.97816 0.83553 0.53827 0.0
C975 C 0.95346 0.85194 0.60978 0.0
O976 O 0.93645 0.846 0.55632 0.0
O977 O 0.91191 0.83087 0.57408 0.0
O978 O 0.98253 0.81828 0.58193 0.0
O979 O 0.95061 0.81176 0.581 0.0
Co980 Co 0.92034 0.21219 0.3181 0.0
O981 O 0.93412 0.21814 0.29348 0.0
O982 O 0.90379 0.2289 0.30122 0.0
C983 C 0.94667 0.21817 0.33874 0.0
O984 O 0.90147 0.2104 0.34199 0.0
Co985 Co 0.93415 0.17842 0.3469 0.0
O986 O 0.9159 0.192 0.36605 0.0
C987 C 0.91167 0.16827 0.31018 0.0
C988 C 0.91856 0.22868 0.28858 0.0
C989 C 0.90215 0.20371 0.36 0.0
O990 O 0.90815 0.1869 0.30648 0.0
O991 O 0.92329 0.16232 0.32418 0.0
O992 O 0.93577 0.23294 0.33228 0.0
O993 O 0.94235 0.20104 0.33125 0.0
Co994 Co 0.08387 0.29176 0.81822 0.0
O995 O 0.0701 0.28588 0.79359 0.0
O996 O 0.10039 0.27502 0.80134 0.0
C997 C 0.05749 0.28583 0.8388 0.0
O998 O 0.10271 0.29351 0.84214 0.0
Co999 Co 0.07008 0.32557 0.84698 0.0
O1000 O 0.08825 0.31194 0.86617 0.0
C1001 C 0.09265 0.33567 0.8103 0.0
C1002 C 0.08563 0.2753 0.7887 0.0
C1003 C 0.10199 0.3002 0.86015 0.0
O1004 O 0.09614 0.31703 0.80662 0.0
O1005 O 0.08101 0.34164 0.82428 0.0
O1006 O 0.06837 0.27105 0.83236 0.0
O1007 O 0.06187 0.30296 0.83133 0.0
Co1008 Co 0.5678 0.04229 0.17005 0.0
O1009 O 0.54323 0.03639 0.18395 0.0
O1010 O 0.55085 0.02553 0.15363 0.0
C1011 C 0.58853 0.0364 0.19632 0.0
O1012 O 0.59161 0.04403 0.15108 0.0
Co1013 Co 0.59665 0.07611 0.18361 0.0
O1014 O 0.61573 0.06246 0.16536 0.0
C1015 C 0.55982 0.08619 0.16126 0.0
C1016 C 0.53828 0.0258 0.16845 0.0
C1017 C 0.60963 0.0507 0.15166 0.0
O1018 O 0.55613 0.06754 0.15782 0.0
O1019 O 0.57387 0.09217 0.17281 0.0
O1020 O 0.58203 0.0216 0.1855 0.0
O1021 O 0.58103 0.05353 0.19197 0.0
Co1022 Co 0.21193 0.81802 0.42006 0.0
O1023 O 0.21787 0.79341 0.43386 0.0
O1024 O 0.22862 0.80111 0.40352 0.0
C1025 C 0.21796 0.83864 0.44638 0.0
O1026 O 0.21014 0.8419 0.40118 0.0
Co1027 Co 0.17821 0.84687 0.4339 0.0
O1028 O 0.19179 0.86599 0.41562 0.0
C1029 C 0.16799 0.81014 0.41144 0.0
C1030 C 0.22841 0.7885 0.41831 0.0
C1031 C 0.20347 0.85992 0.40185 0.0
O1032 O 0.18661 0.80642 0.4079 0.0
O1033 O 0.16208 0.82416 0.42307 0.0
O1034 O 0.23271 0.83218 0.43546 0.0
O1035 O 0.20081 0.83118 0.44207 0.0
Co1036 Co 0.43636 0.46231 0.66953 0.0
O1037 O 0.46089 0.46824 0.68347 0.0
O1038 O 0.4534 0.47894 0.65306 0.0
C1039 C 0.41553 0.46838 0.6957 0.0
O1040 O 0.41258 0.46051 0.65052 0.0
Co1041 Co 0.40744 0.42862 0.68325 0.0
O1042 O 0.3884 0.44228 0.66497 0.0
C1043 C 0.44433 0.41833 0.66114 0.0
C1044 C 0.46593 0.47872 0.66792 0.0
C1045 C 0.39453 0.45394 0.6512 0.0
O1046 O 0.44803 0.43694 0.65751 0.0
O1047 O 0.43026 0.41246 0.67271 0.0
O1048 O 0.42208 0.48311 0.68481 0.0
O1049 O 0.42305 0.45124 0.69148 0.0
Co1050 Co 0.7917 0.68594 0.92016 0.0
O1051 O 0.78575 0.71051 0.93402 0.0
O1052 O 0.77504 0.70291 0.90365 0.0
C1053 C 0.78564 0.66522 0.9464 0.0
O1054 O 0.79354 0.6621 0.90122 0.0
Co1055 Co 0.82545 0.65712 0.93398 0.0
O1056 O 0.8119 0.63802 0.91567 0.0
C1057 C 0.83565 0.69389 0.91161 0.0
C1058 C 0.77524 0.71548 0.91847 0.0
C1059 C 0.80023 0.64409 0.90189 0.0
O1060 O 0.81702 0.69759 0.90806 0.0
O1061 O 0.84158 0.67987 0.92322 0.0
O1062 O 0.77091 0.67172 0.93549 0.0
O1063 O 0.80279 0.67272 0.94215 0.0
Co1064 Co 0.56768 0.96166 0.83355 0.0
O1065 O 0.54308 0.96761 0.81972 0.0
O1066 O 0.55076 0.97836 0.85006 0.0
C1067 C 0.58835 0.96765 0.80726 0.0
O1068 O 0.59152 0.95987 0.85247 0.0
Co1069 Co 0.59653 0.92791 0.81979 0.0
O1070 O 0.61563 0.9415 0.83808 0.0
C1071 C 0.55976 0.91772 0.84219 0.0
C1072 C 0.53816 0.97816 0.83526 0.0
C1073 C 0.60954 0.9532 0.85182 0.0
O1074 O 0.55604 0.93635 0.84571 0.0
O1075 O 0.57379 0.91179 0.83059 0.0
O1076 O 0.58187 0.98241 0.81815 0.0
O1077 O 0.58086 0.95051 0.81156 0.0
Co1078 Co 0.2921 0.81786 0.08422 0.0
O1079 O 0.28615 0.79327 0.07038 0.0
O1080 O 0.27545 0.8009 0.10075 0.0
C1081 C 0.28602 0.83855 0.05795 0.0
O1082 O 0.29392 0.8417 0.10314 0.0
Co1083 Co 0.32579 0.84674 0.07037 0.0
O1084 O 0.31222 0.86582 0.08869 0.0
C1085 C 0.33607 0.80996 0.09271 0.0
C1086 C 0.27565 0.78832 0.08594 0.0
C1087 C 0.30057 0.85973 0.10247 0.0
O1088 O 0.31745 0.80624 0.0963 0.0
O1089 O 0.34195 0.824 0.08109 0.0
O1090 O 0.27129 0.83205 0.06887 0.0
O1091 O 0.30318 0.83107 0.06221 0.0
Co1092 Co 0.43618 0.54212 0.33389 0.0
O1093 O 0.46076 0.53611 0.32005 0.0
O1094 O 0.4531 0.52543 0.35043 0.0
C1095 C 0.41546 0.53609 0.30764 0.0
O1096 O 0.41235 0.544 0.35281 0.0
Co1097 Co 0.40741 0.57589 0.32006 0.0
O1098 O 0.38828 0.56238 0.33837 0.0
C1099 C 0.4442 0.58606 0.34242 0.0
C1100 C 0.46569 0.5256 0.33562 0.0
C1101 C 0.39435 0.5507 0.35215 0.0
O1102 O 0.44787 0.56742 0.34597 0.0
O1103 O 0.43018 0.59199 0.33082 0.0
O1104 O 0.42194 0.52135 0.31855 0.0
O1105 O 0.42299 0.55323 0.31188 0.0
Co1106 Co 0.71235 0.68605 0.584 0.0
O1107 O 0.71816 0.71068 0.5702 0.0
O1108 O 0.72899 0.70303 0.60052 0.0
C1109 C 0.7184 0.66545 0.55766 0.0
O1110 O 0.71065 0.66215 0.60288 0.0
Co1111 Co 0.67867 0.65715 0.5702 0.0
O1112 O 0.69232 0.63804 0.58843 0.0
C1113 C 0.6684 0.69385 0.59264 0.0
C1114 C 0.72868 0.71565 0.58575 0.0
C1115 C 0.70401 0.64412 0.60219 0.0
O1116 O 0.68702 0.69758 0.59619 0.0
O1117 O 0.6625 0.67984 0.58101 0.0
O1118 O 0.73314 0.67196 0.56856 0.0
O1119 O 0.70123 0.67287 0.562 0.0
Co1120 Co 0.67054 0.56771 0.54185 0.0
O1121 O 0.68432 0.54309 0.5359 0.0
O1122 O 0.65398 0.55081 0.52518 0.0
C1123 C 0.69686 0.58835 0.53583 0.0
O1124 O 0.65167 0.59159 0.54366 0.0
Co1125 Co 0.68439 0.59651 0.5756 0.0
O1126 O 0.66613 0.61566 0.56203 0.0
C1127 C 0.66196 0.55977 0.5858 0.0
C1128 C 0.66876 0.53818 0.52539 0.0
C1129 C 0.65236 0.60961 0.55033 0.0
O1130 O 0.65839 0.55609 0.56717 0.0
O1131 O 0.67359 0.57377 0.59172 0.0
O1132 O 0.68594 0.58188 0.52108 0.0
O1133 O 0.69256 0.58086 0.55297 0.0
Co1134 Co 0.68619 0.91965 0.792 0.0
O1135 O 0.7108 0.93352 0.78622 0.0
O1136 O 0.70326 0.90317 0.77541 0.0
C1137 C 0.66554 0.94593 0.78587 0.0
O1138 O 0.66234 0.90072 0.79368 0.0
Co1139 Co 0.65718 0.93344 0.8256 0.0
O1140 O 0.63816 0.91515 0.81192 0.0
C1141 C 0.69391 0.91107 0.83598 0.0
C1142 C 0.71583 0.91799 0.77571 0.0
C1143 C 0.64429 0.90139 0.80027 0.0
O1144 O 0.6977 0.90752 0.81737 0.0
O1145 O 0.67985 0.92268 0.84184 0.0
O1146 O 0.67211 0.93503 0.77116 0.0
O1147 O 0.67293 0.94164 0.80306 0.0
Co1148 Co 0.33406 0.93631 0.04235 0.0
O1149 O 0.3203 0.96095 0.03642 0.0
O1150 O 0.35062 0.9532 0.02567 0.0
C1151 C 0.30771 0.9157 0.03633 0.0
O1152 O 0.35291 0.91241 0.04412 0.0
Co1153 Co 0.32022 0.90745 0.07606 0.0
O1154 O 0.33845 0.88831 0.06244 0.0
C1155 C 0.3427 0.94415 0.0863 0.0
C1156 C 0.33586 0.96584 0.02588 0.0
C1157 C 0.35222 0.89438 0.05076 0.0
O1158 O 0.34624 0.94788 0.06768 0.0
O1159 O 0.33106 0.93014 0.0922 0.0
O1160 O 0.31863 0.92217 0.02158 0.0
O1161 O 0.31204 0.92316 0.05348 0.0
Co1162 Co 0.31764 0.58413 0.29221 0.0
O1163 O 0.29301 0.57032 0.28639 0.0
O1164 O 0.30066 0.60063 0.27554 0.0
C1165 C 0.33826 0.5578 0.28617 0.0
O1166 O 0.34154 0.60301 0.29388 0.0
Co1167 Co 0.34657 0.57035 0.32588 0.0
O1168 O 0.36566 0.58855 0.31218 0.0
C1169 C 0.30989 0.59285 0.33616 0.0
C1170 C 0.28805 0.58583 0.27583 0.0
C1171 C 0.35958 0.60231 0.30049 0.0
O1172 O 0.30612 0.59635 0.31754 0.0
O1173 O 0.32391 0.58123 0.34206 0.0
O1174 O 0.33174 0.56868 0.27142 0.0
O1175 O 0.33084 0.56214 0.30333 0.0
Co1176 Co 0.67018 0.43615 0.46172 0.0
O1177 O 0.68402 0.46078 0.4675 0.0
O1178 O 0.65372 0.45314 0.47842 0.0
C1179 C 0.69653 0.41555 0.46772 0.0
O1180 O 0.65129 0.41226 0.46009 0.0
Co1181 Co 0.68389 0.40721 0.42804 0.0
O1182 O 0.6657 0.38812 0.44177 0.0
C1183 C 0.66141 0.44391 0.41779 0.0
C1184 C 0.66851 0.46574 0.47809 0.0
C1185 C 0.65197 0.39422 0.45349 0.0
O1186 O 0.65793 0.44767 0.43642 0.0
O1187 O 0.67301 0.42988 0.41188 0.0
O1188 O 0.68567 0.42207 0.48249 0.0
O1189 O 0.69215 0.42296 0.45056 0.0
Co1190 Co 0.81803 0.91996 0.71229 0.0
O1191 O 0.79342 0.93378 0.71821 0.0
O1192 O 0.80107 0.90341 0.72893 0.0
C1193 C 0.8387 0.94624 0.71835 0.0
O1194 O 0.84188 0.90105 0.71048 0.0
Co1195 Co 0.84688 0.9338 0.67858 0.0
O1196 O 0.86598 0.91549 0.69214 0.0
C1197 C 0.81012 0.91142 0.66834 0.0
C1198 C 0.78847 0.91821 0.7287 0.0
C1199 C 0.8599 0.90172 0.70381 0.0
O1200 O 0.80642 0.90785 0.68696 0.0
O1201 O 0.82414 0.92304 0.66243 0.0
O1202 O 0.8322 0.93533 0.73308 0.0
O1203 O 0.83122 0.94197 0.70119 0.0
Co1204 Co 0.33428 0.06758 0.96175 0.0
O1205 O 0.32046 0.04298 0.96767 0.0
O1206 O 0.35084 0.05061 0.97837 0.0
C1207 C 0.30801 0.08824 0.9679 0.0
O1208 O 0.35318 0.09145 0.95994 0.0
Co1209 Co 0.32035 0.09648 0.92811 0.0
O1210 O 0.33863 0.11557 0.9417 0.0
C1211 C 0.3428 0.05979 0.91776 0.0
C1212 C 0.33602 0.03803 0.97818 0.0
C1213 C 0.35245 0.10949 0.95333 0.0
O1214 O 0.34637 0.05602 0.93637 0.0
O1215 O 0.33116 0.07381 0.9119 0.0
O1216 O 0.31896 0.08172 0.9826 0.0
O1217 O 0.31225 0.08079 0.95072 0.0
Co1218 Co 0.18607 0.58391 0.21204 0.0
O1219 O 0.21072 0.57014 0.21794 0.0
O1220 O 0.20298 0.60044 0.22875 0.0
C1221 C 0.16548 0.55754 0.21803 0.0
O1222 O 0.16217 0.60276 0.21029 0.0
Co1223 Co 0.15724 0.57009 0.17831 0.0
O1224 O 0.13809 0.58831 0.19192 0.0
C1225 C 0.19393 0.59261 0.16811 0.0
C1226 C 0.21562 0.58568 0.22849 0.0
C1227 C 0.14415 0.60207 0.20363 0.0
O1228 O 0.19765 0.59612 0.18674 0.0
O1229 O 0.17993 0.58097 0.16219 0.0
O1230 O 0.17194 0.56844 0.2328 0.0
O1231 O 0.17294 0.56189 0.20089 0.0
Co1232 Co 0.0418 0.67004 0.06802 0.0
O1233 O 0.0359 0.68389 0.04342 0.0
O1234 O 0.02516 0.65353 0.05105 0.0
C1235 C 0.03572 0.69633 0.08868 0.0
O1236 O 0.04357 0.65112 0.09186 0.0
Co1237 Co 0.07547 0.68386 0.09693 0.0
O1238 O 0.06186 0.66555 0.116 0.0
C1239 C 0.08576 0.66147 0.06018 0.0
C1240 C 0.02538 0.66834 0.03846 0.0
C1241 C 0.0502 0.65178 0.1099 0.0
O1242 O 0.06714 0.65793 0.05643 0.0
O1243 O 0.09165 0.67308 0.07422 0.0
O1244 O 0.02099 0.68541 0.08217 0.0
O1245 O 0.05288 0.69204 0.08123 0.0
Co1246 Co 0.54223 0.33378 0.43635 0.0
O1247 O 0.53633 0.31997 0.46097 0.0
O1248 O 0.52558 0.35031 0.45328 0.0
C1249 C 0.53619 0.30747 0.4157 0.0
O1250 O 0.54398 0.35266 0.41248 0.0
Co1251 Co 0.57592 0.31998 0.40746 0.0
O1252 O 0.56228 0.33823 0.38835 0.0
C1253 C 0.58619 0.34241 0.44418 0.0
C1254 C 0.52581 0.33553 0.46589 0.0
C1255 C 0.5506 0.35199 0.39444 0.0
O1256 O 0.56756 0.34594 0.44792 0.0
O1257 O 0.59209 0.33079 0.43016 0.0
O1258 O 0.52145 0.31837 0.42221 0.0
O1259 O 0.55335 0.31177 0.42316 0.0
Co1260 Co 0.91999 0.79182 0.68629 0.0
O1261 O 0.93383 0.78592 0.71088 0.0
O1262 O 0.90345 0.77522 0.70328 0.0
C1263 C 0.94625 0.78571 0.6656 0.0
O1264 O 0.90107 0.79362 0.66244 0.0
Co1265 Co 0.93385 0.82549 0.6574 0.0
O1266 O 0.91552 0.81193 0.63832 0.0
C1267 C 0.9115 0.8358 0.69415 0.0
C1268 C 0.91826 0.77545 0.71587 0.0
C1269 C 0.90174 0.80027 0.64442 0.0
O1270 O 0.90792 0.81718 0.69788 0.0
O1271 O 0.92312 0.84168 0.68012 0.0
O1272 O 0.93533 0.77099 0.67212 0.0
O1273 O 0.942 0.80287 0.67306 0.0
Co1274 Co 0.46193 0.17036 0.9357 0.0
O1275 O 0.46775 0.18413 0.96036 0.0
O1276 O 0.47871 0.15389 0.95259 0.0
C1277 C 0.46777 0.19678 0.91514 0.0
O1278 O 0.46026 0.15152 0.91178 0.0
Co1279 Co 0.4281 0.18403 0.9069 0.0
O1280 O 0.44176 0.16586 0.88774 0.0
C1281 C 0.41806 0.16146 0.9436 0.0
C1282 C 0.47836 0.16863 0.96526 0.0
C1283 C 0.45355 0.15217 0.89377 0.0
O1284 O 0.4367 0.15801 0.94728 0.0
O1285 O 0.41205 0.17308 0.92963 0.0
O1286 O 0.48259 0.18595 0.92158 0.0
O1287 O 0.45065 0.19233 0.92259 0.0
Co1288 Co 0.58374 0.21189 0.18602 0.0
O1289 O 0.56994 0.21773 0.21066 0.0
O1290 O 0.60023 0.2286 0.20296 0.0
C1291 C 0.55738 0.21785 0.16541 0.0
O1292 O 0.60261 0.21018 0.16213 0.0
Co1293 Co 0.56998 0.17813 0.15718 0.0
O1294 O 0.5882 0.19178 0.13805 0.0
C1295 C 0.59255 0.16797 0.19384 0.0
C1296 C 0.58546 0.2283 0.21559 0.0
C1297 C 0.60194 0.20351 0.14411 0.0
O1298 O 0.596 0.18661 0.19758 0.0
O1299 O 0.58093 0.16201 0.17985 0.0
O1300 O 0.56825 0.23263 0.17191 0.0
O1301 O 0.56175 0.20071 0.17287 0.0
Co1302 Co 0.96182 0.33392 0.06801 0.0
O1303 O 0.96776 0.3201 0.04341 0.0
O1304 O 0.97844 0.35047 0.05105 0.0
C1305 C 0.96791 0.30765 0.08869 0.0
O1306 O 0.96 0.35284 0.09185 0.0
Co1307 Co 0.92813 0.32007 0.09688 0.0
O1308 O 0.94167 0.33841 0.11596 0.0
C1309 C 0.91786 0.34241 0.06011 0.0
C1310 C 0.97823 0.33568 0.03845 0.0
C1311 C 0.95333 0.35218 0.10987 0.0
O1312 O 0.93648 0.34599 0.0564 0.0
O1313 O 0.91197 0.33079 0.07413 0.0
O1314 O 0.98264 0.31858 0.08218 0.0
O1315 O 0.95075 0.31191 0.08122 0.0
Co1316 Co 0.91984 0.71211 0.81813 0.0
O1317 O 0.93371 0.718 0.79355 0.0
O1318 O 0.90333 0.72872 0.8011 0.0
C1319 C 0.94609 0.71824 0.83882 0.0
O1320 O 0.90089 0.71033 0.84196 0.0
Co1321 Co 0.93368 0.67846 0.84705 0.0
O1322 O 0.91533 0.69202 0.8661 0.0
C1323 C 0.91138 0.66814 0.81027 0.0
C1324 C 0.91816 0.72848 0.78854 0.0
C1325 C 0.90154 0.70367 0.85999 0.0
O1326 O 0.90778 0.68675 0.80654 0.0
O1327 O 0.923 0.66227 0.82431 0.0
O1328 O 0.93516 0.73295 0.83229 0.0
O1329 O 0.94183 0.70107 0.83137 0.0
Co1330 Co 0.08388 0.79213 0.31785 0.0
O1331 O 0.07003 0.78621 0.29327 0.0
O1332 O 0.10038 0.77544 0.3009 0.0
C1333 C 0.0576 0.78611 0.33853 0.0
O1334 O 0.1028 0.79393 0.3417 0.0
Co1335 Co 0.0701 0.82587 0.34669 0.0
O1336 O 0.08838 0.81228 0.3658 0.0
C1337 C 0.09248 0.83607 0.30992 0.0
C1338 C 0.08557 0.77567 0.28832 0.0
C1339 C 0.10214 0.80059 0.35972 0.0
O1340 O 0.09602 0.81744 0.30622 0.0
O1341 O 0.08088 0.842 0.32395 0.0
O1342 O 0.0685 0.77136 0.33204 0.0
O1343 O 0.06189 0.80326 0.33105 0.0
C1344 C 0.14402 0.5478 0.1377 0.0
C1345 C 0.12329 0.54656 0.13479 0.0
H1346 H 0.17261 0.55229 0.1242 0.0
C1347 C 0.11587 0.54474 0.11518 0.0
H1348 H 0.1502 0.54862 0.15262 0.0
C1349 C 0.1288 0.54665 0.09876 0.0
C1350 C 0.14925 0.55039 0.1018 0.0
H1351 H 0.09994 0.54365 0.11249 0.0
H1352 H 0.12247 0.54722 0.08387 0.0
C1353 C 0.15687 0.54969 0.12139 0.0
C1354 C 0.70422 0.4069 0.3711 0.0
C1355 C 0.7035 0.39926 0.35153 0.0
H1356 H 0.70535 0.40026 0.40234 0.0
C1357 C 0.70725 0.37881 0.3485 0.0
H1358 H 0.70161 0.42264 0.3739 0.0
C1359 C 0.7092 0.3659 0.36493 0.0
C1360 C 0.7074 0.37333 0.38453 0.0
H1361 H 0.70668 0.37248 0.33361 0.0
H1362 H 0.7103 0.34997 0.36225 0.0
C1363 C 0.70615 0.39406 0.38742 0.0
C1364 C 0.84722 0.95435 0.62169 0.0
C1365 C 0.85482 0.95368 0.6021 0.0
H1366 H 0.85393 0.9553 0.65292 0.0
C1367 C 0.87529 0.95734 0.59905 0.0
H1368 H 0.83147 0.95181 0.62451 0.0
C1369 C 0.88824 0.95915 0.61546 0.0
C1370 C 0.88084 0.9573 0.63507 0.0
H1371 H 0.8816 0.95679 0.58414 0.0
H1372 H 0.90417 0.96018 0.61276 0.0
C1373 C 0.8601 0.95614 0.63799 0.0
C1374 C 0.2982 0.1101 0.88773 0.0
C1375 C 0.29695 0.13084 0.88488 0.0
H1376 H 0.30271 0.08155 0.87416 0.0
C1377 C 0.29511 0.13831 0.8653 0.0
H1378 H 0.29902 0.10389 0.90264 0.0
C1379 C 0.29701 0.12543 0.84884 0.0
C1380 C 0.30076 0.10497 0.85183 0.0
H1381 H 0.294 0.15425 0.86265 0.0
H1382 H 0.29756 0.13179 0.83396 0.0
C1383 C 0.30009 0.0973 0.87139 0.0
C1384 C 0.11609 0.45914 0.88867 0.0
C1385 C 0.12353 0.45716 0.86909 0.0
H1386 H 0.12265 0.45689 0.92001 0.0
C1387 C 0.14426 0.45588 0.86621 0.0
H1388 H 0.10016 0.46028 0.89134 0.0
C1389 C 0.15709 0.4541 0.88255 0.0
C1390 C 0.14945 0.45356 0.90213 0.0
H1391 H 0.15046 0.45497 0.8513 0.0
H1392 H 0.17284 0.45146 0.87977 0.0
C1393 C 0.12899 0.45734 0.90512 0.0
C1394 C 0.79462 0.36579 0.13867 0.0
C1395 C 0.79645 0.37315 0.11904 0.0
H1396 H 0.79704 0.37249 0.16997 0.0
C1397 C 0.79763 0.39388 0.11608 0.0
H1398 H 0.79357 0.34986 0.14141 0.0
C1399 C 0.79947 0.40678 0.13235 0.0
C1400 C 0.80016 0.39922 0.15195 0.0
H1401 H 0.79843 0.40002 0.10113 0.0
H1402 H 0.80203 0.42253 0.12949 0.0
C1403 C 0.79648 0.37877 0.15505 0.0
C1404 C 0.88822 0.04493 0.3888 0.0
C1405 C 0.88079 0.04684 0.36921 0.0
H1406 H 0.88165 0.04727 0.42014 0.0
C1407 C 0.86006 0.04809 0.36633 0.0
H1408 H 0.90416 0.04383 0.39147 0.0
C1409 C 0.84722 0.04989 0.38266 0.0
C1410 C 0.85485 0.0505 0.40224 0.0
H1411 H 0.85386 0.04897 0.35141 0.0
H1412 H 0.83147 0.05249 0.37987 0.0
C1413 C 0.87531 0.04676 0.40524 0.0
C1414 C 0.20634 0.11 0.61642 0.0
C1415 C 0.20748 0.13074 0.61933 0.0
H1416 H 0.20198 0.08138 0.62991 0.0
C1417 C 0.2093 0.13815 0.63893 0.0
H1418 H 0.20553 0.10382 0.60149 0.0
C1419 C 0.20746 0.12522 0.65535 0.0
C1420 C 0.20381 0.10474 0.65231 0.0
H1421 H 0.21032 0.15409 0.64163 0.0
H1422 H 0.20688 0.13153 0.67025 0.0
C1423 C 0.20452 0.09713 0.63273 0.0
C1424 C 0.09883 0.1288 0.54709 0.0
C1425 C 0.10185 0.14926 0.55081 0.0
H1426 H 0.11259 0.09996 0.54408 0.0
C1427 C 0.12142 0.1569 0.55011 0.0
H1428 H 0.08394 0.12246 0.54766 0.0
C1429 C 0.13775 0.14407 0.5482 0.0
C1430 C 0.13486 0.12333 0.54697 0.0
H1431 H 0.12421 0.17265 0.5527 0.0
H1432 H 0.15267 0.15027 0.54898 0.0
C1433 C 0.11526 0.11589 0.54517 0.0
C1434 C 0.12527 0.34836 0.797 0.0
C1435 C 0.10481 0.35145 0.80068 0.0
H1436 H 0.15415 0.36202 0.79402 0.0
C1437 C 0.09722 0.37104 0.7999 0.0
H1438 H 0.13156 0.33345 0.79763 0.0
C1439 C 0.11011 0.38732 0.79798 0.0
C1440 C 0.13084 0.38438 0.7968 0.0
H1441 H 0.08148 0.37389 0.80246 0.0
H1442 H 0.10395 0.40226 0.79874 0.0
C1443 C 0.13823 0.36475 0.79506 0.0
C1444 C 0.86611 0.35966 0.04789 0.0
C1445 C 0.869 0.38039 0.04661 0.0
H1446 H 0.87963 0.33108 0.05245 0.0
C1447 C 0.8886 0.38781 0.04476 0.0
H1448 H 0.85119 0.35347 0.04871 0.0
C1449 C 0.90503 0.37491 0.04669 0.0
C1450 C 0.90201 0.35446 0.05048 0.0
H1451 H 0.89128 0.40374 0.04362 0.0
H1452 H 0.91992 0.38125 0.04722 0.0
C1453 C 0.88243 0.34682 0.04981 0.0
C1454 C 0.86616 0.1391 0.29491 0.0
C1455 C 0.87357 0.11949 0.2967 0.0
H1456 H 0.87278 0.17041 0.29743 0.0
C1457 C 0.8943 0.11657 0.29792 0.0
H1458 H 0.85023 0.1418 0.29383 0.0
C1459 C 0.90716 0.13287 0.29983 0.0
C1460 C 0.89955 0.15246 0.30055 0.0
H1461 H 0.90048 0.10164 0.2987 0.0
H1462 H 0.9229 0.13005 0.30241 0.0
C1463 C 0.87909 0.15551 0.29684 0.0
C1464 C 0.12133 0.84717 0.45444 0.0
C1465 C 0.10175 0.85478 0.45377 0.0
H1466 H 0.15257 0.85386 0.45543 0.0
C1467 C 0.0987 0.87525 0.45746 0.0
H1468 H 0.12415 0.83142 0.45187 0.0
C1469 C 0.11512 0.88818 0.4593 0.0
C1470 C 0.13473 0.88077 0.45745 0.0
H1471 H 0.0838 0.88156 0.45691 0.0
H1472 H 0.11242 0.90411 0.46036 0.0
C1473 C 0.13764 0.86003 0.45626 0.0
C1474 C 0.39354 0.38782 0.70428 0.0
C1475 C 0.37281 0.38494 0.70556 0.0
H1476 H 0.42213 0.37428 0.69988 0.0
C1477 C 0.36537 0.36535 0.70743 0.0
H1478 H 0.39973 0.40274 0.70345 0.0
C1479 C 0.37828 0.34891 0.70561 0.0
C1480 C 0.39875 0.35191 0.70192 0.0
H1481 H 0.34944 0.36268 0.70855 0.0
H1482 H 0.37195 0.33401 0.70513 0.0
C1483 C 0.40638 0.3715 0.70247 0.0
C1484 C 0.88858 0.61578 0.95929 0.0
C1485 C 0.86896 0.62315 0.95743 0.0
H1486 H 0.91989 0.62245 0.95694 0.0
C1487 C 0.86601 0.64388 0.95625 0.0
H1488 H 0.8913 0.59985 0.96034 0.0
C1489 C 0.8823 0.65678 0.95446 0.0
C1490 C 0.9019 0.6492 0.95379 0.0
H1491 H 0.85107 0.65003 0.95542 0.0
H1492 H 0.87946 0.67252 0.95189 0.0
C1493 C 0.90498 0.62874 0.95748 0.0
C1494 C 0.5972 0.13258 0.20415 0.0
C1495 C 0.60476 0.15218 0.20339 0.0
H1496 H 0.60397 0.10136 0.20525 0.0
C1497 C 0.62524 0.15529 0.20698 0.0
H1498 H 0.58145 0.12972 0.20165 0.0
C1499 C 0.63822 0.13891 0.20882 0.0
C1500 C 0.63085 0.11928 0.20708 0.0
H1501 H 0.63151 0.1702 0.20636 0.0
H1502 H 0.65415 0.14165 0.20981 0.0
C1503 C 0.61012 0.11631 0.20598 0.0
C1504 C 0.54939 0.12155 0.15672 0.0
C1505 C 0.55016 0.10196 0.14913 0.0
H1506 H 0.54825 0.15277 0.14999 0.0
C1507 C 0.54646 0.09887 0.12868 0.0
H1508 H 0.55197 0.1244 0.17246 0.0
C1509 C 0.54453 0.11526 0.11572 0.0
C1510 C 0.54629 0.13489 0.1231 0.0
H1511 H 0.54707 0.08396 0.12239 0.0
H1512 H 0.54348 0.11254 0.09979 0.0
C1513 C 0.54748 0.13783 0.14383 0.0
C1514 C 0.04779 0.86633 0.36003 0.0
C1515 C 0.04659 0.86925 0.38076 0.0
H1516 H 0.05223 0.8798 0.33141 0.0
C1517 C 0.04478 0.88887 0.38816 0.0
H1518 H 0.04858 0.8514 0.35386 0.0
C1519 C 0.04667 0.90528 0.37522 0.0
C1520 C 0.05037 0.90222 0.35476 0.0
H1521 H 0.04372 0.89157 0.40409 0.0
H1522 H 0.04725 0.92018 0.38153 0.0
C1523 C 0.04966 0.88263 0.34716 0.0
C1524 C 0.37112 0.29959 0.59618 0.0
C1525 C 0.35157 0.30025 0.60389 0.0
H1526 H 0.40238 0.29845 0.6027 0.0
C1527 C 0.34861 0.29632 0.62432 0.0
H1528 H 0.37387 0.30232 0.58045 0.0
C1529 C 0.36508 0.29427 0.63715 0.0
C1530 C 0.38466 0.29615 0.62968 0.0
H1531 H 0.33373 0.29684 0.63071 0.0
H1532 H 0.36244 0.29304 0.65308 0.0
C1533 C 0.38748 0.29756 0.60894 0.0
C1534 C 0.95921 0.6154 0.88824 0.0
C1535 C 0.95729 0.635 0.88084 0.0
H1536 H 0.95696 0.58407 0.88159 0.0
C1537 C 0.9561 0.63793 0.86011 0.0
H1538 H 0.96027 0.61269 0.90417 0.0
C1539 C 0.95436 0.62163 0.84723 0.0
C1540 C 0.95376 0.60203 0.85482 0.0
H1541 H 0.95522 0.65286 0.85395 0.0
H1542 H 0.9518 0.62445 0.83148 0.0
C1543 C 0.95745 0.59898 0.87529 0.0
C1544 C 0.15495 0.70744 0.12534 0.0
C1545 C 0.15194 0.70375 0.10488 0.0
H1546 H 0.1412 0.71032 0.15419 0.0
C1547 C 0.13236 0.7044 0.09724 0.0
H1548 H 0.16985 0.70691 0.13167 0.0
C1549 C 0.11603 0.70619 0.11009 0.0
C1550 C 0.11892 0.70738 0.13083 0.0
H1551 H 0.12957 0.70183 0.08149 0.0
H1552 H 0.10111 0.70534 0.1039 0.0
C1553 C 0.13852 0.70925 0.13826 0.0
C1554 C 0.45754 0.90523 0.12896 0.0
C1555 C 0.45387 0.90216 0.14943 0.0
H1556 H 0.46046 0.89154 0.10009 0.0
C1557 C 0.4546 0.88257 0.15702 0.0
H1558 H 0.45695 0.92014 0.12267 0.0
C1559 C 0.45646 0.86628 0.14414 0.0
C1560 C 0.45763 0.86921 0.12341 0.0
H1561 H 0.45205 0.87974 0.17277 0.0
H1562 H 0.45567 0.85134 0.15031 0.0
C1563 C 0.45942 0.88883 0.11602 0.0
C1564 C 0.34869 0.2077 0.87889 0.0
C1565 C 0.35184 0.20398 0.89934 0.0
H1566 H 0.36227 0.21073 0.84997 0.0
C1567 C 0.37145 0.20471 0.90686 0.0
H1568 H 0.33376 0.20711 0.87265 0.0
C1569 C 0.3877 0.20664 0.89393 0.0
C1570 C 0.38469 0.20787 0.87321 0.0
H1571 H 0.37435 0.20211 0.92259 0.0
H1572 H 0.40266 0.20586 0.90004 0.0
C1573 C 0.36505 0.20965 0.86589 0.0
C1574 C 0.65526 0.29668 0.37862 0.0
C1575 C 0.65225 0.30036 0.39909 0.0
H1576 H 0.64149 0.29374 0.34978 0.0
C1577 C 0.63268 0.29965 0.40673 0.0
H1578 H 0.67015 0.29726 0.37228 0.0
C1579 C 0.61635 0.29779 0.3939 0.0
C1580 C 0.61923 0.2966 0.37316 0.0
H1581 H 0.62989 0.30222 0.42249 0.0
H1582 H 0.60143 0.29857 0.40011 0.0
C1583 C 0.63882 0.2948 0.36571 0.0
C1584 C 0.14431 0.04777 0.63794 0.0
C1585 C 0.12357 0.04651 0.63505 0.0
H1586 H 0.17289 0.05227 0.62442 0.0
C1587 C 0.11615 0.04466 0.61545 0.0
H1588 H 0.1505 0.04859 0.65286 0.0
C1589 C 0.12906 0.04656 0.59902 0.0
C1590 C 0.14952 0.05032 0.60205 0.0
H1591 H 0.10022 0.04355 0.61277 0.0
H1592 H 0.12273 0.0471 0.58413 0.0
C1593 C 0.15715 0.04965 0.62162 0.0
C1594 C 0.70716 0.87852 0.84887 0.0
C1595 C 0.70346 0.89899 0.85186 0.0
H1596 H 0.71006 0.84968 0.86265 0.0
C1597 C 0.7041 0.90664 0.87143 0.0
H1598 H 0.70663 0.87218 0.83398 0.0
C1599 C 0.70592 0.89381 0.88777 0.0
C1600 C 0.70712 0.87307 0.8849 0.0
H1601 H 0.70152 0.92239 0.8742 0.0
H1602 H 0.70508 0.90002 0.90268 0.0
C1603 C 0.70899 0.86562 0.86531 0.0
C1604 C 0.8749 0.45726 0.09857 0.0
C1605 C 0.85444 0.45354 0.1016 0.0
H1606 H 0.90375 0.4603 0.11231 0.0
C1607 C 0.8468 0.4543 0.12117 0.0
H1608 H 0.88124 0.45665 0.08368 0.0
C1609 C 0.85964 0.45624 0.13749 0.0
C1610 C 0.88038 0.45746 0.1346 0.0
H1611 H 0.83106 0.45171 0.12397 0.0
H1612 H 0.85344 0.45548 0.15241 0.0
C1613 C 0.88781 0.45922 0.11499 0.0
C1614 C 0.29797 0.61033 0.38789 0.0
C1615 C 0.29683 0.63106 0.38495 0.0
H1616 H 0.30226 0.58169 0.37443 0.0
C1617 C 0.29496 0.63845 0.36534 0.0
H1618 H 0.29881 0.60417 0.40283 0.0
C1619 C 0.29674 0.62549 0.34893 0.0
C1620 C 0.30038 0.60502 0.352 0.0
H1621 H 0.29393 0.65438 0.36262 0.0
H1622 H 0.29727 0.63178 0.33402 0.0
C1623 C 0.29972 0.59744 0.3716 0.0
C1624 C 0.11591 0.95934 0.3887 0.0
C1625 C 0.12335 0.95745 0.36911 0.0
H1626 H 0.12247 0.95696 0.42003 0.0
C1627 C 0.14409 0.95621 0.36623 0.0
H1628 H 0.09997 0.96043 0.39137 0.0
C1629 C 0.15692 0.95439 0.38256 0.0
C1630 C 0.14927 0.95374 0.40214 0.0
H1631 H 0.15029 0.95536 0.35132 0.0
H1632 H 0.17266 0.95178 0.37978 0.0
C1633 C 0.12881 0.95748 0.40514 0.0
C1634 C 0.79672 0.87891 0.6555 0.0
C1635 C 0.80049 0.89936 0.65249 0.0
H1636 H 0.79368 0.85008 0.64174 0.0
C1637 C 0.7998 0.90701 0.63292 0.0
H1638 H 0.79728 0.87257 0.67039 0.0
C1639 C 0.79788 0.89419 0.61659 0.0
C1640 C 0.79662 0.87345 0.61947 0.0
H1641 H 0.80242 0.92276 0.63013 0.0
H1642 H 0.7987 0.90039 0.60167 0.0
C1643 C 0.79479 0.86601 0.63907 0.0
C1644 C 0.88832 0.54477 0.88876 0.0
C1645 C 0.88094 0.54656 0.86913 0.0
H1646 H 0.88163 0.54719 0.92006 0.0
C1647 C 0.86021 0.54767 0.86618 0.0
H1648 H 0.90425 0.54377 0.89148 0.0
C1649 C 0.8473 0.54949 0.88245 0.0
C1650 C 0.85487 0.55022 0.90205 0.0
H1651 H 0.85406 0.54845 0.85123 0.0
H1652 H 0.83155 0.552 0.8796 0.0
C1653 C 0.87534 0.5466 0.90514 0.0
C1654 C 0.20418 0.59717 0.1327 0.0
C1655 C 0.20349 0.60476 0.15229 0.0
H1656 H 0.20519 0.60389 0.10147 0.0
C1657 C 0.20718 0.62522 0.15535 0.0
H1658 H 0.20161 0.58143 0.12987 0.0
C1659 C 0.20903 0.63817 0.13895 0.0
C1660 C 0.2072 0.63078 0.11933 0.0
H1661 H 0.20662 0.63152 0.17026 0.0
H1662 H 0.21009 0.6541 0.14166 0.0
C1663 C 0.20601 0.61005 0.1164 0.0
C1664 C 0.1212 0.65705 0.04993 0.0
C1665 C 0.10163 0.64941 0.05058 0.0
H1666 H 0.15245 0.65043 0.0489 0.0
C1667 C 0.09862 0.62895 0.04682 0.0
H1668 H 0.12398 0.6728 0.05256 0.0
C1669 C 0.11506 0.61605 0.04492 0.0
C1670 C 0.13466 0.62349 0.04679 0.0
H1671 H 0.08373 0.62261 0.04735 0.0
H1672 H 0.1124 0.60012 0.0438 0.0
C1673 C 0.13753 0.64423 0.04806 0.0
C1674 C 0.10981 0.88779 0.29772 0.0
C1675 C 0.13054 0.88489 0.2965 0.0
H1676 H 0.08121 0.87429 0.30219 0.0
C1677 C 0.13796 0.86528 0.29468 0.0
H1678 H 0.10362 0.90272 0.29852 0.0
C1679 C 0.12504 0.84886 0.29658 0.0
C1680 C 0.10458 0.8519 0.3003 0.0
H1681 H 0.15389 0.86259 0.2936 0.0
H1682 H 0.13136 0.83396 0.29715 0.0
C1683 C 0.09695 0.87148 0.2996 0.0
C1684 C 0.90507 0.87511 0.54682 0.0
C1685 C 0.902 0.85465 0.55052 0.0
H1686 H 0.89141 0.904 0.54392 0.0
C1687 C 0.88239 0.84708 0.54985 0.0
H1688 H 0.91999 0.88139 0.54736 0.0
C1689 C 0.86611 0.85997 0.54803 0.0
C1690 C 0.86906 0.8807 0.54683 0.0
H1691 H 0.87955 0.83134 0.55242 0.0
H1692 H 0.85117 0.85382 0.54885 0.0
C1693 C 0.88868 0.88807 0.54498 0.0
C1694 C 0.87889 0.65524 0.7969 0.0
C1695 C 0.89936 0.65227 0.80065 0.0
H1696 H 0.85009 0.64141 0.79388 0.0
C1697 C 0.90705 0.63271 0.79996 0.0
H1698 H 0.87252 0.67011 0.79745 0.0
C1699 C 0.89425 0.61636 0.79807 0.0
C1700 C 0.87351 0.61919 0.79683 0.0
H1701 H 0.9228 0.62996 0.80257 0.0
H1702 H 0.90048 0.60145 0.79889 0.0
C1703 C 0.86603 0.63877 0.79499 0.0
C1704 C 0.13751 0.36007 0.95642 0.0
C1705 C 0.13464 0.38082 0.95753 0.0
H1706 H 0.12396 0.33148 0.95206 0.0
C1707 C 0.11504 0.38828 0.95927 0.0
H1708 H 0.15243 0.35386 0.95568 0.0
C1709 C 0.0986 0.37538 0.9574 0.0
C1710 C 0.10161 0.3549 0.95379 0.0
H1711 H 0.11238 0.40423 0.96027 0.0
H1712 H 0.08372 0.38173 0.95677 0.0
C1713 C 0.12118 0.34724 0.95457 0.0
C1714 C 0.40717 0.87134 0.20444 0.0
C1715 C 0.39955 0.85176 0.20371 0.0
H1716 H 0.40049 0.90257 0.20559 0.0
C1717 C 0.37909 0.84871 0.20747 0.0
H1718 H 0.42291 0.87416 0.20183 0.0
C1719 C 0.36617 0.86512 0.20942 0.0
C1720 C 0.37358 0.88474 0.20763 0.0
H1721 H 0.37278 0.83381 0.20688 0.0
H1722 H 0.35024 0.86243 0.21053 0.0
C1723 C 0.39431 0.88764 0.20638 0.0
C1724 C 0.88285 0.15699 0.45453 0.0
C1725 C 0.90243 0.14936 0.45386 0.0
H1726 H 0.8516 0.15034 0.45553 0.0
C1727 C 0.90544 0.12889 0.45755 0.0
H1728 H 0.88006 0.17274 0.45197 0.0
C1729 C 0.88901 0.11597 0.45939 0.0
C1730 C 0.86941 0.12341 0.45755 0.0
H1731 H 0.92034 0.12256 0.457 0.0
H1732 H 0.89169 0.10004 0.46045 0.0
C1733 C 0.86652 0.14415 0.45636 0.0
C1734 C 0.61026 0.61591 0.7061 0.0
C1735 C 0.63099 0.61883 0.70732 0.0
H1736 H 0.58165 0.6294 0.70165 0.0
C1737 C 0.63839 0.63844 0.70918 0.0
H1738 H 0.60409 0.60098 0.70528 0.0
C1739 C 0.62545 0.65485 0.70731 0.0
C1740 C 0.605 0.6518 0.70358 0.0
H1741 H 0.65432 0.64114 0.71027 0.0
H1742 H 0.63176 0.66976 0.70677 0.0
C1743 C 0.59739 0.63222 0.70425 0.0
C1744 C 0.54731 0.5987 0.62855 0.0
C1745 C 0.55098 0.60172 0.64902 0.0
H1746 H 0.54437 0.61246 0.59971 0.0
C1747 C 0.55025 0.62129 0.65666 0.0
H1748 H 0.54791 0.58381 0.62221 0.0
C1749 C 0.54836 0.63761 0.64383 0.0
C1750 C 0.54718 0.63473 0.62309 0.0
H1751 H 0.5528 0.62408 0.67242 0.0
H1752 H 0.54911 0.65253 0.65003 0.0
C1753 C 0.54541 0.61513 0.61564 0.0
C1754 C 0.04771 0.36626 0.86001 0.0
C1755 C 0.04645 0.36922 0.88074 0.0
H1756 H 0.05224 0.37968 0.83139 0.0
C1757 C 0.04463 0.38885 0.88809 0.0
H1758 H 0.04852 0.35132 0.85387 0.0
C1759 C 0.04657 0.40523 0.87513 0.0
C1760 C 0.05033 0.40214 0.85469 0.0
H1761 H 0.04352 0.39158 0.90402 0.0
H1762 H 0.04714 0.42015 0.88142 0.0
C1763 C 0.04962 0.38254 0.84712 0.0
C1764 C 0.34896 0.79662 0.12523 0.0
C1765 C 0.35194 0.80036 0.10476 0.0
H1766 H 0.36276 0.79366 0.15404 0.0
C1767 C 0.37151 0.79971 0.09709 0.0
H1768 H 0.33408 0.79715 0.13158 0.0
C1769 C 0.38786 0.79788 0.10991 0.0
C1770 C 0.385 0.79664 0.13065 0.0
H1771 H 0.37428 0.80232 0.08134 0.0
H1772 H 0.40277 0.79873 0.10369 0.0
C1773 C 0.36542 0.79476 0.13811 0.0
C1774 C 0.95456 0.12159 0.34725 0.0
C1775 C 0.95385 0.102 0.35483 0.0
H1776 H 0.95564 0.15282 0.35397 0.0
C1777 C 0.95757 0.09892 0.37529 0.0
H1778 H 0.95198 0.12443 0.33151 0.0
C1779 C 0.95947 0.11532 0.38824 0.0
C1780 C 0.95765 0.13494 0.38086 0.0
H1781 H 0.957 0.08401 0.38159 0.0
H1782 H 0.96054 0.1126 0.40417 0.0
C1783 C 0.95644 0.13788 0.36013 0.0
C1784 C 0.11615 0.20615 0.61024 0.0
C1785 C 0.11909 0.20733 0.63098 0.0
H1786 H 0.12962 0.20174 0.58162 0.0
C1787 C 0.1387 0.20916 0.63836 0.0
H1788 H 0.10122 0.20534 0.60408 0.0
C1789 C 0.15511 0.20731 0.62541 0.0
C1790 C 0.15204 0.20362 0.60495 0.0
H1791 H 0.14141 0.21022 0.65429 0.0
H1792 H 0.17002 0.20675 0.63171 0.0
C1793 C 0.13245 0.20431 0.59736 0.0
C1794 C 0.4546 0.38287 0.65692 0.0
C1795 C 0.45401 0.40242 0.64919 0.0
H1796 H 0.45549 0.35159 0.65044 0.0
C1797 C 0.45787 0.40532 0.62874 0.0
H1798 H 0.45191 0.38016 0.67267 0.0
C1799 C 0.45976 0.38882 0.61592 0.0
C1800 C 0.45778 0.36926 0.62343 0.0
H1801 H 0.4574 0.42019 0.62233 0.0
H1802 H 0.46094 0.39142 0.59998 0.0
C1803 C 0.45644 0.36648 0.64417 0.0
C1804 C 0.37183 0.70458 0.4069 0.0
C1805 C 0.35224 0.70398 0.39929 0.0
H1806 H 0.40307 0.70546 0.4002 0.0
C1807 C 0.34921 0.70769 0.37883 0.0
H1808 H 0.37464 0.702 0.42264 0.0
C1809 C 0.36563 0.70948 0.36589 0.0
C1810 C 0.38523 0.70756 0.3733 0.0
H1811 H 0.3343 0.70719 0.37252 0.0
H1812 H 0.36293 0.71056 0.34996 0.0
C1813 C 0.38814 0.70635 0.39403 0.0
C1814 C 0.63228 0.79945 0.90702 0.0
C1815 C 0.65187 0.80009 0.89944 0.0
H1816 H 0.60105 0.79843 0.90029 0.0
C1817 C 0.65495 0.79632 0.87899 0.0
H1818 H 0.62944 0.80208 0.92275 0.0
C1819 C 0.63855 0.79443 0.86604 0.0
C1820 C 0.61893 0.79631 0.87342 0.0
H1821 H 0.66986 0.79684 0.8727 0.0
H1822 H 0.64127 0.7933 0.85012 0.0
C1823 C 0.61599 0.79758 0.89414 0.0
C1824 C 0.65748 0.54947 0.62121 0.0
C1825 C 0.64986 0.55016 0.60163 0.0
H1826 H 0.65082 0.54843 0.65245 0.0
C1827 C 0.6294 0.54642 0.5986 0.0
H1828 H 0.67323 0.55207 0.62402 0.0
C1829 C 0.61648 0.54453 0.61502 0.0
C1830 C 0.6239 0.54637 0.63462 0.0
H1831 H 0.62308 0.54697 0.5837 0.0
H1832 H 0.60055 0.54344 0.61233 0.0
C1833 C 0.64463 0.5476 0.63752 0.0
C1834 C 0.20731 0.37844 0.84915 0.0
C1835 C 0.2037 0.39893 0.8521 0.0
H1836 H 0.21007 0.34962 0.86299 0.0
C1837 C 0.20435 0.40661 0.87166 0.0
H1838 H 0.20677 0.37207 0.83427 0.0
C1839 C 0.20607 0.39381 0.88802 0.0
C1840 C 0.2072 0.37306 0.8852 0.0
H1841 H 0.20183 0.42238 0.8744 0.0
H1842 H 0.20524 0.40004 0.90292 0.0
C1843 C 0.20906 0.36556 0.86562 0.0
C1844 C 0.34721 0.95434 0.12174 0.0
C1845 C 0.35482 0.9537 0.10215 0.0
H1846 H 0.3539 0.95528 0.15298 0.0
C1847 C 0.37529 0.95741 0.09911 0.0
H1848 H 0.33147 0.95176 0.12455 0.0
C1849 C 0.38822 0.95923 0.11553 0.0
C1850 C 0.38081 0.95735 0.13514 0.0
H1851 H 0.3816 0.95689 0.08421 0.0
H1852 H 0.40415 0.96031 0.11284 0.0
C1853 C 0.36008 0.95614 0.13805 0.0
C1854 C 0.79817 0.11002 0.38777 0.0
C1855 C 0.79695 0.13076 0.38491 0.0
H1856 H 0.80257 0.08145 0.3742 0.0
C1857 C 0.79506 0.13822 0.36533 0.0
H1858 H 0.79902 0.1038 0.40268 0.0
C1859 C 0.7969 0.12533 0.34887 0.0
C1860 C 0.80061 0.10486 0.35186 0.0
H1861 H 0.79397 0.15415 0.36267 0.0
H1862 H 0.79741 0.13168 0.33399 0.0
C1863 C 0.79998 0.0972 0.37143 0.0
C1864 C 0.65684 0.45415 0.38237 0.0
C1865 C 0.64926 0.45348 0.40197 0.0
H1866 H 0.65012 0.45518 0.35115 0.0
C1867 C 0.6288 0.45719 0.40504 0.0
H1868 H 0.67259 0.45157 0.37954 0.0
C1869 C 0.61585 0.45905 0.38865 0.0
C1870 C 0.62323 0.45721 0.36903 0.0
H1871 H 0.62251 0.45664 0.41996 0.0
H1872 H 0.59992 0.46012 0.39137 0.0
C1873 C 0.64396 0.456 0.36609 0.0
C1874 C 0.29415 0.36626 0.63808 0.0
C1875 C 0.29606 0.37359 0.61846 0.0
H1876 H 0.29639 0.37301 0.66938 0.0
C1877 C 0.29712 0.39432 0.61546 0.0
H1878 H 0.29317 0.35033 0.64084 0.0
C1879 C 0.29879 0.40727 0.63172 0.0
C1880 C 0.29946 0.39974 0.65134 0.0
H1881 H 0.29797 0.40044 0.6005 0.0
H1882 H 0.30129 0.42301 0.62884 0.0
C1883 C 0.29585 0.37927 0.65445 0.0
C1884 C 0.38829 0.04483 0.88842 0.0
C1885 C 0.38085 0.04673 0.86883 0.0
H1886 H 0.38172 0.04711 0.91975 0.0
C1887 C 0.36011 0.04791 0.86596 0.0
H1888 H 0.40423 0.04377 0.89108 0.0
C1889 C 0.34727 0.04966 0.88229 0.0
C1890 C 0.35491 0.05027 0.90187 0.0
H1891 H 0.3539 0.04877 0.85104 0.0
H1892 H 0.33151 0.05222 0.87951 0.0
C1893 C 0.37538 0.0466 0.90486 0.0
C1894 C 0.70603 0.10974 0.1159 0.0
C1895 C 0.70728 0.13048 0.11877 0.0
H1896 H 0.70169 0.08116 0.12948 0.0
C1897 C 0.70929 0.13791 0.13836 0.0
H1898 H 0.70508 0.10354 0.10099 0.0
C1899 C 0.70754 0.12501 0.15481 0.0
C1900 C 0.70378 0.10455 0.15183 0.0
H1901 H 0.71041 0.15384 0.14102 0.0
H1902 H 0.70711 0.13135 0.1697 0.0
C1903 C 0.70431 0.09691 0.13225 0.0
C1904 C 0.59843 0.12893 0.04634 0.0
C1905 C 0.60148 0.14939 0.05006 0.0
H1906 H 0.61215 0.10007 0.04336 0.0
C1907 C 0.62106 0.157 0.04937 0.0
H1908 H 0.58353 0.12262 0.0469 0.0
C1909 C 0.63737 0.14414 0.0475 0.0
C1910 C 0.63446 0.12341 0.04627 0.0
H1911 H 0.62388 0.17274 0.05197 0.0
H1912 H 0.6523 0.15032 0.04831 0.0
C1913 C 0.61485 0.116 0.04444 0.0
C1914 C 0.60967 0.3876 0.29762 0.0
C1915 C 0.63041 0.38471 0.29638 0.0
H1916 H 0.58108 0.37408 0.30208 0.0
C1917 C 0.63783 0.36511 0.29452 0.0
H1918 H 0.60348 0.40252 0.29845 0.0
C1919 C 0.62492 0.34868 0.2964 0.0
C1920 C 0.60446 0.3517 0.30014 0.0
H1921 H 0.65376 0.36243 0.29342 0.0
H1922 H 0.63125 0.33378 0.29694 0.0
C1923 C 0.59683 0.37128 0.29947 0.0
C1924 C 0.36639 0.36023 0.54805 0.0
C1925 C 0.36929 0.38096 0.54674 0.0
H1926 H 0.37989 0.33165 0.55263 0.0
C1927 C 0.3889 0.38838 0.54495 0.0
H1928 H 0.35147 0.35405 0.54885 0.0
C1929 C 0.40532 0.37547 0.54692 0.0
C1930 C 0.40228 0.35502 0.55068 0.0
H1931 H 0.39158 0.40431 0.54381 0.0
H1932 H 0.42022 0.38179 0.54748 0.0
C1933 C 0.3827 0.34739 0.55 0.0
C1934 C 0.37888 0.1557 0.79632 0.0
C1935 C 0.39935 0.15277 0.80005 0.0
H1936 H 0.35009 0.14183 0.79338 0.0
C1937 C 0.40707 0.13323 0.79941 0.0
H1938 H 0.37249 0.17057 0.79684 0.0
C1939 C 0.3943 0.11685 0.7976 0.0
C1940 C 0.37355 0.11965 0.79637 0.0
H1941 H 0.42283 0.1305 0.802 0.0
H1942 H 0.40055 0.10195 0.79848 0.0
C1943 C 0.36604 0.13921 0.79447 0.0
C1944 C 0.61488 0.88797 0.95898 0.0
C1945 C 0.63448 0.88054 0.95721 0.0
H1946 H 0.58356 0.88138 0.95649 0.0
C1947 C 0.63738 0.8598 0.95603 0.0
H1948 H 0.61219 0.9039 0.96003 0.0
C1949 C 0.62106 0.84695 0.95415 0.0
C1950 C 0.60149 0.85458 0.95341 0.0
H1951 H 0.6523 0.85361 0.95526 0.0
H1952 H 0.62387 0.8312 0.95159 0.0
C1953 C 0.59845 0.87505 0.95709 0.0
C1954 C 0.90672 0.37166 0.20434 0.0
C1955 C 0.89911 0.35207 0.20372 0.0
H1956 H 0.90003 0.4029 0.20524 0.0
C1957 C 0.87865 0.34904 0.20742 0.0
H1958 H 0.92247 0.37446 0.20176 0.0
C1959 C 0.86571 0.36546 0.20921 0.0
C1960 C 0.87312 0.38506 0.2073 0.0
H1961 H 0.87233 0.33413 0.20692 0.0
H1962 H 0.84978 0.36277 0.21028 0.0
C1963 C 0.89386 0.38797 0.20611 0.0
C1964 C 0.40562 0.62916 0.4573 0.0
C1965 C 0.40265 0.64962 0.45354 0.0
H1966 H 0.39179 0.60036 0.46035 0.0
C1967 C 0.38309 0.65731 0.45422 0.0
H1968 H 0.4205 0.62279 0.45675 0.0
C1969 C 0.36674 0.64452 0.45613 0.0
C1970 C 0.36957 0.62378 0.4574 0.0
H1971 H 0.38034 0.67306 0.4516 0.0
H1972 H 0.35183 0.65076 0.4553 0.0
C1973 C 0.38915 0.6163 0.45923 0.0
C1974 C 0.13816 0.13863 0.70943 0.0
C1975 C 0.13078 0.11901 0.70755 0.0
H1976 H 0.13151 0.16994 0.70708 0.0
C1977 C 0.11005 0.11608 0.70634 0.0
H1978 H 0.15409 0.14134 0.71051 0.0
C1979 C 0.09716 0.13237 0.70453 0.0
C1980 C 0.10475 0.15197 0.70388 0.0
H1981 H 0.10389 0.10114 0.7055 0.0
H1982 H 0.08142 0.12954 0.70194 0.0
C1983 C 0.12521 0.15503 0.7076 0.0
C1984 C 0.04483 0.11503 0.61632 0.0
C1985 C 0.04664 0.13462 0.62377 0.0
H1986 H 0.04731 0.0837 0.62286 0.0
C1987 C 0.04788 0.13749 0.6445 0.0
H1988 H 0.04374 0.11236 0.60038 0.0
C1989 C 0.04977 0.12115 0.65733 0.0
C1990 C 0.05047 0.10159 0.64967 0.0
H1991 H 0.04868 0.1524 0.65071 0.0
H1992 H 0.05236 0.12394 0.67307 0.0
C1993 C 0.04674 0.09858 0.62921 0.0
C1994 C 0.54949 0.8823 0.84671 0.0
C1995 C 0.55014 0.9019 0.8543 0.0
H1996 H 0.54847 0.85107 0.85343 0.0
C1997 C 0.54637 0.90496 0.87475 0.0
H1998 H 0.55212 0.87947 0.83097 0.0
C1999 C 0.54448 0.88856 0.88769 0.0
C2000 C 0.54635 0.86894 0.88031 0.0
H2001 H 0.5469 0.91987 0.88104 0.0
H2002 H 0.54336 0.89128 0.90362 0.0
C2003 C 0.54762 0.86601 0.85958 0.0
C2004 C 0.88761 0.29766 0.11016 0.0
C2005 C 0.88468 0.29655 0.1309 0.0
H2006 H 0.87415 0.30196 0.08152 0.0
C2007 C 0.86507 0.29474 0.1383 0.0
H2008 H 0.90255 0.29846 0.10399 0.0
C2009 C 0.84866 0.29655 0.12534 0.0
C2010 C 0.85172 0.30016 0.10486 0.0
H2011 H 0.86236 0.29375 0.15423 0.0
H2012 H 0.83375 0.29713 0.13164 0.0
C2013 C 0.87132 0.29944 0.09727 0.0
C2014 C 0.45649 0.63777 0.35972 0.0
C2015 C 0.45773 0.63487 0.38045 0.0
H2016 H 0.45196 0.62427 0.33113 0.0
C2017 C 0.45952 0.61526 0.38787 0.0
H2018 H 0.4557 0.65269 0.35353 0.0
C2019 C 0.45759 0.59884 0.37496 0.0
C2020 C 0.45385 0.60188 0.3545 0.0
H2021 H 0.46062 0.61257 0.4038 0.0
H2022 H 0.45701 0.58394 0.38129 0.0
C2023 C 0.45457 0.62146 0.34687 0.0
C2024 C 0.65558 0.70708 0.62523 0.0
C2025 C 0.65256 0.70343 0.60475 0.0
H2026 H 0.64182 0.70996 0.65407 0.0
C2027 C 0.63299 0.70417 0.59711 0.0
H2028 H 0.67047 0.70649 0.63156 0.0
C2029 C 0.61667 0.70601 0.60995 0.0
C2030 C 0.61955 0.70716 0.63069 0.0
H2031 H 0.6302 0.70163 0.58135 0.0
H2032 H 0.60174 0.70524 0.60375 0.0
C2033 C 0.63915 0.70894 0.63813 0.0
C2034 C 0.9574 0.90493 0.62899 0.0
C2035 C 0.95372 0.90189 0.64945 0.0
H2036 H 0.96026 0.89121 0.60012 0.0
C2037 C 0.95436 0.8823 0.65706 0.0
H2038 H 0.95687 0.91984 0.62268 0.0
C2039 C 0.95615 0.86599 0.64419 0.0
C2040 C 0.95733 0.86891 0.62345 0.0
H2041 H 0.9518 0.87949 0.67281 0.0
H2042 H 0.95531 0.85106 0.65036 0.0
C2043 C 0.95921 0.88851 0.61605 0.0
C2044 C 0.86556 0.2094 0.36624 0.0
C2045 C 0.88515 0.2075 0.37367 0.0
H2046 H 0.83423 0.20702 0.37281 0.0
C2047 C 0.88804 0.20621 0.3944 0.0
H2048 H 0.86288 0.21053 0.35031 0.0
C2049 C 0.87171 0.20436 0.40724 0.0
C2050 C 0.85213 0.20373 0.3996 0.0
H2051 H 0.90296 0.20535 0.40059 0.0
H2052 H 0.8745 0.20172 0.42297 0.0
C2053 C 0.84912 0.20752 0.37915 0.0
C2054 C 0.116 0.2977 0.8946 0.0
C2055 C 0.11894 0.29639 0.87388 0.0
H2056 H 0.12945 0.30223 0.92321 0.0
C2057 C 0.13856 0.29446 0.86651 0.0
H2058 H 0.10106 0.29859 0.90075 0.0
C2059 C 0.15496 0.29634 0.87946 0.0
C2060 C 0.15189 0.30016 0.8999 0.0
H2061 H 0.14128 0.2933 0.85059 0.0
H2062 H 0.16987 0.29682 0.87317 0.0
C2063 C 0.13229 0.29956 0.90748 0.0
C2064 C 0.62863 0.04678 0.09859 0.0
C2065 C 0.6491 0.05049 0.10155 0.0
H2066 H 0.59982 0.04388 0.11243 0.0
C2067 C 0.65678 0.04986 0.12111 0.0
H2068 H 0.62226 0.04729 0.08371 0.0
C2069 C 0.64398 0.04807 0.13747 0.0
C2070 C 0.62324 0.04685 0.13464 0.0
H2071 H 0.67254 0.05245 0.12386 0.0
H2072 H 0.65021 0.04894 0.15237 0.0
C2073 C 0.61576 0.04496 0.11506 0.0
C2074 C 0.20723 0.87903 0.34881 0.0
C2075 C 0.20346 0.89949 0.35181 0.0
H2076 H 0.21025 0.8502 0.36258 0.0
C2077 C 0.20409 0.90714 0.37139 0.0
H2078 H 0.20672 0.87269 0.33392 0.0
C2079 C 0.20596 0.89431 0.38772 0.0
C2080 C 0.20724 0.87357 0.38484 0.0
H2081 H 0.20147 0.92288 0.37417 0.0
H2082 H 0.20512 0.90051 0.40263 0.0
C2083 C 0.20912 0.86614 0.36525 0.0
C2084 C 0.3472 0.45494 0.62095 0.0
C2085 C 0.35477 0.45414 0.60135 0.0
H2086 H 0.35397 0.45604 0.65216 0.0
C2087 C 0.37524 0.45772 0.59824 0.0
H2088 H 0.33145 0.45246 0.6238 0.0
C2089 C 0.38823 0.45955 0.61461 0.0
C2090 C 0.38085 0.45781 0.63424 0.0
H2091 H 0.38152 0.45708 0.58332 0.0
H2092 H 0.40416 0.46051 0.61188 0.0
C2093 C 0.36012 0.45676 0.63721 0.0
C2094 C 0.79775 0.60969 0.88778 0.0
C2095 C 0.7965 0.63043 0.88488 0.0
H2096 H 0.80233 0.58111 0.87428 0.0
C2097 C 0.79472 0.63785 0.86527 0.0
H2098 H 0.79852 0.6035 0.9027 0.0
C2099 C 0.79669 0.62494 0.84885 0.0
C2100 C 0.80045 0.60449 0.85189 0.0
H2101 H 0.79361 0.65378 0.86259 0.0
H2102 H 0.79728 0.63127 0.83396 0.0
C2103 C 0.79971 0.59685 0.87147 0.0
C2104 C 0.64392 0.9558 0.86597 0.0
C2105 C 0.62318 0.95702 0.86884 0.0
H2106 H 0.6725 0.95142 0.87954 0.0
C2107 C 0.61573 0.9589 0.88842 0.0
H2108 H 0.65013 0.95496 0.85106 0.0
C2109 C 0.62862 0.95708 0.90487 0.0
C2110 C 0.64909 0.95337 0.90188 0.0
H2111 H 0.59979 0.95999 0.89108 0.0
H2112 H 0.62227 0.95657 0.91976 0.0
C2113 C 0.65675 0.954 0.88231 0.0
C2114 C 0.2999 0.90695 0.13293 0.0
C2115 C 0.30058 0.89931 0.1525 0.0
H2116 H 0.29884 0.90031 0.10169 0.0
C2117 C 0.29686 0.87885 0.15552 0.0
H2118 H 0.30249 0.9227 0.13014 0.0
C2119 C 0.29497 0.86594 0.13909 0.0
C2120 C 0.2968 0.87338 0.11949 0.0
H2121 H 0.29741 0.87251 0.17041 0.0
H2122 H 0.29388 0.85001 0.14176 0.0
C2123 C 0.29803 0.89411 0.11661 0.0
C2124 C 0.34714 0.55016 0.38263 0.0
C2125 C 0.3548 0.55085 0.40219 0.0
H2126 H 0.35376 0.54903 0.35138 0.0
C2127 C 0.37526 0.54709 0.4052 0.0
H2128 H 0.3314 0.55278 0.37985 0.0
C2129 C 0.38815 0.54515 0.38876 0.0
C2130 C 0.3807 0.54697 0.36917 0.0
H2131 H 0.3816 0.54764 0.42009 0.0
H2132 H 0.40408 0.54403 0.39143 0.0
C2133 C 0.35996 0.54823 0.3663 0.0
C2134 C 0.70472 0.59684 0.63255 0.0
C2135 C 0.70404 0.60445 0.65214 0.0
H2136 H 0.70577 0.60354 0.60132 0.0
C2137 C 0.70777 0.6249 0.65519 0.0
H2138 H 0.70213 0.5811 0.62973 0.0
C2139 C 0.70966 0.63784 0.63878 0.0
C2140 C 0.70782 0.63044 0.61917 0.0
H2141 H 0.70722 0.63121 0.6701 0.0
H2142 H 0.71075 0.65377 0.64149 0.0
C2143 C 0.70659 0.60971 0.61625 0.0
C2144 C 0.61578 0.61591 0.54466 0.0
C2145 C 0.63539 0.6233 0.54654 0.0
H2146 H 0.58446 0.62254 0.54701 0.0
C2147 C 0.63831 0.64403 0.54777 0.0
H2148 H 0.61307 0.59998 0.54356 0.0
C2149 C 0.62201 0.6569 0.54959 0.0
C2150 C 0.60241 0.64931 0.55023 0.0
H2151 H 0.65324 0.6502 0.54861 0.0
H2152 H 0.62483 0.67264 0.55219 0.0
C2153 C 0.59936 0.62885 0.5465 0.0
C2154 C 0.62515 0.84835 0.7966 0.0
C2155 C 0.60467 0.85139 0.80026 0.0
H2156 H 0.65401 0.86208 0.79367 0.0
C2157 C 0.59705 0.87097 0.79949 0.0
H2158 H 0.63147 0.83345 0.79721 0.0
C2159 C 0.6099 0.88728 0.79762 0.0
C2160 C 0.63064 0.88438 0.79646 0.0
H2161 H 0.5813 0.87378 0.80203 0.0
H2162 H 0.60371 0.90221 0.79838 0.0
C2163 C 0.63807 0.86477 0.7947 0.0
C2164 C 0.40523 0.8752 0.04686 0.0
C2165 C 0.4022 0.85474 0.05059 0.0
H2166 H 0.3915 0.90405 0.04394 0.0
C2167 C 0.38262 0.84712 0.04998 0.0
H2168 H 0.42013 0.88152 0.04736 0.0
C2169 C 0.3663 0.85998 0.04817 0.0
C2170 C 0.3692 0.88071 0.04694 0.0
H2171 H 0.37982 0.83138 0.05257 0.0
H2172 H 0.35138 0.8538 0.04903 0.0
C2173 C 0.38881 0.88812 0.04504 0.0
C2174 C 0.39401 0.61631 0.29779 0.0
C2175 C 0.37327 0.61927 0.29664 0.0
H2176 H 0.42266 0.62972 0.30217 0.0
C2177 C 0.36591 0.6389 0.29485 0.0
H2178 H 0.40015 0.60136 0.29857 0.0
C2179 C 0.37888 0.65528 0.2967 0.0
C2180 C 0.39935 0.65218 0.30035 0.0
H2181 H 0.34998 0.64163 0.29383 0.0
H2182 H 0.3726 0.6702 0.29729 0.0
C2183 C 0.40691 0.63258 0.29962 0.0
C2184 C 0.59898 0.37499 0.45745 0.0
C2185 C 0.60203 0.35453 0.45374 0.0
H2186 H 0.61269 0.40386 0.46033 0.0
C2187 C 0.62162 0.34693 0.45439 0.0
H2188 H 0.58407 0.38129 0.45693 0.0
C2189 C 0.63793 0.3598 0.45618 0.0
C2190 C 0.635 0.38054 0.45738 0.0
H2191 H 0.62444 0.33119 0.45181 0.0
H2192 H 0.65286 0.35364 0.45532 0.0
C2193 C 0.61539 0.38793 0.45927 0.0
C2194 C 0.90711 0.87123 0.70442 0.0
C2195 C 0.89945 0.85166 0.70376 0.0
H2196 H 0.9005 0.90248 0.70548 0.0
C2197 C 0.87899 0.84866 0.70753 0.0
H2198 H 0.92285 0.87401 0.7018 0.0
C2199 C 0.8661 0.86511 0.70943 0.0
C2200 C 0.87355 0.8847 0.70757 0.0
H2201 H 0.87264 0.83378 0.70699 0.0
H2202 H 0.85017 0.86245 0.71055 0.0
C2203 C 0.89429 0.88756 0.70631 0.0
C2204 C 0.36645 0.14392 0.95598 0.0
C2205 C 0.36943 0.12318 0.95709 0.0
H2206 H 0.37984 0.17257 0.95155 0.0
C2207 C 0.38906 0.11582 0.95876 0.0
H2208 H 0.3515 0.15005 0.95529 0.0
C2209 C 0.40543 0.1288 0.95684 0.0
C2210 C 0.40231 0.14927 0.95323 0.0
H2211 H 0.39181 0.09989 0.95975 0.0
H2212 H 0.42035 0.12252 0.95616 0.0
C2213 C 0.38271 0.15683 0.95406 0.0
C2214 C 0.10973 0.61613 0.20619 0.0
C2215 C 0.13046 0.61904 0.20744 0.0
H2216 H 0.08113 0.62962 0.20174 0.0
C2217 C 0.13786 0.63865 0.20933 0.0
H2218 H 0.10356 0.6012 0.20533 0.0
C2219 C 0.12493 0.65507 0.20748 0.0
C2220 C 0.10447 0.65203 0.20373 0.0
H2221 H 0.15379 0.64135 0.21044 0.0
H2222 H 0.13124 0.66997 0.20697 0.0
C2223 C 0.09687 0.63244 0.20436 0.0
C2224 C 0.0465 0.59872 0.12896 0.0
C2225 C 0.05023 0.60171 0.14942 0.0
H2226 H 0.04351 0.61251 0.10014 0.0
C2227 C 0.04954 0.62128 0.15708 0.0
H2228 H 0.04706 0.58383 0.1226 0.0
C2229 C 0.04766 0.63761 0.14427 0.0
C2230 C 0.04642 0.63476 0.12353 0.0
H2231 H 0.05213 0.62405 0.17283 0.0
H2232 H 0.04847 0.65253 0.15048 0.0
C2233 C 0.0446 0.61516 0.11607 0.0
C2234 C 0.54669 0.40498 0.37524 0.0
C2235 C 0.55031 0.40193 0.35476 0.0
H2236 H 0.54388 0.39128 0.40412 0.0
C2237 C 0.54964 0.38234 0.34716 0.0
H2238 H 0.54724 0.41989 0.38154 0.0
C2239 C 0.54787 0.36604 0.36004 0.0
C2240 C 0.54674 0.36896 0.38078 0.0
H2241 H 0.55216 0.37953 0.33141 0.0
H2242 H 0.54868 0.35111 0.35387 0.0
C2243 C 0.5449 0.38857 0.38818 0.0
C2244 C 0.86512 0.79473 0.6382 0.0
C2245 C 0.88472 0.79652 0.63077 0.0
H2246 H 0.8338 0.79726 0.63164 0.0
C2247 C 0.88761 0.79774 0.61003 0.0
H2248 H 0.86244 0.79365 0.65414 0.0
C2249 C 0.87129 0.79966 0.5972 0.0
C2250 C 0.85172 0.80039 0.60484 0.0
H2251 H 0.90253 0.79852 0.60383 0.0
H2252 H 0.87409 0.80226 0.58145 0.0
C2253 C 0.84869 0.79667 0.6253 0.0
C2254 C 0.45603 0.13807 0.85936 0.0
C2255 C 0.45739 0.13519 0.88009 0.0
H2256 H 0.45154 0.12452 0.8308 0.0
C2257 C 0.4594 0.1156 0.88751 0.0
H2258 H 0.45506 0.15299 0.85318 0.0
C2259 C 0.45756 0.09915 0.8746 0.0
C2260 C 0.45372 0.10215 0.85416 0.0
H2261 H 0.46059 0.11292 0.90343 0.0
H2262 H 0.45714 0.08426 0.88094 0.0
C2263 C 0.45423 0.12174 0.84653 0.0
C2264 C 0.63232 0.20417 0.09685 0.0
C2265 C 0.6519 0.20348 0.10446 0.0
H2266 H 0.60108 0.20523 0.10353 0.0
C2267 C 0.65495 0.20723 0.12491 0.0
H2268 H 0.62951 0.20156 0.08111 0.0
C2269 C 0.63853 0.20913 0.13784 0.0
C2270 C 0.61892 0.2073 0.13043 0.0
H2271 H 0.66985 0.20667 0.13123 0.0
H2272 H 0.64123 0.21023 0.15377 0.0
C2273 C 0.61601 0.20605 0.1097 0.0
C2274 C 0.95705 0.40526 0.12891 0.0
C2275 C 0.95331 0.40227 0.14937 0.0
H2276 H 0.96005 0.39145 0.1001 0.0
C2277 C 0.95397 0.38271 0.15705 0.0
H2278 H 0.95652 0.42014 0.12255 0.0
C2279 C 0.95584 0.36637 0.14424 0.0
C2280 C 0.95709 0.36921 0.1235 0.0
H2281 H 0.95136 0.37995 0.1728 0.0
H2282 H 0.95502 0.35146 0.15046 0.0
C2283 C 0.95894 0.3888 0.11603 0.0
C2284 C 0.87106 0.70426 0.90719 0.0
C2285 C 0.85149 0.70354 0.89954 0.0
H2286 H 0.9023 0.70539 0.90058 0.0
C2287 C 0.84848 0.70727 0.87908 0.0
H2288 H 0.87384 0.70166 0.92294 0.0
C2289 C 0.86491 0.70921 0.86619 0.0
C2290 C 0.88451 0.70742 0.87363 0.0
H2291 H 0.83359 0.70669 0.87274 0.0
H2292 H 0.86225 0.7103 0.85025 0.0
C2293 C 0.88738 0.70618 0.89437 0.0
C2294 C 0.15518 0.79685 0.37887 0.0
C2295 C 0.15215 0.80056 0.39934 0.0
H2296 H 0.14144 0.79391 0.35002 0.0
C2297 C 0.13256 0.79987 0.40696 0.0
H2298 H 0.17008 0.79741 0.37255 0.0
C2299 C 0.11625 0.79802 0.39411 0.0
C2300 C 0.11915 0.79681 0.37337 0.0
H2301 H 0.12976 0.80245 0.42271 0.0
H2302 H 0.10132 0.79883 0.4003 0.0
C2303 C 0.13875 0.79498 0.36595 0.0
C2304 C 0.12994 0.55446 0.2287 0.0
C2305 C 0.14644 0.54639 0.21861 0.0
H2306 H 0.09803 0.55712 0.22936 0.0
C2307 C 0.14332 0.53092 0.20469 0.0
H2308 H 0.13189 0.5666 0.23924 0.0
C2309 C 0.12393 0.52519 0.19929 0.0
C2310 C 0.10742 0.53521 0.20744 0.0
H2311 H 0.15584 0.5246 0.19658 0.0
H2312 H 0.12198 0.51471 0.1871 0.0
C2313 C 0.11055 0.54906 0.22297 0.0
C2314 C 0.72883 0.37396 0.44905 0.0
C2315 C 0.71877 0.35748 0.4572 0.0
H2316 H 0.72949 0.40586 0.44632 0.0
C2317 C 0.70492 0.36063 0.47272 0.0
H2318 H 0.73932 0.37198 0.43687 0.0
C2319 C 0.69956 0.38004 0.47844 0.0
C2320 C 0.70766 0.39652 0.46834 0.0
H2321 H 0.69683 0.34813 0.47911 0.0
H2322 H 0.68742 0.38201 0.48897 0.0
C2323 C 0.72314 0.39336 0.45444 0.0
C2324 C 0.89366 0.95449 0.72324 0.0
C2325 C 0.89681 0.96839 0.70775 0.0
H2326 H 0.87228 0.93697 0.73948 0.0
C2327 C 0.88033 0.97851 0.69968 0.0
H2328 H 0.90616 0.94636 0.72956 0.0
C2329 C 0.86093 0.97284 0.70509 0.0
C2330 C 0.85777 0.95732 0.71896 0.0
H2331 H 0.8823 0.98903 0.68753 0.0
H2332 H 0.84842 0.97924 0.69703 0.0
C2333 C 0.87426 0.94915 0.72898 0.0
C2334 C 0.27568 0.12994 0.94945 0.0
C2335 C 0.28579 0.1464 0.95757 0.0
H2336 H 0.27497 0.09804 0.94666 0.0
C2337 C 0.29975 0.14319 0.97299 0.0
H2338 H 0.26511 0.13195 0.93734 0.0
C2339 C 0.30513 0.12377 0.97863 0.0
C2340 C 0.29694 0.10732 0.96857 0.0
H2341 H 0.30788 0.15567 0.97936 0.0
H2342 H 0.31733 0.12177 0.98909 0.0
C2343 C 0.28139 0.11052 0.95475 0.0
C2344 C 0.14363 0.47256 0.79924 0.0
C2345 C 0.14677 0.45701 0.78542 0.0
H2346 H 0.12227 0.4889 0.81668 0.0
C2347 C 0.13028 0.44888 0.77536 0.0
H2348 H 0.15613 0.47894 0.80732 0.0
C2349 C 0.11088 0.45431 0.78102 0.0
C2350 C 0.10773 0.46826 0.79645 0.0
H2351 H 0.13225 0.43667 0.76489 0.0
H2352 H 0.09837 0.44622 0.77466 0.0
C2353 C 0.12423 0.47833 0.80456 0.0
C2354 C 0.79927 0.36029 0.03096 0.0
C2355 C 0.78536 0.35714 0.04643 0.0
H2356 H 0.81679 0.38165 0.01472 0.0
C2357 C 0.77523 0.37362 0.05449 0.0
H2358 H 0.8074 0.34778 0.02464 0.0
C2359 C 0.78091 0.39302 0.04908 0.0
C2360 C 0.79643 0.39618 0.03522 0.0
H2361 H 0.76469 0.37166 0.06664 0.0
H2362 H 0.77449 0.40553 0.05713 0.0
C2363 C 0.80461 0.37968 0.02521 0.0
C2364 C 0.8802 0.02563 0.30448 0.0
C2365 C 0.8967 0.03576 0.29646 0.0
H2366 H 0.84829 0.02491 0.3071 0.0
C2367 C 0.89357 0.0497 0.28101 0.0
H2368 H 0.88216 0.01506 0.3166 0.0
C2369 C 0.87418 0.05507 0.27526 0.0
C2370 C 0.85768 0.04688 0.28525 0.0
H2371 H 0.90609 0.05784 0.27471 0.0
H2372 H 0.87223 0.06728 0.2648 0.0
C2373 C 0.86081 0.03133 0.29907 0.0
C2374 C 0.22861 0.13014 0.5547 0.0
C2375 C 0.21845 0.1466 0.54661 0.0
H2376 H 0.22939 0.09824 0.55739 0.0
C2377 C 0.20455 0.14341 0.53115 0.0
H2378 H 0.23914 0.13214 0.56683 0.0
C2379 C 0.19923 0.124 0.52543 0.0
C2380 C 0.20743 0.10753 0.53547 0.0
H2381 H 0.19639 0.15589 0.52481 0.0
H2382 H 0.18705 0.12199 0.51495 0.0
C2383 C 0.22296 0.11073 0.54932 0.0
C2384 C 0.22291 0.89357 0.4548 0.0
C2385 C 0.20739 0.8967 0.46867 0.0
H2386 H 0.23916 0.87223 0.43726 0.0
C2387 C 0.19927 0.88021 0.47872 0.0
H2388 H 0.22927 0.90608 0.44672 0.0
C2389 C 0.20467 0.86081 0.47301 0.0
C2390 C 0.21856 0.85768 0.45752 0.0
H2391 H 0.1871 0.88216 0.48922 0.0
H2392 H 0.19657 0.8483 0.47936 0.0
C2393 C 0.22864 0.87418 0.44942 0.0
C2394 C 0.36046 0.473 0.70349 0.0
C2395 C 0.35727 0.4576 0.71748 0.0
H2396 H 0.38188 0.48925 0.68603 0.0
C2397 C 0.37373 0.44965 0.72774 0.0
H2398 H 0.34798 0.47924 0.69525 0.0
C2399 C 0.39315 0.45513 0.72217 0.0
C2400 C 0.39636 0.46894 0.70662 0.0
H2401 H 0.37175 0.43757 0.73834 0.0
H2402 H 0.40565 0.44717 0.72872 0.0
C2403 C 0.37987 0.47881 0.69825 0.0
C2404 C 0.80431 0.62354 0.9786 0.0
C2405 C 0.7963 0.60707 0.96841 0.0
H2406 H 0.8069 0.65545 0.97943 0.0
C2407 C 0.78085 0.61023 0.95448 0.0
H2408 H 0.81644 0.62156 0.98915 0.0
C2409 C 0.77508 0.62964 0.94918 0.0
C2410 C 0.78505 0.64612 0.95743 0.0
H2411 H 0.77456 0.59774 0.94629 0.0
H2412 H 0.76461 0.63163 0.93699 0.0
C2413 C 0.79888 0.64294 0.97297 0.0
C2414 C 0.61078 0.04983 0.22283 0.0
C2415 C 0.60759 0.03585 0.20743 0.0
H2416 H 0.63219 0.06737 0.23899 0.0
C2417 C 0.62405 0.02564 0.19943 0.0
H2418 H 0.59829 0.05803 0.22911 0.0
C2419 C 0.64346 0.03128 0.20482 0.0
C2420 C 0.64666 0.04685 0.21861 0.0
H2421 H 0.62205 0.01504 0.18734 0.0
H2422 H 0.65595 0.02478 0.19681 0.0
C2423 C 0.63019 0.05514 0.22857 0.0
C2424 C 0.55427 0.22862 0.12991 0.0
C2425 C 0.54624 0.21845 0.14638 0.0
H2426 H 0.5569 0.22941 0.098 0.0
C2427 C 0.53079 0.20451 0.14321 0.0
H2428 H 0.56639 0.23918 0.13189 0.0
C2429 C 0.52504 0.19919 0.12381 0.0
C2430 C 0.53503 0.20743 0.10733 0.0
H2431 H 0.52449 0.19634 0.15571 0.0
H2432 H 0.51458 0.18699 0.12182 0.0
C2433 C 0.54886 0.22296 0.1105 0.0
C2434 C 0.02527 0.80475 0.38013 0.0
C2435 C 0.03534 0.79662 0.39662 0.0
H2436 H 0.02462 0.80749 0.34823 0.0
C2437 C 0.04922 0.78112 0.39346 0.0
H2438 H 0.01476 0.81691 0.38211 0.0
C2439 C 0.0546 0.77542 0.37406 0.0
C2440 C 0.04648 0.78551 0.35758 0.0
H2441 H 0.05731 0.77475 0.40596 0.0
H2442 H 0.06676 0.76491 0.37209 0.0
C2443 C 0.03098 0.79939 0.36073 0.0
C2444 C 0.47311 0.2986 0.64311 0.0
C2445 C 0.45747 0.28486 0.64615 0.0
H2446 H 0.48945 0.31618 0.62187 0.0
C2447 C 0.44929 0.27494 0.62961 0.0
H2448 H 0.47952 0.30657 0.65567 0.0
C2449 C 0.45471 0.28075 0.61025 0.0
C2450 C 0.46868 0.29619 0.60722 0.0
H2451 H 0.43703 0.26454 0.6315 0.0
H2452 H 0.44655 0.27455 0.5977 0.0
C2453 C 0.47885 0.30408 0.62375 0.0
C2454 C 0.94895 0.72887 0.87437 0.0
C2455 C 0.95717 0.71889 0.85788 0.0
H2456 H 0.94613 0.72942 0.90627 0.0
C2457 C 0.97274 0.70508 0.86104 0.0
H2458 H 0.93674 0.73932 0.8724 0.0
C2459 C 0.97842 0.69968 0.88044 0.0
C2460 C 0.96825 0.70769 0.89692 0.0
H2461 H 0.97918 0.69706 0.84853 0.0
H2462 H 0.98899 0.68756 0.8824 0.0
C2463 C 0.9543 0.72314 0.89377 0.0
C2464 C 0.05432 0.72864 0.1303 0.0
C2465 C 0.04623 0.71853 0.14678 0.0
H2466 H 0.05702 0.72934 0.0984 0.0
C2467 C 0.03075 0.70464 0.14362 0.0
H2468 H 0.06647 0.73917 0.13228 0.0
C2469 C 0.02503 0.69928 0.12421 0.0
C2470 C 0.03508 0.70743 0.10773 0.0
H2471 H 0.0244 0.69651 0.15612 0.0
H2472 H 0.01454 0.6871 0.12224 0.0
C2473 C 0.04894 0.72295 0.1109 0.0
C2474 C 0.45506 0.78104 0.11057 0.0
C2475 C 0.46889 0.79659 0.10742 0.0
H2476 H 0.43756 0.76478 0.13194 0.0
C2477 C 0.47892 0.80475 0.1239 0.0
H2478 H 0.447 0.77464 0.09807 0.0
C2479 C 0.47321 0.79938 0.1433 0.0
C2480 C 0.45775 0.78545 0.14645 0.0
H2481 H 0.48939 0.81695 0.12193 0.0
H2482 H 0.47954 0.8075 0.1558 0.0
C2483 C 0.44969 0.77533 0.12997 0.0
C2484 C 0.44891 0.22929 0.87375 0.0
C2485 C 0.45716 0.21943 0.8572 0.0
H2486 H 0.44611 0.22965 0.90565 0.0
C2487 C 0.47277 0.20566 0.86028 0.0
H2488 H 0.43666 0.2397 0.87184 0.0
C2489 C 0.47848 0.20016 0.87964 0.0
C2490 C 0.4683 0.20805 0.89617 0.0
H2491 H 0.47923 0.19772 0.84772 0.0
H2492 H 0.48909 0.18807 0.88153 0.0
C2493 C 0.45429 0.22346 0.89312 0.0
C2494 C 0.55479 0.2752 0.37402 0.0
C2495 C 0.54659 0.28525 0.35756 0.0
H2496 H 0.55761 0.27454 0.40591 0.0
C2497 C 0.53109 0.29912 0.36076 0.0
H2498 H 0.56696 0.2647 0.372 0.0
C2499 C 0.52544 0.30449 0.38018 0.0
C2500 C 0.53557 0.29638 0.39664 0.0
H2501 H 0.52467 0.3072 0.34828 0.0
H2502 H 0.51491 0.31663 0.38219 0.0
C2503 C 0.54947 0.2809 0.39343 0.0
C2504 C 0.13034 0.05443 0.72885 0.0
C2505 C 0.14682 0.04639 0.71871 0.0
H2506 H 0.09842 0.05705 0.72959 0.0
C2507 C 0.14368 0.03091 0.7048 0.0
H2508 H 0.1323 0.06657 0.73938 0.0
C2509 C 0.12429 0.02515 0.69946 0.0
C2510 C 0.10779 0.03515 0.70765 0.0
H2511 H 0.15619 0.0246 0.69666 0.0
H2512 H 0.12232 0.01467 0.68728 0.0
C2513 C 0.11094 0.04901 0.72317 0.0
C2514 C 0.72833 0.87379 0.94943 0.0
C2515 C 0.71823 0.85733 0.95756 0.0
H2516 H 0.72902 0.90568 0.94663 0.0
C2517 C 0.70432 0.86053 0.97302 0.0
H2518 H 0.73887 0.87178 0.93729 0.0
C2519 C 0.69894 0.87994 0.97868 0.0
C2520 C 0.70709 0.8964 0.96859 0.0
H2521 H 0.6962 0.84804 0.9794 0.0
H2522 H 0.68675 0.88194 0.98916 0.0
C2523 C 0.72262 0.8932 0.95475 0.0
C2524 C 0.87355 0.44976 0.22843 0.0
C2525 C 0.85708 0.45776 0.21824 0.0
H2526 H 0.90546 0.44714 0.22924 0.0
C2527 C 0.86024 0.47319 0.20428 0.0
H2528 H 0.87157 0.43766 0.23902 0.0
C2529 C 0.87965 0.47892 0.19895 0.0
C2530 C 0.89613 0.46895 0.2072 0.0
H2531 H 0.84775 0.47947 0.1961 0.0
H2532 H 0.88163 0.48936 0.18672 0.0
C2533 C 0.89296 0.45516 0.22277 0.0
C2534 C 0.27561 0.63063 0.44952 0.0
C2535 C 0.28574 0.6471 0.45759 0.0
H2536 H 0.27489 0.59872 0.44684 0.0
C2537 C 0.29966 0.64394 0.47306 0.0
H2538 H 0.26507 0.6326 0.43739 0.0
C2539 C 0.30502 0.62453 0.47877 0.0
C2540 C 0.29684 0.60805 0.46874 0.0
H2541 H 0.30779 0.65644 0.47939 0.0
H2542 H 0.31721 0.62255 0.48925 0.0
C2543 C 0.2813 0.61122 0.45491 0.0
C2544 C 0.12389 0.97871 0.30439 0.0
C2545 C 0.10741 0.96856 0.29637 0.0
H2546 H 0.15579 0.97948 0.30702 0.0
C2547 C 0.11055 0.95462 0.28092 0.0
H2548 H 0.12192 0.98928 0.31651 0.0
C2549 C 0.12995 0.94927 0.27518 0.0
C2550 C 0.14644 0.95748 0.28517 0.0
H2551 H 0.09805 0.94646 0.27463 0.0
H2552 H 0.13193 0.93707 0.26472 0.0
C2553 C 0.14329 0.97304 0.29898 0.0
C2554 C 0.77527 0.87419 0.55498 0.0
C2555 C 0.78529 0.85771 0.54681 0.0
H2556 H 0.77466 0.9061 0.55774 0.0
C2557 C 0.79914 0.86086 0.53128 0.0
H2558 H 0.76478 0.87222 0.56716 0.0
C2559 C 0.80453 0.88026 0.52558 0.0
C2560 C 0.79646 0.89674 0.53569 0.0
H2561 H 0.80721 0.84835 0.52488 0.0
H2562 H 0.81667 0.88222 0.51504 0.0
C2563 C 0.78099 0.89359 0.54961 0.0
C2564 C 0.86105 0.53102 0.79938 0.0
C2565 C 0.85785 0.54651 0.78549 0.0
H2566 H 0.88247 0.51484 0.81689 0.0
C2567 C 0.87431 0.55465 0.77539 0.0
H2568 H 0.84856 0.52464 0.80749 0.0
C2569 C 0.89373 0.5493 0.78107 0.0
C2570 C 0.89692 0.53544 0.79657 0.0
H2571 H 0.87231 0.5668 0.76487 0.0
H2572 H 0.90621 0.55742 0.77468 0.0
C2573 C 0.88046 0.52534 0.80472 0.0
C2574 C 0.20459 0.64362 0.03119 0.0
C2575 C 0.21846 0.64675 0.0467 0.0
H2576 H 0.18707 0.62228 0.01492 0.0
C2577 C 0.22853 0.63026 0.0548 0.0
H2578 H 0.1965 0.65614 0.02484 0.0
C2579 C 0.22284 0.61086 0.04939 0.0
C2580 C 0.20735 0.60773 0.03549 0.0
H2581 H 0.23904 0.63221 0.06697 0.0
H2582 H 0.2292 0.59835 0.05746 0.0
C2583 C 0.19922 0.62423 0.02545 0.0
C2584 C 0.20439 0.36065 0.97335 0.0
C2585 C 0.21832 0.35742 0.95791 0.0
H2586 H 0.18687 0.38212 0.98946 0.0
C2587 C 0.22847 0.37385 0.94978 0.0
H2588 H 0.19624 0.34819 0.97973 0.0
C2589 C 0.2228 0.39329 0.9551 0.0
C2590 C 0.20727 0.39652 0.96892 0.0
H2591 H 0.23902 0.37182 0.93766 0.0
H2592 H 0.22924 0.40575 0.94699 0.0
C2593 C 0.19906 0.38009 0.979 0.0
C2594 C 0.38028 0.97857 0.19981 0.0
C2595 C 0.39677 0.96843 0.20783 0.0
H2596 H 0.34837 0.97931 0.19718 0.0
C2597 C 0.39363 0.95449 0.22328 0.0
H2598 H 0.38224 0.98914 0.18769 0.0
C2599 C 0.37423 0.94913 0.22902 0.0
C2600 C 0.35774 0.95733 0.21903 0.0
H2601 H 0.40613 0.94634 0.22958 0.0
H2602 H 0.37227 0.93692 0.23949 0.0
C2603 C 0.36088 0.97288 0.20521 0.0
C2604 C 0.77552 0.13011 0.44947 0.0
C2605 C 0.78559 0.1466 0.4576 0.0
H2606 H 0.77486 0.09821 0.44676 0.0
C2607 C 0.79947 0.14344 0.4731 0.0
H2608 H 0.76502 0.13209 0.43731 0.0
C2609 C 0.80484 0.12404 0.47881 0.0
C2610 C 0.79672 0.10755 0.46874 0.0
H2611 H 0.80756 0.15594 0.47947 0.0
H2612 H 0.817 0.12207 0.48933 0.0
C2613 C 0.78123 0.11071 0.45486 0.0
C2614 C 0.61102 0.54906 0.72282 0.0
C2615 C 0.60788 0.53518 0.70731 0.0
H2616 H 0.63238 0.56656 0.73909 0.0
C2617 C 0.62436 0.52507 0.69923 0.0
H2618 H 0.59851 0.55718 0.72915 0.0
C2619 C 0.64376 0.53075 0.70466 0.0
C2620 C 0.64691 0.54624 0.71854 0.0
H2621 H 0.6224 0.51457 0.68707 0.0
H2622 H 0.65627 0.52436 0.69659 0.0
C2623 C 0.63042 0.55439 0.72858 0.0
C2624 C 0.54968 0.72282 0.61057 0.0
C2625 C 0.53582 0.70731 0.60734 0.0
H2626 H 0.56716 0.73898 0.63203 0.0
C2627 C 0.52574 0.69911 0.62378 0.0
H2628 H 0.55778 0.72924 0.5981 0.0
C2629 C 0.53142 0.70441 0.64321 0.0
C2630 C 0.54689 0.71831 0.64644 0.0
H2631 H 0.51525 0.68694 0.62175 0.0
H2632 H 0.52505 0.69626 0.65567 0.0
C2633 C 0.55502 0.72846 0.63 0.0
C2634 C 0.02513 0.30465 0.88029 0.0
C2635 C 0.03518 0.29657 0.89681 0.0
H2636 H 0.02451 0.30726 0.84838 0.0
C2637 C 0.04903 0.28103 0.89373 0.0
H2638 H 0.01464 0.31684 0.88221 0.0
C2639 C 0.05442 0.27525 0.87435 0.0
C2640 C 0.04633 0.28528 0.85783 0.0
H2641 H 0.05711 0.2747 0.90626 0.0
H2642 H 0.06657 0.26471 0.87243 0.0
C2643 C 0.03085 0.2992 0.86091 0.0
C2644 C 0.94969 0.2288 0.37429 0.0
C2645 C 0.95779 0.21874 0.35779 0.0
H2646 H 0.94698 0.22943 0.4062 0.0
C2647 C 0.97327 0.20482 0.36093 0.0
H2648 H 0.93755 0.23934 0.37233 0.0
C2649 C 0.97898 0.19942 0.38032 0.0
C2650 C 0.96892 0.20754 0.39682 0.0
H2651 H 0.97962 0.19673 0.34841 0.0
H2652 H 0.98947 0.18724 0.38227 0.0
C2653 C 0.95507 0.22307 0.39368 0.0
C2654 C 0.05455 0.22855 0.63051 0.0
C2655 C 0.04645 0.21846 0.64698 0.0
H2656 H 0.05728 0.22923 0.5986 0.0
C2657 C 0.03096 0.20456 0.64383 0.0
H2658 H 0.06671 0.23907 0.63248 0.0
C2659 C 0.02526 0.19919 0.62442 0.0
C2660 C 0.03533 0.20733 0.60794 0.0
H2661 H 0.0246 0.19645 0.65633 0.0
H2662 H 0.01476 0.18701 0.62245 0.0
C2663 C 0.04918 0.22285 0.6111 0.0
C2664 C 0.47341 0.70452 0.36034 0.0
C2665 C 0.45797 0.71847 0.35721 0.0
H2666 H 0.48963 0.68697 0.3817 0.0
C2667 C 0.44999 0.72866 0.3737 0.0
H2668 H 0.47967 0.69633 0.34784 0.0
C2669 C 0.45543 0.723 0.39309 0.0
C2670 C 0.46924 0.70743 0.39624 0.0
H2671 H 0.43788 0.73923 0.37174 0.0
H2672 H 0.44743 0.72946 0.40561 0.0
C2673 C 0.47919 0.69919 0.37973 0.0
C2674 C 0.55438 0.77504 0.87388 0.0
C2675 C 0.54631 0.7851 0.85736 0.0
H2676 H 0.55702 0.77443 0.90579 0.0
C2677 C 0.53082 0.799 0.86045 0.0
H2678 H 0.56653 0.76451 0.87196 0.0
C2679 C 0.52507 0.80442 0.87983 0.0
C2680 C 0.53509 0.79631 0.89635 0.0
H2681 H 0.5245 0.80708 0.84792 0.0
H2682 H 0.51457 0.8166 0.88175 0.0
C2683 C 0.54896 0.78079 0.89326 0.0
C2684 C 0.62364 0.47854 0.30445 0.0
C2685 C 0.60716 0.46842 0.29639 0.0
H2686 H 0.65555 0.47926 0.30709 0.0
C2687 C 0.6103 0.45452 0.2809 0.0
H2688 H 0.62168 0.48906 0.3166 0.0
C2689 C 0.6297 0.44918 0.27515 0.0
C2690 C 0.64619 0.45735 0.28517 0.0
H2691 H 0.5978 0.4464 0.27457 0.0
H2692 H 0.63167 0.43701 0.26465 0.0
C2693 C 0.64304 0.47286 0.29903 0.0
C2694 C 0.29903 0.36084 0.53057 0.0
C2695 C 0.28516 0.35769 0.54608 0.0
H2696 H 0.31666 0.38218 0.51441 0.0
C2697 C 0.27523 0.3742 0.55433 0.0
H2698 H 0.30703 0.34832 0.52411 0.0
C2699 C 0.28106 0.39359 0.54905 0.0
C2700 C 0.29654 0.39672 0.53513 0.0
H2701 H 0.26474 0.37223 0.56651 0.0
H2702 H 0.27479 0.40609 0.55722 0.0
C2703 C 0.30452 0.38024 0.52495 0.0
C2704 C 0.38024 0.02551 0.8044 0.0
C2705 C 0.39672 0.03551 0.79619 0.0
H2706 H 0.34835 0.02498 0.80727 0.0
C2707 C 0.39355 0.04936 0.78067 0.0
H2708 H 0.38223 0.01502 0.81658 0.0
C2709 C 0.37414 0.05481 0.77504 0.0
C2710 C 0.35768 0.04677 0.78522 0.0
H2711 H 0.40605 0.0574 0.77423 0.0
H2712 H 0.37217 0.06696 0.76452 0.0
C2713 C 0.36084 0.03128 0.7991 0.0
C2714 C 0.7043 0.14337 0.03061 0.0
C2715 C 0.71824 0.1465 0.04606 0.0
H2716 H 0.6867 0.12204 0.01442 0.0
C2717 C 0.72836 0.13 0.0541 0.0
H2718 H 0.69617 0.15589 0.02431 0.0
C2719 C 0.72265 0.11061 0.04869 0.0
C2720 C 0.70709 0.10748 0.03488 0.0
H2721 H 0.73892 0.13195 0.06622 0.0
H2722 H 0.72905 0.09809 0.05674 0.0
C2723 C 0.69892 0.12398 0.02487 0.0
C2724 C 0.95468 0.28107 0.11095 0.0
C2725 C 0.96854 0.29658 0.10777 0.0
H2726 H 0.93714 0.26488 0.13234 0.0
C2727 C 0.97858 0.30477 0.12424 0.0
H2728 H 0.94661 0.27466 0.09845 0.0
C2729 C 0.97286 0.29943 0.14365 0.0
C2730 C 0.95738 0.28554 0.14682 0.0
H2731 H 0.98908 0.31694 0.12224 0.0
H2732 H 0.9792 0.30757 0.15613 0.0
C2733 C 0.94929 0.27541 0.13036 0.0
C2734 C 0.97286 0.7989 0.64334 0.0
C2735 C 0.95731 0.78507 0.64652 0.0
H2736 H 0.98909 0.81641 0.62196 0.0
C2737 C 0.9491 0.77507 0.63003 0.0
H2738 H 0.9793 0.80694 0.65585 0.0
C2739 C 0.95444 0.7808 0.61063 0.0
C2740 C 0.96838 0.79625 0.60746 0.0
H2741 H 0.9369 0.76461 0.63202 0.0
H2742 H 0.94628 0.7745 0.59814 0.0
C2743 C 0.97853 0.80429 0.62394 0.0
C2744 C 0.6239 0.97831 0.80432 0.0
C2745 C 0.60743 0.96822 0.79618 0.0
H2746 H 0.65579 0.97898 0.80712 0.0
C2747 C 0.61062 0.9543 0.78073 0.0
H2748 H 0.62189 0.98886 0.81644 0.0
C2749 C 0.63004 0.9489 0.77509 0.0
C2750 C 0.6465 0.95705 0.78518 0.0
H2751 H 0.59813 0.94619 0.77436 0.0
H2752 H 0.63203 0.93671 0.76462 0.0
C2753 C 0.64331 0.97259 0.79901 0.0
C2754 C 0.29926 0.86077 0.03133 0.0
C2755 C 0.28541 0.85762 0.04686 0.0
H2756 H 0.31679 0.88213 0.01509 0.0
C2757 C 0.27539 0.87411 0.05503 0.0
H2758 H 0.30732 0.84826 0.02493 0.0
C2759 C 0.28111 0.89351 0.04966 0.0
C2760 C 0.29658 0.89666 0.03574 0.0
H2761 H 0.2649 0.87214 0.06722 0.0
H2762 H 0.27478 0.90602 0.05778 0.0
C2763 C 0.30465 0.88017 0.02563 0.0
C2764 C 0.37378 0.55478 0.27543 0.0
C2765 C 0.35731 0.54668 0.28554 0.0
H2766 H 0.40568 0.55746 0.27468 0.0
C2767 C 0.36049 0.53119 0.29944 0.0
H2768 H 0.37179 0.56693 0.2649 0.0
C2769 C 0.3799 0.52547 0.30477 0.0
C2770 C 0.39637 0.53551 0.29659 0.0
H2771 H 0.34799 0.52484 0.30757 0.0
H2772 H 0.38189 0.51496 0.31693 0.0
C2773 C 0.39319 0.54939 0.28109 0.0
C2774 C 0.70516 0.6433 0.53099 0.0
C2775 C 0.71904 0.64643 0.5465 0.0
H2776 H 0.68764 0.62196 0.51472 0.0
C2777 C 0.72914 0.62993 0.55456 0.0
H2778 H 0.69704 0.65581 0.52467 0.0
C2779 C 0.72346 0.61054 0.54913 0.0
C2780 C 0.70795 0.60741 0.53525 0.0
H2781 H 0.73965 0.63189 0.56673 0.0
H2782 H 0.72984 0.59802 0.55719 0.0
C2783 C 0.69981 0.62391 0.52523 0.0
C2784 C 0.99315 0.49614 0.18599 0.0
C2785 C 0.98419 0.49034 0.16791 0.0
H2786 H 0.01693 0.51215 0.20022 0.0
C2787 C 0.99303 0.49632 0.1498 0.0
H2788 H 0.98662 0.49187 0.20019 0.0
C2789 C 0.01068 0.50765 0.14983 0.0
C2790 C 0.01946 0.51365 0.16796 0.0
H2791 H 0.98644 0.49205 0.13564 0.0
H2792 H 0.01732 0.5119 0.13568 0.0
C2793 C 0.01044 0.50787 0.18602 0.0
C2794 C 0.74651 0.26078 0.3998 0.0
C2795 C 0.74042 0.26959 0.41789 0.0
H2796 H 0.76228 0.23658 0.38575 0.0
C2797 C 0.74624 0.26069 0.43599 0.0
H2798 H 0.74224 0.26734 0.38563 0.0
C2799 C 0.75807 0.24347 0.43606 0.0
C2800 C 0.76396 0.23448 0.41803 0.0
H2801 H 0.74189 0.26721 0.45017 0.0
H2802 H 0.76235 0.23702 0.45029 0.0
C2803 C 0.75795 0.24321 0.39987 0.0
C2804 C 0.99369 0.99571 0.68633 0.0
C2805 C 0.9847 0.98993 0.66825 0.0
H2806 H 0.01744 0.01178 0.70054 0.0
C2807 C 0.99347 0.99601 0.65014 0.0
H2808 H 0.98721 0.99137 0.70052 0.0
C2809 C 0.01106 0.00742 0.65015 0.0
C2810 C 0.01986 0.0134 0.66827 0.0
H2811 H 0.98685 0.99176 0.63599 0.0
H2812 H 0.01765 0.01174 0.636 0.0
C2813 C 0.01093 0.00752 0.68634 0.0
C2814 C 0.24606 0.26069 0.90046 0.0
C2815 C 0.24003 0.26942 0.9186 0.0
H2816 H 0.26182 0.23658 0.88623 0.0
C2817 C 0.24592 0.26044 0.93665 0.0
H2818 H 0.24173 0.2673 0.88632 0.0
C2819 C 0.25779 0.24325 0.93659 0.0
C2820 C 0.26363 0.23435 0.91849 0.0
H2821 H 0.24161 0.2669 0.95086 0.0
H2822 H 0.26214 0.23674 0.95077 0.0
C2823 C 0.25753 0.24313 0.9004 0.0
C2824 C 0.01116 0.49637 0.85403 0.0
C2825 C 0.0199 0.49033 0.8359 0.0
H2826 H 0.98702 0.51212 0.86823 0.0
C2827 C 0.01094 0.49623 0.81784 0.0
H2828 H 0.01775 0.49204 0.86817 0.0
C2829 C 0.99374 0.50809 0.81788 0.0
C2830 C 0.98482 0.51392 0.83597 0.0
H2831 H 0.01741 0.49192 0.80363 0.0
H2832 H 0.98725 0.51243 0.80369 0.0
C2833 C 0.9936 0.50784 0.85407 0.0
C2834 C 0.75751 0.26054 0.10395 0.0
C2835 C 0.76359 0.26935 0.08586 0.0
H2836 H 0.74174 0.23635 0.11802 0.0
C2837 C 0.75774 0.26046 0.06776 0.0
H2838 H 0.76181 0.26709 0.11812 0.0
C2839 C 0.74588 0.24326 0.0677 0.0
C2840 C 0.74001 0.23426 0.08574 0.0
H2841 H 0.76207 0.26698 0.05358 0.0
H2842 H 0.74157 0.23681 0.05348 0.0
C2843 C 0.74605 0.24298 0.10389 0.0
C2844 C 0.99327 0.00783 0.35405 0.0
C2845 C 0.9845 0.01388 0.33594 0.0
H2846 H 0.01744 0.99207 0.36819 0.0
C2847 C 0.99343 0.00802 0.31786 0.0
H2848 H 0.98669 0.01213 0.3682 0.0
C2849 C 0.01064 0.99617 0.31785 0.0
C2850 C 0.0196 0.99032 0.33592 0.0
H2851 H 0.98694 0.01234 0.30366 0.0
H2852 H 0.01712 0.99186 0.30365 0.0
C2853 C 0.01084 0.99637 0.35404 0.0
C2854 C 0.2461 0.2434 0.60387 0.0
C2855 C 0.24002 0.23455 0.58581 0.0
H2856 H 0.26182 0.26767 0.61787 0.0
C2857 C 0.24578 0.24345 0.56768 0.0
H2858 H 0.24188 0.23685 0.61806 0.0
C2859 C 0.25756 0.2607 0.56757 0.0
C2860 C 0.26344 0.26973 0.58559 0.0
H2861 H 0.24144 0.23689 0.55352 0.0
H2862 H 0.26181 0.26715 0.55333 0.0
C2863 C 0.25749 0.26101 0.60376 0.0
C2864 C 0.14987 0.01088 0.50784 0.0
C2865 C 0.168 0.01964 0.51385 0.0
H2866 H 0.13568 0.98672 0.49211 0.0
C2867 C 0.18606 0.01069 0.50795 0.0
H2868 H 0.13573 0.01747 0.51217 0.0
C2869 C 0.18603 0.99349 0.4961 0.0
C2870 C 0.16795 0.98455 0.49029 0.0
H2871 H 0.20027 0.01718 0.51223 0.0
H2872 H 0.20022 0.987 0.49175 0.0
C2873 C 0.14984 0.99331 0.49638 0.0
C2874 C 0.2608 0.39982 0.74584 0.0
C2875 C 0.26953 0.418 0.73993 0.0
H2876 H 0.23675 0.38549 0.76161 0.0
C2877 C 0.26065 0.43601 0.74608 0.0
H2878 H 0.26735 0.38572 0.74131 0.0
C2879 C 0.24353 0.43587 0.75807 0.0
C2880 C 0.23461 0.41774 0.76377 0.0
H2881 H 0.26711 0.45025 0.74188 0.0
H2882 H 0.23709 0.45002 0.7626 0.0
C2883 C 0.24333 0.39969 0.75744 0.0
C2884 C 0.85395 0.49288 0.00749 0.0
C2885 C 0.83582 0.48408 0.01346 0.0
H2886 H 0.86813 0.51711 0.99186 0.0
C2887 C 0.81776 0.49301 0.00756 0.0
H2888 H 0.8681 0.4863 0.01183 0.0
C2889 C 0.81778 0.51026 0.99576 0.0
C2890 C 0.83586 0.51924 0.99001 0.0
H2891 H 0.80355 0.4865 0.01181 0.0
H2892 H 0.80359 0.51673 0.99141 0.0
C2893 C 0.85397 0.51048 0.99609 0.0
C2894 C 0.76102 0.1044 0.25752 0.0
C2895 C 0.76979 0.0863 0.26362 0.0
H2896 H 0.73685 0.11851 0.24174 0.0
C2897 C 0.76084 0.06821 0.25781 0.0
H2898 H 0.76761 0.11856 0.26178 0.0
C2899 C 0.74362 0.06818 0.24598 0.0
C2900 C 0.73467 0.08624 0.24008 0.0
H2901 H 0.76732 0.05402 0.26217 0.0
H2902 H 0.73713 0.05397 0.2417 0.0
C2903 C 0.74344 0.10437 0.24607 0.0
C2904 C 0.50754 0.15011 0.01036 0.0
C2905 C 0.51347 0.16821 0.01924 0.0
H2906 H 0.49201 0.13602 0.98602 0.0
C2907 C 0.50764 0.1863 0.01032 0.0
H2908 H 0.51182 0.13595 0.01693 0.0
C2909 C 0.49594 0.18634 0.99302 0.0
C2910 C 0.4902 0.16829 0.98395 0.0
H2911 H 0.51188 0.20049 0.01689 0.0
H2912 H 0.49163 0.20056 0.98655 0.0
C2913 C 0.49623 0.15015 0.9927 0.0
C2914 C 0.99611 0.854 0.5109 0.0
C2915 C 0.99006 0.83586 0.51962 0.0
H2916 H 0.01185 0.86822 0.48676 0.0
C2917 C 0.99589 0.81781 0.51062 0.0
H2918 H 0.99183 0.86814 0.51754 0.0
C2919 C 0.00772 0.81786 0.4934 0.0
C2920 C 0.01358 0.83595 0.4845 0.0
H2921 H 0.99158 0.8036 0.51707 0.0
H2922 H 0.01203 0.80367 0.48687 0.0
C2923 C 0.00754 0.85405 0.49332 0.0
C2924 C 0.39943 0.24678 0.7604 0.0
C2925 C 0.41757 0.24094 0.76928 0.0
H2926 H 0.38526 0.26218 0.73601 0.0
C2927 C 0.43562 0.24687 0.76036 0.0
H2928 H 0.38529 0.24241 0.76697 0.0
C2929 C 0.4356 0.25855 0.74304 0.0
C2930 C 0.41752 0.26416 0.73395 0.0
H2931 H 0.44983 0.24272 0.76693 0.0
H2932 H 0.44979 0.26291 0.73657 0.0
C2933 C 0.39941 0.25806 0.74271 0.0
C2934 C 0.00756 0.68614 0.01092 0.0
C2935 C 0.01345 0.66806 0.01983 0.0
H2936 H 0.99139 0.70035 0.98724 0.0
C2937 C 0.00746 0.64994 0.01102 0.0
H2938 H 0.01183 0.70033 0.01744 0.0
C2939 C 0.99603 0.64996 0.99344 0.0
C2940 C 0.98994 0.66808 0.98471 0.0
H2941 H 0.01179 0.63579 0.01758 0.0
H2942 H 0.99177 0.63581 0.98681 0.0
C2943 C 0.99573 0.68615 0.9937 0.0
C2944 C 0.10394 0.75766 0.26091 0.0
C2945 C 0.08583 0.76371 0.26971 0.0
H2946 H 0.11806 0.74192 0.23673 0.0
C2947 C 0.06775 0.75783 0.2608 0.0
H2948 H 0.1181 0.76198 0.26747 0.0
C2949 C 0.06772 0.74598 0.2436 0.0
C2950 C 0.08578 0.74014 0.23461 0.0
H2951 H 0.05356 0.76214 0.26731 0.0
H2952 H 0.05351 0.74166 0.23714 0.0
C2953 C 0.10391 0.74621 0.24335 0.0
C2954 C 0.49594 0.81794 0.0105 0.0
C2955 C 0.49016 0.83603 0.01946 0.0
H2956 H 0.51193 0.80369 0.98672 0.0
C2957 C 0.49617 0.85413 0.01062 0.0
H2958 H 0.49166 0.80375 0.01703 0.0
C2959 C 0.5075 0.8541 0.99297 0.0
C2960 C 0.51347 0.83596 0.98419 0.0
H2961 H 0.49192 0.86829 0.01722 0.0
H2962 H 0.51177 0.86823 0.98633 0.0
C2963 C 0.50766 0.8179 0.99321 0.0
C2964 C 0.56769 0.24593 0.24329 0.0
C2965 C 0.58576 0.24018 0.23426 0.0
H2966 H 0.55351 0.26195 0.2671 0.0
C2967 C 0.60388 0.24626 0.243 0.0
H2968 H 0.55349 0.24159 0.23684 0.0
C2969 C 0.60389 0.25764 0.26062 0.0
C2970 C 0.58578 0.26359 0.26947 0.0
H2971 H 0.61803 0.24204 0.23635 0.0
H2972 H 0.61805 0.26196 0.26719 0.0
C2973 C 0.5677 0.25771 0.26056 0.0
C2974 C 0.74595 0.76055 0.9001 0.0
C2975 C 0.73991 0.76932 0.91822 0.0
H2976 H 0.76163 0.73636 0.88593 0.0
C2977 C 0.7457 0.76032 0.93629 0.0
H2978 H 0.74169 0.76718 0.88595 0.0
C2979 C 0.75748 0.74306 0.93628 0.0
C2980 C 0.76333 0.73412 0.9182 0.0
H2981 H 0.74138 0.76679 0.95049 0.0
H2982 H 0.76175 0.73654 0.95047 0.0
C2983 C 0.75733 0.74294 0.90009 0.0
C2984 C 0.24646 0.76115 0.3999 0.0
C2985 C 0.24041 0.76991 0.41802 0.0
H2986 H 0.26225 0.73701 0.38575 0.0
C2987 C 0.24632 0.761 0.43609 0.0
H2988 H 0.24212 0.76771 0.38575 0.0
C2989 C 0.25821 0.74383 0.43609 0.0
C2990 C 0.26406 0.73488 0.41802 0.0
H2991 H 0.242 0.76749 0.45029 0.0
H2992 H 0.26257 0.73737 0.45029 0.0
C2993 C 0.25796 0.74361 0.3999 0.0
C2994 C 0.75777 0.76082 0.60422 0.0
C2995 C 0.76373 0.76967 0.58611 0.0
H2996 H 0.74224 0.7365 0.61834 0.0
C2997 C 0.75794 0.76071 0.56803 0.0
H2998 H 0.76203 0.76742 0.61838 0.0
C2999 C 0.74624 0.7434 0.56801 0.0
C3000 C 0.74049 0.73436 0.58607 0.0
H3001 H 0.76219 0.76725 0.55384 0.0
H3002 H 0.74197 0.7369 0.5538 0.0
C3003 C 0.74647 0.74315 0.6042 0.0
C3004 C 0.24621 0.74334 0.10435 0.0
C3005 C 0.24013 0.73459 0.08623 0.0
H3006 H 0.26199 0.76748 0.1185 0.0
C3007 C 0.24596 0.74355 0.06816 0.0
H3008 H 0.24193 0.73673 0.1185 0.0
C3009 C 0.25781 0.76076 0.06816 0.0
C3010 C 0.2637 0.76969 0.08623 0.0
H3011 H 0.24162 0.73709 0.05396 0.0
H3012 H 0.26211 0.76726 0.05396 0.0
C3013 C 0.25767 0.7609 0.10435 0.0
C3014 C 0.18606 0.49359 0.99604 0.0
C3015 C 0.16799 0.48462 0.99021 0.0
H3016 H 0.20026 0.51733 0.01213 0.0
C3017 C 0.14987 0.49342 0.99621 0.0
H3018 H 0.20026 0.48708 0.99175 0.0
C3019 C 0.14987 0.51103 0.00761 0.0
C3020 C 0.16798 0.51981 0.01364 0.0
H3021 H 0.13572 0.48682 0.99193 0.0
H3022 H 0.13571 0.51763 0.01188 0.0
C3023 C 0.18606 0.51084 0.00782 0.0
C3024 C 0.26091 0.89986 0.24652 0.0
C3025 C 0.26974 0.91797 0.24053 0.0
H3026 H 0.23661 0.88573 0.26209 0.0
C3027 C 0.26077 0.93605 0.24632 0.0
H3028 H 0.26751 0.8857 0.24227 0.0
C3029 C 0.24346 0.93607 0.25803 0.0
C3030 C 0.23445 0.91801 0.26382 0.0
H3031 H 0.26729 0.95024 0.24205 0.0
H3032 H 0.23697 0.95028 0.2623 0.0
C3033 C 0.24325 0.89988 0.25784 0.0
C3034 C 0.85422 0.01085 0.49644 0.0
C3035 C 0.83612 0.01965 0.4904 0.0
H3036 H 0.86834 0.98666 0.51218 0.0
C3037 C 0.81803 0.01074 0.49627 0.0
H3038 H 0.86838 0.01742 0.49213 0.0
C3039 C 0.81801 0.99353 0.50812 0.0
C3040 C 0.83607 0.98454 0.51396 0.0
H3041 H 0.80384 0.01725 0.49197 0.0
H3042 H 0.8038 0.98707 0.51244 0.0
C3043 C 0.8542 0.99328 0.50789 0.0
C3044 C 0.74375 0.56766 0.74608 0.0
C3045 C 0.73477 0.58573 0.74025 0.0
H3046 H 0.76748 0.55349 0.7622 0.0
C3047 C 0.74351 0.60386 0.74631 0.0
H3048 H 0.73728 0.55346 0.74176 0.0
C3049 C 0.76109 0.60387 0.75774 0.0
C3050 C 0.76989 0.58576 0.76377 0.0
H3051 H 0.73689 0.618 0.74203 0.0
H3052 H 0.76766 0.61803 0.76205 0.0
C3053 C 0.76097 0.56768 0.75791 0.0
C3054 C 0.49673 0.68612 0.49312 0.0
C3055 C 0.49086 0.66805 0.48417 0.0
H3056 H 0.51285 0.7003 0.51685 0.0
C3057 C 0.49686 0.64993 0.49295 0.0
H3058 H 0.49245 0.70032 0.48662 0.0
C3059 C 0.50827 0.64991 0.51055 0.0
C3060 C 0.51433 0.66802 0.51933 0.0
H3061 H 0.49255 0.63578 0.48636 0.0
H3062 H 0.51254 0.63576 0.51716 0.0
C3063 C 0.50853 0.6861 0.51036 0.0
C3064 C 0.996 0.31797 0.01083 0.0
C3065 C 0.99011 0.33602 0.01979 0.0
H3066 H 0.01213 0.30383 0.98708 0.0
C3067 C 0.99606 0.35416 0.011 0.0
H3068 H 0.99176 0.30375 0.01733 0.0
C3069 C 0.00744 0.3542 0.99339 0.0
C3070 C 0.01354 0.3361 0.9846 0.0
H3071 H 0.99172 0.36829 0.0176 0.0
H3072 H 0.01167 0.36837 0.98678 0.0
C3073 C 0.00778 0.31801 0.99357 0.0
C3074 C 0.43642 0.75777 0.24323 0.0
C3075 C 0.41835 0.76366 0.23431 0.0
H3076 H 0.45063 0.74161 0.26692 0.0
C3077 C 0.40023 0.75766 0.24311 0.0
H3078 H 0.45062 0.76205 0.23671 0.0
C3079 C 0.40023 0.74624 0.2607 0.0
C3080 C 0.41835 0.74016 0.26944 0.0
H3081 H 0.38608 0.76198 0.23654 0.0
H3082 H 0.38608 0.74198 0.26732 0.0
C3083 C 0.43643 0.74595 0.26045 0.0
C3084 C 0.99628 0.18606 0.49373 0.0
C3085 C 0.99048 0.168 0.48473 0.0
H3086 H 0.01231 0.20023 0.51753 0.0
C3087 C 0.99648 0.14987 0.49351 0.0
H3088 H 0.99201 0.20027 0.48724 0.0
C3089 C 0.00783 0.14985 0.51115 0.0
C3090 C 0.01383 0.16796 0.51997 0.0
H3091 H 0.99221 0.13573 0.48688 0.0
H3092 H 0.01209 0.13569 0.51775 0.0
C3093 C 0.00803 0.18604 0.51101 0.0
C3094 C 0.06788 0.24575 0.74385 0.0
C3095 C 0.08596 0.23995 0.73488 0.0
H3096 H 0.05367 0.26182 0.7676 0.0
C3097 C 0.10407 0.24598 0.74367 0.0
H3098 H 0.05368 0.24145 0.73735 0.0
C3099 C 0.10406 0.25737 0.76128 0.0
C3100 C 0.08594 0.26338 0.77006 0.0
H3101 H 0.11823 0.24172 0.73706 0.0
H3102 H 0.11821 0.26166 0.76789 0.0
C3103 C 0.06787 0.25754 0.7611 0.0
C3104 C 0.49606 0.31785 0.51065 0.0
C3105 C 0.49031 0.33595 0.51961 0.0
H3106 H 0.51216 0.30359 0.48694 0.0
C3107 C 0.49647 0.35404 0.51087 0.0
H3108 H 0.49167 0.30367 0.51712 0.0
C3109 C 0.50792 0.354 0.49331 0.0
C3110 C 0.51387 0.33586 0.48452 0.0
H3111 H 0.49225 0.36821 0.51748 0.0
H3112 H 0.51231 0.36813 0.48673 0.0
C3113 C 0.50792 0.31781 0.49344 0.0
C3114 C 0.56796 0.75743 0.76061 0.0
C3115 C 0.58601 0.76328 0.76961 0.0
H3116 H 0.55383 0.74132 0.73684 0.0
C3117 C 0.60415 0.75726 0.76088 0.0
H3118 H 0.55374 0.76172 0.76707 0.0
C3119 C 0.6042 0.74586 0.74328 0.0
C3120 C 0.58611 0.73982 0.73445 0.0
H3121 H 0.61828 0.76156 0.76751 0.0
H3122 H 0.61838 0.74159 0.73671 0.0
C3123 C 0.56801 0.74563 0.74337 0.0
C3124 C 0.49354 0.49642 0.68575 0.0
C3125 C 0.48462 0.49057 0.66766 0.0
H3126 H 0.51731 0.51243 0.69999 0.0
C3127 C 0.49351 0.49649 0.64956 0.0
H3128 H 0.48696 0.4922 0.69994 0.0
C3129 C 0.51118 0.5078 0.64959 0.0
C3130 C 0.51993 0.51383 0.66773 0.0
H3131 H 0.48695 0.49219 0.6354 0.0
H3132 H 0.51786 0.512 0.63545 0.0
C3133 C 0.51085 0.50812 0.68578 0.0
C3134 C 0.49354 0.99614 0.18633 0.0
C3135 C 0.48456 0.99029 0.16827 0.0
H3136 H 0.51726 0.01232 0.20048 0.0
C3137 C 0.49329 0.99635 0.15014 0.0
H3138 H 0.48708 0.99182 0.20054 0.0
C3139 C 0.51086 0.0078 0.15011 0.0
C3140 C 0.51966 0.01385 0.16821 0.0
H3141 H 0.48668 0.99205 0.136 0.0
H3142 H 0.51742 0.0121 0.13594 0.0
C3143 C 0.51075 0.008 0.1863 0.0
C3144 C 0.49308 0.50763 0.35405 0.0
C3145 C 0.48429 0.51363 0.33592 0.0
H3146 H 0.51725 0.49192 0.36823 0.0
C3147 C 0.49321 0.5077 0.31786 0.0
H3148 H 0.48651 0.51199 0.3682 0.0
C3149 C 0.51041 0.49584 0.31788 0.0
C3150 C 0.51938 0.49005 0.33596 0.0
H3151 H 0.48671 0.51197 0.30366 0.0
H3152 H 0.51687 0.49147 0.30369 0.0
C3153 C 0.51064 0.49617 0.35407 0.0
C3154 C 0.51064 0.99605 0.81748 0.0
C3155 C 0.51957 0.99016 0.83555 0.0
H3156 H 0.48699 0.0123 0.8033 0.0
C3157 C 0.51085 0.99626 0.85367 0.0
H3158 H 0.51709 0.99169 0.80328 0.0
C3159 C 0.49333 0.00778 0.85369 0.0
C3160 C 0.48457 0.01387 0.83557 0.0
H3161 H 0.51743 0.99194 0.86782 0.0
H3162 H 0.48676 0.01211 0.86784 0.0
C3163 C 0.49348 0.00797 0.8175 0.0
C3164 C 0.64951 0.99316 0.99599 0.0
C3165 C 0.66763 0.98437 0.98998 0.0
H3166 H 0.63535 0.01737 0.01166 0.0
C3167 C 0.6857 0.99335 0.99581 0.0
H3168 H 0.63536 0.98655 0.99171 0.0
C3169 C 0.68569 0.0106 0.00759 0.0
C3170 C 0.66761 0.01957 0.01341 0.0
H3171 H 0.69991 0.98686 0.99152 0.0
H3172 H 0.69989 0.0171 0.01189 0.0
C3173 C 0.6495 0.01077 0.00738 0.0
C3174 C 0.74295 0.39996 0.25741 0.0
C3175 C 0.73411 0.41806 0.2634 0.0
H3176 H 0.76719 0.38586 0.24174 0.0
C3177 C 0.743 0.43615 0.25753 0.0
H3178 H 0.7364 0.3858 0.26173 0.0
C3179 C 0.76024 0.43619 0.24572 0.0
C3180 C 0.76926 0.41813 0.23993 0.0
H3181 H 0.73646 0.45034 0.2618 0.0
H3182 H 0.76669 0.4504 0.24139 0.0
C3183 C 0.76054 0.4 0.246 0.0
C3184 C 0.31799 0.49366 0.50754 0.0
C3185 C 0.33604 0.48465 0.51335 0.0
H3186 H 0.30383 0.51751 0.49158 0.0
C3187 C 0.35418 0.49345 0.5074 0.0
H3188 H 0.30377 0.48716 0.51178 0.0
C3189 C 0.35421 0.51113 0.49611 0.0
C3190 C 0.33611 0.51997 0.49012 0.0
H3191 H 0.36832 0.48681 0.51167 0.0
H3192 H 0.36838 0.51774 0.49189 0.0
C3193 C 0.31802 0.51098 0.49586 0.0
C3194 C 0.24362 0.06802 0.74622 0.0
C3195 C 0.23462 0.08606 0.74037 0.0
H3196 H 0.2674 0.05389 0.76232 0.0
C3197 C 0.24335 0.10421 0.74638 0.0
H3198 H 0.23716 0.0538 0.74193 0.0
C3199 C 0.26096 0.10426 0.75778 0.0
C3200 C 0.26978 0.08617 0.76382 0.0
H3201 H 0.23671 0.11834 0.74208 0.0
H3202 H 0.26753 0.11843 0.76204 0.0
C3203 C 0.26087 0.06807 0.75801 0.0
C3204 C 0.90005 0.24658 0.2612 0.0
C3205 C 0.9182 0.2406 0.26994 0.0
H3206 H 0.8858 0.26222 0.23703 0.0
C3207 C 0.93624 0.24648 0.26095 0.0
H3208 H 0.88592 0.24225 0.26783 0.0
C3209 C 0.93617 0.25828 0.2437 0.0
C3210 C 0.91806 0.26406 0.23477 0.0
H3211 H 0.95046 0.24222 0.26741 0.0
H3212 H 0.95034 0.26262 0.23717 0.0
C3213 C 0.89998 0.25798 0.2436 0.0
C3214 C 0.65026 0.51078 0.50751 0.0
C3215 C 0.6684 0.51955 0.51347 0.0
H3216 H 0.63602 0.4866 0.49187 0.0
C3217 C 0.68645 0.51058 0.50755 0.0
H3218 H 0.63613 0.51739 0.51186 0.0
C3219 C 0.68639 0.49335 0.49574 0.0
C3220 C 0.66828 0.4844 0.48998 0.0
H3221 H 0.70067 0.51706 0.5118 0.0
H3222 H 0.70056 0.48684 0.49138 0.0
C3223 C 0.6502 0.49319 0.49609 0.0
C3224 C 0.74349 0.93585 0.75813 0.0
C3225 C 0.73453 0.91775 0.76388 0.0
H3226 H 0.76726 0.95012 0.74215 0.0
C3227 C 0.74337 0.89966 0.75785 0.0
H3228 H 0.73695 0.95003 0.76243 0.0
C3229 C 0.76101 0.89971 0.74652 0.0
C3230 C 0.76979 0.91786 0.74056 0.0
H3231 H 0.73677 0.88549 0.76208 0.0
H3232 H 0.76765 0.88558 0.74222 0.0
C3233 C 0.76077 0.9359 0.7464 0.0
C3234 C 0.31814 0.99341 0.00801 0.0
C3235 C 0.33619 0.98443 0.01389 0.0
H3236 H 0.304 0.01707 0.99176 0.0
C3237 C 0.35433 0.99312 0.00779 0.0
H3238 H 0.30393 0.98698 0.01236 0.0
C3239 C 0.35437 0.01065 0.99626 0.0
C3240 C 0.33627 0.01944 0.99018 0.0
H3241 H 0.36847 0.98651 0.0121 0.0
H3242 H 0.36854 0.01718 0.99193 0.0
C3243 C 0.31818 0.01057 0.99609 0.0
C3244 C 0.24324 0.56796 0.24629 0.0
C3245 C 0.23426 0.58601 0.24042 0.0
H3246 H 0.26698 0.55381 0.26243 0.0
C3247 C 0.24301 0.60415 0.24644 0.0
H3248 H 0.23677 0.55375 0.242 0.0
C3249 C 0.2606 0.60419 0.25786 0.0
C3250 C 0.2694 0.58609 0.26392 0.0
H3251 H 0.23639 0.61829 0.24213 0.0
H3252 H 0.26718 0.61835 0.26213 0.0
C3253 C 0.26047 0.568 0.25811 0.0
C3254 C 0.93597 0.7461 0.76087 0.0
C3255 C 0.91788 0.74032 0.76984 0.0
H3256 H 0.9502 0.76207 0.73707 0.0
C3257 C 0.89978 0.74632 0.76102 0.0
H3258 H 0.95016 0.74181 0.7674 0.0
C3259 C 0.8998 0.75764 0.74336 0.0
C3260 C 0.91794 0.76361 0.73457 0.0
H3261 H 0.88562 0.74207 0.76762 0.0
H3262 H 0.88566 0.76191 0.73673 0.0
C3263 C 0.93599 0.75781 0.74357 0.0
loop_
_geom_bond_atom_site_label_1
_geom_bond_atom_site_label_2
_geom_bond_distance
_geom_bond_site_symmetry_2
_ccdc_geom_bond_type
Co0 O1 2.216 . S
Co0 O2 2.091 . S
Co0 O4 2.004 . S
Co0 O10 2.021 . S
Co0 O12 2.137 . S
Co0 O13 2.244 . S
O1 Co0 2.216 . S
O1 C8 1.247 . S
O2 Co0 2.091 . S
O2 C8 1.261 . S
C3 O12 1.247 . S
C3 O13 1.272 . S
O4 Co0 2.004 . S
O4 C9 1.259 . S
Co5 O6 2.061 . S
Co5 O11 2.052 . S
Co5 O13 2.135 . S
O6 Co5 2.061 . S
O6 C9 1.235 . S
C7 O10 1.238 . S
C7 O11 1.241 . S
C8 O1 1.247 . S
C8 O2 1.261 . S
C9 O4 1.259 . S
C9 O6 1.235 . S
O10 Co0 2.021 . S
O10 C7 1.238 . S
O11 Co5 2.052 . S
O11 C7 1.241 . S
O12 Co0 2.137 . S
O12 C3 1.247 . S
O13 Co0 2.244 . S
O13 C3 1.272 . S
O13 Co5 2.135 . S
Co14 O15 2.216 . S
Co14 O16 2.091 . S
Co14 O18 2.004 . S
Co14 O24 2.021 . S
Co14 O26 2.137 . S
Co14 O27 2.244 . S
O15 Co14 2.216 . S
O15 C22 1.247 . S
O16 Co14 2.091 . S
O16 C22 1.261 . S
C17 O26 1.247 . S
C17 O27 1.272 . S
O18 Co14 2.004 . S
O18 C23 1.259 . S
Co19 O20 2.061 . S
Co19 O25 2.052 . S
Co19 O27 2.135 . S
O20 Co19 2.061 . S
O20 C23 1.235 . S
C21 O24 1.238 . S
C21 O25 1.241 . S
C22 O15 1.247 . S
C22 O16 1.261 . S
C23 O18 1.259 . S
C23 O20 1.235 . S
O24 Co14 2.021 . S
O24 C21 1.238 . S
O25 Co19 2.052 . S
O25 C21 1.241 . S
O26 Co14 2.137 . S
O26 C17 1.247 . S
O27 Co14 2.244 . S
O27 C17 1.272 . S
O27 Co19 2.135 . S
Co28 O29 2.216 . S
Co28 O30 2.091 1_565 S
Co28 O32 2.004 . S
Co28 O38 2.021 . S
Co28 O40 2.137 . S
Co28 O41 2.244 . S
O29 Co28 2.216 . S
O29 C36 1.247 . S
O30 Co28 2.091 1_545 S
O30 C36 1.261 1_545 S
C31 O40 1.247 . S
C31 O41 1.272 . S
O32 Co28 2.004 . S
O32 C37 1.259 . S
Co33 O34 2.061 . S
Co33 O39 2.052 . S
Co33 O41 2.135 . S
O34 Co33 2.061 . S
O34 C37 1.235 . S
C35 O38 1.238 . S
C35 O39 1.241 . S
C36 O29 1.247 . S
C36 O30 1.261 1_565 S
C37 O32 1.259 . S
C37 O34 1.235 . S
O38 Co28 2.021 . S
O38 C35 1.238 . S
O39 Co33 2.052 . S
O39 C35 1.241 . S
O40 Co28 2.137 . S
O40 C31 1.247 . S
O41 Co28 2.244 . S
O41 C31 1.272 . S
O41 Co33 2.135 . S
Co42 O43 2.216 . S
Co42 O44 2.091 . S
Co42 O46 2.004 . S
Co42 O52 2.021 . S
Co42 O54 2.137 . S
Co42 O55 2.244 . S
O43 Co42 2.216 . S
O43 C50 1.247 . S
O44 Co42 2.091 . S
O44 C50 1.261 . S
C45 O54 1.247 . S
C45 O55 1.272 . S
O46 Co42 2.004 . S
O46 C51 1.259 . S
Co47 O48 2.061 . S
Co47 O53 2.052 . S
Co47 O55 2.135 . S
O48 Co47 2.061 . S
O48 C51 1.235 . S
C49 O52 1.238 . S
C49 O53 1.241 . S
C50 O43 1.247 . S
C50 O44 1.261 . S
C51 O46 1.259 . S
C51 O48 1.235 . S
O52 Co42 2.021 . S
O52 C49 1.238 . S
O53 Co47 2.052 . S
O53 C49 1.241 . S
O54 Co42 2.137 . S
O54 C45 1.247 . S
O55 Co42 2.244 . S
O55 C45 1.272 . S
O55 Co47 2.135 . S
Co56 O57 2.216 . S
Co56 O58 2.091 . S
Co56 O60 2.004 . S
Co56 O66 2.021 . S
Co56 O68 2.137 . S
Co56 O69 2.244 . S
O57 Co56 2.216 . S
O57 C64 1.247 . S
O58 Co56 2.091 . S
O58 C64 1.261 . S
C59 O68 1.247 . S
C59 O69 1.272 . S
O60 Co56 2.004 . S
O60 C65 1.259 . S
Co61 O62 2.061 . S
Co61 O67 2.052 . S
Co61 O69 2.135 . S
O62 Co61 2.061 . S
O62 C65 1.235 . S
C63 O66 1.238 . S
C63 O67 1.241 . S
C64 O57 1.247 . S
C64 O58 1.261 . S
C65 O60 1.259 . S
C65 O62 1.235 . S
O66 Co56 2.021 . S
O66 C63 1.238 . S
O67 Co61 2.052 . S
O67 C63 1.241 . S
O68 Co56 2.137 . S
O68 C59 1.247 . S
O69 Co56 2.244 . S
O69 C59 1.272 . S
O69 Co61 2.135 . S
Co70 O71 2.216 . S
Co70 O72 2.091 . S
Co70 O74 2.004 . S
Co70 O80 2.021 . S
Co70 O82 2.137 . S
Co70 O83 2.244 . S
O71 Co70 2.216 . S
O71 C78 1.247 . S
O72 Co70 2.091 . S
O72 C78 1.261 . S
C73 O82 1.247 . S
C73 O83 1.272 . S
O74 Co70 2.004 . S
O74 C79 1.259 . S
Co75 O76 2.061 . S
Co75 O81 2.052 . S
Co75 O83 2.135 . S
O76 Co75 2.061 . S
O76 C79 1.235 . S
C77 O80 1.238 . S
C77 O81 1.241 . S
C78 O71 1.247 . S
C78 O72 1.261 . S
C79 O74 1.259 . S
C79 O76 1.235 . S
O80 Co70 2.021 . S
O80 C77 1.238 . S
O81 Co75 2.052 . S
O81 C77 1.241 . S
O82 Co70 2.137 . S
O82 C73 1.247 . S
O83 Co70 2.244 . S
O83 C73 1.272 . S
O83 Co75 2.135 . S
Co84 O85 2.216 . S
Co84 O86 2.091 1_545 S
Co84 O88 2.004 . S
Co84 O94 2.021 . S
Co84 O96 2.137 . S
Co84 O97 2.244 . S
O85 Co84 2.216 . S
O85 C92 1.247 . S
O86 Co84 2.091 1_565 S
O86 C92 1.261 1_565 S
C87 O96 1.247 . S
C87 O97 1.272 . S
O88 Co84 2.004 . S
O88 C93 1.259 . S
Co89 O90 2.061 . S
Co89 O95 2.052 . S
Co89 O97 2.135 . S
O90 Co89 2.061 . S
O90 C93 1.235 . S
C91 O94 1.238 . S
C91 O95 1.241 . S
C92 O85 1.247 . S
C92 O86 1.261 1_545 S
C93 O88 1.259 . S
C93 O90 1.235 . S
O94 Co84 2.021 . S
O94 C91 1.238 . S
O95 Co89 2.052 . S
O95 C91 1.241 . S
O96 Co84 2.137 . S
O96 C87 1.247 . S
O97 Co84 2.244 . S
O97 C87 1.272 . S
O97 Co89 2.135 . S
Co98 O99 2.216 . S
Co98 O100 2.091 . S
Co98 O102 2.004 . S
Co98 O108 2.021 . S
Co98 O110 2.137 . S
Co98 O111 2.244 . S
O99 Co98 2.216 . S
O99 C106 1.247 . S
O100 Co98 2.091 . S
O100 C106 1.261 . S
C101 O110 1.247 . S
C101 O111 1.272 . S
O102 Co98 2.004 . S
O102 C107 1.259 . S
Co103 O104 2.061 . S
Co103 O109 2.052 . S
Co103 O111 2.135 . S
O104 Co103 2.061 . S
O104 C107 1.235 . S
C105 O108 1.238 . S
C105 O109 1.241 . S
C106 O99 1.247 . S
C106 O100 1.261 . S
C107 O102 1.259 . S
C107 O104 1.235 . S
O108 Co98 2.021 . S
O108 C105 1.238 . S
O109 Co103 2.052 . S
O109 C105 1.241 . S
O110 Co98 2.137 . S
O110 C101 1.247 . S
O111 Co98 2.244 . S
O111 C101 1.272 . S
O111 Co103 2.135 . S
Co112 O113 2.216 . S
Co112 O114 2.091 . S
Co112 O116 2.004 . S
Co112 O122 2.021 . S
Co112 O124 2.137 . S
Co112 O125 2.244 . S
O113 Co112 2.216 . S
O113 C120 1.247 . S
O114 Co112 2.091 . S
O114 C120 1.261 . S
C115 O124 1.247 . S
C115 O125 1.272 . S
O116 Co112 2.004 . S
O116 C121 1.259 . S
Co117 O118 2.061 . S
Co117 O123 2.052 . S
Co117 O125 2.135 . S
O118 Co117 2.061 . S
O118 C121 1.235 . S
C119 O122 1.238 . S
C119 O123 1.241 . S
C120 O113 1.247 . S
C120 O114 1.261 . S
C121 O116 1.259 . S
C121 O118 1.235 . S
O122 Co112 2.021 . S
O122 C119 1.238 . S
O123 Co117 2.052 . S
O123 C119 1.241 . S
O124 Co112 2.137 . S
O124 C115 1.247 . S
O125 Co112 2.244 . S
O125 C115 1.272 . S
O125 Co117 2.135 . S
Co126 O127 2.216 . S
Co126 O128 2.091 . S
Co126 O130 2.004 . S
Co126 O136 2.021 . S
Co126 O138 2.137 . S
Co126 O139 2.244 . S
O127 Co126 2.216 . S
O127 C134 1.247 . S
O128 Co126 2.091 . S
O128 C134 1.261 . S
C129 O138 1.247 . S
C129 O139 1.272 . S
O130 Co126 2.004 . S
O130 C135 1.259 . S
Co131 O132 2.061 . S
Co131 O137 2.052 . S
Co131 O139 2.135 . S
O132 Co131 2.061 . S
O132 C135 1.235 . S
C133 O136 1.238 . S
C133 O137 1.241 . S
C134 O127 1.247 . S
C134 O128 1.261 . S
C135 O130 1.259 . S
C135 O132 1.235 . S
O136 Co126 2.021 . S
O136 C133 1.238 . S
O137 Co131 2.052 . S
O137 C133 1.241 . S
O138 Co126 2.137 . S
O138 C129 1.247 . S
O139 Co126 2.244 . S
O139 C129 1.272 . S
O139 Co131 2.135 . S
Co140 O141 2.216 . S
Co140 O142 2.091 1_554 S
Co140 O144 2.004 . S
Co140 O150 2.021 . S
Co140 O152 2.137 . S
Co140 O153 2.244 . S
O141 Co140 2.216 . S
O141 C148 1.247 . S
O142 Co140 2.091 1_556 S
O142 C148 1.261 1_556 S
C143 O152 1.247 . S
C143 O153 1.272 . S
O144 Co140 2.004 . S
O144 C149 1.259 . S
Co145 O146 2.061 . S
Co145 O151 2.052 . S
Co145 O153 2.135 . S
O146 Co145 2.061 . S
O146 C149 1.235 . S
C147 O150 1.238 . S
C147 O151 1.241 . S
C148 O141 1.247 . S
C148 O142 1.261 1_554 S
C149 O144 1.259 . S
C149 O146 1.235 . S
O150 Co140 2.021 . S
O150 C147 1.238 . S
O151 Co145 2.052 . S
O151 C147 1.241 . S
O152 Co140 2.137 . S
O152 C143 1.247 . S
O153 Co140 2.244 . S
O153 C143 1.272 . S
O153 Co145 2.135 . S
Co154 O155 2.216 . S
Co154 O156 2.091 . S
Co154 O158 2.004 . S
Co154 O164 2.021 . S
Co154 O166 2.137 . S
Co154 O167 2.244 . S
O155 Co154 2.216 . S
O155 C162 1.247 . S
O156 Co154 2.091 . S
O156 C162 1.261 . S
C157 O166 1.247 . S
C157 O167 1.272 . S
O158 Co154 2.004 . S
O158 C163 1.259 . S
Co159 O160 2.061 . S
Co159 O165 2.052 . S
Co159 O167 2.135 . S
O160 Co159 2.061 . S
O160 C163 1.235 . S
C161 O164 1.238 . S
C161 O165 1.241 . S
C162 O155 1.247 . S
C162 O156 1.261 . S
C163 O158 1.259 . S
C163 O160 1.235 . S
O164 Co154 2.021 . S
O164 C161 1.238 . S
O165 Co159 2.052 . S
O165 C161 1.241 . S
O166 Co154 2.137 . S
O166 C157 1.247 . S
O167 Co154 2.244 . S
O167 C157 1.272 . S
O167 Co159 2.135 . S
Co168 O169 2.216 . S
Co168 O170 2.091 . S
Co168 O172 2.004 . S
Co168 O178 2.021 . S
Co168 O180 2.137 . S
Co168 O181 2.244 . S
O169 Co168 2.216 . S
O169 C176 1.247 . S
O170 Co168 2.091 . S
O170 C176 1.261 . S
C171 O180 1.247 . S
C171 O181 1.272 . S
O172 Co168 2.004 . S
O172 C177 1.259 . S
Co173 O174 2.061 . S
Co173 O179 2.052 . S
Co173 O181 2.135 . S
O174 Co173 2.061 . S
O174 C177 1.235 . S
C175 O178 1.238 . S
C175 O179 1.241 . S
C176 O169 1.247 . S
C176 O170 1.261 . S
C177 O172 1.259 . S
C177 O174 1.235 . S
O178 Co168 2.021 . S
O178 C175 1.238 . S
O179 Co173 2.052 . S
O179 C175 1.241 . S
O180 Co168 2.137 . S
O180 C171 1.247 . S
O181 Co168 2.244 . S
O181 C171 1.272 . S
O181 Co173 2.135 . S
Co182 O183 2.216 . S
Co182 O184 2.091 . S
Co182 O186 2.004 . S
Co182 O192 2.021 . S
Co182 O194 2.137 . S
Co182 O195 2.244 . S
O183 Co182 2.216 . S
O183 C190 1.247 . S
O184 Co182 2.091 . S
O184 C190 1.261 . S
C185 O194 1.247 . S
C185 O195 1.272 . S
O186 Co182 2.004 . S
O186 C191 1.259 . S
Co187 O188 2.061 . S
Co187 O193 2.052 . S
Co187 O195 2.135 . S
O188 Co187 2.061 . S
O188 C191 1.235 . S
C189 O192 1.238 . S
C189 O193 1.241 . S
C190 O183 1.247 . S
C190 O184 1.261 . S
C191 O186 1.259 . S
C191 O188 1.235 . S
O192 Co182 2.021 . S
O192 C189 1.238 . S
O193 Co187 2.052 . S
O193 C189 1.241 . S
O194 Co182 2.137 . S
O194 C185 1.247 . S
O195 Co182 2.244 . S
O195 C185 1.272 . S
O195 Co187 2.135 . S
Co196 O197 2.216 . S
Co196 O198 2.091 1_556 S
Co196 O200 2.004 . S
Co196 O206 2.021 . S
Co196 O208 2.137 . S
Co196 O209 2.244 . S
O197 Co196 2.216 . S
O197 C204 1.247 . S
O198 Co196 2.091 1_554 S
O198 C204 1.261 1_554 S
C199 O208 1.247 . S
C199 O209 1.272 . S
O200 Co196 2.004 . S
O200 C205 1.259 . S
Co201 O202 2.061 . S
Co201 O207 2.052 . S
Co201 O209 2.135 . S
O202 Co201 2.061 . S
O202 C205 1.235 . S
C203 O206 1.238 . S
C203 O207 1.241 . S
C204 O197 1.247 . S
C204 O198 1.261 1_556 S
C205 O200 1.259 . S
C205 O202 1.235 . S
O206 Co196 2.021 . S
O206 C203 1.238 . S
O207 Co201 2.052 . S
O207 C203 1.241 . S
O208 Co196 2.137 . S
O208 C199 1.247 . S
O209 Co196 2.244 . S
O209 C199 1.272 . S
O209 Co201 2.135 . S
Co210 O211 2.216 . S
Co210 O212 2.091 . S
Co210 O214 2.004 . S
Co210 O220 2.021 . S
Co210 O222 2.137 . S
Co210 O223 2.244 . S
O211 Co210 2.216 . S
O211 C218 1.247 . S
O212 Co210 2.091 . S
O212 C218 1.261 . S
C213 O222 1.247 . S
C213 O223 1.272 . S
O214 Co210 2.004 . S
O214 C219 1.259 . S
Co215 O216 2.061 . S
Co215 O221 2.052 . S
Co215 O223 2.135 . S
O216 Co215 2.061 . S
O216 C219 1.235 . S
C217 O220 1.238 . S
C217 O221 1.241 . S
C218 O211 1.247 . S
C218 O212 1.261 . S
C219 O214 1.259 . S
C219 O216 1.235 . S
O220 Co210 2.021 . S
O220 C217 1.238 . S
O221 Co215 2.052 . S
O221 C217 1.241 . S
O222 Co210 2.137 . S
O222 C213 1.247 . S
O223 Co210 2.244 . S
O223 C213 1.272 . S
O223 Co215 2.135 . S
Co224 O225 2.216 . S
Co224 O226 2.091 . S
Co224 O228 2.004 . S
Co224 O234 2.021 . S
Co224 O236 2.137 . S
Co224 O237 2.244 . S
O225 Co224 2.216 . S
O225 C232 1.247 . S
O226 Co224 2.091 . S
O226 C232 1.261 . S
C227 O236 1.247 . S
C227 O237 1.272 . S
O228 Co224 2.004 . S
O228 C233 1.259 . S
Co229 O230 2.061 . S
Co229 O235 2.052 . S
Co229 O237 2.135 . S
O230 Co229 2.061 . S
O230 C233 1.235 . S
C231 O234 1.238 . S
C231 O235 1.241 . S
C232 O225 1.247 . S
C232 O226 1.261 . S
C233 O228 1.259 . S
C233 O230 1.235 . S
O234 Co224 2.021 . S
O234 C231 1.238 . S
O235 Co229 2.052 . S
O235 C231 1.241 . S
O236 Co224 2.137 . S
O236 C227 1.247 . S
O237 Co224 2.244 . S
O237 C227 1.272 . S
O237 Co229 2.135 . S
Co238 O239 2.216 . S
Co238 O240 2.091 1_455 S
Co238 O242 2.004 . S
Co238 O248 2.021 . S
Co238 O250 2.137 . S
Co238 O251 2.244 . S
O239 Co238 2.216 . S
O239 C246 1.247 . S
O240 Co238 2.091 1_655 S
O240 C246 1.261 1_655 S
C241 O250 1.247 . S
C241 O251 1.272 . S
O242 Co238 2.004 . S
O242 C247 1.259 . S
Co243 O244 2.061 . S
Co243 O249 2.052 . S
Co243 O251 2.135 . S
O244 Co243 2.061 . S
O244 C247 1.235 . S
C245 O248 1.238 . S
C245 O249 1.241 . S
C246 O239 1.247 . S
C246 O240 1.261 1_455 S
C247 O242 1.259 . S
C247 O244 1.235 . S
O248 Co238 2.021 . S
O248 C245 1.238 . S
O249 Co243 2.052 . S
O249 C245 1.241 . S
O250 Co238 2.137 . S
O250 C241 1.247 . S
O251 Co238 2.244 . S
O251 C241 1.272 . S
O251 Co243 2.135 . S
Co252 O253 2.216 . S
Co252 O254 2.091 . S
Co252 O256 2.004 . S
Co252 O262 2.021 . S
Co252 O264 2.137 . S
Co252 O265 2.244 . S
O253 Co252 2.216 . S
O253 C260 1.247 . S
O254 Co252 2.091 . S
O254 C260 1.261 . S
C255 O264 1.247 . S
C255 O265 1.272 . S
O256 Co252 2.004 . S
O256 C261 1.259 . S
Co257 O258 2.061 . S
Co257 O263 2.052 . S
Co257 O265 2.135 . S
O258 Co257 2.061 . S
O258 C261 1.235 . S
C259 O262 1.238 . S
C259 O263 1.241 . S
C260 O253 1.247 . S
C260 O254 1.261 . S
C261 O256 1.259 . S
C261 O258 1.235 . S
O262 Co252 2.021 . S
O262 C259 1.238 . S
O263 Co257 2.052 . S
O263 C259 1.241 . S
O264 Co252 2.137 . S
O264 C255 1.247 . S
O265 Co252 2.244 . S
O265 C255 1.272 . S
O265 Co257 2.135 . S
Co266 O267 2.216 . S
Co266 O268 2.091 1_655 S
Co266 O270 2.004 . S
Co266 O276 2.021 . S
Co266 O278 2.137 . S
Co266 O279 2.244 . S
O267 Co266 2.216 . S
O267 C274 1.247 . S
O268 Co266 2.091 1_455 S
O268 C274 1.261 1_455 S
C269 O278 1.247 . S
C269 O279 1.272 . S
O270 Co266 2.004 . S
O270 C275 1.259 . S
Co271 O272 2.061 . S
Co271 O277 2.052 . S
Co271 O279 2.135 . S
O272 Co271 2.061 . S
O272 C275 1.235 . S
C273 O276 1.238 . S
C273 O277 1.241 . S
C274 O267 1.247 . S
C274 O268 1.261 1_655 S
C275 O270 1.259 . S
C275 O272 1.235 . S
O276 Co266 2.021 . S
O276 C273 1.238 . S
O277 Co271 2.052 . S
O277 C273 1.241 . S
O278 Co266 2.137 . S
O278 C269 1.247 . S
O279 Co266 2.244 . S
O279 C269 1.272 . S
O279 Co271 2.135 . S
Co280 O281 2.216 . S
Co280 O282 2.091 . S
Co280 O284 2.004 . S
Co280 O290 2.021 . S
Co280 O292 2.137 . S
Co280 O293 2.244 . S
O281 Co280 2.216 . S
O281 C288 1.247 . S
O282 Co280 2.091 . S
O282 C288 1.261 . S
C283 O292 1.247 . S
C283 O293 1.272 . S
O284 Co280 2.004 . S
O284 C289 1.259 . S
Co285 O286 2.061 . S
Co285 O291 2.052 . S
Co285 O293 2.135 . S
O286 Co285 2.061 . S
O286 C289 1.235 . S
C287 O290 1.238 . S
C287 O291 1.241 . S
C288 O281 1.247 . S
C288 O282 1.261 . S
C289 O284 1.259 . S
C289 O286 1.235 . S
O290 Co280 2.021 . S
O290 C287 1.238 . S
O291 Co285 2.052 . S
O291 C287 1.241 . S
O292 Co280 2.137 . S
O292 C283 1.247 . S
O293 Co280 2.244 . S
O293 C283 1.272 . S
O293 Co285 2.135 . S
Co294 O295 2.216 . S
Co294 O296 2.091 . S
Co294 O298 2.004 . S
Co294 O304 2.021 . S
Co294 O306 2.137 . S
Co294 O307 2.244 . S
O295 Co294 2.216 . S
O295 C302 1.247 . S
O296 Co294 2.091 . S
O296 C302 1.261 . S
C297 O306 1.247 . S
C297 O307 1.272 . S
O298 Co294 2.004 . S
O298 C303 1.259 . S
Co299 O300 2.061 . S
Co299 O305 2.052 . S
Co299 O307 2.135 . S
O300 Co299 2.061 . S
O300 C303 1.235 . S
C301 O304 1.238 . S
C301 O305 1.241 . S
C302 O295 1.247 . S
C302 O296 1.261 . S
C303 O298 1.259 . S
C303 O300 1.235 . S
O304 Co294 2.021 . S
O304 C301 1.238 . S
O305 Co299 2.052 . S
O305 C301 1.241 . S
O306 Co294 2.137 . S
O306 C297 1.247 . S
O307 Co294 2.244 . S
O307 C297 1.272 . S
O307 Co299 2.135 . S
Co308 O309 2.216 . S
Co308 O310 2.091 . S
Co308 O312 2.004 . S
Co308 O318 2.021 . S
Co308 O320 2.137 . S
Co308 O321 2.244 . S
O309 Co308 2.216 . S
O309 C316 1.247 . S
O310 Co308 2.091 . S
O310 C316 1.261 . S
C311 O320 1.247 . S
C311 O321 1.272 . S
O312 Co308 2.004 . S
O312 C317 1.259 . S
Co313 O314 2.061 . S
Co313 O319 2.052 . S
Co313 O321 2.135 . S
O314 Co313 2.061 . S
O314 C317 1.235 . S
C315 O318 1.238 . S
C315 O319 1.241 . S
C316 O309 1.247 . S
C316 O310 1.261 . S
C317 O312 1.259 . S
C317 O314 1.235 . S
O318 Co308 2.021 . S
O318 C315 1.238 . S
O319 Co313 2.052 . S
O319 C315 1.241 . S
O320 Co308 2.137 . S
O320 C311 1.247 . S
O321 Co308 2.244 . S
O321 C311 1.272 . S
O321 Co313 2.135 . S
Co322 O323 2.216 . S
Co322 O324 2.091 . S
Co322 O326 2.004 . S
Co322 O332 2.021 . S
Co322 O334 2.137 . S
Co322 O335 2.244 . S
O323 Co322 2.216 . S
O323 C330 1.247 . S
O324 Co322 2.091 . S
O324 C330 1.261 . S
C325 O334 1.247 . S
C325 O335 1.272 . S
O326 Co322 2.004 . S
O326 C331 1.259 . S
Co327 O328 2.061 . S
Co327 O333 2.052 . S
Co327 O335 2.135 . S
O328 Co327 2.061 . S
O328 C331 1.235 . S
C329 O332 1.238 . S
C329 O333 1.241 . S
C330 O323 1.247 . S
C330 O324 1.261 . S
C331 O326 1.259 . S
C331 O328 1.235 . S
O332 Co322 2.021 . S
O332 C329 1.238 . S
O333 Co327 2.052 . S
O333 C329 1.241 . S
O334 Co322 2.137 . S
O334 C325 1.247 . S
O335 Co322 2.244 . S
O335 C325 1.272 . S
O335 Co327 2.135 . S
Co336 O337 2.216 . S
Co336 O338 2.091 1_545 S
Co336 O340 2.004 . S
Co336 O346 2.021 . S
Co336 O348 2.137 . S
Co336 O349 2.244 . S
O337 Co336 2.216 . S
O337 C344 1.247 . S
O338 Co336 2.091 1_565 S
O338 C344 1.261 1_565 S
C339 O348 1.247 . S
C339 O349 1.272 . S
O340 Co336 2.004 . S
O340 C345 1.259 . S
Co341 O342 2.061 . S
Co341 O347 2.052 . S
Co341 O349 2.135 . S
O342 Co341 2.061 . S
O342 C345 1.235 . S
C343 O346 1.238 . S
C343 O347 1.241 . S
C344 O337 1.247 . S
C344 O338 1.261 1_545 S
C345 O340 1.259 . S
C345 O342 1.235 . S
O346 Co336 2.021 . S
O346 C343 1.238 . S
O347 Co341 2.052 . S
O347 C343 1.241 . S
O348 Co336 2.137 . S
O348 C339 1.247 . S
O349 Co336 2.244 . S
O349 C339 1.272 . S
O349 Co341 2.135 . S
Co350 O351 2.216 . S
Co350 O352 2.091 . S
Co350 O354 2.004 . S
Co350 O360 2.021 . S
Co350 O362 2.137 . S
Co350 O363 2.244 . S
O351 Co350 2.216 . S
O351 C358 1.247 . S
O352 Co350 2.091 . S
O352 C358 1.261 . S
C353 O362 1.247 . S
C353 O363 1.272 . S
O354 Co350 2.004 . S
O354 C359 1.259 . S
Co355 O356 2.061 . S
Co355 O361 2.052 . S
Co355 O363 2.135 . S
O356 Co355 2.061 . S
O356 C359 1.235 . S
C357 O360 1.238 . S
C357 O361 1.241 . S
C358 O351 1.247 . S
C358 O352 1.261 . S
C359 O354 1.259 . S
C359 O356 1.235 . S
O360 Co350 2.021 . S
O360 C357 1.238 . S
O361 Co355 2.052 . S
O361 C357 1.241 . S
O362 Co350 2.137 . S
O362 C353 1.247 . S
O363 Co350 2.244 . S
O363 C353 1.272 . S
O363 Co355 2.135 . S
Co364 O365 2.216 . S
Co364 O366 2.091 . S
Co364 O368 2.004 . S
Co364 O374 2.021 . S
Co364 O376 2.137 . S
Co364 O377 2.244 . S
O365 Co364 2.216 . S
O365 C372 1.247 . S
O366 Co364 2.091 . S
O366 C372 1.261 . S
C367 O376 1.247 . S
C367 O377 1.272 . S
O368 Co364 2.004 . S
O368 C373 1.259 . S
Co369 O370 2.061 . S
Co369 O375 2.052 . S
Co369 O377 2.135 . S
O370 Co369 2.061 . S
O370 C373 1.235 . S
C371 O374 1.238 . S
C371 O375 1.241 . S
C372 O365 1.247 . S
C372 O366 1.261 . S
C373 O368 1.259 . S
C373 O370 1.235 . S
O374 Co364 2.021 . S
O374 C371 1.238 . S
O375 Co369 2.052 . S
O375 C371 1.241 . S
O376 Co364 2.137 . S
O376 C367 1.247 . S
O377 Co364 2.244 . S
O377 C367 1.272 . S
O377 Co369 2.135 . S
Co378 O379 2.216 . S
Co378 O380 2.091 . S
Co378 O382 2.004 . S
Co378 O388 2.021 . S
Co378 O390 2.137 . S
Co378 O391 2.244 . S
O379 Co378 2.216 . S
O379 C386 1.247 . S
O380 Co378 2.091 . S
O380 C386 1.261 . S
C381 O390 1.247 . S
C381 O391 1.272 . S
O382 Co378 2.004 . S
O382 C387 1.259 . S
Co383 O384 2.061 . S
Co383 O389 2.052 . S
Co383 O391 2.135 . S
O384 Co383 2.061 . S
O384 C387 1.235 . S
C385 O388 1.238 . S
C385 O389 1.241 . S
C386 O379 1.247 . S
C386 O380 1.261 . S
C387 O382 1.259 . S
C387 O384 1.235 . S
O388 Co378 2.021 . S
O388 C385 1.238 . S
O389 Co383 2.052 . S
O389 C385 1.241 . S
O390 Co378 2.137 . S
O390 C381 1.247 . S
O391 Co378 2.244 . S
O391 C381 1.272 . S
O391 Co383 2.135 . S
Co392 O393 2.216 . S
Co392 O394 2.091 1_565 S
Co392 O396 2.004 . S
Co392 O402 2.021 . S
Co392 O404 2.137 . S
Co392 O405 2.244 . S
O393 Co392 2.216 . S
O393 C400 1.247 . S
O394 Co392 2.091 1_545 S
O394 C400 1.261 1_545 S
C395 O404 1.247 . S
C395 O405 1.272 . S
O396 Co392 2.004 . S
O396 C401 1.259 . S
Co397 O398 2.061 . S
Co397 O403 2.052 . S
Co397 O405 2.135 . S
O398 Co397 2.061 . S
O398 C401 1.235 . S
C399 O402 1.238 . S
C399 O403 1.241 . S
C400 O393 1.247 . S
C400 O394 1.261 1_565 S
C401 O396 1.259 . S
C401 O398 1.235 . S
O402 Co392 2.021 . S
O402 C399 1.238 . S
O403 Co397 2.052 . S
O403 C399 1.241 . S
O404 Co392 2.137 . S
O404 C395 1.247 . S
O405 Co392 2.244 . S
O405 C395 1.272 . S
O405 Co397 2.135 . S
Co406 O407 2.216 . S
Co406 O408 2.091 . S
Co406 O410 2.004 . S
Co406 O416 2.021 . S
Co406 O418 2.137 . S
Co406 O419 2.244 . S
O407 Co406 2.216 . S
O407 C414 1.247 . S
O408 Co406 2.091 . S
O408 C414 1.261 . S
C409 O418 1.247 . S
C409 O419 1.272 . S
O410 Co406 2.004 . S
O410 C415 1.259 . S
Co411 O412 2.061 . S
Co411 O417 2.052 . S
Co411 O419 2.135 . S
O412 Co411 2.061 . S
O412 C415 1.235 . S
C413 O416 1.238 . S
C413 O417 1.241 . S
C414 O407 1.247 . S
C414 O408 1.261 . S
C415 O410 1.259 . S
C415 O412 1.235 . S
O416 Co406 2.021 . S
O416 C413 1.238 . S
O417 Co411 2.052 . S
O417 C413 1.241 . S
O418 Co406 2.137 . S
O418 C409 1.247 . S
O419 Co406 2.244 . S
O419 C409 1.272 . S
O419 Co411 2.135 . S
Co420 O421 2.216 . S
Co420 O422 2.091 . S
Co420 O424 2.004 . S
Co420 O430 2.021 . S
Co420 O432 2.137 . S
Co420 O433 2.244 . S
O421 Co420 2.216 . S
O421 C428 1.247 . S
O422 Co420 2.091 . S
O422 C428 1.261 . S
C423 O432 1.247 . S
C423 O433 1.272 . S
O424 Co420 2.004 . S
O424 C429 1.259 . S
Co425 O426 2.061 . S
Co425 O431 2.052 . S
Co425 O433 2.135 . S
O426 Co425 2.061 . S
O426 C429 1.235 . S
C427 O430 1.238 . S
C427 O431 1.241 . S
C428 O421 1.247 . S
C428 O422 1.261 . S
C429 O424 1.259 . S
C429 O426 1.235 . S
O430 Co420 2.021 . S
O430 C427 1.238 . S
O431 Co425 2.052 . S
O431 C427 1.241 . S
O432 Co420 2.137 . S
O432 C423 1.247 . S
O433 Co420 2.244 . S
O433 C423 1.272 . S
O433 Co425 2.135 . S
Co434 O435 2.216 . S
Co434 O436 2.091 . S
Co434 O438 2.004 . S
Co434 O444 2.021 . S
Co434 O446 2.137 . S
Co434 O447 2.244 . S
O435 Co434 2.216 . S
O435 C442 1.247 . S
O436 Co434 2.091 . S
O436 C442 1.261 . S
C437 O446 1.247 . S
C437 O447 1.272 . S
O438 Co434 2.004 . S
O438 C443 1.259 . S
Co439 O440 2.061 . S
Co439 O445 2.052 . S
Co439 O447 2.135 . S
O440 Co439 2.061 . S
O440 C443 1.235 . S
C441 O444 1.238 . S
C441 O445 1.241 . S
C442 O435 1.247 . S
C442 O436 1.261 . S
C443 O438 1.259 . S
C443 O440 1.235 . S
O444 Co434 2.021 . S
O444 C441 1.238 . S
O445 Co439 2.052 . S
O445 C441 1.241 . S
O446 Co434 2.137 . S
O446 C437 1.247 . S
O447 Co434 2.244 . S
O447 C437 1.272 . S
O447 Co439 2.135 . S
Co448 O449 2.216 . S
Co448 O450 2.091 1_554 S
Co448 O452 2.004 . S
Co448 O458 2.021 . S
Co448 O460 2.137 . S
Co448 O461 2.244 . S
O449 Co448 2.216 . S
O449 C456 1.247 . S
O450 Co448 2.091 1_556 S
O450 C456 1.261 1_556 S
C451 O460 1.247 . S
C451 O461 1.272 . S
O452 Co448 2.004 . S
O452 C457 1.259 . S
Co453 O454 2.061 . S
Co453 O459 2.052 . S
Co453 O461 2.135 . S
O454 Co453 2.061 . S
O454 C457 1.235 . S
C455 O458 1.238 . S
C455 O459 1.241 . S
C456 O449 1.247 . S
C456 O450 1.261 1_554 S
C457 O452 1.259 . S
C457 O454 1.235 . S
O458 Co448 2.021 . S
O458 C455 1.238 . S
O459 Co453 2.052 . S
O459 C455 1.241 . S
O460 Co448 2.137 . S
O460 C451 1.247 . S
O461 Co448 2.244 . S
O461 C451 1.272 . S
O461 Co453 2.135 . S
Co462 O463 2.216 . S
Co462 O464 2.091 . S
Co462 O466 2.004 . S
Co462 O472 2.021 . S
Co462 O474 2.137 . S
Co462 O475 2.244 . S
O463 Co462 2.216 . S
O463 C470 1.247 . S
O464 Co462 2.091 . S
O464 C470 1.261 . S
C465 O474 1.247 . S
C465 O475 1.272 . S
O466 Co462 2.004 . S
O466 C471 1.259 . S
Co467 O468 2.061 . S
Co467 O473 2.052 . S
Co467 O475 2.135 . S
O468 Co467 2.061 . S
O468 C471 1.235 . S
C469 O472 1.238 . S
C469 O473 1.241 . S
C470 O463 1.247 . S
C470 O464 1.261 . S
C471 O466 1.259 . S
C471 O468 1.235 . S
O472 Co462 2.021 . S
O472 C469 1.238 . S
O473 Co467 2.052 . S
O473 C469 1.241 . S
O474 Co462 2.137 . S
O474 C465 1.247 . S
O475 Co462 2.244 . S
O475 C465 1.272 . S
O475 Co467 2.135 . S
Co476 O477 2.216 . S
Co476 O478 2.091 . S
Co476 O480 2.004 . S
Co476 O486 2.021 . S
Co476 O488 2.137 . S
Co476 O489 2.244 . S
O477 Co476 2.216 . S
O477 C484 1.247 . S
O478 Co476 2.091 . S
O478 C484 1.261 . S
C479 O488 1.247 . S
C479 O489 1.272 . S
O480 Co476 2.004 . S
O480 C485 1.259 . S
Co481 O482 2.061 . S
Co481 O487 2.052 . S
Co481 O489 2.135 . S
O482 Co481 2.061 . S
O482 C485 1.235 . S
C483 O486 1.238 . S
C483 O487 1.241 . S
C484 O477 1.247 . S
C484 O478 1.261 . S
C485 O480 1.259 . S
C485 O482 1.235 . S
O486 Co476 2.021 . S
O486 C483 1.238 . S
O487 Co481 2.052 . S
O487 C483 1.241 . S
O488 Co476 2.137 . S
O488 C479 1.247 . S
O489 Co476 2.244 . S
O489 C479 1.272 . S
O489 Co481 2.135 . S
Co490 O491 2.216 . S
Co490 O492 2.091 . S
Co490 O494 2.004 . S
Co490 O500 2.021 . S
Co490 O502 2.137 . S
Co490 O503 2.244 . S
O491 Co490 2.216 . S
O491 C498 1.247 . S
O492 Co490 2.091 . S
O492 C498 1.261 . S
C493 O502 1.247 . S
C493 O503 1.272 . S
O494 Co490 2.004 . S
O494 C499 1.259 . S
Co495 O496 2.061 . S
Co495 O501 2.052 . S
Co495 O503 2.135 . S
O496 Co495 2.061 . S
O496 C499 1.235 . S
C497 O500 1.238 . S
C497 O501 1.241 . S
C498 O491 1.247 . S
C498 O492 1.261 . S
C499 O494 1.259 . S
C499 O496 1.235 . S
O500 Co490 2.021 . S
O500 C497 1.238 . S
O501 Co495 2.052 . S
O501 C497 1.241 . S
O502 Co490 2.137 . S
O502 C493 1.247 . S
O503 Co490 2.244 . S
O503 C493 1.272 . S
O503 Co495 2.135 . S
Co504 O505 2.216 . S
Co504 O506 2.091 1_556 S
Co504 O508 2.004 . S
Co504 O514 2.021 . S
Co504 O516 2.137 . S
Co504 O517 2.244 . S
O505 Co504 2.216 . S
O505 C512 1.247 . S
O506 Co504 2.091 1_554 S
O506 C512 1.261 1_554 S
C507 O516 1.247 . S
C507 O517 1.272 . S
O508 Co504 2.004 . S
O508 C513 1.259 . S
Co509 O510 2.061 . S
Co509 O515 2.052 . S
Co509 O517 2.135 . S
O510 Co509 2.061 . S
O510 C513 1.235 . S
C511 O514 1.238 . S
C511 O515 1.241 . S
C512 O505 1.247 . S
C512 O506 1.261 1_556 S
C513 O508 1.259 . S
C513 O510 1.235 . S
O514 Co504 2.021 . S
O514 C511 1.238 . S
O515 Co509 2.052 . S
O515 C511 1.241 . S
O516 Co504 2.137 . S
O516 C507 1.247 . S
O517 Co504 2.244 . S
O517 C507 1.272 . S
O517 Co509 2.135 . S
Co518 O519 2.216 . S
Co518 O520 2.091 . S
Co518 O522 2.004 . S
Co518 O528 2.021 . S
Co518 O530 2.137 . S
Co518 O531 2.244 . S
O519 Co518 2.216 . S
O519 C526 1.247 . S
O520 Co518 2.091 . S
O520 C526 1.261 . S
C521 O530 1.247 . S
C521 O531 1.272 . S
O522 Co518 2.004 . S
O522 C527 1.259 . S
Co523 O524 2.061 . S
Co523 O529 2.052 . S
Co523 O531 2.135 . S
O524 Co523 2.061 . S
O524 C527 1.235 . S
C525 O528 1.238 . S
C525 O529 1.241 . S
C526 O519 1.247 . S
C526 O520 1.261 . S
C527 O522 1.259 . S
C527 O524 1.235 . S
O528 Co518 2.021 . S
O528 C525 1.238 . S
O529 Co523 2.052 . S
O529 C525 1.241 . S
O530 Co518 2.137 . S
O530 C521 1.247 . S
O531 Co518 2.244 . S
O531 C521 1.272 . S
O531 Co523 2.135 . S
Co532 O533 2.216 . S
Co532 O534 2.091 . S
Co532 O536 2.004 . S
Co532 O542 2.021 . S
Co532 O544 2.137 . S
Co532 O545 2.244 . S
O533 Co532 2.216 . S
O533 C540 1.247 . S
O534 Co532 2.091 . S
O534 C540 1.261 . S
C535 O544 1.247 . S
C535 O545 1.272 . S
O536 Co532 2.004 . S
O536 C541 1.259 . S
Co537 O538 2.061 . S
Co537 O543 2.052 . S
Co537 O545 2.135 . S
O538 Co537 2.061 . S
O538 C541 1.235 . S
C539 O542 1.238 . S
C539 O543 1.241 . S
C540 O533 1.247 . S
C540 O534 1.261 . S
C541 O536 1.259 . S
C541 O538 1.235 . S
O542 Co532 2.021 . S
O542 C539 1.238 . S
O543 Co537 2.052 . S
O543 C539 1.241 . S
O544 Co532 2.137 . S
O544 C535 1.247 . S
O545 Co532 2.244 . S
O545 C535 1.272 . S
O545 Co537 2.135 . S
Co546 O547 2.216 . S
Co546 O548 2.091 . S
Co546 O550 2.004 . S
Co546 O556 2.021 . S
Co546 O558 2.137 . S
Co546 O559 2.244 . S
O547 Co546 2.216 . S
O547 C554 1.247 . S
O548 Co546 2.091 . S
O548 C554 1.261 . S
C549 O558 1.247 . S
C549 O559 1.272 . S
O550 Co546 2.004 . S
O550 C555 1.259 . S
Co551 O552 2.061 . S
Co551 O557 2.052 . S
Co551 O559 2.135 . S
O552 Co551 2.061 . S
O552 C555 1.235 . S
C553 O556 1.238 . S
C553 O557 1.241 . S
C554 O547 1.247 . S
C554 O548 1.261 . S
C555 O550 1.259 . S
C555 O552 1.235 . S
O556 Co546 2.021 . S
O556 C553 1.238 . S
O557 Co551 2.052 . S
O557 C553 1.241 . S
O558 Co546 2.137 . S
O558 C549 1.247 . S
O559 Co546 2.244 . S
O559 C549 1.272 . S
O559 Co551 2.135 . S
Co560 O561 2.216 . S
Co560 O562 2.091 . S
Co560 O564 2.004 . S
Co560 O570 2.021 . S
Co560 O572 2.137 . S
Co560 O573 2.244 . S
O561 Co560 2.216 . S
O561 C568 1.247 . S
O562 Co560 2.091 . S
O562 C568 1.261 . S
C563 O572 1.247 . S
C563 O573 1.272 . S
O564 Co560 2.004 . S
O564 C569 1.259 . S
Co565 O566 2.061 . S
Co565 O571 2.052 . S
Co565 O573 2.135 . S
O566 Co565 2.061 . S
O566 C569 1.235 . S
C567 O570 1.238 . S
C567 O571 1.241 . S
C568 O561 1.247 . S
C568 O562 1.261 . S
C569 O564 1.259 . S
C569 O566 1.235 . S
O570 Co560 2.021 . S
O570 C567 1.238 . S
O571 Co565 2.052 . S
O571 C567 1.241 . S
O572 Co560 2.137 . S
O572 C563 1.247 . S
O573 Co560 2.244 . S
O573 C563 1.272 . S
O573 Co565 2.135 . S
Co574 O575 2.216 . S
Co574 O576 2.091 1_455 S
Co574 O578 2.004 . S
Co574 O584 2.021 . S
Co574 O586 2.137 . S
Co574 O587 2.244 . S
O575 Co574 2.216 . S
O575 C582 1.247 . S
O576 Co574 2.091 1_655 S
O576 C582 1.261 1_655 S
C577 O586 1.247 . S
C577 O587 1.272 . S
O578 Co574 2.004 . S
O578 C583 1.259 . S
Co579 O580 2.061 . S
Co579 O585 2.052 . S
Co579 O587 2.135 . S
O580 Co579 2.061 . S
O580 C583 1.235 . S
C581 O584 1.238 . S
C581 O585 1.241 . S
C582 O575 1.247 . S
C582 O576 1.261 1_455 S
C583 O578 1.259 . S
C583 O580 1.235 . S
O584 Co574 2.021 . S
O584 C581 1.238 . S
O585 Co579 2.052 . S
O585 C581 1.241 . S
O586 Co574 2.137 . S
O586 C577 1.247 . S
O587 Co574 2.244 . S
O587 C577 1.272 . S
O587 Co579 2.135 . S
Co588 O589 2.216 . S
Co588 O590 2.091 . S
Co588 O592 2.004 . S
Co588 O598 2.021 . S
Co588 O600 2.137 . S
Co588 O601 2.244 . S
O589 Co588 2.216 . S
O589 C596 1.247 . S
O590 Co588 2.091 . S
O590 C596 1.261 . S
C591 O600 1.247 . S
C591 O601 1.272 . S
O592 Co588 2.004 . S
O592 C597 1.259 . S
Co593 O594 2.061 . S
Co593 O599 2.052 . S
Co593 O601 2.135 . S
O594 Co593 2.061 . S
O594 C597 1.235 . S
C595 O598 1.238 . S
C595 O599 1.241 . S
C596 O589 1.247 . S
C596 O590 1.261 . S
C597 O592 1.259 . S
C597 O594 1.235 . S
O598 Co588 2.021 . S
O598 C595 1.238 . S
O599 Co593 2.052 . S
O599 C595 1.241 . S
O600 Co588 2.137 . S
O600 C591 1.247 . S
O601 Co588 2.244 . S
O601 C591 1.272 . S
O601 Co593 2.135 . S
Co602 O603 2.216 . S
Co602 O604 2.091 1_655 S
Co602 O606 2.004 . S
Co602 O612 2.021 . S
Co602 O614 2.137 . S
Co602 O615 2.244 . S
O603 Co602 2.216 . S
O603 C610 1.247 . S
O604 Co602 2.091 1_455 S
O604 C610 1.261 1_455 S
C605 O614 1.247 . S
C605 O615 1.272 . S
O606 Co602 2.004 . S
O606 C611 1.259 . S
Co607 O608 2.061 . S
Co607 O613 2.052 . S
Co607 O615 2.135 . S
O608 Co607 2.061 . S
O608 C611 1.235 . S
C609 O612 1.238 . S
C609 O613 1.241 . S
C610 O603 1.247 . S
C610 O604 1.261 1_655 S
C611 O606 1.259 . S
C611 O608 1.235 . S
O612 Co602 2.021 . S
O612 C609 1.238 . S
O613 Co607 2.052 . S
O613 C609 1.241 . S
O614 Co602 2.137 . S
O614 C605 1.247 . S
O615 Co602 2.244 . S
O615 C605 1.272 . S
O615 Co607 2.135 . S
Co616 O617 2.216 . S
Co616 O618 2.091 . S
Co616 O620 2.004 . S
Co616 O626 2.021 . S
Co616 O628 2.137 . S
Co616 O629 2.244 . S
O617 Co616 2.216 . S
O617 C624 1.247 . S
O618 Co616 2.091 . S
O618 C624 1.261 . S
C619 O628 1.247 . S
C619 O629 1.272 . S
O620 Co616 2.004 . S
O620 C625 1.259 . S
Co621 O622 2.061 . S
Co621 O627 2.052 . S
Co621 O629 2.135 . S
O622 Co621 2.061 . S
O622 C625 1.235 . S
C623 O626 1.238 . S
C623 O627 1.241 . S
C624 O617 1.247 . S
C624 O618 1.261 . S
C625 O620 1.259 . S
C625 O622 1.235 . S
O626 Co616 2.021 . S
O626 C623 1.238 . S
O627 Co621 2.052 . S
O627 C623 1.241 . S
O628 Co616 2.137 . S
O628 C619 1.247 . S
O629 Co616 2.244 . S
O629 C619 1.272 . S
O629 Co621 2.135 . S
Co630 O631 2.216 . S
Co630 O632 2.091 . S
Co630 O634 2.004 . S
Co630 O640 2.021 . S
Co630 O642 2.137 . S
Co630 O643 2.244 . S
O631 Co630 2.216 . S
O631 C638 1.247 . S
O632 Co630 2.091 . S
O632 C638 1.261 . S
C633 O642 1.247 . S
C633 O643 1.272 . S
O634 Co630 2.004 . S
O634 C639 1.259 . S
Co635 O636 2.061 . S
Co635 O641 2.052 . S
Co635 O643 2.135 . S
O636 Co635 2.061 . S
O636 C639 1.235 . S
C637 O640 1.238 . S
C637 O641 1.241 . S
C638 O631 1.247 . S
C638 O632 1.261 . S
C639 O634 1.259 . S
C639 O636 1.235 . S
O640 Co630 2.021 . S
O640 C637 1.238 . S
O641 Co635 2.052 . S
O641 C637 1.241 . S
O642 Co630 2.137 . S
O642 C633 1.247 . S
O643 Co630 2.244 . S
O643 C633 1.272 . S
O643 Co635 2.135 . S
Co644 O645 2.216 . S
Co644 O646 2.091 . S
Co644 O648 2.004 . S
Co644 O654 2.021 . S
Co644 O656 2.137 . S
Co644 O657 2.244 . S
O645 Co644 2.216 . S
O645 C652 1.247 . S
O646 Co644 2.091 . S
O646 C652 1.261 . S
C647 O656 1.247 . S
C647 O657 1.272 . S
O648 Co644 2.004 . S
O648 C653 1.259 . S
Co649 O650 2.061 . S
Co649 O655 2.052 . S
Co649 O657 2.135 . S
O650 Co649 2.061 . S
O650 C653 1.235 . S
C651 O654 1.238 . S
C651 O655 1.241 . S
C652 O645 1.247 . S
C652 O646 1.261 . S
C653 O648 1.259 . S
C653 O650 1.235 . S
O654 Co644 2.021 . S
O654 C651 1.238 . S
O655 Co649 2.052 . S
O655 C651 1.241 . S
O656 Co644 2.137 . S
O656 C647 1.247 . S
O657 Co644 2.244 . S
O657 C647 1.272 . S
O657 Co649 2.135 . S
Co658 O659 2.216 . S
Co658 O660 2.091 . S
Co658 O662 2.004 . S
Co658 O668 2.021 . S
Co658 O670 2.137 . S
Co658 O671 2.244 . S
O659 Co658 2.216 . S
O659 C666 1.247 . S
O660 Co658 2.091 . S
O660 C666 1.261 . S
C661 O670 1.247 . S
C661 O671 1.272 . S
O662 Co658 2.004 . S
O662 C667 1.259 . S
Co663 O664 2.061 . S
Co663 O669 2.052 . S
Co663 O671 2.135 . S
O664 Co663 2.061 . S
O664 C667 1.235 . S
C665 O668 1.238 . S
C665 O669 1.241 . S
C666 O659 1.247 . S
C666 O660 1.261 . S
C667 O662 1.259 . S
C667 O664 1.235 . S
O668 Co658 2.021 . S
O668 C665 1.238 . S
O669 Co663 2.052 . S
O669 C665 1.241 . S
O670 Co658 2.137 . S
O670 C661 1.247 . S
O671 Co658 2.244 . S
O671 C661 1.272 . S
O671 Co663 2.135 . S
Co672 O673 2.216 . S
Co672 O674 2.091 . S
Co672 O676 2.004 . S
Co672 O682 2.021 . S
Co672 O684 2.137 . S
Co672 O685 2.244 . S
O673 Co672 2.216 . S
O673 C680 1.247 . S
O674 Co672 2.091 . S
O674 C680 1.261 . S
C675 O684 1.247 . S
C675 O685 1.272 . S
O676 Co672 2.004 . S
O676 C681 1.259 . S
Co677 O678 2.061 . S
Co677 O683 2.052 . S
Co677 O685 2.135 . S
O678 Co677 2.061 . S
O678 C681 1.235 . S
C679 O682 1.238 . S
C679 O683 1.241 . S
C680 O673 1.247 . S
C680 O674 1.261 . S
C681 O676 1.259 . S
C681 O678 1.235 . S
O682 Co672 2.021 . S
O682 C679 1.238 . S
O683 Co677 2.052 . S
O683 C679 1.241 . S
O684 Co672 2.137 . S
O684 C675 1.247 . S
O685 Co672 2.244 . S
O685 C675 1.272 . S
O685 Co677 2.135 . S
Co686 O687 2.216 . S
Co686 O688 2.091 . S
Co686 O690 2.004 . S
Co686 O696 2.021 . S
Co686 O698 2.137 . S
Co686 O699 2.244 . S
O687 Co686 2.216 . S
O687 C694 1.247 . S
O688 Co686 2.091 . S
O688 C694 1.261 . S
C689 O698 1.247 . S
C689 O699 1.272 . S
O690 Co686 2.004 . S
O690 C695 1.259 . S
Co691 O692 2.061 . S
Co691 O697 2.052 . S
Co691 O699 2.135 . S
O692 Co691 2.061 . S
O692 C695 1.235 . S
C693 O696 1.238 . S
C693 O697 1.241 . S
C694 O687 1.247 . S
C694 O688 1.261 . S
C695 O690 1.259 . S
C695 O692 1.235 . S
O696 Co686 2.021 . S
O696 C693 1.238 . S
O697 Co691 2.052 . S
O697 C693 1.241 . S
O698 Co686 2.137 . S
O698 C689 1.247 . S
O699 Co686 2.244 . S
O699 C689 1.272 . S
O699 Co691 2.135 . S
Co700 O701 2.216 . S
Co700 O702 2.091 1_565 S
Co700 O704 2.004 . S
Co700 O710 2.021 . S
Co700 O712 2.137 . S
Co700 O713 2.244 . S
O701 Co700 2.216 . S
O701 C708 1.247 . S
O702 Co700 2.091 1_545 S
O702 C708 1.261 1_545 S
C703 O712 1.247 . S
C703 O713 1.272 . S
O704 Co700 2.004 . S
O704 C709 1.259 . S
Co705 O706 2.061 . S
Co705 O711 2.052 . S
Co705 O713 2.135 . S
O706 Co705 2.061 . S
O706 C709 1.235 . S
C707 O710 1.238 . S
C707 O711 1.241 . S
C708 O701 1.247 . S
C708 O702 1.261 1_565 S
C709 O704 1.259 . S
C709 O706 1.235 . S
O710 Co700 2.021 . S
O710 C707 1.238 . S
O711 Co705 2.052 . S
O711 C707 1.241 . S
O712 Co700 2.137 . S
O712 C703 1.247 . S
O713 Co700 2.244 . S
O713 C703 1.272 . S
O713 Co705 2.135 . S
Co714 O715 2.216 . S
Co714 O716 2.091 . S
Co714 O718 2.004 . S
Co714 O724 2.021 . S
Co714 O726 2.137 . S
Co714 O727 2.244 . S
O715 Co714 2.216 . S
O715 C722 1.247 . S
O716 Co714 2.091 . S
O716 C722 1.261 . S
C717 O726 1.247 . S
C717 O727 1.272 . S
O718 Co714 2.004 . S
O718 C723 1.259 . S
Co719 O720 2.061 . S
Co719 O725 2.052 . S
Co719 O727 2.135 . S
O720 Co719 2.061 . S
O720 C723 1.235 . S
C721 O724 1.238 . S
C721 O725 1.241 . S
C722 O715 1.247 . S
C722 O716 1.261 . S
C723 O718 1.259 . S
C723 O720 1.235 . S
O724 Co714 2.021 . S
O724 C721 1.238 . S
O725 Co719 2.052 . S
O725 C721 1.241 . S
O726 Co714 2.137 . S
O726 C717 1.247 . S
O727 Co714 2.244 . S
O727 C717 1.272 . S
O727 Co719 2.135 . S
Co728 O729 2.216 . S
Co728 O730 2.091 . S
Co728 O732 2.004 . S
Co728 O738 2.021 . S
Co728 O740 2.137 . S
Co728 O741 2.244 . S
O729 Co728 2.216 . S
O729 C736 1.247 . S
O730 Co728 2.091 . S
O730 C736 1.261 . S
C731 O740 1.247 . S
C731 O741 1.272 . S
O732 Co728 2.004 . S
O732 C737 1.259 . S
Co733 O734 2.061 . S
Co733 O739 2.052 . S
Co733 O741 2.135 . S
O734 Co733 2.061 . S
O734 C737 1.235 . S
C735 O738 1.238 . S
C735 O739 1.241 . S
C736 O729 1.247 . S
C736 O730 1.261 . S
C737 O732 1.259 . S
C737 O734 1.235 . S
O738 Co728 2.021 . S
O738 C735 1.238 . S
O739 Co733 2.052 . S
O739 C735 1.241 . S
O740 Co728 2.137 . S
O740 C731 1.247 . S
O741 Co728 2.244 . S
O741 C731 1.272 . S
O741 Co733 2.135 . S
Co742 O743 2.216 . S
Co742 O744 2.091 . S
Co742 O746 2.004 . S
Co742 O752 2.021 . S
Co742 O754 2.137 . S
Co742 O755 2.244 . S
O743 Co742 2.216 . S
O743 C750 1.247 . S
O744 Co742 2.091 . S
O744 C750 1.261 . S
C745 O754 1.247 . S
C745 O755 1.272 . S
O746 Co742 2.004 . S
O746 C751 1.259 . S
Co747 O748 2.061 . S
Co747 O753 2.052 . S
Co747 O755 2.135 . S
O748 Co747 2.061 . S
O748 C751 1.235 . S
C749 O752 1.238 . S
C749 O753 1.241 . S
C750 O743 1.247 . S
C750 O744 1.261 . S
C751 O746 1.259 . S
C751 O748 1.235 . S
O752 Co742 2.021 . S
O752 C749 1.238 . S
O753 Co747 2.052 . S
O753 C749 1.241 . S
O754 Co742 2.137 . S
O754 C745 1.247 . S
O755 Co742 2.244 . S
O755 C745 1.272 . S
O755 Co747 2.135 . S
Co756 O757 2.216 . S
Co756 O758 2.091 1_545 S
Co756 O760 2.004 . S
Co756 O766 2.021 . S
Co756 O768 2.137 . S
Co756 O769 2.244 . S
O757 Co756 2.216 . S
O757 C764 1.247 . S
O758 Co756 2.091 1_565 S
O758 C764 1.261 1_565 S
C759 O768 1.247 . S
C759 O769 1.272 . S
O760 Co756 2.004 . S
O760 C765 1.259 . S
Co761 O762 2.061 . S
Co761 O767 2.052 . S
Co761 O769 2.135 . S
O762 Co761 2.061 . S
O762 C765 1.235 . S
C763 O766 1.238 . S
C763 O767 1.241 . S
C764 O757 1.247 . S
C764 O758 1.261 1_545 S
C765 O760 1.259 . S
C765 O762 1.235 . S
O766 Co756 2.021 . S
O766 C763 1.238 . S
O767 Co761 2.052 . S
O767 C763 1.241 . S
O768 Co756 2.137 . S
O768 C759 1.247 . S
O769 Co756 2.244 . S
O769 C759 1.272 . S
O769 Co761 2.135 . S
Co770 O771 2.216 . S
Co770 O772 2.091 . S
Co770 O774 2.004 . S
Co770 O780 2.021 . S
Co770 O782 2.137 . S
Co770 O783 2.244 . S
O771 Co770 2.216 . S
O771 C778 1.247 . S
O772 Co770 2.091 . S
O772 C778 1.261 . S
C773 O782 1.247 . S
C773 O783 1.272 . S
O774 Co770 2.004 . S
O774 C779 1.259 . S
Co775 O776 2.061 . S
Co775 O781 2.052 . S
Co775 O783 2.135 . S
O776 Co775 2.061 . S
O776 C779 1.235 . S
C777 O780 1.238 . S
C777 O781 1.241 . S
C778 O771 1.247 . S
C778 O772 1.261 . S
C779 O774 1.259 . S
C779 O776 1.235 . S
O780 Co770 2.021 . S
O780 C777 1.238 . S
O781 Co775 2.052 . S
O781 C777 1.241 . S
O782 Co770 2.137 . S
O782 C773 1.247 . S
O783 Co770 2.244 . S
O783 C773 1.272 . S
O783 Co775 2.135 . S
Co784 O785 2.216 . S
Co784 O786 2.091 1_554 S
Co784 O788 2.004 . S
Co784 O794 2.021 . S
Co784 O796 2.137 . S
Co784 O797 2.244 . S
O785 Co784 2.216 . S
O785 C792 1.247 . S
O786 Co784 2.091 1_556 S
O786 C792 1.261 1_556 S
C787 O796 1.247 . S
C787 O797 1.272 . S
O788 Co784 2.004 . S
O788 C793 1.259 . S
Co789 O790 2.061 . S
Co789 O795 2.052 . S
Co789 O797 2.135 . S
O790 Co789 2.061 . S
O790 C793 1.235 . S
C791 O794 1.238 . S
C791 O795 1.241 . S
C792 O785 1.247 . S
C792 O786 1.261 1_554 S
C793 O788 1.259 . S
C793 O790 1.235 . S
O794 Co784 2.021 . S
O794 C791 1.238 . S
O795 Co789 2.052 . S
O795 C791 1.241 . S
O796 Co784 2.137 . S
O796 C787 1.247 . S
O797 Co784 2.244 . S
O797 C787 1.272 . S
O797 Co789 2.135 . S
Co798 O799 2.216 . S
Co798 O800 2.091 . S
Co798 O802 2.004 . S
Co798 O808 2.021 . S
Co798 O810 2.137 . S
Co798 O811 2.244 . S
O799 Co798 2.216 . S
O799 C806 1.247 . S
O800 Co798 2.091 . S
O800 C806 1.261 . S
C801 O810 1.247 . S
C801 O811 1.272 . S
O802 Co798 2.004 . S
O802 C807 1.259 . S
Co803 O804 2.061 . S
Co803 O809 2.052 . S
Co803 O811 2.135 . S
O804 Co803 2.061 . S
O804 C807 1.235 . S
C805 O808 1.238 . S
C805 O809 1.241 . S
C806 O799 1.247 . S
C806 O800 1.261 . S
C807 O802 1.259 . S
C807 O804 1.235 . S
O808 Co798 2.021 . S
O808 C805 1.238 . S
O809 Co803 2.052 . S
O809 C805 1.241 . S
O810 Co798 2.137 . S
O810 C801 1.247 . S
O811 Co798 2.244 . S
O811 C801 1.272 . S
O811 Co803 2.135 . S
Co812 O813 2.216 . S
Co812 O814 2.091 . S
Co812 O816 2.004 . S
Co812 O822 2.021 . S
Co812 O824 2.137 . S
Co812 O825 2.244 . S
O813 Co812 2.216 . S
O813 C820 1.247 . S
O814 Co812 2.091 . S
O814 C820 1.261 . S
C815 O824 1.247 . S
C815 O825 1.272 . S
O816 Co812 2.004 . S
O816 C821 1.259 . S
Co817 O818 2.061 . S
Co817 O823 2.052 . S
Co817 O825 2.135 . S
O818 Co817 2.061 . S
O818 C821 1.235 . S
C819 O822 1.238 . S
C819 O823 1.241 . S
C820 O813 1.247 . S
C820 O814 1.261 . S
C821 O816 1.259 . S
C821 O818 1.235 . S
O822 Co812 2.021 . S
O822 C819 1.238 . S
O823 Co817 2.052 . S
O823 C819 1.241 . S
O824 Co812 2.137 . S
O824 C815 1.247 . S
O825 Co812 2.244 . S
O825 C815 1.272 . S
O825 Co817 2.135 . S
Co826 O827 2.216 . S
Co826 O828 2.091 . S
Co826 O830 2.004 . S
Co826 O836 2.021 . S
Co826 O838 2.137 . S
Co826 O839 2.244 . S
O827 Co826 2.216 . S
O827 C834 1.247 . S
O828 Co826 2.091 . S
O828 C834 1.261 . S
C829 O838 1.247 . S
C829 O839 1.272 . S
O830 Co826 2.004 . S
O830 C835 1.259 . S
Co831 O832 2.061 . S
Co831 O837 2.052 . S
Co831 O839 2.135 . S
O832 Co831 2.061 . S
O832 C835 1.235 . S
C833 O836 1.238 . S
C833 O837 1.241 . S
C834 O827 1.247 . S
C834 O828 1.261 . S
C835 O830 1.259 . S
C835 O832 1.235 . S
O836 Co826 2.021 . S
O836 C833 1.238 . S
O837 Co831 2.052 . S
O837 C833 1.241 . S
O838 Co826 2.137 . S
O838 C829 1.247 . S
O839 Co826 2.244 . S
O839 C829 1.272 . S
O839 Co831 2.135 . S
Co840 O841 2.216 . S
Co840 O842 2.091 1_556 S
Co840 O844 2.004 . S
Co840 O850 2.021 . S
Co840 O852 2.137 . S
Co840 O853 2.244 . S
O841 Co840 2.216 . S
O841 C848 1.247 . S
O842 Co840 2.091 1_554 S
O842 C848 1.261 1_554 S
C843 O852 1.247 . S
C843 O853 1.272 . S
O844 Co840 2.004 . S
O844 C849 1.259 . S
Co845 O846 2.061 . S
Co845 O851 2.052 . S
Co845 O853 2.135 . S
O846 Co845 2.061 . S
O846 C849 1.235 . S
C847 O850 1.238 . S
C847 O851 1.241 . S
C848 O841 1.247 . S
C848 O842 1.261 1_556 S
C849 O844 1.259 . S
C849 O846 1.235 . S
O850 Co840 2.021 . S
O850 C847 1.238 . S
O851 Co845 2.052 . S
O851 C847 1.241 . S
O852 Co840 2.137 . S
O852 C843 1.247 . S
O853 Co840 2.244 . S
O853 C843 1.272 . S
O853 Co845 2.135 . S
Co854 O855 2.216 . S
Co854 O856 2.091 . S
Co854 O858 2.004 . S
Co854 O864 2.021 . S
Co854 O866 2.137 . S
Co854 O867 2.244 . S
O855 Co854 2.216 . S
O855 C862 1.247 . S
O856 Co854 2.091 . S
O856 C862 1.261 . S
C857 O866 1.247 . S
C857 O867 1.272 . S
O858 Co854 2.004 . S
O858 C863 1.259 . S
Co859 O860 2.061 . S
Co859 O865 2.052 . S
Co859 O867 2.135 . S
O860 Co859 2.061 . S
O860 C863 1.235 . S
C861 O864 1.238 . S
C861 O865 1.241 . S
C862 O855 1.247 . S
C862 O856 1.261 . S
C863 O858 1.259 . S
C863 O860 1.235 . S
O864 Co854 2.021 . S
O864 C861 1.238 . S
O865 Co859 2.052 . S
O865 C861 1.241 . S
O866 Co854 2.137 . S
O866 C857 1.247 . S
O867 Co854 2.244 . S
O867 C857 1.272 . S
O867 Co859 2.135 . S
Co868 O869 2.216 . S
Co868 O870 2.091 . S
Co868 O872 2.004 . S
Co868 O878 2.021 . S
Co868 O880 2.137 . S
Co868 O881 2.244 . S
O869 Co868 2.216 . S
O869 C876 1.247 . S
O870 Co868 2.091 . S
O870 C876 1.261 . S
C871 O880 1.247 . S
C871 O881 1.272 . S
O872 Co868 2.004 . S
O872 C877 1.259 . S
Co873 O874 2.061 . S
Co873 O879 2.052 . S
Co873 O881 2.135 . S
O874 Co873 2.061 . S
O874 C877 1.235 . S
C875 O878 1.238 . S
C875 O879 1.241 . S
C876 O869 1.247 . S
C876 O870 1.261 . S
C877 O872 1.259 . S
C877 O874 1.235 . S
O878 Co868 2.021 . S
O878 C875 1.238 . S
O879 Co873 2.052 . S
O879 C875 1.241 . S
O880 Co868 2.137 . S
O880 C871 1.247 . S
O881 Co868 2.244 . S
O881 C871 1.272 . S
O881 Co873 2.135 . S
Co882 O883 2.216 . S
Co882 O884 2.091 . S
Co882 O886 2.004 . S
Co882 O892 2.021 . S
Co882 O894 2.137 . S
Co882 O895 2.244 . S
O883 Co882 2.216 . S
O883 C890 1.247 . S
O884 Co882 2.091 . S
O884 C890 1.261 . S
C885 O894 1.247 . S
C885 O895 1.272 . S
O886 Co882 2.004 . S
O886 C891 1.259 . S
Co887 O888 2.061 . S
Co887 O893 2.052 . S
Co887 O895 2.135 . S
O888 Co887 2.061 . S
O888 C891 1.235 . S
C889 O892 1.238 . S
C889 O893 1.241 . S
C890 O883 1.247 . S
C890 O884 1.261 . S
C891 O886 1.259 . S
C891 O888 1.235 . S
O892 Co882 2.021 . S
O892 C889 1.238 . S
O893 Co887 2.052 . S
O893 C889 1.241 . S
O894 Co882 2.137 . S
O894 C885 1.247 . S
O895 Co882 2.244 . S
O895 C885 1.272 . S
O895 Co887 2.135 . S
Co896 O897 2.216 . S
Co896 O898 2.091 1_455 S
Co896 O900 2.004 . S
Co896 O906 2.021 . S
Co896 O908 2.137 . S
Co896 O909 2.244 . S
O897 Co896 2.216 . S
O897 C904 1.247 . S
O898 Co896 2.091 1_655 S
O898 C904 1.261 1_655 S
C899 O908 1.247 . S
C899 O909 1.272 . S
O900 Co896 2.004 . S
O900 C905 1.259 . S
Co901 O902 2.061 . S
Co901 O907 2.052 . S
Co901 O909 2.135 . S
O902 Co901 2.061 . S
O902 C905 1.235 . S
C903 O906 1.238 . S
C903 O907 1.241 . S
C904 O897 1.247 . S
C904 O898 1.261 1_455 S
C905 O900 1.259 . S
C905 O902 1.235 . S
O906 Co896 2.021 . S
O906 C903 1.238 . S
O907 Co901 2.052 . S
O907 C903 1.241 . S
O908 Co896 2.137 . S
O908 C899 1.247 . S
O909 Co896 2.244 . S
O909 C899 1.272 . S
O909 Co901 2.135 . S
Co910 O911 2.216 . S
Co910 O912 2.091 . S
Co910 O914 2.004 . S
Co910 O920 2.021 . S
Co910 O922 2.137 . S
Co910 O923 2.244 . S
O911 Co910 2.216 . S
O911 C918 1.247 . S
O912 Co910 2.091 . S
O912 C918 1.261 . S
C913 O922 1.247 . S
C913 O923 1.272 . S
O914 Co910 2.004 . S
O914 C919 1.259 . S
Co915 O916 2.061 . S
Co915 O921 2.052 . S
Co915 O923 2.135 . S
O916 Co915 2.061 . S
O916 C919 1.235 . S
C917 O920 1.238 . S
C917 O921 1.241 . S
C918 O911 1.247 . S
C918 O912 1.261 . S
C919 O914 1.259 . S
C919 O916 1.235 . S
O920 Co910 2.021 . S
O920 C917 1.238 . S
O921 Co915 2.052 . S
O921 C917 1.241 . S
O922 Co910 2.137 . S
O922 C913 1.247 . S
O923 Co910 2.244 . S
O923 C913 1.272 . S
O923 Co915 2.135 . S
Co924 O925 2.216 . S
Co924 O926 2.091 . S
Co924 O928 2.004 . S
Co924 O934 2.021 . S
Co924 O936 2.137 . S
Co924 O937 2.244 . S
O925 Co924 2.216 . S
O925 C932 1.247 . S
O926 Co924 2.091 . S
O926 C932 1.261 . S
C927 O936 1.247 . S
C927 O937 1.272 . S
O928 Co924 2.004 . S
O928 C933 1.259 . S
Co929 O930 2.061 . S
Co929 O935 2.052 . S
Co929 O937 2.135 . S
O930 Co929 2.061 . S
O930 C933 1.235 . S
C931 O934 1.238 . S
C931 O935 1.241 . S
C932 O925 1.247 . S
C932 O926 1.261 . S
C933 O928 1.259 . S
C933 O930 1.235 . S
O934 Co924 2.021 . S
O934 C931 1.238 . S
O935 Co929 2.052 . S
O935 C931 1.241 . S
O936 Co924 2.137 . S
O936 C927 1.247 . S
O937 Co924 2.244 . S
O937 C927 1.272 . S
O937 Co929 2.135 . S
Co938 O939 2.216 . S
Co938 O940 2.091 . S
Co938 O942 2.004 . S
Co938 O948 2.021 . S
Co938 O950 2.137 . S
Co938 O951 2.244 . S
O939 Co938 2.216 . S
O939 C946 1.247 . S
O940 Co938 2.091 . S
O940 C946 1.261 . S
C941 O950 1.247 . S
C941 O951 1.272 . S
O942 Co938 2.004 . S
O942 C947 1.259 . S
Co943 O944 2.061 . S
Co943 O949 2.052 . S
Co943 O951 2.135 . S
O944 Co943 2.061 . S
O944 C947 1.235 . S
C945 O948 1.238 . S
C945 O949 1.241 . S
C946 O939 1.247 . S
C946 O940 1.261 . S
C947 O942 1.259 . S
C947 O944 1.235 . S
O948 Co938 2.021 . S
O948 C945 1.238 . S
O949 Co943 2.052 . S
O949 C945 1.241 . S
O950 Co938 2.137 . S
O950 C941 1.247 . S
O951 Co938 2.244 . S
O951 C941 1.272 . S
O951 Co943 2.135 . S
Co952 O953 2.216 . S
Co952 O954 2.091 . S
Co952 O956 2.004 . S
Co952 O962 2.021 . S
Co952 O964 2.137 . S
Co952 O965 2.244 . S
O953 Co952 2.216 . S
O953 C960 1.247 . S
O954 Co952 2.091 . S
O954 C960 1.261 . S
C955 O964 1.247 . S
C955 O965 1.272 . S
O956 Co952 2.004 . S
O956 C961 1.259 . S
Co957 O958 2.061 . S
Co957 O963 2.052 . S
Co957 O965 2.135 . S
O958 Co957 2.061 . S
O958 C961 1.235 . S
C959 O962 1.238 . S
C959 O963 1.241 . S
C960 O953 1.247 . S
C960 O954 1.261 . S
C961 O956 1.259 . S
C961 O958 1.235 . S
O962 Co952 2.021 . S
O962 C959 1.238 . S
O963 Co957 2.052 . S
O963 C959 1.241 . S
O964 Co952 2.137 . S
O964 C955 1.247 . S
O965 Co952 2.244 . S
O965 C955 1.272 . S
O965 Co957 2.135 . S
Co966 O967 2.216 . S
Co966 O968 2.091 1_655 S
Co966 O970 2.004 . S
Co966 O976 2.021 . S
Co966 O978 2.137 . S
Co966 O979 2.244 . S
O967 Co966 2.216 . S
O967 C974 1.247 . S
O968 Co966 2.091 1_455 S
O968 C974 1.261 1_455 S
C969 O978 1.247 . S
C969 O979 1.272 . S
O970 Co966 2.004 . S
O970 C975 1.259 . S
Co971 O972 2.061 . S
Co971 O977 2.052 . S
Co971 O979 2.135 . S
O972 Co971 2.061 . S
O972 C975 1.235 . S
C973 O976 1.238 . S
C973 O977 1.241 . S
C974 O967 1.247 . S
C974 O968 1.261 1_655 S
C975 O970 1.259 . S
C975 O972 1.235 . S
O976 Co966 2.021 . S
O976 C973 1.238 . S
O977 Co971 2.052 . S
O977 C973 1.241 . S
O978 Co966 2.137 . S
O978 C969 1.247 . S
O979 Co966 2.244 . S
O979 C969 1.272 . S
O979 Co971 2.135 . S
Co980 O981 2.216 . S
Co980 O982 2.091 . S
Co980 O984 2.004 . S
Co980 O990 2.021 . S
Co980 O992 2.137 . S
Co980 O993 2.244 . S
O981 Co980 2.216 . S
O981 C988 1.247 . S
O982 Co980 2.091 . S
O982 C988 1.261 . S
C983 O992 1.247 . S
C983 O993 1.272 . S
O984 Co980 2.004 . S
O984 C989 1.259 . S
Co985 O986 2.061 . S
Co985 O991 2.052 . S
Co985 O993 2.135 . S
O986 Co985 2.061 . S
O986 C989 1.235 . S
C987 O990 1.238 . S
C987 O991 1.241 . S
C988 O981 1.247 . S
C988 O982 1.261 . S
C989 O984 1.259 . S
C989 O986 1.235 . S
O990 Co980 2.021 . S
O990 C987 1.238 . S
O991 Co985 2.052 . S
O991 C987 1.241 . S
O992 Co980 2.137 . S
O992 C983 1.247 . S
O993 Co980 2.244 . S
O993 C983 1.272 . S
O993 Co985 2.135 . S
Co994 O995 2.216 . S
Co994 O996 2.091 . S
Co994 O998 2.004 . S
Co994 O1004 2.021 . S
Co994 O1006 2.137 . S
Co994 O1007 2.244 . S
O995 Co994 2.216 . S
O995 C1002 1.247 . S
O996 Co994 2.091 . S
O996 C1002 1.261 . S
C997 O1006 1.247 . S
C997 O1007 1.272 . S
O998 Co994 2.004 . S
O998 C1003 1.259 . S
Co999 O1000 2.061 . S
Co999 O1005 2.052 . S
Co999 O1007 2.135 . S
O1000 Co999 2.061 . S
O1000 C1003 1.235 . S
C1001 O1004 1.238 . S
C1001 O1005 1.241 . S
C1002 O995 1.247 . S
C1002 O996 1.261 . S
C1003 O998 1.259 . S
C1003 O1000 1.235 . S
O1004 Co994 2.021 . S
O1004 C1001 1.238 . S
O1005 Co999 2.052 . S
O1005 C1001 1.241 . S
O1006 Co994 2.137 . S
O1006 C997 1.247 . S
O1007 Co994 2.244 . S
O1007 C997 1.272 . S
O1007 Co999 2.135 . S
Co1008 O1009 2.216 . S
Co1008 O1010 2.091 1_545 S
Co1008 O1012 2.004 . S
Co1008 O1018 2.021 . S
Co1008 O1020 2.137 . S
Co1008 O1021 2.244 . S
O1009 Co1008 2.216 . S
O1009 C1016 1.247 . S
O1010 Co1008 2.091 1_565 S
O1010 C1016 1.261 1_565 S
C1011 O1020 1.247 . S
C1011 O1021 1.272 . S
O1012 Co1008 2.004 . S
O1012 C1017 1.259 . S
Co1013 O1014 2.061 . S
Co1013 O1019 2.052 . S
Co1013 O1021 2.135 . S
O1014 Co1013 2.061 . S
O1014 C1017 1.235 . S
C1015 O1018 1.238 . S
C1015 O1019 1.241 . S
C1016 O1009 1.247 . S
C1016 O1010 1.261 1_545 S
C1017 O1012 1.259 . S
C1017 O1014 1.235 . S
O1018 Co1008 2.021 . S
O1018 C1015 1.238 . S
O1019 Co1013 2.052 . S
O1019 C1015 1.241 . S
O1020 Co1008 2.137 . S
O1020 C1011 1.247 . S
O1021 Co1008 2.244 . S
O1021 C1011 1.272 . S
O1021 Co1013 2.135 . S
Co1022 O1023 2.216 . S
Co1022 O1024 2.091 . S
Co1022 O1026 2.004 . S
Co1022 O1032 2.021 . S
Co1022 O1034 2.137 . S
Co1022 O1035 2.244 . S
O1023 Co1022 2.216 . S
O1023 C1030 1.247 . S
O1024 Co1022 2.091 . S
O1024 C1030 1.261 . S
C1025 O1034 1.247 . S
C1025 O1035 1.272 . S
O1026 Co1022 2.004 . S
O1026 C1031 1.259 . S
Co1027 O1028 2.061 . S
Co1027 O1033 2.052 . S
Co1027 O1035 2.135 . S
O1028 Co1027 2.061 . S
O1028 C1031 1.235 . S
C1029 O1032 1.238 . S
C1029 O1033 1.241 . S
C1030 O1023 1.247 . S
C1030 O1024 1.261 . S
C1031 O1026 1.259 . S
C1031 O1028 1.235 . S
O1032 Co1022 2.021 . S
O1032 C1029 1.238 . S
O1033 Co1027 2.052 . S
O1033 C1029 1.241 . S
O1034 Co1022 2.137 . S
O1034 C1025 1.247 . S
O1035 Co1022 2.244 . S
O1035 C1025 1.272 . S
O1035 Co1027 2.135 . S
Co1036 O1037 2.216 . S
Co1036 O1038 2.091 . S
Co1036 O1040 2.004 . S
Co1036 O1046 2.021 . S
Co1036 O1048 2.137 . S
Co1036 O1049 2.244 . S
O1037 Co1036 2.216 . S
O1037 C1044 1.247 . S
O1038 Co1036 2.091 . S
O1038 C1044 1.261 . S
C1039 O1048 1.247 . S
C1039 O1049 1.272 . S
O1040 Co1036 2.004 . S
O1040 C1045 1.259 . S
Co1041 O1042 2.061 . S
Co1041 O1047 2.052 . S
Co1041 O1049 2.135 . S
O1042 Co1041 2.061 . S
O1042 C1045 1.235 . S
C1043 O1046 1.238 . S
C1043 O1047 1.241 . S
C1044 O1037 1.247 . S
C1044 O1038 1.261 . S
C1045 O1040 1.259 . S
C1045 O1042 1.235 . S
O1046 Co1036 2.021 . S
O1046 C1043 1.238 . S
O1047 Co1041 2.052 . S
O1047 C1043 1.241 . S
O1048 Co1036 2.137 . S
O1048 C1039 1.247 . S
O1049 Co1036 2.244 . S
O1049 C1039 1.272 . S
O1049 Co1041 2.135 . S
Co1050 O1051 2.216 . S
Co1050 O1052 2.091 . S
Co1050 O1054 2.004 . S
Co1050 O1060 2.021 . S
Co1050 O1062 2.137 . S
Co1050 O1063 2.244 . S
O1051 Co1050 2.216 . S
O1051 C1058 1.247 . S
O1052 Co1050 2.091 . S
O1052 C1058 1.261 . S
C1053 O1062 1.247 . S
C1053 O1063 1.272 . S
O1054 Co1050 2.004 . S
O1054 C1059 1.259 . S
Co1055 O1056 2.061 . S
Co1055 O1061 2.052 . S
Co1055 O1063 2.135 . S
O1056 Co1055 2.061 . S
O1056 C1059 1.235 . S
C1057 O1060 1.238 . S
C1057 O1061 1.241 . S
C1058 O1051 1.247 . S
C1058 O1052 1.261 . S
C1059 O1054 1.259 . S
C1059 O1056 1.235 . S
O1060 Co1050 2.021 . S
O1060 C1057 1.238 . S
O1061 Co1055 2.052 . S
O1061 C1057 1.241 . S
O1062 Co1050 2.137 . S
O1062 C1053 1.247 . S
O1063 Co1050 2.244 . S
O1063 C1053 1.272 . S
O1063 Co1055 2.135 . S
Co1064 O1065 2.216 . S
Co1064 O1066 2.091 1_565 S
Co1064 O1068 2.004 . S
Co1064 O1074 2.021 . S
Co1064 O1076 2.137 . S
Co1064 O1077 2.244 . S
O1065 Co1064 2.216 . S
O1065 C1072 1.247 . S
O1066 Co1064 2.091 1_545 S
O1066 C1072 1.261 1_545 S
C1067 O1076 1.247 . S
C1067 O1077 1.272 . S
O1068 Co1064 2.004 . S
O1068 C1073 1.259 . S
Co1069 O1070 2.061 . S
Co1069 O1075 2.052 . S
Co1069 O1077 2.135 . S
O1070 Co1069 2.061 . S
O1070 C1073 1.235 . S
C1071 O1074 1.238 . S
C1071 O1075 1.241 . S
C1072 O1065 1.247 . S
C1072 O1066 1.261 1_565 S
C1073 O1068 1.259 . S
C1073 O1070 1.235 . S
O1074 Co1064 2.021 . S
O1074 C1071 1.238 . S
O1075 Co1069 2.052 . S
O1075 C1071 1.241 . S
O1076 Co1064 2.137 . S
O1076 C1067 1.247 . S
O1077 Co1064 2.244 . S
O1077 C1067 1.272 . S
O1077 Co1069 2.135 . S
Co1078 O1079 2.216 . S
Co1078 O1080 2.091 . S
Co1078 O1082 2.004 . S
Co1078 O1088 2.021 . S
Co1078 O1090 2.137 . S
Co1078 O1091 2.244 . S
O1079 Co1078 2.216 . S
O1079 C1086 1.247 . S
O1080 Co1078 2.091 . S
O1080 C1086 1.261 . S
C1081 O1090 1.247 . S
C1081 O1091 1.272 . S
O1082 Co1078 2.004 . S
O1082 C1087 1.259 . S
Co1083 O1084 2.061 . S
Co1083 O1089 2.052 . S
Co1083 O1091 2.135 . S
O1084 Co1083 2.061 . S
O1084 C1087 1.235 . S
C1085 O1088 1.238 . S
C1085 O1089 1.241 . S
C1086 O1079 1.247 . S
C1086 O1080 1.261 . S
C1087 O1082 1.259 . S
C1087 O1084 1.235 . S
O1088 Co1078 2.021 . S
O1088 C1085 1.238 . S
O1089 Co1083 2.052 . S
O1089 C1085 1.241 . S
O1090 Co1078 2.137 . S
O1090 C1081 1.247 . S
O1091 Co1078 2.244 . S
O1091 C1081 1.272 . S
O1091 Co1083 2.135 . S
Co1092 O1093 2.216 . S
Co1092 O1094 2.091 . S
Co1092 O1096 2.004 . S
Co1092 O1102 2.021 . S
Co1092 O1104 2.137 . S
Co1092 O1105 2.244 . S
O1093 Co1092 2.216 . S
O1093 C1100 1.247 . S
O1094 Co1092 2.091 . S
O1094 C1100 1.261 . S
C1095 O1104 1.247 . S
C1095 O1105 1.272 . S
O1096 Co1092 2.004 . S
O1096 C1101 1.259 . S
Co1097 O1098 2.061 . S
Co1097 O1103 2.052 . S
Co1097 O1105 2.135 . S
O1098 Co1097 2.061 . S
O1098 C1101 1.235 . S
C1099 O1102 1.238 . S
C1099 O1103 1.241 . S
C1100 O1093 1.247 . S
C1100 O1094 1.261 . S
C1101 O1096 1.259 . S
C1101 O1098 1.235 . S
O1102 Co1092 2.021 . S
O1102 C1099 1.238 . S
O1103 Co1097 2.052 . S
O1103 C1099 1.241 . S
O1104 Co1092 2.137 . S
O1104 C1095 1.247 . S
O1105 Co1092 2.244 . S
O1105 C1095 1.272 . S
O1105 Co1097 2.135 . S
Co1106 O1107 2.216 . S
Co1106 O1108 2.091 . S
Co1106 O1110 2.004 . S
Co1106 O1116 2.021 . S
Co1106 O1118 2.137 . S
Co1106 O1119 2.244 . S
O1107 Co1106 2.216 . S
O1107 C1114 1.247 . S
O1108 Co1106 2.091 . S
O1108 C1114 1.261 . S
C1109 O1118 1.247 . S
C1109 O1119 1.272 . S
O1110 Co1106 2.004 . S
O1110 C1115 1.259 . S
Co1111 O1112 2.061 . S
Co1111 O1117 2.052 . S
Co1111 O1119 2.135 . S
O1112 Co1111 2.061 . S
O1112 C1115 1.235 . S
C1113 O1116 1.238 . S
C1113 O1117 1.241 . S
C1114 O1107 1.247 . S
C1114 O1108 1.261 . S
C1115 O1110 1.259 . S
C1115 O1112 1.235 . S
O1116 Co1106 2.021 . S
O1116 C1113 1.238 . S
O1117 Co1111 2.052 . S
O1117 C1113 1.241 . S
O1118 Co1106 2.137 . S
O1118 C1109 1.247 . S
O1119 Co1106 2.244 . S
O1119 C1109 1.272 . S
O1119 Co1111 2.135 . S
Co1120 O1121 2.216 . S
Co1120 O1122 2.091 . S
Co1120 O1124 2.004 . S
Co1120 O1130 2.021 . S
Co1120 O1132 2.137 . S
Co1120 O1133 2.244 . S
O1121 Co1120 2.216 . S
O1121 C1128 1.247 . S
O1122 Co1120 2.091 . S
O1122 C1128 1.261 . S
C1123 O1132 1.247 . S
C1123 O1133 1.272 . S
O1124 Co1120 2.004 . S
O1124 C1129 1.259 . S
Co1125 O1126 2.061 . S
Co1125 O1131 2.052 . S
Co1125 O1133 2.135 . S
O1126 Co1125 2.061 . S
O1126 C1129 1.235 . S
C1127 O1130 1.238 . S
C1127 O1131 1.241 . S
C1128 O1121 1.247 . S
C1128 O1122 1.261 . S
C1129 O1124 1.259 . S
C1129 O1126 1.235 . S
O1130 Co1120 2.021 . S
O1130 C1127 1.238 . S
O1131 Co1125 2.052 . S
O1131 C1127 1.241 . S
O1132 Co1120 2.137 . S
O1132 C1123 1.247 . S
O1133 Co1120 2.244 . S
O1133 C1123 1.272 . S
O1133 Co1125 2.135 . S
Co1134 O1135 2.216 . S
Co1134 O1136 2.091 . S
Co1134 O1138 2.004 . S
Co1134 O1144 2.021 . S
Co1134 O1146 2.137 . S
Co1134 O1147 2.244 . S
O1135 Co1134 2.216 . S
O1135 C1142 1.247 . S
O1136 Co1134 2.091 . S
O1136 C1142 1.261 . S
C1137 O1146 1.247 . S
C1137 O1147 1.272 . S
O1138 Co1134 2.004 . S
O1138 C1143 1.259 . S
Co1139 O1140 2.061 . S
Co1139 O1145 2.052 . S
Co1139 O1147 2.135 . S
O1140 Co1139 2.061 . S
O1140 C1143 1.235 . S
C1141 O1144 1.238 . S
C1141 O1145 1.241 . S
C1142 O1135 1.247 . S
C1142 O1136 1.261 . S
C1143 O1138 1.259 . S
C1143 O1140 1.235 . S
O1144 Co1134 2.021 . S
O1144 C1141 1.238 . S
O1145 Co1139 2.052 . S
O1145 C1141 1.241 . S
O1146 Co1134 2.137 . S
O1146 C1137 1.247 . S
O1147 Co1134 2.244 . S
O1147 C1137 1.272 . S
O1147 Co1139 2.135 . S
Co1148 O1149 2.216 . S
Co1148 O1150 2.091 1_554 S
Co1148 O1152 2.004 . S
Co1148 O1158 2.021 . S
Co1148 O1160 2.137 . S
Co1148 O1161 2.244 . S
O1149 Co1148 2.216 . S
O1149 C1156 1.247 . S
O1150 Co1148 2.091 1_556 S
O1150 C1156 1.261 1_556 S
C1151 O1160 1.247 . S
C1151 O1161 1.272 . S
O1152 Co1148 2.004 . S
O1152 C1157 1.259 . S
Co1153 O1154 2.061 . S
Co1153 O1159 2.052 . S
Co1153 O1161 2.135 . S
O1154 Co1153 2.061 . S
O1154 C1157 1.235 . S
C1155 O1158 1.238 . S
C1155 O1159 1.241 . S
C1156 O1149 1.247 . S
C1156 O1150 1.261 1_554 S
C1157 O1152 1.259 . S
C1157 O1154 1.235 . S
O1158 Co1148 2.021 . S
O1158 C1155 1.238 . S
O1159 Co1153 2.052 . S
O1159 C1155 1.241 . S
O1160 Co1148 2.137 . S
O1160 C1151 1.247 . S
O1161 Co1148 2.244 . S
O1161 C1151 1.272 . S
O1161 Co1153 2.135 . S
Co1162 O1163 2.216 . S
Co1162 O1164 2.091 . S
Co1162 O1166 2.004 . S
Co1162 O1172 2.021 . S
Co1162 O1174 2.137 . S
Co1162 O1175 2.244 . S
O1163 Co1162 2.216 . S
O1163 C1170 1.247 . S
O1164 Co1162 2.091 . S
O1164 C1170 1.261 . S
C1165 O1174 1.247 . S
C1165 O1175 1.272 . S
O1166 Co1162 2.004 . S
O1166 C1171 1.259 . S
Co1167 O1168 2.061 . S
Co1167 O1173 2.052 . S
Co1167 O1175 2.135 . S
O1168 Co1167 2.061 . S
O1168 C1171 1.235 . S
C1169 O1172 1.238 . S
C1169 O1173 1.241 . S
C1170 O1163 1.247 . S
C1170 O1164 1.261 . S
C1171 O1166 1.259 . S
C1171 O1168 1.235 . S
O1172 Co1162 2.021 . S
O1172 C1169 1.238 . S
O1173 Co1167 2.052 . S
O1173 C1169 1.241 . S
O1174 Co1162 2.137 . S
O1174 C1165 1.247 . S
O1175 Co1162 2.244 . S
O1175 C1165 1.272 . S
O1175 Co1167 2.135 . S
Co1176 O1177 2.216 . S
Co1176 O1178 2.091 . S
Co1176 O1180 2.004 . S
Co1176 O1186 2.021 . S
Co1176 O1188 2.137 . S
Co1176 O1189 2.244 . S
O1177 Co1176 2.216 . S
O1177 C1184 1.247 . S
O1178 Co1176 2.091 . S
O1178 C1184 1.261 . S
C1179 O1188 1.247 . S
C1179 O1189 1.272 . S
O1180 Co1176 2.004 . S
O1180 C1185 1.259 . S
Co1181 O1182 2.061 . S
Co1181 O1187 2.052 . S
Co1181 O1189 2.135 . S
O1182 Co1181 2.061 . S
O1182 C1185 1.235 . S
C1183 O1186 1.238 . S
C1183 O1187 1.241 . S
C1184 O1177 1.247 . S
C1184 O1178 1.261 . S
C1185 O1180 1.259 . S
C1185 O1182 1.235 . S
O1186 Co1176 2.021 . S
O1186 C1183 1.238 . S
O1187 Co1181 2.052 . S
O1187 C1183 1.241 . S
O1188 Co1176 2.137 . S
O1188 C1179 1.247 . S
O1189 Co1176 2.244 . S
O1189 C1179 1.272 . S
O1189 Co1181 2.135 . S
Co1190 O1191 2.216 . S
Co1190 O1192 2.091 . S
Co1190 O1194 2.004 . S
Co1190 O1200 2.021 . S
Co1190 O1202 2.137 . S
Co1190 O1203 2.244 . S
O1191 Co1190 2.216 . S
O1191 C1198 1.247 . S
O1192 Co1190 2.091 . S
O1192 C1198 1.261 . S
C1193 O1202 1.247 . S
C1193 O1203 1.272 . S
O1194 Co1190 2.004 . S
O1194 C1199 1.259 . S
Co1195 O1196 2.061 . S
Co1195 O1201 2.052 . S
Co1195 O1203 2.135 . S
O1196 Co1195 2.061 . S
O1196 C1199 1.235 . S
C1197 O1200 1.238 . S
C1197 O1201 1.241 . S
C1198 O1191 1.247 . S
C1198 O1192 1.261 . S
C1199 O1194 1.259 . S
C1199 O1196 1.235 . S
O1200 Co1190 2.021 . S
O1200 C1197 1.238 . S
O1201 Co1195 2.052 . S
O1201 C1197 1.241 . S
O1202 Co1190 2.137 . S
O1202 C1193 1.247 . S
O1203 Co1190 2.244 . S
O1203 C1193 1.272 . S
O1203 Co1195 2.135 . S
Co1204 O1205 2.216 . S
Co1204 O1206 2.091 1_556 S
Co1204 O1208 2.004 . S
Co1204 O1214 2.021 . S
Co1204 O1216 2.137 . S
Co1204 O1217 2.244 . S
O1205 Co1204 2.216 . S
O1205 C1212 1.247 . S
O1206 Co1204 2.091 1_554 S
O1206 C1212 1.261 1_554 S
C1207 O1216 1.247 . S
C1207 O1217 1.272 . S
O1208 Co1204 2.004 . S
O1208 C1213 1.259 . S
Co1209 O1210 2.061 . S
Co1209 O1215 2.052 . S
Co1209 O1217 2.135 . S
O1210 Co1209 2.061 . S
O1210 C1213 1.235 . S
C1211 O1214 1.238 . S
C1211 O1215 1.241 . S
C1212 O1205 1.247 . S
C1212 O1206 1.261 1_556 S
C1213 O1208 1.259 . S
C1213 O1210 1.235 . S
O1214 Co1204 2.021 . S
O1214 C1211 1.238 . S
O1215 Co1209 2.052 . S
O1215 C1211 1.241 . S
O1216 Co1204 2.137 . S
O1216 C1207 1.247 . S
O1217 Co1204 2.244 . S
O1217 C1207 1.272 . S
O1217 Co1209 2.135 . S
Co1218 O1219 2.216 . S
Co1218 O1220 2.091 . S
Co1218 O1222 2.004 . S
Co1218 O1228 2.021 . S
Co1218 O1230 2.137 . S
Co1218 O1231 2.244 . S
O1219 Co1218 2.216 . S
O1219 C1226 1.247 . S
O1220 Co1218 2.091 . S
O1220 C1226 1.261 . S
C1221 O1230 1.247 . S
C1221 O1231 1.272 . S
O1222 Co1218 2.004 . S
O1222 C1227 1.259 . S
Co1223 O1224 2.061 . S
Co1223 O1229 2.052 . S
Co1223 O1231 2.135 . S
O1224 Co1223 2.061 . S
O1224 C1227 1.235 . S
C1225 O1228 1.238 . S
C1225 O1229 1.241 . S
C1226 O1219 1.247 . S
C1226 O1220 1.261 . S
C1227 O1222 1.259 . S
C1227 O1224 1.235 . S
O1228 Co1218 2.021 . S
O1228 C1225 1.238 . S
O1229 Co1223 2.052 . S
O1229 C1225 1.241 . S
O1230 Co1218 2.137 . S
O1230 C1221 1.247 . S
O1231 Co1218 2.244 . S
O1231 C1221 1.272 . S
O1231 Co1223 2.135 . S
Co1232 O1233 2.216 . S
Co1232 O1234 2.091 1_455 S
Co1232 O1236 2.004 . S
Co1232 O1242 2.021 . S
Co1232 O1244 2.137 . S
Co1232 O1245 2.244 . S
O1233 Co1232 2.216 . S
O1233 C1240 1.247 . S
O1234 Co1232 2.091 1_655 S
O1234 C1240 1.261 1_655 S
C1235 O1244 1.247 . S
C1235 O1245 1.272 . S
O1236 Co1232 2.004 . S
O1236 C1241 1.259 . S
Co1237 O1238 2.061 . S
Co1237 O1243 2.052 . S
Co1237 O1245 2.135 . S
O1238 Co1237 2.061 . S
O1238 C1241 1.235 . S
C1239 O1242 1.238 . S
C1239 O1243 1.241 . S
C1240 O1233 1.247 . S
C1240 O1234 1.261 1_455 S
C1241 O1236 1.259 . S
C1241 O1238 1.235 . S
O1242 Co1232 2.021 . S
O1242 C1239 1.238 . S
O1243 Co1237 2.052 . S
O1243 C1239 1.241 . S
O1244 Co1232 2.137 . S
O1244 C1235 1.247 . S
O1245 Co1232 2.244 . S
O1245 C1235 1.272 . S
O1245 Co1237 2.135 . S
Co1246 O1247 2.216 . S
Co1246 O1248 2.091 . S
Co1246 O1250 2.004 . S
Co1246 O1256 2.021 . S
Co1246 O1258 2.137 . S
Co1246 O1259 2.244 . S
O1247 Co1246 2.216 . S
O1247 C1254 1.247 . S
O1248 Co1246 2.091 . S
O1248 C1254 1.261 . S
C1249 O1258 1.247 . S
C1249 O1259 1.272 . S
O1250 Co1246 2.004 . S
O1250 C1255 1.259 . S
Co1251 O1252 2.061 . S
Co1251 O1257 2.052 . S
Co1251 O1259 2.135 . S
O1252 Co1251 2.061 . S
O1252 C1255 1.235 . S
C1253 O1256 1.238 . S
C1253 O1257 1.241 . S
C1254 O1247 1.247 . S
C1254 O1248 1.261 . S
C1255 O1250 1.259 . S
C1255 O1252 1.235 . S
O1256 Co1246 2.021 . S
O1256 C1253 1.238 . S
O1257 Co1251 2.052 . S
O1257 C1253 1.241 . S
O1258 Co1246 2.137 . S
O1258 C1249 1.247 . S
O1259 Co1246 2.244 . S
O1259 C1249 1.272 . S
O1259 Co1251 2.135 . S
Co1260 O1261 2.216 . S
Co1260 O1262 2.091 . S
Co1260 O1264 2.004 . S
Co1260 O1270 2.021 . S
Co1260 O1272 2.137 . S
Co1260 O1273 2.244 . S
O1261 Co1260 2.216 . S
O1261 C1268 1.247 . S
O1262 Co1260 2.091 . S
O1262 C1268 1.261 . S
C1263 O1272 1.247 . S
C1263 O1273 1.272 . S
O1264 Co1260 2.004 . S
O1264 C1269 1.259 . S
Co1265 O1266 2.061 . S
Co1265 O1271 2.052 . S
Co1265 O1273 2.135 . S
O1266 Co1265 2.061 . S
O1266 C1269 1.235 . S
C1267 O1270 1.238 . S
C1267 O1271 1.241 . S
C1268 O1261 1.247 . S
C1268 O1262 1.261 . S
C1269 O1264 1.259 . S
C1269 O1266 1.235 . S
O1270 Co1260 2.021 . S
O1270 C1267 1.238 . S
O1271 Co1265 2.052 . S
O1271 C1267 1.241 . S
O1272 Co1260 2.137 . S
O1272 C1263 1.247 . S
O1273 Co1260 2.244 . S
O1273 C1263 1.272 . S
O1273 Co1265 2.135 . S
Co1274 O1275 2.216 . S
Co1274 O1276 2.091 . S
Co1274 O1278 2.004 . S
Co1274 O1284 2.021 . S
Co1274 O1286 2.137 . S
Co1274 O1287 2.244 . S
O1275 Co1274 2.216 . S
O1275 C1282 1.247 . S
O1276 Co1274 2.091 . S
O1276 C1282 1.261 . S
C1277 O1286 1.247 . S
C1277 O1287 1.272 . S
O1278 Co1274 2.004 . S
O1278 C1283 1.259 . S
Co1279 O1280 2.061 . S
Co1279 O1285 2.052 . S
Co1279 O1287 2.135 . S
O1280 Co1279 2.061 . S
O1280 C1283 1.235 . S
C1281 O1284 1.238 . S
C1281 O1285 1.241 . S
C1282 O1275 1.247 . S
C1282 O1276 1.261 . S
C1283 O1278 1.259 . S
C1283 O1280 1.235 . S
O1284 Co1274 2.021 . S
O1284 C1281 1.238 . S
O1285 Co1279 2.052 . S
O1285 C1281 1.241 . S
O1286 Co1274 2.137 . S
O1286 C1277 1.247 . S
O1287 Co1274 2.244 . S
O1287 C1277 1.272 . S
O1287 Co1279 2.135 . S
Co1288 O1289 2.216 . S
Co1288 O1290 2.091 . S
Co1288 O1292 2.004 . S
Co1288 O1298 2.021 . S
Co1288 O1300 2.137 . S
Co1288 O1301 2.244 . S
O1289 Co1288 2.216 . S
O1289 C1296 1.247 . S
O1290 Co1288 2.091 . S
O1290 C1296 1.261 . S
C1291 O1300 1.247 . S
C1291 O1301 1.272 . S
O1292 Co1288 2.004 . S
O1292 C1297 1.259 . S
Co1293 O1294 2.061 . S
Co1293 O1299 2.052 . S
Co1293 O1301 2.135 . S
O1294 Co1293 2.061 . S
O1294 C1297 1.235 . S
C1295 O1298 1.238 . S
C1295 O1299 1.241 . S
C1296 O1289 1.247 . S
C1296 O1290 1.261 . S
C1297 O1292 1.259 . S
C1297 O1294 1.235 . S
O1298 Co1288 2.021 . S
O1298 C1295 1.238 . S
O1299 Co1293 2.052 . S
O1299 C1295 1.241 . S
O1300 Co1288 2.137 . S
O1300 C1291 1.247 . S
O1301 Co1288 2.244 . S
O1301 C1291 1.272 . S
O1301 Co1293 2.135 . S
Co1302 O1303 2.216 . S
Co1302 O1304 2.091 1_655 S
Co1302 O1306 2.004 . S
Co1302 O1312 2.021 . S
Co1302 O1314 2.137 . S
Co1302 O1315 2.244 . S
O1303 Co1302 2.216 . S
O1303 C1310 1.247 . S
O1304 Co1302 2.091 1_455 S
O1304 C1310 1.261 1_455 S
C1305 O1314 1.247 . S
C1305 O1315 1.272 . S
O1306 Co1302 2.004 . S
O1306 C1311 1.259 . S
Co1307 O1308 2.061 . S
Co1307 O1313 2.052 . S
Co1307 O1315 2.135 . S
O1308 Co1307 2.061 . S
O1308 C1311 1.235 . S
C1309 O1312 1.238 . S
C1309 O1313 1.241 . S
C1310 O1303 1.247 . S
C1310 O1304 1.261 1_655 S
C1311 O1306 1.259 . S
C1311 O1308 1.235 . S
O1312 Co1302 2.021 . S
O1312 C1309 1.238 . S
O1313 Co1307 2.052 . S
O1313 C1309 1.241 . S
O1314 Co1302 2.137 . S
O1314 C1305 1.247 . S
O1315 Co1302 2.244 . S
O1315 C1305 1.272 . S
O1315 Co1307 2.135 . S
Co1316 O1317 2.216 . S
Co1316 O1318 2.091 . S
Co1316 O1320 2.004 . S
Co1316 O1326 2.021 . S
Co1316 O1328 2.137 . S
Co1316 O1329 2.244 . S
O1317 Co1316 2.216 . S
O1317 C1324 1.247 . S
O1318 Co1316 2.091 . S
O1318 C1324 1.261 . S
C1319 O1328 1.247 . S
C1319 O1329 1.272 . S
O1320 Co1316 2.004 . S
O1320 C1325 1.259 . S
Co1321 O1322 2.061 . S
Co1321 O1327 2.052 . S
Co1321 O1329 2.135 . S
O1322 Co1321 2.061 . S
O1322 C1325 1.235 . S
C1323 O1326 1.238 . S
C1323 O1327 1.241 . S
C1324 O1317 1.247 . S
C1324 O1318 1.261 . S
C1325 O1320 1.259 . S
C1325 O1322 1.235 . S
O1326 Co1316 2.021 . S
O1326 C1323 1.238 . S
O1327 Co1321 2.052 . S
O1327 C1323 1.241 . S
O1328 Co1316 2.137 . S
O1328 C1319 1.247 . S
O1329 Co1316 2.244 . S
O1329 C1319 1.272 . S
O1329 Co1321 2.135 . S
Co1330 O1331 2.216 . S
Co1330 O1332 2.091 . S
Co1330 O1334 2.004 . S
Co1330 O1340 2.021 . S
Co1330 O1342 2.137 . S
Co1330 O1343 2.244 . S
O1331 Co1330 2.216 . S
O1331 C1338 1.247 . S
O1332 Co1330 2.091 . S
O1332 C1338 1.261 . S
C1333 O1342 1.247 . S
C1333 O1343 1.272 . S
O1334 Co1330 2.004 . S
O1334 C1339 1.259 . S
Co1335 O1336 2.061 . S
Co1335 O1341 2.052 . S
Co1335 O1343 2.135 . S
O1336 Co1335 2.061 . S
O1336 C1339 1.235 . S
C1337 O1340 1.238 . S
C1337 O1341 1.241 . S
C1338 O1331 1.247 . S
C1338 O1332 1.261 . S
C1339 O1334 1.259 . S
C1339 O1336 1.235 . S
O1340 Co1330 2.021 . S
O1340 C1337 1.238 . S
O1341 Co1335 2.052 . S
O1341 C1337 1.241 . S
O1342 Co1330 2.137 . S
O1342 C1333 1.247 . S
O1343 Co1330 2.244 . S
O1343 C1333 1.272 . S
O1343 Co1335 2.135 . S
C1344 C1345 1.387 . S
C1344 H1348 0.950 . S
C1344 C1353 1.390 . S
C1345 C1344 1.387 . S
C1345 C1347 1.387 . S
H1346 C1353 0.950 . S
C1347 C1345 1.387 . S
C1347 C1349 1.390 . S
C1347 H1351 0.950 . S
H1348 C1344 0.950 . S
C1349 C1347 1.390 . S
C1349 C1350 1.387 . S
C1349 H1352 0.950 . S
C1350 C1349 1.387 . S
C1350 C1353 1.387 . S
H1351 C1347 0.950 . S
H1352 C1349 0.950 . S
C1353 C1344 1.390 . S
C1353 H1346 0.950 . S
C1353 C1350 1.387 . S
C1354 C1355 1.387 . S
C1354 H1358 0.950 . S
C1354 C1363 1.390 . S
C1355 C1354 1.387 . S
C1355 C1357 1.387 . S
H1356 C1363 0.950 . S
C1357 C1355 1.387 . S
C1357 C1359 1.390 . S
C1357 H1361 0.950 . S
H1358 C1354 0.950 . S
C1359 C1357 1.390 . S
C1359 C1360 1.387 . S
C1359 H1362 0.950 . S
C1360 C1359 1.387 . S
C1360 C1363 1.387 . S
H1361 C1357 0.950 . S
H1362 C1359 0.950 . S
C1363 C1354 1.390 . S
C1363 H1356 0.950 . S
C1363 C1360 1.387 . S
C1364 C1365 1.387 . S
C1364 H1368 0.950 . S
C1364 C1373 1.390 . S
C1365 C1364 1.387 . S
C1365 C1367 1.387 . S
H1366 C1373 0.950 . S
C1367 C1365 1.387 . S
C1367 C1369 1.390 . S
C1367 H1371 0.950 . S
H1368 C1364 0.950 . S
C1369 C1367 1.390 . S
C1369 C1370 1.387 . S
C1369 H1372 0.950 . S
C1370 C1369 1.387 . S
C1370 C1373 1.387 . S
H1371 C1367 0.950 . S
H1372 C1369 0.950 . S
C1373 C1364 1.390 . S
C1373 H1366 0.950 . S
C1373 C1370 1.387 . S
C1374 C1375 1.387 . S
C1374 H1378 0.950 . S
C1374 C1383 1.390 . S
C1375 C1374 1.387 . S
C1375 C1377 1.387 . S
H1376 C1383 0.950 . S
C1377 C1375 1.387 . S
C1377 C1379 1.390 . S
C1377 H1381 0.950 . S
H1378 C1374 0.950 . S
C1379 C1377 1.390 . S
C1379 C1380 1.387 . S
C1379 H1382 0.950 . S
C1380 C1379 1.387 . S
C1380 C1383 1.387 . S
H1381 C1377 0.950 . S
H1382 C1379 0.950 . S
C1383 C1374 1.390 . S
C1383 H1376 0.950 . S
C1383 C1380 1.387 . S
C1384 C1385 1.387 . S
C1384 H1388 0.950 . S
C1384 C1393 1.390 . S
C1385 C1384 1.387 . S
C1385 C1387 1.387 . S
H1386 C1393 0.950 . S
C1387 C1385 1.387 . S
C1387 C1389 1.390 . S
C1387 H1391 0.950 . S
H1388 C1384 0.950 . S
C1389 C1387 1.390 . S
C1389 C1390 1.387 . S
C1389 H1392 0.950 . S
C1390 C1389 1.387 . S
C1390 C1393 1.387 . S
H1391 C1387 0.950 . S
H1392 C1389 0.950 . S
C1393 C1384 1.390 . S
C1393 H1386 0.950 . S
C1393 C1390 1.387 . S
C1394 C1395 1.387 . S
C1394 H1398 0.950 . S
C1394 C1403 1.390 . S
C1395 C1394 1.387 . S
C1395 C1397 1.387 . S
H1396 C1403 0.950 . S
C1397 C1395 1.387 . S
C1397 C1399 1.390 . S
C1397 H1401 0.950 . S
H1398 C1394 0.950 . S
C1399 C1397 1.390 . S
C1399 C1400 1.387 . S
C1399 H1402 0.950 . S
C1400 C1399 1.387 . S
C1400 C1403 1.387 . S
H1401 C1397 0.950 . S
H1402 C1399 0.950 . S
C1403 C1394 1.390 . S
C1403 H1396 0.950 . S
C1403 C1400 1.387 . S
C1404 C1405 1.387 . S
C1404 H1408 0.950 . S
C1404 C1413 1.390 . S
C1405 C1404 1.387 . S
C1405 C1407 1.387 . S
H1406 C1413 0.950 . S
C1407 C1405 1.387 . S
C1407 C1409 1.390 . S
C1407 H1411 0.950 . S
H1408 C1404 0.950 . S
C1409 C1407 1.390 . S
C1409 C1410 1.387 . S
C1409 H1412 0.950 . S
C1410 C1409 1.387 . S
C1410 C1413 1.387 . S
H1411 C1407 0.950 . S
H1412 C1409 0.950 . S
C1413 C1404 1.390 . S
C1413 H1406 0.950 . S
C1413 C1410 1.387 . S
C1414 C1415 1.387 . S
C1414 H1418 0.950 . S
C1414 C1423 1.390 . S
C1415 C1414 1.387 . S
C1415 C1417 1.387 . S
H1416 C1423 0.950 . S
C1417 C1415 1.387 . S
C1417 C1419 1.390 . S
C1417 H1421 0.950 . S
H1418 C1414 0.950 . S
C1419 C1417 1.390 . S
C1419 C1420 1.387 . S
C1419 H1422 0.950 . S
C1420 C1419 1.387 . S
C1420 C1423 1.387 . S
H1421 C1417 0.950 . S
H1422 C1419 0.950 . S
C1423 C1414 1.390 . S
C1423 H1416 0.950 . S
C1423 C1420 1.387 . S
C1424 C1425 1.387 . S
C1424 H1428 0.950 . S
C1424 C1433 1.390 . S
C1425 C1424 1.387 . S
C1425 C1427 1.387 . S
H1426 C1433 0.950 . S
C1427 C1425 1.387 . S
C1427 C1429 1.390 . S
C1427 H1431 0.950 . S
H1428 C1424 0.950 . S
C1429 C1427 1.390 . S
C1429 C1430 1.387 . S
C1429 H1432 0.950 . S
C1430 C1429 1.387 . S
C1430 C1433 1.387 . S
H1431 C1427 0.950 . S
H1432 C1429 0.950 . S
C1433 C1424 1.390 . S
C1433 H1426 0.950 . S
C1433 C1430 1.387 . S
C1434 C1435 1.387 . S
C1434 H1438 0.950 . S
C1434 C1443 1.390 . S
C1435 C1434 1.387 . S
C1435 C1437 1.387 . S
H1436 C1443 0.950 . S
C1437 C1435 1.387 . S
C1437 C1439 1.390 . S
C1437 H1441 0.950 . S
H1438 C1434 0.950 . S
C1439 C1437 1.390 . S
C1439 C1440 1.387 . S
C1439 H1442 0.950 . S
C1440 C1439 1.387 . S
C1440 C1443 1.387 . S
H1441 C1437 0.950 . S
H1442 C1439 0.950 . S
C1443 C1434 1.390 . S
C1443 H1436 0.950 . S
C1443 C1440 1.387 . S
C1444 C1445 1.387 . S
C1444 H1448 0.950 . S
C1444 C1453 1.390 . S
C1445 C1444 1.387 . S
C1445 C1447 1.387 . S
H1446 C1453 0.950 . S
C1447 C1445 1.387 . S
C1447 C1449 1.390 . S
C1447 H1451 0.950 . S
H1448 C1444 0.950 . S
C1449 C1447 1.390 . S
C1449 C1450 1.387 . S
C1449 H1452 0.950 . S
C1450 C1449 1.387 . S
C1450 C1453 1.387 . S
H1451 C1447 0.950 . S
H1452 C1449 0.950 . S
C1453 C1444 1.390 . S
C1453 H1446 0.950 . S
C1453 C1450 1.387 . S
C1454 C1455 1.387 . S
C1454 H1458 0.950 . S
C1454 C1463 1.390 . S
C1455 C1454 1.387 . S
C1455 C1457 1.387 . S
H1456 C1463 0.950 . S
C1457 C1455 1.387 . S
C1457 C1459 1.390 . S
C1457 H1461 0.950 . S
H1458 C1454 0.950 . S
C1459 C1457 1.390 . S
C1459 C1460 1.387 . S
C1459 H1462 0.950 . S
C1460 C1459 1.387 . S
C1460 C1463 1.387 . S
H1461 C1457 0.950 . S
H1462 C1459 0.950 . S
C1463 C1454 1.390 . S
C1463 H1456 0.950 . S
C1463 C1460 1.387 . S
C1464 C1465 1.387 . S
C1464 H1468 0.950 . S
C1464 C1473 1.390 . S
C1465 C1464 1.387 . S
C1465 C1467 1.387 . S
H1466 C1473 0.950 . S
C1467 C1465 1.387 . S
C1467 C1469 1.390 . S
C1467 H1471 0.950 . S
H1468 C1464 0.950 . S
C1469 C1467 1.390 . S
C1469 C1470 1.387 . S
C1469 H1472 0.950 . S
C1470 C1469 1.387 . S
C1470 C1473 1.387 . S
H1471 C1467 0.950 . S
H1472 C1469 0.950 . S
C1473 C1464 1.390 . S
C1473 H1466 0.950 . S
C1473 C1470 1.387 . S
C1474 C1475 1.387 . S
C1474 H1478 0.950 . S
C1474 C1483 1.390 . S
C1475 C1474 1.387 . S
C1475 C1477 1.387 . S
H1476 C1483 0.950 . S
C1477 C1475 1.387 . S
C1477 C1479 1.390 . S
C1477 H1481 0.950 . S
H1478 C1474 0.950 . S
C1479 C1477 1.390 . S
C1479 C1480 1.387 . S
C1479 H1482 0.950 . S
C1480 C1479 1.387 . S
C1480 C1483 1.387 . S
H1481 C1477 0.950 . S
H1482 C1479 0.950 . S
C1483 C1474 1.390 . S
C1483 H1476 0.950 . S
C1483 C1480 1.387 . S
C1484 C1485 1.387 . S
C1484 H1488 0.950 . S
C1484 C1493 1.390 . S
C1485 C1484 1.387 . S
C1485 C1487 1.387 . S
H1486 C1493 0.950 . S
C1487 C1485 1.387 . S
C1487 C1489 1.390 . S
C1487 H1491 0.950 . S
H1488 C1484 0.950 . S
C1489 C1487 1.390 . S
C1489 C1490 1.387 . S
C1489 H1492 0.950 . S
C1490 C1489 1.387 . S
C1490 C1493 1.387 . S
H1491 C1487 0.950 . S
H1492 C1489 0.950 . S
C1493 C1484 1.390 . S
C1493 H1486 0.950 . S
C1493 C1490 1.387 . S
C1494 C1495 1.387 . S
C1494 H1498 0.950 . S
C1494 C1503 1.390 . S
C1495 C1494 1.387 . S
C1495 C1497 1.387 . S
H1496 C1503 0.950 . S
C1497 C1495 1.387 . S
C1497 C1499 1.390 . S
C1497 H1501 0.950 . S
H1498 C1494 0.950 . S
C1499 C1497 1.390 . S
C1499 C1500 1.387 . S
C1499 H1502 0.950 . S
C1500 C1499 1.387 . S
C1500 C1503 1.387 . S
H1501 C1497 0.950 . S
H1502 C1499 0.950 . S
C1503 C1494 1.390 . S
C1503 H1496 0.950 . S
C1503 C1500 1.387 . S
C1504 C1505 1.387 . S
C1504 H1508 0.950 . S
C1504 C1513 1.390 . S
C1505 C1504 1.387 . S
C1505 C1507 1.387 . S
H1506 C1513 0.950 . S
C1507 C1505 1.387 . S
C1507 C1509 1.390 . S
C1507 H1511 0.950 . S
H1508 C1504 0.950 . S
C1509 C1507 1.390 . S
C1509 C1510 1.387 . S
C1509 H1512 0.950 . S
C1510 C1509 1.387 . S
C1510 C1513 1.387 . S
H1511 C1507 0.950 . S
H1512 C1509 0.950 . S
C1513 C1504 1.390 . S
C1513 H1506 0.950 . S
C1513 C1510 1.387 . S
C1514 C1515 1.387 . S
C1514 H1518 0.950 . S
C1514 C1523 1.390 . S
C1515 C1514 1.387 . S
C1515 C1517 1.387 . S
H1516 C1523 0.950 . S
C1517 C1515 1.387 . S
C1517 C1519 1.390 . S
C1517 H1521 0.950 . S
H1518 C1514 0.950 . S
C1519 C1517 1.390 . S
C1519 C1520 1.387 . S
C1519 H1522 0.950 . S
C1520 C1519 1.387 . S
C1520 C1523 1.387 . S
H1521 C1517 0.950 . S
H1522 C1519 0.950 . S
C1523 C1514 1.390 . S
C1523 H1516 0.950 . S
C1523 C1520 1.387 . S
C1524 C1525 1.387 . S
C1524 H1528 0.950 . S
C1524 C1533 1.390 . S
C1525 C1524 1.387 . S
C1525 C1527 1.387 . S
H1526 C1533 0.950 . S
C1527 C1525 1.387 . S
C1527 C1529 1.390 . S
C1527 H1531 0.950 . S
H1528 C1524 0.950 . S
C1529 C1527 1.390 . S
C1529 C1530 1.387 . S
C1529 H1532 0.950 . S
C1530 C1529 1.387 . S
C1530 C1533 1.387 . S
H1531 C1527 0.950 . S
H1532 C1529 0.950 . S
C1533 C1524 1.390 . S
C1533 H1526 0.950 . S
C1533 C1530 1.387 . S
C1534 C1535 1.387 . S
C1534 H1538 0.950 . S
C1534 C1543 1.390 . S
C1535 C1534 1.387 . S
C1535 C1537 1.387 . S
H1536 C1543 0.950 . S
C1537 C1535 1.387 . S
C1537 C1539 1.390 . S
C1537 H1541 0.950 . S
H1538 C1534 0.950 . S
C1539 C1537 1.390 . S
C1539 C1540 1.387 . S
C1539 H1542 0.950 . S
C1540 C1539 1.387 . S
C1540 C1543 1.387 . S
H1541 C1537 0.950 . S
H1542 C1539 0.950 . S
C1543 C1534 1.390 . S
C1543 H1536 0.950 . S
C1543 C1540 1.387 . S
C1544 C1545 1.387 . S
C1544 H1548 0.950 . S
C1544 C1553 1.390 . S
C1545 C1544 1.387 . S
C1545 C1547 1.387 . S
H1546 C1553 0.950 . S
C1547 C1545 1.387 . S
C1547 C1549 1.390 . S
C1547 H1551 0.950 . S
H1548 C1544 0.950 . S
C1549 C1547 1.390 . S
C1549 C1550 1.387 . S
C1549 H1552 0.950 . S
C1550 C1549 1.387 . S
C1550 C1553 1.387 . S
H1551 C1547 0.950 . S
H1552 C1549 0.950 . S
C1553 C1544 1.390 . S
C1553 H1546 0.950 . S
C1553 C1550 1.387 . S
C1554 C1555 1.387 . S
C1554 H1558 0.950 . S
C1554 C1563 1.390 . S
C1555 C1554 1.387 . S
C1555 C1557 1.387 . S
H1556 C1563 0.950 . S
C1557 C1555 1.387 . S
C1557 C1559 1.390 . S
C1557 H1561 0.950 . S
H1558 C1554 0.950 . S
C1559 C1557 1.390 . S
C1559 C1560 1.387 . S
C1559 H1562 0.950 . S
C1560 C1559 1.387 . S
C1560 C1563 1.387 . S
H1561 C1557 0.950 . S
H1562 C1559 0.950 . S
C1563 C1554 1.390 . S
C1563 H1556 0.950 . S
C1563 C1560 1.387 . S
C1564 C1565 1.387 . S
C1564 H1568 0.950 . S
C1564 C1573 1.390 . S
C1565 C1564 1.387 . S
C1565 C1567 1.387 . S
H1566 C1573 0.950 . S
C1567 C1565 1.387 . S
C1567 C1569 1.390 . S
C1567 H1571 0.950 . S
H1568 C1564 0.950 . S
C1569 C1567 1.390 . S
C1569 C1570 1.387 . S
C1569 H1572 0.950 . S
C1570 C1569 1.387 . S
C1570 C1573 1.387 . S
H1571 C1567 0.950 . S
H1572 C1569 0.950 . S
C1573 C1564 1.390 . S
C1573 H1566 0.950 . S
C1573 C1570 1.387 . S
C1574 C1575 1.387 . S
C1574 H1578 0.950 . S
C1574 C1583 1.390 . S
C1575 C1574 1.387 . S
C1575 C1577 1.387 . S
H1576 C1583 0.950 . S
C1577 C1575 1.387 . S
C1577 C1579 1.390 . S
C1577 H1581 0.950 . S
H1578 C1574 0.950 . S
C1579 C1577 1.390 . S
C1579 C1580 1.387 . S
C1579 H1582 0.950 . S
C1580 C1579 1.387 . S
C1580 C1583 1.387 . S
H1581 C1577 0.950 . S
H1582 C1579 0.950 . S
C1583 C1574 1.390 . S
C1583 H1576 0.950 . S
C1583 C1580 1.387 . S
C1584 C1585 1.387 . S
C1584 H1588 0.950 . S
C1584 C1593 1.390 . S
C1585 C1584 1.387 . S
C1585 C1587 1.387 . S
H1586 C1593 0.950 . S
C1587 C1585 1.387 . S
C1587 C1589 1.390 . S
C1587 H1591 0.950 . S
H1588 C1584 0.950 . S
C1589 C1587 1.390 . S
C1589 C1590 1.387 . S
C1589 H1592 0.950 . S
C1590 C1589 1.387 . S
C1590 C1593 1.387 . S
H1591 C1587 0.950 . S
H1592 C1589 0.950 . S
C1593 C1584 1.390 . S
C1593 H1586 0.950 . S
C1593 C1590 1.387 . S
C1594 C1595 1.387 . S
C1594 H1598 0.950 . S
C1594 C1603 1.390 . S
C1595 C1594 1.387 . S
C1595 C1597 1.387 . S
H1596 C1603 0.950 . S
C1597 C1595 1.387 . S
C1597 C1599 1.390 . S
C1597 H1601 0.950 . S
H1598 C1594 0.950 . S
C1599 C1597 1.390 . S
C1599 C1600 1.387 . S
C1599 H1602 0.950 . S
C1600 C1599 1.387 . S
C1600 C1603 1.387 . S
H1601 C1597 0.950 . S
H1602 C1599 0.950 . S
C1603 C1594 1.390 . S
C1603 H1596 0.950 . S
C1603 C1600 1.387 . S
C1604 C1605 1.387 . S
C1604 H1608 0.950 . S
C1604 C1613 1.390 . S
C1605 C1604 1.387 . S
C1605 C1607 1.387 . S
H1606 C1613 0.950 . S
C1607 C1605 1.387 . S
C1607 C1609 1.390 . S
C1607 H1611 0.950 . S
H1608 C1604 0.950 . S
C1609 C1607 1.390 . S
C1609 C1610 1.387 . S
C1609 H1612 0.950 . S
C1610 C1609 1.387 . S
C1610 C1613 1.387 . S
H1611 C1607 0.950 . S
H1612 C1609 0.950 . S
C1613 C1604 1.390 . S
C1613 H1606 0.950 . S
C1613 C1610 1.387 . S
C1614 C1615 1.387 . S
C1614 H1618 0.950 . S
C1614 C1623 1.390 . S
C1615 C1614 1.387 . S
C1615 C1617 1.387 . S
H1616 C1623 0.950 . S
C1617 C1615 1.387 . S
C1617 C1619 1.390 . S
C1617 H1621 0.950 . S
H1618 C1614 0.950 . S
C1619 C1617 1.390 . S
C1619 C1620 1.387 . S
C1619 H1622 0.950 . S
C1620 C1619 1.387 . S
C1620 C1623 1.387 . S
H1621 C1617 0.950 . S
H1622 C1619 0.950 . S
C1623 C1614 1.390 . S
C1623 H1616 0.950 . S
C1623 C1620 1.387 . S
C1624 C1625 1.387 . S
C1624 H1628 0.950 . S
C1624 C1633 1.390 . S
C1625 C1624 1.387 . S
C1625 C1627 1.387 . S
H1626 C1633 0.950 . S
C1627 C1625 1.387 . S
C1627 C1629 1.390 . S
C1627 H1631 0.950 . S
H1628 C1624 0.950 . S
C1629 C1627 1.390 . S
C1629 C1630 1.387 . S
C1629 H1632 0.950 . S
C1630 C1629 1.387 . S
C1630 C1633 1.387 . S
H1631 C1627 0.950 . S
H1632 C1629 0.950 . S
C1633 C1624 1.390 . S
C1633 H1626 0.950 . S
C1633 C1630 1.387 . S
C1634 C1635 1.387 . S
C1634 H1638 0.950 . S
C1634 C1643 1.390 . S
C1635 C1634 1.387 . S
C1635 C1637 1.387 . S
H1636 C1643 0.950 . S
C1637 C1635 1.387 . S
C1637 C1639 1.390 . S
C1637 H1641 0.950 . S
H1638 C1634 0.950 . S
C1639 C1637 1.390 . S
C1639 C1640 1.387 . S
C1639 H1642 0.950 . S
C1640 C1639 1.387 . S
C1640 C1643 1.387 . S
H1641 C1637 0.950 . S
H1642 C1639 0.950 . S
C1643 C1634 1.390 . S
C1643 H1636 0.950 . S
C1643 C1640 1.387 . S
C1644 C1645 1.387 . S
C1644 H1648 0.950 . S
C1644 C1653 1.390 . S
C1645 C1644 1.387 . S
C1645 C1647 1.387 . S
H1646 C1653 0.950 . S
C1647 C1645 1.387 . S
C1647 C1649 1.390 . S
C1647 H1651 0.950 . S
H1648 C1644 0.950 . S
C1649 C1647 1.390 . S
C1649 C1650 1.387 . S
C1649 H1652 0.950 . S
C1650 C1649 1.387 . S
C1650 C1653 1.387 . S
H1651 C1647 0.950 . S
H1652 C1649 0.950 . S
C1653 C1644 1.390 . S
C1653 H1646 0.950 . S
C1653 C1650 1.387 . S
C1654 C1655 1.387 . S
C1654 H1658 0.950 . S
C1654 C1663 1.390 . S
C1655 C1654 1.387 . S
C1655 C1657 1.387 . S
H1656 C1663 0.950 . S
C1657 C1655 1.387 . S
C1657 C1659 1.390 . S
C1657 H1661 0.950 . S
H1658 C1654 0.950 . S
C1659 C1657 1.390 . S
C1659 C1660 1.387 . S
C1659 H1662 0.950 . S
C1660 C1659 1.387 . S
C1660 C1663 1.387 . S
H1661 C1657 0.950 . S
H1662 C1659 0.950 . S
C1663 C1654 1.390 . S
C1663 H1656 0.950 . S
C1663 C1660 1.387 . S
C1664 C1665 1.387 . S
C1664 H1668 0.950 . S
C1664 C1673 1.390 . S
C1665 C1664 1.387 . S
C1665 C1667 1.387 . S
H1666 C1673 0.950 . S
C1667 C1665 1.387 . S
C1667 C1669 1.390 . S
C1667 H1671 0.950 . S
H1668 C1664 0.950 . S
C1669 C1667 1.390 . S
C1669 C1670 1.387 . S
C1669 H1672 0.950 . S
C1670 C1669 1.387 . S
C1670 C1673 1.387 . S
H1671 C1667 0.950 . S
H1672 C1669 0.950 . S
C1673 C1664 1.390 . S
C1673 H1666 0.950 . S
C1673 C1670 1.387 . S
C1674 C1675 1.387 . S
C1674 H1678 0.950 . S
C1674 C1683 1.390 . S
C1675 C1674 1.387 . S
C1675 C1677 1.387 . S
H1676 C1683 0.950 . S
C1677 C1675 1.387 . S
C1677 C1679 1.390 . S
C1677 H1681 0.950 . S
H1678 C1674 0.950 . S
C1679 C1677 1.390 . S
C1679 C1680 1.387 . S
C1679 H1682 0.950 . S
C1680 C1679 1.387 . S
C1680 C1683 1.387 . S
H1681 C1677 0.950 . S
H1682 C1679 0.950 . S
C1683 C1674 1.390 . S
C1683 H1676 0.950 . S
C1683 C1680 1.387 . S
C1684 C1685 1.387 . S
C1684 H1688 0.950 . S
C1684 C1693 1.390 . S
C1685 C1684 1.387 . S
C1685 C1687 1.387 . S
H1686 C1693 0.950 . S
C1687 C1685 1.387 . S
C1687 C1689 1.390 . S
C1687 H1691 0.950 . S
H1688 C1684 0.950 . S
C1689 C1687 1.390 . S
C1689 C1690 1.387 . S
C1689 H1692 0.950 . S
C1690 C1689 1.387 . S
C1690 C1693 1.387 . S
H1691 C1687 0.950 . S
H1692 C1689 0.950 . S
C1693 C1684 1.390 . S
C1693 H1686 0.950 . S
C1693 C1690 1.387 . S
C1694 C1695 1.387 . S
C1694 H1698 0.950 . S
C1694 C1703 1.390 . S
C1695 C1694 1.387 . S
C1695 C1697 1.387 . S
H1696 C1703 0.950 . S
C1697 C1695 1.387 . S
C1697 C1699 1.390 . S
C1697 H1701 0.950 . S
H1698 C1694 0.950 . S
C1699 C1697 1.390 . S
C1699 C1700 1.387 . S
C1699 H1702 0.950 . S
C1700 C1699 1.387 . S
C1700 C1703 1.387 . S
H1701 C1697 0.950 . S
H1702 C1699 0.950 . S
C1703 C1694 1.390 . S
C1703 H1696 0.950 . S
C1703 C1700 1.387 . S
C1704 C1705 1.387 . S
C1704 H1708 0.950 . S
C1704 C1713 1.390 . S
C1705 C1704 1.387 . S
C1705 C1707 1.387 . S
H1706 C1713 0.950 . S
C1707 C1705 1.387 . S
C1707 C1709 1.390 . S
C1707 H1711 0.950 . S
H1708 C1704 0.950 . S
C1709 C1707 1.390 . S
C1709 C1710 1.387 . S
C1709 H1712 0.950 . S
C1710 C1709 1.387 . S
C1710 C1713 1.387 . S
H1711 C1707 0.950 . S
H1712 C1709 0.950 . S
C1713 C1704 1.390 . S
C1713 H1706 0.950 . S
C1713 C1710 1.387 . S
C1714 C1715 1.387 . S
C1714 H1718 0.950 . S
C1714 C1723 1.390 . S
C1715 C1714 1.387 . S
C1715 C1717 1.387 . S
H1716 C1723 0.950 . S
C1717 C1715 1.387 . S
C1717 C1719 1.390 . S
C1717 H1721 0.950 . S
H1718 C1714 0.950 . S
C1719 C1717 1.390 . S
C1719 C1720 1.387 . S
C1719 H1722 0.950 . S
C1720 C1719 1.387 . S
C1720 C1723 1.387 . S
H1721 C1717 0.950 . S
H1722 C1719 0.950 . S
C1723 C1714 1.390 . S
C1723 H1716 0.950 . S
C1723 C1720 1.387 . S
C1724 C1725 1.387 . S
C1724 H1728 0.950 . S
C1724 C1733 1.390 . S
C1725 C1724 1.387 . S
C1725 C1727 1.387 . S
H1726 C1733 0.950 . S
C1727 C1725 1.387 . S
C1727 C1729 1.390 . S
C1727 H1731 0.950 . S
H1728 C1724 0.950 . S
C1729 C1727 1.390 . S
C1729 C1730 1.387 . S
C1729 H1732 0.950 . S
C1730 C1729 1.387 . S
C1730 C1733 1.387 . S
H1731 C1727 0.950 . S
H1732 C1729 0.950 . S
C1733 C1724 1.390 . S
C1733 H1726 0.950 . S
C1733 C1730 1.387 . S
C1734 C1735 1.387 . S
C1734 H1738 0.950 . S
C1734 C1743 1.390 . S
C1735 C1734 1.387 . S
C1735 C1737 1.387 . S
H1736 C1743 0.950 . S
C1737 C1735 1.387 . S
C1737 C1739 1.390 . S
C1737 H1741 0.950 . S
H1738 C1734 0.950 . S
C1739 C1737 1.390 . S
C1739 C1740 1.387 . S
C1739 H1742 0.950 . S
C1740 C1739 1.387 . S
C1740 C1743 1.387 . S
H1741 C1737 0.950 . S
H1742 C1739 0.950 . S
C1743 C1734 1.390 . S
C1743 H1736 0.950 . S
C1743 C1740 1.387 . S
C1744 C1745 1.387 . S
C1744 H1748 0.950 . S
C1744 C1753 1.390 . S
C1745 C1744 1.387 . S
C1745 C1747 1.387 . S
H1746 C1753 0.950 . S
C1747 C1745 1.387 . S
C1747 C1749 1.390 . S
C1747 H1751 0.950 . S
H1748 C1744 0.950 . S
C1749 C1747 1.390 . S
C1749 C1750 1.387 . S
C1749 H1752 0.950 . S
C1750 C1749 1.387 . S
C1750 C1753 1.387 . S
H1751 C1747 0.950 . S
H1752 C1749 0.950 . S
C1753 C1744 1.390 . S
C1753 H1746 0.950 . S
C1753 C1750 1.387 . S
C1754 C1755 1.387 . S
C1754 H1758 0.950 . S
C1754 C1763 1.390 . S
C1755 C1754 1.387 . S
C1755 C1757 1.387 . S
H1756 C1763 0.950 . S
C1757 C1755 1.387 . S
C1757 C1759 1.390 . S
C1757 H1761 0.950 . S
H1758 C1754 0.950 . S
C1759 C1757 1.390 . S
C1759 C1760 1.387 . S
C1759 H1762 0.950 . S
C1760 C1759 1.387 . S
C1760 C1763 1.387 . S
H1761 C1757 0.950 . S
H1762 C1759 0.950 . S
C1763 C1754 1.390 . S
C1763 H1756 0.950 . S
C1763 C1760 1.387 . S
C1764 C1765 1.387 . S
C1764 H1768 0.950 . S
C1764 C1773 1.390 . S
C1765 C1764 1.387 . S
C1765 C1767 1.387 . S
H1766 C1773 0.950 . S
C1767 C1765 1.387 . S
C1767 C1769 1.390 . S
C1767 H1771 0.950 . S
H1768 C1764 0.950 . S
C1769 C1767 1.390 . S
C1769 C1770 1.387 . S
C1769 H1772 0.950 . S
C1770 C1769 1.387 . S
C1770 C1773 1.387 . S
H1771 C1767 0.950 . S
H1772 C1769 0.950 . S
C1773 C1764 1.390 . S
C1773 H1766 0.950 . S
C1773 C1770 1.387 . S
C1774 C1775 1.387 . S
C1774 H1778 0.950 . S
C1774 C1783 1.390 . S
C1775 C1774 1.387 . S
C1775 C1777 1.387 . S
H1776 C1783 0.950 . S
C1777 C1775 1.387 . S
C1777 C1779 1.390 . S
C1777 H1781 0.950 . S
H1778 C1774 0.950 . S
C1779 C1777 1.390 . S
C1779 C1780 1.387 . S
C1779 H1782 0.950 . S
C1780 C1779 1.387 . S
C1780 C1783 1.387 . S
H1781 C1777 0.950 . S
H1782 C1779 0.950 . S
C1783 C1774 1.390 . S
C1783 H1776 0.950 . S
C1783 C1780 1.387 . S
C1784 C1785 1.387 . S
C1784 H1788 0.950 . S
C1784 C1793 1.390 . S
C1785 C1784 1.387 . S
C1785 C1787 1.387 . S
H1786 C1793 0.950 . S
C1787 C1785 1.387 . S
C1787 C1789 1.390 . S
C1787 H1791 0.950 . S
H1788 C1784 0.950 . S
C1789 C1787 1.390 . S
C1789 C1790 1.387 . S
C1789 H1792 0.950 . S
C1790 C1789 1.387 . S
C1790 C1793 1.387 . S
H1791 C1787 0.950 . S
H1792 C1789 0.950 . S
C1793 C1784 1.390 . S
C1793 H1786 0.950 . S
C1793 C1790 1.387 . S
C1794 C1795 1.387 . S
C1794 H1798 0.950 . S
C1794 C1803 1.390 . S
C1795 C1794 1.387 . S
C1795 C1797 1.387 . S
H1796 C1803 0.950 . S
C1797 C1795 1.387 . S
C1797 C1799 1.390 . S
C1797 H1801 0.950 . S
H1798 C1794 0.950 . S
C1799 C1797 1.390 . S
C1799 C1800 1.387 . S
C1799 H1802 0.950 . S
C1800 C1799 1.387 . S
C1800 C1803 1.387 . S
H1801 C1797 0.950 . S
H1802 C1799 0.950 . S
C1803 C1794 1.390 . S
C1803 H1796 0.950 . S
C1803 C1800 1.387 . S
C1804 C1805 1.387 . S
C1804 H1808 0.950 . S
C1804 C1813 1.390 . S
C1805 C1804 1.387 . S
C1805 C1807 1.387 . S
H1806 C1813 0.950 . S
C1807 C1805 1.387 . S
C1807 C1809 1.390 . S
C1807 H1811 0.950 . S
H1808 C1804 0.950 . S
C1809 C1807 1.390 . S
C1809 C1810 1.387 . S
C1809 H1812 0.950 . S
C1810 C1809 1.387 . S
C1810 C1813 1.387 . S
H1811 C1807 0.950 . S
H1812 C1809 0.950 . S
C1813 C1804 1.390 . S
C1813 H1806 0.950 . S
C1813 C1810 1.387 . S
C1814 C1815 1.387 . S
C1814 H1818 0.950 . S
C1814 C1823 1.390 . S
C1815 C1814 1.387 . S
C1815 C1817 1.387 . S
H1816 C1823 0.950 . S
C1817 C1815 1.387 . S
C1817 C1819 1.390 . S
C1817 H1821 0.950 . S
H1818 C1814 0.950 . S
C1819 C1817 1.390 . S
C1819 C1820 1.387 . S
C1819 H1822 0.950 . S
C1820 C1819 1.387 . S
C1820 C1823 1.387 . S
H1821 C1817 0.950 . S
H1822 C1819 0.950 . S
C1823 C1814 1.390 . S
C1823 H1816 0.950 . S
C1823 C1820 1.387 . S
C1824 C1825 1.387 . S
C1824 H1828 0.950 . S
C1824 C1833 1.390 . S
C1825 C1824 1.387 . S
C1825 C1827 1.387 . S
H1826 C1833 0.950 . S
C1827 C1825 1.387 . S
C1827 C1829 1.390 . S
C1827 H1831 0.950 . S
H1828 C1824 0.950 . S
C1829 C1827 1.390 . S
C1829 C1830 1.387 . S
C1829 H1832 0.950 . S
C1830 C1829 1.387 . S
C1830 C1833 1.387 . S
H1831 C1827 0.950 . S
H1832 C1829 0.950 . S
C1833 C1824 1.390 . S
C1833 H1826 0.950 . S
C1833 C1830 1.387 . S
C1834 C1835 1.387 . S
C1834 H1838 0.950 . S
C1834 C1843 1.390 . S
C1835 C1834 1.387 . S
C1835 C1837 1.387 . S
H1836 C1843 0.950 . S
C1837 C1835 1.387 . S
C1837 C1839 1.390 . S
C1837 H1841 0.950 . S
H1838 C1834 0.950 . S
C1839 C1837 1.390 . S
C1839 C1840 1.387 . S
C1839 H1842 0.950 . S
C1840 C1839 1.387 . S
C1840 C1843 1.387 . S
H1841 C1837 0.950 . S
H1842 C1839 0.950 . S
C1843 C1834 1.390 . S
C1843 H1836 0.950 . S
C1843 C1840 1.387 . S
C1844 C1845 1.387 . S
C1844 H1848 0.950 . S
C1844 C1853 1.390 . S
C1845 C1844 1.387 . S
C1845 C1847 1.387 . S
H1846 C1853 0.950 . S
C1847 C1845 1.387 . S
C1847 C1849 1.390 . S
C1847 H1851 0.950 . S
H1848 C1844 0.950 . S
C1849 C1847 1.390 . S
C1849 C1850 1.387 . S
C1849 H1852 0.950 . S
C1850 C1849 1.387 . S
C1850 C1853 1.387 . S
H1851 C1847 0.950 . S
H1852 C1849 0.950 . S
C1853 C1844 1.390 . S
C1853 H1846 0.950 . S
C1853 C1850 1.387 . S
C1854 C1855 1.387 . S
C1854 H1858 0.950 . S
C1854 C1863 1.390 . S
C1855 C1854 1.387 . S
C1855 C1857 1.387 . S
H1856 C1863 0.950 . S
C1857 C1855 1.387 . S
C1857 C1859 1.390 . S
C1857 H1861 0.950 . S
H1858 C1854 0.950 . S
C1859 C1857 1.390 . S
C1859 C1860 1.387 . S
C1859 H1862 0.950 . S
C1860 C1859 1.387 . S
C1860 C1863 1.387 . S
H1861 C1857 0.950 . S
H1862 C1859 0.950 . S
C1863 C1854 1.390 . S
C1863 H1856 0.950 . S
C1863 C1860 1.387 . S
C1864 C1865 1.387 . S
C1864 H1868 0.950 . S
C1864 C1873 1.390 . S
C1865 C1864 1.387 . S
C1865 C1867 1.387 . S
H1866 C1873 0.950 . S
C1867 C1865 1.387 . S
C1867 C1869 1.390 . S
C1867 H1871 0.950 . S
H1868 C1864 0.950 . S
C1869 C1867 1.390 . S
C1869 C1870 1.387 . S
C1869 H1872 0.950 . S
C1870 C1869 1.387 . S
C1870 C1873 1.387 . S
H1871 C1867 0.950 . S
H1872 C1869 0.950 . S
C1873 C1864 1.390 . S
C1873 H1866 0.950 . S
C1873 C1870 1.387 . S
C1874 C1875 1.387 . S
C1874 H1878 0.950 . S
C1874 C1883 1.390 . S
C1875 C1874 1.387 . S
C1875 C1877 1.387 . S
H1876 C1883 0.950 . S
C1877 C1875 1.387 . S
C1877 C1879 1.390 . S
C1877 H1881 0.950 . S
H1878 C1874 0.950 . S
C1879 C1877 1.390 . S
C1879 C1880 1.387 . S
C1879 H1882 0.950 . S
C1880 C1879 1.387 . S
C1880 C1883 1.387 . S
H1881 C1877 0.950 . S
H1882 C1879 0.950 . S
C1883 C1874 1.390 . S
C1883 H1876 0.950 . S
C1883 C1880 1.387 . S
C1884 C1885 1.387 . S
C1884 H1888 0.950 . S
C1884 C1893 1.390 . S
C1885 C1884 1.387 . S
C1885 C1887 1.387 . S
H1886 C1893 0.950 . S
C1887 C1885 1.387 . S
C1887 C1889 1.390 . S
C1887 H1891 0.950 . S
H1888 C1884 0.950 . S
C1889 C1887 1.390 . S
C1889 C1890 1.387 . S
C1889 H1892 0.950 . S
C1890 C1889 1.387 . S
C1890 C1893 1.387 . S
H1891 C1887 0.950 . S
H1892 C1889 0.950 . S
C1893 C1884 1.390 . S
C1893 H1886 0.950 . S
C1893 C1890 1.387 . S
C1894 C1895 1.387 . S
C1894 H1898 0.950 . S
C1894 C1903 1.390 . S
C1895 C1894 1.387 . S
C1895 C1897 1.387 . S
H1896 C1903 0.950 . S
C1897 C1895 1.387 . S
C1897 C1899 1.390 . S
C1897 H1901 0.950 . S
H1898 C1894 0.950 . S
C1899 C1897 1.390 . S
C1899 C1900 1.387 . S
C1899 H1902 0.950 . S
C1900 C1899 1.387 . S
C1900 C1903 1.387 . S
H1901 C1897 0.950 . S
H1902 C1899 0.950 . S
C1903 C1894 1.390 . S
C1903 H1896 0.950 . S
C1903 C1900 1.387 . S
C1904 C1905 1.387 . S
C1904 H1908 0.950 . S
C1904 C1913 1.390 . S
C1905 C1904 1.387 . S
C1905 C1907 1.387 . S
H1906 C1913 0.950 . S
C1907 C1905 1.387 . S
C1907 C1909 1.390 . S
C1907 H1911 0.950 . S
H1908 C1904 0.950 . S
C1909 C1907 1.390 . S
C1909 C1910 1.387 . S
C1909 H1912 0.950 . S
C1910 C1909 1.387 . S
C1910 C1913 1.387 . S
H1911 C1907 0.950 . S
H1912 C1909 0.950 . S
C1913 C1904 1.390 . S
C1913 H1906 0.950 . S
C1913 C1910 1.387 . S
C1914 C1915 1.387 . S
C1914 H1918 0.950 . S
C1914 C1923 1.390 . S
C1915 C1914 1.387 . S
C1915 C1917 1.387 . S
H1916 C1923 0.950 . S
C1917 C1915 1.387 . S
C1917 C1919 1.390 . S
C1917 H1921 0.950 . S
H1918 C1914 0.950 . S
C1919 C1917 1.390 . S
C1919 C1920 1.387 . S
C1919 H1922 0.950 . S
C1920 C1919 1.387 . S
C1920 C1923 1.387 . S
H1921 C1917 0.950 . S
H1922 C1919 0.950 . S
C1923 C1914 1.390 . S
C1923 H1916 0.950 . S
C1923 C1920 1.387 . S
C1924 C1925 1.387 . S
C1924 H1928 0.950 . S
C1924 C1933 1.390 . S
C1925 C1924 1.387 . S
C1925 C1927 1.387 . S
H1926 C1933 0.950 . S
C1927 C1925 1.387 . S
C1927 C1929 1.390 . S
C1927 H1931 0.950 . S
H1928 C1924 0.950 . S
C1929 C1927 1.390 . S
C1929 C1930 1.387 . S
C1929 H1932 0.950 . S
C1930 C1929 1.387 . S
C1930 C1933 1.387 . S
H1931 C1927 0.950 . S
H1932 C1929 0.950 . S
C1933 C1924 1.390 . S
C1933 H1926 0.950 . S
C1933 C1930 1.387 . S
C1934 C1935 1.387 . S
C1934 H1938 0.950 . S
C1934 C1943 1.390 . S
C1935 C1934 1.387 . S
C1935 C1937 1.387 . S
H1936 C1943 0.950 . S
C1937 C1935 1.387 . S
C1937 C1939 1.390 . S
C1937 H1941 0.950 . S
H1938 C1934 0.950 . S
C1939 C1937 1.390 . S
C1939 C1940 1.387 . S
C1939 H1942 0.950 . S
C1940 C1939 1.387 . S
C1940 C1943 1.387 . S
H1941 C1937 0.950 . S
H1942 C1939 0.950 . S
C1943 C1934 1.390 . S
C1943 H1936 0.950 . S
C1943 C1940 1.387 . S
C1944 C1945 1.387 . S
C1944 H1948 0.950 . S
C1944 C1953 1.390 . S
C1945 C1944 1.387 . S
C1945 C1947 1.387 . S
H1946 C1953 0.950 . S
C1947 C1945 1.387 . S
C1947 C1949 1.390 . S
C1947 H1951 0.950 . S
H1948 C1944 0.950 . S
C1949 C1947 1.390 . S
C1949 C1950 1.387 . S
C1949 H1952 0.950 . S
C1950 C1949 1.387 . S
C1950 C1953 1.387 . S
H1951 C1947 0.950 . S
H1952 C1949 0.950 . S
C1953 C1944 1.390 . S
C1953 H1946 0.950 . S
C1953 C1950 1.387 . S
C1954 C1955 1.387 . S
C1954 H1958 0.950 . S
C1954 C1963 1.390 . S
C1955 C1954 1.387 . S
C1955 C1957 1.387 . S
H1956 C1963 0.950 . S
C1957 C1955 1.387 . S
C1957 C1959 1.390 . S
C1957 H1961 0.950 . S
H1958 C1954 0.950 . S
C1959 C1957 1.390 . S
C1959 C1960 1.387 . S
C1959 H1962 0.950 . S
C1960 C1959 1.387 . S
C1960 C1963 1.387 . S
H1961 C1957 0.950 . S
H1962 C1959 0.950 . S
C1963 C1954 1.390 . S
C1963 H1956 0.950 . S
C1963 C1960 1.387 . S
C1964 C1965 1.387 . S
C1964 H1968 0.950 . S
C1964 C1973 1.390 . S
C1965 C1964 1.387 . S
C1965 C1967 1.387 . S
H1966 C1973 0.950 . S
C1967 C1965 1.387 . S
C1967 C1969 1.390 . S
C1967 H1971 0.950 . S
H1968 C1964 0.950 . S
C1969 C1967 1.390 . S
C1969 C1970 1.387 . S
C1969 H1972 0.950 . S
C1970 C1969 1.387 . S
C1970 C1973 1.387 . S
H1971 C1967 0.950 . S
H1972 C1969 0.950 . S
C1973 C1964 1.390 . S
C1973 H1966 0.950 . S
C1973 C1970 1.387 . S
C1974 C1975 1.387 . S
C1974 H1978 0.950 . S
C1974 C1983 1.390 . S
C1975 C1974 1.387 . S
C1975 C1977 1.387 . S
H1976 C1983 0.950 . S
C1977 C1975 1.387 . S
C1977 C1979 1.390 . S
C1977 H1981 0.950 . S
H1978 C1974 0.950 . S
C1979 C1977 1.390 . S
C1979 C1980 1.387 . S
C1979 H1982 0.950 . S
C1980 C1979 1.387 . S
C1980 C1983 1.387 . S
H1981 C1977 0.950 . S
H1982 C1979 0.950 . S
C1983 C1974 1.390 . S
C1983 H1976 0.950 . S
C1983 C1980 1.387 . S
C1984 C1985 1.387 . S
C1984 H1988 0.950 . S
C1984 C1993 1.390 . S
C1985 C1984 1.387 . S
C1985 C1987 1.387 . S
H1986 C1993 0.950 . S
C1987 C1985 1.387 . S
C1987 C1989 1.390 . S
C1987 H1991 0.950 . S
H1988 C1984 0.950 . S
C1989 C1987 1.390 . S
C1989 C1990 1.387 . S
C1989 H1992 0.950 . S
C1990 C1989 1.387 . S
C1990 C1993 1.387 . S
H1991 C1987 0.950 . S
H1992 C1989 0.950 . S
C1993 C1984 1.390 . S
C1993 H1986 0.950 . S
C1993 C1990 1.387 . S
C1994 C1995 1.387 . S
C1994 H1998 0.950 . S
C1994 C2003 1.390 . S
C1995 C1994 1.387 . S
C1995 C1997 1.387 . S
H1996 C2003 0.950 . S
C1997 C1995 1.387 . S
C1997 C1999 1.390 . S
C1997 H2001 0.950 . S
H1998 C1994 0.950 . S
C1999 C1997 1.390 . S
C1999 C2000 1.387 . S
C1999 H2002 0.950 . S
C2000 C1999 1.387 . S
C2000 C2003 1.387 . S
H2001 C1997 0.950 . S
H2002 C1999 0.950 . S
C2003 C1994 1.390 . S
C2003 H1996 0.950 . S
C2003 C2000 1.387 . S
C2004 C2005 1.387 . S
C2004 H2008 0.950 . S
C2004 C2013 1.390 . S
C2005 C2004 1.387 . S
C2005 C2007 1.387 . S
H2006 C2013 0.950 . S
C2007 C2005 1.387 . S
C2007 C2009 1.390 . S
C2007 H2011 0.950 . S
H2008 C2004 0.950 . S
C2009 C2007 1.390 . S
C2009 C2010 1.387 . S
C2009 H2012 0.950 . S
C2010 C2009 1.387 . S
C2010 C2013 1.387 . S
H2011 C2007 0.950 . S
H2012 C2009 0.950 . S
C2013 C2004 1.390 . S
C2013 H2006 0.950 . S
C2013 C2010 1.387 . S
C2014 C2015 1.387 . S
C2014 H2018 0.950 . S
C2014 C2023 1.390 . S
C2015 C2014 1.387 . S
C2015 C2017 1.387 . S
H2016 C2023 0.950 . S
C2017 C2015 1.387 . S
C2017 C2019 1.390 . S
C2017 H2021 0.950 . S
H2018 C2014 0.950 . S
C2019 C2017 1.390 . S
C2019 C2020 1.387 . S
C2019 H2022 0.950 . S
C2020 C2019 1.387 . S
C2020 C2023 1.387 . S
H2021 C2017 0.950 . S
H2022 C2019 0.950 . S
C2023 C2014 1.390 . S
C2023 H2016 0.950 . S
C2023 C2020 1.387 . S
C2024 C2025 1.387 . S
C2024 H2028 0.950 . S
C2024 C2033 1.390 . S
C2025 C2024 1.387 . S
C2025 C2027 1.387 . S
H2026 C2033 0.950 . S
C2027 C2025 1.387 . S
C2027 C2029 1.390 . S
C2027 H2031 0.950 . S
H2028 C2024 0.950 . S
C2029 C2027 1.390 . S
C2029 C2030 1.387 . S
C2029 H2032 0.950 . S
C2030 C2029 1.387 . S
C2030 C2033 1.387 . S
H2031 C2027 0.950 . S
H2032 C2029 0.950 . S
C2033 C2024 1.390 . S
C2033 H2026 0.950 . S
C2033 C2030 1.387 . S
C2034 C2035 1.387 . S
C2034 H2038 0.950 . S
C2034 C2043 1.390 . S
C2035 C2034 1.387 . S
C2035 C2037 1.387 . S
H2036 C2043 0.950 . S
C2037 C2035 1.387 . S
C2037 C2039 1.390 . S
C2037 H2041 0.950 . S
H2038 C2034 0.950 . S
C2039 C2037 1.390 . S
C2039 C2040 1.387 . S
C2039 H2042 0.950 . S
C2040 C2039 1.387 . S
C2040 C2043 1.387 . S
H2041 C2037 0.950 . S
H2042 C2039 0.950 . S
C2043 C2034 1.390 . S
C2043 H2036 0.950 . S
C2043 C2040 1.387 . S
C2044 C2045 1.387 . S
C2044 H2048 0.950 . S
C2044 C2053 1.390 . S
C2045 C2044 1.387 . S
C2045 C2047 1.387 . S
H2046 C2053 0.950 . S
C2047 C2045 1.387 . S
C2047 C2049 1.390 . S
C2047 H2051 0.950 . S
H2048 C2044 0.950 . S
C2049 C2047 1.390 . S
C2049 C2050 1.387 . S
C2049 H2052 0.950 . S
C2050 C2049 1.387 . S
C2050 C2053 1.387 . S
H2051 C2047 0.950 . S
H2052 C2049 0.950 . S
C2053 C2044 1.390 . S
C2053 H2046 0.950 . S
C2053 C2050 1.387 . S
C2054 C2055 1.387 . S
C2054 H2058 0.950 . S
C2054 C2063 1.390 . S
C2055 C2054 1.387 . S
C2055 C2057 1.387 . S
H2056 C2063 0.950 . S
C2057 C2055 1.387 . S
C2057 C2059 1.390 . S
C2057 H2061 0.950 . S
H2058 C2054 0.950 . S
C2059 C2057 1.390 . S
C2059 C2060 1.387 . S
C2059 H2062 0.950 . S
C2060 C2059 1.387 . S
C2060 C2063 1.387 . S
H2061 C2057 0.950 . S
H2062 C2059 0.950 . S
C2063 C2054 1.390 . S
C2063 H2056 0.950 . S
C2063 C2060 1.387 . S
C2064 C2065 1.387 . S
C2064 H2068 0.950 . S
C2064 C2073 1.390 . S
C2065 C2064 1.387 . S
C2065 C2067 1.387 . S
H2066 C2073 0.950 . S
C2067 C2065 1.387 . S
C2067 C2069 1.390 . S
C2067 H2071 0.950 . S
H2068 C2064 0.950 . S
C2069 C2067 1.390 . S
C2069 C2070 1.387 . S
C2069 H2072 0.950 . S
C2070 C2069 1.387 . S
C2070 C2073 1.387 . S
H2071 C2067 0.950 . S
H2072 C2069 0.950 . S
C2073 C2064 1.390 . S
C2073 H2066 0.950 . S
C2073 C2070 1.387 . S
C2074 C2075 1.387 . S
C2074 H2078 0.950 . S
C2074 C2083 1.390 . S
C2075 C2074 1.387 . S
C2075 C2077 1.387 . S
H2076 C2083 0.950 . S
C2077 C2075 1.387 . S
C2077 C2079 1.390 . S
C2077 H2081 0.950 . S
H2078 C2074 0.950 . S
C2079 C2077 1.390 . S
C2079 C2080 1.387 . S
C2079 H2082 0.950 . S
C2080 C2079 1.387 . S
C2080 C2083 1.387 . S
H2081 C2077 0.950 . S
H2082 C2079 0.950 . S
C2083 C2074 1.390 . S
C2083 H2076 0.950 . S
C2083 C2080 1.387 . S
C2084 C2085 1.387 . S
C2084 H2088 0.950 . S
C2084 C2093 1.390 . S
C2085 C2084 1.387 . S
C2085 C2087 1.387 . S
H2086 C2093 0.950 . S
C2087 C2085 1.387 . S
C2087 C2089 1.390 . S
C2087 H2091 0.950 . S
H2088 C2084 0.950 . S
C2089 C2087 1.390 . S
C2089 C2090 1.387 . S
C2089 H2092 0.950 . S
C2090 C2089 1.387 . S
C2090 C2093 1.387 . S
H2091 C2087 0.950 . S
H2092 C2089 0.950 . S
C2093 C2084 1.390 . S
C2093 H2086 0.950 . S
C2093 C2090 1.387 . S
C2094 C2095 1.387 . S
C2094 H2098 0.950 . S
C2094 C2103 1.390 . S
C2095 C2094 1.387 . S
C2095 C2097 1.387 . S
H2096 C2103 0.950 . S
C2097 C2095 1.387 . S
C2097 C2099 1.390 . S
C2097 H2101 0.950 . S
H2098 C2094 0.950 . S
C2099 C2097 1.390 . S
C2099 C2100 1.387 . S
C2099 H2102 0.950 . S
C2100 C2099 1.387 . S
C2100 C2103 1.387 . S
H2101 C2097 0.950 . S
H2102 C2099 0.950 . S
C2103 C2094 1.390 . S
C2103 H2096 0.950 . S
C2103 C2100 1.387 . S
C2104 C2105 1.387 . S
C2104 H2108 0.950 . S
C2104 C2113 1.390 . S
C2105 C2104 1.387 . S
C2105 C2107 1.387 . S
H2106 C2113 0.950 . S
C2107 C2105 1.387 . S
C2107 C2109 1.390 . S
C2107 H2111 0.950 . S
H2108 C2104 0.950 . S
C2109 C2107 1.390 . S
C2109 C2110 1.387 . S
C2109 H2112 0.950 . S
C2110 C2109 1.387 . S
C2110 C2113 1.387 . S
H2111 C2107 0.950 . S
H2112 C2109 0.950 . S
C2113 C2104 1.390 . S
C2113 H2106 0.950 . S
C2113 C2110 1.387 . S
C2114 C2115 1.387 . S
C2114 H2118 0.950 . S
C2114 C2123 1.390 . S
C2115 C2114 1.387 . S
C2115 C2117 1.387 . S
H2116 C2123 0.950 . S
C2117 C2115 1.387 . S
C2117 C2119 1.390 . S
C2117 H2121 0.950 . S
H2118 C2114 0.950 . S
C2119 C2117 1.390 . S
C2119 C2120 1.387 . S
C2119 H2122 0.950 . S
C2120 C2119 1.387 . S
C2120 C2123 1.387 . S
H2121 C2117 0.950 . S
H2122 C2119 0.950 . S
C2123 C2114 1.390 . S
C2123 H2116 0.950 . S
C2123 C2120 1.387 . S
C2124 C2125 1.387 . S
C2124 H2128 0.950 . S
C2124 C2133 1.390 . S
C2125 C2124 1.387 . S
C2125 C2127 1.387 . S
H2126 C2133 0.950 . S
C2127 C2125 1.387 . S
C2127 C2129 1.390 . S
C2127 H2131 0.950 . S
H2128 C2124 0.950 . S
C2129 C2127 1.390 . S
C2129 C2130 1.387 . S
C2129 H2132 0.950 . S
C2130 C2129 1.387 . S
C2130 C2133 1.387 . S
H2131 C2127 0.950 . S
H2132 C2129 0.950 . S
C2133 C2124 1.390 . S
C2133 H2126 0.950 . S
C2133 C2130 1.387 . S
C2134 C2135 1.387 . S
C2134 H2138 0.950 . S
C2134 C2143 1.390 . S
C2135 C2134 1.387 . S
C2135 C2137 1.387 . S
H2136 C2143 0.950 . S
C2137 C2135 1.387 . S
C2137 C2139 1.390 . S
C2137 H2141 0.950 . S
H2138 C2134 0.950 . S
C2139 C2137 1.390 . S
C2139 C2140 1.387 . S
C2139 H2142 0.950 . S
C2140 C2139 1.387 . S
C2140 C2143 1.387 . S
H2141 C2137 0.950 . S
H2142 C2139 0.950 . S
C2143 C2134 1.390 . S
C2143 H2136 0.950 . S
C2143 C2140 1.387 . S
C2144 C2145 1.387 . S
C2144 H2148 0.950 . S
C2144 C2153 1.390 . S
C2145 C2144 1.387 . S
C2145 C2147 1.387 . S
H2146 C2153 0.950 . S
C2147 C2145 1.387 . S
C2147 C2149 1.390 . S
C2147 H2151 0.950 . S
H2148 C2144 0.950 . S
C2149 C2147 1.390 . S
C2149 C2150 1.387 . S
C2149 H2152 0.950 . S
C2150 C2149 1.387 . S
C2150 C2153 1.387 . S
H2151 C2147 0.950 . S
H2152 C2149 0.950 . S
C2153 C2144 1.390 . S
C2153 H2146 0.950 . S
C2153 C2150 1.387 . S
C2154 C2155 1.387 . S
C2154 H2158 0.950 . S
C2154 C2163 1.390 . S
C2155 C2154 1.387 . S
C2155 C2157 1.387 . S
H2156 C2163 0.950 . S
C2157 C2155 1.387 . S
C2157 C2159 1.390 . S
C2157 H2161 0.950 . S
H2158 C2154 0.950 . S
C2159 C2157 1.390 . S
C2159 C2160 1.387 . S
C2159 H2162 0.950 . S
C2160 C2159 1.387 . S
C2160 C2163 1.387 . S
H2161 C2157 0.950 . S
H2162 C2159 0.950 . S
C2163 C2154 1.390 . S
C2163 H2156 0.950 . S
C2163 C2160 1.387 . S
C2164 C2165 1.387 . S
C2164 H2168 0.950 . S
C2164 C2173 1.390 . S
C2165 C2164 1.387 . S
C2165 C2167 1.387 . S
H2166 C2173 0.950 . S
C2167 C2165 1.387 . S
C2167 C2169 1.390 . S
C2167 H2171 0.950 . S
H2168 C2164 0.950 . S
C2169 C2167 1.390 . S
C2169 C2170 1.387 . S
C2169 H2172 0.950 . S
C2170 C2169 1.387 . S
C2170 C2173 1.387 . S
H2171 C2167 0.950 . S
H2172 C2169 0.950 . S
C2173 C2164 1.390 . S
C2173 H2166 0.950 . S
C2173 C2170 1.387 . S
C2174 C2175 1.387 . S
C2174 H2178 0.950 . S
C2174 C2183 1.390 . S
C2175 C2174 1.387 . S
C2175 C2177 1.387 . S
H2176 C2183 0.950 . S
C2177 C2175 1.387 . S
C2177 C2179 1.390 . S
C2177 H2181 0.950 . S
H2178 C2174 0.950 . S
C2179 C2177 1.390 . S
C2179 C2180 1.387 . S
C2179 H2182 0.950 . S
C2180 C2179 1.387 . S
C2180 C2183 1.387 . S
H2181 C2177 0.950 . S
H2182 C2179 0.950 . S
C2183 C2174 1.390 . S
C2183 H2176 0.950 . S
C2183 C2180 1.387 . S
C2184 C2185 1.387 . S
C2184 H2188 0.950 . S
C2184 C2193 1.390 . S
C2185 C2184 1.387 . S
C2185 C2187 1.387 . S
H2186 C2193 0.950 . S
C2187 C2185 1.387 . S
C2187 C2189 1.390 . S
C2187 H2191 0.950 . S
H2188 C2184 0.950 . S
C2189 C2187 1.390 . S
C2189 C2190 1.387 . S
C2189 H2192 0.950 . S
C2190 C2189 1.387 . S
C2190 C2193 1.387 . S
H2191 C2187 0.950 . S
H2192 C2189 0.950 . S
C2193 C2184 1.390 . S
C2193 H2186 0.950 . S
C2193 C2190 1.387 . S
C2194 C2195 1.387 . S
C2194 H2198 0.950 . S
C2194 C2203 1.390 . S
C2195 C2194 1.387 . S
C2195 C2197 1.387 . S
H2196 C2203 0.950 . S
C2197 C2195 1.387 . S
C2197 C2199 1.390 . S
C2197 H2201 0.950 . S
H2198 C2194 0.950 . S
C2199 C2197 1.390 . S
C2199 C2200 1.387 . S
C2199 H2202 0.950 . S
C2200 C2199 1.387 . S
C2200 C2203 1.387 . S
H2201 C2197 0.950 . S
H2202 C2199 0.950 . S
C2203 C2194 1.390 . S
C2203 H2196 0.950 . S
C2203 C2200 1.387 . S
C2204 C2205 1.387 . S
C2204 H2208 0.950 . S
C2204 C2213 1.390 . S
C2205 C2204 1.387 . S
C2205 C2207 1.387 . S
H2206 C2213 0.950 . S
C2207 C2205 1.387 . S
C2207 C2209 1.390 . S
C2207 H2211 0.950 . S
H2208 C2204 0.950 . S
C2209 C2207 1.390 . S
C2209 C2210 1.387 . S
C2209 H2212 0.950 . S
C2210 C2209 1.387 . S
C2210 C2213 1.387 . S
H2211 C2207 0.950 . S
H2212 C2209 0.950 . S
C2213 C2204 1.390 . S
C2213 H2206 0.950 . S
C2213 C2210 1.387 . S
C2214 C2215 1.387 . S
C2214 H2218 0.950 . S
C2214 C2223 1.390 . S
C2215 C2214 1.387 . S
C2215 C2217 1.387 . S
H2216 C2223 0.950 . S
C2217 C2215 1.387 . S
C2217 C2219 1.390 . S
C2217 H2221 0.950 . S
H2218 C2214 0.950 . S
C2219 C2217 1.390 . S
C2219 C2220 1.387 . S
C2219 H2222 0.950 . S
C2220 C2219 1.387 . S
C2220 C2223 1.387 . S
H2221 C2217 0.950 . S
H2222 C2219 0.950 . S
C2223 C2214 1.390 . S
C2223 H2216 0.950 . S
C2223 C2220 1.387 . S
C2224 C2225 1.387 . S
C2224 H2228 0.950 . S
C2224 C2233 1.390 . S
C2225 C2224 1.387 . S
C2225 C2227 1.387 . S
H2226 C2233 0.950 . S
C2227 C2225 1.387 . S
C2227 C2229 1.390 . S
C2227 H2231 0.950 . S
H2228 C2224 0.950 . S
C2229 C2227 1.390 . S
C2229 C2230 1.387 . S
C2229 H2232 0.950 . S
C2230 C2229 1.387 . S
C2230 C2233 1.387 . S
H2231 C2227 0.950 . S
H2232 C2229 0.950 . S
C2233 C2224 1.390 . S
C2233 H2226 0.950 . S
C2233 C2230 1.387 . S
C2234 C2235 1.387 . S
C2234 H2238 0.950 . S
C2234 C2243 1.390 . S
C2235 C2234 1.387 . S
C2235 C2237 1.387 . S
H2236 C2243 0.950 . S
C2237 C2235 1.387 . S
C2237 C2239 1.390 . S
C2237 H2241 0.950 . S
H2238 C2234 0.950 . S
C2239 C2237 1.390 . S
C2239 C2240 1.387 . S
C2239 H2242 0.950 . S
C2240 C2239 1.387 . S
C2240 C2243 1.387 . S
H2241 C2237 0.950 . S
H2242 C2239 0.950 . S
C2243 C2234 1.390 . S
C2243 H2236 0.950 . S
C2243 C2240 1.387 . S
C2244 C2245 1.387 . S
C2244 H2248 0.950 . S
C2244 C2253 1.390 . S
C2245 C2244 1.387 . S
C2245 C2247 1.387 . S
H2246 C2253 0.950 . S
C2247 C2245 1.387 . S
C2247 C2249 1.390 . S
C2247 H2251 0.950 . S
H2248 C2244 0.950 . S
C2249 C2247 1.390 . S
C2249 C2250 1.387 . S
C2249 H2252 0.950 . S
C2250 C2249 1.387 . S
C2250 C2253 1.387 . S
H2251 C2247 0.950 . S
H2252 C2249 0.950 . S
C2253 C2244 1.390 . S
C2253 H2246 0.950 . S
C2253 C2250 1.387 . S
C2254 C2255 1.387 . S
C2254 H2258 0.950 . S
C2254 C2263 1.390 . S
C2255 C2254 1.387 . S
C2255 C2257 1.387 . S
H2256 C2263 0.950 . S
C2257 C2255 1.387 . S
C2257 C2259 1.390 . S
C2257 H2261 0.950 . S
H2258 C2254 0.950 . S
C2259 C2257 1.390 . S
C2259 C2260 1.387 . S
C2259 H2262 0.950 . S
C2260 C2259 1.387 . S
C2260 C2263 1.387 . S
H2261 C2257 0.950 . S
H2262 C2259 0.950 . S
C2263 C2254 1.390 . S
C2263 H2256 0.950 . S
C2263 C2260 1.387 . S
C2264 C2265 1.387 . S
C2264 H2268 0.950 . S
C2264 C2273 1.390 . S
C2265 C2264 1.387 . S
C2265 C2267 1.387 . S
H2266 C2273 0.950 . S
C2267 C2265 1.387 . S
C2267 C2269 1.390 . S
C2267 H2271 0.950 . S
H2268 C2264 0.950 . S
C2269 C2267 1.390 . S
C2269 C2270 1.387 . S
C2269 H2272 0.950 . S
C2270 C2269 1.387 . S
C2270 C2273 1.387 . S
H2271 C2267 0.950 . S
H2272 C2269 0.950 . S
C2273 C2264 1.390 . S
C2273 H2266 0.950 . S
C2273 C2270 1.387 . S
C2274 C2275 1.387 . S
C2274 H2278 0.950 . S
C2274 C2283 1.390 . S
C2275 C2274 1.387 . S
C2275 C2277 1.387 . S
H2276 C2283 0.950 . S
C2277 C2275 1.387 . S
C2277 C2279 1.390 . S
C2277 H2281 0.950 . S
H2278 C2274 0.950 . S
C2279 C2277 1.390 . S
C2279 C2280 1.387 . S
C2279 H2282 0.950 . S
C2280 C2279 1.387 . S
C2280 C2283 1.387 . S
H2281 C2277 0.950 . S
H2282 C2279 0.950 . S
C2283 C2274 1.390 . S
C2283 H2276 0.950 . S
C2283 C2280 1.387 . S
C2284 C2285 1.387 . S
C2284 H2288 0.950 . S
C2284 C2293 1.390 . S
C2285 C2284 1.387 . S
C2285 C2287 1.387 . S
H2286 C2293 0.950 . S
C2287 C2285 1.387 . S
C2287 C2289 1.390 . S
C2287 H2291 0.950 . S
H2288 C2284 0.950 . S
C2289 C2287 1.390 . S
C2289 C2290 1.387 . S
C2289 H2292 0.950 . S
C2290 C2289 1.387 . S
C2290 C2293 1.387 . S
H2291 C2287 0.950 . S
H2292 C2289 0.950 . S
C2293 C2284 1.390 . S
C2293 H2286 0.950 . S
C2293 C2290 1.387 . S
C2294 C2295 1.387 . S
C2294 H2298 0.950 . S
C2294 C2303 1.390 . S
C2295 C2294 1.387 . S
C2295 C2297 1.387 . S
H2296 C2303 0.950 . S
C2297 C2295 1.387 . S
C2297 C2299 1.390 . S
C2297 H2301 0.950 . S
H2298 C2294 0.950 . S
C2299 C2297 1.390 . S
C2299 C2300 1.387 . S
C2299 H2302 0.950 . S
C2300 C2299 1.387 . S
C2300 C2303 1.387 . S
H2301 C2297 0.950 . S
H2302 C2299 0.950 . S
C2303 C2294 1.390 . S
C2303 H2296 0.950 . S
C2303 C2300 1.387 . S
C2304 C2305 1.387 . S
C2304 H2308 0.950 . S
C2304 C2313 1.390 . S
C2305 C2304 1.387 . S
C2305 C2307 1.387 . S
H2306 C2313 0.950 . S
C2307 C2305 1.387 . S
C2307 C2309 1.390 . S
C2307 H2311 0.950 . S
H2308 C2304 0.950 . S
C2309 C2307 1.390 . S
C2309 C2310 1.387 . S
C2309 H2312 0.950 . S
C2310 C2309 1.387 . S
C2310 C2313 1.387 . S
H2311 C2307 0.950 . S
H2312 C2309 0.950 . S
C2313 C2304 1.390 . S
C2313 H2306 0.950 . S
C2313 C2310 1.387 . S
C2314 C2315 1.387 . S
C2314 H2318 0.950 . S
C2314 C2323 1.390 . S
C2315 C2314 1.387 . S
C2315 C2317 1.387 . S
H2316 C2323 0.950 . S
C2317 C2315 1.387 . S
C2317 C2319 1.390 . S
C2317 H2321 0.950 . S
H2318 C2314 0.950 . S
C2319 C2317 1.390 . S
C2319 C2320 1.387 . S
C2319 H2322 0.950 . S
C2320 C2319 1.387 . S
C2320 C2323 1.387 . S
H2321 C2317 0.950 . S
H2322 C2319 0.950 . S
C2323 C2314 1.390 . S
C2323 H2316 0.950 . S
C2323 C2320 1.387 . S
C2324 C2325 1.387 . S
C2324 H2328 0.950 . S
C2324 C2333 1.390 . S
C2325 C2324 1.387 . S
C2325 C2327 1.387 . S
H2326 C2333 0.950 . S
C2327 C2325 1.387 . S
C2327 C2329 1.390 . S
C2327 H2331 0.950 . S
H2328 C2324 0.950 . S
C2329 C2327 1.390 . S
C2329 C2330 1.387 . S
C2329 H2332 0.950 . S
C2330 C2329 1.387 . S
C2330 C2333 1.387 . S
H2331 C2327 0.950 . S
H2332 C2329 0.950 . S
C2333 C2324 1.390 . S
C2333 H2326 0.950 . S
C2333 C2330 1.387 . S
C2334 C2335 1.387 . S
C2334 H2338 0.950 . S
C2334 C2343 1.390 . S
C2335 C2334 1.387 . S
C2335 C2337 1.387 . S
H2336 C2343 0.950 . S
C2337 C2335 1.387 . S
C2337 C2339 1.390 . S
C2337 H2341 0.950 . S
H2338 C2334 0.950 . S
C2339 C2337 1.390 . S
C2339 C2340 1.387 . S
C2339 H2342 0.950 . S
C2340 C2339 1.387 . S
C2340 C2343 1.387 . S
H2341 C2337 0.950 . S
H2342 C2339 0.950 . S
C2343 C2334 1.390 . S
C2343 H2336 0.950 . S
C2343 C2340 1.387 . S
C2344 C2345 1.387 . S
C2344 H2348 0.950 . S
C2344 C2353 1.390 . S
C2345 C2344 1.387 . S
C2345 C2347 1.387 . S
H2346 C2353 0.950 . S
C2347 C2345 1.387 . S
C2347 C2349 1.390 . S
C2347 H2351 0.950 . S
H2348 C2344 0.950 . S
C2349 C2347 1.390 . S
C2349 C2350 1.387 . S
C2349 H2352 0.950 . S
C2350 C2349 1.387 . S
C2350 C2353 1.387 . S
H2351 C2347 0.950 . S
H2352 C2349 0.950 . S
C2353 C2344 1.390 . S
C2353 H2346 0.950 . S
C2353 C2350 1.387 . S
C2354 C2355 1.387 . S
C2354 H2358 0.950 . S
C2354 C2363 1.390 . S
C2355 C2354 1.387 . S
C2355 C2357 1.387 . S
H2356 C2363 0.950 . S
C2357 C2355 1.387 . S
C2357 C2359 1.390 . S
C2357 H2361 0.950 . S
H2358 C2354 0.950 . S
C2359 C2357 1.390 . S
C2359 C2360 1.387 . S
C2359 H2362 0.950 . S
C2360 C2359 1.387 . S
C2360 C2363 1.387 . S
H2361 C2357 0.950 . S
H2362 C2359 0.950 . S
C2363 C2354 1.390 . S
C2363 H2356 0.950 . S
C2363 C2360 1.387 . S
C2364 C2365 1.387 . S
C2364 H2368 0.950 . S
C2364 C2373 1.390 . S
C2365 C2364 1.387 . S
C2365 C2367 1.387 . S
H2366 C2373 0.950 . S
C2367 C2365 1.387 . S
C2367 C2369 1.390 . S
C2367 H2371 0.950 . S
H2368 C2364 0.950 . S
C2369 C2367 1.390 . S
C2369 C2370 1.387 . S
C2369 H2372 0.950 . S
C2370 C2369 1.387 . S
C2370 C2373 1.387 . S
H2371 C2367 0.950 . S
H2372 C2369 0.950 . S
C2373 C2364 1.390 . S
C2373 H2366 0.950 . S
C2373 C2370 1.387 . S
C2374 C2375 1.387 . S
C2374 H2378 0.950 . S
C2374 C2383 1.390 . S
C2375 C2374 1.387 . S
C2375 C2377 1.387 . S
H2376 C2383 0.950 . S
C2377 C2375 1.387 . S
C2377 C2379 1.390 . S
C2377 H2381 0.950 . S
H2378 C2374 0.950 . S
C2379 C2377 1.390 . S
C2379 C2380 1.387 . S
C2379 H2382 0.950 . S
C2380 C2379 1.387 . S
C2380 C2383 1.387 . S
H2381 C2377 0.950 . S
H2382 C2379 0.950 . S
C2383 C2374 1.390 . S
C2383 H2376 0.950 . S
C2383 C2380 1.387 . S
C2384 C2385 1.387 . S
C2384 H2388 0.950 . S
C2384 C2393 1.390 . S
C2385 C2384 1.387 . S
C2385 C2387 1.387 . S
H2386 C2393 0.950 . S
C2387 C2385 1.387 . S
C2387 C2389 1.390 . S
C2387 H2391 0.950 . S
H2388 C2384 0.950 . S
C2389 C2387 1.390 . S
C2389 C2390 1.387 . S
C2389 H2392 0.950 . S
C2390 C2389 1.387 . S
C2390 C2393 1.387 . S
H2391 C2387 0.950 . S
H2392 C2389 0.950 . S
C2393 C2384 1.390 . S
C2393 H2386 0.950 . S
C2393 C2390 1.387 . S
C2394 C2395 1.387 . S
C2394 H2398 0.950 . S
C2394 C2403 1.390 . S
C2395 C2394 1.387 . S
C2395 C2397 1.387 . S
H2396 C2403 0.950 . S
C2397 C2395 1.387 . S
C2397 C2399 1.390 . S
C2397 H2401 0.950 . S
H2398 C2394 0.950 . S
C2399 C2397 1.390 . S
C2399 C2400 1.387 . S
C2399 H2402 0.950 . S
C2400 C2399 1.387 . S
C2400 C2403 1.387 . S
H2401 C2397 0.950 . S
H2402 C2399 0.950 . S
C2403 C2394 1.390 . S
C2403 H2396 0.950 . S
C2403 C2400 1.387 . S
C2404 C2405 1.387 . S
C2404 H2408 0.950 . S
C2404 C2413 1.390 . S
C2405 C2404 1.387 . S
C2405 C2407 1.387 . S
H2406 C2413 0.950 . S
C2407 C2405 1.387 . S
C2407 C2409 1.390 . S
C2407 H2411 0.950 . S
H2408 C2404 0.950 . S
C2409 C2407 1.390 . S
C2409 C2410 1.387 . S
C2409 H2412 0.950 . S
C2410 C2409 1.387 . S
C2410 C2413 1.387 . S
H2411 C2407 0.950 . S
H2412 C2409 0.950 . S
C2413 C2404 1.390 . S
C2413 H2406 0.950 . S
C2413 C2410 1.387 . S
C2414 C2415 1.387 . S
C2414 H2418 0.950 . S
C2414 C2423 1.390 . S
C2415 C2414 1.387 . S
C2415 C2417 1.387 . S
H2416 C2423 0.950 . S
C2417 C2415 1.387 . S
C2417 C2419 1.390 . S
C2417 H2421 0.950 . S
H2418 C2414 0.950 . S
C2419 C2417 1.390 . S
C2419 C2420 1.387 . S
C2419 H2422 0.950 . S
C2420 C2419 1.387 . S
C2420 C2423 1.387 . S
H2421 C2417 0.950 . S
H2422 C2419 0.950 . S
C2423 C2414 1.390 . S
C2423 H2416 0.950 . S
C2423 C2420 1.387 . S
C2424 C2425 1.387 . S
C2424 H2428 0.950 . S
C2424 C2433 1.390 . S
C2425 C2424 1.387 . S
C2425 C2427 1.387 . S
H2426 C2433 0.950 . S
C2427 C2425 1.387 . S
C2427 C2429 1.390 . S
C2427 H2431 0.950 . S
H2428 C2424 0.950 . S
C2429 C2427 1.390 . S
C2429 C2430 1.387 . S
C2429 H2432 0.950 . S
C2430 C2429 1.387 . S
C2430 C2433 1.387 . S
H2431 C2427 0.950 . S
H2432 C2429 0.950 . S
C2433 C2424 1.390 . S
C2433 H2426 0.950 . S
C2433 C2430 1.387 . S
C2434 C2435 1.387 . S
C2434 H2438 0.950 . S
C2434 C2443 1.390 . S
C2435 C2434 1.387 . S
C2435 C2437 1.387 . S
H2436 C2443 0.950 . S
C2437 C2435 1.387 . S
C2437 C2439 1.390 . S
C2437 H2441 0.950 . S
H2438 C2434 0.950 . S
C2439 C2437 1.390 . S
C2439 C2440 1.387 . S
C2439 H2442 0.950 . S
C2440 C2439 1.387 . S
C2440 C2443 1.387 . S
H2441 C2437 0.950 . S
H2442 C2439 0.950 . S
C2443 C2434 1.390 . S
C2443 H2436 0.950 . S
C2443 C2440 1.387 . S
C2444 C2445 1.387 . S
C2444 H2448 0.950 . S
C2444 C2453 1.390 . S
C2445 C2444 1.387 . S
C2445 C2447 1.387 . S
H2446 C2453 0.950 . S
C2447 C2445 1.387 . S
C2447 C2449 1.390 . S
C2447 H2451 0.950 . S
H2448 C2444 0.950 . S
C2449 C2447 1.390 . S
C2449 C2450 1.387 . S
C2449 H2452 0.950 . S
C2450 C2449 1.387 . S
C2450 C2453 1.387 . S
H2451 C2447 0.950 . S
H2452 C2449 0.950 . S
C2453 C2444 1.390 . S
C2453 H2446 0.950 . S
C2453 C2450 1.387 . S
C2454 C2455 1.387 . S
C2454 H2458 0.950 . S
C2454 C2463 1.390 . S
C2455 C2454 1.387 . S
C2455 C2457 1.387 . S
H2456 C2463 0.950 . S
C2457 C2455 1.387 . S
C2457 C2459 1.390 . S
C2457 H2461 0.950 . S
H2458 C2454 0.950 . S
C2459 C2457 1.390 . S
C2459 C2460 1.387 . S
C2459 H2462 0.950 . S
C2460 C2459 1.387 . S
C2460 C2463 1.387 . S
H2461 C2457 0.950 . S
H2462 C2459 0.950 . S
C2463 C2454 1.390 . S
C2463 H2456 0.950 . S
C2463 C2460 1.387 . S
C2464 C2465 1.387 . S
C2464 H2468 0.950 . S
C2464 C2473 1.390 . S
C2465 C2464 1.387 . S
C2465 C2467 1.387 . S
H2466 C2473 0.950 . S
C2467 C2465 1.387 . S
C2467 C2469 1.390 . S
C2467 H2471 0.950 . S
H2468 C2464 0.950 . S
C2469 C2467 1.390 . S
C2469 C2470 1.387 . S
C2469 H2472 0.950 . S
C2470 C2469 1.387 . S
C2470 C2473 1.387 . S
H2471 C2467 0.950 . S
H2472 C2469 0.950 . S
C2473 C2464 1.390 . S
C2473 H2466 0.950 . S
C2473 C2470 1.387 . S
C2474 C2475 1.387 . S
C2474 H2478 0.950 . S
C2474 C2483 1.390 . S
C2475 C2474 1.387 . S
C2475 C2477 1.387 . S
H2476 C2483 0.950 . S
C2477 C2475 1.387 . S
C2477 C2479 1.390 . S
C2477 H2481 0.950 . S
H2478 C2474 0.950 . S
C2479 C2477 1.390 . S
C2479 C2480 1.387 . S
C2479 H2482 0.950 . S
C2480 C2479 1.387 . S
C2480 C2483 1.387 . S
H2481 C2477 0.950 . S
H2482 C2479 0.950 . S
C2483 C2474 1.390 . S
C2483 H2476 0.950 . S
C2483 C2480 1.387 . S
C2484 C2485 1.387 . S
C2484 H2488 0.950 . S
C2484 C2493 1.390 . S
C2485 C2484 1.387 . S
C2485 C2487 1.387 . S
H2486 C2493 0.950 . S
C2487 C2485 1.387 . S
C2487 C2489 1.390 . S
C2487 H2491 0.950 . S
H2488 C2484 0.950 . S
C2489 C2487 1.390 . S
C2489 C2490 1.387 . S
C2489 H2492 0.950 . S
C2490 C2489 1.387 . S
C2490 C2493 1.387 . S
H2491 C2487 0.950 . S
H2492 C2489 0.950 . S
C2493 C2484 1.390 . S
C2493 H2486 0.950 . S
C2493 C2490 1.387 . S
C2494 C2495 1.387 . S
C2494 H2498 0.950 . S
C2494 C2503 1.390 . S
C2495 C2494 1.387 . S
C2495 C2497 1.387 . S
H2496 C2503 0.950 . S
C2497 C2495 1.387 . S
C2497 C2499 1.390 . S
C2497 H2501 0.950 . S
H2498 C2494 0.950 . S
C2499 C2497 1.390 . S
C2499 C2500 1.387 . S
C2499 H2502 0.950 . S
C2500 C2499 1.387 . S
C2500 C2503 1.387 . S
H2501 C2497 0.950 . S
H2502 C2499 0.950 . S
C2503 C2494 1.390 . S
C2503 H2496 0.950 . S
C2503 C2500 1.387 . S
C2504 C2505 1.387 . S
C2504 H2508 0.950 . S
C2504 C2513 1.390 . S
C2505 C2504 1.387 . S
C2505 C2507 1.387 . S
H2506 C2513 0.950 . S
C2507 C2505 1.387 . S
C2507 C2509 1.390 . S
C2507 H2511 0.950 . S
H2508 C2504 0.950 . S
C2509 C2507 1.390 . S
C2509 C2510 1.387 . S
C2509 H2512 0.950 . S
C2510 C2509 1.387 . S
C2510 C2513 1.387 . S
H2511 C2507 0.950 . S
H2512 C2509 0.950 . S
C2513 C2504 1.390 . S
C2513 H2506 0.950 . S
C2513 C2510 1.387 . S
C2514 C2515 1.387 . S
C2514 H2518 0.950 . S
C2514 C2523 1.390 . S
C2515 C2514 1.387 . S
C2515 C2517 1.387 . S
H2516 C2523 0.950 . S
C2517 C2515 1.387 . S
C2517 C2519 1.390 . S
C2517 H2521 0.950 . S
H2518 C2514 0.950 . S
C2519 C2517 1.390 . S
C2519 C2520 1.387 . S
C2519 H2522 0.950 . S
C2520 C2519 1.387 . S
C2520 C2523 1.387 . S
H2521 C2517 0.950 . S
H2522 C2519 0.950 . S
C2523 C2514 1.390 . S
C2523 H2516 0.950 . S
C2523 C2520 1.387 . S
C2524 C2525 1.387 . S
C2524 H2528 0.950 . S
C2524 C2533 1.390 . S
C2525 C2524 1.387 . S
C2525 C2527 1.387 . S
H2526 C2533 0.950 . S
C2527 C2525 1.387 . S
C2527 C2529 1.390 . S
C2527 H2531 0.950 . S
H2528 C2524 0.950 . S
C2529 C2527 1.390 . S
C2529 C2530 1.387 . S
C2529 H2532 0.950 . S
C2530 C2529 1.387 . S
C2530 C2533 1.387 . S
H2531 C2527 0.950 . S
H2532 C2529 0.950 . S
C2533 C2524 1.390 . S
C2533 H2526 0.950 . S
C2533 C2530 1.387 . S
C2534 C2535 1.387 . S
C2534 H2538 0.950 . S
C2534 C2543 1.390 . S
C2535 C2534 1.387 . S
C2535 C2537 1.387 . S
H2536 C2543 0.950 . S
C2537 C2535 1.387 . S
C2537 C2539 1.390 . S
C2537 H2541 0.950 . S
H2538 C2534 0.950 . S
C2539 C2537 1.390 . S
C2539 C2540 1.387 . S
C2539 H2542 0.950 . S
C2540 C2539 1.387 . S
C2540 C2543 1.387 . S
H2541 C2537 0.950 . S
H2542 C2539 0.950 . S
C2543 C2534 1.390 . S
C2543 H2536 0.950 . S
C2543 C2540 1.387 . S
C2544 C2545 1.387 . S
C2544 H2548 0.950 . S
C2544 C2553 1.390 . S
C2545 C2544 1.387 . S
C2545 C2547 1.387 . S
H2546 C2553 0.950 . S
C2547 C2545 1.387 . S
C2547 C2549 1.390 . S
C2547 H2551 0.950 . S
H2548 C2544 0.950 . S
C2549 C2547 1.390 . S
C2549 C2550 1.387 . S
C2549 H2552 0.950 . S
C2550 C2549 1.387 . S
C2550 C2553 1.387 . S
H2551 C2547 0.950 . S
H2552 C2549 0.950 . S
C2553 C2544 1.390 . S
C2553 H2546 0.950 . S
C2553 C2550 1.387 . S
C2554 C2555 1.387 . S
C2554 H2558 0.950 . S
C2554 C2563 1.390 . S
C2555 C2554 1.387 . S
C2555 C2557 1.387 . S
H2556 C2563 0.950 . S
C2557 C2555 1.387 . S
C2557 C2559 1.390 . S
C2557 H2561 0.950 . S
H2558 C2554 0.950 . S
C2559 C2557 1.390 . S
C2559 C2560 1.387 . S
C2559 H2562 0.950 . S
C2560 C2559 1.387 . S
C2560 C2563 1.387 . S
H2561 C2557 0.950 . S
H2562 C2559 0.950 . S
C2563 C2554 1.390 . S
C2563 H2556 0.950 . S
C2563 C2560 1.387 . S
C2564 C2565 1.387 . S
C2564 H2568 0.950 . S
C2564 C2573 1.390 . S
C2565 C2564 1.387 . S
C2565 C2567 1.387 . S
H2566 C2573 0.950 . S
C2567 C2565 1.387 . S
C2567 C2569 1.390 . S
C2567 H2571 0.950 . S
H2568 C2564 0.950 . S
C2569 C2567 1.390 . S
C2569 C2570 1.387 . S
C2569 H2572 0.950 . S
C2570 C2569 1.387 . S
C2570 C2573 1.387 . S
H2571 C2567 0.950 . S
H2572 C2569 0.950 . S
C2573 C2564 1.390 . S
C2573 H2566 0.950 . S
C2573 C2570 1.387 . S
C2574 C2575 1.387 . S
C2574 H2578 0.950 . S
C2574 C2583 1.390 . S
C2575 C2574 1.387 . S
C2575 C2577 1.387 . S
H2576 C2583 0.950 . S
C2577 C2575 1.387 . S
C2577 C2579 1.390 . S
C2577 H2581 0.950 . S
H2578 C2574 0.950 . S
C2579 C2577 1.390 . S
C2579 C2580 1.387 . S
C2579 H2582 0.950 . S
C2580 C2579 1.387 . S
C2580 C2583 1.387 . S
H2581 C2577 0.950 . S
H2582 C2579 0.950 . S
C2583 C2574 1.390 . S
C2583 H2576 0.950 . S
C2583 C2580 1.387 . S
C2584 C2585 1.387 . S
C2584 H2588 0.950 . S
C2584 C2593 1.390 . S
C2585 C2584 1.387 . S
C2585 C2587 1.387 . S
H2586 C2593 0.950 . S
C2587 C2585 1.387 . S
C2587 C2589 1.390 . S
C2587 H2591 0.950 . S
H2588 C2584 0.950 . S
C2589 C2587 1.390 . S
C2589 C2590 1.387 . S
C2589 H2592 0.950 . S
C2590 C2589 1.387 . S
C2590 C2593 1.387 . S
H2591 C2587 0.950 . S
H2592 C2589 0.950 . S
C2593 C2584 1.390 . S
C2593 H2586 0.950 . S
C2593 C2590 1.387 . S
C2594 C2595 1.387 . S
C2594 H2598 0.950 . S
C2594 C2603 1.390 . S
C2595 C2594 1.387 . S
C2595 C2597 1.387 . S
H2596 C2603 0.950 . S
C2597 C2595 1.387 . S
C2597 C2599 1.390 . S
C2597 H2601 0.950 . S
H2598 C2594 0.950 . S
C2599 C2597 1.390 . S
C2599 C2600 1.387 . S
C2599 H2602 0.950 . S
C2600 C2599 1.387 . S
C2600 C2603 1.387 . S
H2601 C2597 0.950 . S
H2602 C2599 0.950 . S
C2603 C2594 1.390 . S
C2603 H2596 0.950 . S
C2603 C2600 1.387 . S
C2604 C2605 1.387 . S
C2604 H2608 0.950 . S
C2604 C2613 1.390 . S
C2605 C2604 1.387 . S
C2605 C2607 1.387 . S
H2606 C2613 0.950 . S
C2607 C2605 1.387 . S
C2607 C2609 1.390 . S
C2607 H2611 0.950 . S
H2608 C2604 0.950 . S
C2609 C2607 1.390 . S
C2609 C2610 1.387 . S
C2609 H2612 0.950 . S
C2610 C2609 1.387 . S
C2610 C2613 1.387 . S
H2611 C2607 0.950 . S
H2612 C2609 0.950 . S
C2613 C2604 1.390 . S
C2613 H2606 0.950 . S
C2613 C2610 1.387 . S
C2614 C2615 1.387 . S
C2614 H2618 0.950 . S
C2614 C2623 1.390 . S
C2615 C2614 1.387 . S
C2615 C2617 1.387 . S
H2616 C2623 0.950 . S
C2617 C2615 1.387 . S
C2617 C2619 1.390 . S
C2617 H2621 0.950 . S
H2618 C2614 0.950 . S
C2619 C2617 1.390 . S
C2619 C2620 1.387 . S
C2619 H2622 0.950 . S
C2620 C2619 1.387 . S
C2620 C2623 1.387 . S
H2621 C2617 0.950 . S
H2622 C2619 0.950 . S
C2623 C2614 1.390 . S
C2623 H2616 0.950 . S
C2623 C2620 1.387 . S
C2624 C2625 1.387 . S
C2624 H2628 0.950 . S
C2624 C2633 1.390 . S
C2625 C2624 1.387 . S
C2625 C2627 1.387 . S
H2626 C2633 0.950 . S
C2627 C2625 1.387 . S
C2627 C2629 1.390 . S
C2627 H2631 0.950 . S
H2628 C2624 0.950 . S
C2629 C2627 1.390 . S
C2629 C2630 1.387 . S
C2629 H2632 0.950 . S
C2630 C2629 1.387 . S
C2630 C2633 1.387 . S
H2631 C2627 0.950 . S
H2632 C2629 0.950 . S
C2633 C2624 1.390 . S
C2633 H2626 0.950 . S
C2633 C2630 1.387 . S
C2634 C2635 1.387 . S
C2634 H2638 0.950 . S
C2634 C2643 1.390 . S
C2635 C2634 1.387 . S
C2635 C2637 1.387 . S
H2636 C2643 0.950 . S
C2637 C2635 1.387 . S
C2637 C2639 1.390 . S
C2637 H2641 0.950 . S
H2638 C2634 0.950 . S
C2639 C2637 1.390 . S
C2639 C2640 1.387 . S
C2639 H2642 0.950 . S
C2640 C2639 1.387 . S
C2640 C2643 1.387 . S
H2641 C2637 0.950 . S
H2642 C2639 0.950 . S
C2643 C2634 1.390 . S
C2643 H2636 0.950 . S
C2643 C2640 1.387 . S
C2644 C2645 1.387 . S
C2644 H2648 0.950 . S
C2644 C2653 1.390 . S
C2645 C2644 1.387 . S
C2645 C2647 1.387 . S
H2646 C2653 0.950 . S
C2647 C2645 1.387 . S
C2647 C2649 1.390 . S
C2647 H2651 0.950 . S
H2648 C2644 0.950 . S
C2649 C2647 1.390 . S
C2649 C2650 1.387 . S
C2649 H2652 0.950 . S
C2650 C2649 1.387 . S
C2650 C2653 1.387 . S
H2651 C2647 0.950 . S
H2652 C2649 0.950 . S
C2653 C2644 1.390 . S
C2653 H2646 0.950 . S
C2653 C2650 1.387 . S
C2654 C2655 1.387 . S
C2654 H2658 0.950 . S
C2654 C2663 1.390 . S
C2655 C2654 1.387 . S
C2655 C2657 1.387 . S
H2656 C2663 0.950 . S
C2657 C2655 1.387 . S
C2657 C2659 1.390 . S
C2657 H2661 0.950 . S
H2658 C2654 0.950 . S
C2659 C2657 1.390 . S
C2659 C2660 1.387 . S
C2659 H2662 0.950 . S
C2660 C2659 1.387 . S
C2660 C2663 1.387 . S
H2661 C2657 0.950 . S
H2662 C2659 0.950 . S
C2663 C2654 1.390 . S
C2663 H2656 0.950 . S
C2663 C2660 1.387 . S
C2664 C2665 1.387 . S
C2664 H2668 0.950 . S
C2664 C2673 1.390 . S
C2665 C2664 1.387 . S
C2665 C2667 1.387 . S
H2666 C2673 0.950 . S
C2667 C2665 1.387 . S
C2667 C2669 1.390 . S
C2667 H2671 0.950 . S
H2668 C2664 0.950 . S
C2669 C2667 1.390 . S
C2669 C2670 1.387 . S
C2669 H2672 0.950 . S
C2670 C2669 1.387 . S
C2670 C2673 1.387 . S
H2671 C2667 0.950 . S
H2672 C2669 0.950 . S
C2673 C2664 1.390 . S
C2673 H2666 0.950 . S
C2673 C2670 1.387 . S
C2674 C2675 1.387 . S
C2674 H2678 0.950 . S
C2674 C2683 1.390 . S
C2675 C2674 1.387 . S
C2675 C2677 1.387 . S
H2676 C2683 0.950 . S
C2677 C2675 1.387 . S
C2677 C2679 1.390 . S
C2677 H2681 0.950 . S
H2678 C2674 0.950 . S
C2679 C2677 1.390 . S
C2679 C2680 1.387 . S
C2679 H2682 0.950 . S
C2680 C2679 1.387 . S
C2680 C2683 1.387 . S
H2681 C2677 0.950 . S
H2682 C2679 0.950 . S
C2683 C2674 1.390 . S
C2683 H2676 0.950 . S
C2683 C2680 1.387 . S
C2684 C2685 1.387 . S
C2684 H2688 0.950 . S
C2684 C2693 1.390 . S
C2685 C2684 1.387 . S
C2685 C2687 1.387 . S
H2686 C2693 0.950 . S
C2687 C2685 1.387 . S
C2687 C2689 1.390 . S
C2687 H2691 0.950 . S
H2688 C2684 0.950 . S
C2689 C2687 1.390 . S
C2689 C2690 1.387 . S
C2689 H2692 0.950 . S
C2690 C2689 1.387 . S
C2690 C2693 1.387 . S
H2691 C2687 0.950 . S
H2692 C2689 0.950 . S
C2693 C2684 1.390 . S
C2693 H2686 0.950 . S
C2693 C2690 1.387 . S
C2694 C2695 1.387 . S
C2694 H2698 0.950 . S
C2694 C2703 1.390 . S
C2695 C2694 1.387 . S
C2695 C2697 1.387 . S
H2696 C2703 0.950 . S
C2697 C2695 1.387 . S
C2697 C2699 1.390 . S
C2697 H2701 0.950 . S
H2698 C2694 0.950 . S
C2699 C2697 1.390 . S
C2699 C2700 1.387 . S
C2699 H2702 0.950 . S
C2700 C2699 1.387 . S
C2700 C2703 1.387 . S
H2701 C2697 0.950 . S
H2702 C2699 0.950 . S
C2703 C2694 1.390 . S
C2703 H2696 0.950 . S
C2703 C2700 1.387 . S
C2704 C2705 1.387 . S
C2704 H2708 0.950 . S
C2704 C2713 1.390 . S
C2705 C2704 1.387 . S
C2705 C2707 1.387 . S
H2706 C2713 0.950 . S
C2707 C2705 1.387 . S
C2707 C2709 1.390 . S
C2707 H2711 0.950 . S
H2708 C2704 0.950 . S
C2709 C2707 1.390 . S
C2709 C2710 1.387 . S
C2709 H2712 0.950 . S
C2710 C2709 1.387 . S
C2710 C2713 1.387 . S
H2711 C2707 0.950 . S
H2712 C2709 0.950 . S
C2713 C2704 1.390 . S
C2713 H2706 0.950 . S
C2713 C2710 1.387 . S
C2714 C2715 1.387 . S
C2714 H2718 0.950 . S
C2714 C2723 1.390 . S
C2715 C2714 1.387 . S
C2715 C2717 1.387 . S
H2716 C2723 0.950 . S
C2717 C2715 1.387 . S
C2717 C2719 1.390 . S
C2717 H2721 0.950 . S
H2718 C2714 0.950 . S
C2719 C2717 1.390 . S
C2719 C2720 1.387 . S
C2719 H2722 0.950 . S
C2720 C2719 1.387 . S
C2720 C2723 1.387 . S
H2721 C2717 0.950 . S
H2722 C2719 0.950 . S
C2723 C2714 1.390 . S
C2723 H2716 0.950 . S
C2723 C2720 1.387 . S
C2724 C2725 1.387 . S
C2724 H2728 0.950 . S
C2724 C2733 1.390 . S
C2725 C2724 1.387 . S
C2725 C2727 1.387 . S
H2726 C2733 0.950 . S
C2727 C2725 1.387 . S
C2727 C2729 1.390 . S
C2727 H2731 0.950 . S
H2728 C2724 0.950 . S
C2729 C2727 1.390 . S
C2729 C2730 1.387 . S
C2729 H2732 0.950 . S
C2730 C2729 1.387 . S
C2730 C2733 1.387 . S
H2731 C2727 0.950 . S
H2732 C2729 0.950 . S
C2733 C2724 1.390 . S
C2733 H2726 0.950 . S
C2733 C2730 1.387 . S
C2734 C2735 1.387 . S
C2734 H2738 0.950 . S
C2734 C2743 1.390 . S
C2735 C2734 1.387 . S
C2735 C2737 1.387 . S
H2736 C2743 0.950 . S
C2737 C2735 1.387 . S
C2737 C2739 1.390 . S
C2737 H2741 0.950 . S
H2738 C2734 0.950 . S
C2739 C2737 1.390 . S
C2739 C2740 1.387 . S
C2739 H2742 0.950 . S
C2740 C2739 1.387 . S
C2740 C2743 1.387 . S
H2741 C2737 0.950 . S
H2742 C2739 0.950 . S
C2743 C2734 1.390 . S
C2743 H2736 0.950 . S
C2743 C2740 1.387 . S
C2744 C2745 1.387 . S
C2744 H2748 0.950 . S
C2744 C2753 1.390 . S
C2745 C2744 1.387 . S
C2745 C2747 1.387 . S
H2746 C2753 0.950 . S
C2747 C2745 1.387 . S
C2747 C2749 1.390 . S
C2747 H2751 0.950 . S
H2748 C2744 0.950 . S
C2749 C2747 1.390 . S
C2749 C2750 1.387 . S
C2749 H2752 0.950 . S
C2750 C2749 1.387 . S
C2750 C2753 1.387 . S
H2751 C2747 0.950 . S
H2752 C2749 0.950 . S
C2753 C2744 1.390 . S
C2753 H2746 0.950 . S
C2753 C2750 1.387 . S
C2754 C2755 1.387 . S
C2754 H2758 0.950 . S
C2754 C2763 1.390 . S
C2755 C2754 1.387 . S
C2755 C2757 1.387 . S
H2756 C2763 0.950 . S
C2757 C2755 1.387 . S
C2757 C2759 1.390 . S
C2757 H2761 0.950 . S
H2758 C2754 0.950 . S
C2759 C2757 1.390 . S
C2759 C2760 1.387 . S
C2759 H2762 0.950 . S
C2760 C2759 1.387 . S
C2760 C2763 1.387 . S
H2761 C2757 0.950 . S
H2762 C2759 0.950 . S
C2763 C2754 1.390 . S
C2763 H2756 0.950 . S
C2763 C2760 1.387 . S
C2764 C2765 1.387 . S
C2764 H2768 0.950 . S
C2764 C2773 1.390 . S
C2765 C2764 1.387 . S
C2765 C2767 1.387 . S
H2766 C2773 0.950 . S
C2767 C2765 1.387 . S
C2767 C2769 1.390 . S
C2767 H2771 0.950 . S
H2768 C2764 0.950 . S
C2769 C2767 1.390 . S
C2769 C2770 1.387 . S
C2769 H2772 0.950 . S
C2770 C2769 1.387 . S
C2770 C2773 1.387 . S
H2771 C2767 0.950 . S
H2772 C2769 0.950 . S
C2773 C2764 1.390 . S
C2773 H2766 0.950 . S
C2773 C2770 1.387 . S
C2774 C2775 1.387 . S
C2774 H2778 0.950 . S
C2774 C2783 1.390 . S
C2775 C2774 1.387 . S
C2775 C2777 1.387 . S
H2776 C2783 0.950 . S
C2777 C2775 1.387 . S
C2777 C2779 1.390 . S
C2777 H2781 0.950 . S
H2778 C2774 0.950 . S
C2779 C2777 1.390 . S
C2779 C2780 1.387 . S
C2779 H2782 0.950 . S
C2780 C2779 1.387 . S
C2780 C2783 1.387 . S
H2781 C2777 0.950 . S
H2782 C2779 0.950 . S
C2783 C2774 1.390 . S
C2783 H2776 0.950 . S
C2783 C2780 1.387 . S
C2784 C2785 1.387 . S
C2784 H2788 0.950 . S
C2784 C2793 1.390 1_655 S
C2785 C2784 1.387 . S
C2785 C2787 1.387 . S
H2786 C2793 0.950 . S
C2787 C2785 1.387 . S
C2787 C2789 1.390 1_655 S
C2787 H2791 0.950 . S
H2788 C2784 0.950 . S
C2789 C2787 1.390 1_455 S
C2789 C2790 1.387 . S
C2789 H2792 0.950 . S
C2790 C2789 1.387 . S
C2790 C2793 1.387 . S
H2791 C2787 0.950 . S
H2792 C2789 0.950 . S
C2793 C2784 1.390 1_455 S
C2793 H2786 0.950 . S
C2793 C2790 1.387 . S
C2794 C2795 1.387 . S
C2794 H2798 0.950 . S
C2794 C2803 1.390 . S
C2795 C2794 1.387 . S
C2795 C2797 1.387 . S
H2796 C2803 0.950 . S
C2797 C2795 1.387 . S
C2797 C2799 1.390 . S
C2797 H2801 0.950 . S
H2798 C2794 0.950 . S
C2799 C2797 1.390 . S
C2799 C2800 1.387 . S
C2799 H2802 0.950 . S
C2800 C2799 1.387 . S
C2800 C2803 1.387 . S
H2801 C2797 0.950 . S
H2802 C2799 0.950 . S
C2803 C2794 1.390 . S
C2803 H2796 0.950 . S
C2803 C2800 1.387 . S
C2804 C2805 1.387 . S
C2804 H2808 0.950 . S
C2804 C2813 1.390 1_645 S
C2805 C2804 1.387 . S
C2805 C2807 1.387 . S
H2806 C2813 0.950 . S
C2807 C2805 1.387 . S
C2807 C2809 1.390 1_645 S
C2807 H2811 0.950 . S
H2808 C2804 0.950 . S
C2809 C2807 1.390 1_465 S
C2809 C2810 1.387 . S
C2809 H2812 0.950 . S
C2810 C2809 1.387 . S
C2810 C2813 1.387 . S
H2811 C2807 0.950 . S
H2812 C2809 0.950 . S
C2813 C2804 1.390 1_465 S
C2813 H2806 0.950 . S
C2813 C2810 1.387 . S
C2814 C2815 1.387 . S
C2814 H2818 0.950 . S
C2814 C2823 1.390 . S
C2815 C2814 1.387 . S
C2815 C2817 1.387 . S
H2816 C2823 0.950 . S
C2817 C2815 1.387 . S
C2817 C2819 1.390 . S
C2817 H2821 0.950 . S
H2818 C2814 0.950 . S
C2819 C2817 1.390 . S
C2819 C2820 1.387 . S
C2819 H2822 0.950 . S
C2820 C2819 1.387 . S
C2820 C2823 1.387 . S
H2821 C2817 0.950 . S
H2822 C2819 0.950 . S
C2823 C2814 1.390 . S
C2823 H2816 0.950 . S
C2823 C2820 1.387 . S
C2824 C2825 1.387 . S
C2824 H2828 0.950 . S
C2824 C2833 1.390 1_455 S
C2825 C2824 1.387 . S
C2825 C2827 1.387 . S
H2826 C2833 0.950 . S
C2827 C2825 1.387 . S
C2827 C2829 1.390 1_455 S
C2827 H2831 0.950 . S
H2828 C2824 0.950 . S
C2829 C2827 1.390 1_655 S
C2829 C2830 1.387 . S
C2829 H2832 0.950 . S
C2830 C2829 1.387 . S
C2830 C2833 1.387 . S
H2831 C2827 0.950 . S
H2832 C2829 0.950 . S
C2833 C2824 1.390 1_655 S
C2833 H2826 0.950 . S
C2833 C2830 1.387 . S
C2834 C2835 1.387 . S
C2834 H2838 0.950 . S
C2834 C2843 1.390 . S
C2835 C2834 1.387 . S
C2835 C2837 1.387 . S
H2836 C2843 0.950 . S
C2837 C2835 1.387 . S
C2837 C2839 1.390 . S
C2837 H2841 0.950 . S
H2838 C2834 0.950 . S
C2839 C2837 1.390 . S
C2839 C2840 1.387 . S
C2839 H2842 0.950 . S
C2840 C2839 1.387 . S
C2840 C2843 1.387 . S
H2841 C2837 0.950 . S
H2842 C2839 0.950 . S
C2843 C2834 1.390 . S
C2843 H2836 0.950 . S
C2843 C2840 1.387 . S
C2844 C2845 1.387 . S
C2844 H2848 0.950 . S
C2844 C2853 1.390 1_665 S
C2845 C2844 1.387 . S
C2845 C2847 1.387 . S
H2846 C2853 0.950 . S
C2847 C2845 1.387 . S
C2847 C2849 1.390 1_665 S
C2847 H2851 0.950 . S
H2848 C2844 0.950 . S
C2849 C2847 1.390 1_445 S
C2849 C2850 1.387 . S
C2849 H2852 0.950 . S
C2850 C2849 1.387 . S
C2850 C2853 1.387 . S
H2851 C2847 0.950 . S
H2852 C2849 0.950 . S
C2853 C2844 1.390 1_445 S
C2853 H2846 0.950 . S
C2853 C2850 1.387 . S
C2854 C2855 1.387 . S
C2854 H2858 0.950 . S
C2854 C2863 1.390 . S
C2855 C2854 1.387 . S
C2855 C2857 1.387 . S
H2856 C2863 0.950 . S
C2857 C2855 1.387 . S
C2857 C2859 1.390 . S
C2857 H2861 0.950 . S
H2858 C2854 0.950 . S
C2859 C2857 1.390 . S
C2859 C2860 1.387 . S
C2859 H2862 0.950 . S
C2860 C2859 1.387 . S
C2860 C2863 1.387 . S
H2861 C2857 0.950 . S
H2862 C2859 0.950 . S
C2863 C2854 1.390 . S
C2863 H2856 0.950 . S
C2863 C2860 1.387 . S
C2864 C2865 1.387 . S
C2864 H2868 0.950 . S
C2864 C2873 1.390 1_545 S
C2865 C2864 1.387 . S
C2865 C2867 1.387 . S
H2866 C2873 0.950 . S
C2867 C2865 1.387 . S
C2867 C2869 1.390 1_545 S
C2867 H2871 0.950 . S
H2868 C2864 0.950 . S
C2869 C2867 1.390 1_565 S
C2869 C2870 1.387 . S
C2869 H2872 0.950 . S
C2870 C2869 1.387 . S
C2870 C2873 1.387 . S
H2871 C2867 0.950 . S
H2872 C2869 0.950 . S
C2873 C2864 1.390 1_565 S
C2873 H2866 0.950 . S
C2873 C2870 1.387 . S
C2874 C2875 1.387 . S
C2874 H2878 0.950 . S
C2874 C2883 1.390 . S
C2875 C2874 1.387 . S
C2875 C2877 1.387 . S
H2876 C2883 0.950 . S
C2877 C2875 1.387 . S
C2877 C2879 1.390 . S
C2877 H2881 0.950 . S
H2878 C2874 0.950 . S
C2879 C2877 1.390 . S
C2879 C2880 1.387 . S
C2879 H2882 0.950 . S
C2880 C2879 1.387 . S
C2880 C2883 1.387 . S
H2881 C2877 0.950 . S
H2882 C2879 0.950 . S
C2883 C2874 1.390 . S
C2883 H2876 0.950 . S
C2883 C2880 1.387 . S
C2884 C2885 1.387 . S
C2884 H2888 0.950 . S
C2884 C2893 1.390 1_556 S
C2885 C2884 1.387 . S
C2885 C2887 1.387 . S
H2886 C2893 0.950 . S
C2887 C2885 1.387 . S
C2887 C2889 1.390 1_556 S
C2887 H2891 0.950 . S
H2888 C2884 0.950 . S
C2889 C2887 1.390 1_554 S
C2889 C2890 1.387 . S
C2889 H2892 0.950 . S
C2890 C2889 1.387 . S
C2890 C2893 1.387 . S
H2891 C2887 0.950 . S
H2892 C2889 0.950 . S
C2893 C2884 1.390 1_554 S
C2893 H2886 0.950 . S
C2893 C2890 1.387 . S
C2894 C2895 1.387 . S
C2894 H2898 0.950 . S
C2894 C2903 1.390 . S
C2895 C2894 1.387 . S
C2895 C2897 1.387 . S
H2896 C2903 0.950 . S
C2897 C2895 1.387 . S
C2897 C2899 1.390 . S
C2897 H2901 0.950 . S
H2898 C2894 0.950 . S
C2899 C2897 1.390 . S
C2899 C2900 1.387 . S
C2899 H2902 0.950 . S
C2900 C2899 1.387 . S
C2900 C2903 1.387 . S
H2901 C2897 0.950 . S
H2902 C2899 0.950 . S
C2903 C2894 1.390 . S
C2903 H2896 0.950 . S
C2903 C2900 1.387 . S
C2904 C2905 1.387 . S
C2904 H2908 0.950 . S
C2904 C2913 1.390 1_554 S
C2905 C2904 1.387 . S
C2905 C2907 1.387 . S
H2906 C2913 0.950 . S
C2907 C2905 1.387 . S
C2907 C2909 1.390 1_554 S
C2907 H2911 0.950 . S
H2908 C2904 0.950 . S
C2909 C2907 1.390 1_556 S
C2909 C2910 1.387 . S
C2909 H2912 0.950 . S
C2910 C2909 1.387 . S
C2910 C2913 1.387 . S
H2911 C2907 0.950 . S
H2912 C2909 0.950 . S
C2913 C2904 1.390 1_556 S
C2913 H2906 0.950 . S
C2913 C2910 1.387 . S
C2914 C2915 1.387 . S
C2914 H2918 0.950 . S
C2914 C2923 1.390 1_455 S
C2915 C2914 1.387 . S
C2915 C2917 1.387 . S
H2916 C2923 0.950 . S
C2917 C2915 1.387 . S
C2917 C2919 1.390 1_455 S
C2917 H2921 0.950 . S
H2918 C2914 0.950 . S
C2919 C2917 1.390 1_655 S
C2919 C2920 1.387 . S
C2919 H2922 0.950 . S
C2920 C2919 1.387 . S
C2920 C2923 1.387 . S
H2921 C2917 0.950 . S
H2922 C2919 0.950 . S
C2923 C2914 1.390 1_655 S
C2923 H2916 0.950 . S
C2923 C2920 1.387 . S
C2924 C2925 1.387 . S
C2924 H2928 0.950 . S
C2924 C2933 1.390 . S
C2925 C2924 1.387 . S
C2925 C2927 1.387 . S
H2926 C2933 0.950 . S
C2927 C2925 1.387 . S
C2927 C2929 1.390 . S
C2927 H2931 0.950 . S
H2928 C2924 0.950 . S
C2929 C2927 1.390 . S
C2929 C2930 1.387 . S
C2929 H2932 0.950 . S
C2930 C2929 1.387 . S
C2930 C2933 1.387 . S
H2931 C2927 0.950 . S
H2932 C2929 0.950 . S
C2933 C2924 1.390 . S
C2933 H2926 0.950 . S
C2933 C2930 1.387 . S
C2934 C2935 1.387 . S
C2934 H2938 0.950 . S
C2934 C2943 1.390 1_654 S
C2935 C2934 1.387 . S
C2935 C2937 1.387 . S
H2936 C2943 0.950 . S
C2937 C2935 1.387 . S
C2937 C2939 1.390 1_654 S
C2937 H2941 0.950 . S
H2938 C2934 0.950 . S
C2939 C2937 1.390 1_456 S
C2939 C2940 1.387 . S
C2939 H2942 0.950 . S
C2940 C2939 1.387 . S
C2940 C2943 1.387 . S
H2941 C2937 0.950 . S
H2942 C2939 0.950 . S
C2943 C2934 1.390 1_456 S
C2943 H2936 0.950 . S
C2943 C2940 1.387 . S
C2944 C2945 1.387 . S
C2944 H2948 0.950 . S
C2944 C2953 1.390 . S
C2945 C2944 1.387 . S
C2945 C2947 1.387 . S
H2946 C2953 0.950 . S
C2947 C2945 1.387 . S
C2947 C2949 1.390 . S
C2947 H2951 0.950 . S
H2948 C2944 0.950 . S
C2949 C2947 1.390 . S
C2949 C2950 1.387 . S
C2949 H2952 0.950 . S
C2950 C2949 1.387 . S
C2950 C2953 1.387 . S
H2951 C2947 0.950 . S
H2952 C2949 0.950 . S
C2953 C2944 1.390 . S
C2953 H2946 0.950 . S
C2953 C2950 1.387 . S
C2954 C2955 1.387 . S
C2954 H2958 0.950 . S
C2954 C2963 1.390 1_554 S
C2955 C2954 1.387 . S
C2955 C2957 1.387 . S
H2956 C2963 0.950 . S
C2957 C2955 1.387 . S
C2957 C2959 1.390 1_554 S
C2957 H2961 0.950 . S
H2958 C2954 0.950 . S
C2959 C2957 1.390 1_556 S
C2959 C2960 1.387 . S
C2959 H2962 0.950 . S
C2960 C2959 1.387 . S
C2960 C2963 1.387 . S
H2961 C2957 0.950 . S
H2962 C2959 0.950 . S
C2963 C2954 1.390 1_556 S
C2963 H2956 0.950 . S
C2963 C2960 1.387 . S
C2964 C2965 1.387 . S
C2964 H2968 0.950 . S
C2964 C2973 1.390 . S
C2965 C2964 1.387 . S
C2965 C2967 1.387 . S
H2966 C2973 0.950 . S
C2967 C2965 1.387 . S
C2967 C2969 1.390 . S
C2967 H2971 0.950 . S
H2968 C2964 0.950 . S
C2969 C2967 1.390 . S
C2969 C2970 1.387 . S
C2969 H2972 0.950 . S
C2970 C2969 1.387 . S
C2970 C2973 1.387 . S
H2971 C2967 0.950 . S
H2972 C2969 0.950 . S
C2973 C2964 1.390 . S
C2973 H2966 0.950 . S
C2973 C2970 1.387 . S
C2974 C2975 1.387 . S
C2974 H2978 0.950 . S
C2974 C2983 1.390 . S
C2975 C2974 1.387 . S
C2975 C2977 1.387 . S
H2976 C2983 0.950 . S
C2977 C2975 1.387 . S
C2977 C2979 1.390 . S
C2977 H2981 0.950 . S
H2978 C2974 0.950 . S
C2979 C2977 1.390 . S
C2979 C2980 1.387 . S
C2979 H2982 0.950 . S
C2980 C2979 1.387 . S
C2980 C2983 1.387 . S
H2981 C2977 0.950 . S
H2982 C2979 0.950 . S
C2983 C2974 1.390 . S
C2983 H2976 0.950 . S
C2983 C2980 1.387 . S
C2984 C2985 1.387 . S
C2984 H2988 0.950 . S
C2984 C2993 1.390 . S
C2985 C2984 1.387 . S
C2985 C2987 1.387 . S
H2986 C2993 0.950 . S
C2987 C2985 1.387 . S
C2987 C2989 1.390 . S
C2987 H2991 0.950 . S
H2988 C2984 0.950 . S
C2989 C2987 1.390 . S
C2989 C2990 1.387 . S
C2989 H2992 0.950 . S
C2990 C2989 1.387 . S
C2990 C2993 1.387 . S
H2991 C2987 0.950 . S
H2992 C2989 0.950 . S
C2993 C2984 1.390 . S
C2993 H2986 0.950 . S
C2993 C2990 1.387 . S
C2994 C2995 1.387 . S
C2994 H2998 0.950 . S
C2994 C3003 1.390 . S
C2995 C2994 1.387 . S
C2995 C2997 1.387 . S
H2996 C3003 0.950 . S
C2997 C2995 1.387 . S
C2997 C2999 1.390 . S
C2997 H3001 0.950 . S
H2998 C2994 0.950 . S
C2999 C2997 1.390 . S
C2999 C3000 1.387 . S
C2999 H3002 0.950 . S
C3000 C2999 1.387 . S
C3000 C3003 1.387 . S
H3001 C2997 0.950 . S
H3002 C2999 0.950 . S
C3003 C2994 1.390 . S
C3003 H2996 0.950 . S
C3003 C3000 1.387 . S
C3004 C3005 1.387 . S
C3004 H3008 0.950 . S
C3004 C3013 1.390 . S
C3005 C3004 1.387 . S
C3005 C3007 1.387 . S
H3006 C3013 0.950 . S
C3007 C3005 1.387 . S
C3007 C3009 1.390 . S
C3007 H3011 0.950 . S
H3008 C3004 0.950 . S
C3009 C3007 1.390 . S
C3009 C3010 1.387 . S
C3009 H3012 0.950 . S
C3010 C3009 1.387 . S
C3010 C3013 1.387 . S
H3011 C3007 0.950 . S
H3012 C3009 0.950 . S
C3013 C3004 1.390 . S
C3013 H3006 0.950 . S
C3013 C3010 1.387 . S
C3014 C3015 1.387 . S
C3014 H3018 0.950 . S
C3014 C3023 1.390 1_554 S
C3015 C3014 1.387 . S
C3015 C3017 1.387 . S
H3016 C3023 0.950 . S
C3017 C3015 1.387 . S
C3017 C3019 1.390 1_554 S
C3017 H3021 0.950 . S
H3018 C3014 0.950 . S
C3019 C3017 1.390 1_556 S
C3019 C3020 1.387 . S
C3019 H3022 0.950 . S
C3020 C3019 1.387 . S
C3020 C3023 1.387 . S
H3021 C3017 0.950 . S
H3022 C3019 0.950 . S
C3023 C3014 1.390 1_556 S
C3023 H3016 0.950 . S
C3023 C3020 1.387 . S
C3024 C3025 1.387 . S
C3024 H3028 0.950 . S
C3024 C3033 1.390 . S
C3025 C3024 1.387 . S
C3025 C3027 1.387 . S
H3026 C3033 0.950 . S
C3027 C3025 1.387 . S
C3027 C3029 1.390 . S
C3027 H3031 0.950 . S
H3028 C3024 0.950 . S
C3029 C3027 1.390 . S
C3029 C3030 1.387 . S
C3029 H3032 0.950 . S
C3030 C3029 1.387 . S
C3030 C3033 1.387 . S
H3031 C3027 0.950 . S
H3032 C3029 0.950 . S
C3033 C3024 1.390 . S
C3033 H3026 0.950 . S
C3033 C3030 1.387 . S
C3034 C3035 1.387 . S
C3034 H3038 0.950 . S
C3034 C3043 1.390 1_545 S
C3035 C3034 1.387 . S
C3035 C3037 1.387 . S
H3036 C3043 0.950 . S
C3037 C3035 1.387 . S
C3037 C3039 1.390 1_545 S
C3037 H3041 0.950 . S
H3038 C3034 0.950 . S
C3039 C3037 1.390 1_565 S
C3039 C3040 1.387 . S
C3039 H3042 0.950 . S
C3040 C3039 1.387 . S
C3040 C3043 1.387 . S
H3041 C3037 0.950 . S
H3042 C3039 0.950 . S
C3043 C3034 1.390 1_565 S
C3043 H3036 0.950 . S
C3043 C3040 1.387 . S
C3044 C3045 1.387 . S
C3044 H3048 0.950 . S
C3044 C3053 1.390 . S
C3045 C3044 1.387 . S
C3045 C3047 1.387 . S
H3046 C3053 0.950 . S
C3047 C3045 1.387 . S
C3047 C3049 1.390 . S
C3047 H3051 0.950 . S
H3048 C3044 0.950 . S
C3049 C3047 1.390 . S
C3049 C3050 1.387 . S
C3049 H3052 0.950 . S
C3050 C3049 1.387 . S
C3050 C3053 1.387 . S
H3051 C3047 0.950 . S
H3052 C3049 0.950 . S
C3053 C3044 1.390 . S
C3053 H3046 0.950 . S
C3053 C3050 1.387 . S
C3054 C3055 1.387 . S
C3054 H3058 0.950 . S
C3054 C3063 1.390 . S
C3055 C3054 1.387 . S
C3055 C3057 1.387 . S
H3056 C3063 0.950 . S
C3057 C3055 1.387 . S
C3057 C3059 1.390 . S
C3057 H3061 0.950 . S
H3058 C3054 0.950 . S
C3059 C3057 1.390 . S
C3059 C3060 1.387 . S
C3059 H3062 0.950 . S
C3060 C3059 1.387 . S
C3060 C3063 1.387 . S
H3061 C3057 0.950 . S
H3062 C3059 0.950 . S
C3063 C3054 1.390 . S
C3063 H3056 0.950 . S
C3063 C3060 1.387 . S
C3064 C3065 1.387 . S
C3064 H3068 0.950 . S
C3064 C3073 1.390 1_454 S
C3065 C3064 1.387 . S
C3065 C3067 1.387 . S
H3066 C3073 0.950 . S
C3067 C3065 1.387 . S
C3067 C3069 1.390 1_454 S
C3067 H3071 0.950 . S
H3068 C3064 0.950 . S
C3069 C3067 1.390 1_656 S
C3069 C3070 1.387 . S
C3069 H3072 0.950 . S
C3070 C3069 1.387 . S
C3070 C3073 1.387 . S
H3071 C3067 0.950 . S
H3072 C3069 0.950 . S
C3073 C3064 1.390 1_656 S
C3073 H3066 0.950 . S
C3073 C3070 1.387 . S
C3074 C3075 1.387 . S
C3074 H3078 0.950 . S
C3074 C3083 1.390 . S
C3075 C3074 1.387 . S
C3075 C3077 1.387 . S
H3076 C3083 0.950 . S
C3077 C3075 1.387 . S
C3077 C3079 1.390 . S
C3077 H3081 0.950 . S
H3078 C3074 0.950 . S
C3079 C3077 1.390 . S
C3079 C3080 1.387 . S
C3079 H3082 0.950 . S
C3080 C3079 1.387 . S
C3080 C3083 1.387 . S
H3081 C3077 0.950 . S
H3082 C3079 0.950 . S
C3083 C3074 1.390 . S
C3083 H3076 0.950 . S
C3083 C3080 1.387 . S
C3084 C3085 1.387 . S
C3084 H3088 0.950 . S
C3084 C3093 1.390 1_455 S
C3085 C3084 1.387 . S
C3085 C3087 1.387 . S
H3086 C3093 0.950 . S
C3087 C3085 1.387 . S
C3087 C3089 1.390 1_455 S
C3087 H3091 0.950 . S
H3088 C3084 0.950 . S
C3089 C3087 1.390 1_655 S
C3089 C3090 1.387 . S
C3089 H3092 0.950 . S
C3090 C3089 1.387 . S
C3090 C3093 1.387 . S
H3091 C3087 0.950 . S
H3092 C3089 0.950 . S
C3093 C3084 1.390 1_655 S
C3093 H3086 0.950 . S
C3093 C3090 1.387 . S
C3094 C3095 1.387 . S
C3094 H3098 0.950 . S
C3094 C3103 1.390 . S
C3095 C3094 1.387 . S
C3095 C3097 1.387 . S
H3096 C3103 0.950 . S
C3097 C3095 1.387 . S
C3097 C3099 1.390 . S
C3097 H3101 0.950 . S
H3098 C3094 0.950 . S
C3099 C3097 1.390 . S
C3099 C3100 1.387 . S
C3099 H3102 0.950 . S
C3100 C3099 1.387 . S
C3100 C3103 1.387 . S
H3101 C3097 0.950 . S
H3102 C3099 0.950 . S
C3103 C3094 1.390 . S
C3103 H3096 0.950 . S
C3103 C3100 1.387 . S
C3104 C3105 1.387 . S
C3104 H3108 0.950 . S
C3104 C3113 1.390 . S
C3105 C3104 1.387 . S
C3105 C3107 1.387 . S
H3106 C3113 0.950 . S
C3107 C3105 1.387 . S
C3107 C3109 1.390 . S
C3107 H3111 0.950 . S
H3108 C3104 0.950 . S
C3109 C3107 1.390 . S
C3109 C3110 1.387 . S
C3109 H3112 0.950 . S
C3110 C3109 1.387 . S
C3110 C3113 1.387 . S
H3111 C3107 0.950 . S
H3112 C3109 0.950 . S
C3113 C3104 1.390 . S
C3113 H3106 0.950 . S
C3113 C3110 1.387 . S
C3114 C3115 1.387 . S
C3114 H3118 0.950 . S
C3114 C3123 1.390 . S
C3115 C3114 1.387 . S
C3115 C3117 1.387 . S
H3116 C3123 0.950 . S
C3117 C3115 1.387 . S
C3117 C3119 1.390 . S
C3117 H3121 0.950 . S
H3118 C3114 0.950 . S
C3119 C3117 1.390 . S
C3119 C3120 1.387 . S
C3119 H3122 0.950 . S
C3120 C3119 1.387 . S
C3120 C3123 1.387 . S
H3121 C3117 0.950 . S
H3122 C3119 0.950 . S
C3123 C3114 1.390 . S
C3123 H3116 0.950 . S
C3123 C3120 1.387 . S
C3124 C3125 1.387 . S
C3124 H3128 0.950 . S
C3124 C3133 1.390 . S
C3125 C3124 1.387 . S
C3125 C3127 1.387 . S
H3126 C3133 0.950 . S
C3127 C3125 1.387 . S
C3127 C3129 1.390 . S
C3127 H3131 0.950 . S
H3128 C3124 0.950 . S
C3129 C3127 1.390 . S
C3129 C3130 1.387 . S
C3129 H3132 0.950 . S
C3130 C3129 1.387 . S
C3130 C3133 1.387 . S
H3131 C3127 0.950 . S
H3132 C3129 0.950 . S
C3133 C3124 1.390 . S
C3133 H3126 0.950 . S
C3133 C3130 1.387 . S
C3134 C3135 1.387 . S
C3134 H3138 0.950 . S
C3134 C3143 1.390 1_545 S
C3135 C3134 1.387 . S
C3135 C3137 1.387 . S
H3136 C3143 0.950 . S
C3137 C3135 1.387 . S
C3137 C3139 1.390 1_545 S
C3137 H3141 0.950 . S
H3138 C3134 0.950 . S
C3139 C3137 1.390 1_565 S
C3139 C3140 1.387 . S
C3139 H3142 0.950 . S
C3140 C3139 1.387 . S
C3140 C3143 1.387 . S
H3141 C3137 0.950 . S
H3142 C3139 0.950 . S
C3143 C3134 1.390 1_565 S
C3143 H3136 0.950 . S
C3143 C3140 1.387 . S
C3144 C3145 1.387 . S
C3144 H3148 0.950 . S
C3144 C3153 1.390 . S
C3145 C3144 1.387 . S
C3145 C3147 1.387 . S
H3146 C3153 0.950 . S
C3147 C3145 1.387 . S
C3147 C3149 1.390 . S
C3147 H3151 0.950 . S
H3148 C3144 0.950 . S
C3149 C3147 1.390 . S
C3149 C3150 1.387 . S
C3149 H3152 0.950 . S
C3150 C3149 1.387 . S
C3150 C3153 1.387 . S
H3151 C3147 0.950 . S
H3152 C3149 0.950 . S
C3153 C3144 1.390 . S
C3153 H3146 0.950 . S
C3153 C3150 1.387 . S
C3154 C3155 1.387 . S
C3154 H3158 0.950 . S
C3154 C3163 1.390 1_545 S
C3155 C3154 1.387 . S
C3155 C3157 1.387 . S
H3156 C3163 0.950 . S
C3157 C3155 1.387 . S
C3157 C3159 1.390 1_545 S
C3157 H3161 0.950 . S
H3158 C3154 0.950 . S
C3159 C3157 1.390 1_565 S
C3159 C3160 1.387 . S
C3159 H3162 0.950 . S
C3160 C3159 1.387 . S
C3160 C3163 1.387 . S
H3161 C3157 0.950 . S
H3162 C3159 0.950 . S
C3163 C3154 1.390 1_565 S
C3163 H3156 0.950 . S
C3163 C3160 1.387 . S
C3164 C3165 1.387 . S
C3164 H3168 0.950 . S
C3164 C3173 1.390 1_564 S
C3165 C3164 1.387 . S
C3165 C3167 1.387 . S
H3166 C3173 0.950 . S
C3167 C3165 1.387 . S
C3167 C3169 1.390 1_564 S
C3167 H3171 0.950 . S
H3168 C3164 0.950 . S
C3169 C3167 1.390 1_546 S
C3169 C3170 1.387 . S
C3169 H3172 0.950 . S
C3170 C3169 1.387 . S
C3170 C3173 1.387 . S
H3171 C3167 0.950 . S
H3172 C3169 0.950 . S
C3173 C3164 1.390 1_546 S
C3173 H3166 0.950 . S
C3173 C3170 1.387 . S
C3174 C3175 1.387 . S
C3174 H3178 0.950 . S
C3174 C3183 1.390 . S
C3175 C3174 1.387 . S
C3175 C3177 1.387 . S
H3176 C3183 0.950 . S
C3177 C3175 1.387 . S
C3177 C3179 1.390 . S
C3177 H3181 0.950 . S
H3178 C3174 0.950 . S
C3179 C3177 1.390 . S
C3179 C3180 1.387 . S
C3179 H3182 0.950 . S
C3180 C3179 1.387 . S
C3180 C3183 1.387 . S
H3181 C3177 0.950 . S
H3182 C3179 0.950 . S
C3183 C3174 1.390 . S
C3183 H3176 0.950 . S
C3183 C3180 1.387 . S
C3184 C3185 1.387 . S
C3184 H3188 0.950 . S
C3184 C3193 1.390 . S
C3185 C3184 1.387 . S
C3185 C3187 1.387 . S
H3186 C3193 0.950 . S
C3187 C3185 1.387 . S
C3187 C3189 1.390 . S
C3187 H3191 0.950 . S
H3188 C3184 0.950 . S
C3189 C3187 1.390 . S
C3189 C3190 1.387 . S
C3189 H3192 0.950 . S
C3190 C3189 1.387 . S
C3190 C3193 1.387 . S
H3191 C3187 0.950 . S
H3192 C3189 0.950 . S
C3193 C3184 1.390 . S
C3193 H3186 0.950 . S
C3193 C3190 1.387 . S
C3194 C3195 1.387 . S
C3194 H3198 0.950 . S
C3194 C3203 1.390 . S
C3195 C3194 1.387 . S
C3195 C3197 1.387 . S
H3196 C3203 0.950 . S
C3197 C3195 1.387 . S
C3197 C3199 1.390 . S
C3197 H3201 0.950 . S
H3198 C3194 0.950 . S
C3199 C3197 1.390 . S
C3199 C3200 1.387 . S
C3199 H3202 0.950 . S
C3200 C3199 1.387 . S
C3200 C3203 1.387 . S
H3201 C3197 0.950 . S
H3202 C3199 0.950 . S
C3203 C3194 1.390 . S
C3203 H3196 0.950 . S
C3203 C3200 1.387 . S
C3204 C3205 1.387 . S
C3204 H3208 0.950 . S
C3204 C3213 1.390 . S
C3205 C3204 1.387 . S
C3205 C3207 1.387 . S
H3206 C3213 0.950 . S
C3207 C3205 1.387 . S
C3207 C3209 1.390 . S
C3207 H3211 0.950 . S
H3208 C3204 0.950 . S
C3209 C3207 1.390 . S
C3209 C3210 1.387 . S
C3209 H3212 0.950 . S
C3210 C3209 1.387 . S
C3210 C3213 1.387 . S
H3211 C3207 0.950 . S
H3212 C3209 0.950 . S
C3213 C3204 1.390 . S
C3213 H3206 0.950 . S
C3213 C3210 1.387 . S
C3214 C3215 1.387 . S
C3214 H3218 0.950 . S
C3214 C3223 1.390 . S
C3215 C3214 1.387 . S
C3215 C3217 1.387 . S
H3216 C3223 0.950 . S
C3217 C3215 1.387 . S
C3217 C3219 1.390 . S
C3217 H3221 0.950 . S
H3218 C3214 0.950 . S
C3219 C3217 1.390 . S
C3219 C3220 1.387 . S
C3219 H3222 0.950 . S
C3220 C3219 1.387 . S
C3220 C3223 1.387 . S
H3221 C3217 0.950 . S
H3222 C3219 0.950 . S
C3223 C3214 1.390 . S
C3223 H3216 0.950 . S
C3223 C3220 1.387 . S
C3224 C3225 1.387 . S
C3224 H3228 0.950 . S
C3224 C3233 1.390 . S
C3225 C3224 1.387 . S
C3225 C3227 1.387 . S
H3226 C3233 0.950 . S
C3227 C3225 1.387 . S
C3227 C3229 1.390 . S
C3227 H3231 0.950 . S
H3228 C3224 0.950 . S
C3229 C3227 1.390 . S
C3229 C3230 1.387 . S
C3229 H3232 0.950 . S
C3230 C3229 1.387 . S
C3230 C3233 1.387 . S
H3231 C3227 0.950 . S
H3232 C3229 0.950 . S
C3233 C3224 1.390 . S
C3233 H3226 0.950 . S
C3233 C3230 1.387 . S
C3234 C3235 1.387 . S
C3234 H3238 0.950 . S
C3234 C3243 1.390 1_566 S
C3235 C3234 1.387 . S
C3235 C3237 1.387 . S
H3236 C3243 0.950 . S
C3237 C3235 1.387 . S
C3237 C3239 1.390 1_566 S
C3237 H3241 0.950 . S
H3238 C3234 0.950 . S
C3239 C3237 1.390 1_544 S
C3239 C3240 1.387 . S
C3239 H3242 0.950 . S
C3240 C3239 1.387 . S
C3240 C3243 1.387 . S
H3241 C3237 0.950 . S
H3242 C3239 0.950 . S
C3243 C3234 1.390 1_544 S
C3243 H3236 0.950 . S
C3243 C3240 1.387 . S
C3244 C3245 1.387 . S
C3244 H3248 0.950 . S
C3244 C3253 1.390 . S
C3245 C3244 1.387 . S
C3245 C3247 1.387 . S
H3246 C3253 0.950 . S
C3247 C3245 1.387 . S
C3247 C3249 1.390 . S
C3247 H3251 0.950 . S
H3248 C3244 0.950 . S
C3249 C3247 1.390 . S
C3249 C3250 1.387 . S
C3249 H3252 0.950 . S
C3250 C3249 1.387 . S
C3250 C3253 1.387 . S
H3251 C3247 0.950 . S
H3252 C3249 0.950 . S
C3253 C3244 1.390 . S
C3253 H3246 0.950 . S
C3253 C3250 1.387 . S
C3254 C3255 1.387 . S
C3254 H3258 0.950 . S
C3254 C3263 1.390 . S
C3255 C3254 1.387 . S
C3255 C3257 1.387 . S
H3256 C3263 0.950 . S
C3257 C3255 1.387 . S
C3257 C3259 1.390 . S
C3257 H3261 0.950 . S
H3258 C3254 0.950 . S
C3259 C3257 1.390 . S
C3259 C3260 1.387 . S
C3259 H3262 0.950 . S
C3260 C3259 1.387 . S
C3260 C3263 1.387 . S
H3261 C3257 0.950 . S
H3262 C3259 0.950 . S
C3263 C3254 1.390 . S
C3263 H3256 0.950 . S
C3263 C3260 1.387 . S
C1345 C9 1.286 . S
C1350 C455 1.361 . S
C1355 C805 1.361 . S
C1360 C23 1.286 . S
C1365 C483 1.360 . S
C1370 C37 1.289 . S
C1375 C51 1.286 . S
C1380 C833 1.360 . S
C1385 C65 1.290 . S
C1390 C511 1.359 . S
C1395 C79 1.290 . S
C1400 C861 1.358 . S
C1405 C93 1.288 . S
C1410 C539 1.358 . S
C1415 C107 1.286 . S
C1420 C889 1.361 . S
C1425 C903 1.357 . S
C1430 C121 1.290 . S
C1435 C1001 1.358 . S
C1440 C135 1.290 . S
C1445 C149 1.287 . S
C1450 C1309 1.361 . S
C1455 C163 1.288 . S
C1460 C987 1.358 . S
C1465 C245 1.361 . S
C1470 C177 1.287 . S
C1475 C191 1.287 . S
C1480 C259 1.359 . S
C1485 C205 1.289 . S
C1490 C273 1.358 . S
C1495 C1295 1.359 . S
C1500 C219 1.290 . S
C1505 C1015 1.360 . S
C1510 C233 1.286 . S
C1515 C247 1.286 . S
C1520 C399 1.361 . S
C1525 C749 1.360 . S
C1530 C261 1.286 . S
C1535 C275 1.291 . S
C1540 C427 1.358 . S
C1545 C441 1.358 . S
C1550 C289 1.289 . S
C1555 C707 1.358 . S
C1560 C303 1.289 . S
C1565 C49 1.358 . S
C1570 C317 1.289 . S
C1575 C21 1.358 . S
C1580 C331 1.288 . S
C1585 C345 1.286 . S
C1590 C119 1.359 . S
C1595 C1141 1.358 . S
C1600 C359 1.291 . S
C1605 C147 1.358 . S
C1610 C373 1.288 . S
C1615 C387 1.286 . S
C1620 C1169 1.361 . S
C1625 C401 1.288 . S
C1630 C175 1.359 . S
C1635 C1197 1.358 . S
C1640 C415 1.288 . S
C1645 C429 1.287 . S
C1650 C203 1.359 . S
C1655 C1225 1.361 . S
C1660 C443 1.286 . S
C1665 C1239 1.360 . S
C1670 C457 1.288 . S
C1675 C471 1.286 . S
C1680 C1337 1.360 . S
C1685 C973 1.358 . S
C1690 C485 1.289 . S
C1695 C1323 1.358 . S
C1700 C499 1.290 . S
C1705 C513 1.287 . S
C1710 C581 1.360 . S
C1715 C595 1.360 . S
C1720 C527 1.289 . S
C1725 C609 1.360 . S
C1730 C541 1.288 . S
C1735 C555 1.286 . S
C1740 C959 1.360 . S
C1745 C679 1.357 . S
C1750 C569 1.290 . S
C1755 C583 1.286 . S
C1760 C63 1.361 . S
C1765 C1085 1.358 . S
C1770 C597 1.289 . S
C1775 C91 1.361 . S
C1780 C611 1.286 . S
C1785 C625 1.288 . S
C1790 C105 1.360 . S
C1795 C1043 1.359 . S
C1800 C639 1.289 . S
C1805 C385 1.361 . S
C1810 C653 1.286 . S
C1815 C357 1.361 . S
C1820 C667 1.286 . S
C1825 C1127 1.360 . S
C1830 C681 1.288 . S
C1835 C133 1.358 . S
C1840 C695 1.291 . S
C1845 C1155 1.360 . S
C1850 C709 1.288 . S
C1855 C723 1.286 . S
C1860 C161 1.361 . S
C1865 C1183 1.360 . S
C1870 C737 1.286 . S
C1875 C751 1.290 . S
C1880 C189 1.357 . S
C1885 C765 1.289 . S
C1890 C1211 1.358 . S
C1895 C779 1.286 . S
C1900 C217 1.360 . S
C1905 C231 1.358 . S
C1910 C793 1.289 . S
C1915 C807 1.289 . S
C1920 C329 1.360 . S
C1925 C821 1.287 . S
C1930 C637 1.361 . S
C1935 C315 1.359 . S
C1940 C835 1.287 . S
C1945 C849 1.289 . S
C1950 C917 1.358 . S
C1955 C931 1.360 . S
C1960 C863 1.288 . S
C1965 C945 1.357 . S
C1970 C877 1.290 . S
C1975 C891 1.288 . S
C1980 C623 1.358 . S
C1985 C905 1.290 . S
C1990 C343 1.357 . S
C1995 C1071 1.359 . S
C2000 C919 1.286 . S
C2005 C933 1.287 . S
C2010 C77 1.361 . S
C2015 C947 1.286 . S
C2020 C1099 1.361 . S
C2025 C1113 1.358 . S
C2030 C961 1.289 . S
C2035 C35 1.357 . S
C2040 C975 1.290 . S
C2045 C989 1.289 . S
C2050 C721 1.358 . S
C2055 C1003 1.286 . S
C2060 C693 1.361 . S
C2065 C791 1.358 . S
C2070 C1017 1.288 . S
C2075 C469 1.357 . S
C2080 C1031 1.290 . S
C2085 C819 1.360 . S
C2090 C1045 1.286 . S
C2095 C1059 1.286 . S
C2100 C497 1.361 . S
C2105 C1073 1.286 . S
C2110 C847 1.361 . S
C2115 C525 1.361 . S
C2120 C1087 1.286 . S
C2125 C875 1.359 . S
C2130 C1101 1.286 . S
C2135 C553 1.360 . S
C2140 C1115 1.286 . S
C2145 C1129 1.290 . S
C2150 C567 1.358 . S
C2155 C665 1.358 . S
C2160 C1143 1.288 . S
C2165 C301 1.358 . S
C2170 C1157 1.290 . S
C2175 C1171 1.286 . S
C2180 C651 1.359 . S
C2185 C1253 1.358 . S
C2190 C1185 1.290 . S
C2195 C1267 1.361 . S
C2200 C1199 1.286 . S
C2205 C1213 1.286 . S
C2210 C1281 1.361 . S
C2215 C1227 1.286 . S
C2220 C287 1.360 . S
C2225 C7 1.358 . S
C2230 C1241 1.291 . S
C2235 C735 1.359 . S
C2240 C1255 1.287 . S
C2245 C1269 1.290 . S
C2250 C413 1.358 . S
C2255 C1283 1.286 . S
C2260 C763 1.361 . S
C2265 C777 1.361 . S
C2270 C1297 1.287 . S
C2275 C371 1.359 . S
C2280 C1311 1.290 . S
C2285 C1057 1.361 . S
C2290 C1325 1.286 . S
C2295 C1029 1.358 . S
C2300 C1339 1.289 . S
C2305 C1221 1.384 . S
C2310 C3 1.384 . S
C2315 C17 1.386 . S
C2320 C1179 1.383 . S
C2325 C31 1.384 . S
C2330 C1193 1.385 . S
C2335 C45 1.385 . S
C2340 C1207 1.383 . S
C2345 C129 1.383 . S
C2350 C59 1.386 . S
C2355 C73 1.383 . S
C2360 C143 1.385 . S
C2365 C87 1.385 . S
C2370 C157 1.384 . S
C2375 C101 1.386 . S
C2380 C115 1.383 . S
C2385 C171 1.383 . S
C2390 C1025 1.385 . S
C2395 C185 1.383 . S
C2400 C1039 1.386 . S
C2405 C199 1.386 . S
C2410 C1053 1.383 . S
C2415 C1011 1.383 . S
C2420 C213 1.386 . S
C2425 C1291 1.385 . S
C2430 C227 1.384 . S
C2435 C241 1.384 . S
C2440 C1333 1.384 . S
C2445 C255 1.383 . S
C2450 C633 1.386 . S
C2455 C1319 1.386 . S
C2460 C269 1.383 . S
C2465 C283 1.385 . S
C2470 C1235 1.384 . S
C2475 C297 1.383 . S
C2480 C591 1.386 . S
C2485 C311 1.385 . S
C2490 C1277 1.384 . S
C2495 C325 1.385 . S
C2500 C1249 1.384 . S
C2505 C885 1.385 . S
C2510 C339 1.384 . S
C2515 C353 1.386 . S
C2520 C843 1.383 . S
C2525 C857 1.385 . S
C2530 C367 1.384 . S
C2535 C381 1.386 . S
C2540 C871 1.383 . S
C2545 C395 1.385 . S
C2550 C465 1.384 . S
C2555 C409 1.386 . S
C2560 C479 1.383 . S
C2565 C493 1.384 . S
C2570 C423 1.384 . S
C2575 C437 1.384 . S
C2580 C451 1.385 . S
C2585 C689 1.383 . S
C2590 C507 1.385 . S
C2595 C703 1.385 . S
C2600 C521 1.384 . S
C2605 C717 1.386 . S
C2610 C535 1.383 . S
C2615 C675 1.384 . S
C2620 C549 1.385 . S
C2625 C563 1.383 . S
C2630 C955 1.385 . S
C2635 C577 1.386 . S
C2640 C997 1.383 . S
C2645 C983 1.385 . S
C2650 C605 1.384 . S
C2655 C619 1.385 . S
C2660 C899 1.383 . S
C2665 C647 1.384 . S
C2670 C941 1.385 . S
C2675 C661 1.385 . S
C2680 C913 1.383 . S
C2685 C731 1.384 . S
C2690 C801 1.384 . S
C2695 C745 1.384 . S
C2700 C815 1.385 . S
C2705 C759 1.385 . S
C2710 C829 1.383 . S
C2715 C773 1.383 . S
C2720 C787 1.386 . S
C2725 C1305 1.384 . S
C2730 C927 1.385 . S
C2735 C1263 1.383 . S
C2740 C969 1.386 . S
C2745 C1067 1.385 . S
C2750 C1137 1.384 . S
C2755 C1081 1.383 . S
C2760 C1151 1.386 . S
C2765 C1165 1.385 . S
C2770 C1095 1.384 . S
C2775 C1109 1.384 . S
C2780 C1123 1.385 . S
C2785 C372 1.684 . S
C2790 C8 1.684 . S
C2795 C22 1.681 . S
C2800 C722 1.681 . S
C2805 C36 1.685 1_545 S
C2810 C344 1.685 1_565 S
C2815 C694 1.681 . S
C2820 C50 1.681 . S
C2825 C64 1.681 . S
C2830 C428 1.681 . S
C2835 C78 1.681 . S
C2840 C778 1.681 . S
C2845 C92 1.681 1_565 S
C2850 C400 1.681 1_545 S
C2855 C106 1.681 . S
C2860 C750 1.681 . S
C2865 C120 1.681 . S
C2870 C176 1.681 . S
C2875 C190 1.681 . S
C2880 C134 1.681 . S
C2885 C148 1.681 1_556 S
C2890 C204 1.681 1_554 S
C2895 C162 1.681 . S
C2900 C218 1.681 . S
C2905 C232 1.681 . S
C2910 C1282 1.681 . S
C2915 C974 1.681 1_455 S
C2920 C246 1.681 1_655 S
C2925 C316 1.681 . S
C2930 C260 1.681 . S
C2935 C1240 1.685 1_655 S
C2940 C274 1.685 1_455 S
C2945 C1338 1.681 . S
C2950 C288 1.681 . S
C2955 C302 1.684 . S
C2960 C918 1.684 . S
C2965 C1296 1.685 . S
C2970 C330 1.684 . S
C2975 C358 1.681 . S
C2980 C1058 1.681 . S
C2985 C1030 1.681 . S
C2990 C386 1.681 . S
C2995 C414 1.681 . S
C3000 C1114 1.681 . S
C3005 C442 1.681 . S
C3010 C1086 1.681 . S
C3015 C512 1.684 1_554 S
C3020 C456 1.684 1_556 S
C3025 C526 1.681 . S
C3030 C470 1.681 . S
C3035 C540 1.681 . S
C3040 C484 1.681 . S
C3045 C554 1.684 . S
C3050 C498 1.685 . S
C3055 C946 1.684 . S
C3060 C568 1.684 . S
C3065 C1310 1.685 1_455 S
C3070 C582 1.685 1_655 S
C3075 C596 1.685 . S
C3080 C652 1.684 . S
C3085 C610 1.684 1_455 S
C3090 C904 1.684 1_655 S
C3095 C624 1.684 . S
C3100 C1002 1.684 . S
C3105 C638 1.684 . S
C3110 C1254 1.684 . S
C3115 C666 1.685 . S
C3120 C960 1.684 . S
C3125 C1044 1.684 . S
C3130 C680 1.684 . S
C3135 C708 1.684 1_545 S
C3140 C1016 1.684 1_565 S
C3145 C1100 1.681 . S
C3150 C736 1.681 . S
C3155 C1072 1.684 1_545 S
C3160 C764 1.684 1_565 S
C3165 C848 1.681 1_554 S
C3170 C792 1.681 1_556 S
C3175 C806 1.681 . S
C3180 C862 1.681 . S
C3185 C820 1.684 . S
C3190 C876 1.684 . S
C3195 C890 1.684 . S
C3200 C834 1.684 . S
C3205 C988 1.681 . S
C3210 C932 1.681 . S
C3215 C1128 1.681 . S
C3220 C1184 1.681 . S
C3225 C1142 1.684 . S
C3230 C1198 1.684 . S
C3235 C1156 1.685 1_556 S
C3240 C1212 1.685 1_554 S
C3245 C1226 1.685 . S
C3250 C1170 1.684 . S
C3255 C1324 1.684 . S
C3260 C1268 1.684 . S
