# Generated by pormake.
# Topology ume, (4)-cn, num edge types: 1
# Building blocks:
#     Node 0, Type 0, BuildingBlock: KUFVIS_clean_sbu_0, # of connection points: 4
#     Node 1, Type 0, BuildingBlock: KUFVIS_clean_sbu_0, # of connection points: 4
#     Node 2, Type 0, BuildingBlock: KUFVIS_clean_sbu_0, # of connection points: 4
#     Node 3, Type 0, BuildingBlock: KUFVIS_clean_sbu_0, # of connection points: 4
#     Node 4, Type 0, BuildingBlock: KUFVIS_clean_sbu_0, # of connection points: 4
#     Node 5, Type 0, BuildingBlock: KUFVIS_clean_sbu_0, # of connection points: 4
#     Node 6, Type 0, BuildingBlock: KUFVIS_clean_sbu_0, # of connection points: 4
#     Node 7, Type 0, BuildingBlock: KUFVIS_clean_sbu_0, # of connection points: 4
#     Node 8, Type 0, BuildingBlock: KUFVIS_clean_sbu_0, # of connection points: 4
#     Node 9, Type 0, BuildingBlock: KUFVIS_clean_sbu_0, # of connection points: 4
#     Node 10, Type 0, BuildingBlock: KUFVIS_clean_sbu_0, # of connection points: 4
#     Node 11, Type 0, BuildingBlock: KUFVIS_clean_sbu_0, # of connection points: 4
#     Node 12, Type 0, BuildingBlock: KUFVIS_clean_sbu_0, # of connection points: 4
#     Node 13, Type 0, BuildingBlock: KUFVIS_clean_sbu_0, # of connection points: 4
#     Node 14, Type 0, BuildingBlock: KUFVIS_clean_sbu_0, # of connection points: 4
#     Node 15, Type 0, BuildingBlock: KUFVIS_clean_sbu_0, # of connection points: 4
#     Edge 16, Type (0, 0), BuildingBlock: XIVTED_clean_linker_0, # of connection points: 2
#     Edge 17, Type (0, 0), BuildingBlock: XIVTED_clean_linker_0, # of connection points: 2
#     Edge 18, Type (0, 0), BuildingBlock: XIVTED_clean_linker_0, # of connection points: 2
#     Edge 19, Type (0, 0), BuildingBlock: XIVTED_clean_linker_0, # of connection points: 2
#     Edge 20, Type (0, 0), BuildingBlock: XIVTED_clean_linker_0, # of connection points: 2
#     Edge 21, Type (0, 0), BuildingBlock: XIVTED_clean_linker_0, # of connection points: 2
#     Edge 22, Type (0, 0), BuildingBlock: XIVTED_clean_linker_0, # of connection points: 2
#     Edge 23, Type (0, 0), BuildingBlock: XIVTED_clean_linker_0, # of connection points: 2
#     Edge 24, Type (0, 0), BuildingBlock: XIVTED_clean_linker_0, # of connection points: 2
#     Edge 25, Type (0, 0), BuildingBlock: XIVTED_clean_linker_0, # of connection points: 2
#     Edge 26, Type (0, 0), BuildingBlock: XIVTED_clean_linker_0, # of connection points: 2
#     Edge 27, Type (0, 0), BuildingBlock: XIVTED_clean_linker_0, # of connection points: 2
#     Edge 28, Type (0, 0), BuildingBlock: XIVTED_clean_linker_0, # of connection points: 2
#     Edge 29, Type (0, 0), BuildingBlock: XIVTED_clean_linker_0, # of connection points: 2
#     Edge 30, Type (0, 0), BuildingBlock: XIVTED_clean_linker_0, # of connection points: 2
#     Edge 31, Type (0, 0), BuildingBlock: XIVTED_clean_linker_0, # of connection points: 2
#     Edge 32, Type (0, 0), BuildingBlock: XIVTED_clean_linker_0, # of connection points: 2
#     Edge 33, Type (0, 0), BuildingBlock: XIVTED_clean_linker_0, # of connection points: 2
#     Edge 34, Type (0, 0), BuildingBlock: XIVTED_clean_linker_0, # of connection points: 2
#     Edge 35, Type (0, 0), BuildingBlock: XIVTED_clean_linker_0, # of connection points: 2
#     Edge 36, Type (0, 0), BuildingBlock: XIVTED_clean_linker_0, # of connection points: 2
#     Edge 37, Type (0, 0), BuildingBlock: XIVTED_clean_linker_0, # of connection points: 2
#     Edge 38, Type (0, 0), BuildingBlock: XIVTED_clean_linker_0, # of connection points: 2
#     Edge 39, Type (0, 0), BuildingBlock: XIVTED_clean_linker_0, # of connection points: 2
#     Edge 40, Type (0, 0), BuildingBlock: XIVTED_clean_linker_0, # of connection points: 2
#     Edge 41, Type (0, 0), BuildingBlock: XIVTED_clean_linker_0, # of connection points: 2
#     Edge 42, Type (0, 0), BuildingBlock: XIVTED_clean_linker_0, # of connection points: 2
#     Edge 43, Type (0, 0), BuildingBlock: XIVTED_clean_linker_0, # of connection points: 2
#     Edge 44, Type (0, 0), BuildingBlock: XIVTED_clean_linker_0, # of connection points: 2
#     Edge 45, Type (0, 0), BuildingBlock: XIVTED_clean_linker_0, # of connection points: 2
#     Edge 46, Type (0, 0), BuildingBlock: XIVTED_clean_linker_0, # of connection points: 2
#     Edge 47, Type (0, 0), BuildingBlock: XIVTED_clean_linker_0, # of connection points: 2
# Relax obj value: 0.107
# Max RMSD: 0.163
# Mean RMSD: 0.163
data_MOF--net-ume--node1-KUFVIS_clean_sbu_0--edge1-XIVTED_clean_linker_0
_symmetry_space_group_name_H-M    P1
_symmetry_Int_Tables_number       1
_symmetry_cell_setting            triclinic
loop_
_symmetry_equiv_pos_as_xyz
'x, y, z'
_cell_length_a     26.244313
_cell_length_b     26.215847
_cell_length_c     115.42495
_cell_angle_alpha  89.994077
_cell_angle_beta   90.004279
_cell_angle_gamma 89.968324
loop_
_atom_site_label
_atom_site_type_symbol
_atom_site_fract_x
_atom_site_fract_y
_atom_site_fract_z
_atom_type_partial_charge
Mn0 Mn 0.25744 0.13632 0.31276 0.0
Mn1 Mn 0.2709 0.03525 0.33077 0.0
C2 C 0.33555 0.09654 0.3148 0.0
C3 C 0.241 0.17148 0.29459 0.0
C4 C 0.26645 0.14398 0.33921 0.0
O5 O 0.18414 0.11327 0.31482 0.0
O6 O 0.19842 0.04855 0.32728 0.0
C7 C 0.2335 0.95522 0.31477 0.0
N8 N 0.2702 0.97343 0.32201 0.0
C9 C 0.3195 0.89654 0.32005 0.0
C10 C 0.28215 0.87682 0.31261 0.0
C11 C 0.23912 0.90644 0.3099 0.0
C12 C 0.31207 0.94558 0.32454 0.0
H13 H 0.20011 0.97762 0.31276 0.0
C14 C 0.16885 0.07689 0.32127 0.0
O15 O 0.23671 0.1985 0.30397 0.0
O16 O 0.25306 0.1238 0.2958 0.0
N17 N 0.33885 0.01668 0.33495 0.0
C18 C 0.3724 0.04228 0.34182 0.0
C19 C 0.41798 0.01842 0.34515 0.0
C20 C 0.42828 0.96833 0.34151 0.0
C21 C 0.39292 0.94256 0.33455 0.0
C22 C 0.3482 0.9683 0.3315 0.0
H23 H 0.36424 0.08043 0.34479 0.0
O24 O 0.3328 0.14362 0.3114 0.0
O25 O 0.29266 0.07391 0.31707 0.0
O26 O 0.25845 0.16497 0.3294 0.0
O27 O 0.27289 0.09623 0.34061 0.0
C28 C 0.40027 0.89236 0.33053 0.0
C29 C 0.36387 0.86956 0.32317 0.0
H30 H 0.28621 0.8391 0.30889 0.0
H31 H 0.21017 0.89154 0.30414 0.0
H32 H 0.44464 0.03836 0.35067 0.0
H33 H 0.46327 0.94988 0.34414 0.0
H34 H 0.43419 0.87121 0.33289 0.0
H35 H 0.37046 0.83133 0.31994 0.0
Mn36 Mn 0.86438 0.75207 0.56084 0.0
Mn37 Mn 0.96493 0.76677 0.57891 0.0
C38 C 0.90498 0.82982 0.5623 0.0
C39 C 0.82939 0.73376 0.54277 0.0
C40 C 0.85605 0.76812 0.58712 0.0
O41 O 0.88574 0.67867 0.56362 0.0
O42 O 0.94862 0.69397 0.57645 0.0
C43 C 0.04289 0.72161 0.56343 0.0
N44 N 0.02653 0.76094 0.57018 0.0
C45 C 0.10529 0.80623 0.56745 0.0
C46 C 0.12312 0.76611 0.56051 0.0
C47 C 0.09164 0.72377 0.55843 0.0
C48 C 0.05617 0.8022 0.57208 0.0
H49 H 0.01906 0.68876 0.56189 0.0
C50 C 0.92039 0.66382 0.57058 0.0
O51 O 0.8021 0.73126 0.55214 0.0
O52 O 0.8773 0.74459 0.54397 0.0
N53 N 0.98681 0.83476 0.58226 0.0
C54 C 0.9634 0.87086 0.58887 0.0
C55 C 0.98953 0.91595 0.59164 0.0
C56 C 0.03969 0.92316 0.58773 0.0
C57 C 0.06332 0.88513 0.5811 0.0
C58 C 0.0354 0.841 0.57861 0.0
H59 H 0.92524 0.86509 0.59207 0.0
O60 O 0.85813 0.82706 0.55879 0.0
O61 O 0.9273 0.78701 0.56492 0.0
O62 O 0.83535 0.75714 0.57743 0.0
O63 O 0.90381 0.77429 0.58854 0.0
C64 C 0.11351 0.88925 0.57686 0.0
C65 C 0.13429 0.85009 0.56994 0.0
H66 H 0.16081 0.7675 0.5567 0.0
H67 H 0.10505 0.6927 0.55306 0.0
H68 H 0.97133 0.94467 0.59694 0.0
H69 H 0.05984 0.95789 0.5899 0.0
H70 H 0.13628 0.92268 0.57876 0.0
H71 H 0.17261 0.85409 0.56657 0.0
Mn72 Mn 0.23598 0.35379 0.81473 0.0
Mn73 Mn 0.22323 0.44667 0.83473 0.0
C74 C 0.15718 0.38973 0.81825 0.0
C75 C 0.2508 0.33239 0.79538 0.0
C76 C 0.2405 0.33473 0.84057 0.0
O77 O 0.30856 0.37915 0.81713 0.0
O78 O 0.29304 0.44777 0.82845 0.0
C79 C 0.23535 0.53873 0.8201 0.0
N80 N 0.20723 0.51078 0.82772 0.0
C81 C 0.14142 0.57475 0.82814 0.0
C82 C 0.16989 0.60438 0.82037 0.0
C83 C 0.21696 0.58619 0.81631 0.0
C84 C 0.16173 0.52778 0.83163 0.0
H85 H 0.27136 0.52475 0.81689 0.0
C86 C 0.32246 0.42031 0.82218 0.0
O87 O 0.2579 0.2991 0.80359 0.0
O88 O 0.23746 0.37783 0.79854 0.0
N89 N 0.15613 0.44982 0.8412 0.0
C90 C 0.13212 0.41542 0.84815 0.0
C91 C 0.08433 0.42752 0.85287 0.0
C92 C 0.06181 0.47488 0.85041 0.0
C93 C 0.08677 0.50935 0.84307 0.0
C94 C 0.1347 0.49551 0.83878 0.0
H95 H 0.14953 0.37931 0.85021 0.0
O96 O 0.16028 0.345 0.81349 0.0
O97 O 0.19996 0.41103 0.82095 0.0
O98 O 0.23689 0.31645 0.83037 0.0
O99 O 0.23858 0.38231 0.84291 0.0
C100 C 0.066 0.55686 0.83986 0.0
C101 C 0.09319 0.58943 0.83235 0.0
H102 H 0.15572 0.64089 0.81738 0.0
H103 H 0.23898 0.60866 0.81024 0.0
H104 H 0.06512 0.4006 0.85847 0.0
H105 H 0.02536 0.48438 0.85423 0.0
H106 H 0.02891 0.56852 0.84301 0.0
H107 H 0.07647 0.62549 0.82979 0.0
Mn108 Mn 0.63201 0.7365 0.06234 0.0
Mn109 Mn 0.53229 0.72821 0.08068 0.0
C110 C 0.59955 0.65778 0.06726 0.0
C111 C 0.66104 0.74663 0.04343 0.0
C112 C 0.64006 0.75566 0.08808 0.0
O113 O 0.60227 0.80831 0.06254 0.0
O114 O 0.52909 0.79381 0.07232 0.0
C115 C 0.44498 0.72539 0.06445 0.0
N116 N 0.47194 0.70387 0.07327 0.0
C117 C 0.41053 0.63631 0.07527 0.0
C118 C 0.38193 0.65791 0.06625 0.0
C119 C 0.39936 0.70251 0.06079 0.0
C120 C 0.45565 0.66084 0.07855 0.0
H121 H 0.4582 0.75974 0.06025 0.0
C122 C 0.55809 0.82187 0.06607 0.0
O123 O 0.69006 0.75748 0.0522 0.0
O124 O 0.61535 0.73067 0.04563 0.0
N125 N 0.53106 0.66528 0.08911 0.0
C126 C 0.56537 0.64679 0.09691 0.0
C127 C 0.55513 0.60077 0.10269 0.0
C128 C 0.50947 0.57458 0.1005 0.0
C129 C 0.47461 0.59449 0.09248 0.0
C130 C 0.48703 0.64032 0.08693 0.0
H131 H 0.60032 0.66689 0.0987 0.0
O132 O 0.64534 0.66132 0.06309 0.0
O133 O 0.57443 0.70002 0.06831 0.0
O134 O 0.66271 0.74648 0.07854 0.0
O135 O 0.5919 0.75295 0.08944 0.0
C136 C 0.42841 0.57022 0.08964 0.0
C137 C 0.39652 0.59093 0.08099 0.0
H138 H 0.3468 0.64031 0.06338 0.0
H139 H 0.37763 0.71926 0.05378 0.0
H140 H 0.58232 0.58559 0.10884 0.0
H141 H 0.50177 0.53901 0.10495 0.0
H142 H 0.41751 0.53505 0.09389 0.0
H143 H 0.36168 0.57125 0.07869 0.0
Mn144 Mn 0.24383 0.36485 0.94441 0.0
Mn145 Mn 0.25396 0.45311 0.92326 0.0
C146 C 0.32281 0.39506 0.93906 0.0
C147 C 0.23408 0.34717 0.96409 0.0
C148 C 0.2287 0.34145 0.91897 0.0
O149 O 0.17216 0.39397 0.94304 0.0
O150 O 0.18679 0.45983 0.93085 0.0
C151 C 0.25224 0.54931 0.93671 0.0
N152 N 0.27609 0.51768 0.92907 0.0
C153 C 0.34488 0.57735 0.92653 0.0
C154 C 0.32088 0.61069 0.93431 0.0
C155 C 0.27443 0.59654 0.93944 0.0
C156 C 0.32073 0.53098 0.92406 0.0
H157 H 0.21664 0.53852 0.9407 0.0
C158 C 0.15846 0.435 0.93791 0.0
O159 O 0.22249 0.3133 0.95629 0.0
O160 O 0.24919 0.39126 0.96039 0.0
N161 N 0.31856 0.45051 0.91556 0.0
C162 C 0.33896 0.41221 0.90907 0.0
C163 C 0.38672 0.41909 0.90383 0.0
C164 C 0.4129 0.46535 0.90526 0.0
C165 C 0.39117 0.50427 0.91197 0.0
C166 C 0.34336 0.49529 0.91695 0.0
H167 H 0.31905 0.37664 0.90792 0.0
O168 O 0.31896 0.35163 0.94439 0.0
O169 O 0.28055 0.41886 0.93699 0.0
O170 O 0.23561 0.32486 0.92923 0.0
O171 O 0.23186 0.3884 0.91614 0.0
C172 C 0.41556 0.5512 0.91409 0.0
C173 C 0.39244 0.58771 0.92138 0.0
H174 H 0.33807 0.64697 0.93652 0.0
H175 H 0.25584 0.62194 0.9455 0.0
H176 H 0.40333 0.3888 0.8987 0.0
H177 H 0.44978 0.47042 0.90124 0.0
H178 H 0.45254 0.55921 0.91034 0.0
H179 H 0.41203 0.62324 0.92313 0.0
Mn180 Mn 0.63 0.75259 0.19517 0.0
Mn181 Mn 0.52647 0.76088 0.17779 0.0
C182 C 0.58448 0.82768 0.19393 0.0
C183 C 0.66759 0.73674 0.2131 0.0
C184 C 0.6341 0.76795 0.1688 0.0
O185 O 0.61268 0.67803 0.1926 0.0
O186 O 0.54701 0.68906 0.18026 0.0
C187 C 0.45336 0.7124 0.19396 0.0
N188 N 0.46665 0.75233 0.18704 0.0
C189 C 0.38717 0.79491 0.19084 0.0
C190 C 0.3725 0.75412 0.19795 0.0
C191 C 0.40587 0.7128 0.19956 0.0
C192 C 0.43512 0.79255 0.18555 0.0
H193 H 0.47872 0.68043 0.19518 0.0
C194 C 0.57788 0.66089 0.18596 0.0
O195 O 0.69428 0.73578 0.20362 0.0
O196 O 0.61907 0.74474 0.2121 0.0
N197 N 0.50069 0.82767 0.17456 0.0
C198 C 0.52098 0.86449 0.16763 0.0
C199 C 0.49243 0.90846 0.16516 0.0
C200 C 0.44323 0.91404 0.16978 0.0
C201 C 0.42282 0.87533 0.17674 0.0
C202 C 0.45286 0.83214 0.17881 0.0
H203 H 0.55844 0.86008 0.16394 0.0
O204 O 0.63185 0.82796 0.19711 0.0
O205 O 0.56475 0.78352 0.19145 0.0
O206 O 0.65663 0.75885 0.17839 0.0
O207 O 0.58585 0.77117 0.16768 0.0
C208 C 0.37384 0.87789 0.1817 0.0
C209 C 0.35621 0.83793 0.18883 0.0
H210 H 0.33582 0.75422 0.20225 0.0
H211 H 0.39491 0.68124 0.20506 0.0
H212 H 0.50805 0.93761 0.15957 0.0
H213 H 0.42129 0.94799 0.16786 0.0
H214 H 0.34956 0.91064 0.18018 0.0
H215 H 0.31877 0.84069 0.19274 0.0
Mn216 Mn 0.23453 0.13079 0.44597 0.0
Mn217 Mn 0.21298 0.03068 0.42809 0.0
C218 C 0.15373 0.09695 0.44409 0.0
C219 C 0.2538 0.16476 0.4641 0.0
C220 C 0.22451 0.1387 0.41951 0.0
O221 O 0.30596 0.10242 0.44374 0.0
O222 O 0.28646 0.0392 0.43125 0.0
C223 C 0.24605 0.94934 0.44426 0.0
N224 N 0.21009 0.96955 0.43709 0.0
C225 C 0.15463 0.8977 0.44007 0.0
C226 C 0.19118 0.87596 0.44743 0.0
C227 C 0.23698 0.90203 0.44958 0.0
C228 C 0.16569 0.94506 0.43507 0.0
H229 H 0.28141 0.96909 0.44588 0.0
C230 C 0.31832 0.06528 0.43717 0.0
O231 O 0.25985 0.19138 0.45471 0.0
O232 O 0.23857 0.11802 0.46291 0.0
N233 N 0.14362 0.01652 0.4242 0.0
C234 C 0.11166 0.04351 0.4172 0.0
C235 C 0.06396 0.023 0.4143 0.0
C236 C 0.04985 0.97476 0.41851 0.0
C237 C 0.08362 0.94739 0.42556 0.0
C238 C 0.13075 0.96965 0.42811 0.0
H239 H 0.12259 0.08029 0.41383 0.0
O240 O 0.15988 0.14369 0.44748 0.0
O241 O 0.1948 0.07125 0.44176 0.0
O242 O 0.23483 0.15904 0.42928 0.0
O243 O 0.21433 0.09153 0.41815 0.0
C244 C 0.07222 0.89906 0.43024 0.0
C245 C 0.10753 0.87441 0.43756 0.0
H246 H 0.18437 0.83943 0.45153 0.0
H247 H 0.2653 0.8856 0.45528 0.0
H248 H 0.03841 0.04416 0.40873 0.0
H249 H 0.01309 0.95898 0.41628 0.0
H250 H 0.03618 0.88074 0.42835 0.0
H251 H 0.09802 0.83762 0.44124 0.0
Mn252 Mn 0.85521 0.74166 0.69361 0.0
Mn253 Mn 0.95949 0.73823 0.67667 0.0
C254 C 0.89368 0.66454 0.68945 0.0
C255 C 0.8207 0.7517 0.71202 0.0
C256 C 0.85245 0.76019 0.6679 0.0
O257 O 0.88077 0.81532 0.6934 0.0
O258 O 0.95802 0.80354 0.68514 0.0
C259 C 0.0428 0.73784 0.69397 0.0
N260 N 0.01887 0.71579 0.68478 0.0
C261 C 0.08271 0.65006 0.68357 0.0
C262 C 0.1083 0.67234 0.69296 0.0
C263 C 0.0881 0.71627 0.69822 0.0
C264 C 0.03772 0.67327 0.67972 0.0
H265 H 0.02732 0.77151 0.69804 0.0
C266 C 0.92551 0.83064 0.69068 0.0
O267 O 0.79349 0.76005 0.70281 0.0
O268 O 0.86779 0.73828 0.71053 0.0
N269 N 0.96494 0.67559 0.66822 0.0
C270 C 0.93331 0.6563 0.65995 0.0
C271 C 0.94652 0.61085 0.65426 0.0
C272 C 0.99232 0.586 0.65704 0.0
C273 C 0.0243 0.60657 0.66557 0.0
C274 C 0.00908 0.6519 0.67097 0.0
H275 H 0.89829 0.67538 0.65769 0.0
O276 O 0.84686 0.66549 0.69307 0.0
O277 O 0.91606 0.70825 0.68852 0.0
O278 O 0.82812 0.74835 0.67705 0.0
O279 O 0.90098 0.7612 0.66722 0.0
C280 C 0.07033 0.58349 0.66903 0.0
C281 C 0.09941 0.60509 0.67806 0.0
H282 H 0.14314 0.65571 0.69629 0.0
H283 H 0.10742 0.73345 0.70552 0.0
H284 H 0.92157 0.59512 0.64771 0.0
H285 H 0.00244 0.55106 0.65261 0.0
H286 H 0.08323 0.5486 0.66494 0.0
H287 H 0.13414 0.58634 0.68082 0.0
Mn288 Mn 0.75969 0.6256 0.80962 0.0
Mn289 Mn 0.77599 0.51944 0.82595 0.0
C290 C 0.83924 0.58847 0.81131 0.0
C291 C 0.7407 0.66269 0.79184 0.0
C292 C 0.76585 0.62598 0.83603 0.0
O293 O 0.68694 0.60019 0.81168 0.0
O294 O 0.70415 0.52827 0.82159 0.0
C295 C 0.75025 0.44452 0.80764 0.0
N296 N 0.78228 0.46117 0.81612 0.0
C297 C 0.83731 0.3887 0.81353 0.0
C298 C 0.80428 0.3701 0.80497 0.0
C299 C 0.76082 0.39842 0.80193 0.0
C300 C 0.82496 0.43507 0.81885 0.0
H301 H 0.71707 0.46639 0.80523 0.0
C302 C 0.67345 0.55835 0.81641 0.0
O303 O 0.73645 0.68848 0.80141 0.0
O304 O 0.75458 0.61539 0.79266 0.0
N305 N 0.84392 0.50398 0.83082 0.0
C306 C 0.87364 0.52894 0.83865 0.0
C307 C 0.91961 0.50672 0.8423 0.0
C308 C 0.93398 0.4586 0.83805 0.0
C309 C 0.90254 0.43335 0.83011 0.0
C310 C 0.85728 0.45741 0.82677 0.0
H311 H 0.86217 0.56533 0.84213 0.0
O312 O 0.83499 0.63575 0.80816 0.0
O313 O 0.79717 0.56407 0.81326 0.0
O314 O 0.76129 0.65025 0.8265 0.0
O315 O 0.77101 0.57761 0.83677 0.0
C316 C 0.91463 0.38548 0.82527 0.0
C317 C 0.88234 0.36344 0.81688 0.0
H318 H 0.81228 0.33451 0.80056 0.0
H319 H 0.73551 0.38472 0.79522 0.0
H320 H 0.94353 0.52639 0.84848 0.0
H321 H 0.96923 0.44125 0.84087 0.0
H322 H 0.94914 0.36569 0.82778 0.0
H323 H 0.89267 0.32724 0.81302 0.0
Mn324 Mn 0.36175 0.2628 0.06412 0.0
Mn325 Mn 0.46374 0.25656 0.08174 0.0
C326 C 0.40174 0.33672 0.07016 0.0
C327 C 0.33021 0.2641 0.04525 0.0
C328 C 0.35511 0.23415 0.08938 0.0
O329 O 0.38576 0.18889 0.06273 0.0
O330 O 0.46139 0.19454 0.07207 0.0
C331 C 0.54961 0.26006 0.06511 0.0
N332 N 0.52492 0.2797 0.07448 0.0
C333 C 0.59071 0.34228 0.0774 0.0
C334 C 0.61714 0.32233 0.06787 0.0
C335 C 0.59633 0.28125 0.06165 0.0
C336 C 0.54434 0.31957 0.08045 0.0
H337 H 0.53357 0.22872 0.06028 0.0
C338 C 0.42932 0.17101 0.06563 0.0
O339 O 0.30137 0.2503 0.05385 0.0
O340 O 0.3772 0.275 0.0476 0.0
N341 N 0.4697 0.31597 0.09129 0.0
C342 C 0.43693 0.33404 0.09948 0.0
C343 C 0.45025 0.37744 0.10593 0.0
C344 C 0.49729 0.40149 0.10399 0.0
C345 C 0.53039 0.38215 0.09553 0.0
C346 C 0.5149 0.33903 0.0893 0.0
H347 H 0.40088 0.31561 0.10108 0.0
O348 O 0.35509 0.33853 0.06643 0.0
O349 O 0.42265 0.29212 0.0703 0.0
O350 O 0.33211 0.2491 0.08027 0.0
O351 O 0.40352 0.2324 0.09035 0.0
C352 C 0.57783 0.4044 0.09291 0.0
C353 C 0.60796 0.38452 0.08384 0.0
H354 H 0.65308 0.33871 0.06514 0.0
H355 H 0.61624 0.26596 0.05421 0.0
H356 H 0.4244 0.39223 0.11242 0.0
H357 H 0.50742 0.43499 0.10897 0.0
H358 H 0.59104 0.43748 0.09766 0.0
H359 H 0.64384 0.4027 0.08174 0.0
Mn360 Mn 0.73737 0.86076 0.31146 0.0
Mn361 Mn 0.72377 0.95871 0.33034 0.0
C362 C 0.65915 0.8999 0.3139 0.0
C363 C 0.75349 0.82848 0.29301 0.0
C364 C 0.72888 0.84874 0.33784 0.0
O365 O 0.81063 0.88378 0.31367 0.0
O366 O 0.79624 0.94617 0.32673 0.0
C367 C 0.76074 0.04151 0.31503 0.0
N368 N 0.72415 0.02194 0.32212 0.0
C369 C 0.67461 0.09895 0.32087 0.0
C370 C 0.71182 0.12006 0.31359 0.0
C371 C 0.75492 0.09106 0.3106 0.0
C372 C 0.68223 0.0492 0.32491 0.0
H373 H 0.79419 0.01957 0.31282 0.0
C374 C 0.82582 0.91894 0.32047 0.0
O375 O 0.75819 0.80011 0.30216 0.0
O376 O 0.74131 0.87591 0.2946 0.0
N377 N 0.6558 0.97629 0.33471 0.0
C378 C 0.62242 0.94943 0.34137 0.0
C379 C 0.5768 0.97254 0.34493 0.0
C380 C 0.56631 0.02319 0.34174 0.0
C381 C 0.6015 0.05025 0.33499 0.0
C382 C 0.64625 0.02519 0.33168 0.0
H383 H 0.63076 0.91083 0.34401 0.0
O384 O 0.662 0.8534 0.31011 0.0
O385 O 0.702 0.92229 0.31632 0.0
O386 O 0.73679 0.82941 0.32786 0.0
O387 O 0.72215 0.89617 0.33965 0.0
C388 C 0.59397 0.1011 0.33142 0.0
C389 C 0.6302 0.12524 0.32425 0.0
H390 H 0.70761 0.15838 0.31021 0.0
H391 H 0.78376 0.10704 0.30497 0.0
H392 H 0.55025 0.95159 0.35028 0.0
H393 H 0.53131 0.04108 0.34455 0.0
H394 H 0.56002 0.12173 0.33399 0.0
H395 H 0.62347 0.16399 0.32137 0.0
Mn396 Mn 0.13768 0.23302 0.56224 0.0
Mn397 Mn 0.03525 0.21812 0.57973 0.0
C398 C 0.09718 0.15515 0.5635 0.0
C399 C 0.17408 0.25128 0.5443 0.0
C400 C 0.14326 0.21768 0.58859 0.0
O401 O 0.11566 0.30633 0.56484 0.0
O402 O 0.05112 0.29101 0.57723 0.0
C403 C 0.95845 0.26225 0.56379 0.0
N404 N 0.97451 0.22319 0.57067 0.0
C405 C 0.89647 0.17711 0.56757 0.0
C406 C 0.87895 0.21695 0.56051 0.0
C407 C 0.91023 0.25957 0.55855 0.0
C408 C 0.94505 0.18171 0.57246 0.0
H409 H 0.98211 0.2953 0.56235 0.0
C410 C 0.07985 0.32119 0.57149 0.0
O411 O 0.20067 0.25391 0.55377 0.0
O412 O 0.12616 0.24026 0.54531 0.0
N413 N 0.01372 0.14994 0.58301 0.0
C414 C 0.03704 0.11389 0.58966 0.0
C415 C 0.01125 0.06837 0.59223 0.0
C416 C 0.96147 0.06075 0.58811 0.0
C417 C 0.93796 0.09867 0.58143 0.0
C418 C 0.96557 0.14317 0.57912 0.0
H419 H 0.07492 0.11998 0.59301 0.0
O420 O 0.1444 0.15801 0.56027 0.0
O421 O 0.07452 0.19791 0.56599 0.0
O422 O 0.16502 0.22832 0.57899 0.0
O423 O 0.09537 0.21142 0.58973 0.0
C424 C 0.88823 0.09402 0.57694 0.0
C425 C 0.86769 0.13297 0.56992 0.0
H426 H 0.84167 0.21513 0.5565 0.0
H427 H 0.89706 0.29042 0.55309 0.0
H428 H 0.02943 0.03958 0.59752 0.0
H429 H 0.94151 0.02577 0.59014 0.0
H430 H 0.86568 0.06031 0.57871 0.0
H431 H 0.82977 0.12853 0.56636 0.0
Mn432 Mn 0.75595 0.85671 0.44444 0.0
Mn433 Mn 0.76182 0.95873 0.42651 0.0
C434 C 0.83118 0.90137 0.44216 0.0
C435 C 0.74306 0.8204 0.46263 0.0
C436 C 0.76319 0.85002 0.41796 0.0
O437 O 0.68118 0.87529 0.44265 0.0
O438 O 0.69048 0.9412 0.43025 0.0
C439 C 0.72134 0.03588 0.44285 0.0
N440 N 0.75849 0.01999 0.43544 0.0
C441 C 0.80489 0.09837 0.43787 0.0
C442 C 0.76702 0.11572 0.44548 0.0
C443 C 0.7252 0.0842 0.44803 0.0
C444 C 0.79917 0.04972 0.43305 0.0
H445 H 0.68896 0.01195 0.44477 0.0
C446 C 0.66321 0.91086 0.43631 0.0
O447 O 0.7398 0.79327 0.45325 0.0
O448 O 0.75199 0.86875 0.46142 0.0
N449 N 0.8284 0.98106 0.42212 0.0
C450 C 0.86247 0.95789 0.41494 0.0
C451 C 0.90672 0.98411 0.41161 0.0
C452 C 0.91533 0.03393 0.41564 0.0
C453 C 0.87948 0.05718 0.42292 0.0
C454 C 0.83594 0.02931 0.42589 0.0
H455 H 0.85567 0.9199 0.4117 0.0
O456 O 0.83179 0.85417 0.44553 0.0
O457 O 0.78675 0.92111 0.44006 0.0
O458 O 0.75766 0.82846 0.42778 0.0
O459 O 0.76639 0.89812 0.41655 0.0
C460 C 0.8852 0.10694 0.42735 0.0
C461 C 0.8482 0.12732 0.43492 0.0
H462 H 0.76977 0.15304 0.44946 0.0
H463 H 0.69589 0.09725 0.45392 0.0
H464 H 0.93377 0.96616 0.40583 0.0
H465 H 0.94937 0.05416 0.41304 0.0
H466 H 0.91819 0.12967 0.42509 0.0
H467 H 0.85347 0.16528 0.43842 0.0
Mn468 Mn 0.12888 0.26753 0.69444 0.0
Mn469 Mn 0.02997 0.27258 0.67588 0.0
C470 C 0.09589 0.34535 0.68872 0.0
C471 C 0.15673 0.26324 0.71361 0.0
C472 C 0.13784 0.24299 0.66895 0.0
O473 O 0.09881 0.19576 0.69497 0.0
O474 O 0.02622 0.20841 0.68479 0.0
C475 C 0.94222 0.2789 0.69194 0.0
N476 N 0.96984 0.29893 0.68305 0.0
C477 C 0.91067 0.36846 0.68085 0.0
C478 C 0.88144 0.3484 0.68994 0.0
C479 C 0.8974 0.30354 0.69553 0.0
C480 C 0.95494 0.3422 0.67764 0.0
H481 H 0.9544 0.24448 0.69626 0.0
C482 C 0.05496 0.18145 0.69136 0.0
O483 O 0.18607 0.24859 0.70516 0.0
O484 O 0.11128 0.27829 0.7109 0.0
N485 N 0.02982 0.33427 0.66699 0.0
C486 C 0.06439 0.35077 0.65902 0.0
C487 C 0.05538 0.39645 0.65301 0.0
C488 C 0.0108 0.4245 0.6552 0.0
C489 C 0.97582 0.40683 0.66345 0.0
C490 C 0.98681 0.36101 0.66916 0.0
H491 H 0.09856 0.32929 0.65725 0.0
O492 O 0.14181 0.34289 0.69287 0.0
O493 O 0.07181 0.30254 0.68798 0.0
O494 O 0.16016 0.25383 0.67844 0.0
O495 O 0.08972 0.24579 0.66746 0.0
C496 C 0.93081 0.43323 0.66633 0.0
C497 C 0.89829 0.4141 0.67504 0.0
H498 H 0.84698 0.36742 0.69278 0.0
H499 H 0.8752 0.288 0.7026 0.0
H500 H 0.08264 0.40992 0.64668 0.0
H501 H 0.00393 0.45958 0.65051 0.0
H502 H 0.92128 0.46873 0.66204 0.0
H503 H 0.86429 0.43525 0.67734 0.0
Mn504 Mn 0.71818 0.63716 0.94287 0.0
Mn505 Mn 0.72109 0.53268 0.92601 0.0
C506 C 0.64317 0.5951 0.93849 0.0
C507 C 0.72591 0.67169 0.96136 0.0
C508 C 0.73946 0.64065 0.91735 0.0
O509 O 0.79299 0.61519 0.94279 0.0
O510 O 0.78486 0.53639 0.935 0.0
C511 C 0.72172 0.4481 0.94301 0.0
N512 N 0.70008 0.47184 0.93375 0.0
C513 C 0.63922 0.40403 0.93138 0.0
C514 C 0.66113 0.37861 0.94084 0.0
C515 C 0.70233 0.40093 0.94673 0.0
C516 C 0.66003 0.45102 0.92811 0.0
H517 H 0.75336 0.46515 0.94754 0.0
C518 C 0.81018 0.57073 0.94039 0.0
O519 O 0.73316 0.69957 0.9522 0.0
O520 O 0.71471 0.62407 0.95977 0.0
N521 N 0.66004 0.52532 0.91709 0.0
C522 C 0.64009 0.55713 0.90892 0.0
C523 C 0.59652 0.54214 0.90274 0.0
C524 C 0.57431 0.49438 0.90491 0.0
C525 C 0.59544 0.46234 0.91337 0.0
C526 C 0.6386 0.47951 0.91932 0.0
H527 H 0.65726 0.59358 0.90711 0.0
O528 O 0.64182 0.64195 0.94213 0.0
O529 O 0.68789 0.57469 0.9377 0.0
O530 O 0.72445 0.66468 0.92631 0.0
O531 O 0.74321 0.5922 0.91684 0.0
C532 C 0.57511 0.41423 0.9162 0.0
C533 C 0.59696 0.3851 0.9252 0.0
H534 H 0.64625 0.34225 0.94373 0.0
H535 H 0.7192 0.38174 0.95409 0.0
H536 H 0.58034 0.56718 0.89626 0.0
H537 H 0.54099 0.4828 0.90006 0.0
H538 H 0.542 0.39973 0.91166 0.0
H539 H 0.58026 0.34866 0.92747 0.0
Mn540 Mn 0.35838 0.23269 0.19664 0.0
Mn541 Mn 0.46077 0.20944 0.17961 0.0
C542 C 0.39297 0.15194 0.19565 0.0
C543 C 0.32266 0.25438 0.21444 0.0
C544 C 0.35358 0.21693 0.1703 0.0
O545 O 0.38587 0.30409 0.19392 0.0
O546 O 0.45037 0.28347 0.18192 0.0
C547 C 0.53883 0.24763 0.196 0.0
N548 N 0.52061 0.2098 0.18905 0.0
C549 C 0.59301 0.15655 0.19322 0.0
C550 C 0.61271 0.19506 0.20036 0.0
C551 C 0.58537 0.2407 0.2018 0.0
C552 C 0.5463 0.16552 0.18772 0.0
H553 H 0.5181 0.28287 0.1971 0.0
C554 C 0.42333 0.31598 0.18743 0.0
O555 O 0.29669 0.2586 0.2049 0.0
O556 O 0.36968 0.23979 0.21356 0.0
N557 N 0.47726 0.13966 0.17651 0.0
C558 C 0.45247 0.10582 0.16956 0.0
C559 C 0.47469 0.05815 0.16726 0.0
C560 C 0.52242 0.04601 0.17202 0.0
C561 C 0.54754 0.08165 0.17903 0.0
C562 C 0.52372 0.12868 0.18094 0.0
H563 H 0.41617 0.11524 0.16575 0.0
O564 O 0.34595 0.15836 0.19876 0.0
O565 O 0.41878 0.19282 0.19315 0.0
O566 O 0.33194 0.22931 0.17981 0.0
O567 O 0.40105 0.20725 0.16933 0.0
C568 C 0.59516 0.0722 0.18425 0.0
C569 C 0.6177 0.10949 0.19141 0.0
H570 H 0.64866 0.18989 0.20483 0.0
H571 H 0.60022 0.27054 0.20732 0.0
H572 H 0.45529 0.0311 0.16174 0.0
H573 H 0.53959 0.00931 0.17026 0.0
H574 H 0.61454 0.03619 0.18291 0.0
H575 H 0.654 0.10153 0.1955 0.0
H576 H 0.88174 0.94253 0.33932 0.0
H577 H 0.10331 0.07477 0.30285 0.0
H578 H 0.89012 0.93169 0.30209 0.0
H579 H 0.11376 0.04235 0.33941 0.0
H580 H 0.02001 0.03186 0.30239 0.0
H581 H 0.96429 0.98503 0.33951 0.0
C582 C 0.90172 0.94822 0.3312 0.0
C583 C 0.87968 0.93338 0.32068 0.0
C584 C 0.04046 0.03464 0.31051 0.0
C585 C 0.97309 0.98344 0.32077 0.0
C586 C 0.0874 0.05978 0.31081 0.0
C587 C 0.115 0.06207 0.32119 0.0
C588 C 0.02127 0.01241 0.32069 0.0
C589 C 0.09349 0.04127 0.33124 0.0
C590 C 0.94855 0.9728 0.33129 0.0
C591 C 0.90651 0.94199 0.31038 0.0
N592 N 0.04794 0.0172 0.33073 0.0
N593 N 0.95181 0.96716 0.31065 0.0
H594 H 0.94559 0.60965 0.58968 0.0
H595 H 0.079 0.38845 0.55342 0.0
H596 H 0.93067 0.5973 0.55258 0.0
H597 H 0.04404 0.3749 0.58981 0.0
H598 H 0.03536 0.47136 0.55311 0.0
H599 H 0.98851 0.52699 0.59005 0.0
C600 C 0.95036 0.58877 0.58165 0.0
C601 C 0.93428 0.60974 0.5711 0.0
C602 C 0.03777 0.45035 0.56117 0.0
C603 C 0.98497 0.51648 0.57139 0.0
C604 C 0.06338 0.40364 0.5614 0.0
C605 C 0.06516 0.3752 0.57167 0.0
C606 C 0.01456 0.46862 0.57133 0.0
C607 C 0.04344 0.39585 0.58172 0.0
C608 C 0.9752 0.54193 0.58184 0.0
C609 C 0.94186 0.58179 0.5609 0.0
N610 N 0.01893 0.4413 0.5813 0.0
N611 N 0.96741 0.53668 0.56126 0.0
H612 H 0.5859 0.61524 0.81368 0.0
H613 H 0.40529 0.36992 0.81318 0.0
H614 H 0.64091 0.46048 0.81687 0.0
H615 H 0.35673 0.51678 0.82618 0.0
H616 H 0.49018 0.40572 0.80972 0.0
H617 H 0.49814 0.58201 0.81343 0.0
C618 C 0.57956 0.57448 0.8142 0.0
C619 C 0.62052 0.54064 0.81543 0.0
C620 C 0.46061 0.42994 0.81328 0.0
C621 C 0.52156 0.50276 0.81495 0.0
C622 C 0.41238 0.40955 0.81528 0.0
C623 C 0.3741 0.44017 0.8201 0.0
C624 C 0.47012 0.48133 0.81596 0.0
C625 C 0.38523 0.49151 0.82258 0.0
C626 C 0.52978 0.55562 0.81408 0.0
C627 C 0.61046 0.48807 0.81603 0.0
N628 N 0.43228 0.51051 0.82047 0.0
N629 N 0.56201 0.47076 0.81579 0.0
H630 H 0.36874 0.08803 0.0611 0.0
H631 H 0.61046 0.90342 0.05706 0.0
H632 H 0.52523 0.13858 0.06101 0.0
H633 H 0.45956 0.85449 0.0671 0.0
H634 H 0.57616 0.98836 0.05297 0.0
H635 H 0.39849 0.0005 0.05763 0.0
C636 C 0.40915 0.08086 0.06011 0.0
C637 C 0.44468 0.12017 0.06158 0.0
C638 C 0.55059 0.95873 0.05595 0.0
C639 C 0.47873 0.02118 0.05761 0.0
C640 C 0.57015 0.91037 0.05831 0.0
C641 C 0.5381 0.87223 0.06269 0.0
C642 C 0.49869 0.9687 0.05794 0.0
C643 C 0.48597 0.88311 0.064 0.0
C644 C 0.42611 0.03108 0.05817 0.0
C645 C 0.49663 0.10914 0.06017 0.0
N646 N 0.46797 0.9305 0.06173 0.0
N647 N 0.51214 0.06057 0.05838 0.0
H648 H 0.07891 0.39089 0.94969 0.0
H649 H 0.89535 0.63119 0.94052 0.0
H650 H 0.12409 0.53045 0.9326 0.0
H651 H 0.84303 0.47851 0.94778 0.0
H652 H 0.98363 0.60125 0.94263 0.0
H653 H -0.00434 0.42906 0.95368 0.0
C654 C 0.07145 0.4295 0.94681 0.0
C655 C 0.10818 0.45711 0.94062 0.0
C656 C 0.95263 0.57463 0.94394 0.0
C657 C 0.01366 0.5011 0.94529 0.0
C658 C 0.90248 0.59175 0.94282 0.0
C659 C 0.86226 0.55696 0.94377 0.0
C660 C 0.962 0.52269 0.94615 0.0
C661 C 0.87316 0.50627 0.94676 0.0
C662 C 0.02408 0.45131 0.94913 0.0
C663 C 0.09664 0.50731 0.93722 0.0
N664 N 0.92206 0.4905 0.94773 0.0
N665 N 0.05028 0.52759 0.93955 0.0
H666 H 0.42324 0.38692 0.20481 0.0
H667 H 0.55554 0.60304 0.16722 0.0
H668 H 0.46587 0.36432 0.16907 0.0
H669 H 0.57097 0.59646 0.20438 0.0
H670 H 0.51631 0.51849 0.16746 0.0
H671 H 0.46741 0.46955 0.20455 0.0
C672 C 0.44092 0.39991 0.19686 0.0
C673 C 0.44086 0.36913 0.18693 0.0
C674 C 0.52906 0.53511 0.17555 0.0
C675 C 0.49181 0.46236 0.18663 0.0
C676 C 0.55179 0.58302 0.1754 0.0
C677 C 0.56687 0.60612 0.18578 0.0
C678 C 0.52022 0.51085 0.18619 0.0
C679 C 0.56054 0.57929 0.19618 0.0
C680 C 0.46674 0.44649 0.19677 0.0
C681 C 0.46511 0.38708 0.1769 0.0
N682 N 0.53684 0.53319 0.19616 0.0
N683 N 0.48957 0.43258 0.177 0.0
H684 H 0.36863 0.02865 0.41854 0.0
H685 H 0.60079 0.91648 0.45519 0.0
H686 H 0.38669 0.05882 0.45505 0.0
H687 H 0.60344 0.93465 0.41807 0.0
H688 H 0.5158 0.95617 0.45562 0.0
H689 H 0.45047 0.98474 0.41846 0.0
C690 C 0.3904 0.02665 0.42651 0.0
C691 C 0.37133 0.04758 0.4368 0.0
C692 C 0.53485 0.95078 0.44739 0.0
C693 C 0.46421 -0.00378 0.43685 0.0
C694 C 0.58273 0.92745 0.44713 0.0
C695 C 0.60859 0.92224 0.43657 0.0
C696 C 0.51298 0.96822 0.437 0.0
C697 C 0.58444 0.938 0.42637 0.0
C698 C 0.43688 0.00135 0.42648 0.0
C699 C 0.40065 0.04373 0.44691 0.0
N700 N 0.53801 0.96043 0.42684 0.0
N701 N 0.44566 0.01795 0.44672 0.0
H702 H 0.1089 0.09848 0.69916 0.0
H703 H 0.86639 0.91442 0.6957 0.0
H704 H 0.95623 0.14965 0.69133 0.0
H705 H 0.02273 0.8637 0.69359 0.0
H706 H 0.89702 0.00144 0.6993 0.0
H707 H 0.07543 0.01245 0.70242 0.0
C708 C 0.06835 0.0918 0.69828 0.0
C709 C 0.03548 0.13091 0.69472 0.0
C710 C 0.92445 0.97095 0.69819 0.0
C711 C -0.00291 0.03322 0.69847 0.0
C712 C 0.90701 0.92144 0.69615 0.0
C713 C 0.94206 0.88211 0.69411 0.0
C714 C 0.97714 0.9807 0.69829 0.0
C715 C 0.99433 0.89309 0.69487 0.0
C716 C 0.04929 0.0428 0.70012 0.0
C717 C 0.98315 0.12032 0.69381 0.0
N718 N 0.01027 0.94142 0.69682 0.0
N719 N 0.96563 0.07236 0.69556 0.0
H720 H 0.56389 0.86507 0.31881 0.0
H721 H 0.43088 0.13041 0.31993 0.0
H722 H 0.64476 -0.00383 0.30587 0.0
H723 H 0.3497 0.00154 0.30598 0.0
H724 H 0.5108 0.08245 0.3179 0.0
H725 H 0.48389 0.91326 0.31723 0.0
C726 C 0.56474 0.90425 0.31583 0.0
C727 C 0.61093 0.92794 0.31308 0.0
C728 C 0.47531 0.06454 0.31551 0.0
C729 C 0.52056 0.98281 0.31151 0.0
C730 C 0.42995 0.09173 0.31664 0.0
C731 C 0.38369 0.06854 0.31373 0.0
C732 C 0.47398 0.01386 0.31166 0.0
C733 C 0.38444 0.01928 0.30901 0.0
C734 C 0.51933 0.93155 0.31495 0.0
C735 C 0.61007 0.9779 0.30877 0.0
N736 N 0.42884 0.99286 0.30839 0.0
N737 N 0.56564 0.00436 0.30838 0.0
H738 H 0.86979 0.92448 0.56745 0.0
H739 H 0.13166 0.06009 0.56854 0.0
H740 H 0.00038 0.84504 0.5538 0.0
H741 H 0.00277 0.14062 0.55439 0.0
H742 H 0.08487 0.97972 0.56623 0.0
H743 H 0.91682 0.00503 0.56576 0.0
C744 C 0.90858 0.9241 0.56424 0.0
C745 C 0.93254 0.87817 0.56134 0.0
C746 C 0.06679 0.01511 0.56379 0.0
C747 C 0.98597 0.9692 0.55956 0.0
C748 C 0.09325 0.06075 0.5651 0.0
C749 C 0.06966 0.1069 0.56223 0.0
C750 C 0.01646 0.01605 0.55976 0.0
C751 C 0.02079 0.10587 0.55736 0.0
C752 C 0.93518 0.96983 0.56328 0.0
C753 C 0.98197 0.87958 0.55677 0.0
N754 N -0.00496 0.06113 0.55653 0.0
N755 N 0.00779 0.92438 0.55629 0.0
H756 H 0.15191 0.48254 0.80833 0.0
H757 H 0.85939 0.50018 0.80021 0.0
H758 H 0.05872 0.36406 0.82317 0.0
H759 H 0.93033 0.61956 0.82017 0.0
H760 H 0.93924 0.45123 0.80099 0.0
H761 H 0.07558 0.53524 0.80557 0.0
C762 C 0.11536 0.46813 0.81119 0.0
C763 C 0.11139 0.42043 0.8166 0.0
C764 C 0.93713 0.48831 0.80511 0.0
C765 C 0.02479 0.47812 0.81261 0.0
C766 C 0.89194 0.5159 0.80475 0.0
C767 C 0.88823 0.56235 0.81065 0.0
C768 C 0.97882 0.50851 0.81108 0.0
C769 C 0.93178 0.58296 0.81584 0.0
C770 C 0.07217 0.49779 0.80946 0.0
C771 C 0.06315 0.4015 0.81935 0.0
N772 N 0.97564 0.55547 0.81605 0.0
N773 N 0.02132 0.43061 0.8173 0.0
H774 H 0.6327 0.57104 0.0779 0.0
H775 H 0.48968 0.35111 0.05866 0.0
H776 H 0.51058 0.63246 0.05718 0.0
H777 H 0.38234 0.42768 0.08094 0.0
H778 H 0.54345 0.4276 0.05872 0.0
H779 H 0.58634 0.4895 0.07894 0.0
C780 C 0.596 0.56726 0.07369 0.0
C781 C 0.57402 0.6085 0.06787 0.0
C782 C 0.50845 0.42715 0.0637 0.0
C783 C 0.52154 0.51718 0.06917 0.0
C784 C 0.47808 0.3838 0.06376 0.0
C785 C 0.43308 0.38274 0.07028 0.0
C786 C 0.49232 0.47009 0.06982 0.0
C787 C 0.41764 0.42689 0.07609 0.0
C788 C 0.56968 0.5212 0.07434 0.0
C789 C 0.52733 0.60184 0.06219 0.0
N790 N 0.44732 0.4693 0.07568 0.0
N791 N 0.50195 0.55707 0.06314 0.0
H792 H 0.41456 0.35869 0.93165 0.0
H793 H 0.62877 0.5057 0.9495 0.0
H794 H 0.3419 0.48978 0.94697 0.0
H795 H 0.55185 0.61653 0.92818 0.0
H796 H 0.55235 0.45187 0.94907 0.0
H797 H 0.49575 0.40559 0.93172 0.0
C798 C 0.41575 0.39757 0.93481 0.0
C799 C 0.37158 0.42167 0.93877 0.0
C800 C 0.55265 0.4877 0.94439 0.0
C801 C 0.46267 0.47495 0.93863 0.0
C802 C 0.59599 0.51809 0.94455 0.0
C803 C 0.597 0.56399 0.93835 0.0
C804 C 0.50957 0.50476 0.93843 0.0
C805 C 0.55268 0.58048 0.93276 0.0
C806 C 0.46169 0.42419 0.9348 0.0
C807 C 0.37493 0.47121 0.94325 0.0
N808 N 0.51026 0.55079 0.93297 0.0
N809 N 0.41966 0.49688 0.94284 0.0
H810 H 0.49104 0.83507 0.2039 0.0
H811 H 0.35534 0.05968 0.18914 0.0
H812 H 0.61052 0.92501 0.1885 0.0
H813 H 0.48294 0.13097 0.20614 0.0
H814 H 0.399 0.97696 0.19071 0.0
H815 H 0.4388 0.91261 0.20584 0.0
C816 C 0.50578 0.87109 0.20078 0.0
C817 C 0.55356 0.8737 0.1954 0.0
C818 C 0.41711 0.01076 0.19413 0.0
C819 C 0.49635 0.96182 0.19833 0.0
C820 C 0.39251 0.0577 0.19319 0.0
C821 C 0.41704 0.10198 0.19701 0.0
C822 C 0.46623 0.0087 0.19888 0.0
C823 C 0.46427 0.09769 0.20257 0.0
C824 C 0.47642 0.91505 0.20202 0.0
C825 C 0.57296 0.92148 0.19229 0.0
N826 N 0.48819 0.05186 0.20307 0.0
N827 N 0.54412 0.96391 0.1938 0.0
H828 H 0.83849 -0.00488 0.45195 0.0
H829 H 0.06138 0.13434 0.43742 0.0
H830 H 0.92842 0.87634 0.4362 0.0
H831 H 0.13301 0.00586 0.45407 0.0
H832 H 0.97919 0.08946 0.43849 0.0
H833 H 0.91529 0.04839 0.45347 0.0
C834 C 0.87433 0.98076 0.44864 0.0
C835 C 0.87707 0.93277 0.44333 0.0
C836 C 0.01299 0.07137 0.4419 0.0
C837 C 0.96457 0.99131 0.44578 0.0
C838 C 0.05961 0.09671 0.44128 0.0
C839 C 0.10388 0.07239 0.44517 0.0
C840 C 0.01125 0.02171 0.4464 0.0
C841 C 0.09981 0.02448 0.45045 0.0
C842 C 0.9179 0.01076 0.44964 0.0
C843 C 0.92474 0.91397 0.43998 0.0
N844 N 0.05434 -9e-05 0.45066 0.0
N845 N 0.96689 0.94343 0.44127 0.0
H846 H 0.01113 0.36394 0.701 0.0
H847 H 0.97863 0.64606 0.7018 0.0
H848 H 0.1182 0.43566 0.67783 0.0
H849 H 0.87324 0.57536 0.67808 0.0
H850 H 0.03088 0.56823 0.7015 0.0
H851 H 0.96012 0.4424 0.7011 0.0
C852 C 0.02359 0.39626 0.69588 0.0
C853 C 0.06762 0.3933 0.68905 0.0
C854 C -0.00356 0.57019 0.69634 0.0
C855 C 0.01091 0.4823 0.68946 0.0
C856 C 0.96685 0.61415 0.69647 0.0
C857 C 0.92296 0.6172 0.68961 0.0
C858 C 0.98102 0.52906 0.68952 0.0
C859 C 0.90763 0.57444 0.68326 0.0
C860 C -0.00529 0.44061 0.69599 0.0
C861 C 0.08374 0.43653 0.68298 0.0
N862 N 0.93694 0.5317 0.68333 0.0
N863 N 0.05504 0.47971 0.68328 0.0
H864 H 0.34349 0.16273 0.35428 0.0
H865 H 0.14849 0.15972 0.40431 0.0
H866 H 0.18366 0.19012 0.34862 0.0
H867 H 0.30864 0.18353 0.41032 0.0
H868 H 0.15962 0.18667 0.38421 0.0
H869 H 0.33302 0.18649 0.37462 0.0
C870 C 0.30654 0.17563 0.35727 0.0
C871 C 0.26435 0.17458 0.34985 0.0
C872 C 0.19218 0.18757 0.38997 0.0
C873 C 0.25143 0.19965 0.37316 0.0
C874 C 0.18573 0.17225 0.40145 0.0
C875 C 0.22776 0.16937 0.40889 0.0
C876 C 0.24138 0.19836 0.38583 0.0
C877 C 0.27531 0.1856 0.4048 0.0
C878 C 0.30045 0.18901 0.36889 0.0
C879 C 0.21713 0.19092 0.35411 0.0
N880 N 0.28114 0.19823 0.39344 0.0
N881 N 0.21162 0.20159 0.36557 0.0
H882 H 0.80489 0.69334 0.59866 0.0
H883 H 0.8523 0.84753 0.65549 0.0
H884 H 0.83954 0.85378 0.59959 0.0
H885 H 0.793 0.69445 0.65561 0.0
H886 H 0.82759 0.85626 0.63521 0.0
H887 H 0.77973 0.69741 0.61912 0.0
C888 C 0.80514 0.72982 0.60307 0.0
C889 C 0.82458 0.77323 0.59756 0.0
C890 C 0.8186 0.8211 0.63969 0.0
C891 C 0.79767 0.77805 0.62092 0.0
C892 C 0.83252 0.81634 0.65129 0.0
C893 C 0.82455 0.7703 0.65713 0.0
C894 C 0.79837 0.77876 0.63379 0.0
C895 C 0.79938 0.73066 0.65134 0.0
C896 C 0.79123 0.73213 0.61476 0.0
C897 C 0.82517 0.81942 0.60363 0.0
N898 N 0.78828 0.7353 0.63987 0.0
N899 N 0.81286 0.82046 0.61504 0.0
H900 H 0.1618 0.28062 0.84942 0.0
H901 H 0.30048 0.27685 0.91067 0.0
H902 H 0.32012 0.31601 0.85496 0.0
H903 H 0.14716 0.32933 0.90478 0.0
H904 H 0.30414 0.24665 0.89054 0.0
H905 H 0.15496 0.25387 0.86976 0.0
C906 C 0.19572 0.28017 0.85478 0.0
C907 C 0.24159 0.3004 0.85061 0.0
C908 C 0.26895 0.26269 0.89383 0.0
C909 C 0.23404 0.27042 0.87371 0.0
C910 C 0.26665 0.27942 0.90532 0.0
C911 C 0.22344 0.3055 0.9093 0.0
C912 C 0.22745 0.27162 0.88642 0.0
C913 C 0.18103 0.3092 0.90198 0.0
C914 C 0.19169 0.26535 0.86637 0.0
C915 C 0.28421 0.30033 0.8579 0.0
N916 N 0.1843 0.2931 0.89082 0.0
N917 N 0.27928 0.28626 0.86918 0.0
H918 H 0.64391 0.84539 0.09953 0.0
H919 H 0.69166 0.69641 0.15769 0.0
H920 H 0.6987 0.69069 0.10074 0.0
H921 H 0.64152 0.85251 0.15547 0.0
H922 H 0.71773 0.70017 0.13727 0.0
H923 H 0.66702 0.85606 0.11987 0.0
C924 C 0.66267 0.8143 0.10402 0.0
C925 C 0.66966 0.76724 0.09854 0.0
C926 C 0.70241 0.7341 0.14133 0.0
C927 C 0.69363 0.77792 0.12196 0.0
C928 C 0.68794 0.73201 0.153 0.0
C929 C 0.66406 0.77409 0.15814 0.0
C930 C 0.6924 0.77847 0.13484 0.0
C931 C 0.65925 0.8191 0.15172 0.0
C932 C 0.67544 0.82011 0.11567 0.0
C933 C 0.69318 0.72771 0.10472 0.0
N934 N 0.67253 0.81989 0.14036 0.0
N935 N 0.70323 0.73348 0.11621 0.0
H936 H 0.8478 0.65035 0.84914 0.0
H937 H 0.67292 0.69684 0.90448 0.0
H938 H 0.68437 0.6638 0.84782 0.0
H939 H 0.82766 0.64224 0.90532 0.0
H940 H 0.68256 0.71521 0.88371 0.0
H941 H 0.84623 0.67765 0.86941 0.0
C942 C 0.8117 0.66027 0.85309 0.0
C943 C 0.76611 0.65449 0.84695 0.0
C944 C 0.71491 0.70082 0.88853 0.0
C945 C 0.76375 0.68488 0.87009 0.0
C946 C 0.70959 0.69094 0.90038 0.0
C947 C 0.74963 0.6681 0.90651 0.0
C948 C 0.76065 0.68787 0.8829 0.0
C949 C 0.79602 0.65995 0.90083 0.0
C950 C 0.81076 0.6758 0.86464 0.0
C951 C 0.72026 0.66794 0.85235 0.0
N952 N 0.80009 0.66923 0.8893 0.0
N953 N 0.7201 0.68177 0.86372 0.0
H954 H 0.3054 0.29509 0.15922 0.0
H955 H 0.28171 0.29221 0.09986 0.0
H956 H 0.33715 0.13436 0.15674 0.0
H957 H 0.36556 0.15169 0.10322 0.0
H958 H 0.25572 0.28506 0.12023 0.0
H959 H 0.28151 0.29571 0.13874 0.0
C960 C 0.30515 0.25951 0.15444 0.0
C961 C 0.32365 0.21473 0.15955 0.0
C962 C 0.27916 0.25537 0.1165 0.0
C963 C 0.29691 0.21476 0.13613 0.0
C964 C 0.29316 0.259 0.10481 0.0
C965 C 0.32615 0.22269 0.09997 0.0
C966 C 0.29863 0.21518 0.12328 0.0
C967 C 0.34043 0.18067 0.10671 0.0
C968 C 0.29157 0.25974 0.14271 0.0
C969 C 0.32371 0.16978 0.15302 0.0
N970 N 0.32711 0.17839 0.11804 0.0
N971 N 0.31152 0.17112 0.1416 0.0
H972 H 0.65146 0.82383 0.35232 0.0
H973 H 0.84178 0.83279 0.40322 0.0
H974 H 0.81297 0.80554 0.34731 0.0
H975 H 0.68233 0.80156 0.40832 0.0
H976 H 0.83385 0.80615 0.383 0.0
H977 H 0.66137 0.79844 0.37257 0.0
C978 C 0.68874 0.81243 0.35542 0.0
C979 C 0.73147 0.81653 0.34822 0.0
C980 C 0.80083 0.80347 0.38859 0.0
C981 C 0.74368 0.78985 0.37146 0.0
C982 C 0.80548 0.81855 0.40013 0.0
C983 C 0.76264 0.81919 0.40735 0.0
C984 C 0.75255 0.79073 0.38417 0.0
C985 C 0.71626 0.80113 0.40298 0.0
C986 C 0.69453 0.7982 0.36699 0.0
C987 C 0.77911 0.8023 0.35262 0.0
N988 N 0.71211 0.78875 0.39158 0.0
N989 N 0.78419 0.79079 0.36406 0.0
H990 H 0.2046 0.3035 0.65725 0.0
H991 H 0.15906 0.13287 0.60142 0.0
H992 H 0.13524 0.1547 0.65688 0.0
H993 H 0.19211 0.29364 0.60026 0.0
H994 H 0.18231 0.13153 0.62192 0.0
H995 H 0.23066 0.29127 0.63697 0.0
C996 C 0.19692 0.26738 0.65303 0.0
C997 C 0.16793 0.22992 0.65865 0.0
C998 C 0.1859 0.1669 0.61714 0.0
C999 C 0.19653 0.21603 0.63557 0.0
C1000 C 0.17291 0.16755 0.60543 0.0
C1001 C 0.17348 0.21347 0.59925 0.0
C1002 C 0.19841 0.21278 0.62274 0.0
C1003 C 0.19148 0.25746 0.60479 0.0
C1004 C 0.21128 0.26061 0.64145 0.0
C1005 C 0.1577 0.18432 0.6528 0.0
N1006 N 0.20222 0.25634 0.61633 0.0
N1007 N 0.17145 0.17887 0.64153 0.0
H1008 H 0.26841 0.26794 0.28835 0.0
H1009 H 0.22675 0.22545 0.22062 0.0
H1010 H 0.20914 0.12724 0.27447 0.0
H1011 H 0.36511 0.29009 0.23439 0.0
H1012 H 0.19506 0.21409 0.24051 0.0
H1013 H 0.27872 0.30029 0.26848 0.0
C1014 C 0.25624 0.24448 0.28114 0.0
C1015 C 0.23822 0.19478 0.28299 0.0
C1016 C 0.23175 0.23197 0.23911 0.0
C1017 C 0.24902 0.23174 0.26045 0.0
C1018 C 0.24966 0.23881 0.22781 0.0
C1019 C 0.29862 0.25855 0.22593 0.0
C1020 C 0.26254 0.24629 0.24849 0.0
C1021 C 0.32722 0.27455 0.23552 0.0
C1022 C 0.26237 0.26284 0.26986 0.0
C1023 C 0.2235 0.16565 0.27337 0.0
N1024 N 0.30881 0.26795 0.24643 0.0
N1025 N 0.2293 0.18453 0.26248 0.0
H1026 H 0.77588 0.72534 0.46868 0.0
H1027 H 0.73362 0.76312 0.53652 0.0
H1028 H 0.71068 0.86274 0.48292 0.0
H1029 H 0.87326 0.70163 0.52262 0.0
H1030 H 0.70216 0.77573 0.51667 0.0
H1031 H 0.78873 0.69297 0.48846 0.0
C1032 C 0.76304 0.74805 0.47596 0.0
C1033 C 0.74246 0.79685 0.47422 0.0
C1034 C 0.73917 0.75841 0.51802 0.0
C1035 C 0.75624 0.75986 0.49668 0.0
C1036 C 0.75699 0.75089 0.5293 0.0
C1037 C 0.80617 0.73156 0.53115 0.0
C1038 C 0.77029 0.74523 0.50861 0.0
C1039 C 0.83523 0.7169 0.52151 0.0
C1040 C 0.77064 0.7297 0.48719 0.0
C1041 C 0.72697 0.82504 0.48393 0.0
N1042 N 0.81689 0.72413 0.51062 0.0
N1043 N 0.73421 0.80615 0.49477 0.0
H1044 H 0.11395 0.31945 0.73064 0.0
H1045 H 0.2655 0.23802 0.78509 0.0
H1046 H 0.24064 0.21836 0.72406 0.0
H1047 H 0.23515 0.39625 0.77727 0.0
H1048 H 0.24869 0.21684 0.76458 0.0
H1049 H 0.14569 0.3334 0.75018 0.0
C1050 C 0.14822 0.29968 0.73334 0.0
C1051 C 0.17484 0.26783 0.72569 0.0
C1052 C 0.24683 0.25618 0.76741 0.0
C1053 C 0.21106 0.28358 0.74813 0.0
C1054 C 0.25637 0.26832 0.77906 0.0
C1055 C 0.25101 0.31889 0.78294 0.0
C1056 C 0.23097 0.2948 0.7598 0.0
C1057 C 0.23908 0.35667 0.77476 0.0
C1058 C 0.16642 0.30798 0.74447 0.0
C1059 C 0.21921 0.24343 0.7297 0.0
N1060 N 0.22848 0.34371 0.76366 0.0
N1061 N 0.236 0.25158 0.74074 0.0
H1062 H 0.69141 0.76464 0.96861 0.0
H1063 H 0.7556 0.7218 0.03535 0.0
H1064 H 0.76273 0.62653 0.98082 0.0
H1065 H 0.60787 0.77465 0.02424 0.0
H1066 H 0.7805 0.71183 0.0149 0.0
H1067 H 0.68268 0.79338 0.98884 0.0
C1068 C 0.70632 0.74105 0.97553 0.0
C1069 C 0.72752 0.69311 0.97314 0.0
C1070 C 0.74308 0.72662 0.017 0.0
C1071 C 0.71873 0.72598 0.99603 0.0
C1072 C 0.72898 0.73254 0.0286 0.0
C1073 C 0.67958 0.74874 0.0314 0.0
C1074 C 0.70797 0.73847 0.00823 0.0
C1075 C 0.6462 0.7617 0.02238 0.0
C1076 C 0.70114 0.7573 0.98701 0.0
C1077 C 0.74584 0.6636 0.98237 0.0
N1078 N 0.66099 0.7563 0.01117 0.0
N1079 N 0.74109 0.68053 0.99344 0.0
H1080 H 0.24385 0.22369 0.035 0.0
H1081 H 0.26261 0.41082 0.98143 0.0
H1082 H 0.37112 0.32413 0.02868 0.0
H1083 H 0.21094 0.25678 0.9753 0.0
H1084 H 0.27985 0.38865 1.00151 0.0
H1085 H 0.21187 0.2428 0.0153 0.0
C1086 C 0.26499 0.24955 0.02949 0.0
C1087 C 0.31027 0.27225 0.03343 0.0
C1088 C 0.26417 0.35988 0.9958 0.0
C1089 C 0.27346 0.29503 0.01131 0.0
C1090 C 0.2541 0.37246 0.98434 0.0
C1091 C 0.23601 0.33535 0.97661 0.0
C1092 C 0.25563 0.30999 0.99967 0.0
C1093 C 0.22532 0.28639 0.98096 0.0
C1094 C 0.24682 0.26028 0.01831 0.0
C1095 C 0.33628 0.30549 0.02598 0.0
N1096 N 0.23565 0.27487 0.99224 0.0
N1097 N 0.31722 0.31626 0.01536 0.0
H1098 H 0.78032 0.87684 0.27298 0.0
H1099 H 0.62812 0.69829 0.23309 0.0
H1100 H 0.73004 0.73159 0.28626 0.0
H1101 H 0.76002 0.7754 0.21936 0.0
H1102 H 0.66095 0.71186 0.25275 0.0
H1103 H 0.77049 0.84405 0.25319 0.0
C1104 C 0.76806 0.83778 0.27171 0.0
C1105 C 0.75589 0.80683 0.28122 0.0
C1106 C 0.68322 0.72478 0.24542 0.0
C1107 C 0.74329 0.76978 0.25873 0.0
C1108 C 0.66452 0.71713 0.23423 0.0
C1109 C 0.69153 0.7357 0.22464 0.0
C1110 C 0.72823 0.75278 0.24701 0.0
C1111 C 0.73831 0.76019 0.22655 0.0
C1112 C 0.76263 0.81909 0.26045 0.0
C1113 C 0.74002 0.75655 0.27914 0.0
N1114 N 0.75466 0.76917 0.23755 0.0
N1115 N 0.73301 0.73989 0.2681 0.0
H1116 H 0.23022 0.26221 0.47036 0.0
H1117 H 0.26866 0.218 0.53812 0.0
H1118 H 0.28379 0.11914 0.48421 0.0
H1119 H 0.13271 0.28733 0.52424 0.0
H1120 H 0.30005 0.20513 0.51826 0.0
H1121 H 0.22033 0.29457 0.49024 0.0
C1122 C 0.24133 0.23821 0.47757 0.0
C1123 C 0.2576 0.18791 0.47571 0.0
C1124 C 0.26397 0.22429 0.51962 0.0
C1125 C 0.24719 0.2248 0.49826 0.0
C1126 C 0.24621 0.23195 0.53091 0.0
C1127 C 0.19799 0.25355 0.53276 0.0
C1128 C 0.23383 0.23965 0.51021 0.0
C1129 C 0.17001 0.27032 0.52313 0.0
C1130 C 0.23539 0.25657 0.48886 0.0
C1131 C 0.27088 0.15807 0.48533 0.0
N1132 N 0.18829 0.26293 0.51224 0.0
N1133 N 0.26531 0.17694 0.49623 0.0
H1134 H 0.86736 0.78207 0.73186 0.0
H1135 H 0.70317 0.6203 0.77212 0.0
H1136 H 0.72501 0.72378 0.71875 0.0
H1137 H 0.76958 0.75859 0.78553 0.0
H1138 H 0.7115 0.65437 0.75242 0.0
H1139 H 0.83516 0.77205 0.75167 0.0
C1140 C 0.82899 0.76797 0.73318 0.0
C1141 C 0.79873 0.75356 0.72374 0.0
C1142 C 0.72306 0.67772 0.7597 0.0
C1143 C 0.76241 0.7408 0.74624 0.0
C1144 C 0.71845 0.65831 0.7709 0.0
C1145 C 0.73579 0.68678 0.78039 0.0
C1146 C 0.74688 0.72501 0.758 0.0
C1147 C 0.75554 0.73569 0.7784 0.0
C1148 C 0.81061 0.76251 0.74445 0.0
C1149 C 0.74933 0.73546 0.72585 0.0
N1150 N 0.76184 0.75282 0.76737 0.0
N1151 N 0.73306 0.72834 0.73692 0.0
loop_
_geom_bond_atom_site_label_1
_geom_bond_atom_site_label_2
_geom_bond_distance
_geom_bond_site_symmetry_2
_ccdc_geom_bond_type
Mn0 O5 2.095 . S
Mn0 O15 2.162 . S
Mn0 O16 2.297 . S
Mn0 O24 2.385 . S
Mn0 O25 2.209 . S
Mn0 O26 2.094 . S
Mn1 O6 2.121 . S
Mn1 N8 2.257 1_545 S
Mn1 N17 2.282 . S
Mn1 O25 2.215 . S
Mn1 O27 2.117 . S
C2 O24 1.234 . S
C2 O25 1.283 . S
C3 O15 1.281 . S
C3 O16 1.236 . S
C4 O26 1.240 . S
C4 O27 1.264 . S
O5 Mn0 2.095 . S
O5 C14 1.250 . S
O6 Mn1 2.121 . S
O6 C14 1.258 . S
C7 N8 1.326 . S
C7 C11 1.460 . S
C7 H13 0.929 . S
N8 Mn1 2.257 1_565 S
N8 C7 1.326 . S
N8 C12 1.362 . S
C9 C10 1.258 . S
C9 C12 1.431 . S
C9 C29 1.449 . S
C10 C9 1.258 . S
C10 C11 1.477 . S
C10 H30 0.931 . S
C11 C7 1.460 . S
C11 C10 1.477 . S
C11 H31 0.930 . S
C12 N8 1.362 . S
C12 C9 1.431 . S
C12 C22 1.476 . S
H13 C7 0.929 . S
C14 O5 1.250 . S
C14 O6 1.258 . S
O15 Mn0 2.162 . S
O15 C3 1.281 . S
O16 Mn0 2.297 . S
O16 C3 1.236 . S
N17 Mn1 2.282 . S
N17 C18 1.328 . S
N17 C22 1.318 1_545 S
C18 N17 1.328 . S
C18 C19 1.457 . S
C18 H23 0.929 . S
C19 C18 1.457 . S
C19 C20 1.291 . S
C19 H32 0.931 . S
C20 C19 1.291 . S
C20 C21 1.373 1_545 S
C20 H33 0.927 1_545 S
C21 C20 1.373 1_565 S
C21 C22 1.396 . S
C21 C28 1.403 . S
C22 C12 1.476 . S
C22 N17 1.318 1_565 S
C22 C21 1.396 . S
H23 C18 0.929 . S
O24 Mn0 2.385 . S
O24 C2 1.234 . S
O25 Mn0 2.209 . S
O25 Mn1 2.215 . S
O25 C2 1.283 . S
O26 Mn0 2.094 . S
O26 C4 1.240 . S
O27 Mn1 2.117 . S
O27 C4 1.264 . S
C28 C21 1.403 . S
C28 C29 1.399 . S
C28 H34 0.929 . S
C29 C9 1.449 . S
C29 C28 1.399 . S
C29 H35 0.930 . S
H30 C10 0.931 . S
H31 C11 0.930 . S
H32 C19 0.931 . S
H33 C20 0.927 1_565 S
H34 C28 0.929 . S
H35 C29 0.930 . S
Mn36 O41 2.095 . S
Mn36 O51 2.162 . S
Mn36 O52 2.297 . S
Mn36 O60 2.385 . S
Mn36 O61 2.209 . S
Mn36 O62 2.094 . S
Mn37 O42 2.121 . S
Mn37 N44 2.257 1_655 S
Mn37 N53 2.282 . S
Mn37 O61 2.215 . S
Mn37 O63 2.117 . S
C38 O60 1.234 . S
C38 O61 1.283 . S
C39 O51 1.281 . S
C39 O52 1.236 . S
C40 O62 1.240 . S
C40 O63 1.264 . S
O41 Mn36 2.095 . S
O41 C50 1.250 . S
O42 Mn37 2.121 . S
O42 C50 1.258 . S
C43 N44 1.326 . S
C43 C47 1.460 . S
C43 H49 0.929 . S
N44 Mn37 2.257 1_455 S
N44 C43 1.326 . S
N44 C48 1.362 . S
C45 C46 1.258 . S
C45 C48 1.431 . S
C45 C65 1.449 . S
C46 C45 1.258 . S
C46 C47 1.477 . S
C46 H66 0.931 . S
C47 C43 1.460 . S
C47 C46 1.477 . S
C47 H67 0.930 . S
C48 N44 1.362 . S
C48 C45 1.431 . S
C48 C58 1.476 . S
H49 C43 0.929 . S
C50 O41 1.250 . S
C50 O42 1.258 . S
O51 Mn36 2.162 . S
O51 C39 1.281 . S
O52 Mn36 2.297 . S
O52 C39 1.236 . S
N53 Mn37 2.282 . S
N53 C54 1.328 . S
N53 C58 1.318 1_655 S
C54 N53 1.328 . S
C54 C55 1.457 . S
C54 H59 0.929 . S
C55 C54 1.457 . S
C55 C56 1.291 . S
C55 H68 0.931 . S
C56 C55 1.291 . S
C56 C57 1.373 1_655 S
C56 H69 0.927 1_655 S
C57 C56 1.373 1_455 S
C57 C58 1.396 . S
C57 C64 1.403 . S
C58 C48 1.476 . S
C58 N53 1.318 1_455 S
C58 C57 1.396 . S
H59 C54 0.929 . S
O60 Mn36 2.385 . S
O60 C38 1.234 . S
O61 Mn36 2.209 . S
O61 Mn37 2.215 . S
O61 C38 1.283 . S
O62 Mn36 2.094 . S
O62 C40 1.240 . S
O63 Mn37 2.117 . S
O63 C40 1.264 . S
C64 C57 1.403 . S
C64 C65 1.399 . S
C64 H70 0.929 . S
C65 C45 1.449 . S
C65 C64 1.399 . S
C65 H71 0.930 . S
H66 C46 0.931 . S
H67 C47 0.930 . S
H68 C55 0.931 . S
H69 C56 0.927 1_455 S
H70 C64 0.929 . S
H71 C65 0.930 . S
Mn72 O77 2.095 . S
Mn72 O87 2.162 . S
Mn72 O88 2.297 . S
Mn72 O96 2.385 . S
Mn72 O97 2.209 . S
Mn72 O98 2.094 . S
Mn73 O78 2.121 . S
Mn73 N80 2.257 . S
Mn73 N89 2.282 . S
Mn73 O97 2.215 . S
Mn73 O99 2.117 . S
C74 O96 1.234 . S
C74 O97 1.283 . S
C75 O87 1.281 . S
C75 O88 1.236 . S
C76 O98 1.240 . S
C76 O99 1.264 . S
O77 Mn72 2.095 . S
O77 C86 1.250 . S
O78 Mn73 2.121 . S
O78 C86 1.258 . S
C79 N80 1.326 . S
C79 C83 1.460 . S
C79 H85 0.929 . S
N80 Mn73 2.257 . S
N80 C79 1.326 . S
N80 C84 1.362 . S
C81 C82 1.258 . S
C81 C84 1.431 . S
C81 C101 1.449 . S
C82 C81 1.258 . S
C82 C83 1.477 . S
C82 H102 0.931 . S
C83 C79 1.460 . S
C83 C82 1.477 . S
C83 H103 0.930 . S
C84 N80 1.362 . S
C84 C81 1.431 . S
C84 C94 1.476 . S
H85 C79 0.929 . S
C86 O77 1.250 . S
C86 O78 1.258 . S
O87 Mn72 2.162 . S
O87 C75 1.281 . S
O88 Mn72 2.297 . S
O88 C75 1.236 . S
N89 Mn73 2.282 . S
N89 C90 1.328 . S
N89 C94 1.318 . S
C90 N89 1.328 . S
C90 C91 1.457 . S
C90 H95 0.929 . S
C91 C90 1.457 . S
C91 C92 1.291 . S
C91 H104 0.931 . S
C92 C91 1.291 . S
C92 C93 1.373 . S
C92 H105 0.929 . S
C93 C92 1.373 . S
C93 C94 1.396 . S
C93 C100 1.403 . S
C94 C84 1.476 . S
C94 N89 1.318 . S
C94 C93 1.396 . S
H95 C90 0.929 . S
O96 Mn72 2.385 . S
O96 C74 1.234 . S
O97 Mn72 2.209 . S
O97 Mn73 2.215 . S
O97 C74 1.283 . S
O98 Mn72 2.094 . S
O98 C76 1.240 . S
O99 Mn73 2.117 . S
O99 C76 1.264 . S
C100 C93 1.403 . S
C100 C101 1.399 . S
C100 H106 0.929 . S
C101 C81 1.449 . S
C101 C100 1.399 . S
C101 H107 0.930 . S
H102 C82 0.931 . S
H103 C83 0.930 . S
H104 C91 0.931 . S
H105 C92 0.929 . S
H106 C100 0.929 . S
H107 C101 0.930 . S
Mn108 O113 2.095 . S
Mn108 O123 2.162 . S
Mn108 O124 2.297 . S
Mn108 O132 2.385 . S
Mn108 O133 2.209 . S
Mn108 O134 2.094 . S
Mn109 O114 2.121 . S
Mn109 N116 2.257 . S
Mn109 N125 2.282 . S
Mn109 O133 2.215 . S
Mn109 O135 2.117 . S
C110 O132 1.234 . S
C110 O133 1.283 . S
C111 O123 1.281 . S
C111 O124 1.236 . S
C112 O134 1.240 . S
C112 O135 1.264 . S
O113 Mn108 2.095 . S
O113 C122 1.250 . S
O114 Mn109 2.121 . S
O114 C122 1.258 . S
C115 N116 1.326 . S
C115 C119 1.460 . S
C115 H121 0.929 . S
N116 Mn109 2.257 . S
N116 C115 1.326 . S
N116 C120 1.362 . S
C117 C118 1.258 . S
C117 C120 1.431 . S
C117 C137 1.449 . S
C118 C117 1.258 . S
C118 C119 1.477 . S
C118 H138 0.931 . S
C119 C115 1.460 . S
C119 C118 1.477 . S
C119 H139 0.930 . S
C120 N116 1.362 . S
C120 C117 1.431 . S
C120 C130 1.476 . S
H121 C115 0.929 . S
C122 O113 1.250 . S
C122 O114 1.258 . S
O123 Mn108 2.162 . S
O123 C111 1.281 . S
O124 Mn108 2.297 . S
O124 C111 1.236 . S
N125 Mn109 2.282 . S
N125 C126 1.328 . S
N125 C130 1.318 . S
C126 N125 1.328 . S
C126 C127 1.457 . S
C126 H131 0.929 . S
C127 C126 1.457 . S
C127 C128 1.291 . S
C127 H140 0.931 . S
C128 C127 1.291 . S
C128 C129 1.373 . S
C128 H141 0.929 . S
C129 C128 1.373 . S
C129 C130 1.396 . S
C129 C136 1.403 . S
C130 C120 1.476 . S
C130 N125 1.318 . S
C130 C129 1.396 . S
H131 C126 0.929 . S
O132 Mn108 2.385 . S
O132 C110 1.234 . S
O133 Mn108 2.209 . S
O133 Mn109 2.215 . S
O133 C110 1.283 . S
O134 Mn108 2.094 . S
O134 C112 1.240 . S
O135 Mn109 2.117 . S
O135 C112 1.264 . S
C136 C129 1.403 . S
C136 C137 1.399 . S
C136 H142 0.929 . S
C137 C117 1.449 . S
C137 C136 1.399 . S
C137 H143 0.930 . S
H138 C118 0.931 . S
H139 C119 0.930 . S
H140 C127 0.931 . S
H141 C128 0.929 . S
H142 C136 0.929 . S
H143 C137 0.930 . S
Mn144 O149 2.095 . S
Mn144 O159 2.162 . S
Mn144 O160 2.297 . S
Mn144 O168 2.385 . S
Mn144 O169 2.209 . S
Mn144 O170 2.094 . S
Mn145 O150 2.121 . S
Mn145 N152 2.257 . S
Mn145 N161 2.282 . S
Mn145 O169 2.215 . S
Mn145 O171 2.117 . S
C146 O168 1.234 . S
C146 O169 1.283 . S
C147 O159 1.281 . S
C147 O160 1.236 . S
C148 O170 1.240 . S
C148 O171 1.264 . S
O149 Mn144 2.095 . S
O149 C158 1.250 . S
O150 Mn145 2.121 . S
O150 C158 1.258 . S
C151 N152 1.326 . S
C151 C155 1.460 . S
C151 H157 0.929 . S
N152 Mn145 2.257 . S
N152 C151 1.326 . S
N152 C156 1.362 . S
C153 C154 1.258 . S
C153 C156 1.431 . S
C153 C173 1.449 . S
C154 C153 1.258 . S
C154 C155 1.477 . S
C154 H174 0.931 . S
C155 C151 1.460 . S
C155 C154 1.477 . S
C155 H175 0.930 . S
C156 N152 1.362 . S
C156 C153 1.431 . S
C156 C166 1.476 . S
H157 C151 0.929 . S
C158 O149 1.250 . S
C158 O150 1.258 . S
O159 Mn144 2.162 . S
O159 C147 1.281 . S
O160 Mn144 2.297 . S
O160 C147 1.236 . S
N161 Mn145 2.282 . S
N161 C162 1.328 . S
N161 C166 1.318 . S
C162 N161 1.328 . S
C162 C163 1.457 . S
C162 H167 0.929 . S
C163 C162 1.457 . S
C163 C164 1.291 . S
C163 H176 0.931 . S
C164 C163 1.291 . S
C164 C165 1.373 . S
C164 H177 0.929 . S
C165 C164 1.373 . S
C165 C166 1.396 . S
C165 C172 1.403 . S
C166 C156 1.476 . S
C166 N161 1.318 . S
C166 C165 1.396 . S
H167 C162 0.929 . S
O168 Mn144 2.385 . S
O168 C146 1.234 . S
O169 Mn144 2.209 . S
O169 Mn145 2.215 . S
O169 C146 1.283 . S
O170 Mn144 2.094 . S
O170 C148 1.240 . S
O171 Mn145 2.117 . S
O171 C148 1.264 . S
C172 C165 1.403 . S
C172 C173 1.399 . S
C172 H178 0.929 . S
C173 C153 1.449 . S
C173 C172 1.399 . S
C173 H179 0.930 . S
H174 C154 0.931 . S
H175 C155 0.930 . S
H176 C163 0.931 . S
H177 C164 0.929 . S
H178 C172 0.929 . S
H179 C173 0.930 . S
Mn180 O185 2.095 . S
Mn180 O195 2.162 . S
Mn180 O196 2.297 . S
Mn180 O204 2.385 . S
Mn180 O205 2.209 . S
Mn180 O206 2.094 . S
Mn181 O186 2.121 . S
Mn181 N188 2.257 . S
Mn181 N197 2.282 . S
Mn181 O205 2.215 . S
Mn181 O207 2.117 . S
C182 O204 1.234 . S
C182 O205 1.283 . S
C183 O195 1.281 . S
C183 O196 1.236 . S
C184 O206 1.240 . S
C184 O207 1.264 . S
O185 Mn180 2.095 . S
O185 C194 1.250 . S
O186 Mn181 2.121 . S
O186 C194 1.258 . S
C187 N188 1.326 . S
C187 C191 1.460 . S
C187 H193 0.929 . S
N188 Mn181 2.257 . S
N188 C187 1.326 . S
N188 C192 1.362 . S
C189 C190 1.258 . S
C189 C192 1.431 . S
C189 C209 1.449 . S
C190 C189 1.258 . S
C190 C191 1.477 . S
C190 H210 0.931 . S
C191 C187 1.460 . S
C191 C190 1.477 . S
C191 H211 0.930 . S
C192 N188 1.362 . S
C192 C189 1.431 . S
C192 C202 1.476 . S
H193 C187 0.929 . S
C194 O185 1.250 . S
C194 O186 1.258 . S
O195 Mn180 2.162 . S
O195 C183 1.281 . S
O196 Mn180 2.297 . S
O196 C183 1.236 . S
N197 Mn181 2.282 . S
N197 C198 1.328 . S
N197 C202 1.318 . S
C198 N197 1.328 . S
C198 C199 1.457 . S
C198 H203 0.929 . S
C199 C198 1.457 . S
C199 C200 1.291 . S
C199 H212 0.931 . S
C200 C199 1.291 . S
C200 C201 1.373 . S
C200 H213 0.929 . S
C201 C200 1.373 . S
C201 C202 1.396 . S
C201 C208 1.403 . S
C202 C192 1.476 . S
C202 N197 1.318 . S
C202 C201 1.396 . S
H203 C198 0.929 . S
O204 Mn180 2.385 . S
O204 C182 1.234 . S
O205 Mn180 2.209 . S
O205 Mn181 2.215 . S
O205 C182 1.283 . S
O206 Mn180 2.094 . S
O206 C184 1.240 . S
O207 Mn181 2.117 . S
O207 C184 1.264 . S
C208 C201 1.403 . S
C208 C209 1.399 . S
C208 H214 0.929 . S
C209 C189 1.449 . S
C209 C208 1.399 . S
C209 H215 0.930 . S
H210 C190 0.931 . S
H211 C191 0.930 . S
H212 C199 0.931 . S
H213 C200 0.929 . S
H214 C208 0.929 . S
H215 C209 0.930 . S
Mn216 O221 2.095 . S
Mn216 O231 2.162 . S
Mn216 O232 2.297 . S
Mn216 O240 2.385 . S
Mn216 O241 2.209 . S
Mn216 O242 2.094 . S
Mn217 O222 2.121 . S
Mn217 N224 2.257 1_545 S
Mn217 N233 2.282 . S
Mn217 O241 2.215 . S
Mn217 O243 2.117 . S
C218 O240 1.234 . S
C218 O241 1.283 . S
C219 O231 1.281 . S
C219 O232 1.236 . S
C220 O242 1.240 . S
C220 O243 1.264 . S
O221 Mn216 2.095 . S
O221 C230 1.250 . S
O222 Mn217 2.121 . S
O222 C230 1.258 . S
C223 N224 1.326 . S
C223 C227 1.460 . S
C223 H229 0.929 . S
N224 Mn217 2.257 1_565 S
N224 C223 1.326 . S
N224 C228 1.362 . S
C225 C226 1.258 . S
C225 C228 1.431 . S
C225 C245 1.449 . S
C226 C225 1.258 . S
C226 C227 1.477 . S
C226 H246 0.931 . S
C227 C223 1.460 . S
C227 C226 1.477 . S
C227 H247 0.930 . S
C228 N224 1.362 . S
C228 C225 1.431 . S
C228 C238 1.476 . S
H229 C223 0.929 . S
C230 O221 1.250 . S
C230 O222 1.258 . S
O231 Mn216 2.162 . S
O231 C219 1.281 . S
O232 Mn216 2.297 . S
O232 C219 1.236 . S
N233 Mn217 2.282 . S
N233 C234 1.328 . S
N233 C238 1.318 1_545 S
C234 N233 1.328 . S
C234 C235 1.457 . S
C234 H239 0.929 . S
C235 C234 1.457 . S
C235 C236 1.291 . S
C235 H248 0.931 . S
C236 C235 1.291 . S
C236 C237 1.373 1_545 S
C236 H249 0.927 1_545 S
C237 C236 1.373 1_565 S
C237 C238 1.396 . S
C237 C244 1.403 . S
C238 C228 1.476 . S
C238 N233 1.318 1_565 S
C238 C237 1.396 . S
H239 C234 0.929 . S
O240 Mn216 2.385 . S
O240 C218 1.234 . S
O241 Mn216 2.209 . S
O241 Mn217 2.215 . S
O241 C218 1.283 . S
O242 Mn216 2.094 . S
O242 C220 1.240 . S
O243 Mn217 2.117 . S
O243 C220 1.264 . S
C244 C237 1.403 . S
C244 C245 1.399 . S
C244 H250 0.929 . S
C245 C225 1.449 . S
C245 C244 1.399 . S
C245 H251 0.930 . S
H246 C226 0.931 . S
H247 C227 0.930 . S
H248 C235 0.931 . S
H249 C236 0.927 1_565 S
H250 C244 0.929 . S
H251 C245 0.930 . S
Mn252 O257 2.095 . S
Mn252 O267 2.162 . S
Mn252 O268 2.297 . S
Mn252 O276 2.385 . S
Mn252 O277 2.209 . S
Mn252 O278 2.094 . S
Mn253 O258 2.121 . S
Mn253 N260 2.257 1_655 S
Mn253 N269 2.282 . S
Mn253 O277 2.215 . S
Mn253 O279 2.117 . S
C254 O276 1.234 . S
C254 O277 1.283 . S
C255 O267 1.281 . S
C255 O268 1.236 . S
C256 O278 1.240 . S
C256 O279 1.264 . S
O257 Mn252 2.095 . S
O257 C266 1.250 . S
O258 Mn253 2.121 . S
O258 C266 1.258 . S
C259 N260 1.326 . S
C259 C263 1.460 . S
C259 H265 0.929 . S
N260 Mn253 2.257 1_455 S
N260 C259 1.326 . S
N260 C264 1.362 . S
C261 C262 1.258 . S
C261 C264 1.431 . S
C261 C281 1.449 . S
C262 C261 1.258 . S
C262 C263 1.477 . S
C262 H282 0.931 . S
C263 C259 1.460 . S
C263 C262 1.477 . S
C263 H283 0.930 . S
C264 N260 1.362 . S
C264 C261 1.431 . S
C264 C274 1.476 . S
H265 C259 0.929 . S
C266 O257 1.250 . S
C266 O258 1.258 . S
O267 Mn252 2.162 . S
O267 C255 1.281 . S
O268 Mn252 2.297 . S
O268 C255 1.236 . S
N269 Mn253 2.282 . S
N269 C270 1.328 . S
N269 C274 1.318 1_655 S
C270 N269 1.328 . S
C270 C271 1.457 . S
C270 H275 0.929 . S
C271 C270 1.457 . S
C271 C272 1.291 . S
C271 H284 0.931 . S
C272 C271 1.291 . S
C272 C273 1.373 1_655 S
C272 H285 0.927 1_655 S
C273 C272 1.373 1_455 S
C273 C274 1.396 . S
C273 C280 1.403 . S
C274 C264 1.476 . S
C274 N269 1.318 1_455 S
C274 C273 1.396 . S
H275 C270 0.929 . S
O276 Mn252 2.385 . S
O276 C254 1.234 . S
O277 Mn252 2.209 . S
O277 Mn253 2.215 . S
O277 C254 1.283 . S
O278 Mn252 2.094 . S
O278 C256 1.240 . S
O279 Mn253 2.117 . S
O279 C256 1.264 . S
C280 C273 1.403 . S
C280 C281 1.399 . S
C280 H286 0.929 . S
C281 C261 1.449 . S
C281 C280 1.399 . S
C281 H287 0.930 . S
H282 C262 0.931 . S
H283 C263 0.930 . S
H284 C271 0.931 . S
H285 C272 0.927 1_455 S
H286 C280 0.929 . S
H287 C281 0.930 . S
Mn288 O293 2.095 . S
Mn288 O303 2.162 . S
Mn288 O304 2.297 . S
Mn288 O312 2.385 . S
Mn288 O313 2.209 . S
Mn288 O314 2.094 . S
Mn289 O294 2.121 . S
Mn289 N296 2.257 . S
Mn289 N305 2.282 . S
Mn289 O313 2.215 . S
Mn289 O315 2.117 . S
C290 O312 1.234 . S
C290 O313 1.283 . S
C291 O303 1.281 . S
C291 O304 1.236 . S
C292 O314 1.240 . S
C292 O315 1.264 . S
O293 Mn288 2.095 . S
O293 C302 1.250 . S
O294 Mn289 2.121 . S
O294 C302 1.258 . S
C295 N296 1.326 . S
C295 C299 1.460 . S
C295 H301 0.929 . S
N296 Mn289 2.257 . S
N296 C295 1.326 . S
N296 C300 1.362 . S
C297 C298 1.258 . S
C297 C300 1.431 . S
C297 C317 1.449 . S
C298 C297 1.258 . S
C298 C299 1.477 . S
C298 H318 0.931 . S
C299 C295 1.460 . S
C299 C298 1.477 . S
C299 H319 0.930 . S
C300 N296 1.362 . S
C300 C297 1.431 . S
C300 C310 1.476 . S
H301 C295 0.929 . S
C302 O293 1.250 . S
C302 O294 1.258 . S
O303 Mn288 2.162 . S
O303 C291 1.281 . S
O304 Mn288 2.297 . S
O304 C291 1.236 . S
N305 Mn289 2.282 . S
N305 C306 1.328 . S
N305 C310 1.318 . S
C306 N305 1.328 . S
C306 C307 1.457 . S
C306 H311 0.929 . S
C307 C306 1.457 . S
C307 C308 1.291 . S
C307 H320 0.931 . S
C308 C307 1.291 . S
C308 C309 1.373 . S
C308 H321 0.929 . S
C309 C308 1.373 . S
C309 C310 1.396 . S
C309 C316 1.403 . S
C310 C300 1.476 . S
C310 N305 1.318 . S
C310 C309 1.396 . S
H311 C306 0.929 . S
O312 Mn288 2.385 . S
O312 C290 1.234 . S
O313 Mn288 2.209 . S
O313 Mn289 2.215 . S
O313 C290 1.283 . S
O314 Mn288 2.094 . S
O314 C292 1.240 . S
O315 Mn289 2.117 . S
O315 C292 1.264 . S
C316 C309 1.403 . S
C316 C317 1.399 . S
C316 H322 0.929 . S
C317 C297 1.449 . S
C317 C316 1.399 . S
C317 H323 0.930 . S
H318 C298 0.931 . S
H319 C299 0.930 . S
H320 C307 0.931 . S
H321 C308 0.929 . S
H322 C316 0.929 . S
H323 C317 0.930 . S
Mn324 O329 2.095 . S
Mn324 O339 2.162 . S
Mn324 O340 2.297 . S
Mn324 O348 2.385 . S
Mn324 O349 2.209 . S
Mn324 O350 2.094 . S
Mn325 O330 2.121 . S
Mn325 N332 2.257 . S
Mn325 N341 2.282 . S
Mn325 O349 2.215 . S
Mn325 O351 2.117 . S
C326 O348 1.234 . S
C326 O349 1.283 . S
C327 O339 1.281 . S
C327 O340 1.236 . S
C328 O350 1.240 . S
C328 O351 1.264 . S
O329 Mn324 2.095 . S
O329 C338 1.250 . S
O330 Mn325 2.121 . S
O330 C338 1.258 . S
C331 N332 1.326 . S
C331 C335 1.460 . S
C331 H337 0.929 . S
N332 Mn325 2.257 . S
N332 C331 1.326 . S
N332 C336 1.362 . S
C333 C334 1.258 . S
C333 C336 1.431 . S
C333 C353 1.449 . S
C334 C333 1.258 . S
C334 C335 1.477 . S
C334 H354 0.931 . S
C335 C331 1.460 . S
C335 C334 1.477 . S
C335 H355 0.930 . S
C336 N332 1.362 . S
C336 C333 1.431 . S
C336 C346 1.476 . S
H337 C331 0.929 . S
C338 O329 1.250 . S
C338 O330 1.258 . S
O339 Mn324 2.162 . S
O339 C327 1.281 . S
O340 Mn324 2.297 . S
O340 C327 1.236 . S
N341 Mn325 2.282 . S
N341 C342 1.328 . S
N341 C346 1.318 . S
C342 N341 1.328 . S
C342 C343 1.457 . S
C342 H347 0.929 . S
C343 C342 1.457 . S
C343 C344 1.291 . S
C343 H356 0.931 . S
C344 C343 1.291 . S
C344 C345 1.373 . S
C344 H357 0.929 . S
C345 C344 1.373 . S
C345 C346 1.396 . S
C345 C352 1.403 . S
C346 C336 1.476 . S
C346 N341 1.318 . S
C346 C345 1.396 . S
H347 C342 0.929 . S
O348 Mn324 2.385 . S
O348 C326 1.234 . S
O349 Mn324 2.209 . S
O349 Mn325 2.215 . S
O349 C326 1.283 . S
O350 Mn324 2.094 . S
O350 C328 1.240 . S
O351 Mn325 2.117 . S
O351 C328 1.264 . S
C352 C345 1.403 . S
C352 C353 1.399 . S
C352 H358 0.929 . S
C353 C333 1.449 . S
C353 C352 1.399 . S
C353 H359 0.930 . S
H354 C334 0.931 . S
H355 C335 0.930 . S
H356 C343 0.931 . S
H357 C344 0.929 . S
H358 C352 0.929 . S
H359 C353 0.930 . S
Mn360 O365 2.095 . S
Mn360 O375 2.162 . S
Mn360 O376 2.297 . S
Mn360 O384 2.385 . S
Mn360 O385 2.209 . S
Mn360 O386 2.094 . S
Mn361 O366 2.121 . S
Mn361 N368 2.257 1_565 S
Mn361 N377 2.282 . S
Mn361 O385 2.215 . S
Mn361 O387 2.117 . S
C362 O384 1.234 . S
C362 O385 1.283 . S
C363 O375 1.281 . S
C363 O376 1.236 . S
C364 O386 1.240 . S
C364 O387 1.264 . S
O365 Mn360 2.095 . S
O365 C374 1.250 . S
O366 Mn361 2.121 . S
O366 C374 1.258 . S
C367 N368 1.326 . S
C367 C371 1.460 . S
C367 H373 0.929 . S
N368 Mn361 2.257 1_545 S
N368 C367 1.326 . S
N368 C372 1.362 . S
C369 C370 1.258 . S
C369 C372 1.431 . S
C369 C389 1.449 . S
C370 C369 1.258 . S
C370 C371 1.477 . S
C370 H390 0.931 . S
C371 C367 1.460 . S
C371 C370 1.477 . S
C371 H391 0.930 . S
C372 N368 1.362 . S
C372 C369 1.431 . S
C372 C382 1.476 . S
H373 C367 0.929 . S
C374 O365 1.250 . S
C374 O366 1.258 . S
O375 Mn360 2.162 . S
O375 C363 1.281 . S
O376 Mn360 2.297 . S
O376 C363 1.236 . S
N377 Mn361 2.282 . S
N377 C378 1.328 . S
N377 C382 1.318 1_565 S
C378 N377 1.328 . S
C378 C379 1.457 . S
C378 H383 0.929 . S
C379 C378 1.457 . S
C379 C380 1.291 . S
C379 H392 0.931 . S
C380 C379 1.291 . S
C380 C381 1.373 1_565 S
C380 H393 0.927 1_565 S
C381 C380 1.373 1_545 S
C381 C382 1.396 . S
C381 C388 1.403 . S
C382 C372 1.476 . S
C382 N377 1.318 1_545 S
C382 C381 1.396 . S
H383 C378 0.929 . S
O384 Mn360 2.385 . S
O384 C362 1.234 . S
O385 Mn360 2.209 . S
O385 Mn361 2.215 . S
O385 C362 1.283 . S
O386 Mn360 2.094 . S
O386 C364 1.240 . S
O387 Mn361 2.117 . S
O387 C364 1.264 . S
C388 C381 1.403 . S
C388 C389 1.399 . S
C388 H394 0.929 . S
C389 C369 1.449 . S
C389 C388 1.399 . S
C389 H395 0.930 . S
H390 C370 0.931 . S
H391 C371 0.930 . S
H392 C379 0.931 . S
H393 C380 0.927 1_545 S
H394 C388 0.929 . S
H395 C389 0.930 . S
Mn396 O401 2.095 . S
Mn396 O411 2.162 . S
Mn396 O412 2.297 . S
Mn396 O420 2.385 . S
Mn396 O421 2.209 . S
Mn396 O422 2.094 . S
Mn397 O402 2.121 . S
Mn397 N404 2.257 1_455 S
Mn397 N413 2.282 . S
Mn397 O421 2.215 . S
Mn397 O423 2.117 . S
C398 O420 1.234 . S
C398 O421 1.283 . S
C399 O411 1.281 . S
C399 O412 1.236 . S
C400 O422 1.240 . S
C400 O423 1.264 . S
O401 Mn396 2.095 . S
O401 C410 1.250 . S
O402 Mn397 2.121 . S
O402 C410 1.258 . S
C403 N404 1.326 . S
C403 C407 1.460 . S
C403 H409 0.929 . S
N404 Mn397 2.257 1_655 S
N404 C403 1.326 . S
N404 C408 1.362 . S
C405 C406 1.258 . S
C405 C408 1.431 . S
C405 C425 1.449 . S
C406 C405 1.258 . S
C406 C407 1.477 . S
C406 H426 0.931 . S
C407 C403 1.460 . S
C407 C406 1.477 . S
C407 H427 0.930 . S
C408 N404 1.362 . S
C408 C405 1.431 . S
C408 C418 1.476 . S
H409 C403 0.929 . S
C410 O401 1.250 . S
C410 O402 1.258 . S
O411 Mn396 2.162 . S
O411 C399 1.281 . S
O412 Mn396 2.297 . S
O412 C399 1.236 . S
N413 Mn397 2.282 . S
N413 C414 1.328 . S
N413 C418 1.318 1_455 S
C414 N413 1.328 . S
C414 C415 1.457 . S
C414 H419 0.929 . S
C415 C414 1.457 . S
C415 C416 1.291 . S
C415 H428 0.931 . S
C416 C415 1.291 . S
C416 C417 1.373 1_455 S
C416 H429 0.927 1_455 S
C417 C416 1.373 1_655 S
C417 C418 1.396 . S
C417 C424 1.403 . S
C418 C408 1.476 . S
C418 N413 1.318 1_655 S
C418 C417 1.396 . S
H419 C414 0.929 . S
O420 Mn396 2.385 . S
O420 C398 1.234 . S
O421 Mn396 2.209 . S
O421 Mn397 2.215 . S
O421 C398 1.283 . S
O422 Mn396 2.094 . S
O422 C400 1.240 . S
O423 Mn397 2.117 . S
O423 C400 1.264 . S
C424 C417 1.403 . S
C424 C425 1.399 . S
C424 H430 0.929 . S
C425 C405 1.449 . S
C425 C424 1.399 . S
C425 H431 0.930 . S
H426 C406 0.931 . S
H427 C407 0.930 . S
H428 C415 0.931 . S
H429 C416 0.927 1_655 S
H430 C424 0.929 . S
H431 C425 0.930 . S
Mn432 O437 2.095 . S
Mn432 O447 2.162 . S
Mn432 O448 2.297 . S
Mn432 O456 2.385 . S
Mn432 O457 2.209 . S
Mn432 O458 2.094 . S
Mn433 O438 2.121 . S
Mn433 N440 2.257 1_565 S
Mn433 N449 2.282 . S
Mn433 O457 2.215 . S
Mn433 O459 2.117 . S
C434 O456 1.234 . S
C434 O457 1.283 . S
C435 O447 1.281 . S
C435 O448 1.236 . S
C436 O458 1.240 . S
C436 O459 1.264 . S
O437 Mn432 2.095 . S
O437 C446 1.250 . S
O438 Mn433 2.121 . S
O438 C446 1.258 . S
C439 N440 1.326 . S
C439 C443 1.460 . S
C439 H445 0.929 . S
N440 Mn433 2.257 1_545 S
N440 C439 1.326 . S
N440 C444 1.362 . S
C441 C442 1.258 . S
C441 C444 1.431 . S
C441 C461 1.449 . S
C442 C441 1.258 . S
C442 C443 1.477 . S
C442 H462 0.931 . S
C443 C439 1.460 . S
C443 C442 1.477 . S
C443 H463 0.930 . S
C444 N440 1.362 . S
C444 C441 1.431 . S
C444 C454 1.476 . S
H445 C439 0.929 . S
C446 O437 1.250 . S
C446 O438 1.258 . S
O447 Mn432 2.162 . S
O447 C435 1.281 . S
O448 Mn432 2.297 . S
O448 C435 1.236 . S
N449 Mn433 2.282 . S
N449 C450 1.328 . S
N449 C454 1.318 1_565 S
C450 N449 1.328 . S
C450 C451 1.457 . S
C450 H455 0.929 . S
C451 C450 1.457 . S
C451 C452 1.291 . S
C451 H464 0.931 . S
C452 C451 1.291 . S
C452 C453 1.373 1_565 S
C452 H465 0.927 1_565 S
C453 C452 1.373 1_545 S
C453 C454 1.396 . S
C453 C460 1.403 . S
C454 C444 1.476 . S
C454 N449 1.318 1_545 S
C454 C453 1.396 . S
H455 C450 0.929 . S
O456 Mn432 2.385 . S
O456 C434 1.234 . S
O457 Mn432 2.209 . S
O457 Mn433 2.215 . S
O457 C434 1.283 . S
O458 Mn432 2.094 . S
O458 C436 1.240 . S
O459 Mn433 2.117 . S
O459 C436 1.264 . S
C460 C453 1.403 . S
C460 C461 1.399 . S
C460 H466 0.929 . S
C461 C441 1.449 . S
C461 C460 1.399 . S
C461 H467 0.930 . S
H462 C442 0.931 . S
H463 C443 0.930 . S
H464 C451 0.931 . S
H465 C452 0.927 1_545 S
H466 C460 0.929 . S
H467 C461 0.930 . S
Mn468 O473 2.095 . S
Mn468 O483 2.162 . S
Mn468 O484 2.297 . S
Mn468 O492 2.385 . S
Mn468 O493 2.209 . S
Mn468 O494 2.094 . S
Mn469 O474 2.121 . S
Mn469 N476 2.257 1_455 S
Mn469 N485 2.282 . S
Mn469 O493 2.215 . S
Mn469 O495 2.117 . S
C470 O492 1.234 . S
C470 O493 1.283 . S
C471 O483 1.281 . S
C471 O484 1.236 . S
C472 O494 1.240 . S
C472 O495 1.264 . S
O473 Mn468 2.095 . S
O473 C482 1.250 . S
O474 Mn469 2.121 . S
O474 C482 1.258 . S
C475 N476 1.326 . S
C475 C479 1.460 . S
C475 H481 0.929 . S
N476 Mn469 2.257 1_655 S
N476 C475 1.326 . S
N476 C480 1.362 . S
C477 C478 1.258 . S
C477 C480 1.431 . S
C477 C497 1.449 . S
C478 C477 1.258 . S
C478 C479 1.477 . S
C478 H498 0.931 . S
C479 C475 1.460 . S
C479 C478 1.477 . S
C479 H499 0.930 . S
C480 N476 1.362 . S
C480 C477 1.431 . S
C480 C490 1.476 . S
H481 C475 0.929 . S
C482 O473 1.250 . S
C482 O474 1.258 . S
O483 Mn468 2.162 . S
O483 C471 1.281 . S
O484 Mn468 2.297 . S
O484 C471 1.236 . S
N485 Mn469 2.282 . S
N485 C486 1.328 . S
N485 C490 1.318 1_455 S
C486 N485 1.328 . S
C486 C487 1.457 . S
C486 H491 0.929 . S
C487 C486 1.457 . S
C487 C488 1.291 . S
C487 H500 0.931 . S
C488 C487 1.291 . S
C488 C489 1.373 1_455 S
C488 H501 0.927 1_455 S
C489 C488 1.373 1_655 S
C489 C490 1.396 . S
C489 C496 1.403 . S
C490 C480 1.476 . S
C490 N485 1.318 1_655 S
C490 C489 1.396 . S
H491 C486 0.929 . S
O492 Mn468 2.385 . S
O492 C470 1.234 . S
O493 Mn468 2.209 . S
O493 Mn469 2.215 . S
O493 C470 1.283 . S
O494 Mn468 2.094 . S
O494 C472 1.240 . S
O495 Mn469 2.117 . S
O495 C472 1.264 . S
C496 C489 1.403 . S
C496 C497 1.399 . S
C496 H502 0.929 . S
C497 C477 1.449 . S
C497 C496 1.399 . S
C497 H503 0.930 . S
H498 C478 0.931 . S
H499 C479 0.930 . S
H500 C487 0.931 . S
H501 C488 0.927 1_655 S
H502 C496 0.929 . S
H503 C497 0.930 . S
Mn504 O509 2.095 . S
Mn504 O519 2.162 . S
Mn504 O520 2.297 . S
Mn504 O528 2.385 . S
Mn504 O529 2.209 . S
Mn504 O530 2.094 . S
Mn505 O510 2.121 . S
Mn505 N512 2.257 . S
Mn505 N521 2.282 . S
Mn505 O529 2.215 . S
Mn505 O531 2.117 . S
C506 O528 1.234 . S
C506 O529 1.283 . S
C507 O519 1.281 . S
C507 O520 1.236 . S
C508 O530 1.240 . S
C508 O531 1.264 . S
O509 Mn504 2.095 . S
O509 C518 1.250 . S
O510 Mn505 2.121 . S
O510 C518 1.258 . S
C511 N512 1.326 . S
C511 C515 1.460 . S
C511 H517 0.929 . S
N512 Mn505 2.257 . S
N512 C511 1.326 . S
N512 C516 1.362 . S
C513 C514 1.258 . S
C513 C516 1.431 . S
C513 C533 1.449 . S
C514 C513 1.258 . S
C514 C515 1.477 . S
C514 H534 0.931 . S
C515 C511 1.460 . S
C515 C514 1.477 . S
C515 H535 0.930 . S
C516 N512 1.362 . S
C516 C513 1.431 . S
C516 C526 1.476 . S
H517 C511 0.929 . S
C518 O509 1.250 . S
C518 O510 1.258 . S
O519 Mn504 2.162 . S
O519 C507 1.281 . S
O520 Mn504 2.297 . S
O520 C507 1.236 . S
N521 Mn505 2.282 . S
N521 C522 1.328 . S
N521 C526 1.318 . S
C522 N521 1.328 . S
C522 C523 1.457 . S
C522 H527 0.929 . S
C523 C522 1.457 . S
C523 C524 1.291 . S
C523 H536 0.931 . S
C524 C523 1.291 . S
C524 C525 1.373 . S
C524 H537 0.929 . S
C525 C524 1.373 . S
C525 C526 1.396 . S
C525 C532 1.403 . S
C526 C516 1.476 . S
C526 N521 1.318 . S
C526 C525 1.396 . S
H527 C522 0.929 . S
O528 Mn504 2.385 . S
O528 C506 1.234 . S
O529 Mn504 2.209 . S
O529 Mn505 2.215 . S
O529 C506 1.283 . S
O530 Mn504 2.094 . S
O530 C508 1.240 . S
O531 Mn505 2.117 . S
O531 C508 1.264 . S
C532 C525 1.403 . S
C532 C533 1.399 . S
C532 H538 0.929 . S
C533 C513 1.449 . S
C533 C532 1.399 . S
C533 H539 0.930 . S
H534 C514 0.931 . S
H535 C515 0.930 . S
H536 C523 0.931 . S
H537 C524 0.929 . S
H538 C532 0.929 . S
H539 C533 0.930 . S
Mn540 O545 2.095 . S
Mn540 O555 2.162 . S
Mn540 O556 2.297 . S
Mn540 O564 2.385 . S
Mn540 O565 2.209 . S
Mn540 O566 2.094 . S
Mn541 O546 2.121 . S
Mn541 N548 2.257 . S
Mn541 N557 2.282 . S
Mn541 O565 2.215 . S
Mn541 O567 2.117 . S
C542 O564 1.234 . S
C542 O565 1.283 . S
C543 O555 1.281 . S
C543 O556 1.236 . S
C544 O566 1.240 . S
C544 O567 1.264 . S
O545 Mn540 2.095 . S
O545 C554 1.250 . S
O546 Mn541 2.121 . S
O546 C554 1.258 . S
C547 N548 1.326 . S
C547 C551 1.460 . S
C547 H553 0.929 . S
N548 Mn541 2.257 . S
N548 C547 1.326 . S
N548 C552 1.362 . S
C549 C550 1.258 . S
C549 C552 1.431 . S
C549 C569 1.449 . S
C550 C549 1.258 . S
C550 C551 1.477 . S
C550 H570 0.931 . S
C551 C547 1.460 . S
C551 C550 1.477 . S
C551 H571 0.930 . S
C552 N548 1.362 . S
C552 C549 1.431 . S
C552 C562 1.476 . S
H553 C547 0.929 . S
C554 O545 1.250 . S
C554 O546 1.258 . S
O555 Mn540 2.162 . S
O555 C543 1.281 . S
O556 Mn540 2.297 . S
O556 C543 1.236 . S
N557 Mn541 2.282 . S
N557 C558 1.328 . S
N557 C562 1.318 . S
C558 N557 1.328 . S
C558 C559 1.457 . S
C558 H563 0.929 . S
C559 C558 1.457 . S
C559 C560 1.291 . S
C559 H572 0.931 . S
C560 C559 1.291 . S
C560 C561 1.373 . S
C560 H573 0.929 . S
C561 C560 1.373 . S
C561 C562 1.396 . S
C561 C568 1.403 . S
C562 C552 1.476 . S
C562 N557 1.318 . S
C562 C561 1.396 . S
H563 C558 0.929 . S
O564 Mn540 2.385 . S
O564 C542 1.234 . S
O565 Mn540 2.209 . S
O565 Mn541 2.215 . S
O565 C542 1.283 . S
O566 Mn540 2.094 . S
O566 C544 1.240 . S
O567 Mn541 2.117 . S
O567 C544 1.264 . S
C568 C561 1.403 . S
C568 C569 1.399 . S
C568 H574 0.929 . S
C569 C549 1.449 . S
C569 C568 1.399 . S
C569 H575 0.930 . S
H570 C550 0.931 . S
H571 C551 0.930 . S
H572 C559 0.931 . S
H573 C560 0.929 . S
H574 C568 0.929 . S
H575 C569 0.930 . S
H576 C582 0.930 . S
H577 C586 0.930 . S
H578 C591 0.929 . S
H579 C589 0.929 . S
H580 C584 0.929 . S
H581 C590 0.929 . S
C582 H576 0.930 . S
C582 C583 1.367 . S
C582 C590 1.378 . S
C583 C582 1.367 . S
C583 C591 1.433 . S
C584 H580 0.929 . S
C584 C586 1.378 . S
C584 C588 1.350 . S
C585 C588 1.463 1_665 S
C585 C590 1.350 . S
C585 N593 1.427 . S
C586 H577 0.930 . S
C586 C584 1.378 . S
C586 C587 1.367 . S
C587 C586 1.367 . S
C587 C589 1.433 . S
C588 C584 1.350 . S
C588 C585 1.463 1_445 S
C588 N592 1.427 . S
C589 H579 0.929 . S
C589 C587 1.433 . S
C589 N592 1.384 . S
C590 H581 0.929 . S
C590 C582 1.378 . S
C590 C585 1.350 . S
C591 H578 0.929 . S
C591 C583 1.433 . S
C591 N593 1.384 . S
N592 C588 1.427 . S
N592 C589 1.384 . S
N593 C585 1.427 . S
N593 C591 1.384 . S
H594 C600 0.930 . S
H595 C604 0.930 . S
H596 C609 0.929 . S
H597 C607 0.929 . S
H598 C602 0.929 . S
H599 C608 0.929 . S
C600 H594 0.930 . S
C600 C601 1.367 . S
C600 C608 1.378 . S
C601 C600 1.367 . S
C601 C609 1.433 . S
C602 H598 0.929 . S
C602 C604 1.378 . S
C602 C606 1.350 . S
C603 C606 1.463 1_655 S
C603 C608 1.350 . S
C603 N611 1.427 . S
C604 H595 0.930 . S
C604 C602 1.378 . S
C604 C605 1.367 . S
C605 C604 1.367 . S
C605 C607 1.433 . S
C606 C602 1.350 . S
C606 C603 1.463 1_455 S
C606 N610 1.427 . S
C607 H597 0.929 . S
C607 C605 1.433 . S
C607 N610 1.384 . S
C608 H599 0.929 . S
C608 C600 1.378 . S
C608 C603 1.350 . S
C609 H596 0.929 . S
C609 C601 1.433 . S
C609 N611 1.384 . S
N610 C606 1.427 . S
N610 C607 1.384 . S
N611 C603 1.427 . S
N611 C609 1.384 . S
H612 C618 0.930 . S
H613 C622 0.930 . S
H614 C627 0.929 . S
H615 C625 0.929 . S
H616 C620 0.929 . S
H617 C626 0.929 . S
C618 H612 0.930 . S
C618 C619 1.367 . S
C618 C626 1.378 . S
C619 C618 1.367 . S
C619 C627 1.433 . S
C620 H616 0.929 . S
C620 C622 1.378 . S
C620 C624 1.350 . S
C621 C624 1.463 . S
C621 C626 1.350 . S
C621 N629 1.427 . S
C622 H613 0.930 . S
C622 C620 1.378 . S
C622 C623 1.367 . S
C623 C622 1.367 . S
C623 C625 1.433 . S
C624 C620 1.350 . S
C624 C621 1.463 . S
C624 N628 1.427 . S
C625 H615 0.929 . S
C625 C623 1.433 . S
C625 N628 1.384 . S
C626 H617 0.929 . S
C626 C618 1.378 . S
C626 C621 1.350 . S
C627 H614 0.929 . S
C627 C619 1.433 . S
C627 N629 1.384 . S
N628 C624 1.427 . S
N628 C625 1.384 . S
N629 C621 1.427 . S
N629 C627 1.384 . S
H630 C636 0.930 . S
H631 C640 0.930 . S
H632 C645 0.929 . S
H633 C643 0.929 . S
H634 C638 0.929 . S
H635 C644 0.929 . S
C636 H630 0.930 . S
C636 C637 1.367 . S
C636 C644 1.378 . S
C637 C636 1.367 . S
C637 C645 1.433 . S
C638 H634 0.929 . S
C638 C640 1.378 . S
C638 C642 1.350 . S
C639 C642 1.463 1_545 S
C639 C644 1.350 . S
C639 N647 1.427 . S
C640 H631 0.930 . S
C640 C638 1.378 . S
C640 C641 1.367 . S
C641 C640 1.367 . S
C641 C643 1.433 . S
C642 C638 1.350 . S
C642 C639 1.463 1_565 S
C642 N646 1.427 . S
C643 H633 0.929 . S
C643 C641 1.433 . S
C643 N646 1.384 . S
C644 H635 0.929 . S
C644 C636 1.378 . S
C644 C639 1.350 . S
C645 H632 0.929 . S
C645 C637 1.433 . S
C645 N647 1.384 . S
N646 C642 1.427 . S
N646 C643 1.384 . S
N647 C639 1.427 . S
N647 C645 1.384 . S
H648 C654 0.930 . S
H649 C658 0.930 . S
H650 C663 0.929 . S
H651 C661 0.929 . S
H652 C656 0.929 1_455 S
H653 C662 0.929 1_655 S
C654 H648 0.930 . S
C654 C655 1.367 . S
C654 C662 1.378 . S
C655 C654 1.367 . S
C655 C663 1.433 . S
C656 H652 0.929 1_655 S
C656 C658 1.378 . S
C656 C660 1.350 . S
C657 C660 1.463 1_455 S
C657 C662 1.350 . S
C657 N665 1.427 . S
C658 H649 0.930 . S
C658 C656 1.378 . S
C658 C659 1.367 . S
C659 C658 1.367 . S
C659 C661 1.433 . S
C660 C656 1.350 . S
C660 C657 1.463 1_655 S
C660 N664 1.427 . S
C661 H651 0.929 . S
C661 C659 1.433 . S
C661 N664 1.384 . S
C662 H653 0.929 1_455 S
C662 C654 1.378 . S
C662 C657 1.350 . S
C663 H650 0.929 . S
C663 C655 1.433 . S
C663 N665 1.384 . S
N664 C660 1.427 . S
N664 C661 1.384 . S
N665 C657 1.427 . S
N665 C663 1.384 . S
H666 C672 0.930 . S
H667 C676 0.930 . S
H668 C681 0.929 . S
H669 C679 0.929 . S
H670 C674 0.929 . S
H671 C680 0.929 . S
C672 H666 0.930 . S
C672 C673 1.367 . S
C672 C680 1.378 . S
C673 C672 1.367 . S
C673 C681 1.433 . S
C674 H670 0.929 . S
C674 C676 1.378 . S
C674 C678 1.350 . S
C675 C678 1.463 . S
C675 C680 1.350 . S
C675 N683 1.427 . S
C676 H667 0.930 . S
C676 C674 1.378 . S
C676 C677 1.367 . S
C677 C676 1.367 . S
C677 C679 1.433 . S
C678 C674 1.350 . S
C678 C675 1.463 . S
C678 N682 1.427 . S
C679 H669 0.929 . S
C679 C677 1.433 . S
C679 N682 1.384 . S
C680 H671 0.929 . S
C680 C672 1.378 . S
C680 C675 1.350 . S
C681 H668 0.929 . S
C681 C673 1.433 . S
C681 N683 1.384 . S
N682 C678 1.427 . S
N682 C679 1.384 . S
N683 C675 1.427 . S
N683 C681 1.384 . S
H684 C690 0.930 . S
H685 C694 0.930 . S
H686 C699 0.929 . S
H687 C697 0.929 . S
H688 C692 0.929 . S
H689 C698 0.929 . S
C690 H684 0.930 . S
C690 C691 1.367 . S
C690 C698 1.378 . S
C691 C690 1.367 . S
C691 C699 1.433 . S
C692 H688 0.929 . S
C692 C694 1.378 . S
C692 C696 1.350 . S
C693 C696 1.463 1_545 S
C693 C698 1.350 . S
C693 N701 1.427 . S
C694 H685 0.930 . S
C694 C692 1.378 . S
C694 C695 1.367 . S
C695 C694 1.367 . S
C695 C697 1.433 . S
C696 C692 1.350 . S
C696 C693 1.463 1_565 S
C696 N700 1.427 . S
C697 H687 0.929 . S
C697 C695 1.433 . S
C697 N700 1.384 . S
C698 H689 0.929 . S
C698 C690 1.378 . S
C698 C693 1.350 . S
C699 H686 0.929 . S
C699 C691 1.433 . S
C699 N701 1.384 . S
N700 C696 1.427 . S
N700 C697 1.384 . S
N701 C693 1.427 . S
N701 C699 1.384 . S
H702 C708 0.930 . S
H703 C712 0.930 . S
H704 C717 0.929 1_655 S
H705 C715 0.929 1_455 S
H706 C710 0.929 1_545 S
H707 C716 0.929 1_565 S
C708 H702 0.930 . S
C708 C709 1.367 . S
C708 C716 1.378 . S
C709 C708 1.367 . S
C709 C717 1.433 . S
C710 H706 0.929 1_565 S
C710 C712 1.378 . S
C710 C714 1.350 . S
C711 C714 1.463 1_445 S
C711 C716 1.350 . S
C711 N719 1.427 1_455 S
C712 H703 0.930 . S
C712 C710 1.378 . S
C712 C713 1.367 . S
C713 C712 1.367 . S
C713 C715 1.433 . S
C714 C710 1.350 . S
C714 C711 1.463 1_665 S
C714 N718 1.427 1_655 S
C715 H705 0.929 1_655 S
C715 C713 1.433 . S
C715 N718 1.384 1_655 S
C716 H707 0.929 1_545 S
C716 C708 1.378 . S
C716 C711 1.350 . S
C717 H704 0.929 1_455 S
C717 C709 1.433 . S
C717 N719 1.384 1_455 S
N718 C714 1.427 1_455 S
N718 C715 1.384 1_455 S
N719 C711 1.427 1_655 S
N719 C717 1.384 1_655 S
H720 C726 0.930 . S
H721 C730 0.930 . S
H722 C735 0.929 . S
H723 C733 0.929 . S
H724 C728 0.929 . S
H725 C734 0.929 . S
C726 H720 0.930 . S
C726 C727 1.367 . S
C726 C734 1.378 . S
C727 C726 1.367 . S
C727 C735 1.433 . S
C728 H724 0.929 . S
C728 C730 1.378 . S
C728 C732 1.350 . S
C729 C732 1.463 1_565 S
C729 C734 1.350 . S
C729 N737 1.427 . S
C730 H721 0.930 . S
C730 C728 1.378 . S
C730 C731 1.367 . S
C731 C730 1.367 . S
C731 C733 1.433 . S
C732 C728 1.350 . S
C732 C729 1.463 1_545 S
C732 N736 1.427 . S
C733 H723 0.929 . S
C733 C731 1.433 . S
C733 N736 1.384 . S
C734 H725 0.929 . S
C734 C726 1.378 . S
C734 C729 1.350 . S
C735 H722 0.929 . S
C735 C727 1.433 . S
C735 N737 1.384 . S
N736 C732 1.427 . S
N736 C733 1.384 . S
N737 C729 1.427 . S
N737 C735 1.384 . S
H738 C744 0.930 . S
H739 C748 0.930 . S
H740 C753 0.929 . S
H741 C751 0.929 . S
H742 C746 0.929 1_565 S
H743 C752 0.929 1_545 S
C744 H738 0.930 . S
C744 C745 1.367 . S
C744 C752 1.378 . S
C745 C744 1.367 . S
C745 C753 1.433 . S
C746 H742 0.929 1_545 S
C746 C748 1.378 . S
C746 C750 1.350 . S
C747 C750 1.463 1_665 S
C747 C752 1.350 . S
C747 N755 1.427 1_655 S
C748 H739 0.930 . S
C748 C746 1.378 . S
C748 C749 1.367 . S
C749 C748 1.367 . S
C749 C751 1.433 . S
C750 C746 1.350 . S
C750 C747 1.463 1_445 S
C750 N754 1.427 1_455 S
C751 H741 0.929 . S
C751 C749 1.433 . S
C751 N754 1.384 1_455 S
C752 H743 0.929 1_565 S
C752 C744 1.378 . S
C752 C747 1.350 . S
C753 H740 0.929 . S
C753 C745 1.433 . S
C753 N755 1.384 1_655 S
N754 C750 1.427 1_655 S
N754 C751 1.384 1_655 S
N755 C747 1.427 1_455 S
N755 C753 1.384 1_455 S
H756 C762 0.930 . S
H757 C766 0.930 . S
H758 C771 0.929 . S
H759 C769 0.929 . S
H760 C764 0.929 . S
H761 C770 0.929 . S
C762 H756 0.930 . S
C762 C763 1.367 . S
C762 C770 1.378 . S
C763 C762 1.367 . S
C763 C771 1.433 . S
C764 H760 0.929 . S
C764 C766 1.378 . S
C764 C768 1.350 . S
C765 C768 1.463 1_455 S
C765 C770 1.350 . S
C765 N773 1.427 . S
C766 H757 0.930 . S
C766 C764 1.378 . S
C766 C767 1.367 . S
C767 C766 1.367 . S
C767 C769 1.433 . S
C768 C764 1.350 . S
C768 C765 1.463 1_655 S
C768 N772 1.427 . S
C769 H759 0.929 . S
C769 C767 1.433 . S
C769 N772 1.384 . S
C770 H761 0.929 . S
C770 C762 1.378 . S
C770 C765 1.350 . S
C771 H758 0.929 . S
C771 C763 1.433 . S
C771 N773 1.384 . S
N772 C768 1.427 . S
N772 C769 1.384 . S
N773 C765 1.427 . S
N773 C771 1.384 . S
H774 C780 0.930 . S
H775 C784 0.930 . S
H776 C789 0.929 . S
H777 C787 0.929 . S
H778 C782 0.929 . S
H779 C788 0.929 . S
C780 H774 0.930 . S
C780 C781 1.367 . S
C780 C788 1.378 . S
C781 C780 1.367 . S
C781 C789 1.433 . S
C782 H778 0.929 . S
C782 C784 1.378 . S
C782 C786 1.350 . S
C783 C786 1.463 . S
C783 C788 1.350 . S
C783 N791 1.427 . S
C784 H775 0.930 . S
C784 C782 1.378 . S
C784 C785 1.367 . S
C785 C784 1.367 . S
C785 C787 1.433 . S
C786 C782 1.350 . S
C786 C783 1.463 . S
C786 N790 1.427 . S
C787 H777 0.929 . S
C787 C785 1.433 . S
C787 N790 1.384 . S
C788 H779 0.929 . S
C788 C780 1.378 . S
C788 C783 1.350 . S
C789 H776 0.929 . S
C789 C781 1.433 . S
C789 N791 1.384 . S
N790 C786 1.427 . S
N790 C787 1.384 . S
N791 C783 1.427 . S
N791 C789 1.384 . S
H792 C798 0.930 . S
H793 C802 0.930 . S
H794 C807 0.929 . S
H795 C805 0.929 . S
H796 C800 0.929 . S
H797 C806 0.929 . S
C798 H792 0.930 . S
C798 C799 1.367 . S
C798 C806 1.378 . S
C799 C798 1.367 . S
C799 C807 1.433 . S
C800 H796 0.929 . S
C800 C802 1.378 . S
C800 C804 1.350 . S
C801 C804 1.463 . S
C801 C806 1.350 . S
C801 N809 1.427 . S
C802 H793 0.930 . S
C802 C800 1.378 . S
C802 C803 1.367 . S
C803 C802 1.367 . S
C803 C805 1.433 . S
C804 C800 1.350 . S
C804 C801 1.463 . S
C804 N808 1.427 . S
C805 H795 0.929 . S
C805 C803 1.433 . S
C805 N808 1.384 . S
C806 H797 0.929 . S
C806 C798 1.378 . S
C806 C801 1.350 . S
C807 H794 0.929 . S
C807 C799 1.433 . S
C807 N809 1.384 . S
N808 C804 1.427 . S
N808 C805 1.384 . S
N809 C801 1.427 . S
N809 C807 1.384 . S
H810 C816 0.930 . S
H811 C820 0.930 . S
H812 C825 0.929 . S
H813 C823 0.929 . S
H814 C818 0.929 . S
H815 C824 0.929 . S
C816 H810 0.930 . S
C816 C817 1.367 . S
C816 C824 1.378 . S
C817 C816 1.367 . S
C817 C825 1.433 . S
C818 H814 0.929 . S
C818 C820 1.378 . S
C818 C822 1.350 . S
C819 C822 1.463 1_565 S
C819 C824 1.350 . S
C819 N827 1.427 . S
C820 H811 0.930 . S
C820 C818 1.378 . S
C820 C821 1.367 . S
C821 C820 1.367 . S
C821 C823 1.433 . S
C822 C818 1.350 . S
C822 C819 1.463 1_545 S
C822 N826 1.427 . S
C823 H813 0.929 . S
C823 C821 1.433 . S
C823 N826 1.384 . S
C824 H815 0.929 . S
C824 C816 1.378 . S
C824 C819 1.350 . S
C825 H812 0.929 . S
C825 C817 1.433 . S
C825 N827 1.384 . S
N826 C822 1.427 . S
N826 C823 1.384 . S
N827 C819 1.427 . S
N827 C825 1.384 . S
H828 C834 0.930 . S
H829 C838 0.930 . S
H830 C843 0.929 . S
H831 C841 0.929 . S
H832 C836 0.929 1_565 S
H833 C842 0.929 1_545 S
C834 H828 0.930 . S
C834 C835 1.367 . S
C834 C842 1.378 . S
C835 C834 1.367 . S
C835 C843 1.433 . S
C836 H832 0.929 1_545 S
C836 C838 1.378 . S
C836 C840 1.350 . S
C837 C840 1.463 1_665 S
C837 C842 1.350 . S
C837 N845 1.427 . S
C838 H829 0.930 . S
C838 C836 1.378 . S
C838 C839 1.367 . S
C839 C838 1.367 . S
C839 C841 1.433 . S
C840 C836 1.350 . S
C840 C837 1.463 1_445 S
C840 N844 1.427 . S
C841 H831 0.929 . S
C841 C839 1.433 . S
C841 N844 1.384 . S
C842 H833 0.929 1_565 S
C842 C834 1.378 . S
C842 C837 1.350 . S
C843 H830 0.929 . S
C843 C835 1.433 . S
C843 N845 1.384 . S
N844 C840 1.427 . S
N844 C841 1.384 . S
N845 C837 1.427 . S
N845 C843 1.384 . S
H846 C852 0.930 . S
H847 C856 0.930 . S
H848 C861 0.929 . S
H849 C859 0.929 . S
H850 C854 0.936 . S
H851 C860 0.935 . S
C852 H846 0.930 . S
C852 C853 1.367 . S
C852 C860 1.374 1_455 S
C853 C852 1.367 . S
C853 C861 1.433 . S
C854 H850 0.936 . S
C854 C856 1.373 1_455 S
C854 C858 1.347 1_455 S
C855 C858 1.463 1_455 S
C855 C860 1.348 1_455 S
C855 N863 1.427 . S
C856 H847 0.930 . S
C856 C854 1.373 1_655 S
C856 C857 1.367 . S
C857 C856 1.367 . S
C857 C859 1.433 . S
C858 C854 1.347 1_655 S
C858 C855 1.463 1_655 S
C858 N862 1.427 . S
C859 H849 0.929 . S
C859 C857 1.433 . S
C859 N862 1.384 . S
C860 H851 0.935 . S
C860 C852 1.374 1_655 S
C860 C855 1.348 1_655 S
C861 H848 0.929 . S
C861 C853 1.433 . S
C861 N863 1.384 . S
N862 C858 1.427 . S
N862 C859 1.384 . S
N863 C855 1.427 . S
N863 C861 1.384 . S
H864 C870 0.930 . S
H865 C874 0.930 . S
H866 C879 0.929 . S
H867 C877 0.929 . S
H868 C872 0.929 . S
H869 C878 0.929 . S
C870 H864 0.930 . S
C870 C871 1.367 . S
C870 C878 1.378 . S
C871 C870 1.367 . S
C871 C879 1.433 . S
C872 H868 0.929 . S
C872 C874 1.378 . S
C872 C876 1.350 . S
C873 C876 1.463 . S
C873 C878 1.350 . S
C873 N881 1.427 . S
C874 H865 0.930 . S
C874 C872 1.378 . S
C874 C875 1.367 . S
C875 C874 1.367 . S
C875 C877 1.433 . S
C876 C872 1.350 . S
C876 C873 1.463 . S
C876 N880 1.427 . S
C877 H867 0.929 . S
C877 C875 1.433 . S
C877 N880 1.384 . S
C878 H869 0.929 . S
C878 C870 1.378 . S
C878 C873 1.350 . S
C879 H866 0.929 . S
C879 C871 1.433 . S
C879 N881 1.384 . S
N880 C876 1.427 . S
N880 C877 1.384 . S
N881 C873 1.427 . S
N881 C879 1.384 . S
H882 C888 0.930 . S
H883 C892 0.930 . S
H884 C897 0.929 . S
H885 C895 0.929 . S
H886 C890 0.929 . S
H887 C896 0.929 . S
C888 H882 0.930 . S
C888 C889 1.367 . S
C888 C896 1.378 . S
C889 C888 1.367 . S
C889 C897 1.433 . S
C890 H886 0.929 . S
C890 C892 1.378 . S
C890 C894 1.350 . S
C891 C894 1.463 . S
C891 C896 1.350 . S
C891 N899 1.427 . S
C892 H883 0.930 . S
C892 C890 1.378 . S
C892 C893 1.367 . S
C893 C892 1.367 . S
C893 C895 1.433 . S
C894 C890 1.350 . S
C894 C891 1.463 . S
C894 N898 1.427 . S
C895 H885 0.929 . S
C895 C893 1.433 . S
C895 N898 1.384 . S
C896 H887 0.929 . S
C896 C888 1.378 . S
C896 C891 1.350 . S
C897 H884 0.929 . S
C897 C889 1.433 . S
C897 N899 1.384 . S
N898 C894 1.427 . S
N898 C895 1.384 . S
N899 C891 1.427 . S
N899 C897 1.384 . S
H900 C906 0.930 . S
H901 C910 0.930 . S
H902 C915 0.929 . S
H903 C913 0.929 . S
H904 C908 0.929 . S
H905 C914 0.929 . S
C906 H900 0.930 . S
C906 C907 1.367 . S
C906 C914 1.378 . S
C907 C906 1.367 . S
C907 C915 1.433 . S
C908 H904 0.929 . S
C908 C910 1.378 . S
C908 C912 1.350 . S
C909 C912 1.463 . S
C909 C914 1.350 . S
C909 N917 1.427 . S
C910 H901 0.930 . S
C910 C908 1.378 . S
C910 C911 1.367 . S
C911 C910 1.367 . S
C911 C913 1.433 . S
C912 C908 1.350 . S
C912 C909 1.463 . S
C912 N916 1.427 . S
C913 H903 0.929 . S
C913 C911 1.433 . S
C913 N916 1.384 . S
C914 H905 0.929 . S
C914 C906 1.378 . S
C914 C909 1.350 . S
C915 H902 0.929 . S
C915 C907 1.433 . S
C915 N917 1.384 . S
N916 C912 1.427 . S
N916 C913 1.384 . S
N917 C909 1.427 . S
N917 C915 1.384 . S
H918 C924 0.930 . S
H919 C928 0.930 . S
H920 C933 0.929 . S
H921 C931 0.929 . S
H922 C926 0.929 . S
H923 C932 0.929 . S
C924 H918 0.930 . S
C924 C925 1.367 . S
C924 C932 1.378 . S
C925 C924 1.367 . S
C925 C933 1.433 . S
C926 H922 0.929 . S
C926 C928 1.378 . S
C926 C930 1.350 . S
C927 C930 1.463 . S
C927 C932 1.350 . S
C927 N935 1.427 . S
C928 H919 0.930 . S
C928 C926 1.378 . S
C928 C929 1.367 . S
C929 C928 1.367 . S
C929 C931 1.433 . S
C930 C926 1.350 . S
C930 C927 1.463 . S
C930 N934 1.427 . S
C931 H921 0.929 . S
C931 C929 1.433 . S
C931 N934 1.384 . S
C932 H923 0.929 . S
C932 C924 1.378 . S
C932 C927 1.350 . S
C933 H920 0.929 . S
C933 C925 1.433 . S
C933 N935 1.384 . S
N934 C930 1.427 . S
N934 C931 1.384 . S
N935 C927 1.427 . S
N935 C933 1.384 . S
H936 C942 0.930 . S
H937 C946 0.930 . S
H938 C951 0.929 . S
H939 C949 0.929 . S
H940 C944 0.929 . S
H941 C950 0.929 . S
C942 H936 0.930 . S
C942 C943 1.367 . S
C942 C950 1.378 . S
C943 C942 1.367 . S
C943 C951 1.433 . S
C944 H940 0.929 . S
C944 C946 1.378 . S
C944 C948 1.350 . S
C945 C948 1.463 . S
C945 C950 1.350 . S
C945 N953 1.427 . S
C946 H937 0.930 . S
C946 C944 1.378 . S
C946 C947 1.367 . S
C947 C946 1.367 . S
C947 C949 1.433 . S
C948 C944 1.350 . S
C948 C945 1.463 . S
C948 N952 1.427 . S
C949 H939 0.929 . S
C949 C947 1.433 . S
C949 N952 1.384 . S
C950 H941 0.929 . S
C950 C942 1.378 . S
C950 C945 1.350 . S
C951 H938 0.929 . S
C951 C943 1.433 . S
C951 N953 1.384 . S
N952 C948 1.427 . S
N952 C949 1.384 . S
N953 C945 1.427 . S
N953 C951 1.384 . S
H954 C960 0.930 . S
H955 C964 0.930 . S
H956 C969 0.929 . S
H957 C967 0.929 . S
H958 C962 0.929 . S
H959 C968 0.929 . S
C960 H954 0.930 . S
C960 C961 1.367 . S
C960 C968 1.378 . S
C961 C960 1.367 . S
C961 C969 1.433 . S
C962 H958 0.929 . S
C962 C964 1.378 . S
C962 C966 1.350 . S
C963 C966 1.463 . S
C963 C968 1.350 . S
C963 N971 1.427 . S
C964 H955 0.930 . S
C964 C962 1.378 . S
C964 C965 1.367 . S
C965 C964 1.367 . S
C965 C967 1.433 . S
C966 C962 1.350 . S
C966 C963 1.463 . S
C966 N970 1.427 . S
C967 H957 0.929 . S
C967 C965 1.433 . S
C967 N970 1.384 . S
C968 H959 0.929 . S
C968 C960 1.378 . S
C968 C963 1.350 . S
C969 H956 0.929 . S
C969 C961 1.433 . S
C969 N971 1.384 . S
N970 C966 1.427 . S
N970 C967 1.384 . S
N971 C963 1.427 . S
N971 C969 1.384 . S
H972 C978 0.930 . S
H973 C982 0.930 . S
H974 C987 0.929 . S
H975 C985 0.929 . S
H976 C980 0.929 . S
H977 C986 0.929 . S
C978 H972 0.930 . S
C978 C979 1.367 . S
C978 C986 1.378 . S
C979 C978 1.367 . S
C979 C987 1.433 . S
C980 H976 0.929 . S
C980 C982 1.378 . S
C980 C984 1.350 . S
C981 C984 1.463 . S
C981 C986 1.350 . S
C981 N989 1.427 . S
C982 H973 0.930 . S
C982 C980 1.378 . S
C982 C983 1.367 . S
C983 C982 1.367 . S
C983 C985 1.433 . S
C984 C980 1.350 . S
C984 C981 1.463 . S
C984 N988 1.427 . S
C985 H975 0.929 . S
C985 C983 1.433 . S
C985 N988 1.384 . S
C986 H977 0.929 . S
C986 C978 1.378 . S
C986 C981 1.350 . S
C987 H974 0.929 . S
C987 C979 1.433 . S
C987 N989 1.384 . S
N988 C984 1.427 . S
N988 C985 1.384 . S
N989 C981 1.427 . S
N989 C987 1.384 . S
H990 C996 0.930 . S
H991 C1000 0.930 . S
H992 C1005 0.929 . S
H993 C1003 0.929 . S
H994 C998 0.929 . S
H995 C1004 0.929 . S
C996 H990 0.930 . S
C996 C997 1.367 . S
C996 C1004 1.378 . S
C997 C996 1.367 . S
C997 C1005 1.433 . S
C998 H994 0.929 . S
C998 C1000 1.378 . S
C998 C1002 1.350 . S
C999 C1002 1.463 . S
C999 C1004 1.350 . S
C999 N1007 1.427 . S
C1000 H991 0.930 . S
C1000 C998 1.378 . S
C1000 C1001 1.367 . S
C1001 C1000 1.367 . S
C1001 C1003 1.433 . S
C1002 C998 1.350 . S
C1002 C999 1.463 . S
C1002 N1006 1.427 . S
C1003 H993 0.929 . S
C1003 C1001 1.433 . S
C1003 N1006 1.384 . S
C1004 H995 0.929 . S
C1004 C996 1.378 . S
C1004 C999 1.350 . S
C1005 H992 0.929 . S
C1005 C997 1.433 . S
C1005 N1007 1.384 . S
N1006 C1002 1.427 . S
N1006 C1003 1.384 . S
N1007 C999 1.427 . S
N1007 C1005 1.384 . S
H1008 C1014 0.930 . S
H1009 C1018 0.930 . S
H1010 C1023 0.929 . S
H1011 C1021 0.929 . S
H1012 C1016 0.929 . S
H1013 C1022 0.929 . S
C1014 H1008 0.930 . S
C1014 C1015 1.367 . S
C1014 C1022 1.378 . S
C1015 C1014 1.367 . S
C1015 C1023 1.433 . S
C1016 H1012 0.929 . S
C1016 C1018 1.378 . S
C1016 C1020 1.350 . S
C1017 C1020 1.463 . S
C1017 C1022 1.350 . S
C1017 N1025 1.427 . S
C1018 H1009 0.930 . S
C1018 C1016 1.378 . S
C1018 C1019 1.367 . S
C1019 C1018 1.367 . S
C1019 C1021 1.433 . S
C1020 C1016 1.350 . S
C1020 C1017 1.463 . S
C1020 N1024 1.427 . S
C1021 H1011 0.929 . S
C1021 C1019 1.433 . S
C1021 N1024 1.384 . S
C1022 H1013 0.929 . S
C1022 C1014 1.378 . S
C1022 C1017 1.350 . S
C1023 H1010 0.929 . S
C1023 C1015 1.433 . S
C1023 N1025 1.384 . S
N1024 C1020 1.427 . S
N1024 C1021 1.384 . S
N1025 C1017 1.427 . S
N1025 C1023 1.384 . S
H1026 C1032 0.930 . S
H1027 C1036 0.930 . S
H1028 C1041 0.929 . S
H1029 C1039 0.929 . S
H1030 C1034 0.929 . S
H1031 C1040 0.929 . S
C1032 H1026 0.930 . S
C1032 C1033 1.367 . S
C1032 C1040 1.378 . S
C1033 C1032 1.367 . S
C1033 C1041 1.433 . S
C1034 H1030 0.929 . S
C1034 C1036 1.378 . S
C1034 C1038 1.350 . S
C1035 C1038 1.463 . S
C1035 C1040 1.350 . S
C1035 N1043 1.427 . S
C1036 H1027 0.930 . S
C1036 C1034 1.378 . S
C1036 C1037 1.367 . S
C1037 C1036 1.367 . S
C1037 C1039 1.433 . S
C1038 C1034 1.350 . S
C1038 C1035 1.463 . S
C1038 N1042 1.427 . S
C1039 H1029 0.929 . S
C1039 C1037 1.433 . S
C1039 N1042 1.384 . S
C1040 H1031 0.929 . S
C1040 C1032 1.378 . S
C1040 C1035 1.350 . S
C1041 H1028 0.929 . S
C1041 C1033 1.433 . S
C1041 N1043 1.384 . S
N1042 C1038 1.427 . S
N1042 C1039 1.384 . S
N1043 C1035 1.427 . S
N1043 C1041 1.384 . S
H1044 C1050 0.930 . S
H1045 C1054 0.930 . S
H1046 C1059 0.929 . S
H1047 C1057 0.929 . S
H1048 C1052 0.929 . S
H1049 C1058 0.929 . S
C1050 H1044 0.930 . S
C1050 C1051 1.367 . S
C1050 C1058 1.378 . S
C1051 C1050 1.367 . S
C1051 C1059 1.433 . S
C1052 H1048 0.929 . S
C1052 C1054 1.378 . S
C1052 C1056 1.350 . S
C1053 C1056 1.463 . S
C1053 C1058 1.350 . S
C1053 N1061 1.427 . S
C1054 H1045 0.930 . S
C1054 C1052 1.378 . S
C1054 C1055 1.367 . S
C1055 C1054 1.367 . S
C1055 C1057 1.433 . S
C1056 C1052 1.350 . S
C1056 C1053 1.463 . S
C1056 N1060 1.427 . S
C1057 H1047 0.929 . S
C1057 C1055 1.433 . S
C1057 N1060 1.384 . S
C1058 H1049 0.929 . S
C1058 C1050 1.378 . S
C1058 C1053 1.350 . S
C1059 H1046 0.929 . S
C1059 C1051 1.433 . S
C1059 N1061 1.384 . S
N1060 C1056 1.427 . S
N1060 C1057 1.384 . S
N1061 C1053 1.427 . S
N1061 C1059 1.384 . S
H1062 C1068 0.930 . S
H1063 C1072 0.930 . S
H1064 C1077 0.929 . S
H1065 C1075 0.929 . S
H1066 C1070 0.929 . S
H1067 C1076 0.929 . S
C1068 H1062 0.930 . S
C1068 C1069 1.367 . S
C1068 C1076 1.378 . S
C1069 C1068 1.367 . S
C1069 C1077 1.433 . S
C1070 H1066 0.929 . S
C1070 C1072 1.378 . S
C1070 C1074 1.350 . S
C1071 C1074 1.463 1_556 S
C1071 C1076 1.350 . S
C1071 N1079 1.427 . S
C1072 H1063 0.930 . S
C1072 C1070 1.378 . S
C1072 C1073 1.367 . S
C1073 C1072 1.367 . S
C1073 C1075 1.433 . S
C1074 C1070 1.350 . S
C1074 C1071 1.463 1_554 S
C1074 N1078 1.427 . S
C1075 H1065 0.929 . S
C1075 C1073 1.433 . S
C1075 N1078 1.384 . S
C1076 H1067 0.929 . S
C1076 C1068 1.378 . S
C1076 C1071 1.350 . S
C1077 H1064 0.929 . S
C1077 C1069 1.433 . S
C1077 N1079 1.384 . S
N1078 C1074 1.427 . S
N1078 C1075 1.384 . S
N1079 C1071 1.427 . S
N1079 C1077 1.384 . S
H1080 C1086 0.930 . S
H1081 C1090 0.930 . S
H1082 C1095 0.929 . S
H1083 C1093 0.929 . S
H1084 C1088 0.929 . S
H1085 C1094 0.929 . S
C1086 H1080 0.930 . S
C1086 C1087 1.367 . S
C1086 C1094 1.378 . S
C1087 C1086 1.367 . S
C1087 C1095 1.433 . S
C1088 H1084 0.929 . S
C1088 C1090 1.378 . S
C1088 C1092 1.350 . S
C1089 C1092 1.463 1_554 S
C1089 C1094 1.350 . S
C1089 N1097 1.427 . S
C1090 H1081 0.930 . S
C1090 C1088 1.378 . S
C1090 C1091 1.367 . S
C1091 C1090 1.367 . S
C1091 C1093 1.433 . S
C1092 C1088 1.350 . S
C1092 C1089 1.463 1_556 S
C1092 N1096 1.427 . S
C1093 H1083 0.929 . S
C1093 C1091 1.433 . S
C1093 N1096 1.384 . S
C1094 H1085 0.929 . S
C1094 C1086 1.378 . S
C1094 C1089 1.350 . S
C1095 H1082 0.929 . S
C1095 C1087 1.433 . S
C1095 N1097 1.384 . S
N1096 C1092 1.427 . S
N1096 C1093 1.384 . S
N1097 C1089 1.427 . S
N1097 C1095 1.384 . S
H1098 C1104 0.930 . S
H1099 C1108 0.930 . S
H1100 C1113 0.929 . S
H1101 C1111 0.929 . S
H1102 C1106 0.929 . S
H1103 C1112 0.929 . S
C1104 H1098 0.930 . S
C1104 C1105 1.367 . S
C1104 C1112 1.378 . S
C1105 C1104 1.367 . S
C1105 C1113 1.433 . S
C1106 H1102 0.929 . S
C1106 C1108 1.378 . S
C1106 C1110 1.350 . S
C1107 C1110 1.463 . S
C1107 C1112 1.350 . S
C1107 N1115 1.427 . S
C1108 H1099 0.930 . S
C1108 C1106 1.378 . S
C1108 C1109 1.367 . S
C1109 C1108 1.367 . S
C1109 C1111 1.433 . S
C1110 C1106 1.350 . S
C1110 C1107 1.463 . S
C1110 N1114 1.427 . S
C1111 H1101 0.929 . S
C1111 C1109 1.433 . S
C1111 N1114 1.384 . S
C1112 H1103 0.929 . S
C1112 C1104 1.378 . S
C1112 C1107 1.350 . S
C1113 H1100 0.929 . S
C1113 C1105 1.433 . S
C1113 N1115 1.384 . S
N1114 C1110 1.427 . S
N1114 C1111 1.384 . S
N1115 C1107 1.427 . S
N1115 C1113 1.384 . S
H1116 C1122 0.930 . S
H1117 C1126 0.930 . S
H1118 C1131 0.929 . S
H1119 C1129 0.929 . S
H1120 C1124 0.929 . S
H1121 C1130 0.929 . S
C1122 H1116 0.930 . S
C1122 C1123 1.367 . S
C1122 C1130 1.378 . S
C1123 C1122 1.367 . S
C1123 C1131 1.433 . S
C1124 H1120 0.929 . S
C1124 C1126 1.378 . S
C1124 C1128 1.350 . S
C1125 C1128 1.463 . S
C1125 C1130 1.350 . S
C1125 N1133 1.427 . S
C1126 H1117 0.930 . S
C1126 C1124 1.378 . S
C1126 C1127 1.367 . S
C1127 C1126 1.367 . S
C1127 C1129 1.433 . S
C1128 C1124 1.350 . S
C1128 C1125 1.463 . S
C1128 N1132 1.427 . S
C1129 H1119 0.929 . S
C1129 C1127 1.433 . S
C1129 N1132 1.384 . S
C1130 H1121 0.929 . S
C1130 C1122 1.378 . S
C1130 C1125 1.350 . S
C1131 H1118 0.929 . S
C1131 C1123 1.433 . S
C1131 N1133 1.384 . S
N1132 C1128 1.427 . S
N1132 C1129 1.384 . S
N1133 C1125 1.427 . S
N1133 C1131 1.384 . S
H1134 C1140 0.930 . S
H1135 C1144 0.930 . S
H1136 C1149 0.929 . S
H1137 C1147 0.929 . S
H1138 C1142 0.929 . S
H1139 C1148 0.929 . S
C1140 H1134 0.930 . S
C1140 C1141 1.367 . S
C1140 C1148 1.378 . S
C1141 C1140 1.367 . S
C1141 C1149 1.433 . S
C1142 H1138 0.929 . S
C1142 C1144 1.378 . S
C1142 C1146 1.350 . S
C1143 C1146 1.463 . S
C1143 C1148 1.350 . S
C1143 N1151 1.427 . S
C1144 H1135 0.930 . S
C1144 C1142 1.378 . S
C1144 C1145 1.367 . S
C1145 C1144 1.367 . S
C1145 C1147 1.433 . S
C1146 C1142 1.350 . S
C1146 C1143 1.463 . S
C1146 N1150 1.427 . S
C1147 H1137 0.929 . S
C1147 C1145 1.433 . S
C1147 N1150 1.384 . S
C1148 H1139 0.929 . S
C1148 C1140 1.378 . S
C1148 C1143 1.350 . S
C1149 H1136 0.929 . S
C1149 C1141 1.433 . S
C1149 N1151 1.384 . S
N1150 C1146 1.427 . S
N1150 C1147 1.384 . S
N1151 C1143 1.427 . S
N1151 C1149 1.384 . S
C583 C374 1.440 . S
C587 C14 1.453 . S
C601 C50 1.438 . S
C605 C410 1.452 . S
C619 C302 1.442 . S
C623 C86 1.452 . S
C637 C338 1.440 . S
C641 C122 1.452 . S
C655 C158 1.447 . S
C659 C518 1.450 . S
C673 C554 1.452 . S
C677 C194 1.438 . S
C691 C230 1.437 . S
C695 C446 1.451 . S
C709 C482 1.448 . S
C713 C266 1.450 . S
C727 C362 1.522 . S
C731 C2 1.521 . S
C745 C38 1.520 . S
C749 C398 1.520 . S
C763 C74 1.524 . S
C767 C290 1.525 . S
C781 C110 1.523 . S
C785 C326 1.524 . S
C799 C146 1.523 . S
C803 C506 1.524 . S
C817 C182 1.524 . S
C821 C542 1.523 . S
C835 C434 1.525 . S
C839 C218 1.524 . S
C853 C470 1.524 . S
C857 C254 1.525 . S
C871 C4 1.248 . S
C875 C220 1.259 . S
C889 C40 1.252 . S
C893 C256 1.259 . S
C907 C76 1.247 . S
C911 C148 1.260 . S
C925 C112 1.251 . S
C929 C184 1.260 . S
C943 C292 1.247 . S
C947 C508 1.260 . S
C961 C544 1.248 . S
C965 C328 1.262 . S
C979 C364 1.247 . S
C983 C436 1.260 . S
C997 C472 1.259 . S
C1001 C400 1.248 . S
C1015 C3 1.272 . S
C1019 C543 1.278 . S
C1033 C435 1.277 . S
C1037 C39 1.276 . S
C1051 C471 1.265 . S
C1055 C75 1.272 . S
C1069 C507 1.276 . S
C1073 C111 1.277 . S
C1087 C327 1.275 . S
C1091 C147 1.267 . S
C1105 C363 1.264 . S
C1109 C183 1.268 . S
C1123 C219 1.275 . S
C1127 C399 1.277 . S
C1141 C255 1.270 . S
C1145 C291 1.265 . S
