# Generated by pormake.
# Topology whp, (6)-cn, num edge types: 1
# Building blocks:
#     Node 0, Type 0, BuildingBlock: IZENUY_clean_sbu_0, # of connection points: 6
#     Node 1, Type 0, BuildingBlock: IZENUY_clean_sbu_0, # of connection points: 6
#     Node 2, Type 0, BuildingBlock: IZENUY_clean_sbu_0, # of connection points: 6
#     Node 3, Type 0, BuildingBlock: IZENUY_clean_sbu_0, # of connection points: 6
#     Node 4, Type 0, BuildingBlock: IZENUY_clean_sbu_0, # of connection points: 6
#     Node 5, Type 0, BuildingBlock: IZENUY_clean_sbu_0, # of connection points: 6
#     Node 6, Type 0, BuildingBlock: IZENUY_clean_sbu_0, # of connection points: 6
#     Node 7, Type 0, BuildingBlock: IZENUY_clean_sbu_0, # of connection points: 6
#     Node 8, Type 0, BuildingBlock: IZENUY_clean_sbu_0, # of connection points: 6
#     Node 9, Type 0, BuildingBlock: IZENUY_clean_sbu_0, # of connection points: 6
#     Node 10, Type 0, BuildingBlock: IZENUY_clean_sbu_0, # of connection points: 6
#     Node 11, Type 0, BuildingBlock: IZENUY_clean_sbu_0, # of connection points: 6
#     Node 12, Type 0, BuildingBlock: IZENUY_clean_sbu_0, # of connection points: 6
#     Node 13, Type 0, BuildingBlock: IZENUY_clean_sbu_0, # of connection points: 6
#     Node 14, Type 0, BuildingBlock: IZENUY_clean_sbu_0, # of connection points: 6
#     Node 15, Type 0, BuildingBlock: IZENUY_clean_sbu_0, # of connection points: 6
#     Edge 16, Type (0, 0), BuildingBlock: KIFKEQ_clean_linker_1, # of connection points: 2
#     Edge 17, Type (0, 0), BuildingBlock: KIFKEQ_clean_linker_1, # of connection points: 2
#     Edge 18, Type (0, 0), BuildingBlock: KIFKEQ_clean_linker_1, # of connection points: 2
#     Edge 19, Type (0, 0), BuildingBlock: KIFKEQ_clean_linker_1, # of connection points: 2
#     Edge 20, Type (0, 0), BuildingBlock: KIFKEQ_clean_linker_1, # of connection points: 2
#     Edge 21, Type (0, 0), BuildingBlock: KIFKEQ_clean_linker_1, # of connection points: 2
#     Edge 22, Type (0, 0), BuildingBlock: KIFKEQ_clean_linker_1, # of connection points: 2
#     Edge 23, Type (0, 0), BuildingBlock: KIFKEQ_clean_linker_1, # of connection points: 2
#     Edge 24, Type (0, 0), BuildingBlock: KIFKEQ_clean_linker_1, # of connection points: 2
#     Edge 25, Type (0, 0), BuildingBlock: KIFKEQ_clean_linker_1, # of connection points: 2
#     Edge 26, Type (0, 0), BuildingBlock: KIFKEQ_clean_linker_1, # of connection points: 2
#     Edge 27, Type (0, 0), BuildingBlock: KIFKEQ_clean_linker_1, # of connection points: 2
#     Edge 28, Type (0, 0), BuildingBlock: KIFKEQ_clean_linker_1, # of connection points: 2
#     Edge 29, Type (0, 0), BuildingBlock: KIFKEQ_clean_linker_1, # of connection points: 2
#     Edge 30, Type (0, 0), BuildingBlock: KIFKEQ_clean_linker_1, # of connection points: 2
#     Edge 31, Type (0, 0), BuildingBlock: KIFKEQ_clean_linker_1, # of connection points: 2
#     Edge 32, Type (0, 0), BuildingBlock: KIFKEQ_clean_linker_1, # of connection points: 2
#     Edge 33, Type (0, 0), BuildingBlock: KIFKEQ_clean_linker_1, # of connection points: 2
#     Edge 34, Type (0, 0), BuildingBlock: KIFKEQ_clean_linker_1, # of connection points: 2
#     Edge 35, Type (0, 0), BuildingBlock: KIFKEQ_clean_linker_1, # of connection points: 2
#     Edge 36, Type (0, 0), BuildingBlock: KIFKEQ_clean_linker_1, # of connection points: 2
#     Edge 37, Type (0, 0), BuildingBlock: KIFKEQ_clean_linker_1, # of connection points: 2
#     Edge 38, Type (0, 0), BuildingBlock: KIFKEQ_clean_linker_1, # of connection points: 2
#     Edge 39, Type (0, 0), BuildingBlock: KIFKEQ_clean_linker_1, # of connection points: 2
#     Edge 40, Type (0, 0), BuildingBlock: KIFKEQ_clean_linker_1, # of connection points: 2
#     Edge 41, Type (0, 0), BuildingBlock: KIFKEQ_clean_linker_1, # of connection points: 2
#     Edge 42, Type (0, 0), BuildingBlock: KIFKEQ_clean_linker_1, # of connection points: 2
#     Edge 43, Type (0, 0), BuildingBlock: KIFKEQ_clean_linker_1, # of connection points: 2
#     Edge 44, Type (0, 0), BuildingBlock: KIFKEQ_clean_linker_1, # of connection points: 2
#     Edge 45, Type (0, 0), BuildingBlock: KIFKEQ_clean_linker_1, # of connection points: 2
#     Edge 46, Type (0, 0), BuildingBlock: KIFKEQ_clean_linker_1, # of connection points: 2
#     Edge 47, Type (0, 0), BuildingBlock: KIFKEQ_clean_linker_1, # of connection points: 2
#     Edge 48, Type (0, 0), BuildingBlock: KIFKEQ_clean_linker_1, # of connection points: 2
#     Edge 49, Type (0, 0), BuildingBlock: KIFKEQ_clean_linker_1, # of connection points: 2
#     Edge 50, Type (0, 0), BuildingBlock: KIFKEQ_clean_linker_1, # of connection points: 2
#     Edge 51, Type (0, 0), BuildingBlock: KIFKEQ_clean_linker_1, # of connection points: 2
#     Edge 52, Type (0, 0), BuildingBlock: KIFKEQ_clean_linker_1, # of connection points: 2
#     Edge 53, Type (0, 0), BuildingBlock: KIFKEQ_clean_linker_1, # of connection points: 2
#     Edge 54, Type (0, 0), BuildingBlock: KIFKEQ_clean_linker_1, # of connection points: 2
#     Edge 55, Type (0, 0), BuildingBlock: KIFKEQ_clean_linker_1, # of connection points: 2
#     Edge 56, Type (0, 0), BuildingBlock: KIFKEQ_clean_linker_1, # of connection points: 2
#     Edge 57, Type (0, 0), BuildingBlock: KIFKEQ_clean_linker_1, # of connection points: 2
#     Edge 58, Type (0, 0), BuildingBlock: KIFKEQ_clean_linker_1, # of connection points: 2
#     Edge 59, Type (0, 0), BuildingBlock: KIFKEQ_clean_linker_1, # of connection points: 2
#     Edge 60, Type (0, 0), BuildingBlock: KIFKEQ_clean_linker_1, # of connection points: 2
#     Edge 61, Type (0, 0), BuildingBlock: KIFKEQ_clean_linker_1, # of connection points: 2
#     Edge 62, Type (0, 0), BuildingBlock: KIFKEQ_clean_linker_1, # of connection points: 2
#     Edge 63, Type (0, 0), BuildingBlock: KIFKEQ_clean_linker_1, # of connection points: 2
# Relax obj value: 0.322
# Max RMSD: 0.246
# Mean RMSD: 0.246
data_MOF--net-whp--node1-IZENUY_clean_sbu_0--edge1-KIFKEQ_clean_linker_1
_symmetry_space_group_name_H-M    P1
_symmetry_Int_Tables_number       1
_symmetry_cell_setting            triclinic
loop_
_symmetry_equiv_pos_as_xyz
'x, y, z'
_cell_length_a     48.264919
_cell_length_b     48.249203
_cell_length_c     29.180675
_cell_angle_alpha  90.013803
_cell_angle_beta   90.065677
_cell_angle_gamma 90.020842
loop_
_atom_site_label
_atom_site_type_symbol
_atom_site_fract_x
_atom_site_fract_y
_atom_site_fract_z
_atom_type_partial_charge
Fe0 Fe 0.34728 0.53353 0.30336 0.0
Fe1 Fe 0.31279 0.56812 0.37022 0.0
O2 O 0.31601 0.53879 0.33427 0.0
Fe3 Fe 0.28791 0.51517 0.33028 0.0
O4 O 0.28568 0.51965 0.26939 0.0
O5 O 0.33006 0.51891 0.25179 0.0
O6 O 0.34517 0.56717 0.27541 0.0
C7 C 0.34503 0.58968 0.29725 0.0
C8 C 0.33556 0.4801 0.33068 0.0
O9 O 0.33697 0.59017 0.33838 0.0
C10 C 0.28319 0.52777 0.42057 0.0
O11 O 0.36958 0.54718 0.35013 0.0
O12 O 0.34025 0.55533 0.40664 0.0
O13 O 0.3098 0.48378 0.3244 0.0
O14 O 0.35249 0.49984 0.32863 0.0
C15 C 0.2628 0.56887 0.32725 0.0
O16 O 0.28788 0.55267 0.41 0.0
O17 O 0.28765 0.50879 0.39188 0.0
C18 C 0.36447 0.55016 0.39267 0.0
O19 O 0.28514 0.58175 0.335 0.0
O20 O 0.26112 0.5428 0.3342 0.0
C21 C 0.30468 0.51806 0.24005 0.0
Fe22 Fe 1.00125 0.28779 0.82174 0.0
Fe23 Fe 0.98159 0.34715 0.79729 0.0
O24 O 0.97712 0.3154 0.82709 0.0
Fe25 Fe 0.94809 0.3113 0.86343 0.0
O26 O 0.93471 0.28383 0.82761 0.0
O27 O 0.97407 0.2605 0.82484 0.0
O28 O 0.99691 0.28636 0.7605 0.0
C29 C 0.99837 0.30613 0.73246 0.0
C30 C 0.98912 0.28179 0.91217 0.0
O31 O 0.9965 0.33115 0.74549 0.0
C32 C 0.96486 0.36309 0.88682 0.0
O33 O 0.03213 0.31038 0.81673 0.0
O34 O 0.01532 0.35275 0.82259 0.0
O35 O 0.96411 0.28617 0.90213 0.0
O36 O 1.00784 0.28675 0.88331 0.0
C37 C 0.92548 0.34434 0.792 0.0
O38 O 0.96757 0.36843 0.84442 0.0
O39 O 0.96062 0.33864 0.90061 0.0
C40 C 0.03537 0.33611 0.82397 0.0
O41 O 0.94777 0.34461 0.76949 0.0
O42 O 0.92546 0.33555 0.83275 0.0
C43 C 0.94788 0.26178 0.81897 0.0
Fe44 Fe 0.22799 1.00286 0.32727 0.0
Fe45 Fe 0.16967 0.98107 0.30056 0.0
O46 O 0.20124 0.97767 0.33108 0.0
Fe47 Fe 0.20596 0.94834 0.36661 0.0
O48 O 0.23351 0.93617 0.33029 0.0
O49 O 0.25601 0.9762 0.32878 0.0
O50 O 0.22983 0.99998 0.26579 0.0
C51 C 0.21038 1.00022 0.23705 0.0
C52 C 0.23462 0.98912 0.41709 0.0
O53 O 0.18538 0.99683 0.24923 0.0
C54 C 0.15397 0.96386 0.39005 0.0
O55 O 0.20416 0.03312 0.32403 0.0
O56 O 0.16259 0.01414 0.32616 0.0
O57 O 0.2309 0.96424 0.4057 0.0
O58 O 0.22887 1.00823 0.3893 0.0
C59 C 0.17407 0.92541 0.29442 0.0
O60 O 0.14859 0.96611 0.34748 0.0
O61 O 0.17847 0.96003 0.40395 0.0
C62 C 0.17811 0.03495 0.32993 0.0
O63 O 0.17389 0.94773 0.27221 0.0
O64 O 0.18206 0.92541 0.33559 0.0
C65 C 0.25518 0.95001 0.32181 0.0
Fe66 Fe 0.51404 0.22949 0.82547 0.0
Fe67 Fe 0.53278 0.17009 0.7993 0.0
O68 O 0.53816 0.2017 0.82919 0.0
Fe69 Fe 0.56806 0.20552 0.86365 0.0
O70 O 0.58056 0.2333 0.82767 0.0
O71 O 0.54125 0.25669 0.82814 0.0
O72 O 0.5175 0.23123 0.76418 0.0
C73 C 0.51527 0.21161 0.73601 0.0
C74 C 0.52783 0.23384 0.91577 0.0
O75 O 0.51662 0.18649 0.74876 0.0
C76 C 0.55189 0.15352 0.88716 0.0
O77 O 0.48298 0.20696 0.8212 0.0
O78 O 0.49984 0.16464 0.82708 0.0
O79 O 0.55271 0.2299 0.90426 0.0
O80 O 0.50856 0.23025 0.88722 0.0
C81 C 0.58867 0.17354 0.78954 0.0
O82 O 0.54807 0.1484 0.84493 0.0
O83 O 0.55666 0.17785 0.90094 0.0
C84 C 0.47983 0.18128 0.82907 0.0
O85 O 0.56568 0.1726 0.76912 0.0
O86 O 0.58993 0.18184 0.83053 0.0
C87 C 0.56717 0.2553 0.82002 0.0
Fe88 Fe 0.81194 0.44934 0.14181 0.0
Fe89 Fe 0.78816 0.50261 0.18247 0.0
O90 O 0.81568 0.4784 0.17819 0.0
Fe91 Fe 0.84697 0.48293 0.2093 0.0
O92 O 0.8438 0.44943 0.23739 0.0
O93 O 0.83528 0.42657 0.17424 0.0
O94 O 0.78382 0.43628 0.17628 0.0
C95 C 0.76178 0.44957 0.18402 0.0
C96 C 0.86422 0.46561 0.12079 0.0
O97 O 0.76067 0.4757 0.17745 0.0
C98 C 0.8365 0.53651 0.18209 0.0
O99 O 0.78771 0.46577 0.10178 0.0
O100 O 0.78843 0.50953 0.12113 0.0
O101 O 0.86893 0.46843 0.16339 0.0
O102 O 0.83999 0.46147 0.10597 0.0
C103 C 0.80491 0.49922 0.2723 0.0
O104 O 0.81079 0.53338 0.18938 0.0
O105 O 0.853 0.51637 0.18351 0.0
C106 C 0.78438 0.49094 0.09165 0.0
O107 O 0.78571 0.49764 0.24323 0.0
O108 O 0.83018 0.4982 0.26035 0.0
C109 C 0.84316 0.42691 0.21556 0.0
Fe110 Fe 0.0693 0.81223 0.64983 0.0
Fe111 Fe 0.01427 0.79012 0.68647 0.0
O112 O 0.03979 0.81662 0.68491 0.0
Fe113 Fe 0.03636 0.84759 0.71727 0.0
O114 O 0.06936 0.84263 0.74629 0.0
O115 O 0.09234 0.83464 0.68335 0.0
O116 O 0.08071 0.7835 0.68436 0.0
C117 C 0.0665 0.76187 0.69108 0.0
C118 C 0.0548 0.8651 0.62947 0.0
O119 O 0.0404 0.76167 0.68342 0.0
C120 C 0.98275 0.84032 0.68606 0.0
O121 O 0.05318 0.78871 0.6086 0.0
O122 O 0.00914 0.79087 0.62455 0.0
O123 O 0.05211 0.86955 0.67223 0.0
O124 O 0.05852 0.84089 0.61418 0.0
C125 C 0.01661 0.80542 0.77762 0.0
O126 O 0.98428 0.81418 0.69095 0.0
O127 O 1.00367 0.85554 0.691 0.0
C128 C 0.02829 0.78548 0.59674 0.0
O129 O 0.01712 0.78682 0.74749 0.0
O130 O 0.01983 0.83078 0.76725 0.0
C131 C 0.092 0.84183 0.72494 0.0
Fe132 Fe 0.70524 0.06931 0.14887 0.0
Fe133 Fe 0.72829 0.01525 0.18819 0.0
O134 O 0.70085 0.03964 0.18366 0.0
Fe135 Fe 0.66895 0.03462 0.21274 0.0
O136 O 0.67146 0.06767 0.24265 0.0
O137 O 0.68144 0.09161 0.18124 0.0
O138 O 0.73292 0.0817 0.18514 0.0
C139 C 0.75491 0.06825 0.19271 0.0
C140 C 0.65328 0.05345 0.1243 0.0
O141 O 0.75588 0.04215 0.1858 0.0
C142 C 0.67989 0.98141 0.18381 0.0
O143 O 0.72999 0.05355 0.10916 0.0
O144 O 0.72916 0.00949 0.12641 0.0
O145 O 0.6478 0.0499 0.16645 0.0
O146 O 0.67776 0.05793 0.11104 0.0
C147 C 0.70981 0.01686 0.27719 0.0
O148 O 0.70549 0.98441 0.19242 0.0
O149 O 0.66342 1.00159 0.18506 0.0
C150 C 0.73408 0.0286 0.09815 0.0
O151 O 0.72969 0.01895 0.2495 0.0
O152 O 0.68482 0.01849 0.2638 0.0
C153 C 0.67259 0.09058 0.22197 0.0
Fe154 Fe 0.50322 0.72378 0.68765 0.0
Fe155 Fe 0.48304 0.66553 0.71361 0.0
O156 O 0.47782 0.69718 0.68376 0.0
Fe157 Fe 0.44728 0.70189 0.65072 0.0
O158 O 0.44382 0.73895 0.66302 0.0
O159 O 0.4781 0.74856 0.71029 0.0
O160 O 0.51227 0.71607 0.74777 0.0
C161 C 0.49849 0.70355 0.77852 0.0
C162 C 0.48547 0.72686 0.5944 0.0
O163 O 0.48265 0.6836 0.76818 0.0
C164 C 0.46347 0.6464 0.63177 0.0
O165 O 0.53047 0.70096 0.66516 0.0
O166 O 0.52084 0.66659 0.71147 0.0
O167 O 0.46677 0.70883 0.59901 0.0
O168 O 0.4983 0.73651 0.62879 0.0
C169 C 0.42499 0.67292 0.72209 0.0
O170 O 0.48332 0.64577 0.66016 0.0
O171 O 0.44562 0.66565 0.63254 0.0
C172 C 0.53714 0.67828 0.68381 0.0
O173 O 0.44635 0.65787 0.72229 0.0
O174 O 0.42467 0.69524 0.69956 0.0
C175 C 0.45488 0.75451 0.69277 0.0
Fe176 Fe 0.72729 0.50219 0.68573 0.0
Fe177 Fe 0.66736 0.48515 0.70732 0.0
O178 O 0.69955 0.47814 0.68019 0.0
Fe179 Fe 0.70358 0.4473 0.64805 0.0
O180 O 0.73998 0.44195 0.66365 0.0
O181 O 0.75014 0.47615 0.71085 0.0
O182 O 0.71796 0.51216 0.74467 0.0
C183 C 0.70435 0.49877 0.77458 0.0
C184 C 0.73191 0.484 0.59334 0.0
O185 O 0.68399 0.48374 0.76318 0.0
C186 C 0.65065 0.46746 0.62281 0.0
O187 O 0.70651 0.53015 0.66061 0.0
O188 O 0.67058 0.5229 0.70483 0.0
O189 O 0.71291 0.46628 0.59708 0.0
O190 O 0.74169 0.49614 0.62824 0.0
C191 C 0.67105 0.42676 0.71635 0.0
O192 O 0.64937 0.48656 0.65245 0.0
O193 O 0.66803 0.44787 0.62614 0.0
C194 C 0.68339 0.53779 0.67636 0.0
O195 O 0.65727 0.44895 0.71497 0.0
O196 O 0.69424 0.42529 0.69659 0.0
C197 C 0.75553 0.45264 0.69383 0.0
Fe198 Fe 0.0153 0.72773 0.18925 0.0
Fe199 Fe 0.0375 0.66952 0.21542 0.0
O200 O 0.04106 0.7014 0.1856 0.0
Fe201 Fe 0.07068 0.70677 0.15091 0.0
O202 O 0.08176 0.73537 0.18612 0.0
O203 O 0.04101 0.75638 0.18743 0.0
O204 O 0.01832 0.72957 0.25055 0.0
C205 C 0.01739 0.7099 0.27877 0.0
C206 C 0.02895 0.73288 0.09888 0.0
O207 O 0.0207 0.68494 0.26618 0.0
C208 C 0.05654 0.6541 0.12708 0.0
O209 O 0.98547 0.70343 0.19265 0.0
O210 O 1.00497 0.66228 0.18796 0.0
O211 O 0.054 0.7302 0.11027 0.0
O212 O 0.00994 0.72841 0.12746 0.0
C213 C 0.09314 0.6756 0.22489 0.0
O214 O 0.05345 0.64857 0.16936 0.0
O215 O 0.06055 0.67865 0.11388 0.0
C216 C 0.98393 0.67752 0.18512 0.0
O217 O 0.07026 0.67378 0.24534 0.0
O218 O 0.09396 0.68423 0.18402 0.0
C219 C 0.06719 0.75663 0.19365 0.0
Fe220 Fe 0.78665 0.01508 0.68818 0.0
Fe221 Fe 0.84578 0.03517 0.71257 0.0
O222 O 0.81383 0.03975 0.68342 0.0
Fe223 Fe 0.80913 0.06928 0.64846 0.0
O224 O 0.78139 0.08141 0.68457 0.0
O225 O 0.75875 0.04167 0.68555 0.0
O226 O 0.78527 0.01898 0.74946 0.0
C227 C 0.80519 0.01715 0.77717 0.0
C228 C 0.78066 0.02811 0.59807 0.0
O229 O 0.83015 0.01886 0.7637 0.0
C230 C 0.86127 0.05427 0.62412 0.0
O231 O 0.80982 0.98454 0.69267 0.0
O232 O 0.85165 1.00223 0.6849 0.0
O233 O 0.78455 0.05313 0.60884 0.0
O234 O 0.78576 0.00913 0.62648 0.0
C235 C 0.8413 0.09103 0.72171 0.0
O236 O 0.86677 0.05075 0.66631 0.0
O237 O 0.83672 0.05819 0.61074 0.0
C238 C 0.83542 0.98184 0.68383 0.0
O239 O 0.84278 0.06815 0.7424 0.0
O240 O 0.83265 0.09191 0.68084 0.0
C241 C 0.75953 0.0678 0.69226 0.0
Fe242 Fe 0.48042 0.847 0.21446 0.0
Fe243 Fe 0.44663 0.8098 0.15095 0.0
O244 O 0.47661 0.81513 0.18478 0.0
Fe245 Fe 0.50214 0.78854 0.18754 0.0
O246 O 0.50027 0.78683 0.24913 0.0
O247 O 0.49624 0.83134 0.26578 0.0
O248 O 0.44745 0.84353 0.24389 0.0
C249 C 0.42468 0.84231 0.22311 0.0
C250 C 0.53407 0.83846 0.1838 0.0
O251 O 0.42392 0.83347 0.1825 0.0
C252 C 0.48684 0.78231 0.09809 0.0
O253 O 0.46528 0.86773 0.16728 0.0
O254 O 0.45712 0.83711 0.1126 0.0
O255 O 0.53235 0.81242 0.18959 0.0
O256 O 0.51328 0.85388 0.1881 0.0
C257 C 0.44979 0.76072 0.19588 0.0
O258 O 0.46219 0.78502 0.1114 0.0
O259 O 0.50644 0.78777 0.12519 0.0
C260 C 0.46187 0.86173 0.12513 0.0
O261 O 0.43557 0.78226 0.18834 0.0
O262 O 0.47578 0.76021 0.18722 0.0
C263 C 0.49999 0.80634 0.27779 0.0
Fe264 Fe 0.16717 0.53476 0.80303 0.0
Fe265 Fe 0.20434 0.5698 0.86481 0.0
O266 O 0.19944 0.53973 0.83107 0.0
Fe267 Fe 0.22678 0.51514 0.82659 0.0
O268 O 0.22727 0.5176 0.76516 0.0
O269 O 0.18231 0.51859 0.7514 0.0
O270 O 0.16931 0.56761 0.77272 0.0
C271 C 0.17059 0.59058 0.79302 0.0
C272 C 0.17797 0.48161 0.833 0.0
O273 O 0.17982 0.59178 0.83346 0.0
C274 C 0.23344 0.52994 0.91624 0.0
O275 O 0.1467 0.54989 0.85051 0.0
O276 O 0.17781 0.55859 0.904 0.0
O277 O 0.20373 0.4842 0.82489 0.0
O278 O 0.16185 0.50199 0.83081 0.0
C279 C 0.25292 0.56833 0.81818 0.0
O280 O 0.22981 0.55468 0.90383 0.0
O281 O 0.22887 0.5104 0.8886 0.0
C282 C 0.15313 0.55349 0.89241 0.0
O283 O 0.23113 0.58183 0.82684 0.0
O284 O 0.25427 0.5423 0.82625 0.0
C285 C 0.20716 0.51595 0.73783 0.0
Fe286 Fe 0.94785 0.20722 0.36021 0.0
Fe287 Fe 1.00212 0.22961 0.32086 0.0
O288 O 0.97757 0.20233 0.32581 0.0
Fe289 Fe 0.98243 0.17016 0.29748 0.0
O290 O 0.9495 0.17265 0.26725 0.0
O291 O 0.92552 0.18325 0.32829 0.0
O292 O 0.93575 0.23453 0.32306 0.0
C293 C 0.94932 0.25636 0.31491 0.0
C294 C 0.96309 0.15538 0.38617 0.0
O295 O 0.97536 0.25738 0.32238 0.0
C296 C 0.03563 0.18107 0.32654 0.0
O297 O 0.96363 0.23229 0.39937 0.0
O298 O 1.00772 0.23096 0.38265 0.0
O299 O 0.96686 0.1495 0.34419 0.0
O300 O 0.95893 0.18004 0.39884 0.0
C301 C 1.00062 0.21039 0.23225 0.0
O302 O 0.03279 0.20661 0.31736 0.0
O303 O 0.01536 0.16468 0.32553 0.0
C304 C 0.98856 0.23619 0.41061 0.0
O305 O 0.99858 0.2305 0.25952 0.0
O306 O 0.99878 0.1855 0.24614 0.0
C307 C 0.92656 0.17423 0.28768 0.0
Fe308 Fe 0.34941 0.97865 0.80152 0.0
Fe309 Fe 0.31247 0.94548 0.8662 0.0
O310 O 0.31753 0.97493 0.83103 0.0
Fe311 Fe 0.29075 1.00008 0.82683 0.0
O312 O 0.28924 0.99718 0.76539 0.0
O313 O 0.33385 0.99415 0.74967 0.0
O314 O 0.34606 0.94518 0.77312 0.0
C315 C 0.34549 0.92274 0.79507 0.0
C316 C 0.3403 0.03257 0.83022 0.0
O317 O 0.33659 0.92257 0.83571 0.0
C318 C 0.28398 0.98635 0.91659 0.0
O319 O 0.37015 0.96412 0.84926 0.0
O320 O 0.33956 0.95701 0.90425 0.0
O321 O 0.31434 0.03048 0.82374 0.0
O322 O 0.35596 0.01186 0.82715 0.0
C323 C 0.26347 0.94728 0.82088 0.0
O324 O 0.28731 0.96143 0.90497 0.0
O325 O 0.28978 1.00543 0.8888 0.0
C326 C 0.36419 0.96148 0.89156 0.0
O327 O 0.28515 0.93342 0.82915 0.0
O328 O 0.26273 0.97343 0.82807 0.0
C329 C 0.3089 0.99768 0.73709 0.0
Fe330 Fe 0.51609 0.29048 0.32769 0.0
Fe331 Fe 0.53698 0.34861 0.29884 0.0
O332 O 0.54125 0.3173 0.32994 0.0
Fe333 Fe 0.5711 0.3128 0.36434 0.0
O334 O 0.58248 0.28433 0.32901 0.0
O335 O 0.54243 0.26221 0.33059 0.0
O336 O 0.51916 0.28768 0.26668 0.0
C337 C 0.51787 0.30665 0.23722 0.0
C338 C 0.53022 0.2858 0.41736 0.0
O339 O 0.52035 0.33198 0.24852 0.0
C340 C 0.55634 0.36547 0.38681 0.0
O341 O 0.48572 0.31408 0.32318 0.0
O342 O 0.50437 0.35567 0.32608 0.0
O343 O 0.55515 0.28898 0.40547 0.0
O344 O 0.511 0.29099 0.38948 0.0
C345 C 0.59267 0.34358 0.2895 0.0
O346 O 0.5527 0.3704 0.34433 0.0
O347 O 0.5606 0.34109 0.40092 0.0
C348 C 0.48365 0.34005 0.32959 0.0
O349 O 0.56975 0.34456 0.26899 0.0
O350 O 0.59372 0.33565 0.33072 0.0
C351 C 0.56845 0.26256 0.32252 0.0
H352 H 0.36705 0.5289 0.47833 0.0
H353 H 0.41248 0.57935 0.38236 0.0
H354 H 0.39861 0.54272 0.5395 0.0
H355 H 0.44319 0.59468 0.44397 0.0
H356 H 0.49431 0.62283 0.56298 0.0
H357 H 0.47682 0.59033 0.50469 0.0
H358 H 0.39905 0.58531 0.57784 0.0
H359 H 0.41674 0.61679 0.63533 0.0
C360 C 0.38421 0.54254 0.47027 0.0
C361 C 0.38724 0.55332 0.42594 0.0
C362 C 0.40219 0.55065 0.5053 0.0
C363 C 0.42303 0.57046 0.49709 0.0
C364 C 0.42751 0.57933 0.45168 0.0
C365 C 0.40986 0.57065 0.41631 0.0
C366 C 0.47392 0.61379 0.56711 0.0
C367 C 0.45682 0.62209 0.60344 0.0
C368 C 0.46375 0.59548 0.5336 0.0
C369 C 0.43642 0.58521 0.53625 0.0
C370 C 0.4203 0.59222 0.5747 0.0
C371 C 0.43036 0.61045 0.60771 0.0
H372 H 0.90456 0.42792 0.13446 0.0
H373 H 0.87453 0.48802 0.03715 0.0
H374 H 0.93521 0.40876 0.07705 0.0
H375 H 0.90725 0.47088 0.98017 0.0
H376 H 0.92738 0.40368 0.8743 0.0
H377 H 0.90905 0.43467 0.93193 0.0
H378 H 0.97102 0.40554 0.0282 0.0
H379 H 0.98733 0.3725 0.97092 0.0
C380 C 0.90553 0.43778 0.10111 0.0
C381 C 0.88721 0.4592 0.08983 0.0
C382 C 0.92328 0.42692 0.06798 0.0
C383 C 0.9236 0.4378 0.02311 0.0
C384 C 0.90699 0.46115 0.01357 0.0
C385 C 0.88849 0.47132 0.0463 0.0
C386 C 0.93736 0.40442 0.90759 0.0
C387 C 0.95854 0.38574 0.91857 0.0
C388 C 0.927 0.42239 0.94083 0.0
C389 C 0.93816 0.42261 0.98554 0.0
C390 C 0.96114 0.40544 0.9949 0.0
C391 C 0.9708 0.38673 0.96203 0.0
H392 H 0.03026 0.87656 0.54803 0.0
H393 H 0.09399 0.9044 0.64074 0.0
H394 H 0.04668 0.90897 0.48994 0.0
H395 H 0.11228 0.93485 0.58207 0.0
H396 H 0.14644 0.98677 0.47405 0.0
H397 H 0.11449 0.97108 0.53332 0.0
H398 H 0.08179 0.90982 0.43898 0.0
H399 H 0.11189 0.9275 0.3794 0.0
C400 C 0.0476 0.89002 0.55597 0.0
C401 C 0.06094 0.88818 0.59849 0.0
C402 C 0.05732 0.90833 0.52258 0.0
C403 C 0.08137 0.92426 0.53041 0.0
C404 C 0.09356 0.92344 0.57438 0.0
C405 C 0.0832 0.90582 0.60822 0.0
C406 C 0.13167 0.97057 0.46598 0.0
C407 C 0.13149 0.95824 0.42252 0.0
C408 C 0.11358 0.96125 0.50001 0.0
C409 C 0.0958 0.93859 0.49178 0.0
C410 C 0.09468 0.92751 0.44705 0.0
C411 C 0.1121 0.9375 0.41267 0.0
H412 H 0.5292 0.14347 0.97061 0.0
H413 H 0.59013 0.11356 0.87484 0.0
H414 H 0.54621 0.11111 0.02835 0.0
H415 H 0.60917 0.08325 0.93302 0.0
H416 H 0.64454 0.03111 0.04008 0.0
H417 H 0.61206 0.04746 0.98199 0.0
H418 H 0.58192 0.10923 0.07764 0.0
H419 H 0.61241 0.09081 0.1361 0.0
C420 C 0.54607 0.12961 0.96197 0.0
C421 C 0.55842 0.13079 0.91864 0.0
C422 C 0.55617 0.11132 0.99515 0.0
C423 C 0.57967 0.0948 0.98625 0.0
C424 C 0.59087 0.09509 0.9416 0.0
C425 C 0.58009 0.11264 0.90803 0.0
C426 C 0.63022 0.0476 0.04866 0.0
C427 C 0.6308 0.05979 0.09219 0.0
C428 C 0.61183 0.0573 0.0153 0.0
C429 C 0.59456 0.08026 0.02424 0.0
C430 C 0.59433 0.09132 0.06901 0.0
C431 C 0.612 0.08092 0.10275 0.0
H432 H 0.57247 0.41879 0.36819 0.0
H433 H 0.55052 0.36397 0.47936 0.0
H434 H 0.58845 0.45336 0.4237 0.0
H435 H 0.56642 0.3983 0.5345 0.0
H436 H 0.59445 0.46282 0.63002 0.0
H437 H 0.56331 0.44565 0.56966 0.0
H438 H 0.63081 0.44891 0.47266 0.0
H439 H 0.66154 0.4657 0.53277 0.0
C440 C 0.57035 0.41444 0.40443 0.0
C441 C 0.56073 0.3885 0.41947 0.0
C442 C 0.57953 0.43419 0.43617 0.0
C443 C 0.57886 0.42848 0.48344 0.0
C444 C 0.56699 0.40348 0.49839 0.0
C445 C 0.55815 0.38366 0.46676 0.0
C446 C 0.60214 0.46092 0.59529 0.0
C447 C 0.63022 0.46553 0.58569 0.0
C448 C 0.58447 0.45093 0.56089 0.0
C449 C 0.59467 0.44576 0.51649 0.0
C450 C 0.62219 0.45294 0.50626 0.0
C451 C 0.63985 0.46246 0.54067 0.0
H452 H 0.15937 0.55072 0.98473 0.0
H453 H 0.09794 0.56469 0.87941 0.0
H454 H 0.12724 0.56718 0.04239 0.0
H455 H 0.06531 0.58077 0.93769 0.0
H456 H 0.05257 0.65819 0.03459 0.0
H457 H 0.06812 0.62479 0.97821 0.0
H458 H 0.08428 0.56552 0.08601 0.0
H459 H 0.06906 0.59945 0.14298 0.0
C460 C 0.13868 0.55663 0.97407 0.0
C461 C 0.1314 0.55715 0.92744 0.0
C462 C 0.1201 0.56577 0.00727 0.0
C463 C 0.09383 0.57568 0.99455 0.0
C464 C 0.08558 0.57364 0.94839 0.0
C465 C 0.10422 0.56436 0.91506 0.0
C466 C 0.0589 0.63784 0.04627 0.0
C467 C 0.06031 0.63167 0.09326 0.0
C468 C 0.0675 0.61851 0.01383 0.0
C469 C 0.07777 0.59258 0.02766 0.0
C470 C 0.07681 0.58549 0.07442 0.0
C471 C 0.06805 0.60487 0.107 0.0
H472 H 0.98424 0.14714 0.47142 0.0
H473 H 0.92521 0.1149 0.37421 0.0
H474 H 0.96682 0.11537 0.52966 0.0
H475 H 0.90574 0.08514 0.43273 0.0
H476 H 0.87102 0.03224 0.53997 0.0
H477 H 0.90312 0.04965 0.48223 0.0
H478 H 0.9308 0.11257 0.57799 0.0
H479 H 0.90075 0.09316 0.63615 0.0
C480 C 0.96766 0.13295 0.46261 0.0
C481 C 0.95604 0.13326 0.41863 0.0
C482 C 0.95732 0.11498 0.49607 0.0
C483 C 0.93428 0.09786 0.48677 0.0
C484 C 0.92369 0.09743 0.44167 0.0
C485 C 0.93473 0.11467 0.40787 0.0
C486 C 0.88474 0.04924 0.54867 0.0
C487 C 0.88363 0.06139 0.5922 0.0
C488 C 0.90288 0.05957 0.51548 0.0
C489 C 0.91938 0.0831 0.52456 0.0
C490 C 0.91902 0.09424 0.56927 0.0
C491 C 0.90161 0.08325 0.60284 0.0
H492 H 0.35946 0.96549 0.98403 0.0
H493 H 0.41898 0.94942 0.87677 0.0
H494 H 0.39229 0.94923 0.04089 0.0
H495 H 0.4523 0.93354 0.93417 0.0
H496 H 0.46471 0.85667 0.03261 0.0
H497 H 0.44922 0.88992 0.9759 0.0
H498 H 0.43604 0.9506 0.08266 0.0
H499 H 0.45117 0.91685 0.13996 0.0
C500 C 0.37988 0.95916 0.97274 0.0
C501 C 0.38639 0.95798 0.92588 0.0
C502 C 0.39887 0.95015 1.00545 0.0
C503 C 0.42478 0.9397 0.99198 0.0
C504 C 0.43231 0.94111 0.94546 0.0
C505 C 0.41327 0.95026 0.91263 0.0
C506 C 0.45906 0.87729 0.04396 0.0
C507 C 0.45841 0.88392 0.09082 0.0
C508 C 0.45051 0.89653 0.01132 0.0
C509 C 0.44105 0.92282 0.02484 0.0
C510 C 0.44286 0.93034 0.07134 0.0
C511 C 0.45157 0.91106 0.1041 0.0
H512 H 0.34157 0.43893 0.2674 0.0
H513 H 0.35804 0.45966 0.40838 0.0
H514 H 0.37321 0.39933 0.2731 0.0
H515 H 0.38865 0.4196 0.41511 0.0
H516 H 0.47519 0.38577 0.38075 0.0
H517 H 0.43397 0.41403 0.38591 0.0
H518 H 0.3891 0.35456 0.30356 0.0
H519 H 0.43131 0.32609 0.29784 0.0
C520 C 0.35101 0.4342 0.30018 0.0
C521 C 0.34727 0.45213 0.33757 0.0
C522 C 0.3692 0.41153 0.30352 0.0
C523 C 0.38397 0.40643 0.34437 0.0
C524 C 0.37819 0.42317 0.38279 0.0
C525 C 0.36037 0.44594 0.37922 0.0
C526 C 0.45643 0.37837 0.36437 0.0
C527 C 0.4566 0.35372 0.33872 0.0
C528 C 0.43257 0.39455 0.36763 0.0
C529 C 0.40797 0.38671 0.34522 0.0
C530 C 0.4077 0.36136 0.32104 0.0
C531 C 0.43177 0.34489 0.31811 0.0
H532 H 0.05692 0.35534 0.90344 0.0
H533 H 0.07536 0.34542 0.76003 0.0
H534 H 0.09784 0.38461 0.91274 0.0
H535 H 0.1157 0.37585 0.76832 0.0
H536 H 0.19014 0.43062 0.79453 0.0
H537 H 0.16084 0.38891 0.79736 0.0
H538 H 0.10574 0.43067 0.89144 0.0
H539 H 0.13499 0.47132 0.88926 0.0
C540 C 0.07023 0.35893 0.87415 0.0
C541 C 0.06323 0.348 0.83117 0.0
C542 C 0.09352 0.37598 0.87923 0.0
C543 C 0.10996 0.38317 0.84111 0.0
C544 C 0.10382 0.37068 0.79859 0.0
C545 C 0.08068 0.35325 0.79371 0.0
C546 C 0.17225 0.43037 0.81691 0.0
C547 C 0.16485 0.45425 0.84164 0.0
C548 C 0.15523 0.40663 0.81812 0.0
C549 C 0.13069 0.40628 0.84445 0.0
C550 C 0.12452 0.42971 0.87127 0.0
C551 C 0.1413 0.45324 0.86984 0.0
H552 H 0.13226 0.04255 0.38078 0.0
H553 H 0.19142 0.08766 0.29891 0.0
H554 H 0.10298 0.08296 0.38504 0.0
H555 H 0.16205 0.12926 0.30423 0.0
H556 H 0.07838 0.17617 0.26595 0.0
H557 H 0.11833 0.14514 0.27324 0.0
H558 H 0.09466 0.12729 0.41301 0.0
H559 H 0.05409 0.15695 0.40432 0.0
C560 C 0.13935 0.06146 0.36453 0.0
C561 C 0.16412 0.06179 0.33926 0.0
C562 C 0.12257 0.0849 0.36732 0.0
C563 C 0.12995 0.10966 0.34502 0.0
C564 C 0.15552 0.11051 0.32152 0.0
C565 C 0.17254 0.08681 0.31887 0.0
C566 C 0.08232 0.16618 0.29856 0.0
C567 C 0.06328 0.16889 0.33462 0.0
C568 C 0.10523 0.14838 0.30285 0.0
C569 C 0.10958 0.13313 0.34346 0.0
C570 C 0.09167 0.13798 0.38076 0.0
C571 C 0.06857 0.15525 0.3761 0.0
H572 H 0.32591 0.08501 0.79938 0.0
H573 H 0.38637 0.04105 0.88056 0.0
H574 H 0.35429 0.12731 0.80507 0.0
H575 H 0.41459 0.08226 0.88542 0.0
H576 H 0.43761 0.17576 0.76755 0.0
H577 H 0.3982 0.14394 0.77406 0.0
H578 H 0.42094 0.1271 0.91464 0.0
H579 H 0.4609 0.15773 0.9069 0.0
C580 C 0.34488 0.08454 0.81924 0.0
C581 C 0.35394 0.05966 0.83935 0.0
C582 C 0.3613 0.10866 0.82213 0.0
C583 C 0.38687 0.10838 0.84571 0.0
C584 C 0.39494 0.08371 0.86764 0.0
C585 C 0.37878 0.05983 0.86452 0.0
C586 C 0.4335 0.16591 0.80021 0.0
C587 C 0.45211 0.16922 0.83682 0.0
C588 C 0.41093 0.14763 0.80403 0.0
C589 C 0.40656 0.13242 0.84464 0.0
C590 C 0.42395 0.13784 0.88245 0.0
C591 C 0.44668 0.15567 0.87833 0.0
H592 H 0.97649 0.63115 0.13509 0.0
H593 H 0.93113 0.6913 0.21469 0.0
H594 H 0.93564 0.60248 0.1293 0.0
H595 H 0.88921 0.66245 0.20803 0.0
H596 H 0.84133 0.5785 0.24427 0.0
H597 H 0.87287 0.61821 0.23881 0.0
H598 H 0.89109 0.59604 0.09852 0.0
H599 H 0.86074 0.55579 0.10521 0.0
C600 C 0.95749 0.63856 0.15061 0.0
C601 C 0.95715 0.66345 0.17561 0.0
C602 C 0.93383 0.62215 0.14693 0.0
C603 C 0.90888 0.63003 0.16809 0.0
C604 C 0.9081 0.65561 0.19154 0.0
C605 C 0.93199 0.67229 0.19501 0.0
C606 C 0.85145 0.58278 0.21192 0.0
C607 C 0.84864 0.56425 0.1751 0.0
C608 C 0.86954 0.60552 0.20869 0.0
C609 C 0.88504 0.61014 0.16847 0.0
C610 C 0.88012 0.59282 0.13042 0.0
C611 C 0.86248 0.56992 0.13396 0.0
H612 H 0.97622 0.88766 0.63845 0.0
H613 H 0.92937 0.82618 0.71273 0.0
H614 H 0.93567 0.91664 0.63259 0.0
H615 H 0.88769 0.85535 0.70584 0.0
H616 H 0.83879 0.93839 0.74361 0.0
H617 H 0.87044 0.89879 0.73771 0.0
H618 H 0.892 0.92415 0.60023 0.0
H619 H 0.86166 0.9643 0.60756 0.0
C620 C 0.95696 0.88004 0.65277 0.0
C621 C 0.95612 0.85466 0.67633 0.0
C622 C 0.93346 0.89665 0.64902 0.0
C623 C 0.90813 0.88848 0.6686 0.0
C624 C 0.90686 0.86243 0.69059 0.0
C625 C 0.93063 0.84557 0.69417 0.0
C626 C 0.84972 0.93487 0.71172 0.0
C627 C 0.84786 0.95429 0.676 0.0
C628 C 0.86788 0.91218 0.70825 0.0
C629 C 0.88433 0.90846 0.66881 0.0
C630 C 0.88033 0.92667 0.63163 0.0
C631 C 0.86269 0.94953 0.6355 0.0
H632 H 0.54108 0.88449 0.13302 0.0
H633 H 0.5871 0.82523 0.21344 0.0
H634 H 0.58139 0.91388 0.12785 0.0
H635 H 0.62857 0.85473 0.20724 0.0
H636 H 0.67568 0.9386 0.24456 0.0
H637 H 0.64465 0.89856 0.23802 0.0
H638 H 0.62548 0.92221 0.09866 0.0
H639 H 0.65517 0.96285 0.1066 0.0
C640 C 0.56016 0.8774 0.14874 0.0
C641 C 0.56079 0.85256 0.17386 0.0
C642 C 0.58354 0.89425 0.14545 0.0
C643 C 0.60853 0.88687 0.16708 0.0
C644 C 0.60965 0.86125 0.19045 0.0
C645 C 0.58602 0.84416 0.1936 0.0
C646 C 0.6654 0.93463 0.21218 0.0
C647 C 0.66777 0.95369 0.17603 0.0
C648 C 0.6476 0.91167 0.20833 0.0
C649 C 0.63199 0.90729 0.16808 0.0
C650 C 0.63647 0.92522 0.13065 0.0
C651 C 0.65376 0.94835 0.13487 0.0
H652 H 0.56788 0.67174 0.60479 0.0
H653 H 0.56874 0.65567 0.75016 0.0
H654 H 0.60975 0.64302 0.59587 0.0
H655 H 0.60995 0.62741 0.74163 0.0
H656 H 0.68888 0.58466 0.7267 0.0
H657 H 0.65883 0.62545 0.72336 0.0
H658 H 0.61882 0.59218 0.60282 0.0
H659 H 0.64942 0.55172 0.60597 0.0
C660 C 0.57745 0.66274 0.6349 0.0
C661 C 0.56508 0.66593 0.67815 0.0
C662 C 0.60124 0.64611 0.62981 0.0
C663 C 0.61332 0.63285 0.66804 0.0
C664 C 0.60164 0.63752 0.71147 0.0
C665 C 0.57783 0.65364 0.71638 0.0
C666 C 0.67447 0.58674 0.69841 0.0
C667 C 0.67173 0.56537 0.66615 0.0
C668 C 0.657 0.60991 0.69673 0.0
C669 C 0.63609 0.612 0.66314 0.0
C670 C 0.63481 0.59148 0.62886 0.0
C671 C 0.65237 0.56831 0.63054 0.0
H672 H 0.26447 0.48553 0.9475 0.0
H673 H 0.22855 0.56341 0.98994 0.0
H674 H 0.28441 0.47969 0.02485 0.0
H675 H 0.24795 0.55736 0.06619 0.0
H676 H 0.25208 0.51751 0.20675 0.0
H677 H 0.23676 0.51716 0.1278 0.0
H678 H 0.32148 0.51199 0.08193 0.0
H679 H 0.33743 0.5126 0.16226 0.0
C680 C 0.26074 0.50125 0.97326 0.0
C681 C 0.24491 0.52491 0.96266 0.0
C682 C 0.27235 0.49804 0.0172 0.0
C683 C 0.26775 0.51815 0.05125 0.0
C684 C 0.25182 0.54157 0.04055 0.0
C685 C 0.24071 0.54499 0.99685 0.0
C686 C 0.2677 0.51603 0.18023 0.0
C687 C 0.29614 0.51536 0.19117 0.0
C688 C 0.25877 0.51579 0.13487 0.0
C689 C 0.2779 0.51463 0.09889 0.0
C690 C 0.30632 0.51273 0.10925 0.0
C691 C 0.31541 0.51324 0.15512 0.0
H692 H 0.98742 0.33875 0.6576 0.0
H693 H 0.01863 0.25816 0.69637 0.0
H694 H 0.98957 0.32514 0.57679 0.0
H695 H 0.0208 0.24473 0.61602 0.0
H696 H 0.03619 0.23446 0.46243 0.0
H697 H 0.0433 0.25488 0.53874 0.0
H698 H 0.96097 0.28974 0.53386 0.0
H699 H 0.95383 0.26942 0.45859 0.0
C700 C 0.99517 0.31836 0.64888 0.0
C701 C 1.00255 0.29945 0.6834 0.0
C702 C 0.99633 0.31054 0.60269 0.0
C703 C 1.0053 0.28384 0.59015 0.0
C704 C 0.01406 0.26551 0.62456 0.0
C705 C 0.01255 0.27316 0.67064 0.0
C706 C 0.01982 0.24678 0.47756 0.0
C707 C 0.99439 0.25011 0.45477 0.0
C708 C 0.02384 0.25839 0.52116 0.0
C709 C 1.0027 0.27397 0.54215 0.0
C710 C 0.97776 0.27816 0.5184 0.0
C711 C 0.9736 0.26624 0.47543 0.0
H712 H 0.25215 0.95119 0.96663 0.0
H713 H 0.28431 0.03476 0.96683 0.0
H714 H 0.23126 0.95894 0.04121 0.0
H715 H 0.26328 0.0425 0.04245 0.0
H716 H 0.25776 0.02229 0.2015 0.0
H717 H 0.27253 0.02288 0.12169 0.0
H718 H 0.19446 0.98662 0.08125 0.0
H719 H 0.17954 0.98603 0.16144 0.0
C720 C 0.25464 0.97134 0.98251 0.0
C721 C 0.2701 0.99232 0.96087 0.0
C722 C 0.24239 0.97584 0.02515 0.0
C723 C 0.2455 1.00135 0.0477 0.0
C724 C 0.26058 0.02259 0.02588 0.0
C725 C 0.27255 0.0182 0.98263 0.0
C726 C 0.24353 0.01481 0.17557 0.0
C727 C 0.21753 1.00388 0.18793 0.0
C728 C 0.25195 0.01535 0.12975 0.0
C729 C 0.23474 1.00468 0.09518 0.0
C730 C 0.20827 0.99481 0.10723 0.0
C731 C 0.19966 0.99459 0.1531 0.0
H732 H 0.48154 0.28572 0.46625 0.0
H733 H 0.56555 0.25482 0.46864 0.0
H734 H 0.47318 0.26422 0.54127 0.0
H735 H 0.55712 0.23337 0.54268 0.0
H736 H 0.52859 0.18043 0.66065 0.0
H737 H 0.52823 0.19556 0.58046 0.0
H738 H 0.49294 0.27398 0.62119 0.0
H739 H 0.4934 0.25905 0.70094 0.0
C740 C 0.49808 0.27418 0.48254 0.0
C741 C 0.52425 0.27219 0.46173 0.0
C742 C 0.49331 0.2619 0.52537 0.0
C743 C 0.51446 0.24698 0.54761 0.0
C744 C 0.54031 0.24438 0.52611 0.0
C745 C 0.54521 0.25697 0.48388 0.0
C746 C 0.52024 0.20065 0.6523 0.0
C747 C 0.51129 0.21865 0.68709 0.0
C748 C 0.52016 0.20935 0.60651 0.0
C749 C 0.51068 0.236 0.59469 0.0
C750 C 0.50017 0.25328 0.6292 0.0
C751 C 0.50064 0.24477 0.67492 0.0
H752 H 0.75419 0.51279 0.3054 0.0
H753 H 0.83726 0.49243 0.34966 0.0
H754 H 0.73846 0.51184 0.38416 0.0
H755 H 0.82111 0.49146 0.42955 0.0
H756 H 0.71384 0.46358 0.51165 0.0
H757 H 0.73383 0.47034 0.43629 0.0
H758 H 0.79798 0.52183 0.49455 0.0
H759 H 0.77791 0.51504 0.57101 0.0
C760 C 0.76923 0.50834 0.33198 0.0
C761 C 0.79695 0.50223 0.32108 0.0
C762 C 0.76013 0.50778 0.37717 0.0
C763 C 0.77845 0.50113 0.41281 0.0
C764 C 0.80657 0.49664 0.40258 0.0
C765 C 0.81578 0.49715 0.35695 0.0
C766 C 0.73213 0.47646 0.50869 0.0
C767 C 0.74413 0.48892 0.54747 0.0
C768 C 0.74355 0.48038 0.46538 0.0
C769 C 0.76733 0.49677 0.45957 0.0
C770 C 0.77968 0.50902 0.49819 0.0
C771 C 0.76807 0.50526 0.5418 0.0
H772 H 0.01573 0.83737 0.85656 0.0
H773 H 0.00899 0.7528 0.80845 0.0
H774 H 0.01445 0.82042 0.93612 0.0
H775 H 1.00811 0.7364 0.88688 0.0
H776 H 0.05825 0.72287 0.0221 0.0
H777 H 0.0512 0.74211 0.94581 0.0
H778 H 0.97963 0.78698 0.99403 0.0
H779 H 0.98638 0.7671 0.07115 0.0
C780 C 0.01358 0.81535 0.86278 0.0
C781 C 0.01279 0.7965 0.82597 0.0
C782 C 0.01272 0.80571 0.90822 0.0
C783 C 0.01131 0.77713 0.91734 0.0
C784 C 0.00932 0.75852 0.88068 0.0
C785 C 0.0099 0.76804 0.83567 0.0
C786 C 0.04089 0.7367 0.01648 0.0
C787 C 0.0228 0.74343 0.05245 0.0
C788 C 0.03688 0.7477 0.97286 0.0
C789 C 0.01497 0.76607 0.96426 0.0
C790 C 0.99677 0.77296 1.00006 0.0
C791 C 1.00046 0.76142 0.04385 0.0
H792 H 0.67726 0.02789 0.35202 0.0
H793 H 0.75747 0.99588 0.3132 0.0
H794 H 0.69108 0.02599 0.43279 0.0
H795 H 0.77111 0.99394 0.39351 0.0
H796 H 0.78201 0.97998 0.54746 0.0
H797 H 0.76119 0.97223 0.47159 0.0
H798 H 0.72693 0.05486 0.4744 0.0
H799 H 0.74765 0.06264 0.5492 0.0
C800 C 0.69759 0.01996 0.36074 0.0
C801 C 0.71637 0.01234 0.32623 0.0
C802 C 0.70553 0.01895 0.4069 0.0
C803 C 0.73222 0.0099 0.41939 0.0
C804 C 0.75035 1.00077 0.38501 0.0
C805 C 0.74258 1.00213 0.33896 0.0
C806 C 0.76976 0.99629 0.53196 0.0
C807 C 0.7667 0.02199 0.55403 0.0
C808 C 0.75791 0.9919 0.48862 0.0
C809 C 0.74235 0.01292 0.46719 0.0
C810 C 0.73847 0.03815 0.49022 0.0
C811 C 0.75063 0.04268 0.53291 0.0
H812 H 0.44803 0.76084 0.04082 0.0
H813 H 0.53628 0.77494 0.05128 0.0
H814 H 0.4542 0.74022 0.96612 0.0
H815 H 0.54246 0.75376 0.97524 0.0
H816 H 0.5297 0.74618 0.81376 0.0
H817 H 0.52997 0.76358 0.89243 0.0
H818 H 0.47385 0.69818 0.93214 0.0
H819 H 0.47321 0.681 0.8537 0.0
C820 C 0.46888 0.75946 0.02732 0.0
C821 C 0.4917 0.76956 0.05237 0.0
C822 C 0.4724 0.74735 0.9844 0.0
C823 C 0.49884 0.74501 0.96486 0.0
C824 C 0.5218 0.75528 0.98945 0.0
C825 C 0.51829 0.76731 0.033 0.0
C826 C 0.51768 0.73528 0.83938 0.0
C827 C 0.5012 0.71231 0.82718 0.0
C828 C 0.51798 0.7452 0.88455 0.0
C829 C 0.50173 0.73245 0.91845 0.0
C830 C 0.48627 0.70875 0.90666 0.0
C831 C 0.48599 0.69883 0.86165 0.0
H832 H 0.73343 0.5406 0.81562 0.0
H833 H 0.69419 0.46198 0.84338 0.0
H834 H 0.75006 0.54265 0.8944 0.0
H835 H 0.71201 0.4631 0.92126 0.0
H836 H 0.7324 0.47648 0.06808 0.0
H837 H 0.70997 0.48205 0.99376 0.0
H838 H 0.7833 0.52344 0.94268 0.0
H839 H 0.80473 0.51925 0.01836 0.0
C840 C 0.72833 0.52376 0.83867 0.0
C841 C 0.71245 0.50115 0.82335 0.0
C842 C 0.73808 0.5248 0.8838 0.0
C843 C 0.73262 0.50299 0.91454 0.0
C844 C 0.71625 0.48061 0.89919 0.0
C845 C 0.70609 0.47984 0.85433 0.0
C846 C 0.74335 0.48727 0.04101 0.0
C847 C 0.7701 0.49759 0.04859 0.0
C848 C 0.7307 0.49019 0.99823 0.0
C849 C 0.74487 0.50284 0.96162 0.0
C850 C 0.77148 0.51392 0.96996 0.0
C851 C 0.78389 0.51148 0.01321 0.0
H852 H 0.03079 0.67914 0.35473 0.0
H853 H 0.99355 0.75659 0.31313 0.0
H854 H 0.02891 0.69424 0.43485 0.0
H855 H 0.99173 0.77154 0.39275 0.0
H856 H 0.97974 0.78462 0.54689 0.0
H857 H 0.97206 0.76243 0.47209 0.0
H858 H 0.05621 0.7321 0.47343 0.0
H859 H 0.06391 0.75409 0.5471 0.0
C860 C 0.0217 0.69909 0.36273 0.0
C861 C 0.01263 0.71679 0.32759 0.0
C862 C 0.02073 0.70778 0.40851 0.0
C863 C 0.01032 0.73415 0.41999 0.0
C864 C 0.99966 0.75105 0.38507 0.0
C865 C 1.00095 0.74254 0.3394 0.0
C866 C 0.99645 0.77302 0.53125 0.0
C867 C 0.02248 0.77136 0.55268 0.0
C868 C 0.99208 0.76034 0.48854 0.0
C869 C 0.01351 0.74538 0.46709 0.0
C870 C 0.03918 0.74309 0.48933 0.0
C871 C 0.04365 0.75603 0.53138 0.0
H872 H 0.76605 0.06382 0.04864 0.0
H873 H 0.7337 0.98033 0.04782 0.0
H874 H 0.78684 0.05625 0.97389 0.0
H875 H 0.75457 0.97279 0.97203 0.0
H876 H 0.75802 0.99529 0.81332 0.0
H877 H 0.74427 0.99371 0.89356 0.0
H878 H 0.82341 0.02809 0.93275 0.0
H879 H 0.83735 0.0296 0.85202 0.0
C880 C 0.76351 0.04373 0.03257 0.0
C881 C 0.748 0.02272 0.05398 0.0
C882 C 0.77571 0.03932 0.98989 0.0
C883 C 0.77244 0.01391 0.96715 0.0
C884 C 0.75739 0.99261 0.98882 0.0
C885 C 0.74551 0.99689 0.03213 0.0
C886 C 0.7727 1.00213 0.83906 0.0
C887 C 0.7987 0.01284 0.82628 0.0
C888 C 0.76487 1.00099 0.88508 0.0
C889 C 0.7827 0.01087 0.91941 0.0
C890 C 0.80918 0.02048 0.90691 0.0
C891 C 0.81721 0.02124 0.86078 0.0
H892 H 0.53233 0.76612 0.31539 0.0
H893 H 0.47256 0.82922 0.35029 0.0
H894 H 0.53112 0.74889 0.39437 0.0
H895 H 0.4707 0.81125 0.42903 0.0
H896 H 0.44819 0.73141 0.52465 0.0
H897 H 0.45447 0.75432 0.45061 0.0
H898 H 0.5391 0.77339 0.48599 0.0
H899 H 0.53268 0.75123 0.56113 0.0
C900 C 0.51932 0.77659 0.34019 0.0
C901 C 0.50262 0.79908 0.32684 0.0
C902 C 0.51867 0.76674 0.38525 0.0
C903 C 0.50078 0.77874 0.41747 0.0
C904 C 0.4847 0.80175 0.40464 0.0
C905 C 0.48589 0.8121 0.35981 0.0
C906 C 0.46818 0.74041 0.51669 0.0
C907 C 0.48999 0.73942 0.54866 0.0
C908 C 0.47165 0.7537 0.47453 0.0
C909 C 0.49717 0.76573 0.463 0.0
C910 C 0.5192 0.76436 0.49439 0.0
C911 C 0.51552 0.75166 0.53718 0.0
H912 H 0.17664 0.53133 0.66258 0.0
H913 H 0.25247 0.49033 0.70237 0.0
H914 H 0.19153 0.52997 0.58227 0.0
H915 H 0.2672 0.48894 0.62263 0.0
H916 H 0.27989 0.47859 0.46827 0.0
H917 H 0.2572 0.47079 0.54254 0.0
H918 H 0.23061 0.55621 0.54459 0.0
H919 H 0.25315 0.56402 0.4714 0.0
C920 C 0.19613 0.52147 0.65409 0.0
C921 C 0.2135 0.51121 0.68879 0.0
C922 C 0.20473 0.52081 0.60822 0.0
C923 C 0.23063 0.50948 0.59623 0.0
C924 C 0.24708 0.49761 0.63067 0.0
C925 C 0.2387 0.49862 0.67642 0.0
C926 C 0.26899 0.49556 0.48452 0.0
C927 C 0.26858 0.52196 0.46419 0.0
C928 C 0.25603 0.49113 0.52694 0.0
C929 C 0.24198 0.51287 0.54923 0.0
C930 C 0.24088 0.53894 0.52804 0.0
C931 C 0.25412 0.54347 0.48627 0.0
H932 H 0.98866 0.17785 0.15762 0.0
H933 H 0.02291 0.25729 0.1959 0.0
H934 H 0.9906 0.19149 0.07676 0.0
H935 H 0.02488 0.27076 0.11558 0.0
H936 H 0.03769 0.28201 0.9618 0.0
H937 H 0.04565 0.26071 0.03724 0.0
H938 H 0.96246 0.22777 0.03543 0.0
H939 H 0.95451 0.24894 0.96109 0.0
C940 C 0.99711 0.19794 0.14875 0.0
C941 C 1.00532 0.21659 0.18315 0.0
C942 C 0.99814 0.20579 0.10254 0.0
C943 C 1.00779 0.23226 0.08989 0.0
C944 C 0.01757 0.25018 0.12416 0.0
C945 C 0.01619 0.24251 0.17023 0.0
C946 C 0.02131 0.26993 0.97741 0.0
C947 C 0.99541 0.26741 0.95578 0.0
C948 C 0.02581 0.2578 0.0205 0.0
C949 C 1.00469 0.24249 0.04214 0.0
C950 C 0.97926 0.2391 0.01947 0.0
C951 C 0.97463 0.25153 0.97703 0.0
H952 H 0.23448 0.03699 0.46891 0.0
H953 H 0.26767 0.9539 0.46451 0.0
H954 H 0.25615 0.04383 0.5444 0.0
H955 H 0.2891 0.96072 0.5389 0.0
H956 H 0.34005 0.98498 0.66111 0.0
H957 H 0.32546 0.98746 0.58076 0.0
H958 H 0.24735 0.02299 0.62232 0.0
H959 H 0.26181 0.02061 0.70214 0.0
C960 C 0.24663 0.02038 0.48373 0.0
C961 C 0.24911 0.99484 0.46095 0.0
C962 C 0.25897 0.02424 0.5269 0.0
C963 C 0.27442 1.00282 0.54755 0.0
C964 C 0.27769 0.97775 0.52379 0.0
C965 C 0.2651 0.97377 0.48127 0.0
C966 C 0.31999 0.99377 0.65299 0.0
C967 C 0.302 1.00229 0.68808 0.0
C968 C 0.31158 0.9951 0.60703 0.0
C969 C 0.28517 1.00531 0.59521 0.0
C970 C 0.26788 0.01525 0.63016 0.0
C971 C 0.27612 0.01363 0.676 0.0
H972 H 0.4854 0.26817 0.94397 0.0
H973 H 0.55841 0.22523 0.99188 0.0
H974 H 0.47934 0.28859 0.02086 0.0
H975 H 0.55204 0.24505 0.06789 0.0
H976 H 0.50917 0.25441 0.20543 0.0
H977 H 0.50796 0.2385 0.12676 0.0
H978 H 0.51565 0.32267 0.07891 0.0
H979 H 0.5173 0.33915 0.15882 0.0
C980 C 0.49993 0.26293 0.97092 0.0
C981 C 0.52234 0.24507 0.96204 0.0
C982 C 0.49662 0.27479 0.01457 0.0
C983 C 0.51532 0.26841 0.04997 0.0
C984 C 0.53739 0.25029 0.04109 0.0
C985 C 0.54098 0.23895 0.99762 0.0
C986 C 0.51032 0.2698 0.17849 0.0
C987 C 0.51373 0.29815 0.1887 0.0
C988 C 0.50952 0.26056 0.13334 0.0
C989 C 0.5118 0.27933 0.09699 0.0
C990 C 0.51369 0.30784 0.10658 0.0
C991 C 0.51475 0.31721 0.1522 0.0
H992 H 0.25991 0.62386 0.30525 0.0
H993 H 0.20886 0.55082 0.3202 0.0
H994 H 0.21919 0.65087 0.28468 0.0
H995 H 0.16802 0.57798 0.29904 0.0
H996 H 0.09708 0.64164 0.30038 0.0
H997 H 0.13793 0.61632 0.32715 0.0
H998 H 0.18685 0.65421 0.22036 0.0
H999 H 0.14632 0.6796 0.19392 0.0
C1000 C 0.24 0.61351 0.30417 0.0
C1001 C 0.23775 0.58508 0.31439 0.0
C1002 C 0.21664 0.62903 0.29216 0.0
C1003 C 0.19031 0.61663 0.29019 0.0
C1004 C 0.18794 0.58826 0.30075 0.0
C1005 C 0.2114 0.57263 0.31253 0.0
C1006 C 0.11664 0.64487 0.28303 0.0
C1007 C 0.11836 0.66267 0.24493 0.0
C1008 C 0.13999 0.63013 0.29809 0.0
C1009 C 0.16564 0.63309 0.27573 0.0
C1010 C 0.16751 0.65158 0.23863 0.0
C1011 C 0.1442 0.66611 0.22338 0.0
H1012 H 0.83626 0.14415 0.69146 0.0
H1013 H 0.87681 0.09492 0.79541 0.0
H1014 H 0.8618 0.18483 0.71669 0.0
H1015 H 0.90232 0.136 0.82108 0.0
H1016 H 0.96669 0.20816 0.81062 0.0
H1017 H 0.93973 0.16685 0.79105 0.0
H1018 H 0.8658 0.21687 0.78105 0.0
H1019 H 0.89258 0.25801 0.79993 0.0
C1020 C 0.85038 0.14207 0.72013 0.0
C1021 C 0.85448 0.11621 0.74134 0.0
C1022 C 0.86498 0.16546 0.73471 0.0
C1023 C 0.88421 0.16368 0.7708 0.0
C1024 C 0.88789 0.13799 0.79282 0.0
C1025 C 0.87306 0.11453 0.77842 0.0
C1026 C 0.9447 0.21034 0.80419 0.0
C1027 C 0.93188 0.23649 0.80673 0.0
C1028 C 0.9292 0.18662 0.79337 0.0
C1029 C 0.90059 0.18854 0.7845 0.0
C1030 C 0.88783 0.21467 0.78721 0.0
C1031 C 0.90323 0.23828 0.79821 0.0
H1032 H 0.25882 0.89539 0.29913 0.0
H1033 H 0.30894 0.96908 0.31468 0.0
H1034 H 0.29974 0.86886 0.27937 0.0
H1035 H 0.35021 0.94225 0.29395 0.0
H1036 H 0.4211 0.87724 0.29754 0.0
H1037 H 0.38053 0.90367 0.32269 0.0
H1038 H 0.33177 0.86586 0.21538 0.0
H1039 H 0.37187 0.83938 0.19074 0.0
C1040 C 0.27858 0.90603 0.29824 0.0
C1041 C 0.28051 0.93447 0.30849 0.0
C1042 C 0.30208 0.89075 0.28667 0.0
C1043 C 0.32826 0.90341 0.28496 0.0
C1044 C 0.33036 0.93183 0.29541 0.0
C1045 C 0.30669 0.94725 0.30689 0.0
C1046 C 0.40161 0.87431 0.27976 0.0
C1047 C 0.39975 0.85614 0.24215 0.0
C1048 C 0.37847 0.88968 0.29385 0.0
C1049 C 0.35295 0.88697 0.27093 0.0
C1050 C 0.35101 0.86828 0.2341 0.0
C1051 C 0.37407 0.85311 0.21989 0.0
H1052 H 0.61664 0.25757 0.77508 0.0
H1053 H 0.55311 0.30961 0.83349 0.0
H1054 H 0.6424 0.29851 0.75135 0.0
H1055 H 0.57951 0.35061 0.81236 0.0
H1056 H 0.61579 0.41874 0.72616 0.0
H1057 H 0.59158 0.37763 0.75085 0.0
H1058 H 0.66996 0.33616 0.77256 0.0
H1059 H 0.69434 0.37742 0.74492 0.0
C1060 C 0.60832 0.27783 0.78324 0.0
C1061 C 0.58273 0.28036 0.80586 0.0
C1062 C 0.62324 0.30137 0.76999 0.0
C1063 C 0.6132 0.32812 0.77971 0.0
C1064 C 0.58774 0.33051 0.80314 0.0
C1065 C 0.57257 0.30696 0.81555 0.0
C1066 C 0.62799 0.40095 0.73645 0.0
C1067 C 0.65709 0.40147 0.7338 0.0
C1068 C 0.61401 0.37726 0.75101 0.0
C1069 C 0.62863 0.35339 0.76435 0.0
C1070 C 0.65786 0.35394 0.76206 0.0
C1071 C 0.67192 0.37765 0.74654 0.0
H1072 H 0.75828 0.39464 0.20536 0.0
H1073 H 0.70806 0.46836 0.19188 0.0
H1074 H 0.7175 0.36811 0.22658 0.0
H1075 H 0.66704 0.44158 0.21382 0.0
H1076 H 0.59571 0.37759 0.21397 0.0
H1077 H 0.63625 0.40309 0.18634 0.0
H1078 H 0.68619 0.36551 0.29228 0.0
H1079 H 0.64601 0.33996 0.31955 0.0
C1080 C 0.73853 0.40525 0.20688 0.0
C1081 C 0.73653 0.43373 0.19693 0.0
C1082 C 0.71513 0.38999 0.21928 0.0
C1083 C 0.689 0.4027 0.222 0.0
C1084 C 0.68684 0.43111 0.21158 0.0
C1085 C 0.71037 0.4465 0.19935 0.0
C1086 C 0.61544 0.37448 0.23092 0.0
C1087 C 0.61759 0.3567 0.26899 0.0
C1088 C 0.63858 0.38932 0.21539 0.0
C1089 C 0.66443 0.38645 0.23723 0.0
C1090 C 0.66668 0.36805 0.2744 0.0
C1091 C 0.64358 0.35344 0.29012 0.0
H1092 H 0.12131 0.75655 0.7116 0.0
H1093 H 0.04598 0.70862 0.69909 0.0
H1094 H 0.14671 0.71503 0.73191 0.0
H1095 H 0.07172 0.6667 0.72036 0.0
H1096 H 0.13501 0.59379 0.71922 0.0
H1097 H 0.10938 0.63462 0.69267 0.0
H1098 H 0.14883 0.68404 0.7975 0.0
H1099 H 0.17449 0.64371 0.82349 0.0
C1100 C 0.11007 0.73714 0.71321 0.0
C1101 C 0.08148 0.73604 0.70377 0.0
C1102 C 0.12471 0.71329 0.7251 0.0
C1103 C 0.11126 0.68754 0.72799 0.0
C1104 C 0.08273 0.68621 0.71805 0.0
C1105 C 0.06795 0.71025 0.70621 0.0
C1106 C 0.13844 0.61347 0.73617 0.0
C1107 C 0.15687 0.61546 0.77344 0.0
C1108 C 0.12354 0.63677 0.72127 0.0
C1109 C 0.12701 0.66258 0.74302 0.0
C1110 C 0.14585 0.66458 0.77963 0.0
C1111 C 0.16054 0.64138 0.79464 0.0
H1112 H 0.75941 0.12356 0.21103 0.0
H1113 H 0.80838 0.04883 0.20092 0.0
H1114 H 0.80084 0.14998 0.22903 0.0
H1115 H 0.85005 0.07546 0.21981 0.0
H1116 H 0.92266 0.13788 0.215 0.0
H1117 H 0.88146 0.11233 0.18981 0.0
H1118 H 0.83277 0.15418 0.29282 0.0
H1119 H 0.87348 0.17978 0.3174 0.0
C1120 C 0.77901 0.11268 0.21275 0.0
C1121 C 0.78045 0.08396 0.20463 0.0
C1122 C 0.80281 0.12789 0.22325 0.0
C1123 C 0.8288 0.11487 0.22597 0.0
C1124 C 0.83039 0.08619 0.21749 0.0
C1125 C 0.80647 0.07088 0.20707 0.0
C1126 C 0.90305 0.1419 0.23175 0.0
C1127 C 0.9014 0.1609 0.26823 0.0
C1128 C 0.87952 0.12705 0.21765 0.0
C1129 C 0.85382 0.13111 0.23942 0.0
C1130 C 0.85212 0.1507 0.27496 0.0
C1131 C 0.87555 0.16534 0.28918 0.0
H1132 H 0.36573 0.91311 0.70816 0.0
H1133 H 0.35976 0.87619 0.84271 0.0
H1134 H 0.39331 0.87343 0.68223 0.0
H1135 H 0.38729 0.83698 0.81689 0.0
H1136 H 0.46289 0.78686 0.76921 0.0
H1137 H 0.43656 0.82795 0.79226 0.0
H1138 H 0.38738 0.82185 0.66903 0.0
H1139 H 0.41348 0.78088 0.64606 0.0
C1140 C 0.37012 0.89653 0.73209 0.0
C1141 C 0.36043 0.89791 0.7775 0.0
C1142 C 0.38592 0.8738 0.71726 0.0
C1143 C 0.39273 0.85218 0.74767 0.0
C1144 C 0.38279 0.85347 0.79282 0.0
C1145 C 0.36674 0.8759 0.80744 0.0
C1146 C 0.44662 0.79442 0.74688 0.0
C1147 C 0.44027 0.78048 0.70588 0.0
C1148 C 0.43142 0.81785 0.7602 0.0
C1149 C 0.4098 0.82811 0.73251 0.0
C1150 C 0.404 0.81462 0.69096 0.0
C1151 C 0.41889 0.79101 0.67797 0.0
H1152 H 0.88011 0.35964 0.84141 0.0
H1153 H 0.91442 0.36382 0.70483 0.0
H1154 H 0.84042 0.38671 0.81668 0.0
H1155 H 0.87414 0.39103 0.67996 0.0
H1156 H 0.78069 0.41009 0.64818 0.0
H1157 H 0.82223 0.38451 0.66994 0.0
H1158 H 0.83057 0.43547 0.79075 0.0
H1159 H 0.78892 0.46129 0.76893 0.0
C1160 C 0.87915 0.36614 0.80592 0.0
C1161 C 0.90055 0.35939 0.77506 0.0
C1162 C 0.85643 0.38195 0.79191 0.0
C1163 C 0.8542 0.39123 0.7465 0.0
C1164 C 0.87525 0.38411 0.71522 0.0
C1165 C 0.89831 0.36854 0.72944 0.0
C1166 C 0.79137 0.41595 0.67938 0.0
C1167 C 0.78132 0.43771 0.70695 0.0
C1168 C 0.81533 0.40138 0.69161 0.0
C1169 C 0.82969 0.40791 0.73206 0.0
C1170 C 0.81983 0.4298 0.75951 0.0
C1171 C 0.79603 0.44467 0.74694 0.0
H1172 H 0.14738 0.88631 0.3447 0.0
H1173 H 0.16523 0.90984 0.20494 0.0
H1174 H 0.11986 0.8473 0.31731 0.0
H1175 H 0.13806 0.86996 0.17756 0.0
H1176 H 0.11927 0.77201 0.16867 0.0
H1177 H 0.14424 0.81422 0.18975 0.0
H1178 H 0.0732 0.84237 0.26629 0.0
H1179 H 0.04775 0.80031 0.24419 0.0
C1180 C 0.14567 0.88299 0.30808 0.0
C1181 C 0.15867 0.90105 0.27691 0.0
C1182 C 0.12967 0.8608 0.29249 0.0
C1183 C 0.12674 0.85578 0.24542 0.0
C1184 C 0.14001 0.8735 0.21408 0.0
C1185 C 0.15555 0.89621 0.22969 0.0
C1186 C 0.10887 0.7873 0.18972 0.0
C1187 C 0.08159 0.78283 0.20501 0.0
C1188 C 0.12312 0.8115 0.20145 0.0
C1189 C 0.11061 0.83146 0.22955 0.0
C1190 C 0.08325 0.82721 0.24455 0.0
C1191 C 0.06872 0.80325 0.23188 0.0
H1192 H 0.70614 0.04813 0.7011 0.0
H1193 H 0.75493 0.1231 0.70995 0.0
H1194 H 0.66449 0.07471 0.72032 0.0
H1195 H 0.71357 0.14941 0.72821 0.0
H1196 H 0.64192 0.17896 0.81833 0.0
H1197 H 0.68234 0.15329 0.793 0.0
H1198 H 0.63279 0.11177 0.69051 0.0
H1199 H 0.59185 0.13742 0.71648 0.0
C1200 C 0.70801 0.07021 0.70703 0.0
C1201 C 0.73397 0.08339 0.70419 0.0
C1202 C 0.68411 0.08548 0.71763 0.0
C1203 C 0.6857 0.11419 0.72587 0.0
C1204 C 0.71162 0.1273 0.72263 0.0
C1205 C 0.73538 0.11214 0.71199 0.0
C1206 C 0.6396 0.16458 0.79005 0.0
C1207 C 0.6136 0.16027 0.76947 0.0
C1208 C 0.66286 0.1499 0.77541 0.0
C1209 C 0.66082 0.1304 0.73979 0.0
C1210 C 0.63497 0.12644 0.71838 0.0
C1211 C 0.6116 0.14135 0.7329 0.0
H1212 H 0.46954 0.70711 0.20114 0.0
H1213 H 0.39576 0.75631 0.22168 0.0
H1214 H 0.44361 0.66538 0.2227 0.0
H1215 H 0.3701 0.71496 0.24227 0.0
H1216 H 0.34302 0.64215 0.33109 0.0
H1217 H 0.36889 0.68253 0.30593 0.0
H1218 H 0.40465 0.63474 0.19572 0.0
H1219 H 0.37882 0.59384 0.22143 0.0
C1220 C 0.44788 0.70906 0.21022 0.0
C1221 C 0.43482 0.73513 0.20977 0.0
C1222 C 0.43297 0.68514 0.22217 0.0
C1223 C 0.40478 0.68685 0.23426 0.0
C1224 C 0.39184 0.71291 0.2337 0.0
C1225 C 0.40661 0.73666 0.22166 0.0
C1226 C 0.3562 0.6402 0.30125 0.0
C1227 C 0.35878 0.61471 0.27828 0.0
C1228 C 0.37101 0.66343 0.28672 0.0
C1229 C 0.3889 0.66188 0.24884 0.0
C1230 C 0.39126 0.63652 0.22533 0.0
C1231 C 0.37624 0.61319 0.23975 0.0
H1232 H 0.37107 0.68647 0.70107 0.0
H1233 H 0.42038 0.63164 0.78499 0.0
H1234 H 0.32931 0.66125 0.72352 0.0
H1235 H 0.37879 0.60696 0.80824 0.0
H1236 H 0.30495 0.54845 0.798 0.0
H1237 H 0.34586 0.57516 0.77621 0.0
H1238 H 0.29836 0.65084 0.78519 0.0
H1239 H 0.2575 0.62427 0.80553 0.0
C1240 C 0.37293 0.66945 0.72507 0.0
C1241 C 0.39907 0.66101 0.74105 0.0
C1242 C 0.349 0.65491 0.73791 0.0
C1243 C 0.35068 0.63173 0.76721 0.0
C1244 C 0.37673 0.62419 0.78471 0.0
C1245 C 0.40058 0.63857 0.77173 0.0
C1246 C 0.30323 0.57076 0.79515 0.0
C1247 C 0.2779 0.58411 0.80371 0.0
C1248 C 0.32674 0.58615 0.78298 0.0
C1249 C 0.32551 0.61526 0.77919 0.0
C1250 C 0.30008 0.6285 0.78724 0.0
C1251 C 0.27662 0.61317 0.79923 0.0
H1252 H 0.87692 0.42245 0.29138 0.0
H1253 H 0.8404 0.37434 0.18195 0.0
H1254 H 0.90267 0.38149 0.3168 0.0
H1255 H 0.86619 0.33381 0.20695 0.0
H1256 H 0.89488 0.25992 0.2905 0.0
H1257 H 0.86845 0.301 0.27044 0.0
H1258 H 0.94151 0.35152 0.28851 0.0
H1259 H 0.96816 0.31019 0.30933 0.0
C1260 C 0.87412 0.40312 0.27308 0.0
C1261 C 0.85655 0.4017 0.23463 0.0
C1262 C 0.8891 0.37974 0.28735 0.0
C1263 C 0.88659 0.35441 0.26378 0.0
C1264 C 0.86845 0.3529 0.22615 0.0
C1265 C 0.85369 0.37621 0.21174 0.0
C1266 C 0.90543 0.27974 0.29028 0.0
C1267 C 0.93374 0.28168 0.30151 0.0
C1268 C 0.89023 0.30332 0.27858 0.0
C1269 C 0.90284 0.32956 0.27783 0.0
C1270 C 0.93111 0.33163 0.28925 0.0
C1271 C 0.94644 0.30792 0.30078 0.0
H1272 H 0.14469 0.83732 0.6932 0.0
H1273 H 0.09642 0.87641 0.79975 0.0
H1274 H 0.18538 0.86303 0.71761 0.0
H1275 H 0.13761 0.90207 0.82474 0.0
H1276 H 0.20986 0.9667 0.81427 0.0
H1277 H 0.16819 0.94008 0.79496 0.0
H1278 H 0.21785 0.86613 0.78101 0.0
H1279 H 0.2592 0.89249 0.79935 0.0
C1280 C 0.14284 0.85113 0.72232 0.0
C1281 C 0.11726 0.85477 0.74451 0.0
C1282 C 0.16624 0.86585 0.7364 0.0
C1283 C 0.16474 0.88471 0.77302 0.0
C1284 C 0.13934 0.88793 0.79605 0.0
C1285 C 0.11585 0.87299 0.78209 0.0
C1286 C 0.21186 0.94479 0.80691 0.0
C1287 C 0.23794 0.93182 0.80822 0.0
C1288 C 0.18796 0.92949 0.79628 0.0
C1289 C 0.1897 0.90097 0.78644 0.0
C1290 C 0.21578 0.8881 0.78789 0.0
C1291 C 0.23953 0.90327 0.79859 0.0
H1292 H 0.63732 0.09432 0.29611 0.0
H1293 H 0.67647 0.14362 0.19093 0.0
H1294 H 0.61181 0.13534 0.32222 0.0
H1295 H 0.65094 0.18413 0.21647 0.0
H1296 H 0.62314 0.25742 0.30074 0.0
H1297 H 0.64865 0.21586 0.28078 0.0
H1298 H 0.5741 0.16716 0.29499 0.0
H1299 H 0.54829 0.20908 0.31586 0.0
C1300 C 0.64073 0.11391 0.27888 0.0
C1301 C 0.65904 0.11564 0.24147 0.0
C1302 C 0.62588 0.13733 0.29353 0.0
C1303 C 0.62926 0.16305 0.2714 0.0
C1304 C 0.64801 0.16479 0.23468 0.0
C1305 C 0.66263 0.14147 0.21991 0.0
C1306 C 0.61203 0.23792 0.29976 0.0
C1307 C 0.58353 0.23673 0.30985 0.0
C1308 C 0.62673 0.21402 0.28807 0.0
C1309 C 0.61346 0.18813 0.28607 0.0
C1310 C 0.58502 0.18674 0.29662 0.0
C1311 C 0.57018 0.21081 0.30822 0.0
loop_
_geom_bond_atom_site_label_1
_geom_bond_atom_site_label_2
_geom_bond_distance
_geom_bond_site_symmetry_2
_ccdc_geom_bond_type
Fe0 O2 1.918 . S
Fe0 O5 1.997 . S
Fe0 O6 2.002 . S
Fe0 O11 1.976 . S
Fe0 O14 1.996 . S
Fe1 O2 1.918 . S
Fe1 O9 1.997 . S
Fe1 O12 1.996 . S
Fe1 O16 1.976 . S
Fe1 O19 2.002 . S
O2 Fe0 1.918 . S
O2 Fe1 1.918 . S
O2 Fe3 1.918 . S
Fe3 O2 1.918 . S
Fe3 O4 2.002 . S
Fe3 O13 1.976 . S
Fe3 O17 1.996 . S
Fe3 O20 1.997 . S
O4 Fe3 2.002 . S
O4 C21 1.295 . S
O5 Fe0 1.997 . S
O5 C21 1.235 . S
O6 Fe0 2.002 . S
O6 C7 1.295 . S
C7 O6 1.295 . S
C7 O9 1.235 . S
C8 O13 1.287 . S
C8 O14 1.255 . S
O9 Fe1 1.997 . S
O9 C7 1.235 . S
C10 O16 1.287 . S
C10 O17 1.255 . S
O11 Fe0 1.976 . S
O11 C18 1.287 . S
O12 Fe1 1.996 . S
O12 C18 1.255 . S
O13 Fe3 1.976 . S
O13 C8 1.287 . S
O14 Fe0 1.996 . S
O14 C8 1.255 . S
C15 O19 1.295 . S
C15 O20 1.235 . S
O16 Fe1 1.976 . S
O16 C10 1.287 . S
O17 Fe3 1.996 . S
O17 C10 1.255 . S
C18 O11 1.287 . S
C18 O12 1.255 . S
O19 Fe1 2.002 . S
O19 C15 1.295 . S
O20 Fe3 1.997 . S
O20 C15 1.235 . S
C21 O4 1.295 . S
C21 O5 1.235 . S
Fe22 O24 1.918 . S
Fe22 O27 1.997 . S
Fe22 O28 2.003 1_655 S
Fe22 O33 1.976 1_655 S
Fe22 O36 1.992 1_655 S
Fe23 O24 1.918 . S
Fe23 O31 1.997 . S
Fe23 O34 1.996 1_655 S
Fe23 O38 1.976 . S
Fe23 O41 2.002 . S
O24 Fe22 1.918 . S
O24 Fe23 1.918 . S
O24 Fe25 1.918 . S
Fe25 O24 1.918 . S
Fe25 O26 2.002 . S
Fe25 O35 1.976 . S
Fe25 O39 1.996 . S
Fe25 O42 1.997 . S
O26 Fe25 2.002 . S
O26 C43 1.295 . S
O27 Fe22 1.997 . S
O27 C43 1.235 . S
O28 Fe22 2.003 1_455 S
O28 C29 1.296 1_455 S
C29 O28 1.296 1_655 S
C29 O31 1.235 . S
C30 O35 1.287 . S
C30 O36 1.230 1_655 S
O31 Fe23 1.997 . S
O31 C29 1.235 . S
C32 O38 1.287 . S
C32 O39 1.255 . S
O33 Fe22 1.976 1_455 S
O33 C40 1.287 . S
O34 Fe23 1.996 1_455 S
O34 C40 1.255 . S
O35 Fe25 1.976 . S
O35 C30 1.287 . S
O36 Fe22 1.992 1_455 S
O36 C30 1.230 1_455 S
C37 O41 1.295 . S
C37 O42 1.235 . S
O38 Fe23 1.976 . S
O38 C32 1.287 . S
O39 Fe25 1.996 . S
O39 C32 1.255 . S
C40 O33 1.287 . S
C40 O34 1.255 . S
O41 Fe23 2.002 . S
O41 C37 1.295 . S
O42 Fe25 1.997 . S
O42 C37 1.235 . S
C43 O26 1.295 . S
C43 O27 1.235 . S
Fe44 O46 1.918 . S
Fe44 O49 1.997 . S
Fe44 O50 2.003 1_565 S
Fe44 O55 1.976 1_565 S
Fe44 O58 1.993 1_565 S
Fe45 O46 1.918 . S
Fe45 O53 1.997 . S
Fe45 O56 1.996 1_565 S
Fe45 O60 1.976 . S
Fe45 O63 2.002 . S
O46 Fe44 1.918 . S
O46 Fe45 1.918 . S
O46 Fe47 1.918 . S
Fe47 O46 1.918 . S
Fe47 O48 2.002 . S
Fe47 O57 1.976 . S
Fe47 O61 1.996 . S
Fe47 O64 1.997 . S
O48 Fe47 2.002 . S
O48 C65 1.295 . S
O49 Fe44 1.997 . S
O49 C65 1.235 . S
O50 Fe44 2.003 1_545 S
O50 C51 1.296 1_545 S
C51 O50 1.296 1_565 S
C51 O53 1.235 . S
C52 O57 1.287 . S
C52 O58 1.230 1_565 S
O53 Fe45 1.997 . S
O53 C51 1.235 . S
C54 O60 1.287 . S
C54 O61 1.255 . S
O55 Fe44 1.976 1_545 S
O55 C62 1.287 . S
O56 Fe45 1.996 1_545 S
O56 C62 1.255 . S
O57 Fe47 1.976 . S
O57 C52 1.287 . S
O58 Fe44 1.993 1_545 S
O58 C52 1.230 1_545 S
C59 O63 1.295 . S
C59 O64 1.235 . S
O60 Fe45 1.976 . S
O60 C54 1.287 . S
O61 Fe47 1.996 . S
O61 C54 1.255 . S
C62 O55 1.287 . S
C62 O56 1.255 . S
O63 Fe45 2.002 . S
O63 C59 1.295 . S
O64 Fe47 1.997 . S
O64 C59 1.235 . S
C65 O48 1.295 . S
C65 O49 1.235 . S
Fe66 O68 1.918 . S
Fe66 O71 1.997 . S
Fe66 O72 2.002 . S
Fe66 O77 1.976 . S
Fe66 O80 1.996 . S
Fe67 O68 1.918 . S
Fe67 O75 1.997 . S
Fe67 O78 1.996 . S
Fe67 O82 1.976 . S
Fe67 O85 2.002 . S
O68 Fe66 1.918 . S
O68 Fe67 1.918 . S
O68 Fe69 1.918 . S
Fe69 O68 1.918 . S
Fe69 O70 2.002 . S
Fe69 O79 1.976 . S
Fe69 O83 1.996 . S
Fe69 O86 1.997 . S
O70 Fe69 2.002 . S
O70 C87 1.295 . S
O71 Fe66 1.997 . S
O71 C87 1.235 . S
O72 Fe66 2.002 . S
O72 C73 1.295 . S
C73 O72 1.295 . S
C73 O75 1.235 . S
C74 O79 1.287 . S
C74 O80 1.255 . S
O75 Fe67 1.997 . S
O75 C73 1.235 . S
C76 O82 1.287 . S
C76 O83 1.255 . S
O77 Fe66 1.976 . S
O77 C84 1.287 . S
O78 Fe67 1.996 . S
O78 C84 1.255 . S
O79 Fe69 1.976 . S
O79 C74 1.287 . S
O80 Fe66 1.996 . S
O80 C74 1.255 . S
C81 O85 1.295 . S
C81 O86 1.235 . S
O82 Fe67 1.976 . S
O82 C76 1.287 . S
O83 Fe69 1.996 . S
O83 C76 1.255 . S
C84 O77 1.287 . S
C84 O78 1.255 . S
O85 Fe67 2.002 . S
O85 C81 1.295 . S
O86 Fe69 1.997 . S
O86 C81 1.235 . S
C87 O70 1.295 . S
C87 O71 1.235 . S
Fe88 O90 1.918 . S
Fe88 O93 1.997 . S
Fe88 O94 2.002 . S
Fe88 O99 1.976 . S
Fe88 O102 1.996 . S
Fe89 O90 1.918 . S
Fe89 O97 1.997 . S
Fe89 O100 1.996 . S
Fe89 O104 1.976 . S
Fe89 O107 2.002 . S
O90 Fe88 1.918 . S
O90 Fe89 1.918 . S
O90 Fe91 1.918 . S
Fe91 O90 1.918 . S
Fe91 O92 2.002 . S
Fe91 O101 1.976 . S
Fe91 O105 1.996 . S
Fe91 O108 1.997 . S
O92 Fe91 2.002 . S
O92 C109 1.295 . S
O93 Fe88 1.997 . S
O93 C109 1.235 . S
O94 Fe88 2.002 . S
O94 C95 1.295 . S
C95 O94 1.295 . S
C95 O97 1.235 . S
C96 O101 1.287 . S
C96 O102 1.255 . S
O97 Fe89 1.997 . S
O97 C95 1.235 . S
C98 O104 1.287 . S
C98 O105 1.255 . S
O99 Fe88 1.976 . S
O99 C106 1.287 . S
O100 Fe89 1.996 . S
O100 C106 1.255 . S
O101 Fe91 1.976 . S
O101 C96 1.287 . S
O102 Fe88 1.996 . S
O102 C96 1.255 . S
C103 O107 1.295 . S
C103 O108 1.235 . S
O104 Fe89 1.976 . S
O104 C98 1.287 . S
O105 Fe91 1.996 . S
O105 C98 1.255 . S
C106 O99 1.287 . S
C106 O100 1.255 . S
O107 Fe89 2.002 . S
O107 C103 1.295 . S
O108 Fe91 1.997 . S
O108 C103 1.235 . S
C109 O92 1.295 . S
C109 O93 1.235 . S
Fe110 O112 1.918 . S
Fe110 O115 1.997 . S
Fe110 O116 2.002 . S
Fe110 O121 1.976 . S
Fe110 O124 1.996 . S
Fe111 O112 1.918 . S
Fe111 O119 1.997 . S
Fe111 O122 1.993 1_455 S
Fe111 O126 1.976 1_455 S
Fe111 O129 2.003 1_455 S
O112 Fe110 1.918 . S
O112 Fe111 1.918 . S
O112 Fe113 1.918 . S
Fe113 O112 1.918 . S
Fe113 O114 2.002 . S
Fe113 O123 1.976 . S
Fe113 O127 1.996 1_455 S
Fe113 O130 1.997 . S
O114 Fe113 2.002 . S
O114 C131 1.295 . S
O115 Fe110 1.997 . S
O115 C131 1.235 . S
O116 Fe110 2.002 . S
O116 C117 1.295 . S
C117 O116 1.295 . S
C117 O119 1.235 . S
C118 O123 1.287 . S
C118 O124 1.255 . S
O119 Fe111 1.997 . S
O119 C117 1.235 . S
C120 O126 1.287 . S
C120 O127 1.255 . S
O121 Fe110 1.976 . S
O121 C128 1.287 . S
O122 Fe111 1.993 1_655 S
O122 C128 1.230 1_655 S
O123 Fe113 1.976 . S
O123 C118 1.287 . S
O124 Fe110 1.996 . S
O124 C118 1.255 . S
C125 O129 1.296 1_455 S
C125 O130 1.235 . S
O126 Fe111 1.976 1_655 S
O126 C120 1.287 . S
O127 Fe113 1.996 1_655 S
O127 C120 1.255 . S
C128 O121 1.287 . S
C128 O122 1.230 1_455 S
O129 Fe111 2.003 1_655 S
O129 C125 1.296 1_655 S
O130 Fe113 1.997 . S
O130 C125 1.235 . S
C131 O114 1.295 . S
C131 O115 1.235 . S
Fe132 O134 1.918 . S
Fe132 O137 1.997 . S
Fe132 O138 2.002 . S
Fe132 O143 1.976 . S
Fe132 O146 1.996 . S
Fe133 O134 1.918 . S
Fe133 O141 1.997 . S
Fe133 O144 1.992 1_545 S
Fe133 O148 1.976 1_545 S
Fe133 O151 2.003 1_545 S
O134 Fe132 1.918 . S
O134 Fe133 1.918 . S
O134 Fe135 1.918 . S
Fe135 O134 1.918 . S
Fe135 O136 2.002 . S
Fe135 O145 1.976 . S
Fe135 O149 1.996 1_545 S
Fe135 O152 1.997 . S
O136 Fe135 2.002 . S
O136 C153 1.295 . S
O137 Fe132 1.997 . S
O137 C153 1.235 . S
O138 Fe132 2.002 . S
O138 C139 1.295 . S
C139 O138 1.295 . S
C139 O141 1.235 . S
C140 O145 1.287 . S
C140 O146 1.255 . S
O141 Fe133 1.997 . S
O141 C139 1.235 . S
C142 O148 1.287 . S
C142 O149 1.255 . S
O143 Fe132 1.976 . S
O143 C150 1.287 . S
O144 Fe133 1.992 1_565 S
O144 C150 1.230 1_565 S
O145 Fe135 1.976 . S
O145 C140 1.287 . S
O146 Fe132 1.996 . S
O146 C140 1.255 . S
C147 O151 1.296 1_545 S
C147 O152 1.235 . S
O148 Fe133 1.976 1_565 S
O148 C142 1.287 . S
O149 Fe135 1.996 1_565 S
O149 C142 1.255 . S
C150 O143 1.287 . S
C150 O144 1.230 1_545 S
O151 Fe133 2.003 1_565 S
O151 C147 1.296 1_565 S
O152 Fe135 1.997 . S
O152 C147 1.235 . S
C153 O136 1.295 . S
C153 O137 1.235 . S
Fe154 O156 1.918 . S
Fe154 O159 1.997 . S
Fe154 O160 2.002 . S
Fe154 O165 1.976 . S
Fe154 O168 1.996 . S
Fe155 O156 1.918 . S
Fe155 O163 1.997 . S
Fe155 O166 1.996 . S
Fe155 O170 1.976 . S
Fe155 O173 2.002 . S
O156 Fe154 1.918 . S
O156 Fe155 1.918 . S
O156 Fe157 1.918 . S
Fe157 O156 1.918 . S
Fe157 O158 2.002 . S
Fe157 O167 1.976 . S
Fe157 O171 1.996 . S
Fe157 O174 1.997 . S
O158 Fe157 2.002 . S
O158 C175 1.295 . S
O159 Fe154 1.997 . S
O159 C175 1.235 . S
O160 Fe154 2.002 . S
O160 C161 1.295 . S
C161 O160 1.295 . S
C161 O163 1.235 . S
C162 O167 1.287 . S
C162 O168 1.255 . S
O163 Fe155 1.997 . S
O163 C161 1.235 . S
C164 O170 1.287 . S
C164 O171 1.255 . S
O165 Fe154 1.976 . S
O165 C172 1.287 . S
O166 Fe155 1.996 . S
O166 C172 1.255 . S
O167 Fe157 1.976 . S
O167 C162 1.287 . S
O168 Fe154 1.996 . S
O168 C162 1.255 . S
C169 O173 1.295 . S
C169 O174 1.235 . S
O170 Fe155 1.976 . S
O170 C164 1.287 . S
O171 Fe157 1.996 . S
O171 C164 1.255 . S
C172 O165 1.287 . S
C172 O166 1.255 . S
O173 Fe155 2.002 . S
O173 C169 1.295 . S
O174 Fe157 1.997 . S
O174 C169 1.235 . S
C175 O158 1.295 . S
C175 O159 1.235 . S
Fe176 O178 1.918 . S
Fe176 O181 1.997 . S
Fe176 O182 2.002 . S
Fe176 O187 1.976 . S
Fe176 O190 1.996 . S
Fe177 O178 1.918 . S
Fe177 O185 1.997 . S
Fe177 O188 1.996 . S
Fe177 O192 1.976 . S
Fe177 O195 2.002 . S
O178 Fe176 1.918 . S
O178 Fe177 1.918 . S
O178 Fe179 1.918 . S
Fe179 O178 1.918 . S
Fe179 O180 2.002 . S
Fe179 O189 1.976 . S
Fe179 O193 1.996 . S
Fe179 O196 1.997 . S
O180 Fe179 2.002 . S
O180 C197 1.295 . S
O181 Fe176 1.997 . S
O181 C197 1.235 . S
O182 Fe176 2.002 . S
O182 C183 1.295 . S
C183 O182 1.295 . S
C183 O185 1.235 . S
C184 O189 1.287 . S
C184 O190 1.255 . S
O185 Fe177 1.997 . S
O185 C183 1.235 . S
C186 O192 1.287 . S
C186 O193 1.255 . S
O187 Fe176 1.976 . S
O187 C194 1.287 . S
O188 Fe177 1.996 . S
O188 C194 1.255 . S
O189 Fe179 1.976 . S
O189 C184 1.287 . S
O190 Fe176 1.996 . S
O190 C184 1.255 . S
C191 O195 1.295 . S
C191 O196 1.235 . S
O192 Fe177 1.976 . S
O192 C186 1.287 . S
O193 Fe179 1.996 . S
O193 C186 1.255 . S
C194 O187 1.287 . S
C194 O188 1.255 . S
O195 Fe177 2.002 . S
O195 C191 1.295 . S
O196 Fe179 1.997 . S
O196 C191 1.235 . S
C197 O180 1.295 . S
C197 O181 1.235 . S
Fe198 O200 1.918 . S
Fe198 O203 1.997 . S
Fe198 O204 2.003 1_455 S
Fe198 O209 1.976 1_455 S
Fe198 O212 1.992 1_455 S
Fe199 O200 1.918 . S
Fe199 O207 1.997 . S
Fe199 O210 1.996 1_455 S
Fe199 O214 1.976 . S
Fe199 O217 2.002 . S
O200 Fe198 1.918 . S
O200 Fe199 1.918 . S
O200 Fe201 1.918 . S
Fe201 O200 1.918 . S
Fe201 O202 2.002 . S
Fe201 O211 1.976 . S
Fe201 O215 1.996 . S
Fe201 O218 1.997 . S
O202 Fe201 2.002 . S
O202 C219 1.295 . S
O203 Fe198 1.997 . S
O203 C219 1.235 . S
O204 Fe198 2.003 1_655 S
O204 C205 1.296 1_655 S
C205 O204 1.296 1_455 S
C205 O207 1.235 . S
C206 O211 1.287 . S
C206 O212 1.230 1_455 S
O207 Fe199 1.997 . S
O207 C205 1.235 . S
C208 O214 1.287 . S
C208 O215 1.255 . S
O209 Fe198 1.976 1_655 S
O209 C216 1.287 . S
O210 Fe199 1.996 1_655 S
O210 C216 1.255 . S
O211 Fe201 1.976 . S
O211 C206 1.287 . S
O212 Fe198 1.992 1_655 S
O212 C206 1.230 1_655 S
C213 O217 1.295 . S
C213 O218 1.235 . S
O214 Fe199 1.976 . S
O214 C208 1.287 . S
O215 Fe201 1.996 . S
O215 C208 1.255 . S
C216 O209 1.287 . S
C216 O210 1.255 . S
O217 Fe199 2.002 . S
O217 C213 1.295 . S
O218 Fe201 1.997 . S
O218 C213 1.235 . S
C219 O202 1.295 . S
C219 O203 1.235 . S
Fe220 O222 1.918 . S
Fe220 O225 1.997 . S
Fe220 O226 2.003 1_545 S
Fe220 O231 1.976 1_545 S
Fe220 O234 1.993 1_545 S
Fe221 O222 1.918 . S
Fe221 O229 1.997 . S
Fe221 O232 1.996 1_545 S
Fe221 O236 1.976 . S
Fe221 O239 2.002 . S
O222 Fe220 1.918 . S
O222 Fe221 1.918 . S
O222 Fe223 1.918 . S
Fe223 O222 1.918 . S
Fe223 O224 2.002 . S
Fe223 O233 1.976 . S
Fe223 O237 1.996 . S
Fe223 O240 1.997 . S
O224 Fe223 2.002 . S
O224 C241 1.295 . S
O225 Fe220 1.997 . S
O225 C241 1.235 . S
O226 Fe220 2.003 1_565 S
O226 C227 1.296 1_565 S
C227 O226 1.296 1_545 S
C227 O229 1.235 . S
C228 O233 1.287 . S
C228 O234 1.230 1_545 S
O229 Fe221 1.997 . S
O229 C227 1.235 . S
C230 O236 1.287 . S
C230 O237 1.255 . S
O231 Fe220 1.976 1_565 S
O231 C238 1.287 . S
O232 Fe221 1.996 1_565 S
O232 C238 1.255 . S
O233 Fe223 1.976 . S
O233 C228 1.287 . S
O234 Fe220 1.993 1_565 S
O234 C228 1.230 1_565 S
C235 O239 1.295 . S
C235 O240 1.235 . S
O236 Fe221 1.976 . S
O236 C230 1.287 . S
O237 Fe223 1.996 . S
O237 C230 1.255 . S
C238 O231 1.287 . S
C238 O232 1.255 . S
O239 Fe221 2.002 . S
O239 C235 1.295 . S
O240 Fe223 1.997 . S
O240 C235 1.235 . S
C241 O224 1.295 . S
C241 O225 1.235 . S
Fe242 O244 1.918 . S
Fe242 O247 1.997 . S
Fe242 O248 2.002 . S
Fe242 O253 1.976 . S
Fe242 O256 1.996 . S
Fe243 O244 1.918 . S
Fe243 O251 1.997 . S
Fe243 O254 1.996 . S
Fe243 O258 1.976 . S
Fe243 O261 2.002 . S
O244 Fe242 1.918 . S
O244 Fe243 1.918 . S
O244 Fe245 1.918 . S
Fe245 O244 1.918 . S
Fe245 O246 2.002 . S
Fe245 O255 1.976 . S
Fe245 O259 1.996 . S
Fe245 O262 1.997 . S
O246 Fe245 2.002 . S
O246 C263 1.295 . S
O247 Fe242 1.997 . S
O247 C263 1.235 . S
O248 Fe242 2.002 . S
O248 C249 1.295 . S
C249 O248 1.295 . S
C249 O251 1.235 . S
C250 O255 1.287 . S
C250 O256 1.255 . S
O251 Fe243 1.997 . S
O251 C249 1.235 . S
C252 O258 1.287 . S
C252 O259 1.255 . S
O253 Fe242 1.976 . S
O253 C260 1.287 . S
O254 Fe243 1.996 . S
O254 C260 1.255 . S
O255 Fe245 1.976 . S
O255 C250 1.287 . S
O256 Fe242 1.996 . S
O256 C250 1.255 . S
C257 O261 1.295 . S
C257 O262 1.235 . S
O258 Fe243 1.976 . S
O258 C252 1.287 . S
O259 Fe245 1.996 . S
O259 C252 1.255 . S
C260 O253 1.287 . S
C260 O254 1.255 . S
O261 Fe243 2.002 . S
O261 C257 1.295 . S
O262 Fe245 1.997 . S
O262 C257 1.235 . S
C263 O246 1.295 . S
C263 O247 1.235 . S
Fe264 O266 1.918 . S
Fe264 O269 1.997 . S
Fe264 O270 2.002 . S
Fe264 O275 1.976 . S
Fe264 O278 1.996 . S
Fe265 O266 1.918 . S
Fe265 O273 1.997 . S
Fe265 O276 1.996 . S
Fe265 O280 1.976 . S
Fe265 O283 2.002 . S
O266 Fe264 1.918 . S
O266 Fe265 1.918 . S
O266 Fe267 1.918 . S
Fe267 O266 1.918 . S
Fe267 O268 2.002 . S
Fe267 O277 1.976 . S
Fe267 O281 1.996 . S
Fe267 O284 1.997 . S
O268 Fe267 2.002 . S
O268 C285 1.295 . S
O269 Fe264 1.997 . S
O269 C285 1.235 . S
O270 Fe264 2.002 . S
O270 C271 1.295 . S
C271 O270 1.295 . S
C271 O273 1.235 . S
C272 O277 1.287 . S
C272 O278 1.255 . S
O273 Fe265 1.997 . S
O273 C271 1.235 . S
C274 O280 1.287 . S
C274 O281 1.255 . S
O275 Fe264 1.976 . S
O275 C282 1.287 . S
O276 Fe265 1.996 . S
O276 C282 1.255 . S
O277 Fe267 1.976 . S
O277 C272 1.287 . S
O278 Fe264 1.996 . S
O278 C272 1.255 . S
C279 O283 1.295 . S
C279 O284 1.235 . S
O280 Fe265 1.976 . S
O280 C274 1.287 . S
O281 Fe267 1.996 . S
O281 C274 1.255 . S
C282 O275 1.287 . S
C282 O276 1.255 . S
O283 Fe265 2.002 . S
O283 C279 1.295 . S
O284 Fe267 1.997 . S
O284 C279 1.235 . S
C285 O268 1.295 . S
C285 O269 1.235 . S
Fe286 O288 1.918 . S
Fe286 O291 1.997 . S
Fe286 O292 2.002 . S
Fe286 O297 1.976 . S
Fe286 O300 1.996 . S
Fe287 O288 1.918 . S
Fe287 O295 1.997 . S
Fe287 O298 1.993 1_655 S
Fe287 O302 1.976 1_655 S
Fe287 O305 2.003 1_655 S
O288 Fe286 1.918 . S
O288 Fe287 1.918 . S
O288 Fe289 1.918 . S
Fe289 O288 1.918 . S
Fe289 O290 2.002 . S
Fe289 O299 1.976 . S
Fe289 O303 1.996 1_655 S
Fe289 O306 1.997 . S
O290 Fe289 2.002 . S
O290 C307 1.295 . S
O291 Fe286 1.997 . S
O291 C307 1.235 . S
O292 Fe286 2.002 . S
O292 C293 1.295 . S
C293 O292 1.295 . S
C293 O295 1.235 . S
C294 O299 1.287 . S
C294 O300 1.255 . S
O295 Fe287 1.997 . S
O295 C293 1.235 . S
C296 O302 1.287 . S
C296 O303 1.255 . S
O297 Fe286 1.976 . S
O297 C304 1.287 . S
O298 Fe287 1.993 1_455 S
O298 C304 1.230 1_455 S
O299 Fe289 1.976 . S
O299 C294 1.287 . S
O300 Fe286 1.996 . S
O300 C294 1.255 . S
C301 O305 1.296 1_655 S
C301 O306 1.235 . S
O302 Fe287 1.976 1_455 S
O302 C296 1.287 . S
O303 Fe289 1.996 1_455 S
O303 C296 1.255 . S
C304 O297 1.287 . S
C304 O298 1.230 1_655 S
O305 Fe287 2.003 1_455 S
O305 C301 1.296 1_455 S
O306 Fe289 1.997 . S
O306 C301 1.235 . S
C307 O290 1.295 . S
C307 O291 1.235 . S
Fe308 O310 1.918 . S
Fe308 O313 1.997 . S
Fe308 O314 2.002 . S
Fe308 O319 1.976 . S
Fe308 O322 1.996 1_565 S
Fe309 O310 1.918 . S
Fe309 O317 1.997 . S
Fe309 O320 1.996 . S
Fe309 O324 1.976 . S
Fe309 O327 2.002 . S
O310 Fe308 1.918 . S
O310 Fe309 1.918 . S
O310 Fe311 1.918 . S
Fe311 O310 1.918 . S
Fe311 O312 2.003 1_565 S
Fe311 O321 1.976 1_565 S
Fe311 O325 1.992 1_565 S
Fe311 O328 1.997 . S
O312 Fe311 2.003 1_545 S
O312 C329 1.296 1_545 S
O313 Fe308 1.997 . S
O313 C329 1.235 . S
O314 Fe308 2.002 . S
O314 C315 1.295 . S
C315 O314 1.295 . S
C315 O317 1.235 . S
C316 O321 1.287 . S
C316 O322 1.255 . S
O317 Fe309 1.997 . S
O317 C315 1.235 . S
C318 O324 1.287 . S
C318 O325 1.230 1_565 S
O319 Fe308 1.976 . S
O319 C326 1.287 . S
O320 Fe309 1.996 . S
O320 C326 1.255 . S
O321 Fe311 1.976 1_545 S
O321 C316 1.287 . S
O322 Fe308 1.996 1_545 S
O322 C316 1.255 . S
C323 O327 1.295 . S
C323 O328 1.235 . S
O324 Fe309 1.976 . S
O324 C318 1.287 . S
O325 Fe311 1.992 1_545 S
O325 C318 1.230 1_545 S
C326 O319 1.287 . S
C326 O320 1.255 . S
O327 Fe309 2.002 . S
O327 C323 1.295 . S
O328 Fe311 1.997 . S
O328 C323 1.235 . S
C329 O312 1.296 1_565 S
C329 O313 1.235 . S
Fe330 O332 1.918 . S
Fe330 O335 1.997 . S
Fe330 O336 2.002 . S
Fe330 O341 1.976 . S
Fe330 O344 1.996 . S
Fe331 O332 1.918 . S
Fe331 O339 1.997 . S
Fe331 O342 1.996 . S
Fe331 O346 1.976 . S
Fe331 O349 2.002 . S
O332 Fe330 1.918 . S
O332 Fe331 1.918 . S
O332 Fe333 1.918 . S
Fe333 O332 1.918 . S
Fe333 O334 2.002 . S
Fe333 O343 1.976 . S
Fe333 O347 1.996 . S
Fe333 O350 1.997 . S
O334 Fe333 2.002 . S
O334 C351 1.295 . S
O335 Fe330 1.997 . S
O335 C351 1.235 . S
O336 Fe330 2.002 . S
O336 C337 1.295 . S
C337 O336 1.295 . S
C337 O339 1.235 . S
C338 O343 1.287 . S
C338 O344 1.255 . S
O339 Fe331 1.997 . S
O339 C337 1.235 . S
C340 O346 1.287 . S
C340 O347 1.255 . S
O341 Fe330 1.976 . S
O341 C348 1.287 . S
O342 Fe331 1.996 . S
O342 C348 1.255 . S
O343 Fe333 1.976 . S
O343 C338 1.287 . S
O344 Fe330 1.996 . S
O344 C338 1.255 . S
C345 O349 1.295 . S
C345 O350 1.235 . S
O346 Fe331 1.976 . S
O346 C340 1.287 . S
O347 Fe333 1.996 . S
O347 C340 1.255 . S
C348 O341 1.287 . S
C348 O342 1.255 . S
O349 Fe331 2.002 . S
O349 C345 1.295 . S
O350 Fe333 1.997 . S
O350 C345 1.235 . S
C351 O334 1.295 . S
C351 O335 1.235 . S
H352 C360 0.950 . S
H353 C365 0.950 . S
H354 C362 0.950 . S
H355 C364 0.950 . S
H356 C366 0.950 . S
H357 C368 0.950 . S
H358 C370 0.950 . S
H359 C371 0.950 . S
C360 H352 0.950 . S
C360 C361 1.386 . S
C360 C362 1.391 . S
C361 C360 1.386 . S
C361 C365 1.393 . S
C362 H354 0.950 . S
C362 C360 1.391 . S
C362 C363 1.400 . S
C363 C362 1.400 . S
C363 C364 1.398 . S
C363 C369 1.491 . S
C364 H355 0.950 . S
C364 C363 1.398 . S
C364 C365 1.391 . S
C365 H353 0.950 . S
C365 C361 1.393 . S
C365 C364 1.391 . S
C366 H356 0.950 . S
C366 C367 1.386 . S
C366 C368 1.391 . S
C367 C366 1.386 . S
C367 C371 1.393 . S
C368 H357 0.950 . S
C368 C366 1.391 . S
C368 C369 1.400 . S
C369 C363 1.491 . S
C369 C368 1.400 . S
C369 C370 1.398 . S
C370 H358 0.950 . S
C370 C369 1.398 . S
C370 C371 1.391 . S
C371 H359 0.950 . S
C371 C367 1.393 . S
C371 C370 1.391 . S
H372 C380 0.950 . S
H373 C385 0.950 . S
H374 C382 0.950 . S
H375 C384 0.950 1_556 S
H376 C386 0.950 . S
H377 C388 0.950 . S
H378 C390 0.950 1_554 S
H379 C391 0.950 . S
C380 H372 0.950 . S
C380 C381 1.386 . S
C380 C382 1.391 . S
C381 C380 1.386 . S
C381 C385 1.393 . S
C382 H374 0.950 . S
C382 C380 1.391 . S
C382 C383 1.400 . S
C383 C382 1.400 . S
C383 C384 1.398 . S
C383 C389 1.491 1_554 S
C384 H375 0.950 1_554 S
C384 C383 1.398 . S
C384 C385 1.391 . S
C385 H373 0.950 . S
C385 C381 1.393 . S
C385 C384 1.391 . S
C386 H376 0.950 . S
C386 C387 1.386 . S
C386 C388 1.391 . S
C387 C386 1.386 . S
C387 C391 1.393 . S
C388 H377 0.950 . S
C388 C386 1.391 . S
C388 C389 1.400 . S
C389 C383 1.491 1_556 S
C389 C388 1.400 . S
C389 C390 1.398 . S
C390 H378 0.950 1_556 S
C390 C389 1.398 . S
C390 C391 1.391 . S
C391 H379 0.950 . S
C391 C387 1.393 . S
C391 C390 1.391 . S
H392 C400 0.950 . S
H393 C405 0.950 . S
H394 C402 0.950 . S
H395 C404 0.950 . S
H396 C406 0.950 . S
H397 C408 0.950 . S
H398 C410 0.950 . S
H399 C411 0.950 . S
C400 H392 0.950 . S
C400 C401 1.386 . S
C400 C402 1.391 . S
C401 C400 1.386 . S
C401 C405 1.393 . S
C402 H394 0.950 . S
C402 C400 1.391 . S
C402 C403 1.400 . S
C403 C402 1.400 . S
C403 C404 1.398 . S
C403 C409 1.491 . S
C404 H395 0.950 . S
C404 C403 1.398 . S
C404 C405 1.391 . S
C405 H393 0.950 . S
C405 C401 1.393 . S
C405 C404 1.391 . S
C406 H396 0.950 . S
C406 C407 1.386 . S
C406 C408 1.391 . S
C407 C406 1.386 . S
C407 C411 1.393 . S
C408 H397 0.950 . S
C408 C406 1.391 . S
C408 C409 1.400 . S
C409 C403 1.491 . S
C409 C408 1.400 . S
C409 C410 1.398 . S
C410 H398 0.950 . S
C410 C409 1.398 . S
C410 C411 1.391 . S
C411 H399 0.950 . S
C411 C407 1.393 . S
C411 C410 1.391 . S
H412 C420 0.950 . S
H413 C425 0.950 . S
H414 C422 0.950 . S
H415 C424 0.950 . S
H416 C426 0.950 . S
H417 C428 0.950 . S
H418 C430 0.950 . S
H419 C431 0.950 . S
C420 H412 0.950 . S
C420 C421 1.386 . S
C420 C422 1.391 . S
C421 C420 1.386 . S
C421 C425 1.393 . S
C422 H414 0.950 . S
C422 C420 1.391 . S
C422 C423 1.400 . S
C423 C422 1.400 . S
C423 C424 1.398 . S
C423 C429 1.491 1_556 S
C424 H415 0.950 . S
C424 C423 1.398 . S
C424 C425 1.391 . S
C425 H413 0.950 . S
C425 C421 1.393 . S
C425 C424 1.391 . S
C426 H416 0.950 . S
C426 C427 1.386 . S
C426 C428 1.391 . S
C427 C426 1.386 . S
C427 C431 1.393 . S
C428 H417 0.950 . S
C428 C426 1.391 . S
C428 C429 1.400 . S
C429 C423 1.491 1_554 S
C429 C428 1.400 . S
C429 C430 1.398 . S
C430 H418 0.950 . S
C430 C429 1.398 . S
C430 C431 1.391 . S
C431 H419 0.950 . S
C431 C427 1.393 . S
C431 C430 1.391 . S
H432 C440 0.950 . S
H433 C445 0.950 . S
H434 C442 0.950 . S
H435 C444 0.950 . S
H436 C446 0.950 . S
H437 C448 0.950 . S
H438 C450 0.950 . S
H439 C451 0.950 . S
C440 H432 0.950 . S
C440 C441 1.386 . S
C440 C442 1.391 . S
C441 C440 1.386 . S
C441 C445 1.393 . S
C442 H434 0.950 . S
C442 C440 1.391 . S
C442 C443 1.400 . S
C443 C442 1.400 . S
C443 C444 1.398 . S
C443 C449 1.491 . S
C444 H435 0.950 . S
C444 C443 1.398 . S
C444 C445 1.391 . S
C445 H433 0.950 . S
C445 C441 1.393 . S
C445 C444 1.391 . S
C446 H436 0.950 . S
C446 C447 1.386 . S
C446 C448 1.391 . S
C447 C446 1.386 . S
C447 C451 1.393 . S
C448 H437 0.950 . S
C448 C446 1.391 . S
C448 C449 1.400 . S
C449 C443 1.491 . S
C449 C448 1.400 . S
C449 C450 1.398 . S
C450 H438 0.950 . S
C450 C449 1.398 . S
C450 C451 1.391 . S
C451 H439 0.950 . S
C451 C447 1.393 . S
C451 C450 1.391 . S
H452 C460 0.950 . S
H453 C465 0.950 . S
H454 C462 0.950 . S
H455 C464 0.950 . S
H456 C466 0.950 . S
H457 C468 0.950 . S
H458 C470 0.950 . S
H459 C471 0.950 . S
C460 H452 0.950 . S
C460 C461 1.386 . S
C460 C462 1.391 . S
C461 C460 1.386 . S
C461 C465 1.393 . S
C462 H454 0.950 . S
C462 C460 1.391 . S
C462 C463 1.400 . S
C463 C462 1.400 . S
C463 C464 1.398 . S
C463 C469 1.491 1_556 S
C464 H455 0.950 . S
C464 C463 1.398 . S
C464 C465 1.391 . S
C465 H453 0.950 . S
C465 C461 1.393 . S
C465 C464 1.391 . S
C466 H456 0.950 . S
C466 C467 1.386 . S
C466 C468 1.391 . S
C467 C466 1.386 . S
C467 C471 1.393 . S
C468 H457 0.950 . S
C468 C466 1.391 . S
C468 C469 1.400 . S
C469 C463 1.491 1_554 S
C469 C468 1.400 . S
C469 C470 1.398 . S
C470 H458 0.950 . S
C470 C469 1.398 . S
C470 C471 1.391 . S
C471 H459 0.950 . S
C471 C467 1.393 . S
C471 C470 1.391 . S
H472 C480 0.950 . S
H473 C485 0.950 . S
H474 C482 0.950 . S
H475 C484 0.950 . S
H476 C486 0.950 . S
H477 C488 0.950 . S
H478 C490 0.950 . S
H479 C491 0.950 . S
C480 H472 0.950 . S
C480 C481 1.386 . S
C480 C482 1.391 . S
C481 C480 1.386 . S
C481 C485 1.393 . S
C482 H474 0.950 . S
C482 C480 1.391 . S
C482 C483 1.400 . S
C483 C482 1.400 . S
C483 C484 1.398 . S
C483 C489 1.491 . S
C484 H475 0.950 . S
C484 C483 1.398 . S
C484 C485 1.391 . S
C485 H473 0.950 . S
C485 C481 1.393 . S
C485 C484 1.391 . S
C486 H476 0.950 . S
C486 C487 1.386 . S
C486 C488 1.391 . S
C487 C486 1.386 . S
C487 C491 1.393 . S
C488 H477 0.950 . S
C488 C486 1.391 . S
C488 C489 1.400 . S
C489 C483 1.491 . S
C489 C488 1.400 . S
C489 C490 1.398 . S
C490 H478 0.950 . S
C490 C489 1.398 . S
C490 C491 1.391 . S
C491 H479 0.950 . S
C491 C487 1.393 . S
C491 C490 1.391 . S
H492 C500 0.950 . S
H493 C505 0.950 . S
H494 C502 0.950 1_554 S
H495 C504 0.950 . S
H496 C506 0.950 . S
H497 C508 0.950 1_556 S
H498 C510 0.950 . S
H499 C511 0.950 . S
C500 H492 0.950 . S
C500 C501 1.386 . S
C500 C502 1.391 . S
C501 C500 1.386 . S
C501 C505 1.393 . S
C502 H494 0.950 1_556 S
C502 C500 1.391 . S
C502 C503 1.400 . S
C503 C502 1.400 . S
C503 C504 1.398 . S
C503 C509 1.491 1_556 S
C504 H495 0.950 . S
C504 C503 1.398 . S
C504 C505 1.391 . S
C505 H493 0.950 . S
C505 C501 1.393 . S
C505 C504 1.391 . S
C506 H496 0.950 . S
C506 C507 1.386 . S
C506 C508 1.391 . S
C507 C506 1.386 . S
C507 C511 1.393 . S
C508 H497 0.950 1_554 S
C508 C506 1.391 . S
C508 C509 1.400 . S
C509 C503 1.491 1_554 S
C509 C508 1.400 . S
C509 C510 1.398 . S
C510 H498 0.950 . S
C510 C509 1.398 . S
C510 C511 1.391 . S
C511 H499 0.950 . S
C511 C507 1.393 . S
C511 C510 1.391 . S
H512 C520 0.950 . S
H513 C525 0.950 . S
H514 C522 0.950 . S
H515 C524 0.950 . S
H516 C526 0.950 . S
H517 C528 0.950 . S
H518 C530 0.950 . S
H519 C531 0.950 . S
C520 H512 0.950 . S
C520 C521 1.386 . S
C520 C522 1.391 . S
C521 C520 1.386 . S
C521 C525 1.393 . S
C522 H514 0.950 . S
C522 C520 1.391 . S
C522 C523 1.400 . S
C523 C522 1.400 . S
C523 C524 1.398 . S
C523 C529 1.491 . S
C524 H515 0.950 . S
C524 C523 1.398 . S
C524 C525 1.391 . S
C525 H513 0.950 . S
C525 C521 1.393 . S
C525 C524 1.391 . S
C526 H516 0.950 . S
C526 C527 1.386 . S
C526 C528 1.391 . S
C527 C526 1.386 . S
C527 C531 1.393 . S
C528 H517 0.950 . S
C528 C526 1.391 . S
C528 C529 1.400 . S
C529 C523 1.491 . S
C529 C528 1.400 . S
C529 C530 1.398 . S
C530 H518 0.950 . S
C530 C529 1.398 . S
C530 C531 1.391 . S
C531 H519 0.950 . S
C531 C527 1.393 . S
C531 C530 1.391 . S
H532 C540 0.950 . S
H533 C545 0.950 . S
H534 C542 0.950 . S
H535 C544 0.950 . S
H536 C546 0.950 . S
H537 C548 0.950 . S
H538 C550 0.950 . S
H539 C551 0.950 . S
C540 H532 0.950 . S
C540 C541 1.386 . S
C540 C542 1.391 . S
C541 C540 1.386 . S
C541 C545 1.393 . S
C542 H534 0.950 . S
C542 C540 1.391 . S
C542 C543 1.400 . S
C543 C542 1.400 . S
C543 C544 1.398 . S
C543 C549 1.491 . S
C544 H535 0.950 . S
C544 C543 1.398 . S
C544 C545 1.391 . S
C545 H533 0.950 . S
C545 C541 1.393 . S
C545 C544 1.391 . S
C546 H536 0.950 . S
C546 C547 1.386 . S
C546 C548 1.391 . S
C547 C546 1.386 . S
C547 C551 1.393 . S
C548 H537 0.950 . S
C548 C546 1.391 . S
C548 C549 1.400 . S
C549 C543 1.491 . S
C549 C548 1.400 . S
C549 C550 1.398 . S
C550 H538 0.950 . S
C550 C549 1.398 . S
C550 C551 1.391 . S
C551 H539 0.950 . S
C551 C547 1.393 . S
C551 C550 1.391 . S
H552 C560 0.950 . S
H553 C565 0.950 . S
H554 C562 0.950 . S
H555 C564 0.950 . S
H556 C566 0.950 . S
H557 C568 0.950 . S
H558 C570 0.950 . S
H559 C571 0.950 . S
C560 H552 0.950 . S
C560 C561 1.386 . S
C560 C562 1.391 . S
C561 C560 1.386 . S
C561 C565 1.393 . S
C562 H554 0.950 . S
C562 C560 1.391 . S
C562 C563 1.400 . S
C563 C562 1.400 . S
C563 C564 1.398 . S
C563 C569 1.491 . S
C564 H555 0.950 . S
C564 C563 1.398 . S
C564 C565 1.391 . S
C565 H553 0.950 . S
C565 C561 1.393 . S
C565 C564 1.391 . S
C566 H556 0.950 . S
C566 C567 1.386 . S
C566 C568 1.391 . S
C567 C566 1.386 . S
C567 C571 1.393 . S
C568 H557 0.950 . S
C568 C566 1.391 . S
C568 C569 1.400 . S
C569 C563 1.491 . S
C569 C568 1.400 . S
C569 C570 1.398 . S
C570 H558 0.950 . S
C570 C569 1.398 . S
C570 C571 1.391 . S
C571 H559 0.950 . S
C571 C567 1.393 . S
C571 C570 1.391 . S
H572 C580 0.950 . S
H573 C585 0.950 . S
H574 C582 0.950 . S
H575 C584 0.950 . S
H576 C586 0.950 . S
H577 C588 0.950 . S
H578 C590 0.950 . S
H579 C591 0.950 . S
C580 H572 0.950 . S
C580 C581 1.386 . S
C580 C582 1.391 . S
C581 C580 1.386 . S
C581 C585 1.393 . S
C582 H574 0.950 . S
C582 C580 1.391 . S
C582 C583 1.400 . S
C583 C582 1.400 . S
C583 C584 1.398 . S
C583 C589 1.491 . S
C584 H575 0.950 . S
C584 C583 1.398 . S
C584 C585 1.391 . S
C585 H573 0.950 . S
C585 C581 1.393 . S
C585 C584 1.391 . S
C586 H576 0.950 . S
C586 C587 1.386 . S
C586 C588 1.391 . S
C587 C586 1.386 . S
C587 C591 1.393 . S
C588 H577 0.950 . S
C588 C586 1.391 . S
C588 C589 1.400 . S
C589 C583 1.491 . S
C589 C588 1.400 . S
C589 C590 1.398 . S
C590 H578 0.950 . S
C590 C589 1.398 . S
C590 C591 1.391 . S
C591 H579 0.950 . S
C591 C587 1.393 . S
C591 C590 1.391 . S
H592 C600 0.950 . S
H593 C605 0.950 . S
H594 C602 0.950 . S
H595 C604 0.950 . S
H596 C606 0.950 . S
H597 C608 0.950 . S
H598 C610 0.950 . S
H599 C611 0.950 . S
C600 H592 0.950 . S
C600 C601 1.386 . S
C600 C602 1.391 . S
C601 C600 1.386 . S
C601 C605 1.393 . S
C602 H594 0.950 . S
C602 C600 1.391 . S
C602 C603 1.400 . S
C603 C602 1.400 . S
C603 C604 1.398 . S
C603 C609 1.491 . S
C604 H595 0.950 . S
C604 C603 1.398 . S
C604 C605 1.391 . S
C605 H593 0.950 . S
C605 C601 1.393 . S
C605 C604 1.391 . S
C606 H596 0.950 . S
C606 C607 1.386 . S
C606 C608 1.391 . S
C607 C606 1.386 . S
C607 C611 1.393 . S
C608 H597 0.950 . S
C608 C606 1.391 . S
C608 C609 1.400 . S
C609 C603 1.491 . S
C609 C608 1.400 . S
C609 C610 1.398 . S
C610 H598 0.950 . S
C610 C609 1.398 . S
C610 C611 1.391 . S
C611 H599 0.950 . S
C611 C607 1.393 . S
C611 C610 1.391 . S
H612 C620 0.950 . S
H613 C625 0.950 . S
H614 C622 0.950 . S
H615 C624 0.950 . S
H616 C626 0.950 . S
H617 C628 0.950 . S
H618 C630 0.950 . S
H619 C631 0.950 . S
C620 H612 0.950 . S
C620 C621 1.386 . S
C620 C622 1.391 . S
C621 C620 1.386 . S
C621 C625 1.393 . S
C622 H614 0.950 . S
C622 C620 1.391 . S
C622 C623 1.400 . S
C623 C622 1.400 . S
C623 C624 1.398 . S
C623 C629 1.491 . S
C624 H615 0.950 . S
C624 C623 1.398 . S
C624 C625 1.391 . S
C625 H613 0.950 . S
C625 C621 1.393 . S
C625 C624 1.391 . S
C626 H616 0.950 . S
C626 C627 1.386 . S
C626 C628 1.391 . S
C627 C626 1.386 . S
C627 C631 1.393 . S
C628 H617 0.950 . S
C628 C626 1.391 . S
C628 C629 1.400 . S
C629 C623 1.491 . S
C629 C628 1.400 . S
C629 C630 1.398 . S
C630 H618 0.950 . S
C630 C629 1.398 . S
C630 C631 1.391 . S
C631 H619 0.950 . S
C631 C627 1.393 . S
C631 C630 1.391 . S
H632 C640 0.950 . S
H633 C645 0.950 . S
H634 C642 0.950 . S
H635 C644 0.950 . S
H636 C646 0.950 . S
H637 C648 0.950 . S
H638 C650 0.950 . S
H639 C651 0.950 . S
C640 H632 0.950 . S
C640 C641 1.386 . S
C640 C642 1.391 . S
C641 C640 1.386 . S
C641 C645 1.393 . S
C642 H634 0.950 . S
C642 C640 1.391 . S
C642 C643 1.400 . S
C643 C642 1.400 . S
C643 C644 1.398 . S
C643 C649 1.491 . S
C644 H635 0.950 . S
C644 C643 1.398 . S
C644 C645 1.391 . S
C645 H633 0.950 . S
C645 C641 1.393 . S
C645 C644 1.391 . S
C646 H636 0.950 . S
C646 C647 1.386 . S
C646 C648 1.391 . S
C647 C646 1.386 . S
C647 C651 1.393 . S
C648 H637 0.950 . S
C648 C646 1.391 . S
C648 C649 1.400 . S
C649 C643 1.491 . S
C649 C648 1.400 . S
C649 C650 1.398 . S
C650 H638 0.950 . S
C650 C649 1.398 . S
C650 C651 1.391 . S
C651 H639 0.950 . S
C651 C647 1.393 . S
C651 C650 1.391 . S
H652 C660 0.950 . S
H653 C665 0.950 . S
H654 C662 0.950 . S
H655 C664 0.950 . S
H656 C666 0.950 . S
H657 C668 0.950 . S
H658 C670 0.950 . S
H659 C671 0.950 . S
C660 H652 0.950 . S
C660 C661 1.386 . S
C660 C662 1.391 . S
C661 C660 1.386 . S
C661 C665 1.393 . S
C662 H654 0.950 . S
C662 C660 1.391 . S
C662 C663 1.400 . S
C663 C662 1.400 . S
C663 C664 1.398 . S
C663 C669 1.491 . S
C664 H655 0.950 . S
C664 C663 1.398 . S
C664 C665 1.391 . S
C665 H653 0.950 . S
C665 C661 1.393 . S
C665 C664 1.391 . S
C666 H656 0.950 . S
C666 C667 1.386 . S
C666 C668 1.391 . S
C667 C666 1.386 . S
C667 C671 1.393 . S
C668 H657 0.950 . S
C668 C666 1.391 . S
C668 C669 1.400 . S
C669 C663 1.491 . S
C669 C668 1.400 . S
C669 C670 1.398 . S
C670 H658 0.950 . S
C670 C669 1.398 . S
C670 C671 1.391 . S
C671 H659 0.950 . S
C671 C667 1.393 . S
C671 C670 1.391 . S
H672 C680 0.950 . S
H673 C685 0.950 . S
H674 C682 0.950 . S
H675 C684 0.950 . S
H676 C686 0.950 . S
H677 C688 0.950 . S
H678 C690 0.950 . S
H679 C691 0.950 . S
C680 H672 0.950 . S
C680 C681 1.386 . S
C680 C682 1.391 1_556 S
C681 C680 1.386 . S
C681 C685 1.393 . S
C682 H674 0.950 . S
C682 C680 1.391 1_554 S
C682 C683 1.400 . S
C683 C682 1.400 . S
C683 C684 1.398 . S
C683 C689 1.491 . S
C684 H675 0.950 . S
C684 C683 1.398 . S
C684 C685 1.391 1_554 S
C685 H673 0.950 . S
C685 C681 1.393 . S
C685 C684 1.391 1_556 S
C686 H676 0.950 . S
C686 C687 1.386 . S
C686 C688 1.391 . S
C687 C686 1.386 . S
C687 C691 1.393 . S
C688 H677 0.950 . S
C688 C686 1.391 . S
C688 C689 1.400 . S
C689 C683 1.491 . S
C689 C688 1.400 . S
C689 C690 1.398 . S
C690 H678 0.950 . S
C690 C689 1.398 . S
C690 C691 1.391 . S
C691 H679 0.950 . S
C691 C687 1.393 . S
C691 C690 1.391 . S
H692 C700 0.950 . S
H693 C705 0.950 . S
H694 C702 0.950 . S
H695 C704 0.950 . S
H696 C706 0.950 . S
H697 C708 0.950 . S
H698 C710 0.950 . S
H699 C711 0.950 . S
C700 H692 0.950 . S
C700 C701 1.386 . S
C700 C702 1.391 . S
C701 C700 1.386 . S
C701 C705 1.393 1_655 S
C702 H694 0.950 . S
C702 C700 1.391 . S
C702 C703 1.400 . S
C703 C702 1.400 . S
C703 C704 1.398 1_655 S
C703 C709 1.491 . S
C704 H695 0.950 . S
C704 C703 1.398 1_455 S
C704 C705 1.391 . S
C705 H693 0.950 . S
C705 C701 1.393 1_455 S
C705 C704 1.391 . S
C706 H696 0.950 . S
C706 C707 1.386 1_455 S
C706 C708 1.391 . S
C707 C706 1.386 1_655 S
C707 C711 1.393 . S
C708 H697 0.950 . S
C708 C706 1.391 . S
C708 C709 1.400 1_455 S
C709 C703 1.491 . S
C709 C708 1.400 1_655 S
C709 C710 1.398 . S
C710 H698 0.950 . S
C710 C709 1.398 . S
C710 C711 1.391 . S
C711 H699 0.950 . S
C711 C707 1.393 . S
C711 C710 1.391 . S
H712 C720 0.950 . S
H713 C725 0.953 . S
H714 C722 0.950 . S
H715 C724 0.961 . S
H716 C726 0.950 . S
H717 C728 0.950 . S
H718 C730 0.950 . S
H719 C731 0.950 . S
C720 H712 0.950 . S
C720 C721 1.386 . S
C720 C722 1.391 1_556 S
C721 C720 1.386 . S
C721 C725 1.390 1_565 S
C722 H714 0.950 . S
C722 C720 1.391 1_554 S
C722 C723 1.400 . S
C723 C722 1.400 . S
C723 C724 1.388 1_565 S
C723 C729 1.491 . S
C724 H715 0.961 . S
C724 C723 1.388 1_545 S
C724 C725 1.390 1_554 S
C725 H713 0.953 . S
C725 C721 1.390 1_545 S
C725 C724 1.390 1_556 S
C726 H716 0.950 . S
C726 C727 1.386 1_545 S
C726 C728 1.391 . S
C727 C726 1.386 1_565 S
C727 C731 1.393 . S
C728 H717 0.950 . S
C728 C726 1.391 . S
C728 C729 1.400 1_545 S
C729 C723 1.491 . S
C729 C728 1.400 1_565 S
C729 C730 1.398 . S
C730 H718 0.950 . S
C730 C729 1.398 . S
C730 C731 1.391 . S
C731 H719 0.950 . S
C731 C727 1.393 . S
C731 C730 1.391 . S
H732 C740 0.950 . S
H733 C745 0.950 . S
H734 C742 0.950 . S
H735 C744 0.950 . S
H736 C746 0.950 . S
H737 C748 0.950 . S
H738 C750 0.950 . S
H739 C751 0.950 . S
C740 H732 0.950 . S
C740 C741 1.386 . S
C740 C742 1.391 . S
C741 C740 1.386 . S
C741 C745 1.393 . S
C742 H734 0.950 . S
C742 C740 1.391 . S
C742 C743 1.400 . S
C743 C742 1.400 . S
C743 C744 1.398 . S
C743 C749 1.491 . S
C744 H735 0.950 . S
C744 C743 1.398 . S
C744 C745 1.391 . S
C745 H733 0.950 . S
C745 C741 1.393 . S
C745 C744 1.391 . S
C746 H736 0.950 . S
C746 C747 1.386 . S
C746 C748 1.391 . S
C747 C746 1.386 . S
C747 C751 1.393 . S
C748 H737 0.950 . S
C748 C746 1.391 . S
C748 C749 1.400 . S
C749 C743 1.491 . S
C749 C748 1.400 . S
C749 C750 1.398 . S
C750 H738 0.950 . S
C750 C749 1.398 . S
C750 C751 1.391 . S
C751 H739 0.950 . S
C751 C747 1.393 . S
C751 C750 1.391 . S
H752 C760 0.950 . S
H753 C765 0.950 . S
H754 C762 0.950 . S
H755 C764 0.950 . S
H756 C766 0.950 . S
H757 C768 0.950 . S
H758 C770 0.950 . S
H759 C771 0.950 . S
C760 H752 0.950 . S
C760 C761 1.386 . S
C760 C762 1.391 . S
C761 C760 1.386 . S
C761 C765 1.393 . S
C762 H754 0.950 . S
C762 C760 1.391 . S
C762 C763 1.400 . S
C763 C762 1.400 . S
C763 C764 1.398 . S
C763 C769 1.491 . S
C764 H755 0.950 . S
C764 C763 1.398 . S
C764 C765 1.391 . S
C765 H753 0.950 . S
C765 C761 1.393 . S
C765 C764 1.391 . S
C766 H756 0.950 . S
C766 C767 1.386 . S
C766 C768 1.391 . S
C767 C766 1.386 . S
C767 C771 1.393 . S
C768 H757 0.950 . S
C768 C766 1.391 . S
C768 C769 1.400 . S
C769 C763 1.491 . S
C769 C768 1.400 . S
C769 C770 1.398 . S
C770 H758 0.950 . S
C770 C769 1.398 . S
C770 C771 1.391 . S
C771 H759 0.950 . S
C771 C767 1.393 . S
C771 C770 1.391 . S
H772 C780 0.950 . S
H773 C785 0.950 . S
H774 C782 0.950 . S
H775 C784 0.950 . S
H776 C786 0.950 . S
H777 C788 0.950 . S
H778 C790 0.950 . S
H779 C791 0.950 . S
C780 H772 0.950 . S
C780 C781 1.386 1_655 S
C780 C782 1.391 . S
C781 C780 1.386 1_455 S
C781 C785 1.393 . S
C782 H774 0.950 . S
C782 C780 1.391 . S
C782 C783 1.400 1_655 S
C783 C782 1.400 1_455 S
C783 C784 1.398 . S
C783 C789 1.491 . S
C784 H775 0.950 . S
C784 C783 1.398 . S
C784 C785 1.391 . S
C785 H773 0.950 . S
C785 C781 1.393 . S
C785 C784 1.391 . S
C786 H776 0.950 . S
C786 C787 1.386 . S
C786 C788 1.391 1_554 S
C787 C786 1.386 . S
C787 C791 1.393 1_455 S
C788 H777 0.950 . S
C788 C786 1.391 1_556 S
C788 C789 1.400 . S
C789 C783 1.491 . S
C789 C788 1.400 . S
C789 C790 1.398 1_455 S
C790 H778 0.950 . S
C790 C789 1.398 1_655 S
C790 C791 1.391 1_556 S
C791 H779 0.950 . S
C791 C787 1.393 1_655 S
C791 C790 1.391 1_554 S
H792 C800 0.950 . S
H793 C805 0.950 . S
H794 C802 0.950 . S
H795 C804 0.950 . S
H796 C806 0.950 . S
H797 C808 0.950 . S
H798 C810 0.950 . S
H799 C811 0.950 . S
C800 H792 0.950 . S
C800 C801 1.386 . S
C800 C802 1.391 . S
C801 C800 1.386 . S
C801 C805 1.393 1_545 S
C802 H794 0.950 . S
C802 C800 1.391 . S
C802 C803 1.400 . S
C803 C802 1.400 . S
C803 C804 1.398 1_545 S
C803 C809 1.491 . S
C804 H795 0.950 . S
C804 C803 1.398 1_565 S
C804 C805 1.391 . S
C805 H793 0.950 . S
C805 C801 1.393 1_565 S
C805 C804 1.391 . S
C806 H796 0.950 . S
C806 C807 1.386 1_565 S
C806 C808 1.391 . S
C807 C806 1.386 1_545 S
C807 C811 1.393 . S
C808 H797 0.950 . S
C808 C806 1.391 . S
C808 C809 1.400 1_565 S
C809 C803 1.491 . S
C809 C808 1.400 1_545 S
C809 C810 1.398 . S
C810 H798 0.950 . S
C810 C809 1.398 . S
C810 C811 1.391 . S
C811 H799 0.950 . S
C811 C807 1.393 . S
C811 C810 1.391 . S
H812 C820 0.950 . S
H813 C825 0.950 . S
H814 C822 0.950 . S
H815 C824 0.950 . S
H816 C826 0.950 . S
H817 C828 0.950 . S
H818 C830 0.950 . S
H819 C831 0.950 . S
C820 H812 0.950 . S
C820 C821 1.386 . S
C820 C822 1.391 1_554 S
C821 C820 1.386 . S
C821 C825 1.393 . S
C822 H814 0.950 . S
C822 C820 1.391 1_556 S
C822 C823 1.400 . S
C823 C822 1.400 . S
C823 C824 1.398 . S
C823 C829 1.491 . S
C824 H815 0.950 . S
C824 C823 1.398 . S
C824 C825 1.391 1_556 S
C825 H813 0.950 . S
C825 C821 1.393 . S
C825 C824 1.391 1_554 S
C826 H816 0.950 . S
C826 C827 1.386 . S
C826 C828 1.391 . S
C827 C826 1.386 . S
C827 C831 1.393 . S
C828 H817 0.950 . S
C828 C826 1.391 . S
C828 C829 1.400 . S
C829 C823 1.491 . S
C829 C828 1.400 . S
C829 C830 1.398 . S
C830 H818 0.950 . S
C830 C829 1.398 . S
C830 C831 1.391 . S
C831 H819 0.950 . S
C831 C827 1.393 . S
C831 C830 1.391 . S
H832 C840 0.950 . S
H833 C845 0.950 . S
H834 C842 0.950 . S
H835 C844 0.950 . S
H836 C846 0.950 . S
H837 C848 0.950 . S
H838 C850 0.950 . S
H839 C851 0.950 . S
C840 H832 0.950 . S
C840 C841 1.386 . S
C840 C842 1.391 . S
C841 C840 1.386 . S
C841 C845 1.393 . S
C842 H834 0.950 . S
C842 C840 1.391 . S
C842 C843 1.400 . S
C843 C842 1.400 . S
C843 C844 1.398 . S
C843 C849 1.491 . S
C844 H835 0.950 . S
C844 C843 1.398 . S
C844 C845 1.391 . S
C845 H833 0.950 . S
C845 C841 1.393 . S
C845 C844 1.391 . S
C846 H836 0.950 . S
C846 C847 1.386 . S
C846 C848 1.391 1_554 S
C847 C846 1.386 . S
C847 C851 1.393 . S
C848 H837 0.950 . S
C848 C846 1.391 1_556 S
C848 C849 1.400 . S
C849 C843 1.491 . S
C849 C848 1.400 . S
C849 C850 1.398 . S
C850 H838 0.950 . S
C850 C849 1.398 . S
C850 C851 1.391 1_556 S
C851 H839 0.950 . S
C851 C847 1.393 . S
C851 C850 1.391 1_554 S
H852 C860 0.950 . S
H853 C865 0.950 . S
H854 C862 0.950 . S
H855 C864 0.950 . S
H856 C866 0.950 . S
H857 C868 0.950 . S
H858 C870 0.950 . S
H859 C871 0.950 . S
C860 H852 0.950 . S
C860 C861 1.386 . S
C860 C862 1.391 . S
C861 C860 1.386 . S
C861 C865 1.393 1_455 S
C862 H854 0.950 . S
C862 C860 1.391 . S
C862 C863 1.400 . S
C863 C862 1.400 . S
C863 C864 1.398 1_455 S
C863 C869 1.491 . S
C864 H855 0.950 . S
C864 C863 1.398 1_655 S
C864 C865 1.391 . S
C865 H853 0.950 . S
C865 C861 1.393 1_655 S
C865 C864 1.391 . S
C866 H856 0.950 . S
C866 C867 1.386 1_655 S
C866 C868 1.391 . S
C867 C866 1.386 1_455 S
C867 C871 1.393 . S
C868 H857 0.950 . S
C868 C866 1.391 . S
C868 C869 1.400 1_655 S
C869 C863 1.491 . S
C869 C868 1.400 1_455 S
C869 C870 1.398 . S
C870 H858 0.950 . S
C870 C869 1.398 . S
C870 C871 1.391 . S
C871 H859 0.950 . S
C871 C867 1.393 . S
C871 C870 1.391 . S
H872 C880 0.950 . S
H873 C885 0.950 . S
H874 C882 0.950 . S
H875 C884 0.950 . S
H876 C886 0.950 . S
H877 C888 0.950 . S
H878 C890 0.950 . S
H879 C891 0.950 . S
C880 H872 0.950 . S
C880 C881 1.386 . S
C880 C882 1.391 1_554 S
C881 C880 1.386 . S
C881 C885 1.393 1_545 S
C882 H874 0.950 . S
C882 C880 1.391 1_556 S
C882 C883 1.400 . S
C883 C882 1.400 . S
C883 C884 1.398 1_545 S
C883 C889 1.491 . S
C884 H875 0.950 . S
C884 C883 1.398 1_565 S
C884 C885 1.391 1_556 S
C885 H873 0.950 . S
C885 C881 1.393 1_565 S
C885 C884 1.391 1_554 S
C886 H876 0.950 . S
C886 C887 1.386 1_565 S
C886 C888 1.391 . S
C887 C886 1.386 1_545 S
C887 C891 1.393 . S
C888 H877 0.950 . S
C888 C886 1.391 . S
C888 C889 1.400 1_565 S
C889 C883 1.491 . S
C889 C888 1.400 1_545 S
C889 C890 1.398 . S
C890 H878 0.950 . S
C890 C889 1.398 . S
C890 C891 1.391 . S
C891 H879 0.950 . S
C891 C887 1.393 . S
C891 C890 1.391 . S
H892 C900 0.950 . S
H893 C905 0.950 . S
H894 C902 0.950 . S
H895 C904 0.950 . S
H896 C906 0.950 . S
H897 C908 0.950 . S
H898 C910 0.950 . S
H899 C911 0.950 . S
C900 H892 0.950 . S
C900 C901 1.386 . S
C900 C902 1.391 . S
C901 C900 1.386 . S
C901 C905 1.393 . S
C902 H894 0.950 . S
C902 C900 1.391 . S
C902 C903 1.400 . S
C903 C902 1.400 . S
C903 C904 1.398 . S
C903 C909 1.491 . S
C904 H895 0.950 . S
C904 C903 1.398 . S
C904 C905 1.391 . S
C905 H893 0.950 . S
C905 C901 1.393 . S
C905 C904 1.391 . S
C906 H896 0.950 . S
C906 C907 1.386 . S
C906 C908 1.391 . S
C907 C906 1.386 . S
C907 C911 1.393 . S
C908 H897 0.950 . S
C908 C906 1.391 . S
C908 C909 1.400 . S
C909 C903 1.491 . S
C909 C908 1.400 . S
C909 C910 1.398 . S
C910 H898 0.950 . S
C910 C909 1.398 . S
C910 C911 1.391 . S
C911 H899 0.950 . S
C911 C907 1.393 . S
C911 C910 1.391 . S
H912 C920 0.950 . S
H913 C925 0.950 . S
H914 C922 0.950 . S
H915 C924 0.950 . S
H916 C926 0.950 . S
H917 C928 0.950 . S
H918 C930 0.950 . S
H919 C931 0.950 . S
C920 H912 0.950 . S
C920 C921 1.386 . S
C920 C922 1.391 . S
C921 C920 1.386 . S
C921 C925 1.393 . S
C922 H914 0.950 . S
C922 C920 1.391 . S
C922 C923 1.400 . S
C923 C922 1.400 . S
C923 C924 1.398 . S
C923 C929 1.491 . S
C924 H915 0.950 . S
C924 C923 1.398 . S
C924 C925 1.391 . S
C925 H913 0.950 . S
C925 C921 1.393 . S
C925 C924 1.391 . S
C926 H916 0.950 . S
C926 C927 1.386 . S
C926 C928 1.391 . S
C927 C926 1.386 . S
C927 C931 1.393 . S
C928 H917 0.950 . S
C928 C926 1.391 . S
C928 C929 1.400 . S
C929 C923 1.491 . S
C929 C928 1.400 . S
C929 C930 1.398 . S
C930 H918 0.950 . S
C930 C929 1.398 . S
C930 C931 1.391 . S
C931 H919 0.950 . S
C931 C927 1.393 . S
C931 C930 1.391 . S
H932 C940 0.950 . S
H933 C945 0.950 . S
H934 C942 0.950 . S
H935 C944 0.950 . S
H936 C946 0.950 . S
H937 C948 0.950 . S
H938 C950 0.950 . S
H939 C951 0.950 . S
C940 H932 0.950 . S
C940 C941 1.386 . S
C940 C942 1.391 . S
C941 C940 1.386 . S
C941 C945 1.393 1_655 S
C942 H934 0.950 . S
C942 C940 1.391 . S
C942 C943 1.400 . S
C943 C942 1.400 . S
C943 C944 1.398 1_655 S
C943 C949 1.491 . S
C944 H935 0.950 . S
C944 C943 1.398 1_455 S
C944 C945 1.391 . S
C945 H933 0.950 . S
C945 C941 1.393 1_455 S
C945 C944 1.391 . S
C946 H936 0.950 . S
C946 C947 1.386 1_455 S
C946 C948 1.391 1_556 S
C947 C946 1.386 1_655 S
C947 C951 1.393 . S
C948 H937 0.950 . S
C948 C946 1.391 1_554 S
C948 C949 1.400 1_455 S
C949 C943 1.491 . S
C949 C948 1.400 1_655 S
C949 C950 1.398 . S
C950 H938 0.950 . S
C950 C949 1.398 . S
C950 C951 1.391 1_554 S
C951 H939 0.950 . S
C951 C947 1.393 . S
C951 C950 1.391 1_556 S
H952 C960 0.950 . S
H953 C965 0.950 . S
H954 C962 0.950 . S
H955 C964 0.950 . S
H956 C966 0.950 . S
H957 C968 0.950 . S
H958 C970 0.950 . S
H959 C971 0.950 . S
C960 H952 0.950 . S
C960 C961 1.386 1_545 S
C960 C962 1.391 . S
C961 C960 1.386 1_565 S
C961 C965 1.393 . S
C962 H954 0.950 . S
C962 C960 1.391 . S
C962 C963 1.400 1_545 S
C963 C962 1.400 1_565 S
C963 C964 1.398 . S
C963 C969 1.491 . S
C964 H955 0.950 . S
C964 C963 1.398 . S
C964 C965 1.391 . S
C965 H953 0.950 . S
C965 C961 1.393 . S
C965 C964 1.391 . S
C966 H956 0.950 . S
C966 C967 1.386 . S
C966 C968 1.391 . S
C967 C966 1.386 . S
C967 C971 1.393 1_565 S
C968 H957 0.950 . S
C968 C966 1.391 . S
C968 C969 1.400 . S
C969 C963 1.491 . S
C969 C968 1.400 . S
C969 C970 1.398 1_565 S
C970 H958 0.950 . S
C970 C969 1.398 1_545 S
C970 C971 1.391 . S
C971 H959 0.950 . S
C971 C967 1.393 1_545 S
C971 C970 1.391 . S
H972 C980 0.950 . S
H973 C985 0.950 . S
H974 C982 0.950 . S
H975 C984 0.950 . S
H976 C986 0.950 . S
H977 C988 0.950 . S
H978 C990 0.950 . S
H979 C991 0.950 . S
C980 H972 0.950 . S
C980 C981 1.386 . S
C980 C982 1.391 1_556 S
C981 C980 1.386 . S
C981 C985 1.393 . S
C982 H974 0.950 . S
C982 C980 1.391 1_554 S
C982 C983 1.400 . S
C983 C982 1.400 . S
C983 C984 1.398 . S
C983 C989 1.491 . S
C984 H975 0.950 . S
C984 C983 1.398 . S
C984 C985 1.391 1_554 S
C985 H973 0.950 . S
C985 C981 1.393 . S
C985 C984 1.391 1_556 S
C986 H976 0.950 . S
C986 C987 1.386 . S
C986 C988 1.391 . S
C987 C986 1.386 . S
C987 C991 1.393 . S
C988 H977 0.950 . S
C988 C986 1.391 . S
C988 C989 1.400 . S
C989 C983 1.491 . S
C989 C988 1.400 . S
C989 C990 1.398 . S
C990 H978 0.950 . S
C990 C989 1.398 . S
C990 C991 1.391 . S
C991 H979 0.950 . S
C991 C987 1.393 . S
C991 C990 1.391 . S
H992 C1000 0.950 . S
H993 C1005 0.950 . S
H994 C1002 0.950 . S
H995 C1004 0.950 . S
H996 C1006 0.950 . S
H997 C1008 0.950 . S
H998 C1010 0.950 . S
H999 C1011 0.950 . S
C1000 H992 0.950 . S
C1000 C1001 1.386 . S
C1000 C1002 1.391 . S
C1001 C1000 1.386 . S
C1001 C1005 1.393 . S
C1002 H994 0.950 . S
C1002 C1000 1.391 . S
C1002 C1003 1.400 . S
C1003 C1002 1.400 . S
C1003 C1004 1.398 . S
C1003 C1009 1.491 . S
C1004 H995 0.950 . S
C1004 C1003 1.398 . S
C1004 C1005 1.391 . S
C1005 H993 0.950 . S
C1005 C1001 1.393 . S
C1005 C1004 1.391 . S
C1006 H996 0.950 . S
C1006 C1007 1.386 . S
C1006 C1008 1.391 . S
C1007 C1006 1.386 . S
C1007 C1011 1.393 . S
C1008 H997 0.950 . S
C1008 C1006 1.391 . S
C1008 C1009 1.400 . S
C1009 C1003 1.491 . S
C1009 C1008 1.400 . S
C1009 C1010 1.398 . S
C1010 H998 0.950 . S
C1010 C1009 1.398 . S
C1010 C1011 1.391 . S
C1011 H999 0.950 . S
C1011 C1007 1.393 . S
C1011 C1010 1.391 . S
H1012 C1020 0.950 . S
H1013 C1025 0.950 . S
H1014 C1022 0.950 . S
H1015 C1024 0.950 . S
H1016 C1026 0.950 . S
H1017 C1028 0.950 . S
H1018 C1030 0.950 . S
H1019 C1031 0.950 . S
C1020 H1012 0.950 . S
C1020 C1021 1.386 . S
C1020 C1022 1.391 . S
C1021 C1020 1.386 . S
C1021 C1025 1.393 . S
C1022 H1014 0.950 . S
C1022 C1020 1.391 . S
C1022 C1023 1.400 . S
C1023 C1022 1.400 . S
C1023 C1024 1.398 . S
C1023 C1029 1.491 . S
C1024 H1015 0.950 . S
C1024 C1023 1.398 . S
C1024 C1025 1.391 . S
C1025 H1013 0.950 . S
C1025 C1021 1.393 . S
C1025 C1024 1.391 . S
C1026 H1016 0.950 . S
C1026 C1027 1.386 . S
C1026 C1028 1.391 . S
C1027 C1026 1.386 . S
C1027 C1031 1.393 . S
C1028 H1017 0.950 . S
C1028 C1026 1.391 . S
C1028 C1029 1.400 . S
C1029 C1023 1.491 . S
C1029 C1028 1.400 . S
C1029 C1030 1.398 . S
C1030 H1018 0.950 . S
C1030 C1029 1.398 . S
C1030 C1031 1.391 . S
C1031 H1019 0.950 . S
C1031 C1027 1.393 . S
C1031 C1030 1.391 . S
H1032 C1040 0.950 . S
H1033 C1045 0.950 . S
H1034 C1042 0.950 . S
H1035 C1044 0.950 . S
H1036 C1046 0.950 . S
H1037 C1048 0.950 . S
H1038 C1050 0.950 . S
H1039 C1051 0.950 . S
C1040 H1032 0.950 . S
C1040 C1041 1.386 . S
C1040 C1042 1.391 . S
C1041 C1040 1.386 . S
C1041 C1045 1.393 . S
C1042 H1034 0.950 . S
C1042 C1040 1.391 . S
C1042 C1043 1.400 . S
C1043 C1042 1.400 . S
C1043 C1044 1.398 . S
C1043 C1049 1.491 . S
C1044 H1035 0.950 . S
C1044 C1043 1.398 . S
C1044 C1045 1.391 . S
C1045 H1033 0.950 . S
C1045 C1041 1.393 . S
C1045 C1044 1.391 . S
C1046 H1036 0.950 . S
C1046 C1047 1.386 . S
C1046 C1048 1.391 . S
C1047 C1046 1.386 . S
C1047 C1051 1.393 . S
C1048 H1037 0.950 . S
C1048 C1046 1.391 . S
C1048 C1049 1.400 . S
C1049 C1043 1.491 . S
C1049 C1048 1.400 . S
C1049 C1050 1.398 . S
C1050 H1038 0.950 . S
C1050 C1049 1.398 . S
C1050 C1051 1.391 . S
C1051 H1039 0.950 . S
C1051 C1047 1.393 . S
C1051 C1050 1.391 . S
H1052 C1060 0.950 . S
H1053 C1065 0.950 . S
H1054 C1062 0.950 . S
H1055 C1064 0.950 . S
H1056 C1066 0.950 . S
H1057 C1068 0.950 . S
H1058 C1070 0.950 . S
H1059 C1071 0.950 . S
C1060 H1052 0.950 . S
C1060 C1061 1.386 . S
C1060 C1062 1.391 . S
C1061 C1060 1.386 . S
C1061 C1065 1.393 . S
C1062 H1054 0.950 . S
C1062 C1060 1.391 . S
C1062 C1063 1.400 . S
C1063 C1062 1.400 . S
C1063 C1064 1.398 . S
C1063 C1069 1.491 . S
C1064 H1055 0.950 . S
C1064 C1063 1.398 . S
C1064 C1065 1.391 . S
C1065 H1053 0.950 . S
C1065 C1061 1.393 . S
C1065 C1064 1.391 . S
C1066 H1056 0.950 . S
C1066 C1067 1.386 . S
C1066 C1068 1.391 . S
C1067 C1066 1.386 . S
C1067 C1071 1.393 . S
C1068 H1057 0.950 . S
C1068 C1066 1.391 . S
C1068 C1069 1.400 . S
C1069 C1063 1.491 . S
C1069 C1068 1.400 . S
C1069 C1070 1.398 . S
C1070 H1058 0.950 . S
C1070 C1069 1.398 . S
C1070 C1071 1.391 . S
C1071 H1059 0.950 . S
C1071 C1067 1.393 . S
C1071 C1070 1.391 . S
H1072 C1080 0.950 . S
H1073 C1085 0.950 . S
H1074 C1082 0.950 . S
H1075 C1084 0.950 . S
H1076 C1086 0.950 . S
H1077 C1088 0.950 . S
H1078 C1090 0.950 . S
H1079 C1091 0.950 . S
C1080 H1072 0.950 . S
C1080 C1081 1.386 . S
C1080 C1082 1.391 . S
C1081 C1080 1.386 . S
C1081 C1085 1.393 . S
C1082 H1074 0.950 . S
C1082 C1080 1.391 . S
C1082 C1083 1.400 . S
C1083 C1082 1.400 . S
C1083 C1084 1.398 . S
C1083 C1089 1.491 . S
C1084 H1075 0.950 . S
C1084 C1083 1.398 . S
C1084 C1085 1.391 . S
C1085 H1073 0.950 . S
C1085 C1081 1.393 . S
C1085 C1084 1.391 . S
C1086 H1076 0.950 . S
C1086 C1087 1.386 . S
C1086 C1088 1.391 . S
C1087 C1086 1.386 . S
C1087 C1091 1.393 . S
C1088 H1077 0.950 . S
C1088 C1086 1.391 . S
C1088 C1089 1.400 . S
C1089 C1083 1.491 . S
C1089 C1088 1.400 . S
C1089 C1090 1.398 . S
C1090 H1078 0.950 . S
C1090 C1089 1.398 . S
C1090 C1091 1.391 . S
C1091 H1079 0.950 . S
C1091 C1087 1.393 . S
C1091 C1090 1.391 . S
H1092 C1100 0.950 . S
H1093 C1105 0.950 . S
H1094 C1102 0.950 . S
H1095 C1104 0.950 . S
H1096 C1106 0.950 . S
H1097 C1108 0.950 . S
H1098 C1110 0.950 . S
H1099 C1111 0.950 . S
C1100 H1092 0.950 . S
C1100 C1101 1.386 . S
C1100 C1102 1.391 . S
C1101 C1100 1.386 . S
C1101 C1105 1.393 . S
C1102 H1094 0.950 . S
C1102 C1100 1.391 . S
C1102 C1103 1.400 . S
C1103 C1102 1.400 . S
C1103 C1104 1.398 . S
C1103 C1109 1.491 . S
C1104 H1095 0.950 . S
C1104 C1103 1.398 . S
C1104 C1105 1.391 . S
C1105 H1093 0.950 . S
C1105 C1101 1.393 . S
C1105 C1104 1.391 . S
C1106 H1096 0.950 . S
C1106 C1107 1.386 . S
C1106 C1108 1.391 . S
C1107 C1106 1.386 . S
C1107 C1111 1.393 . S
C1108 H1097 0.950 . S
C1108 C1106 1.391 . S
C1108 C1109 1.400 . S
C1109 C1103 1.491 . S
C1109 C1108 1.400 . S
C1109 C1110 1.398 . S
C1110 H1098 0.950 . S
C1110 C1109 1.398 . S
C1110 C1111 1.391 . S
C1111 H1099 0.950 . S
C1111 C1107 1.393 . S
C1111 C1110 1.391 . S
H1112 C1120 0.950 . S
H1113 C1125 0.950 . S
H1114 C1122 0.950 . S
H1115 C1124 0.950 . S
H1116 C1126 0.950 . S
H1117 C1128 0.950 . S
H1118 C1130 0.950 . S
H1119 C1131 0.950 . S
C1120 H1112 0.950 . S
C1120 C1121 1.386 . S
C1120 C1122 1.391 . S
C1121 C1120 1.386 . S
C1121 C1125 1.393 . S
C1122 H1114 0.950 . S
C1122 C1120 1.391 . S
C1122 C1123 1.400 . S
C1123 C1122 1.400 . S
C1123 C1124 1.398 . S
C1123 C1129 1.491 . S
C1124 H1115 0.950 . S
C1124 C1123 1.398 . S
C1124 C1125 1.391 . S
C1125 H1113 0.950 . S
C1125 C1121 1.393 . S
C1125 C1124 1.391 . S
C1126 H1116 0.950 . S
C1126 C1127 1.386 . S
C1126 C1128 1.391 . S
C1127 C1126 1.386 . S
C1127 C1131 1.393 . S
C1128 H1117 0.950 . S
C1128 C1126 1.391 . S
C1128 C1129 1.400 . S
C1129 C1123 1.491 . S
C1129 C1128 1.400 . S
C1129 C1130 1.398 . S
C1130 H1118 0.950 . S
C1130 C1129 1.398 . S
C1130 C1131 1.391 . S
C1131 H1119 0.950 . S
C1131 C1127 1.393 . S
C1131 C1130 1.391 . S
H1132 C1140 0.950 . S
H1133 C1145 0.950 . S
H1134 C1142 0.950 . S
H1135 C1144 0.950 . S
H1136 C1146 0.950 . S
H1137 C1148 0.950 . S
H1138 C1150 0.950 . S
H1139 C1151 0.950 . S
C1140 H1132 0.950 . S
C1140 C1141 1.386 . S
C1140 C1142 1.391 . S
C1141 C1140 1.386 . S
C1141 C1145 1.393 . S
C1142 H1134 0.950 . S
C1142 C1140 1.391 . S
C1142 C1143 1.400 . S
C1143 C1142 1.400 . S
C1143 C1144 1.398 . S
C1143 C1149 1.491 . S
C1144 H1135 0.950 . S
C1144 C1143 1.398 . S
C1144 C1145 1.391 . S
C1145 H1133 0.950 . S
C1145 C1141 1.393 . S
C1145 C1144 1.391 . S
C1146 H1136 0.950 . S
C1146 C1147 1.386 . S
C1146 C1148 1.391 . S
C1147 C1146 1.386 . S
C1147 C1151 1.393 . S
C1148 H1137 0.950 . S
C1148 C1146 1.391 . S
C1148 C1149 1.400 . S
C1149 C1143 1.491 . S
C1149 C1148 1.400 . S
C1149 C1150 1.398 . S
C1150 H1138 0.950 . S
C1150 C1149 1.398 . S
C1150 C1151 1.391 . S
C1151 H1139 0.950 . S
C1151 C1147 1.393 . S
C1151 C1150 1.391 . S
H1152 C1160 0.950 . S
H1153 C1165 0.950 . S
H1154 C1162 0.950 . S
H1155 C1164 0.950 . S
H1156 C1166 0.950 . S
H1157 C1168 0.950 . S
H1158 C1170 0.950 . S
H1159 C1171 0.950 . S
C1160 H1152 0.950 . S
C1160 C1161 1.386 . S
C1160 C1162 1.391 . S
C1161 C1160 1.386 . S
C1161 C1165 1.393 . S
C1162 H1154 0.950 . S
C1162 C1160 1.391 . S
C1162 C1163 1.400 . S
C1163 C1162 1.400 . S
C1163 C1164 1.398 . S
C1163 C1169 1.491 . S
C1164 H1155 0.950 . S
C1164 C1163 1.398 . S
C1164 C1165 1.391 . S
C1165 H1153 0.950 . S
C1165 C1161 1.393 . S
C1165 C1164 1.391 . S
C1166 H1156 0.950 . S
C1166 C1167 1.386 . S
C1166 C1168 1.391 . S
C1167 C1166 1.386 . S
C1167 C1171 1.393 . S
C1168 H1157 0.950 . S
C1168 C1166 1.391 . S
C1168 C1169 1.400 . S
C1169 C1163 1.491 . S
C1169 C1168 1.400 . S
C1169 C1170 1.398 . S
C1170 H1158 0.950 . S
C1170 C1169 1.398 . S
C1170 C1171 1.391 . S
C1171 H1159 0.950 . S
C1171 C1167 1.393 . S
C1171 C1170 1.391 . S
H1172 C1180 0.950 . S
H1173 C1185 0.950 . S
H1174 C1182 0.950 . S
H1175 C1184 0.950 . S
H1176 C1186 0.950 . S
H1177 C1188 0.950 . S
H1178 C1190 0.950 . S
H1179 C1191 0.950 . S
C1180 H1172 0.950 . S
C1180 C1181 1.386 . S
C1180 C1182 1.391 . S
C1181 C1180 1.386 . S
C1181 C1185 1.393 . S
C1182 H1174 0.950 . S
C1182 C1180 1.391 . S
C1182 C1183 1.400 . S
C1183 C1182 1.400 . S
C1183 C1184 1.398 . S
C1183 C1189 1.491 . S
C1184 H1175 0.950 . S
C1184 C1183 1.398 . S
C1184 C1185 1.391 . S
C1185 H1173 0.950 . S
C1185 C1181 1.393 . S
C1185 C1184 1.391 . S
C1186 H1176 0.950 . S
C1186 C1187 1.386 . S
C1186 C1188 1.391 . S
C1187 C1186 1.386 . S
C1187 C1191 1.393 . S
C1188 H1177 0.950 . S
C1188 C1186 1.391 . S
C1188 C1189 1.400 . S
C1189 C1183 1.491 . S
C1189 C1188 1.400 . S
C1189 C1190 1.398 . S
C1190 H1178 0.950 . S
C1190 C1189 1.398 . S
C1190 C1191 1.391 . S
C1191 H1179 0.950 . S
C1191 C1187 1.393 . S
C1191 C1190 1.391 . S
H1192 C1200 0.950 . S
H1193 C1205 0.950 . S
H1194 C1202 0.950 . S
H1195 C1204 0.950 . S
H1196 C1206 0.950 . S
H1197 C1208 0.950 . S
H1198 C1210 0.950 . S
H1199 C1211 0.950 . S
C1200 H1192 0.950 . S
C1200 C1201 1.386 . S
C1200 C1202 1.391 . S
C1201 C1200 1.386 . S
C1201 C1205 1.393 . S
C1202 H1194 0.950 . S
C1202 C1200 1.391 . S
C1202 C1203 1.400 . S
C1203 C1202 1.400 . S
C1203 C1204 1.398 . S
C1203 C1209 1.491 . S
C1204 H1195 0.950 . S
C1204 C1203 1.398 . S
C1204 C1205 1.391 . S
C1205 H1193 0.950 . S
C1205 C1201 1.393 . S
C1205 C1204 1.391 . S
C1206 H1196 0.950 . S
C1206 C1207 1.386 . S
C1206 C1208 1.391 . S
C1207 C1206 1.386 . S
C1207 C1211 1.393 . S
C1208 H1197 0.950 . S
C1208 C1206 1.391 . S
C1208 C1209 1.400 . S
C1209 C1203 1.491 . S
C1209 C1208 1.400 . S
C1209 C1210 1.398 . S
C1210 H1198 0.950 . S
C1210 C1209 1.398 . S
C1210 C1211 1.391 . S
C1211 H1199 0.950 . S
C1211 C1207 1.393 . S
C1211 C1210 1.391 . S
H1212 C1220 0.950 . S
H1213 C1225 0.950 . S
H1214 C1222 0.950 . S
H1215 C1224 0.950 . S
H1216 C1226 0.950 . S
H1217 C1228 0.950 . S
H1218 C1230 0.950 . S
H1219 C1231 0.950 . S
C1220 H1212 0.950 . S
C1220 C1221 1.386 . S
C1220 C1222 1.391 . S
C1221 C1220 1.386 . S
C1221 C1225 1.393 . S
C1222 H1214 0.950 . S
C1222 C1220 1.391 . S
C1222 C1223 1.400 . S
C1223 C1222 1.400 . S
C1223 C1224 1.398 . S
C1223 C1229 1.491 . S
C1224 H1215 0.950 . S
C1224 C1223 1.398 . S
C1224 C1225 1.391 . S
C1225 H1213 0.950 . S
C1225 C1221 1.393 . S
C1225 C1224 1.391 . S
C1226 H1216 0.950 . S
C1226 C1227 1.386 . S
C1226 C1228 1.391 . S
C1227 C1226 1.386 . S
C1227 C1231 1.393 . S
C1228 H1217 0.950 . S
C1228 C1226 1.391 . S
C1228 C1229 1.400 . S
C1229 C1223 1.491 . S
C1229 C1228 1.400 . S
C1229 C1230 1.398 . S
C1230 H1218 0.950 . S
C1230 C1229 1.398 . S
C1230 C1231 1.391 . S
C1231 H1219 0.950 . S
C1231 C1227 1.393 . S
C1231 C1230 1.391 . S
H1232 C1240 0.950 . S
H1233 C1245 0.950 . S
H1234 C1242 0.950 . S
H1235 C1244 0.950 . S
H1236 C1246 0.950 . S
H1237 C1248 0.950 . S
H1238 C1250 0.950 . S
H1239 C1251 0.950 . S
C1240 H1232 0.950 . S
C1240 C1241 1.386 . S
C1240 C1242 1.391 . S
C1241 C1240 1.386 . S
C1241 C1245 1.393 . S
C1242 H1234 0.950 . S
C1242 C1240 1.391 . S
C1242 C1243 1.400 . S
C1243 C1242 1.400 . S
C1243 C1244 1.398 . S
C1243 C1249 1.491 . S
C1244 H1235 0.950 . S
C1244 C1243 1.398 . S
C1244 C1245 1.391 . S
C1245 H1233 0.950 . S
C1245 C1241 1.393 . S
C1245 C1244 1.391 . S
C1246 H1236 0.950 . S
C1246 C1247 1.386 . S
C1246 C1248 1.391 . S
C1247 C1246 1.386 . S
C1247 C1251 1.393 . S
C1248 H1237 0.950 . S
C1248 C1246 1.391 . S
C1248 C1249 1.400 . S
C1249 C1243 1.491 . S
C1249 C1248 1.400 . S
C1249 C1250 1.398 . S
C1250 H1238 0.950 . S
C1250 C1249 1.398 . S
C1250 C1251 1.391 . S
C1251 H1239 0.950 . S
C1251 C1247 1.393 . S
C1251 C1250 1.391 . S
H1252 C1260 0.950 . S
H1253 C1265 0.950 . S
H1254 C1262 0.950 . S
H1255 C1264 0.950 . S
H1256 C1266 0.950 . S
H1257 C1268 0.950 . S
H1258 C1270 0.950 . S
H1259 C1271 0.950 . S
C1260 H1252 0.950 . S
C1260 C1261 1.386 . S
C1260 C1262 1.391 . S
C1261 C1260 1.386 . S
C1261 C1265 1.393 . S
C1262 H1254 0.950 . S
C1262 C1260 1.391 . S
C1262 C1263 1.400 . S
C1263 C1262 1.400 . S
C1263 C1264 1.398 . S
C1263 C1269 1.491 . S
C1264 H1255 0.950 . S
C1264 C1263 1.398 . S
C1264 C1265 1.391 . S
C1265 H1253 0.950 . S
C1265 C1261 1.393 . S
C1265 C1264 1.391 . S
C1266 H1256 0.950 . S
C1266 C1267 1.386 . S
C1266 C1268 1.391 . S
C1267 C1266 1.386 . S
C1267 C1271 1.393 . S
C1268 H1257 0.950 . S
C1268 C1266 1.391 . S
C1268 C1269 1.400 . S
C1269 C1263 1.491 . S
C1269 C1268 1.400 . S
C1269 C1270 1.398 . S
C1270 H1258 0.950 . S
C1270 C1269 1.398 . S
C1270 C1271 1.391 . S
C1271 H1259 0.950 . S
C1271 C1267 1.393 . S
C1271 C1270 1.391 . S
H1272 C1280 0.950 . S
H1273 C1285 0.950 . S
H1274 C1282 0.950 . S
H1275 C1284 0.950 . S
H1276 C1286 0.950 . S
H1277 C1288 0.950 . S
H1278 C1290 0.950 . S
H1279 C1291 0.950 . S
C1280 H1272 0.950 . S
C1280 C1281 1.386 . S
C1280 C1282 1.391 . S
C1281 C1280 1.386 . S
C1281 C1285 1.393 . S
C1282 H1274 0.950 . S
C1282 C1280 1.391 . S
C1282 C1283 1.400 . S
C1283 C1282 1.400 . S
C1283 C1284 1.398 . S
C1283 C1289 1.491 . S
C1284 H1275 0.950 . S
C1284 C1283 1.398 . S
C1284 C1285 1.391 . S
C1285 H1273 0.950 . S
C1285 C1281 1.393 . S
C1285 C1284 1.391 . S
C1286 H1276 0.950 . S
C1286 C1287 1.386 . S
C1286 C1288 1.391 . S
C1287 C1286 1.386 . S
C1287 C1291 1.393 . S
C1288 H1277 0.950 . S
C1288 C1286 1.391 . S
C1288 C1289 1.400 . S
C1289 C1283 1.491 . S
C1289 C1288 1.400 . S
C1289 C1290 1.398 . S
C1290 H1278 0.950 . S
C1290 C1289 1.398 . S
C1290 C1291 1.391 . S
C1291 H1279 0.950 . S
C1291 C1287 1.393 . S
C1291 C1290 1.391 . S
H1292 C1300 0.950 . S
H1293 C1305 0.950 . S
H1294 C1302 0.950 . S
H1295 C1304 0.950 . S
H1296 C1306 0.950 . S
H1297 C1308 0.950 . S
H1298 C1310 0.950 . S
H1299 C1311 0.950 . S
C1300 H1292 0.950 . S
C1300 C1301 1.386 . S
C1300 C1302 1.391 . S
C1301 C1300 1.386 . S
C1301 C1305 1.393 . S
C1302 H1294 0.950 . S
C1302 C1300 1.391 . S
C1302 C1303 1.400 . S
C1303 C1302 1.400 . S
C1303 C1304 1.398 . S
C1303 C1309 1.491 . S
C1304 H1295 0.950 . S
C1304 C1303 1.398 . S
C1304 C1305 1.391 . S
C1305 H1293 0.950 . S
C1305 C1301 1.393 . S
C1305 C1304 1.391 . S
C1306 H1296 0.950 . S
C1306 C1307 1.386 . S
C1306 C1308 1.391 . S
C1307 C1306 1.386 . S
C1307 C1311 1.393 . S
C1308 H1297 0.950 . S
C1308 C1306 1.391 . S
C1308 C1309 1.400 . S
C1309 C1303 1.491 . S
C1309 C1308 1.400 . S
C1309 C1310 1.398 . S
C1310 H1298 0.950 . S
C1310 C1309 1.398 . S
C1310 C1311 1.391 . S
C1311 H1299 0.950 . S
C1311 C1307 1.393 . S
C1311 C1310 1.391 . S
C361 C18 1.003 . S
C367 C164 0.982 . S
C381 C96 0.978 . S
C387 C32 1.004 . S
C401 C118 1.003 . S
C407 C54 0.979 . S
C421 C76 0.999 . S
C427 C140 0.982 . S
C441 C340 1.006 . S
C447 C186 0.979 . S
C461 C282 0.991 . S
C467 C208 0.995 . S
C481 C294 0.978 . S
C487 C230 1.004 . S
C501 C326 0.978 . S
C507 C260 1.006 . S
C521 C8 1.225 . S
C527 C348 1.248 . S
C541 C40 1.248 . S
C547 C272 1.225 . S
C561 C62 1.247 . S
C567 C296 1.227 . S
C581 C316 1.233 . S
C587 C84 1.241 . S
C601 C216 1.226 . S
C607 C98 1.248 . S
C621 C120 1.248 . S
C627 C238 1.225 . S
C641 C250 1.236 . S
C647 C142 1.237 . S
C661 C172 1.239 . S
C667 C194 1.234 . S
C681 C274 1.400 . S
C687 C21 1.405 . S
C701 C29 1.405 . S
C707 C304 1.408 . S
C721 C318 1.400 . S
C727 C51 1.406 . S
C741 C338 1.404 . S
C747 C73 1.393 . S
C761 C103 1.392 . S
C767 C184 1.411 . S
C781 C125 1.395 . S
C787 C206 1.402 . S
C801 C147 1.404 . S
C807 C228 1.409 . S
C821 C252 1.403 . S
C827 C161 1.407 . S
C841 C183 1.405 . S
C847 C106 1.400 . S
C861 C205 1.391 . S
C867 C128 1.407 . S
C881 C150 1.410 . S
C887 C227 1.391 . S
C901 C263 1.407 . S
C907 C162 1.404 . S
C921 C285 1.392 . S
C927 C10 1.406 . S
C941 C301 1.391 . S
C947 C30 1.407 . S
C961 C52 1.406 . S
C967 C329 1.407 . S
C981 C74 1.411 . S
C987 C337 1.401 . S
C1001 C15 1.549 . S
C1007 C213 1.504 . S
C1021 C235 1.499 . S
C1027 C43 1.546 . S
C1041 C65 1.549 . S
C1047 C249 1.504 . S
C1061 C87 1.543 . S
C1067 C191 1.492 . S
C1081 C95 1.551 . S
C1087 C345 1.506 . S
C1101 C117 1.550 . S
C1107 C271 1.506 . S
C1121 C139 1.543 . S
C1127 C307 1.492 . S
C1141 C315 1.482 . S
C1147 C175 1.539 . S
C1161 C37 1.483 . S
C1167 C197 1.539 . S
C1181 C59 1.485 . S
C1187 C219 1.540 . S
C1201 C241 1.545 . S
C1207 C81 1.497 . S
C1221 C257 1.542 . S
C1227 C7 1.488 . S
C1241 C169 1.490 . S
C1247 C279 1.544 . S
C1261 C109 1.503 . S
C1267 C293 1.548 . S
C1281 C131 1.480 . S
C1287 C323 1.538 . S
C1301 C153 1.504 . S
C1307 C351 1.549 . S
