# Generated by pormake.
# Topology unl, (4)-cn, num edge types: 1
# Building blocks:
#     Node 0, Type 0, BuildingBlock: CEKHIL_clean_sbu_0, # of connection points: 4
#     Node 1, Type 0, BuildingBlock: CEKHIL_clean_sbu_0, # of connection points: 4
#     Node 2, Type 0, BuildingBlock: CEKHIL_clean_sbu_0, # of connection points: 4
#     Node 3, Type 0, BuildingBlock: CEKHIL_clean_sbu_0, # of connection points: 4
#     Node 4, Type 0, BuildingBlock: CEKHIL_clean_sbu_0, # of connection points: 4
#     Node 5, Type 0, BuildingBlock: CEKHIL_clean_sbu_0, # of connection points: 4
#     Node 6, Type 0, BuildingBlock: CEKHIL_clean_sbu_0, # of connection points: 4
#     Node 7, Type 0, BuildingBlock: CEKHIL_clean_sbu_0, # of connection points: 4
#     Node 8, Type 0, BuildingBlock: CEKHIL_clean_sbu_0, # of connection points: 4
#     Node 9, Type 0, BuildingBlock: CEKHIL_clean_sbu_0, # of connection points: 4
#     Node 10, Type 0, BuildingBlock: CEKHIL_clean_sbu_0, # of connection points: 4
#     Node 11, Type 0, BuildingBlock: CEKHIL_clean_sbu_0, # of connection points: 4
#     Node 12, Type 0, BuildingBlock: CEKHIL_clean_sbu_0, # of connection points: 4
#     Node 13, Type 0, BuildingBlock: CEKHIL_clean_sbu_0, # of connection points: 4
#     Node 14, Type 0, BuildingBlock: CEKHIL_clean_sbu_0, # of connection points: 4
#     Node 15, Type 0, BuildingBlock: CEKHIL_clean_sbu_0, # of connection points: 4
#     Node 16, Type 0, BuildingBlock: CEKHIL_clean_sbu_0, # of connection points: 4
#     Node 17, Type 0, BuildingBlock: CEKHIL_clean_sbu_0, # of connection points: 4
#     Node 18, Type 0, BuildingBlock: CEKHIL_clean_sbu_0, # of connection points: 4
#     Node 19, Type 0, BuildingBlock: CEKHIL_clean_sbu_0, # of connection points: 4
#     Node 20, Type 0, BuildingBlock: CEKHIL_clean_sbu_0, # of connection points: 4
#     Node 21, Type 0, BuildingBlock: CEKHIL_clean_sbu_0, # of connection points: 4
#     Node 22, Type 0, BuildingBlock: CEKHIL_clean_sbu_0, # of connection points: 4
#     Node 23, Type 0, BuildingBlock: CEKHIL_clean_sbu_0, # of connection points: 4
#     Node 24, Type 0, BuildingBlock: CEKHIL_clean_sbu_0, # of connection points: 4
#     Node 25, Type 0, BuildingBlock: CEKHIL_clean_sbu_0, # of connection points: 4
#     Node 26, Type 0, BuildingBlock: CEKHIL_clean_sbu_0, # of connection points: 4
#     Node 27, Type 0, BuildingBlock: CEKHIL_clean_sbu_0, # of connection points: 4
#     Node 28, Type 0, BuildingBlock: CEKHIL_clean_sbu_0, # of connection points: 4
#     Node 29, Type 0, BuildingBlock: CEKHIL_clean_sbu_0, # of connection points: 4
#     Node 30, Type 0, BuildingBlock: CEKHIL_clean_sbu_0, # of connection points: 4
#     Node 31, Type 0, BuildingBlock: CEKHIL_clean_sbu_0, # of connection points: 4
#     Node 32, Type 0, BuildingBlock: CEKHIL_clean_sbu_0, # of connection points: 4
#     Node 33, Type 0, BuildingBlock: CEKHIL_clean_sbu_0, # of connection points: 4
#     Node 34, Type 0, BuildingBlock: CEKHIL_clean_sbu_0, # of connection points: 4
#     Node 35, Type 0, BuildingBlock: CEKHIL_clean_sbu_0, # of connection points: 4
#     Edge 36, Type (0, 0), BuildingBlock: CIFDUS_clean_linker_0, # of connection points: 2
#     Edge 37, Type (0, 0), BuildingBlock: CIFDUS_clean_linker_0, # of connection points: 2
#     Edge 38, Type (0, 0), BuildingBlock: CIFDUS_clean_linker_0, # of connection points: 2
#     Edge 39, Type (0, 0), BuildingBlock: CIFDUS_clean_linker_0, # of connection points: 2
#     Edge 40, Type (0, 0), BuildingBlock: CIFDUS_clean_linker_0, # of connection points: 2
#     Edge 41, Type (0, 0), BuildingBlock: CIFDUS_clean_linker_0, # of connection points: 2
#     Edge 42, Type (0, 0), BuildingBlock: CIFDUS_clean_linker_0, # of connection points: 2
#     Edge 43, Type (0, 0), BuildingBlock: CIFDUS_clean_linker_0, # of connection points: 2
#     Edge 44, Type (0, 0), BuildingBlock: CIFDUS_clean_linker_0, # of connection points: 2
#     Edge 45, Type (0, 0), BuildingBlock: CIFDUS_clean_linker_0, # of connection points: 2
#     Edge 46, Type (0, 0), BuildingBlock: CIFDUS_clean_linker_0, # of connection points: 2
#     Edge 47, Type (0, 0), BuildingBlock: CIFDUS_clean_linker_0, # of connection points: 2
#     Edge 48, Type (0, 0), BuildingBlock: CIFDUS_clean_linker_0, # of connection points: 2
#     Edge 49, Type (0, 0), BuildingBlock: CIFDUS_clean_linker_0, # of connection points: 2
#     Edge 50, Type (0, 0), BuildingBlock: CIFDUS_clean_linker_0, # of connection points: 2
#     Edge 51, Type (0, 0), BuildingBlock: CIFDUS_clean_linker_0, # of connection points: 2
#     Edge 52, Type (0, 0), BuildingBlock: CIFDUS_clean_linker_0, # of connection points: 2
#     Edge 53, Type (0, 0), BuildingBlock: CIFDUS_clean_linker_0, # of connection points: 2
#     Edge 54, Type (0, 0), BuildingBlock: CIFDUS_clean_linker_0, # of connection points: 2
#     Edge 55, Type (0, 0), BuildingBlock: CIFDUS_clean_linker_0, # of connection points: 2
#     Edge 56, Type (0, 0), BuildingBlock: CIFDUS_clean_linker_0, # of connection points: 2
#     Edge 57, Type (0, 0), BuildingBlock: CIFDUS_clean_linker_0, # of connection points: 2
#     Edge 58, Type (0, 0), BuildingBlock: CIFDUS_clean_linker_0, # of connection points: 2
#     Edge 59, Type (0, 0), BuildingBlock: CIFDUS_clean_linker_0, # of connection points: 2
#     Edge 60, Type (0, 0), BuildingBlock: CIFDUS_clean_linker_0, # of connection points: 2
#     Edge 61, Type (0, 0), BuildingBlock: CIFDUS_clean_linker_0, # of connection points: 2
#     Edge 62, Type (0, 0), BuildingBlock: CIFDUS_clean_linker_0, # of connection points: 2
#     Edge 63, Type (0, 0), BuildingBlock: CIFDUS_clean_linker_0, # of connection points: 2
#     Edge 64, Type (0, 0), BuildingBlock: CIFDUS_clean_linker_0, # of connection points: 2
#     Edge 65, Type (0, 0), BuildingBlock: CIFDUS_clean_linker_0, # of connection points: 2
#     Edge 66, Type (0, 0), BuildingBlock: CIFDUS_clean_linker_0, # of connection points: 2
#     Edge 67, Type (0, 0), BuildingBlock: CIFDUS_clean_linker_0, # of connection points: 2
#     Edge 68, Type (0, 0), BuildingBlock: CIFDUS_clean_linker_0, # of connection points: 2
#     Edge 69, Type (0, 0), BuildingBlock: CIFDUS_clean_linker_0, # of connection points: 2
#     Edge 70, Type (0, 0), BuildingBlock: CIFDUS_clean_linker_0, # of connection points: 2
#     Edge 71, Type (0, 0), BuildingBlock: CIFDUS_clean_linker_0, # of connection points: 2
#     Edge 72, Type (0, 0), BuildingBlock: CIFDUS_clean_linker_0, # of connection points: 2
#     Edge 73, Type (0, 0), BuildingBlock: CIFDUS_clean_linker_0, # of connection points: 2
#     Edge 74, Type (0, 0), BuildingBlock: CIFDUS_clean_linker_0, # of connection points: 2
#     Edge 75, Type (0, 0), BuildingBlock: CIFDUS_clean_linker_0, # of connection points: 2
#     Edge 76, Type (0, 0), BuildingBlock: CIFDUS_clean_linker_0, # of connection points: 2
#     Edge 77, Type (0, 0), BuildingBlock: CIFDUS_clean_linker_0, # of connection points: 2
#     Edge 78, Type (0, 0), BuildingBlock: CIFDUS_clean_linker_0, # of connection points: 2
#     Edge 79, Type (0, 0), BuildingBlock: CIFDUS_clean_linker_0, # of connection points: 2
#     Edge 80, Type (0, 0), BuildingBlock: CIFDUS_clean_linker_0, # of connection points: 2
#     Edge 81, Type (0, 0), BuildingBlock: CIFDUS_clean_linker_0, # of connection points: 2
#     Edge 82, Type (0, 0), BuildingBlock: CIFDUS_clean_linker_0, # of connection points: 2
#     Edge 83, Type (0, 0), BuildingBlock: CIFDUS_clean_linker_0, # of connection points: 2
#     Edge 84, Type (0, 0), BuildingBlock: CIFDUS_clean_linker_0, # of connection points: 2
#     Edge 85, Type (0, 0), BuildingBlock: CIFDUS_clean_linker_0, # of connection points: 2
#     Edge 86, Type (0, 0), BuildingBlock: CIFDUS_clean_linker_0, # of connection points: 2
#     Edge 87, Type (0, 0), BuildingBlock: CIFDUS_clean_linker_0, # of connection points: 2
#     Edge 88, Type (0, 0), BuildingBlock: CIFDUS_clean_linker_0, # of connection points: 2
#     Edge 89, Type (0, 0), BuildingBlock: CIFDUS_clean_linker_0, # of connection points: 2
#     Edge 90, Type (0, 0), BuildingBlock: CIFDUS_clean_linker_0, # of connection points: 2
#     Edge 91, Type (0, 0), BuildingBlock: CIFDUS_clean_linker_0, # of connection points: 2
#     Edge 92, Type (0, 0), BuildingBlock: CIFDUS_clean_linker_0, # of connection points: 2
#     Edge 93, Type (0, 0), BuildingBlock: CIFDUS_clean_linker_0, # of connection points: 2
#     Edge 94, Type (0, 0), BuildingBlock: CIFDUS_clean_linker_0, # of connection points: 2
#     Edge 95, Type (0, 0), BuildingBlock: CIFDUS_clean_linker_0, # of connection points: 2
#     Edge 96, Type (0, 0), BuildingBlock: CIFDUS_clean_linker_0, # of connection points: 2
#     Edge 97, Type (0, 0), BuildingBlock: CIFDUS_clean_linker_0, # of connection points: 2
#     Edge 98, Type (0, 0), BuildingBlock: CIFDUS_clean_linker_0, # of connection points: 2
#     Edge 99, Type (0, 0), BuildingBlock: CIFDUS_clean_linker_0, # of connection points: 2
#     Edge 100, Type (0, 0), BuildingBlock: CIFDUS_clean_linker_0, # of connection points: 2
#     Edge 101, Type (0, 0), BuildingBlock: CIFDUS_clean_linker_0, # of connection points: 2
#     Edge 102, Type (0, 0), BuildingBlock: CIFDUS_clean_linker_0, # of connection points: 2
#     Edge 103, Type (0, 0), BuildingBlock: CIFDUS_clean_linker_0, # of connection points: 2
#     Edge 104, Type (0, 0), BuildingBlock: CIFDUS_clean_linker_0, # of connection points: 2
#     Edge 105, Type (0, 0), BuildingBlock: CIFDUS_clean_linker_0, # of connection points: 2
#     Edge 106, Type (0, 0), BuildingBlock: CIFDUS_clean_linker_0, # of connection points: 2
#     Edge 107, Type (0, 0), BuildingBlock: CIFDUS_clean_linker_0, # of connection points: 2
# Relax obj value: 0.039
# Max RMSD: 0.122
# Mean RMSD: 0.122
data_MOF--net-unl--node1-CEKHIL_clean_sbu_0--edge1-CIFDUS_clean_linker_0
_symmetry_space_group_name_H-M    P1
_symmetry_Int_Tables_number       1
_symmetry_cell_setting            triclinic
loop_
_symmetry_equiv_pos_as_xyz
'x, y, z'
_cell_length_a     56.276458
_cell_length_b     56.288896
_cell_length_c     35.756866
_cell_angle_alpha  90.039048
_cell_angle_beta   89.998215
_cell_angle_gamma 119.98788
loop_
_atom_site_label
_atom_site_type_symbol
_atom_site_fract_x
_atom_site_fract_y
_atom_site_fract_z
_atom_type_partial_charge
Co0 Co 0.22519 0.12803 0.10374 0.0
O1 O 0.25105 0.12292 0.13347 0.0
O2 O 0.25917 0.16244 0.10945 0.0
C3 C 0.21273 0.09094 0.06633 0.0
O4 O 0.2047 0.14147 0.07051 0.0
Co5 Co 0.16319 0.08452 0.10041 0.0
O6 O 0.16226 0.10679 0.05804 0.0
C7 C 0.18577 0.121 0.16655 0.0
C8 C 0.26823 0.14881 0.12825 0.0
C9 C 0.18159 0.13136 0.0531 0.0
O10 O 0.20914 0.13546 0.15022 0.0
O11 O 0.16616 0.09886 0.15266 0.0
O12 O 0.23496 0.11402 0.05954 0.0
O13 O 0.19999 0.09049 0.09655 0.0
Co14 Co 0.88466 0.0969 0.1176 0.0
O15 O 0.89233 0.12755 0.14943 0.0
O16 O 0.85193 0.09988 0.12397 0.0
C17 C 0.92211 0.12018 0.08072 0.0
O18 O 0.86937 0.06377 0.08236 0.0
Co19 Co 0.92528 0.07468 0.11338 0.0
O20 O 0.90327 0.05493 0.06891 0.0
C21 C 0.88421 0.05638 0.17478 0.0
C22 C 0.86714 0.12154 0.14415 0.0
C23 C 0.87912 0.05089 0.06381 0.0
O24 O 0.8746 0.07138 0.16224 0.0
O25 O 0.90493 0.05616 0.16031 0.0
O26 O 0.90004 0.12139 0.07459 0.0
O27 O 0.92178 0.10697 0.1104 0.0
Co28 Co 0.91406 0.78508 0.10854 0.0
O29 O 0.88516 0.75894 0.14079 0.0
O30 O 0.9151 0.75124 0.11112 0.0
C31 C 0.88734 0.79739 0.0756 0.0
O32 O 0.94563 0.80584 0.07167 0.0
Co33 Co 0.93204 0.84698 0.10775 0.0
O34 O 0.951 0.84756 0.06079 0.0
C35 C 0.95432 0.82564 0.16591 0.0
C36 C 0.89355 0.74188 0.13244 0.0
C37 C 0.95655 0.8287 0.05358 0.0
O38 O 0.94072 0.80119 0.15218 0.0
O39 O 0.95233 0.84588 0.15326 0.0
O40 O 0.88766 0.77506 0.06756 0.0
O41 O 0.90111 0.81017 0.10508 0.0
Co42 Co 0.12618 0.21574 0.38629 0.0
O43 O 0.12299 0.24193 0.35465 0.0
O44 O 0.15963 0.25104 0.38798 0.0
C45 C 0.08468 0.19917 0.41481 0.0
O46 O 0.13709 0.19518 0.42344 0.0
Co47 Co 0.08561 0.15283 0.38202 0.0
O48 O 0.10141 0.15252 0.43139 0.0
C49 C 0.13201 0.1791 0.32815 0.0
C50 C 0.14745 0.25993 0.36584 0.0
C51 C 0.12502 0.17199 0.44069 0.0
O52 O 0.14081 0.20294 0.34323 0.0
O53 O 0.10997 0.15759 0.33852 0.0
O54 O 0.10566 0.22202 0.42588 0.0
O55 O 0.08883 0.1885 0.38533 0.0
Co56 Co 0.79129 0.91025 0.39678 0.0
O57 O 0.76569 0.87915 0.36696 0.0
O58 O 0.75702 0.91017 0.39103 0.0
C59 C 0.80415 0.88586 0.43395 0.0
O60 O 0.8114 0.94428 0.43002 0.0
Co61 Co 0.85355 0.9293 0.40062 0.0
O62 O 0.85424 0.95302 0.44213 0.0
C63 C 0.83082 0.94278 0.33433 0.0
C64 C 0.7482 0.88748 0.37228 0.0
C65 C 0.83463 0.95788 0.447 0.0
O66 O 0.80736 0.93385 0.35047 0.0
O67 O 0.85042 0.94029 0.34832 0.0
O68 O 0.78175 0.88637 0.44089 0.0
O69 O 0.81684 0.89841 0.40389 0.0
Co70 Co 0.10371 0.88479 0.38619 0.0
O71 O 0.13428 0.89225 0.35416 0.0
O72 O 0.10606 0.85175 0.37867 0.0
C73 C 0.1279 0.92209 0.42356 0.0
O74 O 0.07064 0.86953 0.42157 0.0
Co75 Co 0.08244 0.92614 0.39283 0.0
O76 O 0.06214 0.90342 0.43656 0.0
C77 C 0.06802 0.88991 0.32628 0.0
C78 C 0.12792 0.86691 0.35886 0.0
C79 C 0.05789 0.87912 0.44081 0.0
O80 O 0.07848 0.8763 0.34119 0.0
O81 O 0.06986 0.91152 0.34103 0.0
O82 O 0.12872 0.89973 0.42915 0.0
O83 O 0.11428 0.92182 0.39439 0.0
Co84 Co 0.79608 0.88177 0.89619 0.0
O85 O 0.76884 0.88468 0.86666 0.0
O86 O 0.76121 0.84782 0.89829 0.0
C87 C 0.8127 0.92294 0.92521 0.0
O88 O 0.81842 0.8714 0.93122 0.0
Co89 Co 0.85853 0.92353 0.88775 0.0
O90 O 0.86128 0.90746 0.93577 0.0
C91 C 0.82921 0.88142 0.82957 0.0
C92 C 0.75156 0.85979 0.87701 0.0
C93 C 0.84241 0.88395 0.94654 0.0
O94 O 0.80794 0.86858 0.85073 0.0
O95 O 0.84996 0.90468 0.83797 0.0
O96 O 0.79051 0.90168 0.93746 0.0
O97 O 0.82254 0.91904 0.89478 0.0
Co98 Co 0.12306 0.91654 0.88111 0.0
O99 O 0.11613 0.88771 0.84601 0.0
O100 O 0.15413 0.91044 0.87917 0.0
C101 C 0.08174 0.89352 0.90997 0.0
O102 O 0.13701 0.9469 0.92107 0.0
Co103 Co 0.08697 0.94417 0.88183 0.0
O104 O 0.10356 0.95694 0.93186 0.0
C105 C 0.13206 0.96187 0.82636 0.0
C106 C 0.13986 0.89098 0.85525 0.0
C107 C 0.12641 0.95878 0.94021 0.0
O108 O 0.13922 0.94518 0.84004 0.0
O109 O 0.11127 0.9633 0.838 0.0
O110 O 0.10147 0.88901 0.91909 0.0
O111 O 0.08684 0.90988 0.88202 0.0
Co112 Co 0.09862 0.2236 0.89678 0.0
O113 O 0.12802 0.25015 0.86548 0.0
O114 O 0.10199 0.2594 0.90197 0.0
C115 C 0.12195 0.20405 0.92148 0.0
O116 O 0.06738 0.20254 0.93425 0.0
Co117 Co 0.07355 0.16062 0.88497 0.0
O118 O 0.05193 0.15716 0.93028 0.0
C119 C 0.05584 0.19148 0.83642 0.0
C120 C 0.12228 0.26827 0.87845 0.0
C121 C 0.05159 0.17758 0.94504 0.0
O122 O 0.07109 0.21393 0.85445 0.0
O123 O 0.05525 0.16887 0.84315 0.0
O124 O 0.12533 0.22701 0.93483 0.0
O125 O 0.10694 0.19526 0.89181 0.0
Co126 Co 0.88798 0.79004 0.60678 0.0
O127 O 0.89124 0.76333 0.63711 0.0
O128 O 0.85498 0.75451 0.60303 0.0
C129 C 0.9301 0.80826 0.57988 0.0
O130 O 0.87723 0.81152 0.57074 0.0
Co131 Co 0.92742 0.85291 0.61549 0.0
O132 O 0.9126 0.8547 0.56602 0.0
C133 C 0.88002 0.82383 0.66708 0.0
C134 C 0.86698 0.74541 0.6252 0.0
C135 C 0.88935 0.83539 0.5552 0.0
O136 O 0.87211 0.80071 0.65045 0.0
O137 O 0.90177 0.84614 0.65817 0.0
O138 O 0.90966 0.78566 0.56709 0.0
O139 O 0.92501 0.81769 0.60988 0.0
Co140 Co 0.22598 0.10099 0.5976 0.0
O141 O 0.25325 0.13092 0.62724 0.0
O142 O 0.25941 0.09893 0.60086 0.0
C143 C 0.2142 0.12716 0.56269 0.0
O144 O 0.20294 0.06777 0.56361 0.0
Co145 Co 0.1647 0.08642 0.59967 0.0
O146 O 0.16209 0.06513 0.55414 0.0
C147 C 0.18833 0.07123 0.66295 0.0
C148 C 0.26959 0.12144 0.62044 0.0
C149 C 0.17963 0.05779 0.54659 0.0
O150 O 0.21024 0.07751 0.64409 0.0
O151 O 0.16944 0.07579 0.65141 0.0
O152 O 0.2357 0.12541 0.55406 0.0
O153 O 0.20221 0.1151 0.59333 0.0
Co154 Co 0.91241 0.13116 0.60926 0.0
O155 O 0.8804 0.12487 0.63767 0.0
O156 O 0.90787 0.16306 0.60722 0.0
C157 C 0.89197 0.0901 0.57911 0.0
O158 O 0.94642 0.1452 0.57575 0.0
Co159 Co 0.93898 0.0944 0.61808 0.0
O160 O 0.95894 0.11306 0.57174 0.0
C161 C 0.94701 0.13495 0.67653 0.0
C162 C 0.88611 0.14936 0.62778 0.0
C163 C 0.96102 0.13568 0.56139 0.0
O164 O 0.9364 0.14585 0.65555 0.0
O165 O 0.94743 0.11308 0.66797 0.0
O166 O 0.88872 0.11007 0.56699 0.0
O167 O 0.90533 0.09491 0.61006 0.0
Co168 Co 0.88115 0.45121 0.44882 0.0
O169 O 0.90314 0.4432 0.48225 0.0
O170 O 0.91825 0.48199 0.45095 0.0
C171 C 0.86162 0.41027 0.41836 0.0
O172 O 0.86506 0.46667 0.41109 0.0
Co173 Co 0.81726 0.416 0.44854 0.0
O174 O 0.82059 0.43565 0.40118 0.0
C175 C 0.84611 0.4571 0.50853 0.0
C176 C 0.92349 0.46725 0.47388 0.0
C177 C 0.84227 0.4581 0.39334 0.0
O178 O 0.86936 0.4667 0.49165 0.0
O179 O 0.82412 0.43588 0.49729 0.0
O180 O 0.88594 0.42975 0.40897 0.0
O181 O 0.85115 0.41543 0.4471 0.0
Co182 Co 0.55838 0.43623 0.43857 0.0
O183 O 0.56554 0.46636 0.47123 0.0
O184 O 0.52516 0.43843 0.44615 0.0
C185 C 0.59567 0.46044 0.40151 0.0
O186 O 0.54411 0.4036 0.40217 0.0
Co187 Co 0.60077 0.41589 0.43422 0.0
O188 O 0.58004 0.39791 0.38806 0.0
C189 C 0.56363 0.40121 0.49943 0.0
C190 C 0.54018 0.45995 0.46672 0.0
C191 C 0.55558 0.39286 0.38241 0.0
O192 O 0.54963 0.41075 0.48326 0.0
O193 O 0.58581 0.40367 0.48587 0.0
O194 O 0.57346 0.46158 0.39606 0.0
O195 O 0.59539 0.44701 0.43088 0.0
Co196 Co 0.57606 0.12286 0.44737 0.0
O197 O 0.54663 0.10096 0.48146 0.0
O198 O 0.5731 0.08728 0.4545 0.0
C199 C 0.55172 0.1366 0.41186 0.0
O200 O 0.60779 0.13956 0.40971 0.0
Co201 Co 0.599 0.18566 0.44149 0.0
O202 O 0.61619 0.18196 0.39521 0.0
C203 C 0.61755 0.16364 0.50332 0.0
C204 C 0.55236 0.08158 0.47625 0.0
C205 C 0.61987 0.16165 0.38988 0.0
O206 O 0.60302 0.13907 0.49042 0.0
O207 O 0.61738 0.18441 0.48896 0.0
O208 O 0.54975 0.11289 0.40634 0.0
O209 O 0.56628 0.15005 0.44047 0.0
Co210 Co 0.79319 0.55173 0.72655 0.0
O211 O 0.79207 0.57642 0.69006 0.0
O212 O 0.82916 0.58413 0.72115 0.0
C213 C 0.75467 0.54434 0.75712 0.0
O214 O 0.80221 0.53182 0.76724 0.0
Co215 Co 0.74502 0.4915 0.73635 0.0
O216 O 0.76369 0.49331 0.78411 0.0
C217 C 0.78692 0.50555 0.67613 0.0
C218 C 0.8177 0.59305 0.69772 0.0
C219 C 0.78899 0.51082 0.78874 0.0
O220 O 0.8012 0.53085 0.68666 0.0
O221 O 0.76372 0.48849 0.69063 0.0
O222 O 0.77811 0.56598 0.76451 0.0
O223 O 0.7551 0.52924 0.73045 0.0
Co224 Co 0.46598 0.2454 0.71632 0.0
O225 O 0.4401 0.2171 0.68302 0.0
O226 O 0.43097 0.24421 0.71731 0.0
C227 C 0.48142 0.21926 0.74386 0.0
O228 O 0.48644 0.27585 0.75516 0.0
Co229 Co 0.52872 0.26682 0.71325 0.0
O230 O 0.52867 0.28174 0.76342 0.0
C231 C 0.50377 0.28854 0.65975 0.0
C232 C 0.42224 0.22383 0.69392 0.0
C233 C 0.50941 0.28613 0.77302 0.0
O234 O 0.47979 0.27374 0.67449 0.0
O235 O 0.52496 0.28739 0.67013 0.0
O236 O 0.45859 0.21755 0.7547 0.0
O237 O 0.49272 0.23469 0.7151 0.0
Co238 Co 0.7585 0.21439 0.73183 0.0
O239 O 0.78781 0.21827 0.69966 0.0
O240 O 0.75712 0.17936 0.72571 0.0
C241 C 0.78542 0.25191 0.76733 0.0
O242 O 0.72615 0.20279 0.76804 0.0
Co243 Co 0.7427 0.2601 0.73596 0.0
O244 O 0.72306 0.24021 0.78182 0.0
C245 C 0.72587 0.22269 0.67059 0.0
C246 C 0.77906 0.19244 0.70522 0.0
C247 C 0.71633 0.21526 0.78747 0.0
O248 O 0.73356 0.20719 0.68694 0.0
O249 O 0.7301 0.24554 0.68422 0.0
O250 O 0.7842 0.22866 0.77423 0.0
O251 O 0.77217 0.2521 0.73805 0.0
Co252 Co 0.46292 0.2193 0.2267 0.0
O253 O 0.4367 0.22181 0.19473 0.0
O254 O 0.42964 0.18377 0.22245 0.0
C255 C 0.47314 0.25728 0.26099 0.0
O256 O 0.48479 0.20945 0.2632 0.0
Co257 Co 0.52391 0.26583 0.22745 0.0
O258 O 0.52484 0.24799 0.27478 0.0
C259 C 0.50337 0.22543 0.16533 0.0
C260 C 0.42008 0.19609 0.20166 0.0
C261 C 0.50724 0.22309 0.28199 0.0
O262 O 0.48015 0.21101 0.18209 0.0
O263 O 0.52223 0.2487 0.17756 0.0
O264 O 0.45158 0.23388 0.26861 0.0
O265 O 0.48633 0.25743 0.23135 0.0
Co266 Co 0.78533 0.24216 0.21549 0.0
O267 O 0.77806 0.21281 0.18115 0.0
O268 O 0.81636 0.23612 0.21359 0.0
C269 C 0.74411 0.21951 0.24504 0.0
O270 O 0.80006 0.27303 0.25445 0.0
Co271 Co 0.74937 0.26995 0.21731 0.0
O272 O 0.76834 0.28535 0.26537 0.0
C273 C 0.79381 0.28722 0.16068 0.0
C274 C 0.80188 0.21624 0.19036 0.0
C275 C 0.79107 0.28662 0.27292 0.0
O276 O 0.80112 0.27046 0.1738 0.0
O277 O 0.77314 0.28861 0.17295 0.0
O278 O 0.76387 0.21508 0.25429 0.0
O279 O 0.74918 0.23566 0.2169 0.0
Co280 Co 0.76559 0.54282 0.21404 0.0
O281 O 0.79593 0.57015 0.1849 0.0
O282 O 0.7662 0.57754 0.21572 0.0
C283 C 0.78995 0.52647 0.24418 0.0
O284 O 0.73277 0.52068 0.24874 0.0
Co285 Co 0.74525 0.48034 0.20681 0.0
O286 O 0.72626 0.47801 0.25453 0.0
C287 C 0.73236 0.50885 0.14764 0.0
C288 C 0.78817 0.58736 0.19516 0.0
C289 C 0.72148 0.49694 0.26462 0.0
O290 O 0.74077 0.53044 0.16823 0.0
O291 O 0.73497 0.48828 0.15674 0.0
O292 O 0.79073 0.54872 0.25586 0.0
O293 O 0.77658 0.51646 0.21354 0.0
Co294 Co 0.54368 0.11429 0.9455 0.0
O295 O 0.54789 0.08904 0.97791 0.0
O296 O 0.50929 0.07996 0.94993 0.0
C297 C 0.58222 0.12662 0.91117 0.0
O298 O 0.53137 0.13402 0.90877 0.0
Co299 Co 0.58705 0.17638 0.94138 0.0
O300 O 0.56731 0.17543 0.89502 0.0
C301 C 0.54556 0.15574 0.00258 0.0
C302 C 0.52242 0.07134 0.97072 0.0
C303 C 0.54271 0.15636 0.88944 0.0
O304 O 0.53403 0.13102 0.98951 0.0
O305 O 0.56741 0.17562 0.98851 0.0
O306 O 0.55959 0.10407 0.9039 0.0
O307 O 0.58144 0.1397 0.94038 0.0
Co308 Co 0.88717 0.43212 0.93762 0.0
O309 O 0.91447 0.46171 0.9675 0.0
O310 O 0.92064 0.43008 0.93994 0.0
C311 C 0.87535 0.4588 0.90383 0.0
O312 O 0.86412 0.39927 0.90331 0.0
Co313 Co 0.82592 0.41743 0.94037 0.0
O314 O 0.82322 0.39659 0.8943 0.0
C315 C 0.84941 0.4006 0.00219 0.0
C316 C 0.93086 0.45242 0.95987 0.0
C317 C 0.84078 0.38934 0.88649 0.0
O318 O 0.87164 0.40797 0.98356 0.0
O319 O 0.8303 0.40502 0.99116 0.0
O320 O 0.89672 0.45698 0.89466 0.0
O321 O 0.86337 0.44635 0.9343 0.0
Co322 Co 0.57756 0.45685 0.93323 0.0
O323 O 0.54869 0.45214 0.96677 0.0
O324 O 0.57664 0.49064 0.93704 0.0
C325 C 0.55193 0.41755 0.90055 0.0
O326 O 0.60884 0.46939 0.89542 0.0
Co327 Co 0.59887 0.41557 0.93069 0.0
O328 O 0.61455 0.4335 0.88215 0.0
C329 C 0.61989 0.45917 0.98873 0.0
C330 C 0.55581 0.47741 0.95932 0.0
C331 C 0.61927 0.45773 0.87569 0.0
O332 O 0.60475 0.46852 0.97599 0.0
O333 O 0.61963 0.4379 0.97542 0.0
O334 O 0.55078 0.43951 0.89299 0.0
O335 O 0.56657 0.41931 0.92941 0.0
Co336 Co 0.55573 0.78357 0.77828 0.0
O337 O 0.58272 0.78149 0.80926 0.0
O338 O 0.58867 0.81933 0.7822 0.0
C339 C 0.54519 0.74587 0.74321 0.0
O340 O 0.53304 0.79315 0.74297 0.0
Co341 Co 0.49485 0.73649 0.77896 0.0
O342 O 0.49277 0.75457 0.73247 0.0
C343 C 0.51624 0.77641 0.84146 0.0
C344 C 0.59882 0.80737 0.80257 0.0
C345 C 0.51018 0.7795 0.72504 0.0
O346 O 0.53892 0.79137 0.82376 0.0
O347 O 0.49749 0.75294 0.82965 0.0
O348 O 0.56667 0.76932 0.73548 0.0
O349 O 0.53252 0.74548 0.7735 0.0
Co350 Co 0.22465 0.77426 0.77607 0.0
O351 O 0.23085 0.80375 0.80919 0.0
O352 O 0.19138 0.77666 0.78119 0.0
C353 C 0.26355 0.79936 0.74236 0.0
O354 O 0.21149 0.74217 0.73898 0.0
Co355 Co 0.26689 0.75372 0.77442 0.0
O356 O 0.24723 0.73561 0.72766 0.0
C357 C 0.22745 0.73827 0.8371 0.0
C358 C 0.20578 0.79767 0.80291 0.0
C359 C 0.22307 0.73093 0.72057 0.0
O360 O 0.21406 0.74805 0.81996 0.0
O361 O 0.2501 0.74089 0.82515 0.0
O362 O 0.24153 0.8004 0.73475 0.0
O363 O 0.26188 0.78508 0.77144 0.0
Co364 Co 0.24667 0.46512 0.7847 0.0
O365 O 0.21695 0.43826 0.81518 0.0
O366 O 0.2456 0.43018 0.7828 0.0
C367 C 0.22198 0.48178 0.75607 0.0
O368 O 0.27882 0.48679 0.74873 0.0
Co369 Co 0.26785 0.5278 0.79175 0.0
O370 O 0.28599 0.52974 0.74343 0.0
C371 C 0.28101 0.49902 0.85023 0.0
C372 C 0.22434 0.42081 0.8047 0.0
C373 C 0.29022 0.51054 0.73285 0.0
O374 O 0.27239 0.47749 0.82949 0.0
O375 O 0.27841 0.51966 0.8415 0.0
O376 O 0.22062 0.45933 0.74402 0.0
O377 O 0.23615 0.49179 0.78612 0.0
Co378 Co 0.458 0.87472 0.05866 0.0
O379 O 0.4549 0.90049 0.026 0.0
O380 O 0.49143 0.91017 0.05991 0.0
C381 C 0.41636 0.85846 0.08657 0.0
O382 O 0.4685 0.85439 0.09706 0.0
Co383 Co 0.41727 0.81181 0.05502 0.0
O384 O 0.43217 0.81214 0.10532 0.0
C385 C 0.46382 0.83748 0.00137 0.0
C386 C 0.47928 0.91872 0.03711 0.0
C387 C 0.45578 0.83145 0.11497 0.0
O388 O 0.4728 0.86141 0.01628 0.0
O389 O 0.44163 0.81614 0.01174 0.0
O390 O 0.43726 0.88141 0.09753 0.0
O391 O 0.4207 0.84759 0.05749 0.0
Co392 Co 0.12796 0.5802 0.04977 0.0
O393 O 0.10233 0.55092 0.01732 0.0
O394 O 0.09262 0.57806 0.05064 0.0
C395 C 0.14483 0.55566 0.07841 0.0
O396 O 0.14754 0.61148 0.08745 0.0
Co397 Co 0.19113 0.60357 0.0476 0.0
O398 O 0.19106 0.62112 0.09559 0.0
C399 C 0.16495 0.62325 0.99293 0.0
C400 C 0.08416 0.55731 0.02799 0.0
C401 C 0.17082 0.62416 0.10446 0.0
O402 O 0.14094 0.60791 0.00724 0.0
O403 O 0.18648 0.62296 0.00386 0.0
O404 O 0.12165 0.55324 0.08906 0.0
O405 O 0.15566 0.57078 0.04929 0.0
Co406 Co 0.42986 0.54149 0.07042 0.0
O407 O 0.45959 0.54646 0.03846 0.0
O408 O 0.43015 0.50738 0.06572 0.0
C409 C 0.45542 0.57993 0.10488 0.0
O410 O 0.39721 0.52842 0.10608 0.0
Co411 Co 0.41008 0.58396 0.07354 0.0
O412 O 0.38989 0.56337 0.11862 0.0
C413 C 0.39036 0.54224 0.01284 0.0
C414 C 0.45175 0.52089 0.04478 0.0
C415 C 0.3849 0.53895 0.1242 0.0
O416 O 0.40425 0.53162 0.02605 0.0
O417 O 0.39106 0.56356 0.02678 0.0
O418 O 0.45541 0.55737 0.11241 0.0
O419 O 0.44166 0.57911 0.07552 0.0
Co420 Co 0.12278 0.55699 0.56418 0.0
O421 O 0.09981 0.56456 0.5323 0.0
O422 O 0.08743 0.52403 0.55708 0.0
C423 C 0.13664 0.59462 0.60103 0.0
O424 O 0.14072 0.54173 0.59912 0.0
Co425 Co 0.18554 0.59792 0.5684 0.0
O426 O 0.18382 0.5752 0.6118 0.0
C427 C 0.16204 0.56114 0.5029 0.0
C428 C 0.08099 0.53912 0.53665 0.0
C429 C 0.16356 0.55115 0.61704 0.0
O430 O 0.13854 0.54779 0.51914 0.0
O431 O 0.18227 0.58299 0.51644 0.0
O432 O 0.1134 0.57243 0.60721 0.0
O433 O 0.14954 0.59398 0.57156 0.0
Co434 Co 0.45259 0.57205 0.55734 0.0
O435 O 0.44505 0.5423 0.52359 0.0
O436 O 0.48554 0.56966 0.54883 0.0
C437 C 0.41533 0.54753 0.5944 0.0
O438 O 0.46751 0.60407 0.5948 0.0
Co439 Co 0.4111 0.59327 0.56478 0.0
O440 O 0.43218 0.6101 0.61114 0.0
C441 C 0.44761 0.60864 0.49867 0.0
C442 C 0.47036 0.54843 0.52788 0.0
C443 C 0.45657 0.61468 0.61584 0.0
O444 O 0.46136 0.59831 0.51353 0.0
O445 O 0.42583 0.60646 0.5133 0.0
O446 O 0.43741 0.54603 0.59915 0.0
O447 O 0.4157 0.5616 0.56572 0.0
Co448 Co 0.44098 0.88262 0.56648 0.0
O449 O 0.4696 0.90442 0.53133 0.0
O450 O 0.44447 0.91856 0.56101 0.0
C451 C 0.46571 0.86801 0.59934 0.0
O452 O 0.41028 0.86598 0.60565 0.0
Co453 Co 0.417 0.81963 0.57095 0.0
O454 O 0.40325 0.82401 0.61993 0.0
C455 C 0.39655 0.84269 0.5129 0.0
C456 C 0.46451 0.92408 0.538 0.0
C457 C 0.39957 0.84421 0.62615 0.0
O458 O 0.41279 0.86721 0.52483 0.0
O459 O 0.39602 0.8214 0.5266 0.0
O460 O 0.4683 0.89187 0.60585 0.0
O461 O 0.45026 0.85487 0.57119 0.0
Co462 Co 0.2115 0.45747 0.28415 0.0
O463 O 0.21487 0.43204 0.31734 0.0
O464 O 0.17833 0.42204 0.28319 0.0
C465 C 0.25345 0.47387 0.25712 0.0
O466 O 0.19995 0.47662 0.24552 0.0
Co467 Co 0.25144 0.52062 0.28362 0.0
O468 O 0.23383 0.51979 0.2353 0.0
C469 C 0.20639 0.49546 0.33999 0.0
C470 C 0.19052 0.41369 0.30615 0.0
C471 C 0.21041 0.49942 0.22736 0.0
O472 O 0.19682 0.47116 0.32602 0.0
O473 O 0.2284 0.51645 0.32836 0.0
O474 O 0.23275 0.45085 0.24583 0.0
O475 O 0.24853 0.48509 0.2852 0.0
Co476 Co 0.55315 0.75914 0.2775 0.0
O477 O 0.5789 0.78803 0.30988 0.0
O478 O 0.58717 0.75824 0.28094 0.0
C479 C 0.54141 0.78611 0.24424 0.0
O480 O 0.53208 0.72743 0.24056 0.0
Co481 Co 0.49141 0.74213 0.27667 0.0
O482 O 0.49157 0.72478 0.22853 0.0
C483 C 0.51234 0.71977 0.33526 0.0
C484 C 0.5962 0.77986 0.30216 0.0
C485 C 0.50965 0.7181 0.22157 0.0
O486 O 0.53673 0.73274 0.32125 0.0
O487 O 0.49231 0.72213 0.32258 0.0
O488 O 0.56358 0.78545 0.23638 0.0
O489 O 0.52846 0.77247 0.27367 0.0
Co490 Co 0.24859 0.78399 0.28987 0.0
O491 O 0.21703 0.77545 0.3206 0.0
O492 O 0.2432 0.81545 0.29338 0.0
C493 C 0.22772 0.74487 0.25542 0.0
O494 O 0.28197 0.80017 0.25486 0.0
Co495 Co 0.27524 0.74688 0.28945 0.0
O496 O 0.29376 0.76803 0.24381 0.0
C497 C 0.28417 0.78373 0.35352 0.0
C498 C 0.22165 0.80001 0.31355 0.0
C499 C 0.29586 0.79122 0.237 0.0
O500 O 0.27344 0.79601 0.33565 0.0
O501 O 0.28422 0.76239 0.34123 0.0
O502 O 0.22423 0.76538 0.24709 0.0
O503 O 0.24164 0.74791 0.28542 0.0
H504 H 0.16596 0.04187 0.07402 0.0
H505 H 0.23533 0.08635 1.00079 0.0
H506 H 0.21657 0.04747 0.95741 0.0
H507 H 0.1785 1.00196 0.93801 0.0
H508 H 0.10809 0.95929 0.00984 0.0
H509 H 0.12939 0.9959 0.05639 0.0
C510 C 0.17708 0.04304 0.04867 0.0
C511 C 0.20193 0.06709 0.04056 0.0
C512 C 0.16604 0.02073 0.02373 0.0
C513 C 0.21608 0.06816 0.00762 0.0
C514 C 0.20539 0.04589 0.98283 0.0
C515 C 0.16828 1.00042 0.96436 0.0
C516 C 0.14199 0.97783 0.97087 0.0
C517 C 0.1802 0.02217 0.99034 0.0
C518 C 0.12849 0.97637 0.00455 0.0
C519 C 0.14055 0.9974 0.03098 0.0
H520 H 0.97494 0.16188 0.0837 0.0
H521 H 0.91649 0.09673 0.01315 0.0
H522 H 0.95171 0.1084 0.96532 0.0
H523 H 0.99912 0.13682 0.94383 0.0
H524 H 0.05696 0.20514 0.01063 0.0
H525 H 0.02207 0.19296 0.0596 0.0
C526 C 0.97009 0.15038 0.05776 0.0
C527 C 0.94344 0.12826 0.05192 0.0
C528 C 0.99027 0.15787 0.02983 0.0
C529 C 0.93701 0.11366 0.01817 0.0
C530 C 0.9571 0.12035 0.99088 0.0
C531 C 1.00406 0.14903 0.96916 0.0
C532 C 0.03058 0.1716 0.97398 0.0
C533 C 0.98379 0.14233 0.99647 0.0
C534 C 0.03664 0.18764 0.00646 0.0
C535 C 0.01675 0.18061 0.03442 0.0
H536 H 0.82818 0.83004 0.95186 0.0
H537 H 0.87341 0.90801 0.00794 0.0
H538 H 0.88993 0.88777 0.05428 0.0
H539 H 0.89393 0.8487 0.07666 0.0
H540 H 0.85165 0.77145 0.01813 0.0
H541 H 0.83163 0.79046 0.97514 0.0
C542 C 0.84127 0.8424 0.97462 0.0
C543 C 0.84945 0.87043 0.97663 0.0
C544 C 0.8515 0.83082 1.00051 0.0
C545 C 0.86685 0.88638 0.00584 0.0
C546 C 0.87636 0.87484 0.03229 0.0
C547 C 0.8802 0.83596 0.05466 0.0
C548 C 0.87436 0.8087 0.05061 0.0
C549 C 0.86923 0.84721 0.02954 0.0
C550 C 0.8566 0.79254 0.0218 0.0
C551 C 0.8451 0.80339 0.99721 0.0
H552 H 0.97747 0.11697 0.50291 0.0
H553 H 0.99343 0.19153 0.55833 0.0
H554 H 0.03325 0.21815 0.51776 0.0
H555 H 0.06523 0.21965 0.46871 0.0
H556 H 0.04645 0.14493 0.4109 0.0
H557 H 0.00626 0.11905 0.45013 0.0
C558 C 0.98952 0.13909 0.50583 0.0
C559 C 0.98266 0.15225 0.53373 0.0
C560 C 0.0121 0.15422 0.48218 0.0
C561 C 0.99823 0.18095 0.53693 0.0
C562 C 0.02111 0.19614 0.51392 0.0
C563 C 0.05224 0.19773 0.46465 0.0
C564 C 0.05921 0.18422 0.4373 0.0
C565 C 0.02854 0.18292 0.48682 0.0
C566 C 0.04188 0.15588 0.43193 0.0
C567 C 0.01878 0.14099 0.45438 0.0
H568 H 0.85303 0.88766 0.42825 0.0
H569 H 0.7799 0.85426 0.49594 0.0
H570 H 0.79851 0.83281 0.53728 0.0
H571 H 0.83685 0.82555 0.55597 0.0
H572 H 0.91092 0.86198 0.49018 0.0
H573 H 0.89055 0.87982 0.44594 0.0
C574 C 0.84109 0.87564 0.45198 0.0
C575 C 0.81514 0.87267 0.45907 0.0
C576 C 0.85206 0.8637 0.47581 0.0
C577 C 0.79999 0.857 0.48997 0.0
C578 C 0.81059 0.84466 0.51355 0.0
C579 C 0.8482 0.83689 0.53147 0.0
C580 C 0.87518 0.84217 0.52594 0.0
C581 C 0.83671 0.84803 0.50691 0.0
C582 C 0.89004 0.8575 0.49472 0.0
C583 C 0.87847 0.86784 0.46959 0.0
H584 H 0.12535 0.96889 0.41968 0.0
H585 H 0.16001 0.92921 0.48492 0.0
H586 H 0.18137 0.96881 0.52707 0.0
H587 H 0.18868 0.01428 0.54691 0.0
H588 H 0.15173 0.05218 0.48264 0.0
H589 H 0.13321 0.01405 0.43843 0.0
C590 C 0.13762 0.96888 0.44307 0.0
C591 C 0.14098 0.94605 0.44917 0.0
C592 C 0.14961 0.99157 0.46732 0.0
C593 C 0.15697 0.94646 0.47965 0.0
C594 C 0.16927 0.96914 0.50373 0.0
C595 C 0.17696 0.01432 0.52286 0.0
C596 C 0.17169 0.03608 0.51793 0.0
C597 C 0.16561 0.99181 0.49799 0.0
C598 C 0.15605 0.03566 0.48702 0.0
C599 C 0.14537 0.01382 0.46179 0.0
H600 H 0.89479 0.03558 0.00138 0.0
H601 H 0.82363 0.01578 0.06847 0.0
H602 H 0.79623 0.97415 0.03127 0.0
H603 H 0.79368 0.94159 0.98225 0.0
H604 H 0.86517 0.96354 0.91437 0.0
H605 H 0.89121 0.00583 0.94943 0.0
C606 C 0.87318 0.02231 0.00757 0.0
C607 C 0.86129 0.0286 0.03774 0.0
C608 C 0.85769 0.99854 0.98624 0.0
C609 C 0.83321 0.01144 0.04521 0.0
C610 C 0.81762 0.98751 0.02417 0.0
C611 C 0.81492 0.9557 0.97516 0.0
C612 C 0.82755 0.94911 0.94612 0.0
C613 C 0.82982 0.98051 0.9951 0.0
C614 C 0.85496 0.96783 0.93681 0.0
C615 C 0.86993 0.99215 0.9568 0.0
H616 H 0.97373 0.86608 0.99744 0.0
H617 H 0.98893 0.8053 0.04781 0.0
H618 H 0.02893 0.81971 0.00743 0.0
H619 H 0.06128 0.85164 0.96037 0.0
H620 H 0.04463 0.9111 0.90882 0.0
H621 H 1.00367 0.89527 0.94723 0.0
C622 C 0.98565 0.85581 0.9994 0.0
C623 C 0.97845 0.83479 0.02584 0.0
C624 C 0.00857 0.86418 0.97613 0.0
C625 C 0.99394 0.82148 0.02764 0.0
C626 C 0.01694 0.82985 0.00474 0.0
C627 C 0.04861 0.86105 0.95752 0.0
C628 C 0.05621 0.88276 0.93212 0.0
C629 C 0.02474 0.85152 0.97934 0.0
C630 C 0.03939 0.89449 0.9283 0.0
C631 C 0.01592 0.88544 0.95026 0.0
H632 H 0.16198 0.22089 0.97474 0.0
H633 H 0.10427 0.14976 0.91189 0.0
H634 H 0.11829 0.12134 0.94597 0.0
H635 H 0.1455 0.11608 0.99539 0.0
H636 H 0.2051 0.18722 0.05639 0.0
H637 H 0.19214 0.21622 0.02098 0.0
C638 C 0.15256 0.19919 0.96848 0.0
C639 C 0.13184 0.18744 0.94112 0.0
C640 C 0.16114 0.18294 0.98777 0.0
C641 C 0.12012 0.15936 0.93292 0.0
C642 C 0.12813 0.14303 0.95242 0.0
C643 C 0.15581 0.13797 1.00077 0.0
C644 C 0.17609 0.14941 0.0287 0.0
C645 C 0.14841 0.15453 0.98015 0.0
C646 C 0.18948 0.17787 0.03496 0.0
C647 C 0.18195 0.19446 0.01488 0.0
H648 H 0.95031 0.79071 0.52317 0.0
H649 H 0.96908 0.86157 0.59072 0.0
H650 H 0.01087 0.88914 0.5551 0.0
H651 H 0.04098 0.89404 0.50279 0.0
H652 H 0.0243 0.82336 0.43644 0.0
H653 H 0.98324 0.79476 0.47392 0.0
C654 C 0.96364 0.81216 0.53012 0.0
C655 C 0.95628 0.82412 0.55922 0.0
C656 C 0.98812 0.82793 0.50986 0.0
C657 C 0.974 0.85183 0.56829 0.0
C658 C 0.998 0.86768 0.54794 0.0
C659 C 0.02852 0.8723 0.49675 0.0
C660 C 0.03557 0.8609 0.4667 0.0
C661 C 1.00508 0.85605 0.5184 0.0
C662 C 0.0194 0.83263 0.45953 0.0
C663 C 0.99579 0.81632 0.48078 0.0
H664 H 0.17786 0.18319 0.43927 0.0
H665 H 0.1046 0.14642 0.50676 0.0
H666 H 0.12655 0.1308 0.55182 0.0
H667 H 0.16519 0.12487 0.56966 0.0
H668 H 0.23728 0.15804 0.49988 0.0
H669 H 0.21725 0.17778 0.45799 0.0
C670 C 0.167 0.17223 0.46427 0.0
C671 C 0.13981 0.16618 0.47005 0.0
C672 C 0.17939 0.16235 0.48927 0.0
C673 C 0.12561 0.15141 0.50198 0.0
C674 C 0.1381 0.14238 0.52759 0.0
C675 C 0.17661 0.1365 0.54538 0.0
C676 C 0.20266 0.13989 0.53782 0.0
C677 C 0.16475 0.14725 0.52113 0.0
C678 C 0.21714 0.15502 0.50621 0.0
C679 C 0.20571 0.16635 0.48231 0.0
H680 H 0.85237 0.06681 0.52487 0.0
H681 H 0.91187 0.05527 0.58621 0.0
H682 H 0.8989 0.0133 0.55178 0.0
H683 H 0.87151 0.98015 0.50343 0.0
H684 H 0.8099 0.98925 0.44385 0.0
H685 H 0.82241 0.03139 0.47871 0.0
C686 C 0.86247 0.05509 0.53057 0.0
C687 C 0.88333 0.06444 0.55779 0.0
C688 C 0.85438 0.03034 0.51118 0.0
C689 C 0.89591 0.04877 0.56532 0.0
C690 C 0.88847 0.02465 0.54565 0.0
C691 C 0.86067 0.99124 0.4982 0.0
C692 C 0.83991 0.98161 0.47092 0.0
C693 C 0.86783 0.01529 0.51846 0.0
C694 C 0.82588 0.99611 0.46483 0.0
C695 C 0.83317 0.02033 0.48458 0.0
H696 H 0.77476 0.30433 0.3326 0.0
H697 H 0.84727 0.31555 0.27593 0.0
H698 H 0.87599 0.35496 0.31613 0.0
H699 H 0.87996 0.38841 0.36466 0.0
H700 H 0.80681 0.37496 0.42221 0.0
H701 H 0.779 0.33457 0.38428 0.0
C702 C 0.79689 0.31518 0.32935 0.0
C703 C 0.80883 0.30713 0.30118 0.0
C704 C 0.81317 0.33775 0.35239 0.0
C705 C 0.83756 0.32122 0.29757 0.0
C706 C 0.85397 0.34393 0.32032 0.0
C707 C 0.85795 0.37656 0.36888 0.0
C708 C 0.84548 0.38505 0.39584 0.0
C709 C 0.84193 0.35278 0.34732 0.0
C710 C 0.81699 0.36919 0.40144 0.0
C711 C 0.80099 0.34596 0.37979 0.0
H712 H 0.63837 0.4509 0.39932 0.0
H713 H 0.60432 0.49462 0.34236 0.0
H714 H 0.64158 0.51178 0.29647 0.0
H715 H 0.68301 0.51276 0.27099 0.0
H716 H 0.7145 0.46604 0.32604 0.0
H717 H 0.67928 0.45183 0.37428 0.0
C718 C 0.63911 0.46426 0.37697 0.0
C719 C 0.61858 0.47144 0.37427 0.0
C720 C 0.66023 0.47354 0.3503 0.0
C721 C 0.61984 0.48871 0.34501 0.0
C722 C 0.64117 0.49856 0.31878 0.0
C723 C 0.68229 0.49976 0.29385 0.0
C724 C 0.70137 0.49054 0.29508 0.0
C725 C 0.66139 0.49094 0.32096 0.0
C726 C 0.69999 0.47334 0.32447 0.0
C727 C 0.67985 0.46519 0.35204 0.0
H728 H 0.55783 0.18762 0.41295 0.0
H729 H 0.51785 0.11106 0.3525 0.0
H730 H 0.49839 0.13013 0.30871 0.0
H731 H 0.49451 0.16949 0.28572 0.0
H732 H 0.53655 0.24651 0.34492 0.0
H733 H 0.55307 0.2263 0.39116 0.0
C734 C 0.54476 0.17506 0.3903 0.0
C735 C 0.53939 0.148 0.38596 0.0
C736 C 0.53391 0.18626 0.36497 0.0
C737 C 0.52242 0.13201 0.35641 0.0
C738 C 0.51123 0.14289 0.33136 0.0
C739 C 0.50692 0.18167 0.30909 0.0
C740 C 0.51426 0.20944 0.3119 0.0
C741 C 0.51701 0.17009 0.33515 0.0
C742 C 0.5307 0.22511 0.34204 0.0
C743 C 0.54021 0.21359 0.36848 0.0
H744 H 0.66252 0.50974 0.88037 0.0
H745 H 0.62215 0.44004 0.80658 0.0
H746 H 0.65965 0.46231 0.76163 0.0
H747 H 0.70545 0.49918 0.74621 0.0
H748 H 0.74844 0.56766 0.82141 0.0
H749 H 0.70834 0.54847 0.8629 0.0
C750 C 0.66175 0.49983 0.85401 0.0
C751 C 0.63962 0.47342 0.8465 0.0
C752 C 0.68398 0.51234 0.82894 0.0
C753 C 0.63899 0.46041 0.81274 0.0
C754 C 0.66045 0.47307 0.78718 0.0
C755 C 0.70608 0.51008 0.77155 0.0
C756 C 0.73 0.53469 0.78091 0.0
C757 C 0.68334 0.49864 0.79547 0.0
C758 C 0.73031 0.54862 0.81368 0.0
C759 C 0.7074 0.53762 0.8374 0.0
H760 H 0.46044 0.18072 0.79951 0.0
H761 H 0.53447 0.23149 0.73696 0.0
H762 H 0.55941 0.2154 0.77504 0.0
H763 H 0.5611 0.18893 0.82821 0.0
H764 H 0.48717 0.13628 0.88959 0.0
H765 H 0.46126 0.1506 0.84954 0.0
C766 C 0.48199 0.18813 0.79415 0.0
C767 C 0.49563 0.20765 0.76576 0.0
C768 C 0.49625 0.17836 0.81587 0.0
C769 C 0.52346 0.21672 0.7588 0.0
C770 C 0.5378 0.20749 0.78057 0.0
C771 C 0.53925 0.18036 0.83261 0.0
C772 C 0.52615 0.16173 0.86203 0.0
C773 C 0.52452 0.18862 0.80947 0.0
C774 C 0.49775 0.15057 0.86705 0.0
C775 C 0.48296 0.15892 0.84432 0.0
H776 H 0.84793 0.34482 0.88899 0.0
H777 H 0.81456 0.38454 0.82127 0.0
H778 H 0.79559 0.34602 0.7776 0.0
H779 H 0.78603 0.30006 0.76068 0.0
H780 H 0.81656 0.25832 0.82966 0.0
H781 H 0.83898 0.29845 0.87089 0.0
C782 C 0.83692 0.34515 0.86428 0.0
C783 C 0.83277 0.36752 0.85814 0.0
C784 C 0.82523 0.32242 0.83986 0.0
C785 C 0.81802 0.36754 0.82647 0.0
C786 C 0.80709 0.3455 0.80159 0.0
C787 C 0.79764 0.29971 0.78466 0.0
C788 C 0.79951 0.27618 0.79216 0.0
C789 C 0.81012 0.32263 0.80838 0.0
C790 C 0.81469 0.27614 0.82335 0.0
C791 C 0.82756 0.2991 0.84689 0.0
H792 H 0.5048 0.34729 0.38725 0.0
H793 H 0.5728 0.39233 0.31227 0.0
H794 H 0.55248 0.35489 0.26692 0.0
H795 H 0.51772 0.30776 0.25104 0.0
H796 H 0.45061 0.26124 0.32688 0.0
H797 H 0.46815 0.30056 0.36935 0.0
C798 C 0.51469 0.34909 0.36054 0.0
C799 C 0.5401 0.37258 0.35287 0.0
C800 C 0.50333 0.32697 0.33506 0.0
C801 C 0.55313 0.37447 0.31858 0.0
C802 C 0.54163 0.353 0.29278 0.0
C803 C 0.50681 0.30626 0.27674 0.0
C804 C 0.48301 0.28152 0.28587 0.0
C805 C 0.51714 0.32886 0.30114 0.0
C806 C 0.46908 0.28 0.31924 0.0
C807 C 0.47908 0.30251 0.34354 0.0
H808 H 0.72432 0.18004 0.29962 0.0
H809 H 0.70608 0.23554 0.23955 0.0
H810 H 0.66504 0.22088 0.27706 0.0
H811 H 0.63563 0.19442 0.32903 0.0
H812 H 0.65216 0.13779 0.38897 0.0
H813 H 0.69208 0.15023 0.34892 0.0
C814 C 0.71128 0.18882 0.29473 0.0
C815 C 0.71854 0.20917 0.26715 0.0
C816 C 0.68728 0.17997 0.31621 0.0
C817 C 0.70121 0.22006 0.26076 0.0
C818 C 0.67764 0.21165 0.28218 0.0
C819 C 0.64778 0.18455 0.33311 0.0
C820 C 0.64105 0.16537 0.36213 0.0
C821 C 0.67068 0.19191 0.31025 0.0
C822 C 0.65681 0.15253 0.36672 0.0
C823 C 0.67979 0.15983 0.34404 0.0
H824 H 0.81288 0.44215 0.32954 0.0
H825 H 0.86541 0.51388 0.39492 0.0
H826 H 0.85428 0.54203 0.35417 0.0
H827 H 0.82642 0.5452 0.30256 0.0
H828 H 0.77655 0.47329 0.23553 0.0
H829 H 0.78968 0.44635 0.27427 0.0
C830 C 0.8222 0.46404 0.33449 0.0
C831 C 0.83976 0.47593 0.36521 0.0
C832 C 0.81585 0.48 0.31094 0.0
C833 C 0.85195 0.50433 0.37121 0.0
C834 C 0.84539 0.52035 0.34814 0.0
C835 C 0.81858 0.52368 0.29641 0.0
C836 C 0.80002 0.51119 0.26666 0.0
C837 C 0.82683 0.50827 0.31838 0.0
C838 C 0.79048 0.48341 0.25854 0.0
C839 C 0.79804 0.46791 0.28065 0.0
H840 H 0.62919 0.17568 0.91724 0.0
H841 H 0.58962 0.10319 0.84826 0.0
H842 H 0.62891 0.12295 0.80555 0.0
H843 H 0.6737 0.16224 0.78587 0.0
H844 H 0.71134 0.23532 0.85388 0.0
H845 H 0.67395 0.21386 0.899 0.0
C846 C 0.62917 0.16411 0.89297 0.0
C847 C 0.60641 0.13803 0.88592 0.0
C848 C 0.65163 0.17573 0.86833 0.0
C849 C 0.60682 0.12336 0.85431 0.0
C850 C 0.62931 0.13464 0.82987 0.0
C851 C 0.67388 0.1732 0.81093 0.0
C852 C 0.69531 0.20031 0.8166 0.0
C853 C 0.65176 0.16097 0.83636 0.0
C854 C 0.69507 0.21446 0.84887 0.0
C855 C 0.67365 0.20224 0.87464 0.0
H856 H 0.82859 0.46062 0.91459 0.0
H857 H 0.89741 0.48804 0.83957 0.0
H858 H 0.8783 0.50958 0.79939 0.0
H859 H 0.84043 0.51808 0.78357 0.0
H860 H 0.77047 0.48788 0.85697 0.0
H861 H 0.7918 0.4704 0.90011 0.0
C862 C 0.8395 0.47141 0.88955 0.0
C863 C 0.86432 0.47259 0.88 0.0
C864 C 0.82822 0.48339 0.86638 0.0
C865 C 0.87819 0.4867 0.84746 0.0
C866 C 0.8673 0.49907 0.82451 0.0
C867 C 0.83018 0.5082 0.80943 0.0
C868 C 0.80401 0.50445 0.81727 0.0
C869 C 0.84216 0.4973 0.83347 0.0
C870 C 0.79066 0.49108 0.85044 0.0
C871 C 0.80278 0.48096 0.875 0.0
H872 H 0.55876 0.37301 0.90309 0.0
H873 H 0.51654 0.40717 0.84253 0.0
H874 H 0.49699 0.36782 0.8001 0.0
H875 H 0.49423 0.325 0.77766 0.0
H876 H 0.53908 0.29276 0.83592 0.0
H877 H 0.55488 0.32969 0.88199 0.0
C878 C 0.54514 0.37177 0.88077 0.0
C879 C 0.53921 0.39306 0.87593 0.0
C880 C 0.53435 0.3493 0.85606 0.0
C881 C 0.52156 0.39113 0.84678 0.0
C882 C 0.51032 0.36859 0.82252 0.0
C883 C 0.507 0.3258 0.8009 0.0
C884 C 0.51535 0.30611 0.80355 0.0
C885 C 0.51682 0.3477 0.82659 0.0
C886 C 0.53236 0.30768 0.83336 0.0
C887 C 0.5415 0.32885 0.85961 0.0
H888 H 0.50861 0.65857 0.6122 0.0
H889 H 0.43965 0.61504 0.68625 0.0
H890 H 0.46188 0.65098 0.73337 0.0
H891 H 0.49886 0.69653 0.75138 0.0
H892 H 0.56691 0.74194 0.67648 0.0
H893 H 0.54724 0.70375 0.63197 0.0
C894 C 0.49886 0.65676 0.63903 0.0
C895 C 0.47265 0.63415 0.64594 0.0
C896 C 0.51138 0.67808 0.66559 0.0
C897 C 0.45988 0.63224 0.68045 0.0
C898 C 0.4725 0.65285 0.7073 0.0
C899 C 0.50952 0.69803 0.72545 0.0
C900 C 0.53423 0.72214 0.71721 0.0
C901 C 0.49791 0.67617 0.69982 0.0
C902 C 0.54778 0.72366 0.68348 0.0
C903 C 0.53654 0.7018 0.658 0.0
H904 H 0.35791 0.85536 0.62171 0.0
H905 H 0.39526 0.82253 0.69495 0.0
H906 H 0.35695 0.80707 0.73863 0.0
H907 H 0.31104 0.79907 0.75307 0.0
H908 H 0.27195 0.82932 0.67847 0.0
H909 H 0.31255 0.84946 0.63818 0.0
C910 C 0.35792 0.84548 0.64775 0.0
C911 C 0.37942 0.84029 0.65539 0.0
C912 C 0.33525 0.83568 0.67206 0.0
C913 C 0.37896 0.82687 0.68871 0.0
C914 C 0.35699 0.81785 0.71351 0.0
C915 C 0.31143 0.81019 0.7281 0.0
C916 C 0.28842 0.8125 0.71863 0.0
C917 C 0.33468 0.82146 0.70496 0.0
C918 C 0.28933 0.8271 0.68627 0.0
C919 C 0.31257 0.83868 0.66326 0.0
H920 H 0.1947 0.56605 0.67936 0.0
H921 H 0.14263 0.49562 0.61147 0.0
H922 H 0.15585 0.46737 0.64852 0.0
H923 H 0.18491 0.46372 0.6981 0.0
H924 H 0.2346 0.53444 0.76728 0.0
H925 H 0.21981 0.56143 0.73179 0.0
C926 C 0.186 0.54443 0.67293 0.0
C927 C 0.16788 0.53298 0.64263 0.0
C928 C 0.19358 0.52841 0.69433 0.0
C929 C 0.15651 0.50488 0.63485 0.0
C930 C 0.16426 0.48878 0.65582 0.0
C931 C 0.19239 0.485 0.70539 0.0
C932 C 0.21128 0.4971 0.73492 0.0
C933 C 0.18323 0.50047 0.68524 0.0
C934 C 0.22039 0.52459 0.74445 0.0
C935 C 0.21187 0.54012 0.7242 0.0
H936 H 0.39874 0.87766 0.14464 0.0
H937 H 0.37635 0.80522 0.07861 0.0
H938 H 0.33653 0.77859 0.11808 0.0
H939 H 0.30946 0.77487 0.17358 0.0
H940 H 0.32926 0.84708 0.23825 0.0
H941 H 0.36826 0.87485 0.19683 0.0
C942 C 0.38502 0.8561 0.1388 0.0
C943 C 0.39091 0.84339 0.10908 0.0
C944 C 0.3616 0.84084 0.16132 0.0
C945 C 0.37265 0.81553 0.10151 0.0
C946 C 0.34976 0.80021 0.12408 0.0
C947 C 0.32214 0.79677 0.17835 0.0
C948 C 0.31667 0.80888 0.20907 0.0
C949 C 0.34428 0.81252 0.15437 0.0
C950 C 0.33301 0.83731 0.21467 0.0
C951 C 0.35543 0.85314 0.19116 0.0
H952 H 0.1251 0.51684 0.13371 0.0
H953 H 0.19899 0.57152 0.07342 0.0
H954 H 0.22546 0.55811 0.1129 0.0
H955 H 0.22838 0.53278 0.16676 0.0
H956 H 0.15457 0.4757 0.22506 0.0
H957 H 0.12736 0.48765 0.18389 0.0
C958 C 0.14696 0.52569 0.12916 0.0
C959 C 0.16007 0.54557 0.10106 0.0
C960 C 0.16213 0.51735 0.15154 0.0
C961 C 0.18834 0.55647 0.09508 0.0
C962 C 0.20358 0.54877 0.11765 0.0
C963 C 0.20629 0.52273 0.17017 0.0
C964 C 0.19356 0.50354 0.19907 0.0
C965 C 0.19078 0.52953 0.14626 0.0
C966 C 0.16488 0.49046 0.2029 0.0
C967 C 0.14932 0.49744 0.17954 0.0
H968 H 0.51794 0.67438 0.22425 0.0
H969 H 0.48431 0.71327 0.15538 0.0
H970 H 0.46556 0.67442 0.11222 0.0
H971 H 0.45573 0.62801 0.09655 0.0
H972 H 0.48697 0.58757 0.16687 0.0
H973 H 0.50946 0.62818 0.20699 0.0
C974 C 0.50703 0.67454 0.19933 0.0
C975 C 0.50266 0.69671 0.19281 0.0
C976 C 0.49544 0.65162 0.17526 0.0
C977 C 0.48798 0.69645 0.16087 0.0
C978 C 0.47713 0.67418 0.13631 0.0
C979 C 0.46754 0.62809 0.12057 0.0
C980 C 0.46952 0.60471 0.1288 0.0
C981 C 0.48018 0.65139 0.14368 0.0
C982 C 0.48498 0.60523 0.16 0.0
C983 C 0.49791 0.62849 0.18292 0.0
H984 H 0.18417 0.64285 0.59264 0.0
H985 H 0.11398 0.60116 0.66528 0.0
H986 H 0.13287 0.64117 0.7067 0.0
H987 H 0.17098 0.68726 0.72428 0.0
H988 H 0.24182 0.72735 0.65256 0.0
H989 H 0.22086 0.68912 0.60847 0.0
C990 C 0.17293 0.64251 0.61746 0.0
C991 C 0.14778 0.61895 0.62595 0.0
C992 C 0.18398 0.6655 0.64121 0.0
C993 C 0.13346 0.61896 0.65818 0.0
C994 C 0.14423 0.64188 0.68184 0.0
C995 C 0.18143 0.68782 0.69853 0.0
C996 C 0.20777 0.71017 0.69142 0.0
C997 C 0.16962 0.66522 0.67385 0.0
C998 C 0.22145 0.71041 0.65843 0.0
C999 C 0.20957 0.68849 0.63336 0.0
H1000 H 0.32847 0.49449 0.72544 0.0
H1001 H 0.29662 0.54127 0.67148 0.0
H1002 H 0.33158 0.55561 0.62284 0.0
H1003 H 0.3725 0.55683 0.59732 0.0
H1004 H 0.4069 0.513 0.6531 0.0
H1005 H 0.36979 0.49554 0.69924 0.0
C1006 C 0.32903 0.5075 0.70271 0.0
C1007 C 0.30994 0.51672 0.70192 0.0
C1008 C 0.34981 0.51641 0.67537 0.0
C1009 C 0.31113 0.53395 0.67268 0.0
C1010 C 0.33113 0.5422 0.6449 0.0
C1011 C 0.37186 0.54338 0.61947 0.0
C1012 C 0.39248 0.53627 0.62177 0.0
C1013 C 0.35082 0.5339 0.64626 0.0
C1014 C 0.39133 0.51886 0.65075 0.0
C1015 C 0.37008 0.50885 0.67713 0.0
H1016 H 0.52448 0.83349 0.72096 0.0
H1017 H 0.47805 0.75589 0.66416 0.0
H1018 H 0.46115 0.77661 0.61929 0.0
H1019 H 0.45748 0.8161 0.59804 0.0
H1020 H 0.50195 0.89326 0.6564 0.0
H1021 H 0.52159 0.87348 0.69863 0.0
C1022 C 0.51099 0.82127 0.69842 0.0
C1023 C 0.50256 0.79321 0.69591 0.0
C1024 C 0.50073 0.83317 0.67317 0.0
C1025 C 0.48476 0.77752 0.66683 0.0
C1026 C 0.47503 0.78933 0.64116 0.0
C1027 C 0.47157 0.82863 0.61987 0.0
C1028 C 0.47817 0.85608 0.62409 0.0
C1029 C 0.48251 0.81702 0.6444 0.0
C1030 C 0.49643 0.87202 0.65261 0.0
C1031 C 0.50772 0.86073 0.67677 0.0
H1032 H 0.2738 0.45407 0.20299 0.0
H1033 H 0.29335 0.52673 0.26689 0.0
H1034 H 0.33623 0.55252 0.23326 0.0
H1035 H 0.36739 0.55554 0.18375 0.0
H1036 H 0.35018 0.48331 0.12083 0.0
H1037 H 0.30774 0.45624 0.15646 0.0
C1038 C 0.28751 0.47551 0.20953 0.0
C1039 C 0.28001 0.4885 0.23699 0.0
C1040 C 0.31274 0.49033 0.19045 0.0
C1041 C 0.29826 0.5162 0.2456 0.0
C1042 C 0.32295 0.53105 0.22644 0.0
C1043 C 0.35452 0.53379 0.17811 0.0
C1044 C 0.36184 0.52152 0.14956 0.0
C1045 C 0.33026 0.51845 0.19857 0.0
C1046 C 0.3451 0.49324 0.14285 0.0
C1047 C 0.32069 0.47781 0.16299 0.0
H1048 H 0.49133 0.78234 0.24733 0.0
H1049 H 0.56699 0.81972 0.1848 0.0
H1050 H 0.54834 0.83995 0.1416 0.0
H1051 H 0.50925 0.84443 0.11899 0.0
H1052 H 0.4327 0.80413 0.17922 0.0
H1053 H 0.453 0.78802 0.22611 0.0
C1054 C 0.50382 0.79506 0.22441 0.0
C1055 C 0.53047 0.7994 0.21924 0.0
C1056 C 0.49277 0.8062 0.19926 0.0
C1057 C 0.54634 0.81592 0.18933 0.0
C1058 C 0.53571 0.82754 0.16462 0.0
C1059 C 0.49727 0.83262 0.14284 0.0
C1060 C 0.4696 0.82563 0.14585 0.0
C1061 C 0.5088 0.82254 0.16899 0.0
C1062 C 0.45407 0.8098 0.17642 0.0
C1063 C 0.46562 0.80049 0.20313 0.0
H1064 H 0.18758 0.72524 0.20194 0.0
H1065 H 0.24759 0.70975 0.25436 0.0
H1066 H 0.23453 0.67059 0.21354 0.0
H1067 H 0.20728 0.64147 0.16157 0.0
H1068 H 0.14522 0.65449 0.11076 0.0
H1069 H 0.1574 0.69336 0.15267 0.0
C1070 C 0.19774 0.71325 0.20434 0.0
C1071 C 0.21883 0.72071 0.2308 0.0
C1072 C 0.18962 0.69013 0.18125 0.0
C1073 C 0.23149 0.7047 0.23408 0.0
C1074 C 0.224 0.68219 0.21076 0.0
C1075 C 0.19625 0.65267 0.15986 0.0
C1076 C 0.17551 0.64521 0.13294 0.0
C1077 C 0.20325 0.67483 0.18409 0.0
C1078 C 0.16119 0.65972 0.13138 0.0
C1079 C 0.1683 0.68209 0.15514 0.0
H1080 H 0.13291 0.13269 0.31401 0.0
H1081 H 0.16808 0.21634 0.27639 0.0
H1082 H 0.19109 0.20676 0.22484 0.0
H1083 H 0.19738 0.17278 0.18714 0.0
H1084 H 0.16012 0.08918 0.22598 0.0
H1085 H 0.14208 0.10067 0.28068 0.0
C1086 C 0.14562 0.14896 0.29461 0.0
C1087 C 0.14828 0.17506 0.29861 0.0
C1088 C 0.15852 0.14326 0.26529 0.0
C1089 C 0.16548 0.196 0.27377 0.0
C1090 C 0.17858 0.19049 0.24427 0.0
C1091 C 0.18588 0.15735 0.20814 0.0
C1092 C 0.18006 0.13013 0.20257 0.0
C1093 C 0.17481 0.16398 0.2393 0.0
C1094 C 0.1648 0.1102 0.22964 0.0
C1095 C 0.15437 0.11673 0.26083 0.0
H1096 H 0.81954 0.98325 0.3151 0.0
H1097 H 0.85729 0.93766 0.27494 0.0
H1098 H 0.87644 0.96852 0.22171 0.0
H1099 H 0.88575 0.01023 0.18962 0.0
H1100 H 0.8493 0.05738 0.22837 0.0
H1101 H 0.82643 0.02427 0.27921 0.0
C1102 C 0.83137 0.97977 0.2941 0.0
C1103 C 0.83694 0.95816 0.29881 0.0
C1104 C 0.84304 0.99819 0.26387 0.0
C1105 C 0.85271 0.95411 0.27183 0.0
C1106 C 0.86382 0.97186 0.24155 0.0
C1107 C 0.87292 0.01347 0.20921 0.0
C1108 C 0.86974 0.03662 0.2056 0.0
C1109 C 0.85979 0.99436 0.23791 0.0
C1110 C 0.85237 0.03991 0.23074 0.0
C1111 C 0.83925 0.02094 0.25974 0.0
H1112 H 0.99768 0.87503 0.18319 0.0
H1113 H 0.95752 0.79005 0.21641 0.0
H1114 H 0.99112 0.80173 0.26708 0.0
H1115 H 0.03051 0.83721 0.30453 0.0
H1116 H 0.06909 0.92178 0.26952 0.0
H1117 H 0.03781 0.90904 0.21667 0.0
C1118 C 0.99608 0.85894 0.2015 0.0
C1119 C 0.97471 0.83175 0.19633 0.0
C1120 C 0.01544 0.86576 0.23017 0.0
C1121 C 0.97357 0.8112 0.2199 0.0
C1122 C 0.99282 0.81789 0.24886 0.0
C1123 C 0.03239 0.85266 0.28478 0.0
C1124 C 0.05214 0.88044 0.29096 0.0
C1125 C 0.01374 0.84522 0.25457 0.0
C1126 C 0.05407 0.90031 0.26545 0.0
C1127 C 0.03609 0.89307 0.2353 0.0
H1128 H 0.86811 0.86393 0.6745 0.0
H1129 H 0.8538 0.78879 0.72608 0.0
H1130 H 0.83233 0.79786 0.78008 0.0
H1131 H 0.82358 0.83092 0.81592 0.0
H1132 H 0.83992 0.90641 0.76296 0.0
H1133 H 0.85409 0.89327 0.70586 0.0
C1134 C 0.85995 0.84934 0.69738 0.0
C1135 C 0.86292 0.82602 0.69678 0.0
C1136 C 0.84798 0.85483 0.72804 0.0
C1137 C 0.85182 0.80697 0.72611 0.0
C1138 C 0.83969 0.81225 0.757 0.0
C1139 C 0.82944 0.84396 0.7914 0.0
C1140 C 0.83074 0.86959 0.79346 0.0
C1141 C 0.83842 0.83659 0.75879 0.0
C1142 C 0.83877 0.88661 0.76184 0.0
C1143 C 0.84703 0.8792 0.72931 0.0
H1144 H 0.19575 0.02814 0.6818 0.0
H1145 H 0.16863 0.08219 0.72504 0.0
H1146 H 0.15086 0.05403 0.78096 0.0
H1147 H 0.13835 0.01176 0.81403 0.0
H1148 H 0.16356 0.95598 0.77196 0.0
H1149 H 0.18692 0.98708 0.71927 0.0
C1150 C 0.18659 0.03403 0.70399 0.0
C1151 C 0.1834 0.05714 0.69936 0.0
C1152 C 0.17563 0.01719 0.73587 0.0
C1153 C 0.17119 0.06443 0.728 0.0
C1154 C 0.1609 0.04828 0.75988 0.0
C1155 C 0.14904 0.00638 0.79343 0.0
C1156 C 0.14874 0.98134 0.79645 0.0
C1157 C 0.16217 0.02418 0.76347 0.0
C1158 C 0.1633 0.97505 0.77007 0.0
C1159 C 0.17659 0.99281 0.73993 0.0
H1160 H 0.99257 0.18483 0.68836 0.0
H1161 H 0.93105 0.11221 0.74437 0.0
H1162 H 0.95839 0.12586 0.80155 0.0
H1163 H 1.00267 0.15406 0.83178 0.0
H1164 H 0.0658 0.22601 0.77665 0.0
H1165 H 0.03506 0.21739 0.72305 0.0
C1166 C 0.98484 0.17265 0.71359 0.0
C1167 C 0.95981 0.14766 0.71248 0.0
C1168 C 1.00122 0.18023 0.74614 0.0
C1169 C 0.95015 0.13161 0.7449 0.0
C1170 C 0.96588 0.13928 0.77743 0.0
C1171 C 0.00947 0.16815 0.8083 0.0
C1172 C 0.03645 0.19037 0.80772 0.0
C1173 C 0.9919 0.16285 0.77779 0.0
C1174 C 0.04506 0.20874 0.77754 0.0
C1175 C 0.02754 0.20369 0.74687 0.0
H1176 H 0.83155 0.53224 0.62782 0.0
H1177 H 0.76672 0.45175 0.6613 0.0
H1178 H 0.78165 0.43048 0.61596 0.0
H1179 H 0.81052 0.43364 0.56454 0.0
H1180 H 0.87493 0.51234 0.52664 0.0
H1181 H 0.8633 0.53512 0.57635 0.0
C1182 C 0.82077 0.51009 0.62513 0.0
C1183 C 0.79764 0.49388 0.64777 0.0
C1184 C 0.82945 0.49748 0.59833 0.0
C1185 C 0.78419 0.46509 0.64406 0.0
C1186 C 0.7928 0.45266 0.61817 0.0
C1187 C 0.82224 0.45581 0.56723 0.0
C1188 C 0.84332 0.47127 0.54175 0.0
C1189 C 0.81503 0.46858 0.59487 0.0
C1190 C 0.85861 0.49993 0.54606 0.0
C1191 C 0.85176 0.51296 0.57424 0.0
H1192 H 0.55063 0.33551 0.64613 0.0
H1193 H 0.46698 0.28817 0.60795 0.0
H1194 H 0.47708 0.32103 0.55667 0.0
H1195 H 0.5115 0.36124 0.51937 0.0
H1196 H 0.59502 0.4066 0.55898 0.0
H1197 H 0.58308 0.37675 0.61329 0.0
C1198 C 0.53449 0.33229 0.62667 0.0
C1199 C 0.50822 0.30909 0.63043 0.0
C1200 C 0.54048 0.35107 0.59753 0.0
C1201 C 0.48744 0.30573 0.60551 0.0
C1202 C 0.49325 0.32451 0.57617 0.0
C1203 C 0.52682 0.36488 0.54044 0.0
C1204 C 0.55415 0.38608 0.53518 0.0
C1205 C 0.51991 0.34702 0.57144 0.0
C1206 C 0.57392 0.39039 0.56238 0.0
C1207 C 0.56713 0.37325 0.59336 0.0
H1208 H 0.66131 0.21217 0.52295 0.0
H1209 H 0.61712 0.12687 0.55486 0.0
H1210 H 0.64848 0.13685 0.60786 0.0
H1211 H 0.6872 0.17088 0.64739 0.0
H1212 H 0.73 0.25587 0.61371 0.0
H1213 H 0.70073 0.24481 0.55893 0.0
C1214 C 0.65837 0.19565 0.54148 0.0
C1215 C 0.63656 0.16888 0.5352 0.0
C1216 C 0.67644 0.20149 0.57154 0.0
C1217 C 0.63359 0.14773 0.55916 0.0
C1218 C 0.65155 0.15343 0.58946 0.0
C1219 C 0.69038 0.18679 0.6276 0.0
C1220 C 0.71069 0.21419 0.63471 0.0
C1221 C 0.67295 0.18035 0.59619 0.0
C1222 C 0.71442 0.23467 0.60903 0.0
C1223 C 0.69762 0.2284 0.57773 0.0
H1224 H 0.55474 0.20613 0.02078 0.0
H1225 H 0.50689 0.12146 0.05457 0.0
H1226 H 0.48754 0.13499 0.1066 0.0
H1227 H 0.48633 0.1719 0.14449 0.0
H1228 H 0.53535 0.25601 0.10832 0.0
H1229 H 0.55181 0.24155 0.05509 0.0
C1230 C 0.54015 0.19046 0.03949 0.0
C1231 C 0.5327 0.1628 0.03398 0.0
C1232 C 0.52916 0.19835 0.06896 0.0
C1233 C 0.51322 0.14292 0.05822 0.0
C1234 C 0.50214 0.15068 0.08798 0.0
C1235 C 0.50026 0.18693 0.12456 0.0
C1236 C 0.50969 0.21508 0.13061 0.0
C1237 C 0.51017 0.17846 0.09388 0.0
C1238 C 0.52791 0.23431 0.10464 0.0
C1239 C 0.53742 0.22607 0.07415 0.0
H1240 H 0.85696 0.3571 0.01787 0.0
H1241 H 0.82942 0.40961 0.0655 0.0
H1242 H 0.81191 0.38004 0.12018 0.0
H1243 H 0.79995 0.33722 0.15107 0.0
H1244 H 0.82525 0.28266 0.10461 0.0
H1245 H 0.84834 0.31508 0.05299 0.0
C1246 C 0.84775 0.36232 0.04074 0.0
C1247 C 0.84443 0.38548 0.03774 0.0
C1248 C 0.83692 0.34464 0.07188 0.0
C1249 C 0.83212 0.39188 0.06722 0.0
C1250 C 0.82199 0.37491 0.09839 0.0
C1251 C 0.81056 0.33235 0.12973 0.0
C1252 C 0.81037 0.30729 0.13121 0.0
C1253 C 0.82347 0.35085 0.10039 0.0
C1254 C 0.82489 0.30171 0.10391 0.0
C1255 C 0.83802 0.32023 0.07438 0.0
H1256 H 0.66978 0.46458 0.99714 0.0
H1257 H 0.61503 0.48811 0.04755 0.0
H1258 H 0.64729 0.50961 0.09976 0.0
H1259 H 0.6892 0.51728 0.13406 0.0
H1260 H 0.74276 0.49282 0.08196 0.0
H1261 H 0.71324 0.47675 0.02702 0.0
C1262 C 0.66491 0.47449 0.0195 0.0
C1263 C 0.63982 0.47423 0.01898 0.0
C1264 C 0.68351 0.48686 0.04898 0.0
C1265 C 0.63413 0.48781 0.04757 0.0
C1266 C 0.65257 0.50009 0.07739 0.0
C1267 C 0.69473 0.50921 0.11013 0.0
C1268 C 0.71809 0.50622 0.11193 0.0
C1269 C 0.67712 0.49925 0.07879 0.0
C1270 C 0.72488 0.49532 0.08108 0.0
C1271 C 0.7079 0.48593 0.04981 0.0
H1272 H 0.46488 0.79102 0.98882 0.0
H1273 H 0.49928 0.87386 0.94823 0.0
H1274 H 0.52155 0.86331 0.89663 0.0
H1275 H 0.52744 0.82862 0.85991 0.0
H1276 H 0.49105 0.74589 0.90211 0.0
H1277 H 0.47364 0.75842 0.9564 0.0
C1278 C 0.47729 0.80691 0.96877 0.0
C1279 C 0.47994 0.83305 0.97198 0.0
C1280 C 0.48972 0.80065 0.93942 0.0
C1281 C 0.49673 0.85351 0.94627 0.0
C1282 C 0.50938 0.84742 0.91673 0.0
C1283 C 0.51621 0.81359 0.88146 0.0
C1284 C 0.51043 0.78628 0.87689 0.0
C1285 C 0.50556 0.82083 0.91256 0.0
C1286 C 0.49561 0.76694 0.90483 0.0
C1287 C 0.48557 0.77406 0.93586 0.0
H1288 H 0.17544 0.69616 0.85195 0.0
H1289 H 0.25595 0.74508 0.9002 0.0
H1290 H 0.24243 0.71483 0.9543 0.0
H1291 H 0.21003 0.67229 0.98438 0.0
H1292 H 0.12964 0.62106 0.93722 0.0
H1293 H 0.14058 0.65443 0.88632 0.0
C1294 C 0.18967 0.70045 0.87484 0.0
C1295 C 0.21668 0.72278 0.87222 0.0
C1296 C 0.18195 0.68234 0.9056 0.0
C1297 C 0.23513 0.72799 0.90167 0.0
C1298 C 0.22745 0.71065 0.9325 0.0
C1299 C 0.19478 0.66836 0.96303 0.0
C1300 C 0.16929 0.64395 0.96406 0.0
C1301 C 0.2013 0.68734 0.93412 0.0
C1302 C 0.14951 0.63959 0.93683 0.0
C1303 C 0.15582 0.65864 0.90772 0.0
H1304 H 0.34185 0.53945 0.00273 0.0
H1305 H 0.39512 0.51362 0.95338 0.0
H1306 H 0.36375 0.49421 0.89978 0.0
H1307 H 0.32302 0.48879 0.86435 0.0
H1308 H 0.27106 0.51561 0.91568 0.0
H1309 H 0.2997 0.52987 0.97147 0.0
C1310 C 0.34662 0.52953 0.98027 0.0
C1311 C 0.37103 0.52851 0.98152 0.0
C1312 C 0.32855 0.5184 0.95003 0.0
C1313 C 0.37655 0.5149 0.95279 0.0
C1314 C 0.35862 0.50382 0.92219 0.0
C1315 C 0.31767 0.49706 0.88824 0.0
C1316 C 0.29503 0.50123 0.88601 0.0
C1317 C 0.33476 0.50593 0.92015 0.0
C1318 C 0.28843 0.51229 0.91684 0.0
C1319 C 0.30488 0.52061 0.94863 0.0
H1320 H 0.1471 0.5083 0.48334 0.0
H1321 H 0.18868 0.59169 0.44297 0.0
H1322 H 0.20367 0.57773 0.38748 0.0
H1323 H 0.20868 0.54341 0.35359 0.0
H1324 H 0.17004 0.45995 0.39322 0.0
H1325 H 0.14982 0.47219 0.44567 0.0
C1326 C 0.15896 0.52319 0.46192 0.0
C1327 C 0.16684 0.55102 0.46716 0.0
C1328 C 0.16829 0.51509 0.43034 0.0
C1329 C 0.18249 0.57023 0.43956 0.0
C1330 C 0.19112 0.56227 0.4079 0.0
C1331 C 0.19583 0.52773 0.37362 0.0
C1332 C 0.19136 0.5009 0.36989 0.0
C1333 C 0.18481 0.535 0.40358 0.0
C1334 C 0.17399 0.4808 0.39558 0.0
C1335 C 0.16253 0.48785 0.42561 0.0
H1336 H 0.5004 0.64485 0.47549 0.0
H1337 H 0.4154 0.60852 0.44301 0.0
H1338 H 0.4282 0.63914 0.38953 0.0
H1339 H 0.46252 0.67799 0.35452 0.0
H1340 H 0.54796 0.7159 0.38503 0.0
H1341 H 0.53606 0.68301 0.43663 0.0
C1342 C 0.48484 0.64335 0.45621 0.0
C1343 C 0.45694 0.62446 0.46332 0.0
C1344 C 0.49234 0.6616 0.42555 0.0
C1345 C 0.43696 0.62295 0.43833 0.0
C1346 C 0.44424 0.64053 0.40777 0.0
C1347 C 0.47867 0.67926 0.37244 0.0
C1348 C 0.50607 0.69978 0.36622 0.0
C1349 C 0.47172 0.66033 0.40166 0.0
C1350 C 0.52666 0.7005 0.38932 0.0
C1351 C 0.51985 0.68166 0.41882 0.0
H1352 H 0.34672 0.79802 0.50297 0.0
H1353 H 0.40106 0.87772 0.45609 0.0
H1354 H 0.36868 0.86825 0.40451 0.0
H1355 H 0.3268 0.83493 0.36947 0.0
H1356 H 0.27375 0.75531 0.41745 0.0
H1357 H 0.30332 0.76732 0.47232 0.0
C1358 C 0.3515 0.81339 0.48153 0.0
C1359 C 0.37653 0.83829 0.4829 0.0
C1360 C 0.33281 0.80787 0.45232 0.0
C1361 C 0.38205 0.85826 0.45544 0.0
C1362 C 0.36352 0.85285 0.42597 0.0
C1363 C 0.32136 0.82067 0.39258 0.0
C1364 C 0.29807 0.79435 0.3897 0.0
C1365 C 0.33904 0.82746 0.42371 0.0
C1366 C 0.29148 0.77574 0.41933 0.0
C1367 C 0.30851 0.78249 0.45049 0.0
H1368 H 0.29356 0.12417 0.16292 0.0
H1369 H 0.30823 0.20243 0.12169 0.0
H1370 H 0.35644 0.22347 0.13953 0.0
H1371 H 0.39448 0.2198 0.16655 0.0
H1372 H 0.38028 0.14196 0.20866 0.0
H1373 H 0.33192 0.12056 0.19043 0.0
C1374 C 0.30727 0.14586 0.15802 0.0
C1375 C 0.29719 0.1617 0.14104 0.0
C1376 C 0.33511 0.15786 0.16822 0.0
C1377 C 0.31533 0.18975 0.13476 0.0
C1378 C 0.34296 0.2018 0.14486 0.0
C1379 C 0.38089 0.19809 0.17157 0.0
C1380 C 0.39109 0.18248 0.18881 0.0
C1381 C 0.3531 0.18605 0.16145 0.0
C1382 C 0.37305 0.15444 0.19532 0.0
C1383 C 0.34536 0.14222 0.185 0.0
H1384 H 0.84718 0.21389 0.2119 0.0
H1385 H 0.77649 0.17487 0.13947 0.0
H1386 H 0.78946 0.14129 0.12017 0.0
H1387 H 0.82101 0.12285 0.12366 0.0
H1388 H 0.89189 0.16228 0.19569 0.0
H1389 H 0.87856 0.19544 0.21555 0.0
C1390 C 0.83471 0.19816 0.19171 0.0
C1391 C 0.81096 0.19704 0.17708 0.0
C1392 C 0.84217 0.17871 0.18088 0.0
C1393 C 0.79494 0.17633 0.15113 0.0
C1394 C 0.80228 0.157 0.14015 0.0
C1395 C 0.83336 0.13852 0.14398 0.0
C1396 C 0.85735 0.13996 0.15824 0.0
C1397 C 0.82579 0.15789 0.15494 0.0
C1398 C 0.8733 0.16063 0.18426 0.0
C1399 C 0.86575 0.17971 0.19558 0.0
H1400 H 0.83791 0.61407 0.16048 0.0
H1401 H 0.77533 0.62743 0.20899 0.0
H1402 H 0.80283 0.67644 0.19535 0.0
H1403 H 0.84455 0.71557 0.16919 0.0
H1404 H 0.90707 0.70212 0.12069 0.0
H1405 H 0.87986 0.65325 0.13515 0.0
C1406 C 0.8302 0.62767 0.16794 0.0
C1407 C 0.80447 0.61699 0.18559 0.0
C1408 C 0.84624 0.65591 0.16027 0.0
C1409 C 0.79498 0.63501 0.19529 0.0
C1410 C 0.81074 0.66309 0.18757 0.0
C1411 C 0.85235 0.702 0.16205 0.0
C1412 C 0.87791 0.7126 0.14393 0.0
C1413 C 0.83643 0.6738 0.17012 0.0
C1414 C 0.88755 0.69461 0.13471 0.0
C1415 C 0.87193 0.6666 0.14285 0.0
H1416 H 0.21451 0.3889 0.34383 0.0
H1417 H 0.13883 0.37205 0.29061 0.0
H1418 H 0.11924 0.32316 0.30324 0.0
H1419 H 0.1236 0.28495 0.32881 0.0
H1420 H 0.19918 0.30159 0.38209 0.0
H1421 H 0.21881 0.35058 0.3697 0.0
C1422 C 0.19365 0.37457 0.33527 0.0
C1423 C 0.17816 0.38425 0.31642 0.0
C1424 C 0.18255 0.34632 0.34228 0.0
C1425 C 0.15123 0.36527 0.30525 0.0
C1426 C 0.14002 0.33724 0.31235 0.0
C1427 C 0.14444 0.29925 0.33751 0.0
C1428 C 0.15991 0.2895 0.35622 0.0
C1429 C 0.15553 0.32749 0.33062 0.0
C1430 C 0.18681 0.30844 0.36753 0.0
C1431 C 0.19803 0.33652 0.36056 0.0
H1432 H 0.62124 0.82954 0.33664 0.0
H1433 H 0.63681 0.76677 0.29446 0.0
H1434 H 0.68528 0.79475 0.31152 0.0
H1435 H 0.72338 0.83733 0.33808 0.0
H1436 H 0.70748 0.90012 0.37941 0.0
H1437 H 0.65913 0.87197 0.36266 0.0
C1438 C 0.63516 0.82184 0.33138 0.0
C1439 C 0.62529 0.79596 0.31446 0.0
C1440 C 0.66306 0.8382 0.34081 0.0
C1441 C 0.64377 0.78652 0.30757 0.0
C1442 C 0.67153 0.80257 0.31722 0.0
C1443 C 0.70938 0.84494 0.34323 0.0
C1444 C 0.71916 0.87091 0.35993 0.0
C1445 C 0.68145 0.82853 0.33368 0.0
C1446 C 0.70062 0.88031 0.36653 0.0
C1447 C 0.6729 0.86416 0.35706 0.0
H1448 H 0.22111 0.84672 0.29412 0.0
H1449 H 0.17788 0.77325 0.3605 0.0
H1450 H 0.14432 0.7865 0.3789 0.0
H1451 H 0.1272 0.81921 0.37663 0.0
H1452 H 0.17064 0.89271 0.31033 0.0
H1453 H 0.20372 0.87906 0.29122 0.0
C1454 C 0.20445 0.83368 0.31279 0.0
C1455 C 0.20219 0.80908 0.32602 0.0
C1456 C 0.18499 0.84131 0.32307 0.0
C1457 C 0.18025 0.79234 0.34993 0.0
C1458 C 0.16095 0.79987 0.36042 0.0
C1459 C 0.14373 0.83209 0.35769 0.0
C1460 C 0.1463 0.85692 0.34489 0.0
C1461 C 0.16302 0.82428 0.3471 0.0
C1462 C 0.16807 0.87347 0.32063 0.0
C1463 C 0.18711 0.86573 0.30975 0.0
H1464 H 0.72535 0.88203 0.83892 0.0
H1465 H 0.71156 0.80691 0.89059 0.0
H1466 H 0.66311 0.78451 0.87323 0.0
H1467 H 0.62474 0.78601 0.84281 0.0
H1468 H 0.63826 0.86102 0.79114 0.0
H1469 H 0.68663 0.88374 0.80935 0.0
C1470 C 0.71177 0.86073 0.84633 0.0
C1471 C 0.72218 0.84615 0.86592 0.0
C1472 C 0.68383 0.84799 0.83641 0.0
C1473 C 0.70419 0.81862 0.87546 0.0
C1474 C 0.67644 0.8058 0.86558 0.0
C1475 C 0.63819 0.80738 0.83568 0.0
C1476 C 0.62779 0.82177 0.81561 0.0
C1477 C 0.66603 0.82026 0.84604 0.0
C1478 C 0.64563 0.84945 0.80661 0.0
C1479 C 0.67335 0.86244 0.81693 0.0
H1480 H 0.16022 0.80013 0.78164 0.0
H1481 H 0.22865 0.83557 0.85818 0.0
H1482 H 0.21497 0.8679 0.88041 0.0
H1483 H 0.18414 0.88699 0.87754 0.0
H1484 H 0.11572 0.85195 0.80101 0.0
H1485 H 0.12891 0.81903 0.7793 0.0
C1486 C 0.17193 0.81473 0.80345 0.0
C1487 C 0.1954 0.81532 0.81821 0.0
C1488 C 0.16414 0.83367 0.81589 0.0
C1489 C 0.2105 0.83461 0.84624 0.0
C1490 C 0.20275 0.85323 0.85895 0.0
C1491 C 0.17222 0.87227 0.85595 0.0
C1492 C 0.14906 0.87211 0.84086 0.0
C1493 C 0.17978 0.85316 0.84375 0.0
C1494 C 0.13371 0.85266 0.8131 0.0
C1495 C 0.14118 0.83371 0.8007 0.0
H1496 H 0.1787 0.396 0.84863 0.0
H1497 H 0.23448 0.37956 0.78605 0.0
H1498 H 0.20779 0.33104 0.80289 0.0
H1499 H 0.16831 0.29308 0.83503 0.0
H1500 H 0.11276 0.30971 0.89786 0.0
H1501 H 0.13955 0.3582 0.88117 0.0
C1502 C 0.1851 0.38184 0.83876 0.0
C1503 C 0.20863 0.3915 0.81609 0.0
C1504 C 0.16959 0.35391 0.84847 0.0
C1505 C 0.21652 0.37277 0.80355 0.0
C1506 C 0.20122 0.34497 0.81312 0.0
C1507 C 0.16202 0.30729 0.84501 0.0
C1508 C 0.13846 0.29767 0.86762 0.0
C1509 C 0.17765 0.33527 0.83546 0.0
C1510 C 0.13074 0.31647 0.88041 0.0
C1511 C 0.14608 0.34425 0.8709 0.0
H1512 H 0.88998 0.72006 0.66368 0.0
H1513 H 0.81515 0.70427 0.60885 0.0
H1514 H 0.79402 0.65564 0.62445 0.0
H1515 H 0.79632 0.61773 0.65486 0.0
H1516 H 0.87092 0.63327 0.71011 0.0
H1517 H 0.89269 0.68172 0.69269 0.0
C1518 C 0.86902 0.706 0.6552 0.0
C1519 C 0.85413 0.71591 0.63529 0.0
C1520 C 0.85701 0.67794 0.6641 0.0
C1521 C 0.82707 0.6973 0.62429 0.0
C1522 C 0.81498 0.66943 0.63314 0.0
C1523 C 0.81745 0.63162 0.66279 0.0
C1524 C 0.83195 0.62178 0.68375 0.0
C1525 C 0.82972 0.65953 0.6531 0.0
C1526 C 0.85928 0.64019 0.69389 0.0
C1527 C 0.87171 0.66796 0.68408 0.0
H1528 H 0.29527 0.1692 0.6597 0.0
H1529 H 0.30976 0.10827 0.60811 0.0
H1530 H 0.3583 0.13485 0.62539 0.0
H1531 H 0.3968 0.17571 0.65476 0.0
H1532 H 0.38183 0.23621 0.70675 0.0
H1533 H 0.33342 0.2096 0.68944 0.0
C1534 C 0.30898 0.16161 0.65234 0.0
C1535 C 0.29878 0.13669 0.63264 0.0
C1536 C 0.33688 0.17707 0.66222 0.0
C1537 C 0.31696 0.1273 0.62334 0.0
C1538 C 0.34477 0.14256 0.63312 0.0
C1539 C 0.38298 0.18316 0.66213 0.0
C1540 C 0.39305 0.20806 0.68191 0.0
C1541 C 0.35501 0.16756 0.6524 0.0
C1542 C 0.37474 0.21722 0.69149 0.0
C1543 C 0.347 0.20196 0.68166 0.0
H1544 H 0.83729 0.12393 0.66559 0.0
H1545 H 0.89526 0.20103 0.61485 0.0
H1546 H 0.86679 0.22058 0.63292 0.0
H1547 H 0.82598 0.21627 0.66411 0.0
H1548 H 0.76776 0.13944 0.71512 0.0
H1549 H 0.79559 0.11929 0.69569 0.0
C1550 C 0.84371 0.14501 0.6585 0.0
C1551 C 0.86852 0.161 0.63898 0.0
C1552 C 0.82711 0.15617 0.6689 0.0
C1553 C 0.87636 0.18824 0.62988 0.0
C1554 C 0.86005 0.19946 0.64019 0.0
C1555 C 0.81922 0.19504 0.6708 0.0
C1556 C 0.79474 0.17942 0.69109 0.0
C1557 C 0.83544 0.18367 0.65979 0.0
C1558 C 0.78643 0.15195 0.69949 0.0
C1559 C 0.80242 0.14044 0.68848 0.0
H1560 H 0.03451 0.49011 0.55015 0.0
H1561 H 0.06523 0.56488 0.48651 0.0
H1562 H 0.01946 0.54948 0.46168 0.0
H1563 H 0.9704 0.5152 0.45871 0.0
H1564 H 0.93934 0.44056 0.52272 0.0
H1565 H 0.98531 0.45551 0.54673 0.0
C1566 C 0.0312 0.50292 0.53066 0.0
C1567 C 0.0533 0.5286 0.52024 0.0
C1568 C 1.00465 0.49406 0.51669 0.0
C1569 C 0.04861 0.54503 0.49509 0.0
C1570 C 0.02239 0.53627 0.48087 0.0
C1571 C 0.97367 0.50223 0.47798 0.0
C1572 C 0.9514 0.47684 0.48895 0.0
C1573 C 1.00021 0.51092 0.49167 0.0
C1574 C 0.95607 0.46025 0.51384 0.0
C1575 C 0.98239 0.46875 0.52757 0.0
H1576 H 0.51846 0.54914 0.54263 0.0
H1577 H 0.44427 0.50705 0.4773 0.0
H1578 H 0.45848 0.47538 0.45362 0.0
H1579 H 0.49195 0.45914 0.45159 0.0
H1580 H 0.56604 0.50131 0.51714 0.0
H1581 H 0.55182 0.53294 0.54065 0.0
C1582 C 0.50551 0.53319 0.52298 0.0
C1583 C 0.48038 0.53064 0.51172 0.0
C1584 C 0.51367 0.51473 0.50969 0.0
C1585 C 0.46376 0.50961 0.48646 0.0
C1586 C 0.47183 0.49136 0.47294 0.0
C1587 C 0.50486 0.47511 0.47124 0.0
C1588 C 0.53 0.47769 0.48259 0.0
C1589 C 0.49667 0.49357 0.48452 0.0
C1590 C 0.54656 0.49873 0.50787 0.0
C1591 C 0.53849 0.51696 0.52131 0.0
H1592 H 0.55216 0.03413 0.45976 0.0
H1593 H 0.51252 0.06691 0.52897 0.0
H1594 H 0.48126 0.02118 0.55332 0.0
H1595 H 0.46479 0.97159 0.55478 0.0
H1596 H 0.50431 0.93884 0.48525 0.0
H1597 H 0.53562 0.98457 0.46109 0.0
C1598 C 0.53682 0.03129 0.48038 0.0
C1599 C 0.53479 0.05396 0.49259 0.0
C1600 C 0.51862 0.00481 0.49401 0.0
C1601 C 0.5146 0.04985 0.51909 0.0
C1602 C 0.49662 0.02366 0.53299 0.0
C1603 C 0.48012 0.97444 0.53415 0.0
C1604 C 0.4821 0.95176 0.52183 0.0
C1605 C 0.4983 1.00093 0.5205 0.0
C1606 C 0.50225 0.95589 0.49524 0.0
C1607 C 0.52027 0.98209 0.48144 0.0
H1608 H 0.54685 0.04698 0.0083 0.0
H1609 H 0.46981 0.02981 0.95923 0.0
H1610 H 0.45003 0.98122 0.97439 0.0
H1611 H 0.45471 0.94332 1.00073 0.0
H1612 H 0.53157 0.96046 0.05032 0.0
H1613 H 0.55131 0.00915 0.03551 0.0
C1614 C 0.52565 0.03266 0.00117 0.0
C1615 C 0.50985 0.04217 0.9827 0.0
C1616 C 0.51443 0.00461 0.00973 0.0
C1617 C 0.48246 0.0232 0.97354 0.0
C1618 C 0.47115 0.99532 0.98207 0.0
C1619 C 0.47584 0.95766 0.00811 0.0
C1620 C 0.49166 0.94812 0.02643 0.0
C1621 C 0.48699 0.98575 0.9999 0.0
C1622 C 0.51893 0.96713 0.0361 0.0
C1623 C 0.53022 0.99503 0.02772 0.0
H1624 H 0.95671 0.50061 0.99774 0.0
H1625 H 0.97112 0.43939 0.947 0.0
H1626 H 0.01995 0.46668 0.96269 0.0
H1627 H 0.05874 0.50839 0.99037 0.0
H1628 H 0.04354 0.56918 0.04099 0.0
H1629 H 0.99495 0.54172 0.02548 0.0
C1630 C 0.97045 0.4931 0.99024 0.0
C1631 C 0.96018 0.46791 0.97126 0.0
C1632 C 0.99847 0.50898 0.99907 0.0
C1633 C 0.97841 0.45863 0.96171 0.0
C1634 C 0.00637 0.4743 0.97056 0.0
C1635 C 0.04481 0.5157 0.9978 0.0
C1636 C 0.05488 0.54093 0.01671 0.0
C1637 C 0.01669 0.49961 0.98906 0.0
C1638 C 0.03645 0.54993 0.02639 0.0
C1639 C 0.0086 0.53419 0.0176 0.0
H1640 H 0.50839 0.45242 0.99926 0.0
H1641 H 0.56728 0.53039 0.95151 0.0
H1642 H 0.53995 0.55047 0.97305 0.0
H1643 H 0.49924 0.54583 0.00508 0.0
H1644 H 0.44022 0.46785 0.05265 0.0
H1645 H 0.4676 0.44777 0.03124 0.0
C1646 C 0.51534 0.47385 0.99372 0.0
C1647 C 0.53991 0.4899 0.97389 0.0
C1648 C 0.49939 0.4852 0.00591 0.0
C1649 C 0.5485 0.51758 0.96677 0.0
C1650 C 0.53284 0.52907 0.979 0.0
C1651 C 0.49227 0.5244 0.01064 0.0
C1652 C 0.46766 0.50835 0.03038 0.0
C1653 C 0.5082 0.51304 0.99845 0.0
C1654 C 0.45903 0.48065 0.03745 0.0
C1655 C 0.47473 0.46917 0.0253 0.0
loop_
_geom_bond_atom_site_label_1
_geom_bond_atom_site_label_2
_geom_bond_distance
_geom_bond_site_symmetry_2
_ccdc_geom_bond_type
Co0 O1 2.216 . S
Co0 O2 2.091 . S
Co0 O4 2.004 . S
Co0 O10 2.021 . S
Co0 O12 2.137 . S
Co0 O13 2.244 . S
O1 Co0 2.216 . S
O1 C8 1.247 . S
O2 Co0 2.091 . S
O2 C8 1.261 . S
C3 O12 1.247 . S
C3 O13 1.272 . S
O4 Co0 2.004 . S
O4 C9 1.259 . S
Co5 O6 2.061 . S
Co5 O11 2.052 . S
Co5 O13 2.135 . S
O6 Co5 2.061 . S
O6 C9 1.235 . S
C7 O10 1.238 . S
C7 O11 1.241 . S
C8 O1 1.247 . S
C8 O2 1.261 . S
C9 O4 1.259 . S
C9 O6 1.235 . S
O10 Co0 2.021 . S
O10 C7 1.238 . S
O11 Co5 2.052 . S
O11 C7 1.241 . S
O12 Co0 2.137 . S
O12 C3 1.247 . S
O13 Co0 2.244 . S
O13 C3 1.272 . S
O13 Co5 2.135 . S
Co14 O15 2.216 . S
Co14 O16 2.091 . S
Co14 O18 2.004 . S
Co14 O24 2.021 . S
Co14 O26 2.137 . S
Co14 O27 2.244 . S
O15 Co14 2.216 . S
O15 C22 1.247 . S
O16 Co14 2.091 . S
O16 C22 1.261 . S
C17 O26 1.247 . S
C17 O27 1.272 . S
O18 Co14 2.004 . S
O18 C23 1.259 . S
Co19 O20 2.061 . S
Co19 O25 2.052 . S
Co19 O27 2.135 . S
O20 Co19 2.061 . S
O20 C23 1.235 . S
C21 O24 1.238 . S
C21 O25 1.241 . S
C22 O15 1.247 . S
C22 O16 1.261 . S
C23 O18 1.259 . S
C23 O20 1.235 . S
O24 Co14 2.021 . S
O24 C21 1.238 . S
O25 Co19 2.052 . S
O25 C21 1.241 . S
O26 Co14 2.137 . S
O26 C17 1.247 . S
O27 Co14 2.244 . S
O27 C17 1.272 . S
O27 Co19 2.135 . S
Co28 O29 2.216 . S
Co28 O30 2.091 . S
Co28 O32 2.004 . S
Co28 O38 2.021 . S
Co28 O40 2.137 . S
Co28 O41 2.244 . S
O29 Co28 2.216 . S
O29 C36 1.247 . S
O30 Co28 2.091 . S
O30 C36 1.261 . S
C31 O40 1.247 . S
C31 O41 1.272 . S
O32 Co28 2.004 . S
O32 C37 1.259 . S
Co33 O34 2.061 . S
Co33 O39 2.052 . S
Co33 O41 2.135 . S
O34 Co33 2.061 . S
O34 C37 1.235 . S
C35 O38 1.238 . S
C35 O39 1.241 . S
C36 O29 1.247 . S
C36 O30 1.261 . S
C37 O32 1.259 . S
C37 O34 1.235 . S
O38 Co28 2.021 . S
O38 C35 1.238 . S
O39 Co33 2.052 . S
O39 C35 1.241 . S
O40 Co28 2.137 . S
O40 C31 1.247 . S
O41 Co28 2.244 . S
O41 C31 1.272 . S
O41 Co33 2.135 . S
Co42 O43 2.216 . S
Co42 O44 2.091 . S
Co42 O46 2.004 . S
Co42 O52 2.021 . S
Co42 O54 2.137 . S
Co42 O55 2.244 . S
O43 Co42 2.216 . S
O43 C50 1.247 . S
O44 Co42 2.091 . S
O44 C50 1.261 . S
C45 O54 1.247 . S
C45 O55 1.272 . S
O46 Co42 2.004 . S
O46 C51 1.259 . S
Co47 O48 2.061 . S
Co47 O53 2.052 . S
Co47 O55 2.135 . S
O48 Co47 2.061 . S
O48 C51 1.235 . S
C49 O52 1.238 . S
C49 O53 1.241 . S
C50 O43 1.247 . S
C50 O44 1.261 . S
C51 O46 1.259 . S
C51 O48 1.235 . S
O52 Co42 2.021 . S
O52 C49 1.238 . S
O53 Co47 2.052 . S
O53 C49 1.241 . S
O54 Co42 2.137 . S
O54 C45 1.247 . S
O55 Co42 2.244 . S
O55 C45 1.272 . S
O55 Co47 2.135 . S
Co56 O57 2.216 . S
Co56 O58 2.091 . S
Co56 O60 2.004 . S
Co56 O66 2.021 . S
Co56 O68 2.137 . S
Co56 O69 2.244 . S
O57 Co56 2.216 . S
O57 C64 1.247 . S
O58 Co56 2.091 . S
O58 C64 1.261 . S
C59 O68 1.247 . S
C59 O69 1.272 . S
O60 Co56 2.004 . S
O60 C65 1.259 . S
Co61 O62 2.061 . S
Co61 O67 2.052 . S
Co61 O69 2.135 . S
O62 Co61 2.061 . S
O62 C65 1.235 . S
C63 O66 1.238 . S
C63 O67 1.241 . S
C64 O57 1.247 . S
C64 O58 1.261 . S
C65 O60 1.259 . S
C65 O62 1.235 . S
O66 Co56 2.021 . S
O66 C63 1.238 . S
O67 Co61 2.052 . S
O67 C63 1.241 . S
O68 Co56 2.137 . S
O68 C59 1.247 . S
O69 Co56 2.244 . S
O69 C59 1.272 . S
O69 Co61 2.135 . S
Co70 O71 2.216 . S
Co70 O72 2.091 . S
Co70 O74 2.004 . S
Co70 O80 2.021 . S
Co70 O82 2.137 . S
Co70 O83 2.244 . S
O71 Co70 2.216 . S
O71 C78 1.247 . S
O72 Co70 2.091 . S
O72 C78 1.261 . S
C73 O82 1.247 . S
C73 O83 1.272 . S
O74 Co70 2.004 . S
O74 C79 1.259 . S
Co75 O76 2.061 . S
Co75 O81 2.052 . S
Co75 O83 2.135 . S
O76 Co75 2.061 . S
O76 C79 1.235 . S
C77 O80 1.238 . S
C77 O81 1.241 . S
C78 O71 1.247 . S
C78 O72 1.261 . S
C79 O74 1.259 . S
C79 O76 1.235 . S
O80 Co70 2.021 . S
O80 C77 1.238 . S
O81 Co75 2.052 . S
O81 C77 1.241 . S
O82 Co70 2.137 . S
O82 C73 1.247 . S
O83 Co70 2.244 . S
O83 C73 1.272 . S
O83 Co75 2.135 . S
Co84 O85 2.216 . S
Co84 O86 2.091 . S
Co84 O88 2.004 . S
Co84 O94 2.021 . S
Co84 O96 2.137 . S
Co84 O97 2.244 . S
O85 Co84 2.216 . S
O85 C92 1.247 . S
O86 Co84 2.091 . S
O86 C92 1.261 . S
C87 O96 1.247 . S
C87 O97 1.272 . S
O88 Co84 2.004 . S
O88 C93 1.259 . S
Co89 O90 2.061 . S
Co89 O95 2.052 . S
Co89 O97 2.135 . S
O90 Co89 2.061 . S
O90 C93 1.235 . S
C91 O94 1.238 . S
C91 O95 1.241 . S
C92 O85 1.247 . S
C92 O86 1.261 . S
C93 O88 1.259 . S
C93 O90 1.235 . S
O94 Co84 2.021 . S
O94 C91 1.238 . S
O95 Co89 2.052 . S
O95 C91 1.241 . S
O96 Co84 2.137 . S
O96 C87 1.247 . S
O97 Co84 2.244 . S
O97 C87 1.272 . S
O97 Co89 2.135 . S
Co98 O99 2.216 . S
Co98 O100 2.091 . S
Co98 O102 2.004 . S
Co98 O108 2.021 . S
Co98 O110 2.137 . S
Co98 O111 2.244 . S
O99 Co98 2.216 . S
O99 C106 1.247 . S
O100 Co98 2.091 . S
O100 C106 1.261 . S
C101 O110 1.247 . S
C101 O111 1.272 . S
O102 Co98 2.004 . S
O102 C107 1.259 . S
Co103 O104 2.061 . S
Co103 O109 2.052 . S
Co103 O111 2.135 . S
O104 Co103 2.061 . S
O104 C107 1.235 . S
C105 O108 1.238 . S
C105 O109 1.241 . S
C106 O99 1.247 . S
C106 O100 1.261 . S
C107 O102 1.259 . S
C107 O104 1.235 . S
O108 Co98 2.021 . S
O108 C105 1.238 . S
O109 Co103 2.052 . S
O109 C105 1.241 . S
O110 Co98 2.137 . S
O110 C101 1.247 . S
O111 Co98 2.244 . S
O111 C101 1.272 . S
O111 Co103 2.135 . S
Co112 O113 2.216 . S
Co112 O114 2.091 . S
Co112 O116 2.004 . S
Co112 O122 2.021 . S
Co112 O124 2.137 . S
Co112 O125 2.244 . S
O113 Co112 2.216 . S
O113 C120 1.247 . S
O114 Co112 2.091 . S
O114 C120 1.261 . S
C115 O124 1.247 . S
C115 O125 1.272 . S
O116 Co112 2.004 . S
O116 C121 1.259 . S
Co117 O118 2.061 . S
Co117 O123 2.052 . S
Co117 O125 2.135 . S
O118 Co117 2.061 . S
O118 C121 1.235 . S
C119 O122 1.238 . S
C119 O123 1.241 . S
C120 O113 1.247 . S
C120 O114 1.261 . S
C121 O116 1.259 . S
C121 O118 1.235 . S
O122 Co112 2.021 . S
O122 C119 1.238 . S
O123 Co117 2.052 . S
O123 C119 1.241 . S
O124 Co112 2.137 . S
O124 C115 1.247 . S
O125 Co112 2.244 . S
O125 C115 1.272 . S
O125 Co117 2.135 . S
Co126 O127 2.216 . S
Co126 O128 2.091 . S
Co126 O130 2.004 . S
Co126 O136 2.021 . S
Co126 O138 2.137 . S
Co126 O139 2.244 . S
O127 Co126 2.216 . S
O127 C134 1.247 . S
O128 Co126 2.091 . S
O128 C134 1.261 . S
C129 O138 1.247 . S
C129 O139 1.272 . S
O130 Co126 2.004 . S
O130 C135 1.259 . S
Co131 O132 2.061 . S
Co131 O137 2.052 . S
Co131 O139 2.135 . S
O132 Co131 2.061 . S
O132 C135 1.235 . S
C133 O136 1.238 . S
C133 O137 1.241 . S
C134 O127 1.247 . S
C134 O128 1.261 . S
C135 O130 1.259 . S
C135 O132 1.235 . S
O136 Co126 2.021 . S
O136 C133 1.238 . S
O137 Co131 2.052 . S
O137 C133 1.241 . S
O138 Co126 2.137 . S
O138 C129 1.247 . S
O139 Co126 2.244 . S
O139 C129 1.272 . S
O139 Co131 2.135 . S
Co140 O141 2.216 . S
Co140 O142 2.091 . S
Co140 O144 2.004 . S
Co140 O150 2.021 . S
Co140 O152 2.137 . S
Co140 O153 2.244 . S
O141 Co140 2.216 . S
O141 C148 1.247 . S
O142 Co140 2.091 . S
O142 C148 1.261 . S
C143 O152 1.247 . S
C143 O153 1.272 . S
O144 Co140 2.004 . S
O144 C149 1.259 . S
Co145 O146 2.061 . S
Co145 O151 2.052 . S
Co145 O153 2.135 . S
O146 Co145 2.061 . S
O146 C149 1.235 . S
C147 O150 1.238 . S
C147 O151 1.241 . S
C148 O141 1.247 . S
C148 O142 1.261 . S
C149 O144 1.259 . S
C149 O146 1.235 . S
O150 Co140 2.021 . S
O150 C147 1.238 . S
O151 Co145 2.052 . S
O151 C147 1.241 . S
O152 Co140 2.137 . S
O152 C143 1.247 . S
O153 Co140 2.244 . S
O153 C143 1.272 . S
O153 Co145 2.135 . S
Co154 O155 2.216 . S
Co154 O156 2.091 . S
Co154 O158 2.004 . S
Co154 O164 2.021 . S
Co154 O166 2.137 . S
Co154 O167 2.244 . S
O155 Co154 2.216 . S
O155 C162 1.247 . S
O156 Co154 2.091 . S
O156 C162 1.261 . S
C157 O166 1.247 . S
C157 O167 1.272 . S
O158 Co154 2.004 . S
O158 C163 1.259 . S
Co159 O160 2.061 . S
Co159 O165 2.052 . S
Co159 O167 2.135 . S
O160 Co159 2.061 . S
O160 C163 1.235 . S
C161 O164 1.238 . S
C161 O165 1.241 . S
C162 O155 1.247 . S
C162 O156 1.261 . S
C163 O158 1.259 . S
C163 O160 1.235 . S
O164 Co154 2.021 . S
O164 C161 1.238 . S
O165 Co159 2.052 . S
O165 C161 1.241 . S
O166 Co154 2.137 . S
O166 C157 1.247 . S
O167 Co154 2.244 . S
O167 C157 1.272 . S
O167 Co159 2.135 . S
Co168 O169 2.216 . S
Co168 O170 2.091 . S
Co168 O172 2.004 . S
Co168 O178 2.021 . S
Co168 O180 2.137 . S
Co168 O181 2.244 . S
O169 Co168 2.216 . S
O169 C176 1.247 . S
O170 Co168 2.091 . S
O170 C176 1.261 . S
C171 O180 1.247 . S
C171 O181 1.272 . S
O172 Co168 2.004 . S
O172 C177 1.259 . S
Co173 O174 2.061 . S
Co173 O179 2.052 . S
Co173 O181 2.135 . S
O174 Co173 2.061 . S
O174 C177 1.235 . S
C175 O178 1.238 . S
C175 O179 1.241 . S
C176 O169 1.247 . S
C176 O170 1.261 . S
C177 O172 1.259 . S
C177 O174 1.235 . S
O178 Co168 2.021 . S
O178 C175 1.238 . S
O179 Co173 2.052 . S
O179 C175 1.241 . S
O180 Co168 2.137 . S
O180 C171 1.247 . S
O181 Co168 2.244 . S
O181 C171 1.272 . S
O181 Co173 2.135 . S
Co182 O183 2.216 . S
Co182 O184 2.091 . S
Co182 O186 2.004 . S
Co182 O192 2.021 . S
Co182 O194 2.137 . S
Co182 O195 2.244 . S
O183 Co182 2.216 . S
O183 C190 1.247 . S
O184 Co182 2.091 . S
O184 C190 1.261 . S
C185 O194 1.247 . S
C185 O195 1.272 . S
O186 Co182 2.004 . S
O186 C191 1.259 . S
Co187 O188 2.061 . S
Co187 O193 2.052 . S
Co187 O195 2.135 . S
O188 Co187 2.061 . S
O188 C191 1.235 . S
C189 O192 1.238 . S
C189 O193 1.241 . S
C190 O183 1.247 . S
C190 O184 1.261 . S
C191 O186 1.259 . S
C191 O188 1.235 . S
O192 Co182 2.021 . S
O192 C189 1.238 . S
O193 Co187 2.052 . S
O193 C189 1.241 . S
O194 Co182 2.137 . S
O194 C185 1.247 . S
O195 Co182 2.244 . S
O195 C185 1.272 . S
O195 Co187 2.135 . S
Co196 O197 2.216 . S
Co196 O198 2.091 . S
Co196 O200 2.004 . S
Co196 O206 2.021 . S
Co196 O208 2.137 . S
Co196 O209 2.244 . S
O197 Co196 2.216 . S
O197 C204 1.247 . S
O198 Co196 2.091 . S
O198 C204 1.261 . S
C199 O208 1.247 . S
C199 O209 1.272 . S
O200 Co196 2.004 . S
O200 C205 1.259 . S
Co201 O202 2.061 . S
Co201 O207 2.052 . S
Co201 O209 2.135 . S
O202 Co201 2.061 . S
O202 C205 1.235 . S
C203 O206 1.238 . S
C203 O207 1.241 . S
C204 O197 1.247 . S
C204 O198 1.261 . S
C205 O200 1.259 . S
C205 O202 1.235 . S
O206 Co196 2.021 . S
O206 C203 1.238 . S
O207 Co201 2.052 . S
O207 C203 1.241 . S
O208 Co196 2.137 . S
O208 C199 1.247 . S
O209 Co196 2.244 . S
O209 C199 1.272 . S
O209 Co201 2.135 . S
Co210 O211 2.216 . S
Co210 O212 2.091 . S
Co210 O214 2.004 . S
Co210 O220 2.021 . S
Co210 O222 2.137 . S
Co210 O223 2.244 . S
O211 Co210 2.216 . S
O211 C218 1.247 . S
O212 Co210 2.091 . S
O212 C218 1.261 . S
C213 O222 1.247 . S
C213 O223 1.272 . S
O214 Co210 2.004 . S
O214 C219 1.259 . S
Co215 O216 2.061 . S
Co215 O221 2.052 . S
Co215 O223 2.135 . S
O216 Co215 2.061 . S
O216 C219 1.235 . S
C217 O220 1.238 . S
C217 O221 1.241 . S
C218 O211 1.247 . S
C218 O212 1.261 . S
C219 O214 1.259 . S
C219 O216 1.235 . S
O220 Co210 2.021 . S
O220 C217 1.238 . S
O221 Co215 2.052 . S
O221 C217 1.241 . S
O222 Co210 2.137 . S
O222 C213 1.247 . S
O223 Co210 2.244 . S
O223 C213 1.272 . S
O223 Co215 2.135 . S
Co224 O225 2.216 . S
Co224 O226 2.091 . S
Co224 O228 2.004 . S
Co224 O234 2.021 . S
Co224 O236 2.137 . S
Co224 O237 2.244 . S
O225 Co224 2.216 . S
O225 C232 1.247 . S
O226 Co224 2.091 . S
O226 C232 1.261 . S
C227 O236 1.247 . S
C227 O237 1.272 . S
O228 Co224 2.004 . S
O228 C233 1.259 . S
Co229 O230 2.061 . S
Co229 O235 2.052 . S
Co229 O237 2.135 . S
O230 Co229 2.061 . S
O230 C233 1.235 . S
C231 O234 1.238 . S
C231 O235 1.241 . S
C232 O225 1.247 . S
C232 O226 1.261 . S
C233 O228 1.259 . S
C233 O230 1.235 . S
O234 Co224 2.021 . S
O234 C231 1.238 . S
O235 Co229 2.052 . S
O235 C231 1.241 . S
O236 Co224 2.137 . S
O236 C227 1.247 . S
O237 Co224 2.244 . S
O237 C227 1.272 . S
O237 Co229 2.135 . S
Co238 O239 2.216 . S
Co238 O240 2.091 . S
Co238 O242 2.004 . S
Co238 O248 2.021 . S
Co238 O250 2.137 . S
Co238 O251 2.244 . S
O239 Co238 2.216 . S
O239 C246 1.247 . S
O240 Co238 2.091 . S
O240 C246 1.261 . S
C241 O250 1.247 . S
C241 O251 1.272 . S
O242 Co238 2.004 . S
O242 C247 1.259 . S
Co243 O244 2.061 . S
Co243 O249 2.052 . S
Co243 O251 2.135 . S
O244 Co243 2.061 . S
O244 C247 1.235 . S
C245 O248 1.238 . S
C245 O249 1.241 . S
C246 O239 1.247 . S
C246 O240 1.261 . S
C247 O242 1.259 . S
C247 O244 1.235 . S
O248 Co238 2.021 . S
O248 C245 1.238 . S
O249 Co243 2.052 . S
O249 C245 1.241 . S
O250 Co238 2.137 . S
O250 C241 1.247 . S
O251 Co238 2.244 . S
O251 C241 1.272 . S
O251 Co243 2.135 . S
Co252 O253 2.216 . S
Co252 O254 2.091 . S
Co252 O256 2.004 . S
Co252 O262 2.021 . S
Co252 O264 2.137 . S
Co252 O265 2.244 . S
O253 Co252 2.216 . S
O253 C260 1.247 . S
O254 Co252 2.091 . S
O254 C260 1.261 . S
C255 O264 1.247 . S
C255 O265 1.272 . S
O256 Co252 2.004 . S
O256 C261 1.259 . S
Co257 O258 2.061 . S
Co257 O263 2.052 . S
Co257 O265 2.135 . S
O258 Co257 2.061 . S
O258 C261 1.235 . S
C259 O262 1.238 . S
C259 O263 1.241 . S
C260 O253 1.247 . S
C260 O254 1.261 . S
C261 O256 1.259 . S
C261 O258 1.235 . S
O262 Co252 2.021 . S
O262 C259 1.238 . S
O263 Co257 2.052 . S
O263 C259 1.241 . S
O264 Co252 2.137 . S
O264 C255 1.247 . S
O265 Co252 2.244 . S
O265 C255 1.272 . S
O265 Co257 2.135 . S
Co266 O267 2.216 . S
Co266 O268 2.091 . S
Co266 O270 2.004 . S
Co266 O276 2.021 . S
Co266 O278 2.137 . S
Co266 O279 2.244 . S
O267 Co266 2.216 . S
O267 C274 1.247 . S
O268 Co266 2.091 . S
O268 C274 1.261 . S
C269 O278 1.247 . S
C269 O279 1.272 . S
O270 Co266 2.004 . S
O270 C275 1.259 . S
Co271 O272 2.061 . S
Co271 O277 2.052 . S
Co271 O279 2.135 . S
O272 Co271 2.061 . S
O272 C275 1.235 . S
C273 O276 1.238 . S
C273 O277 1.241 . S
C274 O267 1.247 . S
C274 O268 1.261 . S
C275 O270 1.259 . S
C275 O272 1.235 . S
O276 Co266 2.021 . S
O276 C273 1.238 . S
O277 Co271 2.052 . S
O277 C273 1.241 . S
O278 Co266 2.137 . S
O278 C269 1.247 . S
O279 Co266 2.244 . S
O279 C269 1.272 . S
O279 Co271 2.135 . S
Co280 O281 2.216 . S
Co280 O282 2.091 . S
Co280 O284 2.004 . S
Co280 O290 2.021 . S
Co280 O292 2.137 . S
Co280 O293 2.244 . S
O281 Co280 2.216 . S
O281 C288 1.247 . S
O282 Co280 2.091 . S
O282 C288 1.261 . S
C283 O292 1.247 . S
C283 O293 1.272 . S
O284 Co280 2.004 . S
O284 C289 1.259 . S
Co285 O286 2.061 . S
Co285 O291 2.052 . S
Co285 O293 2.135 . S
O286 Co285 2.061 . S
O286 C289 1.235 . S
C287 O290 1.238 . S
C287 O291 1.241 . S
C288 O281 1.247 . S
C288 O282 1.261 . S
C289 O284 1.259 . S
C289 O286 1.235 . S
O290 Co280 2.021 . S
O290 C287 1.238 . S
O291 Co285 2.052 . S
O291 C287 1.241 . S
O292 Co280 2.137 . S
O292 C283 1.247 . S
O293 Co280 2.244 . S
O293 C283 1.272 . S
O293 Co285 2.135 . S
Co294 O295 2.216 . S
Co294 O296 2.091 . S
Co294 O298 2.004 . S
Co294 O304 2.021 . S
Co294 O306 2.137 . S
Co294 O307 2.244 . S
O295 Co294 2.216 . S
O295 C302 1.247 . S
O296 Co294 2.091 . S
O296 C302 1.261 . S
C297 O306 1.247 . S
C297 O307 1.272 . S
O298 Co294 2.004 . S
O298 C303 1.259 . S
Co299 O300 2.061 . S
Co299 O305 2.052 . S
Co299 O307 2.135 . S
O300 Co299 2.061 . S
O300 C303 1.235 . S
C301 O304 1.238 . S
C301 O305 1.241 . S
C302 O295 1.247 . S
C302 O296 1.261 . S
C303 O298 1.259 . S
C303 O300 1.235 . S
O304 Co294 2.021 . S
O304 C301 1.238 . S
O305 Co299 2.052 . S
O305 C301 1.241 . S
O306 Co294 2.137 . S
O306 C297 1.247 . S
O307 Co294 2.244 . S
O307 C297 1.272 . S
O307 Co299 2.135 . S
Co308 O309 2.216 . S
Co308 O310 2.091 . S
Co308 O312 2.004 . S
Co308 O318 2.021 . S
Co308 O320 2.137 . S
Co308 O321 2.244 . S
O309 Co308 2.216 . S
O309 C316 1.247 . S
O310 Co308 2.091 . S
O310 C316 1.261 . S
C311 O320 1.247 . S
C311 O321 1.272 . S
O312 Co308 2.004 . S
O312 C317 1.259 . S
Co313 O314 2.061 . S
Co313 O319 2.052 . S
Co313 O321 2.135 . S
O314 Co313 2.061 . S
O314 C317 1.235 . S
C315 O318 1.238 . S
C315 O319 1.241 . S
C316 O309 1.247 . S
C316 O310 1.261 . S
C317 O312 1.259 . S
C317 O314 1.235 . S
O318 Co308 2.021 . S
O318 C315 1.238 . S
O319 Co313 2.052 . S
O319 C315 1.241 . S
O320 Co308 2.137 . S
O320 C311 1.247 . S
O321 Co308 2.244 . S
O321 C311 1.272 . S
O321 Co313 2.135 . S
Co322 O323 2.216 . S
Co322 O324 2.091 . S
Co322 O326 2.004 . S
Co322 O332 2.021 . S
Co322 O334 2.137 . S
Co322 O335 2.244 . S
O323 Co322 2.216 . S
O323 C330 1.247 . S
O324 Co322 2.091 . S
O324 C330 1.261 . S
C325 O334 1.247 . S
C325 O335 1.272 . S
O326 Co322 2.004 . S
O326 C331 1.259 . S
Co327 O328 2.061 . S
Co327 O333 2.052 . S
Co327 O335 2.135 . S
O328 Co327 2.061 . S
O328 C331 1.235 . S
C329 O332 1.238 . S
C329 O333 1.241 . S
C330 O323 1.247 . S
C330 O324 1.261 . S
C331 O326 1.259 . S
C331 O328 1.235 . S
O332 Co322 2.021 . S
O332 C329 1.238 . S
O333 Co327 2.052 . S
O333 C329 1.241 . S
O334 Co322 2.137 . S
O334 C325 1.247 . S
O335 Co322 2.244 . S
O335 C325 1.272 . S
O335 Co327 2.135 . S
Co336 O337 2.216 . S
Co336 O338 2.091 . S
Co336 O340 2.004 . S
Co336 O346 2.021 . S
Co336 O348 2.137 . S
Co336 O349 2.244 . S
O337 Co336 2.216 . S
O337 C344 1.247 . S
O338 Co336 2.091 . S
O338 C344 1.261 . S
C339 O348 1.247 . S
C339 O349 1.272 . S
O340 Co336 2.004 . S
O340 C345 1.259 . S
Co341 O342 2.061 . S
Co341 O347 2.052 . S
Co341 O349 2.135 . S
O342 Co341 2.061 . S
O342 C345 1.235 . S
C343 O346 1.238 . S
C343 O347 1.241 . S
C344 O337 1.247 . S
C344 O338 1.261 . S
C345 O340 1.259 . S
C345 O342 1.235 . S
O346 Co336 2.021 . S
O346 C343 1.238 . S
O347 Co341 2.052 . S
O347 C343 1.241 . S
O348 Co336 2.137 . S
O348 C339 1.247 . S
O349 Co336 2.244 . S
O349 C339 1.272 . S
O349 Co341 2.135 . S
Co350 O351 2.216 . S
Co350 O352 2.091 . S
Co350 O354 2.004 . S
Co350 O360 2.021 . S
Co350 O362 2.137 . S
Co350 O363 2.244 . S
O351 Co350 2.216 . S
O351 C358 1.247 . S
O352 Co350 2.091 . S
O352 C358 1.261 . S
C353 O362 1.247 . S
C353 O363 1.272 . S
O354 Co350 2.004 . S
O354 C359 1.259 . S
Co355 O356 2.061 . S
Co355 O361 2.052 . S
Co355 O363 2.135 . S
O356 Co355 2.061 . S
O356 C359 1.235 . S
C357 O360 1.238 . S
C357 O361 1.241 . S
C358 O351 1.247 . S
C358 O352 1.261 . S
C359 O354 1.259 . S
C359 O356 1.235 . S
O360 Co350 2.021 . S
O360 C357 1.238 . S
O361 Co355 2.052 . S
O361 C357 1.241 . S
O362 Co350 2.137 . S
O362 C353 1.247 . S
O363 Co350 2.244 . S
O363 C353 1.272 . S
O363 Co355 2.135 . S
Co364 O365 2.216 . S
Co364 O366 2.091 . S
Co364 O368 2.004 . S
Co364 O374 2.021 . S
Co364 O376 2.137 . S
Co364 O377 2.244 . S
O365 Co364 2.216 . S
O365 C372 1.247 . S
O366 Co364 2.091 . S
O366 C372 1.261 . S
C367 O376 1.247 . S
C367 O377 1.272 . S
O368 Co364 2.004 . S
O368 C373 1.259 . S
Co369 O370 2.061 . S
Co369 O375 2.052 . S
Co369 O377 2.135 . S
O370 Co369 2.061 . S
O370 C373 1.235 . S
C371 O374 1.238 . S
C371 O375 1.241 . S
C372 O365 1.247 . S
C372 O366 1.261 . S
C373 O368 1.259 . S
C373 O370 1.235 . S
O374 Co364 2.021 . S
O374 C371 1.238 . S
O375 Co369 2.052 . S
O375 C371 1.241 . S
O376 Co364 2.137 . S
O376 C367 1.247 . S
O377 Co364 2.244 . S
O377 C367 1.272 . S
O377 Co369 2.135 . S
Co378 O379 2.216 . S
Co378 O380 2.091 . S
Co378 O382 2.004 . S
Co378 O388 2.021 . S
Co378 O390 2.137 . S
Co378 O391 2.244 . S
O379 Co378 2.216 . S
O379 C386 1.247 . S
O380 Co378 2.091 . S
O380 C386 1.261 . S
C381 O390 1.247 . S
C381 O391 1.272 . S
O382 Co378 2.004 . S
O382 C387 1.259 . S
Co383 O384 2.061 . S
Co383 O389 2.052 . S
Co383 O391 2.135 . S
O384 Co383 2.061 . S
O384 C387 1.235 . S
C385 O388 1.238 . S
C385 O389 1.241 . S
C386 O379 1.247 . S
C386 O380 1.261 . S
C387 O382 1.259 . S
C387 O384 1.235 . S
O388 Co378 2.021 . S
O388 C385 1.238 . S
O389 Co383 2.052 . S
O389 C385 1.241 . S
O390 Co378 2.137 . S
O390 C381 1.247 . S
O391 Co378 2.244 . S
O391 C381 1.272 . S
O391 Co383 2.135 . S
Co392 O393 2.216 . S
Co392 O394 2.091 . S
Co392 O396 2.004 . S
Co392 O402 2.021 . S
Co392 O404 2.137 . S
Co392 O405 2.244 . S
O393 Co392 2.216 . S
O393 C400 1.247 . S
O394 Co392 2.091 . S
O394 C400 1.261 . S
C395 O404 1.247 . S
C395 O405 1.272 . S
O396 Co392 2.004 . S
O396 C401 1.259 . S
Co397 O398 2.061 . S
Co397 O403 2.052 . S
Co397 O405 2.135 . S
O398 Co397 2.061 . S
O398 C401 1.235 . S
C399 O402 1.238 . S
C399 O403 1.241 . S
C400 O393 1.247 . S
C400 O394 1.261 . S
C401 O396 1.259 . S
C401 O398 1.235 . S
O402 Co392 2.021 . S
O402 C399 1.238 . S
O403 Co397 2.052 . S
O403 C399 1.241 . S
O404 Co392 2.137 . S
O404 C395 1.247 . S
O405 Co392 2.244 . S
O405 C395 1.272 . S
O405 Co397 2.135 . S
Co406 O407 2.216 . S
Co406 O408 2.091 . S
Co406 O410 2.004 . S
Co406 O416 2.021 . S
Co406 O418 2.137 . S
Co406 O419 2.244 . S
O407 Co406 2.216 . S
O407 C414 1.247 . S
O408 Co406 2.091 . S
O408 C414 1.261 . S
C409 O418 1.247 . S
C409 O419 1.272 . S
O410 Co406 2.004 . S
O410 C415 1.259 . S
Co411 O412 2.061 . S
Co411 O417 2.052 . S
Co411 O419 2.135 . S
O412 Co411 2.061 . S
O412 C415 1.235 . S
C413 O416 1.238 . S
C413 O417 1.241 . S
C414 O407 1.247 . S
C414 O408 1.261 . S
C415 O410 1.259 . S
C415 O412 1.235 . S
O416 Co406 2.021 . S
O416 C413 1.238 . S
O417 Co411 2.052 . S
O417 C413 1.241 . S
O418 Co406 2.137 . S
O418 C409 1.247 . S
O419 Co406 2.244 . S
O419 C409 1.272 . S
O419 Co411 2.135 . S
Co420 O421 2.216 . S
Co420 O422 2.091 . S
Co420 O424 2.004 . S
Co420 O430 2.021 . S
Co420 O432 2.137 . S
Co420 O433 2.244 . S
O421 Co420 2.216 . S
O421 C428 1.247 . S
O422 Co420 2.091 . S
O422 C428 1.261 . S
C423 O432 1.247 . S
C423 O433 1.272 . S
O424 Co420 2.004 . S
O424 C429 1.259 . S
Co425 O426 2.061 . S
Co425 O431 2.052 . S
Co425 O433 2.135 . S
O426 Co425 2.061 . S
O426 C429 1.235 . S
C427 O430 1.238 . S
C427 O431 1.241 . S
C428 O421 1.247 . S
C428 O422 1.261 . S
C429 O424 1.259 . S
C429 O426 1.235 . S
O430 Co420 2.021 . S
O430 C427 1.238 . S
O431 Co425 2.052 . S
O431 C427 1.241 . S
O432 Co420 2.137 . S
O432 C423 1.247 . S
O433 Co420 2.244 . S
O433 C423 1.272 . S
O433 Co425 2.135 . S
Co434 O435 2.216 . S
Co434 O436 2.091 . S
Co434 O438 2.004 . S
Co434 O444 2.021 . S
Co434 O446 2.137 . S
Co434 O447 2.244 . S
O435 Co434 2.216 . S
O435 C442 1.247 . S
O436 Co434 2.091 . S
O436 C442 1.261 . S
C437 O446 1.247 . S
C437 O447 1.272 . S
O438 Co434 2.004 . S
O438 C443 1.259 . S
Co439 O440 2.061 . S
Co439 O445 2.052 . S
Co439 O447 2.135 . S
O440 Co439 2.061 . S
O440 C443 1.235 . S
C441 O444 1.238 . S
C441 O445 1.241 . S
C442 O435 1.247 . S
C442 O436 1.261 . S
C443 O438 1.259 . S
C443 O440 1.235 . S
O444 Co434 2.021 . S
O444 C441 1.238 . S
O445 Co439 2.052 . S
O445 C441 1.241 . S
O446 Co434 2.137 . S
O446 C437 1.247 . S
O447 Co434 2.244 . S
O447 C437 1.272 . S
O447 Co439 2.135 . S
Co448 O449 2.216 . S
Co448 O450 2.091 . S
Co448 O452 2.004 . S
Co448 O458 2.021 . S
Co448 O460 2.137 . S
Co448 O461 2.244 . S
O449 Co448 2.216 . S
O449 C456 1.247 . S
O450 Co448 2.091 . S
O450 C456 1.261 . S
C451 O460 1.247 . S
C451 O461 1.272 . S
O452 Co448 2.004 . S
O452 C457 1.259 . S
Co453 O454 2.061 . S
Co453 O459 2.052 . S
Co453 O461 2.135 . S
O454 Co453 2.061 . S
O454 C457 1.235 . S
C455 O458 1.238 . S
C455 O459 1.241 . S
C456 O449 1.247 . S
C456 O450 1.261 . S
C457 O452 1.259 . S
C457 O454 1.235 . S
O458 Co448 2.021 . S
O458 C455 1.238 . S
O459 Co453 2.052 . S
O459 C455 1.241 . S
O460 Co448 2.137 . S
O460 C451 1.247 . S
O461 Co448 2.244 . S
O461 C451 1.272 . S
O461 Co453 2.135 . S
Co462 O463 2.216 . S
Co462 O464 2.091 . S
Co462 O466 2.004 . S
Co462 O472 2.021 . S
Co462 O474 2.137 . S
Co462 O475 2.244 . S
O463 Co462 2.216 . S
O463 C470 1.247 . S
O464 Co462 2.091 . S
O464 C470 1.261 . S
C465 O474 1.247 . S
C465 O475 1.272 . S
O466 Co462 2.004 . S
O466 C471 1.259 . S
Co467 O468 2.061 . S
Co467 O473 2.052 . S
Co467 O475 2.135 . S
O468 Co467 2.061 . S
O468 C471 1.235 . S
C469 O472 1.238 . S
C469 O473 1.241 . S
C470 O463 1.247 . S
C470 O464 1.261 . S
C471 O466 1.259 . S
C471 O468 1.235 . S
O472 Co462 2.021 . S
O472 C469 1.238 . S
O473 Co467 2.052 . S
O473 C469 1.241 . S
O474 Co462 2.137 . S
O474 C465 1.247 . S
O475 Co462 2.244 . S
O475 C465 1.272 . S
O475 Co467 2.135 . S
Co476 O477 2.216 . S
Co476 O478 2.091 . S
Co476 O480 2.004 . S
Co476 O486 2.021 . S
Co476 O488 2.137 . S
Co476 O489 2.244 . S
O477 Co476 2.216 . S
O477 C484 1.247 . S
O478 Co476 2.091 . S
O478 C484 1.261 . S
C479 O488 1.247 . S
C479 O489 1.272 . S
O480 Co476 2.004 . S
O480 C485 1.259 . S
Co481 O482 2.061 . S
Co481 O487 2.052 . S
Co481 O489 2.135 . S
O482 Co481 2.061 . S
O482 C485 1.235 . S
C483 O486 1.238 . S
C483 O487 1.241 . S
C484 O477 1.247 . S
C484 O478 1.261 . S
C485 O480 1.259 . S
C485 O482 1.235 . S
O486 Co476 2.021 . S
O486 C483 1.238 . S
O487 Co481 2.052 . S
O487 C483 1.241 . S
O488 Co476 2.137 . S
O488 C479 1.247 . S
O489 Co476 2.244 . S
O489 C479 1.272 . S
O489 Co481 2.135 . S
Co490 O491 2.216 . S
Co490 O492 2.091 . S
Co490 O494 2.004 . S
Co490 O500 2.021 . S
Co490 O502 2.137 . S
Co490 O503 2.244 . S
O491 Co490 2.216 . S
O491 C498 1.247 . S
O492 Co490 2.091 . S
O492 C498 1.261 . S
C493 O502 1.247 . S
C493 O503 1.272 . S
O494 Co490 2.004 . S
O494 C499 1.259 . S
Co495 O496 2.061 . S
Co495 O501 2.052 . S
Co495 O503 2.135 . S
O496 Co495 2.061 . S
O496 C499 1.235 . S
C497 O500 1.238 . S
C497 O501 1.241 . S
C498 O491 1.247 . S
C498 O492 1.261 . S
C499 O494 1.259 . S
C499 O496 1.235 . S
O500 Co490 2.021 . S
O500 C497 1.238 . S
O501 Co495 2.052 . S
O501 C497 1.241 . S
O502 Co490 2.137 . S
O502 C493 1.247 . S
O503 Co490 2.244 . S
O503 C493 1.272 . S
O503 Co495 2.135 . S
H504 C510 0.930 . S
H505 C513 0.930 . S
H506 C514 0.930 . S
H507 C515 0.930 . S
H508 C518 0.930 . S
H509 C519 0.930 . S
C510 H504 0.930 . S
C510 C511 1.355 . S
C510 C512 1.415 . S
C511 C510 1.355 . S
C511 C513 1.419 . S
C512 C510 1.415 . S
C512 C517 1.425 1_554 S
C512 C519 1.410 1_545 S
C513 H505 0.930 . S
C513 C511 1.419 . S
C513 C514 1.362 1_554 S
C514 H506 0.930 . S
C514 C513 1.362 1_556 S
C514 C517 1.409 . S
C515 H507 0.930 . S
C515 C516 1.355 1_545 S
C515 C517 1.415 . S
C516 C515 1.355 1_565 S
C516 C518 1.419 1_556 S
C517 C512 1.425 1_556 S
C517 C514 1.409 . S
C517 C515 1.415 . S
C518 H508 0.930 . S
C518 C516 1.419 1_554 S
C518 C519 1.361 . S
C519 H509 0.930 . S
C519 C512 1.410 1_565 S
C519 C518 1.361 . S
H520 C526 0.930 . S
H521 C529 0.930 . S
H522 C530 0.930 . S
H523 C531 0.930 . S
H524 C534 0.930 . S
H525 C535 0.930 1_455 S
C526 H520 0.930 . S
C526 C527 1.355 . S
C526 C528 1.415 . S
C527 C526 1.355 . S
C527 C529 1.419 . S
C528 C526 1.415 . S
C528 C533 1.425 1_554 S
C528 C535 1.409 . S
C529 H521 0.930 . S
C529 C527 1.419 . S
C529 C530 1.362 1_554 S
C530 H522 0.930 . S
C530 C529 1.362 1_556 S
C530 C533 1.409 . S
C531 H523 0.930 . S
C531 C532 1.355 1_655 S
C531 C533 1.415 . S
C532 C531 1.355 1_455 S
C532 C534 1.419 1_556 S
C533 C528 1.425 1_556 S
C533 C530 1.409 . S
C533 C531 1.415 . S
C534 H524 0.930 . S
C534 C532 1.419 1_554 S
C534 C535 1.362 1_455 S
C535 H525 0.930 1_655 S
C535 C528 1.409 . S
C535 C534 1.362 1_655 S
H536 C542 0.930 . S
H537 C545 0.930 . S
H538 C546 0.930 . S
H539 C547 0.930 . S
H540 C550 0.930 . S
H541 C551 0.930 . S
C542 H536 0.930 . S
C542 C543 1.355 . S
C542 C544 1.415 1_556 S
C543 C542 1.355 . S
C543 C545 1.419 . S
C544 C542 1.415 1_554 S
C544 C549 1.425 . S
C544 C551 1.409 . S
C545 H537 0.930 . S
C545 C543 1.419 . S
C545 C546 1.362 . S
C546 H538 0.930 . S
C546 C545 1.362 . S
C546 C549 1.409 1_556 S
C547 H539 0.930 . S
C547 C548 1.355 . S
C547 C549 1.415 . S
C548 C547 1.355 . S
C548 C550 1.419 . S
C549 C544 1.425 . S
C549 C546 1.409 1_554 S
C549 C547 1.415 . S
C550 H540 0.930 . S
C550 C548 1.419 . S
C550 C551 1.362 . S
C551 H541 0.930 . S
C551 C544 1.409 . S
C551 C550 1.362 . S
H552 C558 0.930 . S
H553 C561 0.930 . S
H554 C562 0.930 . S
H555 C563 0.930 . S
H556 C566 0.930 . S
H557 C567 0.930 . S
C558 H552 0.930 . S
C558 C559 1.355 . S
C558 C560 1.415 1_655 S
C559 C558 1.355 . S
C559 C561 1.419 1_655 S
C560 C558 1.415 1_455 S
C560 C565 1.425 . S
C560 C567 1.409 . S
C561 H553 0.930 . S
C561 C559 1.419 1_455 S
C561 C562 1.362 . S
C562 H554 0.930 . S
C562 C561 1.362 . S
C562 C565 1.409 . S
C563 H555 0.930 . S
C563 C564 1.355 . S
C563 C565 1.415 . S
C564 C563 1.355 . S
C564 C566 1.419 . S
C565 C560 1.425 . S
C565 C562 1.409 . S
C565 C563 1.415 . S
C566 H556 0.930 . S
C566 C564 1.419 . S
C566 C567 1.362 . S
C567 H557 0.930 . S
C567 C560 1.409 . S
C567 C566 1.362 . S
H568 C574 0.930 . S
H569 C577 0.930 . S
H570 C578 0.930 . S
H571 C579 0.930 . S
H572 C582 0.930 . S
H573 C583 0.930 . S
C574 H568 0.930 . S
C574 C575 1.355 . S
C574 C576 1.415 . S
C575 C574 1.355 . S
C575 C577 1.419 . S
C576 C574 1.415 . S
C576 C581 1.425 . S
C576 C583 1.409 . S
C577 H569 0.930 . S
C577 C575 1.419 . S
C577 C578 1.362 . S
C578 H570 0.930 . S
C578 C577 1.362 . S
C578 C581 1.409 . S
C579 H571 0.930 . S
C579 C580 1.355 . S
C579 C581 1.415 . S
C580 C579 1.355 . S
C580 C582 1.419 . S
C581 C576 1.425 . S
C581 C578 1.409 . S
C581 C579 1.415 . S
C582 H572 0.930 . S
C582 C580 1.419 . S
C582 C583 1.362 . S
C583 H573 0.930 . S
C583 C576 1.409 . S
C583 C582 1.362 . S
H584 C590 0.930 . S
H585 C593 0.930 . S
H586 C594 0.930 . S
H587 C595 0.930 . S
H588 C598 0.930 . S
H589 C599 0.914 1_545 S
C590 H584 0.930 . S
C590 C591 1.355 . S
C590 C592 1.415 . S
C591 C590 1.355 . S
C591 C593 1.419 . S
C592 C590 1.415 . S
C592 C597 1.425 . S
C592 C599 1.437 . S
C593 H585 0.930 . S
C593 C591 1.419 . S
C593 C594 1.362 . S
C594 H586 0.930 . S
C594 C593 1.362 . S
C594 C597 1.409 . S
C595 H587 0.930 . S
C595 C596 1.355 1_565 S
C595 C597 1.415 . S
C596 C595 1.355 1_545 S
C596 C598 1.419 . S
C597 C592 1.425 . S
C597 C594 1.409 . S
C597 C595 1.415 . S
C598 H588 0.930 . S
C598 C596 1.419 . S
C598 C599 1.351 1_545 S
C599 H589 0.914 1_565 S
C599 C592 1.437 . S
C599 C598 1.351 1_565 S
H600 C606 0.923 1_556 S
H601 C609 0.930 . S
H602 C610 0.930 . S
H603 C611 0.930 . S
H604 C614 0.930 . S
H605 C615 0.930 . S
C606 H600 0.923 1_554 S
C606 C607 1.369 . S
C606 C608 1.407 1_544 S
C607 C606 1.369 . S
C607 C609 1.419 1_545 S
C608 C606 1.407 1_566 S
C608 C613 1.430 . S
C608 C615 1.409 . S
C609 H601 0.930 . S
C609 C607 1.419 1_565 S
C609 C610 1.362 . S
C610 H602 0.930 . S
C610 C609 1.362 . S
C610 C613 1.400 1_554 S
C611 H603 0.930 . S
C611 C612 1.355 . S
C611 C613 1.420 . S
C612 C611 1.355 . S
C612 C614 1.419 . S
C613 C608 1.430 . S
C613 C610 1.400 1_556 S
C613 C611 1.420 . S
C614 H604 0.930 . S
C614 C612 1.419 . S
C614 C615 1.362 . S
C615 H605 0.930 . S
C615 C608 1.409 . S
C615 C614 1.362 . S
H616 C622 0.930 1_656 S
H617 C625 0.930 1_655 S
H618 C626 0.930 . S
H619 C627 0.930 . S
H620 C630 0.930 . S
H621 C631 0.930 . S
C622 H616 0.930 1_454 S
C622 C623 1.355 1_455 S
C622 C624 1.415 1_554 S
C623 C622 1.355 1_655 S
C623 C625 1.419 1_655 S
C624 C622 1.415 1_556 S
C624 C629 1.425 . S
C624 C631 1.409 . S
C625 H617 0.930 1_455 S
C625 C623 1.419 1_455 S
C625 C626 1.362 . S
C626 H618 0.930 . S
C626 C625 1.362 . S
C626 C629 1.409 1_554 S
C627 H619 0.930 . S
C627 C628 1.355 . S
C627 C629 1.415 . S
C628 C627 1.355 . S
C628 C630 1.419 . S
C629 C624 1.425 . S
C629 C626 1.409 1_556 S
C629 C627 1.415 . S
C630 H620 0.930 . S
C630 C628 1.419 . S
C630 C631 1.362 . S
C631 H621 0.930 . S
C631 C624 1.409 . S
C631 C630 1.362 . S
H632 C638 0.930 . S
H633 C641 0.930 . S
H634 C642 0.930 . S
H635 C643 0.930 . S
H636 C646 0.930 . S
H637 C647 0.930 . S
C638 H632 0.930 . S
C638 C639 1.355 . S
C638 C640 1.415 . S
C639 C638 1.355 . S
C639 C641 1.419 . S
C640 C638 1.415 . S
C640 C645 1.425 1_556 S
C640 C647 1.409 . S
C641 H633 0.930 . S
C641 C639 1.419 . S
C641 C642 1.362 1_556 S
C642 H634 0.930 . S
C642 C641 1.362 1_554 S
C642 C645 1.409 . S
C643 H635 0.930 . S
C643 C644 1.355 . S
C643 C645 1.415 . S
C644 C643 1.355 . S
C644 C646 1.419 1_554 S
C645 C640 1.425 1_554 S
C645 C642 1.409 . S
C645 C643 1.415 . S
C646 H636 0.930 . S
C646 C644 1.419 1_556 S
C646 C647 1.362 . S
C647 H637 0.930 . S
C647 C640 1.409 . S
C647 C646 1.362 . S
H648 C654 0.930 . S
H649 C657 0.930 . S
H650 C658 0.930 . S
H651 C659 0.930 . S
H652 C662 0.930 . S
H653 C663 0.930 . S
C654 H648 0.930 . S
C654 C655 1.355 . S
C654 C656 1.415 . S
C655 C654 1.355 . S
C655 C657 1.419 . S
C656 C654 1.415 . S
C656 C661 1.425 . S
C656 C663 1.409 . S
C657 H649 0.930 . S
C657 C655 1.419 . S
C657 C658 1.362 . S
C658 H650 0.930 . S
C658 C657 1.362 . S
C658 C661 1.409 . S
C659 H651 0.930 . S
C659 C660 1.355 . S
C659 C661 1.415 1_455 S
C660 C659 1.355 . S
C660 C662 1.419 1_455 S
C661 C656 1.425 . S
C661 C658 1.409 . S
C661 C659 1.415 1_655 S
C662 H652 0.930 . S
C662 C660 1.419 1_655 S
C662 C663 1.362 . S
C663 H653 0.930 . S
C663 C656 1.409 . S
C663 C662 1.362 . S
H664 C670 0.930 . S
H665 C673 0.930 . S
H666 C674 0.930 . S
H667 C675 0.930 . S
H668 C678 0.930 . S
H669 C679 0.930 . S
C670 H664 0.930 . S
C670 C671 1.355 . S
C670 C672 1.415 . S
C671 C670 1.355 . S
C671 C673 1.419 . S
C672 C670 1.415 . S
C672 C677 1.425 . S
C672 C679 1.409 . S
C673 H665 0.930 . S
C673 C671 1.419 . S
C673 C674 1.362 . S
C674 H666 0.930 . S
C674 C673 1.362 . S
C674 C677 1.409 . S
C675 H667 0.930 . S
C675 C676 1.355 . S
C675 C677 1.415 . S
C676 C675 1.355 . S
C676 C678 1.419 . S
C677 C672 1.425 . S
C677 C674 1.409 . S
C677 C675 1.415 . S
C678 H668 0.930 . S
C678 C676 1.419 . S
C678 C679 1.362 . S
C679 H669 0.930 . S
C679 C672 1.409 . S
C679 C678 1.362 . S
H680 C686 0.930 . S
H681 C689 0.930 . S
H682 C690 0.930 . S
H683 C691 0.966 . S
H684 C694 0.930 . S
H685 C695 0.930 . S
C686 H680 0.930 . S
C686 C687 1.355 . S
C686 C688 1.415 . S
C687 C686 1.355 . S
C687 C689 1.419 . S
C688 C686 1.415 . S
C688 C693 1.425 . S
C688 C695 1.409 . S
C689 H681 0.930 . S
C689 C687 1.419 . S
C689 C690 1.362 . S
C690 H682 0.930 . S
C690 C689 1.362 . S
C690 C693 1.409 . S
C691 H683 0.966 . S
C691 C692 1.346 . S
C691 C693 1.389 1_565 S
C692 C691 1.346 . S
C692 C694 1.419 1_565 S
C693 C688 1.425 . S
C693 C690 1.409 . S
C693 C691 1.389 1_545 S
C694 H684 0.930 . S
C694 C692 1.419 1_545 S
C694 C695 1.362 . S
C695 H685 0.930 . S
C695 C688 1.409 . S
C695 C694 1.362 . S
H696 C702 0.930 . S
H697 C705 0.930 . S
H698 C706 0.930 . S
H699 C707 0.930 . S
H700 C710 0.930 . S
H701 C711 0.930 . S
C702 H696 0.930 . S
C702 C703 1.355 . S
C702 C704 1.415 . S
C703 C702 1.355 . S
C703 C705 1.419 . S
C704 C702 1.415 . S
C704 C709 1.425 . S
C704 C711 1.409 . S
C705 H697 0.930 . S
C705 C703 1.419 . S
C705 C706 1.362 . S
C706 H698 0.930 . S
C706 C705 1.362 . S
C706 C709 1.409 . S
C707 H699 0.930 . S
C707 C708 1.355 . S
C707 C709 1.415 . S
C708 C707 1.355 . S
C708 C710 1.419 . S
C709 C704 1.425 . S
C709 C706 1.409 . S
C709 C707 1.415 . S
C710 H700 0.930 . S
C710 C708 1.419 . S
C710 C711 1.362 . S
C711 H701 0.930 . S
C711 C704 1.409 . S
C711 C710 1.362 . S
H712 C718 0.930 . S
H713 C721 0.930 . S
H714 C722 0.930 . S
H715 C723 0.930 . S
H716 C726 0.930 . S
H717 C727 0.930 . S
C718 H712 0.930 . S
C718 C719 1.355 . S
C718 C720 1.415 . S
C719 C718 1.355 . S
C719 C721 1.419 . S
C720 C718 1.415 . S
C720 C725 1.425 . S
C720 C727 1.409 . S
C721 H713 0.930 . S
C721 C719 1.419 . S
C721 C722 1.362 . S
C722 H714 0.930 . S
C722 C721 1.362 . S
C722 C725 1.409 . S
C723 H715 0.930 . S
C723 C724 1.355 . S
C723 C725 1.415 . S
C724 C723 1.355 . S
C724 C726 1.419 . S
C725 C720 1.425 . S
C725 C722 1.409 . S
C725 C723 1.415 . S
C726 H716 0.930 . S
C726 C724 1.419 . S
C726 C727 1.362 . S
C727 H717 0.930 . S
C727 C720 1.409 . S
C727 C726 1.362 . S
H728 C734 0.930 . S
H729 C737 0.930 . S
H730 C738 0.930 . S
H731 C739 0.930 . S
H732 C742 0.930 . S
H733 C743 0.930 . S
C734 H728 0.930 . S
C734 C735 1.355 . S
C734 C736 1.415 . S
C735 C734 1.355 . S
C735 C737 1.419 . S
C736 C734 1.415 . S
C736 C741 1.425 . S
C736 C743 1.409 . S
C737 H729 0.930 . S
C737 C735 1.419 . S
C737 C738 1.362 . S
C738 H730 0.930 . S
C738 C737 1.362 . S
C738 C741 1.409 . S
C739 H731 0.930 . S
C739 C740 1.355 . S
C739 C741 1.415 . S
C740 C739 1.355 . S
C740 C742 1.419 . S
C741 C736 1.425 . S
C741 C738 1.409 . S
C741 C739 1.415 . S
C742 H732 0.930 . S
C742 C740 1.419 . S
C742 C743 1.362 . S
C743 H733 0.930 . S
C743 C736 1.409 . S
C743 C742 1.362 . S
H744 C750 0.930 . S
H745 C753 0.930 . S
H746 C754 0.930 . S
H747 C755 0.930 . S
H748 C758 0.930 . S
H749 C759 0.930 . S
C750 H744 0.930 . S
C750 C751 1.355 . S
C750 C752 1.415 . S
C751 C750 1.355 . S
C751 C753 1.419 . S
C752 C750 1.415 . S
C752 C757 1.425 . S
C752 C759 1.409 . S
C753 H745 0.930 . S
C753 C751 1.419 . S
C753 C754 1.362 . S
C754 H746 0.930 . S
C754 C753 1.362 . S
C754 C757 1.409 . S
C755 H747 0.930 . S
C755 C756 1.355 . S
C755 C757 1.415 . S
C756 C755 1.355 . S
C756 C758 1.419 . S
C757 C752 1.425 . S
C757 C754 1.409 . S
C757 C755 1.415 . S
C758 H748 0.930 . S
C758 C756 1.419 . S
C758 C759 1.362 . S
C759 H749 0.930 . S
C759 C752 1.409 . S
C759 C758 1.362 . S
H760 C766 0.930 . S
H761 C769 0.930 . S
H762 C770 0.930 . S
H763 C771 0.930 . S
H764 C774 0.930 . S
H765 C775 0.930 . S
C766 H760 0.930 . S
C766 C767 1.355 . S
C766 C768 1.415 . S
C767 C766 1.355 . S
C767 C769 1.419 . S
C768 C766 1.415 . S
C768 C773 1.425 . S
C768 C775 1.409 . S
C769 H761 0.930 . S
C769 C767 1.419 . S
C769 C770 1.362 . S
C770 H762 0.930 . S
C770 C769 1.362 . S
C770 C773 1.409 . S
C771 H763 0.930 . S
C771 C772 1.355 . S
C771 C773 1.415 . S
C772 C771 1.355 . S
C772 C774 1.419 . S
C773 C768 1.425 . S
C773 C770 1.409 . S
C773 C771 1.415 . S
C774 H764 0.930 . S
C774 C772 1.419 . S
C774 C775 1.362 . S
C775 H765 0.930 . S
C775 C768 1.409 . S
C775 C774 1.362 . S
H776 C782 0.930 . S
H777 C785 0.930 . S
H778 C786 0.930 . S
H779 C787 0.930 . S
H780 C790 0.930 . S
H781 C791 0.930 . S
C782 H776 0.930 . S
C782 C783 1.355 . S
C782 C784 1.415 . S
C783 C782 1.355 . S
C783 C785 1.419 . S
C784 C782 1.415 . S
C784 C789 1.425 . S
C784 C791 1.409 . S
C785 H777 0.930 . S
C785 C783 1.419 . S
C785 C786 1.362 . S
C786 H778 0.930 . S
C786 C785 1.362 . S
C786 C789 1.409 . S
C787 H779 0.930 . S
C787 C788 1.355 . S
C787 C789 1.415 . S
C788 C787 1.355 . S
C788 C790 1.419 . S
C789 C784 1.425 . S
C789 C786 1.409 . S
C789 C787 1.415 . S
C790 H780 0.930 . S
C790 C788 1.419 . S
C790 C791 1.362 . S
C791 H781 0.930 . S
C791 C784 1.409 . S
C791 C790 1.362 . S
H792 C798 0.930 . S
H793 C801 0.930 . S
H794 C802 0.930 . S
H795 C803 0.930 . S
H796 C806 0.930 . S
H797 C807 0.930 . S
C798 H792 0.930 . S
C798 C799 1.355 . S
C798 C800 1.415 . S
C799 C798 1.355 . S
C799 C801 1.419 . S
C800 C798 1.415 . S
C800 C805 1.425 . S
C800 C807 1.409 . S
C801 H793 0.930 . S
C801 C799 1.419 . S
C801 C802 1.362 . S
C802 H794 0.930 . S
C802 C801 1.362 . S
C802 C805 1.409 . S
C803 H795 0.930 . S
C803 C804 1.355 . S
C803 C805 1.415 . S
C804 C803 1.355 . S
C804 C806 1.419 . S
C805 C800 1.425 . S
C805 C802 1.409 . S
C805 C803 1.415 . S
C806 H796 0.930 . S
C806 C804 1.419 . S
C806 C807 1.362 . S
C807 H797 0.930 . S
C807 C800 1.409 . S
C807 C806 1.362 . S
H808 C814 0.930 . S
H809 C817 0.930 . S
H810 C818 0.930 . S
H811 C819 0.930 . S
H812 C822 0.930 . S
H813 C823 0.930 . S
C814 H808 0.930 . S
C814 C815 1.355 . S
C814 C816 1.415 . S
C815 C814 1.355 . S
C815 C817 1.419 . S
C816 C814 1.415 . S
C816 C821 1.425 . S
C816 C823 1.409 . S
C817 H809 0.930 . S
C817 C815 1.419 . S
C817 C818 1.362 . S
C818 H810 0.930 . S
C818 C817 1.362 . S
C818 C821 1.409 . S
C819 H811 0.930 . S
C819 C820 1.355 . S
C819 C821 1.415 . S
C820 C819 1.355 . S
C820 C822 1.419 . S
C821 C816 1.425 . S
C821 C818 1.409 . S
C821 C819 1.415 . S
C822 H812 0.930 . S
C822 C820 1.419 . S
C822 C823 1.362 . S
C823 H813 0.930 . S
C823 C816 1.409 . S
C823 C822 1.362 . S
H824 C830 0.930 . S
H825 C833 0.930 . S
H826 C834 0.930 . S
H827 C835 0.930 . S
H828 C838 0.930 . S
H829 C839 0.930 . S
C830 H824 0.930 . S
C830 C831 1.355 . S
C830 C832 1.415 . S
C831 C830 1.355 . S
C831 C833 1.419 . S
C832 C830 1.415 . S
C832 C837 1.425 . S
C832 C839 1.409 . S
C833 H825 0.930 . S
C833 C831 1.419 . S
C833 C834 1.362 . S
C834 H826 0.930 . S
C834 C833 1.362 . S
C834 C837 1.409 . S
C835 H827 0.930 . S
C835 C836 1.355 . S
C835 C837 1.415 . S
C836 C835 1.355 . S
C836 C838 1.419 . S
C837 C832 1.425 . S
C837 C834 1.409 . S
C837 C835 1.415 . S
C838 H828 0.930 . S
C838 C836 1.419 . S
C838 C839 1.362 . S
C839 H829 0.930 . S
C839 C832 1.409 . S
C839 C838 1.362 . S
H840 C846 0.930 . S
H841 C849 0.930 . S
H842 C850 0.930 . S
H843 C851 0.930 . S
H844 C854 0.930 . S
H845 C855 0.930 . S
C846 H840 0.930 . S
C846 C847 1.355 . S
C846 C848 1.415 . S
C847 C846 1.355 . S
C847 C849 1.419 . S
C848 C846 1.415 . S
C848 C853 1.425 . S
C848 C855 1.409 . S
C849 H841 0.930 . S
C849 C847 1.419 . S
C849 C850 1.362 . S
C850 H842 0.930 . S
C850 C849 1.362 . S
C850 C853 1.409 . S
C851 H843 0.930 . S
C851 C852 1.355 . S
C851 C853 1.415 . S
C852 C851 1.355 . S
C852 C854 1.419 . S
C853 C848 1.425 . S
C853 C850 1.409 . S
C853 C851 1.415 . S
C854 H844 0.930 . S
C854 C852 1.419 . S
C854 C855 1.362 . S
C855 H845 0.930 . S
C855 C848 1.409 . S
C855 C854 1.362 . S
H856 C862 0.930 . S
H857 C865 0.930 . S
H858 C866 0.930 . S
H859 C867 0.930 . S
H860 C870 0.930 . S
H861 C871 0.930 . S
C862 H856 0.930 . S
C862 C863 1.355 . S
C862 C864 1.415 . S
C863 C862 1.355 . S
C863 C865 1.419 . S
C864 C862 1.415 . S
C864 C869 1.425 . S
C864 C871 1.409 . S
C865 H857 0.930 . S
C865 C863 1.419 . S
C865 C866 1.362 . S
C866 H858 0.930 . S
C866 C865 1.362 . S
C866 C869 1.409 . S
C867 H859 0.930 . S
C867 C868 1.355 . S
C867 C869 1.415 . S
C868 C867 1.355 . S
C868 C870 1.419 . S
C869 C864 1.425 . S
C869 C866 1.409 . S
C869 C867 1.415 . S
C870 H860 0.930 . S
C870 C868 1.419 . S
C870 C871 1.362 . S
C871 H861 0.930 . S
C871 C864 1.409 . S
C871 C870 1.362 . S
H872 C878 0.930 . S
H873 C881 0.930 . S
H874 C882 0.930 . S
H875 C883 0.930 . S
H876 C886 0.930 . S
H877 C887 0.930 . S
C878 H872 0.930 . S
C878 C879 1.355 . S
C878 C880 1.415 . S
C879 C878 1.355 . S
C879 C881 1.419 . S
C880 C878 1.415 . S
C880 C885 1.425 . S
C880 C887 1.409 . S
C881 H873 0.930 . S
C881 C879 1.419 . S
C881 C882 1.362 . S
C882 H874 0.930 . S
C882 C881 1.362 . S
C882 C885 1.409 . S
C883 H875 0.930 . S
C883 C884 1.355 . S
C883 C885 1.415 . S
C884 C883 1.355 . S
C884 C886 1.419 . S
C885 C880 1.425 . S
C885 C882 1.409 . S
C885 C883 1.415 . S
C886 H876 0.930 . S
C886 C884 1.419 . S
C886 C887 1.362 . S
C887 H877 0.930 . S
C887 C880 1.409 . S
C887 C886 1.362 . S
H888 C894 0.930 . S
H889 C897 0.930 . S
H890 C898 0.930 . S
H891 C899 0.930 . S
H892 C902 0.930 . S
H893 C903 0.930 . S
C894 H888 0.930 . S
C894 C895 1.355 . S
C894 C896 1.415 . S
C895 C894 1.355 . S
C895 C897 1.419 . S
C896 C894 1.415 . S
C896 C901 1.425 . S
C896 C903 1.409 . S
C897 H889 0.930 . S
C897 C895 1.419 . S
C897 C898 1.362 . S
C898 H890 0.930 . S
C898 C897 1.362 . S
C898 C901 1.409 . S
C899 H891 0.930 . S
C899 C900 1.355 . S
C899 C901 1.415 . S
C900 C899 1.355 . S
C900 C902 1.419 . S
C901 C896 1.425 . S
C901 C898 1.409 . S
C901 C899 1.415 . S
C902 H892 0.930 . S
C902 C900 1.419 . S
C902 C903 1.362 . S
C903 H893 0.930 . S
C903 C896 1.409 . S
C903 C902 1.362 . S
H904 C910 0.930 . S
H905 C913 0.930 . S
H906 C914 0.930 . S
H907 C915 0.930 . S
H908 C918 0.930 . S
H909 C919 0.930 . S
C910 H904 0.930 . S
C910 C911 1.355 . S
C910 C912 1.415 . S
C911 C910 1.355 . S
C911 C913 1.419 . S
C912 C910 1.415 . S
C912 C917 1.425 . S
C912 C919 1.409 . S
C913 H905 0.930 . S
C913 C911 1.419 . S
C913 C914 1.362 . S
C914 H906 0.930 . S
C914 C913 1.362 . S
C914 C917 1.409 . S
C915 H907 0.930 . S
C915 C916 1.355 . S
C915 C917 1.415 . S
C916 C915 1.355 . S
C916 C918 1.419 . S
C917 C912 1.425 . S
C917 C914 1.409 . S
C917 C915 1.415 . S
C918 H908 0.930 . S
C918 C916 1.419 . S
C918 C919 1.362 . S
C919 H909 0.930 . S
C919 C912 1.409 . S
C919 C918 1.362 . S
H920 C926 0.930 . S
H921 C929 0.930 . S
H922 C930 0.930 . S
H923 C931 0.930 . S
H924 C934 0.930 . S
H925 C935 0.930 . S
C926 H920 0.930 . S
C926 C927 1.355 . S
C926 C928 1.415 . S
C927 C926 1.355 . S
C927 C929 1.419 . S
C928 C926 1.415 . S
C928 C933 1.425 . S
C928 C935 1.409 . S
C929 H921 0.930 . S
C929 C927 1.419 . S
C929 C930 1.362 . S
C930 H922 0.930 . S
C930 C929 1.362 . S
C930 C933 1.409 . S
C931 H923 0.930 . S
C931 C932 1.355 . S
C931 C933 1.415 . S
C932 C931 1.355 . S
C932 C934 1.419 . S
C933 C928 1.425 . S
C933 C930 1.409 . S
C933 C931 1.415 . S
C934 H924 0.930 . S
C934 C932 1.419 . S
C934 C935 1.362 . S
C935 H925 0.930 . S
C935 C928 1.409 . S
C935 C934 1.362 . S
H936 C942 0.930 . S
H937 C945 0.930 . S
H938 C946 0.930 . S
H939 C947 0.930 . S
H940 C950 0.930 . S
H941 C951 0.930 . S
C942 H936 0.930 . S
C942 C943 1.355 . S
C942 C944 1.415 . S
C943 C942 1.355 . S
C943 C945 1.419 . S
C944 C942 1.415 . S
C944 C949 1.425 . S
C944 C951 1.409 . S
C945 H937 0.930 . S
C945 C943 1.419 . S
C945 C946 1.362 . S
C946 H938 0.930 . S
C946 C945 1.362 . S
C946 C949 1.409 . S
C947 H939 0.930 . S
C947 C948 1.355 . S
C947 C949 1.415 . S
C948 C947 1.355 . S
C948 C950 1.419 . S
C949 C944 1.425 . S
C949 C946 1.409 . S
C949 C947 1.415 . S
C950 H940 0.930 . S
C950 C948 1.419 . S
C950 C951 1.362 . S
C951 H941 0.930 . S
C951 C944 1.409 . S
C951 C950 1.362 . S
H952 C958 0.930 . S
H953 C961 0.930 . S
H954 C962 0.930 . S
H955 C963 0.930 . S
H956 C966 0.930 . S
H957 C967 0.930 . S
C958 H952 0.930 . S
C958 C959 1.355 . S
C958 C960 1.415 . S
C959 C958 1.355 . S
C959 C961 1.419 . S
C960 C958 1.415 . S
C960 C965 1.425 . S
C960 C967 1.409 . S
C961 H953 0.930 . S
C961 C959 1.419 . S
C961 C962 1.362 . S
C962 H954 0.930 . S
C962 C961 1.362 . S
C962 C965 1.409 . S
C963 H955 0.930 . S
C963 C964 1.355 . S
C963 C965 1.415 . S
C964 C963 1.355 . S
C964 C966 1.419 . S
C965 C960 1.425 . S
C965 C962 1.409 . S
C965 C963 1.415 . S
C966 H956 0.930 . S
C966 C964 1.419 . S
C966 C967 1.362 . S
C967 H957 0.930 . S
C967 C960 1.409 . S
C967 C966 1.362 . S
H968 C974 0.930 . S
H969 C977 0.930 . S
H970 C978 0.930 . S
H971 C979 0.930 . S
H972 C982 0.930 . S
H973 C983 0.930 . S
C974 H968 0.930 . S
C974 C975 1.355 . S
C974 C976 1.415 . S
C975 C974 1.355 . S
C975 C977 1.419 . S
C976 C974 1.415 . S
C976 C981 1.425 . S
C976 C983 1.409 . S
C977 H969 0.930 . S
C977 C975 1.419 . S
C977 C978 1.362 . S
C978 H970 0.930 . S
C978 C977 1.362 . S
C978 C981 1.409 . S
C979 H971 0.930 . S
C979 C980 1.355 . S
C979 C981 1.415 . S
C980 C979 1.355 . S
C980 C982 1.419 . S
C981 C976 1.425 . S
C981 C978 1.409 . S
C981 C979 1.415 . S
C982 H972 0.930 . S
C982 C980 1.419 . S
C982 C983 1.362 . S
C983 H973 0.930 . S
C983 C976 1.409 . S
C983 C982 1.362 . S
H984 C990 0.930 . S
H985 C993 0.930 . S
H986 C994 0.930 . S
H987 C995 0.930 . S
H988 C998 0.930 . S
H989 C999 0.930 . S
C990 H984 0.930 . S
C990 C991 1.355 . S
C990 C992 1.415 . S
C991 C990 1.355 . S
C991 C993 1.419 . S
C992 C990 1.415 . S
C992 C997 1.425 . S
C992 C999 1.409 . S
C993 H985 0.930 . S
C993 C991 1.419 . S
C993 C994 1.362 . S
C994 H986 0.930 . S
C994 C993 1.362 . S
C994 C997 1.409 . S
C995 H987 0.930 . S
C995 C996 1.355 . S
C995 C997 1.415 . S
C996 C995 1.355 . S
C996 C998 1.419 . S
C997 C992 1.425 . S
C997 C994 1.409 . S
C997 C995 1.415 . S
C998 H988 0.930 . S
C998 C996 1.419 . S
C998 C999 1.362 . S
C999 H989 0.930 . S
C999 C992 1.409 . S
C999 C998 1.362 . S
H1000 C1006 0.930 . S
H1001 C1009 0.930 . S
H1002 C1010 0.930 . S
H1003 C1011 0.930 . S
H1004 C1014 0.930 . S
H1005 C1015 0.930 . S
C1006 H1000 0.930 . S
C1006 C1007 1.355 . S
C1006 C1008 1.415 . S
C1007 C1006 1.355 . S
C1007 C1009 1.419 . S
C1008 C1006 1.415 . S
C1008 C1013 1.425 . S
C1008 C1015 1.409 . S
C1009 H1001 0.930 . S
C1009 C1007 1.419 . S
C1009 C1010 1.362 . S
C1010 H1002 0.930 . S
C1010 C1009 1.362 . S
C1010 C1013 1.409 . S
C1011 H1003 0.930 . S
C1011 C1012 1.355 . S
C1011 C1013 1.415 . S
C1012 C1011 1.355 . S
C1012 C1014 1.419 . S
C1013 C1008 1.425 . S
C1013 C1010 1.409 . S
C1013 C1011 1.415 . S
C1014 H1004 0.930 . S
C1014 C1012 1.419 . S
C1014 C1015 1.362 . S
C1015 H1005 0.930 . S
C1015 C1008 1.409 . S
C1015 C1014 1.362 . S
H1016 C1022 0.930 . S
H1017 C1025 0.930 . S
H1018 C1026 0.930 . S
H1019 C1027 0.930 . S
H1020 C1030 0.930 . S
H1021 C1031 0.930 . S
C1022 H1016 0.930 . S
C1022 C1023 1.355 . S
C1022 C1024 1.415 . S
C1023 C1022 1.355 . S
C1023 C1025 1.419 . S
C1024 C1022 1.415 . S
C1024 C1029 1.425 . S
C1024 C1031 1.409 . S
C1025 H1017 0.930 . S
C1025 C1023 1.419 . S
C1025 C1026 1.362 . S
C1026 H1018 0.930 . S
C1026 C1025 1.362 . S
C1026 C1029 1.409 . S
C1027 H1019 0.930 . S
C1027 C1028 1.355 . S
C1027 C1029 1.415 . S
C1028 C1027 1.355 . S
C1028 C1030 1.419 . S
C1029 C1024 1.425 . S
C1029 C1026 1.409 . S
C1029 C1027 1.415 . S
C1030 H1020 0.930 . S
C1030 C1028 1.419 . S
C1030 C1031 1.362 . S
C1031 H1021 0.930 . S
C1031 C1024 1.409 . S
C1031 C1030 1.362 . S
H1032 C1038 0.930 . S
H1033 C1041 0.930 . S
H1034 C1042 0.930 . S
H1035 C1043 0.930 . S
H1036 C1046 0.930 . S
H1037 C1047 0.930 . S
C1038 H1032 0.930 . S
C1038 C1039 1.355 . S
C1038 C1040 1.415 . S
C1039 C1038 1.355 . S
C1039 C1041 1.419 . S
C1040 C1038 1.415 . S
C1040 C1045 1.425 . S
C1040 C1047 1.409 . S
C1041 H1033 0.930 . S
C1041 C1039 1.419 . S
C1041 C1042 1.362 . S
C1042 H1034 0.930 . S
C1042 C1041 1.362 . S
C1042 C1045 1.409 . S
C1043 H1035 0.930 . S
C1043 C1044 1.355 . S
C1043 C1045 1.415 . S
C1044 C1043 1.355 . S
C1044 C1046 1.419 . S
C1045 C1040 1.425 . S
C1045 C1042 1.409 . S
C1045 C1043 1.415 . S
C1046 H1036 0.930 . S
C1046 C1044 1.419 . S
C1046 C1047 1.362 . S
C1047 H1037 0.930 . S
C1047 C1040 1.409 . S
C1047 C1046 1.362 . S
H1048 C1054 0.930 . S
H1049 C1057 0.930 . S
H1050 C1058 0.930 . S
H1051 C1059 0.930 . S
H1052 C1062 0.930 . S
H1053 C1063 0.930 . S
C1054 H1048 0.930 . S
C1054 C1055 1.355 . S
C1054 C1056 1.415 . S
C1055 C1054 1.355 . S
C1055 C1057 1.419 . S
C1056 C1054 1.415 . S
C1056 C1061 1.425 . S
C1056 C1063 1.409 . S
C1057 H1049 0.930 . S
C1057 C1055 1.419 . S
C1057 C1058 1.362 . S
C1058 H1050 0.930 . S
C1058 C1057 1.362 . S
C1058 C1061 1.409 . S
C1059 H1051 0.930 . S
C1059 C1060 1.355 . S
C1059 C1061 1.415 . S
C1060 C1059 1.355 . S
C1060 C1062 1.419 . S
C1061 C1056 1.425 . S
C1061 C1058 1.409 . S
C1061 C1059 1.415 . S
C1062 H1052 0.930 . S
C1062 C1060 1.419 . S
C1062 C1063 1.362 . S
C1063 H1053 0.930 . S
C1063 C1056 1.409 . S
C1063 C1062 1.362 . S
H1064 C1070 0.930 . S
H1065 C1073 0.930 . S
H1066 C1074 0.930 . S
H1067 C1075 0.930 . S
H1068 C1078 0.930 . S
H1069 C1079 0.930 . S
C1070 H1064 0.930 . S
C1070 C1071 1.355 . S
C1070 C1072 1.415 . S
C1071 C1070 1.355 . S
C1071 C1073 1.419 . S
C1072 C1070 1.415 . S
C1072 C1077 1.425 . S
C1072 C1079 1.409 . S
C1073 H1065 0.930 . S
C1073 C1071 1.419 . S
C1073 C1074 1.362 . S
C1074 H1066 0.930 . S
C1074 C1073 1.362 . S
C1074 C1077 1.409 . S
C1075 H1067 0.930 . S
C1075 C1076 1.355 . S
C1075 C1077 1.415 . S
C1076 C1075 1.355 . S
C1076 C1078 1.419 . S
C1077 C1072 1.425 . S
C1077 C1074 1.409 . S
C1077 C1075 1.415 . S
C1078 H1068 0.930 . S
C1078 C1076 1.419 . S
C1078 C1079 1.362 . S
C1079 H1069 0.930 . S
C1079 C1072 1.409 . S
C1079 C1078 1.362 . S
H1080 C1086 0.930 . S
H1081 C1089 0.930 . S
H1082 C1090 0.930 . S
H1083 C1091 0.930 . S
H1084 C1094 0.930 . S
H1085 C1095 0.930 . S
C1086 H1080 0.930 . S
C1086 C1087 1.355 . S
C1086 C1088 1.415 . S
C1087 C1086 1.355 . S
C1087 C1089 1.419 . S
C1088 C1086 1.415 . S
C1088 C1093 1.425 . S
C1088 C1095 1.409 . S
C1089 H1081 0.930 . S
C1089 C1087 1.419 . S
C1089 C1090 1.362 . S
C1090 H1082 0.930 . S
C1090 C1089 1.362 . S
C1090 C1093 1.409 . S
C1091 H1083 0.930 . S
C1091 C1092 1.355 . S
C1091 C1093 1.415 . S
C1092 C1091 1.355 . S
C1092 C1094 1.419 . S
C1093 C1088 1.425 . S
C1093 C1090 1.409 . S
C1093 C1091 1.415 . S
C1094 H1084 0.930 . S
C1094 C1092 1.419 . S
C1094 C1095 1.362 . S
C1095 H1085 0.930 . S
C1095 C1088 1.409 . S
C1095 C1094 1.362 . S
H1096 C1102 0.930 . S
H1097 C1105 0.930 . S
H1098 C1106 0.930 . S
H1099 C1107 0.930 . S
H1100 C1110 0.930 . S
H1101 C1111 0.930 . S
C1102 H1096 0.930 . S
C1102 C1103 1.355 . S
C1102 C1104 1.422 . S
C1103 C1102 1.355 . S
C1103 C1105 1.419 . S
C1104 C1102 1.422 . S
C1104 C1109 1.440 1_565 S
C1104 C1111 1.395 1_565 S
C1105 H1097 0.930 . S
C1105 C1103 1.419 . S
C1105 C1106 1.362 . S
C1106 H1098 0.930 . S
C1106 C1105 1.362 . S
C1106 C1109 1.395 1_565 S
C1107 H1099 0.930 . S
C1107 C1108 1.355 . S
C1107 C1109 1.422 . S
C1108 C1107 1.355 . S
C1108 C1110 1.419 . S
C1109 C1104 1.440 1_545 S
C1109 C1106 1.395 1_545 S
C1109 C1107 1.422 . S
C1110 H1100 0.930 . S
C1110 C1108 1.419 . S
C1110 C1111 1.362 . S
C1111 H1101 0.930 . S
C1111 C1104 1.395 1_545 S
C1111 C1110 1.362 . S
H1112 C1118 0.930 . S
H1113 C1121 0.932 . S
H1114 C1122 0.930 . S
H1115 C1123 0.930 . S
H1116 C1126 0.931 . S
H1117 C1127 0.930 . S
C1118 H1112 0.930 . S
C1118 C1119 1.355 . S
C1118 C1120 1.415 . S
C1119 C1118 1.355 . S
C1119 C1121 1.419 . S
C1120 C1118 1.415 . S
C1120 C1125 1.425 1_655 S
C1120 C1127 1.409 . S
C1121 H1113 0.932 . S
C1121 C1119 1.419 . S
C1121 C1122 1.362 1_655 S
C1122 H1114 0.930 . S
C1122 C1121 1.362 1_455 S
C1122 C1125 1.409 . S
C1123 H1115 0.930 . S
C1123 C1124 1.355 . S
C1123 C1125 1.415 . S
C1124 C1123 1.355 . S
C1124 C1126 1.419 . S
C1125 C1120 1.425 1_455 S
C1125 C1122 1.409 . S
C1125 C1123 1.415 . S
C1126 H1116 0.931 . S
C1126 C1124 1.419 . S
C1126 C1127 1.362 1_455 S
C1127 H1117 0.930 . S
C1127 C1120 1.409 . S
C1127 C1126 1.362 1_655 S
H1128 C1134 0.930 . S
H1129 C1137 0.930 . S
H1130 C1138 0.930 . S
H1131 C1139 0.930 . S
H1132 C1142 0.930 . S
H1133 C1143 0.930 . S
C1134 H1128 0.930 . S
C1134 C1135 1.355 . S
C1134 C1136 1.415 . S
C1135 C1134 1.355 . S
C1135 C1137 1.419 . S
C1136 C1134 1.415 . S
C1136 C1141 1.425 . S
C1136 C1143 1.409 . S
C1137 H1129 0.930 . S
C1137 C1135 1.419 . S
C1137 C1138 1.362 . S
C1138 H1130 0.930 . S
C1138 C1137 1.362 . S
C1138 C1141 1.409 . S
C1139 H1131 0.930 . S
C1139 C1140 1.355 . S
C1139 C1141 1.415 . S
C1140 C1139 1.355 . S
C1140 C1142 1.419 . S
C1141 C1136 1.425 . S
C1141 C1138 1.409 . S
C1141 C1139 1.415 . S
C1142 H1132 0.930 . S
C1142 C1140 1.419 . S
C1142 C1143 1.362 . S
C1143 H1133 0.930 . S
C1143 C1136 1.409 . S
C1143 C1142 1.362 . S
H1144 C1150 0.930 . S
H1145 C1153 0.930 . S
H1146 C1154 0.930 . S
H1147 C1155 0.930 . S
H1148 C1158 0.930 . S
H1149 C1159 0.930 . S
C1150 H1144 0.930 . S
C1150 C1151 1.355 . S
C1150 C1152 1.415 . S
C1151 C1150 1.355 . S
C1151 C1153 1.419 . S
C1152 C1150 1.415 . S
C1152 C1157 1.425 1_545 S
C1152 C1159 1.409 . S
C1153 H1145 0.930 . S
C1153 C1151 1.419 . S
C1153 C1154 1.362 1_545 S
C1154 H1146 0.930 . S
C1154 C1153 1.362 1_565 S
C1154 C1157 1.409 . S
C1155 H1147 0.930 . S
C1155 C1156 1.355 . S
C1155 C1157 1.415 . S
C1156 C1155 1.355 . S
C1156 C1158 1.419 . S
C1157 C1152 1.425 1_565 S
C1157 C1154 1.409 . S
C1157 C1155 1.415 . S
C1158 H1148 0.930 . S
C1158 C1156 1.419 . S
C1158 C1159 1.362 1_565 S
C1159 H1149 0.930 . S
C1159 C1152 1.409 . S
C1159 C1158 1.362 1_545 S
H1160 C1166 0.930 . S
H1161 C1169 0.930 . S
H1162 C1170 0.930 . S
H1163 C1171 0.930 . S
H1164 C1174 0.930 . S
H1165 C1175 0.930 . S
C1166 H1160 0.930 . S
C1166 C1167 1.355 . S
C1166 C1168 1.415 1_655 S
C1167 C1166 1.355 . S
C1167 C1169 1.419 . S
C1168 C1166 1.415 1_455 S
C1168 C1173 1.425 1_455 S
C1168 C1175 1.409 . S
C1169 H1161 0.930 . S
C1169 C1167 1.419 . S
C1169 C1170 1.362 . S
C1170 H1162 0.930 . S
C1170 C1169 1.362 . S
C1170 C1173 1.409 . S
C1171 H1163 0.930 . S
C1171 C1172 1.355 . S
C1171 C1173 1.415 1_455 S
C1172 C1171 1.355 . S
C1172 C1174 1.419 . S
C1173 C1168 1.425 1_655 S
C1173 C1170 1.409 . S
C1173 C1171 1.415 1_655 S
C1174 H1164 0.930 . S
C1174 C1172 1.419 . S
C1174 C1175 1.362 . S
C1175 H1165 0.930 . S
C1175 C1168 1.409 . S
C1175 C1174 1.362 . S
H1176 C1182 0.930 . S
H1177 C1185 0.930 . S
H1178 C1186 0.930 . S
H1179 C1187 0.930 . S
H1180 C1190 0.930 . S
H1181 C1191 0.930 . S
C1182 H1176 0.930 . S
C1182 C1183 1.355 . S
C1182 C1184 1.415 . S
C1183 C1182 1.355 . S
C1183 C1185 1.419 . S
C1184 C1182 1.415 . S
C1184 C1189 1.425 . S
C1184 C1191 1.409 . S
C1185 H1177 0.930 . S
C1185 C1183 1.419 . S
C1185 C1186 1.362 . S
C1186 H1178 0.930 . S
C1186 C1185 1.362 . S
C1186 C1189 1.409 . S
C1187 H1179 0.930 . S
C1187 C1188 1.355 . S
C1187 C1189 1.415 . S
C1188 C1187 1.355 . S
C1188 C1190 1.419 . S
C1189 C1184 1.425 . S
C1189 C1186 1.409 . S
C1189 C1187 1.415 . S
C1190 H1180 0.930 . S
C1190 C1188 1.419 . S
C1190 C1191 1.362 . S
C1191 H1181 0.930 . S
C1191 C1184 1.409 . S
C1191 C1190 1.362 . S
H1192 C1198 0.930 . S
H1193 C1201 0.930 . S
H1194 C1202 0.930 . S
H1195 C1203 0.930 . S
H1196 C1206 0.930 . S
H1197 C1207 0.930 . S
C1198 H1192 0.930 . S
C1198 C1199 1.355 . S
C1198 C1200 1.415 . S
C1199 C1198 1.355 . S
C1199 C1201 1.419 . S
C1200 C1198 1.415 . S
C1200 C1205 1.425 . S
C1200 C1207 1.409 . S
C1201 H1193 0.930 . S
C1201 C1199 1.419 . S
C1201 C1202 1.362 . S
C1202 H1194 0.930 . S
C1202 C1201 1.362 . S
C1202 C1205 1.409 . S
C1203 H1195 0.930 . S
C1203 C1204 1.355 . S
C1203 C1205 1.415 . S
C1204 C1203 1.355 . S
C1204 C1206 1.419 . S
C1205 C1200 1.425 . S
C1205 C1202 1.409 . S
C1205 C1203 1.415 . S
C1206 H1196 0.930 . S
C1206 C1204 1.419 . S
C1206 C1207 1.362 . S
C1207 H1197 0.930 . S
C1207 C1200 1.409 . S
C1207 C1206 1.362 . S
H1208 C1214 0.930 . S
H1209 C1217 0.930 . S
H1210 C1218 0.930 . S
H1211 C1219 0.930 . S
H1212 C1222 0.930 . S
H1213 C1223 0.930 . S
C1214 H1208 0.930 . S
C1214 C1215 1.355 . S
C1214 C1216 1.415 . S
C1215 C1214 1.355 . S
C1215 C1217 1.419 . S
C1216 C1214 1.415 . S
C1216 C1221 1.425 . S
C1216 C1223 1.409 . S
C1217 H1209 0.930 . S
C1217 C1215 1.419 . S
C1217 C1218 1.362 . S
C1218 H1210 0.930 . S
C1218 C1217 1.362 . S
C1218 C1221 1.409 . S
C1219 H1211 0.930 . S
C1219 C1220 1.355 . S
C1219 C1221 1.415 . S
C1220 C1219 1.355 . S
C1220 C1222 1.419 . S
C1221 C1216 1.425 . S
C1221 C1218 1.409 . S
C1221 C1219 1.415 . S
C1222 H1212 0.930 . S
C1222 C1220 1.419 . S
C1222 C1223 1.362 . S
C1223 H1213 0.930 . S
C1223 C1216 1.409 . S
C1223 C1222 1.362 . S
H1224 C1230 0.930 . S
H1225 C1233 0.930 . S
H1226 C1234 0.930 . S
H1227 C1235 0.930 . S
H1228 C1238 0.930 . S
H1229 C1239 0.930 . S
C1230 H1224 0.930 . S
C1230 C1231 1.355 . S
C1230 C1232 1.415 . S
C1231 C1230 1.355 . S
C1231 C1233 1.419 . S
C1232 C1230 1.415 . S
C1232 C1237 1.425 . S
C1232 C1239 1.409 . S
C1233 H1225 0.930 . S
C1233 C1231 1.419 . S
C1233 C1234 1.362 . S
C1234 H1226 0.930 . S
C1234 C1233 1.362 . S
C1234 C1237 1.409 . S
C1235 H1227 0.930 . S
C1235 C1236 1.355 . S
C1235 C1237 1.415 . S
C1236 C1235 1.355 . S
C1236 C1238 1.419 . S
C1237 C1232 1.425 . S
C1237 C1234 1.409 . S
C1237 C1235 1.415 . S
C1238 H1228 0.930 . S
C1238 C1236 1.419 . S
C1238 C1239 1.362 . S
C1239 H1229 0.930 . S
C1239 C1232 1.409 . S
C1239 C1238 1.362 . S
H1240 C1246 0.930 . S
H1241 C1249 0.930 1_556 S
H1242 C1250 0.930 . S
H1243 C1251 0.930 . S
H1244 C1254 0.930 . S
H1245 C1255 0.930 . S
C1246 H1240 0.930 . S
C1246 C1247 1.355 . S
C1246 C1248 1.415 . S
C1247 C1246 1.355 . S
C1247 C1249 1.419 . S
C1248 C1246 1.415 . S
C1248 C1253 1.425 . S
C1248 C1255 1.409 . S
C1249 H1241 0.930 1_554 S
C1249 C1247 1.419 . S
C1249 C1250 1.362 . S
C1250 H1242 0.930 . S
C1250 C1249 1.362 . S
C1250 C1253 1.409 . S
C1251 H1243 0.930 . S
C1251 C1252 1.355 . S
C1251 C1253 1.415 . S
C1252 C1251 1.355 . S
C1252 C1254 1.419 . S
C1253 C1248 1.425 . S
C1253 C1250 1.409 . S
C1253 C1251 1.415 . S
C1254 H1244 0.930 . S
C1254 C1252 1.419 . S
C1254 C1255 1.362 . S
C1255 H1245 0.930 . S
C1255 C1248 1.409 . S
C1255 C1254 1.362 . S
H1256 C1262 0.930 . S
H1257 C1265 0.930 . S
H1258 C1266 0.930 . S
H1259 C1267 0.930 . S
H1260 C1270 0.930 . S
H1261 C1271 0.930 . S
C1262 H1256 0.930 . S
C1262 C1263 1.355 . S
C1262 C1264 1.415 . S
C1263 C1262 1.355 . S
C1263 C1265 1.419 . S
C1264 C1262 1.415 . S
C1264 C1269 1.425 . S
C1264 C1271 1.409 . S
C1265 H1257 0.930 . S
C1265 C1263 1.419 . S
C1265 C1266 1.362 . S
C1266 H1258 0.930 . S
C1266 C1265 1.362 . S
C1266 C1269 1.409 . S
C1267 H1259 0.930 . S
C1267 C1268 1.355 . S
C1267 C1269 1.415 . S
C1268 C1267 1.355 . S
C1268 C1270 1.419 . S
C1269 C1264 1.425 . S
C1269 C1266 1.409 . S
C1269 C1267 1.415 . S
C1270 H1260 0.930 . S
C1270 C1268 1.419 . S
C1270 C1271 1.362 . S
C1271 H1261 0.930 . S
C1271 C1264 1.409 . S
C1271 C1270 1.362 . S
H1272 C1278 0.930 . S
H1273 C1281 0.930 . S
H1274 C1282 0.930 . S
H1275 C1283 0.930 . S
H1276 C1286 0.930 . S
H1277 C1287 0.930 . S
C1278 H1272 0.930 . S
C1278 C1279 1.355 . S
C1278 C1280 1.415 . S
C1279 C1278 1.355 . S
C1279 C1281 1.419 . S
C1280 C1278 1.415 . S
C1280 C1285 1.425 . S
C1280 C1287 1.409 . S
C1281 H1273 0.930 . S
C1281 C1279 1.419 . S
C1281 C1282 1.362 . S
C1282 H1274 0.930 . S
C1282 C1281 1.362 . S
C1282 C1285 1.409 . S
C1283 H1275 0.930 . S
C1283 C1284 1.355 . S
C1283 C1285 1.415 . S
C1284 C1283 1.355 . S
C1284 C1286 1.419 . S
C1285 C1280 1.425 . S
C1285 C1282 1.409 . S
C1285 C1283 1.415 . S
C1286 H1276 0.930 . S
C1286 C1284 1.419 . S
C1286 C1287 1.362 . S
C1287 H1277 0.930 . S
C1287 C1280 1.409 . S
C1287 C1286 1.362 . S
H1288 C1294 0.930 . S
H1289 C1297 0.930 . S
H1290 C1298 0.930 . S
H1291 C1299 0.930 . S
H1292 C1302 0.930 . S
H1293 C1303 0.930 . S
C1294 H1288 0.930 . S
C1294 C1295 1.355 . S
C1294 C1296 1.415 . S
C1295 C1294 1.355 . S
C1295 C1297 1.419 . S
C1296 C1294 1.415 . S
C1296 C1301 1.425 . S
C1296 C1303 1.409 . S
C1297 H1289 0.930 . S
C1297 C1295 1.419 . S
C1297 C1298 1.362 . S
C1298 H1290 0.930 . S
C1298 C1297 1.362 . S
C1298 C1301 1.409 . S
C1299 H1291 0.930 . S
C1299 C1300 1.355 . S
C1299 C1301 1.415 . S
C1300 C1299 1.355 . S
C1300 C1302 1.419 . S
C1301 C1296 1.425 . S
C1301 C1298 1.409 . S
C1301 C1299 1.415 . S
C1302 H1292 0.930 . S
C1302 C1300 1.419 . S
C1302 C1303 1.362 . S
C1303 H1293 0.930 . S
C1303 C1296 1.409 . S
C1303 C1302 1.362 . S
H1304 C1310 0.930 . S
H1305 C1313 0.930 . S
H1306 C1314 0.930 . S
H1307 C1315 0.930 . S
H1308 C1318 0.930 . S
H1309 C1319 0.930 . S
C1310 H1304 0.930 . S
C1310 C1311 1.355 . S
C1310 C1312 1.415 . S
C1311 C1310 1.355 . S
C1311 C1313 1.419 . S
C1312 C1310 1.415 . S
C1312 C1317 1.425 . S
C1312 C1319 1.409 . S
C1313 H1305 0.930 . S
C1313 C1311 1.419 . S
C1313 C1314 1.362 . S
C1314 H1306 0.930 . S
C1314 C1313 1.362 . S
C1314 C1317 1.409 . S
C1315 H1307 0.930 . S
C1315 C1316 1.355 . S
C1315 C1317 1.415 . S
C1316 C1315 1.355 . S
C1316 C1318 1.419 . S
C1317 C1312 1.425 . S
C1317 C1314 1.409 . S
C1317 C1315 1.415 . S
C1318 H1308 0.930 . S
C1318 C1316 1.419 . S
C1318 C1319 1.362 . S
C1319 H1309 0.930 . S
C1319 C1312 1.409 . S
C1319 C1318 1.362 . S
H1320 C1326 0.930 . S
H1321 C1329 0.930 . S
H1322 C1330 0.930 . S
H1323 C1331 0.930 . S
H1324 C1334 0.930 . S
H1325 C1335 0.930 . S
C1326 H1320 0.930 . S
C1326 C1327 1.355 . S
C1326 C1328 1.415 . S
C1327 C1326 1.355 . S
C1327 C1329 1.419 . S
C1328 C1326 1.415 . S
C1328 C1333 1.425 . S
C1328 C1335 1.409 . S
C1329 H1321 0.930 . S
C1329 C1327 1.419 . S
C1329 C1330 1.362 . S
C1330 H1322 0.930 . S
C1330 C1329 1.362 . S
C1330 C1333 1.409 . S
C1331 H1323 0.930 . S
C1331 C1332 1.355 . S
C1331 C1333 1.415 . S
C1332 C1331 1.355 . S
C1332 C1334 1.419 . S
C1333 C1328 1.425 . S
C1333 C1330 1.409 . S
C1333 C1331 1.415 . S
C1334 H1324 0.930 . S
C1334 C1332 1.419 . S
C1334 C1335 1.362 . S
C1335 H1325 0.930 . S
C1335 C1328 1.409 . S
C1335 C1334 1.362 . S
H1336 C1342 0.930 . S
H1337 C1345 0.930 . S
H1338 C1346 0.930 . S
H1339 C1347 0.930 . S
H1340 C1350 0.930 . S
H1341 C1351 0.930 . S
C1342 H1336 0.930 . S
C1342 C1343 1.355 . S
C1342 C1344 1.415 . S
C1343 C1342 1.355 . S
C1343 C1345 1.419 . S
C1344 C1342 1.415 . S
C1344 C1349 1.425 . S
C1344 C1351 1.409 . S
C1345 H1337 0.930 . S
C1345 C1343 1.419 . S
C1345 C1346 1.362 . S
C1346 H1338 0.930 . S
C1346 C1345 1.362 . S
C1346 C1349 1.409 . S
C1347 H1339 0.930 . S
C1347 C1348 1.355 . S
C1347 C1349 1.415 . S
C1348 C1347 1.355 . S
C1348 C1350 1.419 . S
C1349 C1344 1.425 . S
C1349 C1346 1.409 . S
C1349 C1347 1.415 . S
C1350 H1340 0.930 . S
C1350 C1348 1.419 . S
C1350 C1351 1.362 . S
C1351 H1341 0.930 . S
C1351 C1344 1.409 . S
C1351 C1350 1.362 . S
H1352 C1358 0.930 . S
H1353 C1361 0.930 . S
H1354 C1362 0.930 . S
H1355 C1363 0.930 . S
H1356 C1366 0.930 . S
H1357 C1367 0.930 . S
C1358 H1352 0.930 . S
C1358 C1359 1.355 . S
C1358 C1360 1.415 . S
C1359 C1358 1.355 . S
C1359 C1361 1.419 . S
C1360 C1358 1.415 . S
C1360 C1365 1.425 . S
C1360 C1367 1.409 . S
C1361 H1353 0.930 . S
C1361 C1359 1.419 . S
C1361 C1362 1.362 . S
C1362 H1354 0.930 . S
C1362 C1361 1.362 . S
C1362 C1365 1.409 . S
C1363 H1355 0.930 . S
C1363 C1364 1.355 . S
C1363 C1365 1.415 . S
C1364 C1363 1.355 . S
C1364 C1366 1.419 . S
C1365 C1360 1.425 . S
C1365 C1362 1.409 . S
C1365 C1363 1.415 . S
C1366 H1356 0.930 . S
C1366 C1364 1.419 . S
C1366 C1367 1.362 . S
C1367 H1357 0.930 . S
C1367 C1360 1.409 . S
C1367 C1366 1.362 . S
H1368 C1374 0.930 . S
H1369 C1377 0.930 . S
H1370 C1378 0.930 . S
H1371 C1379 0.930 . S
H1372 C1382 0.930 . S
H1373 C1383 0.930 . S
C1374 H1368 0.930 . S
C1374 C1375 1.355 . S
C1374 C1376 1.415 . S
C1375 C1374 1.355 . S
C1375 C1377 1.419 . S
C1376 C1374 1.415 . S
C1376 C1381 1.425 . S
C1376 C1383 1.409 . S
C1377 H1369 0.930 . S
C1377 C1375 1.419 . S
C1377 C1378 1.362 . S
C1378 H1370 0.930 . S
C1378 C1377 1.362 . S
C1378 C1381 1.409 . S
C1379 H1371 0.930 . S
C1379 C1380 1.355 . S
C1379 C1381 1.415 . S
C1380 C1379 1.355 . S
C1380 C1382 1.419 . S
C1381 C1376 1.425 . S
C1381 C1378 1.409 . S
C1381 C1379 1.415 . S
C1382 H1372 0.930 . S
C1382 C1380 1.419 . S
C1382 C1383 1.362 . S
C1383 H1373 0.930 . S
C1383 C1376 1.409 . S
C1383 C1382 1.362 . S
H1384 C1390 0.930 . S
H1385 C1393 0.930 . S
H1386 C1394 0.930 . S
H1387 C1395 0.930 . S
H1388 C1398 0.930 . S
H1389 C1399 0.930 . S
C1390 H1384 0.930 . S
C1390 C1391 1.355 . S
C1390 C1392 1.415 . S
C1391 C1390 1.355 . S
C1391 C1393 1.419 . S
C1392 C1390 1.415 . S
C1392 C1397 1.425 . S
C1392 C1399 1.409 . S
C1393 H1385 0.930 . S
C1393 C1391 1.419 . S
C1393 C1394 1.362 . S
C1394 H1386 0.930 . S
C1394 C1393 1.362 . S
C1394 C1397 1.409 . S
C1395 H1387 0.930 . S
C1395 C1396 1.355 . S
C1395 C1397 1.415 . S
C1396 C1395 1.355 . S
C1396 C1398 1.419 . S
C1397 C1392 1.425 . S
C1397 C1394 1.409 . S
C1397 C1395 1.415 . S
C1398 H1388 0.930 . S
C1398 C1396 1.419 . S
C1398 C1399 1.362 . S
C1399 H1389 0.930 . S
C1399 C1392 1.409 . S
C1399 C1398 1.362 . S
H1400 C1406 0.930 . S
H1401 C1409 0.930 . S
H1402 C1410 0.930 . S
H1403 C1411 0.930 . S
H1404 C1414 0.930 . S
H1405 C1415 0.930 . S
C1406 H1400 0.930 . S
C1406 C1407 1.355 . S
C1406 C1408 1.415 . S
C1407 C1406 1.355 . S
C1407 C1409 1.419 . S
C1408 C1406 1.415 . S
C1408 C1413 1.425 . S
C1408 C1415 1.409 . S
C1409 H1401 0.930 . S
C1409 C1407 1.419 . S
C1409 C1410 1.362 . S
C1410 H1402 0.930 . S
C1410 C1409 1.362 . S
C1410 C1413 1.409 . S
C1411 H1403 0.930 . S
C1411 C1412 1.355 . S
C1411 C1413 1.415 . S
C1412 C1411 1.355 . S
C1412 C1414 1.419 . S
C1413 C1408 1.425 . S
C1413 C1410 1.409 . S
C1413 C1411 1.415 . S
C1414 H1404 0.930 . S
C1414 C1412 1.419 . S
C1414 C1415 1.362 . S
C1415 H1405 0.930 . S
C1415 C1408 1.409 . S
C1415 C1414 1.362 . S
H1416 C1422 0.930 . S
H1417 C1425 0.930 . S
H1418 C1426 0.930 . S
H1419 C1427 0.930 . S
H1420 C1430 0.930 . S
H1421 C1431 0.930 . S
C1422 H1416 0.930 . S
C1422 C1423 1.355 . S
C1422 C1424 1.415 . S
C1423 C1422 1.355 . S
C1423 C1425 1.419 . S
C1424 C1422 1.415 . S
C1424 C1429 1.425 . S
C1424 C1431 1.409 . S
C1425 H1417 0.930 . S
C1425 C1423 1.419 . S
C1425 C1426 1.362 . S
C1426 H1418 0.930 . S
C1426 C1425 1.362 . S
C1426 C1429 1.409 . S
C1427 H1419 0.930 . S
C1427 C1428 1.355 . S
C1427 C1429 1.415 . S
C1428 C1427 1.355 . S
C1428 C1430 1.419 . S
C1429 C1424 1.425 . S
C1429 C1426 1.409 . S
C1429 C1427 1.415 . S
C1430 H1420 0.930 . S
C1430 C1428 1.419 . S
C1430 C1431 1.362 . S
C1431 H1421 0.930 . S
C1431 C1424 1.409 . S
C1431 C1430 1.362 . S
H1432 C1438 0.930 . S
H1433 C1441 0.930 . S
H1434 C1442 0.930 . S
H1435 C1443 0.930 . S
H1436 C1446 0.930 . S
H1437 C1447 0.930 . S
C1438 H1432 0.930 . S
C1438 C1439 1.355 . S
C1438 C1440 1.415 . S
C1439 C1438 1.355 . S
C1439 C1441 1.419 . S
C1440 C1438 1.415 . S
C1440 C1445 1.425 . S
C1440 C1447 1.409 . S
C1441 H1433 0.930 . S
C1441 C1439 1.419 . S
C1441 C1442 1.362 . S
C1442 H1434 0.930 . S
C1442 C1441 1.362 . S
C1442 C1445 1.409 . S
C1443 H1435 0.930 . S
C1443 C1444 1.355 . S
C1443 C1445 1.415 . S
C1444 C1443 1.355 . S
C1444 C1446 1.419 . S
C1445 C1440 1.425 . S
C1445 C1442 1.409 . S
C1445 C1443 1.415 . S
C1446 H1436 0.930 . S
C1446 C1444 1.419 . S
C1446 C1447 1.362 . S
C1447 H1437 0.930 . S
C1447 C1440 1.409 . S
C1447 C1446 1.362 . S
H1448 C1454 0.930 . S
H1449 C1457 0.930 . S
H1450 C1458 0.930 . S
H1451 C1459 0.930 . S
H1452 C1462 0.930 . S
H1453 C1463 0.930 . S
C1454 H1448 0.930 . S
C1454 C1455 1.355 . S
C1454 C1456 1.415 . S
C1455 C1454 1.355 . S
C1455 C1457 1.419 . S
C1456 C1454 1.415 . S
C1456 C1461 1.425 . S
C1456 C1463 1.409 . S
C1457 H1449 0.930 . S
C1457 C1455 1.419 . S
C1457 C1458 1.362 . S
C1458 H1450 0.930 . S
C1458 C1457 1.362 . S
C1458 C1461 1.409 . S
C1459 H1451 0.930 . S
C1459 C1460 1.355 . S
C1459 C1461 1.415 . S
C1460 C1459 1.355 . S
C1460 C1462 1.419 . S
C1461 C1456 1.425 . S
C1461 C1458 1.409 . S
C1461 C1459 1.415 . S
C1462 H1452 0.930 . S
C1462 C1460 1.419 . S
C1462 C1463 1.362 . S
C1463 H1453 0.930 . S
C1463 C1456 1.409 . S
C1463 C1462 1.362 . S
H1464 C1470 0.930 . S
H1465 C1473 0.930 . S
H1466 C1474 0.930 . S
H1467 C1475 0.930 . S
H1468 C1478 0.930 . S
H1469 C1479 0.930 . S
C1470 H1464 0.930 . S
C1470 C1471 1.355 . S
C1470 C1472 1.415 . S
C1471 C1470 1.355 . S
C1471 C1473 1.419 . S
C1472 C1470 1.415 . S
C1472 C1477 1.425 . S
C1472 C1479 1.409 . S
C1473 H1465 0.930 . S
C1473 C1471 1.419 . S
C1473 C1474 1.362 . S
C1474 H1466 0.930 . S
C1474 C1473 1.362 . S
C1474 C1477 1.409 . S
C1475 H1467 0.930 . S
C1475 C1476 1.355 . S
C1475 C1477 1.415 . S
C1476 C1475 1.355 . S
C1476 C1478 1.419 . S
C1477 C1472 1.425 . S
C1477 C1474 1.409 . S
C1477 C1475 1.415 . S
C1478 H1468 0.930 . S
C1478 C1476 1.419 . S
C1478 C1479 1.362 . S
C1479 H1469 0.930 . S
C1479 C1472 1.409 . S
C1479 C1478 1.362 . S
H1480 C1486 0.930 . S
H1481 C1489 0.930 . S
H1482 C1490 0.930 . S
H1483 C1491 0.930 . S
H1484 C1494 0.930 . S
H1485 C1495 0.930 . S
C1486 H1480 0.930 . S
C1486 C1487 1.355 . S
C1486 C1488 1.415 . S
C1487 C1486 1.355 . S
C1487 C1489 1.419 . S
C1488 C1486 1.415 . S
C1488 C1493 1.425 . S
C1488 C1495 1.409 . S
C1489 H1481 0.930 . S
C1489 C1487 1.419 . S
C1489 C1490 1.362 . S
C1490 H1482 0.930 . S
C1490 C1489 1.362 . S
C1490 C1493 1.409 . S
C1491 H1483 0.930 . S
C1491 C1492 1.355 . S
C1491 C1493 1.415 . S
C1492 C1491 1.355 . S
C1492 C1494 1.419 . S
C1493 C1488 1.425 . S
C1493 C1490 1.409 . S
C1493 C1491 1.415 . S
C1494 H1484 0.930 . S
C1494 C1492 1.419 . S
C1494 C1495 1.362 . S
C1495 H1485 0.930 . S
C1495 C1488 1.409 . S
C1495 C1494 1.362 . S
H1496 C1502 0.930 . S
H1497 C1505 0.930 . S
H1498 C1506 0.930 . S
H1499 C1507 0.930 . S
H1500 C1510 0.930 . S
H1501 C1511 0.930 . S
C1502 H1496 0.930 . S
C1502 C1503 1.355 . S
C1502 C1504 1.415 . S
C1503 C1502 1.355 . S
C1503 C1505 1.419 . S
C1504 C1502 1.415 . S
C1504 C1509 1.425 . S
C1504 C1511 1.409 . S
C1505 H1497 0.930 . S
C1505 C1503 1.419 . S
C1505 C1506 1.362 . S
C1506 H1498 0.930 . S
C1506 C1505 1.362 . S
C1506 C1509 1.409 . S
C1507 H1499 0.930 . S
C1507 C1508 1.355 . S
C1507 C1509 1.415 . S
C1508 C1507 1.355 . S
C1508 C1510 1.419 . S
C1509 C1504 1.425 . S
C1509 C1506 1.409 . S
C1509 C1507 1.415 . S
C1510 H1500 0.930 . S
C1510 C1508 1.419 . S
C1510 C1511 1.362 . S
C1511 H1501 0.930 . S
C1511 C1504 1.409 . S
C1511 C1510 1.362 . S
H1512 C1518 0.930 . S
H1513 C1521 0.930 . S
H1514 C1522 0.930 . S
H1515 C1523 0.930 . S
H1516 C1526 0.930 . S
H1517 C1527 0.930 . S
C1518 H1512 0.930 . S
C1518 C1519 1.355 . S
C1518 C1520 1.415 . S
C1519 C1518 1.355 . S
C1519 C1521 1.419 . S
C1520 C1518 1.415 . S
C1520 C1525 1.425 . S
C1520 C1527 1.409 . S
C1521 H1513 0.930 . S
C1521 C1519 1.419 . S
C1521 C1522 1.362 . S
C1522 H1514 0.930 . S
C1522 C1521 1.362 . S
C1522 C1525 1.409 . S
C1523 H1515 0.930 . S
C1523 C1524 1.355 . S
C1523 C1525 1.415 . S
C1524 C1523 1.355 . S
C1524 C1526 1.419 . S
C1525 C1520 1.425 . S
C1525 C1522 1.409 . S
C1525 C1523 1.415 . S
C1526 H1516 0.930 . S
C1526 C1524 1.419 . S
C1526 C1527 1.362 . S
C1527 H1517 0.930 . S
C1527 C1520 1.409 . S
C1527 C1526 1.362 . S
H1528 C1534 0.930 . S
H1529 C1537 0.930 . S
H1530 C1538 0.930 . S
H1531 C1539 0.930 . S
H1532 C1542 0.930 . S
H1533 C1543 0.930 . S
C1534 H1528 0.930 . S
C1534 C1535 1.355 . S
C1534 C1536 1.415 . S
C1535 C1534 1.355 . S
C1535 C1537 1.419 . S
C1536 C1534 1.415 . S
C1536 C1541 1.425 . S
C1536 C1543 1.409 . S
C1537 H1529 0.930 . S
C1537 C1535 1.419 . S
C1537 C1538 1.362 . S
C1538 H1530 0.930 . S
C1538 C1537 1.362 . S
C1538 C1541 1.409 . S
C1539 H1531 0.930 . S
C1539 C1540 1.355 . S
C1539 C1541 1.415 . S
C1540 C1539 1.355 . S
C1540 C1542 1.419 . S
C1541 C1536 1.425 . S
C1541 C1538 1.409 . S
C1541 C1539 1.415 . S
C1542 H1532 0.930 . S
C1542 C1540 1.419 . S
C1542 C1543 1.362 . S
C1543 H1533 0.930 . S
C1543 C1536 1.409 . S
C1543 C1542 1.362 . S
H1544 C1550 0.930 . S
H1545 C1553 0.930 . S
H1546 C1554 0.930 . S
H1547 C1555 0.930 . S
H1548 C1558 0.930 . S
H1549 C1559 0.930 . S
C1550 H1544 0.930 . S
C1550 C1551 1.355 . S
C1550 C1552 1.415 . S
C1551 C1550 1.355 . S
C1551 C1553 1.419 . S
C1552 C1550 1.415 . S
C1552 C1557 1.425 . S
C1552 C1559 1.409 . S
C1553 H1545 0.930 . S
C1553 C1551 1.419 . S
C1553 C1554 1.362 . S
C1554 H1546 0.930 . S
C1554 C1553 1.362 . S
C1554 C1557 1.409 . S
C1555 H1547 0.930 . S
C1555 C1556 1.355 . S
C1555 C1557 1.415 . S
C1556 C1555 1.355 . S
C1556 C1558 1.419 . S
C1557 C1552 1.425 . S
C1557 C1554 1.409 . S
C1557 C1555 1.415 . S
C1558 H1548 0.930 . S
C1558 C1556 1.419 . S
C1558 C1559 1.362 . S
C1559 H1549 0.930 . S
C1559 C1552 1.409 . S
C1559 C1558 1.362 . S
H1560 C1566 0.930 . S
H1561 C1569 0.930 . S
H1562 C1570 0.930 . S
H1563 C1571 0.930 . S
H1564 C1574 0.930 . S
H1565 C1575 0.930 . S
C1566 H1560 0.930 . S
C1566 C1567 1.355 . S
C1566 C1568 1.376 1_455 S
C1567 C1566 1.355 . S
C1567 C1569 1.419 . S
C1568 C1566 1.376 1_655 S
C1568 C1573 1.418 1_655 S
C1568 C1575 1.453 . S
C1569 H1561 0.930 . S
C1569 C1567 1.419 . S
C1569 C1570 1.362 . S
C1570 H1562 0.930 . S
C1570 C1569 1.362 . S
C1570 C1573 1.453 . S
C1571 H1563 0.930 . S
C1571 C1572 1.355 . S
C1571 C1573 1.376 1_655 S
C1572 C1571 1.355 . S
C1572 C1574 1.419 . S
C1573 C1568 1.418 1_455 S
C1573 C1570 1.453 . S
C1573 C1571 1.376 1_455 S
C1574 H1564 0.930 . S
C1574 C1572 1.419 . S
C1574 C1575 1.362 . S
C1575 H1565 0.930 . S
C1575 C1568 1.453 . S
C1575 C1574 1.362 . S
H1576 C1582 0.930 . S
H1577 C1585 0.930 . S
H1578 C1586 0.930 . S
H1579 C1587 0.930 . S
H1580 C1590 0.930 . S
H1581 C1591 0.930 . S
C1582 H1576 0.930 . S
C1582 C1583 1.355 . S
C1582 C1584 1.415 . S
C1583 C1582 1.355 . S
C1583 C1585 1.419 . S
C1584 C1582 1.415 . S
C1584 C1589 1.425 . S
C1584 C1591 1.409 . S
C1585 H1577 0.930 . S
C1585 C1583 1.419 . S
C1585 C1586 1.362 . S
C1586 H1578 0.930 . S
C1586 C1585 1.362 . S
C1586 C1589 1.409 . S
C1587 H1579 0.930 . S
C1587 C1588 1.355 . S
C1587 C1589 1.415 . S
C1588 C1587 1.355 . S
C1588 C1590 1.419 . S
C1589 C1584 1.425 . S
C1589 C1586 1.409 . S
C1589 C1587 1.415 . S
C1590 H1580 0.930 . S
C1590 C1588 1.419 . S
C1590 C1591 1.362 . S
C1591 H1581 0.930 . S
C1591 C1584 1.409 . S
C1591 C1590 1.362 . S
H1592 C1598 0.930 . S
H1593 C1601 0.930 . S
H1594 C1602 0.930 . S
H1595 C1603 0.930 . S
H1596 C1606 0.930 . S
H1597 C1607 0.930 . S
C1598 H1592 0.930 . S
C1598 C1599 1.355 . S
C1598 C1600 1.415 1_545 S
C1599 C1598 1.355 . S
C1599 C1601 1.419 . S
C1600 C1598 1.415 1_565 S
C1600 C1605 1.425 1_565 S
C1600 C1607 1.409 . S
C1601 H1593 0.930 . S
C1601 C1599 1.419 . S
C1601 C1602 1.362 . S
C1602 H1594 0.930 . S
C1602 C1601 1.362 . S
C1602 C1605 1.409 . S
C1603 H1595 0.930 . S
C1603 C1604 1.355 . S
C1603 C1605 1.415 1_565 S
C1604 C1603 1.355 . S
C1604 C1606 1.419 . S
C1605 C1600 1.425 1_545 S
C1605 C1602 1.409 . S
C1605 C1603 1.415 1_545 S
C1606 H1596 0.930 . S
C1606 C1604 1.419 . S
C1606 C1607 1.362 . S
C1607 H1597 0.930 . S
C1607 C1600 1.409 . S
C1607 C1606 1.362 . S
H1608 C1614 0.930 . S
H1609 C1617 0.930 . S
H1610 C1618 0.930 . S
H1611 C1619 0.930 . S
H1612 C1622 0.930 . S
H1613 C1623 0.930 . S
C1614 H1608 0.930 . S
C1614 C1615 1.355 . S
C1614 C1616 1.415 . S
C1615 C1614 1.355 . S
C1615 C1617 1.419 1_556 S
C1616 C1614 1.415 . S
C1616 C1621 1.425 1_546 S
C1616 C1623 1.409 1_545 S
C1617 H1609 0.930 . S
C1617 C1615 1.419 1_554 S
C1617 C1618 1.362 . S
C1618 H1610 0.930 . S
C1618 C1617 1.362 . S
C1618 C1621 1.409 1_545 S
C1619 H1611 0.930 . S
C1619 C1620 1.355 . S
C1619 C1621 1.415 . S
C1620 C1619 1.355 . S
C1620 C1622 1.419 1_554 S
C1621 C1616 1.425 1_564 S
C1621 C1618 1.409 1_565 S
C1621 C1619 1.415 . S
C1622 H1612 0.930 . S
C1622 C1620 1.419 1_556 S
C1622 C1623 1.362 . S
C1623 H1613 0.930 . S
C1623 C1616 1.409 1_565 S
C1623 C1622 1.362 . S
H1624 C1630 0.930 . S
H1625 C1633 0.930 . S
H1626 C1634 0.930 . S
H1627 C1635 0.930 . S
H1628 C1638 0.930 . S
H1629 C1639 0.930 . S
C1630 H1624 0.930 . S
C1630 C1631 1.355 . S
C1630 C1632 1.415 1_556 S
C1631 C1630 1.355 . S
C1631 C1633 1.419 . S
C1632 C1630 1.415 1_554 S
C1632 C1637 1.425 1_654 S
C1632 C1639 1.409 . S
C1633 H1625 0.930 . S
C1633 C1631 1.419 . S
C1633 C1634 1.362 1_655 S
C1634 H1626 0.930 . S
C1634 C1633 1.362 1_455 S
C1634 C1637 1.409 . S
C1635 H1627 0.930 . S
C1635 C1636 1.355 . S
C1635 C1637 1.415 1_554 S
C1636 C1635 1.355 . S
C1636 C1638 1.419 . S
C1637 C1632 1.425 1_456 S
C1637 C1634 1.409 . S
C1637 C1635 1.415 1_556 S
C1638 H1628 0.930 . S
C1638 C1636 1.419 . S
C1638 C1639 1.362 1_455 S
C1639 H1629 0.930 . S
C1639 C1632 1.409 . S
C1639 C1638 1.362 1_655 S
H1640 C1646 0.930 . S
H1641 C1649 0.930 . S
H1642 C1650 0.930 . S
H1643 C1651 0.930 . S
H1644 C1654 0.930 . S
H1645 C1655 0.930 . S
C1646 H1640 0.930 . S
C1646 C1647 1.355 1_554 S
C1646 C1648 1.415 . S
C1647 C1646 1.355 1_556 S
C1647 C1649 1.419 . S
C1648 C1646 1.415 . S
C1648 C1653 1.425 1_554 S
C1648 C1655 1.409 . S
C1649 H1641 0.930 . S
C1649 C1647 1.419 . S
C1649 C1650 1.362 . S
C1650 H1642 0.930 . S
C1650 C1649 1.362 . S
C1650 C1653 1.409 . S
C1651 H1643 0.930 . S
C1651 C1652 1.355 1_556 S
C1651 C1653 1.415 . S
C1652 C1651 1.355 1_554 S
C1652 C1654 1.419 . S
C1653 C1648 1.425 1_556 S
C1653 C1650 1.409 . S
C1653 C1651 1.415 . S
C1654 H1644 0.930 . S
C1654 C1652 1.419 . S
C1654 C1655 1.362 . S
C1655 H1645 0.930 . S
C1655 C1648 1.409 . S
C1655 C1654 1.362 . S
C511 C3 1.314 . S
C516 C107 1.280 . S
C527 C17 1.315 . S
C532 C121 1.309 . S
C543 C93 1.268 . S
C548 C31 1.323 . S
C559 C163 1.326 . S
C564 C45 1.353 . S
C575 C59 1.317 . S
C580 C135 1.274 . S
C591 C73 1.315 . S
C596 C149 1.278 . S
C607 C23 1.327 . S
C612 C87 1.353 . S
C623 C37 1.277 . S
C628 C101 1.340 . S
C639 C115 1.335 . S
C644 C9 1.340 . S
C655 C129 1.341 . S
C660 C79 1.278 . S
C671 C51 1.276 . S
C676 C143 1.316 . S
C687 C157 1.353 . S
C692 C65 1.327 . S
C703 C275 1.301 . S
C708 C171 1.351 . S
C719 C185 1.321 . S
C724 C289 1.323 . S
C735 C199 1.314 . S
C740 C261 1.303 . S
C751 C331 1.272 . S
C756 C213 1.318 . S
C767 C227 1.352 . S
C772 C303 1.304 . S
C783 C317 1.340 . S
C788 C241 1.334 . S
C799 C191 1.298 . S
C804 C255 1.313 . S
C815 C269 1.350 . S
C820 C205 1.297 . S
C831 C177 1.308 . S
C836 C283 1.353 . S
C847 C297 1.314 . S
C852 C247 1.301 . S
C863 C311 1.333 . S
C868 C219 1.339 . S
C879 C325 1.318 . S
C884 C233 1.319 . S
C895 C443 1.340 . S
C900 C339 1.334 . S
C911 C457 1.308 . S
C916 C353 1.315 . S
C927 C429 1.330 . S
C932 C367 1.352 . S
C943 C381 1.353 . S
C948 C499 1.326 . S
C959 C395 1.338 . S
C964 C471 1.341 . S
C975 C485 1.306 . S
C980 C409 1.315 . S
C991 C423 1.328 . S
C996 C359 1.334 . S
C1007 C373 1.270 . S
C1012 C437 1.334 . S
C1023 C345 1.295 . S
C1028 C451 1.313 . S
C1039 C465 1.336 . S
C1044 C415 1.272 . S
C1055 C479 1.313 . S
C1060 C387 1.288 . S
C1071 C493 1.353 . S
C1076 C401 1.322 . S
C1087 C49 1.379 . S
C1092 C7 1.344 . S
C1103 C63 1.357 . S
C1108 C21 1.386 . S
C1119 C35 1.328 . S
C1124 C77 1.332 . S
C1135 C133 1.389 . S
C1140 C91 1.366 . S
C1151 C147 1.325 . S
C1156 C105 1.343 . S
C1167 C161 1.350 . S
C1172 C119 1.383 . S
C1183 C217 1.326 . S
C1188 C175 1.338 . S
C1199 C231 1.354 . S
C1204 C189 1.326 . S
C1215 C203 1.386 . S
C1220 C245 1.355 . S
C1231 C301 1.384 1_554 S
C1236 C259 1.382 . S
C1247 C315 1.333 1_554 S
C1252 C273 1.328 . S
C1263 C329 1.385 1_554 S
C1268 C287 1.382 . S
C1279 C385 1.373 1_556 S
C1284 C343 1.337 . S
C1295 C357 1.361 . S
C1300 C399 1.387 1_556 S
C1311 C413 1.384 1_556 S
C1316 C371 1.352 . S
C1327 C427 1.325 . S
C1332 C469 1.343 . S
C1343 C441 1.343 . S
C1348 C483 1.378 . S
C1359 C455 1.382 . S
C1364 C497 1.384 . S
C1375 C8 1.453 . S
C1380 C260 1.453 . S
C1391 C274 1.431 . S
C1396 C22 1.431 . S
C1407 C288 1.439 . S
C1412 C36 1.439 . S
C1423 C470 1.442 . S
C1428 C50 1.442 . S
C1439 C484 1.453 . S
C1444 C64 1.453 . S
C1455 C498 1.439 . S
C1460 C78 1.439 . S
C1471 C92 1.452 . S
C1476 C344 1.452 . S
C1487 C358 1.443 . S
C1492 C106 1.443 . S
C1503 C372 1.443 . S
C1508 C120 1.443 . S
C1519 C134 1.445 . S
C1524 C218 1.445 . S
C1535 C148 1.454 . S
C1540 C232 1.454 . S
C1551 C162 1.442 . S
C1556 C246 1.442 . S
C1567 C428 1.440 . S
C1572 C176 1.440 . S
C1583 C442 1.435 . S
C1588 C190 1.435 . S
C1599 C204 1.432 . S
C1604 C456 1.432 . S
C1615 C302 1.446 . S
C1620 C386 1.446 . S
C1631 C316 1.455 . S
C1636 C400 1.455 . S
C1647 C330 1.443 . S
C1652 C414 1.443 . S
