# Generated by pormake.
# Topology wli, (5)-cn, num edge types: 1
# Building blocks:
#     Node 0, Type 0, BuildingBlock: BEQFEK_clean_sbu_0, # of connection points: 5
#     Node 1, Type 0, BuildingBlock: BEQFEK_clean_sbu_0, # of connection points: 5
#     Node 2, Type 0, BuildingBlock: BEQFEK_clean_sbu_0, # of connection points: 5
#     Node 3, Type 0, BuildingBlock: BEQFEK_clean_sbu_0, # of connection points: 5
#     Node 4, Type 0, BuildingBlock: BEQFEK_clean_sbu_0, # of connection points: 5
#     Node 5, Type 0, BuildingBlock: BEQFEK_clean_sbu_0, # of connection points: 5
#     Edge 6, Type (0, 0), BuildingBlock: TEMPAE_clean_linker_10, # of connection points: 2
#     Edge 7, Type (0, 0), BuildingBlock: TEMPAE_clean_linker_10, # of connection points: 2
#     Edge 8, Type (0, 0), BuildingBlock: TEMPAE_clean_linker_10, # of connection points: 2
#     Edge 9, Type (0, 0), BuildingBlock: TEMPAE_clean_linker_10, # of connection points: 2
#     Edge 10, Type (0, 0), BuildingBlock: TEMPAE_clean_linker_10, # of connection points: 2
#     Edge 11, Type (0, 0), BuildingBlock: TEMPAE_clean_linker_10, # of connection points: 2
#     Edge 12, Type (0, 0), BuildingBlock: TEMPAE_clean_linker_10, # of connection points: 2
#     Edge 13, Type (0, 0), BuildingBlock: TEMPAE_clean_linker_10, # of connection points: 2
#     Edge 14, Type (0, 0), BuildingBlock: TEMPAE_clean_linker_10, # of connection points: 2
#     Edge 15, Type (0, 0), BuildingBlock: TEMPAE_clean_linker_10, # of connection points: 2
#     Edge 16, Type (0, 0), BuildingBlock: TEMPAE_clean_linker_10, # of connection points: 2
#     Edge 17, Type (0, 0), BuildingBlock: TEMPAE_clean_linker_10, # of connection points: 2
#     Edge 18, Type (0, 0), BuildingBlock: TEMPAE_clean_linker_10, # of connection points: 2
#     Edge 19, Type (0, 0), BuildingBlock: TEMPAE_clean_linker_10, # of connection points: 2
#     Edge 20, Type (0, 0), BuildingBlock: TEMPAE_clean_linker_10, # of connection points: 2
# Relax obj value: 0.166
# Max RMSD: 0.120
# Mean RMSD: 0.120
data_MOF--net-wli--node1-BEQFEK_clean_sbu_0--edge1-TEMPAE_clean_linker_10
_symmetry_space_group_name_H-M    P1
_symmetry_Int_Tables_number       1
_symmetry_cell_setting            triclinic
loop_
_symmetry_equiv_pos_as_xyz
'x, y, z'
_cell_length_a     37.045658
_cell_length_b     37.044134
_cell_length_c     28.570706
_cell_angle_alpha  89.983207
_cell_angle_beta   90.018767
_cell_angle_gamma 119.99632
loop_
_atom_site_label
_atom_site_type_symbol
_atom_site_fract_x
_atom_site_fract_y
_atom_site_fract_z
_atom_type_partial_charge
Co0 Co 0.20279 0.43901 0.99138 0.0
Co1 Co 0.13601 0.3724 0.0592 0.0
C2 C 0.20453 0.36158 0.02051 0.0
O3 O 0.21797 0.39527 0.99749 0.0
O4 O 0.17317 0.34881 0.0476 0.0
C5 C 0.28654 0.49758 0.96954 0.0
O6 O 0.29321 0.4805 0.00641 0.0
C7 C 0.09905 0.32676 0.14739 0.0
C8 C 0.03222 0.30405 0.13476 0.0
C9 C 0.05988 0.30506 0.16804 0.0
N10 N 0.09463 0.33859 0.10422 0.0
N11 N 0.05455 0.32443 0.09676 0.0
C12 C 0.13968 0.33436 0.16726 0.0
H13 H 0.16132 0.33739 0.13876 0.0
H14 H 0.15449 0.36378 0.18754 0.0
H15 H 0.13462 0.3086 0.19115 0.0
C16 C 0.20923 0.49543 0.06817 0.0
N17 N 0.19443 0.45688 0.05044 0.0
N18 N 0.16601 0.4294 0.07897 0.0
C19 C 0.16164 0.44993 0.11566 0.0
C20 C 0.1892 0.49225 0.11019 0.0
C21 C 0.24078 0.53461 0.04427 0.0
H22 H 0.27137 0.53603 0.04472 0.0
H23 H 0.24455 0.56295 0.06189 0.0
H24 H 0.23156 0.53431 0.00727 0.0
O25 O 0.15154 0.41756 0.95348 0.0
O26 O 0.1055 0.36833 0.00059 0.0
H27 H 0.12266 0.45433 0.16922 0.0
H28 H 0.13659 0.41495 0.17856 0.0
C29 C 0.12777 0.43056 0.15158 0.0
H30 H 0.09824 0.40714 0.13494 0.0
H31 H 0.04247 0.32951 0.06605 0.0
O32 O 0.24926 0.4852 0.95684 0.0
C33 C 0.11468 0.38817 0.96198 0.0
Co34 Co 0.57941 0.77582 0.66002 0.0
Co35 Co 0.64675 0.77324 0.72477 0.0
C36 C 0.65939 0.8535 0.68835 0.0
O37 O 0.62536 0.83386 0.66576 0.0
O38 O 0.67183 0.8344 0.71516 0.0
C39 C 0.5273 0.8088 0.6344 0.0
O40 O 0.55298 0.83939 0.66184 0.0
C41 C 0.69513 0.77927 0.80954 0.0
C42 C 0.70711 0.72726 0.79795 0.0
C43 C 0.71264 0.75766 0.82988 0.0
N44 N 0.68002 0.76249 0.7673 0.0
N45 N 0.68809 0.73196 0.76023 0.0
C46 C 0.68985 0.81299 0.83147 0.0
H47 H 0.66642 0.81745 0.81202 0.0
H48 H 0.68038 0.8054 0.86867 0.0
H49 H 0.7202 0.84252 0.83073 0.0
C50 C 0.52489 0.72865 0.73889 0.0
N51 N 0.56291 0.75017 0.71927 0.0
N52 N 0.59046 0.74781 0.74632 0.0
C53 C 0.57041 0.72383 0.78374 0.0
C54 C 0.52841 0.71137 0.7804 0.0
C55 C 0.48553 0.72148 0.71589 0.0
H56 H 0.48421 0.71032 0.67956 0.0
H57 H 0.48562 0.75144 0.71409 0.0
H58 H 0.45744 0.6984 0.73529 0.0
O59 O 0.59816 0.74485 0.61988 0.0
O60 O 0.64859 0.74772 0.66462 0.0
H61 H 0.60901 0.69873 0.80453 0.0
H62 H 0.56726 0.68774 0.84504 0.0
C63 C 0.59054 0.71137 0.82093 0.0
H64 H 0.61181 0.73916 0.84178 0.0
H65 H 0.67879 0.71298 0.73057 0.0
O66 O 0.53237 0.77756 0.62877 0.0
C67 C 0.62778 0.73736 0.62665 0.0
Co68 Co 0.24252 0.81585 0.32643 0.0
Co69 Co 0.24432 0.88499 0.39169 0.0
C70 C 0.16422 0.81625 0.35603 0.0
O71 O 0.18411 0.80245 0.33291 0.0
O72 O 0.1832 0.84783 0.38275 0.0
C73 C 0.21078 0.73112 0.30041 0.0
O74 O 0.18057 0.7256 0.32884 0.0
C75 C 0.24022 0.92704 0.47778 0.0
C76 C 0.28405 0.99286 0.45997 0.0
C77 C 0.25926 0.96736 0.4959 0.0
N78 N 0.25376 0.92896 0.43367 0.0
N79 N 0.27934 0.96846 0.42303 0.0
C80 C 0.2125 0.88695 0.50263 0.0
H81 H 0.21119 0.86029 0.48337 0.0
H82 H 0.22367 0.88793 0.53891 0.0
H83 H 0.1805 0.88224 0.50439 0.0
C84 C 0.29201 0.81017 0.40379 0.0
N85 N 0.26914 0.82564 0.3853 0.0
N86 N 0.2713 0.85528 0.41269 0.0
C87 C 0.29642 0.85996 0.4493 0.0
C88 C 0.30998 0.8313 0.44497 0.0
C89 C 0.29717 0.77644 0.38155 0.0
H90 H 0.26606 0.74844 0.37663 0.0
H91 H 0.31646 0.76771 0.40323 0.0
H92 H 0.31165 0.78692 0.34653 0.0
O93 O 0.2725 0.86567 0.28621 0.0
O94 O 0.26919 0.91264 0.33147 0.0
H95 H 0.34145 0.90048 0.50062 0.0
H96 H 0.28829 0.88589 0.51244 0.0
C97 C 0.31179 0.89458 0.48433 0.0
H98 H 0.31684 0.92361 0.46734 0.0
H99 H 0.29479 0.97866 0.39106 0.0
O100 O 0.24151 0.76771 0.2945 0.0
C101 C 0.27961 0.9026 0.2933 0.0
Co102 Co 0.43772 0.20396 0.00429 0.0
Co103 Co 0.37038 0.13563 0.93834 0.0
C104 C 0.35937 0.20435 0.97486 0.0
O105 O 0.39295 0.21774 0.9981 0.0
O106 O 0.34668 0.173 0.94774 0.0
C107 C 0.49122 0.2884 0.03076 0.0
O108 O 0.46695 0.29435 0.00209 0.0
C109 C 0.32431 0.09421 0.85189 0.0
C110 C 0.30202 0.02825 0.8693 0.0
C111 C 0.30293 0.05398 0.83353 0.0
N112 N 0.3358 0.09201 0.896 0.0
N113 N 0.3217 0.05243 0.90639 0.0
C114 C 0.33686 0.13445 0.8273 0.0
H115 H 0.3622 0.16097 0.84674 0.0
H116 H 0.34712 0.13362 0.79102 0.0
H117 H 0.30965 0.13928 0.82554 0.0
C118 C 0.493 0.21002 0.92694 0.0
N119 N 0.45462 0.19456 0.94529 0.0
N120 N 0.42714 0.16527 0.91757 0.0
C121 C 0.44762 0.16082 0.88085 0.0
C122 C 0.48987 0.18927 0.88548 0.0
C123 C 0.53191 0.24339 0.94955 0.0
H124 H 0.52911 0.27156 0.95449 0.0
H125 H 0.56001 0.25196 0.92811 0.0
H126 H 0.53555 0.23265 0.98458 0.0
O127 O 0.41758 0.1538 0.04397 0.0
O128 O 0.36726 0.10741 0.99827 0.0
H129 H 0.40418 0.09744 0.86197 0.0
H130 H 0.45206 0.12069 0.82896 0.0
C131 C 0.42834 0.12658 0.84536 0.0
H132 H 0.41376 0.13571 0.8174 0.0
H133 H 0.32681 0.04201 0.9383 0.0
O134 O 0.48489 0.25164 0.03668 0.0
C135 C 0.38763 0.11702 0.03651 0.0
Co136 Co 0.81438 0.24353 0.67064 0.0
Co137 Co 0.88394 0.24504 0.60628 0.0
C138 C 0.81505 0.16524 0.64325 0.0
O139 O 0.80088 0.18508 0.66574 0.0
O140 O 0.84666 0.18418 0.6166 0.0
C141 C 0.72965 0.21217 0.69584 0.0
O142 O 0.72439 0.18188 0.66771 0.0
C143 C 0.92207 0.23845 0.51881 0.0
C144 C 0.98922 0.27559 0.53523 0.0
C145 C 0.96141 0.25291 0.50001 0.0
N146 N 0.92635 0.25213 0.56314 0.0
N147 N 0.96659 0.27387 0.57293 0.0
C148 C 0.88106 0.21094 0.49562 0.0
H149 H 0.85516 0.20969 0.51645 0.0
H150 H 0.88079 0.22204 0.45963 0.0
H151 H 0.87638 0.17901 0.4927 0.0
C152 C 0.80799 0.29118 0.59164 0.0
N153 N 0.82394 0.2691 0.61116 0.0
N154 N 0.85446 0.27202 0.58476 0.0
C155 C 0.85971 0.29742 0.54827 0.0
C156 C 0.82997 0.30967 0.55113 0.0
C157 C 0.77533 0.29793 0.61408 0.0
H158 H 0.78494 0.30943 0.65035 0.0
H159 H 0.7457 0.26776 0.61596 0.0
H160 H 0.77001 0.32063 0.59428 0.0
O161 O 0.8646 0.27394 0.71047 0.0
O162 O 0.91214 0.27076 0.66594 0.0
H163 H 0.9232 0.31711 0.53008 0.0
H164 H 0.90019 0.34154 0.49606 0.0
C165 C 0.89418 0.31216 0.5131 0.0
H166 H 0.88513 0.28831 0.48536 0.0
H167 H 0.97866 0.28836 0.60502 0.0
O168 O 0.76618 0.24293 0.70203 0.0
C169 C 0.90168 0.28124 0.70382 0.0
Co170 Co 0.77345 0.58071 0.34145 0.0
Co171 Co 0.77252 0.6465 0.27263 0.0
C172 C 0.85207 0.65908 0.31219 0.0
O173 O 0.83205 0.62542 0.33534 0.0
O174 O 0.83333 0.67135 0.28461 0.0
C175 C 0.80027 0.52346 0.36353 0.0
O176 O 0.82397 0.54099 0.32675 0.0
C177 C 0.781 0.69387 0.18543 0.0
C178 C 0.7298 0.70745 0.1951 0.0
C179 C 0.76013 0.71182 0.16354 0.0
N180 N 0.76303 0.67892 0.22732 0.0
N181 N 0.73289 0.68775 0.23305 0.0
C182 C 0.81826 0.69221 0.16801 0.0
H183 H 0.83766 0.6927 0.19778 0.0
H184 H 0.80796 0.66281 0.14845 0.0
H185 H 0.83728 0.71888 0.14437 0.0
C186 C 0.72445 0.52367 0.26464 0.0
N187 N 0.74765 0.56233 0.28231 0.0
N188 N 0.74705 0.58956 0.2531 0.0
C189 C 0.72331 0.56883 0.21576 0.0
C190 C 0.70853 0.52654 0.2218 0.0
C191 C 0.71655 0.48469 0.28928 0.0
H192 H 0.74563 0.4831 0.28929 0.0
H193 H 0.69194 0.45624 0.27191 0.0
H194 H 0.70759 0.48547 0.32615 0.0
O195 O 0.74271 0.6013 0.37886 0.0
O196 O 0.74546 0.64995 0.33111 0.0
H197 H 0.68546 0.5644 0.15568 0.0
H198 H 0.73773 0.60814 0.1558 0.0
C199 C 0.71048 0.58823 0.1781 0.0
H200 H 0.69915 0.60799 0.19407 0.0
H201 H 0.7136 0.67925 0.26241 0.0
O202 O 0.77476 0.53509 0.37616 0.0
C203 C 0.73477 0.63029 0.36984 0.0
C204 C 0.24285 0.69974 0.24939 0.0
C205 C 0.20855 0.69525 0.27501 0.0
C206 C 0.24053 0.66622 0.22396 0.0
C207 C 0.20291 0.62742 0.22388 0.0
C208 C 0.16838 0.62254 0.25018 0.0
C209 C 0.17167 0.65646 0.27558 0.0
C210 C 0.27811 0.67246 0.19664 0.0
C211 C 0.12765 0.58172 0.25068 0.0
C212 C 0.18263 0.55543 0.12054 0.0
C213 C 0.19238 0.52651 0.13943 0.0
C214 C 0.1858 0.58838 0.14775 0.0
C215 C 0.19914 0.59239 0.19489 0.0
C216 C 0.20868 0.5629 0.21419 0.0
C217 C 0.20487 0.53003 0.1862 0.0
C218 C 0.17485 0.61886 0.12608 0.0
C219 C 0.22317 0.56628 0.26421 0.0
H220 H 0.27154 0.72954 0.24903 0.0
H221 H 0.145 0.65274 0.29523 0.0
H222 H 0.28661 0.64882 0.20715 0.0
H223 H 0.27063 0.66807 0.15874 0.0
H224 H 0.30558 0.70399 0.20198 0.0
H225 H 0.10416 0.58267 0.27402 0.0
H226 H 0.11464 0.57395 0.21473 0.0
H227 H 0.13287 0.55615 0.26241 0.0
H228 H 0.17235 0.55209 0.08446 0.0
H229 H 0.21216 0.50733 0.2006 0.0
H230 H 0.20222 0.65082 0.12732 0.0
H231 H 0.14952 0.61926 0.14637 0.0
H232 H 0.16461 0.61107 0.08909 0.0
H233 H 0.25202 0.59667 0.26968 0.0
H234 H 0.2295 0.5409 0.27378 0.0
H235 H 0.19923 0.56521 0.28838 0.0
C236 C 0.48454 0.6398 0.81195 0.0
C237 C 0.49408 0.68137 0.81026 0.0
C238 C 0.45079 0.61039 0.83855 0.0
C239 C 0.42647 0.62318 0.86435 0.0
C240 C 0.43645 0.66541 0.86308 0.0
C241 C 0.47003 0.69401 0.83558 0.0
C242 C 0.44076 0.56555 0.83846 0.0
C243 C 0.41159 0.6803 0.89061 0.0
C244 C 0.3164 0.54048 0.89737 0.0
C245 C 0.32197 0.53076 0.94327 0.0
C246 C 0.35015 0.57067 0.87133 0.0
C247 C 0.39021 0.59214 0.89204 0.0
C248 C 0.39581 0.58315 0.93875 0.0
C249 C 0.36166 0.55226 0.96368 0.0
C250 C 0.3431 0.57896 0.82135 0.0
C251 C 0.43793 0.60593 0.96225 0.0
H252 H 0.50312 0.63024 0.79177 0.0
H253 H 0.47761 0.7263 0.83387 0.0
H254 H 0.44184 0.55533 0.87467 0.0
H255 H 0.40866 0.54518 0.82513 0.0
H256 H 0.46275 0.56077 0.81647 0.0
H257 H 0.42432 0.71442 0.8871 0.0
H258 H 0.37875 0.66395 0.87846 0.0
H259 H 0.41133 0.67269 0.92822 0.0
H260 H 0.28581 0.52381 0.88137 0.0
H261 H 0.36605 0.54509 -0.00072 0.0
H262 H 0.36244 0.57201 0.79743 0.0
H263 H 0.35295 0.61237 0.81679 0.0
H264 H 0.30995 0.55989 0.81061 0.0
H265 H 0.46036 0.59961 0.94339 0.0
H266 H 0.43666 0.59658 -0.00057 0.0
H267 H 0.45028 0.64006 0.96077 0.0
C268 C 0.3779 0.83352 0.45412 0.0
C269 C 0.34103 0.82798 0.47423 0.0
C270 C 0.4077 0.83032 0.48128 0.0
C271 C 0.40021 0.82114 0.52963 0.0
C272 C 0.36299 0.81574 0.55011 0.0
C273 C 0.3339 0.81955 0.52211 0.0
C274 C 0.44723 0.83687 0.45828 0.0
C275 C 0.35381 0.80566 0.60144 0.0
C276 C 0.46149 0.77614 0.58731 0.0
C277 C 0.4937 0.81138 0.60933 0.0
C278 C 0.43021 0.77864 0.56222 0.0
C279 C 0.43152 0.8174 0.55862 0.0
C280 C 0.46368 0.85296 0.58124 0.0
C281 C 0.49424 0.84946 0.60658 0.0
C282 C 0.3961 0.73994 0.53901 0.0
C283 C 0.46637 0.89492 0.57778 0.0
H284 H 0.38349 0.84065 0.41711 0.0
H285 H 0.3053 0.81541 0.53745 0.0
H286 H 0.47474 0.86274 0.4758 0.0
H287 H 0.4498 0.80844 0.46214 0.0
H288 H 0.44844 0.84427 0.42043 0.0
H289 H 0.32332 0.80214 0.61184 0.0
H290 H 0.35365 0.77631 0.60972 0.0
H291 H 0.37864 0.83066 0.62297 0.0
H292 H 0.46071 0.74656 0.58962 0.0
H293 H 0.51911 0.87686 0.6234 0.0
H294 H 0.3977 0.74431 0.5005 0.0
H295 H 0.36512 0.73437 0.55054 0.0
H296 H 0.39838 0.71181 0.54707 0.0
H297 H 0.47048 0.90505 0.54066 0.0
H298 H 0.49267 0.91926 0.5985 0.0
H299 H 0.43696 0.89267 0.59025 0.0
C300 C 0.5553 0.18661 0.87612 0.0
C301 C 0.52427 0.19273 0.85621 0.0
C302 C 0.58837 0.19 0.84897 0.0
C303 C 0.59043 0.19998 0.80083 0.0
C304 C 0.55892 0.20598 0.78053 0.0
C305 C 0.52593 0.20195 0.8085 0.0
C306 C 0.62101 0.18277 0.87176 0.0
C307 C 0.56022 0.21692 0.72942 0.0
C308 C 0.69693 0.24482 0.74373 0.0
C309 C 0.69359 0.20973 0.72099 0.0
C310 C 0.6632 0.24236 0.76887 0.0
C311 C 0.62548 0.20377 0.77181 0.0
C312 C 0.62179 0.16838 0.74848 0.0
C313 C 0.6558 0.17186 0.7231 0.0
C314 C 0.6681 0.28089 0.79283 0.0
C315 C 0.58224 0.12659 0.75124 0.0
H316 H 0.55348 0.17888 0.91298 0.0
H317 H 0.5017 0.20655 0.79331 0.0
H318 H 0.62249 0.15701 0.85373 0.0
H319 H 0.65215 0.21108 0.86836 0.0
H320 H 0.61459 0.17485 0.90948 0.0
H321 H 0.53352 0.22096 0.71918 0.0
H322 H 0.58963 0.24622 0.72167 0.0
H323 H 0.55987 0.19211 0.70737 0.0
H324 H 0.72595 0.27425 0.74192 0.0
H325 H 0.65302 0.14457 0.70574 0.0
H326 H 0.66512 0.27597 0.83126 0.0
H327 H 0.64298 0.28696 0.78149 0.0
H328 H 0.69871 0.30893 0.78522 0.0
H329 H 0.57594 0.11595 0.78818 0.0
H330 H 0.58401 0.10238 0.73006 0.0
H331 H 0.55533 0.12935 0.73888 0.0
C332 C 0.82336 0.47077 0.36986 0.0
C333 C 0.80319 0.49057 0.38969 0.0
C334 C 0.82716 0.44012 0.39463 0.0
C335 C 0.81097 0.42953 0.4406 0.0
C336 C 0.79041 0.44928 0.46074 0.0
C337 C 0.78647 0.47934 0.43488 0.0
C338 C 0.84872 0.41925 0.37175 0.0
C339 C 0.77321 0.43917 0.5099 0.0
C340 C 0.79017 0.32702 0.4942 0.0
C341 C 0.82589 0.33996 0.5215 0.0
C342 C 0.78512 0.35577 0.46706 0.0
C343 C 0.81632 0.39842 0.46805 0.0
C344 C 0.85246 0.41152 0.49583 0.0
C345 C 0.85684 0.382 0.5222 0.0
C346 C 0.74637 0.3406 0.43758 0.0
C347 C 0.88617 0.45675 0.49821 0.0
H348 H 0.83608 0.47909 0.3348 0.0
H349 H 0.77099 0.49467 0.45047 0.0
H350 H 0.87688 0.42585 0.3921 0.0
H351 H 0.82778 0.38494 0.37162 0.0
H352 H 0.85823 0.42993 0.33516 0.0
H353 H 0.75775 0.45705 0.52029 0.0
H354 H 0.75031 0.40541 0.51299 0.0
H355 H 0.79876 0.44625 0.53503 0.0
H356 H 0.76624 0.29439 0.49417 0.0
H357 H 0.88415 0.39179 0.54401 0.0
H358 H 0.75507 0.34945 0.40045 0.0
H359 H 0.72853 0.3557 0.44922 0.0
H360 H 0.72571 0.30625 0.43963 0.0
H361 H 0.89866 0.46837 0.46268 0.0
H362 H 0.91237 0.46171 0.52134 0.0
H363 H 0.87293 0.47585 0.51145 0.0
C364 C 0.55409 0.31888 0.0827 0.0
C365 C 0.52503 0.32402 0.05633 0.0
C366 C 0.58541 0.35216 0.1083 0.0
C367 C 0.5875 0.39138 0.10774 0.0
C368 C 0.55864 0.39692 0.08065 0.0
C369 C 0.52784 0.36321 0.05514 0.0
C370 C 0.61588 0.3452 0.13652 0.0
C371 C 0.55973 0.43822 0.07942 0.0
C372 C 0.63868 0.46369 0.21095 0.0
C373 C 0.67778 0.49204 0.19255 0.0
C374 C 0.609 0.43073 0.18368 0.0
C375 C 0.61883 0.42618 0.13694 0.0
C376 C 0.65833 0.45501 0.11816 0.0
C377 C 0.68735 0.48785 0.14624 0.0
C378 C 0.56709 0.4009 0.20481 0.0
C379 C 0.66994 0.45107 0.06855 0.0
H380 H 0.55228 0.28876 0.08355 0.0
H381 H 0.50549 0.36744 0.03489 0.0
H382 H 0.64831 0.36831 0.12644 0.0
H383 H 0.61243 0.34986 0.17426 0.0
H384 H 0.61118 0.31339 0.13162 0.0
H385 H 0.53591 0.43777 0.05542 0.0
H386 H 0.55424 0.44634 0.11507 0.0
H387 H 0.59093 0.4633 0.06808 0.0
H388 H 0.63131 0.46752 0.24669 0.0
H389 H 0.71767 0.51009 0.13222 0.0
H390 H 0.56181 0.36868 0.20384 0.0
H391 H 0.54192 0.40111 0.18396 0.0
H392 H 0.56441 0.40888 0.24164 0.0
H393 H 0.66763 0.42028 0.06359 0.0
H394 H 0.70205 0.47587 0.05943 0.0
H395 H 0.64779 0.45273 0.0437 0.0
C396 C 0.92663 0.32133 0.77888 0.0
C397 C 0.9331 0.30077 0.74139 0.0
C398 C 0.95582 0.33862 0.81535 0.0
C399 C 0.99181 0.33452 0.81461 0.0
C400 C 0.99867 0.31417 0.77664 0.0
C401 C 0.96942 0.29787 0.74033 0.0
C402 C 0.94792 0.36079 0.85492 0.0
C403 C 0.0364 0.30865 0.77494 0.0
C404 C 0.08748 0.4024 0.88818 0.0
C405 C 0.08205 0.37578 0.92577 0.0
C406 C 0.05747 0.39005 0.85261 0.0
C407 C 0.02164 0.34988 0.85433 0.0
C408 C 0.01561 0.32322 0.89264 0.0
C409 C 0.04572 0.33664 0.92811 0.0
C410 C 0.06453 0.41959 0.81268 0.0
C411 C 0.97809 0.27991 0.89534 0.0
H412 H 0.89877 0.32394 0.77973 0.0
H413 H 0.97458 0.28187 0.71159 0.0
H414 H 0.94377 0.34366 0.88815 0.0
H415 H 0.9752 0.3925 0.85954 0.0
H416 H 0.91977 0.36355 0.84883 0.0
H417 H 0.03741 0.29259 0.74255 0.0
H418 H 0.06535 0.33941 0.77691 0.0
H419 H 0.03625 0.29018 0.8056 0.0
H420 H 0.1153 0.43286 0.88642 0.0
H421 H 0.04134 0.31586 0.95701 0.0
H422 H 0.0367 0.42303 0.80771 0.0
H423 H 0.06927 0.40671 0.7797 0.0
H424 H 0.09212 0.45093 0.81857 0.0
H425 H 0.94896 0.28133 0.89257 0.0
H426 H 0.9772 0.2637 0.92841 0.0
H427 H 0.9785 0.26096 0.86548 0.0
C428 C 0.69325 0.61617 0.44352 0.0
C429 C 0.71407 0.64252 0.40562 0.0
C430 C 0.67535 0.6285 0.47883 0.0
C431 C 0.67909 0.6684 0.47654 0.0
C432 C 0.69926 0.69475 0.43786 0.0
C433 C 0.71619 0.68133 0.40267 0.0
C434 C 0.65338 0.5993 0.51916 0.0
C435 C 0.70441 0.73778 0.43454 0.0
C436 C 0.61247 0.69673 0.55198 0.0
C437 C 0.63968 0.71781 0.58916 0.0
C438 C 0.62436 0.67935 0.51561 0.0
C439 C 0.66466 0.68393 0.51612 0.0
C440 C 0.69209 0.70486 0.55376 0.0
C441 C 0.67912 0.7212 0.59 0.0
C442 C 0.59406 0.65651 0.47643 0.0
C443 C 0.73557 0.71095 0.55518 0.0
H444 H 0.69112 0.58595 0.44577 0.0
H445 H 0.73229 0.70191 0.37352 0.0
H446 H 0.67124 0.61261 0.55192 0.0
H447 H 0.62203 0.59562 0.52432 0.0
H448 H 0.64987 0.56801 0.51361 0.0
H449 H 0.71925 0.75365 0.40116 0.0
H450 H 0.6737 0.73596 0.43751 0.0
H451 H 0.72396 0.75726 0.46401 0.0
H452 H 0.58183 0.69375 0.55132 0.0
H453 H 0.70043 0.73762 0.61849 0.0
H454 H 0.58994 0.62489 0.47223 0.0
H455 H 0.60664 0.67332 0.44294 0.0
H456 H 0.56306 0.65349 0.48267 0.0
H457 H 0.73416 0.68036 0.55366 0.0
H458 H 0.75285 0.72757 0.58725 0.0
H459 H 0.75347 0.72914 0.52418 0.0
C460 C 0.40174 0.09034 0.11091 0.0
C461 C 0.37513 0.08483 0.07328 0.0
C462 C 0.38933 0.06037 0.14657 0.0
C463 C 0.34915 0.02455 0.14488 0.0
C464 C 0.32242 0.01858 0.10668 0.0
C465 C 0.33587 0.04861 0.07116 0.0
C466 C 0.4189 0.06735 0.18643 0.0
C467 C 0.27907 0.98109 0.10401 0.0
C468 C 0.32013 0.92856 0.21866 0.0
C469 C 0.29928 0.93448 0.25623 0.0
C470 C 0.33784 0.95834 0.18283 0.0
C471 C 0.33387 0.99441 0.1843 0.0
C472 C 0.31329 0.00075 0.2224 0.0
C473 C 0.29656 0.97089 0.25807 0.0
C474 C 0.36022 0.95096 0.14308 0.0
C475 C 0.30786 0.03851 0.22484 0.0
H476 H 0.43226 0.11808 0.11252 0.0
H477 H 0.31506 0.04417 0.04227 0.0
H478 H 0.40587 0.07161 0.21956 0.0
H479 H 0.42263 0.03965 0.19096 0.0
H480 H 0.45013 0.09517 0.18076 0.0
H481 H 0.26265 0.98047 0.07122 0.0
H482 H 0.28052 0.95195 0.10614 0.0
H483 H 0.26031 0.98122 0.13421 0.0
H484 H 0.32264 0.90065 0.21724 0.0
H485 H 0.28038 0.97565 0.28691 0.0
H486 H 0.39186 0.97839 0.13867 0.0
H487 H 0.3431 0.94698 0.10987 0.0
H488 H 0.36314 0.92286 0.1488 0.0
H489 H 0.33862 0.06747 0.2229 0.0
H490 H 0.29196 0.03929 0.25747 0.0
H491 H 0.28925 0.03862 0.19445 0.0
C492 C 0.34685 0.25719 0.01453 0.0
C493 C 0.33453 0.22538 0.98107 0.0
C494 C 0.32396 0.27747 0.02165 0.0
C495 C 0.28788 0.26592 0.9945 0.0
C496 C 0.275 0.23371 0.96084 0.0
C497 C 0.29844 0.21372 0.95457 0.0
C498 C 0.33874 0.31164 0.05793 0.0
C499 C 0.2368 0.22079 0.93104 0.0
C500 C 0.21282 0.29985 0.03974 0.0
C501 C 0.2253 0.33652 0.01405 0.0
C502 C 0.23235 0.27603 0.03315 0.0
C503 C 0.26499 0.28913 2e-05 0.0
C504 C 0.27738 0.32582 0.97368 0.0
C505 C 0.25752 0.34907 0.98108 0.0
C506 C 0.21851 0.23718 0.06209 0.0
C507 C 0.31207 0.34086 0.93803 0.0
H508 H 0.37453 0.26638 0.03543 0.0
H509 H 0.28864 0.18917 0.92871 0.0
H510 H 0.34669 0.3416 0.04079 0.0
H511 H 0.31348 0.30456 0.08345 0.0
H512 H 0.36656 0.31581 0.07734 0.0
H513 H 0.23013 0.19427 0.90756 0.0
H514 H 0.20923 0.21176 0.95365 0.0
H515 H 0.24114 0.24749 0.9093 0.0
H516 H 0.18794 0.28985 0.0652 0.0
H517 H 0.26735 0.37722 0.96083 0.0
H518 H 0.2447 0.2408 0.08429 0.0
H519 H 0.20961 0.20999 0.03889 0.0
H520 H 0.19165 0.23036 0.08508 0.0
H521 H 0.34169 0.3483 0.95565 0.0
H522 H 0.31678 0.36907 0.91903 0.0
H523 H 0.30518 0.31594 0.91211 0.0
C524 C 0.76274 0.09966 0.68296 0.0
C525 C 0.79475 0.11949 0.64979 0.0
C526 C 0.74309 0.05656 0.69025 0.0
C527 C 0.75549 0.03246 0.66356 0.0
C528 C 0.78801 0.05217 0.63034 0.0
C529 C 0.80736 0.09553 0.6239 0.0
C530 C 0.70853 0.03672 0.72602 0.0
C531 C 0.80183 0.02735 0.60105 0.0
C532 C 0.72123 0.92323 0.70824 0.0
C533 C 0.68493 0.89926 0.68192 0.0
C534 C 0.74513 0.96664 0.70202 0.0
C535 C 0.73246 0.98636 0.66861 0.0
C536 C 0.69625 0.96223 0.64149 0.0
C537 C 0.67293 0.9191 0.64855 0.0
C538 C 0.78347 0.9915 0.73174 0.0
C539 C 0.6817 0.98207 0.60548 0.0
H540 H 0.75287 0.11783 0.70341 0.0
H541 H 0.8321 0.11056 0.5983 0.0
H542 H 0.67881 0.01477 0.70841 0.0
H543 H 0.71542 0.0184 0.75157 0.0
H544 H 0.70398 0.06012 0.74546 0.0
H545 H 0.82885 0.04755 0.57834 0.0
H546 H 0.81045 0.00866 0.62396 0.0
H547 H 0.7757 0.00515 0.57853 0.0
H548 H 0.73078 0.90819 0.73401 0.0
H549 H 0.6451 0.90094 0.62775 0.0
H550 H 0.77927 0.01362 0.75407 0.0
H551 H 0.81097 0.01027 0.70912 0.0
H552 H 0.79016 0.97131 0.75466 0.0
H553 H 0.67378 0.00397 0.62292 0.0
H554 H 0.6539 0.95866 0.58584 0.0
H555 H 0.70705 0.00043 0.58013 0.0
C556 C 0.09433 0.80793 0.37612 0.0
C557 C 0.11833 0.79538 0.3502 0.0
C558 C 0.05087 0.78812 0.37017 0.0
C559 C 0.03108 0.75515 0.33746 0.0
C560 C 0.05518 0.74267 0.31091 0.0
C561 C 0.09838 0.76282 0.31767 0.0
C562 C 0.02606 0.80205 0.39929 0.0
C563 C 0.03528 0.70764 0.27569 0.0
C564 C 0.91756 0.67273 0.35256 0.0
C565 C 0.89784 0.68452 0.3188 0.0
C566 C 0.9607 0.69609 0.35975 0.0
C567 C 0.98495 0.7321 0.33239 0.0
C568 C 0.96534 0.74454 0.29857 0.0
C569 C 0.92196 0.72063 0.29222 0.0
C570 C 0.98042 0.68177 0.39617 0.0
C571 C 0.9903 0.78266 0.26856 0.0
H572 H 0.10943 0.83306 0.40125 0.0
H573 H 0.11654 0.75292 0.29723 0.0
H574 H 0.00748 0.8107 0.37623 0.0
H575 H 0.00376 0.77598 0.4218 0.0
H576 H 0.04625 0.82909 0.42198 0.0
H577 H 0.05864 0.70276 0.25663 0.0
H578 H 0.01325 0.67818 0.29369 0.0
H579 H 0.01704 0.71428 0.24978 0.0
H580 H 0.89929 0.64503 0.37352 0.0
H581 H 0.90703 0.73004 0.26614 0.0
H582 H 0.99884 0.70734 0.42127 0.0
H583 H 0.00225 0.67359 0.37905 0.0
H584 H 0.95694 0.6542 0.41605 0.0
H585 H 0.00903 0.81032 0.29097 0.0
H586 H 0.97019 0.7892 0.24533 0.0
H587 H 0.01247 0.77827 0.24652 0.0
C588 C 0.96203 0.27401 0.41759 0.0
C589 C 0.97274 0.2531 0.45064 0.0
C590 C 0.97676 0.27923 0.37148 0.0
C591 C 0.00222 0.26247 0.35807 0.0
C592 C 0.01199 0.24012 0.39112 0.0
C593 C 0.99767 0.23631 0.4374 0.0
C594 C 0.96636 0.30405 0.33766 0.0
C595 C 0.03826 0.22105 0.37784 0.0
C596 C 0.01091 0.25443 0.22662 0.0
C597 C 0.04862 0.29088 0.21699 0.0
C598 C 0.99647 0.24348 0.27274 0.0
C599 C 0.01994 0.27012 0.30997 0.0
C600 C 0.05876 0.30625 0.30055 0.0
C601 C 0.07266 0.31616 0.25413 0.0
C602 C 0.95523 0.20441 0.2814 0.0
C603 C 0.08444 0.33581 0.33917 0.0
H604 H 0.94354 0.2878 0.42838 0.0
H605 H 0.00614 0.22049 0.46336 0.0
H606 H 0.99546 0.33199 0.32585 0.0
H607 H 0.95081 0.28514 0.30614 0.0
H608 H 0.94566 0.31442 0.35348 0.0
H609 H 0.04025 0.20188 0.40655 0.0
H610 H 0.02514 0.20117 0.34632 0.0
H611 H 0.07026 0.24602 0.36888 0.0
H612 H 0.99218 0.23496 0.19787 0.0
H613 H 0.10115 0.34502 0.24685 0.0
H614 H 0.93186 0.21294 0.29291 0.0
H615 H 0.95829 0.18572 0.30986 0.0
H616 H 0.94319 0.18471 0.24956 0.0
H617 H 0.06745 0.35073 0.35411 0.0
H618 H 0.11534 0.36068 0.32656 0.0
H619 H 0.08935 0.31861 0.36793 0.0
C620 C 0.76279 0.78631 0.89647 0.0
C621 C 0.72327 0.75763 0.8794 0.0
C622 C 0.77382 0.78384 0.943 0.0
C623 C 0.74435 0.75216 0.97274 0.0
C624 C 0.70397 0.72389 0.9556 0.0
C625 C 0.69403 0.72686 0.90898 0.0
C626 C 0.81719 0.81429 0.95995 0.0
C627 C 0.67145 0.68997 0.98623 0.0
C628 C 0.77328 0.70915 0.07763 0.0
C629 C 0.76347 0.72733 0.11493 0.0
C630 C 0.76998 0.71922 0.03104 0.0
C631 C 0.75558 0.7474 0.02147 0.0
C632 C 0.7473 0.76717 0.05893 0.0
C633 C 0.75142 0.75694 0.10517 0.0
C634 C 0.77935 0.69763 0.99205 0.0
C635 C 0.73154 0.79711 0.05026 0.0
H636 H 0.78529 0.80993 0.87313 0.0
H637 H 0.66345 0.7048 0.89535 0.0
H638 H 0.81566 0.8303 0.99206 0.0
H639 H 0.83372 0.79724 0.96929 0.0
H640 H 0.83577 0.83817 0.93314 0.0
H641 H 0.64104 0.67171 0.96805 0.0
H642 H 0.68235 0.66831 0.99728 0.0
H643 H 0.66657 0.70373 0.01843 0.0
H644 H 0.78113 0.68518 0.0844 0.0
H645 H 0.74364 0.77103 0.13381 0.0
H646 H 0.79906 0.72043 0.96491 0.0
H647 H 0.74981 0.67452 0.97499 0.0
H648 H 0.79549 0.68111 0.00499 0.0
H649 H 0.75114 0.82079 0.02383 0.0
H650 H 0.73109 0.81336 0.08275 0.0
H651 H 0.69937 0.77978 0.03607 0.0
C652 C 0.29406 0.00716 0.76676 0.0
C653 C 0.29014 0.04033 0.78455 0.0
C654 C 0.28476 0.99473 0.71995 0.0
C655 C 0.27093 0.01581 0.69008 0.0
C656 C 0.26518 0.04818 0.7082 0.0
C657 C 0.27476 0.06 0.75536 0.0
C658 C 0.29138 0.96009 0.70204 0.0
C659 C 0.25007 0.07108 0.67746 0.0
C660 C 0.29751 0.01432 0.56247 0.0
C661 C 0.2603 0.98124 0.5448 0.0
C662 C 0.30081 0.02687 0.60925 0.0
C663 C 0.26594 0.00601 0.6392 0.0
C664 C 0.22769 0.97378 0.62118 0.0
C665 C 0.22528 0.96183 0.57405 0.0
C666 C 0.3422 0.06135 0.62706 0.0
C667 C 0.18973 0.95112 0.652 0.0
H668 H 0.30576 0.99165 0.78913 0.0
H669 H 0.27018 0.08459 0.76923 0.0
H670 H 0.26281 0.93587 0.68437 0.0
H671 H 0.31681 0.97271 0.67572 0.0
H672 H 0.29969 0.94509 0.73047 0.0
H673 H 0.24388 0.09301 0.69771 0.0
H674 H 0.27387 0.08902 0.6504 0.0
H675 H 0.22114 0.04861 0.65889 0.0
H676 H 0.32469 0.02963 0.54005 0.0
H677 H 0.19602 0.93732 0.56026 0.0
H678 H 0.35498 0.0486 0.65329 0.0
H679 H 0.33807 0.08567 0.64481 0.0
H680 H 0.36545 0.07625 0.59856 0.0
H681 H 0.19544 0.93301 0.67898 0.0
H682 H 0.16148 0.92937 0.63179 0.0
H683 H 0.18355 0.97374 0.67065 0.0
loop_
_geom_bond_atom_site_label_1
_geom_bond_atom_site_label_2
_geom_bond_distance
_geom_bond_site_symmetry_2
_ccdc_geom_bond_type
Co0 O3 1.970 . S
Co0 N17 1.989 1_556 S
Co0 O25 1.967 . S
Co0 O32 1.920 . S
Co1 O4 1.966 . S
Co1 N10 2.022 . S
Co1 N18 1.993 . S
Co1 O26 1.941 1_554 S
C2 O3 1.258 1_554 S
C2 O4 1.263 . S
O3 Co0 1.970 . S
O3 C2 1.258 1_556 S
O4 Co1 1.966 . S
O4 C2 1.263 . S
C5 O6 1.235 . S
C5 O32 1.289 . S
O6 C5 1.235 . S
C7 C9 1.400 . S
C7 N10 1.351 . S
C7 C12 1.501 . S
C8 C9 1.387 . S
C8 N11 1.341 . S
C9 C7 1.400 . S
C9 C8 1.387 . S
N10 Co1 2.022 . S
N10 C7 1.351 . S
N10 N11 1.365 . S
N11 C8 1.341 . S
N11 N10 1.365 . S
N11 H31 0.862 . S
C12 C7 1.501 . S
C12 H13 0.961 . S
C12 H14 0.961 . S
C12 H15 0.960 . S
H13 C12 0.961 . S
H14 C12 0.961 . S
H15 C12 0.960 . S
C16 N17 1.342 . S
C16 C20 1.401 . S
C16 C21 1.499 . S
N17 Co0 1.989 1_554 S
N17 C16 1.342 . S
N17 N18 1.388 . S
N18 Co1 1.993 . S
N18 N17 1.388 . S
N18 C19 1.346 . S
C19 N18 1.346 . S
C19 C20 1.396 . S
C19 C29 1.510 . S
C20 C16 1.401 . S
C20 C19 1.396 . S
C21 C16 1.499 . S
C21 H22 0.959 1_554 S
C21 H23 0.960 . S
C21 H24 0.955 1_554 S
H22 C21 0.959 1_556 S
H23 C21 0.960 . S
H24 C21 0.955 1_556 S
O25 Co0 1.967 . S
O25 C33 1.258 . S
O26 Co1 1.941 1_556 S
O26 C33 1.266 . S
H27 C29 0.959 . S
H28 C29 0.961 . S
C29 C19 1.510 . S
C29 H27 0.959 . S
C29 H28 0.961 . S
C29 H30 0.960 . S
H30 C29 0.960 . S
H31 N11 0.862 . S
O32 Co0 1.920 . S
O32 C5 1.289 . S
C33 O25 1.258 . S
C33 O26 1.266 . S
Co34 O37 1.970 . S
Co34 N51 1.989 . S
Co34 O59 1.967 . S
Co34 O66 1.920 . S
Co35 O38 1.966 . S
Co35 N44 2.022 . S
Co35 N52 1.993 . S
Co35 O60 1.941 . S
C36 O37 1.258 . S
C36 O38 1.263 . S
O37 Co34 1.970 . S
O37 C36 1.258 . S
O38 Co35 1.966 . S
O38 C36 1.263 . S
C39 O40 1.235 . S
C39 O66 1.289 . S
O40 C39 1.235 . S
C41 C43 1.400 . S
C41 N44 1.351 . S
C41 C46 1.501 . S
C42 C43 1.387 . S
C42 N45 1.341 . S
C43 C41 1.400 . S
C43 C42 1.387 . S
N44 Co35 2.022 . S
N44 C41 1.351 . S
N44 N45 1.365 . S
N45 C42 1.341 . S
N45 N44 1.365 . S
N45 H65 0.862 . S
C46 C41 1.501 . S
C46 H47 0.961 . S
C46 H48 0.961 . S
C46 H49 0.960 . S
H47 C46 0.961 . S
H48 C46 0.961 . S
H49 C46 0.960 . S
C50 N51 1.342 . S
C50 C54 1.401 . S
C50 C55 1.499 . S
N51 Co34 1.989 . S
N51 C50 1.342 . S
N51 N52 1.388 . S
N52 Co35 1.993 . S
N52 N51 1.388 . S
N52 C53 1.346 . S
C53 N52 1.346 . S
C53 C54 1.396 . S
C53 C63 1.510 . S
C54 C50 1.401 . S
C54 C53 1.396 . S
C55 C50 1.499 . S
C55 H56 0.959 . S
C55 H57 0.960 . S
C55 H58 0.961 . S
H56 C55 0.959 . S
H57 C55 0.960 . S
H58 C55 0.961 . S
O59 Co34 1.967 . S
O59 C67 1.258 . S
O60 Co35 1.941 . S
O60 C67 1.266 . S
H61 C63 0.959 . S
H62 C63 0.961 . S
C63 C53 1.510 . S
C63 H61 0.959 . S
C63 H62 0.961 . S
C63 H64 0.960 . S
H64 C63 0.960 . S
H65 N45 0.862 . S
O66 Co34 1.920 . S
O66 C39 1.289 . S
C67 O59 1.258 . S
C67 O60 1.266 . S
Co68 O71 1.970 . S
Co68 N85 1.989 . S
Co68 O93 1.967 . S
Co68 O100 1.920 . S
Co69 O72 1.966 . S
Co69 N78 2.022 . S
Co69 N86 1.993 . S
Co69 O94 1.941 . S
C70 O71 1.258 . S
C70 O72 1.263 . S
O71 Co68 1.970 . S
O71 C70 1.258 . S
O72 Co69 1.966 . S
O72 C70 1.263 . S
C73 O74 1.235 . S
C73 O100 1.289 . S
O74 C73 1.235 . S
C75 C77 1.400 . S
C75 N78 1.351 . S
C75 C80 1.501 . S
C76 C77 1.387 . S
C76 N79 1.341 . S
C77 C75 1.400 . S
C77 C76 1.387 . S
N78 Co69 2.022 . S
N78 C75 1.351 . S
N78 N79 1.365 . S
N79 C76 1.341 . S
N79 N78 1.365 . S
N79 H99 0.862 . S
C80 C75 1.501 . S
C80 H81 0.961 . S
C80 H82 0.961 . S
C80 H83 0.960 . S
H81 C80 0.961 . S
H82 C80 0.961 . S
H83 C80 0.960 . S
C84 N85 1.342 . S
C84 C88 1.401 . S
C84 C89 1.499 . S
N85 Co68 1.989 . S
N85 C84 1.342 . S
N85 N86 1.388 . S
N86 Co69 1.993 . S
N86 N85 1.388 . S
N86 C87 1.346 . S
C87 N86 1.346 . S
C87 C88 1.396 . S
C87 C97 1.510 . S
C88 C84 1.401 . S
C88 C87 1.396 . S
C89 C84 1.499 . S
C89 H90 0.959 . S
C89 H91 0.960 . S
C89 H92 0.961 . S
H90 C89 0.959 . S
H91 C89 0.960 . S
H92 C89 0.961 . S
O93 Co68 1.967 . S
O93 C101 1.258 . S
O94 Co69 1.941 . S
O94 C101 1.266 . S
H95 C97 0.959 . S
H96 C97 0.961 . S
C97 C87 1.510 . S
C97 H95 0.959 . S
C97 H96 0.961 . S
C97 H98 0.960 . S
H98 C97 0.960 . S
H99 N79 0.862 . S
O100 Co68 1.920 . S
O100 C73 1.289 . S
C101 O93 1.258 . S
C101 O94 1.266 . S
Co102 O105 1.970 . S
Co102 N119 1.989 1_554 S
Co102 O127 1.967 . S
Co102 O134 1.920 . S
Co103 O106 1.966 . S
Co103 N112 2.022 . S
Co103 N120 1.993 . S
Co103 O128 1.941 1_556 S
C104 O105 1.258 1_556 S
C104 O106 1.263 . S
O105 Co102 1.970 . S
O105 C104 1.258 1_554 S
O106 Co103 1.966 . S
O106 C104 1.263 . S
C107 O108 1.235 . S
C107 O134 1.289 . S
O108 C107 1.235 . S
C109 C111 1.400 . S
C109 N112 1.351 . S
C109 C114 1.501 . S
C110 C111 1.387 . S
C110 N113 1.341 . S
C111 C109 1.400 . S
C111 C110 1.387 . S
N112 Co103 2.022 . S
N112 C109 1.351 . S
N112 N113 1.365 . S
N113 C110 1.341 . S
N113 N112 1.365 . S
N113 H133 0.862 . S
C114 C109 1.501 . S
C114 H115 0.961 . S
C114 H116 0.961 . S
C114 H117 0.960 . S
H115 C114 0.961 . S
H116 C114 0.961 . S
H117 C114 0.960 . S
C118 N119 1.342 . S
C118 C122 1.401 . S
C118 C123 1.499 . S
N119 Co102 1.989 1_556 S
N119 C118 1.342 . S
N119 N120 1.388 . S
N120 Co103 1.993 . S
N120 N119 1.388 . S
N120 C121 1.346 . S
C121 N120 1.346 . S
C121 C122 1.396 . S
C121 C131 1.510 . S
C122 C118 1.401 . S
C122 C121 1.396 . S
C123 C118 1.499 . S
C123 H124 0.959 1_556 S
C123 H125 0.960 . S
C123 H126 0.955 1_556 S
H124 C123 0.959 1_554 S
H125 C123 0.960 . S
H126 C123 0.955 1_554 S
O127 Co102 1.967 . S
O127 C135 1.258 . S
O128 Co103 1.941 1_554 S
O128 C135 1.266 . S
H129 C131 0.959 . S
H130 C131 0.961 . S
C131 C121 1.510 . S
C131 H129 0.959 . S
C131 H130 0.961 . S
C131 H132 0.960 . S
H132 C131 0.960 . S
H133 N113 0.862 . S
O134 Co102 1.920 . S
O134 C107 1.289 . S
C135 O127 1.258 . S
C135 O128 1.266 . S
Co136 O139 1.970 . S
Co136 N153 1.989 . S
Co136 O161 1.967 . S
Co136 O168 1.920 . S
Co137 O140 1.966 . S
Co137 N146 2.022 . S
Co137 N154 1.993 . S
Co137 O162 1.941 . S
C138 O139 1.258 . S
C138 O140 1.263 . S
O139 Co136 1.970 . S
O139 C138 1.258 . S
O140 Co137 1.966 . S
O140 C138 1.263 . S
C141 O142 1.235 . S
C141 O168 1.289 . S
O142 C141 1.235 . S
C143 C145 1.400 . S
C143 N146 1.351 . S
C143 C148 1.501 . S
C144 C145 1.387 . S
C144 N147 1.341 . S
C145 C143 1.400 . S
C145 C144 1.387 . S
N146 Co137 2.022 . S
N146 C143 1.351 . S
N146 N147 1.365 . S
N147 C144 1.341 . S
N147 N146 1.365 . S
N147 H167 0.862 . S
C148 C143 1.501 . S
C148 H149 0.961 . S
C148 H150 0.961 . S
C148 H151 0.960 . S
H149 C148 0.961 . S
H150 C148 0.961 . S
H151 C148 0.960 . S
C152 N153 1.342 . S
C152 C156 1.401 . S
C152 C157 1.499 . S
N153 Co136 1.989 . S
N153 C152 1.342 . S
N153 N154 1.388 . S
N154 Co137 1.993 . S
N154 N153 1.388 . S
N154 C155 1.346 . S
C155 N154 1.346 . S
C155 C156 1.396 . S
C155 C165 1.510 . S
C156 C152 1.401 . S
C156 C155 1.396 . S
C157 C152 1.499 . S
C157 H158 0.959 . S
C157 H159 0.960 . S
C157 H160 0.961 . S
H158 C157 0.959 . S
H159 C157 0.960 . S
H160 C157 0.961 . S
O161 Co136 1.967 . S
O161 C169 1.258 . S
O162 Co137 1.941 . S
O162 C169 1.266 . S
H163 C165 0.959 . S
H164 C165 0.961 . S
C165 C155 1.510 . S
C165 H163 0.959 . S
C165 H164 0.961 . S
C165 H166 0.960 . S
H166 C165 0.960 . S
H167 N147 0.862 . S
O168 Co136 1.920 . S
O168 C141 1.289 . S
C169 O161 1.258 . S
C169 O162 1.266 . S
Co170 O173 1.970 . S
Co170 N187 1.989 . S
Co170 O195 1.967 . S
Co170 O202 1.920 . S
Co171 O174 1.966 . S
Co171 N180 2.022 . S
Co171 N188 1.993 . S
Co171 O196 1.941 . S
C172 O173 1.258 . S
C172 O174 1.263 . S
O173 Co170 1.970 . S
O173 C172 1.258 . S
O174 Co171 1.966 . S
O174 C172 1.263 . S
C175 O176 1.235 . S
C175 O202 1.289 . S
O176 C175 1.235 . S
C177 C179 1.400 . S
C177 N180 1.351 . S
C177 C182 1.501 . S
C178 C179 1.387 . S
C178 N181 1.341 . S
C179 C177 1.400 . S
C179 C178 1.387 . S
N180 Co171 2.022 . S
N180 C177 1.351 . S
N180 N181 1.365 . S
N181 C178 1.341 . S
N181 N180 1.365 . S
N181 H201 0.862 . S
C182 C177 1.501 . S
C182 H183 0.961 . S
C182 H184 0.961 . S
C182 H185 0.960 . S
H183 C182 0.961 . S
H184 C182 0.961 . S
H185 C182 0.960 . S
C186 N187 1.342 . S
C186 C190 1.401 . S
C186 C191 1.499 . S
N187 Co170 1.989 . S
N187 C186 1.342 . S
N187 N188 1.388 . S
N188 Co171 1.993 . S
N188 N187 1.388 . S
N188 C189 1.346 . S
C189 N188 1.346 . S
C189 C190 1.396 . S
C189 C199 1.510 . S
C190 C186 1.401 . S
C190 C189 1.396 . S
C191 C186 1.499 . S
C191 H192 0.959 . S
C191 H193 0.960 . S
C191 H194 0.961 . S
H192 C191 0.959 . S
H193 C191 0.960 . S
H194 C191 0.961 . S
O195 Co170 1.967 . S
O195 C203 1.258 . S
O196 Co171 1.941 . S
O196 C203 1.266 . S
H197 C199 0.959 . S
H198 C199 0.961 . S
C199 C189 1.510 . S
C199 H197 0.959 . S
C199 H198 0.961 . S
C199 H200 0.960 . S
H200 C199 0.960 . S
H201 N181 0.862 . S
O202 Co170 1.920 . S
O202 C175 1.289 . S
C203 O195 1.258 . S
C203 O196 1.266 . S
C204 C205 1.391 . S
C204 C206 1.394 . S
C204 H220 0.931 . S
C205 C204 1.391 . S
C205 C209 1.376 . S
C206 C204 1.394 . S
C206 C207 1.369 . S
C206 C210 1.531 . S
C207 C206 1.369 . S
C207 C208 1.410 . S
C207 C215 1.503 . S
C208 C207 1.410 . S
C208 C209 1.392 . S
C208 C211 1.511 . S
C209 C205 1.376 . S
C209 C208 1.392 . S
C209 H221 0.929 . S
C210 C206 1.531 . S
C210 H222 0.960 . S
C210 H223 0.962 . S
C210 H224 0.960 . S
C211 C208 1.511 . S
C211 H225 0.961 . S
C211 H226 0.961 . S
C211 H227 0.961 . S
C212 C213 1.370 . S
C212 C214 1.363 . S
C212 H228 0.931 . S
C213 C212 1.370 . S
C213 C217 1.408 . S
C214 C212 1.363 . S
C214 C215 1.370 . S
C214 C218 1.524 . S
C215 C207 1.503 . S
C215 C214 1.370 . S
C215 C216 1.403 . S
C216 C215 1.403 . S
C216 C217 1.404 . S
C216 C219 1.539 . S
C217 C213 1.408 . S
C217 C216 1.404 . S
C217 H229 0.930 . S
C218 C214 1.524 . S
C218 H230 0.956 . S
C218 H231 0.961 . S
C218 H232 0.961 . S
C219 C216 1.539 . S
C219 H233 0.958 . S
C219 H234 0.961 . S
C219 H235 0.960 . S
H220 C204 0.931 . S
H221 C209 0.929 . S
H222 C210 0.960 . S
H223 C210 0.962 . S
H224 C210 0.960 . S
H225 C211 0.961 . S
H226 C211 0.961 . S
H227 C211 0.961 . S
H228 C212 0.931 . S
H229 C217 0.930 . S
H230 C218 0.956 . S
H231 C218 0.961 . S
H232 C218 0.961 . S
H233 C219 0.958 . S
H234 C219 0.961 . S
H235 C219 0.960 . S
C236 C237 1.391 . S
C236 C238 1.394 . S
C236 H252 0.931 . S
C237 C236 1.391 . S
C237 C241 1.376 . S
C238 C236 1.394 . S
C238 C239 1.369 . S
C238 C242 1.531 . S
C239 C238 1.369 . S
C239 C240 1.410 . S
C239 C247 1.503 . S
C240 C239 1.410 . S
C240 C241 1.392 . S
C240 C243 1.511 . S
C241 C237 1.376 . S
C241 C240 1.392 . S
C241 H253 0.929 . S
C242 C238 1.531 . S
C242 H254 0.960 . S
C242 H255 0.962 . S
C242 H256 0.960 . S
C243 C240 1.511 . S
C243 H257 0.961 . S
C243 H258 0.961 . S
C243 H259 0.961 . S
C244 C245 1.370 . S
C244 C246 1.363 . S
C244 H260 0.931 . S
C245 C244 1.370 . S
C245 C249 1.408 . S
C246 C244 1.363 . S
C246 C247 1.370 . S
C246 C250 1.524 . S
C247 C239 1.503 . S
C247 C246 1.370 . S
C247 C248 1.403 . S
C248 C247 1.403 . S
C248 C249 1.404 . S
C248 C251 1.539 . S
C249 C245 1.408 . S
C249 C248 1.404 . S
C249 H261 0.930 . S
C250 C246 1.524 . S
C250 H262 0.956 . S
C250 H263 0.961 . S
C250 H264 0.961 . S
C251 C248 1.539 . S
C251 H265 0.958 . S
C251 H266 0.961 . S
C251 H267 0.960 . S
H252 C236 0.931 . S
H253 C241 0.929 . S
H254 C242 0.960 . S
H255 C242 0.962 . S
H256 C242 0.960 . S
H257 C243 0.961 . S
H258 C243 0.961 . S
H259 C243 0.961 . S
H260 C244 0.931 . S
H261 C249 0.930 . S
H262 C250 0.956 . S
H263 C250 0.961 . S
H264 C250 0.961 . S
H265 C251 0.958 . S
H266 C251 0.961 . S
H267 C251 0.960 . S
C268 C269 1.391 . S
C268 C270 1.394 . S
C268 H284 0.931 . S
C269 C268 1.391 . S
C269 C273 1.376 . S
C270 C268 1.394 . S
C270 C271 1.369 . S
C270 C274 1.531 . S
C271 C270 1.369 . S
C271 C272 1.410 . S
C271 C279 1.503 . S
C272 C271 1.410 . S
C272 C273 1.392 . S
C272 C275 1.511 . S
C273 C269 1.376 . S
C273 C272 1.392 . S
C273 H285 0.929 . S
C274 C270 1.531 . S
C274 H286 0.960 . S
C274 H287 0.962 . S
C274 H288 0.960 . S
C275 C272 1.511 . S
C275 H289 0.961 . S
C275 H290 0.961 . S
C275 H291 0.961 . S
C276 C277 1.370 . S
C276 C278 1.363 . S
C276 H292 0.931 . S
C277 C276 1.370 . S
C277 C281 1.408 . S
C278 C276 1.363 . S
C278 C279 1.370 . S
C278 C282 1.524 . S
C279 C271 1.503 . S
C279 C278 1.370 . S
C279 C280 1.403 . S
C280 C279 1.403 . S
C280 C281 1.404 . S
C280 C283 1.539 . S
C281 C277 1.408 . S
C281 C280 1.404 . S
C281 H293 0.930 . S
C282 C278 1.524 . S
C282 H294 0.956 . S
C282 H295 0.961 . S
C282 H296 0.961 . S
C283 C280 1.539 . S
C283 H297 0.958 . S
C283 H298 0.961 . S
C283 H299 0.960 . S
H284 C268 0.931 . S
H285 C273 0.929 . S
H286 C274 0.960 . S
H287 C274 0.962 . S
H288 C274 0.960 . S
H289 C275 0.961 . S
H290 C275 0.961 . S
H291 C275 0.961 . S
H292 C276 0.931 . S
H293 C281 0.930 . S
H294 C282 0.956 . S
H295 C282 0.961 . S
H296 C282 0.961 . S
H297 C283 0.958 . S
H298 C283 0.961 . S
H299 C283 0.960 . S
C300 C301 1.391 . S
C300 C302 1.394 . S
C300 H316 0.931 . S
C301 C300 1.391 . S
C301 C305 1.376 . S
C302 C300 1.394 . S
C302 C303 1.369 . S
C302 C306 1.531 . S
C303 C302 1.369 . S
C303 C304 1.410 . S
C303 C311 1.503 . S
C304 C303 1.410 . S
C304 C305 1.392 . S
C304 C307 1.511 . S
C305 C301 1.376 . S
C305 C304 1.392 . S
C305 H317 0.929 . S
C306 C302 1.531 . S
C306 H318 0.960 . S
C306 H319 0.962 . S
C306 H320 0.960 . S
C307 C304 1.511 . S
C307 H321 0.961 . S
C307 H322 0.961 . S
C307 H323 0.961 . S
C308 C309 1.370 . S
C308 C310 1.363 . S
C308 H324 0.931 . S
C309 C308 1.370 . S
C309 C313 1.408 . S
C310 C308 1.363 . S
C310 C311 1.370 . S
C310 C314 1.524 . S
C311 C303 1.503 . S
C311 C310 1.370 . S
C311 C312 1.403 . S
C312 C311 1.403 . S
C312 C313 1.404 . S
C312 C315 1.539 . S
C313 C309 1.408 . S
C313 C312 1.404 . S
C313 H325 0.930 . S
C314 C310 1.524 . S
C314 H326 0.956 . S
C314 H327 0.961 . S
C314 H328 0.961 . S
C315 C312 1.539 . S
C315 H329 0.958 . S
C315 H330 0.961 . S
C315 H331 0.960 . S
H316 C300 0.931 . S
H317 C305 0.929 . S
H318 C306 0.960 . S
H319 C306 0.962 . S
H320 C306 0.960 . S
H321 C307 0.961 . S
H322 C307 0.961 . S
H323 C307 0.961 . S
H324 C308 0.931 . S
H325 C313 0.930 . S
H326 C314 0.956 . S
H327 C314 0.961 . S
H328 C314 0.961 . S
H329 C315 0.958 . S
H330 C315 0.961 . S
H331 C315 0.960 . S
C332 C333 1.391 . S
C332 C334 1.394 . S
C332 H348 0.931 . S
C333 C332 1.391 . S
C333 C337 1.376 . S
C334 C332 1.394 . S
C334 C335 1.369 . S
C334 C338 1.531 . S
C335 C334 1.369 . S
C335 C336 1.410 . S
C335 C343 1.503 . S
C336 C335 1.410 . S
C336 C337 1.392 . S
C336 C339 1.511 . S
C337 C333 1.376 . S
C337 C336 1.392 . S
C337 H349 0.929 . S
C338 C334 1.531 . S
C338 H350 0.960 . S
C338 H351 0.962 . S
C338 H352 0.960 . S
C339 C336 1.511 . S
C339 H353 0.961 . S
C339 H354 0.961 . S
C339 H355 0.961 . S
C340 C341 1.370 . S
C340 C342 1.363 . S
C340 H356 0.931 . S
C341 C340 1.370 . S
C341 C345 1.408 . S
C342 C340 1.363 . S
C342 C343 1.370 . S
C342 C346 1.524 . S
C343 C335 1.503 . S
C343 C342 1.370 . S
C343 C344 1.403 . S
C344 C343 1.403 . S
C344 C345 1.404 . S
C344 C347 1.539 . S
C345 C341 1.408 . S
C345 C344 1.404 . S
C345 H357 0.930 . S
C346 C342 1.524 . S
C346 H358 0.956 . S
C346 H359 0.961 . S
C346 H360 0.961 . S
C347 C344 1.539 . S
C347 H361 0.958 . S
C347 H362 0.961 . S
C347 H363 0.960 . S
H348 C332 0.931 . S
H349 C337 0.929 . S
H350 C338 0.960 . S
H351 C338 0.962 . S
H352 C338 0.960 . S
H353 C339 0.961 . S
H354 C339 0.961 . S
H355 C339 0.961 . S
H356 C340 0.931 . S
H357 C345 0.930 . S
H358 C346 0.956 . S
H359 C346 0.961 . S
H360 C346 0.961 . S
H361 C347 0.958 . S
H362 C347 0.961 . S
H363 C347 0.960 . S
C364 C365 1.391 . S
C364 C366 1.394 . S
C364 H380 0.931 . S
C365 C364 1.391 . S
C365 C369 1.376 . S
C366 C364 1.394 . S
C366 C367 1.369 . S
C366 C370 1.531 . S
C367 C366 1.369 . S
C367 C368 1.410 . S
C367 C375 1.503 . S
C368 C367 1.410 . S
C368 C369 1.392 . S
C368 C371 1.511 . S
C369 C365 1.376 . S
C369 C368 1.392 . S
C369 H381 0.929 . S
C370 C366 1.531 . S
C370 H382 0.960 . S
C370 H383 0.962 . S
C370 H384 0.960 . S
C371 C368 1.511 . S
C371 H385 0.961 . S
C371 H386 0.961 . S
C371 H387 0.961 . S
C372 C373 1.370 . S
C372 C374 1.363 . S
C372 H388 0.931 . S
C373 C372 1.370 . S
C373 C377 1.408 . S
C374 C372 1.363 . S
C374 C375 1.370 . S
C374 C378 1.524 . S
C375 C367 1.503 . S
C375 C374 1.370 . S
C375 C376 1.403 . S
C376 C375 1.403 . S
C376 C377 1.404 . S
C376 C379 1.539 . S
C377 C373 1.408 . S
C377 C376 1.404 . S
C377 H389 0.930 . S
C378 C374 1.524 . S
C378 H390 0.956 . S
C378 H391 0.961 . S
C378 H392 0.961 . S
C379 C376 1.539 . S
C379 H393 0.958 . S
C379 H394 0.961 . S
C379 H395 0.960 . S
H380 C364 0.931 . S
H381 C369 0.929 . S
H382 C370 0.960 . S
H383 C370 0.962 . S
H384 C370 0.960 . S
H385 C371 0.961 . S
H386 C371 0.961 . S
H387 C371 0.961 . S
H388 C372 0.931 . S
H389 C377 0.930 . S
H390 C378 0.956 . S
H391 C378 0.961 . S
H392 C378 0.961 . S
H393 C379 0.958 . S
H394 C379 0.961 . S
H395 C379 0.960 . S
C396 C397 1.391 . S
C396 C398 1.394 . S
C396 H412 0.931 . S
C397 C396 1.391 . S
C397 C401 1.376 . S
C398 C396 1.394 . S
C398 C399 1.369 . S
C398 C402 1.531 . S
C399 C398 1.369 . S
C399 C400 1.410 . S
C399 C407 1.503 1_655 S
C400 C399 1.410 . S
C400 C401 1.392 . S
C400 C403 1.511 1_655 S
C401 C397 1.376 . S
C401 C400 1.392 . S
C401 H413 0.929 . S
C402 C398 1.531 . S
C402 H414 0.960 . S
C402 H415 0.962 . S
C402 H416 0.960 . S
C403 C400 1.511 1_455 S
C403 H417 0.961 . S
C403 H418 0.961 . S
C403 H419 0.961 . S
C404 C405 1.370 . S
C404 C406 1.363 . S
C404 H420 0.931 . S
C405 C404 1.370 . S
C405 C409 1.408 . S
C406 C404 1.363 . S
C406 C407 1.370 . S
C406 C410 1.524 . S
C407 C399 1.503 1_455 S
C407 C406 1.370 . S
C407 C408 1.403 . S
C408 C407 1.403 . S
C408 C409 1.404 . S
C408 C411 1.539 1_455 S
C409 C405 1.408 . S
C409 C408 1.404 . S
C409 H421 0.930 . S
C410 C406 1.524 . S
C410 H422 0.956 . S
C410 H423 0.961 . S
C410 H424 0.961 . S
C411 C408 1.539 1_655 S
C411 H425 0.958 . S
C411 H426 0.961 1_655 S
C411 H427 0.960 . S
H412 C396 0.931 . S
H413 C401 0.929 . S
H414 C402 0.960 . S
H415 C402 0.962 . S
H416 C402 0.960 . S
H417 C403 0.961 . S
H418 C403 0.961 . S
H419 C403 0.961 . S
H420 C404 0.931 . S
H421 C409 0.930 . S
H422 C410 0.956 . S
H423 C410 0.961 . S
H424 C410 0.961 . S
H425 C411 0.958 . S
H426 C411 0.961 1_455 S
H427 C411 0.960 . S
C428 C429 1.391 . S
C428 C430 1.394 . S
C428 H444 0.931 . S
C429 C428 1.391 . S
C429 C433 1.376 . S
C430 C428 1.394 . S
C430 C431 1.369 . S
C430 C434 1.531 . S
C431 C430 1.369 . S
C431 C432 1.410 . S
C431 C439 1.503 . S
C432 C431 1.410 . S
C432 C433 1.392 . S
C432 C435 1.511 . S
C433 C429 1.376 . S
C433 C432 1.392 . S
C433 H445 0.929 . S
C434 C430 1.531 . S
C434 H446 0.960 . S
C434 H447 0.962 . S
C434 H448 0.960 . S
C435 C432 1.511 . S
C435 H449 0.961 . S
C435 H450 0.961 . S
C435 H451 0.961 . S
C436 C437 1.370 . S
C436 C438 1.363 . S
C436 H452 0.931 . S
C437 C436 1.370 . S
C437 C441 1.408 . S
C438 C436 1.363 . S
C438 C439 1.370 . S
C438 C442 1.524 . S
C439 C431 1.503 . S
C439 C438 1.370 . S
C439 C440 1.403 . S
C440 C439 1.403 . S
C440 C441 1.404 . S
C440 C443 1.539 . S
C441 C437 1.408 . S
C441 C440 1.404 . S
C441 H453 0.930 . S
C442 C438 1.524 . S
C442 H454 0.956 . S
C442 H455 0.961 . S
C442 H456 0.961 . S
C443 C440 1.539 . S
C443 H457 0.958 . S
C443 H458 0.961 . S
C443 H459 0.960 . S
H444 C428 0.931 . S
H445 C433 0.929 . S
H446 C434 0.960 . S
H447 C434 0.962 . S
H448 C434 0.960 . S
H449 C435 0.961 . S
H450 C435 0.961 . S
H451 C435 0.961 . S
H452 C436 0.931 . S
H453 C441 0.930 . S
H454 C442 0.956 . S
H455 C442 0.961 . S
H456 C442 0.961 . S
H457 C443 0.958 . S
H458 C443 0.961 . S
H459 C443 0.960 . S
C460 C461 1.391 . S
C460 C462 1.394 . S
C460 H476 0.931 . S
C461 C460 1.391 . S
C461 C465 1.376 . S
C462 C460 1.394 . S
C462 C463 1.369 . S
C462 C466 1.531 . S
C463 C462 1.369 . S
C463 C464 1.410 . S
C463 C471 1.503 1_545 S
C464 C463 1.410 . S
C464 C465 1.392 . S
C464 C467 1.511 1_545 S
C465 C461 1.376 . S
C465 C464 1.392 . S
C465 H477 0.929 . S
C466 C462 1.531 . S
C466 H478 0.960 . S
C466 H479 0.962 . S
C466 H480 0.960 . S
C467 C464 1.511 1_565 S
C467 H481 0.961 . S
C467 H482 0.961 . S
C467 H483 0.961 1_565 S
C468 C469 1.370 . S
C468 C470 1.363 . S
C468 H484 0.931 . S
C469 C468 1.370 . S
C469 C473 1.408 . S
C470 C468 1.363 . S
C470 C471 1.370 . S
C470 C474 1.524 . S
C471 C463 1.503 1_565 S
C471 C470 1.370 . S
C471 C472 1.403 . S
C472 C471 1.403 . S
C472 C473 1.404 . S
C472 C475 1.539 1_565 S
C473 C469 1.408 . S
C473 C472 1.404 . S
C473 H485 0.930 . S
C474 C470 1.524 . S
C474 H486 0.956 . S
C474 H487 0.961 . S
C474 H488 0.961 . S
C475 C472 1.539 1_545 S
C475 H489 0.958 . S
C475 H490 0.961 . S
C475 H491 0.960 . S
H476 C460 0.931 . S
H477 C465 0.929 . S
H478 C466 0.960 . S
H479 C466 0.962 . S
H480 C466 0.960 . S
H481 C467 0.961 . S
H482 C467 0.961 . S
H483 C467 0.961 1_545 S
H484 C468 0.931 . S
H485 C473 0.930 . S
H486 C474 0.956 . S
H487 C474 0.961 . S
H488 C474 0.961 . S
H489 C475 0.958 . S
H490 C475 0.961 . S
H491 C475 0.960 . S
C492 C493 1.391 1_554 S
C492 C494 1.394 . S
C492 H508 0.931 . S
C493 C492 1.391 1_556 S
C493 C497 1.376 . S
C494 C492 1.394 . S
C494 C495 1.356 1_554 S
C494 C498 1.531 . S
C495 C494 1.356 1_556 S
C495 C496 1.424 . S
C495 C503 1.502 1_556 S
C496 C495 1.424 . S
C496 C497 1.392 . S
C496 C499 1.511 . S
C497 C493 1.376 . S
C497 C496 1.392 . S
C497 H509 0.929 . S
C498 C494 1.531 . S
C498 H510 0.960 . S
C498 H511 0.962 . S
C498 H512 0.960 . S
C499 C496 1.511 . S
C499 H513 0.961 . S
C499 H514 0.961 . S
C499 H515 0.961 . S
C500 C501 1.370 . S
C500 C502 1.364 . S
C500 H516 0.931 . S
C501 C500 1.370 . S
C501 C505 1.408 . S
C502 C500 1.364 . S
C502 C503 1.371 . S
C502 C506 1.524 1_554 S
C503 C495 1.502 1_554 S
C503 C502 1.371 . S
C503 C504 1.403 . S
C504 C503 1.403 . S
C504 C505 1.404 . S
C504 C507 1.539 . S
C505 C501 1.408 . S
C505 C504 1.404 . S
C505 H517 0.930 . S
C506 C502 1.524 1_556 S
C506 H518 0.956 1_556 S
C506 H519 0.961 . S
C506 H520 0.961 . S
C507 C504 1.539 . S
C507 H521 0.958 . S
C507 H522 0.961 . S
C507 H523 0.946 1_554 S
H508 C492 0.931 . S
H509 C497 0.929 . S
H510 C498 0.960 . S
H511 C498 0.962 . S
H512 C498 0.960 . S
H513 C499 0.961 . S
H514 C499 0.961 . S
H515 C499 0.961 . S
H516 C500 0.931 . S
H517 C505 0.930 . S
H518 C506 0.956 1_554 S
H519 C506 0.961 . S
H520 C506 0.961 . S
H521 C507 0.958 . S
H522 C507 0.961 . S
H523 C507 0.946 1_556 S
C524 C525 1.391 . S
C524 C526 1.394 . S
C524 H540 0.931 . S
C525 C524 1.391 . S
C525 C529 1.376 . S
C526 C524 1.394 . S
C526 C527 1.369 . S
C526 C530 1.531 . S
C527 C526 1.369 . S
C527 C528 1.410 . S
C527 C535 1.503 1_545 S
C528 C527 1.410 . S
C528 C529 1.392 . S
C528 C531 1.511 . S
C529 C525 1.376 . S
C529 C528 1.392 . S
C529 H541 0.929 . S
C530 C526 1.531 . S
C530 H542 0.960 . S
C530 H543 0.962 . S
C530 H544 0.960 . S
C531 C528 1.511 . S
C531 H545 0.961 . S
C531 H546 0.961 1_545 S
C531 H547 0.961 . S
C532 C533 1.370 . S
C532 C534 1.363 . S
C532 H548 0.931 . S
C533 C532 1.370 . S
C533 C537 1.408 . S
C534 C532 1.363 . S
C534 C535 1.370 . S
C534 C538 1.524 . S
C535 C527 1.503 1_565 S
C535 C534 1.370 . S
C535 C536 1.403 . S
C536 C535 1.403 . S
C536 C537 1.404 . S
C536 C539 1.539 . S
C537 C533 1.408 . S
C537 C536 1.404 . S
C537 H549 0.930 . S
C538 C534 1.524 . S
C538 H550 0.956 1_565 S
C538 H551 0.961 1_565 S
C538 H552 0.961 . S
C539 C536 1.539 . S
C539 H553 0.958 . S
C539 H554 0.961 . S
C539 H555 0.960 1_565 S
H540 C524 0.931 . S
H541 C529 0.929 . S
H542 C530 0.960 . S
H543 C530 0.962 . S
H544 C530 0.960 . S
H545 C531 0.961 . S
H546 C531 0.961 1_565 S
H547 C531 0.961 . S
H548 C532 0.931 . S
H549 C537 0.930 . S
H550 C538 0.956 1_545 S
H551 C538 0.961 1_545 S
H552 C538 0.961 . S
H553 C539 0.958 . S
H554 C539 0.961 . S
H555 C539 0.960 1_545 S
C556 C557 1.391 . S
C556 C558 1.394 . S
C556 H572 0.931 . S
C557 C556 1.391 . S
C557 C561 1.376 . S
C558 C556 1.394 . S
C558 C559 1.369 . S
C558 C562 1.531 . S
C559 C558 1.369 . S
C559 C560 1.410 . S
C559 C567 1.503 1_455 S
C560 C559 1.410 . S
C560 C561 1.392 . S
C560 C563 1.511 . S
C561 C557 1.376 . S
C561 C560 1.392 . S
C561 H573 0.929 . S
C562 C558 1.531 . S
C562 H574 0.960 . S
C562 H575 0.962 . S
C562 H576 0.960 . S
C563 C560 1.511 . S
C563 H577 0.961 . S
C563 H578 0.961 . S
C563 H579 0.961 . S
C564 C565 1.370 . S
C564 C566 1.363 . S
C564 H580 0.931 . S
C565 C564 1.370 . S
C565 C569 1.408 . S
C566 C564 1.363 . S
C566 C567 1.370 . S
C566 C570 1.524 . S
C567 C559 1.503 1_655 S
C567 C566 1.370 . S
C567 C568 1.403 . S
C568 C567 1.403 . S
C568 C569 1.404 . S
C568 C571 1.539 . S
C569 C565 1.408 . S
C569 C568 1.404 . S
C569 H581 0.930 . S
C570 C566 1.524 . S
C570 H582 0.956 . S
C570 H583 0.961 1_655 S
C570 H584 0.961 . S
C571 C568 1.539 . S
C571 H585 0.958 . S
C571 H586 0.961 . S
C571 H587 0.960 1_655 S
H572 C556 0.931 . S
H573 C561 0.929 . S
H574 C562 0.960 . S
H575 C562 0.962 . S
H576 C562 0.960 . S
H577 C563 0.961 . S
H578 C563 0.961 . S
H579 C563 0.961 . S
H580 C564 0.931 . S
H581 C569 0.930 . S
H582 C570 0.956 . S
H583 C570 0.961 1_455 S
H584 C570 0.961 . S
H585 C571 0.958 . S
H586 C571 0.961 . S
H587 C571 0.960 1_455 S
C588 C589 1.391 . S
C588 C590 1.394 . S
C588 H604 0.931 . S
C589 C588 1.391 . S
C589 C593 1.376 . S
C590 C588 1.394 . S
C590 C591 1.369 1_655 S
C590 C594 1.531 1_655 S
C591 C590 1.369 1_455 S
C591 C592 1.410 1_455 S
C591 C599 1.503 . S
C592 C591 1.410 1_655 S
C592 C593 1.392 . S
C592 C595 1.511 1_655 S
C593 C589 1.376 . S
C593 C592 1.392 . S
C593 H605 0.929 . S
C594 C590 1.531 1_455 S
C594 H606 0.960 . S
C594 H607 0.962 1_455 S
C594 H608 0.960 . S
C595 C592 1.511 1_455 S
C595 H609 0.961 1_455 S
C595 H610 0.961 . S
C595 H611 0.961 . S
C596 C597 1.370 . S
C596 C598 1.363 1_455 S
C596 H612 0.931 1_455 S
C597 C596 1.370 . S
C597 C601 1.408 . S
C598 C596 1.363 1_655 S
C598 C599 1.370 1_655 S
C598 C602 1.524 . S
C599 C591 1.503 . S
C599 C598 1.370 1_455 S
C599 C600 1.403 . S
C600 C599 1.403 . S
C600 C601 1.404 . S
C600 C603 1.539 . S
C601 C597 1.408 . S
C601 C600 1.404 . S
C601 H613 0.930 . S
C602 C598 1.524 . S
C602 H614 0.956 . S
C602 H615 0.961 . S
C602 H616 0.961 . S
C603 C600 1.539 . S
C603 H617 0.958 . S
C603 H618 0.961 . S
C603 H619 0.960 . S
H604 C588 0.931 . S
H605 C593 0.929 . S
H606 C594 0.960 . S
H607 C594 0.962 1_655 S
H608 C594 0.960 . S
H609 C595 0.961 1_655 S
H610 C595 0.961 . S
H611 C595 0.961 . S
H612 C596 0.931 1_655 S
H613 C601 0.930 . S
H614 C602 0.956 . S
H615 C602 0.961 . S
H616 C602 0.961 . S
H617 C603 0.958 . S
H618 C603 0.961 . S
H619 C603 0.960 . S
C620 C621 1.391 . S
C620 C622 1.394 . S
C620 H636 0.931 . S
C621 C620 1.391 . S
C621 C625 1.376 . S
C622 C620 1.394 . S
C622 C623 1.369 . S
C622 C626 1.531 . S
C623 C622 1.369 . S
C623 C624 1.410 . S
C623 C631 1.503 1_556 S
C624 C623 1.410 . S
C624 C625 1.392 . S
C624 C627 1.511 . S
C625 C621 1.376 . S
C625 C624 1.392 . S
C625 H637 0.929 . S
C626 C622 1.531 . S
C626 H638 0.960 1_556 S
C626 H639 0.962 . S
C626 H640 0.960 . S
C627 C624 1.511 . S
C627 H641 0.961 . S
C627 H642 0.961 1_556 S
C627 H643 0.961 1_556 S
C628 C629 1.370 . S
C628 C630 1.363 . S
C628 H644 0.931 . S
C629 C628 1.370 . S
C629 C633 1.408 . S
C630 C628 1.363 . S
C630 C631 1.370 . S
C630 C634 1.524 1_554 S
C631 C623 1.503 1_554 S
C631 C630 1.370 . S
C631 C632 1.403 . S
C632 C631 1.403 . S
C632 C633 1.404 . S
C632 C635 1.539 . S
C633 C629 1.408 . S
C633 C632 1.404 . S
C633 H645 0.930 . S
C634 C630 1.524 1_556 S
C634 H646 0.956 . S
C634 H647 0.961 . S
C634 H648 0.961 . S
C635 C632 1.539 . S
C635 H649 0.958 . S
C635 H650 0.961 . S
C635 H651 0.960 . S
H636 C620 0.931 . S
H637 C625 0.929 . S
H638 C626 0.960 1_554 S
H639 C626 0.962 . S
H640 C626 0.960 . S
H641 C627 0.961 . S
H642 C627 0.961 1_554 S
H643 C627 0.961 1_554 S
H644 C628 0.931 . S
H645 C633 0.930 . S
H646 C634 0.956 . S
H647 C634 0.961 . S
H648 C634 0.961 . S
H649 C635 0.958 . S
H650 C635 0.961 . S
H651 C635 0.960 . S
C652 C653 1.391 . S
C652 C654 1.394 1_545 S
C652 H668 0.931 . S
C653 C652 1.391 . S
C653 C657 1.376 . S
C654 C652 1.394 1_565 S
C654 C655 1.369 1_565 S
C654 C658 1.531 . S
C655 C654 1.369 1_545 S
C655 C656 1.410 . S
C655 C663 1.503 1_545 S
C656 C655 1.410 . S
C656 C657 1.392 . S
C656 C659 1.511 . S
C657 C653 1.376 . S
C657 C656 1.392 . S
C657 H669 0.929 . S
C658 C654 1.531 . S
C658 H670 0.960 . S
C658 H671 0.962 . S
C658 H672 0.960 . S
C659 C656 1.511 . S
C659 H673 0.961 . S
C659 H674 0.961 . S
C659 H675 0.961 . S
C660 C661 1.370 . S
C660 C662 1.363 1_565 S
C660 H676 0.931 . S
C661 C660 1.370 . S
C661 C665 1.408 . S
C662 C660 1.363 1_545 S
C662 C663 1.370 1_545 S
C662 C666 1.524 . S
C663 C655 1.503 1_565 S
C663 C662 1.370 1_565 S
C663 C664 1.403 . S
C664 C663 1.403 . S
C664 C665 1.404 . S
C664 C667 1.539 . S
C665 C661 1.408 . S
C665 C664 1.404 . S
C665 H677 0.930 . S
C666 C662 1.524 . S
C666 H678 0.956 . S
C666 H679 0.961 . S
C666 H680 0.961 . S
C667 C664 1.539 . S
C667 H681 0.958 . S
C667 H682 0.961 . S
C667 H683 0.960 . S
H668 C652 0.931 . S
H669 C657 0.929 . S
H670 C658 0.960 . S
H671 C658 0.962 . S
H672 C658 0.960 . S
H673 C659 0.961 . S
H674 C659 0.961 . S
H675 C659 0.961 . S
H676 C660 0.931 . S
H677 C665 0.930 . S
H678 C666 0.956 . S
H679 C666 0.961 . S
H680 C666 0.961 . S
H681 C667 0.958 . S
H682 C667 0.961 . S
H683 C667 0.960 . S
C205 C73 1.542 . S
C213 C20 1.594 . S
C237 C54 1.586 . S
C245 C5 1.561 . S
C269 C88 1.595 . S
C277 C39 1.564 . S
C301 C122 1.594 . S
C309 C141 1.562 . S
C333 C175 1.555 . S
C341 C156 1.597 . S
C365 C107 1.542 . S
C373 C190 1.594 . S
C397 C169 1.171 . S
C405 C33 1.167 . S
C429 C203 1.162 . S
C437 C67 1.170 . S
C461 C135 1.173 . S
C469 C101 1.166 . S
C493 C104 1.487 . S
C501 C2 1.500 . S
C525 C138 1.494 . S
C533 C36 1.499 . S
C557 C70 1.505 . S
C565 C172 1.511 . S
C589 C145 1.362 . S
C597 C9 1.399 . S
C621 C43 1.407 . S
C629 C179 1.376 . S
C653 C111 1.393 . S
C661 C77 1.401 . S
