# Generated by pormake.
# Topology mmt, (4)-cn, num edge types: 1
# Building blocks:
#     Node 0, Type 0, BuildingBlock: KUFVIS_clean_sbu_0, # of connection points: 4
#     Node 1, Type 0, BuildingBlock: KUFVIS_clean_sbu_0, # of connection points: 4
#     Node 2, Type 0, BuildingBlock: KUFVIS_clean_sbu_0, # of connection points: 4
#     Node 3, Type 0, BuildingBlock: KUFVIS_clean_sbu_0, # of connection points: 4
#     Node 4, Type 0, BuildingBlock: KUFVIS_clean_sbu_0, # of connection points: 4
#     Node 5, Type 0, BuildingBlock: KUFVIS_clean_sbu_0, # of connection points: 4
#     Node 6, Type 0, BuildingBlock: KUFVIS_clean_sbu_0, # of connection points: 4
#     Node 7, Type 0, BuildingBlock: KUFVIS_clean_sbu_0, # of connection points: 4
#     Edge 8, Type (0, 0), BuildingBlock: FUNLAD_clean_linker_0, # of connection points: 2
#     Edge 9, Type (0, 0), BuildingBlock: FUNLAD_clean_linker_0, # of connection points: 2
#     Edge 10, Type (0, 0), BuildingBlock: FUNLAD_clean_linker_0, # of connection points: 2
#     Edge 11, Type (0, 0), BuildingBlock: FUNLAD_clean_linker_0, # of connection points: 2
#     Edge 12, Type (0, 0), BuildingBlock: FUNLAD_clean_linker_0, # of connection points: 2
#     Edge 13, Type (0, 0), BuildingBlock: FUNLAD_clean_linker_0, # of connection points: 2
#     Edge 14, Type (0, 0), BuildingBlock: FUNLAD_clean_linker_0, # of connection points: 2
#     Edge 15, Type (0, 0), BuildingBlock: FUNLAD_clean_linker_0, # of connection points: 2
#     Edge 16, Type (0, 0), BuildingBlock: FUNLAD_clean_linker_0, # of connection points: 2
#     Edge 17, Type (0, 0), BuildingBlock: FUNLAD_clean_linker_0, # of connection points: 2
#     Edge 18, Type (0, 0), BuildingBlock: FUNLAD_clean_linker_0, # of connection points: 2
#     Edge 19, Type (0, 0), BuildingBlock: FUNLAD_clean_linker_0, # of connection points: 2
#     Edge 20, Type (0, 0), BuildingBlock: FUNLAD_clean_linker_0, # of connection points: 2
#     Edge 21, Type (0, 0), BuildingBlock: FUNLAD_clean_linker_0, # of connection points: 2
#     Edge 22, Type (0, 0), BuildingBlock: FUNLAD_clean_linker_0, # of connection points: 2
#     Edge 23, Type (0, 0), BuildingBlock: FUNLAD_clean_linker_0, # of connection points: 2
# Relax obj value: 0.034
# Max RMSD: 0.059
# Mean RMSD: 0.059
data_MOF--net-mmt--node1-KUFVIS_clean_sbu_0--edge1-FUNLAD_clean_linker_0
_symmetry_space_group_name_H-M    P1
_symmetry_Int_Tables_number       1
_symmetry_cell_setting            triclinic
loop_
_symmetry_equiv_pos_as_xyz
'x, y, z'
_cell_length_a     25.872963
_cell_length_b     43.280459
_cell_length_c     50.795765
_cell_angle_alpha  90.041842
_cell_angle_beta   89.996093
_cell_angle_gamma 90.023927
loop_
_atom_site_label
_atom_site_type_symbol
_atom_site_fract_x
_atom_site_fract_y
_atom_site_fract_z
_atom_type_partial_charge
Mn0 Mn 0.10203 0.56684 0.35696 0.0
Mn1 Mn 0.08698 0.60567 0.29979 0.0
C2 C 0.047 0.54764 0.32522 0.0
C3 C 0.07801 0.55896 0.40073 0.0
C4 C 0.17968 0.56493 0.31164 0.0
O5 O 0.13424 0.60879 0.36485 0.0
O6 O 0.11554 0.63385 0.32717 0.0
C7 C 0.00403 0.64836 0.31671 0.0
N8 N 0.0217 0.62628 0.29985 0.0
C9 C 0.9427 0.62765 0.27489 0.0
C10 C 0.9238 0.65059 0.29185 0.0
C11 C 0.95456 0.66092 0.31289 0.0
C12 C 0.99236 0.61608 0.27962 0.0
H13 H 0.02748 0.65625 0.33297 0.0
C14 C 0.13415 0.63301 0.35055 0.0
O15 O 0.12308 0.55042 0.39208 0.0
O16 O 0.04804 0.57314 0.38424 0.0
N17 N 0.05959 0.58173 0.27133 0.0
C18 C 0.08277 0.55867 0.25737 0.0
C19 C 0.05664 0.54529 0.23597 0.0
C20 C 0.00728 0.55599 0.22896 0.0
C21 C 0.98463 0.58014 0.2433 0.0
C22 C 0.01267 0.59272 0.26432 0.0
H23 H 0.12074 0.55038 0.26262 0.0
O24 O 0.06423 0.52993 0.3438 0.0
O25 O 0.06092 0.57656 0.32625 0.0
O26 O 0.16465 0.5554 0.33418 0.0
O27 O 0.15442 0.58441 0.29777 0.0
C28 C 0.9349 0.59178 0.23791 0.0
C29 C 0.9139 0.61546 0.25374 0.0
H30 H 0.88558 0.66025 0.28905 0.0
H31 H 0.94013 0.6785 0.32616 0.0
H32 H 0.07443 0.52671 0.22497 0.0
H33 H 0.98702 0.54539 0.21262 0.0
H34 H 0.9122 0.58239 0.22187 0.0
H35 H 0.87537 0.62395 0.2496 0.0
Mn36 Mn 0.40303 0.94143 0.35582 0.0
Mn37 Mn 0.4172 0.9005 0.29962 0.0
C38 C 0.46145 0.95776 0.32437 0.0
C39 C 0.42554 0.94993 0.39975 0.0
C40 C 0.32694 0.94377 0.30994 0.0
O41 O 0.36699 0.90061 0.36407 0.0
O42 O 0.38653 0.87374 0.32734 0.0
C43 C 0.49715 0.85642 0.31759 0.0
N44 N 0.48112 0.87845 0.3003 0.0
C45 C 0.5601 0.87447 0.27552 0.0
C46 C 0.57729 0.85154 0.29292 0.0
C47 C 0.54573 0.84255 0.31409 0.0
C48 C 0.51126 0.88739 0.27994 0.0
H49 H 0.47308 0.84956 0.33394 0.0
C50 C 0.36665 0.87585 0.35039 0.0
O51 O 0.38173 0.95953 0.39032 0.0
O52 O 0.45513 0.93441 0.38394 0.0
N53 N 0.44659 0.92322 0.27098 0.0
C54 C 0.42528 0.94661 0.2567 0.0
C55 C 0.45252 0.95885 0.23518 0.0
C56 C 0.50107 0.94671 0.2284 0.0
C57 C 0.52183 0.9223 0.24313 0.0
C58 C 0.49275 0.9109 0.26426 0.0
H59 H 0.38793 0.956 0.26176 0.0
O60 O 0.44486 0.97669 0.34225 0.0
O61 O 0.44455 0.92948 0.32585 0.0
O62 O 0.34244 0.95401 0.33216 0.0
O63 O 0.35098 0.92304 0.29682 0.0
C64 C 0.57069 0.90924 0.238 0.0
C65 C 0.58986 0.8854 0.25422 0.0
H66 H 0.61482 0.84087 0.29036 0.0
H67 H 0.55886 0.825 0.3277 0.0
H68 H 0.4362 0.97766 0.22389 0.0
H69 H 0.52218 0.95641 0.21195 0.0
H70 H 0.59415 0.91767 0.22187 0.0
H71 H 0.62777 0.87584 0.2503 0.0
Mn72 Mn 0.60201 0.44273 0.15163 0.0
Mn73 Mn 0.58497 0.40864 0.21089 0.0
C74 C 0.54692 0.46468 0.18214 0.0
C75 C 0.57952 0.44902 0.10749 0.0
C76 C 0.67836 0.44785 0.19757 0.0
O77 O 0.63205 0.39963 0.14569 0.0
O78 O 0.61573 0.37898 0.18547 0.0
C79 C 0.50392 0.36408 0.19506 0.0
N80 N 0.52018 0.38746 0.21098 0.0
C81 C 0.44012 0.38687 0.23509 0.0
C82 C 0.42262 0.36263 0.21905 0.0
C83 C 0.45462 0.35125 0.19891 0.0
C84 C 0.48962 0.39868 0.23034 0.0
H85 H 0.52838 0.35532 0.17952 0.0
C86 C 0.63332 0.37714 0.16193 0.0
O87 O 0.62488 0.4569 0.11616 0.0
O88 O 0.54837 0.43606 0.12417 0.0
N89 N 0.55557 0.43421 0.23775 0.0
C90 C 0.57764 0.45825 0.25096 0.0
C91 C 0.5503 0.47263 0.27147 0.0
C92 C 0.50092 0.46188 0.27843 0.0
C93 C 0.47946 0.4367 0.26492 0.0
C94 C 0.50864 0.42319 0.24474 0.0
H95 H 0.61566 0.46654 0.24576 0.0
O96 O 0.56569 0.481 0.16302 0.0
O97 O 0.55973 0.43557 0.18257 0.0
O98 O 0.66486 0.45468 0.1741 0.0
O99 O 0.65174 0.43051 0.21275 0.0
C100 C 0.42987 0.42484 0.27034 0.0
C101 C 0.41014 0.40002 0.25538 0.0
H102 H 0.38458 0.35273 0.22192 0.0
H103 H 0.4413 0.33265 0.18638 0.0
H104 H 0.56719 0.49201 0.28184 0.0
H105 H 0.47975 0.47323 0.29408 0.0
H106 H 0.40631 0.43491 0.28575 0.0
H107 H 0.37171 0.39135 0.25952 0.0
Mn108 Mn 0.89958 0.07003 0.15571 0.0
Mn109 Mn 0.92702 0.10405 0.21398 0.0
C110 C 0.95435 0.04587 0.18524 0.0
C111 C 0.91741 0.06192 0.11118 0.0
C112 C 0.82601 0.0709 0.20278 0.0
O113 O 0.87536 0.11459 0.15006 0.0
O114 O 0.9017 0.13534 0.18852 0.0
C115 C 0.01591 0.14223 0.19703 0.0
N116 N 0.99561 0.12037 0.2133 0.0
C117 C 0.07581 0.11575 0.23695 0.0
C118 C 0.0975 0.13837 0.22058 0.0
C119 C 0.06745 0.1516 0.20048 0.0
C120 C 0.02423 0.10739 0.2326 0.0
H121 H 0.99294 0.15239 0.18155 0.0
C122 C 0.88144 0.13759 0.16557 0.0
O123 O 0.87179 0.0567 0.12088 0.0
O124 O 0.95169 0.07341 0.12704 0.0
N125 N 0.95214 0.07664 0.24061 0.0
C126 C 0.92621 0.05403 0.25381 0.0
C127 C 0.95126 0.03788 0.27409 0.0
C128 C 0.00243 0.04538 0.28081 0.0
C129 C 0.02804 0.06904 0.26721 0.0
C130 C 1.00104 0.08442 0.24724 0.0
H131 H 0.88682 0.04825 0.2488 0.0
O132 O 0.93155 0.03015 0.16688 0.0
O133 O 0.9453 0.07543 0.18553 0.0
O134 O 0.83723 0.06182 0.17957 0.0
O135 O 0.85615 0.08741 0.2169 0.0
C136 C 0.07962 0.07759 0.27234 0.0
C137 C 0.10356 0.10082 0.25715 0.0
H138 H 0.13728 0.14559 0.22312 0.0
H139 H 0.084 0.16896 0.18768 0.0
H140 H 0.93121 0.01966 0.28451 0.0
H141 H 0.02176 0.03269 0.29632 0.0
H142 H 0.10148 0.06609 0.28766 0.0
H143 H 0.14349 0.10683 0.26101 0.0
Mn144 Mn 0.90098 0.43941 0.65509 0.0
Mn145 Mn 0.92002 0.39927 0.71122 0.0
C146 C 0.9557 0.45889 0.68685 0.0
C147 C 0.92379 0.44872 0.61136 0.0
C148 C 0.82401 0.43772 0.70064 0.0
O149 O 0.8711 0.39704 0.64662 0.0
O150 O 0.89294 0.37109 0.68342 0.0
C151 C 0.00572 0.35926 0.69319 0.0
N152 N 0.9868 0.38048 0.71048 0.0
C153 C 0.06651 0.3809 0.73488 0.0
C154 C 0.08675 0.35887 0.71744 0.0
C155 C 0.05624 0.34805 0.69648 0.0
C156 C 0.01583 0.3911 0.73068 0.0
H157 H 0.98245 0.35102 0.67698 0.0
C158 C 0.87319 0.37235 0.66029 0.0
O159 O 0.87843 0.45625 0.6203 0.0
O160 O 0.95478 0.43485 0.62753 0.0
N161 N 0.94615 0.42329 0.73994 0.0
C162 C 0.92163 0.44548 0.75431 0.0
C163 C 0.94731 0.45926 0.77566 0.0
C164 C 0.99767 0.44986 0.78218 0.0
C165 C 0.02177 0.42661 0.76739 0.0
C166 C 0.99411 0.41355 0.74645 0.0
H167 H 0.88292 0.4528 0.7494 0.0
O168 O 0.93689 0.47676 0.66877 0.0
O169 O 0.94337 0.42975 0.68529 0.0
O170 O 0.83812 0.44874 0.67843 0.0
O171 O 0.85099 0.41848 0.71391 0.0
C172 C 0.07255 0.41633 0.77224 0.0
C173 C 0.09494 0.39354 0.75596 0.0
H174 H 0.12578 0.35028 0.71983 0.0
H175 H 0.07168 0.33117 0.68287 0.0
H176 H 0.92842 0.47717 0.787 0.0
H177 H 0.01756 0.46078 0.79848 0.0
H178 H 0.09499 0.42613 0.7882 0.0
H179 H 0.13425 0.38613 0.75968 0.0
Mn180 Mn 0.59758 0.0663 0.65676 0.0
Mn181 Mn 0.58354 0.10834 0.71236 0.0
C182 C 0.53891 0.05071 0.68837 0.0
C183 C 0.57515 0.05716 0.61291 0.0
C184 C 0.67346 0.06462 0.70275 0.0
O185 O 0.63415 0.10679 0.64802 0.0
O186 O 0.6147 0.13445 0.68433 0.0
C187 C 0.50416 0.15236 0.69364 0.0
N188 N 0.51984 0.1306 0.71126 0.0
C189 C 0.44075 0.13534 0.73585 0.0
C190 C 0.42391 0.158 0.71809 0.0
C191 C 0.4557 0.16647 0.69686 0.0
C192 C 0.48948 0.12216 0.73169 0.0
H193 H 0.52843 0.15883 0.67725 0.0
C194 C 0.63478 0.1318 0.66137 0.0
O195 O 0.61881 0.04753 0.6225 0.0
O196 O 0.54567 0.07304 0.62851 0.0
N197 N 0.55376 0.08632 0.74129 0.0
C198 C 0.5748 0.06317 0.75597 0.0
C199 C 0.54733 0.05147 0.77763 0.0
C200 C 0.49884 0.06391 0.78414 0.0
C201 C 0.47838 0.08806 0.769 0.0
C202 C 0.50767 0.09891 0.74775 0.0
H203 H 0.61211 0.05357 0.75111 0.0
O204 O 0.55536 0.03142 0.67072 0.0
O205 O 0.55605 0.07892 0.68654 0.0
O206 O 0.65797 0.05397 0.68066 0.0
O207 O 0.6495 0.08563 0.71556 0.0
C208 C 0.42961 0.10139 0.77386 0.0
C209 C 0.41076 0.12496 0.75726 0.0
H210 H 0.38647 0.16885 0.72044 0.0
H211 H 0.44284 0.18381 0.68299 0.0
H212 H 0.56343 0.03286 0.78924 0.0
H213 H 0.47755 0.05462 0.8007 0.0
H214 H 0.40598 0.09338 0.79008 0.0
H215 H 0.37292 0.13473 0.76098 0.0
Mn216 Mn 0.40431 0.57121 0.85452 0.0
Mn217 Mn 0.4156 0.60815 0.79615 0.0
C218 C 0.46132 0.55308 0.82306 0.0
C219 C 0.42823 0.56383 0.89835 0.0
C220 C 0.32719 0.56482 0.80901 0.0
O221 O 0.36985 0.61285 0.86197 0.0
O222 O 0.38242 0.6355 0.8226 0.0
C223 C 0.49188 0.65535 0.81258 0.0
N224 N 0.47785 0.6319 0.79619 0.0
C225 C 0.55705 0.63646 0.77166 0.0
C226 C 0.57223 0.6608 0.78818 0.0
C227 C 0.53955 0.67023 0.80877 0.0
C228 C 0.50909 0.62254 0.7764 0.0
H229 H 0.4669 0.66261 0.82846 0.0
C230 C 0.36557 0.63581 0.84632 0.0
O231 O 0.38369 0.55465 0.88955 0.0
O232 O 0.45772 0.57869 0.88202 0.0
N233 N 0.44703 0.58474 0.76848 0.0
C234 C 0.42728 0.56035 0.75479 0.0
C235 C 0.45558 0.5478 0.73376 0.0
C236 C 0.50351 0.56068 0.72681 0.0
C237 C 0.52256 0.58615 0.74086 0.0
C238 C 0.49248 0.5978 0.76152 0.0
H239 H 0.39038 0.55042 0.75998 0.0
O240 O 0.44483 0.53506 0.84162 0.0
O241 O 0.44479 0.58147 0.82364 0.0
O242 O 0.34231 0.55771 0.83214 0.0
O243 O 0.35129 0.58373 0.79411 0.0
C244 C 0.57062 0.60011 0.73547 0.0
C245 C 0.58792 0.62518 0.75091 0.0
H246 H 0.60903 0.67227 0.78535 0.0
H247 H 0.5511 0.6889 0.82167 0.0
H248 H 0.44054 0.52819 0.72297 0.0
H249 H 0.52545 0.55075 0.71074 0.0
H250 H 0.59486 0.5915 0.7197 0.0
H251 H 0.6252 0.63548 0.74677 0.0
Mn252 Mn 0.1009 0.94172 0.85859 0.0
Mn253 Mn 0.07347 0.90688 0.8007 0.0
C254 C 0.04657 0.96561 0.82868 0.0
C255 C 0.08279 0.95048 0.90301 0.0
C256 C 0.17496 0.93962 0.81182 0.0
O257 O 0.12455 0.89713 0.86475 0.0
O258 O 0.09733 0.87577 0.82667 0.0
C259 C 0.98317 0.86986 0.81759 0.0
N260 N 0.00444 0.89122 0.80117 0.0
C261 C 0.92495 0.89615 0.77694 0.0
C262 C 0.90229 0.87401 0.79346 0.0
C263 C 0.93149 0.8609 0.81393 0.0
C264 C 0.97663 0.90412 0.78152 0.0
H265 H 0.00546 0.85981 0.83338 0.0
C266 C 0.11756 0.87385 0.84965 0.0
O267 O 0.12852 0.95544 0.89335 0.0
O268 O 0.04852 0.93892 0.88718 0.0
N269 N 0.04964 0.93413 0.77365 0.0
C270 C 0.07637 0.95638 0.76041 0.0
C271 C 0.05218 0.97246 0.73981 0.0
C272 C 1.00104 0.96527 0.73284 0.0
C273 C 0.97456 0.942 0.7465 0.0
C274 C 1.00071 0.92668 0.76679 0.0
H275 H 0.11576 0.96193 0.76561 0.0
O276 O 0.06935 0.98156 0.84691 0.0
O277 O 0.05541 0.93604 0.82876 0.0
O278 O 0.16349 0.94938 0.83479 0.0
O279 O 0.14487 0.9228 0.79793 0.0
C280 C 0.92292 0.9338 0.74112 0.0
C281 C 0.89806 0.91099 0.7564 0.0
H282 H 0.86239 0.86711 0.79076 0.0
H283 H 0.91418 0.84393 0.82685 0.0
H284 H 0.07289 0.99038 0.72936 0.0
H285 H 0.98237 0.97789 0.71708 0.0
H286 H 0.9017 0.94525 0.72555 0.0
H287 H 0.85808 0.90528 0.75237 0.0
C288 C 0.25055 0.56585 0.27812 0.0
C289 C 0.22735 0.55169 0.30005 0.0
C290 C 0.29281 0.55221 0.26561 0.0
C291 C 0.31291 0.52398 0.27471 0.0
C292 C 0.29018 0.50995 0.29677 0.0
C293 C 0.24813 0.52379 0.3095 0.0
C294 C 0.35502 0.50777 0.26043 0.0
C295 C 0.39148 0.52286 0.24656 0.0
C296 C 0.4314 0.50684 0.23068 0.0
C297 C 0.42136 0.47852 0.21802 0.0
C298 C 0.45925 0.4646 0.20239 0.0
C299 C 0.50792 0.47843 0.19957 0.0
H300 H 0.48769 0.54335 0.23592 0.0
C301 C 0.51733 0.5072 0.21133 0.0
C302 C 0.47941 0.52124 0.22683 0.0
H303 H 0.55419 0.51868 0.20869 0.0
H304 H 0.23546 0.58728 0.27024 0.0
H305 H 0.30833 0.56332 0.24824 0.0
H306 H 0.30467 0.48807 0.30402 0.0
H307 H 0.23093 0.51212 0.32619 0.0
H308 H 0.35642 0.48273 0.26179 0.0
H309 H 0.39327 0.54792 0.2474 0.0
H310 H 0.38404 0.46739 0.21972 0.0
H311 H 0.45045 0.44313 0.19237 0.0
C312 C 0.04462 0.04368 0.20194 0.0
C313 C 0.99468 0.03116 0.20126 0.0
C314 C 0.0835 0.02934 0.21659 0.0
C315 C 0.07315 1.00187 0.23044 0.0
C316 C 0.02375 0.9886 0.22861 0.0
C317 C 0.98482 1.00308 0.21405 0.0
C318 C 0.1138 0.98583 0.24582 0.0
C319 C 0.15227 1.00097 0.25819 0.0
C320 C 0.19445 0.98492 0.2725 0.0
C321 C 0.21898 0.99991 0.29359 0.0
C322 C 0.26094 0.98614 0.3064 0.0
C323 C 0.27988 0.95733 0.29798 0.0
H324 H 0.19567 0.94396 0.24777 0.0
C325 C 0.25503 0.94227 0.27694 0.0
C326 C 0.21275 0.95584 0.26439 0.0
H327 H 0.26868 0.9201 0.26989 0.0
H328 H 0.05358 0.06455 0.19109 0.0
H329 H 0.12169 0.03955 0.21669 0.0
H330 H 0.01512 0.96714 0.23866 0.0
H331 H 0.94685 0.99259 0.21307 0.0
H332 H 0.11072 0.9609 0.24778 0.0
H333 H 0.1524 0.02606 0.25842 0.0
H334 H 0.20587 0.02245 0.30006 0.0
H335 H 0.27942 0.99849 0.32239 0.0
C336 C 0.74962 0.44861 0.23078 0.0
C337 C 0.72611 0.46169 0.20847 0.0
C338 C 0.79231 0.46274 0.24247 0.0
C339 C 0.81239 0.49042 0.2322 0.0
C340 C 0.78919 0.50345 0.20985 0.0
C341 C 0.74679 0.48905 0.19788 0.0
C342 C 0.85515 0.507 0.24561 0.0
C343 C 0.8927 0.49203 0.25875 0.0
C344 C 0.93288 0.50804 0.27443 0.0
C345 C 0.98121 0.49384 0.27763 0.0
C346 C 0.01886 0.5073 0.29364 0.0
C347 C 0.00889 0.53527 0.3066 0.0
H348 H 0.88495 0.54668 0.2867 0.0
C349 C 0.96011 0.54905 0.30416 0.0
C350 C 0.9225 0.53575 0.28795 0.0
H351 H 0.95089 0.56984 0.31508 0.0
H352 H 0.73456 0.42762 0.23949 0.0
H353 H 0.80832 0.45247 0.2601 0.0
H354 H 0.80367 0.52493 0.20173 0.0
H355 H 0.72924 0.49987 0.18087 0.0
H356 H 0.85596 0.53207 0.24435 0.0
H357 H 0.89476 0.46698 0.25769 0.0
H358 H 0.98975 0.47219 0.26784 0.0
H359 H 0.05581 0.49584 0.29596 0.0
C360 C 0.75123 0.0341 0.20579 0.0
C361 C 0.77638 0.06102 0.21456 0.0
C362 C 0.70636 0.02366 0.21835 0.0
C363 C 0.68552 0.04019 0.23971 0.0
C364 C 0.70949 0.06769 0.24775 0.0
C365 C 0.75477 0.07781 0.23554 0.0
C366 C 0.6389 0.02948 0.25404 0.0
C367 C 0.62857 0.99938 0.25818 0.0
C368 C 0.58475 0.98889 0.27476 0.0
C369 C 0.59006 0.96171 0.28959 0.0
C370 C 0.54972 0.95142 0.30566 0.0
C371 C 0.50288 0.96764 0.3065 0.0
H372 H 0.53223 0.02617 0.26454 0.0
C373 C 0.49763 0.99504 0.29205 0.0
C374 C 0.53799 0.00543 0.27606 0.0
H375 H 0.46201 0.00816 0.29287 0.0
H376 H 0.7669 0.02068 0.18965 0.0
H377 H 0.688 1.00276 0.21127 0.0
H378 H 0.69388 0.08098 0.264 0.0
H379 H 0.77296 0.09878 0.24262 0.0
H380 H 0.61513 0.04696 0.26348 0.0
H381 H 0.65538 0.98195 0.25107 0.0
H382 H 0.62574 0.94863 0.28902 0.0
H383 H 0.55514 0.93085 0.31747 0.0
C384 C 0.49801 0.51443 0.792 0.0
C385 C 0.5029 0.54247 0.80558 0.0
C386 C 0.53815 0.50384 0.77594 0.0
C387 C 0.58446 0.52077 0.77381 0.0
C388 C 0.58952 0.5485 0.78795 0.0
C389 C 0.54931 0.55908 0.80396 0.0
C390 C 0.62805 0.51031 0.75699 0.0
C391 C 0.63771 0.48027 0.75211 0.0
C392 C 0.68411 0.46951 0.7376 0.0
C393 C 0.70573 0.44091 0.74437 0.0
C394 C 0.7507 0.43048 0.73209 0.0
C395 C 0.77457 0.44817 0.71232 0.0
H396 H 0.69056 0.50874 0.71115 0.0
C397 C 0.7518 0.47629 0.70474 0.0
C398 C 0.70708 0.48695 0.71735 0.0
H399 H 0.76916 0.4904 0.68952 0.0
H400 H 0.4627 0.50107 0.79339 0.0
H401 H 0.53236 0.48269 0.76495 0.0
H402 H 0.62479 0.56193 0.78675 0.0
H403 H 0.55441 0.58025 0.81505 0.0
H404 H 0.6552 0.52774 0.75022 0.0
H405 H 0.6135 0.46269 0.7611 0.0
H406 H 0.68849 0.42688 0.75971 0.0
H407 H 0.76692 0.40857 0.73823 0.0
C408 C 0.74554 0.06692 0.73558 0.0
C409 C 0.72054 0.05132 0.71488 0.0
C410 C 0.78796 0.0537 0.74828 0.0
C411 C 0.80625 0.02445 0.74065 0.0
C412 C 0.78156 0.00891 0.71989 0.0
C413 C 0.73946 0.02233 0.70693 0.0
C414 C 0.84855 0.0088 0.75517 0.0
C415 C 0.88708 0.02427 0.76719 0.0
C416 C 0.92775 0.00864 0.78285 0.0
C417 C 0.97714 0.02197 0.78446 0.0
C418 C 0.01609 0.00784 0.79925 0.0
C419 C 0.00623 0.98006 0.81252 0.0
H420 H 0.87922 0.9713 0.79728 0.0
C421 C 0.95629 0.96753 0.81206 0.0
C422 C 0.91741 0.98152 0.79719 0.0
H423 H 0.94735 0.9469 0.82325 0.0
H424 H 0.73192 0.08926 0.74226 0.0
H425 H 0.80515 0.06601 0.76464 0.0
H426 H 0.79466 0.98623 0.71381 0.0
H427 H 0.72087 0.00958 0.6912 0.0
H428 H 0.8484 0.98371 0.75542 0.0
H429 H 0.89015 0.04914 0.76475 0.0
H430 H 0.98576 0.04318 0.77403 0.0
H431 H 0.05408 0.01833 0.80004 0.0
C432 C 0.25466 0.5624 0.7765 0.0
C433 C 0.28038 0.54964 0.79831 0.0
C434 C 0.21228 0.54735 0.76532 0.0
C435 C 0.19478 0.51905 0.77559 0.0
C436 C 0.22039 0.50625 0.79735 0.0
C437 C 0.26242 0.52155 0.80882 0.0
C438 C 0.15203 0.50173 0.76287 0.0
C439 C 0.11228 0.51605 0.75094 0.0
C440 C 0.07156 0.49944 0.73607 0.0
C441 C 0.02225 0.51273 0.73414 0.0
C442 C 0.98402 0.49887 0.71874 0.0
C443 C 0.99437 0.47139 0.70512 0.0
H444 H 0.12035 0.46191 0.72226 0.0
C445 C 0.04397 0.45845 0.70639 0.0
C446 C 0.08219 0.47214 0.72199 0.0
H447 H 0.0534 0.43809 0.69494 0.0
H448 H 0.26759 0.58393 0.76785 0.0
H449 H 0.19435 0.55749 0.74812 0.0
H450 H 0.20794 0.48432 0.80544 0.0
H451 H 0.28169 0.51095 0.82545 0.0
H452 H 0.15296 0.47664 0.76376 0.0
H453 H 0.10876 0.54102 0.75245 0.0
H454 H 0.01342 0.53405 0.74439 0.0
H455 H 0.94637 0.50971 0.71733 0.0
C456 C 0.24977 0.97634 0.80828 0.0
C457 C 0.2247 0.9492 0.79995 0.0
C458 C 0.29456 0.98657 0.79553 0.0
C459 C 0.31542 0.96962 0.77441 0.0
C460 C 0.29158 0.9419 0.76684 0.0
C461 C 0.24636 0.93197 0.77924 0.0
C462 C 0.36191 0.98013 0.75986 0.0
C463 C 0.37211 0.01016 0.75527 0.0
C464 C 0.41586 0.02041 0.73852 0.0
C465 C 0.41046 0.04734 0.72338 0.0
C466 C 0.45073 0.05739 0.70714 0.0
C467 C 0.49759 0.04117 0.70644 0.0
H468 H 0.46848 0.98333 0.74914 0.0
C469 C 0.50292 0.01402 0.72122 0.0
C470 C 0.46265 1.00388 0.73738 0.0
H471 H 0.53855 1.0009 0.72051 0.0
H472 H 0.23405 0.9901 0.8242 0.0
H473 H 0.31283 0.00766 0.80226 0.0
H474 H 0.3072 0.92829 0.75079 0.0
H475 H 0.22823 0.91083 0.7725 0.0
H476 H 0.38572 0.96249 0.75065 0.0
H477 H 0.34525 0.02769 0.76217 0.0
H478 H 0.37477 0.06042 0.72383 0.0
H479 H 0.44524 0.07776 0.69508 0.0
C480 C 0.08787 0.53034 0.44337 0.0
C481 C 0.05944 0.55061 0.42736 0.0
C482 C 0.06749 0.51991 0.4673 0.0
C483 C 0.01814 0.52955 0.47569 0.0
C484 C 0.9909 0.55088 0.46021 0.0
C485 C 0.0111 0.56114 0.43624 0.0
C486 C 0.99401 0.51823 0.50049 0.0
C487 C 0.00511 0.4906 0.51137 0.0
C488 C 0.9815 0.47921 0.53626 0.0
C489 C 0.00886 0.45745 0.55125 0.0
C490 C 0.98933 0.44693 0.57526 0.0
C491 C 0.9415 0.4576 0.5847 0.0
H492 H 0.9095 0.50502 0.53385 0.0
C493 C 0.91292 0.47837 0.56924 0.0
C494 C 0.93269 0.48911 0.54524 0.0
H495 H 0.87582 0.4869 0.57593 0.0
H496 H 0.12538 0.52196 0.43715 0.0
H497 H 0.09063 0.5044 0.47912 0.0
H498 H 0.95317 0.55904 0.46634 0.0
H499 H 0.9883 0.57689 0.42443 0.0
H500 H 0.96527 0.53303 0.50961 0.0
H501 H 0.03375 0.47581 0.50215 0.0
H502 H 0.04619 0.44911 0.54468 0.0
H503 H 0.01223 0.4308 0.58663 0.0
C504 C 0.4152 0.97947 0.44197 0.0
C505 C 0.44319 0.95832 0.42656 0.0
C506 C 0.43462 0.98958 0.46623 0.0
C507 C 0.48259 0.97873 0.47557 0.0
C508 C 0.50939 0.95666 0.4606 0.0
C509 C 0.49015 0.94671 0.43632 0.0
C510 C 0.50568 0.98942 0.50086 0.0
C511 C 0.49527 0.01709 0.5119 0.0
C512 C 0.5183 0.02784 0.53719 0.0
C513 C 0.49165 0.05015 0.55196 0.0
C514 C 0.51082 0.06023 0.57621 0.0
C515 C 0.55757 0.04851 0.58614 0.0
H516 H 0.58878 1.00048 0.53553 0.0
C517 C 0.5854 0.02708 0.57094 0.0
C518 C 0.56604 0.01684 0.5467 0.0
H519 H 0.62169 0.01775 0.57798 0.0
H520 H 0.37873 0.98871 0.43508 0.0
H521 H 0.41177 0.00573 0.47757 0.0
H522 H 0.54604 0.94759 0.46743 0.0
H523 H 0.51259 0.93028 0.425 0.0
H524 H 0.53315 0.97403 0.51025 0.0
H525 H 0.46783 0.03248 0.50247 0.0
H526 H 0.45517 0.05934 0.545 0.0
H527 H 0.48851 0.07688 0.58737 0.0
C528 C 0.59185 0.47694 0.06471 0.0
C529 C 0.56187 0.45744 0.08071 0.0
C530 C 0.57228 0.48805 0.04083 0.0
C531 C 0.52221 0.47985 0.03247 0.0
C532 C 0.4934 0.45915 0.04788 0.0
C533 C 0.5128 0.44823 0.07181 0.0
C534 C 0.49874 0.49214 0.00785 0.0
C535 C 0.51184 0.51954 0.99708 0.0
C536 C 0.4879 0.53196 0.97261 0.0
C537 C 0.51608 0.55306 0.95728 0.0
C538 C 0.49599 0.56428 0.93359 0.0
C539 C 0.44688 0.55493 0.92485 0.0
H540 H 0.41393 0.50839 0.97612 0.0
C541 C 0.4176 0.53496 0.94076 0.0
C542 C 0.4378 0.52361 0.96441 0.0
H543 H 0.37947 0.52748 0.93468 0.0
H544 H 0.62994 0.48433 0.07094 0.0
H545 H 0.59653 0.50301 0.02907 0.0
H546 H 0.45505 0.45208 0.04176 0.0
H547 H 0.48879 0.43312 0.08362 0.0
H548 H 0.46854 0.4783 0.99883 0.0
H549 H 0.54207 0.53335 0.00609 0.0
H550 H 0.55443 0.56026 0.96329 0.0
H551 H 0.51949 0.57973 0.92184 0.0
C552 C 0.0172 0.95829 0.93867 0.0
C553 C 0.06862 0.96059 0.92994 0.0
C554 C 0.00229 0.97101 0.96283 0.0
C555 C 0.03854 0.98645 0.9788 0.0
C556 C 0.09037 0.98748 0.97058 0.0
C557 C 0.10524 0.97486 0.94636 0.0
C558 C 0.02409 1.00138 1.00421 0.0
C559 C 0.976 0.01165 0.00976 0.0
C560 C 0.96154 0.02652 0.03518 0.0
C561 C 0.90973 0.02538 0.04344 0.0
C562 C 0.89488 0.03786 0.06771 0.0
C563 C 0.9315 0.05209 0.08416 0.0
H564 H 0.03764 0.04444 0.04515 0.0
C565 C 0.98288 0.05452 0.07539 0.0
C566 C 0.99777 0.04194 0.05117 0.0
H567 H 0.012 0.06555 0.0875 0.0
H568 H 0.98808 0.94724 0.92659 0.0
H569 H 0.96239 0.96859 0.96884 0.0
H570 H 0.11929 0.99882 0.98262 0.0
H571 H 0.1452 0.97696 0.94025 0.0
H572 H 0.05478 1.00449 0.01852 0.0
H573 H 0.94531 0.00854 0.99544 0.0
H574 H 0.88083 0.01406 0.03138 0.0
H575 H 0.85496 0.03566 0.07385 0.0
C576 C 0.14656 0.69036 0.35023 0.0
C577 C 0.16002 0.66127 0.36043 0.0
C578 C 0.17543 0.7166 0.35665 0.0
C579 C 0.21885 0.71427 0.37321 0.0
C580 C 0.23126 0.6854 0.3841 0.0
C581 C 0.20174 0.6592 0.37807 0.0
C582 C 0.25526 0.74056 0.37651 0.0
C583 C 0.24031 0.77035 0.37554 0.0
C584 C 0.27743 0.79637 0.37278 0.0
C585 C 0.2638 0.82587 0.38201 0.0
C586 C 0.29468 0.85159 0.37625 0.0
C587 C 0.33903 0.84836 0.36051 0.0
H588 H 0.33449 0.77074 0.35024 0.0
C589 C 0.35357 0.81869 0.35204 0.0
C590 C 0.32333 0.79296 0.35822 0.0
H591 H 0.38751 0.81548 0.33984 0.0
H592 H 0.11461 0.6927 0.33659 0.0
H593 H 0.16536 0.7383 0.34739 0.0
H594 H 0.2648 0.68292 0.3967 0.0
H595 H 0.21332 0.63708 0.38609 0.0
H596 H 0.29599 0.73509 0.37884 0.0
H597 H 0.19937 0.77594 0.37576 0.0
H598 H 0.22838 0.82916 0.39304 0.0
H599 H 0.28226 0.87421 0.38285 0.0
C600 C 0.82015 0.17185 0.14018 0.0
C601 C 0.86131 0.16847 0.15807 0.0
C602 C 0.79534 0.20053 0.13725 0.0
C603 C 0.81165 0.22629 0.15209 0.0
C604 C 0.8549 0.2232 0.16851 0.0
C605 C 0.87947 0.19478 0.17143 0.0
C606 C 0.78142 0.25542 0.15394 0.0
C607 C 0.74655 0.26549 0.13621 0.0
C608 C 0.71453 0.29324 0.14191 0.0
C609 C 0.70516 0.31556 0.12243 0.0
C610 C 0.67795 0.34273 0.12857 0.0
C611 C 0.65878 0.34767 0.15419 0.0
H612 H 0.69887 0.28045 0.18239 0.0
C613 C 0.66613 0.32441 0.17318 0.0
C614 C 0.69365 0.29766 0.16715 0.0
H615 H 0.6516 0.32704 0.19306 0.0
H616 H 0.80513 0.152 0.12967 0.0
H617 H 0.76174 0.20192 0.12463 0.0
H618 H 0.8685 0.24262 0.18009 0.0
H619 H 0.91148 0.19317 0.18511 0.0
H620 H 0.78796 0.2694 0.17145 0.0
H621 H 0.74215 0.25393 0.11737 0.0
H622 H 0.72034 0.31247 0.10273 0.0
H623 H 0.67268 0.36 0.11339 0.0
C624 C 0.64969 0.18878 0.65921 0.0
C625 C 0.66331 0.15885 0.65103 0.0
C626 C 0.68089 0.21406 0.65292 0.0
C627 C 0.72684 0.20993 0.63853 0.0
C628 C 0.73955 0.18017 0.62958 0.0
C629 C 0.70772 0.1549 0.63545 0.0
C630 C 0.76485 0.23547 0.63565 0.0
C631 C 0.75084 0.2654 0.63435 0.0
C632 C 0.78793 0.29139 0.63745 0.0
C633 C 0.77581 0.32033 0.62661 0.0
C634 C 0.80567 0.34638 0.63261 0.0
C635 C 0.84754 0.34412 0.65015 0.0
H636 H 0.84151 0.26706 0.66302 0.0
C637 C 0.86089 0.31493 0.66019 0.0
C638 C 0.8316 0.28882 0.65382 0.0
H639 H 0.89294 0.31243 0.67375 0.0
H640 H 0.61574 0.19254 0.67129 0.0
H641 H 0.6704 0.23649 0.6607 0.0
H642 H 0.77497 0.17632 0.61868 0.0
H643 H 0.71946 0.13206 0.62908 0.0
H644 H 0.80559 0.2294 0.63555 0.0
H645 H 0.71028 0.27126 0.63189 0.0
H646 H 0.74214 0.32299 0.61414 0.0
H647 H 0.79412 0.36856 0.6247 0.0
C648 C 0.32396 0.68652 0.83631 0.0
C649 C 0.33796 0.66414 0.85508 0.0
C650 C 0.29602 0.71265 0.84359 0.0
C651 C 0.28129 0.71734 0.86989 0.0
C652 C 0.29673 0.69574 0.88897 0.0
C653 C 0.32433 0.66913 0.8816 0.0
C654 C 0.25022 0.74498 0.87715 0.0
C655 C 0.21127 0.75447 0.86151 0.0
C656 C 0.1829 0.78424 0.86387 0.0
C657 C 0.13744 0.78762 0.84911 0.0
C658 C 0.11444 0.81649 0.84606 0.0
C659 C 0.13628 0.84289 0.85772 0.0
H660 H 0.23829 0.80865 0.88846 0.0
C661 C 0.1796 0.83933 0.87418 0.0
C662 C 0.20297 0.81022 0.87715 0.0
H663 H 0.19742 0.85928 0.88333 0.0
H664 H 0.33387 0.68374 0.81572 0.0
H665 H 0.28605 0.72931 0.82852 0.0
H666 H 0.28635 0.69908 0.90944 0.0
H667 H 0.33484 0.65251 0.89659 0.0
H668 H 0.25955 0.75731 0.89514 0.0
H669 H 0.20038 0.73977 0.84502 0.0
H670 H 0.12094 0.76807 0.83875 0.0
H671 H 0.08073 0.81833 0.83351 0.0
loop_
_geom_bond_atom_site_label_1
_geom_bond_atom_site_label_2
_geom_bond_distance
_geom_bond_site_symmetry_2
_ccdc_geom_bond_type
Mn0 O5 2.095 . S
Mn0 O15 2.162 . S
Mn0 O16 2.297 . S
Mn0 O24 2.385 . S
Mn0 O25 2.209 . S
Mn0 O26 2.094 . S
Mn1 O6 2.121 . S
Mn1 N8 2.257 . S
Mn1 N17 2.282 . S
Mn1 O25 2.215 . S
Mn1 O27 2.117 . S
C2 O24 1.234 . S
C2 O25 1.283 . S
C3 O15 1.281 . S
C3 O16 1.236 . S
C4 O26 1.240 . S
C4 O27 1.264 . S
O5 Mn0 2.095 . S
O5 C14 1.250 . S
O6 Mn1 2.121 . S
O6 C14 1.258 . S
C7 N8 1.326 . S
C7 C11 1.460 . S
C7 H13 0.929 . S
N8 Mn1 2.257 . S
N8 C7 1.326 . S
N8 C12 1.362 . S
C9 C10 1.258 . S
C9 C12 1.431 . S
C9 C29 1.449 . S
C10 C9 1.258 . S
C10 C11 1.477 . S
C10 H30 0.931 1_455 S
C11 C7 1.460 . S
C11 C10 1.477 . S
C11 H31 0.930 . S
C12 N8 1.362 . S
C12 C9 1.431 . S
C12 C22 1.476 . S
H13 C7 0.929 . S
C14 O5 1.250 . S
C14 O6 1.258 . S
O15 Mn0 2.162 . S
O15 C3 1.281 . S
O16 Mn0 2.297 . S
O16 C3 1.236 . S
N17 Mn1 2.282 . S
N17 C18 1.328 . S
N17 C22 1.318 . S
C18 N17 1.328 . S
C18 C19 1.457 . S
C18 H23 0.929 . S
C19 C18 1.457 . S
C19 C20 1.291 . S
C19 H32 0.931 . S
C20 C19 1.291 . S
C20 C21 1.373 . S
C20 H33 0.929 . S
C21 C20 1.373 . S
C21 C22 1.396 . S
C21 C28 1.403 . S
C22 C12 1.476 . S
C22 N17 1.318 . S
C22 C21 1.396 . S
H23 C18 0.929 . S
O24 Mn0 2.385 . S
O24 C2 1.234 . S
O25 Mn0 2.209 . S
O25 Mn1 2.215 . S
O25 C2 1.283 . S
O26 Mn0 2.094 . S
O26 C4 1.240 . S
O27 Mn1 2.117 . S
O27 C4 1.264 . S
C28 C21 1.403 . S
C28 C29 1.399 . S
C28 H34 0.929 . S
C29 C9 1.449 . S
C29 C28 1.399 . S
C29 H35 0.930 1_455 S
H30 C10 0.931 1_655 S
H31 C11 0.930 . S
H32 C19 0.931 . S
H33 C20 0.929 . S
H34 C28 0.929 . S
H35 C29 0.930 1_655 S
Mn36 O41 2.095 . S
Mn36 O51 2.162 . S
Mn36 O52 2.297 . S
Mn36 O60 2.385 . S
Mn36 O61 2.209 . S
Mn36 O62 2.094 . S
Mn37 O42 2.121 . S
Mn37 N44 2.257 . S
Mn37 N53 2.282 . S
Mn37 O61 2.215 . S
Mn37 O63 2.117 . S
C38 O60 1.234 . S
C38 O61 1.283 . S
C39 O51 1.281 . S
C39 O52 1.236 . S
C40 O62 1.240 . S
C40 O63 1.264 . S
O41 Mn36 2.095 . S
O41 C50 1.250 . S
O42 Mn37 2.121 . S
O42 C50 1.258 . S
C43 N44 1.326 . S
C43 C47 1.460 . S
C43 H49 0.929 . S
N44 Mn37 2.257 . S
N44 C43 1.326 . S
N44 C48 1.362 . S
C45 C46 1.258 . S
C45 C48 1.431 . S
C45 C65 1.449 . S
C46 C45 1.258 . S
C46 C47 1.477 . S
C46 H66 0.931 . S
C47 C43 1.460 . S
C47 C46 1.477 . S
C47 H67 0.930 . S
C48 N44 1.362 . S
C48 C45 1.431 . S
C48 C58 1.476 . S
H49 C43 0.929 . S
C50 O41 1.250 . S
C50 O42 1.258 . S
O51 Mn36 2.162 . S
O51 C39 1.281 . S
O52 Mn36 2.297 . S
O52 C39 1.236 . S
N53 Mn37 2.282 . S
N53 C54 1.328 . S
N53 C58 1.318 . S
C54 N53 1.328 . S
C54 C55 1.457 . S
C54 H59 0.929 . S
C55 C54 1.457 . S
C55 C56 1.291 . S
C55 H68 0.931 1_565 S
C56 C55 1.291 . S
C56 C57 1.373 . S
C56 H69 0.929 . S
C57 C56 1.373 . S
C57 C58 1.396 . S
C57 C64 1.403 . S
C58 C48 1.476 . S
C58 N53 1.318 . S
C58 C57 1.396 . S
H59 C54 0.929 . S
O60 Mn36 2.385 . S
O60 C38 1.234 . S
O61 Mn36 2.209 . S
O61 Mn37 2.215 . S
O61 C38 1.283 . S
O62 Mn36 2.094 . S
O62 C40 1.240 . S
O63 Mn37 2.117 . S
O63 C40 1.264 . S
C64 C57 1.403 . S
C64 C65 1.399 . S
C64 H70 0.929 . S
C65 C45 1.449 . S
C65 C64 1.399 . S
C65 H71 0.930 . S
H66 C46 0.931 . S
H67 C47 0.930 . S
H68 C55 0.931 1_545 S
H69 C56 0.929 . S
H70 C64 0.929 . S
H71 C65 0.930 . S
Mn72 O77 2.095 . S
Mn72 O87 2.162 . S
Mn72 O88 2.297 . S
Mn72 O96 2.385 . S
Mn72 O97 2.209 . S
Mn72 O98 2.094 . S
Mn73 O78 2.121 . S
Mn73 N80 2.257 . S
Mn73 N89 2.282 . S
Mn73 O97 2.215 . S
Mn73 O99 2.117 . S
C74 O96 1.234 . S
C74 O97 1.283 . S
C75 O87 1.281 . S
C75 O88 1.236 . S
C76 O98 1.240 . S
C76 O99 1.264 . S
O77 Mn72 2.095 . S
O77 C86 1.250 . S
O78 Mn73 2.121 . S
O78 C86 1.258 . S
C79 N80 1.326 . S
C79 C83 1.460 . S
C79 H85 0.929 . S
N80 Mn73 2.257 . S
N80 C79 1.326 . S
N80 C84 1.362 . S
C81 C82 1.258 . S
C81 C84 1.431 . S
C81 C101 1.449 . S
C82 C81 1.258 . S
C82 C83 1.477 . S
C82 H102 0.931 . S
C83 C79 1.460 . S
C83 C82 1.477 . S
C83 H103 0.930 . S
C84 N80 1.362 . S
C84 C81 1.431 . S
C84 C94 1.476 . S
H85 C79 0.929 . S
C86 O77 1.250 . S
C86 O78 1.258 . S
O87 Mn72 2.162 . S
O87 C75 1.281 . S
O88 Mn72 2.297 . S
O88 C75 1.236 . S
N89 Mn73 2.282 . S
N89 C90 1.328 . S
N89 C94 1.318 . S
C90 N89 1.328 . S
C90 C91 1.457 . S
C90 H95 0.929 . S
C91 C90 1.457 . S
C91 C92 1.291 . S
C91 H104 0.931 . S
C92 C91 1.291 . S
C92 C93 1.373 . S
C92 H105 0.929 . S
C93 C92 1.373 . S
C93 C94 1.396 . S
C93 C100 1.403 . S
C94 C84 1.476 . S
C94 N89 1.318 . S
C94 C93 1.396 . S
H95 C90 0.929 . S
O96 Mn72 2.385 . S
O96 C74 1.234 . S
O97 Mn72 2.209 . S
O97 Mn73 2.215 . S
O97 C74 1.283 . S
O98 Mn72 2.094 . S
O98 C76 1.240 . S
O99 Mn73 2.117 . S
O99 C76 1.264 . S
C100 C93 1.403 . S
C100 C101 1.399 . S
C100 H106 0.929 . S
C101 C81 1.449 . S
C101 C100 1.399 . S
C101 H107 0.930 . S
H102 C82 0.931 . S
H103 C83 0.930 . S
H104 C91 0.931 . S
H105 C92 0.929 . S
H106 C100 0.929 . S
H107 C101 0.930 . S
Mn108 O113 2.095 . S
Mn108 O123 2.162 . S
Mn108 O124 2.297 . S
Mn108 O132 2.385 . S
Mn108 O133 2.209 . S
Mn108 O134 2.094 . S
Mn109 O114 2.121 . S
Mn109 N116 2.257 . S
Mn109 N125 2.282 . S
Mn109 O133 2.215 . S
Mn109 O135 2.117 . S
C110 O132 1.234 . S
C110 O133 1.283 . S
C111 O123 1.281 . S
C111 O124 1.236 . S
C112 O134 1.240 . S
C112 O135 1.264 . S
O113 Mn108 2.095 . S
O113 C122 1.250 . S
O114 Mn109 2.121 . S
O114 C122 1.258 . S
C115 N116 1.326 . S
C115 C119 1.460 . S
C115 H121 0.929 . S
N116 Mn109 2.257 . S
N116 C115 1.326 . S
N116 C120 1.362 . S
C117 C118 1.258 . S
C117 C120 1.431 . S
C117 C137 1.449 . S
C118 C117 1.258 . S
C118 C119 1.477 . S
C118 H138 0.931 1_655 S
C119 C115 1.460 . S
C119 C118 1.477 . S
C119 H139 0.930 . S
C120 N116 1.362 . S
C120 C117 1.431 . S
C120 C130 1.476 . S
H121 C115 0.929 . S
C122 O113 1.250 . S
C122 O114 1.258 . S
O123 Mn108 2.162 . S
O123 C111 1.281 . S
O124 Mn108 2.297 . S
O124 C111 1.236 . S
N125 Mn109 2.282 . S
N125 C126 1.328 . S
N125 C130 1.318 . S
C126 N125 1.328 . S
C126 C127 1.457 . S
C126 H131 0.929 . S
C127 C126 1.457 . S
C127 C128 1.291 . S
C127 H140 0.931 1_545 S
C128 C127 1.291 . S
C128 C129 1.373 . S
C128 H141 0.929 . S
C129 C128 1.373 . S
C129 C130 1.396 . S
C129 C136 1.403 . S
C130 C120 1.476 . S
C130 N125 1.318 . S
C130 C129 1.396 . S
H131 C126 0.929 . S
O132 Mn108 2.385 . S
O132 C110 1.234 . S
O133 Mn108 2.209 . S
O133 Mn109 2.215 . S
O133 C110 1.283 . S
O134 Mn108 2.094 . S
O134 C112 1.240 . S
O135 Mn109 2.117 . S
O135 C112 1.264 . S
C136 C129 1.403 . S
C136 C137 1.399 . S
C136 H142 0.929 . S
C137 C117 1.449 . S
C137 C136 1.399 . S
C137 H143 0.930 1_655 S
H138 C118 0.931 1_455 S
H139 C119 0.930 . S
H140 C127 0.931 1_565 S
H141 C128 0.929 . S
H142 C136 0.929 . S
H143 C137 0.930 1_455 S
Mn144 O149 2.095 . S
Mn144 O159 2.162 . S
Mn144 O160 2.297 . S
Mn144 O168 2.385 . S
Mn144 O169 2.209 . S
Mn144 O170 2.094 . S
Mn145 O150 2.121 . S
Mn145 N152 2.257 . S
Mn145 N161 2.282 . S
Mn145 O169 2.215 . S
Mn145 O171 2.117 . S
C146 O168 1.234 . S
C146 O169 1.283 . S
C147 O159 1.281 . S
C147 O160 1.236 . S
C148 O170 1.240 . S
C148 O171 1.264 . S
O149 Mn144 2.095 . S
O149 C158 1.250 . S
O150 Mn145 2.121 . S
O150 C158 1.258 . S
C151 N152 1.326 . S
C151 C155 1.460 . S
C151 H157 0.929 . S
N152 Mn145 2.257 . S
N152 C151 1.326 . S
N152 C156 1.362 . S
C153 C154 1.258 . S
C153 C156 1.431 . S
C153 C173 1.449 . S
C154 C153 1.258 . S
C154 C155 1.477 . S
C154 H174 0.931 1_655 S
C155 C151 1.460 . S
C155 C154 1.477 . S
C155 H175 0.930 . S
C156 N152 1.362 . S
C156 C153 1.431 . S
C156 C166 1.476 . S
H157 C151 0.929 . S
C158 O149 1.250 . S
C158 O150 1.258 . S
O159 Mn144 2.162 . S
O159 C147 1.281 . S
O160 Mn144 2.297 . S
O160 C147 1.236 . S
N161 Mn145 2.282 . S
N161 C162 1.328 . S
N161 C166 1.318 . S
C162 N161 1.328 . S
C162 C163 1.457 . S
C162 H167 0.929 . S
C163 C162 1.457 . S
C163 C164 1.291 . S
C163 H176 0.931 . S
C164 C163 1.291 . S
C164 C165 1.373 . S
C164 H177 0.929 . S
C165 C164 1.373 . S
C165 C166 1.396 . S
C165 C172 1.403 . S
C166 C156 1.476 . S
C166 N161 1.318 . S
C166 C165 1.396 . S
H167 C162 0.929 . S
O168 Mn144 2.385 . S
O168 C146 1.234 . S
O169 Mn144 2.209 . S
O169 Mn145 2.215 . S
O169 C146 1.283 . S
O170 Mn144 2.094 . S
O170 C148 1.240 . S
O171 Mn145 2.117 . S
O171 C148 1.264 . S
C172 C165 1.403 . S
C172 C173 1.399 . S
C172 H178 0.929 . S
C173 C153 1.449 . S
C173 C172 1.399 . S
C173 H179 0.930 1_655 S
H174 C154 0.931 1_455 S
H175 C155 0.930 . S
H176 C163 0.931 . S
H177 C164 0.929 . S
H178 C172 0.929 . S
H179 C173 0.930 1_455 S
Mn180 O185 2.095 . S
Mn180 O195 2.162 . S
Mn180 O196 2.297 . S
Mn180 O204 2.385 . S
Mn180 O205 2.209 . S
Mn180 O206 2.094 . S
Mn181 O186 2.121 . S
Mn181 N188 2.257 . S
Mn181 N197 2.282 . S
Mn181 O205 2.215 . S
Mn181 O207 2.117 . S
C182 O204 1.234 . S
C182 O205 1.283 . S
C183 O195 1.281 . S
C183 O196 1.236 . S
C184 O206 1.240 . S
C184 O207 1.264 . S
O185 Mn180 2.095 . S
O185 C194 1.250 . S
O186 Mn181 2.121 . S
O186 C194 1.258 . S
C187 N188 1.326 . S
C187 C191 1.460 . S
C187 H193 0.929 . S
N188 Mn181 2.257 . S
N188 C187 1.326 . S
N188 C192 1.362 . S
C189 C190 1.258 . S
C189 C192 1.431 . S
C189 C209 1.449 . S
C190 C189 1.258 . S
C190 C191 1.477 . S
C190 H210 0.931 . S
C191 C187 1.460 . S
C191 C190 1.477 . S
C191 H211 0.930 . S
C192 N188 1.362 . S
C192 C189 1.431 . S
C192 C202 1.476 . S
H193 C187 0.929 . S
C194 O185 1.250 . S
C194 O186 1.258 . S
O195 Mn180 2.162 . S
O195 C183 1.281 . S
O196 Mn180 2.297 . S
O196 C183 1.236 . S
N197 Mn181 2.282 . S
N197 C198 1.328 . S
N197 C202 1.318 . S
C198 N197 1.328 . S
C198 C199 1.457 . S
C198 H203 0.929 . S
C199 C198 1.457 . S
C199 C200 1.291 . S
C199 H212 0.931 1_545 S
C200 C199 1.291 . S
C200 C201 1.373 . S
C200 H213 0.929 . S
C201 C200 1.373 . S
C201 C202 1.396 . S
C201 C208 1.403 . S
C202 C192 1.476 . S
C202 N197 1.318 . S
C202 C201 1.396 . S
H203 C198 0.929 . S
O204 Mn180 2.385 . S
O204 C182 1.234 . S
O205 Mn180 2.209 . S
O205 Mn181 2.215 . S
O205 C182 1.283 . S
O206 Mn180 2.094 . S
O206 C184 1.240 . S
O207 Mn181 2.117 . S
O207 C184 1.264 . S
C208 C201 1.403 . S
C208 C209 1.399 . S
C208 H214 0.929 . S
C209 C189 1.449 . S
C209 C208 1.399 . S
C209 H215 0.930 . S
H210 C190 0.931 . S
H211 C191 0.930 . S
H212 C199 0.931 1_565 S
H213 C200 0.929 . S
H214 C208 0.929 . S
H215 C209 0.930 . S
Mn216 O221 2.095 . S
Mn216 O231 2.162 . S
Mn216 O232 2.297 . S
Mn216 O240 2.385 . S
Mn216 O241 2.209 . S
Mn216 O242 2.094 . S
Mn217 O222 2.121 . S
Mn217 N224 2.257 . S
Mn217 N233 2.282 . S
Mn217 O241 2.215 . S
Mn217 O243 2.117 . S
C218 O240 1.234 . S
C218 O241 1.283 . S
C219 O231 1.281 . S
C219 O232 1.236 . S
C220 O242 1.240 . S
C220 O243 1.264 . S
O221 Mn216 2.095 . S
O221 C230 1.250 . S
O222 Mn217 2.121 . S
O222 C230 1.258 . S
C223 N224 1.326 . S
C223 C227 1.460 . S
C223 H229 0.929 . S
N224 Mn217 2.257 . S
N224 C223 1.326 . S
N224 C228 1.362 . S
C225 C226 1.258 . S
C225 C228 1.431 . S
C225 C245 1.449 . S
C226 C225 1.258 . S
C226 C227 1.477 . S
C226 H246 0.931 . S
C227 C223 1.460 . S
C227 C226 1.477 . S
C227 H247 0.930 . S
C228 N224 1.362 . S
C228 C225 1.431 . S
C228 C238 1.476 . S
H229 C223 0.929 . S
C230 O221 1.250 . S
C230 O222 1.258 . S
O231 Mn216 2.162 . S
O231 C219 1.281 . S
O232 Mn216 2.297 . S
O232 C219 1.236 . S
N233 Mn217 2.282 . S
N233 C234 1.328 . S
N233 C238 1.318 . S
C234 N233 1.328 . S
C234 C235 1.457 . S
C234 H239 0.929 . S
C235 C234 1.457 . S
C235 C236 1.291 . S
C235 H248 0.931 . S
C236 C235 1.291 . S
C236 C237 1.373 . S
C236 H249 0.929 . S
C237 C236 1.373 . S
C237 C238 1.396 . S
C237 C244 1.403 . S
C238 C228 1.476 . S
C238 N233 1.318 . S
C238 C237 1.396 . S
H239 C234 0.929 . S
O240 Mn216 2.385 . S
O240 C218 1.234 . S
O241 Mn216 2.209 . S
O241 Mn217 2.215 . S
O241 C218 1.283 . S
O242 Mn216 2.094 . S
O242 C220 1.240 . S
O243 Mn217 2.117 . S
O243 C220 1.264 . S
C244 C237 1.403 . S
C244 C245 1.399 . S
C244 H250 0.929 . S
C245 C225 1.449 . S
C245 C244 1.399 . S
C245 H251 0.930 . S
H246 C226 0.931 . S
H247 C227 0.930 . S
H248 C235 0.931 . S
H249 C236 0.929 . S
H250 C244 0.929 . S
H251 C245 0.930 . S
Mn252 O257 2.095 . S
Mn252 O267 2.162 . S
Mn252 O268 2.297 . S
Mn252 O276 2.385 . S
Mn252 O277 2.209 . S
Mn252 O278 2.094 . S
Mn253 O258 2.121 . S
Mn253 N260 2.257 . S
Mn253 N269 2.282 . S
Mn253 O277 2.215 . S
Mn253 O279 2.117 . S
C254 O276 1.234 . S
C254 O277 1.283 . S
C255 O267 1.281 . S
C255 O268 1.236 . S
C256 O278 1.240 . S
C256 O279 1.264 . S
O257 Mn252 2.095 . S
O257 C266 1.250 . S
O258 Mn253 2.121 . S
O258 C266 1.258 . S
C259 N260 1.326 . S
C259 C263 1.460 . S
C259 H265 0.929 . S
N260 Mn253 2.257 . S
N260 C259 1.326 . S
N260 C264 1.362 . S
C261 C262 1.258 . S
C261 C264 1.431 . S
C261 C281 1.449 . S
C262 C261 1.258 . S
C262 C263 1.477 . S
C262 H282 0.931 1_455 S
C263 C259 1.460 . S
C263 C262 1.477 . S
C263 H283 0.930 . S
C264 N260 1.362 . S
C264 C261 1.431 . S
C264 C274 1.476 . S
H265 C259 0.929 . S
C266 O257 1.250 . S
C266 O258 1.258 . S
O267 Mn252 2.162 . S
O267 C255 1.281 . S
O268 Mn252 2.297 . S
O268 C255 1.236 . S
N269 Mn253 2.282 . S
N269 C270 1.328 . S
N269 C274 1.318 . S
C270 N269 1.328 . S
C270 C271 1.457 . S
C270 H275 0.929 . S
C271 C270 1.457 . S
C271 C272 1.291 . S
C271 H284 0.931 1_565 S
C272 C271 1.291 . S
C272 C273 1.373 . S
C272 H285 0.929 . S
C273 C272 1.373 . S
C273 C274 1.396 . S
C273 C280 1.403 . S
C274 C264 1.476 . S
C274 N269 1.318 . S
C274 C273 1.396 . S
H275 C270 0.929 . S
O276 Mn252 2.385 . S
O276 C254 1.234 . S
O277 Mn252 2.209 . S
O277 Mn253 2.215 . S
O277 C254 1.283 . S
O278 Mn252 2.094 . S
O278 C256 1.240 . S
O279 Mn253 2.117 . S
O279 C256 1.264 . S
C280 C273 1.403 . S
C280 C281 1.399 . S
C280 H286 0.929 . S
C281 C261 1.449 . S
C281 C280 1.399 . S
C281 H287 0.930 1_455 S
H282 C262 0.931 1_655 S
H283 C263 0.930 . S
H284 C271 0.931 1_545 S
H285 C272 0.929 . S
H286 C280 0.929 . S
H287 C281 0.930 1_655 S
C288 C289 1.386 . S
C288 C290 1.383 . S
C288 H304 0.951 . S
C289 C288 1.386 . S
C289 C293 1.383 . S
C290 C288 1.383 . S
C290 C291 1.402 . S
C290 H305 0.951 . S
C291 C290 1.402 . S
C291 C292 1.375 . S
C291 C294 1.481 . S
C292 C291 1.375 . S
C292 C293 1.367 . S
C292 H306 0.951 . S
C293 C289 1.383 . S
C293 C292 1.367 . S
C293 H307 0.950 . S
C294 C291 1.481 . S
C294 C295 1.297 . S
C294 H308 0.950 . S
C295 C294 1.297 . S
C295 C296 1.479 . S
C295 H309 0.950 . S
C296 C295 1.479 . S
C296 C297 1.375 . S
C296 C302 1.404 . S
C297 C296 1.375 . S
C297 C298 1.369 . S
C297 H310 0.950 . S
C298 C297 1.369 . S
C298 C299 1.392 . S
C298 H311 0.951 . S
C299 C298 1.392 . S
C299 C301 1.384 . S
H300 C302 0.949 . S
C301 C299 1.384 . S
C301 C302 1.385 . S
C301 H303 0.950 . S
C302 C296 1.404 . S
C302 H300 0.949 . S
C302 C301 1.385 . S
H303 C301 0.950 . S
H304 C288 0.951 . S
H305 C290 0.951 . S
H306 C292 0.951 . S
H307 C293 0.950 . S
H308 C294 0.950 . S
H309 C295 0.950 . S
H310 C297 0.950 . S
H311 C298 0.951 . S
C312 C313 1.386 . S
C312 C314 1.383 1_655 S
C312 H328 0.951 . S
C313 C312 1.386 . S
C313 C317 1.383 . S
C314 C312 1.383 1_455 S
C314 C315 1.402 . S
C314 H329 0.951 . S
C315 C314 1.402 . S
C315 C316 1.375 1_545 S
C315 C318 1.481 1_545 S
C316 C315 1.375 1_565 S
C316 C317 1.367 1_465 S
C316 H330 0.951 . S
C317 C313 1.383 . S
C317 C316 1.367 1_645 S
C317 H331 0.950 1_545 S
C318 C315 1.481 1_565 S
C318 C319 1.297 1_565 S
C318 H332 0.950 . S
C319 C318 1.297 1_545 S
C319 C320 1.479 1_545 S
C319 H333 0.950 . S
C320 C319 1.479 1_565 S
C320 C321 1.375 1_565 S
C320 C326 1.404 . S
C321 C320 1.375 1_545 S
C321 C322 1.376 . S
C321 H334 0.950 . S
C322 C321 1.376 . S
C322 C323 1.370 1_545 S
C322 H335 0.967 . S
C323 C322 1.370 1_565 S
C323 C325 1.384 . S
H324 C326 0.949 . S
C325 C323 1.384 . S
C325 C326 1.385 . S
C325 H327 0.950 . S
C326 C320 1.404 . S
C326 H324 0.949 . S
C326 C325 1.385 . S
H327 C325 0.950 . S
H328 C312 0.951 . S
H329 C314 0.951 . S
H330 C316 0.951 . S
H331 C317 0.950 1_565 S
H332 C318 0.950 . S
H333 C319 0.950 . S
H334 C321 0.950 . S
H335 C322 0.967 . S
C336 C337 1.386 . S
C336 C338 1.383 . S
C336 H352 0.951 . S
C337 C336 1.386 . S
C337 C341 1.383 . S
C338 C336 1.383 . S
C338 C339 1.402 . S
C338 H353 0.951 . S
C339 C338 1.402 . S
C339 C340 1.375 . S
C339 C342 1.481 . S
C340 C339 1.375 . S
C340 C341 1.367 . S
C340 H354 0.951 . S
C341 C337 1.383 . S
C341 C340 1.367 . S
C341 H355 0.950 . S
C342 C339 1.481 . S
C342 C343 1.297 . S
C342 H356 0.950 . S
C343 C342 1.297 . S
C343 C344 1.479 . S
C343 H357 0.950 . S
C344 C343 1.479 . S
C344 C345 1.375 1_655 S
C344 C350 1.404 . S
C345 C344 1.375 1_455 S
C345 C346 1.369 . S
C345 H358 0.950 . S
C346 C345 1.369 . S
C346 C347 1.392 . S
C346 H359 0.951 . S
C347 C346 1.392 . S
C347 C349 1.384 1_455 S
H348 C350 0.949 . S
C349 C347 1.384 1_655 S
C349 C350 1.385 . S
C349 H351 0.950 . S
C350 C344 1.404 . S
C350 H348 0.949 . S
C350 C349 1.385 . S
H351 C349 0.950 . S
H352 C336 0.951 . S
H353 C338 0.951 . S
H354 C340 0.951 . S
H355 C341 0.950 . S
H356 C342 0.950 . S
H357 C343 0.950 . S
H358 C345 0.950 . S
H359 C346 0.951 . S
C360 C361 1.386 1_565 S
C360 C362 1.383 . S
C360 H376 0.951 . S
C361 C360 1.386 1_545 S
C361 C365 1.383 . S
C362 C360 1.383 . S
C362 C363 1.402 1_565 S
C362 H377 0.951 . S
C363 C362 1.402 1_545 S
C363 C364 1.375 . S
C363 C366 1.481 . S
C364 C363 1.375 . S
C364 C365 1.367 . S
C364 H378 0.951 . S
C365 C361 1.383 . S
C365 C364 1.367 . S
C365 H379 0.950 . S
C366 C363 1.481 . S
C366 C367 1.297 1_545 S
C366 H380 0.950 . S
C367 C366 1.297 1_565 S
C367 C368 1.479 . S
C367 H381 0.950 . S
C368 C367 1.479 . S
C368 C369 1.375 . S
C368 C374 1.404 1_565 S
C369 C368 1.375 . S
C369 C370 1.369 . S
C369 H382 0.950 . S
C370 C369 1.369 . S
C370 C371 1.392 . S
C370 H383 0.951 . S
C371 C370 1.392 . S
C371 C373 1.384 . S
H372 C374 0.949 . S
C373 C371 1.384 . S
C373 C374 1.385 1_565 S
C373 H375 0.950 1_565 S
C374 C368 1.404 1_545 S
C374 H372 0.949 . S
C374 C373 1.385 1_545 S
H375 C373 0.950 1_545 S
H376 C360 0.951 . S
H377 C362 0.951 . S
H378 C364 0.951 . S
H379 C365 0.950 . S
H380 C366 0.950 . S
H381 C367 0.950 . S
H382 C369 0.950 . S
H383 C370 0.951 . S
C384 C385 1.386 . S
C384 C386 1.383 . S
C384 H400 0.951 . S
C385 C384 1.386 . S
C385 C389 1.383 . S
C386 C384 1.383 . S
C386 C387 1.402 . S
C386 H401 0.951 . S
C387 C386 1.402 . S
C387 C388 1.375 . S
C387 C390 1.481 . S
C388 C387 1.375 . S
C388 C389 1.367 . S
C388 H402 0.951 . S
C389 C385 1.383 . S
C389 C388 1.367 . S
C389 H403 0.950 . S
C390 C387 1.481 . S
C390 C391 1.297 . S
C390 H404 0.950 . S
C391 C390 1.297 . S
C391 C392 1.479 . S
C391 H405 0.950 . S
C392 C391 1.479 . S
C392 C393 1.375 . S
C392 C398 1.404 . S
C393 C392 1.375 . S
C393 C394 1.369 . S
C393 H406 0.950 . S
C394 C393 1.369 . S
C394 C395 1.392 . S
C394 H407 0.951 . S
C395 C394 1.392 . S
C395 C397 1.384 . S
H396 C398 0.949 . S
C397 C395 1.384 . S
C397 C398 1.385 . S
C397 H399 0.950 . S
C398 C392 1.404 . S
C398 H396 0.949 . S
C398 C397 1.385 . S
H399 C397 0.950 . S
H400 C384 0.951 . S
H401 C386 0.951 . S
H402 C388 0.951 . S
H403 C389 0.950 . S
H404 C390 0.950 . S
H405 C391 0.950 . S
H406 C393 0.950 . S
H407 C394 0.951 . S
C408 C409 1.386 . S
C408 C410 1.383 . S
C408 H424 0.951 . S
C409 C408 1.386 . S
C409 C413 1.383 . S
C410 C408 1.383 . S
C410 C411 1.402 . S
C410 H425 0.951 . S
C411 C410 1.402 . S
C411 C412 1.371 1_545 S
C411 C414 1.481 1_545 S
C412 C411 1.371 1_565 S
C412 C413 1.363 1_565 S
C412 H426 0.960 . S
C413 C409 1.383 . S
C413 C412 1.363 1_545 S
C413 H427 0.950 . S
C414 C411 1.481 1_565 S
C414 C415 1.297 1_565 S
C414 H428 0.950 . S
C415 C414 1.297 1_545 S
C415 C416 1.479 1_545 S
C415 H429 0.950 . S
C416 C415 1.479 1_565 S
C416 C417 1.375 1_665 S
C416 C422 1.404 . S
C417 C416 1.375 1_445 S
C417 C418 1.369 1_545 S
C417 H430 0.950 . S
C418 C417 1.369 1_565 S
C418 C419 1.392 . S
C418 H431 0.951 . S
C419 C418 1.392 . S
C419 C421 1.384 1_455 S
H420 C422 0.949 . S
C421 C419 1.384 1_655 S
C421 C422 1.385 . S
C421 H423 0.950 . S
C422 C416 1.404 . S
C422 H420 0.949 . S
C422 C421 1.385 . S
H423 C421 0.950 . S
H424 C408 0.951 . S
H425 C410 0.951 . S
H426 C412 0.960 . S
H427 C413 0.950 . S
H428 C414 0.950 . S
H429 C415 0.950 . S
H430 C417 0.950 . S
H431 C418 0.951 . S
C432 C433 1.386 . S
C432 C434 1.383 . S
C432 H448 0.951 . S
C433 C432 1.386 . S
C433 C437 1.383 . S
C434 C432 1.383 . S
C434 C435 1.402 . S
C434 H449 0.951 . S
C435 C434 1.402 . S
C435 C436 1.375 . S
C435 C438 1.481 . S
C436 C435 1.375 . S
C436 C437 1.367 . S
C436 H450 0.951 . S
C437 C433 1.383 . S
C437 C436 1.367 . S
C437 H451 0.950 . S
C438 C435 1.481 . S
C438 C439 1.297 . S
C438 H452 0.950 . S
C439 C438 1.297 . S
C439 C440 1.479 . S
C439 H453 0.950 . S
C440 C439 1.479 . S
C440 C441 1.375 . S
C440 C446 1.404 . S
C441 C440 1.375 . S
C441 C442 1.369 1_455 S
C441 H454 0.950 . S
C442 C441 1.369 1_655 S
C442 C443 1.392 . S
C442 H455 0.951 . S
C443 C442 1.392 . S
C443 C445 1.384 1_655 S
H444 C446 0.949 . S
C445 C443 1.384 1_455 S
C445 C446 1.385 . S
C445 H447 0.950 . S
C446 C440 1.404 . S
C446 H444 0.949 . S
C446 C445 1.385 . S
H447 C445 0.950 . S
H448 C432 0.951 . S
H449 C434 0.951 . S
H450 C436 0.951 . S
H451 C437 0.950 . S
H452 C438 0.950 . S
H453 C439 0.950 . S
H454 C441 0.950 . S
H455 C442 0.951 . S
C456 C457 1.386 . S
C456 C458 1.383 1_565 S
C456 H472 0.951 1_565 S
C457 C456 1.386 . S
C457 C461 1.383 . S
C458 C456 1.383 1_545 S
C458 C459 1.402 1_545 S
C458 H473 0.951 . S
C459 C458 1.402 1_565 S
C459 C460 1.375 . S
C459 C462 1.481 . S
C460 C459 1.375 . S
C460 C461 1.367 . S
C460 H474 0.951 . S
C461 C457 1.383 . S
C461 C460 1.367 . S
C461 H475 0.950 . S
C462 C459 1.481 . S
C462 C463 1.297 1_565 S
C462 H476 0.950 . S
C463 C462 1.297 1_545 S
C463 C464 1.479 . S
C463 H477 0.950 . S
C464 C463 1.479 . S
C464 C465 1.375 . S
C464 C470 1.404 1_545 S
C465 C464 1.375 . S
C465 C466 1.369 . S
C465 H478 0.950 . S
C466 C465 1.369 . S
C466 C467 1.392 . S
C466 H479 0.951 . S
C467 C466 1.392 . S
C467 C469 1.384 . S
H468 C470 0.949 . S
C469 C467 1.384 . S
C469 C470 1.385 1_545 S
C469 H471 0.950 1_545 S
C470 C464 1.404 1_565 S
C470 H468 0.949 . S
C470 C469 1.385 1_565 S
H471 C469 0.950 1_565 S
H472 C456 0.951 1_545 S
H473 C458 0.951 . S
H474 C460 0.951 . S
H475 C461 0.950 . S
H476 C462 0.950 . S
H477 C463 0.950 . S
H478 C465 0.950 . S
H479 C466 0.951 . S
C480 C481 1.386 . S
C480 C482 1.383 . S
C480 H496 0.951 . S
C481 C480 1.386 . S
C481 C485 1.383 . S
C482 C480 1.383 . S
C482 C483 1.402 . S
C482 H497 0.951 . S
C483 C482 1.402 . S
C483 C484 1.375 1_455 S
C483 C486 1.481 1_455 S
C484 C483 1.375 1_655 S
C484 C485 1.367 1_655 S
C484 H498 0.951 . S
C485 C481 1.383 . S
C485 C484 1.367 1_455 S
C485 H499 0.950 . S
C486 C483 1.481 1_655 S
C486 C487 1.297 1_655 S
C486 H500 0.950 . S
C487 C486 1.297 1_455 S
C487 C488 1.479 1_455 S
C487 H501 0.950 . S
C488 C487 1.479 1_655 S
C488 C489 1.375 . S
C488 C494 1.404 . S
C489 C488 1.375 . S
C489 C490 1.369 . S
C489 H502 0.950 1_655 S
C490 C489 1.369 . S
C490 C491 1.392 . S
C490 H503 0.951 . S
C491 C490 1.392 . S
C491 C493 1.384 . S
H492 C494 0.949 . S
C493 C491 1.384 . S
C493 C494 1.385 . S
C493 H495 0.950 . S
C494 C488 1.404 . S
C494 H492 0.949 . S
C494 C493 1.385 . S
H495 C493 0.950 . S
H496 C480 0.951 . S
H497 C482 0.951 . S
H498 C484 0.951 . S
H499 C485 0.950 . S
H500 C486 0.950 . S
H501 C487 0.950 . S
H502 C489 0.950 1_455 S
H503 C490 0.951 . S
C504 C505 1.386 . S
C504 C506 1.383 . S
C504 H520 0.951 . S
C505 C504 1.386 . S
C505 C509 1.383 . S
C506 C504 1.383 . S
C506 C507 1.402 . S
C506 H521 0.951 . S
C507 C506 1.402 . S
C507 C508 1.375 . S
C507 C510 1.481 . S
C508 C507 1.375 . S
C508 C509 1.367 . S
C508 H522 0.951 . S
C509 C505 1.383 . S
C509 C508 1.367 . S
C509 H523 0.950 . S
C510 C507 1.481 . S
C510 C511 1.297 . S
C510 H524 0.950 . S
C511 C510 1.297 . S
C511 C512 1.479 1_565 S
C511 H525 0.950 . S
C512 C511 1.479 1_545 S
C512 C513 1.375 . S
C512 C518 1.404 . S
C513 C512 1.375 . S
C513 C514 1.369 . S
C513 H526 0.951 . S
C514 C513 1.369 . S
C514 C515 1.392 . S
C514 H527 0.951 . S
C515 C514 1.392 . S
C515 C517 1.384 . S
H516 C518 0.949 . S
C517 C515 1.384 . S
C517 C518 1.385 . S
C517 H519 0.950 . S
C518 C512 1.404 . S
C518 H516 0.949 . S
C518 C517 1.385 . S
H519 C517 0.950 . S
H520 C504 0.951 . S
H521 C506 0.951 . S
H522 C508 0.951 . S
H523 C509 0.950 . S
H524 C510 0.950 . S
H525 C511 0.950 . S
H526 C513 0.951 . S
H527 C514 0.951 . S
C528 C529 1.386 . S
C528 C530 1.383 . S
C528 H544 0.951 . S
C529 C528 1.386 . S
C529 C533 1.383 . S
C530 C528 1.383 . S
C530 C531 1.402 . S
C530 H545 0.951 . S
C531 C530 1.402 . S
C531 C532 1.375 . S
C531 C534 1.481 . S
C532 C531 1.375 . S
C532 C533 1.367 . S
C532 H546 0.951 . S
C533 C529 1.383 . S
C533 C532 1.367 . S
C533 H547 0.950 . S
C534 C531 1.481 . S
C534 C535 1.297 1_554 S
C534 H548 0.950 . S
C535 C534 1.297 1_556 S
C535 C536 1.479 . S
C535 H549 0.950 . S
C536 C535 1.479 . S
C536 C537 1.375 . S
C536 C542 1.404 . S
C537 C536 1.375 . S
C537 C538 1.369 . S
C537 H550 0.950 . S
C538 C537 1.369 . S
C538 C539 1.392 . S
C538 H551 0.951 . S
C539 C538 1.392 . S
C539 C541 1.384 . S
H540 C542 0.949 . S
C541 C539 1.384 . S
C541 C542 1.385 . S
C541 H543 0.950 . S
C542 C536 1.404 . S
C542 H540 0.949 . S
C542 C541 1.385 . S
H543 C541 0.950 . S
H544 C528 0.951 . S
H545 C530 0.951 . S
H546 C532 0.951 . S
H547 C533 0.950 . S
H548 C534 0.950 . S
H549 C535 0.950 . S
H550 C537 0.950 . S
H551 C538 0.951 . S
C552 C553 1.386 . S
C552 C554 1.383 . S
C552 H568 0.951 . S
C553 C552 1.386 . S
C553 C557 1.383 . S
C554 C552 1.383 . S
C554 C555 1.402 . S
C554 H569 0.951 . S
C555 C554 1.402 . S
C555 C556 1.375 1_565 S
C555 C558 1.481 1_565 S
C556 C555 1.375 1_545 S
C556 C557 1.367 1_545 S
C556 H570 0.951 . S
C557 C553 1.383 . S
C557 C556 1.367 1_565 S
C557 H571 0.950 1_565 S
C558 C555 1.481 1_545 S
C558 C559 1.297 1_546 S
C558 H572 0.950 . S
C559 C558 1.297 1_564 S
C559 C560 1.479 1_465 S
C559 H573 0.950 . S
C560 C559 1.479 1_645 S
C560 C561 1.375 1_545 S
C560 C566 1.404 . S
C561 C560 1.375 1_565 S
C561 C562 1.369 1_565 S
C561 H574 0.950 . S
C562 C561 1.369 1_545 S
C562 C563 1.392 . S
C562 H575 0.951 1_545 S
C563 C562 1.392 . S
C563 C565 1.384 . S
H564 C566 0.949 1_455 S
C565 C563 1.384 . S
C565 C566 1.385 . S
C565 H567 0.950 . S
C566 C560 1.404 . S
C566 H564 0.949 1_655 S
C566 C565 1.385 . S
H567 C565 0.950 . S
H568 C552 0.951 . S
H569 C554 0.951 . S
H570 C556 0.951 . S
H571 C557 0.950 1_545 S
H572 C558 0.950 . S
H573 C559 0.950 . S
H574 C561 0.950 . S
H575 C562 0.951 1_565 S
C576 C577 1.386 . S
C576 C578 1.383 . S
C576 H592 0.951 . S
C577 C576 1.386 . S
C577 C581 1.383 . S
C578 C576 1.383 . S
C578 C579 1.402 . S
C578 H593 0.951 . S
C579 C578 1.402 . S
C579 C580 1.375 . S
C579 C582 1.481 . S
C580 C579 1.375 . S
C580 C581 1.367 . S
C580 H594 0.951 . S
C581 C577 1.383 . S
C581 C580 1.367 . S
C581 H595 0.950 . S
C582 C579 1.481 . S
C582 C583 1.297 . S
C582 H596 0.950 . S
C583 C582 1.297 . S
C583 C584 1.479 . S
C583 H597 0.950 . S
C584 C583 1.479 . S
C584 C585 1.375 . S
C584 C590 1.404 . S
C585 C584 1.375 . S
C585 C586 1.369 . S
C585 H598 0.950 . S
C586 C585 1.369 . S
C586 C587 1.392 . S
C586 H599 0.951 . S
C587 C586 1.392 . S
C587 C589 1.384 . S
H588 C590 0.949 . S
C589 C587 1.384 . S
C589 C590 1.385 . S
C589 H591 0.950 . S
C590 C584 1.404 . S
C590 H588 0.949 . S
C590 C589 1.385 . S
H591 C589 0.950 . S
H592 C576 0.951 . S
H593 C578 0.951 . S
H594 C580 0.951 . S
H595 C581 0.950 . S
H596 C582 0.950 . S
H597 C583 0.950 . S
H598 C585 0.950 . S
H599 C586 0.951 . S
C600 C601 1.386 . S
C600 C602 1.383 . S
C600 H616 0.951 . S
C601 C600 1.386 . S
C601 C605 1.383 . S
C602 C600 1.383 . S
C602 C603 1.402 . S
C602 H617 0.951 . S
C603 C602 1.402 . S
C603 C604 1.375 . S
C603 C606 1.481 . S
C604 C603 1.375 . S
C604 C605 1.367 . S
C604 H618 0.951 . S
C605 C601 1.383 . S
C605 C604 1.367 . S
C605 H619 0.950 . S
C606 C603 1.481 . S
C606 C607 1.297 . S
C606 H620 0.950 . S
C607 C606 1.297 . S
C607 C608 1.479 . S
C607 H621 0.950 . S
C608 C607 1.479 . S
C608 C609 1.375 . S
C608 C614 1.404 . S
C609 C608 1.375 . S
C609 C610 1.369 . S
C609 H622 0.950 . S
C610 C609 1.369 . S
C610 C611 1.392 . S
C610 H623 0.951 . S
C611 C610 1.392 . S
C611 C613 1.384 . S
H612 C614 0.949 . S
C613 C611 1.384 . S
C613 C614 1.385 . S
C613 H615 0.950 . S
C614 C608 1.404 . S
C614 H612 0.949 . S
C614 C613 1.385 . S
H615 C613 0.950 . S
H616 C600 0.951 . S
H617 C602 0.951 . S
H618 C604 0.951 . S
H619 C605 0.950 . S
H620 C606 0.950 . S
H621 C607 0.950 . S
H622 C609 0.950 . S
H623 C610 0.951 . S
C624 C625 1.386 . S
C624 C626 1.383 . S
C624 H640 0.951 . S
C625 C624 1.386 . S
C625 C629 1.383 . S
C626 C624 1.383 . S
C626 C627 1.402 . S
C626 H641 0.951 . S
C627 C626 1.402 . S
C627 C628 1.375 . S
C627 C630 1.481 . S
C628 C627 1.375 . S
C628 C629 1.367 . S
C628 H642 0.951 . S
C629 C625 1.383 . S
C629 C628 1.367 . S
C629 H643 0.950 . S
C630 C627 1.481 . S
C630 C631 1.297 . S
C630 H644 0.950 . S
C631 C630 1.297 . S
C631 C632 1.479 . S
C631 H645 0.950 . S
C632 C631 1.479 . S
C632 C633 1.375 . S
C632 C638 1.404 . S
C633 C632 1.375 . S
C633 C634 1.369 . S
C633 H646 0.950 . S
C634 C633 1.369 . S
C634 C635 1.392 . S
C634 H647 0.951 . S
C635 C634 1.392 . S
C635 C637 1.384 . S
H636 C638 0.949 . S
C637 C635 1.384 . S
C637 C638 1.385 . S
C637 H639 0.950 . S
C638 C632 1.404 . S
C638 H636 0.949 . S
C638 C637 1.385 . S
H639 C637 0.950 . S
H640 C624 0.951 . S
H641 C626 0.951 . S
H642 C628 0.951 . S
H643 C629 0.950 . S
H644 C630 0.950 . S
H645 C631 0.950 . S
H646 C633 0.950 . S
H647 C634 0.951 . S
C648 C649 1.386 . S
C648 C650 1.383 . S
C648 H664 0.951 . S
C649 C648 1.386 . S
C649 C653 1.383 . S
C650 C648 1.383 . S
C650 C651 1.402 . S
C650 H665 0.951 . S
C651 C650 1.402 . S
C651 C652 1.375 . S
C651 C654 1.481 . S
C652 C651 1.375 . S
C652 C653 1.367 . S
C652 H666 0.951 . S
C653 C649 1.383 . S
C653 C652 1.367 . S
C653 H667 0.950 . S
C654 C651 1.481 . S
C654 C655 1.297 . S
C654 H668 0.950 . S
C655 C654 1.297 . S
C655 C656 1.479 . S
C655 H669 0.950 . S
C656 C655 1.479 . S
C656 C657 1.375 . S
C656 C662 1.404 . S
C657 C656 1.375 . S
C657 C658 1.369 . S
C657 H670 0.950 . S
C658 C657 1.369 . S
C658 C659 1.392 . S
C658 H671 0.951 . S
C659 C658 1.392 . S
C659 C661 1.384 . S
H660 C662 0.949 . S
C661 C659 1.384 . S
C661 C662 1.385 . S
C661 H663 0.950 . S
C662 C656 1.404 . S
C662 H660 0.949 . S
C662 C661 1.385 . S
H663 C661 0.950 . S
H664 C648 0.951 . S
H665 C650 0.951 . S
H666 C652 0.951 . S
H667 C653 0.950 . S
H668 C654 0.950 . S
H669 C655 0.950 . S
H670 C657 0.950 . S
H671 C658 0.951 . S
C289 C4 1.318 . S
C299 C74 1.282 . S
C313 C110 1.299 . S
C323 C40 1.322 . S
C337 C76 1.318 . S
C347 C2 1.310 . S
C361 C112 1.286 . S
C371 C38 1.316 . S
C385 C218 1.316 . S
C395 C148 1.315 . S
C409 C184 1.286 . S
C419 C254 1.289 . S
C433 C220 1.302 . S
C443 C146 1.311 . S
C457 C256 1.301 . S
C467 C182 1.295 . S
C481 C3 1.516 . S
C491 C147 1.501 . S
C505 C39 1.514 . S
C515 C183 1.502 . S
C529 C75 1.512 . S
C539 C219 1.506 . S
C553 C255 1.516 . S
C563 C111 1.501 . S
C577 C14 1.457 . S
C587 C50 1.490 . S
C601 C122 1.411 . S
C611 C86 1.419 . S
C625 C194 1.410 . S
C635 C158 1.385 . S
C649 C230 1.461 . S
C659 C266 1.442 . S
