# Generated by pormake.
# Topology ana, (4)-cn, num edge types: 1
# Building blocks:
#     Node 0, Type 0, BuildingBlock: QUQFOY_clean_sbu_1, # of connection points: 4
#     Node 1, Type 0, BuildingBlock: QUQFOY_clean_sbu_1, # of connection points: 4
#     Node 2, Type 0, BuildingBlock: QUQFOY_clean_sbu_1, # of connection points: 4
#     Node 3, Type 0, BuildingBlock: QUQFOY_clean_sbu_1, # of connection points: 4
#     Node 4, Type 0, BuildingBlock: QUQFOY_clean_sbu_1, # of connection points: 4
#     Node 5, Type 0, BuildingBlock: QUQFOY_clean_sbu_1, # of connection points: 4
#     Node 6, Type 0, BuildingBlock: QUQFOY_clean_sbu_1, # of connection points: 4
#     Node 7, Type 0, BuildingBlock: QUQFOY_clean_sbu_1, # of connection points: 4
#     Node 8, Type 0, BuildingBlock: QUQFOY_clean_sbu_1, # of connection points: 4
#     Node 9, Type 0, BuildingBlock: QUQFOY_clean_sbu_1, # of connection points: 4
#     Node 10, Type 0, BuildingBlock: QUQFOY_clean_sbu_1, # of connection points: 4
#     Node 11, Type 0, BuildingBlock: QUQFOY_clean_sbu_1, # of connection points: 4
#     Node 12, Type 0, BuildingBlock: QUQFOY_clean_sbu_1, # of connection points: 4
#     Node 13, Type 0, BuildingBlock: QUQFOY_clean_sbu_1, # of connection points: 4
#     Node 14, Type 0, BuildingBlock: QUQFOY_clean_sbu_1, # of connection points: 4
#     Node 15, Type 0, BuildingBlock: QUQFOY_clean_sbu_1, # of connection points: 4
#     Node 16, Type 0, BuildingBlock: QUQFOY_clean_sbu_1, # of connection points: 4
#     Node 17, Type 0, BuildingBlock: QUQFOY_clean_sbu_1, # of connection points: 4
#     Node 18, Type 0, BuildingBlock: QUQFOY_clean_sbu_1, # of connection points: 4
#     Node 19, Type 0, BuildingBlock: QUQFOY_clean_sbu_1, # of connection points: 4
#     Node 20, Type 0, BuildingBlock: QUQFOY_clean_sbu_1, # of connection points: 4
#     Node 21, Type 0, BuildingBlock: QUQFOY_clean_sbu_1, # of connection points: 4
#     Node 22, Type 0, BuildingBlock: QUQFOY_clean_sbu_1, # of connection points: 4
#     Node 23, Type 0, BuildingBlock: QUQFOY_clean_sbu_1, # of connection points: 4
#     Node 24, Type 0, BuildingBlock: QUQFOY_clean_sbu_1, # of connection points: 4
#     Node 25, Type 0, BuildingBlock: QUQFOY_clean_sbu_1, # of connection points: 4
#     Node 26, Type 0, BuildingBlock: QUQFOY_clean_sbu_1, # of connection points: 4
#     Node 27, Type 0, BuildingBlock: QUQFOY_clean_sbu_1, # of connection points: 4
#     Node 28, Type 0, BuildingBlock: QUQFOY_clean_sbu_1, # of connection points: 4
#     Node 29, Type 0, BuildingBlock: QUQFOY_clean_sbu_1, # of connection points: 4
#     Node 30, Type 0, BuildingBlock: QUQFOY_clean_sbu_1, # of connection points: 4
#     Node 31, Type 0, BuildingBlock: QUQFOY_clean_sbu_1, # of connection points: 4
#     Node 32, Type 0, BuildingBlock: QUQFOY_clean_sbu_1, # of connection points: 4
#     Node 33, Type 0, BuildingBlock: QUQFOY_clean_sbu_1, # of connection points: 4
#     Node 34, Type 0, BuildingBlock: QUQFOY_clean_sbu_1, # of connection points: 4
#     Node 35, Type 0, BuildingBlock: QUQFOY_clean_sbu_1, # of connection points: 4
#     Node 36, Type 0, BuildingBlock: QUQFOY_clean_sbu_1, # of connection points: 4
#     Node 37, Type 0, BuildingBlock: QUQFOY_clean_sbu_1, # of connection points: 4
#     Node 38, Type 0, BuildingBlock: QUQFOY_clean_sbu_1, # of connection points: 4
#     Node 39, Type 0, BuildingBlock: QUQFOY_clean_sbu_1, # of connection points: 4
#     Node 40, Type 0, BuildingBlock: QUQFOY_clean_sbu_1, # of connection points: 4
#     Node 41, Type 0, BuildingBlock: QUQFOY_clean_sbu_1, # of connection points: 4
#     Node 42, Type 0, BuildingBlock: QUQFOY_clean_sbu_1, # of connection points: 4
#     Node 43, Type 0, BuildingBlock: QUQFOY_clean_sbu_1, # of connection points: 4
#     Node 44, Type 0, BuildingBlock: QUQFOY_clean_sbu_1, # of connection points: 4
#     Node 45, Type 0, BuildingBlock: QUQFOY_clean_sbu_1, # of connection points: 4
#     Node 46, Type 0, BuildingBlock: QUQFOY_clean_sbu_1, # of connection points: 4
#     Node 47, Type 0, BuildingBlock: QUQFOY_clean_sbu_1, # of connection points: 4
#     Edge 48, Type (0, 0), None
#     Edge 49, Type (0, 0), None
#     Edge 50, Type (0, 0), None
#     Edge 51, Type (0, 0), None
#     Edge 52, Type (0, 0), None
#     Edge 53, Type (0, 0), None
#     Edge 54, Type (0, 0), None
#     Edge 55, Type (0, 0), None
#     Edge 56, Type (0, 0), None
#     Edge 57, Type (0, 0), None
#     Edge 58, Type (0, 0), None
#     Edge 59, Type (0, 0), None
#     Edge 60, Type (0, 0), None
#     Edge 61, Type (0, 0), None
#     Edge 62, Type (0, 0), None
#     Edge 63, Type (0, 0), None
#     Edge 64, Type (0, 0), None
#     Edge 65, Type (0, 0), None
#     Edge 66, Type (0, 0), None
#     Edge 67, Type (0, 0), None
#     Edge 68, Type (0, 0), None
#     Edge 69, Type (0, 0), None
#     Edge 70, Type (0, 0), None
#     Edge 71, Type (0, 0), None
#     Edge 72, Type (0, 0), None
#     Edge 73, Type (0, 0), None
#     Edge 74, Type (0, 0), None
#     Edge 75, Type (0, 0), None
#     Edge 76, Type (0, 0), None
#     Edge 77, Type (0, 0), None
#     Edge 78, Type (0, 0), None
#     Edge 79, Type (0, 0), None
#     Edge 80, Type (0, 0), None
#     Edge 81, Type (0, 0), None
#     Edge 82, Type (0, 0), None
#     Edge 83, Type (0, 0), None
#     Edge 84, Type (0, 0), None
#     Edge 85, Type (0, 0), None
#     Edge 86, Type (0, 0), None
#     Edge 87, Type (0, 0), None
#     Edge 88, Type (0, 0), None
#     Edge 89, Type (0, 0), None
#     Edge 90, Type (0, 0), None
#     Edge 91, Type (0, 0), None
#     Edge 92, Type (0, 0), None
#     Edge 93, Type (0, 0), None
#     Edge 94, Type (0, 0), None
#     Edge 95, Type (0, 0), None
#     Edge 96, Type (0, 0), None
#     Edge 97, Type (0, 0), None
#     Edge 98, Type (0, 0), None
#     Edge 99, Type (0, 0), None
#     Edge 100, Type (0, 0), None
#     Edge 101, Type (0, 0), None
#     Edge 102, Type (0, 0), None
#     Edge 103, Type (0, 0), None
#     Edge 104, Type (0, 0), None
#     Edge 105, Type (0, 0), None
#     Edge 106, Type (0, 0), None
#     Edge 107, Type (0, 0), None
#     Edge 108, Type (0, 0), None
#     Edge 109, Type (0, 0), None
#     Edge 110, Type (0, 0), None
#     Edge 111, Type (0, 0), None
#     Edge 112, Type (0, 0), None
#     Edge 113, Type (0, 0), None
#     Edge 114, Type (0, 0), None
#     Edge 115, Type (0, 0), None
#     Edge 116, Type (0, 0), None
#     Edge 117, Type (0, 0), None
#     Edge 118, Type (0, 0), None
#     Edge 119, Type (0, 0), None
#     Edge 120, Type (0, 0), None
#     Edge 121, Type (0, 0), None
#     Edge 122, Type (0, 0), None
#     Edge 123, Type (0, 0), None
#     Edge 124, Type (0, 0), None
#     Edge 125, Type (0, 0), None
#     Edge 126, Type (0, 0), None
#     Edge 127, Type (0, 0), None
#     Edge 128, Type (0, 0), None
#     Edge 129, Type (0, 0), None
#     Edge 130, Type (0, 0), None
#     Edge 131, Type (0, 0), None
#     Edge 132, Type (0, 0), None
#     Edge 133, Type (0, 0), None
#     Edge 134, Type (0, 0), None
#     Edge 135, Type (0, 0), None
#     Edge 136, Type (0, 0), None
#     Edge 137, Type (0, 0), None
#     Edge 138, Type (0, 0), None
#     Edge 139, Type (0, 0), None
#     Edge 140, Type (0, 0), None
#     Edge 141, Type (0, 0), None
#     Edge 142, Type (0, 0), None
#     Edge 143, Type (0, 0), None
# Relax obj value: 0.125
# Max RMSD: 0.200
# Mean RMSD: 0.142
data_MOF--net-ana--node1-QUQFOY_clean_sbu_1--edge1-none
_symmetry_space_group_name_H-M    P1
_symmetry_Int_Tables_number       1
_symmetry_cell_setting            triclinic
loop_
_symmetry_equiv_pos_as_xyz
'x, y, z'
_cell_length_a     31.517173
_cell_length_b     32.061697
_cell_length_c     31.291351
_cell_angle_alpha  90.997573
_cell_angle_beta   91.571021
_cell_angle_gamma 93.555228
loop_
_atom_site_label
_atom_site_type_symbol
_atom_site_fract_x
_atom_site_fract_y
_atom_site_fract_z
_atom_type_partial_charge
O0 O 0.11547 0.10552 0.48086 0.0
Cd1 Cd 0.12096 0.11247 0.41524 0.0
Cd2 Cd 0.10226 0.19054 0.43577 0.0
O3 O 0.12185 0.17304 0.49567 0.0
O4 O 0.15916 0.06794 0.39926 0.0
O5 O 0.17738 0.13567 0.39481 0.0
C6 C 0.18774 0.09735 0.39209 0.0
C7 C 0.11588 0.25974 0.41506 0.0
C8 C 0.12047 0.13548 0.50797 0.0
C9 C 0.03691 0.13548 0.38649 0.0
O10 O 0.04407 0.16533 0.41342 0.0
O11 O 0.06608 0.11156 0.37698 0.0
O12 O 0.0919 0.25026 0.44646 0.0
O13 O 0.13394 0.23003 0.39571 0.0
O14 O 0.10901 0.95077 0.67266 0.0
Cd15 Cd 0.07615 0.90016 0.6972 0.0
Cd16 Cd 0.1005 0.8674 0.62244 0.0
O17 O 0.14264 0.91975 0.62123 0.0
O18 O 0.07842 0.91559 0.75869 0.0
O19 O 0.10938 0.86066 0.7327 0.0
C20 C 0.10287 0.88532 0.76463 0.0
C21 C 0.11777 0.80111 0.60123 0.0
C22 C 0.13665 0.9519 0.64403 0.0
C23 C 0.0061 0.87975 0.63717 0.0
O24 O 0.03603 0.87293 0.61209 0.0
O25 O 0.01394 0.88907 0.67629 0.0
O26 O 0.11184 0.82975 0.57372 0.0
O27 O 0.11784 0.81106 0.64142 0.0
O28 O 0.45514 0.84503 0.92743 0.0
Cd29 Cd 0.39811 0.81839 0.94732 0.0
Cd30 Cd 0.37282 0.89275 0.92457 0.0
O31 O 0.42834 0.89496 0.88941 0.0
O32 O 0.41025 0.75959 0.9587 0.0
O33 O 0.36692 0.77693 0.90601 0.0
C34 C 0.38588 0.74843 0.92634 0.0
C35 C 0.3039 0.89278 0.89583 0.0
C36 C 0.45962 0.87373 0.90019 0.0
C37 C 0.37385 0.87508 0.01721 0.0
O38 O 0.37641 0.90421 0.9902 0.0
O39 O 0.37668 0.83738 0.00531 0.0
O40 O 0.32702 0.92727 0.90117 0.0
O41 O 0.32096 0.85803 0.90403 0.0
O42 O 0.46125 0.12939 0.1155 0.0
Cd43 Cd 0.39836 0.13453 0.13227 0.0
Cd44 Cd 0.43492 0.09483 0.20322 0.0
O45 O 0.49209 0.10725 0.1743 0.0
O46 O 0.3794 0.1684 0.0835 0.0
O47 O 0.38264 0.19213 0.15045 0.0
C48 C 0.3765 0.19895 0.11027 0.0
C49 C 0.42716 0.10757 0.27609 0.0
C50 C 0.49442 0.11996 0.13626 0.0
C51 C 0.3623 0.04926 0.15443 0.0
O52 O 0.39491 0.04659 0.17875 0.0
O53 O 0.35508 0.08305 0.13568 0.0
O54 O 0.45056 0.0789 0.26248 0.0
O55 O 0.40929 0.1307 0.24835 0.0
O56 O 0.10819 0.774 0.1453 0.0
Cd57 Cd 0.10514 0.83692 0.1314 0.0
Cd58 Cd 0.1444 0.80231 0.05955 0.0
O59 O 0.1261 0.74536 0.08425 0.0
O60 O 0.07331 0.85424 0.18226 0.0
O61 O 0.04733 0.85754 0.11615 0.0
C62 C 0.042 0.86133 0.15676 0.0
C63 C 0.14073 0.81456 0.98651 0.0
C64 C 0.11489 0.74188 0.12268 0.0
C65 C 0.19456 0.86592 0.11527 0.0
O66 O 0.19508 0.83466 0.08985 0.0
O67 O 0.16031 0.87578 0.13222 0.0
O68 O 0.16561 0.78804 1.00224 0.0
O69 O 0.11582 0.83283 0.01193 0.0
O70 O 0.34372 0.89206 0.29481 0.0
Cd71 Cd 0.36635 0.89282 0.35741 0.0
Cd72 Cd 0.43142 0.86354 0.31929 0.0
O73 O 0.40562 0.88726 0.26469 0.0
O74 O 0.33133 0.9343 0.38579 0.0
O75 O 0.40053 0.94516 0.37536 0.0
C76 C 0.36505 0.95934 0.38711 0.0
C77 C 0.50282 0.87299 0.3383 0.0
C78 C 0.36632 0.8934 0.26183 0.0
C79 C 0.38302 0.80499 0.37412 0.0
O80 O 0.40472 0.80805 0.34063 0.0
O81 O 0.36783 0.83718 0.39071 0.0
O82 O 0.49006 0.85137 0.30478 0.0
O83 O 0.47517 0.89184 0.35995 0.0
O84 O 0.29611 0.16856 0.59203 0.0
Cd85 Cd 0.34951 0.19483 0.56478 0.0
Cd86 Cd 0.38474 0.16501 0.63503 0.0
O87 O 0.32884 0.12808 0.63679 0.0
O88 O 0.33584 0.19111 0.50276 0.0
O89 O 0.3877 0.15737 0.53353 0.0
C90 C 0.3649 0.16465 0.49983 0.0
C91 C 0.44852 0.13973 0.65863 0.0
C92 C 0.29501 0.13903 0.61846 0.0
C93 C 0.37861 0.25989 0.62413 0.0
O94 O 0.38435 0.22874 0.64775 0.0
O95 O 0.36727 0.25454 0.58513 0.0
O96 O 0.41979 0.14895 0.68502 0.0
O97 O 0.44 0.14194 0.61818 0.0
O98 O 0.14323 0.1157 0.78709 0.0
Cd99 Cd 0.12817 0.11735 0.85124 0.0
Cd100 Cd 0.05881 0.14616 0.8119 0.0
O101 O 0.08043 0.12171 0.7559 0.0
O102 O 0.17592 0.08581 0.87443 0.0
O103 O 0.10863 0.06194 0.87614 0.0
C104 C 0.14844 0.05559 0.88187 0.0
C105 C 0.98906 0.13904 0.83396 0.0
C106 C 0.11949 0.1148 0.75357 0.0
C107 C 0.11215 0.20615 0.86646 0.0
O108 O 0.08851 0.20161 0.83302 0.0
O109 O 0.12797 0.17472 0.8837 0.0
O110 O -0.001 0.15921 0.80004 0.0
O111 O 0.01828 0.11991 0.85398 0.0
O112 O 0.09836 0.47802 0.11205 0.0
Cd113 Cd 0.09631 0.41446 0.11959 0.0
Cd114 Cd 0.18811 0.42729 0.10964 0.0
O115 O 0.16827 0.48737 0.11985 0.0
O116 O 0.0497 0.4026 0.15999 0.0
O117 O 0.11794 0.39552 0.17636 0.0
C118 C 0.07893 0.39537 0.18816 0.0
C119 C 0.26079 0.41765 0.11994 0.0
C120 C 0.13171 0.50206 0.11686 0.0
C121 C 0.13011 0.37065 0.04675 0.0
O122 O 0.16515 0.38897 0.0595 0.0
O123 O 0.09593 0.37551 0.06631 0.0
O124 O 0.24704 0.44154 0.09083 0.0
O125 O 0.23362 0.40046 0.14535 0.0
O126 O 0.67747 0.07911 0.79537 0.0
Cd127 Cd 0.69906 0.05116 0.84949 0.0
Cd128 Cd 0.66012 0.1107 0.88742 0.0
O129 O 0.62733 0.11071 0.82895 0.0
O130 O 0.69628 0.98901 0.8413 0.0
O131 O 0.6525 0.02272 0.88207 0.0
C132 C 0.66326 0.98816 0.86497 0.0
C133 C 0.62959 0.11909 0.95357 0.0
C134 C 0.64433 0.0997 0.79443 0.0
C135 C 0.75594 0.11673 0.88685 0.0
O136 O 0.72181 0.13546 0.88969 0.0
O137 O 0.75498 0.0784 0.87563 0.0
O138 O 0.63281 0.14939 0.92711 0.0
O139 O 0.64033 0.08275 0.94118 0.0
O140 O 0.82111 0.92551 0.29609 0.0
Cd141 Cd 0.80036 0.95557 0.34936 0.0
Cd142 Cd 0.83715 0.89446 0.38862 0.0
O143 O 0.86958 0.89177 0.33141 0.0
O144 O 0.80161 0.01651 0.3393 0.0
O145 O 0.84598 0.98674 0.38427 0.0
C146 C 0.8342 0.01979 0.36535 0.0
C147 C 0.86668 0.88335 0.45617 0.0
C148 C 0.85328 0.90353 0.29627 0.0
C149 C 0.74085 0.89565 0.38443 0.0
O150 O 0.7737 0.87494 0.38856 0.0
O151 O 0.7437 0.93319 0.37238 0.0
O152 O 0.86068 0.85324 0.42844 0.0
O153 O 0.85988 0.92078 0.44427 0.0
O154 O 0.75898 0.14315 0.13389 0.0
Cd155 Cd 0.82406 0.15154 0.13184 0.0
Cd156 Cd 0.8185 0.05892 0.13545 0.0
O157 O 0.75577 0.07456 0.12377 0.0
O158 O 0.83549 0.20175 0.09669 0.0
O159 O 0.8501 0.13757 0.07619 0.0
C160 C 0.84831 0.17675 0.06763 0.0
C161 C 0.83032 0.98771 0.12549 0.0
C162 C 0.73754 0.10879 0.12694 0.0
C163 C 0.86993 0.11696 0.20374 0.0
O164 O 0.8561 0.08206 0.18721 0.0
O165 O 0.86031 0.15123 0.1875 0.0
O166 O 0.80563 1.00061 0.15414 0.0
O167 O 0.84769 0.01497 0.10051 0.0
O168 O 0.26107 0.64767 0.64055 0.0
Cd169 Cd 0.32605 0.65648 0.63894 0.0
Cd170 Cd 0.32245 0.56518 0.64016 0.0
O171 O 0.25958 0.57969 0.62694 0.0
O172 O 0.33743 0.70526 0.60202 0.0
O173 O 0.35167 0.64029 0.58383 0.0
C174 C 0.34971 0.67909 0.57377 0.0
C175 C 0.33709 0.49502 0.62888 0.0
C176 C 0.24049 0.61332 0.63122 0.0
C177 C 0.37225 0.62235 0.71023 0.0
O178 O 0.35882 0.5877 0.69292 0.0
O179 O 0.36243 0.65681 0.69457 0.0
O180 O 0.31095 0.50617 0.65702 0.0
O181 O 0.35401 0.52344 0.60491 0.0
O182 O 0.18067 0.58163 0.29421 0.0
Cd183 Cd 0.20145 0.55219 0.34776 0.0
Cd184 Cd 0.16224 0.61009 0.38724 0.0
O185 O 0.12916 0.60973 0.32896 0.0
O186 O 0.19821 0.49044 0.33762 0.0
O187 O 0.15378 0.5235 0.37838 0.0
C188 C 0.1645 0.48937 0.3603 0.0
C189 C 0.1324 0.61943 0.45332 0.0
C190 C 0.14642 0.60049 0.29403 0.0
C191 C 0.25759 0.61604 0.38873 0.0
O192 O 0.22363 0.63515 0.39029 0.0
O193 O 0.25664 0.57795 0.37669 0.0
O194 O 0.13507 0.64922 0.42624 0.0
O195 O 0.14283 0.58281 0.44143 0.0
O196 O 0.32922 0.42385 0.79847 0.0
Cd197 Cd 0.30729 0.45172 0.85239 0.0
Cd198 Cd 0.34107 0.38824 0.8889 0.0
O199 O 0.37637 0.38817 0.83329 0.0
O200 O 0.30823 0.51278 0.84269 0.0
O201 O 0.35204 0.4835 0.88848 0.0
C202 C 0.34036 0.51643 0.86928 0.0
C203 C 0.36683 0.37689 0.95778 0.0
C204 C 0.36136 0.40186 0.7984 0.0
C205 C 0.24544 0.38995 0.88199 0.0
O206 O 0.27771 0.36831 0.88517 0.0
O207 O 0.24954 0.42838 0.87302 0.0
O208 O 0.36309 0.34702 0.92956 0.0
O209 O 0.36015 0.41433 0.94578 0.0
O210 O 0.88198 0.90375 0.52862 0.0
Cd211 Cd 0.87768 0.89598 0.59429 0.0
Cd212 Cd 0.89589 0.81809 0.57201 0.0
O213 O 0.87492 0.83644 0.51281 0.0
O214 O 0.83936 0.93997 0.61181 0.0
O215 O 0.82183 0.87207 0.61559 0.0
C216 C 0.81119 0.91024 0.61919 0.0
C217 C 0.88303 0.74859 0.5924 0.0
C218 C 0.87634 0.8742 0.50111 0.0
C219 C 0.9624 0.87286 0.62039 0.0
O220 O 0.95449 0.84334 0.5932 0.0
O221 O 0.93348 0.89656 0.63122 0.0
O222 O 0.90614 0.7584 0.56044 0.0
O223 O 0.86534 0.77811 0.61245 0.0
O224 O 0.89474 0.05396 0.33918 0.0
Cd225 Cd 0.92539 0.10312 0.30995 0.0
Cd226 Cd 0.89856 0.14288 0.37967 0.0
O227 O 0.85469 0.09154 0.37943 0.0
O228 O 0.9206 0.08596 0.24889 0.0
O229 O 0.89028 0.14131 0.27504 0.0
C230 C 0.89578 0.11604 0.24331 0.0
C231 C 0.88179 0.20882 0.40311 0.0
C232 C 0.86349 0.05655 0.36342 0.0
C233 C 0.99374 0.1284 0.36836 0.0
O234 O 0.96294 0.13673 0.39179 0.0
O235 O 0.9872 0.11667 0.3297 0.0
O236 O 0.88692 0.1791 0.42954 0.0
O237 O 0.88231 0.20028 0.36265 0.0
O238 O 0.54021 0.15707 0.09021 0.0
Cd239 Cd 0.59697 0.18362 0.06936 0.0
Cd240 Cd 0.62207 0.10898 0.09035 0.0
O241 O 0.56723 0.106 0.12637 0.0
O242 O 0.58498 0.2426 0.05876 0.0
O243 O 0.62949 0.22479 0.11018 0.0
C244 C 0.61029 0.25352 0.09046 0.0
C245 C 0.69155 0.10916 0.11743 0.0
C246 C 0.53594 0.12761 0.11665 0.0
C247 C 0.61906 0.12741 0.99808 0.0
O248 O 0.61708 0.09801 0.02479 0.0
O249 O 0.61669 0.16502 0.01053 0.0
O250 O 0.6685 0.07459 0.11241 0.0
O251 O 0.67412 0.14387 0.10996 0.0
O252 O 0.5343 0.87252 0.90276 0.0
Cd253 Cd 0.59748 0.8666 0.88772 0.0
Cd254 Cd 0.56149 0.90449 0.81353 0.0
O255 O 0.50417 0.89191 0.84235 0.0
O256 O 0.61531 0.83252 0.93715 0.0
O257 O 0.61299 0.8086 0.87032 0.0
C258 C 0.61828 0.80176 0.91062 0.0
C259 C 0.56953 0.89384 0.7402 0.0
C260 C 0.50139 0.8809 0.88096 0.0
C261 C 0.633 0.95166 0.86329 0.0
O262 O 0.60084 0.95306 0.83813 0.0
O263 O 0.6404 0.91862 0.88347 0.0
O264 O 0.54558 0.92167 0.75462 0.0
O265 O 0.58752 0.87014 0.76728 0.0
O266 O 0.88327 0.23291 0.86552 0.0
Cd267 Cd 0.88535 0.16961 0.8788 0.0
Cd268 Cd 0.84666 0.20475 0.95114 0.0
O269 O 0.86487 0.26175 0.9263 0.0
O270 O 0.9157 0.15181 0.82711 0.0
O271 O 0.94281 0.1477 0.89271 0.0
C272 C 0.94719 0.14376 0.85197 0.0
C273 C 0.85251 0.19101 0.0237 0.0
C274 C 0.87658 0.26515 0.888 0.0
C275 C 0.79611 0.14053 0.89699 0.0
O276 O 0.79555 0.17221 0.92184 0.0
O277 O 0.83018 0.13087 0.87957 0.0
O278 O 0.82728 0.21796 0.00945 0.0
O279 O 0.8767 0.17336 0.99706 0.0
O280 O 0.59193 0.19831 0.67402 0.0
Cd281 Cd 0.5634 0.14307 0.69433 0.0
Cd282 Cd 0.62931 0.11296 0.6577 0.0
O283 O 0.62913 0.16885 0.62441 0.0
O284 O 0.50508 0.15684 0.70833 0.0
O285 O 0.51929 0.11633 0.65297 0.0
C286 C 0.49202 0.13577 0.67457 0.0
C287 C 0.63181 0.04635 0.62859 0.0
C288 C 0.61423 0.20126 0.6409 0.0
C289 C 0.62622 0.11091 0.753 0.0
O290 O 0.64996 0.11296 0.72087 0.0
O291 O 0.58714 0.11765 0.74907 0.0
O292 O 0.66534 0.07164 0.6305 0.0
O293 O 0.59585 0.06043 0.63903 0.0
O294 O 0.69939 0.84605 0.42135 0.0
Cd295 Cd 0.64729 0.81692 0.44786 0.0
Cd296 Cd 0.61121 0.84666 0.37732 0.0
O297 O 0.66604 0.88506 0.37556 0.0
O298 O 0.66236 0.81847 0.50957 0.0
O299 O 0.60817 0.8511 0.48187 0.0
C300 C 0.63226 0.84347 0.51453 0.0
C301 C 0.54654 0.87019 0.35406 0.0
C302 C 0.69994 0.87528 0.3946 0.0
C303 C 0.62197 0.7522 0.38664 0.0
O304 O 0.61401 0.78333 0.36379 0.0
O305 O 0.63327 0.75723 0.42569 0.0
O306 O 0.57549 0.86203 0.32752 0.0
O307 O 0.55523 0.86787 0.39448 0.0
O308 O 0.84509 0.8866 0.22281 0.0
Cd309 Cd 0.85927 0.88226 0.15861 0.0
Cd310 Cd 0.9299 0.85785 0.19665 0.0
O311 O 0.90953 0.88539 0.25164 0.0
O312 O 0.81336 0.9153 0.1343 0.0
O313 O 0.88161 0.93622 0.1329 0.0
C314 C 0.84225 0.94431 0.12695 0.0
C315 C -0.00036 0.86517 0.174 0.0
C316 C 0.87029 0.89092 0.25519 0.0
C317 C 0.87537 0.7936 0.14748 0.0
O318 O 0.90041 0.80084 0.1796 0.0
O319 O 0.85842 0.82352 0.1286 0.0
O320 O 0.99012 0.84626 0.20877 0.0
O321 O 0.96985 0.88252 0.15296 0.0
O322 O 0.90128 0.5296 0.89553 0.0
Cd323 Cd 0.90576 0.5931 0.88819 0.0
Cd324 Cd 0.81407 0.58483 0.89329 0.0
O325 O 0.83149 0.52332 0.88522 0.0
O326 O 0.95203 0.6041 0.84743 0.0
O327 O 0.88387 0.61313 0.83211 0.0
C328 C 0.92265 0.61234 0.81978 0.0
C329 C 0.7416 0.5958 0.88055 0.0
C330 C 0.8671 0.50695 0.88989 0.0
C331 C 0.8723 0.63824 0.95952 0.0
O332 O 0.83693 0.62229 0.94452 0.0
O333 O 0.90701 0.6311 0.94197 0.0
O334 O 0.75428 0.57235 0.91053 0.0
O335 O 0.76979 0.6124 0.85588 0.0
O336 O 0.31307 0.92318 0.2203 0.0
Cd337 Cd 0.29257 0.95206 0.16648 0.0
Cd338 Cd 0.33101 0.89298 0.12711 0.0
O339 O 0.3637 0.89325 0.18584 0.0
O340 O 0.29749 0.01399 0.1752 0.0
O341 O 0.34073 0.97882 0.13502 0.0
C342 C 0.33106 0.01364 0.15239 0.0
C343 C 0.36239 0.8838 0.06141 0.0
C344 C 0.34681 0.90353 0.22069 0.0
C345 C 0.23498 0.88875 0.12668 0.0
O346 O 0.26879 0.86946 0.12389 0.0
O347 O 0.2365 0.92678 0.13899 0.0
O348 O 0.35827 0.85368 0.088 0.0
O349 O 0.35194 0.92038 0.07338 0.0
O350 O 0.17053 0.08303 0.71259 0.0
Cd351 Cd 0.19405 0.05578 0.65905 0.0
Cd352 Cd 0.15767 0.11767 0.62151 0.0
O353 O 0.12307 0.11813 0.67752 0.0
O354 O 0.19555 0.99519 0.66982 0.0
O355 O 0.15166 0.02188 0.62225 0.0
C356 C 0.16434 0.98983 0.6423 0.0
C357 C 0.12944 0.12712 0.55319 0.0
C358 C 0.1381 0.10463 0.71247 0.0
C359 C 0.25391 0.11838 0.62786 0.0
O360 O 0.22088 0.13884 0.62351 0.0
O361 O 0.25108 0.08043 0.63869 0.0
O362 O 0.13367 0.15761 0.58067 0.0
O363 O 0.13742 0.09015 0.56567 0.0
O364 O 0.23686 0.85893 0.87735 0.0
Cd365 Cd 0.1717 0.85061 0.87794 0.0
Cd366 Cd 0.17711 0.94242 0.87425 0.0
O367 O 0.2398 0.92747 0.88787 0.0
O368 O 0.15922 0.80157 0.91434 0.0
O369 O 0.14455 0.86641 0.93244 0.0
C370 C 0.14596 0.82751 0.94228 0.0
C371 C 0.16246 0.01292 0.88401 0.0
C372 C 0.25815 0.89326 0.88505 0.0
C373 C 0.12779 0.88417 0.80473 0.0
O374 O 0.14146 0.91904 0.82142 0.0
O375 O 0.13666 0.84991 0.82146 0.0
O376 O 0.18895 1.00123 0.85647 0.0
O377 O 0.14526 0.98494 0.90831 0.0
O378 O 0.73829 0.36281 0.3745 0.0
Cd379 Cd 0.67324 0.35417 0.37674 0.0
Cd380 Cd 0.68013 0.44784 0.36761 0.0
O381 O 0.74222 0.43177 0.38167 0.0
O382 O 0.66263 0.30443 0.4128 0.0
O383 O 0.64726 0.36863 0.43235 0.0
C384 C 0.6496 0.32966 0.44153 0.0
C385 C 0.6684 0.5193 0.37237 0.0
C386 C 0.76001 0.39719 0.38038 0.0
C387 C 0.62707 0.38615 0.30361 0.0
O388 O 0.64161 0.42155 0.31825 0.0
O389 O 0.63648 0.3525 0.32129 0.0
O390 O 0.69316 0.50466 0.34469 0.0
O391 O 0.65134 0.49384 0.39936 0.0
O392 O 0.82003 0.42703 0.71489 0.0
Cd393 Cd 0.79907 0.45562 0.66099 0.0
Cd394 Cd 0.8379 0.39648 0.62274 0.0
O395 O 0.87094 0.39681 0.68115 0.0
O396 O 0.80201 0.51749 0.67054 0.0
O397 O 0.84619 0.48442 0.62956 0.0
C398 C 0.83546 0.51864 0.64747 0.0
C399 C 0.86774 0.38753 0.55636 0.0
C400 C 0.85365 0.40718 0.71574 0.0
C401 C 0.74223 0.3907 0.62293 0.0
O402 O 0.77626 0.37174 0.62067 0.0
O403 O 0.74331 0.42908 0.63398 0.0
O404 O 0.86485 0.35748 0.58315 0.0
O405 O 0.85729 0.42403 0.56861 0.0
O406 O 0.66613 0.57524 0.04416 0.0
Cd407 Cd 0.69646 0.55329 0.09707 0.0
Cd408 Cd 0.63385 0.58614 0.13653 0.0
O409 O 0.63069 0.62062 0.08033 0.0
O410 O 0.75792 0.5594 0.08651 0.0
O411 O 0.72642 0.59591 0.13637 0.0
C412 C 0.76013 0.58844 0.11575 0.0
C413 C 0.62275 0.61408 0.20428 0.0
C414 C 0.64361 0.60665 0.04496 0.0
C415 C 0.6389 0.49095 0.13007 0.0
O416 O 0.61717 0.5226 0.13583 0.0
O417 O 0.67651 0.49522 0.11686 0.0
O418 O 0.59175 0.60727 0.17684 0.0
O419 O 0.66082 0.60838 0.1922 0.0
O420 O 0.63122 0.60335 0.97048 0.0
Cd421 Cd 0.63154 0.62096 0.90721 0.0
Cd422 Cd 0.60556 0.68943 0.94592 0.0
O423 O 0.62822 0.66497 1.00212 0.0
O424 O 0.66753 0.5776 0.88361 0.0
O425 O 0.68793 0.64495 0.88674 0.0
C426 C 0.69711 0.60676 0.87963 0.0
C427 C 0.61837 0.75897 0.9265 0.0
C428 C 0.63296 0.62604 1.00422 0.0
C429 C 0.54233 0.63826 0.89035 0.0
O430 O 0.5483 0.66277 0.9226 0.0
O431 O 0.57343 0.62104 0.87371 0.0
O432 O 0.59587 0.74902 0.95898 0.0
O433 O 0.6359 0.72958 0.90599 0.0
O434 O 0.59183 0.44906 0.16965 0.0
Cd435 Cd 0.56658 0.39787 0.20001 0.0
Cd436 Cd 0.59285 0.36199 0.12955 0.0
O437 O 0.63102 0.4166 0.12392 0.0
O438 O 0.57296 0.41462 0.26096 0.0
O439 O 0.60536 0.36143 0.23284 0.0
C440 C 0.59959 0.38589 0.26515 0.0
C441 C 0.61213 0.29694 0.1059 0.0
C442 C 0.62019 0.45008 0.14171 0.0
C443 C 0.49748 0.37107 0.14383 0.0
O444 O 0.52799 0.36461 0.11938 0.0
O445 O 0.50456 0.38191 0.18266 0.0
O446 O 0.60392 0.32588 0.0795 0.0
O447 O 0.61368 0.30604 0.14629 0.0
O448 O 0.95602 0.34732 0.42006 0.0
Cd449 Cd 0.89902 0.32163 0.44087 0.0
Cd450 Cd 0.87474 0.39639 0.41915 0.0
O451 O 0.92963 0.39838 0.38336 0.0
O452 O 0.90971 0.26221 0.45106 0.0
O453 O 0.86596 0.2814 0.39958 0.0
C454 C 0.88448 0.25208 0.41906 0.0
C455 C 0.80574 0.39656 0.39096 0.0
C456 C 0.96061 0.37647 0.39333 0.0
C457 C 0.87765 0.3787 0.51175 0.0
O458 O 0.87952 0.40782 0.48471 0.0
O459 O 0.87979 0.34093 0.49968 0.0
O460 O 0.829 0.43101 0.39601 0.0
O461 O 0.82266 0.36178 0.39932 0.0
O462 O 0.96527 0.63462 0.61326 0.0
Cd463 Cd 0.90235 0.6403 0.62915 0.0
Cd464 Cd 0.93792 0.60054 0.70094 0.0
O465 O 0.99523 0.61248 0.67253 0.0
O466 O 0.88475 0.67528 0.58062 0.0
O467 O 0.8873 0.69809 0.64787 0.0
C468 C 0.88215 0.70563 0.60771 0.0
C469 C 0.93167 0.61168 0.77419 0.0
C470 C -0.00193 0.62502 0.6345 0.0
C471 C 0.86594 0.55489 0.65055 0.0
O472 O 0.89775 0.5527 0.67603 0.0
O473 O 0.85908 0.58846 0.63113 0.0
O474 O 0.95427 0.58293 0.75935 0.0
O475 O 0.91352 0.63563 0.74746 0.0
O476 O 0.61521 0.27489 0.64442 0.0
Cd477 Cd 0.613 0.33806 0.63073 0.0
Cd478 Cd 0.65149 0.30276 0.55842 0.0
O479 O 0.63334 0.24588 0.58363 0.0
O480 O 0.58303 0.35598 0.68254 0.0
O481 O 0.55553 0.35997 0.61708 0.0
C482 C 0.55142 0.36401 0.65785 0.0
C483 C 0.64563 0.31594 0.48569 0.0
C484 C 0.62184 0.2426 0.62201 0.0
C485 C 0.70206 0.3671 0.61254 0.0
O486 O 0.70258 0.33543 0.58765 0.0
O487 O 0.66801 0.37681 0.62994 0.0
O488 O 0.67093 0.28917 0.5002 0.0
O489 O 0.62142 0.33376 0.51218 0.0
O490 O 0.84873 0.39498 0.78956 0.0
Cd491 Cd 0.86972 0.39501 0.85263 0.0
Cd492 Cd 0.93536 0.36458 0.81552 0.0
O493 O 0.91116 0.38942 0.76075 0.0
O494 O 0.83507 0.43758 0.87994 0.0
O495 O 0.90472 0.44665 0.8713 0.0
C496 C 0.86935 0.46184 0.88194 0.0
C497 C 0.00699 0.37193 0.83431 0.0
C498 C 0.8721 0.39637 0.75714 0.0
C499 C 0.88437 0.30655 0.8693 0.0
O500 O 0.90695 0.30952 0.83638 0.0
O501 O 0.86935 0.33894 0.88571 0.0
O502 O 0.99347 0.35058 0.8009 0.0
O503 O 0.98003 0.39154 0.85614 0.0
O504 O 0.80382 0.64093 0.08649 0.0
Cd505 Cd 0.85379 0.68055 0.06886 0.0
Cd506 Cd 0.87729 0.65788 0.15092 0.0
O507 O 0.82353 0.61807 0.14973 0.0
O508 O 0.83912 0.68333 0.00718 0.0
O509 O 0.89669 0.65424 0.03168 0.0
C510 C 0.87133 0.66168 0.99998 0.0
C511 C 0.94333 0.6359 0.17002 0.0
C512 C 0.7973 0.61769 0.11829 0.0
C513 C 0.86804 0.7501 0.13235 0.0
O514 O 0.87351 0.72142 0.15909 0.0
O515 O 0.86071 0.74136 0.09296 0.0
O516 O 0.91601 0.64363 0.19859 0.0
O517 O 0.93214 0.63797 0.13011 0.0
O518 O 0.64453 0.63035 0.27634 0.0
Cd519 Cd 0.6378 0.62646 0.34236 0.0
Cd520 Cd 0.5602 0.64732 0.31904 0.0
O521 O 0.57591 0.62347 0.26082 0.0
O522 O 0.68506 0.59148 0.36 0.0
O523 O 0.61693 0.5708 0.3651 0.0
C524 C 0.65648 0.56253 0.36857 0.0
C525 C 0.49087 0.63978 0.3425 0.0
C526 C 0.61411 0.62424 0.24901 0.0
C527 C 0.61549 0.71038 0.36735 0.0
O528 O 0.58783 0.7046 0.33731 0.0
O529 O 0.63719 0.68055 0.37982 0.0
O530 O 0.50021 0.65994 0.30852 0.0
O531 O 0.52056 0.62121 0.36232 0.0
O532 O 0.60228 0.97721 0.61871 0.0
Cd533 Cd 0.59948 0.91365 0.62675 0.0
Cd534 Cd 0.69266 0.92679 0.61413 0.0
O535 O 0.67241 0.98695 0.62297 0.0
O536 O 0.55184 0.90236 0.66629 0.0
O537 O 0.61948 0.89381 0.68387 0.0
C538 C 0.58026 0.89411 0.6949 0.0
C539 C 0.7663 0.91939 0.62123 0.0
C540 C 0.63568 1.00141 0.62108 0.0
C541 C 0.6324 0.86927 0.5535 0.0
O542 O 0.66786 0.88714 0.56573 0.0
O543 O 0.5985 0.87499 0.57324 0.0
O544 O 0.75029 0.94165 0.59192 0.0
O545 O 0.74091 0.90227 0.64838 0.0
O546 O 0.37853 0.39675 0.03095 0.0
Cd547 Cd 0.37138 0.38906 0.09642 0.0
Cd548 Cd 0.38948 0.311 0.07449 0.0
O549 O 0.37139 0.32956 0.01453 0.0
O550 O 0.33475 0.43495 0.11235 0.0
O551 O 0.31398 0.36773 0.11599 0.0
C552 C 0.3051 0.40647 0.11911 0.0
C553 C 0.3766 0.2416 0.09444 0.0
C554 C 0.37389 0.36739 1.00309 0.0
C555 C 0.45427 0.36407 0.12606 0.0
O556 O 0.44736 0.33537 0.09786 0.0
O557 O 0.42526 0.38804 0.13585 0.0
O558 O 0.40036 0.25157 0.06302 0.0
O559 O 0.3579 0.27085 0.11385 0.0
O560 O 0.39852 0.55391 0.84151 0.0
Cd561 Cd 0.42861 0.60556 0.81538 0.0
Cd562 Cd 0.40347 0.63964 0.88829 0.0
O563 O 0.3612 0.58716 0.88828 0.0
O564 O 0.42417 0.59123 0.75363 0.0
O565 O 0.39229 0.64435 0.78237 0.0
C566 C 0.39844 0.62074 0.74951 0.0
C567 C 0.38475 0.70503 0.911 0.0
C568 C 0.36903 0.55386 0.86823 0.0
C569 C 0.49858 0.63006 0.8736 0.0
O570 O 0.46835 0.63541 0.89881 0.0
O571 O 0.49083 0.62022 0.83459 0.0
O572 O 0.39121 0.67593 0.93782 0.0
O573 O 0.38516 0.69607 0.87061 0.0
O574 O 0.04463 0.66149 0.58892 0.0
Cd575 Cd 0.10147 0.68704 0.56767 0.0
Cd576 Cd 0.12609 0.61249 0.5908 0.0
O577 O 0.0707 0.61027 0.6257 0.0
O578 O 0.08995 0.74588 0.5555 0.0
O579 O 0.1343 0.72893 0.60744 0.0
C580 C 0.11535 0.75734 0.58696 0.0
C581 C 0.19484 0.6133 0.61998 0.0
C582 C 0.03981 0.63219 0.61545 0.0
C583 C 0.12286 0.62881 0.49785 0.0
O584 O 0.12173 0.60017 0.52542 0.0
O585 O 0.12032 0.6667 0.50925 0.0
O586 O 0.17213 0.57856 0.6146 0.0
O587 O 0.17753 0.6478 0.61127 0.0
O588 O 0.03513 0.37427 0.39492 0.0
Cd589 Cd 0.09764 0.36797 0.37814 0.0
Cd590 Cd 0.06201 0.40757 0.30685 0.0
O591 O 0.00468 0.39539 0.33548 0.0
O592 O 0.1154 0.33309 0.4266 0.0
O593 O 0.11199 0.31001 0.35943 0.0
C594 C 0.11743 0.30261 0.39958 0.0
C595 C 0.06925 0.39614 0.23366 0.0
C596 C 0.00215 0.38349 0.37378 0.0
C597 C 0.13403 0.45315 0.35705 0.0
O598 O 0.10191 0.45556 0.332 0.0
O599 O 0.14119 0.41939 0.37594 0.0
O600 O 0.04615 0.4247 0.24805 0.0
O601 O 0.08722 0.37244 0.26077 0.0
O602 O 0.38364 0.73149 0.37118 0.0
Cd603 Cd 0.38657 0.66878 0.38606 0.0
Cd604 Cd 0.34692 0.70351 0.45634 0.0
O605 O 0.36442 0.76052 0.43149 0.0
O606 O 0.41752 0.6511 0.33508 0.0
O607 O 0.44419 0.64773 0.40095 0.0
C608 C 0.4489 0.64364 0.36028 0.0
C609 C 0.35299 0.69157 0.52922 0.0
C610 C 0.37626 0.76375 0.39326 0.0
C611 C 0.29752 0.63917 0.40097 0.0
O612 O 0.29641 0.67041 0.42635 0.0
O613 O 0.33203 0.62963 0.38448 0.0
O614 O 0.32697 0.71741 0.51418 0.0
O615 O 0.37739 0.67356 0.50307 0.0
O616 O 0.08653 0.6972 0.17506 0.0
Cd617 Cd 0.06029 0.64187 0.19739 0.0
Cd618 Cd 0.12555 0.61248 0.15743 0.0
O619 O 0.1237 0.66851 0.12488 0.0
O620 O 0.00291 0.65512 0.21531 0.0
O621 O 0.01394 0.61399 0.15946 0.0
C622 C 0.98792 0.63325 0.1828 0.0
C623 C 0.12774 0.54666 0.12618 0.0
C624 C 0.10822 0.7005 0.14156 0.0
C625 C 0.12663 0.61093 0.25313 0.0
O626 O 0.14878 0.61222 0.21983 0.0
O627 O 0.08747 0.6177 0.25095 0.0
O628 O 0.16113 0.57211 0.12809 0.0
O629 O 0.09204 0.56006 0.13833 0.0
O630 O 0.20199 0.3408 0.91776 0.0
Cd631 Cd 0.14795 0.31429 0.94375 0.0
Cd632 Cd 0.11478 0.34316 0.87251 0.0
O633 O 0.1706 0.38042 0.87118 0.0
O634 O 0.16044 0.31773 0.00595 0.0
O635 O 0.10895 0.35139 0.97448 0.0
C636 C 0.13112 0.34393 0.00853 0.0
C637 C 0.05069 0.36814 0.84969 0.0
C638 C 0.20389 0.36993 0.89087 0.0
C639 C 0.12059 0.24842 0.88448 0.0
O640 O 0.11538 0.27927 0.86027 0.0
O641 O 0.13107 0.25431 0.92363 0.0
O642 O 0.07917 0.35913 0.82291 0.0
O643 O 0.05966 0.3659 0.89006 0.0
O644 O 0.35595 0.39102 0.72375 0.0
Cd645 Cd 0.37115 0.39022 0.65961 0.0
Cd646 Cd 0.44012 0.36111 0.69829 0.0
O647 O 0.41883 0.38494 0.75467 0.0
O648 O 0.32353 0.42203 0.63683 0.0
O649 O 0.39088 0.44595 0.6357 0.0
C650 C 0.35108 0.45235 0.62999 0.0
C651 C 0.50968 0.36858 0.67608 0.0
C652 C 0.37977 0.39172 0.75721 0.0
C653 C 0.38711 0.30188 0.64278 0.0
O654 O 0.4105 0.30591 0.67642 0.0
O655 O 0.37136 0.33356 0.62603 0.0
O656 O 0.49988 0.34799 0.70978 0.0
O657 O 0.4804 0.38795 0.65641 0.0
O658 O 0.3954 0.02795 0.39896 0.0
Cd659 Cd 0.39842 0.09132 0.39013 0.0
Cd660 Cd 0.30575 0.07975 0.40078 0.0
O661 O 0.32535 0.01931 0.39228 0.0
O662 O 0.44567 0.1017 0.3501 0.0
O663 O 0.37782 0.10972 0.33276 0.0
C664 C 0.41694 0.10902 0.32145 0.0
C665 C 0.23255 0.08779 0.39146 0.0
C666 C 0.36172 0.00425 0.39525 0.0
C667 C 0.36511 0.13755 0.4618 0.0
O668 O 0.32968 0.1198 0.44931 0.0
O669 O 0.39923 0.13112 0.44273 0.0
O670 O 0.24746 0.0656 0.42144 0.0
O671 O 0.25886 0.10451 0.36492 0.0
loop_
_geom_bond_atom_site_label_1
_geom_bond_atom_site_label_2
_geom_bond_distance
_geom_bond_site_symmetry_2
_ccdc_geom_bond_type
O0 Cd1 2.223 . S
O0 C8 1.315 . S
Cd1 O0 2.223 . S
Cd1 O4 2.297 . S
Cd1 O5 2.439 . S
Cd1 O11 2.240 . S
Cd2 O3 2.240 . S
Cd2 O10 2.223 . S
Cd2 O12 2.297 . S
Cd2 O13 2.439 . S
O3 Cd2 2.240 . S
O3 C8 1.279 . S
O4 Cd1 2.297 . S
O4 C6 1.247 . S
O5 Cd1 2.439 . S
O5 C6 1.208 . S
C6 O4 1.247 . S
C6 O5 1.208 . S
C7 O12 1.247 . S
C7 O13 1.208 . S
C8 O0 1.315 . S
C8 O3 1.279 . S
C9 O10 1.315 . S
C9 O11 1.279 . S
O10 Cd2 2.223 . S
O10 C9 1.315 . S
O11 Cd1 2.240 . S
O11 C9 1.279 . S
O12 Cd2 2.297 . S
O12 C7 1.247 . S
O13 Cd2 2.439 . S
O13 C7 1.208 . S
O14 Cd15 2.223 . S
O14 C22 1.315 . S
Cd15 O14 2.223 . S
Cd15 O18 2.297 . S
Cd15 O19 2.439 . S
Cd15 O25 2.240 . S
Cd16 O17 2.240 . S
Cd16 O24 2.223 . S
Cd16 O26 2.297 . S
Cd16 O27 2.439 . S
O17 Cd16 2.240 . S
O17 C22 1.279 . S
O18 Cd15 2.297 . S
O18 C20 1.247 . S
O19 Cd15 2.439 . S
O19 C20 1.208 . S
C20 O18 1.247 . S
C20 O19 1.208 . S
C21 O26 1.247 . S
C21 O27 1.208 . S
C22 O14 1.315 . S
C22 O17 1.279 . S
C23 O24 1.315 . S
C23 O25 1.279 . S
O24 Cd16 2.223 . S
O24 C23 1.315 . S
O25 Cd15 2.240 . S
O25 C23 1.279 . S
O26 Cd16 2.297 . S
O26 C21 1.247 . S
O27 Cd16 2.439 . S
O27 C21 1.208 . S
O28 Cd29 2.223 . S
O28 C36 1.315 . S
Cd29 O28 2.223 . S
Cd29 O32 2.297 . S
Cd29 O33 2.439 . S
Cd29 O39 2.240 . S
Cd30 O31 2.240 . S
Cd30 O38 2.223 . S
Cd30 O40 2.297 . S
Cd30 O41 2.439 . S
O31 Cd30 2.240 . S
O31 C36 1.279 . S
O32 Cd29 2.297 . S
O32 C34 1.247 . S
O33 Cd29 2.439 . S
O33 C34 1.208 . S
C34 O32 1.247 . S
C34 O33 1.208 . S
C35 O40 1.247 . S
C35 O41 1.208 . S
C36 O28 1.315 . S
C36 O31 1.279 . S
C37 O38 1.315 . S
C37 O39 1.279 . S
O38 Cd30 2.223 . S
O38 C37 1.315 . S
O39 Cd29 2.240 . S
O39 C37 1.279 . S
O40 Cd30 2.297 . S
O40 C35 1.247 . S
O41 Cd30 2.439 . S
O41 C35 1.208 . S
O42 Cd43 2.223 . S
O42 C50 1.315 . S
Cd43 O42 2.223 . S
Cd43 O46 2.297 . S
Cd43 O47 2.439 . S
Cd43 O53 2.240 . S
Cd44 O45 2.240 . S
Cd44 O52 2.223 . S
Cd44 O54 2.297 . S
Cd44 O55 2.439 . S
O45 Cd44 2.240 . S
O45 C50 1.279 . S
O46 Cd43 2.297 . S
O46 C48 1.247 . S
O47 Cd43 2.439 . S
O47 C48 1.208 . S
C48 O46 1.247 . S
C48 O47 1.208 . S
C49 O54 1.247 . S
C49 O55 1.208 . S
C50 O42 1.315 . S
C50 O45 1.279 . S
C51 O52 1.315 . S
C51 O53 1.279 . S
O52 Cd44 2.223 . S
O52 C51 1.315 . S
O53 Cd43 2.240 . S
O53 C51 1.279 . S
O54 Cd44 2.297 . S
O54 C49 1.247 . S
O55 Cd44 2.439 . S
O55 C49 1.208 . S
O56 Cd57 2.223 . S
O56 C64 1.315 . S
Cd57 O56 2.223 . S
Cd57 O60 2.297 . S
Cd57 O61 2.439 . S
Cd57 O67 2.240 . S
Cd58 O59 2.240 . S
Cd58 O66 2.223 . S
Cd58 O68 2.297 . S
Cd58 O69 2.439 . S
O59 Cd58 2.240 . S
O59 C64 1.279 . S
O60 Cd57 2.297 . S
O60 C62 1.247 . S
O61 Cd57 2.439 . S
O61 C62 1.208 . S
C62 O60 1.247 . S
C62 O61 1.208 . S
C63 O68 1.247 . S
C63 O69 1.208 . S
C64 O56 1.315 . S
C64 O59 1.279 . S
C65 O66 1.315 . S
C65 O67 1.279 . S
O66 Cd58 2.223 . S
O66 C65 1.315 . S
O67 Cd57 2.240 . S
O67 C65 1.279 . S
O68 Cd58 2.297 . S
O68 C63 1.247 . S
O69 Cd58 2.439 . S
O69 C63 1.208 . S
O70 Cd71 2.223 . S
O70 C78 1.315 . S
Cd71 O70 2.223 . S
Cd71 O74 2.297 . S
Cd71 O75 2.439 . S
Cd71 O81 2.240 . S
Cd72 O73 2.240 . S
Cd72 O80 2.223 . S
Cd72 O82 2.297 . S
Cd72 O83 2.439 . S
O73 Cd72 2.240 . S
O73 C78 1.279 . S
O74 Cd71 2.297 . S
O74 C76 1.247 . S
O75 Cd71 2.439 . S
O75 C76 1.208 . S
C76 O74 1.247 . S
C76 O75 1.208 . S
C77 O82 1.247 . S
C77 O83 1.208 . S
C78 O70 1.315 . S
C78 O73 1.279 . S
C79 O80 1.315 . S
C79 O81 1.279 . S
O80 Cd72 2.223 . S
O80 C79 1.315 . S
O81 Cd71 2.240 . S
O81 C79 1.279 . S
O82 Cd72 2.297 . S
O82 C77 1.247 . S
O83 Cd72 2.439 . S
O83 C77 1.208 . S
O84 Cd85 2.223 . S
O84 C92 1.315 . S
Cd85 O84 2.223 . S
Cd85 O88 2.297 . S
Cd85 O89 2.439 . S
Cd85 O95 2.240 . S
Cd86 O87 2.240 . S
Cd86 O94 2.223 . S
Cd86 O96 2.297 . S
Cd86 O97 2.439 . S
O87 Cd86 2.240 . S
O87 C92 1.279 . S
O88 Cd85 2.297 . S
O88 C90 1.247 . S
O89 Cd85 2.439 . S
O89 C90 1.208 . S
C90 O88 1.247 . S
C90 O89 1.208 . S
C91 O96 1.247 . S
C91 O97 1.208 . S
C92 O84 1.315 . S
C92 O87 1.279 . S
C93 O94 1.315 . S
C93 O95 1.279 . S
O94 Cd86 2.223 . S
O94 C93 1.315 . S
O95 Cd85 2.240 . S
O95 C93 1.279 . S
O96 Cd86 2.297 . S
O96 C91 1.247 . S
O97 Cd86 2.439 . S
O97 C91 1.208 . S
O98 Cd99 2.223 . S
O98 C106 1.315 . S
Cd99 O98 2.223 . S
Cd99 O102 2.297 . S
Cd99 O103 2.439 . S
Cd99 O109 2.240 . S
Cd100 O101 2.240 . S
Cd100 O108 2.223 . S
Cd100 O110 2.297 . S
Cd100 O111 2.439 . S
O101 Cd100 2.240 . S
O101 C106 1.279 . S
O102 Cd99 2.297 . S
O102 C104 1.247 . S
O103 Cd99 2.439 . S
O103 C104 1.208 . S
C104 O102 1.247 . S
C104 O103 1.208 . S
C105 O110 1.247 . S
C105 O111 1.208 . S
C106 O98 1.315 . S
C106 O101 1.279 . S
C107 O108 1.315 . S
C107 O109 1.279 . S
O108 Cd100 2.223 . S
O108 C107 1.315 . S
O109 Cd99 2.240 . S
O109 C107 1.279 . S
O110 Cd100 2.297 . S
O110 C105 1.247 . S
O111 Cd100 2.439 . S
O111 C105 1.208 . S
O112 Cd113 2.223 . S
O112 C120 1.315 . S
Cd113 O112 2.223 . S
Cd113 O116 2.297 . S
Cd113 O117 2.439 . S
Cd113 O123 2.240 . S
Cd114 O115 2.240 . S
Cd114 O122 2.223 . S
Cd114 O124 2.297 . S
Cd114 O125 2.439 . S
O115 Cd114 2.240 . S
O115 C120 1.279 . S
O116 Cd113 2.297 . S
O116 C118 1.247 . S
O117 Cd113 2.439 . S
O117 C118 1.208 . S
C118 O116 1.247 . S
C118 O117 1.208 . S
C119 O124 1.247 . S
C119 O125 1.208 . S
C120 O112 1.315 . S
C120 O115 1.279 . S
C121 O122 1.315 . S
C121 O123 1.279 . S
O122 Cd114 2.223 . S
O122 C121 1.315 . S
O123 Cd113 2.240 . S
O123 C121 1.279 . S
O124 Cd114 2.297 . S
O124 C119 1.247 . S
O125 Cd114 2.439 . S
O125 C119 1.208 . S
O126 Cd127 2.223 . S
O126 C134 1.315 . S
Cd127 O126 2.223 . S
Cd127 O130 2.297 1_545 S
Cd127 O131 2.439 . S
Cd127 O137 2.240 . S
Cd128 O129 2.240 . S
Cd128 O136 2.223 . S
Cd128 O138 2.297 . S
Cd128 O139 2.439 . S
O129 Cd128 2.240 . S
O129 C134 1.279 . S
O130 Cd127 2.297 1_565 S
O130 C132 1.247 . S
O131 Cd127 2.439 . S
O131 C132 1.208 1_545 S
C132 O130 1.247 . S
C132 O131 1.208 1_565 S
C133 O138 1.247 . S
C133 O139 1.208 . S
C134 O126 1.315 . S
C134 O129 1.279 . S
C135 O136 1.315 . S
C135 O137 1.279 . S
O136 Cd128 2.223 . S
O136 C135 1.315 . S
O137 Cd127 2.240 . S
O137 C135 1.279 . S
O138 Cd128 2.297 . S
O138 C133 1.247 . S
O139 Cd128 2.439 . S
O139 C133 1.208 . S
O140 Cd141 2.223 . S
O140 C148 1.315 . S
Cd141 O140 2.223 . S
Cd141 O144 2.297 . S
Cd141 O145 2.439 . S
Cd141 O151 2.240 . S
Cd142 O143 2.240 . S
Cd142 O150 2.223 . S
Cd142 O152 2.297 . S
Cd142 O153 2.439 . S
O143 Cd142 2.240 . S
O143 C148 1.279 . S
O144 Cd141 2.297 . S
O144 C146 1.247 . S
O145 Cd141 2.439 . S
O145 C146 1.208 . S
C146 O144 1.247 . S
C146 O145 1.208 . S
C147 O152 1.247 . S
C147 O153 1.208 . S
C148 O140 1.315 . S
C148 O143 1.279 . S
C149 O150 1.315 . S
C149 O151 1.279 . S
O150 Cd142 2.223 . S
O150 C149 1.315 . S
O151 Cd141 2.240 . S
O151 C149 1.279 . S
O152 Cd142 2.297 . S
O152 C147 1.247 . S
O153 Cd142 2.439 . S
O153 C147 1.208 . S
O154 Cd155 2.223 . S
O154 C162 1.315 . S
Cd155 O154 2.223 . S
Cd155 O158 2.297 . S
Cd155 O159 2.439 . S
Cd155 O165 2.240 . S
Cd156 O157 2.240 . S
Cd156 O164 2.223 . S
Cd156 O166 2.297 1_545 S
Cd156 O167 2.439 1_545 S
O157 Cd156 2.240 . S
O157 C162 1.279 . S
O158 Cd155 2.297 . S
O158 C160 1.247 . S
O159 Cd155 2.439 . S
O159 C160 1.208 . S
C160 O158 1.247 . S
C160 O159 1.208 . S
C161 O166 1.247 . S
C161 O167 1.208 . S
C162 O154 1.315 . S
C162 O157 1.279 . S
C163 O164 1.315 . S
C163 O165 1.279 . S
O164 Cd156 2.223 . S
O164 C163 1.315 . S
O165 Cd155 2.240 . S
O165 C163 1.279 . S
O166 Cd156 2.297 1_565 S
O166 C161 1.247 . S
O167 Cd156 2.439 1_565 S
O167 C161 1.208 . S
O168 Cd169 2.223 . S
O168 C176 1.315 . S
Cd169 O168 2.223 . S
Cd169 O172 2.297 . S
Cd169 O173 2.439 . S
Cd169 O179 2.240 . S
Cd170 O171 2.240 . S
Cd170 O178 2.223 . S
Cd170 O180 2.297 . S
Cd170 O181 2.439 . S
O171 Cd170 2.240 . S
O171 C176 1.279 . S
O172 Cd169 2.297 . S
O172 C174 1.247 . S
O173 Cd169 2.439 . S
O173 C174 1.208 . S
C174 O172 1.247 . S
C174 O173 1.208 . S
C175 O180 1.247 . S
C175 O181 1.208 . S
C176 O168 1.315 . S
C176 O171 1.279 . S
C177 O178 1.315 . S
C177 O179 1.279 . S
O178 Cd170 2.223 . S
O178 C177 1.315 . S
O179 Cd169 2.240 . S
O179 C177 1.279 . S
O180 Cd170 2.297 . S
O180 C175 1.247 . S
O181 Cd170 2.439 . S
O181 C175 1.208 . S
O182 Cd183 2.223 . S
O182 C190 1.315 . S
Cd183 O182 2.223 . S
Cd183 O186 2.297 . S
Cd183 O187 2.439 . S
Cd183 O193 2.240 . S
Cd184 O185 2.240 . S
Cd184 O192 2.223 . S
Cd184 O194 2.297 . S
Cd184 O195 2.439 . S
O185 Cd184 2.240 . S
O185 C190 1.279 . S
O186 Cd183 2.297 . S
O186 C188 1.247 . S
O187 Cd183 2.439 . S
O187 C188 1.208 . S
C188 O186 1.247 . S
C188 O187 1.208 . S
C189 O194 1.247 . S
C189 O195 1.208 . S
C190 O182 1.315 . S
C190 O185 1.279 . S
C191 O192 1.315 . S
C191 O193 1.279 . S
O192 Cd184 2.223 . S
O192 C191 1.315 . S
O193 Cd183 2.240 . S
O193 C191 1.279 . S
O194 Cd184 2.297 . S
O194 C189 1.247 . S
O195 Cd184 2.439 . S
O195 C189 1.208 . S
O196 Cd197 2.223 . S
O196 C204 1.315 . S
Cd197 O196 2.223 . S
Cd197 O200 2.297 . S
Cd197 O201 2.439 . S
Cd197 O207 2.240 . S
Cd198 O199 2.240 . S
Cd198 O206 2.223 . S
Cd198 O208 2.297 . S
Cd198 O209 2.439 . S
O199 Cd198 2.240 . S
O199 C204 1.279 . S
O200 Cd197 2.297 . S
O200 C202 1.247 . S
O201 Cd197 2.439 . S
O201 C202 1.208 . S
C202 O200 1.247 . S
C202 O201 1.208 . S
C203 O208 1.247 . S
C203 O209 1.208 . S
C204 O196 1.315 . S
C204 O199 1.279 . S
C205 O206 1.315 . S
C205 O207 1.279 . S
O206 Cd198 2.223 . S
O206 C205 1.315 . S
O207 Cd197 2.240 . S
O207 C205 1.279 . S
O208 Cd198 2.297 . S
O208 C203 1.247 . S
O209 Cd198 2.439 . S
O209 C203 1.208 . S
O210 Cd211 2.223 . S
O210 C218 1.315 . S
Cd211 O210 2.223 . S
Cd211 O214 2.297 . S
Cd211 O215 2.439 . S
Cd211 O221 2.240 . S
Cd212 O213 2.240 . S
Cd212 O220 2.223 . S
Cd212 O222 2.297 . S
Cd212 O223 2.439 . S
O213 Cd212 2.240 . S
O213 C218 1.279 . S
O214 Cd211 2.297 . S
O214 C216 1.247 . S
O215 Cd211 2.439 . S
O215 C216 1.208 . S
C216 O214 1.247 . S
C216 O215 1.208 . S
C217 O222 1.247 . S
C217 O223 1.208 . S
C218 O210 1.315 . S
C218 O213 1.279 . S
C219 O220 1.315 . S
C219 O221 1.279 . S
O220 Cd212 2.223 . S
O220 C219 1.315 . S
O221 Cd211 2.240 . S
O221 C219 1.279 . S
O222 Cd212 2.297 . S
O222 C217 1.247 . S
O223 Cd212 2.439 . S
O223 C217 1.208 . S
O224 Cd225 2.223 . S
O224 C232 1.315 . S
Cd225 O224 2.223 . S
Cd225 O228 2.297 . S
Cd225 O229 2.439 . S
Cd225 O235 2.240 . S
Cd226 O227 2.240 . S
Cd226 O234 2.223 . S
Cd226 O236 2.297 . S
Cd226 O237 2.439 . S
O227 Cd226 2.240 . S
O227 C232 1.279 . S
O228 Cd225 2.297 . S
O228 C230 1.247 . S
O229 Cd225 2.439 . S
O229 C230 1.208 . S
C230 O228 1.247 . S
C230 O229 1.208 . S
C231 O236 1.247 . S
C231 O237 1.208 . S
C232 O224 1.315 . S
C232 O227 1.279 . S
C233 O234 1.315 . S
C233 O235 1.279 . S
O234 Cd226 2.223 . S
O234 C233 1.315 . S
O235 Cd225 2.240 . S
O235 C233 1.279 . S
O236 Cd226 2.297 . S
O236 C231 1.247 . S
O237 Cd226 2.439 . S
O237 C231 1.208 . S
O238 Cd239 2.223 . S
O238 C246 1.315 . S
Cd239 O238 2.223 . S
Cd239 O242 2.297 . S
Cd239 O243 2.439 . S
Cd239 O249 2.240 . S
Cd240 O241 2.240 . S
Cd240 O248 2.223 . S
Cd240 O250 2.297 . S
Cd240 O251 2.439 . S
O241 Cd240 2.240 . S
O241 C246 1.279 . S
O242 Cd239 2.297 . S
O242 C244 1.247 . S
O243 Cd239 2.439 . S
O243 C244 1.208 . S
C244 O242 1.247 . S
C244 O243 1.208 . S
C245 O250 1.247 . S
C245 O251 1.208 . S
C246 O238 1.315 . S
C246 O241 1.279 . S
C247 O248 1.315 . S
C247 O249 1.279 . S
O248 Cd240 2.223 . S
O248 C247 1.315 . S
O249 Cd239 2.240 . S
O249 C247 1.279 . S
O250 Cd240 2.297 . S
O250 C245 1.247 . S
O251 Cd240 2.439 . S
O251 C245 1.208 . S
O252 Cd253 2.223 . S
O252 C260 1.315 . S
Cd253 O252 2.223 . S
Cd253 O256 2.297 . S
Cd253 O257 2.439 . S
Cd253 O263 2.240 . S
Cd254 O255 2.240 . S
Cd254 O262 2.223 . S
Cd254 O264 2.297 . S
Cd254 O265 2.439 . S
O255 Cd254 2.240 . S
O255 C260 1.279 . S
O256 Cd253 2.297 . S
O256 C258 1.247 . S
O257 Cd253 2.439 . S
O257 C258 1.208 . S
C258 O256 1.247 . S
C258 O257 1.208 . S
C259 O264 1.247 . S
C259 O265 1.208 . S
C260 O252 1.315 . S
C260 O255 1.279 . S
C261 O262 1.315 . S
C261 O263 1.279 . S
O262 Cd254 2.223 . S
O262 C261 1.315 . S
O263 Cd253 2.240 . S
O263 C261 1.279 . S
O264 Cd254 2.297 . S
O264 C259 1.247 . S
O265 Cd254 2.439 . S
O265 C259 1.208 . S
O266 Cd267 2.223 . S
O266 C274 1.315 . S
Cd267 O266 2.223 . S
Cd267 O270 2.297 . S
Cd267 O271 2.439 . S
Cd267 O277 2.240 . S
Cd268 O269 2.240 . S
Cd268 O276 2.223 . S
Cd268 O278 2.297 . S
Cd268 O279 2.439 . S
O269 Cd268 2.240 . S
O269 C274 1.279 . S
O270 Cd267 2.297 . S
O270 C272 1.247 . S
O271 Cd267 2.439 . S
O271 C272 1.208 . S
C272 O270 1.247 . S
C272 O271 1.208 . S
C273 O278 1.247 . S
C273 O279 1.208 . S
C274 O266 1.315 . S
C274 O269 1.279 . S
C275 O276 1.315 . S
C275 O277 1.279 . S
O276 Cd268 2.223 . S
O276 C275 1.315 . S
O277 Cd267 2.240 . S
O277 C275 1.279 . S
O278 Cd268 2.297 . S
O278 C273 1.247 . S
O279 Cd268 2.439 . S
O279 C273 1.208 . S
O280 Cd281 2.223 . S
O280 C288 1.315 . S
Cd281 O280 2.223 . S
Cd281 O284 2.297 . S
Cd281 O285 2.439 . S
Cd281 O291 2.240 . S
Cd282 O283 2.240 . S
Cd282 O290 2.223 . S
Cd282 O292 2.297 . S
Cd282 O293 2.439 . S
O283 Cd282 2.240 . S
O283 C288 1.279 . S
O284 Cd281 2.297 . S
O284 C286 1.247 . S
O285 Cd281 2.439 . S
O285 C286 1.208 . S
C286 O284 1.247 . S
C286 O285 1.208 . S
C287 O292 1.247 . S
C287 O293 1.208 . S
C288 O280 1.315 . S
C288 O283 1.279 . S
C289 O290 1.315 . S
C289 O291 1.279 . S
O290 Cd282 2.223 . S
O290 C289 1.315 . S
O291 Cd281 2.240 . S
O291 C289 1.279 . S
O292 Cd282 2.297 . S
O292 C287 1.247 . S
O293 Cd282 2.439 . S
O293 C287 1.208 . S
O294 Cd295 2.223 . S
O294 C302 1.315 . S
Cd295 O294 2.223 . S
Cd295 O298 2.297 . S
Cd295 O299 2.439 . S
Cd295 O305 2.240 . S
Cd296 O297 2.240 . S
Cd296 O304 2.223 . S
Cd296 O306 2.297 . S
Cd296 O307 2.439 . S
O297 Cd296 2.240 . S
O297 C302 1.279 . S
O298 Cd295 2.297 . S
O298 C300 1.247 . S
O299 Cd295 2.439 . S
O299 C300 1.208 . S
C300 O298 1.247 . S
C300 O299 1.208 . S
C301 O306 1.247 . S
C301 O307 1.208 . S
C302 O294 1.315 . S
C302 O297 1.279 . S
C303 O304 1.315 . S
C303 O305 1.279 . S
O304 Cd296 2.223 . S
O304 C303 1.315 . S
O305 Cd295 2.240 . S
O305 C303 1.279 . S
O306 Cd296 2.297 . S
O306 C301 1.247 . S
O307 Cd296 2.439 . S
O307 C301 1.208 . S
O308 Cd309 2.223 . S
O308 C316 1.315 . S
Cd309 O308 2.223 . S
Cd309 O312 2.297 . S
Cd309 O313 2.439 . S
Cd309 O319 2.240 . S
Cd310 O311 2.240 . S
Cd310 O318 2.223 . S
Cd310 O320 2.297 1_655 S
Cd310 O321 2.439 . S
O311 Cd310 2.240 . S
O311 C316 1.279 . S
O312 Cd309 2.297 . S
O312 C314 1.247 . S
O313 Cd309 2.439 . S
O313 C314 1.208 . S
C314 O312 1.247 . S
C314 O313 1.208 . S
C315 O320 1.247 . S
C315 O321 1.208 1_455 S
C316 O308 1.315 . S
C316 O311 1.279 . S
C317 O318 1.315 . S
C317 O319 1.279 . S
O318 Cd310 2.223 . S
O318 C317 1.315 . S
O319 Cd309 2.240 . S
O319 C317 1.279 . S
O320 Cd310 2.297 1_455 S
O320 C315 1.247 . S
O321 Cd310 2.439 . S
O321 C315 1.208 1_655 S
O322 Cd323 2.223 . S
O322 C330 1.315 . S
Cd323 O322 2.223 . S
Cd323 O326 2.297 . S
Cd323 O327 2.439 . S
Cd323 O333 2.240 . S
Cd324 O325 2.240 . S
Cd324 O332 2.223 . S
Cd324 O334 2.297 . S
Cd324 O335 2.439 . S
O325 Cd324 2.240 . S
O325 C330 1.279 . S
O326 Cd323 2.297 . S
O326 C328 1.247 . S
O327 Cd323 2.439 . S
O327 C328 1.208 . S
C328 O326 1.247 . S
C328 O327 1.208 . S
C329 O334 1.247 . S
C329 O335 1.208 . S
C330 O322 1.315 . S
C330 O325 1.279 . S
C331 O332 1.315 . S
C331 O333 1.279 . S
O332 Cd324 2.223 . S
O332 C331 1.315 . S
O333 Cd323 2.240 . S
O333 C331 1.279 . S
O334 Cd324 2.297 . S
O334 C329 1.247 . S
O335 Cd324 2.439 . S
O335 C329 1.208 . S
O336 Cd337 2.223 . S
O336 C344 1.315 . S
Cd337 O336 2.223 . S
Cd337 O340 2.297 1_565 S
Cd337 O341 2.439 . S
Cd337 O347 2.240 . S
Cd338 O339 2.240 . S
Cd338 O346 2.223 . S
Cd338 O348 2.297 . S
Cd338 O349 2.439 . S
O339 Cd338 2.240 . S
O339 C344 1.279 . S
O340 Cd337 2.297 1_545 S
O340 C342 1.247 . S
O341 Cd337 2.439 . S
O341 C342 1.208 1_565 S
C342 O340 1.247 . S
C342 O341 1.208 1_545 S
C343 O348 1.247 . S
C343 O349 1.208 . S
C344 O336 1.315 . S
C344 O339 1.279 . S
C345 O346 1.315 . S
C345 O347 1.279 . S
O346 Cd338 2.223 . S
O346 C345 1.315 . S
O347 Cd337 2.240 . S
O347 C345 1.279 . S
O348 Cd338 2.297 . S
O348 C343 1.247 . S
O349 Cd338 2.439 . S
O349 C343 1.208 . S
O350 Cd351 2.223 . S
O350 C358 1.315 . S
Cd351 O350 2.223 . S
Cd351 O354 2.297 . S
Cd351 O355 2.439 . S
Cd351 O361 2.240 . S
Cd352 O353 2.240 . S
Cd352 O360 2.223 . S
Cd352 O362 2.297 . S
Cd352 O363 2.439 . S
O353 Cd352 2.240 . S
O353 C358 1.279 . S
O354 Cd351 2.297 . S
O354 C356 1.247 . S
O355 Cd351 2.439 . S
O355 C356 1.208 . S
C356 O354 1.247 . S
C356 O355 1.208 . S
C357 O362 1.247 . S
C357 O363 1.208 . S
C358 O350 1.315 . S
C358 O353 1.279 . S
C359 O360 1.315 . S
C359 O361 1.279 . S
O360 Cd352 2.223 . S
O360 C359 1.315 . S
O361 Cd351 2.240 . S
O361 C359 1.279 . S
O362 Cd352 2.297 . S
O362 C357 1.247 . S
O363 Cd352 2.439 . S
O363 C357 1.208 . S
O364 Cd365 2.223 . S
O364 C372 1.315 . S
Cd365 O364 2.223 . S
Cd365 O368 2.297 . S
Cd365 O369 2.439 . S
Cd365 O375 2.240 . S
Cd366 O367 2.240 . S
Cd366 O374 2.223 . S
Cd366 O376 2.297 1_565 S
Cd366 O377 2.439 1_565 S
O367 Cd366 2.240 . S
O367 C372 1.279 . S
O368 Cd365 2.297 . S
O368 C370 1.247 . S
O369 Cd365 2.439 . S
O369 C370 1.208 . S
C370 O368 1.247 . S
C370 O369 1.208 . S
C371 O376 1.247 . S
C371 O377 1.208 . S
C372 O364 1.315 . S
C372 O367 1.279 . S
C373 O374 1.315 . S
C373 O375 1.279 . S
O374 Cd366 2.223 . S
O374 C373 1.315 . S
O375 Cd365 2.240 . S
O375 C373 1.279 . S
O376 Cd366 2.297 1_545 S
O376 C371 1.247 . S
O377 Cd366 2.439 1_545 S
O377 C371 1.208 . S
O378 Cd379 2.223 . S
O378 C386 1.315 . S
Cd379 O378 2.223 . S
Cd379 O382 2.297 . S
Cd379 O383 2.439 . S
Cd379 O389 2.240 . S
Cd380 O381 2.240 . S
Cd380 O388 2.223 . S
Cd380 O390 2.297 . S
Cd380 O391 2.439 . S
O381 Cd380 2.240 . S
O381 C386 1.279 . S
O382 Cd379 2.297 . S
O382 C384 1.247 . S
O383 Cd379 2.439 . S
O383 C384 1.208 . S
C384 O382 1.247 . S
C384 O383 1.208 . S
C385 O390 1.247 . S
C385 O391 1.208 . S
C386 O378 1.315 . S
C386 O381 1.279 . S
C387 O388 1.315 . S
C387 O389 1.279 . S
O388 Cd380 2.223 . S
O388 C387 1.315 . S
O389 Cd379 2.240 . S
O389 C387 1.279 . S
O390 Cd380 2.297 . S
O390 C385 1.247 . S
O391 Cd380 2.439 . S
O391 C385 1.208 . S
O392 Cd393 2.223 . S
O392 C400 1.315 . S
Cd393 O392 2.223 . S
Cd393 O396 2.297 . S
Cd393 O397 2.439 . S
Cd393 O403 2.240 . S
Cd394 O395 2.240 . S
Cd394 O402 2.223 . S
Cd394 O404 2.297 . S
Cd394 O405 2.439 . S
O395 Cd394 2.240 . S
O395 C400 1.279 . S
O396 Cd393 2.297 . S
O396 C398 1.247 . S
O397 Cd393 2.439 . S
O397 C398 1.208 . S
C398 O396 1.247 . S
C398 O397 1.208 . S
C399 O404 1.247 . S
C399 O405 1.208 . S
C400 O392 1.315 . S
C400 O395 1.279 . S
C401 O402 1.315 . S
C401 O403 1.279 . S
O402 Cd394 2.223 . S
O402 C401 1.315 . S
O403 Cd393 2.240 . S
O403 C401 1.279 . S
O404 Cd394 2.297 . S
O404 C399 1.247 . S
O405 Cd394 2.439 . S
O405 C399 1.208 . S
O406 Cd407 2.223 . S
O406 C414 1.315 . S
Cd407 O406 2.223 . S
Cd407 O410 2.297 . S
Cd407 O411 2.439 . S
Cd407 O417 2.240 . S
Cd408 O409 2.240 . S
Cd408 O416 2.223 . S
Cd408 O418 2.297 . S
Cd408 O419 2.439 . S
O409 Cd408 2.240 . S
O409 C414 1.279 . S
O410 Cd407 2.297 . S
O410 C412 1.247 . S
O411 Cd407 2.439 . S
O411 C412 1.208 . S
C412 O410 1.247 . S
C412 O411 1.208 . S
C413 O418 1.247 . S
C413 O419 1.208 . S
C414 O406 1.315 . S
C414 O409 1.279 . S
C415 O416 1.315 . S
C415 O417 1.279 . S
O416 Cd408 2.223 . S
O416 C415 1.315 . S
O417 Cd407 2.240 . S
O417 C415 1.279 . S
O418 Cd408 2.297 . S
O418 C413 1.247 . S
O419 Cd408 2.439 . S
O419 C413 1.208 . S
O420 Cd421 2.223 . S
O420 C428 1.315 . S
Cd421 O420 2.223 . S
Cd421 O424 2.297 . S
Cd421 O425 2.439 . S
Cd421 O431 2.240 . S
Cd422 O423 2.240 . S
Cd422 O430 2.223 . S
Cd422 O432 2.297 . S
Cd422 O433 2.439 . S
O423 Cd422 2.240 . S
O423 C428 1.279 . S
O424 Cd421 2.297 . S
O424 C426 1.247 . S
O425 Cd421 2.439 . S
O425 C426 1.208 . S
C426 O424 1.247 . S
C426 O425 1.208 . S
C427 O432 1.247 . S
C427 O433 1.208 . S
C428 O420 1.315 . S
C428 O423 1.279 . S
C429 O430 1.315 . S
C429 O431 1.279 . S
O430 Cd422 2.223 . S
O430 C429 1.315 . S
O431 Cd421 2.240 . S
O431 C429 1.279 . S
O432 Cd422 2.297 . S
O432 C427 1.247 . S
O433 Cd422 2.439 . S
O433 C427 1.208 . S
O434 Cd435 2.223 . S
O434 C442 1.315 . S
Cd435 O434 2.223 . S
Cd435 O438 2.297 . S
Cd435 O439 2.439 . S
Cd435 O445 2.240 . S
Cd436 O437 2.240 . S
Cd436 O444 2.223 . S
Cd436 O446 2.297 . S
Cd436 O447 2.439 . S
O437 Cd436 2.240 . S
O437 C442 1.279 . S
O438 Cd435 2.297 . S
O438 C440 1.247 . S
O439 Cd435 2.439 . S
O439 C440 1.208 . S
C440 O438 1.247 . S
C440 O439 1.208 . S
C441 O446 1.247 . S
C441 O447 1.208 . S
C442 O434 1.315 . S
C442 O437 1.279 . S
C443 O444 1.315 . S
C443 O445 1.279 . S
O444 Cd436 2.223 . S
O444 C443 1.315 . S
O445 Cd435 2.240 . S
O445 C443 1.279 . S
O446 Cd436 2.297 . S
O446 C441 1.247 . S
O447 Cd436 2.439 . S
O447 C441 1.208 . S
O448 Cd449 2.223 . S
O448 C456 1.315 . S
Cd449 O448 2.223 . S
Cd449 O452 2.297 . S
Cd449 O453 2.439 . S
Cd449 O459 2.240 . S
Cd450 O451 2.240 . S
Cd450 O458 2.223 . S
Cd450 O460 2.297 . S
Cd450 O461 2.439 . S
O451 Cd450 2.240 . S
O451 C456 1.279 . S
O452 Cd449 2.297 . S
O452 C454 1.247 . S
O453 Cd449 2.439 . S
O453 C454 1.208 . S
C454 O452 1.247 . S
C454 O453 1.208 . S
C455 O460 1.247 . S
C455 O461 1.208 . S
C456 O448 1.315 . S
C456 O451 1.279 . S
C457 O458 1.315 . S
C457 O459 1.279 . S
O458 Cd450 2.223 . S
O458 C457 1.315 . S
O459 Cd449 2.240 . S
O459 C457 1.279 . S
O460 Cd450 2.297 . S
O460 C455 1.247 . S
O461 Cd450 2.439 . S
O461 C455 1.208 . S
O462 Cd463 2.223 . S
O462 C470 1.315 . S
Cd463 O462 2.223 . S
Cd463 O466 2.297 . S
Cd463 O467 2.439 . S
Cd463 O473 2.240 . S
Cd464 O465 2.240 . S
Cd464 O472 2.223 . S
Cd464 O474 2.297 . S
Cd464 O475 2.439 . S
O465 Cd464 2.240 . S
O465 C470 1.279 . S
O466 Cd463 2.297 . S
O466 C468 1.247 . S
O467 Cd463 2.439 . S
O467 C468 1.208 . S
C468 O466 1.247 . S
C468 O467 1.208 . S
C469 O474 1.247 . S
C469 O475 1.208 . S
C470 O462 1.315 . S
C470 O465 1.279 . S
C471 O472 1.315 . S
C471 O473 1.279 . S
O472 Cd464 2.223 . S
O472 C471 1.315 . S
O473 Cd463 2.240 . S
O473 C471 1.279 . S
O474 Cd464 2.297 . S
O474 C469 1.247 . S
O475 Cd464 2.439 . S
O475 C469 1.208 . S
O476 Cd477 2.223 . S
O476 C484 1.315 . S
Cd477 O476 2.223 . S
Cd477 O480 2.297 . S
Cd477 O481 2.439 . S
Cd477 O487 2.240 . S
Cd478 O479 2.240 . S
Cd478 O486 2.223 . S
Cd478 O488 2.297 . S
Cd478 O489 2.439 . S
O479 Cd478 2.240 . S
O479 C484 1.279 . S
O480 Cd477 2.297 . S
O480 C482 1.247 . S
O481 Cd477 2.439 . S
O481 C482 1.208 . S
C482 O480 1.247 . S
C482 O481 1.208 . S
C483 O488 1.247 . S
C483 O489 1.208 . S
C484 O476 1.315 . S
C484 O479 1.279 . S
C485 O486 1.315 . S
C485 O487 1.279 . S
O486 Cd478 2.223 . S
O486 C485 1.315 . S
O487 Cd477 2.240 . S
O487 C485 1.279 . S
O488 Cd478 2.297 . S
O488 C483 1.247 . S
O489 Cd478 2.439 . S
O489 C483 1.208 . S
O490 Cd491 2.223 . S
O490 C498 1.315 . S
Cd491 O490 2.223 . S
Cd491 O494 2.297 . S
Cd491 O495 2.439 . S
Cd491 O501 2.240 . S
Cd492 O493 2.240 . S
Cd492 O500 2.223 . S
Cd492 O502 2.297 . S
Cd492 O503 2.439 . S
O493 Cd492 2.240 . S
O493 C498 1.279 . S
O494 Cd491 2.297 . S
O494 C496 1.247 . S
O495 Cd491 2.439 . S
O495 C496 1.208 . S
C496 O494 1.247 . S
C496 O495 1.208 . S
C497 O502 1.247 . S
C497 O503 1.208 . S
C498 O490 1.315 . S
C498 O493 1.279 . S
C499 O500 1.315 . S
C499 O501 1.279 . S
O500 Cd492 2.223 . S
O500 C499 1.315 . S
O501 Cd491 2.240 . S
O501 C499 1.279 . S
O502 Cd492 2.297 . S
O502 C497 1.247 . S
O503 Cd492 2.439 . S
O503 C497 1.208 . S
O504 Cd505 2.223 . S
O504 C512 1.315 . S
Cd505 O504 2.223 . S
Cd505 O508 2.297 1_554 S
Cd505 O509 2.439 . S
Cd505 O515 2.240 . S
Cd506 O507 2.240 . S
Cd506 O514 2.223 . S
Cd506 O516 2.297 . S
Cd506 O517 2.439 . S
O507 Cd506 2.240 . S
O507 C512 1.279 . S
O508 Cd505 2.297 1_556 S
O508 C510 1.247 . S
O509 Cd505 2.439 . S
O509 C510 1.208 1_554 S
C510 O508 1.247 . S
C510 O509 1.208 1_556 S
C511 O516 1.247 . S
C511 O517 1.208 . S
C512 O504 1.315 . S
C512 O507 1.279 . S
C513 O514 1.315 . S
C513 O515 1.279 . S
O514 Cd506 2.223 . S
O514 C513 1.315 . S
O515 Cd505 2.240 . S
O515 C513 1.279 . S
O516 Cd506 2.297 . S
O516 C511 1.247 . S
O517 Cd506 2.439 . S
O517 C511 1.208 . S
O518 Cd519 2.223 . S
O518 C526 1.315 . S
Cd519 O518 2.223 . S
Cd519 O522 2.297 . S
Cd519 O523 2.439 . S
Cd519 O529 2.240 . S
Cd520 O521 2.240 . S
Cd520 O528 2.223 . S
Cd520 O530 2.297 . S
Cd520 O531 2.439 . S
O521 Cd520 2.240 . S
O521 C526 1.279 . S
O522 Cd519 2.297 . S
O522 C524 1.247 . S
O523 Cd519 2.439 . S
O523 C524 1.208 . S
C524 O522 1.247 . S
C524 O523 1.208 . S
C525 O530 1.247 . S
C525 O531 1.208 . S
C526 O518 1.315 . S
C526 O521 1.279 . S
C527 O528 1.315 . S
C527 O529 1.279 . S
O528 Cd520 2.223 . S
O528 C527 1.315 . S
O529 Cd519 2.240 . S
O529 C527 1.279 . S
O530 Cd520 2.297 . S
O530 C525 1.247 . S
O531 Cd520 2.439 . S
O531 C525 1.208 . S
O532 Cd533 2.223 . S
O532 C540 1.315 . S
Cd533 O532 2.223 . S
Cd533 O536 2.297 . S
Cd533 O537 2.439 . S
Cd533 O543 2.240 . S
Cd534 O535 2.240 . S
Cd534 O542 2.223 . S
Cd534 O544 2.297 . S
Cd534 O545 2.439 . S
O535 Cd534 2.240 . S
O535 C540 1.279 . S
O536 Cd533 2.297 . S
O536 C538 1.247 . S
O537 Cd533 2.439 . S
O537 C538 1.208 . S
C538 O536 1.247 . S
C538 O537 1.208 . S
C539 O544 1.247 . S
C539 O545 1.208 . S
C540 O532 1.315 . S
C540 O535 1.279 . S
C541 O542 1.315 . S
C541 O543 1.279 . S
O542 Cd534 2.223 . S
O542 C541 1.315 . S
O543 Cd533 2.240 . S
O543 C541 1.279 . S
O544 Cd534 2.297 . S
O544 C539 1.247 . S
O545 Cd534 2.439 . S
O545 C539 1.208 . S
O546 Cd547 2.223 . S
O546 C554 1.315 . S
Cd547 O546 2.223 . S
Cd547 O550 2.297 . S
Cd547 O551 2.439 . S
Cd547 O557 2.240 . S
Cd548 O549 2.240 . S
Cd548 O556 2.223 . S
Cd548 O558 2.297 . S
Cd548 O559 2.439 . S
O549 Cd548 2.240 . S
O549 C554 1.279 . S
O550 Cd547 2.297 . S
O550 C552 1.247 . S
O551 Cd547 2.439 . S
O551 C552 1.208 . S
C552 O550 1.247 . S
C552 O551 1.208 . S
C553 O558 1.247 . S
C553 O559 1.208 . S
C554 O546 1.315 . S
C554 O549 1.279 . S
C555 O556 1.315 . S
C555 O557 1.279 . S
O556 Cd548 2.223 . S
O556 C555 1.315 . S
O557 Cd547 2.240 . S
O557 C555 1.279 . S
O558 Cd548 2.297 . S
O558 C553 1.247 . S
O559 Cd548 2.439 . S
O559 C553 1.208 . S
O560 Cd561 2.223 . S
O560 C568 1.315 . S
Cd561 O560 2.223 . S
Cd561 O564 2.297 . S
Cd561 O565 2.439 . S
Cd561 O571 2.240 . S
Cd562 O563 2.240 . S
Cd562 O570 2.223 . S
Cd562 O572 2.297 . S
Cd562 O573 2.439 . S
O563 Cd562 2.240 . S
O563 C568 1.279 . S
O564 Cd561 2.297 . S
O564 C566 1.247 . S
O565 Cd561 2.439 . S
O565 C566 1.208 . S
C566 O564 1.247 . S
C566 O565 1.208 . S
C567 O572 1.247 . S
C567 O573 1.208 . S
C568 O560 1.315 . S
C568 O563 1.279 . S
C569 O570 1.315 . S
C569 O571 1.279 . S
O570 Cd562 2.223 . S
O570 C569 1.315 . S
O571 Cd561 2.240 . S
O571 C569 1.279 . S
O572 Cd562 2.297 . S
O572 C567 1.247 . S
O573 Cd562 2.439 . S
O573 C567 1.208 . S
O574 Cd575 2.223 . S
O574 C582 1.315 . S
Cd575 O574 2.223 . S
Cd575 O578 2.297 . S
Cd575 O579 2.439 . S
Cd575 O585 2.240 . S
Cd576 O577 2.240 . S
Cd576 O584 2.223 . S
Cd576 O586 2.297 . S
Cd576 O587 2.439 . S
O577 Cd576 2.240 . S
O577 C582 1.279 . S
O578 Cd575 2.297 . S
O578 C580 1.247 . S
O579 Cd575 2.439 . S
O579 C580 1.208 . S
C580 O578 1.247 . S
C580 O579 1.208 . S
C581 O586 1.247 . S
C581 O587 1.208 . S
C582 O574 1.315 . S
C582 O577 1.279 . S
C583 O584 1.315 . S
C583 O585 1.279 . S
O584 Cd576 2.223 . S
O584 C583 1.315 . S
O585 Cd575 2.240 . S
O585 C583 1.279 . S
O586 Cd576 2.297 . S
O586 C581 1.247 . S
O587 Cd576 2.439 . S
O587 C581 1.208 . S
O588 Cd589 2.223 . S
O588 C596 1.312 1_455 S
Cd589 O588 2.223 . S
Cd589 O592 2.297 . S
Cd589 O593 2.439 . S
Cd589 O599 2.240 . S
Cd590 O591 2.240 . S
Cd590 O598 2.223 . S
Cd590 O600 2.297 . S
Cd590 O601 2.439 . S
O591 Cd590 2.240 . S
O591 C596 1.276 1_455 S
O592 Cd589 2.297 . S
O592 C594 1.247 . S
O593 Cd589 2.439 . S
O593 C594 1.208 . S
C594 O592 1.247 . S
C594 O593 1.208 . S
C595 O600 1.247 . S
C595 O601 1.208 . S
C596 O588 1.312 1_655 S
C596 O591 1.276 1_655 S
C597 O598 1.315 . S
C597 O599 1.279 . S
O598 Cd590 2.223 . S
O598 C597 1.315 . S
O599 Cd589 2.240 . S
O599 C597 1.279 . S
O600 Cd590 2.297 . S
O600 C595 1.247 . S
O601 Cd590 2.439 . S
O601 C595 1.208 . S
O602 Cd603 2.223 . S
O602 C610 1.315 . S
Cd603 O602 2.223 . S
Cd603 O606 2.297 . S
Cd603 O607 2.439 . S
Cd603 O613 2.240 . S
Cd604 O605 2.240 . S
Cd604 O612 2.223 . S
Cd604 O614 2.297 . S
Cd604 O615 2.439 . S
O605 Cd604 2.240 . S
O605 C610 1.279 . S
O606 Cd603 2.297 . S
O606 C608 1.247 . S
O607 Cd603 2.439 . S
O607 C608 1.208 . S
C608 O606 1.247 . S
C608 O607 1.208 . S
C609 O614 1.247 . S
C609 O615 1.208 . S
C610 O602 1.315 . S
C610 O605 1.279 . S
C611 O612 1.315 . S
C611 O613 1.279 . S
O612 Cd604 2.223 . S
O612 C611 1.315 . S
O613 Cd603 2.240 . S
O613 C611 1.279 . S
O614 Cd604 2.297 . S
O614 C609 1.247 . S
O615 Cd604 2.439 . S
O615 C609 1.208 . S
O616 Cd617 2.223 . S
O616 C624 1.315 . S
Cd617 O616 2.223 . S
Cd617 O620 2.297 . S
Cd617 O621 2.439 . S
Cd617 O627 2.240 . S
Cd618 O619 2.240 . S
Cd618 O626 2.223 . S
Cd618 O628 2.297 . S
Cd618 O629 2.439 . S
O619 Cd618 2.240 . S
O619 C624 1.279 . S
O620 Cd617 2.297 . S
O620 C622 1.247 . S
O621 Cd617 2.439 . S
O621 C622 1.208 . S
C622 O620 1.247 . S
C622 O621 1.208 . S
C623 O628 1.247 . S
C623 O629 1.208 . S
C624 O616 1.315 . S
C624 O619 1.279 . S
C625 O626 1.315 . S
C625 O627 1.279 . S
O626 Cd618 2.223 . S
O626 C625 1.315 . S
O627 Cd617 2.240 . S
O627 C625 1.279 . S
O628 Cd618 2.297 . S
O628 C623 1.247 . S
O629 Cd618 2.439 . S
O629 C623 1.208 . S
O630 Cd631 2.223 . S
O630 C638 1.315 . S
Cd631 O630 2.223 . S
Cd631 O634 2.297 1_556 S
Cd631 O635 2.439 . S
Cd631 O641 2.240 . S
Cd632 O633 2.240 . S
Cd632 O640 2.223 . S
Cd632 O642 2.297 . S
Cd632 O643 2.439 . S
O633 Cd632 2.240 . S
O633 C638 1.279 . S
O634 Cd631 2.297 1_554 S
O634 C636 1.247 . S
O635 Cd631 2.439 . S
O635 C636 1.208 1_556 S
C636 O634 1.247 . S
C636 O635 1.208 1_554 S
C637 O642 1.247 . S
C637 O643 1.208 . S
C638 O630 1.315 . S
C638 O633 1.279 . S
C639 O640 1.315 . S
C639 O641 1.279 . S
O640 Cd632 2.223 . S
O640 C639 1.315 . S
O641 Cd631 2.240 . S
O641 C639 1.279 . S
O642 Cd632 2.297 . S
O642 C637 1.247 . S
O643 Cd632 2.439 . S
O643 C637 1.208 . S
O644 Cd645 2.223 . S
O644 C652 1.315 . S
Cd645 O644 2.223 . S
Cd645 O648 2.297 . S
Cd645 O649 2.439 . S
Cd645 O655 2.240 . S
Cd646 O647 2.240 . S
Cd646 O654 2.223 . S
Cd646 O656 2.297 . S
Cd646 O657 2.439 . S
O647 Cd646 2.240 . S
O647 C652 1.279 . S
O648 Cd645 2.297 . S
O648 C650 1.247 . S
O649 Cd645 2.439 . S
O649 C650 1.208 . S
C650 O648 1.247 . S
C650 O649 1.208 . S
C651 O656 1.247 . S
C651 O657 1.208 . S
C652 O644 1.315 . S
C652 O647 1.279 . S
C653 O654 1.315 . S
C653 O655 1.279 . S
O654 Cd646 2.223 . S
O654 C653 1.315 . S
O655 Cd645 2.240 . S
O655 C653 1.279 . S
O656 Cd646 2.297 . S
O656 C651 1.247 . S
O657 Cd646 2.439 . S
O657 C651 1.208 . S
O658 Cd659 2.223 . S
O658 C666 1.315 . S
Cd659 O658 2.223 . S
Cd659 O662 2.297 . S
Cd659 O663 2.439 . S
Cd659 O669 2.240 . S
Cd660 O661 2.240 . S
Cd660 O668 2.223 . S
Cd660 O670 2.297 . S
Cd660 O671 2.439 . S
O661 Cd660 2.240 . S
O661 C666 1.279 . S
O662 Cd659 2.297 . S
O662 C664 1.247 . S
O663 Cd659 2.439 . S
O663 C664 1.208 . S
C664 O662 1.247 . S
C664 O663 1.208 . S
C665 O670 1.247 . S
C665 O671 1.208 . S
C666 O658 1.315 . S
C666 O661 1.279 . S
C667 O668 1.315 . S
C667 O669 1.279 . S
O668 Cd660 2.223 . S
O668 C667 1.315 . S
O669 Cd659 2.240 . S
O669 C667 1.279 . S
O670 Cd660 2.297 . S
O670 C665 1.247 . S
O671 Cd660 2.439 . S
O671 C665 1.208 . S
C594 C7 1.368 . S
C23 C219 1.552 1_455 S
C34 C567 1.474 . S
C50 C246 1.537 . S
C624 C64 1.747 . S
C77 C301 1.788 . S
C93 C653 1.756 . S
C105 C272 1.755 1_455 S
C49 C664 1.069 . S
C8 C357 1.953 . S
C373 C20 1.280 . S
C37 C343 2.300 1_556 S
C78 C344 2.150 . S
C90 C667 1.609 . S
C106 C358 1.966 . S
C63 C370 1.345 1_554 S
C552 C119 0.983 . S
C135 C275 1.790 . S
C120 C623 1.799 . S
C302 C149 2.142 . S
C314 C161 1.283 . S
C581 C176 1.253 . S
C597 C188 1.429 . S
C568 C202 1.422 . S
C468 C217 1.414 . S
C233 C9 1.545 1_655 S
C244 C441 1.686 . S
C36 C260 1.495 . S
C274 C499 1.745 . S
C91 C286 1.795 . S
C303 C527 1.710 . S
C62 C315 1.727 . S
C538 C259 1.100 . S
C218 C147 2.021 . S
C163 C230 1.201 . S
C133 C247 2.250 1_556 S
C134 C289 2.130 . S
C300 C541 1.630 . S
C148 C316 2.044 . S
C273 C160 1.327 1_556 S
C329 C426 1.135 . S
C345 C65 1.749 . S
C330 C496 1.708 . S
C359 C92 2.060 . S
C371 C104 1.230 . S
C455 C386 1.299 . S
C398 C471 1.434 . S
C415 C442 2.126 . S
C427 C258 1.532 . S
C443 C555 1.574 . S
C231 C454 1.523 . S
C470 C582 1.493 1_655 S
C484 C288 1.753 . S
C637 C497 1.750 1_455 S
C513 C317 1.803 . S
C608 C525 1.616 . S
C328 C469 1.012 . S
C414 C428 2.005 1_554 S
C440 C387 1.479 . S
C399 C457 2.402 . S
C498 C400 2.086 . S
C331 C510 1.520 . S
C526 C413 1.968 . S
C483 C384 1.404 . S
C539 C216 1.017 . S
C191 C611 1.691 . S
C287 C540 1.712 1_545 S
C638 C205 2.048 . S
C650 C175 1.234 . S
C162 C245 1.238 . S
C132 C261 1.516 . S
C232 C146 1.480 1_545 S
C553 C48 1.381 . S
C429 C569 1.671 . S
C580 C21 1.474 . S
C596 C456 1.513 . S
C79 C610 1.759 . S
C622 C511 1.576 1_455 S
C639 C107 1.762 . S
C482 C651 1.705 . S
C595 C118 1.084 . S
C203 C554 1.951 1_556 S
C177 C566 1.274 . S
C583 C189 2.381 . S
C625 C190 2.202 . S
C121 C636 1.683 . S
C204 C652 1.914 . S
C609 C174 1.353 . S
C6 C665 1.030 . S
C401 C485 1.796 . S
C76 C666 1.692 1_565 S
C512 C412 1.410 . S
C524 C385 1.123 . S
C372 C35 1.287 . S
C342 C51 1.477 . S
C22 C356 1.454 1_565 S
