# Generated by pormake.
# Topology wju, (5)-cn, num edge types: 1
# Building blocks:
#     Node 0, Type 0, BuildingBlock: XOMCOT_clean_sbu_0, # of connection points: 5
#     Node 1, Type 0, BuildingBlock: XOMCOT_clean_sbu_0, # of connection points: 5
#     Node 2, Type 0, BuildingBlock: XOMCOT_clean_sbu_0, # of connection points: 5
#     Node 3, Type 0, BuildingBlock: XOMCOT_clean_sbu_0, # of connection points: 5
#     Node 4, Type 0, BuildingBlock: XOMCOT_clean_sbu_0, # of connection points: 5
#     Node 5, Type 0, BuildingBlock: XOMCOT_clean_sbu_0, # of connection points: 5
#     Node 6, Type 0, BuildingBlock: XOMCOT_clean_sbu_0, # of connection points: 5
#     Node 7, Type 0, BuildingBlock: XOMCOT_clean_sbu_0, # of connection points: 5
#     Node 8, Type 0, BuildingBlock: XOMCOT_clean_sbu_0, # of connection points: 5
#     Node 9, Type 0, BuildingBlock: XOMCOT_clean_sbu_0, # of connection points: 5
#     Node 10, Type 0, BuildingBlock: XOMCOT_clean_sbu_0, # of connection points: 5
#     Node 11, Type 0, BuildingBlock: XOMCOT_clean_sbu_0, # of connection points: 5
#     Edge 12, Type (0, 0), BuildingBlock: EZIPEK_clean_linker_0, # of connection points: 2
#     Edge 13, Type (0, 0), BuildingBlock: EZIPEK_clean_linker_0, # of connection points: 2
#     Edge 14, Type (0, 0), BuildingBlock: EZIPEK_clean_linker_0, # of connection points: 2
#     Edge 15, Type (0, 0), BuildingBlock: EZIPEK_clean_linker_0, # of connection points: 2
#     Edge 16, Type (0, 0), BuildingBlock: EZIPEK_clean_linker_0, # of connection points: 2
#     Edge 17, Type (0, 0), BuildingBlock: EZIPEK_clean_linker_0, # of connection points: 2
#     Edge 18, Type (0, 0), BuildingBlock: EZIPEK_clean_linker_0, # of connection points: 2
#     Edge 19, Type (0, 0), BuildingBlock: EZIPEK_clean_linker_0, # of connection points: 2
#     Edge 20, Type (0, 0), BuildingBlock: EZIPEK_clean_linker_0, # of connection points: 2
#     Edge 21, Type (0, 0), BuildingBlock: EZIPEK_clean_linker_0, # of connection points: 2
#     Edge 22, Type (0, 0), BuildingBlock: EZIPEK_clean_linker_0, # of connection points: 2
#     Edge 23, Type (0, 0), BuildingBlock: EZIPEK_clean_linker_0, # of connection points: 2
#     Edge 24, Type (0, 0), BuildingBlock: EZIPEK_clean_linker_0, # of connection points: 2
#     Edge 25, Type (0, 0), BuildingBlock: EZIPEK_clean_linker_0, # of connection points: 2
#     Edge 26, Type (0, 0), BuildingBlock: EZIPEK_clean_linker_0, # of connection points: 2
#     Edge 27, Type (0, 0), BuildingBlock: EZIPEK_clean_linker_0, # of connection points: 2
#     Edge 28, Type (0, 0), BuildingBlock: EZIPEK_clean_linker_0, # of connection points: 2
#     Edge 29, Type (0, 0), BuildingBlock: EZIPEK_clean_linker_0, # of connection points: 2
#     Edge 30, Type (0, 0), BuildingBlock: EZIPEK_clean_linker_0, # of connection points: 2
#     Edge 31, Type (0, 0), BuildingBlock: EZIPEK_clean_linker_0, # of connection points: 2
#     Edge 32, Type (0, 0), BuildingBlock: EZIPEK_clean_linker_0, # of connection points: 2
#     Edge 33, Type (0, 0), BuildingBlock: EZIPEK_clean_linker_0, # of connection points: 2
#     Edge 34, Type (0, 0), BuildingBlock: EZIPEK_clean_linker_0, # of connection points: 2
#     Edge 35, Type (0, 0), BuildingBlock: EZIPEK_clean_linker_0, # of connection points: 2
#     Edge 36, Type (0, 0), BuildingBlock: EZIPEK_clean_linker_0, # of connection points: 2
#     Edge 37, Type (0, 0), BuildingBlock: EZIPEK_clean_linker_0, # of connection points: 2
#     Edge 38, Type (0, 0), BuildingBlock: EZIPEK_clean_linker_0, # of connection points: 2
#     Edge 39, Type (0, 0), BuildingBlock: EZIPEK_clean_linker_0, # of connection points: 2
#     Edge 40, Type (0, 0), BuildingBlock: EZIPEK_clean_linker_0, # of connection points: 2
#     Edge 41, Type (0, 0), BuildingBlock: EZIPEK_clean_linker_0, # of connection points: 2
# Relax obj value: 0.110
# Max RMSD: 0.149
# Mean RMSD: 0.149
data_MOF--net-wju--node1-XOMCOT_clean_sbu_0--edge1-EZIPEK_clean_linker_0
_symmetry_space_group_name_H-M    P1
_symmetry_Int_Tables_number       1
_symmetry_cell_setting            triclinic
loop_
_symmetry_equiv_pos_as_xyz
'x, y, z'
_cell_length_a     21.030251
_cell_length_b     21.031432
_cell_length_c     80.597123
_cell_angle_alpha  90.250386
_cell_angle_beta   89.854743
_cell_angle_gamma 120.03365
loop_
_atom_site_label
_atom_site_type_symbol
_atom_site_fract_x
_atom_site_fract_y
_atom_site_fract_z
_atom_type_partial_charge
Co0 Co 0.33874 0.10348 0.09866 0.0
C1 C 0.34287 0.13463 0.13595 0.0
C2 C 0.27017 0.02285 0.12892 0.0
C3 C 0.261 0.03031 0.14559 0.0
N4 N 0.32077 0.08829 0.12265 0.0
N5 N 0.30665 0.10062 0.15003 0.0
H6 H 0.3816 0.19255 0.1356 0.0
H7 H 0.23896 0.97348 0.12162 0.0
C8 C 0.18643 0.08216 0.10316 0.0
O9 O 0.21341 0.13126 0.1151 0.0
N10 N 0.35261 0.11414 0.07477 0.0
C11 C 0.41406 0.16035 0.06636 0.0
C12 C 0.40325 0.14161 0.04971 0.0
C13 C 0.30504 0.06889 0.06312 0.0
N14 N 0.33467 0.08409 0.04772 0.0
C15 C 0.43171 0.25071 0.1078 0.0
C16 C 0.36453 0.31422 0.09071 0.0
C17 C 0.43263 0.35902 0.09843 0.0
C18 C 0.4657 0.32624 0.10705 0.0
C19 C 0.33247 0.23735 0.09151 0.0
N20 N 0.36554 0.2064 0.10032 0.0
H21 H 0.4605 0.22825 0.11435 0.0
H22 H 0.28314 0.20338 0.08457 0.0
H23 H 0.46426 0.20249 0.07201 0.0
H24 H 0.25094 0.02343 0.06593 0.0
O25 O 0.43751 0.12151 0.10131 0.0
O26 O 0.34222 0.01135 0.09716 0.0
O27 O 0.22886 0.06533 0.09516 0.0
C28 C 0.41311 0.0525 0.09938 0.0
H29 H 0.22215 0.98777 0.15376 0.0
H30 H 0.44315 0.16711 0.03986 0.0
H31 H 0.33793 0.33833 0.08375 0.0
H32 H 0.51845 0.35911 0.11307 0.0
Co33 Co 0.25953 0.33443 0.43305 0.0
C34 C 0.23761 0.34318 0.47033 0.0
C35 C 0.26573 0.26203 0.46332 0.0
C36 C 0.25395 0.25775 0.4802 0.0
N37 N 0.25458 0.31485 0.45694 0.0
N38 N 0.23611 0.30868 0.48458 0.0
H39 H 0.22393 0.38599 0.47002 0.0
H40 H 0.27932 0.22714 0.45603 0.0
C41 C 0.12546 0.18314 0.43642 0.0
O42 O 0.10287 0.21032 0.44825 0.0
N43 N 0.26567 0.35146 0.40926 0.0
C44 C 0.29044 0.41681 0.40176 0.0
C45 C 0.29924 0.40873 0.38508 0.0
C46 C 0.25842 0.30416 0.39696 0.0
N47 N 0.27932 0.338 0.38204 0.0
C48 C 0.20769 0.42984 0.4419 0.0
C49 C 0.07804 0.36502 0.42429 0.0
C50 C 0.1023 0.43333 0.43203 0.0
C51 C 0.16763 0.46523 0.44089 0.0
C52 C 0.12147 0.33154 0.42534 0.0
N53 N 0.18488 0.36331 0.43446 0.0
H54 H 0.25902 0.45849 0.44845 0.0
H55 H 0.10564 0.28219 0.41832 0.0
H56 H 0.30425 0.46758 0.40808 0.0
H57 H 0.24148 0.247 0.39895 0.0
O58 O 0.34135 0.43183 0.43643 0.0
O59 O 0.35385 0.33541 0.43187 0.0
O60 O 0.18618 0.2252 0.42889 0.0
C61 C 0.38492 0.40629 0.4344 0.0
H62 H 0.2567 0.21915 0.48859 0.0
H63 H 0.32025 0.45194 0.37589 0.0
H64 H 0.02777 0.33937 0.41712 0.0
H65 H 0.18839 0.51828 0.44687 0.0
Co66 Co 0.91637 0.22296 0.76684 0.0
C67 C 0.88815 0.20242 0.80411 0.0
C68 C 0.99738 0.23148 0.79688 0.0
C69 C 0.98993 0.21727 0.81366 0.0
N70 N 0.93323 0.22082 0.7907 0.0
N71 N 0.92117 0.19892 0.8182 0.0
H72 H 0.83163 0.18872 0.8039 0.0
H73 H 0.04555 0.24525 0.78949 0.0
C74 C 0.93819 0.0919 0.77077 0.0
O75 O 0.89052 0.07016 0.783 0.0
N76 N 0.90304 0.22567 0.7431 0.0
C77 C 0.85767 0.24399 0.73542 0.0
C78 C 0.87251 0.25014 0.71865 0.0
C79 C 0.94397 0.21965 0.73087 0.0
N80 N 0.92699 0.23523 0.7158 0.0
C81 C 0.76908 0.16903 0.77599 0.0
C82 C 0.70574 0.03759 0.75896 0.0
C83 C 0.66091 0.06151 0.76641 0.0
C84 C 0.69358 0.12764 0.77504 0.0
C85 C 0.78257 0.08223 0.75996 0.0
N86 N 0.81351 0.14675 0.76871 0.0
H87 H 0.79123 0.22097 0.78231 0.0
H88 H 0.81646 0.06648 0.7531 0.0
H89 H 0.8186 0.25504 0.74166 0.0
H90 H 0.98765 0.20763 0.733 0.0
O91 O 0.89898 0.30394 0.76985 0.0
O92 O 1.00857 0.31836 0.76514 0.0
O93 O 0.95407 0.15097 0.76287 0.0
C94 C 0.96779 0.34835 0.76759 0.0
H95 H 0.03123 0.21841 0.82184 0.0
H96 H 0.84666 0.2663 0.70927 0.0
H97 H 0.68172 0.98667 0.75199 0.0
H98 H 0.66067 0.1481 0.78082 0.0
Co99 Co 0.71754 0.93127 0.10003 0.0
C100 C 0.69633 0.90109 0.13709 0.0
C101 C 0.78716 1.0065 0.13078 0.0
C102 C 0.78942 0.99613 0.14756 0.0
N103 N 0.72961 0.94659 0.12403 0.0
N104 N 0.73258 0.92971 0.15152 0.0
H105 H 0.64905 0.84689 0.13629 0.0
H106 H 0.82736 0.05324 0.12379 0.0
C107 C 0.87339 0.96376 0.08906 0.0
O108 O 0.85066 0.93295 0.07445 0.0
N109 N 0.70693 0.91803 0.076 0.0
C110 C 0.65168 0.86039 0.06821 0.0
C111 C 0.65871 0.87296 0.05145 0.0
C112 C 0.7453 0.96607 0.06372 0.0
N113 N 0.72015 0.93799 0.04823 0.0
C114 C 0.615 0.78407 0.10785 0.0
C115 C 0.68994 0.71683 0.09621 0.0
C116 C 0.61591 0.67383 0.10082 0.0
C117 C 0.57916 0.70842 0.10692 0.0
C118 C 0.72404 0.79388 0.09706 0.0
N119 N 0.68607 0.82696 0.10262 0.0
H120 H 0.58333 0.80746 0.11256 0.0
H121 H 0.77951 0.82559 0.09277 0.0
H122 H 0.60692 0.81374 0.07431 0.0
H123 H 0.78848 0.02127 0.0664 0.0
O124 O 0.62039 0.91836 0.10094 0.0
O125 O 0.72021 0.02619 0.09786 0.0
O126 O 0.82801 0.96536 0.09953 0.0
C127 C 0.64869 0.98795 0.09924 0.0
H128 H 0.8312 0.03333 0.15614 0.0
H129 H 0.61845 0.83752 0.04242 0.0
H130 H 0.72017 0.69124 0.09157 0.0
H131 H 0.52221 0.67691 0.11078 0.0
Co132 Co 0.81284 0.71376 0.43227 0.0
C133 C 0.82285 0.69426 0.46943 0.0
C134 C 0.80137 0.78033 0.46289 0.0
C135 C 0.81368 0.78384 0.47969 0.0
N136 N 0.80804 0.72495 0.45626 0.0
N137 N 0.82746 0.72994 0.48382 0.0
H138 H 0.83355 0.64934 0.46874 0.0
H139 H 0.79191 0.81832 0.45578 0.0
C140 C 0.93285 0.86927 0.42142 0.0
O141 O 0.94198 0.84454 0.40717 0.0
N142 N 0.8171 0.70534 0.40812 0.0
C143 C 0.83941 0.66462 0.39955 0.0
C144 C 0.82996 0.67045 0.38282 0.0
C145 C 0.79288 0.73422 0.39635 0.0
N146 N 0.80041 0.71381 0.38081 0.0
C147 C 0.86128 0.6148 0.44023 0.0
C148 C 1.00459 0.69348 0.42952 0.0
C149 C 0.97441 0.6192 0.43375 0.0
C150 C 0.9026 0.58067 0.43943 0.0
C151 C 0.96009 0.72592 0.43023 0.0
N152 N 0.88824 0.68582 0.43516 0.0
H153 H 0.80631 0.58196 0.44486 0.0
H154 H 0.98344 0.78177 0.42632 0.0
H155 H 0.85953 0.63118 0.40497 0.0
H156 H 0.76953 0.76872 0.39908 0.0
O157 O 0.73106 0.61501 0.43281 0.0
O158 O 0.71807 0.71179 0.43004 0.0
O159 O 0.88591 0.82479 0.43195 0.0
C160 C 0.68728 0.6404 0.43128 0.0
H161 H 0.81486 0.8244 0.4882 0.0
H162 H 0.84199 0.64335 0.37286 0.0
H163 H 0.06092 0.72518 0.42531 0.0
H164 H 0.87797 0.52363 0.44313 0.0
Co165 Co 0.08878 0.77452 0.76629 0.0
C166 C 0.12177 0.79388 0.80333 0.0
C167 C 1.01224 0.76693 0.79696 0.0
C168 C 0.02247 0.78289 0.81365 0.0
N169 N 0.07452 0.77438 0.79031 0.0
N170 N 0.09139 0.80012 0.81765 0.0
H171 H 0.17813 0.80697 0.80256 0.0
H172 H 0.9636 0.75448 0.78993 0.0
C173 C 0.05593 0.89747 0.75516 0.0
O174 O 0.08695 0.90589 0.74057 0.0
N175 N 0.10115 0.77413 0.74223 0.0
C176 C 0.15632 0.77055 0.73474 0.0
C177 C 0.14436 0.76412 0.71795 0.0
C178 C 0.05499 0.76717 0.72971 0.0
N179 N 0.08262 0.7665 0.71435 0.0
C180 C 0.23598 0.82022 0.77418 0.0
C181 C 0.3033 0.96116 0.76197 0.0
C182 C 0.34625 0.93078 0.767 0.0
C183 C 0.31161 0.86 0.77332 0.0
C184 C 0.22625 0.91812 0.76271 0.0
N185 N 0.19315 0.84777 0.76861 0.0
H186 H 0.21248 0.76609 0.77938 0.0
H187 H 0.19458 0.94138 0.75818 0.0
H188 H 0.20054 0.76872 0.74111 0.0
H189 H 1.00116 0.75982 0.73206 0.0
O190 O 0.10207 0.69059 0.76765 0.0
O191 O 0.99395 0.68155 0.76451 0.0
O192 O 0.05426 0.8504 0.76551 0.0
C193 C 0.03248 0.64873 0.76611 0.0
H194 H 0.98317 0.78432 0.82212 0.0
H195 H 0.17757 0.75409 0.70926 0.0
H196 H 0.32895 0.01657 0.75716 0.0
H197 H 0.34309 0.83517 0.77755 0.0
Co198 Co 0.92101 0.68578 0.60063 0.0
C199 C 0.8934 0.68491 0.5633 0.0
C200 C 1.00256 0.76299 0.57101 0.0
C201 C 0.99641 0.77225 0.55431 0.0
N202 N 0.93774 0.70912 0.57688 0.0
N203 N 0.92775 0.72312 0.54946 0.0
H204 H 0.8367 0.64248 0.56318 0.0
H205 H 0.05087 0.79503 0.57851 0.0
C206 C 0.94493 0.8407 0.59797 0.0
O207 O 0.90166 0.8184 0.58493 0.0
N208 N 0.90885 0.66617 0.62432 0.0
C209 C 0.85795 0.6051 0.63213 0.0
C210 C 0.87474 0.61168 0.64888 0.0
C211 C 0.95507 0.70932 0.6364 0.0
N212 N 0.93571 0.67732 0.65151 0.0
C213 C 0.77358 0.59467 0.59082 0.0
C214 C 0.70967 0.65613 0.61006 0.0
C215 C 0.66491 0.59057 0.60133 0.0
C216 C 0.6978 0.56098 0.59143 0.0
C217 C 0.78672 0.68939 0.60886 0.0
N218 N 0.81784 0.65876 0.59913 0.0
H219 H 0.79623 0.56647 0.58402 0.0
H220 H 0.8209 0.73672 0.61649 0.0
H221 H 0.8134 0.55805 0.62602 0.0
H222 H 1.0035 0.76207 0.63411 0.0
O223 O 0.90474 0.58802 0.59657 0.0
O224 O 1.01392 0.68334 0.60147 0.0
O225 O 0.95698 0.79464 0.60584 0.0
C226 C 0.97402 0.61298 0.59835 0.0
H227 H 0.03879 0.81267 0.54635 0.0
H228 H 0.84528 0.57099 0.65835 0.0
H229 H 0.68547 0.67949 0.61816 0.0
H230 H 0.66488 0.50973 0.58481 0.0
Co231 Co 0.22506 0.92547 0.93355 0.0
C232 C 0.2106 0.8913 0.89656 0.0
C233 C 0.22739 0.99783 0.90268 0.0
C234 C 0.21282 0.98597 0.88597 0.0
N235 N 0.22502 0.93824 0.90951 0.0
N236 N 0.2019 0.91888 0.88212 0.0
H237 H 0.20313 0.83694 0.89745 0.0
H238 H 0.23549 0.04552 0.90959 0.0
C239 C 0.10262 0.95894 0.94498 0.0
O240 O 0.09526 0.92893 0.95961 0.0
N241 N 0.22574 0.91454 0.95761 0.0
C242 C 0.22735 0.85888 0.96528 0.0
C243 C 0.23432 0.87224 0.98203 0.0
C244 C 0.23453 0.96238 0.96995 0.0
N245 N 0.23455 0.93559 0.98539 0.0
C246 C 0.17946 0.77754 0.92614 0.0
C247 C 0.03825 0.71129 0.9383 0.0
C248 C 0.06875 0.66787 0.93359 0.0
C249 C 0.13966 0.70199 0.92728 0.0
C250 C 0.08132 0.78829 0.93729 0.0
N251 N 0.15186 0.82089 0.93145 0.0
H252 H 0.23394 0.80047 0.92113 0.0
H253 H 0.05798 0.82037 0.94161 0.0
H254 H 0.22731 0.8132 0.95908 0.0
H255 H 0.24363 0.01661 0.96738 0.0
O256 O 0.30916 0.91249 0.93218 0.0
O257 O 0.3177 0.02059 0.93513 0.0
O258 O 0.14889 0.95977 0.93441 0.0
C259 C 0.35075 0.98219 0.93362 0.0
H260 H 0.20807 0.02277 0.87737 0.0
H261 H 0.24255 0.83864 0.9909 0.0
H262 H 0.98274 0.68609 0.94309 0.0
H263 H 0.16467 0.67018 0.92332 0.0
Co264 Co 0.32901 0.24136 0.26639 0.0
C265 C 0.33378 0.21363 0.22927 0.0
C266 C 0.25195 0.24075 0.23628 0.0
C267 C 0.24462 0.22434 0.21958 0.0
N268 N 0.30699 0.23291 0.24256 0.0
N269 N 0.29608 0.20725 0.21517 0.0
H270 H 0.37784 0.20175 0.22957 0.0
H271 H 0.21725 0.25459 0.24355 0.0
C272 C 0.17853 0.10575 0.26375 0.0
O273 O 0.20585 0.08221 0.25217 0.0
N274 N 0.3485 0.25075 0.29012 0.0
C275 C 0.41495 0.27775 0.29727 0.0
C276 C 0.40885 0.28906 0.3139 0.0
C277 C 0.30246 0.24451 0.30261 0.0
N278 N 0.33824 0.26844 0.31729 0.0
C279 C 0.42508 0.19022 0.2577 0.0
C280 C 0.36346 0.06323 0.27618 0.0
C281 C 0.43131 0.08736 0.26827 0.0
C282 C 0.46164 0.1514 0.25899 0.0
C283 C 0.32887 0.10555 0.27487 0.0
N284 N 0.35903 0.16755 0.26533 0.0
H285 H 0.45247 0.24061 0.25081 0.0
H286 H 0.28002 0.09011 0.28204 0.0
H287 H 0.46513 0.29147 0.29072 0.0
H288 H 0.24478 0.22609 0.3009 0.0
O289 O 0.42565 0.32358 0.26247 0.0
O290 O 0.32889 0.33523 0.26715 0.0
O291 O 0.22037 0.16743 0.27102 0.0
C292 C 0.39967 0.36681 0.26447 0.0
H293 H 0.2036 0.22349 0.21135 0.0
H294 H 0.45332 0.31229 0.32281 0.0
H295 H 0.33904 0.01399 0.28367 0.0
H296 H 0.5143 0.17206 0.25287 0.0
Co297 Co 0.09431 0.30646 0.6005 0.0
C298 C 0.14893 0.33174 0.56498 0.0
C299 C 0.05013 0.22866 0.56901 0.0
C300 C 0.06977 0.23212 0.55268 0.0
N301 N 0.09999 0.29024 0.57688 0.0
N302 N 0.13178 0.29653 0.55008 0.0
H303 H 0.19601 0.38563 0.56716 0.0
H304 H 1.00219 0.1839 0.57477 0.0
C305 C 0.07931 0.15883 0.61106 0.0
O306 O 0.13712 0.19335 0.62071 0.0
N307 N 0.08359 0.32072 0.62442 0.0
C308 C 0.09372 0.38388 0.63144 0.0
C309 C 0.0723 0.37218 0.6477 0.0
C310 C 0.0544 0.27079 0.6369 0.0
N311 N 0.04736 0.30125 0.65116 0.0
C312 C 0.2392 0.39682 0.61215 0.0
C313 C 0.30709 0.334 0.59482 0.0
C314 C 0.35003 0.40054 0.60336 0.0
C315 C 0.3151 0.43068 0.61236 0.0
C316 C 0.22997 0.30118 0.59501 0.0
N317 N 0.19684 0.333 0.6036 0.0
H318 H 0.21565 0.42625 0.61786 0.0
H319 H 0.19733 0.25285 0.58752 0.0
H320 H 0.11421 0.43589 0.62521 0.0
H321 H 0.03626 0.2132 0.63568 0.0
O322 O 0.11505 0.40513 0.59596 0.0
O323 O 1.00332 0.3086 0.59654 0.0
O324 O 0.05397 0.19543 0.6036 0.0
C325 C 0.04507 0.37978 0.5949 0.0
H326 H 0.04043 0.1906 0.54329 0.0
H327 H 0.07372 0.41246 0.65634 0.0
H328 H 0.33287 0.30986 0.58749 0.0
H329 H 0.34665 0.48262 0.61882 0.0
Co330 Co 0.77587 0.0973 0.93467 0.0
C331 C 0.80451 0.12825 0.89749 0.0
C332 C 0.76639 0.01681 0.90448 0.0
C333 C 0.78317 0.02407 0.88784 0.0
N334 N 0.7806 0.08218 0.91076 0.0
N335 N 0.80717 0.09414 0.88342 0.0
H336 H 0.8228 0.18599 0.89785 0.0
H337 H 0.74833 0.96761 0.91176 0.0
C338 C 0.9077 0.07679 0.93074 0.0
O339 O 0.93023 0.12584 0.91886 0.0
N340 N 0.77028 0.10785 0.95853 0.0
C341 C 0.74751 0.14907 0.96665 0.0
C342 C 0.73975 0.13099 0.9833 0.0
C343 C 0.77697 0.0661 0.97035 0.0
N344 N 0.75844 0.07892 0.98558 0.0
C345 C 0.8304 0.2446 0.92577 0.0
C346 C 0.95979 0.30833 0.94349 0.0
C347 C 0.93688 0.35305 0.93566 0.0
C348 C 0.87163 0.32013 0.92675 0.0
C349 C 0.91517 0.23143 0.94248 0.0
N350 N 0.85185 0.20037 0.93336 0.0
H351 H 0.77965 0.22212 0.91898 0.0
H352 H 0.93012 0.19751 0.94951 0.0
H353 H 0.73438 0.18726 0.9608 0.0
H354 H 0.79165 0.02451 0.96782 0.0
O355 O 0.69525 0.11493 0.93152 0.0
O356 O 0.6803 1.00492 0.93572 0.0
O357 O 0.84794 0.05974 0.93855 0.0
C358 C 0.65061 0.04592 0.93329 0.0
H359 H 0.77977 0.98152 0.87965 0.0
H360 H 0.72048 0.15321 0.99295 0.0
H361 H 1.01003 0.3325 0.95067 0.0
H362 H 0.85202 0.3529 0.92063 0.0
Co363 Co 0.70882 0.79506 0.26761 0.0
C364 C 0.69031 0.81119 0.23068 0.0
C365 C 0.77232 0.78295 0.23663 0.0
C366 C 0.77625 0.79731 0.21993 0.0
N367 N 0.71912 0.79232 0.24355 0.0
N368 N 0.72497 0.81537 0.21618 0.0
H369 H 0.64776 0.82523 0.23169 0.0
H370 H 0.80868 0.77025 0.24349 0.0
C371 C 0.86479 0.91379 0.27873 0.0
O372 O 0.84021 0.92286 0.29301 0.0
N373 N 0.70147 0.79712 0.29173 0.0
C374 C 0.65758 0.81387 0.30074 0.0
C375 C 0.66606 0.8042 0.31735 0.0
C376 C 0.73518 0.77634 0.30302 0.0
N377 N 0.71495 0.78095 0.31873 0.0
C378 C 0.61038 0.84518 0.26058 0.0
C379 C 0.69097 0.98819 0.27148 0.0
C380 C 0.61666 0.95895 0.26735 0.0
C381 C 0.57705 0.88715 0.26165 0.0
C382 C 0.72248 0.9429 0.27057 0.0
N383 N 0.68154 0.87127 0.26549 0.0
H384 H 0.57708 0.79072 0.25567 0.0
H385 H 0.7786 0.96582 0.27424 0.0
H386 H 0.62063 0.83049 0.29568 0.0
H387 H 0.77353 0.75811 0.29982 0.0
O388 O 0.60966 0.71394 0.26692 0.0
O389 O 0.70566 0.69945 0.26919 0.0
O390 O 0.82012 0.86736 0.26807 0.0
C391 C 0.63425 0.66941 0.26812 0.0
H392 H 0.81553 0.79707 0.21125 0.0
H393 H 0.63801 0.81282 0.32764 0.0
H394 H 0.72354 0.04456 0.27565 0.0
H395 H 0.52 0.86328 0.25799 0.0
C396 C 0.27651 0.96851 0.03106 0.0
C397 C 0.30119 0.0447 0.03243 0.0
C398 C 0.25388 0.0409 1.00426 0.0
C399 C 0.24247 0.96895 1.00195 0.0
N400 N 0.19055 0.85598 0.01732 0.0
N401 N 0.3082 0.15308 0.02062 0.0
C402 C 0.23875 0.92963 1.01654 0.0
C403 C 0.28869 0.08094 0.01905 0.0
N404 N 0.29112 0.93313 0.0433 0.0
N405 N 0.2188 0.06479 0.99405 0.0
H406 H 0.32638 0.18185 0.03178 0.0
H407 H 0.30899 0.18486 1.01065 0.0
H408 H 0.17645 0.02768 0.98641 0.0
H409 H 0.22063 0.11493 0.99542 0.0
H410 H 0.28062 0.87936 0.04199 0.0
H411 H 0.31952 0.95924 0.05405 0.0
H412 H 0.18099 0.82549 0.02814 0.0
H413 H 0.15205 0.82844 1.00797 0.0
C414 C 0.32327 0.27102 0.3637 0.0
C415 C 0.28283 0.30799 0.366 0.0
C416 C 0.27264 0.31382 0.33571 0.0
C417 C 0.31036 0.27406 0.33344 0.0
N418 N 0.34847 0.19419 0.3455 0.0
N419 N 0.19884 0.3416 0.35429 0.0
C420 C 0.32801 0.24589 0.34756 0.0
C421 C 0.25093 0.32182 0.35199 0.0
N422 N 0.36125 0.2638 0.37655 0.0
N423 N 0.26136 0.34806 0.32266 0.0
H424 H 0.17978 0.34475 0.36606 0.0
H425 H 0.16897 0.34641 0.34456 0.0
H426 H 0.27793 0.34598 0.31063 0.0
H427 H 0.2414 0.38421 0.3241 0.0
H428 H 0.39767 0.24424 0.375 0.0
H429 H 0.36211 0.28365 0.38841 0.0
H430 H 0.35613 0.16699 0.3554 0.0
H431 H 0.34932 0.17267 0.33386 0.0
C432 C 0.03728 0.28923 0.69726 0.0
C433 C 0.96112 0.2397 0.69985 0.0
C434 C 0.94368 0.21972 0.6697 0.0
C435 C 0.01966 0.26861 0.66722 0.0
N436 N 0.14127 0.33229 0.6785 0.0
N437 N 0.84747 0.14193 0.68906 0.0
C438 C 0.06718 0.29696 0.68105 0.0
C439 C 0.91622 0.19965 0.68618 0.0
N440 N 0.08016 0.33303 0.70989 0.0
N441 N 0.89711 0.19611 0.65644 0.0
H442 H 0.82729 0.12502 0.70104 0.0
H443 H 0.81399 0.10663 0.67974 0.0
H444 H 0.91534 0.21015 0.64426 0.0
H445 H 0.84014 0.16695 0.65762 0.0
H446 H 0.13377 0.37584 0.70817 0.0
H447 H 0.06076 0.33116 0.72184 0.0
H448 H 0.17942 0.34891 0.68811 0.0
H449 H 0.16382 0.33797 0.66667 0.0
C450 C 0.71067 0.96486 1.00238 0.0
C451 C 0.75595 0.04219 1.00098 0.0
C452 C 0.80034 0.04549 0.02943 0.0
C453 C 0.74487 0.97111 0.03169 0.0
N454 N 0.69342 0.85689 1.01667 0.0
N455 N 0.84884 0.15641 1.01293 0.0
C456 C 0.71277 0.92921 0.01711 0.0
C457 C 0.80201 0.08271 1.0145 0.0
N458 N 0.66315 0.92524 0.98996 0.0
N459 N 0.8591 0.07547 0.03984 0.0
H460 H 0.85734 0.18401 1.00171 0.0
H461 H 0.87688 0.19037 0.02295 0.0
H462 H 0.86891 0.04169 0.04753 0.0
H463 H 0.90405 0.12816 0.03856 0.0
H464 H 0.62378 0.86986 0.99121 0.0
H465 H 0.65851 0.94896 0.97909 0.0
H466 H 0.67558 0.82503 1.00591 0.0
H467 H 0.70625 0.83257 0.02638 0.0
C468 C 0.70171 0.69062 0.34004 0.0
C469 C 0.73879 0.76357 0.33402 0.0
C470 C 0.81969 0.80287 0.35846 0.0
C471 C 0.77869 0.73116 0.36517 0.0
N472 N 0.67648 0.60804 0.36323 0.0
N473 N 0.8282 0.89089 0.33781 0.0
C474 C 0.71862 0.67528 0.35614 0.0
C475 C 0.79643 0.82026 0.34337 0.0
N476 N 0.65106 0.6359 0.33016 0.0
N477 N 0.88283 0.85317 0.36618 0.0
H478 H 0.81376 0.9044 0.32655 0.0
H479 H 0.86534 0.93628 0.34473 0.0
H480 H 0.90179 0.84087 0.37694 0.0
H481 H 0.91935 0.90454 0.36131 0.0
H482 H 0.62664 0.58026 0.33291 0.0
H483 H 0.6374 0.64621 0.31847 0.0
H484 H 0.62719 0.56697 0.35828 0.0
H485 H 0.68856 0.59495 0.37478 0.0
C486 C 0.08868 0.75909 0.68317 0.0
C487 C 0.05078 0.76026 0.6977 0.0
C488 C 0.94103 0.72331 0.68037 0.0
C489 C 0.97451 0.70613 0.66708 0.0
N490 N 0.08009 0.70243 0.65657 0.0
N491 N 0.96209 0.79481 0.70543 0.0
C492 C 0.04842 0.72287 0.66867 0.0
C493 C 0.98173 0.75574 0.69524 0.0
N494 N 0.16314 0.80234 0.6823 0.0
N495 N 0.87101 0.71037 0.67866 0.0
H496 H 1.0006 0.8348 0.71333 0.0
H497 H 0.91475 0.79824 0.70392 0.0
H498 H 0.84234 0.69364 0.66748 0.0
H499 H 0.84044 0.7131 0.68854 0.0
H500 H 0.19298 0.80804 0.67151 0.0
H501 H 0.19278 0.84149 0.69142 0.0
H502 H 0.1318 0.70765 0.65796 0.0
H503 H 0.05206 0.67401 0.64595 0.0
C504 C 0.56328 0.01646 0.08372 0.0
C505 C 0.598 0.01795 0.0989 0.0
C506 C 0.50049 0.02506 0.11434 0.0
C507 C 0.46733 0.02656 0.09914 0.0
N508 N 0.47064 0.03153 0.06932 0.0
N509 N 0.60655 0.0331 0.12849 0.0
C510 C 0.49965 0.02412 0.08381 0.0
C511 C 0.56852 0.02522 0.11417 0.0
N512 N 0.59024 1.00557 0.0692 0.0
N513 N 0.46574 0.02209 0.12892 0.0
H514 H 0.65692 0.03462 0.12856 0.0
H515 H 0.59199 0.04409 0.14004 0.0
H516 H 0.41546 0.02071 0.12932 0.0
H517 H 0.48304 0.01514 0.14051 0.0
H518 H 0.56262 0.99365 0.05791 0.0
H519 H 0.64007 1.00627 0.0686 0.0
H520 H 0.49616 0.04005 0.05781 0.0
H521 H 0.42151 0.03203 0.06898 0.0
C522 C 0.49655 0.5095 0.44755 0.0
C523 C 0.4653 0.45974 0.434 0.0
C524 C 0.57837 0.5334 0.41801 0.0
C525 C 0.60693 0.58677 0.43096 0.0
N526 N 0.58993 0.63013 0.45733 0.0
N527 N 0.47187 0.43141 0.40525 0.0
C528 C 0.56468 0.57631 0.44548 0.0
C529 C 0.5051 0.47337 0.41896 0.0
N530 N 0.46179 0.49133 0.46259 0.0
N531 N 0.62207 0.53913 0.40489 0.0
H532 H 0.41919 0.386 0.40551 0.0
H533 H 0.49445 0.44457 0.39339 0.0
H534 H 0.6742 0.58444 0.40318 0.0
H535 H 0.60835 0.49715 0.39627 0.0
H536 H 0.4842 0.52137 0.47342 0.0
H537 H 0.41316 0.44185 0.46459 0.0
H538 H 0.55905 0.62929 0.46753 0.0
H539 H 0.63978 0.67908 0.45623 0.0
C540 C 0.99919 0.53118 0.75151 0.0
C541 C 1.00274 0.568 0.76656 0.0
C542 C 0.99247 0.46331 0.78242 0.0
C543 C 0.99381 0.42855 0.76737 0.0
N544 N 1.00514 0.43121 0.73766 0.0
N545 N 1.00848 0.57301 0.79638 0.0
C546 C 0.99929 0.46327 0.75192 0.0
C547 C 1.00059 0.53483 0.78203 0.0
N548 N 0.995 0.5613 0.73684 0.0
N549 N 0.9819 0.42694 0.7971 0.0
H550 H 1.00885 0.62277 0.79659 0.0
H551 H 0.01728 0.55712 0.80796 0.0
H552 H 0.98133 0.37717 0.79797 0.0
H553 H 0.97087 0.44427 0.80831 0.0
H554 H 0.987 0.53579 0.72534 0.0
H555 H 0.99355 0.6101 0.73634 0.0
H556 H 1.015 0.45529 0.726 0.0
H557 H 1.0056 0.38197 0.73772 0.0
C558 C 0.98288 0.44223 0.6086 0.0
C559 C 0.0177 0.43331 0.59438 0.0
C560 C 0.02933 0.54745 0.58275 0.0
C561 C 1.00173 0.55985 0.59776 0.0
N562 N 0.96756 0.52718 0.62622 0.0
N563 N 0.07843 0.47988 0.56815 0.0
C564 C 0.98285 0.50936 0.61101 0.0
C565 C 0.04235 0.48691 0.58153 0.0
N566 N 0.94922 0.38663 0.61985 0.0
N567 N 0.04091 0.59222 0.56948 0.0
H568 H 0.08322 0.43339 0.56616 0.0
H569 H 0.1058 0.52099 0.55938 0.0
H570 H 0.035 0.63853 0.57024 0.0
H571 H 0.05261 0.58155 0.55758 0.0
H572 H 0.91689 0.38745 0.62956 0.0
H573 H 0.94718 0.33639 0.61862 0.0
H574 H 0.96034 0.49659 0.63691 0.0
H575 H 0.97108 0.57757 0.62847 0.0
C576 C 0.53405 0.0135 0.94841 0.0
C577 C 0.57046 0.02001 0.93311 0.0
C578 C 0.46614 0.01508 0.91809 0.0
C579 C 0.43148 0.0121 0.93345 0.0
N580 N 0.43576 0.01903 0.96318 0.0
N581 N 0.57568 0.03481 0.90344 0.0
C582 C 0.46671 0.01463 0.94861 0.0
C583 C 0.5376 0.02296 0.91796 0.0
N584 N 0.56394 1.00568 0.96273 0.0
N585 N 0.42948 1.00826 0.90361 0.0
H586 H 0.62555 0.03544 0.90273 0.0
H587 H 0.55967 0.04691 0.89223 0.0
H588 H 0.37971 1.00789 0.90326 0.0
H589 H 0.44664 1.00031 0.89206 0.0
H590 H 0.53821 0.9946 0.97425 0.0
H591 H 0.6128 1.00451 0.96282 0.0
H592 H 0.46037 0.02653 0.97475 0.0
H593 H 0.38758 0.0217 0.96352 0.0
C594 C 0.50341 0.47856 0.25155 0.0
C595 C 0.45286 0.44738 0.26492 0.0
C596 C 0.52538 0.5609 0.28097 0.0
C597 C 0.57979 0.5892 0.26826 0.0
N598 N 0.62467 0.5716 0.24215 0.0
N599 N 0.423 0.45447 0.29352 0.0
C600 C 0.57017 0.54667 0.25379 0.0
C601 C 0.46557 0.4875 0.27992 0.0
N602 N 0.48606 0.44372 0.23649 0.0
N603 N 0.52983 0.60482 0.29398 0.0
H604 H 0.37766 0.40181 0.29319 0.0
H605 H 0.43566 0.47719 0.3054 0.0
H606 H 0.57451 0.65727 0.29581 0.0
H607 H 0.48726 0.59094 0.30241 0.0
H608 H 0.51668 0.46612 0.22575 0.0
H609 H 0.43667 0.3951 0.23436 0.0
H610 H 0.62441 0.54038 0.23207 0.0
H611 H 0.67351 0.62152 0.24331 0.0
C612 C 0.31087 0.22585 0.18466 0.0
C613 C 0.30553 0.18364 0.19883 0.0
C614 C 0.31936 0.09737 0.18062 0.0
C615 C 0.31124 0.13218 0.16639 0.0
N616 N 0.28338 0.22238 0.15548 0.0
N617 N 0.28908 0.06937 0.20962 0.0
C618 C 0.30309 0.19488 0.16853 0.0
C619 C 0.30591 0.11675 0.19667 0.0
N620 N 0.32521 0.2963 0.18658 0.0
N621 N 0.3417 0.04697 0.17886 0.0
H622 H 0.2733 0.0786 0.22123 0.0
H623 H 0.28255 0.01712 0.20827 0.0
H624 H 0.35577 0.03456 0.16736 0.0
H625 H 0.35431 0.02432 0.18892 0.0
H626 H 0.33577 0.33162 0.17661 0.0
H627 H 0.33492 0.32174 0.19817 0.0
H628 H 0.27056 0.26402 0.1568 0.0
H629 H 0.27155 0.19822 0.14376 0.0
C630 C 0.1451 0.31149 0.50406 0.0
C631 C 0.21541 0.3197 0.50108 0.0
C632 C 0.2371 0.32592 0.5312 0.0
C633 C 0.16753 0.31945 0.53408 0.0
N634 N 0.06644 0.32905 0.52338 0.0
N635 N 0.33579 0.35576 0.51153 0.0
C636 C 0.12567 0.3205 0.52046 0.0
C637 C 0.26389 0.33384 0.51461 0.0
N638 N 0.09462 0.28942 0.49157 0.0
N639 N 0.2756 0.32012 0.54414 0.0
H640 H 0.35695 0.36405 0.49951 0.0
H641 H 0.37546 0.37286 0.52081 0.0
H642 H 0.25753 0.31389 0.55638 0.0
H643 H 0.3228 0.31636 0.54259 0.0
H644 H 0.04026 0.27589 0.49346 0.0
H645 H 0.10455 0.27717 0.47965 0.0
H646 H 0.03687 0.33633 0.51396 0.0
H647 H 0.05219 0.33664 0.53535 0.0
C648 C 0.82246 0.10819 0.83684 0.0
C649 C 0.88908 0.17562 0.83459 0.0
C650 C 0.90371 0.18846 0.86487 0.0
C651 C 0.83331 0.12527 0.86707 0.0
N652 N 0.71752 0.03853 0.85471 0.0
N653 N 0.98144 0.28954 0.84673 0.0
C654 C 0.79008 0.08942 0.85289 0.0
C655 C 0.92608 0.21881 0.84871 0.0
N656 N 0.79223 0.05971 0.82398 0.0
N657 N 0.95127 0.21709 0.87789 0.0
H658 H 0.99644 0.31452 0.83512 0.0
H659 H 1.00621 0.32542 0.85667 0.0
H660 H 0.93952 0.19343 0.88962 0.0
H661 H 1.00548 0.25924 0.87653 0.0
H662 H 0.74699 1.00722 0.82544 0.0
H663 H 0.8172 0.06825 0.8124 0.0
H664 H 0.68207 0.01506 0.84466 0.0
H665 H 0.69129 0.02654 0.86622 0.0
C666 C 0.71775 0.82734 0.16977 0.0
C667 C 0.71957 0.89529 0.16769 0.0
C668 C 0.72309 0.91045 0.19799 0.0
C669 C 0.71544 0.83989 0.20005 0.0
N670 N 0.68462 0.72346 0.18783 0.0
N671 N 0.70315 0.99063 0.17989 0.0
C672 C 0.70579 0.7958 0.18587 0.0
C673 C 0.71533 0.9332 0.18187 0.0
N674 N 0.73258 0.79528 0.1567 0.0
N675 N 0.74283 0.95793 0.2111 0.0
H676 H 0.69488 1.00674 0.16824 0.0
H677 H 0.69333 0.01652 0.18981 0.0
H678 H 0.75414 0.94573 0.22285 0.0
H679 H 0.75563 0.01237 0.20986 0.0
H680 H 0.7384 0.74916 0.15797 0.0
H681 H 0.74712 0.819 0.14498 0.0
H682 H 0.67071 0.68698 0.1779 0.0
H683 H 0.67327 0.69857 0.19947 0.0
C684 C 0.91641 0.72064 0.50276 0.0
C685 C 0.84862 0.71864 0.50018 0.0
C686 C 0.83331 0.72105 0.53036 0.0
C687 C 0.8976 0.7163 0.53293 0.0
N688 N 0.98782 0.69042 0.52131 0.0
N689 N 0.73353 0.69634 0.51162 0.0
C690 C 0.93517 0.70933 0.51901 0.0
C691 C 0.80414 0.71211 0.51405 0.0
N692 N 0.9652 0.73805 0.49002 0.0
N693 N 0.80264 0.73889 0.5432 0.0
H694 H 0.70998 0.68676 0.49983 0.0
H695 H 0.69649 0.68485 0.52132 0.0
H696 H 0.8252 0.75124 0.55506 0.0
H697 H 0.75962 0.74944 0.54161 0.0
H698 H 0.01806 0.74661 0.49167 0.0
H699 H 0.9562 0.75191 0.47821 0.0
H700 H 1.01272 0.67857 0.51151 0.0
H701 H 1.00031 0.67852 0.533 0.0
C702 C 0.11222 0.81579 0.86412 0.0
C703 C 0.17912 0.88335 0.86601 0.0
C704 C 0.18929 0.89615 0.83567 0.0
C705 C 0.12557 0.82591 0.83378 0.0
N706 N 0.03895 0.71101 0.84628 0.0
N707 N 0.29088 0.97679 0.85353 0.0
C708 C 0.09121 0.78318 0.84807 0.0
C709 C 0.22076 0.91986 0.85172 0.0
N710 N 0.0661 0.78509 0.87732 0.0
N711 N 0.21704 0.94246 0.82243 0.0
H712 H 0.31597 0.9935 0.86513 0.0
H713 H 0.32621 1.0016 0.84353 0.0
H714 H 0.19291 0.92951 0.81072 0.0
H715 H 0.25934 0.99676 0.82352 0.0
H716 H 1.01368 0.73942 0.87621 0.0
H717 H 0.07661 0.80953 0.88901 0.0
H718 H 0.01638 0.67533 0.85629 0.0
H719 H 0.02437 0.68529 0.8347 0.0
C720 C 0.54439 0.55196 0.11444 0.0
C721 C 0.57419 0.59248 0.09965 0.0
C722 C 0.50775 0.47904 0.08335 0.0
C723 C 0.47204 0.44047 0.09804 0.0
N724 N 0.44388 0.44385 0.12692 0.0
N725 N 0.5731 0.59714 0.06971 0.0
C726 C 0.48641 0.47833 0.11339 0.0
C727 C 0.55285 0.55683 0.08397 0.0
N728 N 0.57274 0.58357 0.12949 0.0
N729 N 0.50123 0.44149 0.06899 0.0
H730 H 0.60606 0.65416 0.06958 0.0
H731 H 0.55225 0.57448 0.05808 0.0
H732 H 0.46845 0.38463 0.06795 0.0
H733 H 0.53277 0.46624 0.05847 0.0
H734 H 0.55758 0.55448 0.1406 0.0
H735 H 0.6169 0.63702 0.13068 0.0
H736 H 0.44767 0.47081 0.13807 0.0
H737 H 0.3997 0.39015 0.12643 0.0
C738 C 0.0607 0.51041 0.41668 0.0
C739 C 0.06191 0.47427 0.43142 0.0
C740 C 0.025 0.54894 0.4476 0.0
C741 C 1.0153 0.57884 0.43275 0.0
N742 N 1.01113 0.57803 0.40278 0.0
N743 N 0.0292 0.44712 0.46026 0.0
C744 C 0.02966 0.55695 0.41714 0.0
C745 C 0.03881 0.48979 0.44669 0.0
N746 N 0.09166 0.50282 0.40244 0.0
N747 N 0.0219 0.57795 0.46259 0.0
H748 H 0.03716 0.40196 0.45986 0.0
H749 H 1.00624 0.45187 0.47134 0.0
H750 H 1.01361 0.62277 0.46364 0.0
H751 H 0.03497 0.56256 0.47378 0.0
H752 H 0.09957 0.53445 0.39189 0.0
H753 H 0.11455 0.46897 0.40152 0.0
H754 H 1.01272 0.55675 0.39119 0.0
H755 H 0.98885 0.61252 0.40255 0.0
C756 C 0.4647 0.9843 0.75079 0.0
C757 C 0.42764 0.97083 0.76625 0.0
C758 C 0.54031 0.99775 0.78076 0.0
C759 C 0.57956 0.02014 0.7656 0.0
N760 N 0.58143 0.04728 0.73643 0.0
N761 N 0.43398 0.98063 0.7961 0.0
C762 C 0.54248 0.01682 0.75063 0.0
C763 C 0.4668 0.98259 0.7813 0.0
N764 N 0.42574 0.96361 0.73631 0.0
N765 N 0.57329 0.99021 0.79462 0.0
H766 H 0.38057 0.97173 0.79688 0.0
H767 H 0.4621 0.99529 0.80735 0.0
H768 H 0.62684 0.99928 0.79451 0.0
H769 H 0.54521 0.96784 0.80566 0.0
H770 H 0.44944 0.96478 0.72486 0.0
H771 H 0.36877 0.93976 0.73585 0.0
H772 H 0.5577 0.05363 0.72569 0.0
H773 H 0.63838 0.07148 0.73574 0.0
C774 C 0.55214 0.49186 0.61539 0.0
C775 C 0.58366 0.54743 0.60309 0.0
C776 C 0.4639 0.49696 0.58931 0.0
C777 C 0.4315 0.44413 0.60215 0.0
N778 N 0.44167 0.39529 0.62835 0.0
N779 N 0.56978 0.60989 0.57968 0.0
C780 C 0.47486 0.44272 0.61546 0.0
C781 C 0.53943 0.55195 0.59043 0.0
N782 N 0.59662 0.48458 0.62665 0.0
N783 N 0.42238 0.49385 0.57596 0.0
H784 H 0.6249 0.65094 0.58026 0.0
H785 H 0.53973 0.6209 0.57109 0.0
H786 H 0.36668 0.45516 0.57486 0.0
H787 H 0.44381 0.52571 0.56536 0.0
H788 H 0.57879 0.43999 0.6346 0.0
H789 H 0.65291 0.52149 0.62748 0.0
H790 H 0.46813 0.39749 0.63942 0.0
H791 H 0.386 0.3556 0.62834 0.0
C792 C 1.0145 0.55105 0.95036 0.0
C793 C 0.02878 0.58652 0.93471 0.0
C794 C 1.00245 0.47229 0.92088 0.0
C795 C 0.97887 0.43453 0.93618 0.0
N796 N 0.9505 0.43584 0.96521 0.0
N797 N 0.0206 0.57699 0.90487 0.0
C798 C 0.98168 0.47325 0.9509 0.0
C799 C 0.0178 0.54576 0.91989 0.0
N800 N 0.03471 0.59151 0.96467 0.0
N801 N 1.01088 0.4379 0.90732 0.0
H802 H 0.02955 0.63029 0.90374 0.0
H803 H 1.00653 0.54766 0.89375 0.0
H804 H 1.00174 0.38436 0.90777 0.0
H805 H 0.03408 0.46488 0.89622 0.0
H806 H 0.03289 0.56894 0.97626 0.0
H807 H 0.0589 0.64854 0.96485 0.0
H808 H 0.94377 0.46076 0.97574 0.0
H809 H 0.92619 0.37898 0.96617 0.0
C810 C 0.54801 1.01043 0.2532 0.0
C811 C 0.57764 1.00118 0.26815 0.0
C812 C 0.50968 0.04798 0.2839 0.0
C813 C 0.47319 0.04796 0.26908 0.0
N814 N 0.44586 0.01323 0.2403 0.0
N815 N 0.57742 0.99934 0.29812 0.0
C816 C 0.48873 0.02404 0.25393 0.0
C817 C 0.5561 0.0168 0.28366 0.0
N818 N 0.57719 1.00677 0.23829 0.0
N819 N 0.5025 0.08018 0.29799 0.0
H820 H 0.612 0.97716 0.2985 0.0
H821 H 0.55639 1.00186 0.30967 0.0
H822 H 0.46897 0.10349 0.29872 0.0
H823 H 0.53427 0.08881 0.30856 0.0
H824 H 0.56188 0.01939 0.22704 0.0
H825 H 0.62209 0.99853 0.23739 0.0
H826 H 0.45077 0.98967 0.22932 0.0
H827 H 0.40042 0.02075 0.24057 0.0
C828 C 0.05216 1.00379 0.11139 0.0
C829 C 0.1058 0.04683 0.09921 0.0
C830 C 1.00788 0.0456 0.08234 0.0
C831 C 0.95332 0.99552 0.09342 0.0
N832 N 0.92394 0.91799 0.11753 0.0
N833 N 0.13071 0.09505 0.07132 0.0
C834 C 0.97555 0.97237 0.10775 0.0
C835 C 0.08233 0.06299 0.08409 0.0
N836 N 0.07419 0.99265 0.12649 0.0
N837 N 0.98945 0.08084 0.07079 0.0
H838 H 0.18529 0.10798 0.07192 0.0
H839 H 0.1146 0.10157 0.05953 0.0
H840 H 0.93737 0.07522 0.07046 0.0
H841 H 0.02774 0.12265 0.06324 0.0
H842 H 0.03887 0.97019 0.13658 0.0
H843 H 0.12877 1.00988 0.12928 0.0
H844 H 0.93693 0.89289 0.127 0.0
H845 H 0.86771 0.89334 0.11539 0.0
C846 C 0.06552 0.04865 0.44461 0.0
C847 C 0.07979 0.10247 0.43224 0.0
C848 C 0.9904 1.00396 0.41389 0.0
C849 C 0.98144 0.94958 0.42559 0.0
N850 N 0.02268 0.92085 0.45097 0.0
N851 N 0.06475 0.12847 0.40382 0.0
C852 C 0.02199 0.97211 0.4407 0.0
C853 C 0.04537 0.07913 0.41646 0.0
N854 N 0.09388 0.07037 0.4602 0.0
N855 N 0.94329 0.98462 0.40073 0.0
H856 H 0.10287 0.184 0.40515 0.0
H857 H 0.0479 0.11313 0.39159 0.0
H858 H 0.89984 0.93132 0.39889 0.0
H859 H 0.94192 0.02259 0.39271 0.0
H860 H 0.07727 0.03496 0.47031 0.0
H861 H 0.13098 0.12471 0.46331 0.0
H862 H 0.05776 0.9342 0.4611 0.0
H863 H 0.99346 0.86466 0.4486 0.0
C864 C 0.01675 0.03548 0.77832 0.0
C865 C 0.97316 0.0465 0.7664 0.0
C866 C 0.97446 0.95097 0.74886 0.0
C867 C 0.02472 0.94595 0.75976 0.0
N868 N 0.10319 0.99342 0.78382 0.0
N869 N 0.92395 0.02432 0.73856 0.0
C870 C 0.04824 0.99071 0.77427 0.0
C871 C 0.95668 1.00764 0.75108 0.0
N872 N 0.0284 0.06787 0.79359 0.0
N873 N 0.93953 0.89825 0.73699 0.0
H874 H 0.91025 0.06532 0.73952 0.0
H875 H 0.91742 1.00262 0.72663 0.0
H876 H 0.9459 0.8523 0.73613 0.0
H877 H 0.89744 0.89492 0.72958 0.0
H878 H 0.05116 0.05448 0.8035 0.0
H879 H 1.01133 0.10507 0.79671 0.0
H880 H 0.12853 0.0311 0.79342 0.0
H881 H 0.12821 0.96241 0.78133 0.0
C882 C 0.9346 0.95214 0.60662 0.0
C883 C 0.97959 0.92054 0.60323 0.0
C884 C 0.08883 0.04516 0.60415 0.0
C885 C 0.04446 0.07645 0.60852 0.0
N886 N 0.9258 0.05598 0.61715 0.0
N887 N 0.10176 0.93712 0.60209 0.0
C888 C 0.96745 0.02885 0.61058 0.0
C889 C 0.05728 0.96704 0.60318 0.0
N890 N 0.85988 0.90875 0.60612 0.0
N891 N 0.16065 0.09004 0.59978 0.0
H892 H 0.08218 0.88123 0.60058 0.0
H893 H 0.1582 0.96712 0.60415 0.0
H894 H 0.18619 0.14702 0.59982 0.0
H895 H 0.19318 0.07095 0.59447 0.0
H896 H 0.82413 0.92951 0.60606 0.0
H897 H 0.83329 0.85178 0.60498 0.0
H898 H 0.87134 0.02312 0.62079 0.0
H899 H 0.94726 0.11087 0.62045 0.0
C900 C 0.99282 0.05826 0.94988 0.0
C901 C 0.95293 0.04148 0.93476 0.0
C902 C 1.00837 0.96647 0.92633 0.0
C903 C 0.05411 0.99029 0.94064 0.0
N904 N 0.10385 0.07674 0.9632 0.0
N905 N 0.93035 0.98647 0.90748 0.0
C906 C 0.04991 0.04092 0.95167 0.0
C907 C 0.96336 0.99793 0.92263 0.0
N908 N 0.97676 0.09092 0.96261 0.0
N909 N 1.00505 0.91142 0.91663 0.0
H910 H 0.89338 1.00401 0.90461 0.0
H911 H 0.94312 0.96356 0.89743 0.0
H912 H 0.0363 0.88653 0.91885 0.0
H913 H 0.96671 0.88596 0.90718 0.0
H914 H 0.9996 0.098 0.97441 0.0
H915 H 0.93508 0.10376 0.96197 0.0
H916 H 0.10751 0.11888 0.97072 0.0
H917 H 0.15036 0.07119 0.96357 0.0
C918 C 0.04392 0.04449 0.25546 0.0
C919 C 0.09791 0.06012 0.26791 0.0
C920 C 0.9996 0.97243 0.28645 0.0
C921 C 0.94508 0.96239 0.27463 0.0
N922 N 0.91633 1.00261 0.2491 0.0
N923 N 0.12429 0.04774 0.29648 0.0
C924 C 0.96749 1.00187 0.25942 0.0
C925 C 0.07475 0.0272 0.28381 0.0
N926 N 0.06528 0.07052 0.23972 0.0
N927 N 0.98042 0.92661 0.29983 0.0
H928 H 0.17987 0.08558 0.29507 0.0
H929 H 0.10912 0.03207 0.30875 0.0
H930 H 0.92713 0.88352 0.30183 0.0
H931 H 0.01856 0.92599 0.30794 0.0
H932 H 0.02946 0.05276 0.22964 0.0
H933 H 0.11962 0.10636 0.23645 0.0
H934 H 0.9299 0.03699 0.23885 0.0
H935 H 0.86024 0.97467 0.25158 0.0
loop_
_geom_bond_atom_site_label_1
_geom_bond_atom_site_label_2
_geom_bond_distance
_geom_bond_site_symmetry_2
_ccdc_geom_bond_type
Co0 N4 2.148 . S
Co0 N10 2.128 . S
Co0 N20 2.194 . S
Co0 O25 2.351 . S
Co0 O26 2.155 . S
Co0 O27 2.096 . S
C1 N4 1.301 . S
C1 N5 1.328 . S
C1 H6 0.930 . S
C2 C3 1.333 . S
C2 N4 1.317 . S
C2 H7 0.930 . S
C3 C2 1.333 . S
C3 N5 1.350 . S
C3 H29 0.931 . S
N4 Co0 2.148 . S
N4 C1 1.301 . S
N4 C2 1.317 . S
N5 C1 1.328 . S
N5 C3 1.350 . S
H6 C1 0.930 . S
H7 C2 0.930 . S
C8 O9 1.224 . S
C8 O27 1.247 . S
O9 C8 1.224 . S
N10 Co0 2.128 . S
N10 C11 1.355 . S
N10 C13 1.311 . S
C11 N10 1.355 . S
C11 C12 1.363 . S
C11 H23 0.929 . S
C12 C11 1.363 . S
C12 N14 1.375 . S
C12 H30 0.931 . S
C13 N10 1.311 . S
C13 N14 1.347 . S
C13 H24 0.929 . S
N14 C12 1.375 . S
N14 C13 1.347 . S
C15 C18 1.365 . S
C15 N20 1.328 . S
C15 H21 0.929 . S
C16 C17 1.362 . S
C16 C19 1.378 . S
C16 H31 0.929 . S
C17 C16 1.362 . S
C17 C18 1.366 . S
C18 C15 1.365 . S
C18 C17 1.366 . S
C18 H32 0.930 . S
C19 C16 1.378 . S
C19 N20 1.315 . S
C19 H22 0.930 . S
N20 Co0 2.194 . S
N20 C15 1.328 . S
N20 C19 1.315 . S
H21 C15 0.929 . S
H22 C19 0.930 . S
H23 C11 0.929 . S
H24 C13 0.929 . S
O25 Co0 2.351 . S
O25 C28 1.244 . S
O26 Co0 2.155 . S
O26 C28 1.240 . S
O27 Co0 2.096 . S
O27 C8 1.247 . S
C28 O25 1.244 . S
C28 O26 1.240 . S
H29 C3 0.931 . S
H30 C12 0.931 . S
H31 C16 0.929 . S
H32 C18 0.930 . S
Co33 N37 2.148 . S
Co33 N43 2.128 . S
Co33 N53 2.194 . S
Co33 O58 2.351 . S
Co33 O59 2.155 . S
Co33 O60 2.096 . S
C34 N37 1.301 . S
C34 N38 1.328 . S
C34 H39 0.930 . S
C35 C36 1.333 . S
C35 N37 1.317 . S
C35 H40 0.930 . S
C36 C35 1.333 . S
C36 N38 1.350 . S
C36 H62 0.931 . S
N37 Co33 2.148 . S
N37 C34 1.301 . S
N37 C35 1.317 . S
N38 C34 1.328 . S
N38 C36 1.350 . S
H39 C34 0.930 . S
H40 C35 0.930 . S
C41 O42 1.224 . S
C41 O60 1.247 . S
O42 C41 1.224 . S
N43 Co33 2.128 . S
N43 C44 1.355 . S
N43 C46 1.311 . S
C44 N43 1.355 . S
C44 C45 1.363 . S
C44 H56 0.929 . S
C45 C44 1.363 . S
C45 N47 1.375 . S
C45 H63 0.931 . S
C46 N43 1.311 . S
C46 N47 1.347 . S
C46 H57 0.929 . S
N47 C45 1.375 . S
N47 C46 1.347 . S
C48 C51 1.365 . S
C48 N53 1.328 . S
C48 H54 0.929 . S
C49 C50 1.362 . S
C49 C52 1.378 . S
C49 H64 0.929 1_455 S
C50 C49 1.362 . S
C50 C51 1.366 . S
C51 C48 1.365 . S
C51 C50 1.366 . S
C51 H65 0.930 . S
C52 C49 1.378 . S
C52 N53 1.315 . S
C52 H55 0.930 . S
N53 Co33 2.194 . S
N53 C48 1.328 . S
N53 C52 1.315 . S
H54 C48 0.929 . S
H55 C52 0.930 . S
H56 C44 0.929 . S
H57 C46 0.929 . S
O58 Co33 2.351 . S
O58 C61 1.244 . S
O59 Co33 2.155 . S
O59 C61 1.240 . S
O60 Co33 2.096 . S
O60 C41 1.247 . S
C61 O58 1.244 . S
C61 O59 1.240 . S
H62 C36 0.931 . S
H63 C45 0.931 . S
H64 C49 0.929 1_655 S
H65 C51 0.930 . S
Co66 N70 2.148 . S
Co66 N76 2.128 . S
Co66 N86 2.194 . S
Co66 O91 2.351 . S
Co66 O92 2.155 . S
Co66 O93 2.096 . S
C67 N70 1.301 . S
C67 N71 1.328 . S
C67 H72 0.930 . S
C68 C69 1.333 . S
C68 N70 1.317 . S
C68 H73 0.930 . S
C69 C68 1.333 . S
C69 N71 1.350 . S
C69 H95 0.931 . S
N70 Co66 2.148 . S
N70 C67 1.301 . S
N70 C68 1.317 . S
N71 C67 1.328 . S
N71 C69 1.350 . S
H72 C67 0.930 . S
H73 C68 0.930 . S
C74 O75 1.224 . S
C74 O93 1.247 . S
O75 C74 1.224 . S
N76 Co66 2.128 . S
N76 C77 1.355 . S
N76 C79 1.311 . S
C77 N76 1.355 . S
C77 C78 1.363 . S
C77 H89 0.929 . S
C78 C77 1.363 . S
C78 N80 1.375 . S
C78 H96 0.931 . S
C79 N76 1.311 . S
C79 N80 1.347 . S
C79 H90 0.929 . S
N80 C78 1.375 . S
N80 C79 1.347 . S
C81 C84 1.365 . S
C81 N86 1.328 . S
C81 H87 0.929 . S
C82 C83 1.362 . S
C82 C85 1.378 . S
C82 H97 0.929 1_545 S
C83 C82 1.362 . S
C83 C84 1.366 . S
C84 C81 1.365 . S
C84 C83 1.366 . S
C84 H98 0.930 . S
C85 C82 1.378 . S
C85 N86 1.315 . S
C85 H88 0.930 . S
N86 Co66 2.194 . S
N86 C81 1.328 . S
N86 C85 1.315 . S
H87 C81 0.929 . S
H88 C85 0.930 . S
H89 C77 0.929 . S
H90 C79 0.929 . S
O91 Co66 2.351 . S
O91 C94 1.244 . S
O92 Co66 2.155 . S
O92 C94 1.240 . S
O93 Co66 2.096 . S
O93 C74 1.247 . S
C94 O91 1.244 . S
C94 O92 1.240 . S
H95 C69 0.931 . S
H96 C78 0.931 . S
H97 C82 0.929 1_565 S
H98 C84 0.930 . S
Co99 N103 2.148 . S
Co99 N109 2.128 . S
Co99 N119 2.194 . S
Co99 O124 2.351 . S
Co99 O125 2.155 . S
Co99 O126 2.096 . S
C100 N103 1.301 . S
C100 N104 1.328 . S
C100 H105 0.930 . S
C101 C102 1.333 . S
C101 N103 1.317 . S
C101 H106 0.930 . S
C102 C101 1.333 . S
C102 N104 1.350 . S
C102 H128 0.931 . S
N103 Co99 2.148 . S
N103 C100 1.301 . S
N103 C101 1.317 . S
N104 C100 1.328 . S
N104 C102 1.350 . S
H105 C100 0.930 . S
H106 C101 0.930 . S
C107 O108 1.224 . S
C107 O126 1.247 . S
O108 C107 1.224 . S
N109 Co99 2.128 . S
N109 C110 1.355 . S
N109 C112 1.311 . S
C110 N109 1.355 . S
C110 C111 1.363 . S
C110 H122 0.929 . S
C111 C110 1.363 . S
C111 N113 1.375 . S
C111 H129 0.931 . S
C112 N109 1.311 . S
C112 N113 1.347 . S
C112 H123 0.929 . S
N113 C111 1.375 . S
N113 C112 1.347 . S
C114 C117 1.365 . S
C114 N119 1.328 . S
C114 H120 0.929 . S
C115 C116 1.362 . S
C115 C118 1.378 . S
C115 H130 0.929 . S
C116 C115 1.362 . S
C116 C117 1.366 . S
C117 C114 1.365 . S
C117 C116 1.366 . S
C117 H131 0.930 . S
C118 C115 1.378 . S
C118 N119 1.315 . S
C118 H121 0.930 . S
N119 Co99 2.194 . S
N119 C114 1.328 . S
N119 C118 1.315 . S
H120 C114 0.929 . S
H121 C118 0.930 . S
H122 C110 0.929 . S
H123 C112 0.929 . S
O124 Co99 2.351 . S
O124 C127 1.244 . S
O125 Co99 2.155 . S
O125 C127 1.240 . S
O126 Co99 2.096 . S
O126 C107 1.247 . S
C127 O124 1.244 . S
C127 O125 1.240 . S
H128 C102 0.931 . S
H129 C111 0.931 . S
H130 C115 0.929 . S
H131 C117 0.930 . S
Co132 N136 2.148 . S
Co132 N142 2.128 . S
Co132 N152 2.194 . S
Co132 O157 2.351 . S
Co132 O158 2.155 . S
Co132 O159 2.096 . S
C133 N136 1.301 . S
C133 N137 1.328 . S
C133 H138 0.930 . S
C134 C135 1.333 . S
C134 N136 1.317 . S
C134 H139 0.930 . S
C135 C134 1.333 . S
C135 N137 1.350 . S
C135 H161 0.931 . S
N136 Co132 2.148 . S
N136 C133 1.301 . S
N136 C134 1.317 . S
N137 C133 1.328 . S
N137 C135 1.350 . S
H138 C133 0.930 . S
H139 C134 0.930 . S
C140 O141 1.224 . S
C140 O159 1.247 . S
O141 C140 1.224 . S
N142 Co132 2.128 . S
N142 C143 1.355 . S
N142 C145 1.311 . S
C143 N142 1.355 . S
C143 C144 1.363 . S
C143 H155 0.929 . S
C144 C143 1.363 . S
C144 N146 1.375 . S
C144 H162 0.931 . S
C145 N142 1.311 . S
C145 N146 1.347 . S
C145 H156 0.929 . S
N146 C144 1.375 . S
N146 C145 1.347 . S
C147 C150 1.365 . S
C147 N152 1.328 . S
C147 H153 0.929 . S
C148 C149 1.362 . S
C148 C151 1.378 . S
C148 H163 0.929 1_655 S
C149 C148 1.362 . S
C149 C150 1.366 . S
C150 C147 1.365 . S
C150 C149 1.366 . S
C150 H164 0.930 . S
C151 C148 1.378 . S
C151 N152 1.315 . S
C151 H154 0.930 . S
N152 Co132 2.194 . S
N152 C147 1.328 . S
N152 C151 1.315 . S
H153 C147 0.929 . S
H154 C151 0.930 . S
H155 C143 0.929 . S
H156 C145 0.929 . S
O157 Co132 2.351 . S
O157 C160 1.244 . S
O158 Co132 2.155 . S
O158 C160 1.240 . S
O159 Co132 2.096 . S
O159 C140 1.247 . S
C160 O157 1.244 . S
C160 O158 1.240 . S
H161 C135 0.931 . S
H162 C144 0.931 . S
H163 C148 0.929 1_455 S
H164 C150 0.930 . S
Co165 N169 2.148 . S
Co165 N175 2.128 . S
Co165 N185 2.194 . S
Co165 O190 2.351 . S
Co165 O191 2.155 . S
Co165 O192 2.096 . S
C166 N169 1.301 . S
C166 N170 1.328 . S
C166 H171 0.930 . S
C167 C168 1.333 . S
C167 N169 1.317 . S
C167 H172 0.930 . S
C168 C167 1.333 . S
C168 N170 1.350 . S
C168 H194 0.931 . S
N169 Co165 2.148 . S
N169 C166 1.301 . S
N169 C167 1.317 . S
N170 C166 1.328 . S
N170 C168 1.350 . S
H171 C166 0.930 . S
H172 C167 0.930 . S
C173 O174 1.224 . S
C173 O192 1.247 . S
O174 C173 1.224 . S
N175 Co165 2.128 . S
N175 C176 1.355 . S
N175 C178 1.311 . S
C176 N175 1.355 . S
C176 C177 1.363 . S
C176 H188 0.929 . S
C177 C176 1.363 . S
C177 N179 1.375 . S
C177 H195 0.931 . S
C178 N175 1.311 . S
C178 N179 1.347 . S
C178 H189 0.929 . S
N179 C177 1.375 . S
N179 C178 1.347 . S
C180 C183 1.365 . S
C180 N185 1.328 . S
C180 H186 0.929 . S
C181 C182 1.362 . S
C181 C184 1.378 . S
C181 H196 0.929 1_565 S
C182 C181 1.362 . S
C182 C183 1.366 . S
C183 C180 1.365 . S
C183 C182 1.366 . S
C183 H197 0.930 . S
C184 C181 1.378 . S
C184 N185 1.315 . S
C184 H187 0.930 . S
N185 Co165 2.194 . S
N185 C180 1.328 . S
N185 C184 1.315 . S
H186 C180 0.929 . S
H187 C184 0.930 . S
H188 C176 0.929 . S
H189 C178 0.929 . S
O190 Co165 2.351 . S
O190 C193 1.244 . S
O191 Co165 2.155 . S
O191 C193 1.240 . S
O192 Co165 2.096 . S
O192 C173 1.247 . S
C193 O190 1.244 . S
C193 O191 1.240 . S
H194 C168 0.931 . S
H195 C177 0.931 . S
H196 C181 0.929 1_545 S
H197 C183 0.930 . S
Co198 N202 2.148 . S
Co198 N208 2.128 . S
Co198 N218 2.194 . S
Co198 O223 2.351 . S
Co198 O224 2.155 . S
Co198 O225 2.096 . S
C199 N202 1.301 . S
C199 N203 1.328 . S
C199 H204 0.930 . S
C200 C201 1.333 . S
C200 N202 1.317 . S
C200 H205 0.930 . S
C201 C200 1.333 . S
C201 N203 1.350 . S
C201 H227 0.931 . S
N202 Co198 2.148 . S
N202 C199 1.301 . S
N202 C200 1.317 . S
N203 C199 1.328 . S
N203 C201 1.350 . S
H204 C199 0.930 . S
H205 C200 0.930 . S
C206 O207 1.224 . S
C206 O225 1.247 . S
O207 C206 1.224 . S
N208 Co198 2.128 . S
N208 C209 1.355 . S
N208 C211 1.311 . S
C209 N208 1.355 . S
C209 C210 1.363 . S
C209 H221 0.929 . S
C210 C209 1.363 . S
C210 N212 1.375 . S
C210 H228 0.931 . S
C211 N208 1.311 . S
C211 N212 1.347 . S
C211 H222 0.929 . S
N212 C210 1.375 . S
N212 C211 1.347 . S
C213 C216 1.365 . S
C213 N218 1.328 . S
C213 H219 0.929 . S
C214 C215 1.362 . S
C214 C217 1.378 . S
C214 H229 0.929 . S
C215 C214 1.362 . S
C215 C216 1.366 . S
C216 C213 1.365 . S
C216 C215 1.366 . S
C216 H230 0.930 . S
C217 C214 1.378 . S
C217 N218 1.315 . S
C217 H220 0.930 . S
N218 Co198 2.194 . S
N218 C213 1.328 . S
N218 C217 1.315 . S
H219 C213 0.929 . S
H220 C217 0.930 . S
H221 C209 0.929 . S
H222 C211 0.929 . S
O223 Co198 2.351 . S
O223 C226 1.244 . S
O224 Co198 2.155 . S
O224 C226 1.240 . S
O225 Co198 2.096 . S
O225 C206 1.247 . S
C226 O223 1.244 . S
C226 O224 1.240 . S
H227 C201 0.931 . S
H228 C210 0.931 . S
H229 C214 0.929 . S
H230 C216 0.930 . S
Co231 N235 2.148 . S
Co231 N241 2.128 . S
Co231 N251 2.194 . S
Co231 O256 2.351 . S
Co231 O257 2.155 . S
Co231 O258 2.096 . S
C232 N235 1.301 . S
C232 N236 1.328 . S
C232 H237 0.930 . S
C233 C234 1.333 . S
C233 N235 1.317 . S
C233 H238 0.930 . S
C234 C233 1.333 . S
C234 N236 1.350 . S
C234 H260 0.931 . S
N235 Co231 2.148 . S
N235 C232 1.301 . S
N235 C233 1.317 . S
N236 C232 1.328 . S
N236 C234 1.350 . S
H237 C232 0.930 . S
H238 C233 0.930 . S
C239 O240 1.224 . S
C239 O258 1.247 . S
O240 C239 1.224 . S
N241 Co231 2.128 . S
N241 C242 1.355 . S
N241 C244 1.311 . S
C242 N241 1.355 . S
C242 C243 1.363 . S
C242 H254 0.929 . S
C243 C242 1.363 . S
C243 N245 1.375 . S
C243 H261 0.931 . S
C244 N241 1.311 . S
C244 N245 1.347 . S
C244 H255 0.929 . S
N245 C243 1.375 . S
N245 C244 1.347 . S
C246 C249 1.365 . S
C246 N251 1.328 . S
C246 H252 0.929 . S
C247 C248 1.362 . S
C247 C250 1.378 . S
C247 H262 0.929 1_455 S
C248 C247 1.362 . S
C248 C249 1.366 . S
C249 C246 1.365 . S
C249 C248 1.366 . S
C249 H263 0.930 . S
C250 C247 1.378 . S
C250 N251 1.315 . S
C250 H253 0.930 . S
N251 Co231 2.194 . S
N251 C246 1.328 . S
N251 C250 1.315 . S
H252 C246 0.929 . S
H253 C250 0.930 . S
H254 C242 0.929 . S
H255 C244 0.929 . S
O256 Co231 2.351 . S
O256 C259 1.244 . S
O257 Co231 2.155 . S
O257 C259 1.240 . S
O258 Co231 2.096 . S
O258 C239 1.247 . S
C259 O256 1.244 . S
C259 O257 1.240 . S
H260 C234 0.931 . S
H261 C243 0.931 . S
H262 C247 0.929 1_655 S
H263 C249 0.930 . S
Co264 N268 2.148 . S
Co264 N274 2.128 . S
Co264 N284 2.194 . S
Co264 O289 2.351 . S
Co264 O290 2.155 . S
Co264 O291 2.096 . S
C265 N268 1.301 . S
C265 N269 1.328 . S
C265 H270 0.930 . S
C266 C267 1.333 . S
C266 N268 1.317 . S
C266 H271 0.930 . S
C267 C266 1.333 . S
C267 N269 1.350 . S
C267 H293 0.931 . S
N268 Co264 2.148 . S
N268 C265 1.301 . S
N268 C266 1.317 . S
N269 C265 1.328 . S
N269 C267 1.350 . S
H270 C265 0.930 . S
H271 C266 0.930 . S
C272 O273 1.224 . S
C272 O291 1.247 . S
O273 C272 1.224 . S
N274 Co264 2.128 . S
N274 C275 1.355 . S
N274 C277 1.311 . S
C275 N274 1.355 . S
C275 C276 1.363 . S
C275 H287 0.929 . S
C276 C275 1.363 . S
C276 N278 1.375 . S
C276 H294 0.931 . S
C277 N274 1.311 . S
C277 N278 1.347 . S
C277 H288 0.929 . S
N278 C276 1.375 . S
N278 C277 1.347 . S
C279 C282 1.365 . S
C279 N284 1.328 . S
C279 H285 0.929 . S
C280 C281 1.362 . S
C280 C283 1.378 . S
C280 H295 0.929 1_545 S
C281 C280 1.362 . S
C281 C282 1.366 . S
C282 C279 1.365 . S
C282 C281 1.366 . S
C282 H296 0.930 . S
C283 C280 1.378 . S
C283 N284 1.315 . S
C283 H286 0.930 . S
N284 Co264 2.194 . S
N284 C279 1.328 . S
N284 C283 1.315 . S
H285 C279 0.929 . S
H286 C283 0.930 . S
H287 C275 0.929 . S
H288 C277 0.929 . S
O289 Co264 2.351 . S
O289 C292 1.244 . S
O290 Co264 2.155 . S
O290 C292 1.240 . S
O291 Co264 2.096 . S
O291 C272 1.247 . S
C292 O289 1.244 . S
C292 O290 1.240 . S
H293 C267 0.931 . S
H294 C276 0.931 . S
H295 C280 0.929 1_565 S
H296 C282 0.930 . S
Co297 N301 2.148 . S
Co297 N307 2.128 . S
Co297 N317 2.194 . S
Co297 O322 2.351 . S
Co297 O323 2.155 . S
Co297 O324 2.096 . S
C298 N301 1.301 . S
C298 N302 1.328 . S
C298 H303 0.930 . S
C299 C300 1.333 . S
C299 N301 1.317 . S
C299 H304 0.930 . S
C300 C299 1.333 . S
C300 N302 1.350 . S
C300 H326 0.931 . S
N301 Co297 2.148 . S
N301 C298 1.301 . S
N301 C299 1.317 . S
N302 C298 1.328 . S
N302 C300 1.350 . S
H303 C298 0.930 . S
H304 C299 0.930 . S
C305 O306 1.224 . S
C305 O324 1.247 . S
O306 C305 1.224 . S
N307 Co297 2.128 . S
N307 C308 1.355 . S
N307 C310 1.311 . S
C308 N307 1.355 . S
C308 C309 1.363 . S
C308 H320 0.929 . S
C309 C308 1.363 . S
C309 N311 1.375 . S
C309 H327 0.931 . S
C310 N307 1.311 . S
C310 N311 1.347 . S
C310 H321 0.929 . S
N311 C309 1.375 . S
N311 C310 1.347 . S
C312 C315 1.365 . S
C312 N317 1.328 . S
C312 H318 0.929 . S
C313 C314 1.362 . S
C313 C316 1.378 . S
C313 H328 0.929 . S
C314 C313 1.362 . S
C314 C315 1.366 . S
C315 C312 1.365 . S
C315 C314 1.366 . S
C315 H329 0.930 . S
C316 C313 1.378 . S
C316 N317 1.315 . S
C316 H319 0.930 . S
N317 Co297 2.194 . S
N317 C312 1.328 . S
N317 C316 1.315 . S
H318 C312 0.929 . S
H319 C316 0.930 . S
H320 C308 0.929 . S
H321 C310 0.929 . S
O322 Co297 2.351 . S
O322 C325 1.244 . S
O323 Co297 2.155 . S
O323 C325 1.240 . S
O324 Co297 2.096 . S
O324 C305 1.247 . S
C325 O322 1.244 . S
C325 O323 1.240 . S
H326 C300 0.931 . S
H327 C309 0.931 . S
H328 C313 0.929 . S
H329 C315 0.930 . S
Co330 N334 2.148 . S
Co330 N340 2.128 . S
Co330 N350 2.194 . S
Co330 O355 2.351 . S
Co330 O356 2.155 . S
Co330 O357 2.096 . S
C331 N334 1.301 . S
C331 N335 1.328 . S
C331 H336 0.930 . S
C332 C333 1.333 . S
C332 N334 1.317 . S
C332 H337 0.930 . S
C333 C332 1.333 . S
C333 N335 1.350 . S
C333 H359 0.931 . S
N334 Co330 2.148 . S
N334 C331 1.301 . S
N334 C332 1.317 . S
N335 C331 1.328 . S
N335 C333 1.350 . S
H336 C331 0.930 . S
H337 C332 0.930 . S
C338 O339 1.224 . S
C338 O357 1.247 . S
O339 C338 1.224 . S
N340 Co330 2.128 . S
N340 C341 1.355 . S
N340 C343 1.311 . S
C341 N340 1.355 . S
C341 C342 1.363 . S
C341 H353 0.929 . S
C342 C341 1.363 . S
C342 N344 1.375 . S
C342 H360 0.931 . S
C343 N340 1.311 . S
C343 N344 1.347 . S
C343 H354 0.929 . S
N344 C342 1.375 . S
N344 C343 1.347 . S
C345 C348 1.365 . S
C345 N350 1.328 . S
C345 H351 0.929 . S
C346 C347 1.362 . S
C346 C349 1.378 . S
C346 H361 0.929 1_655 S
C347 C346 1.362 . S
C347 C348 1.366 . S
C348 C345 1.365 . S
C348 C347 1.366 . S
C348 H362 0.930 . S
C349 C346 1.378 . S
C349 N350 1.315 . S
C349 H352 0.930 . S
N350 Co330 2.194 . S
N350 C345 1.328 . S
N350 C349 1.315 . S
H351 C345 0.929 . S
H352 C349 0.930 . S
H353 C341 0.929 . S
H354 C343 0.929 . S
O355 Co330 2.351 . S
O355 C358 1.244 . S
O356 Co330 2.155 . S
O356 C358 1.240 . S
O357 Co330 2.096 . S
O357 C338 1.247 . S
C358 O355 1.244 . S
C358 O356 1.240 . S
H359 C333 0.931 . S
H360 C342 0.931 . S
H361 C346 0.929 1_455 S
H362 C348 0.930 . S
Co363 N367 2.148 . S
Co363 N373 2.128 . S
Co363 N383 2.194 . S
Co363 O388 2.351 . S
Co363 O389 2.155 . S
Co363 O390 2.096 . S
C364 N367 1.301 . S
C364 N368 1.328 . S
C364 H369 0.930 . S
C365 C366 1.333 . S
C365 N367 1.317 . S
C365 H370 0.930 . S
C366 C365 1.333 . S
C366 N368 1.350 . S
C366 H392 0.931 . S
N367 Co363 2.148 . S
N367 C364 1.301 . S
N367 C365 1.317 . S
N368 C364 1.328 . S
N368 C366 1.350 . S
H369 C364 0.930 . S
H370 C365 0.930 . S
C371 O372 1.224 . S
C371 O390 1.247 . S
O372 C371 1.224 . S
N373 Co363 2.128 . S
N373 C374 1.355 . S
N373 C376 1.311 . S
C374 N373 1.355 . S
C374 C375 1.363 . S
C374 H386 0.929 . S
C375 C374 1.363 . S
C375 N377 1.375 . S
C375 H393 0.931 . S
C376 N373 1.311 . S
C376 N377 1.347 . S
C376 H387 0.929 . S
N377 C375 1.375 . S
N377 C376 1.347 . S
C378 C381 1.365 . S
C378 N383 1.328 . S
C378 H384 0.929 . S
C379 C380 1.362 . S
C379 C382 1.378 . S
C379 H394 0.929 1_565 S
C380 C379 1.362 . S
C380 C381 1.366 . S
C381 C378 1.365 . S
C381 C380 1.366 . S
C381 H395 0.930 . S
C382 C379 1.378 . S
C382 N383 1.315 . S
C382 H385 0.930 . S
N383 Co363 2.194 . S
N383 C378 1.328 . S
N383 C382 1.315 . S
H384 C378 0.929 . S
H385 C382 0.930 . S
H386 C374 0.929 . S
H387 C376 0.929 . S
O388 Co363 2.351 . S
O388 C391 1.244 . S
O389 Co363 2.155 . S
O389 C391 1.240 . S
O390 Co363 2.096 . S
O390 C371 1.247 . S
C391 O388 1.244 . S
C391 O389 1.240 . S
H392 C366 0.931 . S
H393 C375 0.931 . S
H394 C379 0.929 1_545 S
H395 C381 0.930 . S
C396 C397 1.363 1_565 S
C396 C402 1.379 1_554 S
C396 N404 1.356 . S
C397 C396 1.363 1_545 S
C397 C403 1.363 . S
C398 C399 1.363 1_545 S
C398 C403 1.379 1_556 S
C398 N405 1.356 . S
C399 C398 1.363 1_565 S
C399 C402 1.363 . S
N400 C402 1.356 . S
N400 H412 0.987 . S
N400 H413 0.985 . S
N401 C403 1.356 . S
N401 H406 0.984 . S
N401 H407 0.987 . S
C402 C396 1.379 1_556 S
C402 C399 1.363 . S
C402 N400 1.356 . S
C403 C397 1.363 . S
C403 C398 1.379 1_554 S
C403 N401 1.356 . S
N404 C396 1.356 . S
N404 H410 0.984 . S
N404 H411 0.984 1_565 S
N405 C398 1.356 . S
N405 H408 0.984 1_545 S
N405 H409 0.985 . S
H406 N401 0.984 . S
H407 N401 0.987 . S
H408 N405 0.984 1_565 S
H409 N405 0.985 . S
H410 N404 0.984 . S
H411 N404 0.984 1_545 S
H412 N400 0.987 . S
H413 N400 0.985 . S
C414 C415 1.363 . S
C414 C420 1.379 . S
C414 N422 1.356 . S
C415 C414 1.363 . S
C415 C421 1.363 . S
C416 C417 1.363 . S
C416 C421 1.379 . S
C416 N423 1.356 . S
C417 C416 1.363 . S
C417 C420 1.363 . S
N418 C420 1.356 . S
N418 H430 0.984 . S
N418 H431 0.985 . S
N419 C421 1.356 . S
N419 H424 0.984 . S
N419 H425 0.985 . S
C420 C414 1.379 . S
C420 C417 1.363 . S
C420 N418 1.356 . S
C421 C415 1.363 . S
C421 C416 1.379 . S
C421 N419 1.356 . S
N422 C414 1.356 . S
N422 H428 0.984 . S
N422 H429 0.984 . S
N423 C416 1.356 . S
N423 H426 0.984 . S
N423 H427 0.985 . S
H424 N419 0.984 . S
H425 N419 0.985 . S
H426 N423 0.984 . S
H427 N423 0.985 . S
H428 N422 0.984 . S
H429 N422 0.984 . S
H430 N418 0.984 . S
H431 N418 0.985 . S
C432 C433 1.363 1_455 S
C432 C438 1.379 . S
C432 N440 1.356 . S
C433 C432 1.363 1_655 S
C433 C439 1.363 . S
C434 C435 1.363 1_655 S
C434 C439 1.379 . S
C434 N441 1.356 . S
C435 C434 1.363 1_455 S
C435 C438 1.363 . S
N436 C438 1.356 . S
N436 H448 0.984 . S
N436 H449 0.985 . S
N437 C439 1.356 . S
N437 H442 0.984 . S
N437 H443 0.985 . S
C438 C432 1.379 . S
C438 C435 1.363 . S
C438 N436 1.356 . S
C439 C433 1.363 . S
C439 C434 1.379 . S
C439 N437 1.356 . S
N440 C432 1.356 . S
N440 H446 0.984 . S
N440 H447 0.984 1_455 S
N441 C434 1.356 . S
N441 H444 0.984 1_655 S
N441 H445 0.985 . S
H442 N437 0.984 . S
H443 N437 0.985 . S
H444 N441 0.984 1_455 S
H445 N441 0.985 . S
H446 N440 0.984 . S
H447 N440 0.984 1_655 S
H448 N436 0.984 . S
H449 N436 0.985 . S
C450 C451 1.363 1_565 S
C450 C456 1.342 1_556 S
C450 N458 1.356 . S
C451 C450 1.363 1_545 S
C451 C457 1.399 . S
C452 C453 1.363 1_545 S
C452 C457 1.342 1_554 S
C452 N459 1.356 . S
C453 C452 1.363 1_565 S
C453 C456 1.399 . S
N454 C456 1.371 . S
N454 H466 0.984 1_554 S
N454 H467 0.985 . S
N455 C457 1.371 . S
N455 H460 0.984 . S
N455 H461 0.985 1_556 S
C456 C450 1.342 1_554 S
C456 C453 1.399 . S
C456 N454 1.371 . S
C457 C451 1.399 . S
C457 C452 1.342 1_556 S
C457 N455 1.371 . S
N458 C450 1.356 . S
N458 H464 0.984 . S
N458 H465 0.984 1_565 S
N459 C452 1.356 . S
N459 H462 0.984 1_545 S
N459 H463 0.985 . S
H460 N455 0.984 . S
H461 N455 0.985 1_554 S
H462 N459 0.984 1_565 S
H463 N459 0.985 . S
H464 N458 0.984 . S
H465 N458 0.984 1_545 S
H466 N454 0.984 1_556 S
H467 N454 0.985 . S
C468 C469 1.363 . S
C468 C474 1.379 . S
C468 N476 1.356 . S
C469 C468 1.363 . S
C469 C475 1.363 . S
C470 C471 1.363 . S
C470 C475 1.379 . S
C470 N477 1.356 . S
C471 C470 1.363 . S
C471 C474 1.363 . S
N472 C474 1.356 . S
N472 H484 0.984 . S
N472 H485 0.985 . S
N473 C475 1.356 . S
N473 H478 0.984 . S
N473 H479 0.985 . S
C474 C468 1.379 . S
C474 C471 1.363 . S
C474 N472 1.356 . S
C475 C469 1.363 . S
C475 C470 1.379 . S
C475 N473 1.356 . S
N476 C468 1.356 . S
N476 H482 0.984 . S
N476 H483 0.984 . S
N477 C470 1.356 . S
N477 H480 0.984 . S
N477 H481 0.985 . S
H478 N473 0.984 . S
H479 N473 0.985 . S
H480 N477 0.984 . S
H481 N477 0.985 . S
H482 N476 0.984 . S
H483 N476 0.984 . S
H484 N472 0.984 . S
H485 N472 0.985 . S
C486 C487 1.363 . S
C486 C492 1.379 . S
C486 N494 1.356 . S
C487 C486 1.363 . S
C487 C493 1.363 1_455 S
C488 C489 1.363 . S
C488 C493 1.379 . S
C488 N495 1.356 . S
C489 C488 1.363 . S
C489 C492 1.363 1_655 S
N490 C492 1.356 . S
N490 H502 0.984 . S
N490 H503 0.985 1_455 S
N491 C493 1.356 . S
N491 H496 0.984 1_655 S
N491 H497 0.985 . S
C492 C486 1.379 . S
C492 C489 1.363 1_455 S
C492 N490 1.356 . S
C493 C487 1.363 1_655 S
C493 C488 1.379 . S
C493 N491 1.356 . S
N494 C486 1.356 . S
N494 H500 0.984 . S
N494 H501 0.984 . S
N495 C488 1.356 . S
N495 H498 0.984 . S
N495 H499 0.985 . S
H496 N491 0.984 1_455 S
H497 N491 0.985 . S
H498 N495 0.984 . S
H499 N495 0.985 . S
H500 N494 0.984 . S
H501 N494 0.984 . S
H502 N490 0.984 . S
H503 N490 0.985 1_655 S
C504 C505 1.363 1_545 S
C504 C510 1.379 . S
C504 N512 1.356 . S
C505 C504 1.363 1_565 S
C505 C511 1.363 . S
C506 C507 1.363 1_565 S
C506 C511 1.379 . S
C506 N513 1.356 . S
C507 C506 1.363 1_545 S
C507 C510 1.363 . S
N508 C510 1.356 . S
N508 H520 0.984 . S
N508 H521 0.985 . S
N509 C511 1.356 . S
N509 H514 0.984 . S
N509 H515 0.985 . S
C510 C504 1.379 . S
C510 C507 1.363 . S
C510 N508 1.356 . S
C511 C505 1.363 . S
C511 C506 1.379 . S
C511 N509 1.356 . S
N512 C504 1.356 . S
N512 H518 0.984 . S
N512 H519 0.984 . S
N513 C506 1.356 . S
N513 H516 0.984 . S
N513 H517 0.985 . S
H514 N509 0.984 . S
H515 N509 0.985 . S
H516 N513 0.984 . S
H517 N513 0.985 . S
H518 N512 0.984 . S
H519 N512 0.984 . S
H520 N508 0.984 . S
H521 N508 0.985 . S
C522 C523 1.363 . S
C522 C528 1.379 . S
C522 N530 1.356 . S
C523 C522 1.363 . S
C523 C529 1.363 . S
C524 C525 1.363 . S
C524 C529 1.379 . S
C524 N531 1.356 . S
C525 C524 1.363 . S
C525 C528 1.363 . S
N526 C528 1.356 . S
N526 H538 0.984 . S
N526 H539 0.985 . S
N527 C529 1.356 . S
N527 H532 0.984 . S
N527 H533 0.985 . S
C528 C522 1.379 . S
C528 C525 1.363 . S
C528 N526 1.356 . S
C529 C523 1.363 . S
C529 C524 1.379 . S
C529 N527 1.356 . S
N530 C522 1.356 . S
N530 H536 0.984 . S
N530 H537 0.984 . S
N531 C524 1.356 . S
N531 H534 0.984 . S
N531 H535 0.985 . S
H532 N527 0.984 . S
H533 N527 0.985 . S
H534 N531 0.984 . S
H535 N531 0.985 . S
H536 N530 0.984 . S
H537 N530 0.984 . S
H538 N526 0.984 . S
H539 N526 0.985 . S
C540 C541 1.363 1_655 S
C540 C546 1.379 . S
C540 N548 1.356 . S
C541 C540 1.363 1_455 S
C541 C547 1.363 . S
C542 C543 1.363 1_455 S
C542 C547 1.379 . S
C542 N549 1.356 . S
C543 C542 1.363 1_655 S
C543 C546 1.363 . S
N544 C546 1.356 . S
N544 H556 0.984 . S
N544 H557 0.985 . S
N545 C547 1.356 . S
N545 H550 0.984 . S
N545 H551 0.985 . S
C546 C540 1.379 . S
C546 C543 1.363 . S
C546 N544 1.356 . S
C547 C541 1.363 . S
C547 C542 1.379 . S
C547 N545 1.356 . S
N548 C540 1.356 . S
N548 H554 0.984 . S
N548 H555 0.984 . S
N549 C542 1.356 . S
N549 H552 0.984 . S
N549 H553 0.985 . S
H550 N545 0.984 . S
H551 N545 0.985 . S
H552 N549 0.984 . S
H553 N549 0.985 . S
H554 N548 0.984 . S
H555 N548 0.984 . S
H556 N544 0.984 . S
H557 N544 0.985 . S
C558 C559 1.363 1_655 S
C558 C564 1.379 . S
C558 N566 1.356 . S
C559 C558 1.363 1_455 S
C559 C565 1.363 . S
C560 C561 1.363 1_455 S
C560 C565 1.379 . S
C560 N567 1.356 . S
C561 C560 1.363 1_655 S
C561 C564 1.363 . S
N562 C564 1.356 . S
N562 H574 0.984 . S
N562 H575 0.985 . S
N563 C565 1.356 . S
N563 H568 0.984 . S
N563 H569 0.985 . S
C564 C558 1.379 . S
C564 C561 1.363 . S
C564 N562 1.356 . S
C565 C559 1.363 . S
C565 C560 1.379 . S
C565 N563 1.356 . S
N566 C558 1.356 . S
N566 H572 0.984 . S
N566 H573 0.984 . S
N567 C560 1.356 . S
N567 H570 0.984 . S
N567 H571 0.985 . S
H568 N563 0.984 . S
H569 N563 0.985 . S
H570 N567 0.984 . S
H571 N567 0.985 . S
H572 N566 0.984 . S
H573 N566 0.984 . S
H574 N562 0.984 . S
H575 N562 0.985 . S
C576 C577 1.363 1_565 S
C576 C582 1.379 . S
C576 N584 1.356 . S
C577 C576 1.363 1_545 S
C577 C583 1.363 . S
C578 C579 1.363 1_545 S
C578 C583 1.379 . S
C578 N585 1.356 . S
C579 C578 1.363 1_565 S
C579 C582 1.363 . S
N580 C582 1.356 . S
N580 H592 0.984 . S
N580 H593 0.985 . S
N581 C583 1.356 . S
N581 H586 0.984 . S
N581 H587 0.985 . S
C582 C576 1.379 . S
C582 C579 1.363 . S
C582 N580 1.356 . S
C583 C577 1.363 . S
C583 C578 1.379 . S
C583 N581 1.356 . S
N584 C576 1.356 . S
N584 H590 0.984 . S
N584 H591 0.984 . S
N585 C578 1.356 . S
N585 H588 0.984 . S
N585 H589 0.985 . S
H586 N581 0.984 . S
H587 N581 0.985 . S
H588 N585 0.984 . S
H589 N585 0.985 . S
H590 N584 0.984 . S
H591 N584 0.984 . S
H592 N580 0.984 . S
H593 N580 0.985 . S
C594 C595 1.363 . S
C594 C600 1.379 . S
C594 N602 1.356 . S
C595 C594 1.363 . S
C595 C601 1.363 . S
C596 C597 1.363 . S
C596 C601 1.379 . S
C596 N603 1.356 . S
C597 C596 1.363 . S
C597 C600 1.363 . S
N598 C600 1.356 . S
N598 H610 0.984 . S
N598 H611 0.985 . S
N599 C601 1.356 . S
N599 H604 0.984 . S
N599 H605 0.985 . S
C600 C594 1.379 . S
C600 C597 1.363 . S
C600 N598 1.356 . S
C601 C595 1.363 . S
C601 C596 1.379 . S
C601 N599 1.356 . S
N602 C594 1.356 . S
N602 H608 0.984 . S
N602 H609 0.984 . S
N603 C596 1.356 . S
N603 H606 0.984 . S
N603 H607 0.985 . S
H604 N599 0.984 . S
H605 N599 0.985 . S
H606 N603 0.984 . S
H607 N603 0.985 . S
H608 N602 0.984 . S
H609 N602 0.984 . S
H610 N598 0.984 . S
H611 N598 0.985 . S
C612 C613 1.363 . S
C612 C618 1.379 . S
C612 N620 1.356 . S
C613 C612 1.363 . S
C613 C619 1.363 . S
C614 C615 1.363 . S
C614 C619 1.379 . S
C614 N621 1.356 . S
C615 C614 1.363 . S
C615 C618 1.363 . S
N616 C618 1.356 . S
N616 H628 0.984 . S
N616 H629 0.985 . S
N617 C619 1.356 . S
N617 H622 0.984 . S
N617 H623 0.985 . S
C618 C612 1.379 . S
C618 C615 1.363 . S
C618 N616 1.356 . S
C619 C613 1.363 . S
C619 C614 1.379 . S
C619 N617 1.356 . S
N620 C612 1.356 . S
N620 H626 0.984 . S
N620 H627 0.984 . S
N621 C614 1.356 . S
N621 H624 0.984 . S
N621 H625 0.985 1_545 S
H622 N617 0.984 . S
H623 N617 0.985 . S
H624 N621 0.984 . S
H625 N621 0.985 1_565 S
H626 N620 0.984 . S
H627 N620 0.984 . S
H628 N616 0.984 . S
H629 N616 0.985 . S
C630 C631 1.363 . S
C630 C636 1.379 . S
C630 N638 1.356 . S
C631 C630 1.363 . S
C631 C637 1.363 . S
C632 C633 1.363 . S
C632 C637 1.379 . S
C632 N639 1.356 . S
C633 C632 1.363 . S
C633 C636 1.363 . S
N634 C636 1.356 . S
N634 H646 0.984 . S
N634 H647 0.985 . S
N635 C637 1.356 . S
N635 H640 0.984 . S
N635 H641 0.985 . S
C636 C630 1.379 . S
C636 C633 1.363 . S
C636 N634 1.356 . S
C637 C631 1.363 . S
C637 C632 1.379 . S
C637 N635 1.356 . S
N638 C630 1.356 . S
N638 H644 0.984 . S
N638 H645 0.984 . S
N639 C632 1.356 . S
N639 H642 0.984 . S
N639 H643 0.985 . S
H640 N635 0.984 . S
H641 N635 0.985 . S
H642 N639 0.984 . S
H643 N639 0.985 . S
H644 N638 0.984 . S
H645 N638 0.984 . S
H646 N634 0.984 . S
H647 N634 0.985 . S
C648 C649 1.363 . S
C648 C654 1.379 . S
C648 N656 1.356 . S
C649 C648 1.363 . S
C649 C655 1.363 . S
C650 C651 1.363 . S
C650 C655 1.379 . S
C650 N657 1.356 . S
C651 C650 1.363 . S
C651 C654 1.363 . S
N652 C654 1.356 . S
N652 H664 0.984 . S
N652 H665 0.985 . S
N653 C655 1.356 . S
N653 H658 0.984 . S
N653 H659 0.985 . S
C654 C648 1.379 . S
C654 C651 1.363 . S
C654 N652 1.356 . S
C655 C649 1.363 . S
C655 C650 1.379 . S
C655 N653 1.356 . S
N656 C648 1.356 . S
N656 H662 0.984 . S
N656 H663 0.984 . S
N657 C650 1.356 . S
N657 H660 0.984 . S
N657 H661 0.985 . S
H658 N653 0.984 . S
H659 N653 0.985 . S
H660 N657 0.984 . S
H661 N657 0.985 . S
H662 N656 0.984 . S
H663 N656 0.984 . S
H664 N652 0.984 . S
H665 N652 0.985 . S
C666 C667 1.363 . S
C666 C672 1.379 . S
C666 N674 1.356 . S
C667 C666 1.363 . S
C667 C673 1.363 . S
C668 C669 1.363 . S
C668 C673 1.379 . S
C668 N675 1.356 . S
C669 C668 1.363 . S
C669 C672 1.363 . S
N670 C672 1.356 . S
N670 H682 0.984 . S
N670 H683 0.985 . S
N671 C673 1.356 . S
N671 H676 0.984 . S
N671 H677 0.985 . S
C672 C666 1.379 . S
C672 C669 1.363 . S
C672 N670 1.356 . S
C673 C667 1.363 . S
C673 C668 1.379 . S
C673 N671 1.356 . S
N674 C666 1.356 . S
N674 H680 0.984 . S
N674 H681 0.984 . S
N675 C668 1.356 . S
N675 H678 0.984 . S
N675 H679 0.985 . S
H676 N671 0.984 . S
H677 N671 0.985 . S
H678 N675 0.984 . S
H679 N675 0.985 . S
H680 N674 0.984 . S
H681 N674 0.984 . S
H682 N670 0.984 . S
H683 N670 0.985 . S
C684 C685 1.363 . S
C684 C690 1.379 . S
C684 N692 1.356 . S
C685 C684 1.363 . S
C685 C691 1.363 . S
C686 C687 1.363 . S
C686 C691 1.379 . S
C686 N693 1.356 . S
C687 C686 1.363 . S
C687 C690 1.363 . S
N688 C690 1.356 . S
N688 H700 0.984 . S
N688 H701 0.985 . S
N689 C691 1.356 . S
N689 H694 0.984 . S
N689 H695 0.985 . S
C690 C684 1.379 . S
C690 C687 1.363 . S
C690 N688 1.356 . S
C691 C685 1.363 . S
C691 C686 1.379 . S
C691 N689 1.356 . S
N692 C684 1.356 . S
N692 H698 0.984 . S
N692 H699 0.984 . S
N693 C686 1.356 . S
N693 H696 0.984 . S
N693 H697 0.985 . S
H694 N689 0.984 . S
H695 N689 0.985 . S
H696 N693 0.984 . S
H697 N693 0.985 . S
H698 N692 0.984 . S
H699 N692 0.984 . S
H700 N688 0.984 . S
H701 N688 0.985 . S
C702 C703 1.363 . S
C702 C708 1.379 . S
C702 N710 1.356 . S
C703 C702 1.363 . S
C703 C709 1.363 . S
C704 C705 1.363 . S
C704 C709 1.379 . S
C704 N711 1.356 . S
C705 C704 1.363 . S
C705 C708 1.363 . S
N706 C708 1.356 . S
N706 H718 0.984 . S
N706 H719 0.985 . S
N707 C709 1.356 . S
N707 H712 0.984 . S
N707 H713 0.985 . S
C708 C702 1.379 . S
C708 C705 1.363 . S
C708 N706 1.356 . S
C709 C703 1.363 . S
C709 C704 1.379 . S
C709 N707 1.356 . S
N710 C702 1.356 . S
N710 H716 0.984 . S
N710 H717 0.984 . S
N711 C704 1.356 . S
N711 H714 0.984 . S
N711 H715 0.985 . S
H712 N707 0.984 . S
H713 N707 0.985 . S
H714 N711 0.984 . S
H715 N711 0.985 . S
H716 N710 0.984 . S
H717 N710 0.984 . S
H718 N706 0.984 . S
H719 N706 0.985 . S
C720 C721 1.363 . S
C720 C726 1.379 . S
C720 N728 1.356 . S
C721 C720 1.363 . S
C721 C727 1.363 . S
C722 C723 1.363 . S
C722 C727 1.379 . S
C722 N729 1.356 . S
C723 C722 1.363 . S
C723 C726 1.363 . S
N724 C726 1.356 . S
N724 H736 0.984 . S
N724 H737 0.985 . S
N725 C727 1.356 . S
N725 H730 0.984 . S
N725 H731 0.985 . S
C726 C720 1.379 . S
C726 C723 1.363 . S
C726 N724 1.356 . S
C727 C721 1.363 . S
C727 C722 1.379 . S
C727 N725 1.356 . S
N728 C720 1.356 . S
N728 H734 0.984 . S
N728 H735 0.984 . S
N729 C722 1.356 . S
N729 H732 0.984 . S
N729 H733 0.985 . S
H730 N725 0.984 . S
H731 N725 0.985 . S
H732 N729 0.984 . S
H733 N729 0.985 . S
H734 N728 0.984 . S
H735 N728 0.984 . S
H736 N724 0.984 . S
H737 N724 0.985 . S
C738 C739 1.363 . S
C738 C744 1.379 . S
C738 N746 1.356 . S
C739 C738 1.363 . S
C739 C745 1.363 1_455 S
C740 C741 1.363 . S
C740 C745 1.379 . S
C740 N747 1.356 . S
C741 C740 1.363 . S
C741 C744 1.363 1_655 S
N742 C744 1.356 . S
N742 H754 0.984 . S
N742 H755 0.985 1_455 S
N743 C745 1.356 . S
N743 H748 0.984 1_655 S
N743 H749 0.985 . S
C744 C738 1.379 . S
C744 C741 1.363 1_455 S
C744 N742 1.356 . S
C745 C739 1.363 1_655 S
C745 C740 1.379 . S
C745 N743 1.356 . S
N746 C738 1.356 . S
N746 H752 0.984 . S
N746 H753 0.984 . S
N747 C740 1.356 . S
N747 H750 0.984 . S
N747 H751 0.985 . S
H748 N743 0.984 1_455 S
H749 N743 0.985 . S
H750 N747 0.984 . S
H751 N747 0.985 . S
H752 N746 0.984 . S
H753 N746 0.984 . S
H754 N742 0.984 . S
H755 N742 0.985 1_655 S
C756 C757 1.363 . S
C756 C762 1.379 . S
C756 N764 1.356 . S
C757 C756 1.363 . S
C757 C763 1.363 1_565 S
C758 C759 1.363 . S
C758 C763 1.379 . S
C758 N765 1.356 . S
C759 C758 1.363 . S
C759 C762 1.363 1_545 S
N760 C762 1.356 . S
N760 H772 0.984 . S
N760 H773 0.985 1_565 S
N761 C763 1.356 . S
N761 H766 0.984 1_545 S
N761 H767 0.985 . S
C762 C756 1.379 . S
C762 C759 1.363 1_565 S
C762 N760 1.356 . S
C763 C757 1.363 1_545 S
C763 C758 1.379 . S
C763 N761 1.356 . S
N764 C756 1.356 . S
N764 H770 0.984 . S
N764 H771 0.984 . S
N765 C758 1.356 . S
N765 H768 0.984 . S
N765 H769 0.985 . S
H766 N761 0.984 1_565 S
H767 N761 0.985 . S
H768 N765 0.984 . S
H769 N765 0.985 . S
H770 N764 0.984 . S
H771 N764 0.984 . S
H772 N760 0.984 . S
H773 N760 0.985 1_545 S
C774 C775 1.363 . S
C774 C780 1.379 . S
C774 N782 1.356 . S
C775 C774 1.363 . S
C775 C781 1.363 . S
C776 C777 1.363 . S
C776 C781 1.379 . S
C776 N783 1.356 . S
C777 C776 1.363 . S
C777 C780 1.363 . S
N778 C780 1.356 . S
N778 H790 0.984 . S
N778 H791 0.985 . S
N779 C781 1.356 . S
N779 H784 0.984 . S
N779 H785 0.985 . S
C780 C774 1.379 . S
C780 C777 1.363 . S
C780 N778 1.356 . S
C781 C775 1.363 . S
C781 C776 1.379 . S
C781 N779 1.356 . S
N782 C774 1.356 . S
N782 H788 0.984 . S
N782 H789 0.984 . S
N783 C776 1.356 . S
N783 H786 0.984 . S
N783 H787 0.985 . S
H784 N779 0.984 . S
H785 N779 0.985 . S
H786 N783 0.984 . S
H787 N783 0.985 . S
H788 N782 0.984 . S
H789 N782 0.984 . S
H790 N778 0.984 . S
H791 N778 0.985 . S
C792 C793 1.363 . S
C792 C798 1.379 . S
C792 N800 1.356 . S
C793 C792 1.363 . S
C793 C799 1.363 1_455 S
C794 C795 1.363 . S
C794 C799 1.379 . S
C794 N801 1.356 . S
C795 C794 1.363 . S
C795 C798 1.363 1_655 S
N796 C798 1.356 . S
N796 H808 0.984 . S
N796 H809 0.985 1_455 S
N797 C799 1.356 . S
N797 H802 0.984 1_655 S
N797 H803 0.985 . S
C798 C792 1.379 . S
C798 C795 1.363 1_455 S
C798 N796 1.356 . S
C799 C793 1.363 1_655 S
C799 C794 1.379 . S
C799 N797 1.356 . S
N800 C792 1.356 . S
N800 H806 0.984 . S
N800 H807 0.984 . S
N801 C794 1.356 . S
N801 H804 0.984 . S
N801 H805 0.985 . S
H802 N797 0.984 1_455 S
H803 N797 0.985 . S
H804 N801 0.984 . S
H805 N801 0.985 . S
H806 N800 0.984 . S
H807 N800 0.984 . S
H808 N796 0.984 . S
H809 N796 0.985 1_655 S
C810 C811 1.363 1_545 S
C810 C816 1.379 . S
C810 N818 1.356 . S
C811 C810 1.363 1_565 S
C811 C817 1.363 . S
C812 C813 1.363 1_565 S
C812 C817 1.379 . S
C812 N819 1.356 . S
C813 C812 1.363 1_545 S
C813 C816 1.363 . S
N814 C816 1.356 . S
N814 H826 0.984 . S
N814 H827 0.985 . S
N815 C817 1.356 . S
N815 H820 0.984 . S
N815 H821 0.985 . S
C816 C810 1.379 . S
C816 C813 1.363 . S
C816 N814 1.356 . S
C817 C811 1.363 . S
C817 C812 1.379 . S
C817 N815 1.356 . S
N818 C810 1.356 . S
N818 H824 0.984 . S
N818 H825 0.984 1_545 S
N819 C812 1.356 . S
N819 H822 0.984 1_565 S
N819 H823 0.985 . S
H820 N815 0.984 . S
H821 N815 0.985 . S
H822 N819 0.984 1_545 S
H823 N819 0.985 . S
H824 N818 0.984 . S
H825 N818 0.984 1_565 S
H826 N814 0.984 . S
H827 N814 0.985 . S
C828 C829 1.363 1_565 S
C828 C834 1.379 1_455 S
C828 N836 1.356 . S
C829 C828 1.363 1_545 S
C829 C835 1.363 . S
C830 C831 1.363 1_545 S
C830 C835 1.379 1_655 S
C830 N837 1.356 . S
C831 C830 1.363 1_565 S
C831 C834 1.363 . S
N832 C834 1.356 . S
N832 H844 0.984 . S
N832 H845 0.985 . S
N833 C835 1.356 . S
N833 H838 0.984 . S
N833 H839 0.985 . S
C834 C828 1.379 1_655 S
C834 C831 1.363 . S
C834 N832 1.356 . S
C835 C829 1.363 . S
C835 C830 1.379 1_455 S
C835 N833 1.356 . S
N836 C828 1.356 . S
N836 H842 0.984 . S
N836 H843 0.984 . S
N837 C830 1.356 . S
N837 H840 0.984 . S
N837 H841 0.985 . S
H838 N833 0.984 . S
H839 N833 0.985 . S
H840 N837 0.984 . S
H841 N837 0.985 . S
H842 N836 0.984 . S
H843 N836 0.984 . S
H844 N832 0.984 . S
H845 N832 0.985 . S
C846 C847 1.363 . S
C846 C852 1.375 1_445 S
C846 N854 1.356 . S
C847 C846 1.363 . S
C847 C853 1.372 . S
C848 C849 1.363 . S
C848 C853 1.375 1_665 S
C848 N855 1.356 . S
C849 C848 1.363 . S
C849 C852 1.373 . S
N850 C852 1.353 . S
N850 H862 0.984 1_655 S
N850 H863 0.985 . S
N851 C853 1.354 . S
N851 H856 0.984 . S
N851 H857 0.985 1_455 S
C852 C846 1.375 1_665 S
C852 C849 1.373 . S
C852 N850 1.353 . S
C853 C847 1.372 . S
C853 C848 1.375 1_445 S
C853 N851 1.354 . S
N854 C846 1.356 . S
N854 H860 0.984 . S
N854 H861 0.984 . S
N855 C848 1.356 . S
N855 H858 0.984 . S
N855 H859 0.985 . S
H856 N851 0.984 . S
H857 N851 0.985 1_655 S
H858 N855 0.984 . S
H859 N855 0.985 . S
H860 N854 0.984 . S
H861 N854 0.984 . S
H862 N850 0.984 1_455 S
H863 N850 0.985 . S
C864 C865 1.363 1_455 S
C864 C870 1.366 1_545 S
C864 N872 1.356 . S
C865 C864 1.363 1_655 S
C865 C871 1.371 . S
C866 C867 1.363 1_655 S
C866 C871 1.367 1_565 S
C866 N873 1.356 . S
C867 C866 1.363 1_455 S
C867 C870 1.371 . S
N868 C870 1.364 . S
N868 H880 0.984 1_565 S
N868 H881 0.985 . S
N869 C871 1.363 . S
N869 H874 0.984 . S
N869 H875 0.985 1_545 S
C870 C864 1.366 1_565 S
C870 C867 1.371 . S
C870 N868 1.364 . S
C871 C865 1.371 . S
C871 C866 1.367 1_545 S
C871 N869 1.363 . S
N872 C864 1.356 . S
N872 H878 0.984 . S
N872 H879 0.984 . S
N873 C866 1.356 . S
N873 H876 0.984 . S
N873 H877 0.985 . S
H874 N869 0.984 . S
H875 N869 0.985 1_565 S
H876 N873 0.984 . S
H877 N873 0.985 . S
H878 N872 0.984 . S
H879 N872 0.984 . S
H880 N868 0.984 1_545 S
H881 N868 0.985 . S
C882 C883 1.363 . S
C882 C888 1.379 1_565 S
C882 N890 1.356 . S
C883 C882 1.363 . S
C883 C889 1.363 1_655 S
C884 C885 1.363 . S
C884 C889 1.379 1_545 S
C884 N891 1.356 . S
C885 C884 1.363 . S
C885 C888 1.363 1_455 S
N886 C888 1.356 . S
N886 H898 0.984 . S
N886 H899 0.985 . S
N887 C889 1.356 . S
N887 H892 0.984 . S
N887 H893 0.985 . S
C888 C882 1.379 1_545 S
C888 C885 1.363 1_655 S
C888 N886 1.356 . S
C889 C883 1.363 1_455 S
C889 C884 1.379 1_565 S
C889 N887 1.356 . S
N890 C882 1.356 . S
N890 H896 0.984 . S
N890 H897 0.984 . S
N891 C884 1.356 . S
N891 H894 0.984 . S
N891 H895 0.985 . S
H892 N887 0.984 . S
H893 N887 0.985 . S
H894 N891 0.984 . S
H895 N891 0.985 . S
H896 N890 0.984 . S
H897 N890 0.984 . S
H898 N886 0.984 . S
H899 N886 0.985 . S
C900 C901 1.372 . S
C900 C906 1.365 1_655 S
C900 N908 1.365 . S
C901 C900 1.372 . S
C901 C907 1.363 1_545 S
C902 C903 1.373 . S
C902 C907 1.364 1_455 S
C902 N909 1.366 . S
C903 C902 1.373 . S
C903 C906 1.363 1_565 S
N904 C906 1.356 . S
N904 H916 0.984 . S
N904 H917 0.985 . S
N905 C907 1.356 . S
N905 H910 0.984 . S
N905 H911 0.985 . S
C906 C900 1.365 1_455 S
C906 C903 1.363 1_545 S
C906 N904 1.356 . S
C907 C901 1.363 1_565 S
C907 C902 1.364 1_655 S
C907 N905 1.356 . S
N908 C900 1.365 . S
N908 H914 0.984 1_655 S
N908 H915 0.984 . S
N909 C902 1.366 . S
N909 H912 0.984 . S
N909 H913 0.985 1_455 S
H910 N905 0.984 . S
H911 N905 0.985 . S
H912 N909 0.984 . S
H913 N909 0.985 1_655 S
H914 N908 0.984 1_455 S
H915 N908 0.984 . S
H916 N904 0.984 . S
H917 N904 0.985 . S
C918 C919 1.363 . S
C918 C924 1.374 1_445 S
C918 N926 1.356 . S
C919 C918 1.363 . S
C919 C925 1.375 . S
C920 C921 1.363 . S
C920 C925 1.374 1_665 S
C920 N927 1.356 . S
C921 C920 1.363 . S
C921 C924 1.374 . S
N922 C924 1.353 . S
N922 H934 0.984 1_565 S
N922 H935 0.985 . S
N923 C925 1.353 . S
N923 H928 0.984 . S
N923 H929 0.985 1_545 S
C924 C918 1.374 1_665 S
C924 C921 1.374 . S
C924 N922 1.353 . S
C925 C919 1.375 . S
C925 C920 1.374 1_445 S
C925 N923 1.353 . S
N926 C918 1.356 . S
N926 H932 0.984 . S
N926 H933 0.984 . S
N927 C920 1.356 . S
N927 H930 0.984 . S
N927 H931 0.985 . S
H928 N923 0.984 . S
H929 N923 0.985 1_565 S
H930 N927 0.984 . S
H931 N927 0.985 . S
H932 N926 0.984 . S
H933 N926 0.984 . S
H934 N922 0.984 1_545 S
H935 N922 0.985 . S
C397 N14 1.610 . S
C399 N245 1.610 . S
C415 N47 1.610 . S
C417 N278 1.610 . S
C433 N80 1.610 . S
C435 N311 1.610 . S
C451 N344 1.610 . S
C453 N113 1.610 . S
C469 N377 1.610 . S
C471 N146 1.610 . S
C487 N179 1.610 . S
C489 N212 1.610 . S
C505 C127 1.772 . S
C507 C28 1.772 . S
C523 C61 1.772 . S
C525 C160 1.772 . S
C541 C193 1.771 . S
C543 C94 1.771 . S
C559 C325 1.772 . S
C561 C226 1.772 . S
C577 C358 1.771 . S
C579 C259 1.771 . S
C595 C292 1.772 . S
C597 C391 1.772 . S
C613 N269 1.541 . S
C615 N5 1.541 . S
C631 N38 1.541 . S
C633 N302 1.541 . S
C649 N71 1.541 . S
C651 N335 1.541 . S
C667 N104 1.541 . S
C669 N368 1.541 . S
C685 N137 1.541 . S
C687 N203 1.541 . S
C703 N236 1.541 . S
C705 N170 1.541 . S
C721 C116 1.094 . S
C723 C17 1.094 . S
C739 C50 1.094 . S
C741 C149 1.094 . S
C757 C182 1.095 . S
C759 C83 1.095 . S
C775 C215 1.094 . S
C777 C314 1.094 . S
C793 C248 1.095 . S
C795 C347 1.095 . S
C811 C380 1.094 . S
C813 C281 1.094 . S
C829 C8 1.478 . S
C831 C107 1.478 . S
C847 C41 1.479 . S
C849 C140 1.479 . S
C865 C74 1.479 . S
C867 C173 1.479 . S
C883 C206 1.478 . S
C885 C305 1.478 . S
C901 C338 1.479 . S
C903 C239 1.479 . S
C919 C272 1.479 . S
C921 C371 1.479 . S
