# Generated by pormake.
# Topology can, (4)-cn, num edge types: 1
# Building blocks:
#     Node 0, Type 0, BuildingBlock: CEKHIL_clean_sbu_0, # of connection points: 4
#     Node 1, Type 0, BuildingBlock: CEKHIL_clean_sbu_0, # of connection points: 4
#     Node 2, Type 0, BuildingBlock: CEKHIL_clean_sbu_0, # of connection points: 4
#     Node 3, Type 0, BuildingBlock: CEKHIL_clean_sbu_0, # of connection points: 4
#     Node 4, Type 0, BuildingBlock: CEKHIL_clean_sbu_0, # of connection points: 4
#     Node 5, Type 0, BuildingBlock: CEKHIL_clean_sbu_0, # of connection points: 4
#     Node 6, Type 0, BuildingBlock: CEKHIL_clean_sbu_0, # of connection points: 4
#     Node 7, Type 0, BuildingBlock: CEKHIL_clean_sbu_0, # of connection points: 4
#     Node 8, Type 0, BuildingBlock: CEKHIL_clean_sbu_0, # of connection points: 4
#     Node 9, Type 0, BuildingBlock: CEKHIL_clean_sbu_0, # of connection points: 4
#     Node 10, Type 0, BuildingBlock: CEKHIL_clean_sbu_0, # of connection points: 4
#     Node 11, Type 0, BuildingBlock: CEKHIL_clean_sbu_0, # of connection points: 4
#     Edge 12, Type (0, 0), BuildingBlock: EZIPEK_clean_linker_0, # of connection points: 2
#     Edge 13, Type (0, 0), BuildingBlock: EZIPEK_clean_linker_0, # of connection points: 2
#     Edge 14, Type (0, 0), BuildingBlock: EZIPEK_clean_linker_0, # of connection points: 2
#     Edge 15, Type (0, 0), BuildingBlock: EZIPEK_clean_linker_0, # of connection points: 2
#     Edge 16, Type (0, 0), BuildingBlock: EZIPEK_clean_linker_0, # of connection points: 2
#     Edge 17, Type (0, 0), BuildingBlock: EZIPEK_clean_linker_0, # of connection points: 2
#     Edge 18, Type (0, 0), BuildingBlock: EZIPEK_clean_linker_0, # of connection points: 2
#     Edge 19, Type (0, 0), BuildingBlock: EZIPEK_clean_linker_0, # of connection points: 2
#     Edge 20, Type (0, 0), BuildingBlock: EZIPEK_clean_linker_0, # of connection points: 2
#     Edge 21, Type (0, 0), BuildingBlock: EZIPEK_clean_linker_0, # of connection points: 2
#     Edge 22, Type (0, 0), BuildingBlock: EZIPEK_clean_linker_0, # of connection points: 2
#     Edge 23, Type (0, 0), BuildingBlock: EZIPEK_clean_linker_0, # of connection points: 2
#     Edge 24, Type (0, 0), BuildingBlock: EZIPEK_clean_linker_0, # of connection points: 2
#     Edge 25, Type (0, 0), BuildingBlock: EZIPEK_clean_linker_0, # of connection points: 2
#     Edge 26, Type (0, 0), BuildingBlock: EZIPEK_clean_linker_0, # of connection points: 2
#     Edge 27, Type (0, 0), BuildingBlock: EZIPEK_clean_linker_0, # of connection points: 2
#     Edge 28, Type (0, 0), BuildingBlock: EZIPEK_clean_linker_0, # of connection points: 2
#     Edge 29, Type (0, 0), BuildingBlock: EZIPEK_clean_linker_0, # of connection points: 2
#     Edge 30, Type (0, 0), BuildingBlock: EZIPEK_clean_linker_0, # of connection points: 2
#     Edge 31, Type (0, 0), BuildingBlock: EZIPEK_clean_linker_0, # of connection points: 2
#     Edge 32, Type (0, 0), BuildingBlock: EZIPEK_clean_linker_0, # of connection points: 2
#     Edge 33, Type (0, 0), BuildingBlock: EZIPEK_clean_linker_0, # of connection points: 2
#     Edge 34, Type (0, 0), BuildingBlock: EZIPEK_clean_linker_0, # of connection points: 2
#     Edge 35, Type (0, 0), BuildingBlock: EZIPEK_clean_linker_0, # of connection points: 2
# Relax obj value: 0.060
# Max RMSD: 0.043
# Mean RMSD: 0.043
data_MOF--net-can--node1-CEKHIL_clean_sbu_0--edge1-EZIPEK_clean_linker_0
_symmetry_space_group_name_H-M    P1
_symmetry_Int_Tables_number       1
_symmetry_cell_setting            triclinic
loop_
_symmetry_equiv_pos_as_xyz
'x, y, z'
_cell_length_a     39.933799
_cell_length_b     39.954119
_cell_length_c     19.802892
_cell_angle_alpha  90.178874
_cell_angle_beta   89.749366
_cell_angle_gamma 119.95143
loop_
_atom_site_label
_atom_site_type_symbol
_atom_site_fract_x
_atom_site_fract_y
_atom_site_fract_z
_atom_type_partial_charge
Co0 Co 0.07017 0.3892 0.28109 0.0
O1 O 0.08711 0.35138 0.28453 0.0
O2 O 0.12243 0.41139 0.24735 0.0
C3 C 0.04462 0.37817 0.3872 0.0
O4 O 0.0655 0.4374 0.27196 0.0
Co5 Co 0.98413 0.36626 0.29103 0.0
O6 O 1.00322 0.42228 0.27683 0.0
C7 C 0.01297 0.35244 0.16477 0.0
C8 C 0.12003 0.37857 0.26148 0.0
C9 C 0.03906 0.44671 0.26994 0.0
O10 O 0.04803 0.37248 0.18651 0.0
O11 O 0.98344 0.34085 0.20324 0.0
O12 O 0.08153 0.40012 0.37769 0.0
O13 O 0.02485 0.3611 0.33391 0.0
Co14 Co 0.67846 0.06996 0.77258 0.0
O15 O 0.73408 0.09171 0.77731 0.0
O16 O 0.70479 0.12452 0.75119 0.0
C17 C 0.66445 0.03698 0.87168 0.0
O18 O 0.62329 0.06047 0.76667 0.0
Co19 Co 0.62142 0.98296 0.76203 0.0
O20 O 0.58042 0.99725 0.75666 0.0
C21 C 0.66623 0.0231 0.64323 0.0
C22 C 0.73686 0.12468 0.76252 0.0
C23 C 0.58851 0.03229 0.76002 0.0
O24 O 0.6778 0.05575 0.67344 0.0
O25 O 0.64695 0.99048 0.6725 0.0
O26 O 0.67603 0.07368 0.87064 0.0
O27 O 0.66473 0.02188 0.81395 0.0
Co28 Co 0.61231 0.67821 0.28009 0.0
O29 O 0.64888 0.73323 0.28507 0.0
O30 O 0.58799 0.70741 0.25237 0.0
C31 C 0.62636 0.66397 0.38375 0.0
O32 O 0.56471 0.62461 0.27166 0.0
Co33 Co 0.63655 0.6162 0.28239 0.0
O34 O 0.58103 0.57835 0.26657 0.0
C35 C 0.64811 0.66011 0.15848 0.0
C36 C 0.62055 0.73822 0.26627 0.0
C37 C 0.55599 0.58913 0.26558 0.0
O38 O 0.62841 0.67495 0.18332 0.0
O39 O 0.65879 0.64025 0.19332 0.0
O40 O 0.60285 0.67731 0.37733 0.0
O41 O 0.64262 0.66189 0.32852 0.0
Co42 Co 0.94228 0.61507 0.76358 0.0
O43 O 0.9195 0.64802 0.76479 0.0
O44 O 0.88831 0.58604 0.73784 0.0
C45 C 0.97108 0.63354 0.86513 0.0
O46 O 0.95448 0.5706 0.76118 0.0
Co47 Co 0.031 0.64797 0.76506 0.0
O48 O 0.01835 0.59347 0.77207 0.0
C49 C 0.99331 0.6477 0.63732 0.0
C50 C 0.88702 0.61743 0.74945 0.0
C51 C 0.98386 0.56543 0.76695 0.0
O52 O 0.95985 0.62984 0.66634 0.0
O53 O 0.02511 0.65958 0.66902 0.0
O54 O 0.93455 0.60837 0.86056 0.0
O55 O 0.98824 0.64944 0.80896 0.0
Co56 Co 0.33439 0.93801 0.2577 0.0
O57 O 0.27891 0.91521 0.26715 0.0
O58 O 0.30825 0.88446 0.22836 0.0
C59 C 0.34807 0.96554 0.36184 0.0
O60 O 0.39042 0.95038 0.24331 0.0
Co61 Co 0.39023 0.02603 0.26306 0.0
O62 O 0.43136 0.01219 0.27119 0.0
C63 C 0.34863 0.99047 0.13593 0.0
C64 C 0.27622 0.88331 0.2454 0.0
C65 C 0.42486 0.97872 0.25397 0.0
O66 O 0.33337 0.95649 0.16251 0.0
O67 O 0.37034 0.02161 0.16851 0.0
O68 O 0.33826 0.92955 0.35404 0.0
O69 O 0.34705 0.98319 0.308 0.0
Co70 Co 0.39625 0.33008 0.75079 0.0
O71 O 0.36307 0.27463 0.75781 0.0
O72 O 0.42416 0.30402 0.72416 0.0
C73 C 0.37989 0.34332 0.85307 0.0
O74 O 0.44063 0.38578 0.73936 0.0
Co75 Co 0.36483 0.38688 0.75226 0.0
O76 O 0.4199 0.42746 0.76266 0.0
C77 C 0.36058 0.34495 0.62644 0.0
C78 C 0.39277 0.27199 0.73857 0.0
C79 C 0.44696 0.42036 0.74898 0.0
O80 O 0.3792 0.33003 0.65452 0.0
O81 O 0.34987 0.36608 0.65792 0.0
O82 O 0.40591 0.33302 0.84792 0.0
O83 O 0.36294 0.3431 0.79751 0.0
Co84 Co 0.621 0.93941 0.23927 0.0
O85 O 0.6554 0.9184 0.24314 0.0
O86 O 0.5937 0.88681 0.27269 0.0
C87 C 0.63755 0.96363 0.13406 0.0
O88 O 0.57572 0.95008 0.23827 0.0
Co89 Co 0.65304 0.02789 0.22402 0.0
O90 O 0.59777 0.01345 0.22209 0.0
C91 C 0.65699 0.99668 0.3559 0.0
C92 C 0.62558 0.88621 0.26229 0.0
C93 C 0.5701 0.97901 0.23093 0.0
O94 O 0.63611 0.9618 0.33375 0.0
O95 O 0.66972 0.02669 0.31865 0.0
O96 O 0.61324 0.92721 0.14335 0.0
O97 O 0.65383 0.98327 0.18792 0.0
Co98 Co 0.68319 0.61398 0.74419 0.0
O99 O 0.73894 0.64628 0.74387 0.0
O100 O 0.70729 0.58416 0.77017 0.0
C101 C 0.67339 0.63295 0.64271 0.0
O102 O 0.62626 0.57019 0.74542 0.0
Co103 Co 0.62873 0.64859 0.74309 0.0
O104 O 0.58634 0.59441 0.73474 0.0
C105 C 0.66515 0.6468 0.87096 0.0
C106 C 0.74019 0.6154 0.75955 0.0
C107 C 0.59205 0.56585 0.73929 0.0
O108 O 0.68019 0.62845 0.84167 0.0
O109 O 0.64597 0.65958 0.8394 0.0
O110 O 0.68459 0.60764 0.64709 0.0
O111 O 0.67236 0.64891 0.69904 0.0
Co112 Co 0.07746 0.67898 0.22811 0.0
O113 O 0.09774 0.73441 0.22377 0.0
O114 O 0.13099 0.7066 0.25621 0.0
C115 C 0.0488 0.66547 0.12461 0.0
O116 O 0.06968 0.62465 0.23567 0.0
Co117 Co 0.99055 0.61897 0.22615 0.0
O118 O 0.00666 0.57991 0.2423 0.0
C119 C 0.02416 0.66228 0.3501 0.0
C120 C 0.13056 0.73815 0.24276 0.0
C121 C 0.0422 0.58955 0.24229 0.0
O122 O 0.05852 0.67604 0.32509 0.0
O123 O 0.99343 0.64352 0.31521 0.0
O124 O 0.08554 0.67799 0.13056 0.0
O125 O 0.03097 0.66403 0.18009 0.0
Co126 Co 0.39423 0.07093 0.72584 0.0
O127 O 0.36121 0.09334 0.71689 0.0
O128 O 0.42116 0.12422 0.75546 0.0
C129 C 0.38185 0.04361 0.62147 0.0
O130 O 0.4381 0.05952 0.74045 0.0
Co131 Co 0.36327 0.98295 0.71984 0.0
O132 O 0.41865 0.99771 0.71481 0.0
C133 C 0.35764 0.01814 0.84815 0.0
C134 C 0.39038 0.12538 0.73828 0.0
C135 C 0.44492 0.03158 0.73143 0.0
O136 O 0.37477 0.05206 0.82105 0.0
O137 O 0.34874 0.98711 0.81551 0.0
O138 O 0.4072 0.07983 0.6296 0.0
O139 O 0.36274 0.02566 0.675 0.0
Co140 Co 0.32612 0.39149 0.22087 0.0
O141 O 0.2715 0.35346 0.21659 0.0
O142 O 0.29561 0.41318 0.25519 0.0
C143 C 0.34094 0.38121 0.11448 0.0
O144 O 0.37896 0.43967 0.23112 0.0
Co145 Co 0.3891 0.3683 0.21013 0.0
O146 O 0.42593 0.42424 0.22534 0.0
C147 C 0.34649 0.35426 0.33643 0.0
C148 C 0.2654 0.3803 0.24036 0.0
C149 C 0.41467 0.44876 0.23312 0.0
O150 O 0.33139 0.37428 0.31501 0.0
O151 O 0.36444 0.34274 0.29777 0.0
O152 O 0.32588 0.40305 0.12459 0.0
O153 O 0.34351 0.36379 0.16732 0.0
Co154 Co 0.93793 0.32736 0.75068 0.0
O155 O 0.9146 0.27174 0.7436 0.0
O156 O 0.88402 0.30222 0.77757 0.0
C157 C 0.96726 0.33992 0.64817 0.0
O158 O 0.95046 0.38351 0.76227 0.0
Co159 Co 0.02645 0.38274 0.74847 0.0
O160 O 0.01306 0.42416 0.7388 0.0
C161 C 0.98861 0.34178 0.87482 0.0
C162 C 0.8826 0.26981 0.76298 0.0
C163 C 0.97921 0.41783 0.75282 0.0
O164 O 0.95503 0.32711 0.84689 0.0
O165 O 0.02043 0.36238 0.84309 0.0
O166 O 0.93116 0.33036 0.65356 0.0
O167 O 0.98389 0.33937 0.70362 0.0
C168 C 0.98531 0.36499 0.06033 0.0
C169 C 1.00564 0.34796 0.09054 0.0
C170 C 0.00875 0.32114 0.98002 0.0
C171 C 0.99108 0.34056 0.94955 0.0
N172 N 0.96791 0.38584 0.95835 0.0
N173 N 0.03897 0.31191 0.0793 0.0
C174 C 0.98039 0.3634 0.98918 0.0
C175 C 0.01813 0.3267 0.05031 0.0
N176 N 0.97077 0.38312 0.0994 0.0
N177 N 0.01545 0.29651 0.94184 0.0
H178 H 0.04421 0.31331 0.13107 0.0
H179 H 0.05279 0.29997 0.05205 0.0
H180 H 0.00855 0.29174 0.89063 0.0
H181 H 0.02498 0.27859 0.96138 0.0
H182 H 0.9505 0.3902 0.08209 0.0
H183 H 0.97737 0.38985 0.15015 0.0
H184 H 0.96535 0.40752 0.98297 0.0
H185 H 0.96289 0.38519 0.90666 0.0
C186 C 0.69369 0.00941 0.46488 0.0
C187 C 0.66035 1.00363 0.42962 0.0
C188 C 0.63566 0.0187 0.53207 0.0
C189 C 0.66752 0.02163 0.56865 0.0
N190 N 0.72562 0.01769 0.57313 0.0
N191 N 0.59863 1.00087 0.4283 0.0
C192 C 0.69636 0.0166 0.53585 0.0
C193 C 0.63115 0.00793 0.46287 0.0
N194 N 0.72295 0.00863 0.43011 0.0
N195 N 0.60976 0.02642 0.56385 0.0
H196 H 0.59516 0.99503 0.3767 0.0
H197 H 0.57401 0.99865 0.45077 0.0
H198 H 0.61101 0.03242 0.61526 0.0
H199 H 0.58838 0.0293 0.53922 0.0
H200 H 0.74976 0.0164 0.45086 0.0
H201 H 0.72113 1.00211 0.37872 0.0
H202 H 0.74536 0.01017 0.55444 0.0
H203 H 0.72918 0.02469 0.62442 0.0
C204 C 0.63537 0.62164 0.05301 0.0
C205 C 0.65264 0.65859 0.08415 0.0
C206 C 0.68188 0.68859 0.97539 0.0
C207 C 0.66684 0.65122 0.9459 0.0
N208 N 0.63803 0.58231 0.96302 0.0
N209 N 0.69669 0.72703 0.07817 0.0
C210 C 0.6465 0.61783 0.98672 0.0
C211 C 0.67709 0.69214 0.04619 0.0
N212 N 0.60694 0.5901 0.0859 0.0
N213 N 0.70079 0.72063 0.93558 0.0
H214 H 0.69342 0.73037 0.12961 0.0
H215 H 0.71797 0.75207 0.05505 0.0
H216 H 0.70777 0.71922 0.8852 0.0
H217 H 0.70833 0.74835 0.95163 0.0
H218 H 0.59012 0.56337 0.06271 0.0
H219 H 0.59718 0.59157 0.13407 0.0
H220 H 0.62663 0.55775 0.99334 0.0
H221 H 0.64647 0.57788 0.91575 0.0
C222 C 0.99705 0.62329 0.45449 0.0
C223 C 0.01823 0.66041 0.42447 0.0
C224 C 0.02009 0.69014 0.53418 0.0
C225 C 0.9963 0.65272 0.56253 0.0
N226 N 0.95391 0.58429 0.54334 0.0
N227 N 0.04625 0.72932 0.4328 0.0
C228 C 0.98207 0.61954 0.52069 0.0
C229 C 0.02889 0.694 0.46355 0.0
N230 N 0.99263 0.59144 0.42064 0.0
N231 N 0.03417 0.72194 0.57498 0.0
H232 H 0.05369 0.73294 0.3817 0.0
H233 H 0.05122 0.75465 0.4566 0.0
H234 H 0.02547 0.72048 0.62517 0.0
H235 H 0.05532 0.74947 0.55995 0.0
H236 H 0.98154 0.56435 0.44298 0.0
H237 H 1.00395 0.59285 0.37261 0.0
H238 H 0.93993 0.56013 0.51217 0.0
H239 H 0.94109 0.57982 0.59064 0.0
C240 C 0.31952 1.00311 0.95746 0.0
C241 C 0.3549 0.01463 0.92296 0.0
C242 C 0.38123 1.00159 0.02444 0.0
C243 C 0.34781 0.99426 0.06135 0.0
N244 N 0.28604 0.99099 0.0656 0.0
N245 N 0.42233 0.03313 0.92829 0.0
C246 C 0.31708 0.99583 0.02859 0.0
C247 C 0.38666 0.01652 0.95803 0.0
N248 N 0.28829 0.9987 0.92208 0.0
N249 N 0.40713 0.99269 0.05195 0.0
H250 H 0.4277 0.04487 0.87986 0.0
H251 H 0.44727 0.03862 0.95407 0.0
H252 H 0.40288 0.97969 0.09922 0.0
H253 H 0.43023 0.994 0.02501 0.0
H254 H 0.26058 0.98661 0.94243 0.0
H255 H 0.28988 0.00544 0.87086 0.0
H256 H 0.26444 0.9956 0.04646 0.0
H257 H 0.28306 0.98425 0.11696 0.0
C258 C 0.31576 0.32868 0.45091 0.0
C259 C 0.34945 0.34983 0.41061 0.0
C260 C 0.39022 0.36596 0.512 0.0
C261 C 0.35676 0.34337 0.55176 0.0
N262 N 0.28841 0.29925 0.55981 0.0
N263 N 0.41945 0.385 0.40168 0.0
C264 C 0.31967 0.32365 0.52136 0.0
C265 C 0.38682 0.36709 0.4408 0.0
N266 N 0.28012 0.31348 0.42179 0.0
N267 N 0.42513 0.3886 0.54271 0.0
H268 H 0.41955 0.39146 0.35082 0.0
H269 H 0.44681 0.39221 0.41912 0.0
H270 H 0.42954 0.38825 0.59445 0.0
H271 H 0.44934 0.41014 0.51791 0.0
H272 H 0.25436 0.30158 0.44896 0.0
H273 H 0.27626 0.31442 0.36992 0.0
H274 H 0.26096 0.28115 0.54043 0.0
H275 H 0.29061 0.29491 0.61117 0.0
C276 C 0.98495 0.61097 0.97397 0.0
C277 C 0.99179 0.64196 0.93057 0.0
C278 C 0.03842 0.68818 0.01206 0.0
C279 C 0.02933 0.65734 0.05753 0.0
N280 N 0.9891 0.59014 0.08576 0.0
N281 N 0.01841 0.7106 0.91503 0.0
C282 C 1.00099 0.61907 0.03969 0.0
C283 C 0.01702 0.68077 0.95104 0.0
N284 N 0.96468 0.57358 0.9516 0.0
N285 N 0.06697 0.72476 0.02764 0.0
H286 H 1.00167 0.70658 0.87229 0.0
H287 H 0.03303 0.73921 0.93124 0.0
H288 H 0.0808 0.73219 0.07429 0.0
H289 H 0.07845 0.74735 0.99295 0.0
H290 H 0.96243 0.55018 0.97844 0.0
H291 H 0.95386 0.56583 0.90287 0.0
H292 H 0.96464 0.563 0.0802 0.0
H293 H 1.00263 0.59445 0.13168 0.0
C294 C 0.32889 0.99209 0.46032 0.0
C295 C 0.35648 0.98437 0.42939 0.0
C296 C 0.40094 0.01547 0.5244 0.0
C297 C 0.37387 0.02438 0.5542 0.0
N298 N 0.315 0.0269 0.54652 0.0
N299 N 0.41838 0.98788 0.43046 0.0
C300 C 0.33855 0.0141 0.52115 0.0
C301 C 0.39233 0.99565 0.46131 0.0
N302 N 0.29282 0.97697 0.43283 0.0
N303 N 0.43466 0.0255 0.55725 0.0
H304 H 0.41158 0.97064 0.38767 0.0
H305 H 0.44684 0.99879 0.44567 0.0
H306 H 0.44316 0.04284 0.59997 0.0
H307 H 0.45401 0.01638 0.54377 0.0
H308 H 0.26987 0.97769 0.45646 0.0
H309 H 0.2847 0.96071 0.38845 0.0
H310 H 0.29101 0.02428 0.52125 0.0
H311 H 0.32115 0.04313 0.59077 0.0
C312 C 0.39834 0.38536 0.95658 0.0
C313 C 0.36965 0.35388 0.91897 0.0
C314 C 0.32109 0.34403 0.00542 0.0
C315 C 0.35055 0.37325 0.04569 0.0
N316 N 0.41757 0.42038 0.06197 0.0
N317 N 0.30496 0.29935 0.91168 0.0
C318 C 0.38925 0.39347 0.02182 0.0
C319 C 0.33123 0.33232 0.9442 0.0
N320 N 0.43392 0.40866 0.92869 0.0
N321 N 0.28334 0.32771 0.02543 0.0
H322 H 0.31138 0.28932 0.86759 0.0
H323 H 0.27784 0.28001 0.9313 0.0
H324 H 0.27494 0.33469 0.07083 0.0
H325 H 0.26011 0.30952 0.99488 0.0
H326 H 0.4546 0.43487 0.94937 0.0
H327 H 0.44188 0.40329 0.88173 0.0
H328 H 0.44702 0.43224 0.05276 0.0
H329 H 0.41123 0.4296 0.10655 0.0
C330 C 0.99119 0.38217 0.5451 0.0
C331 C 0.98805 0.35043 0.58227 0.0
C332 C 0.02657 0.34039 0.4956 0.0
C333 C 0.02672 0.36993 0.45577 0.0
N334 N 0.0071 0.41733 0.44005 0.0
N335 N 0.99756 0.29545 0.58872 0.0
C336 C 0.0084 0.3903 0.47991 0.0
C337 C 1.00462 0.32864 0.55668 0.0
N338 N 0.97928 0.40572 0.57335 0.0
N339 N 0.04774 0.3238 0.47533 0.0
H340 H 0.98103 0.28541 0.63267 0.0
H341 H 1.00513 0.27599 0.56881 0.0
H342 H 0.06316 0.3308 0.43 0.0
H343 H 0.0525 0.30533 0.50559 0.0
H344 H 0.98517 0.43211 0.55303 0.0
H345 H 0.96596 0.40037 0.62028 0.0
H346 H 0.98962 0.42932 0.44947 0.0
H347 H 0.02255 0.42646 0.39541 0.0
C348 C 0.62084 0.98575 0.955 0.0
C349 C 0.65823 0.0158 0.93654 0.0
C350 C 0.68333 0.00709 0.04416 0.0
C351 C 0.64487 0.98164 0.06623 0.0
N352 N 0.57616 0.95223 0.04572 0.0
N353 N 0.72571 0.05587 0.9642 0.0
C354 C 0.61339 0.9723 0.02245 0.0
C355 C 0.68963 0.02693 0.98164 0.0
N356 N 0.59238 0.96927 0.90799 0.0
N357 N 0.71389 0.01038 0.08048 0.0
H358 H 0.73254 0.06791 0.91602 0.0
H359 H 0.74848 0.06893 0.99832 0.0
H360 H 0.71063 0.99471 0.12439 0.0
H361 H 0.74239 0.02545 0.06354 0.0
H362 H 0.56593 0.94435 0.91672 0.0
H363 H 0.59682 0.97827 0.85836 0.0
H364 H 0.55254 0.9485 0.01761 0.0
H365 H 0.56889 0.94332 0.0956 0.0
C366 C 0.62811 0.61782 0.46858 0.0
C367 C 0.63742 0.65596 0.45111 0.0
C368 C 0.67321 0.67974 0.5575 0.0
C369 C 0.66053 0.64105 0.57752 0.0
N370 N 0.62 0.57254 0.55623 0.0
N371 N 0.66522 0.72309 0.48257 0.0
C372 C 0.63657 0.60991 0.53405 0.0
C373 C 0.65853 0.68681 0.49703 0.0
N374 N 0.61086 0.5888 0.42258 0.0
N375 N 0.70148 0.70986 0.59332 0.0
H376 H 0.65782 0.73043 0.43678 0.0
H377 H 0.67594 0.74545 0.51781 0.0
H378 H 0.71475 0.70616 0.63556 0.0
H379 H 0.71485 0.73845 0.57721 0.0
H380 H 0.60877 0.56188 0.42756 0.0
H381 H 0.6005 0.5927 0.37749 0.0
H382 H 0.59908 0.54897 0.52932 0.0
H383 H 0.6231 0.56488 0.60497 0.0
C384 C 0.04773 0.53623 0.18768 0.0
C385 C 0.0517 0.55832 0.24631 0.0
C386 C 0.06244 0.51355 0.3145 0.0
C387 C 0.05031 0.48764 0.25904 0.0
N388 N 0.03608 0.47512 0.1407 0.0
N389 N 0.06547 0.57048 0.36494 0.0
C390 C 0.04467 0.49941 0.19469 0.0
C391 C 0.0604 0.54799 0.30951 0.0
N392 N 0.04788 0.55108 0.12553 0.0
N393 N 0.0766 0.50553 0.37106 0.0
H394 H 0.06667 0.59713 0.36186 0.0
H395 H 0.06697 0.56217 0.41409 0.0
H396 H 0.08023 0.4815 0.37434 0.0
H397 H 0.08851 0.52448 0.41157 0.0
H398 H 0.04755 0.53777 0.0801 0.0
H399 H 0.05219 0.57888 0.11939 0.0
H400 H 0.02678 0.47944 0.09422 0.0
H401 H 0.03764 0.44985 0.14318 0.0
C402 C 0.48886 0.01592 0.79747 0.0
C403 C 0.4842 0.03782 0.74568 0.0
C404 C 0.55151 0.06251 0.70967 0.0
C405 C 0.55562 0.03988 0.76057 0.0
N406 N 0.5338 0.0077 0.86746 0.0
N407 N 0.51447 0.09066 0.66611 0.0
C408 C 0.52591 0.02041 0.80894 0.0
C409 C 0.51665 0.06408 0.70631 0.0
N410 N 0.45791 0.99056 0.83559 0.0
N411 N 0.58004 0.08115 0.66269 0.0
H412 H 0.48975 0.09298 0.6619 0.0
H413 H 0.53832 0.11296 0.64178 0.0
H414 H 0.60685 0.08282 0.66554 0.0
H415 H 0.57645 0.09333 0.61884 0.0
H416 H 0.45871 0.97047 0.86795 0.0
H417 H 0.43069 0.988 0.8325 0.0
H418 H 0.51446 0.99627 0.9077 0.0
H419 H 0.56154 0.01319 0.87896 0.0
C420 C 0.49615 0.54959 0.19708 0.0
C421 C 0.51491 0.55882 0.2606 0.0
C422 C 0.46162 0.5003 0.31037 0.0
C423 C 0.44454 0.48947 0.24558 0.0
N424 N 0.4375 0.50876 0.13403 0.0
N425 N 0.51096 0.55029 0.3811 0.0
C426 C 0.45922 0.5158 0.19094 0.0
C427 C 0.4961 0.53642 0.31852 0.0
N428 N 0.51427 0.57239 0.14239 0.0
N429 N 0.44493 0.47572 0.3636 0.0
H430 H 0.53516 0.57754 0.3881 0.0
H431 H 0.49763 0.53679 0.42614 0.0
H432 H 0.41769 0.45105 0.36018 0.0
H433 H 0.45804 0.4792 0.41039 0.0
H434 H 0.50456 0.56478 0.09299 0.0
H435 H 0.54016 0.59854 0.14629 0.0
H436 H 0.44521 0.52806 0.09398 0.0
H437 H 0.40959 0.4852 0.13001 0.0
C438 C 0.95586 0.49771 0.71793 0.0
C439 C 0.97807 0.52528 0.76851 0.0
C440 C 0.9972 0.47984 0.81385 0.0
C441 C 0.97435 0.4522 0.76403 0.0
N442 N 0.92299 0.43074 0.68224 0.0
N443 N 0.01294 0.5387 0.87395 0.0
C444 C 0.9506 0.45971 0.7208 0.0
C445 C 0.99668 0.51516 0.81923 0.0
N446 N 0.94214 0.50845 0.66405 0.0
N447 N 0.01983 0.47249 0.85597 0.0
H448 H 0.01419 0.56517 0.87985 0.0
H449 H 0.02238 0.53069 0.91663 0.0
H450 H 0.01828 0.44568 0.85866 0.0
H451 H 0.04142 0.4934 0.8863 0.0
H452 H 0.92979 0.491 0.62182 0.0
H453 H 0.94671 0.53624 0.65798 0.0
H454 H 0.90236 0.43371 0.655 0.0
H455 H 0.9179 0.40254 0.68299 0.0
C456 C 0.46555 0.94833 0.28323 0.0
C457 C 0.45902 0.97359 0.24206 0.0
C458 C 0.5199 0.99239 0.18214 0.0
C459 C 0.52987 0.97295 0.23123 0.0
N460 N 0.513 0.93577 0.33479 0.0
N461 N 0.48233 0.02267 0.15512 0.0
C462 C 0.50273 0.95132 0.28299 0.0
C463 C 0.48685 0.99642 0.19229 0.0
N464 N 0.43658 0.92169 0.32322 0.0
N465 N 0.54137 0.00607 0.12437 0.0
H466 H 0.45794 0.02571 0.15788 0.0
H467 H 0.50411 0.04344 0.12469 0.0
H468 H 0.56544 1.00327 0.11403 0.0
H469 H 0.53294 0.01648 0.08348 0.0
H470 H 0.43846 0.89987 0.34852 0.0
H471 H 0.40928 0.91894 0.32632 0.0
H472 H 0.49618 0.9242 0.37802 0.0
H473 H 0.5397 0.93731 0.33812 0.0
C474 C 0.5508 0.49789 0.78626 0.0
C475 C 0.55717 0.5261 0.7364 0.0
C476 C 0.4925 0.48235 0.68959 0.0
C477 C 0.48665 0.45412 0.73885 0.0
N478 N 0.51491 0.43079 0.8205 0.0
N479 N 0.5371 0.54116 0.63107 0.0
C480 C 0.51739 0.4604 0.78245 0.0
C481 C 0.52888 0.51709 0.68523 0.0
N482 N 0.57497 0.50757 0.84041 0.0
N483 N 0.46304 0.4761 0.647 0.0
H484 H 0.56278 0.56724 0.6259 0.0
H485 H 0.51992 0.5339 0.5881 0.0
H486 H 0.43741 0.44969 0.64352 0.0
H487 H 0.46319 0.49755 0.61705 0.0
H488 H 0.56919 0.48977 0.8823 0.0
H489 H 0.59881 0.53491 0.847 0.0
H490 H 0.53809 0.4328 0.8478 0.0
H491 H 0.4912 0.40294 0.81942 0.0
C492 C 0.17416 0.37329 0.31555 0.0
C493 C 0.15451 0.3737 0.2561 0.0
C494 C 0.20645 0.37583 0.18605 0.0
C495 C 0.22585 0.37492 0.24546 0.0
N496 N 0.22528 0.3653 0.36539 0.0
N497 N 0.14747 0.36769 0.1354 0.0
C498 C 0.20875 0.37133 0.30985 0.0
C499 C 0.16934 0.37262 0.19148 0.0
N500 N 0.16075 0.37661 0.37743 0.0
N501 N 0.22425 0.38148 0.12462 0.0
H502 H 0.1203 0.36543 0.13782 0.0
H503 H 0.15456 0.36259 0.0873 0.0
H504 H 0.2509 0.38303 0.11825 0.0
H505 H 0.21392 0.3871 0.08043 0.0
H506 H 0.17607 0.38119 0.42212 0.0
H507 H 0.13518 0.37727 0.38393 0.0
H508 H 0.21228 0.35829 0.41284 0.0
H509 H 0.2508 0.36416 0.36286 0.0
C510 C 0.83331 0.20924 0.82185 0.0
C511 C 0.8455 0.2325 0.76303 0.0
C512 C 0.78865 0.18305 0.70182 0.0
C513 C 0.77474 0.16135 0.76227 0.0
N514 N 0.78021 0.15712 0.88286 0.0
N515 N 0.83278 0.24447 0.64934 0.0
C516 C 0.7962 0.17523 0.82312 0.0
C517 C 0.82256 0.22023 0.70364 0.0
N518 N 0.85739 0.21945 0.87631 0.0
N519 N 0.77026 0.16746 0.64214 0.0
H520 H 0.8578 0.27148 0.64813 0.0
H521 H 0.81511 0.23918 0.60751 0.0
H522 H 0.74554 0.14026 0.63884 0.0
H523 H 0.78121 0.17987 0.59521 0.0
H524 H 0.85214 0.20155 0.91783 0.0
H525 H 0.88423 0.24474 0.87782 0.0
H526 H 0.79258 0.16801 0.92979 0.0
H527 H 0.75265 0.133 0.88622 0.0
C528 C 0.64029 0.80188 0.21043 0.0
C529 C 0.62401 0.77706 0.26668 0.0
C530 C 0.6145 0.82643 0.32421 0.0
C531 C 0.62672 0.84943 0.26497 0.0
N532 N 0.64509 0.85577 0.14701 0.0
N533 N 0.59198 0.76353 0.37497 0.0
C534 C 0.63833 0.83649 0.20694 0.0
C535 C 0.61005 0.78873 0.32297 0.0
N536 N 0.65766 0.79238 0.1602 0.0
N537 N 0.60869 0.84127 0.38254 0.0
H538 H 0.58951 0.73634 0.37733 0.0
H539 H 0.57711 0.76845 0.41347 0.0
H540 H 0.61246 0.86901 0.38564 0.0
H541 H 0.60369 0.82767 0.42924 0.0
H542 H 0.67403 0.8113 0.12175 0.0
H543 H 0.6583 0.7666 0.15992 0.0
H544 H 0.64929 0.84529 0.10145 0.0
H545 H 0.64291 0.88048 0.14095 0.0
C546 C 0.82388 0.60304 0.69604 0.0
C547 C 0.84957 0.61737 0.7517 0.0
C548 C 0.8044 0.63265 0.81102 0.0
C549 C 0.77734 0.61511 0.75809 0.0
N550 N 0.75885 0.57887 0.65388 0.0
N551 N 0.86045 0.63836 0.86828 0.0
C552 C 0.78629 0.59871 0.70185 0.0
C553 C 0.83892 0.63039 0.81078 0.0
N554 N 0.8361 0.59542 0.63631 0.0
N555 N 0.79718 0.65154 0.86167 0.0
H556 H 0.88504 0.63573 0.8717 0.0
H557 H 0.85186 0.64386 0.91476 0.0
H558 H 0.77141 0.65212 0.86545 0.0
H559 H 0.81779 0.66891 0.89718 0.0
H560 H 0.82037 0.5889 0.59167 0.0
H561 H 0.8637 0.59922 0.6295 0.0
H562 H 0.76201 0.56246 0.6161 0.0
H563 H 0.73158 0.57634 0.65457 0.0
C564 C 0.2183 0.8323 0.18309 0.0
C565 C 0.23843 0.84667 0.2447 0.0
C566 C 0.18522 0.7926 0.30603 0.0
C567 C 0.16681 0.77637 0.24372 0.0
N568 N 0.16841 0.77756 0.12188 0.0
N569 N 0.24374 0.83877 0.36414 0.0
C570 C 0.18393 0.79546 0.18191 0.0
C571 C 0.22256 0.82639 0.30608 0.0
N572 N 0.23158 0.85428 0.12593 0.0
N573 N 0.16644 0.77633 0.36525 0.0
H574 H 0.27082 0.86364 0.36645 0.0
H575 H 0.23591 0.82299 0.40886 0.0
H576 H 0.13916 0.7516 0.36694 0.0
H577 H 0.17628 0.78893 0.41242 0.0
H578 H 0.21597 0.84757 0.08113 0.0
H579 H 0.25699 0.88102 0.12476 0.0
H580 H 0.18177 0.7879 0.07531 0.0
H581 H 0.14363 0.75049 0.11881 0.0
C582 C 0.40255 0.2219 0.79729 0.0
C583 C 0.39169 0.23428 0.73835 0.0
C584 C 0.38176 0.17623 0.67824 0.0
C585 C 0.38961 0.1623 0.73882 0.0
N586 N 0.40046 0.16851 0.85899 0.0
N587 N 0.36519 0.22099 0.62612 0.0
C588 C 0.39819 0.18428 0.79919 0.0
C589 C 0.37943 0.21068 0.6799 0.0
N590 N 0.41767 0.24637 0.85117 0.0
N591 N 0.37871 0.15784 0.61829 0.0
H592 H 0.36422 0.2466 0.62479 0.0
H593 H 0.35165 0.20287 0.58513 0.0
H594 H 0.38125 0.1332 0.61413 0.0
H595 H 0.37724 0.16895 0.57162 0.0
H596 H 0.43023 0.24085 0.89246 0.0
H597 H 0.42042 0.27372 0.85242 0.0
H598 H 0.40256 0.18135 0.90578 0.0
H599 H 0.39658 0.14075 0.86265 0.0
loop_
_geom_bond_atom_site_label_1
_geom_bond_atom_site_label_2
_geom_bond_distance
_geom_bond_site_symmetry_2
_ccdc_geom_bond_type
Co0 O1 2.216 . S
Co0 O2 2.091 . S
Co0 O4 2.004 . S
Co0 O10 2.021 . S
Co0 O12 2.137 . S
Co0 O13 2.244 . S
O1 Co0 2.216 . S
O1 C8 1.247 . S
O2 Co0 2.091 . S
O2 C8 1.261 . S
C3 O12 1.247 . S
C3 O13 1.272 . S
O4 Co0 2.004 . S
O4 C9 1.259 . S
Co5 O6 2.061 1_655 S
Co5 O11 2.052 . S
Co5 O13 2.135 1_655 S
O6 Co5 2.061 1_455 S
O6 C9 1.235 . S
C7 O10 1.238 . S
C7 O11 1.241 1_455 S
C8 O1 1.247 . S
C8 O2 1.261 . S
C9 O4 1.259 . S
C9 O6 1.235 . S
O10 Co0 2.021 . S
O10 C7 1.238 . S
O11 Co5 2.052 . S
O11 C7 1.241 1_655 S
O12 Co0 2.137 . S
O12 C3 1.247 . S
O13 Co0 2.244 . S
O13 C3 1.272 . S
O13 Co5 2.135 1_455 S
Co14 O15 2.216 . S
Co14 O16 2.091 . S
Co14 O18 2.004 . S
Co14 O24 2.021 . S
Co14 O26 2.137 . S
Co14 O27 2.244 . S
O15 Co14 2.216 . S
O15 C22 1.247 . S
O16 Co14 2.091 . S
O16 C22 1.261 . S
C17 O26 1.247 . S
C17 O27 1.272 . S
O18 Co14 2.004 . S
O18 C23 1.259 . S
Co19 O20 2.061 1_565 S
Co19 O25 2.052 . S
Co19 O27 2.135 1_565 S
O20 Co19 2.061 1_545 S
O20 C23 1.235 . S
C21 O24 1.238 . S
C21 O25 1.241 1_545 S
C22 O15 1.247 . S
C22 O16 1.261 . S
C23 O18 1.259 . S
C23 O20 1.235 . S
O24 Co14 2.021 . S
O24 C21 1.238 . S
O25 Co19 2.052 . S
O25 C21 1.241 1_565 S
O26 Co14 2.137 . S
O26 C17 1.247 . S
O27 Co14 2.244 . S
O27 C17 1.272 . S
O27 Co19 2.135 1_545 S
Co28 O29 2.216 . S
Co28 O30 2.091 . S
Co28 O32 2.004 . S
Co28 O38 2.021 . S
Co28 O40 2.137 . S
Co28 O41 2.244 . S
O29 Co28 2.216 . S
O29 C36 1.247 . S
O30 Co28 2.091 . S
O30 C36 1.261 . S
C31 O40 1.247 . S
C31 O41 1.272 . S
O32 Co28 2.004 . S
O32 C37 1.259 . S
Co33 O34 2.061 . S
Co33 O39 2.052 . S
Co33 O41 2.135 . S
O34 Co33 2.061 . S
O34 C37 1.235 . S
C35 O38 1.238 . S
C35 O39 1.241 . S
C36 O29 1.247 . S
C36 O30 1.261 . S
C37 O32 1.259 . S
C37 O34 1.235 . S
O38 Co28 2.021 . S
O38 C35 1.238 . S
O39 Co33 2.052 . S
O39 C35 1.241 . S
O40 Co28 2.137 . S
O40 C31 1.247 . S
O41 Co28 2.244 . S
O41 C31 1.272 . S
O41 Co33 2.135 . S
Co42 O43 2.216 . S
Co42 O44 2.091 . S
Co42 O46 2.004 . S
Co42 O52 2.021 . S
Co42 O54 2.137 . S
Co42 O55 2.244 . S
O43 Co42 2.216 . S
O43 C50 1.247 . S
O44 Co42 2.091 . S
O44 C50 1.261 . S
C45 O54 1.247 . S
C45 O55 1.272 . S
O46 Co42 2.004 . S
O46 C51 1.259 . S
Co47 O48 2.061 1_455 S
Co47 O53 2.052 . S
Co47 O55 2.135 1_455 S
O48 Co47 2.061 1_655 S
O48 C51 1.235 . S
C49 O52 1.238 . S
C49 O53 1.241 1_655 S
C50 O43 1.247 . S
C50 O44 1.261 . S
C51 O46 1.259 . S
C51 O48 1.235 . S
O52 Co42 2.021 . S
O52 C49 1.238 . S
O53 Co47 2.052 . S
O53 C49 1.241 1_455 S
O54 Co42 2.137 . S
O54 C45 1.247 . S
O55 Co42 2.244 . S
O55 C45 1.272 . S
O55 Co47 2.135 1_655 S
Co56 O57 2.216 . S
Co56 O58 2.091 . S
Co56 O60 2.004 . S
Co56 O66 2.021 . S
Co56 O68 2.137 . S
Co56 O69 2.244 . S
O57 Co56 2.216 . S
O57 C64 1.247 . S
O58 Co56 2.091 . S
O58 C64 1.261 . S
C59 O68 1.247 . S
C59 O69 1.272 . S
O60 Co56 2.004 . S
O60 C65 1.259 . S
Co61 O62 2.061 1_545 S
Co61 O67 2.052 . S
Co61 O69 2.135 1_545 S
O62 Co61 2.061 1_565 S
O62 C65 1.235 . S
C63 O66 1.238 . S
C63 O67 1.241 1_565 S
C64 O57 1.247 . S
C64 O58 1.261 . S
C65 O60 1.259 . S
C65 O62 1.235 . S
O66 Co56 2.021 . S
O66 C63 1.238 . S
O67 Co61 2.052 . S
O67 C63 1.241 1_545 S
O68 Co56 2.137 . S
O68 C59 1.247 . S
O69 Co56 2.244 . S
O69 C59 1.272 . S
O69 Co61 2.135 1_565 S
Co70 O71 2.216 . S
Co70 O72 2.091 . S
Co70 O74 2.004 . S
Co70 O80 2.021 . S
Co70 O82 2.137 . S
Co70 O83 2.244 . S
O71 Co70 2.216 . S
O71 C78 1.247 . S
O72 Co70 2.091 . S
O72 C78 1.261 . S
C73 O82 1.247 . S
C73 O83 1.272 . S
O74 Co70 2.004 . S
O74 C79 1.259 . S
Co75 O76 2.061 . S
Co75 O81 2.052 . S
Co75 O83 2.135 . S
O76 Co75 2.061 . S
O76 C79 1.235 . S
C77 O80 1.238 . S
C77 O81 1.241 . S
C78 O71 1.247 . S
C78 O72 1.261 . S
C79 O74 1.259 . S
C79 O76 1.235 . S
O80 Co70 2.021 . S
O80 C77 1.238 . S
O81 Co75 2.052 . S
O81 C77 1.241 . S
O82 Co70 2.137 . S
O82 C73 1.247 . S
O83 Co70 2.244 . S
O83 C73 1.272 . S
O83 Co75 2.135 . S
Co84 O85 2.216 . S
Co84 O86 2.091 . S
Co84 O88 2.004 . S
Co84 O94 2.021 . S
Co84 O96 2.137 . S
Co84 O97 2.244 . S
O85 Co84 2.216 . S
O85 C92 1.247 . S
O86 Co84 2.091 . S
O86 C92 1.261 . S
C87 O96 1.247 . S
C87 O97 1.272 . S
O88 Co84 2.004 . S
O88 C93 1.259 . S
Co89 O90 2.061 1_545 S
Co89 O95 2.052 . S
Co89 O97 2.135 1_545 S
O90 Co89 2.061 1_565 S
O90 C93 1.235 . S
C91 O94 1.238 . S
C91 O95 1.241 1_565 S
C92 O85 1.247 . S
C92 O86 1.261 . S
C93 O88 1.259 . S
C93 O90 1.235 . S
O94 Co84 2.021 . S
O94 C91 1.238 . S
O95 Co89 2.052 . S
O95 C91 1.241 1_545 S
O96 Co84 2.137 . S
O96 C87 1.247 . S
O97 Co84 2.244 . S
O97 C87 1.272 . S
O97 Co89 2.135 1_565 S
Co98 O99 2.216 . S
Co98 O100 2.091 . S
Co98 O102 2.004 . S
Co98 O108 2.021 . S
Co98 O110 2.137 . S
Co98 O111 2.244 . S
O99 Co98 2.216 . S
O99 C106 1.247 . S
O100 Co98 2.091 . S
O100 C106 1.261 . S
C101 O110 1.247 . S
C101 O111 1.272 . S
O102 Co98 2.004 . S
O102 C107 1.259 . S
Co103 O104 2.061 . S
Co103 O109 2.052 . S
Co103 O111 2.135 . S
O104 Co103 2.061 . S
O104 C107 1.235 . S
C105 O108 1.238 . S
C105 O109 1.241 . S
C106 O99 1.247 . S
C106 O100 1.261 . S
C107 O102 1.259 . S
C107 O104 1.235 . S
O108 Co98 2.021 . S
O108 C105 1.238 . S
O109 Co103 2.052 . S
O109 C105 1.241 . S
O110 Co98 2.137 . S
O110 C101 1.247 . S
O111 Co98 2.244 . S
O111 C101 1.272 . S
O111 Co103 2.135 . S
Co112 O113 2.216 . S
Co112 O114 2.091 . S
Co112 O116 2.004 . S
Co112 O122 2.021 . S
Co112 O124 2.137 . S
Co112 O125 2.244 . S
O113 Co112 2.216 . S
O113 C120 1.247 . S
O114 Co112 2.091 . S
O114 C120 1.261 . S
C115 O124 1.247 . S
C115 O125 1.272 . S
O116 Co112 2.004 . S
O116 C121 1.259 . S
Co117 O118 2.061 1_655 S
Co117 O123 2.052 . S
Co117 O125 2.135 1_655 S
O118 Co117 2.061 1_455 S
O118 C121 1.235 . S
C119 O122 1.238 . S
C119 O123 1.241 1_455 S
C120 O113 1.247 . S
C120 O114 1.261 . S
C121 O116 1.259 . S
C121 O118 1.235 . S
O122 Co112 2.021 . S
O122 C119 1.238 . S
O123 Co117 2.052 . S
O123 C119 1.241 1_655 S
O124 Co112 2.137 . S
O124 C115 1.247 . S
O125 Co112 2.244 . S
O125 C115 1.272 . S
O125 Co117 2.135 1_455 S
Co126 O127 2.216 . S
Co126 O128 2.091 . S
Co126 O130 2.004 . S
Co126 O136 2.021 . S
Co126 O138 2.137 . S
Co126 O139 2.244 . S
O127 Co126 2.216 . S
O127 C134 1.247 . S
O128 Co126 2.091 . S
O128 C134 1.261 . S
C129 O138 1.247 . S
C129 O139 1.272 . S
O130 Co126 2.004 . S
O130 C135 1.259 . S
Co131 O132 2.061 1_565 S
Co131 O137 2.052 . S
Co131 O139 2.135 1_565 S
O132 Co131 2.061 1_545 S
O132 C135 1.235 . S
C133 O136 1.238 . S
C133 O137 1.241 1_545 S
C134 O127 1.247 . S
C134 O128 1.261 . S
C135 O130 1.259 . S
C135 O132 1.235 . S
O136 Co126 2.021 . S
O136 C133 1.238 . S
O137 Co131 2.052 . S
O137 C133 1.241 1_565 S
O138 Co126 2.137 . S
O138 C129 1.247 . S
O139 Co126 2.244 . S
O139 C129 1.272 . S
O139 Co131 2.135 1_545 S
Co140 O141 2.216 . S
Co140 O142 2.091 . S
Co140 O144 2.004 . S
Co140 O150 2.021 . S
Co140 O152 2.137 . S
Co140 O153 2.244 . S
O141 Co140 2.216 . S
O141 C148 1.247 . S
O142 Co140 2.091 . S
O142 C148 1.261 . S
C143 O152 1.247 . S
C143 O153 1.272 . S
O144 Co140 2.004 . S
O144 C149 1.259 . S
Co145 O146 2.061 . S
Co145 O151 2.052 . S
Co145 O153 2.135 . S
O146 Co145 2.061 . S
O146 C149 1.235 . S
C147 O150 1.238 . S
C147 O151 1.241 . S
C148 O141 1.247 . S
C148 O142 1.261 . S
C149 O144 1.259 . S
C149 O146 1.235 . S
O150 Co140 2.021 . S
O150 C147 1.238 . S
O151 Co145 2.052 . S
O151 C147 1.241 . S
O152 Co140 2.137 . S
O152 C143 1.247 . S
O153 Co140 2.244 . S
O153 C143 1.272 . S
O153 Co145 2.135 . S
Co154 O155 2.216 . S
Co154 O156 2.091 . S
Co154 O158 2.004 . S
Co154 O164 2.021 . S
Co154 O166 2.137 . S
Co154 O167 2.244 . S
O155 Co154 2.216 . S
O155 C162 1.247 . S
O156 Co154 2.091 . S
O156 C162 1.261 . S
C157 O166 1.247 . S
C157 O167 1.272 . S
O158 Co154 2.004 . S
O158 C163 1.259 . S
Co159 O160 2.061 1_455 S
Co159 O165 2.052 . S
Co159 O167 2.135 1_455 S
O160 Co159 2.061 1_655 S
O160 C163 1.235 . S
C161 O164 1.238 . S
C161 O165 1.241 1_655 S
C162 O155 1.247 . S
C162 O156 1.261 . S
C163 O158 1.259 . S
C163 O160 1.235 . S
O164 Co154 2.021 . S
O164 C161 1.238 . S
O165 Co159 2.052 . S
O165 C161 1.241 1_455 S
O166 Co154 2.137 . S
O166 C157 1.247 . S
O167 Co154 2.244 . S
O167 C157 1.272 . S
O167 Co159 2.135 1_655 S
C168 C169 1.363 1_655 S
C168 C174 1.379 1_554 S
C168 N176 1.356 . S
C169 C168 1.363 1_455 S
C169 C175 1.363 . S
C170 C171 1.363 1_455 S
C170 C175 1.379 1_556 S
C170 N177 1.356 . S
C171 C170 1.363 1_655 S
C171 C174 1.363 . S
N172 C174 1.356 . S
N172 H184 0.984 . S
N172 H185 0.985 . S
N173 C175 1.356 . S
N173 H178 0.984 . S
N173 H179 0.985 . S
C174 C168 1.379 1_556 S
C174 C171 1.363 . S
C174 N172 1.356 . S
C175 C169 1.363 . S
C175 C170 1.379 1_554 S
C175 N173 1.356 . S
N176 C168 1.356 . S
N176 H182 0.984 . S
N176 H183 0.984 1_655 S
N177 C170 1.356 . S
N177 H180 0.984 1_455 S
N177 H181 0.985 . S
H178 N173 0.984 . S
H179 N173 0.985 . S
H180 N177 0.984 1_655 S
H181 N177 0.985 . S
H182 N176 0.984 . S
H183 N176 0.984 1_455 S
H184 N172 0.984 . S
H185 N172 0.985 . S
C186 C187 1.363 1_545 S
C186 C192 1.379 . S
C186 N194 1.356 . S
C187 C186 1.363 1_565 S
C187 C193 1.363 . S
C188 C189 1.363 1_565 S
C188 C193 1.379 . S
C188 N195 1.356 . S
C189 C188 1.363 1_545 S
C189 C192 1.363 . S
N190 C192 1.356 . S
N190 H202 0.984 . S
N190 H203 0.985 . S
N191 C193 1.356 . S
N191 H196 0.984 . S
N191 H197 0.985 . S
C192 C186 1.379 . S
C192 C189 1.363 . S
C192 N190 1.356 . S
C193 C187 1.363 . S
C193 C188 1.379 . S
C193 N191 1.356 . S
N194 C186 1.356 . S
N194 H200 0.984 . S
N194 H201 0.984 . S
N195 C188 1.356 . S
N195 H198 0.984 . S
N195 H199 0.985 . S
H196 N191 0.984 . S
H197 N191 0.985 . S
H198 N195 0.984 . S
H199 N195 0.985 . S
H200 N194 0.984 . S
H201 N194 0.984 . S
H202 N190 0.984 . S
H203 N190 0.985 . S
C204 C205 1.363 . S
C204 C210 1.379 1_554 S
C204 N212 1.356 . S
C205 C204 1.363 . S
C205 C211 1.363 . S
C206 C207 1.363 . S
C206 C211 1.379 1_556 S
C206 N213 1.356 . S
C207 C206 1.363 . S
C207 C210 1.363 . S
N208 C210 1.356 . S
N208 H220 0.984 . S
N208 H221 0.985 . S
N209 C211 1.356 . S
N209 H214 0.984 . S
N209 H215 0.985 . S
C210 C204 1.379 1_556 S
C210 C207 1.363 . S
C210 N208 1.356 . S
C211 C205 1.363 . S
C211 C206 1.379 1_554 S
C211 N209 1.356 . S
N212 C204 1.356 . S
N212 H218 0.984 . S
N212 H219 0.984 . S
N213 C206 1.356 . S
N213 H216 0.984 . S
N213 H217 0.985 . S
H214 N209 0.984 . S
H215 N209 0.985 . S
H216 N213 0.984 . S
H217 N213 0.985 . S
H218 N212 0.984 . S
H219 N212 0.984 . S
H220 N208 0.984 . S
H221 N208 0.985 . S
C222 C223 1.363 1_655 S
C222 C228 1.379 . S
C222 N230 1.356 . S
C223 C222 1.363 1_455 S
C223 C229 1.363 . S
C224 C225 1.363 1_455 S
C224 C229 1.379 . S
C224 N231 1.356 . S
C225 C224 1.363 1_655 S
C225 C228 1.363 . S
N226 C228 1.356 . S
N226 H238 0.984 . S
N226 H239 0.985 . S
N227 C229 1.356 . S
N227 H232 0.984 . S
N227 H233 0.985 . S
C228 C222 1.379 . S
C228 C225 1.363 . S
C228 N226 1.356 . S
C229 C223 1.363 . S
C229 C224 1.379 . S
C229 N227 1.356 . S
N230 C222 1.356 . S
N230 H236 0.984 . S
N230 H237 0.984 . S
N231 C224 1.356 . S
N231 H234 0.984 . S
N231 H235 0.985 . S
H232 N227 0.984 . S
H233 N227 0.985 . S
H234 N231 0.984 . S
H235 N231 0.985 . S
H236 N230 0.984 . S
H237 N230 0.984 . S
H238 N226 0.984 . S
H239 N226 0.985 . S
C240 C241 1.363 1_565 S
C240 C246 1.379 1_556 S
C240 N248 1.356 . S
C241 C240 1.363 1_545 S
C241 C247 1.363 . S
C242 C243 1.363 1_545 S
C242 C247 1.379 1_554 S
C242 N249 1.356 . S
C243 C242 1.363 1_565 S
C243 C246 1.363 . S
N244 C246 1.356 . S
N244 H256 0.984 . S
N244 H257 0.985 . S
N245 C247 1.356 . S
N245 H250 0.984 . S
N245 H251 0.985 . S
C246 C240 1.379 1_554 S
C246 C243 1.363 . S
C246 N244 1.356 . S
C247 C241 1.363 . S
C247 C242 1.379 1_556 S
C247 N245 1.356 . S
N248 C240 1.356 . S
N248 H254 0.984 . S
N248 H255 0.984 . S
N249 C242 1.356 . S
N249 H252 0.984 . S
N249 H253 0.985 . S
H250 N245 0.984 . S
H251 N245 0.985 . S
H252 N249 0.984 . S
H253 N249 0.985 . S
H254 N248 0.984 . S
H255 N248 0.984 . S
H256 N244 0.984 . S
H257 N244 0.985 . S
C258 C259 1.363 . S
C258 C264 1.379 . S
C258 N266 1.356 . S
C259 C258 1.363 . S
C259 C265 1.363 . S
C260 C261 1.363 . S
C260 C265 1.379 . S
C260 N267 1.356 . S
C261 C260 1.363 . S
C261 C264 1.363 . S
N262 C264 1.356 . S
N262 H274 0.984 . S
N262 H275 0.985 . S
N263 C265 1.356 . S
N263 H268 0.984 . S
N263 H269 0.985 . S
C264 C258 1.379 . S
C264 C261 1.363 . S
C264 N262 1.356 . S
C265 C259 1.363 . S
C265 C260 1.379 . S
C265 N263 1.356 . S
N266 C258 1.356 . S
N266 H272 0.984 . S
N266 H273 0.984 . S
N267 C260 1.356 . S
N267 H270 0.984 . S
N267 H271 0.985 . S
H268 N263 0.984 . S
H269 N263 0.985 . S
H270 N267 0.984 . S
H271 N267 0.985 . S
H272 N266 0.984 . S
H273 N266 0.984 . S
H274 N262 0.984 . S
H275 N262 0.985 . S
C276 C277 1.363 . S
C276 C282 1.379 1_556 S
C276 N284 1.356 . S
C277 C276 1.363 . S
C277 C283 1.363 1_655 S
C278 C279 1.363 . S
C278 C283 1.379 1_554 S
C278 N285 1.356 . S
C279 C278 1.363 . S
C279 C282 1.363 1_455 S
N280 C282 1.356 . S
N280 H292 0.984 . S
N280 H293 0.985 . S
N281 C283 1.356 . S
N281 H286 0.984 . S
N281 H287 0.985 . S
C282 C276 1.379 1_554 S
C282 C279 1.363 1_655 S
C282 N280 1.356 . S
C283 C277 1.363 1_455 S
C283 C278 1.379 1_556 S
C283 N281 1.356 . S
N284 C276 1.356 . S
N284 H290 0.984 . S
N284 H291 0.984 . S
N285 C278 1.356 . S
N285 H288 0.984 . S
N285 H289 0.985 . S
H286 N281 0.984 . S
H287 N281 0.985 . S
H288 N285 0.984 . S
H289 N285 0.985 . S
H290 N284 0.984 . S
H291 N284 0.984 . S
H292 N280 0.984 . S
H293 N280 0.985 . S
C294 C295 1.363 . S
C294 C300 1.379 . S
C294 N302 1.356 . S
C295 C294 1.363 . S
C295 C301 1.363 1_565 S
C296 C297 1.363 . S
C296 C301 1.379 . S
C296 N303 1.356 . S
C297 C296 1.363 . S
C297 C300 1.363 1_545 S
N298 C300 1.356 . S
N298 H310 0.984 . S
N298 H311 0.985 . S
N299 C301 1.356 . S
N299 H304 0.984 . S
N299 H305 0.985 . S
C300 C294 1.379 . S
C300 C297 1.363 1_565 S
C300 N298 1.356 . S
C301 C295 1.363 1_545 S
C301 C296 1.379 . S
C301 N299 1.356 . S
N302 C294 1.356 . S
N302 H308 0.984 . S
N302 H309 0.984 . S
N303 C296 1.356 . S
N303 H306 0.984 . S
N303 H307 0.985 . S
H304 N299 0.984 . S
H305 N299 0.985 . S
H306 N303 0.984 . S
H307 N303 0.985 . S
H308 N302 0.984 . S
H309 N302 0.984 . S
H310 N298 0.984 . S
H311 N298 0.985 . S
C312 C313 1.363 . S
C312 C318 1.379 1_556 S
C312 N320 1.356 . S
C313 C312 1.363 . S
C313 C319 1.363 . S
C314 C315 1.363 . S
C314 C319 1.379 1_554 S
C314 N321 1.356 . S
C315 C314 1.363 . S
C315 C318 1.363 . S
N316 C318 1.356 . S
N316 H328 0.984 . S
N316 H329 0.985 . S
N317 C319 1.356 . S
N317 H322 0.984 . S
N317 H323 0.985 . S
C318 C312 1.379 1_554 S
C318 C315 1.363 . S
C318 N316 1.356 . S
C319 C313 1.363 . S
C319 C314 1.379 1_556 S
C319 N317 1.356 . S
N320 C312 1.356 . S
N320 H326 0.984 . S
N320 H327 0.984 . S
N321 C314 1.356 . S
N321 H324 0.984 . S
N321 H325 0.985 . S
H322 N317 0.984 . S
H323 N317 0.985 . S
H324 N321 0.984 . S
H325 N321 0.985 . S
H326 N320 0.984 . S
H327 N320 0.984 . S
H328 N316 0.984 . S
H329 N316 0.985 . S
C330 C331 1.363 . S
C330 C336 1.379 . S
C330 N338 1.356 . S
C331 C330 1.363 . S
C331 C337 1.363 1_655 S
C332 C333 1.363 . S
C332 C337 1.379 . S
C332 N339 1.356 . S
C333 C332 1.363 . S
C333 C336 1.363 1_455 S
N334 C336 1.356 . S
N334 H346 0.984 . S
N334 H347 0.978 1_655 S
N335 C337 1.356 . S
N335 H340 0.978 1_455 S
N335 H341 0.985 . S
C336 C330 1.379 . S
C336 C333 1.363 1_655 S
C336 N334 1.356 . S
C337 C331 1.363 1_455 S
C337 C332 1.379 . S
C337 N335 1.356 . S
N338 C330 1.356 . S
N338 H344 0.984 . S
N338 H345 0.984 . S
N339 C332 1.356 . S
N339 H342 0.984 . S
N339 H343 0.985 . S
H340 N335 0.978 1_655 S
H341 N335 0.985 . S
H342 N339 0.984 . S
H343 N339 0.985 . S
H344 N338 0.984 . S
H345 N338 0.984 . S
H346 N334 0.984 . S
H347 N334 0.978 1_455 S
C348 C349 1.363 1_565 S
C348 C354 1.379 1_556 S
C348 N356 1.356 . S
C349 C348 1.363 1_545 S
C349 C355 1.363 . S
C350 C351 1.363 1_545 S
C350 C355 1.379 1_554 S
C350 N357 1.356 . S
C351 C350 1.363 1_565 S
C351 C354 1.363 . S
N352 C354 1.356 . S
N352 H364 0.984 . S
N352 H365 0.985 . S
N353 C355 1.356 . S
N353 H358 0.984 . S
N353 H359 0.985 . S
C354 C348 1.379 1_554 S
C354 C351 1.363 . S
C354 N352 1.356 . S
C355 C349 1.363 . S
C355 C350 1.379 1_556 S
C355 N353 1.356 . S
N356 C348 1.356 . S
N356 H362 0.984 . S
N356 H363 0.984 . S
N357 C350 1.356 . S
N357 H360 0.984 . S
N357 H361 0.985 . S
H358 N353 0.984 . S
H359 N353 0.985 . S
H360 N357 0.984 . S
H361 N357 0.985 . S
H362 N356 0.984 . S
H363 N356 0.984 . S
H364 N352 0.984 . S
H365 N352 0.985 . S
C366 C367 1.363 . S
C366 C372 1.379 . S
C366 N374 1.356 . S
C367 C366 1.363 . S
C367 C373 1.363 . S
C368 C369 1.363 . S
C368 C373 1.379 . S
C368 N375 1.356 . S
C369 C368 1.363 . S
C369 C372 1.363 . S
N370 C372 1.356 . S
N370 H382 0.984 . S
N370 H383 0.985 . S
N371 C373 1.356 . S
N371 H376 0.984 . S
N371 H377 0.985 . S
C372 C366 1.379 . S
C372 C369 1.363 . S
C372 N370 1.356 . S
C373 C367 1.363 . S
C373 C368 1.379 . S
C373 N371 1.356 . S
N374 C366 1.356 . S
N374 H380 0.984 . S
N374 H381 0.984 . S
N375 C368 1.356 . S
N375 H378 0.984 . S
N375 H379 0.985 . S
H376 N371 0.984 . S
H377 N371 0.985 . S
H378 N375 0.984 . S
H379 N375 0.985 . S
H380 N374 0.984 . S
H381 N374 0.984 . S
H382 N370 0.984 . S
H383 N370 0.985 . S
C384 C385 1.363 . S
C384 C390 1.379 . S
C384 N392 1.356 . S
C385 C384 1.363 . S
C385 C391 1.363 . S
C386 C387 1.363 . S
C386 C391 1.379 . S
C386 N393 1.356 . S
C387 C386 1.363 . S
C387 C390 1.363 . S
N388 C390 1.356 . S
N388 H400 0.984 1_455 S
N388 H401 0.985 . S
N389 C391 1.356 . S
N389 H394 0.984 . S
N389 H395 0.985 . S
C390 C384 1.379 . S
C390 C387 1.363 . S
C390 N388 1.356 . S
C391 C385 1.363 . S
C391 C386 1.379 . S
C391 N389 1.356 . S
N392 C384 1.356 . S
N392 H398 0.984 1_455 S
N392 H399 0.984 . S
N393 C386 1.356 . S
N393 H396 0.984 . S
N393 H397 0.985 . S
H394 N389 0.984 . S
H395 N389 0.985 . S
H396 N393 0.984 . S
H397 N393 0.985 . S
H398 N392 0.984 1_655 S
H399 N392 0.984 . S
H400 N388 0.984 1_655 S
H401 N388 0.985 . S
C402 C403 1.363 . S
C402 C408 1.379 . S
C402 N410 1.356 1_545 S
C403 C402 1.363 . S
C403 C409 1.363 . S
C404 C405 1.363 . S
C404 C409 1.379 . S
C404 N411 1.356 . S
C405 C404 1.363 . S
C405 C408 1.363 . S
N406 C408 1.356 1_565 S
N406 H418 0.984 . S
N406 H419 0.985 . S
N407 C409 1.356 . S
N407 H412 0.984 . S
N407 H413 0.985 . S
C408 C402 1.379 . S
C408 C405 1.363 . S
C408 N406 1.356 1_545 S
C409 C403 1.363 . S
C409 C404 1.379 . S
C409 N407 1.356 . S
N410 C402 1.356 1_565 S
N410 H416 0.984 . S
N410 H417 0.984 . S
N411 C404 1.356 . S
N411 H414 0.984 . S
N411 H415 0.985 . S
H412 N407 0.984 . S
H413 N407 0.985 . S
H414 N411 0.984 . S
H415 N411 0.985 . S
H416 N410 0.984 . S
H417 N410 0.984 . S
H418 N406 0.984 . S
H419 N406 0.985 . S
C420 C421 1.363 . S
C420 C426 1.379 . S
C420 N428 1.356 . S
C421 C420 1.363 . S
C421 C427 1.363 . S
C422 C423 1.363 . S
C422 C427 1.379 . S
C422 N429 1.356 . S
C423 C422 1.363 . S
C423 C426 1.363 . S
N424 C426 1.356 . S
N424 H436 0.984 . S
N424 H437 0.985 . S
N425 C427 1.356 . S
N425 H430 0.984 . S
N425 H431 0.985 . S
C426 C420 1.379 . S
C426 C423 1.363 . S
C426 N424 1.356 . S
C427 C421 1.363 . S
C427 C422 1.379 . S
C427 N425 1.356 . S
N428 C420 1.356 . S
N428 H434 0.984 . S
N428 H435 0.984 . S
N429 C422 1.356 . S
N429 H432 0.984 . S
N429 H433 0.985 . S
H430 N425 0.984 . S
H431 N425 0.985 . S
H432 N429 0.984 . S
H433 N429 0.985 . S
H434 N428 0.984 . S
H435 N428 0.984 . S
H436 N424 0.984 . S
H437 N424 0.985 . S
C438 C439 1.363 . S
C438 C444 1.379 . S
C438 N446 1.356 . S
C439 C438 1.363 . S
C439 C445 1.363 . S
C440 C441 1.363 . S
C440 C445 1.379 . S
C440 N447 1.356 . S
C441 C440 1.363 . S
C441 C444 1.363 . S
N442 C444 1.356 . S
N442 H454 0.984 . S
N442 H455 0.985 . S
N443 C445 1.356 . S
N443 H448 0.984 . S
N443 H449 0.985 1_655 S
C444 C438 1.379 . S
C444 C441 1.363 . S
C444 N442 1.356 . S
C445 C439 1.363 . S
C445 C440 1.379 . S
C445 N443 1.356 . S
N446 C438 1.356 . S
N446 H452 0.984 . S
N446 H453 0.984 . S
N447 C440 1.356 . S
N447 H450 0.984 . S
N447 H451 0.985 1_655 S
H448 N443 0.984 . S
H449 N443 0.985 1_455 S
H450 N447 0.984 . S
H451 N447 0.985 1_455 S
H452 N446 0.984 . S
H453 N446 0.984 . S
H454 N442 0.984 . S
H455 N442 0.985 . S
C456 C457 1.363 . S
C456 C462 1.379 . S
C456 N464 1.356 . S
C457 C456 1.363 . S
C457 C463 1.363 . S
C458 C459 1.363 . S
C458 C463 1.379 . S
C458 N465 1.356 1_565 S
C459 C458 1.363 . S
C459 C462 1.363 . S
N460 C462 1.356 . S
N460 H472 0.984 . S
N460 H473 0.985 . S
N461 C463 1.356 1_545 S
N461 H466 0.984 . S
N461 H467 0.985 . S
C462 C456 1.379 . S
C462 C459 1.363 . S
C462 N460 1.356 . S
C463 C457 1.363 . S
C463 C458 1.379 . S
C463 N461 1.356 1_565 S
N464 C456 1.356 . S
N464 H470 0.984 . S
N464 H471 0.984 . S
N465 C458 1.356 1_545 S
N465 H468 0.984 . S
N465 H469 0.985 . S
H466 N461 0.984 . S
H467 N461 0.985 . S
H468 N465 0.984 . S
H469 N465 0.985 . S
H470 N464 0.984 . S
H471 N464 0.984 . S
H472 N460 0.984 . S
H473 N460 0.985 . S
C474 C475 1.363 . S
C474 C480 1.379 . S
C474 N482 1.356 . S
C475 C474 1.363 . S
C475 C481 1.363 . S
C476 C477 1.363 . S
C476 C481 1.379 . S
C476 N483 1.356 . S
C477 C476 1.363 . S
C477 C480 1.363 . S
N478 C480 1.356 . S
N478 H490 0.984 . S
N478 H491 0.985 . S
N479 C481 1.356 . S
N479 H484 0.984 . S
N479 H485 0.985 . S
C480 C474 1.379 . S
C480 C477 1.363 . S
C480 N478 1.356 . S
C481 C475 1.363 . S
C481 C476 1.379 . S
C481 N479 1.356 . S
N482 C474 1.356 . S
N482 H488 0.984 . S
N482 H489 0.984 . S
N483 C476 1.356 . S
N483 H486 0.984 . S
N483 H487 0.985 . S
H484 N479 0.984 . S
H485 N479 0.985 . S
H486 N483 0.984 . S
H487 N483 0.985 . S
H488 N482 0.984 . S
H489 N482 0.984 . S
H490 N478 0.984 . S
H491 N478 0.985 . S
C492 C493 1.363 . S
C492 C498 1.379 . S
C492 N500 1.356 . S
C493 C492 1.363 . S
C493 C499 1.363 . S
C494 C495 1.363 . S
C494 C499 1.379 . S
C494 N501 1.356 . S
C495 C494 1.363 . S
C495 C498 1.363 . S
N496 C498 1.356 . S
N496 H508 0.984 . S
N496 H509 0.985 . S
N497 C499 1.356 . S
N497 H502 0.984 . S
N497 H503 0.985 . S
C498 C492 1.379 . S
C498 C495 1.363 . S
C498 N496 1.356 . S
C499 C493 1.363 . S
C499 C494 1.379 . S
C499 N497 1.356 . S
N500 C492 1.356 . S
N500 H506 0.984 . S
N500 H507 0.984 . S
N501 C494 1.356 . S
N501 H504 0.984 . S
N501 H505 0.985 . S
H502 N497 0.984 . S
H503 N497 0.985 . S
H504 N501 0.984 . S
H505 N501 0.985 . S
H506 N500 0.984 . S
H507 N500 0.984 . S
H508 N496 0.984 . S
H509 N496 0.985 . S
C510 C511 1.363 . S
C510 C516 1.379 . S
C510 N518 1.356 . S
C511 C510 1.363 . S
C511 C517 1.363 . S
C512 C513 1.363 . S
C512 C517 1.379 . S
C512 N519 1.356 . S
C513 C512 1.363 . S
C513 C516 1.363 . S
N514 C516 1.356 . S
N514 H526 0.984 . S
N514 H527 0.985 . S
N515 C517 1.356 . S
N515 H520 0.984 . S
N515 H521 0.985 . S
C516 C510 1.379 . S
C516 C513 1.363 . S
C516 N514 1.356 . S
C517 C511 1.363 . S
C517 C512 1.379 . S
C517 N515 1.356 . S
N518 C510 1.356 . S
N518 H524 0.984 . S
N518 H525 0.984 . S
N519 C512 1.356 . S
N519 H522 0.984 . S
N519 H523 0.985 . S
H520 N515 0.984 . S
H521 N515 0.985 . S
H522 N519 0.984 . S
H523 N519 0.985 . S
H524 N518 0.984 . S
H525 N518 0.984 . S
H526 N514 0.984 . S
H527 N514 0.985 . S
C528 C529 1.363 . S
C528 C534 1.379 . S
C528 N536 1.356 . S
C529 C528 1.363 . S
C529 C535 1.363 . S
C530 C531 1.363 . S
C530 C535 1.379 . S
C530 N537 1.356 . S
C531 C530 1.363 . S
C531 C534 1.363 . S
N532 C534 1.356 . S
N532 H544 0.984 . S
N532 H545 0.985 . S
N533 C535 1.356 . S
N533 H538 0.984 . S
N533 H539 0.985 . S
C534 C528 1.379 . S
C534 C531 1.363 . S
C534 N532 1.356 . S
C535 C529 1.363 . S
C535 C530 1.379 . S
C535 N533 1.356 . S
N536 C528 1.356 . S
N536 H542 0.984 . S
N536 H543 0.984 . S
N537 C530 1.356 . S
N537 H540 0.984 . S
N537 H541 0.985 . S
H538 N533 0.984 . S
H539 N533 0.985 . S
H540 N537 0.984 . S
H541 N537 0.985 . S
H542 N536 0.984 . S
H543 N536 0.984 . S
H544 N532 0.984 . S
H545 N532 0.985 . S
C546 C547 1.363 . S
C546 C552 1.379 . S
C546 N554 1.356 . S
C547 C546 1.363 . S
C547 C553 1.363 . S
C548 C549 1.363 . S
C548 C553 1.379 . S
C548 N555 1.356 . S
C549 C548 1.363 . S
C549 C552 1.363 . S
N550 C552 1.356 . S
N550 H562 0.984 . S
N550 H563 0.985 . S
N551 C553 1.356 . S
N551 H556 0.984 . S
N551 H557 0.985 . S
C552 C546 1.379 . S
C552 C549 1.363 . S
C552 N550 1.356 . S
C553 C547 1.363 . S
C553 C548 1.379 . S
C553 N551 1.356 . S
N554 C546 1.356 . S
N554 H560 0.984 . S
N554 H561 0.984 . S
N555 C548 1.356 . S
N555 H558 0.984 . S
N555 H559 0.985 . S
H556 N551 0.984 . S
H557 N551 0.985 . S
H558 N555 0.984 . S
H559 N555 0.985 . S
H560 N554 0.984 . S
H561 N554 0.984 . S
H562 N550 0.984 . S
H563 N550 0.985 . S
C564 C565 1.363 . S
C564 C570 1.379 . S
C564 N572 1.356 . S
C565 C564 1.363 . S
C565 C571 1.363 . S
C566 C567 1.363 . S
C566 C571 1.379 . S
C566 N573 1.356 . S
C567 C566 1.363 . S
C567 C570 1.363 . S
N568 C570 1.356 . S
N568 H580 0.984 . S
N568 H581 0.985 . S
N569 C571 1.356 . S
N569 H574 0.984 . S
N569 H575 0.985 . S
C570 C564 1.379 . S
C570 C567 1.363 . S
C570 N568 1.356 . S
C571 C565 1.363 . S
C571 C566 1.379 . S
C571 N569 1.356 . S
N572 C564 1.356 . S
N572 H578 0.984 . S
N572 H579 0.984 . S
N573 C566 1.356 . S
N573 H576 0.984 . S
N573 H577 0.985 . S
H574 N569 0.984 . S
H575 N569 0.985 . S
H576 N573 0.984 . S
H577 N573 0.985 . S
H578 N572 0.984 . S
H579 N572 0.984 . S
H580 N568 0.984 . S
H581 N568 0.985 . S
C582 C583 1.363 . S
C582 C588 1.379 . S
C582 N590 1.356 . S
C583 C582 1.363 . S
C583 C589 1.363 . S
C584 C585 1.363 . S
C584 C589 1.379 . S
C584 N591 1.356 . S
C585 C584 1.363 . S
C585 C588 1.363 . S
N586 C588 1.356 . S
N586 H598 0.984 . S
N586 H599 0.985 . S
N587 C589 1.356 . S
N587 H592 0.984 . S
N587 H593 0.985 . S
C588 C582 1.379 . S
C588 C585 1.363 . S
C588 N586 1.356 . S
C589 C583 1.363 . S
C589 C584 1.379 . S
C589 N587 1.356 . S
N590 C582 1.356 . S
N590 H596 0.984 . S
N590 H597 0.984 . S
N591 C584 1.356 . S
N591 H594 0.984 . S
N591 H595 0.985 . S
H592 N587 0.984 . S
H593 N587 0.985 . S
H594 N591 0.984 . S
H595 N591 0.985 . S
H596 N590 0.984 . S
H597 N590 0.984 . S
H598 N586 0.984 . S
H599 N586 0.985 . S
C169 C7 1.398 . S
C171 C161 1.398 . S
C187 C91 1.398 . S
C189 C21 1.398 . S
C205 C35 1.398 . S
C207 C105 1.398 . S
C223 C119 1.398 . S
C225 C49 1.398 . S
C241 C133 1.398 . S
C243 C63 1.398 . S
C259 C147 1.398 . S
C261 C77 1.398 . S
C277 C45 1.375 . S
C279 C115 1.375 . S
C295 C59 1.375 . S
C297 C129 1.375 . S
C313 C73 1.375 . S
C315 C143 1.375 . S
C331 C157 1.375 . S
C333 C3 1.375 . S
C349 C17 1.375 . S
C351 C87 1.375 . S
C367 C31 1.375 . S
C369 C101 1.375 . S
C385 C121 1.620 . S
C387 C9 1.620 . S
C403 C135 1.620 . S
C405 C23 1.620 . S
C421 C37 1.620 . S
C423 C149 1.620 . S
C439 C51 1.620 . S
C441 C163 1.620 . S
C457 C65 1.620 . S
C459 C93 1.620 . S
C475 C107 1.620 . S
C477 C79 1.620 . S
C493 C8 1.603 . S
C495 C148 1.603 . S
C511 C162 1.603 . S
C513 C22 1.603 . S
C529 C36 1.603 . S
C531 C92 1.603 . S
C547 C50 1.603 . S
C549 C106 1.603 . S
C565 C64 1.603 . S
C567 C120 1.603 . S
C583 C78 1.603 . S
C585 C134 1.603 . S
