# Generated by pormake.
# Topology wio, (6)-cn, num edge types: 1
# Building blocks:
#     Node 0, Type 0, BuildingBlock: INOVEN_clean_sbu_0, # of connection points: 6
#     Node 1, Type 0, BuildingBlock: INOVEN_clean_sbu_0, # of connection points: 6
#     Node 2, Type 0, BuildingBlock: INOVEN_clean_sbu_0, # of connection points: 6
#     Node 3, Type 0, BuildingBlock: INOVEN_clean_sbu_0, # of connection points: 6
#     Node 4, Type 0, BuildingBlock: INOVEN_clean_sbu_0, # of connection points: 6
#     Node 5, Type 0, BuildingBlock: INOVEN_clean_sbu_0, # of connection points: 6
#     Node 6, Type 0, BuildingBlock: INOVEN_clean_sbu_0, # of connection points: 6
#     Node 7, Type 0, BuildingBlock: INOVEN_clean_sbu_0, # of connection points: 6
#     Node 8, Type 0, BuildingBlock: INOVEN_clean_sbu_0, # of connection points: 6
#     Node 9, Type 0, BuildingBlock: INOVEN_clean_sbu_0, # of connection points: 6
#     Node 10, Type 0, BuildingBlock: INOVEN_clean_sbu_0, # of connection points: 6
#     Node 11, Type 0, BuildingBlock: INOVEN_clean_sbu_0, # of connection points: 6
#     Node 12, Type 0, BuildingBlock: INOVEN_clean_sbu_0, # of connection points: 6
#     Node 13, Type 0, BuildingBlock: INOVEN_clean_sbu_0, # of connection points: 6
#     Node 14, Type 0, BuildingBlock: INOVEN_clean_sbu_0, # of connection points: 6
#     Node 15, Type 0, BuildingBlock: INOVEN_clean_sbu_0, # of connection points: 6
#     Node 16, Type 0, BuildingBlock: INOVEN_clean_sbu_0, # of connection points: 6
#     Node 17, Type 0, BuildingBlock: INOVEN_clean_sbu_0, # of connection points: 6
#     Node 18, Type 0, BuildingBlock: INOVEN_clean_sbu_0, # of connection points: 6
#     Node 19, Type 0, BuildingBlock: INOVEN_clean_sbu_0, # of connection points: 6
#     Node 20, Type 0, BuildingBlock: INOVEN_clean_sbu_0, # of connection points: 6
#     Node 21, Type 0, BuildingBlock: INOVEN_clean_sbu_0, # of connection points: 6
#     Node 22, Type 0, BuildingBlock: INOVEN_clean_sbu_0, # of connection points: 6
#     Node 23, Type 0, BuildingBlock: INOVEN_clean_sbu_0, # of connection points: 6
#     Node 24, Type 0, BuildingBlock: INOVEN_clean_sbu_0, # of connection points: 6
#     Node 25, Type 0, BuildingBlock: INOVEN_clean_sbu_0, # of connection points: 6
#     Node 26, Type 0, BuildingBlock: INOVEN_clean_sbu_0, # of connection points: 6
#     Node 27, Type 0, BuildingBlock: INOVEN_clean_sbu_0, # of connection points: 6
#     Node 28, Type 0, BuildingBlock: INOVEN_clean_sbu_0, # of connection points: 6
#     Node 29, Type 0, BuildingBlock: INOVEN_clean_sbu_0, # of connection points: 6
#     Node 30, Type 0, BuildingBlock: INOVEN_clean_sbu_0, # of connection points: 6
#     Node 31, Type 0, BuildingBlock: INOVEN_clean_sbu_0, # of connection points: 6
#     Edge 32, Type (0, 0), BuildingBlock: OJICUG_clean_linker_0, # of connection points: 2
#     Edge 33, Type (0, 0), BuildingBlock: OJICUG_clean_linker_0, # of connection points: 2
#     Edge 34, Type (0, 0), BuildingBlock: OJICUG_clean_linker_0, # of connection points: 2
#     Edge 35, Type (0, 0), BuildingBlock: OJICUG_clean_linker_0, # of connection points: 2
#     Edge 36, Type (0, 0), BuildingBlock: OJICUG_clean_linker_0, # of connection points: 2
#     Edge 37, Type (0, 0), BuildingBlock: OJICUG_clean_linker_0, # of connection points: 2
#     Edge 38, Type (0, 0), BuildingBlock: OJICUG_clean_linker_0, # of connection points: 2
#     Edge 39, Type (0, 0), BuildingBlock: OJICUG_clean_linker_0, # of connection points: 2
#     Edge 40, Type (0, 0), BuildingBlock: OJICUG_clean_linker_0, # of connection points: 2
#     Edge 41, Type (0, 0), BuildingBlock: OJICUG_clean_linker_0, # of connection points: 2
#     Edge 42, Type (0, 0), BuildingBlock: OJICUG_clean_linker_0, # of connection points: 2
#     Edge 43, Type (0, 0), BuildingBlock: OJICUG_clean_linker_0, # of connection points: 2
#     Edge 44, Type (0, 0), BuildingBlock: OJICUG_clean_linker_0, # of connection points: 2
#     Edge 45, Type (0, 0), BuildingBlock: OJICUG_clean_linker_0, # of connection points: 2
#     Edge 46, Type (0, 0), BuildingBlock: OJICUG_clean_linker_0, # of connection points: 2
#     Edge 47, Type (0, 0), BuildingBlock: OJICUG_clean_linker_0, # of connection points: 2
#     Edge 48, Type (0, 0), BuildingBlock: OJICUG_clean_linker_0, # of connection points: 2
#     Edge 49, Type (0, 0), BuildingBlock: OJICUG_clean_linker_0, # of connection points: 2
#     Edge 50, Type (0, 0), BuildingBlock: OJICUG_clean_linker_0, # of connection points: 2
#     Edge 51, Type (0, 0), BuildingBlock: OJICUG_clean_linker_0, # of connection points: 2
#     Edge 52, Type (0, 0), BuildingBlock: OJICUG_clean_linker_0, # of connection points: 2
#     Edge 53, Type (0, 0), BuildingBlock: OJICUG_clean_linker_0, # of connection points: 2
#     Edge 54, Type (0, 0), BuildingBlock: OJICUG_clean_linker_0, # of connection points: 2
#     Edge 55, Type (0, 0), BuildingBlock: OJICUG_clean_linker_0, # of connection points: 2
#     Edge 56, Type (0, 0), BuildingBlock: OJICUG_clean_linker_0, # of connection points: 2
#     Edge 57, Type (0, 0), BuildingBlock: OJICUG_clean_linker_0, # of connection points: 2
#     Edge 58, Type (0, 0), BuildingBlock: OJICUG_clean_linker_0, # of connection points: 2
#     Edge 59, Type (0, 0), BuildingBlock: OJICUG_clean_linker_0, # of connection points: 2
#     Edge 60, Type (0, 0), BuildingBlock: OJICUG_clean_linker_0, # of connection points: 2
#     Edge 61, Type (0, 0), BuildingBlock: OJICUG_clean_linker_0, # of connection points: 2
#     Edge 62, Type (0, 0), BuildingBlock: OJICUG_clean_linker_0, # of connection points: 2
#     Edge 63, Type (0, 0), BuildingBlock: OJICUG_clean_linker_0, # of connection points: 2
#     Edge 64, Type (0, 0), BuildingBlock: OJICUG_clean_linker_0, # of connection points: 2
#     Edge 65, Type (0, 0), BuildingBlock: OJICUG_clean_linker_0, # of connection points: 2
#     Edge 66, Type (0, 0), BuildingBlock: OJICUG_clean_linker_0, # of connection points: 2
#     Edge 67, Type (0, 0), BuildingBlock: OJICUG_clean_linker_0, # of connection points: 2
#     Edge 68, Type (0, 0), BuildingBlock: OJICUG_clean_linker_0, # of connection points: 2
#     Edge 69, Type (0, 0), BuildingBlock: OJICUG_clean_linker_0, # of connection points: 2
#     Edge 70, Type (0, 0), BuildingBlock: OJICUG_clean_linker_0, # of connection points: 2
#     Edge 71, Type (0, 0), BuildingBlock: OJICUG_clean_linker_0, # of connection points: 2
#     Edge 72, Type (0, 0), BuildingBlock: OJICUG_clean_linker_0, # of connection points: 2
#     Edge 73, Type (0, 0), BuildingBlock: OJICUG_clean_linker_0, # of connection points: 2
#     Edge 74, Type (0, 0), BuildingBlock: OJICUG_clean_linker_0, # of connection points: 2
#     Edge 75, Type (0, 0), BuildingBlock: OJICUG_clean_linker_0, # of connection points: 2
#     Edge 76, Type (0, 0), BuildingBlock: OJICUG_clean_linker_0, # of connection points: 2
#     Edge 77, Type (0, 0), BuildingBlock: OJICUG_clean_linker_0, # of connection points: 2
#     Edge 78, Type (0, 0), BuildingBlock: OJICUG_clean_linker_0, # of connection points: 2
#     Edge 79, Type (0, 0), BuildingBlock: OJICUG_clean_linker_0, # of connection points: 2
#     Edge 80, Type (0, 0), BuildingBlock: OJICUG_clean_linker_0, # of connection points: 2
#     Edge 81, Type (0, 0), BuildingBlock: OJICUG_clean_linker_0, # of connection points: 2
#     Edge 82, Type (0, 0), BuildingBlock: OJICUG_clean_linker_0, # of connection points: 2
#     Edge 83, Type (0, 0), BuildingBlock: OJICUG_clean_linker_0, # of connection points: 2
#     Edge 84, Type (0, 0), BuildingBlock: OJICUG_clean_linker_0, # of connection points: 2
#     Edge 85, Type (0, 0), BuildingBlock: OJICUG_clean_linker_0, # of connection points: 2
#     Edge 86, Type (0, 0), BuildingBlock: OJICUG_clean_linker_0, # of connection points: 2
#     Edge 87, Type (0, 0), BuildingBlock: OJICUG_clean_linker_0, # of connection points: 2
#     Edge 88, Type (0, 0), BuildingBlock: OJICUG_clean_linker_0, # of connection points: 2
#     Edge 89, Type (0, 0), BuildingBlock: OJICUG_clean_linker_0, # of connection points: 2
#     Edge 90, Type (0, 0), BuildingBlock: OJICUG_clean_linker_0, # of connection points: 2
#     Edge 91, Type (0, 0), BuildingBlock: OJICUG_clean_linker_0, # of connection points: 2
#     Edge 92, Type (0, 0), BuildingBlock: OJICUG_clean_linker_0, # of connection points: 2
#     Edge 93, Type (0, 0), BuildingBlock: OJICUG_clean_linker_0, # of connection points: 2
#     Edge 94, Type (0, 0), BuildingBlock: OJICUG_clean_linker_0, # of connection points: 2
#     Edge 95, Type (0, 0), BuildingBlock: OJICUG_clean_linker_0, # of connection points: 2
#     Edge 96, Type (0, 0), BuildingBlock: OJICUG_clean_linker_0, # of connection points: 2
#     Edge 97, Type (0, 0), BuildingBlock: OJICUG_clean_linker_0, # of connection points: 2
#     Edge 98, Type (0, 0), BuildingBlock: OJICUG_clean_linker_0, # of connection points: 2
#     Edge 99, Type (0, 0), BuildingBlock: OJICUG_clean_linker_0, # of connection points: 2
#     Edge 100, Type (0, 0), BuildingBlock: OJICUG_clean_linker_0, # of connection points: 2
#     Edge 101, Type (0, 0), BuildingBlock: OJICUG_clean_linker_0, # of connection points: 2
#     Edge 102, Type (0, 0), BuildingBlock: OJICUG_clean_linker_0, # of connection points: 2
#     Edge 103, Type (0, 0), BuildingBlock: OJICUG_clean_linker_0, # of connection points: 2
#     Edge 104, Type (0, 0), BuildingBlock: OJICUG_clean_linker_0, # of connection points: 2
#     Edge 105, Type (0, 0), BuildingBlock: OJICUG_clean_linker_0, # of connection points: 2
#     Edge 106, Type (0, 0), BuildingBlock: OJICUG_clean_linker_0, # of connection points: 2
#     Edge 107, Type (0, 0), BuildingBlock: OJICUG_clean_linker_0, # of connection points: 2
#     Edge 108, Type (0, 0), BuildingBlock: OJICUG_clean_linker_0, # of connection points: 2
#     Edge 109, Type (0, 0), BuildingBlock: OJICUG_clean_linker_0, # of connection points: 2
#     Edge 110, Type (0, 0), BuildingBlock: OJICUG_clean_linker_0, # of connection points: 2
#     Edge 111, Type (0, 0), BuildingBlock: OJICUG_clean_linker_0, # of connection points: 2
#     Edge 112, Type (0, 0), BuildingBlock: OJICUG_clean_linker_0, # of connection points: 2
#     Edge 113, Type (0, 0), BuildingBlock: OJICUG_clean_linker_0, # of connection points: 2
#     Edge 114, Type (0, 0), BuildingBlock: OJICUG_clean_linker_0, # of connection points: 2
#     Edge 115, Type (0, 0), BuildingBlock: OJICUG_clean_linker_0, # of connection points: 2
#     Edge 116, Type (0, 0), BuildingBlock: OJICUG_clean_linker_0, # of connection points: 2
#     Edge 117, Type (0, 0), BuildingBlock: OJICUG_clean_linker_0, # of connection points: 2
#     Edge 118, Type (0, 0), BuildingBlock: OJICUG_clean_linker_0, # of connection points: 2
#     Edge 119, Type (0, 0), BuildingBlock: OJICUG_clean_linker_0, # of connection points: 2
#     Edge 120, Type (0, 0), BuildingBlock: OJICUG_clean_linker_0, # of connection points: 2
#     Edge 121, Type (0, 0), BuildingBlock: OJICUG_clean_linker_0, # of connection points: 2
#     Edge 122, Type (0, 0), BuildingBlock: OJICUG_clean_linker_0, # of connection points: 2
#     Edge 123, Type (0, 0), BuildingBlock: OJICUG_clean_linker_0, # of connection points: 2
#     Edge 124, Type (0, 0), BuildingBlock: OJICUG_clean_linker_0, # of connection points: 2
#     Edge 125, Type (0, 0), BuildingBlock: OJICUG_clean_linker_0, # of connection points: 2
#     Edge 126, Type (0, 0), BuildingBlock: OJICUG_clean_linker_0, # of connection points: 2
#     Edge 127, Type (0, 0), BuildingBlock: OJICUG_clean_linker_0, # of connection points: 2
# Relax obj value: 0.204
# Max RMSD: 0.242
# Mean RMSD: 0.242
data_MOF--net-wio--node1-INOVEN_clean_sbu_0--edge1-OJICUG_clean_linker_0
_symmetry_space_group_name_H-M    P1
_symmetry_Int_Tables_number       1
_symmetry_cell_setting            triclinic
loop_
_symmetry_equiv_pos_as_xyz
'x, y, z'
_cell_length_a     47.560842
_cell_length_b     47.441354
_cell_length_c     42.228671
_cell_angle_alpha  89.987493
_cell_angle_beta   89.949062
_cell_angle_gamma 89.962533
loop_
_atom_site_label
_atom_site_type_symbol
_atom_site_fract_x
_atom_site_fract_y
_atom_site_fract_z
_atom_type_partial_charge
Gd0 Gd 0.16538 0.11973 0.29531 0.0
Gd1 Gd 0.10429 0.13269 0.3031 0.0
C2 C 0.13179 0.14562 0.23424 0.0
C3 C 0.21478 0.10224 0.27936 0.0
C4 C 0.23692 0.10993 0.25655 0.0
C5 C 0.2628 0.12028 0.26768 0.0
C6 C 0.23286 0.10652 0.22384 0.0
C7 C 0.28059 0.12238 0.214 0.0
C8 C 0.25458 0.11259 0.20279 0.0
C9 C 0.28445 0.1267 0.2465 0.0
C10 C 0.15624 0.16814 0.32708 0.0
C11 C 0.13916 0.10298 0.36065 0.0
C12 C 0.05647 0.15123 0.32478 0.0
C13 C 0.04133 0.15326 0.35547 0.0
C14 C 0.0416 0.1311 0.37759 0.0
C15 C 0.02534 0.1774 0.36221 0.0
C16 C 1.00843 0.15647 0.41161 0.0
C17 C 1.00912 0.17902 0.3899 0.0
C18 C 0.02533 0.13268 0.4053 0.0
C19 C 0.11454 0.07927 0.28143 0.0
O20 O 0.15494 0.13457 0.24618 0.0
O21 O 0.1088 0.14868 0.25194 0.0
O22 O 0.21038 0.12026 0.30222 0.0
O23 O 0.19152 0.09133 0.26808 0.0
O24 O 0.17703 0.15116 0.33193 0.0
O25 O 0.142 0.16011 0.30316 0.0
O26 O 0.11779 0.11967 0.35321 0.0
O27 O 0.1576 0.09533 0.33906 0.0
O28 O 0.05997 0.1261 0.31278 0.0
O29 O 0.07862 0.16715 0.3212 0.0
O30 O 0.09344 0.09481 0.27253 0.0
O31 O 0.12837 0.09271 0.3018 0.0
H32 H 0.2664 0.12303 0.29282 0.0
H33 H 0.21312 0.0988 0.21448 0.0
H34 H 0.25121 0.10931 0.17768 0.0
H35 H 0.30445 0.13408 0.25552 0.0
H36 H 0.05383 0.11225 0.3731 0.0
H37 H 0.02493 0.19485 0.34566 0.0
H38 H 0.9968 0.19786 0.39408 0.0
H39 H 0.02519 0.11472 0.42113 0.0
Gd40 Gd 0.15605 0.91443 0.5492 0.0
Gd41 Gd 0.14802 0.85166 0.55304 0.0
C42 C 0.1359 0.88078 0.48503 0.0
C43 C 0.16878 0.96596 0.5357 0.0
C44 C 0.16156 0.98709 0.51145 0.0
C45 C 0.14812 1.01224 0.52055 0.0
C46 C 0.16836 0.98285 0.47945 0.0
C47 C 0.14989 0.02919 0.46644 0.0
C48 C 0.16267 1.00378 0.45719 0.0
C49 C 0.14213 0.0331 0.49814 0.0
C50 C 0.10752 0.89907 0.57687 0.0
C51 C 0.17309 0.88679 0.61386 0.0
C52 C 0.13143 0.80217 0.57245 0.0
C53 C 0.12973 0.7861 0.6026 0.0
C54 C 0.12131 0.75777 0.6021 0.0
C55 C 0.13651 0.79847 0.63185 0.0
C56 C 0.12736 0.75402 0.65952 0.0
C57 C 0.13537 0.78264 0.65994 0.0
C58 C 0.12011 0.74192 0.63015 0.0
C59 C 0.20087 0.86685 0.53423 0.0
O60 O 0.14509 0.90413 0.49861 0.0
O61 O 0.13338 0.857 0.50157 0.0
O62 O 0.14855 0.95908 0.55516 0.0
O63 O 0.18411 0.94435 0.52689 0.0
O64 O 0.12182 0.92109 0.58473 0.0
O65 O 0.1182 0.88714 0.55279 0.0
O66 O 0.16001 0.86383 0.60378 0.0
O67 O 0.17815 0.9081 0.59477 0.0
O68 O 0.15655 0.80716 0.56122 0.0
O69 O 0.11475 0.82391 0.5696 0.0
O70 O 0.18716 0.84507 0.52355 0.0
O71 O 0.18586 0.87904 0.55472 0.0
H72 H 0.14267 1.01594 0.54512 0.0
H73 H 0.17847 0.9636 0.47162 0.0
H74 H 0.16864 1.00031 0.43273 0.0
H75 H 0.13239 0.05262 0.50572 0.0
H76 H 0.11597 0.74772 0.57987 0.0
H77 H 0.14287 0.8203 0.63306 0.0
H78 H 0.14085 0.79285 0.68202 0.0
H79 H 0.11431 0.7199 0.62861 0.0
Gd80 Gd 0.36879 0.90826 0.79323 0.0
Gd81 Gd 0.43134 0.90038 0.80258 0.0
C82 C 0.40595 0.88571 0.73315 0.0
C83 C 0.31946 0.92439 0.77531 0.0
C84 C 0.29662 0.91591 0.75376 0.0
C85 C 0.28342 0.88945 0.75618 0.0
C86 C 0.28692 0.93532 0.73131 0.0
C87 C 0.25057 0.90246 0.7145 0.0
C88 C 0.26427 0.92864 0.71179 0.0
C89 C 0.26058 0.88278 0.73668 0.0
C90 C 0.38162 0.85964 0.8225 0.0
C91 C 0.39291 0.92458 0.86021 0.0
C92 C 0.48073 0.88529 0.82324 0.0
C93 C 0.49625 0.8821 0.85345 0.0
C94 C 0.52458 0.87394 0.85263 0.0
C95 C 0.48383 0.88827 0.88284 0.0
C96 C 0.52843 0.87923 0.91009 0.0
C97 C 0.49974 0.88684 0.91086 0.0
C98 C 0.54047 0.87253 0.88051 0.0
C99 C 0.417 0.95313 0.78195 0.0
O100 O 0.38116 0.89313 0.7445 0.0
O101 O 0.42898 0.88601 0.75099 0.0
O102 O 0.32387 0.90845 0.8001 0.0
O103 O 0.3427 0.93375 0.76229 0.0
O104 O 0.35807 0.87289 0.82613 0.0
O105 O 0.3959 0.87058 0.80023 0.0
O106 O 0.41601 0.91064 0.85244 0.0
O107 O 0.37359 0.93075 0.839 0.0
O108 O 0.47436 0.91098 0.81479 0.0
O109 O 0.46039 0.86747 0.81753 0.0
O110 O 0.43921 0.93926 0.77294 0.0
O111 O 0.4037 0.93811 0.80153 0.0
H112 H 0.29047 0.87402 0.77334 0.0
H113 H 0.29677 0.95581 0.72902 0.0
H114 H 0.25763 0.94402 0.69437 0.0
H115 H 0.25049 0.86246 0.73936 0.0
H116 H 0.53466 0.86925 0.83022 0.0
H117 H 0.462 0.89461 0.88413 0.0
H118 H 0.48958 0.89191 0.9331 0.0
H119 H 0.56253 0.86713 0.87863 0.0
Gd120 Gd 0.36949 0.11772 1.04132 0.0
Gd121 Gd 0.3849 0.17806 0.05678 0.0
C122 C 0.39483 0.15648 0.98463 0.0
C123 C 0.34937 0.07085 1.02012 0.0
C124 C 0.358 0.04744 0.99943 0.0
C125 C 0.38346 0.03291 1.00412 0.0
C126 C 0.33991 0.03887 0.97517 0.0
C127 C 0.37216 1.00107 0.96084 0.0
C128 C 0.34695 1.01604 0.95596 0.0
C129 C 0.39046 1.00989 0.98499 0.0
C130 C 0.42062 0.12299 0.06893 0.0
C131 C 0.35512 0.13832 0.11032 0.0
C132 C 0.40636 0.22231 0.08429 0.0
C133 C 0.40218 0.23971 0.11316 0.0
C134 C 0.37582 0.24192 0.12793 0.0
C135 C 0.42504 0.25449 0.12614 0.0
C136 C 0.39488 0.27507 0.16695 0.0
C137 C 0.42147 0.27192 0.15275 0.0
C138 C 0.3722 0.25943 0.15444 0.0
C139 C 0.33019 0.17149 1.03714 0.0
O140 O 0.38026 0.13404 0.99289 0.0
O141 O 0.40224 0.1759 1.00586 0.0
O142 O 0.36253 0.07315 0.04715 0.0
O143 O 0.34457 0.09518 1.00648 0.0
O144 O 0.40463 0.10109 0.07113 0.0
O145 O 0.41042 0.13993 0.04865 0.0
O146 O 0.37162 0.16032 0.10498 0.0
O147 O 0.3467 0.12213 0.08685 0.0
O148 O 0.38711 0.22363 0.06221 0.0
O149 O 0.41547 0.19667 0.08875 0.0
O150 O 0.34535 0.19382 1.03197 0.0
O151 O 0.34433 0.15496 0.05409 0.0
H152 H 0.39787 0.03916 1.02268 0.0
H153 H 0.32024 0.04983 0.9711 0.0
H154 H 0.33271 1.01034 0.93702 0.0
H155 H 0.40998 0.99881 0.98937 0.0
H156 H 0.35794 0.23041 0.11873 0.0
H157 H 0.44564 0.25294 0.11531 0.0
H158 H 0.43935 0.28373 0.16146 0.0
H159 H 0.35149 0.26096 0.16499 0.0
Gd160 Gd 0.16288 0.91669 0.28889 0.0
Gd161 Gd 0.10181 0.90183 0.27571 0.0
C162 C 0.12483 0.8936 0.3475 0.0
C163 C 0.21049 0.93692 0.30747 0.0
C164 C 0.23371 0.92756 0.32758 0.0
C165 C 0.23016 0.90532 0.34908 0.0
C166 C 0.26004 0.94039 0.32438 0.0
C167 C 0.2789 0.91008 0.36566 0.0
C168 C 0.28249 0.93172 0.34326 0.0
C169 C 0.25261 0.89666 0.36806 0.0
C170 C 0.15625 0.8646 0.264 0.0
C171 C 0.14082 0.92867 0.21956 0.0
C172 C 0.05638 0.88087 0.25064 0.0
C173 C 0.03689 0.8853 0.2234 0.0
C174 C 1.00865 0.89222 0.2292 0.0
C175 C 0.04546 0.88102 0.19177 0.0
C176 C 0.99804 0.89123 0.1725 0.0
C177 C 0.02626 0.8839 0.16665 0.0
C178 C 0.98954 0.89521 0.20418 0.0
C179 C 0.11024 0.95708 0.29261 0.0
O180 O 0.14709 0.90795 0.33813 0.0
O181 O 0.10517 0.88545 0.32696 0.0
O182 O 0.20737 0.92264 0.2813 0.0
O183 O 0.18661 0.94248 0.32168 0.0
O184 O 0.17858 0.87984 0.26121 0.0
O185 O 0.13968 0.87598 0.28386 0.0
O186 O 0.11834 0.91337 0.22649 0.0
O187 O 0.15823 0.93719 0.24185 0.0
O188 O 0.05602 0.89938 0.27363 0.0
O189 O 0.08175 0.87193 0.24429 0.0
O190 O 0.08756 0.94286 0.29883 0.0
O191 O 0.12593 0.94185 0.27592 0.0
H192 H 0.20997 0.89496 0.35148 0.0
H193 H 0.26316 0.95728 0.30746 0.0
H194 H 0.30257 0.94225 0.34069 0.0
H195 H 0.24908 0.88022 0.3854 0.0
H196 H 1.00123 0.89513 0.25324 0.0
H197 H 0.06701 0.87539 0.18634 0.0
H198 H 0.03363 0.88088 0.14262 0.0
H199 H 0.96792 0.90041 0.20973 0.0
Gd200 Gd 0.36839 0.91267 0.5385 0.0
Gd201 Gd 0.3749 0.84971 0.52812 0.0
C202 C 0.39095 0.87421 0.59763 0.0
C203 C 0.35418 0.96282 0.55614 0.0
C204 C 0.36486 0.9857 0.57609 0.0
C205 C 0.38406 0.98058 0.60062 0.0
C206 C 0.35591 1.01329 0.57002 0.0
C207 C 0.38355 0.03044 0.61441 0.0
C208 C 0.36517 0.03548 0.58897 0.0
C209 C 0.39333 1.00282 0.61971 0.0
C210 C 0.41674 0.89866 0.50944 0.0
C211 C 0.35031 0.88945 0.47158 0.0
C212 C 0.38928 0.80105 0.50454 0.0
C213 C 0.38847 0.78636 0.47336 0.0
C214 C 0.36425 0.78676 0.45431 0.0
C215 C 0.41172 0.77038 0.46322 0.0
C216 C 0.38559 0.75333 0.41721 0.0
C217 C 0.41036 0.75413 0.4354 0.0
C218 C 0.3628 0.7704 0.42669 0.0
C219 C 0.32265 0.86499 0.54934 0.0
O220 O 0.38306 0.89919 0.587 0.0
O221 O 0.39074 0.85143 0.57923 0.0
O222 O 0.36882 0.95764 0.5306 0.0
O223 O 0.34544 0.93993 0.57055 0.0
O224 O 0.40409 0.92252 0.50563 0.0
O225 O 0.40519 0.8846 0.53143 0.0
O226 O 0.3636 0.86577 0.47878 0.0
O227 O 0.34497 0.90866 0.49327 0.0
O228 O 0.36524 0.80584 0.51859 0.0
O229 O 0.40676 0.82211 0.5075 0.0
O230 O 0.33578 0.842 0.55735 0.0
O231 O 0.3379 0.87832 0.53003 0.0
H232 H 0.39145 0.95939 0.60538 0.0
H233 H 0.3414 0.01761 0.55084 0.0
H234 H 0.35751 0.05655 0.58412 0.0
H235 H 0.40721 0.9982 0.63936 0.0
H236 H 0.34609 0.79913 0.46119 0.0
H237 H 0.43069 0.76976 0.47738 0.0
H238 H 0.42822 0.74116 0.42898 0.0
H239 H 0.34353 0.77062 0.41305 0.0
Gd240 Gd 0.37303 0.12032 0.78542 0.0
Gd241 Gd 0.43603 0.12769 0.78026 0.0
C242 C 0.40761 0.14222 0.84821 0.0
C243 C 0.32224 0.10609 0.79993 0.0
C244 C 0.30046 0.11325 0.82351 0.0
C245 C 0.27703 0.1295 0.81448 0.0
C246 C 0.30212 0.10306 0.85467 0.0
C247 C 0.25696 0.12446 0.86699 0.0
C248 C 0.28058 0.10862 0.87616 0.0
C249 C 0.25554 0.13526 0.83614 0.0
C250 C 0.38823 0.16869 0.75726 0.0
C251 C 0.40008 0.10339 0.71996 0.0
C252 C 0.48526 0.14317 0.75976 0.0
C253 C 0.50094 0.14358 0.72918 0.0
C254 C 0.5051 0.11897 0.71121 0.0
C255 C 0.51281 0.1689 0.71825 0.0
C256 C 0.53386 0.14482 0.67275 0.0
C257 C 0.52899 0.16955 0.69042 0.0
C258 C 0.52138 0.11957 0.68346 0.0
C259 C 0.42002 0.0749 0.79904 0.0
O260 O 0.38387 0.13327 0.83537 0.0
O261 O 0.43129 0.14337 0.83139 0.0
O262 O 0.32826 0.12562 0.77916 0.0
O263 O 0.34447 0.0923 0.80988 0.0
O264 O 0.36541 0.1551 0.75077 0.0
O265 O 0.40073 0.15776 0.78084 0.0
O266 O 0.42334 0.11618 0.72958 0.0
O267 O 0.37909 0.09844 0.73952 0.0
O268 O 0.48031 0.11867 0.7728 0.0
O269 O 0.46395 0.16043 0.76241 0.0
O270 O 0.44232 0.08799 0.80924 0.0
O271 O 0.40799 0.0904 0.77897 0.0
H272 H 0.27513 0.13742 0.79051 0.0
H273 H 0.31985 0.0905 0.86243 0.0
H274 H 0.28233 0.1004 0.90002 0.0
H275 H 0.23749 0.14744 0.82854 0.0
H276 H 0.4962 0.09909 0.71883 0.0
H277 H 0.50985 0.18824 0.7315 0.0
H278 H 0.53777 0.1895 0.68285 0.0
H279 H 0.52485 0.09995 0.67097 0.0
Gd280 Gd 0.16794 0.119 1.03973 0.0
Gd281 Gd 0.15307 0.17996 1.0255 0.0
C282 C 0.14341 0.15754 0.0973 0.0
C283 C 0.18775 0.07122 0.05889 0.0
C284 C 0.17824 0.04731 0.07798 0.0
C285 C 0.1557 0.05002 0.0992 0.0
C286 C 0.19143 0.02115 0.0742 0.0
C287 C 0.16096 1.00081 0.11442 0.0
C288 C 0.18287 0.99805 0.09224 0.0
C289 C 0.14715 0.02692 0.11735 0.0
C290 C 0.11708 0.12533 1.01167 0.0
C291 C 0.18256 0.14107 0.97107 0.0
C292 C 0.13151 0.22486 0.99957 0.0
C293 C 0.13499 0.24217 0.97061 0.0
C294 C 0.16056 0.2429 0.95401 0.0
C295 C 0.11235 0.2584 0.95947 0.0
C296 C 0.14133 0.2775 0.9168 0.0
C297 C 0.11544 0.27584 0.93282 0.0
C298 C 0.16371 0.26041 0.92746 0.0
C299 C 0.20766 0.1723 0.0451 0.0
O300 O 0.15749 0.13487 0.08855 0.0
O301 O 0.13619 0.17736 0.07646 0.0
O302 O 0.17465 0.07451 1.03201 0.0
O303 O 0.19219 0.09502 0.07381 0.0
O304 O 0.13262 0.10308 1.0098 0.0
O305 O 0.1274 0.14184 1.0323 0.0
O306 O 0.16639 0.16324 0.97689 0.0
O307 O 0.19069 0.12422 0.99414 0.0
O308 O 0.15177 0.22556 1.02048 0.0
O309 O 0.12152 0.19951 0.9955 0.0
O310 O 0.19277 0.19475 0.0507 0.0
O311 O 0.19335 0.15623 1.0278 0.0
H312 H 0.14507 0.07007 0.10207 0.0
H313 H 0.20858 0.01866 0.05751 0.0
H314 H 0.19373 0.97815 0.08926 0.0
H315 H 0.13048 0.02982 0.13455 0.0
H316 H 0.17821 0.23025 0.96184 0.0
H317 H 0.09235 0.258 0.97177 0.0
H318 H 0.09786 0.28882 0.92553 0.0
H319 H 0.18384 0.26082 0.91547 0.0
Gd320 Gd 0.92634 0.90744 0.78336 0.0
Gd321 Gd 0.86537 0.91897 0.79557 0.0
C322 C 0.88856 0.93841 0.72953 0.0
C323 C 0.97361 0.8904 0.75859 0.0
C324 C 0.98836 0.88942 0.72747 0.0
C325 C 0.9946 0.91409 0.7104 0.0
C326 C 0.99803 0.86349 0.71559 0.0
C327 C 0.02128 0.88701 0.67114 0.0
C328 C 1.01421 0.86226 0.68779 0.0
C329 C 1.01085 0.91291 0.68269 0.0
C330 C 0.91635 0.96037 0.80709 0.0
C331 C 0.90221 0.89104 0.85297 0.0
C332 C 0.81705 0.9361 0.81561 0.0
C333 C 0.7937 0.9247 0.83432 0.0
C334 C 0.78716 0.89583 0.83381 0.0
C335 C 0.77736 0.94312 0.85246 0.0
C336 C 0.74772 0.90405 0.86935 0.0
C337 C 0.75466 0.93292 0.86991 0.0
C338 C 0.76428 0.88559 0.85114 0.0
C339 C 0.87352 0.87121 0.76215 0.0
O340 O 0.90998 0.92112 0.73469 0.0
O341 O 0.87167 0.94557 0.75292 0.0
O342 O 0.97022 0.91498 0.77198 0.0
O343 O 0.95173 0.87413 0.76224 0.0
O344 O 0.93822 0.94506 0.81388 0.0
O345 O 0.90151 0.94686 0.78774 0.0
O346 O 0.87804 0.90142 0.84299 0.0
O347 O 0.92459 0.88999 0.83405 0.0
O348 O 0.82096 0.92448 0.78789 0.0
O349 O 0.84051 0.94112 0.83084 0.0
O350 O 0.8516 0.8872 0.76012 0.0
O351 O 0.88907 0.87935 0.78492 0.0
H352 H 0.98753 0.93446 0.71883 0.0
H353 H 0.99354 0.84411 0.72821 0.0
H354 H 0.02141 0.84189 0.67955 0.0
H355 H 0.0161 0.93253 0.67101 0.0
H356 H 0.79966 0.88125 0.81995 0.0
H357 H 0.78223 0.96542 0.85323 0.0
H358 H 0.74292 0.94764 0.88439 0.0
H359 H 0.75951 0.86329 0.85019 0.0
Gd360 Gd 0.88342 0.18584 0.52979 0.0
Gd361 Gd 0.87588 0.12283 0.53413 0.0
C362 C 0.85895 0.15007 0.46868 0.0
C363 C 0.90084 0.23416 0.50811 0.0
C364 C 0.89793 0.25089 0.47844 0.0
C365 C 0.87248 0.2519 0.4616 0.0
C366 C 0.92101 0.26623 0.46676 0.0
C367 C 0.89275 0.2849 0.42315 0.0
C368 C 0.91851 0.28297 0.43941 0.0
C369 C 0.86991 0.26874 0.4344 0.0
C370 C 0.83006 0.17059 0.5465 0.0
C371 C 0.89324 0.15753 0.59859 0.0
C372 C 0.86434 0.07081 0.54683 0.0
C373 C 0.86848 0.05055 0.57275 0.0
C374 C 0.88005 0.02399 0.56597 0.0
C375 C 0.86145 0.05735 0.6041 0.0
C376 C 0.87666 1.01085 0.62137 0.0
C377 C 0.86545 0.03763 0.62818 0.0
C378 C 0.88426 1.0043 0.59012 0.0
C379 C 0.92495 0.13907 0.50793 0.0
O380 O 0.86962 0.17405 0.47947 0.0
O381 O 0.85581 0.12791 0.48711 0.0
O382 O 0.87854 0.23131 0.52605 0.0
O383 O 0.9154 0.21089 0.50603 0.0
O384 O 0.84292 0.19311 0.55662 0.0
O385 O 0.84597 0.15792 0.52725 0.0
O386 O 0.88301 0.13446 0.58532 0.0
O387 O 0.8982 0.18053 0.58133 0.0
O388 O 0.88719 0.07873 0.53217 0.0
O389 O 0.84656 0.09153 0.55155 0.0
O390 O 0.91055 0.11752 0.49875 0.0
O391 O 0.91335 0.15056 0.53175 0.0
H392 H 0.85445 0.23994 0.46966 0.0
H393 H 0.94095 0.26564 0.47913 0.0
H394 H 0.93647 0.2952 0.43168 0.0
H395 H 0.84986 0.26931 0.42228 0.0
H396 H 0.88572 0.01843 0.5419 0.0
H397 H 0.85278 0.07779 0.61 0.0
H398 H 0.85977 0.04332 0.6522 0.0
H399 H 0.8928 0.98378 0.58427 0.0
Gd400 Gd 0.60561 0.13059 0.27464 0.0
Gd401 Gd 0.666 0.11621 0.29079 0.0
C402 C 0.64515 0.09835 0.22247 0.0
C403 C 0.56145 0.15146 0.2464 0.0
C404 C 0.54375 0.14722 0.2178 0.0
C405 C 0.54095 0.12071 0.20337 0.0
C406 C 0.52919 0.17025 0.20478 0.0
C407 C 0.50786 0.1401 0.16445 0.0
C408 C 0.51151 0.16679 0.17843 0.0
C409 C 0.52319 0.11719 0.17707 0.0
C410 C 0.61246 0.07665 0.29677 0.0
C411 C 0.6269 0.14335 0.34643 0.0
C412 C 0.71303 0.09775 0.31323 0.0
C413 C 0.73596 0.10832 0.33324 0.0
C414 C 0.74443 0.13668 0.33215 0.0
C415 C 0.75013 0.0895 0.35309 0.0
C416 C 0.7817 0.12699 0.3701 0.0
C417 C 0.77269 0.09872 0.37143 0.0
C418 C 0.76717 0.14593 0.35039 0.0
C419 C 0.66017 0.16637 0.26093 0.0
O420 O 0.62301 0.11482 0.22727 0.0
O421 O 0.66208 0.09159 0.24602 0.0
O422 O 0.56015 0.13248 0.26885 0.0
O423 O 0.58705 0.1604 0.24161 0.0
O424 O 0.59002 0.09186 0.30099 0.0
O425 O 0.62907 0.09029 0.27941 0.0
O426 O 0.6499 0.1294 0.33877 0.0
O427 O 0.60708 0.149 0.32503 0.0
O428 O 0.71057 0.10956 0.28541 0.0
O429 O 0.68882 0.09322 0.32713 0.0
O430 O 0.68211 0.15039 0.2592 0.0
O431 O 0.64345 0.15672 0.28174 0.0
H432 H 0.55223 0.10266 0.21264 0.0
H433 H 0.53114 0.19096 0.21536 0.0
H434 H 0.49997 0.18487 0.1697 0.0
H435 H 0.52135 0.09639 0.16672 0.0
H436 H 0.73365 0.15161 0.317 0.0
H437 H 0.74378 0.06759 0.35436 0.0
H438 H 0.78282 0.08371 0.38701 0.0
H439 H 0.77355 0.1678 0.3488 0.0
Gd440 Gd 0.64966 0.84693 1.0319 0.0
Gd441 Gd 0.65986 0.91003 1.03449 0.0
C442 C 0.67366 0.88037 0.96962 0.0
C443 C 0.63306 0.79727 1.01363 0.0
C444 C 0.63388 0.78037 0.98375 0.0
C445 C 0.65738 0.76355 0.9765 0.0
C446 C 0.61088 0.77999 0.96271 0.0
C447 C 0.63517 0.74674 0.92779 0.0
C448 C 0.6115 0.76337 0.93512 0.0
C449 C 0.65804 0.74709 0.94898 0.0
C450 C 0.7032 0.86124 0.04873 0.0
C451 C 0.63942 0.87751 0.09922 0.0
C452 C 0.67681 0.96061 0.04712 0.0
C453 C 0.67079 0.98283 0.07026 0.0
C454 C 0.64753 0.98094 0.09061 0.0
C455 C 0.68847 1.00636 0.07186 0.0
C456 C 0.66025 0.02576 0.11471 0.0
C457 C 0.68329 0.02765 0.09393 0.0
C458 C 0.64224 1.00232 0.11263 0.0
C459 C 0.61 0.89611 1.00879 0.0
O460 O 0.66063 0.85771 0.98059 0.0
O461 O 0.67999 0.90183 0.98804 0.0
O462 O 0.65695 0.80187 1.02803 0.0
O463 O 0.61657 0.81932 1.01438 0.0
O464 O 0.68945 0.83982 0.06013 0.0
O465 O 0.68802 0.87349 1.02848 0.0
O466 O 0.64968 0.90026 0.08537 0.0
O467 O 0.63483 0.85395 0.08293 0.0
O468 O 0.65661 0.95497 1.02716 0.0
O469 O 0.68926 0.93797 0.05801 0.0
O470 O 0.62409 0.91845 1.0014 0.0
O471 O 0.6213 0.88367 1.03222 0.0
H472 H 0.67533 0.76286 0.99226 0.0
H473 H 0.59229 0.79246 0.96762 0.0
H474 H 0.59353 0.76374 0.91939 0.0
H475 H 0.6764 0.73413 0.94465 0.0
H476 H 0.63369 0.96283 0.08966 0.0
H477 H 0.70642 1.00816 0.05616 0.0
H478 H 0.69742 0.04553 0.09489 0.0
H479 H 0.62458 1.00012 0.12866 0.0
Gd480 Gd 0.93362 0.1363 0.80651 0.0
Gd481 Gd 0.8707 0.12661 0.80086 0.0
C482 C 0.89779 0.11036 0.86672 0.0
C483 C 0.98116 0.15511 0.82854 0.0
C484 C 0.99975 0.15164 0.85673 0.0
C485 C 0.0284 0.14585 0.85218 0.0
C486 C 0.98984 0.15514 0.88799 0.0
C487 C 0.03688 0.14624 0.90939 0.0
C488 C 1.00822 0.15255 0.91399 0.0
C489 C 0.04666 0.14317 0.87804 0.0
C490 C 0.92014 0.08216 0.79016 0.0
C491 C 0.90557 0.14564 0.73729 0.0
C492 C 0.81953 0.11334 0.78681 0.0
C493 C 0.79916 0.11908 0.76134 0.0
C494 C 0.77343 0.13207 0.76882 0.0
C495 C 0.80492 0.11187 0.72976 0.0
C496 C 0.75903 0.12955 0.71381 0.0
C497 C 0.78497 0.11697 0.70624 0.0
C498 C 0.75357 0.13745 0.7452 0.0
C499 C 0.88502 0.17619 0.82787 0.0
O500 O 0.92137 0.12237 0.85665 0.0
O501 O 0.87634 0.10594 0.84762 0.0
O502 O 0.97942 0.13401 0.80866 0.0
O503 O 0.95701 0.16775 0.8328 0.0
O504 O 0.94274 0.09531 0.78092 0.0
O505 O 0.90669 0.09809 0.80864 0.0
O506 O 0.88269 0.13471 0.7501 0.0
O507 O 0.92813 0.15131 0.75494 0.0
O508 O 0.82614 0.13495 0.80444 0.0
O509 O 0.84114 0.09719 0.78017 0.0
O510 O 0.86326 0.16139 0.83546 0.0
O511 O 0.89734 0.16491 0.80433 0.0
H512 H 0.03676 0.14345 0.82846 0.0
H513 H 0.96788 0.15977 0.89241 0.0
H514 H 0.99985 0.15485 0.93771 0.0
H515 H 0.06863 0.13875 0.87341 0.0
H516 H 0.76861 0.13786 0.79305 0.0
H517 H 0.82467 0.1021 0.7232 0.0
H518 H 0.78976 0.11097 0.68207 0.0
H519 H 0.73367 0.14701 0.7516 0.0
Gd520 Gd 0.65619 0.18101 0.55188 0.0
Gd521 Gd 0.66412 0.11876 0.54226 0.0
C522 C 0.68519 0.14265 0.60732 0.0
C523 C 0.64051 0.22883 0.57659 0.0
C524 C 0.64189 0.24295 0.60807 0.0
C525 C 0.66626 0.24169 0.62682 0.0
C526 C 0.61894 0.25892 0.61904 0.0
C527 C 0.64562 0.27422 0.66543 0.0
C528 C 0.62072 0.2743 0.64744 0.0
C529 C 0.66812 0.25717 0.65505 0.0
C530 C 0.70851 0.16779 0.52932 0.0
C531 C 0.64029 0.15572 0.48249 0.0
C532 C 0.67746 0.06813 0.52558 0.0
C533 C 0.66551 0.04495 0.50704 0.0
C534 C 0.67214 0.01719 0.51545 0.0
C535 C 0.64749 0.05004 0.4814 0.0
C536 C 0.64489 0.99965 0.47096 0.0
C537 C 0.63728 0.02753 0.46343 0.0
C538 C 0.6619 0.9947 0.4976 0.0
C539 C 0.6162 0.13205 0.57314 0.0
O540 O 0.66991 0.16536 0.60102 0.0
O541 O 0.69066 0.12417 0.58491 0.0
O542 O 0.66419 0.22525 0.56136 0.0
O543 O 0.6239 0.20703 0.57411 0.0
O544 O 0.69433 0.19026 0.52164 0.0
O545 O 0.69417 0.15378 0.54892 0.0
O546 O 0.64937 0.13132 0.49356 0.0
O547 O 0.63956 0.17864 0.50077 0.0
O548 O 0.66422 0.07403 0.55187 0.0
O549 O 0.68564 0.09059 0.50998 0.0
O550 O 0.6303 0.10919 0.57785 0.0
O551 O 0.62643 0.14559 0.54996 0.0
H552 H 0.68419 0.22929 0.61929 0.0
H553 H 0.59984 0.26014 0.60514 0.0
H554 H 0.60306 0.28729 0.65454 0.0
H555 H 0.68749 0.25627 0.66849 0.0
H556 H 0.68569 1.01292 0.5355 0.0
H557 H 0.64187 0.07138 0.47484 0.0
H558 H 0.62453 0.03206 0.4428 0.0
H559 H 0.66788 0.97345 0.50414 0.0
Gd560 Gd 0.59637 0.90084 0.30445 0.0
Gd561 Gd 0.65892 0.91002 0.3017 0.0
C562 C 0.62991 0.92629 0.36623 0.0
C563 C 0.54796 0.88234 0.32386 0.0
C564 C 0.53129 0.88315 0.35361 0.0
C565 C 0.52657 0.90844 0.37012 0.0
C566 C 0.51988 0.85808 0.36576 0.0
C567 C 0.49833 0.88362 0.40982 0.0
C568 C 0.50367 0.85827 0.39351 0.0
C569 C 0.51022 0.90868 0.39778 0.0
C570 C 0.61059 0.95425 0.28678 0.0
C571 C 0.62595 0.89135 0.23682 0.0
C572 C 0.71083 0.92269 0.29046 0.0
C573 C 0.73173 0.91862 0.26525 0.0
C574 C 0.75872 0.90899 0.27324 0.0
C575 C 0.72507 0.92364 0.23339 0.0
C576 C 0.77253 0.9103 0.21795 0.0
C577 C 0.74536 0.91962 0.20996 0.0
C578 C 0.77897 0.9047 0.24974 0.0
C579 C 0.6434 0.86065 0.32805 0.0
O580 O 0.60678 0.91419 0.3552 0.0
O581 O 0.65195 0.93073 0.34804 0.0
O582 O 0.55109 0.90591 0.30814 0.0
O583 O 0.57096 0.86729 0.32461 0.0
O584 O 0.58886 0.94053 0.27609 0.0
O585 O 0.62307 0.93921 0.30705 0.0
O586 O 0.64847 0.9024 0.25031 0.0
O587 O 0.60296 0.88574 0.25358 0.0
O588 O 0.7031 0.89982 0.30528 0.0
O589 O 0.68986 0.9399 0.28472 0.0
O590 O 0.6642 0.87581 0.33778 0.0
O591 O 0.63228 0.8717 0.30374 0.0
H592 H 0.53526 0.9281 0.36152 0.0
H593 H 0.52343 0.83826 0.35365 0.0
H594 H 0.49534 0.83848 0.40217 0.0
H595 H 0.50634 0.92872 0.40924 0.0
H596 H 0.76415 0.90485 0.29773 0.0
H597 H 0.70427 0.9307 0.22659 0.0
H598 H 0.73979 0.92371 0.18551 0.0
H599 H 0.79978 0.89762 0.25646 0.0
Gd600 Gd 0.87895 0.85582 0.06058 0.0
Gd601 Gd 0.86471 0.91624 0.04332 0.0
C602 C 0.84655 0.89622 0.11164 0.0
C603 C 0.89963 0.81192 0.08959 0.0
C604 C 0.89531 0.79501 0.11882 0.0
C605 C 0.86884 0.79281 0.13336 0.0
C606 C 0.91813 0.78042 0.13219 0.0
C607 C 0.88777 0.76011 0.173 0.0
C608 C 0.91445 0.76323 0.15897 0.0
C609 C 0.86511 0.77554 0.16007 0.0
C610 C 0.82523 0.86247 1.03808 0.0
C611 C 0.89136 0.87627 0.98839 0.0
C612 C 0.84622 0.96333 1.02086 0.0
C613 C 0.85666 0.98668 1.00134 0.0
C614 C 0.88474 0.99573 1.00315 0.0
C615 C 0.83794 1.00067 0.98125 0.0
C616 C 0.87498 0.03314 0.96531 0.0
C617 C 0.847 0.02359 0.96331 0.0
C618 C 0.89382 0.01883 0.9853 0.0
C619 C 0.91466 0.91033 0.07344 0.0
O620 O 0.86356 0.87432 0.10768 0.0
O621 O 0.8394 0.91215 0.08737 0.0
O622 O 0.88038 0.8104 0.06753 0.0
O623 O 0.90911 0.83751 0.09336 0.0
O624 O 0.84035 0.83986 1.03445 0.0
O625 O 0.83882 0.87933 0.05516 0.0
O626 O 0.87745 0.89942 0.99565 0.0
O627 O 0.89717 0.85671 1.01011 0.0
O628 O 0.85757 0.9608 0.04889 0.0
O629 O 0.84237 0.93914 1.00657 0.0
O630 O 0.89883 0.93242 0.07496 0.0
O631 O 0.90493 0.89358 0.05277 0.0
H632 H 0.85096 0.80414 0.12382 0.0
H633 H 0.9388 0.7819 0.12152 0.0
H634 H 0.93233 0.75158 0.16797 0.0
H635 H 0.84433 0.77406 0.17045 0.0
H636 H 0.89958 0.98509 1.01852 0.0
H637 H 0.81625 0.99386 0.97946 0.0
H638 H 0.8321 0.03356 0.94748 0.0
H639 H 0.91547 0.02564 0.98737 0.0
Gd640 Gd 0.65903 0.61657 0.79585 0.0
Gd641 Gd 0.59721 0.62325 0.80664 0.0
C642 C 0.62114 0.64071 0.7375 0.0
C643 C 0.70838 0.60179 0.7765 0.0
C644 C 0.73107 0.61237 0.75605 0.0
C645 C 0.74004 0.64059 0.75725 0.0
C646 C 0.74464 0.5935 0.73569 0.0
C647 C 0.77658 0.63057 0.71845 0.0
C648 C 0.76706 0.6025 0.71699 0.0
C649 C 0.76266 0.64961 0.7386 0.0
C650 C 0.64686 0.6639 0.82821 0.0
C651 C 0.63661 0.59831 0.86242 0.0
C652 C 0.54777 0.63538 0.8294 0.0
C653 C 0.53344 0.6382 0.86068 0.0
C654 C 0.52863 0.61455 0.88006 0.0
C655 C 0.52237 0.66434 0.87025 0.0
C656 C 0.50055 0.64278 0.91688 0.0
C657 C 0.50621 0.66663 0.89801 0.0
C658 C 0.51242 0.6168 0.90766 0.0
C659 C 0.61174 0.57137 0.78336 0.0
O660 O 0.64612 0.63327 0.7481 0.0
O661 O 0.59837 0.63944 0.7557 0.0
O662 O 0.7039 0.61559 0.80283 0.0
O663 O 0.68519 0.59366 0.76244 0.0
O664 O 0.67028 0.65021 0.8304 0.0
O665 O 0.63204 0.6542 0.8056 0.0
O666 O 0.61386 0.61334 0.85607 0.0
O667 O 0.6546 0.59166 0.83995 0.0
O668 O 0.55546 0.61011 0.82072 0.0
O669 O 0.56617 0.65457 0.8214 0.0
O670 O 0.58949 0.58544 0.77506 0.0
O671 O 0.625 0.58572 0.80351 0.0
H672 H 0.72978 0.65559 0.77276 0.0
H673 H 0.73795 0.5717 0.73433 0.0
H674 H 0.77674 0.58744 0.70107 0.0
H675 H 0.76944 0.67135 0.74026 0.0
H676 H 0.53669 0.59401 0.87349 0.0
H677 H 0.52565 0.68294 0.85584 0.0
H678 H 0.49785 0.68708 0.90442 0.0
H679 H 0.50827 0.59779 0.92105 0.0
Gd680 Gd 0.66728 0.41227 0.04571 0.0
Gd681 Gd 0.65435 0.35048 0.05588 0.0
C682 C 0.6415 0.37642 0.98594 0.0
C683 C 0.68662 0.46068 1.02826 0.0
C684 C 0.67719 0.48378 1.00797 0.0
C685 C 0.69107 0.50974 1.00936 0.0
C686 C 0.65377 0.48054 0.98818 0.0
C687 C 0.65937 0.52871 0.96951 0.0
C688 C 0.64496 0.50282 0.96898 0.0
C689 C 0.68221 0.53207 0.99033 0.0
C690 C 0.61721 0.40402 0.07401 0.0
C691 C 0.68123 0.38764 0.11345 0.0
C692 C 0.63464 0.30394 0.08001 0.0
C693 C 0.638 0.28688 0.10926 0.0
C694 C 0.66371 0.28563 0.12553 0.0
C695 C 0.61502 0.27155 0.12116 0.0
C696 C 0.64386 0.25239 0.16393 0.0
C697 C 0.61786 0.25455 0.14821 0.0
C698 C 0.66662 0.26853 0.15246 0.0
C699 C 0.70895 0.36096 1.03787 0.0
O700 O 0.65313 0.39983 0.99672 0.0
O701 O 0.63797 0.35411 1.00473 0.0
O702 O 0.67158 0.45694 0.05379 0.0
O703 O 0.69334 0.43702 1.01408 0.0
O704 O 0.63263 0.42624 0.07725 0.0
O705 O 0.6272 0.38835 0.05219 0.0
O706 O 0.66675 0.36487 0.10557 0.0
O707 O 0.68855 0.40654 0.09214 0.0
O708 O 0.65581 0.3048 0.06023 0.0
O709 O 0.62261 0.32846 0.08341 0.0
O710 O 0.69491 0.33842 1.03033 0.0
O711 O 0.69373 0.37552 0.05585 0.0
H712 H 0.70888 0.51266 1.025 0.0
H713 H 0.64256 0.4607 0.98735 0.0
H714 H 0.62755 0.49944 0.95291 0.0
H715 H 0.69352 0.55185 0.9915 0.0
H716 H 0.68164 0.2976 0.11721 0.0
H717 H 0.5949 0.27236 0.10917 0.0
H718 H 0.59997 0.24232 0.15612 0.0
H719 H 0.68684 0.26775 0.16419 0.0
Gd720 Gd 0.87088 0.42011 0.29513 0.0
Gd721 Gd 0.93131 0.40613 0.31188 0.0
C722 C 0.91108 0.3953 0.23934 0.0
C723 C 0.82395 0.43895 0.27289 0.0
C724 C 0.80088 0.42901 0.25266 0.0
C725 C 0.789 0.40209 0.25654 0.0
C726 C 0.79013 0.44713 0.22952 0.0
C727 C 0.75536 0.4119 0.2146 0.0
C728 C 0.7677 0.43864 0.21057 0.0
C729 C 0.76637 0.39363 0.23768 0.0
C730 C 0.87676 0.36953 0.32417 0.0
C731 C 0.89063 0.43682 0.364 0.0
C732 C 0.97565 0.38543 0.33985 0.0
C733 C 0.99287 0.38917 0.36886 0.0
C734 C 0.99471 0.41523 0.38447 0.0
C735 C 1.00795 0.36613 0.38106 0.0
C736 C 0.02794 0.39546 0.42295 0.0
C737 C 0.02523 0.36919 0.40778 0.0
C738 C 1.01208 0.41835 0.41114 0.0
C739 C 0.92373 0.4604 0.29082 0.0
O740 O 0.88803 0.4091 0.2471 0.0
O741 O 0.93044 0.38871 0.26095 0.0
O742 O 0.82633 0.42689 0.30059 0.0
O743 O 0.84818 0.44346 0.25903 0.0
O744 O 0.85451 0.38511 0.32534 0.0
O745 O 0.89381 0.37968 0.30397 0.0
O746 O 0.91285 0.42036 0.35949 0.0
O747 O 0.87454 0.44425 0.34 0.0
O748 O 0.97672 0.40518 0.31826 0.0
O749 O 0.95024 0.37572 0.34389 0.0
O750 O 0.94653 0.44575 0.28655 0.0
O751 O 0.90738 0.44608 0.30774 0.0
H752 H 0.79706 0.38766 0.27422 0.0
H753 H 0.79911 0.4679 0.22607 0.0
H754 H 0.76031 0.45297 0.19242 0.0
H755 H 0.75735 0.37293 0.24138 0.0
H756 H 0.98299 0.43325 0.37584 0.0
H757 H 1.00673 0.34576 0.36954 0.0
H758 H 0.03723 0.35117 0.41588 0.0
H759 H 1.01323 0.43881 0.42242 0.0
Gd760 Gd 0.87077 0.62427 0.55404 0.0
Gd761 Gd 0.87869 0.68744 0.55788 0.0
C762 C 0.89128 0.65825 0.49005 0.0
C763 C 0.85775 0.57275 0.54089 0.0
C764 C 0.8638 0.55181 0.51613 0.0
C765 C 0.87456 0.52533 0.52483 0.0
C766 C 0.85906 0.55776 0.48402 0.0
C767 C 0.87457 0.51057 0.46986 0.0
C768 C 0.8643 0.53726 0.46111 0.0
C769 C 0.88009 0.50489 0.50183 0.0
C770 C 0.91949 0.64004 0.58093 0.0
C771 C 0.85333 0.65241 0.6189 0.0
C772 C 0.89612 0.73587 0.57897 0.0
C773 C 0.89377 0.75224 0.60888 0.0
C774 C 0.86895 0.75211 0.62695 0.0
C775 C 0.91668 0.76836 0.61954 0.0
C776 C 0.8893 0.78572 0.6645 0.0
C777 C 0.91453 0.78485 0.64708 0.0
C778 C 0.86672 0.76872 0.65433 0.0
C779 C 0.82574 0.67197 0.53983 0.0
O780 O 0.88156 0.63495 0.50337 0.0
O781 O 0.8941 0.6819 0.50675 0.0
O782 O 0.87899 0.57965 0.55887 0.0
O783 O 0.84191 0.59433 0.53317 0.0
O784 O 0.90522 0.61815 0.58939 0.0
O785 O 0.90829 0.65182 0.55706 0.0
O786 O 0.86468 0.6761 0.60821 0.0
O787 O 0.84981 0.63031 0.60048 0.0
O788 O 0.87331 0.73278 0.56199 0.0
O789 O 0.91113 0.71283 0.58026 0.0
O790 O 0.8388 0.69441 0.52978 0.0
O791 O 0.84118 0.65971 0.55983 0.0
H792 H 0.87846 0.52039 0.5495 0.0
H793 H 0.85111 0.57812 0.47659 0.0
H794 H 0.86021 0.54221 0.43649 0.0
H795 H 0.88791 0.48443 0.50907 0.0
H796 H 0.85111 0.73951 0.61966 0.0
H797 H 0.93614 0.76862 0.60618 0.0
H798 H 0.93224 0.79778 0.65403 0.0
H799 H 0.8471 0.76854 0.66737 0.0
Gd800 Gd 0.66585 0.40984 0.79143 0.0
Gd801 Gd 0.60537 0.39372 0.77662 0.0
C802 C 0.62736 0.38521 0.84896 0.0
C803 C 0.71214 0.43128 0.81226 0.0
C804 C 0.7353 0.42355 0.83366 0.0
C805 C 0.75078 0.39852 0.82953 0.0
C806 C 0.74261 0.44204 0.85812 0.0
C807 C 0.78097 0.41103 0.87378 0.0
C808 C 0.76509 0.4358 0.87808 0.0
C809 C 0.77344 0.39234 0.84943 0.0
C810 C 0.66105 0.35815 0.76492 0.0
C811 C 0.64449 0.42292 0.72192 0.0
C812 C 0.56132 0.37143 0.74972 0.0
C813 C 0.54309 0.37569 0.72155 0.0
C814 C 0.53754 0.40269 0.70947 0.0
C815 C 0.53089 0.35226 0.7065 0.0
C816 C 0.50615 0.38285 0.66917 0.0
C817 C 0.51268 0.35575 0.68058 0.0
C818 C 0.51929 0.40621 0.68366 0.0
C819 C 0.61205 0.44894 0.7947 0.0
O820 O 0.64979 0.39953 0.84017 0.0
O821 O 0.60783 0.37745 0.82803 0.0
O822 O 0.71028 0.41715 0.78578 0.0
O823 O 0.68766 0.43635 0.82535 0.0
O824 O 0.68306 0.37401 0.7632 0.0
O825 O 0.6438 0.36866 0.78472 0.0
O826 O 0.62215 0.40717 0.72812 0.0
O827 O 0.66167 0.43099 0.74465 0.0
O828 O 0.55988 0.39003 0.77258 0.0
O829 O 0.58708 0.36338 0.74411 0.0
O830 O 0.58962 0.43402 0.80007 0.0
O831 O 0.62847 0.4343 0.7782 0.0
H832 H 0.74555 0.38382 0.81083 0.0
H833 H 0.73092 0.46139 0.86177 0.0
H834 H 0.76982 0.45031 0.89713 0.0
H835 H 0.78527 0.37315 0.84548 0.0
H836 H 0.54701 0.4211 0.72024 0.0
H837 H 0.53505 0.33118 0.7152 0.0
H838 H 0.50291 0.33731 0.67025 0.0
H839 H 0.51519 0.42739 0.67525 0.0
Gd840 Gd 0.86998 0.41879 0.04353 0.0
Gd841 Gd 0.88576 0.3575 1.03331 0.0
C842 C 0.89808 0.38435 0.10295 0.0
C843 C 0.84832 0.46625 0.06095 0.0
C844 C 0.85604 0.48996 0.08129 0.0
C845 C 0.879 0.4881 0.10198 0.0
C846 C 0.8409 0.51517 0.07904 0.0
C847 C 0.87049 0.53619 0.11958 0.0
C848 C 0.84806 0.53814 0.098 0.0
C849 C 0.88615 0.51105 0.12108 0.0
C850 C 0.91991 0.41235 1.01409 0.0
C851 C 0.85624 0.39322 0.97612 0.0
C852 C 0.90773 0.31203 1.00921 0.0
C853 C 0.90546 0.29399 0.98035 0.0
C854 C 0.88759 0.27043 0.9801 0.0
C855 C 0.92257 0.29888 0.95359 0.0
C856 C 0.90452 0.25657 0.9276 0.0
C857 C 0.92198 0.2805 0.92748 0.0
C858 C 0.88702 0.25212 0.95411 0.0
C859 C 0.83094 0.3652 0.05214 0.0
O860 O 0.88553 0.40732 0.09226 0.0
O861 O 0.90224 0.36209 0.08426 0.0
O862 O 0.86384 0.46328 1.03565 0.0
O863 O 0.84269 0.44228 0.07509 0.0
O864 O 0.90363 0.43402 1.01113 0.0
O865 O 0.91083 0.39658 1.03628 0.0
O866 O 0.87179 0.37109 0.98384 0.0
O867 O 0.84846 0.41193 0.99746 0.0
O868 O 0.88688 0.31176 1.02947 0.0
O869 O 0.91845 0.33718 1.00568 0.0
O870 O 0.84628 0.34346 0.05948 0.0
O871 O 0.84518 0.38063 1.03399 0.0
H872 H 0.89113 0.46883 0.10359 0.0
H873 H 0.8234 0.51702 0.06274 0.0
H874 H 0.83579 0.55731 0.09612 0.0
H875 H 0.90327 0.50876 0.13778 0.0
H876 H 0.87424 0.26583 1.00025 0.0
H877 H 0.93685 0.31665 0.95303 0.0
H878 H 0.93582 0.28457 0.90762 0.0
H879 H 0.87282 0.23429 0.95489 0.0
Gd880 Gd 0.86582 0.62088 0.29456 0.0
Gd881 Gd 0.92577 0.63826 0.28077 0.0
C882 C 0.9033 0.64579 0.35268 0.0
C883 C 0.81933 0.59938 0.31489 0.0
C884 C 0.7956 0.6081 0.33494 0.0
C885 C 0.78268 0.63457 0.33129 0.0
C886 C 0.78546 0.5894 0.35786 0.0
C887 C 0.74943 0.62327 0.37318 0.0
C888 C 0.76272 0.59693 0.3769 0.0
C889 C 0.75973 0.64206 0.35021 0.0
C890 C 0.87005 0.67297 0.26867 0.0
C891 C 0.88782 0.60839 0.22559 0.0
C892 C 0.96955 0.66122 0.25415 0.0
C893 C 0.98697 0.65674 0.22547 0.0
C894 C 0.98841 0.6303 0.21069 0.0
C895 C 1.00221 0.67932 0.21244 0.0
C896 C 0.0218 0.64858 0.1716 0.0
C897 C 0.01941 0.67533 0.18575 0.0
C898 C 1.00566 0.62625 0.18414 0.0
C899 C 0.9204 0.58298 0.29901 0.0
O900 O 0.88161 0.63054 0.34353 0.0
O901 O 0.92246 0.65473 0.33193 0.0
O902 O 0.82177 0.61221 0.28765 0.0
O903 O 0.84346 0.59542 0.32913 0.0
O904 O 0.84858 0.65653 0.26584 0.0
O905 O 0.88696 0.66262 0.28883 0.0
O906 O 0.90948 0.62499 0.23198 0.0
O907 O 0.87104 0.59936 0.24825 0.0
O908 O 0.97119 0.64226 0.27661 0.0
O909 O 0.94377 0.66952 0.24918 0.0
O910 O 0.94216 0.59864 0.30502 0.0
O911 O 0.90382 0.59696 0.28197 0.0
H912 H 0.79024 0.64946 0.31379 0.0
H913 H 0.79524 0.56896 0.36113 0.0
H914 H 0.75588 0.58222 0.39494 0.0
H915 H 0.74997 0.66245 0.34671 0.0
H916 H 0.97647 0.61267 0.21994 0.0
H917 H 1.00117 0.7 0.22326 0.0
H918 H 0.03164 0.69292 0.17695 0.0
H919 H 1.00667 0.60545 0.17361 0.0
Gd920 Gd 0.66043 0.61964 0.5422 0.0
Gd921 Gd 0.65118 0.68224 0.53396 0.0
C922 C 0.6361 0.65556 0.60255 0.0
C923 C 0.67807 0.57046 0.55927 0.0
C924 C 0.67089 0.54729 0.5812 0.0
C925 C 0.65054 0.52696 0.57315 0.0
C926 C 0.68582 0.54429 0.60962 0.0
C927 C 0.66066 0.50088 0.62132 0.0
C928 C 0.68067 0.52144 0.62953 0.0
C929 C 0.64538 0.50403 0.59313 0.0
C930 C 0.61179 0.63169 0.513 0.0
C931 C 0.67541 0.64501 0.47542 0.0
C932 C 0.63556 0.7312 0.51266 0.0
C933 C 0.63231 0.74527 0.48138 0.0
C934 C 0.65409 0.74518 0.45882 0.0
C935 C 0.60763 0.76035 0.47458 0.0
C936 C 0.62744 0.77698 0.42443 0.0
C937 C 0.60517 0.77594 0.44647 0.0
C938 C 0.65172 0.76088 0.43079 0.0
C939 C 0.704 0.66856 0.55443 0.0
O940 O 0.64434 0.63106 0.5909 0.0
O941 O 0.63617 0.67893 0.58517 0.0
O942 O 0.66116 0.5746 0.53529 0.0
O943 O 0.68745 0.59398 0.57174 0.0
O944 O 0.62559 0.60846 0.50898 0.0
O945 O 0.62226 0.64597 0.53555 0.0
O946 O 0.66113 0.66778 0.48372 0.0
O947 O 0.68221 0.62549 0.49619 0.0
O948 O 0.66114 0.72547 0.5219 0.0
O949 O 0.6178 0.71113 0.51968 0.0
O950 O 0.68979 0.69047 0.56379 0.0
O951 O 0.68937 0.65534 0.53447 0.0
H952 H 0.63888 0.52848 0.5512 0.0
H953 H 0.70176 0.55945 0.61635 0.0
H954 H 0.69239 0.5199 0.65144 0.0
H955 H 0.62992 0.48846 0.58619 0.0
H956 H 0.67335 0.73362 0.46319 0.0
H957 H 0.59043 0.76063 0.49142 0.0
H958 H 0.58594 0.78758 0.44229 0.0
H959 H 0.6695 0.76129 0.41478 0.0
Gd960 Gd 0.43069 0.39912 0.27576 0.0
Gd961 Gd 0.36997 0.41468 0.28817 0.0
C962 C 0.39291 0.42807 0.21961 0.0
C963 C 0.47549 0.37697 0.2502 0.0
C964 C 0.49305 0.38036 0.22136 0.0
C965 C 0.49462 0.40617 0.2052 0.0
C966 C 0.50848 0.3573 0.20971 0.0
C967 C 0.52849 0.38629 0.1675 0.0
C968 C 0.52596 0.36018 0.18306 0.0
C969 C 0.51217 0.40911 0.17865 0.0
C970 C 0.42332 0.45406 0.29407 0.0
C971 C 0.40703 0.39041 0.34719 0.0
C972 C 0.32232 0.43455 0.30743 0.0
C973 C 0.30027 0.42764 0.33085 0.0
C974 C 0.2765 0.41192 0.32176 0.0
C975 C 0.3021 0.43764 0.36206 0.0
C976 C 0.25674 0.41665 0.3745 0.0
C977 C 0.2806 0.43214 0.38366 0.0
C978 C 0.25502 0.4063 0.34347 0.0
C979 C 0.37637 0.36347 0.26091 0.0
O980 O 0.41525 0.4126 0.22669 0.0
O981 O 0.37484 0.4359 0.24158 0.0
O982 O 0.47626 0.39712 0.27135 0.0
O983 O 0.4501 0.36738 0.24579 0.0
O984 O 0.44541 0.439 0.30065 0.0
O985 O 0.40741 0.43974 0.27657 0.0
O986 O 0.38459 0.40426 0.33743 0.0
O987 O 0.42731 0.38292 0.32706 0.0
O988 O 0.32486 0.41731 0.28347 0.0
O989 O 0.3466 0.44342 0.31819 0.0
O990 O 0.35491 0.37981 0.25715 0.0
O991 O 0.39235 0.37356 0.28224 0.0
H992 H 0.48258 0.42416 0.21335 0.0
H993 H 0.5074 0.33709 0.22161 0.0
H994 H 0.5383 0.34224 0.17539 0.0
H995 H 0.51322 0.42944 0.16704 0.0
H996 H 0.27431 0.40421 0.29775 0.0
H997 H 0.32001 0.44993 0.3698 0.0
H998 H 0.28265 0.44004 0.40762 0.0
H999 H 0.23678 0.39449 0.33578 0.0
Gd1000 Gd 0.37613 0.6831 1.03356 0.0
Gd1001 Gd 0.36588 0.62059 1.04161 0.0
C1002 C 0.34765 0.64653 0.97638 0.0
C1003 C 0.39384 0.73082 1.01068 0.0
C1004 C 0.39354 0.74607 0.97981 0.0
C1005 C 0.36822 0.75441 0.9654 0.0
C1006 C 0.41901 0.75338 0.965 0.0
C1007 C 0.39391 0.77789 0.92256 0.0
C1008 C 0.41922 0.76904 0.93676 0.0
C1009 C 0.36841 0.77013 0.93728 0.0
C1010 C 0.32342 0.6708 0.05531 0.0
C1011 C 0.39127 0.65573 0.10192 0.0
C1012 C 0.34956 0.57051 0.05708 0.0
C1013 C 0.35915 0.5467 0.07627 0.0
C1014 C 0.38105 0.54973 0.0982 0.0
C1015 C 0.34631 0.52041 0.07227 0.0
C1016 C 0.37566 0.50064 0.11382 0.0
C1017 C 0.35449 0.49754 0.09086 0.0
C1018 C 0.38925 0.52684 0.1169 0.0
C1019 C 0.41478 0.63301 1.01251 0.0
O1020 O 0.36295 0.66894 0.98377 0.0
O1021 O 0.34122 0.62757 0.99791 0.0
O1022 O 0.36998 0.72792 1.02575 0.0
O1023 O 0.40953 0.70824 1.01244 0.0
O1024 O 0.33784 0.69295 0.06342 0.0
O1025 O 0.33745 0.65693 1.0353 0.0
O1026 O 0.38084 0.632 0.0905 0.0
O1027 O 0.39301 0.6789 0.08421 0.0
O1028 O 0.36468 0.57591 1.03197 0.0
O1029 O 0.34171 0.59325 0.07238 0.0
O1030 O 0.40029 0.61055 1.0069 0.0
O1031 O 0.40435 0.64643 1.03561 0.0
H1032 H 0.34817 0.74921 0.97609 0.0
H1033 H 0.43887 0.74723 0.97549 0.0
H1034 H 0.43927 0.77421 0.92609 0.0
H1035 H 0.34844 0.77688 0.92761 0.0
H1036 H 0.39138 0.56989 0.10124 0.0
H1037 H 0.32962 0.51769 0.05508 0.0
H1038 H 0.34385 0.47755 0.08776 0.0
H1039 H 0.40536 0.52998 0.13467 0.0
Gd1040 Gd 0.09774 0.6326 0.78531 0.0
Gd1041 Gd 0.1603 0.62537 0.7879 0.0
C1042 C 0.1319 0.60875 0.72352 0.0
C1043 C 0.04811 0.64833 0.76665 0.0
C1044 C 0.03313 0.65079 0.73587 0.0
C1045 C 0.03263 0.62844 0.71401 0.0
C1046 C 0.01848 0.67564 0.72852 0.0
C1047 C 1.00146 0.65512 0.67895 0.0
C1048 C 1.00289 0.67783 0.70042 0.0
C1049 C 0.01694 0.63055 0.686 0.0
C1050 C 0.11362 0.57958 0.80312 0.0
C1051 C 0.12707 0.64394 0.85304 0.0
C1052 C 0.21214 0.61336 0.80028 0.0
C1053 C 0.23315 0.62012 0.8248 0.0
C1054 C 0.25657 0.63686 0.81697 0.0
C1055 C 0.23048 0.60978 0.85581 0.0
C1056 C 0.27472 0.63195 0.87034 0.0
C1057 C 0.2511 0.6156 0.87831 0.0
C1058 C 0.2771 0.64292 0.83964 0.0
C1059 C 0.14415 0.67341 0.75938 0.0
O1060 O 0.10899 0.62161 0.73406 0.0
O1061 O 0.15337 0.60348 0.74224 0.0
O1062 O 0.05382 0.62294 0.77682 0.0
O1063 O 0.06869 0.66599 0.77167 0.0
O1064 O 0.09197 0.59305 0.81445 0.0
O1065 O 0.12551 0.59494 0.7827 0.0
O1066 O 0.15034 0.63531 0.8389 0.0
O1067 O 0.10326 0.64675 0.83684 0.0
O1068 O 0.20456 0.63426 0.78205 0.0
O1069 O 0.19107 0.59702 0.8083 0.0
O1070 O 0.16631 0.65923 0.75177 0.0
O1071 O 0.13266 0.66307 0.78399 0.0
H1072 H 0.0439 0.60905 0.71881 0.0
H1073 H 0.01872 0.69329 0.74479 0.0
H1074 H 0.99171 0.69727 0.69571 0.0
H1075 H 0.01618 0.61243 0.67044 0.0
H1076 H 0.25913 0.64501 0.79317 0.0
H1077 H 0.21264 0.59698 0.86269 0.0
H1078 H 0.24867 0.60717 0.90201 0.0
H1079 H 0.29519 0.65545 0.83297 0.0
Gd1080 Gd 0.15035 0.3559 0.52877 0.0
Gd1081 Gd 0.16564 0.41564 0.54712 0.0
C1082 C 0.18113 0.39721 0.47741 0.0
C1083 C 0.1279 0.31294 0.49981 0.0
C1084 C 0.13197 0.29499 0.47143 0.0
C1085 C 0.15836 0.29214 0.45687 0.0
C1086 C 0.10893 0.28036 0.45869 0.0
C1087 C 0.1389 0.25864 0.41852 0.0
C1088 C 0.1123 0.26243 0.43251 0.0
C1089 C 0.16178 0.27413 0.43077 0.0
C1090 C 0.20514 0.3613 0.54855 0.0
C1091 C 0.14002 0.37499 0.60178 0.0
C1092 C 0.18485 0.46216 0.57028 0.0
C1093 C 0.17407 0.48552 0.58954 0.0
C1094 C 0.14564 0.49351 0.58833 0.0
C1095 C 0.19269 0.50056 0.60873 0.0
C1096 C 0.15479 0.53198 0.62498 0.0
C1097 C 0.18316 0.52349 0.62638 0.0
C1098 C 0.13608 0.51661 0.60588 0.0
C1099 C 0.11445 0.4111 0.51933 0.0
O1100 O 0.16454 0.37505 0.48154 0.0
O1101 O 0.18908 0.41272 0.5017 0.0
O1102 O 0.14611 0.31053 0.52289 0.0
O1103 O 0.12071 0.33908 0.4946 0.0
O1104 O 0.18998 0.33872 0.55202 0.0
O1105 O 0.19095 0.37885 0.53298 0.0
O1106 O 0.15494 0.39754 0.59483 0.0
O1107 O 0.1327 0.35647 0.57955 0.0
O1108 O 0.17418 0.45998 0.5419 0.0
O1109 O 0.18788 0.43782 0.5845 0.0
O1110 O 0.13031 0.43314 0.51802 0.0
O1111 O 0.12486 0.39365 0.53883 0.0
H1112 H 0.17637 0.30353 0.46594 0.0
H1113 H 0.08831 0.28242 0.46939 0.0
H1114 H 0.09428 0.25073 0.424 0.0
H1115 H 0.1825 0.2721 0.42035 0.0
H1116 H 0.1309 0.48203 0.57364 0.0
H1117 H 0.21466 0.49458 0.61005 0.0
H1118 H 0.19802 0.5343 0.64153 0.0
H1119 H 0.11414 0.52257 0.60427 0.0
Gd1120 Gd 0.4277 0.6315 0.30896 0.0
Gd1121 Gd 0.36798 0.61533 0.29262 0.0
C1122 C 0.38817 0.60084 0.36169 0.0
C1123 C 0.47162 0.65374 0.33595 0.0
C1124 C 0.4897 0.65068 0.36437 0.0
C1125 C 0.50056 0.62449 0.37395 0.0
C1126 C 0.49664 0.67479 0.38202 0.0
C1127 C 0.52569 0.64683 0.41793 0.0
C1128 C 0.51436 0.67292 0.40844 0.0
C1129 C 0.51838 0.62261 0.40035 0.0
C1130 C 0.42223 0.57686 0.28838 0.0
C1131 C 0.40674 0.64185 0.23696 0.0
C1132 C 0.32155 0.59461 0.27124 0.0
C1133 C 0.29716 0.60436 0.25308 0.0
C1134 C 0.28639 0.63176 0.25681 0.0
C1135 C 0.28406 0.58569 0.23219 0.0
C1136 C 0.24923 0.62146 0.21903 0.0
C1137 C 0.26041 0.59416 0.21522 0.0
C1138 C 0.26254 0.64022 0.23997 0.0
C1139 C 0.37209 0.66668 0.32042 0.0
O1140 O 0.40983 0.61788 0.35693 0.0
O1141 O 0.37268 0.59205 0.33783 0.0
O1142 O 0.47316 0.63446 0.31385 0.0
O1143 O 0.44591 0.66227 0.34092 0.0
O1144 O 0.44434 0.59241 0.28381 0.0
O1145 O 0.4053 0.59049 0.30534 0.0
O1146 O 0.38486 0.62621 0.24448 0.0
O1147 O 0.42544 0.64975 0.25865 0.0
O1148 O 0.32427 0.60523 0.29961 0.0
O1149 O 0.34542 0.59263 0.25591 0.0
O1150 O 0.35037 0.65042 0.32199 0.0
O1151 O 0.38939 0.65665 0.30047 0.0
H1152 H 0.49555 0.60552 0.36086 0.0
H1153 H 0.48843 0.69522 0.37521 0.0
H1154 H 0.5191 0.69197 0.4215 0.0
H1155 H 0.52694 0.60218 0.4065 0.0
H1156 H 0.29631 0.64655 0.27282 0.0
H1157 H 0.29219 0.56454 0.22893 0.0
H1158 H 0.25123 0.57941 0.19862 0.0
H1159 H 0.25448 0.66134 0.24344 0.0
Gd1160 Gd 0.14628 0.68032 0.06176 0.0
Gd1161 Gd 0.16108 0.61895 0.05262 0.0
C1162 C 0.17279 0.64406 0.12053 0.0
C1163 C 0.12516 0.72649 0.08519 0.0
C1164 C 0.1291 0.74392 0.11399 0.0
C1165 C 0.15457 0.74367 0.13075 0.0
C1166 C 0.10692 0.76077 0.12522 0.0
C1167 C 0.13621 0.77837 0.16841 0.0
C1168 C 0.11039 0.77778 0.15216 0.0
C1169 C 0.15811 0.76075 0.15757 0.0
C1170 C 0.2013 0.67136 0.04527 0.0
C1171 C 0.13866 0.65459 0.99134 0.0
C1172 C 0.18032 0.57027 1.03588 0.0
C1173 C 0.17389 0.54859 1.01194 0.0
C1174 C 0.16037 0.5235 1.02111 0.0
C1175 C 0.18146 0.55236 0.98008 0.0
C1176 C 0.1626 0.50617 0.96719 0.0
C1177 C 0.17588 0.53132 0.95795 0.0
C1178 C 0.15454 0.50253 0.99884 0.0
C1179 C 0.10987 0.62684 0.07871 0.0
O1180 O 0.15833 0.66661 0.1118 0.0
O1181 O 0.18068 0.62481 0.09988 0.0
O1182 O 0.14567 0.72611 0.06451 0.0
O1183 O 0.11433 0.70156 0.0897 0.0
O1184 O 0.1867 0.69332 1.03698 0.0
O1185 O 0.18647 0.65637 0.06327 0.0
O1186 O 0.15178 0.63218 1.00256 0.0
O1187 O 0.13103 0.67566 1.01035 0.0
O1188 O 0.16147 0.57371 0.05805 0.0
O1189 O 0.19112 0.59413 1.02597 0.0
O1190 O 0.12592 0.60536 0.08373 0.0
O1191 O 0.12025 0.64205 0.05676 0.0
H1192 H 0.17184 0.73049 0.12292 0.0
H1193 H 0.08697 0.76108 0.11285 0.0
H1194 H 0.09318 0.79119 0.15961 0.0
H1195 H 0.17816 0.76034 0.16971 0.0
H1196 H 0.15449 0.51999 0.04559 0.0
H1197 H 0.19184 0.57144 0.97221 0.0
H1198 H 0.18203 0.53468 0.93352 0.0
H1199 H 0.14444 0.48322 1.00646 0.0
Gd1200 Gd 0.10573 0.40308 0.80813 0.0
Gd1201 Gd 0.1666 0.41611 0.79396 0.0
C1202 C 0.14509 0.43287 0.86193 0.0
C1203 C 0.06047 0.38325 0.83502 0.0
C1204 C 0.04136 0.38761 0.86268 0.0
C1205 C 1.01269 0.39277 0.85734 0.0
C1206 C 0.05063 0.38467 0.89425 0.0
C1207 C 1.00297 0.39275 0.91432 0.0
C1208 C 0.03166 0.38717 0.91974 0.0
C1209 C 0.99383 0.39534 0.88269 0.0
C1210 C 0.11421 0.45746 0.78768 0.0
C1211 C 0.1291 0.38884 0.7372 0.0
C1212 C 0.21472 0.43402 0.77418 0.0
C1213 C 0.23787 0.42328 0.75472 0.0
C1214 C 0.2653 0.43222 0.76124 0.0
C1215 C 0.23316 0.40345 0.73068 0.0
C1216 C 0.28314 0.40316 0.71828 0.0
C1217 C 0.25564 0.39351 0.71251 0.0
C1218 C 0.28778 0.42222 0.74322 0.0
C1219 C 0.15916 0.36612 0.82343 0.0
O1220 O 0.12269 0.41698 0.85648 0.0
O1221 O 0.16198 0.4402 0.83864 0.0
O1222 O 0.05994 0.4018 0.81209 0.0
O1223 O 0.08581 0.37395 0.84068 0.0
O1224 O 0.09159 0.44281 0.78253 0.0
O1225 O 0.13014 0.44295 0.80494 0.0
O1226 O 0.15247 0.40158 0.74597 0.0
O1227 O 0.10795 0.38495 0.75752 0.0
O1228 O 0.21124 0.421 0.80114 0.0
O1229 O 0.19099 0.43979 0.75973 0.0
O1230 O 0.18115 0.38187 0.82621 0.0
O1231 O 0.14313 0.37598 0.80206 0.0
H1232 H 1.00475 0.39459 0.83338 0.0
H1233 H 0.07254 0.38038 0.89932 0.0
H1234 H 0.03955 0.38525 0.94369 0.0
H1235 H 0.97187 0.39916 0.87742 0.0
H1236 H 0.26931 0.44714 0.78014 0.0
H1237 H 0.21212 0.39601 0.72567 0.0
H1238 H 0.25133 0.37916 0.69318 0.0
H1239 H 0.30875 0.42982 0.74841 0.0
Gd1240 Gd 0.38174 0.35005 0.55326 0.0
Gd1241 Gd 0.36806 0.41176 0.54662 0.0
C1242 C 0.35454 0.38458 0.61286 0.0
C1243 C 0.40192 0.30273 0.57464 0.0
C1244 C 0.40169 0.28632 0.60465 0.0
C1245 C 0.37653 0.27999 0.62061 0.0
C1246 C 0.42713 0.27633 0.6173 0.0
C1247 C 0.40225 0.25296 0.66068 0.0
C1248 C 0.42744 0.25991 0.64495 0.0
C1249 C 0.3768 0.26347 0.64817 0.0
C1250 C 0.32726 0.36044 0.53544 0.0
C1251 C 0.39341 0.37864 0.48458 0.0
C1252 C 0.349 0.46078 0.53111 0.0
C1253 C 0.35587 0.48322 0.50818 0.0
C1254 C 0.37049 0.5074 0.51823 0.0
C1255 C 0.34748 0.48109 0.4764 0.0
C1256 C 0.36786 0.52701 0.46532 0.0
C1257 C 0.35343 0.50279 0.45521 0.0
C1258 C 0.37666 0.52904 0.49689 0.0
C1259 C 0.41733 0.40257 0.5762 0.0
O1260 O 0.36957 0.36247 0.60382 0.0
O1261 O 0.34676 0.40414 0.59256 0.0
O1262 O 0.37842 0.30462 0.55874 0.0
O1263 O 0.41588 0.3264 0.57488 0.0
O1264 O 0.34195 0.33887 0.52602 0.0
O1265 O 0.34191 0.3744 0.55459 0.0
O1266 O 0.38194 0.40148 0.49698 0.0
O1267 O 0.39729 0.35556 0.50201 0.0
O1268 O 0.3673 0.45678 0.55374 0.0
O1269 O 0.33859 0.43719 0.51995 0.0
O1270 O 0.40107 0.42397 0.58102 0.0
O1271 O 0.40844 0.38829 0.55263 0.0
H1272 H 0.35656 0.28746 0.61159 0.0
H1273 H 0.44686 0.28105 0.60559 0.0
H1274 H 0.44749 0.25265 0.65395 0.0
H1275 H 0.35688 0.2583 0.65913 0.0
H1276 H 0.37699 0.50969 0.54268 0.0
H1277 H 0.33619 0.46279 0.46787 0.0
H1278 H 0.34673 0.50064 0.43081 0.0
H1279 H 0.38768 0.5476 0.50519 0.0
C1280 C 0.31668 0.15245 0.18688 0.0
C1281 C 0.30396 0.12605 0.19157 0.0
H1282 H 0.34359 0.17729 0.15692 0.0
C1283 C 0.31187 0.10318 0.17264 0.0
H1284 H 0.31082 0.1703 0.20146 0.0
C1285 C 0.33057 0.10701 0.14778 0.0
C1286 C 0.34152 0.13385 0.14115 0.0
H1287 H 0.3026 0.08256 0.17626 0.0
H1288 H 0.33525 0.08917 0.13262 0.0
C1289 C 0.33544 0.15638 0.16163 0.0
C1290 C 0.1681 0.07951 0.40124 0.0
C1291 C 0.14152 0.08935 0.39183 0.0
H1292 H 0.19133 0.05275 0.43233 0.0
C1293 C 0.11777 0.08225 0.40993 0.0
H1294 H 0.18684 0.08502 0.388 0.0
C1295 C 0.12045 0.06365 0.43562 0.0
C1296 C 0.14686 0.05209 0.44313 0.0
H1297 H 0.09706 0.08953 0.40307 0.0
H1298 H 0.10182 0.05708 0.4484 0.0
C1299 C 0.17071 0.061 0.42651 0.0
C1300 C 0.22386 0.86934 0.67883 0.0
C1301 C 0.22639 0.89588 0.69351 0.0
H1302 H 0.20396 0.8453 0.64202 0.0
C1303 C 0.20704 0.91717 0.6857 0.0
H1304 H 0.23843 0.85249 0.68433 0.0
C1305 C 0.18768 0.91311 0.66141 0.0
C1306 C 0.18685 0.8875 0.64492 0.0
H1307 H 0.20782 0.93755 0.69723 0.0
H1308 H 0.17447 0.9306 0.65423 0.0
C1309 C 0.20407 0.86514 0.65474 0.0
C1310 C 0.41218 0.95399 0.90389 0.0
C1311 C 0.39008 0.93798 0.89131 0.0
H1312 H 0.4237 0.98725 0.93561 0.0
C1313 C 0.36332 0.93966 0.90505 0.0
H1314 H 0.43293 0.95319 0.8933 0.0
C1315 C 0.35807 0.95875 0.92938 0.0
C1316 C 0.37937 0.97698 0.93993 0.0
H1317 H 0.34602 0.92735 0.8957 0.0
H1318 H 0.33692 0.96023 0.93878 0.0
C1319 C 0.40682 0.97353 0.92799 0.0
C1320 C 0.32506 0.87075 0.42411 0.0
C1321 C 0.33725 0.89341 0.44042 0.0
H1322 H 0.29669 0.85828 0.38717 0.0
C1323 C 0.33309 0.92097 0.42934 0.0
H1324 H 0.3279 0.84932 0.43237 0.0
C1325 C 0.31543 0.92609 0.40376 0.0
C1326 C 0.30139 0.90374 0.38883 0.0
H1327 H 0.34239 0.93877 0.44153 0.0
H1328 H 0.31139 0.94776 0.39707 0.0
C1329 C 0.30703 0.87591 0.39854 0.0
C1330 C 0.41674 0.05625 0.65083 0.0
C1331 C 0.38981 0.05319 0.63743 0.0
H1332 H 0.4415 0.07565 0.6874 0.0
C1333 C 0.3678 0.07034 0.64844 0.0
H1334 H 0.43415 0.04347 0.64258 0.0
C1335 C 0.37202 0.08855 0.67381 0.0
C1336 C 0.39837 0.09024 0.68855 0.0
H1337 H 0.34677 0.06835 0.63889 0.0
H1338 H 0.35421 0.10018 0.6831 0.0
C1339 C 0.42106 0.07486 0.67614 0.0
C1340 C 0.20506 0.10976 0.93198 0.0
C1341 C 0.1961 0.137 0.94013 0.0
H1342 H 0.23113 0.08454 0.90211 0.0
C1343 C 0.20417 0.15994 0.9212 0.0
H1344 H 0.1988 0.09166 0.94598 0.0
C1345 C 0.22296 0.15582 0.89601 0.0
C1346 C 0.23372 0.12877 0.88969 0.0
H1347 H 0.19759 0.18116 0.92715 0.0
H1348 H 0.23036 0.17393 0.88278 0.0
C1349 C 0.22367 0.10568 0.90703 0.0
C1350 C 0.12201 0.95301 0.1716 0.0
C1351 C 0.14468 0.94101 0.18802 0.0
H1352 H 0.1094 0.98171 0.13495 0.0
C1353 C 0.17217 0.94563 0.1772 0.0
H1354 H 0.10064 0.9499 0.17978 0.0
C1355 C 0.1772 0.96366 0.15184 0.0
C1356 C 0.1548 0.97765 0.13694 0.0
H1357 H 0.18997 0.9366 0.18962 0.0
H1358 H 0.1988 0.96814 0.14545 0.0
C1359 C 0.12706 0.97142 0.14628 0.0
C1360 C 0.70018 0.90998 0.894 0.0
C1361 C 0.72438 0.89342 0.88943 0.0
H1362 H 0.66449 0.91832 0.92348 0.0
C1363 C 0.72757 0.86852 0.90724 0.0
H1364 H 0.69668 0.92884 0.88008 0.0
C1365 C 0.70849 0.86203 0.93138 0.0
C1366 C 0.68624 0.88047 0.93807 0.0
H1367 H 0.74599 0.85534 0.90442 0.0
H1368 H 0.71275 0.84425 0.94677 0.0
C1369 C 0.68149 0.90376 0.91843 0.0
C1370 C 0.85679 0.98547 0.66768 0.0
C1371 C 0.87934 0.98966 0.64685 0.0
H1372 H 0.84193 0.96541 0.70952 0.0
C1373 C 0.90437 0.97431 0.65135 0.0
H1374 H 0.83706 0.9965 0.66432 0.0
C1375 C 0.90725 0.95628 0.67747 0.0
C1376 C 0.88508 0.95342 0.69923 0.0
H1377 H 0.92203 0.97716 0.63546 0.0
H1378 H 0.92712 0.94566 0.68137 0.0
C1379 C 0.8596 0.96753 0.69348 0.0
C1380 C 0.8042 0.1623 0.40671 0.0
C1381 C 0.80546 0.13648 0.39029 0.0
H1382 H 0.82123 0.18737 0.44444 0.0
C1383 C 0.82835 0.11837 0.39579 0.0
H1384 H 0.78684 0.17671 0.4031 0.0
C1385 C 0.8477 0.12437 0.41959 0.0
C1386 C 0.84495 0.14888 0.43782 0.0
H1387 H 0.83045 0.09875 0.3829 0.0
H1388 H 0.86379 0.10894 0.42514 0.0
C1389 C 0.82396 0.16852 0.43026 0.0
C1390 C 0.67947 0.05541 0.15836 0.0
C1391 C 0.65633 0.04705 0.14003 0.0
H1392 H 0.69394 0.07845 0.19859 0.0
C1393 C 0.62956 0.05797 0.14727 0.0
H1394 H 0.7003 0.04718 0.15355 0.0
C1395 C 0.62594 0.07621 0.17306 0.0
C1396 C 0.64897 0.08334 0.19223 0.0
H1397 H 0.61141 0.05201 0.13333 0.0
H1398 H 0.60499 0.08358 0.17886 0.0
C1399 C 0.6758 0.07323 0.18423 0.0
C1400 C 0.73096 0.10984 0.66961 0.0
C1401 C 0.73735 0.13287 0.68903 0.0
H1402 H 0.7088 0.09482 0.6293 0.0
C1403 C 0.72375 0.1588 0.68377 0.0
H1404 H 0.74065 0.08948 0.67363 0.0
C1405 C 0.70534 0.16202 0.65805 0.0
C1406 C 0.70033 0.13924 0.63756 0.0
H1407 H 0.72829 0.17682 0.69866 0.0
H1408 H 0.69614 0.18249 0.65343 0.0
C1409 C 0.7126 0.11295 0.64429 0.0
C1410 C 0.61199 0.97464 0.43361 0.0
C1411 C 0.63829 0.97638 0.44878 0.0
H1412 H 0.58828 0.95629 0.39554 0.0
C1413 C 0.65976 0.95767 0.43981 0.0
H1414 H 0.595 0.98865 0.4403 0.0
C1415 C 0.6559 0.93938 0.41445 0.0
C1416 C 0.63045 0.93921 0.39775 0.0
H1417 H 0.68032 0.9586 0.45077 0.0
H1418 H 0.67349 0.92663 0.40658 0.0
C1419 C 0.60802 0.95596 0.40833 0.0
C1420 C 0.82882 0.87932 0.16451 0.0
C1421 C 0.83116 0.90063 0.14155 0.0
H1422 H 0.80803 0.86565 0.20702 0.0
C1423 C 0.81609 0.92587 0.14566 0.0
H1424 H 0.84016 0.85965 0.1619 0.0
C1425 C 0.79775 0.92915 0.17102 0.0
C1426 C 0.79415 0.90736 0.19303 0.0
H1427 H 0.81775 0.94291 0.12867 0.0
H1428 H 0.78593 0.9486 0.17309 0.0
C1429 C 0.81043 0.88271 0.19019 0.0
C1430 C 0.87192 0.09912 0.91563 0.0
C1431 C 0.89656 0.09658 0.89767 0.0
H1432 H 0.84628 0.08163 0.95218 0.0
C1433 C 0.91639 0.07589 0.90557 0.0
H1434 H 0.85636 0.11499 0.90976 0.0
C1435 C 0.91028 0.05613 0.92921 0.0
C1436 C 0.88436 0.05711 0.94533 0.0
H1437 H 0.93533 0.07334 0.89156 0.0
H1438 H 0.92485 0.03893 0.93306 0.0
C1439 C 0.86602 0.07978 0.93953 0.0
C1440 C 0.79927 0.66556 0.68155 0.0
C1441 C 0.8003 0.63974 0.69799 0.0
H1442 H 0.81633 0.69032 0.64351 0.0
C1443 C 0.82284 0.62127 0.6922 0.0
H1444 H 0.78217 0.68025 0.68542 0.0
C1445 C 0.84203 0.62692 0.6681 0.0
C1446 C 0.83946 0.65144 0.64985 0.0
H1447 H 0.82476 0.60163 0.7051 0.0
H1448 H 0.85782 0.61124 0.66237 0.0
C1449 C 0.81887 0.67144 0.65768 0.0
C1450 C 0.61905 0.57468 0.91159 0.0
C1451 C 0.64131 0.58581 0.89375 0.0
H1452 H 0.60733 0.54756 0.95011 0.0
C1453 C 0.66909 0.58109 0.90353 0.0
H1454 H 0.59746 0.57798 0.90432 0.0
C1455 C 0.67474 0.56387 0.92937 0.0
C1456 C 0.6527 0.55084 0.94594 0.0
H1457 H 0.6866 0.58958 0.89014 0.0
H1458 H 0.69648 0.55933 0.93502 0.0
C1459 C 0.62473 0.55709 0.93748 0.0
C1460 C 0.69307 0.41675 0.15971 0.0
C1461 C 0.69395 0.3904 0.1448 0.0
H1462 H 0.71108 0.44382 0.19454 0.0
C1463 C 0.71208 0.36947 0.15627 0.0
H1464 H 0.67918 0.43316 0.15106 0.0
C1465 C 0.73108 0.37581 0.18055 0.0
C1466 C 0.73187 0.40308 0.19372 0.0
H1467 H 0.71331 0.34913 0.14466 0.0
H1468 H 0.74642 0.36005 0.18728 0.0
C1469 C 0.7116 0.42293 0.18423 0.0
C1470 C 0.85608 0.48323 0.42444 0.0
C1471 C 0.87815 0.48854 0.44552 0.0
H1472 H 0.84259 0.46196 0.38279 0.0
C1473 C 0.90362 0.47375 0.4421 0.0
H1474 H 0.83605 0.49391 0.42702 0.0
C1475 C 0.90752 0.45533 0.41649 0.0
C1476 C 0.88588 0.4515 0.39428 0.0
H1477 H 0.92088 0.47748 0.45829 0.0
H1478 H 0.92779 0.44532 0.41323 0.0
C1479 C 0.85985 0.46485 0.39921 0.0
C1480 C 0.822 0.42667 0.90624 0.0
C1481 C 0.8047 0.4047 0.89543 0.0
H1482 H 0.85239 0.43988 0.94043 0.0
C1483 C 0.8087 0.37737 0.90769 0.0
H1484 H 0.82005 0.44776 0.89665 0.0
C1485 C 0.82792 0.37274 0.93225 0.0
C1486 C 0.84306 0.39543 0.94491 0.0
H1487 H 0.79568 0.36 0.89989 0.0
H1488 H 0.82917 0.35205 0.94303 0.0
C1489 C 0.84077 0.42213 0.93098 0.0
C1490 C 0.85688 0.58916 0.18415 0.0
C1491 C 0.88421 0.59561 0.19424 0.0
H1492 H 0.8312 0.56534 0.1527 0.0
C1493 C 0.9073 0.58537 0.17705 0.0
H1494 H 0.83876 0.59684 0.19714 0.0
C1495 C 0.90299 0.567 0.15154 0.0
C1496 C 0.87554 0.55906 0.14278 0.0
H1497 H 0.92857 0.58991 0.18465 0.0
H1498 H 0.92106 0.55816 0.13948 0.0
C1499 C 0.85257 0.57118 0.15862 0.0
C1500 C 0.70638 0.6107 0.40418 0.0
C1501 C 0.72582 0.63124 0.39439 0.0
H1502 H 0.67469 0.59934 0.4378 0.0
C1503 C 0.72418 0.65847 0.40759 0.0
H1504 H 0.70649 0.58981 0.39384 0.0
C1505 C 0.70521 0.66415 0.43214 0.0
C1506 C 0.68801 0.64258 0.44392 0.0
H1507 H 0.73887 0.67476 0.40064 0.0
H1508 H 0.70582 0.68453 0.44371 0.0
C1509 C 0.68791 0.61623 0.42899 0.0
C1510 C 0.62464 0.44783 0.67484 0.0
C1511 C 0.6479 0.43677 0.69109 0.0
H1512 H 0.61046 0.47745 0.63993 0.0
C1513 C 0.67513 0.44372 0.68101 0.0
H1514 H 0.60344 0.44292 0.68245 0.0
C1515 C 0.67915 0.46322 0.65684 0.0
C1516 C 0.65602 0.47643 0.6425 0.0
H1517 H 0.69338 0.43525 0.69308 0.0
H1518 H 0.70045 0.46897 0.65041 0.0
C1519 C 0.62868 0.46765 0.65067 0.0
C1520 C 0.20273 0.38033 0.42661 0.0
C1521 C 0.19544 0.40246 0.4471 0.0
H1522 H 0.22843 0.36745 0.38734 0.0
C1523 C 0.20569 0.42967 0.44105 0.0
H1524 H 0.19519 0.35912 0.43093 0.0
C1525 C 0.22456 0.43439 0.41648 0.0
C1526 C 0.23366 0.41197 0.39741 0.0
H1527 H 0.2001 0.44719 0.45628 0.0
H1528 H 0.2328 0.45546 0.41306 0.0
C1529 C 0.2218 0.38507 0.40184 0.0
C1530 C 0.36259 0.44602 0.17679 0.0
C1531 C 0.3898 0.44107 0.18828 0.0
H1532 H 0.33689 0.46868 0.14423 0.0
C1533 C 0.41293 0.45294 0.17253 0.0
H1534 H 0.34445 0.4371 0.18867 0.0
C1535 C 0.4086 0.4714 0.14709 0.0
C1536 C 0.38114 0.47777 0.1369 0.0
H1537 H 0.43409 0.44957 0.18124 0.0
H1538 H 0.42658 0.48151 0.1362 0.0
C1539 C 0.3583 0.46406 0.15128 0.0
C1540 C 0.30701 0.66328 0.90179 0.0
C1541 C 0.29721 0.63618 0.89394 0.0
H1542 H 0.3313 0.68808 0.93452 0.0
C1543 C 0.30767 0.61277 0.91033 0.0
H1544 H 0.29928 0.68164 0.88926 0.0
C1545 C 0.32591 0.61638 0.93565 0.0
C1546 C 0.33401 0.64351 0.9453 0.0
H1547 H 0.30092 0.59164 0.90423 0.0
H1548 H 0.33263 0.59788 0.94867 0.0
C1549 C 0.32537 0.66696 0.92747 0.0
C1550 C 0.15653 0.59863 0.67357 0.0
C1551 C 0.13246 0.59538 0.69234 0.0
H1552 H 0.1819 0.58169 0.63644 0.0
C1553 C 0.11317 0.57398 0.68524 0.0
H1554 H 0.17171 0.61499 0.67888 0.0
C1555 C 0.11942 0.55423 0.66163 0.0
C1556 C 0.14492 0.55592 0.64475 0.0
H1557 H 0.09473 0.57087 0.69992 0.0
H1558 H 0.1054 0.53648 0.65846 0.0
C1559 C 0.16253 0.57929 0.64969 0.0
C1560 C 0.20469 0.66319 0.16147 0.0
C1561 C 0.18554 0.64243 0.15192 0.0
H1562 H 0.24054 0.6726 0.19011 0.0
C1563 C 0.18423 0.61684 0.16837 0.0
H1564 H 0.20626 0.68289 0.1486 0.0
C1565 C 0.20345 0.61104 0.19236 0.0
C1566 C 0.22482 0.63045 0.19963 0.0
H1567 H 0.16959 0.60056 0.16115 0.0
H1568 H 0.20269 0.59061 0.20377 0.0
C1569 C 0.22436 0.65718 0.18513 0.0
C1570 C 0.12735 0.45312 0.91319 0.0
C1571 C 0.14968 0.44673 0.89263 0.0
H1572 H 0.11399 0.47748 0.95343 0.0
C1573 C 0.17667 0.45712 0.89934 0.0
H1574 H 0.10635 0.44535 0.90847 0.0
C1575 C 0.18093 0.47541 0.92453 0.0
C1576 C 0.15832 0.48359 0.9437 0.0
H1577 H 0.19439 0.45214 0.88419 0.0
H1578 H 0.20177 0.48397 0.92838 0.0
C1579 C 0.13169 0.4715 0.93872 0.0
C1580 C 0.34153 0.41301 0.65922 0.0
C1581 C 0.34259 0.38647 0.64474 0.0
H1582 H 0.32191 0.43902 0.6939 0.0
C1583 C 0.32717 0.36404 0.65759 0.0
H1584 H 0.35321 0.43061 0.64945 0.0
C1585 C 0.30887 0.36889 0.68303 0.0
C1586 C 0.30617 0.39612 0.69598 0.0
H1587 H 0.3275 0.34348 0.64644 0.0
H1588 H 0.29586 0.35175 0.69153 0.0
C1589 C 0.32362 0.41778 0.6847 0.0
C1590 C 0.35055 0.55974 0.42397 0.0
C1591 C 0.37286 0.55021 0.44277 0.0
H1592 H 0.33808 0.5841 0.38398 0.0
C1593 C 0.39995 0.56134 0.43799 0.0
H1594 H 0.32939 0.55193 0.42768 0.0
C1595 C 0.40499 0.57999 0.41286 0.0
C1596 C 0.38292 0.58753 0.3925 0.0
H1597 H 0.41744 0.5543 0.45238 0.0
H1598 H 0.4263 0.58685 0.40808 0.0
C1599 C 0.35553 0.57823 0.39912 0.0
C1600 C 0.124 0.2327 0.36826 0.0
C1601 C 0.14334 0.2369 0.39322 0.0
H1602 H 0.11317 0.20849 0.32675 0.0
C1603 C 0.16689 0.21915 0.39486 0.0
H1604 H 0.1057 0.24615 0.36611 0.0
C1605 C 0.17082 0.19759 0.37285 0.0
C1606 C 0.15146 0.19293 0.34818 0.0
H1607 H 0.18202 0.2213 0.41386 0.0
H1608 H 0.18908 0.18415 0.37565 0.0
C1609 C 0.12818 0.21108 0.34574 0.0
C1610 C 0.05845 0.90783 0.59443 0.0
C1611 C 0.0823 0.8904 0.59486 0.0
H1612 H 0.02003 0.91984 0.61723 0.0
C1613 C 0.0846 0.86992 0.6187 0.0
H1614 H 0.05654 0.9243 0.57679 0.0
C1615 C 0.06405 0.86776 0.64249 0.0
C1616 C 0.04079 0.88623 0.64313 0.0
H1617 H 0.10331 0.85702 0.62041 0.0
H1618 H 0.06748 0.85284 0.66151 0.0
C1619 C 0.0378 0.90558 0.61803 0.0
C1620 C 0.41179 0.83683 0.86394 0.0
C1621 C 0.3892 0.83524 0.84263 0.0
H1622 H 0.43089 0.82041 0.90604 0.0
C1623 C 0.36976 0.81319 0.84605 0.0
H1624 H 0.42637 0.85426 0.86281 0.0
C1625 C 0.37223 0.79369 0.87081 0.0
C1626 C 0.39385 0.79611 0.89342 0.0
H1627 H 0.35183 0.81178 0.83031 0.0
H1628 H 0.35653 0.77727 0.8728 0.0
C1629 C 0.41414 0.81747 0.88902 0.0
C1630 C 0.46203 0.1515 0.09039 0.0
C1631 C 0.4444 0.12774 0.09143 0.0
H1632 H 0.49591 0.17424 0.11254 0.0
C1633 C 0.4488 0.10782 0.11566 0.0
H1634 H 0.45963 0.16696 0.07173 0.0
C1635 C 0.46956 0.11171 0.13864 0.0
C1636 C 0.4868 0.13574 0.13837 0.0
H1637 H 0.43573 0.08919 0.11737 0.0
H1638 H 0.47149 0.09614 0.15727 0.0
C1639 C 0.48284 0.15559 0.11378 0.0
C1640 C 0.171 0.83478 0.21854 0.0
C1641 C 0.15071 0.8407 0.24192 0.0
H1642 H 0.18229 0.81115 0.17745 0.0
C1643 C 0.12585 0.82468 0.2422 0.0
H1644 H 0.19052 0.84651 0.21751 0.0
C1645 C 0.12097 0.80421 0.21858 0.0
C1646 C 0.14119 0.7989 0.19477 0.0
H1647 H 0.11015 0.82814 0.26035 0.0
H1648 H 0.10144 0.79249 0.21897 0.0
C1649 C 0.16637 0.81428 0.19547 0.0
C1650 C 0.48432 0.90335 0.46329 0.0
C1651 C 0.47949 0.88423 0.43835 0.0
H1652 H 0.46828 0.92242 0.50575 0.0
C1653 C 0.45537 0.86701 0.43995 0.0
H1654 H 0.50279 0.91667 0.46331 0.0
C1655 C 0.43597 0.86991 0.46478 0.0
C1656 C 0.44029 0.88989 0.48879 0.0
H1657 H 0.4505 0.85242 0.42102 0.0
H1658 H 0.41666 0.85797 0.46379 0.0
C1659 C 0.4648 0.90633 0.48797 0.0
C1660 C 0.42063 0.21055 0.69082 0.0
C1661 C 0.4022 0.23382 0.68903 0.0
H1662 H 0.4309 0.17176 0.71425 0.0
C1663 C 0.38231 0.23734 0.71346 0.0
H1664 H 0.43594 0.20674 0.67233 0.0
C1665 C 0.3796 0.21722 0.73759 0.0
C1666 C 0.39708 0.19339 0.73839 0.0
H1667 H 0.36807 0.25516 0.71338 0.0
H1668 H 0.36282 0.21955 0.75475 0.0
C1669 C 0.418 0.19053 0.71514 0.0
C1670 C 0.0948 0.11416 0.95989 0.0
C1671 C 0.09554 0.1316 0.98687 0.0
H1672 H 0.07604 0.10481 0.91523 0.0
C1673 C 0.076 0.15381 0.98887 0.0
H1674 H 0.1093 0.09668 0.9574 0.0
C1675 C 0.05658 0.1586 0.96408 0.0
C1676 C 0.05648 0.14135 0.93676 0.0
H1677 H 0.07569 0.16738 1.00948 0.0
H1678 H 0.04201 0.17605 0.96602 0.0
C1679 C 0.07575 0.11895 0.93537 0.0
C1680 C 0.9024 0.83064 0.73884 0.0
C1681 C 0.87808 0.84751 0.73944 0.0
H1682 H 0.92539 0.79798 0.71444 0.0
C1683 C 0.85732 0.84271 0.71629 0.0
H1684 H 0.91844 0.83318 0.75671 0.0
C1685 C 0.8609 0.82236 0.69278 0.0
C1686 C 0.8855 0.80609 0.69129 0.0
H1687 H 0.8382 0.85512 0.71586 0.0
H1688 H 0.84461 0.82 0.67507 0.0
C1689 C 0.90626 0.81037 0.71471 0.0
C1690 C 0.99571 0.14413 0.46838 0.0
C1691 C 0.98854 0.15676 0.43924 0.0
H1692 H 0.98112 0.12944 0.51373 0.0
C1693 C 0.96116 0.16764 0.43573 0.0
H1694 H 0.01661 0.13574 0.47215 0.0
C1695 C 0.94109 0.16433 0.45973 0.0
C1696 C 0.94789 0.15054 0.48811 0.0
H1697 H 0.95456 0.17707 0.4136 0.0
H1698 H 0.91972 0.17099 0.45514 0.0
C1699 C 0.97554 0.14096 0.49248 0.0
C1700 C 0.62765 0.22783 0.21454 0.0
C1701 C 0.64794 0.23178 0.19047 0.0
H1702 H 0.61586 0.20494 0.25671 0.0
C1703 C 0.67222 0.21495 0.19111 0.0
H1704 H 0.6088 0.24063 0.21499 0.0
C1705 C 0.67593 0.19445 0.21445 0.0
C1706 C 0.65559 0.19 0.23817 0.0
H1707 H 0.68813 0.21699 0.17288 0.0
H1708 H 0.69476 0.18163 0.21343 0.0
C1709 C 0.6316 0.20734 0.23839 0.0
C1710 C 0.5687 0.86088 0.94362 0.0
C1711 C 0.54635 0.88007 0.93936 0.0
H1712 H 0.60647 0.85098 0.96875 0.0
C1713 C 0.54303 0.90176 0.96184 0.0
H1714 H 0.57193 0.84375 0.92706 0.0
C1715 C 0.5625 0.90523 0.98649 0.0
C1716 C 0.58555 0.88691 0.98969 0.0
H1717 H 0.52647 0.91726 0.95926 0.0
H1718 H 0.56048 0.92333 1.00197 0.0
C1719 C 0.58819 0.86447 0.96823 0.0
C1720 C 0.90234 0.20684 0.9074 0.0
C1721 C 0.90463 0.23579 0.90083 0.0
H1722 H 0.89467 0.1656 0.88941 0.0
C1723 C 0.90531 0.24437 0.8688 0.0
H1724 H 0.9025 0.19924 0.93158 0.0
C1725 C 0.90161 0.22459 0.8442 0.0
C1726 C 0.89723 0.19599 0.85127 0.0
H1727 H 0.90706 0.26649 0.86282 0.0
H1728 H 0.90021 0.23192 0.81996 0.0
C1729 C 0.89838 0.18737 0.88307 0.0
C1730 C 0.54804 0.12684 0.61842 0.0
C1731 C 0.55295 0.14494 0.64431 0.0
H1732 H 0.5641 0.10906 0.57522 0.0
C1733 C 0.57741 0.16175 0.64371 0.0
H1734 H 0.52935 0.11384 0.6176 0.0
C1735 C 0.59698 0.15939 0.61893 0.0
C1736 C 0.59252 0.14042 0.59392 0.0
H1737 H 0.58237 0.17557 0.66331 0.0
H1738 H 0.61648 0.17103 0.62054 0.0
C1739 C 0.56771 0.12442 0.59376 0.0
C1740 C 0.61738 0.84365 0.37538 0.0
C1741 C 0.63221 0.8373 0.34753 0.0
H1742 H 0.60423 0.82994 0.42125 0.0
C1743 C 0.64286 0.80994 0.34357 0.0
H1744 H 0.60972 0.86478 0.37961 0.0
C1745 C 0.63988 0.78972 0.36767 0.0
C1746 C 0.62646 0.79656 0.39648 0.0
H1747 H 0.65508 0.80471 0.32271 0.0
H1748 H 0.64914 0.76909 0.36421 0.0
C1749 C 0.61436 0.82355 0.39944 0.0
C1750 C 0.95613 0.88225 0.0953 0.0
C1751 C 0.93705 0.90483 0.09737 0.0
H1752 H 0.99043 0.86003 0.11742 0.0
C1753 C 0.93895 0.92305 0.12357 0.0
H1754 H 0.95544 0.86804 0.07526 0.0
C1755 C 0.95878 0.91863 0.14741 0.0
C1756 C 0.97758 0.89584 0.14596 0.0
H1757 H 0.92479 0.94082 0.12599 0.0
H1758 H 0.95943 0.93331 0.16704 0.0
C1759 C 0.97628 0.87783 0.11935 0.0
C1760 C 0.66399 0.70607 0.85715 0.0
C1761 C 0.64119 0.68893 0.84842 0.0
H1762 H 0.67983 0.73806 0.88803 0.0
C1763 C 0.61536 0.69284 0.86401 0.0
H1764 H 0.68427 0.70345 0.84579 0.0
C1765 C 0.61286 0.71255 0.88881 0.0
C1766 C 0.63623 0.72862 0.89867 0.0
H1767 H 0.59774 0.67933 0.85877 0.0
H1768 H 0.59309 0.71398 0.90145 0.0
C1769 C 0.66153 0.72572 0.8817 0.0
C1770 C 0.5757 0.37474 0.09449 0.0
C1771 C 0.5929 0.39882 0.09568 0.0
H1772 H 0.54183 0.35159 0.11639 0.0
C1773 C 0.58767 0.41887 0.11959 0.0
H1774 H 0.57863 0.35922 0.07602 0.0
C1775 C 0.56657 0.41486 0.14208 0.0
C1776 C 0.54981 0.39056 0.14174 0.0
H1777 H 0.60034 0.43777 0.12145 0.0
H1778 H 0.564 0.43059 0.16045 0.0
C1779 C 0.55455 0.37048 0.11755 0.0
C1780 C 0.90557 0.32917 0.34804 0.0
C1781 C 0.88143 0.34631 0.34755 0.0
H1782 H 0.9284 0.29641 0.37243 0.0
C1783 C 0.8609 0.34201 0.37112 0.0
H1784 H 0.92146 0.33136 0.32985 0.0
C1785 C 0.86453 0.3219 0.39492 0.0
C1786 C 0.88892 0.30526 0.39623 0.0
H1787 H 0.84194 0.35466 0.37165 0.0
H1788 H 0.84842 0.31998 0.41294 0.0
C1789 C 0.90945 0.30907 0.37238 0.0
C1790 C 0.96964 0.63943 0.59774 0.0
C1791 C 0.94259 0.65094 0.60082 0.0
H1792 H 1.00978 0.63232 0.61941 0.0
C1793 C 0.93608 0.66628 0.62829 0.0
H1794 H 0.97493 0.62678 0.57722 0.0
C1795 C 0.95573 0.66902 0.65279 0.0
C1796 C 0.98237 0.65615 0.65066 0.0
H1797 H 0.91511 0.67452 0.63187 0.0
H1798 H 0.94922 0.67961 0.6743 0.0
C1799 C 0.98939 0.64217 0.62225 0.0
C1800 C 0.67767 0.3298 0.71902 0.0
C1801 C 0.65664 0.33462 0.7419 0.0
H1802 H 0.69063 0.30758 0.67754 0.0
C1803 C 0.63222 0.31792 0.74077 0.0
H1804 H 0.69691 0.342 0.71905 0.0
C1805 C 0.62841 0.29808 0.71617 0.0
C1806 C 0.64937 0.29394 0.69288 0.0
H1807 H 0.61604 0.32036 0.75858 0.0
H1808 H 0.60916 0.28593 0.71541 0.0
C1809 C 0.67415 0.30985 0.69508 0.0
C1810 C 0.96241 0.38485 0.99294 0.0
C1811 C 0.94222 0.40639 0.99004 0.0
H1812 H 0.99757 0.36343 0.9713 0.0
C1813 C 0.94297 0.42347 0.96277 0.0
H1814 H 0.96274 0.37159 1.0138 0.0
C1815 C 0.96272 0.41904 0.93885 0.0
C1816 C 0.98265 0.39731 0.94111 0.0
H1817 H 0.92798 0.44043 0.95958 0.0
H1818 H 0.96242 0.43294 0.9185 0.0
C1819 C 0.9825 0.38039 0.9687 0.0
C1820 C 0.9026 0.73557 0.2242 0.0
C1821 C 0.88309 0.7393 0.19931 0.0
H1822 H 0.9135 0.71257 0.2666 0.0
C1823 C 0.85916 0.72199 0.19886 0.0
H1824 H 0.92115 0.74874 0.22556 0.0
C1825 C 0.8551 0.70125 0.2219 0.0
C1826 C 0.87475 0.69696 0.24636 0.0
H1827 H 0.84383 0.72381 0.18001 0.0
H1828 H 0.8366 0.68805 0.22 0.0
C1829 C 0.89831 0.71481 0.24769 0.0
C1830 C 0.5661 0.61807 0.48897 0.0
C1831 C 0.58685 0.6387 0.49358 0.0
H1832 H 0.53013 0.60473 0.4625 0.0
C1833 C 0.58639 0.66291 0.47448 0.0
H1834 H 0.56632 0.59891 0.50295 0.0
C1835 C 0.56599 0.66606 0.45072 0.0
C1836 C 0.54567 0.64494 0.44534 0.0
H1837 H 0.60296 0.67839 0.47622 0.0
H1838 H 0.56716 0.68436 0.43545 0.0
C1839 C 0.54562 0.62124 0.46542 0.0
C1840 C 0.36633 0.31367 0.19178 0.0
C1841 C 0.39018 0.29627 0.19283 0.0
H1842 H 0.34365 0.34791 0.212 0.0
C1843 C 0.4095 0.30025 0.21786 0.0
H1844 H 0.35117 0.31166 0.17279 0.0
C1845 C 0.40502 0.32131 0.241 0.0
C1846 C 0.3815 0.33922 0.23907 0.0
H1847 H 0.42799 0.28703 0.21962 0.0
H1848 H 0.42 0.3237 0.26008 0.0
C1849 C 0.36212 0.33471 0.21439 0.0
C1850 C 0.45663 0.66141 0.94371 0.0
C1851 C 0.48088 0.6443 0.94471 0.0
H1852 H 0.4168 0.6715 0.96474 0.0
C1853 C 0.48473 0.62678 0.97134 0.0
H1854 H 0.45253 0.67486 0.92352 0.0
C1855 C 0.46408 0.62493 0.99499 0.0
C1856 C 0.43937 0.641 0.99305 0.0
H1857 H 0.50326 0.61364 0.97341 0.0
H1858 H 0.46682 0.60989 1.01405 0.0
C1859 C 0.4361 0.65967 0.96753 0.0
C1860 C 0.15053 0.73939 0.7108 0.0
C1861 C 0.12831 0.73634 0.68904 0.0
H1862 H 0.17244 0.72199 0.75068 0.0
C1863 C 0.10852 0.71472 0.6945 0.0
H1864 H 0.16645 0.75539 0.7073 0.0
C1865 C 0.1119 0.69568 0.71974 0.0
C1866 C 0.13497 0.69795 0.74032 0.0
H1867 H 0.09099 0.71177 0.67849 0.0
H1868 H 0.09767 0.67798 0.72155 0.0
C1869 C 0.15392 0.72031 0.73587 0.0
C1870 C 0.05286 0.37899 0.47318 0.0
C1871 C 0.04865 0.39952 0.44938 0.0
H1872 H 0.07618 0.36672 0.51481 0.0
C1873 C 0.06537 0.4239 0.45016 0.0
H1874 H 0.04017 0.36006 0.47358 0.0
C1875 C 0.08599 0.42746 0.47336 0.0
C1876 C 0.09072 0.40682 0.49673 0.0
H1877 H 0.06318 0.44001 0.43216 0.0
H1878 H 0.09873 0.44636 0.47247 0.0
C1879 C 0.07351 0.38273 0.4968 0.0
C1880 C 0.40345 0.72835 0.36753 0.0
C1881 C 0.38231 0.73275 0.39052 0.0
H1882 H 0.41643 0.70516 0.32601 0.0
C1883 C 0.35782 0.71633 0.38876 0.0
H1884 H 0.42249 0.74084 0.36799 0.0
C1885 C 0.35475 0.69569 0.36547 0.0
C1886 C 0.37594 0.69071 0.34285 0.0
H1887 H 0.34122 0.71879 0.40613 0.0
H1888 H 0.33573 0.68313 0.36571 0.0
C1889 C 0.4001 0.70781 0.3436 0.0
C1890 C 0.0809 0.61411 0.12545 0.0
C1891 C 0.08566 0.63288 0.10016 0.0
H1892 H 0.05775 0.60442 0.16732 0.0
C1893 C 0.06812 0.65663 0.09742 0.0
H1894 H 0.09383 0.5955 0.1285 0.0
C1895 C 0.04714 0.66193 0.12039 0.0
C1896 C 0.04292 0.64318 0.14597 0.0
H1897 H 0.0707 0.67112 0.07785 0.0
H1898 H 0.03416 0.68058 0.11808 0.0
C1899 C 0.05997 0.61913 0.14785 0.0
C1900 C 0.17462 0.33595 0.86825 0.0
C1901 C 0.15421 0.34175 0.84501 0.0
H1902 H 0.18652 0.31175 0.90869 0.0
C1903 C 0.12978 0.3251 0.84432 0.0
H1904 H 0.19378 0.34822 0.86959 0.0
C1905 C 0.12548 0.30396 0.86734 0.0
C1906 C 0.14583 0.29868 0.89096 0.0
H1907 H 0.11394 0.3286 0.82637 0.0
H1908 H 0.10627 0.29172 0.86663 0.0
C1909 C 0.17055 0.31481 0.89074 0.0
C1910 C 0.46442 0.40891 0.64799 0.0
C1911 C 0.48409 0.38715 0.64421 0.0
H1912 H 0.42858 0.43034 0.63007 0.0
C1913 C 0.4818 0.36971 0.61715 0.0
H1914 H 0.46493 0.42237 0.6687 0.0
C1915 C 0.4605 0.37438 0.59436 0.0
C1916 C 0.44089 0.39628 0.59852 0.0
H1917 H 0.49667 0.35275 0.6134 0.0
H1918 H 0.45952 0.36105 0.57359 0.0
C1919 C 0.44331 0.41336 0.62567 0.0
C1920 C 0.08745 0.03361 0.2824 0.0
C1921 C 0.11338 0.04789 0.28219 0.0
H1922 H 0.06602 0.99393 0.287 0.0
C1923 C 0.13814 0.03206 0.28616 0.0
H1924 H 0.06795 0.04521 0.27994 0.0
C1925 C 0.13706 1.00262 0.28971 0.0
C1926 C 0.11112 0.98842 0.29055 0.0
H1927 H 0.1584 0.04248 0.28653 0.0
H1928 H 0.15653 0.99096 0.29211 0.0
C1929 C 0.08631 1.00427 0.28692 0.0
C1930 C 0.24707 0.8412 0.53691 0.0
C1931 C 0.23217 0.86682 0.53671 0.0
H1932 H 0.28689 0.8205 0.54217 0.0
C1933 C 0.24725 0.89197 0.54168 0.0
H1934 H 0.23612 0.8214 0.53364 0.0
C1935 C 0.27663 0.89149 0.546 0.0
C1936 C 0.29137 0.86577 0.54677 0.0
H1937 H 0.23632 0.912 0.54202 0.0
H1938 H 0.2878 0.9112 0.549 0.0
C1939 C 0.27618 0.84065 0.54226 0.0
C1940 C 0.4432 0.99863 0.78924 0.0
C1941 C 0.4175 0.98442 0.78512 0.0
H1942 H 0.46408 0.03794 0.79804 0.0
C1943 C 0.39244 1.00012 0.78691 0.0
H1944 H 0.46288 0.98714 0.78857 0.0
C1945 C 0.39317 0.02949 0.7918 0.0
C1946 C 0.4189 0.04358 0.79633 0.0
H1947 H 0.37232 0.98971 0.78424 0.0
H1948 H 0.37361 0.04118 0.79217 0.0
C1949 C 0.44388 0.02773 0.79517 0.0
C1950 C 0.25401 0.14665 1.04218 0.0
C1951 C 0.23907 0.1722 0.0443 0.0
H1952 H 0.29442 0.12642 1.03862 0.0
C1953 C 0.25438 0.19758 1.04317 0.0
H1954 H 0.24285 0.12675 1.04269 0.0
C1955 C 0.2838 0.1974 1.03967 0.0
C1956 C 0.29878 0.17183 1.03799 0.0
H1957 H 0.24355 0.21764 0.04432 0.0
H1958 H 0.29489 0.21732 1.03893 0.0
C1959 C 0.28351 0.14646 1.03957 0.0
C1960 C 0.94407 0.03488 0.79483 0.0
C1961 C 0.91914 0.05088 0.79381 0.0
H1962 H 0.96287 0.99406 0.8011 0.0
C1963 C 0.89343 0.03698 0.79902 0.0
H1964 H 0.96428 0.04495 0.79143 0.0
C1965 C 0.8926 1.00769 0.80414 0.0
C1966 C 0.91754 0.99174 0.8054 0.0
H1967 H 0.87391 0.04874 0.79878 0.0
H1968 H 0.87241 0.99743 0.80702 0.0
C1969 C 0.9433 1.00576 0.80091 0.0
C1970 C 0.75411 0.19408 0.53535 0.0
C1971 C 0.73981 0.16833 0.53165 0.0
H1972 H 0.79338 0.21492 0.54405 0.0
C1973 C 0.75543 0.14318 0.53367 0.0
H1974 H 0.74272 0.21384 0.53451 0.0
C1975 C 0.78471 0.14382 0.53863 0.0
C1976 C 0.79885 0.16959 0.54299 0.0
H1977 H 0.74496 0.123 0.53136 0.0
H1978 H 0.79627 0.12416 0.53941 0.0
C1979 C 0.78314 0.19468 0.54133 0.0
C1980 C 0.58648 0.03079 0.29038 0.0
C1981 C 0.6118 0.04525 0.29598 0.0
H1982 H 0.56638 0.99099 0.28196 0.0
C1983 C 0.63686 0.02956 0.29776 0.0
H1984 H 0.56687 0.04226 0.28837 0.0
C1985 C 0.63653 1.00004 0.29462 0.0
C1986 C 0.61127 0.98564 0.28843 0.0
H1987 H 0.65673 0.04015 0.30167 0.0
H1988 H 0.65607 0.98847 0.29676 0.0
C1989 C 0.58627 1.00141 0.28625 0.0
C1990 C 0.7489 0.88686 1.03957 0.0
C1991 C 0.73449 0.86177 0.04673 0.0
H1992 H 0.78896 0.9068 1.03167 0.0
C1993 C 0.75015 0.83672 0.04965 0.0
H1994 H 0.73742 0.90643 1.03684 0.0
C1995 C 0.77944 0.83672 0.04537 0.0
C1996 C 0.79392 0.86191 1.03886 0.0
H1997 H 0.7397 0.81694 0.05471 0.0
H1998 H 0.79083 0.81709 0.04802 0.0
C1999 C 0.77834 0.88703 1.03629 0.0
C2000 C 0.58663 0.52462 0.78454 0.0
C2001 C 0.61198 0.53993 0.78449 0.0
H2002 H 0.56666 0.48419 0.78893 0.0
C2003 C 0.63731 0.52505 0.78863 0.0
H2004 H 0.56669 0.53542 0.78191 0.0
C2005 C 0.63731 0.49555 0.79216 0.0
C2006 C 0.61191 0.48034 0.79278 0.0
H2007 H 0.65715 0.53626 0.78907 0.0
H2008 H 0.65719 0.48462 0.79466 0.0
C2009 C 0.58657 0.49527 0.78902 0.0
C2010 C 0.78371 0.38889 0.04711 0.0
C2011 C 0.79961 0.36398 0.04983 0.0
H2012 H 0.74268 0.40742 1.04163 0.0
C2013 C 0.78546 0.33799 0.04752 0.0
H2014 H 0.79399 0.40923 0.04842 0.0
C2015 C 0.75624 0.33696 1.04234 0.0
C2016 C 0.74029 0.36188 1.0401 0.0
H2017 H 0.79707 0.31839 0.04904 0.0
H2018 H 0.74605 0.3166 1.04079 0.0
C2019 C 0.75438 0.38785 1.04288 0.0
C2020 C 0.89647 0.53583 0.2951 0.0
C2021 C 0.92141 0.55156 0.29785 0.0
H2022 H 0.8777 0.49476 0.291 0.0
C2023 C 0.94725 0.53708 0.29711 0.0
H2024 H 0.87626 0.54638 0.29532 0.0
C2025 C 0.9481 0.50761 0.2935 0.0
C2026 C 0.92312 0.49184 0.29127 0.0
H2027 H 0.96686 0.54856 0.29876 0.0
H2028 H 0.96833 0.49712 0.29319 0.0
C2029 C 0.8973 0.50631 0.29234 0.0
C2030 C 0.75099 0.64408 0.55007 0.0
C2031 C 0.73527 0.66916 0.55205 0.0
H2032 H 0.79203 0.6253 0.54527 0.0
C2033 C 0.74951 0.695 0.54896 0.0
H2034 H 0.74057 0.62386 0.55199 0.0
C2035 C 0.77864 0.69579 0.54373 0.0
C2036 C 0.79449 0.67077 0.54228 0.0
H2037 H 0.73801 0.71471 0.54985 0.0
H2038 H 0.78886 0.71609 0.54154 0.0
C2039 C 0.78036 0.6449 0.5459 0.0
C2040 C 0.39752 0.53 0.28849 0.0
C2041 C 0.42279 0.54541 0.2884 0.0
H2042 H 0.37794 0.48917 0.28993 0.0
C2043 C 0.44829 0.5305 0.29091 0.0
H2044 H 0.37753 0.54087 0.28686 0.0
C2045 C 0.44847 0.50095 0.29386 0.0
C2046 C 0.42319 0.48552 0.29357 0.0
H2047 H 0.46811 0.54171 0.29133 0.0
H2048 H 0.46846 0.49014 0.29577 0.0
C2049 C 0.39774 0.50042 0.29053 0.0
C2050 C 0.27715 0.69646 0.05207 0.0
C2051 C 0.29209 0.67092 0.05448 0.0
H2052 H 0.23704 0.71662 0.04613 0.0
C2053 C 0.27692 0.64551 0.05309 0.0
H2054 H 0.28822 0.7164 0.05253 0.0
C2055 C 0.24747 0.64567 0.05002 0.0
C2056 C 0.23261 0.67119 0.047 0.0
H2057 H 0.28786 0.62552 0.0545 0.0
H2058 H 0.23631 0.62578 0.04971 0.0
C2059 C 0.24784 0.69658 0.04796 0.0
C2060 C 0.13921 0.50428 0.78928 0.0
C2061 C 0.11395 0.48885 0.78996 0.0
H2062 H 0.15888 0.54507 0.79241 0.0
C2063 C 0.08875 0.50347 0.79593 0.0
H2064 H 0.159 0.49357 0.78512 0.0
C2065 C 0.08883 0.53268 0.80144 0.0
C2066 C 0.11403 0.54821 0.80033 0.0
H2067 H 0.06897 0.49222 0.79714 0.0
H2068 H 0.06901 0.54321 0.80591 0.0
C2069 C 0.13919 0.53369 0.79379 0.0
C2070 C 0.25107 0.33539 0.54059 0.0
C2071 C 0.23648 0.36071 0.5465 0.0
H2072 H 0.2909 0.31551 0.53133 0.0
C2073 C 0.25197 0.38593 0.5476 0.0
H2074 H 0.23976 0.31563 0.5391 0.0
C2075 C 0.28133 0.38581 0.54358 0.0
C2076 C 0.29589 0.36058 0.53727 0.0
H2077 H 0.24135 0.4058 0.55176 0.0
H2078 H 0.29268 0.40553 0.54534 0.0
C2079 C 0.28035 0.33537 0.53567 0.0
C2080 C 0.16249 0.15907 0.15211 0.0
C2081 C 0.13886 0.16085 0.13231 0.0
H2082 H 0.1788 0.15382 0.19873 0.0
C2083 C 0.11204 0.16039 0.14673 0.0
H2084 H 0.18342 0.15903 0.14195 0.0
C2085 C 0.10918 0.15695 0.18005 0.0
C2086 C 0.1331 0.15379 0.1996 0.0
H2087 H 0.09335 0.16108 0.13214 0.0
H2088 H 0.08833 0.15536 0.19021 0.0
C2089 C 0.15971 0.15582 0.18494 0.0
C2090 C 0.13028 0.90945 0.43521 0.0
C2091 C 0.12915 0.88277 0.45 0.0
H2092 H 0.12939 0.9334 0.39228 0.0
C2093 C 0.12316 0.8593 0.43048 0.0
H2094 H 0.1345 0.92831 0.44886 0.0
C2095 C 0.11968 0.86251 0.39717 0.0
C2096 C 0.12222 0.88925 0.38268 0.0
H2097 H 0.12211 0.8384 0.4407 0.0
H2098 H 0.11646 0.84398 0.38267 0.0
C2099 C 0.12711 0.91254 0.40243 0.0
C2100 C 0.42216 0.89548 0.67736 0.0
C2101 C 0.40715 0.87839 0.69866 0.0
H2102 H 0.42854 0.9077 0.62879 0.0
C2103 C 0.38916 0.85761 0.68603 0.0
H2104 H 0.4356 0.91213 0.68621 0.0
C2105 C 0.38576 0.85445 0.65301 0.0
C2106 C 0.39946 0.8727 0.63177 0.0
H2107 H 0.37685 0.84448 0.70179 0.0
H2108 H 0.37088 0.83905 0.64422 0.0
C2109 C 0.41801 0.89298 0.64442 0.0
C2110 C 0.37966 0.15526 0.89677 0.0
C2111 C 0.40623 0.15071 0.88275 0.0
H2112 H 0.35566 0.1613 0.93921 0.0
C2113 C 0.43002 0.15227 0.90274 0.0
H2114 H 0.36071 0.15455 0.88258 0.0
C2115 C 0.42695 0.15657 0.9359 0.0
C2116 C 0.40008 0.15968 0.94973 0.0
H2117 H 0.45082 0.14877 0.89307 0.0
H2118 H 0.44541 0.1558 0.95086 0.0
C2119 C 0.37668 0.15949 0.92946 0.0
C2120 C 0.87802 0.87015 0.90048 0.0
C2121 C 0.90286 0.88102 0.88687 0.0
H2122 H 0.85546 0.85928 0.94283 0.0
C2123 C 0.92587 0.88587 0.90721 0.0
H2124 H 0.85976 0.8662 0.8858 0.0
C2125 C 0.92326 0.88188 0.94039 0.0
C2126 C 0.89782 0.87232 0.95391 0.0
H2127 H 0.94515 0.89468 0.89782 0.0
H2128 H 0.94052 0.88796 0.95563 0.0
C2129 C 0.87556 0.8659 0.9333 0.0
C2130 C 0.88614 0.13252 0.68416 0.0
C2131 C 0.90471 0.1496 0.70166 0.0
H2132 H 0.86802 0.12183 0.6397 0.0
C2133 C 0.92002 0.17026 0.68469 0.0
H2134 H 0.87393 0.11626 0.6958 0.0
C2135 C 0.91629 0.17375 0.65136 0.0
C2136 C 0.89757 0.15633 0.63417 0.0
H2137 H 0.93438 0.18402 0.69717 0.0
H2138 H 0.92827 0.18979 0.63909 0.0
C2139 C 0.88276 0.13571 0.65145 0.0
C2140 C 0.6366 0.17863 0.42746 0.0
C2141 C 0.6312 0.15591 0.44817 0.0
H2142 H 0.63932 0.19272 0.37881 0.0
C2143 C 0.62034 0.13093 0.43476 0.0
H2144 H 0.64537 0.19803 0.43665 0.0
C2145 C 0.61654 0.12806 0.40189 0.0
C2146 C 0.62334 0.15006 0.38098 0.0
H2147 H 0.61585 0.11291 0.44967 0.0
H2148 H 0.60977 0.10788 0.39262 0.0
C2149 C 0.633 0.17562 0.39424 0.0
C2150 C 0.64904 0.90086 0.15127 0.0
C2151 C 0.63472 0.87959 0.1345 0.0
H2152 H 0.65734 0.92105 0.19536 0.0
C2153 C 0.61638 0.86197 0.15188 0.0
H2154 H 0.66344 0.91494 0.13923 0.0
C2155 C 0.6125 0.86588 0.185 0.0
C2156 C 0.62736 0.88708 0.2015 0.0
H2157 H 0.60486 0.84544 0.1399 0.0
H2158 H 0.59839 0.85201 0.19773 0.0
C2159 C 0.64558 0.90438 0.18389 0.0
C2160 C 0.60521 0.6317 0.68157 0.0
C2161 C 0.61949 0.64892 0.70333 0.0
H2162 H 0.59954 0.62015 0.63271 0.0
C2163 C 0.63683 0.67052 0.6913 0.0
H2164 H 0.59232 0.61442 0.68997 0.0
C2165 C 0.64036 0.67437 0.6584 0.0
C2166 C 0.62747 0.65599 0.63669 0.0
H2167 H 0.64864 0.68374 0.70743 0.0
H2168 H 0.65475 0.69042 0.65005 0.0
C2169 C 0.6095 0.63491 0.64873 0.0
C2170 C 0.62469 0.40504 0.90351 0.0
C2171 C 0.6241 0.381 0.88411 0.0
H2172 H 0.62974 0.42237 0.94978 0.0
C2173 C 0.62651 0.35444 0.89905 0.0
H2174 H 0.62334 0.42584 0.89297 0.0
C2175 C 0.63058 0.35232 0.93238 0.0
C2176 C 0.63262 0.37673 0.95145 0.0
H2177 H 0.6269 0.33546 0.88483 0.0
H2178 H 0.63365 0.33172 0.94287 0.0
C2179 C 0.62869 0.40298 0.93634 0.0
C2180 C 0.90792 0.36095 0.15696 0.0
C2181 C 0.90724 0.38502 0.13726 0.0
H2182 H 0.91003 0.34498 0.20498 0.0
C2183 C 0.9123 0.41137 0.15165 0.0
H2184 H 0.90385 0.34033 0.147 0.0
C2185 C 0.91605 0.41394 0.18448 0.0
C2186 C 0.91517 0.39031 0.20449 0.0
H2187 H 0.91221 0.43046 0.1376 0.0
H2188 H 0.91818 0.43486 0.19451 0.0
C2189 C 0.91165 0.36359 0.19026 0.0
C2190 C 0.90163 0.62674 0.4076 0.0
C2191 C 0.9059 0.65019 0.38785 0.0
H2192 H 0.89445 0.61075 0.45402 0.0
C2193 C 0.90764 0.67696 0.40235 0.0
H2194 H 0.89999 0.60582 0.39744 0.0
C2195 C 0.90394 0.68004 0.43564 0.0
C2196 C 0.89846 0.6564 0.45512 0.0
H2197 H 0.91038 0.6956 0.38786 0.0
H2198 H 0.90433 0.70096 0.44587 0.0
C2199 C 0.89819 0.62971 0.44037 0.0
C2200 C 0.4121 0.35983 0.39739 0.0
C2201 C 0.40924 0.38636 0.38249 0.0
H2202 H 0.40934 0.3361 0.44119 0.0
C2203 C 0.40358 0.40975 0.40187 0.0
H2204 H 0.41594 0.34122 0.38319 0.0
C2205 C 0.39986 0.40692 0.43461 0.0
C2206 C 0.40122 0.38042 0.44977 0.0
H2207 H 0.40105 0.43047 0.39142 0.0
H2208 H 0.39497 0.42582 0.44793 0.0
C2209 C 0.40811 0.35688 0.43068 0.0
C2210 C 0.40405 0.67489 0.18947 0.0
C2211 C 0.41021 0.64817 0.20247 0.0
H2212 H 0.3935 0.69867 0.14738 0.0
C2213 C 0.41317 0.62536 0.18158 0.0
H2214 H 0.40083 0.69276 0.205 0.0
C2215 C 0.40881 0.62862 0.14898 0.0
C2216 C 0.401 0.65482 0.13586 0.0
H2217 H 0.41738 0.60443 0.19076 0.0
H2218 H 0.41039 0.61009 0.13412 0.0
C2219 C 0.39966 0.67823 0.15644 0.0
C2220 C 0.15368 0.64076 0.90436 0.0
C2221 C 0.12899 0.6491 0.8884 0.0
H2222 H 0.17579 0.63625 0.94803 0.0
C2223 C 0.1074 0.66145 0.90688 0.0
H2224 H 0.171 0.6312 0.89161 0.0
C2225 C 0.1105 0.66482 0.94023 0.0
C2226 C 0.13506 0.65547 0.95587 0.0
H2227 H 0.08808 0.66825 0.89568 0.0
H2228 H 0.09335 0.67373 0.95382 0.0
C2229 C 0.15653 0.64369 0.93715 0.0
C2230 C 0.15372 0.36895 0.68962 0.0
C2231 C 0.12846 0.37861 0.70339 0.0
H2232 H 0.17672 0.35952 0.64717 0.0
C2233 C 0.10516 0.38249 0.68318 0.0
H2234 H 0.17216 0.3657 0.70421 0.0
C2235 C 0.10787 0.37875 0.64994 0.0
C2236 C 0.13376 0.37063 0.63627 0.0
H2237 H 0.08553 0.39037 0.69271 0.0
H2238 H 0.09028 0.38405 0.6348 0.0
C2239 C 0.15633 0.36512 0.65678 0.0
loop_
_geom_bond_atom_site_label_1
_geom_bond_atom_site_label_2
_geom_bond_distance
_geom_bond_site_symmetry_2
_ccdc_geom_bond_type
Gd0 C3 2.818 . S
Gd0 O20 2.377 . S
Gd0 O22 2.448 . S
Gd0 O23 2.506 . S
Gd0 O24 2.435 . S
Gd0 O25 2.717 . S
Gd0 O27 2.395 . S
Gd0 O31 2.327 . S
Gd1 C12 2.818 . S
Gd1 O21 2.395 . S
Gd1 O25 2.327 . S
Gd1 O26 2.377 . S
Gd1 O28 2.448 . S
Gd1 O29 2.506 . S
Gd1 O30 2.435 . S
Gd1 O31 2.717 . S
C2 O20 1.240 . S
C2 O21 1.240 . S
C3 Gd0 2.818 . S
C3 C4 1.510 . S
C3 O22 1.249 . S
C3 O23 1.252 . S
C4 C3 1.510 . S
C4 C5 1.404 . S
C4 C6 1.352 . S
C5 C4 1.404 . S
C5 C9 1.389 . S
C5 H32 0.930 . S
C6 C4 1.352 . S
C6 C8 1.374 . S
C6 H33 0.931 . S
C7 C8 1.359 . S
C7 C9 1.364 . S
C8 C6 1.374 . S
C8 C7 1.359 . S
C8 H34 0.931 . S
C9 C5 1.389 . S
C9 C7 1.364 . S
C9 H35 0.931 . S
C10 O24 1.256 . S
C10 O25 1.257 . S
C11 O26 1.240 . S
C11 O27 1.240 . S
C12 Gd1 2.818 . S
C12 C13 1.510 . S
C12 O28 1.249 . S
C12 O29 1.252 . S
C13 C12 1.510 . S
C13 C14 1.404 . S
C13 C15 1.352 . S
C14 C13 1.404 . S
C14 C18 1.389 1_455 S
C14 H36 0.930 . S
C15 C13 1.352 . S
C15 C17 1.374 . S
C15 H37 0.931 . S
C16 C17 1.359 1_655 S
C16 C18 1.364 . S
C17 C15 1.374 . S
C17 C16 1.359 1_455 S
C17 H38 0.931 . S
C18 C14 1.389 1_655 S
C18 C16 1.364 . S
C18 H39 0.931 . S
C19 O30 1.256 . S
C19 O31 1.257 . S
O20 Gd0 2.377 . S
O20 C2 1.240 . S
O21 Gd1 2.395 . S
O21 C2 1.240 . S
O22 Gd0 2.448 . S
O22 C3 1.249 . S
O23 Gd0 2.506 . S
O23 C3 1.252 . S
O24 Gd0 2.435 . S
O24 C10 1.256 . S
O25 Gd0 2.717 . S
O25 Gd1 2.327 . S
O25 C10 1.257 . S
O26 Gd1 2.377 . S
O26 C11 1.240 . S
O27 Gd0 2.395 . S
O27 C11 1.240 . S
O28 Gd1 2.448 . S
O28 C12 1.249 . S
O29 Gd1 2.506 . S
O29 C12 1.252 . S
O30 Gd1 2.435 . S
O30 C19 1.256 . S
O31 Gd0 2.327 . S
O31 Gd1 2.717 . S
O31 C19 1.257 . S
H32 C5 0.930 . S
H33 C6 0.931 . S
H34 C8 0.931 . S
H35 C9 0.931 . S
H36 C14 0.930 . S
H37 C15 0.931 . S
H38 C17 0.931 . S
H39 C18 0.931 . S
Gd40 C43 2.818 . S
Gd40 O60 2.377 . S
Gd40 O62 2.448 . S
Gd40 O63 2.506 . S
Gd40 O64 2.435 . S
Gd40 O65 2.717 . S
Gd40 O67 2.395 . S
Gd40 O71 2.327 . S
Gd41 C52 2.818 . S
Gd41 O61 2.395 . S
Gd41 O65 2.327 . S
Gd41 O66 2.377 . S
Gd41 O68 2.448 . S
Gd41 O69 2.506 . S
Gd41 O70 2.435 . S
Gd41 O71 2.717 . S
C42 O60 1.240 . S
C42 O61 1.240 . S
C43 Gd40 2.818 . S
C43 C44 1.510 . S
C43 O62 1.249 . S
C43 O63 1.252 . S
C44 C43 1.510 . S
C44 C45 1.437 . S
C44 C46 1.352 . S
C45 C44 1.437 . S
C45 C49 1.361 1_565 S
C45 H72 0.926 1_565 S
C46 C44 1.352 . S
C46 C48 1.374 . S
C46 H73 0.931 . S
C47 C48 1.359 1_545 S
C47 C49 1.364 . S
C48 C46 1.374 . S
C48 C47 1.359 1_565 S
C48 H74 0.931 . S
C49 C45 1.361 1_545 S
C49 C47 1.364 . S
C49 H75 0.931 . S
C50 O64 1.256 . S
C50 O65 1.257 . S
C51 O66 1.240 . S
C51 O67 1.240 . S
C52 Gd41 2.818 . S
C52 C53 1.510 . S
C52 O68 1.249 . S
C52 O69 1.252 . S
C53 C52 1.510 . S
C53 C54 1.404 . S
C53 C55 1.352 . S
C54 C53 1.404 . S
C54 C58 1.389 . S
C54 H76 0.930 . S
C55 C53 1.352 . S
C55 C57 1.374 . S
C55 H77 0.931 . S
C56 C57 1.359 . S
C56 C58 1.364 . S
C57 C55 1.374 . S
C57 C56 1.359 . S
C57 H78 0.931 . S
C58 C54 1.389 . S
C58 C56 1.364 . S
C58 H79 0.931 . S
C59 O70 1.256 . S
C59 O71 1.257 . S
O60 Gd40 2.377 . S
O60 C42 1.240 . S
O61 Gd41 2.395 . S
O61 C42 1.240 . S
O62 Gd40 2.448 . S
O62 C43 1.249 . S
O63 Gd40 2.506 . S
O63 C43 1.252 . S
O64 Gd40 2.435 . S
O64 C50 1.256 . S
O65 Gd40 2.717 . S
O65 Gd41 2.327 . S
O65 C50 1.257 . S
O66 Gd41 2.377 . S
O66 C51 1.240 . S
O67 Gd40 2.395 . S
O67 C51 1.240 . S
O68 Gd41 2.448 . S
O68 C52 1.249 . S
O69 Gd41 2.506 . S
O69 C52 1.252 . S
O70 Gd41 2.435 . S
O70 C59 1.256 . S
O71 Gd40 2.327 . S
O71 Gd41 2.717 . S
O71 C59 1.257 . S
H72 C45 0.926 1_545 S
H73 C46 0.931 . S
H74 C48 0.931 . S
H75 C49 0.931 . S
H76 C54 0.930 . S
H77 C55 0.931 . S
H78 C57 0.931 . S
H79 C58 0.931 . S
Gd80 C83 2.818 . S
Gd80 O100 2.377 . S
Gd80 O102 2.448 . S
Gd80 O103 2.506 . S
Gd80 O104 2.435 . S
Gd80 O105 2.717 . S
Gd80 O107 2.395 . S
Gd80 O111 2.327 . S
Gd81 C92 2.818 . S
Gd81 O101 2.395 . S
Gd81 O105 2.327 . S
Gd81 O106 2.377 . S
Gd81 O108 2.448 . S
Gd81 O109 2.506 . S
Gd81 O110 2.435 . S
Gd81 O111 2.717 . S
C82 O100 1.240 . S
C82 O101 1.240 . S
C83 Gd80 2.818 . S
C83 C84 1.510 . S
C83 O102 1.249 . S
C83 O103 1.252 . S
C84 C83 1.510 . S
C84 C85 1.404 . S
C84 C86 1.352 . S
C85 C84 1.404 . S
C85 C89 1.389 . S
C85 H112 0.930 . S
C86 C84 1.352 . S
C86 C88 1.374 . S
C86 H113 0.931 . S
C87 C88 1.359 . S
C87 C89 1.364 . S
C88 C86 1.374 . S
C88 C87 1.359 . S
C88 H114 0.931 . S
C89 C85 1.389 . S
C89 C87 1.364 . S
C89 H115 0.931 . S
C90 O104 1.256 . S
C90 O105 1.257 . S
C91 O106 1.240 . S
C91 O107 1.240 . S
C92 Gd81 2.818 . S
C92 C93 1.510 . S
C92 O108 1.249 . S
C92 O109 1.252 . S
C93 C92 1.510 . S
C93 C94 1.404 . S
C93 C95 1.352 . S
C94 C93 1.404 . S
C94 C98 1.389 . S
C94 H116 0.930 . S
C95 C93 1.352 . S
C95 C97 1.374 . S
C95 H117 0.931 . S
C96 C97 1.359 . S
C96 C98 1.364 . S
C97 C95 1.374 . S
C97 C96 1.359 . S
C97 H118 0.931 . S
C98 C94 1.389 . S
C98 C96 1.364 . S
C98 H119 0.931 . S
C99 O110 1.256 . S
C99 O111 1.257 . S
O100 Gd80 2.377 . S
O100 C82 1.240 . S
O101 Gd81 2.395 . S
O101 C82 1.240 . S
O102 Gd80 2.448 . S
O102 C83 1.249 . S
O103 Gd80 2.506 . S
O103 C83 1.252 . S
O104 Gd80 2.435 . S
O104 C90 1.256 . S
O105 Gd80 2.717 . S
O105 Gd81 2.327 . S
O105 C90 1.257 . S
O106 Gd81 2.377 . S
O106 C91 1.240 . S
O107 Gd80 2.395 . S
O107 C91 1.240 . S
O108 Gd81 2.448 . S
O108 C92 1.249 . S
O109 Gd81 2.506 . S
O109 C92 1.252 . S
O110 Gd81 2.435 . S
O110 C99 1.256 . S
O111 Gd80 2.327 . S
O111 Gd81 2.717 . S
O111 C99 1.257 . S
H112 C85 0.930 . S
H113 C86 0.931 . S
H114 C88 0.931 . S
H115 C89 0.931 . S
H116 C94 0.930 . S
H117 C95 0.931 . S
H118 C97 0.931 . S
H119 C98 0.931 . S
Gd120 C123 2.818 1_554 S
Gd120 O140 2.377 1_554 S
Gd120 O142 2.448 1_554 S
Gd120 O143 2.506 1_554 S
Gd120 O144 2.435 . S
Gd120 O145 2.717 . S
Gd120 O147 2.395 . S
Gd120 O151 2.327 . S
Gd121 C132 2.818 . S
Gd121 O141 2.395 1_554 S
Gd121 O145 2.327 . S
Gd121 O146 2.377 . S
Gd121 O148 2.448 . S
Gd121 O149 2.506 . S
Gd121 O150 2.435 . S
Gd121 O151 2.717 . S
C122 O140 1.240 . S
C122 O141 1.240 . S
C123 Gd120 2.818 1_556 S
C123 C124 1.510 . S
C123 O142 1.249 . S
C123 O143 1.252 . S
C124 C123 1.510 . S
C124 C125 1.437 . S
C124 C126 1.352 . S
C125 C124 1.437 . S
C125 C129 1.361 1_545 S
C125 H152 0.926 1_545 S
C126 C124 1.352 . S
C126 C128 1.374 . S
C126 H153 0.931 . S
C127 C128 1.359 1_565 S
C127 C129 1.364 . S
C128 C126 1.374 . S
C128 C127 1.359 1_545 S
C128 H154 0.931 . S
C129 C125 1.361 1_565 S
C129 C127 1.364 . S
C129 H155 0.931 . S
C130 O144 1.256 . S
C130 O145 1.257 . S
C131 O146 1.240 . S
C131 O147 1.240 . S
C132 Gd121 2.818 . S
C132 C133 1.510 . S
C132 O148 1.249 . S
C132 O149 1.252 . S
C133 C132 1.510 . S
C133 C134 1.404 . S
C133 C135 1.352 . S
C134 C133 1.404 . S
C134 C138 1.389 . S
C134 H156 0.930 . S
C135 C133 1.352 . S
C135 C137 1.374 . S
C135 H157 0.931 . S
C136 C137 1.359 . S
C136 C138 1.364 . S
C137 C135 1.374 . S
C137 C136 1.359 . S
C137 H158 0.931 . S
C138 C134 1.389 . S
C138 C136 1.364 . S
C138 H159 0.931 . S
C139 O150 1.256 1_556 S
C139 O151 1.257 1_556 S
O140 Gd120 2.377 1_556 S
O140 C122 1.240 . S
O141 Gd121 2.395 1_556 S
O141 C122 1.240 . S
O142 Gd120 2.448 1_556 S
O142 C123 1.249 . S
O143 Gd120 2.506 1_556 S
O143 C123 1.252 . S
O144 Gd120 2.435 . S
O144 C130 1.256 . S
O145 Gd120 2.717 . S
O145 Gd121 2.327 . S
O145 C130 1.257 . S
O146 Gd121 2.377 . S
O146 C131 1.240 . S
O147 Gd120 2.395 . S
O147 C131 1.240 . S
O148 Gd121 2.448 . S
O148 C132 1.249 . S
O149 Gd121 2.506 . S
O149 C132 1.252 . S
O150 Gd121 2.435 . S
O150 C139 1.256 1_554 S
O151 Gd120 2.327 . S
O151 Gd121 2.717 . S
O151 C139 1.257 1_554 S
H152 C125 0.926 1_565 S
H153 C126 0.931 . S
H154 C128 0.931 . S
H155 C129 0.931 . S
H156 C134 0.930 . S
H157 C135 0.931 . S
H158 C137 0.931 . S
H159 C138 0.931 . S
Gd160 C163 2.818 . S
Gd160 O180 2.377 . S
Gd160 O182 2.448 . S
Gd160 O183 2.506 . S
Gd160 O184 2.435 . S
Gd160 O185 2.717 . S
Gd160 O187 2.395 . S
Gd160 O191 2.327 . S
Gd161 C172 2.818 . S
Gd161 O181 2.395 . S
Gd161 O185 2.327 . S
Gd161 O186 2.377 . S
Gd161 O188 2.448 . S
Gd161 O189 2.506 . S
Gd161 O190 2.435 . S
Gd161 O191 2.717 . S
C162 O180 1.240 . S
C162 O181 1.240 . S
C163 Gd160 2.818 . S
C163 C164 1.510 . S
C163 O182 1.249 . S
C163 O183 1.252 . S
C164 C163 1.510 . S
C164 C165 1.404 . S
C164 C166 1.352 . S
C165 C164 1.404 . S
C165 C169 1.389 . S
C165 H192 0.930 . S
C166 C164 1.352 . S
C166 C168 1.374 . S
C166 H193 0.931 . S
C167 C168 1.359 . S
C167 C169 1.364 . S
C168 C166 1.374 . S
C168 C167 1.359 . S
C168 H194 0.931 . S
C169 C165 1.389 . S
C169 C167 1.364 . S
C169 H195 0.931 . S
C170 O184 1.256 . S
C170 O185 1.257 . S
C171 O186 1.240 . S
C171 O187 1.240 . S
C172 Gd161 2.818 . S
C172 C173 1.510 . S
C172 O188 1.249 . S
C172 O189 1.252 . S
C173 C172 1.510 . S
C173 C174 1.404 . S
C173 C175 1.352 . S
C174 C173 1.404 . S
C174 C178 1.389 1_455 S
C174 H196 0.930 . S
C175 C173 1.352 . S
C175 C177 1.374 . S
C175 H197 0.931 . S
C176 C177 1.359 1_655 S
C176 C178 1.364 . S
C177 C175 1.374 . S
C177 C176 1.359 1_455 S
C177 H198 0.931 . S
C178 C174 1.389 1_655 S
C178 C176 1.364 . S
C178 H199 0.931 . S
C179 O190 1.256 . S
C179 O191 1.257 . S
O180 Gd160 2.377 . S
O180 C162 1.240 . S
O181 Gd161 2.395 . S
O181 C162 1.240 . S
O182 Gd160 2.448 . S
O182 C163 1.249 . S
O183 Gd160 2.506 . S
O183 C163 1.252 . S
O184 Gd160 2.435 . S
O184 C170 1.256 . S
O185 Gd160 2.717 . S
O185 Gd161 2.327 . S
O185 C170 1.257 . S
O186 Gd161 2.377 . S
O186 C171 1.240 . S
O187 Gd160 2.395 . S
O187 C171 1.240 . S
O188 Gd161 2.448 . S
O188 C172 1.249 . S
O189 Gd161 2.506 . S
O189 C172 1.252 . S
O190 Gd161 2.435 . S
O190 C179 1.256 . S
O191 Gd160 2.327 . S
O191 Gd161 2.717 . S
O191 C179 1.257 . S
H192 C165 0.930 . S
H193 C166 0.931 . S
H194 C168 0.931 . S
H195 C169 0.931 . S
H196 C174 0.930 . S
H197 C175 0.931 . S
H198 C177 0.931 . S
H199 C178 0.931 . S
Gd200 C203 2.818 . S
Gd200 O220 2.377 . S
Gd200 O222 2.448 . S
Gd200 O223 2.506 . S
Gd200 O224 2.435 . S
Gd200 O225 2.717 . S
Gd200 O227 2.395 . S
Gd200 O231 2.327 . S
Gd201 C212 2.818 . S
Gd201 O221 2.395 . S
Gd201 O225 2.327 . S
Gd201 O226 2.377 . S
Gd201 O228 2.448 . S
Gd201 O229 2.506 . S
Gd201 O230 2.435 . S
Gd201 O231 2.717 . S
C202 O220 1.240 . S
C202 O221 1.240 . S
C203 Gd200 2.818 . S
C203 C204 1.510 . S
C203 O222 1.249 . S
C203 O223 1.252 . S
C204 C203 1.510 . S
C204 C205 1.437 . S
C204 C206 1.352 . S
C205 C204 1.437 . S
C205 C209 1.361 1_565 S
C205 H232 0.926 1_565 S
C206 C204 1.352 . S
C206 C208 1.374 . S
C206 H233 0.931 . S
C207 C208 1.359 1_545 S
C207 C209 1.364 . S
C208 C206 1.374 . S
C208 C207 1.359 1_565 S
C208 H234 0.931 . S
C209 C205 1.361 1_545 S
C209 C207 1.364 . S
C209 H235 0.931 . S
C210 O224 1.256 . S
C210 O225 1.257 . S
C211 O226 1.240 . S
C211 O227 1.240 . S
C212 Gd201 2.818 . S
C212 C213 1.510 . S
C212 O228 1.249 . S
C212 O229 1.252 . S
C213 C212 1.510 . S
C213 C214 1.404 . S
C213 C215 1.352 . S
C214 C213 1.404 . S
C214 C218 1.389 . S
C214 H236 0.930 . S
C215 C213 1.352 . S
C215 C217 1.374 . S
C215 H237 0.931 . S
C216 C217 1.359 . S
C216 C218 1.364 . S
C217 C215 1.374 . S
C217 C216 1.359 . S
C217 H238 0.931 . S
C218 C214 1.389 . S
C218 C216 1.364 . S
C218 H239 0.931 . S
C219 O230 1.256 . S
C219 O231 1.257 . S
O220 Gd200 2.377 . S
O220 C202 1.240 . S
O221 Gd201 2.395 . S
O221 C202 1.240 . S
O222 Gd200 2.448 . S
O222 C203 1.249 . S
O223 Gd200 2.506 . S
O223 C203 1.252 . S
O224 Gd200 2.435 . S
O224 C210 1.256 . S
O225 Gd200 2.717 . S
O225 Gd201 2.327 . S
O225 C210 1.257 . S
O226 Gd201 2.377 . S
O226 C211 1.240 . S
O227 Gd200 2.395 . S
O227 C211 1.240 . S
O228 Gd201 2.448 . S
O228 C212 1.249 . S
O229 Gd201 2.506 . S
O229 C212 1.252 . S
O230 Gd201 2.435 . S
O230 C219 1.256 . S
O231 Gd200 2.327 . S
O231 Gd201 2.717 . S
O231 C219 1.257 . S
H232 C205 0.926 1_545 S
H233 C206 0.931 . S
H234 C208 0.931 . S
H235 C209 0.931 . S
H236 C214 0.930 . S
H237 C215 0.931 . S
H238 C217 0.931 . S
H239 C218 0.931 . S
Gd240 C243 2.818 . S
Gd240 O260 2.377 . S
Gd240 O262 2.448 . S
Gd240 O263 2.506 . S
Gd240 O264 2.435 . S
Gd240 O265 2.717 . S
Gd240 O267 2.395 . S
Gd240 O271 2.327 . S
Gd241 C252 2.818 . S
Gd241 O261 2.395 . S
Gd241 O265 2.327 . S
Gd241 O266 2.377 . S
Gd241 O268 2.448 . S
Gd241 O269 2.506 . S
Gd241 O270 2.435 . S
Gd241 O271 2.717 . S
C242 O260 1.240 . S
C242 O261 1.240 . S
C243 Gd240 2.818 . S
C243 C244 1.510 . S
C243 O262 1.249 . S
C243 O263 1.252 . S
C244 C243 1.510 . S
C244 C245 1.404 . S
C244 C246 1.352 . S
C245 C244 1.404 . S
C245 C249 1.389 . S
C245 H272 0.930 . S
C246 C244 1.352 . S
C246 C248 1.374 . S
C246 H273 0.931 . S
C247 C248 1.359 . S
C247 C249 1.364 . S
C248 C246 1.374 . S
C248 C247 1.359 . S
C248 H274 0.931 . S
C249 C245 1.389 . S
C249 C247 1.364 . S
C249 H275 0.931 . S
C250 O264 1.256 . S
C250 O265 1.257 . S
C251 O266 1.240 . S
C251 O267 1.240 . S
C252 Gd241 2.818 . S
C252 C253 1.510 . S
C252 O268 1.249 . S
C252 O269 1.252 . S
C253 C252 1.510 . S
C253 C254 1.404 . S
C253 C255 1.352 . S
C254 C253 1.404 . S
C254 C258 1.389 . S
C254 H276 0.930 . S
C255 C253 1.352 . S
C255 C257 1.374 . S
C255 H277 0.931 . S
C256 C257 1.359 . S
C256 C258 1.364 . S
C257 C255 1.374 . S
C257 C256 1.359 . S
C257 H278 0.931 . S
C258 C254 1.389 . S
C258 C256 1.364 . S
C258 H279 0.931 . S
C259 O270 1.256 . S
C259 O271 1.257 . S
O260 Gd240 2.377 . S
O260 C242 1.240 . S
O261 Gd241 2.395 . S
O261 C242 1.240 . S
O262 Gd240 2.448 . S
O262 C243 1.249 . S
O263 Gd240 2.506 . S
O263 C243 1.252 . S
O264 Gd240 2.435 . S
O264 C250 1.256 . S
O265 Gd240 2.717 . S
O265 Gd241 2.327 . S
O265 C250 1.257 . S
O266 Gd241 2.377 . S
O266 C251 1.240 . S
O267 Gd240 2.395 . S
O267 C251 1.240 . S
O268 Gd241 2.448 . S
O268 C252 1.249 . S
O269 Gd241 2.506 . S
O269 C252 1.252 . S
O270 Gd241 2.435 . S
O270 C259 1.256 . S
O271 Gd240 2.327 . S
O271 Gd241 2.717 . S
O271 C259 1.257 . S
H272 C245 0.930 . S
H273 C246 0.931 . S
H274 C248 0.931 . S
H275 C249 0.931 . S
H276 C254 0.930 . S
H277 C255 0.931 . S
H278 C257 0.931 . S
H279 C258 0.931 . S
Gd280 C283 2.818 1_556 S
Gd280 O300 2.377 1_556 S
Gd280 O302 2.448 1_556 S
Gd280 O303 2.506 1_556 S
Gd280 O304 2.435 . S
Gd280 O305 2.717 . S
Gd280 O307 2.395 . S
Gd280 O311 2.327 . S
Gd281 C292 2.818 . S
Gd281 O301 2.395 1_556 S
Gd281 O305 2.327 . S
Gd281 O306 2.377 . S
Gd281 O308 2.448 . S
Gd281 O309 2.506 . S
Gd281 O310 2.435 . S
Gd281 O311 2.717 . S
C282 O300 1.240 . S
C282 O301 1.240 . S
C283 Gd280 2.818 1_554 S
C283 C284 1.510 . S
C283 O302 1.249 . S
C283 O303 1.252 . S
C284 C283 1.510 . S
C284 C285 1.437 . S
C284 C286 1.352 . S
C285 C284 1.437 . S
C285 C289 1.361 1_545 S
C285 H312 0.926 1_545 S
C286 C284 1.352 . S
C286 C288 1.374 . S
C286 H313 0.931 . S
C287 C288 1.359 1_565 S
C287 C289 1.364 . S
C288 C286 1.374 . S
C288 C287 1.359 1_545 S
C288 H314 0.931 . S
C289 C285 1.361 1_565 S
C289 C287 1.364 . S
C289 H315 0.931 . S
C290 O304 1.256 . S
C290 O305 1.257 . S
C291 O306 1.240 . S
C291 O307 1.240 . S
C292 Gd281 2.818 . S
C292 C293 1.510 . S
C292 O308 1.249 . S
C292 O309 1.252 . S
C293 C292 1.510 . S
C293 C294 1.404 . S
C293 C295 1.352 . S
C294 C293 1.404 . S
C294 C298 1.389 . S
C294 H316 0.930 . S
C295 C293 1.352 . S
C295 C297 1.374 . S
C295 H317 0.931 . S
C296 C297 1.359 . S
C296 C298 1.364 . S
C297 C295 1.374 . S
C297 C296 1.359 . S
C297 H318 0.931 . S
C298 C294 1.389 . S
C298 C296 1.364 . S
C298 H319 0.931 . S
C299 O310 1.256 1_554 S
C299 O311 1.257 1_554 S
O300 Gd280 2.377 1_554 S
O300 C282 1.240 . S
O301 Gd281 2.395 1_554 S
O301 C282 1.240 . S
O302 Gd280 2.448 1_554 S
O302 C283 1.249 . S
O303 Gd280 2.506 1_554 S
O303 C283 1.252 . S
O304 Gd280 2.435 . S
O304 C290 1.256 . S
O305 Gd280 2.717 . S
O305 Gd281 2.327 . S
O305 C290 1.257 . S
O306 Gd281 2.377 . S
O306 C291 1.240 . S
O307 Gd280 2.395 . S
O307 C291 1.240 . S
O308 Gd281 2.448 . S
O308 C292 1.249 . S
O309 Gd281 2.506 . S
O309 C292 1.252 . S
O310 Gd281 2.435 . S
O310 C299 1.256 1_556 S
O311 Gd280 2.327 . S
O311 Gd281 2.717 . S
O311 C299 1.257 1_556 S
H312 C285 0.926 1_565 S
H313 C286 0.931 . S
H314 C288 0.931 . S
H315 C289 0.931 . S
H316 C294 0.930 . S
H317 C295 0.931 . S
H318 C297 0.931 . S
H319 C298 0.931 . S
Gd320 C323 2.818 . S
Gd320 O340 2.377 . S
Gd320 O342 2.448 . S
Gd320 O343 2.506 . S
Gd320 O344 2.435 . S
Gd320 O345 2.717 . S
Gd320 O347 2.395 . S
Gd320 O351 2.327 . S
Gd321 C332 2.818 . S
Gd321 O341 2.395 . S
Gd321 O345 2.327 . S
Gd321 O346 2.377 . S
Gd321 O348 2.448 . S
Gd321 O349 2.506 . S
Gd321 O350 2.435 . S
Gd321 O351 2.717 . S
C322 O340 1.240 . S
C322 O341 1.240 . S
C323 Gd320 2.818 . S
C323 C324 1.510 . S
C323 O342 1.249 . S
C323 O343 1.252 . S
C324 C323 1.510 . S
C324 C325 1.404 . S
C324 C326 1.352 . S
C325 C324 1.404 . S
C325 C329 1.389 1_655 S
C325 H352 0.930 . S
C326 C324 1.352 . S
C326 C328 1.374 . S
C326 H353 0.931 . S
C327 C328 1.359 1_455 S
C327 C329 1.364 . S
C328 C326 1.374 . S
C328 C327 1.359 1_655 S
C328 H354 0.931 . S
C329 C325 1.389 1_455 S
C329 C327 1.364 . S
C329 H355 0.931 . S
C330 O344 1.256 . S
C330 O345 1.257 . S
C331 O346 1.240 . S
C331 O347 1.240 . S
C332 Gd321 2.818 . S
C332 C333 1.510 . S
C332 O348 1.249 . S
C332 O349 1.252 . S
C333 C332 1.510 . S
C333 C334 1.404 . S
C333 C335 1.352 . S
C334 C333 1.404 . S
C334 C338 1.389 . S
C334 H356 0.930 . S
C335 C333 1.352 . S
C335 C337 1.374 . S
C335 H357 0.931 . S
C336 C337 1.359 . S
C336 C338 1.364 . S
C337 C335 1.374 . S
C337 C336 1.359 . S
C337 H358 0.931 . S
C338 C334 1.389 . S
C338 C336 1.364 . S
C338 H359 0.931 . S
C339 O350 1.256 . S
C339 O351 1.257 . S
O340 Gd320 2.377 . S
O340 C322 1.240 . S
O341 Gd321 2.395 . S
O341 C322 1.240 . S
O342 Gd320 2.448 . S
O342 C323 1.249 . S
O343 Gd320 2.506 . S
O343 C323 1.252 . S
O344 Gd320 2.435 . S
O344 C330 1.256 . S
O345 Gd320 2.717 . S
O345 Gd321 2.327 . S
O345 C330 1.257 . S
O346 Gd321 2.377 . S
O346 C331 1.240 . S
O347 Gd320 2.395 . S
O347 C331 1.240 . S
O348 Gd321 2.448 . S
O348 C332 1.249 . S
O349 Gd321 2.506 . S
O349 C332 1.252 . S
O350 Gd321 2.435 . S
O350 C339 1.256 . S
O351 Gd320 2.327 . S
O351 Gd321 2.717 . S
O351 C339 1.257 . S
H352 C325 0.930 . S
H353 C326 0.931 . S
H354 C328 0.931 . S
H355 C329 0.931 . S
H356 C334 0.930 . S
H357 C335 0.931 . S
H358 C337 0.931 . S
H359 C338 0.931 . S
Gd360 C363 2.818 . S
Gd360 O380 2.377 . S
Gd360 O382 2.448 . S
Gd360 O383 2.506 . S
Gd360 O384 2.435 . S
Gd360 O385 2.717 . S
Gd360 O387 2.395 . S
Gd360 O391 2.327 . S
Gd361 C372 2.818 . S
Gd361 O381 2.395 . S
Gd361 O385 2.327 . S
Gd361 O386 2.377 . S
Gd361 O388 2.448 . S
Gd361 O389 2.506 . S
Gd361 O390 2.435 . S
Gd361 O391 2.717 . S
C362 O380 1.240 . S
C362 O381 1.240 . S
C363 Gd360 2.818 . S
C363 C364 1.510 . S
C363 O382 1.249 . S
C363 O383 1.252 . S
C364 C363 1.510 . S
C364 C365 1.404 . S
C364 C366 1.352 . S
C365 C364 1.404 . S
C365 C369 1.389 . S
C365 H392 0.930 . S
C366 C364 1.352 . S
C366 C368 1.374 . S
C366 H393 0.931 . S
C367 C368 1.359 . S
C367 C369 1.364 . S
C368 C366 1.374 . S
C368 C367 1.359 . S
C368 H394 0.931 . S
C369 C365 1.389 . S
C369 C367 1.364 . S
C369 H395 0.931 . S
C370 O384 1.256 . S
C370 O385 1.257 . S
C371 O386 1.240 . S
C371 O387 1.240 . S
C372 Gd361 2.818 . S
C372 C373 1.510 . S
C372 O388 1.249 . S
C372 O389 1.252 . S
C373 C372 1.510 . S
C373 C374 1.437 . S
C373 C375 1.352 . S
C374 C373 1.437 . S
C374 C378 1.361 1_545 S
C374 H396 0.926 1_545 S
C375 C373 1.352 . S
C375 C377 1.374 . S
C375 H397 0.931 . S
C376 C377 1.359 1_565 S
C376 C378 1.364 . S
C377 C375 1.374 . S
C377 C376 1.359 1_545 S
C377 H398 0.931 . S
C378 C374 1.361 1_565 S
C378 C376 1.364 . S
C378 H399 0.931 . S
C379 O390 1.256 . S
C379 O391 1.257 . S
O380 Gd360 2.377 . S
O380 C362 1.240 . S
O381 Gd361 2.395 . S
O381 C362 1.240 . S
O382 Gd360 2.448 . S
O382 C363 1.249 . S
O383 Gd360 2.506 . S
O383 C363 1.252 . S
O384 Gd360 2.435 . S
O384 C370 1.256 . S
O385 Gd360 2.717 . S
O385 Gd361 2.327 . S
O385 C370 1.257 . S
O386 Gd361 2.377 . S
O386 C371 1.240 . S
O387 Gd360 2.395 . S
O387 C371 1.240 . S
O388 Gd361 2.448 . S
O388 C372 1.249 . S
O389 Gd361 2.506 . S
O389 C372 1.252 . S
O390 Gd361 2.435 . S
O390 C379 1.256 . S
O391 Gd360 2.327 . S
O391 Gd361 2.717 . S
O391 C379 1.257 . S
H392 C365 0.930 . S
H393 C366 0.931 . S
H394 C368 0.931 . S
H395 C369 0.931 . S
H396 C374 0.926 1_565 S
H397 C375 0.931 . S
H398 C377 0.931 . S
H399 C378 0.931 . S
Gd400 C403 2.818 . S
Gd400 O420 2.377 . S
Gd400 O422 2.448 . S
Gd400 O423 2.506 . S
Gd400 O424 2.435 . S
Gd400 O425 2.717 . S
Gd400 O427 2.395 . S
Gd400 O431 2.327 . S
Gd401 C412 2.818 . S
Gd401 O421 2.395 . S
Gd401 O425 2.327 . S
Gd401 O426 2.377 . S
Gd401 O428 2.448 . S
Gd401 O429 2.506 . S
Gd401 O430 2.435 . S
Gd401 O431 2.717 . S
C402 O420 1.240 . S
C402 O421 1.240 . S
C403 Gd400 2.818 . S
C403 C404 1.510 . S
C403 O422 1.249 . S
C403 O423 1.252 . S
C404 C403 1.510 . S
C404 C405 1.404 . S
C404 C406 1.352 . S
C405 C404 1.404 . S
C405 C409 1.389 . S
C405 H432 0.930 . S
C406 C404 1.352 . S
C406 C408 1.374 . S
C406 H433 0.931 . S
C407 C408 1.359 . S
C407 C409 1.364 . S
C408 C406 1.374 . S
C408 C407 1.359 . S
C408 H434 0.931 . S
C409 C405 1.389 . S
C409 C407 1.364 . S
C409 H435 0.931 . S
C410 O424 1.256 . S
C410 O425 1.257 . S
C411 O426 1.240 . S
C411 O427 1.240 . S
C412 Gd401 2.818 . S
C412 C413 1.510 . S
C412 O428 1.249 . S
C412 O429 1.252 . S
C413 C412 1.510 . S
C413 C414 1.404 . S
C413 C415 1.352 . S
C414 C413 1.404 . S
C414 C418 1.389 . S
C414 H436 0.930 . S
C415 C413 1.352 . S
C415 C417 1.374 . S
C415 H437 0.931 . S
C416 C417 1.359 . S
C416 C418 1.364 . S
C417 C415 1.374 . S
C417 C416 1.359 . S
C417 H438 0.931 . S
C418 C414 1.389 . S
C418 C416 1.364 . S
C418 H439 0.931 . S
C419 O430 1.256 . S
C419 O431 1.257 . S
O420 Gd400 2.377 . S
O420 C402 1.240 . S
O421 Gd401 2.395 . S
O421 C402 1.240 . S
O422 Gd400 2.448 . S
O422 C403 1.249 . S
O423 Gd400 2.506 . S
O423 C403 1.252 . S
O424 Gd400 2.435 . S
O424 C410 1.256 . S
O425 Gd400 2.717 . S
O425 Gd401 2.327 . S
O425 C410 1.257 . S
O426 Gd401 2.377 . S
O426 C411 1.240 . S
O427 Gd400 2.395 . S
O427 C411 1.240 . S
O428 Gd401 2.448 . S
O428 C412 1.249 . S
O429 Gd401 2.506 . S
O429 C412 1.252 . S
O430 Gd401 2.435 . S
O430 C419 1.256 . S
O431 Gd400 2.327 . S
O431 Gd401 2.717 . S
O431 C419 1.257 . S
H432 C405 0.930 . S
H433 C406 0.931 . S
H434 C408 0.931 . S
H435 C409 0.931 . S
H436 C414 0.930 . S
H437 C415 0.931 . S
H438 C417 0.931 . S
H439 C418 0.931 . S
Gd440 C443 2.818 . S
Gd440 O460 2.377 . S
Gd440 O462 2.448 . S
Gd440 O463 2.506 . S
Gd440 O464 2.435 . S
Gd440 O465 2.717 . S
Gd440 O467 2.395 1_556 S
Gd440 O471 2.327 . S
Gd441 C452 2.818 1_556 S
Gd441 O461 2.395 . S
Gd441 O465 2.327 . S
Gd441 O466 2.377 1_556 S
Gd441 O468 2.448 1_556 S
Gd441 O469 2.506 1_556 S
Gd441 O470 2.435 . S
Gd441 O471 2.717 . S
C442 O460 1.240 . S
C442 O461 1.240 . S
C443 Gd440 2.818 . S
C443 C444 1.510 . S
C443 O462 1.249 . S
C443 O463 1.252 . S
C444 C443 1.510 . S
C444 C445 1.404 . S
C444 C446 1.352 . S
C445 C444 1.404 . S
C445 C449 1.389 . S
C445 H472 0.930 . S
C446 C444 1.352 . S
C446 C448 1.374 . S
C446 H473 0.931 . S
C447 C448 1.359 . S
C447 C449 1.364 . S
C448 C446 1.374 . S
C448 C447 1.359 . S
C448 H474 0.931 . S
C449 C445 1.389 . S
C449 C447 1.364 . S
C449 H475 0.931 . S
C450 O464 1.256 1_554 S
C450 O465 1.257 1_554 S
C451 O466 1.240 . S
C451 O467 1.240 . S
C452 Gd441 2.818 1_554 S
C452 C453 1.510 . S
C452 O468 1.249 . S
C452 O469 1.252 . S
C453 C452 1.510 . S
C453 C454 1.437 . S
C453 C455 1.352 . S
C454 C453 1.437 . S
C454 C458 1.361 1_565 S
C454 H476 0.926 1_565 S
C455 C453 1.352 . S
C455 C457 1.374 . S
C455 H477 0.931 . S
C456 C457 1.359 1_545 S
C456 C458 1.364 . S
C457 C455 1.374 . S
C457 C456 1.359 1_565 S
C457 H478 0.931 . S
C458 C454 1.361 1_545 S
C458 C456 1.364 . S
C458 H479 0.931 . S
C459 O470 1.256 . S
C459 O471 1.257 . S
O460 Gd440 2.377 . S
O460 C442 1.240 . S
O461 Gd441 2.395 . S
O461 C442 1.240 . S
O462 Gd440 2.448 . S
O462 C443 1.249 . S
O463 Gd440 2.506 . S
O463 C443 1.252 . S
O464 Gd440 2.435 . S
O464 C450 1.256 1_556 S
O465 Gd440 2.717 . S
O465 Gd441 2.327 . S
O465 C450 1.257 1_556 S
O466 Gd441 2.377 1_554 S
O466 C451 1.240 . S
O467 Gd440 2.395 1_554 S
O467 C451 1.240 . S
O468 Gd441 2.448 1_554 S
O468 C452 1.249 . S
O469 Gd441 2.506 1_554 S
O469 C452 1.252 . S
O470 Gd441 2.435 . S
O470 C459 1.256 . S
O471 Gd440 2.327 . S
O471 Gd441 2.717 . S
O471 C459 1.257 . S
H472 C445 0.930 . S
H473 C446 0.931 . S
H474 C448 0.931 . S
H475 C449 0.931 . S
H476 C454 0.926 1_545 S
H477 C455 0.931 . S
H478 C457 0.931 . S
H479 C458 0.931 . S
Gd480 C483 2.818 . S
Gd480 O500 2.377 . S
Gd480 O502 2.448 . S
Gd480 O503 2.506 . S
Gd480 O504 2.435 . S
Gd480 O505 2.717 . S
Gd480 O507 2.395 . S
Gd480 O511 2.327 . S
Gd481 C492 2.818 . S
Gd481 O501 2.395 . S
Gd481 O505 2.327 . S
Gd481 O506 2.377 . S
Gd481 O508 2.448 . S
Gd481 O509 2.506 . S
Gd481 O510 2.435 . S
Gd481 O511 2.717 . S
C482 O500 1.240 . S
C482 O501 1.240 . S
C483 Gd480 2.818 . S
C483 C484 1.510 . S
C483 O502 1.249 . S
C483 O503 1.252 . S
C484 C483 1.510 . S
C484 C485 1.404 . S
C484 C486 1.352 . S
C485 C484 1.404 . S
C485 C489 1.389 1_655 S
C485 H512 0.930 . S
C486 C484 1.352 . S
C486 C488 1.374 . S
C486 H513 0.931 . S
C487 C488 1.359 1_455 S
C487 C489 1.364 . S
C488 C486 1.374 . S
C488 C487 1.359 1_655 S
C488 H514 0.931 . S
C489 C485 1.389 1_455 S
C489 C487 1.364 . S
C489 H515 0.931 . S
C490 O504 1.256 . S
C490 O505 1.257 . S
C491 O506 1.240 . S
C491 O507 1.240 . S
C492 Gd481 2.818 . S
C492 C493 1.510 . S
C492 O508 1.249 . S
C492 O509 1.252 . S
C493 C492 1.510 . S
C493 C494 1.404 . S
C493 C495 1.352 . S
C494 C493 1.404 . S
C494 C498 1.389 . S
C494 H516 0.930 . S
C495 C493 1.352 . S
C495 C497 1.374 . S
C495 H517 0.931 . S
C496 C497 1.359 . S
C496 C498 1.364 . S
C497 C495 1.374 . S
C497 C496 1.359 . S
C497 H518 0.931 . S
C498 C494 1.389 . S
C498 C496 1.364 . S
C498 H519 0.931 . S
C499 O510 1.256 . S
C499 O511 1.257 . S
O500 Gd480 2.377 . S
O500 C482 1.240 . S
O501 Gd481 2.395 . S
O501 C482 1.240 . S
O502 Gd480 2.448 . S
O502 C483 1.249 . S
O503 Gd480 2.506 . S
O503 C483 1.252 . S
O504 Gd480 2.435 . S
O504 C490 1.256 . S
O505 Gd480 2.717 . S
O505 Gd481 2.327 . S
O505 C490 1.257 . S
O506 Gd481 2.377 . S
O506 C491 1.240 . S
O507 Gd480 2.395 . S
O507 C491 1.240 . S
O508 Gd481 2.448 . S
O508 C492 1.249 . S
O509 Gd481 2.506 . S
O509 C492 1.252 . S
O510 Gd481 2.435 . S
O510 C499 1.256 . S
O511 Gd480 2.327 . S
O511 Gd481 2.717 . S
O511 C499 1.257 . S
H512 C485 0.930 . S
H513 C486 0.931 . S
H514 C488 0.931 . S
H515 C489 0.931 . S
H516 C494 0.930 . S
H517 C495 0.931 . S
H518 C497 0.931 . S
H519 C498 0.931 . S
Gd520 C523 2.818 . S
Gd520 O540 2.377 . S
Gd520 O542 2.448 . S
Gd520 O543 2.506 . S
Gd520 O544 2.435 . S
Gd520 O545 2.717 . S
Gd520 O547 2.395 . S
Gd520 O551 2.327 . S
Gd521 C532 2.818 . S
Gd521 O541 2.395 . S
Gd521 O545 2.327 . S
Gd521 O546 2.377 . S
Gd521 O548 2.448 . S
Gd521 O549 2.506 . S
Gd521 O550 2.435 . S
Gd521 O551 2.717 . S
C522 O540 1.240 . S
C522 O541 1.240 . S
C523 Gd520 2.818 . S
C523 C524 1.510 . S
C523 O542 1.249 . S
C523 O543 1.252 . S
C524 C523 1.510 . S
C524 C525 1.404 . S
C524 C526 1.352 . S
C525 C524 1.404 . S
C525 C529 1.389 . S
C525 H552 0.930 . S
C526 C524 1.352 . S
C526 C528 1.374 . S
C526 H553 0.931 . S
C527 C528 1.359 . S
C527 C529 1.364 . S
C528 C526 1.374 . S
C528 C527 1.359 . S
C528 H554 0.931 . S
C529 C525 1.389 . S
C529 C527 1.364 . S
C529 H555 0.931 . S
C530 O544 1.256 . S
C530 O545 1.257 . S
C531 O546 1.240 . S
C531 O547 1.240 . S
C532 Gd521 2.818 . S
C532 C533 1.510 . S
C532 O548 1.249 . S
C532 O549 1.252 . S
C533 C532 1.510 . S
C533 C534 1.437 . S
C533 C535 1.352 . S
C534 C533 1.437 . S
C534 C538 1.361 1_545 S
C534 H556 0.926 1_545 S
C535 C533 1.352 . S
C535 C537 1.374 . S
C535 H557 0.931 . S
C536 C537 1.359 1_565 S
C536 C538 1.364 . S
C537 C535 1.374 . S
C537 C536 1.359 1_545 S
C537 H558 0.931 . S
C538 C534 1.361 1_565 S
C538 C536 1.364 . S
C538 H559 0.931 . S
C539 O550 1.256 . S
C539 O551 1.257 . S
O540 Gd520 2.377 . S
O540 C522 1.240 . S
O541 Gd521 2.395 . S
O541 C522 1.240 . S
O542 Gd520 2.448 . S
O542 C523 1.249 . S
O543 Gd520 2.506 . S
O543 C523 1.252 . S
O544 Gd520 2.435 . S
O544 C530 1.256 . S
O545 Gd520 2.717 . S
O545 Gd521 2.327 . S
O545 C530 1.257 . S
O546 Gd521 2.377 . S
O546 C531 1.240 . S
O547 Gd520 2.395 . S
O547 C531 1.240 . S
O548 Gd521 2.448 . S
O548 C532 1.249 . S
O549 Gd521 2.506 . S
O549 C532 1.252 . S
O550 Gd521 2.435 . S
O550 C539 1.256 . S
O551 Gd520 2.327 . S
O551 Gd521 2.717 . S
O551 C539 1.257 . S
H552 C525 0.930 . S
H553 C526 0.931 . S
H554 C528 0.931 . S
H555 C529 0.931 . S
H556 C534 0.926 1_565 S
H557 C535 0.931 . S
H558 C537 0.931 . S
H559 C538 0.931 . S
Gd560 C563 2.818 . S
Gd560 O580 2.377 . S
Gd560 O582 2.448 . S
Gd560 O583 2.506 . S
Gd560 O584 2.435 . S
Gd560 O585 2.717 . S
Gd560 O587 2.395 . S
Gd560 O591 2.327 . S
Gd561 C572 2.818 . S
Gd561 O581 2.395 . S
Gd561 O585 2.327 . S
Gd561 O586 2.377 . S
Gd561 O588 2.448 . S
Gd561 O589 2.506 . S
Gd561 O590 2.435 . S
Gd561 O591 2.717 . S
C562 O580 1.240 . S
C562 O581 1.240 . S
C563 Gd560 2.818 . S
C563 C564 1.510 . S
C563 O582 1.249 . S
C563 O583 1.252 . S
C564 C563 1.510 . S
C564 C565 1.404 . S
C564 C566 1.352 . S
C565 C564 1.404 . S
C565 C569 1.389 . S
C565 H592 0.930 . S
C566 C564 1.352 . S
C566 C568 1.374 . S
C566 H593 0.931 . S
C567 C568 1.359 . S
C567 C569 1.364 . S
C568 C566 1.374 . S
C568 C567 1.359 . S
C568 H594 0.931 . S
C569 C565 1.389 . S
C569 C567 1.364 . S
C569 H595 0.931 . S
C570 O584 1.256 . S
C570 O585 1.257 . S
C571 O586 1.240 . S
C571 O587 1.240 . S
C572 Gd561 2.818 . S
C572 C573 1.510 . S
C572 O588 1.249 . S
C572 O589 1.252 . S
C573 C572 1.510 . S
C573 C574 1.404 . S
C573 C575 1.352 . S
C574 C573 1.404 . S
C574 C578 1.389 . S
C574 H596 0.930 . S
C575 C573 1.352 . S
C575 C577 1.374 . S
C575 H597 0.931 . S
C576 C577 1.359 . S
C576 C578 1.364 . S
C577 C575 1.374 . S
C577 C576 1.359 . S
C577 H598 0.931 . S
C578 C574 1.389 . S
C578 C576 1.364 . S
C578 H599 0.931 . S
C579 O590 1.256 . S
C579 O591 1.257 . S
O580 Gd560 2.377 . S
O580 C562 1.240 . S
O581 Gd561 2.395 . S
O581 C562 1.240 . S
O582 Gd560 2.448 . S
O582 C563 1.249 . S
O583 Gd560 2.506 . S
O583 C563 1.252 . S
O584 Gd560 2.435 . S
O584 C570 1.256 . S
O585 Gd560 2.717 . S
O585 Gd561 2.327 . S
O585 C570 1.257 . S
O586 Gd561 2.377 . S
O586 C571 1.240 . S
O587 Gd560 2.395 . S
O587 C571 1.240 . S
O588 Gd561 2.448 . S
O588 C572 1.249 . S
O589 Gd561 2.506 . S
O589 C572 1.252 . S
O590 Gd561 2.435 . S
O590 C579 1.256 . S
O591 Gd560 2.327 . S
O591 Gd561 2.717 . S
O591 C579 1.257 . S
H592 C565 0.930 . S
H593 C566 0.931 . S
H594 C568 0.931 . S
H595 C569 0.931 . S
H596 C574 0.930 . S
H597 C575 0.931 . S
H598 C577 0.931 . S
H599 C578 0.931 . S
Gd600 C603 2.818 . S
Gd600 O620 2.377 . S
Gd600 O622 2.448 . S
Gd600 O623 2.506 . S
Gd600 O624 2.435 . S
Gd600 O625 2.717 . S
Gd600 O627 2.395 1_554 S
Gd600 O631 2.327 . S
Gd601 C612 2.818 1_554 S
Gd601 O621 2.395 . S
Gd601 O625 2.327 . S
Gd601 O626 2.377 1_554 S
Gd601 O628 2.448 1_554 S
Gd601 O629 2.506 1_554 S
Gd601 O630 2.435 . S
Gd601 O631 2.717 . S
C602 O620 1.240 . S
C602 O621 1.240 . S
C603 Gd600 2.818 . S
C603 C604 1.510 . S
C603 O622 1.249 . S
C603 O623 1.252 . S
C604 C603 1.510 . S
C604 C605 1.404 . S
C604 C606 1.352 . S
C605 C604 1.404 . S
C605 C609 1.389 . S
C605 H632 0.930 . S
C606 C604 1.352 . S
C606 C608 1.374 . S
C606 H633 0.931 . S
C607 C608 1.359 . S
C607 C609 1.364 . S
C608 C606 1.374 . S
C608 C607 1.359 . S
C608 H634 0.931 . S
C609 C605 1.389 . S
C609 C607 1.364 . S
C609 H635 0.931 . S
C610 O624 1.256 1_556 S
C610 O625 1.257 1_556 S
C611 O626 1.240 . S
C611 O627 1.240 . S
C612 Gd601 2.818 1_556 S
C612 C613 1.510 . S
C612 O628 1.249 . S
C612 O629 1.252 . S
C613 C612 1.510 . S
C613 C614 1.437 . S
C613 C615 1.352 . S
C614 C613 1.437 . S
C614 C618 1.361 1_565 S
C614 H636 0.926 1_565 S
C615 C613 1.352 . S
C615 C617 1.374 . S
C615 H637 0.931 . S
C616 C617 1.359 1_545 S
C616 C618 1.364 . S
C617 C615 1.374 . S
C617 C616 1.359 1_565 S
C617 H638 0.931 . S
C618 C614 1.361 1_545 S
C618 C616 1.364 . S
C618 H639 0.931 . S
C619 O630 1.256 . S
C619 O631 1.257 . S
O620 Gd600 2.377 . S
O620 C602 1.240 . S
O621 Gd601 2.395 . S
O621 C602 1.240 . S
O622 Gd600 2.448 . S
O622 C603 1.249 . S
O623 Gd600 2.506 . S
O623 C603 1.252 . S
O624 Gd600 2.435 . S
O624 C610 1.256 1_554 S
O625 Gd600 2.717 . S
O625 Gd601 2.327 . S
O625 C610 1.257 1_554 S
O626 Gd601 2.377 1_556 S
O626 C611 1.240 . S
O627 Gd600 2.395 1_556 S
O627 C611 1.240 . S
O628 Gd601 2.448 1_556 S
O628 C612 1.249 . S
O629 Gd601 2.506 1_556 S
O629 C612 1.252 . S
O630 Gd601 2.435 . S
O630 C619 1.256 . S
O631 Gd600 2.327 . S
O631 Gd601 2.717 . S
O631 C619 1.257 . S
H632 C605 0.930 . S
H633 C606 0.931 . S
H634 C608 0.931 . S
H635 C609 0.931 . S
H636 C614 0.926 1_545 S
H637 C615 0.931 . S
H638 C617 0.931 . S
H639 C618 0.931 . S
Gd640 C643 2.818 . S
Gd640 O660 2.377 . S
Gd640 O662 2.448 . S
Gd640 O663 2.506 . S
Gd640 O664 2.435 . S
Gd640 O665 2.717 . S
Gd640 O667 2.395 . S
Gd640 O671 2.327 . S
Gd641 C652 2.818 . S
Gd641 O661 2.395 . S
Gd641 O665 2.327 . S
Gd641 O666 2.377 . S
Gd641 O668 2.448 . S
Gd641 O669 2.506 . S
Gd641 O670 2.435 . S
Gd641 O671 2.717 . S
C642 O660 1.240 . S
C642 O661 1.240 . S
C643 Gd640 2.818 . S
C643 C644 1.510 . S
C643 O662 1.249 . S
C643 O663 1.252 . S
C644 C643 1.510 . S
C644 C645 1.404 . S
C644 C646 1.352 . S
C645 C644 1.404 . S
C645 C649 1.389 . S
C645 H672 0.930 . S
C646 C644 1.352 . S
C646 C648 1.374 . S
C646 H673 0.931 . S
C647 C648 1.359 . S
C647 C649 1.364 . S
C648 C646 1.374 . S
C648 C647 1.359 . S
C648 H674 0.931 . S
C649 C645 1.389 . S
C649 C647 1.364 . S
C649 H675 0.931 . S
C650 O664 1.256 . S
C650 O665 1.257 . S
C651 O666 1.240 . S
C651 O667 1.240 . S
C652 Gd641 2.818 . S
C652 C653 1.510 . S
C652 O668 1.249 . S
C652 O669 1.252 . S
C653 C652 1.510 . S
C653 C654 1.404 . S
C653 C655 1.352 . S
C654 C653 1.404 . S
C654 C658 1.389 . S
C654 H676 0.930 . S
C655 C653 1.352 . S
C655 C657 1.374 . S
C655 H677 0.931 . S
C656 C657 1.359 . S
C656 C658 1.364 . S
C657 C655 1.374 . S
C657 C656 1.359 . S
C657 H678 0.931 . S
C658 C654 1.389 . S
C658 C656 1.364 . S
C658 H679 0.931 . S
C659 O670 1.256 . S
C659 O671 1.257 . S
O660 Gd640 2.377 . S
O660 C642 1.240 . S
O661 Gd641 2.395 . S
O661 C642 1.240 . S
O662 Gd640 2.448 . S
O662 C643 1.249 . S
O663 Gd640 2.506 . S
O663 C643 1.252 . S
O664 Gd640 2.435 . S
O664 C650 1.256 . S
O665 Gd640 2.717 . S
O665 Gd641 2.327 . S
O665 C650 1.257 . S
O666 Gd641 2.377 . S
O666 C651 1.240 . S
O667 Gd640 2.395 . S
O667 C651 1.240 . S
O668 Gd641 2.448 . S
O668 C652 1.249 . S
O669 Gd641 2.506 . S
O669 C652 1.252 . S
O670 Gd641 2.435 . S
O670 C659 1.256 . S
O671 Gd640 2.327 . S
O671 Gd641 2.717 . S
O671 C659 1.257 . S
H672 C645 0.930 . S
H673 C646 0.931 . S
H674 C648 0.931 . S
H675 C649 0.931 . S
H676 C654 0.930 . S
H677 C655 0.931 . S
H678 C657 0.931 . S
H679 C658 0.931 . S
Gd680 C683 2.818 1_554 S
Gd680 O700 2.377 1_554 S
Gd680 O702 2.448 1_554 S
Gd680 O703 2.506 1_554 S
Gd680 O704 2.435 . S
Gd680 O705 2.717 . S
Gd680 O707 2.395 . S
Gd680 O711 2.327 . S
Gd681 C692 2.818 . S
Gd681 O701 2.395 1_554 S
Gd681 O705 2.327 . S
Gd681 O706 2.377 . S
Gd681 O708 2.448 . S
Gd681 O709 2.506 . S
Gd681 O710 2.435 . S
Gd681 O711 2.717 . S
C682 O700 1.240 . S
C682 O701 1.240 . S
C683 Gd680 2.818 1_556 S
C683 C684 1.510 . S
C683 O702 1.249 . S
C683 O703 1.252 . S
C684 C683 1.510 . S
C684 C685 1.404 . S
C684 C686 1.352 . S
C685 C684 1.404 . S
C685 C689 1.389 . S
C685 H712 0.930 . S
C686 C684 1.352 . S
C686 C688 1.374 . S
C686 H713 0.931 . S
C687 C688 1.359 . S
C687 C689 1.364 . S
C688 C686 1.374 . S
C688 C687 1.359 . S
C688 H714 0.931 . S
C689 C685 1.389 . S
C689 C687 1.364 . S
C689 H715 0.931 . S
C690 O704 1.256 . S
C690 O705 1.257 . S
C691 O706 1.240 . S
C691 O707 1.240 . S
C692 Gd681 2.818 . S
C692 C693 1.510 . S
C692 O708 1.249 . S
C692 O709 1.252 . S
C693 C692 1.510 . S
C693 C694 1.404 . S
C693 C695 1.352 . S
C694 C693 1.404 . S
C694 C698 1.389 . S
C694 H716 0.930 . S
C695 C693 1.352 . S
C695 C697 1.374 . S
C695 H717 0.931 . S
C696 C697 1.359 . S
C696 C698 1.364 . S
C697 C695 1.374 . S
C697 C696 1.359 . S
C697 H718 0.931 . S
C698 C694 1.389 . S
C698 C696 1.364 . S
C698 H719 0.931 . S
C699 O710 1.256 1_556 S
C699 O711 1.257 1_556 S
O700 Gd680 2.377 1_556 S
O700 C682 1.240 . S
O701 Gd681 2.395 1_556 S
O701 C682 1.240 . S
O702 Gd680 2.448 1_556 S
O702 C683 1.249 . S
O703 Gd680 2.506 1_556 S
O703 C683 1.252 . S
O704 Gd680 2.435 . S
O704 C690 1.256 . S
O705 Gd680 2.717 . S
O705 Gd681 2.327 . S
O705 C690 1.257 . S
O706 Gd681 2.377 . S
O706 C691 1.240 . S
O707 Gd680 2.395 . S
O707 C691 1.240 . S
O708 Gd681 2.448 . S
O708 C692 1.249 . S
O709 Gd681 2.506 . S
O709 C692 1.252 . S
O710 Gd681 2.435 . S
O710 C699 1.256 1_554 S
O711 Gd680 2.327 . S
O711 Gd681 2.717 . S
O711 C699 1.257 1_554 S
H712 C685 0.930 . S
H713 C686 0.931 . S
H714 C688 0.931 . S
H715 C689 0.931 . S
H716 C694 0.930 . S
H717 C695 0.931 . S
H718 C697 0.931 . S
H719 C698 0.931 . S
Gd720 C723 2.818 . S
Gd720 O740 2.377 . S
Gd720 O742 2.448 . S
Gd720 O743 2.506 . S
Gd720 O744 2.435 . S
Gd720 O745 2.717 . S
Gd720 O747 2.395 . S
Gd720 O751 2.327 . S
Gd721 C732 2.818 . S
Gd721 O741 2.395 . S
Gd721 O745 2.327 . S
Gd721 O746 2.377 . S
Gd721 O748 2.448 . S
Gd721 O749 2.506 . S
Gd721 O750 2.435 . S
Gd721 O751 2.717 . S
C722 O740 1.240 . S
C722 O741 1.240 . S
C723 Gd720 2.818 . S
C723 C724 1.510 . S
C723 O742 1.249 . S
C723 O743 1.252 . S
C724 C723 1.510 . S
C724 C725 1.404 . S
C724 C726 1.352 . S
C725 C724 1.404 . S
C725 C729 1.389 . S
C725 H752 0.930 . S
C726 C724 1.352 . S
C726 C728 1.374 . S
C726 H753 0.931 . S
C727 C728 1.359 . S
C727 C729 1.364 . S
C728 C726 1.374 . S
C728 C727 1.359 . S
C728 H754 0.931 . S
C729 C725 1.389 . S
C729 C727 1.364 . S
C729 H755 0.931 . S
C730 O744 1.256 . S
C730 O745 1.257 . S
C731 O746 1.240 . S
C731 O747 1.240 . S
C732 Gd721 2.818 . S
C732 C733 1.510 . S
C732 O748 1.249 . S
C732 O749 1.252 . S
C733 C732 1.510 . S
C733 C734 1.404 . S
C733 C735 1.352 . S
C734 C733 1.404 . S
C734 C738 1.389 1_655 S
C734 H756 0.930 . S
C735 C733 1.352 . S
C735 C737 1.374 . S
C735 H757 0.931 . S
C736 C737 1.359 1_455 S
C736 C738 1.364 . S
C737 C735 1.374 . S
C737 C736 1.359 1_655 S
C737 H758 0.931 . S
C738 C734 1.389 1_455 S
C738 C736 1.364 . S
C738 H759 0.931 . S
C739 O750 1.256 . S
C739 O751 1.257 . S
O740 Gd720 2.377 . S
O740 C722 1.240 . S
O741 Gd721 2.395 . S
O741 C722 1.240 . S
O742 Gd720 2.448 . S
O742 C723 1.249 . S
O743 Gd720 2.506 . S
O743 C723 1.252 . S
O744 Gd720 2.435 . S
O744 C730 1.256 . S
O745 Gd720 2.717 . S
O745 Gd721 2.327 . S
O745 C730 1.257 . S
O746 Gd721 2.377 . S
O746 C731 1.240 . S
O747 Gd720 2.395 . S
O747 C731 1.240 . S
O748 Gd721 2.448 . S
O748 C732 1.249 . S
O749 Gd721 2.506 . S
O749 C732 1.252 . S
O750 Gd721 2.435 . S
O750 C739 1.256 . S
O751 Gd720 2.327 . S
O751 Gd721 2.717 . S
O751 C739 1.257 . S
H752 C725 0.930 . S
H753 C726 0.931 . S
H754 C728 0.931 . S
H755 C729 0.931 . S
H756 C734 0.930 . S
H757 C735 0.931 . S
H758 C737 0.931 . S
H759 C738 0.931 . S
Gd760 C763 2.818 . S
Gd760 O780 2.377 . S
Gd760 O782 2.448 . S
Gd760 O783 2.506 . S
Gd760 O784 2.435 . S
Gd760 O785 2.717 . S
Gd760 O787 2.395 . S
Gd760 O791 2.327 . S
Gd761 C772 2.818 . S
Gd761 O781 2.395 . S
Gd761 O785 2.327 . S
Gd761 O786 2.377 . S
Gd761 O788 2.448 . S
Gd761 O789 2.506 . S
Gd761 O790 2.435 . S
Gd761 O791 2.717 . S
C762 O780 1.240 . S
C762 O781 1.240 . S
C763 Gd760 2.818 . S
C763 C764 1.510 . S
C763 O782 1.249 . S
C763 O783 1.252 . S
C764 C763 1.510 . S
C764 C765 1.404 . S
C764 C766 1.352 . S
C765 C764 1.404 . S
C765 C769 1.389 . S
C765 H792 0.930 . S
C766 C764 1.352 . S
C766 C768 1.374 . S
C766 H793 0.931 . S
C767 C768 1.359 . S
C767 C769 1.364 . S
C768 C766 1.374 . S
C768 C767 1.359 . S
C768 H794 0.931 . S
C769 C765 1.389 . S
C769 C767 1.364 . S
C769 H795 0.931 . S
C770 O784 1.256 . S
C770 O785 1.257 . S
C771 O786 1.240 . S
C771 O787 1.240 . S
C772 Gd761 2.818 . S
C772 C773 1.510 . S
C772 O788 1.249 . S
C772 O789 1.252 . S
C773 C772 1.510 . S
C773 C774 1.404 . S
C773 C775 1.352 . S
C774 C773 1.404 . S
C774 C778 1.389 . S
C774 H796 0.930 . S
C775 C773 1.352 . S
C775 C777 1.374 . S
C775 H797 0.931 . S
C776 C777 1.359 . S
C776 C778 1.364 . S
C777 C775 1.374 . S
C777 C776 1.359 . S
C777 H798 0.931 . S
C778 C774 1.389 . S
C778 C776 1.364 . S
C778 H799 0.931 . S
C779 O790 1.256 . S
C779 O791 1.257 . S
O780 Gd760 2.377 . S
O780 C762 1.240 . S
O781 Gd761 2.395 . S
O781 C762 1.240 . S
O782 Gd760 2.448 . S
O782 C763 1.249 . S
O783 Gd760 2.506 . S
O783 C763 1.252 . S
O784 Gd760 2.435 . S
O784 C770 1.256 . S
O785 Gd760 2.717 . S
O785 Gd761 2.327 . S
O785 C770 1.257 . S
O786 Gd761 2.377 . S
O786 C771 1.240 . S
O787 Gd760 2.395 . S
O787 C771 1.240 . S
O788 Gd761 2.448 . S
O788 C772 1.249 . S
O789 Gd761 2.506 . S
O789 C772 1.252 . S
O790 Gd761 2.435 . S
O790 C779 1.256 . S
O791 Gd760 2.327 . S
O791 Gd761 2.717 . S
O791 C779 1.257 . S
H792 C765 0.930 . S
H793 C766 0.931 . S
H794 C768 0.931 . S
H795 C769 0.931 . S
H796 C774 0.930 . S
H797 C775 0.931 . S
H798 C777 0.931 . S
H799 C778 0.931 . S
Gd800 C803 2.818 . S
Gd800 O820 2.377 . S
Gd800 O822 2.448 . S
Gd800 O823 2.506 . S
Gd800 O824 2.435 . S
Gd800 O825 2.717 . S
Gd800 O827 2.395 . S
Gd800 O831 2.327 . S
Gd801 C812 2.818 . S
Gd801 O821 2.395 . S
Gd801 O825 2.327 . S
Gd801 O826 2.377 . S
Gd801 O828 2.448 . S
Gd801 O829 2.506 . S
Gd801 O830 2.435 . S
Gd801 O831 2.717 . S
C802 O820 1.240 . S
C802 O821 1.240 . S
C803 Gd800 2.818 . S
C803 C804 1.510 . S
C803 O822 1.249 . S
C803 O823 1.252 . S
C804 C803 1.510 . S
C804 C805 1.404 . S
C804 C806 1.352 . S
C805 C804 1.404 . S
C805 C809 1.389 . S
C805 H832 0.930 . S
C806 C804 1.352 . S
C806 C808 1.374 . S
C806 H833 0.931 . S
C807 C808 1.359 . S
C807 C809 1.364 . S
C808 C806 1.374 . S
C808 C807 1.359 . S
C808 H834 0.931 . S
C809 C805 1.389 . S
C809 C807 1.364 . S
C809 H835 0.931 . S
C810 O824 1.256 . S
C810 O825 1.257 . S
C811 O826 1.240 . S
C811 O827 1.240 . S
C812 Gd801 2.818 . S
C812 C813 1.510 . S
C812 O828 1.249 . S
C812 O829 1.252 . S
C813 C812 1.510 . S
C813 C814 1.404 . S
C813 C815 1.352 . S
C814 C813 1.404 . S
C814 C818 1.389 . S
C814 H836 0.930 . S
C815 C813 1.352 . S
C815 C817 1.374 . S
C815 H837 0.931 . S
C816 C817 1.359 . S
C816 C818 1.364 . S
C817 C815 1.374 . S
C817 C816 1.359 . S
C817 H838 0.931 . S
C818 C814 1.389 . S
C818 C816 1.364 . S
C818 H839 0.931 . S
C819 O830 1.256 . S
C819 O831 1.257 . S
O820 Gd800 2.377 . S
O820 C802 1.240 . S
O821 Gd801 2.395 . S
O821 C802 1.240 . S
O822 Gd800 2.448 . S
O822 C803 1.249 . S
O823 Gd800 2.506 . S
O823 C803 1.252 . S
O824 Gd800 2.435 . S
O824 C810 1.256 . S
O825 Gd800 2.717 . S
O825 Gd801 2.327 . S
O825 C810 1.257 . S
O826 Gd801 2.377 . S
O826 C811 1.240 . S
O827 Gd800 2.395 . S
O827 C811 1.240 . S
O828 Gd801 2.448 . S
O828 C812 1.249 . S
O829 Gd801 2.506 . S
O829 C812 1.252 . S
O830 Gd801 2.435 . S
O830 C819 1.256 . S
O831 Gd800 2.327 . S
O831 Gd801 2.717 . S
O831 C819 1.257 . S
H832 C805 0.930 . S
H833 C806 0.931 . S
H834 C808 0.931 . S
H835 C809 0.931 . S
H836 C814 0.930 . S
H837 C815 0.931 . S
H838 C817 0.931 . S
H839 C818 0.931 . S
Gd840 C843 2.818 1_556 S
Gd840 O860 2.377 1_556 S
Gd840 O862 2.448 1_556 S
Gd840 O863 2.506 1_556 S
Gd840 O864 2.435 . S
Gd840 O865 2.717 . S
Gd840 O867 2.395 . S
Gd840 O871 2.327 . S
Gd841 C852 2.818 . S
Gd841 O861 2.395 1_556 S
Gd841 O865 2.327 . S
Gd841 O866 2.377 . S
Gd841 O868 2.448 . S
Gd841 O869 2.506 . S
Gd841 O870 2.435 . S
Gd841 O871 2.717 . S
C842 O860 1.240 . S
C842 O861 1.240 . S
C843 Gd840 2.818 1_554 S
C843 C844 1.510 . S
C843 O862 1.249 . S
C843 O863 1.252 . S
C844 C843 1.510 . S
C844 C845 1.404 . S
C844 C846 1.352 . S
C845 C844 1.404 . S
C845 C849 1.389 . S
C845 H872 0.930 . S
C846 C844 1.352 . S
C846 C848 1.374 . S
C846 H873 0.931 . S
C847 C848 1.359 . S
C847 C849 1.364 . S
C848 C846 1.374 . S
C848 C847 1.359 . S
C848 H874 0.931 . S
C849 C845 1.389 . S
C849 C847 1.364 . S
C849 H875 0.931 . S
C850 O864 1.256 . S
C850 O865 1.257 . S
C851 O866 1.240 . S
C851 O867 1.240 . S
C852 Gd841 2.818 . S
C852 C853 1.510 . S
C852 O868 1.249 . S
C852 O869 1.252 . S
C853 C852 1.510 . S
C853 C854 1.404 . S
C853 C855 1.352 . S
C854 C853 1.404 . S
C854 C858 1.389 . S
C854 H876 0.930 . S
C855 C853 1.352 . S
C855 C857 1.374 . S
C855 H877 0.931 . S
C856 C857 1.359 . S
C856 C858 1.364 . S
C857 C855 1.374 . S
C857 C856 1.359 . S
C857 H878 0.931 . S
C858 C854 1.389 . S
C858 C856 1.364 . S
C858 H879 0.931 . S
C859 O870 1.256 1_554 S
C859 O871 1.257 1_554 S
O860 Gd840 2.377 1_554 S
O860 C842 1.240 . S
O861 Gd841 2.395 1_554 S
O861 C842 1.240 . S
O862 Gd840 2.448 1_554 S
O862 C843 1.249 . S
O863 Gd840 2.506 1_554 S
O863 C843 1.252 . S
O864 Gd840 2.435 . S
O864 C850 1.256 . S
O865 Gd840 2.717 . S
O865 Gd841 2.327 . S
O865 C850 1.257 . S
O866 Gd841 2.377 . S
O866 C851 1.240 . S
O867 Gd840 2.395 . S
O867 C851 1.240 . S
O868 Gd841 2.448 . S
O868 C852 1.249 . S
O869 Gd841 2.506 . S
O869 C852 1.252 . S
O870 Gd841 2.435 . S
O870 C859 1.256 1_556 S
O871 Gd840 2.327 . S
O871 Gd841 2.717 . S
O871 C859 1.257 1_556 S
H872 C845 0.930 . S
H873 C846 0.931 . S
H874 C848 0.931 . S
H875 C849 0.931 . S
H876 C854 0.930 . S
H877 C855 0.931 . S
H878 C857 0.931 . S
H879 C858 0.931 . S
Gd880 C883 2.818 . S
Gd880 O900 2.377 . S
Gd880 O902 2.448 . S
Gd880 O903 2.506 . S
Gd880 O904 2.435 . S
Gd880 O905 2.717 . S
Gd880 O907 2.395 . S
Gd880 O911 2.327 . S
Gd881 C892 2.818 . S
Gd881 O901 2.395 . S
Gd881 O905 2.327 . S
Gd881 O906 2.377 . S
Gd881 O908 2.448 . S
Gd881 O909 2.506 . S
Gd881 O910 2.435 . S
Gd881 O911 2.717 . S
C882 O900 1.240 . S
C882 O901 1.240 . S
C883 Gd880 2.818 . S
C883 C884 1.510 . S
C883 O902 1.249 . S
C883 O903 1.252 . S
C884 C883 1.510 . S
C884 C885 1.404 . S
C884 C886 1.352 . S
C885 C884 1.404 . S
C885 C889 1.389 . S
C885 H912 0.930 . S
C886 C884 1.352 . S
C886 C888 1.374 . S
C886 H913 0.931 . S
C887 C888 1.359 . S
C887 C889 1.364 . S
C888 C886 1.374 . S
C888 C887 1.359 . S
C888 H914 0.931 . S
C889 C885 1.389 . S
C889 C887 1.364 . S
C889 H915 0.931 . S
C890 O904 1.256 . S
C890 O905 1.257 . S
C891 O906 1.240 . S
C891 O907 1.240 . S
C892 Gd881 2.818 . S
C892 C893 1.510 . S
C892 O908 1.249 . S
C892 O909 1.252 . S
C893 C892 1.510 . S
C893 C894 1.404 . S
C893 C895 1.352 . S
C894 C893 1.404 . S
C894 C898 1.389 1_655 S
C894 H916 0.930 . S
C895 C893 1.352 . S
C895 C897 1.374 . S
C895 H917 0.931 . S
C896 C897 1.359 1_455 S
C896 C898 1.364 . S
C897 C895 1.374 . S
C897 C896 1.359 1_655 S
C897 H918 0.931 . S
C898 C894 1.389 1_455 S
C898 C896 1.364 . S
C898 H919 0.931 . S
C899 O910 1.256 . S
C899 O911 1.257 . S
O900 Gd880 2.377 . S
O900 C882 1.240 . S
O901 Gd881 2.395 . S
O901 C882 1.240 . S
O902 Gd880 2.448 . S
O902 C883 1.249 . S
O903 Gd880 2.506 . S
O903 C883 1.252 . S
O904 Gd880 2.435 . S
O904 C890 1.256 . S
O905 Gd880 2.717 . S
O905 Gd881 2.327 . S
O905 C890 1.257 . S
O906 Gd881 2.377 . S
O906 C891 1.240 . S
O907 Gd880 2.395 . S
O907 C891 1.240 . S
O908 Gd881 2.448 . S
O908 C892 1.249 . S
O909 Gd881 2.506 . S
O909 C892 1.252 . S
O910 Gd881 2.435 . S
O910 C899 1.256 . S
O911 Gd880 2.327 . S
O911 Gd881 2.717 . S
O911 C899 1.257 . S
H912 C885 0.930 . S
H913 C886 0.931 . S
H914 C888 0.931 . S
H915 C889 0.931 . S
H916 C894 0.930 . S
H917 C895 0.931 . S
H918 C897 0.931 . S
H919 C898 0.931 . S
Gd920 C923 2.818 . S
Gd920 O940 2.377 . S
Gd920 O942 2.448 . S
Gd920 O943 2.506 . S
Gd920 O944 2.435 . S
Gd920 O945 2.717 . S
Gd920 O947 2.395 . S
Gd920 O951 2.327 . S
Gd921 C932 2.818 . S
Gd921 O941 2.395 . S
Gd921 O945 2.327 . S
Gd921 O946 2.377 . S
Gd921 O948 2.448 . S
Gd921 O949 2.506 . S
Gd921 O950 2.435 . S
Gd921 O951 2.717 . S
C922 O940 1.240 . S
C922 O941 1.240 . S
C923 Gd920 2.818 . S
C923 C924 1.510 . S
C923 O942 1.249 . S
C923 O943 1.252 . S
C924 C923 1.510 . S
C924 C925 1.404 . S
C924 C926 1.352 . S
C925 C924 1.404 . S
C925 C929 1.389 . S
C925 H952 0.930 . S
C926 C924 1.352 . S
C926 C928 1.374 . S
C926 H953 0.931 . S
C927 C928 1.359 . S
C927 C929 1.364 . S
C928 C926 1.374 . S
C928 C927 1.359 . S
C928 H954 0.931 . S
C929 C925 1.389 . S
C929 C927 1.364 . S
C929 H955 0.931 . S
C930 O944 1.256 . S
C930 O945 1.257 . S
C931 O946 1.240 . S
C931 O947 1.240 . S
C932 Gd921 2.818 . S
C932 C933 1.510 . S
C932 O948 1.249 . S
C932 O949 1.252 . S
C933 C932 1.510 . S
C933 C934 1.404 . S
C933 C935 1.352 . S
C934 C933 1.404 . S
C934 C938 1.389 . S
C934 H956 0.930 . S
C935 C933 1.352 . S
C935 C937 1.374 . S
C935 H957 0.931 . S
C936 C937 1.359 . S
C936 C938 1.364 . S
C937 C935 1.374 . S
C937 C936 1.359 . S
C937 H958 0.931 . S
C938 C934 1.389 . S
C938 C936 1.364 . S
C938 H959 0.931 . S
C939 O950 1.256 . S
C939 O951 1.257 . S
O940 Gd920 2.377 . S
O940 C922 1.240 . S
O941 Gd921 2.395 . S
O941 C922 1.240 . S
O942 Gd920 2.448 . S
O942 C923 1.249 . S
O943 Gd920 2.506 . S
O943 C923 1.252 . S
O944 Gd920 2.435 . S
O944 C930 1.256 . S
O945 Gd920 2.717 . S
O945 Gd921 2.327 . S
O945 C930 1.257 . S
O946 Gd921 2.377 . S
O946 C931 1.240 . S
O947 Gd920 2.395 . S
O947 C931 1.240 . S
O948 Gd921 2.448 . S
O948 C932 1.249 . S
O949 Gd921 2.506 . S
O949 C932 1.252 . S
O950 Gd921 2.435 . S
O950 C939 1.256 . S
O951 Gd920 2.327 . S
O951 Gd921 2.717 . S
O951 C939 1.257 . S
H952 C925 0.930 . S
H953 C926 0.931 . S
H954 C928 0.931 . S
H955 C929 0.931 . S
H956 C934 0.930 . S
H957 C935 0.931 . S
H958 C937 0.931 . S
H959 C938 0.931 . S
Gd960 C963 2.818 . S
Gd960 O980 2.377 . S
Gd960 O982 2.448 . S
Gd960 O983 2.506 . S
Gd960 O984 2.435 . S
Gd960 O985 2.717 . S
Gd960 O987 2.395 . S
Gd960 O991 2.327 . S
Gd961 C972 2.818 . S
Gd961 O981 2.395 . S
Gd961 O985 2.327 . S
Gd961 O986 2.377 . S
Gd961 O988 2.448 . S
Gd961 O989 2.506 . S
Gd961 O990 2.435 . S
Gd961 O991 2.717 . S
C962 O980 1.240 . S
C962 O981 1.240 . S
C963 Gd960 2.818 . S
C963 C964 1.510 . S
C963 O982 1.249 . S
C963 O983 1.252 . S
C964 C963 1.510 . S
C964 C965 1.404 . S
C964 C966 1.352 . S
C965 C964 1.404 . S
C965 C969 1.389 . S
C965 H992 0.930 . S
C966 C964 1.352 . S
C966 C968 1.374 . S
C966 H993 0.931 . S
C967 C968 1.359 . S
C967 C969 1.364 . S
C968 C966 1.374 . S
C968 C967 1.359 . S
C968 H994 0.931 . S
C969 C965 1.389 . S
C969 C967 1.364 . S
C969 H995 0.931 . S
C970 O984 1.256 . S
C970 O985 1.257 . S
C971 O986 1.240 . S
C971 O987 1.240 . S
C972 Gd961 2.818 . S
C972 C973 1.510 . S
C972 O988 1.249 . S
C972 O989 1.252 . S
C973 C972 1.510 . S
C973 C974 1.404 . S
C973 C975 1.352 . S
C974 C973 1.404 . S
C974 C978 1.389 . S
C974 H996 0.930 . S
C975 C973 1.352 . S
C975 C977 1.374 . S
C975 H997 0.931 . S
C976 C977 1.359 . S
C976 C978 1.364 . S
C977 C975 1.374 . S
C977 C976 1.359 . S
C977 H998 0.931 . S
C978 C974 1.389 . S
C978 C976 1.364 . S
C978 H999 0.931 . S
C979 O990 1.256 . S
C979 O991 1.257 . S
O980 Gd960 2.377 . S
O980 C962 1.240 . S
O981 Gd961 2.395 . S
O981 C962 1.240 . S
O982 Gd960 2.448 . S
O982 C963 1.249 . S
O983 Gd960 2.506 . S
O983 C963 1.252 . S
O984 Gd960 2.435 . S
O984 C970 1.256 . S
O985 Gd960 2.717 . S
O985 Gd961 2.327 . S
O985 C970 1.257 . S
O986 Gd961 2.377 . S
O986 C971 1.240 . S
O987 Gd960 2.395 . S
O987 C971 1.240 . S
O988 Gd961 2.448 . S
O988 C972 1.249 . S
O989 Gd961 2.506 . S
O989 C972 1.252 . S
O990 Gd961 2.435 . S
O990 C979 1.256 . S
O991 Gd960 2.327 . S
O991 Gd961 2.717 . S
O991 C979 1.257 . S
H992 C965 0.930 . S
H993 C966 0.931 . S
H994 C968 0.931 . S
H995 C969 0.931 . S
H996 C974 0.930 . S
H997 C975 0.931 . S
H998 C977 0.931 . S
H999 C978 0.931 . S
Gd1000 C1003 2.818 . S
Gd1000 O1020 2.377 . S
Gd1000 O1022 2.448 . S
Gd1000 O1023 2.506 . S
Gd1000 O1024 2.435 . S
Gd1000 O1025 2.717 . S
Gd1000 O1027 2.395 1_556 S
Gd1000 O1031 2.327 . S
Gd1001 C1012 2.818 1_556 S
Gd1001 O1021 2.395 . S
Gd1001 O1025 2.327 . S
Gd1001 O1026 2.377 1_556 S
Gd1001 O1028 2.448 1_556 S
Gd1001 O1029 2.506 1_556 S
Gd1001 O1030 2.435 . S
Gd1001 O1031 2.717 . S
C1002 O1020 1.240 . S
C1002 O1021 1.240 . S
C1003 Gd1000 2.818 . S
C1003 C1004 1.510 . S
C1003 O1022 1.249 . S
C1003 O1023 1.252 . S
C1004 C1003 1.510 . S
C1004 C1005 1.404 . S
C1004 C1006 1.352 . S
C1005 C1004 1.404 . S
C1005 C1009 1.389 . S
C1005 H1032 0.930 . S
C1006 C1004 1.352 . S
C1006 C1008 1.374 . S
C1006 H1033 0.931 . S
C1007 C1008 1.359 . S
C1007 C1009 1.364 . S
C1008 C1006 1.374 . S
C1008 C1007 1.359 . S
C1008 H1034 0.931 . S
C1009 C1005 1.389 . S
C1009 C1007 1.364 . S
C1009 H1035 0.931 . S
C1010 O1024 1.256 1_554 S
C1010 O1025 1.257 1_554 S
C1011 O1026 1.240 . S
C1011 O1027 1.240 . S
C1012 Gd1001 2.818 1_554 S
C1012 C1013 1.510 . S
C1012 O1028 1.249 . S
C1012 O1029 1.252 . S
C1013 C1012 1.510 . S
C1013 C1014 1.404 . S
C1013 C1015 1.352 . S
C1014 C1013 1.404 . S
C1014 C1018 1.389 . S
C1014 H1036 0.930 . S
C1015 C1013 1.352 . S
C1015 C1017 1.374 . S
C1015 H1037 0.931 . S
C1016 C1017 1.359 . S
C1016 C1018 1.364 . S
C1017 C1015 1.374 . S
C1017 C1016 1.359 . S
C1017 H1038 0.931 . S
C1018 C1014 1.389 . S
C1018 C1016 1.364 . S
C1018 H1039 0.931 . S
C1019 O1030 1.256 . S
C1019 O1031 1.257 . S
O1020 Gd1000 2.377 . S
O1020 C1002 1.240 . S
O1021 Gd1001 2.395 . S
O1021 C1002 1.240 . S
O1022 Gd1000 2.448 . S
O1022 C1003 1.249 . S
O1023 Gd1000 2.506 . S
O1023 C1003 1.252 . S
O1024 Gd1000 2.435 . S
O1024 C1010 1.256 1_556 S
O1025 Gd1000 2.717 . S
O1025 Gd1001 2.327 . S
O1025 C1010 1.257 1_556 S
O1026 Gd1001 2.377 1_554 S
O1026 C1011 1.240 . S
O1027 Gd1000 2.395 1_554 S
O1027 C1011 1.240 . S
O1028 Gd1001 2.448 1_554 S
O1028 C1012 1.249 . S
O1029 Gd1001 2.506 1_554 S
O1029 C1012 1.252 . S
O1030 Gd1001 2.435 . S
O1030 C1019 1.256 . S
O1031 Gd1000 2.327 . S
O1031 Gd1001 2.717 . S
O1031 C1019 1.257 . S
H1032 C1005 0.930 . S
H1033 C1006 0.931 . S
H1034 C1008 0.931 . S
H1035 C1009 0.931 . S
H1036 C1014 0.930 . S
H1037 C1015 0.931 . S
H1038 C1017 0.931 . S
H1039 C1018 0.931 . S
Gd1040 C1043 2.818 . S
Gd1040 O1060 2.377 . S
Gd1040 O1062 2.448 . S
Gd1040 O1063 2.506 . S
Gd1040 O1064 2.435 . S
Gd1040 O1065 2.717 . S
Gd1040 O1067 2.395 . S
Gd1040 O1071 2.327 . S
Gd1041 C1052 2.818 . S
Gd1041 O1061 2.395 . S
Gd1041 O1065 2.327 . S
Gd1041 O1066 2.377 . S
Gd1041 O1068 2.448 . S
Gd1041 O1069 2.506 . S
Gd1041 O1070 2.435 . S
Gd1041 O1071 2.717 . S
C1042 O1060 1.240 . S
C1042 O1061 1.240 . S
C1043 Gd1040 2.818 . S
C1043 C1044 1.510 . S
C1043 O1062 1.249 . S
C1043 O1063 1.252 . S
C1044 C1043 1.510 . S
C1044 C1045 1.404 . S
C1044 C1046 1.352 . S
C1045 C1044 1.404 . S
C1045 C1049 1.389 1_455 S
C1045 H1072 0.930 . S
C1046 C1044 1.352 . S
C1046 C1048 1.374 . S
C1046 H1073 0.931 . S
C1047 C1048 1.359 1_655 S
C1047 C1049 1.364 . S
C1048 C1046 1.374 . S
C1048 C1047 1.359 1_455 S
C1048 H1074 0.931 . S
C1049 C1045 1.389 1_655 S
C1049 C1047 1.364 . S
C1049 H1075 0.931 . S
C1050 O1064 1.256 . S
C1050 O1065 1.257 . S
C1051 O1066 1.240 . S
C1051 O1067 1.240 . S
C1052 Gd1041 2.818 . S
C1052 C1053 1.510 . S
C1052 O1068 1.249 . S
C1052 O1069 1.252 . S
C1053 C1052 1.510 . S
C1053 C1054 1.404 . S
C1053 C1055 1.352 . S
C1054 C1053 1.404 . S
C1054 C1058 1.389 . S
C1054 H1076 0.930 . S
C1055 C1053 1.352 . S
C1055 C1057 1.374 . S
C1055 H1077 0.931 . S
C1056 C1057 1.359 . S
C1056 C1058 1.364 . S
C1057 C1055 1.374 . S
C1057 C1056 1.359 . S
C1057 H1078 0.931 . S
C1058 C1054 1.389 . S
C1058 C1056 1.364 . S
C1058 H1079 0.931 . S
C1059 O1070 1.256 . S
C1059 O1071 1.257 . S
O1060 Gd1040 2.377 . S
O1060 C1042 1.240 . S
O1061 Gd1041 2.395 . S
O1061 C1042 1.240 . S
O1062 Gd1040 2.448 . S
O1062 C1043 1.249 . S
O1063 Gd1040 2.506 . S
O1063 C1043 1.252 . S
O1064 Gd1040 2.435 . S
O1064 C1050 1.256 . S
O1065 Gd1040 2.717 . S
O1065 Gd1041 2.327 . S
O1065 C1050 1.257 . S
O1066 Gd1041 2.377 . S
O1066 C1051 1.240 . S
O1067 Gd1040 2.395 . S
O1067 C1051 1.240 . S
O1068 Gd1041 2.448 . S
O1068 C1052 1.249 . S
O1069 Gd1041 2.506 . S
O1069 C1052 1.252 . S
O1070 Gd1041 2.435 . S
O1070 C1059 1.256 . S
O1071 Gd1040 2.327 . S
O1071 Gd1041 2.717 . S
O1071 C1059 1.257 . S
H1072 C1045 0.930 . S
H1073 C1046 0.931 . S
H1074 C1048 0.931 . S
H1075 C1049 0.931 . S
H1076 C1054 0.930 . S
H1077 C1055 0.931 . S
H1078 C1057 0.931 . S
H1079 C1058 0.931 . S
Gd1080 C1083 2.818 . S
Gd1080 O1100 2.377 . S
Gd1080 O1102 2.448 . S
Gd1080 O1103 2.506 . S
Gd1080 O1104 2.435 . S
Gd1080 O1105 2.717 . S
Gd1080 O1107 2.395 . S
Gd1080 O1111 2.327 . S
Gd1081 C1092 2.818 . S
Gd1081 O1101 2.395 . S
Gd1081 O1105 2.327 . S
Gd1081 O1106 2.377 . S
Gd1081 O1108 2.448 . S
Gd1081 O1109 2.506 . S
Gd1081 O1110 2.435 . S
Gd1081 O1111 2.717 . S
C1082 O1100 1.240 . S
C1082 O1101 1.240 . S
C1083 Gd1080 2.818 . S
C1083 C1084 1.510 . S
C1083 O1102 1.249 . S
C1083 O1103 1.252 . S
C1084 C1083 1.510 . S
C1084 C1085 1.404 . S
C1084 C1086 1.352 . S
C1085 C1084 1.404 . S
C1085 C1089 1.389 . S
C1085 H1112 0.930 . S
C1086 C1084 1.352 . S
C1086 C1088 1.374 . S
C1086 H1113 0.931 . S
C1087 C1088 1.359 . S
C1087 C1089 1.364 . S
C1088 C1086 1.374 . S
C1088 C1087 1.359 . S
C1088 H1114 0.931 . S
C1089 C1085 1.389 . S
C1089 C1087 1.364 . S
C1089 H1115 0.931 . S
C1090 O1104 1.256 . S
C1090 O1105 1.257 . S
C1091 O1106 1.240 . S
C1091 O1107 1.240 . S
C1092 Gd1081 2.818 . S
C1092 C1093 1.510 . S
C1092 O1108 1.249 . S
C1092 O1109 1.252 . S
C1093 C1092 1.510 . S
C1093 C1094 1.404 . S
C1093 C1095 1.352 . S
C1094 C1093 1.404 . S
C1094 C1098 1.389 . S
C1094 H1116 0.930 . S
C1095 C1093 1.352 . S
C1095 C1097 1.374 . S
C1095 H1117 0.931 . S
C1096 C1097 1.359 . S
C1096 C1098 1.364 . S
C1097 C1095 1.374 . S
C1097 C1096 1.359 . S
C1097 H1118 0.931 . S
C1098 C1094 1.389 . S
C1098 C1096 1.364 . S
C1098 H1119 0.931 . S
C1099 O1110 1.256 . S
C1099 O1111 1.257 . S
O1100 Gd1080 2.377 . S
O1100 C1082 1.240 . S
O1101 Gd1081 2.395 . S
O1101 C1082 1.240 . S
O1102 Gd1080 2.448 . S
O1102 C1083 1.249 . S
O1103 Gd1080 2.506 . S
O1103 C1083 1.252 . S
O1104 Gd1080 2.435 . S
O1104 C1090 1.256 . S
O1105 Gd1080 2.717 . S
O1105 Gd1081 2.327 . S
O1105 C1090 1.257 . S
O1106 Gd1081 2.377 . S
O1106 C1091 1.240 . S
O1107 Gd1080 2.395 . S
O1107 C1091 1.240 . S
O1108 Gd1081 2.448 . S
O1108 C1092 1.249 . S
O1109 Gd1081 2.506 . S
O1109 C1092 1.252 . S
O1110 Gd1081 2.435 . S
O1110 C1099 1.256 . S
O1111 Gd1080 2.327 . S
O1111 Gd1081 2.717 . S
O1111 C1099 1.257 . S
H1112 C1085 0.930 . S
H1113 C1086 0.931 . S
H1114 C1088 0.931 . S
H1115 C1089 0.931 . S
H1116 C1094 0.930 . S
H1117 C1095 0.931 . S
H1118 C1097 0.931 . S
H1119 C1098 0.931 . S
Gd1120 C1123 2.818 . S
Gd1120 O1140 2.377 . S
Gd1120 O1142 2.448 . S
Gd1120 O1143 2.506 . S
Gd1120 O1144 2.435 . S
Gd1120 O1145 2.717 . S
Gd1120 O1147 2.395 . S
Gd1120 O1151 2.327 . S
Gd1121 C1132 2.818 . S
Gd1121 O1141 2.395 . S
Gd1121 O1145 2.327 . S
Gd1121 O1146 2.377 . S
Gd1121 O1148 2.448 . S
Gd1121 O1149 2.506 . S
Gd1121 O1150 2.435 . S
Gd1121 O1151 2.717 . S
C1122 O1140 1.240 . S
C1122 O1141 1.240 . S
C1123 Gd1120 2.818 . S
C1123 C1124 1.510 . S
C1123 O1142 1.249 . S
C1123 O1143 1.252 . S
C1124 C1123 1.510 . S
C1124 C1125 1.404 . S
C1124 C1126 1.352 . S
C1125 C1124 1.404 . S
C1125 C1129 1.389 . S
C1125 H1152 0.930 . S
C1126 C1124 1.352 . S
C1126 C1128 1.374 . S
C1126 H1153 0.931 . S
C1127 C1128 1.359 . S
C1127 C1129 1.364 . S
C1128 C1126 1.374 . S
C1128 C1127 1.359 . S
C1128 H1154 0.931 . S
C1129 C1125 1.389 . S
C1129 C1127 1.364 . S
C1129 H1155 0.931 . S
C1130 O1144 1.256 . S
C1130 O1145 1.257 . S
C1131 O1146 1.240 . S
C1131 O1147 1.240 . S
C1132 Gd1121 2.818 . S
C1132 C1133 1.510 . S
C1132 O1148 1.249 . S
C1132 O1149 1.252 . S
C1133 C1132 1.510 . S
C1133 C1134 1.404 . S
C1133 C1135 1.352 . S
C1134 C1133 1.404 . S
C1134 C1138 1.389 . S
C1134 H1156 0.930 . S
C1135 C1133 1.352 . S
C1135 C1137 1.374 . S
C1135 H1157 0.931 . S
C1136 C1137 1.359 . S
C1136 C1138 1.364 . S
C1137 C1135 1.374 . S
C1137 C1136 1.359 . S
C1137 H1158 0.931 . S
C1138 C1134 1.389 . S
C1138 C1136 1.364 . S
C1138 H1159 0.931 . S
C1139 O1150 1.256 . S
C1139 O1151 1.257 . S
O1140 Gd1120 2.377 . S
O1140 C1122 1.240 . S
O1141 Gd1121 2.395 . S
O1141 C1122 1.240 . S
O1142 Gd1120 2.448 . S
O1142 C1123 1.249 . S
O1143 Gd1120 2.506 . S
O1143 C1123 1.252 . S
O1144 Gd1120 2.435 . S
O1144 C1130 1.256 . S
O1145 Gd1120 2.717 . S
O1145 Gd1121 2.327 . S
O1145 C1130 1.257 . S
O1146 Gd1121 2.377 . S
O1146 C1131 1.240 . S
O1147 Gd1120 2.395 . S
O1147 C1131 1.240 . S
O1148 Gd1121 2.448 . S
O1148 C1132 1.249 . S
O1149 Gd1121 2.506 . S
O1149 C1132 1.252 . S
O1150 Gd1121 2.435 . S
O1150 C1139 1.256 . S
O1151 Gd1120 2.327 . S
O1151 Gd1121 2.717 . S
O1151 C1139 1.257 . S
H1152 C1125 0.930 . S
H1153 C1126 0.931 . S
H1154 C1128 0.931 . S
H1155 C1129 0.931 . S
H1156 C1134 0.930 . S
H1157 C1135 0.931 . S
H1158 C1137 0.931 . S
H1159 C1138 0.931 . S
Gd1160 C1163 2.818 . S
Gd1160 O1180 2.377 . S
Gd1160 O1182 2.448 . S
Gd1160 O1183 2.506 . S
Gd1160 O1184 2.435 . S
Gd1160 O1185 2.717 . S
Gd1160 O1187 2.395 1_554 S
Gd1160 O1191 2.327 . S
Gd1161 C1172 2.818 1_554 S
Gd1161 O1181 2.395 . S
Gd1161 O1185 2.327 . S
Gd1161 O1186 2.377 1_554 S
Gd1161 O1188 2.448 1_554 S
Gd1161 O1189 2.506 1_554 S
Gd1161 O1190 2.435 . S
Gd1161 O1191 2.717 . S
C1162 O1180 1.240 . S
C1162 O1181 1.240 . S
C1163 Gd1160 2.818 . S
C1163 C1164 1.510 . S
C1163 O1182 1.249 . S
C1163 O1183 1.252 . S
C1164 C1163 1.510 . S
C1164 C1165 1.404 . S
C1164 C1166 1.352 . S
C1165 C1164 1.404 . S
C1165 C1169 1.389 . S
C1165 H1192 0.930 . S
C1166 C1164 1.352 . S
C1166 C1168 1.374 . S
C1166 H1193 0.931 . S
C1167 C1168 1.359 . S
C1167 C1169 1.364 . S
C1168 C1166 1.374 . S
C1168 C1167 1.359 . S
C1168 H1194 0.931 . S
C1169 C1165 1.389 . S
C1169 C1167 1.364 . S
C1169 H1195 0.931 . S
C1170 O1184 1.256 1_556 S
C1170 O1185 1.257 1_556 S
C1171 O1186 1.240 . S
C1171 O1187 1.240 . S
C1172 Gd1161 2.818 1_556 S
C1172 C1173 1.510 . S
C1172 O1188 1.249 . S
C1172 O1189 1.252 . S
C1173 C1172 1.510 . S
C1173 C1174 1.404 . S
C1173 C1175 1.352 . S
C1174 C1173 1.404 . S
C1174 C1178 1.389 . S
C1174 H1196 0.930 . S
C1175 C1173 1.352 . S
C1175 C1177 1.374 . S
C1175 H1197 0.931 . S
C1176 C1177 1.359 . S
C1176 C1178 1.364 . S
C1177 C1175 1.374 . S
C1177 C1176 1.359 . S
C1177 H1198 0.931 . S
C1178 C1174 1.389 . S
C1178 C1176 1.364 . S
C1178 H1199 0.931 . S
C1179 O1190 1.256 . S
C1179 O1191 1.257 . S
O1180 Gd1160 2.377 . S
O1180 C1162 1.240 . S
O1181 Gd1161 2.395 . S
O1181 C1162 1.240 . S
O1182 Gd1160 2.448 . S
O1182 C1163 1.249 . S
O1183 Gd1160 2.506 . S
O1183 C1163 1.252 . S
O1184 Gd1160 2.435 . S
O1184 C1170 1.256 1_554 S
O1185 Gd1160 2.717 . S
O1185 Gd1161 2.327 . S
O1185 C1170 1.257 1_554 S
O1186 Gd1161 2.377 1_556 S
O1186 C1171 1.240 . S
O1187 Gd1160 2.395 1_556 S
O1187 C1171 1.240 . S
O1188 Gd1161 2.448 1_556 S
O1188 C1172 1.249 . S
O1189 Gd1161 2.506 1_556 S
O1189 C1172 1.252 . S
O1190 Gd1161 2.435 . S
O1190 C1179 1.256 . S
O1191 Gd1160 2.327 . S
O1191 Gd1161 2.717 . S
O1191 C1179 1.257 . S
H1192 C1165 0.930 . S
H1193 C1166 0.931 . S
H1194 C1168 0.931 . S
H1195 C1169 0.931 . S
H1196 C1174 0.930 . S
H1197 C1175 0.931 . S
H1198 C1177 0.931 . S
H1199 C1178 0.931 . S
Gd1200 C1203 2.818 . S
Gd1200 O1220 2.377 . S
Gd1200 O1222 2.448 . S
Gd1200 O1223 2.506 . S
Gd1200 O1224 2.435 . S
Gd1200 O1225 2.717 . S
Gd1200 O1227 2.395 . S
Gd1200 O1231 2.327 . S
Gd1201 C1212 2.818 . S
Gd1201 O1221 2.395 . S
Gd1201 O1225 2.327 . S
Gd1201 O1226 2.377 . S
Gd1201 O1228 2.448 . S
Gd1201 O1229 2.506 . S
Gd1201 O1230 2.435 . S
Gd1201 O1231 2.717 . S
C1202 O1220 1.240 . S
C1202 O1221 1.240 . S
C1203 Gd1200 2.818 . S
C1203 C1204 1.510 . S
C1203 O1222 1.249 . S
C1203 O1223 1.252 . S
C1204 C1203 1.510 . S
C1204 C1205 1.404 . S
C1204 C1206 1.352 . S
C1205 C1204 1.404 . S
C1205 C1209 1.389 1_455 S
C1205 H1232 0.930 . S
C1206 C1204 1.352 . S
C1206 C1208 1.374 . S
C1206 H1233 0.931 . S
C1207 C1208 1.359 1_655 S
C1207 C1209 1.364 . S
C1208 C1206 1.374 . S
C1208 C1207 1.359 1_455 S
C1208 H1234 0.931 . S
C1209 C1205 1.389 1_655 S
C1209 C1207 1.364 . S
C1209 H1235 0.931 . S
C1210 O1224 1.256 . S
C1210 O1225 1.257 . S
C1211 O1226 1.240 . S
C1211 O1227 1.240 . S
C1212 Gd1201 2.818 . S
C1212 C1213 1.510 . S
C1212 O1228 1.249 . S
C1212 O1229 1.252 . S
C1213 C1212 1.510 . S
C1213 C1214 1.404 . S
C1213 C1215 1.352 . S
C1214 C1213 1.404 . S
C1214 C1218 1.389 . S
C1214 H1236 0.930 . S
C1215 C1213 1.352 . S
C1215 C1217 1.374 . S
C1215 H1237 0.931 . S
C1216 C1217 1.359 . S
C1216 C1218 1.364 . S
C1217 C1215 1.374 . S
C1217 C1216 1.359 . S
C1217 H1238 0.931 . S
C1218 C1214 1.389 . S
C1218 C1216 1.364 . S
C1218 H1239 0.931 . S
C1219 O1230 1.256 . S
C1219 O1231 1.257 . S
O1220 Gd1200 2.377 . S
O1220 C1202 1.240 . S
O1221 Gd1201 2.395 . S
O1221 C1202 1.240 . S
O1222 Gd1200 2.448 . S
O1222 C1203 1.249 . S
O1223 Gd1200 2.506 . S
O1223 C1203 1.252 . S
O1224 Gd1200 2.435 . S
O1224 C1210 1.256 . S
O1225 Gd1200 2.717 . S
O1225 Gd1201 2.327 . S
O1225 C1210 1.257 . S
O1226 Gd1201 2.377 . S
O1226 C1211 1.240 . S
O1227 Gd1200 2.395 . S
O1227 C1211 1.240 . S
O1228 Gd1201 2.448 . S
O1228 C1212 1.249 . S
O1229 Gd1201 2.506 . S
O1229 C1212 1.252 . S
O1230 Gd1201 2.435 . S
O1230 C1219 1.256 . S
O1231 Gd1200 2.327 . S
O1231 Gd1201 2.717 . S
O1231 C1219 1.257 . S
H1232 C1205 0.930 . S
H1233 C1206 0.931 . S
H1234 C1208 0.931 . S
H1235 C1209 0.931 . S
H1236 C1214 0.930 . S
H1237 C1215 0.931 . S
H1238 C1217 0.931 . S
H1239 C1218 0.931 . S
Gd1240 C1243 2.818 . S
Gd1240 O1260 2.377 . S
Gd1240 O1262 2.448 . S
Gd1240 O1263 2.506 . S
Gd1240 O1264 2.435 . S
Gd1240 O1265 2.717 . S
Gd1240 O1267 2.395 . S
Gd1240 O1271 2.327 . S
Gd1241 C1252 2.818 . S
Gd1241 O1261 2.395 . S
Gd1241 O1265 2.327 . S
Gd1241 O1266 2.377 . S
Gd1241 O1268 2.448 . S
Gd1241 O1269 2.506 . S
Gd1241 O1270 2.435 . S
Gd1241 O1271 2.717 . S
C1242 O1260 1.240 . S
C1242 O1261 1.240 . S
C1243 Gd1240 2.818 . S
C1243 C1244 1.510 . S
C1243 O1262 1.249 . S
C1243 O1263 1.252 . S
C1244 C1243 1.510 . S
C1244 C1245 1.404 . S
C1244 C1246 1.352 . S
C1245 C1244 1.404 . S
C1245 C1249 1.389 . S
C1245 H1272 0.930 . S
C1246 C1244 1.352 . S
C1246 C1248 1.374 . S
C1246 H1273 0.931 . S
C1247 C1248 1.359 . S
C1247 C1249 1.364 . S
C1248 C1246 1.374 . S
C1248 C1247 1.359 . S
C1248 H1274 0.931 . S
C1249 C1245 1.389 . S
C1249 C1247 1.364 . S
C1249 H1275 0.931 . S
C1250 O1264 1.256 . S
C1250 O1265 1.257 . S
C1251 O1266 1.240 . S
C1251 O1267 1.240 . S
C1252 Gd1241 2.818 . S
C1252 C1253 1.510 . S
C1252 O1268 1.249 . S
C1252 O1269 1.252 . S
C1253 C1252 1.510 . S
C1253 C1254 1.404 . S
C1253 C1255 1.352 . S
C1254 C1253 1.404 . S
C1254 C1258 1.389 . S
C1254 H1276 0.930 . S
C1255 C1253 1.352 . S
C1255 C1257 1.374 . S
C1255 H1277 0.931 . S
C1256 C1257 1.359 . S
C1256 C1258 1.364 . S
C1257 C1255 1.374 . S
C1257 C1256 1.359 . S
C1257 H1278 0.931 . S
C1258 C1254 1.389 . S
C1258 C1256 1.364 . S
C1258 H1279 0.931 . S
C1259 O1270 1.256 . S
C1259 O1271 1.257 . S
O1260 Gd1240 2.377 . S
O1260 C1242 1.240 . S
O1261 Gd1241 2.395 . S
O1261 C1242 1.240 . S
O1262 Gd1240 2.448 . S
O1262 C1243 1.249 . S
O1263 Gd1240 2.506 . S
O1263 C1243 1.252 . S
O1264 Gd1240 2.435 . S
O1264 C1250 1.256 . S
O1265 Gd1240 2.717 . S
O1265 Gd1241 2.327 . S
O1265 C1250 1.257 . S
O1266 Gd1241 2.377 . S
O1266 C1251 1.240 . S
O1267 Gd1240 2.395 . S
O1267 C1251 1.240 . S
O1268 Gd1241 2.448 . S
O1268 C1252 1.249 . S
O1269 Gd1241 2.506 . S
O1269 C1252 1.252 . S
O1270 Gd1241 2.435 . S
O1270 C1259 1.256 . S
O1271 Gd1240 2.327 . S
O1271 Gd1241 2.717 . S
O1271 C1259 1.257 . S
H1272 C1245 0.930 . S
H1273 C1246 0.931 . S
H1274 C1248 0.931 . S
H1275 C1249 0.931 . S
H1276 C1254 0.930 . S
H1277 C1255 0.931 . S
H1278 C1257 0.931 . S
H1279 C1258 0.931 . S
C1280 C1281 1.387 . S
C1280 H1284 0.950 . S
C1280 C1289 1.390 . S
C1281 C1280 1.387 . S
C1281 C1283 1.387 . S
H1282 C1289 0.950 . S
C1283 C1281 1.387 . S
C1283 C1285 1.390 . S
C1283 H1287 0.950 . S
H1284 C1280 0.950 . S
C1285 C1283 1.390 . S
C1285 C1286 1.387 . S
C1285 H1288 0.950 . S
C1286 C1285 1.387 . S
C1286 C1289 1.387 . S
H1287 C1283 0.950 . S
H1288 C1285 0.950 . S
C1289 C1280 1.390 . S
C1289 H1282 0.950 . S
C1289 C1286 1.387 . S
C1290 C1291 1.387 . S
C1290 H1294 0.950 . S
C1290 C1299 1.390 . S
C1291 C1290 1.387 . S
C1291 C1293 1.387 . S
H1292 C1299 0.950 . S
C1293 C1291 1.387 . S
C1293 C1295 1.390 . S
C1293 H1297 0.950 . S
H1294 C1290 0.950 . S
C1295 C1293 1.390 . S
C1295 C1296 1.387 . S
C1295 H1298 0.950 . S
C1296 C1295 1.387 . S
C1296 C1299 1.387 . S
H1297 C1293 0.950 . S
H1298 C1295 0.950 . S
C1299 C1290 1.390 . S
C1299 H1292 0.950 . S
C1299 C1296 1.387 . S
C1300 C1301 1.387 . S
C1300 H1304 0.950 . S
C1300 C1309 1.390 . S
C1301 C1300 1.387 . S
C1301 C1303 1.387 . S
H1302 C1309 0.950 . S
C1303 C1301 1.387 . S
C1303 C1305 1.390 . S
C1303 H1307 0.950 . S
H1304 C1300 0.950 . S
C1305 C1303 1.390 . S
C1305 C1306 1.387 . S
C1305 H1308 0.950 . S
C1306 C1305 1.387 . S
C1306 C1309 1.387 . S
H1307 C1303 0.950 . S
H1308 C1305 0.950 . S
C1309 C1300 1.390 . S
C1309 H1302 0.950 . S
C1309 C1306 1.387 . S
C1310 C1311 1.387 . S
C1310 H1314 0.950 . S
C1310 C1319 1.390 . S
C1311 C1310 1.387 . S
C1311 C1313 1.387 . S
H1312 C1319 0.950 . S
C1313 C1311 1.387 . S
C1313 C1315 1.390 . S
C1313 H1317 0.950 . S
H1314 C1310 0.950 . S
C1315 C1313 1.390 . S
C1315 C1316 1.387 . S
C1315 H1318 0.950 . S
C1316 C1315 1.387 . S
C1316 C1319 1.387 . S
H1317 C1313 0.950 . S
H1318 C1315 0.950 . S
C1319 C1310 1.390 . S
C1319 H1312 0.950 . S
C1319 C1316 1.387 . S
C1320 C1321 1.387 . S
C1320 H1324 0.950 . S
C1320 C1329 1.390 . S
C1321 C1320 1.387 . S
C1321 C1323 1.387 . S
H1322 C1329 0.950 . S
C1323 C1321 1.387 . S
C1323 C1325 1.390 . S
C1323 H1327 0.950 . S
H1324 C1320 0.950 . S
C1325 C1323 1.390 . S
C1325 C1326 1.387 . S
C1325 H1328 0.950 . S
C1326 C1325 1.387 . S
C1326 C1329 1.387 . S
H1327 C1323 0.950 . S
H1328 C1325 0.950 . S
C1329 C1320 1.390 . S
C1329 H1322 0.950 . S
C1329 C1326 1.387 . S
C1330 C1331 1.387 . S
C1330 H1334 0.950 . S
C1330 C1339 1.390 . S
C1331 C1330 1.387 . S
C1331 C1333 1.387 . S
H1332 C1339 0.950 . S
C1333 C1331 1.387 . S
C1333 C1335 1.390 . S
C1333 H1337 0.950 . S
H1334 C1330 0.950 . S
C1335 C1333 1.390 . S
C1335 C1336 1.387 . S
C1335 H1338 0.950 . S
C1336 C1335 1.387 . S
C1336 C1339 1.387 . S
H1337 C1333 0.950 . S
H1338 C1335 0.950 . S
C1339 C1330 1.390 . S
C1339 H1332 0.950 . S
C1339 C1336 1.387 . S
C1340 C1341 1.387 . S
C1340 H1344 0.950 . S
C1340 C1349 1.390 . S
C1341 C1340 1.387 . S
C1341 C1343 1.387 . S
H1342 C1349 0.950 . S
C1343 C1341 1.387 . S
C1343 C1345 1.390 . S
C1343 H1347 0.950 . S
H1344 C1340 0.950 . S
C1345 C1343 1.390 . S
C1345 C1346 1.387 . S
C1345 H1348 0.950 . S
C1346 C1345 1.387 . S
C1346 C1349 1.387 . S
H1347 C1343 0.950 . S
H1348 C1345 0.950 . S
C1349 C1340 1.390 . S
C1349 H1342 0.950 . S
C1349 C1346 1.387 . S
C1350 C1351 1.387 . S
C1350 H1354 0.950 . S
C1350 C1359 1.390 . S
C1351 C1350 1.387 . S
C1351 C1353 1.387 . S
H1352 C1359 0.950 . S
C1353 C1351 1.387 . S
C1353 C1355 1.390 . S
C1353 H1357 0.950 . S
H1354 C1350 0.950 . S
C1355 C1353 1.390 . S
C1355 C1356 1.387 . S
C1355 H1358 0.950 . S
C1356 C1355 1.387 . S
C1356 C1359 1.387 . S
H1357 C1353 0.950 . S
H1358 C1355 0.950 . S
C1359 C1350 1.390 . S
C1359 H1352 0.950 . S
C1359 C1356 1.387 . S
C1360 C1361 1.387 . S
C1360 H1364 0.950 . S
C1360 C1369 1.390 . S
C1361 C1360 1.387 . S
C1361 C1363 1.387 . S
H1362 C1369 0.950 . S
C1363 C1361 1.387 . S
C1363 C1365 1.390 . S
C1363 H1367 0.950 . S
H1364 C1360 0.950 . S
C1365 C1363 1.390 . S
C1365 C1366 1.387 . S
C1365 H1368 0.950 . S
C1366 C1365 1.387 . S
C1366 C1369 1.387 . S
H1367 C1363 0.950 . S
H1368 C1365 0.950 . S
C1369 C1360 1.390 . S
C1369 H1362 0.950 . S
C1369 C1366 1.387 . S
C1370 C1371 1.387 . S
C1370 H1374 0.950 . S
C1370 C1379 1.390 . S
C1371 C1370 1.387 . S
C1371 C1373 1.387 . S
H1372 C1379 0.950 . S
C1373 C1371 1.387 . S
C1373 C1375 1.390 . S
C1373 H1377 0.950 . S
H1374 C1370 0.950 . S
C1375 C1373 1.390 . S
C1375 C1376 1.387 . S
C1375 H1378 0.950 . S
C1376 C1375 1.387 . S
C1376 C1379 1.387 . S
H1377 C1373 0.950 . S
H1378 C1375 0.950 . S
C1379 C1370 1.390 . S
C1379 H1372 0.950 . S
C1379 C1376 1.387 . S
C1380 C1381 1.387 . S
C1380 H1384 0.950 . S
C1380 C1389 1.390 . S
C1381 C1380 1.387 . S
C1381 C1383 1.387 . S
H1382 C1389 0.950 . S
C1383 C1381 1.387 . S
C1383 C1385 1.390 . S
C1383 H1387 0.950 . S
H1384 C1380 0.950 . S
C1385 C1383 1.390 . S
C1385 C1386 1.387 . S
C1385 H1388 0.950 . S
C1386 C1385 1.387 . S
C1386 C1389 1.387 . S
H1387 C1383 0.950 . S
H1388 C1385 0.950 . S
C1389 C1380 1.390 . S
C1389 H1382 0.950 . S
C1389 C1386 1.387 . S
C1390 C1391 1.387 . S
C1390 H1394 0.950 . S
C1390 C1399 1.390 . S
C1391 C1390 1.387 . S
C1391 C1393 1.387 . S
H1392 C1399 0.950 . S
C1393 C1391 1.387 . S
C1393 C1395 1.390 . S
C1393 H1397 0.950 . S
H1394 C1390 0.950 . S
C1395 C1393 1.390 . S
C1395 C1396 1.387 . S
C1395 H1398 0.950 . S
C1396 C1395 1.387 . S
C1396 C1399 1.387 . S
H1397 C1393 0.950 . S
H1398 C1395 0.950 . S
C1399 C1390 1.390 . S
C1399 H1392 0.950 . S
C1399 C1396 1.387 . S
C1400 C1401 1.387 . S
C1400 H1404 0.950 . S
C1400 C1409 1.390 . S
C1401 C1400 1.387 . S
C1401 C1403 1.387 . S
H1402 C1409 0.950 . S
C1403 C1401 1.387 . S
C1403 C1405 1.390 . S
C1403 H1407 0.950 . S
H1404 C1400 0.950 . S
C1405 C1403 1.390 . S
C1405 C1406 1.387 . S
C1405 H1408 0.950 . S
C1406 C1405 1.387 . S
C1406 C1409 1.387 . S
H1407 C1403 0.950 . S
H1408 C1405 0.950 . S
C1409 C1400 1.390 . S
C1409 H1402 0.950 . S
C1409 C1406 1.387 . S
C1410 C1411 1.387 . S
C1410 H1414 0.950 . S
C1410 C1419 1.390 . S
C1411 C1410 1.387 . S
C1411 C1413 1.387 . S
H1412 C1419 0.950 . S
C1413 C1411 1.387 . S
C1413 C1415 1.390 . S
C1413 H1417 0.950 . S
H1414 C1410 0.950 . S
C1415 C1413 1.390 . S
C1415 C1416 1.387 . S
C1415 H1418 0.950 . S
C1416 C1415 1.387 . S
C1416 C1419 1.387 . S
H1417 C1413 0.950 . S
H1418 C1415 0.950 . S
C1419 C1410 1.390 . S
C1419 H1412 0.950 . S
C1419 C1416 1.387 . S
C1420 C1421 1.387 . S
C1420 H1424 0.950 . S
C1420 C1429 1.390 . S
C1421 C1420 1.387 . S
C1421 C1423 1.387 . S
H1422 C1429 0.950 . S
C1423 C1421 1.387 . S
C1423 C1425 1.390 . S
C1423 H1427 0.950 . S
H1424 C1420 0.950 . S
C1425 C1423 1.390 . S
C1425 C1426 1.387 . S
C1425 H1428 0.950 . S
C1426 C1425 1.387 . S
C1426 C1429 1.387 . S
H1427 C1423 0.950 . S
H1428 C1425 0.950 . S
C1429 C1420 1.390 . S
C1429 H1422 0.950 . S
C1429 C1426 1.387 . S
C1430 C1431 1.387 . S
C1430 H1434 0.950 . S
C1430 C1439 1.390 . S
C1431 C1430 1.387 . S
C1431 C1433 1.387 . S
H1432 C1439 0.950 . S
C1433 C1431 1.387 . S
C1433 C1435 1.390 . S
C1433 H1437 0.950 . S
H1434 C1430 0.950 . S
C1435 C1433 1.390 . S
C1435 C1436 1.387 . S
C1435 H1438 0.950 . S
C1436 C1435 1.387 . S
C1436 C1439 1.387 . S
H1437 C1433 0.950 . S
H1438 C1435 0.950 . S
C1439 C1430 1.390 . S
C1439 H1432 0.950 . S
C1439 C1436 1.387 . S
C1440 C1441 1.387 . S
C1440 H1444 0.950 . S
C1440 C1449 1.390 . S
C1441 C1440 1.387 . S
C1441 C1443 1.387 . S
H1442 C1449 0.950 . S
C1443 C1441 1.387 . S
C1443 C1445 1.390 . S
C1443 H1447 0.950 . S
H1444 C1440 0.950 . S
C1445 C1443 1.390 . S
C1445 C1446 1.387 . S
C1445 H1448 0.950 . S
C1446 C1445 1.387 . S
C1446 C1449 1.387 . S
H1447 C1443 0.950 . S
H1448 C1445 0.950 . S
C1449 C1440 1.390 . S
C1449 H1442 0.950 . S
C1449 C1446 1.387 . S
C1450 C1451 1.387 . S
C1450 H1454 0.950 . S
C1450 C1459 1.390 . S
C1451 C1450 1.387 . S
C1451 C1453 1.387 . S
H1452 C1459 0.950 . S
C1453 C1451 1.387 . S
C1453 C1455 1.390 . S
C1453 H1457 0.950 . S
H1454 C1450 0.950 . S
C1455 C1453 1.390 . S
C1455 C1456 1.387 . S
C1455 H1458 0.950 . S
C1456 C1455 1.387 . S
C1456 C1459 1.387 . S
H1457 C1453 0.950 . S
H1458 C1455 0.950 . S
C1459 C1450 1.390 . S
C1459 H1452 0.950 . S
C1459 C1456 1.387 . S
C1460 C1461 1.387 . S
C1460 H1464 0.950 . S
C1460 C1469 1.390 . S
C1461 C1460 1.387 . S
C1461 C1463 1.387 . S
H1462 C1469 0.950 . S
C1463 C1461 1.387 . S
C1463 C1465 1.390 . S
C1463 H1467 0.950 . S
H1464 C1460 0.950 . S
C1465 C1463 1.390 . S
C1465 C1466 1.387 . S
C1465 H1468 0.950 . S
C1466 C1465 1.387 . S
C1466 C1469 1.387 . S
H1467 C1463 0.950 . S
H1468 C1465 0.950 . S
C1469 C1460 1.390 . S
C1469 H1462 0.950 . S
C1469 C1466 1.387 . S
C1470 C1471 1.387 . S
C1470 H1474 0.950 . S
C1470 C1479 1.390 . S
C1471 C1470 1.387 . S
C1471 C1473 1.387 . S
H1472 C1479 0.950 . S
C1473 C1471 1.387 . S
C1473 C1475 1.390 . S
C1473 H1477 0.950 . S
H1474 C1470 0.950 . S
C1475 C1473 1.390 . S
C1475 C1476 1.387 . S
C1475 H1478 0.950 . S
C1476 C1475 1.387 . S
C1476 C1479 1.387 . S
H1477 C1473 0.950 . S
H1478 C1475 0.950 . S
C1479 C1470 1.390 . S
C1479 H1472 0.950 . S
C1479 C1476 1.387 . S
C1480 C1481 1.387 . S
C1480 H1484 0.950 . S
C1480 C1489 1.390 . S
C1481 C1480 1.387 . S
C1481 C1483 1.387 . S
H1482 C1489 0.950 . S
C1483 C1481 1.387 . S
C1483 C1485 1.390 . S
C1483 H1487 0.950 . S
H1484 C1480 0.950 . S
C1485 C1483 1.390 . S
C1485 C1486 1.387 . S
C1485 H1488 0.950 . S
C1486 C1485 1.387 . S
C1486 C1489 1.387 . S
H1487 C1483 0.950 . S
H1488 C1485 0.950 . S
C1489 C1480 1.390 . S
C1489 H1482 0.950 . S
C1489 C1486 1.387 . S
C1490 C1491 1.387 . S
C1490 H1494 0.950 . S
C1490 C1499 1.390 . S
C1491 C1490 1.387 . S
C1491 C1493 1.387 . S
H1492 C1499 0.950 . S
C1493 C1491 1.387 . S
C1493 C1495 1.390 . S
C1493 H1497 0.950 . S
H1494 C1490 0.950 . S
C1495 C1493 1.390 . S
C1495 C1496 1.387 . S
C1495 H1498 0.950 . S
C1496 C1495 1.387 . S
C1496 C1499 1.387 . S
H1497 C1493 0.950 . S
H1498 C1495 0.950 . S
C1499 C1490 1.390 . S
C1499 H1492 0.950 . S
C1499 C1496 1.387 . S
C1500 C1501 1.387 . S
C1500 H1504 0.950 . S
C1500 C1509 1.390 . S
C1501 C1500 1.387 . S
C1501 C1503 1.387 . S
H1502 C1509 0.950 . S
C1503 C1501 1.387 . S
C1503 C1505 1.390 . S
C1503 H1507 0.950 . S
H1504 C1500 0.950 . S
C1505 C1503 1.390 . S
C1505 C1506 1.387 . S
C1505 H1508 0.950 . S
C1506 C1505 1.387 . S
C1506 C1509 1.387 . S
H1507 C1503 0.950 . S
H1508 C1505 0.950 . S
C1509 C1500 1.390 . S
C1509 H1502 0.950 . S
C1509 C1506 1.387 . S
C1510 C1511 1.387 . S
C1510 H1514 0.950 . S
C1510 C1519 1.390 . S
C1511 C1510 1.387 . S
C1511 C1513 1.387 . S
H1512 C1519 0.950 . S
C1513 C1511 1.387 . S
C1513 C1515 1.390 . S
C1513 H1517 0.950 . S
H1514 C1510 0.950 . S
C1515 C1513 1.390 . S
C1515 C1516 1.387 . S
C1515 H1518 0.950 . S
C1516 C1515 1.387 . S
C1516 C1519 1.387 . S
H1517 C1513 0.950 . S
H1518 C1515 0.950 . S
C1519 C1510 1.390 . S
C1519 H1512 0.950 . S
C1519 C1516 1.387 . S
C1520 C1521 1.387 . S
C1520 H1524 0.950 . S
C1520 C1529 1.390 . S
C1521 C1520 1.387 . S
C1521 C1523 1.387 . S
H1522 C1529 0.950 . S
C1523 C1521 1.387 . S
C1523 C1525 1.390 . S
C1523 H1527 0.950 . S
H1524 C1520 0.950 . S
C1525 C1523 1.390 . S
C1525 C1526 1.387 . S
C1525 H1528 0.950 . S
C1526 C1525 1.387 . S
C1526 C1529 1.387 . S
H1527 C1523 0.950 . S
H1528 C1525 0.950 . S
C1529 C1520 1.390 . S
C1529 H1522 0.950 . S
C1529 C1526 1.387 . S
C1530 C1531 1.387 . S
C1530 H1534 0.950 . S
C1530 C1539 1.390 . S
C1531 C1530 1.387 . S
C1531 C1533 1.387 . S
H1532 C1539 0.950 . S
C1533 C1531 1.387 . S
C1533 C1535 1.390 . S
C1533 H1537 0.950 . S
H1534 C1530 0.950 . S
C1535 C1533 1.390 . S
C1535 C1536 1.387 . S
C1535 H1538 0.950 . S
C1536 C1535 1.387 . S
C1536 C1539 1.387 . S
H1537 C1533 0.950 . S
H1538 C1535 0.950 . S
C1539 C1530 1.390 . S
C1539 H1532 0.950 . S
C1539 C1536 1.387 . S
C1540 C1541 1.387 . S
C1540 H1544 0.950 . S
C1540 C1549 1.390 . S
C1541 C1540 1.387 . S
C1541 C1543 1.387 . S
H1542 C1549 0.950 . S
C1543 C1541 1.387 . S
C1543 C1545 1.390 . S
C1543 H1547 0.950 . S
H1544 C1540 0.950 . S
C1545 C1543 1.390 . S
C1545 C1546 1.387 . S
C1545 H1548 0.950 . S
C1546 C1545 1.387 . S
C1546 C1549 1.387 . S
H1547 C1543 0.950 . S
H1548 C1545 0.950 . S
C1549 C1540 1.390 . S
C1549 H1542 0.950 . S
C1549 C1546 1.387 . S
C1550 C1551 1.387 . S
C1550 H1554 0.950 . S
C1550 C1559 1.390 . S
C1551 C1550 1.387 . S
C1551 C1553 1.387 . S
H1552 C1559 0.950 . S
C1553 C1551 1.387 . S
C1553 C1555 1.390 . S
C1553 H1557 0.950 . S
H1554 C1550 0.950 . S
C1555 C1553 1.390 . S
C1555 C1556 1.387 . S
C1555 H1558 0.950 . S
C1556 C1555 1.387 . S
C1556 C1559 1.387 . S
H1557 C1553 0.950 . S
H1558 C1555 0.950 . S
C1559 C1550 1.390 . S
C1559 H1552 0.950 . S
C1559 C1556 1.387 . S
C1560 C1561 1.387 . S
C1560 H1564 0.950 . S
C1560 C1569 1.390 . S
C1561 C1560 1.387 . S
C1561 C1563 1.387 . S
H1562 C1569 0.950 . S
C1563 C1561 1.387 . S
C1563 C1565 1.390 . S
C1563 H1567 0.950 . S
H1564 C1560 0.950 . S
C1565 C1563 1.390 . S
C1565 C1566 1.387 . S
C1565 H1568 0.950 . S
C1566 C1565 1.387 . S
C1566 C1569 1.387 . S
H1567 C1563 0.950 . S
H1568 C1565 0.950 . S
C1569 C1560 1.390 . S
C1569 H1562 0.950 . S
C1569 C1566 1.387 . S
C1570 C1571 1.387 . S
C1570 H1574 0.950 . S
C1570 C1579 1.390 . S
C1571 C1570 1.387 . S
C1571 C1573 1.387 . S
H1572 C1579 0.950 . S
C1573 C1571 1.387 . S
C1573 C1575 1.390 . S
C1573 H1577 0.950 . S
H1574 C1570 0.950 . S
C1575 C1573 1.390 . S
C1575 C1576 1.387 . S
C1575 H1578 0.950 . S
C1576 C1575 1.387 . S
C1576 C1579 1.387 . S
H1577 C1573 0.950 . S
H1578 C1575 0.950 . S
C1579 C1570 1.390 . S
C1579 H1572 0.950 . S
C1579 C1576 1.387 . S
C1580 C1581 1.387 . S
C1580 H1584 0.950 . S
C1580 C1589 1.390 . S
C1581 C1580 1.387 . S
C1581 C1583 1.387 . S
H1582 C1589 0.950 . S
C1583 C1581 1.387 . S
C1583 C1585 1.390 . S
C1583 H1587 0.950 . S
H1584 C1580 0.950 . S
C1585 C1583 1.390 . S
C1585 C1586 1.387 . S
C1585 H1588 0.950 . S
C1586 C1585 1.387 . S
C1586 C1589 1.387 . S
H1587 C1583 0.950 . S
H1588 C1585 0.950 . S
C1589 C1580 1.390 . S
C1589 H1582 0.950 . S
C1589 C1586 1.387 . S
C1590 C1591 1.387 . S
C1590 H1594 0.950 . S
C1590 C1599 1.390 . S
C1591 C1590 1.387 . S
C1591 C1593 1.387 . S
H1592 C1599 0.950 . S
C1593 C1591 1.387 . S
C1593 C1595 1.390 . S
C1593 H1597 0.950 . S
H1594 C1590 0.950 . S
C1595 C1593 1.390 . S
C1595 C1596 1.387 . S
C1595 H1598 0.950 . S
C1596 C1595 1.387 . S
C1596 C1599 1.387 . S
H1597 C1593 0.950 . S
H1598 C1595 0.950 . S
C1599 C1590 1.390 . S
C1599 H1592 0.950 . S
C1599 C1596 1.387 . S
C1600 C1601 1.387 . S
C1600 H1604 0.950 . S
C1600 C1609 1.390 . S
C1601 C1600 1.387 . S
C1601 C1603 1.387 . S
H1602 C1609 0.950 . S
C1603 C1601 1.387 . S
C1603 C1605 1.390 . S
C1603 H1607 0.950 . S
H1604 C1600 0.950 . S
C1605 C1603 1.390 . S
C1605 C1606 1.387 . S
C1605 H1608 0.950 . S
C1606 C1605 1.387 . S
C1606 C1609 1.387 . S
H1607 C1603 0.950 . S
H1608 C1605 0.950 . S
C1609 C1600 1.390 . S
C1609 H1602 0.950 . S
C1609 C1606 1.387 . S
C1610 C1611 1.387 . S
C1610 H1614 0.950 . S
C1610 C1619 1.390 . S
C1611 C1610 1.387 . S
C1611 C1613 1.387 . S
H1612 C1619 0.950 . S
C1613 C1611 1.387 . S
C1613 C1615 1.390 . S
C1613 H1617 0.950 . S
H1614 C1610 0.950 . S
C1615 C1613 1.390 . S
C1615 C1616 1.387 . S
C1615 H1618 0.950 . S
C1616 C1615 1.387 . S
C1616 C1619 1.387 . S
H1617 C1613 0.950 . S
H1618 C1615 0.950 . S
C1619 C1610 1.390 . S
C1619 H1612 0.950 . S
C1619 C1616 1.387 . S
C1620 C1621 1.387 . S
C1620 H1624 0.950 . S
C1620 C1629 1.390 . S
C1621 C1620 1.387 . S
C1621 C1623 1.387 . S
H1622 C1629 0.950 . S
C1623 C1621 1.387 . S
C1623 C1625 1.390 . S
C1623 H1627 0.950 . S
H1624 C1620 0.950 . S
C1625 C1623 1.390 . S
C1625 C1626 1.387 . S
C1625 H1628 0.950 . S
C1626 C1625 1.387 . S
C1626 C1629 1.387 . S
H1627 C1623 0.950 . S
H1628 C1625 0.950 . S
C1629 C1620 1.390 . S
C1629 H1622 0.950 . S
C1629 C1626 1.387 . S
C1630 C1631 1.387 . S
C1630 H1634 0.950 . S
C1630 C1639 1.390 . S
C1631 C1630 1.387 . S
C1631 C1633 1.387 . S
H1632 C1639 0.950 . S
C1633 C1631 1.387 . S
C1633 C1635 1.390 . S
C1633 H1637 0.950 . S
H1634 C1630 0.950 . S
C1635 C1633 1.390 . S
C1635 C1636 1.387 . S
C1635 H1638 0.950 . S
C1636 C1635 1.387 . S
C1636 C1639 1.387 . S
H1637 C1633 0.950 . S
H1638 C1635 0.950 . S
C1639 C1630 1.390 . S
C1639 H1632 0.950 . S
C1639 C1636 1.387 . S
C1640 C1641 1.387 . S
C1640 H1644 0.950 . S
C1640 C1649 1.390 . S
C1641 C1640 1.387 . S
C1641 C1643 1.387 . S
H1642 C1649 0.950 . S
C1643 C1641 1.387 . S
C1643 C1645 1.390 . S
C1643 H1647 0.950 . S
H1644 C1640 0.950 . S
C1645 C1643 1.390 . S
C1645 C1646 1.387 . S
C1645 H1648 0.950 . S
C1646 C1645 1.387 . S
C1646 C1649 1.387 . S
H1647 C1643 0.950 . S
H1648 C1645 0.950 . S
C1649 C1640 1.390 . S
C1649 H1642 0.950 . S
C1649 C1646 1.387 . S
C1650 C1651 1.387 . S
C1650 H1654 0.950 . S
C1650 C1659 1.390 . S
C1651 C1650 1.387 . S
C1651 C1653 1.387 . S
H1652 C1659 0.950 . S
C1653 C1651 1.387 . S
C1653 C1655 1.390 . S
C1653 H1657 0.950 . S
H1654 C1650 0.950 . S
C1655 C1653 1.390 . S
C1655 C1656 1.387 . S
C1655 H1658 0.950 . S
C1656 C1655 1.387 . S
C1656 C1659 1.387 . S
H1657 C1653 0.950 . S
H1658 C1655 0.950 . S
C1659 C1650 1.390 . S
C1659 H1652 0.950 . S
C1659 C1656 1.387 . S
C1660 C1661 1.387 . S
C1660 H1664 0.950 . S
C1660 C1669 1.390 . S
C1661 C1660 1.387 . S
C1661 C1663 1.387 . S
H1662 C1669 0.950 . S
C1663 C1661 1.387 . S
C1663 C1665 1.390 . S
C1663 H1667 0.950 . S
H1664 C1660 0.950 . S
C1665 C1663 1.390 . S
C1665 C1666 1.387 . S
C1665 H1668 0.950 . S
C1666 C1665 1.387 . S
C1666 C1669 1.387 . S
H1667 C1663 0.950 . S
H1668 C1665 0.950 . S
C1669 C1660 1.390 . S
C1669 H1662 0.950 . S
C1669 C1666 1.387 . S
C1670 C1671 1.387 . S
C1670 H1674 0.950 . S
C1670 C1679 1.390 . S
C1671 C1670 1.387 . S
C1671 C1673 1.387 . S
H1672 C1679 0.950 . S
C1673 C1671 1.387 . S
C1673 C1675 1.390 . S
C1673 H1677 0.950 . S
H1674 C1670 0.950 . S
C1675 C1673 1.390 . S
C1675 C1676 1.387 . S
C1675 H1678 0.950 . S
C1676 C1675 1.387 . S
C1676 C1679 1.387 . S
H1677 C1673 0.950 . S
H1678 C1675 0.950 . S
C1679 C1670 1.390 . S
C1679 H1672 0.950 . S
C1679 C1676 1.387 . S
C1680 C1681 1.387 . S
C1680 H1684 0.950 . S
C1680 C1689 1.390 . S
C1681 C1680 1.387 . S
C1681 C1683 1.387 . S
H1682 C1689 0.950 . S
C1683 C1681 1.387 . S
C1683 C1685 1.390 . S
C1683 H1687 0.950 . S
H1684 C1680 0.950 . S
C1685 C1683 1.390 . S
C1685 C1686 1.387 . S
C1685 H1688 0.950 . S
C1686 C1685 1.387 . S
C1686 C1689 1.387 . S
H1687 C1683 0.950 . S
H1688 C1685 0.950 . S
C1689 C1680 1.390 . S
C1689 H1682 0.950 . S
C1689 C1686 1.387 . S
C1690 C1691 1.387 . S
C1690 H1694 0.950 . S
C1690 C1699 1.390 . S
C1691 C1690 1.387 . S
C1691 C1693 1.387 . S
H1692 C1699 0.950 . S
C1693 C1691 1.387 . S
C1693 C1695 1.390 . S
C1693 H1697 0.950 . S
H1694 C1690 0.950 . S
C1695 C1693 1.390 . S
C1695 C1696 1.387 . S
C1695 H1698 0.950 . S
C1696 C1695 1.387 . S
C1696 C1699 1.387 . S
H1697 C1693 0.950 . S
H1698 C1695 0.950 . S
C1699 C1690 1.390 . S
C1699 H1692 0.950 . S
C1699 C1696 1.387 . S
C1700 C1701 1.387 . S
C1700 H1704 0.950 . S
C1700 C1709 1.390 . S
C1701 C1700 1.387 . S
C1701 C1703 1.387 . S
H1702 C1709 0.950 . S
C1703 C1701 1.387 . S
C1703 C1705 1.390 . S
C1703 H1707 0.950 . S
H1704 C1700 0.950 . S
C1705 C1703 1.390 . S
C1705 C1706 1.387 . S
C1705 H1708 0.950 . S
C1706 C1705 1.387 . S
C1706 C1709 1.387 . S
H1707 C1703 0.950 . S
H1708 C1705 0.950 . S
C1709 C1700 1.390 . S
C1709 H1702 0.950 . S
C1709 C1706 1.387 . S
C1710 C1711 1.387 . S
C1710 H1714 0.950 . S
C1710 C1719 1.390 . S
C1711 C1710 1.387 . S
C1711 C1713 1.387 . S
H1712 C1719 0.950 . S
C1713 C1711 1.387 . S
C1713 C1715 1.390 . S
C1713 H1717 0.950 . S
H1714 C1710 0.950 . S
C1715 C1713 1.390 . S
C1715 C1716 1.387 . S
C1715 H1718 0.950 . S
C1716 C1715 1.387 . S
C1716 C1719 1.387 . S
H1717 C1713 0.950 . S
H1718 C1715 0.950 . S
C1719 C1710 1.390 . S
C1719 H1712 0.950 . S
C1719 C1716 1.387 . S
C1720 C1721 1.387 . S
C1720 H1724 0.950 . S
C1720 C1729 1.390 . S
C1721 C1720 1.387 . S
C1721 C1723 1.387 . S
H1722 C1729 0.950 . S
C1723 C1721 1.387 . S
C1723 C1725 1.390 . S
C1723 H1727 0.950 . S
H1724 C1720 0.950 . S
C1725 C1723 1.390 . S
C1725 C1726 1.387 . S
C1725 H1728 0.950 . S
C1726 C1725 1.387 . S
C1726 C1729 1.387 . S
H1727 C1723 0.950 . S
H1728 C1725 0.950 . S
C1729 C1720 1.390 . S
C1729 H1722 0.950 . S
C1729 C1726 1.387 . S
C1730 C1731 1.387 . S
C1730 H1734 0.950 . S
C1730 C1739 1.390 . S
C1731 C1730 1.387 . S
C1731 C1733 1.387 . S
H1732 C1739 0.950 . S
C1733 C1731 1.387 . S
C1733 C1735 1.390 . S
C1733 H1737 0.950 . S
H1734 C1730 0.950 . S
C1735 C1733 1.390 . S
C1735 C1736 1.387 . S
C1735 H1738 0.950 . S
C1736 C1735 1.387 . S
C1736 C1739 1.387 . S
H1737 C1733 0.950 . S
H1738 C1735 0.950 . S
C1739 C1730 1.390 . S
C1739 H1732 0.950 . S
C1739 C1736 1.387 . S
C1740 C1741 1.387 . S
C1740 H1744 0.950 . S
C1740 C1749 1.390 . S
C1741 C1740 1.387 . S
C1741 C1743 1.387 . S
H1742 C1749 0.950 . S
C1743 C1741 1.387 . S
C1743 C1745 1.390 . S
C1743 H1747 0.950 . S
H1744 C1740 0.950 . S
C1745 C1743 1.390 . S
C1745 C1746 1.387 . S
C1745 H1748 0.950 . S
C1746 C1745 1.387 . S
C1746 C1749 1.387 . S
H1747 C1743 0.950 . S
H1748 C1745 0.950 . S
C1749 C1740 1.390 . S
C1749 H1742 0.950 . S
C1749 C1746 1.387 . S
C1750 C1751 1.387 . S
C1750 H1754 0.950 . S
C1750 C1759 1.390 . S
C1751 C1750 1.387 . S
C1751 C1753 1.387 . S
H1752 C1759 0.950 . S
C1753 C1751 1.387 . S
C1753 C1755 1.390 . S
C1753 H1757 0.950 . S
H1754 C1750 0.950 . S
C1755 C1753 1.390 . S
C1755 C1756 1.387 . S
C1755 H1758 0.950 . S
C1756 C1755 1.387 . S
C1756 C1759 1.387 . S
H1757 C1753 0.950 . S
H1758 C1755 0.950 . S
C1759 C1750 1.390 . S
C1759 H1752 0.950 . S
C1759 C1756 1.387 . S
C1760 C1761 1.387 . S
C1760 H1764 0.950 . S
C1760 C1769 1.390 . S
C1761 C1760 1.387 . S
C1761 C1763 1.387 . S
H1762 C1769 0.950 . S
C1763 C1761 1.387 . S
C1763 C1765 1.390 . S
C1763 H1767 0.950 . S
H1764 C1760 0.950 . S
C1765 C1763 1.390 . S
C1765 C1766 1.387 . S
C1765 H1768 0.950 . S
C1766 C1765 1.387 . S
C1766 C1769 1.387 . S
H1767 C1763 0.950 . S
H1768 C1765 0.950 . S
C1769 C1760 1.390 . S
C1769 H1762 0.950 . S
C1769 C1766 1.387 . S
C1770 C1771 1.387 . S
C1770 H1774 0.950 . S
C1770 C1779 1.390 . S
C1771 C1770 1.387 . S
C1771 C1773 1.387 . S
H1772 C1779 0.950 . S
C1773 C1771 1.387 . S
C1773 C1775 1.390 . S
C1773 H1777 0.950 . S
H1774 C1770 0.950 . S
C1775 C1773 1.390 . S
C1775 C1776 1.387 . S
C1775 H1778 0.950 . S
C1776 C1775 1.387 . S
C1776 C1779 1.387 . S
H1777 C1773 0.950 . S
H1778 C1775 0.950 . S
C1779 C1770 1.390 . S
C1779 H1772 0.950 . S
C1779 C1776 1.387 . S
C1780 C1781 1.387 . S
C1780 H1784 0.950 . S
C1780 C1789 1.390 . S
C1781 C1780 1.387 . S
C1781 C1783 1.387 . S
H1782 C1789 0.950 . S
C1783 C1781 1.387 . S
C1783 C1785 1.390 . S
C1783 H1787 0.950 . S
H1784 C1780 0.950 . S
C1785 C1783 1.390 . S
C1785 C1786 1.387 . S
C1785 H1788 0.950 . S
C1786 C1785 1.387 . S
C1786 C1789 1.387 . S
H1787 C1783 0.950 . S
H1788 C1785 0.950 . S
C1789 C1780 1.390 . S
C1789 H1782 0.950 . S
C1789 C1786 1.387 . S
C1790 C1791 1.387 . S
C1790 H1794 0.950 . S
C1790 C1799 1.390 . S
C1791 C1790 1.387 . S
C1791 C1793 1.387 . S
H1792 C1799 0.950 . S
C1793 C1791 1.387 . S
C1793 C1795 1.390 . S
C1793 H1797 0.950 . S
H1794 C1790 0.950 . S
C1795 C1793 1.390 . S
C1795 C1796 1.387 . S
C1795 H1798 0.950 . S
C1796 C1795 1.387 . S
C1796 C1799 1.387 . S
H1797 C1793 0.950 . S
H1798 C1795 0.950 . S
C1799 C1790 1.390 . S
C1799 H1792 0.950 . S
C1799 C1796 1.387 . S
C1800 C1801 1.387 . S
C1800 H1804 0.950 . S
C1800 C1809 1.390 . S
C1801 C1800 1.387 . S
C1801 C1803 1.387 . S
H1802 C1809 0.950 . S
C1803 C1801 1.387 . S
C1803 C1805 1.390 . S
C1803 H1807 0.950 . S
H1804 C1800 0.950 . S
C1805 C1803 1.390 . S
C1805 C1806 1.387 . S
C1805 H1808 0.950 . S
C1806 C1805 1.387 . S
C1806 C1809 1.387 . S
H1807 C1803 0.950 . S
H1808 C1805 0.950 . S
C1809 C1800 1.390 . S
C1809 H1802 0.950 . S
C1809 C1806 1.387 . S
C1810 C1811 1.387 . S
C1810 H1814 0.950 . S
C1810 C1819 1.390 . S
C1811 C1810 1.387 . S
C1811 C1813 1.387 . S
H1812 C1819 0.950 . S
C1813 C1811 1.387 . S
C1813 C1815 1.390 . S
C1813 H1817 0.950 . S
H1814 C1810 0.950 . S
C1815 C1813 1.390 . S
C1815 C1816 1.387 . S
C1815 H1818 0.950 . S
C1816 C1815 1.387 . S
C1816 C1819 1.387 . S
H1817 C1813 0.950 . S
H1818 C1815 0.950 . S
C1819 C1810 1.390 . S
C1819 H1812 0.950 . S
C1819 C1816 1.387 . S
C1820 C1821 1.387 . S
C1820 H1824 0.950 . S
C1820 C1829 1.390 . S
C1821 C1820 1.387 . S
C1821 C1823 1.387 . S
H1822 C1829 0.950 . S
C1823 C1821 1.387 . S
C1823 C1825 1.390 . S
C1823 H1827 0.950 . S
H1824 C1820 0.950 . S
C1825 C1823 1.390 . S
C1825 C1826 1.387 . S
C1825 H1828 0.950 . S
C1826 C1825 1.387 . S
C1826 C1829 1.387 . S
H1827 C1823 0.950 . S
H1828 C1825 0.950 . S
C1829 C1820 1.390 . S
C1829 H1822 0.950 . S
C1829 C1826 1.387 . S
C1830 C1831 1.387 . S
C1830 H1834 0.950 . S
C1830 C1839 1.390 . S
C1831 C1830 1.387 . S
C1831 C1833 1.387 . S
H1832 C1839 0.950 . S
C1833 C1831 1.387 . S
C1833 C1835 1.390 . S
C1833 H1837 0.950 . S
H1834 C1830 0.950 . S
C1835 C1833 1.390 . S
C1835 C1836 1.387 . S
C1835 H1838 0.950 . S
C1836 C1835 1.387 . S
C1836 C1839 1.387 . S
H1837 C1833 0.950 . S
H1838 C1835 0.950 . S
C1839 C1830 1.390 . S
C1839 H1832 0.950 . S
C1839 C1836 1.387 . S
C1840 C1841 1.387 . S
C1840 H1844 0.950 . S
C1840 C1849 1.390 . S
C1841 C1840 1.387 . S
C1841 C1843 1.387 . S
H1842 C1849 0.950 . S
C1843 C1841 1.387 . S
C1843 C1845 1.390 . S
C1843 H1847 0.950 . S
H1844 C1840 0.950 . S
C1845 C1843 1.390 . S
C1845 C1846 1.387 . S
C1845 H1848 0.950 . S
C1846 C1845 1.387 . S
C1846 C1849 1.387 . S
H1847 C1843 0.950 . S
H1848 C1845 0.950 . S
C1849 C1840 1.390 . S
C1849 H1842 0.950 . S
C1849 C1846 1.387 . S
C1850 C1851 1.387 . S
C1850 H1854 0.950 . S
C1850 C1859 1.390 . S
C1851 C1850 1.387 . S
C1851 C1853 1.387 . S
H1852 C1859 0.950 . S
C1853 C1851 1.387 . S
C1853 C1855 1.390 . S
C1853 H1857 0.950 . S
H1854 C1850 0.950 . S
C1855 C1853 1.390 . S
C1855 C1856 1.387 . S
C1855 H1858 0.950 . S
C1856 C1855 1.387 . S
C1856 C1859 1.387 . S
H1857 C1853 0.950 . S
H1858 C1855 0.950 . S
C1859 C1850 1.390 . S
C1859 H1852 0.950 . S
C1859 C1856 1.387 . S
C1860 C1861 1.387 . S
C1860 H1864 0.950 . S
C1860 C1869 1.390 . S
C1861 C1860 1.387 . S
C1861 C1863 1.387 . S
H1862 C1869 0.950 . S
C1863 C1861 1.387 . S
C1863 C1865 1.390 . S
C1863 H1867 0.950 . S
H1864 C1860 0.950 . S
C1865 C1863 1.390 . S
C1865 C1866 1.387 . S
C1865 H1868 0.950 . S
C1866 C1865 1.387 . S
C1866 C1869 1.387 . S
H1867 C1863 0.950 . S
H1868 C1865 0.950 . S
C1869 C1860 1.390 . S
C1869 H1862 0.950 . S
C1869 C1866 1.387 . S
C1870 C1871 1.387 . S
C1870 H1874 0.950 . S
C1870 C1879 1.390 . S
C1871 C1870 1.387 . S
C1871 C1873 1.387 . S
H1872 C1879 0.950 . S
C1873 C1871 1.387 . S
C1873 C1875 1.390 . S
C1873 H1877 0.950 . S
H1874 C1870 0.950 . S
C1875 C1873 1.390 . S
C1875 C1876 1.387 . S
C1875 H1878 0.950 . S
C1876 C1875 1.387 . S
C1876 C1879 1.387 . S
H1877 C1873 0.950 . S
H1878 C1875 0.950 . S
C1879 C1870 1.390 . S
C1879 H1872 0.950 . S
C1879 C1876 1.387 . S
C1880 C1881 1.387 . S
C1880 H1884 0.950 . S
C1880 C1889 1.390 . S
C1881 C1880 1.387 . S
C1881 C1883 1.387 . S
H1882 C1889 0.950 . S
C1883 C1881 1.387 . S
C1883 C1885 1.390 . S
C1883 H1887 0.950 . S
H1884 C1880 0.950 . S
C1885 C1883 1.390 . S
C1885 C1886 1.387 . S
C1885 H1888 0.950 . S
C1886 C1885 1.387 . S
C1886 C1889 1.387 . S
H1887 C1883 0.950 . S
H1888 C1885 0.950 . S
C1889 C1880 1.390 . S
C1889 H1882 0.950 . S
C1889 C1886 1.387 . S
C1890 C1891 1.387 . S
C1890 H1894 0.950 . S
C1890 C1899 1.390 . S
C1891 C1890 1.387 . S
C1891 C1893 1.387 . S
H1892 C1899 0.950 . S
C1893 C1891 1.387 . S
C1893 C1895 1.390 . S
C1893 H1897 0.950 . S
H1894 C1890 0.950 . S
C1895 C1893 1.390 . S
C1895 C1896 1.387 . S
C1895 H1898 0.950 . S
C1896 C1895 1.387 . S
C1896 C1899 1.387 . S
H1897 C1893 0.950 . S
H1898 C1895 0.950 . S
C1899 C1890 1.390 . S
C1899 H1892 0.950 . S
C1899 C1896 1.387 . S
C1900 C1901 1.387 . S
C1900 H1904 0.950 . S
C1900 C1909 1.390 . S
C1901 C1900 1.387 . S
C1901 C1903 1.387 . S
H1902 C1909 0.950 . S
C1903 C1901 1.387 . S
C1903 C1905 1.390 . S
C1903 H1907 0.950 . S
H1904 C1900 0.950 . S
C1905 C1903 1.390 . S
C1905 C1906 1.387 . S
C1905 H1908 0.950 . S
C1906 C1905 1.387 . S
C1906 C1909 1.387 . S
H1907 C1903 0.950 . S
H1908 C1905 0.950 . S
C1909 C1900 1.390 . S
C1909 H1902 0.950 . S
C1909 C1906 1.387 . S
C1910 C1911 1.387 . S
C1910 H1914 0.950 . S
C1910 C1919 1.390 . S
C1911 C1910 1.387 . S
C1911 C1913 1.387 . S
H1912 C1919 0.950 . S
C1913 C1911 1.387 . S
C1913 C1915 1.390 . S
C1913 H1917 0.950 . S
H1914 C1910 0.950 . S
C1915 C1913 1.390 . S
C1915 C1916 1.387 . S
C1915 H1918 0.950 . S
C1916 C1915 1.387 . S
C1916 C1919 1.387 . S
H1917 C1913 0.950 . S
H1918 C1915 0.950 . S
C1919 C1910 1.390 . S
C1919 H1912 0.950 . S
C1919 C1916 1.387 . S
C1920 C1921 1.387 . S
C1920 H1924 0.950 . S
C1920 C1929 1.390 1_545 S
C1921 C1920 1.387 . S
C1921 C1923 1.387 . S
H1922 C1929 0.950 . S
C1923 C1921 1.387 . S
C1923 C1925 1.390 1_545 S
C1923 H1927 0.950 . S
H1924 C1920 0.950 . S
C1925 C1923 1.390 1_565 S
C1925 C1926 1.387 . S
C1925 H1928 0.950 . S
C1926 C1925 1.387 . S
C1926 C1929 1.387 . S
H1927 C1923 0.950 . S
H1928 C1925 0.950 . S
C1929 C1920 1.390 1_565 S
C1929 H1922 0.950 . S
C1929 C1926 1.387 . S
C1930 C1931 1.387 . S
C1930 H1934 0.950 . S
C1930 C1939 1.390 . S
C1931 C1930 1.387 . S
C1931 C1933 1.387 . S
H1932 C1939 0.950 . S
C1933 C1931 1.387 . S
C1933 C1935 1.390 . S
C1933 H1937 0.950 . S
H1934 C1930 0.950 . S
C1935 C1933 1.390 . S
C1935 C1936 1.387 . S
C1935 H1938 0.950 . S
C1936 C1935 1.387 . S
C1936 C1939 1.387 . S
H1937 C1933 0.950 . S
H1938 C1935 0.950 . S
C1939 C1930 1.390 . S
C1939 H1932 0.950 . S
C1939 C1936 1.387 . S
C1940 C1941 1.387 . S
C1940 H1944 0.950 . S
C1940 C1949 1.390 1_565 S
C1941 C1940 1.387 . S
C1941 C1943 1.387 . S
H1942 C1949 0.950 . S
C1943 C1941 1.387 . S
C1943 C1945 1.390 1_565 S
C1943 H1947 0.950 . S
H1944 C1940 0.950 . S
C1945 C1943 1.390 1_545 S
C1945 C1946 1.387 . S
C1945 H1948 0.950 . S
C1946 C1945 1.387 . S
C1946 C1949 1.387 . S
H1947 C1943 0.950 . S
H1948 C1945 0.950 . S
C1949 C1940 1.390 1_545 S
C1949 H1942 0.950 . S
C1949 C1946 1.387 . S
C1950 C1951 1.387 . S
C1950 H1954 0.950 . S
C1950 C1959 1.390 1_554 S
C1951 C1950 1.387 . S
C1951 C1953 1.387 . S
H1952 C1959 0.950 . S
C1953 C1951 1.387 . S
C1953 C1955 1.390 1_554 S
C1953 H1957 0.950 . S
H1954 C1950 0.950 . S
C1955 C1953 1.390 1_556 S
C1955 C1956 1.387 . S
C1955 H1958 0.950 . S
C1956 C1955 1.387 . S
C1956 C1959 1.387 . S
H1957 C1953 0.950 . S
H1958 C1955 0.950 . S
C1959 C1950 1.390 1_556 S
C1959 H1952 0.950 . S
C1959 C1956 1.387 . S
C1960 C1961 1.387 . S
C1960 H1964 0.950 . S
C1960 C1969 1.390 1_545 S
C1961 C1960 1.387 . S
C1961 C1963 1.387 . S
H1962 C1969 0.950 . S
C1963 C1961 1.387 . S
C1963 C1965 1.390 1_545 S
C1963 H1967 0.950 . S
H1964 C1960 0.950 . S
C1965 C1963 1.390 1_565 S
C1965 C1966 1.387 . S
C1965 H1968 0.950 . S
C1966 C1965 1.387 . S
C1966 C1969 1.387 . S
H1967 C1963 0.950 . S
H1968 C1965 0.950 . S
C1969 C1960 1.390 1_565 S
C1969 H1962 0.950 . S
C1969 C1966 1.387 . S
C1970 C1971 1.387 . S
C1970 H1974 0.950 . S
C1970 C1979 1.390 . S
C1971 C1970 1.387 . S
C1971 C1973 1.387 . S
H1972 C1979 0.950 . S
C1973 C1971 1.387 . S
C1973 C1975 1.390 . S
C1973 H1977 0.950 . S
H1974 C1970 0.950 . S
C1975 C1973 1.390 . S
C1975 C1976 1.387 . S
C1975 H1978 0.950 . S
C1976 C1975 1.387 . S
C1976 C1979 1.387 . S
H1977 C1973 0.950 . S
H1978 C1975 0.950 . S
C1979 C1970 1.390 . S
C1979 H1972 0.950 . S
C1979 C1976 1.387 . S
C1980 C1981 1.387 . S
C1980 H1984 0.950 . S
C1980 C1989 1.390 1_545 S
C1981 C1980 1.387 . S
C1981 C1983 1.387 . S
H1982 C1989 0.950 . S
C1983 C1981 1.387 . S
C1983 C1985 1.390 1_545 S
C1983 H1987 0.950 . S
H1984 C1980 0.950 . S
C1985 C1983 1.390 1_565 S
C1985 C1986 1.387 . S
C1985 H1988 0.950 . S
C1986 C1985 1.387 . S
C1986 C1989 1.387 . S
H1987 C1983 0.950 . S
H1988 C1985 0.950 . S
C1989 C1980 1.390 1_565 S
C1989 H1982 0.950 . S
C1989 C1986 1.387 . S
C1990 C1991 1.387 . S
C1990 H1994 0.950 . S
C1990 C1999 1.390 1_554 S
C1991 C1990 1.387 . S
C1991 C1993 1.387 . S
H1992 C1999 0.950 . S
C1993 C1991 1.387 . S
C1993 C1995 1.390 1_554 S
C1993 H1997 0.950 . S
H1994 C1990 0.950 . S
C1995 C1993 1.390 1_556 S
C1995 C1996 1.387 . S
C1995 H1998 0.950 . S
C1996 C1995 1.387 . S
C1996 C1999 1.387 . S
H1997 C1993 0.950 . S
H1998 C1995 0.950 . S
C1999 C1990 1.390 1_556 S
C1999 H1992 0.950 . S
C1999 C1996 1.387 . S
C2000 C2001 1.387 . S
C2000 H2004 0.950 . S
C2000 C2009 1.390 . S
C2001 C2000 1.387 . S
C2001 C2003 1.387 . S
H2002 C2009 0.950 . S
C2003 C2001 1.387 . S
C2003 C2005 1.390 . S
C2003 H2007 0.950 . S
H2004 C2000 0.950 . S
C2005 C2003 1.390 . S
C2005 C2006 1.387 . S
C2005 H2008 0.950 . S
C2006 C2005 1.387 . S
C2006 C2009 1.387 . S
H2007 C2003 0.950 . S
H2008 C2005 0.950 . S
C2009 C2000 1.390 . S
C2009 H2002 0.950 . S
C2009 C2006 1.387 . S
C2010 C2011 1.387 . S
C2010 H2014 0.950 . S
C2010 C2019 1.390 1_554 S
C2011 C2010 1.387 . S
C2011 C2013 1.387 . S
H2012 C2019 0.950 . S
C2013 C2011 1.387 . S
C2013 C2015 1.390 1_554 S
C2013 H2017 0.950 . S
H2014 C2010 0.950 . S
C2015 C2013 1.390 1_556 S
C2015 C2016 1.387 . S
C2015 H2018 0.950 . S
C2016 C2015 1.387 . S
C2016 C2019 1.387 . S
H2017 C2013 0.950 . S
H2018 C2015 0.950 . S
C2019 C2010 1.390 1_556 S
C2019 H2012 0.950 . S
C2019 C2016 1.387 . S
C2020 C2021 1.387 . S
C2020 H2024 0.950 . S
C2020 C2029 1.390 . S
C2021 C2020 1.387 . S
C2021 C2023 1.387 . S
H2022 C2029 0.950 . S
C2023 C2021 1.387 . S
C2023 C2025 1.390 . S
C2023 H2027 0.950 . S
H2024 C2020 0.950 . S
C2025 C2023 1.390 . S
C2025 C2026 1.387 . S
C2025 H2028 0.950 . S
C2026 C2025 1.387 . S
C2026 C2029 1.387 . S
H2027 C2023 0.950 . S
H2028 C2025 0.950 . S
C2029 C2020 1.390 . S
C2029 H2022 0.950 . S
C2029 C2026 1.387 . S
C2030 C2031 1.387 . S
C2030 H2034 0.950 . S
C2030 C2039 1.390 . S
C2031 C2030 1.387 . S
C2031 C2033 1.387 . S
H2032 C2039 0.950 . S
C2033 C2031 1.387 . S
C2033 C2035 1.390 . S
C2033 H2037 0.950 . S
H2034 C2030 0.950 . S
C2035 C2033 1.390 . S
C2035 C2036 1.387 . S
C2035 H2038 0.950 . S
C2036 C2035 1.387 . S
C2036 C2039 1.387 . S
H2037 C2033 0.950 . S
H2038 C2035 0.950 . S
C2039 C2030 1.390 . S
C2039 H2032 0.950 . S
C2039 C2036 1.387 . S
C2040 C2041 1.387 . S
C2040 H2044 0.950 . S
C2040 C2049 1.390 . S
C2041 C2040 1.387 . S
C2041 C2043 1.387 . S
H2042 C2049 0.950 . S
C2043 C2041 1.387 . S
C2043 C2045 1.390 . S
C2043 H2047 0.950 . S
H2044 C2040 0.950 . S
C2045 C2043 1.390 . S
C2045 C2046 1.387 . S
C2045 H2048 0.950 . S
C2046 C2045 1.387 . S
C2046 C2049 1.387 . S
H2047 C2043 0.950 . S
H2048 C2045 0.950 . S
C2049 C2040 1.390 . S
C2049 H2042 0.950 . S
C2049 C2046 1.387 . S
C2050 C2051 1.387 . S
C2050 H2054 0.950 . S
C2050 C2059 1.390 1_554 S
C2051 C2050 1.387 . S
C2051 C2053 1.387 . S
H2052 C2059 0.950 . S
C2053 C2051 1.387 . S
C2053 C2055 1.390 1_554 S
C2053 H2057 0.950 . S
H2054 C2050 0.950 . S
C2055 C2053 1.390 1_556 S
C2055 C2056 1.387 . S
C2055 H2058 0.950 . S
C2056 C2055 1.387 . S
C2056 C2059 1.387 . S
H2057 C2053 0.950 . S
H2058 C2055 0.950 . S
C2059 C2050 1.390 1_556 S
C2059 H2052 0.950 . S
C2059 C2056 1.387 . S
C2060 C2061 1.387 . S
C2060 H2064 0.950 . S
C2060 C2069 1.390 . S
C2061 C2060 1.387 . S
C2061 C2063 1.387 . S
H2062 C2069 0.950 . S
C2063 C2061 1.387 . S
C2063 C2065 1.390 . S
C2063 H2067 0.950 . S
H2064 C2060 0.950 . S
C2065 C2063 1.390 . S
C2065 C2066 1.387 . S
C2065 H2068 0.950 . S
C2066 C2065 1.387 . S
C2066 C2069 1.387 . S
H2067 C2063 0.950 . S
H2068 C2065 0.950 . S
C2069 C2060 1.390 . S
C2069 H2062 0.950 . S
C2069 C2066 1.387 . S
C2070 C2071 1.387 . S
C2070 H2074 0.950 . S
C2070 C2079 1.390 . S
C2071 C2070 1.387 . S
C2071 C2073 1.387 . S
H2072 C2079 0.950 . S
C2073 C2071 1.387 . S
C2073 C2075 1.390 . S
C2073 H2077 0.950 . S
H2074 C2070 0.950 . S
C2075 C2073 1.390 . S
C2075 C2076 1.387 . S
C2075 H2078 0.950 . S
C2076 C2075 1.387 . S
C2076 C2079 1.387 . S
H2077 C2073 0.950 . S
H2078 C2075 0.950 . S
C2079 C2070 1.390 . S
C2079 H2072 0.950 . S
C2079 C2076 1.387 . S
C2080 C2081 1.387 . S
C2080 H2084 0.950 . S
C2080 C2089 1.390 . S
C2081 C2080 1.387 . S
C2081 C2083 1.387 . S
H2082 C2089 0.950 . S
C2083 C2081 1.387 . S
C2083 C2085 1.390 . S
C2083 H2087 0.950 . S
H2084 C2080 0.950 . S
C2085 C2083 1.390 . S
C2085 C2086 1.387 . S
C2085 H2088 0.950 . S
C2086 C2085 1.387 . S
C2086 C2089 1.387 . S
H2087 C2083 0.950 . S
H2088 C2085 0.950 . S
C2089 C2080 1.390 . S
C2089 H2082 0.950 . S
C2089 C2086 1.387 . S
C2090 C2091 1.387 . S
C2090 H2094 0.950 . S
C2090 C2099 1.390 . S
C2091 C2090 1.387 . S
C2091 C2093 1.387 . S
H2092 C2099 0.950 . S
C2093 C2091 1.387 . S
C2093 C2095 1.390 . S
C2093 H2097 0.950 . S
H2094 C2090 0.950 . S
C2095 C2093 1.390 . S
C2095 C2096 1.387 . S
C2095 H2098 0.950 . S
C2096 C2095 1.387 . S
C2096 C2099 1.387 . S
H2097 C2093 0.950 . S
H2098 C2095 0.950 . S
C2099 C2090 1.390 . S
C2099 H2092 0.950 . S
C2099 C2096 1.387 . S
C2100 C2101 1.387 . S
C2100 H2104 0.950 . S
C2100 C2109 1.390 . S
C2101 C2100 1.387 . S
C2101 C2103 1.387 . S
H2102 C2109 0.950 . S
C2103 C2101 1.387 . S
C2103 C2105 1.390 . S
C2103 H2107 0.950 . S
H2104 C2100 0.950 . S
C2105 C2103 1.390 . S
C2105 C2106 1.387 . S
C2105 H2108 0.950 . S
C2106 C2105 1.387 . S
C2106 C2109 1.387 . S
H2107 C2103 0.950 . S
H2108 C2105 0.950 . S
C2109 C2100 1.390 . S
C2109 H2102 0.950 . S
C2109 C2106 1.387 . S
C2110 C2111 1.387 . S
C2110 H2114 0.950 . S
C2110 C2119 1.390 . S
C2111 C2110 1.387 . S
C2111 C2113 1.387 . S
H2112 C2119 0.950 . S
C2113 C2111 1.387 . S
C2113 C2115 1.390 . S
C2113 H2117 0.950 . S
H2114 C2110 0.950 . S
C2115 C2113 1.390 . S
C2115 C2116 1.387 . S
C2115 H2118 0.950 . S
C2116 C2115 1.387 . S
C2116 C2119 1.387 . S
H2117 C2113 0.950 . S
H2118 C2115 0.950 . S
C2119 C2110 1.390 . S
C2119 H2112 0.950 . S
C2119 C2116 1.387 . S
C2120 C2121 1.387 . S
C2120 H2124 0.950 . S
C2120 C2129 1.390 . S
C2121 C2120 1.387 . S
C2121 C2123 1.387 . S
H2122 C2129 0.950 . S
C2123 C2121 1.387 . S
C2123 C2125 1.390 . S
C2123 H2127 0.950 . S
H2124 C2120 0.950 . S
C2125 C2123 1.390 . S
C2125 C2126 1.387 . S
C2125 H2128 0.950 . S
C2126 C2125 1.387 . S
C2126 C2129 1.387 . S
H2127 C2123 0.950 . S
H2128 C2125 0.950 . S
C2129 C2120 1.390 . S
C2129 H2122 0.950 . S
C2129 C2126 1.387 . S
C2130 C2131 1.387 . S
C2130 H2134 0.950 . S
C2130 C2139 1.390 . S
C2131 C2130 1.387 . S
C2131 C2133 1.387 . S
H2132 C2139 0.950 . S
C2133 C2131 1.387 . S
C2133 C2135 1.390 . S
C2133 H2137 0.950 . S
H2134 C2130 0.950 . S
C2135 C2133 1.390 . S
C2135 C2136 1.387 . S
C2135 H2138 0.950 . S
C2136 C2135 1.387 . S
C2136 C2139 1.387 . S
H2137 C2133 0.950 . S
H2138 C2135 0.950 . S
C2139 C2130 1.390 . S
C2139 H2132 0.950 . S
C2139 C2136 1.387 . S
C2140 C2141 1.387 . S
C2140 H2144 0.950 . S
C2140 C2149 1.390 . S
C2141 C2140 1.387 . S
C2141 C2143 1.387 . S
H2142 C2149 0.950 . S
C2143 C2141 1.387 . S
C2143 C2145 1.390 . S
C2143 H2147 0.950 . S
H2144 C2140 0.950 . S
C2145 C2143 1.390 . S
C2145 C2146 1.387 . S
C2145 H2148 0.950 . S
C2146 C2145 1.387 . S
C2146 C2149 1.387 . S
H2147 C2143 0.950 . S
H2148 C2145 0.950 . S
C2149 C2140 1.390 . S
C2149 H2142 0.950 . S
C2149 C2146 1.387 . S
C2150 C2151 1.387 . S
C2150 H2154 0.950 . S
C2150 C2159 1.390 . S
C2151 C2150 1.387 . S
C2151 C2153 1.387 . S
H2152 C2159 0.950 . S
C2153 C2151 1.387 . S
C2153 C2155 1.390 . S
C2153 H2157 0.950 . S
H2154 C2150 0.950 . S
C2155 C2153 1.390 . S
C2155 C2156 1.387 . S
C2155 H2158 0.950 . S
C2156 C2155 1.387 . S
C2156 C2159 1.387 . S
H2157 C2153 0.950 . S
H2158 C2155 0.950 . S
C2159 C2150 1.390 . S
C2159 H2152 0.950 . S
C2159 C2156 1.387 . S
C2160 C2161 1.387 . S
C2160 H2164 0.950 . S
C2160 C2169 1.390 . S
C2161 C2160 1.387 . S
C2161 C2163 1.387 . S
H2162 C2169 0.950 . S
C2163 C2161 1.387 . S
C2163 C2165 1.390 . S
C2163 H2167 0.950 . S
H2164 C2160 0.950 . S
C2165 C2163 1.390 . S
C2165 C2166 1.387 . S
C2165 H2168 0.950 . S
C2166 C2165 1.387 . S
C2166 C2169 1.387 . S
H2167 C2163 0.950 . S
H2168 C2165 0.950 . S
C2169 C2160 1.390 . S
C2169 H2162 0.950 . S
C2169 C2166 1.387 . S
C2170 C2171 1.387 . S
C2170 H2174 0.950 . S
C2170 C2179 1.390 . S
C2171 C2170 1.387 . S
C2171 C2173 1.387 . S
H2172 C2179 0.950 . S
C2173 C2171 1.387 . S
C2173 C2175 1.390 . S
C2173 H2177 0.950 . S
H2174 C2170 0.950 . S
C2175 C2173 1.390 . S
C2175 C2176 1.387 . S
C2175 H2178 0.950 . S
C2176 C2175 1.387 . S
C2176 C2179 1.387 . S
H2177 C2173 0.950 . S
H2178 C2175 0.950 . S
C2179 C2170 1.390 . S
C2179 H2172 0.950 . S
C2179 C2176 1.387 . S
C2180 C2181 1.387 . S
C2180 H2184 0.950 . S
C2180 C2189 1.390 . S
C2181 C2180 1.387 . S
C2181 C2183 1.387 . S
H2182 C2189 0.950 . S
C2183 C2181 1.387 . S
C2183 C2185 1.390 . S
C2183 H2187 0.950 . S
H2184 C2180 0.950 . S
C2185 C2183 1.390 . S
C2185 C2186 1.387 . S
C2185 H2188 0.950 . S
C2186 C2185 1.387 . S
C2186 C2189 1.387 . S
H2187 C2183 0.950 . S
H2188 C2185 0.950 . S
C2189 C2180 1.390 . S
C2189 H2182 0.950 . S
C2189 C2186 1.387 . S
C2190 C2191 1.387 . S
C2190 H2194 0.950 . S
C2190 C2199 1.390 . S
C2191 C2190 1.387 . S
C2191 C2193 1.387 . S
H2192 C2199 0.950 . S
C2193 C2191 1.387 . S
C2193 C2195 1.390 . S
C2193 H2197 0.950 . S
H2194 C2190 0.950 . S
C2195 C2193 1.390 . S
C2195 C2196 1.387 . S
C2195 H2198 0.950 . S
C2196 C2195 1.387 . S
C2196 C2199 1.387 . S
H2197 C2193 0.950 . S
H2198 C2195 0.950 . S
C2199 C2190 1.390 . S
C2199 H2192 0.950 . S
C2199 C2196 1.387 . S
C2200 C2201 1.387 . S
C2200 H2204 0.950 . S
C2200 C2209 1.390 . S
C2201 C2200 1.387 . S
C2201 C2203 1.387 . S
H2202 C2209 0.950 . S
C2203 C2201 1.387 . S
C2203 C2205 1.390 . S
C2203 H2207 0.950 . S
H2204 C2200 0.950 . S
C2205 C2203 1.390 . S
C2205 C2206 1.387 . S
C2205 H2208 0.950 . S
C2206 C2205 1.387 . S
C2206 C2209 1.387 . S
H2207 C2203 0.950 . S
H2208 C2205 0.950 . S
C2209 C2200 1.390 . S
C2209 H2202 0.950 . S
C2209 C2206 1.387 . S
C2210 C2211 1.387 . S
C2210 H2214 0.950 . S
C2210 C2219 1.390 . S
C2211 C2210 1.387 . S
C2211 C2213 1.387 . S
H2212 C2219 0.950 . S
C2213 C2211 1.387 . S
C2213 C2215 1.390 . S
C2213 H2217 0.950 . S
H2214 C2210 0.950 . S
C2215 C2213 1.390 . S
C2215 C2216 1.387 . S
C2215 H2218 0.950 . S
C2216 C2215 1.387 . S
C2216 C2219 1.387 . S
H2217 C2213 0.950 . S
H2218 C2215 0.950 . S
C2219 C2210 1.390 . S
C2219 H2212 0.950 . S
C2219 C2216 1.387 . S
C2220 C2221 1.387 . S
C2220 H2224 0.950 . S
C2220 C2229 1.390 . S
C2221 C2220 1.387 . S
C2221 C2223 1.387 . S
H2222 C2229 0.950 . S
C2223 C2221 1.387 . S
C2223 C2225 1.390 . S
C2223 H2227 0.950 . S
H2224 C2220 0.950 . S
C2225 C2223 1.390 . S
C2225 C2226 1.387 . S
C2225 H2228 0.950 . S
C2226 C2225 1.387 . S
C2226 C2229 1.387 . S
H2227 C2223 0.950 . S
H2228 C2225 0.950 . S
C2229 C2220 1.390 . S
C2229 H2222 0.950 . S
C2229 C2226 1.387 . S
C2230 C2231 1.387 . S
C2230 H2234 0.950 . S
C2230 C2239 1.390 . S
C2231 C2230 1.387 . S
C2231 C2233 1.387 . S
H2232 C2239 0.950 . S
C2233 C2231 1.387 . S
C2233 C2235 1.390 . S
C2233 H2237 0.950 . S
H2234 C2230 0.950 . S
C2235 C2233 1.390 . S
C2235 C2236 1.387 . S
C2235 H2238 0.950 . S
C2236 C2235 1.387 . S
C2236 C2239 1.387 . S
H2237 C2233 0.950 . S
H2238 C2235 0.950 . S
C2239 C2230 1.390 . S
C2239 H2232 0.950 . S
C2239 C2236 1.387 . S
C1281 C7 1.039 . S
C1286 C131 1.009 . S
C1291 C11 1.004 . S
C1296 C47 1.039 . S
C1301 C87 1.039 . S
C1306 C51 1.009 . S
C1311 C91 1.009 . S
C1316 C127 1.039 . S
C1321 C211 1.007 . S
C1326 C167 1.040 . S
C1331 C207 1.039 . S
C1336 C251 1.007 . S
C1341 C291 1.005 . S
C1346 C247 1.040 . S
C1351 C171 1.008 . S
C1356 C287 1.039 . S
C1361 C336 1.039 . S
C1366 C442 1.009 . S
C1371 C376 1.039 . S
C1376 C322 1.009 . S
C1381 C416 1.040 . S
C1386 C362 1.005 . S
C1391 C456 1.039 . S
C1396 C402 1.008 . S
C1401 C496 1.039 . S
C1406 C522 1.009 . S
C1411 C536 1.039 . S
C1416 C562 1.005 . S
C1421 C602 1.005 . S
C1426 C576 1.040 . S
C1431 C482 1.009 . S
C1436 C616 1.039 . S
C1441 C647 1.039 . S
C1446 C771 1.009 . S
C1451 C651 1.008 . S
C1456 C687 1.039 . S
C1461 C691 1.005 . S
C1466 C727 1.040 . S
C1471 C767 1.039 . S
C1476 C731 1.004 . S
C1481 C807 1.040 . S
C1486 C851 1.005 . S
C1491 C891 1.006 . S
C1496 C847 1.039 . S
C1501 C887 1.040 . S
C1506 C931 1.005 . S
C1511 C811 1.008 . S
C1516 C927 1.039 . S
C1521 C1082 1.005 . S
C1526 C976 1.040 . S
C1531 C962 1.007 . S
C1536 C1016 1.039 . S
C1541 C1056 1.040 . S
C1546 C1002 1.005 . S
C1551 C1042 1.009 . S
C1556 C1096 1.039 . S
C1561 C1162 1.005 . S
C1566 C1136 1.040 . S
C1571 C1202 1.005 . S
C1576 C1176 1.040 . S
C1581 C1242 1.008 . S
C1586 C1216 1.039 . S
C1591 C1256 1.039 . S
C1596 C1122 1.009 . S
C1601 C1087 1.597 . S
C1606 C10 1.542 . S
C1611 C50 1.542 . S
C1616 C327 1.598 . S
C1621 C90 1.543 . S
C1626 C1007 1.598 . S
C1631 C130 1.543 . S
C1636 C407 1.598 . S
C1641 C170 1.544 . S
C1646 C1167 1.599 . S
C1651 C567 1.599 . S
C1656 C210 1.543 . S
C1661 C1247 1.599 . S
C1666 C250 1.544 . S
C1671 C290 1.543 . S
C1676 C487 1.599 . S
C1681 C339 1.545 . S
C1686 C776 1.600 . S
C1691 C16 1.599 . S
C1696 C379 1.545 . S
C1701 C696 1.600 . S
C1706 C419 1.545 . S
C1711 C96 1.598 . S
C1716 C459 1.542 . S
C1721 C856 1.597 . S
C1726 C499 1.542 . S
C1731 C256 1.599 . S
C1736 C539 1.544 . S
C1741 C579 1.542 . S
C1746 C936 1.598 . S
C1751 C619 1.543 . S
C1756 C176 1.599 . S
C1761 C650 1.544 . S
C1766 C447 1.599 . S
C1771 C690 1.542 . S
C1776 C967 1.598 . S
C1781 C730 1.542 . S
C1786 C367 1.597 . S
C1791 C770 1.543 . S
C1796 C1047 1.599 . S
C1801 C810 1.545 . S
C1806 C527 1.599 . S
C1811 C850 1.544 . S
C1816 C1207 1.599 . S
C1821 C607 1.597 . S
C1826 C890 1.541 . S
C1831 C930 1.543 . S
C1836 C1127 1.599 . S
C1841 C136 1.598 . S
C1846 C979 1.542 . S
C1851 C656 1.599 . S
C1856 C1019 1.543 . S
C1861 C56 1.599 . S
C1866 C1059 1.545 . S
C1871 C736 1.600 . S
C1876 C1099 1.546 . S
C1881 C216 1.600 . S
C1886 C1139 1.545 . S
C1891 C1179 1.542 . S
C1896 C896 1.598 . S
C1901 C1219 1.541 . S
C1906 C296 1.597 . S
C1911 C816 1.598 . S
C1916 C1259 1.542 . S
C1921 C19 1.274 . S
C1926 C179 1.274 . S
C1931 C59 1.274 . S
C1936 C219 1.274 . S
C1941 C99 1.274 . S
C1946 C259 1.274 . S
C1951 C299 1.279 . S
C1956 C139 1.279 . S
C1961 C490 1.278 . S
C1966 C330 1.278 . S
C1971 C530 1.279 . S
C1976 C370 1.279 . S
C1981 C410 1.278 . S
C1986 C570 1.278 . S
C1991 C450 1.274 . S
C1996 C610 1.274 . S
C2001 C659 1.274 . S
C2006 C819 1.274 . S
C2011 C859 1.279 . S
C2016 C699 1.279 . S
C2021 C899 1.278 . S
C2026 C739 1.278 . S
C2031 C939 1.279 . S
C2036 C779 1.279 . S
C2041 C1130 1.274 . S
C2046 C970 1.274 . S
C2051 C1010 1.279 . S
C2056 C1170 1.279 . S
C2061 C1210 1.274 . S
C2066 C1050 1.274 . S
C2071 C1090 1.279 . S
C2076 C1250 1.279 . S
C2081 C282 2.713 . S
C2086 C2 2.713 . S
C2091 C42 2.713 . S
C2096 C162 2.713 . S
C2101 C82 2.713 . S
C2106 C202 2.713 . S
C2111 C242 2.713 . S
C2116 C122 2.713 . S
C2121 C331 2.713 . S
C2126 C611 2.713 . S
C2131 C491 2.713 . S
C2136 C371 2.713 . S
C2141 C531 2.713 . S
C2146 C411 2.713 . S
C2151 C451 2.713 . S
C2156 C571 2.713 . S
C2161 C642 2.713 . S
C2166 C922 2.713 . S
C2171 C802 2.713 . S
C2176 C682 2.713 . S
C2181 C842 2.713 . S
C2186 C722 2.713 . S
C2191 C882 2.713 . S
C2196 C762 2.713 . S
C2201 C971 2.713 . S
C2206 C1251 2.713 . S
C2211 C1131 2.713 . S
C2216 C1011 2.713 . S
C2221 C1051 2.713 . S
C2226 C1171 2.713 . S
C2231 C1211 2.713 . S
C2236 C1091 2.713 . S
