# Generated by pormake.
# Topology smk, (6)-cn, num edge types: 1
# Building blocks:
#     Node 0, Type 0, BuildingBlock: JUFBIX_clean_sbu_0, # of connection points: 6
#     Node 1, Type 0, BuildingBlock: JUFBIX_clean_sbu_0, # of connection points: 6
#     Node 2, Type 0, BuildingBlock: JUFBIX_clean_sbu_0, # of connection points: 6
#     Node 3, Type 0, BuildingBlock: JUFBIX_clean_sbu_0, # of connection points: 6
#     Node 4, Type 0, BuildingBlock: JUFBIX_clean_sbu_0, # of connection points: 6
#     Node 5, Type 0, BuildingBlock: JUFBIX_clean_sbu_0, # of connection points: 6
#     Edge 6, Type (0, 0), BuildingBlock: TEMPAE_clean_linker_10, # of connection points: 2
#     Edge 7, Type (0, 0), BuildingBlock: TEMPAE_clean_linker_10, # of connection points: 2
#     Edge 8, Type (0, 0), BuildingBlock: TEMPAE_clean_linker_10, # of connection points: 2
#     Edge 9, Type (0, 0), BuildingBlock: TEMPAE_clean_linker_10, # of connection points: 2
#     Edge 10, Type (0, 0), BuildingBlock: TEMPAE_clean_linker_10, # of connection points: 2
#     Edge 11, Type (0, 0), BuildingBlock: TEMPAE_clean_linker_10, # of connection points: 2
#     Edge 12, Type (0, 0), BuildingBlock: TEMPAE_clean_linker_10, # of connection points: 2
#     Edge 13, Type (0, 0), BuildingBlock: TEMPAE_clean_linker_10, # of connection points: 2
#     Edge 14, Type (0, 0), BuildingBlock: TEMPAE_clean_linker_10, # of connection points: 2
#     Edge 15, Type (0, 0), BuildingBlock: TEMPAE_clean_linker_10, # of connection points: 2
#     Edge 16, Type (0, 0), BuildingBlock: TEMPAE_clean_linker_10, # of connection points: 2
#     Edge 17, Type (0, 0), BuildingBlock: TEMPAE_clean_linker_10, # of connection points: 2
#     Edge 18, Type (0, 0), BuildingBlock: TEMPAE_clean_linker_10, # of connection points: 2
#     Edge 19, Type (0, 0), BuildingBlock: TEMPAE_clean_linker_10, # of connection points: 2
#     Edge 20, Type (0, 0), BuildingBlock: TEMPAE_clean_linker_10, # of connection points: 2
#     Edge 21, Type (0, 0), BuildingBlock: TEMPAE_clean_linker_10, # of connection points: 2
#     Edge 22, Type (0, 0), BuildingBlock: TEMPAE_clean_linker_10, # of connection points: 2
#     Edge 23, Type (0, 0), BuildingBlock: TEMPAE_clean_linker_10, # of connection points: 2
# Relax obj value: 0.366
# Max RMSD: 0.250
# Mean RMSD: 0.250
data_MOF--net-smk--node1-JUFBIX_clean_sbu_0--edge1-TEMPAE_clean_linker_10
_symmetry_space_group_name_H-M    P1
_symmetry_Int_Tables_number       1
_symmetry_cell_setting            triclinic
loop_
_symmetry_equiv_pos_as_xyz
'x, y, z'
_cell_length_a     46.004327
_cell_length_b     45.991457
_cell_length_c     15.07812
_cell_angle_alpha  90.400721
_cell_angle_beta   89.939148
_cell_angle_gamma 120.05772
loop_
_atom_site_label
_atom_site_type_symbol
_atom_site_fract_x
_atom_site_fract_y
_atom_site_fract_z
_atom_type_partial_charge
Co0 Co 0.41908 0.18963 0.50731 0.0
C1 C 0.39697 0.12097 0.5137 0.0
Co2 Co 0.45986 0.1774 0.51 0.0
C3 C 0.38079 0.22346 0.5427 0.0
C4 C 0.3558 0.1813 0.45476 0.0
N5 N 0.38417 0.19894 0.50244 0.0
N6 N 0.35125 0.22177 0.52216 0.0
C7 C 0.3356 0.19501 0.46694 0.0
H8 H 0.39983 0.24214 0.58586 0.0
H9 H 0.35007 0.15966 0.41382 0.0
C10 C 0.48267 0.24579 0.4995 0.0
N11 N 0.49442 0.16769 0.51391 0.0
C12 C 0.52022 0.17941 0.57215 0.0
C13 C 0.49883 0.14673 0.45984 0.0
N14 N 0.54054 0.16666 0.55642 0.0
C15 C 0.52727 0.1462 0.4855 0.0
C16 C 0.43926 0.1812 0.34108 0.0
O17 O 0.45164 0.23665 0.50627 0.0
O18 O 0.49144 0.22361 0.5003 0.0
O19 O 0.45823 0.17364 0.38416 0.0
O20 O 0.42041 0.18941 0.38252 0.0
O21 O 0.42816 0.13118 0.51907 0.0
H22 H 0.48227 0.1325 0.40568 0.0
H23 H 0.52424 0.19723 0.62464 0.0
O24 O 0.3872 0.14229 0.50657 0.0
O25 O 0.41801 0.18987 0.63302 0.0
O26 O 0.46098 0.1814 0.63478 0.0
C27 C 0.43969 0.18622 0.67606 0.0
H28 H 0.31097 0.1853 0.43785 0.0
H29 H 0.53709 0.13145 0.4554 0.0
Co30 Co 0.20081 0.40656 0.77671 0.0
C31 C 0.13231 0.38466 0.77055 0.0
Co32 Co 0.18888 0.44764 0.77459 0.0
C33 C 0.23491 0.36849 0.74222 0.0
C34 C 0.19192 0.34286 0.82595 0.0
N35 N 0.21005 0.3716 0.78092 0.0
N36 N 0.23297 0.33876 0.76117 0.0
C37 C 0.2057 0.3227 0.81377 0.0
H38 H 0.25398 0.38785 0.70123 0.0
H39 H 0.16988 0.33681 0.86498 0.0
C40 C 0.25715 0.47024 0.78497 0.0
N41 N 0.17923 0.48223 0.77098 0.0
C42 C 0.19057 0.50771 0.71247 0.0
C43 C 0.15886 0.4871 0.82584 0.0
N44 N 0.17817 0.52831 0.72879 0.0
C45 C 0.15829 0.5155 0.80036 0.0
C46 C 0.19277 0.42713 0.94313 0.0
O47 O 0.24768 0.43903 0.78465 0.0
O48 O 0.23527 0.47925 0.77774 0.0
O49 O 0.18842 0.44836 0.9004 0.0
O50 O 0.19803 0.40614 0.90158 0.0
O51 O 0.14249 0.41591 0.77218 0.0
H52 H 0.14513 0.47092 0.88055 0.0
H53 H 0.20795 0.51131 0.65949 0.0
O54 O 0.1536 0.37472 0.77057 0.0
O55 O 0.20349 0.40721 0.65095 0.0
O56 O 0.18945 0.44639 0.64976 0.0
C57 C 0.19672 0.42682 0.60815 0.0
H58 H 0.19567 0.29781 0.8409 0.0
H59 H 0.14397 0.52564 0.83119 0.0
Co60 Co 0.81517 0.21504 0.84613 0.0
C61 C 0.88368 0.26094 0.85294 0.0
Co62 Co 0.82753 0.2682 0.85027 0.0
C63 C 0.78101 0.14314 0.88172 0.0
C64 C 0.82077 0.15892 0.78718 0.0
N65 N 0.80509 0.17059 0.83974 0.0
N66 N 0.78096 0.1148 0.85671 0.0
C67 C 0.80605 0.12477 0.79737 0.0
H68 H 0.76355 0.14391 0.92857 0.0
H69 H 0.84159 0.1743 0.74387 0.0
C70 C 0.75928 0.22316 0.83887 0.0
N71 N 0.8379 0.31268 0.8558 0.0
C72 C 0.82676 0.3271 0.91482 0.0
C73 C 0.85854 0.33782 0.80154 0.0
N74 N 0.83952 0.36015 0.89928 0.0
C75 C 0.85944 0.36698 0.8278 0.0
C76 C 0.82347 0.24388 0.68079 0.0
O77 O 0.76847 0.20124 0.83866 0.0
O78 O 0.78133 0.25403 0.84699 0.0
O79 O 0.82816 0.26956 0.72454 0.0
O80 O 0.81791 0.21751 0.72123 0.0
O81 O 0.87376 0.2822 0.85273 0.0
H82 H 0.87216 0.33513 0.74656 0.0
H83 H 0.80922 0.31349 0.96744 0.0
O84 O 0.86217 0.2297 0.85162 0.0
O85 O 0.81254 0.21297 -0.0281 0.0
O86 O 0.82673 0.26625 -0.02501 0.0
C87 C 0.81934 0.23937 0.01569 0.0
H88 H 0.81362 0.10862 0.76456 0.0
H89 H 0.87394 0.3914 0.79744 0.0
Co90 Co 0.59943 0.78019 0.10443 0.0
C91 C 0.6223 0.7345 0.09872 0.0
Co92 Co 0.5588 0.72689 0.10041 0.0
C93 C 0.63831 0.85186 0.065 0.0
C94 C 0.66079 0.83642 0.16458 0.0
N95 N 0.63388 0.82468 0.11044 0.0
N96 N 0.66706 0.88008 0.08858 0.0
C97 C 0.6811 0.87028 0.15149 0.0
H98 H 0.62103 0.85079 0.01469 0.0
H99 H 0.66535 0.82127 0.21086 0.0
C100 C 0.53535 0.77181 0.11061 0.0
N101 N 0.52476 0.68234 0.09548 0.0
C102 C 0.4989 0.66763 0.03747 0.0
C103 C 0.52067 0.6574 0.14985 0.0
N104 N 0.47878 0.63459 0.05386 0.0
C105 C 0.49234 0.62808 0.12475 0.0
C106 C 0.5788 0.75151 0.2699 0.0
O107 O 0.56647 0.79388 0.11088 0.0
O108 O 0.52668 0.74095 0.10315 0.0
O109 O 0.55799 0.72572 0.22618 0.0
O110 O 0.59947 0.77794 0.22934 0.0
O111 O 0.59113 0.71308 0.09847 0.0
H112 H 0.53728 0.66034 0.20421 0.0
H113 H 0.49461 0.68103 -0.01493 0.0
O114 O 0.63187 0.76569 0.09991 0.0
O115 O 0.59905 0.782 -0.02135 0.0
O116 O 0.56004 0.72862 -0.02438 0.0
C117 C 0.57958 0.75553 0.93495 0.0
H118 H 0.70427 0.88647 0.18657 0.0
H119 H 0.48266 0.60377 0.15556 0.0
Co120 Co 0.79142 0.58754 0.18529 0.0
C121 C 0.74571 0.61036 0.19072 0.0
Co122 Co 0.73815 0.54685 0.18775 0.0
C123 C 0.8632 0.62632 0.22525 0.0
C124 C 0.84742 0.64909 0.12748 0.0
N125 N 0.83587 0.62203 0.18033 0.0
N126 N 0.89133 0.65514 0.20261 0.0
C127 C 0.88132 0.66937 0.14085 0.0
H128 H 0.86233 0.60888 0.27448 0.0
H129 H 0.83212 0.65376 0.08182 0.0
C130 C 0.78314 0.52348 0.17785 0.0
N131 N 0.69361 0.51277 0.19166 0.0
C132 C 0.67896 0.48703 0.24933 0.0
C133 C 0.66858 0.50867 0.13714 0.0
N134 N 0.64586 0.46698 0.23264 0.0
C135 C 0.63926 0.48046 0.16185 0.0
C136 C 0.76262 0.56681 0.01899 0.0
O137 O 0.80514 0.55462 0.17837 0.0
O138 O 0.75227 0.51473 0.18471 0.0
O139 O 0.73687 0.54596 0.06193 0.0
O140 O 0.78904 0.58752 0.06037 0.0
O141 O 0.72431 0.57918 0.19 0.0
H142 H 0.67144 0.52523 0.08305 0.0
H143 H 0.69244 0.4828 0.3018 0.0
O144 O 0.77689 0.61994 0.19028 0.0
O145 O 0.79336 0.58721 0.31109 0.0
O146 O 0.74 0.5482 0.31258 0.0
C147 C 0.76691 0.56775 0.35401 0.0
H148 H 0.8974 0.69263 0.10672 0.0
H149 H 0.61489 0.47086 0.13091 0.0
Co150 Co 0.2274 0.80276 0.44273 0.0
C151 C 0.27297 0.87159 0.4363 0.0
Co152 Co 0.28066 0.81591 0.4394 0.0
C153 C 0.15537 0.76866 0.4062 0.0
C154 C 0.17133 0.80767 0.50414 0.0
N155 N 0.18291 0.79248 0.44934 0.0
N156 N 0.12705 0.76829 0.43267 0.0
C157 C 0.13716 0.79291 0.49412 0.0
H158 H 0.15603 0.75157 0.3576 0.0
H159 H 0.18679 0.8281 0.54906 0.0
C160 C 0.23591 0.74734 0.45021 0.0
N161 N 0.32517 0.82644 0.43393 0.0
C162 C 0.3393 0.81474 0.37569 0.0
C163 C 0.35069 0.84805 0.48664 0.0
N164 N 0.37254 0.82812 0.39015 0.0
C165 C 0.3798 0.84898 0.46022 0.0
C166 C 0.25664 0.81167 0.60853 0.0
O167 O 0.21372 0.75605 0.44322 0.0
O168 O 0.26678 0.76984 0.44941 0.0
O169 O 0.28328 0.81991 0.56511 0.0
O170 O 0.22937 0.80285 0.56763 0.0
O171 O 0.29432 0.86188 0.43012 0.0
H172 H 0.34835 0.86241 0.54045 0.0
H173 H 0.3254 0.79646 0.3242 0.0
O174 O 0.24197 0.8499 0.44415 0.0
O175 O 0.22571 0.80251 0.31689 0.0
O176 O 0.27739 0.81171 0.31481 0.0
C177 C 0.25114 0.80645 0.27356 0.0
H178 H 0.12107 0.80012 0.52865 0.0
H179 H 0.40448 0.86422 0.48927 0.0
C180 C 0.44463 0.1586 0.19519 0.0
C181 C 0.43991 0.18192 0.24379 0.0
C182 C 0.44432 0.15876 0.10216 0.0
C183 C 0.4404 0.1836 0.05755 0.0
C184 C 0.43647 0.20771 0.10673 0.0
C185 C 0.43569 0.2062 0.19942 0.0
C186 C 0.44762 0.13209 0.05169 0.0
C187 C 0.43336 0.23525 0.06153 0.0
C188 C 0.47027 0.2021 0.81957 0.0
C189 C 0.43976 0.1865 0.77327 0.0
C190 C 0.47086 0.20183 0.91244 0.0
C191 C 0.44022 0.18436 0.95934 0.0
C192 C 0.40934 0.16808 0.91251 0.0
C193 C 0.40947 0.16993 0.81975 0.0
C194 C 0.50416 0.22051 0.96028 0.0
C195 C 0.37627 0.14828 0.96026 0.0
H196 H 0.44772 0.13975 0.22994 0.0
H197 H 0.43242 0.22447 0.23742 0.0
H198 H 0.42558 0.11799 0.00738 0.0
H199 H 0.47024 0.14392 0.00903 0.0
H200 H 0.44949 0.11401 0.09648 0.0
H201 H 0.4321 0.25297 0.10972 0.0
H202 H 0.45514 0.24964 0.01707 0.0
H203 H 0.41042 0.22417 0.01969 0.0
H204 H 0.49365 0.21497 0.78303 0.0
H205 H 0.38595 0.1575 0.78333 0.0
H206 H 0.50837 0.20278 0.00018 0.0
H207 H 0.50399 0.23919 0.00696 0.0
H208 H 0.52557 0.23379 0.91388 0.0
H209 H 0.3768 0.12882 0.00225 0.0
H210 H 0.35468 0.13578 0.91368 0.0
H211 H 0.37211 0.1651 0.00493 0.0
C212 C 0.21967 0.42196 0.46268 0.0
C213 C 0.19612 0.42633 0.51086 0.0
C214 C 0.2198 0.42269 0.36967 0.0
C215 C 0.19497 0.42659 0.3246 0.0
C216 C 0.17065 0.4302 0.37332 0.0
C217 C 0.17193 0.43066 0.46608 0.0
C218 C 0.24674 0.41984 0.31975 0.0
C219 C 0.14311 0.43325 0.32755 0.0
C220 C 0.2088 0.45747 0.08749 0.0
C221 C 0.1925 0.42713 0.04027 0.0
C222 C 0.21045 0.45766 0.18033 0.0
C223 C 0.19428 0.42679 0.22638 0.0
C224 C 0.17705 0.39611 0.17865 0.0
C225 C 0.17695 0.39664 0.08579 0.0
C226 C 0.22993 0.49079 0.22899 0.0
C227 C 0.15848 0.36279 0.2256 0.0
H228 H 0.23851 0.41888 0.49779 0.0
H229 H 0.15354 0.43373 0.50379 0.0
H230 H 0.23518 0.39725 0.27627 0.0
H231 H 0.2607 0.44198 0.27629 0.0
H232 H 0.2649 0.41815 0.36491 0.0
H233 H 0.12526 0.43432 0.37535 0.0
H234 H 0.15414 0.45626 0.28661 0.0
H235 H 0.12887 0.41152 0.28214 0.0
H236 H 0.22114 0.48098 0.05162 0.0
H237 H 0.16423 0.37323 0.04863 0.0
H238 H 0.24946 0.4905 0.27152 0.0
H239 H 0.21294 0.49477 0.27323 0.0
H240 H 0.24231 0.51239 0.18299 0.0
H241 H 0.17628 0.35866 0.26562 0.0
H242 H 0.14522 0.34137 0.1786 0.0
H243 H 0.13981 0.36291 0.27204 0.0
C244 C 0.84258 0.26873 0.15884 0.0
C245 C 0.81978 0.23947 0.11309 0.0
C246 C 0.84372 0.26957 0.25162 0.0
C247 C 0.8207 0.2408 0.29946 0.0
C248 C 0.79725 0.2113 0.25349 0.0
C249 C 0.79747 0.2108 0.16045 0.0
C250 C 0.86979 0.30111 0.29833 0.0
C251 C 0.77168 0.18051 0.30252 0.0
C252 C 0.84073 0.23094 0.53712 0.0
C253 C 0.82357 0.24409 0.58377 0.0
C254 C 0.84045 0.2302 0.44423 0.0
C255 C 0.82139 0.24162 0.39771 0.0
C256 C 0.80351 0.25439 0.44499 0.0
C257 C 0.80538 0.2561 0.53782 0.0
C258 C 0.86082 0.21758 0.39598 0.0
C259 C 0.78204 0.26574 0.39766 0.0
H260 H 0.86003 0.29081 0.12191 0.0
H261 H 0.77969 0.18829 0.12471 0.0
H262 H 0.85732 0.31153 0.3403 0.0
H263 H 0.88524 0.29512 0.34287 0.0
H264 H 0.88671 0.32079 0.25111 0.0
H265 H 0.75444 0.16006 0.25677 0.0
H266 H 0.78456 0.17086 0.34518 0.0
H267 H 0.75654 0.18715 0.34672 0.0
H268 H 0.85483 0.22176 0.57343 0.0
H269 H 0.79178 0.26582 0.57469 0.0
H270 H 0.87869 0.23714 0.35003 0.0
H271 H 0.84405 0.19517 0.35528 0.0
H272 H 0.87523 0.21078 0.44217 0.0
H273 H 0.7979 0.28731 0.35415 0.0
H274 H 0.76838 0.27337 0.44454 0.0
H275 H 0.76343 0.24517 0.35453 0.0
C276 C 0.54853 0.73678 0.41357 0.0
C277 C 0.57885 0.75122 0.367 0.0
C278 C 0.5484 0.73817 0.50646 0.0
C279 C 0.57931 0.75319 0.55315 0.0
C280 C 0.60997 0.76705 0.50605 0.0
C281 C 0.60937 0.76649 0.41318 0.0
C282 C 0.51528 0.7241 0.55448 0.0
C283 C 0.64334 0.78216 0.55366 0.0
C284 C 0.58403 0.78325 0.79038 0.0
C285 C 0.58004 0.75544 0.83768 0.0
C286 C 0.58319 0.78264 0.69736 0.0
C287 C 0.57959 0.75405 0.65139 0.0
C288 C 0.57638 0.72623 0.69923 0.0
C289 C 0.57601 0.72703 0.79202 0.0
C290 C 0.58561 0.8123 0.64837 0.0
C291 C 0.57367 0.69581 0.65249 0.0
H292 H 0.525 0.72536 0.37718 0.0
H293 H 0.63275 0.77747 0.3765 0.0
H294 H 0.51161 0.7032 0.59804 0.0
H295 H 0.51535 0.74378 0.59764 0.0
H296 H 0.49363 0.71462 0.50807 0.0
H297 H 0.66475 0.79059 0.50704 0.0
H298 H 0.64725 0.80401 0.59439 0.0
H299 H 0.6435 0.76347 0.5995 0.0
H300 H 0.58687 0.80507 0.82617 0.0
H301 H 0.57322 0.70566 0.82908 0.0
H302 H 0.5634 0.80384 0.60452 0.0
H303 H 0.60815 0.82361 0.60538 0.0
H304 H 0.58707 0.83203 0.69416 0.0
H305 H 0.55063 0.68358 0.61104 0.0
H306 H 0.57288 0.67699 0.6997 0.0
H307 H 0.59539 0.70357 0.60744 0.0
C308 C 0.79436 0.57167 0.49925 0.0
C309 C 0.76681 0.56827 0.45127 0.0
C310 C 0.79367 0.57078 0.59224 0.0
C311 C 0.76528 0.56776 0.63751 0.0
C312 C 0.73777 0.56517 0.58899 0.0
C313 C 0.73861 0.56481 0.49621 0.0
C314 C 0.82299 0.57253 0.64194 0.0
C315 C 0.70761 0.5631 0.63498 0.0
C316 C 0.74739 0.53659 0.87435 0.0
C317 C 0.76231 0.5669 0.92185 0.0
C318 C 0.74878 0.53648 0.78147 0.0
C319 C 0.76435 0.56743 0.73572 0.0
C320 C 0.7787 0.5981 0.78375 0.0
C321 C 0.77808 0.59745 0.87659 0.0
C322 C 0.73414 0.50333 0.73245 0.0
C323 C 0.79442 0.63153 0.73715 0.0
H324 H 0.816 0.57407 0.46398 0.0
H325 H 0.71745 0.56247 0.4586 0.0
H326 H 0.83463 0.59504 0.68566 0.0
H327 H 0.81409 0.55022 0.68513 0.0
H328 H 0.84255 0.57359 0.59662 0.0
H329 H 0.68904 0.56278 0.58734 0.0
H330 H 0.69495 0.54004 0.67566 0.0
H331 H 0.71574 0.58486 0.68068 0.0
H332 H 0.73556 0.51303 0.91 0.0
H333 H 0.78945 0.62084 0.91396 0.0
H334 H 0.75363 0.50296 0.68979 0.0
H335 H 0.71347 0.50014 0.6883 0.0
H336 H 0.72421 0.48161 0.77822 0.0
H337 H 0.81614 0.63503 0.69701 0.0
H338 H 0.80319 0.65297 0.78439 0.0
H339 H 0.77599 0.63214 0.69087 0.0
C340 C 0.27054 0.79518 0.1304 0.0
C341 C 0.25089 0.80575 0.1761 0.0
C342 C 0.27163 0.79541 0.03757 0.0
C343 C 0.25344 0.80751 -0.0102 0.0
C344 C 0.23372 0.81843 0.03576 0.0
C345 C 0.23225 0.81691 0.12862 0.0
C346 C 0.29206 0.78255 -0.00928 0.0
C347 C 0.2147 0.8323 -0.01305 0.0
C348 C 0.28185 0.83706 0.75475 0.0
C349 C 0.25661 0.81059 0.70555 0.0
C350 C 0.2809 0.83665 0.84775 0.0
C351 C 0.25481 0.80848 0.89161 0.0
C352 C 0.22988 0.78123 0.84166 0.0
C353 C 0.23072 0.78294 0.74899 0.0
C354 C 0.30734 0.86656 0.89899 0.0
C355 C 0.20243 0.75023 0.886 0.0
H356 H 0.28482 0.78638 0.16735 0.0
H357 H 0.21734 0.8254 0.16423 0.0
H358 H 0.27581 0.76198 0.94408 0.0
H359 H 0.31215 0.80287 0.9509 0.0
H360 H 0.30387 0.77301 0.03775 0.0
H361 H 0.20145 0.84078 0.03279 0.0
H362 H 0.23227 0.85387 0.94552 0.0
H363 H 0.19593 0.8129 0.94161 0.0
H364 H 0.3017 0.85847 0.72045 0.0
H365 H 0.21144 0.76236 0.71022 0.0
H366 H 0.32157 0.85875 0.94258 0.0
H367 H 0.29517 0.87692 0.94243 0.0
H368 H 0.32535 0.88681 0.85471 0.0
H369 H 0.21361 0.7396 0.93154 0.0
H370 H 0.18617 0.73049 0.83729 0.0
H371 H 0.18647 0.7569 0.92657 0.0
C372 C 0.34481 0.07162 0.45384 0.0
C373 C 0.37284 0.08455 0.51013 0.0
C374 C 0.32454 0.03678 0.44016 0.0
C375 C 0.33202 1.0145 0.48592 0.0
C376 C 0.35911 0.02752 0.54701 0.0
C377 C 0.37952 0.0624 0.5572 0.0
C378 C 0.29645 1.02398 0.3729 0.0
C379 C 0.3674 1.00465 0.59907 0.0
C380 C 0.26998 0.92058 0.49805 0.0
C381 C 0.28482 0.90791 0.43997 0.0
C382 C 0.28441 0.9554 0.51195 0.0
C383 C 0.31374 0.97788 0.46464 0.0
C384 C 0.32747 0.96509 0.40179 0.0
C385 C 0.31318 0.93025 0.39136 0.0
C386 C 0.2695 0.96796 0.58106 0.0
C387 C 0.35813 0.98816 0.34809 0.0
H388 H 0.33984 0.0888 0.41678 0.0
H389 H 0.40109 0.07242 0.60121 0.0
H390 H 0.30296 1.01341 0.31484 0.0
H391 H 0.27286 1.00345 0.40122 0.0
H392 H 0.2918 0.04415 0.34943 0.0
H393 H 0.38663 1.01847 0.65114 0.0
H394 H 0.34447 0.98445 0.63103 0.0
H395 H 0.37708 0.99242 0.55356 0.0
H396 H 0.24823 0.90326 0.53631 0.0
H397 H 0.32453 0.92041 0.34603 0.0
H398 H 0.26606 0.98839 0.55396 0.0
H399 H 0.28704 0.97861 0.63815 0.0
H400 H 0.24493 0.94765 0.60566 0.0
H401 H 0.35495 1.00824 0.31729 0.0
H402 H 0.36325 0.97448 0.29496 0.0
H403 H 0.38043 1.00055 0.39224 0.0
C404 C 0.35402 0.26614 0.62363 0.0
C405 C 0.33831 0.24303 0.55369 0.0
C406 C 0.34046 0.28544 0.65734 0.0
C407 C 0.3101 0.28118 0.62163 0.0
C408 C 0.29461 0.25871 0.54976 0.0
C409 C 0.30905 0.24034 0.51615 0.0
C410 C 0.35815 0.30973 0.73282 0.0
C411 C 0.262 0.25309 0.51021 0.0
C412 C 0.2513 0.29636 0.76605 0.0
C413 C 0.25442 0.32598 0.7303 0.0
C414 C 0.26986 0.28209 0.73275 0.0
C415 C 0.29296 0.29811 0.66312 0.0
C416 C 0.29764 0.32882 0.62939 0.0
C417 C 0.27815 0.34221 0.66267 0.0
C418 C 0.26377 0.24909 0.7701 0.0
C419 C 0.32259 0.34707 0.55639 0.0
H420 H 0.37657 0.26884 0.65369 0.0
H421 H 0.29685 0.22352 0.46085 0.0
H422 H 0.36097 0.33461 0.71794 0.0
H423 H 0.34288 0.3004 0.79399 0.0
H424 H 0.38338 0.31305 0.74627 0.0
H425 H 0.25365 0.23548 0.45272 0.0
H426 H 0.24201 0.2427 0.56133 0.0
H427 H 0.26471 0.27728 0.48822 0.0
H428 H 0.23399 0.28374 0.81963 0.0
H429 H 0.28119 0.36505 0.63403 0.0
H430 H 0.28771 0.25149 0.7936 0.0
H431 H 0.25374 0.22952 0.71728 0.0
H432 H 0.2457 0.24033 0.8261 0.0
H433 H 0.34728 0.34966 0.57289 0.0
H434 H 0.32613 0.37246 0.54458 0.0
H435 H 0.31376 0.33234 0.49383 0.0
C436 C 0.94252 0.30206 0.8955 0.0
C437 C 0.91996 0.27294 0.84896 0.0
C438 C 0.97729 0.31638 0.88445 0.0
C439 C 0.98974 0.3019 0.82281 0.0
C440 C 0.96703 0.27188 0.77744 0.0
C441 C 0.93232 0.25743 0.79216 0.0
C442 C 1.00063 0.34778 0.93624 0.0
C443 C 0.97919 0.25619 0.70944 0.0
C444 C 0.07356 0.36673 0.72726 0.0
C445 C 0.09599 0.36051 0.77464 0.0
C446 C 0.03876 0.34638 0.73824 0.0
C447 C 1.02619 0.31999 0.80078 0.0
C448 C 0.0488 0.31306 0.84711 0.0
C449 C 0.08352 0.33314 0.83235 0.0
C450 C 1.01552 0.35399 0.68541 0.0
C451 C 0.03653 0.28585 0.91616 0.0
H452 H 0.93288 0.31394 0.93973 0.0
H453 H 0.91478 0.2351 0.75539 0.0
H454 H 1.02104 0.34515 0.96735 0.0
H455 H 1.01255 0.36951 0.89073 0.0
H456 H 0.98727 0.35346 -0.01105 0.0
H457 H 0.95876 0.23133 0.68602 0.0
H458 H 0.98949 0.27308 0.65147 0.0
H459 H 0.99979 0.25308 0.73707 0.0
H460 H 0.0833 0.38787 0.68237 0.0
H461 H 0.101 0.32865 0.86978 0.0
H462 H 1.00366 0.36431 0.73007 0.0
H463 H 0.99506 0.33064 0.65493 0.0
H464 H 1.02895 0.3725 0.6321 0.0
H465 H 1.02628 0.29306 -0.02648 0.0
H466 H 0.05689 0.2816 0.94036 0.0
H467 H 1.01587 0.26187 0.88919 0.0
C468 C 0.71546 0.93609 0.05637 0.0
C469 C 0.6807 0.91362 0.05369 0.0
C470 C 0.72933 0.96896 0.02455 0.0
C471 C 0.70802 0.97982 -0.01161 0.0
C472 C 0.6729 0.95733 -0.01495 0.0
C473 C 0.65965 0.92449 0.01771 0.0
C474 C 0.76694 0.992 0.0289 0.0
C475 C 0.64938 0.96797 0.94686 0.0
C476 C 0.74711 0.07479 -0.02558 0.0
C477 C 0.7595 0.08091 0.88743 0.0
C478 C 0.72898 0.04184 0.00726 0.0
C479 C 0.72298 1.0144 0.95162 0.0
C480 C 0.73407 1.02039 0.86254 0.0
C481 C 0.75217 0.05351 0.83166 0.0
C482 C 0.71763 0.03652 0.10268 0.0
C483 C 0.72803 0.9919 0.80072 0.0
H484 H 0.73204 0.92785 0.08234 0.0
H485 H 0.63277 0.90748 0.01614 0.0
H486 H 0.77715 0.99959 0.96098 0.0
H487 H 0.77301 1.01525 0.06626 0.0
H488 H 0.77993 0.98 0.06124 0.0
H489 H 0.62269 0.94767 0.95005 0.0
H490 H 0.65219 0.99027 -0.01664 0.0
H491 H 0.65593 0.97541 0.87661 0.0
H492 H 0.7528 0.09581 0.01799 0.0
H493 H 0.76102 0.058 0.76382 0.0
H494 H 0.73204 0.02735 0.14074 0.0
H495 H 0.6907 1.01705 0.1071 0.0
H496 H 0.72131 0.05999 0.1346 0.0
H497 H 0.74241 0.97997 0.8242 0.0
H498 H 0.73574 1.0005 0.73156 0.0
H499 H 0.70107 0.9723 0.80066 0.0
C500 C 0.705 0.62872 0.23143 0.0
C501 C 0.73399 0.63481 0.18576 0.0
C502 C 0.6909 0.64927 0.21908 0.0
C503 C 0.70546 0.67577 0.15698 0.0
C504 C 0.7354 0.68265 0.11263 0.0
C505 C 0.74964 0.66233 0.12866 0.0
C506 C 0.65958 0.6417 0.26981 0.0
C507 C 0.75117 0.71003 0.04421 0.0
C508 C 0.64063 0.69381 0.05726 0.0
C509 C 0.64672 0.72275 0.10388 0.0
C510 C 0.66106 0.67958 0.06981 0.0
C511 C 0.68743 0.69396 0.13304 0.0
C512 C 0.69431 0.72385 0.17836 0.0
C513 C 0.67412 0.73822 0.16215 0.0
C514 C 0.65349 0.64831 0.01806 0.0
C515 C 0.72155 0.73943 0.24795 0.0
H516 H 0.69303 0.60748 0.2759 0.0
H517 H 0.77187 0.66675 0.09258 0.0
H518 H 0.66231 0.66503 0.29989 0.0
H519 H 0.63782 0.63152 0.22377 0.0
H520 H 0.65389 0.62308 0.32319 0.0
H521 H 0.77607 0.71436 0.0222 0.0
H522 H 0.73439 0.70294 -0.01453 0.0
H523 H 0.75419 0.73394 0.07075 0.0
H524 H 0.61948 0.68197 0.0119 0.0
H525 H 0.67851 0.76041 0.19897 0.0
H526 H 0.64316 0.62646 0.06325 0.0
H527 H 0.67684 0.65101 -0.0113 0.0
H528 H 0.635 0.64278 0.96402 0.0
H529 H 0.71428 0.72254 0.30608 0.0
H530 H 0.72593 0.76434 0.27069 0.0
H531 H 0.74547 0.7424 0.22219 0.0
C532 C 0.93608 0.64743 0.27059 0.0
C533 C 0.925 0.66864 0.23718 0.0
C534 C 0.96909 0.66057 0.30271 0.0
C535 C 0.99149 0.69572 0.30152 0.0
C536 C 0.98039 0.7172 0.26804 0.0
C537 C 0.94738 0.70343 0.23662 0.0
C538 C 0.97999 0.63687 0.33796 0.0
C539 C 1.00333 0.75485 0.26612 0.0
C540 C 0.0659 0.73906 0.45835 0.0
C541 C 0.09306 0.74688 0.40177 0.0
C542 C 1.03265 0.72106 0.42758 0.0
C543 C 1.02625 0.71054 0.33779 0.0
C544 C 0.05344 0.717 0.28121 0.0
C545 C 0.08654 0.73504 0.31394 0.0
C546 C 1.00444 0.71453 0.49038 0.0
C547 C 0.04768 0.70623 0.18503 0.0
H548 H 0.91913 0.62053 0.27048 0.0
H549 H 0.93896 0.72012 0.21262 0.0
H550 H 1.00211 0.63996 0.30047 0.0
H551 H 0.98778 0.643 0.40838 0.0
H552 H 0.95972 0.61017 0.33332 0.0
H553 H 0.99111 0.76799 0.23586 0.0
H554 H 1.01127 0.76464 0.33458 0.0
H555 H 1.02638 0.76121 0.22799 0.0
H556 H 0.07069 0.74747 0.52679 0.0
H557 H 0.10736 0.74109 0.26977 0.0
H558 H 0.9849 0.68756 0.48886 0.0
H559 H 0.99234 0.72901 0.46904 0.0
H560 H 1.01337 0.72183 0.55978 0.0
H561 H 1.02823 0.67931 0.17905 0.0
H562 H 0.071 0.71017 0.15219 0.0
H563 H 0.03828 0.72084 0.14892 0.0
C564 C 0.5407 0.2891 0.45512 0.0
C565 C 0.50809 0.28114 0.4797 0.0
C566 C 0.56378 0.32095 0.42256 0.0
C567 C 0.55431 0.34576 0.41566 0.0
C568 C 0.52218 0.33861 0.44548 0.0
C569 C 0.49932 0.30626 0.47655 0.0
C570 C 0.59763 0.32736 0.39068 0.0
C571 C 0.51142 0.36463 0.44088 0.0
C572 C 0.62512 0.43481 0.37142 0.0
C573 C 0.62246 0.43708 0.27938 0.0
C574 C 0.60244 0.40565 0.41742 0.0
C575 C 0.57696 0.37793 0.36985 0.0
C576 C 0.57414 0.3802 0.27692 0.0
C577 C 0.59674 0.40983 0.23304 0.0
C578 C 0.6059 0.40441 0.51666 0.0
C579 C 0.54775 0.351 0.22338 0.0
H580 H 0.54781 0.26993 0.45736 0.0
H581 H 0.47426 0.3004 0.4958 0.0
H582 H 0.59936 0.331 0.31778 0.0
H583 H 0.61805 0.35068 0.42121 0.0
H584 H 0.602 0.30627 0.40626 0.0
H585 H 0.48745 0.35659 0.47647 0.0
H586 H 0.5311 0.38883 0.46966 0.0
H587 H 0.50805 0.36926 0.37054 0.0
H588 H 0.64472 0.45603 0.40751 0.0
H589 H 0.59487 0.4114 0.16181 0.0
H590 H 0.61209 0.38469 0.53353 0.0
H591 H 0.58171 0.39759 0.54937 0.0
H592 H 0.62577 0.42876 0.54445 0.0
H593 H 0.55144 0.32903 0.22983 0.0
H594 H 0.54855 0.35704 0.1519 0.0
H595 H 0.52236 0.34341 0.2492 0.0
C596 C 0.18692 0.58569 0.72527 0.0
C597 C 0.1849 0.55794 0.68046 0.0
C598 C 0.19414 0.61504 0.67968 0.0
C599 C 0.19894 0.6165 0.58663 0.0
C600 C 0.19626 0.58829 0.54067 0.0
C601 C 0.18956 0.55943 0.58831 0.0
C602 C 0.19737 0.64477 0.73146 0.0
C603 C 0.20066 0.58869 0.44138 0.0
C604 C 0.1924 0.68698 0.47555 0.0
C605 C 0.22628 0.71218 0.47103 0.0
C606 C 0.18311 0.65496 0.50856 0.0
C607 C 0.20827 0.64821 0.5388 0.0
C608 C 0.24253 0.67301 0.53024 0.0
C609 C 0.2511 0.70455 0.49588 0.0
C610 C 0.14633 0.62893 0.51501 0.0
C611 C 0.27015 0.66697 0.56231 0.0
H612 H 0.18368 0.58471 0.79656 0.0
H613 H 0.18754 0.53783 0.5534 0.0
H614 H 0.22304 0.66662 0.72343 0.0
H615 H 0.17949 0.65218 0.70539 0.0
H616 H 0.19247 0.6394 0.80336 0.0
H617 H 0.19618 0.56415 0.41509 0.0
H618 H 0.1831 0.59509 0.40818 0.0
H619 H 0.22649 0.60835 0.42334 0.0
H620 H 0.17306 0.69258 0.45612 0.0
H621 H 0.27737 0.7238 0.49256 0.0
H622 H 0.13866 0.62498 0.58568 0.0
H623 H 0.1417 0.60449 0.48783 0.0
H624 H 0.1302 0.63657 0.47897 0.0
H625 H 0.26868 0.66418 0.6355 0.0
H626 H 0.29553 0.68786 0.54488 0.0
H627 H 0.26703 0.6433 0.53361 0.0
C628 C 0.69898 0.1798 0.81046 0.0
C629 C 0.72415 0.21364 0.81744 0.0
C630 C 0.667 0.17074 0.77696 0.0
C631 C 0.66031 0.1961 0.7484 0.0
C632 C 0.68512 0.2303 0.75921 0.0
C633 C 0.71659 0.23864 0.79431 0.0
C634 C 0.64092 0.134 0.7683 0.0
C635 C 0.67921 0.25814 0.72866 0.0
C636 C 0.59791 0.17549 0.56057 0.0
C637 C 0.5702 0.17339 0.60514 0.0
C638 C 0.62725 0.18259 0.60663 0.0
C639 C 0.62867 0.18707 0.69992 0.0
C640 C 0.6005 0.18433 0.74559 0.0
C641 C 0.57169 0.17785 0.69746 0.0
C642 C 0.65698 0.18602 0.55514 0.0
C643 C 0.60084 0.18834 0.84509 0.0
H644 H 0.70455 0.16034 0.8286 0.0
H645 H 0.73585 0.26489 0.7993 0.0
H646 H 0.61649 0.12931 0.79521 0.0
H647 H 0.63698 0.12666 0.69719 0.0
H648 H 0.64849 0.11765 0.80336 0.0
H649 H 0.70011 0.28342 0.74768 0.0
H650 H 0.67652 0.25703 0.65538 0.0
H651 H 0.65554 0.25495 0.75697 0.0
H652 H 0.59688 0.17238 0.48915 0.0
H653 H 0.55009 0.17579 0.73208 0.0
H654 H 0.66424 0.16789 0.57997 0.0
H655 H 0.67889 0.21159 0.56501 0.0
H656 H 0.6517 0.18159 0.48292 0.0
H657 H 0.60694 0.17044 0.87737 0.0
H658 H 0.57638 0.18403 0.87095 0.0
H659 H 0.62067 0.21402 0.86468 0.0
C660 C 0.42136 0.58599 0.05324 0.0
C661 C 0.4487 0.61119 0.00692 0.0
C662 C 0.39159 0.56332 0.0091 0.0
C663 C 0.3893 0.56552 0.91595 0.0
C664 C 0.41709 0.59052 0.86846 0.0
C665 C 0.44637 0.61331 0.91472 0.0
C666 C 0.36232 0.53749 0.06254 0.0
C667 C 0.41581 0.59328 0.76901 0.0
C668 C 0.31755 0.48703 0.81018 0.0
C669 C 0.29249 0.49583 0.80502 0.0
C670 C 0.34992 0.51015 0.84146 0.0
C671 C 0.35713 0.54256 0.86965 0.0
C672 C 0.33237 0.55202 0.86079 0.0
C673 C 0.3005 0.52867 0.82789 0.0
C674 C 0.3759 0.49939 0.84809 0.0
C675 C 0.33883 0.58614 0.89103 0.0
H676 H 0.42301 0.58457 0.12459 0.0
H677 H 0.46767 0.63254 0.87873 0.0
H678 H 0.34042 0.5412 0.05436 0.0
H679 H 0.35467 0.51185 0.038 0.0
H680 H 0.3683 0.53893 0.13436 0.0
H681 H 0.44014 0.61298 0.74148 0.0
H682 H 0.40903 0.56887 0.73712 0.0
H683 H 0.39607 0.5993 0.75087 0.0
H684 H 0.31163 0.46178 0.79218 0.0
H685 H 0.28134 0.53576 0.82425 0.0
H686 H 0.38056 0.49662 0.91886 0.0
H687 H 0.40008 0.5188 0.8194 0.0
H688 H 0.36781 0.47509 0.81352 0.0
H689 H 0.34235 0.58842 0.96407 0.0
H690 H 0.31782 0.59045 0.87376 0.0
H691 H 0.36222 0.6063 0.86089 0.0
C692 C 0.82647 0.50647 0.15135 0.0
C693 C 0.79263 0.49776 0.1574 0.0
C694 C 0.83554 0.4834 0.11871 0.0
C695 C 0.81018 0.45112 0.09016 0.0
C696 C 0.77599 0.44168 0.10025 0.0
C697 C 0.76764 0.46498 0.13441 0.0
C698 C 0.87227 0.49415 0.11079 0.0
C699 C 0.74815 0.40766 0.06982 0.0
C700 C 0.83054 0.40861 0.90303 0.0
C701 C 0.8329 0.38329 0.94783 0.0
C702 C 0.82345 0.43098 0.94881 0.0
C703 C 0.81921 0.42836 0.04205 0.0
C704 C 0.8222 0.40322 0.08797 0.0
C705 C 0.82869 0.38075 0.04012 0.0
C706 C 0.81981 0.45699 0.89705 0.0
C707 C 0.81843 0.40001 0.18745 0.0
H708 H 0.84593 0.53166 0.16945 0.0
H709 H 0.74141 0.45796 0.13879 0.0
H710 H 0.87706 0.47456 0.13794 0.0
H711 H 0.87952 0.49729 0.0398 0.0
H712 H 0.88862 0.51825 0.14603 0.0
H713 H 0.72291 0.40325 0.08861 0.0
H714 H 0.74904 0.40569 -0.00343 0.0
H715 H 0.75153 0.38739 0.09841 0.0
H716 H 0.83344 0.41036 0.83163 0.0
H717 H 0.83093 0.36143 0.07492 0.0
H718 H 0.83791 0.48255 0.92197 0.0
H719 H 0.79422 0.45323 0.90652 0.0
H720 H 0.8241 0.45584 0.8249 0.0
H721 H 0.83621 0.42427 0.21981 0.0
H722 H 0.82307 0.38016 0.21359 0.0
H723 H 0.79272 0.39395 0.20662 0.0
C724 C 0.47708 0.75615 0.15505 0.0
C725 C 0.50957 0.78118 0.13105 0.0
C726 C 0.45381 0.76447 0.18932 0.0
C727 C 0.46297 0.79866 0.19835 0.0
C728 C 0.49492 0.824 0.1687 0.0
C729 C 0.51799 0.81498 0.13613 0.0
C730 C 0.4202 0.73666 0.22111 0.0
C731 C 0.50531 0.86071 0.17532 0.0
C732 C 0.39219 0.81634 0.24927 0.0
C733 C 0.39552 0.82145 0.34136 0.0
C734 C 0.41455 0.80986 0.20113 0.0
C735 C 0.44035 0.80776 0.24661 0.0
C736 C 0.44375 0.8129 0.33966 0.0
C737 C 0.42149 0.82 0.38569 0.0
C738 C 0.41051 0.80516 0.10183 0.0
C739 C 0.47045 0.81015 0.39101 0.0
H740 H 0.47029 0.72995 0.15149 0.0
H741 H 0.54297 0.83446 0.11723 0.0
H742 H 0.41881 0.7382 0.29435 0.0
H743 H 0.39952 0.73947 0.19275 0.0
H744 H 0.41594 0.71134 0.20314 0.0
H745 H 0.52904 0.87692 0.13914 0.0
H746 H 0.48531 0.86495 0.1484 0.0
H747 H 0.509 0.86864 0.24601 0.0
H748 H 0.37236 0.81788 0.21483 0.0
H749 H 0.42384 0.82361 0.45696 0.0
H750 H 0.40493 0.77948 0.08332 0.0
H751 H 0.43432 0.82308 0.06855 0.0
H752 H 0.39004 0.80895 0.07607 0.0
H753 H 0.46699 0.78463 0.38223 0.0
H754 H 0.46982 0.81503 0.46306 0.0
H755 H 0.4957 0.82831 0.36517 0.0
loop_
_geom_bond_atom_site_label_1
_geom_bond_atom_site_label_2
_geom_bond_distance
_geom_bond_site_symmetry_2
_ccdc_geom_bond_type
Co0 N5 2.057 . S
Co0 O17 2.021 . S
Co0 O20 2.062 . S
Co0 O24 2.117 . S
Co0 O25 2.020 . S
C1 O21 1.259 . S
C1 O24 1.258 . S
Co2 N11 2.057 . S
Co2 O18 2.117 . S
Co2 O19 2.020 . S
Co2 O21 2.021 . S
Co2 O26 2.062 . S
C3 N5 1.316 . S
C3 N6 1.347 . S
C3 H8 0.931 . S
C4 N5 1.375 . S
C4 C7 1.350 . S
C4 H9 0.930 . S
N5 Co0 2.057 . S
N5 C3 1.316 . S
N5 C4 1.375 . S
N6 C3 1.347 . S
N6 C7 1.373 . S
C7 C4 1.350 . S
C7 N6 1.373 . S
C7 H28 0.931 . S
H8 C3 0.931 . S
H9 C4 0.930 . S
C10 O17 1.259 . S
C10 O18 1.258 . S
N11 Co2 2.057 . S
N11 C12 1.316 . S
N11 C13 1.375 . S
C12 N11 1.316 . S
C12 N14 1.347 . S
C12 H23 0.931 . S
C13 N11 1.375 . S
C13 C15 1.350 . S
C13 H22 0.930 . S
N14 C12 1.347 . S
N14 C15 1.373 . S
C15 C13 1.350 . S
C15 N14 1.373 . S
C15 H29 0.931 . S
C16 O19 1.256 . S
C16 O20 1.255 . S
O17 Co0 2.021 . S
O17 C10 1.259 . S
O18 Co2 2.117 . S
O18 C10 1.258 . S
O19 Co2 2.020 . S
O19 C16 1.256 . S
O20 Co0 2.062 . S
O20 C16 1.255 . S
O21 C1 1.259 . S
O21 Co2 2.021 . S
H22 C13 0.930 . S
H23 C12 0.931 . S
O24 Co0 2.117 . S
O24 C1 1.258 . S
O25 Co0 2.020 . S
O25 C27 1.256 . S
O26 Co2 2.062 . S
O26 C27 1.255 . S
C27 O25 1.256 . S
C27 O26 1.255 . S
H28 C7 0.931 . S
H29 C15 0.931 . S
Co30 N35 2.057 . S
Co30 O47 2.021 . S
Co30 O50 2.062 . S
Co30 O54 2.117 . S
Co30 O55 2.020 . S
C31 O51 1.259 . S
C31 O54 1.258 . S
Co32 N41 2.057 . S
Co32 O48 2.117 . S
Co32 O49 2.020 . S
Co32 O51 2.021 . S
Co32 O56 2.062 . S
C33 N35 1.316 . S
C33 N36 1.347 . S
C33 H38 0.931 . S
C34 N35 1.375 . S
C34 C37 1.350 . S
C34 H39 0.930 . S
N35 Co30 2.057 . S
N35 C33 1.316 . S
N35 C34 1.375 . S
N36 C33 1.347 . S
N36 C37 1.373 . S
C37 C34 1.350 . S
C37 N36 1.373 . S
C37 H58 0.931 . S
H38 C33 0.931 . S
H39 C34 0.930 . S
C40 O47 1.259 . S
C40 O48 1.258 . S
N41 Co32 2.057 . S
N41 C42 1.316 . S
N41 C43 1.375 . S
C42 N41 1.316 . S
C42 N44 1.347 . S
C42 H53 0.931 . S
C43 N41 1.375 . S
C43 C45 1.350 . S
C43 H52 0.930 . S
N44 C42 1.347 . S
N44 C45 1.373 . S
C45 C43 1.350 . S
C45 N44 1.373 . S
C45 H59 0.931 . S
C46 O49 1.256 . S
C46 O50 1.255 . S
O47 Co30 2.021 . S
O47 C40 1.259 . S
O48 Co32 2.117 . S
O48 C40 1.258 . S
O49 Co32 2.020 . S
O49 C46 1.256 . S
O50 Co30 2.062 . S
O50 C46 1.255 . S
O51 C31 1.259 . S
O51 Co32 2.021 . S
H52 C43 0.930 . S
H53 C42 0.931 . S
O54 Co30 2.117 . S
O54 C31 1.258 . S
O55 Co30 2.020 . S
O55 C57 1.256 . S
O56 Co32 2.062 . S
O56 C57 1.255 . S
C57 O55 1.256 . S
C57 O56 1.255 . S
H58 C37 0.931 . S
H59 C45 0.931 . S
Co60 N65 2.057 . S
Co60 O77 2.021 . S
Co60 O80 2.062 . S
Co60 O84 2.117 . S
Co60 O85 2.020 1_556 S
C61 O81 1.259 . S
C61 O84 1.258 . S
Co62 N71 2.057 . S
Co62 O78 2.117 . S
Co62 O79 2.020 . S
Co62 O81 2.021 . S
Co62 O86 2.062 1_556 S
C63 N65 1.316 . S
C63 N66 1.347 . S
C63 H68 0.931 . S
C64 N65 1.375 . S
C64 C67 1.350 . S
C64 H69 0.930 . S
N65 Co60 2.057 . S
N65 C63 1.316 . S
N65 C64 1.375 . S
N66 C63 1.347 . S
N66 C67 1.373 . S
C67 C64 1.350 . S
C67 N66 1.373 . S
C67 H88 0.931 . S
H68 C63 0.931 . S
H69 C64 0.930 . S
C70 O77 1.259 . S
C70 O78 1.258 . S
N71 Co62 2.057 . S
N71 C72 1.316 1_556 S
N71 C73 1.375 . S
C72 N71 1.316 1_554 S
C72 N74 1.347 . S
C72 H83 0.931 . S
C73 N71 1.375 . S
C73 C75 1.350 . S
C73 H82 0.930 . S
N74 C72 1.347 . S
N74 C75 1.373 1_554 S
C75 C73 1.350 . S
C75 N74 1.373 1_556 S
C75 H89 0.930 1_556 S
C76 O79 1.256 . S
C76 O80 1.255 . S
O77 Co60 2.021 . S
O77 C70 1.259 . S
O78 Co62 2.117 . S
O78 C70 1.258 . S
O79 Co62 2.020 . S
O79 C76 1.256 . S
O80 Co60 2.062 . S
O80 C76 1.255 . S
O81 C61 1.259 . S
O81 Co62 2.021 . S
H82 C73 0.930 . S
H83 C72 0.931 . S
O84 Co60 2.117 . S
O84 C61 1.258 . S
O85 Co60 2.020 1_554 S
O85 C87 1.256 . S
O86 Co62 2.062 1_554 S
O86 C87 1.255 . S
C87 O85 1.256 . S
C87 O86 1.255 . S
H88 C67 0.931 . S
H89 C75 0.930 1_554 S
Co90 N95 2.057 . S
Co90 O107 2.021 . S
Co90 O110 2.062 . S
Co90 O114 2.117 . S
Co90 O115 2.020 1_554 S
C91 O111 1.259 . S
C91 O114 1.258 . S
Co92 N101 2.057 . S
Co92 O108 2.117 . S
Co92 O109 2.020 . S
Co92 O111 2.021 . S
Co92 O116 2.062 1_554 S
C93 N95 1.316 . S
C93 N96 1.347 . S
C93 H98 0.931 . S
C94 N95 1.375 . S
C94 C97 1.350 . S
C94 H99 0.930 . S
N95 Co90 2.057 . S
N95 C93 1.316 . S
N95 C94 1.375 . S
N96 C93 1.347 . S
N96 C97 1.373 . S
C97 C94 1.350 . S
C97 N96 1.373 . S
C97 H118 0.931 . S
H98 C93 0.931 . S
H99 C94 0.930 . S
C100 O107 1.259 . S
C100 O108 1.258 . S
N101 Co92 2.057 . S
N101 C102 1.316 . S
N101 C103 1.375 . S
C102 N101 1.316 . S
C102 N104 1.347 . S
C102 H113 0.931 . S
C103 N101 1.375 . S
C103 C105 1.350 . S
C103 H112 0.930 . S
N104 C102 1.347 . S
N104 C105 1.373 . S
C105 C103 1.350 . S
C105 N104 1.373 . S
C105 H119 0.931 . S
C106 O109 1.256 . S
C106 O110 1.255 . S
O107 Co90 2.021 . S
O107 C100 1.259 . S
O108 Co92 2.117 . S
O108 C100 1.258 . S
O109 Co92 2.020 . S
O109 C106 1.256 . S
O110 Co90 2.062 . S
O110 C106 1.255 . S
O111 C91 1.259 . S
O111 Co92 2.021 . S
H112 C103 0.930 . S
H113 C102 0.931 . S
O114 Co90 2.117 . S
O114 C91 1.258 . S
O115 Co90 2.020 1_556 S
O115 C117 1.256 . S
O116 Co92 2.062 1_556 S
O116 C117 1.255 . S
C117 O115 1.256 . S
C117 O116 1.255 . S
H118 C97 0.931 . S
H119 C105 0.931 . S
Co120 N125 2.057 . S
Co120 O137 2.021 . S
Co120 O140 2.062 . S
Co120 O144 2.117 . S
Co120 O145 2.020 . S
C121 O141 1.259 . S
C121 O144 1.258 . S
Co122 N131 2.057 . S
Co122 O138 2.117 . S
Co122 O139 2.020 . S
Co122 O141 2.021 . S
Co122 O146 2.062 . S
C123 N125 1.316 . S
C123 N126 1.347 . S
C123 H128 0.931 . S
C124 N125 1.375 . S
C124 C127 1.350 . S
C124 H129 0.930 . S
N125 Co120 2.057 . S
N125 C123 1.316 . S
N125 C124 1.375 . S
N126 C123 1.347 . S
N126 C127 1.373 . S
C127 C124 1.350 . S
C127 N126 1.373 . S
C127 H148 0.931 . S
H128 C123 0.931 . S
H129 C124 0.930 . S
C130 O137 1.259 . S
C130 O138 1.258 . S
N131 Co122 2.057 . S
N131 C132 1.316 . S
N131 C133 1.375 . S
C132 N131 1.316 . S
C132 N134 1.347 . S
C132 H143 0.931 . S
C133 N131 1.375 . S
C133 C135 1.350 . S
C133 H142 0.930 . S
N134 C132 1.347 . S
N134 C135 1.373 . S
C135 C133 1.350 . S
C135 N134 1.373 . S
C135 H149 0.931 . S
C136 O139 1.256 . S
C136 O140 1.255 . S
O137 Co120 2.021 . S
O137 C130 1.259 . S
O138 Co122 2.117 . S
O138 C130 1.258 . S
O139 Co122 2.020 . S
O139 C136 1.256 . S
O140 Co120 2.062 . S
O140 C136 1.255 . S
O141 C121 1.259 . S
O141 Co122 2.021 . S
H142 C133 0.930 . S
H143 C132 0.931 . S
O144 Co120 2.117 . S
O144 C121 1.258 . S
O145 Co120 2.020 . S
O145 C147 1.256 . S
O146 Co122 2.062 . S
O146 C147 1.255 . S
C147 O145 1.256 . S
C147 O146 1.255 . S
H148 C127 0.931 . S
H149 C135 0.931 . S
Co150 N155 2.057 . S
Co150 O167 2.021 . S
Co150 O170 2.062 . S
Co150 O174 2.117 . S
Co150 O175 2.020 . S
C151 O171 1.259 . S
C151 O174 1.258 . S
Co152 N161 2.057 . S
Co152 O168 2.117 . S
Co152 O169 2.020 . S
Co152 O171 2.021 . S
Co152 O176 2.062 . S
C153 N155 1.316 . S
C153 N156 1.347 . S
C153 H158 0.931 . S
C154 N155 1.375 . S
C154 C157 1.350 . S
C154 H159 0.930 . S
N155 Co150 2.057 . S
N155 C153 1.316 . S
N155 C154 1.375 . S
N156 C153 1.347 . S
N156 C157 1.373 . S
C157 C154 1.350 . S
C157 N156 1.373 . S
C157 H178 0.931 . S
H158 C153 0.931 . S
H159 C154 0.930 . S
C160 O167 1.259 . S
C160 O168 1.258 . S
N161 Co152 2.057 . S
N161 C162 1.316 . S
N161 C163 1.375 . S
C162 N161 1.316 . S
C162 N164 1.347 . S
C162 H173 0.931 . S
C163 N161 1.375 . S
C163 C165 1.350 . S
C163 H172 0.930 . S
N164 C162 1.347 . S
N164 C165 1.373 . S
C165 C163 1.350 . S
C165 N164 1.373 . S
C165 H179 0.931 . S
C166 O169 1.256 . S
C166 O170 1.255 . S
O167 Co150 2.021 . S
O167 C160 1.259 . S
O168 Co152 2.117 . S
O168 C160 1.258 . S
O169 Co152 2.020 . S
O169 C166 1.256 . S
O170 Co150 2.062 . S
O170 C166 1.255 . S
O171 C151 1.259 . S
O171 Co152 2.021 . S
H172 C163 0.930 . S
H173 C162 0.931 . S
O174 Co150 2.117 . S
O174 C151 1.258 . S
O175 Co150 2.020 . S
O175 C177 1.256 . S
O176 Co152 2.062 . S
O176 C177 1.255 . S
C177 O175 1.256 . S
C177 O176 1.255 . S
H178 C157 0.931 . S
H179 C165 0.931 . S
C180 C181 1.391 . S
C180 C182 1.394 . S
C180 H196 0.931 . S
C181 C180 1.391 . S
C181 C185 1.376 . S
C182 C180 1.394 . S
C182 C183 1.369 . S
C182 C186 1.531 . S
C183 C182 1.369 . S
C183 C184 1.410 . S
C183 C191 1.503 . S
C184 C183 1.410 . S
C184 C185 1.392 . S
C184 C187 1.511 . S
C185 C181 1.376 . S
C185 C184 1.392 . S
C185 H197 0.929 . S
C186 C182 1.531 . S
C186 H198 0.960 . S
C186 H199 0.962 . S
C186 H200 0.960 . S
C187 C184 1.511 . S
C187 H201 0.961 . S
C187 H202 0.961 . S
C187 H203 0.961 . S
C188 C189 1.370 . S
C188 C190 1.363 1_556 S
C188 H204 0.931 . S
C189 C188 1.370 . S
C189 C193 1.408 . S
C190 C188 1.363 1_554 S
C190 C191 1.370 . S
C190 C194 1.524 . S
C191 C183 1.503 . S
C191 C190 1.370 . S
C191 C192 1.403 . S
C192 C191 1.403 . S
C192 C193 1.404 1_554 S
C192 C195 1.539 . S
C193 C189 1.408 . S
C193 C192 1.404 1_556 S
C193 H205 0.930 . S
C194 C190 1.524 . S
C194 H206 0.956 . S
C194 H207 0.961 . S
C194 H208 0.961 . S
C195 C192 1.539 . S
C195 H209 0.958 . S
C195 H210 0.961 . S
C195 H211 0.960 . S
H196 C180 0.931 . S
H197 C185 0.929 . S
H198 C186 0.960 . S
H199 C186 0.962 . S
H200 C186 0.960 . S
H201 C187 0.961 . S
H202 C187 0.961 . S
H203 C187 0.961 . S
H204 C188 0.931 . S
H205 C193 0.930 . S
H206 C194 0.956 . S
H207 C194 0.961 . S
H208 C194 0.961 . S
H209 C195 0.958 . S
H210 C195 0.961 . S
H211 C195 0.960 . S
C212 C213 1.391 . S
C212 C214 1.394 . S
C212 H228 0.931 . S
C213 C212 1.391 . S
C213 C217 1.376 . S
C214 C212 1.394 . S
C214 C215 1.369 . S
C214 C218 1.531 . S
C215 C214 1.369 . S
C215 C216 1.410 . S
C215 C223 1.503 . S
C216 C215 1.410 . S
C216 C217 1.392 . S
C216 C219 1.511 . S
C217 C213 1.376 . S
C217 C216 1.392 . S
C217 H229 0.929 . S
C218 C214 1.531 . S
C218 H230 0.960 . S
C218 H231 0.962 . S
C218 H232 0.960 . S
C219 C216 1.511 . S
C219 H233 0.961 . S
C219 H234 0.961 . S
C219 H235 0.961 . S
C220 C221 1.370 1_554 S
C220 C222 1.363 . S
C220 H236 0.931 1_554 S
C221 C220 1.370 1_556 S
C221 C225 1.408 1_556 S
C222 C220 1.363 . S
C222 C223 1.370 . S
C222 C226 1.524 . S
C223 C215 1.503 . S
C223 C222 1.370 . S
C223 C224 1.403 . S
C224 C223 1.403 . S
C224 C225 1.404 . S
C224 C227 1.539 . S
C225 C221 1.408 1_554 S
C225 C224 1.404 . S
C225 H237 0.930 1_554 S
C226 C222 1.524 . S
C226 H238 0.956 . S
C226 H239 0.961 . S
C226 H240 0.961 . S
C227 C224 1.539 . S
C227 H241 0.958 . S
C227 H242 0.961 . S
C227 H243 0.960 . S
H228 C212 0.931 . S
H229 C217 0.929 . S
H230 C218 0.960 . S
H231 C218 0.962 . S
H232 C218 0.960 . S
H233 C219 0.961 . S
H234 C219 0.961 . S
H235 C219 0.961 . S
H236 C220 0.931 1_556 S
H237 C225 0.930 1_556 S
H238 C226 0.956 . S
H239 C226 0.961 . S
H240 C226 0.961 . S
H241 C227 0.958 . S
H242 C227 0.961 . S
H243 C227 0.960 . S
C244 C245 1.391 . S
C244 C246 1.394 . S
C244 H260 0.931 . S
C245 C244 1.391 . S
C245 C249 1.376 . S
C246 C244 1.394 . S
C246 C247 1.369 . S
C246 C250 1.531 . S
C247 C246 1.369 . S
C247 C248 1.410 . S
C247 C255 1.503 . S
C248 C247 1.410 . S
C248 C249 1.392 . S
C248 C251 1.511 . S
C249 C245 1.376 . S
C249 C248 1.392 . S
C249 H261 0.929 . S
C250 C246 1.531 . S
C250 H262 0.960 . S
C250 H263 0.962 . S
C250 H264 0.960 . S
C251 C248 1.511 . S
C251 H265 0.961 . S
C251 H266 0.961 . S
C251 H267 0.961 . S
C252 C253 1.370 . S
C252 C254 1.363 . S
C252 H268 0.931 . S
C253 C252 1.370 . S
C253 C257 1.408 . S
C254 C252 1.363 . S
C254 C255 1.370 . S
C254 C258 1.524 . S
C255 C247 1.503 . S
C255 C254 1.370 . S
C255 C256 1.403 . S
C256 C255 1.403 . S
C256 C257 1.404 . S
C256 C259 1.539 . S
C257 C253 1.408 . S
C257 C256 1.404 . S
C257 H269 0.930 . S
C258 C254 1.524 . S
C258 H270 0.956 . S
C258 H271 0.961 . S
C258 H272 0.961 . S
C259 C256 1.539 . S
C259 H273 0.958 . S
C259 H274 0.961 . S
C259 H275 0.960 . S
H260 C244 0.931 . S
H261 C249 0.929 . S
H262 C250 0.960 . S
H263 C250 0.962 . S
H264 C250 0.960 . S
H265 C251 0.961 . S
H266 C251 0.961 . S
H267 C251 0.961 . S
H268 C252 0.931 . S
H269 C257 0.930 . S
H270 C258 0.956 . S
H271 C258 0.961 . S
H272 C258 0.961 . S
H273 C259 0.958 . S
H274 C259 0.961 . S
H275 C259 0.960 . S
C276 C277 1.391 . S
C276 C278 1.394 . S
C276 H292 0.931 . S
C277 C276 1.391 . S
C277 C281 1.376 . S
C278 C276 1.394 . S
C278 C279 1.369 . S
C278 C282 1.531 . S
C279 C278 1.369 . S
C279 C280 1.410 . S
C279 C287 1.503 . S
C280 C279 1.410 . S
C280 C281 1.392 . S
C280 C283 1.511 . S
C281 C277 1.376 . S
C281 C280 1.392 . S
C281 H293 0.929 . S
C282 C278 1.531 . S
C282 H294 0.960 . S
C282 H295 0.962 . S
C282 H296 0.960 . S
C283 C280 1.511 . S
C283 H297 0.961 . S
C283 H298 0.961 . S
C283 H299 0.961 . S
C284 C285 1.370 . S
C284 C286 1.363 . S
C284 H300 0.931 . S
C285 C284 1.370 . S
C285 C289 1.408 . S
C286 C284 1.363 . S
C286 C287 1.370 . S
C286 C290 1.524 . S
C287 C279 1.503 . S
C287 C286 1.370 . S
C287 C288 1.403 . S
C288 C287 1.403 . S
C288 C289 1.404 . S
C288 C291 1.539 . S
C289 C285 1.408 . S
C289 C288 1.404 . S
C289 H301 0.930 . S
C290 C286 1.524 . S
C290 H302 0.956 . S
C290 H303 0.961 . S
C290 H304 0.961 . S
C291 C288 1.539 . S
C291 H305 0.958 . S
C291 H306 0.961 . S
C291 H307 0.960 . S
H292 C276 0.931 . S
H293 C281 0.929 . S
H294 C282 0.960 . S
H295 C282 0.962 . S
H296 C282 0.960 . S
H297 C283 0.961 . S
H298 C283 0.961 . S
H299 C283 0.961 . S
H300 C284 0.931 . S
H301 C289 0.930 . S
H302 C290 0.956 . S
H303 C290 0.961 . S
H304 C290 0.961 . S
H305 C291 0.958 . S
H306 C291 0.961 . S
H307 C291 0.960 . S
C308 C309 1.391 . S
C308 C310 1.394 . S
C308 H324 0.931 . S
C309 C308 1.391 . S
C309 C313 1.376 . S
C310 C308 1.394 . S
C310 C311 1.369 . S
C310 C314 1.531 . S
C311 C310 1.369 . S
C311 C312 1.410 . S
C311 C319 1.503 . S
C312 C311 1.410 . S
C312 C313 1.392 . S
C312 C315 1.511 . S
C313 C309 1.376 . S
C313 C312 1.392 . S
C313 H325 0.929 . S
C314 C310 1.531 . S
C314 H326 0.960 . S
C314 H327 0.962 . S
C314 H328 0.960 . S
C315 C312 1.511 . S
C315 H329 0.961 . S
C315 H330 0.961 . S
C315 H331 0.961 . S
C316 C317 1.370 . S
C316 C318 1.363 1_554 S
C316 H332 0.931 . S
C317 C316 1.370 . S
C317 C321 1.408 . S
C318 C316 1.363 1_556 S
C318 C319 1.370 . S
C318 C322 1.524 . S
C319 C311 1.503 . S
C319 C318 1.370 . S
C319 C320 1.403 . S
C320 C319 1.403 . S
C320 C321 1.404 1_556 S
C320 C323 1.539 . S
C321 C317 1.408 . S
C321 C320 1.404 1_554 S
C321 H333 0.930 . S
C322 C318 1.524 . S
C322 H334 0.956 . S
C322 H335 0.961 . S
C322 H336 0.961 . S
C323 C320 1.539 . S
C323 H337 0.958 . S
C323 H338 0.961 . S
C323 H339 0.960 . S
H324 C308 0.931 . S
H325 C313 0.929 . S
H326 C314 0.960 . S
H327 C314 0.962 . S
H328 C314 0.960 . S
H329 C315 0.961 . S
H330 C315 0.961 . S
H331 C315 0.961 . S
H332 C316 0.931 . S
H333 C321 0.930 . S
H334 C322 0.956 . S
H335 C322 0.961 . S
H336 C322 0.961 . S
H337 C323 0.958 . S
H338 C323 0.961 . S
H339 C323 0.960 . S
C340 C341 1.391 . S
C340 C342 1.394 1_554 S
C340 H356 0.931 . S
C341 C340 1.391 . S
C341 C345 1.376 . S
C342 C340 1.394 1_556 S
C342 C343 1.369 . S
C342 C346 1.531 . S
C343 C342 1.369 . S
C343 C344 1.410 . S
C343 C351 1.503 . S
C344 C343 1.410 . S
C344 C345 1.392 1_556 S
C344 C347 1.511 . S
C345 C341 1.376 . S
C345 C344 1.392 1_554 S
C345 H357 0.929 . S
C346 C342 1.531 . S
C346 H358 0.960 . S
C346 H359 0.962 . S
C346 H360 0.960 . S
C347 C344 1.511 . S
C347 H361 0.961 . S
C347 H362 0.961 . S
C347 H363 0.961 . S
C348 C349 1.370 . S
C348 C350 1.363 . S
C348 H364 0.931 . S
C349 C348 1.370 . S
C349 C353 1.408 . S
C350 C348 1.363 . S
C350 C351 1.370 . S
C350 C354 1.524 . S
C351 C343 1.503 . S
C351 C350 1.370 . S
C351 C352 1.403 . S
C352 C351 1.403 . S
C352 C353 1.404 . S
C352 C355 1.539 . S
C353 C349 1.408 . S
C353 C352 1.404 . S
C353 H365 0.930 . S
C354 C350 1.524 . S
C354 H366 0.956 . S
C354 H367 0.961 . S
C354 H368 0.961 . S
C355 C352 1.539 . S
C355 H369 0.958 . S
C355 H370 0.961 . S
C355 H371 0.960 . S
H356 C340 0.931 . S
H357 C345 0.929 . S
H358 C346 0.960 . S
H359 C346 0.962 . S
H360 C346 0.960 . S
H361 C347 0.961 . S
H362 C347 0.961 . S
H363 C347 0.961 . S
H364 C348 0.931 . S
H365 C353 0.930 . S
H366 C354 0.956 . S
H367 C354 0.961 . S
H368 C354 0.961 . S
H369 C355 0.958 . S
H370 C355 0.961 . S
H371 C355 0.960 . S
C372 C373 1.391 . S
C372 C374 1.394 . S
C372 H388 0.931 . S
C373 C372 1.391 . S
C373 C377 1.376 . S
C374 C372 1.394 . S
C374 C375 1.369 1_545 S
C374 C378 1.530 1_545 S
C375 C374 1.369 1_565 S
C375 C376 1.410 1_565 S
C375 C383 1.503 . S
C376 C375 1.410 1_545 S
C376 C377 1.392 . S
C376 C379 1.511 1_545 S
C377 C373 1.376 . S
C377 C376 1.392 . S
C377 H389 0.929 . S
C378 C374 1.530 1_565 S
C378 H390 0.959 . S
C378 H391 0.961 . S
C378 H392 0.962 1_565 S
C379 C376 1.511 1_565 S
C379 H393 0.961 . S
C379 H394 0.961 . S
C379 H395 0.961 . S
C380 C381 1.370 . S
C380 C382 1.363 . S
C380 H396 0.931 . S
C381 C380 1.370 . S
C381 C385 1.408 . S
C382 C380 1.363 . S
C382 C383 1.370 . S
C382 C386 1.524 . S
C383 C375 1.503 . S
C383 C382 1.370 . S
C383 C384 1.403 . S
C384 C383 1.403 . S
C384 C385 1.404 . S
C384 C387 1.539 . S
C385 C381 1.408 . S
C385 C384 1.404 . S
C385 H397 0.930 . S
C386 C382 1.524 . S
C386 H398 0.956 . S
C386 H399 0.961 . S
C386 H400 0.961 . S
C387 C384 1.539 . S
C387 H401 0.958 . S
C387 H402 0.961 . S
C387 H403 0.960 . S
H388 C372 0.931 . S
H389 C377 0.929 . S
H390 C378 0.959 . S
H391 C378 0.961 . S
H392 C378 0.962 1_545 S
H393 C379 0.961 . S
H394 C379 0.961 . S
H395 C379 0.961 . S
H396 C380 0.931 . S
H397 C385 0.930 . S
H398 C386 0.956 . S
H399 C386 0.961 . S
H400 C386 0.961 . S
H401 C387 0.958 . S
H402 C387 0.961 . S
H403 C387 0.960 . S
C404 C405 1.391 . S
C404 C406 1.394 . S
C404 H420 0.931 . S
C405 C404 1.391 . S
C405 C409 1.376 . S
C406 C404 1.394 . S
C406 C407 1.369 . S
C406 C410 1.531 . S
C407 C406 1.369 . S
C407 C408 1.410 . S
C407 C415 1.503 . S
C408 C407 1.410 . S
C408 C409 1.392 . S
C408 C411 1.511 . S
C409 C405 1.376 . S
C409 C408 1.392 . S
C409 H421 0.929 . S
C410 C406 1.531 . S
C410 H422 0.960 . S
C410 H423 0.962 . S
C410 H424 0.960 . S
C411 C408 1.511 . S
C411 H425 0.961 . S
C411 H426 0.961 . S
C411 H427 0.961 . S
C412 C413 1.370 . S
C412 C414 1.363 . S
C412 H428 0.931 . S
C413 C412 1.370 . S
C413 C417 1.408 . S
C414 C412 1.363 . S
C414 C415 1.370 . S
C414 C418 1.524 . S
C415 C407 1.503 . S
C415 C414 1.370 . S
C415 C416 1.403 . S
C416 C415 1.403 . S
C416 C417 1.404 . S
C416 C419 1.539 . S
C417 C413 1.408 . S
C417 C416 1.404 . S
C417 H429 0.930 . S
C418 C414 1.524 . S
C418 H430 0.956 . S
C418 H431 0.961 . S
C418 H432 0.961 . S
C419 C416 1.539 . S
C419 H433 0.958 . S
C419 H434 0.961 . S
C419 H435 0.960 . S
H420 C404 0.931 . S
H421 C409 0.929 . S
H422 C410 0.960 . S
H423 C410 0.962 . S
H424 C410 0.960 . S
H425 C411 0.961 . S
H426 C411 0.961 . S
H427 C411 0.961 . S
H428 C412 0.931 . S
H429 C417 0.930 . S
H430 C418 0.956 . S
H431 C418 0.961 . S
H432 C418 0.961 . S
H433 C419 0.958 . S
H434 C419 0.961 . S
H435 C419 0.960 . S
C436 C437 1.386 1_554 S
C436 C438 1.389 1_554 S
C436 H452 0.940 . S
C437 C436 1.386 1_556 S
C437 C441 1.376 . S
C438 C436 1.389 1_556 S
C438 C439 1.369 . S
C438 C442 1.531 1_556 S
C439 C438 1.369 . S
C439 C440 1.410 . S
C439 C447 1.503 . S
C440 C439 1.410 . S
C440 C441 1.392 . S
C440 C443 1.511 . S
C441 C437 1.376 . S
C441 C440 1.392 . S
C441 H453 0.929 . S
C442 C438 1.531 1_554 S
C442 H454 0.959 1_654 S
C442 H455 0.962 1_554 S
C442 H456 0.960 . S
C443 C440 1.511 . S
C443 H457 0.961 . S
C443 H458 0.961 . S
C443 H459 0.961 . S
C444 C445 1.370 . S
C444 C446 1.363 1_455 S
C444 H460 0.931 . S
C445 C444 1.370 . S
C445 C449 1.408 . S
C446 C444 1.363 1_655 S
C446 C447 1.370 . S
C446 C450 1.524 . S
C447 C439 1.503 . S
C447 C446 1.370 . S
C447 C448 1.403 1_655 S
C448 C447 1.403 1_455 S
C448 C449 1.404 . S
C448 C451 1.539 . S
C449 C445 1.408 . S
C449 C448 1.404 . S
C449 H461 0.930 . S
C450 C446 1.524 . S
C450 H462 0.956 . S
C450 H463 0.961 . S
C450 H464 0.961 . S
C451 C448 1.539 . S
C451 H465 0.958 . S
C451 H466 0.961 . S
C451 H467 0.960 1_455 S
H452 C436 0.940 . S
H453 C441 0.929 . S
H454 C442 0.959 1_456 S
H455 C442 0.962 1_556 S
H456 C442 0.960 . S
H457 C443 0.961 . S
H458 C443 0.961 . S
H459 C443 0.961 . S
H460 C444 0.931 . S
H461 C449 0.930 . S
H462 C450 0.956 . S
H463 C450 0.961 . S
H464 C450 0.961 . S
H465 C451 0.958 . S
H466 C451 0.961 . S
H467 C451 0.960 1_655 S
C468 C469 1.391 . S
C468 C470 1.394 . S
C468 H484 0.931 . S
C469 C468 1.391 . S
C469 C473 1.376 . S
C470 C468 1.394 . S
C470 C471 1.369 . S
C470 C474 1.531 1_554 S
C471 C470 1.369 . S
C471 C472 1.410 . S
C471 C479 1.503 1_554 S
C472 C471 1.410 . S
C472 C473 1.392 . S
C472 C475 1.511 . S
C473 C469 1.376 . S
C473 C472 1.392 . S
C473 H485 0.929 . S
C474 C470 1.531 1_556 S
C474 H486 0.960 . S
C474 H487 0.962 1_556 S
C474 H488 0.960 . S
C475 C472 1.511 . S
C475 H489 0.961 . S
C475 H490 0.961 . S
C475 H491 0.961 1_554 S
C476 C477 1.370 1_554 S
C476 C478 1.363 . S
C476 H492 0.931 . S
C477 C476 1.370 1_556 S
C477 C481 1.408 . S
C478 C476 1.363 . S
C478 C479 1.370 1_544 S
C478 C482 1.524 . S
C479 C471 1.503 1_556 S
C479 C478 1.370 1_566 S
C479 C480 1.403 . S
C480 C479 1.403 . S
C480 C481 1.404 1_565 S
C480 C483 1.539 . S
C481 C477 1.408 . S
C481 C480 1.404 1_545 S
C481 H493 0.930 . S
C482 C478 1.524 . S
C482 H494 0.956 1_545 S
C482 H495 0.961 1_545 S
C482 H496 0.961 . S
C483 C480 1.539 . S
C483 H497 0.958 . S
C483 H498 0.961 . S
C483 H499 0.960 . S
H484 C468 0.931 . S
H485 C473 0.929 . S
H486 C474 0.960 . S
H487 C474 0.962 1_554 S
H488 C474 0.960 . S
H489 C475 0.961 . S
H490 C475 0.961 . S
H491 C475 0.961 1_556 S
H492 C476 0.931 . S
H493 C481 0.930 . S
H494 C482 0.956 1_565 S
H495 C482 0.961 1_565 S
H496 C482 0.961 . S
H497 C483 0.958 . S
H498 C483 0.961 . S
H499 C483 0.960 . S
C500 C501 1.391 . S
C500 C502 1.394 . S
C500 H516 0.931 . S
C501 C500 1.391 . S
C501 C505 1.376 . S
C502 C500 1.394 . S
C502 C503 1.369 . S
C502 C506 1.531 . S
C503 C502 1.369 . S
C503 C504 1.410 . S
C503 C511 1.503 . S
C504 C503 1.410 . S
C504 C505 1.392 . S
C504 C507 1.511 . S
C505 C501 1.376 . S
C505 C504 1.392 . S
C505 H517 0.929 . S
C506 C502 1.531 . S
C506 H518 0.960 . S
C506 H519 0.962 . S
C506 H520 0.960 . S
C507 C504 1.511 . S
C507 H521 0.961 . S
C507 H522 0.961 . S
C507 H523 0.961 . S
C508 C509 1.370 . S
C508 C510 1.363 . S
C508 H524 0.931 . S
C509 C508 1.370 . S
C509 C513 1.408 . S
C510 C508 1.363 . S
C510 C511 1.370 . S
C510 C514 1.524 . S
C511 C503 1.503 . S
C511 C510 1.370 . S
C511 C512 1.403 . S
C512 C511 1.403 . S
C512 C513 1.404 . S
C512 C515 1.539 . S
C513 C509 1.408 . S
C513 C512 1.404 . S
C513 H525 0.930 . S
C514 C510 1.524 . S
C514 H526 0.956 . S
C514 H527 0.961 . S
C514 H528 0.961 . S
C515 C512 1.539 . S
C515 H529 0.958 . S
C515 H530 0.961 . S
C515 H531 0.960 . S
H516 C500 0.931 . S
H517 C505 0.929 . S
H518 C506 0.960 . S
H519 C506 0.962 . S
H520 C506 0.960 . S
H521 C507 0.961 . S
H522 C507 0.961 . S
H523 C507 0.961 . S
H524 C508 0.931 . S
H525 C513 0.930 . S
H526 C514 0.956 . S
H527 C514 0.961 . S
H528 C514 0.961 . S
H529 C515 0.958 . S
H530 C515 0.961 . S
H531 C515 0.960 . S
C532 C533 1.391 . S
C532 C534 1.394 . S
C532 H548 0.931 . S
C533 C532 1.391 . S
C533 C537 1.376 . S
C534 C532 1.394 . S
C534 C535 1.369 . S
C534 C538 1.531 . S
C535 C534 1.369 . S
C535 C536 1.410 . S
C535 C543 1.503 . S
C536 C535 1.410 . S
C536 C537 1.392 . S
C536 C539 1.511 . S
C537 C533 1.376 . S
C537 C536 1.392 . S
C537 H549 0.929 . S
C538 C534 1.531 . S
C538 H550 0.960 . S
C538 H551 0.962 . S
C538 H552 0.960 . S
C539 C536 1.511 . S
C539 H553 0.961 . S
C539 H554 0.961 . S
C539 H555 0.961 . S
C540 C541 1.370 . S
C540 C542 1.363 1_455 S
C540 H556 0.931 . S
C541 C540 1.370 . S
C541 C545 1.408 . S
C542 C540 1.363 1_655 S
C542 C543 1.370 . S
C542 C546 1.524 . S
C543 C535 1.503 . S
C543 C542 1.370 . S
C543 C544 1.403 1_655 S
C544 C543 1.403 1_455 S
C544 C545 1.404 . S
C544 C547 1.539 . S
C545 C541 1.408 . S
C545 C544 1.404 . S
C545 H557 0.930 . S
C546 C542 1.524 . S
C546 H558 0.956 . S
C546 H559 0.961 . S
C546 H560 0.961 . S
C547 C544 1.539 . S
C547 H561 0.958 . S
C547 H562 0.961 . S
C547 H563 0.960 1_455 S
H548 C532 0.931 . S
H549 C537 0.929 . S
H550 C538 0.960 . S
H551 C538 0.962 . S
H552 C538 0.960 . S
H553 C539 0.961 . S
H554 C539 0.961 . S
H555 C539 0.961 . S
H556 C540 0.931 . S
H557 C545 0.930 . S
H558 C546 0.956 . S
H559 C546 0.961 . S
H560 C546 0.961 . S
H561 C547 0.958 . S
H562 C547 0.961 . S
H563 C547 0.960 1_655 S
C564 C565 1.391 . S
C564 C566 1.394 . S
C564 H580 0.931 . S
C565 C564 1.391 . S
C565 C569 1.376 . S
C566 C564 1.394 . S
C566 C567 1.369 . S
C566 C570 1.531 . S
C567 C566 1.369 . S
C567 C568 1.410 . S
C567 C575 1.503 . S
C568 C567 1.410 . S
C568 C569 1.392 . S
C568 C571 1.511 . S
C569 C565 1.376 . S
C569 C568 1.392 . S
C569 H581 0.929 . S
C570 C566 1.531 . S
C570 H582 0.960 . S
C570 H583 0.962 . S
C570 H584 0.960 . S
C571 C568 1.511 . S
C571 H585 0.961 . S
C571 H586 0.961 . S
C571 H587 0.961 . S
C572 C573 1.370 . S
C572 C574 1.363 . S
C572 H588 0.931 . S
C573 C572 1.370 . S
C573 C577 1.408 . S
C574 C572 1.363 . S
C574 C575 1.370 . S
C574 C578 1.524 . S
C575 C567 1.503 . S
C575 C574 1.370 . S
C575 C576 1.403 . S
C576 C575 1.403 . S
C576 C577 1.404 . S
C576 C579 1.539 . S
C577 C573 1.408 . S
C577 C576 1.404 . S
C577 H589 0.930 . S
C578 C574 1.524 . S
C578 H590 0.956 . S
C578 H591 0.961 . S
C578 H592 0.961 . S
C579 C576 1.539 . S
C579 H593 0.958 . S
C579 H594 0.961 . S
C579 H595 0.960 . S
H580 C564 0.931 . S
H581 C569 0.929 . S
H582 C570 0.960 . S
H583 C570 0.962 . S
H584 C570 0.960 . S
H585 C571 0.961 . S
H586 C571 0.961 . S
H587 C571 0.961 . S
H588 C572 0.931 . S
H589 C577 0.930 . S
H590 C578 0.956 . S
H591 C578 0.961 . S
H592 C578 0.961 . S
H593 C579 0.958 . S
H594 C579 0.961 . S
H595 C579 0.960 . S
C596 C597 1.391 . S
C596 C598 1.394 . S
C596 H612 0.931 . S
C597 C596 1.391 . S
C597 C601 1.376 . S
C598 C596 1.394 . S
C598 C599 1.369 . S
C598 C602 1.531 . S
C599 C598 1.369 . S
C599 C600 1.410 . S
C599 C607 1.503 . S
C600 C599 1.410 . S
C600 C601 1.392 . S
C600 C603 1.511 . S
C601 C597 1.376 . S
C601 C600 1.392 . S
C601 H613 0.929 . S
C602 C598 1.531 . S
C602 H614 0.960 . S
C602 H615 0.962 . S
C602 H616 0.960 . S
C603 C600 1.511 . S
C603 H617 0.961 . S
C603 H618 0.961 . S
C603 H619 0.961 . S
C604 C605 1.370 . S
C604 C606 1.363 . S
C604 H620 0.931 . S
C605 C604 1.370 . S
C605 C609 1.408 . S
C606 C604 1.363 . S
C606 C607 1.370 . S
C606 C610 1.524 . S
C607 C599 1.503 . S
C607 C606 1.370 . S
C607 C608 1.403 . S
C608 C607 1.403 . S
C608 C609 1.404 . S
C608 C611 1.539 . S
C609 C605 1.408 . S
C609 C608 1.404 . S
C609 H621 0.930 . S
C610 C606 1.524 . S
C610 H622 0.956 . S
C610 H623 0.961 . S
C610 H624 0.961 . S
C611 C608 1.539 . S
C611 H625 0.958 . S
C611 H626 0.961 . S
C611 H627 0.960 . S
H612 C596 0.931 . S
H613 C601 0.929 . S
H614 C602 0.960 . S
H615 C602 0.962 . S
H616 C602 0.960 . S
H617 C603 0.961 . S
H618 C603 0.961 . S
H619 C603 0.961 . S
H620 C604 0.931 . S
H621 C609 0.930 . S
H622 C610 0.956 . S
H623 C610 0.961 . S
H624 C610 0.961 . S
H625 C611 0.958 . S
H626 C611 0.961 . S
H627 C611 0.960 . S
C628 C629 1.391 . S
C628 C630 1.394 . S
C628 H644 0.931 . S
C629 C628 1.391 . S
C629 C633 1.376 . S
C630 C628 1.394 . S
C630 C631 1.369 . S
C630 C634 1.531 . S
C631 C630 1.369 . S
C631 C632 1.410 . S
C631 C639 1.503 . S
C632 C631 1.410 . S
C632 C633 1.392 . S
C632 C635 1.511 . S
C633 C629 1.376 . S
C633 C632 1.392 . S
C633 H645 0.929 . S
C634 C630 1.531 . S
C634 H646 0.960 . S
C634 H647 0.962 . S
C634 H648 0.960 . S
C635 C632 1.511 . S
C635 H649 0.961 . S
C635 H650 0.961 . S
C635 H651 0.961 . S
C636 C637 1.370 . S
C636 C638 1.363 . S
C636 H652 0.931 . S
C637 C636 1.370 . S
C637 C641 1.408 . S
C638 C636 1.363 . S
C638 C639 1.370 . S
C638 C642 1.524 . S
C639 C631 1.503 . S
C639 C638 1.370 . S
C639 C640 1.403 . S
C640 C639 1.403 . S
C640 C641 1.404 . S
C640 C643 1.539 . S
C641 C637 1.408 . S
C641 C640 1.404 . S
C641 H653 0.930 . S
C642 C638 1.524 . S
C642 H654 0.956 . S
C642 H655 0.961 . S
C642 H656 0.961 . S
C643 C640 1.539 . S
C643 H657 0.958 1_556 S
C643 H658 0.961 1_556 S
C643 H659 0.960 1_556 S
H644 C628 0.931 . S
H645 C633 0.929 . S
H646 C634 0.960 . S
H647 C634 0.962 . S
H648 C634 0.960 . S
H649 C635 0.961 . S
H650 C635 0.961 . S
H651 C635 0.961 . S
H652 C636 0.931 . S
H653 C641 0.930 . S
H654 C642 0.956 . S
H655 C642 0.961 . S
H656 C642 0.961 . S
H657 C643 0.958 1_554 S
H658 C643 0.961 1_554 S
H659 C643 0.960 1_554 S
C660 C661 1.391 . S
C660 C662 1.394 . S
C660 H676 0.931 . S
C661 C660 1.391 . S
C661 C665 1.376 . S
C662 C660 1.394 . S
C662 C663 1.369 . S
C662 C666 1.531 . S
C663 C662 1.369 . S
C663 C664 1.410 . S
C663 C671 1.503 . S
C664 C663 1.410 . S
C664 C665 1.392 . S
C664 C667 1.511 . S
C665 C661 1.376 . S
C665 C664 1.392 . S
C665 H677 0.929 . S
C666 C662 1.531 . S
C666 H678 0.960 . S
C666 H679 0.962 . S
C666 H680 0.960 . S
C667 C664 1.511 . S
C667 H681 0.961 . S
C667 H682 0.961 . S
C667 H683 0.961 . S
C668 C669 1.370 . S
C668 C670 1.363 . S
C668 H684 0.931 . S
C669 C668 1.370 . S
C669 C673 1.408 . S
C670 C668 1.363 . S
C670 C671 1.370 . S
C670 C674 1.524 . S
C671 C663 1.503 . S
C671 C670 1.370 . S
C671 C672 1.403 . S
C672 C671 1.403 . S
C672 C673 1.404 . S
C672 C675 1.539 1_556 S
C673 C669 1.408 . S
C673 C672 1.404 . S
C673 H685 0.930 . S
C674 C670 1.524 . S
C674 H686 0.956 . S
C674 H687 0.961 . S
C674 H688 0.961 . S
C675 C672 1.539 1_554 S
C675 H689 0.958 . S
C675 H690 0.961 . S
C675 H691 0.960 . S
H676 C660 0.931 . S
H677 C665 0.929 . S
H678 C666 0.960 . S
H679 C666 0.962 . S
H680 C666 0.960 . S
H681 C667 0.961 . S
H682 C667 0.961 . S
H683 C667 0.961 . S
H684 C668 0.931 . S
H685 C673 0.930 . S
H686 C674 0.956 . S
H687 C674 0.961 . S
H688 C674 0.961 . S
H689 C675 0.958 . S
H690 C675 0.961 . S
H691 C675 0.960 . S
C692 C693 1.391 . S
C692 C694 1.394 . S
C692 H708 0.931 . S
C693 C692 1.391 . S
C693 C697 1.376 . S
C694 C692 1.394 . S
C694 C695 1.369 . S
C694 C698 1.531 . S
C695 C694 1.369 . S
C695 C696 1.410 . S
C695 C703 1.503 . S
C696 C695 1.410 . S
C696 C697 1.392 . S
C696 C699 1.511 . S
C697 C693 1.376 . S
C697 C696 1.392 . S
C697 H709 0.929 . S
C698 C694 1.531 . S
C698 H710 0.960 . S
C698 H711 0.962 . S
C698 H712 0.960 . S
C699 C696 1.511 . S
C699 H713 0.961 . S
C699 H714 0.961 . S
C699 H715 0.961 . S
C700 C701 1.370 . S
C700 C702 1.363 . S
C700 H716 0.931 1_554 S
C701 C700 1.370 . S
C701 C705 1.408 . S
C702 C700 1.363 . S
C702 C703 1.370 . S
C702 C706 1.524 . S
C703 C695 1.503 . S
C703 C702 1.370 . S
C703 C704 1.403 . S
C704 C703 1.403 . S
C704 C705 1.404 . S
C704 C707 1.539 . S
C705 C701 1.408 . S
C705 C704 1.404 . S
C705 H717 0.930 . S
C706 C702 1.524 . S
C706 H718 0.956 . S
C706 H719 0.961 . S
C706 H720 0.961 1_554 S
C707 C704 1.539 . S
C707 H721 0.958 . S
C707 H722 0.961 . S
C707 H723 0.960 . S
H708 C692 0.931 . S
H709 C697 0.929 . S
H710 C698 0.960 . S
H711 C698 0.962 . S
H712 C698 0.960 . S
H713 C699 0.961 . S
H714 C699 0.961 . S
H715 C699 0.961 . S
H716 C700 0.931 1_556 S
H717 C705 0.930 . S
H718 C706 0.956 . S
H719 C706 0.961 . S
H720 C706 0.961 1_556 S
H721 C707 0.958 . S
H722 C707 0.961 . S
H723 C707 0.960 . S
C724 C725 1.391 . S
C724 C726 1.394 . S
C724 H740 0.931 . S
C725 C724 1.391 . S
C725 C729 1.376 . S
C726 C724 1.394 . S
C726 C727 1.369 . S
C726 C730 1.531 . S
C727 C726 1.369 . S
C727 C728 1.410 . S
C727 C735 1.503 . S
C728 C727 1.410 . S
C728 C729 1.392 . S
C728 C731 1.511 . S
C729 C725 1.376 . S
C729 C728 1.392 . S
C729 H741 0.929 . S
C730 C726 1.531 . S
C730 H742 0.960 . S
C730 H743 0.962 . S
C730 H744 0.960 . S
C731 C728 1.511 . S
C731 H745 0.961 . S
C731 H746 0.961 . S
C731 H747 0.961 . S
C732 C733 1.370 . S
C732 C734 1.363 . S
C732 H748 0.931 . S
C733 C732 1.370 . S
C733 C737 1.408 . S
C734 C732 1.363 . S
C734 C735 1.370 . S
C734 C738 1.524 . S
C735 C727 1.503 . S
C735 C734 1.370 . S
C735 C736 1.403 . S
C736 C735 1.403 . S
C736 C737 1.404 . S
C736 C739 1.539 . S
C737 C733 1.408 . S
C737 C736 1.404 . S
C737 H749 0.930 . S
C738 C734 1.524 . S
C738 H750 0.956 . S
C738 H751 0.961 . S
C738 H752 0.961 . S
C739 C736 1.539 . S
C739 H753 0.958 . S
C739 H754 0.961 . S
C739 H755 0.960 . S
H740 C724 0.931 . S
H741 C729 0.929 . S
H742 C730 0.960 . S
H743 C730 0.962 . S
H744 C730 0.960 . S
H745 C731 0.961 . S
H746 C731 0.961 . S
H747 C731 0.961 . S
H748 C732 0.931 . S
H749 C737 0.930 . S
H750 C738 0.956 . S
H751 C738 0.961 . S
H752 C738 0.961 . S
H753 C739 0.958 . S
H754 C739 0.961 . S
H755 C739 0.960 . S
C181 C16 0.972 . S
C189 C27 0.969 . S
C213 C57 0.965 . S
C221 C46 0.972 . S
C245 C87 0.973 . S
C253 C76 0.969 . S
C277 C106 0.967 . S
C285 C117 0.971 . S
C309 C147 0.964 . S
C317 C136 0.973 . S
C341 C177 0.970 . S
C349 C166 0.971 . S
C373 C1 1.919 . S
C381 C151 1.956 . S
C405 N6 1.636 . S
C413 N36 1.604 . S
C437 C61 1.970 . S
C445 C31 1.953 . S
C469 N96 1.577 . S
C477 N66 1.628 . S
C501 C121 1.960 . S
C509 C91 1.958 . S
C533 N126 1.643 . S
C541 N156 1.600 . S
C565 C10 1.865 . S
C573 N134 1.748 . S
C597 N44 1.708 . S
C605 C160 1.890 . S
C629 C70 1.894 . S
C637 N14 1.733 . S
C661 N104 1.715 1_556 S
C669 C40 1.880 . S
C693 C130 1.895 . S
C701 N74 1.729 . S
C725 C100 1.873 . S
C733 N164 1.726 . S
