# Generated by pormake.
# Topology uoc, (4)-cn, num edge types: 1
# Building blocks:
#     Node 0, Type 0, BuildingBlock: QUQFOY_clean_sbu_3, # of connection points: 4
#     Node 1, Type 0, BuildingBlock: QUQFOY_clean_sbu_3, # of connection points: 4
#     Node 2, Type 0, BuildingBlock: QUQFOY_clean_sbu_3, # of connection points: 4
#     Node 3, Type 0, BuildingBlock: QUQFOY_clean_sbu_3, # of connection points: 4
#     Node 4, Type 0, BuildingBlock: QUQFOY_clean_sbu_3, # of connection points: 4
#     Node 5, Type 0, BuildingBlock: QUQFOY_clean_sbu_3, # of connection points: 4
#     Node 6, Type 0, BuildingBlock: QUQFOY_clean_sbu_3, # of connection points: 4
#     Node 7, Type 0, BuildingBlock: QUQFOY_clean_sbu_3, # of connection points: 4
#     Edge 8, Type (0, 0), BuildingBlock: UVAHIK_clean_linker_0, # of connection points: 2
#     Edge 9, Type (0, 0), BuildingBlock: UVAHIK_clean_linker_0, # of connection points: 2
#     Edge 10, Type (0, 0), BuildingBlock: UVAHIK_clean_linker_0, # of connection points: 2
#     Edge 11, Type (0, 0), BuildingBlock: UVAHIK_clean_linker_0, # of connection points: 2
#     Edge 12, Type (0, 0), BuildingBlock: UVAHIK_clean_linker_0, # of connection points: 2
#     Edge 13, Type (0, 0), BuildingBlock: UVAHIK_clean_linker_0, # of connection points: 2
#     Edge 14, Type (0, 0), BuildingBlock: UVAHIK_clean_linker_0, # of connection points: 2
#     Edge 15, Type (0, 0), BuildingBlock: UVAHIK_clean_linker_0, # of connection points: 2
#     Edge 16, Type (0, 0), BuildingBlock: UVAHIK_clean_linker_0, # of connection points: 2
#     Edge 17, Type (0, 0), BuildingBlock: UVAHIK_clean_linker_0, # of connection points: 2
#     Edge 18, Type (0, 0), BuildingBlock: UVAHIK_clean_linker_0, # of connection points: 2
#     Edge 19, Type (0, 0), BuildingBlock: UVAHIK_clean_linker_0, # of connection points: 2
#     Edge 20, Type (0, 0), BuildingBlock: UVAHIK_clean_linker_0, # of connection points: 2
#     Edge 21, Type (0, 0), BuildingBlock: UVAHIK_clean_linker_0, # of connection points: 2
#     Edge 22, Type (0, 0), BuildingBlock: UVAHIK_clean_linker_0, # of connection points: 2
#     Edge 23, Type (0, 0), BuildingBlock: UVAHIK_clean_linker_0, # of connection points: 2
# Relax obj value: 0.101
# Max RMSD: 0.113
# Mean RMSD: 0.113
data_MOF--net-uoc--node1-QUQFOY_clean_sbu_3--edge1-UVAHIK_clean_linker_0
_symmetry_space_group_name_H-M    P1
_symmetry_Int_Tables_number       1
_symmetry_cell_setting            triclinic
loop_
_symmetry_equiv_pos_as_xyz
'x, y, z'
_cell_length_a     35.914659
_cell_length_b     35.86162
_cell_length_c     75.199747
_cell_angle_alpha  89.570823
_cell_angle_beta   90.498446
_cell_angle_gamma 96.219128
loop_
_atom_site_label
_atom_site_type_symbol
_atom_site_fract_x
_atom_site_fract_y
_atom_site_fract_z
_atom_type_partial_charge
C0 C 0.19463 0.24445 0.06245 0.0
O1 O 0.21186 0.22704 0.07413 0.0
Cd2 Cd 0.18584 0.21163 0.10274 0.0
O3 O 0.16328 0.25612 0.06603 0.0
Cd4 Cd 0.12041 0.25805 0.09165 0.0
C5 C 0.10118 0.16371 0.09071 0.0
O6 O 0.16687 0.26765 0.11557 0.0
O7 O 0.11 0.25008 0.12356 0.0
O8 O 0.11554 0.32393 0.08492 0.0
C9 C 0.14332 0.26178 0.12802 0.0
O10 O 0.13384 0.16294 0.09737 0.0
C11 C 0.08007 0.32103 0.08392 0.0
O12 O 0.08923 0.19479 0.08648 0.0
O13 O 0.063 0.28842 0.08618 0.0
C14 C 0.74512 0.69729 0.37857 0.0
O15 O 0.72676 0.71517 0.36753 0.0
Cd16 Cd 0.70774 0.68886 0.33927 0.0
O17 O 0.75532 0.66555 0.37448 0.0
Cd18 Cd 0.75268 0.62214 0.34895 0.0
C19 C 0.65884 0.60569 0.35269 0.0
O20 O 0.76067 0.66759 0.32447 0.0
O21 O 0.73989 0.61069 0.31751 0.0
O22 O 0.81881 0.61681 0.35413 0.0
C23 C 0.75232 0.64344 0.31243 0.0
O24 O 0.65847 0.63839 0.34601 0.0
C25 C 0.81585 0.5813 0.35515 0.0
O26 O 0.68975 0.5926 0.3561 0.0
O27 O 0.78305 0.56431 0.35357 0.0
C28 C 0.27462 0.22951 0.56232 0.0
O29 O 0.25865 0.24726 0.57405 0.0
Cd30 Cd 0.28815 0.26359 0.60198 0.0
O31 O 0.30635 0.21798 0.56553 0.0
Cd32 Cd 0.35223 0.2162 0.5903 0.0
C33 C 0.37191 0.31033 0.58797 0.0
O34 O 0.30863 0.20803 0.61511 0.0
O35 O 0.36654 0.22493 0.62189 0.0
O36 O 0.35461 0.15012 0.58387 0.0
C37 C 0.33362 0.21413 0.62707 0.0
O38 O 0.33998 0.31145 0.59507 0.0
C39 C 0.38992 0.15194 0.58237 0.0
O40 O 0.38332 0.27906 0.58391 0.0
O41 O 0.40814 0.1841 0.58427 0.0
C42 C 0.72412 0.78123 0.87829 0.0
O43 O 0.74309 0.76417 0.86746 0.0
Cd44 Cd 0.76053 0.79089 0.83902 0.0
O45 O 0.71258 0.8124 0.87393 0.0
Cd46 Cd 0.71312 0.85578 0.84818 0.0
C47 C 0.80691 0.87565 0.8517 0.0
O48 O 0.70628 0.81021 0.82398 0.0
O49 O 0.72444 0.8677 0.81669 0.0
O50 O 0.6467 0.85869 0.85309 0.0
C51 C 0.7134 0.83456 0.8118 0.0
O52 O 0.80833 0.84308 0.84527 0.0
C53 C 0.64846 0.89411 0.85418 0.0
O54 O 0.77551 0.88743 0.85508 0.0
O55 O 0.68075 0.91222 0.8527 0.0
C56 C 0.69657 0.74557 0.56159 0.0
O57 O 0.71394 0.72878 0.57344 0.0
Cd58 Cd 0.68695 0.71263 0.60178 0.0
O59 O 0.66464 0.75625 0.56488 0.0
Cd60 Cd 0.62055 0.75724 0.59009 0.0
C61 C 0.60371 0.66283 0.58886 0.0
O62 O 0.66599 0.76798 0.61437 0.0
O63 O 0.60914 0.74912 0.62193 0.0
O64 O 0.61489 0.82274 0.58296 0.0
C65 C 0.6421 0.76159 0.62663 0.0
O66 O 0.63626 0.66295 0.59574 0.0
C67 C 0.57941 0.81941 0.5819 0.0
O68 O 0.59091 0.69349 0.58462 0.0
O69 O 0.56268 0.7867 0.58432 0.0
C70 C 0.24315 0.19813 0.87859 0.0
O71 O 0.22533 0.21656 0.86756 0.0
Cd72 Cd 0.20833 0.19207 0.83872 0.0
O73 O 0.25379 0.16673 0.87424 0.0
Cd74 Cd 0.25278 0.12488 0.84818 0.0
C75 C 0.15863 0.10815 0.85039 0.0
O76 O 0.2626 0.17209 0.82453 0.0
O77 O 0.24266 0.11572 0.81637 0.0
O78 O 0.31848 0.11894 0.8543 0.0
C79 C 0.25542 0.14884 0.81201 0.0
O80 O 0.1586 0.14121 0.84409 0.0
C81 C 0.31534 0.08338 0.85477 0.0
O82 O 0.18936 0.09495 0.85407 0.0
O83 O 0.28263 0.06663 0.85246 0.0
C84 C 0.77475 0.73015 0.06189 0.0
O85 O 0.75742 0.74676 0.07356 0.0
Cd86 Cd 0.78432 0.76201 0.10212 0.0
O87 O 0.80653 0.7191 0.0655 0.0
Cd88 Cd 0.85042 0.71669 0.09108 0.0
C89 C 0.86843 0.81103 0.08998 0.0
O90 O 0.80472 0.70617 0.11496 0.0
O91 O 0.86177 0.72376 0.123 0.0
O92 O 0.85421 0.65119 0.084 0.0
C93 C 0.82858 0.71194 0.12744 0.0
O94 O 0.83579 0.81102 0.09649 0.0
C95 C 0.88965 0.65338 0.0833 0.0
O96 O 0.88099 0.78034 0.08588 0.0
O97 O 0.90736 0.68556 0.0859 0.0
C98 C 0.2232 0.27908 0.37963 0.0
O99 O 0.24266 0.26198 0.36903 0.0
Cd100 Cd 0.26174 0.28886 0.34084 0.0
O101 O 0.21209 0.31037 0.37514 0.0
Cd102 Cd 0.2142 0.35388 0.3494 0.0
C103 C 0.30781 0.37337 0.35404 0.0
O104 O 0.20828 0.30834 0.32519 0.0
O105 O 0.22702 0.36576 0.31801 0.0
O106 O 0.14767 0.35713 0.35377 0.0
C107 C 0.21603 0.33266 0.31306 0.0
O108 O 0.30946 0.34084 0.34761 0.0
C109 C 0.14955 0.39258 0.35476 0.0
O110 O 0.27627 0.38521 0.35706 0.0
O111 O 0.18193 0.41054 0.35345 0.0
C112 C 0.19123 0.26844 0.03114 0.0
C113 C 0.20986 0.24911 0.04424 0.0
C114 C 0.20333 0.26938 0.01353 0.0
C115 C 0.24994 0.21215 -0.01713 0.0
H116 H 0.24852 0.29736 0.95092 0.0
C117 C 0.27437 0.19538 0.90837 0.0
C118 C 0.24943 0.21177 0.89699 0.0
C119 C 0.27725 0.20524 0.92629 0.0
C120 C 0.24889 0.27327 0.95966 0.0
H121 H 0.25707 0.21736 0.04927 0.0
H122 H 0.27803 0.21896 0.0185 0.0
H123 H 0.23929 0.30546 -0.01723 0.0
H124 H 0.20917 0.25261 0.8953 0.0
H125 H 0.21326 0.26895 0.92664 0.0
H126 H 0.25772 0.17945 0.9599 0.0
C127 C 0.25386 0.23305 0.02186 0.0
C128 C 0.24371 0.27796 -0.02212 0.0
C129 C 0.24189 0.23225 0.03949 0.0
C130 C 0.22868 0.23948 0.90373 0.0
C131 C 0.23122 0.24903 0.9217 0.0
C132 C 0.25481 0.20738 0.96469 0.0
C133 C 0.2342 0.25089 0.00864 0.0
C134 C 0.24364 0.2473 -0.01038 0.0
C135 C 0.25488 0.23137 0.9333 0.0
C136 C 0.25375 0.23772 0.9528 0.0
H137 H 0.16657 0.28188 0.03436 0.0
H138 H 0.18744 0.28309 0.00359 0.0
H139 H 0.24941 0.18785 -0.00846 0.0
H140 H 0.29114 0.17429 0.90352 0.0
H141 H 0.2964 0.19172 0.93475 0.0
C142 C 0.73695 0.63001 0.28054 0.0
C143 C 0.75626 0.65296 0.29339 0.0
C144 C 0.74167 0.63812 0.26247 0.0
C145 C 0.78042 0.71308 0.23089 0.0
H146 H 0.78127 0.62907 0.19876 0.0
C147 C 0.84116 0.72361 0.15975 0.0
C148 C 0.81785 0.70696 0.14626 0.0
C149 C 0.83121 0.71859 0.17759 0.0
C150 C 0.78077 0.65275 0.20758 0.0
H151 H 0.79551 0.70246 0.29751 0.0
H152 H 0.80516 0.71577 0.26598 0.0
H153 H 0.76891 0.61733 0.2302 0.0
H154 H 0.76595 0.67202 0.14076 0.0
H155 H 0.7491 0.66241 0.17207 0.0
H156 H 0.79407 0.74828 0.20818 0.0
C157 C 0.78541 0.69215 0.26976 0.0
C158 C 0.77348 0.64612 0.2256 0.0
C159 C 0.78011 0.68441 0.28786 0.0
C160 C 0.7844 0.68522 0.15091 0.0
C161 C 0.77481 0.67962 0.16877 0.0
C162 C 0.78838 0.71964 0.21292 0.0
C163 C 0.76643 0.66895 0.25681 0.0
C164 C 0.77324 0.67619 0.23752 0.0
C165 C 0.79814 0.69628 0.18224 0.0
C166 C 0.78864 0.68952 0.20114 0.0
H167 H 0.71805 0.60578 0.28445 0.0
H168 H 0.72586 0.62011 0.25295 0.0
H169 H 0.77977 0.73697 0.23956 0.0
H170 H 0.86704 0.74062 0.15654 0.0
H171 H 0.84975 0.73148 0.18778 0.0
C172 C 0.27484 0.20464 0.53128 0.0
C173 C 0.25746 0.22424 0.54442 0.0
C174 C 0.26106 0.20329 0.51385 0.0
C175 C 0.21194 0.26036 0.48337 0.0
H176 H 0.21383 0.17593 0.4516 0.0
C177 C 0.18956 0.27951 0.40861 0.0
C178 C 0.21555 0.2641 0.39775 0.0
C179 C 0.18556 0.26861 0.42641 0.0
C180 C 0.21323 0.19978 0.4603 0.0
H181 H 0.21059 0.25587 0.54977 0.0
H182 H 0.18666 0.25354 0.51931 0.0
H183 H 0.22349 0.16725 0.48352 0.0
H184 H 0.25628 0.22372 0.3968 0.0
H185 H 0.25019 0.20556 0.42795 0.0
H186 H 0.20363 0.29343 0.46029 0.0
C187 C 0.21117 0.23957 0.5225 0.0
C188 C 0.21866 0.19476 0.47856 0.0
C189 C 0.22486 0.2408 0.53995 0.0
C190 C 0.23604 0.23616 0.40482 0.0
C191 C 0.23234 0.22555 0.42269 0.0
C192 C 0.20677 0.26544 0.46515 0.0
C193 C 0.22968 0.2216 0.50918 0.0
C194 C 0.21886 0.22522 0.49023 0.0
C195 C 0.20778 0.24239 0.43382 0.0
C196 C 0.20817 0.23543 0.45333 0.0
H197 H 0.29987 0.19138 0.53429 0.0
H198 H 0.27613 0.18951 0.50385 0.0
H199 H 0.2125 0.28452 0.49197 0.0
H200 H 0.17295 0.30073 0.40348 0.0
H201 H 0.16578 0.28153 0.4345 0.0
C202 C 0.6873 0.79245 0.78735 0.0
C203 C 0.7099 0.82477 0.79281 0.0
C204 C 0.68251 0.78432 0.76928 0.0
C205 C 0.69336 0.82998 0.72473 0.0
H206 H 0.67696 0.72729 0.7082 0.0
C207 C 0.68532 0.78962 0.65036 0.0
C208 C 0.65251 0.76689 0.64553 0.0
C209 C 0.69447 0.79568 0.66828 0.0
C210 C 0.68149 0.75607 0.71269 0.0
H211 H 0.74642 0.87316 0.7838 0.0
H212 H 0.73955 0.8582 0.75237 0.0
H213 H 0.6903 0.73955 0.73963 0.0
H214 H 0.60407 0.73192 0.65555 0.0
H215 H 0.62064 0.74186 0.68691 0.0
H216 H 0.68542 0.84626 0.69761 0.0
C217 C 0.72429 0.83977 0.7619 0.0
C218 C 0.68888 0.76317 0.73069 0.0
C219 C 0.72848 0.84825 0.77994 0.0
C220 C 0.62946 0.74968 0.65891 0.0
C221 C 0.639 0.75517 0.67681 0.0
C222 C 0.68666 0.82284 0.70671 0.0
C223 C 0.70078 0.808 0.75629 0.0
C224 C 0.69454 0.80025 0.737 0.0
C225 C 0.67137 0.77851 0.68163 0.0
C226 C 0.6803 0.78586 0.70058 0.0
H227 H 0.67249 0.77398 0.79702 0.0
H228 H 0.6637 0.75996 0.76552 0.0
H229 H 0.69675 0.85888 0.72907 0.0
H230 H 0.70355 0.80327 0.64031 0.0
H231 H 0.71965 0.81369 0.67172 0.0
C232 C 0.23224 0.34625 0.2813 0.0
C233 C 0.2131 0.32289 0.29406 0.0
C234 C 0.22846 0.33785 0.26324 0.0
C235 C 0.19276 0.26173 0.2318 0.0
H236 H 0.19017 0.34518 0.19885 0.0
C237 C 0.13162 0.24973 0.16035 0.0
C238 C 0.15448 0.26669 0.14684 0.0
C239 C 0.14183 0.25488 0.1782 0.0
C240 C 0.19119 0.32166 0.20791 0.0
H241 H 0.17519 0.27235 0.29803 0.0
H242 H 0.16712 0.2585 0.2665 0.0
H243 H 0.20181 0.35747 0.23032 0.0
H244 H 0.20591 0.30223 0.14133 0.0
H245 H 0.22318 0.31211 0.17266 0.0
H246 H 0.18021 0.2261 0.20926 0.0
C247 C 0.18605 0.28269 0.27036 0.0
C248 C 0.19807 0.32861 0.22594 0.0
C249 C 0.19043 0.29073 0.28846 0.0
C250 C 0.1878 0.28879 0.15149 0.0
C251 C 0.19764 0.29453 0.16935 0.0
C252 C 0.18518 0.25483 0.21379 0.0
C253 C 0.20483 0.30629 0.25748 0.0
C254 C 0.19883 0.29874 0.23816 0.0
C255 C 0.1747 0.27763 0.18284 0.0
C256 C 0.18425 0.28475 0.20173 0.0
H257 H 0.25026 0.37103 0.28528 0.0
H258 H 0.2441 0.3562 0.2538 0.0
H259 H 0.19387 0.238 0.24069 0.0
H260 H 0.10585 0.23244 0.15714 0.0
H261 H 0.12359 0.2418 0.1884 0.0
C262 C 0.74496 0.73441 0.53901 0.0
C263 C 0.71238 0.75059 0.54351 0.0
C264 C 0.75749 0.73544 0.52147 0.0
C265 C 0.74761 0.77977 0.47732 0.0
H266 H 0.76295 0.68136 0.45964 0.0
C267 C 0.73173 0.73974 0.40344 0.0
C268 C 0.75233 0.71187 0.39675 0.0
C269 C 0.73487 0.7499 0.42133 0.0
C270 C 0.75971 0.70928 0.46434 0.0
H271 H 0.66871 0.78248 0.5333 0.0
H272 H 0.69056 0.78409 0.50268 0.0
H273 H 0.75444 0.69002 0.49124 0.0
H274 H 0.79452 0.67488 0.4032 0.0
H275 H 0.80086 0.69341 0.43427 0.0
H276 H 0.75223 0.79887 0.4503 0.0
C277 C 0.70645 0.77073 0.51274 0.0
C278 C 0.75472 0.7142 0.4825 0.0
C279 C 0.69377 0.76955 0.53026 0.0
C280 C 0.77785 0.69606 0.40803 0.0
C281 C 0.78134 0.70656 0.42586 0.0
C282 C 0.75293 0.77493 0.45911 0.0
C283 C 0.73786 0.75285 0.50809 0.0
C284 C 0.74782 0.74927 0.48914 0.0
C285 C 0.75901 0.73272 0.43287 0.0
C286 C 0.7582 0.7394 0.45235 0.0
H287 H 0.76013 0.71981 0.5489 0.0
H288 H 0.78205 0.7218 0.51828 0.0
H289 H 0.74275 0.80721 0.48212 0.0
H290 H 0.71179 0.75243 0.39508 0.0
H291 H 0.71692 0.76984 0.42626 0.0
C292 C 0.29131 0.18988 0.6517 0.0
C293 C 0.32442 0.21091 0.64612 0.0
C294 C 0.28302 0.18609 0.66978 0.0
C295 C 0.32798 0.19689 0.71449 0.0
H296 H 0.22483 0.18675 0.73028 0.0
C297 C 0.28524 0.19182 0.78862 0.0
C298 C 0.26112 0.15978 0.79321 0.0
C299 C 0.29215 0.20093 0.77076 0.0
C300 C 0.25374 0.18958 0.726 0.0
H301 H 0.37435 0.24537 0.65496 0.0
H302 H 0.35923 0.24019 0.68643 0.0
H303 H 0.23859 0.19826 0.69887 0.0
H304 H 0.22443 0.11281 0.78283 0.0
H305 H 0.23583 0.12935 0.75161 0.0
H306 H 0.3429 0.189 0.74181 0.0
C307 C 0.34018 0.22547 0.67697 0.0
C308 C 0.26169 0.19589 0.70801 0.0
C309 C 0.34878 0.22866 0.65891 0.0
C310 C 0.24325 0.1376 0.77966 0.0
C311 C 0.24959 0.14712 0.76183 0.0
C312 C 0.32003 0.19127 0.73251 0.0
C313 C 0.30735 0.20383 0.68267 0.0
C314 C 0.29891 0.19911 0.70197 0.0
C315 C 0.27444 0.17858 0.75724 0.0
C316 C 0.28284 0.1871 0.73837 0.0
H317 H 0.27214 0.1757 0.64211 0.0
H318 H 0.25787 0.16859 0.67361 0.0
H319 H 0.35692 0.19849 0.71036 0.0
H320 H 0.29944 0.20935 0.79881 0.0
H321 H 0.31135 0.22539 0.76749 0.0
C322 C 0.72628 0.7416 0.03891 0.0
C323 C 0.759 0.72556 0.04368 0.0
C324 C 0.71366 0.74079 0.02128 0.0
C325 C 0.72389 0.69729 -0.02268 0.0
H326 H 0.70677 0.79555 0.95923 0.0
C327 C 0.73889 0.73898 0.90344 0.0
C328 C 0.71751 0.76635 0.89651 0.0
C329 C 0.73608 0.72848 0.92134 0.0
C330 C 0.71054 0.76766 0.96404 0.0
H331 H 0.80289 0.69419 0.03386 0.0
H332 H 0.78094 0.69303 0.0031 0.0
H333 H 0.71562 0.78651 -0.00908 0.0
H334 H 0.67432 0.80208 0.90256 0.0
H335 H 0.66864 0.78301 0.93365 0.0
H336 H 0.71952 0.67864 0.95033 0.0
C337 C 0.76498 0.70608 0.01301 0.0
C338 C 0.7157 0.76252 -0.01774 0.0
C339 C 0.77771 0.70701 0.03062 0.0
C340 C 0.6916 0.78131 0.90757 0.0
C341 C 0.68847 0.7705 0.92541 0.0
C342 C 0.71844 0.70236 0.95906 0.0
C343 C 0.73337 0.72377 0.00808 0.0
C344 C 0.72323 0.72752 -0.01095 0.0
C345 C 0.71151 0.74483 0.93266 0.0
C346 C 0.71253 0.73784 0.95217 0.0
H347 H 0.71101 0.75586 0.04866 0.0
H348 H 0.68894 0.75427 0.01789 0.0
H349 H 0.72923 0.66988 -0.01776 0.0
H350 H 0.75912 0.72692 0.89525 0.0
H351 H 0.75455 0.70893 0.92647 0.0
C352 C 0.09213 0.09353 0.08927 0.0
C353 C 0.07686 0.12799 0.08823 0.0
C354 C 0.06917 0.05969 0.08763 0.0
C355 C 0.97314 0.01842 0.09471 0.0
H356 H 0.00083 0.93698 0.0657 0.0
C357 C 0.87554 0.88109 0.08784 0.0
C358 C 0.89193 0.84725 0.08754 0.0
C359 C 0.8976 0.91549 0.08641 0.0
C360 C -0.00712 0.95923 0.07404 0.0
H361 H 0.02549 0.15387 0.08443 0.0
H362 H -0.01473 0.09459 0.08181 0.0
H363 H 0.04034 -0.00316 0.06597 0.0
H364 H 0.94441 0.82302 0.08528 0.0
H365 H 0.98315 0.8831 0.08334 0.0
H366 H 0.9265 0.98083 0.1033 0.0
C367 C 0.01508 0.09392 0.08387 0.0
C368 C 0.01545 -0.00642 0.07412 0.0
C369 C 0.03813 0.12783 0.08529 0.0
C370 C 0.9309 0.84859 0.08548 0.0
C371 C 0.95309 0.8831 0.08427 0.0
C372 C 0.95082 0.98401 0.0948 0.0
C373 C 0.03036 0.05951 0.08512 0.0
C374 C 0.00582 0.02349 0.08447 0.0
C375 C 0.93675 0.91704 0.08489 0.0
C376 C 0.96037 0.9539 0.08448 0.0
H377 H 0.12187 0.09264 0.09146 0.0
H378 H 0.08166 0.0336 0.08879 0.0
H379 H 0.96534 0.04079 0.10304 0.0
H380 H 0.84553 0.88105 0.0892 0.0
H381 H 0.88385 0.94091 0.0865 0.0
C382 C 0.08009 0.39059 0.35785 0.0
C383 C 0.11535 0.41172 0.35686 0.0
C384 C 0.04749 0.40834 0.35908 0.0
C385 C 0.01213 0.49798 0.37068 0.0
H386 H 0.92731 0.46051 0.3412 0.0
C387 C 0.88516 0.581 0.35854 0.0
C388 C 0.84934 0.56098 0.35745 0.0
C389 C 0.91711 0.5621 0.35978 0.0
C390 C 0.95049 0.471 0.34973 0.0
H391 H 0.14408 0.4681 0.35668 0.0
H392 H 0.08699 0.4992 0.35873 0.0
H393 H 0.98417 0.42919 0.34087 0.0
H394 H 0.81892 0.50537 0.35721 0.0
H395 H 0.87476 0.47228 0.35958 0.0
H396 H 0.97848 0.53994 0.37946 0.0
C397 C 0.08465 0.46884 0.35871 0.0
C398 C 0.98314 0.45307 0.34952 0.0
C399 C 0.11733 0.45104 0.35744 0.0
C400 C 0.84612 0.52159 0.35797 0.0
C401 C 0.87814 0.50265 0.35922 0.0
C402 C 0.97943 0.51589 0.37092 0.0
C403 C 0.04932 0.44767 0.35937 0.0
C404 C 0.01441 0.46644 0.35993 0.0
C405 C 0.91405 0.5227 0.35998 0.0
C406 C 0.94828 0.50273 0.36037 0.0
H407 H 0.07757 0.36023 0.35752 0.0
H408 H 0.02078 0.39121 0.35984 0.0
H409 H 0.03554 0.50865 0.37905 0.0
H410 H 0.88864 0.61138 0.35814 0.0
H411 H 0.9443 0.57844 0.3601 0.0
C412 C 0.43482 0.34578 0.58202 0.0
C413 C 0.39622 0.34585 0.58495 0.0
C414 C 0.45802 0.37958 0.58045 0.0
C415 C 0.45823 0.48031 0.57061 0.0
H416 H 0.54675 0.4919 0.60076 0.0
C417 C 0.54165 0.62498 0.58351 0.0
C418 C 0.58058 0.62654 0.58609 0.0
C419 C 0.51978 0.5904 0.58187 0.0
C420 C 0.52257 0.48906 0.59198 0.0
H421 H 0.35152 0.38147 0.58785 0.0
H422 H 0.39195 0.44032 0.58489 0.0
H423 H 0.508 0.43192 0.59993 0.0
H424 H 0.62727 0.59309 0.58824 0.0
H425 H 0.5895 0.5331 0.58479 0.0
H426 H 0.47286 0.53729 0.56249 0.0
C427 C 0.40426 0.41414 0.58388 0.0
C428 C 0.50031 0.45463 0.59156 0.0
C429 C 0.38117 0.38042 0.58569 0.0
C430 C 0.59728 0.59286 0.58648 0.0
C431 C 0.57553 0.55839 0.58461 0.0
C432 C 0.48075 0.51468 0.57085 0.0
C433 C 0.44299 0.4141 0.58151 0.0
C434 C 0.46774 0.44999 0.58101 0.0
C435 C 0.53641 0.5566 0.58255 0.0
C436 C 0.51307 0.51963 0.58167 0.0
H437 H 0.44729 0.31964 0.58139 0.0
H438 H 0.48776 0.37876 0.5785 0.0
H439 H 0.43341 0.47739 0.56223 0.0
H440 H 0.52792 0.65042 0.58322 0.0
H441 H 0.48972 0.59022 0.58055 0.0
C442 C 0.61614 0.95237 0.85745 0.0
C443 C 0.61423 0.91308 0.85653 0.0
C444 C 0.58341 0.97004 0.85888 0.0
C445 C 0.48215 0.95459 0.84933 0.0
H446 H 0.47684 0.04014 0.88005 0.0
C447 C 0.34517 0.02336 0.85733 0.0
C448 C 0.34859 0.06276 0.85724 0.0
C449 C 0.37702 0.00419 0.8587 0.0
C450 C 0.47796 0.01646 0.87129 0.0
H451 H 0.57654 0.86151 0.85679 0.0
H452 H 0.51966 0.8923 0.85936 0.0
H453 H 0.53386 0.00879 0.87961 0.0
H454 H 0.38806 0.11293 0.85886 0.0
H455 H 0.44344 0.07961 0.861 0.0
H456 H 0.42659 0.96251 0.84077 0.0
C457 C 0.54635 0.90949 0.85876 0.0
C458 C 0.51065 -0.00148 0.87104 0.0
C459 C 0.579 0.89185 0.85738 0.0
C460 C 0.38443 0.08255 0.85891 0.0
C461 C 0.41621 0.06342 0.86026 0.0
C462 C 0.44953 0.97257 0.84953 0.0
C463 C 0.54811 0.94879 0.85936 0.0
C464 C 0.51316 0.96747 0.86 0.0
C465 C 0.41297 0.02401 0.86 0.0
C466 C 0.44709 0.00386 0.86045 0.0
H467 H 0.64285 0.9695 0.85681 0.0
H468 H 0.58569 0.0004 0.85916 0.0
H469 H 0.48337 0.93109 0.84046 0.0
H470 H 0.31794 0.00731 0.85613 0.0
H471 H 0.37347 0.97381 0.85871 0.0
C472 C 0.8882 0.58435 0.07839 0.0
C473 C 0.90907 0.61957 0.0804 0.0
C474 C 0.90618 0.5519 0.07686 0.0
C475 C -0.00329 0.51714 0.06659 0.0
H476 H 0.95764 0.43151 0.09518 0.0
C477 C 0.07967 0.39033 0.07989 0.0
C478 C 0.0598 0.3544 0.08097 0.0
C479 C 0.06068 0.42219 0.07821 0.0
C480 C 0.9686 0.45489 0.08688 0.0
H481 H 0.96524 0.64847 0.08191 0.0
H482 H -0.00329 0.59165 0.07928 0.0
H483 H 0.92593 0.48813 0.09509 0.0
H484 H 0.0044 0.32367 0.08061 0.0
H485 H 0.97119 0.37926 0.07738 0.0
H486 H 0.03952 0.4839 0.05844 0.0
C487 C 0.9664 0.58922 0.07878 0.0
C488 C 0.95043 0.48742 0.08685 0.0
C489 C 0.94838 0.62175 0.08037 0.0
C490 C 0.02051 0.35096 0.0799 0.0
C491 C 0.00148 0.38286 0.07816 0.0
C492 C 0.01484 0.48452 0.06656 0.0
C493 C 0.94546 0.55387 0.07727 0.0
C494 C 0.96437 0.519 0.07679 0.0
C495 C 0.02133 0.41892 0.07751 0.0
C496 C 0.00114 0.45305 0.0768 0.0
H497 H 0.85787 0.58168 0.07827 0.0
H498 H 0.88925 0.52518 0.07543 0.0
H499 H 0.00786 0.54084 0.05852 0.0
H500 H 0.10998 0.39397 0.08072 0.0
H501 H 0.07687 0.44947 0.07798 0.0
C502 C 0.34271 0.43657 0.36017 0.0
C503 C 0.34305 0.39787 0.35743 0.0
C504 C 0.37632 0.45993 0.36203 0.0
C505 C 0.47699 0.4605 0.37243 0.0
H506 H 0.48834 0.54915 0.34233 0.0
C507 C 0.62124 0.54368 0.35863 0.0
C508 C 0.62278 0.58267 0.35609 0.0
C509 C 0.58675 0.52189 0.36064 0.0
C510 C 0.48555 0.52494 0.3511 0.0
H511 H 0.37894 0.35319 0.35519 0.0
H512 H 0.43741 0.39391 0.35857 0.0
H513 H 0.42853 0.51026 0.34311 0.0
H514 H 0.58946 0.62958 0.35451 0.0
H515 H 0.52967 0.59192 0.35856 0.0
H516 H 0.53398 0.47517 0.38048 0.0
C517 C 0.41119 0.40617 0.35925 0.0
C518 C 0.45121 0.5026 0.3515 0.0
C519 C 0.37766 0.3829 0.3572 0.0
C520 C 0.58924 0.59954 0.35621 0.0
C521 C 0.55487 0.57787 0.35843 0.0
C522 C 0.5113 0.48307 0.37217 0.0
C523 C 0.41091 0.445 0.3614 0.0
C524 C 0.44666 0.46995 0.36202 0.0
C525 C 0.55307 0.53868 0.36036 0.0
C526 C 0.51614 0.51541 0.36136 0.0
H527 H 0.31654 0.44899 0.36043 0.0
H528 H 0.37528 0.48974 0.36382 0.0
H529 H 0.47415 0.43565 0.3808 0.0
H530 H 0.64658 0.52982 0.35855 0.0
H531 H 0.58649 0.49177 0.36188 0.0
C532 C 0.38741 0.08266 0.57789 0.0
C533 C 0.40871 0.11781 0.57928 0.0
C534 C 0.40494 0.04999 0.57612 0.0
C535 C 0.49422 0.01436 0.56413 0.0
H536 H 0.45736 0.92964 0.5938 0.0
C537 C 0.5784 0.88844 0.5772 0.0
C538 C 0.55878 0.85248 0.5788 0.0
C539 C 0.55913 0.9201 0.57546 0.0
C540 C 0.46766 0.95276 0.5852 0.0
H541 H 0.46512 0.14632 0.57943 0.0
H542 H 0.49581 0.08914 0.5764 0.0
H543 H 0.42578 0.98634 0.59401 0.0
H544 H 0.50353 0.82144 0.57928 0.0
H545 H 0.46982 0.87673 0.576 0.0
H546 H 0.53631 0.98081 0.55543 0.0
C547 C 0.4655 0.08692 0.57657 0.0
C548 C 0.44957 0.98533 0.58534 0.0
C549 C 0.44793 0.11966 0.57839 0.0
C550 C 0.51945 0.84878 0.57816 0.0
C551 C 0.50015 0.88049 0.57638 0.0
C552 C 0.51228 0.9817 0.56395 0.0
C553 C 0.44419 0.05166 0.57566 0.0
C554 C 0.46278 0.01662 0.57491 0.0
C555 C 0.51976 0.91659 0.57524 0.0
C556 C 0.49939 0.9506 0.57459 0.0
H557 H 0.35712 0.08025 0.57844 0.0
H558 H 0.38771 0.02335 0.57517 0.0
H559 H 0.50477 0.0378 0.55576 0.0
H560 H 0.60872 0.89228 0.57767 0.0
H561 H 0.57516 0.94745 0.57484 0.0
C562 C 0.8421 0.93898 0.85725 0.0
C563 C 0.84228 0.9002 0.85472 0.0
C564 C 0.8758 0.96231 0.85882 0.0
C565 C 0.97645 0.96277 0.86904 0.0
H566 H -0.012 0.05087 0.83858 0.0
C567 C 0.12086 0.04594 0.85567 0.0
C568 C 0.12241 0.08495 0.85318 0.0
C569 C 0.08634 0.02406 0.85738 0.0
C570 C -0.01484 0.0268 0.84744 0.0
H571 H 0.87799 0.85536 0.85251 0.0
H572 H 0.93661 0.89602 0.85541 0.0
H573 H 0.92811 0.01208 0.83949 0.0
H574 H 0.08899 0.13175 0.85124 0.0
H575 H 0.02914 0.09393 0.85475 0.0
H576 H 0.03341 0.97751 0.87709 0.0
C577 C 0.91045 0.90837 0.85615 0.0
C578 C 0.95078 0.00453 0.84791 0.0
C579 C 0.87684 0.88513 0.85437 0.0
C580 C 0.08879 0.1017 0.85293 0.0
C581 C 0.05438 0.07994 0.85484 0.0
C582 C 0.01079 0.98528 0.86872 0.0
C583 C 0.91032 0.94726 0.85812 0.0
C584 C 0.94615 0.9721 0.85858 0.0
C585 C 0.05261 0.04076 0.85683 0.0
C586 C 0.0157 0.01743 0.85778 0.0
H587 H 0.81597 0.95146 0.85759 0.0
H588 H 0.87489 -0.00783 0.86048 0.0
H589 H 0.97355 0.9381 0.87752 0.0
H590 H 0.14625 0.03216 0.85586 0.0
H591 H 0.08612 -0.00605 0.85866 0.0
loop_
_geom_bond_atom_site_label_1
_geom_bond_atom_site_label_2
_geom_bond_distance
_geom_bond_site_symmetry_2
_ccdc_geom_bond_type
C0 O1 1.306 . S
C0 O3 1.160 . S
O1 C0 1.306 . S
O1 Cd2 2.228 . S
Cd2 O1 2.228 . S
Cd2 O6 2.273 . S
Cd2 O10 2.277 . S
O3 C0 1.160 . S
O3 Cd4 2.203 . S
Cd4 O3 2.203 . S
Cd4 O6 2.411 . S
Cd4 O7 2.333 . S
Cd4 O8 2.352 . S
Cd4 O12 2.277 . S
Cd4 O13 2.356 . S
C5 O10 1.209 . S
C5 O12 1.226 . S
O6 Cd2 2.273 . S
O6 Cd4 2.411 . S
O6 C9 1.320 . S
O7 Cd4 2.333 . S
O7 C9 1.214 . S
O8 Cd4 2.352 . S
O8 C11 1.258 . S
C9 O6 1.320 . S
C9 O7 1.214 . S
O10 Cd2 2.277 . S
O10 C5 1.209 . S
C11 O8 1.258 . S
C11 O13 1.282 . S
O12 Cd4 2.277 . S
O12 C5 1.226 . S
O13 Cd4 2.356 . S
O13 C11 1.282 . S
C14 O15 1.306 . S
C14 O17 1.160 . S
O15 C14 1.306 . S
O15 Cd16 2.228 . S
Cd16 O15 2.228 . S
Cd16 O20 2.273 . S
Cd16 O24 2.277 . S
O17 C14 1.160 . S
O17 Cd18 2.203 . S
Cd18 O17 2.203 . S
Cd18 O20 2.411 . S
Cd18 O21 2.333 . S
Cd18 O22 2.352 . S
Cd18 O26 2.277 . S
Cd18 O27 2.356 . S
C19 O24 1.209 . S
C19 O26 1.226 . S
O20 Cd16 2.273 . S
O20 Cd18 2.411 . S
O20 C23 1.320 . S
O21 Cd18 2.333 . S
O21 C23 1.214 . S
O22 Cd18 2.352 . S
O22 C25 1.258 . S
C23 O20 1.320 . S
C23 O21 1.214 . S
O24 Cd16 2.277 . S
O24 C19 1.209 . S
C25 O22 1.258 . S
C25 O27 1.282 . S
O26 Cd18 2.277 . S
O26 C19 1.226 . S
O27 Cd18 2.356 . S
O27 C25 1.282 . S
C28 O29 1.306 . S
C28 O31 1.160 . S
O29 C28 1.306 . S
O29 Cd30 2.228 . S
Cd30 O29 2.228 . S
Cd30 O34 2.273 . S
Cd30 O38 2.277 . S
O31 C28 1.160 . S
O31 Cd32 2.203 . S
Cd32 O31 2.203 . S
Cd32 O34 2.411 . S
Cd32 O35 2.333 . S
Cd32 O36 2.352 . S
Cd32 O40 2.277 . S
Cd32 O41 2.356 . S
C33 O38 1.209 . S
C33 O40 1.226 . S
O34 Cd30 2.273 . S
O34 Cd32 2.411 . S
O34 C37 1.320 . S
O35 Cd32 2.333 . S
O35 C37 1.214 . S
O36 Cd32 2.352 . S
O36 C39 1.258 . S
C37 O34 1.320 . S
C37 O35 1.214 . S
O38 Cd30 2.277 . S
O38 C33 1.209 . S
C39 O36 1.258 . S
C39 O41 1.282 . S
O40 Cd32 2.277 . S
O40 C33 1.226 . S
O41 Cd32 2.356 . S
O41 C39 1.282 . S
C42 O43 1.306 . S
C42 O45 1.160 . S
O43 C42 1.306 . S
O43 Cd44 2.228 . S
Cd44 O43 2.228 . S
Cd44 O48 2.273 . S
Cd44 O52 2.277 . S
O45 C42 1.160 . S
O45 Cd46 2.203 . S
Cd46 O45 2.203 . S
Cd46 O48 2.411 . S
Cd46 O49 2.333 . S
Cd46 O50 2.352 . S
Cd46 O54 2.277 . S
Cd46 O55 2.356 . S
C47 O52 1.209 . S
C47 O54 1.226 . S
O48 Cd44 2.273 . S
O48 Cd46 2.411 . S
O48 C51 1.320 . S
O49 Cd46 2.333 . S
O49 C51 1.214 . S
O50 Cd46 2.352 . S
O50 C53 1.258 . S
C51 O48 1.320 . S
C51 O49 1.214 . S
O52 Cd44 2.277 . S
O52 C47 1.209 . S
C53 O50 1.258 . S
C53 O55 1.282 . S
O54 Cd46 2.277 . S
O54 C47 1.226 . S
O55 Cd46 2.356 . S
O55 C53 1.282 . S
C56 O57 1.306 . S
C56 O59 1.160 . S
O57 C56 1.306 . S
O57 Cd58 2.228 . S
Cd58 O57 2.228 . S
Cd58 O62 2.273 . S
Cd58 O66 2.277 . S
O59 C56 1.160 . S
O59 Cd60 2.203 . S
Cd60 O59 2.203 . S
Cd60 O62 2.411 . S
Cd60 O63 2.333 . S
Cd60 O64 2.352 . S
Cd60 O68 2.277 . S
Cd60 O69 2.356 . S
C61 O66 1.209 . S
C61 O68 1.226 . S
O62 Cd58 2.273 . S
O62 Cd60 2.411 . S
O62 C65 1.320 . S
O63 Cd60 2.333 . S
O63 C65 1.214 . S
O64 Cd60 2.352 . S
O64 C67 1.258 . S
C65 O62 1.320 . S
C65 O63 1.214 . S
O66 Cd58 2.277 . S
O66 C61 1.209 . S
C67 O64 1.258 . S
C67 O69 1.282 . S
O68 Cd60 2.277 . S
O68 C61 1.226 . S
O69 Cd60 2.356 . S
O69 C67 1.282 . S
C70 O71 1.306 . S
C70 O73 1.160 . S
O71 C70 1.306 . S
O71 Cd72 2.228 . S
Cd72 O71 2.228 . S
Cd72 O76 2.273 . S
Cd72 O80 2.277 . S
O73 C70 1.160 . S
O73 Cd74 2.203 . S
Cd74 O73 2.203 . S
Cd74 O76 2.411 . S
Cd74 O77 2.333 . S
Cd74 O78 2.352 . S
Cd74 O82 2.277 . S
Cd74 O83 2.356 . S
C75 O80 1.209 . S
C75 O82 1.226 . S
O76 Cd72 2.273 . S
O76 Cd74 2.411 . S
O76 C79 1.320 . S
O77 Cd74 2.333 . S
O77 C79 1.214 . S
O78 Cd74 2.352 . S
O78 C81 1.258 . S
C79 O76 1.320 . S
C79 O77 1.214 . S
O80 Cd72 2.277 . S
O80 C75 1.209 . S
C81 O78 1.258 . S
C81 O83 1.282 . S
O82 Cd74 2.277 . S
O82 C75 1.226 . S
O83 Cd74 2.356 . S
O83 C81 1.282 . S
C84 O85 1.306 . S
C84 O87 1.160 . S
O85 C84 1.306 . S
O85 Cd86 2.228 . S
Cd86 O85 2.228 . S
Cd86 O90 2.273 . S
Cd86 O94 2.277 . S
O87 C84 1.160 . S
O87 Cd88 2.203 . S
Cd88 O87 2.203 . S
Cd88 O90 2.411 . S
Cd88 O91 2.333 . S
Cd88 O92 2.352 . S
Cd88 O96 2.277 . S
Cd88 O97 2.356 . S
C89 O94 1.209 . S
C89 O96 1.226 . S
O90 Cd86 2.273 . S
O90 Cd88 2.411 . S
O90 C93 1.320 . S
O91 Cd88 2.333 . S
O91 C93 1.214 . S
O92 Cd88 2.352 . S
O92 C95 1.258 . S
C93 O90 1.320 . S
C93 O91 1.214 . S
O94 Cd86 2.277 . S
O94 C89 1.209 . S
C95 O92 1.258 . S
C95 O97 1.282 . S
O96 Cd88 2.277 . S
O96 C89 1.226 . S
O97 Cd88 2.356 . S
O97 C95 1.282 . S
C98 O99 1.306 . S
C98 O101 1.160 . S
O99 C98 1.306 . S
O99 Cd100 2.228 . S
Cd100 O99 2.228 . S
Cd100 O104 2.273 . S
Cd100 O108 2.277 . S
O101 C98 1.160 . S
O101 Cd102 2.203 . S
Cd102 O101 2.203 . S
Cd102 O104 2.411 . S
Cd102 O105 2.333 . S
Cd102 O106 2.352 . S
Cd102 O110 2.277 . S
Cd102 O111 2.356 . S
C103 O108 1.209 . S
C103 O110 1.226 . S
O104 Cd100 2.273 . S
O104 Cd102 2.411 . S
O104 C107 1.320 . S
O105 Cd102 2.333 . S
O105 C107 1.214 . S
O106 Cd102 2.352 . S
O106 C109 1.258 . S
C107 O104 1.320 . S
C107 O105 1.214 . S
O108 Cd100 2.277 . S
O108 C103 1.209 . S
C109 O106 1.258 . S
C109 O111 1.282 . S
O110 Cd102 2.277 . S
O110 C103 1.226 . S
O111 Cd102 2.356 . S
O111 C109 1.282 . S
C112 C113 1.349 . S
C112 C114 1.327 . S
C112 H137 0.950 . S
C113 C112 1.349 . S
C113 C129 1.349 . S
C114 C112 1.327 . S
C114 C133 1.429 . S
C114 H138 0.950 . S
C115 C132 1.574 1_554 S
C115 C134 1.368 . S
C115 H139 0.949 . S
H116 C120 0.949 . S
C117 C118 1.349 . S
C117 C119 1.327 . S
C117 H140 0.950 . S
C118 C117 1.349 . S
C118 C130 1.349 . S
C119 C117 1.327 . S
C119 C135 1.429 . S
C119 H141 0.950 . S
C120 H116 0.949 . S
C120 C128 1.574 1_556 S
C120 C136 1.368 . S
H121 C129 0.950 . S
H122 C127 0.950 . S
H123 C128 0.949 . S
H124 C130 0.950 . S
H125 C131 0.950 . S
H126 C132 0.949 . S
C127 H122 0.950 . S
C127 C129 1.327 . S
C127 C133 1.429 . S
C128 C120 1.574 1_554 S
C128 H123 0.949 . S
C128 C134 1.368 . S
C129 C113 1.349 . S
C129 H121 0.950 . S
C129 C127 1.327 . S
C130 C118 1.349 . S
C130 H124 0.950 . S
C130 C131 1.327 . S
C131 H125 0.950 . S
C131 C130 1.327 . S
C131 C135 1.429 . S
C132 C115 1.574 1_556 S
C132 H126 0.949 . S
C132 C136 1.368 . S
C133 C114 1.429 . S
C133 C127 1.429 . S
C133 C134 1.523 . S
C134 C115 1.368 . S
C134 C128 1.368 . S
C134 C133 1.523 . S
C135 C119 1.429 . S
C135 C131 1.429 . S
C135 C136 1.523 . S
C136 C120 1.368 . S
C136 C132 1.368 . S
C136 C135 1.523 . S
H137 C112 0.950 . S
H138 C114 0.950 . S
H139 C115 0.949 . S
H140 C117 0.950 . S
H141 C119 0.950 . S
C142 C143 1.349 . S
C142 C144 1.327 . S
C142 H167 0.950 . S
C143 C142 1.349 . S
C143 C159 1.349 . S
C144 C142 1.327 . S
C144 C163 1.429 . S
C144 H168 0.950 . S
C145 C162 1.574 . S
C145 C164 1.368 . S
C145 H169 0.949 . S
H146 C150 0.949 . S
C147 C148 1.349 . S
C147 C149 1.327 . S
C147 H170 0.950 . S
C148 C147 1.349 . S
C148 C160 1.349 . S
C149 C147 1.327 . S
C149 C165 1.429 . S
C149 H171 0.950 . S
C150 H146 0.949 . S
C150 C158 1.574 . S
C150 C166 1.368 . S
H151 C159 0.950 . S
H152 C157 0.950 . S
H153 C158 0.949 . S
H154 C160 0.950 . S
H155 C161 0.950 . S
H156 C162 0.949 . S
C157 H152 0.950 . S
C157 C159 1.327 . S
C157 C163 1.429 . S
C158 C150 1.574 . S
C158 H153 0.949 . S
C158 C164 1.368 . S
C159 C143 1.349 . S
C159 H151 0.950 . S
C159 C157 1.327 . S
C160 C148 1.349 . S
C160 H154 0.950 . S
C160 C161 1.327 . S
C161 H155 0.950 . S
C161 C160 1.327 . S
C161 C165 1.429 . S
C162 C145 1.574 . S
C162 H156 0.949 . S
C162 C166 1.368 . S
C163 C144 1.429 . S
C163 C157 1.429 . S
C163 C164 1.523 . S
C164 C145 1.368 . S
C164 C158 1.368 . S
C164 C163 1.523 . S
C165 C149 1.429 . S
C165 C161 1.429 . S
C165 C166 1.523 . S
C166 C150 1.368 . S
C166 C162 1.368 . S
C166 C165 1.523 . S
H167 C142 0.950 . S
H168 C144 0.950 . S
H169 C145 0.949 . S
H170 C147 0.950 . S
H171 C149 0.950 . S
C172 C173 1.349 . S
C172 C174 1.327 . S
C172 H197 0.950 . S
C173 C172 1.349 . S
C173 C189 1.349 . S
C174 C172 1.327 . S
C174 C193 1.429 . S
C174 H198 0.950 . S
C175 C192 1.574 . S
C175 C194 1.368 . S
C175 H199 0.949 . S
H176 C180 0.949 . S
C177 C178 1.349 . S
C177 C179 1.327 . S
C177 H200 0.950 . S
C178 C177 1.349 . S
C178 C190 1.349 . S
C179 C177 1.327 . S
C179 C195 1.429 . S
C179 H201 0.950 . S
C180 H176 0.949 . S
C180 C188 1.574 . S
C180 C196 1.368 . S
H181 C189 0.950 . S
H182 C187 0.950 . S
H183 C188 0.949 . S
H184 C190 0.950 . S
H185 C191 0.950 . S
H186 C192 0.949 . S
C187 H182 0.950 . S
C187 C189 1.327 . S
C187 C193 1.429 . S
C188 C180 1.574 . S
C188 H183 0.949 . S
C188 C194 1.368 . S
C189 C173 1.349 . S
C189 H181 0.950 . S
C189 C187 1.327 . S
C190 C178 1.349 . S
C190 H184 0.950 . S
C190 C191 1.327 . S
C191 H185 0.950 . S
C191 C190 1.327 . S
C191 C195 1.429 . S
C192 C175 1.574 . S
C192 H186 0.949 . S
C192 C196 1.368 . S
C193 C174 1.429 . S
C193 C187 1.429 . S
C193 C194 1.523 . S
C194 C175 1.368 . S
C194 C188 1.368 . S
C194 C193 1.523 . S
C195 C179 1.429 . S
C195 C191 1.429 . S
C195 C196 1.523 . S
C196 C180 1.368 . S
C196 C192 1.368 . S
C196 C195 1.523 . S
H197 C172 0.950 . S
H198 C174 0.950 . S
H199 C175 0.949 . S
H200 C177 0.950 . S
H201 C179 0.950 . S
C202 C203 1.349 . S
C202 C204 1.327 . S
C202 H227 0.950 . S
C203 C202 1.349 . S
C203 C219 1.349 . S
C204 C202 1.327 . S
C204 C223 1.429 . S
C204 H228 0.950 . S
C205 C222 1.574 . S
C205 C224 1.368 . S
C205 H229 0.949 . S
H206 C210 0.949 . S
C207 C208 1.349 . S
C207 C209 1.327 . S
C207 H230 0.950 . S
C208 C207 1.349 . S
C208 C220 1.349 . S
C209 C207 1.327 . S
C209 C225 1.429 . S
C209 H231 0.950 . S
C210 H206 0.949 . S
C210 C218 1.574 . S
C210 C226 1.368 . S
H211 C219 0.950 . S
H212 C217 0.950 . S
H213 C218 0.949 . S
H214 C220 0.950 . S
H215 C221 0.950 . S
H216 C222 0.949 . S
C217 H212 0.950 . S
C217 C219 1.327 . S
C217 C223 1.429 . S
C218 C210 1.574 . S
C218 H213 0.949 . S
C218 C224 1.368 . S
C219 C203 1.349 . S
C219 H211 0.950 . S
C219 C217 1.327 . S
C220 C208 1.349 . S
C220 H214 0.950 . S
C220 C221 1.327 . S
C221 H215 0.950 . S
C221 C220 1.327 . S
C221 C225 1.429 . S
C222 C205 1.574 . S
C222 H216 0.949 . S
C222 C226 1.368 . S
C223 C204 1.429 . S
C223 C217 1.429 . S
C223 C224 1.523 . S
C224 C205 1.368 . S
C224 C218 1.368 . S
C224 C223 1.523 . S
C225 C209 1.429 . S
C225 C221 1.429 . S
C225 C226 1.523 . S
C226 C210 1.368 . S
C226 C222 1.368 . S
C226 C225 1.523 . S
H227 C202 0.950 . S
H228 C204 0.950 . S
H229 C205 0.949 . S
H230 C207 0.950 . S
H231 C209 0.950 . S
C232 C233 1.349 . S
C232 C234 1.327 . S
C232 H257 0.950 . S
C233 C232 1.349 . S
C233 C249 1.349 . S
C234 C232 1.327 . S
C234 C253 1.429 . S
C234 H258 0.950 . S
C235 C252 1.574 . S
C235 C254 1.368 . S
C235 H259 0.949 . S
H236 C240 0.949 . S
C237 C238 1.349 . S
C237 C239 1.327 . S
C237 H260 0.950 . S
C238 C237 1.349 . S
C238 C250 1.349 . S
C239 C237 1.327 . S
C239 C255 1.429 . S
C239 H261 0.950 . S
C240 H236 0.949 . S
C240 C248 1.574 . S
C240 C256 1.368 . S
H241 C249 0.950 . S
H242 C247 0.950 . S
H243 C248 0.949 . S
H244 C250 0.950 . S
H245 C251 0.950 . S
H246 C252 0.949 . S
C247 H242 0.950 . S
C247 C249 1.327 . S
C247 C253 1.429 . S
C248 C240 1.574 . S
C248 H243 0.949 . S
C248 C254 1.368 . S
C249 C233 1.349 . S
C249 H241 0.950 . S
C249 C247 1.327 . S
C250 C238 1.349 . S
C250 H244 0.950 . S
C250 C251 1.327 . S
C251 H245 0.950 . S
C251 C250 1.327 . S
C251 C255 1.429 . S
C252 C235 1.574 . S
C252 H246 0.949 . S
C252 C256 1.368 . S
C253 C234 1.429 . S
C253 C247 1.429 . S
C253 C254 1.523 . S
C254 C235 1.368 . S
C254 C248 1.368 . S
C254 C253 1.523 . S
C255 C239 1.429 . S
C255 C251 1.429 . S
C255 C256 1.523 . S
C256 C240 1.368 . S
C256 C252 1.368 . S
C256 C255 1.523 . S
H257 C232 0.950 . S
H258 C234 0.950 . S
H259 C235 0.949 . S
H260 C237 0.950 . S
H261 C239 0.950 . S
C262 C263 1.349 . S
C262 C264 1.327 . S
C262 H287 0.950 . S
C263 C262 1.349 . S
C263 C279 1.349 . S
C264 C262 1.327 . S
C264 C283 1.429 . S
C264 H288 0.950 . S
C265 C282 1.574 . S
C265 C284 1.368 . S
C265 H289 0.949 . S
H266 C270 0.949 . S
C267 C268 1.349 . S
C267 C269 1.327 . S
C267 H290 0.950 . S
C268 C267 1.349 . S
C268 C280 1.349 . S
C269 C267 1.327 . S
C269 C285 1.429 . S
C269 H291 0.950 . S
C270 H266 0.949 . S
C270 C278 1.574 . S
C270 C286 1.368 . S
H271 C279 0.950 . S
H272 C277 0.950 . S
H273 C278 0.949 . S
H274 C280 0.950 . S
H275 C281 0.950 . S
H276 C282 0.949 . S
C277 H272 0.950 . S
C277 C279 1.327 . S
C277 C283 1.429 . S
C278 C270 1.574 . S
C278 H273 0.949 . S
C278 C284 1.368 . S
C279 C263 1.349 . S
C279 H271 0.950 . S
C279 C277 1.327 . S
C280 C268 1.349 . S
C280 H274 0.950 . S
C280 C281 1.327 . S
C281 H275 0.950 . S
C281 C280 1.327 . S
C281 C285 1.429 . S
C282 C265 1.574 . S
C282 H276 0.949 . S
C282 C286 1.368 . S
C283 C264 1.429 . S
C283 C277 1.429 . S
C283 C284 1.523 . S
C284 C265 1.368 . S
C284 C278 1.368 . S
C284 C283 1.523 . S
C285 C269 1.429 . S
C285 C281 1.429 . S
C285 C286 1.523 . S
C286 C270 1.368 . S
C286 C282 1.368 . S
C286 C285 1.523 . S
H287 C262 0.950 . S
H288 C264 0.950 . S
H289 C265 0.949 . S
H290 C267 0.950 . S
H291 C269 0.950 . S
C292 C293 1.349 . S
C292 C294 1.327 . S
C292 H317 0.950 . S
C293 C292 1.349 . S
C293 C309 1.349 . S
C294 C292 1.327 . S
C294 C313 1.429 . S
C294 H318 0.950 . S
C295 C312 1.574 . S
C295 C314 1.368 . S
C295 H319 0.949 . S
H296 C300 0.949 . S
C297 C298 1.349 . S
C297 C299 1.327 . S
C297 H320 0.950 . S
C298 C297 1.349 . S
C298 C310 1.349 . S
C299 C297 1.327 . S
C299 C315 1.429 . S
C299 H321 0.950 . S
C300 H296 0.949 . S
C300 C308 1.574 . S
C300 C316 1.368 . S
H301 C309 0.950 . S
H302 C307 0.950 . S
H303 C308 0.949 . S
H304 C310 0.950 . S
H305 C311 0.950 . S
H306 C312 0.949 . S
C307 H302 0.950 . S
C307 C309 1.327 . S
C307 C313 1.429 . S
C308 C300 1.574 . S
C308 H303 0.949 . S
C308 C314 1.368 . S
C309 C293 1.349 . S
C309 H301 0.950 . S
C309 C307 1.327 . S
C310 C298 1.349 . S
C310 H304 0.950 . S
C310 C311 1.327 . S
C311 H305 0.950 . S
C311 C310 1.327 . S
C311 C315 1.429 . S
C312 C295 1.574 . S
C312 H306 0.949 . S
C312 C316 1.368 . S
C313 C294 1.429 . S
C313 C307 1.429 . S
C313 C314 1.523 . S
C314 C295 1.368 . S
C314 C308 1.368 . S
C314 C313 1.523 . S
C315 C299 1.429 . S
C315 C311 1.429 . S
C315 C316 1.523 . S
C316 C300 1.368 . S
C316 C312 1.368 . S
C316 C315 1.523 . S
H317 C292 0.950 . S
H318 C294 0.950 . S
H319 C295 0.949 . S
H320 C297 0.950 . S
H321 C299 0.950 . S
C322 C323 1.349 . S
C322 C324 1.327 . S
C322 H347 0.950 . S
C323 C322 1.349 . S
C323 C339 1.349 . S
C324 C322 1.327 . S
C324 C343 1.429 . S
C324 H348 0.950 . S
C325 C342 1.574 1_554 S
C325 C344 1.368 . S
C325 H349 0.949 . S
H326 C330 0.949 . S
C327 C328 1.349 . S
C327 C329 1.327 . S
C327 H350 0.950 . S
C328 C327 1.349 . S
C328 C340 1.349 . S
C329 C327 1.327 . S
C329 C345 1.429 . S
C329 H351 0.950 . S
C330 H326 0.949 . S
C330 C338 1.574 1_556 S
C330 C346 1.368 . S
H331 C339 0.950 . S
H332 C337 0.950 . S
H333 C338 0.949 . S
H334 C340 0.950 . S
H335 C341 0.950 . S
H336 C342 0.949 . S
C337 H332 0.950 . S
C337 C339 1.327 . S
C337 C343 1.429 . S
C338 C330 1.574 1_554 S
C338 H333 0.949 . S
C338 C344 1.368 . S
C339 C323 1.349 . S
C339 H331 0.950 . S
C339 C337 1.327 . S
C340 C328 1.349 . S
C340 H334 0.950 . S
C340 C341 1.327 . S
C341 H335 0.950 . S
C341 C340 1.327 . S
C341 C345 1.429 . S
C342 C325 1.574 1_556 S
C342 H336 0.949 . S
C342 C346 1.368 . S
C343 C324 1.429 . S
C343 C337 1.429 . S
C343 C344 1.523 . S
C344 C325 1.368 . S
C344 C338 1.368 . S
C344 C343 1.523 . S
C345 C329 1.429 . S
C345 C341 1.429 . S
C345 C346 1.523 . S
C346 C330 1.368 . S
C346 C342 1.368 . S
C346 C345 1.523 . S
H347 C322 0.950 . S
H348 C324 0.950 . S
H349 C325 0.949 . S
H350 C327 0.950 . S
H351 C329 0.950 . S
C352 C353 1.349 . S
C352 C354 1.327 . S
C352 H377 0.950 . S
C353 C352 1.349 . S
C353 C369 1.349 . S
C354 C352 1.327 . S
C354 C373 1.429 . S
C354 H378 0.950 . S
C355 C372 1.574 1_545 S
C355 C374 1.368 1_655 S
C355 H379 0.949 . S
H356 C360 0.949 . S
C357 C358 1.349 . S
C357 C359 1.327 . S
C357 H380 0.950 . S
C358 C357 1.349 . S
C358 C370 1.349 . S
C359 C357 1.327 . S
C359 C375 1.429 . S
C359 H381 0.950 . S
C360 H356 0.949 . S
C360 C368 1.574 1_565 S
C360 C376 1.368 1_455 S
H361 C369 0.950 . S
H362 C367 0.950 . S
H363 C368 0.949 . S
H364 C370 0.950 . S
H365 C371 0.950 . S
H366 C372 0.949 . S
C367 H362 0.950 . S
C367 C369 1.327 . S
C367 C373 1.429 . S
C368 C360 1.574 1_545 S
C368 H363 0.949 . S
C368 C374 1.368 . S
C369 C353 1.349 . S
C369 H361 0.950 . S
C369 C367 1.327 . S
C370 C358 1.349 . S
C370 H364 0.950 . S
C370 C371 1.327 . S
C371 H365 0.950 . S
C371 C370 1.327 . S
C371 C375 1.429 . S
C372 C355 1.574 1_565 S
C372 H366 0.949 . S
C372 C376 1.368 . S
C373 C354 1.429 . S
C373 C367 1.429 . S
C373 C374 1.523 . S
C374 C355 1.368 1_455 S
C374 C368 1.368 . S
C374 C373 1.523 . S
C375 C359 1.429 . S
C375 C371 1.429 . S
C375 C376 1.523 . S
C376 C360 1.368 1_655 S
C376 C372 1.368 . S
C376 C375 1.523 . S
H377 C352 0.950 . S
H378 C354 0.950 . S
H379 C355 0.949 . S
H380 C357 0.950 . S
H381 C359 0.950 . S
C382 C383 1.349 . S
C382 C384 1.327 . S
C382 H407 0.950 . S
C383 C382 1.349 . S
C383 C399 1.349 . S
C384 C382 1.327 . S
C384 C403 1.429 . S
C384 H408 0.950 . S
C385 C402 1.574 1_455 S
C385 C404 1.368 . S
C385 H409 0.949 . S
H386 C390 0.949 . S
C387 C388 1.349 . S
C387 C389 1.327 . S
C387 H410 0.950 . S
C388 C387 1.349 . S
C388 C400 1.349 . S
C389 C387 1.327 . S
C389 C405 1.429 . S
C389 H411 0.950 . S
C390 H386 0.949 . S
C390 C398 1.574 1_655 S
C390 C406 1.368 . S
H391 C399 0.950 . S
H392 C397 0.950 . S
H393 C398 0.949 . S
H394 C400 0.950 . S
H395 C401 0.950 . S
H396 C402 0.949 . S
C397 H392 0.950 . S
C397 C399 1.327 . S
C397 C403 1.429 . S
C398 C390 1.574 1_455 S
C398 H393 0.949 . S
C398 C404 1.368 . S
C399 C383 1.349 . S
C399 H391 0.950 . S
C399 C397 1.327 . S
C400 C388 1.349 . S
C400 H394 0.950 . S
C400 C401 1.327 . S
C401 H395 0.950 . S
C401 C400 1.327 . S
C401 C405 1.429 . S
C402 C385 1.574 1_655 S
C402 H396 0.949 . S
C402 C406 1.368 . S
C403 C384 1.429 . S
C403 C397 1.429 . S
C403 C404 1.523 . S
C404 C385 1.368 . S
C404 C398 1.368 . S
C404 C403 1.523 . S
C405 C389 1.429 . S
C405 C401 1.429 . S
C405 C406 1.523 . S
C406 C390 1.368 . S
C406 C402 1.368 . S
C406 C405 1.523 . S
H407 C382 0.950 . S
H408 C384 0.950 . S
H409 C385 0.949 . S
H410 C387 0.950 . S
H411 C389 0.950 . S
C412 C413 1.349 . S
C412 C414 1.327 . S
C412 H437 0.950 . S
C413 C412 1.349 . S
C413 C429 1.349 . S
C414 C412 1.327 . S
C414 C433 1.429 . S
C414 H438 0.950 . S
C415 C432 1.574 . S
C415 C434 1.368 . S
C415 H439 0.949 . S
H416 C420 0.949 . S
C417 C418 1.349 . S
C417 C419 1.327 . S
C417 H440 0.950 . S
C418 C417 1.349 . S
C418 C430 1.349 . S
C419 C417 1.327 . S
C419 C435 1.429 . S
C419 H441 0.950 . S
C420 H416 0.949 . S
C420 C428 1.574 . S
C420 C436 1.368 . S
H421 C429 0.950 . S
H422 C427 0.950 . S
H423 C428 0.949 . S
H424 C430 0.950 . S
H425 C431 0.950 . S
H426 C432 0.949 . S
C427 H422 0.950 . S
C427 C429 1.327 . S
C427 C433 1.429 . S
C428 C420 1.574 . S
C428 H423 0.949 . S
C428 C434 1.368 . S
C429 C413 1.349 . S
C429 H421 0.950 . S
C429 C427 1.327 . S
C430 C418 1.349 . S
C430 H424 0.950 . S
C430 C431 1.327 . S
C431 H425 0.950 . S
C431 C430 1.327 . S
C431 C435 1.429 . S
C432 C415 1.574 . S
C432 H426 0.949 . S
C432 C436 1.368 . S
C433 C414 1.429 . S
C433 C427 1.429 . S
C433 C434 1.523 . S
C434 C415 1.368 . S
C434 C428 1.368 . S
C434 C433 1.523 . S
C435 C419 1.429 . S
C435 C431 1.429 . S
C435 C436 1.523 . S
C436 C420 1.368 . S
C436 C432 1.368 . S
C436 C435 1.523 . S
H437 C412 0.950 . S
H438 C414 0.950 . S
H439 C415 0.949 . S
H440 C417 0.950 . S
H441 C419 0.950 . S
C442 C443 1.349 . S
C442 C444 1.327 . S
C442 H467 0.950 . S
C443 C442 1.349 . S
C443 C459 1.349 . S
C444 C442 1.327 . S
C444 C463 1.429 . S
C444 H468 0.950 . S
C445 C462 1.574 . S
C445 C464 1.368 . S
C445 H469 0.949 . S
H446 C450 0.949 . S
C447 C448 1.349 . S
C447 C449 1.327 . S
C447 H470 0.950 . S
C448 C447 1.349 . S
C448 C460 1.349 . S
C449 C447 1.327 . S
C449 C465 1.429 . S
C449 H471 0.950 . S
C450 H446 0.949 . S
C450 C458 1.574 . S
C450 C466 1.368 . S
H451 C459 0.950 . S
H452 C457 0.950 . S
H453 C458 0.949 . S
H454 C460 0.950 . S
H455 C461 0.950 . S
H456 C462 0.949 . S
C457 H452 0.950 . S
C457 C459 1.327 . S
C457 C463 1.429 . S
C458 C450 1.574 . S
C458 H453 0.949 . S
C458 C464 1.368 1_545 S
C459 C443 1.349 . S
C459 H451 0.950 . S
C459 C457 1.327 . S
C460 C448 1.349 . S
C460 H454 0.950 . S
C460 C461 1.327 . S
C461 H455 0.950 . S
C461 C460 1.327 . S
C461 C465 1.429 . S
C462 C445 1.574 . S
C462 H456 0.949 . S
C462 C466 1.368 1_565 S
C463 C444 1.429 . S
C463 C457 1.429 . S
C463 C464 1.523 . S
C464 C445 1.368 . S
C464 C458 1.368 1_565 S
C464 C463 1.523 . S
C465 C449 1.429 . S
C465 C461 1.429 . S
C465 C466 1.523 . S
C466 C450 1.368 . S
C466 C462 1.368 1_545 S
C466 C465 1.523 . S
H467 C442 0.950 . S
H468 C444 0.950 . S
H469 C445 0.949 . S
H470 C447 0.950 . S
H471 C449 0.950 . S
C472 C473 1.349 . S
C472 C474 1.327 . S
C472 H497 0.950 . S
C473 C472 1.349 . S
C473 C489 1.349 . S
C474 C472 1.327 . S
C474 C493 1.429 . S
C474 H498 0.950 . S
C475 C492 1.574 . S
C475 C494 1.368 1_455 S
C475 H499 0.949 . S
H476 C480 0.949 . S
C477 C478 1.349 . S
C477 C479 1.327 . S
C477 H500 0.950 . S
C478 C477 1.349 . S
C478 C490 1.349 . S
C479 C477 1.327 . S
C479 C495 1.429 . S
C479 H501 0.950 . S
C480 H476 0.949 . S
C480 C488 1.574 . S
C480 C496 1.368 1_655 S
H481 C489 0.950 . S
H482 C487 0.950 . S
H483 C488 0.949 . S
H484 C490 0.950 . S
H485 C491 0.950 . S
H486 C492 0.949 . S
C487 H482 0.950 . S
C487 C489 1.327 . S
C487 C493 1.429 . S
C488 C480 1.574 . S
C488 H483 0.949 . S
C488 C494 1.368 . S
C489 C473 1.349 . S
C489 H481 0.950 . S
C489 C487 1.327 . S
C490 C478 1.349 . S
C490 H484 0.950 . S
C490 C491 1.327 . S
C491 H485 0.950 . S
C491 C490 1.327 . S
C491 C495 1.429 . S
C492 C475 1.574 . S
C492 H486 0.949 . S
C492 C496 1.368 . S
C493 C474 1.429 . S
C493 C487 1.429 . S
C493 C494 1.523 . S
C494 C475 1.368 1_655 S
C494 C488 1.368 . S
C494 C493 1.523 . S
C495 C479 1.429 . S
C495 C491 1.429 . S
C495 C496 1.523 . S
C496 C480 1.368 1_455 S
C496 C492 1.368 . S
C496 C495 1.523 . S
H497 C472 0.950 . S
H498 C474 0.950 . S
H499 C475 0.949 . S
H500 C477 0.950 . S
H501 C479 0.950 . S
C502 C503 1.349 . S
C502 C504 1.327 . S
C502 H527 0.950 . S
C503 C502 1.349 . S
C503 C519 1.349 . S
C504 C502 1.327 . S
C504 C523 1.429 . S
C504 H528 0.950 . S
C505 C522 1.574 . S
C505 C524 1.368 . S
C505 H529 0.949 . S
H506 C510 0.949 . S
C507 C508 1.349 . S
C507 C509 1.327 . S
C507 H530 0.950 . S
C508 C507 1.349 . S
C508 C520 1.349 . S
C509 C507 1.327 . S
C509 C525 1.429 . S
C509 H531 0.950 . S
C510 H506 0.949 . S
C510 C518 1.574 . S
C510 C526 1.368 . S
H511 C519 0.950 . S
H512 C517 0.950 . S
H513 C518 0.949 . S
H514 C520 0.950 . S
H515 C521 0.950 . S
H516 C522 0.949 . S
C517 H512 0.950 . S
C517 C519 1.327 . S
C517 C523 1.429 . S
C518 C510 1.574 . S
C518 H513 0.949 . S
C518 C524 1.368 . S
C519 C503 1.349 . S
C519 H511 0.950 . S
C519 C517 1.327 . S
C520 C508 1.349 . S
C520 H514 0.950 . S
C520 C521 1.327 . S
C521 H515 0.950 . S
C521 C520 1.327 . S
C521 C525 1.429 . S
C522 C505 1.574 . S
C522 H516 0.949 . S
C522 C526 1.368 . S
C523 C504 1.429 . S
C523 C517 1.429 . S
C523 C524 1.523 . S
C524 C505 1.368 . S
C524 C518 1.368 . S
C524 C523 1.523 . S
C525 C509 1.429 . S
C525 C521 1.429 . S
C525 C526 1.523 . S
C526 C510 1.368 . S
C526 C522 1.368 . S
C526 C525 1.523 . S
H527 C502 0.950 . S
H528 C504 0.950 . S
H529 C505 0.949 . S
H530 C507 0.950 . S
H531 C509 0.950 . S
C532 C533 1.349 . S
C532 C534 1.327 . S
C532 H557 0.950 . S
C533 C532 1.349 . S
C533 C549 1.349 . S
C534 C532 1.327 . S
C534 C553 1.429 . S
C534 H558 0.950 . S
C535 C552 1.574 1_545 S
C535 C554 1.368 . S
C535 H559 0.949 . S
H536 C540 0.949 . S
C537 C538 1.349 . S
C537 C539 1.327 . S
C537 H560 0.950 . S
C538 C537 1.349 . S
C538 C550 1.349 . S
C539 C537 1.327 . S
C539 C555 1.429 . S
C539 H561 0.950 . S
C540 H536 0.949 . S
C540 C548 1.574 1_565 S
C540 C556 1.368 . S
H541 C549 0.950 . S
H542 C547 0.950 . S
H543 C548 0.949 . S
H544 C550 0.950 . S
H545 C551 0.950 . S
H546 C552 0.949 . S
C547 H542 0.950 . S
C547 C549 1.327 . S
C547 C553 1.429 . S
C548 C540 1.574 1_545 S
C548 H543 0.949 . S
C548 C554 1.368 . S
C549 C533 1.349 . S
C549 H541 0.950 . S
C549 C547 1.327 . S
C550 C538 1.349 . S
C550 H544 0.950 . S
C550 C551 1.327 . S
C551 H545 0.950 . S
C551 C550 1.327 . S
C551 C555 1.429 . S
C552 C535 1.574 1_565 S
C552 H546 0.949 . S
C552 C556 1.368 . S
C553 C534 1.429 . S
C553 C547 1.429 . S
C553 C554 1.523 . S
C554 C535 1.368 . S
C554 C548 1.368 . S
C554 C553 1.523 . S
C555 C539 1.429 . S
C555 C551 1.429 . S
C555 C556 1.523 . S
C556 C540 1.368 . S
C556 C552 1.368 . S
C556 C555 1.523 . S
H557 C532 0.950 . S
H558 C534 0.950 . S
H559 C535 0.949 . S
H560 C537 0.950 . S
H561 C539 0.950 . S
C562 C563 1.349 . S
C562 C564 1.327 . S
C562 H587 0.950 . S
C563 C562 1.349 . S
C563 C579 1.349 . S
C564 C562 1.327 . S
C564 C583 1.429 . S
C564 H588 0.950 . S
C565 C582 1.574 1_655 S
C565 C584 1.368 . S
C565 H589 0.949 . S
H566 C570 0.949 . S
C567 C568 1.349 . S
C567 C569 1.327 . S
C567 H590 0.950 . S
C568 C567 1.349 . S
C568 C580 1.349 . S
C569 C567 1.327 . S
C569 C585 1.429 . S
C569 H591 0.950 . S
C570 H566 0.949 . S
C570 C578 1.574 1_455 S
C570 C586 1.368 . S
H571 C579 0.950 . S
H572 C577 0.950 . S
H573 C578 0.949 . S
H574 C580 0.950 . S
H575 C581 0.950 . S
H576 C582 0.949 . S
C577 H572 0.950 . S
C577 C579 1.327 . S
C577 C583 1.429 . S
C578 C570 1.574 1_655 S
C578 H573 0.949 . S
C578 C584 1.368 1_545 S
C579 C563 1.349 . S
C579 H571 0.950 . S
C579 C577 1.327 . S
C580 C568 1.349 . S
C580 H574 0.950 . S
C580 C581 1.327 . S
C581 H575 0.950 . S
C581 C580 1.327 . S
C581 C585 1.429 . S
C582 C565 1.574 1_455 S
C582 H576 0.949 . S
C582 C586 1.368 1_565 S
C583 C564 1.429 . S
C583 C577 1.429 . S
C583 C584 1.523 . S
C584 C565 1.368 . S
C584 C578 1.368 1_565 S
C584 C583 1.523 . S
C585 C569 1.429 . S
C585 C581 1.429 . S
C585 C586 1.523 . S
C586 C570 1.368 . S
C586 C582 1.368 1_545 S
C586 C585 1.523 . S
H587 C562 0.950 . S
H588 C564 0.950 . S
H589 C565 0.949 . S
H590 C567 0.950 . S
H591 C569 0.950 . S
C113 C0 1.104 . S
C118 C70 1.104 . S
C143 C23 1.101 . S
C148 C93 1.101 . S
C173 C28 1.104 . S
C178 C98 1.104 . S
C203 C51 1.101 . S
C208 C65 1.101 . S
C233 C107 1.101 . S
C238 C9 1.101 . S
C263 C56 1.104 . S
C268 C14 1.104 . S
C293 C37 1.101 . S
C298 C79 1.101 . S
C323 C84 1.104 . S
C328 C42 1.104 . S
C353 C5 1.581 . S
C358 C89 1.581 . S
C383 C109 1.585 . S
C388 C25 1.585 . S
C413 C33 1.581 . S
C418 C61 1.581 . S
C443 C53 1.585 . S
C448 C81 1.585 . S
C473 C95 1.585 . S
C478 C11 1.585 . S
C503 C103 1.581 . S
C508 C19 1.581 . S
C533 C39 1.585 . S
C538 C67 1.585 . S
C563 C47 1.581 . S
C568 C75 1.581 . S
