# Generated by pormake.
# Topology afw, (4)-cn, num edge types: 1
# Building blocks:
#     Node 0, Type 0, BuildingBlock: GALJAG_clean_sbu_0, # of connection points: 4
#     Node 1, Type 0, BuildingBlock: GALJAG_clean_sbu_0, # of connection points: 4
#     Node 2, Type 0, BuildingBlock: GALJAG_clean_sbu_0, # of connection points: 4
#     Node 3, Type 0, BuildingBlock: GALJAG_clean_sbu_0, # of connection points: 4
#     Node 4, Type 0, BuildingBlock: GALJAG_clean_sbu_0, # of connection points: 4
#     Node 5, Type 0, BuildingBlock: GALJAG_clean_sbu_0, # of connection points: 4
#     Node 6, Type 0, BuildingBlock: GALJAG_clean_sbu_0, # of connection points: 4
#     Node 7, Type 0, BuildingBlock: GALJAG_clean_sbu_0, # of connection points: 4
#     Node 8, Type 0, BuildingBlock: GALJAG_clean_sbu_0, # of connection points: 4
#     Edge 9, Type (0, 0), BuildingBlock: TEMPAE_clean_linker_10, # of connection points: 2
#     Edge 10, Type (0, 0), BuildingBlock: TEMPAE_clean_linker_10, # of connection points: 2
#     Edge 11, Type (0, 0), BuildingBlock: TEMPAE_clean_linker_10, # of connection points: 2
#     Edge 12, Type (0, 0), BuildingBlock: TEMPAE_clean_linker_10, # of connection points: 2
#     Edge 13, Type (0, 0), BuildingBlock: TEMPAE_clean_linker_10, # of connection points: 2
#     Edge 14, Type (0, 0), BuildingBlock: TEMPAE_clean_linker_10, # of connection points: 2
#     Edge 15, Type (0, 0), BuildingBlock: TEMPAE_clean_linker_10, # of connection points: 2
#     Edge 16, Type (0, 0), BuildingBlock: TEMPAE_clean_linker_10, # of connection points: 2
#     Edge 17, Type (0, 0), BuildingBlock: TEMPAE_clean_linker_10, # of connection points: 2
#     Edge 18, Type (0, 0), BuildingBlock: TEMPAE_clean_linker_10, # of connection points: 2
#     Edge 19, Type (0, 0), BuildingBlock: TEMPAE_clean_linker_10, # of connection points: 2
#     Edge 20, Type (0, 0), BuildingBlock: TEMPAE_clean_linker_10, # of connection points: 2
#     Edge 21, Type (0, 0), BuildingBlock: TEMPAE_clean_linker_10, # of connection points: 2
#     Edge 22, Type (0, 0), BuildingBlock: TEMPAE_clean_linker_10, # of connection points: 2
#     Edge 23, Type (0, 0), BuildingBlock: TEMPAE_clean_linker_10, # of connection points: 2
#     Edge 24, Type (0, 0), BuildingBlock: TEMPAE_clean_linker_10, # of connection points: 2
#     Edge 25, Type (0, 0), BuildingBlock: TEMPAE_clean_linker_10, # of connection points: 2
#     Edge 26, Type (0, 0), BuildingBlock: TEMPAE_clean_linker_10, # of connection points: 2
# Relax obj value: 0.092
# Max RMSD: 0.157
# Mean RMSD: 0.157
data_MOF--net-afw--node1-GALJAG_clean_sbu_0--edge1-TEMPAE_clean_linker_10
_symmetry_space_group_name_H-M    P1
_symmetry_Int_Tables_number       1
_symmetry_cell_setting            triclinic
loop_
_symmetry_equiv_pos_as_xyz
'x, y, z'
_cell_length_a     46.453907
_cell_length_b     46.448249
_cell_length_c     27.090531
_cell_angle_alpha  89.983481
_cell_angle_beta   89.99662
_cell_angle_gamma 120.00837
loop_
_atom_site_label
_atom_site_type_symbol
_atom_site_fract_x
_atom_site_fract_y
_atom_site_fract_z
_atom_type_partial_charge
In0 In 0.00837 0.20042 0.00069 0.0
O1 O 0.00178 0.22541 0.93217 0.0
O2 O 0.03998 0.25465 0.98429 0.0
C3 C 0.96717 0.13456 -0.00364 0.0
C4 C 0.98055 0.21924 0.07058 0.0
C5 C 0.06381 0.19682 0.99141 0.0
O6 O 0.96833 0.15354 0.96177 0.0
O7 O 0.98597 0.14909 0.03259 0.0
O8 O 0.05293 0.19916 0.03324 0.0
O9 O 0.04714 0.19711 0.95478 0.0
C10 C 0.02524 0.25389 0.94474 0.0
O11 O 0.00939 0.22313 0.07579 0.0
O12 O 0.96569 0.20465 0.03143 0.0
In13 In 0.83986 0.82119 0.97766 0.0
O14 O 0.8151 0.78388 0.91448 0.0
O15 O 0.79598 0.81541 0.934 0.0
C16 C 0.90241 0.83254 0.97735 0.0
C17 C 0.80722 0.77627 0.04881 0.0
C18 C 0.85795 0.88591 0.97913 0.0
O19 O 0.88565 0.82681 0.93809 0.0
O20 O 0.88714 0.83138 0.01654 0.0
O21 O 0.84275 0.8668 0.015 0.0
O22 O 0.86342 0.87218 0.943 0.0
C23 C 0.79325 0.792 0.90731 0.0
O24 O 0.8056 0.80256 0.04501 0.0
O25 O 0.82603 0.7735 0.018 0.0
In26 In 0.20736 0.03627 0.98155 0.0
O27 O 0.22532 0.0141 0.04076 0.0
O28 O 0.22959 0.06109 0.05464 0.0
C29 C 0.14601 0.98362 -0.00596 0.0
C30 C 0.25269 0.03656 0.91903 0.0
C31 C 0.19549 0.08493 0.95252 0.0
O32 O 0.15552 0.01125 0.01477 0.0
O33 O 0.16781 0.98217 0.96812 0.0
O34 O 0.18211 0.05681 0.93196 0.0
O35 O 0.21623 0.08905 0.98564 0.0
C36 C 0.23547 0.03877 0.06924 0.0
O37 O 0.22185 0.01785 0.91292 0.0
O38 O 0.26036 0.05661 0.95442 0.0
In39 In 0.6529 0.52316 0.32073 0.0
O40 O 0.65555 0.54855 0.24717 0.0
O41 O 0.68341 0.57815 0.30882 0.0
C42 C 0.61139 0.45753 0.31257 0.0
C43 C 0.61998 0.53978 0.38509 0.0
C44 C 0.70889 0.52008 0.32356 0.0
O45 O 0.61196 0.47746 0.28005 0.0
O46 O 0.63121 0.47089 0.34808 0.0
O47 O 0.69419 0.52077 0.36255 0.0
O48 O 0.69571 0.52163 0.28363 0.0
C49 C 0.67544 0.5773 0.26406 0.0
O50 O 0.64799 0.54286 0.39533 0.0
O51 O 0.60855 0.52758 0.34316 0.0
In52 In 0.48699 0.15045 0.3411 0.0
O53 O 0.46117 0.12436 0.26991 0.0
O54 O 0.43228 0.12735 0.32955 0.0
C55 C 0.5523 0.17367 0.34537 0.0
C56 C 0.46853 0.10034 0.40405 0.0
C57 C 0.49361 0.21044 0.32768 0.0
O58 O 0.53521 0.15681 0.30858 0.0
O59 O 0.53607 0.1776 0.37957 0.0
O60 O 0.48401 0.1954 0.36881 0.0
O61 O 0.49869 0.19462 0.29409 0.0
C62 C 0.43272 0.11717 0.28642 0.0
O63 O 0.46852 0.12673 0.4165 0.0
O64 O 0.47873 0.10014 0.36082 0.0
In65 In 0.86356 0.36853 0.32289 0.0
O66 O 0.88528 0.37315 0.39965 0.0
O67 O 0.91625 0.40633 0.34307 0.0
C68 C 0.79938 0.32166 0.33185 0.0
C69 C 0.88772 0.33737 0.26792 0.0
C70 C 0.85207 0.41891 0.30776 0.0
O71 O 0.81977 0.32813 0.36687 0.0
O72 O 0.81153 0.33857 0.29319 0.0
O73 O 0.85503 0.40287 0.27223 0.0
O74 O 0.85583 0.4101 0.35021 0.0
C75 C 0.91355 0.39702 0.38749 0.0
O76 O 0.88967 0.36427 0.25379 0.0
O77 O 0.87335 0.32649 0.30875 0.0
In78 In 0.38225 0.88693 0.73527 0.0
O79 O 0.36546 0.90083 0.66457 0.0
O80 O 0.41496 0.90966 0.66814 0.0
C81 C 0.32646 0.82761 0.72339 0.0
C82 C 0.37865 0.93281 0.79234 0.0
C83 C 0.42911 0.87351 0.76897 0.0
O84 O 0.35358 0.83501 0.70247 0.0
O85 O 0.32711 0.85062 0.74901 0.0
O86 O 0.4362 0.89923 0.74439 0.0
O87 O 0.39875 0.85598 0.77952 0.0
C88 C 0.39348 0.91271 0.64384 0.0
O89 O 0.36851 0.90355 0.80715 0.0
O90 O 0.39206 0.93907 0.75051 0.0
In91 In 0.14537 0.52447 0.7047 0.0
O92 O 0.12916 0.50592 0.62634 0.0
O93 O 0.09603 0.5132 0.6726 0.0
C94 C 0.20889 0.53881 0.70901 0.0
C95 C 0.11444 0.46779 0.75666 0.0
C96 C 0.15952 0.58744 0.71797 0.0
O97 O 0.19257 0.53023 0.66905 0.0
O98 O 0.19295 0.53965 0.74616 0.0
O99 O 0.15092 0.56712 0.75361 0.0
O100 O 0.1596 0.57548 0.67619 0.0
C101 C 0.10117 0.50409 0.63117 0.0
O102 O 0.11209 0.4929 0.76868 0.0
O103 O 0.13254 0.4719 0.71966 0.0
In104 In 0.52233 0.67668 0.68718 0.0
O105 O 0.54933 0.66903 0.75206 0.0
O106 O 0.57717 0.69633 0.68879 0.0
C107 C 0.45665 0.643 0.70234 0.0
C108 C 0.52651 0.64342 0.60969 0.0
C109 C 0.53027 0.73713 0.70314 0.0
O110 O 0.47612 0.63787 0.72893 0.0
O111 O 0.47046 0.66448 0.66883 0.0
O112 O 0.52781 0.72558 0.65999 0.0
O113 O 0.52981 0.71857 0.73759 0.0
C114 C 0.57741 0.68484 0.73091 0.0
O115 O 0.53529 0.67397 0.60689 0.0
O116 O 0.5146 0.62986 0.65081 0.0
C117 C 0.20114 0.14077 0.96448 0.0
C118 C 0.18302 0.10828 0.94607 0.0
C119 C 0.18658 0.16087 0.96818 0.0
C120 C 0.15289 0.14767 0.9545 0.0
C121 C 0.13517 0.11557 0.93317 0.0
C122 C 0.15066 0.09643 0.92857 0.0
C123 C 0.20661 0.1954 0.98941 0.0
C124 C 0.09905 0.10038 0.91871 0.0
C125 C 0.09772 0.17287 0.02241 0.0
C126 C 0.09126 0.18988 0.98539 0.0
C127 C 0.11905 0.16023 0.01353 0.0
C128 C 0.13491 0.16562 0.967 0.0
C129 C 0.13051 0.18514 0.93098 0.0
C130 C 0.10826 0.19661 0.94033 0.0
C131 C 0.1227 0.13911 0.05268 0.0
C132 C 0.14788 0.19239 0.88165 0.0
H133 H 0.22626 0.15002 0.97781 0.0
H134 H 0.13652 0.07124 0.91459 0.0
H135 H 0.20252 0.21338 0.9679 0.0
H136 H 0.19847 0.19556 0.02785 0.0
H137 H 0.23364 0.20402 0.98989 0.0
H138 H 0.08943 0.07594 0.90014 0.0
H139 H 0.08382 0.09681 0.95217 0.0
H140 H 0.09558 0.11727 0.89362 0.0
H141 H 0.08441 0.16751 0.05715 0.0
H142 H 0.10343 0.21004 0.91181 0.0
H143 H 0.14934 0.14825 0.06031 0.0
H144 H 0.11164 0.11314 0.03923 0.0
H145 H 0.11027 0.13894 0.08782 0.0
H146 H 0.17445 0.1999 0.88648 0.0
H147 H 0.14631 0.21236 0.86136 0.0
H148 H 0.13626 0.1696 0.85862 0.0
C149 C 0.85668 0.93553 0.01245 0.0
C150 C 0.87004 0.92193 0.97973 0.0
C151 C 0.86908 0.97001 0.01395 0.0
C152 C 0.89599 0.99125 0.98294 0.0
C153 C 0.90923 0.9775 0.94943 0.0
C154 C 0.89582 0.94298 0.94784 0.0
C155 C 0.85394 0.98376 0.04945 0.0
C156 C 0.93849 -0.00068 0.91669 0.0
C157 C 0.92133 0.08173 0.96006 0.0
C158 C 0.94728 0.09794 -0.00592 0.0
C159 C 0.90341 0.04681 0.95723 0.0
C160 C 0.91231 0.02795 0.9883 0.0
C161 C 0.93834 0.0443 0.02293 0.0
C162 C 0.95523 0.07904 0.02574 0.0
C163 C 0.87535 0.03012 0.92055 0.0
C164 C 0.94915 0.0252 0.05594 0.0
H165 H 0.83657 0.91923 0.03685 0.0
H166 H 0.90631 0.93253 0.92266 0.0
H167 H 0.87219 -0.00168 0.07869 0.0
H168 H 0.84768 0.00092 0.02992 0.0
H169 H 0.8311 0.96382 0.06732 0.0
H170 H 0.94498 0.98463 0.89133 0.0
H171 H 0.93307 0.01605 0.89433 0.0
H172 H 0.96053 0.01529 0.93984 0.0
H173 H 0.91506 0.0963 0.93573 0.0
H174 H 0.97544 0.09148 0.05191 0.0
H175 H 0.85252 0.01095 0.93933 0.0
H176 H 0.88187 0.01725 0.89196 0.0
H177 H 0.86979 0.04811 0.90197 0.0
H178 H 0.92783 0.0067 0.07815 0.0
H179 H 0.96948 0.04169 0.08148 0.0
H180 H 0.95791 0.01127 0.03305 0.0
C181 C 0.95741 0.86102 0.93551 0.0
C182 C 0.93843 0.8449 0.97732 0.0
C183 C 0.9922 0.87958 0.93821 0.0
C184 C 0.0082 0.88132 0.98353 0.0
C185 C 0.98922 0.86247 0.02449 0.0
C186 C 0.95445 0.84479 0.02108 0.0
C187 C 0.0115 0.89965 0.89385 0.0
C188 C 0.00545 0.86289 0.07296 0.0
C189 C 0.10251 0.92425 0.98026 0.0
C190 C 0.11119 0.95638 -0.00416 0.0
C191 C 0.06904 0.89901 0.97782 0.0
C192 C 0.04386 0.90647 0.99001 0.0
C193 C 0.05262 0.93874 0.00666 0.0
C194 C 0.08621 0.96318 0.00992 0.0
C195 C 0.0606 0.86465 0.96117 0.0
C196 C 0.02649 0.94786 0.01934 0.0
H197 H 0.94504 0.8612 0.90166 0.0
H198 H 0.93975 0.83203 0.05334 0.0
H199 H 0.02117 0.92645 0.90124 0.0
H200 H 0.0332 0.89638 0.88675 0.0
H201 H -0.00408 0.89265 0.86002 0.0
H202 H 0.9881 0.84262 0.09794 0.0
H203 H 0.02773 0.86042 0.0668 0.0
H204 H 0.01377 0.887 0.09178 0.0
H205 H 0.12186 0.91894 0.96953 0.0
H206 H 0.09285 0.98807 0.02168 0.0
H207 H 0.04808 0.85918 0.92473 0.0
H208 H 0.04304 0.84568 0.9875 0.0
H209 H 0.08304 0.86206 0.95789 0.0
H210 H 0.01069 0.94425 0.98657 0.0
H211 H 0.03751 0.97406 0.03183 0.0
H212 H 0.01002 0.93136 0.04896 0.0
C213 C 0.81257 0.43359 0.27006 0.0
C214 C 0.83947 0.44206 0.30161 0.0
C215 C 0.7948 0.45064 0.27238 0.0
C216 C 0.80511 0.47755 0.30575 0.0
C217 C 0.83411 0.48797 0.3345 0.0
C218 C 0.85052 0.46954 0.33296 0.0
C219 C 0.76347 0.43811 0.24212 0.0
C220 C 0.84673 0.51741 0.36885 0.0
C221 C 0.76132 0.52719 0.28743 0.0
C222 C 0.73666 0.51342 0.32384 0.0
C223 C 0.78529 0.51737 0.28308 0.0
C224 C 0.78342 0.49209 0.31441 0.0
C225 C 0.75899 0.47878 0.3521 0.0
C226 C 0.73627 0.49014 0.35695 0.0
C227 C 0.81184 0.53317 0.24393 0.0
C228 C 0.75553 0.45112 0.3854 0.0
H229 H 0.8038 0.41196 0.24642 0.0
H230 H 0.8714 0.47599 0.35734 0.0
H231 H 0.74164 0.42819 0.26713 0.0
H232 H 0.76399 0.4587 0.22072 0.0
H233 H 0.75991 0.41811 0.21609 0.0
H234 H 0.87247 0.52582 0.38158 0.0
H235 H 0.84624 0.5385 0.3504 0.0
H236 H 0.83037 0.51056 0.40173 0.0
H237 H 0.76154 0.5453 0.26191 0.0
H238 H 0.71686 0.47922 0.38466 0.0
H239 H 0.80665 0.51517 0.21363 0.0
H240 H 0.83655 0.53999 0.25946 0.0
H241 H 0.81301 0.55578 0.228 0.0
H242 H 0.74998 0.42898 0.36286 0.0
H243 H 0.73543 0.44378 0.41315 0.0
H244 H 0.77919 0.45883 0.40514 0.0
C245 C 0.51889 0.26196 0.27697 0.0
C246 C 0.50224 0.24539 0.32024 0.0
C247 C 0.53252 0.29636 0.27201 0.0
C248 C 0.52888 0.31458 0.31093 0.0
C249 C 0.50974 0.2976 0.35301 0.0
C250 C 0.49688 0.26314 0.35742 0.0
C251 C 0.5532 0.31349 0.22692 0.0
C252 C 0.50469 0.31611 0.39477 0.0
C253 C 0.60113 0.40124 0.33243 0.0
C254 C 0.59013 0.42114 0.3099 0.0
C255 C 0.58141 0.3666 0.33269 0.0
C256 C 0.54943 0.35144 0.31098 0.0
C257 C 0.538 0.37141 0.28836 0.0
C258 C 0.55878 0.40619 0.28745 0.0
C259 C 0.595 0.34625 0.35597 0.0
C260 C 0.50377 0.35607 0.26582 0.0
H261 H 0.523 0.24837 0.24791 0.0
H262 H 0.48375 0.25038 0.39072 0.0
H263 H 0.54652 0.33151 0.21162 0.0
H264 H 0.57985 0.32766 0.23748 0.0
H265 H 0.55018 0.29554 0.19748 0.0
H266 H 0.48479 0.29902 0.42045 0.0
H267 H 0.52814 0.32999 0.416 0.0
H268 H 0.49825 0.33451 0.38024 0.0
H269 H 0.6255 0.41284 0.34952 0.0
H270 H 0.55021 0.42169 0.27049 0.0
H271 H 0.5951 0.32855 0.32855 0.0
H272 H 0.57884 0.33138 0.38704 0.0
H273 H 0.6207 0.36195 0.37016 0.0
H274 H 0.50116 0.33856 0.23602 0.0
H275 H 0.49845 0.37506 0.25028 0.0
H276 H 0.48474 0.34148 0.29419 0.0
C277 C 0.60615 0.21618 0.38119 0.0
C278 C 0.58892 0.19046 0.34707 0.0
C279 C 0.64087 0.23516 0.38061 0.0
C280 C 0.65889 0.22775 0.34573 0.0
C281 C 0.64175 0.20068 0.31285 0.0
C282 C 0.60682 0.18254 0.31348 0.0
C283 C 0.65811 0.26431 0.4155 0.0
C284 C 0.66025 0.19165 0.27588 0.0
C285 C 0.74119 0.30041 0.30508 0.0
C286 C 0.76372 0.29698 0.33538 0.0
C287 C 0.70706 0.27778 0.30776 0.0
C288 C 0.69526 0.25052 0.34064 0.0
C289 C 0.718 0.24642 0.3705 0.0
C290 C 0.75206 0.27008 0.36805 0.0
C291 C 0.68356 0.2836 0.27633 0.0
C292 C 0.70632 0.21723 0.40516 0.0
H293 H 0.59241 0.2225 0.40716 0.0
H294 H 0.59355 0.16252 0.28728 0.0
H295 H 0.67789 0.26288 0.43638 0.0
H296 H 0.67024 0.28782 0.39404 0.0
H297 H 0.64062 0.26551 0.44227 0.0
H298 H 0.6437 0.16756 0.25737 0.0
H299 H 0.67152 0.21129 0.24724 0.0
H300 H 0.68081 0.19015 0.29425 0.0
H301 H 0.75021 0.32136 0.27998 0.0
H302 H 0.76959 0.2673 0.39113 0.0
H303 H 0.66603 0.28684 0.30034 0.0
H304 H 0.66853 0.26171 0.25247 0.0
H305 H 0.69685 0.30594 0.25246 0.0
H306 H 0.69037 0.21871 0.43437 0.0
H307 H 0.72735 0.21631 0.42307 0.0
H308 H 0.69096 0.19365 0.38481 0.0
C309 C 0.44015 0.8275 0.78671 0.0
C310 C 0.4525 0.86092 0.77428 0.0
C311 C 0.45924 0.81225 0.77893 0.0
C312 C 0.49176 0.83116 0.75938 0.0
C313 C 0.50558 0.86572 0.75163 0.0
C314 C 0.48561 0.88019 0.75867 0.0
C315 C 0.44345 0.77526 0.78757 0.0
C316 C 0.54056 0.88694 0.73256 0.0
C317 C 0.53614 0.78167 0.76054 0.0
C318 C 0.52803 0.76709 0.71355 0.0
C319 C 0.52727 0.80525 0.77471 0.0
C320 C 0.5091 0.8136 0.74148 0.0
C321 C 0.5032 0.80088 0.69269 0.0
C322 C 0.51311 0.77801 0.67913 0.0
C323 C 0.53516 0.81925 0.82635 0.0
C324 C 0.48374 0.80902 0.65616 0.0
H325 H 0.41461 0.81251 0.79895 0.0
H326 H 0.49535 0.90614 0.74936 0.0
H327 H 0.44008 0.7624 0.75169 0.0
H328 H 0.45982 0.76978 0.8107 0.0
H329 H 0.41882 0.76465 0.8059 0.0
H330 H 0.54993 0.91381 0.73899 0.0
H331 H 0.55774 0.87999 0.75036 0.0
H332 H 0.54102 0.88298 0.69226 0.0
H333 H 0.54807 0.77351 0.78706 0.0
H334 H 0.50683 0.76677 0.64278 0.0
H335 H 0.51258 0.80617 0.84968 0.0
H336 H 0.54292 0.84606 0.82633 0.0
H337 H 0.55513 0.81609 0.84351 0.0
H338 H 0.45757 0.79778 0.66877 0.0
H339 H 0.48384 0.79948 0.61859 0.0
H340 H 0.49406 0.83627 0.6539 0.0
C341 C 0.30097 0.76737 0.70422 0.0
C342 C 0.29729 0.79374 0.72165 0.0
C343 C 0.27452 0.73456 0.70617 0.0
C344 C 0.2434 0.72799 0.72517 0.0
C345 C 0.23921 0.75461 0.74153 0.0
C346 C 0.26637 0.78723 0.74003 0.0
C347 C 0.28015 0.70683 0.68879 0.0
C348 C 0.20623 0.74859 0.76108 0.0
C349 C 0.17543 0.64325 0.68444 0.0
C350 C 0.17394 0.62356 0.72463 0.0
C351 C 0.19577 0.67792 0.68583 0.0
C352 C 0.21564 0.69304 0.728 0.0
C353 C 0.21223 0.67348 0.77013 0.0
C354 C 0.19108 0.63887 0.7681 0.0
C355 C 0.19801 0.69796 0.64064 0.0
C356 C 0.23319 0.68859 0.81565 0.0
H357 H 0.32488 0.77226 0.6903 0.0
H358 H 0.26346 0.8076 0.75349 0.0
H359 H 0.27492 0.68892 0.7193 0.0
H360 H 0.26282 0.693 0.65821 0.0
H361 H 0.30599 0.71614 0.67571 0.0
H362 H 0.20658 0.77213 0.76984 0.0
H363 H 0.18633 0.73451 0.73361 0.0
H364 H 0.1996 0.73321 0.79502 0.0
H365 H 0.16195 0.6314 0.6509 0.0
H366 H 0.19009 0.62365 0.79912 0.0
H367 H 0.2216 0.70525 0.62087 0.0
H368 H 0.19819 0.72113 0.65118 0.0
H369 H 0.17705 0.68364 0.61477 0.0
H370 H 0.25929 0.69552 0.80751 0.0
H371 H 0.22435 0.67107 0.84737 0.0
H372 H 0.23319 0.7116 0.82654 0.0
C373 C 0.26069 0.54405 0.67233 0.0
C374 C 0.24446 0.5491 0.71209 0.0
C375 C 0.29507 0.55614 0.67383 0.0
C376 C 0.31357 0.57415 0.71572 0.0
C377 C 0.29706 0.57829 0.75662 0.0
C378 C 0.26264 0.56549 0.75444 0.0
C379 C 0.31181 0.55088 0.62977 0.0
C380 C 0.31597 0.59783 0.80158 0.0
C381 C 0.40315 0.59406 0.73061 0.0
C382 C 0.42032 0.62563 0.70893 0.0
C383 C 0.36823 0.57677 0.73312 0.0
C384 C 0.35045 0.59186 0.71443 0.0
C385 C 0.36789 0.62419 0.69395 0.0
C386 C 0.40257 0.6405 0.69103 0.0
C387 C 0.35034 0.54218 0.75466 0.0
C388 C 0.34993 0.64149 0.67469 0.0
H389 H 0.24664 0.53115 0.63971 0.0
H390 H 0.25018 0.56946 0.7853 0.0
H391 H 0.32757 0.57498 0.61086 0.0
H392 H 0.32833 0.54134 0.64178 0.0
H393 H 0.29355 0.53318 0.60273 0.0
H394 H 0.29914 0.59614 0.83199 0.0
H395 H 0.33259 0.58887 0.81537 0.0
H396 H 0.33191 0.62439 0.79145 0.0
H397 H 0.41693 0.58252 0.7442 0.0
H398 H 0.41588 0.66508 0.67465 0.0
H399 H 0.3341 0.52423 0.72617 0.0
H400 H 0.33405 0.54093 0.78551 0.0
H401 H 0.36781 0.53424 0.7685 0.0
H402 H 0.33351 0.62714 0.64352 0.0
H403 H 0.36733 0.66716 0.66172 0.0
H404 H 0.33389 0.64271 0.704 0.0
C405 C 0.01604 0.28486 0.87643 0.0
C406 C 0.03502 0.28455 0.91639 0.0
C407 C 0.02557 0.31436 0.85006 0.0
C408 C 0.05488 0.3439 0.86384 0.0
C409 C 0.07384 0.34369 0.90451 0.0
C410 C 0.06361 0.31407 0.93036 0.0
C411 C 0.00467 0.31383 0.80704 0.0
C412 C 0.10548 0.37457 0.91999 0.0
C413 C 0.10429 0.41053 0.76951 0.0
C414 C 0.09761 0.43574 0.78313 0.0
C415 C 0.08958 0.38009 0.79444 0.0
C416 C 0.06741 0.37458 0.83379 0.0
C417 C 0.05973 0.39951 0.84686 0.0
C418 C 0.07511 0.42998 0.82145 0.0
C419 C 0.09873 0.35429 0.77975 0.0
C420 C 0.03597 0.39429 0.88844 0.0
H421 H 0.99378 0.26212 0.86582 0.0
H422 H 0.07837 0.314 0.96131 0.0
H423 H -0.00185 0.33365 0.81141 0.0
H424 H 0.01909 0.31901 0.77231 0.0
H425 H 0.98138 0.28951 0.80332 0.0
H426 H 0.11661 0.37049 0.95368 0.0
H427 H 0.12401 0.38267 0.8897 0.0
H428 H 0.10053 0.39521 0.92718 0.0
H429 H 0.1216 0.41478 0.73977 0.0
H430 H 0.06969 0.44933 0.83177 0.0
H431 H 0.076 0.33016 0.77217 0.0
H432 H 0.11202 0.35025 0.81063 0.0
H433 H 0.11491 0.36176 0.74653 0.0
H434 H 0.01236 0.3705 0.88333 0.0
H435 H 0.03031 0.41482 0.89104 0.0
H436 H 0.04688 0.39261 0.924 0.0
C437 C 0.74501 0.78778 0.86197 0.0
C438 C 0.76443 0.7736 0.87457 0.0
C439 C 0.715 0.76943 0.83664 0.0
C440 C 0.704 0.73594 0.82398 0.0
C441 C 0.72401 0.72174 0.83519 0.0
C442 C 0.75422 0.74087 0.86027 0.0
C443 C 0.69464 0.78568 0.82458 0.0
C444 C 0.71296 0.68609 0.82227 0.0
C445 C 0.61091 0.68811 0.80512 0.0
C446 C 0.60894 0.6919 0.7542 0.0
C447 C 0.6419 0.70016 0.8282 0.0
C448 C 0.67131 0.71618 0.79945 0.0
C449 C 0.66916 0.71758 0.74756 0.0
C450 C 0.63797 0.70547 0.72556 0.0
C451 C 0.64327 0.698 0.88367 0.0
C452 C 0.6999 0.7342 0.71559 0.0
H453 H 0.75297 0.81314 0.87288 0.0
H454 H 0.76912 0.72981 0.87045 0.0
H455 H 0.68962 0.78414 0.78435 0.0
H456 H 0.67027 0.77235 0.84368 0.0
H457 H 0.70726 0.81224 0.83577 0.0
H458 H 0.73254 0.67963 0.82997 0.0
H459 H 0.6905 0.66925 0.84402 0.0
H460 H 0.70604 0.68132 0.7827 0.0
H461 H 0.58846 0.67741 0.82726 0.0
H462 H 0.63648 0.70796 0.68598 0.0
H463 H 0.65251 0.72305 0.89988 0.0
H464 H 0.66082 0.6895 0.89457 0.0
H465 H 0.61847 0.68083 0.89977 0.0
H466 H 0.71244 0.76153 0.72091 0.0
H467 H 0.69391 0.72876 0.67578 0.0
H468 H 0.71781 0.72611 0.72628 0.0
C469 C 0.37747 0.98576 0.79342 0.0
C470 C 0.36994 0.95581 0.81676 0.0
C471 C 0.36311 0.00443 0.80943 0.0
C472 C 0.34093 0.99291 0.84989 0.0
C473 C 0.33543 0.96417 0.87609 0.0
C474 C 0.34998 0.94587 0.85909 0.0
C475 C 0.36974 0.03503 0.78075 0.0
C476 C 0.31234 0.95145 0.92 0.0
C477 C 0.30991 0.04505 0.91289 0.0
C478 C 0.27749 0.03072 0.89401 0.0
C479 C 0.33161 0.03411 0.89724 0.0
C480 C 0.32063 0.00852 0.86161 0.0
C481 C 0.28884 0.99579 0.83976 0.0
C482 C 0.26757 0.00698 0.85639 0.0
C483 C 0.36533 0.04833 0.92128 0.0
C484 C 0.27649 0.96887 0.80094 0.0
H485 H 0.39305 0.99367 0.76076 0.0
H486 H 0.34423 0.92283 0.87734 0.0
H487 H 0.34738 0.02951 0.75883 0.0
H488 H 0.3748 0.05579 0.80609 0.0
H489 H 0.3911 0.04333 0.75506 0.0
H490 H 0.31357 0.93103 0.93943 0.0
H491 H 0.31846 0.97186 0.94662 0.0
H492 H 0.28638 0.942 0.90751 0.0
H493 H 0.31768 0.0634 0.9421 0.0
H494 H 0.24259 0.99596 0.84161 0.0
H495 H 0.38491 0.05442 0.89315 0.0
H496 H 0.36538 0.02951 0.94646 0.0
H497 H 0.37187 0.07107 0.94303 0.0
H498 H 0.29505 0.97597 0.77089 0.0
H499 H 0.25246 0.9638 0.78461 0.0
H500 H 0.27306 0.94553 0.81763 0.0
C501 C 0.3712 0.08359 0.28211 0.0
C502 C 0.40191 0.09901 0.25762 0.0
C503 C 0.34133 0.06896 0.25564 0.0
C504 C 0.34234 0.07048 0.20354 0.0
C505 C 0.37328 0.08479 0.17856 0.0
C506 C 0.40281 0.09866 0.20603 0.0
C507 C 0.30879 0.05324 0.28346 0.0
C508 C 0.37526 0.08706 0.12293 0.0
C509 C 0.26686 0.02023 0.12275 0.0
C510 C 0.25804 0.04418 0.11085 0.0
C511 C 0.29331 0.02782 0.15507 0.0
C512 C 0.31142 0.06019 0.17521 0.0
C513 C 0.30127 0.08375 0.16566 0.0
C514 C 0.27449 0.07534 0.13386 0.0
C515 C 0.30296 0.00184 0.1655 0.0
C516 C 0.31998 0.11856 0.18652 0.0
H517 H 0.3705 0.08346 0.32212 0.0
H518 H 0.42659 0.11058 0.18717 0.0
H519 H 0.29718 0.06898 0.27977 0.0
H520 H 0.29119 0.0285 0.26773 0.0
H521 H 0.31217 0.05025 0.32337 0.0
H522 H 0.40106 0.09705 0.10918 0.0
H523 H 0.35924 0.06222 0.1063 0.0
H524 H 0.36592 0.10355 0.1099 0.0
H525 H 0.25409 0.99604 0.10513 0.0
H526 H 0.2677 0.09392 0.12482 0.0
H527 H 0.30715 0.00068 0.20559 0.0
H528 H 0.32662 0.00863 0.14633 0.0
H529 H 0.28371 0.97676 0.15275 0.0
H530 H 0.32209 0.11773 0.2272 0.0
H531 H 0.30779 0.13329 0.17762 0.0
H532 H 0.3456 0.13172 0.17132 0.0
C533 C 0.986 0.25614 0.14135 0.0
C534 C 0.96641 0.23381 0.1044 0.0
C535 C 0.97388 0.27318 0.16949 0.0
C536 C 0.94144 0.26755 0.16041 0.0
C537 C 0.92123 0.24423 0.12422 0.0
C538 C 0.93398 0.22766 0.09662 0.0
C539 C -0.00395 0.29782 0.20798 0.0
C540 C 0.88639 0.23735 0.11383 0.0
C541 C 0.89766 0.28981 0.25816 0.0
C542 C 0.90166 0.31989 0.24001 0.0
C543 C 0.91087 0.27274 0.23293 0.0
C544 C 0.92854 0.28611 0.1885 0.0
C545 C 0.93285 0.31657 0.17006 0.0
C546 C 0.91928 0.33314 0.19608 0.0
C547 C 0.90563 0.24024 0.25357 0.0
C548 C 0.95158 0.33151 0.1227 0.0
H549 H 0.01115 0.26107 0.14726 0.0
H550 H 0.91873 0.21037 0.06809 0.0
H551 H 0.00095 0.32307 0.19816 0.0
H552 H 0.98345 0.29147 0.24441 0.0
H553 H 0.02022 0.29853 0.2116 0.0
H554 H 0.87358 0.21774 0.08542 0.0
H555 H 0.87136 0.22943 0.14816 0.0
H556 H 0.88721 0.26041 0.10087 0.0
H557 H 0.88408 0.27947 0.29219 0.0
H558 H 0.9225 0.35643 0.18208 0.0
H559 H 0.92994 0.24164 0.25931 0.0
H560 H 0.89141 0.21989 0.22683 0.0
H561 H 0.89196 0.23366 0.28921 0.0
H562 H 0.97702 0.33514 0.12526 0.0
H563 H 0.95349 0.35579 0.11409 0.0
H564 H 0.93892 0.31423 0.09154 0.0
C565 C 0.68336 0.60654 0.1832 0.0
C566 C 0.69027 0.60779 0.23373 0.0
C567 C 0.70004 0.63514 0.15372 0.0
C568 C 0.72423 0.66545 0.1754 0.0
C569 C 0.73017 0.66711 0.22678 0.0
C570 C 0.71304 0.63827 0.25532 0.0
C571 C 0.69283 0.63261 0.09907 0.0
C572 C 0.75588 0.6989 0.25123 0.0
C573 C 0.79551 0.72504 0.09398 0.0
C574 C 0.78701 0.74943 0.08392 0.0
C575 C 0.77536 0.69776 0.12406 0.0
C576 C 0.7457 0.69454 0.14387 0.0
C577 C 0.73709 0.71925 0.1342 0.0
C578 C 0.75807 0.74666 0.10457 0.0
C579 C 0.78574 0.67227 0.13436 0.0
C580 C 0.70546 0.71639 0.15434 0.0
H581 H 0.66563 0.58306 0.16646 0.0
H582 H 0.71833 0.63946 0.29448 0.0
H583 H 0.68832 0.65287 0.08714 0.0
H584 H 0.71472 0.63554 0.07827 0.0
H585 H 0.67092 0.60835 0.08892 0.0
H586 H 0.75544 0.69673 0.2921 0.0
H587 H 0.78102 0.70542 0.23796 0.0
H588 H 0.75183 0.71976 0.2412 0.0
H589 H 0.81794 0.72721 0.0781 0.0
H590 H 0.75132 0.76536 0.09635 0.0
H591 H 0.76653 0.64757 0.12046 0.0
H592 H 0.78793 0.66987 0.17475 0.0
H593 H 0.80989 0.67882 0.11684 0.0
H594 H 0.6837 0.69324 0.1405 0.0
H595 H 0.70249 0.73786 0.14369 0.0
H596 H 0.70516 0.71468 0.1952 0.0
C597 C 0.07689 0.47091 0.55456 0.0
C598 C 0.07545 0.49061 0.59254 0.0
C599 C 0.05101 0.45564 0.52009 0.0
C600 C 0.0235 0.4608 0.52335 0.0
C601 C 0.02248 0.48152 0.56075 0.0
C602 C 0.04836 0.49595 0.59521 0.0
C603 C 0.05269 0.43334 0.48102 0.0
C604 C 0.99384 0.48811 0.56474 0.0
C605 C 0.9693 0.44387 0.41036 0.0
C606 C 0.94154 0.41313 0.42234 0.0
C607 C -0.00381 0.45971 0.44295 0.0
C608 C -0.00455 0.44411 0.48815 0.0
C609 C 0.96763 0.41288 0.50021 0.0
C610 C 0.94081 0.39786 0.46726 0.0
C611 C 0.02519 0.49328 0.42927 0.0
C612 C 0.96625 0.39534 0.54785 0.0
H613 H 0.09775 0.4666 0.55269 0.0
H614 H 0.04732 0.51133 0.62447 0.0
H615 H 0.03128 0.40776 0.48518 0.0
H616 H 0.05089 0.44221 0.44375 0.0
H617 H 0.07603 0.4323 0.48315 0.0
H618 H -0.00239 0.50607 0.59459 0.0
H619 H 0.9905 0.49806 0.52929 0.0
H620 H 0.97046 0.46452 0.5722 0.0
H621 H 0.96985 0.45579 0.37568 0.0
H622 H 0.91943 0.37399 0.47641 0.0
H623 H 0.04847 0.49214 0.42852 0.0
H624 H 0.02841 0.51194 0.45755 0.0
H625 H 0.02185 0.50203 0.39269 0.0
H626 H 0.98814 0.39184 0.55059 0.0
H627 H 0.94331 0.37066 0.55089 0.0
H628 H 0.96726 0.41078 0.57975 0.0
C629 C 0.61761 0.56808 0.46198 0.0
C630 C 0.60281 0.55173 0.4178 0.0
C631 C 0.60265 0.58179 0.49134 0.0
C632 C 0.57219 0.579 0.47605 0.0
C633 C 0.55678 0.56189 0.43202 0.0
C634 C 0.5723 0.54845 0.40337 0.0
C635 C 0.6197 0.59977 0.53829 0.0
C636 C 0.52423 0.55831 0.41477 0.0
C637 C 0.52362 0.59206 0.57692 0.0
C638 C 0.53375 0.62579 0.57078 0.0
C639 C 0.53486 0.57607 0.54501 0.0
C640 C 0.55674 0.59432 0.50612 0.0
C641 C 0.56556 0.62787 0.49805 0.0
C642 C 0.55389 0.64325 0.53054 0.0
C643 C 0.5247 0.54017 0.5545 0.0
C644 C 0.5887 0.648 0.45667 0.0
H645 H 0.64121 0.57069 0.47318 0.0
H646 H 0.56076 0.53581 0.36919 0.0
H647 H 0.62581 0.62608 0.53612 0.0
H648 H 0.60278 0.58835 0.57024 0.0
H649 H 0.64298 0.59922 0.54538 0.0
H650 H 0.51499 0.54333 0.38046 0.0
H651 H 0.50505 0.54635 0.44392 0.0
H652 H 0.5273 0.58323 0.40779 0.0
H653 H 0.5079 0.57842 0.60789 0.0
H654 H 0.56176 0.66933 0.52572 0.0
H655 H 0.54667 0.53857 0.56664 0.0
H656 H 0.51532 0.52539 0.5201 0.0
H657 H 0.50518 0.5287 0.58336 0.0
H658 H 0.61381 0.65155 0.46369 0.0
H659 H 0.59089 0.67284 0.45291 0.0
H660 H 0.57987 0.63456 0.42111 0.0
C661 C 0.3785 0.93921 0.57609 0.0
C662 C 0.40241 0.93413 0.59979 0.0
C663 C 0.3879 0.96437 0.54062 0.0
C664 C 0.422 0.985 0.52922 0.0
C665 C 0.44599 0.97871 0.55099 0.0
C666 C 0.43585 0.95315 0.5858 0.0
C667 C 0.36157 0.96992 0.51725 0.0
C668 C 0.48259 0.00023 0.53978 0.0
C669 C 0.449 0.04029 0.41611 0.0
C670 C 0.45629 0.07101 0.43636 0.0
C671 C 0.43708 0.01187 0.4457 0.0
C672 C 0.4329 0.01441 0.49687 0.0
C673 C 0.44014 0.04535 0.51756 0.0
C674 C 0.45151 0.0733 0.48688 0.0
C675 C 0.4291 0.97919 0.42227 0.0
C676 C 0.43632 0.049 0.57219 0.0
H677 H 0.3526 0.92448 0.58673 0.0
H678 H 0.45444 0.94931 0.60403 0.0
H679 H 0.36421 0.99366 0.5308 0.0
H680 H 0.3647 0.97199 0.47657 0.0
H681 H 0.33604 0.94955 0.52593 0.0
H682 H 0.49779 0.99068 0.55734 0.0
H683 H 0.48693 0.00184 0.49936 0.0
H684 H 0.49146 0.02586 0.55334 0.0
H685 H 0.45235 0.03836 0.37688 0.0
H686 H 0.45713 0.09703 0.50254 0.0
H687 H 0.40307 0.95998 0.43069 0.0
H688 H 0.44541 0.97038 0.43791 0.0
H689 H 0.4324 0.98117 0.38156 0.0
H690 H 0.41033 0.03176 0.58377 0.0
H691 H 0.44285 0.07474 0.58236 0.0
H692 H 0.45252 0.04219 0.59331 0.0
loop_
_geom_bond_atom_site_label_1
_geom_bond_atom_site_label_2
_geom_bond_distance
_geom_bond_site_symmetry_2
_ccdc_geom_bond_type
In0 O1 2.294 1_554 S
In0 O2 2.326 1_554 S
In0 O6 2.266 1_454 S
In0 O7 2.326 1_455 S
In0 O8 2.266 . S
In0 O9 2.326 1_554 S
In0 O11 2.294 . S
In0 O12 2.326 1_455 S
O1 In0 2.294 1_556 S
O1 C10 1.240 . S
O2 In0 2.326 1_556 S
O2 C10 1.252 . S
C3 O6 1.252 1_554 S
C3 O7 1.260 . S
C4 O11 1.240 1_655 S
C4 O12 1.252 . S
C5 O8 1.252 . S
C5 O9 1.260 1_554 S
O6 In0 2.266 1_656 S
O6 C3 1.252 1_556 S
O7 In0 2.326 1_655 S
O7 C3 1.260 . S
O8 In0 2.266 . S
O8 C5 1.252 . S
O9 In0 2.326 1_556 S
O9 C5 1.260 1_556 S
C10 O1 1.240 . S
C10 O2 1.252 . S
O11 In0 2.294 . S
O11 C4 1.240 1_455 S
O12 In0 2.326 1_655 S
O12 C4 1.252 . S
In13 O14 2.294 1_554 S
In13 O15 2.326 1_554 S
In13 O19 2.266 1_554 S
In13 O20 2.326 . S
In13 O21 2.266 . S
In13 O22 2.326 1_554 S
In13 O24 2.294 . S
In13 O25 2.326 . S
O14 In13 2.294 1_556 S
O14 C23 1.240 . S
O15 In13 2.326 1_556 S
O15 C23 1.252 . S
C16 O19 1.252 1_554 S
C16 O20 1.260 . S
C17 O24 1.240 . S
C17 O25 1.252 . S
C18 O21 1.252 . S
C18 O22 1.260 1_554 S
O19 In13 2.266 1_556 S
O19 C16 1.252 1_556 S
O20 In13 2.326 . S
O20 C16 1.260 . S
O21 In13 2.266 . S
O21 C18 1.252 . S
O22 In13 2.326 1_556 S
O22 C18 1.260 1_556 S
C23 O14 1.240 . S
C23 O15 1.252 . S
O24 In13 2.294 . S
O24 C17 1.240 . S
O25 In13 2.326 . S
O25 C17 1.252 . S
In26 O27 2.294 . S
In26 O28 2.326 . S
In26 O32 2.266 1_545 S
In26 O33 2.326 1_544 S
In26 O34 2.266 1_554 S
In26 O35 2.326 . S
In26 O37 2.294 1_554 S
In26 O38 2.326 1_544 S
O27 In26 2.294 . S
O27 C36 1.240 . S
O28 In26 2.326 . S
O28 C36 1.252 . S
C29 O32 1.252 . S
C29 O33 1.260 1_554 S
C30 O37 1.255 . S
C30 O38 1.248 1_545 S
C31 O34 1.252 1_554 S
C31 O35 1.260 . S
O32 In26 2.266 1_565 S
O32 C29 1.252 . S
O33 In26 2.326 1_566 S
O33 C29 1.260 1_556 S
O34 In26 2.266 1_556 S
O34 C31 1.252 1_556 S
O35 In26 2.326 . S
O35 C31 1.260 . S
C36 O27 1.240 . S
C36 O28 1.252 . S
O37 In26 2.294 1_556 S
O37 C30 1.255 . S
O38 In26 2.326 1_566 S
O38 C30 1.248 1_565 S
In39 O40 2.294 . S
In39 O41 2.326 . S
In39 O45 2.266 . S
In39 O46 2.326 . S
In39 O47 2.266 . S
In39 O48 2.326 . S
In39 O50 2.294 . S
In39 O51 2.326 . S
O40 In39 2.294 . S
O40 C49 1.240 . S
O41 In39 2.326 . S
O41 C49 1.252 . S
C42 O45 1.252 . S
C42 O46 1.260 . S
C43 O50 1.240 . S
C43 O51 1.252 . S
C44 O47 1.252 . S
C44 O48 1.260 . S
O45 In39 2.266 . S
O45 C42 1.252 . S
O46 In39 2.326 . S
O46 C42 1.260 . S
O47 In39 2.266 . S
O47 C44 1.252 . S
O48 In39 2.326 . S
O48 C44 1.260 . S
C49 O40 1.240 . S
C49 O41 1.252 . S
O50 In39 2.294 . S
O50 C43 1.240 . S
O51 In39 2.326 . S
O51 C43 1.252 . S
In52 O53 2.294 . S
In52 O54 2.326 . S
In52 O58 2.266 . S
In52 O59 2.326 . S
In52 O60 2.266 . S
In52 O61 2.326 . S
In52 O63 2.294 . S
In52 O64 2.326 . S
O53 In52 2.294 . S
O53 C62 1.240 . S
O54 In52 2.326 . S
O54 C62 1.252 . S
C55 O58 1.252 . S
C55 O59 1.260 . S
C56 O63 1.240 . S
C56 O64 1.252 . S
C57 O60 1.252 . S
C57 O61 1.260 . S
O58 In52 2.266 . S
O58 C55 1.252 . S
O59 In52 2.326 . S
O59 C55 1.260 . S
O60 In52 2.266 . S
O60 C57 1.252 . S
O61 In52 2.326 . S
O61 C57 1.260 . S
C62 O53 1.240 . S
C62 O54 1.252 . S
O63 In52 2.294 . S
O63 C56 1.240 . S
O64 In52 2.326 . S
O64 C56 1.252 . S
In65 O66 2.294 . S
In65 O67 2.326 . S
In65 O71 2.266 . S
In65 O72 2.326 . S
In65 O73 2.266 . S
In65 O74 2.326 . S
In65 O76 2.294 . S
In65 O77 2.326 . S
O66 In65 2.294 . S
O66 C75 1.240 . S
O67 In65 2.326 . S
O67 C75 1.252 . S
C68 O71 1.252 . S
C68 O72 1.260 . S
C69 O76 1.240 . S
C69 O77 1.252 . S
C70 O73 1.252 . S
C70 O74 1.260 . S
O71 In65 2.266 . S
O71 C68 1.252 . S
O72 In65 2.326 . S
O72 C68 1.260 . S
O73 In65 2.266 . S
O73 C70 1.252 . S
O74 In65 2.326 . S
O74 C70 1.260 . S
C75 O66 1.240 . S
C75 O67 1.252 . S
O76 In65 2.294 . S
O76 C69 1.240 . S
O77 In65 2.326 . S
O77 C69 1.252 . S
In78 O79 2.294 . S
In78 O80 2.326 . S
In78 O84 2.266 . S
In78 O85 2.326 . S
In78 O86 2.266 . S
In78 O87 2.326 . S
In78 O89 2.294 . S
In78 O90 2.326 . S
O79 In78 2.294 . S
O79 C88 1.240 . S
O80 In78 2.326 . S
O80 C88 1.252 . S
C81 O84 1.252 . S
C81 O85 1.260 . S
C82 O89 1.240 . S
C82 O90 1.252 . S
C83 O86 1.252 . S
C83 O87 1.260 . S
O84 In78 2.266 . S
O84 C81 1.252 . S
O85 In78 2.326 . S
O85 C81 1.260 . S
O86 In78 2.266 . S
O86 C83 1.252 . S
O87 In78 2.326 . S
O87 C83 1.260 . S
C88 O79 1.240 . S
C88 O80 1.252 . S
O89 In78 2.294 . S
O89 C82 1.240 . S
O90 In78 2.326 . S
O90 C82 1.252 . S
In91 O92 2.294 . S
In91 O93 2.326 . S
In91 O97 2.266 . S
In91 O98 2.326 . S
In91 O99 2.266 . S
In91 O100 2.326 . S
In91 O102 2.294 . S
In91 O103 2.326 . S
O92 In91 2.294 . S
O92 C101 1.240 . S
O93 In91 2.326 . S
O93 C101 1.252 . S
C94 O97 1.252 . S
C94 O98 1.260 . S
C95 O102 1.240 . S
C95 O103 1.252 . S
C96 O99 1.252 . S
C96 O100 1.260 . S
O97 In91 2.266 . S
O97 C94 1.252 . S
O98 In91 2.326 . S
O98 C94 1.260 . S
O99 In91 2.266 . S
O99 C96 1.252 . S
O100 In91 2.326 . S
O100 C96 1.260 . S
C101 O92 1.240 . S
C101 O93 1.252 . S
O102 In91 2.294 . S
O102 C95 1.240 . S
O103 In91 2.326 . S
O103 C95 1.252 . S
In104 O105 2.294 . S
In104 O106 2.326 . S
In104 O110 2.266 . S
In104 O111 2.326 . S
In104 O112 2.266 . S
In104 O113 2.326 . S
In104 O115 2.294 . S
In104 O116 2.326 . S
O105 In104 2.294 . S
O105 C114 1.240 . S
O106 In104 2.326 . S
O106 C114 1.252 . S
C107 O110 1.252 . S
C107 O111 1.260 . S
C108 O115 1.240 . S
C108 O116 1.252 . S
C109 O112 1.252 . S
C109 O113 1.260 . S
O110 In104 2.266 . S
O110 C107 1.252 . S
O111 In104 2.326 . S
O111 C107 1.260 . S
O112 In104 2.266 . S
O112 C109 1.252 . S
O113 In104 2.326 . S
O113 C109 1.260 . S
C114 O105 1.240 . S
C114 O106 1.252 . S
O115 In104 2.294 . S
O115 C108 1.240 . S
O116 In104 2.326 . S
O116 C108 1.252 . S
C117 C118 1.391 . S
C117 C119 1.394 . S
C117 H133 0.931 . S
C118 C117 1.391 . S
C118 C122 1.376 1_554 S
C119 C117 1.394 . S
C119 C120 1.369 . S
C119 C123 1.531 . S
C120 C119 1.369 . S
C120 C121 1.410 1_554 S
C120 C128 1.503 . S
C121 C120 1.410 1_556 S
C121 C122 1.392 . S
C121 C124 1.511 . S
C122 C118 1.376 1_556 S
C122 C121 1.392 . S
C122 H134 0.929 . S
C123 C119 1.531 . S
C123 H135 0.960 . S
C123 H136 0.962 . S
C123 H137 0.960 . S
C124 C121 1.511 . S
C124 H138 0.961 . S
C124 H139 0.961 . S
C124 H140 0.961 . S
C125 C126 1.370 . S
C125 C127 1.363 . S
C125 H141 0.931 . S
C126 C125 1.370 . S
C126 C130 1.408 1_554 S
C127 C125 1.363 . S
C127 C128 1.370 . S
C127 C131 1.524 . S
C128 C120 1.503 . S
C128 C127 1.370 . S
C128 C129 1.403 1_554 S
C129 C128 1.403 1_556 S
C129 C130 1.404 . S
C129 C132 1.539 . S
C130 C126 1.408 1_556 S
C130 C129 1.404 . S
C130 H142 0.930 . S
C131 C127 1.524 . S
C131 H143 0.956 . S
C131 H144 0.961 . S
C131 H145 0.961 . S
C132 C129 1.539 . S
C132 H146 0.958 . S
C132 H147 0.961 . S
C132 H148 0.960 . S
H133 C117 0.931 . S
H134 C122 0.929 . S
H135 C123 0.960 . S
H136 C123 0.962 . S
H137 C123 0.960 . S
H138 C124 0.961 . S
H139 C124 0.961 . S
H140 C124 0.961 . S
H141 C125 0.931 . S
H142 C130 0.930 . S
H143 C131 0.956 . S
H144 C131 0.961 . S
H145 C131 0.961 . S
H146 C132 0.958 . S
H147 C132 0.961 . S
H148 C132 0.960 . S
C149 C150 1.391 . S
C149 C151 1.394 . S
C149 H165 0.931 . S
C150 C149 1.391 . S
C150 C154 1.376 1_554 S
C151 C149 1.394 . S
C151 C152 1.369 1_565 S
C151 C155 1.531 1_565 S
C152 C151 1.369 1_545 S
C152 C153 1.410 1_544 S
C152 C160 1.503 . S
C153 C152 1.410 1_566 S
C153 C154 1.392 . S
C153 C156 1.511 1_565 S
C154 C150 1.376 1_556 S
C154 C153 1.392 . S
C154 H166 0.929 . S
C155 C151 1.531 1_545 S
C155 H167 0.960 . S
C155 H168 0.962 . S
C155 H169 0.960 1_545 S
C156 C153 1.511 1_545 S
C156 H170 0.961 1_545 S
C156 H171 0.961 . S
C156 H172 0.961 . S
C157 C158 1.370 1_556 S
C157 C159 1.363 . S
C157 H173 0.931 . S
C158 C157 1.370 1_554 S
C158 C162 1.408 . S
C159 C157 1.363 . S
C159 C160 1.370 1_556 S
C159 C163 1.524 . S
C160 C152 1.503 . S
C160 C159 1.370 1_554 S
C160 C161 1.403 . S
C161 C160 1.403 . S
C161 C162 1.404 . S
C161 C164 1.539 . S
C162 C158 1.408 . S
C162 C161 1.404 . S
C162 H174 0.930 . S
C163 C159 1.524 . S
C163 H175 0.956 . S
C163 H176 0.961 . S
C163 H177 0.961 . S
C164 C161 1.539 . S
C164 H178 0.958 . S
C164 H179 0.961 . S
C164 H180 0.960 . S
H165 C149 0.931 . S
H166 C154 0.929 . S
H167 C155 0.960 . S
H168 C155 0.962 . S
H169 C155 0.960 1_565 S
H170 C156 0.961 1_565 S
H171 C156 0.961 . S
H172 C156 0.961 . S
H173 C157 0.931 . S
H174 C162 0.930 . S
H175 C163 0.956 . S
H176 C163 0.961 . S
H177 C163 0.961 . S
H178 C164 0.958 . S
H179 C164 0.961 . S
H180 C164 0.960 . S
C181 C182 1.391 1_556 S
C181 C183 1.394 . S
C181 H197 0.931 . S
C182 C181 1.391 1_554 S
C182 C186 1.376 . S
C183 C181 1.394 . S
C183 C184 1.369 1_556 S
C183 C187 1.531 1_655 S
C184 C183 1.369 1_554 S
C184 C185 1.410 . S
C184 C192 1.503 1_655 S
C185 C184 1.410 . S
C185 C186 1.392 . S
C185 C188 1.511 . S
C186 C182 1.376 . S
C186 C185 1.392 . S
C186 H198 0.929 . S
C187 C183 1.531 1_455 S
C187 H199 0.960 . S
C187 H200 0.962 . S
C187 H201 0.960 1_455 S
C188 C185 1.511 . S
C188 H202 0.961 . S
C188 H203 0.961 1_655 S
C188 H204 0.950 . S
C189 C190 1.370 . S
C189 C191 1.363 . S
C189 H205 0.931 . S
C190 C189 1.370 . S
C190 C194 1.408 . S
C191 C189 1.363 . S
C191 C192 1.370 . S
C191 C195 1.524 . S
C192 C184 1.503 1_455 S
C192 C191 1.370 . S
C192 C193 1.403 . S
C193 C192 1.403 . S
C193 C194 1.404 . S
C193 C196 1.539 1_554 S
C194 C190 1.408 . S
C194 C193 1.404 . S
C194 H206 0.930 1_565 S
C195 C191 1.524 . S
C195 H207 0.956 . S
C195 H208 0.961 . S
C195 H209 0.961 . S
C196 C193 1.539 1_556 S
C196 H210 0.958 . S
C196 H211 0.961 1_566 S
C196 H212 0.960 1_556 S
H197 C181 0.931 . S
H198 C186 0.929 . S
H199 C187 0.960 . S
H200 C187 0.962 . S
H201 C187 0.960 1_655 S
H202 C188 0.961 . S
H203 C188 0.961 1_455 S
H204 C188 0.950 . S
H205 C189 0.931 . S
H206 C194 0.930 1_545 S
H207 C195 0.956 . S
H208 C195 0.961 . S
H209 C195 0.961 . S
H210 C196 0.958 . S
H211 C196 0.961 1_544 S
H212 C196 0.960 1_554 S
C213 C214 1.391 . S
C213 C215 1.394 . S
C213 H229 0.931 . S
C214 C213 1.391 . S
C214 C218 1.376 . S
C215 C213 1.394 . S
C215 C216 1.369 . S
C215 C219 1.531 . S
C216 C215 1.369 . S
C216 C217 1.410 . S
C216 C224 1.503 . S
C217 C216 1.410 . S
C217 C218 1.392 . S
C217 C220 1.511 . S
C218 C214 1.376 . S
C218 C217 1.392 . S
C218 H230 0.929 . S
C219 C215 1.531 . S
C219 H231 0.960 . S
C219 H232 0.962 . S
C219 H233 0.960 . S
C220 C217 1.511 . S
C220 H234 0.961 . S
C220 H235 0.961 . S
C220 H236 0.961 . S
C221 C222 1.370 . S
C221 C223 1.363 . S
C221 H237 0.931 . S
C222 C221 1.370 . S
C222 C226 1.408 . S
C223 C221 1.363 . S
C223 C224 1.370 . S
C223 C227 1.524 . S
C224 C216 1.503 . S
C224 C223 1.370 . S
C224 C225 1.403 . S
C225 C224 1.403 . S
C225 C226 1.404 . S
C225 C228 1.539 . S
C226 C222 1.408 . S
C226 C225 1.404 . S
C226 H238 0.930 . S
C227 C223 1.524 . S
C227 H239 0.956 . S
C227 H240 0.961 . S
C227 H241 0.961 . S
C228 C225 1.539 . S
C228 H242 0.958 . S
C228 H243 0.961 . S
C228 H244 0.960 . S
H229 C213 0.931 . S
H230 C218 0.929 . S
H231 C219 0.960 . S
H232 C219 0.962 . S
H233 C219 0.960 . S
H234 C220 0.961 . S
H235 C220 0.961 . S
H236 C220 0.961 . S
H237 C221 0.931 . S
H238 C226 0.930 . S
H239 C227 0.956 . S
H240 C227 0.961 . S
H241 C227 0.961 . S
H242 C228 0.958 . S
H243 C228 0.961 . S
H244 C228 0.960 . S
C245 C246 1.391 . S
C245 C247 1.394 . S
C245 H261 0.931 . S
C246 C245 1.391 . S
C246 C250 1.376 . S
C247 C245 1.394 . S
C247 C248 1.369 . S
C247 C251 1.531 . S
C248 C247 1.369 . S
C248 C249 1.410 . S
C248 C256 1.503 . S
C249 C248 1.410 . S
C249 C250 1.392 . S
C249 C252 1.511 . S
C250 C246 1.376 . S
C250 C249 1.392 . S
C250 H262 0.929 . S
C251 C247 1.531 . S
C251 H263 0.960 . S
C251 H264 0.962 . S
C251 H265 0.960 . S
C252 C249 1.511 . S
C252 H266 0.961 . S
C252 H267 0.961 . S
C252 H268 0.961 . S
C253 C254 1.370 . S
C253 C255 1.363 . S
C253 H269 0.931 . S
C254 C253 1.370 . S
C254 C258 1.408 . S
C255 C253 1.363 . S
C255 C256 1.370 . S
C255 C259 1.524 . S
C256 C248 1.503 . S
C256 C255 1.370 . S
C256 C257 1.403 . S
C257 C256 1.403 . S
C257 C258 1.404 . S
C257 C260 1.539 . S
C258 C254 1.408 . S
C258 C257 1.404 . S
C258 H270 0.930 . S
C259 C255 1.524 . S
C259 H271 0.956 . S
C259 H272 0.961 . S
C259 H273 0.961 . S
C260 C257 1.539 . S
C260 H274 0.958 . S
C260 H275 0.961 . S
C260 H276 0.960 . S
H261 C245 0.931 . S
H262 C250 0.929 . S
H263 C251 0.960 . S
H264 C251 0.962 . S
H265 C251 0.960 . S
H266 C252 0.961 . S
H267 C252 0.961 . S
H268 C252 0.961 . S
H269 C253 0.931 . S
H270 C258 0.930 . S
H271 C259 0.956 . S
H272 C259 0.961 . S
H273 C259 0.961 . S
H274 C260 0.958 . S
H275 C260 0.961 . S
H276 C260 0.960 . S
C277 C278 1.391 . S
C277 C279 1.394 . S
C277 H293 0.931 . S
C278 C277 1.391 . S
C278 C282 1.376 . S
C279 C277 1.394 . S
C279 C280 1.369 . S
C279 C283 1.531 . S
C280 C279 1.369 . S
C280 C281 1.410 . S
C280 C288 1.503 . S
C281 C280 1.410 . S
C281 C282 1.392 . S
C281 C284 1.511 . S
C282 C278 1.376 . S
C282 C281 1.392 . S
C282 H294 0.929 . S
C283 C279 1.531 . S
C283 H295 0.960 . S
C283 H296 0.962 . S
C283 H297 0.960 . S
C284 C281 1.511 . S
C284 H298 0.961 . S
C284 H299 0.961 . S
C284 H300 0.961 . S
C285 C286 1.370 . S
C285 C287 1.363 . S
C285 H301 0.931 . S
C286 C285 1.370 . S
C286 C290 1.408 . S
C287 C285 1.363 . S
C287 C288 1.370 . S
C287 C291 1.524 . S
C288 C280 1.503 . S
C288 C287 1.370 . S
C288 C289 1.403 . S
C289 C288 1.403 . S
C289 C290 1.404 . S
C289 C292 1.539 . S
C290 C286 1.408 . S
C290 C289 1.404 . S
C290 H302 0.930 . S
C291 C287 1.524 . S
C291 H303 0.956 . S
C291 H304 0.961 . S
C291 H305 0.961 . S
C292 C289 1.539 . S
C292 H306 0.958 . S
C292 H307 0.961 . S
C292 H308 0.960 . S
H293 C277 0.931 . S
H294 C282 0.929 . S
H295 C283 0.960 . S
H296 C283 0.962 . S
H297 C283 0.960 . S
H298 C284 0.961 . S
H299 C284 0.961 . S
H300 C284 0.961 . S
H301 C285 0.931 . S
H302 C290 0.930 . S
H303 C291 0.956 . S
H304 C291 0.961 . S
H305 C291 0.961 . S
H306 C292 0.958 . S
H307 C292 0.961 . S
H308 C292 0.960 . S
C309 C310 1.391 . S
C309 C311 1.394 . S
C309 H325 0.931 . S
C310 C309 1.391 . S
C310 C314 1.376 . S
C311 C309 1.394 . S
C311 C312 1.369 . S
C311 C315 1.531 . S
C312 C311 1.369 . S
C312 C313 1.410 . S
C312 C320 1.503 . S
C313 C312 1.410 . S
C313 C314 1.392 . S
C313 C316 1.511 . S
C314 C310 1.376 . S
C314 C313 1.392 . S
C314 H326 0.929 . S
C315 C311 1.531 . S
C315 H327 0.960 . S
C315 H328 0.962 . S
C315 H329 0.960 . S
C316 C313 1.511 . S
C316 H330 0.961 . S
C316 H331 0.961 . S
C316 H332 0.961 . S
C317 C318 1.370 . S
C317 C319 1.363 . S
C317 H333 0.931 . S
C318 C317 1.370 . S
C318 C322 1.408 . S
C319 C317 1.363 . S
C319 C320 1.370 . S
C319 C323 1.524 . S
C320 C312 1.503 . S
C320 C319 1.370 . S
C320 C321 1.403 . S
C321 C320 1.403 . S
C321 C322 1.404 . S
C321 C324 1.539 . S
C322 C318 1.408 . S
C322 C321 1.404 . S
C322 H334 0.930 . S
C323 C319 1.524 . S
C323 H335 0.956 . S
C323 H336 0.961 . S
C323 H337 0.961 . S
C324 C321 1.539 . S
C324 H338 0.958 . S
C324 H339 0.961 . S
C324 H340 0.960 . S
H325 C309 0.931 . S
H326 C314 0.929 . S
H327 C315 0.960 . S
H328 C315 0.962 . S
H329 C315 0.960 . S
H330 C316 0.961 . S
H331 C316 0.961 . S
H332 C316 0.961 . S
H333 C317 0.931 . S
H334 C322 0.930 . S
H335 C323 0.956 . S
H336 C323 0.961 . S
H337 C323 0.961 . S
H338 C324 0.958 . S
H339 C324 0.961 . S
H340 C324 0.960 . S
C341 C342 1.391 . S
C341 C343 1.394 . S
C341 H357 0.931 . S
C342 C341 1.391 . S
C342 C346 1.376 . S
C343 C341 1.394 . S
C343 C344 1.369 . S
C343 C347 1.531 . S
C344 C343 1.369 . S
C344 C345 1.410 . S
C344 C352 1.503 . S
C345 C344 1.410 . S
C345 C346 1.392 . S
C345 C348 1.511 . S
C346 C342 1.376 . S
C346 C345 1.392 . S
C346 H358 0.929 . S
C347 C343 1.531 . S
C347 H359 0.960 . S
C347 H360 0.962 . S
C347 H361 0.960 . S
C348 C345 1.511 . S
C348 H362 0.961 . S
C348 H363 0.961 . S
C348 H364 0.961 . S
C349 C350 1.370 . S
C349 C351 1.363 . S
C349 H365 0.931 . S
C350 C349 1.370 . S
C350 C354 1.408 . S
C351 C349 1.363 . S
C351 C352 1.370 . S
C351 C355 1.524 . S
C352 C344 1.503 . S
C352 C351 1.370 . S
C352 C353 1.403 . S
C353 C352 1.403 . S
C353 C354 1.404 . S
C353 C356 1.539 . S
C354 C350 1.408 . S
C354 C353 1.404 . S
C354 H366 0.930 . S
C355 C351 1.524 . S
C355 H367 0.956 . S
C355 H368 0.961 . S
C355 H369 0.961 . S
C356 C353 1.539 . S
C356 H370 0.958 . S
C356 H371 0.961 . S
C356 H372 0.960 . S
H357 C341 0.931 . S
H358 C346 0.929 . S
H359 C347 0.960 . S
H360 C347 0.962 . S
H361 C347 0.960 . S
H362 C348 0.961 . S
H363 C348 0.961 . S
H364 C348 0.961 . S
H365 C349 0.931 . S
H366 C354 0.930 . S
H367 C355 0.956 . S
H368 C355 0.961 . S
H369 C355 0.961 . S
H370 C356 0.958 . S
H371 C356 0.961 . S
H372 C356 0.960 . S
C373 C374 1.391 . S
C373 C375 1.394 . S
C373 H389 0.931 . S
C374 C373 1.391 . S
C374 C378 1.376 . S
C375 C373 1.394 . S
C375 C376 1.369 . S
C375 C379 1.531 . S
C376 C375 1.369 . S
C376 C377 1.410 . S
C376 C384 1.503 . S
C377 C376 1.410 . S
C377 C378 1.392 . S
C377 C380 1.511 . S
C378 C374 1.376 . S
C378 C377 1.392 . S
C378 H390 0.929 . S
C379 C375 1.531 . S
C379 H391 0.960 . S
C379 H392 0.962 . S
C379 H393 0.960 . S
C380 C377 1.511 . S
C380 H394 0.961 . S
C380 H395 0.961 . S
C380 H396 0.961 . S
C381 C382 1.370 . S
C381 C383 1.363 . S
C381 H397 0.931 . S
C382 C381 1.370 . S
C382 C386 1.408 . S
C383 C381 1.363 . S
C383 C384 1.370 . S
C383 C387 1.524 . S
C384 C376 1.503 . S
C384 C383 1.370 . S
C384 C385 1.403 . S
C385 C384 1.403 . S
C385 C386 1.404 . S
C385 C388 1.539 . S
C386 C382 1.408 . S
C386 C385 1.404 . S
C386 H398 0.930 . S
C387 C383 1.524 . S
C387 H399 0.956 . S
C387 H400 0.961 . S
C387 H401 0.961 . S
C388 C385 1.539 . S
C388 H402 0.958 . S
C388 H403 0.961 . S
C388 H404 0.960 . S
H389 C373 0.931 . S
H390 C378 0.929 . S
H391 C379 0.960 . S
H392 C379 0.962 . S
H393 C379 0.960 . S
H394 C380 0.961 . S
H395 C380 0.961 . S
H396 C380 0.961 . S
H397 C381 0.931 . S
H398 C386 0.930 . S
H399 C387 0.956 . S
H400 C387 0.961 . S
H401 C387 0.961 . S
H402 C388 0.958 . S
H403 C388 0.961 . S
H404 C388 0.960 . S
C405 C406 1.391 . S
C405 C407 1.394 . S
C405 H421 0.931 . S
C406 C405 1.391 . S
C406 C410 1.376 . S
C407 C405 1.394 . S
C407 C408 1.369 . S
C407 C411 1.531 . S
C408 C407 1.369 . S
C408 C409 1.410 . S
C408 C416 1.503 . S
C409 C408 1.410 . S
C409 C410 1.392 . S
C409 C412 1.511 . S
C410 C406 1.376 . S
C410 C409 1.392 . S
C410 H422 0.929 . S
C411 C407 1.531 . S
C411 H423 0.960 . S
C411 H424 0.962 . S
C411 H425 0.960 . S
C412 C409 1.511 . S
C412 H426 0.961 . S
C412 H427 0.961 . S
C412 H428 0.961 . S
C413 C414 1.370 . S
C413 C415 1.363 . S
C413 H429 0.931 . S
C414 C413 1.370 . S
C414 C418 1.408 . S
C415 C413 1.363 . S
C415 C416 1.370 . S
C415 C419 1.524 . S
C416 C408 1.503 . S
C416 C415 1.370 . S
C416 C417 1.403 . S
C417 C416 1.403 . S
C417 C418 1.404 . S
C417 C420 1.539 . S
C418 C414 1.408 . S
C418 C417 1.404 . S
C418 H430 0.930 . S
C419 C415 1.524 . S
C419 H431 0.956 . S
C419 H432 0.961 . S
C419 H433 0.961 . S
C420 C417 1.539 . S
C420 H434 0.958 . S
C420 H435 0.961 . S
C420 H436 0.960 . S
H421 C405 0.931 . S
H422 C410 0.929 . S
H423 C411 0.960 . S
H424 C411 0.962 . S
H425 C411 0.960 . S
H426 C412 0.961 . S
H427 C412 0.961 . S
H428 C412 0.961 . S
H429 C413 0.931 . S
H430 C418 0.930 . S
H431 C419 0.956 . S
H432 C419 0.961 . S
H433 C419 0.961 . S
H434 C420 0.958 . S
H435 C420 0.961 . S
H436 C420 0.960 . S
C437 C438 1.391 . S
C437 C439 1.394 . S
C437 H453 0.931 . S
C438 C437 1.391 . S
C438 C442 1.376 . S
C439 C437 1.394 . S
C439 C440 1.369 . S
C439 C443 1.531 . S
C440 C439 1.369 . S
C440 C441 1.410 . S
C440 C448 1.503 . S
C441 C440 1.410 . S
C441 C442 1.392 . S
C441 C444 1.511 . S
C442 C438 1.376 . S
C442 C441 1.392 . S
C442 H454 0.929 . S
C443 C439 1.531 . S
C443 H455 0.960 . S
C443 H456 0.962 . S
C443 H457 0.960 . S
C444 C441 1.511 . S
C444 H458 0.961 . S
C444 H459 0.961 . S
C444 H460 0.961 . S
C445 C446 1.370 . S
C445 C447 1.363 . S
C445 H461 0.931 . S
C446 C445 1.370 . S
C446 C450 1.408 . S
C447 C445 1.363 . S
C447 C448 1.370 . S
C447 C451 1.524 . S
C448 C440 1.503 . S
C448 C447 1.370 . S
C448 C449 1.403 . S
C449 C448 1.403 . S
C449 C450 1.404 . S
C449 C452 1.539 . S
C450 C446 1.408 . S
C450 C449 1.404 . S
C450 H462 0.930 . S
C451 C447 1.524 . S
C451 H463 0.956 . S
C451 H464 0.961 . S
C451 H465 0.961 . S
C452 C449 1.539 . S
C452 H466 0.958 . S
C452 H467 0.961 . S
C452 H468 0.960 . S
H453 C437 0.931 . S
H454 C442 0.929 . S
H455 C443 0.960 . S
H456 C443 0.962 . S
H457 C443 0.960 . S
H458 C444 0.961 . S
H459 C444 0.961 . S
H460 C444 0.961 . S
H461 C445 0.931 . S
H462 C450 0.930 . S
H463 C451 0.956 . S
H464 C451 0.961 . S
H465 C451 0.961 . S
H466 C452 0.958 . S
H467 C452 0.961 . S
H468 C452 0.960 . S
C469 C470 1.391 . S
C469 C471 1.394 . S
C469 H485 0.931 . S
C470 C469 1.391 . S
C470 C474 1.376 . S
C471 C469 1.394 . S
C471 C472 1.369 . S
C471 C475 1.531 . S
C472 C471 1.369 . S
C472 C473 1.410 . S
C472 C480 1.503 . S
C473 C472 1.410 . S
C473 C474 1.392 . S
C473 C476 1.511 . S
C474 C470 1.376 . S
C474 C473 1.392 . S
C474 H486 0.929 . S
C475 C471 1.531 . S
C475 H487 0.960 1_565 S
C475 H488 0.962 1_565 S
C475 H489 0.960 1_565 S
C476 C473 1.511 . S
C476 H490 0.961 . S
C476 H491 0.961 . S
C476 H492 0.961 . S
C477 C478 1.370 . S
C477 C479 1.363 . S
C477 H493 0.931 . S
C478 C477 1.370 . S
C478 C482 1.408 . S
C479 C477 1.363 . S
C479 C480 1.370 . S
C479 C483 1.524 . S
C480 C472 1.503 . S
C480 C479 1.370 . S
C480 C481 1.403 . S
C481 C480 1.403 . S
C481 C482 1.404 . S
C481 C484 1.539 . S
C482 C478 1.408 . S
C482 C481 1.404 . S
C482 H494 0.930 . S
C483 C479 1.524 . S
C483 H495 0.956 . S
C483 H496 0.961 . S
C483 H497 0.961 . S
C484 C481 1.539 . S
C484 H498 0.958 . S
C484 H499 0.961 . S
C484 H500 0.960 . S
H485 C469 0.931 . S
H486 C474 0.929 . S
H487 C475 0.960 1_545 S
H488 C475 0.962 1_545 S
H489 C475 0.960 1_545 S
H490 C476 0.961 . S
H491 C476 0.961 . S
H492 C476 0.961 . S
H493 C477 0.931 . S
H494 C482 0.930 . S
H495 C483 0.956 . S
H496 C483 0.961 . S
H497 C483 0.961 . S
H498 C484 0.958 . S
H499 C484 0.961 . S
H500 C484 0.960 . S
C501 C502 1.391 . S
C501 C503 1.394 . S
C501 H517 0.931 . S
C502 C501 1.391 . S
C502 C506 1.376 . S
C503 C501 1.394 . S
C503 C504 1.369 . S
C503 C507 1.531 . S
C504 C503 1.369 . S
C504 C505 1.410 . S
C504 C512 1.503 . S
C505 C504 1.410 . S
C505 C506 1.392 . S
C505 C508 1.511 . S
C506 C502 1.376 . S
C506 C505 1.392 . S
C506 H518 0.929 . S
C507 C503 1.531 . S
C507 H519 0.960 . S
C507 H520 0.962 . S
C507 H521 0.960 . S
C508 C505 1.511 . S
C508 H522 0.961 . S
C508 H523 0.961 . S
C508 H524 0.961 . S
C509 C510 1.370 . S
C509 C511 1.363 . S
C509 H525 0.931 . S
C510 C509 1.370 . S
C510 C514 1.408 . S
C511 C509 1.363 . S
C511 C512 1.370 . S
C511 C515 1.524 . S
C512 C504 1.503 . S
C512 C511 1.370 . S
C512 C513 1.403 . S
C513 C512 1.403 . S
C513 C514 1.404 . S
C513 C516 1.539 . S
C514 C510 1.408 . S
C514 C513 1.404 . S
C514 H526 0.930 . S
C515 C511 1.524 . S
C515 H527 0.956 . S
C515 H528 0.961 . S
C515 H529 0.961 . S
C516 C513 1.539 . S
C516 H530 0.958 . S
C516 H531 0.961 . S
C516 H532 0.960 . S
H517 C501 0.931 . S
H518 C506 0.929 . S
H519 C507 0.960 . S
H520 C507 0.962 . S
H521 C507 0.960 . S
H522 C508 0.961 . S
H523 C508 0.961 . S
H524 C508 0.961 . S
H525 C509 0.931 . S
H526 C514 0.930 . S
H527 C515 0.956 . S
H528 C515 0.961 . S
H529 C515 0.961 . S
H530 C516 0.958 . S
H531 C516 0.961 . S
H532 C516 0.960 . S
C533 C534 1.391 . S
C533 C535 1.394 . S
C533 H549 0.931 1_655 S
C534 C533 1.391 . S
C534 C538 1.376 . S
C535 C533 1.394 . S
C535 C536 1.369 . S
C535 C539 1.531 1_655 S
C536 C535 1.369 . S
C536 C537 1.410 . S
C536 C544 1.503 . S
C537 C536 1.410 . S
C537 C538 1.392 . S
C537 C540 1.511 . S
C538 C534 1.376 . S
C538 C537 1.392 . S
C538 H550 0.929 . S
C539 C535 1.531 1_455 S
C539 H551 0.954 1_455 S
C539 H552 0.962 1_455 S
C539 H553 0.960 . S
C540 C537 1.511 . S
C540 H554 0.961 . S
C540 H555 0.961 . S
C540 H556 0.961 . S
C541 C542 1.370 . S
C541 C543 1.363 . S
C541 H557 0.931 . S
C542 C541 1.370 . S
C542 C546 1.408 . S
C543 C541 1.363 . S
C543 C544 1.370 . S
C543 C547 1.524 . S
C544 C536 1.503 . S
C544 C543 1.370 . S
C544 C545 1.403 . S
C545 C544 1.403 . S
C545 C546 1.404 . S
C545 C548 1.539 . S
C546 C542 1.408 . S
C546 C545 1.404 . S
C546 H558 0.930 . S
C547 C543 1.524 . S
C547 H559 0.956 . S
C547 H560 0.961 . S
C547 H561 0.961 . S
C548 C545 1.539 . S
C548 H562 0.958 . S
C548 H563 0.961 . S
C548 H564 0.960 . S
H549 C533 0.931 1_455 S
H550 C538 0.929 . S
H551 C539 0.954 1_655 S
H552 C539 0.962 1_655 S
H553 C539 0.960 . S
H554 C540 0.961 . S
H555 C540 0.961 . S
H556 C540 0.961 . S
H557 C541 0.931 . S
H558 C546 0.930 . S
H559 C547 0.956 . S
H560 C547 0.961 . S
H561 C547 0.961 . S
H562 C548 0.958 . S
H563 C548 0.961 . S
H564 C548 0.960 . S
C565 C566 1.391 . S
C565 C567 1.394 . S
C565 H581 0.931 . S
C566 C565 1.391 . S
C566 C570 1.376 . S
C567 C565 1.394 . S
C567 C568 1.369 . S
C567 C571 1.531 . S
C568 C567 1.369 . S
C568 C569 1.410 . S
C568 C576 1.503 . S
C569 C568 1.410 . S
C569 C570 1.392 . S
C569 C572 1.511 . S
C570 C566 1.376 . S
C570 C569 1.392 . S
C570 H582 0.929 . S
C571 C567 1.531 . S
C571 H583 0.960 . S
C571 H584 0.962 . S
C571 H585 0.960 . S
C572 C569 1.511 . S
C572 H586 0.961 . S
C572 H587 0.961 . S
C572 H588 0.961 . S
C573 C574 1.370 . S
C573 C575 1.363 . S
C573 H589 0.931 . S
C574 C573 1.370 . S
C574 C578 1.408 . S
C575 C573 1.363 . S
C575 C576 1.370 . S
C575 C579 1.524 . S
C576 C568 1.503 . S
C576 C575 1.370 . S
C576 C577 1.403 . S
C577 C576 1.403 . S
C577 C578 1.404 . S
C577 C580 1.539 . S
C578 C574 1.408 . S
C578 C577 1.404 . S
C578 H590 0.930 . S
C579 C575 1.524 . S
C579 H591 0.956 . S
C579 H592 0.961 . S
C579 H593 0.961 . S
C580 C577 1.539 . S
C580 H594 0.958 . S
C580 H595 0.961 . S
C580 H596 0.960 . S
H581 C565 0.931 . S
H582 C570 0.929 . S
H583 C571 0.960 . S
H584 C571 0.962 . S
H585 C571 0.960 . S
H586 C572 0.961 . S
H587 C572 0.961 . S
H588 C572 0.961 . S
H589 C573 0.931 . S
H590 C578 0.930 . S
H591 C579 0.956 . S
H592 C579 0.961 . S
H593 C579 0.961 . S
H594 C580 0.958 . S
H595 C580 0.961 . S
H596 C580 0.960 . S
C597 C598 1.391 . S
C597 C599 1.394 . S
C597 H613 0.931 . S
C598 C597 1.391 . S
C598 C602 1.376 . S
C599 C597 1.394 . S
C599 C600 1.369 . S
C599 C603 1.531 . S
C600 C599 1.369 . S
C600 C601 1.410 . S
C600 C608 1.477 1_455 S
C601 C600 1.410 . S
C601 C602 1.392 . S
C601 C604 1.511 . S
C602 C598 1.376 . S
C602 C601 1.392 . S
C602 H614 0.929 . S
C603 C599 1.531 . S
C603 H615 0.960 . S
C603 H616 0.962 . S
C603 H617 0.960 . S
C604 C601 1.511 . S
C604 H618 0.961 . S
C604 H619 0.961 . S
C604 H620 0.963 . S
C605 C606 1.370 . S
C605 C607 1.363 1_655 S
C605 H621 0.931 . S
C606 C605 1.370 . S
C606 C610 1.408 . S
C607 C605 1.363 1_455 S
C607 C608 1.372 1_455 S
C607 C611 1.524 . S
C608 C600 1.477 1_655 S
C608 C607 1.372 1_655 S
C608 C609 1.429 . S
C609 C608 1.429 . S
C609 C610 1.404 . S
C609 C612 1.539 . S
C610 C606 1.408 . S
C610 C609 1.404 . S
C610 H622 0.930 . S
C611 C607 1.524 . S
C611 H623 0.956 . S
C611 H624 0.961 . S
C611 H625 0.961 . S
C612 C609 1.539 . S
C612 H626 0.958 . S
C612 H627 0.961 . S
C612 H628 0.960 . S
H613 C597 0.931 . S
H614 C602 0.929 . S
H615 C603 0.960 . S
H616 C603 0.962 . S
H617 C603 0.960 . S
H618 C604 0.961 . S
H619 C604 0.961 . S
H620 C604 0.963 . S
H621 C605 0.931 . S
H622 C610 0.930 . S
H623 C611 0.956 . S
H624 C611 0.961 . S
H625 C611 0.961 . S
H626 C612 0.958 . S
H627 C612 0.961 . S
H628 C612 0.960 . S
C629 C630 1.391 . S
C629 C631 1.394 . S
C629 H645 0.931 . S
C630 C629 1.391 . S
C630 C634 1.376 . S
C631 C629 1.394 . S
C631 C632 1.369 . S
C631 C635 1.531 . S
C632 C631 1.369 . S
C632 C633 1.410 . S
C632 C640 1.503 . S
C633 C632 1.410 . S
C633 C634 1.392 . S
C633 C636 1.511 . S
C634 C630 1.376 . S
C634 C633 1.392 . S
C634 H646 0.929 . S
C635 C631 1.531 . S
C635 H647 0.960 . S
C635 H648 0.962 . S
C635 H649 0.960 . S
C636 C633 1.511 . S
C636 H650 0.961 . S
C636 H651 0.961 . S
C636 H652 0.961 . S
C637 C638 1.370 . S
C637 C639 1.363 . S
C637 H653 0.931 . S
C638 C637 1.370 . S
C638 C642 1.408 . S
C639 C637 1.363 . S
C639 C640 1.370 . S
C639 C643 1.524 . S
C640 C632 1.503 . S
C640 C639 1.370 . S
C640 C641 1.403 . S
C641 C640 1.403 . S
C641 C642 1.404 . S
C641 C644 1.539 . S
C642 C638 1.408 . S
C642 C641 1.404 . S
C642 H654 0.930 . S
C643 C639 1.524 . S
C643 H655 0.956 . S
C643 H656 0.961 . S
C643 H657 0.961 . S
C644 C641 1.539 . S
C644 H658 0.958 . S
C644 H659 0.961 . S
C644 H660 0.960 . S
H645 C629 0.931 . S
H646 C634 0.929 . S
H647 C635 0.960 . S
H648 C635 0.962 . S
H649 C635 0.960 . S
H650 C636 0.961 . S
H651 C636 0.961 . S
H652 C636 0.961 . S
H653 C637 0.931 . S
H654 C642 0.930 . S
H655 C643 0.956 . S
H656 C643 0.961 . S
H657 C643 0.961 . S
H658 C644 0.958 . S
H659 C644 0.961 . S
H660 C644 0.960 . S
C661 C662 1.391 . S
C661 C663 1.389 1_565 S
C661 H677 0.931 . S
C662 C661 1.391 . S
C662 C666 1.376 . S
C663 C661 1.389 1_545 S
C663 C664 1.368 . S
C663 C667 1.537 . S
C664 C663 1.368 . S
C664 C665 1.410 1_545 S
C664 C672 1.503 . S
C665 C664 1.410 1_565 S
C665 C666 1.392 . S
C665 C668 1.511 1_565 S
C666 C662 1.376 . S
C666 C665 1.392 . S
C666 H678 0.929 . S
C667 C663 1.537 . S
C667 H679 0.960 . S
C667 H680 0.962 . S
C667 H681 0.960 . S
C668 C665 1.511 1_545 S
C668 H682 0.961 1_545 S
C668 H683 0.961 . S
C668 H684 0.961 . S
C669 C670 1.370 . S
C669 C671 1.363 . S
C669 H685 0.931 . S
C670 C669 1.370 . S
C670 C674 1.408 . S
C671 C669 1.363 . S
C671 C672 1.370 . S
C671 C675 1.524 . S
C672 C664 1.503 . S
C672 C671 1.370 . S
C672 C673 1.403 . S
C673 C672 1.403 . S
C673 C674 1.404 . S
C673 C676 1.539 . S
C674 C670 1.408 . S
C674 C673 1.404 . S
C674 H686 0.930 . S
C675 C671 1.524 . S
C675 H687 0.956 1_545 S
C675 H688 0.961 1_545 S
C675 H689 0.961 . S
C676 C673 1.539 . S
C676 H690 0.958 . S
C676 H691 0.961 . S
C676 H692 0.960 . S
H677 C661 0.931 . S
H678 C666 0.929 . S
H679 C667 0.960 . S
H680 C667 0.962 . S
H681 C667 0.960 . S
H682 C668 0.961 1_565 S
H683 C668 0.961 . S
H684 C668 0.961 . S
H685 C669 0.931 . S
H686 C674 0.930 . S
H687 C675 0.956 1_565 S
H688 C675 0.961 1_565 S
H689 C675 0.961 . S
H690 C676 0.958 . S
H691 C676 0.961 . S
H692 C676 0.960 . S
C118 C31 1.127 . S
C126 C5 1.107 . S
C150 C18 1.095 . S
C158 C3 1.097 . S
C182 C16 1.086 . S
C190 C29 1.098 . S
C214 C70 1.085 . S
C222 C44 1.110 . S
C246 C57 1.097 . S
C254 C42 1.115 . S
C278 C55 1.102 . S
C286 C68 1.116 . S
C310 C83 1.101 . S
C318 C109 1.116 . S
C342 C81 1.085 . S
C350 C96 1.110 . S
C374 C94 1.096 . S
C382 C107 1.097 . S
C406 C10 1.409 . S
C414 C95 1.418 . S
C438 C23 1.418 . S
C446 C114 1.415 . S
C470 C82 1.409 . S
C478 C30 1.407 1_565 S
C502 C62 1.410 . S
C510 C36 1.417 . S
C534 C4 1.411 . S
C542 C69 1.419 . S
C566 C49 1.417 . S
C574 C17 1.416 . S
C598 C101 1.409 . S
C606 C75 1.419 . S
C630 C43 1.409 . S
C638 C108 1.419 . S
C662 C88 1.408 . S
C670 C56 1.419 . S
