# Generated by pormake.
# Topology wje, (4)-cn, num edge types: 1
# Building blocks:
#     Node 0, Type 0, BuildingBlock: UXUYUI_clean_sbu_0, # of connection points: 4
#     Node 1, Type 0, BuildingBlock: UXUYUI_clean_sbu_0, # of connection points: 4
#     Node 2, Type 0, BuildingBlock: UXUYUI_clean_sbu_0, # of connection points: 4
#     Node 3, Type 0, BuildingBlock: UXUYUI_clean_sbu_0, # of connection points: 4
#     Node 4, Type 0, BuildingBlock: UXUYUI_clean_sbu_0, # of connection points: 4
#     Node 5, Type 0, BuildingBlock: UXUYUI_clean_sbu_0, # of connection points: 4
#     Node 6, Type 0, BuildingBlock: UXUYUI_clean_sbu_0, # of connection points: 4
#     Node 7, Type 0, BuildingBlock: UXUYUI_clean_sbu_0, # of connection points: 4
#     Node 8, Type 0, BuildingBlock: UXUYUI_clean_sbu_0, # of connection points: 4
#     Node 9, Type 0, BuildingBlock: UXUYUI_clean_sbu_0, # of connection points: 4
#     Node 10, Type 0, BuildingBlock: UXUYUI_clean_sbu_0, # of connection points: 4
#     Node 11, Type 0, BuildingBlock: UXUYUI_clean_sbu_0, # of connection points: 4
#     Edge 12, Type (0, 0), BuildingBlock: TEMPAE_clean_linker_10, # of connection points: 2
#     Edge 13, Type (0, 0), BuildingBlock: TEMPAE_clean_linker_10, # of connection points: 2
#     Edge 14, Type (0, 0), BuildingBlock: TEMPAE_clean_linker_10, # of connection points: 2
#     Edge 15, Type (0, 0), BuildingBlock: TEMPAE_clean_linker_10, # of connection points: 2
#     Edge 16, Type (0, 0), BuildingBlock: TEMPAE_clean_linker_10, # of connection points: 2
#     Edge 17, Type (0, 0), BuildingBlock: TEMPAE_clean_linker_10, # of connection points: 2
#     Edge 18, Type (0, 0), BuildingBlock: TEMPAE_clean_linker_10, # of connection points: 2
#     Edge 19, Type (0, 0), BuildingBlock: TEMPAE_clean_linker_10, # of connection points: 2
#     Edge 20, Type (0, 0), BuildingBlock: TEMPAE_clean_linker_10, # of connection points: 2
#     Edge 21, Type (0, 0), BuildingBlock: TEMPAE_clean_linker_10, # of connection points: 2
#     Edge 22, Type (0, 0), BuildingBlock: TEMPAE_clean_linker_10, # of connection points: 2
#     Edge 23, Type (0, 0), BuildingBlock: TEMPAE_clean_linker_10, # of connection points: 2
#     Edge 24, Type (0, 0), BuildingBlock: TEMPAE_clean_linker_10, # of connection points: 2
#     Edge 25, Type (0, 0), BuildingBlock: TEMPAE_clean_linker_10, # of connection points: 2
#     Edge 26, Type (0, 0), BuildingBlock: TEMPAE_clean_linker_10, # of connection points: 2
#     Edge 27, Type (0, 0), BuildingBlock: TEMPAE_clean_linker_10, # of connection points: 2
#     Edge 28, Type (0, 0), BuildingBlock: TEMPAE_clean_linker_10, # of connection points: 2
#     Edge 29, Type (0, 0), BuildingBlock: TEMPAE_clean_linker_10, # of connection points: 2
#     Edge 30, Type (0, 0), BuildingBlock: TEMPAE_clean_linker_10, # of connection points: 2
#     Edge 31, Type (0, 0), BuildingBlock: TEMPAE_clean_linker_10, # of connection points: 2
#     Edge 32, Type (0, 0), BuildingBlock: TEMPAE_clean_linker_10, # of connection points: 2
#     Edge 33, Type (0, 0), BuildingBlock: TEMPAE_clean_linker_10, # of connection points: 2
#     Edge 34, Type (0, 0), BuildingBlock: TEMPAE_clean_linker_10, # of connection points: 2
#     Edge 35, Type (0, 0), BuildingBlock: TEMPAE_clean_linker_10, # of connection points: 2
# Relax obj value: 0.245
# Max RMSD: 0.179
# Mean RMSD: 0.178
data_MOF--net-wje--node1-UXUYUI_clean_sbu_0--edge1-TEMPAE_clean_linker_10
_symmetry_space_group_name_H-M    P1
_symmetry_Int_Tables_number       1
_symmetry_cell_setting            triclinic
loop_
_symmetry_equiv_pos_as_xyz
'x, y, z'
_cell_length_a     62.758742
_cell_length_b     62.741269
_cell_length_c     48.937597
_cell_angle_alpha  90.013343
_cell_angle_beta   89.990458
_cell_angle_gamma 119.98153
loop_
_atom_site_label
_atom_site_type_symbol
_atom_site_fract_x
_atom_site_fract_y
_atom_site_fract_z
_atom_type_partial_charge
Li0 Li 0.34722 0.00048 0.2629 0.0
Li1 Li 0.33006 0.01189 0.30285 0.0
Li2 Li 0.30398 0.98182 0.27125 0.0
Li3 Li 0.32456 0.02343 0.25677 0.0
C4 C 0.31887 0.95599 0.29976 0.0
N5 N 0.29684 0.90593 0.30917 0.0
C6 C 0.30805 0.9462 0.32506 0.0
C7 C 0.31866 0.94029 0.27933 0.0
C8 C 0.29688 0.92084 0.32936 0.0
C9 C 0.30748 0.91506 0.2845 0.0
C10 C 0.37898 0.04595 0.28856 0.0
C11 C 0.41761 0.08279 0.29756 0.0
N12 N 0.42514 0.0693 0.31215 0.0
C13 C 0.38707 0.03245 0.30371 0.0
C14 C 0.39434 0.07132 0.28546 0.0
C15 C 0.41049 0.04459 0.31543 0.0
C16 C 0.38948 0.01429 0.23092 0.0
N17 N 0.37465 0.99817 0.25033 0.0
C18 C 0.40108 0.98116 0.25437 0.0
C19 C 0.38012 0.98191 0.26221 0.0
C20 C 0.4169 0.9978 0.23473 0.0
C21 C 0.41101 0.01457 0.22291 0.0
H22 H 0.38489 0.02734 0.22224 0.0
H23 H 0.36869 0.97004 0.27841 0.0
C24 C 0.31077 0.00244 0.35362 0.0
N25 N 0.33189 0.01879 0.34086 0.0
C26 C 0.30873 0.00275 0.38187 0.0
C27 C 0.34987 0.03788 0.38353 0.0
C28 C 0.35116 0.03674 0.35502 0.0
C29 C 0.32853 0.02043 0.39735 0.0
H30 H 0.29565 0.98861 0.34177 0.0
H31 H 0.36758 0.04998 0.34441 0.0
C32 C 0.30608 0.97833 0.21725 0.0
N33 N 0.27461 0.94456 0.17951 0.0
C34 C 0.28383 0.9772 0.21094 0.0
C35 C 0.31249 0.96251 0.20422 0.0
C36 C 0.26811 0.9599 0.19186 0.0
C37 C 0.29629 0.94552 0.18521 0.0
C38 C 0.29573 0.02655 0.29656 0.0
C39 C 0.27164 0.02134 0.30138 0.0
C40 C 0.31537 0.05008 0.30225 0.0
C41 C 0.26758 0.03975 0.31176 0.0
C42 C 0.31054 0.06799 0.31262 0.0
N43 N 0.28695 0.0625 0.31711 0.0
C44 C 0.25999 0.95172 0.29525 0.0
C45 C 0.26648 0.93039 0.25918 0.0
C46 C 0.24017 0.93002 0.30483 0.0
N47 N 0.27321 0.9515 0.27337 0.0
C48 C 0.24653 0.90809 0.26805 0.0
C49 C 0.23377 0.90774 0.29178 0.0
H50 H 0.26577 0.96855 0.30641 0.0
H51 H 0.27754 0.93038 0.24231 0.0
C52 C 0.34486 0.06664 0.22541 0.0
N53 N 0.32347 0.04824 0.23584 0.0
C54 C 0.3451 0.08615 0.21142 0.0
C55 C 0.30127 0.06727 0.21906 0.0
C56 C 0.30181 0.04795 0.23254 0.0
C57 C 0.32316 0.08676 0.2085 0.0
H58 H 0.36177 0.06631 0.22836 0.0
H59 H 0.28504 0.03293 0.24082 0.0
O60 O 0.32943 0.98073 0.29488 0.0
O61 O 0.35623 0.03453 0.27662 0.0
O62 O 0.32179 0.9952 0.23569 0.0
O63 O 0.29979 0.00862 0.28617 0.0
H64 H 0.30823 0.95798 0.34125 0.0
H65 H 0.32662 0.94746 0.25949 0.0
H66 H 0.28828 0.91303 0.34878 0.0
H67 H 0.30704 0.90272 0.26879 0.0
H68 H 0.42969 0.10242 0.29534 0.0
H69 H 0.37538 0.01285 0.30655 0.0
H70 H 0.38831 0.08203 0.27384 0.0
H71 H 0.41699 0.03438 0.3272 0.0
H72 H 0.40544 0.9684 0.26436 0.0
H73 H 0.42304 0.02785 0.20793 0.0
H74 H 0.29206 0.98867 0.39147 0.0
H75 H 0.36543 0.05209 0.3946 0.0
H76 H 0.27872 0.98943 0.22082 0.0
H77 H 0.32977 0.96333 0.2088 0.0
H78 H 0.25075 0.95869 0.18687 0.0
H79 H 0.30094 0.93308 0.17502 0.0
H80 H 0.25622 0.00326 0.29701 0.0
H81 H 0.33414 0.05459 0.2987 0.0
H82 H 0.24902 0.03596 0.31553 0.0
H83 H 0.32556 0.08626 0.31707 0.0
H84 H 0.23049 0.93054 0.32292 0.0
H85 H 0.2421 0.89119 0.25752 0.0
H86 H 0.36235 0.10095 0.20367 0.0
H87 H 0.28397 0.06703 0.21695 0.0
Li88 Li 0.34741 0.3469 0.59971 0.0
Li89 Li 0.31706 0.32595 0.6385 0.0
Li90 Li 0.32392 0.30314 0.60499 0.0
Li91 Li 0.30091 0.32197 0.59149 0.0
C92 C 0.36095 0.31677 0.64097 0.0
N93 N 0.38557 0.29394 0.66132 0.0
C94 C 0.34996 0.29844 0.66087 0.0
C95 C 0.38453 0.32355 0.6315 0.0
C96 C 0.36267 0.28707 0.67084 0.0
C97 C 0.39667 0.3118 0.64206 0.0
C98 C 0.32138 0.37346 0.6227 0.0
C99 C 0.30209 0.3979 0.63081 0.0
N100 N 0.3237 0.41632 0.64084 0.0
C101 C 0.34342 0.39273 0.63291 0.0
C102 C 0.30056 0.37613 0.62147 0.0
C103 C 0.34421 0.4142 0.64207 0.0
C104 C 0.37877 0.38762 0.56629 0.0
N105 N 0.37702 0.37571 0.59011 0.0
C106 C 0.41741 0.40671 0.60323 0.0
C107 C 0.39577 0.38471 0.60843 0.0
C108 C 0.41969 0.41981 0.57907 0.0
C109 C 0.40009 0.40985 0.56031 0.0
H110 H 0.36339 0.3801 0.55226 0.0
H111 H 0.39366 0.37511 0.62746 0.0
C112 C 0.29947 0.30658 0.69075 0.0
N113 N 0.3129 0.32801 0.67684 0.0
C114 C 0.29962 0.30639 0.71925 0.0
C115 C 0.32658 0.35048 0.71868 0.0
C116 C 0.32605 0.34979 0.69017 0.0
C117 C 0.3138 0.32848 0.73359 0.0
H118 H 0.28981 0.28938 0.67975 0.0
H119 H 0.33714 0.36645 0.67878 0.0
C120 C 0.33101 0.30754 0.55238 0.0
N121 N 0.3361 0.27682 0.5159 0.0
C122 C 0.31045 0.28538 0.54454 0.0
C123 C 0.35411 0.31424 0.54151 0.0
C124 C 0.31343 0.27004 0.52613 0.0
C125 C 0.35631 0.29842 0.52311 0.0
C126 C 0.26862 0.2899 0.62951 0.0
C127 C 0.24937 0.26548 0.62951 0.0
C128 C 0.26442 0.30837 0.63942 0.0
C129 C 0.22628 0.26001 0.63934 0.0
C130 C 0.24109 0.30217 0.6491 0.0
N131 N 0.22265 0.27832 0.64884 0.0
C132 C 0.30763 0.25343 0.61381 0.0
C133 C 0.34794 0.27487 0.59543 0.0
C134 C 0.31022 0.23312 0.61967 0.0
N135 N 0.3266 0.27404 0.60272 0.0
C136 C 0.35154 0.25513 0.6015 0.0
C137 C 0.33274 0.23426 0.61452 0.0
H138 H 0.29107 0.25336 0.61985 0.0
H139 H 0.36287 0.29154 0.58689 0.0
C140 C 0.27997 0.34315 0.55854 0.0
N141 N 0.27557 0.32158 0.56992 0.0
C142 C 0.26149 0.34441 0.54401 0.0
C143 C 0.23452 0.30102 0.55249 0.0
C144 C 0.25361 0.30058 0.56665 0.0
C145 C 0.23822 0.32323 0.5412 0.0
H146 H 0.29777 0.35949 0.56113 0.0
H147 H 0.25075 0.28353 0.57536 0.0
O148 O 0.34864 0.32786 0.63064 0.0
O149 O 0.32039 0.35247 0.61307 0.0
O150 O 0.32851 0.32266 0.57056 0.0
O151 O 0.29126 0.2955 0.61954 0.0
H152 H 0.33163 0.2927 0.66816 0.0
H153 H 0.39319 0.33736 0.61576 0.0
H154 H 0.35427 0.27269 0.68605 0.0
H155 H 0.41484 0.31675 0.63478 0.0
H156 H 0.28611 0.40016 0.63003 0.0
H157 H 0.35967 0.391 0.63416 0.0
H158 H 0.28337 0.36158 0.61337 0.0
H159 H 0.36113 0.42917 0.65018 0.0
H160 H 0.43214 0.41346 0.6181 0.0
H161 H 0.40093 0.41945 0.54159 0.0
H162 H 0.28985 0.28893 0.72983 0.0
H163 H 0.33757 0.36796 0.72891 0.0
H164 H 0.29245 0.28 0.55281 0.0
H165 H 0.37016 0.33139 0.5474 0.0
H166 H 0.29773 0.25275 0.51999 0.0
H167 H 0.37408 0.30328 0.51462 0.0
H168 H 0.25212 0.2509 0.62173 0.0
H169 H 0.27903 0.32725 0.63995 0.0
H170 H 0.21123 0.24121 0.63935 0.0
H171 H 0.23766 0.31633 0.65685 0.0
H172 H 0.29542 0.21742 0.62998 0.0
H173 H 0.36917 0.2566 0.59729 0.0
H174 H 0.26541 0.36181 0.53515 0.0
H175 H 0.21689 0.28426 0.55102 0.0
Li176 Li 0.99348 0.34748 0.93405 0.0
Li177 Li 0.98294 0.31963 0.97301 0.0
Li178 Li 0.01815 0.32832 0.94166 0.0
Li179 Li 0.97536 0.30268 0.92619 0.0
C180 C 0.02541 0.37537 0.9719 0.0
N181 N 0.04821 0.42527 0.98234 0.0
C182 C 0.01796 0.3841 0.99408 0.0
C183 C 0.04468 0.39199 0.95525 0.0
C184 C 0.02967 0.40941 0.99897 0.0
C185 C 0.05591 0.41715 0.96079 0.0
C186 C 0.93693 0.30884 0.95534 0.0
C187 C 0.90026 0.27183 0.96942 0.0
N188 N 0.88955 0.28541 0.9759 0.0
C189 C 0.92548 0.32239 0.96193 0.0
C190 C 0.92416 0.28334 0.95896 0.0
C191 C 0.90156 0.31023 0.97238 0.0
C192 C 0.00402 0.38875 0.89973 0.0
N193 N 0.9938 0.37675 0.9235 0.0
C194 C 0.98492 0.408 0.93711 0.0
C195 C 0.98408 0.38573 0.9419 0.0
C196 C 0.99572 0.42111 0.91301 0.0
C197 C 0.00507 0.41111 0.89396 0.0
H198 H 0.01166 0.38116 0.8855 0.0
H199 H 0.97619 0.37582 0.96067 0.0
C200 C 0.9855 0.30452 0.0252 0.0
N201 N 0.97487 0.3151 0.01052 0.0
C202 C 0.98491 0.30465 0.05362 0.0
C203 C 0.96226 0.32647 0.05141 0.0
C204 C 0.96294 0.32556 0.02289 0.0
C205 C 0.97383 0.31637 0.06704 0.0
H206 H 0.9957 0.29724 0.01485 0.0
H207 H 0.95539 0.33458 0.01072 0.0
C208 C 0.01961 0.33087 0.88768 0.0
N209 N 0.05286 0.33124 0.85041 0.0
C210 C 0.01446 0.3093 0.87389 0.0
C211 C 0.04156 0.35266 0.88237 0.0
C212 C 0.03152 0.30987 0.85513 0.0
C213 C 0.05818 0.35245 0.86352 0.0
C214 C 0.98587 0.27259 0.96164 0.0
C215 C 0.0003 0.26323 0.95123 0.0
C216 C 0.96525 0.25747 0.97757 0.0
C217 C 0.99358 0.23877 0.95648 0.0
C218 C 0.95913 0.23312 0.98236 0.0
N219 N 0.97329 0.22434 0.97178 0.0
C220 C 0.06322 0.34608 0.96651 0.0
C221 C 0.05862 0.31978 0.92949 0.0
C222 C 0.08474 0.34672 0.97473 0.0
N223 N 0.05034 0.33238 0.94461 0.0
C224 C 0.08009 0.31973 0.93718 0.0
C225 C 0.09295 0.33271 0.96066 0.0
H226 H 0.05614 0.35551 0.97865 0.0
H227 H 0.04787 0.30858 0.91251 0.0
C228 C 0.93505 0.27954 0.89154 0.0
N229 N 0.95231 0.27596 0.90411 0.0
C230 C 0.91595 0.26049 0.87691 0.0
C231 C 0.93321 0.23461 0.88756 0.0
C232 C 0.95203 0.25421 0.90193 0.0
C233 C 0.9146 0.23749 0.87518 0.0
H234 H 0.93584 0.29709 0.89342 0.0
H235 H 0.96613 0.25185 0.91156 0.0
O236 O 0.01383 0.35069 0.96638 0.0
O237 O 0.96042 0.32052 0.94521 0.0
O238 O 0.00314 0.3307 0.90609 0.0
O239 O 0.99232 0.29658 0.95686 0.0
H240 H 0.00317 0.37151 0.00725 0.0
H241 H 0.05079 0.3855 0.93815 0.0
H242 H 0.02398 0.41643 0.01596 0.0
H243 H 0.07072 0.43023 0.94796 0.0
H244 H 0.89021 0.2521 0.97233 0.0
H245 H 0.93493 0.34211 0.95904 0.0
H246 H 0.9325 0.27248 0.95359 0.0
H247 H 0.89253 0.32052 0.97767 0.0
H248 H 0.97722 0.41492 0.95215 0.0
H249 H 0.01362 0.42075 0.87519 0.0
H250 H 0.99447 0.29713 0.06496 0.0
H251 H 0.95368 0.3358 0.06111 0.0
H252 H 0.99756 0.2923 0.8777 0.0
H253 H 0.04574 0.36955 0.8927 0.0
H254 H 0.02782 0.2933 0.84438 0.0
H255 H 0.07529 0.36917 0.85929 0.0
H256 H 0.01631 0.27459 0.93893 0.0
H257 H 0.95422 0.2645 0.98645 0.0
H258 H 0.00448 0.23127 0.94836 0.0
H259 H 0.94319 0.22122 0.99459 0.0
H260 H 0.09431 0.35733 0.99266 0.0
H261 H 0.08571 0.30853 0.92586 0.0
H262 H 0.90228 0.26369 0.86724 0.0
H263 H 0.93287 0.2172 0.88686 0.0
Li264 Li 0.64657 0.99423 0.2669 0.0
Li265 Li 0.66629 0.98556 0.30392 0.0
Li266 Li 0.69163 0.01778 0.27376 0.0
Li267 Li 0.67201 0.97345 0.25901 0.0
C268 C 0.66323 0.03658 0.29717 0.0
N269 N 0.65926 0.0785 0.29664 0.0
C270 C 0.65612 0.04396 0.32078 0.0
C271 C 0.66844 0.05058 0.27335 0.0
C272 C 0.65418 0.06519 0.32009 0.0
C273 C 0.6663 0.0717 0.27347 0.0
C274 C 0.6243 0.94252 0.2952 0.0
C275 C 0.607 0.90095 0.31181 0.0
N276 N 0.5911 0.90429 0.32767 0.0
C277 C 0.60773 0.94552 0.31155 0.0
C278 C 0.62394 0.92006 0.29524 0.0
C279 C 0.59112 0.92598 0.32789 0.0
C280 C 0.60901 0.99018 0.23042 0.0
N281 N 0.61789 0.9951 0.25638 0.0
C282 C 0.58479 0.00084 0.27078 0.0
C283 C 0.60616 0.00018 0.27644 0.0
C284 C 0.57473 0.99539 0.24432 0.0
C285 C 0.58724 0.99011 0.22391 0.0
H286 H 0.61862 0.98594 0.21491 0.0
H287 H 0.61328 0.00354 0.29703 0.0
C288 C 0.67734 0.0019 0.35576 0.0
N289 N 0.66526 0.98001 0.34245 0.0
C290 C 0.67991 0.00273 0.38396 0.0
C291 C 0.65739 0.95827 0.38481 0.0
C292 C 0.65554 0.9583 0.35627 0.0
C293 C 0.66988 0.98077 0.39885 0.0
H294 H 0.68537 0.01887 0.34436 0.0
H295 H 0.64672 0.94108 0.34532 0.0
C296 C 0.6856 0.01407 0.21611 0.0
N297 N 0.71131 0.03791 0.1695 0.0
C298 C 0.70481 0.01078 0.20681 0.0
C299 C 0.67923 0.02922 0.2015 0.0
C300 C 0.71765 0.02306 0.18325 0.0
C301 C 0.69253 0.0412 0.17805 0.0
C302 C 0.70675 0.9837 0.30702 0.0
C303 C 0.72455 0.00086 0.32468 0.0
C304 C 0.69801 0.9586 0.31088 0.0
C305 C 0.73319 0.99257 0.34616 0.0
C306 C 0.70713 0.95106 0.33258 0.0
N307 N 0.72436 0.96805 0.34964 0.0
C308 C 0.72355 0.06042 0.30014 0.0
C309 C 0.74031 0.0579 0.25772 0.0
C310 C 0.74543 0.08128 0.30733 0.0
N311 N 0.72128 0.04904 0.2758 0.0
C312 C 0.76286 0.07878 0.26429 0.0
C313 C 0.76574 0.09033 0.28976 0.0
H314 H 0.70876 0.05267 0.31476 0.0
H315 H 0.73851 0.04821 0.23889 0.0
C316 C 0.65465 0.9313 0.22592 0.0
N317 N 0.67503 0.9497 0.23804 0.0
C318 C 0.65592 0.91252 0.21201 0.0
C319 C 0.69928 0.93238 0.22276 0.0
C320 C 0.69713 0.95067 0.23662 0.0
C321 C 0.67843 0.91278 0.21047 0.0
H322 H 0.63728 0.93092 0.22764 0.0
H323 H 0.71301 0.96552 0.24657 0.0
O324 O 0.66514 0.01578 0.29764 0.0
O325 O 0.64046 0.96128 0.27879 0.0
O326 O 0.67262 0.00202 0.23895 0.0
O327 O 0.69754 0.99138 0.28635 0.0
H328 H 0.65203 0.03331 0.33941 0.0
H329 H 0.67422 0.04529 0.25506 0.0
H330 H 0.64863 0.07107 0.33819 0.0
H331 H 0.67028 0.08271 0.25517 0.0
H332 H 0.60652 0.88348 0.3121 0.0
H333 H 0.60783 0.9628 0.31177 0.0
H334 H 0.63664 0.91745 0.28268 0.0
H335 H 0.57826 0.92807 0.34075 0.0
H336 H 0.57628 0.00559 0.28711 0.0
H337 H 0.58009 0.98548 0.20331 0.0
H338 H 0.68948 0.02046 0.39406 0.0
H339 H 0.64958 0.94095 0.39571 0.0
H340 H 0.70997 0.99913 0.21787 0.0
H341 H 0.6641 0.03161 0.20812 0.0
H342 H 0.73268 0.02082 0.17593 0.0
H343 H 0.68787 0.05306 0.1666 0.0
H344 H 0.73145 0.02035 0.32197 0.0
H345 H 0.68409 0.94509 0.29748 0.0
H346 H 0.74686 0.00562 0.36011 0.0
H347 H 0.70044 0.93168 0.33593 0.0
H348 H 0.74662 0.08977 0.32698 0.0
H349 H 0.77815 0.08504 0.25023 0.0
H350 H 0.63929 0.89762 0.20324 0.0
H351 H 0.71707 0.93355 0.22178 0.0
Li352 Li 0.67733 0.66114 0.63905 0.0
Li353 Li 0.65078 0.64844 0.59711 0.0
Li354 Li 0.69729 0.66969 0.59486 0.0
Li355 Li 0.67707 0.69168 0.6093 0.0
C356 C 0.67156 0.6181 0.6264 0.0
N357 N 0.66722 0.58072 0.6599 0.0
C358 C 0.64848 0.59748 0.63114 0.0
C359 C 0.69245 0.61968 0.63855 0.0
C360 C 0.64667 0.57877 0.64817 0.0
C361 C 0.68986 0.6006 0.65548 0.0
C362 C 0.63695 0.6765 0.64034 0.0
C363 C 0.61248 0.6959 0.63362 0.0
N364 N 0.61458 0.70154 0.66068 0.0
C365 C 0.63877 0.68238 0.66812 0.0
C366 C 0.62359 0.68318 0.62296 0.0
C367 C 0.62735 0.69507 0.678 0.0
C368 C 0.69758 0.67161 0.69142 0.0
N369 N 0.67821 0.65452 0.67668 0.0
C370 C 0.65674 0.63437 0.71751 0.0
C371 C 0.65815 0.63588 0.68902 0.0
C372 C 0.67599 0.65249 0.73333 0.0
C373 C 0.69689 0.6709 0.71989 0.0
H374 H 0.71292 0.68671 0.68115 0.0
H375 H 0.64266 0.62302 0.67682 0.0
C376 C 0.6216 0.60669 0.56486 0.0
N377 N 0.62088 0.623 0.58258 0.0
C378 C 0.59986 0.5856 0.5571 0.0
C379 C 0.57708 0.59915 0.58502 0.0
C380 C 0.59924 0.61982 0.59243 0.0
C381 C 0.57726 0.58143 0.56765 0.0
H382 H 0.63916 0.60957 0.5577 0.0
H383 H 0.59923 0.63274 0.607 0.0
C384 C 0.73027 0.70695 0.62556 0.0
N385 N 0.78074 0.73707 0.62321 0.0
C386 C 0.74046 0.7309 0.61538 0.0
C387 C 0.74574 0.69838 0.63472 0.0
C388 C 0.76602 0.74584 0.61435 0.0
C389 C 0.77121 0.71387 0.63328 0.0
C390 C 0.67047 0.68945 0.55366 0.0
C391 C 0.69065 0.70946 0.54138 0.0
C392 C 0.64663 0.68304 0.54565 0.0
C393 C 0.6866 0.72295 0.52138 0.0
C394 C 0.64336 0.697 0.5256 0.0
N395 N 0.66324 0.7165 0.51399 0.0
C396 C 0.72373 0.64905 0.57138 0.0
C397 C 0.74227 0.69206 0.56473 0.0
C398 C 0.74308 0.64869 0.55772 0.0
N399 N 0.72382 0.67056 0.5749 0.0
C400 C 0.76226 0.69266 0.55149 0.0
C401 C 0.76296 0.67077 0.54788 0.0
H402 H 0.7086 0.63211 0.57917 0.0
H403 H 0.7417 0.70885 0.56723 0.0
C404 C 0.68589 0.73084 0.64007 0.0
N405 N 0.67922 0.72296 0.61397 0.0
C406 C 0.68638 0.75201 0.64935 0.0
C407 C 0.67462 0.75777 0.60416 0.0
C408 C 0.67361 0.73591 0.59595 0.0
C409 C 0.68079 0.76598 0.63137 0.0
H410 H 0.68999 0.72003 0.65408 0.0
H411 H 0.66793 0.72924 0.57545 0.0
O412 O 0.6737 0.63675 0.61009 0.0
O413 O 0.6486 0.66469 0.63014 0.0
O414 O 0.7053 0.692 0.6267 0.0
O415 O 0.67404 0.67572 0.57283 0.0
H416 H 0.63212 0.59602 0.62197 0.0
H417 H 0.71043 0.63552 0.63503 0.0
H418 H 0.62892 0.56274 0.65212 0.0
H419 H 0.70585 0.60161 0.66511 0.0
H420 H 0.60227 0.70137 0.62035 0.0
H421 H 0.64914 0.67749 0.68186 0.0
H422 H 0.62218 0.67895 0.60138 0.0
H423 H 0.62873 0.69988 0.69941 0.0
H424 H 0.64036 0.61974 0.72701 0.0
H425 H 0.71195 0.68553 0.73116 0.0
H426 H 0.60074 0.57236 0.54363 0.0
H427 H 0.56011 0.59641 0.594 0.0
H428 H 0.7288 0.73781 0.60805 0.0
H429 H 0.73814 0.67992 0.64271 0.0
H430 H 0.77417 0.76436 0.60639 0.0
H431 H 0.7834 0.70744 0.64016 0.0
H432 H 0.7092 0.71459 0.54729 0.0
H433 H 0.63083 0.66744 0.55476 0.0
H434 H 0.70203 0.73855 0.51176 0.0
H435 H 0.62502 0.69232 0.51923 0.0
H436 H 0.74233 0.63122 0.55483 0.0
H437 H 0.77716 0.71021 0.54461 0.0
H438 H 0.6905 0.75687 0.67067 0.0
H439 H 0.67048 0.76798 0.58934 0.0
Li440 Li 0.00096 0.65502 0.93133 0.0
Li441 Li 0.01497 0.68433 0.97117 0.0
Li442 Li 0.98329 0.68135 0.94086 0.0
Li443 Li 0.02461 0.70118 0.92607 0.0
C444 C 0.96059 0.64385 0.97636 0.0
N445 N 0.91487 0.62249 0.00094 0.0
C446 C 0.95696 0.65443 -0.00025 0.0
C447 C 0.94102 0.62233 0.96555 0.0
C448 C 0.93369 0.64338 0.01184 0.0
C449 C 0.91803 0.61182 0.97828 0.0
C450 C 0.05188 0.67735 0.95998 0.0
C451 C 0.08656 0.69567 0.9907 0.0
N452 N 0.08453 0.67325 0.99445 0.0
C453 C 0.05025 0.65452 0.96398 0.0
C454 C 0.07028 0.69813 0.9733 0.0
C455 C 0.06688 0.65282 0.98154 0.0
C456 C 0.00499 0.62146 0.8955 0.0
N457 N 0.99629 0.62413 0.91994 0.0
C458 C 0.9839 0.58276 0.93232 0.0
C459 C 0.9858 0.60537 0.93821 0.0
C460 C 0.99308 0.57946 0.90746 0.0
C461 C 0.00357 0.59911 0.88879 0.0
H462 H 0.01353 0.63686 0.88154 0.0
H463 H 0.97971 0.60826 0.95781 0.0
C464 C 0.02468 0.70506 0.02401 0.0
N465 N 0.02229 0.68583 0.00886 0.0
C466 C 0.02394 0.70362 0.05249 0.0
C467 C 0.01942 0.66311 0.04913 0.0
C468 C 0.02008 0.66526 0.02074 0.0
C469 C 0.02051 0.6821 0.06537 0.0
H470 H 0.02545 0.72078 0.01401 0.0
H471 H 0.01736 0.64993 0.00816 0.0
C472 C 0.97589 0.6709 0.88838 0.0
N473 N 0.93639 0.66033 0.85489 0.0
C474 C 0.97097 0.6895 0.88088 0.0
C475 C 0.96084 0.64696 0.87873 0.0
C476 C 0.95086 0.68377 0.86399 0.0
C477 C 0.94094 0.64199 0.86182 0.0
C478 C 0.02318 0.7361 0.95326 0.0
C479 C 0.01238 0.7474 0.93864 0.0
C480 C 0.04686 0.75044 0.96391 0.0
C481 C 0.02556 0.77287 0.93473 0.0
C482 C 0.05947 0.77583 0.95947 0.0
N483 N 0.04865 0.78643 0.9451 0.0
C484 C 0.95298 0.69826 0.96099 0.0
C485 C 0.93106 0.66237 0.93397 0.0
C486 C 0.93112 0.69695 0.96924 0.0
N487 N 0.95263 0.68104 0.94383 0.0
C488 C 0.90866 0.66015 0.94204 0.0
C489 C 0.90859 0.6774 0.96026 0.0
H490 H 0.97014 0.7122 0.96969 0.0
H491 H 0.93107 0.6483 0.92128 0.0
C492 C 0.07292 0.73112 0.90649 0.0
N493 N 0.04955 0.72704 0.90459 0.0
C494 C 0.09208 0.75082 0.89263 0.0
C495 C 0.06275 0.76154 0.87473 0.0
C496 C 0.04408 0.74139 0.88858 0.0
C497 C 0.08701 0.7664 0.87691 0.0
H498 H 0.07675 0.71927 0.91901 0.0
H499 H 0.02533 0.73754 0.88704 0.0
O500 O 0.98305 0.6548 0.96375 0.0
O501 O 0.03557 0.67936 0.9431 0.0
O502 O 0.99554 0.67613 0.9048 0.0
O503 O 0.0107 0.71113 0.95702 0.0
H504 H 0.97183 0.67122 0.00823 0.0
H505 H 0.94342 0.61409 0.94723 0.0
H506 H 0.93056 0.65148 0.02982 0.0
H507 H 0.90267 0.59528 0.97002 0.0
H508 H 0.10081 0.71159 0.00123 0.0
H509 H 0.03626 0.63826 0.95374 0.0
H510 H 0.07193 0.71596 0.97032 0.0
H511 H 0.06575 0.63524 0.98492 0.0
H512 H 0.97619 0.56831 0.94756 0.0
H513 H 0.01081 0.59729 0.86939 0.0
H514 H 0.02444 0.71853 0.06416 0.0
H515 H 0.01702 0.64631 0.05821 0.0
H516 H 0.98235 0.70808 0.88829 0.0
H517 H 0.9644 0.63235 0.88434 0.0
H518 H 0.94673 0.69794 0.85816 0.0
H519 H 0.92909 0.62353 0.85426 0.0
H520 H 0.99417 0.73662 0.93 0.0
H521 H 0.05546 0.74206 0.97539 0.0
H522 H 0.01747 0.78182 0.92331 0.0
H523 H 0.07787 0.78712 0.96746 0.0
H524 H 0.9318 0.7103 0.98379 0.0
H525 H 0.89159 0.64471 0.93483 0.0
H526 H 0.11069 0.75415 0.89457 0.0
H527 H 0.05835 0.77328 0.86261 0.0
Li528 Li 0.01359 0.69232 0.39392 0.0
Li529 Li 0.97158 0.67039 0.4066 0.0
Li530 Li 0.9958 0.64829 0.40197 0.0
Li531 Li 0.98347 0.66466 0.36163 0.0
C532 C 0.01815 0.68787 0.447 0.0
N533 N 0.0551 0.716 0.48369 0.0
C534 C 0.02203 0.71091 0.45508 0.0
C535 C 0.03291 0.67904 0.4577 0.0
C536 C 0.04087 0.7249 0.47359 0.0
C537 C 0.05152 0.69356 0.47622 0.0
C538 C 0.97375 0.70715 0.37852 0.0
C539 C 0.93722 0.70945 0.36914 0.0
N540 N 0.94726 0.73138 0.38247 0.0
C541 C 0.98376 0.72978 0.39204 0.0
C542 C 0.95036 0.69697 0.36685 0.0
C543 C 0.97006 0.74172 0.39383 0.0
C544 C 0.04408 0.73943 0.3748 0.0
N545 N 0.04398 0.72299 0.39294 0.0
C546 C 0.08764 0.7474 0.39817 0.0
C547 C 0.06514 0.72672 0.40496 0.0
C548 C 0.08821 0.76429 0.37894 0.0
C549 C 0.066 0.76038 0.36768 0.0
H550 H 0.02734 0.73555 0.36444 0.0
H551 H 0.06487 0.71295 0.41839 0.0
C552 C 0.9233 0.64977 0.42707 0.0
N553 N 0.94577 0.67046 0.42714 0.0
C554 C 0.90359 0.64928 0.44085 0.0
C555 C 0.93053 0.69142 0.45465 0.0
C556 C 0.94984 0.69085 0.44117 0.0
C557 C 0.90689 0.67046 0.45455 0.0
H558 H 0.92065 0.63358 0.4163 0.0
H559 H 0.96801 0.70686 0.44154 0.0
C560 C 0.03824 0.67962 0.35931 0.0
N561 N 0.08502 0.70652 0.33763 0.0
C562 C 0.04225 0.69377 0.33578 0.0
C563 C 0.05802 0.67908 0.37175 0.0
C564 C 0.06603 0.70727 0.32517 0.0
C565 C 0.08153 0.6928 0.36046 0.0
C566 C 0.94594 0.62018 0.37111 0.0
C567 C 0.94903 0.60003 0.36557 0.0
C568 C 0.92657 0.62163 0.35892 0.0
C569 C 0.93283 0.58179 0.34762 0.0
C570 C 0.91078 0.60303 0.34107 0.0
N571 N 0.91422 0.58367 0.33582 0.0
C572 C 0.98605 0.6078 0.43549 0.0
C573 C 0.01398 0.61552 0.39912 0.0
C574 C 0.98646 0.58641 0.44257 0.0
N575 N -0.00047 0.62166 0.41395 0.0
C576 C 0.01518 0.59452 0.40568 0.0
C577 C 0.00102 0.57948 0.4274 0.0
H578 H 0.97444 0.61298 0.44662 0.0
H579 H 0.02384 0.6264 0.38154 0.0
C580 C 0.9762 0.67808 0.30909 0.0
N581 N 0.97742 0.66023 0.32355 0.0
C582 C 0.97769 0.67847 0.28062 0.0
C583 C 0.98062 0.64151 0.28245 0.0
C584 C 0.97929 0.64197 0.31088 0.0
C585 C 0.98062 0.66038 0.26697 0.0
H586 H 0.97579 0.69298 0.31967 0.0
H587 H 0.98121 0.62858 0.32291 0.0
O588 O -0.00026 0.67383 0.42904 0.0
O589 O 0.9868 0.69505 0.37672 0.0
O590 O 0.0152 0.66687 0.37049 0.0
O591 O 0.96176 0.63836 0.38841 0.0
H592 H 0.01081 0.71802 0.44689 0.0
H593 H 0.03008 0.6612 0.45169 0.0
H594 H 0.0442 0.74283 0.4799 0.0
H595 H 0.06315 0.68701 0.48462 0.0
H596 H 0.91905 0.70171 0.36029 0.0
H597 H 0.00172 0.73785 0.40147 0.0
H598 H 0.94241 0.67959 0.35616 0.0
H599 H 0.97751 0.75915 0.40439 0.0
H600 H 0.10444 0.74975 0.40716 0.0
H601 H 0.0657 0.77263 0.35229 0.0
H602 H 0.886 0.63241 0.44081 0.0
H603 H 0.93411 0.7083 0.46459 0.0
H604 H 0.02725 0.69466 0.32606 0.0
H605 H 0.05537 0.66862 0.39027 0.0
H606 H 0.06942 0.71845 0.3071 0.0
H607 H 0.09703 0.69271 0.37 0.0
H608 H 0.96388 0.59855 0.37482 0.0
H609 H 0.92375 0.63693 0.3632 0.0
H610 H 0.93509 0.56617 0.34303 0.0
H611 H 0.89577 0.60397 0.33141 0.0
H612 H 0.97526 0.57524 0.45942 0.0
H613 H 0.02623 0.58951 0.39314 0.0
H614 H 0.97809 0.69364 0.26962 0.0
H615 H 0.98261 0.62707 0.27278 0.0
Li616 Li 0.31992 0.01654 0.72728 0.0
Li617 Li 0.29676 0.97454 0.74015 0.0
Li618 Li 0.34263 0.99451 0.73134 0.0
Li619 Li 0.3115 0.98516 0.69365 0.0
C620 C 0.33096 0.02081 0.77824 0.0
N621 N 0.34324 0.06048 0.81218 0.0
C622 C 0.31277 0.02567 0.78754 0.0
C623 C 0.35539 0.03605 0.78626 0.0
C624 C 0.31936 0.04586 0.80465 0.0
C625 C 0.36122 0.05602 0.80344 0.0
C626 C 0.26261 0.97968 0.7135 0.0
C627 C 0.22318 0.94603 0.69959 0.0
N628 N 0.2118 0.95466 0.7162 0.0
C629 C 0.2505 0.98834 0.73022 0.0
C630 C 0.24883 0.95847 0.69787 0.0
C631 C 0.22482 0.9754 0.73138 0.0
C632 C 0.3057 0.05162 0.71774 0.0
N633 N 0.32443 0.04909 0.72802 0.0
C634 C 0.35175 0.09257 0.72554 0.0
C635 C 0.34697 0.06905 0.73286 0.0
C636 C 0.33293 0.09542 0.71387 0.0
C637 C 0.30947 0.0748 0.71089 0.0
H638 H 0.28835 0.03555 0.71289 0.0
H639 H 0.36179 0.06654 0.74028 0.0
C640 C 0.26763 0.92663 0.7607 0.0
N641 N 0.27086 0.94972 0.76182 0.0
C642 C 0.24813 0.90728 0.77457 0.0
C643 C 0.23581 0.93585 0.79101 0.0
C644 C 0.2559 0.95475 0.7773 0.0
C645 C 0.23172 0.91177 0.78951 0.0
H646 H 0.28008 0.92314 0.74887 0.0
H647 H 0.25929 0.97335 0.77874 0.0
C648 C 0.35619 0.03687 0.68809 0.0
N649 N 0.38205 0.08206 0.66258 0.0
C650 C 0.3445 0.04419 0.66907 0.0
C651 C 0.38106 0.0525 0.69409 0.0
C652 C 0.35787 0.06712 0.65641 0.0
C653 C 0.39381 0.07528 0.68097 0.0
C654 C 0.31269 0.9433 0.70158 0.0
C655 C 0.33323 0.94127 0.69477 0.0
C656 C 0.28962 0.92623 0.69115 0.0
C657 C 0.33046 0.92254 0.67712 0.0
C658 C 0.28759 0.90777 0.67354 0.0
N659 N 0.30789 0.90634 0.66691 0.0
C660 C 0.37812 0.9922 0.76555 0.0
C661 C 0.38825 -0.00016 0.71851 0.0
C662 C 0.40019 0.99257 0.77092 0.0
N663 N 0.37267 0.9958 0.73967 0.0
C664 C 0.41026 -1e-05 0.72287 0.0
C665 C 0.41639 0.99623 0.74932 0.0
H666 H 0.36525 0.98889 0.78194 0.0
H667 H 0.38332 0.00254 0.69814 0.0
C668 C 0.29183 0.98661 0.64312 0.0
N669 N 0.30706 0.97994 0.65537 0.0
C670 C 0.29229 0.98944 0.61484 0.0
C671 C 0.32307 0.97709 0.61207 0.0
C672 C 0.32236 0.97493 0.64051 0.0
C673 C 0.30847 0.9852 0.59912 0.0
H674 H 0.28063 0.99152 0.65543 0.0
H675 H 0.33513 0.97085 0.65077 0.0
O676 O 0.32492 0.00131 0.76123 0.0
O677 O 0.2878 0.99199 0.71229 0.0
O678 O 0.34331 0.0147 0.70114 0.0
O679 O 0.31508 0.96164 0.71869 0.0
H680 H 0.29383 0.01419 0.78132 0.0
H681 H 0.36974 0.03267 0.77906 0.0
H682 H 0.30549 0.04993 0.81187 0.0
H683 H 0.38006 0.06803 0.80973 0.0
H684 H 0.21231 0.92955 0.68767 0.0
H685 H 0.2608 0.00461 0.74266 0.0
H686 H 0.2578 0.95177 0.68439 0.0
H687 H 0.21525 0.98177 0.74445 0.0
H688 H 0.37015 0.10816 0.72777 0.0
H689 H 0.2947 0.07637 0.70142 0.0
H690 H 0.24554 0.88891 0.7731 0.0
H691 H 0.22367 0.93997 0.80272 0.0
H692 H 0.32518 0.03255 0.66456 0.0
H693 H 0.39033 0.04725 0.70898 0.0
H694 H 0.349 0.07311 0.64183 0.0
H695 H 0.41302 0.08762 0.68551 0.0
H696 H 0.35115 0.954 0.70295 0.0
H697 H 0.27343 0.92708 0.69675 0.0
H698 H 0.34624 0.92087 0.67155 0.0
H699 H 0.26986 0.89452 0.66524 0.0
H700 H 0.40431 0.98952 0.79156 0.0
H701 H 0.42244 0.00311 0.70575 0.0
H702 H 0.28089 0.99587 0.60546 0.0
H703 H 0.33605 0.97405 0.60052 0.0
Li704 Li 0.30578 0.31802 0.06078 0.0
Li705 Li 0.32977 0.3004 0.07448 0.0
Li706 Li 0.34955 0.34636 0.06995 0.0
Li707 Li 0.33538 0.31765 0.02989 0.0
C708 C 0.30981 0.32877 0.11394 0.0
N709 N 0.28189 0.33862 0.14991 0.0
C710 C 0.28715 0.30974 0.12312 0.0
C711 C 0.31833 0.3528 0.12312 0.0
C712 C 0.27328 0.31511 0.14127 0.0
C713 C 0.30393 0.3574 0.1413 0.0
C714 C 0.29318 0.26459 0.0487 0.0
C715 C 0.29048 0.22495 0.04518 0.0
N716 N 0.26878 0.21458 0.05901 0.0
C717 C 0.27082 0.25352 0.06285 0.0
C718 C 0.30305 0.25018 0.0397 0.0
C719 C 0.25877 0.22822 0.06783 0.0
C720 C 0.25992 0.30042 0.03772 0.0
N721 N 0.27419 0.31572 0.058 0.0
C722 C 0.2468 0.33159 0.0631 0.0
C723 C 0.26793 0.33102 0.07091 0.0
C724 C 0.2322 0.31651 0.04159 0.0
C725 C 0.23876 0.30043 0.02925 0.0
H726 H 0.26579 0.28925 0.02687 0.0
H727 H 0.28002 0.34389 0.08604 0.0
C728 C 0.34994 0.27143 0.0929 0.0
N729 N 0.33044 0.27509 0.09543 0.0
C730 C 0.34987 0.25169 0.10618 0.0
C731 C 0.30981 0.24012 0.12473 0.0
C732 C 0.31088 0.26033 0.11153 0.0
C733 C 0.32939 0.23552 0.12188 0.0
H734 H 0.36538 0.28357 0.08021 0.0
H735 H 0.29577 0.26383 0.1135 0.0
C736 C 0.31782 0.35603 0.02752 0.0
N737 N 0.29021 0.37557 0.00702 0.0
C738 C 0.30483 0.3471 0.00306 0.0
C739 C 0.31686 0.37497 0.04149 0.0
C740 C 0.29095 0.3572 0.99306 0.0
C741 C 0.3028 0.3846 0.03078 0.0
C742 C 0.37959 0.32721 0.0386 0.0
C743 C 0.39859 0.35093 0.03245 0.0
C744 C 0.37852 0.30698 0.02529 0.0
C745 C 0.41614 0.35402 0.0129 0.0
C746 C 0.3964 0.31084 0.00585 0.0
N747 N 0.41468 0.33409 0.0001 0.0
C748 C 0.38818 0.37961 0.10442 0.0
C749 C 0.38062 0.39737 0.06551 0.0
C750 C 0.40874 0.40218 0.11125 0.0
N751 N 0.37481 0.37764 0.08175 0.0
C752 C 0.40086 0.42026 0.07165 0.0
C753 C 0.41546 0.42281 0.09454 0.0
H754 H 0.38329 0.36348 0.11672 0.0
H755 H 0.37013 0.3951 0.04715 0.0
C756 C 0.32783 0.29567 0.97754 0.0
N757 N 0.34086 0.31683 0.99201 0.0
C758 C 0.32741 0.29638 0.94904 0.0
C759 C 0.35443 0.34049 0.95102 0.0
C760 C 0.35453 0.3389 0.97942 0.0
C761 C 0.34015 0.31913 0.93557 0.0
H762 H 0.31655 0.27851 0.98811 0.0
H763 H 0.36422 0.35547 0.99155 0.0
O764 O 0.32383 0.32388 0.09647 0.0
O765 O 0.30548 0.28943 0.04401 0.0
O766 O 0.3309 0.34586 0.03808 0.0
O767 O 0.36189 0.32384 0.0572 0.0
H768 H 0.28019 0.29109 0.11607 0.0
H769 H 0.33583 0.36775 0.11624 0.0
H770 H 0.25564 0.30059 0.14843 0.0
H771 H 0.31026 0.37591 0.14853 0.0
H772 H 0.29801 0.21363 0.03852 0.0
H773 H 0.26304 0.26438 0.07033 0.0
H774 H 0.3204 0.25843 0.02893 0.0
H775 H 0.24153 0.21945 0.07888 0.0
H776 H 0.2424 0.34428 0.07318 0.0
H777 H 0.22843 0.28892 0.01217 0.0
H778 H 0.36529 0.24865 0.10356 0.0
H779 H 0.29384 0.22815 0.13694 0.0
H780 H 0.30511 0.33224 0.99214 0.0
H781 H 0.3265 0.38183 0.06066 0.0
H782 H 0.28065 0.35034 0.97427 0.0
H783 H 0.30173 0.39913 0.04148 0.0
H784 H 0.39972 0.3668 0.04249 0.0
H785 H 0.36389 0.28852 0.02971 0.0
H786 H 0.43089 0.37228 0.00786 0.0
H787 H 0.39571 0.29536 0.99529 0.0
H788 H 0.41949 0.4034 0.12909 0.0
H789 H 0.40569 0.43554 0.0579 0.0
H790 H 0.31598 0.27957 0.93779 0.0
H791 H 0.36457 0.35834 0.9413 0.0
Li792 Li 0.03297 0.3316 0.4026 0.0
Li793 Li 0.99159 0.30727 0.38828 0.0
Li794 Li 0.02129 0.33869 0.35867 0.0
Li795 Li 0.00592 0.35055 0.39976 0.0
C796 C 0.03302 0.29634 0.3749 0.0
N797 N 0.05875 0.27188 0.38395 0.0
C798 C 0.02204 0.27406 0.38918 0.0
C799 C 0.05702 0.30609 0.36507 0.0
C800 C 0.03536 0.26198 0.39354 0.0
C801 C 0.06975 0.29349 0.36993 0.0
C802 C 0.98387 0.30947 0.44174 0.0
C803 C 0.94855 0.30256 0.4682 0.0
N804 N 0.94555 0.28057 0.47667 0.0
C805 C 0.98049 0.28684 0.45076 0.0
C806 C 0.96782 0.31744 0.45055 0.0
C807 C 0.96098 0.27249 0.46839 0.0
C808 C 0.08237 0.35116 0.41985 0.0
N809 N 0.05911 0.332 0.42297 0.0
C810 C 0.07337 0.31165 0.45285 0.0
C811 C 0.05426 0.31268 0.43948 0.0
C812 C 0.09771 0.33092 0.44957 0.0
C813 C 0.10203 0.35104 0.43306 0.0
H814 H 0.08572 0.36648 0.40692 0.0
H815 H 0.03561 0.29772 0.44172 0.0
C816 C 0.96486 0.26286 0.36197 0.0
N817 N 0.96303 0.27527 0.38379 0.0
C818 C 0.94435 0.24162 0.35241 0.0
C819 C 0.92029 0.24564 0.38844 0.0
C820 C 0.94131 0.26702 0.3972 0.0
C821 C 0.92154 0.23292 0.36537 0.0
H822 H 0.98198 0.27026 0.35087 0.0
H823 H 0.93984 0.27765 0.41364 0.0
C824 C 0.05552 0.38279 0.3696 0.0
N825 N 0.08435 0.41994 0.33338 0.0
C826 C 0.05154 0.40261 0.36584 0.0
C827 C 0.07425 0.38193 0.35505 0.0
C828 C 0.0663 0.4212 0.34742 0.0
C829 C 0.08859 0.40087 0.33679 0.0
C830 C 0.96509 0.31953 0.35637 0.0
C831 C 0.96172 0.30844 0.33074 0.0
C832 C 0.94466 0.31648 0.37112 0.0
C833 C 0.93792 0.29438 0.32033 0.0
C834 C 0.92117 0.30229 0.35998 0.0
N835 N 0.91831 0.29161 0.33505 0.0
C836 C 0.03377 0.33254 0.30486 0.0
C837 C 0.01962 0.36097 0.31057 0.0
C838 C 0.03128 0.33295 0.27654 0.0
N839 N 0.02735 0.34596 0.32113 0.0
C840 C 0.01669 0.36181 0.28245 0.0
C841 C 0.0217 0.34698 0.26519 0.0
H842 H 0.03908 0.32017 0.31391 0.0
H843 H 0.01396 0.37084 0.32414 0.0
C844 C 0.01201 0.38989 0.43373 0.0
N845 N 0.99933 0.37528 0.41227 0.0
C846 C 0.01036 0.41083 0.43972 0.0
C847 C 0.98188 0.40055 0.40213 0.0
C848 C 0.98426 0.38004 0.39673 0.0
C849 C 0.99558 0.4167 0.42336 0.0
H850 H 0.02429 0.38593 0.44534 0.0
H851 H 0.97495 0.36856 0.37931 0.0
O852 O 0.02046 0.30869 0.37087 0.0
O853 O 0.00307 0.32399 0.42485 0.0
O854 O 0.04097 0.36415 0.38716 0.0
O855 O 0.98819 0.33279 0.36728 0.0
H856 H 0.00358 0.26636 0.3972 0.0
H857 H 0.06582 0.32334 0.35405 0.0
H858 H 0.02715 0.24481 0.40471 0.0
H859 H 0.0884 0.30091 0.36261 0.0
H860 H 0.93596 0.30847 0.47514 0.0
H861 H 0.9926 0.28029 0.444 0.0
H862 H 0.97018 0.33491 0.44383 0.0
H863 H 0.95807 0.25488 0.47543 0.0
H864 H 0.06912 0.29563 0.46508 0.0
H865 H 0.1204 0.36655 0.43037 0.0
H866 H 0.94615 0.23286 0.33419 0.0
H867 H 0.9031 0.23956 0.39915 0.0
H868 H 0.03714 0.4036 0.37687 0.0
H869 H 0.07747 0.36665 0.35756 0.0
H870 H 0.06337 0.43661 0.34424 0.0
H871 H 0.10305 0.40036 0.32528 0.0
H872 H 0.97725 0.31031 0.31918 0.0
H873 H 0.9469 0.3246 0.39118 0.0
H874 H 0.93504 0.28556 0.30061 0.0
H875 H 0.90519 0.29963 0.37125 0.0
H876 H 0.03505 0.32105 0.26388 0.0
H877 H 0.00937 0.37292 0.27439 0.0
H878 H 0.02148 0.4229 0.45607 0.0
H879 H 0.97 0.40413 0.38922 0.0
Li880 Li 0.70099 0.03138 0.73835 0.0
Li881 Li 0.67902 0.98904 0.72427 0.0
Li882 Li 0.68419 0.02087 0.69297 0.0
Li883 Li 0.65481 0.00927 0.73208 0.0
C884 C 0.73361 0.0223 0.71388 0.0
N885 N 0.78209 0.03611 0.72432 0.0
C886 C 0.7393 0.00671 0.72862 0.0
C887 C 0.75257 0.04483 0.70429 0.0
C888 C 0.76393 0.01403 0.7337 0.0
C889 C 0.77696 0.05152 0.70986 0.0
C890 C 0.66896 0.98473 0.77849 0.0
C891 C 0.63896 0.95019 0.80479 0.0
N892 N 0.65746 0.9488 0.81759 0.0
C893 C 0.68768 0.98298 0.79193 0.0
C894 C 0.6444 0.96825 0.785 0.0
C895 C 0.68149 0.96468 0.81163 0.0
C896 C 0.73127 0.07963 0.75729 0.0
N897 N 0.72765 0.05642 0.75888 0.0
C898 C 0.76356 0.07043 0.78664 0.0
C899 C 0.74306 0.05148 0.77358 0.0
C900 C 0.76812 0.0947 0.78476 0.0
C901 C 0.75145 0.09912 0.77012 0.0
H902 H 0.7186 0.08309 0.74585 0.0
H903 H 0.73983 0.03293 0.77469 0.0
C904 C 0.68559 0.95726 0.69449 0.0
N905 N 0.67825 0.95842 0.72027 0.0
C906 C 0.68568 0.93636 0.68535 0.0
C907 C 0.67182 0.91828 0.73001 0.0
C908 C 0.67121 0.93941 0.73804 0.0
C909 C 0.67907 0.91649 0.70321 0.0
H910 H 0.69089 0.97256 0.68069 0.0
H911 H 0.66506 0.94042 0.7583 0.0
C912 C 0.68245 0.06045 0.70105 0.0
N913 N 0.68634 0.09468 0.66292 0.0
C914 C 0.66196 0.06268 0.69462 0.0
C915 C 0.70497 0.07578 0.68829 0.0
C916 C 0.66429 0.08007 0.67523 0.0
C917 C 0.70655 0.09292 0.669 0.0
C918 C 0.63831 0.9669 0.69137 0.0
C919 C 0.64069 0.96023 0.66476 0.0
C920 C 0.62006 0.94961 0.70851 0.0
C921 C 0.62494 0.93619 0.65589 0.0
C922 C 0.60465 0.92575 0.69887 0.0
N923 N 0.60741 0.91958 0.67298 0.0
C924 C 0.7062 0.02555 0.64251 0.0
C925 C 0.66857 0.02585 0.64049 0.0
C926 C 0.70589 0.02233 0.61433 0.0
N927 N 0.68741 0.02661 0.65498 0.0
C928 C 0.66763 0.02283 0.61215 0.0
C929 C 0.686 0.0201 0.59897 0.0
H930 H 0.72053 0.02545 0.65464 0.0
H931 H 0.65341 0.02577 0.65111 0.0
C932 C 0.61809 0.00838 0.76787 0.0
N933 N 0.62428 0.00619 0.74179 0.0
C934 C 0.59564 0.00726 0.77319 0.0
C935 C 0.58674 0.00193 0.72476 0.0
C936 C 0.60906 0.00274 0.72045 0.0
C937 C 0.57991 0.00439 0.75135 0.0
H938 H 0.6307 0.0113 0.78441 0.0
H939 H 0.61459 0.00119 0.69995 0.0
O940 O 0.70963 0.01556 0.70877 0.0
O941 O 0.67466 0.00292 0.75968 0.0
O942 O 0.6805 0.04329 0.71965 0.0
O943 O 0.65383 0.99023 0.7006 0.0
H944 H 0.72491 0.98929 0.7364 0.0
H945 H 0.74849 0.05708 0.69279 0.0
H946 H 0.7686 0.00221 0.7452 0.0
H947 H 0.79182 0.06896 0.70269 0.0
H948 H 0.62003 0.93731 0.81 0.0
H949 H 0.70675 0.99548 0.78712 0.0
H950 H 0.62968 0.96942 0.77498 0.0
H951 H 0.69579 0.96308 0.82213 0.0
H952 H 0.77601 0.0662 0.79752 0.0
H953 H 0.75396 0.11745 0.76861 0.0
H954 H 0.69057 0.93581 0.66427 0.0
H955 H 0.66678 0.90366 0.74472 0.0
H956 H 0.64446 0.05113 0.70446 0.0
H957 H 0.72101 0.07429 0.69308 0.0
H958 H 0.64856 0.08195 0.66998 0.0
H959 H 0.72382 0.10479 0.65885 0.0
H960 H 0.65473 0.97339 0.65122 0.0
H961 H 0.61787 0.95454 0.72906 0.0
H962 H 0.62668 0.93072 0.63542 0.0
H963 H 0.59051 0.91214 0.71196 0.0
H964 H 0.72045 0.02045 0.60481 0.0
H965 H 0.65187 0.02093 0.60098 0.0
H966 H 0.59092 0.00928 0.79395 0.0
H967 H 0.57494 0.99948 0.70747 0.0
Li968 Li 0.67426 0.70007 0.07568 0.0
Li969 Li 0.69244 0.67581 0.06296 0.0
Li970 Li 0.66868 0.68233 0.03016 0.0
Li971 Li 0.64871 0.65403 0.06854 0.0
C972 C 0.70771 0.73093 0.03727 0.0
N973 N 0.72344 0.77752 0.01682 0.0
C974 C 0.73258 0.74661 0.03135 0.0
C975 C 0.69086 0.73895 0.03277 0.0
C976 C 0.74017 0.77009 0.021 0.0
C977 C 0.69916 0.76256 0.02245 0.0
C978 C 0.68789 0.6681 0.11436 0.0
C979 C 0.69743 0.63952 0.13638 0.0
N980 N 0.71787 0.65874 0.14751 0.0
C981 C 0.70892 0.68758 0.12607 0.0
C982 C 0.682 0.64386 0.11957 0.0
C983 C 0.72387 0.68246 0.14275 0.0
C984 C 0.65536 0.72661 0.10243 0.0
N985 N 0.67655 0.72684 0.0961 0.0
C986 C 0.70053 0.76659 0.11631 0.0
C987 C 0.6989 0.74614 0.10292 0.0
C988 C 0.67895 0.7671 0.12272 0.0
C989 C 0.65613 0.74665 0.11577 0.0
H990 H 0.63786 0.711 0.09669 0.0
H991 H 0.71545 0.7458 0.09759 0.0
C992 C 0.71776 0.64932 0.06231 0.0
N993 N 0.72071 0.67214 0.06589 0.0
C994 C 0.73793 0.6467 0.05561 0.0
C995 C 0.76412 0.6908 0.05981 0.0
C996 C 0.74335 0.69264 0.06585 0.0
C997 C 0.76125 0.66772 0.05339 0.0
H998 H 0.69949 0.63337 0.06235 0.0
H999 H 0.74505 0.71052 0.06858 0.0
C1000 C 0.62246 0.67717 0.04087 0.0
N1001 N 0.58106 0.66986 0.01287 0.0
C1002 C 0.60552 0.65381 0.03101 0.0
C1003 C 0.61809 0.69673 0.03686 0.0
C1004 C 0.58478 0.65051 0.01679 0.0
C1005 C 0.59713 0.69269 0.02256 0.0
C1006 C 0.67841 0.64573 0.01688 0.0
C1007 C 0.70052 0.66417 0.00567 0.0
C1008 C 0.66714 0.62207 0.00569 0.0
C1009 C 0.71109 0.65855 0.98374 0.0
C1010 C 0.67827 0.6172 0.98369 0.0
N1011 N 0.69983 0.63537 0.97329 0.0
C1012 C 0.6825 0.70272 0.9756 0.0
C1013 C 0.64646 0.66378 0.97985 0.0
C1014 C 0.68198 0.70022 0.9472 0.0
N1015 N 0.66504 0.68446 0.99137 0.0
C1016 C 0.6452 0.66055 0.95161 0.0
C1017 C 0.66352 0.67859 0.93494 0.0
H1018 H 0.69782 0.71849 0.98488 0.0
H1019 H 0.63361 0.6489 0.99266 0.0
C1020 C 0.60275 0.6253 0.09495 0.0
N1021 N 0.6205 0.62456 0.07972 0.0
C1022 C 0.58079 0.60359 0.10064 0.0
C1023 C 0.59615 0.58093 0.07534 0.0
C1024 C 0.61784 0.60299 0.07038 0.0
C1025 C 0.57714 0.58113 0.09027 0.0
H1026 H 0.60537 0.64281 0.10192 0.0
H1027 H 0.63237 0.60301 0.05851 0.0
O1028 O 0.70013 0.70803 0.04777 0.0
O1029 O 0.67339 0.67272 0.09741 0.0
O1030 O 0.64277 0.68073 0.05515 0.0
O1031 O 0.6675 0.6508 0.03827 0.0
H1032 H 0.74588 0.7407 0.03467 0.0
H1033 H 0.67163 0.72706 0.03717 0.0
H1034 H 0.75936 0.78241 0.01631 0.0
H1035 H 0.68629 0.76899 0.0189 0.0
H1036 H 0.69319 0.62086 0.1405 0.0
H1037 H 0.71375 0.70644 0.12207 0.0
H1038 H 0.66583 0.62861 0.1105 0.0
H1039 H 0.74028 0.69735 0.15186 0.0
H1040 H 0.71849 0.78181 0.12158 0.0
H1041 H 0.63905 0.74635 0.11998 0.0
H1042 H 0.73517 0.62865 0.05069 0.0
H1043 H 0.7819 0.70737 0.05805 0.0
H1044 H 0.60846 0.63841 0.03393 0.0
H1045 H 0.63061 0.71485 0.04486 0.0
H1046 H 0.57166 0.63256 0.00886 0.0
H1047 H 0.59359 0.70769 0.01925 0.0
H1048 H 0.70949 0.68267 0.01373 0.0
H1049 H 0.6499 0.60762 0.01379 0.0
H1050 H 0.72822 0.67263 0.97499 0.0
H1051 H 0.66972 0.59896 0.97487 0.0
H1052 H 0.69675 0.71439 0.93518 0.0
H1053 H 0.63056 0.64362 0.94303 0.0
H1054 H 0.56647 0.60448 0.11206 0.0
H1055 H 0.59412 0.56393 0.06729 0.0
C1056 C 0.31229 0.11999 0.20834 0.0
C1057 C 0.32326 0.10802 0.19526 0.0
C1058 C 0.31301 0.14073 0.19659 0.0
C1059 C 0.32462 0.14941 0.17096 0.0
C1060 C 0.33536 0.13711 0.15745 0.0
C1061 C 0.33474 0.11667 0.16991 0.0
C1062 C 0.30169 0.15359 0.2118 0.0
C1063 C 0.3475 0.14556 0.12987 0.0
C1064 C 0.30772 0.19023 0.13001 0.0
C1065 C 0.32813 0.21357 0.13465 0.0
C1066 C 0.30642 0.16913 0.1415 0.0
C1067 C 0.32581 0.17156 0.15843 0.0
C1068 C 0.34635 0.19517 0.16341 0.0
C1069 C 0.34738 0.2159 0.1512 0.0
C1070 C 0.28444 0.14424 0.13532 0.0
C1071 C 0.36715 0.19853 0.18176 0.0
H1072 H 0.30364 0.11345 0.2281 0.0
H1073 H 0.34305 0.10726 0.15972 0.0
H1074 H 0.31592 0.17297 0.21591 0.0
H1075 H 0.28725 0.15398 0.19911 0.0
H1076 H 0.29337 0.14449 0.23155 0.0
H1077 H 0.35424 0.13348 0.12169 0.0
H1078 H 0.33432 0.14593 0.11504 0.0
H1079 H 0.3633 0.16459 0.1314 0.0
H1080 H 0.29296 0.18847 0.11696 0.0
H1081 H 0.36308 0.23402 0.15489 0.0
H1082 H 0.2748 0.13519 0.15454 0.0
H1083 H 0.2906 0.13219 0.12574 0.0
H1084 H 0.27113 0.1455 0.12141 0.0
H1085 H 0.35991 0.19088 0.20232 0.0
H1086 H 0.38153 0.21818 0.18401 0.0
H1087 H 0.37584 0.18827 0.1734 0.0
C1088 C 0.21477 0.34497 0.53065 0.0
C1089 C 0.2178 0.32444 0.52714 0.0
C1090 C 0.19546 0.3463 0.51786 0.0
C1091 C 0.17854 0.32646 0.50142 0.0
C1092 C 0.1814 0.30565 0.49781 0.0
C1093 C 0.20108 0.30495 0.51057 0.0
C1094 C 0.19309 0.36888 0.52205 0.0
C1095 C 0.16361 0.28407 0.48057 0.0
C1096 C 0.11586 0.32021 0.48941 0.0
C1097 C 0.11847 0.32987 0.46296 0.0
C1098 C 0.13517 0.31877 0.50206 0.0
C1099 C 0.15777 0.32749 0.48809 0.0
C1100 C 0.16061 0.33738 0.46148 0.0
C1101 C 0.1409 0.33831 0.44917 0.0
C1102 C 0.1314 0.30795 0.53041 0.0
C1103 C 0.1845 0.347 0.446 0.0
H1104 H 0.22729 0.35993 0.54378 0.0
H1105 H 0.20344 0.28916 0.50739 0.0
H1106 H 0.19328 0.37725 0.50202 0.0
H1107 H 0.17525 0.36366 0.53197 0.0
H1108 H 0.20814 0.38297 0.53489 0.0
H1109 H 0.16826 0.26915 0.48005 0.0
H1110 H 0.14467 0.27642 0.48868 0.0
H1111 H 0.16355 0.29021 0.45933 0.0
H1112 H 0.09876 0.31397 0.5004 0.0
H1113 H 0.14299 0.3454 0.42856 0.0
H1114 H 0.14477 0.32191 0.54477 0.0
H1115 H 0.13483 0.29223 0.53036 0.0
H1116 H 0.11251 0.30145 0.53823 0.0
H1117 H 0.19977 0.36182 0.45791 0.0
H1118 H 0.18383 0.3544 0.42559 0.0
H1119 H 0.18892 0.33209 0.4432 0.0
C1120 C 0.8037 0.13786 0.78393 0.0
C1121 C 0.79023 0.11536 0.79769 0.0
C1122 C 0.82437 0.1577 0.796 0.0
C1123 C 0.83185 0.15493 0.82241 0.0
C1124 C 0.81857 0.13217 0.83626 0.0
C1125 C 0.79788 0.11267 0.82376 0.0
C1126 C 0.83807 0.1817 0.78059 0.0
C1127 C 0.82604 0.12853 0.86444 0.0
C1128 C 0.89712 0.20013 0.845 0.0
C1129 C 0.89351 0.21646 0.8613 0.0
C1130 C 0.87721 0.17995 0.83227 0.0
C1131 C 0.85315 0.17609 0.83584 0.0
C1132 C 0.84939 0.19253 0.85219 0.0
C1133 C 0.86959 0.21245 0.86478 0.0
C1134 C 0.8819 0.16276 0.81501 0.0
C1135 C 0.824 0.18904 0.85644 0.0
H1136 H 0.79817 0.13994 0.76358 0.0
H1137 H 0.78743 0.09542 0.83463 0.0
H1138 H 0.83766 0.1966 0.79237 0.0
H1139 H 0.85766 0.18691 0.77815 0.0
H1140 H 0.83012 0.1807 0.76003 0.0
H1141 H 0.81429 0.10944 0.87204 0.0
H1142 H 0.84546 0.13281 0.86427 0.0
H1143 H 0.8248 0.14139 0.87906 0.0
H1144 H 0.91557 0.20325 0.84196 0.0
H1145 H 0.86657 0.2247 0.87775 0.0
H1146 H 0.8756 0.16246 0.79377 0.0
H1147 H 0.87121 0.14373 0.82307 0.0
H1148 H 0.90168 0.16818 0.81452 0.0
H1149 H 0.8157 0.18912 0.83645 0.0
H1150 H 0.82424 0.20361 0.86956 0.0
H1151 H 0.81187 0.1709 0.86608 0.0
C1152 C 0.66322 0.78603 0.15655 0.0
C1153 C 0.68013 0.78897 0.13607 0.0
C1154 C 0.66352 0.80647 0.16862 0.0
C1155 C 0.68122 0.83047 0.16009 0.0
C1156 C 0.69856 0.83361 0.1397 0.0
C1157 C 0.69778 0.81283 0.1279 0.0
C1158 C 0.64474 0.80236 0.19033 0.0
C1159 C 0.71775 0.85892 0.13013 0.0
C1160 C 0.66667 0.8816 0.17284 0.0
C1161 C 0.67995 0.89233 0.19688 0.0
C1162 C 0.66713 0.86163 0.1605 0.0
C1163 C 0.68135 0.85225 0.17234 0.0
C1164 C 0.69517 0.86327 0.19628 0.0
C1165 C 0.69422 0.88308 0.20832 0.0
C1166 C 0.65212 0.85035 0.13499 0.0
C1167 C 0.71064 0.85385 0.20944 0.0
H1168 H 0.64977 0.76768 0.16327 0.0
H1169 H 0.7107 0.81527 0.11184 0.0
H1170 H 0.65416 0.8118 0.20951 0.0
H1171 H 0.6334 0.81045 0.18368 0.0
H1172 H 0.63232 0.78253 0.19481 0.0
H1173 H 0.73034 0.85824 0.11465 0.0
H1174 H 0.70865 0.86855 0.12111 0.0
H1175 H 0.72884 0.8701 0.14774 0.0
H1176 H 0.65591 0.88885 0.16361 0.0
H1177 H 0.70425 0.89097 0.22709 0.0
H1178 H 0.63829 0.83078 0.13882 0.0
H1179 H 0.66418 0.85072 0.11821 0.0
H1180 H 0.64238 0.86008 0.12807 0.0
H1181 H 0.69868 0.83458 0.21629 0.0
H1182 H 0.72114 0.86512 0.22732 0.0
H1183 H 0.72382 0.85379 0.19437 0.0
C1184 C 0.86191 0.65718 0.45766 0.0
C1185 C 0.88582 0.67071 0.4684 0.0
C1186 C 0.84186 0.65698 0.4706 0.0
C1187 C 0.84583 0.67126 0.49442 0.0
C1188 C 0.86988 0.68532 0.50516 0.0
C1189 C 0.8895 0.68459 0.49228 0.0
C1190 C 0.81639 0.64137 0.45882 0.0
C1191 C 0.87492 0.70118 0.53023 0.0
C1192 C 0.79679 0.68745 0.5127 0.0
C1193 C 0.78429 0.67096 0.53413 0.0
C1194 C 0.81711 0.68805 0.49994 0.0
C1195 C 0.82475 0.67131 0.50824 0.0
C1196 C 0.81213 0.65445 0.52959 0.0
C1197 C 0.79231 0.65471 0.54251 0.0
C1198 C 0.83043 0.70663 0.47757 0.0
C1199 C 0.81947 0.63601 0.5387 0.0
H1200 H 0.85878 0.64683 0.43893 0.0
H1201 H 0.9077 0.69477 0.50117 0.0
H1202 H 0.80393 0.62836 0.47455 0.0
H1203 H 0.80871 0.6532 0.45274 0.0
H1204 H 0.8163 0.63065 0.44071 0.0
H1205 H 0.89483 0.7119 0.53526 0.0
H1206 H 0.86803 0.7142 0.52707 0.0
H1207 H 0.86495 0.68952 0.54806 0.0
H1208 H 0.79059 0.6998 0.50563 0.0
H1209 H 0.78324 0.64225 0.55939 0.0
H1210 H 0.82908 0.69702 0.45808 0.0
H1211 H 0.85026 0.71792 0.48266 0.0
H1212 H 0.82287 0.71911 0.47436 0.0
H1213 H 0.81891 0.62461 0.52107 0.0
H1214 H 0.80727 0.62363 0.55502 0.0
H1215 H 0.83864 0.64574 0.54644 0.0
C1216 C 0.18641 0.88653 0.7968 0.0
C1217 C 0.21017 0.89125 0.803 0.0
C1218 C 0.16569 0.86635 0.80838 0.0
C1219 C 0.16892 0.85094 0.82703 0.0
C1220 C 0.19296 0.856 0.83377 0.0
C1221 C 0.21332 0.87596 0.82139 0.0
C1222 C 0.14035 0.86124 0.80026 0.0
C1223 C 0.19717 0.8403 0.854 0.0
C1224 C 0.11676 0.81127 0.87563 0.0
C1225 C 0.10719 0.78808 0.86352 0.0
C1226 C 0.13683 0.83198 0.86389 0.0
C1227 C 0.14719 0.82933 0.83929 0.0
C1228 C 0.13715 0.8059 0.82674 0.0
C1229 C 0.11734 0.78545 0.8392 0.0
C1230 C 0.14724 0.85655 0.87808 0.0
C1231 C 0.14744 0.80243 0.8003 0.0
H1232 H 0.18407 0.89829 0.78234 0.0
H1233 H 0.23176 0.87976 0.82622 0.0
H1234 H 0.1299 0.84268 0.79093 0.0
H1235 H 0.12999 0.86129 0.8186 0.0
H1236 H 0.14102 0.87499 0.78546 0.0
H1237 H 0.21703 0.84731 0.85782 0.0
H1238 H 0.18813 0.83964 0.87372 0.0
H1239 H 0.18876 0.82115 0.8463 0.0
H1240 H 0.10881 0.81305 0.89457 0.0
H1241 H 0.10976 0.76737 0.83 0.0
H1242 H 0.14688 0.87029 0.86412 0.0
H1243 H 0.16676 0.8634 0.88359 0.0
H1244 H 0.13691 0.85551 0.89694 0.0
H1245 H 0.14744 0.81508 0.78446 0.0
H1246 H 0.13678 0.78325 0.79255 0.0
H1247 H 0.16681 0.80708 0.80333 0.0
C1248 C 0.44044 0.97752 0.21979 0.0
C1249 C 0.44036 0.99872 0.22854 0.0
C1250 C 0.46253 0.97709 0.21784 0.0
C1251 C 0.48486 0.99815 0.22565 0.0
C1252 C 0.48494 0.01999 0.23325 0.0
C1253 C 0.46264 0.02007 0.23433 0.0
C1254 C 0.46176 0.95368 0.20894 0.0
C1255 C 0.50826 0.04267 0.24226 0.0
C1256 C 0.53283 0.98681 0.25873 0.0
C1257 C 0.55116 0.99491 0.23855 0.0
C1258 C 0.51128 0.98784 0.2547 0.0
C1259 C 0.50741 0.99636 0.22946 0.0
C1260 C 0.52523 0.00355 0.20848 0.0
C1261 C 0.54705 0.00304 0.21338 0.0
C1262 C 0.49285 0.98022 0.27775 0.0
C1263 C 0.5214 0.01211 0.18105 0.0
H1264 H 0.42312 0.96105 0.21522 0.0
H1265 H 0.46245 0.03637 0.24133 0.0
H1266 H 0.4767 0.95777 0.19411 0.0
H1267 H 0.46469 0.94467 0.22691 0.0
H1268 H 0.44385 0.94048 0.19946 0.0
H1269 H 0.50564 0.0588 0.24491 0.0
H1270 H 0.51443 0.03892 0.26202 0.0
H1271 H 0.5232 0.04745 0.22722 0.0
H1272 H 0.53533 0.97973 0.27792 0.0
H1273 H 0.56108 0.00949 0.19767 0.0
H1274 H 0.47489 0.96461 0.27119 0.0
H1275 H 0.48983 0.99568 0.28319 0.0
H1276 H 0.49895 0.9746 0.29635 0.0
H1277 H 0.50328 0.99839 0.17247 0.0
H1278 H 0.536 0.01509 0.16617 0.0
H1279 H 0.52125 0.02961 0.18349 0.0
C1280 C 0.53212 0.55722 0.55741 0.0
C1281 C 0.55429 0.55772 0.56295 0.0
C1282 C 0.50975 0.53487 0.5566 0.0
C1283 C 0.50957 0.51258 0.56178 0.0
C1284 C 0.53204 0.51291 0.5661 0.0
C1285 C 0.55414 0.53548 0.56653 0.0
C1286 C 0.48621 0.53524 0.55153 0.0
C1287 C 0.53261 0.48957 0.57193 0.0
C1288 C 0.45329 0.4606 0.59572 0.0
C1289 C 0.44217 0.444 0.57406 0.0
C1290 C 0.47505 0.48305 0.59185 0.0
C1291 C 0.48585 0.48929 0.56556 0.0
C1292 C 0.47441 0.47299 0.54339 0.0
C1293 C 0.45273 0.45046 0.54792 0.0
C1294 C 0.48668 0.49992 0.61605 0.0
C1295 C 0.48531 0.47915 0.51504 0.0
H1296 H 0.53222 0.57438 0.55436 0.0
H1297 H 0.57119 0.53579 0.57114 0.0
H1298 H 0.47488 0.52136 0.53588 0.0
H1299 H 0.47522 0.53034 0.57062 0.0
H1300 H 0.48972 0.5536 0.54465 0.0
H1301 H 0.55166 0.49268 0.57236 0.0
H1302 H 0.52389 0.48206 0.59203 0.0
H1303 H 0.52192 0.47538 0.5563 0.0
H1304 H 0.44496 0.45604 0.61583 0.0
H1305 H 0.44436 0.43769 0.53111 0.0
H1306 H 0.48855 0.51816 0.61186 0.0
H1307 H 0.50544 0.5029 0.61954 0.0
H1308 H 0.47581 0.49242 0.63509 0.0
H1309 H 0.48829 0.49742 0.50866 0.0
H1310 H 0.47337 0.46523 0.49969 0.0
H1311 H 0.50353 0.48031 0.51502 0.0
C1312 C 0.97237 0.5335 0.90905 0.0
C1313 C 0.99297 0.5561 0.90211 0.0
C1314 C 0.97307 0.51154 0.90755 0.0
C1315 C 0.99492 0.5122 0.89889 0.0
C1316 C 0.01534 0.53476 0.89046 0.0
C1317 C 0.01413 0.55648 0.89218 0.0
C1318 C 0.95083 0.48782 0.91656 0.0
C1319 C 0.03894 0.5362 0.88107 0.0
C1320 C 0.00504 0.46252 0.92953 0.0
C1321 C 0.99738 0.44524 0.90829 0.0
C1322 C 0.00502 0.48469 0.92637 0.0
C1323 C 0.99709 0.48973 0.90135 0.0
C1324 C 0.9901 0.47274 0.87948 0.0
C1325 C 0.99039 0.45067 0.8832 0.0
C1326 C 0.01284 0.50243 0.95011 0.0
C1327 C 0.98154 0.4775 0.85253 0.0
H1328 H 0.95584 0.53306 0.91632 0.0
H1329 H 0.03019 0.57391 0.88699 0.0
H1330 H 0.94587 0.47333 0.90086 0.0
H1331 H 0.95519 0.48124 0.93565 0.0
H1332 H 0.93461 0.49006 0.9204 0.0
H1333 H 0.05199 0.55446 0.87219 0.0
H1334 H 0.04799 0.53282 0.89868 0.0
H1335 H 0.03507 0.52178 0.86561 0.0
H1336 H 0.01087 0.45855 0.94879 0.0
H1337 H 0.98436 0.43729 0.86679 0.0
H1338 H 0.99706 0.50433 0.95711 0.0
H1339 H 0.02759 0.52092 0.94363 0.0
H1340 H 0.01966 0.4963 0.96768 0.0
H1341 H 0.96403 0.47752 0.85553 0.0
H1342 H 0.97855 0.4634 0.83694 0.0
H1343 H 0.99521 0.49589 0.84455 0.0
C1344 C 0.97751 0.53398 0.43479 0.0
C1345 C 0.0002 0.55581 0.43266 0.0
C1346 C 0.9763 0.51105 0.43616 0.0
C1347 C 0.99832 0.51001 0.43565 0.0
C1348 C 0.02131 0.53209 0.43499 0.0
C1349 C 0.02197 0.55474 0.43331 0.0
C1350 C 0.95142 0.48792 0.43655 0.0
C1351 C 0.04521 0.53177 0.43475 0.0
C1352 C 0.99614 0.4498 0.45305 0.0
C1353 C 0.99579 0.44037 0.42694 0.0
C1354 C 0.99693 0.47245 0.45631 0.0
C1355 C 0.99727 0.48589 0.43291 0.0
C1356 C 0.99683 0.47642 0.40654 0.0
C1357 C 0.99626 0.45391 0.4039 0.0
C1358 C 0.9975 0.48206 0.48474 0.0
C1359 C 0.99717 0.49017 0.38104 0.0
H1360 H 0.96064 0.53474 0.43401 0.0
H1361 H 0.03953 0.57164 0.43193 0.0
H1362 H 0.94841 0.47798 0.41689 0.0
H1363 H 0.9506 0.4754 0.45303 0.0
H1364 H 0.9362 0.49189 0.43957 0.0
H1365 H 0.06144 0.55047 0.43719 0.0
H1366 H 0.04538 0.51982 0.45137 0.0
H1367 H 0.04704 0.52396 0.41513 0.0
H1368 H 0.99563 0.43939 0.47096 0.0
H1369 H 0.9966 0.44711 0.38363 0.0
H1370 H 0.98146 0.48472 0.48777 0.0
H1371 H 0.0143 0.50029 0.48738 0.0
H1372 H 0.99722 0.46944 0.50082 0.0
H1373 H 0.98146 0.49361 0.38129 0.0
H1374 H 0.99611 0.47995 0.36207 0.0
H1375 H 0.01428 0.50834 0.3804 0.0
C1376 C 0.53906 0.98809 0.77438 0.0
C1377 C 0.55663 0.00444 0.75582 0.0
C1378 C 0.51593 0.98638 0.77656 0.0
C1379 C 0.51054 0.00166 0.76009 0.0
C1380 C 0.52874 0.01902 0.74231 0.0
C1381 C 0.5515 0.02006 0.74025 0.0
C1382 C 0.4969 0.96748 0.79553 0.0
C1383 C 0.52387 0.03591 0.72471 0.0
C1384 C 0.4456 0.98171 0.7372 0.0
C1385 C 0.43956 0.99598 0.75401 0.0
C1386 C 0.46824 0.98255 0.73988 0.0
C1387 C 0.48537 0.99832 0.75962 0.0
C1388 C 0.47905 0.0122 0.77726 0.0
C1389 C 0.45608 0.01073 0.77436 0.0
C1390 C 0.47413 0.96718 0.72094 0.0
C1391 C 0.49694 0.02941 0.79833 0.0
H1392 H 0.54306 0.97595 0.78632 0.0
H1393 H 0.56525 0.03291 0.72614 0.0
H1394 H 0.48898 0.97609 0.80882 0.0
H1395 H 0.48158 0.95304 0.78333 0.0
H1396 H 0.50465 0.95856 0.80864 0.0
H1397 H 0.54063 0.04974 0.71375 0.0
H1398 H 0.50951 0.02492 0.70936 0.0
H1399 H 0.51685 0.04573 0.73739 0.0
H1400 H 0.43266 0.97004 0.72171 0.0
H1401 H 0.45142 0.02185 0.78728 0.0
H1402 H 0.48042 0.9563 0.73286 0.0
H1403 H 0.48936 0.97939 0.70705 0.0
H1404 H 0.45805 0.95437 0.70833 0.0
H1405 H 0.50408 0.01969 0.811 0.0
H1406 H 0.48846 0.03725 0.81199 0.0
H1407 H 0.51294 0.04478 0.78789 0.0
C1408 C 0.43906 0.46889 0.09639 0.0
C1409 C 0.43853 0.44641 0.0995 0.0
C1410 C 0.46131 0.49131 0.09764 0.0
C1411 C 0.48357 0.49122 0.10201 0.0
C1412 C 0.48301 0.46865 0.10644 0.0
C1413 C 0.46048 0.4465 0.10515 0.0
C1414 C 0.46112 0.515 0.09299 0.0
C1415 C 0.50635 0.46778 0.11112 0.0
C1416 C 0.54178 0.54312 0.07093 0.0
C1417 C 0.5532 0.55817 0.09363 0.0
C1418 C 0.51906 0.5214 0.07342 0.0
C1419 C 0.50755 0.51443 0.09933 0.0
C1420 C 0.51898 0.52954 0.12238 0.0
C1421 C 0.54164 0.55137 0.11922 0.0
C1422 C 0.50733 0.50596 0.04826 0.0
C1423 C 0.50736 0.52255 0.15034 0.0
H1424 H 0.42208 0.46891 0.09237 0.0
H1425 H 0.46024 0.42918 0.10729 0.0
H1426 H 0.47163 0.5285 0.1093 0.0
H1427 H 0.47027 0.52326 0.07328 0.0
H1428 H 0.44216 0.51212 0.09245 0.0
H1429 H 0.50258 0.44909 0.11692 0.0
H1430 H 0.51757 0.47342 0.09218 0.0
H1431 H 0.51755 0.48091 0.12742 0.0
H1432 H 0.5505 0.54855 0.05105 0.0
H1433 H 0.55053 0.56295 0.13681 0.0
H1434 H 0.48891 0.50391 0.0449 0.0
H1435 H 0.50464 0.48724 0.0512 0.0
H1436 H 0.5186 0.5141 0.0296 0.0
H1437 H 0.48878 0.52056 0.14987 0.0
H1438 H 0.51854 0.53637 0.16615 0.0
H1439 H 0.505 0.50447 0.15644 0.0
C1440 C 0.1144 0.80823 0.36515 0.0
C1441 C 0.11176 0.78488 0.36877 0.0
C1442 C 0.13543 0.82725 0.35273 0.0
C1443 C 0.15428 0.82279 0.34368 0.0
C1444 C 0.15205 0.79944 0.34793 0.0
C1445 C 0.13077 0.78072 0.36046 0.0
C1446 C 0.13725 0.85199 0.34882 0.0
C1447 C 0.17181 0.79407 0.3386 0.0
C1448 C 0.19526 0.86671 0.28853 0.0
C1449 C 0.21478 0.8844 0.30416 0.0
C1450 C 0.17585 0.84587 0.30099 0.0
C1451 C 0.17619 0.84271 0.32964 0.0
C1452 C 0.19657 0.85986 0.34521 0.0
C1453 C 0.21561 0.88051 0.33227 0.0
C1454 C 0.15442 0.82789 0.28372 0.0
C1455 C 0.19776 0.85702 0.37573 0.0
H1456 H 0.0998 0.81152 0.37176 0.0
H1457 H 0.1286 0.76256 0.36288 0.0
H1458 H 0.15417 0.86659 0.35876 0.0
H1459 H 0.13862 0.85644 0.32672 0.0
H1460 H 0.12115 0.85254 0.35742 0.0
H1461 H 0.16782 0.77536 0.34466 0.0
H1462 H 0.17355 0.79562 0.31603 0.0
H1463 H 0.18987 0.80779 0.34729 0.0
H1464 H 0.19466 0.8697 0.26679 0.0
H1465 H 0.23101 0.89397 0.34428 0.0
H1466 H 0.13778 0.82888 0.28924 0.0
H1467 H 0.15028 0.80879 0.28775 0.0
H1468 H 0.15797 0.83174 0.26153 0.0
H1469 H 0.18334 0.8595 0.38589 0.0
H1470 H 0.21592 0.87063 0.38437 0.0
H1471 H 0.19408 0.83824 0.38077 0.0
C1472 C 0.35673 0.22164 0.64424 0.0
C1473 C 0.33728 0.21507 0.62588 0.0
C1474 C 0.359 0.20361 0.65881 0.0
C1475 C 0.34162 0.17846 0.6545 0.0
C1476 C 0.32273 0.17174 0.63485 0.0
C1477 C 0.32062 0.19016 0.621 0.0
C1478 C 0.37913 0.21152 0.67987 0.0
C1479 C 0.30415 0.1451 0.62925 0.0
C1480 C 0.35369 0.12795 0.67869 0.0
C1481 C 0.33813 0.11894 0.70144 0.0
C1482 C 0.35561 0.14783 0.66355 0.0
C1483 C 0.342 0.15916 0.67179 0.0
C1484 C 0.3273 0.1509 0.69569 0.0
C1485 C 0.32524 0.13059 0.71001 0.0
C1486 C 0.37106 0.15576 0.63792 0.0
C1487 C 0.31295 0.16286 0.7055 0.0
H1488 H 0.3694 0.24094 0.64829 0.0
H1489 H 0.3056 0.18515 0.60677 0.0
H1490 H 0.37085 0.20669 0.70058 0.0
H1491 H 0.38946 0.20162 0.67677 0.0
H1492 H 0.39229 0.23164 0.6792 0.0
H1493 H 0.29212 0.14294 0.61158 0.0
H1494 H 0.31364 0.13452 0.62511 0.0
H1495 H 0.29237 0.13684 0.64751 0.0
H1496 H 0.36333 0.11859 0.67192 0.0
H1497 H 0.31314 0.12343 0.72757 0.0
H1498 H 0.38381 0.17593 0.63804 0.0
H1499 H 0.35893 0.15149 0.61983 0.0
H1500 H 0.38197 0.14635 0.63551 0.0
H1501 H 0.32513 0.18311 0.70683 0.0
H1502 H 0.3044 0.15585 0.72582 0.0
H1503 H 0.29817 0.15927 0.69064 0.0
C1504 C 0.18962 0.29769 0.02216 0.0
C1505 C 0.21134 0.31871 0.03054 0.0
C1506 C 0.17041 0.29963 0.01003 0.0
C1507 C 0.1729 0.32315 0.0064 0.0
C1508 C 0.19466 0.34442 0.01504 0.0
C1509 C 0.21366 0.34196 0.02692 0.0
C1510 C 0.14746 0.27652 0.0011 0.0
C1511 C 0.1979 0.3698 0.01166 0.0
C1512 C 0.13171 0.33064 0.95491 0.0
C1513 C 0.11353 0.33017 0.97197 0.0
C1514 C 0.15118 0.32832 0.9658 0.0
C1515 C 0.1524 0.32544 0.99438 0.0
C1516 C 0.13399 0.32474 0.01163 0.0
C1517 C 0.11476 0.32701 0.00022 0.0
C1518 C 0.17048 0.32905 0.9468 0.0
C1519 C 0.13459 0.3216 0.04218 0.0
H1520 H 0.18762 0.27966 0.02512 0.0
H1521 H 0.23057 0.35831 0.03284 0.0
H1522 H 0.13127 0.27473 0.01228 0.0
H1523 H 0.14414 0.27759 0.97901 0.0
H1524 H 0.14868 0.25969 0.00477 0.0
H1525 H 0.21599 0.38448 0.01936 0.0
H1526 H 0.19626 0.37336 0.98977 0.0
H1527 H 0.18313 0.37099 0.02281 0.0
H1528 H 0.13089 0.33315 0.9331 0.0
H1529 H 0.10047 0.32603 0.01347 0.0
H1530 H 0.17138 0.31191 0.94893 0.0
H1531 H 0.18884 0.34461 0.95237 0.0
H1532 H 0.16673 0.33113 0.92506 0.0
H1533 H 0.13411 0.30406 0.04681 0.0
H1534 H 0.11891 0.32157 0.05275 0.0
H1535 H 0.15198 0.33669 0.05075 0.0
C1536 C 0.87681 0.21181 0.35283 0.0
C1537 C 0.89907 0.21163 0.35375 0.0
C1538 C 0.85566 0.19221 0.34116 0.0
C1539 C 0.85686 0.17209 0.32978 0.0
C1540 C 0.8793 0.1719 0.33031 0.0
C1541 C 0.90007 0.19156 0.34248 0.0
C1542 C 0.83196 0.19293 0.34125 0.0
C1543 C 0.88132 0.15082 0.31825 0.0
C1544 C 0.79732 0.11115 0.32627 0.0
C1545 C 0.78992 0.11073 0.2991 0.0
C1546 C 0.81913 0.13089 0.33637 0.0
C1547 C 0.83425 0.1506 0.31877 0.0
C1548 C 0.82742 0.14995 0.29105 0.0
C1549 C 0.80525 0.13001 0.28153 0.0
C1550 C 0.82573 0.13088 0.36607 0.0
C1551 C 0.8433 0.17053 0.27163 0.0
H1552 H 0.87596 0.22744 0.36092 0.0
H1553 H 0.9171 0.19112 0.34333 0.0
H1554 H 0.82505 0.19138 0.32006 0.0
H1555 H 0.81769 0.177 0.3529 0.0
H1556 H 0.83421 0.21011 0.35049 0.0
H1557 H 0.90045 0.15417 0.31884 0.0
H1558 H 0.86928 0.13365 0.32968 0.0
H1559 H 0.87491 0.1477 0.29673 0.0
H1560 H 0.78591 0.096 0.33981 0.0
H1561 H 0.79963 0.12982 0.26055 0.0
H1562 H 0.82686 0.14707 0.37661 0.0
H1563 H 0.84407 0.13242 0.36775 0.0
H1564 H 0.81209 0.11397 0.37695 0.0
H1565 H 0.84434 0.18787 0.27852 0.0
H1566 H 0.8361 0.16662 0.25038 0.0
H1567 H 0.86233 0.17365 0.27161 0.0
C1568 C 0.69699 0.80284 0.66236 0.0
C1569 C 0.68087 0.78851 0.64137 0.0
C1570 C 0.69621 0.82306 0.67336 0.0
C1571 C 0.67973 0.82995 0.6623 0.0
C1572 C 0.66396 0.81619 0.64056 0.0
C1573 C 0.66438 0.79538 0.63071 0.0
C1574 C 0.71294 0.83693 0.69699 0.0
C1575 C 0.6467 0.8235 0.62762 0.0
C1576 C 0.66275 0.87067 0.70351 0.0
C1577 C 0.67961 0.89418 0.69354 0.0
C1578 C 0.66283 0.84962 0.69387 0.0
C1579 C 0.67953 0.852 0.67303 0.0
C1580 C 0.69643 0.87554 0.66271 0.0
C1581 C 0.69668 0.89633 0.67355 0.0
C1582 C 0.64509 0.82484 0.70601 0.0
C1583 C 0.71415 0.8788 0.64001 0.0
H1584 H 0.71035 0.79833 0.67034 0.0
H1585 H 0.65152 0.78437 0.61487 0.0
H1586 H 0.72624 0.85605 0.69071 0.0
H1587 H 0.70199 0.83805 0.71417 0.0
H1588 H 0.7234 0.82813 0.7045 0.0
H1589 H 0.63641 0.8115 0.61009 0.0
H1590 H 0.63327 0.82258 0.64297 0.0
H1591 H 0.65723 0.84282 0.62035 0.0
H1592 H 0.64922 0.86855 0.71861 0.0
H1593 H 0.71037 0.91431 0.66619 0.0
H1594 H 0.6553 0.81587 0.71377 0.0
H1595 H 0.63223 0.81264 0.69006 0.0
H1596 H 0.63416 0.82626 0.72305 0.0
H1597 H 0.72713 0.8728 0.64701 0.0
H1598 H 0.72497 0.89821 0.63303 0.0
H1599 H 0.70393 0.86711 0.62228 0.0
C1600 C 0.80364 0.67354 0.05448 0.0
C1601 C 0.78161 0.66612 0.04046 0.0
C1602 C 0.82362 0.67369 0.04136 0.0
C1603 C 0.82162 0.66698 0.01341 0.0
C1604 C 0.79924 0.65928 -0.00069 0.0
C1605 C 0.7794 0.65869 0.01313 0.0
C1606 C 0.84701 0.68149 0.05721 0.0
C1607 C 0.79655 0.65254 0.96938 0.0
C1608 C 0.8813 0.69413 0.97333 0.0
C1609 C 0.88534 0.67413 0.97181 0.0
C1610 C 0.86039 0.6919 0.9864 0.0
C1611 C 0.84331 0.6692 0.99856 0.0
C1612 C 0.84712 0.64882 0.99673 0.0
C1613 C 0.86805 0.6515 0.98323 0.0
C1614 C 0.85676 0.71393 0.98752 0.0
C1615 C 0.82945 0.62442 0.0097 0.0
H1616 H 0.80522 0.67932 0.07562 0.0
H1617 H 0.76236 0.65329 0.00229 0.0
H1618 H 0.85268 0.6674 0.05525 0.0
H1619 H 0.86208 0.69891 0.04866 0.0
H1620 H 0.84494 0.68434 0.07924 0.0
H1621 H 0.77767 0.64619 0.96167 0.0
H1622 H 0.80972 0.66874 0.95721 0.0
H1623 H 0.80108 0.63779 0.96583 0.0
H1624 H 0.89463 0.7116 0.96441 0.0
H1625 H 0.87137 0.63613 0.98244 0.0
H1626 H 0.85703 0.71954 0.00907 0.0
H1627 H 0.83854 0.7091 0.97892 0.0
H1628 H 0.87122 0.72992 0.97606 0.0
H1629 H 0.82874 0.62681 0.03209 0.0
H1630 H 0.83479 0.61025 0.00594 0.0
H1631 H 0.8106 0.61756 0.00166 0.0
C1632 C 0.3474 0.02322 0.44341 0.0
C1633 C 0.32709 0.01944 0.42771 0.0
C1634 C 0.34532 0.01932 0.47177 0.0
C1635 C 0.3223 0.01106 0.48463 0.0
C1636 C 0.30198 0.0081 0.4691 0.0
C1637 C 0.30471 0.01261 0.44092 0.0
C1638 C 0.36753 0.02319 0.4878 0.0
C1639 C 0.2771 0.99922 0.48206 0.0
C1640 C 0.30934 0.97425 0.55022 0.0
C1641 C 0.31184 0.99159 0.56981 0.0
C1642 C 0.3126 0.98034 0.52235 0.0
C1643 C 0.31911 0.0045 0.5141 0.0
C1644 C 0.32209 0.02219 0.53394 0.0
C1645 C 0.31816 0.01543 0.56158 0.0
C1646 C 0.30881 0.96085 0.50171 0.0
C1647 C 0.32953 0.04826 0.52601 0.0
H1648 H 0.3647 0.02829 0.43342 0.0
H1649 H 0.28907 0.01021 0.42908 0.0
H1650 H 0.37033 0.03499 0.50587 0.0
H1651 H 0.3645 0.00524 0.49546 0.0
H1652 H 0.38457 0.03184 0.47527 0.0
H1653 H 0.26336 0.99859 0.46727 0.0
H1654 H 0.27012 0.9805 0.49057 0.0
H1655 H 0.27864 0.0114 0.49929 0.0
H1656 H 0.30445 0.95583 0.55671 0.0
H1657 H 0.32043 0.02891 0.57689 0.0
H1658 H 0.32591 0.96688 0.48977 0.0
H1659 H 0.29418 0.95817 0.48704 0.0
H1660 H 0.30354 0.9429 0.51146 0.0
H1661 H 0.34712 0.05665 0.5145 0.0
H1662 H 0.33182 0.05997 0.54405 0.0
H1663 H 0.31547 0.0483 0.51232 0.0
C1664 C 0.33846 0.30488 0.8874 0.0
C1665 C 0.33662 0.3209 0.90593 0.0
C1666 C 0.33441 0.30609 0.85937 0.0
C1667 C 0.32807 0.32351 0.84982 0.0
C1668 C 0.32596 0.33956 0.86852 0.0
C1669 C 0.33038 0.33813 0.89634 0.0
C1670 C 0.33703 0.28882 0.83996 0.0
C1671 C 0.31894 0.35817 0.85916 0.0
C1672 C 0.34034 0.34255 0.77537 0.0
C1673 C 0.31698 0.32819 0.76366 0.0
C1674 C 0.34412 0.34135 0.80342 0.0
C1675 C 0.3241 0.32531 0.82018 0.0
C1676 C 0.30041 0.31097 0.80862 0.0
C1677 C 0.29712 0.31261 0.78048 0.0
C1678 C 0.36966 0.35696 0.81504 0.0
C1679 C 0.2786 0.29372 0.82591 0.0
H1680 H 0.34329 0.29156 0.89483 0.0
H1681 H 0.32847 0.35021 0.91075 0.0
H1682 H 0.31954 0.27753 0.82875 0.0
H1683 H 0.35142 0.29955 0.82454 0.0
H1684 H 0.342 0.2763 0.85068 0.0
H1685 H 0.3177 0.36902 0.8764 0.0
H1686 H 0.33271 0.37105 0.84429 0.0
H1687 H 0.30093 0.34871 0.84852 0.0
H1688 H 0.35589 0.35426 0.76248 0.0
H1689 H 0.27897 0.30164 0.77162 0.0
H1690 H 0.3761 0.34497 0.82412 0.0
H1691 H 0.36936 0.36885 0.83165 0.0
H1692 H 0.38315 0.36886 0.79933 0.0
H1693 H 0.28204 0.27969 0.83549 0.0
H1694 H 0.26133 0.28412 0.81385 0.0
H1695 H 0.27597 0.30407 0.8427 0.0
C1696 C 0.03011 0.3445 0.21562 0.0
C1697 C 0.01427 0.34393 0.23612 0.0
C1698 C 0.02255 0.34028 0.1882 0.0
C1699 C 0.99847 0.33503 0.1813 0.0
C1700 C 0.98244 0.33449 0.20194 0.0
C1701 C 0.99058 0.33906 0.2291 0.0
C1702 C 0.04023 0.34124 0.16666 0.0
C1703 C 0.95654 0.32861 0.19542 0.0
C1704 C 0.98674 0.34429 0.10742 0.0
C1705 C 0.97708 0.32045 0.09688 0.0
C1706 C 0.99337 0.34924 0.13503 0.0
C1707 C 0.99 0.32981 0.15249 0.0
C1708 C 0.97928 0.30551 0.14219 0.0
C1709 C 0.9731 0.30115 0.11442 0.0
C1710 C 0.00492 0.3754 0.14525 0.0
C1711 C 0.97502 0.28426 0.16031 0.0
H1712 H 0.04842 0.34829 0.22106 0.0
H1713 H 0.97813 0.33814 0.24503 0.0
H1714 H 0.03258 0.32306 0.15649 0.0
H1715 H 0.04274 0.35484 0.15068 0.0
H1716 H 0.05853 0.34628 0.1753 0.0
H1717 H 0.9465 0.32925 0.21382 0.0
H1718 H 0.95689 0.34184 0.18014 0.0
H1719 H 0.94612 0.30999 0.18625 0.0
H1720 H 0.99019 0.3593 0.09378 0.0
H1721 H 0.96556 0.28271 0.10625 0.0
H1722 H 0.02409 0.38181 0.15189 0.0
H1723 H 0.99474 0.37637 0.16329 0.0
H1724 H 0.00523 0.3882 0.12936 0.0
H1725 H 0.99293 0.28688 0.16752 0.0
H1726 H 0.96502 0.26629 0.14956 0.0
H1727 H 0.96432 0.28359 0.17867 0.0
C1728 C 0.69522 0.99782 0.44083 0.0
C1729 C 0.67233 0.98197 0.42893 0.0
C1730 C 0.69739 0.00239 0.46898 0.0
C1731 C 0.67611 0.99083 0.48559 0.0
C1732 C 0.65315 0.97379 0.4739 0.0
C1733 C 0.65153 0.9695 0.4456 0.0
C1734 C 0.72225 0.02046 0.48072 0.0
C1735 C 0.63011 0.96101 0.49104 0.0
C1736 C 0.68624 0.99275 0.56213 0.0
C1737 C 0.68333 0.01267 0.56992 0.0
C1738 C 0.68342 0.98507 0.53482 0.0
C1739 C 0.67777 0.99776 0.51484 0.0
C1740 C 0.67465 0.01779 0.52262 0.0
C1741 C 0.67731 0.02492 0.55015 0.0
C1742 C 0.68663 0.96349 0.52733 0.0
C1743 C 0.66885 0.03192 0.50179 0.0
H1744 H 0.71135 0.00724 0.42791 0.0
H1745 H 0.63381 0.95736 0.43635 0.0
H1746 H 0.72189 0.03689 0.48853 0.0
H1747 H 0.72666 0.01212 0.49823 0.0
H1748 H 0.7372 0.02658 0.46534 0.0
H1749 H 0.61423 0.94667 0.47935 0.0
H1750 H 0.63323 0.95235 0.5092 0.0
H1751 H 0.62527 0.97474 0.49859 0.0
H1752 H 0.69042 0.98295 0.57752 0.0
H1753 H 0.67509 0.04032 0.5562 0.0
H1754 H 0.70227 0.96952 0.51294 0.0
H1755 H 0.66995 0.94919 0.51674 0.0
H1756 H 0.69013 0.95505 0.54549 0.0
H1757 H 0.68391 0.0404 0.48653 0.0
H1758 H 0.66646 0.04668 0.51127 0.0
H1759 H 0.65177 0.01923 0.49058 0.0
C1760 C 0.65977 0.65072 0.89634 0.0
C1761 C 0.6645 0.67394 0.90532 0.0
C1762 C 0.66127 0.64609 0.86859 0.0
C1763 C 0.66785 0.66518 0.84933 0.0
C1764 C 0.67271 0.68868 0.85821 0.0
C1765 C 0.67094 0.69278 0.88611 0.0
C1766 C 0.65594 0.62079 0.8599 0.0
C1767 C 0.67985 0.70952 0.83824 0.0
C1768 C 0.6938 0.66108 0.78068 0.0
C1769 C 0.67344 0.6537 0.76342 0.0
C1770 C 0.69219 0.66467 0.80875 0.0
C1771 C 0.66962 0.66057 0.81986 0.0
C1772 C 0.64883 0.65245 0.80272 0.0
C1773 C 0.65101 0.64922 0.77471 0.0
C1774 C 0.71478 0.67335 0.8264 0.0
C1775 C 0.6244 0.64772 0.81388 0.0
H1776 H 0.65532 0.63622 0.91112 0.0
H1777 H 0.67447 0.7107 0.89289 0.0
H1778 H 0.64078 0.61301 0.84473 0.0
H1779 H 0.67237 0.62205 0.84982 0.0
H1780 H 0.65072 0.60785 0.8774 0.0
H1781 H 0.68318 0.72673 0.84847 0.0
H1782 H 0.69678 0.71328 0.8271 0.0
H1783 H 0.66511 0.70427 0.82281 0.0
H1784 H 0.71112 0.6643 0.77219 0.0
H1785 H 0.6353 0.64396 0.7615 0.0
H1786 H 0.71086 0.6603 0.84351 0.0
H1787 H 0.71987 0.69147 0.83554 0.0
H1788 H 0.73079 0.67518 0.81472 0.0
H1789 H 0.6185 0.63438 0.831 0.0
H1790 H 0.60973 0.64042 0.79807 0.0
H1791 H 0.62629 0.66506 0.82213 0.0
C1792 C 0.97378 0.67046 0.21922 0.0
C1793 C 0.9858 0.66246 0.23714 0.0
C1794 C 0.97966 0.67384 0.1913 0.0
C1795 C 0.99785 0.66891 0.18101 0.0
C1796 C 0.00986 0.66059 0.19889 0.0
C1797 C 0.00379 0.65759 0.22673 0.0
C1798 C 0.96651 0.68282 0.17282 0.0
C1799 C 0.02928 0.65503 0.18864 0.0
C1800 C 0.99694 0.65591 0.10522 0.0
C1801 C 0.0157 0.67855 0.09523 0.0
C1802 C 0.9911 0.65249 0.1331 0.0
C1803 C 0.00418 0.67223 0.15147 0.0
C1804 C 0.02322 0.6951 0.14162 0.0
C1805 C 0.02879 0.69797 0.1136 0.0
C1806 C 0.97071 0.62781 0.14285 0.0
C1807 C 0.03755 0.71658 0.16064 0.0
H1808 H 0.95973 0.67406 0.22704 0.0
H1809 H 0.01358 0.65193 0.24048 0.0
H1810 H 0.98006 0.70024 0.16276 0.0
H1811 H 0.9567 0.66916 0.15642 0.0
H1812 H 0.95301 0.68604 0.18407 0.0
H1813 H 0.03661 0.64833 0.20514 0.0
H1814 H 0.02152 0.64088 0.17233 0.0
H1815 H 0.04478 0.67182 0.17953 0.0
H1816 H 0.98636 0.64096 0.09111 0.0
H1817 H 0.04341 0.71544 0.10606 0.0
H1818 H 0.95582 0.62998 0.15227 0.0
H1819 H 0.97775 0.62036 0.15881 0.0
H1820 H 0.96271 0.61417 0.12602 0.0
H1821 H 0.02485 0.72146 0.17104 0.0
H1822 H 0.05185 0.7331 0.14974 0.0
H1823 H 0.0466 0.71146 0.17675 0.0
loop_
_geom_bond_atom_site_label_1
_geom_bond_atom_site_label_2
_geom_bond_distance
_geom_bond_site_symmetry_2
_ccdc_geom_bond_type
Li0 N17 1.990 . S
Li0 O60 1.956 . S
Li0 O61 1.970 1_565 S
Li0 O62 1.961 . S
Li1 N25 1.990 . S
Li1 O60 1.970 1_545 S
Li1 O61 1.956 . S
Li1 O63 1.961 . S
Li2 N47 1.990 . S
Li2 O60 1.961 . S
Li2 O62 1.956 . S
Li2 O63 1.970 1_565 S
Li3 N53 1.990 . S
Li3 O61 1.961 . S
Li3 O62 1.970 1_545 S
Li3 O63 1.956 . S
C4 C6 1.348 . S
C4 C7 1.356 . S
C4 O60 1.325 . S
N5 C8 1.314 . S
N5 C9 1.279 . S
C6 C4 1.348 . S
C6 C8 1.353 . S
C6 H64 0.929 . S
C7 C4 1.356 . S
C7 C9 1.358 . S
C7 H65 0.930 . S
C8 N5 1.314 . S
C8 C6 1.353 . S
C8 H66 0.930 . S
C9 N5 1.279 . S
C9 C7 1.358 . S
C9 H67 0.930 . S
C10 C13 1.348 . S
C10 C14 1.356 . S
C10 O61 1.325 . S
C11 N12 1.279 . S
C11 C14 1.358 . S
C11 H68 0.930 . S
N12 C11 1.279 . S
N12 C15 1.314 . S
C13 C10 1.348 . S
C13 C15 1.353 . S
C13 H69 0.929 . S
C14 C10 1.356 . S
C14 C11 1.358 . S
C14 H70 0.930 . S
C15 N12 1.314 . S
C15 C13 1.353 . S
C15 H71 0.930 . S
C16 N17 1.314 1_545 S
C16 C21 1.353 . S
C16 H22 0.930 . S
N17 Li0 1.990 . S
N17 C16 1.314 1_565 S
N17 C19 1.279 . S
C18 C19 1.358 . S
C18 C20 1.356 . S
C18 H72 0.930 . S
C19 N17 1.279 . S
C19 C18 1.358 . S
C19 H23 0.930 . S
C20 C18 1.356 . S
C20 C21 1.348 1_565 S
C21 C16 1.353 . S
C21 C20 1.348 1_545 S
C21 H73 0.929 . S
H22 C16 0.930 . S
H23 C19 0.930 . S
C24 N25 1.314 . S
C24 C26 1.353 . S
C24 H30 0.930 1_545 S
N25 Li1 1.990 . S
N25 C24 1.314 . S
N25 C28 1.279 . S
C26 C24 1.353 . S
C26 C29 1.348 . S
C26 H74 0.929 . S
C27 C28 1.358 . S
C27 C29 1.356 . S
C27 H75 0.930 . S
C28 N25 1.279 . S
C28 C27 1.358 . S
C28 H31 0.930 . S
C29 C26 1.348 . S
C29 C27 1.356 . S
H30 C24 0.930 1_565 S
H31 C28 0.930 . S
C32 C34 1.348 . S
C32 C35 1.356 . S
C32 O62 1.325 . S
N33 C36 1.314 . S
N33 C37 1.279 . S
C34 C32 1.348 . S
C34 C36 1.353 . S
C34 H76 0.929 1_565 S
C35 C32 1.356 . S
C35 C37 1.358 . S
C35 H77 0.930 . S
C36 N33 1.314 . S
C36 C34 1.353 . S
C36 H78 0.930 . S
C37 N33 1.279 . S
C37 C35 1.358 . S
C37 H79 0.930 . S
C38 C39 1.348 1_545 S
C38 C40 1.356 . S
C38 O63 1.325 . S
C39 C38 1.348 1_565 S
C39 C41 1.353 . S
C39 H80 0.929 . S
C40 C38 1.356 . S
C40 C42 1.358 . S
C40 H81 0.930 . S
C41 C39 1.353 . S
C41 N43 1.314 1_565 S
C41 H82 0.930 . S
C42 C40 1.358 . S
C42 N43 1.279 . S
C42 H83 0.930 . S
N43 C41 1.314 1_545 S
N43 C42 1.279 . S
C44 C46 1.353 . S
C44 N47 1.314 . S
C44 H50 0.930 . S
C45 N47 1.279 . S
C45 C48 1.358 . S
C45 H51 0.930 . S
C46 C44 1.353 . S
C46 C49 1.348 . S
C46 H84 0.929 . S
N47 Li2 1.990 . S
N47 C44 1.314 . S
N47 C45 1.279 . S
C48 C45 1.358 . S
C48 C49 1.356 . S
C48 H85 0.930 . S
C49 C46 1.348 . S
C49 C48 1.356 . S
H50 C44 0.930 . S
H51 C45 0.930 . S
C52 N53 1.314 . S
C52 C54 1.353 . S
C52 H58 0.930 . S
N53 Li3 1.990 . S
N53 C52 1.314 . S
N53 C56 1.279 . S
C54 C52 1.353 . S
C54 C57 1.348 . S
C54 H86 0.929 . S
C55 C56 1.358 . S
C55 C57 1.356 . S
C55 H87 0.930 . S
C56 N53 1.279 . S
C56 C55 1.358 . S
C56 H59 0.930 . S
C57 C54 1.348 . S
C57 C55 1.356 . S
H58 C52 0.930 . S
H59 C56 0.930 . S
O60 Li0 1.956 . S
O60 Li1 1.970 1_565 S
O60 Li2 1.961 . S
O60 C4 1.325 . S
O61 Li0 1.970 1_545 S
O61 Li1 1.956 . S
O61 Li3 1.961 . S
O61 C10 1.325 . S
O62 Li0 1.961 . S
O62 Li2 1.956 . S
O62 Li3 1.970 1_565 S
O62 C32 1.325 . S
O63 Li1 1.961 . S
O63 Li2 1.970 1_545 S
O63 Li3 1.956 . S
O63 C38 1.325 . S
H64 C6 0.929 . S
H65 C7 0.930 . S
H66 C8 0.930 . S
H67 C9 0.930 . S
H68 C11 0.930 . S
H69 C13 0.929 . S
H70 C14 0.930 . S
H71 C15 0.930 . S
H72 C18 0.930 . S
H73 C21 0.929 . S
H74 C26 0.929 . S
H75 C27 0.930 . S
H76 C34 0.929 1_545 S
H77 C35 0.930 . S
H78 C36 0.930 . S
H79 C37 0.930 . S
H80 C39 0.929 . S
H81 C40 0.930 . S
H82 C41 0.930 . S
H83 C42 0.930 . S
H84 C46 0.929 . S
H85 C48 0.930 . S
H86 C54 0.929 . S
H87 C55 0.930 . S
Li88 N105 1.990 . S
Li88 O148 1.956 . S
Li88 O149 1.970 . S
Li88 O150 1.961 . S
Li89 N113 1.990 . S
Li89 O148 1.970 . S
Li89 O149 1.956 . S
Li89 O151 1.961 . S
Li90 N135 1.990 . S
Li90 O148 1.961 . S
Li90 O150 1.956 . S
Li90 O151 1.970 . S
Li91 N141 1.990 . S
Li91 O149 1.961 . S
Li91 O150 1.970 . S
Li91 O151 1.956 . S
C92 C94 1.348 . S
C92 C95 1.356 . S
C92 O148 1.325 . S
N93 C96 1.314 . S
N93 C97 1.279 . S
C94 C92 1.348 . S
C94 C96 1.353 . S
C94 H152 0.929 . S
C95 C92 1.356 . S
C95 C97 1.358 . S
C95 H153 0.930 . S
C96 N93 1.314 . S
C96 C94 1.353 . S
C96 H154 0.930 . S
C97 N93 1.279 . S
C97 C95 1.358 . S
C97 H155 0.930 . S
C98 C101 1.348 . S
C98 C102 1.356 . S
C98 O149 1.325 . S
C99 N100 1.279 . S
C99 C102 1.358 . S
C99 H156 0.930 . S
N100 C99 1.279 . S
N100 C103 1.314 . S
C101 C98 1.348 . S
C101 C103 1.353 . S
C101 H157 0.929 . S
C102 C98 1.356 . S
C102 C99 1.358 . S
C102 H158 0.930 . S
C103 N100 1.314 . S
C103 C101 1.353 . S
C103 H159 0.930 . S
C104 N105 1.314 . S
C104 C109 1.353 . S
C104 H110 0.930 . S
N105 Li88 1.990 . S
N105 C104 1.314 . S
N105 C107 1.279 . S
C106 C107 1.358 . S
C106 C108 1.356 . S
C106 H160 0.930 . S
C107 N105 1.279 . S
C107 C106 1.358 . S
C107 H111 0.930 . S
C108 C106 1.356 . S
C108 C109 1.348 . S
C109 C104 1.353 . S
C109 C108 1.348 . S
C109 H161 0.929 . S
H110 C104 0.930 . S
H111 C107 0.930 . S
C112 N113 1.314 . S
C112 C114 1.353 . S
C112 H118 0.930 . S
N113 Li89 1.990 . S
N113 C112 1.314 . S
N113 C116 1.279 . S
C114 C112 1.353 . S
C114 C117 1.348 . S
C114 H162 0.929 . S
C115 C116 1.358 . S
C115 C117 1.356 . S
C115 H163 0.930 . S
C116 N113 1.279 . S
C116 C115 1.358 . S
C116 H119 0.930 . S
C117 C114 1.348 . S
C117 C115 1.356 . S
H118 C112 0.930 . S
H119 C116 0.930 . S
C120 C122 1.348 . S
C120 C123 1.356 . S
C120 O150 1.325 . S
N121 C124 1.314 . S
N121 C125 1.279 . S
C122 C120 1.348 . S
C122 C124 1.353 . S
C122 H164 0.929 . S
C123 C120 1.356 . S
C123 C125 1.358 . S
C123 H165 0.930 . S
C124 N121 1.314 . S
C124 C122 1.353 . S
C124 H166 0.930 . S
C125 N121 1.279 . S
C125 C123 1.358 . S
C125 H167 0.930 . S
C126 C127 1.348 . S
C126 C128 1.356 . S
C126 O151 1.325 . S
C127 C126 1.348 . S
C127 C129 1.353 . S
C127 H168 0.929 . S
C128 C126 1.356 . S
C128 C130 1.358 . S
C128 H169 0.930 . S
C129 C127 1.353 . S
C129 N131 1.314 . S
C129 H170 0.930 . S
C130 C128 1.358 . S
C130 N131 1.279 . S
C130 H171 0.930 . S
N131 C129 1.314 . S
N131 C130 1.279 . S
C132 C134 1.353 . S
C132 N135 1.314 . S
C132 H138 0.930 . S
C133 N135 1.279 . S
C133 C136 1.358 . S
C133 H139 0.930 . S
C134 C132 1.353 . S
C134 C137 1.348 . S
C134 H172 0.929 . S
N135 Li90 1.990 . S
N135 C132 1.314 . S
N135 C133 1.279 . S
C136 C133 1.358 . S
C136 C137 1.356 . S
C136 H173 0.930 . S
C137 C134 1.348 . S
C137 C136 1.356 . S
H138 C132 0.930 . S
H139 C133 0.930 . S
C140 N141 1.314 . S
C140 C142 1.353 . S
C140 H146 0.930 . S
N141 Li91 1.990 . S
N141 C140 1.314 . S
N141 C144 1.279 . S
C142 C140 1.353 . S
C142 C145 1.348 . S
C142 H174 0.929 . S
C143 C144 1.358 . S
C143 C145 1.356 . S
C143 H175 0.930 . S
C144 N141 1.279 . S
C144 C143 1.358 . S
C144 H147 0.930 . S
C145 C142 1.348 . S
C145 C143 1.356 . S
H146 C140 0.930 . S
H147 C144 0.930 . S
O148 Li88 1.956 . S
O148 Li89 1.970 . S
O148 Li90 1.961 . S
O148 C92 1.325 . S
O149 Li88 1.970 . S
O149 Li89 1.956 . S
O149 Li91 1.961 . S
O149 C98 1.325 . S
O150 Li88 1.961 . S
O150 Li90 1.956 . S
O150 Li91 1.970 . S
O150 C120 1.325 . S
O151 Li89 1.961 . S
O151 Li90 1.970 . S
O151 Li91 1.956 . S
O151 C126 1.325 . S
H152 C94 0.929 . S
H153 C95 0.930 . S
H154 C96 0.930 . S
H155 C97 0.930 . S
H156 C99 0.930 . S
H157 C101 0.929 . S
H158 C102 0.930 . S
H159 C103 0.930 . S
H160 C106 0.930 . S
H161 C109 0.929 . S
H162 C114 0.929 . S
H163 C115 0.930 . S
H164 C122 0.929 . S
H165 C123 0.930 . S
H166 C124 0.930 . S
H167 C125 0.930 . S
H168 C127 0.929 . S
H169 C128 0.930 . S
H170 C129 0.930 . S
H171 C130 0.930 . S
H172 C134 0.929 . S
H173 C136 0.930 . S
H174 C142 0.929 . S
H175 C143 0.930 . S
Li176 N193 1.990 . S
Li176 O236 1.956 . S
Li176 O237 1.970 1_455 S
Li176 O238 1.961 . S
Li177 N201 1.990 1_556 S
Li177 O236 1.970 1_655 S
Li177 O237 1.956 . S
Li177 O239 1.961 . S
Li178 N223 1.990 . S
Li178 O236 1.961 . S
Li178 O238 1.956 . S
Li178 O239 1.970 1_455 S
Li179 N229 1.990 . S
Li179 O237 1.961 . S
Li179 O238 1.970 1_655 S
Li179 O239 1.956 . S
C180 C182 1.348 1_556 S
C180 C183 1.356 . S
C180 O236 1.325 . S
N181 C184 1.314 . S
N181 C185 1.279 1_554 S
C182 C180 1.348 1_554 S
C182 C184 1.353 . S
C182 H240 0.929 . S
C183 C180 1.356 . S
C183 C185 1.358 . S
C183 H241 0.930 . S
C184 N181 1.314 . S
C184 C182 1.353 . S
C184 H242 0.930 . S
C185 N181 1.279 1_556 S
C185 C183 1.358 . S
C185 H243 0.930 . S
C186 C189 1.348 . S
C186 C190 1.356 . S
C186 O237 1.325 . S
C187 N188 1.279 . S
C187 C190 1.358 . S
C187 H244 0.930 . S
N188 C187 1.279 . S
N188 C191 1.314 . S
C189 C186 1.348 . S
C189 C191 1.353 . S
C189 H245 0.929 . S
C190 C186 1.356 . S
C190 C187 1.358 . S
C190 H246 0.930 . S
C191 N188 1.314 . S
C191 C189 1.353 . S
C191 H247 0.930 . S
C192 N193 1.314 1_655 S
C192 C197 1.353 . S
C192 H198 0.930 . S
N193 Li176 1.990 . S
N193 C192 1.314 1_455 S
N193 C195 1.279 . S
C194 C195 1.358 . S
C194 C196 1.356 . S
C194 H248 0.930 . S
C195 N193 1.279 . S
C195 C194 1.358 . S
C195 H199 0.930 . S
C196 C194 1.356 . S
C196 C197 1.348 1_455 S
C197 C192 1.353 . S
C197 C196 1.348 1_655 S
C197 H249 0.929 . S
H198 C192 0.930 . S
H199 C195 0.930 . S
C200 N201 1.314 . S
C200 C202 1.353 . S
C200 H206 0.930 1_655 S
N201 Li177 1.990 1_554 S
N201 C200 1.314 . S
N201 C204 1.279 . S
C202 C200 1.353 . S
C202 C205 1.348 . S
C202 H250 0.929 . S
C203 C204 1.358 . S
C203 C205 1.356 . S
C203 H251 0.930 . S
C204 N201 1.279 . S
C204 C203 1.358 . S
C204 H207 0.930 . S
C205 C202 1.348 . S
C205 C203 1.356 . S
H206 C200 0.930 1_455 S
H207 C204 0.930 . S
C208 C210 1.348 . S
C208 C211 1.356 . S
C208 O238 1.325 . S
N209 C212 1.314 . S
N209 C213 1.279 . S
C210 C208 1.348 . S
C210 C212 1.353 . S
C210 H252 0.929 1_455 S
C211 C208 1.356 . S
C211 C213 1.358 . S
C211 H253 0.930 . S
C212 N209 1.314 . S
C212 C210 1.353 . S
C212 H254 0.930 . S
C213 N209 1.279 . S
C213 C211 1.358 . S
C213 H255 0.930 . S
C214 C215 1.348 1_655 S
C214 C216 1.356 . S
C214 O239 1.325 . S
C215 C214 1.348 1_455 S
C215 C217 1.353 . S
C215 H256 0.929 . S
C216 C214 1.356 . S
C216 C218 1.358 . S
C216 H257 0.930 . S
C217 C215 1.353 . S
C217 N219 1.314 1_455 S
C217 H258 0.930 . S
C218 C216 1.358 . S
C218 N219 1.279 . S
C218 H259 0.930 1_556 S
N219 C217 1.314 1_655 S
N219 C218 1.279 . S
C220 C222 1.353 . S
C220 N223 1.314 . S
C220 H226 0.930 . S
C221 N223 1.279 . S
C221 C224 1.358 . S
C221 H227 0.930 . S
C222 C220 1.353 . S
C222 C225 1.348 . S
C222 H260 0.929 . S
N223 Li178 1.990 . S
N223 C220 1.314 . S
N223 C221 1.279 . S
C224 C221 1.358 . S
C224 C225 1.356 . S
C224 H261 0.930 . S
C225 C222 1.348 . S
C225 C224 1.356 . S
H226 C220 0.930 . S
H227 C221 0.930 . S
C228 N229 1.314 . S
C228 C230 1.353 . S
C228 H234 0.930 . S
N229 Li179 1.990 . S
N229 C228 1.314 . S
N229 C232 1.279 . S
C230 C228 1.353 . S
C230 C233 1.348 . S
C230 H262 0.929 . S
C231 C232 1.358 . S
C231 C233 1.356 . S
C231 H263 0.930 . S
C232 N229 1.279 . S
C232 C231 1.358 . S
C232 H235 0.930 . S
C233 C230 1.348 . S
C233 C231 1.356 . S
H234 C228 0.930 . S
H235 C232 0.930 . S
O236 Li176 1.956 . S
O236 Li177 1.970 1_455 S
O236 Li178 1.961 . S
O236 C180 1.325 . S
O237 Li176 1.970 1_655 S
O237 Li177 1.956 . S
O237 Li179 1.961 . S
O237 C186 1.325 . S
O238 Li176 1.961 . S
O238 Li178 1.956 . S
O238 Li179 1.970 1_455 S
O238 C208 1.325 . S
O239 Li177 1.961 . S
O239 Li178 1.970 1_655 S
O239 Li179 1.956 . S
O239 C214 1.325 . S
H240 C182 0.929 . S
H241 C183 0.930 . S
H242 C184 0.930 . S
H243 C185 0.930 . S
H244 C187 0.930 . S
H245 C189 0.929 . S
H246 C190 0.930 . S
H247 C191 0.930 . S
H248 C194 0.930 . S
H249 C197 0.929 . S
H250 C202 0.929 . S
H251 C203 0.930 . S
H252 C210 0.929 1_655 S
H253 C211 0.930 . S
H254 C212 0.930 . S
H255 C213 0.930 . S
H256 C215 0.929 . S
H257 C216 0.930 . S
H258 C217 0.930 . S
H259 C218 0.930 1_554 S
H260 C222 0.929 . S
H261 C224 0.930 . S
H262 C230 0.929 . S
H263 C231 0.930 . S
Li264 N281 1.990 . S
Li264 O324 1.956 . S
Li264 O325 1.970 1_545 S
Li264 O326 1.961 . S
Li265 N289 1.990 . S
Li265 O324 1.970 1_565 S
Li265 O325 1.956 . S
Li265 O327 1.961 . S
Li266 N311 1.990 . S
Li266 O324 1.961 . S
Li266 O326 1.956 . S
Li266 O327 1.970 1_545 S
Li267 N317 1.990 . S
Li267 O325 1.961 . S
Li267 O326 1.970 1_565 S
Li267 O327 1.956 . S
C268 C270 1.348 . S
C268 C271 1.356 . S
C268 O324 1.325 . S
N269 C272 1.314 . S
N269 C273 1.279 . S
C270 C268 1.348 . S
C270 C272 1.353 . S
C270 H328 0.929 . S
C271 C268 1.356 . S
C271 C273 1.358 . S
C271 H329 0.930 . S
C272 N269 1.314 . S
C272 C270 1.353 . S
C272 H330 0.930 . S
C273 N269 1.279 . S
C273 C271 1.358 . S
C273 H331 0.930 . S
C274 C277 1.348 . S
C274 C278 1.356 . S
C274 O325 1.325 . S
C275 N276 1.279 . S
C275 C278 1.358 . S
C275 H332 0.930 . S
N276 C275 1.279 . S
N276 C279 1.314 . S
C277 C274 1.348 . S
C277 C279 1.353 . S
C277 H333 0.929 . S
C278 C274 1.356 . S
C278 C275 1.358 . S
C278 H334 0.930 . S
C279 N276 1.314 . S
C279 C277 1.353 . S
C279 H335 0.930 . S
C280 N281 1.314 1_565 S
C280 C285 1.353 . S
C280 H286 0.930 . S
N281 Li264 1.990 . S
N281 C280 1.314 1_545 S
N281 C283 1.279 . S
C282 C283 1.358 . S
C282 C284 1.356 . S
C282 H336 0.930 . S
C283 N281 1.279 . S
C283 C282 1.358 . S
C283 H287 0.930 . S
C284 C282 1.356 . S
C284 C285 1.348 1_545 S
C285 C280 1.353 . S
C285 C284 1.348 1_565 S
C285 H337 0.929 . S
H286 C280 0.930 . S
H287 C283 0.930 . S
C288 N289 1.314 . S
C288 C290 1.353 . S
C288 H294 0.930 1_565 S
N289 Li265 1.990 . S
N289 C288 1.314 . S
N289 C292 1.279 . S
C290 C288 1.353 . S
C290 C293 1.348 . S
C290 H338 0.929 . S
C291 C292 1.358 . S
C291 C293 1.356 . S
C291 H339 0.930 . S
C292 N289 1.279 . S
C292 C291 1.358 . S
C292 H295 0.930 . S
C293 C290 1.348 . S
C293 C291 1.356 . S
H294 C288 0.930 1_545 S
H295 C292 0.930 . S
C296 C298 1.348 . S
C296 C299 1.356 . S
C296 O326 1.325 . S
N297 C300 1.314 . S
N297 C301 1.279 . S
C298 C296 1.348 . S
C298 C300 1.353 . S
C298 H340 0.929 1_545 S
C299 C296 1.356 . S
C299 C301 1.358 . S
C299 H341 0.930 . S
C300 N297 1.314 . S
C300 C298 1.353 . S
C300 H342 0.930 . S
C301 N297 1.279 . S
C301 C299 1.358 . S
C301 H343 0.930 . S
C302 C303 1.348 1_565 S
C302 C304 1.356 . S
C302 O327 1.325 . S
C303 C302 1.348 1_545 S
C303 C305 1.353 . S
C303 H344 0.929 . S
C304 C302 1.356 . S
C304 C306 1.358 . S
C304 H345 0.930 . S
C305 C303 1.353 . S
C305 N307 1.314 1_545 S
C305 H346 0.930 . S
C306 C304 1.358 . S
C306 N307 1.279 . S
C306 H347 0.930 . S
N307 C305 1.314 1_565 S
N307 C306 1.279 . S
C308 C310 1.353 . S
C308 N311 1.314 . S
C308 H314 0.930 . S
C309 N311 1.279 . S
C309 C312 1.358 . S
C309 H315 0.930 . S
C310 C308 1.353 . S
C310 C313 1.348 . S
C310 H348 0.929 . S
N311 Li266 1.990 . S
N311 C308 1.314 . S
N311 C309 1.279 . S
C312 C309 1.358 . S
C312 C313 1.356 . S
C312 H349 0.930 . S
C313 C310 1.348 . S
C313 C312 1.356 . S
H314 C308 0.930 . S
H315 C309 0.930 . S
C316 N317 1.314 . S
C316 C318 1.353 . S
C316 H322 0.930 . S
N317 Li267 1.990 . S
N317 C316 1.314 . S
N317 C320 1.279 . S
C318 C316 1.353 . S
C318 C321 1.348 . S
C318 H350 0.929 . S
C319 C320 1.358 . S
C319 C321 1.356 . S
C319 H351 0.930 . S
C320 N317 1.279 . S
C320 C319 1.358 . S
C320 H323 0.930 . S
C321 C318 1.348 . S
C321 C319 1.356 . S
H322 C316 0.930 . S
H323 C320 0.930 . S
O324 Li264 1.956 . S
O324 Li265 1.970 1_545 S
O324 Li266 1.961 . S
O324 C268 1.325 . S
O325 Li264 1.970 1_565 S
O325 Li265 1.956 . S
O325 Li267 1.961 . S
O325 C274 1.325 . S
O326 Li264 1.961 . S
O326 Li266 1.956 . S
O326 Li267 1.970 1_545 S
O326 C296 1.325 . S
O327 Li265 1.961 . S
O327 Li266 1.970 1_565 S
O327 Li267 1.956 . S
O327 C302 1.325 . S
H328 C270 0.929 . S
H329 C271 0.930 . S
H330 C272 0.930 . S
H331 C273 0.930 . S
H332 C275 0.930 . S
H333 C277 0.929 . S
H334 C278 0.930 . S
H335 C279 0.930 . S
H336 C282 0.930 . S
H337 C285 0.929 . S
H338 C290 0.929 . S
H339 C291 0.930 . S
H340 C298 0.929 1_565 S
H341 C299 0.930 . S
H342 C300 0.930 . S
H343 C301 0.930 . S
H344 C303 0.929 . S
H345 C304 0.930 . S
H346 C305 0.930 . S
H347 C306 0.930 . S
H348 C310 0.929 . S
H349 C312 0.930 . S
H350 C318 0.929 . S
H351 C319 0.930 . S
Li352 N369 1.990 . S
Li352 O412 1.956 . S
Li352 O413 1.970 . S
Li352 O414 1.961 . S
Li353 N377 1.990 . S
Li353 O412 1.970 . S
Li353 O413 1.956 . S
Li353 O415 1.961 . S
Li354 N399 1.990 . S
Li354 O412 1.961 . S
Li354 O414 1.956 . S
Li354 O415 1.970 . S
Li355 N405 1.990 . S
Li355 O413 1.961 . S
Li355 O414 1.970 . S
Li355 O415 1.956 . S
C356 C358 1.348 . S
C356 C359 1.356 . S
C356 O412 1.325 . S
N357 C360 1.314 . S
N357 C361 1.279 . S
C358 C356 1.348 . S
C358 C360 1.353 . S
C358 H416 0.929 . S
C359 C356 1.356 . S
C359 C361 1.358 . S
C359 H417 0.930 . S
C360 N357 1.314 . S
C360 C358 1.353 . S
C360 H418 0.930 . S
C361 N357 1.279 . S
C361 C359 1.358 . S
C361 H419 0.930 . S
C362 C365 1.348 . S
C362 C366 1.356 . S
C362 O413 1.325 . S
C363 N364 1.279 . S
C363 C366 1.358 . S
C363 H420 0.930 . S
N364 C363 1.279 . S
N364 C367 1.314 . S
C365 C362 1.348 . S
C365 C367 1.353 . S
C365 H421 0.929 . S
C366 C362 1.356 . S
C366 C363 1.358 . S
C366 H422 0.930 . S
C367 N364 1.314 . S
C367 C365 1.353 . S
C367 H423 0.930 . S
C368 N369 1.314 . S
C368 C373 1.353 . S
C368 H374 0.930 . S
N369 Li352 1.990 . S
N369 C368 1.314 . S
N369 C371 1.279 . S
C370 C371 1.358 . S
C370 C372 1.356 . S
C370 H424 0.930 . S
C371 N369 1.279 . S
C371 C370 1.358 . S
C371 H375 0.930 . S
C372 C370 1.356 . S
C372 C373 1.348 . S
C373 C368 1.353 . S
C373 C372 1.348 . S
C373 H425 0.929 . S
H374 C368 0.930 . S
H375 C371 0.930 . S
C376 N377 1.314 . S
C376 C378 1.353 . S
C376 H382 0.930 . S
N377 Li353 1.990 . S
N377 C376 1.314 . S
N377 C380 1.279 . S
C378 C376 1.353 . S
C378 C381 1.348 . S
C378 H426 0.929 . S
C379 C380 1.358 . S
C379 C381 1.356 . S
C379 H427 0.930 . S
C380 N377 1.279 . S
C380 C379 1.358 . S
C380 H383 0.930 . S
C381 C378 1.348 . S
C381 C379 1.356 . S
H382 C376 0.930 . S
H383 C380 0.930 . S
C384 C386 1.348 . S
C384 C387 1.356 . S
C384 O414 1.325 . S
N385 C388 1.314 . S
N385 C389 1.279 . S
C386 C384 1.348 . S
C386 C388 1.353 . S
C386 H428 0.929 . S
C387 C384 1.356 . S
C387 C389 1.358 . S
C387 H429 0.930 . S
C388 N385 1.314 . S
C388 C386 1.353 . S
C388 H430 0.930 . S
C389 N385 1.279 . S
C389 C387 1.358 . S
C389 H431 0.930 . S
C390 C391 1.348 . S
C390 C392 1.356 . S
C390 O415 1.325 . S
C391 C390 1.348 . S
C391 C393 1.353 . S
C391 H432 0.929 . S
C392 C390 1.356 . S
C392 C394 1.358 . S
C392 H433 0.930 . S
C393 C391 1.353 . S
C393 N395 1.314 . S
C393 H434 0.930 . S
C394 C392 1.358 . S
C394 N395 1.279 . S
C394 H435 0.930 . S
N395 C393 1.314 . S
N395 C394 1.279 . S
C396 C398 1.353 . S
C396 N399 1.314 . S
C396 H402 0.930 . S
C397 N399 1.279 . S
C397 C400 1.358 . S
C397 H403 0.930 . S
C398 C396 1.353 . S
C398 C401 1.348 . S
C398 H436 0.929 . S
N399 Li354 1.990 . S
N399 C396 1.314 . S
N399 C397 1.279 . S
C400 C397 1.358 . S
C400 C401 1.356 . S
C400 H437 0.930 . S
C401 C398 1.348 . S
C401 C400 1.356 . S
H402 C396 0.930 . S
H403 C397 0.930 . S
C404 N405 1.314 . S
C404 C406 1.353 . S
C404 H410 0.930 . S
N405 Li355 1.990 . S
N405 C404 1.314 . S
N405 C408 1.279 . S
C406 C404 1.353 . S
C406 C409 1.348 . S
C406 H438 0.929 . S
C407 C408 1.358 . S
C407 C409 1.356 . S
C407 H439 0.930 . S
C408 N405 1.279 . S
C408 C407 1.358 . S
C408 H411 0.930 . S
C409 C406 1.348 . S
C409 C407 1.356 . S
H410 C404 0.930 . S
H411 C408 0.930 . S
O412 Li352 1.956 . S
O412 Li353 1.970 . S
O412 Li354 1.961 . S
O412 C356 1.325 . S
O413 Li352 1.970 . S
O413 Li353 1.956 . S
O413 Li355 1.961 . S
O413 C362 1.325 . S
O414 Li352 1.961 . S
O414 Li354 1.956 . S
O414 Li355 1.970 . S
O414 C384 1.325 . S
O415 Li353 1.961 . S
O415 Li354 1.970 . S
O415 Li355 1.956 . S
O415 C390 1.325 . S
H416 C358 0.929 . S
H417 C359 0.930 . S
H418 C360 0.930 . S
H419 C361 0.930 . S
H420 C363 0.930 . S
H421 C365 0.929 . S
H422 C366 0.930 . S
H423 C367 0.930 . S
H424 C370 0.930 . S
H425 C373 0.929 . S
H426 C378 0.929 . S
H427 C379 0.930 . S
H428 C386 0.929 . S
H429 C387 0.930 . S
H430 C388 0.930 . S
H431 C389 0.930 . S
H432 C391 0.929 . S
H433 C392 0.930 . S
H434 C393 0.930 . S
H435 C394 0.930 . S
H436 C398 0.929 . S
H437 C400 0.930 . S
H438 C406 0.929 . S
H439 C407 0.930 . S
Li440 N457 1.990 . S
Li440 O500 1.956 . S
Li440 O501 1.970 1_655 S
Li440 O502 1.961 . S
Li441 N465 1.990 1_556 S
Li441 O500 1.970 1_455 S
Li441 O501 1.956 . S
Li441 O503 1.961 . S
Li442 N487 1.990 . S
Li442 O500 1.961 . S
Li442 O502 1.956 . S
Li442 O503 1.970 1_655 S
Li443 N493 1.990 . S
Li443 O501 1.961 . S
Li443 O502 1.970 1_455 S
Li443 O503 1.956 . S
C444 C446 1.348 1_556 S
C444 C447 1.356 . S
C444 O500 1.325 . S
N445 C448 1.314 . S
N445 C449 1.279 1_554 S
C446 C444 1.348 1_554 S
C446 C448 1.353 . S
C446 H504 0.929 . S
C447 C444 1.356 . S
C447 C449 1.358 . S
C447 H505 0.930 . S
C448 N445 1.314 . S
C448 C446 1.353 . S
C448 H506 0.930 . S
C449 N445 1.279 1_556 S
C449 C447 1.358 . S
C449 H507 0.930 . S
C450 C453 1.348 . S
C450 C454 1.356 . S
C450 O501 1.325 . S
C451 N452 1.279 . S
C451 C454 1.358 . S
C451 H508 0.930 . S
N452 C451 1.279 . S
N452 C455 1.314 . S
C453 C450 1.348 . S
C453 C455 1.353 . S
C453 H509 0.929 . S
C454 C450 1.356 . S
C454 C451 1.358 . S
C454 H510 0.930 . S
C455 N452 1.314 . S
C455 C453 1.353 . S
C455 H511 0.930 . S
C456 N457 1.314 1_455 S
C456 C461 1.353 . S
C456 H462 0.930 . S
N457 Li440 1.990 . S
N457 C456 1.314 1_655 S
N457 C459 1.279 . S
C458 C459 1.358 . S
C458 C460 1.356 . S
C458 H512 0.930 . S
C459 N457 1.279 . S
C459 C458 1.358 . S
C459 H463 0.930 . S
C460 C458 1.356 . S
C460 C461 1.348 1_655 S
C461 C456 1.353 . S
C461 C460 1.348 1_455 S
C461 H513 0.929 . S
H462 C456 0.930 . S
H463 C459 0.930 . S
C464 N465 1.314 . S
C464 C466 1.353 . S
C464 H470 0.930 1_455 S
N465 Li441 1.990 1_554 S
N465 C464 1.314 . S
N465 C468 1.279 . S
C466 C464 1.353 . S
C466 C469 1.348 . S
C466 H514 0.929 . S
C467 C468 1.358 . S
C467 C469 1.356 . S
C467 H515 0.930 . S
C468 N465 1.279 . S
C468 C467 1.358 . S
C468 H471 0.930 . S
C469 C466 1.348 . S
C469 C467 1.356 . S
H470 C464 0.930 1_655 S
H471 C468 0.930 . S
C472 C474 1.348 . S
C472 C475 1.356 . S
C472 O502 1.325 . S
N473 C476 1.314 . S
N473 C477 1.279 . S
C474 C472 1.348 . S
C474 C476 1.353 . S
C474 H516 0.929 1_655 S
C475 C472 1.356 . S
C475 C477 1.358 . S
C475 H517 0.930 . S
C476 N473 1.314 . S
C476 C474 1.353 . S
C476 H518 0.930 . S
C477 N473 1.279 . S
C477 C475 1.358 . S
C477 H519 0.930 . S
C478 C479 1.348 1_455 S
C478 C480 1.356 . S
C478 O503 1.325 . S
C479 C478 1.348 1_655 S
C479 C481 1.353 . S
C479 H520 0.929 . S
C480 C478 1.356 . S
C480 C482 1.358 . S
C480 H521 0.930 . S
C481 C479 1.353 . S
C481 N483 1.314 1_655 S
C481 H522 0.930 . S
C482 C480 1.358 . S
C482 N483 1.279 . S
C482 H523 0.930 1_556 S
N483 C481 1.314 1_455 S
N483 C482 1.279 . S
C484 C486 1.353 . S
C484 N487 1.314 . S
C484 H490 0.930 . S
C485 N487 1.279 . S
C485 C488 1.358 . S
C485 H491 0.930 . S
C486 C484 1.353 . S
C486 C489 1.348 . S
C486 H524 0.929 . S
N487 Li442 1.990 . S
N487 C484 1.314 . S
N487 C485 1.279 . S
C488 C485 1.358 . S
C488 C489 1.356 . S
C488 H525 0.930 . S
C489 C486 1.348 . S
C489 C488 1.356 . S
H490 C484 0.930 . S
H491 C485 0.930 . S
C492 N493 1.314 . S
C492 C494 1.353 . S
C492 H498 0.930 . S
N493 Li443 1.990 . S
N493 C492 1.314 . S
N493 C496 1.279 . S
C494 C492 1.353 . S
C494 C497 1.348 . S
C494 H526 0.929 . S
C495 C496 1.358 . S
C495 C497 1.356 . S
C495 H527 0.930 . S
C496 N493 1.279 . S
C496 C495 1.358 . S
C496 H499 0.930 . S
C497 C494 1.348 . S
C497 C495 1.356 . S
H498 C492 0.930 . S
H499 C496 0.930 . S
O500 Li440 1.956 . S
O500 Li441 1.970 1_655 S
O500 Li442 1.961 . S
O500 C444 1.325 . S
O501 Li440 1.970 1_455 S
O501 Li441 1.956 . S
O501 Li443 1.961 . S
O501 C450 1.325 . S
O502 Li440 1.961 . S
O502 Li442 1.956 . S
O502 Li443 1.970 1_655 S
O502 C472 1.325 . S
O503 Li441 1.961 . S
O503 Li442 1.970 1_455 S
O503 Li443 1.956 . S
O503 C478 1.325 . S
H504 C446 0.929 . S
H505 C447 0.930 . S
H506 C448 0.930 . S
H507 C449 0.930 . S
H508 C451 0.930 . S
H509 C453 0.929 . S
H510 C454 0.930 . S
H511 C455 0.930 . S
H512 C458 0.930 . S
H513 C461 0.929 . S
H514 C466 0.929 . S
H515 C467 0.930 . S
H516 C474 0.929 1_455 S
H517 C475 0.930 . S
H518 C476 0.930 . S
H519 C477 0.930 . S
H520 C479 0.929 . S
H521 C480 0.930 . S
H522 C481 0.930 . S
H523 C482 0.930 1_554 S
H524 C486 0.929 . S
H525 C488 0.930 . S
H526 C494 0.929 . S
H527 C495 0.930 . S
Li528 N545 1.990 . S
Li528 O588 1.956 . S
Li528 O589 1.970 1_455 S
Li528 O590 1.961 . S
Li529 N553 1.990 . S
Li529 O588 1.970 1_655 S
Li529 O589 1.956 . S
Li529 O591 1.961 . S
Li530 N575 1.990 . S
Li530 O588 1.961 . S
Li530 O590 1.956 . S
Li530 O591 1.970 1_455 S
Li531 N581 1.990 . S
Li531 O589 1.961 . S
Li531 O590 1.970 1_655 S
Li531 O591 1.956 . S
C532 C534 1.348 . S
C532 C535 1.356 . S
C532 O588 1.325 . S
N533 C536 1.314 . S
N533 C537 1.279 . S
C534 C532 1.348 . S
C534 C536 1.353 . S
C534 H592 0.929 1_455 S
C535 C532 1.356 . S
C535 C537 1.358 . S
C535 H593 0.930 . S
C536 N533 1.314 . S
C536 C534 1.353 . S
C536 H594 0.930 . S
C537 N533 1.279 . S
C537 C535 1.358 . S
C537 H595 0.930 . S
C538 C541 1.348 1_655 S
C538 C542 1.356 . S
C538 O589 1.325 . S
C539 N540 1.279 . S
C539 C542 1.358 . S
C539 H596 0.930 . S
N540 C539 1.279 . S
N540 C543 1.314 1_655 S
C541 C538 1.348 1_455 S
C541 C543 1.353 . S
C541 H597 0.929 . S
C542 C538 1.356 . S
C542 C539 1.358 . S
C542 H598 0.930 . S
C543 N540 1.314 1_455 S
C543 C541 1.353 . S
C543 H599 0.930 . S
C544 N545 1.314 . S
C544 C549 1.353 . S
C544 H550 0.930 . S
N545 Li528 1.990 . S
N545 C544 1.314 . S
N545 C547 1.279 . S
C546 C547 1.358 . S
C546 C548 1.356 . S
C546 H600 0.930 . S
C547 N545 1.279 . S
C547 C546 1.358 . S
C547 H551 0.930 . S
C548 C546 1.356 . S
C548 C549 1.348 . S
C549 C544 1.353 . S
C549 C548 1.348 . S
C549 H601 0.929 . S
H550 C544 0.930 . S
H551 C547 0.930 . S
C552 N553 1.314 . S
C552 C554 1.353 . S
C552 H558 0.930 . S
N553 Li529 1.990 . S
N553 C552 1.314 . S
N553 C556 1.279 . S
C554 C552 1.353 . S
C554 C557 1.348 . S
C554 H602 0.929 . S
C555 C556 1.358 . S
C555 C557 1.356 . S
C555 H603 0.930 . S
C556 N553 1.279 . S
C556 C555 1.358 . S
C556 H559 0.930 . S
C557 C554 1.348 . S
C557 C555 1.356 . S
H558 C552 0.930 . S
H559 C556 0.930 . S
C560 C562 1.348 . S
C560 C563 1.356 . S
C560 O590 1.325 . S
N561 C564 1.314 . S
N561 C565 1.279 . S
C562 C560 1.348 . S
C562 C564 1.353 . S
C562 H604 0.929 . S
C563 C560 1.356 . S
C563 C565 1.358 . S
C563 H605 0.930 . S
C564 N561 1.314 . S
C564 C562 1.353 . S
C564 H606 0.930 . S
C565 N561 1.279 . S
C565 C563 1.358 . S
C565 H607 0.930 . S
C566 C567 1.348 . S
C566 C568 1.356 . S
C566 O591 1.325 . S
C567 C566 1.348 . S
C567 C569 1.353 . S
C567 H608 0.929 . S
C568 C566 1.356 . S
C568 C570 1.358 . S
C568 H609 0.930 . S
C569 C567 1.353 . S
C569 N571 1.314 . S
C569 H610 0.930 . S
C570 C568 1.358 . S
C570 N571 1.279 . S
C570 H611 0.930 . S
N571 C569 1.314 . S
N571 C570 1.279 . S
C572 C574 1.353 . S
C572 N575 1.314 1_655 S
C572 H578 0.930 . S
C573 N575 1.279 . S
C573 C576 1.358 . S
C573 H579 0.930 . S
C574 C572 1.353 . S
C574 C577 1.348 1_655 S
C574 H612 0.929 . S
N575 Li530 1.990 . S
N575 C572 1.314 1_455 S
N575 C573 1.279 . S
C576 C573 1.358 . S
C576 C577 1.356 . S
C576 H613 0.930 . S
C577 C574 1.348 1_455 S
C577 C576 1.356 . S
H578 C572 0.930 . S
H579 C573 0.930 . S
C580 N581 1.314 . S
C580 C582 1.353 . S
C580 H586 0.930 1_655 S
N581 Li531 1.990 . S
N581 C580 1.314 . S
N581 C584 1.279 . S
C582 C580 1.353 . S
C582 C585 1.348 . S
C582 H614 0.929 . S
C583 C584 1.358 . S
C583 C585 1.356 . S
C583 H615 0.930 . S
C584 N581 1.279 . S
C584 C583 1.358 . S
C584 H587 0.930 . S
C585 C582 1.348 . S
C585 C583 1.356 . S
H586 C580 0.930 1_455 S
H587 C584 0.930 . S
O588 Li528 1.956 . S
O588 Li529 1.970 1_455 S
O588 Li530 1.961 . S
O588 C532 1.325 . S
O589 Li528 1.970 1_655 S
O589 Li529 1.956 . S
O589 Li531 1.961 . S
O589 C538 1.325 . S
O590 Li528 1.961 . S
O590 Li530 1.956 . S
O590 Li531 1.970 1_455 S
O590 C560 1.325 . S
O591 Li529 1.961 . S
O591 Li530 1.970 1_655 S
O591 Li531 1.956 . S
O591 C566 1.325 . S
H592 C534 0.929 1_655 S
H593 C535 0.930 . S
H594 C536 0.930 . S
H595 C537 0.930 . S
H596 C539 0.930 . S
H597 C541 0.929 . S
H598 C542 0.930 . S
H599 C543 0.930 . S
H600 C546 0.930 . S
H601 C549 0.929 . S
H602 C554 0.929 . S
H603 C555 0.930 . S
H604 C562 0.929 . S
H605 C563 0.930 . S
H606 C564 0.930 . S
H607 C565 0.930 . S
H608 C567 0.929 . S
H609 C568 0.930 . S
H610 C569 0.930 . S
H611 C570 0.930 . S
H612 C574 0.929 . S
H613 C576 0.930 . S
H614 C582 0.929 . S
H615 C583 0.930 . S
Li616 N633 1.990 . S
Li616 O676 1.956 . S
Li616 O677 1.970 1_545 S
Li616 O678 1.961 . S
Li617 N641 1.990 . S
Li617 O676 1.970 1_565 S
Li617 O677 1.956 . S
Li617 O679 1.961 . S
Li618 N663 1.990 . S
Li618 O676 1.961 . S
Li618 O678 1.956 . S
Li618 O679 1.970 1_545 S
Li619 N669 1.990 . S
Li619 O677 1.961 . S
Li619 O678 1.970 1_565 S
Li619 O679 1.956 . S
C620 C622 1.348 . S
C620 C623 1.356 . S
C620 O676 1.325 . S
N621 C624 1.314 . S
N621 C625 1.279 . S
C622 C620 1.348 . S
C622 C624 1.353 . S
C622 H680 0.929 1_545 S
C623 C620 1.356 . S
C623 C625 1.358 . S
C623 H681 0.930 . S
C624 N621 1.314 . S
C624 C622 1.353 . S
C624 H682 0.930 . S
C625 N621 1.279 . S
C625 C623 1.358 . S
C625 H683 0.930 . S
C626 C629 1.348 1_565 S
C626 C630 1.356 . S
C626 O677 1.325 . S
C627 N628 1.279 . S
C627 C630 1.358 . S
C627 H684 0.930 . S
N628 C627 1.279 . S
N628 C631 1.314 1_565 S
C629 C626 1.348 1_545 S
C629 C631 1.353 . S
C629 H685 0.929 . S
C630 C626 1.356 . S
C630 C627 1.358 . S
C630 H686 0.930 . S
C631 N628 1.314 1_545 S
C631 C629 1.353 . S
C631 H687 0.930 . S
C632 N633 1.314 . S
C632 C637 1.353 . S
C632 H638 0.930 . S
N633 Li616 1.990 . S
N633 C632 1.314 . S
N633 C635 1.279 . S
C634 C635 1.358 . S
C634 C636 1.356 . S
C634 H688 0.930 . S
C635 N633 1.279 . S
C635 C634 1.358 . S
C635 H639 0.930 . S
C636 C634 1.356 . S
C636 C637 1.348 . S
C637 C632 1.353 . S
C637 C636 1.348 . S
C637 H689 0.929 . S
H638 C632 0.930 . S
H639 C635 0.930 . S
C640 N641 1.314 . S
C640 C642 1.353 . S
C640 H646 0.930 . S
N641 Li617 1.990 . S
N641 C640 1.314 . S
N641 C644 1.279 . S
C642 C640 1.353 . S
C642 C645 1.348 . S
C642 H690 0.929 . S
C643 C644 1.358 . S
C643 C645 1.356 . S
C643 H691 0.930 . S
C644 N641 1.279 . S
C644 C643 1.358 . S
C644 H647 0.930 . S
C645 C642 1.348 . S
C645 C643 1.356 . S
H646 C640 0.930 . S
H647 C644 0.930 . S
C648 C650 1.348 . S
C648 C651 1.356 . S
C648 O678 1.325 . S
N649 C652 1.314 . S
N649 C653 1.279 . S
C650 C648 1.348 . S
C650 C652 1.353 . S
C650 H692 0.929 . S
C651 C648 1.356 . S
C651 C653 1.358 . S
C651 H693 0.930 . S
C652 N649 1.314 . S
C652 C650 1.353 . S
C652 H694 0.930 . S
C653 N649 1.279 . S
C653 C651 1.358 . S
C653 H695 0.930 . S
C654 C655 1.348 . S
C654 C656 1.356 . S
C654 O679 1.325 . S
C655 C654 1.348 . S
C655 C657 1.353 . S
C655 H696 0.929 . S
C656 C654 1.356 . S
C656 C658 1.358 . S
C656 H697 0.930 . S
C657 C655 1.353 . S
C657 N659 1.314 . S
C657 H698 0.930 . S
C658 C656 1.358 . S
C658 N659 1.279 . S
C658 H699 0.930 . S
N659 C657 1.314 . S
N659 C658 1.279 . S
C660 C662 1.353 . S
C660 N663 1.314 1_565 S
C660 H666 0.930 . S
C661 N663 1.279 . S
C661 C664 1.358 . S
C661 H667 0.930 . S
C662 C660 1.353 . S
C662 C665 1.348 1_565 S
C662 H700 0.929 . S
N663 Li618 1.990 . S
N663 C660 1.314 1_545 S
N663 C661 1.279 . S
C664 C661 1.358 . S
C664 C665 1.356 . S
C664 H701 0.930 . S
C665 C662 1.348 1_545 S
C665 C664 1.356 . S
H666 C660 0.930 . S
H667 C661 0.930 . S
C668 N669 1.314 . S
C668 C670 1.353 . S
C668 H674 0.930 1_565 S
N669 Li619 1.990 . S
N669 C668 1.314 . S
N669 C672 1.279 . S
C670 C668 1.353 . S
C670 C673 1.348 . S
C670 H702 0.929 . S
C671 C672 1.358 . S
C671 C673 1.356 . S
C671 H703 0.930 . S
C672 N669 1.279 . S
C672 C671 1.358 . S
C672 H675 0.930 . S
C673 C670 1.348 . S
C673 C671 1.356 . S
H674 C668 0.930 1_545 S
H675 C672 0.930 . S
O676 Li616 1.956 . S
O676 Li617 1.970 1_545 S
O676 Li618 1.961 . S
O676 C620 1.325 . S
O677 Li616 1.970 1_565 S
O677 Li617 1.956 . S
O677 Li619 1.961 . S
O677 C626 1.325 . S
O678 Li616 1.961 . S
O678 Li618 1.956 . S
O678 Li619 1.970 1_545 S
O678 C648 1.325 . S
O679 Li617 1.961 . S
O679 Li618 1.970 1_565 S
O679 Li619 1.956 . S
O679 C654 1.325 . S
H680 C622 0.929 1_565 S
H681 C623 0.930 . S
H682 C624 0.930 . S
H683 C625 0.930 . S
H684 C627 0.930 . S
H685 C629 0.929 . S
H686 C630 0.930 . S
H687 C631 0.930 . S
H688 C634 0.930 . S
H689 C637 0.929 . S
H690 C642 0.929 . S
H691 C643 0.930 . S
H692 C650 0.929 . S
H693 C651 0.930 . S
H694 C652 0.930 . S
H695 C653 0.930 . S
H696 C655 0.929 . S
H697 C656 0.930 . S
H698 C657 0.930 . S
H699 C658 0.930 . S
H700 C662 0.929 . S
H701 C664 0.930 . S
H702 C670 0.929 . S
H703 C671 0.930 . S
Li704 N721 1.990 . S
Li704 O764 1.956 . S
Li704 O765 1.970 . S
Li704 O766 1.961 . S
Li705 N729 1.990 . S
Li705 O764 1.970 . S
Li705 O765 1.956 . S
Li705 O767 1.961 . S
Li706 N751 1.990 . S
Li706 O764 1.961 . S
Li706 O766 1.956 . S
Li706 O767 1.970 . S
Li707 N757 1.990 1_554 S
Li707 O765 1.961 . S
Li707 O766 1.970 . S
Li707 O767 1.956 . S
C708 C710 1.348 . S
C708 C711 1.356 . S
C708 O764 1.325 . S
N709 C712 1.314 . S
N709 C713 1.279 . S
C710 C708 1.348 . S
C710 C712 1.353 . S
C710 H768 0.929 . S
C711 C708 1.356 . S
C711 C713 1.358 . S
C711 H769 0.930 . S
C712 N709 1.314 . S
C712 C710 1.353 . S
C712 H770 0.930 . S
C713 N709 1.279 . S
C713 C711 1.358 . S
C713 H771 0.930 . S
C714 C717 1.348 . S
C714 C718 1.356 . S
C714 O765 1.325 . S
C715 N716 1.279 . S
C715 C718 1.358 . S
C715 H772 0.930 1_554 S
N716 C715 1.279 . S
N716 C719 1.314 . S
C717 C714 1.348 . S
C717 C719 1.353 . S
C717 H773 0.929 . S
C718 C714 1.356 . S
C718 C715 1.358 . S
C718 H774 0.930 . S
C719 N716 1.314 . S
C719 C717 1.353 . S
C719 H775 0.930 . S
C720 N721 1.314 . S
C720 C725 1.353 . S
C720 H726 0.930 . S
N721 Li704 1.990 . S
N721 C720 1.314 . S
N721 C723 1.279 . S
C722 C723 1.358 . S
C722 C724 1.356 . S
C722 H776 0.930 . S
C723 N721 1.279 . S
C723 C722 1.358 . S
C723 H727 0.930 . S
C724 C722 1.356 . S
C724 C725 1.348 . S
C725 C720 1.353 . S
C725 C724 1.348 . S
C725 H777 0.929 . S
H726 C720 0.930 . S
H727 C723 0.930 . S
C728 N729 1.314 . S
C728 C730 1.353 . S
C728 H734 0.930 . S
N729 Li705 1.990 . S
N729 C728 1.314 . S
N729 C732 1.279 . S
C730 C728 1.353 . S
C730 C733 1.348 . S
C730 H778 0.929 . S
C731 C732 1.358 . S
C731 C733 1.356 . S
C731 H779 0.930 . S
C732 N729 1.279 . S
C732 C731 1.358 . S
C732 H735 0.930 . S
C733 C730 1.348 . S
C733 C731 1.356 . S
H734 C728 0.930 . S
H735 C732 0.930 . S
C736 C738 1.348 1_554 S
C736 C739 1.356 . S
C736 O766 1.325 . S
N737 C740 1.314 . S
N737 C741 1.279 1_556 S
C738 C736 1.348 1_556 S
C738 C740 1.353 . S
C738 H780 0.929 . S
C739 C736 1.356 . S
C739 C741 1.358 . S
C739 H781 0.930 . S
C740 N737 1.314 . S
C740 C738 1.353 . S
C740 H782 0.930 . S
C741 N737 1.279 1_554 S
C741 C739 1.358 . S
C741 H783 0.930 . S
C742 C743 1.348 . S
C742 C744 1.356 . S
C742 O767 1.325 . S
C743 C742 1.348 . S
C743 C745 1.353 . S
C743 H784 0.929 . S
C744 C742 1.356 . S
C744 C746 1.358 . S
C744 H785 0.930 . S
C745 C743 1.353 . S
C745 N747 1.314 . S
C745 H786 0.930 . S
C746 C744 1.358 . S
C746 N747 1.279 . S
C746 H787 0.930 . S
N747 C745 1.314 . S
N747 C746 1.279 . S
C748 C750 1.353 . S
C748 N751 1.314 . S
C748 H754 0.930 . S
C749 N751 1.279 . S
C749 C752 1.358 . S
C749 H755 0.930 . S
C750 C748 1.353 . S
C750 C753 1.348 . S
C750 H788 0.929 . S
N751 Li706 1.990 . S
N751 C748 1.314 . S
N751 C749 1.279 . S
C752 C749 1.358 . S
C752 C753 1.356 . S
C752 H789 0.930 . S
C753 C750 1.348 . S
C753 C752 1.356 . S
H754 C748 0.930 . S
H755 C749 0.930 . S
C756 N757 1.314 . S
C756 C758 1.353 . S
C756 H762 0.930 . S
N757 Li707 1.990 1_556 S
N757 C756 1.314 . S
N757 C760 1.279 . S
C758 C756 1.353 . S
C758 C761 1.348 . S
C758 H790 0.929 . S
C759 C760 1.358 . S
C759 C761 1.356 . S
C759 H791 0.930 . S
C760 N757 1.279 . S
C760 C759 1.358 . S
C760 H763 0.930 . S
C761 C758 1.348 . S
C761 C759 1.356 . S
H762 C756 0.930 . S
H763 C760 0.930 . S
O764 Li704 1.956 . S
O764 Li705 1.970 . S
O764 Li706 1.961 . S
O764 C708 1.325 . S
O765 Li704 1.970 . S
O765 Li705 1.956 . S
O765 Li707 1.961 . S
O765 C714 1.325 . S
O766 Li704 1.961 . S
O766 Li706 1.956 . S
O766 Li707 1.970 . S
O766 C736 1.325 . S
O767 Li705 1.961 . S
O767 Li706 1.970 . S
O767 Li707 1.956 . S
O767 C742 1.325 . S
H768 C710 0.929 . S
H769 C711 0.930 . S
H770 C712 0.930 . S
H771 C713 0.930 . S
H772 C715 0.930 1_556 S
H773 C717 0.929 . S
H774 C718 0.930 . S
H775 C719 0.930 . S
H776 C722 0.930 . S
H777 C725 0.929 . S
H778 C730 0.929 . S
H779 C731 0.930 . S
H780 C738 0.929 . S
H781 C739 0.930 . S
H782 C740 0.930 . S
H783 C741 0.930 . S
H784 C743 0.929 . S
H785 C744 0.930 . S
H786 C745 0.930 . S
H787 C746 0.930 . S
H788 C750 0.929 . S
H789 C752 0.930 . S
H790 C758 0.929 . S
H791 C759 0.930 . S
Li792 N809 1.990 . S
Li792 O852 1.956 . S
Li792 O853 1.970 1_455 S
Li792 O854 1.961 . S
Li793 N817 1.990 . S
Li793 O852 1.970 1_655 S
Li793 O853 1.956 . S
Li793 O855 1.961 . S
Li794 N839 1.990 . S
Li794 O852 1.961 . S
Li794 O854 1.956 . S
Li794 O855 1.970 1_455 S
Li795 N845 1.990 . S
Li795 O853 1.961 . S
Li795 O854 1.970 1_655 S
Li795 O855 1.956 . S
C796 C798 1.348 1_455 S
C796 C799 1.356 . S
C796 O852 1.325 . S
N797 C800 1.314 1_455 S
N797 C801 1.279 . S
C798 C796 1.348 1_655 S
C798 C800 1.353 . S
C798 H856 0.929 . S
C799 C796 1.356 . S
C799 C801 1.358 . S
C799 H857 0.930 . S
C800 N797 1.314 1_655 S
C800 C798 1.353 . S
C800 H858 0.930 . S
C801 N797 1.279 . S
C801 C799 1.358 . S
C801 H859 0.930 . S
C802 C805 1.348 . S
C802 C806 1.356 . S
C802 O853 1.325 . S
C803 N804 1.279 . S
C803 C806 1.358 . S
C803 H860 0.930 . S
N804 C803 1.279 . S
N804 C807 1.314 . S
C805 C802 1.348 . S
C805 C807 1.353 . S
C805 H861 0.929 1_655 S
C806 C802 1.356 . S
C806 C803 1.358 . S
C806 H862 0.930 . S
C807 N804 1.314 . S
C807 C805 1.353 . S
C807 H863 0.930 . S
C808 N809 1.314 . S
C808 C813 1.353 . S
C808 H814 0.930 . S
N809 Li792 1.990 . S
N809 C808 1.314 . S
N809 C811 1.279 . S
C810 C811 1.358 . S
C810 C812 1.356 . S
C810 H864 0.930 . S
C811 N809 1.279 . S
C811 C810 1.358 . S
C811 H815 0.930 . S
C812 C810 1.356 . S
C812 C813 1.348 . S
C813 C808 1.353 . S
C813 C812 1.348 . S
C813 H865 0.929 . S
H814 C808 0.930 . S
H815 C811 0.930 . S
C816 N817 1.314 . S
C816 C818 1.353 . S
C816 H822 0.930 . S
N817 Li793 1.990 . S
N817 C816 1.314 . S
N817 C820 1.279 . S
C818 C816 1.353 . S
C818 C821 1.348 . S
C818 H866 0.929 . S
C819 C820 1.358 . S
C819 C821 1.356 . S
C819 H867 0.930 . S
C820 N817 1.279 . S
C820 C819 1.358 . S
C820 H823 0.930 . S
C821 C818 1.348 . S
C821 C819 1.356 . S
H822 C816 0.930 . S
H823 C820 0.930 . S
C824 C826 1.348 . S
C824 C827 1.356 . S
C824 O854 1.325 . S
N825 C828 1.314 . S
N825 C829 1.279 . S
C826 C824 1.348 . S
C826 C828 1.353 . S
C826 H868 0.929 . S
C827 C824 1.356 . S
C827 C829 1.358 . S
C827 H869 0.930 . S
C828 N825 1.314 . S
C828 C826 1.353 . S
C828 H870 0.930 . S
C829 N825 1.279 . S
C829 C827 1.358 . S
C829 H871 0.930 . S
C830 C831 1.348 . S
C830 C832 1.356 . S
C830 O855 1.325 . S
C831 C830 1.348 . S
C831 C833 1.353 . S
C831 H872 0.929 . S
C832 C830 1.356 . S
C832 C834 1.358 . S
C832 H873 0.930 . S
C833 C831 1.353 . S
C833 N835 1.314 . S
C833 H874 0.930 . S
C834 C832 1.358 . S
C834 N835 1.279 . S
C834 H875 0.930 . S
N835 C833 1.314 . S
N835 C834 1.279 . S
C836 C838 1.353 . S
C836 N839 1.314 . S
C836 H842 0.930 1_455 S
C837 N839 1.279 . S
C837 C840 1.358 . S
C837 H843 0.930 . S
C838 C836 1.353 . S
C838 C841 1.348 . S
C838 H876 0.929 . S
N839 Li794 1.990 . S
N839 C836 1.314 . S
N839 C837 1.279 . S
C840 C837 1.358 . S
C840 C841 1.356 . S
C840 H877 0.930 . S
C841 C838 1.348 . S
C841 C840 1.356 . S
H842 C836 0.930 1_655 S
H843 C837 0.930 . S
C844 N845 1.314 1_455 S
C844 C846 1.353 . S
C844 H850 0.930 . S
N845 Li795 1.990 . S
N845 C844 1.314 1_655 S
N845 C848 1.279 . S
C846 C844 1.353 . S
C846 C849 1.348 1_455 S
C846 H878 0.929 . S
C847 C848 1.358 . S
C847 C849 1.356 . S
C847 H879 0.930 . S
C848 N845 1.279 . S
C848 C847 1.358 . S
C848 H851 0.930 . S
C849 C846 1.348 1_655 S
C849 C847 1.356 . S
H850 C844 0.930 . S
H851 C848 0.930 . S
O852 Li792 1.956 . S
O852 Li793 1.970 1_455 S
O852 Li794 1.961 . S
O852 C796 1.325 . S
O853 Li792 1.970 1_655 S
O853 Li793 1.956 . S
O853 Li795 1.961 . S
O853 C802 1.325 . S
O854 Li792 1.961 . S
O854 Li794 1.956 . S
O854 Li795 1.970 1_455 S
O854 C824 1.325 . S
O855 Li793 1.961 . S
O855 Li794 1.970 1_655 S
O855 Li795 1.956 . S
O855 C830 1.325 . S
H856 C798 0.929 . S
H857 C799 0.930 . S
H858 C800 0.930 . S
H859 C801 0.930 . S
H860 C803 0.930 . S
H861 C805 0.929 1_455 S
H862 C806 0.930 . S
H863 C807 0.930 . S
H864 C810 0.930 . S
H865 C813 0.929 . S
H866 C818 0.929 . S
H867 C819 0.930 . S
H868 C826 0.929 . S
H869 C827 0.930 . S
H870 C828 0.930 . S
H871 C829 0.930 . S
H872 C831 0.929 . S
H873 C832 0.930 . S
H874 C833 0.930 . S
H875 C834 0.930 . S
H876 C838 0.929 . S
H877 C840 0.930 . S
H878 C846 0.929 . S
H879 C847 0.930 . S
Li880 N897 1.990 . S
Li880 O940 1.956 . S
Li880 O941 1.970 1_545 S
Li880 O942 1.961 . S
Li881 N905 1.990 . S
Li881 O940 1.970 1_565 S
Li881 O941 1.956 . S
Li881 O943 1.961 . S
Li882 N927 1.990 . S
Li882 O940 1.961 . S
Li882 O942 1.956 . S
Li882 O943 1.970 1_545 S
Li883 N933 1.990 . S
Li883 O941 1.961 . S
Li883 O942 1.970 1_565 S
Li883 O943 1.956 . S
C884 C886 1.348 1_545 S
C884 C887 1.356 . S
C884 O940 1.325 . S
N885 C888 1.314 1_545 S
N885 C889 1.279 . S
C886 C884 1.348 1_565 S
C886 C888 1.353 . S
C886 H944 0.929 . S
C887 C884 1.356 . S
C887 C889 1.358 . S
C887 H945 0.930 . S
C888 N885 1.314 1_565 S
C888 C886 1.353 . S
C888 H946 0.930 . S
C889 N885 1.279 . S
C889 C887 1.358 . S
C889 H947 0.930 . S
C890 C893 1.348 . S
C890 C894 1.356 . S
C890 O941 1.325 . S
C891 N892 1.279 . S
C891 C894 1.358 . S
C891 H948 0.930 . S
N892 C891 1.279 . S
N892 C895 1.314 . S
C893 C890 1.348 . S
C893 C895 1.353 . S
C893 H949 0.929 1_565 S
C894 C890 1.356 . S
C894 C891 1.358 . S
C894 H950 0.930 . S
C895 N892 1.314 . S
C895 C893 1.353 . S
C895 H951 0.930 . S
C896 N897 1.314 . S
C896 C901 1.353 . S
C896 H902 0.930 . S
N897 Li880 1.990 . S
N897 C896 1.314 . S
N897 C899 1.279 . S
C898 C899 1.358 . S
C898 C900 1.356 . S
C898 H952 0.930 . S
C899 N897 1.279 . S
C899 C898 1.358 . S
C899 H903 0.930 . S
C900 C898 1.356 . S
C900 C901 1.348 . S
C901 C896 1.353 . S
C901 C900 1.348 . S
C901 H953 0.929 . S
H902 C896 0.930 . S
H903 C899 0.930 . S
C904 N905 1.314 . S
C904 C906 1.353 . S
C904 H910 0.930 . S
N905 Li881 1.990 . S
N905 C904 1.314 . S
N905 C908 1.279 . S
C906 C904 1.353 . S
C906 C909 1.348 . S
C906 H954 0.929 . S
C907 C908 1.358 . S
C907 C909 1.356 . S
C907 H955 0.930 . S
C908 N905 1.279 . S
C908 C907 1.358 . S
C908 H911 0.930 . S
C909 C906 1.348 . S
C909 C907 1.356 . S
H910 C904 0.930 . S
H911 C908 0.930 . S
C912 C914 1.348 . S
C912 C915 1.356 . S
C912 O942 1.325 . S
N913 C916 1.314 . S
N913 C917 1.279 . S
C914 C912 1.348 . S
C914 C916 1.353 . S
C914 H956 0.929 . S
C915 C912 1.356 . S
C915 C917 1.358 . S
C915 H957 0.930 . S
C916 N913 1.314 . S
C916 C914 1.353 . S
C916 H958 0.930 . S
C917 N913 1.279 . S
C917 C915 1.358 . S
C917 H959 0.930 . S
C918 C919 1.348 . S
C918 C920 1.356 . S
C918 O943 1.325 . S
C919 C918 1.348 . S
C919 C921 1.353 . S
C919 H960 0.929 . S
C920 C918 1.356 . S
C920 C922 1.358 . S
C920 H961 0.930 . S
C921 C919 1.353 . S
C921 N923 1.314 . S
C921 H962 0.930 . S
C922 C920 1.358 . S
C922 N923 1.279 . S
C922 H963 0.930 . S
N923 C921 1.314 . S
N923 C922 1.279 . S
C924 C926 1.353 . S
C924 N927 1.314 . S
C924 H930 0.930 1_545 S
C925 N927 1.279 . S
C925 C928 1.358 . S
C925 H931 0.930 . S
C926 C924 1.353 . S
C926 C929 1.348 . S
C926 H964 0.929 . S
N927 Li882 1.990 . S
N927 C924 1.314 . S
N927 C925 1.279 . S
C928 C925 1.358 . S
C928 C929 1.356 . S
C928 H965 0.930 . S
C929 C926 1.348 . S
C929 C928 1.356 . S
H930 C924 0.930 1_565 S
H931 C925 0.930 . S
C932 N933 1.314 1_545 S
C932 C934 1.353 . S
C932 H938 0.930 . S
N933 Li883 1.990 . S
N933 C932 1.314 1_565 S
N933 C936 1.279 . S
C934 C932 1.353 . S
C934 C937 1.348 1_545 S
C934 H966 0.929 . S
C935 C936 1.358 . S
C935 C937 1.356 . S
C935 H967 0.930 . S
C936 N933 1.279 . S
C936 C935 1.358 . S
C936 H939 0.930 . S
C937 C934 1.348 1_565 S
C937 C935 1.356 . S
H938 C932 0.930 . S
H939 C936 0.930 . S
O940 Li880 1.956 . S
O940 Li881 1.970 1_545 S
O940 Li882 1.961 . S
O940 C884 1.325 . S
O941 Li880 1.970 1_565 S
O941 Li881 1.956 . S
O941 Li883 1.961 . S
O941 C890 1.325 . S
O942 Li880 1.961 . S
O942 Li882 1.956 . S
O942 Li883 1.970 1_545 S
O942 C912 1.325 . S
O943 Li881 1.961 . S
O943 Li882 1.970 1_565 S
O943 Li883 1.956 . S
O943 C918 1.325 . S
H944 C886 0.929 . S
H945 C887 0.930 . S
H946 C888 0.930 . S
H947 C889 0.930 . S
H948 C891 0.930 . S
H949 C893 0.929 1_545 S
H950 C894 0.930 . S
H951 C895 0.930 . S
H952 C898 0.930 . S
H953 C901 0.929 . S
H954 C906 0.929 . S
H955 C907 0.930 . S
H956 C914 0.929 . S
H957 C915 0.930 . S
H958 C916 0.930 . S
H959 C917 0.930 . S
H960 C919 0.929 . S
H961 C920 0.930 . S
H962 C921 0.930 . S
H963 C922 0.930 . S
H964 C926 0.929 . S
H965 C928 0.930 . S
H966 C934 0.929 . S
H967 C935 0.930 . S
Li968 N985 1.990 . S
Li968 O1028 1.956 . S
Li968 O1029 1.970 . S
Li968 O1030 1.961 . S
Li969 N993 1.990 . S
Li969 O1028 1.970 . S
Li969 O1029 1.956 . S
Li969 O1031 1.961 . S
Li970 N1015 1.990 1_554 S
Li970 O1028 1.961 . S
Li970 O1030 1.956 . S
Li970 O1031 1.970 . S
Li971 N1021 1.990 . S
Li971 O1029 1.961 . S
Li971 O1030 1.970 . S
Li971 O1031 1.956 . S
C972 C974 1.348 . S
C972 C975 1.356 . S
C972 O1028 1.325 . S
N973 C976 1.314 . S
N973 C977 1.279 . S
C974 C972 1.348 . S
C974 C976 1.353 . S
C974 H1032 0.929 . S
C975 C972 1.356 . S
C975 C977 1.358 . S
C975 H1033 0.930 . S
C976 N973 1.314 . S
C976 C974 1.353 . S
C976 H1034 0.930 . S
C977 N973 1.279 . S
C977 C975 1.358 . S
C977 H1035 0.930 1_554 S
C978 C981 1.348 . S
C978 C982 1.356 . S
C978 O1029 1.325 . S
C979 N980 1.279 . S
C979 C982 1.358 . S
C979 H1036 0.930 . S
N980 C979 1.279 . S
N980 C983 1.314 . S
C981 C978 1.348 . S
C981 C983 1.353 . S
C981 H1037 0.929 . S
C982 C978 1.356 . S
C982 C979 1.358 . S
C982 H1038 0.930 . S
C983 N980 1.314 . S
C983 C981 1.353 . S
C983 H1039 0.930 . S
C984 N985 1.314 . S
C984 C989 1.353 . S
C984 H990 0.930 . S
N985 Li968 1.990 . S
N985 C984 1.314 . S
N985 C987 1.279 . S
C986 C987 1.358 . S
C986 C988 1.356 . S
C986 H1040 0.930 . S
C987 N985 1.279 . S
C987 C986 1.358 . S
C987 H991 0.930 . S
C988 C986 1.356 . S
C988 C989 1.348 . S
C989 C984 1.353 . S
C989 C988 1.348 . S
C989 H1041 0.929 . S
H990 C984 0.930 . S
H991 C987 0.930 . S
C992 N993 1.314 . S
C992 C994 1.353 . S
C992 H998 0.930 . S
N993 Li969 1.990 . S
N993 C992 1.314 . S
N993 C996 1.279 . S
C994 C992 1.353 . S
C994 C997 1.348 . S
C994 H1042 0.929 . S
C995 C996 1.358 . S
C995 C997 1.356 . S
C995 H1043 0.930 . S
C996 N993 1.279 . S
C996 C995 1.358 . S
C996 H999 0.930 . S
C997 C994 1.348 . S
C997 C995 1.356 . S
H998 C992 0.930 . S
H999 C996 0.930 . S
C1000 C1002 1.348 . S
C1000 C1003 1.356 . S
C1000 O1030 1.325 . S
N1001 C1004 1.314 . S
N1001 C1005 1.279 . S
C1002 C1000 1.348 . S
C1002 C1004 1.353 . S
C1002 H1044 0.929 . S
C1003 C1000 1.356 . S
C1003 C1005 1.358 . S
C1003 H1045 0.930 . S
C1004 N1001 1.314 . S
C1004 C1002 1.353 . S
C1004 H1046 0.930 . S
C1005 N1001 1.279 . S
C1005 C1003 1.358 . S
C1005 H1047 0.930 . S
C1006 C1007 1.348 1_554 S
C1006 C1008 1.356 . S
C1006 O1031 1.325 . S
C1007 C1006 1.348 1_556 S
C1007 C1009 1.353 . S
C1007 H1048 0.929 . S
C1008 C1006 1.356 . S
C1008 C1010 1.358 . S
C1008 H1049 0.930 . S
C1009 C1007 1.353 . S
C1009 N1011 1.314 . S
C1009 H1050 0.930 . S
C1010 C1008 1.358 . S
C1010 N1011 1.279 1_554 S
C1010 H1051 0.930 . S
N1011 C1009 1.314 . S
N1011 C1010 1.279 1_556 S
C1012 C1014 1.353 . S
C1012 N1015 1.314 . S
C1012 H1018 0.930 . S
C1013 N1015 1.279 . S
C1013 C1016 1.358 . S
C1013 H1019 0.930 . S
C1014 C1012 1.353 . S
C1014 C1017 1.348 . S
C1014 H1052 0.929 . S
N1015 Li970 1.990 1_556 S
N1015 C1012 1.314 . S
N1015 C1013 1.279 . S
C1016 C1013 1.358 . S
C1016 C1017 1.356 . S
C1016 H1053 0.930 . S
C1017 C1014 1.348 . S
C1017 C1016 1.356 . S
H1018 C1012 0.930 . S
H1019 C1013 0.930 . S
C1020 N1021 1.314 . S
C1020 C1022 1.353 . S
C1020 H1026 0.930 . S
N1021 Li971 1.990 . S
N1021 C1020 1.314 . S
N1021 C1024 1.279 . S
C1022 C1020 1.353 . S
C1022 C1025 1.348 . S
C1022 H1054 0.929 . S
C1023 C1024 1.358 . S
C1023 C1025 1.356 . S
C1023 H1055 0.930 . S
C1024 N1021 1.279 . S
C1024 C1023 1.358 . S
C1024 H1027 0.930 . S
C1025 C1022 1.348 . S
C1025 C1023 1.356 . S
H1026 C1020 0.930 . S
H1027 C1024 0.930 . S
O1028 Li968 1.956 . S
O1028 Li969 1.970 . S
O1028 Li970 1.961 . S
O1028 C972 1.325 . S
O1029 Li968 1.970 . S
O1029 Li969 1.956 . S
O1029 Li971 1.961 . S
O1029 C978 1.325 . S
O1030 Li968 1.961 . S
O1030 Li970 1.956 . S
O1030 Li971 1.970 . S
O1030 C1000 1.325 . S
O1031 Li969 1.961 . S
O1031 Li970 1.970 . S
O1031 Li971 1.956 . S
O1031 C1006 1.325 . S
H1032 C974 0.929 . S
H1033 C975 0.930 . S
H1034 C976 0.930 . S
H1035 C977 0.930 1_556 S
H1036 C979 0.930 . S
H1037 C981 0.929 . S
H1038 C982 0.930 . S
H1039 C983 0.930 . S
H1040 C986 0.930 . S
H1041 C989 0.929 . S
H1042 C994 0.929 . S
H1043 C995 0.930 . S
H1044 C1002 0.929 . S
H1045 C1003 0.930 . S
H1046 C1004 0.930 . S
H1047 C1005 0.930 . S
H1048 C1007 0.929 . S
H1049 C1008 0.930 . S
H1050 C1009 0.930 . S
H1051 C1010 0.930 . S
H1052 C1014 0.929 . S
H1053 C1016 0.930 . S
H1054 C1022 0.929 . S
H1055 C1023 0.930 . S
C1056 C1057 1.391 . S
C1056 C1058 1.394 . S
C1056 H1072 0.931 . S
C1057 C1056 1.391 . S
C1057 C1061 1.376 . S
C1058 C1056 1.394 . S
C1058 C1059 1.369 . S
C1058 C1062 1.531 . S
C1059 C1058 1.369 . S
C1059 C1060 1.410 . S
C1059 C1067 1.503 . S
C1060 C1059 1.410 . S
C1060 C1061 1.392 . S
C1060 C1063 1.511 . S
C1061 C1057 1.376 . S
C1061 C1060 1.392 . S
C1061 H1073 0.929 . S
C1062 C1058 1.531 . S
C1062 H1074 0.960 . S
C1062 H1075 0.962 . S
C1062 H1076 0.960 . S
C1063 C1060 1.511 . S
C1063 H1077 0.961 . S
C1063 H1078 0.961 . S
C1063 H1079 0.961 . S
C1064 C1065 1.370 . S
C1064 C1066 1.363 . S
C1064 H1080 0.931 . S
C1065 C1064 1.370 . S
C1065 C1069 1.408 . S
C1066 C1064 1.363 . S
C1066 C1067 1.370 . S
C1066 C1070 1.524 . S
C1067 C1059 1.503 . S
C1067 C1066 1.370 . S
C1067 C1068 1.403 . S
C1068 C1067 1.403 . S
C1068 C1069 1.404 . S
C1068 C1071 1.539 . S
C1069 C1065 1.408 . S
C1069 C1068 1.404 . S
C1069 H1081 0.930 . S
C1070 C1066 1.524 . S
C1070 H1082 0.956 . S
C1070 H1083 0.961 . S
C1070 H1084 0.961 . S
C1071 C1068 1.539 . S
C1071 H1085 0.958 . S
C1071 H1086 0.961 . S
C1071 H1087 0.960 . S
H1072 C1056 0.931 . S
H1073 C1061 0.929 . S
H1074 C1062 0.960 . S
H1075 C1062 0.962 . S
H1076 C1062 0.960 . S
H1077 C1063 0.961 . S
H1078 C1063 0.961 . S
H1079 C1063 0.961 . S
H1080 C1064 0.931 . S
H1081 C1069 0.930 . S
H1082 C1070 0.956 . S
H1083 C1070 0.961 . S
H1084 C1070 0.961 . S
H1085 C1071 0.958 . S
H1086 C1071 0.961 . S
H1087 C1071 0.960 . S
C1088 C1089 1.391 . S
C1088 C1090 1.394 . S
C1088 H1104 0.931 . S
C1089 C1088 1.391 . S
C1089 C1093 1.376 . S
C1090 C1088 1.394 . S
C1090 C1091 1.369 . S
C1090 C1094 1.531 . S
C1091 C1090 1.369 . S
C1091 C1092 1.410 . S
C1091 C1099 1.503 . S
C1092 C1091 1.410 . S
C1092 C1093 1.392 . S
C1092 C1095 1.511 . S
C1093 C1089 1.376 . S
C1093 C1092 1.392 . S
C1093 H1105 0.929 . S
C1094 C1090 1.531 . S
C1094 H1106 0.960 . S
C1094 H1107 0.962 . S
C1094 H1108 0.960 . S
C1095 C1092 1.511 . S
C1095 H1109 0.961 . S
C1095 H1110 0.961 . S
C1095 H1111 0.961 . S
C1096 C1097 1.370 . S
C1096 C1098 1.363 . S
C1096 H1112 0.931 . S
C1097 C1096 1.370 . S
C1097 C1101 1.408 . S
C1098 C1096 1.363 . S
C1098 C1099 1.370 . S
C1098 C1102 1.524 . S
C1099 C1091 1.503 . S
C1099 C1098 1.370 . S
C1099 C1100 1.403 . S
C1100 C1099 1.403 . S
C1100 C1101 1.404 . S
C1100 C1103 1.539 . S
C1101 C1097 1.408 . S
C1101 C1100 1.404 . S
C1101 H1113 0.930 . S
C1102 C1098 1.524 . S
C1102 H1114 0.956 . S
C1102 H1115 0.961 . S
C1102 H1116 0.961 . S
C1103 C1100 1.539 . S
C1103 H1117 0.958 . S
C1103 H1118 0.961 . S
C1103 H1119 0.960 . S
H1104 C1088 0.931 . S
H1105 C1093 0.929 . S
H1106 C1094 0.960 . S
H1107 C1094 0.962 . S
H1108 C1094 0.960 . S
H1109 C1095 0.961 . S
H1110 C1095 0.961 . S
H1111 C1095 0.961 . S
H1112 C1096 0.931 . S
H1113 C1101 0.930 . S
H1114 C1102 0.956 . S
H1115 C1102 0.961 . S
H1116 C1102 0.961 . S
H1117 C1103 0.958 . S
H1118 C1103 0.961 . S
H1119 C1103 0.960 . S
C1120 C1121 1.391 . S
C1120 C1122 1.394 . S
C1120 H1136 0.931 . S
C1121 C1120 1.391 . S
C1121 C1125 1.376 . S
C1122 C1120 1.394 . S
C1122 C1123 1.369 . S
C1122 C1126 1.531 . S
C1123 C1122 1.369 . S
C1123 C1124 1.410 . S
C1123 C1131 1.503 . S
C1124 C1123 1.410 . S
C1124 C1125 1.392 . S
C1124 C1127 1.511 . S
C1125 C1121 1.376 . S
C1125 C1124 1.392 . S
C1125 H1137 0.929 . S
C1126 C1122 1.531 . S
C1126 H1138 0.960 . S
C1126 H1139 0.962 . S
C1126 H1140 0.960 . S
C1127 C1124 1.511 . S
C1127 H1141 0.961 . S
C1127 H1142 0.961 . S
C1127 H1143 0.961 . S
C1128 C1129 1.370 . S
C1128 C1130 1.363 . S
C1128 H1144 0.931 . S
C1129 C1128 1.370 . S
C1129 C1133 1.408 . S
C1130 C1128 1.363 . S
C1130 C1131 1.370 . S
C1130 C1134 1.524 . S
C1131 C1123 1.503 . S
C1131 C1130 1.370 . S
C1131 C1132 1.403 . S
C1132 C1131 1.403 . S
C1132 C1133 1.404 . S
C1132 C1135 1.539 . S
C1133 C1129 1.408 . S
C1133 C1132 1.404 . S
C1133 H1145 0.930 . S
C1134 C1130 1.524 . S
C1134 H1146 0.956 . S
C1134 H1147 0.961 . S
C1134 H1148 0.961 . S
C1135 C1132 1.539 . S
C1135 H1149 0.958 . S
C1135 H1150 0.961 . S
C1135 H1151 0.960 . S
H1136 C1120 0.931 . S
H1137 C1125 0.929 . S
H1138 C1126 0.960 . S
H1139 C1126 0.962 . S
H1140 C1126 0.960 . S
H1141 C1127 0.961 . S
H1142 C1127 0.961 . S
H1143 C1127 0.961 . S
H1144 C1128 0.931 . S
H1145 C1133 0.930 . S
H1146 C1134 0.956 . S
H1147 C1134 0.961 . S
H1148 C1134 0.961 . S
H1149 C1135 0.958 . S
H1150 C1135 0.961 . S
H1151 C1135 0.960 . S
C1152 C1153 1.391 . S
C1152 C1154 1.394 . S
C1152 H1168 0.931 . S
C1153 C1152 1.391 . S
C1153 C1157 1.376 . S
C1154 C1152 1.394 . S
C1154 C1155 1.369 . S
C1154 C1158 1.531 . S
C1155 C1154 1.369 . S
C1155 C1156 1.410 . S
C1155 C1163 1.503 . S
C1156 C1155 1.410 . S
C1156 C1157 1.392 . S
C1156 C1159 1.511 . S
C1157 C1153 1.376 . S
C1157 C1156 1.392 . S
C1157 H1169 0.929 . S
C1158 C1154 1.531 . S
C1158 H1170 0.960 . S
C1158 H1171 0.962 . S
C1158 H1172 0.960 . S
C1159 C1156 1.511 . S
C1159 H1173 0.961 . S
C1159 H1174 0.961 . S
C1159 H1175 0.961 . S
C1160 C1161 1.370 . S
C1160 C1162 1.363 . S
C1160 H1176 0.931 . S
C1161 C1160 1.370 . S
C1161 C1165 1.408 . S
C1162 C1160 1.363 . S
C1162 C1163 1.370 . S
C1162 C1166 1.524 . S
C1163 C1155 1.503 . S
C1163 C1162 1.370 . S
C1163 C1164 1.403 . S
C1164 C1163 1.403 . S
C1164 C1165 1.404 . S
C1164 C1167 1.539 . S
C1165 C1161 1.408 . S
C1165 C1164 1.404 . S
C1165 H1177 0.930 . S
C1166 C1162 1.524 . S
C1166 H1178 0.956 . S
C1166 H1179 0.961 . S
C1166 H1180 0.961 . S
C1167 C1164 1.539 . S
C1167 H1181 0.958 . S
C1167 H1182 0.961 . S
C1167 H1183 0.960 . S
H1168 C1152 0.931 . S
H1169 C1157 0.929 . S
H1170 C1158 0.960 . S
H1171 C1158 0.962 . S
H1172 C1158 0.960 . S
H1173 C1159 0.961 . S
H1174 C1159 0.961 . S
H1175 C1159 0.961 . S
H1176 C1160 0.931 . S
H1177 C1165 0.930 . S
H1178 C1166 0.956 . S
H1179 C1166 0.961 . S
H1180 C1166 0.961 . S
H1181 C1167 0.958 . S
H1182 C1167 0.961 . S
H1183 C1167 0.960 . S
C1184 C1185 1.391 . S
C1184 C1186 1.394 . S
C1184 H1200 0.931 . S
C1185 C1184 1.391 . S
C1185 C1189 1.376 . S
C1186 C1184 1.394 . S
C1186 C1187 1.369 . S
C1186 C1190 1.531 . S
C1187 C1186 1.369 . S
C1187 C1188 1.410 . S
C1187 C1195 1.503 . S
C1188 C1187 1.410 . S
C1188 C1189 1.392 . S
C1188 C1191 1.511 . S
C1189 C1185 1.376 . S
C1189 C1188 1.392 . S
C1189 H1201 0.929 . S
C1190 C1186 1.531 . S
C1190 H1202 0.960 . S
C1190 H1203 0.962 . S
C1190 H1204 0.960 . S
C1191 C1188 1.511 . S
C1191 H1205 0.961 . S
C1191 H1206 0.961 . S
C1191 H1207 0.961 . S
C1192 C1193 1.370 . S
C1192 C1194 1.363 . S
C1192 H1208 0.931 . S
C1193 C1192 1.370 . S
C1193 C1197 1.408 . S
C1194 C1192 1.363 . S
C1194 C1195 1.370 . S
C1194 C1198 1.524 . S
C1195 C1187 1.503 . S
C1195 C1194 1.370 . S
C1195 C1196 1.403 . S
C1196 C1195 1.403 . S
C1196 C1197 1.404 . S
C1196 C1199 1.539 . S
C1197 C1193 1.408 . S
C1197 C1196 1.404 . S
C1197 H1209 0.930 . S
C1198 C1194 1.524 . S
C1198 H1210 0.956 . S
C1198 H1211 0.961 . S
C1198 H1212 0.961 . S
C1199 C1196 1.539 . S
C1199 H1213 0.958 . S
C1199 H1214 0.961 . S
C1199 H1215 0.960 . S
H1200 C1184 0.931 . S
H1201 C1189 0.929 . S
H1202 C1190 0.960 . S
H1203 C1190 0.962 . S
H1204 C1190 0.960 . S
H1205 C1191 0.961 . S
H1206 C1191 0.961 . S
H1207 C1191 0.961 . S
H1208 C1192 0.931 . S
H1209 C1197 0.930 . S
H1210 C1198 0.956 . S
H1211 C1198 0.961 . S
H1212 C1198 0.961 . S
H1213 C1199 0.958 . S
H1214 C1199 0.961 . S
H1215 C1199 0.960 . S
C1216 C1217 1.391 . S
C1216 C1218 1.394 . S
C1216 H1232 0.931 . S
C1217 C1216 1.391 . S
C1217 C1221 1.376 . S
C1218 C1216 1.394 . S
C1218 C1219 1.369 . S
C1218 C1222 1.531 . S
C1219 C1218 1.369 . S
C1219 C1220 1.410 . S
C1219 C1227 1.503 . S
C1220 C1219 1.410 . S
C1220 C1221 1.392 . S
C1220 C1223 1.511 . S
C1221 C1217 1.376 . S
C1221 C1220 1.392 . S
C1221 H1233 0.929 . S
C1222 C1218 1.531 . S
C1222 H1234 0.960 . S
C1222 H1235 0.962 . S
C1222 H1236 0.960 . S
C1223 C1220 1.511 . S
C1223 H1237 0.961 . S
C1223 H1238 0.961 . S
C1223 H1239 0.961 . S
C1224 C1225 1.370 . S
C1224 C1226 1.363 . S
C1224 H1240 0.931 . S
C1225 C1224 1.370 . S
C1225 C1229 1.408 . S
C1226 C1224 1.363 . S
C1226 C1227 1.370 . S
C1226 C1230 1.524 . S
C1227 C1219 1.503 . S
C1227 C1226 1.370 . S
C1227 C1228 1.403 . S
C1228 C1227 1.403 . S
C1228 C1229 1.404 . S
C1228 C1231 1.539 . S
C1229 C1225 1.408 . S
C1229 C1228 1.404 . S
C1229 H1241 0.930 . S
C1230 C1226 1.524 . S
C1230 H1242 0.956 . S
C1230 H1243 0.961 . S
C1230 H1244 0.961 . S
C1231 C1228 1.539 . S
C1231 H1245 0.958 . S
C1231 H1246 0.961 . S
C1231 H1247 0.960 . S
H1232 C1216 0.931 . S
H1233 C1221 0.929 . S
H1234 C1222 0.960 . S
H1235 C1222 0.962 . S
H1236 C1222 0.960 . S
H1237 C1223 0.961 . S
H1238 C1223 0.961 . S
H1239 C1223 0.961 . S
H1240 C1224 0.931 . S
H1241 C1229 0.930 . S
H1242 C1230 0.956 . S
H1243 C1230 0.961 . S
H1244 C1230 0.961 . S
H1245 C1231 0.958 . S
H1246 C1231 0.961 . S
H1247 C1231 0.960 . S
C1248 C1249 1.391 . S
C1248 C1250 1.394 . S
C1248 H1264 0.931 . S
C1249 C1248 1.391 . S
C1249 C1253 1.376 1_565 S
C1250 C1248 1.394 . S
C1250 C1251 1.369 . S
C1250 C1254 1.531 . S
C1251 C1250 1.369 . S
C1251 C1252 1.410 1_565 S
C1251 C1259 1.516 1_565 S
C1252 C1251 1.410 1_545 S
C1252 C1253 1.392 . S
C1252 C1255 1.511 . S
C1253 C1249 1.376 1_545 S
C1253 C1252 1.392 . S
C1253 H1265 0.929 . S
C1254 C1250 1.531 . S
C1254 H1266 0.960 . S
C1254 H1267 0.962 . S
C1254 H1268 0.960 . S
C1255 C1252 1.511 . S
C1255 H1269 0.961 . S
C1255 H1270 0.961 . S
C1255 H1271 0.961 . S
C1256 C1257 1.370 . S
C1256 C1258 1.363 . S
C1256 H1272 0.931 . S
C1257 C1256 1.370 . S
C1257 C1261 1.408 . S
C1258 C1256 1.363 . S
C1258 C1259 1.370 . S
C1258 C1262 1.524 . S
C1259 C1251 1.516 1_545 S
C1259 C1258 1.370 . S
C1259 C1260 1.391 1_545 S
C1260 C1259 1.391 1_565 S
C1260 C1261 1.404 1_565 S
C1260 C1263 1.539 . S
C1261 C1257 1.408 . S
C1261 C1260 1.404 1_545 S
C1261 H1273 0.925 1_545 S
C1262 C1258 1.524 . S
C1262 H1274 0.956 1_545 S
C1262 H1275 0.961 . S
C1262 H1276 0.961 . S
C1263 C1260 1.539 . S
C1263 H1277 0.958 . S
C1263 H1278 0.961 1_565 S
C1263 H1279 0.957 . S
H1264 C1248 0.931 . S
H1265 C1253 0.929 . S
H1266 C1254 0.960 . S
H1267 C1254 0.962 . S
H1268 C1254 0.960 . S
H1269 C1255 0.961 . S
H1270 C1255 0.961 . S
H1271 C1255 0.961 . S
H1272 C1256 0.931 . S
H1273 C1261 0.925 1_565 S
H1274 C1262 0.956 1_565 S
H1275 C1262 0.961 . S
H1276 C1262 0.961 . S
H1277 C1263 0.958 . S
H1278 C1263 0.961 1_545 S
H1279 C1263 0.957 . S
C1280 C1281 1.391 . S
C1280 C1282 1.394 . S
C1280 H1296 0.931 . S
C1281 C1280 1.391 . S
C1281 C1285 1.376 . S
C1282 C1280 1.394 . S
C1282 C1283 1.369 . S
C1282 C1286 1.531 . S
C1283 C1282 1.369 . S
C1283 C1284 1.410 . S
C1283 C1291 1.503 . S
C1284 C1283 1.410 . S
C1284 C1285 1.392 . S
C1284 C1287 1.511 . S
C1285 C1281 1.376 . S
C1285 C1284 1.392 . S
C1285 H1297 0.929 . S
C1286 C1282 1.531 . S
C1286 H1298 0.960 . S
C1286 H1299 0.962 . S
C1286 H1300 0.960 . S
C1287 C1284 1.511 . S
C1287 H1301 0.961 . S
C1287 H1302 0.961 . S
C1287 H1303 0.961 . S
C1288 C1289 1.370 . S
C1288 C1290 1.363 . S
C1288 H1304 0.931 . S
C1289 C1288 1.370 . S
C1289 C1293 1.408 . S
C1290 C1288 1.363 . S
C1290 C1291 1.370 . S
C1290 C1294 1.524 . S
C1291 C1283 1.503 . S
C1291 C1290 1.370 . S
C1291 C1292 1.403 . S
C1292 C1291 1.403 . S
C1292 C1293 1.404 . S
C1292 C1295 1.539 . S
C1293 C1289 1.408 . S
C1293 C1292 1.404 . S
C1293 H1305 0.930 . S
C1294 C1290 1.524 . S
C1294 H1306 0.956 . S
C1294 H1307 0.961 . S
C1294 H1308 0.961 . S
C1295 C1292 1.539 . S
C1295 H1309 0.958 . S
C1295 H1310 0.961 . S
C1295 H1311 0.960 . S
H1296 C1280 0.931 . S
H1297 C1285 0.929 . S
H1298 C1286 0.960 . S
H1299 C1286 0.962 . S
H1300 C1286 0.960 . S
H1301 C1287 0.961 . S
H1302 C1287 0.961 . S
H1303 C1287 0.961 . S
H1304 C1288 0.931 . S
H1305 C1293 0.930 . S
H1306 C1294 0.956 . S
H1307 C1294 0.961 . S
H1308 C1294 0.961 . S
H1309 C1295 0.958 . S
H1310 C1295 0.961 . S
H1311 C1295 0.960 . S
C1312 C1313 1.391 . S
C1312 C1314 1.394 . S
C1312 H1328 0.931 . S
C1313 C1312 1.391 . S
C1313 C1317 1.376 1_655 S
C1314 C1312 1.394 . S
C1314 C1315 1.369 . S
C1314 C1318 1.531 . S
C1315 C1314 1.369 . S
C1315 C1316 1.410 1_655 S
C1315 C1323 1.503 . S
C1316 C1315 1.410 1_455 S
C1316 C1317 1.392 . S
C1316 C1319 1.511 . S
C1317 C1313 1.376 1_455 S
C1317 C1316 1.392 . S
C1317 H1329 0.929 . S
C1318 C1314 1.531 . S
C1318 H1330 0.960 . S
C1318 H1331 0.962 . S
C1318 H1332 0.960 . S
C1319 C1316 1.511 . S
C1319 H1333 0.961 . S
C1319 H1334 0.961 . S
C1319 H1335 0.961 . S
C1320 C1321 1.370 . S
C1320 C1322 1.363 . S
C1320 H1336 0.931 . S
C1321 C1320 1.370 . S
C1321 C1325 1.408 1_455 S
C1322 C1320 1.363 . S
C1322 C1323 1.370 1_455 S
C1322 C1326 1.524 . S
C1323 C1315 1.503 . S
C1323 C1322 1.370 1_655 S
C1323 C1324 1.403 . S
C1324 C1323 1.403 . S
C1324 C1325 1.404 . S
C1324 C1327 1.539 . S
C1325 C1321 1.408 1_655 S
C1325 C1324 1.404 . S
C1325 H1337 0.930 . S
C1326 C1322 1.524 . S
C1326 H1338 0.956 . S
C1326 H1339 0.961 . S
C1326 H1340 0.961 . S
C1327 C1324 1.539 . S
C1327 H1341 0.958 . S
C1327 H1342 0.961 . S
C1327 H1343 0.960 . S
H1328 C1312 0.931 . S
H1329 C1317 0.929 . S
H1330 C1318 0.960 . S
H1331 C1318 0.962 . S
H1332 C1318 0.960 . S
H1333 C1319 0.961 . S
H1334 C1319 0.961 . S
H1335 C1319 0.961 . S
H1336 C1320 0.931 . S
H1337 C1325 0.930 . S
H1338 C1326 0.956 . S
H1339 C1326 0.961 . S
H1340 C1326 0.961 . S
H1341 C1327 0.958 . S
H1342 C1327 0.961 . S
H1343 C1327 0.960 . S
C1344 C1345 1.391 1_655 S
C1344 C1346 1.394 . S
C1344 H1360 0.931 . S
C1345 C1344 1.391 1_455 S
C1345 C1349 1.376 . S
C1346 C1344 1.394 . S
C1346 C1347 1.369 1_655 S
C1346 C1350 1.531 . S
C1347 C1346 1.369 1_455 S
C1347 C1348 1.410 . S
C1347 C1355 1.516 1_455 S
C1348 C1347 1.410 . S
C1348 C1349 1.392 . S
C1348 C1351 1.511 . S
C1349 C1345 1.376 . S
C1349 C1348 1.392 . S
C1349 H1361 0.929 . S
C1350 C1346 1.531 . S
C1350 H1362 0.960 . S
C1350 H1363 0.962 . S
C1350 H1364 0.960 . S
C1351 C1348 1.511 . S
C1351 H1365 0.961 . S
C1351 H1366 0.961 . S
C1351 H1367 0.961 . S
C1352 C1353 1.370 . S
C1352 C1354 1.363 . S
C1352 H1368 0.931 . S
C1353 C1352 1.370 . S
C1353 C1357 1.407 1_655 S
C1354 C1352 1.363 . S
C1354 C1355 1.372 . S
C1354 C1358 1.524 . S
C1355 C1347 1.516 1_655 S
C1355 C1354 1.372 . S
C1355 C1356 1.390 1_655 S
C1356 C1355 1.390 1_455 S
C1356 C1357 1.388 . S
C1356 C1359 1.539 . S
C1357 C1353 1.407 1_455 S
C1357 C1356 1.388 . S
C1357 H1369 0.948 . S
C1358 C1354 1.524 . S
C1358 H1370 0.956 . S
C1358 H1371 0.961 1_655 S
C1358 H1372 0.961 . S
C1359 C1356 1.539 . S
C1359 H1373 0.922 1_455 S
C1359 H1374 0.961 . S
C1359 H1375 0.960 . S
H1360 C1344 0.931 . S
H1361 C1349 0.929 . S
H1362 C1350 0.960 . S
H1363 C1350 0.962 . S
H1364 C1350 0.960 . S
H1365 C1351 0.961 . S
H1366 C1351 0.961 . S
H1367 C1351 0.961 . S
H1368 C1352 0.931 . S
H1369 C1357 0.948 . S
H1370 C1358 0.956 . S
H1371 C1358 0.961 1_455 S
H1372 C1358 0.961 . S
H1373 C1359 0.922 1_655 S
H1374 C1359 0.961 . S
H1375 C1359 0.960 . S
C1376 C1377 1.391 . S
C1376 C1378 1.394 . S
C1376 H1392 0.931 . S
C1377 C1376 1.391 . S
C1377 C1381 1.376 1_565 S
C1378 C1376 1.394 . S
C1378 C1379 1.369 1_565 S
C1378 C1382 1.531 . S
C1379 C1378 1.369 1_545 S
C1379 C1380 1.410 . S
C1379 C1387 1.503 . S
C1380 C1379 1.410 . S
C1380 C1381 1.392 . S
C1380 C1383 1.511 . S
C1381 C1377 1.376 1_545 S
C1381 C1380 1.392 . S
C1381 H1393 0.929 . S
C1382 C1378 1.531 . S
C1382 H1394 0.960 . S
C1382 H1395 0.962 . S
C1382 H1396 0.960 . S
C1383 C1380 1.511 . S
C1383 H1397 0.961 . S
C1383 H1398 0.961 . S
C1383 H1399 0.961 . S
C1384 C1385 1.370 1_565 S
C1384 C1386 1.363 . S
C1384 H1400 0.931 . S
C1385 C1384 1.370 1_545 S
C1385 C1389 1.408 . S
C1386 C1384 1.363 . S
C1386 C1387 1.370 1_565 S
C1386 C1390 1.524 . S
C1387 C1379 1.503 . S
C1387 C1386 1.370 1_545 S
C1387 C1388 1.403 . S
C1388 C1387 1.403 . S
C1388 C1389 1.404 . S
C1388 C1391 1.539 . S
C1389 C1385 1.408 . S
C1389 C1388 1.404 . S
C1389 H1401 0.930 . S
C1390 C1386 1.524 . S
C1390 H1402 0.956 . S
C1390 H1403 0.961 . S
C1390 H1404 0.961 . S
C1391 C1388 1.539 . S
C1391 H1405 0.958 . S
C1391 H1406 0.961 . S
C1391 H1407 0.960 . S
H1392 C1376 0.931 . S
H1393 C1381 0.929 . S
H1394 C1382 0.960 . S
H1395 C1382 0.962 . S
H1396 C1382 0.960 . S
H1397 C1383 0.961 . S
H1398 C1383 0.961 . S
H1399 C1383 0.961 . S
H1400 C1384 0.931 . S
H1401 C1389 0.930 . S
H1402 C1390 0.956 . S
H1403 C1390 0.961 . S
H1404 C1390 0.961 . S
H1405 C1391 0.958 . S
H1406 C1391 0.961 . S
H1407 C1391 0.960 . S
C1408 C1409 1.391 . S
C1408 C1410 1.394 . S
C1408 H1424 0.931 . S
C1409 C1408 1.391 . S
C1409 C1413 1.376 . S
C1410 C1408 1.394 . S
C1410 C1411 1.369 . S
C1410 C1414 1.531 . S
C1411 C1410 1.369 . S
C1411 C1412 1.410 . S
C1411 C1419 1.503 . S
C1412 C1411 1.410 . S
C1412 C1413 1.392 . S
C1412 C1415 1.511 . S
C1413 C1409 1.376 . S
C1413 C1412 1.392 . S
C1413 H1425 0.929 . S
C1414 C1410 1.531 . S
C1414 H1426 0.960 . S
C1414 H1427 0.962 . S
C1414 H1428 0.960 . S
C1415 C1412 1.511 . S
C1415 H1429 0.961 . S
C1415 H1430 0.961 . S
C1415 H1431 0.961 . S
C1416 C1417 1.370 . S
C1416 C1418 1.363 . S
C1416 H1432 0.931 . S
C1417 C1416 1.370 . S
C1417 C1421 1.408 . S
C1418 C1416 1.363 . S
C1418 C1419 1.370 . S
C1418 C1422 1.524 . S
C1419 C1411 1.503 . S
C1419 C1418 1.370 . S
C1419 C1420 1.403 . S
C1420 C1419 1.403 . S
C1420 C1421 1.404 . S
C1420 C1423 1.539 . S
C1421 C1417 1.408 . S
C1421 C1420 1.404 . S
C1421 H1433 0.930 . S
C1422 C1418 1.524 . S
C1422 H1434 0.956 . S
C1422 H1435 0.961 . S
C1422 H1436 0.961 . S
C1423 C1420 1.539 . S
C1423 H1437 0.958 . S
C1423 H1438 0.961 . S
C1423 H1439 0.960 . S
H1424 C1408 0.931 . S
H1425 C1413 0.929 . S
H1426 C1414 0.960 . S
H1427 C1414 0.962 . S
H1428 C1414 0.960 . S
H1429 C1415 0.961 . S
H1430 C1415 0.961 . S
H1431 C1415 0.961 . S
H1432 C1416 0.931 . S
H1433 C1421 0.930 . S
H1434 C1422 0.956 . S
H1435 C1422 0.961 . S
H1436 C1422 0.961 . S
H1437 C1423 0.958 . S
H1438 C1423 0.961 . S
H1439 C1423 0.960 . S
C1440 C1441 1.391 . S
C1440 C1442 1.394 . S
C1440 H1456 0.931 . S
C1441 C1440 1.391 . S
C1441 C1445 1.376 . S
C1442 C1440 1.394 . S
C1442 C1443 1.369 . S
C1442 C1446 1.531 . S
C1443 C1442 1.369 . S
C1443 C1444 1.410 . S
C1443 C1451 1.503 . S
C1444 C1443 1.410 . S
C1444 C1445 1.392 . S
C1444 C1447 1.511 . S
C1445 C1441 1.376 . S
C1445 C1444 1.392 . S
C1445 H1457 0.929 . S
C1446 C1442 1.531 . S
C1446 H1458 0.960 . S
C1446 H1459 0.962 . S
C1446 H1460 0.960 . S
C1447 C1444 1.511 . S
C1447 H1461 0.961 . S
C1447 H1462 0.961 . S
C1447 H1463 0.961 . S
C1448 C1449 1.370 . S
C1448 C1450 1.363 . S
C1448 H1464 0.931 . S
C1449 C1448 1.370 . S
C1449 C1453 1.408 . S
C1450 C1448 1.363 . S
C1450 C1451 1.370 . S
C1450 C1454 1.524 . S
C1451 C1443 1.503 . S
C1451 C1450 1.370 . S
C1451 C1452 1.403 . S
C1452 C1451 1.403 . S
C1452 C1453 1.404 . S
C1452 C1455 1.539 . S
C1453 C1449 1.408 . S
C1453 C1452 1.404 . S
C1453 H1465 0.930 . S
C1454 C1450 1.524 . S
C1454 H1466 0.956 . S
C1454 H1467 0.961 . S
C1454 H1468 0.961 . S
C1455 C1452 1.539 . S
C1455 H1469 0.958 . S
C1455 H1470 0.961 . S
C1455 H1471 0.960 . S
H1456 C1440 0.931 . S
H1457 C1445 0.929 . S
H1458 C1446 0.960 . S
H1459 C1446 0.962 . S
H1460 C1446 0.960 . S
H1461 C1447 0.961 . S
H1462 C1447 0.961 . S
H1463 C1447 0.961 . S
H1464 C1448 0.931 . S
H1465 C1453 0.930 . S
H1466 C1454 0.956 . S
H1467 C1454 0.961 . S
H1468 C1454 0.961 . S
H1469 C1455 0.958 . S
H1470 C1455 0.961 . S
H1471 C1455 0.960 . S
C1472 C1473 1.391 . S
C1472 C1474 1.394 . S
C1472 H1488 0.931 . S
C1473 C1472 1.391 . S
C1473 C1477 1.376 . S
C1474 C1472 1.394 . S
C1474 C1475 1.369 . S
C1474 C1478 1.531 . S
C1475 C1474 1.369 . S
C1475 C1476 1.410 . S
C1475 C1483 1.503 . S
C1476 C1475 1.410 . S
C1476 C1477 1.392 . S
C1476 C1479 1.511 . S
C1477 C1473 1.376 . S
C1477 C1476 1.392 . S
C1477 H1489 0.929 . S
C1478 C1474 1.531 . S
C1478 H1490 0.960 . S
C1478 H1491 0.962 . S
C1478 H1492 0.960 . S
C1479 C1476 1.511 . S
C1479 H1493 0.961 . S
C1479 H1494 0.961 . S
C1479 H1495 0.961 . S
C1480 C1481 1.370 . S
C1480 C1482 1.363 . S
C1480 H1496 0.931 . S
C1481 C1480 1.370 . S
C1481 C1485 1.408 . S
C1482 C1480 1.363 . S
C1482 C1483 1.370 . S
C1482 C1486 1.524 . S
C1483 C1475 1.503 . S
C1483 C1482 1.370 . S
C1483 C1484 1.403 . S
C1484 C1483 1.403 . S
C1484 C1485 1.404 . S
C1484 C1487 1.539 . S
C1485 C1481 1.408 . S
C1485 C1484 1.404 . S
C1485 H1497 0.930 . S
C1486 C1482 1.524 . S
C1486 H1498 0.956 . S
C1486 H1499 0.961 . S
C1486 H1500 0.961 . S
C1487 C1484 1.539 . S
C1487 H1501 0.958 . S
C1487 H1502 0.961 . S
C1487 H1503 0.960 . S
H1488 C1472 0.931 . S
H1489 C1477 0.929 . S
H1490 C1478 0.960 . S
H1491 C1478 0.962 . S
H1492 C1478 0.960 . S
H1493 C1479 0.961 . S
H1494 C1479 0.961 . S
H1495 C1479 0.961 . S
H1496 C1480 0.931 . S
H1497 C1485 0.930 . S
H1498 C1486 0.956 . S
H1499 C1486 0.961 . S
H1500 C1486 0.961 . S
H1501 C1487 0.958 . S
H1502 C1487 0.961 . S
H1503 C1487 0.960 . S
C1504 C1505 1.391 . S
C1504 C1506 1.394 . S
C1504 H1520 0.931 . S
C1505 C1504 1.391 . S
C1505 C1509 1.376 . S
C1506 C1504 1.394 . S
C1506 C1507 1.369 . S
C1506 C1510 1.533 . S
C1507 C1506 1.369 . S
C1507 C1508 1.410 . S
C1507 C1515 1.503 1_554 S
C1508 C1507 1.410 . S
C1508 C1509 1.392 . S
C1508 C1511 1.511 . S
C1509 C1505 1.376 . S
C1509 C1508 1.392 . S
C1509 H1521 0.929 . S
C1510 C1506 1.533 . S
C1510 H1522 0.959 1_554 S
C1510 H1523 0.958 1_554 S
C1510 H1524 0.963 . S
C1511 C1508 1.511 . S
C1511 H1525 0.961 . S
C1511 H1526 0.961 . S
C1511 H1527 0.961 . S
C1512 C1513 1.370 . S
C1512 C1514 1.363 . S
C1512 H1528 0.931 . S
C1513 C1512 1.370 . S
C1513 C1517 1.408 . S
C1514 C1512 1.363 . S
C1514 C1515 1.370 . S
C1514 C1518 1.524 . S
C1515 C1507 1.503 1_556 S
C1515 C1514 1.370 . S
C1515 C1516 1.403 . S
C1516 C1515 1.403 . S
C1516 C1517 1.404 . S
C1516 C1519 1.539 1_556 S
C1517 C1513 1.408 . S
C1517 C1516 1.404 . S
C1517 H1529 0.930 . S
C1518 C1514 1.524 . S
C1518 H1530 0.956 . S
C1518 H1531 0.961 . S
C1518 H1532 0.961 . S
C1519 C1516 1.539 1_554 S
C1519 H1533 0.958 . S
C1519 H1534 0.961 . S
C1519 H1535 0.960 . S
H1520 C1504 0.931 . S
H1521 C1509 0.929 . S
H1522 C1510 0.959 1_556 S
H1523 C1510 0.958 1_556 S
H1524 C1510 0.963 . S
H1525 C1511 0.961 . S
H1526 C1511 0.961 . S
H1527 C1511 0.961 . S
H1528 C1512 0.931 . S
H1529 C1517 0.930 . S
H1530 C1518 0.956 . S
H1531 C1518 0.961 . S
H1532 C1518 0.961 . S
H1533 C1519 0.958 . S
H1534 C1519 0.961 . S
H1535 C1519 0.960 . S
C1536 C1537 1.391 . S
C1536 C1538 1.394 . S
C1536 H1552 0.931 . S
C1537 C1536 1.391 . S
C1537 C1541 1.376 . S
C1538 C1536 1.394 . S
C1538 C1539 1.369 . S
C1538 C1542 1.531 . S
C1539 C1538 1.369 . S
C1539 C1540 1.410 . S
C1539 C1547 1.503 . S
C1540 C1539 1.410 . S
C1540 C1541 1.392 . S
C1540 C1543 1.511 . S
C1541 C1537 1.376 . S
C1541 C1540 1.392 . S
C1541 H1553 0.929 . S
C1542 C1538 1.531 . S
C1542 H1554 0.960 . S
C1542 H1555 0.962 . S
C1542 H1556 0.960 . S
C1543 C1540 1.511 . S
C1543 H1557 0.961 . S
C1543 H1558 0.961 . S
C1543 H1559 0.961 . S
C1544 C1545 1.370 . S
C1544 C1546 1.363 . S
C1544 H1560 0.931 . S
C1545 C1544 1.370 . S
C1545 C1549 1.408 . S
C1546 C1544 1.363 . S
C1546 C1547 1.370 . S
C1546 C1550 1.524 . S
C1547 C1539 1.503 . S
C1547 C1546 1.370 . S
C1547 C1548 1.403 . S
C1548 C1547 1.403 . S
C1548 C1549 1.404 . S
C1548 C1551 1.539 . S
C1549 C1545 1.408 . S
C1549 C1548 1.404 . S
C1549 H1561 0.930 . S
C1550 C1546 1.524 . S
C1550 H1562 0.956 . S
C1550 H1563 0.961 . S
C1550 H1564 0.961 . S
C1551 C1548 1.539 . S
C1551 H1565 0.958 . S
C1551 H1566 0.961 . S
C1551 H1567 0.960 . S
H1552 C1536 0.931 . S
H1553 C1541 0.929 . S
H1554 C1542 0.960 . S
H1555 C1542 0.962 . S
H1556 C1542 0.960 . S
H1557 C1543 0.961 . S
H1558 C1543 0.961 . S
H1559 C1543 0.961 . S
H1560 C1544 0.931 . S
H1561 C1549 0.930 . S
H1562 C1550 0.956 . S
H1563 C1550 0.961 . S
H1564 C1550 0.961 . S
H1565 C1551 0.958 . S
H1566 C1551 0.961 . S
H1567 C1551 0.960 . S
C1568 C1569 1.391 . S
C1568 C1570 1.394 . S
C1568 H1584 0.931 . S
C1569 C1568 1.391 . S
C1569 C1573 1.376 . S
C1570 C1568 1.394 . S
C1570 C1571 1.369 . S
C1570 C1574 1.531 . S
C1571 C1570 1.369 . S
C1571 C1572 1.410 . S
C1571 C1579 1.503 . S
C1572 C1571 1.410 . S
C1572 C1573 1.392 . S
C1572 C1575 1.511 . S
C1573 C1569 1.376 . S
C1573 C1572 1.392 . S
C1573 H1585 0.929 . S
C1574 C1570 1.531 . S
C1574 H1586 0.960 . S
C1574 H1587 0.962 . S
C1574 H1588 0.960 . S
C1575 C1572 1.511 . S
C1575 H1589 0.961 . S
C1575 H1590 0.961 . S
C1575 H1591 0.961 . S
C1576 C1577 1.370 . S
C1576 C1578 1.363 . S
C1576 H1592 0.931 . S
C1577 C1576 1.370 . S
C1577 C1581 1.408 . S
C1578 C1576 1.363 . S
C1578 C1579 1.370 . S
C1578 C1582 1.524 . S
C1579 C1571 1.503 . S
C1579 C1578 1.370 . S
C1579 C1580 1.403 . S
C1580 C1579 1.403 . S
C1580 C1581 1.404 . S
C1580 C1583 1.539 . S
C1581 C1577 1.408 . S
C1581 C1580 1.404 . S
C1581 H1593 0.930 . S
C1582 C1578 1.524 . S
C1582 H1594 0.956 . S
C1582 H1595 0.961 . S
C1582 H1596 0.961 . S
C1583 C1580 1.539 . S
C1583 H1597 0.958 . S
C1583 H1598 0.961 . S
C1583 H1599 0.960 . S
H1584 C1568 0.931 . S
H1585 C1573 0.929 . S
H1586 C1574 0.960 . S
H1587 C1574 0.962 . S
H1588 C1574 0.960 . S
H1589 C1575 0.961 . S
H1590 C1575 0.961 . S
H1591 C1575 0.961 . S
H1592 C1576 0.931 . S
H1593 C1581 0.930 . S
H1594 C1582 0.956 . S
H1595 C1582 0.961 . S
H1596 C1582 0.961 . S
H1597 C1583 0.958 . S
H1598 C1583 0.961 . S
H1599 C1583 0.960 . S
C1600 C1601 1.391 . S
C1600 C1602 1.394 . S
C1600 H1616 0.931 . S
C1601 C1600 1.391 . S
C1601 C1605 1.376 . S
C1602 C1600 1.394 . S
C1602 C1603 1.369 . S
C1602 C1606 1.531 . S
C1603 C1602 1.369 . S
C1603 C1604 1.410 . S
C1603 C1611 1.503 1_554 S
C1604 C1603 1.410 . S
C1604 C1605 1.392 . S
C1604 C1607 1.511 1_554 S
C1605 C1601 1.376 . S
C1605 C1604 1.392 . S
C1605 H1617 0.929 . S
C1606 C1602 1.531 . S
C1606 H1618 0.960 . S
C1606 H1619 0.962 . S
C1606 H1620 0.960 . S
C1607 C1604 1.511 1_556 S
C1607 H1621 0.961 . S
C1607 H1622 0.961 . S
C1607 H1623 0.961 . S
C1608 C1609 1.370 . S
C1608 C1610 1.363 . S
C1608 H1624 0.931 . S
C1609 C1608 1.370 . S
C1609 C1613 1.408 . S
C1610 C1608 1.363 . S
C1610 C1611 1.370 . S
C1610 C1614 1.524 . S
C1611 C1603 1.503 1_556 S
C1611 C1610 1.370 . S
C1611 C1612 1.403 . S
C1612 C1611 1.403 . S
C1612 C1613 1.404 . S
C1612 C1615 1.539 . S
C1613 C1609 1.408 . S
C1613 C1612 1.404 . S
C1613 H1625 0.930 . S
C1614 C1610 1.524 . S
C1614 H1626 0.956 1_556 S
C1614 H1627 0.961 . S
C1614 H1628 0.961 . S
C1615 C1612 1.539 . S
C1615 H1629 0.967 . S
C1615 H1630 0.961 . S
C1615 H1631 0.960 . S
H1616 C1600 0.931 . S
H1617 C1605 0.929 . S
H1618 C1606 0.960 . S
H1619 C1606 0.962 . S
H1620 C1606 0.960 . S
H1621 C1607 0.961 . S
H1622 C1607 0.961 . S
H1623 C1607 0.961 . S
H1624 C1608 0.931 . S
H1625 C1613 0.930 . S
H1626 C1614 0.956 1_554 S
H1627 C1614 0.961 . S
H1628 C1614 0.961 . S
H1629 C1615 0.967 . S
H1630 C1615 0.961 . S
H1631 C1615 0.960 . S
C1632 C1633 1.391 . S
C1632 C1634 1.394 . S
C1632 H1648 0.931 . S
C1633 C1632 1.391 . S
C1633 C1637 1.376 . S
C1634 C1632 1.394 . S
C1634 C1635 1.369 . S
C1634 C1638 1.531 . S
C1635 C1634 1.369 . S
C1635 C1636 1.410 . S
C1635 C1643 1.503 1_545 S
C1636 C1635 1.410 . S
C1636 C1637 1.392 . S
C1636 C1639 1.511 1_545 S
C1637 C1633 1.376 . S
C1637 C1636 1.392 . S
C1637 H1649 0.929 . S
C1638 C1634 1.531 . S
C1638 H1650 0.960 . S
C1638 H1651 0.962 . S
C1638 H1652 0.960 . S
C1639 C1636 1.511 1_565 S
C1639 H1653 0.961 . S
C1639 H1654 0.961 . S
C1639 H1655 0.961 1_565 S
C1640 C1641 1.370 . S
C1640 C1642 1.363 . S
C1640 H1656 0.931 . S
C1641 C1640 1.370 . S
C1641 C1645 1.408 . S
C1642 C1640 1.363 . S
C1642 C1643 1.370 . S
C1642 C1646 1.524 . S
C1643 C1635 1.503 1_565 S
C1643 C1642 1.370 . S
C1643 C1644 1.403 1_565 S
C1644 C1643 1.403 1_545 S
C1644 C1645 1.404 1_545 S
C1644 C1647 1.539 . S
C1645 C1641 1.408 . S
C1645 C1644 1.404 1_565 S
C1645 H1657 0.930 1_565 S
C1646 C1642 1.524 . S
C1646 H1658 0.956 . S
C1646 H1659 0.961 . S
C1646 H1660 0.961 . S
C1647 C1644 1.539 . S
C1647 H1661 0.958 . S
C1647 H1662 0.961 . S
C1647 H1663 0.960 . S
H1648 C1632 0.931 . S
H1649 C1637 0.929 . S
H1650 C1638 0.960 . S
H1651 C1638 0.962 . S
H1652 C1638 0.960 . S
H1653 C1639 0.961 . S
H1654 C1639 0.961 . S
H1655 C1639 0.961 1_545 S
H1656 C1640 0.931 . S
H1657 C1645 0.930 1_545 S
H1658 C1646 0.956 . S
H1659 C1646 0.961 . S
H1660 C1646 0.961 . S
H1661 C1647 0.958 . S
H1662 C1647 0.961 . S
H1663 C1647 0.960 . S
C1664 C1665 1.391 . S
C1664 C1666 1.394 . S
C1664 H1680 0.931 . S
C1665 C1664 1.391 . S
C1665 C1669 1.376 . S
C1666 C1664 1.394 . S
C1666 C1667 1.369 . S
C1666 C1670 1.531 . S
C1667 C1666 1.369 . S
C1667 C1668 1.410 . S
C1667 C1675 1.503 . S
C1668 C1667 1.410 . S
C1668 C1669 1.392 . S
C1668 C1671 1.511 . S
C1669 C1665 1.376 . S
C1669 C1668 1.392 . S
C1669 H1681 0.929 . S
C1670 C1666 1.531 . S
C1670 H1682 0.960 . S
C1670 H1683 0.962 . S
C1670 H1684 0.960 . S
C1671 C1668 1.511 . S
C1671 H1685 0.961 . S
C1671 H1686 0.961 . S
C1671 H1687 0.961 . S
C1672 C1673 1.370 . S
C1672 C1674 1.363 . S
C1672 H1688 0.931 . S
C1673 C1672 1.370 . S
C1673 C1677 1.408 . S
C1674 C1672 1.363 . S
C1674 C1675 1.370 . S
C1674 C1678 1.524 . S
C1675 C1667 1.503 . S
C1675 C1674 1.370 . S
C1675 C1676 1.403 . S
C1676 C1675 1.403 . S
C1676 C1677 1.404 . S
C1676 C1679 1.539 . S
C1677 C1673 1.408 . S
C1677 C1676 1.404 . S
C1677 H1689 0.930 . S
C1678 C1674 1.524 . S
C1678 H1690 0.956 . S
C1678 H1691 0.961 . S
C1678 H1692 0.961 . S
C1679 C1676 1.539 . S
C1679 H1693 0.958 . S
C1679 H1694 0.961 . S
C1679 H1695 0.960 . S
H1680 C1664 0.931 . S
H1681 C1669 0.929 . S
H1682 C1670 0.960 . S
H1683 C1670 0.962 . S
H1684 C1670 0.960 . S
H1685 C1671 0.961 . S
H1686 C1671 0.961 . S
H1687 C1671 0.961 . S
H1688 C1672 0.931 . S
H1689 C1677 0.930 . S
H1690 C1678 0.956 . S
H1691 C1678 0.961 . S
H1692 C1678 0.961 . S
H1693 C1679 0.958 . S
H1694 C1679 0.961 . S
H1695 C1679 0.960 . S
C1696 C1697 1.391 . S
C1696 C1698 1.394 . S
C1696 H1712 0.931 . S
C1697 C1696 1.391 . S
C1697 C1701 1.376 . S
C1698 C1696 1.394 . S
C1698 C1699 1.369 . S
C1698 C1702 1.531 . S
C1699 C1698 1.369 . S
C1699 C1700 1.410 1_455 S
C1699 C1707 1.503 1_455 S
C1700 C1699 1.410 1_655 S
C1700 C1701 1.392 1_655 S
C1700 C1703 1.511 . S
C1701 C1697 1.376 . S
C1701 C1700 1.392 1_455 S
C1701 H1713 0.929 1_455 S
C1702 C1698 1.531 . S
C1702 H1714 0.960 . S
C1702 H1715 0.962 . S
C1702 H1716 0.960 . S
C1703 C1700 1.511 . S
C1703 H1717 0.961 . S
C1703 H1718 0.961 . S
C1703 H1719 0.961 . S
C1704 C1705 1.370 . S
C1704 C1706 1.363 . S
C1704 H1720 0.931 . S
C1705 C1704 1.370 . S
C1705 C1709 1.408 . S
C1706 C1704 1.363 . S
C1706 C1707 1.370 . S
C1706 C1710 1.524 1_655 S
C1707 C1699 1.503 1_655 S
C1707 C1706 1.370 . S
C1707 C1708 1.403 . S
C1708 C1707 1.403 . S
C1708 C1709 1.404 . S
C1708 C1711 1.539 . S
C1709 C1705 1.408 . S
C1709 C1708 1.404 . S
C1709 H1721 0.930 . S
C1710 C1706 1.524 1_455 S
C1710 H1722 0.956 . S
C1710 H1723 0.961 . S
C1710 H1724 0.961 . S
C1711 C1708 1.539 . S
C1711 H1725 0.958 . S
C1711 H1726 0.961 . S
C1711 H1727 0.960 . S
H1712 C1696 0.931 . S
H1713 C1701 0.929 1_655 S
H1714 C1702 0.960 . S
H1715 C1702 0.962 . S
H1716 C1702 0.960 . S
H1717 C1703 0.961 . S
H1718 C1703 0.961 . S
H1719 C1703 0.961 . S
H1720 C1704 0.931 . S
H1721 C1709 0.930 . S
H1722 C1710 0.956 . S
H1723 C1710 0.961 . S
H1724 C1710 0.961 . S
H1725 C1711 0.958 . S
H1726 C1711 0.961 . S
H1727 C1711 0.960 . S
C1728 C1729 1.391 . S
C1728 C1730 1.394 1_565 S
C1728 H1744 0.931 . S
C1729 C1728 1.391 . S
C1729 C1733 1.376 . S
C1730 C1728 1.394 1_545 S
C1730 C1731 1.369 1_545 S
C1730 C1734 1.531 . S
C1731 C1730 1.369 1_565 S
C1731 C1732 1.410 . S
C1731 C1739 1.503 1_565 S
C1732 C1731 1.410 . S
C1732 C1733 1.392 . S
C1732 C1735 1.511 . S
C1733 C1729 1.376 . S
C1733 C1732 1.392 . S
C1733 H1745 0.929 . S
C1734 C1730 1.531 . S
C1734 H1746 0.960 . S
C1734 H1747 0.962 . S
C1734 H1748 0.960 . S
C1735 C1732 1.511 . S
C1735 H1749 0.961 . S
C1735 H1750 0.961 . S
C1735 H1751 0.961 . S
C1736 C1737 1.370 . S
C1736 C1738 1.363 1_545 S
C1736 H1752 0.931 . S
C1737 C1736 1.370 . S
C1737 C1741 1.408 . S
C1738 C1736 1.363 1_565 S
C1738 C1739 1.370 1_565 S
C1738 C1742 1.524 . S
C1739 C1731 1.503 1_545 S
C1739 C1738 1.370 1_545 S
C1739 C1740 1.403 . S
C1740 C1739 1.403 . S
C1740 C1741 1.404 . S
C1740 C1743 1.539 . S
C1741 C1737 1.408 . S
C1741 C1740 1.404 . S
C1741 H1753 0.930 . S
C1742 C1738 1.524 . S
C1742 H1754 0.956 . S
C1742 H1755 0.961 . S
C1742 H1756 0.961 . S
C1743 C1740 1.539 . S
C1743 H1757 0.958 . S
C1743 H1758 0.961 . S
C1743 H1759 0.960 . S
H1744 C1728 0.931 . S
H1745 C1733 0.929 . S
H1746 C1734 0.960 . S
H1747 C1734 0.962 . S
H1748 C1734 0.960 . S
H1749 C1735 0.961 . S
H1750 C1735 0.961 . S
H1751 C1735 0.961 . S
H1752 C1736 0.931 . S
H1753 C1741 0.930 . S
H1754 C1742 0.956 . S
H1755 C1742 0.961 . S
H1756 C1742 0.961 . S
H1757 C1743 0.958 . S
H1758 C1743 0.961 . S
H1759 C1743 0.960 . S
C1760 C1761 1.391 . S
C1760 C1762 1.394 . S
C1760 H1776 0.931 . S
C1761 C1760 1.391 . S
C1761 C1765 1.376 . S
C1762 C1760 1.394 . S
C1762 C1763 1.369 . S
C1762 C1766 1.531 . S
C1763 C1762 1.369 . S
C1763 C1764 1.410 . S
C1763 C1771 1.503 . S
C1764 C1763 1.410 . S
C1764 C1765 1.392 . S
C1764 C1767 1.511 . S
C1765 C1761 1.376 . S
C1765 C1764 1.392 . S
C1765 H1777 0.929 . S
C1766 C1762 1.531 . S
C1766 H1778 0.960 . S
C1766 H1779 0.962 . S
C1766 H1780 0.960 . S
C1767 C1764 1.511 . S
C1767 H1781 0.961 . S
C1767 H1782 0.961 . S
C1767 H1783 0.961 . S
C1768 C1769 1.370 . S
C1768 C1770 1.363 . S
C1768 H1784 0.931 . S
C1769 C1768 1.370 . S
C1769 C1773 1.408 . S
C1770 C1768 1.363 . S
C1770 C1771 1.370 . S
C1770 C1774 1.524 . S
C1771 C1763 1.503 . S
C1771 C1770 1.370 . S
C1771 C1772 1.403 . S
C1772 C1771 1.403 . S
C1772 C1773 1.404 . S
C1772 C1775 1.539 . S
C1773 C1769 1.408 . S
C1773 C1772 1.404 . S
C1773 H1785 0.930 . S
C1774 C1770 1.524 . S
C1774 H1786 0.956 . S
C1774 H1787 0.961 . S
C1774 H1788 0.961 . S
C1775 C1772 1.539 . S
C1775 H1789 0.958 . S
C1775 H1790 0.961 . S
C1775 H1791 0.960 . S
H1776 C1760 0.931 . S
H1777 C1765 0.929 . S
H1778 C1766 0.960 . S
H1779 C1766 0.962 . S
H1780 C1766 0.960 . S
H1781 C1767 0.961 . S
H1782 C1767 0.961 . S
H1783 C1767 0.961 . S
H1784 C1768 0.931 . S
H1785 C1773 0.930 . S
H1786 C1774 0.956 . S
H1787 C1774 0.961 . S
H1788 C1774 0.961 . S
H1789 C1775 0.958 . S
H1790 C1775 0.961 . S
H1791 C1775 0.960 . S
C1792 C1793 1.391 . S
C1792 C1794 1.394 . S
C1792 H1808 0.931 . S
C1793 C1792 1.391 . S
C1793 C1797 1.376 . S
C1794 C1792 1.394 . S
C1794 C1795 1.369 . S
C1794 C1798 1.531 . S
C1795 C1794 1.369 . S
C1795 C1796 1.410 1_655 S
C1795 C1803 1.503 1_655 S
C1796 C1795 1.410 1_455 S
C1796 C1797 1.392 1_455 S
C1796 C1799 1.511 . S
C1797 C1793 1.376 . S
C1797 C1796 1.392 1_655 S
C1797 H1809 0.929 . S
C1798 C1794 1.531 . S
C1798 H1810 0.960 . S
C1798 H1811 0.962 . S
C1798 H1812 0.960 . S
C1799 C1796 1.511 . S
C1799 H1813 0.961 . S
C1799 H1814 0.961 . S
C1799 H1815 0.961 . S
C1800 C1801 1.370 . S
C1800 C1802 1.363 1_455 S
C1800 H1816 0.931 1_455 S
C1801 C1800 1.370 . S
C1801 C1805 1.408 . S
C1802 C1800 1.363 1_655 S
C1802 C1803 1.370 1_655 S
C1802 C1806 1.524 . S
C1803 C1795 1.503 1_455 S
C1803 C1802 1.370 1_455 S
C1803 C1804 1.403 . S
C1804 C1803 1.403 . S
C1804 C1805 1.404 . S
C1804 C1807 1.539 . S
C1805 C1801 1.408 . S
C1805 C1804 1.404 . S
C1805 H1817 0.930 . S
C1806 C1802 1.524 . S
C1806 H1818 0.956 . S
C1806 H1819 0.961 . S
C1806 H1820 0.961 . S
C1807 C1804 1.539 . S
C1807 H1821 0.958 . S
C1807 H1822 0.961 . S
C1807 H1823 0.960 . S
H1808 C1792 0.931 . S
H1809 C1797 0.929 . S
H1810 C1798 0.960 . S
H1811 C1798 0.962 . S
H1812 C1798 0.960 . S
H1813 C1799 0.961 . S
H1814 C1799 0.961 . S
H1815 C1799 0.961 . S
H1816 C1800 0.931 1_655 S
H1817 C1805 0.930 . S
H1818 C1806 0.956 . S
H1819 C1806 0.961 . S
H1820 C1806 0.961 . S
H1821 C1807 0.958 . S
H1822 C1807 0.961 . S
H1823 C1807 0.960 . S
C1057 C57 1.928 . S
C1065 C733 1.930 . S
C1089 C145 1.937 . S
C1097 C812 1.928 . S
C1121 C900 1.873 . S
C1129 C233 1.873 . S
C1153 C988 1.934 . S
C1161 C321 1.930 . S
C1185 C557 1.935 . S
C1193 C401 1.927 . S
C1217 C645 1.868 . S
C1225 C497 1.876 . S
C1249 C20 1.546 . S
C1257 C284 1.545 . S
C1281 C381 1.533 . S
C1289 C108 1.530 . S
C1313 C460 1.490 . S
C1321 C196 1.474 . S
C1345 C577 1.517 . S
C1353 C849 1.532 . S
C1377 C937 1.478 . S
C1385 C665 1.477 . S
C1409 C753 1.536 . S
C1417 C1025 1.529 . S
C1441 C548 1.494 . S
C1449 C49 1.436 . S
C1473 C137 1.364 . S
C1481 C636 1.432 . S
C1505 C724 1.455 . S
C1513 C225 1.395 . S
C1537 C821 1.395 . S
C1545 C313 1.476 . S
C1569 C409 1.441 . S
C1577 C909 1.400 . S
C1601 C997 1.410 . S
C1609 C489 1.421 . S
C1633 C29 0.860 . S
C1641 C673 0.773 . S
C1665 C761 0.785 . S
C1673 C117 0.782 . S
C1697 C841 0.766 . S
C1705 C205 0.816 . S
C1729 C293 0.735 . S
C1737 C929 0.812 . S
C1761 C1017 0.811 . S
C1769 C372 0.752 . S
C1793 C585 0.739 . S
C1801 C469 0.822 . S
