# Generated by pormake.
# Topology bsn, (6)-cn, num edge types: 1
# Building blocks:
#     Node 0, Type 0, BuildingBlock: BETDEL_clean_sbu_0, # of connection points: 6
#     Node 1, Type 0, BuildingBlock: BETDEL_clean_sbu_0, # of connection points: 6
#     Node 2, Type 0, BuildingBlock: BETDEL_clean_sbu_0, # of connection points: 6
#     Node 3, Type 0, BuildingBlock: BETDEL_clean_sbu_0, # of connection points: 6
#     Edge 4, Type (0, 0), BuildingBlock: XIVTED_clean_linker_0, # of connection points: 2
#     Edge 5, Type (0, 0), BuildingBlock: XIVTED_clean_linker_0, # of connection points: 2
#     Edge 6, Type (0, 0), BuildingBlock: XIVTED_clean_linker_0, # of connection points: 2
#     Edge 7, Type (0, 0), BuildingBlock: XIVTED_clean_linker_0, # of connection points: 2
#     Edge 8, Type (0, 0), BuildingBlock: XIVTED_clean_linker_0, # of connection points: 2
#     Edge 9, Type (0, 0), BuildingBlock: XIVTED_clean_linker_0, # of connection points: 2
#     Edge 10, Type (0, 0), BuildingBlock: XIVTED_clean_linker_0, # of connection points: 2
#     Edge 11, Type (0, 0), BuildingBlock: XIVTED_clean_linker_0, # of connection points: 2
#     Edge 12, Type (0, 0), BuildingBlock: XIVTED_clean_linker_0, # of connection points: 2
#     Edge 13, Type (0, 0), BuildingBlock: XIVTED_clean_linker_0, # of connection points: 2
#     Edge 14, Type (0, 0), BuildingBlock: XIVTED_clean_linker_0, # of connection points: 2
#     Edge 15, Type (0, 0), BuildingBlock: XIVTED_clean_linker_0, # of connection points: 2
# Relax obj value: 0.363
# Max RMSD: 0.267
# Mean RMSD: 0.267
data_MOF--net-bsn--node1-BETDEL_clean_sbu_0--edge1-XIVTED_clean_linker_0
_symmetry_space_group_name_H-M    P1
_symmetry_Int_Tables_number       1
_symmetry_cell_setting            triclinic
loop_
_symmetry_equiv_pos_as_xyz
'x, y, z'
_cell_length_a     32.971215
_cell_length_b     32.773062
_cell_length_c     14.50712
_cell_angle_alpha  93.724348
_cell_angle_beta   91.433222
_cell_angle_gamma 89.588775
loop_
_atom_site_label
_atom_site_type_symbol
_atom_site_fract_x
_atom_site_fract_y
_atom_site_fract_z
_atom_type_partial_charge
Dy0 Dy 0.05509 0.25659 0.33412 0.0
C1 C 0.88176 0.25346 0.32835 0.0
C2 C 0.13242 0.26355 0.27455 0.0
Dy3 Dy 0.96386 0.26153 0.34244 0.0
O4 O 0.1198 0.27755 0.35464 0.0
O5 O 0.10299 0.2454 0.22757 0.0
O6 O 0.06187 0.22682 0.46713 0.0
O7 O 0.01308 0.26758 0.44677 0.0
C8 C 0.02844 0.24246 0.50044 0.0
C9 C 0.9959 0.27799 0.18091 0.0
O10 O 0.97665 0.32376 0.40356 0.0
O11 O 0.04222 0.32496 0.34939 0.0
O12 O 0.90768 0.23701 0.27146 0.0
O13 O 0.90074 0.27345 0.39689 0.0
O14 O 0.96574 0.29805 0.2172 0.0
O15 O 1.00669 0.2501 0.23168 0.0
O16 O 0.04063 0.18971 0.31468 0.0
O17 O 0.97508 0.19601 0.36855 0.0
C18 C 1.01038 0.34364 0.38865 0.0
C19 C 1.00681 0.17337 0.3432 0.0
Dy20 Dy 0.01394 0.8083 0.59032 0.0
C21 C 0.02733 0.63512 0.62714 0.0
C22 C 1.00925 0.8837 0.52099 0.0
Dy23 Dy 0.01448 0.71657 0.60941 0.0
O24 O 0.99107 0.87326 0.59423 0.0
O25 O 0.02986 0.85296 0.48549 0.0
O26 O 0.03393 0.82254 0.73689 0.0
O27 O 0.99924 0.76962 0.70162 0.0
C28 C 0.0195 0.78882 0.76532 0.0
C29 C 1.00694 0.73983 0.43606 0.0
O30 O 0.9494 0.72868 0.63463 0.0
O31 O 0.94733 0.79152 0.56952 0.0
O32 O 0.05138 0.65931 0.58756 0.0
O33 O 0.99653 0.65579 0.66025 0.0
O34 O 0.9893 0.70809 0.4646 0.0
O35 O 0.02955 0.75582 0.49918 0.0
O36 O 0.08097 0.79748 0.60888 0.0
O37 O 0.0755 0.73378 0.66837 0.0
C38 C 0.92877 0.7598 0.60271 0.0
C39 C 0.09708 0.76607 0.65053 0.0
Dy40 Dy 0.55971 0.76147 0.84352 0.0
C41 C 0.386 0.76944 0.87717 0.0
C42 C 0.63764 0.76497 0.78444 0.0
Dy43 Dy 0.46844 0.76849 0.85927 0.0
O44 O 0.62606 0.7464 0.85549 0.0
O45 O 0.60657 0.78207 0.74531 0.0
O46 O 0.56676 0.73151 -0.023 0.0
O47 O 0.51898 0.77305 0.9589 0.0
C48 C 0.53364 0.74719 0.01115 0.0
C49 C 0.49721 0.77903 0.69056 0.0
O50 O 0.48684 0.82765 0.9325 0.0
O51 O 0.551 0.82997 0.87216 0.0
O52 O 0.40888 0.73712 0.88104 0.0
O53 O 0.40841 0.80103 0.86725 0.0
O54 O 0.46608 0.79816 0.72425 0.0
O55 O 0.50935 0.75337 0.7454 0.0
O56 O 0.54152 0.6969 0.80379 0.0
O57 O 0.47795 0.70105 0.86911 0.0
C58 C 0.51996 0.84822 0.91528 0.0
C59 C 0.50884 0.67934 0.83486 0.0
Dy60 Dy 0.50962 0.31565 0.08257 0.0
C61 C 0.52104 0.14367 0.12636 0.0
C62 C 0.5074 0.39042 0.00904 0.0
Dy63 Dy 0.50678 0.22482 0.10624 0.0
O64 O 0.53052 0.38058 0.07781 0.0
O65 O 0.485 0.35947 -0.01958 0.0
O66 O 0.52669 0.33206 0.23014 0.0
O67 O 0.49228 0.27907 0.19637 0.0
C68 C 0.51207 0.29883 0.26006 0.0
C69 C 0.50144 0.24639 0.93098 0.0
O70 O 0.44098 0.23695 0.12244 0.0
O71 O 0.44185 0.30397 0.07753 0.0
O72 O 0.54385 0.16777 0.08324 0.0
O73 O 0.49053 0.16422 0.16151 0.0
O74 O 0.48217 0.21602 0.96131 0.0
O75 O 0.52453 0.26224 -0.00642 0.0
O76 O 0.57536 0.29745 0.08007 0.0
O77 O 0.56655 0.24291 0.1699 0.0
C78 C 0.4221 0.2708 0.09965 0.0
C79 C 0.58999 0.27065 0.13699 0.0
H80 H 0.95277 0.38951 0.48005 0.0
H81 H 0.08948 0.58935 0.55533 0.0
H82 H 0.07574 0.39539 0.38591 0.0
H83 H 0.96956 0.5794 0.66361 0.0
H84 H 0.08723 0.51704 0.50248 0.0
H85 H 0.95967 0.45819 0.55219 0.0
C86 C 0.98122 0.4053 0.4739 0.0
C87 C 0.0137 0.38658 0.42624 0.0
C88 C 0.06161 0.53047 0.53884 0.0
C89 C 0.02186 0.46554 0.51002 0.0
C90 C 0.06298 0.57167 0.56956 0.0
C91 C 0.02953 0.59029 0.61335 0.0
C92 C 0.02638 0.5079 0.55141 0.0
C93 C 0.99597 0.56614 0.63004 0.0
C94 C 0.98519 0.44454 0.51583 0.0
C95 C 0.04982 0.40865 0.4214 0.0
N96 N 0.99504 0.52624 0.59803 0.0
N97 N 0.05291 0.44703 0.46269 0.0
H98 H 0.70039 0.71925 0.84451 0.0
H99 H 0.87288 0.81991 0.5614 0.0
H100 H 0.67047 0.81011 0.65131 0.0
H101 H 0.88275 0.70092 0.67211 0.0
H102 H 0.80045 0.82164 0.59925 0.0
H103 H 0.76991 0.71768 0.7914 0.0
C104 C 0.70854 0.73895 0.79084 0.0
C105 C 0.67972 0.76479 0.75211 0.0
C106 C 0.8186 0.7951 0.61424 0.0
C107 C 0.75949 0.76331 0.69088 0.0
C108 C 0.85987 0.79405 0.59262 0.0
C109 C 0.88416 0.76039 0.61427 0.0
C110 C 0.80188 0.76251 0.65871 0.0
C111 C 0.86557 0.72773 0.65469 0.0
C112 C 0.74821 0.73792 0.76017 0.0
C113 C 0.69192 0.78969 0.68268 0.0
N114 N 0.82584 0.72984 0.67631 0.0
N115 N 0.73109 0.78854 0.65446 0.0
H116 H 0.44785 0.42479 0.90339 0.0
H117 H 0.57382 0.62715 0.83397 0.0
H118 H 0.5667 0.44761 0.02586 0.0
H119 H 0.44325 0.62933 0.84988 0.0
H120 H 0.57361 0.5546 0.86455 0.0
H121 H 0.44777 0.49395 0.84609 0.0
C122 C 0.47399 0.44424 0.91743 0.0
C123 C 0.50721 0.43081 -0.03014 0.0
C124 C 0.54501 0.57093 0.86024 0.0
C125 C 0.50766 0.50895 0.90344 0.0
C126 C 0.54504 0.61223 0.84214 0.0
C127 C 0.50849 0.63439 0.83992 0.0
C128 C 0.50815 0.55145 0.87466 0.0
C129 C 0.47213 0.61345 0.85171 0.0
C130 C 0.47389 0.48356 0.88504 0.0
C131 C 0.54037 0.45703 -0.01369 0.0
N132 N 0.47286 0.57309 0.86871 0.0
N133 N 0.53985 0.4948 0.9529 0.0
H134 H 0.84607 0.236 0.16134 0.0
H135 H 0.61943 0.25456 0.30702 0.0
H136 H 0.81871 0.27747 0.44149 0.0
H137 H 0.65683 0.291 0.04178 0.0
H138 H 0.69071 0.25307 0.35913 0.0
H139 H 0.77491 0.24469 0.1169 0.0
C140 C 0.82494 0.24657 0.21384 0.0
C141 C 0.83814 0.25592 0.3054 0.0
C142 C 0.6832 0.26172 0.28992 0.0
C143 C 0.75675 0.26575 0.25465 0.0
C144 C 0.64274 0.26233 0.25989 0.0
C145 C 0.63252 0.27259 0.16972 0.0
C146 C 0.71356 0.27035 0.22843 0.0
C147 C 0.66361 0.28291 0.11171 0.0
C148 C 0.78448 0.25188 0.18805 0.0
C149 C 0.80957 0.26985 0.37029 0.0
N150 N 0.70294 0.28086 0.1416 0.0
N151 N 0.76989 0.274 0.34382 0.0
H152 H 0.3687 0.2085 0.06636 0.0
H153 H 0.19144 0.31565 0.34406 0.0
H154 H 0.3751 0.33641 0.15615 0.0
H155 H 0.16738 0.22081 0.12989 0.0
H156 H 0.26096 0.32083 0.28909 0.0
H157 H 0.29629 0.20918 0.1001 0.0
C158 C 0.35467 0.23683 0.09224 0.0
C159 C 0.37772 0.27246 0.10855 0.0
C160 C 0.2403 0.29914 0.25385 0.0
C161 C 0.29546 0.27318 0.14927 0.0
C162 C 0.20086 0.29598 0.28546 0.0
C163 C 0.17393 0.26763 0.24153 0.0
C164 C 0.25297 0.27309 0.17929 0.0
C165 C 0.18737 0.24299 0.16562 0.0
C166 C 0.31345 0.23721 0.11127 0.0
C167 C 0.35821 0.30839 0.14211 0.0
N168 N 0.22618 0.24591 0.13752 0.0
N169 N 0.31823 0.3077 0.16293 0.0
H170 H 0.33474 0.70391 0.86818 0.0
H171 H 0.14888 0.83183 0.66449 0.0
H172 H 0.33686 0.8346 0.84808 0.0
H173 H 0.14224 0.70391 0.71729 0.0
H174 H 0.21798 0.83359 0.73076 0.0
H175 H 0.26342 0.70353 0.81663 0.0
C176 C 0.31995 0.73259 0.8545 0.0
C177 C 0.34162 0.7693 0.86217 0.0
C178 C 0.20133 0.80516 0.72785 0.0
C179 C 0.26049 0.76912 0.80134 0.0
C180 C 0.16199 0.80409 0.68941 0.0
C181 C 0.13971 0.76769 0.68512 0.0
C182 C 0.21855 0.76952 0.76171 0.0
C183 C 0.15816 0.73273 0.71923 0.0
C184 C 0.27934 0.73238 0.82448 0.0
C185 C 0.32117 0.8056 0.84294 0.0
N186 N 0.19644 0.73451 0.75584 0.0
N187 N 0.28186 0.80456 0.81258 0.0
H188 H 0.58316 0.90202 0.90276 0.0
H189 H 0.46713 0.08649 0.17715 0.0
H190 H 0.46445 0.89189 0.01822 0.0
H191 H 0.58333 0.09902 0.05224 0.0
H192 H 0.46939 1.01287 0.13521 0.0
H193 H 0.58694 0.9726 0.96928 0.0
C194 C 0.55794 0.91455 0.94201 0.0
C195 C 0.52335 0.89101 0.95423 0.0
C196 C 0.49464 0.03164 0.11791 0.0
C197 C 0.52755 0.97159 0.03107 0.0
C198 C 0.49344 0.07358 0.14249 0.0
C199 C 0.52494 0.09876 0.11754 0.0
C200 C 0.52753 0.01494 0.06786 0.0
C201 C 0.55829 0.08061 0.07226 0.0
C202 C 0.56015 0.95481 -0.01976 0.0
C203 C 0.49166 0.90885 0.00631 0.0
N204 N 0.55854 0.03987 0.04808 0.0
N205 N 0.49449 0.948 0.04245 0.0
H206 H 0.05589 0.91366 0.3878 0.0
H207 H 0.94498 0.13137 0.41425 0.0
H208 H 0.95933 0.94696 0.57374 0.0
H209 H 0.06472 0.11397 0.30335 0.0
H210 H 0.94431 0.05992 0.44941 0.0
H211 H 0.05437 0.98335 0.33453 0.0
C212 C 0.03426 0.93561 0.41696 0.0
C213 C 1.00778 0.92479 0.48544 0.0
C214 C 0.97069 0.07165 0.41707 0.0
C215 C 1.00565 1.00394 0.42457 0.0
C216 C 0.97111 0.11252 0.39652 0.0
C217 C 1.00517 0.12896 0.35635 0.0
C218 C 1.00443 0.04667 0.39694 0.0
C219 C 0.03793 0.1027 0.33476 0.0
C220 C 0.03349 0.97528 0.38678 0.0
C221 C 0.98035 0.95419 0.52109 0.0
N222 N 0.03681 0.06279 0.3556 0.0
N223 N 0.97994 0.99241 0.4901 0.0
H224 H 0.96237 0.32575 0.05192 0.0
H225 H 0.06496 0.19773 0.63044 0.0
H226 H 0.04643 0.22591 0.0849 0.0
H227 H 0.97526 0.29241 0.59556 0.0
H228 H 0.0588 0.20791 0.79766 0.0
H229 H 0.96884 0.31613 0.88437 0.0
C230 C 0.98257 0.30215 0.02378 0.0
C231 C 1.00381 0.27646 0.08179 0.0
C232 C 0.04029 0.22633 0.75352 0.0
C233 C 1.01094 0.26493 0.8911 0.0
C234 C 0.04365 0.22037 0.65819 0.0
C235 C 0.02076 0.24446 0.59968 0.0
C236 C 0.01391 0.25667 0.79028 0.0
C237 C 0.99351 0.27329 0.63866 0.0
C238 C 0.98604 0.29649 0.9283 0.0
C239 C 0.02957 0.24636 0.0423 0.0
N240 N 0.99102 0.27881 0.73185 0.0
N241 N 0.03226 0.24126 0.94918 0.0
H242 H 0.9787 0.72781 0.84216 0.0
H243 H 0.05467 0.7953 0.35774 0.0
H244 H 0.05872 0.82957 0.90984 0.0
H245 H 0.96305 0.7039 0.2925 0.0
H246 H 0.05849 0.80693 0.19333 0.0
H247 H 0.97534 0.71609 0.0067 0.0
C248 C 0.99566 0.74755 0.8918 0.0
C249 C 0.01881 0.77982 0.86301 0.0
C250 C 0.03742 0.78445 0.21501 0.0
C251 C 0.01511 0.76678 0.05053 0.0
C252 C 0.03509 0.77801 0.30879 0.0
C253 C 1.00836 0.7488 0.33834 0.0
C254 C 0.013 0.76129 0.15064 0.0
C255 C 0.98406 0.72674 0.27226 0.0
C256 C 0.99365 0.74097 -0.01443 0.0
C257 C 0.04034 0.80448 0.92962 0.0
N258 N 0.98703 0.73335 0.18134 0.0
N259 N 0.03792 0.79749 0.02047 0.0
H260 H 0.47405 0.78983 0.10176 0.0
H261 H 0.55265 0.72979 0.60123 0.0
H262 H 0.57415 0.707 0.14427 0.0
H263 H 0.45987 0.82037 0.55579 0.0
H264 H 0.5603 0.71948 0.43396 0.0
H265 H 0.46582 0.79808 0.26858 0.0
C266 C 0.49405 0.77311 0.14637 0.0
C267 C 0.52506 0.74805 0.10981 0.0
C268 C 0.53838 0.74171 0.46064 0.0
C269 C 0.51618 0.75757 0.30015 0.0
C270 C 0.53418 0.74772 0.55587 0.0
C271 C 0.50547 0.77578 0.59167 0.0
C272 C 0.51357 0.76388 0.40141 0.0
C273 C 0.48228 0.79834 0.53058 0.0
C274 C 0.48951 0.77798 0.24151 0.0
C275 C 0.55001 0.72682 0.17016 0.0
N276 N 0.48668 0.79172 0.4382 0.0
N277 N 0.54519 0.73226 0.26274 0.0
H278 H 0.55122 0.34098 0.40262 0.0
H279 H 0.45944 0.20719 0.78874 0.0
H280 H 0.47195 0.23815 0.34091 0.0
H281 H 0.54497 0.3048 0.85008 0.0
H282 H 0.46235 0.21932 0.62489 0.0
H283 H 0.54865 0.32896 0.5668 0.0
C284 C 0.53327 0.31582 0.42383 0.0
C285 C 0.51155 0.29063 0.35852 0.0
C286 C 0.4805 0.23813 0.67398 0.0
C287 C 0.50843 0.27672 0.54606 0.0
C288 C 0.47879 0.23129 0.76756 0.0
C289 C 0.50215 0.25496 0.83271 0.0
C290 C 0.50568 0.26899 0.64528 0.0
C291 C 0.5266 0.28582 0.80177 0.0
C292 C 0.53184 0.30898 0.5175 0.0
C293 C 0.48901 0.25833 0.38933 0.0
N294 N 0.52777 0.29194 0.71005 0.0
N295 N 0.48792 0.25237 0.48109 0.0
loop_
_geom_bond_atom_site_label_1
_geom_bond_atom_site_label_2
_geom_bond_distance
_geom_bond_site_symmetry_2
_ccdc_geom_bond_type
Dy0 O4 2.398 . S
Dy0 O5 2.491 . S
Dy0 O6 2.403 . S
Dy0 O7 2.664 1_455 S
Dy0 O11 2.326 . S
Dy0 O15 2.310 . S
Dy0 O16 2.351 . S
C1 O12 1.185 . S
C1 O13 1.355 . S
C2 O4 1.185 . S
C2 O5 1.355 . S
Dy3 O7 2.310 . S
Dy3 O10 2.351 . S
Dy3 O12 2.398 . S
Dy3 O13 2.491 . S
Dy3 O14 2.403 . S
Dy3 O15 2.664 1_655 S
Dy3 O17 2.326 . S
O4 Dy0 2.398 . S
O4 C2 1.185 . S
O5 Dy0 2.491 . S
O5 C2 1.355 . S
O6 Dy0 2.403 . S
O6 C8 1.254 . S
O7 Dy0 2.664 1_655 S
O7 Dy3 2.310 . S
O7 C8 1.268 1_655 S
C8 O6 1.254 . S
C8 O7 1.268 1_455 S
C9 O14 1.254 . S
C9 O15 1.268 1_655 S
O10 Dy3 2.351 . S
O10 C18 1.249 1_655 S
O11 Dy0 2.326 . S
O11 C18 1.267 . S
O12 C1 1.185 . S
O12 Dy3 2.398 . S
O13 C1 1.355 . S
O13 Dy3 2.491 . S
O14 Dy3 2.403 . S
O14 C9 1.254 . S
O15 Dy0 2.310 . S
O15 Dy3 2.664 1_455 S
O15 C9 1.268 1_455 S
O16 Dy0 2.351 . S
O16 C19 1.249 1_455 S
O17 Dy3 2.326 . S
O17 C19 1.267 . S
C18 O10 1.249 1_455 S
C18 O11 1.267 . S
C19 O16 1.249 1_655 S
C19 O17 1.267 . S
Dy20 O24 2.398 1_455 S
Dy20 O25 2.491 1_455 S
Dy20 O26 2.403 . S
Dy20 O27 2.664 . S
Dy20 O31 2.326 1_455 S
Dy20 O35 2.310 1_455 S
Dy20 O36 2.351 . S
C21 O32 1.185 . S
C21 O33 1.355 . S
C22 O24 1.185 . S
C22 O25 1.355 . S
Dy23 O27 2.310 1_655 S
Dy23 O30 2.351 . S
Dy23 O32 2.398 1_655 S
Dy23 O33 2.491 1_655 S
Dy23 O34 2.403 . S
Dy23 O35 2.664 . S
Dy23 O37 2.326 1_655 S
O24 Dy20 2.398 1_655 S
O24 C22 1.185 . S
O25 Dy20 2.491 1_655 S
O25 C22 1.355 . S
O26 Dy20 2.403 . S
O26 C28 1.254 . S
O27 Dy20 2.664 . S
O27 Dy23 2.310 1_455 S
O27 C28 1.268 . S
C28 O26 1.254 . S
C28 O27 1.268 . S
C29 O34 1.254 . S
C29 O35 1.268 . S
O30 Dy23 2.351 . S
O30 C38 1.249 . S
O31 Dy20 2.326 1_655 S
O31 C38 1.267 . S
O32 C21 1.185 . S
O32 Dy23 2.398 1_455 S
O33 C21 1.355 . S
O33 Dy23 2.491 1_455 S
O34 Dy23 2.403 . S
O34 C29 1.254 . S
O35 Dy20 2.310 1_655 S
O35 Dy23 2.664 . S
O35 C29 1.268 . S
O36 Dy20 2.351 . S
O36 C39 1.249 . S
O37 Dy23 2.326 1_455 S
O37 C39 1.267 . S
C38 O30 1.249 . S
C38 O31 1.267 . S
C39 O36 1.249 . S
C39 O37 1.267 . S
Dy40 O44 2.398 . S
Dy40 O45 2.491 . S
Dy40 O46 2.403 1_556 S
Dy40 O47 2.664 . S
Dy40 O51 2.326 . S
Dy40 O55 2.310 . S
Dy40 O56 2.351 . S
C41 O52 1.185 . S
C41 O53 1.355 . S
C42 O44 1.185 . S
C42 O45 1.355 . S
Dy43 O47 2.310 . S
Dy43 O50 2.351 . S
Dy43 O52 2.398 . S
Dy43 O53 2.491 . S
Dy43 O54 2.403 . S
Dy43 O55 2.664 . S
Dy43 O57 2.326 . S
O44 Dy40 2.398 . S
O44 C42 1.185 . S
O45 Dy40 2.491 . S
O45 C42 1.355 . S
O46 Dy40 2.403 1_554 S
O46 C48 1.254 . S
O47 Dy40 2.664 . S
O47 Dy43 2.310 . S
O47 C48 1.268 1_556 S
C48 O46 1.254 . S
C48 O47 1.268 1_554 S
C49 O54 1.254 . S
C49 O55 1.268 . S
O50 Dy43 2.351 . S
O50 C58 1.249 . S
O51 Dy40 2.326 . S
O51 C58 1.267 . S
O52 C41 1.185 . S
O52 Dy43 2.398 . S
O53 C41 1.355 . S
O53 Dy43 2.491 . S
O54 Dy43 2.403 . S
O54 C49 1.254 . S
O55 Dy40 2.310 . S
O55 Dy43 2.664 . S
O55 C49 1.268 . S
O56 Dy40 2.351 . S
O56 C59 1.249 . S
O57 Dy43 2.326 . S
O57 C59 1.267 . S
C58 O50 1.249 . S
C58 O51 1.267 . S
C59 O56 1.249 . S
C59 O57 1.267 . S
Dy60 O64 2.398 . S
Dy60 O65 2.491 . S
Dy60 O66 2.403 . S
Dy60 O67 2.664 . S
Dy60 O71 2.326 . S
Dy60 O75 2.310 . S
Dy60 O76 2.351 . S
C61 O72 1.185 . S
C61 O73 1.355 . S
C62 O64 1.185 . S
C62 O65 1.355 . S
Dy63 O67 2.310 . S
Dy63 O70 2.351 . S
Dy63 O72 2.398 . S
Dy63 O73 2.491 . S
Dy63 O74 2.403 1_554 S
Dy63 O75 2.664 . S
Dy63 O77 2.326 . S
O64 Dy60 2.398 . S
O64 C62 1.185 . S
O65 Dy60 2.491 . S
O65 C62 1.355 . S
O66 Dy60 2.403 . S
O66 C68 1.254 . S
O67 Dy60 2.664 . S
O67 Dy63 2.310 . S
O67 C68 1.268 . S
C68 O66 1.254 . S
C68 O67 1.268 . S
C69 O74 1.254 . S
C69 O75 1.268 1_556 S
O70 Dy63 2.351 . S
O70 C78 1.249 . S
O71 Dy60 2.326 . S
O71 C78 1.267 . S
O72 C61 1.185 . S
O72 Dy63 2.398 . S
O73 C61 1.355 . S
O73 Dy63 2.491 . S
O74 Dy63 2.403 1_556 S
O74 C69 1.254 . S
O75 Dy60 2.310 . S
O75 Dy63 2.664 . S
O75 C69 1.268 1_554 S
O76 Dy60 2.351 . S
O76 C79 1.249 . S
O77 Dy63 2.326 . S
O77 C79 1.267 . S
C78 O70 1.249 . S
C78 O71 1.267 . S
C79 O76 1.249 . S
C79 O77 1.267 . S
H80 C86 0.930 . S
H81 C90 0.930 . S
H82 C95 0.929 . S
H83 C93 0.929 . S
H84 C88 0.929 . S
H85 C94 0.929 . S
C86 H80 0.930 . S
C86 C87 1.367 . S
C86 C94 1.378 . S
C87 C86 1.367 . S
C87 C95 1.433 . S
C88 H84 0.929 . S
C88 C90 1.378 . S
C88 C92 1.350 . S
C89 C92 1.463 . S
C89 C94 1.350 . S
C89 N97 1.427 . S
C90 H81 0.930 . S
C90 C88 1.378 . S
C90 C91 1.367 . S
C91 C90 1.367 . S
C91 C93 1.433 . S
C92 C88 1.350 . S
C92 C89 1.463 . S
C92 N96 1.427 . S
C93 H83 0.929 . S
C93 C91 1.433 . S
C93 N96 1.384 . S
C94 H85 0.929 . S
C94 C86 1.378 . S
C94 C89 1.350 . S
C95 H82 0.929 . S
C95 C87 1.433 . S
C95 N97 1.384 . S
N96 C92 1.427 . S
N96 C93 1.384 . S
N97 C89 1.427 . S
N97 C95 1.384 . S
H98 C104 0.930 . S
H99 C108 0.930 . S
H100 C113 0.929 . S
H101 C111 0.929 . S
H102 C106 0.929 . S
H103 C112 0.929 . S
C104 H98 0.930 . S
C104 C105 1.367 . S
C104 C112 1.378 . S
C105 C104 1.367 . S
C105 C113 1.433 . S
C106 H102 0.929 . S
C106 C108 1.378 . S
C106 C110 1.350 . S
C107 C110 1.463 . S
C107 C112 1.350 . S
C107 N115 1.427 . S
C108 H99 0.930 . S
C108 C106 1.378 . S
C108 C109 1.367 . S
C109 C108 1.367 . S
C109 C111 1.433 . S
C110 C106 1.350 . S
C110 C107 1.463 . S
C110 N114 1.427 . S
C111 H101 0.929 . S
C111 C109 1.433 . S
C111 N114 1.384 . S
C112 H103 0.929 . S
C112 C104 1.378 . S
C112 C107 1.350 . S
C113 H100 0.929 . S
C113 C105 1.433 . S
C113 N115 1.384 . S
N114 C110 1.427 . S
N114 C111 1.384 . S
N115 C107 1.427 . S
N115 C113 1.384 . S
H116 C122 0.930 . S
H117 C126 0.925 1_554 S
H118 C131 0.929 . S
H119 C129 0.929 . S
H120 C124 0.929 . S
H121 C130 0.929 . S
C122 H116 0.930 . S
C122 C123 1.367 1_556 S
C122 C130 1.378 . S
C123 C122 1.367 1_554 S
C123 C131 1.433 . S
C124 H120 0.929 . S
C124 C126 1.373 1_554 S
C124 C128 1.350 1_554 S
C125 C128 1.463 1_554 S
C125 C130 1.350 1_554 S
C125 N133 1.427 . S
C126 H117 0.925 1_556 S
C126 C124 1.373 1_556 S
C126 C127 1.377 . S
C127 C126 1.377 . S
C127 C129 1.433 . S
C128 C124 1.350 1_556 S
C128 C125 1.463 1_556 S
C128 N132 1.427 . S
C129 H119 0.929 . S
C129 C127 1.433 . S
C129 N132 1.384 . S
C130 H121 0.929 . S
C130 C122 1.378 . S
C130 C125 1.350 1_556 S
C131 H118 0.929 . S
C131 C123 1.433 . S
C131 N133 1.384 . S
N132 C128 1.427 . S
N132 C129 1.384 . S
N133 C125 1.427 . S
N133 C131 1.384 . S
H134 C140 0.930 . S
H135 C144 0.930 . S
H136 C149 0.929 . S
H137 C147 0.929 . S
H138 C142 0.929 . S
H139 C148 0.929 . S
C140 H134 0.930 . S
C140 C141 1.367 . S
C140 C148 1.378 . S
C141 C140 1.367 . S
C141 C149 1.433 . S
C142 H138 0.929 . S
C142 C144 1.378 . S
C142 C146 1.350 . S
C143 C146 1.463 . S
C143 C148 1.350 . S
C143 N151 1.427 . S
C144 H135 0.930 . S
C144 C142 1.378 . S
C144 C145 1.367 . S
C145 C144 1.367 . S
C145 C147 1.433 . S
C146 C142 1.350 . S
C146 C143 1.463 . S
C146 N150 1.427 . S
C147 H137 0.929 . S
C147 C145 1.433 . S
C147 N150 1.384 . S
C148 H139 0.929 . S
C148 C140 1.378 . S
C148 C143 1.350 . S
C149 H136 0.929 . S
C149 C141 1.433 . S
C149 N151 1.384 . S
N150 C146 1.427 . S
N150 C147 1.384 . S
N151 C143 1.427 . S
N151 C149 1.384 . S
H152 C158 0.930 . S
H153 C162 0.930 . S
H154 C167 0.929 . S
H155 C165 0.929 . S
H156 C160 0.929 . S
H157 C166 0.929 . S
C158 H152 0.930 . S
C158 C159 1.367 . S
C158 C166 1.378 . S
C159 C158 1.367 . S
C159 C167 1.433 . S
C160 H156 0.929 . S
C160 C162 1.378 . S
C160 C164 1.350 . S
C161 C164 1.463 . S
C161 C166 1.350 . S
C161 N169 1.427 . S
C162 H153 0.930 . S
C162 C160 1.378 . S
C162 C163 1.367 . S
C163 C162 1.367 . S
C163 C165 1.433 . S
C164 C160 1.350 . S
C164 C161 1.463 . S
C164 N168 1.427 . S
C165 H155 0.929 . S
C165 C163 1.433 . S
C165 N168 1.384 . S
C166 H157 0.929 . S
C166 C158 1.378 . S
C166 C161 1.350 . S
C167 H154 0.929 . S
C167 C159 1.433 . S
C167 N169 1.384 . S
N168 C164 1.427 . S
N168 C165 1.384 . S
N169 C161 1.427 . S
N169 C167 1.384 . S
H170 C176 0.930 . S
H171 C180 0.930 . S
H172 C185 0.929 . S
H173 C183 0.929 . S
H174 C178 0.929 . S
H175 C184 0.929 . S
C176 H170 0.930 . S
C176 C177 1.367 . S
C176 C184 1.378 . S
C177 C176 1.367 . S
C177 C185 1.433 . S
C178 H174 0.929 . S
C178 C180 1.378 . S
C178 C182 1.350 . S
C179 C182 1.463 . S
C179 C184 1.350 . S
C179 N187 1.427 . S
C180 H171 0.930 . S
C180 C178 1.378 . S
C180 C181 1.367 . S
C181 C180 1.367 . S
C181 C183 1.433 . S
C182 C178 1.350 . S
C182 C179 1.463 . S
C182 N186 1.427 . S
C183 H173 0.929 . S
C183 C181 1.433 . S
C183 N186 1.384 . S
C184 H175 0.929 . S
C184 C176 1.378 . S
C184 C179 1.350 . S
C185 H172 0.929 . S
C185 C177 1.433 . S
C185 N187 1.384 . S
N186 C182 1.427 . S
N186 C183 1.384 . S
N187 C179 1.427 . S
N187 C185 1.384 . S
H188 C194 0.930 1_554 S
H189 C198 0.930 1_556 S
H190 C203 0.929 . S
H191 C201 0.929 . S
H192 C196 0.929 . S
H193 C202 0.929 . S
C194 H188 0.930 1_556 S
C194 C195 1.367 . S
C194 C202 1.378 1_556 S
C195 C194 1.367 . S
C195 C203 1.433 . S
C196 H192 0.929 . S
C196 C198 1.378 1_556 S
C196 C200 1.350 1_546 S
C197 C200 1.463 1_556 S
C197 C202 1.350 1_556 S
C197 N205 1.427 . S
C198 H189 0.930 1_554 S
C198 C196 1.378 1_554 S
C198 C199 1.367 . S
C199 C198 1.367 . S
C199 C201 1.433 . S
C200 C196 1.350 1_564 S
C200 C197 1.463 1_554 S
C200 N204 1.427 1_565 S
C201 H191 0.929 . S
C201 C199 1.433 . S
C201 N204 1.384 . S
C202 H193 0.929 . S
C202 C194 1.378 1_554 S
C202 C197 1.350 1_554 S
C203 H190 0.929 . S
C203 C195 1.433 . S
C203 N205 1.384 . S
N204 C200 1.427 1_545 S
N204 C201 1.384 . S
N205 C197 1.427 . S
N205 C203 1.384 . S
H206 C212 0.930 . S
H207 C216 0.936 . S
H208 C221 0.929 . S
H209 C219 0.929 . S
H210 C214 0.929 . S
H211 C220 0.929 . S
C212 H206 0.930 . S
C212 C213 1.367 . S
C212 C220 1.378 . S
C213 C212 1.367 . S
C213 C221 1.433 . S
C214 H210 0.929 . S
C214 C216 1.378 . S
C214 C218 1.350 . S
C215 C218 1.463 . S
C215 C220 1.350 1_545 S
C215 N223 1.432 . S
C216 H207 0.936 . S
C216 C214 1.378 . S
C216 C217 1.367 . S
C217 C216 1.367 . S
C217 C219 1.433 . S
C218 C214 1.350 . S
C218 C215 1.463 . S
C218 N222 1.427 . S
C219 H209 0.929 . S
C219 C217 1.433 . S
C219 N222 1.384 . S
C220 H211 0.929 . S
C220 C212 1.378 . S
C220 C215 1.350 1_565 S
C221 H208 0.929 . S
C221 C213 1.433 . S
C221 N223 1.358 1_565 S
N222 C218 1.427 . S
N222 C219 1.384 . S
N223 C215 1.432 . S
N223 C221 1.358 1_545 S
H224 C230 0.930 . S
H225 C234 0.930 . S
H226 C239 0.929 . S
H227 C237 0.929 . S
H228 C232 0.929 . S
H229 C238 0.929 . S
C230 H224 0.930 . S
C230 C231 1.367 1_655 S
C230 C238 1.378 1_554 S
C231 C230 1.367 1_455 S
C231 C239 1.433 . S
C232 H228 0.929 . S
C232 C234 1.378 . S
C232 C236 1.350 . S
C233 C236 1.463 . S
C233 C238 1.337 1_455 S
C233 N241 1.441 . S
C234 H225 0.930 . S
C234 C232 1.378 . S
C234 C235 1.361 1_455 S
C235 C234 1.361 1_655 S
C235 C237 1.439 . S
C236 C232 1.350 . S
C236 C233 1.463 . S
C236 N240 1.427 1_455 S
C237 H227 0.929 . S
C237 C235 1.439 . S
C237 N240 1.384 . S
C238 H229 0.929 . S
C238 C230 1.378 1_556 S
C238 C233 1.337 1_655 S
C239 H226 0.929 . S
C239 C231 1.433 . S
C239 N241 1.384 1_554 S
N240 C236 1.427 1_655 S
N240 C237 1.384 . S
N241 C233 1.441 . S
N241 C239 1.384 1_556 S
H242 C248 0.930 . S
H243 C252 0.930 . S
H244 C257 0.929 . S
H245 C255 0.929 . S
H246 C250 0.929 . S
H247 C256 0.929 . S
C248 H242 0.930 . S
C248 C249 1.367 1_655 S
C248 C256 1.378 1_556 S
C249 C248 1.367 1_455 S
C249 C257 1.433 . S
C250 H246 0.929 . S
C250 C252 1.378 . S
C250 C254 1.350 . S
C251 C254 1.463 . S
C251 C256 1.346 1_455 S
C251 N259 1.431 . S
C252 H243 0.930 . S
C252 C250 1.378 . S
C252 C253 1.358 1_455 S
C253 C252 1.358 1_655 S
C253 C255 1.442 . S
C254 C250 1.350 . S
C254 C251 1.463 . S
C254 N258 1.427 1_455 S
C255 H245 0.929 . S
C255 C253 1.442 . S
C255 N258 1.384 . S
C256 H247 0.929 . S
C256 C248 1.378 1_554 S
C256 C251 1.346 1_655 S
C257 H244 0.929 . S
C257 C249 1.433 . S
C257 N259 1.384 1_556 S
N258 C254 1.427 1_655 S
N258 C255 1.384 . S
N259 C251 1.431 . S
N259 C257 1.384 1_554 S
H260 C266 0.930 . S
H261 C270 0.930 . S
H262 C275 0.929 . S
H263 C273 0.929 . S
H264 C268 0.929 . S
H265 C274 0.929 . S
C266 H260 0.930 . S
C266 C267 1.367 . S
C266 C274 1.378 . S
C267 C266 1.367 . S
C267 C275 1.433 . S
C268 H264 0.929 . S
C268 C270 1.378 . S
C268 C272 1.350 . S
C269 C272 1.463 . S
C269 C274 1.350 . S
C269 N277 1.427 . S
C270 H261 0.930 . S
C270 C268 1.378 . S
C270 C271 1.367 . S
C271 C270 1.367 . S
C271 C273 1.433 . S
C272 C268 1.350 . S
C272 C269 1.463 . S
C272 N276 1.427 . S
C273 H263 0.929 . S
C273 C271 1.433 . S
C273 N276 1.384 . S
C274 H265 0.929 . S
C274 C266 1.378 . S
C274 C269 1.350 . S
C275 H262 0.929 . S
C275 C267 1.433 . S
C275 N277 1.384 . S
N276 C272 1.427 . S
N276 C273 1.384 . S
N277 C269 1.427 . S
N277 C275 1.384 . S
H278 C284 0.930 . S
H279 C288 0.930 . S
H280 C293 0.929 . S
H281 C291 0.929 . S
H282 C286 0.929 . S
H283 C292 0.929 . S
C284 H278 0.930 . S
C284 C285 1.367 . S
C284 C292 1.378 . S
C285 C284 1.367 . S
C285 C293 1.433 . S
C286 H282 0.929 . S
C286 C288 1.378 . S
C286 C290 1.350 . S
C287 C290 1.463 . S
C287 C292 1.350 . S
C287 N295 1.427 . S
C288 H279 0.930 . S
C288 C286 1.378 . S
C288 C289 1.367 . S
C289 C288 1.367 . S
C289 C291 1.433 . S
C290 C286 1.350 . S
C290 C287 1.463 . S
C290 N294 1.427 . S
C291 H281 0.929 . S
C291 C289 1.433 . S
C291 N294 1.384 . S
C292 H283 0.929 . S
C292 C284 1.378 . S
C292 C287 1.350 . S
C293 H280 0.929 . S
C293 C285 1.433 . S
C293 N295 1.384 . S
N294 C290 1.427 . S
N294 C291 1.384 . S
N295 C287 1.427 . S
N295 C293 1.384 . S
C87 C18 1.759 . S
C91 C21 1.721 . S
C105 C42 1.829 . S
C109 C38 1.821 . S
C123 C62 1.884 . S
C127 C59 1.957 . S
C141 C1 1.778 . S
C145 C79 1.909 . S
C159 C78 1.811 . S
C163 C2 1.834 . S
C177 C41 1.794 . S
C181 C39 1.907 . S
C195 C58 1.760 . S
C199 C61 1.720 . S
C213 C22 1.884 . S
C217 C19 1.957 . S
C231 C9 0.888 1_455 S
C235 C8 0.885 1_655 S
C249 C28 0.900 . S
C253 C29 0.902 . S
C267 C48 0.905 . S
C271 C49 0.905 . S
C285 C68 0.906 . S
C289 C69 0.906 . S
