# Generated by pormake.
# Topology ukt, (4)-cn, num edge types: 1
# Building blocks:
#     Node 0, Type 0, BuildingBlock: CEKHIL_clean_sbu_0, # of connection points: 4
#     Node 1, Type 0, BuildingBlock: CEKHIL_clean_sbu_0, # of connection points: 4
#     Node 2, Type 0, BuildingBlock: CEKHIL_clean_sbu_0, # of connection points: 4
#     Node 3, Type 0, BuildingBlock: CEKHIL_clean_sbu_0, # of connection points: 4
#     Node 4, Type 0, BuildingBlock: CEKHIL_clean_sbu_0, # of connection points: 4
#     Node 5, Type 0, BuildingBlock: CEKHIL_clean_sbu_0, # of connection points: 4
#     Node 6, Type 0, BuildingBlock: CEKHIL_clean_sbu_0, # of connection points: 4
#     Node 7, Type 0, BuildingBlock: CEKHIL_clean_sbu_0, # of connection points: 4
#     Node 8, Type 0, BuildingBlock: CEKHIL_clean_sbu_0, # of connection points: 4
#     Node 9, Type 0, BuildingBlock: CEKHIL_clean_sbu_0, # of connection points: 4
#     Node 10, Type 0, BuildingBlock: CEKHIL_clean_sbu_0, # of connection points: 4
#     Node 11, Type 0, BuildingBlock: CEKHIL_clean_sbu_0, # of connection points: 4
#     Node 12, Type 0, BuildingBlock: CEKHIL_clean_sbu_0, # of connection points: 4
#     Node 13, Type 0, BuildingBlock: CEKHIL_clean_sbu_0, # of connection points: 4
#     Node 14, Type 0, BuildingBlock: CEKHIL_clean_sbu_0, # of connection points: 4
#     Node 15, Type 0, BuildingBlock: CEKHIL_clean_sbu_0, # of connection points: 4
#     Edge 16, Type (0, 0), BuildingBlock: ZUJKAS_clean_linker_0, # of connection points: 2
#     Edge 17, Type (0, 0), BuildingBlock: ZUJKAS_clean_linker_0, # of connection points: 2
#     Edge 18, Type (0, 0), BuildingBlock: ZUJKAS_clean_linker_0, # of connection points: 2
#     Edge 19, Type (0, 0), BuildingBlock: ZUJKAS_clean_linker_0, # of connection points: 2
#     Edge 20, Type (0, 0), BuildingBlock: ZUJKAS_clean_linker_0, # of connection points: 2
#     Edge 21, Type (0, 0), BuildingBlock: ZUJKAS_clean_linker_0, # of connection points: 2
#     Edge 22, Type (0, 0), BuildingBlock: ZUJKAS_clean_linker_0, # of connection points: 2
#     Edge 23, Type (0, 0), BuildingBlock: ZUJKAS_clean_linker_0, # of connection points: 2
#     Edge 24, Type (0, 0), BuildingBlock: ZUJKAS_clean_linker_0, # of connection points: 2
#     Edge 25, Type (0, 0), BuildingBlock: ZUJKAS_clean_linker_0, # of connection points: 2
#     Edge 26, Type (0, 0), BuildingBlock: ZUJKAS_clean_linker_0, # of connection points: 2
#     Edge 27, Type (0, 0), BuildingBlock: ZUJKAS_clean_linker_0, # of connection points: 2
#     Edge 28, Type (0, 0), BuildingBlock: ZUJKAS_clean_linker_0, # of connection points: 2
#     Edge 29, Type (0, 0), BuildingBlock: ZUJKAS_clean_linker_0, # of connection points: 2
#     Edge 30, Type (0, 0), BuildingBlock: ZUJKAS_clean_linker_0, # of connection points: 2
#     Edge 31, Type (0, 0), BuildingBlock: ZUJKAS_clean_linker_0, # of connection points: 2
#     Edge 32, Type (0, 0), BuildingBlock: ZUJKAS_clean_linker_0, # of connection points: 2
#     Edge 33, Type (0, 0), BuildingBlock: ZUJKAS_clean_linker_0, # of connection points: 2
#     Edge 34, Type (0, 0), BuildingBlock: ZUJKAS_clean_linker_0, # of connection points: 2
#     Edge 35, Type (0, 0), BuildingBlock: ZUJKAS_clean_linker_0, # of connection points: 2
#     Edge 36, Type (0, 0), BuildingBlock: ZUJKAS_clean_linker_0, # of connection points: 2
#     Edge 37, Type (0, 0), BuildingBlock: ZUJKAS_clean_linker_0, # of connection points: 2
#     Edge 38, Type (0, 0), BuildingBlock: ZUJKAS_clean_linker_0, # of connection points: 2
#     Edge 39, Type (0, 0), BuildingBlock: ZUJKAS_clean_linker_0, # of connection points: 2
#     Edge 40, Type (0, 0), BuildingBlock: ZUJKAS_clean_linker_0, # of connection points: 2
#     Edge 41, Type (0, 0), BuildingBlock: ZUJKAS_clean_linker_0, # of connection points: 2
#     Edge 42, Type (0, 0), BuildingBlock: ZUJKAS_clean_linker_0, # of connection points: 2
#     Edge 43, Type (0, 0), BuildingBlock: ZUJKAS_clean_linker_0, # of connection points: 2
#     Edge 44, Type (0, 0), BuildingBlock: ZUJKAS_clean_linker_0, # of connection points: 2
#     Edge 45, Type (0, 0), BuildingBlock: ZUJKAS_clean_linker_0, # of connection points: 2
#     Edge 46, Type (0, 0), BuildingBlock: ZUJKAS_clean_linker_0, # of connection points: 2
#     Edge 47, Type (0, 0), BuildingBlock: ZUJKAS_clean_linker_0, # of connection points: 2
# Relax obj value: 0.284
# Max RMSD: 0.165
# Mean RMSD: 0.165
data_MOF--net-ukt--node1-CEKHIL_clean_sbu_0--edge1-ZUJKAS_clean_linker_0
_symmetry_space_group_name_H-M    P1
_symmetry_Int_Tables_number       1
_symmetry_cell_setting            triclinic
loop_
_symmetry_equiv_pos_as_xyz
'x, y, z'
_cell_length_a     54.098462
_cell_length_b     54.077844
_cell_length_c     44.872352
_cell_angle_alpha  89.986031
_cell_angle_beta   90.032858
_cell_angle_gamma 90.005019
loop_
_atom_site_label
_atom_site_type_symbol
_atom_site_fract_x
_atom_site_fract_y
_atom_site_fract_z
_atom_type_partial_charge
Co0 Co 0.53705 0.14908 0.08848 0.0
O1 O 0.52579 0.1161 0.09637 0.0
O2 O 0.52377 0.13495 0.05249 0.0
C3 C 0.52046 0.16648 0.12914 0.0
O4 O 0.54594 0.18298 0.07194 0.0
Co5 Co 0.57347 0.17577 0.13079 0.0
O6 O 0.56459 0.20562 0.10733 0.0
C7 C 0.59229 0.1377 0.08963 0.0
C8 C 0.51997 0.11514 0.06831 0.0
C9 C 0.55474 0.20356 0.08166 0.0
O10 O 0.57067 0.13579 0.07799 0.0
O11 O 0.59711 0.15176 0.11186 0.0
O12 O 0.50694 0.16304 0.10553 0.0
O13 O 0.5426 0.15761 0.12821 0.0
Co14 Co 0.34858 0.53445 0.08832 0.0
O15 O 0.381 0.52147 0.09504 0.0
O16 O 0.36152 0.52154 0.05148 0.0
C17 C 0.33092 0.51766 0.12865 0.0
O18 O 0.31491 0.54548 0.07326 0.0
Co19 Co 0.32545 0.57132 0.13309 0.0
O20 O 0.29472 0.56546 0.10978 0.0
C21 C 0.36401 0.58868 0.09188 0.0
C22 C 0.38133 0.51642 0.06677 0.0
C23 C 0.29536 0.55575 0.0839 0.0
O24 O 0.36317 0.56767 0.07855 0.0
O25 O 0.35177 0.59333 0.11566 0.0
O26 O 0.33348 0.50458 0.10453 0.0
O27 O 0.34106 0.53928 0.12839 0.0
Co28 Co 0.96335 0.34765 0.08788 0.0
O29 O 0.9729 0.38125 0.09501 0.0
O30 O 0.97689 0.3616 0.05187 0.0
C31 C 0.97965 0.33156 0.12963 0.0
O32 O 0.95614 0.31296 0.07261 0.0
Co33 Co 0.92638 0.32177 0.13053 0.0
O34 O 0.93651 0.29155 0.10847 0.0
C35 C 0.90796 0.35843 0.08751 0.0
C36 C 0.97936 0.38191 0.06716 0.0
C37 C 0.94724 0.29271 0.0832 0.0
O38 O 0.9295 0.35905 0.07549 0.0
O39 O 0.90324 0.34622 0.1113 0.0
O40 O 0.99364 0.33554 0.10656 0.0
O41 O 0.95728 0.33974 0.12763 0.0
Co42 Co 0.1509 0.96293 0.08879 0.0
O43 O 0.11782 0.97383 0.09657 0.0
O44 O 0.13673 0.97622 0.05278 0.0
C45 C 0.16845 0.97941 0.12953 0.0
O46 O 0.18494 0.95419 0.07267 0.0
Co47 Co 0.17628 0.92577 0.1316 0.0
O48 O 0.2062 0.93321 0.10751 0.0
C49 C 0.1379 0.90801 0.0905 0.0
C50 C 0.11682 0.97966 0.06852 0.0
C51 C 0.20491 0.94398 0.08227 0.0
O52 O 0.13799 0.92929 0.07777 0.0
O53 O 0.1504 0.90329 0.11407 0.0
O54 O 0.16449 0.9931 0.10617 0.0
O55 O 0.15944 0.95731 0.12846 0.0
Co56 Co 0.53724 0.35092 0.4092 0.0
O57 O 0.52474 0.38381 0.4045 0.0
O58 O 0.52479 0.36269 0.4469 0.0
C59 C 0.51979 0.33494 0.36821 0.0
O60 O 0.54776 0.31642 0.42219 0.0
Co61 Co 0.57341 0.32927 0.36255 0.0
O62 O 0.56932 0.29812 0.38546 0.0
C63 C 0.5916 0.36601 0.40551 0.0
C64 C 0.51987 0.38316 0.43281 0.0
C65 C 0.55894 0.29759 0.41096 0.0
O66 O 0.5708 0.36474 0.41925 0.0
O67 O 0.5958 0.3547 0.38097 0.0
O68 O 0.50701 0.33681 0.39264 0.0
O69 O 0.5415 0.34485 0.3686 0.0
Co70 Co 0.14868 0.53598 0.41031 0.0
O71 O 0.11621 0.5227 0.40484 0.0
O72 O 0.13674 0.52306 0.44768 0.0
C73 C 0.16531 0.51907 0.36946 0.0
O74 O 0.18262 0.54735 0.42418 0.0
Co75 Co 0.17041 0.57282 0.36467 0.0
O76 O 0.20158 0.56823 0.38746 0.0
C77 C 0.13287 0.59015 0.40717 0.0
C78 C 0.11659 0.51775 0.43314 0.0
C79 C 0.20167 0.55832 0.41325 0.0
O80 O 0.134 0.56909 0.42035 0.0
O81 O 0.1447 0.59493 0.38313 0.0
O82 O 0.16365 0.50617 0.39384 0.0
O83 O 0.15509 0.54065 0.36986 0.0
Co84 Co 0.96186 0.15052 0.4088 0.0
O85 O 0.97433 0.11776 0.40223 0.0
O86 O 0.97398 0.13716 0.4458 0.0
C87 C 0.97955 0.16842 0.36904 0.0
O88 O 0.95133 0.18439 0.42405 0.0
Co89 Co 0.92612 0.1751 0.36363 0.0
O90 O 0.93236 0.2054 0.38741 0.0
C91 C 0.90704 0.13721 0.40469 0.0
C92 C 0.97893 0.11727 0.43064 0.0
C93 C 0.94164 0.2043 0.41348 0.0
O94 O 0.92824 0.13637 0.41757 0.0
O95 O 0.90255 0.15062 0.3818 0.0
O96 O 0.99226 0.1651 0.39334 0.0
O97 O 0.95774 0.15869 0.36869 0.0
Co98 Co 0.34917 0.96155 0.40848 0.0
O99 O 0.38221 0.97308 0.40183 0.0
O100 O 0.36278 0.97375 0.44536 0.0
C101 C 0.33191 0.97925 0.36831 0.0
O102 O 0.31498 0.95199 0.4235 0.0
Co103 Co 0.32455 0.92576 0.36341 0.0
O104 O 0.29415 0.93315 0.38657 0.0
C105 C 0.36227 0.90665 0.40463 0.0
C106 C 0.3828 0.97801 0.43014 0.0
C107 C 0.29503 0.94269 0.41253 0.0
O108 O 0.36236 0.92766 0.418 0.0
O109 O 0.34971 0.90252 0.38095 0.0
O110 O 0.33544 0.99216 0.3924 0.0
O111 O 0.34118 0.95724 0.36842 0.0
Co112 Co 0.46071 0.84631 0.9109 0.0
O113 O 0.47175 0.87947 0.90374 0.0
O114 O 0.47328 0.86022 0.94738 0.0
C115 C 0.47805 0.82909 0.87052 0.0
O116 O 0.45184 0.81219 0.92658 0.0
Co117 Co 0.4246 0.82069 0.8672 0.0
O118 O 0.43201 0.79062 0.89109 0.0
C119 C 0.40582 0.85909 0.90766 0.0
C120 C 0.47708 0.88023 0.93195 0.0
C121 C 0.44224 0.79204 0.91664 0.0
O122 O 0.42686 0.85917 0.92096 0.0
O123 O 0.4016 0.84639 0.88411 0.0
O124 O 0.49122 0.83287 0.89436 0.0
O125 O 0.45588 0.83798 0.87098 0.0
Co126 Co 0.64959 0.46132 0.91118 0.0
O127 O 0.61695 0.47423 0.90605 0.0
O128 O 0.63757 0.47353 0.94884 0.0
C129 C 0.66584 0.47906 0.87062 0.0
O130 O 0.68369 0.45029 0.9247 0.0
Co131 Co 0.67185 0.4255 0.8648 0.0
O132 O 0.70306 0.43051 0.88744 0.0
C133 C 0.63444 0.40707 0.90681 0.0
C134 C 0.61737 0.47885 0.93442 0.0
C135 C 0.70298 0.44 0.91345 0.0
O136 O 0.63545 0.42784 0.92064 0.0
O137 O 0.64612 0.40295 0.88249 0.0
O138 O 0.66409 0.49157 0.89526 0.0
O139 O 0.65596 0.45732 0.8706 0.0
Co140 Co 0.03661 0.65156 0.91048 0.0
O141 O 0.026 0.61823 0.90349 0.0
O142 O 0.0234 0.63788 0.94678 0.0
C143 C 0.01997 0.66833 0.86932 0.0
O144 O 0.04499 0.68592 0.92583 0.0
Co145 Co 0.07338 0.67688 0.86716 0.0
O146 O 0.06549 0.70709 0.89053 0.0
C147 C 0.09174 0.6395 0.90931 0.0
C148 C 0.02007 0.61769 0.93152 0.0
C149 C 0.05483 0.70594 0.91583 0.0
O150 O 0.07039 0.63922 0.92185 0.0
O151 O 0.09629 0.6518 0.88555 0.0
O152 O 0.00632 0.66459 0.89275 0.0
O153 O 0.04215 0.65955 0.87061 0.0
Co154 Co 0.84899 0.0362 0.90999 0.0
O155 O 0.88161 0.02334 0.90402 0.0
O156 O 0.8612 0.02263 0.9469 0.0
C157 C 0.83167 0.02022 0.86886 0.0
O158 O 0.81493 0.04698 0.92415 0.0
Co159 Co 0.82776 0.07439 0.86524 0.0
O160 O 0.7969 0.0702 0.88864 0.0
C161 C 0.86535 0.09036 0.90824 0.0
C162 C 0.88138 0.01788 0.93219 0.0
C163 C 0.79634 0.05905 0.91368 0.0
O164 O 0.86351 0.0692 0.92109 0.0
O165 O 0.85403 0.09563 0.88399 0.0
O166 O 0.83424 0.00663 0.89258 0.0
O167 O 0.84208 0.04172 0.86983 0.0
Co168 Co 0.45878 0.65146 0.59119 0.0
O169 O 0.46897 0.61815 0.59908 0.0
O170 O 0.47142 0.63679 0.55513 0.0
C171 C 0.47619 0.66868 0.63156 0.0
O172 O 0.45074 0.68569 0.57496 0.0
Co173 Co 0.42285 0.67801 0.63432 0.0
O174 O 0.43113 0.70768 0.61024 0.0
C175 C 0.40333 0.64055 0.59303 0.0
C176 C 0.47463 0.6169 0.57101 0.0
C177 C 0.44141 0.70602 0.58475 0.0
O178 O 0.42473 0.6393 0.58071 0.0
O179 O 0.39902 0.65369 0.61619 0.0
O180 O 0.48944 0.66438 0.60796 0.0
O181 O 0.45386 0.66024 0.63096 0.0
Co182 Co 0.8482 0.4607 0.59043 0.0
O183 O 0.8812 0.47207 0.59745 0.0
O184 O 0.86187 0.47336 0.55383 0.0
C185 C 0.83109 0.47796 0.63084 0.0
O186 O 0.81403 0.45145 0.57508 0.0
Co187 Co 0.82323 0.42457 0.63472 0.0
O188 O 0.79299 0.4317 0.61109 0.0
C189 C 0.86084 0.40567 0.59322 0.0
C190 C 0.88185 0.4774 0.56926 0.0
C191 C 0.79407 0.44176 0.58541 0.0
O192 O 0.8613 0.4269 0.58036 0.0
O193 O 0.84811 0.40133 0.61671 0.0
O194 O 0.83445 0.49112 0.60693 0.0
O195 O 0.84026 0.45592 0.63041 0.0
Co196 Co 0.03778 0.84862 0.58851 0.0
O197 O 0.02705 0.88183 0.59615 0.0
O198 O 0.02465 0.8628 0.55243 0.0
C199 C 0.02102 0.83126 0.62921 0.0
O200 O 0.04619 0.81446 0.57242 0.0
Co201 Co 0.07431 0.82242 0.63135 0.0
O202 O 0.06483 0.79242 0.60847 0.0
C203 C 0.09307 0.86017 0.58982 0.0
C204 C 0.02117 0.88274 0.5681 0.0
C205 C 0.05485 0.79403 0.5828 0.0
O206 O 0.07157 0.86128 0.5777 0.0
O207 O 0.09773 0.84691 0.61281 0.0
O208 O 0.00745 0.83529 0.60577 0.0
O209 O 0.04321 0.84004 0.62823 0.0
Co210 Co 0.65069 0.04019 0.58751 0.0
O211 O 0.61776 0.02834 0.59418 0.0
O212 O 0.63759 0.02689 0.55093 0.0
C213 C 0.6679 0.02366 0.62844 0.0
O214 O 0.68493 0.04976 0.57249 0.0
Co215 Co 0.67449 0.07743 0.63159 0.0
O216 O 0.70481 0.0715 0.60788 0.0
C217 C 0.63744 0.0952 0.58872 0.0
C218 C 0.61751 0.02266 0.56606 0.0
C219 C 0.70433 0.06067 0.58266 0.0
O220 O 0.63704 0.07366 0.57664 0.0
O221 O 0.65014 0.1003 0.612 0.0
O222 O 0.66466 0.01018 0.60476 0.0
O223 O 0.65836 0.04556 0.62754 0.0
H224 H 0.56301 0.25202 0.09614 0.0
H225 H 0.56938 0.28664 0.06192 0.0
H226 H 0.55533 0.2387 0.98709 0.0
H227 H 0.54869 0.20391 0.02109 0.0
H228 H 0.60347 0.26635 0.98945 0.0
H229 H 0.52038 0.3256 0.00428 0.0
H230 H 0.53431 0.31344 0.03766 0.0
H231 H 0.52013 0.29271 0.01154 0.0
C232 C 0.56086 0.24889 0.07243 0.0
C233 C 0.55548 0.22515 0.06134 0.0
C234 C 0.56436 0.26873 0.05295 0.0
C235 C 0.56266 0.26519 0.02206 0.0
C236 C 0.55652 0.24177 0.01091 0.0
H237 H 0.62213 0.3621 0.8825 0.0
H238 H 0.60188 0.32733 0.90744 0.0
C239 C 0.55272 0.22195 0.03039 0.0
C240 C 0.56998 0.28526 0.00154 0.0
H241 H 0.55427 0.34321 0.97819 0.0
C242 C 0.59261 0.28306 0.98659 0.0
C243 C 0.55581 0.307 0.99824 0.0
C244 C 0.53119 0.30993 0.01358 0.0
C245 C 0.60201 0.3025 0.96928 0.0
C246 C 0.58795 0.32444 0.96609 0.0
C247 C 0.56496 0.32635 0.98051 0.0
C248 C 0.59762 0.3462 0.94967 0.0
C249 C 0.62746 0.29977 0.95588 0.0
C250 C 0.60073 0.36876 0.96462 0.0
C251 C 0.6119 0.38878 0.95031 0.0
C252 C 0.62033 0.3866 0.92075 0.0
C253 C 0.61619 0.3643 0.9054 0.0
C254 C 0.60473 0.34436 0.91966 0.0
H255 H 0.63814 0.28465 0.96664 0.0
H256 H 0.62569 0.29527 0.93185 0.0
H257 H 0.63818 0.3172 0.95798 0.0
H258 H 0.59526 0.37066 0.98773 0.0
H259 H 0.61464 0.40568 0.96283 0.0
H260 H 0.09203 0.61933 0.96518 0.0
H261 H 0.12678 0.60054 0.99134 0.0
H262 H 0.17233 0.60944 0.91321 0.0
H263 H 0.13784 0.62907 0.88706 0.0
H264 H 0.15513 0.56024 0.98197 0.0
H265 H 0.21267 0.64513 0.9752 0.0
H266 H 0.18041 0.64486 0.96513 0.0
H267 H 0.2033 0.63339 0.93956 0.0
C268 C 0.10939 0.61724 0.95343 0.0
C269 C 0.11223 0.62606 0.92411 0.0
C270 C 0.12924 0.60643 0.96845 0.0
C271 C 0.1523 0.60407 0.95447 0.0
C272 C 0.15489 0.61171 0.92472 0.0
H273 H 0.29261 0.54892 0.02354 0.0
H274 H 0.25739 0.55765 0.99092 0.0
C275 C 0.13511 0.6228 0.90975 0.0
C276 C 0.17373 0.59441 0.97152 0.0
H277 H 0.23132 0.60986 0.99663 0.0
C278 C 0.17181 0.57106 0.9851 0.0
C279 C 0.19542 0.60866 0.9758 0.0
C280 C 0.19806 0.63449 0.96342 0.0
C281 C 0.191 0.56163 0.00286 0.0
C282 C 0.21259 0.57586 0.00696 0.0
C283 C 0.21472 0.59898 0.99311 0.0
C284 C 0.23278 0.56776 0.02682 0.0
C285 C 0.18818 0.53663 0.01734 0.0
C286 C 0.23036 0.57037 0.05775 0.0
C287 C 0.25047 0.56565 0.07646 0.0
C288 C 0.27331 0.55814 0.0645 0.0
C289 C 0.2753 0.55461 0.03351 0.0
C290 C 0.25523 0.55959 0.01481 0.0
H291 H 0.17162 0.52658 0.00908 0.0
H292 H 0.20486 0.52519 0.01314 0.0
H293 H 0.18644 0.53902 0.04182 0.0
H294 H 0.21316 0.57686 0.06731 0.0
H295 H 0.24827 0.56844 0.10021 0.0
H296 H 0.89211 0.08622 0.95979 0.0
H297 H 0.91253 0.11925 0.98752 0.0
H298 H 0.89268 0.17156 0.91914 0.0
H299 H 0.87201 0.13869 0.89104 0.0
H300 H 0.947 0.17174 0.94894 0.0
H301 H 0.86463 0.1771 0.02326 0.0
H302 H 0.87685 0.14701 0.01442 0.0
H303 H 0.86269 0.16521 0.98572 0.0
C304 C 0.89227 0.10466 0.95035 0.0
C305 C 0.8801 0.10982 0.92329 0.0
C306 C 0.90404 0.12347 0.96624 0.0
C307 C 0.90397 0.14774 0.95535 0.0
C308 C 0.89293 0.15285 0.92777 0.0
H309 H 0.95099 0.29011 0.02251 0.0
H310 H 0.94386 0.25389 0.99115 0.0
C311 C 0.88107 0.13405 0.91184 0.0
C312 C 0.91337 0.16809 0.97411 0.0
H313 H 0.89789 0.20337 0.03414 0.0
C314 C 0.93638 0.17873 0.96762 0.0
C315 C 0.89942 0.17692 0.99845 0.0
C316 C 0.87445 0.16615 0.00598 0.0
C317 C 0.94596 0.19801 0.9852 0.0
C318 C 0.93181 0.20714 0.00936 0.0
C319 C 0.90881 0.19632 0.01575 0.0
C320 C 0.93984 0.22834 0.02801 0.0
C321 C 0.97128 0.20806 0.97805 0.0
C322 C 0.94 0.22611 0.05919 0.0
C323 C 0.94357 0.24687 0.07716 0.0
C324 C 0.94722 0.27029 0.06431 0.0
C325 C 0.94842 0.27229 0.03309 0.0
C326 C 0.94449 0.25154 0.0151 0.0
H327 H 0.98262 0.19427 0.96581 0.0
H328 H 0.96932 0.22458 0.96358 0.0
H329 H 0.98132 0.21358 0.99859 0.0
H330 H 0.93645 0.2084 0.06965 0.0
H331 H 0.94273 0.24469 0.10114 0.0
H332 H 0.35869 0.86567 0.88624 0.0
H333 H 0.32447 0.88727 0.91055 0.0
H334 H 0.37219 0.90609 0.98416 0.0
H335 H 0.40654 0.8852 0.95987 0.0
H336 H 0.3044 0.87487 0.96297 0.0
H337 H 0.33814 0.97125 0.97026 0.0
H338 H 0.35247 0.94849 0.94643 0.0
H339 H 0.35994 0.94971 0.98552 0.0
C340 C 0.36202 0.87472 0.90739 0.0
C341 C 0.38539 0.87359 0.9211 0.0
C342 C 0.34244 0.88709 0.92123 0.0
C343 C 0.34585 0.89864 0.94896 0.0
C344 C 0.36925 0.89792 0.96242 0.0
H345 H 0.25147 0.92763 0.09578 0.0
H346 H 0.28544 0.91989 0.06117 0.0
C347 C 0.38885 0.8857 0.94856 0.0
C348 C 0.32449 0.90923 0.96526 0.0
H349 H 0.30498 0.96017 0.00378 0.0
C350 C 0.30436 0.89367 0.97142 0.0
C351 C 0.32442 0.93379 0.97628 0.0
C352 C 0.3448 0.95184 0.96902 0.0
C353 C 0.2847 0.90163 0.98931 0.0
C354 C 0.28522 0.92571 0.00142 0.0
C355 C 0.30483 0.94164 0.99454 0.0
C356 C 0.26602 0.93384 0.02258 0.0
C357 C 0.26374 0.88408 0.99602 0.0
C358 C 0.24417 0.9448 0.01227 0.0
C359 C 0.22464 0.94927 0.03197 0.0
C360 C 0.22667 0.94266 0.06224 0.0
C361 C 0.24916 0.93278 0.07262 0.0
C362 C 0.26865 0.92841 0.05293 0.0
H363 H 0.26549 0.86634 0.98372 0.0
H364 H 0.26332 0.88007 0.02029 0.0
H365 H 0.24584 0.89282 0.99006 0.0
H366 H 0.24188 0.949 0.98882 0.0
H367 H 0.20762 0.95691 0.0232 0.0
H368 H 0.59316 0.26094 0.4052 0.0
H369 H 0.59891 0.22492 0.43694 0.0
H370 H 0.53524 0.24596 0.48898 0.0
H371 H 0.53006 0.2829 0.45797 0.0
H372 H 0.5703 0.23362 0.52453 0.0
H373 H 0.565 0.16031 0.43977 0.0
H374 H 0.5883 0.18208 0.42912 0.0
H375 H 0.55645 0.19183 0.43163 0.0
C376 C 0.58015 0.25778 0.42315 0.0
C377 C 0.56109 0.27476 0.42899 0.0
C378 C 0.58335 0.237 0.44118 0.0
C379 C 0.56715 0.23229 0.46496 0.0
C380 C 0.54788 0.24906 0.47064 0.0
H381 H 0.5955 0.09114 0.55516 0.0
H382 H 0.57389 0.12412 0.52837 0.0
C383 C 0.54493 0.27016 0.4529 0.0
C384 C 0.57164 0.21089 0.48507 0.0
H385 H 0.58792 0.14997 0.48465 0.0
C386 C 0.5737 0.21521 0.51584 0.0
C387 C 0.57541 0.18665 0.47406 0.0
C388 C 0.57086 0.17993 0.44187 0.0
C389 C 0.58086 0.19636 0.53556 0.0
C390 C 0.58718 0.17281 0.52405 0.0
C391 C 0.58364 0.16811 0.49355 0.0
C392 C 0.59872 0.15322 0.54274 0.0
C393 C 0.58149 0.20202 0.56849 0.0
C394 C 0.61981 0.1585 0.55992 0.0
C395 C 0.63179 0.1398 0.57582 0.0
C396 C 0.62343 0.11527 0.57408 0.0
C397 C 0.60237 0.10992 0.55689 0.0
C398 C 0.59002 0.12875 0.54156 0.0
H399 H 0.56744 0.21618 0.57438 0.0
H400 H 0.57808 0.18524 0.58213 0.0
H401 H 0.59987 0.2097 0.5744 0.0
H402 H 0.62752 0.17697 0.56037 0.0
H403 H 0.64821 0.1444 0.58848 0.0
H404 H 0.354 0.6426 0.60708 0.0
H405 H 0.31966 0.62358 0.58003 0.0
H406 H 0.3711 0.5899 0.51893 0.0
H407 H 0.40555 0.60848 0.5459 0.0
H408 H 0.30921 0.63306 0.52071 0.0
H409 H 0.32422 0.5327 0.53862 0.0
H410 H 0.33863 0.55608 0.56154 0.0
H411 H 0.35111 0.54883 0.52546 0.0
C412 C 0.35808 0.63081 0.5882 0.0
C413 C 0.38257 0.62719 0.57863 0.0
C414 C 0.33841 0.61997 0.57277 0.0
C415 C 0.34285 0.60513 0.54768 0.0
C416 C 0.36727 0.60089 0.53857 0.0
H417 H 0.24566 0.58025 0.39849 0.0
H418 H 0.2802 0.58977 0.4316 0.0
C419 C 0.38694 0.61173 0.55392 0.0
C420 C 0.32195 0.59603 0.52939 0.0
H421 H 0.29581 0.54391 0.50003 0.0
C422 C 0.30616 0.61356 0.51639 0.0
C423 C 0.31795 0.57057 0.52392 0.0
C424 C 0.33372 0.55091 0.53833 0.0
C425 C 0.28681 0.60638 0.4975 0.0
C426 C 0.28339 0.58101 0.49111 0.0
C427 C 0.29873 0.56337 0.50471 0.0
C428 C 0.26381 0.57265 0.4704 0.0
C429 C 0.27012 0.62602 0.48459 0.0
C430 C 0.24365 0.55896 0.48102 0.0
C431 C 0.22383 0.5534 0.46214 0.0
C432 C 0.2239 0.56141 0.43227 0.0
C433 C 0.24481 0.574 0.42139 0.0
C434 C 0.26457 0.57953 0.44029 0.0
H435 H 0.27155 0.64373 0.49703 0.0
H436 H 0.27549 0.62957 0.46111 0.0
H437 H 0.25053 0.61986 0.48479 0.0
H438 H 0.24282 0.55338 0.5042 0.0
H439 H 0.20813 0.54355 0.47126 0.0
H440 H 0.86013 0.35657 0.60855 0.0
H441 H 0.87946 0.3222 0.58198 0.0
H442 H 0.91137 0.37333 0.51909 0.0
H443 H 0.89238 0.40786 0.54556 0.0
H444 H 0.86904 0.31128 0.52259 0.0
H445 H 0.9695 0.3271 0.53884 0.0
H446 H 0.94627 0.34128 0.56217 0.0
H447 H 0.95281 0.35375 0.5259 0.0
C448 C 0.8716 0.3606 0.58938 0.0
C449 C 0.87457 0.38502 0.57913 0.0
C450 C 0.88263 0.34091 0.57423 0.0
C451 C 0.89703 0.34525 0.54877 0.0
C452 C 0.9007 0.36961 0.53902 0.0
H453 H 0.92236 0.2496 0.39934 0.0
H454 H 0.91363 0.28384 0.43312 0.0
C455 C 0.88964 0.38932 0.55408 0.0
C456 C 0.90608 0.32423 0.5307 0.0
H457 H 0.95804 0.29801 0.50112 0.0
C458 C 0.88851 0.30825 0.51813 0.0
C459 C 0.9315 0.32029 0.52501 0.0
C460 C 0.95117 0.33636 0.53889 0.0
C461 C 0.89561 0.2888 0.49938 0.0
C462 C 0.92093 0.2854 0.49283 0.0
C463 C 0.93862 0.30089 0.50601 0.0
C464 C 0.92907 0.26591 0.47195 0.0
C465 C 0.87597 0.27206 0.48659 0.0
C466 C 0.94144 0.24488 0.4825 0.0
C467 C 0.94647 0.22516 0.46325 0.0
C468 C 0.93923 0.22623 0.43312 0.0
C469 C 0.928 0.24797 0.42242 0.0
C470 C 0.92296 0.2676 0.44167 0.0
H471 H 0.85811 0.27391 0.4986 0.0
H472 H 0.87284 0.27694 0.46286 0.0
H473 H 0.88196 0.25243 0.48752 0.0
H474 H 0.94635 0.24334 0.50584 0.0
H475 H 0.95526 0.20878 0.47224 0.0
H476 H 0.08989 0.89508 0.54577 0.0
H477 H 0.1239 0.91428 0.51834 0.0
H478 H 0.17657 0.87555 0.57328 0.0
H479 H 0.14276 0.85619 0.60097 0.0
H480 H 0.16955 0.94268 0.54065 0.0
H481 H 0.18702 0.8534 0.48254 0.0
H482 H 0.15802 0.86024 0.50065 0.0
H483 H 0.18464 0.85234 0.52254 0.0
C484 C 0.1087 0.8908 0.55229 0.0
C485 C 0.11359 0.87385 0.57539 0.0
C486 C 0.12808 0.90191 0.53667 0.0
C487 C 0.15264 0.89616 0.54373 0.0
C488 C 0.15766 0.88011 0.56751 0.0
H489 H 0.29118 0.95162 0.47257 0.0
H490 H 0.25558 0.94328 0.50461 0.0
C491 C 0.13831 0.86908 0.58329 0.0
C492 C 0.17291 0.90532 0.52465 0.0
H493 H 0.21414 0.88627 0.47202 0.0
C494 C 0.17938 0.93043 0.52563 0.0
C495 C 0.18534 0.88927 0.50486 0.0
C496 C 0.1784 0.86232 0.50227 0.0
C497 C 0.19834 0.93987 0.50747 0.0
C498 C 0.21109 0.92368 0.48807 0.0
C499 C 0.20436 0.89863 0.48696 0.0
C500 C 0.23151 0.93204 0.46854 0.0
C501 C 0.20429 0.96709 0.50879 0.0
C502 C 0.22974 0.92864 0.43763 0.0
C503 C 0.25007 0.93317 0.41929 0.0
C504 C 0.27267 0.9411 0.43152 0.0
C505 C 0.27406 0.94558 0.46239 0.0
C506 C 0.25368 0.94095 0.48075 0.0
H507 H 0.18903 0.9779 0.51902 0.0
H508 H 0.22113 0.96985 0.52253 0.0
H509 H 0.20803 0.97454 0.48617 0.0
H510 H 0.21279 0.92176 0.42778 0.0
H511 H 0.24824 0.92972 0.39562 0.0
H512 H 0.42829 0.74481 0.90237 0.0
H513 H 0.42205 0.71009 0.93649 0.0
H514 H 0.44727 0.7548 0.00993 0.0
H515 H 0.45374 0.7897 0.97608 0.0
H516 H 0.45989 0.68884 0.98709 0.0
H517 H 0.37003 0.73027 0.02208 0.0
H518 H 0.38324 0.73664 0.98593 0.0
H519 H 0.39694 0.74975 0.01867 0.0
C520 C 0.43286 0.74722 0.92569 0.0
C521 C 0.4413 0.77015 0.93651 0.0
C522 C 0.42936 0.72733 0.9451 0.0
C523 C 0.43414 0.73003 0.97561 0.0
C524 C 0.44353 0.75246 0.98637 0.0
H525 H 0.37514 0.63436 0.11497 0.0
H526 H 0.39615 0.66852 0.0898 0.0
C527 C 0.44719 0.77235 0.96697 0.0
C528 C 0.42718 0.71009 0.99642 0.0
H529 H 0.38012 0.69138 0.04155 0.0
C530 C 0.44258 0.68938 -0.00073 0.0
C531 C 0.4047 0.7111 0.01232 0.0
C532 C 0.38761 0.73304 0.00973 0.0
C533 C 0.43583 0.66933 0.01745 0.0
C534 C 0.41278 0.66986 0.03243 0.0
C535 C 0.39778 0.69097 0.03013 0.0
C536 C 0.40296 0.64825 0.04903 0.0
C537 C 0.45349 0.6479 0.02049 0.0
C538 C 0.39999 0.62543 0.0346 0.0
C539 C 0.3882 0.60582 0.04899 0.0
C540 C 0.37868 0.60876 0.07797 0.0
C541 C 0.38215 0.63148 0.09263 0.0
C542 C 0.39419 0.65102 0.07829 0.0
H543 H 0.47291 0.65388 0.01688 0.0
H544 H 0.4521 0.63912 0.0428 0.0
H545 H 0.44907 0.63381 0.00332 0.0
H546 H 0.40593 0.62302 0.01175 0.0
H547 H 0.38576 0.58866 0.03691 0.0
H548 H 0.74872 0.42302 0.89696 0.0
H549 H 0.78409 0.41457 0.92942 0.0
H550 H 0.74339 0.44212 0.00495 0.0
H551 H 0.7079 0.45079 0.97281 0.0
H552 H 0.80874 0.45163 0.97863 0.0
H553 H 0.76478 0.36383 0.01665 0.0
H554 H 0.7578 0.37716 0.9807 0.0
H555 H 0.7463 0.39148 0.01391 0.0
C556 C 0.74734 0.42758 0.92039 0.0
C557 C 0.72535 0.43739 0.93229 0.0
C558 C 0.7676 0.42281 0.93885 0.0
C559 C 0.76618 0.42765 0.96947 0.0
C560 C 0.74472 0.43828 0.98131 0.0
H561 H 0.86187 0.36951 0.10928 0.0
H562 H 0.82776 0.38945 0.08271 0.0
C563 C 0.72448 0.4432 0.96287 0.0
C564 C 0.78649 0.4199 0.98934 0.0
H565 H 0.80426 0.3729 0.03521 0.0
C566 C 0.80782 0.43452 0.99119 0.0
C567 C 0.78497 0.39769 0.00577 0.0
C568 C 0.76232 0.38145 0.00428 0.0
C569 C 0.82791 0.42734 0.00905 0.0
C570 C 0.82678 0.4046 0.02472 0.0
C571 C 0.80515 0.3903 0.02324 0.0
C572 C 0.84813 0.3946 0.04165 0.0
C573 C 0.84998 0.44432 0.01116 0.0
C574 C 0.87092 0.39086 0.02745 0.0
C575 C 0.8905 0.37974 0.04265 0.0
C576 C 0.88756 0.37162 0.07224 0.0
C577 C 0.86475 0.37548 0.0865 0.0
C578 C 0.84524 0.3869 0.07135 0.0
H579 H 0.84467 0.46384 0.00682 0.0
H580 H 0.85886 0.44323 0.03343 0.0
H581 H 0.86376 0.43893 0.99406 0.0
H582 H 0.8734 0.3959 0.00429 0.0
H583 H 0.90773 0.37687 0.03085 0.0
H584 H 0.0688 0.75306 0.90113 0.0
H585 H 0.07605 0.78766 0.9351 0.0
H586 H 0.05108 0.74337 0.00902 0.0
H587 H 0.0436 0.70857 0.97531 0.0
H588 H 0.03969 0.8097 0.98668 0.0
H589 H 0.12913 0.76598 0.01923 0.0
H590 H 0.11507 0.76001 0.98343 0.0
H591 H 0.1017 0.74718 0.01652 0.0
C592 C 0.06446 0.75073 0.92453 0.0
C593 C 0.05586 0.72792 0.93552 0.0
C594 C 0.06854 0.77057 0.94385 0.0
C595 C 0.06419 0.76791 0.97445 0.0
C596 C 0.0545 0.74567 0.98539 0.0
H597 H 0.12726 0.86199 0.113 0.0
H598 H 0.10577 0.82813 0.08779 0.0
C599 C 0.05026 0.72584 0.96607 0.0
C600 C 0.07202 0.78762 0.99513 0.0
H601 H 0.12038 0.80507 0.03905 0.0
C602 C 0.0572 0.8087 0.99841 0.0
C603 C 0.09477 0.78603 0.01043 0.0
C604 C 0.11126 0.76367 0.00735 0.0
C605 C 0.0648 0.82854 0.01645 0.0
C606 C 0.0881 0.82741 0.03082 0.0
C607 C 0.10253 0.80595 0.02808 0.0
C608 C 0.09871 0.84871 0.04728 0.0
C609 C 0.04771 0.85039 0.02 0.0
C610 C 0.10183 0.87156 0.03296 0.0
C611 C 0.11388 0.89099 0.04738 0.0
C612 C 0.12353 0.88786 0.07627 0.0
C613 C 0.12014 0.86503 0.09074 0.0
C614 C 0.10782 0.84566 0.07637 0.0
H615 H 0.02809 0.84489 0.01682 0.0
H616 H 0.0497 0.85904 0.04231 0.0
H617 H 0.05218 0.86443 0.00279 0.0
H618 H 0.09566 0.87417 0.01022 0.0
H619 H 0.11629 0.90824 0.03544 0.0
H620 H 0.64081 0.15094 0.08724 0.0
H621 H 0.67382 0.13073 0.05927 0.0
H622 H 0.62344 0.07261 0.03356 0.0
H623 H 0.58995 0.09361 0.06011 0.0
H624 H 0.69651 0.08841 0.06156 0.0
H625 H 0.6465 0.09343 0.95363 0.0
H626 H 0.63516 0.10835 0.98678 0.0
H627 H 0.63064 0.07566 0.9814 0.0
C628 C 0.63681 0.13378 0.07575 0.0
C629 C 0.61277 0.124 0.07552 0.0
C630 C 0.65569 0.12222 0.05978 0.0
C631 C 0.65102 0.10043 0.04366 0.0
C632 C 0.62733 0.08984 0.04491 0.0
H633 H 0.78144 0.02988 0.96047 0.0
H634 H 0.74507 0.03574 0.99224 0.0
C635 C 0.60826 0.10174 0.06028 0.0
C636 C 0.67085 0.08955 0.02489 0.0
H637 H 0.68547 0.07422 0.95322 0.0
C638 C 0.69409 0.08522 0.03787 0.0
C639 C 0.66771 0.08552 0.99392 0.0
C640 C 0.64375 0.09119 0.97802 0.0
C641 C 0.71449 0.07793 0.02064 0.0
C642 C 0.71132 0.07389 0.9897 0.0
C643 C 0.68784 0.07722 0.97696 0.0
C644 C 0.73248 0.06878 0.96952 0.0
C645 C 0.73944 0.076 0.03556 0.0
C646 C 0.73687 0.08464 0.94534 0.0
C647 C 0.7572 0.08098 0.92677 0.0
C648 C 0.77382 0.06151 0.93217 0.0
C649 C 0.76913 0.04523 0.95597 0.0
C650 C 0.74845 0.04867 0.97427 0.0
H651 H 0.73976 0.08562 0.05744 0.0
H652 H 0.74383 0.05624 0.03955 0.0
H653 H 0.75417 0.08401 0.0213 0.0
H654 H 0.72482 0.10027 0.94115 0.0
H655 H 0.76026 0.0939 0.90871 0.0
H656 H 0.42439 0.75241 0.59781 0.0
H657 H 0.41699 0.78635 0.5631 0.0
H658 H 0.44831 0.74341 0.49161 0.0
H659 H 0.45583 0.7091 0.52614 0.0
H660 H 0.46082 0.80046 0.49742 0.0
H661 H 0.36163 0.77307 0.49506 0.0
H662 H 0.37597 0.77534 0.53117 0.0
H663 H 0.38591 0.75187 0.5056 0.0
C664 C 0.43008 0.7502 0.57483 0.0
C665 C 0.44041 0.72783 0.56472 0.0
C666 C 0.42585 0.76967 0.55506 0.0
C667 C 0.43191 0.76721 0.52487 0.0
C668 C 0.44352 0.74556 0.51491 0.0
H669 H 0.36317 0.85791 0.38763 0.0
H670 H 0.38321 0.82348 0.4134 0.0
C671 C 0.44775 0.72599 0.53468 0.0
C672 C 0.42396 0.78635 0.50344 0.0
H673 H 0.37221 0.81059 0.47137 0.0
C674 C 0.44151 0.80264 0.49146 0.0
C675 C 0.39881 0.78884 0.49556 0.0
C676 C 0.37941 0.77129 0.50728 0.0
C677 C 0.43432 0.82198 0.47238 0.0
C678 C 0.40898 0.82506 0.46545 0.0
C679 C 0.39162 0.80821 0.47673 0.0
C680 C 0.39967 0.84622 0.44774 0.0
C681 C 0.45384 0.83895 0.45986 0.0
C682 C 0.40248 0.87044 0.45839 0.0
C683 C 0.39102 0.89016 0.44378 0.0
C684 C 0.37637 0.88603 0.4183 0.0
C685 C 0.37427 0.8618 0.40716 0.0
C686 C 0.38573 0.84208 0.42184 0.0
H687 H 0.47239 0.83012 0.46012 0.0
H688 H 0.44934 0.84449 0.43665 0.0
H689 H 0.45481 0.85594 0.47369 0.0
H690 H 0.41273 0.874 0.47868 0.0
H691 H 0.39311 0.90856 0.453 0.0
H692 H 0.74895 0.42157 0.59849 0.0
H693 H 0.71446 0.41458 0.56443 0.0
H694 H 0.75421 0.45144 0.49409 0.0
H695 H 0.78904 0.45857 0.52794 0.0
H696 H 0.69731 0.46186 0.50314 0.0
H697 H 0.72696 0.36376 0.49141 0.0
H698 H 0.72538 0.37591 0.52871 0.0
H699 H 0.74785 0.38795 0.50315 0.0
C700 C 0.75034 0.42852 0.57592 0.0
C701 C 0.77197 0.44037 0.56589 0.0
C702 C 0.73057 0.42451 0.55652 0.0
C703 C 0.73197 0.43233 0.52681 0.0
C704 C 0.75288 0.44528 0.51701 0.0
H705 H 0.6398 0.36963 0.38708 0.0
H706 H 0.67419 0.38905 0.4135 0.0
C707 C 0.77276 0.44926 0.53639 0.0
C708 C 0.71243 0.4251 0.50554 0.0
H709 H 0.68861 0.37472 0.47003 0.0
C710 C 0.69543 0.44288 0.49566 0.0
C711 C 0.71033 0.4004 0.49565 0.0
C712 C 0.72865 0.38084 0.50503 0.0
C713 C 0.67578 0.43632 0.47672 0.0
C714 C 0.67313 0.41137 0.46777 0.0
C715 C 0.69065 0.39383 0.47697 0.0
C716 C 0.65182 0.40261 0.44995 0.0
C717 C 0.65805 0.45609 0.46645 0.0
C718 C 0.6278 0.40402 0.46155 0.0
C719 C 0.60807 0.3929 0.44656 0.0
C720 C 0.61204 0.37999 0.41973 0.0
C721 C 0.63604 0.37937 0.40767 0.0
C722 C 0.65574 0.39047 0.42273 0.0
H723 H 0.66637 0.47482 0.46815 0.0
H724 H 0.65218 0.45288 0.44305 0.0
H725 H 0.64133 0.45569 0.48076 0.0
H726 H 0.62443 0.41287 0.48282 0.0
H727 H 0.58986 0.39381 0.45651 0.0
H728 H 0.12821 0.63863 0.38962 0.0
H729 H 0.10856 0.67235 0.41728 0.0
H730 H 0.08566 0.62095 0.48525 0.0
H731 H 0.10505 0.58709 0.45796 0.0
H732 H 0.05373 0.6746 0.44664 0.0
H733 H 0.1361 0.67696 0.52129 0.0
H734 H 0.13772 0.66516 0.48369 0.0
H735 H 0.12288 0.64733 0.51221 0.0
C736 C 0.11867 0.63438 0.4102 0.0
C737 C 0.11851 0.61015 0.42171 0.0
C738 C 0.1074 0.65367 0.42589 0.0
C739 C 0.09582 0.64904 0.45326 0.0
C740 C 0.09457 0.6248 0.46413 0.0
H741 H 0.05896 0.74573 0.59973 0.0
H742 H 0.06506 0.70982 0.56757 0.0
C743 C 0.10575 0.6055 0.44849 0.0
C744 C 0.08718 0.66976 0.47192 0.0
H745 H 0.10371 0.70429 0.53221 0.0
C746 C 0.06455 0.68118 0.46539 0.0
C747 C 0.10139 0.67806 0.49633 0.0
C748 C 0.12596 0.66642 0.50391 0.0
C749 C 0.05558 0.7007 0.48304 0.0
C750 C 0.06997 0.70924 0.50734 0.0
C751 C 0.09261 0.69768 0.51371 0.0
C752 C 0.06244 0.73041 0.52631 0.0
C753 C 0.0306 0.71159 0.47586 0.0
C754 C 0.05837 0.75387 0.51382 0.0
C755 C 0.05455 0.77442 0.53218 0.0
C756 C 0.05526 0.77193 0.56338 0.0
C757 C 0.05849 0.74829 0.57579 0.0
C758 C 0.06196 0.72774 0.55743 0.0
H759 H 0.01891 0.69831 0.46327 0.0
H760 H 0.02064 0.71713 0.49643 0.0
H761 H 0.03314 0.72824 0.46175 0.0
H762 H 0.05926 0.75654 0.48993 0.0
H763 H 0.05231 0.79242 0.52194 0.0
H764 H 0.74156 0.09429 0.58672 0.0
H765 H 0.77661 0.09956 0.55346 0.0
H766 H 0.75351 0.03575 0.50285 0.0
H767 H 0.71743 0.03107 0.53545 0.0
H768 H 0.81484 0.07264 0.54065 0.0
H769 H 0.75953 0.08508 0.43735 0.0
H770 H 0.74551 0.08384 0.47373 0.0
H771 H 0.75511 0.05583 0.45544 0.0
C772 C 0.7439 0.08128 0.56858 0.0
C773 C 0.72657 0.06237 0.56358 0.0
C774 C 0.76402 0.08432 0.54954 0.0
C775 C 0.76752 0.06835 0.52526 0.0
C776 C 0.75082 0.04876 0.52088 0.0
H777 H 0.90961 0.0928 0.43337 0.0
H778 H 0.87621 0.07133 0.45959 0.0
C779 C 0.73032 0.04599 0.53965 0.0
C780 C 0.78853 0.07286 0.50464 0.0
H781 H 0.80271 0.0874 0.43259 0.0
C782 C 0.81222 0.07575 0.51697 0.0
C783 C 0.78507 0.07702 0.47376 0.0
C784 C 0.75992 0.07551 0.45927 0.0
C785 C 0.83225 0.08391 0.49973 0.0
C786 C 0.8288 0.08815 0.46883 0.0
C787 C 0.80537 0.08408 0.45622 0.0
C788 C 0.84848 0.09909 0.44984 0.0
C789 C 0.85641 0.08932 0.51533 0.0
C790 C 0.84367 0.12094 0.43387 0.0
C791 C 0.86248 0.13271 0.41799 0.0
C792 C 0.88658 0.12311 0.41823 0.0
C793 C 0.89123 0.10076 0.43321 0.0
C794 C 0.87222 0.08861 0.44841 0.0
H795 H 0.85392 0.09146 0.53977 0.0
H796 H 0.86936 0.07371 0.51168 0.0
H797 H 0.86504 0.10647 0.50658 0.0
H798 H 0.82552 0.12938 0.4345 0.0
H799 H 0.85842 0.14995 0.40669 0.0
H800 H 0.48351 0.88936 0.99137 0.0
H801 H 0.49052 0.92963 0.01493 0.0
H802 H 0.49438 0.96403 0.92834 0.0
H803 H 0.48718 0.92402 0.90461 0.0
H804 H 0.52964 0.96505 0.00749 0.0
H805 H 0.43819 0.00143 0.97186 0.0
H806 H 0.4457 0.9689 0.97105 0.0
H807 H 0.45694 0.98914 0.94233 0.0
C808 C 0.48615 0.90546 0.97735 0.0
C809 C 0.48458 0.90361 0.94617 0.0
C810 C 0.49009 0.92841 0.99083 0.0
C811 C 0.49241 0.94976 0.97331 0.0
C812 C 0.49208 0.94777 0.94218 0.0
H813 H 0.51271 0.10544 0.00917 0.0
H814 H 0.5049 0.06501 0.9864 0.0
C815 C 0.48812 0.92489 0.9287 0.0
C816 C 0.49465 0.97424 0.98754 0.0
H817 H 0.46562 0.02996 0.99463 0.0
C818 C 0.51563 0.97923 0.00484 0.0
C819 C 0.47626 0.99259 0.98394 0.0
C820 C 0.45288 0.98777 0.96651 0.0
C821 C 0.51899 0.0024 0.01822 0.0
C822 C 0.50063 0.02078 0.01456 0.0
C823 C 0.47961 0.01577 0.99732 0.0
C824 C 0.50308 0.0454 0.02838 0.0
C825 C 0.54239 0.00723 0.03561 0.0
C826 C 0.50371 0.04775 0.05947 0.0
C827 C 0.50816 0.07073 0.0725 0.0
C828 C 0.51189 0.09174 0.05461 0.0
C829 C 0.50995 0.08956 0.0235 0.0
C830 C 0.50554 0.06652 0.01047 0.0
H831 H 0.55701 0.99345 0.03042 0.0
H832 H 0.54968 0.02602 0.03085 0.0
H833 H 0.53832 0.00608 0.0598 0.0
H834 H 0.50132 0.0317 0.07362 0.0
H835 H 0.50936 0.07187 0.09656 0.0
H836 H 0.42286 0.49956 0.09409 0.0
H837 H 0.46332 0.49283 0.07136 0.0
H838 H 0.43256 0.50828 0.98464 0.0
H839 H 0.39189 0.51519 0.00724 0.0
H840 H 0.47955 0.46063 0.02348 0.0
H841 H 0.48824 0.56095 0.99788 0.0
H842 H 0.46561 0.549 0.02369 0.0
H843 H 0.46074 0.54606 0.98427 0.0
C844 C 0.4246 0.50115 0.07012 0.0
C845 C 0.40432 0.50814 0.05243 0.0
C846 C 0.4477 0.4973 0.05721 0.0
C847 C 0.45088 0.50055 0.0265 0.0
C848 C 0.43041 0.50609 0.0085 0.0
H849 H 0.57535 0.49634 0.90889 0.0
H850 H 0.53555 0.50319 0.93311 0.0
C851 C 0.40721 0.50984 0.02139 0.0
C852 C 0.47591 0.49941 0.0137 0.0
H853 H 0.52055 0.53492 0.98127 0.0
C854 C 0.4886 0.47683 0.01429 0.0
C855 C 0.48756 0.52072 0.00202 0.0
C856 C 0.47499 0.54564 0.00206 0.0
C857 C 0.51259 0.47483 0.00279 0.0
C858 C 0.5242 0.49612 0.99099 0.0
C859 C 0.51155 0.51873 0.99054 0.0
C860 C 0.54895 0.49486 0.9774 0.0
C861 C 0.5251 0.44988 0.00264 0.0
C862 C 0.56978 0.48889 0.9946 0.0
C863 C 0.59262 0.48504 0.98084 0.0
C864 C 0.59478 0.48707 0.94974 0.0
C865 C 0.57417 0.49447 0.93289 0.0
C866 C 0.55144 0.49841 0.94665 0.0
H867 H 0.51187 0.43461 0.00711 0.0
H868 H 0.53421 0.44644 0.98086 0.0
H869 H 0.53956 0.44948 0.02017 0.0
H870 H 0.56818 0.48648 0.01849 0.0
H871 H 0.60822 0.47938 0.99435 0.0
H872 H 0.01176 0.6091 0.99076 0.0
H873 H 0.00409 0.56904 0.01457 0.0
H874 H 0.00394 0.53365 0.92845 0.0
H875 H 0.01129 0.57351 0.90447 0.0
H876 H 0.96615 0.51723 0.96742 0.0
H877 H 0.05898 0.51615 0.02074 0.0
H878 H 0.04044 0.54294 0.0286 0.0
H879 H 0.05099 0.53741 0.99124 0.0
C880 C 0.00976 0.59283 0.97689 0.0
C881 C 0.01233 0.59438 0.94578 0.0
C882 C 0.00556 0.56998 0.99052 0.0
C883 C 0.00397 0.54841 0.97324 0.0
C884 C 0.00531 0.5501 0.94213 0.0
H885 H 0.98754 0.39105 0.008 0.0
H886 H 0.99466 0.43141 0.98464 0.0
C887 C 0.00951 0.57289 0.9285 0.0
C888 C 0.00168 0.5239 0.98748 0.0
H889 H 0.03213 0.48302 0.03234 0.0
C890 C 0.98055 0.50969 0.98158 0.0
C891 C 0.02062 0.51419 0.0058 0.0
C892 C 0.04416 0.52832 0.01184 0.0
C893 C 0.97766 0.48607 0.99397 0.0
C894 C 0.99662 0.47634 0.01223 0.0
C895 C 0.01772 0.49057 0.01819 0.0
C896 C 0.99447 0.45171 0.02619 0.0
C897 C 0.95412 0.47193 0.98795 0.0
C898 C 0.9931 0.44978 0.05728 0.0
C899 C 0.98921 0.42683 0.07065 0.0
C900 C 0.98674 0.40542 0.05313 0.0
C901 C 0.9893 0.40725 0.02204 0.0
C902 C 0.99317 0.43026 0.00867 0.0
H903 H 0.93927 0.48409 0.97913 0.0
H904 H 0.95783 0.45734 0.97116 0.0
H905 H 0.94734 0.46279 0.00855 0.0
H906 H 0.99426 0.46614 0.07114 0.0
H907 H 0.98743 0.426 0.09467 0.0
H908 H 0.07333 0.98934 0.09668 0.0
H909 H 0.03285 0.99552 0.07372 0.0
H910 H 0.06618 0.99265 0.98651 0.0
H911 H 0.10685 0.98622 0.00929 0.0
H912 H 0.01526 0.03187 0.03263 0.0
H913 H 0.01372 0.93662 0.98601 0.0
H914 H 0.03533 0.94609 0.0145 0.0
H915 H 0.04036 0.9548 0.97635 0.0
C916 C 0.07213 0.99032 0.07261 0.0
C917 C 0.09322 0.98708 0.05474 0.0
C918 C 0.04899 0.99383 0.05957 0.0
C919 C 0.04656 0.99403 0.02849 0.0
C920 C 0.06771 0.99207 0.01057 0.0
H921 H 0.92523 0.00597 0.9063 0.0
H922 H 0.96468 0.9987 0.93121 0.0
C923 C 0.09092 0.9886 0.02361 0.0
C924 C 0.02174 0.99547 0.01495 0.0
H925 H 0.98053 0.96296 0.97274 0.0
C926 C 0.00758 0.01682 0.01961 0.0
C927 C 0.01185 0.97566 0.99819 0.0
C928 C 0.02596 0.95188 0.9936 0.0
C929 C 0.98389 0.01917 0.00725 0.0
C930 C 0.97404 -0.00059 0.99033 0.0
C931 C 0.98816 0.97799 0.98586 0.0
C932 C 0.94964 0.00123 0.97576 0.0
C933 C 0.96989 0.04304 0.01167 0.0
C934 C 0.928 0.0041 0.99265 0.0
C935 C 0.90537 0.00827 0.97847 0.0
C936 C 0.90413 0.00953 0.94723 0.0
C937 C 0.92562 0.00523 0.93042 0.0
C938 C 0.94818 0.00108 0.94459 0.0
H939 H 0.98213 0.0582 0.01954 0.0
H940 H 0.96084 0.04897 0.99062 0.0
H941 H 0.95526 0.04018 0.02864 0.0
H942 H 0.92875 0.00377 0.01676 0.0
H943 H 0.88909 0.01144 0.99198 0.0
H944 H 0.48255 0.60683 0.51204 0.0
H945 H 0.49001 0.5662 0.48963 0.0
H946 H 0.4902 0.53284 0.57694 0.0
H947 H 0.48305 0.57329 0.59953 0.0
H948 H 0.52817 0.51577 0.53841 0.0
H949 H 0.43533 0.51281 0.48543 0.0
H950 H 0.45342 0.53972 0.47671 0.0
H951 H 0.44319 0.53468 0.51431 0.0
C952 C 0.48448 0.59089 0.52646 0.0
C953 C 0.48203 0.59319 0.55751 0.0
C954 C 0.48855 0.5677 0.51363 0.0
C955 C 0.49014 0.54655 0.53166 0.0
C956 C 0.48883 0.54897 0.56269 0.0
H957 H 0.5126 0.38957 0.49275 0.0
H958 H 0.50364 0.42855 0.51851 0.0
C959 C 0.48475 0.57209 0.57553 0.0
C960 C 0.49258 0.52176 0.51822 0.0
H961 H 0.46299 0.48037 0.47328 0.0
C962 C 0.51391 0.50793 0.52427 0.0
C963 C 0.4738 0.51164 0.50001 0.0
C964 C 0.45002 0.52534 0.49387 0.0
C965 C 0.51735 0.48441 0.51178 0.0
C966 C 0.49868 0.47439 0.49329 0.0
C967 C 0.4772 0.48812 0.48757 0.0
C968 C 0.50179 0.45036 0.47811 0.0
C969 C 0.54125 0.47085 0.51769 0.0
C970 C 0.50255 0.44961 0.44692 0.0
C971 C 0.50739 0.42746 0.43221 0.0
C972 C 0.51151 0.40562 0.44845 0.0
C973 C 0.5096 0.40614 0.47968 0.0
C974 C 0.50469 0.42839 0.49441 0.0
H975 H 0.55572 0.48331 0.52683 0.0
H976 H 0.53789 0.45596 0.53421 0.0
H977 H 0.54838 0.46219 0.49697 0.0
H978 H 0.5002 0.46636 0.43396 0.0
H979 H 0.50864 0.42764 0.40812 0.0
H980 H 0.07334 0.50379 0.40736 0.0
H981 H 0.03394 0.49624 0.43213 0.0
H982 H 0.06908 0.50494 0.51779 0.0
H983 H 0.10871 0.51292 0.49311 0.0
H984 H 0.01866 0.46151 0.47503 0.0
H985 H 0.01441 0.55813 0.51724 0.0
H986 H 0.03617 0.54847 0.48908 0.0
H987 H 0.04161 0.54108 0.52756 0.0
C988 C 0.0728 0.50379 0.43149 0.0
C989 C 0.09403 0.50922 0.44833 0.0
C990 C 0.05027 0.49947 0.44557 0.0
C991 C 0.04859 0.50056 0.47669 0.0
C992 C 0.07 0.50453 0.49369 0.0
H993 H 0.92499 0.48917 0.59694 0.0
H994 H 0.96524 0.49587 0.57374 0.0
C995 C 0.09262 0.50888 0.47959 0.0
C996 C 0.02413 0.49863 0.49101 0.0
H997 H 0.98179 0.53146 0.53113 0.0
C998 C 0.01056 0.47676 0.48732 0.0
C999 C 0.01367 0.51871 0.50679 0.0
C1000 C 0.02707 0.54303 0.51026 0.0
C1001 C 0.98681 0.47427 0.4994 0.0
C1002 C 0.97633 0.49437 0.51508 0.0
C1003 C 0.98993 0.51619 0.51892 0.0
C1004 C 0.95156 0.49269 0.52861 0.0
C1005 C 0.97329 0.45004 0.49573 0.0
C1006 C 0.93048 0.4896 0.51077 0.0
C1007 C 0.9074 0.4858 0.52394 0.0
C1008 C 0.90518 0.48509 0.55512 0.0
C1009 C 0.92616 0.48949 0.57284 0.0
C1010 C 0.94916 0.49331 0.55967 0.0
H1011 H 0.9859 0.43487 0.48885 0.0
H1012 H 0.964 0.44463 0.51682 0.0
H1013 H 0.95888 0.45212 0.47831 0.0
H1014 H 0.932 0.48952 0.4867 0.0
H1015 H 0.89153 0.48253 0.50975 0.0
H1016 H 0.01077 0.92615 0.59614 0.0
H1017 H 0.00244 0.96621 0.57307 0.0
H1018 H 0.00626 0.93266 0.48599 0.0
H1019 H 0.01425 0.89239 0.50891 0.0
H1020 H 0.0346 0.9901 0.53442 0.0
H1021 H 0.94336 0.97438 0.481 0.0
H1022 H 0.95554 0.95426 0.50958 0.0
H1023 H 0.96625 0.95158 0.4718 0.0
C1024 C 0.00942 0.9272 0.57209 0.0
C1025 C 0.01316 0.90614 0.5543 0.0
C1026 C 0.00471 0.9501 0.55897 0.0
C1027 C 0.00357 0.95233 0.52788 0.0
C1028 C 0.00663 0.93122 0.51006 0.0
H1029 H 0.99077 0.07358 0.4041 0.0
H1030 H 0.99872 0.03397 0.42848 0.0
C1031 C 0.01126 0.90826 0.52318 0.0
C1032 C 0.00096 0.977 0.51411 0.0
H1033 H 0.96476 0.01108 0.46737 0.0
C1034 C 0.01926 0.99479 0.5199 0.0
C1035 C 0.98095 0.98294 0.49517 0.0
C1036 C 0.96027 0.96488 0.48918 0.0
C1037 C 0.01833 0.01828 0.50674 0.0
C1038 C 0.99842 0.02414 0.48763 0.0
C1039 C 0.98006 0.00641 0.48196 0.0
C1040 C 0.99613 0.04859 0.47324 0.0
C1041 C 0.0389 0.03644 0.51283 0.0
C1042 C 0.99245 0.06994 0.49042 0.0
C1043 C 0.98798 0.09264 0.47656 0.0
C1044 C 0.98695 0.09423 0.44532 0.0
C1045 C 0.99145 0.07294 0.42821 0.0
C1046 C 0.99593 0.0503 0.44207 0.0
H1047 H 0.05556 0.02717 0.52206 0.0
H1048 H 0.04418 0.04647 0.4922 0.0
H1049 H 0.03247 0.05027 0.52937 0.0
H1050 H 0.99216 0.06888 0.51452 0.0
H1051 H 0.98443 0.10871 0.49032 0.0
H1052 H 0.60879 0.01643 0.5065 0.0
H1053 H 0.56892 0.00788 0.48268 0.0
H1054 H 0.53454 0.0019 0.56907 0.0
H1055 H 0.57422 0.01023 0.59305 0.0
H1056 H 0.51979 0.96498 0.52643 0.0
H1057 H 0.5133 0.06107 0.48277 0.0
H1058 H 0.54106 0.04455 0.47337 0.0
H1059 H 0.53491 0.0523 0.51156 0.0
C1060 C 0.59281 0.01293 0.5204 0.0
C1061 C 0.59455 0.01421 0.55161 0.0
C1062 C 0.57006 0.00822 0.50678 0.0
C1063 C 0.54881 0.00474 0.52419 0.0
C1064 C 0.55075 0.00472 0.55532 0.0
H1065 H 0.39221 0.98258 0.48979 0.0
H1066 H 0.43241 0.99012 0.51332 0.0
C1067 C 0.57343 0.00949 0.56894 0.0
C1068 C 0.5243 0.00213 0.51011 0.0
H1069 H 0.48134 0.03348 0.46918 0.0
C1070 C 0.51132 0.97992 0.51392 0.0
C1071 C 0.51339 0.02178 0.494 0.0
C1072 C 0.52623 0.04638 0.4903 0.0
C1073 C 0.48775 0.97666 0.50155 0.0
C1074 C 0.47681 0.99633 0.48549 0.0
C1075 C 0.48981 0.01853 0.48165 0.0
C1076 C 0.45218 0.99388 0.47165 0.0
C1077 C 0.47495 0.95204 0.50518 0.0
C1078 C 0.44995 0.99457 0.44056 0.0
C1079 C 0.42709 0.99042 0.42711 0.0
C1080 C 0.40605 0.98566 0.44457 0.0
C1081 C 0.40811 0.98615 0.47578 0.0
C1082 C 0.43105 0.99026 0.48923 0.0
H1083 H 0.48797 0.93729 0.5123 0.0
H1084 H 0.46035 0.95373 0.52243 0.0
H1085 H 0.46598 0.94628 0.48402 0.0
H1086 H 0.46606 0.99753 0.42667 0.0
H1087 H 0.42606 0.99026 0.403 0.0
H1088 H 0.49064 0.29378 0.3689 0.0
H1089 H 0.48339 0.26537 0.3271 0.0
H1090 H 0.52222 0.31514 0.2683 0.0
H1091 H 0.5306 0.3428 0.3102 0.0
H1092 H 0.46285 0.2664 0.27044 0.0
H1093 H 0.56449 0.25367 0.2654 0.0
H1094 H 0.54963 0.27021 0.29528 0.0
H1095 H 0.55534 0.28522 0.26012 0.0
C1096 C 0.49724 0.29876 0.34691 0.0
C1097 C 0.51153 0.32014 0.34268 0.0
C1098 C 0.49305 0.2826 0.32309 0.0
C1099 C 0.50281 0.28791 0.29482 0.0
C1100 C 0.51513 0.31041 0.29014 0.0
H1101 H 0.48765 0.20497 0.12922 0.0
H1102 H 0.47975 0.23359 0.1706 0.0
C1103 C 0.51985 0.32619 0.314 0.0
C1104 C 0.50258 0.26892 0.27111 0.0
H1105 H 0.54115 0.23549 0.2267 0.0
C1106 C 0.47991 0.2595 0.26088 0.0
C1107 C 0.52493 0.25964 0.25917 0.0
C1108 C 0.54997 0.2675 0.27075 0.0
C1109 C 0.47905 0.24123 0.2386 0.0
C1110 C 0.50142 0.23268 0.22595 0.0
C1111 C 0.52399 0.2421 0.23635 0.0
C1112 C 0.50244 0.21361 0.20231 0.0
C1113 C 0.45432 0.23091 0.22932 0.0
C1114 C 0.51767 0.19287 0.2064 0.0
C1115 C 0.52272 0.17707 0.18271 0.0
C1116 C 0.51226 0.18141 0.15461 0.0
C1117 C 0.49577 0.20121 0.15083 0.0
C1118 C 0.49111 0.21743 0.17449 0.0
H1119 H 0.44003 0.23401 0.2467 0.0
H1120 H 0.44812 0.24035 0.20866 0.0
H1121 H 0.45555 0.21078 0.22469 0.0
H1122 H 0.52657 0.18954 0.22767 0.0
H1123 H 0.53537 0.16179 0.18619 0.0
H1124 H 0.15496 0.52892 0.31186 0.0
H1125 H 0.1802 0.51915 0.26836 0.0
H1126 H 0.23295 0.48196 0.32506 0.0
H1127 H 0.20678 0.49044 0.36843 0.0
H1128 H 0.22285 0.53796 0.2609 0.0
H1129 H 0.23431 0.43649 0.25526 0.0
H1130 H 0.21114 0.45093 0.27838 0.0
H1131 H 0.24257 0.44822 0.29127 0.0
C1132 C 0.17164 0.51812 0.31485 0.0
C1133 C 0.1791 0.51049 0.34331 0.0
C1134 C 0.18602 0.51249 0.29003 0.0
C1135 C 0.20844 0.49968 0.29334 0.0
C1136 C 0.21545 0.49126 0.32176 0.0
H1137 H 0.33382 0.53334 0.18569 0.0
H1138 H 0.30456 0.52517 0.22591 0.0
C1139 C 0.20064 0.49631 0.34656 0.0
C1140 C 0.22593 0.49862 0.26798 0.0
H1141 H 0.26464 0.46084 0.22866 0.0
C1142 C 0.23165 0.52097 0.25364 0.0
C1143 C 0.23736 0.47648 0.2583 0.0
C1144 C 0.23082 0.45165 0.27142 0.0
C1145 C 0.24879 0.52196 0.23043 0.0
C1146 C 0.26139 0.50015 0.22205 0.0
C1147 C 0.25523 0.47759 0.2356 0.0
C1148 C 0.2813 0.50099 0.19962 0.0
C1149 C 0.25319 0.54643 0.21507 0.0
C1150 C 0.27866 0.48883 0.17218 0.0
C1151 C 0.29566 0.49314 0.14927 0.0
C1152 C 0.31523 0.50983 0.15362 0.0
C1153 C 0.31864 0.52069 0.1817 0.0
C1154 C 0.30198 0.51605 0.20463 0.0
H1155 H 0.23725 0.55917 0.21791 0.0
H1156 H 0.26967 0.55547 0.22499 0.0
H1157 H 0.25656 0.54387 0.19086 0.0
H1158 H 0.26283 0.47705 0.16801 0.0
H1159 H 0.29273 0.48452 0.12777 0.0
H1160 H 0.02511 0.31053 0.13907 0.0
H1161 H 0.0375 0.28425 0.18116 0.0
H1162 H 0.96503 0.29287 0.21984 0.0
H1163 H 0.95274 0.31932 0.17847 0.0
H1164 H 0.00391 0.29708 0.26125 0.0
H1165 H 0.01231 0.21282 0.19036 0.0
H1166 H 0.03056 0.23935 0.18037 0.0
H1167 H 0.99752 0.24061 0.17705 0.0
C1168 C 0.01192 0.30692 0.15669 0.0
C1169 C 0.9879 0.3168 0.15541 0.0
C1170 C 0.019 0.29188 0.18062 0.0
C1171 C 0.00208 0.28645 0.20339 0.0
C1172 C 0.97837 0.29688 0.20248 0.0
H1173 H 0.95652 0.17679 0.31631 0.0
H1174 H 0.96896 0.2051 0.27685 0.0
C1175 C 0.97134 0.31191 0.17875 0.0
C1176 C 0.00813 0.269 0.22769 0.0
H1177 H 0.01316 0.20725 0.24204 0.0
C1178 C 0.00653 0.27749 0.25717 0.0
C1179 C 0.01151 0.24349 0.22211 0.0
C1180 C 0.01297 0.23335 0.19082 0.0
C1181 C 0.00644 0.26093 0.28123 0.0
C1182 C 0.00836 0.2353 0.27552 0.0
C1183 C 0.01176 0.22696 0.2462 0.0
C1184 C 0.00262 0.21684 0.29878 0.0
C1185 C 0.00238 0.27079 0.31232 0.0
C1186 C 0.01767 0.2138 0.32399 0.0
C1187 C 0.01052 0.1976 0.34676 0.0
C1188 C 0.98827 0.18429 0.34449 0.0
C1189 C 0.9737 0.18687 0.31878 0.0
C1190 C 0.98084 0.20297 0.29614 0.0
H1191 H 0.99848 0.29096 0.31244 0.0
H1192 H 0.9867 0.26102 0.32312 0.0
H1193 H 0.01916 0.26742 0.32596 0.0
H1194 H 0.03468 0.2242 0.32624 0.0
H1195 H 0.02214 0.19587 0.36631 0.0
H1196 H 0.30598 0.02273 0.36433 0.0
H1197 H 0.27811 0.03548 0.32388 0.0
H1198 H 0.2948 0.96814 0.27646 0.0
H1199 H 0.32269 0.95549 0.31627 0.0
H1200 H 0.29417 0.01152 0.2403 0.0
H1201 H 0.21012 0.00162 0.31126 0.0
H1202 H 0.23439 0.02178 0.32399 0.0
H1203 H 0.23961 0.98904 0.32238 0.0
C1204 C 0.30382 0.01079 0.34512 0.0
C1205 C 0.31634 0.98803 0.34351 0.0
C1206 C 0.28788 0.01806 0.32214 0.0
C1207 C 0.28429 0.00263 0.29738 0.0
C1208 C 0.29738 0.98032 0.29539 0.0
H1209 H 0.18027 0.95322 0.17911 0.0
H1210 H 0.20723 0.96571 0.21991 0.0
C1211 C 0.31322 0.97307 0.31823 0.0
C1212 C 0.26603 0.00855 0.27396 0.0
H1213 H 0.20413 0.00593 0.25989 0.0
C1214 C 0.27443 0.01094 0.24453 0.0
C1215 C 0.24036 0.0077 0.27976 0.0
C1216 C 0.23041 0.00479 0.31098 0.0
C1217 C 0.25788 0.01067 0.22046 0.0
C1218 C 0.23229 0.00831 0.22618 0.0
C1219 C 0.22379 0.00777 0.25571 0.0
C1220 C 0.21463 0.00218 0.20215 0.0
C1221 C 0.26801 0.01098 0.18913 0.0
C1222 C 0.20963 0.01871 0.1788 0.0
C1223 C 0.19429 0.01151 0.15521 0.0
C1224 C 0.1837 0.98776 0.15483 0.0
C1225 C 0.18823 0.97159 0.1787 0.0
C1226 C 0.20354 0.97874 0.20211 0.0
H1227 H 0.2885 0.00973 0.18868 0.0
H1228 H 0.26029 0.99537 0.17602 0.0
H1229 H 0.26248 0.02843 0.17797 0.0
H1230 H 0.2178 0.03699 0.17866 0.0
H1231 H 0.19097 0.0244 0.13717 0.0
H1232 H 0.5213 0.80294 0.86641 0.0
H1233 H 0.53464 0.77649 0.82493 0.0
H1234 H 0.46822 0.79519 0.77669 0.0
H1235 H 0.45493 0.82156 0.81764 0.0
H1236 H 0.50906 0.73566 0.80395 0.0
H1237 H 0.52159 0.80337 0.71322 0.0
H1238 H 0.52105 0.81225 0.75205 0.0
H1239 H 0.49261 0.80805 0.73176 0.0
C1240 C 0.50976 0.80163 0.84675 0.0
C1241 C 0.48708 0.81427 0.84521 0.0
C1242 C 0.51741 0.78659 0.82312 0.0
C1243 C 0.50265 0.7843 0.79754 0.0
C1244 C 0.48021 0.79722 0.79589 0.0
H1245 H 0.45286 0.67741 0.68403 0.0
H1246 H 0.4667 0.70363 0.7249 0.0
C1247 C 0.47252 0.81209 0.81945 0.0
C1248 C 0.509 0.7666 0.77366 0.0
H1249 H 0.50951 0.76175 0.69793 0.0
C1250 C 0.50988 0.74136 0.78079 0.0
C1251 C 0.51062 0.77406 0.74352 0.0
C1252 C 0.5117 0.80095 0.73472 0.0
C1253 C 0.50979 0.72332 0.75836 0.0
C1254 C 0.50842 0.73083 0.72823 0.0
C1255 C 0.51012 0.75603 0.7211 0.0
C1256 C 0.50157 0.71332 0.70434 0.0
C1257 C 0.50998 0.69641 0.76716 0.0
C1258 C 0.51642 0.71043 0.67895 0.0
C1259 C 0.50846 0.69546 0.65538 0.0
C1260 C 0.48541 0.68351 0.65679 0.0
C1261 C 0.47073 0.68633 0.68234 0.0
C1262 C 0.47872 0.70112 0.70585 0.0
H1263 H 0.51968 0.69367 0.78874 0.0
H1264 H 0.49066 0.68991 0.76993 0.0
H1265 H 0.51906 0.68484 0.7499 0.0
H1266 H 0.53397 0.71997 0.67725 0.0
H1267 H 0.52011 0.69366 0.63587 0.0
H1268 H 0.83111 0.46026 0.68717 0.0
H1269 H 0.80142 0.46936 0.7266 0.0
H1270 H 0.76521 0.52248 0.66967 0.0
H1271 H 0.79551 0.51395 0.63018 0.0
H1272 H 0.76723 0.53643 0.73175 0.0
H1273 H 0.73134 0.44163 0.71416 0.0
H1274 H 0.76387 0.44203 0.72195 0.0
H1275 H 0.75236 0.45633 0.68847 0.0
C1276 C 0.81708 0.47418 0.68322 0.0
C1277 C 0.81531 0.48616 0.65558 0.0
C1278 C 0.80016 0.47935 0.70572 0.0
C1279 C 0.78089 0.49617 0.70072 0.0
C1280 C 0.77995 0.50935 0.67381 0.0
H1281 H 0.65337 0.47277 0.81294 0.0
H1282 H 0.67813 0.48307 0.76917 0.0
C1283 C 0.79718 0.50444 0.65133 0.0
C1284 C 0.7606 0.49792 0.72256 0.0
H1285 H 0.71872 0.46189 0.75871 0.0
C1286 C 0.75632 0.5203 0.7375 0.0
C1287 C 0.74602 0.47699 0.72935 0.0
C1288 C 0.74842 0.45297 0.71242 0.0
C1289 C 0.7385 0.52192 0.76022 0.0
C1290 C 0.72522 0.50042 0.76851 0.0
C1291 C 0.72893 0.47839 0.75258 0.0
C1292 C 0.70813 0.49954 0.79431 0.0
C1293 C 0.7341 0.5466 0.77493 0.0
C1294 C 0.71628 0.5062 0.82297 0.0
C1295 C 0.70175 0.50094 0.84794 0.0
C1296 C 0.67933 0.48824 0.84457 0.0
C1297 C 0.67074 0.48244 0.81596 0.0
C1298 C 0.68484 0.48836 0.79101 0.0
H1299 H 0.73841 0.56208 0.75948 0.0
H1300 H 0.71468 0.54852 0.78256 0.0
H1301 H 0.7465 0.54839 0.79451 0.0
H1302 H 0.73444 0.51416 0.82625 0.0
H1303 H 0.70875 0.50535 0.86993 0.0
H1304 H 0.04661 0.82014 0.67945 0.0
H1305 H 0.03426 0.79265 0.71979 0.0
H1306 H 0.96417 0.77991 0.67657 0.0
H1307 H 0.97661 0.80734 0.63557 0.0
H1308 H 0.99273 0.79466 0.7585 0.0
H1309 H 0.994 0.70997 0.68761 0.0
H1310 H 0.00786 0.7386 0.67549 0.0
H1311 H 0.97486 0.73541 0.67599 0.0
C1312 C 0.02852 0.81161 0.67851 0.0
C1313 C 0.01264 0.81574 0.65426 0.0
C1314 C 0.02145 0.79598 0.70165 0.0
C1315 C 0.9984 0.78414 0.70101 0.0
C1316 C 0.98215 0.78869 0.67725 0.0
H1317 H 0.97595 0.69289 0.86277 0.0
H1318 H 0.9638 0.72007 0.82139 0.0
C1319 C 0.98925 0.80439 0.65395 0.0
C1320 C 0.99237 0.76631 0.72488 0.0
H1321 H 0.99118 0.70437 0.73922 0.0
C1322 C 0.99177 0.77492 0.75437 0.0
C1323 C 0.9912 0.74062 0.71922 0.0
C1324 C 0.99212 0.73042 0.68793 0.0
C1325 C 0.99179 0.75843 0.7785 0.0
C1326 C 0.99206 0.73272 0.77283 0.0
C1327 C 0.9909 0.72413 0.74336 0.0
C1328 C 0.99772 0.71474 0.79669 0.0
C1329 C 0.99341 0.7686 0.80976 0.0
C1330 C 0.02047 0.70234 0.796 0.0
C1331 C 0.02739 0.68688 0.81938 0.0
C1332 C 0.01165 0.68348 0.84391 0.0
C1333 C 0.98849 0.69529 0.84418 0.0
C1334 C 0.98155 0.71083 0.82067 0.0
H1335 H 0.99598 0.78899 0.81004 0.0
H1336 H 0.97613 0.7642 0.82198 0.0
H1337 H 0.00902 0.75991 0.82197 0.0
H1338 H 0.03321 0.70517 0.77769 0.0
H1339 H 0.04529 0.67795 0.81845 0.0
H1340 H 0.6783 0.04939 0.67885 0.0
H1341 H 0.70558 0.03724 0.71953 0.0
H1342 H 0.71909 0.96718 0.67657 0.0
H1343 H 0.69195 0.97943 0.63524 0.0
H1344 H 0.70405 0.99619 0.75846 0.0
H1345 H 0.78861 0.99718 0.68746 0.0
H1346 H 0.75982 0.01057 0.67513 0.0
H1347 H 0.76345 0.9776 0.67605 0.0
C1348 C 0.68697 0.03135 0.67805 0.0
C1349 C 0.68319 0.01544 0.65375 0.0
C1350 C 0.70247 0.02439 0.70138 0.0
C1351 C 0.71449 0.00143 0.70088 0.0
C1352 C 0.7102 0.98512 0.67712 0.0
H1353 H 0.80551 0.9772 0.8623 0.0
H1354 H 0.77778 0.96614 0.82107 0.0
C1355 C 0.69468 0.99211 0.65363 0.0
C1356 C 0.73234 0.99556 0.72479 0.0
H1357 H 0.79425 0.99371 0.739 0.0
C1358 C 0.72377 0.99509 0.75429 0.0
C1359 C 0.758 0.99419 0.71908 0.0
C1360 C 0.76818 0.99503 0.68778 0.0
C1361 C 0.74028 0.99494 0.77838 0.0
C1362 C 0.76598 0.99491 0.77266 0.0
C1363 C 0.7745 0.9937 0.74317 0.0
C1364 C 0.78411 -1e-05 0.79651 0.0
C1365 C 0.73017 0.99664 0.80967 0.0
C1366 C 0.79728 0.02232 0.79583 0.0
C1367 C 0.81311 0.0286 0.81911 0.0
C1368 C 0.81608 0.01264 0.84352 0.0
C1369 C 0.80344 0.98991 0.84381 0.0
C1370 C 0.78758 0.9836 0.82038 0.0
H1371 H 0.70988 -0.00017 0.80995 0.0
H1372 H 0.73402 0.97912 0.82168 0.0
H1373 H 0.73933 0.01187 0.82206 0.0
H1374 H 0.79481 0.03522 0.77758 0.0
H1375 H 0.82267 0.04619 0.8182 0.0
loop_
_geom_bond_atom_site_label_1
_geom_bond_atom_site_label_2
_geom_bond_distance
_geom_bond_site_symmetry_2
_ccdc_geom_bond_type
Co0 O1 2.216 . S
Co0 O2 2.091 . S
Co0 O4 2.004 . S
Co0 O10 2.021 . S
Co0 O12 2.137 . S
Co0 O13 2.244 . S
O1 Co0 2.216 . S
O1 C8 1.247 . S
O2 Co0 2.091 . S
O2 C8 1.261 . S
C3 O12 1.247 . S
C3 O13 1.272 . S
O4 Co0 2.004 . S
O4 C9 1.259 . S
Co5 O6 2.061 . S
Co5 O11 2.052 . S
Co5 O13 2.135 . S
O6 Co5 2.061 . S
O6 C9 1.235 . S
C7 O10 1.238 . S
C7 O11 1.241 . S
C8 O1 1.247 . S
C8 O2 1.261 . S
C9 O4 1.259 . S
C9 O6 1.235 . S
O10 Co0 2.021 . S
O10 C7 1.238 . S
O11 Co5 2.052 . S
O11 C7 1.241 . S
O12 Co0 2.137 . S
O12 C3 1.247 . S
O13 Co0 2.244 . S
O13 C3 1.272 . S
O13 Co5 2.135 . S
Co14 O15 2.216 . S
Co14 O16 2.091 . S
Co14 O18 2.004 . S
Co14 O24 2.021 . S
Co14 O26 2.137 . S
Co14 O27 2.244 . S
O15 Co14 2.216 . S
O15 C22 1.247 . S
O16 Co14 2.091 . S
O16 C22 1.261 . S
C17 O26 1.247 . S
C17 O27 1.272 . S
O18 Co14 2.004 . S
O18 C23 1.259 . S
Co19 O20 2.061 . S
Co19 O25 2.052 . S
Co19 O27 2.135 . S
O20 Co19 2.061 . S
O20 C23 1.235 . S
C21 O24 1.238 . S
C21 O25 1.241 . S
C22 O15 1.247 . S
C22 O16 1.261 . S
C23 O18 1.259 . S
C23 O20 1.235 . S
O24 Co14 2.021 . S
O24 C21 1.238 . S
O25 Co19 2.052 . S
O25 C21 1.241 . S
O26 Co14 2.137 . S
O26 C17 1.247 . S
O27 Co14 2.244 . S
O27 C17 1.272 . S
O27 Co19 2.135 . S
Co28 O29 2.216 . S
Co28 O30 2.091 . S
Co28 O32 2.004 . S
Co28 O38 2.021 . S
Co28 O40 2.137 . S
Co28 O41 2.244 . S
O29 Co28 2.216 . S
O29 C36 1.247 . S
O30 Co28 2.091 . S
O30 C36 1.261 . S
C31 O40 1.247 . S
C31 O41 1.272 . S
O32 Co28 2.004 . S
O32 C37 1.259 . S
Co33 O34 2.061 . S
Co33 O39 2.052 . S
Co33 O41 2.135 . S
O34 Co33 2.061 . S
O34 C37 1.235 . S
C35 O38 1.238 . S
C35 O39 1.241 . S
C36 O29 1.247 . S
C36 O30 1.261 . S
C37 O32 1.259 . S
C37 O34 1.235 . S
O38 Co28 2.021 . S
O38 C35 1.238 . S
O39 Co33 2.052 . S
O39 C35 1.241 . S
O40 Co28 2.137 . S
O40 C31 1.247 . S
O41 Co28 2.244 . S
O41 C31 1.272 . S
O41 Co33 2.135 . S
Co42 O43 2.216 . S
Co42 O44 2.091 . S
Co42 O46 2.004 . S
Co42 O52 2.021 . S
Co42 O54 2.137 . S
Co42 O55 2.244 . S
O43 Co42 2.216 . S
O43 C50 1.247 . S
O44 Co42 2.091 . S
O44 C50 1.261 . S
C45 O54 1.247 . S
C45 O55 1.272 . S
O46 Co42 2.004 . S
O46 C51 1.259 . S
Co47 O48 2.061 . S
Co47 O53 2.052 . S
Co47 O55 2.135 . S
O48 Co47 2.061 . S
O48 C51 1.235 . S
C49 O52 1.238 . S
C49 O53 1.241 . S
C50 O43 1.247 . S
C50 O44 1.261 . S
C51 O46 1.259 . S
C51 O48 1.235 . S
O52 Co42 2.021 . S
O52 C49 1.238 . S
O53 Co47 2.052 . S
O53 C49 1.241 . S
O54 Co42 2.137 . S
O54 C45 1.247 . S
O55 Co42 2.244 . S
O55 C45 1.272 . S
O55 Co47 2.135 . S
Co56 O57 2.216 . S
Co56 O58 2.091 . S
Co56 O60 2.004 . S
Co56 O66 2.021 . S
Co56 O68 2.137 . S
Co56 O69 2.244 . S
O57 Co56 2.216 . S
O57 C64 1.247 . S
O58 Co56 2.091 . S
O58 C64 1.261 . S
C59 O68 1.247 . S
C59 O69 1.272 . S
O60 Co56 2.004 . S
O60 C65 1.259 . S
Co61 O62 2.061 . S
Co61 O67 2.052 . S
Co61 O69 2.135 . S
O62 Co61 2.061 . S
O62 C65 1.235 . S
C63 O66 1.238 . S
C63 O67 1.241 . S
C64 O57 1.247 . S
C64 O58 1.261 . S
C65 O60 1.259 . S
C65 O62 1.235 . S
O66 Co56 2.021 . S
O66 C63 1.238 . S
O67 Co61 2.052 . S
O67 C63 1.241 . S
O68 Co56 2.137 . S
O68 C59 1.247 . S
O69 Co56 2.244 . S
O69 C59 1.272 . S
O69 Co61 2.135 . S
Co70 O71 2.216 . S
Co70 O72 2.091 . S
Co70 O74 2.004 . S
Co70 O80 2.021 . S
Co70 O82 2.137 . S
Co70 O83 2.244 . S
O71 Co70 2.216 . S
O71 C78 1.247 . S
O72 Co70 2.091 . S
O72 C78 1.261 . S
C73 O82 1.247 . S
C73 O83 1.272 . S
O74 Co70 2.004 . S
O74 C79 1.259 . S
Co75 O76 2.061 . S
Co75 O81 2.052 . S
Co75 O83 2.135 . S
O76 Co75 2.061 . S
O76 C79 1.235 . S
C77 O80 1.238 . S
C77 O81 1.241 . S
C78 O71 1.247 . S
C78 O72 1.261 . S
C79 O74 1.259 . S
C79 O76 1.235 . S
O80 Co70 2.021 . S
O80 C77 1.238 . S
O81 Co75 2.052 . S
O81 C77 1.241 . S
O82 Co70 2.137 . S
O82 C73 1.247 . S
O83 Co70 2.244 . S
O83 C73 1.272 . S
O83 Co75 2.135 . S
Co84 O85 2.216 . S
Co84 O86 2.091 . S
Co84 O88 2.004 . S
Co84 O94 2.021 . S
Co84 O96 2.137 . S
Co84 O97 2.244 . S
O85 Co84 2.216 . S
O85 C92 1.247 . S
O86 Co84 2.091 . S
O86 C92 1.261 . S
C87 O96 1.247 . S
C87 O97 1.272 . S
O88 Co84 2.004 . S
O88 C93 1.259 . S
Co89 O90 2.061 . S
Co89 O95 2.052 . S
Co89 O97 2.135 . S
O90 Co89 2.061 . S
O90 C93 1.235 . S
C91 O94 1.238 . S
C91 O95 1.241 . S
C92 O85 1.247 . S
C92 O86 1.261 . S
C93 O88 1.259 . S
C93 O90 1.235 . S
O94 Co84 2.021 . S
O94 C91 1.238 . S
O95 Co89 2.052 . S
O95 C91 1.241 . S
O96 Co84 2.137 . S
O96 C87 1.247 . S
O97 Co84 2.244 . S
O97 C87 1.272 . S
O97 Co89 2.135 . S
Co98 O99 2.216 . S
Co98 O100 2.091 . S
Co98 O102 2.004 . S
Co98 O108 2.021 . S
Co98 O110 2.137 . S
Co98 O111 2.244 . S
O99 Co98 2.216 . S
O99 C106 1.247 . S
O100 Co98 2.091 . S
O100 C106 1.261 . S
C101 O110 1.247 . S
C101 O111 1.272 . S
O102 Co98 2.004 . S
O102 C107 1.259 . S
Co103 O104 2.061 . S
Co103 O109 2.052 . S
Co103 O111 2.135 . S
O104 Co103 2.061 . S
O104 C107 1.235 . S
C105 O108 1.238 . S
C105 O109 1.241 . S
C106 O99 1.247 . S
C106 O100 1.261 . S
C107 O102 1.259 . S
C107 O104 1.235 . S
O108 Co98 2.021 . S
O108 C105 1.238 . S
O109 Co103 2.052 . S
O109 C105 1.241 . S
O110 Co98 2.137 . S
O110 C101 1.247 . S
O111 Co98 2.244 . S
O111 C101 1.272 . S
O111 Co103 2.135 . S
Co112 O113 2.216 . S
Co112 O114 2.091 . S
Co112 O116 2.004 . S
Co112 O122 2.021 . S
Co112 O124 2.137 . S
Co112 O125 2.244 . S
O113 Co112 2.216 . S
O113 C120 1.247 . S
O114 Co112 2.091 . S
O114 C120 1.261 . S
C115 O124 1.247 . S
C115 O125 1.272 . S
O116 Co112 2.004 . S
O116 C121 1.259 . S
Co117 O118 2.061 . S
Co117 O123 2.052 . S
Co117 O125 2.135 . S
O118 Co117 2.061 . S
O118 C121 1.235 . S
C119 O122 1.238 . S
C119 O123 1.241 . S
C120 O113 1.247 . S
C120 O114 1.261 . S
C121 O116 1.259 . S
C121 O118 1.235 . S
O122 Co112 2.021 . S
O122 C119 1.238 . S
O123 Co117 2.052 . S
O123 C119 1.241 . S
O124 Co112 2.137 . S
O124 C115 1.247 . S
O125 Co112 2.244 . S
O125 C115 1.272 . S
O125 Co117 2.135 . S
Co126 O127 2.216 . S
Co126 O128 2.091 . S
Co126 O130 2.004 . S
Co126 O136 2.021 . S
Co126 O138 2.137 . S
Co126 O139 2.244 . S
O127 Co126 2.216 . S
O127 C134 1.247 . S
O128 Co126 2.091 . S
O128 C134 1.261 . S
C129 O138 1.247 . S
C129 O139 1.272 . S
O130 Co126 2.004 . S
O130 C135 1.259 . S
Co131 O132 2.061 . S
Co131 O137 2.052 . S
Co131 O139 2.135 . S
O132 Co131 2.061 . S
O132 C135 1.235 . S
C133 O136 1.238 . S
C133 O137 1.241 . S
C134 O127 1.247 . S
C134 O128 1.261 . S
C135 O130 1.259 . S
C135 O132 1.235 . S
O136 Co126 2.021 . S
O136 C133 1.238 . S
O137 Co131 2.052 . S
O137 C133 1.241 . S
O138 Co126 2.137 . S
O138 C129 1.247 . S
O139 Co126 2.244 . S
O139 C129 1.272 . S
O139 Co131 2.135 . S
Co140 O141 2.216 . S
Co140 O142 2.091 . S
Co140 O144 2.004 . S
Co140 O150 2.021 . S
Co140 O152 2.137 . S
Co140 O153 2.244 . S
O141 Co140 2.216 . S
O141 C148 1.247 . S
O142 Co140 2.091 . S
O142 C148 1.261 . S
C143 O152 1.247 . S
C143 O153 1.272 . S
O144 Co140 2.004 . S
O144 C149 1.259 . S
Co145 O146 2.061 . S
Co145 O151 2.052 . S
Co145 O153 2.135 . S
O146 Co145 2.061 . S
O146 C149 1.235 . S
C147 O150 1.238 . S
C147 O151 1.241 . S
C148 O141 1.247 . S
C148 O142 1.261 . S
C149 O144 1.259 . S
C149 O146 1.235 . S
O150 Co140 2.021 . S
O150 C147 1.238 . S
O151 Co145 2.052 . S
O151 C147 1.241 . S
O152 Co140 2.137 . S
O152 C143 1.247 . S
O153 Co140 2.244 . S
O153 C143 1.272 . S
O153 Co145 2.135 . S
Co154 O155 2.216 . S
Co154 O156 2.091 . S
Co154 O158 2.004 . S
Co154 O164 2.021 . S
Co154 O166 2.137 . S
Co154 O167 2.244 . S
O155 Co154 2.216 . S
O155 C162 1.247 . S
O156 Co154 2.091 . S
O156 C162 1.261 . S
C157 O166 1.247 . S
C157 O167 1.272 . S
O158 Co154 2.004 . S
O158 C163 1.259 . S
Co159 O160 2.061 . S
Co159 O165 2.052 . S
Co159 O167 2.135 . S
O160 Co159 2.061 . S
O160 C163 1.235 . S
C161 O164 1.238 . S
C161 O165 1.241 . S
C162 O155 1.247 . S
C162 O156 1.261 . S
C163 O158 1.259 . S
C163 O160 1.235 . S
O164 Co154 2.021 . S
O164 C161 1.238 . S
O165 Co159 2.052 . S
O165 C161 1.241 . S
O166 Co154 2.137 . S
O166 C157 1.247 . S
O167 Co154 2.244 . S
O167 C157 1.272 . S
O167 Co159 2.135 . S
Co168 O169 2.216 . S
Co168 O170 2.091 . S
Co168 O172 2.004 . S
Co168 O178 2.021 . S
Co168 O180 2.137 . S
Co168 O181 2.244 . S
O169 Co168 2.216 . S
O169 C176 1.247 . S
O170 Co168 2.091 . S
O170 C176 1.261 . S
C171 O180 1.247 . S
C171 O181 1.272 . S
O172 Co168 2.004 . S
O172 C177 1.259 . S
Co173 O174 2.061 . S
Co173 O179 2.052 . S
Co173 O181 2.135 . S
O174 Co173 2.061 . S
O174 C177 1.235 . S
C175 O178 1.238 . S
C175 O179 1.241 . S
C176 O169 1.247 . S
C176 O170 1.261 . S
C177 O172 1.259 . S
C177 O174 1.235 . S
O178 Co168 2.021 . S
O178 C175 1.238 . S
O179 Co173 2.052 . S
O179 C175 1.241 . S
O180 Co168 2.137 . S
O180 C171 1.247 . S
O181 Co168 2.244 . S
O181 C171 1.272 . S
O181 Co173 2.135 . S
Co182 O183 2.216 . S
Co182 O184 2.091 . S
Co182 O186 2.004 . S
Co182 O192 2.021 . S
Co182 O194 2.137 . S
Co182 O195 2.244 . S
O183 Co182 2.216 . S
O183 C190 1.247 . S
O184 Co182 2.091 . S
O184 C190 1.261 . S
C185 O194 1.247 . S
C185 O195 1.272 . S
O186 Co182 2.004 . S
O186 C191 1.259 . S
Co187 O188 2.061 . S
Co187 O193 2.052 . S
Co187 O195 2.135 . S
O188 Co187 2.061 . S
O188 C191 1.235 . S
C189 O192 1.238 . S
C189 O193 1.241 . S
C190 O183 1.247 . S
C190 O184 1.261 . S
C191 O186 1.259 . S
C191 O188 1.235 . S
O192 Co182 2.021 . S
O192 C189 1.238 . S
O193 Co187 2.052 . S
O193 C189 1.241 . S
O194 Co182 2.137 . S
O194 C185 1.247 . S
O195 Co182 2.244 . S
O195 C185 1.272 . S
O195 Co187 2.135 . S
Co196 O197 2.216 . S
Co196 O198 2.091 . S
Co196 O200 2.004 . S
Co196 O206 2.021 . S
Co196 O208 2.137 . S
Co196 O209 2.244 . S
O197 Co196 2.216 . S
O197 C204 1.247 . S
O198 Co196 2.091 . S
O198 C204 1.261 . S
C199 O208 1.247 . S
C199 O209 1.272 . S
O200 Co196 2.004 . S
O200 C205 1.259 . S
Co201 O202 2.061 . S
Co201 O207 2.052 . S
Co201 O209 2.135 . S
O202 Co201 2.061 . S
O202 C205 1.235 . S
C203 O206 1.238 . S
C203 O207 1.241 . S
C204 O197 1.247 . S
C204 O198 1.261 . S
C205 O200 1.259 . S
C205 O202 1.235 . S
O206 Co196 2.021 . S
O206 C203 1.238 . S
O207 Co201 2.052 . S
O207 C203 1.241 . S
O208 Co196 2.137 . S
O208 C199 1.247 . S
O209 Co196 2.244 . S
O209 C199 1.272 . S
O209 Co201 2.135 . S
Co210 O211 2.216 . S
Co210 O212 2.091 . S
Co210 O214 2.004 . S
Co210 O220 2.021 . S
Co210 O222 2.137 . S
Co210 O223 2.244 . S
O211 Co210 2.216 . S
O211 C218 1.247 . S
O212 Co210 2.091 . S
O212 C218 1.261 . S
C213 O222 1.247 . S
C213 O223 1.272 . S
O214 Co210 2.004 . S
O214 C219 1.259 . S
Co215 O216 2.061 . S
Co215 O221 2.052 . S
Co215 O223 2.135 . S
O216 Co215 2.061 . S
O216 C219 1.235 . S
C217 O220 1.238 . S
C217 O221 1.241 . S
C218 O211 1.247 . S
C218 O212 1.261 . S
C219 O214 1.259 . S
C219 O216 1.235 . S
O220 Co210 2.021 . S
O220 C217 1.238 . S
O221 Co215 2.052 . S
O221 C217 1.241 . S
O222 Co210 2.137 . S
O222 C213 1.247 . S
O223 Co210 2.244 . S
O223 C213 1.272 . S
O223 Co215 2.135 . S
H224 C232 0.929 . S
H225 C234 0.930 . S
H226 C236 0.930 . S
H227 C239 0.929 . S
H228 C242 0.936 . S
H229 C244 0.960 . S
H230 C244 0.960 . S
H231 C244 0.960 1_556 S
C232 H224 0.929 . S
C232 C233 1.377 . S
C232 C234 1.384 . S
C233 C232 1.377 . S
C233 C239 1.390 1_554 S
C234 H225 0.930 . S
C234 C232 1.384 . S
C234 C235 1.372 . S
C235 C234 1.372 . S
C235 C236 1.400 1_554 S
C235 C240 1.490 . S
C236 H226 0.930 . S
C236 C235 1.400 1_556 S
C236 C239 1.386 . S
H237 C253 0.930 . S
H238 C254 0.931 . S
C239 H227 0.929 . S
C239 C233 1.390 1_556 S
C239 C236 1.386 . S
C240 C235 1.490 . S
C240 C242 1.398 . S
C240 C243 1.402 1_554 S
H241 C247 0.930 . S
C242 H228 0.936 . S
C242 C240 1.398 . S
C242 C245 1.395 1_554 S
C243 C240 1.402 1_556 S
C243 C244 1.523 1_556 S
C243 C247 1.402 . S
C244 H229 0.960 . S
C244 H230 0.960 . S
C244 H231 0.960 1_554 S
C244 C243 1.523 1_554 S
C245 C242 1.395 1_556 S
C245 C246 1.392 . S
C245 C249 1.495 . S
C246 C245 1.392 . S
C246 C247 1.385 . S
C246 C248 1.478 . S
C247 H241 0.930 . S
C247 C243 1.402 . S
C247 C246 1.385 . S
C248 C246 1.478 . S
C248 C250 1.383 . S
C248 C254 1.383 . S
C249 C245 1.495 . S
C249 H255 0.959 . S
C249 H256 0.961 . S
C249 H257 0.960 1_556 S
C250 C248 1.383 . S
C250 C251 1.395 . S
C250 H258 0.927 1_556 S
C251 C250 1.395 . S
C251 C252 1.383 . S
C251 H259 0.929 1_556 S
C252 C251 1.383 . S
C252 C253 1.377 . S
C253 H237 0.930 . S
C253 C252 1.377 . S
C253 C254 1.379 . S
C254 H238 0.931 . S
C254 C248 1.383 . S
C254 C253 1.379 . S
H255 C249 0.959 . S
H256 C249 0.961 . S
H257 C249 0.960 1_554 S
H258 C250 0.927 1_554 S
H259 C251 0.929 1_554 S
H260 C268 0.929 1_554 S
H261 C270 0.930 . S
H262 C272 0.930 . S
H263 C275 0.929 . S
H264 C278 0.930 . S
H265 C280 0.960 . S
H266 C280 0.960 . S
H267 C280 0.960 . S
C268 H260 0.929 1_556 S
C268 C269 1.377 . S
C268 C270 1.384 1_556 S
C269 C268 1.377 . S
C269 C275 1.390 . S
C270 H261 0.930 . S
C270 C268 1.384 1_554 S
C270 C271 1.372 1_554 S
C271 C270 1.372 1_556 S
C271 C272 1.400 . S
C271 C276 1.490 . S
C272 H262 0.930 . S
C272 C271 1.400 . S
C272 C275 1.386 . S
H273 C289 0.930 . S
H274 C290 0.931 . S
C275 H263 0.929 . S
C275 C269 1.390 . S
C275 C272 1.386 . S
C276 C271 1.490 . S
C276 C278 1.395 1_556 S
C276 C279 1.403 . S
H277 C283 0.930 . S
C278 H264 0.930 . S
C278 C276 1.395 1_554 S
C278 C281 1.403 . S
C279 C276 1.403 . S
C279 C280 1.524 . S
C279 C283 1.400 . S
C280 H265 0.960 . S
C280 H266 0.960 . S
C280 H267 0.960 . S
C280 C279 1.524 . S
C281 C278 1.403 . S
C281 C282 1.392 . S
C281 C285 1.495 . S
C282 C281 1.392 . S
C282 C283 1.385 1_554 S
C282 C284 1.478 . S
C283 H277 0.930 . S
C283 C279 1.400 . S
C283 C282 1.385 1_556 S
C284 C282 1.478 . S
C284 C286 1.381 . S
C284 C290 1.383 1_554 S
C285 C281 1.495 . S
C285 H291 0.959 . S
C285 H292 0.961 . S
C285 H293 0.960 . S
C286 C284 1.381 . S
C286 C287 1.394 . S
C286 H294 0.930 . S
C287 C286 1.394 . S
C287 C288 1.383 . S
C287 H295 0.929 . S
C288 C287 1.383 . S
C288 C289 1.377 1_554 S
C289 H273 0.930 . S
C289 C288 1.377 1_556 S
C289 C290 1.379 . S
C290 H274 0.931 . S
C290 C284 1.383 1_556 S
C290 C289 1.379 . S
H291 C285 0.959 . S
H292 C285 0.961 . S
H293 C285 0.960 . S
H294 C286 0.930 . S
H295 C287 0.929 . S
H296 C304 0.929 . S
H297 C306 0.930 . S
H298 C308 0.930 . S
H299 C311 0.929 . S
H300 C314 0.930 . S
H301 C316 0.960 . S
H302 C316 0.960 . S
H303 C316 0.960 . S
C304 H296 0.929 . S
C304 C305 1.377 . S
C304 C306 1.384 . S
C305 C304 1.377 . S
C305 C311 1.390 . S
C306 H297 0.930 . S
C306 C304 1.384 . S
C306 C307 1.372 . S
C307 C306 1.372 . S
C307 C308 1.400 . S
C307 C312 1.490 . S
C308 H298 0.930 . S
C308 C307 1.400 . S
C308 C311 1.386 . S
H309 C325 0.930 . S
H310 C326 0.931 1_556 S
C311 H299 0.929 . S
C311 C305 1.390 . S
C311 C308 1.386 . S
C312 C307 1.490 . S
C312 C314 1.395 . S
C312 C315 1.403 1_556 S
H313 C319 0.930 . S
C314 H300 0.930 . S
C314 C312 1.395 . S
C314 C317 1.403 . S
C315 C312 1.403 1_554 S
C315 C316 1.524 . S
C315 C319 1.400 . S
C316 H301 0.960 . S
C316 H302 0.960 . S
C316 H303 0.960 . S
C316 C315 1.524 . S
C317 C314 1.403 . S
C317 C318 1.392 . S
C317 C321 1.495 . S
C318 C317 1.392 . S
C318 C319 1.385 1_556 S
C318 C320 1.478 1_556 S
C319 H313 0.930 . S
C319 C315 1.400 . S
C319 C318 1.385 1_554 S
C320 C318 1.478 1_554 S
C320 C322 1.381 . S
C320 C326 1.383 . S
C321 C317 1.495 . S
C321 H327 0.959 . S
C321 H328 0.961 . S
C321 H329 0.960 . S
C322 C320 1.381 . S
C322 C323 1.394 . S
C322 H330 0.930 . S
C323 C322 1.394 . S
C323 C324 1.383 . S
C323 H331 0.929 . S
C324 C323 1.383 . S
C324 C325 1.377 . S
C325 H309 0.930 . S
C325 C324 1.377 . S
C325 C326 1.379 . S
C326 H310 0.931 1_554 S
C326 C320 1.383 . S
C326 C325 1.379 . S
H327 C321 0.959 . S
H328 C321 0.961 . S
H329 C321 0.960 . S
H330 C322 0.930 . S
H331 C323 0.929 . S
H332 C340 0.929 . S
H333 C342 0.930 . S
H334 C344 0.930 1_554 S
H335 C347 0.929 1_554 S
H336 C350 0.930 . S
H337 C352 0.960 . S
H338 C352 0.960 . S
H339 C352 0.960 . S
C340 H332 0.929 . S
C340 C341 1.377 . S
C340 C342 1.384 . S
C341 C340 1.377 . S
C341 C347 1.390 . S
C342 H333 0.930 . S
C342 C340 1.384 . S
C342 C343 1.372 . S
C343 C342 1.372 . S
C343 C344 1.400 . S
C343 C348 1.490 . S
C344 H334 0.930 1_556 S
C344 C343 1.400 . S
C344 C347 1.386 . S
H345 C361 0.930 . S
H346 C362 0.931 . S
C347 H335 0.929 1_556 S
C347 C341 1.390 . S
C347 C344 1.386 . S
C348 C343 1.490 . S
C348 C350 1.395 . S
C348 C351 1.403 . S
H349 C355 0.930 . S
C350 H336 0.930 . S
C350 C348 1.395 . S
C350 C353 1.404 1_556 S
C351 C348 1.403 . S
C351 C352 1.524 . S
C351 C355 1.400 . S
C352 H337 0.960 . S
C352 H338 0.960 . S
C352 H339 0.960 . S
C352 C351 1.524 . S
C353 C350 1.404 1_554 S
C353 C354 1.392 . S
C353 C357 1.495 . S
C354 C353 1.392 . S
C354 C355 1.385 1_554 S
C354 C356 1.478 . S
C355 H349 0.930 . S
C355 C351 1.400 . S
C355 C354 1.385 1_556 S
C356 C354 1.478 . S
C356 C358 1.381 1_554 S
C356 C362 1.383 . S
C357 C353 1.495 . S
C357 H363 0.959 . S
C357 H364 0.961 . S
C357 H365 0.960 1_554 S
C358 C356 1.381 1_556 S
C358 C359 1.394 . S
C358 H366 0.930 . S
C359 C358 1.394 . S
C359 C360 1.383 1_556 S
C359 H367 0.929 . S
C360 C359 1.383 1_554 S
C360 C361 1.377 . S
C361 H345 0.930 . S
C361 C360 1.377 . S
C361 C362 1.379 . S
C362 H346 0.931 . S
C362 C356 1.383 . S
C362 C361 1.379 . S
H363 C357 0.959 . S
H364 C357 0.961 . S
H365 C357 0.960 1_556 S
H366 C358 0.930 . S
H367 C359 0.929 . S
H368 C376 0.929 . S
H369 C378 0.930 . S
H370 C380 0.930 . S
H371 C383 0.929 . S
H372 C386 0.930 . S
H373 C388 0.960 . S
H374 C388 0.960 . S
H375 C388 0.960 . S
C376 H368 0.929 . S
C376 C377 1.377 . S
C376 C378 1.384 . S
C377 C376 1.377 . S
C377 C383 1.390 . S
C378 H369 0.930 . S
C378 C376 1.384 . S
C378 C379 1.372 . S
C379 C378 1.372 . S
C379 C380 1.400 . S
C379 C384 1.490 . S
C380 H370 0.930 . S
C380 C379 1.400 . S
C380 C383 1.386 . S
H381 C397 0.930 . S
H382 C398 0.931 . S
C383 H371 0.929 . S
C383 C377 1.390 . S
C383 C380 1.386 . S
C384 C379 1.490 . S
C384 C386 1.395 . S
C384 C387 1.403 . S
H385 C391 0.930 . S
C386 H372 0.930 . S
C386 C384 1.395 . S
C386 C389 1.403 . S
C387 C384 1.403 . S
C387 C388 1.524 . S
C387 C391 1.400 . S
C388 H373 0.960 . S
C388 H374 0.960 . S
C388 H375 0.960 . S
C388 C387 1.524 . S
C389 C386 1.403 . S
C389 C390 1.392 . S
C389 C393 1.495 . S
C390 C389 1.392 . S
C390 C391 1.385 . S
C390 C392 1.478 . S
C391 H385 0.930 . S
C391 C387 1.400 . S
C391 C390 1.385 . S
C392 C390 1.478 . S
C392 C394 1.381 . S
C392 C398 1.383 . S
C393 C389 1.495 . S
C393 H399 0.959 . S
C393 H400 0.961 . S
C393 H401 0.960 . S
C394 C392 1.381 . S
C394 C395 1.394 . S
C394 H402 0.930 . S
C395 C394 1.394 . S
C395 C396 1.383 . S
C395 H403 0.929 . S
C396 C395 1.383 . S
C396 C397 1.377 . S
C397 H381 0.930 . S
C397 C396 1.377 . S
C397 C398 1.379 . S
C398 H382 0.931 . S
C398 C392 1.383 . S
C398 C397 1.379 . S
H399 C393 0.959 . S
H400 C393 0.961 . S
H401 C393 0.960 . S
H402 C394 0.930 . S
H403 C395 0.929 . S
H404 C412 0.929 . S
H405 C414 0.930 . S
H406 C416 0.930 . S
H407 C419 0.929 . S
H408 C422 0.930 . S
H409 C424 0.960 . S
H410 C424 0.960 . S
H411 C424 0.960 . S
C412 H404 0.929 . S
C412 C413 1.377 . S
C412 C414 1.384 . S
C413 C412 1.377 . S
C413 C419 1.390 . S
C414 H405 0.930 . S
C414 C412 1.384 . S
C414 C415 1.372 . S
C415 C414 1.372 . S
C415 C416 1.400 . S
C415 C420 1.490 . S
C416 H406 0.930 . S
C416 C415 1.400 . S
C416 C419 1.386 . S
H417 C433 0.930 . S
H418 C434 0.931 . S
C419 H407 0.929 . S
C419 C413 1.390 . S
C419 C416 1.386 . S
C420 C415 1.490 . S
C420 C422 1.395 . S
C420 C423 1.403 . S
H421 C427 0.930 . S
C422 H408 0.930 . S
C422 C420 1.395 . S
C422 C425 1.403 . S
C423 C420 1.403 . S
C423 C424 1.524 . S
C423 C427 1.400 . S
C424 H409 0.960 . S
C424 H410 0.960 . S
C424 H411 0.960 . S
C424 C423 1.524 . S
C425 C422 1.403 . S
C425 C426 1.392 . S
C425 C429 1.495 . S
C426 C425 1.392 . S
C426 C427 1.385 . S
C426 C428 1.478 . S
C427 H421 0.930 . S
C427 C423 1.400 . S
C427 C426 1.385 . S
C428 C426 1.478 . S
C428 C430 1.381 . S
C428 C434 1.383 . S
C429 C425 1.495 . S
C429 H435 0.959 . S
C429 H436 0.961 . S
C429 H437 0.960 . S
C430 C428 1.381 . S
C430 C431 1.394 . S
C430 H438 0.930 . S
C431 C430 1.394 . S
C431 C432 1.383 . S
C431 H439 0.929 . S
C432 C431 1.383 . S
C432 C433 1.377 . S
C433 H417 0.930 . S
C433 C432 1.377 . S
C433 C434 1.379 . S
C434 H418 0.931 . S
C434 C428 1.383 . S
C434 C433 1.379 . S
H435 C429 0.959 . S
H436 C429 0.961 . S
H437 C429 0.960 . S
H438 C430 0.930 . S
H439 C431 0.929 . S
H440 C448 0.929 . S
H441 C450 0.930 . S
H442 C452 0.930 . S
H443 C455 0.929 . S
H444 C458 0.930 . S
H445 C460 0.960 . S
H446 C460 0.960 . S
H447 C460 0.960 . S
C448 H440 0.929 . S
C448 C449 1.377 . S
C448 C450 1.384 . S
C449 C448 1.377 . S
C449 C455 1.390 . S
C450 H441 0.930 . S
C450 C448 1.384 . S
C450 C451 1.372 . S
C451 C450 1.372 . S
C451 C452 1.400 . S
C451 C456 1.490 . S
C452 H442 0.930 . S
C452 C451 1.400 . S
C452 C455 1.386 . S
H453 C469 0.930 . S
H454 C470 0.931 . S
C455 H443 0.929 . S
C455 C449 1.390 . S
C455 C452 1.386 . S
C456 C451 1.490 . S
C456 C458 1.395 . S
C456 C459 1.403 . S
H457 C463 0.930 . S
C458 H444 0.930 . S
C458 C456 1.395 . S
C458 C461 1.403 . S
C459 C456 1.403 . S
C459 C460 1.524 . S
C459 C463 1.400 . S
C460 H445 0.960 . S
C460 H446 0.960 . S
C460 H447 0.960 . S
C460 C459 1.524 . S
C461 C458 1.403 . S
C461 C462 1.392 . S
C461 C465 1.495 . S
C462 C461 1.392 . S
C462 C463 1.385 . S
C462 C464 1.478 . S
C463 H457 0.930 . S
C463 C459 1.400 . S
C463 C462 1.385 . S
C464 C462 1.478 . S
C464 C466 1.381 . S
C464 C470 1.383 . S
C465 C461 1.495 . S
C465 H471 0.959 . S
C465 H472 0.961 . S
C465 H473 0.960 . S
C466 C464 1.381 . S
C466 C467 1.394 . S
C466 H474 0.930 . S
C467 C466 1.394 . S
C467 C468 1.383 . S
C467 H475 0.929 . S
C468 C467 1.383 . S
C468 C469 1.377 . S
C469 H453 0.930 . S
C469 C468 1.377 . S
C469 C470 1.379 . S
C470 H454 0.931 . S
C470 C464 1.383 . S
C470 C469 1.379 . S
H471 C465 0.959 . S
H472 C465 0.961 . S
H473 C465 0.960 . S
H474 C466 0.930 . S
H475 C467 0.929 . S
H476 C484 0.929 . S
H477 C486 0.930 . S
H478 C488 0.930 . S
H479 C491 0.929 . S
H480 C494 0.930 . S
H481 C496 0.960 . S
H482 C496 0.960 . S
H483 C496 0.960 . S
C484 H476 0.929 . S
C484 C485 1.377 . S
C484 C486 1.384 . S
C485 C484 1.377 . S
C485 C491 1.390 . S
C486 H477 0.930 . S
C486 C484 1.384 . S
C486 C487 1.372 . S
C487 C486 1.372 . S
C487 C488 1.400 . S
C487 C492 1.490 . S
C488 H478 0.930 . S
C488 C487 1.400 . S
C488 C491 1.386 . S
H489 C505 0.930 . S
H490 C506 0.931 . S
C491 H479 0.929 . S
C491 C485 1.390 . S
C491 C488 1.386 . S
C492 C487 1.490 . S
C492 C494 1.395 . S
C492 C495 1.403 . S
H493 C499 0.930 . S
C494 H480 0.930 . S
C494 C492 1.395 . S
C494 C497 1.403 . S
C495 C492 1.403 . S
C495 C496 1.524 . S
C495 C499 1.400 . S
C496 H481 0.960 . S
C496 H482 0.960 . S
C496 H483 0.960 . S
C496 C495 1.524 . S
C497 C494 1.403 . S
C497 C498 1.392 . S
C497 C501 1.495 . S
C498 C497 1.392 . S
C498 C499 1.385 . S
C498 C500 1.478 . S
C499 H493 0.930 . S
C499 C495 1.400 . S
C499 C498 1.385 . S
C500 C498 1.478 . S
C500 C502 1.381 . S
C500 C506 1.383 . S
C501 C497 1.495 . S
C501 H507 0.959 . S
C501 H508 0.961 . S
C501 H509 0.960 . S
C502 C500 1.381 . S
C502 C503 1.394 . S
C502 H510 0.930 . S
C503 C502 1.394 . S
C503 C504 1.383 . S
C503 H511 0.929 . S
C504 C503 1.383 . S
C504 C505 1.377 . S
C505 H489 0.930 . S
C505 C504 1.377 . S
C505 C506 1.379 . S
C506 H490 0.931 . S
C506 C500 1.383 . S
C506 C505 1.379 . S
H507 C501 0.959 . S
H508 C501 0.961 . S
H509 C501 0.960 . S
H510 C502 0.930 . S
H511 C503 0.929 . S
H512 C520 0.929 . S
H513 C522 0.930 . S
H514 C524 0.930 . S
H515 C527 0.929 . S
H516 C530 0.930 . S
H517 C532 0.960 . S
H518 C532 0.960 1_556 S
H519 C532 0.960 . S
C520 H512 0.929 . S
C520 C521 1.377 . S
C520 C522 1.384 . S
C521 C520 1.377 . S
C521 C527 1.390 1_556 S
C522 H513 0.930 . S
C522 C520 1.384 . S
C522 C523 1.372 . S
C523 C522 1.372 . S
C523 C524 1.400 1_556 S
C523 C528 1.490 . S
C524 H514 0.930 . S
C524 C523 1.400 1_554 S
C524 C527 1.386 . S
H525 C541 0.930 . S
H526 C542 0.931 . S
C527 H515 0.929 . S
C527 C521 1.390 1_554 S
C527 C524 1.386 . S
C528 C523 1.490 . S
C528 C530 1.395 . S
C528 C531 1.403 1_556 S
H529 C535 0.930 . S
C530 H516 0.930 . S
C530 C528 1.395 . S
C530 C533 1.403 1_556 S
C531 C528 1.403 1_554 S
C531 C532 1.524 . S
C531 C535 1.400 . S
C532 H517 0.960 . S
C532 H518 0.960 1_554 S
C532 H519 0.960 . S
C532 C531 1.524 . S
C533 C530 1.403 1_554 S
C533 C534 1.392 . S
C533 C537 1.495 . S
C534 C533 1.392 . S
C534 C535 1.385 . S
C534 C536 1.478 . S
C535 H529 0.930 . S
C535 C531 1.400 . S
C535 C534 1.385 . S
C536 C534 1.478 . S
C536 C538 1.381 1_554 S
C536 C542 1.383 . S
C537 C533 1.495 . S
C537 H543 0.959 1_554 S
C537 H544 0.961 . S
C537 H545 0.960 1_554 S
C538 C536 1.381 1_556 S
C538 C539 1.394 1_556 S
C538 H546 0.930 . S
C539 C538 1.394 1_554 S
C539 C540 1.383 . S
C539 H547 0.929 1_554 S
C540 C539 1.383 . S
C540 C541 1.377 . S
C541 H525 0.930 . S
C541 C540 1.377 . S
C541 C542 1.379 . S
C542 H526 0.931 . S
C542 C536 1.383 . S
C542 C541 1.379 . S
H543 C537 0.959 1_556 S
H544 C537 0.961 . S
H545 C537 0.960 1_556 S
H546 C538 0.930 . S
H547 C539 0.929 1_556 S
H548 C556 0.929 . S
H549 C558 0.930 . S
H550 C560 0.930 . S
H551 C563 0.929 . S
H552 C566 0.930 . S
H553 C568 0.960 . S
H554 C568 0.960 . S
H555 C568 0.960 . S
C556 H548 0.929 . S
C556 C557 1.377 . S
C556 C558 1.384 . S
C557 C556 1.377 . S
C557 C563 1.390 1_556 S
C558 H549 0.930 . S
C558 C556 1.384 . S
C558 C559 1.372 . S
C559 C558 1.372 . S
C559 C560 1.400 1_556 S
C559 C564 1.490 . S
C560 H550 0.930 . S
C560 C559 1.400 1_554 S
C560 C563 1.386 . S
H561 C577 0.930 . S
H562 C578 0.931 . S
C563 H551 0.929 . S
C563 C557 1.390 1_554 S
C563 C560 1.386 . S
C564 C559 1.490 . S
C564 C566 1.395 . S
C564 C567 1.403 1_556 S
H565 C571 0.930 . S
C566 H552 0.930 . S
C566 C564 1.395 . S
C566 C569 1.403 . S
C567 C564 1.403 1_554 S
C567 C568 1.524 . S
C567 C571 1.400 . S
C568 H553 0.960 . S
C568 H554 0.960 . S
C568 H555 0.960 . S
C568 C567 1.524 . S
C569 C566 1.403 . S
C569 C570 1.392 1_556 S
C569 C573 1.495 . S
C570 C569 1.392 1_554 S
C570 C571 1.385 . S
C570 C572 1.478 . S
C571 H565 0.930 . S
C571 C567 1.400 . S
C571 C570 1.385 . S
C572 C570 1.478 . S
C572 C574 1.381 1_554 S
C572 C578 1.383 . S
C573 C569 1.495 . S
C573 H579 0.959 . S
C573 H580 0.961 . S
C573 H581 0.960 . S
C574 C572 1.381 1_556 S
C574 C575 1.394 1_556 S
C574 H582 0.930 . S
C575 C574 1.394 1_554 S
C575 C576 1.383 . S
C575 H583 0.929 1_554 S
C576 C575 1.383 . S
C576 C577 1.377 . S
C577 H561 0.930 . S
C577 C576 1.377 . S
C577 C578 1.379 . S
C578 H562 0.931 . S
C578 C572 1.383 . S
C578 C577 1.379 . S
H579 C573 0.959 . S
H580 C573 0.961 . S
H581 C573 0.960 . S
H582 C574 0.930 . S
H583 C575 0.929 1_556 S
H584 C592 0.929 . S
H585 C594 0.930 . S
H586 C596 0.930 . S
H587 C599 0.929 . S
H588 C602 0.930 . S
H589 C604 0.960 . S
H590 C604 0.960 1_556 S
H591 C604 0.960 . S
C592 H584 0.929 . S
C592 C593 1.377 . S
C592 C594 1.384 . S
C593 C592 1.377 . S
C593 C599 1.390 1_556 S
C594 H585 0.930 . S
C594 C592 1.384 . S
C594 C595 1.372 . S
C595 C594 1.372 . S
C595 C596 1.400 1_556 S
C595 C600 1.490 . S
C596 H586 0.930 . S
C596 C595 1.400 1_554 S
C596 C599 1.386 . S
H597 C613 0.930 . S
H598 C614 0.931 . S
C599 H587 0.929 . S
C599 C593 1.390 1_554 S
C599 C596 1.386 . S
C600 C595 1.490 . S
C600 C602 1.395 . S
C600 C603 1.403 1_556 S
H601 C607 0.930 . S
C602 H588 0.930 . S
C602 C600 1.395 . S
C602 C605 1.403 . S
C603 C600 1.403 1_554 S
C603 C604 1.524 . S
C603 C607 1.400 . S
C604 H589 0.960 . S
C604 H590 0.960 1_554 S
C604 H591 0.960 . S
C604 C603 1.524 . S
C605 C602 1.403 . S
C605 C606 1.392 1_556 S
C605 C609 1.495 . S
C606 C605 1.392 1_554 S
C606 C607 1.385 . S
C606 C608 1.478 . S
C607 H601 0.930 . S
C607 C603 1.400 . S
C607 C606 1.385 . S
C608 C606 1.478 . S
C608 C610 1.381 1_554 S
C608 C614 1.383 . S
C609 C605 1.495 . S
C609 H615 0.959 . S
C609 H616 0.961 1_556 S
C609 H617 0.960 . S
C610 C608 1.381 1_556 S
C610 C611 1.394 1_556 S
C610 H618 0.930 . S
C611 C610 1.394 1_554 S
C611 C612 1.383 . S
C611 H619 0.929 1_554 S
C612 C611 1.383 . S
C612 C613 1.377 . S
C613 H597 0.930 . S
C613 C612 1.377 . S
C613 C614 1.379 . S
C614 H598 0.931 . S
C614 C608 1.383 . S
C614 C613 1.379 . S
H615 C609 0.959 . S
H616 C609 0.961 1_554 S
H617 C609 0.960 . S
H618 C610 0.930 . S
H619 C611 0.929 1_556 S
H620 C628 0.929 . S
H621 C630 0.930 1_556 S
H622 C632 0.930 . S
H623 C635 0.929 . S
H624 C638 0.930 . S
H625 C640 0.960 . S
H626 C640 0.960 . S
H627 C640 0.960 1_554 S
C628 H620 0.929 . S
C628 C629 1.377 . S
C628 C630 1.384 . S
C629 C628 1.377 . S
C629 C635 1.390 . S
C630 H621 0.930 1_554 S
C630 C628 1.384 . S
C630 C631 1.372 . S
C631 C630 1.372 . S
C631 C632 1.400 . S
C631 C636 1.490 . S
C632 H622 0.930 . S
C632 C631 1.400 . S
C632 C635 1.386 . S
H633 C649 0.930 1_554 S
H634 C650 0.931 . S
C635 H623 0.929 . S
C635 C629 1.390 . S
C635 C632 1.386 . S
C636 C631 1.490 . S
C636 C638 1.395 . S
C636 C639 1.403 1_554 S
H637 C643 0.930 . S
C638 H624 0.930 . S
C638 C636 1.395 . S
C638 C641 1.403 . S
C639 C636 1.403 1_556 S
C639 C640 1.524 . S
C639 C643 1.400 . S
C640 H625 0.960 . S
C640 H626 0.960 . S
C640 H627 0.960 1_556 S
C640 C639 1.524 . S
C641 C638 1.403 . S
C641 C642 1.379 1_554 S
C641 C645 1.495 . S
C642 C641 1.379 1_556 S
C642 C643 1.393 . S
C642 C644 1.484 . S
C643 H637 0.930 . S
C643 C639 1.400 . S
C643 C642 1.393 . S
C644 C642 1.484 . S
C644 C646 1.381 . S
C644 C650 1.383 1_556 S
C645 C641 1.495 . S
C645 H651 0.959 . S
C645 H652 0.961 . S
C645 H653 0.960 . S
C646 C644 1.381 . S
C646 C647 1.394 . S
C646 H654 0.930 . S
C647 C646 1.394 . S
C647 C648 1.383 . S
C647 H655 0.929 . S
C648 C647 1.383 . S
C648 C649 1.377 . S
C649 H633 0.930 1_556 S
C649 C648 1.377 . S
C649 C650 1.379 1_556 S
C650 H634 0.931 . S
C650 C644 1.383 1_554 S
C650 C649 1.379 1_554 S
H651 C645 0.959 . S
H652 C645 0.961 . S
H653 C645 0.960 . S
H654 C646 0.930 . S
H655 C647 0.929 . S
H656 C664 0.929 . S
H657 C666 0.930 . S
H658 C668 0.930 . S
H659 C671 0.929 . S
H660 C674 0.930 . S
H661 C676 0.960 . S
H662 C676 0.960 . S
H663 C676 0.960 . S
C664 H656 0.929 . S
C664 C665 1.377 . S
C664 C666 1.384 . S
C665 C664 1.377 . S
C665 C671 1.390 . S
C666 H657 0.930 . S
C666 C664 1.384 . S
C666 C667 1.372 . S
C667 C666 1.372 . S
C667 C668 1.400 . S
C667 C672 1.490 . S
C668 H658 0.930 . S
C668 C667 1.400 . S
C668 C671 1.386 . S
H669 C685 0.930 . S
H670 C686 0.931 . S
C671 H659 0.929 . S
C671 C665 1.390 . S
C671 C668 1.386 . S
C672 C667 1.490 . S
C672 C674 1.395 . S
C672 C675 1.403 . S
H673 C679 0.930 . S
C674 H660 0.930 . S
C674 C672 1.395 . S
C674 C677 1.403 . S
C675 C672 1.403 . S
C675 C676 1.524 . S
C675 C679 1.400 . S
C676 H661 0.960 . S
C676 H662 0.960 . S
C676 H663 0.960 . S
C676 C675 1.524 . S
C677 C674 1.403 . S
C677 C678 1.392 . S
C677 C681 1.495 . S
C678 C677 1.392 . S
C678 C679 1.385 . S
C678 C680 1.478 . S
C679 H673 0.930 . S
C679 C675 1.400 . S
C679 C678 1.385 . S
C680 C678 1.478 . S
C680 C682 1.381 . S
C680 C686 1.383 . S
C681 C677 1.495 . S
C681 H687 0.959 . S
C681 H688 0.961 . S
C681 H689 0.960 . S
C682 C680 1.381 . S
C682 C683 1.394 . S
C682 H690 0.930 . S
C683 C682 1.394 . S
C683 C684 1.383 . S
C683 H691 0.929 . S
C684 C683 1.383 . S
C684 C685 1.377 . S
C685 H669 0.930 . S
C685 C684 1.377 . S
C685 C686 1.379 . S
C686 H670 0.931 . S
C686 C680 1.383 . S
C686 C685 1.379 . S
H687 C681 0.959 . S
H688 C681 0.961 . S
H689 C681 0.960 . S
H690 C682 0.930 . S
H691 C683 0.929 . S
H692 C700 0.929 . S
H693 C702 0.930 . S
H694 C704 0.930 . S
H695 C707 0.929 . S
H696 C710 0.930 . S
H697 C712 0.960 . S
H698 C712 0.960 . S
H699 C712 0.960 . S
C700 H692 0.929 . S
C700 C701 1.377 . S
C700 C702 1.384 . S
C701 C700 1.377 . S
C701 C707 1.390 . S
C702 H693 0.930 . S
C702 C700 1.384 . S
C702 C703 1.372 . S
C703 C702 1.372 . S
C703 C704 1.400 . S
C703 C708 1.490 . S
C704 H694 0.930 . S
C704 C703 1.400 . S
C704 C707 1.386 . S
H705 C721 0.930 . S
H706 C722 0.931 . S
C707 H695 0.929 . S
C707 C701 1.390 . S
C707 C704 1.386 . S
C708 C703 1.490 . S
C708 C710 1.395 . S
C708 C711 1.403 . S
H709 C715 0.930 . S
C710 H696 0.930 . S
C710 C708 1.395 . S
C710 C713 1.403 . S
C711 C708 1.403 . S
C711 C712 1.524 . S
C711 C715 1.400 . S
C712 H697 0.960 . S
C712 H698 0.960 . S
C712 H699 0.960 . S
C712 C711 1.524 . S
C713 C710 1.403 . S
C713 C714 1.392 . S
C713 C717 1.495 . S
C714 C713 1.392 . S
C714 C715 1.385 . S
C714 C716 1.478 . S
C715 H709 0.930 . S
C715 C711 1.400 . S
C715 C714 1.385 . S
C716 C714 1.478 . S
C716 C718 1.381 . S
C716 C722 1.383 . S
C717 C713 1.495 . S
C717 H723 0.959 . S
C717 H724 0.961 . S
C717 H725 0.960 . S
C718 C716 1.381 . S
C718 C719 1.394 . S
C718 H726 0.930 . S
C719 C718 1.394 . S
C719 C720 1.383 . S
C719 H727 0.929 . S
C720 C719 1.383 . S
C720 C721 1.377 . S
C721 H705 0.930 . S
C721 C720 1.377 . S
C721 C722 1.379 . S
C722 H706 0.931 . S
C722 C716 1.383 . S
C722 C721 1.379 . S
H723 C717 0.959 . S
H724 C717 0.961 . S
H725 C717 0.960 . S
H726 C718 0.930 . S
H727 C719 0.929 . S
H728 C736 0.929 . S
H729 C738 0.930 . S
H730 C740 0.930 . S
H731 C743 0.929 . S
H732 C746 0.930 . S
H733 C748 0.960 . S
H734 C748 0.960 . S
H735 C748 0.960 . S
C736 H728 0.929 . S
C736 C737 1.377 . S
C736 C738 1.384 . S
C737 C736 1.377 . S
C737 C743 1.390 . S
C738 H729 0.930 . S
C738 C736 1.384 . S
C738 C739 1.372 . S
C739 C738 1.372 . S
C739 C740 1.400 . S
C739 C744 1.490 . S
C740 H730 0.930 . S
C740 C739 1.400 . S
C740 C743 1.386 . S
H741 C757 0.930 . S
H742 C758 0.931 . S
C743 H731 0.929 . S
C743 C737 1.390 . S
C743 C740 1.386 . S
C744 C739 1.490 . S
C744 C746 1.395 . S
C744 C747 1.403 . S
H745 C751 0.930 . S
C746 H732 0.930 . S
C746 C744 1.395 . S
C746 C749 1.403 . S
C747 C744 1.403 . S
C747 C748 1.524 . S
C747 C751 1.400 . S
C748 H733 0.960 . S
C748 H734 0.960 . S
C748 H735 0.960 . S
C748 C747 1.524 . S
C749 C746 1.403 . S
C749 C750 1.392 . S
C749 C753 1.495 . S
C750 C749 1.392 . S
C750 C751 1.385 . S
C750 C752 1.478 . S
C751 H745 0.930 . S
C751 C747 1.400 . S
C751 C750 1.385 . S
C752 C750 1.478 . S
C752 C754 1.381 . S
C752 C758 1.383 . S
C753 C749 1.495 . S
C753 H759 0.959 . S
C753 H760 0.961 . S
C753 H761 0.960 . S
C754 C752 1.381 . S
C754 C755 1.394 . S
C754 H762 0.930 . S
C755 C754 1.394 . S
C755 C756 1.383 . S
C755 H763 0.929 . S
C756 C755 1.383 . S
C756 C757 1.377 . S
C757 H741 0.930 . S
C757 C756 1.377 . S
C757 C758 1.379 . S
C758 H742 0.931 . S
C758 C752 1.383 . S
C758 C757 1.379 . S
H759 C753 0.959 . S
H760 C753 0.961 . S
H761 C753 0.960 . S
H762 C754 0.930 . S
H763 C755 0.929 . S
H764 C772 0.929 . S
H765 C774 0.930 . S
H766 C776 0.930 . S
H767 C779 0.929 . S
H768 C782 0.930 . S
H769 C784 0.960 . S
H770 C784 0.960 . S
H771 C784 0.960 . S
C772 H764 0.929 . S
C772 C773 1.377 . S
C772 C774 1.384 . S
C773 C772 1.377 . S
C773 C779 1.390 . S
C774 H765 0.930 . S
C774 C772 1.384 . S
C774 C775 1.372 . S
C775 C774 1.372 . S
C775 C776 1.400 . S
C775 C780 1.490 . S
C776 H766 0.930 . S
C776 C775 1.400 . S
C776 C779 1.386 . S
H777 C793 0.930 . S
H778 C794 0.931 . S
C779 H767 0.929 . S
C779 C773 1.390 . S
C779 C776 1.386 . S
C780 C775 1.490 . S
C780 C782 1.395 . S
C780 C783 1.403 . S
H781 C787 0.930 . S
C782 H768 0.930 . S
C782 C780 1.395 . S
C782 C785 1.403 . S
C783 C780 1.403 . S
C783 C784 1.524 . S
C783 C787 1.400 . S
C784 H769 0.960 . S
C784 H770 0.960 . S
C784 H771 0.960 . S
C784 C783 1.524 . S
C785 C782 1.403 . S
C785 C786 1.392 . S
C785 C789 1.495 . S
C786 C785 1.392 . S
C786 C787 1.385 . S
C786 C788 1.478 . S
C787 H781 0.930 . S
C787 C783 1.400 . S
C787 C786 1.385 . S
C788 C786 1.478 . S
C788 C790 1.381 . S
C788 C794 1.383 . S
C789 C785 1.495 . S
C789 H795 0.959 . S
C789 H796 0.961 . S
C789 H797 0.960 . S
C790 C788 1.381 . S
C790 C791 1.394 . S
C790 H798 0.930 . S
C791 C790 1.394 . S
C791 C792 1.383 . S
C791 H799 0.929 . S
C792 C791 1.383 . S
C792 C793 1.377 . S
C793 H777 0.930 . S
C793 C792 1.377 . S
C793 C794 1.379 . S
C794 H778 0.931 . S
C794 C788 1.383 . S
C794 C793 1.379 . S
H795 C789 0.959 . S
H796 C789 0.961 . S
H797 C789 0.960 . S
H798 C790 0.930 . S
H799 C791 0.929 . S
H800 C808 0.929 1_554 S
H801 C810 0.912 1_554 S
H802 C812 0.930 . S
H803 C815 0.929 . S
H804 C818 0.930 . S
H805 C820 0.960 1_545 S
H806 C820 0.960 . S
H807 C820 0.960 . S
C808 H800 0.929 1_556 S
C808 C809 1.377 . S
C808 C810 1.390 . S
C809 C808 1.377 . S
C809 C815 1.390 . S
C810 H801 0.912 1_556 S
C810 C808 1.390 . S
C810 C811 1.383 . S
C811 C810 1.383 . S
C811 C812 1.400 . S
C811 C816 1.490 . S
C812 H802 0.930 . S
C812 C811 1.400 . S
C812 C815 1.386 . S
H813 C829 0.930 . S
H814 C830 0.931 1_556 S
C815 H803 0.929 . S
C815 C809 1.390 . S
C815 C812 1.386 . S
C816 C811 1.490 . S
C816 C818 1.395 1_556 S
C816 C819 1.403 . S
H817 C823 0.930 . S
C818 H804 0.930 . S
C818 C816 1.395 1_554 S
C818 C821 1.403 1_565 S
C819 C816 1.403 . S
C819 C820 1.524 . S
C819 C823 1.400 1_565 S
C820 H805 0.960 1_565 S
C820 H806 0.960 . S
C820 H807 0.960 . S
C820 C819 1.524 . S
C821 C818 1.403 1_545 S
C821 C822 1.392 . S
C821 C825 1.495 . S
C822 C821 1.392 . S
C822 C823 1.385 1_554 S
C822 C824 1.478 . S
C823 H817 0.930 . S
C823 C819 1.400 1_545 S
C823 C822 1.385 1_556 S
C824 C822 1.478 . S
C824 C826 1.381 . S
C824 C830 1.383 . S
C825 C821 1.495 . S
C825 H831 0.959 1_545 S
C825 H832 0.961 . S
C825 H833 0.960 . S
C826 C824 1.381 . S
C826 C827 1.394 . S
C826 H834 0.930 . S
C827 C826 1.394 . S
C827 C828 1.383 . S
C827 H835 0.929 . S
C828 C827 1.383 . S
C828 C829 1.377 . S
C829 H813 0.930 . S
C829 C828 1.377 . S
C829 C830 1.379 . S
C830 H814 0.931 1_554 S
C830 C824 1.383 . S
C830 C829 1.379 . S
H831 C825 0.959 1_565 S
H832 C825 0.961 . S
H833 C825 0.960 . S
H834 C826 0.930 . S
H835 C827 0.929 . S
H836 C844 0.929 . S
H837 C846 0.930 . S
H838 C848 0.930 1_556 S
H839 C851 0.929 . S
H840 C854 0.930 . S
H841 C856 0.960 . S
H842 C856 0.960 . S
H843 C856 0.960 . S
C844 H836 0.929 . S
C844 C845 1.377 . S
C844 C846 1.384 . S
C845 C844 1.377 . S
C845 C851 1.390 . S
C846 H837 0.930 . S
C846 C844 1.384 . S
C846 C847 1.372 . S
C847 C846 1.372 . S
C847 C848 1.400 . S
C847 C852 1.490 . S
C848 H838 0.930 1_554 S
C848 C847 1.400 . S
C848 C851 1.386 . S
H849 C865 0.930 . S
H850 C866 0.931 . S
C851 H839 0.929 . S
C851 C845 1.390 . S
C851 C848 1.386 . S
C852 C847 1.490 . S
C852 C854 1.395 1_554 S
C852 C855 1.403 . S
H853 C859 0.930 . S
C854 H840 0.930 . S
C854 C852 1.395 1_556 S
C854 C857 1.403 . S
C855 C852 1.403 . S
C855 C856 1.524 . S
C855 C859 1.400 . S
C856 H841 0.960 . S
C856 H842 0.960 . S
C856 H843 0.960 . S
C856 C855 1.524 . S
C857 C854 1.403 . S
C857 C858 1.392 . S
C857 C861 1.495 . S
C858 C857 1.392 . S
C858 C859 1.385 1_556 S
C858 C860 1.478 . S
C859 H853 0.930 . S
C859 C855 1.400 . S
C859 C858 1.385 1_554 S
C860 C858 1.478 . S
C860 C862 1.381 . S
C860 C866 1.383 . S
C861 C857 1.495 . S
C861 H867 0.959 . S
C861 H868 0.961 . S
C861 H869 0.960 . S
C862 C860 1.381 . S
C862 C863 1.394 . S
C862 H870 0.930 1_556 S
C863 C862 1.394 . S
C863 C864 1.383 . S
C863 H871 0.929 . S
C864 C863 1.383 . S
C864 C865 1.377 . S
C865 H849 0.930 . S
C865 C864 1.377 . S
C865 C866 1.379 . S
C866 H850 0.931 . S
C866 C860 1.383 . S
C866 C865 1.379 . S
H867 C861 0.959 . S
H868 C861 0.961 . S
H869 C861 0.960 . S
H870 C862 0.930 1_554 S
H871 C863 0.929 . S
H872 C880 0.929 . S
H873 C882 0.930 . S
H874 C884 0.930 . S
H875 C887 0.929 . S
H876 C890 0.930 . S
H877 C892 0.960 . S
H878 C892 0.960 . S
H879 C892 0.960 . S
C880 H872 0.929 . S
C880 C881 1.377 1_655 S
C880 C882 1.384 . S
C881 C880 1.377 1_455 S
C881 C887 1.390 . S
C882 H873 0.930 . S
C882 C880 1.384 . S
C882 C883 1.341 1_655 S
C883 C882 1.341 1_455 S
C883 C884 1.434 . S
C883 C888 1.487 1_455 S
C884 H874 0.930 . S
C884 C883 1.434 . S
C884 C887 1.386 . S
H885 C901 0.930 . S
H886 C902 0.931 1_556 S
C887 H875 0.929 . S
C887 C881 1.390 . S
C887 C884 1.386 . S
C888 C883 1.487 1_655 S
C888 C890 1.426 . S
C888 C891 1.376 1_656 S
H889 C895 0.930 . S
C890 H876 0.930 . S
C890 C888 1.426 . S
C890 C893 1.403 . S
C891 C888 1.376 1_454 S
C891 C892 1.524 . S
C891 C895 1.400 . S
C892 H877 0.960 . S
C892 H878 0.960 . S
C892 H879 0.960 . S
C892 C891 1.524 . S
C893 C890 1.403 . S
C893 C894 1.392 1_556 S
C893 C897 1.495 . S
C894 C893 1.392 1_554 S
C894 C895 1.385 1_655 S
C894 C896 1.478 . S
C895 H889 0.930 . S
C895 C891 1.400 . S
C895 C894 1.385 1_455 S
C896 C894 1.478 . S
C896 C898 1.381 . S
C896 C902 1.383 1_655 S
C897 C893 1.495 . S
C897 H903 0.959 . S
C897 H904 0.961 . S
C897 H905 0.960 . S
C898 C896 1.381 . S
C898 C899 1.394 . S
C898 H906 0.930 . S
C899 C898 1.394 . S
C899 C900 1.383 . S
C899 H907 0.929 . S
C900 C899 1.383 . S
C900 C901 1.377 1_655 S
C901 H885 0.930 . S
C901 C900 1.377 1_455 S
C901 C902 1.379 . S
C902 H886 0.931 1_554 S
C902 C896 1.383 1_455 S
C902 C901 1.379 . S
H903 C897 0.959 . S
H904 C897 0.961 . S
H905 C897 0.960 . S
H906 C898 0.930 . S
H907 C899 0.929 . S
H908 C916 0.929 . S
H909 C918 0.930 . S
H910 C920 0.930 1_556 S
H911 C923 0.929 . S
H912 C926 0.930 . S
H913 C928 0.960 . S
H914 C928 0.960 . S
H915 C928 0.960 . S
C916 H908 0.929 . S
C916 C917 1.377 . S
C916 C918 1.384 . S
C917 C916 1.377 . S
C917 C923 1.390 1_565 S
C918 H909 0.930 . S
C918 C916 1.384 . S
C918 C919 1.372 . S
C919 C918 1.372 . S
C919 C920 1.400 1_565 S
C919 C924 1.490 . S
C920 H910 0.930 1_554 S
C920 C919 1.400 1_545 S
C920 C923 1.386 . S
H921 C937 0.930 . S
H922 C938 0.931 . S
C923 H911 0.929 . S
C923 C917 1.390 1_545 S
C923 C920 1.386 . S
C924 C919 1.490 . S
C924 C926 1.395 1_565 S
C924 C927 1.403 1_554 S
H925 C931 0.930 . S
C926 H912 0.930 . S
C926 C924 1.395 1_545 S
C926 C929 1.403 1_455 S
C927 C924 1.403 1_556 S
C927 C928 1.524 . S
C927 C931 1.400 1_455 S
C928 H913 0.960 . S
C928 H914 0.960 . S
C928 H915 0.960 . S
C928 C927 1.524 . S
C929 C926 1.403 1_655 S
C929 C930 1.392 1_554 S
C929 C933 1.495 . S
C930 C929 1.392 1_556 S
C930 C931 1.385 1_545 S
C930 C932 1.478 . S
C931 H925 0.930 . S
C931 C927 1.400 1_655 S
C931 C930 1.385 1_565 S
C932 C930 1.478 . S
C932 C934 1.381 1_545 S
C932 C938 1.383 . S
C933 C929 1.495 . S
C933 H939 0.959 . S
C933 H940 0.961 . S
C933 H941 0.960 . S
C934 C932 1.381 1_565 S
C934 C935 1.394 . S
C934 H942 0.930 1_556 S
C935 C934 1.394 . S
C935 C936 1.383 1_565 S
C935 H943 0.929 . S
C936 C935 1.383 1_545 S
C936 C937 1.377 . S
C937 H921 0.930 . S
C937 C936 1.377 . S
C937 C938 1.379 . S
C938 H922 0.931 . S
C938 C932 1.383 . S
C938 C937 1.379 . S
H939 C933 0.959 . S
H940 C933 0.961 . S
H941 C933 0.960 . S
H942 C934 0.930 1_554 S
H943 C935 0.929 . S
H944 C952 0.929 . S
H945 C954 0.930 . S
H946 C956 0.930 . S
H947 C959 0.929 . S
H948 C962 0.930 . S
H949 C964 0.960 . S
H950 C964 0.960 . S
H951 C964 0.960 . S
C952 H944 0.929 . S
C952 C953 1.377 . S
C952 C954 1.384 . S
C953 C952 1.377 . S
C953 C959 1.390 . S
C954 H945 0.930 . S
C954 C952 1.384 . S
C954 C955 1.372 . S
C955 C954 1.372 . S
C955 C956 1.400 . S
C955 C960 1.490 . S
C956 H946 0.930 . S
C956 C955 1.400 . S
C956 C959 1.386 . S
H957 C973 0.930 . S
H958 C974 0.931 . S
C959 H947 0.929 . S
C959 C953 1.390 . S
C959 C956 1.386 . S
C960 C955 1.490 . S
C960 C962 1.395 . S
C960 C963 1.403 . S
H961 C967 0.930 . S
C962 H948 0.930 . S
C962 C960 1.395 . S
C962 C965 1.403 . S
C963 C960 1.403 . S
C963 C964 1.524 . S
C963 C967 1.400 . S
C964 H949 0.960 . S
C964 H950 0.960 . S
C964 H951 0.960 . S
C964 C963 1.524 . S
C965 C962 1.403 . S
C965 C966 1.392 . S
C965 C969 1.495 . S
C966 C965 1.392 . S
C966 C967 1.385 . S
C966 C968 1.478 . S
C967 H961 0.930 . S
C967 C963 1.400 . S
C967 C966 1.385 . S
C968 C966 1.478 . S
C968 C970 1.381 . S
C968 C974 1.383 . S
C969 C965 1.495 . S
C969 H975 0.959 . S
C969 H976 0.961 . S
C969 H977 0.960 . S
C970 C968 1.381 . S
C970 C971 1.394 . S
C970 H978 0.930 . S
C971 C970 1.394 . S
C971 C972 1.383 . S
C971 H979 0.929 . S
C972 C971 1.383 . S
C972 C973 1.377 . S
C973 H957 0.930 . S
C973 C972 1.377 . S
C973 C974 1.379 . S
C974 H958 0.931 . S
C974 C968 1.383 . S
C974 C973 1.379 . S
H975 C969 0.959 . S
H976 C969 0.961 . S
H977 C969 0.960 . S
H978 C970 0.930 . S
H979 C971 0.929 . S
H980 C988 0.929 . S
H981 C990 0.930 . S
H982 C992 0.930 . S
H983 C995 0.929 . S
H984 C998 0.930 . S
H985 C1000 0.960 . S
H986 C1000 0.960 . S
H987 C1000 0.960 . S
C988 H980 0.929 . S
C988 C989 1.377 . S
C988 C990 1.384 . S
C989 C988 1.377 . S
C989 C995 1.390 . S
C990 H981 0.930 . S
C990 C988 1.384 . S
C990 C991 1.372 . S
C991 C990 1.372 . S
C991 C992 1.400 . S
C991 C996 1.490 . S
C992 H982 0.930 . S
C992 C991 1.400 . S
C992 C995 1.386 . S
H993 C1009 0.930 . S
H994 C1010 0.931 . S
C995 H983 0.929 . S
C995 C989 1.390 . S
C995 C992 1.386 . S
C996 C991 1.490 . S
C996 C998 1.395 . S
C996 C999 1.403 . S
H997 C1003 0.930 . S
C998 H984 0.930 . S
C998 C996 1.395 . S
C998 C1001 1.403 1_455 S
C999 C996 1.403 . S
C999 C1000 1.524 . S
C999 C1003 1.400 1_455 S
C1000 H985 0.960 . S
C1000 H986 0.960 . S
C1000 H987 0.960 . S
C1000 C999 1.524 . S
C1001 C998 1.403 1_655 S
C1001 C1002 1.392 . S
C1001 C1005 1.495 . S
C1002 C1001 1.392 . S
C1002 C1003 1.385 . S
C1002 C1004 1.478 . S
C1003 H997 0.930 . S
C1003 C999 1.400 1_655 S
C1003 C1002 1.385 . S
C1004 C1002 1.478 . S
C1004 C1006 1.381 . S
C1004 C1010 1.383 . S
C1005 C1001 1.495 . S
C1005 H1011 0.959 . S
C1005 H1012 0.961 . S
C1005 H1013 0.960 . S
C1006 C1004 1.381 . S
C1006 C1007 1.394 . S
C1006 H1014 0.930 . S
C1007 C1006 1.394 . S
C1007 C1008 1.383 . S
C1007 H1015 0.929 . S
C1008 C1007 1.383 . S
C1008 C1009 1.377 . S
C1009 H993 0.930 . S
C1009 C1008 1.377 . S
C1009 C1010 1.379 . S
C1010 H994 0.931 . S
C1010 C1004 1.383 . S
C1010 C1009 1.379 . S
H1011 C1005 0.959 . S
H1012 C1005 0.961 . S
H1013 C1005 0.960 . S
H1014 C1006 0.930 . S
H1015 C1007 0.929 . S
H1016 C1024 0.929 . S
H1017 C1026 0.930 . S
H1018 C1028 0.930 . S
H1019 C1031 0.929 . S
H1020 C1034 0.930 . S
H1021 C1036 0.960 . S
H1022 C1036 0.960 . S
H1023 C1036 0.960 . S
C1024 H1016 0.929 . S
C1024 C1025 1.377 1_655 S
C1024 C1026 1.384 . S
C1025 C1024 1.377 1_455 S
C1025 C1031 1.390 . S
C1026 H1017 0.930 . S
C1026 C1024 1.384 . S
C1026 C1027 1.372 1_655 S
C1027 C1026 1.372 1_455 S
C1027 C1028 1.400 . S
C1027 C1032 1.490 . S
C1028 H1018 0.930 . S
C1028 C1027 1.400 . S
C1028 C1031 1.386 . S
H1029 C1045 0.930 . S
H1030 C1046 0.931 . S
C1031 H1019 0.929 . S
C1031 C1025 1.390 . S
C1031 C1028 1.386 . S
C1032 C1027 1.490 . S
C1032 C1034 1.395 . S
C1032 C1035 1.403 1_455 S
H1033 C1039 0.930 . S
C1034 H1020 0.930 . S
C1034 C1032 1.395 . S
C1034 C1037 1.403 1_565 S
C1035 C1032 1.403 1_655 S
C1035 C1036 1.524 . S
C1035 C1039 1.400 1_565 S
C1036 H1021 0.960 . S
C1036 H1022 0.960 . S
C1036 H1023 0.960 . S
C1036 C1035 1.524 . S
C1037 C1034 1.403 1_545 S
C1037 C1038 1.392 . S
C1037 C1041 1.495 . S
C1038 C1037 1.392 . S
C1038 C1039 1.385 1_455 S
C1038 C1040 1.478 . S
C1039 H1033 0.930 . S
C1039 C1035 1.400 1_545 S
C1039 C1038 1.385 1_655 S
C1040 C1038 1.478 . S
C1040 C1042 1.381 1_455 S
C1040 C1046 1.383 . S
C1041 C1037 1.495 . S
C1041 H1047 0.959 . S
C1041 H1048 0.961 . S
C1041 H1049 0.960 . S
C1042 C1040 1.381 1_655 S
C1042 C1043 1.394 . S
C1042 H1050 0.930 . S
C1043 C1042 1.394 . S
C1043 C1044 1.383 . S
C1043 H1051 0.929 . S
C1044 C1043 1.383 . S
C1044 C1045 1.377 1_655 S
C1045 H1029 0.930 . S
C1045 C1044 1.377 1_455 S
C1045 C1046 1.379 . S
C1046 H1030 0.931 . S
C1046 C1040 1.383 . S
C1046 C1045 1.379 . S
H1047 C1041 0.959 . S
H1048 C1041 0.961 . S
H1049 C1041 0.960 . S
H1050 C1042 0.930 . S
H1051 C1043 0.929 . S
H1052 C1060 0.929 . S
H1053 C1062 0.930 . S
H1054 C1064 0.930 . S
H1055 C1067 0.929 . S
H1056 C1070 0.930 . S
H1057 C1072 0.960 . S
H1058 C1072 0.960 . S
H1059 C1072 0.960 . S
C1060 H1052 0.929 . S
C1060 C1061 1.377 1_565 S
C1060 C1062 1.384 . S
C1061 C1060 1.377 1_545 S
C1061 C1067 1.390 . S
C1062 H1053 0.930 . S
C1062 C1060 1.384 . S
C1062 C1063 1.372 1_565 S
C1063 C1062 1.372 1_545 S
C1063 C1064 1.400 . S
C1063 C1068 1.488 1_545 S
C1064 H1054 0.930 . S
C1064 C1063 1.400 . S
C1064 C1067 1.386 . S
H1065 C1081 0.930 . S
H1066 C1082 0.931 . S
C1067 H1055 0.929 . S
C1067 C1061 1.390 . S
C1067 C1064 1.386 . S
C1068 C1063 1.488 1_565 S
C1068 C1070 1.416 . S
C1068 C1071 1.384 1_565 S
H1069 C1075 0.930 . S
C1070 H1056 0.930 . S
C1070 C1068 1.416 . S
C1070 C1073 1.403 . S
C1071 C1068 1.384 1_545 S
C1071 C1072 1.524 . S
C1071 C1075 1.400 . S
C1072 H1057 0.960 . S
C1072 H1058 0.960 . S
C1072 H1059 0.960 . S
C1072 C1071 1.524 . S
C1073 C1070 1.403 . S
C1073 C1074 1.392 . S
C1073 C1077 1.495 . S
C1074 C1073 1.392 . S
C1074 C1075 1.385 1_565 S
C1074 C1076 1.478 . S
C1075 H1069 0.930 . S
C1075 C1071 1.400 . S
C1075 C1074 1.385 1_545 S
C1076 C1074 1.478 . S
C1076 C1078 1.381 . S
C1076 C1082 1.383 1_565 S
C1077 C1073 1.495 . S
C1077 H1083 0.959 . S
C1077 H1084 0.961 . S
C1077 H1085 0.960 . S
C1078 C1076 1.381 . S
C1078 C1079 1.394 . S
C1078 H1086 0.930 . S
C1079 C1078 1.394 . S
C1079 C1080 1.383 . S
C1079 H1087 0.929 . S
C1080 C1079 1.383 . S
C1080 C1081 1.377 1_565 S
C1081 H1065 0.930 . S
C1081 C1080 1.377 1_545 S
C1081 C1082 1.379 . S
C1082 H1066 0.931 . S
C1082 C1076 1.383 1_545 S
C1082 C1081 1.379 . S
H1083 C1077 0.959 . S
H1084 C1077 0.961 . S
H1085 C1077 0.960 . S
H1086 C1078 0.930 . S
H1087 C1079 0.929 . S
H1088 C1096 0.929 . S
H1089 C1098 0.930 . S
H1090 C1100 0.930 . S
H1091 C1103 0.929 . S
H1092 C1106 0.930 . S
H1093 C1108 0.960 . S
H1094 C1108 0.960 . S
H1095 C1108 0.960 . S
C1096 H1088 0.929 . S
C1096 C1097 1.377 . S
C1096 C1098 1.384 . S
C1097 C1096 1.377 . S
C1097 C1103 1.390 . S
C1098 H1089 0.930 . S
C1098 C1096 1.384 . S
C1098 C1099 1.372 . S
C1099 C1098 1.372 . S
C1099 C1100 1.400 . S
C1099 C1104 1.490 . S
C1100 H1090 0.930 . S
C1100 C1099 1.400 . S
C1100 C1103 1.386 . S
H1101 C1117 0.930 . S
H1102 C1118 0.931 . S
C1103 H1091 0.929 . S
C1103 C1097 1.390 . S
C1103 C1100 1.386 . S
C1104 C1099 1.490 . S
C1104 C1106 1.395 . S
C1104 C1107 1.403 . S
H1105 C1111 0.930 . S
C1106 H1092 0.930 . S
C1106 C1104 1.395 . S
C1106 C1109 1.403 . S
C1107 C1104 1.403 . S
C1107 C1108 1.524 . S
C1107 C1111 1.400 . S
C1108 H1093 0.960 . S
C1108 H1094 0.960 . S
C1108 H1095 0.960 . S
C1108 C1107 1.524 . S
C1109 C1106 1.403 . S
C1109 C1110 1.392 . S
C1109 C1113 1.495 . S
C1110 C1109 1.392 . S
C1110 C1111 1.385 . S
C1110 C1112 1.478 . S
C1111 H1105 0.930 . S
C1111 C1107 1.400 . S
C1111 C1110 1.385 . S
C1112 C1110 1.478 . S
C1112 C1114 1.381 . S
C1112 C1118 1.383 . S
C1113 C1109 1.495 . S
C1113 H1119 0.959 . S
C1113 H1120 0.961 . S
C1113 H1121 0.960 . S
C1114 C1112 1.381 . S
C1114 C1115 1.394 . S
C1114 H1122 0.930 . S
C1115 C1114 1.394 . S
C1115 C1116 1.383 . S
C1115 H1123 0.929 . S
C1116 C1115 1.383 . S
C1116 C1117 1.377 . S
C1117 H1101 0.930 . S
C1117 C1116 1.377 . S
C1117 C1118 1.379 . S
C1118 H1102 0.931 . S
C1118 C1112 1.383 . S
C1118 C1117 1.379 . S
H1119 C1113 0.959 . S
H1120 C1113 0.961 . S
H1121 C1113 0.960 . S
H1122 C1114 0.930 . S
H1123 C1115 0.929 . S
H1124 C1132 0.929 . S
H1125 C1134 0.930 . S
H1126 C1136 0.930 . S
H1127 C1139 0.929 . S
H1128 C1142 0.930 . S
H1129 C1144 0.960 . S
H1130 C1144 0.960 . S
H1131 C1144 0.960 . S
C1132 H1124 0.929 . S
C1132 C1133 1.377 . S
C1132 C1134 1.384 . S
C1133 C1132 1.377 . S
C1133 C1139 1.390 . S
C1134 H1125 0.930 . S
C1134 C1132 1.384 . S
C1134 C1135 1.372 . S
C1135 C1134 1.372 . S
C1135 C1136 1.400 . S
C1135 C1140 1.490 . S
C1136 H1126 0.930 . S
C1136 C1135 1.400 . S
C1136 C1139 1.386 . S
H1137 C1153 0.930 . S
H1138 C1154 0.931 . S
C1139 H1127 0.929 . S
C1139 C1133 1.390 . S
C1139 C1136 1.386 . S
C1140 C1135 1.490 . S
C1140 C1142 1.395 . S
C1140 C1143 1.403 . S
H1141 C1147 0.930 . S
C1142 H1128 0.930 . S
C1142 C1140 1.395 . S
C1142 C1145 1.403 . S
C1143 C1140 1.403 . S
C1143 C1144 1.524 . S
C1143 C1147 1.400 . S
C1144 H1129 0.960 . S
C1144 H1130 0.960 . S
C1144 H1131 0.960 . S
C1144 C1143 1.524 . S
C1145 C1142 1.403 . S
C1145 C1146 1.392 . S
C1145 C1149 1.495 . S
C1146 C1145 1.392 . S
C1146 C1147 1.385 . S
C1146 C1148 1.478 . S
C1147 H1141 0.930 . S
C1147 C1143 1.400 . S
C1147 C1146 1.385 . S
C1148 C1146 1.478 . S
C1148 C1150 1.381 . S
C1148 C1154 1.383 . S
C1149 C1145 1.495 . S
C1149 H1155 0.959 . S
C1149 H1156 0.961 . S
C1149 H1157 0.960 . S
C1150 C1148 1.381 . S
C1150 C1151 1.394 . S
C1150 H1158 0.930 . S
C1151 C1150 1.394 . S
C1151 C1152 1.383 . S
C1151 H1159 0.929 . S
C1152 C1151 1.383 . S
C1152 C1153 1.377 . S
C1153 H1137 0.930 . S
C1153 C1152 1.377 . S
C1153 C1154 1.379 . S
C1154 H1138 0.931 . S
C1154 C1148 1.383 . S
C1154 C1153 1.379 . S
H1155 C1149 0.959 . S
H1156 C1149 0.961 . S
H1157 C1149 0.960 . S
H1158 C1150 0.930 . S
H1159 C1151 0.929 . S
H1160 C1168 0.929 . S
H1161 C1170 0.930 . S
H1162 C1172 0.930 . S
H1163 C1175 0.929 . S
H1164 C1178 0.930 . S
H1165 C1180 0.960 . S
H1166 C1180 0.960 . S
H1167 C1180 0.960 1_655 S
C1168 H1160 0.929 . S
C1168 C1169 1.377 . S
C1168 C1170 1.384 . S
C1169 C1168 1.377 . S
C1169 C1175 1.390 . S
C1170 H1161 0.930 . S
C1170 C1168 1.384 . S
C1170 C1171 1.372 . S
C1171 C1170 1.372 . S
C1171 C1172 1.400 . S
C1171 C1176 1.490 . S
C1172 H1162 0.930 . S
C1172 C1171 1.400 . S
C1172 C1175 1.386 . S
H1173 C1189 0.930 . S
H1174 C1190 0.931 . S
C1175 H1163 0.929 . S
C1175 C1169 1.390 . S
C1175 C1172 1.386 . S
C1176 C1171 1.490 . S
C1176 C1178 1.395 . S
C1176 C1179 1.403 . S
H1177 C1183 0.930 . S
C1178 H1164 0.930 . S
C1178 C1176 1.395 . S
C1178 C1181 1.403 . S
C1179 C1176 1.403 . S
C1179 C1180 1.524 1_655 S
C1179 C1183 1.400 . S
C1180 H1165 0.960 . S
C1180 H1166 0.960 . S
C1180 H1167 0.960 1_455 S
C1180 C1179 1.524 1_455 S
C1181 C1178 1.403 . S
C1181 C1182 1.392 . S
C1181 C1185 1.495 . S
C1182 C1181 1.392 . S
C1182 C1183 1.385 . S
C1182 C1184 1.478 . S
C1183 H1177 0.930 . S
C1183 C1179 1.400 . S
C1183 C1182 1.385 . S
C1184 C1182 1.478 . S
C1184 C1186 1.381 . S
C1184 C1190 1.383 . S
C1185 C1181 1.495 . S
C1185 H1191 0.959 . S
C1185 H1192 0.961 . S
C1185 H1193 0.960 . S
C1186 C1184 1.381 . S
C1186 C1187 1.394 . S
C1186 H1194 0.930 . S
C1187 C1186 1.394 . S
C1187 C1188 1.383 . S
C1187 H1195 0.929 . S
C1188 C1187 1.383 . S
C1188 C1189 1.377 . S
C1189 H1173 0.930 . S
C1189 C1188 1.377 . S
C1189 C1190 1.379 . S
C1190 H1174 0.931 . S
C1190 C1184 1.383 . S
C1190 C1189 1.379 . S
H1191 C1185 0.959 . S
H1192 C1185 0.961 . S
H1193 C1185 0.960 . S
H1194 C1186 0.930 . S
H1195 C1187 0.929 . S
H1196 C1204 0.929 1_545 S
H1197 C1206 0.930 1_545 S
H1198 C1208 0.930 . S
H1199 C1211 0.929 . S
H1200 C1214 0.930 . S
H1201 C1216 0.960 . S
H1202 C1216 0.960 . S
H1203 C1216 0.960 . S
C1204 H1196 0.929 1_565 S
C1204 C1205 1.377 . S
C1204 C1206 1.384 . S
C1205 C1204 1.377 . S
C1205 C1211 1.390 . S
C1206 H1197 0.930 1_565 S
C1206 C1204 1.384 . S
C1206 C1207 1.372 . S
C1207 C1206 1.372 . S
C1207 C1208 1.400 . S
C1207 C1212 1.490 . S
C1208 H1198 0.930 . S
C1208 C1207 1.400 . S
C1208 C1211 1.386 . S
H1209 C1225 0.930 . S
H1210 C1226 0.931 . S
C1211 H1199 0.929 . S
C1211 C1205 1.390 . S
C1211 C1208 1.386 . S
C1212 C1207 1.490 . S
C1212 C1214 1.395 . S
C1212 C1215 1.403 . S
H1213 C1219 0.930 . S
C1214 H1200 0.930 . S
C1214 C1212 1.395 . S
C1214 C1217 1.403 . S
C1215 C1212 1.403 . S
C1215 C1216 1.524 . S
C1215 C1219 1.400 . S
C1216 H1201 0.960 . S
C1216 H1202 0.960 . S
C1216 H1203 0.960 . S
C1216 C1215 1.524 . S
C1217 C1214 1.403 . S
C1217 C1218 1.392 . S
C1217 C1221 1.511 . S
C1218 C1217 1.392 . S
C1218 C1219 1.385 . S
C1218 C1220 1.478 . S
C1219 H1213 0.930 . S
C1219 C1215 1.400 . S
C1219 C1218 1.385 . S
C1220 C1218 1.478 . S
C1220 C1222 1.381 . S
C1220 C1226 1.383 . S
C1221 C1217 1.511 . S
C1221 H1227 0.947 1_565 S
C1221 H1228 0.982 . S
C1221 H1229 0.936 1_565 S
C1222 C1220 1.381 . S
C1222 C1223 1.394 . S
C1222 H1230 0.930 1_565 S
C1223 C1222 1.394 . S
C1223 C1224 1.383 . S
C1223 H1231 0.929 1_565 S
C1224 C1223 1.383 . S
C1224 C1225 1.377 . S
C1225 H1209 0.930 . S
C1225 C1224 1.377 . S
C1225 C1226 1.379 . S
C1226 H1210 0.931 . S
C1226 C1220 1.383 . S
C1226 C1225 1.379 . S
H1227 C1221 0.947 1_545 S
H1228 C1221 0.982 . S
H1229 C1221 0.936 1_545 S
H1230 C1222 0.930 1_545 S
H1231 C1223 0.929 1_545 S
H1232 C1240 0.929 . S
H1233 C1242 0.930 . S
H1234 C1244 0.930 . S
H1235 C1247 0.929 . S
H1236 C1250 0.930 . S
H1237 C1252 0.960 . S
H1238 C1252 0.960 . S
H1239 C1252 0.960 . S
C1240 H1232 0.929 . S
C1240 C1241 1.377 . S
C1240 C1242 1.384 . S
C1241 C1240 1.377 . S
C1241 C1247 1.390 . S
C1242 H1233 0.930 . S
C1242 C1240 1.384 . S
C1242 C1243 1.372 . S
C1243 C1242 1.372 . S
C1243 C1244 1.400 . S
C1243 C1248 1.490 . S
C1244 H1234 0.930 . S
C1244 C1243 1.400 . S
C1244 C1247 1.386 . S
H1245 C1261 0.930 . S
H1246 C1262 0.931 . S
C1247 H1235 0.929 . S
C1247 C1241 1.390 . S
C1247 C1244 1.386 . S
C1248 C1243 1.490 . S
C1248 C1250 1.395 . S
C1248 C1251 1.403 . S
H1249 C1255 0.930 . S
C1250 H1236 0.930 . S
C1250 C1248 1.395 . S
C1250 C1253 1.403 . S
C1251 C1248 1.403 . S
C1251 C1252 1.524 . S
C1251 C1255 1.400 . S
C1252 H1237 0.960 . S
C1252 H1238 0.960 . S
C1252 H1239 0.960 . S
C1252 C1251 1.524 . S
C1253 C1250 1.403 . S
C1253 C1254 1.392 . S
C1253 C1257 1.495 . S
C1254 C1253 1.392 . S
C1254 C1255 1.385 . S
C1254 C1256 1.478 . S
C1255 H1249 0.930 . S
C1255 C1251 1.400 . S
C1255 C1254 1.385 . S
C1256 C1254 1.478 . S
C1256 C1258 1.381 . S
C1256 C1262 1.383 . S
C1257 C1253 1.495 . S
C1257 H1263 0.959 . S
C1257 H1264 0.961 . S
C1257 H1265 0.960 . S
C1258 C1256 1.381 . S
C1258 C1259 1.394 . S
C1258 H1266 0.930 . S
C1259 C1258 1.394 . S
C1259 C1260 1.383 . S
C1259 H1267 0.929 . S
C1260 C1259 1.383 . S
C1260 C1261 1.377 . S
C1261 H1245 0.930 . S
C1261 C1260 1.377 . S
C1261 C1262 1.379 . S
C1262 H1246 0.931 . S
C1262 C1256 1.383 . S
C1262 C1261 1.379 . S
H1263 C1257 0.959 . S
H1264 C1257 0.961 . S
H1265 C1257 0.960 . S
H1266 C1258 0.930 . S
H1267 C1259 0.929 . S
H1268 C1276 0.929 . S
H1269 C1278 0.930 . S
H1270 C1280 0.930 . S
H1271 C1283 0.929 . S
H1272 C1286 0.930 . S
H1273 C1288 0.960 . S
H1274 C1288 0.960 . S
H1275 C1288 0.960 . S
C1276 H1268 0.929 . S
C1276 C1277 1.377 . S
C1276 C1278 1.384 . S
C1277 C1276 1.377 . S
C1277 C1283 1.390 . S
C1278 H1269 0.930 . S
C1278 C1276 1.384 . S
C1278 C1279 1.372 . S
C1279 C1278 1.372 . S
C1279 C1280 1.400 . S
C1279 C1284 1.490 . S
C1280 H1270 0.930 . S
C1280 C1279 1.400 . S
C1280 C1283 1.386 . S
H1281 C1297 0.930 . S
H1282 C1298 0.931 . S
C1283 H1271 0.929 . S
C1283 C1277 1.390 . S
C1283 C1280 1.386 . S
C1284 C1279 1.490 . S
C1284 C1286 1.395 . S
C1284 C1287 1.403 . S
H1285 C1291 0.930 . S
C1286 H1272 0.930 . S
C1286 C1284 1.395 . S
C1286 C1289 1.403 . S
C1287 C1284 1.403 . S
C1287 C1288 1.524 . S
C1287 C1291 1.400 . S
C1288 H1273 0.960 . S
C1288 H1274 0.960 . S
C1288 H1275 0.960 . S
C1288 C1287 1.524 . S
C1289 C1286 1.403 . S
C1289 C1290 1.392 . S
C1289 C1293 1.495 . S
C1290 C1289 1.392 . S
C1290 C1291 1.385 . S
C1290 C1292 1.478 . S
C1291 H1285 0.930 . S
C1291 C1287 1.400 . S
C1291 C1290 1.385 . S
C1292 C1290 1.478 . S
C1292 C1294 1.381 . S
C1292 C1298 1.383 . S
C1293 C1289 1.495 . S
C1293 H1299 0.959 . S
C1293 H1300 0.961 . S
C1293 H1301 0.960 . S
C1294 C1292 1.381 . S
C1294 C1295 1.394 . S
C1294 H1302 0.930 . S
C1295 C1294 1.394 . S
C1295 C1296 1.383 . S
C1295 H1303 0.929 . S
C1296 C1295 1.383 . S
C1296 C1297 1.377 . S
C1297 H1281 0.930 . S
C1297 C1296 1.377 . S
C1297 C1298 1.379 . S
C1298 H1282 0.931 . S
C1298 C1292 1.383 . S
C1298 C1297 1.379 . S
H1299 C1293 0.959 . S
H1300 C1293 0.961 . S
H1301 C1293 0.960 . S
H1302 C1294 0.930 . S
H1303 C1295 0.929 . S
H1304 C1312 0.929 . S
H1305 C1314 0.930 . S
H1306 C1316 0.930 1_655 S
H1307 C1319 0.929 1_655 S
H1308 C1322 0.930 . S
H1309 C1324 0.960 . S
H1310 C1324 0.960 . S
H1311 C1324 0.960 1_655 S
C1312 H1304 0.929 . S
C1312 C1313 1.377 . S
C1312 C1314 1.384 . S
C1313 C1312 1.377 . S
C1313 C1319 1.390 . S
C1314 H1305 0.930 . S
C1314 C1312 1.384 . S
C1314 C1315 1.372 . S
C1315 C1314 1.372 . S
C1315 C1316 1.400 . S
C1315 C1320 1.490 . S
C1316 H1306 0.930 1_455 S
C1316 C1315 1.400 . S
C1316 C1319 1.386 . S
H1317 C1333 0.930 1_655 S
H1318 C1334 0.931 1_655 S
C1319 H1307 0.929 1_455 S
C1319 C1313 1.390 . S
C1319 C1316 1.386 . S
C1320 C1315 1.490 . S
C1320 C1322 1.395 . S
C1320 C1323 1.403 . S
H1321 C1327 0.930 . S
C1322 H1308 0.930 . S
C1322 C1320 1.395 . S
C1322 C1325 1.403 . S
C1323 C1320 1.403 . S
C1323 C1324 1.524 . S
C1323 C1327 1.400 . S
C1324 H1309 0.960 . S
C1324 H1310 0.960 . S
C1324 H1311 0.960 1_455 S
C1324 C1323 1.524 . S
C1325 C1322 1.403 . S
C1325 C1326 1.392 . S
C1325 C1329 1.495 . S
C1326 C1325 1.392 . S
C1326 C1327 1.385 . S
C1326 C1328 1.478 . S
C1327 H1321 0.930 . S
C1327 C1323 1.400 . S
C1327 C1326 1.385 . S
C1328 C1326 1.478 . S
C1328 C1330 1.381 . S
C1328 C1334 1.383 . S
C1329 C1325 1.495 . S
C1329 H1335 0.959 . S
C1329 H1336 0.961 . S
C1329 H1337 0.960 . S
C1330 C1328 1.381 . S
C1330 C1331 1.394 . S
C1330 H1338 0.930 . S
C1331 C1330 1.394 . S
C1331 C1332 1.383 . S
C1331 H1339 0.929 . S
C1332 C1331 1.383 . S
C1332 C1333 1.377 . S
C1333 H1317 0.930 1_455 S
C1333 C1332 1.377 . S
C1333 C1334 1.379 . S
C1334 H1318 0.931 1_455 S
C1334 C1328 1.383 . S
C1334 C1333 1.379 . S
H1335 C1329 0.959 . S
H1336 C1329 0.961 . S
H1337 C1329 0.960 . S
H1338 C1330 0.930 . S
H1339 C1331 0.929 . S
H1340 C1348 0.929 . S
H1341 C1350 0.930 . S
H1342 C1352 0.930 1_565 S
H1343 C1355 0.929 1_565 S
H1344 C1358 0.930 . S
H1345 C1360 0.960 . S
H1346 C1360 0.960 . S
H1347 C1360 0.940 1_565 S
C1348 H1340 0.929 . S
C1348 C1349 1.377 . S
C1348 C1350 1.384 . S
C1349 C1348 1.377 . S
C1349 C1355 1.390 . S
C1350 H1341 0.930 . S
C1350 C1348 1.384 . S
C1350 C1351 1.372 . S
C1351 C1350 1.372 . S
C1351 C1352 1.400 . S
C1351 C1356 1.490 . S
C1352 H1342 0.930 1_545 S
C1352 C1351 1.400 . S
C1352 C1355 1.386 . S
H1353 C1369 0.930 1_565 S
H1354 C1370 0.931 1_565 S
C1355 H1343 0.929 1_545 S
C1355 C1349 1.390 . S
C1355 C1352 1.386 . S
C1356 C1351 1.490 . S
C1356 C1358 1.395 . S
C1356 C1359 1.403 . S
H1357 C1363 0.930 . S
C1358 H1344 0.930 . S
C1358 C1356 1.395 . S
C1358 C1361 1.403 . S
C1359 C1356 1.403 . S
C1359 C1360 1.524 . S
C1359 C1363 1.400 . S
C1360 H1345 0.960 . S
C1360 H1346 0.960 . S
C1360 H1347 0.940 1_545 S
C1360 C1359 1.524 . S
C1361 C1358 1.403 . S
C1361 C1362 1.392 . S
C1361 C1365 1.495 . S
C1362 C1361 1.392 . S
C1362 C1363 1.385 . S
C1362 C1364 1.478 . S
C1363 H1357 0.930 . S
C1363 C1359 1.400 . S
C1363 C1362 1.385 . S
C1364 C1362 1.478 . S
C1364 C1366 1.381 . S
C1364 C1370 1.383 . S
C1365 C1361 1.495 . S
C1365 H1371 0.959 . S
C1365 H1372 0.961 . S
C1365 H1373 0.960 . S
C1366 C1364 1.381 . S
C1366 C1367 1.394 . S
C1366 H1374 0.930 . S
C1367 C1366 1.394 . S
C1367 C1368 1.383 . S
C1367 H1375 0.929 . S
C1368 C1367 1.383 . S
C1368 C1369 1.377 . S
C1369 H1353 0.930 1_545 S
C1369 C1368 1.377 . S
C1369 C1370 1.379 . S
C1370 H1354 0.931 1_545 S
C1370 C1364 1.383 . S
C1370 C1369 1.379 . S
H1371 C1365 0.959 . S
H1372 C1365 0.961 . S
H1373 C1365 0.960 . S
H1374 C1366 0.930 . S
H1375 C1367 0.929 . S
C233 C9 0.651 . S
C252 C133 0.597 . S
C269 C147 0.632 . S
C288 C23 0.698 . S
C305 C161 0.641 . S
C324 C37 0.727 . S
C341 C119 0.629 . S
C360 C51 0.594 . S
C377 C65 0.643 . S
C396 C217 0.589 . S
C413 C175 0.627 . S
C432 C79 0.584 . S
C449 C189 0.627 . S
C468 C93 0.584 . S
C485 C203 0.639 . S
C504 C107 0.727 . S
C521 C121 0.641 . S
C540 C21 0.669 . S
C557 C135 0.642 . S
C576 C35 0.678 . S
C593 C149 0.641 . S
C612 C49 0.673 . S
C629 C7 0.638 . S
C648 C163 0.637 . S
C665 C177 0.646 . S
C684 C105 0.650 . S
C701 C191 0.645 . S
C720 C63 0.652 . S
C737 C77 0.626 . S
C756 C205 0.724 . S
C773 C219 0.643 . S
C792 C91 0.676 . S
C809 C120 1.681 . S
C828 C8 1.672 . S
C845 C22 1.686 . S
C864 C134 1.663 . S
C881 C148 1.686 . S
C900 C36 1.663 . S
C917 C50 1.681 . S
C936 C162 1.669 . S
C953 C176 1.689 . S
C972 C64 1.673 . S
C989 C78 1.681 . S
C1008 C190 1.666 . S
C1025 C204 1.691 . S
C1044 C92 1.698 . S
C1061 C218 1.684 . S
C1080 C106 1.659 . S
C1097 C59 1.699 . S
C1116 C3 1.709 . S
C1133 C73 1.703 . S
C1152 C17 1.689 . S
C1169 C31 1.703 . S
C1188 C87 1.685 . S
C1205 C101 1.700 . S
C1224 C45 1.691 . S
C1241 C115 1.703 . S
C1260 C171 1.709 . S
C1277 C185 1.701 . S
C1296 C129 1.699 . S
C1313 C199 1.698 . S
C1332 C143 1.684 . S
C1349 C213 1.698 . S
C1368 C157 1.685 . S
