# Generated by pormake.
# Topology wli, (5)-cn, num edge types: 1
# Building blocks:
#     Node 0, Type 0, BuildingBlock: XOMCOT_clean_sbu_1, # of connection points: 5
#     Node 1, Type 0, BuildingBlock: XOMCOT_clean_sbu_1, # of connection points: 5
#     Node 2, Type 0, BuildingBlock: XOMCOT_clean_sbu_1, # of connection points: 5
#     Node 3, Type 0, BuildingBlock: XOMCOT_clean_sbu_1, # of connection points: 5
#     Node 4, Type 0, BuildingBlock: XOMCOT_clean_sbu_1, # of connection points: 5
#     Node 5, Type 0, BuildingBlock: XOMCOT_clean_sbu_1, # of connection points: 5
#     Edge 6, Type (0, 0), BuildingBlock: CIFDUS_clean_linker_0, # of connection points: 2
#     Edge 7, Type (0, 0), BuildingBlock: CIFDUS_clean_linker_0, # of connection points: 2
#     Edge 8, Type (0, 0), BuildingBlock: CIFDUS_clean_linker_0, # of connection points: 2
#     Edge 9, Type (0, 0), BuildingBlock: CIFDUS_clean_linker_0, # of connection points: 2
#     Edge 10, Type (0, 0), BuildingBlock: CIFDUS_clean_linker_0, # of connection points: 2
#     Edge 11, Type (0, 0), BuildingBlock: CIFDUS_clean_linker_0, # of connection points: 2
#     Edge 12, Type (0, 0), BuildingBlock: CIFDUS_clean_linker_0, # of connection points: 2
#     Edge 13, Type (0, 0), BuildingBlock: CIFDUS_clean_linker_0, # of connection points: 2
#     Edge 14, Type (0, 0), BuildingBlock: CIFDUS_clean_linker_0, # of connection points: 2
#     Edge 15, Type (0, 0), BuildingBlock: CIFDUS_clean_linker_0, # of connection points: 2
#     Edge 16, Type (0, 0), BuildingBlock: CIFDUS_clean_linker_0, # of connection points: 2
#     Edge 17, Type (0, 0), BuildingBlock: CIFDUS_clean_linker_0, # of connection points: 2
#     Edge 18, Type (0, 0), BuildingBlock: CIFDUS_clean_linker_0, # of connection points: 2
#     Edge 19, Type (0, 0), BuildingBlock: CIFDUS_clean_linker_0, # of connection points: 2
#     Edge 20, Type (0, 0), BuildingBlock: CIFDUS_clean_linker_0, # of connection points: 2
# Relax obj value: 0.115
# Max RMSD: 0.139
# Mean RMSD: 0.139
data_MOF--net-wli--node1-XOMCOT_clean_sbu_1--edge1-CIFDUS_clean_linker_0
_symmetry_space_group_name_H-M    P1
_symmetry_Int_Tables_number       1
_symmetry_cell_setting            triclinic
loop_
_symmetry_equiv_pos_as_xyz
'x, y, z'
_cell_length_a     31.516212
_cell_length_b     31.39894
_cell_length_c     24.650778
_cell_angle_alpha  89.762993
_cell_angle_beta   90.009143
_cell_angle_gamma 120.31818
loop_
_atom_site_label
_atom_site_type_symbol
_atom_site_fract_x
_atom_site_fract_y
_atom_site_fract_z
_atom_type_partial_charge
C0 C 0.2372 0.52287 0.03786 0.0
C1 C 0.27416 0.56173 0.00915 0.0
N2 N 0.3167 0.56262 0.01889 0.0
N3 N 0.25638 0.49923 0.0651 0.0
C4 C 0.30484 0.52477 0.05353 0.0
H5 H 0.19865 0.51178 0.03791 0.0
Co6 Co 0.22339 0.44369 0.10961 0.0
C7 C 0.26789 0.38429 0.0771 0.0
O8 O 0.223 0.34644 0.07323 0.0
N9 N 0.19015 0.38909 0.15814 0.0
C10 C 0.17635 0.33335 0.22264 0.0
C11 C 0.20947 0.36515 0.18507 0.0
C12 C 0.14631 0.37327 0.18332 0.0
N13 N 0.13666 0.33863 0.22165 0.0
O14 O 0.25875 0.48404 0.16975 0.0
H15 H 0.24664 0.37243 0.18082 0.0
H16 H 0.12284 0.38853 0.17582 0.0
O17 O 0.2748 0.42594 0.09399 0.0
C18 C 0.23238 0.50127 0.18731 0.0
O19 O 0.18903 0.48531 0.16509 0.0
N20 N 0.18603 0.40671 0.04857 0.0
C21 C 0.13123 0.36783 0.95389 0.0
C22 C 0.18252 0.39144 0.95259 0.0
C23 C 0.20918 0.41101 8e-05 0.0
C24 C 0.13596 0.3839 0.05021 0.0
C25 C 0.1078 0.36329 0.00358 0.0
H26 H 0.24879 0.43163 0.9972 0.0
H27 H 0.11738 0.3841 0.0866 0.0
H28 H 0.33098 0.51553 0.07004 0.0
H29 H 0.26965 0.5861 0.98163 0.0
H30 H 0.18229 0.31044 0.25098 0.0
H31 H 0.20199 0.39628 0.91477 0.0
H32 H 0.06823 0.34676 0.00576 0.0
C33 C 0.54495 0.7309 0.68192 0.0
C34 C 0.50569 0.72834 0.6542 0.0
N35 N 0.49858 0.76473 0.67227 0.0
N36 N 0.56273 0.76904 0.71682 0.0
C37 C 0.53333 0.78835 0.71048 0.0
H38 H 0.55972 0.70666 0.67689 0.0
Co39 Co 0.6137 0.78827 0.76677 0.0
C40 C 0.63384 0.89603 0.7556 0.0
O41 O 0.59928 0.89538 0.78595 0.0
N42 N 0.66399 0.80642 0.81796 0.0
C43 C 0.73212 0.84514 0.86731 0.0
C44 C 0.7053 0.85019 0.82621 0.0
C45 C 0.66657 0.77556 0.85447 0.0
N46 N 0.70769 0.79801 0.88504 0.0
O47 O 0.57003 0.78427 0.8232 0.0
H48 H 0.71586 0.88361 0.80358 0.0
H49 H 0.63958 0.73672 0.8571 0.0
O50 O 0.63708 0.85732 0.75086 0.0
C51 C 0.54646 0.73887 0.83704 0.0
O52 O 0.55664 0.70827 0.81179 0.0
N53 N 0.65486 0.7883 0.71189 0.0
C54 C 0.70853 0.77784 0.62876 0.0
C55 C 0.68932 0.80918 0.62235 0.0
C56 C 0.66256 0.81398 0.66451 0.0
C57 C 0.67323 0.75753 0.71862 0.0
C58 C 0.70098 0.75239 0.67781 0.0
H59 H 0.64617 0.83661 0.65799 0.0
H60 H 0.66504 0.73555 0.75509 0.0
H61 H 0.5366 0.81854 0.73442 0.0
H62 H 0.48482 0.70246 0.62245 0.0
H63 H 0.7669 0.87409 0.88281 0.0
H64 H 0.69382 0.82872 0.58451 0.0
H65 H 0.71426 0.72688 0.68346 0.0
C66 C 0.32375 0.82141 0.36105 0.0
C67 C 0.32396 0.78423 0.33169 0.0
N68 N 0.28216 0.74165 0.34289 0.0
N69 N 0.28182 0.80229 0.39013 0.0
C70 C 0.25747 0.75375 0.37853 0.0
H71 H 0.35259 0.85972 0.36195 0.0
Co72 Co 0.26506 0.83382 0.44225 0.0
C73 C 0.16226 0.80236 0.4154 0.0
O74 O 0.17525 0.84916 0.41891 0.0
N75 N 0.24956 0.8652 0.49877 0.0
C76 C 0.2139 0.87872 0.56983 0.0
C77 C 0.20718 0.84776 0.52727 0.0
C78 C 0.28226 0.90479 0.52801 0.0
N79 N 0.26132 0.91452 0.57024 0.0
O80 O 0.26633 0.79008 0.49562 0.0
H81 H 0.17392 0.81305 0.52022 0.0
H82 H 0.32137 0.92495 0.52038 0.0
O83 O 0.19384 0.78901 0.42553 0.0
C84 C 0.31092 0.81301 0.51159 0.0
O85 O 0.34098 0.85645 0.49008 0.0
N86 N 0.2699 0.87994 0.38872 0.0
C87 C 0.2938 0.94976 0.30565 0.0
C88 C 0.26096 0.89944 0.2963 0.0
C89 C 0.24965 0.86518 0.33824 0.0
C90 C 0.3022 0.92862 0.39794 0.0
C91 C 0.31324 0.96408 0.35791 0.0
H92 H 0.22647 0.82641 0.32928 0.0
H93 H 0.32226 0.94052 0.43512 0.0
H94 H 0.22307 0.72747 0.39757 0.0
H95 H 0.35256 0.78831 0.3042 0.0
H96 H 0.18677 0.87369 0.6 0.0
H97 H 0.24598 0.88613 0.25635 0.0
H98 H 0.33855 1.00234 0.36762 0.0
C99 C 0.52163 0.22675 0.97814 0.0
C100 C 0.56123 0.26323 0.00605 0.0
N101 N 0.56711 0.30728 0.99111 0.0
N102 N 0.50249 0.24779 0.94626 0.0
C103 C 0.53115 0.29666 0.95463 0.0
H104 H 0.50787 0.1875 0.98057 0.0
Co105 Co 0.45208 0.21795 0.89575 0.0
C106 C 0.38971 0.26087 0.91861 0.0
O107 O 0.3519 0.21578 0.91576 0.0
N108 N 0.40289 0.18831 0.84109 0.0
C109 C 0.3556 0.18045 0.7699 0.0
C110 C 0.38556 0.21164 0.80963 0.0
C111 C 0.38575 0.1441 0.81628 0.0
N112 N 0.35589 0.13798 0.77411 0.0
O113 O 0.49803 0.25664 0.84046 0.0
H114 H 0.396 0.24999 0.81307 0.0
H115 H 0.39705 0.11782 0.82641 0.0
O116 O 0.43332 0.2689 0.90989 0.0
C117 C 0.51526 0.23018 0.82318 0.0
O118 O 0.49706 0.18545 0.84331 0.0
N119 N 0.40915 0.17698 0.95165 0.0
C120 C 0.3571 0.11485 0.03824 0.0
C121 C 0.37941 0.16604 0.04351 0.0
C122 C 0.40561 0.1965 -0.0001 0.0
C123 C 0.38917 0.12719 0.94712 0.0
C124 C 0.36175 0.09536 0.98927 0.0
H125 H 0.42495 0.23595 0.00587 0.0
H126 H 0.39709 0.11178 0.91254 0.0
H127 H 0.52642 0.32402 0.93301 0.0
H128 H 0.58347 0.25762 0.03544 0.0
H129 H 0.33732 0.18928 0.73836 0.0
H130 H 0.37804 0.18237 0.08162 0.0
H131 H 0.34718 0.05605 0.98493 0.0
C132 C 0.83179 0.31449 0.64537 0.0
C133 C 0.79558 0.31636 0.67491 0.0
N134 N 0.75192 0.27685 0.66172 0.0
N135 N 0.81093 0.27376 0.6142 0.0
C136 C 0.76238 0.25203 0.62453 0.0
H137 H 0.87076 0.34098 0.64648 0.0
Co138 Co 0.84105 0.25394 0.56334 0.0
C139 C 0.79675 0.14765 0.58942 0.0
O140 O 0.84116 0.15388 0.58569 0.0
N141 N 0.8714 0.23604 0.50836 0.0
C142 C 0.88333 0.20098 0.43577 0.0
C143 C 0.85242 0.19434 0.47848 0.0
C144 C 0.91237 0.26829 0.48046 0.0
N145 N 0.921 0.24774 0.43694 0.0
O146 O 0.8028 0.26173 0.50811 0.0
H147 H 0.8166 0.1621 0.48435 0.0
H148 H 0.93431 0.30703 0.49023 0.0
O149 O 0.79014 0.18378 0.5777 0.0
C150 C 0.82779 0.30697 0.49394 0.0
O151 O 0.87048 0.33483 0.51751 0.0
N152 N 0.88146 0.25114 0.61918 0.0
C153 C 0.94248 0.26108 0.70682 0.0
C154 C 0.8912 0.23425 0.71235 0.0
C155 C 0.86148 0.22997 0.66833 0.0
C156 C 0.93131 0.27738 0.6133 0.0
C157 C 0.96232 0.28177 0.65596 0.0
H158 H 0.82219 0.21134 0.67467 0.0
H159 H 0.94787 0.29735 0.57658 0.0
H160 H 0.73504 0.21905 0.6042 0.0
H161 H 0.8011 0.3441 0.70445 0.0
H162 H 0.87681 0.17451 0.40419 0.0
H163 H 0.87395 0.21875 0.75106 0.0
H164 H 1.00167 0.30274 0.64942 0.0
C165 C 0.74266 0.53091 0.29438 0.0
C166 C 0.73981 0.49286 0.32548 0.0
N167 N 0.78175 0.49188 0.31854 0.0
N168 N 0.78632 0.55386 0.26843 0.0
C169 C 0.80887 0.52886 0.28333 0.0
H170 H 0.71497 0.54148 0.29118 0.0
Co171 Co 0.8102 0.60634 0.21946 0.0
C172 C 0.91225 0.66984 0.25693 0.0
O173 O 0.90385 0.70676 0.25417 0.0
N174 N 0.83367 0.65792 0.16639 0.0
C175 C 0.87844 0.70882 0.09927 0.0
C176 C 0.87778 0.67937 0.141 0.0
C177 C 0.80728 0.67278 0.13641 0.0
N178 N 0.83394 0.70478 0.09636 0.0
O179 O 0.80798 0.56263 0.16428 0.0
H180 H 0.907 0.67187 0.14954 0.0
H181 H 0.76835 0.65817 0.14151 0.0
O182 O 0.87901 0.62673 0.24141 0.0
C183 C 0.76477 0.54537 0.14502 0.0
O184 O 0.73763 0.56292 0.16386 0.0
N185 N 0.80585 0.64621 0.2747 0.0
C186 C 0.78064 0.68896 0.35916 0.0
C187 C 0.81012 0.668 0.369 0.0
C188 C 0.82205 0.64665 0.32639 0.0
C189 C 0.77676 0.66596 0.26495 0.0
C190 C 0.76529 0.68897 0.30579 0.0
H191 H 0.84216 0.62804 0.33569 0.0
H192 H 0.75918 0.66126 0.22655 0.0
H193 H 0.84446 0.53731 0.26804 0.0
H194 H 0.70983 0.46872 0.35211 0.0
H195 H 0.90856 0.72926 0.07127 0.0
H196 H 0.82173 0.66554 0.40965 0.0
H197 H 0.7426 0.70467 0.29568 0.0
H198 H 0.33972 0.70654 0.30609 0.0
H199 H 0.18861 0.66755 0.3304 0.0
H200 H 0.16067 0.58686 0.291 0.0
H201 H 0.17839 0.52994 0.24357 0.0
H202 H 0.32843 0.56827 0.21376 0.0
H203 H 0.35767 0.64637 0.26224 0.0
C204 C 0.30072 0.68041 0.30263 0.0
C205 C 0.26635 0.69334 0.32109 0.0
C206 C 0.28474 0.63392 0.2792 0.0
C207 C 0.21592 0.65861 0.31717 0.0
C208 C 0.19984 0.61244 0.29437 0.0
C209 C 0.21757 0.55508 0.24816 0.0
C210 C 0.25121 0.54357 0.22479 0.0
C211 C 0.23385 0.60005 0.27458 0.0
C212 C 0.3018 0.57622 0.23164 0.0
C213 C 0.31846 0.62105 0.25885 0.0
H214 H 0.51787 0.65751 0.89653 0.0
H215 H 0.48557 0.77379 0.86849 0.0
H216 H 0.41162 0.73016 0.92567 0.0
H217 H 0.35281 0.65488 0.97736 0.0
H218 H 0.38662 0.53874 0.00049 0.0
H219 H 0.46343 0.58658 0.95179 0.0
C220 C 0.49491 0.67364 0.90328 0.0
C221 C 0.50675 0.71847 0.87799 0.0
C222 C 0.45254 0.64814 0.9351 0.0
C223 C 0.47719 0.73933 0.88775 0.0
C224 C 0.43476 0.71416 0.92001 0.0
C225 C 0.37706 0.64017 0.97178 0.0
C226 C 0.36365 0.59309 0.99274 0.0
C227 C 0.42142 0.66785 0.94282 0.0
C228 C 0.39596 0.57495 0.98574 0.0
C229 C 0.43992 0.60218 0.95745 0.0
H230 H 0.38451 0.86395 0.5805 0.0
H231 H 0.28518 0.71579 0.52646 0.0
H232 H 0.33376 0.6864 0.57523 0.0
H233 H 0.40998 0.7055 0.6251 0.0
H234 H 0.50975 0.85579 0.6738 0.0
H235 H 0.45542 0.88162 0.63542 0.0
C236 C 0.373 0.82501 0.5801 0.0
C237 C 0.33169 0.79207 0.54975 0.0
C238 C 0.40161 0.80896 0.60675 0.0
C239 C 0.31674 0.74172 0.54995 0.0
C240 C 0.34486 0.72512 0.57727 0.0
C241 C 0.4197 0.74382 0.62736 0.0
C242 C 0.46417 0.7786 0.65224 0.0
C243 C 0.38832 0.75879 0.60437 0.0
C244 C 0.47573 0.82802 0.65561 0.0
C245 C 0.44475 0.84299 0.63333 0.0
H246 H 0.54164 0.17597 0.76388 0.0
H247 H 0.58547 0.32674 0.80104 0.0
H248 H 0.66299 0.35527 0.7516 0.0
H249 H 0.72073 0.33602 0.70392 0.0
H250 H 0.67552 0.18388 0.67153 0.0
H251 H 0.59607 0.15726 0.71294 0.0
C252 C 0.56791 0.21519 0.76079 0.0
C253 C 0.5581 0.24919 0.7864 0.0
C254 C 0.61235 0.23098 0.73351 0.0
C255 C 0.59216 0.29986 0.78144 0.0
C256 C 0.63662 0.31608 0.75361 0.0
C257 C 0.69347 0.2971 0.70602 0.0
C258 C 0.70429 0.26205 0.68459 0.0
C259 C 0.6476 0.28181 0.7306 0.0
C260 C 0.66819 0.21175 0.68691 0.0
C261 C 0.62272 0.1964 0.71093 0.0
H262 H 0.72326 0.39906 0.35778 0.0
H263 H 0.87466 0.51534 0.34168 0.0
H264 H 0.90156 0.46554 0.3896 0.0
H265 H 0.88279 0.39189 0.44041 0.0
H266 H 0.73253 0.27512 0.46136 0.0
H267 H 0.70444 0.32187 0.40668 0.0
C268 C 0.76207 0.41341 0.36488 0.0
C269 C 0.79683 0.46097 0.34588 0.0
C270 C 0.77751 0.38451 0.39322 0.0
C271 C 0.84708 0.47875 0.35489 0.0
C272 C 0.86258 0.45038 0.38267 0.0
C273 C 0.8438 0.37636 0.43284 0.0
C274 C 0.80973 0.33034 0.45526 0.0
C275 C 0.82817 0.40359 0.40246 0.0
C276 C 0.75948 0.31046 0.44437 0.0
C277 C 0.74347 0.33737 0.41349 0.0
H278 H 0.65657 0.33587 0.03555 0.0
H279 H 0.55778 0.38821 0.99246 0.0
H280 H 0.61493 0.46882 0.02884 0.0
H281 H 0.68872 0.52243 0.07956 0.0
H282 H 0.78662 0.47143 0.12961 0.0
H283 H 0.73463 0.39268 0.08298 0.0
C284 C 0.64755 0.36488 0.03418 0.0
C285 C 0.60262 0.35558 0.01116 0.0
C286 C 0.68053 0.41149 0.05623 0.0
C287 C 0.59208 0.39407 0.00905 0.0
C288 C 0.62471 0.44032 0.0302 0.0
C289 C 0.69916 0.49435 0.07973 0.0
C290 C 0.7412 0.50251 0.10825 0.0
C291 C 0.6685 0.44913 0.0546 0.0
C292 C 0.75457 0.46609 0.10759 0.0
C293 C 0.72451 0.42091 0.08148 0.0
H294 H 1.02763 0.34581 0.72968 0.0
H295 H 0.92986 0.19963 0.79293 0.0
H296 H 0.97952 0.21958 0.87513 0.0
H297 H 0.04983 0.27975 0.93024 0.0
H298 H 0.14901 0.42385 0.8636 0.0
H299 H 0.10035 0.40289 0.78071 0.0
C300 C 1.01762 0.31769 0.76064 0.0
C301 C 0.97485 0.27126 0.75485 0.0
C302 C 0.04669 0.32905 0.80728 0.0
C303 C 0.9621 0.23597 0.79647 0.0
C304 C 0.99063 0.24724 0.84344 0.0
C305 C 0.06073 0.3063 0.89734 0.0
C306 C 0.10284 0.35318 0.90282 0.0
C307 C 1.03272 0.29388 0.84954 0.0
C308 C 0.11697 0.38734 0.85997 0.0
C309 C 0.08905 0.37549 0.81273 0.0
H310 H 0.82739 0.73369 0.45408 0.0
H311 H 0.69063 0.6819 0.36762 0.0
H312 H 0.65896 0.70898 0.44099 0.0
H313 H 0.66768 0.74362 0.53153 0.0
H314 H 0.79948 0.78719 0.62345 0.0
H315 H 0.83506 0.76605 0.54675 0.0
C316 C 0.79053 0.72794 0.45133 0.0
C317 C 0.76205 0.70643 0.40451 0.0
C318 C 0.77142 0.74184 0.49491 0.0
C319 C 0.71439 0.69977 0.40194 0.0
C320 C 0.69578 0.71471 0.44433 0.0
C321 C 0.70442 0.74894 0.53437 0.0
C322 C 0.73132 0.76737 0.58237 0.0
C323 C 0.72381 0.7355 0.49101 0.0
C324 C 0.77839 0.7732 0.58648 0.0
C325 C 0.7986 0.76112 0.54277 0.0
H326 H 0.40297 0.11894 0.13119 0.0
H327 H 0.26366 0.03703 0.04999 0.0
H328 H 0.23031 0.97972 0.1273 0.0
H329 H 0.24225 0.95209 0.21685 0.0
H330 H 0.38579 0.03013 0.29162 0.0
H331 H 0.41552 0.09028 0.2187 0.0
C332 C 0.3651 0.08887 0.13095 0.0
C333 C 0.33543 0.0823 0.0858 0.0
C334 C 0.34696 0.05549 0.17442 0.0
C335 C 0.28684 0.04271 0.08486 0.0
C336 C 0.26793 1.01003 0.12886 0.0
C337 C 0.28012 0.98199 0.21713 0.0
C338 C 0.31123 0.98662 0.26058 0.0
C339 C 0.2979 1.01577 0.17367 0.0
C340 C 0.36019 0.0261 0.26002 0.0
C341 C 0.37762 0.06044 0.21786 0.0
H342 H 0.41573 0.31532 0.01123 0.0
H343 H 0.33736 0.29067 0.86071 0.0
H344 H 0.29782 0.33502 0.89485 0.0
H345 H 0.27439 0.36678 0.97256 0.0
H346 H 0.34825 0.38846 0.1255 0.0
H347 H 0.40111 0.35983 0.08582 0.0
C348 C 0.39154 0.32157 0.98537 0.0
C349 C 0.37976 0.30042 0.9333 0.0
C350 C 0.36741 0.3456 0.00624 0.0
C351 C 0.34733 0.30732 0.90056 0.0
C352 C 0.32436 0.33219 0.9203 0.0
C353 C 0.30316 0.36668 0.99666 0.0
C354 C 0.30773 0.37969 0.05165 0.0
C355 C 0.33242 0.34944 0.97382 0.0
C356 C 0.3446 0.37903 0.08287 0.0
C357 C 0.37444 0.36227 0.06024 0.0
H358 H 0.79951 0.06473 0.61177 0.0
H359 H 0.70653 0.12803 0.6287 0.0
H360 H 0.64799 0.05639 0.68266 0.0
H361 H 0.62483 0.97639 0.72807 0.0
H362 H 0.72014 0.91564 0.70954 0.0
H363 H 0.77606 0.98571 0.65393 0.0
C364 C 0.76628 0.0629 0.62681 0.0
C365 C 0.75762 0.10193 0.61609 0.0
C366 C 0.7333 1.02207 0.65826 0.0
C367 C 0.71413 0.0985 0.63594 0.0
C368 C 0.68079 0.05763 0.6672 0.0
C369 C 0.65798 0.97869 0.71209 0.0
C370 C 0.66814 0.9406 0.72342 0.0
C371 C 0.69031 1.01939 0.6793 0.0
C372 C 0.71108 0.94408 0.70171 0.0
C373 C 0.74324 0.98425 0.66969 0.0
H374 H 0.12615 0.73136 0.33597 0.0
H375 H 0.08291 0.79672 0.46195 0.0
H376 H 0.99923 0.75584 0.42704 0.0
H377 H 0.94195 0.71219 0.35365 0.0
H378 H 0.98243 0.64715 0.22514 0.0
H379 H 0.06321 0.67656 0.26785 0.0
C380 C 0.09785 0.73515 0.35661 0.0
C381 C 0.11052 0.76694 0.40155 0.0
C382 C 0.04964 0.71239 0.33518 0.0
C383 C 0.07389 0.77239 0.42742 0.0
C384 C 1.02612 0.7493 0.40726 0.0
C385 C 0.96819 0.70368 0.33555 0.0
C386 C 0.95674 0.67811 0.2862 0.0
C387 C 1.01415 0.72093 0.36004 0.0
C388 C 0.9906 0.66678 0.26325 0.0
C389 C 0.03682 0.68388 0.28754 0.0
H390 H 0.96447 0.20643 0.3818 0.0
H391 H 0.96507 0.34291 0.40267 0.0
H392 H 1.03091 0.38314 0.33539 0.0
H393 H 0.08966 0.37974 0.27127 0.0
H394 H 0.09073 0.24387 0.25371 0.0
H395 H 1.02275 0.20298 0.31832 0.0
C396 C 0.97881 0.24486 0.37129 0.0
C397 C 0.95989 0.27157 0.39728 0.0
C398 C 1.01695 0.26782 0.33296 0.0
C399 C 0.97935 0.32163 0.38382 0.0
C400 C 1.01682 0.34458 0.34506 0.0
C401 C 0.07451 0.34107 0.28124 0.0
C402 C 0.09493 0.31469 0.25764 0.0
C403 C 0.03604 0.31809 0.31943 0.0
C404 C 0.07564 0.26484 0.27159 0.0
C405 C 0.03681 0.2415 0.30846 0.0
H406 H 0.80048 0.82919 0.91891 0.0
H407 H 0.64935 0.7158 0.94463 0.0
H408 H 0.67506 0.67639 0.01205 0.0
H409 H 0.74049 0.67349 0.06312 0.0
H410 H 0.89127 0.78896 0.03989 0.0
H411 H 0.8655 0.82794 0.97221 0.0
C412 C 0.77301 0.79622 0.93961 0.0
C413 C 0.72298 0.77559 0.92624 0.0
C414 C 0.788 0.77384 0.97877 0.0
C415 C 0.68815 0.73226 0.95321 0.0
C416 C 0.70281 0.70977 0.99213 0.0
C417 C 0.76779 0.70744 0.04387 0.0
C418 C 0.81794 0.72792 0.05679 0.0
C419 C 0.75267 0.73013 0.00515 0.0
C420 C 0.85257 0.77169 0.03037 0.0
C421 C 0.83782 0.79431 0.99179 0.0
H422 H 0.39242 0.08312 0.73437 0.0
H423 H 0.26494 0.09987 0.73328 0.0
H424 H 0.22321 0.03034 0.67092 0.0
H425 H 0.2237 0.96583 0.61521 0.0
H426 H 0.3525 0.95137 0.61225 0.0
H427 H 0.3932 1.01881 0.67749 0.0
C428 C 0.35536 0.0711 0.72077 0.0
C429 C 0.33156 0.09626 0.73847 0.0
C430 C 0.33204 0.03172 0.68403 0.0
C431 C 0.28391 0.08108 0.71987 0.0
C432 C 0.26007 0.04133 0.68439 0.0
C433 C 0.26052 0.97729 0.62928 0.0
C434 C 0.28505 0.95371 0.60915 0.0
C435 C 0.28385 1.01653 0.666 0.0
C436 C 0.33309 0.96932 0.62688 0.0
C437 C 0.35624 1.0077 0.66432 0.0
loop_
_geom_bond_atom_site_label_1
_geom_bond_atom_site_label_2
_geom_bond_distance
_geom_bond_site_symmetry_2
_ccdc_geom_bond_type
C0 C1 1.351 1_554 S
C0 N3 1.368 . S
C0 H5 0.931 . S
C1 C0 1.351 1_556 S
C1 N2 1.373 . S
C1 H29 0.930 . S
N2 C1 1.373 . S
N2 C4 1.340 . S
N3 C0 1.368 . S
N3 C4 1.321 1_554 S
N3 Co6 2.135 . S
C4 N2 1.340 . S
C4 N3 1.321 1_556 S
C4 H28 0.930 . S
H5 C0 0.931 . S
Co6 N3 2.135 . S
Co6 N9 2.121 . S
Co6 O14 2.055 . S
Co6 O17 2.039 . S
Co6 N20 2.140 . S
C7 O8 1.227 . S
C7 O17 1.265 . S
O8 C7 1.227 . S
N9 Co6 2.121 . S
N9 C11 1.375 . S
N9 C12 1.313 . S
C10 C11 1.338 . S
C10 N13 1.377 . S
C10 H30 0.930 . S
C11 N9 1.375 . S
C11 C10 1.338 . S
C11 H15 0.931 . S
C12 N9 1.313 . S
C12 N13 1.344 . S
C12 H16 0.930 . S
N13 C10 1.377 . S
N13 C12 1.344 . S
O14 Co6 2.055 . S
O14 C18 1.253 . S
H15 C11 0.931 . S
H16 C12 0.930 . S
O17 Co6 2.039 . S
O17 C7 1.265 . S
C18 O14 1.253 . S
C18 O19 1.227 . S
O19 C18 1.227 . S
N20 Co6 2.140 . S
N20 C23 1.346 1_554 S
N20 C24 1.345 . S
C21 C22 1.387 . S
C21 C25 1.391 . S
C22 C21 1.387 . S
C22 C23 1.369 . S
C22 H31 0.929 . S
C23 N20 1.346 1_556 S
C23 C22 1.369 . S
C23 H26 0.928 . S
C24 N20 1.345 . S
C24 C25 1.371 1_554 S
C24 H27 0.931 . S
C25 C21 1.391 . S
C25 C24 1.371 1_556 S
C25 H32 0.930 . S
H26 C23 0.928 . S
H27 C24 0.931 . S
H28 C4 0.930 . S
H29 C1 0.930 . S
H30 C10 0.930 . S
H31 C22 0.929 . S
H32 C25 0.930 . S
C33 C34 1.351 . S
C33 N36 1.368 . S
C33 H38 0.931 . S
C34 C33 1.351 . S
C34 N35 1.373 . S
C34 H62 0.930 . S
N35 C34 1.373 . S
N35 C37 1.340 . S
N36 C33 1.368 . S
N36 C37 1.321 . S
N36 Co39 2.135 . S
C37 N35 1.340 . S
C37 N36 1.321 . S
C37 H61 0.930 . S
H38 C33 0.931 . S
Co39 N36 2.135 . S
Co39 N42 2.121 . S
Co39 O47 2.055 . S
Co39 O50 2.039 . S
Co39 N53 2.140 . S
C40 O41 1.227 . S
C40 O50 1.265 . S
O41 C40 1.227 . S
N42 Co39 2.121 . S
N42 C44 1.375 . S
N42 C45 1.313 . S
C43 C44 1.338 . S
C43 N46 1.377 . S
C43 H63 0.930 . S
C44 N42 1.375 . S
C44 C43 1.338 . S
C44 H48 0.931 . S
C45 N42 1.313 . S
C45 N46 1.344 . S
C45 H49 0.930 . S
N46 C43 1.377 . S
N46 C45 1.344 . S
O47 Co39 2.055 . S
O47 C51 1.253 . S
H48 C44 0.931 . S
H49 C45 0.930 . S
O50 Co39 2.039 . S
O50 C40 1.265 . S
C51 O47 1.253 . S
C51 O52 1.227 . S
O52 C51 1.227 . S
N53 Co39 2.140 . S
N53 C56 1.346 . S
N53 C57 1.345 . S
C54 C55 1.387 . S
C54 C58 1.391 . S
C55 C54 1.387 . S
C55 C56 1.369 . S
C55 H64 0.929 . S
C56 N53 1.346 . S
C56 C55 1.369 . S
C56 H59 0.928 . S
C57 N53 1.345 . S
C57 C58 1.371 . S
C57 H60 0.931 . S
C58 C54 1.391 . S
C58 C57 1.371 . S
C58 H65 0.930 . S
H59 C56 0.928 . S
H60 C57 0.931 . S
H61 C37 0.930 . S
H62 C34 0.930 . S
H63 C43 0.930 . S
H64 C55 0.929 . S
H65 C58 0.930 . S
C66 C67 1.351 . S
C66 N69 1.368 . S
C66 H71 0.931 . S
C67 C66 1.351 . S
C67 N68 1.373 . S
C67 H95 0.930 . S
N68 C67 1.373 . S
N68 C70 1.340 . S
N69 C66 1.368 . S
N69 C70 1.321 . S
N69 Co72 2.135 . S
C70 N68 1.340 . S
C70 N69 1.321 . S
C70 H94 0.930 . S
H71 C66 0.931 . S
Co72 N69 2.135 . S
Co72 N75 2.121 . S
Co72 O80 2.055 . S
Co72 O83 2.039 . S
Co72 N86 2.140 . S
C73 O74 1.227 . S
C73 O83 1.265 . S
O74 C73 1.227 . S
N75 Co72 2.121 . S
N75 C77 1.375 . S
N75 C78 1.313 . S
C76 C77 1.338 . S
C76 N79 1.377 . S
C76 H96 0.930 . S
C77 N75 1.375 . S
C77 C76 1.338 . S
C77 H81 0.931 . S
C78 N75 1.313 . S
C78 N79 1.344 . S
C78 H82 0.930 . S
N79 C76 1.377 . S
N79 C78 1.344 . S
O80 Co72 2.055 . S
O80 C84 1.253 . S
H81 C77 0.931 . S
H82 C78 0.930 . S
O83 Co72 2.039 . S
O83 C73 1.265 . S
C84 O80 1.253 . S
C84 O85 1.227 . S
O85 C84 1.227 . S
N86 Co72 2.140 . S
N86 C89 1.346 . S
N86 C90 1.345 . S
C87 C88 1.387 . S
C87 C91 1.391 . S
C88 C87 1.387 . S
C88 C89 1.369 . S
C88 H97 0.929 . S
C89 N86 1.346 . S
C89 C88 1.369 . S
C89 H92 0.928 . S
C90 N86 1.345 . S
C90 C91 1.371 . S
C90 H93 0.931 . S
C91 C87 1.391 . S
C91 C90 1.371 . S
C91 H98 0.930 . S
H92 C89 0.928 . S
H93 C90 0.931 . S
H94 C70 0.930 . S
H95 C67 0.930 . S
H96 C76 0.930 . S
H97 C88 0.929 . S
H98 C91 0.930 . S
C99 C100 1.351 1_556 S
C99 N102 1.368 . S
C99 H104 0.931 . S
C100 C99 1.351 1_554 S
C100 N101 1.373 . S
C100 H128 0.930 . S
N101 C100 1.373 . S
N101 C103 1.340 . S
N102 C99 1.368 . S
N102 C103 1.321 1_556 S
N102 Co105 2.135 . S
C103 N101 1.340 . S
C103 N102 1.321 1_554 S
C103 H127 0.930 . S
H104 C99 0.931 . S
Co105 N102 2.135 . S
Co105 N108 2.121 . S
Co105 O113 2.055 . S
Co105 O116 2.039 . S
Co105 N119 2.140 . S
C106 O107 1.227 . S
C106 O116 1.265 . S
O107 C106 1.227 . S
N108 Co105 2.121 . S
N108 C110 1.375 . S
N108 C111 1.313 . S
C109 C110 1.338 . S
C109 N112 1.377 . S
C109 H129 0.930 . S
C110 N108 1.375 . S
C110 C109 1.338 . S
C110 H114 0.931 . S
C111 N108 1.313 . S
C111 N112 1.344 . S
C111 H115 0.930 . S
N112 C109 1.377 . S
N112 C111 1.344 . S
O113 Co105 2.055 . S
O113 C117 1.253 . S
H114 C110 0.931 . S
H115 C111 0.930 . S
O116 Co105 2.039 . S
O116 C106 1.265 . S
C117 O113 1.253 . S
C117 O118 1.227 . S
O118 C117 1.227 . S
N119 Co105 2.140 . S
N119 C122 1.346 1_556 S
N119 C123 1.345 . S
C120 C121 1.387 . S
C120 C124 1.391 . S
C121 C120 1.387 . S
C121 C122 1.369 . S
C121 H130 0.929 . S
C122 N119 1.346 1_554 S
C122 C121 1.369 . S
C122 H125 0.928 . S
C123 N119 1.345 . S
C123 C124 1.371 1_556 S
C123 H126 0.931 . S
C124 C120 1.391 . S
C124 C123 1.371 1_554 S
C124 H131 0.930 . S
H125 C122 0.928 . S
H126 C123 0.931 . S
H127 C103 0.930 . S
H128 C100 0.930 . S
H129 C109 0.930 . S
H130 C121 0.929 . S
H131 C124 0.930 . S
C132 C133 1.351 . S
C132 N135 1.368 . S
C132 H137 0.931 . S
C133 C132 1.351 . S
C133 N134 1.373 . S
C133 H161 0.930 . S
N134 C133 1.373 . S
N134 C136 1.340 . S
N135 C132 1.368 . S
N135 C136 1.321 . S
N135 Co138 2.135 . S
C136 N134 1.340 . S
C136 N135 1.321 . S
C136 H160 0.930 . S
H137 C132 0.931 . S
Co138 N135 2.135 . S
Co138 N141 2.121 . S
Co138 O146 2.055 . S
Co138 O149 2.039 . S
Co138 N152 2.140 . S
C139 O140 1.227 . S
C139 O149 1.265 . S
O140 C139 1.227 . S
N141 Co138 2.121 . S
N141 C143 1.375 . S
N141 C144 1.313 . S
C142 C143 1.338 . S
C142 N145 1.377 . S
C142 H162 0.930 . S
C143 N141 1.375 . S
C143 C142 1.338 . S
C143 H147 0.931 . S
C144 N141 1.313 . S
C144 N145 1.344 . S
C144 H148 0.930 . S
N145 C142 1.377 . S
N145 C144 1.344 . S
O146 Co138 2.055 . S
O146 C150 1.253 . S
H147 C143 0.931 . S
H148 C144 0.930 . S
O149 Co138 2.039 . S
O149 C139 1.265 . S
C150 O146 1.253 . S
C150 O151 1.227 . S
O151 C150 1.227 . S
N152 Co138 2.140 . S
N152 C155 1.346 . S
N152 C156 1.345 . S
C153 C154 1.387 . S
C153 C157 1.391 . S
C154 C153 1.387 . S
C154 C155 1.369 . S
C154 H163 0.929 . S
C155 N152 1.346 . S
C155 C154 1.369 . S
C155 H158 0.928 . S
C156 N152 1.345 . S
C156 C157 1.371 . S
C156 H159 0.931 . S
C157 C153 1.391 . S
C157 C156 1.371 . S
C157 H164 0.930 . S
H158 C155 0.928 . S
H159 C156 0.931 . S
H160 C136 0.930 . S
H161 C133 0.930 . S
H162 C142 0.930 . S
H163 C154 0.929 . S
H164 C157 0.930 . S
C165 C166 1.351 . S
C165 N168 1.368 . S
C165 H170 0.931 . S
C166 C165 1.351 . S
C166 N167 1.373 . S
C166 H194 0.930 . S
N167 C166 1.373 . S
N167 C169 1.340 . S
N168 C165 1.368 . S
N168 C169 1.321 . S
N168 Co171 2.135 . S
C169 N167 1.340 . S
C169 N168 1.321 . S
C169 H193 0.930 . S
H170 C165 0.931 . S
Co171 N168 2.135 . S
Co171 N174 2.121 . S
Co171 O179 2.055 . S
Co171 O182 2.039 . S
Co171 N185 2.140 . S
C172 O173 1.227 . S
C172 O182 1.265 . S
O173 C172 1.227 . S
N174 Co171 2.121 . S
N174 C176 1.375 . S
N174 C177 1.313 . S
C175 C176 1.338 . S
C175 N178 1.377 . S
C175 H195 0.930 . S
C176 N174 1.375 . S
C176 C175 1.338 . S
C176 H180 0.931 . S
C177 N174 1.313 . S
C177 N178 1.344 . S
C177 H181 0.930 . S
N178 C175 1.377 . S
N178 C177 1.344 . S
O179 Co171 2.055 . S
O179 C183 1.253 . S
H180 C176 0.931 . S
H181 C177 0.930 . S
O182 Co171 2.039 . S
O182 C172 1.265 . S
C183 O179 1.253 . S
C183 O184 1.227 . S
O184 C183 1.227 . S
N185 Co171 2.140 . S
N185 C188 1.346 . S
N185 C189 1.345 . S
C186 C187 1.387 . S
C186 C190 1.391 . S
C187 C186 1.387 . S
C187 C188 1.369 . S
C187 H196 0.929 . S
C188 N185 1.346 . S
C188 C187 1.369 . S
C188 H191 0.928 . S
C189 N185 1.345 . S
C189 C190 1.371 . S
C189 H192 0.931 . S
C190 C186 1.391 . S
C190 C189 1.371 . S
C190 H197 0.930 . S
H191 C188 0.928 . S
H192 C189 0.931 . S
H193 C169 0.930 . S
H194 C166 0.930 . S
H195 C175 0.930 . S
H196 C187 0.929 . S
H197 C190 0.930 . S
H198 C204 0.930 . S
H199 C207 0.930 . S
H200 C208 0.930 . S
H201 C209 0.930 . S
H202 C212 0.930 . S
H203 C213 0.930 . S
C204 H198 0.930 . S
C204 C205 1.355 . S
C204 C206 1.415 . S
C205 C204 1.355 . S
C205 C207 1.419 . S
C206 C204 1.415 . S
C206 C211 1.425 . S
C206 C213 1.409 . S
C207 H199 0.930 . S
C207 C205 1.419 . S
C207 C208 1.362 . S
C208 H200 0.930 . S
C208 C207 1.362 . S
C208 C211 1.409 . S
C209 H201 0.930 . S
C209 C210 1.355 . S
C209 C211 1.415 . S
C210 C209 1.355 . S
C210 C212 1.419 . S
C211 C206 1.425 . S
C211 C208 1.409 . S
C211 C209 1.415 . S
C212 H202 0.930 . S
C212 C210 1.419 . S
C212 C213 1.362 . S
C213 H203 0.930 . S
C213 C206 1.409 . S
C213 C212 1.362 . S
H214 C220 0.930 . S
H215 C223 0.930 . S
H216 C224 0.930 . S
H217 C225 0.930 . S
H218 C228 0.930 . S
H219 C229 0.930 . S
C220 H214 0.930 . S
C220 C221 1.355 . S
C220 C222 1.415 . S
C221 C220 1.355 . S
C221 C223 1.419 . S
C222 C220 1.415 . S
C222 C227 1.425 . S
C222 C229 1.409 . S
C223 H215 0.930 . S
C223 C221 1.419 . S
C223 C224 1.362 . S
C224 H216 0.930 . S
C224 C223 1.362 . S
C224 C227 1.409 . S
C225 H217 0.930 . S
C225 C226 1.355 . S
C225 C227 1.415 . S
C226 C225 1.355 . S
C226 C228 1.419 . S
C227 C222 1.425 . S
C227 C224 1.409 . S
C227 C225 1.415 . S
C228 H218 0.930 . S
C228 C226 1.419 . S
C228 C229 1.362 . S
C229 H219 0.930 . S
C229 C222 1.409 . S
C229 C228 1.362 . S
H230 C236 0.930 . S
H231 C239 0.930 . S
H232 C240 0.930 . S
H233 C241 0.930 . S
H234 C244 0.930 . S
H235 C245 0.930 . S
C236 H230 0.930 . S
C236 C237 1.355 . S
C236 C238 1.415 . S
C237 C236 1.355 . S
C237 C239 1.419 . S
C238 C236 1.415 . S
C238 C243 1.425 . S
C238 C245 1.409 . S
C239 H231 0.930 . S
C239 C237 1.419 . S
C239 C240 1.362 . S
C240 H232 0.930 . S
C240 C239 1.362 . S
C240 C243 1.409 . S
C241 H233 0.930 . S
C241 C242 1.355 . S
C241 C243 1.415 . S
C242 C241 1.355 . S
C242 C244 1.419 . S
C243 C238 1.425 . S
C243 C240 1.409 . S
C243 C241 1.415 . S
C244 H234 0.930 . S
C244 C242 1.419 . S
C244 C245 1.362 . S
C245 H235 0.930 . S
C245 C238 1.409 . S
C245 C244 1.362 . S
H246 C252 0.930 . S
H247 C255 0.930 . S
H248 C256 0.930 . S
H249 C257 0.930 . S
H250 C260 0.930 . S
H251 C261 0.930 . S
C252 H246 0.930 . S
C252 C253 1.355 . S
C252 C254 1.415 . S
C253 C252 1.355 . S
C253 C255 1.419 . S
C254 C252 1.415 . S
C254 C259 1.425 . S
C254 C261 1.409 . S
C255 H247 0.930 . S
C255 C253 1.419 . S
C255 C256 1.362 . S
C256 H248 0.930 . S
C256 C255 1.362 . S
C256 C259 1.409 . S
C257 H249 0.930 . S
C257 C258 1.355 . S
C257 C259 1.415 . S
C258 C257 1.355 . S
C258 C260 1.419 . S
C259 C254 1.425 . S
C259 C256 1.409 . S
C259 C257 1.415 . S
C260 H250 0.930 . S
C260 C258 1.419 . S
C260 C261 1.362 . S
C261 H251 0.930 . S
C261 C254 1.409 . S
C261 C260 1.362 . S
H262 C268 0.930 . S
H263 C271 0.930 . S
H264 C272 0.930 . S
H265 C273 0.930 . S
H266 C276 0.930 . S
H267 C277 0.930 . S
C268 H262 0.930 . S
C268 C269 1.355 . S
C268 C270 1.415 . S
C269 C268 1.355 . S
C269 C271 1.419 . S
C270 C268 1.415 . S
C270 C275 1.425 . S
C270 C277 1.409 . S
C271 H263 0.930 . S
C271 C269 1.419 . S
C271 C272 1.362 . S
C272 H264 0.930 . S
C272 C271 1.362 . S
C272 C275 1.409 . S
C273 H265 0.930 . S
C273 C274 1.355 . S
C273 C275 1.415 . S
C274 C273 1.355 . S
C274 C276 1.419 . S
C275 C270 1.425 . S
C275 C272 1.409 . S
C275 C273 1.415 . S
C276 H266 0.930 . S
C276 C274 1.419 . S
C276 C277 1.362 . S
C277 H267 0.930 . S
C277 C270 1.409 . S
C277 C276 1.362 . S
H278 C284 0.930 . S
H279 C287 0.930 . S
H280 C288 0.930 . S
H281 C289 0.930 . S
H282 C292 0.930 . S
H283 C293 0.930 . S
C284 H278 0.930 . S
C284 C285 1.355 . S
C284 C286 1.415 . S
C285 C284 1.355 . S
C285 C287 1.419 . S
C286 C284 1.415 . S
C286 C291 1.425 . S
C286 C293 1.409 . S
C287 H279 0.930 . S
C287 C285 1.419 . S
C287 C288 1.362 . S
C288 H280 0.930 . S
C288 C287 1.362 . S
C288 C291 1.409 . S
C289 H281 0.930 . S
C289 C290 1.355 . S
C289 C291 1.415 . S
C290 C289 1.355 . S
C290 C292 1.419 . S
C291 C286 1.425 . S
C291 C288 1.409 . S
C291 C289 1.415 . S
C292 H282 0.930 . S
C292 C290 1.419 . S
C292 C293 1.362 . S
C293 H283 0.930 . S
C293 C286 1.409 . S
C293 C292 1.362 . S
H294 C300 0.930 . S
H295 C303 0.930 . S
H296 C304 0.930 1_455 S
H297 C305 0.930 . S
H298 C308 0.930 . S
H299 C309 0.930 1_655 S
C300 H294 0.930 . S
C300 C301 1.355 . S
C300 C302 1.415 . S
C301 C300 1.355 . S
C301 C303 1.419 . S
C302 C300 1.415 . S
C302 C307 1.425 1_655 S
C302 C309 1.409 1_655 S
C303 H295 0.930 . S
C303 C301 1.419 . S
C303 C304 1.362 . S
C304 H296 0.930 1_655 S
C304 C303 1.362 . S
C304 C307 1.409 1_655 S
C305 H297 0.930 . S
C305 C306 1.355 . S
C305 C307 1.415 . S
C306 C305 1.355 . S
C306 C308 1.419 . S
C307 C302 1.425 1_455 S
C307 C304 1.409 1_455 S
C307 C305 1.415 . S
C308 H298 0.930 . S
C308 C306 1.419 . S
C308 C309 1.362 . S
C309 H299 0.930 1_455 S
C309 C302 1.409 1_455 S
C309 C308 1.362 . S
H310 C316 0.930 . S
H311 C319 0.930 . S
H312 C320 0.930 . S
H313 C321 0.930 . S
H314 C324 0.930 . S
H315 C325 0.930 . S
C316 H310 0.930 . S
C316 C317 1.355 . S
C316 C318 1.415 . S
C317 C316 1.355 . S
C317 C319 1.419 . S
C318 C316 1.415 . S
C318 C323 1.425 . S
C318 C325 1.409 . S
C319 H311 0.930 . S
C319 C317 1.419 . S
C319 C320 1.362 . S
C320 H312 0.930 . S
C320 C319 1.362 . S
C320 C323 1.409 . S
C321 H313 0.930 . S
C321 C322 1.355 . S
C321 C323 1.415 . S
C322 C321 1.355 . S
C322 C324 1.419 . S
C323 C318 1.425 . S
C323 C320 1.409 . S
C323 C321 1.415 . S
C324 H314 0.930 . S
C324 C322 1.419 . S
C324 C325 1.362 . S
C325 H315 0.930 . S
C325 C318 1.409 . S
C325 C324 1.362 . S
H326 C332 0.930 . S
H327 C335 0.930 . S
H328 C336 0.931 1_565 S
H329 C337 0.930 . S
H330 C340 0.930 . S
H331 C341 0.931 1_545 S
C332 H326 0.930 . S
C332 C333 1.355 . S
C332 C334 1.415 . S
C333 C332 1.355 . S
C333 C335 1.419 . S
C334 C332 1.415 . S
C334 C339 1.425 1_545 S
C334 C341 1.401 1_545 S
C335 H327 0.930 . S
C335 C333 1.419 . S
C335 C336 1.370 . S
C336 H328 0.931 1_545 S
C336 C335 1.370 . S
C336 C339 1.401 1_545 S
C337 H329 0.930 . S
C337 C338 1.355 . S
C337 C339 1.415 . S
C338 C337 1.355 . S
C338 C340 1.419 . S
C339 C334 1.425 1_565 S
C339 C336 1.401 1_565 S
C339 C337 1.415 . S
C340 H330 0.930 . S
C340 C338 1.419 . S
C340 C341 1.370 . S
C341 H331 0.931 1_565 S
C341 C334 1.401 1_565 S
C341 C340 1.370 . S
H342 C348 0.938 . S
H343 C351 0.930 . S
H344 C352 0.930 . S
H345 C353 0.938 . S
H346 C356 0.930 . S
H347 C357 0.930 . S
C348 H342 0.938 . S
C348 C349 1.342 1_554 S
C348 C350 1.419 . S
C349 C348 1.342 1_556 S
C349 C351 1.419 . S
C350 C348 1.419 . S
C350 C355 1.425 1_554 S
C350 C357 1.409 . S
C351 H343 0.930 . S
C351 C349 1.419 . S
C351 C352 1.362 . S
C352 H344 0.930 . S
C352 C351 1.362 . S
C352 C355 1.409 . S
C353 H345 0.938 . S
C353 C354 1.342 1_556 S
C353 C355 1.419 . S
C354 C353 1.342 1_554 S
C354 C356 1.419 . S
C355 C350 1.425 1_556 S
C355 C352 1.409 . S
C355 C353 1.419 . S
C356 H346 0.930 . S
C356 C354 1.419 . S
C356 C357 1.362 . S
C357 H347 0.930 . S
C357 C350 1.409 . S
C357 C356 1.362 . S
H358 C364 0.930 . S
H359 C367 0.930 . S
H360 C368 0.930 . S
H361 C369 0.930 . S
H362 C372 0.930 . S
H363 C373 0.930 . S
C364 H358 0.930 . S
C364 C365 1.355 . S
C364 C366 1.415 1_545 S
C365 C364 1.355 . S
C365 C367 1.419 . S
C366 C364 1.415 1_565 S
C366 C371 1.425 1_565 S
C366 C373 1.409 . S
C367 H359 0.930 . S
C367 C365 1.419 . S
C367 C368 1.362 . S
C368 H360 0.930 . S
C368 C367 1.362 . S
C368 C371 1.409 . S
C369 H361 0.930 . S
C369 C370 1.355 . S
C369 C371 1.415 1_565 S
C370 C369 1.355 . S
C370 C372 1.419 . S
C371 C366 1.425 1_545 S
C371 C368 1.409 . S
C371 C369 1.415 1_545 S
C372 H362 0.930 . S
C372 C370 1.419 . S
C372 C373 1.362 . S
C373 H363 0.930 . S
C373 C366 1.409 . S
C373 C372 1.362 . S
H374 C380 0.930 . S
H375 C383 0.930 . S
H376 C384 0.930 . S
H377 C385 0.930 . S
H378 C388 0.930 . S
H379 C389 0.930 . S
C380 H374 0.930 . S
C380 C381 1.355 . S
C380 C382 1.415 . S
C381 C380 1.355 . S
C381 C383 1.419 . S
C382 C380 1.415 . S
C382 C387 1.425 1_455 S
C382 C389 1.409 1_455 S
C383 H375 0.930 . S
C383 C381 1.419 . S
C383 C384 1.362 . S
C384 H376 0.930 . S
C384 C383 1.362 . S
C384 C387 1.409 1_455 S
C385 H377 0.930 . S
C385 C386 1.355 . S
C385 C387 1.415 . S
C386 C385 1.355 . S
C386 C388 1.419 . S
C387 C382 1.425 1_655 S
C387 C384 1.409 1_655 S
C387 C385 1.415 . S
C388 H378 0.930 . S
C388 C386 1.419 . S
C388 C389 1.362 . S
C389 H379 0.930 . S
C389 C382 1.409 1_655 S
C389 C388 1.362 . S
H390 C396 0.930 . S
H391 C399 0.930 . S
H392 C400 0.930 . S
H393 C401 0.930 . S
H394 C404 0.930 . S
H395 C405 0.930 . S
C396 H390 0.930 . S
C396 C397 1.355 . S
C396 C398 1.415 . S
C397 C396 1.355 . S
C397 C399 1.419 . S
C398 C396 1.415 . S
C398 C403 1.425 1_655 S
C398 C405 1.409 . S
C399 H391 0.930 . S
C399 C397 1.419 . S
C399 C400 1.362 1_655 S
C400 H392 0.930 . S
C400 C399 1.362 1_455 S
C400 C403 1.409 . S
C401 H393 0.930 . S
C401 C402 1.355 . S
C401 C403 1.415 . S
C402 C401 1.355 . S
C402 C404 1.419 . S
C403 C398 1.425 1_455 S
C403 C400 1.409 . S
C403 C401 1.415 . S
C404 H394 0.930 . S
C404 C402 1.419 . S
C404 C405 1.362 1_455 S
C405 H395 0.930 . S
C405 C398 1.409 . S
C405 C404 1.362 1_655 S
H406 C412 0.930 . S
H407 C415 0.930 . S
H408 C416 0.930 . S
H409 C417 0.930 . S
H410 C420 0.930 . S
H411 C421 0.930 . S
C412 H406 0.930 . S
C412 C413 1.355 . S
C412 C414 1.415 . S
C413 C412 1.355 . S
C413 C415 1.419 . S
C414 C412 1.415 . S
C414 C419 1.425 1_556 S
C414 C421 1.409 . S
C415 H407 0.930 . S
C415 C413 1.419 . S
C415 C416 1.362 1_556 S
C416 H408 0.930 . S
C416 C415 1.362 1_554 S
C416 C419 1.409 . S
C417 H409 0.930 . S
C417 C418 1.355 . S
C417 C419 1.415 . S
C418 C417 1.355 . S
C418 C420 1.419 . S
C419 C414 1.425 1_554 S
C419 C416 1.409 . S
C419 C417 1.415 . S
C420 H410 0.930 . S
C420 C418 1.419 . S
C420 C421 1.362 1_554 S
C421 H411 0.930 . S
C421 C414 1.409 . S
C421 C420 1.362 1_556 S
H422 C428 0.930 1_565 S
H423 C431 0.930 . S
H424 C432 0.930 . S
H425 C433 0.930 1_545 S
H426 C436 0.930 . S
H427 C437 0.930 . S
C428 H422 0.930 1_545 S
C428 C429 1.355 . S
C428 C430 1.415 1_545 S
C429 C428 1.355 . S
C429 C431 1.419 . S
C430 C428 1.415 1_565 S
C430 C435 1.425 1_565 S
C430 C437 1.409 . S
C431 H423 0.930 . S
C431 C429 1.419 . S
C431 C432 1.362 . S
C432 H424 0.930 . S
C432 C431 1.362 . S
C432 C435 1.409 . S
C433 H425 0.930 1_565 S
C433 C434 1.355 . S
C433 C435 1.415 1_565 S
C434 C433 1.355 . S
C434 C436 1.419 . S
C435 C430 1.425 1_545 S
C435 C432 1.409 . S
C435 C433 1.415 1_545 S
C436 H426 0.930 . S
C436 C434 1.419 . S
C436 C437 1.362 . S
C437 H427 0.930 . S
C437 C430 1.409 . S
C437 C436 1.362 . S
C205 N68 1.180 . S
C210 C18 1.288 . S
C221 C51 1.304 . S
C226 N2 1.236 . S
C237 C84 1.280 . S
C242 N35 1.161 . S
C253 C117 1.318 . S
C258 N134 1.272 . S
C269 N167 1.262 . S
C274 C150 1.314 . S
C285 N101 1.190 . S
C290 C183 1.288 . S
C301 C153 0.767 . S
C306 C21 0.776 . S
C317 C186 0.778 . S
C322 C54 0.771 . S
C333 C120 0.769 . S
C338 C87 0.777 . S
C349 C106 1.615 . S
C354 C7 1.615 . S
C365 C139 1.548 . S
C370 C40 1.552 . S
C381 C73 1.567 . S
C386 C172 1.572 . S
C397 N145 1.934 . S
C402 N13 1.924 . S
C413 N46 1.935 . S
C418 N178 1.921 . S
C429 N112 1.929 . S
C434 N79 1.927 . S
