# Generated by pormake.
# Topology unh, (4)-cn, num edge types: 1
# Building blocks:
#     Node 0, Type 0, BuildingBlock: GALJAG_clean_sbu_0, # of connection points: 4
#     Node 1, Type 0, BuildingBlock: GALJAG_clean_sbu_0, # of connection points: 4
#     Node 2, Type 0, BuildingBlock: GALJAG_clean_sbu_0, # of connection points: 4
#     Node 3, Type 0, BuildingBlock: GALJAG_clean_sbu_0, # of connection points: 4
#     Node 4, Type 0, BuildingBlock: GALJAG_clean_sbu_0, # of connection points: 4
#     Node 5, Type 0, BuildingBlock: GALJAG_clean_sbu_0, # of connection points: 4
#     Edge 6, Type (0, 0), BuildingBlock: UVAHIK_clean_linker_0, # of connection points: 2
#     Edge 7, Type (0, 0), BuildingBlock: UVAHIK_clean_linker_0, # of connection points: 2
#     Edge 8, Type (0, 0), BuildingBlock: UVAHIK_clean_linker_0, # of connection points: 2
#     Edge 9, Type (0, 0), BuildingBlock: UVAHIK_clean_linker_0, # of connection points: 2
#     Edge 10, Type (0, 0), BuildingBlock: UVAHIK_clean_linker_0, # of connection points: 2
#     Edge 11, Type (0, 0), BuildingBlock: UVAHIK_clean_linker_0, # of connection points: 2
#     Edge 12, Type (0, 0), BuildingBlock: UVAHIK_clean_linker_0, # of connection points: 2
#     Edge 13, Type (0, 0), BuildingBlock: UVAHIK_clean_linker_0, # of connection points: 2
#     Edge 14, Type (0, 0), BuildingBlock: UVAHIK_clean_linker_0, # of connection points: 2
#     Edge 15, Type (0, 0), BuildingBlock: UVAHIK_clean_linker_0, # of connection points: 2
#     Edge 16, Type (0, 0), BuildingBlock: UVAHIK_clean_linker_0, # of connection points: 2
#     Edge 17, Type (0, 0), BuildingBlock: UVAHIK_clean_linker_0, # of connection points: 2
# Relax obj value: 0.030
# Max RMSD: 0.132
# Mean RMSD: 0.132
data_MOF--net-unh--node1-GALJAG_clean_sbu_0--edge1-UVAHIK_clean_linker_0
_symmetry_space_group_name_H-M    P1
_symmetry_Int_Tables_number       1
_symmetry_cell_setting            triclinic
loop_
_symmetry_equiv_pos_as_xyz
'x, y, z'
_cell_length_a     58.555657
_cell_length_b     58.60155
_cell_length_c     26.147703
_cell_angle_alpha  90.023367
_cell_angle_beta   89.877549
_cell_angle_gamma 120.06942
loop_
_atom_site_label
_atom_site_type_symbol
_atom_site_fract_x
_atom_site_fract_y
_atom_site_fract_z
_atom_type_partial_charge
In0 In 0.12797 0.55818 0.07688 0.0
O1 O 0.10523 0.5194 0.03318 0.0
O2 O 0.11175 0.55456 -0.00344 0.0
C3 C 0.15658 0.54428 0.13675 0.0
C4 C 0.08792 0.55458 0.13423 0.0
C5 C 0.16465 0.60446 0.0361 0.0
O6 O 0.1491 0.53511 0.09246 0.0
O7 O 0.14929 0.56016 0.15121 0.0
O8 O 0.14408 0.60163 0.05769 0.0
O9 O 0.16666 0.58401 0.03528 0.0
C10 C 0.1018 0.52988 0.994 0.0
O11 O 0.10959 0.57584 0.12983 0.0
O12 O 0.08672 0.53531 0.11046 0.0
In13 In 0.56679 0.12977 0.24984 0.0
O14 O 0.58395 0.10792 0.20615 0.0
O15 O 0.54956 0.10707 0.17689 0.0
C16 C 0.60958 0.16449 0.30368 0.0
C17 C 0.53264 0.08995 0.31048 0.0
C18 C 0.55559 0.16352 0.20184 0.0
O19 O 0.61146 0.15343 0.26381 0.0
O20 O 0.58629 0.15757 0.31672 0.0
O21 O 0.54487 0.15274 0.24377 0.0
O22 O 0.572 0.15746 0.18466 0.0
C23 C 0.56653 0.09997 0.17164 0.0
O24 O 0.52723 0.10647 0.29161 0.0
O25 O 0.55534 0.09392 0.29975 0.0
In26 In 0.42675 0.57014 0.42282 0.0
O27 O 0.46042 0.58398 0.36464 0.0
O28 O 0.43002 0.54369 0.36409 0.0
C29 C 0.43982 0.61511 0.4731 0.0
C30 C 0.43707 0.54301 0.4929 0.0
C31 C 0.38027 0.55887 0.38106 0.0
O32 O 0.45088 0.61495 0.43167 0.0
O33 O 0.42225 0.59272 0.4886 0.0
O34 O 0.38176 0.54627 0.41883 0.0
O35 O 0.40215 0.57707 0.36466 0.0
C36 C 0.45155 0.56132 0.34532 0.0
O37 O 0.41389 0.53526 0.47744 0.0
O38 O 0.45459 0.56451 0.47385 0.0
In39 In 0.86295 0.43802 0.57646 0.0
O40 O 0.88123 0.41955 0.62769 0.0
O41 O 0.90501 0.45959 0.60574 0.0
C42 C 0.82449 0.39204 0.53815 0.0
C43 C 0.88636 0.4669 0.49214 0.0
C44 C 0.83705 0.45301 0.64133 0.0
O45 O 0.84763 0.39633 0.54553 0.0
O46 O 0.82088 0.41086 0.55009 0.0
O47 O 0.8438 0.46243 0.59687 0.0
O48 O 0.84371 0.43631 0.65332 0.0
C49 C 0.90345 0.44031 0.62999 0.0
O50 O 0.88467 0.47718 0.53334 0.0
O51 O 0.87577 0.44214 0.49329 0.0
In52 In 0.42083 0.86137 0.74736 0.0
O53 O 0.40546 0.88482 0.70385 0.0
O54 O 0.42795 0.87158 0.66285 0.0
C55 C 0.37419 0.83112 0.79473 0.0
C56 C 0.45601 0.9005 0.80814 0.0
C57 C 0.43789 0.82825 0.71874 0.0
O58 O 0.37636 0.83342 0.74672 0.0
O59 O 0.39549 0.84451 0.8189 0.0
O60 O 0.45091 0.85269 0.70976 0.0
O61 O 0.41651 0.82066 0.7425 0.0
C62 C 0.4158 0.88425 0.66186 0.0
O63 O 0.45465 0.87839 0.80555 0.0
O64 O 0.43952 0.90264 0.78081 0.0
In65 In 0.56648 0.42702 0.92311 0.0
O66 O 0.52938 0.41458 0.87518 0.0
O67 O 0.56398 0.4508 0.85734 0.0
C68 C 0.55208 0.37938 0.96307 0.0
C69 C 0.55884 0.45499 0.99579 0.0
C70 C 0.61431 0.43874 0.88724 0.0
O71 O 0.54674 0.38222 0.91761 0.0
O72 O 0.56458 0.40048 0.98817 0.0
O73 O 0.61161 0.44837 0.92852 0.0
O74 O 0.59303 0.42341 0.86468 0.0
C75 C 0.54014 0.43482 0.84713 0.0
O76 O 0.57999 0.4646 0.97019 0.0
O77 O 0.54197 0.43152 0.98474 0.0
C78 C 0.06952 0.48695 0.95357 0.0
C79 C 0.08579 0.51445 0.95005 0.0
C80 C 0.0521 0.47284 0.91395 0.0
C81 C 0.03621 0.47738 0.77863 0.0
H82 H 0.96335 0.43588 0.82286 0.0
C83 C 0.95029 0.4659 0.65782 0.0
C84 C 0.92581 0.44248 0.65979 0.0
C85 C 0.97115 0.46904 0.68827 0.0
C86 C 0.9836 0.44682 0.80968 0.0
H87 H 0.09771 0.54858 0.90151 0.0
H88 H 0.06748 0.52404 0.83242 0.0
H89 H -0.00138 0.45161 0.88585 0.0
H90 H 0.90416 0.40355 0.69373 0.0
H91 H 0.94084 0.40906 0.74741 0.0
H92 H 0.02116 0.47347 0.7027 0.0
C93 C 0.06816 0.51331 0.86556 0.0
C94 C 0.00382 0.45585 0.84581 0.0
C95 C 0.08532 0.52741 0.90529 0.0
C96 C 0.92282 0.42186 0.69166 0.0
C97 C 0.94376 0.42504 0.72241 0.0
C98 C 0.01602 0.46826 0.74249 0.0
C99 C 0.05095 0.48598 0.86994 0.0
C100 C 0.03025 0.47206 0.83084 0.0
C101 C 0.96805 0.44882 0.72149 0.0
C102 C 0.98945 0.45378 0.75789 0.0
H103 H 0.06952 0.47648 0.9877 0.0
H104 H 0.03913 0.45178 0.91817 0.0
H105 H 0.05646 0.48948 0.76598 0.0
H106 H 0.9532 0.48212 0.63353 0.0
H107 H 0.98941 0.48778 0.68724 0.0
C108 C 0.49261 0.91899 0.87252 0.0
C109 C 0.47525 0.92228 0.84045 0.0
C110 C 0.51023 0.93964 0.904 0.0
C111 C 0.54019 0.01184 0.9237 0.0
H112 H 0.54051 0.9952 0.06713 0.0
C113 C 0.55044 0.08113 0.08541 0.0
C114 C 0.5653 0.08306 0.12888 0.0
C115 C 0.54711 0.06358 0.04636 0.0
C116 C 0.54117 0.00014 0.02703 0.0
H117 H 0.46301 0.94978 0.8153 0.0
H118 H 0.49332 0.98551 0.87039 0.0
H119 H 0.51992 0.95956 0.00479 0.0
H120 H 0.58901 0.06882 0.16525 0.0
H121 H 0.58258 0.03735 0.09693 0.0
H122 H 0.56002 0.05236 0.94649 0.0
C123 C 0.49374 0.96724 0.87086 0.0
C124 C 0.52938 0.97974 0.99131 0.0
C125 C 0.47615 0.94666 0.83964 0.0
C126 C 0.57748 0.06768 0.13199 0.0
C127 C 0.57377 0.0497 0.09313 0.0
C128 C 0.55183 0.03218 0.9594 0.0
C129 C 0.51086 0.96395 0.90365 0.0
C130 C 0.52783 0.98537 0.93959 0.0
C131 C 0.5583 0.04733 0.05024 0.0
C132 C 0.55151 0.02646 0.01161 0.0
H133 H 0.49238 0.9004 0.87372 0.0
H134 H 0.52327 0.93658 0.92874 0.0
H135 H 0.53984 0.0168 0.88391 0.0
H136 H 0.54092 0.09285 0.08198 0.0
H137 H 0.53478 0.06191 0.0141 0.0
C138 C 0.45635 0.52868 0.29266 0.0
C139 C 0.46618 0.55503 0.30721 0.0
C140 C 0.47108 0.52184 0.26094 0.0
C141 C 0.52219 0.54505 0.164 0.0
H142 H 0.52666 0.48408 0.2074 0.0
C143 C 0.57011 0.49724 0.04057 0.0
C144 C 0.55371 0.46984 0.03522 0.0
C145 C 0.56412 0.5111 0.07678 0.0
C146 C 0.52565 0.50117 0.19482 0.0
H147 H 0.49866 0.59507 0.29841 0.0
H148 H 0.52442 0.58298 0.24168 0.0
H149 H 0.50685 0.50243 0.26406 0.0
H150 H 0.51857 0.43538 0.0639 0.0
H151 H 0.50825 0.45937 0.1268 0.0
H152 H 0.54009 0.54302 0.09373 0.0
C153 C 0.50536 0.56772 0.25543 0.0
C154 C 0.51433 0.51164 0.2272 0.0
C155 C 0.49065 0.5746 0.28778 0.0
C156 C 0.53159 0.45649 0.06715 0.0
C157 C 0.52578 0.47022 0.10346 0.0
C158 C 0.5335 0.53446 0.13135 0.0
C159 C 0.4959 0.54118 0.24276 0.0
C160 C 0.51166 0.53308 0.21141 0.0
C161 C 0.54188 0.49765 0.10856 0.0
C162 C 0.53446 0.51185 0.14587 0.0
H163 H 0.43752 0.51316 0.30682 0.0
H164 H 0.46311 0.50129 0.25091 0.0
H165 H 0.52035 0.56161 0.15104 0.0
H166 H 0.58727 0.508 0.01627 0.0
H167 H 0.57686 0.53225 0.08003 0.0
C168 C 0.90184 0.46989 0.40232 0.0
C169 C 0.90195 0.4826 0.44788 0.0
C170 C 0.91943 0.48394 0.36298 0.0
C171 C 0.98536 0.54006 0.34676 0.0
H172 H 0.9703 0.52265 0.20312 0.0
C173 C 0.06832 0.57294 0.19572 0.0
C174 C 0.06557 0.55214 0.16468 0.0
C175 C 0.04719 0.56991 0.22587 0.0
C176 C 0.97479 0.52781 0.24307 0.0
H177 H 0.9194 0.52025 0.48699 0.0
H178 H 0.95036 0.5449 0.41801 0.0
H179 H 0.93394 0.50779 0.26408 0.0
H180 H 0.03849 0.51221 0.13962 0.0
H181 H 0.00185 0.50688 0.1922 0.0
H182 H 0.02621 0.55902 0.32615 0.0
C183 C 0.93674 0.52402 0.41296 0.0
C184 C 0.954 0.51933 0.27792 0.0
C185 C 0.91896 0.50995 0.45227 0.0
C186 C 0.04121 0.52857 0.16329 0.0
C187 C 0.02012 0.52562 0.19303 0.0
C188 C 0.00617 0.54855 0.31188 0.0
C189 C 0.93761 0.511 0.36846 0.0
C190 C 0.9591 0.52452 0.33038 0.0
C191 C 0.02293 0.54613 0.22504 0.0
C192 C 0.00109 0.54164 0.26 0.0
H193 H 0.88889 0.44883 0.39784 0.0
H194 H 0.91979 0.47324 0.32948 0.0
H195 H 0.98995 0.54419 0.38699 0.0
H196 H 0.08688 0.59137 0.19735 0.0
H197 H 0.04987 0.58608 0.25007 0.0
C198 C 0.49113 0.06603 0.3623 0.0
C199 C 0.51369 0.06708 0.341 0.0
C200 C 0.4734 0.0442 0.39138 0.0
C201 C 0.45098 0.97437 0.41382 0.0
H202 H 0.43913 0.98697 0.55432 0.0
C203 C 0.43079 0.90034 0.57322 0.0
C204 C 0.41652 0.89976 0.61684 0.0
C205 C 0.43528 0.91809 0.53374 0.0
C206 C 0.44154 0.98296 0.51486 0.0
H207 H 0.53517 0.04606 0.33227 0.0
H208 H 0.50407 0.00787 0.38222 0.0
H209 H 0.46113 0.02399 0.49533 0.0
H210 H 0.3941 0.91592 0.65189 0.0
H211 H 0.40152 0.94671 0.58223 0.0
H212 H 0.43193 0.93346 0.43326 0.0
C213 C 0.5001 0.02388 0.37661 0.0
C214 C 0.45426 0.00423 0.48117 0.0
C215 C 0.518 0.04582 0.34845 0.0
C216 C 0.40534 0.91608 0.6188 0.0
C217 C 0.40973 0.93381 0.57907 0.0
C218 C 0.43798 0.95307 0.44726 0.0
C219 C 0.47773 0.0229 0.39853 0.0
C220 C 0.45996 0.00019 0.43097 0.0
C221 C 0.42544 0.93558 0.53679 0.0
C222 C 0.43408 0.95722 0.49875 0.0
H223 H 0.48738 0.0822 0.35703 0.0
H224 H 0.4563 0.04387 0.40809 0.0
H225 H 0.45484 0.97077 0.37498 0.0
H226 H 0.43964 0.88798 0.5706 0.0
H227 H 0.44777 0.91907 0.50222 0.0
C228 C 0.49851 0.42452 0.8012 0.0
C229 C 0.52605 0.43998 0.80623 0.0
C230 C 0.48532 0.43058 0.76377 0.0
C231 C 0.49655 0.46731 0.64294 0.0
H232 H 0.43751 0.47555 0.68501 0.0
C233 C 0.47034 0.53626 0.53879 0.0
C234 C 0.44375 0.52766 0.52829 0.0
C235 C 0.47718 0.52138 0.56997 0.0
C236 C 0.45365 0.47287 0.67246 0.0
H237 H 0.56143 0.47346 0.77562 0.0
H238 H 0.53855 0.48395 0.71056 0.0
H239 H 0.45535 0.45605 0.74414 0.0
H240 H 0.40338 0.49699 0.54281 0.0
H241 H 0.41547 0.47094 0.59831 0.0
H242 H 0.49552 0.48492 0.57206 0.0
C243 C 0.5271 0.46707 0.73511 0.0
C244 C 0.46384 0.4617 0.70622 0.0
C245 C 0.5402 0.46119 0.77263 0.0
C246 C 0.42404 0.50406 0.55034 0.0
C247 C 0.43093 0.4892 0.58204 0.0
C248 C 0.48642 0.47845 0.60935 0.0
C249 C 0.49953 0.45198 0.73047 0.0
C250 C 0.48593 0.45962 0.6923 0.0
C251 C 0.4576 0.49761 0.59156 0.0
C252 C 0.46545 0.48214 0.62438 0.0
H253 H 0.48714 0.40807 0.82672 0.0
H254 H 0.46405 0.41859 0.76088 0.0
H255 H 0.51324 0.46543 0.63085 0.0
H256 H 0.48598 0.55439 0.52245 0.0
H257 H 0.49789 0.52861 0.57747 0.0
C258 C 0.18441 0.55158 0.21408 0.0
C259 C 0.17433 0.53864 0.16733 0.0
C260 C 0.20357 0.54863 0.24013 0.0
C261 C 0.25637 0.53413 0.21346 0.0
H262 H 0.26221 0.53482 0.36124 0.0
C263 C 0.33086 0.53335 0.37824 0.0
C264 C 0.35498 0.55293 0.35766 0.0
C265 C 0.30699 0.52806 0.35601 0.0
C266 C 0.2607 0.53429 0.31993 0.0
H267 H 0.17523 0.51132 0.11254 0.0
H268 H 0.2085 0.50593 0.15831 0.0
H269 H 0.22228 0.5303 0.32211 0.0
H270 H 0.3731 0.58226 0.29772 0.0
H271 H 0.33157 0.57318 0.25922 0.0
H272 H 0.29479 0.5383 0.21116 0.0
C273 C 0.20194 0.51871 0.1744 0.0
C274 C 0.23796 0.53195 0.29754 0.0
C275 C 0.18281 0.5217 0.14833 0.0
C276 C 0.35482 0.56701 0.31437 0.0
C277 C 0.33103 0.56167 0.29209 0.0
C278 C 0.27907 0.53651 0.2358 0.0
C279 C 0.213 0.53264 0.21994 0.0
C280 C 0.23575 0.53229 0.24405 0.0
C281 C 0.30686 0.54217 0.31265 0.0
C282 C 0.2817 0.53713 0.28925 0.0
H283 H 0.17821 0.56475 0.22966 0.0
H284 H 0.21186 0.55983 0.27485 0.0
H285 H 0.25545 0.53474 0.17215 0.0
H286 H 0.33042 0.52217 0.41159 0.0
H287 H 0.28867 0.5128 0.37247 0.0
C288 C 0.65839 0.19124 0.3185 0.0
C289 C 0.63265 0.18539 0.33088 0.0
C290 C 0.68017 0.21244 0.34193 0.0
C291 C 0.69982 0.27627 0.39791 0.0
H292 H 0.7563 0.27129 0.46431 0.0
C293 C 0.7771 0.36175 0.51792 0.0
C294 C 0.80333 0.36728 0.5161 0.0
C295 C 0.75702 0.33884 0.49566 0.0
C296 C 0.74091 0.27312 0.44524 0.0
H297 H 0.60943 0.19668 0.37817 0.0
H298 H 0.64739 0.23385 0.41828 0.0
H299 H 0.72006 0.23221 0.42411 0.0
H300 H 0.82921 0.35318 0.48998 0.0
H301 H 0.79418 0.31344 0.44951 0.0
H302 H 0.7206 0.31709 0.41747 0.0
C303 C 0.65073 0.22205 0.39061 0.0
C304 C 0.72015 0.25072 0.42244 0.0
C305 C 0.62904 0.20071 0.36782 0.0
C306 C 0.8091 0.34932 0.49206 0.0
C307 C 0.789 0.3265 0.46912 0.0
C308 C 0.72066 0.29867 0.41997 0.0
C309 C 0.67647 0.22831 0.37743 0.0
C310 C 0.69925 0.25207 0.39931 0.0
C311 C 0.76272 0.32109 0.47029 0.0
C312 C 0.74127 0.29733 0.44469 0.0
H313 H 0.66171 0.17971 0.29016 0.0
H314 H 0.69987 0.21697 0.3311 0.0
H315 H 0.68414 0.2779 0.37946 0.0
H316 H 0.77205 0.37512 0.53667 0.0
H317 H 0.73696 0.33505 0.49851 0.0
C318 C 0.4321 0.78316 0.71564 0.0
C319 C 0.44605 0.80965 0.70017 0.0
C320 C 0.43814 0.76491 0.69481 0.0
C321 C 0.46375 0.75233 0.57817 0.0
H322 H 0.4613 0.69527 0.65757 0.0
C323 C 0.46563 0.66427 0.48261 0.0
C324 C 0.44653 0.63946 0.50133 0.0
C325 C 0.47115 0.68724 0.509 0.0
C326 C 0.462 0.71106 0.63487 0.0
H327 H 0.47782 0.83809 0.65211 0.0
H328 H 0.48824 0.80597 0.6152 0.0
H329 H 0.46133 0.73207 0.70132 0.0
H330 H 0.41857 0.61914 0.56262 0.0
H331 H 0.42784 0.65903 0.60807 0.0
H332 H 0.46325 0.73082 0.51166 0.0
C333 C 0.47263 0.7994 0.64342 0.0
C334 C 0.46209 0.73213 0.65992 0.0
C335 C 0.46673 0.81776 0.66467 0.0
C336 C 0.43341 0.63799 0.54726 0.0
C337 C 0.43891 0.66086 0.57357 0.0
C338 C 0.46355 0.73119 0.55307 0.0
C339 C 0.45813 0.77273 0.65781 0.0
C340 C 0.46222 0.75261 0.63178 0.0
C341 C 0.4577 0.68577 0.55462 0.0
C342 C 0.4619 0.70996 0.58114 0.0
H343 H 0.41607 0.77638 0.743 0.0
H344 H 0.4264 0.74443 0.70617 0.0
H345 H 0.46361 0.76773 0.55548 0.0
H346 H 0.47611 0.66595 0.44735 0.0
H347 H 0.48586 0.70615 0.49364 0.0
C348 C 0.66373 0.46165 0.89216 0.0
C349 C 0.64017 0.44484 0.86625 0.0
C350 C 0.68808 0.46724 0.87147 0.0
C351 C 0.71914 0.466 0.74906 0.0
H352 H 0.77151 0.46253 0.83398 0.0
C353 C 0.80926 0.44445 0.71944 0.0
C354 C 0.82047 0.45913 0.67469 0.0
C355 C 0.79079 0.44778 0.74743 0.0
C356 C 0.75709 0.4636 0.80979 0.0
H357 H 0.62354 0.42059 0.7987 0.0
H358 H 0.66574 0.43009 0.76304 0.0
H359 H 0.73144 0.45785 0.87313 0.0
H360 H 0.8226 0.49006 0.62599 0.0
H361 H 0.79077 0.4963 0.6754 0.0
H362 H 0.7439 0.47043 0.68545 0.0
C363 C 0.66558 0.43932 0.79883 0.0
C364 C 0.73427 0.46119 0.83229 0.0
C365 C 0.64137 0.43372 0.81948 0.0
C366 C 0.81405 0.47828 0.66007 0.0
C367 C 0.79573 0.48175 0.68823 0.0
C368 C 0.74185 0.46837 0.72662 0.0
C369 C 0.68923 0.45621 0.82442 0.0
C370 C 0.71478 0.46174 0.80192 0.0
C371 C 0.78329 0.46599 0.73137 0.0
C372 C 0.76086 0.46668 0.75653 0.0
H373 H 0.66337 0.47049 0.92832 0.0
H374 H 0.70599 0.4804 0.89194 0.0
H375 H 0.70467 0.46693 0.72475 0.0
H376 H 0.81385 0.42954 0.73163 0.0
H377 H 0.78143 0.43512 0.78012 0.0
C378 C 0.3485 0.8084 0.87338 0.0
C379 C 0.34929 0.81217 0.82022 0.0
C380 C 0.32595 0.7881 0.89666 0.0
C381 C 0.2717 0.74873 0.93936 0.0
H382 H 0.24293 0.68163 0.86912 0.0
C383 C 0.18193 0.65202 0.01478 0.0
C384 C 0.18452 0.62947 0.01234 0.0
C385 C 0.20056 0.67548 0.99114 0.0
C386 C 0.25077 0.70022 0.88924 0.0
H387 H 0.32666 0.79869 0.7501 0.0
H388 H 0.2872 0.76338 0.79081 0.0
H389 H 0.27756 0.72134 0.82848 0.0
H390 H 0.2087 0.6138 0.98382 0.0
H391 H 0.24119 0.65466 0.94281 0.0
H392 H 0.24536 0.72728 0.00087 0.0
C393 C 0.30414 0.77584 0.81439 0.0
C394 C 0.27038 0.72303 0.86569 0.0
C395 C 0.32667 0.79614 0.79113 0.0
C396 C 0.20613 0.63084 0.98619 0.0
C397 C 0.22465 0.65419 0.96243 0.0
C398 C 0.25196 0.72586 0.96289 0.0
C399 C 0.30378 0.77117 0.8672 0.0
C400 C 0.28132 0.7475 0.89073 0.0
C401 C 0.22199 0.67671 0.96438 0.0
C402 C 0.24161 0.70131 0.93836 0.0
H403 H 0.36564 0.82048 0.89678 0.0
H404 H 0.32638 0.78489 0.93735 0.0
H405 H 0.27963 0.76734 0.95942 0.0
H406 H 0.16544 0.65151 0.03469 0.0
H407 H 0.19794 0.69249 0.99302 0.0
C408 C 0.54547 0.35041 0.03799 0.0
C409 C 0.54541 0.3536 0.98477 0.0
C410 C 0.54122 0.32664 0.05865 0.0
C411 C 0.5546 0.27485 0.03143 0.0
H412 H 0.50562 0.23616 0.14104 0.0
C413 C 0.55362 0.18524 0.12166 0.0
C414 C 0.54955 0.1818 0.17461 0.0
C415 C 0.54898 0.2033 0.09571 0.0
C416 C 0.51964 0.2469 0.11089 0.0
H417 H 0.54022 0.33439 0.91139 0.0
H418 H 0.53366 0.29296 0.9477 0.0
H419 H 0.50464 0.27336 0.10111 0.0
H420 H 0.53714 0.1941 0.24214 0.0
H421 H 0.53043 0.22681 0.19757 0.0
H422 H 0.57093 0.24993 0.04276 0.0
C423 C 0.53663 0.30879 0.97322 0.0
C424 C 0.51887 0.26802 0.08782 0.0
C425 C 0.54033 0.33239 0.95256 0.0
C426 C 0.54034 0.19639 0.20119 0.0
C427 C 0.5363 0.21498 0.17545 0.0
C428 C 0.55577 0.25415 0.0551 0.0
C429 C 0.53736 0.30587 0.02638 0.0
C430 C 0.53645 0.28221 0.04812 0.0
C431 C 0.54084 0.21888 0.12239 0.0
C432 C 0.53843 0.23997 0.09543 0.0
H433 H 0.54922 0.36645 0.06362 0.0
H434 H 0.54208 0.32487 0.09976 0.0
H435 H 0.56863 0.28582 0.00137 0.0
H436 H 0.56035 0.17388 0.1002 0.0
H437 H 0.55199 0.20514 0.05472 0.0
loop_
_geom_bond_atom_site_label_1
_geom_bond_atom_site_label_2
_geom_bond_distance
_geom_bond_site_symmetry_2
_ccdc_geom_bond_type
In0 O1 2.294 . S
In0 O2 2.326 . S
In0 O6 2.266 . S
In0 O7 2.326 . S
In0 O8 2.266 . S
In0 O9 2.326 . S
In0 O11 2.294 . S
In0 O12 2.326 . S
O1 In0 2.294 . S
O1 C10 1.240 . S
O2 In0 2.326 . S
O2 C10 1.252 . S
C3 O6 1.252 . S
C3 O7 1.260 . S
C4 O11 1.240 . S
C4 O12 1.252 . S
C5 O8 1.252 . S
C5 O9 1.260 . S
O6 In0 2.266 . S
O6 C3 1.252 . S
O7 In0 2.326 . S
O7 C3 1.260 . S
O8 In0 2.266 . S
O8 C5 1.252 . S
O9 In0 2.326 . S
O9 C5 1.260 . S
C10 O1 1.240 . S
C10 O2 1.252 . S
O11 In0 2.294 . S
O11 C4 1.240 . S
O12 In0 2.326 . S
O12 C4 1.252 . S
In13 O14 2.294 . S
In13 O15 2.326 . S
In13 O19 2.266 . S
In13 O20 2.326 . S
In13 O21 2.266 . S
In13 O22 2.326 . S
In13 O24 2.294 . S
In13 O25 2.326 . S
O14 In13 2.294 . S
O14 C23 1.240 . S
O15 In13 2.326 . S
O15 C23 1.252 . S
C16 O19 1.252 . S
C16 O20 1.260 . S
C17 O24 1.240 . S
C17 O25 1.252 . S
C18 O21 1.252 . S
C18 O22 1.260 . S
O19 In13 2.266 . S
O19 C16 1.252 . S
O20 In13 2.326 . S
O20 C16 1.260 . S
O21 In13 2.266 . S
O21 C18 1.252 . S
O22 In13 2.326 . S
O22 C18 1.260 . S
C23 O14 1.240 . S
C23 O15 1.252 . S
O24 In13 2.294 . S
O24 C17 1.240 . S
O25 In13 2.326 . S
O25 C17 1.252 . S
In26 O27 2.294 . S
In26 O28 2.326 . S
In26 O32 2.266 . S
In26 O33 2.326 . S
In26 O34 2.266 . S
In26 O35 2.326 . S
In26 O37 2.294 . S
In26 O38 2.326 . S
O27 In26 2.294 . S
O27 C36 1.240 . S
O28 In26 2.326 . S
O28 C36 1.252 . S
C29 O32 1.252 . S
C29 O33 1.260 . S
C30 O37 1.240 . S
C30 O38 1.252 . S
C31 O34 1.252 . S
C31 O35 1.260 . S
O32 In26 2.266 . S
O32 C29 1.252 . S
O33 In26 2.326 . S
O33 C29 1.260 . S
O34 In26 2.266 . S
O34 C31 1.252 . S
O35 In26 2.326 . S
O35 C31 1.260 . S
C36 O27 1.240 . S
C36 O28 1.252 . S
O37 In26 2.294 . S
O37 C30 1.240 . S
O38 In26 2.326 . S
O38 C30 1.252 . S
In39 O40 2.294 . S
In39 O41 2.326 . S
In39 O45 2.266 . S
In39 O46 2.326 . S
In39 O47 2.266 . S
In39 O48 2.326 . S
In39 O50 2.294 . S
In39 O51 2.326 . S
O40 In39 2.294 . S
O40 C49 1.240 . S
O41 In39 2.326 . S
O41 C49 1.252 . S
C42 O45 1.252 . S
C42 O46 1.260 . S
C43 O50 1.240 . S
C43 O51 1.252 . S
C44 O47 1.252 . S
C44 O48 1.260 . S
O45 In39 2.266 . S
O45 C42 1.252 . S
O46 In39 2.326 . S
O46 C42 1.260 . S
O47 In39 2.266 . S
O47 C44 1.252 . S
O48 In39 2.326 . S
O48 C44 1.260 . S
C49 O40 1.240 . S
C49 O41 1.252 . S
O50 In39 2.294 . S
O50 C43 1.240 . S
O51 In39 2.326 . S
O51 C43 1.252 . S
In52 O53 2.294 . S
In52 O54 2.326 . S
In52 O58 2.266 . S
In52 O59 2.326 . S
In52 O60 2.266 . S
In52 O61 2.326 . S
In52 O63 2.294 . S
In52 O64 2.326 . S
O53 In52 2.294 . S
O53 C62 1.240 . S
O54 In52 2.326 . S
O54 C62 1.252 . S
C55 O58 1.252 . S
C55 O59 1.260 . S
C56 O63 1.240 . S
C56 O64 1.252 . S
C57 O60 1.252 . S
C57 O61 1.260 . S
O58 In52 2.266 . S
O58 C55 1.252 . S
O59 In52 2.326 . S
O59 C55 1.260 . S
O60 In52 2.266 . S
O60 C57 1.252 . S
O61 In52 2.326 . S
O61 C57 1.260 . S
C62 O53 1.240 . S
C62 O54 1.252 . S
O63 In52 2.294 . S
O63 C56 1.240 . S
O64 In52 2.326 . S
O64 C56 1.252 . S
In65 O66 2.294 . S
In65 O67 2.326 . S
In65 O71 2.266 . S
In65 O72 2.326 . S
In65 O73 2.266 . S
In65 O74 2.326 . S
In65 O76 2.294 . S
In65 O77 2.326 . S
O66 In65 2.294 . S
O66 C75 1.240 . S
O67 In65 2.326 . S
O67 C75 1.252 . S
C68 O71 1.252 . S
C68 O72 1.260 . S
C69 O76 1.240 . S
C69 O77 1.252 . S
C70 O73 1.252 . S
C70 O74 1.260 . S
O71 In65 2.266 . S
O71 C68 1.252 . S
O72 In65 2.326 . S
O72 C68 1.260 . S
O73 In65 2.266 . S
O73 C70 1.252 . S
O74 In65 2.326 . S
O74 C70 1.260 . S
C75 O66 1.240 . S
C75 O67 1.252 . S
O76 In65 2.294 . S
O76 C69 1.240 . S
O77 In65 2.326 . S
O77 C69 1.252 . S
C78 C79 1.349 . S
C78 C80 1.327 . S
C78 H103 0.950 1_556 S
C79 C78 1.349 . S
C79 C95 1.349 . S
C80 C78 1.327 . S
C80 C99 1.429 . S
C80 H104 0.950 . S
C81 C98 1.574 . S
C81 C100 1.368 . S
C81 H105 0.949 . S
H82 C86 0.949 . S
C83 C84 1.349 . S
C83 C85 1.327 . S
C83 H106 0.950 . S
C84 C83 1.349 . S
C84 C96 1.349 . S
C85 C83 1.327 . S
C85 C101 1.429 . S
C85 H107 0.950 . S
C86 H82 0.949 . S
C86 C94 1.574 . S
C86 C102 1.368 . S
H87 C95 0.950 . S
H88 C93 0.950 . S
H89 C94 0.949 . S
H90 C96 0.950 . S
H91 C97 0.950 . S
H92 C98 0.949 . S
C93 H88 0.950 . S
C93 C95 1.327 . S
C93 C99 1.429 . S
C94 C86 1.574 . S
C94 H89 0.949 . S
C94 C100 1.368 1_655 S
C95 C79 1.349 . S
C95 H87 0.950 . S
C95 C93 1.327 . S
C96 C84 1.349 . S
C96 H90 0.950 . S
C96 C97 1.327 . S
C97 H91 0.950 . S
C97 C96 1.327 . S
C97 C101 1.429 . S
C98 C81 1.574 . S
C98 H92 0.949 . S
C98 C102 1.368 1_455 S
C99 C80 1.429 . S
C99 C93 1.429 . S
C99 C100 1.523 . S
C100 C81 1.368 . S
C100 C94 1.368 1_455 S
C100 C99 1.523 . S
C101 C85 1.429 . S
C101 C97 1.429 . S
C101 C102 1.523 . S
C102 C86 1.368 . S
C102 C98 1.368 1_655 S
C102 C101 1.523 . S
H103 C78 0.950 1_554 S
H104 C80 0.950 . S
H105 C81 0.949 . S
H106 C83 0.950 . S
H107 C85 0.950 . S
C108 C109 1.349 . S
C108 C110 1.327 . S
C108 H133 0.950 . S
C109 C108 1.349 . S
C109 C125 1.349 . S
C110 C108 1.327 . S
C110 C129 1.429 . S
C110 H134 0.950 . S
C111 C128 1.574 . S
C111 C130 1.368 1_545 S
C111 H135 0.949 . S
H112 C116 0.949 . S
C113 C114 1.349 . S
C113 C115 1.327 . S
C113 H136 0.950 . S
C114 C113 1.349 . S
C114 C126 1.349 . S
C115 C113 1.327 . S
C115 C131 1.429 . S
C115 H137 0.950 . S
C116 H112 0.949 . S
C116 C124 1.574 . S
C116 C132 1.368 1_565 S
H117 C125 0.950 . S
H118 C123 0.950 . S
H119 C124 0.949 . S
H120 C126 0.950 . S
H121 C127 0.950 . S
H122 C128 0.949 . S
C123 H118 0.950 . S
C123 C125 1.327 . S
C123 C129 1.429 . S
C124 C116 1.574 . S
C124 H119 0.949 . S
C124 C130 1.368 1_554 S
C125 C109 1.349 . S
C125 H117 0.950 . S
C125 C123 1.327 . S
C126 C114 1.349 . S
C126 H120 0.950 . S
C126 C127 1.327 . S
C127 H121 0.950 . S
C127 C126 1.327 . S
C127 C131 1.429 . S
C128 C111 1.574 . S
C128 H122 0.949 . S
C128 C132 1.368 1_556 S
C129 C110 1.429 . S
C129 C123 1.429 . S
C129 C130 1.523 . S
C130 C111 1.368 1_565 S
C130 C124 1.368 1_556 S
C130 C129 1.523 . S
C131 C115 1.429 . S
C131 C127 1.429 . S
C131 C132 1.523 . S
C132 C116 1.368 1_545 S
C132 C128 1.368 1_554 S
C132 C131 1.523 . S
H133 C108 0.950 . S
H134 C110 0.950 . S
H135 C111 0.949 . S
H136 C113 0.950 . S
H137 C115 0.950 . S
C138 C139 1.349 . S
C138 C140 1.327 . S
C138 H163 0.950 . S
C139 C138 1.349 . S
C139 C155 1.349 . S
C140 C138 1.327 . S
C140 C159 1.429 . S
C140 H164 0.950 . S
C141 C158 1.574 . S
C141 C160 1.368 . S
C141 H165 0.949 . S
H142 C146 0.949 . S
C143 C144 1.349 . S
C143 C145 1.327 . S
C143 H166 0.950 1_554 S
C144 C143 1.349 . S
C144 C156 1.349 . S
C145 C143 1.327 . S
C145 C161 1.429 . S
C145 H167 0.950 . S
C146 H142 0.949 . S
C146 C154 1.574 . S
C146 C162 1.368 . S
H147 C155 0.950 . S
H148 C153 0.950 . S
H149 C154 0.949 . S
H150 C156 0.950 . S
H151 C157 0.950 . S
H152 C158 0.949 . S
C153 H148 0.950 . S
C153 C155 1.327 . S
C153 C159 1.429 . S
C154 C146 1.574 . S
C154 H149 0.949 . S
C154 C160 1.368 . S
C155 C139 1.349 . S
C155 H147 0.950 . S
C155 C153 1.327 . S
C156 C144 1.349 . S
C156 H150 0.950 . S
C156 C157 1.327 . S
C157 H151 0.950 . S
C157 C156 1.327 . S
C157 C161 1.429 . S
C158 C141 1.574 . S
C158 H152 0.949 . S
C158 C162 1.368 . S
C159 C140 1.429 . S
C159 C153 1.429 . S
C159 C160 1.523 . S
C160 C141 1.368 . S
C160 C154 1.368 . S
C160 C159 1.523 . S
C161 C145 1.429 . S
C161 C157 1.429 . S
C161 C162 1.523 . S
C162 C146 1.368 . S
C162 C158 1.368 . S
C162 C161 1.523 . S
H163 C138 0.950 . S
H164 C140 0.950 . S
H165 C141 0.949 . S
H166 C143 0.950 1_556 S
H167 C145 0.950 . S
C168 C169 1.349 . S
C168 C170 1.327 . S
C168 H193 0.950 . S
C169 C168 1.349 . S
C169 C185 1.349 . S
C170 C168 1.327 . S
C170 C189 1.429 . S
C170 H194 0.950 . S
C171 C188 1.574 . S
C171 C190 1.368 1_455 S
C171 H195 0.949 . S
H172 C176 0.949 . S
C173 C174 1.349 . S
C173 C175 1.327 . S
C173 H196 0.950 . S
C174 C173 1.349 . S
C174 C186 1.349 . S
C175 C173 1.327 . S
C175 C191 1.429 . S
C175 H197 0.950 . S
C176 H172 0.949 . S
C176 C184 1.574 . S
C176 C192 1.368 1_655 S
H177 C185 0.950 . S
H178 C183 0.950 . S
H179 C184 0.949 . S
H180 C186 0.950 . S
H181 C187 0.950 . S
H182 C188 0.949 . S
C183 H178 0.950 . S
C183 C185 1.327 . S
C183 C189 1.429 . S
C184 C176 1.574 . S
C184 H179 0.949 . S
C184 C190 1.368 . S
C185 C169 1.349 . S
C185 H177 0.950 . S
C185 C183 1.327 . S
C186 C174 1.349 . S
C186 H180 0.950 . S
C186 C187 1.327 . S
C187 H181 0.950 . S
C187 C186 1.327 . S
C187 C191 1.429 . S
C188 C171 1.574 . S
C188 H182 0.949 . S
C188 C192 1.368 . S
C189 C170 1.429 . S
C189 C183 1.429 . S
C189 C190 1.523 . S
C190 C171 1.368 1_655 S
C190 C184 1.368 . S
C190 C189 1.523 . S
C191 C175 1.429 . S
C191 C187 1.429 . S
C191 C192 1.523 . S
C192 C176 1.368 1_455 S
C192 C188 1.368 . S
C192 C191 1.523 . S
H193 C168 0.950 . S
H194 C170 0.950 . S
H195 C171 0.949 . S
H196 C173 0.950 . S
H197 C175 0.950 . S
C198 C199 1.349 . S
C198 C200 1.327 . S
C198 H223 0.950 . S
C199 C198 1.349 . S
C199 C215 1.349 . S
C200 C198 1.327 . S
C200 C219 1.429 . S
C200 H224 0.950 . S
C201 C218 1.574 . S
C201 C220 1.368 1_565 S
C201 H225 0.949 . S
H202 C206 0.949 . S
C203 C204 1.349 . S
C203 C205 1.327 . S
C203 H226 0.950 . S
C204 C203 1.349 . S
C204 C216 1.349 . S
C205 C203 1.327 . S
C205 C221 1.429 . S
C205 H227 0.950 . S
C206 H202 0.949 . S
C206 C214 1.574 . S
C206 C222 1.368 1_545 S
H207 C215 0.950 . S
H208 C213 0.950 . S
H209 C214 0.949 . S
H210 C216 0.950 . S
H211 C217 0.950 . S
H212 C218 0.949 . S
C213 H208 0.950 . S
C213 C215 1.327 . S
C213 C219 1.429 . S
C214 C206 1.574 . S
C214 H209 0.949 . S
C214 C220 1.368 . S
C215 C199 1.349 . S
C215 H207 0.950 . S
C215 C213 1.327 . S
C216 C204 1.349 . S
C216 H210 0.950 . S
C216 C217 1.327 . S
C217 H211 0.950 . S
C217 C216 1.327 . S
C217 C221 1.429 . S
C218 C201 1.574 . S
C218 H212 0.949 . S
C218 C222 1.368 . S
C219 C200 1.429 . S
C219 C213 1.429 . S
C219 C220 1.523 . S
C220 C201 1.368 1_545 S
C220 C214 1.368 . S
C220 C219 1.523 . S
C221 C205 1.429 . S
C221 C217 1.429 . S
C221 C222 1.523 . S
C222 C206 1.368 1_565 S
C222 C218 1.368 . S
C222 C221 1.523 . S
H223 C198 0.950 . S
H224 C200 0.950 . S
H225 C201 0.949 . S
H226 C203 0.950 . S
H227 C205 0.950 . S
C228 C229 1.349 . S
C228 C230 1.327 . S
C228 H253 0.950 . S
C229 C228 1.349 . S
C229 C245 1.349 . S
C230 C228 1.327 . S
C230 C249 1.429 . S
C230 H254 0.950 . S
C231 C248 1.574 . S
C231 C250 1.368 . S
C231 H255 0.949 . S
H232 C236 0.949 . S
C233 C234 1.349 . S
C233 C235 1.327 . S
C233 H256 0.950 . S
C234 C233 1.349 . S
C234 C246 1.349 . S
C235 C233 1.327 . S
C235 C251 1.429 . S
C235 H257 0.950 . S
C236 H232 0.949 . S
C236 C244 1.574 . S
C236 C252 1.368 . S
H237 C245 0.950 . S
H238 C243 0.950 . S
H239 C244 0.949 . S
H240 C246 0.950 . S
H241 C247 0.950 . S
H242 C248 0.949 . S
C243 H238 0.950 . S
C243 C245 1.327 . S
C243 C249 1.429 . S
C244 C236 1.574 . S
C244 H239 0.949 . S
C244 C250 1.368 . S
C245 C229 1.349 . S
C245 H237 0.950 . S
C245 C243 1.327 . S
C246 C234 1.349 . S
C246 H240 0.950 . S
C246 C247 1.327 . S
C247 H241 0.950 . S
C247 C246 1.327 . S
C247 C251 1.429 . S
C248 C231 1.574 . S
C248 H242 0.949 . S
C248 C252 1.368 . S
C249 C230 1.429 . S
C249 C243 1.429 . S
C249 C250 1.523 . S
C250 C231 1.368 . S
C250 C244 1.368 . S
C250 C249 1.523 . S
C251 C235 1.429 . S
C251 C247 1.429 . S
C251 C252 1.523 . S
C252 C236 1.368 . S
C252 C248 1.368 . S
C252 C251 1.523 . S
H253 C228 0.950 . S
H254 C230 0.950 . S
H255 C231 0.949 . S
H256 C233 0.950 . S
H257 C235 0.950 . S
C258 C259 1.349 . S
C258 C260 1.327 . S
C258 H283 0.950 . S
C259 C258 1.349 . S
C259 C275 1.349 . S
C260 C258 1.327 . S
C260 C279 1.429 . S
C260 H284 0.950 . S
C261 C278 1.574 . S
C261 C280 1.368 . S
C261 H285 0.949 . S
H262 C266 0.949 . S
C263 C264 1.349 . S
C263 C265 1.327 . S
C263 H286 0.950 . S
C264 C263 1.349 . S
C264 C276 1.349 . S
C265 C263 1.327 . S
C265 C281 1.429 . S
C265 H287 0.950 . S
C266 H262 0.949 . S
C266 C274 1.574 . S
C266 C282 1.368 . S
H267 C275 0.950 . S
H268 C273 0.950 . S
H269 C274 0.949 . S
H270 C276 0.950 . S
H271 C277 0.950 . S
H272 C278 0.949 . S
C273 H268 0.950 . S
C273 C275 1.327 . S
C273 C279 1.429 . S
C274 C266 1.574 . S
C274 H269 0.949 . S
C274 C280 1.368 . S
C275 C259 1.349 . S
C275 H267 0.950 . S
C275 C273 1.327 . S
C276 C264 1.349 . S
C276 H270 0.950 . S
C276 C277 1.327 . S
C277 H271 0.950 . S
C277 C276 1.327 . S
C277 C281 1.429 . S
C278 C261 1.574 . S
C278 H272 0.949 . S
C278 C282 1.368 . S
C279 C260 1.429 . S
C279 C273 1.429 . S
C279 C280 1.523 . S
C280 C261 1.368 . S
C280 C274 1.368 . S
C280 C279 1.523 . S
C281 C265 1.429 . S
C281 C277 1.429 . S
C281 C282 1.523 . S
C282 C266 1.368 . S
C282 C278 1.368 . S
C282 C281 1.523 . S
H283 C258 0.950 . S
H284 C260 0.950 . S
H285 C261 0.949 . S
H286 C263 0.950 . S
H287 C265 0.950 . S
C288 C289 1.349 . S
C288 C290 1.327 . S
C288 H313 0.950 . S
C289 C288 1.349 . S
C289 C305 1.349 . S
C290 C288 1.327 . S
C290 C309 1.429 . S
C290 H314 0.950 . S
C291 C308 1.574 . S
C291 C310 1.368 . S
C291 H315 0.949 . S
H292 C296 0.949 . S
C293 C294 1.349 . S
C293 C295 1.327 . S
C293 H316 0.950 . S
C294 C293 1.349 . S
C294 C306 1.349 . S
C295 C293 1.327 . S
C295 C311 1.429 . S
C295 H317 0.950 . S
C296 H292 0.949 . S
C296 C304 1.574 . S
C296 C312 1.368 . S
H297 C305 0.950 . S
H298 C303 0.950 . S
H299 C304 0.949 . S
H300 C306 0.950 . S
H301 C307 0.950 . S
H302 C308 0.949 . S
C303 H298 0.950 . S
C303 C305 1.327 . S
C303 C309 1.429 . S
C304 C296 1.574 . S
C304 H299 0.949 . S
C304 C310 1.368 . S
C305 C289 1.349 . S
C305 H297 0.950 . S
C305 C303 1.327 . S
C306 C294 1.349 . S
C306 H300 0.950 . S
C306 C307 1.327 . S
C307 H301 0.950 . S
C307 C306 1.327 . S
C307 C311 1.429 . S
C308 C291 1.574 . S
C308 H302 0.949 . S
C308 C312 1.368 . S
C309 C290 1.429 . S
C309 C303 1.429 . S
C309 C310 1.523 . S
C310 C291 1.368 . S
C310 C304 1.368 . S
C310 C309 1.523 . S
C311 C295 1.429 . S
C311 C307 1.429 . S
C311 C312 1.523 . S
C312 C296 1.368 . S
C312 C308 1.368 . S
C312 C311 1.523 . S
H313 C288 0.950 . S
H314 C290 0.950 . S
H315 C291 0.949 . S
H316 C293 0.950 . S
H317 C295 0.950 . S
C318 C319 1.349 . S
C318 C320 1.327 . S
C318 H343 0.950 . S
C319 C318 1.349 . S
C319 C335 1.349 . S
C320 C318 1.327 . S
C320 C339 1.429 . S
C320 H344 0.950 . S
C321 C338 1.574 . S
C321 C340 1.368 . S
C321 H345 0.949 . S
H322 C326 0.949 . S
C323 C324 1.349 . S
C323 C325 1.327 . S
C323 H346 0.950 . S
C324 C323 1.349 . S
C324 C336 1.349 . S
C325 C323 1.327 . S
C325 C341 1.429 . S
C325 H347 0.950 . S
C326 H322 0.949 . S
C326 C334 1.574 . S
C326 C342 1.368 . S
H327 C335 0.950 . S
H328 C333 0.950 . S
H329 C334 0.949 . S
H330 C336 0.950 . S
H331 C337 0.950 . S
H332 C338 0.949 . S
C333 H328 0.950 . S
C333 C335 1.327 . S
C333 C339 1.429 . S
C334 C326 1.574 . S
C334 H329 0.949 . S
C334 C340 1.368 . S
C335 C319 1.349 . S
C335 H327 0.950 . S
C335 C333 1.327 . S
C336 C324 1.349 . S
C336 H330 0.950 . S
C336 C337 1.327 . S
C337 H331 0.950 . S
C337 C336 1.327 . S
C337 C341 1.429 . S
C338 C321 1.574 . S
C338 H332 0.949 . S
C338 C342 1.368 . S
C339 C320 1.429 . S
C339 C333 1.429 . S
C339 C340 1.523 . S
C340 C321 1.368 . S
C340 C334 1.368 . S
C340 C339 1.523 . S
C341 C325 1.429 . S
C341 C337 1.429 . S
C341 C342 1.523 . S
C342 C326 1.368 . S
C342 C338 1.368 . S
C342 C341 1.523 . S
H343 C318 0.950 . S
H344 C320 0.950 . S
H345 C321 0.949 . S
H346 C323 0.950 . S
H347 C325 0.950 . S
C348 C349 1.349 . S
C348 C350 1.327 . S
C348 H373 0.950 . S
C349 C348 1.349 . S
C349 C365 1.349 . S
C350 C348 1.327 . S
C350 C369 1.429 . S
C350 H374 0.950 . S
C351 C368 1.574 . S
C351 C370 1.368 . S
C351 H375 0.949 . S
H352 C356 0.949 . S
C353 C354 1.349 . S
C353 C355 1.327 . S
C353 H376 0.950 . S
C354 C353 1.349 . S
C354 C366 1.349 . S
C355 C353 1.327 . S
C355 C371 1.429 . S
C355 H377 0.950 . S
C356 H352 0.949 . S
C356 C364 1.574 . S
C356 C372 1.368 . S
H357 C365 0.950 . S
H358 C363 0.950 . S
H359 C364 0.949 . S
H360 C366 0.950 . S
H361 C367 0.950 . S
H362 C368 0.949 . S
C363 H358 0.950 . S
C363 C365 1.327 . S
C363 C369 1.429 . S
C364 C356 1.574 . S
C364 H359 0.949 . S
C364 C370 1.368 . S
C365 C349 1.349 . S
C365 H357 0.950 . S
C365 C363 1.327 . S
C366 C354 1.349 . S
C366 H360 0.950 . S
C366 C367 1.327 . S
C367 H361 0.950 . S
C367 C366 1.327 . S
C367 C371 1.429 . S
C368 C351 1.574 . S
C368 H362 0.949 . S
C368 C372 1.368 . S
C369 C350 1.429 . S
C369 C363 1.429 . S
C369 C370 1.523 . S
C370 C351 1.368 . S
C370 C364 1.368 . S
C370 C369 1.523 . S
C371 C355 1.429 . S
C371 C367 1.429 . S
C371 C372 1.523 . S
C372 C356 1.368 . S
C372 C368 1.368 . S
C372 C371 1.523 . S
H373 C348 0.950 . S
H374 C350 0.950 . S
H375 C351 0.949 . S
H376 C353 0.950 . S
H377 C355 0.950 . S
C378 C379 1.349 . S
C378 C380 1.327 . S
C378 H403 0.950 . S
C379 C378 1.349 . S
C379 C395 1.349 . S
C380 C378 1.327 . S
C380 C399 1.429 . S
C380 H404 0.950 . S
C381 C398 1.574 . S
C381 C400 1.368 . S
C381 H405 0.949 . S
H382 C386 0.949 . S
C383 C384 1.349 . S
C383 C385 1.327 1_554 S
C383 H406 0.950 . S
C384 C383 1.349 . S
C384 C396 1.349 1_554 S
C385 C383 1.327 1_556 S
C385 C401 1.429 . S
C385 H407 0.950 . S
C386 H382 0.949 . S
C386 C394 1.574 . S
C386 C402 1.368 . S
H387 C395 0.950 . S
H388 C393 0.950 . S
H389 C394 0.949 . S
H390 C396 0.950 1_554 S
H391 C397 0.950 . S
H392 C398 0.949 . S
C393 H388 0.950 . S
C393 C395 1.327 . S
C393 C399 1.429 . S
C394 C386 1.574 . S
C394 H389 0.949 . S
C394 C400 1.368 . S
C395 C379 1.349 . S
C395 H387 0.950 . S
C395 C393 1.327 . S
C396 C384 1.349 1_556 S
C396 H390 0.950 1_556 S
C396 C397 1.327 . S
C397 H391 0.950 . S
C397 C396 1.327 . S
C397 C401 1.429 . S
C398 C381 1.574 . S
C398 H392 0.949 . S
C398 C402 1.368 . S
C399 C380 1.429 . S
C399 C393 1.429 . S
C399 C400 1.523 . S
C400 C381 1.368 . S
C400 C394 1.368 . S
C400 C399 1.523 . S
C401 C385 1.429 . S
C401 C397 1.429 . S
C401 C402 1.523 . S
C402 C386 1.368 . S
C402 C398 1.368 . S
C402 C401 1.523 . S
H403 C378 0.950 . S
H404 C380 0.950 . S
H405 C381 0.949 . S
H406 C383 0.950 . S
H407 C385 0.950 . S
C408 C409 1.349 1_554 S
C408 C410 1.327 . S
C408 H433 0.950 . S
C409 C408 1.349 1_556 S
C409 C425 1.349 . S
C410 C408 1.327 . S
C410 C429 1.429 . S
C410 H434 0.950 . S
C411 C428 1.574 . S
C411 C430 1.368 . S
C411 H435 0.949 1_554 S
H412 C416 0.949 . S
C413 C414 1.349 . S
C413 C415 1.327 . S
C413 H436 0.950 . S
C414 C413 1.349 . S
C414 C426 1.349 . S
C415 C413 1.327 . S
C415 C431 1.429 . S
C415 H437 0.950 . S
C416 H412 0.949 . S
C416 C424 1.574 . S
C416 C432 1.368 . S
H417 C425 0.950 . S
H418 C423 0.950 . S
H419 C424 0.949 . S
H420 C426 0.950 . S
H421 C427 0.950 . S
H422 C428 0.949 . S
C423 H418 0.950 . S
C423 C425 1.327 . S
C423 C429 1.429 1_556 S
C424 C416 1.574 . S
C424 H419 0.949 . S
C424 C430 1.368 . S
C425 C409 1.349 . S
C425 H417 0.950 . S
C425 C423 1.327 . S
C426 C414 1.349 . S
C426 H420 0.950 . S
C426 C427 1.327 . S
C427 H421 0.950 . S
C427 C426 1.327 . S
C427 C431 1.429 . S
C428 C411 1.574 . S
C428 H422 0.949 . S
C428 C432 1.368 . S
C429 C410 1.429 . S
C429 C423 1.429 1_554 S
C429 C430 1.523 . S
C430 C411 1.368 . S
C430 C424 1.368 . S
C430 C429 1.523 . S
C431 C415 1.429 . S
C431 C427 1.429 . S
C431 C432 1.523 . S
C432 C416 1.368 . S
C432 C428 1.368 . S
C432 C431 1.523 . S
H433 C408 0.950 . S
H434 C410 0.950 . S
H435 C411 0.949 1_556 S
H436 C413 0.950 . S
H437 C415 0.950 . S
C79 C10 1.298 1_556 S
C84 C49 1.298 . S
C109 C56 1.298 . S
C114 C23 1.298 . S
C139 C36 1.298 . S
C144 C69 1.298 1_554 S
C169 C43 1.298 . S
C174 C4 1.298 . S
C199 C17 1.298 . S
C204 C62 1.298 . S
C229 C75 1.298 . S
C234 C30 1.298 . S
C259 C3 1.284 . S
C264 C31 1.284 . S
C289 C16 1.284 . S
C294 C42 1.284 . S
C319 C57 1.284 . S
C324 C29 1.284 . S
C349 C70 1.284 . S
C354 C44 1.284 . S
C379 C55 1.284 . S
C384 C5 1.284 . S
C409 C68 1.284 . S
C414 C18 1.284 . S
