# Generated by pormake.
# Topology atn, (4)-cn, num edge types: 1
# Building blocks:
#     Node 0, Type 0, BuildingBlock: QUQFOY_clean_sbu_3, # of connection points: 4
#     Node 1, Type 0, BuildingBlock: QUQFOY_clean_sbu_3, # of connection points: 4
#     Node 2, Type 0, BuildingBlock: QUQFOY_clean_sbu_3, # of connection points: 4
#     Node 3, Type 0, BuildingBlock: QUQFOY_clean_sbu_3, # of connection points: 4
#     Node 4, Type 0, BuildingBlock: QUQFOY_clean_sbu_3, # of connection points: 4
#     Node 5, Type 0, BuildingBlock: QUQFOY_clean_sbu_3, # of connection points: 4
#     Node 6, Type 0, BuildingBlock: QUQFOY_clean_sbu_3, # of connection points: 4
#     Node 7, Type 0, BuildingBlock: QUQFOY_clean_sbu_3, # of connection points: 4
#     Node 8, Type 0, BuildingBlock: QUQFOY_clean_sbu_3, # of connection points: 4
#     Node 9, Type 0, BuildingBlock: QUQFOY_clean_sbu_3, # of connection points: 4
#     Node 10, Type 0, BuildingBlock: QUQFOY_clean_sbu_3, # of connection points: 4
#     Node 11, Type 0, BuildingBlock: QUQFOY_clean_sbu_3, # of connection points: 4
#     Node 12, Type 0, BuildingBlock: QUQFOY_clean_sbu_3, # of connection points: 4
#     Node 13, Type 0, BuildingBlock: QUQFOY_clean_sbu_3, # of connection points: 4
#     Node 14, Type 0, BuildingBlock: QUQFOY_clean_sbu_3, # of connection points: 4
#     Node 15, Type 0, BuildingBlock: QUQFOY_clean_sbu_3, # of connection points: 4
#     Edge 16, Type (0, 0), BuildingBlock: UVAHIK_clean_linker_0, # of connection points: 2
#     Edge 17, Type (0, 0), BuildingBlock: UVAHIK_clean_linker_0, # of connection points: 2
#     Edge 18, Type (0, 0), BuildingBlock: UVAHIK_clean_linker_0, # of connection points: 2
#     Edge 19, Type (0, 0), BuildingBlock: UVAHIK_clean_linker_0, # of connection points: 2
#     Edge 20, Type (0, 0), BuildingBlock: UVAHIK_clean_linker_0, # of connection points: 2
#     Edge 21, Type (0, 0), BuildingBlock: UVAHIK_clean_linker_0, # of connection points: 2
#     Edge 22, Type (0, 0), BuildingBlock: UVAHIK_clean_linker_0, # of connection points: 2
#     Edge 23, Type (0, 0), BuildingBlock: UVAHIK_clean_linker_0, # of connection points: 2
#     Edge 24, Type (0, 0), BuildingBlock: UVAHIK_clean_linker_0, # of connection points: 2
#     Edge 25, Type (0, 0), BuildingBlock: UVAHIK_clean_linker_0, # of connection points: 2
#     Edge 26, Type (0, 0), BuildingBlock: UVAHIK_clean_linker_0, # of connection points: 2
#     Edge 27, Type (0, 0), BuildingBlock: UVAHIK_clean_linker_0, # of connection points: 2
#     Edge 28, Type (0, 0), BuildingBlock: UVAHIK_clean_linker_0, # of connection points: 2
#     Edge 29, Type (0, 0), BuildingBlock: UVAHIK_clean_linker_0, # of connection points: 2
#     Edge 30, Type (0, 0), BuildingBlock: UVAHIK_clean_linker_0, # of connection points: 2
#     Edge 31, Type (0, 0), BuildingBlock: UVAHIK_clean_linker_0, # of connection points: 2
#     Edge 32, Type (0, 0), BuildingBlock: UVAHIK_clean_linker_0, # of connection points: 2
#     Edge 33, Type (0, 0), BuildingBlock: UVAHIK_clean_linker_0, # of connection points: 2
#     Edge 34, Type (0, 0), BuildingBlock: UVAHIK_clean_linker_0, # of connection points: 2
#     Edge 35, Type (0, 0), BuildingBlock: UVAHIK_clean_linker_0, # of connection points: 2
#     Edge 36, Type (0, 0), BuildingBlock: UVAHIK_clean_linker_0, # of connection points: 2
#     Edge 37, Type (0, 0), BuildingBlock: UVAHIK_clean_linker_0, # of connection points: 2
#     Edge 38, Type (0, 0), BuildingBlock: UVAHIK_clean_linker_0, # of connection points: 2
#     Edge 39, Type (0, 0), BuildingBlock: UVAHIK_clean_linker_0, # of connection points: 2
#     Edge 40, Type (0, 0), BuildingBlock: UVAHIK_clean_linker_0, # of connection points: 2
#     Edge 41, Type (0, 0), BuildingBlock: UVAHIK_clean_linker_0, # of connection points: 2
#     Edge 42, Type (0, 0), BuildingBlock: UVAHIK_clean_linker_0, # of connection points: 2
#     Edge 43, Type (0, 0), BuildingBlock: UVAHIK_clean_linker_0, # of connection points: 2
#     Edge 44, Type (0, 0), BuildingBlock: UVAHIK_clean_linker_0, # of connection points: 2
#     Edge 45, Type (0, 0), BuildingBlock: UVAHIK_clean_linker_0, # of connection points: 2
#     Edge 46, Type (0, 0), BuildingBlock: UVAHIK_clean_linker_0, # of connection points: 2
#     Edge 47, Type (0, 0), BuildingBlock: UVAHIK_clean_linker_0, # of connection points: 2
# Relax obj value: 0.028
# Max RMSD: 0.057
# Mean RMSD: 0.057
data_MOF--net-atn--node1-QUQFOY_clean_sbu_3--edge1-UVAHIK_clean_linker_0
_symmetry_space_group_name_H-M    P1
_symmetry_Int_Tables_number       1
_symmetry_cell_setting            triclinic
loop_
_symmetry_equiv_pos_as_xyz
'x, y, z'
_cell_length_a     79.192013
_cell_length_b     79.159075
_cell_length_c     36.097213
_cell_angle_alpha  90.068734
_cell_angle_beta   90.039038
_cell_angle_gamma 89.905554
loop_
_atom_site_label
_atom_site_type_symbol
_atom_site_fract_x
_atom_site_fract_y
_atom_site_fract_z
_atom_type_partial_charge
C0 C 0.16403 0.35016 0.93944 0.0
O1 O 0.15772 0.34042 0.96371 0.0
Cd2 Cd 0.16452 0.3412 0.02836 0.0
O3 O 0.1747 0.36148 0.94855 0.0
Cd4 Cd 0.18877 0.37208 0.00537 0.0
C5 C 0.20707 0.33393 0.02177 0.0
O6 O 0.16354 0.37054 0.04333 0.0
O7 O 0.18624 0.37748 0.07231 0.0
O8 O 0.18772 0.39989 0.97665 0.0
C9 C 0.17044 0.37508 0.07332 0.0
O10 O 0.19272 0.32883 0.03304 0.0
C11 C 0.2026 0.40406 0.98604 0.0
O12 O 0.20883 0.3487 0.0084 0.0
O13 O 0.21128 0.39306 0.0032 0.0
C14 C 0.63066 0.16383 0.91814 0.0
O15 O 0.64115 0.15663 0.9396 0.0
Cd16 Cd 0.64598 0.16492 0.00219 0.0
O17 O 0.62143 0.17593 0.92978 0.0
Cd18 Cd 0.61593 0.19153 0.98837 0.0
C19 C 0.65567 0.20695 0.98843 0.0
O20 O 0.61847 0.16713 0.02876 0.0
O21 O 0.61729 0.19121 0.05624 0.0
O22 O 0.58652 0.19106 0.96922 0.0
C23 C 0.61792 0.17527 0.05891 0.0
O24 O 0.66037 0.19215 -0.00227 0.0
C25 C 0.58331 0.20616 0.97879 0.0
O26 O 0.64022 0.21013 0.98152 0.0
O27 O 0.59545 0.21472 -0.008 0.0
C28 C 0.82292 0.63223 0.92124 0.0
O29 O 0.82946 0.64267 0.94378 0.0
Cd30 Cd 0.82163 0.64516 0.00743 0.0
O31 O 0.81151 0.62197 0.93192 0.0
Cd32 Cd 0.79631 0.61462 0.98979 0.0
C33 C 0.77941 0.65381 -0.0046 0.0
O34 O 0.82112 0.61667 0.02892 0.0
O35 O 0.79751 0.61408 0.0578 0.0
O36 O 0.79706 0.58567 0.96719 0.0
C37 C 0.81348 0.61477 0.05938 0.0
O38 O 0.79381 0.65873 0.00686 0.0
C39 C 0.78209 0.58209 0.97693 0.0
O40 O 0.77713 0.63861 0.98502 0.0
O41 O 0.77349 0.59385 -0.00828 0.0
C42 C 0.35425 0.8258 0.94277 0.0
O43 O 0.344 0.83111 0.96721 0.0
Cd44 Cd 0.34157 0.8193 0.02771 0.0
O45 O 0.36437 0.81367 0.94986 0.0
Cd46 Cd 0.37191 0.79517 0.00291 0.0
C47 C 0.33289 0.77812 0.00343 0.0
O48 O 0.37002 0.81729 0.04914 0.0
O49 O 0.37211 0.79211 0.07085 0.0
O50 O 0.4008 0.79741 0.98067 0.0
C51 C 0.37162 0.80785 0.07714 0.0
O52 O 0.32802 0.7918 0.01876 0.0
C53 C 0.40462 0.78207 0.9866 0.0
O54 O 0.34808 0.77635 -0.00744 0.0
O55 O 0.39301 0.7726 -0.00097 0.0
C56 C 0.16509 0.63337 0.04752 0.0
O57 O 0.15799 0.64331 0.02467 0.0
Cd58 Cd 0.1627 0.64335 0.95925 0.0
O59 O 0.17552 0.62217 0.03637 0.0
Cd60 Cd 0.18775 0.61221 0.97689 0.0
C61 C 0.20537 0.65062 0.96069 0.0
O62 O 0.16141 0.61419 0.94302 0.0
O63 O 0.18314 0.60823 0.90988 0.0
O64 O 0.18763 0.58404 0.0039 0.0
C65 C 0.16731 0.61041 0.91157 0.0
O66 O 0.19071 0.6558 0.95159 0.0
C67 C 0.20214 0.57994 -0.00816 0.0
O68 O 0.2076 0.6357 0.9729 0.0
O69 O 0.21021 0.59111 0.97394 0.0
C70 C 0.35902 0.16189 0.04622 0.0
O71 O 0.3491 0.15592 0.02188 0.0
Cd72 Cd 0.34657 0.16678 0.96048 0.0
O73 O 0.36888 0.1741 0.03846 0.0
Cd74 Cd 0.37639 0.19177 0.9841 0.0
C75 C 0.33699 0.20809 0.98202 0.0
O76 O 0.37486 0.16924 0.93862 0.0
O77 O 0.3764 0.1943 0.91615 0.0
O78 O 0.40539 0.19028 0.00608 0.0
C79 C 0.37606 0.17852 0.91027 0.0
O80 O 0.33243 0.19414 0.96752 0.0
C81 C 0.40871 0.20573 0.00022 0.0
O82 O 0.35213 0.21026 -0.00708 0.0
O83 O 0.3968 0.21487 0.98782 0.0
C84 C 0.82457 0.35728 0.05418 0.0
O85 O 0.83234 0.34769 0.03165 0.0
Cd86 Cd 0.826 0.34558 0.96717 0.0
O87 O 0.8129 0.36714 0.04286 0.0
Cd88 Cd 0.79904 0.37525 0.98369 0.0
C89 C 0.78372 0.33561 0.9739 0.0
O90 O 0.82455 0.37416 0.94633 0.0
O91 O 0.80124 0.3769 0.91622 0.0
O92 O 0.7988 0.40399 0.00753 0.0
C93 C 0.81722 0.37626 0.91551 0.0
O94 O 0.7987 0.33116 0.96544 0.0
C95 C 0.7838 0.40729 -0.00264 0.0
O96 O 0.78044 0.35077 0.98331 0.0
O97 O 0.77564 0.39544 0.9818 0.0
C98 C 0.63282 0.82297 0.05194 0.0
O99 O 0.64253 0.82987 0.02841 0.0
Cd100 Cd 0.64283 0.82441 0.96333 0.0
O101 O 0.6218 0.81215 0.04182 0.0
Cd102 Cd 0.6119 0.79883 0.98332 0.0
C103 C 0.65071 0.78175 0.9677 0.0
O104 O 0.61363 0.82466 0.94816 0.0
O105 O 0.6076 0.80268 0.91595 0.0
O106 O 0.58373 0.79865 0.01042 0.0
C107 C 0.60992 0.81851 0.91691 0.0
O108 O 0.65562 0.79637 0.9577 0.0
C109 C 0.58003 0.7839 -0.00086 0.0
O110 O 0.63584 0.77945 0.9801 0.0
O111 O 0.59143 0.77587 0.98171 0.0
C112 C 0.66636 0.85069 0.43797 0.0
O113 O 0.66006 0.84046 0.46126 0.0
Cd114 Cd 0.66699 0.83985 0.52581 0.0
O115 O 0.67708 0.86177 0.44813 0.0
Cd116 Cd 0.69132 0.87121 0.50569 0.0
C117 C 0.70952 0.83265 0.51743 0.0
O118 O 0.6661 0.86888 0.54336 0.0
O119 O 0.68875 0.87531 0.57308 0.0
O120 O 0.69037 0.89941 0.47884 0.0
C121 C 0.67296 0.87285 0.57377 0.0
O122 O 0.6952 0.82735 0.5284 0.0
C123 C 0.70513 0.90353 0.48923 0.0
O124 O 0.71131 0.84771 0.50579 0.0
O125 O 0.7137 0.89236 0.50609 0.0
C126 C 0.13775 0.66505 0.43485 0.0
O127 O 0.14717 0.65803 0.45885 0.0
Cd128 Cd 0.14661 0.66399 0.52379 0.0
O129 O 0.12674 0.67599 0.44448 0.0
Cd130 Cd 0.11603 0.68946 0.50207 0.0
C131 C 0.15446 0.70667 0.52059 0.0
O132 O 0.11723 0.66368 0.53831 0.0
O133 O 0.10993 0.68599 0.56838 0.0
O134 O 0.08839 0.68924 0.47247 0.0
C135 C 0.11249 0.6702 0.56856 0.0
O136 O 0.15946 0.6919 0.52929 0.0
C137 C 0.08436 0.70406 0.48274 0.0
O138 O 0.13955 0.70914 0.50853 0.0
O139 O 0.09536 0.71234 0.50075 0.0
C140 C 0.3242 0.13284 0.42662 0.0
O141 O 0.33042 0.14365 0.44877 0.0
Cd142 Cd 0.32115 0.14745 0.51121 0.0
O143 O 0.31249 0.12292 0.43717 0.0
Cd144 Cd 0.2961 0.11661 0.49397 0.0
C145 C 0.27916 0.15579 0.49413 0.0
O146 O 0.31979 0.11957 0.53613 0.0
O147 O 0.29544 0.11771 0.56203 0.0
O148 O 0.29773 0.08735 0.47387 0.0
C149 C 0.31133 0.11861 0.56573 0.0
O150 O 0.29336 0.16087 0.50644 0.0
C151 C 0.28259 0.0837 0.48209 0.0
O152 O 0.27699 0.14042 0.48489 0.0
O153 O 0.2735 0.09552 0.49512 0.0
C154 C 0.85155 0.32386 0.43942 0.0
O155 O 0.84189 0.33024 0.46379 0.0
Cd156 Cd 0.84189 0.32212 0.52748 0.0
O157 O 0.8623 0.31252 0.44814 0.0
Cd158 Cd 0.87179 0.2973 0.50461 0.0
C159 C 0.83317 0.27994 0.5163 0.0
O160 O 0.87108 0.322 0.54441 0.0
O161 O 0.87444 0.29826 0.57242 0.0
O162 O 0.9 0.29827 0.47805 0.0
C163 C 0.87405 0.31424 0.57431 0.0
O164 O 0.82848 0.29425 0.52881 0.0
C165 C 0.90396 0.28326 0.48698 0.0
O166 O 0.84799 0.27787 0.50345 0.0
O167 O 0.89269 0.27454 0.50303 0.0
C168 C 0.65983 0.13026 0.53744 0.0
O169 O 0.65416 0.14003 0.51246 0.0
Cd170 Cd 0.66538 0.1416 0.45119 0.0
O171 O 0.67195 0.12011 0.53053 0.0
Cd172 Cd 0.69 0.11177 0.47733 0.0
C173 C 0.70662 0.151 0.4734 0.0
O174 O 0.66775 0.11295 0.43123 0.0
O175 O 0.69292 0.11066 0.40958 0.0
O176 O 0.68806 0.08309 0.50106 0.0
C177 C 0.67719 0.11111 0.40326 0.0
O178 O 0.69279 0.15551 0.45826 0.0
C179 C 0.70345 0.0794 0.4954 0.0
O180 O 0.70863 0.13598 0.48524 0.0
O181 O 0.71279 0.09101 0.48247 0.0
C182 C 0.8576 0.66052 0.53849 0.0
O183 O 0.84765 0.6544 0.51437 0.0
Cd184 Cd 0.84613 0.66359 0.45157 0.0
O185 O 0.86805 0.67212 0.52987 0.0
Cd186 Cd 0.87656 0.68816 0.47373 0.0
C187 C 0.83764 0.70556 0.46801 0.0
O188 O 0.87487 0.66424 0.43198 0.0
O189 O 0.87757 0.68843 0.40564 0.0
O190 O 0.90531 0.68688 0.49744 0.0
C191 C 0.87698 0.67251 0.4024 0.0
O192 O 0.83271 0.69149 0.4547 0.0
C193 C 0.90897 0.70203 0.48919 0.0
O194 O 0.85275 0.70745 0.47927 0.0
O195 O 0.89733 0.71092 0.47481 0.0
C196 C 0.32548 0.86037 0.56367 0.0
O197 O 0.3322 0.84952 0.54231 0.0
Cd198 Cd 0.32265 0.84415 0.48085 0.0
O199 O 0.31342 0.86972 0.55229 0.0
Cd200 Cd 0.29722 0.87513 0.49447 0.0
C201 C 0.28066 0.83592 0.49925 0.0
O202 O 0.32082 0.8713 0.45243 0.0
O203 O 0.29636 0.87266 0.4267 0.0
O204 O 0.29893 0.90474 0.51183 0.0
C205 C 0.31223 0.87157 0.42288 0.0
O206 O 0.29515 0.8306 0.48922 0.0
C207 C 0.28375 0.90828 0.5036 0.0
O208 O 0.27803 0.8516 0.50477 0.0
O209 O 0.27461 0.89626 0.49176 0.0
C210 C 0.13196 0.32267 0.5526 0.0
O211 O 0.14188 0.32994 0.53004 0.0
Cd212 Cd 0.14231 0.32563 0.46443 0.0
O213 O 0.12093 0.31216 0.54109 0.0
Cd214 Cd 0.11131 0.29999 0.48129 0.0
C215 C 0.15003 0.28295 0.46465 0.0
O216 O 0.11321 0.32644 0.44803 0.0
O217 O 0.10724 0.30488 0.41437 0.0
O218 O 0.08308 0.29965 0.50796 0.0
C219 C 0.10954 0.32068 0.41638 0.0
O220 O 0.15502 0.29772 0.45602 0.0
C221 C 0.07931 0.28507 0.49582 0.0
O222 O 0.13514 0.2805 0.47679 0.0
O223 O 0.09067 0.27719 0.47797 0.0
C224 C 0.22187 0.5568 0.97293 0.0
C225 C 0.20858 0.56252 -0.00449 0.0
C226 C 0.22627 0.5397 0.97232 0.0
C227 C 0.22162 0.49923 0.02179 0.0
H228 H 0.21941 0.47936 0.92359 0.0
C229 C 0.19981 0.43281 0.95826 0.0
C230 C 0.20887 0.42142 0.9805 0.0
C231 C 0.20425 0.44986 0.95731 0.0
C232 C 0.22025 0.48475 0.95112 0.0
H233 H 0.1902 0.55507 0.03686 0.0
H234 H 0.19804 0.52526 0.03616 0.0
H235 H 0.21931 0.51008 0.9305 0.0
H236 H 0.23025 0.41876 0.0177 0.0
H237 H 0.23785 0.44867 0.0164 0.0
H238 H 0.22185 0.47391 0.0425 0.0
C239 C 0.20501 0.53397 0.01884 0.0
C240 C 0.22032 0.50231 0.95508 0.0
C241 C 0.20046 0.55101 0.01909 0.0
C242 C 0.22301 0.42725 0.00031 0.0
C243 C 0.22733 0.44435 -0.00028 0.0
C244 C 0.22175 0.48168 0.01781 0.0
C245 C 0.21763 0.52808 -0.00529 0.0
C246 C 0.22049 0.50969 -0.00949 0.0
C247 C 0.21774 0.45587 0.9789 0.0
C248 C 0.22055 0.47429 0.98249 0.0
H249 H 0.22836 0.56538 0.95444 0.0
H250 H 0.23612 0.53547 0.95365 0.0
H251 H 0.22185 0.50462 0.04939 0.0
H252 H 0.18889 0.42867 0.94262 0.0
H253 H 0.19655 0.45848 0.94125 0.0
C254 C 0.43101 0.22712 0.98616 0.0
C255 C 0.42602 0.21231 0.00459 0.0
C256 C 0.44799 0.23191 0.98564 0.0
C257 C 0.48505 0.22724 0.96322 0.0
H258 H 0.51523 0.22389 0.04759 0.0
C259 C 0.55374 0.20482 0.95528 0.0
C260 C 0.56595 0.21288 0.97723 0.0
C261 C 0.53683 0.20971 0.95726 0.0
C262 C 0.50695 0.22519 0.02386 0.0
H263 H 0.4346 0.19156 0.03896 0.0
H264 H 0.46418 0.20008 0.03856 0.0
H265 H 0.48466 0.22367 0.05737 0.0
H266 H 0.57022 0.23284 0.01736 0.0
H267 H 0.54045 0.24113 0.02148 0.0
H268 H 0.50733 0.22775 0.92955 0.0
C269 C 0.45501 0.20793 0.02438 0.0
C270 C 0.4895 0.22495 0.02944 0.0
C271 C 0.43811 0.203 0.02441 0.0
C272 C 0.56106 0.22643 7e-05 0.0
C273 C 0.54406 0.23113 0.00255 0.0
C274 C 0.5025 0.22725 0.9576 0.0
C275 C 0.46018 0.22215 0.00411 0.0
C276 C 0.47841 0.2255 -0.00091 0.0
C277 C 0.53178 0.2226 0.98165 0.0
C278 C 0.51358 0.22575 0.98779 0.0
H279 H 0.42195 0.23454 0.97062 0.0
H280 H 0.45168 0.24296 0.96993 0.0
H281 H 0.47678 0.22755 0.93931 0.0
H282 H 0.55717 0.19438 0.93735 0.0
H283 H 0.52759 0.20281 0.94112 0.0
C284 C 0.78501 0.43662 0.02259 0.0
C285 C 0.77682 0.42452 0.00053 0.0
C286 C 0.77994 0.4535 0.02164 0.0
C287 C 0.76285 0.4836 0.95681 0.0
H288 H 0.76286 0.51362 0.0418 0.0
C289 C 0.76166 0.55953 -0.00469 0.0
C290 C 0.77559 0.56468 0.97402 0.0
C291 C 0.75709 0.54249 -0.00326 0.0
C292 C 0.7625 0.50539 0.01781 0.0
H293 H 0.75636 0.42041 0.96157 0.0
H294 H 0.74768 0.45008 0.95946 0.0
H295 H 0.76302 0.48305 0.05129 0.0
H296 H 0.79495 0.55628 0.93573 0.0
H297 H 0.78682 0.52661 0.93783 0.0
H298 H 0.76323 0.50594 0.92335 0.0
C299 C 0.75798 0.44643 0.97753 0.0
C300 C 0.76271 0.48793 0.02326 0.0
C301 C 0.76291 0.42948 0.97887 0.0
C302 C 0.7842 0.55267 0.95248 0.0
C303 C 0.77948 0.5357 0.9535 0.0
C304 C 0.76283 0.50106 0.95136 0.0
C305 C 0.7667 0.45865 -0.00171 0.0
C306 C 0.76337 0.47688 -0.00719 0.0
C307 C 0.76618 0.53038 0.97642 0.0
C308 C 0.76314 0.51211 0.98183 0.0
H309 H 0.79573 0.43316 0.03964 0.0
H310 H 0.78699 0.46267 0.03766 0.0
H311 H 0.76349 0.47538 0.93283 0.0
H312 H 0.75479 0.56853 0.01222 0.0
H313 H 0.74674 0.53871 0.01449 0.0
C314 C 0.55744 0.76354 0.98069 0.0
C315 C 0.56277 0.77712 0.00293 0.0
C316 C 0.54044 0.75887 0.97982 0.0
C317 C 0.50321 0.76468 0.96091 0.0
H318 H 0.47398 0.76291 0.047 0.0
C319 C 0.43383 0.78554 0.96197 0.0
C320 C 0.42213 0.776 0.98229 0.0
C321 C 0.45089 0.78113 0.96193 0.0
C322 C 0.482 0.76307 0.0227 0.0
H323 H 0.55477 0.79566 0.04355 0.0
H324 H 0.52513 0.78733 0.04243 0.0
H325 H 0.50465 0.76304 0.05529 0.0
H326 H 0.41895 0.75397 0.01726 0.0
H327 H 0.44897 0.74648 0.01782 0.0
H328 H 0.48056 0.76565 0.92844 0.0
C329 C 0.53407 0.78036 0.02557 0.0
C330 C 0.49951 0.76327 0.02747 0.0
C331 C 0.55101 0.7852 0.02606 0.0
C332 C 0.4277 0.76153 0.00128 0.0
C333 C 0.44484 0.75728 0.00176 0.0
C334 C 0.48571 0.76472 0.95618 0.0
C335 C 0.52854 0.7675 0.00162 0.0
C336 C 0.51025 0.76449 -0.00334 0.0
C337 C 0.45662 0.76724 0.98265 0.0
C338 C 0.47496 0.76434 0.98707 0.0
H339 H 0.56623 0.75707 0.96257 0.0
H340 H 0.53649 0.74884 0.96129 0.0
H341 H 0.5112 0.76578 0.9367 0.0
H342 H 0.42988 0.79673 0.94701 0.0
H343 H 0.45974 0.78911 0.94724 0.0
C344 C 0.70029 0.05035 0.5212 0.0
C345 C 0.70972 0.062 0.50049 0.0
C346 C 0.70491 0.03334 0.52194 0.0
C347 C 0.72344 0.00195 0.46249 0.0
H348 H 0.72126 0.97341 0.54961 0.0
C349 C 0.72483 0.92683 0.50694 0.0
C350 C 0.71135 0.92098 0.48504 0.0
C351 C 0.729 0.94397 0.50734 0.0
C352 C 0.7222 0.98123 0.5251 0.0
H353 H 0.73178 0.06516 0.46559 0.0
H354 H 0.73963 0.03523 0.46626 0.0
H355 H 0.7208 0.00414 0.55669 0.0
H356 H 0.69244 0.92824 0.4446 0.0
H357 H 0.69994 0.95813 0.44483 0.0
H358 H 0.7239 0.97903 0.43079 0.0
C359 C 0.72875 0.03936 0.48207 0.0
C360 C 0.72182 -0.00123 0.52915 0.0
C361 C 0.72429 0.05645 0.48184 0.0
C362 C 0.70285 0.9324 0.46183 0.0
C363 C 0.70719 0.94948 0.46181 0.0
C364 C 0.72357 0.9844 0.4584 0.0
C365 C 0.7189 0.02761 0.50155 0.0
C366 C 0.72204 0.00927 0.49784 0.0
C367 C 0.71998 0.95549 0.48536 0.0
C368 C 0.72255 0.9739 0.48963 0.0
H369 H 0.68903 0.05429 0.5359 0.0
H370 H 0.69701 0.02451 0.53691 0.0
H371 H 0.72348 0.00978 0.43789 0.0
H372 H 0.7316 0.91831 0.52514 0.0
H373 H 0.73896 0.94831 0.52559 0.0
C374 C 0.93817 0.69958 0.51467 0.0
C375 C 0.92634 0.70847 0.49322 0.0
C376 C 0.95511 0.70438 0.51477 0.0
C377 C 0.98941 0.7217 0.52029 0.0
H378 H 0.00896 0.72268 0.42177 0.0
C379 C 0.06121 0.72431 0.49865 0.0
C380 C 0.06706 0.71061 0.47741 0.0
C381 C 0.0441 0.72866 0.49842 0.0
C382 C 0.00364 0.72265 0.44941 0.0
H383 H 0.92279 0.72977 0.45623 0.0
H384 H 0.95258 0.73794 0.45587 0.0
H385 H 0.97826 0.72199 0.429 0.0
H386 H 0.05989 0.69153 0.43725 0.0
H387 H 0.03008 0.69928 0.43648 0.0
H388 H 0.01479 0.72165 0.5407 0.0
C389 C 0.94866 0.72734 0.47272 0.0
C390 C 0.98611 0.72238 0.45357 0.0
C391 C 0.93164 0.72269 0.47307 0.0
C392 C 0.05573 0.7021 0.45402 0.0
C393 C 0.03868 0.7066 0.45342 0.0
C394 C 0.00693 0.7222 0.51615 0.0
C395 C 0.96059 0.71802 0.49303 0.0
C396 C 0.97887 0.72135 0.48903 0.0
C397 C 0.03262 0.71956 0.47651 0.0
C398 C 0.01421 0.72214 0.48065 0.0
H399 H 0.93443 0.68859 0.53053 0.0
H400 H 0.96408 0.69688 0.53041 0.0
H401 H 0.98411 0.72099 0.54791 0.0
H402 H 0.06966 0.73111 0.51694 0.0
H403 H 0.03975 0.73877 0.51629 0.0
C404 C 0.2623 0.06093 0.49994 0.0
C405 C 0.27634 0.0662 0.47919 0.0
C406 C 0.25789 0.04385 0.50123 0.0
C407 C 0.264 0.00256 0.45586 0.0
H408 H 0.2645 0.98434 0.5556 0.0
C409 C 0.2863 0.93795 0.52613 0.0
C410 C 0.27746 0.9258 0.50549 0.0
C411 C 0.28153 0.95491 0.52481 0.0
C412 C 0.26409 0.98928 0.52764 0.0
H413 H 0.29611 0.05799 0.44171 0.0
H414 H 0.28823 0.02823 0.44347 0.0
H415 H 0.26417 0.01494 0.54642 0.0
H416 H 0.25634 0.92172 0.46827 0.0
H417 H 0.24825 0.95158 0.46526 0.0
H418 H 0.26464 0.97689 0.4371 0.0
C419 C 0.28069 0.03726 0.45886 0.0
C420 C 0.26379 0.00675 0.52237 0.0
C421 C 0.28527 0.05427 0.45805 0.0
C422 C 0.26336 0.93083 0.48451 0.0
C423 C 0.25876 0.94788 0.48268 0.0
C424 C 0.26406 0.98508 0.46113 0.0
C425 C 0.26725 0.03183 0.48123 0.0
C426 C 0.26431 0.01354 0.48645 0.0
C427 C 0.26798 0.96008 0.50238 0.0
C428 C 0.26469 0.97831 0.49706 0.0
H429 H 0.25521 0.06988 0.51654 0.0
H430 H 0.24744 0.03996 0.51859 0.0
H431 H 0.26433 0.00751 0.4279 0.0
H432 H 0.29718 0.93441 0.54262 0.0
H433 H 0.28896 0.96409 0.53996 0.0
C434 C 0.0503 0.28627 0.52279 0.0
C435 C 0.06203 0.2783 0.49941 0.0
C436 C 0.03337 0.28138 0.52245 0.0
C437 C -0.00106 0.26431 0.52509 0.0
H438 H 0.97946 0.2659 0.42649 0.0
C439 C 0.92704 0.26281 0.50218 0.0
C440 C 0.92134 0.2769 0.48205 0.0
C441 C 0.94415 0.25842 0.50205 0.0
C442 C 0.98475 0.26521 0.45413 0.0
H443 H 0.06544 0.25842 0.45865 0.0
H444 H 0.03572 0.25006 0.45769 0.0
H445 H 0.01013 0.26626 0.43395 0.0
H446 H 0.92879 0.29673 0.44407 0.0
H447 H 0.95858 0.28894 0.44347 0.0
H448 H 0.97355 0.26403 0.54533 0.0
C449 C 0.03968 0.26006 0.47628 0.0
C450 C 0.00227 0.2653 0.45841 0.0
C451 C 0.05667 0.2648 0.47696 0.0
C452 C 0.93284 0.28585 0.45996 0.0
C453 C 0.94987 0.28132 0.45944 0.0
C454 C 0.98141 0.26404 0.52079 0.0
C455 C 0.02782 0.26856 0.49843 0.0
C456 C 0.00951 0.26539 0.49397 0.0
C457 C 0.95577 0.26788 0.48132 0.0
C458 C 0.97416 0.26503 0.48532 0.0
H459 H 0.05407 0.29667 0.54045 0.0
H460 H 0.02448 0.28826 0.53958 0.0
H461 H 0.00422 0.26427 0.55278 0.0
H462 H 0.91845 0.25567 0.51947 0.0
H463 H 0.94838 0.24794 0.51897 0.0
C464 C 0.23618 0.32559 0.00151 0.0
C465 C 0.22162 0.32219 0.02245 0.0
C466 C 0.24931 0.31381 -0.00031 0.0
C467 C 0.25731 0.26818 0.0128 0.0
H468 H 0.3042 0.28157 0.00406 0.0
C469 C 0.32797 0.23578 0.00951 0.0
C470 C 0.32442 0.22176 0.9869 0.0
C471 C 0.31583 0.24836 0.01508 0.0
C472 C 0.29119 0.27759 0.00686 0.0
H473 H 0.2098 0.30412 0.05935 0.0
H474 H 0.23289 0.28383 0.05707 0.0
H475 H 0.28258 0.30301 0.0142 0.0
H476 H 0.30549 0.21018 0.95162 0.0
H477 H 0.28454 0.23228 0.9605 0.0
H478 H 0.2659 0.24275 0.00657 0.0
C479 C 0.23397 0.29536 0.04113 0.0
C480 C 0.27876 0.28992 0.01222 0.0
C481 C 0.22076 0.30705 0.04263 0.0
C482 C 0.30858 0.22074 0.96948 0.0
C483 C 0.29652 0.23337 0.97478 0.0
C484 C 0.26973 0.25587 0.00774 0.0
C485 C 0.24826 0.29844 0.01907 0.0
C486 C 0.26165 0.28536 0.015 0.0
C487 C 0.29991 0.24726 -0.00206 0.0
C488 C 0.28681 0.26042 0.00436 0.0
H489 H 0.23721 0.33711 0.98553 0.0
H490 H 0.26003 0.31654 0.98208 0.0
H491 H 0.24425 0.26419 0.01428 0.0
H492 H 0.34003 0.23691 0.02346 0.0
H493 H 0.31881 0.25877 0.03344 0.0
C494 C 0.75308 0.32771 0.97748 0.0
C495 C 0.77008 0.32284 0.97373 0.0
C496 C 0.7403 0.31554 0.97826 0.0
C497 C 0.73303 0.27113 0.00081 0.0
H498 H 0.69252 0.27567 0.94122 0.0
C499 C 0.6857 0.21665 0.98656 0.0
C500 C 0.66839 0.22057 0.98579 0.0
C501 C 0.69778 0.22942 0.98463 0.0
C502 C 0.70364 0.27432 0.95844 0.0
H503 H 0.78697 0.30138 0.96758 0.0
H504 H 0.76468 0.28022 0.96927 0.0
H505 H 0.71414 0.29761 0.93888 0.0
H506 H 0.65019 0.24102 0.98232 0.0
H507 H 0.67129 0.26338 0.97987 0.0
H508 H 0.72255 0.24807 0.02094 0.0
C509 C 0.76127 0.29343 0.97169 0.0
C510 C 0.71603 0.28687 0.95699 0.0
C511 C 0.77401 0.30557 0.97052 0.0
C512 C 0.66343 0.23757 0.98284 0.0
C513 C 0.67553 0.25039 0.98123 0.0
C514 C 0.7206 0.25869 0.00253 0.0
C515 C 0.7443 0.29829 0.97574 0.0
C516 C 0.7309 0.2853 0.97792 0.0
C517 C 0.69286 0.24647 0.98225 0.0
C518 C 0.70582 0.26003 0.98111 0.0
H519 H 0.74963 0.34091 0.97994 0.0
H520 H 0.72732 0.31961 0.98162 0.0
H521 H 0.74426 0.26975 0.0177 0.0
H522 H 0.68996 0.20367 0.98847 0.0
H523 H 0.71099 0.2259 0.98469 0.0
C524 C 0.76648 0.68177 0.01116 0.0
C525 C 0.76535 0.66609 -0.00691 0.0
C526 C 0.75352 0.69365 0.00786 0.0
C527 C 0.70866 0.69861 0.97952 0.0
H528 H 0.7213 0.74581 0.97314 0.0
C529 C 0.6779 0.76879 0.94656 0.0
C530 C 0.66278 0.76748 0.96669 0.0
C531 C 0.68985 0.75581 0.94765 0.0
C532 C 0.71751 0.73268 0.97435 0.0
H533 H 0.74967 0.65052 0.95755 0.0
H534 H 0.72727 0.67143 0.95091 0.0
H535 H 0.7431 0.72443 0.97894 0.0
H536 H 0.64821 0.75138 0.00322 0.0
H537 H 0.66925 0.72898 0.00603 0.0
H538 H 0.68307 0.70688 0.97356 0.0
C539 C 0.73799 0.67443 0.96833 0.0
C540 C 0.73004 0.72041 0.97835 0.0
C541 C 0.75088 0.66246 0.97199 0.0
C542 C 0.6597 0.75274 0.98725 0.0
C543 C 0.67175 0.73985 0.98871 0.0
C544 C 0.69611 0.7109 0.97515 0.0
C545 C 0.73921 0.69023 0.98602 0.0
C546 C 0.72579 0.70322 0.98125 0.0
C547 C 0.68708 0.74131 0.96929 0.0
C548 C 0.70038 0.7281 0.97269 0.0
H549 H 0.77739 0.68489 0.02793 0.0
H550 H 0.75474 0.70552 0.02257 0.0
H551 H 0.70489 0.68552 0.98201 0.0
H552 H 0.68057 0.77991 0.93013 0.0
H553 H 0.70132 0.75722 0.93164 0.0
C554 C 0.23471 0.65908 0.97885 0.0
C555 C 0.21977 0.66249 0.9592 0.0
C556 C 0.24766 0.67104 0.98036 0.0
C557 C 0.25443 0.71697 0.96946 0.0
H558 H 0.30168 0.70443 0.97593 0.0
C559 C 0.3244 0.75072 0.97387 0.0
C560 C 0.3206 0.76432 -0.00245 0.0
C561 C 0.31251 0.73801 0.96743 0.0
C562 C 0.28856 0.70818 0.97375 0.0
H563 H 0.20707 0.68073 0.92405 0.0
H564 H 0.22983 0.70134 0.9257 0.0
H565 H 0.28051 0.6827 0.96502 0.0
H566 H 0.30151 0.77498 0.0338 0.0
H567 H 0.28102 0.75264 0.02344 0.0
H568 H 0.26246 0.74247 0.97709 0.0
C569 C 0.23136 0.68967 0.94095 0.0
C570 C 0.27639 0.69568 0.96795 0.0
C571 C 0.21834 0.6778 0.9398 0.0
C572 C 0.30478 0.76477 0.01512 0.0
C573 C 0.29298 0.752 0.00897 0.0
C574 C 0.26659 0.72946 0.97492 0.0
C575 C 0.24603 0.6866 0.96191 0.0
C576 C 0.25915 0.6999 0.96606 0.0
C577 C 0.29662 0.73854 0.98477 0.0
C578 C 0.28379 0.72522 0.97757 0.0
H579 H 0.23618 0.64742 -0.00579 0.0
H580 H 0.25866 0.6683 -0.00287 0.0
H581 H 0.24128 0.72071 0.96869 0.0
H582 H 0.33645 0.75004 0.95976 0.0
H583 H 0.31567 0.72795 0.94829 0.0
C584 C 0.82919 0.73364 0.49432 0.0
C585 C 0.82544 0.71964 0.47181 0.0
C586 C 0.81726 0.74643 0.49968 0.0
C587 C 0.77126 0.75437 0.49267 0.0
H588 H 0.78459 0.80127 0.50245 0.0
C589 C 0.73833 0.82453 0.49484 0.0
C590 C 0.72397 0.8208 0.51617 0.0
C591 C 0.7513 0.81267 0.49098 0.0
C592 C 0.78063 0.78825 0.4995 0.0
H593 H 0.80646 0.70839 0.43617 0.0
H594 H 0.78587 0.73091 0.44461 0.0
H595 H 0.80594 0.77982 0.48999 0.0
H596 H 0.71236 0.80204 0.55167 0.0
H597 H 0.73518 0.7816 0.54592 0.0
H598 H 0.74591 0.7628 0.50066 0.0
C599 C 0.79783 0.7318 0.45903 0.0
C600 C 0.79291 0.77591 0.4928 0.0
C601 C 0.80968 0.71893 0.45399 0.0
C602 C 0.72316 0.80523 0.5347 0.0
C603 C 0.73621 0.79346 0.53118 0.0
C604 C 0.75899 0.7667 0.49904 0.0
C605 C 0.80137 0.7456 0.48237 0.0
C606 C 0.78837 0.75881 0.48927 0.0
C607 C 0.75029 0.79688 0.50869 0.0
C608 C 0.7635 0.7838 0.50259 0.0
H609 H 0.84119 0.73453 0.5086 0.0
H610 H 0.82035 0.75675 0.51819 0.0
H611 H 0.76731 0.74131 0.49072 0.0
H612 H 0.7393 0.83639 0.48007 0.0
H613 H 0.76185 0.81569 0.47311 0.0
C614 C 0.24997 0.82912 0.50767 0.0
C615 C 0.26683 0.82366 0.50482 0.0
C616 C 0.23694 0.81742 0.51247 0.0
C617 C 0.22839 0.77457 0.54582 0.0
H618 H 0.18971 0.77589 0.47995 0.0
C619 C 0.18363 0.71803 0.52978 0.0
C620 C 0.16638 0.72101 0.52331 0.0
C621 C 0.19507 0.7314 0.53062 0.0
C622 C 0.20025 0.7755 0.49907 0.0
H623 H 0.28325 0.80168 0.50531 0.0
H624 H 0.26054 0.78134 0.51407 0.0
H625 H 0.21115 0.79791 0.47602 0.0
H626 H 0.14756 0.74046 0.51363 0.0
H627 H 0.16751 0.76387 0.51598 0.0
H628 H 0.21756 0.75226 0.56907 0.0
C629 C 0.25742 0.79465 0.51257 0.0
C630 C 0.21254 0.78809 0.4967 0.0
C631 C 0.2704 0.8063 0.5073 0.0
C632 C 0.16079 0.73772 0.51844 0.0
C633 C 0.17224 0.75114 0.51959 0.0
C634 C 0.21602 0.76208 0.54848 0.0
C635 C 0.24057 0.80008 0.51507 0.0
C636 C 0.22687 0.78757 0.5196 0.0
C637 C 0.18955 0.74812 0.52536 0.0
C638 C 0.20195 0.76221 0.52467 0.0
H639 H 0.24681 0.84241 0.50582 0.0
H640 H 0.22405 0.82192 0.51447 0.0
H641 H 0.2392 0.77402 0.56419 0.0
H642 H 0.18839 0.7053 0.53342 0.0
H643 H 0.20834 0.72855 0.53444 0.0
C644 C 0.25096 0.16413 0.46819 0.0
C645 C 0.26516 0.16804 0.48994 0.0
C646 C 0.23806 0.176 0.46327 0.0
C647 C 0.22956 0.222 0.47158 0.0
H648 H 0.18272 0.20801 0.46674 0.0
C649 C 0.15908 0.25371 0.48228 0.0
C650 C 0.16204 0.26867 0.46242 0.0
C651 C 0.17116 0.24082 0.48282 0.0
C652 C 0.19572 0.21216 0.4683 0.0
H653 H 0.27671 0.18726 0.52447 0.0
H654 H 0.25405 0.20769 0.51692 0.0
H655 H 0.20474 0.18687 0.47534 0.0
H656 H 0.17959 0.28148 0.42595 0.0
H657 H 0.20038 0.25881 0.4258 0.0
H658 H 0.22058 0.24731 0.46639 0.0
C659 C 0.25306 0.19569 0.50266 0.0
C660 C 0.20839 0.2 0.47274 0.0
C661 C 0.26603 0.18392 0.50722 0.0
C662 C 0.17702 0.27019 0.44189 0.0
C663 C 0.18899 0.25722 0.44202 0.0
C664 C 0.21691 0.23415 0.46753 0.0
C665 C 0.23899 0.19197 0.48031 0.0
C666 C 0.22546 0.20478 0.47467 0.0
C667 C 0.18639 0.24252 0.46312 0.0
C668 C 0.19982 0.22941 0.46596 0.0
H669 H 0.24996 0.15203 0.45435 0.0
H670 H 0.22752 0.17276 0.4455 0.0
H671 H 0.24257 0.22615 0.47228 0.0
H672 H 0.14768 0.25219 0.49851 0.0
H673 H 0.16878 0.2298 0.49975 0.0
C674 C 0.82443 0.25121 0.49436 0.0
C675 C 0.82101 0.26577 0.51538 0.0
C676 C 0.8125 0.23828 0.49166 0.0
C677 C 0.7667 0.23065 0.50271 0.0
H678 H 0.78004 0.18361 0.49598 0.0
C679 C 0.73419 0.16012 0.50116 0.0
C680 C 0.72031 0.16352 0.47803 0.0
C681 C 0.74676 0.17225 0.50655 0.0
C682 C 0.77608 0.19666 0.49819 0.0
H683 H 0.80263 0.27789 0.5512 0.0
H684 H 0.78203 0.25518 0.54731 0.0
H685 H 0.80144 0.20518 0.50623 0.0
H686 H 0.709 0.18217 0.44161 0.0
H687 H 0.73109 0.2031 0.4502 0.0
H688 H 0.74132 0.22215 0.49582 0.0
C689 C 0.79374 0.25392 0.53206 0.0
C690 C 0.78838 0.20907 0.5036 0.0
C691 C 0.8056 0.26691 0.53448 0.0
C692 C 0.71944 0.1792 0.45989 0.0
C693 C 0.73207 0.19125 0.46502 0.0
C694 C 0.75441 0.21826 0.49758 0.0
C695 C 0.79693 0.23955 0.51018 0.0
C696 C 0.78385 0.22623 0.50571 0.0
C697 C 0.74581 0.18801 0.4887 0.0
C698 C 0.75894 0.20112 0.49497 0.0
H699 H 0.83617 0.24996 0.47918 0.0
H700 H 0.81531 0.22751 0.47418 0.0
H701 H 0.76275 0.24375 0.50369 0.0
H702 H 0.7352 0.14819 0.51568 0.0
H703 H 0.75705 0.1694 0.52533 0.0
C704 C 0.10599 0.32496 0.34824 0.0
C705 C 0.11127 0.33113 0.38284 0.0
C706 C 0.10946 0.33401 0.31597 0.0
C707 C 0.14188 0.36074 0.27955 0.0
H708 H 0.11145 0.36767 0.19677 0.0
C709 C 0.16767 0.38318 0.1399 0.0
C710 C 0.1611 0.37499 0.10858 0.0
C711 C 0.15953 0.38182 0.17408 0.0
C712 C 0.12014 0.36572 0.21953 0.0
H713 H 0.12355 0.352 0.41107 0.0
H714 H 0.12993 0.36761 0.35448 0.0
H715 H 0.10034 0.35757 0.25588 0.0
H716 H 0.14064 0.35944 0.08793 0.0
H717 H 0.12691 0.35635 0.14764 0.0
H718 H 0.16186 0.36765 0.24316 0.0
C719 C 0.12305 0.35582 0.35246 0.0
C720 C 0.11374 0.36006 0.25337 0.0
C721 C 0.11937 0.3469 0.38477 0.0
C722 C 0.14596 0.36592 0.11167 0.0
C723 C 0.13801 0.36428 0.14594 0.0
C724 C 0.14833 0.36611 0.24564 0.0
C725 C 0.11844 0.34927 0.31777 0.0
C726 C 0.12462 0.35726 0.28343 0.0
C727 C 0.14487 0.37194 0.17777 0.0
C728 C 0.1376 0.36835 0.21494 0.0
H729 H 0.09965 0.31288 0.34601 0.0
H730 H 0.1059 0.32865 0.28946 0.0
H731 H 0.15056 0.35845 0.30221 0.0
H732 H 0.17922 0.39044 0.1381 0.0
H733 H 0.16497 0.38823 0.19774 0.0
C734 C 0.68155 0.11525 0.33536 0.0
C735 C 0.6705 0.11318 0.36541 0.0
C736 C 0.67528 0.11951 0.30047 0.0
C737 C 0.63702 0.12161 0.24252 0.0
H738 H 0.65887 0.16093 0.20018 0.0
C739 C 0.62249 0.14922 0.09676 0.0
C740 C 0.62127 0.16692 0.09466 0.0
C741 C 0.62739 0.14143 0.12976 0.0
C742 C 0.65261 0.14999 0.21176 0.0
H743 H 0.64417 0.11283 0.38208 0.0
H744 H 0.63324 0.12025 0.321 0.0
H745 H 0.67017 0.14837 0.25659 0.0
H746 H 0.62347 0.19027 0.1258 0.0
H747 H 0.63212 0.17664 0.18332 0.0
H748 H 0.61934 0.12342 0.19761 0.0
C749 C 0.64673 0.1186 0.32447 0.0
C750 C 0.6592 0.14267 0.24374 0.0
C751 C 0.653 0.11445 0.35944 0.0
C752 C 0.62439 0.17662 0.12651 0.0
C753 C 0.62942 0.16884 0.15936 0.0
C754 C 0.63052 0.12885 0.21019 0.0
C755 C 0.65784 0.12165 0.29495 0.0
C756 C 0.6514 0.1285 0.25959 0.0
C757 C 0.63128 0.15122 0.16107 0.0
C758 C 0.63816 0.14322 0.19482 0.0
H759 H 0.69508 0.11423 0.33906 0.0
H760 H 0.68409 0.12158 0.278 0.0
H761 H 0.6308 0.11066 0.2542 0.0
H762 H 0.62009 0.14142 0.07265 0.0
H763 H 0.62878 0.12781 0.13038 0.0
C764 C 0.87447 0.64655 0.36347 0.0
C765 C 0.87538 0.66424 0.36594 0.0
C766 C 0.87103 0.63874 0.32962 0.0
C767 C 0.86821 0.6463 0.22823 0.0
H768 H 0.83371 0.61164 0.23266 0.0
C769 C 0.84022 0.61743 0.0956 0.0
C770 C 0.82251 0.61631 0.09495 0.0
C771 C 0.84872 0.62052 0.1288 0.0
C772 C 0.84335 0.6213 0.23096 0.0
H773 H 0.87425 0.68759 0.33468 0.0
H774 H 0.8679 0.67401 0.27578 0.0
H775 H 0.84552 0.62287 0.28983 0.0
H776 H 0.79987 0.61684 0.12868 0.0
H777 H 0.81465 0.62255 0.18648 0.0
H778 H 0.86535 0.64541 0.1694 0.0
C779 C 0.87006 0.66612 0.29982 0.0
C780 C 0.85029 0.62759 0.26371 0.0
C781 C 0.87359 0.67393 0.33363 0.0
C782 C 0.81352 0.61766 0.12832 0.0
C783 C 0.82202 0.62082 0.16149 0.0
C784 C 0.86122 0.64006 0.19547 0.0
C785 C 0.86836 0.64846 0.2976 0.0
C786 C 0.86254 0.64042 0.26274 0.0
C787 C 0.83969 0.62259 0.16199 0.0
C788 C 0.84846 0.62774 0.19651 0.0
H789 H 0.87597 0.63874 0.38787 0.0
H790 H 0.87011 0.62509 0.3287 0.0
H791 H 0.87779 0.65602 0.22654 0.0
H792 H 0.8475 0.6163 0.07033 0.0
H793 H 0.86236 0.62154 0.12837 0.0
C794 C 0.33754 0.86562 0.38361 0.0
C795 C 0.31994 0.86741 0.38682 0.0
C796 C 0.34472 0.86003 0.35045 0.0
C797 C 0.33432 0.83433 0.26985 0.0
H798 H 0.37394 0.8545 0.22494 0.0
C799 C 0.36703 0.80371 0.14501 0.0
C800 C 0.36953 0.81463 0.1149 0.0
C801 C 0.36302 0.8102 0.17989 0.0
C802 C 0.36289 0.84875 0.23729 0.0
H803 H 0.29611 0.86543 0.35747 0.0
H804 H 0.30866 0.85561 0.29962 0.0
H805 H 0.36218 0.86672 0.28175 0.0
H806 H 0.37081 0.8409 0.09807 0.0
H807 H 0.36384 0.85221 0.15902 0.0
H808 H 0.33484 0.81651 0.22535 0.0
C809 C 0.31686 0.85838 0.32287 0.0
C810 C 0.35623 0.85567 0.26978 0.0
C811 C 0.3097 0.86409 0.35589 0.0
C812 C 0.36885 0.83218 0.12073 0.0
C813 C 0.36496 0.83866 0.15566 0.0
C814 C 0.34106 0.82733 0.23765 0.0
C815 C 0.3344 0.85601 0.32007 0.0
C816 C 0.34177 0.84863 0.28608 0.0
C817 C 0.3616 0.82772 0.18532 0.0
C818 C 0.35532 0.83454 0.22089 0.0
H819 H 0.34575 0.86813 0.40699 0.0
H820 H 0.35827 0.85825 0.34903 0.0
H821 H 0.32329 0.82852 0.28214 0.0
H822 H 0.36757 0.79011 0.14137 0.0
H823 H 0.36068 0.80151 0.20246 0.0
C824 C 0.10376 0.66654 0.63442 0.0
C825 C 0.11249 0.6605 0.60331 0.0
C826 C 0.10512 0.65823 0.66838 0.0
C827 C 0.12263 0.61934 0.71371 0.0
H828 H 0.12812 0.64984 0.79695 0.0
C829 C 0.16334 0.60657 0.84339 0.0
C830 C 0.15689 0.61171 0.87783 0.0
C831 C 0.15424 0.60965 0.81093 0.0
C832 C 0.12633 0.64112 0.77413 0.0
H833 H 0.12897 0.64074 0.5827 0.0
H834 H 0.13208 0.62671 0.64213 0.0
H835 H 0.11874 0.66089 0.7378 0.0
H836 H 0.13549 0.62328 0.90564 0.0
H837 H 0.11979 0.62897 0.84877 0.0
H838 H 0.13146 0.59979 0.75006 0.0
C839 C 0.12373 0.63752 0.6404 0.0
C840 C 0.12086 0.64743 0.74015 0.0
C841 C 0.12207 0.64564 0.6063 0.0
C842 C 0.14082 0.61924 0.87945 0.0
C843 C 0.13183 0.62251 0.84698 0.0
C844 C 0.12839 0.61308 0.74764 0.0
C845 C 0.11557 0.64392 0.67209 0.0
C846 C 0.11925 0.63669 0.70926 0.0
C847 C 0.13865 0.61809 0.81242 0.0
C848 C 0.13055 0.624 0.77792 0.0
H849 H 0.09609 0.67786 0.63266 0.0
H850 H 0.0983 0.66328 0.69191 0.0
H851 H 0.12121 0.61063 0.69077 0.0
H852 H 0.17565 0.60065 0.84138 0.0
H853 H 0.15981 0.60625 0.78455 0.0
C854 C 0.30917 0.12469 0.63347 0.0
C855 C 0.31922 0.12177 0.60206 0.0
C856 C 0.31658 0.12955 0.66689 0.0
C857 C 0.35638 0.13075 0.71919 0.0
H858 H 0.33622 0.17004 0.76602 0.0
C859 C 0.37214 0.15404 0.86742 0.0
C860 C 0.37326 0.17159 0.87283 0.0
C861 C 0.3674 0.14751 0.83302 0.0
C862 C 0.34207 0.15915 0.75309 0.0
H863 H 0.34494 0.12079 0.5814 0.0
H864 H 0.35787 0.1292 0.64 0.0
H865 H 0.32372 0.15858 0.70964 0.0
H866 H 0.37121 0.19602 0.846 0.0
H867 H 0.36287 0.18457 0.78592 0.0
H868 H 0.37473 0.13136 0.7629 0.0
C869 C 0.34428 0.12777 0.63868 0.0
C870 C 0.33479 0.15247 0.72112 0.0
C871 C 0.33687 0.12303 0.60516 0.0
C872 C 0.37036 0.18245 0.84273 0.0
C873 C 0.3655 0.17591 0.80842 0.0
C874 C 0.36358 0.13735 0.75147 0.0
C875 C 0.33417 0.13145 0.66959 0.0
C876 C 0.34185 0.1382 0.7039 0.0
C877 C 0.36361 0.15841 0.80351 0.0
C878 C 0.3565 0.15164 0.76864 0.0
H879 H 0.29556 0.12374 0.63196 0.0
H880 H 0.30852 0.1321 0.6905 0.0
H881 H 0.36203 0.11972 0.70645 0.0
H882 H 0.37438 0.14537 0.89009 0.0
H883 H 0.36596 0.13397 0.83002 0.0
C884 C 0.8442 0.37314 0.88015 0.0
C885 C 0.82654 0.37493 0.88026 0.0
C886 C 0.85281 0.3701 0.84705 0.0
C887 C 0.86474 0.35039 0.77993 0.0
H888 H 0.84914 0.3679 0.68568 0.0
C889 C 0.8726 0.31419 0.64344 0.0
C890 C 0.87398 0.3232 0.61013 0.0
C891 C 0.87052 0.32276 0.67695 0.0
C892 C 0.85394 0.36309 0.71171 0.0
H893 H 0.80414 0.37573 0.8457 0.0
H894 H 0.81905 0.37008 0.78822 0.0
H895 H 0.83857 0.38018 0.74286 0.0
H896 H 0.87545 0.34822 0.58592 0.0
H897 H 0.87221 0.3632 0.64453 0.0
H898 H 0.8801 0.33327 0.74875 0.0
C899 C 0.82634 0.37126 0.81349 0.0
C900 C 0.84769 0.37 0.74452 0.0
C901 C 0.81775 0.37438 0.84651 0.0
C902 C 0.8742 0.34094 0.61116 0.0
C903 C 0.87227 0.34952 0.6447 0.0
C904 C 0.8711 0.34356 0.74709 0.0
C905 C 0.84393 0.36875 0.81345 0.0
C906 C 0.8526 0.36337 0.77897 0.0
C907 C 0.86994 0.34052 0.67785 0.0
C908 C 0.86536 0.34947 0.7126 0.0
H909 H 0.85132 0.37365 0.90575 0.0
H910 H 0.86639 0.36848 0.84786 0.0
H911 H 0.86874 0.34491 0.80598 0.0
H912 H 0.87241 0.30051 0.6435 0.0
H913 H 0.86855 0.31541 0.70185 0.0
C914 C 0.60698 0.82179 0.84833 0.0
C915 C 0.61187 0.82849 0.88274 0.0
C916 C 0.61073 0.83043 0.81563 0.0
C917 C 0.64334 0.85687 0.7791 0.0
H918 H 0.61351 0.86352 0.69517 0.0
C919 C 0.66988 0.8801 0.64072 0.0
C920 C 0.66355 0.87216 0.60888 0.0
C921 C 0.6616 0.87832 0.67463 0.0
C922 C 0.62204 0.86163 0.71824 0.0
H923 H 0.62372 0.84983 0.91015 0.0
H924 H 0.63056 0.86469 0.85291 0.0
H925 H 0.60199 0.85349 0.75396 0.0
H926 H 0.6434 0.85654 0.58704 0.0
H927 H 0.62943 0.8527 0.64629 0.0
H928 H 0.66356 0.86381 0.74341 0.0
C929 C 0.62379 0.85283 0.85133 0.0
C930 C 0.6154 0.856 0.75189 0.0
C931 C 0.61984 0.84433 0.88401 0.0
C932 C 0.64853 0.86285 0.6112 0.0
C933 C 0.64044 0.86077 0.64521 0.0
C934 C 0.65002 0.86218 0.74539 0.0
C935 C 0.61959 0.84577 0.81688 0.0
C936 C 0.62605 0.85338 0.78241 0.0
C937 C 0.64702 0.86824 0.67752 0.0
C938 C 0.63952 0.86439 0.71431 0.0
H939 H 0.60075 0.80965 0.84659 0.0
H940 H 0.60747 0.8247 0.78931 0.0
H941 H 0.65184 0.8547 0.80215 0.0
H942 H 0.68134 0.88754 0.63951 0.0
H943 H 0.66682 0.88461 0.69868 0.0
C944 C 0.84561 0.64122 0.58652 0.0
C945 C 0.85647 0.65459 0.57723 0.0
C946 C 0.84352 0.63639 0.62338 0.0
C947 C 0.86186 0.64038 0.71736 0.0
H948 H 0.81552 0.63377 0.74883 0.0
C949 C 0.84087 0.64356 0.86997 0.0
C950 C 0.82835 0.63227 0.88206 0.0
C951 C 0.84547 0.64421 0.8327 0.0
C952 C 0.82855 0.63528 0.74041 0.0
H953 H 0.8741 0.673 0.59931 0.0
H954 H 0.87023 0.66473 0.66376 0.0
H955 H 0.82163 0.6386 0.68369 0.0
H956 H 0.81121 0.61242 0.86458 0.0
H957 H 0.81931 0.61353 0.79946 0.0
H958 H 0.86869 0.63743 0.7744 0.0
C959 C 0.86349 0.65785 0.64245 0.0
C960 C 0.83206 0.63805 0.70306 0.0
C961 C 0.86563 0.66265 0.60553 0.0
C962 C 0.82082 0.62134 0.85616 0.0
C963 C 0.82541 0.62201 0.81885 0.0
C964 C 0.85834 0.63762 0.75479 0.0
C965 C 0.85219 0.64486 0.65181 0.0
C966 C 0.84873 0.64081 0.69117 0.0
C967 C 0.83764 0.63358 0.80667 0.0
C968 C 0.84162 0.63524 0.76673 0.0
H969 H 0.83848 0.63461 0.56538 0.0
H970 H 0.83494 0.62614 0.62966 0.0
H971 H 0.87485 0.64223 0.70895 0.0
H972 H 0.84695 0.65214 0.88918 0.0
H973 H 0.85479 0.6534 0.8241 0.0
C974 C 0.32308 0.87239 0.62775 0.0
C975 C 0.33117 0.86148 0.60262 0.0
C976 C 0.32744 0.87222 0.66526 0.0
C977 C 0.35975 0.85709 0.73211 0.0
H978 H 0.32159 0.85367 0.79889 0.0
C979 C 0.36389 0.82664 0.87669 0.0
C980 C 0.35396 0.8334 0.90537 0.0
C981 C 0.36265 0.83307 0.84077 0.0
C982 C 0.33242 0.85494 0.7808 0.0
H983 H 0.35078 0.84244 0.5969 0.0
H984 H 0.3582 0.84201 0.6622 0.0
H985 H 0.31676 0.86001 0.73389 0.0
H986 H 0.33553 0.85274 0.91918 0.0
H987 H 0.3335 0.86402 0.85663 0.0
H988 H 0.37535 0.8515 0.77902 0.0
C989 C 0.34859 0.85081 0.65295 0.0
C990 C 0.32965 0.85859 0.74351 0.0
C991 C 0.34423 0.85096 0.61551 0.0
C992 C 0.34324 0.84712 0.89765 0.0
C993 C 0.34203 0.85356 0.86179 0.0
C994 C 0.36252 0.85344 0.76947 0.0
C995 C 0.34001 0.86117 0.67835 0.0
C996 C 0.34325 0.85938 0.71861 0.0
C997 C 0.35149 0.84641 0.83282 0.0
C998 C 0.34885 0.85201 0.79406 0.0
H999 H 0.31305 0.88074 0.61869 0.0
H1000 H 0.32076 0.88051 0.68413 0.0
H1001 H 0.3705 0.85786 0.71365 0.0
H1002 H 0.3723 0.81608 0.8817 0.0
H1003 H 0.36997 0.82715 0.81898 0.0
C1004 C 0.12363 0.31744 0.61862 0.0
C1005 C 0.13344 0.3263 0.59268 0.0
C1006 C 0.12547 0.32056 0.65652 0.0
C1007 C 0.14137 0.35204 0.72337 0.0
H1008 H 0.1453 0.31363 0.78941 0.0
C1009 C 0.16674 0.35801 0.87247 0.0
C1010 C 0.15908 0.34818 0.90015 0.0
C1011 C 0.16238 0.35579 0.8353 0.0
C1012 C 0.14398 0.32451 0.77146 0.0
H1013 H 0.15268 0.34559 0.58623 0.0
H1014 H 0.1559 0.35094 0.65223 0.0
H1015 H 0.13963 0.30899 0.72383 0.0
H1016 H 0.14057 0.32853 0.91048 0.0
H1017 H 0.13285 0.32484 0.84568 0.0
H1018 H 0.14584 0.36756 0.77093 0.0
C1019 C 0.1467 0.34169 0.64326 0.0
C1020 C 0.14073 0.32184 0.73389 0.0
C1021 C 0.14492 0.33853 0.60543 0.0
C1022 C 0.1468 0.33625 0.88985 0.0
C1023 C 0.14242 0.33407 0.85269 0.0
C1024 C 0.14458 0.35472 0.76096 0.0
C1025 C 0.13708 0.33266 0.66921 0.0
C1026 C 0.13956 0.33557 0.7094 0.0
C1027 C 0.15024 0.34373 0.82498 0.0
C1028 C 0.14607 0.34097 0.78536 0.0
H1029 H 0.11463 0.30797 0.60973 0.0
H1030 H 0.11776 0.31354 0.67589 0.0
H1031 H 0.14029 0.36288 0.70523 0.0
H1032 H 0.17628 0.36728 0.87942 0.0
H1033 H 0.16881 0.36328 0.81457 0.0
C1034 C 0.63976 0.14507 0.86603 0.0
C1035 C 0.62958 0.15838 0.879 0.0
C1036 C 0.6396 0.14056 0.82867 0.0
C1037 C 0.63124 0.15871 0.73745 0.0
H1038 H 0.63617 0.11231 0.70438 0.0
C1039 C 0.65974 0.12158 0.60416 0.0
C1040 C 0.65279 0.13126 0.57532 0.0
C1041 C 0.65398 0.12356 0.64046 0.0
C1042 C 0.63483 0.12533 0.71323 0.0
H1043 H 0.61078 0.177 0.8631 0.0
H1044 H 0.61047 0.16904 0.79776 0.0
H1045 H 0.63108 0.11825 0.76985 0.0
H1046 H 0.63376 0.15006 0.56174 0.0
H1047 H 0.62366 0.15339 0.62503 0.0
H1048 H 0.63545 0.16585 0.68116 0.0
C1049 C 0.61871 0.16224 0.81653 0.0
C1050 C 0.63191 0.12872 0.75067 0.0
C1051 C 0.61885 0.16675 0.85396 0.0
C1052 C 0.63951 0.1425 0.58335 0.0
C1053 C 0.63375 0.14447 0.61963 0.0
C1054 C 0.63415 0.15531 0.70006 0.0
C1055 C 0.62926 0.14925 0.80342 0.0
C1056 C 0.63041 0.14547 0.76327 0.0
C1057 C 0.64113 0.13524 0.64867 0.0
C1058 C 0.6363 0.13861 0.68766 0.0
H1059 H 0.64815 0.13832 0.88455 0.0
H1060 H 0.64804 0.13065 0.81938 0.0
H1061 H 0.63039 0.17175 0.74634 0.0
H1062 H 0.66997 0.11279 0.59893 0.0
H1063 H 0.66006 0.1164 0.66229 0.0
C1064 C 0.83841 0.34213 0.39068 0.0
C1065 C 0.85008 0.32949 0.40049 0.0
C1066 C 0.83657 0.34706 0.3538 0.0
C1067 C 0.85753 0.34585 0.26241 0.0
H1068 H 0.8119 0.35067 0.22478 0.0
C1069 C 0.84158 0.34567 0.10677 0.0
C1070 C 0.82879 0.35655 0.09407 0.0
C1071 C 0.84498 0.34421 0.14455 0.0
C1072 C 0.82472 0.34965 0.23497 0.0
H1073 H 0.86917 0.31233 0.37924 0.0
H1074 H 0.86578 0.32081 0.31479 0.0
H1075 H 0.81638 0.34461 0.29015 0.0
H1076 H 0.80987 0.37484 0.11112 0.0
H1077 H 0.8159 0.37235 0.17717 0.0
H1078 H 0.86584 0.35062 0.20698 0.0
C1079 C 0.85821 0.32704 0.33573 0.0
C1080 C 0.8273 0.34616 0.27243 0.0
C1081 C 0.86007 0.3221 0.37265 0.0
C1082 C 0.81975 0.36627 0.11997 0.0
C1083 C 0.82315 0.3648 0.15782 0.0
C1084 C 0.85496 0.34934 0.22491 0.0
C1085 C 0.84633 0.33947 0.32588 0.0
C1086 C 0.84372 0.34405 0.28648 0.0
C1087 C 0.83567 0.35361 0.17052 0.0
C1088 C 0.83852 0.3511 0.21073 0.0
H1089 H 0.83059 0.34816 0.41145 0.0
H1090 H 0.82748 0.35683 0.34714 0.0
H1091 H 0.87035 0.34455 0.27255 0.0
H1092 H 0.84881 0.338 0.08759 0.0
H1093 H 0.85457 0.33533 0.15348 0.0
C1094 C 0.64588 0.84014 0.10256 0.0
C1095 C 0.63466 0.82732 0.09159 0.0
C1096 C 0.64826 0.84382 0.13998 0.0
C1097 C 0.65945 0.84078 0.21959 0.0
H1098 H 0.62241 0.84122 0.28982 0.0
C1099 C 0.66899 0.85997 0.3719 0.0
C1100 C 0.66146 0.84945 0.39851 0.0
C1101 C 0.66489 0.85829 0.33446 0.0
C1102 C 0.63288 0.84103 0.27053 0.0
H1103 H 0.61688 0.80856 0.11137 0.0
H1104 H 0.62125 0.81484 0.17684 0.0
H1105 H 0.61665 0.83641 0.22416 0.0
H1106 H 0.64343 0.82916 0.40668 0.0
H1107 H 0.6364 0.82618 0.34132 0.0
H1108 H 0.67569 0.84529 0.26586 0.0
C1109 C 0.62804 0.82217 0.1564 0.0
C1110 C 0.62959 0.83825 0.23298 0.0
C1111 C 0.62561 0.81851 0.11889 0.0
C1112 C 0.64949 0.83746 0.38692 0.0
C1113 C 0.64536 0.83581 0.34949 0.0
C1114 C 0.66273 0.84358 0.25705 0.0
C1115 C 0.63953 0.83475 0.16734 0.0
C1116 C 0.64285 0.83805 0.20713 0.0
C1117 C 0.65315 0.84609 0.32284 0.0
C1118 C 0.64949 0.84368 0.28293 0.0
H1119 H 0.65295 0.84728 0.08226 0.0
H1120 H 0.65697 0.85379 0.14749 0.0
H1121 H 0.66998 0.84039 0.20049 0.0
H1122 H 0.67821 0.8694 0.37989 0.0
H1123 H 0.67094 0.86654 0.31457 0.0
C1124 C 0.15131 0.64799 0.38453 0.0
C1125 C 0.13973 0.66055 0.3953 0.0
C1126 C 0.15346 0.64393 0.3472 0.0
C1127 C 0.13307 0.6475 0.25544 0.0
H1128 H 0.17866 0.64106 0.21877 0.0
C1129 C 0.14946 0.64696 0.09995 0.0
C1130 C 0.16139 0.63507 0.08752 0.0
C1131 C 0.14629 0.64897 0.13771 0.0
C1132 C 0.16584 0.64259 0.22869 0.0
H1133 H 0.12123 0.67862 0.37521 0.0
H1134 H 0.12517 0.67169 0.31 0.0
H1135 H 0.17409 0.64675 0.28435 0.0
H1136 H 0.17917 0.61577 0.1051 0.0
H1137 H 0.17357 0.61929 0.17112 0.0
H1138 H 0.12486 0.64356 0.19958 0.0
C1139 C 0.13241 0.66481 0.33052 0.0
C1140 C 0.16322 0.64585 0.26625 0.0
C1141 C 0.13023 0.66885 0.36789 0.0
C1142 C 0.16994 0.62508 0.11373 0.0
C1143 C 0.1668 0.62714 0.15155 0.0
C1144 C 0.1357 0.64427 0.21784 0.0
C1145 C 0.14411 0.65237 0.31976 0.0
C1146 C 0.14681 0.64843 0.28001 0.0
C1147 C 0.15501 0.63918 0.16392 0.0
C1148 C 0.15212 0.64188 0.20405 0.0
H1149 H 0.15876 0.64127 0.40493 0.0
H1150 H 0.16239 0.63411 0.33984 0.0
H1151 H 0.12026 0.64916 0.2653 0.0
H1152 H 0.14264 0.65487 0.08054 0.0
H1153 H 0.13728 0.65849 0.14642 0.0
C1154 C 0.32311 0.12077 0.36243 0.0
C1155 C 0.33024 0.13217 0.38788 0.0
C1156 C 0.32807 0.12094 0.32531 0.0
C1157 C 0.36104 0.13657 0.26112 0.0
H1158 H 0.32446 0.13674 0.18968 0.0
C1159 C 0.36752 0.16302 0.11306 0.0
C1160 C 0.35844 0.15515 0.08439 0.0
C1161 C 0.36572 0.15757 0.14964 0.0
C1162 C 0.33488 0.13639 0.20913 0.0
H1163 H 0.34861 0.15229 0.39452 0.0
H1164 H 0.35706 0.15271 0.32976 0.0
H1165 H 0.31833 0.13179 0.25472 0.0
H1166 H 0.34106 0.13479 0.07138 0.0
H1167 H 0.33811 0.12521 0.13509 0.0
H1168 H 0.37753 0.14159 0.21545 0.0
C1169 C 0.34778 0.14352 0.33856 0.0
C1170 C 0.33135 0.13355 0.24644 0.0
C1171 C 0.34283 0.14336 0.37564 0.0
C1172 C 0.3481 0.14126 0.09286 0.0
C1173 C 0.34635 0.13579 0.12938 0.0
C1174 C 0.36458 0.1394 0.22372 0.0
C1175 C 0.34026 0.1325 0.31288 0.0
C1176 C 0.34435 0.13387 0.27293 0.0
C1177 C 0.35486 0.14412 0.15826 0.0
C1178 C 0.35149 0.13959 0.19742 0.0
H1179 H 0.31347 0.11191 0.37098 0.0
H1180 H 0.32221 0.11215 0.30623 0.0
H1181 H 0.37135 0.13666 0.28086 0.0
H1182 H 0.37561 0.17374 0.10748 0.0
H1183 H 0.37233 0.16436 0.1713 0.0
loop_
_geom_bond_atom_site_label_1
_geom_bond_atom_site_label_2
_geom_bond_distance
_geom_bond_site_symmetry_2
_ccdc_geom_bond_type
C0 O1 1.306 . S
C0 O3 1.160 . S
O1 C0 1.306 . S
O1 Cd2 2.228 1_556 S
Cd2 O1 2.228 1_554 S
Cd2 O6 2.273 . S
Cd2 O10 2.277 . S
O3 C0 1.160 . S
O3 Cd4 2.203 1_556 S
Cd4 O3 2.203 1_554 S
Cd4 O6 2.411 . S
Cd4 O7 2.333 . S
Cd4 O8 2.351 1_554 S
Cd4 O12 2.277 1_554 S
Cd4 O13 2.356 . S
C5 O10 1.210 . S
C5 O12 1.226 1_554 S
O6 Cd2 2.273 . S
O6 Cd4 2.411 . S
O6 C9 1.320 . S
O7 Cd4 2.333 . S
O7 C9 1.214 . S
O8 Cd4 2.351 1_556 S
O8 C11 1.257 1_556 S
C9 O6 1.320 . S
C9 O7 1.214 . S
O10 Cd2 2.277 . S
O10 C5 1.210 . S
C11 O8 1.257 1_554 S
C11 O13 1.282 . S
O12 Cd4 2.277 1_556 S
O12 C5 1.226 1_556 S
O13 Cd4 2.356 . S
O13 C11 1.282 . S
C14 O15 1.306 . S
C14 O17 1.160 . S
O15 C14 1.306 . S
O15 Cd16 2.228 1_556 S
Cd16 O15 2.228 1_554 S
Cd16 O20 2.273 . S
Cd16 O24 2.277 . S
O17 C14 1.160 . S
O17 Cd18 2.203 1_556 S
Cd18 O17 2.203 1_554 S
Cd18 O20 2.411 . S
Cd18 O21 2.333 . S
Cd18 O22 2.351 1_554 S
Cd18 O26 2.277 1_554 S
Cd18 O27 2.356 . S
C19 O24 1.210 . S
C19 O26 1.226 1_554 S
O20 Cd16 2.273 . S
O20 Cd18 2.411 . S
O20 C23 1.320 . S
O21 Cd18 2.333 . S
O21 C23 1.214 . S
O22 Cd18 2.351 1_556 S
O22 C25 1.257 1_556 S
C23 O20 1.320 . S
C23 O21 1.214 . S
O24 Cd16 2.277 . S
O24 C19 1.210 . S
C25 O22 1.257 1_554 S
C25 O27 1.282 . S
O26 Cd18 2.277 1_556 S
O26 C19 1.226 1_556 S
O27 Cd18 2.356 . S
O27 C25 1.282 . S
C28 O29 1.306 . S
C28 O31 1.160 . S
O29 C28 1.306 . S
O29 Cd30 2.228 1_556 S
Cd30 O29 2.228 1_554 S
Cd30 O34 2.273 . S
Cd30 O38 2.277 . S
O31 C28 1.160 . S
O31 Cd32 2.203 1_556 S
Cd32 O31 2.203 1_554 S
Cd32 O34 2.411 . S
Cd32 O35 2.333 . S
Cd32 O36 2.351 1_554 S
Cd32 O40 2.277 1_554 S
Cd32 O41 2.356 . S
C33 O38 1.210 . S
C33 O40 1.226 1_554 S
O34 Cd30 2.273 . S
O34 Cd32 2.411 . S
O34 C37 1.320 . S
O35 Cd32 2.333 . S
O35 C37 1.214 . S
O36 Cd32 2.351 1_556 S
O36 C39 1.257 1_556 S
C37 O34 1.320 . S
C37 O35 1.214 . S
O38 Cd30 2.277 . S
O38 C33 1.210 . S
C39 O36 1.257 1_554 S
C39 O41 1.282 . S
O40 Cd32 2.277 1_556 S
O40 C33 1.226 1_556 S
O41 Cd32 2.356 . S
O41 C39 1.282 . S
C42 O43 1.306 . S
C42 O45 1.160 . S
O43 C42 1.306 . S
O43 Cd44 2.228 1_556 S
Cd44 O43 2.228 1_554 S
Cd44 O48 2.273 . S
Cd44 O52 2.277 . S
O45 C42 1.160 . S
O45 Cd46 2.203 1_556 S
Cd46 O45 2.203 1_554 S
Cd46 O48 2.411 . S
Cd46 O49 2.333 . S
Cd46 O50 2.351 1_554 S
Cd46 O54 2.277 1_554 S
Cd46 O55 2.356 . S
C47 O52 1.210 . S
C47 O54 1.226 1_554 S
O48 Cd44 2.273 . S
O48 Cd46 2.411 . S
O48 C51 1.320 . S
O49 Cd46 2.333 . S
O49 C51 1.214 . S
O50 Cd46 2.351 1_556 S
O50 C53 1.257 1_556 S
C51 O48 1.320 . S
C51 O49 1.214 . S
O52 Cd44 2.277 . S
O52 C47 1.210 . S
C53 O50 1.257 1_554 S
C53 O55 1.282 . S
O54 Cd46 2.277 1_556 S
O54 C47 1.226 1_556 S
O55 Cd46 2.356 . S
O55 C53 1.282 . S
C56 O57 1.306 . S
C56 O59 1.160 . S
O57 C56 1.306 . S
O57 Cd58 2.228 1_554 S
Cd58 O57 2.228 1_556 S
Cd58 O62 2.273 . S
Cd58 O66 2.277 . S
O59 C56 1.160 . S
O59 Cd60 2.203 1_554 S
Cd60 O59 2.203 1_556 S
Cd60 O62 2.411 . S
Cd60 O63 2.333 . S
Cd60 O64 2.352 1_556 S
Cd60 O68 2.277 1_556 S
Cd60 O69 2.356 . S
C61 O66 1.207 1_554 S
C61 O68 1.227 . S
O62 Cd58 2.273 . S
O62 Cd60 2.411 . S
O62 C65 1.320 . S
O63 Cd60 2.333 . S
O63 C65 1.214 . S
O64 Cd60 2.352 1_554 S
O64 C67 1.258 1_554 S
C65 O62 1.320 . S
C65 O63 1.214 . S
O66 Cd58 2.277 . S
O66 C61 1.207 1_556 S
C67 O64 1.258 1_556 S
C67 O69 1.282 . S
O68 Cd60 2.277 1_554 S
O68 C61 1.227 . S
O69 Cd60 2.356 . S
O69 C67 1.282 . S
C70 O71 1.306 . S
C70 O73 1.160 . S
O71 C70 1.306 . S
O71 Cd72 2.228 1_554 S
Cd72 O71 2.228 1_556 S
Cd72 O76 2.273 . S
Cd72 O80 2.277 . S
O73 C70 1.160 . S
O73 Cd74 2.203 1_554 S
Cd74 O73 2.203 1_556 S
Cd74 O76 2.411 . S
Cd74 O77 2.333 . S
Cd74 O78 2.352 1_556 S
Cd74 O82 2.277 1_556 S
Cd74 O83 2.356 . S
C75 O80 1.207 1_554 S
C75 O82 1.227 . S
O76 Cd72 2.273 . S
O76 Cd74 2.411 . S
O76 C79 1.320 . S
O77 Cd74 2.333 . S
O77 C79 1.214 . S
O78 Cd74 2.352 1_554 S
O78 C81 1.258 1_554 S
C79 O76 1.320 . S
C79 O77 1.214 . S
O80 Cd72 2.277 . S
O80 C75 1.207 1_556 S
C81 O78 1.258 1_556 S
C81 O83 1.282 . S
O82 Cd74 2.277 1_554 S
O82 C75 1.227 . S
O83 Cd74 2.356 . S
O83 C81 1.282 . S
C84 O85 1.306 . S
C84 O87 1.160 . S
O85 C84 1.306 . S
O85 Cd86 2.228 1_554 S
Cd86 O85 2.228 1_556 S
Cd86 O90 2.273 . S
Cd86 O94 2.277 . S
O87 C84 1.160 . S
O87 Cd88 2.203 1_554 S
Cd88 O87 2.203 1_556 S
Cd88 O90 2.411 . S
Cd88 O91 2.333 . S
Cd88 O92 2.352 1_556 S
Cd88 O96 2.277 1_556 S
Cd88 O97 2.356 . S
C89 O94 1.207 1_554 S
C89 O96 1.227 . S
O90 Cd86 2.273 . S
O90 Cd88 2.411 . S
O90 C93 1.320 . S
O91 Cd88 2.333 . S
O91 C93 1.214 . S
O92 Cd88 2.352 1_554 S
O92 C95 1.258 1_554 S
C93 O90 1.320 . S
C93 O91 1.214 . S
O94 Cd86 2.277 . S
O94 C89 1.207 1_556 S
C95 O92 1.258 1_556 S
C95 O97 1.282 . S
O96 Cd88 2.277 1_554 S
O96 C89 1.227 . S
O97 Cd88 2.356 . S
O97 C95 1.282 . S
C98 O99 1.306 . S
C98 O101 1.160 . S
O99 C98 1.306 . S
O99 Cd100 2.228 1_554 S
Cd100 O99 2.228 1_556 S
Cd100 O104 2.273 . S
Cd100 O108 2.277 . S
O101 C98 1.160 . S
O101 Cd102 2.203 1_554 S
Cd102 O101 2.203 1_556 S
Cd102 O104 2.411 . S
Cd102 O105 2.333 . S
Cd102 O106 2.352 1_556 S
Cd102 O110 2.277 1_556 S
Cd102 O111 2.356 . S
C103 O108 1.207 1_554 S
C103 O110 1.227 . S
O104 Cd100 2.273 . S
O104 Cd102 2.411 . S
O104 C107 1.320 . S
O105 Cd102 2.333 . S
O105 C107 1.214 . S
O106 Cd102 2.352 1_554 S
O106 C109 1.258 1_554 S
C107 O104 1.320 . S
C107 O105 1.214 . S
O108 Cd100 2.277 . S
O108 C103 1.207 1_556 S
C109 O106 1.258 1_556 S
C109 O111 1.282 . S
O110 Cd102 2.277 1_554 S
O110 C103 1.227 . S
O111 Cd102 2.356 . S
O111 C109 1.282 . S
C112 O113 1.306 . S
C112 O115 1.160 . S
O113 C112 1.306 . S
O113 Cd114 2.228 . S
Cd114 O113 2.228 . S
Cd114 O118 2.273 . S
Cd114 O122 2.277 . S
O115 C112 1.160 . S
O115 Cd116 2.203 . S
Cd116 O115 2.203 . S
Cd116 O118 2.411 . S
Cd116 O119 2.333 . S
Cd116 O120 2.352 . S
Cd116 O124 2.277 . S
Cd116 O125 2.356 . S
C117 O122 1.209 . S
C117 O124 1.226 . S
O118 Cd114 2.273 . S
O118 Cd116 2.411 . S
O118 C121 1.320 . S
O119 Cd116 2.333 . S
O119 C121 1.214 . S
O120 Cd116 2.352 . S
O120 C123 1.258 . S
C121 O118 1.320 . S
C121 O119 1.214 . S
O122 Cd114 2.277 . S
O122 C117 1.209 . S
C123 O120 1.258 . S
C123 O125 1.282 . S
O124 Cd116 2.277 . S
O124 C117 1.226 . S
O125 Cd116 2.356 . S
O125 C123 1.282 . S
C126 O127 1.306 . S
C126 O129 1.160 . S
O127 C126 1.306 . S
O127 Cd128 2.228 . S
Cd128 O127 2.228 . S
Cd128 O132 2.273 . S
Cd128 O136 2.277 . S
O129 C126 1.160 . S
O129 Cd130 2.203 . S
Cd130 O129 2.203 . S
Cd130 O132 2.411 . S
Cd130 O133 2.333 . S
Cd130 O134 2.352 . S
Cd130 O138 2.277 . S
Cd130 O139 2.356 . S
C131 O136 1.209 . S
C131 O138 1.226 . S
O132 Cd128 2.273 . S
O132 Cd130 2.411 . S
O132 C135 1.320 . S
O133 Cd130 2.333 . S
O133 C135 1.214 . S
O134 Cd130 2.352 . S
O134 C137 1.258 . S
C135 O132 1.320 . S
C135 O133 1.214 . S
O136 Cd128 2.277 . S
O136 C131 1.209 . S
C137 O134 1.258 . S
C137 O139 1.282 . S
O138 Cd130 2.277 . S
O138 C131 1.226 . S
O139 Cd130 2.356 . S
O139 C137 1.282 . S
C140 O141 1.306 . S
C140 O143 1.160 . S
O141 C140 1.306 . S
O141 Cd142 2.228 . S
Cd142 O141 2.228 . S
Cd142 O146 2.273 . S
Cd142 O150 2.277 . S
O143 C140 1.160 . S
O143 Cd144 2.203 . S
Cd144 O143 2.203 . S
Cd144 O146 2.411 . S
Cd144 O147 2.333 . S
Cd144 O148 2.352 . S
Cd144 O152 2.277 . S
Cd144 O153 2.356 . S
C145 O150 1.209 . S
C145 O152 1.226 . S
O146 Cd142 2.273 . S
O146 Cd144 2.411 . S
O146 C149 1.320 . S
O147 Cd144 2.333 . S
O147 C149 1.214 . S
O148 Cd144 2.352 . S
O148 C151 1.258 . S
C149 O146 1.320 . S
C149 O147 1.214 . S
O150 Cd142 2.277 . S
O150 C145 1.209 . S
C151 O148 1.258 . S
C151 O153 1.282 . S
O152 Cd144 2.277 . S
O152 C145 1.226 . S
O153 Cd144 2.356 . S
O153 C151 1.282 . S
C154 O155 1.306 . S
C154 O157 1.160 . S
O155 C154 1.306 . S
O155 Cd156 2.228 . S
Cd156 O155 2.228 . S
Cd156 O160 2.273 . S
Cd156 O164 2.277 . S
O157 C154 1.160 . S
O157 Cd158 2.203 . S
Cd158 O157 2.203 . S
Cd158 O160 2.411 . S
Cd158 O161 2.333 . S
Cd158 O162 2.352 . S
Cd158 O166 2.277 . S
Cd158 O167 2.356 . S
C159 O164 1.209 . S
C159 O166 1.226 . S
O160 Cd156 2.273 . S
O160 Cd158 2.411 . S
O160 C163 1.320 . S
O161 Cd158 2.333 . S
O161 C163 1.214 . S
O162 Cd158 2.352 . S
O162 C165 1.258 . S
C163 O160 1.320 . S
C163 O161 1.214 . S
O164 Cd156 2.277 . S
O164 C159 1.209 . S
C165 O162 1.258 . S
C165 O167 1.282 . S
O166 Cd158 2.277 . S
O166 C159 1.226 . S
O167 Cd158 2.356 . S
O167 C165 1.282 . S
C168 O169 1.306 . S
C168 O171 1.160 . S
O169 C168 1.306 . S
O169 Cd170 2.228 . S
Cd170 O169 2.228 . S
Cd170 O174 2.273 . S
Cd170 O178 2.277 . S
O171 C168 1.160 . S
O171 Cd172 2.203 . S
Cd172 O171 2.203 . S
Cd172 O174 2.411 . S
Cd172 O175 2.333 . S
Cd172 O176 2.352 . S
Cd172 O180 2.277 . S
Cd172 O181 2.356 . S
C173 O178 1.209 . S
C173 O180 1.226 . S
O174 Cd170 2.273 . S
O174 Cd172 2.411 . S
O174 C177 1.320 . S
O175 Cd172 2.333 . S
O175 C177 1.214 . S
O176 Cd172 2.352 . S
O176 C179 1.258 . S
C177 O174 1.320 . S
C177 O175 1.214 . S
O178 Cd170 2.277 . S
O178 C173 1.209 . S
C179 O176 1.258 . S
C179 O181 1.282 . S
O180 Cd172 2.277 . S
O180 C173 1.226 . S
O181 Cd172 2.356 . S
O181 C179 1.282 . S
C182 O183 1.306 . S
C182 O185 1.160 . S
O183 C182 1.306 . S
O183 Cd184 2.228 . S
Cd184 O183 2.228 . S
Cd184 O188 2.273 . S
Cd184 O192 2.277 . S
O185 C182 1.160 . S
O185 Cd186 2.203 . S
Cd186 O185 2.203 . S
Cd186 O188 2.411 . S
Cd186 O189 2.333 . S
Cd186 O190 2.352 . S
Cd186 O194 2.277 . S
Cd186 O195 2.356 . S
C187 O192 1.209 . S
C187 O194 1.226 . S
O188 Cd184 2.273 . S
O188 Cd186 2.411 . S
O188 C191 1.320 . S
O189 Cd186 2.333 . S
O189 C191 1.214 . S
O190 Cd186 2.352 . S
O190 C193 1.258 . S
C191 O188 1.320 . S
C191 O189 1.214 . S
O192 Cd184 2.277 . S
O192 C187 1.209 . S
C193 O190 1.258 . S
C193 O195 1.282 . S
O194 Cd186 2.277 . S
O194 C187 1.226 . S
O195 Cd186 2.356 . S
O195 C193 1.282 . S
C196 O197 1.306 . S
C196 O199 1.160 . S
O197 C196 1.306 . S
O197 Cd198 2.228 . S
Cd198 O197 2.228 . S
Cd198 O202 2.273 . S
Cd198 O206 2.277 . S
O199 C196 1.160 . S
O199 Cd200 2.203 . S
Cd200 O199 2.203 . S
Cd200 O202 2.411 . S
Cd200 O203 2.333 . S
Cd200 O204 2.352 . S
Cd200 O208 2.277 . S
Cd200 O209 2.356 . S
C201 O206 1.209 . S
C201 O208 1.226 . S
O202 Cd198 2.273 . S
O202 Cd200 2.411 . S
O202 C205 1.320 . S
O203 Cd200 2.333 . S
O203 C205 1.214 . S
O204 Cd200 2.352 . S
O204 C207 1.258 . S
C205 O202 1.320 . S
C205 O203 1.214 . S
O206 Cd198 2.277 . S
O206 C201 1.209 . S
C207 O204 1.258 . S
C207 O209 1.282 . S
O208 Cd200 2.277 . S
O208 C201 1.226 . S
O209 Cd200 2.356 . S
O209 C207 1.282 . S
C210 O211 1.306 . S
C210 O213 1.160 . S
O211 C210 1.306 . S
O211 Cd212 2.228 . S
Cd212 O211 2.228 . S
Cd212 O216 2.273 . S
Cd212 O220 2.277 . S
O213 C210 1.160 . S
O213 Cd214 2.203 . S
Cd214 O213 2.203 . S
Cd214 O216 2.411 . S
Cd214 O217 2.333 . S
Cd214 O218 2.352 . S
Cd214 O222 2.277 . S
Cd214 O223 2.356 . S
C215 O220 1.209 . S
C215 O222 1.226 . S
O216 Cd212 2.273 . S
O216 Cd214 2.411 . S
O216 C219 1.320 . S
O217 Cd214 2.333 . S
O217 C219 1.214 . S
O218 Cd214 2.352 . S
O218 C221 1.258 . S
C219 O216 1.320 . S
C219 O217 1.214 . S
O220 Cd212 2.277 . S
O220 C215 1.209 . S
C221 O218 1.258 . S
C221 O223 1.282 . S
O222 Cd214 2.277 . S
O222 C215 1.226 . S
O223 Cd214 2.356 . S
O223 C221 1.282 . S
C224 C225 1.349 . S
C224 C226 1.327 . S
C224 H249 0.950 . S
C225 C224 1.349 . S
C225 C241 1.349 1_556 S
C226 C224 1.327 . S
C226 C245 1.434 . S
C226 H250 0.950 . S
C227 C244 1.574 . S
C227 C246 1.368 . S
C227 H251 0.949 . S
H228 C232 0.949 . S
C229 C230 1.349 . S
C229 C231 1.327 . S
C229 H252 0.950 . S
C230 C229 1.349 . S
C230 C242 1.349 1_554 S
C231 C229 1.327 . S
C231 C247 1.429 . S
C231 H253 0.950 . S
C232 H228 0.949 . S
C232 C240 1.574 . S
C232 C248 1.349 1_556 S
H233 C241 0.950 . S
H234 C239 0.950 . S
H235 C240 0.949 . S
H236 C242 0.950 . S
H237 C243 0.950 . S
H238 C244 0.949 . S
C239 H234 0.950 . S
C239 C241 1.327 . S
C239 C245 1.423 1_554 S
C240 C232 1.574 . S
C240 H235 0.949 . S
C240 C246 1.368 1_556 S
C241 C225 1.349 1_554 S
C241 H233 0.950 . S
C241 C239 1.327 . S
C242 C230 1.349 1_556 S
C242 H236 0.950 . S
C242 C243 1.327 . S
C243 H237 0.950 . S
C243 C242 1.327 . S
C243 C247 1.429 1_556 S
C244 C227 1.574 . S
C244 H238 0.949 . S
C244 C248 1.388 . S
C245 C226 1.434 . S
C245 C239 1.423 1_556 S
C245 C246 1.523 1_556 S
C246 C227 1.368 . S
C246 C240 1.368 1_554 S
C246 C245 1.523 1_554 S
C247 C231 1.429 . S
C247 C243 1.429 1_554 S
C247 C248 1.523 . S
C248 C232 1.349 1_554 S
C248 C244 1.388 . S
C248 C247 1.523 . S
H249 C224 0.950 . S
H250 C226 0.950 . S
H251 C227 0.949 . S
H252 C229 0.950 . S
H253 C231 0.950 . S
C254 C255 1.349 1_554 S
C254 C256 1.327 . S
C254 H279 0.950 . S
C255 C254 1.349 1_556 S
C255 C271 1.349 . S
C256 C254 1.327 . S
C256 C275 1.425 1_554 S
C256 H280 0.950 . S
C257 C274 1.574 . S
C257 C276 1.368 1_556 S
C257 H281 0.949 . S
H258 C262 0.949 . S
C259 C260 1.349 1_556 S
C259 C261 1.327 . S
C259 H282 0.950 . S
C260 C259 1.349 1_554 S
C260 C272 1.349 . S
C261 C259 1.327 . S
C261 C277 1.429 1_556 S
C261 H283 0.950 . S
C262 H258 0.949 . S
C262 C270 1.574 . S
C262 C278 1.382 . S
H263 C271 0.950 . S
H264 C269 0.950 . S
H265 C270 0.949 . S
H266 C272 0.950 . S
H267 C273 0.950 . S
H268 C274 0.949 . S
C269 H264 0.950 . S
C269 C271 1.327 . S
C269 C275 1.432 . S
C270 C262 1.574 . S
C270 H265 0.949 . S
C270 C276 1.368 . S
C271 C255 1.349 . S
C271 H263 0.950 . S
C271 C269 1.327 . S
C272 C260 1.349 . S
C272 H266 0.950 . S
C272 C273 1.327 . S
C273 H267 0.950 . S
C273 C272 1.327 . S
C273 C277 1.429 . S
C274 C257 1.574 . S
C274 H268 0.949 . S
C274 C278 1.355 1_556 S
C275 C256 1.425 1_556 S
C275 C269 1.432 . S
C275 C276 1.523 1_556 S
C276 C257 1.368 1_554 S
C276 C270 1.368 . S
C276 C275 1.523 1_554 S
C277 C261 1.429 1_554 S
C277 C273 1.429 . S
C277 C278 1.523 . S
C278 C262 1.382 . S
C278 C274 1.355 1_554 S
C278 C277 1.523 . S
H279 C254 0.950 . S
H280 C256 0.950 . S
H281 C257 0.949 . S
H282 C259 0.950 . S
H283 C261 0.950 . S
C284 C285 1.349 1_554 S
C284 C286 1.327 . S
C284 H309 0.950 . S
C285 C284 1.349 1_556 S
C285 C301 1.349 . S
C286 C284 1.327 . S
C286 C305 1.423 1_554 S
C286 H310 0.950 . S
C287 C304 1.574 . S
C287 C306 1.368 1_556 S
C287 H311 0.949 . S
H288 C292 0.949 . S
C289 C290 1.349 1_556 S
C289 C291 1.327 . S
C289 H312 0.950 . S
C290 C289 1.349 1_554 S
C290 C302 1.349 . S
C291 C289 1.327 . S
C291 C307 1.429 1_556 S
C291 H313 0.950 . S
C292 H288 0.949 . S
C292 C300 1.574 . S
C292 C308 1.388 . S
H293 C301 0.950 . S
H294 C299 0.950 . S
H295 C300 0.949 . S
H296 C302 0.950 . S
H297 C303 0.950 . S
H298 C304 0.949 . S
C299 H294 0.950 . S
C299 C301 1.327 . S
C299 C305 1.434 . S
C300 C292 1.574 . S
C300 H295 0.949 . S
C300 C306 1.368 . S
C301 C285 1.349 . S
C301 H293 0.950 . S
C301 C299 1.327 . S
C302 C290 1.349 . S
C302 H296 0.950 . S
C302 C303 1.327 . S
C303 H297 0.950 . S
C303 C302 1.327 . S
C303 C307 1.429 . S
C304 C287 1.574 . S
C304 H298 0.949 . S
C304 C308 1.349 1_556 S
C305 C286 1.423 1_556 S
C305 C299 1.434 . S
C305 C306 1.523 1_556 S
C306 C287 1.368 1_554 S
C306 C300 1.368 . S
C306 C305 1.523 1_554 S
C307 C291 1.429 1_554 S
C307 C303 1.429 . S
C307 C308 1.523 . S
C308 C292 1.388 . S
C308 C304 1.349 1_554 S
C308 C307 1.523 . S
H309 C284 0.950 . S
H310 C286 0.950 . S
H311 C287 0.949 . S
H312 C289 0.950 . S
H313 C291 0.950 . S
C314 C315 1.349 1_554 S
C314 C316 1.327 . S
C314 H339 0.950 . S
C315 C314 1.349 1_556 S
C315 C331 1.349 . S
C316 C314 1.327 . S
C316 C335 1.425 1_554 S
C316 H340 0.950 . S
C317 C334 1.574 . S
C317 C336 1.368 1_556 S
C317 H341 0.949 . S
H318 C322 0.949 . S
C319 C320 1.349 1_556 S
C319 C321 1.327 . S
C319 H342 0.950 . S
C320 C319 1.349 1_554 S
C320 C332 1.349 . S
C321 C319 1.327 . S
C321 C337 1.429 1_556 S
C321 H343 0.950 . S
C322 H318 0.949 . S
C322 C330 1.574 . S
C322 C338 1.382 . S
H323 C331 0.950 . S
H324 C329 0.950 . S
H325 C330 0.949 . S
H326 C332 0.950 . S
H327 C333 0.950 . S
H328 C334 0.949 . S
C329 H324 0.950 . S
C329 C331 1.327 . S
C329 C335 1.432 . S
C330 C322 1.574 . S
C330 H325 0.949 . S
C330 C336 1.368 . S
C331 C315 1.349 . S
C331 H323 0.950 . S
C331 C329 1.327 . S
C332 C320 1.349 . S
C332 H326 0.950 . S
C332 C333 1.327 . S
C333 H327 0.950 . S
C333 C332 1.327 . S
C333 C337 1.429 . S
C334 C317 1.574 . S
C334 H328 0.949 . S
C334 C338 1.355 1_556 S
C335 C316 1.425 1_556 S
C335 C329 1.432 . S
C335 C336 1.523 1_556 S
C336 C317 1.368 1_554 S
C336 C330 1.368 . S
C336 C335 1.523 1_554 S
C337 C321 1.429 1_554 S
C337 C333 1.429 . S
C337 C338 1.523 . S
C338 C322 1.382 . S
C338 C334 1.355 1_554 S
C338 C337 1.523 . S
H339 C314 0.950 . S
H340 C316 0.950 . S
H341 C317 0.949 . S
H342 C319 0.950 . S
H343 C321 0.950 . S
C344 C345 1.349 . S
C344 C346 1.327 . S
C344 H369 0.950 . S
C345 C344 1.349 . S
C345 C361 1.349 . S
C346 C344 1.327 . S
C346 C365 1.429 . S
C346 H370 0.950 . S
C347 C364 1.574 1_545 S
C347 C366 1.368 . S
C347 H371 0.949 . S
H348 C352 0.949 . S
C349 C350 1.349 . S
C349 C351 1.327 . S
C349 H372 0.950 . S
C350 C349 1.349 . S
C350 C362 1.349 . S
C351 C349 1.327 . S
C351 C367 1.429 . S
C351 H373 0.950 . S
C352 H348 0.949 . S
C352 C360 1.574 1_565 S
C352 C368 1.368 . S
H353 C361 0.950 . S
H354 C359 0.950 . S
H355 C360 0.949 . S
H356 C362 0.950 . S
H357 C363 0.950 . S
H358 C364 0.949 . S
C359 H354 0.950 . S
C359 C361 1.327 . S
C359 C365 1.429 . S
C360 C352 1.574 1_545 S
C360 H355 0.949 . S
C360 C366 1.368 . S
C361 C345 1.349 . S
C361 H353 0.950 . S
C361 C359 1.327 . S
C362 C350 1.349 . S
C362 H356 0.950 . S
C362 C363 1.327 . S
C363 H357 0.950 . S
C363 C362 1.327 . S
C363 C367 1.429 . S
C364 C347 1.574 1_565 S
C364 H358 0.949 . S
C364 C368 1.368 . S
C365 C346 1.429 . S
C365 C359 1.429 . S
C365 C366 1.523 . S
C366 C347 1.368 . S
C366 C360 1.368 . S
C366 C365 1.523 . S
C367 C351 1.429 . S
C367 C363 1.429 . S
C367 C368 1.523 . S
C368 C352 1.368 . S
C368 C364 1.368 . S
C368 C367 1.523 . S
H369 C344 0.950 . S
H370 C346 0.950 . S
H371 C347 0.949 . S
H372 C349 0.950 . S
H373 C351 0.950 . S
C374 C375 1.349 . S
C374 C376 1.327 . S
C374 H399 0.950 . S
C375 C374 1.349 . S
C375 C391 1.349 . S
C376 C374 1.327 . S
C376 C395 1.429 . S
C376 H400 0.950 . S
C377 C394 1.574 1_655 S
C377 C396 1.368 . S
C377 H401 0.949 . S
H378 C382 0.949 . S
C379 C380 1.349 . S
C379 C381 1.327 . S
C379 H402 0.950 . S
C380 C379 1.349 . S
C380 C392 1.349 . S
C381 C379 1.327 . S
C381 C397 1.429 . S
C381 H403 0.950 . S
C382 H378 0.949 . S
C382 C390 1.574 1_455 S
C382 C398 1.368 . S
H383 C391 0.950 . S
H384 C389 0.950 . S
H385 C390 0.949 . S
H386 C392 0.950 . S
H387 C393 0.950 . S
H388 C394 0.949 . S
C389 H384 0.950 . S
C389 C391 1.327 . S
C389 C395 1.429 . S
C390 C382 1.574 1_655 S
C390 H385 0.949 . S
C390 C396 1.368 . S
C391 C375 1.349 . S
C391 H383 0.950 . S
C391 C389 1.327 . S
C392 C380 1.349 . S
C392 H386 0.950 . S
C392 C393 1.327 . S
C393 H387 0.950 . S
C393 C392 1.327 . S
C393 C397 1.429 . S
C394 C377 1.574 1_455 S
C394 H388 0.949 . S
C394 C398 1.368 . S
C395 C376 1.429 . S
C395 C389 1.429 . S
C395 C396 1.523 . S
C396 C377 1.368 . S
C396 C390 1.368 . S
C396 C395 1.523 . S
C397 C381 1.429 . S
C397 C393 1.429 . S
C397 C398 1.523 . S
C398 C382 1.368 . S
C398 C394 1.368 . S
C398 C397 1.523 . S
H399 C374 0.950 . S
H400 C376 0.950 . S
H401 C377 0.949 . S
H402 C379 0.950 . S
H403 C381 0.950 . S
C404 C405 1.349 . S
C404 C406 1.327 . S
C404 H429 0.950 . S
C405 C404 1.349 . S
C405 C421 1.349 . S
C406 C404 1.327 . S
C406 C425 1.429 . S
C406 H430 0.950 . S
C407 C424 1.574 1_545 S
C407 C426 1.368 . S
C407 H431 0.949 . S
H408 C412 0.949 . S
C409 C410 1.349 . S
C409 C411 1.327 . S
C409 H432 0.950 . S
C410 C409 1.349 . S
C410 C422 1.349 . S
C411 C409 1.327 . S
C411 C427 1.429 . S
C411 H433 0.950 . S
C412 H408 0.949 . S
C412 C420 1.574 1_565 S
C412 C428 1.368 . S
H413 C421 0.950 . S
H414 C419 0.950 . S
H415 C420 0.949 . S
H416 C422 0.950 . S
H417 C423 0.950 . S
H418 C424 0.949 . S
C419 H414 0.950 . S
C419 C421 1.327 . S
C419 C425 1.429 . S
C420 C412 1.574 1_545 S
C420 H415 0.949 . S
C420 C426 1.368 . S
C421 C405 1.349 . S
C421 H413 0.950 . S
C421 C419 1.327 . S
C422 C410 1.349 . S
C422 H416 0.950 . S
C422 C423 1.327 . S
C423 H417 0.950 . S
C423 C422 1.327 . S
C423 C427 1.429 . S
C424 C407 1.574 1_565 S
C424 H418 0.949 . S
C424 C428 1.368 . S
C425 C406 1.429 . S
C425 C419 1.429 . S
C425 C426 1.523 . S
C426 C407 1.368 . S
C426 C420 1.368 . S
C426 C425 1.523 . S
C427 C411 1.429 . S
C427 C423 1.429 . S
C427 C428 1.523 . S
C428 C412 1.368 . S
C428 C424 1.368 . S
C428 C427 1.523 . S
H429 C404 0.950 . S
H430 C406 0.950 . S
H431 C407 0.949 . S
H432 C409 0.950 . S
H433 C411 0.950 . S
C434 C435 1.349 . S
C434 C436 1.327 . S
C434 H459 0.950 . S
C435 C434 1.349 . S
C435 C451 1.349 . S
C436 C434 1.327 . S
C436 C455 1.429 . S
C436 H460 0.950 . S
C437 C454 1.574 1_455 S
C437 C456 1.368 . S
C437 H461 0.949 . S
H438 C442 0.949 . S
C439 C440 1.349 . S
C439 C441 1.327 . S
C439 H462 0.950 . S
C440 C439 1.349 . S
C440 C452 1.349 . S
C441 C439 1.327 . S
C441 C457 1.429 . S
C441 H463 0.950 . S
C442 H438 0.949 . S
C442 C450 1.574 1_655 S
C442 C458 1.368 . S
H443 C451 0.950 . S
H444 C449 0.950 . S
H445 C450 0.949 . S
H446 C452 0.950 . S
H447 C453 0.950 . S
H448 C454 0.949 . S
C449 H444 0.950 . S
C449 C451 1.327 . S
C449 C455 1.429 . S
C450 C442 1.574 1_455 S
C450 H445 0.949 . S
C450 C456 1.368 . S
C451 C435 1.349 . S
C451 H443 0.950 . S
C451 C449 1.327 . S
C452 C440 1.349 . S
C452 H446 0.950 . S
C452 C453 1.327 . S
C453 H447 0.950 . S
C453 C452 1.327 . S
C453 C457 1.429 . S
C454 C437 1.574 1_655 S
C454 H448 0.949 . S
C454 C458 1.368 . S
C455 C436 1.429 . S
C455 C449 1.429 . S
C455 C456 1.523 . S
C456 C437 1.368 . S
C456 C450 1.368 . S
C456 C455 1.523 . S
C457 C441 1.429 . S
C457 C453 1.429 . S
C457 C458 1.523 . S
C458 C442 1.368 . S
C458 C454 1.368 . S
C458 C457 1.523 . S
H459 C434 0.950 . S
H460 C436 0.950 . S
H461 C437 0.949 . S
H462 C439 0.950 . S
H463 C441 0.950 . S
C464 C465 1.346 1_556 S
C464 C466 1.327 . S
C464 H489 0.950 . S
C465 C464 1.346 1_554 S
C465 C481 1.352 . S
C466 C464 1.327 . S
C466 C485 1.423 1_556 S
C466 H490 0.950 . S
C467 C484 1.574 . S
C467 C486 1.377 . S
C467 H491 0.949 . S
H468 C472 0.949 . S
C469 C470 1.365 . S
C469 C471 1.327 . S
C469 H492 0.950 . S
C470 C469 1.365 . S
C470 C482 1.333 1_554 S
C471 C469 1.327 . S
C471 C487 1.441 . S
C471 H493 0.950 . S
C472 H468 0.949 . S
C472 C480 1.574 . S
C472 C488 1.357 1_556 S
H473 C481 0.950 . S
H474 C479 0.950 . S
H475 C480 0.949 . S
H476 C482 0.950 . S
H477 C483 0.950 . S
H478 C484 0.949 . S
C479 H474 0.950 . S
C479 C481 1.327 . S
C479 C485 1.434 . S
C480 C472 1.574 . S
C480 H475 0.949 . S
C480 C486 1.360 1_556 S
C481 C465 1.352 . S
C481 H473 0.950 . S
C481 C479 1.327 . S
C482 C470 1.333 1_556 S
C482 H476 0.950 . S
C482 C483 1.327 . S
C483 H477 0.950 . S
C483 C482 1.327 . S
C483 C487 1.416 1_556 S
C484 C467 1.574 . S
C484 H478 0.949 . S
C484 C488 1.380 . S
C485 C466 1.423 1_554 S
C485 C479 1.434 . S
C485 C486 1.523 . S
C486 C467 1.377 . S
C486 C480 1.360 1_554 S
C486 C485 1.523 . S
C487 C471 1.441 . S
C487 C483 1.416 1_554 S
C487 C488 1.523 . S
C488 C472 1.357 1_554 S
C488 C484 1.380 . S
C488 C487 1.523 . S
H489 C464 0.950 . S
H490 C466 0.950 . S
H491 C467 0.949 . S
H492 C469 0.950 . S
H493 C471 0.950 . S
C494 C495 1.365 . S
C494 C496 1.327 . S
C494 H519 0.950 . S
C495 C494 1.365 . S
C495 C511 1.333 1_554 S
C496 C494 1.327 . S
C496 C515 1.441 . S
C496 H520 0.950 . S
C497 C514 1.574 . S
C497 C516 1.357 1_556 S
C497 H521 0.949 . S
H498 C502 0.949 . S
C499 C500 1.346 1_556 S
C499 C501 1.327 . S
C499 H522 0.950 . S
C500 C499 1.346 1_554 S
C500 C512 1.352 . S
C501 C499 1.327 . S
C501 C517 1.423 1_556 S
C501 H523 0.950 . S
C502 H498 0.949 . S
C502 C510 1.574 . S
C502 C518 1.377 . S
H503 C511 0.950 . S
H504 C509 0.950 . S
H505 C510 0.949 . S
H506 C512 0.950 . S
H507 C513 0.950 . S
H508 C514 0.949 . S
C509 H504 0.950 . S
C509 C511 1.327 . S
C509 C515 1.417 1_556 S
C510 C502 1.574 . S
C510 H505 0.949 . S
C510 C516 1.380 . S
C511 C495 1.333 1_556 S
C511 H503 0.950 . S
C511 C509 1.327 . S
C512 C500 1.352 . S
C512 H506 0.950 . S
C512 C513 1.327 . S
C513 H507 0.950 . S
C513 C512 1.327 . S
C513 C517 1.434 . S
C514 C497 1.574 . S
C514 H508 0.949 . S
C514 C518 1.360 1_556 S
C515 C496 1.441 . S
C515 C509 1.417 1_554 S
C515 C516 1.523 . S
C516 C497 1.357 1_554 S
C516 C510 1.380 . S
C516 C515 1.523 . S
C517 C501 1.423 1_554 S
C517 C513 1.434 . S
C517 C518 1.523 . S
C518 C502 1.377 . S
C518 C514 1.360 1_554 S
C518 C517 1.523 . S
H519 C494 0.950 . S
H520 C496 0.950 . S
H521 C497 0.949 . S
H522 C499 0.950 . S
H523 C501 0.950 . S
C524 C525 1.352 . S
C524 C526 1.327 . S
C524 H549 0.950 . S
C525 C524 1.352 . S
C525 C541 1.346 1_554 S
C526 C524 1.327 . S
C526 C545 1.435 . S
C526 H550 0.950 . S
C527 C544 1.574 . S
C527 C546 1.360 1_556 S
C527 H551 0.949 . S
H528 C532 0.949 . S
C529 C530 1.333 1_556 S
C529 C531 1.327 . S
C529 H552 0.950 . S
C530 C529 1.333 1_554 S
C530 C542 1.365 . S
C531 C529 1.327 . S
C531 C547 1.416 1_556 S
C531 H553 0.950 . S
C532 H528 0.949 . S
C532 C540 1.574 . S
C532 C548 1.380 . S
H533 C541 0.950 . S
H534 C539 0.950 . S
H535 C540 0.949 . S
H536 C542 0.950 . S
H537 C543 0.950 . S
H538 C544 0.949 . S
C539 H534 0.950 . S
C539 C541 1.327 . S
C539 C545 1.422 1_556 S
C540 C532 1.574 . S
C540 H535 0.949 . S
C540 C546 1.377 . S
C541 C525 1.346 1_556 S
C541 H533 0.950 . S
C541 C539 1.327 . S
C542 C530 1.365 . S
C542 H536 0.950 . S
C542 C543 1.327 . S
C543 H537 0.950 . S
C543 C542 1.327 . S
C543 C547 1.441 . S
C544 C527 1.574 . S
C544 H538 0.949 . S
C544 C548 1.356 1_556 S
C545 C526 1.435 . S
C545 C539 1.422 1_554 S
C545 C546 1.523 . S
C546 C527 1.360 1_554 S
C546 C540 1.377 . S
C546 C545 1.523 . S
C547 C531 1.416 1_554 S
C547 C543 1.441 . S
C547 C548 1.523 . S
C548 C532 1.380 . S
C548 C544 1.356 1_554 S
C548 C547 1.523 . S
H549 C524 0.950 . S
H550 C526 0.950 . S
H551 C527 0.949 . S
H552 C529 0.950 . S
H553 C531 0.950 . S
C554 C555 1.365 . S
C554 C556 1.327 . S
C554 H579 0.950 . S
C555 C554 1.365 . S
C555 C571 1.333 1_554 S
C556 C554 1.327 . S
C556 C575 1.441 . S
C556 H580 0.950 . S
C557 C574 1.574 . S
C557 C576 1.357 1_556 S
C557 H581 0.949 . S
H558 C562 0.949 . S
C559 C560 1.346 1_556 S
C559 C561 1.327 . S
C559 H582 0.950 . S
C560 C559 1.346 1_554 S
C560 C572 1.352 . S
C561 C559 1.327 . S
C561 C577 1.423 1_556 S
C561 H583 0.950 . S
C562 H558 0.949 . S
C562 C570 1.574 . S
C562 C578 1.377 . S
H563 C571 0.950 . S
H564 C569 0.950 . S
H565 C570 0.949 . S
H566 C572 0.950 . S
H567 C573 0.950 . S
H568 C574 0.949 . S
C569 H564 0.950 . S
C569 C571 1.327 . S
C569 C575 1.417 1_556 S
C570 C562 1.574 . S
C570 H565 0.949 . S
C570 C576 1.380 . S
C571 C555 1.333 1_556 S
C571 H563 0.950 . S
C571 C569 1.327 . S
C572 C560 1.352 . S
C572 H566 0.950 . S
C572 C573 1.327 . S
C573 H567 0.950 . S
C573 C572 1.327 . S
C573 C577 1.434 . S
C574 C557 1.574 . S
C574 H568 0.949 . S
C574 C578 1.360 1_556 S
C575 C556 1.441 . S
C575 C569 1.417 1_554 S
C575 C576 1.523 . S
C576 C557 1.357 1_554 S
C576 C570 1.380 . S
C576 C575 1.523 . S
C577 C561 1.423 1_554 S
C577 C573 1.434 . S
C577 C578 1.523 . S
C578 C562 1.377 . S
C578 C574 1.360 1_554 S
C578 C577 1.523 . S
H579 C554 0.950 . S
H580 C556 0.950 . S
H581 C557 0.949 . S
H582 C559 0.950 . S
H583 C561 0.950 . S
C584 C585 1.349 . S
C584 C586 1.327 . S
C584 H609 0.950 . S
C585 C584 1.349 . S
C585 C601 1.349 . S
C586 C584 1.327 . S
C586 C605 1.429 . S
C586 H610 0.950 . S
C587 C604 1.574 . S
C587 C606 1.368 . S
C587 H611 0.949 . S
H588 C592 0.949 . S
C589 C590 1.349 . S
C589 C591 1.327 . S
C589 H612 0.950 . S
C590 C589 1.349 . S
C590 C602 1.349 . S
C591 C589 1.327 . S
C591 C607 1.429 . S
C591 H613 0.950 . S
C592 H588 0.949 . S
C592 C600 1.574 . S
C592 C608 1.368 . S
H593 C601 0.950 . S
H594 C599 0.950 . S
H595 C600 0.949 . S
H596 C602 0.950 . S
H597 C603 0.950 . S
H598 C604 0.949 . S
C599 H594 0.950 . S
C599 C601 1.327 . S
C599 C605 1.429 . S
C600 C592 1.574 . S
C600 H595 0.949 . S
C600 C606 1.368 . S
C601 C585 1.349 . S
C601 H593 0.950 . S
C601 C599 1.327 . S
C602 C590 1.349 . S
C602 H596 0.950 . S
C602 C603 1.327 . S
C603 H597 0.950 . S
C603 C602 1.327 . S
C603 C607 1.429 . S
C604 C587 1.574 . S
C604 H598 0.949 . S
C604 C608 1.368 . S
C605 C586 1.429 . S
C605 C599 1.429 . S
C605 C606 1.523 . S
C606 C587 1.368 . S
C606 C600 1.368 . S
C606 C605 1.523 . S
C607 C591 1.429 . S
C607 C603 1.429 . S
C607 C608 1.523 . S
C608 C592 1.368 . S
C608 C604 1.368 . S
C608 C607 1.523 . S
H609 C584 0.950 . S
H610 C586 0.950 . S
H611 C587 0.949 . S
H612 C589 0.950 . S
H613 C591 0.950 . S
C614 C615 1.349 . S
C614 C616 1.327 . S
C614 H639 0.950 . S
C615 C614 1.349 . S
C615 C631 1.349 . S
C616 C614 1.327 . S
C616 C635 1.429 . S
C616 H640 0.950 . S
C617 C634 1.574 . S
C617 C636 1.368 . S
C617 H641 0.949 . S
H618 C622 0.949 . S
C619 C620 1.349 . S
C619 C621 1.327 . S
C619 H642 0.950 . S
C620 C619 1.349 . S
C620 C632 1.349 . S
C621 C619 1.327 . S
C621 C637 1.429 . S
C621 H643 0.950 . S
C622 H618 0.949 . S
C622 C630 1.574 . S
C622 C638 1.368 . S
H623 C631 0.950 . S
H624 C629 0.950 . S
H625 C630 0.949 . S
H626 C632 0.950 . S
H627 C633 0.950 . S
H628 C634 0.949 . S
C629 H624 0.950 . S
C629 C631 1.327 . S
C629 C635 1.429 . S
C630 C622 1.574 . S
C630 H625 0.949 . S
C630 C636 1.368 . S
C631 C615 1.349 . S
C631 H623 0.950 . S
C631 C629 1.327 . S
C632 C620 1.349 . S
C632 H626 0.950 . S
C632 C633 1.327 . S
C633 H627 0.950 . S
C633 C632 1.327 . S
C633 C637 1.429 . S
C634 C617 1.574 . S
C634 H628 0.949 . S
C634 C638 1.368 . S
C635 C616 1.429 . S
C635 C629 1.429 . S
C635 C636 1.523 . S
C636 C617 1.368 . S
C636 C630 1.368 . S
C636 C635 1.523 . S
C637 C621 1.429 . S
C637 C633 1.429 . S
C637 C638 1.523 . S
C638 C622 1.368 . S
C638 C634 1.368 . S
C638 C637 1.523 . S
H639 C614 0.950 . S
H640 C616 0.950 . S
H641 C617 0.949 . S
H642 C619 0.950 . S
H643 C621 0.950 . S
C644 C645 1.349 . S
C644 C646 1.327 . S
C644 H669 0.950 . S
C645 C644 1.349 . S
C645 C661 1.349 . S
C646 C644 1.327 . S
C646 C665 1.429 . S
C646 H670 0.950 . S
C647 C664 1.574 . S
C647 C666 1.368 . S
C647 H671 0.949 . S
H648 C652 0.949 . S
C649 C650 1.349 . S
C649 C651 1.327 . S
C649 H672 0.950 . S
C650 C649 1.349 . S
C650 C662 1.349 . S
C651 C649 1.327 . S
C651 C667 1.429 . S
C651 H673 0.950 . S
C652 H648 0.949 . S
C652 C660 1.574 . S
C652 C668 1.368 . S
H653 C661 0.950 . S
H654 C659 0.950 . S
H655 C660 0.949 . S
H656 C662 0.950 . S
H657 C663 0.950 . S
H658 C664 0.949 . S
C659 H654 0.950 . S
C659 C661 1.327 . S
C659 C665 1.429 . S
C660 C652 1.574 . S
C660 H655 0.949 . S
C660 C666 1.368 . S
C661 C645 1.349 . S
C661 H653 0.950 . S
C661 C659 1.327 . S
C662 C650 1.349 . S
C662 H656 0.950 . S
C662 C663 1.327 . S
C663 H657 0.950 . S
C663 C662 1.327 . S
C663 C667 1.429 . S
C664 C647 1.574 . S
C664 H658 0.949 . S
C664 C668 1.368 . S
C665 C646 1.429 . S
C665 C659 1.429 . S
C665 C666 1.523 . S
C666 C647 1.368 . S
C666 C660 1.368 . S
C666 C665 1.523 . S
C667 C651 1.429 . S
C667 C663 1.429 . S
C667 C668 1.523 . S
C668 C652 1.368 . S
C668 C664 1.368 . S
C668 C667 1.523 . S
H669 C644 0.950 . S
H670 C646 0.950 . S
H671 C647 0.949 . S
H672 C649 0.950 . S
H673 C651 0.950 . S
C674 C675 1.349 . S
C674 C676 1.327 . S
C674 H699 0.950 . S
C675 C674 1.349 . S
C675 C691 1.349 . S
C676 C674 1.327 . S
C676 C695 1.429 . S
C676 H700 0.950 . S
C677 C694 1.574 . S
C677 C696 1.368 . S
C677 H701 0.949 . S
H678 C682 0.949 . S
C679 C680 1.349 . S
C679 C681 1.327 . S
C679 H702 0.950 . S
C680 C679 1.349 . S
C680 C692 1.349 . S
C681 C679 1.327 . S
C681 C697 1.429 . S
C681 H703 0.950 . S
C682 H678 0.949 . S
C682 C690 1.574 . S
C682 C698 1.368 . S
H683 C691 0.950 . S
H684 C689 0.950 . S
H685 C690 0.949 . S
H686 C692 0.950 . S
H687 C693 0.950 . S
H688 C694 0.949 . S
C689 H684 0.950 . S
C689 C691 1.327 . S
C689 C695 1.429 . S
C690 C682 1.574 . S
C690 H685 0.949 . S
C690 C696 1.368 . S
C691 C675 1.349 . S
C691 H683 0.950 . S
C691 C689 1.327 . S
C692 C680 1.349 . S
C692 H686 0.950 . S
C692 C693 1.327 . S
C693 H687 0.950 . S
C693 C692 1.327 . S
C693 C697 1.429 . S
C694 C677 1.574 . S
C694 H688 0.949 . S
C694 C698 1.368 . S
C695 C676 1.429 . S
C695 C689 1.429 . S
C695 C696 1.523 . S
C696 C677 1.368 . S
C696 C690 1.368 . S
C696 C695 1.523 . S
C697 C681 1.429 . S
C697 C693 1.429 . S
C697 C698 1.523 . S
C698 C682 1.368 . S
C698 C694 1.368 . S
C698 C697 1.523 . S
H699 C674 0.950 . S
H700 C676 0.950 . S
H701 C677 0.949 . S
H702 C679 0.950 . S
H703 C681 0.950 . S
C704 C705 1.349 . S
C704 C706 1.327 . S
C704 H729 0.950 . S
C705 C704 1.349 . S
C705 C721 1.349 . S
C706 C704 1.327 . S
C706 C725 1.429 . S
C706 H730 0.950 . S
C707 C724 1.574 . S
C707 C726 1.368 . S
C707 H731 0.949 . S
H708 C712 0.949 . S
C709 C710 1.349 . S
C709 C711 1.327 . S
C709 H732 0.950 . S
C710 C709 1.349 . S
C710 C722 1.349 . S
C711 C709 1.327 . S
C711 C727 1.429 . S
C711 H733 0.950 . S
C712 H708 0.949 . S
C712 C720 1.574 . S
C712 C728 1.368 . S
H713 C721 0.950 . S
H714 C719 0.950 . S
H715 C720 0.949 . S
H716 C722 0.950 . S
H717 C723 0.950 . S
H718 C724 0.949 . S
C719 H714 0.950 . S
C719 C721 1.327 . S
C719 C725 1.429 . S
C720 C712 1.574 . S
C720 H715 0.949 . S
C720 C726 1.368 . S
C721 C705 1.349 . S
C721 H713 0.950 . S
C721 C719 1.327 . S
C722 C710 1.349 . S
C722 H716 0.950 . S
C722 C723 1.327 . S
C723 H717 0.950 . S
C723 C722 1.327 . S
C723 C727 1.429 . S
C724 C707 1.574 . S
C724 H718 0.949 . S
C724 C728 1.368 . S
C725 C706 1.429 . S
C725 C719 1.429 . S
C725 C726 1.523 . S
C726 C707 1.368 . S
C726 C720 1.368 . S
C726 C725 1.523 . S
C727 C711 1.429 . S
C727 C723 1.429 . S
C727 C728 1.523 . S
C728 C712 1.368 . S
C728 C724 1.368 . S
C728 C727 1.523 . S
H729 C704 0.950 . S
H730 C706 0.950 . S
H731 C707 0.949 . S
H732 C709 0.950 . S
H733 C711 0.950 . S
C734 C735 1.349 . S
C734 C736 1.327 . S
C734 H759 0.950 . S
C735 C734 1.349 . S
C735 C751 1.349 . S
C736 C734 1.327 . S
C736 C755 1.429 . S
C736 H760 0.950 . S
C737 C754 1.574 . S
C737 C756 1.368 . S
C737 H761 0.949 . S
H738 C742 0.949 . S
C739 C740 1.349 . S
C739 C741 1.327 . S
C739 H762 0.950 . S
C740 C739 1.349 . S
C740 C752 1.349 . S
C741 C739 1.327 . S
C741 C757 1.429 . S
C741 H763 0.950 . S
C742 H738 0.949 . S
C742 C750 1.574 . S
C742 C758 1.368 . S
H743 C751 0.950 . S
H744 C749 0.950 . S
H745 C750 0.949 . S
H746 C752 0.950 . S
H747 C753 0.950 . S
H748 C754 0.949 . S
C749 H744 0.950 . S
C749 C751 1.327 . S
C749 C755 1.429 . S
C750 C742 1.574 . S
C750 H745 0.949 . S
C750 C756 1.368 . S
C751 C735 1.349 . S
C751 H743 0.950 . S
C751 C749 1.327 . S
C752 C740 1.349 . S
C752 H746 0.950 . S
C752 C753 1.327 . S
C753 H747 0.950 . S
C753 C752 1.327 . S
C753 C757 1.429 . S
C754 C737 1.574 . S
C754 H748 0.949 . S
C754 C758 1.368 . S
C755 C736 1.429 . S
C755 C749 1.429 . S
C755 C756 1.523 . S
C756 C737 1.368 . S
C756 C750 1.368 . S
C756 C755 1.523 . S
C757 C741 1.429 . S
C757 C753 1.429 . S
C757 C758 1.523 . S
C758 C742 1.368 . S
C758 C754 1.368 . S
C758 C757 1.523 . S
H759 C734 0.950 . S
H760 C736 0.950 . S
H761 C737 0.949 . S
H762 C739 0.950 . S
H763 C741 0.950 . S
C764 C765 1.349 . S
C764 C766 1.327 . S
C764 H789 0.950 . S
C765 C764 1.349 . S
C765 C781 1.349 . S
C766 C764 1.327 . S
C766 C785 1.429 . S
C766 H790 0.950 . S
C767 C784 1.574 . S
C767 C786 1.368 . S
C767 H791 0.949 . S
H768 C772 0.949 . S
C769 C770 1.349 . S
C769 C771 1.327 . S
C769 H792 0.950 . S
C770 C769 1.349 . S
C770 C782 1.349 . S
C771 C769 1.327 . S
C771 C787 1.429 . S
C771 H793 0.950 . S
C772 H768 0.949 . S
C772 C780 1.574 . S
C772 C788 1.368 . S
H773 C781 0.950 . S
H774 C779 0.950 . S
H775 C780 0.949 . S
H776 C782 0.950 . S
H777 C783 0.950 . S
H778 C784 0.949 . S
C779 H774 0.950 . S
C779 C781 1.327 . S
C779 C785 1.429 . S
C780 C772 1.574 . S
C780 H775 0.949 . S
C780 C786 1.368 . S
C781 C765 1.349 . S
C781 H773 0.950 . S
C781 C779 1.327 . S
C782 C770 1.349 . S
C782 H776 0.950 . S
C782 C783 1.327 . S
C783 H777 0.950 . S
C783 C782 1.327 . S
C783 C787 1.429 . S
C784 C767 1.574 . S
C784 H778 0.949 . S
C784 C788 1.368 . S
C785 C766 1.429 . S
C785 C779 1.429 . S
C785 C786 1.523 . S
C786 C767 1.368 . S
C786 C780 1.368 . S
C786 C785 1.523 . S
C787 C771 1.429 . S
C787 C783 1.429 . S
C787 C788 1.523 . S
C788 C772 1.368 . S
C788 C784 1.368 . S
C788 C787 1.523 . S
H789 C764 0.950 . S
H790 C766 0.950 . S
H791 C767 0.949 . S
H792 C769 0.950 . S
H793 C771 0.950 . S
C794 C795 1.349 . S
C794 C796 1.327 . S
C794 H819 0.950 . S
C795 C794 1.349 . S
C795 C811 1.349 . S
C796 C794 1.327 . S
C796 C815 1.429 . S
C796 H820 0.950 . S
C797 C814 1.574 . S
C797 C816 1.368 . S
C797 H821 0.949 . S
H798 C802 0.949 . S
C799 C800 1.349 . S
C799 C801 1.327 . S
C799 H822 0.950 . S
C800 C799 1.349 . S
C800 C812 1.349 . S
C801 C799 1.327 . S
C801 C817 1.429 . S
C801 H823 0.950 . S
C802 H798 0.949 . S
C802 C810 1.574 . S
C802 C818 1.368 . S
H803 C811 0.950 . S
H804 C809 0.950 . S
H805 C810 0.949 . S
H806 C812 0.950 . S
H807 C813 0.950 . S
H808 C814 0.949 . S
C809 H804 0.950 . S
C809 C811 1.327 . S
C809 C815 1.429 . S
C810 C802 1.574 . S
C810 H805 0.949 . S
C810 C816 1.368 . S
C811 C795 1.349 . S
C811 H803 0.950 . S
C811 C809 1.327 . S
C812 C800 1.349 . S
C812 H806 0.950 . S
C812 C813 1.327 . S
C813 H807 0.950 . S
C813 C812 1.327 . S
C813 C817 1.429 . S
C814 C797 1.574 . S
C814 H808 0.949 . S
C814 C818 1.368 . S
C815 C796 1.429 . S
C815 C809 1.429 . S
C815 C816 1.523 . S
C816 C797 1.368 . S
C816 C810 1.368 . S
C816 C815 1.523 . S
C817 C801 1.429 . S
C817 C813 1.429 . S
C817 C818 1.523 . S
C818 C802 1.368 . S
C818 C814 1.368 . S
C818 C817 1.523 . S
H819 C794 0.950 . S
H820 C796 0.950 . S
H821 C797 0.949 . S
H822 C799 0.950 . S
H823 C801 0.950 . S
C824 C825 1.349 . S
C824 C826 1.327 . S
C824 H849 0.950 . S
C825 C824 1.349 . S
C825 C841 1.349 . S
C826 C824 1.327 . S
C826 C845 1.429 . S
C826 H850 0.950 . S
C827 C844 1.574 . S
C827 C846 1.368 . S
C827 H851 0.949 . S
H828 C832 0.949 . S
C829 C830 1.349 . S
C829 C831 1.327 . S
C829 H852 0.950 . S
C830 C829 1.349 . S
C830 C842 1.349 . S
C831 C829 1.327 . S
C831 C847 1.429 . S
C831 H853 0.950 . S
C832 H828 0.949 . S
C832 C840 1.574 . S
C832 C848 1.368 . S
H833 C841 0.950 . S
H834 C839 0.950 . S
H835 C840 0.949 . S
H836 C842 0.950 . S
H837 C843 0.950 . S
H838 C844 0.949 . S
C839 H834 0.950 . S
C839 C841 1.327 . S
C839 C845 1.429 . S
C840 C832 1.574 . S
C840 H835 0.949 . S
C840 C846 1.368 . S
C841 C825 1.349 . S
C841 H833 0.950 . S
C841 C839 1.327 . S
C842 C830 1.349 . S
C842 H836 0.950 . S
C842 C843 1.327 . S
C843 H837 0.950 . S
C843 C842 1.327 . S
C843 C847 1.429 . S
C844 C827 1.574 . S
C844 H838 0.949 . S
C844 C848 1.368 . S
C845 C826 1.429 . S
C845 C839 1.429 . S
C845 C846 1.523 . S
C846 C827 1.368 . S
C846 C840 1.368 . S
C846 C845 1.523 . S
C847 C831 1.429 . S
C847 C843 1.429 . S
C847 C848 1.523 . S
C848 C832 1.368 . S
C848 C844 1.368 . S
C848 C847 1.523 . S
H849 C824 0.950 . S
H850 C826 0.950 . S
H851 C827 0.949 . S
H852 C829 0.950 . S
H853 C831 0.950 . S
C854 C855 1.349 . S
C854 C856 1.327 . S
C854 H879 0.950 . S
C855 C854 1.349 . S
C855 C871 1.349 . S
C856 C854 1.327 . S
C856 C875 1.429 . S
C856 H880 0.950 . S
C857 C874 1.574 . S
C857 C876 1.368 . S
C857 H881 0.949 . S
H858 C862 0.949 . S
C859 C860 1.349 . S
C859 C861 1.327 . S
C859 H882 0.950 . S
C860 C859 1.349 . S
C860 C872 1.349 . S
C861 C859 1.327 . S
C861 C877 1.429 . S
C861 H883 0.950 . S
C862 H858 0.949 . S
C862 C870 1.574 . S
C862 C878 1.368 . S
H863 C871 0.950 . S
H864 C869 0.950 . S
H865 C870 0.949 . S
H866 C872 0.950 . S
H867 C873 0.950 . S
H868 C874 0.949 . S
C869 H864 0.950 . S
C869 C871 1.327 . S
C869 C875 1.429 . S
C870 C862 1.574 . S
C870 H865 0.949 . S
C870 C876 1.368 . S
C871 C855 1.349 . S
C871 H863 0.950 . S
C871 C869 1.327 . S
C872 C860 1.349 . S
C872 H866 0.950 . S
C872 C873 1.327 . S
C873 H867 0.950 . S
C873 C872 1.327 . S
C873 C877 1.429 . S
C874 C857 1.574 . S
C874 H868 0.949 . S
C874 C878 1.368 . S
C875 C856 1.429 . S
C875 C869 1.429 . S
C875 C876 1.523 . S
C876 C857 1.368 . S
C876 C870 1.368 . S
C876 C875 1.523 . S
C877 C861 1.429 . S
C877 C873 1.429 . S
C877 C878 1.523 . S
C878 C862 1.368 . S
C878 C874 1.368 . S
C878 C877 1.523 . S
H879 C854 0.950 . S
H880 C856 0.950 . S
H881 C857 0.949 . S
H882 C859 0.950 . S
H883 C861 0.950 . S
C884 C885 1.349 . S
C884 C886 1.327 . S
C884 H909 0.950 . S
C885 C884 1.349 . S
C885 C901 1.349 . S
C886 C884 1.327 . S
C886 C905 1.429 . S
C886 H910 0.950 . S
C887 C904 1.574 . S
C887 C906 1.368 . S
C887 H911 0.949 . S
H888 C892 0.949 . S
C889 C890 1.349 . S
C889 C891 1.327 . S
C889 H912 0.950 . S
C890 C889 1.349 . S
C890 C902 1.349 . S
C891 C889 1.327 . S
C891 C907 1.429 . S
C891 H913 0.950 . S
C892 H888 0.949 . S
C892 C900 1.574 . S
C892 C908 1.368 . S
H893 C901 0.950 . S
H894 C899 0.950 . S
H895 C900 0.949 . S
H896 C902 0.950 . S
H897 C903 0.950 . S
H898 C904 0.949 . S
C899 H894 0.950 . S
C899 C901 1.327 . S
C899 C905 1.429 . S
C900 C892 1.574 . S
C900 H895 0.949 . S
C900 C906 1.368 . S
C901 C885 1.349 . S
C901 H893 0.950 . S
C901 C899 1.327 . S
C902 C890 1.349 . S
C902 H896 0.950 . S
C902 C903 1.327 . S
C903 H897 0.950 . S
C903 C902 1.327 . S
C903 C907 1.429 . S
C904 C887 1.574 . S
C904 H898 0.949 . S
C904 C908 1.368 . S
C905 C886 1.429 . S
C905 C899 1.429 . S
C905 C906 1.523 . S
C906 C887 1.368 . S
C906 C900 1.368 . S
C906 C905 1.523 . S
C907 C891 1.429 . S
C907 C903 1.429 . S
C907 C908 1.523 . S
C908 C892 1.368 . S
C908 C904 1.368 . S
C908 C907 1.523 . S
H909 C884 0.950 . S
H910 C886 0.950 . S
H911 C887 0.949 . S
H912 C889 0.950 . S
H913 C891 0.950 . S
C914 C915 1.349 . S
C914 C916 1.327 . S
C914 H939 0.950 . S
C915 C914 1.349 . S
C915 C931 1.349 . S
C916 C914 1.327 . S
C916 C935 1.429 . S
C916 H940 0.950 . S
C917 C934 1.574 . S
C917 C936 1.368 . S
C917 H941 0.949 . S
H918 C922 0.949 . S
C919 C920 1.349 . S
C919 C921 1.327 . S
C919 H942 0.950 . S
C920 C919 1.349 . S
C920 C932 1.349 . S
C921 C919 1.327 . S
C921 C937 1.429 . S
C921 H943 0.950 . S
C922 H918 0.949 . S
C922 C930 1.574 . S
C922 C938 1.368 . S
H923 C931 0.950 . S
H924 C929 0.950 . S
H925 C930 0.949 . S
H926 C932 0.950 . S
H927 C933 0.950 . S
H928 C934 0.949 . S
C929 H924 0.950 . S
C929 C931 1.327 . S
C929 C935 1.429 . S
C930 C922 1.574 . S
C930 H925 0.949 . S
C930 C936 1.368 . S
C931 C915 1.349 . S
C931 H923 0.950 . S
C931 C929 1.327 . S
C932 C920 1.349 . S
C932 H926 0.950 . S
C932 C933 1.327 . S
C933 H927 0.950 . S
C933 C932 1.327 . S
C933 C937 1.429 . S
C934 C917 1.574 . S
C934 H928 0.949 . S
C934 C938 1.368 . S
C935 C916 1.429 . S
C935 C929 1.429 . S
C935 C936 1.523 . S
C936 C917 1.368 . S
C936 C930 1.368 . S
C936 C935 1.523 . S
C937 C921 1.429 . S
C937 C933 1.429 . S
C937 C938 1.523 . S
C938 C922 1.368 . S
C938 C934 1.368 . S
C938 C937 1.523 . S
H939 C914 0.950 . S
H940 C916 0.950 . S
H941 C917 0.949 . S
H942 C919 0.950 . S
H943 C921 0.950 . S
C944 C945 1.349 . S
C944 C946 1.327 . S
C944 H969 0.950 . S
C945 C944 1.349 . S
C945 C961 1.349 . S
C946 C944 1.327 . S
C946 C965 1.429 . S
C946 H970 0.950 . S
C947 C964 1.574 . S
C947 C966 1.368 . S
C947 H971 0.949 . S
H948 C952 0.949 . S
C949 C950 1.349 . S
C949 C951 1.327 . S
C949 H972 0.950 . S
C950 C949 1.349 . S
C950 C962 1.349 . S
C951 C949 1.327 . S
C951 C967 1.429 . S
C951 H973 0.950 . S
C952 H948 0.949 . S
C952 C960 1.574 . S
C952 C968 1.368 . S
H953 C961 0.950 . S
H954 C959 0.950 . S
H955 C960 0.949 . S
H956 C962 0.950 . S
H957 C963 0.950 . S
H958 C964 0.949 . S
C959 H954 0.950 . S
C959 C961 1.327 . S
C959 C965 1.429 . S
C960 C952 1.574 . S
C960 H955 0.949 . S
C960 C966 1.368 . S
C961 C945 1.349 . S
C961 H953 0.950 . S
C961 C959 1.327 . S
C962 C950 1.349 . S
C962 H956 0.950 . S
C962 C963 1.327 . S
C963 H957 0.950 . S
C963 C962 1.327 . S
C963 C967 1.429 . S
C964 C947 1.574 . S
C964 H958 0.949 . S
C964 C968 1.368 . S
C965 C946 1.429 . S
C965 C959 1.429 . S
C965 C966 1.523 . S
C966 C947 1.368 . S
C966 C960 1.368 . S
C966 C965 1.523 . S
C967 C951 1.429 . S
C967 C963 1.429 . S
C967 C968 1.523 . S
C968 C952 1.368 . S
C968 C964 1.368 . S
C968 C967 1.523 . S
H969 C944 0.950 . S
H970 C946 0.950 . S
H971 C947 0.949 . S
H972 C949 0.950 . S
H973 C951 0.950 . S
C974 C975 1.349 . S
C974 C976 1.327 . S
C974 H999 0.950 . S
C975 C974 1.349 . S
C975 C991 1.349 . S
C976 C974 1.327 . S
C976 C995 1.429 . S
C976 H1000 0.950 . S
C977 C994 1.574 . S
C977 C996 1.368 . S
C977 H1001 0.949 . S
H978 C982 0.949 . S
C979 C980 1.349 . S
C979 C981 1.327 . S
C979 H1002 0.950 . S
C980 C979 1.349 . S
C980 C992 1.349 . S
C981 C979 1.327 . S
C981 C997 1.429 . S
C981 H1003 0.950 . S
C982 H978 0.949 . S
C982 C990 1.574 . S
C982 C998 1.368 . S
H983 C991 0.950 . S
H984 C989 0.950 . S
H985 C990 0.949 . S
H986 C992 0.950 . S
H987 C993 0.950 . S
H988 C994 0.949 . S
C989 H984 0.950 . S
C989 C991 1.327 . S
C989 C995 1.429 . S
C990 C982 1.574 . S
C990 H985 0.949 . S
C990 C996 1.368 . S
C991 C975 1.349 . S
C991 H983 0.950 . S
C991 C989 1.327 . S
C992 C980 1.349 . S
C992 H986 0.950 . S
C992 C993 1.327 . S
C993 H987 0.950 . S
C993 C992 1.327 . S
C993 C997 1.429 . S
C994 C977 1.574 . S
C994 H988 0.949 . S
C994 C998 1.368 . S
C995 C976 1.429 . S
C995 C989 1.429 . S
C995 C996 1.523 . S
C996 C977 1.368 . S
C996 C990 1.368 . S
C996 C995 1.523 . S
C997 C981 1.429 . S
C997 C993 1.429 . S
C997 C998 1.523 . S
C998 C982 1.368 . S
C998 C994 1.368 . S
C998 C997 1.523 . S
H999 C974 0.950 . S
H1000 C976 0.950 . S
H1001 C977 0.949 . S
H1002 C979 0.950 . S
H1003 C981 0.950 . S
C1004 C1005 1.349 . S
C1004 C1006 1.327 . S
C1004 H1029 0.950 . S
C1005 C1004 1.349 . S
C1005 C1021 1.349 . S
C1006 C1004 1.327 . S
C1006 C1025 1.429 . S
C1006 H1030 0.950 . S
C1007 C1024 1.574 . S
C1007 C1026 1.368 . S
C1007 H1031 0.949 . S
H1008 C1012 0.949 . S
C1009 C1010 1.349 . S
C1009 C1011 1.327 . S
C1009 H1032 0.950 . S
C1010 C1009 1.349 . S
C1010 C1022 1.349 . S
C1011 C1009 1.327 . S
C1011 C1027 1.429 . S
C1011 H1033 0.950 . S
C1012 H1008 0.949 . S
C1012 C1020 1.574 . S
C1012 C1028 1.368 . S
H1013 C1021 0.950 . S
H1014 C1019 0.950 . S
H1015 C1020 0.949 . S
H1016 C1022 0.950 . S
H1017 C1023 0.950 . S
H1018 C1024 0.949 . S
C1019 H1014 0.950 . S
C1019 C1021 1.327 . S
C1019 C1025 1.429 . S
C1020 C1012 1.574 . S
C1020 H1015 0.949 . S
C1020 C1026 1.368 . S
C1021 C1005 1.349 . S
C1021 H1013 0.950 . S
C1021 C1019 1.327 . S
C1022 C1010 1.349 . S
C1022 H1016 0.950 . S
C1022 C1023 1.327 . S
C1023 H1017 0.950 . S
C1023 C1022 1.327 . S
C1023 C1027 1.429 . S
C1024 C1007 1.574 . S
C1024 H1018 0.949 . S
C1024 C1028 1.368 . S
C1025 C1006 1.429 . S
C1025 C1019 1.429 . S
C1025 C1026 1.523 . S
C1026 C1007 1.368 . S
C1026 C1020 1.368 . S
C1026 C1025 1.523 . S
C1027 C1011 1.429 . S
C1027 C1023 1.429 . S
C1027 C1028 1.523 . S
C1028 C1012 1.368 . S
C1028 C1024 1.368 . S
C1028 C1027 1.523 . S
H1029 C1004 0.950 . S
H1030 C1006 0.950 . S
H1031 C1007 0.949 . S
H1032 C1009 0.950 . S
H1033 C1011 0.950 . S
C1034 C1035 1.349 . S
C1034 C1036 1.327 . S
C1034 H1059 0.950 . S
C1035 C1034 1.349 . S
C1035 C1051 1.349 . S
C1036 C1034 1.327 . S
C1036 C1055 1.429 . S
C1036 H1060 0.950 . S
C1037 C1054 1.574 . S
C1037 C1056 1.368 . S
C1037 H1061 0.949 . S
H1038 C1042 0.949 . S
C1039 C1040 1.349 . S
C1039 C1041 1.327 . S
C1039 H1062 0.950 . S
C1040 C1039 1.349 . S
C1040 C1052 1.349 . S
C1041 C1039 1.327 . S
C1041 C1057 1.429 . S
C1041 H1063 0.950 . S
C1042 H1038 0.949 . S
C1042 C1050 1.574 . S
C1042 C1058 1.368 . S
H1043 C1051 0.950 . S
H1044 C1049 0.950 . S
H1045 C1050 0.949 . S
H1046 C1052 0.950 . S
H1047 C1053 0.950 . S
H1048 C1054 0.949 . S
C1049 H1044 0.950 . S
C1049 C1051 1.327 . S
C1049 C1055 1.429 . S
C1050 C1042 1.574 . S
C1050 H1045 0.949 . S
C1050 C1056 1.368 . S
C1051 C1035 1.349 . S
C1051 H1043 0.950 . S
C1051 C1049 1.327 . S
C1052 C1040 1.349 . S
C1052 H1046 0.950 . S
C1052 C1053 1.327 . S
C1053 H1047 0.950 . S
C1053 C1052 1.327 . S
C1053 C1057 1.429 . S
C1054 C1037 1.574 . S
C1054 H1048 0.949 . S
C1054 C1058 1.368 . S
C1055 C1036 1.429 . S
C1055 C1049 1.429 . S
C1055 C1056 1.523 . S
C1056 C1037 1.368 . S
C1056 C1050 1.368 . S
C1056 C1055 1.523 . S
C1057 C1041 1.429 . S
C1057 C1053 1.429 . S
C1057 C1058 1.523 . S
C1058 C1042 1.368 . S
C1058 C1054 1.368 . S
C1058 C1057 1.523 . S
H1059 C1034 0.950 . S
H1060 C1036 0.950 . S
H1061 C1037 0.949 . S
H1062 C1039 0.950 . S
H1063 C1041 0.950 . S
C1064 C1065 1.349 . S
C1064 C1066 1.327 . S
C1064 H1089 0.950 . S
C1065 C1064 1.349 . S
C1065 C1081 1.349 . S
C1066 C1064 1.327 . S
C1066 C1085 1.429 . S
C1066 H1090 0.950 . S
C1067 C1084 1.574 . S
C1067 C1086 1.368 . S
C1067 H1091 0.949 . S
H1068 C1072 0.949 . S
C1069 C1070 1.349 . S
C1069 C1071 1.327 . S
C1069 H1092 0.950 . S
C1070 C1069 1.349 . S
C1070 C1082 1.349 . S
C1071 C1069 1.327 . S
C1071 C1087 1.429 . S
C1071 H1093 0.950 . S
C1072 H1068 0.949 . S
C1072 C1080 1.574 . S
C1072 C1088 1.368 . S
H1073 C1081 0.950 . S
H1074 C1079 0.950 . S
H1075 C1080 0.949 . S
H1076 C1082 0.950 . S
H1077 C1083 0.950 . S
H1078 C1084 0.949 . S
C1079 H1074 0.950 . S
C1079 C1081 1.327 . S
C1079 C1085 1.429 . S
C1080 C1072 1.574 . S
C1080 H1075 0.949 . S
C1080 C1086 1.368 . S
C1081 C1065 1.349 . S
C1081 H1073 0.950 . S
C1081 C1079 1.327 . S
C1082 C1070 1.349 . S
C1082 H1076 0.950 . S
C1082 C1083 1.327 . S
C1083 H1077 0.950 . S
C1083 C1082 1.327 . S
C1083 C1087 1.429 . S
C1084 C1067 1.574 . S
C1084 H1078 0.949 . S
C1084 C1088 1.368 . S
C1085 C1066 1.429 . S
C1085 C1079 1.429 . S
C1085 C1086 1.523 . S
C1086 C1067 1.368 . S
C1086 C1080 1.368 . S
C1086 C1085 1.523 . S
C1087 C1071 1.429 . S
C1087 C1083 1.429 . S
C1087 C1088 1.523 . S
C1088 C1072 1.368 . S
C1088 C1084 1.368 . S
C1088 C1087 1.523 . S
H1089 C1064 0.950 . S
H1090 C1066 0.950 . S
H1091 C1067 0.949 . S
H1092 C1069 0.950 . S
H1093 C1071 0.950 . S
C1094 C1095 1.349 . S
C1094 C1096 1.327 . S
C1094 H1119 0.950 . S
C1095 C1094 1.349 . S
C1095 C1111 1.349 . S
C1096 C1094 1.327 . S
C1096 C1115 1.429 . S
C1096 H1120 0.950 . S
C1097 C1114 1.574 . S
C1097 C1116 1.368 . S
C1097 H1121 0.949 . S
H1098 C1102 0.949 . S
C1099 C1100 1.349 . S
C1099 C1101 1.327 . S
C1099 H1122 0.950 . S
C1100 C1099 1.349 . S
C1100 C1112 1.349 . S
C1101 C1099 1.327 . S
C1101 C1117 1.429 . S
C1101 H1123 0.950 . S
C1102 H1098 0.949 . S
C1102 C1110 1.574 . S
C1102 C1118 1.368 . S
H1103 C1111 0.950 . S
H1104 C1109 0.950 . S
H1105 C1110 0.949 . S
H1106 C1112 0.950 . S
H1107 C1113 0.950 . S
H1108 C1114 0.949 . S
C1109 H1104 0.950 . S
C1109 C1111 1.327 . S
C1109 C1115 1.429 . S
C1110 C1102 1.574 . S
C1110 H1105 0.949 . S
C1110 C1116 1.368 . S
C1111 C1095 1.349 . S
C1111 H1103 0.950 . S
C1111 C1109 1.327 . S
C1112 C1100 1.349 . S
C1112 H1106 0.950 . S
C1112 C1113 1.327 . S
C1113 H1107 0.950 . S
C1113 C1112 1.327 . S
C1113 C1117 1.429 . S
C1114 C1097 1.574 . S
C1114 H1108 0.949 . S
C1114 C1118 1.368 . S
C1115 C1096 1.429 . S
C1115 C1109 1.429 . S
C1115 C1116 1.523 . S
C1116 C1097 1.368 . S
C1116 C1110 1.368 . S
C1116 C1115 1.523 . S
C1117 C1101 1.429 . S
C1117 C1113 1.429 . S
C1117 C1118 1.523 . S
C1118 C1102 1.368 . S
C1118 C1114 1.368 . S
C1118 C1117 1.523 . S
H1119 C1094 0.950 . S
H1120 C1096 0.950 . S
H1121 C1097 0.949 . S
H1122 C1099 0.950 . S
H1123 C1101 0.950 . S
C1124 C1125 1.349 . S
C1124 C1126 1.327 . S
C1124 H1149 0.950 . S
C1125 C1124 1.349 . S
C1125 C1141 1.349 . S
C1126 C1124 1.327 . S
C1126 C1145 1.429 . S
C1126 H1150 0.950 . S
C1127 C1144 1.574 . S
C1127 C1146 1.368 . S
C1127 H1151 0.949 . S
H1128 C1132 0.949 . S
C1129 C1130 1.349 . S
C1129 C1131 1.327 . S
C1129 H1152 0.950 . S
C1130 C1129 1.349 . S
C1130 C1142 1.349 . S
C1131 C1129 1.327 . S
C1131 C1147 1.429 . S
C1131 H1153 0.950 . S
C1132 H1128 0.949 . S
C1132 C1140 1.574 . S
C1132 C1148 1.368 . S
H1133 C1141 0.950 . S
H1134 C1139 0.950 . S
H1135 C1140 0.949 . S
H1136 C1142 0.950 . S
H1137 C1143 0.950 . S
H1138 C1144 0.949 . S
C1139 H1134 0.950 . S
C1139 C1141 1.327 . S
C1139 C1145 1.429 . S
C1140 C1132 1.574 . S
C1140 H1135 0.949 . S
C1140 C1146 1.368 . S
C1141 C1125 1.349 . S
C1141 H1133 0.950 . S
C1141 C1139 1.327 . S
C1142 C1130 1.349 . S
C1142 H1136 0.950 . S
C1142 C1143 1.327 . S
C1143 H1137 0.950 . S
C1143 C1142 1.327 . S
C1143 C1147 1.429 . S
C1144 C1127 1.574 . S
C1144 H1138 0.949 . S
C1144 C1148 1.368 . S
C1145 C1126 1.429 . S
C1145 C1139 1.429 . S
C1145 C1146 1.523 . S
C1146 C1127 1.368 . S
C1146 C1140 1.368 . S
C1146 C1145 1.523 . S
C1147 C1131 1.429 . S
C1147 C1143 1.429 . S
C1147 C1148 1.523 . S
C1148 C1132 1.368 . S
C1148 C1144 1.368 . S
C1148 C1147 1.523 . S
H1149 C1124 0.950 . S
H1150 C1126 0.950 . S
H1151 C1127 0.949 . S
H1152 C1129 0.950 . S
H1153 C1131 0.950 . S
C1154 C1155 1.349 . S
C1154 C1156 1.327 . S
C1154 H1179 0.950 . S
C1155 C1154 1.349 . S
C1155 C1171 1.349 . S
C1156 C1154 1.327 . S
C1156 C1175 1.429 . S
C1156 H1180 0.950 . S
C1157 C1174 1.574 . S
C1157 C1176 1.368 . S
C1157 H1181 0.949 . S
H1158 C1162 0.949 . S
C1159 C1160 1.349 . S
C1159 C1161 1.327 . S
C1159 H1182 0.950 . S
C1160 C1159 1.349 . S
C1160 C1172 1.349 . S
C1161 C1159 1.327 . S
C1161 C1177 1.429 . S
C1161 H1183 0.950 . S
C1162 H1158 0.949 . S
C1162 C1170 1.574 . S
C1162 C1178 1.368 . S
H1163 C1171 0.950 . S
H1164 C1169 0.950 . S
H1165 C1170 0.949 . S
H1166 C1172 0.950 . S
H1167 C1173 0.950 . S
H1168 C1174 0.949 . S
C1169 H1164 0.950 . S
C1169 C1171 1.327 . S
C1169 C1175 1.429 . S
C1170 C1162 1.574 . S
C1170 H1165 0.949 . S
C1170 C1176 1.368 . S
C1171 C1155 1.349 . S
C1171 H1163 0.950 . S
C1171 C1169 1.327 . S
C1172 C1160 1.349 . S
C1172 H1166 0.950 . S
C1172 C1173 1.327 . S
C1173 H1167 0.950 . S
C1173 C1172 1.327 . S
C1173 C1177 1.429 . S
C1174 C1157 1.574 . S
C1174 H1168 0.949 . S
C1174 C1178 1.368 . S
C1175 C1156 1.429 . S
C1175 C1169 1.429 . S
C1175 C1176 1.523 . S
C1176 C1157 1.368 . S
C1176 C1170 1.368 . S
C1176 C1175 1.523 . S
C1177 C1161 1.429 . S
C1177 C1173 1.429 . S
C1177 C1178 1.523 . S
C1178 C1162 1.368 . S
C1178 C1174 1.368 . S
C1178 C1177 1.523 . S
H1179 C1154 0.950 . S
H1180 C1156 0.950 . S
H1181 C1157 0.949 . S
H1182 C1159 0.950 . S
H1183 C1161 0.950 . S
C225 C67 1.378 . S
C230 C11 1.378 . S
C255 C81 1.378 . S
C260 C25 1.378 . S
C285 C95 1.378 . S
C290 C39 1.378 . S
C315 C109 1.378 . S
C320 C53 1.378 . S
C345 C179 1.378 . S
C350 C123 1.378 . S
C375 C193 1.378 . S
C380 C137 1.378 . S
C405 C151 1.378 . S
C410 C207 1.378 . S
C435 C221 1.378 . S
C440 C165 1.378 . S
C465 C5 1.459 . S
C470 C75 1.459 . S
C495 C89 1.458 . S
C500 C19 1.458 . S
C525 C33 1.458 . S
C530 C103 1.458 . S
C555 C61 1.459 . S
C560 C47 1.459 . S
C585 C187 1.459 . S
C590 C117 1.459 . S
C615 C201 1.458 . S
C620 C131 1.458 . S
C645 C145 1.458 . S
C650 C215 1.458 . S
C675 C159 1.459 . S
C680 C173 1.459 . S
C705 C219 1.422 . S
C710 C9 1.422 . S
C735 C177 1.422 . S
C740 C23 1.422 . S
C765 C191 1.422 . S
C770 C37 1.422 . S
C795 C205 1.422 . S
C800 C51 1.422 . S
C825 C135 1.422 . S
C830 C65 1.422 . S
C855 C149 1.422 . S
C860 C79 1.422 . S
C885 C93 1.422 . S
C890 C163 1.422 . S
C915 C107 1.422 . S
C920 C121 1.422 . S
C945 C182 1.329 . S
C950 C28 1.329 . S
C975 C196 1.329 . S
C980 C42 1.329 . S
C1005 C210 1.329 . S
C1010 C0 1.329 . S
C1035 C14 1.329 . S
C1040 C168 1.329 . S
C1065 C154 1.329 . S
C1070 C84 1.329 . S
C1095 C98 1.329 . S
C1100 C112 1.329 . S
C1125 C126 1.329 . S
C1130 C56 1.329 . S
C1155 C140 1.329 . S
C1160 C70 1.329 . S
