# Generated by pormake.
# Topology tfs, (6)-cn, num edge types: 1
# Building blocks:
#     Node 0, Type 0, BuildingBlock: VOLQOD_clean_sbu_1, # of connection points: 6
#     Node 1, Type 0, BuildingBlock: VOLQOD_clean_sbu_1, # of connection points: 6
#     Node 2, Type 0, BuildingBlock: VOLQOD_clean_sbu_1, # of connection points: 6
#     Node 3, Type 0, BuildingBlock: VOLQOD_clean_sbu_1, # of connection points: 6
#     Node 4, Type 0, BuildingBlock: VOLQOD_clean_sbu_1, # of connection points: 6
#     Node 5, Type 0, BuildingBlock: VOLQOD_clean_sbu_1, # of connection points: 6
#     Edge 6, Type (0, 0), BuildingBlock: KIFKEQ_clean_linker_1, # of connection points: 2
#     Edge 7, Type (0, 0), BuildingBlock: KIFKEQ_clean_linker_1, # of connection points: 2
#     Edge 8, Type (0, 0), BuildingBlock: KIFKEQ_clean_linker_1, # of connection points: 2
#     Edge 9, Type (0, 0), BuildingBlock: KIFKEQ_clean_linker_1, # of connection points: 2
#     Edge 10, Type (0, 0), BuildingBlock: KIFKEQ_clean_linker_1, # of connection points: 2
#     Edge 11, Type (0, 0), BuildingBlock: KIFKEQ_clean_linker_1, # of connection points: 2
#     Edge 12, Type (0, 0), BuildingBlock: KIFKEQ_clean_linker_1, # of connection points: 2
#     Edge 13, Type (0, 0), BuildingBlock: KIFKEQ_clean_linker_1, # of connection points: 2
#     Edge 14, Type (0, 0), BuildingBlock: KIFKEQ_clean_linker_1, # of connection points: 2
#     Edge 15, Type (0, 0), BuildingBlock: KIFKEQ_clean_linker_1, # of connection points: 2
#     Edge 16, Type (0, 0), BuildingBlock: KIFKEQ_clean_linker_1, # of connection points: 2
#     Edge 17, Type (0, 0), BuildingBlock: KIFKEQ_clean_linker_1, # of connection points: 2
#     Edge 18, Type (0, 0), BuildingBlock: KIFKEQ_clean_linker_1, # of connection points: 2
#     Edge 19, Type (0, 0), BuildingBlock: KIFKEQ_clean_linker_1, # of connection points: 2
#     Edge 20, Type (0, 0), BuildingBlock: KIFKEQ_clean_linker_1, # of connection points: 2
#     Edge 21, Type (0, 0), BuildingBlock: KIFKEQ_clean_linker_1, # of connection points: 2
#     Edge 22, Type (0, 0), BuildingBlock: KIFKEQ_clean_linker_1, # of connection points: 2
#     Edge 23, Type (0, 0), BuildingBlock: KIFKEQ_clean_linker_1, # of connection points: 2
# Relax obj value: 0.115
# Max RMSD: 0.091
# Mean RMSD: 0.091
data_MOF--net-tfs--node1-VOLQOD_clean_sbu_1--edge1-KIFKEQ_clean_linker_1
_symmetry_space_group_name_H-M    P1
_symmetry_Int_Tables_number       1
_symmetry_cell_setting            triclinic
loop_
_symmetry_equiv_pos_as_xyz
'x, y, z'
_cell_length_a     46.823163
_cell_length_b     46.967764
_cell_length_c     17.46436
_cell_angle_alpha  90.004981
_cell_angle_beta   90.009112
_cell_angle_gamma 119.89412
loop_
_atom_site_label
_atom_site_type_symbol
_atom_site_fract_x
_atom_site_fract_y
_atom_site_fract_z
_atom_type_partial_charge
O0 O 0.26241 0.47828 0.92597 0.0
Zn1 Zn 0.21338 0.45242 0.91331 0.0
O2 O 0.19333 0.41585 0.98387 0.0
Zn3 Zn 0.17357 0.37441 0.9255 0.0
Zn4 Zn 0.22745 0.41874 0.05209 0.0
Zn5 Zn 0.16022 0.41925 0.04491 0.0
O6 O 0.12496 0.3469 0.9502 0.0
O7 O 0.11593 0.38072 0.02218 0.0
O8 O 0.20293 0.43767 0.80468 0.0
O9 O 0.17683 0.38323 0.81102 0.0
O10 O 0.197 0.3487 0.94789 0.0
O11 O 0.23523 0.38161 0.03088 0.0
O12 O 0.21421 0.41537 0.16251 0.0
O13 O 0.19708 0.48373 0.93239 0.0
O14 O 0.16793 0.41746 0.15813 0.0
O15 O 0.1594 0.46128 0.02372 0.0
C16 C 0.28152 0.48015 0.97998 0.0
C17 C 0.10545 0.35354 -0.01304 0.0
C18 C 0.22181 0.35566 -0.00965 0.0
C19 C 0.18868 0.40971 0.77224 0.0
C20 C 0.19007 0.41539 0.19598 0.0
C21 C 0.17601 0.48456 0.97686 0.0
O22 O 0.27097 0.46033 0.03633 0.0
O23 O 0.7825 0.26569 0.92405 0.0
Zn24 Zn 0.75765 0.2169 0.91026 0.0
O25 O 0.77294 0.19529 0.98 0.0
Zn26 Zn 0.7929 0.17412 0.92016 0.0
Zn27 Zn 0.80523 0.22815 0.04892 0.0
Zn28 Zn 0.73572 0.16299 0.04053 0.0
O29 O 0.77039 0.12553 0.94456 0.0
O30 O 0.72845 0.11812 0.01813 0.0
O31 O 0.76123 0.20644 0.80113 0.0
O32 O 0.7873 0.17791 0.80619 0.0
O33 O 0.84182 0.19518 0.94195 0.0
O34 O 0.84894 0.23167 0.03193 0.0
O35 O 0.7938 0.21551 0.15887 0.0
O36 O 0.71038 0.20256 0.92932 0.0
O37 O 0.74475 0.1704 0.15397 0.0
O38 O 0.69376 0.16393 0.01847 0.0
C39 C 0.80113 0.2844 0.97686 0.0
C40 C 0.74429 0.10678 0.98212 0.0
C41 C 0.86019 0.21765 -0.01097 0.0
C42 C 0.77368 0.19105 0.76805 0.0
C43 C 0.76909 0.19208 0.19208 0.0
C44 C 0.68797 0.18156 0.97269 0.0
O45 O 0.81043 0.27317 0.03198 0.0
O46 O 0.50787 0.78322 0.93193 0.0
Zn47 Zn 0.53246 0.75884 0.91875 0.0
O48 O 0.56954 0.77458 -0.01191 0.0
Zn49 Zn 0.61046 0.79435 0.9274 0.0
Zn50 Zn 0.56858 0.80704 0.05603 0.0
Zn51 Zn 0.5653 0.73786 0.04975 0.0
O52 O 0.63704 0.77213 0.95138 0.0
O53 O 0.60435 0.73208 0.03129 0.0
O54 O 0.54622 0.76235 0.80951 0.0
O55 O 0.60084 0.7887 0.81373 0.0
O56 O 0.63796 0.8432 0.94852 0.0
O57 O 0.60851 0.85063 0.03804 0.0
O58 O 0.56974 0.79605 0.16643 0.0
O59 O 0.50033 0.7117 0.9384 0.0
O60 O 0.56564 0.74694 0.16258 0.0
O61 O 0.52306 0.69533 0.02667 0.0
C62 C 0.50776 0.80223 0.98366 0.0
C63 C 0.63096 0.74744 -0.00697 0.0
C64 C 0.63372 0.86171 -0.00506 0.0
C65 C 0.57398 0.77495 0.77601 0.0
C66 C 0.56815 0.7713 0.20017 0.0
C67 C 0.49944 0.68937 0.98118 0.0
O68 O 0.52851 0.8121 0.0384 0.0
O69 O 0.71955 0.50716 0.93189 0.0
Zn70 Zn 0.76866 0.53255 0.92031 0.0
O71 O 0.78875 0.56902 -0.00883 0.0
Zn72 Zn 0.80845 0.61061 0.93327 0.0
Zn73 Zn 0.75459 0.5659 0.05958 0.0
Zn74 Zn 0.82185 0.56546 0.05194 0.0
O75 O 0.85715 0.63815 0.95827 0.0
O76 O 0.86618 0.60401 0.02904 0.0
O77 O 0.77954 0.5475 0.81192 0.0
O78 O 0.80541 0.60193 0.8186 0.0
O79 O 0.78459 0.63606 0.95553 0.0
O80 O 0.74651 0.60285 0.03839 0.0
O81 O 0.76792 0.56928 0.16998 0.0
O82 O 0.78462 0.50091 0.93934 0.0
O83 O 0.81424 0.56727 0.16531 0.0
O84 O 0.82253 0.52332 0.03028 0.0
C85 C 0.70042 0.50507 -0.01392 0.0
C86 C 0.87667 0.63132 -0.0056 0.0
C87 C 0.75967 0.6288 -0.00213 0.0
C88 C 0.79377 0.57549 0.77966 0.0
C89 C 0.79212 0.56932 0.20331 0.0
C90 C 0.80577 0.50002 0.98351 0.0
O91 O 0.71104 0.52437 0.0434 0.0
O92 O 0.20355 0.72069 0.93234 0.0
Zn93 Zn 0.22682 0.76933 0.91824 0.0
O94 O 0.21001 0.79012 -0.01382 0.0
Zn95 Zn 0.18964 0.81033 0.92412 0.0
Zn96 Zn 0.17761 0.75646 0.05376 0.0
Zn97 Zn 0.24616 0.82326 0.04828 0.0
O98 O 0.21089 0.85888 0.94695 0.0
O99 O 0.25091 0.86738 0.02862 0.0
O100 O 0.22182 0.77766 0.80871 0.0
O101 O 0.19587 0.80632 0.81072 0.0
O102 O 0.14052 0.78855 0.94547 0.0
O103 O 0.13392 0.75329 0.03819 0.0
O104 O 0.18948 0.76747 0.16395 0.0
O105 O 0.27456 0.786 0.93773 0.0
O106 O 0.23666 0.81473 0.16108 0.0
O107 O 0.28956 0.82465 0.02652 0.0
C108 C 0.18323 0.70118 0.98158 0.0
C109 C 0.23521 0.87792 -0.01087 0.0
C110 C 0.12239 0.76667 -0.006 0.0
C111 C 0.20919 0.79252 0.77407 0.0
C112 C 0.21329 0.79146 0.19817 0.0
C113 C 0.29645 0.80769 0.98101 0.0
O114 O 0.17193 0.71147 0.03437 0.0
O115 O 0.47552 0.20674 0.92135 0.0
Zn116 Zn 0.44907 0.22929 0.90975 0.0
O117 O 0.41249 0.21238 0.98049 0.0
Zn118 Zn 0.37099 0.19044 0.92177 0.0
Zn119 Zn 0.41604 0.18145 0.04813 0.0
Zn120 Zn 0.41559 0.24845 0.0425 0.0
O121 O 0.34307 0.21113 0.94654 0.0
O122 O 0.37572 0.25261 0.02351 0.0
O123 O 0.43431 0.22505 0.80133 0.0
O124 O 0.37975 0.19596 0.80731 0.0
O125 O 0.34561 0.14138 0.94434 0.0
O126 O 0.3791 0.13664 0.02695 0.0
O127 O 0.41286 0.19093 0.1589 0.0
O128 O 0.48002 0.27667 0.92928 0.0
O129 O 0.41488 0.2391 0.15526 0.0
O130 O 0.45733 0.29171 0.02051 0.0
C131 C 0.4777 0.18954 0.97484 0.0
C132 C 0.34882 0.23608 -0.01315 0.0
C133 C 0.35299 0.12385 -0.01329 0.0
C134 C 0.40631 0.21097 0.76873 0.0
C135 C 0.41302 0.215 0.19276 0.0
C136 C 0.48072 0.29848 0.9736 0.0
O137 O 0.45791 0.17997 0.03136 0.0
H138 H 0.30518 0.23152 0.8764 0.0
H139 H 0.33698 0.26472 0.10761 0.0
H140 H 0.27042 0.25687 0.87918 0.0
H141 H 0.30128 0.28844 0.11211 0.0
H142 H 0.27998 0.3693 0.05467 0.0
H143 H 0.30603 0.33614 0.05528 0.0
H144 H 0.22357 0.25963 0.93109 0.0
H145 H 0.19757 0.29383 0.9281 0.0
C146 C 0.3041 0.24358 0.92831 0.0
C147 C 0.32418 0.24679 -0.00875 0.0
C148 C 0.28411 0.25795 0.9301 0.0
C149 C 0.2836 0.27529 -0.00467 0.0
C150 C 0.30189 0.2762 0.06009 0.0
C151 C 0.32224 0.26248 0.05773 0.0
C152 C 0.26712 0.34534 0.02778 0.0
C153 C 0.23655 0.33418 -0.00838 0.0
C154 C 0.28203 0.32613 0.02867 0.0
C155 C 0.26669 0.29494 -0.0057 0.0
C156 C 0.23607 0.2836 0.9579 0.0
C157 C 0.22114 0.3031 0.95645 0.0
H158 H 0.05762 0.36082 0.05704 0.0
H159 H 0.07222 0.2921 0.9212 0.0
H160 H -0.001 0.32284 0.05938 0.0
H161 H 0.01285 0.25336 0.92516 0.0
H162 H 0.90052 0.21886 0.87383 0.0
H163 H 0.96086 0.24798 0.8754 0.0
H164 H 0.9599 0.27097 0.11469 0.0
H165 H 0.90008 0.24309 0.11221 0.0
C166 C 0.04839 0.33744 0.02817 0.0
C167 C 0.06972 0.32954 -0.01099 0.0
C168 C 0.01468 0.31548 0.03009 0.0
C169 C 0.00128 0.28487 -0.00669 0.0
C170 C 0.02248 0.27681 0.95391 0.0
C171 C 0.05644 0.29894 0.9519 0.0
C172 C 0.91332 0.22964 0.92696 0.0
C173 C 0.89578 0.22934 -0.00751 0.0
C174 C 0.94781 0.24622 0.92796 0.0
C175 C 0.96512 0.26239 -0.00525 0.0
C176 C 0.9473 0.25958 0.06176 0.0
C177 C 0.91305 0.2435 0.06046 0.0
H178 H 0.68783 0.06007 0.04928 0.0
H179 H 0.77208 0.07227 0.92035 0.0
H180 H 0.66638 0.00143 0.05397 0.0
H181 H 0.75064 0.01293 0.92673 0.0
H182 H 0.64668 0.90284 0.11506 0.0
H183 H 0.67825 0.96248 0.11426 0.0
H184 H 0.70442 0.96098 0.87759 0.0
H185 H 0.67353 0.90085 0.87934 0.0
C186 C 0.70198 0.0503 0.02239 0.0
C187 C 0.73177 0.07097 0.98463 0.0
C188 C 0.68976 0.01659 0.02564 0.0
C189 C 0.70704 0.00254 -0.00833 0.0
C190 C 0.73676 0.02306 0.95333 0.0
C191 C 0.74905 0.05701 0.94991 0.0
C192 C 0.65961 0.91522 0.0632 0.0
C193 C 0.65726 0.8973 -0.00311 0.0
C194 C 0.67756 0.94939 0.0626 0.0
C195 C 0.69315 0.96646 -0.00468 0.0
C196 C 0.69268 0.94852 0.93033 0.0
C197 C 0.67496 0.91413 0.93124 0.0
H198 H 0.78341 0.69096 0.93775 0.0
H199 H 0.70046 0.61355 0.05874 0.0
H200 H 0.75632 0.72417 0.94 0.0
H201 H 0.67333 0.6457 0.05844 0.0
H202 H 0.64063 0.71613 0.11186 0.0
H203 H 0.67608 0.69216 0.11632 0.0
H204 H 0.70994 0.72699 0.88664 0.0
H205 H 0.67539 0.75254 0.88395 0.0
C206 C 0.75948 0.68104 0.96469 0.0
C207 C 0.74427 0.64973 -0.00137 0.0
C208 C 0.74391 0.69997 0.96568 0.0
C209 C 0.7128 0.68781 0.00028 0.0
C210 C 0.69765 0.65636 0.03327 0.0
C211 C 0.71321 0.63773 0.03292 0.0
C212 C 0.65588 0.71895 0.06258 0.0
C213 C 0.6549 0.73575 -0.00287 0.0
C214 C 0.67612 0.70508 0.06492 0.0
C215 C 0.69533 0.70697 0.00115 0.0
C216 C 0.69556 0.72515 0.93686 0.0
C217 C 0.67566 0.73963 0.93511 0.0
H218 H 0.08257 0.74122 0.11742 0.0
H219 H 0.08174 0.76504 0.87888 0.0
H220 H 0.02276 0.71338 0.12035 0.0
H221 H 0.0214 0.73598 0.88097 0.0
H222 H 0.91018 0.69262 0.92787 0.0
H223 H 0.96966 0.731 0.93096 0.0
H224 H 0.98314 0.66154 0.06611 0.0
H225 H 0.92443 0.62392 0.06463 0.0
C226 C 0.06953 0.74072 0.0657 0.0
C227 C 0.08672 0.7548 -0.00241 0.0
C228 C 0.03526 0.72464 0.06727 0.0
C229 C 0.01731 0.72177 0.00042 0.0
C230 C 0.03454 0.73779 0.93344 0.0
C231 C 0.06904 0.75435 0.93215 0.0
C232 C 0.9259 0.68571 0.95862 0.0
C233 C 0.91247 0.65521 -0.0038 0.0
C234 C 0.95993 0.70764 0.96011 0.0
C235 C 0.98108 0.69948 -0.00053 0.0
C236 C 0.96753 0.66898 0.03679 0.0
C237 C 0.93375 0.64722 0.03537 0.0
H238 H 0.2306 0.91622 0.87703 0.0
H239 H 0.2642 0.91911 0.10867 0.0
H240 H 0.25551 0.97607 0.87812 0.0
H241 H 0.28753 0.97831 0.11138 0.0
H242 H 0.36762 0.08024 0.05156 0.0
H243 H 0.33507 0.0212 0.05333 0.0
H244 H 0.2574 0.02538 0.929 0.0
H245 H 0.29099 0.08547 0.92488 0.0
C246 C 0.2427 0.92962 0.92863 0.0
C247 C 0.24611 0.91323 -0.00777 0.0
C248 C 0.25679 0.96383 0.92946 0.0
C249 C 0.27408 0.98204 -0.00567 0.0
C250 C 0.27529 0.96517 0.05964 0.0
C251 C 0.26183 0.93123 0.05827 0.0
C252 C 0.34354 0.06881 0.02485 0.0
C253 C 0.33187 0.08769 -0.01162 0.0
C254 C 0.32468 0.03478 0.02643 0.0
C255 C 0.29335 0.01849 -0.00759 0.0
C256 C 0.2815 0.03722 0.95559 0.0
C257 C 0.30065 0.07158 0.95348 0.0
H258 H 0.18247 0.6666 0.85643 0.0
H259 H 0.16366 0.65708 0.09979 0.0
H260 H 0.17455 0.6114 0.85244 0.0
H261 H 0.15714 0.6021 0.09665 0.0
H262 H 0.13163 0.49562 0.0564 0.0
H263 H 0.1271 0.54536 0.05464 0.0
H264 H 0.20785 0.58963 0.89371 0.0
H265 H 0.21165 0.54022 0.89352 0.0
C266 C 0.1765 0.65258 0.90909 0.0
C267 C 0.17416 0.66627 0.9786 0.0
C268 C 0.17211 0.621 0.90693 0.0
C269 C 0.16594 0.60257 0.97451 0.0
C270 C 0.16174 0.61555 0.04348 0.0
C271 C 0.16561 0.64709 0.0454 0.0
C272 C 0.14817 0.51593 0.02019 0.0
C273 C 0.17195 0.51387 0.97501 0.0
C274 C 0.14567 0.54445 0.01945 0.0
C275 C 0.16694 0.57142 0.9736 0.0
C276 C 0.19051 0.56912 0.92832 0.0
C277 C 0.19287 0.54074 0.92872 0.0
H278 H 0.51352 0.19127 0.85049 0.0
H279 H 0.50311 0.17087 0.09329 0.0
H280 H 0.56158 0.18433 0.84744 0.0
H281 H 0.55212 0.16509 0.09084 0.0
H282 H 0.66957 0.21929 0.89175 0.0
H283 H 0.61672 0.21677 0.89135 0.0
H284 H 0.57805 0.13433 0.04708 0.0
H285 H 0.63179 0.13747 0.04937 0.0
C286 C 0.52149 0.18523 0.90325 0.0
C287 C 0.5048 0.18204 0.97233 0.0
C288 C 0.54913 0.18139 0.90158 0.0
C289 C 0.56106 0.17472 0.96914 0.0
C290 C 0.54348 0.17002 0.03768 0.0
C291 C 0.5155 0.1735 0.03918 0.0
C292 C 0.64984 0.20044 0.92571 0.0
C293 C 0.65498 0.17858 0.97067 0.0
C294 C 0.61935 0.19884 0.92498 0.0
C295 C 0.593 0.17517 0.96868 0.0
C296 C 0.59793 0.15302 0.01323 0.0
C297 C 0.62866 0.15473 0.01426 0.0
H298 H 0.48736 0.6335 0.05948 0.0
H299 H 0.44378 0.67055 0.89782 0.0
H300 H 0.43695 0.57983 0.05668 0.0
H301 H 0.39373 0.61789 0.8969 0.0
H302 H 0.31648 0.51533 0.85607 0.0
H303 H 0.37159 0.5629 0.854 0.0
H304 H 0.37984 0.55398 0.09826 0.0
H305 H 0.32494 0.50541 0.09974 0.0
C306 C 0.46715 0.63022 0.02333 0.0
C307 C 0.46969 0.65634 0.9788 0.0
C308 C 0.43823 0.59955 0.02201 0.0
C309 C 0.41137 0.59447 0.97617 0.0
C310 C 0.41414 0.62061 0.93153 0.0
C311 C 0.44289 0.65102 0.93258 0.0
C312 C 0.33017 0.52329 0.90924 0.0
C313 C 0.31621 0.5069 0.97824 0.0
C314 C 0.36173 0.55066 0.90813 0.0
C315 C 0.37992 0.56264 0.9762 0.0
C316 C 0.36659 0.54531 0.04473 0.0
C317 C 0.33506 0.51758 0.04567 0.0
H318 H 0.84965 0.48846 0.06392 0.0
H319 H 0.771 0.44499 0.89731 0.0
H320 H 0.85475 0.43906 0.05992 0.0
H321 H 0.77544 0.39591 0.89508 0.0
H322 H 0.8189 0.32697 0.09807 0.0
H323 H 0.82462 0.38162 0.09823 0.0
H324 H 0.81004 0.37546 0.85308 0.0
H325 H 0.80308 0.3206 0.85353 0.0
C326 C 0.83352 0.46847 0.02645 0.0
C327 C 0.80997 0.47077 0.98085 0.0
C328 C 0.83635 0.44014 0.0244 0.0
C329 C 0.81569 0.41359 0.97672 0.0
C330 C 0.79231 0.4161 0.93113 0.0
C331 C 0.78958 0.44428 0.93293 0.0
C332 C 0.81744 0.33757 0.04415 0.0
C333 C 0.80998 0.31932 0.97598 0.0
C334 C 0.82083 0.36893 0.04416 0.0
C335 C 0.81717 0.38268 0.97586 0.0
C336 C 0.81207 0.36524 0.90704 0.0
C337 C 0.80825 0.33385 0.9072 0.0
H338 H 0.35144 0.85153 0.06262 0.0
H339 H 0.31758 0.7733 0.89577 0.0
H340 H 0.40603 0.85642 0.06101 0.0
H341 H 0.37111 0.77749 0.89596 0.0
H342 H 0.47415 0.8042 0.85893 0.0
H343 H 0.42634 0.81156 0.85604 0.0
H344 H 0.43329 0.82626 0.10116 0.0
H345 H 0.48221 0.82018 0.10339 0.0
C346 C 0.35561 0.83548 0.02553 0.0
C347 C 0.33009 0.81207 0.97925 0.0
C348 C 0.38683 0.83817 0.02489 0.0
C349 C 0.39309 0.81753 0.97793 0.0
C350 C 0.36753 0.79435 0.93152 0.0
C351 C 0.33659 0.79176 0.93192 0.0
C352 C 0.46575 0.80946 0.91208 0.0
C353 C 0.48162 0.81115 0.98154 0.0
C354 C 0.43823 0.81352 0.91053 0.0
C355 C 0.42548 0.81878 0.97861 0.0
C356 C 0.44249 0.82236 0.04762 0.0
C357 C 0.47044 0.81875 0.04899 0.0
H358 H 0.66498 0.47357 0.85943 0.0
H359 H 0.65699 0.47769 0.1051 0.0
H360 H 0.60918 0.42724 0.85373 0.0
H361 H 0.60141 0.4302 0.09993 0.0
H362 H 0.49369 0.35287 0.05971 0.0
H363 H 0.54446 0.40627 0.0604 0.0
H364 H 0.58554 0.37134 0.88722 0.0
H365 H 0.53514 0.3191 0.88461 0.0
C366 C 0.65124 0.46454 0.91228 0.0
C367 C 0.66551 0.47894 0.98282 0.0
C368 C 0.61928 0.43789 0.9091 0.0
C369 C 0.60098 0.42456 0.97652 0.0
C370 C 0.6147 0.43995 0.04685 0.0
C371 C 0.64662 0.46703 0.0499 0.0
C372 C 0.51348 0.35684 0.02121 0.0
C373 C 0.51029 0.33166 0.97215 0.0
C374 C 0.54262 0.38734 0.02193 0.0
C375 C 0.56907 0.39319 0.97364 0.0
C376 C 0.56552 0.36808 0.92402 0.0
C377 C 0.53655 0.33787 0.92302 0.0
H378 H 0.17758 0.35879 0.67687 0.0
H379 H 0.19371 0.45778 0.6767 0.0
H380 H 0.17566 0.35826 0.53659 0.0
H381 H 0.19148 0.45699 0.53728 0.0
H382 H 0.22212 0.39469 0.29193 0.0
H383 H 0.21883 0.39089 0.4314 0.0
H384 H 0.14935 0.42594 0.43066 0.0
H385 H 0.15234 0.42955 0.29095 0.0
C386 C 0.18045 0.38028 0.64701 0.0
C387 C 0.18597 0.40838 0.68779 0.0
C388 C 0.17949 0.38001 0.5669 0.0
C389 C 0.18341 0.40759 0.52635 0.0
C390 C 0.18812 0.43533 0.56718 0.0
C391 C 0.18962 0.43581 0.64698 0.0
C392 C 0.20607 0.40152 0.32142 0.0
C393 C 0.18762 0.4126 0.28041 0.0
C394 C 0.20401 0.39907 0.40117 0.0
C395 C 0.18383 0.40809 0.44159 0.0
C396 C 0.16522 0.41898 0.40074 0.0
C397 C 0.16689 0.42096 0.32086 0.0
H398 H 0.81117 0.17682 0.67208 0.0
H399 H 0.73223 0.19937 0.67325 0.0
H400 H 0.80933 0.1748 0.53192 0.0
H401 H 0.7303 0.19703 0.53377 0.0
H402 H 0.8219 0.22198 0.28808 0.0
H403 H 0.82215 0.21884 0.42751 0.0
H404 H 0.71679 0.15409 0.42678 0.0
H405 H 0.71641 0.15689 0.28688 0.0
C406 C 0.79331 0.1811 0.64253 0.0
C407 C 0.77199 0.18845 0.68363 0.0
C408 C 0.79235 0.18006 0.56249 0.0
C409 C 0.76967 0.18575 0.52232 0.0
C410 C 0.74784 0.19229 0.56344 0.0
C411 C 0.74914 0.19386 0.64323 0.0
C412 C 0.79877 0.20702 0.31755 0.0
C413 C 0.76909 0.1898 0.2765 0.0
C414 C 0.79899 0.20503 0.39727 0.0
C415 C 0.76951 0.1862 0.43764 0.0
C416 C 0.73983 0.16889 0.39682 0.0
C417 C 0.73965 0.17045 0.3169 0.0
H418 H 0.52414 0.7337 0.68153 0.0
H419 H 0.62531 0.81273 0.67976 0.0
H420 H 0.52422 0.73218 0.542 0.0
H421 H 0.62514 0.81127 0.53958 0.0
H422 H 0.59015 0.82388 0.29635 0.0
H423 H 0.5934 0.82401 0.43585 0.0
H424 H 0.5538 0.71904 0.43463 0.0
H425 H 0.55074 0.71877 0.29483 0.0
C426 C 0.54642 0.75071 0.65136 0.0
C427 C 0.5747 0.77345 0.69159 0.0
C428 C 0.54648 0.74966 0.57156 0.0
C429 C 0.57466 0.77162 0.53031 0.0
C430 C 0.60305 0.79421 0.57028 0.0
C431 C 0.60317 0.79494 0.65033 0.0
C432 C 0.58213 0.80081 0.32575 0.0
C433 C 0.57004 0.77128 0.28462 0.0
C434 C 0.58427 0.80097 0.40548 0.0
C435 C 0.57391 0.77156 0.4457 0.0
C436 C 0.56182 0.74202 0.40479 0.0
C437 C 0.56014 0.74191 0.32491 0.0
H438 H 0.80463 0.6263 0.68415 0.0
H439 H 0.78936 0.52764 0.68426 0.0
H440 H 0.80658 0.62679 0.54386 0.0
H441 H 0.79162 0.52837 0.54486 0.0
H442 H 0.83018 0.55553 0.29821 0.0
H443 H 0.83338 0.55937 0.4379 0.0
H444 H 0.76354 0.59396 0.43881 0.0
H445 H 0.76003 0.58993 0.29939 0.0
C446 C 0.80196 0.60488 0.65435 0.0
C447 C 0.79665 0.57688 0.69522 0.0
C448 C 0.80294 0.60512 0.57422 0.0
C449 C 0.79925 0.57761 0.53374 0.0
C450 C 0.7948 0.54999 0.57468 0.0
C451 C 0.79328 0.54953 0.65448 0.0
C452 C 0.81559 0.56406 0.32816 0.0
C453 C 0.79469 0.57222 0.28775 0.0
C454 C 0.81739 0.56618 0.40804 0.0
C455 C 0.79874 0.57701 0.44895 0.0
C456 C 0.77839 0.58583 0.40856 0.0
C457 C 0.77621 0.58324 0.32883 0.0
H458 H 0.24819 0.84457 0.2917 0.0
H459 H 0.17815 0.74042 0.2955 0.0
H460 H 0.24701 0.84576 0.43184 0.0
H461 H 0.17732 0.74173 0.43501 0.0
H462 H 0.21948 0.75269 0.67887 0.0
H463 H 0.22092 0.75345 0.5395 0.0
H464 H 0.20255 0.83484 0.53794 0.0
H465 H 0.20078 0.83404 0.67827 0.0
C466 C 0.23269 0.82196 0.32238 0.0
C467 C 0.21332 0.79238 0.28267 0.0
C468 C 0.23185 0.82272 0.40234 0.0
C469 C 0.21208 0.79384 0.4438 0.0
C470 C 0.1929 0.76428 0.40419 0.0
C471 C 0.19333 0.76359 0.32442 0.0
C472 C 0.21576 0.7708 0.64901 0.0
C473 C 0.20994 0.79328 0.68954 0.0
C474 C 0.21646 0.77111 0.56927 0.0
C475 C 0.2118 0.79415 0.52833 0.0
C476 C 0.20638 0.81694 0.5685 0.0
C477 C 0.20517 0.81633 0.64855 0.0
H478 H 0.4543 0.25443 0.67371 0.0
H479 H 0.35577 0.17056 0.67294 0.0
H480 H 0.45391 0.25566 0.53431 0.0
H481 H 0.35561 0.17175 0.53262 0.0
H482 H 0.39327 0.16256 0.28878 0.0
H483 H 0.38919 0.16201 0.42823 0.0
H484 H 0.42258 0.26585 0.42717 0.0
H485 H 0.4265 0.26653 0.28761 0.0
C486 C 0.4325 0.23629 0.64378 0.0
C487 C 0.40509 0.21228 0.6843 0.0
C488 C 0.43224 0.23717 0.56399 0.0
C489 C 0.40476 0.2138 0.52291 0.0
C490 C 0.37718 0.18993 0.56316 0.0
C491 C 0.37722 0.18936 0.64327 0.0
C492 C 0.39971 0.18528 0.31822 0.0
C493 C 0.41039 0.21464 0.27718 0.0
C494 C 0.39709 0.18487 0.39793 0.0
C495 C 0.40552 0.21387 0.43822 0.0
C496 C 0.41607 0.24319 0.39734 0.0
C497 C 0.41825 0.24354 0.31754 0.0
loop_
_geom_bond_atom_site_label_1
_geom_bond_atom_site_label_2
_geom_bond_distance
_geom_bond_site_symmetry_2
_ccdc_geom_bond_type
O0 Zn1 1.953 . S
O0 C16 1.225 . S
Zn1 O0 1.953 . S
Zn1 O2 1.949 1_556 S
Zn1 O8 1.919 . S
Zn1 O13 1.924 . S
O2 Zn1 1.949 1_554 S
O2 Zn3 1.923 1_554 S
O2 Zn4 1.950 . S
O2 Zn5 1.945 . S
Zn3 O2 1.923 1_556 S
Zn3 O6 1.933 . S
Zn3 O9 1.941 . S
Zn3 O10 1.965 . S
Zn4 O2 1.950 . S
Zn4 O11 1.938 . S
Zn4 O12 1.906 . S
Zn4 O22 1.953 . S
Zn5 O2 1.945 . S
Zn5 O7 1.932 . S
Zn5 O14 1.977 . S
Zn5 O15 1.910 . S
O6 Zn3 1.933 . S
O6 C17 1.230 . S
O7 Zn5 1.932 . S
O7 C17 1.303 1_554 S
O8 Zn1 1.919 . S
O8 C19 1.253 . S
O9 Zn3 1.941 . S
O9 C19 1.283 . S
O10 Zn3 1.965 . S
O10 C18 1.303 1_556 S
O11 Zn4 1.938 . S
O11 C18 1.247 . S
O12 Zn4 1.906 . S
O12 C20 1.304 . S
O13 Zn1 1.924 . S
O13 C21 1.311 . S
O14 Zn5 1.977 . S
O14 C20 1.272 . S
O15 Zn5 1.910 . S
O15 C21 1.231 1_554 S
C16 O0 1.225 . S
C16 O22 1.298 1_556 S
C17 O6 1.230 . S
C17 O7 1.303 1_556 S
C18 O10 1.303 1_554 S
C18 O11 1.247 . S
C19 O8 1.253 . S
C19 O9 1.283 . S
C20 O12 1.304 . S
C20 O14 1.272 . S
C21 O13 1.311 . S
C21 O15 1.231 1_556 S
O22 Zn4 1.953 . S
O22 C16 1.298 1_554 S
O23 Zn24 1.953 . S
O23 C39 1.225 . S
Zn24 O23 1.953 . S
Zn24 O25 1.949 1_556 S
Zn24 O31 1.919 . S
Zn24 O36 1.924 . S
O25 Zn24 1.949 1_554 S
O25 Zn26 1.923 1_554 S
O25 Zn27 1.950 . S
O25 Zn28 1.945 . S
Zn26 O25 1.923 1_556 S
Zn26 O29 1.933 . S
Zn26 O32 1.941 . S
Zn26 O33 1.965 . S
Zn27 O25 1.950 . S
Zn27 O34 1.938 . S
Zn27 O35 1.906 . S
Zn27 O45 1.953 . S
Zn28 O25 1.945 . S
Zn28 O30 1.932 . S
Zn28 O37 1.977 . S
Zn28 O38 1.910 . S
O29 Zn26 1.933 . S
O29 C40 1.230 . S
O30 Zn28 1.932 . S
O30 C40 1.303 1_554 S
O31 Zn24 1.919 . S
O31 C42 1.253 . S
O32 Zn26 1.941 . S
O32 C42 1.283 . S
O33 Zn26 1.965 . S
O33 C41 1.303 1_556 S
O34 Zn27 1.938 . S
O34 C41 1.247 . S
O35 Zn27 1.906 . S
O35 C43 1.304 . S
O36 Zn24 1.924 . S
O36 C44 1.311 . S
O37 Zn28 1.977 . S
O37 C43 1.272 . S
O38 Zn28 1.910 . S
O38 C44 1.231 1_554 S
C39 O23 1.225 . S
C39 O45 1.298 1_556 S
C40 O29 1.230 . S
C40 O30 1.303 1_556 S
C41 O33 1.303 1_554 S
C41 O34 1.247 . S
C42 O31 1.253 . S
C42 O32 1.283 . S
C43 O35 1.304 . S
C43 O37 1.272 . S
C44 O36 1.311 . S
C44 O38 1.231 1_556 S
O45 Zn27 1.953 . S
O45 C39 1.298 1_554 S
O46 Zn47 1.953 . S
O46 C62 1.225 . S
Zn47 O46 1.953 . S
Zn47 O48 1.949 1_556 S
Zn47 O54 1.919 . S
Zn47 O59 1.924 . S
O48 Zn47 1.949 1_554 S
O48 Zn49 1.923 1_554 S
O48 Zn50 1.950 . S
O48 Zn51 1.945 . S
Zn49 O48 1.923 1_556 S
Zn49 O52 1.933 . S
Zn49 O55 1.941 . S
Zn49 O56 1.965 . S
Zn50 O48 1.950 . S
Zn50 O57 1.938 . S
Zn50 O58 1.906 . S
Zn50 O68 1.953 . S
Zn51 O48 1.945 . S
Zn51 O53 1.932 . S
Zn51 O60 1.977 . S
Zn51 O61 1.910 . S
O52 Zn49 1.933 . S
O52 C63 1.230 . S
O53 Zn51 1.932 . S
O53 C63 1.303 1_554 S
O54 Zn47 1.919 . S
O54 C65 1.253 . S
O55 Zn49 1.941 . S
O55 C65 1.283 . S
O56 Zn49 1.965 . S
O56 C64 1.303 1_556 S
O57 Zn50 1.938 . S
O57 C64 1.247 . S
O58 Zn50 1.906 . S
O58 C66 1.304 . S
O59 Zn47 1.924 . S
O59 C67 1.311 . S
O60 Zn51 1.977 . S
O60 C66 1.272 . S
O61 Zn51 1.910 . S
O61 C67 1.231 1_554 S
C62 O46 1.225 . S
C62 O68 1.298 1_556 S
C63 O52 1.230 . S
C63 O53 1.303 1_556 S
C64 O56 1.303 1_554 S
C64 O57 1.247 . S
C65 O54 1.253 . S
C65 O55 1.283 . S
C66 O58 1.304 . S
C66 O60 1.272 . S
C67 O59 1.311 . S
C67 O61 1.231 1_556 S
O68 Zn50 1.953 . S
O68 C62 1.298 1_554 S
O69 Zn70 1.953 . S
O69 C85 1.225 . S
Zn70 O69 1.953 . S
Zn70 O71 1.949 1_556 S
Zn70 O77 1.919 . S
Zn70 O82 1.924 . S
O71 Zn70 1.949 1_554 S
O71 Zn72 1.923 1_554 S
O71 Zn73 1.950 . S
O71 Zn74 1.945 . S
Zn72 O71 1.923 1_556 S
Zn72 O75 1.933 . S
Zn72 O78 1.941 . S
Zn72 O79 1.965 . S
Zn73 O71 1.950 . S
Zn73 O80 1.938 . S
Zn73 O81 1.906 . S
Zn73 O91 1.953 . S
Zn74 O71 1.945 . S
Zn74 O76 1.932 . S
Zn74 O83 1.977 . S
Zn74 O84 1.910 . S
O75 Zn72 1.933 . S
O75 C86 1.230 . S
O76 Zn74 1.932 . S
O76 C86 1.303 1_554 S
O77 Zn70 1.919 . S
O77 C88 1.253 . S
O78 Zn72 1.941 . S
O78 C88 1.283 . S
O79 Zn72 1.965 . S
O79 C87 1.303 1_556 S
O80 Zn73 1.938 . S
O80 C87 1.247 . S
O81 Zn73 1.906 . S
O81 C89 1.304 . S
O82 Zn70 1.924 . S
O82 C90 1.311 . S
O83 Zn74 1.977 . S
O83 C89 1.272 . S
O84 Zn74 1.910 . S
O84 C90 1.231 1_554 S
C85 O69 1.225 . S
C85 O91 1.298 1_556 S
C86 O75 1.230 . S
C86 O76 1.303 1_556 S
C87 O79 1.303 1_554 S
C87 O80 1.247 . S
C88 O77 1.253 . S
C88 O78 1.283 . S
C89 O81 1.304 . S
C89 O83 1.272 . S
C90 O82 1.311 . S
C90 O84 1.231 1_556 S
O91 Zn73 1.953 . S
O91 C85 1.298 1_554 S
O92 Zn93 1.953 . S
O92 C108 1.225 . S
Zn93 O92 1.953 . S
Zn93 O94 1.949 1_556 S
Zn93 O100 1.919 . S
Zn93 O105 1.924 . S
O94 Zn93 1.949 1_554 S
O94 Zn95 1.923 1_554 S
O94 Zn96 1.950 . S
O94 Zn97 1.945 . S
Zn95 O94 1.923 1_556 S
Zn95 O98 1.933 . S
Zn95 O101 1.941 . S
Zn95 O102 1.965 . S
Zn96 O94 1.950 . S
Zn96 O103 1.938 . S
Zn96 O104 1.906 . S
Zn96 O114 1.953 . S
Zn97 O94 1.945 . S
Zn97 O99 1.932 . S
Zn97 O106 1.977 . S
Zn97 O107 1.910 . S
O98 Zn95 1.933 . S
O98 C109 1.230 . S
O99 Zn97 1.932 . S
O99 C109 1.303 1_554 S
O100 Zn93 1.919 . S
O100 C111 1.253 . S
O101 Zn95 1.941 . S
O101 C111 1.283 . S
O102 Zn95 1.965 . S
O102 C110 1.303 1_556 S
O103 Zn96 1.938 . S
O103 C110 1.247 . S
O104 Zn96 1.906 . S
O104 C112 1.304 . S
O105 Zn93 1.924 . S
O105 C113 1.311 . S
O106 Zn97 1.977 . S
O106 C112 1.272 . S
O107 Zn97 1.910 . S
O107 C113 1.231 1_554 S
C108 O92 1.225 . S
C108 O114 1.298 1_556 S
C109 O98 1.230 . S
C109 O99 1.303 1_556 S
C110 O102 1.303 1_554 S
C110 O103 1.247 . S
C111 O100 1.253 . S
C111 O101 1.283 . S
C112 O104 1.304 . S
C112 O106 1.272 . S
C113 O105 1.311 . S
C113 O107 1.231 1_556 S
O114 Zn96 1.953 . S
O114 C108 1.298 1_554 S
O115 Zn116 1.953 . S
O115 C131 1.225 . S
Zn116 O115 1.953 . S
Zn116 O117 1.949 1_556 S
Zn116 O123 1.919 . S
Zn116 O128 1.924 . S
O117 Zn116 1.949 1_554 S
O117 Zn118 1.923 1_554 S
O117 Zn119 1.950 . S
O117 Zn120 1.945 . S
Zn118 O117 1.923 1_556 S
Zn118 O121 1.933 . S
Zn118 O124 1.941 . S
Zn118 O125 1.965 . S
Zn119 O117 1.950 . S
Zn119 O126 1.938 . S
Zn119 O127 1.906 . S
Zn119 O137 1.953 . S
Zn120 O117 1.945 . S
Zn120 O122 1.932 . S
Zn120 O129 1.977 . S
Zn120 O130 1.910 . S
O121 Zn118 1.933 . S
O121 C132 1.230 . S
O122 Zn120 1.932 . S
O122 C132 1.303 1_554 S
O123 Zn116 1.919 . S
O123 C134 1.253 . S
O124 Zn118 1.941 . S
O124 C134 1.283 . S
O125 Zn118 1.965 . S
O125 C133 1.303 1_556 S
O126 Zn119 1.938 . S
O126 C133 1.247 . S
O127 Zn119 1.906 . S
O127 C135 1.304 . S
O128 Zn116 1.924 . S
O128 C136 1.311 . S
O129 Zn120 1.977 . S
O129 C135 1.272 . S
O130 Zn120 1.910 . S
O130 C136 1.231 1_554 S
C131 O115 1.225 . S
C131 O137 1.298 1_556 S
C132 O121 1.230 . S
C132 O122 1.303 1_556 S
C133 O125 1.303 1_554 S
C133 O126 1.247 . S
C134 O123 1.253 . S
C134 O124 1.283 . S
C135 O127 1.304 . S
C135 O129 1.272 . S
C136 O128 1.311 . S
C136 O130 1.231 1_556 S
O137 Zn119 1.953 . S
O137 C131 1.298 1_554 S
H138 C146 0.950 . S
H139 C151 0.950 . S
H140 C148 0.950 . S
H141 C150 0.950 . S
H142 C152 0.950 . S
H143 C154 0.950 . S
H144 C156 0.950 . S
H145 C157 0.950 . S
C146 H138 0.950 . S
C146 C147 1.393 . S
C146 C148 1.391 . S
C147 C146 1.393 . S
C147 C151 1.385 1_556 S
C148 H140 0.950 . S
C148 C146 1.391 . S
C148 C149 1.400 . S
C149 C148 1.400 . S
C149 C150 1.398 1_556 S
C149 C155 1.491 . S
C150 H141 0.950 . S
C150 C149 1.398 1_554 S
C150 C151 1.391 . S
C151 H139 0.950 . S
C151 C147 1.385 1_554 S
C151 C150 1.391 . S
C152 H142 0.950 . S
C152 C153 1.386 1_554 S
C152 C154 1.391 . S
C153 C152 1.386 1_556 S
C153 C157 1.393 . S
C154 H143 0.950 . S
C154 C152 1.391 . S
C154 C155 1.400 1_554 S
C155 C149 1.491 . S
C155 C154 1.400 1_556 S
C155 C156 1.398 . S
C156 H144 0.950 . S
C156 C155 1.398 . S
C156 C157 1.391 . S
C157 H145 0.950 . S
C157 C153 1.393 . S
C157 C156 1.391 . S
H158 C166 0.950 . S
H159 C171 0.950 . S
H160 C168 0.949 1_554 S
H161 C170 0.950 . S
H162 C172 0.950 . S
H163 C174 0.950 . S
H164 C176 0.950 . S
H165 C177 0.950 . S
C166 H158 0.950 . S
C166 C167 1.386 . S
C166 C168 1.391 . S
C167 C166 1.386 . S
C167 C171 1.393 . S
C168 H160 0.949 1_556 S
C168 C166 1.391 . S
C168 C169 1.401 1_455 S
C169 C168 1.401 1_655 S
C169 C170 1.363 1_655 S
C169 C175 1.525 . S
C170 H161 0.950 . S
C170 C169 1.363 1_455 S
C170 C171 1.391 . S
C171 H159 0.950 . S
C171 C167 1.393 . S
C171 C170 1.391 . S
C172 H162 0.950 . S
C172 C173 1.386 . S
C172 C174 1.391 . S
C173 C172 1.386 . S
C173 C177 1.393 1_556 S
C174 H163 0.950 . S
C174 C172 1.391 . S
C174 C175 1.400 . S
C175 C169 1.525 . S
C175 C174 1.400 . S
C175 C176 1.398 1_556 S
C176 H164 0.950 . S
C176 C175 1.398 1_554 S
C176 C177 1.391 . S
C177 H165 0.950 . S
C177 C173 1.393 1_554 S
C177 C176 1.391 . S
H178 C186 0.950 . S
H179 C191 0.950 . S
H180 C188 0.950 . S
H181 C190 0.950 . S
H182 C192 0.950 . S
H183 C194 0.950 . S
H184 C196 0.950 . S
H185 C197 0.950 . S
C186 H178 0.950 . S
C186 C187 1.386 . S
C186 C188 1.391 . S
C187 C186 1.386 . S
C187 C191 1.393 1_556 S
C188 H180 0.950 . S
C188 C186 1.391 . S
C188 C189 1.372 1_545 S
C189 C188 1.372 1_565 S
C189 C190 1.392 1_566 S
C189 C195 1.525 . S
C190 H181 0.950 . S
C190 C189 1.392 1_544 S
C190 C191 1.391 . S
C191 H179 0.950 . S
C191 C187 1.393 1_554 S
C191 C190 1.391 . S
C192 H182 0.950 . S
C192 C193 1.386 1_554 S
C192 C194 1.391 . S
C193 C192 1.386 1_556 S
C193 C197 1.393 . S
C194 H183 0.950 . S
C194 C192 1.391 . S
C194 C195 1.400 1_554 S
C195 C189 1.525 . S
C195 C194 1.400 1_556 S
C195 C196 1.398 . S
C196 H184 0.950 . S
C196 C195 1.398 . S
C196 C197 1.391 . S
C197 H185 0.950 . S
C197 C193 1.393 . S
C197 C196 1.391 . S
H198 C206 0.950 . S
H199 C211 0.950 . S
H200 C208 0.950 . S
H201 C210 0.950 . S
H202 C212 0.950 . S
H203 C214 0.950 . S
H204 C216 0.950 . S
H205 C217 0.950 . S
C206 H198 0.950 . S
C206 C207 1.386 . S
C206 C208 1.391 . S
C207 C206 1.386 . S
C207 C211 1.393 1_556 S
C208 H200 0.950 . S
C208 C206 1.391 . S
C208 C209 1.400 . S
C209 C208 1.400 . S
C209 C210 1.398 1_556 S
C209 C215 1.491 . S
C210 H201 0.950 . S
C210 C209 1.398 1_554 S
C210 C211 1.391 . S
C211 H199 0.950 . S
C211 C207 1.393 1_554 S
C211 C210 1.391 . S
C212 H202 0.950 . S
C212 C213 1.386 1_554 S
C212 C214 1.391 . S
C213 C212 1.386 1_556 S
C213 C217 1.393 . S
C214 H203 0.950 . S
C214 C212 1.391 . S
C214 C215 1.400 1_554 S
C215 C209 1.491 . S
C215 C214 1.400 1_556 S
C215 C216 1.398 . S
C216 H204 0.950 . S
C216 C215 1.398 . S
C216 C217 1.391 . S
C217 H205 0.950 . S
C217 C213 1.393 . S
C217 C216 1.391 . S
H218 C226 0.950 . S
H219 C231 0.950 . S
H220 C228 0.950 . S
H221 C230 0.950 . S
H222 C232 0.950 . S
H223 C234 0.950 . S
H224 C236 0.950 . S
H225 C237 0.950 . S
C226 H218 0.950 . S
C226 C227 1.386 1_554 S
C226 C228 1.391 . S
C227 C226 1.386 1_556 S
C227 C231 1.393 . S
C228 H220 0.950 . S
C228 C226 1.391 . S
C228 C229 1.400 1_554 S
C229 C228 1.400 1_556 S
C229 C230 1.398 . S
C229 C235 1.525 . S
C230 H221 0.950 . S
C230 C229 1.398 . S
C230 C231 1.391 . S
C231 H219 0.950 . S
C231 C227 1.393 . S
C231 C230 1.391 . S
C232 H222 0.950 . S
C232 C233 1.386 . S
C232 C234 1.391 . S
C233 C232 1.386 . S
C233 C237 1.393 1_556 S
C234 H223 0.950 . S
C234 C232 1.391 . S
C234 C235 1.365 1_655 S
C235 C229 1.525 . S
C235 C234 1.365 1_455 S
C235 C236 1.399 1_456 S
C236 H224 0.950 . S
C236 C235 1.399 1_654 S
C236 C237 1.391 . S
C237 H225 0.950 . S
C237 C233 1.393 1_554 S
C237 C236 1.391 . S
H238 C246 0.950 . S
H239 C251 0.950 . S
H240 C248 0.950 . S
H241 C250 0.950 . S
H242 C252 0.950 . S
H243 C254 0.950 . S
H244 C256 0.950 . S
H245 C257 0.950 . S
C246 H238 0.950 . S
C246 C247 1.386 . S
C246 C248 1.391 . S
C247 C246 1.386 . S
C247 C251 1.393 1_556 S
C248 H240 0.950 . S
C248 C246 1.391 . S
C248 C249 1.388 1_565 S
C249 C248 1.388 1_545 S
C249 C250 1.377 1_546 S
C249 C255 1.525 . S
C250 H241 0.950 . S
C250 C249 1.377 1_564 S
C250 C251 1.391 . S
C251 H239 0.950 . S
C251 C247 1.393 1_554 S
C251 C250 1.391 . S
C252 H242 0.950 . S
C252 C253 1.386 1_554 S
C252 C254 1.391 . S
C253 C252 1.386 1_556 S
C253 C257 1.393 . S
C254 H243 0.950 . S
C254 C252 1.391 . S
C254 C255 1.400 1_554 S
C255 C249 1.525 . S
C255 C254 1.400 1_556 S
C255 C256 1.398 . S
C256 H244 0.950 . S
C256 C255 1.398 . S
C256 C257 1.391 . S
C257 H245 0.950 . S
C257 C253 1.393 . S
C257 C256 1.391 . S
H258 C266 0.950 . S
H259 C271 0.950 . S
H260 C268 0.950 . S
H261 C270 0.950 . S
H262 C272 0.950 . S
H263 C274 0.950 . S
H264 C276 0.950 . S
H265 C277 0.950 . S
C266 H258 0.950 . S
C266 C267 1.386 1_556 S
C266 C268 1.391 . S
C267 C266 1.386 1_554 S
C267 C271 1.393 . S
C268 H260 0.950 . S
C268 C266 1.391 . S
C268 C269 1.400 1_556 S
C269 C268 1.400 1_554 S
C269 C270 1.398 . S
C269 C275 1.490 1_554 S
C270 H261 0.950 . S
C270 C269 1.398 . S
C270 C271 1.391 . S
C271 H259 0.950 . S
C271 C267 1.393 . S
C271 C270 1.391 . S
C272 H262 0.950 . S
C272 C273 1.384 1_554 S
C272 C274 1.391 . S
C273 C272 1.384 1_556 S
C273 C277 1.394 . S
C274 H263 0.950 . S
C274 C272 1.391 . S
C274 C275 1.398 1_554 S
C275 C269 1.490 1_556 S
C275 C274 1.398 1_556 S
C275 C276 1.401 . S
C276 H264 0.950 . S
C276 C275 1.401 . S
C276 C277 1.391 . S
C277 H265 0.950 . S
C277 C273 1.394 . S
C277 C276 1.391 . S
H278 C286 0.950 . S
H279 C291 0.950 . S
H280 C288 0.950 . S
H281 C290 0.950 . S
H282 C292 0.950 . S
H283 C294 0.950 . S
H284 C296 0.950 . S
H285 C297 0.950 . S
C286 H278 0.950 . S
C286 C287 1.386 . S
C286 C288 1.391 . S
C287 C286 1.386 . S
C287 C291 1.393 1_556 S
C288 H280 0.950 . S
C288 C286 1.391 . S
C288 C289 1.400 . S
C289 C288 1.400 . S
C289 C290 1.398 1_556 S
C289 C295 1.491 1_556 S
C290 H281 0.950 . S
C290 C289 1.398 1_554 S
C290 C291 1.391 . S
C291 H279 0.950 . S
C291 C287 1.393 1_554 S
C291 C290 1.391 . S
C292 H282 0.950 . S
C292 C293 1.386 . S
C292 C294 1.391 . S
C293 C292 1.386 . S
C293 C297 1.393 1_554 S
C294 H283 0.950 . S
C294 C292 1.391 . S
C294 C295 1.400 . S
C295 C289 1.491 1_554 S
C295 C294 1.400 . S
C295 C296 1.398 1_554 S
C296 H284 0.950 . S
C296 C295 1.398 1_556 S
C296 C297 1.391 . S
C297 H285 0.950 . S
C297 C293 1.393 1_556 S
C297 C296 1.391 . S
H298 C306 0.950 . S
H299 C311 0.950 . S
H300 C308 0.950 . S
H301 C310 0.950 . S
H302 C312 0.950 . S
H303 C314 0.950 . S
H304 C316 0.950 . S
H305 C317 0.950 . S
C306 H298 0.950 . S
C306 C307 1.386 . S
C306 C308 1.391 . S
C307 C306 1.386 . S
C307 C311 1.393 1_554 S
C308 H300 0.950 . S
C308 C306 1.391 . S
C308 C309 1.400 . S
C309 C308 1.400 . S
C309 C310 1.398 1_554 S
C309 C315 1.491 1_554 S
C310 H301 0.950 . S
C310 C309 1.398 1_556 S
C310 C311 1.391 . S
C311 H299 0.950 . S
C311 C307 1.393 1_556 S
C311 C310 1.391 . S
C312 H302 0.950 . S
C312 C313 1.386 . S
C312 C314 1.391 . S
C313 C312 1.386 . S
C313 C317 1.393 1_556 S
C314 H303 0.950 . S
C314 C312 1.391 . S
C314 C315 1.402 . S
C315 C309 1.491 1_556 S
C315 C314 1.402 . S
C315 C316 1.396 1_556 S
C316 H304 0.950 . S
C316 C315 1.396 1_554 S
C316 C317 1.391 . S
C317 H305 0.950 . S
C317 C313 1.393 1_554 S
C317 C316 1.391 . S
H318 C326 0.950 . S
H319 C331 0.950 . S
H320 C328 0.950 . S
H321 C330 0.950 . S
H322 C332 0.950 . S
H323 C334 0.950 . S
H324 C336 0.950 . S
H325 C337 0.950 . S
C326 H318 0.950 . S
C326 C327 1.386 1_556 S
C326 C328 1.391 . S
C327 C326 1.386 1_554 S
C327 C331 1.393 . S
C328 H320 0.950 . S
C328 C326 1.391 . S
C328 C329 1.400 1_556 S
C329 C328 1.400 1_554 S
C329 C330 1.398 . S
C329 C335 1.491 1_554 S
C330 H321 0.950 . S
C330 C329 1.398 . S
C330 C331 1.391 . S
C331 H319 0.950 . S
C331 C327 1.393 . S
C331 C330 1.391 . S
C332 H322 0.950 . S
C332 C333 1.386 1_554 S
C332 C334 1.391 . S
C333 C332 1.386 1_556 S
C333 C337 1.393 . S
C334 H323 0.950 . S
C334 C332 1.391 . S
C334 C335 1.400 1_554 S
C335 C329 1.491 1_556 S
C335 C334 1.400 1_556 S
C335 C336 1.398 . S
C336 H324 0.950 . S
C336 C335 1.398 . S
C336 C337 1.391 . S
C337 H325 0.950 . S
C337 C333 1.393 . S
C337 C336 1.391 . S
H338 C346 0.950 . S
H339 C351 0.950 . S
H340 C348 0.950 . S
H341 C350 0.950 . S
H342 C352 0.950 . S
H343 C354 0.950 . S
H344 C356 0.950 . S
H345 C357 0.950 . S
C346 H338 0.950 . S
C346 C347 1.386 . S
C346 C348 1.391 . S
C347 C346 1.386 . S
C347 C351 1.393 1_554 S
C348 H340 0.950 . S
C348 C346 1.391 . S
C348 C349 1.400 . S
C349 C348 1.400 . S
C349 C350 1.398 1_554 S
C349 C355 1.490 1_554 S
C350 H341 0.950 . S
C350 C349 1.398 1_556 S
C350 C351 1.391 . S
C351 H339 0.950 . S
C351 C347 1.393 1_556 S
C351 C350 1.391 . S
C352 H342 0.950 . S
C352 C353 1.386 . S
C352 C354 1.391 . S
C353 C352 1.386 . S
C353 C357 1.393 1_556 S
C354 H343 0.950 . S
C354 C352 1.391 . S
C354 C355 1.409 . S
C355 C349 1.490 1_556 S
C355 C354 1.409 . S
C355 C356 1.390 1_556 S
C356 H344 0.950 . S
C356 C355 1.390 1_554 S
C356 C357 1.391 . S
C357 H345 0.950 . S
C357 C353 1.393 1_554 S
C357 C356 1.391 . S
H358 C366 0.950 . S
H359 C371 0.950 . S
H360 C368 0.950 . S
H361 C370 0.950 . S
H362 C372 0.950 . S
H363 C374 0.950 . S
H364 C376 0.950 . S
H365 C377 0.950 . S
C366 H358 0.950 . S
C366 C367 1.386 . S
C366 C368 1.391 . S
C367 C366 1.386 . S
C367 C371 1.393 1_556 S
C368 H360 0.950 . S
C368 C366 1.391 . S
C368 C369 1.404 . S
C369 C368 1.404 . S
C369 C370 1.395 1_556 S
C369 C375 1.491 1_556 S
C370 H361 0.950 . S
C370 C369 1.395 1_554 S
C370 C371 1.391 . S
C371 H359 0.950 . S
C371 C367 1.393 1_554 S
C371 C370 1.391 . S
C372 H362 0.950 . S
C372 C373 1.386 . S
C372 C374 1.391 . S
C373 C372 1.386 . S
C373 C377 1.393 1_554 S
C374 H363 0.950 . S
C374 C372 1.391 . S
C374 C375 1.400 . S
C375 C369 1.491 1_554 S
C375 C374 1.400 . S
C375 C376 1.398 1_554 S
C376 H364 0.950 . S
C376 C375 1.398 1_556 S
C376 C377 1.391 . S
C377 H365 0.950 . S
C377 C373 1.393 1_556 S
C377 C376 1.391 . S
H378 C386 0.950 . S
H379 C391 0.950 . S
H380 C388 0.950 . S
H381 C390 0.950 . S
H382 C392 0.950 . S
H383 C394 0.950 . S
H384 C396 0.950 . S
H385 C397 0.950 . S
C386 H378 0.950 . S
C386 C387 1.386 . S
C386 C388 1.391 . S
C387 C386 1.386 . S
C387 C391 1.393 . S
C388 H380 0.950 . S
C388 C386 1.391 . S
C388 C389 1.400 . S
C389 C388 1.400 . S
C389 C390 1.398 . S
C389 C395 1.491 . S
C390 H381 0.950 . S
C390 C389 1.398 . S
C390 C391 1.391 . S
C391 H379 0.950 . S
C391 C387 1.393 . S
C391 C390 1.391 . S
C392 H382 0.950 . S
C392 C393 1.386 . S
C392 C394 1.391 . S
C393 C392 1.386 . S
C393 C397 1.393 . S
C394 H383 0.950 . S
C394 C392 1.391 . S
C394 C395 1.400 . S
C395 C389 1.491 . S
C395 C394 1.400 . S
C395 C396 1.398 . S
C396 H384 0.950 . S
C396 C395 1.398 . S
C396 C397 1.391 . S
C397 H385 0.950 . S
C397 C393 1.393 . S
C397 C396 1.391 . S
H398 C406 0.950 . S
H399 C411 0.950 . S
H400 C408 0.950 . S
H401 C410 0.950 . S
H402 C412 0.950 . S
H403 C414 0.950 . S
H404 C416 0.950 . S
H405 C417 0.950 . S
C406 H398 0.950 . S
C406 C407 1.386 . S
C406 C408 1.391 . S
C407 C406 1.386 . S
C407 C411 1.393 . S
C408 H400 0.950 . S
C408 C406 1.391 . S
C408 C409 1.400 . S
C409 C408 1.400 . S
C409 C410 1.398 . S
C409 C415 1.491 . S
C410 H401 0.950 . S
C410 C409 1.398 . S
C410 C411 1.391 . S
C411 H399 0.950 . S
C411 C407 1.393 . S
C411 C410 1.391 . S
C412 H402 0.950 . S
C412 C413 1.386 . S
C412 C414 1.391 . S
C413 C412 1.386 . S
C413 C417 1.393 . S
C414 H403 0.950 . S
C414 C412 1.391 . S
C414 C415 1.400 . S
C415 C409 1.491 . S
C415 C414 1.400 . S
C415 C416 1.398 . S
C416 H404 0.950 . S
C416 C415 1.398 . S
C416 C417 1.391 . S
C417 H405 0.950 . S
C417 C413 1.393 . S
C417 C416 1.391 . S
H418 C426 0.950 . S
H419 C431 0.950 . S
H420 C428 0.950 . S
H421 C430 0.950 . S
H422 C432 0.950 . S
H423 C434 0.950 . S
H424 C436 0.950 . S
H425 C437 0.950 . S
C426 H418 0.950 . S
C426 C427 1.386 . S
C426 C428 1.391 . S
C427 C426 1.386 . S
C427 C431 1.393 . S
C428 H420 0.950 . S
C428 C426 1.391 . S
C428 C429 1.400 . S
C429 C428 1.400 . S
C429 C430 1.398 . S
C429 C435 1.491 . S
C430 H421 0.950 . S
C430 C429 1.398 . S
C430 C431 1.391 . S
C431 H419 0.950 . S
C431 C427 1.393 . S
C431 C430 1.391 . S
C432 H422 0.950 . S
C432 C433 1.386 . S
C432 C434 1.391 . S
C433 C432 1.386 . S
C433 C437 1.393 . S
C434 H423 0.950 . S
C434 C432 1.391 . S
C434 C435 1.400 . S
C435 C429 1.491 . S
C435 C434 1.400 . S
C435 C436 1.398 . S
C436 H424 0.950 . S
C436 C435 1.398 . S
C436 C437 1.391 . S
C437 H425 0.950 . S
C437 C433 1.393 . S
C437 C436 1.391 . S
H438 C446 0.950 . S
H439 C451 0.950 . S
H440 C448 0.950 . S
H441 C450 0.950 . S
H442 C452 0.950 . S
H443 C454 0.950 . S
H444 C456 0.950 . S
H445 C457 0.950 . S
C446 H438 0.950 . S
C446 C447 1.386 . S
C446 C448 1.391 . S
C447 C446 1.386 . S
C447 C451 1.393 . S
C448 H440 0.950 . S
C448 C446 1.391 . S
C448 C449 1.400 . S
C449 C448 1.400 . S
C449 C450 1.398 . S
C449 C455 1.491 . S
C450 H441 0.950 . S
C450 C449 1.398 . S
C450 C451 1.391 . S
C451 H439 0.950 . S
C451 C447 1.393 . S
C451 C450 1.391 . S
C452 H442 0.950 . S
C452 C453 1.386 . S
C452 C454 1.391 . S
C453 C452 1.386 . S
C453 C457 1.393 . S
C454 H443 0.950 . S
C454 C452 1.391 . S
C454 C455 1.400 . S
C455 C449 1.491 . S
C455 C454 1.400 . S
C455 C456 1.398 . S
C456 H444 0.950 . S
C456 C455 1.398 . S
C456 C457 1.391 . S
C457 H445 0.950 . S
C457 C453 1.393 . S
C457 C456 1.391 . S
H458 C466 0.950 . S
H459 C471 0.950 . S
H460 C468 0.950 . S
H461 C470 0.950 . S
H462 C472 0.950 . S
H463 C474 0.950 . S
H464 C476 0.950 . S
H465 C477 0.950 . S
C466 H458 0.950 . S
C466 C467 1.386 . S
C466 C468 1.391 . S
C467 C466 1.386 . S
C467 C471 1.393 . S
C468 H460 0.950 . S
C468 C466 1.391 . S
C468 C469 1.400 . S
C469 C468 1.400 . S
C469 C470 1.398 . S
C469 C475 1.491 . S
C470 H461 0.950 . S
C470 C469 1.398 . S
C470 C471 1.391 . S
C471 H459 0.950 . S
C471 C467 1.393 . S
C471 C470 1.391 . S
C472 H462 0.950 . S
C472 C473 1.386 . S
C472 C474 1.391 . S
C473 C472 1.386 . S
C473 C477 1.393 . S
C474 H463 0.950 . S
C474 C472 1.391 . S
C474 C475 1.400 . S
C475 C469 1.491 . S
C475 C474 1.400 . S
C475 C476 1.398 . S
C476 H464 0.950 . S
C476 C475 1.398 . S
C476 C477 1.391 . S
C477 H465 0.950 . S
C477 C473 1.393 . S
C477 C476 1.391 . S
H478 C486 0.950 . S
H479 C491 0.950 . S
H480 C488 0.950 . S
H481 C490 0.950 . S
H482 C492 0.950 . S
H483 C494 0.950 . S
H484 C496 0.950 . S
H485 C497 0.950 . S
C486 H478 0.950 . S
C486 C487 1.386 . S
C486 C488 1.391 . S
C487 C486 1.386 . S
C487 C491 1.393 . S
C488 H480 0.950 . S
C488 C486 1.391 . S
C488 C489 1.400 . S
C489 C488 1.400 . S
C489 C490 1.398 . S
C489 C495 1.491 . S
C490 H481 0.950 . S
C490 C489 1.398 . S
C490 C491 1.391 . S
C491 H479 0.950 . S
C491 C487 1.393 . S
C491 C490 1.391 . S
C492 H482 0.950 . S
C492 C493 1.386 . S
C492 C494 1.391 . S
C493 C492 1.386 . S
C493 C497 1.393 . S
C494 H483 0.950 . S
C494 C492 1.391 . S
C494 C495 1.400 . S
C495 C489 1.491 . S
C495 C494 1.400 . S
C495 C496 1.398 . S
C496 H484 0.950 . S
C496 C495 1.398 . S
C496 C497 1.391 . S
C497 H485 0.950 . S
C497 C493 1.393 . S
C497 C496 1.391 . S
C147 C132 1.480 . S
C153 C18 1.469 1_556 S
C167 C17 1.480 . S
C173 C41 1.454 1_556 S
C187 C40 1.482 . S
C193 C64 1.459 1_556 S
C207 C87 1.464 1_556 S
C213 C63 1.483 . S
C227 C110 1.454 1_556 S
C233 C86 1.478 . S
C247 C109 1.481 . S
C253 C133 1.468 1_556 S
C267 C108 1.457 1_554 S
C273 C21 1.456 . S
C287 C131 1.453 . S
C293 C44 1.461 1_554 S
C307 C67 1.463 1_554 S
C313 C16 1.462 . S
C327 C90 1.463 1_554 S
C333 C39 1.456 . S
C347 C113 1.464 1_554 S
C353 C62 1.461 . S
C367 C85 1.452 . S
C373 C136 1.458 1_554 S
C387 C19 1.433 . S
C393 C20 1.458 . S
C407 C42 1.437 . S
C413 C43 1.456 . S
C427 C65 1.428 . S
C433 C66 1.453 . S
C447 C88 1.445 . S
C453 C89 1.439 . S
C467 C112 1.450 . S
C473 C111 1.445 . S
C487 C134 1.428 . S
C493 C135 1.453 . S
