# Generated by pormake.
# Topology acs-a, (4)-cn, num edge types: 1
# Building blocks:
#     Node 0, Type 0, BuildingBlock: ICAMEG_clean_sbu_1, # of connection points: 4
#     Node 1, Type 0, BuildingBlock: ICAMEG_clean_sbu_1, # of connection points: 4
#     Node 2, Type 0, BuildingBlock: ICAMEG_clean_sbu_1, # of connection points: 4
#     Node 3, Type 0, BuildingBlock: ICAMEG_clean_sbu_1, # of connection points: 4
#     Node 4, Type 0, BuildingBlock: ICAMEG_clean_sbu_1, # of connection points: 4
#     Node 5, Type 0, BuildingBlock: ICAMEG_clean_sbu_1, # of connection points: 4
#     Node 6, Type 0, BuildingBlock: ICAMEG_clean_sbu_1, # of connection points: 4
#     Node 7, Type 0, BuildingBlock: ICAMEG_clean_sbu_1, # of connection points: 4
#     Node 8, Type 0, BuildingBlock: ICAMEG_clean_sbu_1, # of connection points: 4
#     Node 9, Type 0, BuildingBlock: ICAMEG_clean_sbu_1, # of connection points: 4
#     Node 10, Type 0, BuildingBlock: ICAMEG_clean_sbu_1, # of connection points: 4
#     Node 11, Type 0, BuildingBlock: ICAMEG_clean_sbu_1, # of connection points: 4
#     Edge 12, Type (0, 0), BuildingBlock: AJUNOK_clean_linker_0, # of connection points: 2
#     Edge 13, Type (0, 0), BuildingBlock: AJUNOK_clean_linker_0, # of connection points: 2
#     Edge 14, Type (0, 0), BuildingBlock: AJUNOK_clean_linker_0, # of connection points: 2
#     Edge 15, Type (0, 0), BuildingBlock: AJUNOK_clean_linker_0, # of connection points: 2
#     Edge 16, Type (0, 0), BuildingBlock: AJUNOK_clean_linker_0, # of connection points: 2
#     Edge 17, Type (0, 0), BuildingBlock: AJUNOK_clean_linker_0, # of connection points: 2
#     Edge 18, Type (0, 0), BuildingBlock: AJUNOK_clean_linker_0, # of connection points: 2
#     Edge 19, Type (0, 0), BuildingBlock: AJUNOK_clean_linker_0, # of connection points: 2
#     Edge 20, Type (0, 0), BuildingBlock: AJUNOK_clean_linker_0, # of connection points: 2
#     Edge 21, Type (0, 0), BuildingBlock: AJUNOK_clean_linker_0, # of connection points: 2
#     Edge 22, Type (0, 0), BuildingBlock: AJUNOK_clean_linker_0, # of connection points: 2
#     Edge 23, Type (0, 0), BuildingBlock: AJUNOK_clean_linker_0, # of connection points: 2
#     Edge 24, Type (0, 0), BuildingBlock: AJUNOK_clean_linker_0, # of connection points: 2
#     Edge 25, Type (0, 0), BuildingBlock: AJUNOK_clean_linker_0, # of connection points: 2
#     Edge 26, Type (0, 0), BuildingBlock: AJUNOK_clean_linker_0, # of connection points: 2
#     Edge 27, Type (0, 0), BuildingBlock: AJUNOK_clean_linker_0, # of connection points: 2
#     Edge 28, Type (0, 0), BuildingBlock: AJUNOK_clean_linker_0, # of connection points: 2
#     Edge 29, Type (0, 0), BuildingBlock: AJUNOK_clean_linker_0, # of connection points: 2
#     Edge 30, Type (0, 0), BuildingBlock: AJUNOK_clean_linker_0, # of connection points: 2
#     Edge 31, Type (0, 0), BuildingBlock: AJUNOK_clean_linker_0, # of connection points: 2
#     Edge 32, Type (0, 0), BuildingBlock: AJUNOK_clean_linker_0, # of connection points: 2
#     Edge 33, Type (0, 0), BuildingBlock: AJUNOK_clean_linker_0, # of connection points: 2
#     Edge 34, Type (0, 0), BuildingBlock: AJUNOK_clean_linker_0, # of connection points: 2
#     Edge 35, Type (0, 0), BuildingBlock: AJUNOK_clean_linker_0, # of connection points: 2
# Relax obj value: 0.490
# Max RMSD: 0.324
# Mean RMSD: 0.250
data_MOF--net-acs-a--node1-ICAMEG_clean_sbu_1--edge1-AJUNOK_clean_linker_0
_symmetry_space_group_name_H-M    P1
_symmetry_Int_Tables_number       1
_symmetry_cell_setting            triclinic
loop_
_symmetry_equiv_pos_as_xyz
'x, y, z'
_cell_length_a     40.978603
_cell_length_b     33.387715
_cell_length_c     33.405327
_cell_angle_alpha  89.918813
_cell_angle_beta   90.040767
_cell_angle_gamma 114.02653
loop_
_atom_site_label
_atom_site_type_symbol
_atom_site_fract_x
_atom_site_fract_y
_atom_site_fract_z
_atom_type_partial_charge
Co0 Co 0.61195 0.17533 0.1317 0.0
Co1 Co 0.58873 0.1564 0.03225 0.0
O2 O 0.58563 0.13703 0.0881 0.0
C3 C 0.59293 0.08767 0.16784 0.0
O4 O 0.56213 0.07402 0.14908 0.0
C5 C 0.51105 0.0954 0.04875 0.0
O6 O 0.51906 0.09244 0.08627 0.0
O7 O 0.57865 0.20803 0.04845 0.0
O8 O 0.60726 0.22728 0.10731 0.0
H9 H 0.62969 0.26683 0.92054 0.0
H10 H 0.53912 0.1703 0.11105 0.0
O11 O 0.6178 0.12446 0.15805 0.0
H12 H 0.53414 0.13985 0.25561 0.0
H13 H 0.71371 0.23321 0.22809 0.0
H14 H 0.6023 0.24213 0.18457 0.0
H15 H 0.58886 0.15352 0.21749 0.0
H16 H 0.67995 0.18928 0.17153 0.0
O17 O 0.53528 0.1196 0.02441 0.0
H18 H 0.62634 0.24131 0.9903 0.0
H19 H 0.55683 0.11235 0.95535 0.0
H20 H 0.63265 0.28208 0.24459 0.0
H21 H 0.48386 0.1564 0.14796 0.0
H22 H 0.68839 0.27757 0.26749 0.0
H23 H 0.48089 0.14085 0.22089 0.0
O24 O 0.65762 0.18994 0.10147 0.0
H25 H 0.57184 0.99795 0.03141 0.0
H26 H 0.64259 0.14607 0.97846 0.0
H27 H 0.65658 0.08433 0.95686 0.0
H28 H 0.62082 0.00949 0.98301 0.0
H29 H 0.5593 0.06056 0.05288 0.0
H30 H 0.55901 0.13659 0.88527 0.0
H31 H 0.59576 0.21433 0.86744 0.0
O32 O 0.64185 0.19335 0.03765 0.0
C33 C 0.5916 0.23518 0.07724 0.0
C34 C 0.6136 0.23287 0.9279 0.0
C35 C 0.57386 0.15981 0.90813 0.0
N36 N 0.59128 0.17544 0.97696 0.0
C37 C 0.61166 0.2182 0.96736 0.0
C38 C 0.57255 0.14633 0.94792 0.0
C39 C 0.59452 0.20341 0.89815 0.0
C40 C 0.53833 0.16339 0.14256 0.0
N41 N 0.56739 0.16191 0.16149 0.0
C42 C 0.50677 0.15551 0.16342 0.0
C43 C 0.5051 0.14677 0.2043 0.0
C44 C 0.53488 0.14603 0.22374 0.0
C45 C 0.5658 0.15348 0.20178 0.0
C46 C 0.68891 0.23476 0.2195 0.0
C47 C 0.62687 0.24037 0.19383 0.0
C48 C 0.67007 0.21062 0.18675 0.0
N49 N 0.63914 0.21308 0.17466 0.0
C50 C 0.64396 0.26312 0.22797 0.0
C51 C 0.67508 0.26007 0.24099 0.0
C52 C 0.6656 0.2004 0.06481 0.0
C53 C 0.58741 0.03034 0.01951 0.0
C54 C 0.62693 0.11367 0.99016 0.0
C55 C 0.63498 0.0788 0.97774 0.0
C56 C 0.61493 0.03684 0.99242 0.0
N57 N 0.59945 0.10699 0.01622 0.0
C58 C 0.58019 0.06602 0.03134 0.0
Co59 Co 0.34087 0.50132 0.61127 0.0
Co60 Co 0.38201 0.51865 0.51821 0.0
O61 O 0.37265 0.49181 0.5722 0.0
C62 C 0.40025 0.4969 0.66515 0.0
O63 O 0.41813 0.48757 0.63674 0.0
C64 C 0.37747 0.42647 0.50879 0.0
O65 O 0.35799 0.4133 0.54118 0.0
O66 O 0.32895 0.50095 0.50685 0.0
O67 O 0.30831 0.50174 0.56863 0.0
H68 H 0.36608 0.60692 0.40333 0.0
H69 H 0.36125 0.42511 0.62371 0.0
O70 O 0.37206 0.5028 0.6577 0.0
H71 H 0.23004 0.36027 0.61487 0.0
H72 H 0.25774 0.45735 0.72825 0.0
H73 H 0.29955 0.55669 0.61233 0.0
H74 H 0.264 0.44006 0.60931 0.0
H75 H 0.31153 0.46363 0.69122 0.0
O76 O 0.38244 0.46352 0.49334 0.0
H77 H 0.35467 0.5738 0.47059 0.0
H78 H 0.43232 0.52224 0.45217 0.0
H79 H 0.24597 0.55133 0.64887 0.0
H80 H 0.32848 0.34562 0.63119 0.0
H81 H 0.22456 0.50167 0.70731 0.0
H82 H 0.26227 0.31235 0.62641 0.0
O83 O 0.36733 0.56674 0.60514 0.0
H84 H 0.49238 0.50156 0.56715 0.0
H85 H 0.44614 0.60281 0.50698 0.0
H86 H 0.51065 0.62818 0.51917 0.0
H87 H 0.53436 0.57715 0.5488 0.0
H88 H 0.4281 0.47813 0.55578 0.0
H89 H 0.44448 0.55421 0.38447 0.0
H90 H 0.41133 0.59716 0.35963 0.0
O91 O 0.38385 0.57451 0.5404 0.0
C92 C 0.3046 0.50086 0.53114 0.0
C93 C 0.38053 0.588 0.41364 0.0
C94 C 0.42448 0.55842 0.40305 0.0
N95 N 0.39219 0.54529 0.46518 0.0
C96 C 0.37399 0.56898 0.4517 0.0
C97 C 0.41721 0.53996 0.4413 0.0
C98 C 0.40593 0.58256 0.38916 0.0
C99 C 0.3326 0.41152 0.6226 0.0
N100 N 0.31481 0.43781 0.61627 0.0
C101 C 0.31408 0.36613 0.62638 0.0
C102 C 0.27696 0.34746 0.62355 0.0
C103 C 0.2589 0.37429 0.61695 0.0
C104 C 0.27834 0.41951 0.61332 0.0
C105 C 0.26734 0.48014 0.70357 0.0
C106 C 0.2912 0.53585 0.63848 0.0
C107 C 0.298 0.48416 0.68263 0.0
N108 N 0.30838 0.50995 0.64916 0.0
C109 C 0.26078 0.53308 0.65911 0.0
C110 C 0.24855 0.5047 0.69158 0.0
C111 C 0.38034 0.59039 0.5739 0.0
C112 C 0.48246 0.52397 0.55375 0.0
C113 C 0.456 0.58048 0.5203 0.0
C114 C 0.49269 0.59502 0.52698 0.0
C115 C 0.50598 0.5664 0.54358 0.0
N116 N 0.43305 0.53842 0.52936 0.0
C117 C 0.44593 0.51066 0.54673 0.0
Co118 Co 0.8648 0.40991 0.01368 0.0
Co119 Co 0.84051 0.39684 0.11332 0.0
O120 O 0.87696 0.41512 0.07117 0.0
C121 C 0.92694 0.38088 0.01759 0.0
O122 O 0.91129 0.35258 0.04613 0.0
C123 C 0.90285 0.45911 0.16252 0.0
O124 O 0.92847 0.45942 0.13891 0.0
O125 O 0.81825 0.43521 0.08882 0.0
O126 O 0.8208 0.42107 0.02345 0.0
H127 H 0.71437 0.32623 0.16523 0.0
H128 H 0.93663 0.47173 0.04148 0.0
O129 O 0.91038 0.40165 0.00093 0.0
H130 H 0.8871 0.56306 0.96888 0.0
H131 H 0.89428 0.43587 0.86689 0.0
H132 H 0.7983 0.36887 0.9659 0.0
H133 H 0.8523 0.48333 0.97529 0.0
H134 H 0.90761 0.44279 0.93909 0.0
O135 O 0.87085 0.44712 0.14956 0.0
H136 H 0.76053 0.35619 0.11322 0.0
H137 H 0.84084 0.39814 0.20324 0.0
H138 H 0.78347 0.36133 0.89402 0.0
H139 H 0.97253 0.55123 0.03518 0.0
H140 H 0.83176 0.39493 0.84386 0.0
H141 H 0.94779 0.5975 0.9987 0.0
O142 O 0.83382 0.34476 0.02008 0.0
H143 H 0.93769 0.34265 0.14164 0.0
H144 H 0.81034 0.3107 0.15771 0.0
H145 H 0.83435 0.26215 0.1885 0.0
H146 H 0.89866 0.27788 0.18113 0.0
H147 H 0.91295 0.39071 0.11183 0.0
H148 H 0.79529 0.37577 0.25555 0.0
H149 H 0.73148 0.34032 0.23699 0.0
O150 O 0.80915 0.34655 0.07996 0.0
C151 C 0.80882 0.4361 0.0523 0.0
C152 C 0.74205 0.34399 0.17366 0.0
C153 C 0.78743 0.37144 0.22439 0.0
N154 N 0.80375 0.37982 0.15475 0.0
C155 C 0.76847 0.36027 0.1443 0.0
C156 C 0.81324 0.38522 0.19437 0.0
C157 C 0.75162 0.35085 0.21389 0.0
C158 C 0.92575 0.49152 0.02525 0.0
N159 N 0.89252 0.47272 0.0084 0.0
C160 C 0.94617 0.53658 0.02192 0.0
C161 C 0.93226 0.56253 0.00148 0.0
C162 C 0.89821 0.54323 0.98475 0.0
C163 C 0.87859 0.49805 0.98859 0.0
C164 C 0.87304 0.4207 0.8884 0.0
C165 C 0.81939 0.38306 0.94433 0.0
C166 C 0.8805 0.42413 0.92936 0.0
N167 N 0.85385 0.40516 0.95679 0.0
C168 C 0.81087 0.37892 0.90362 0.0
C169 C 0.83796 0.3978 0.87551 0.0
C170 C 0.80969 0.32746 0.04714 0.0
C171 C 0.90989 0.3363 0.14648 0.0
C172 C 0.83872 0.31981 0.15576 0.0
C173 C 0.85203 0.29123 0.17272 0.0
C174 C 0.888 0.29989 0.16841 0.0
N175 N 0.86073 0.35738 0.13638 0.0
C176 C 0.89567 0.36436 0.1303 0.0
Co177 Co 0.39792 0.83974 0.63714 0.0
Co178 Co 0.41495 0.85618 0.53635 0.0
O179 O 0.423 0.87696 0.59194 0.0
C180 C 0.41705 0.93106 0.6719 0.0
O181 O 0.44154 0.95262 0.64545 0.0
C182 C 0.4955 0.89723 0.54285 0.0
O183 O 0.49347 0.87437 0.57537 0.0
O184 O 0.42481 0.80381 0.5509 0.0
O185 O 0.39804 0.78692 0.6107 0.0
H186 H 0.36314 0.74402 0.42769 0.0
H187 H 0.47401 0.91113 0.6369 0.0
O188 O 0.39589 0.89102 0.66667 0.0
H189 H 0.48019 0.78968 0.71478 0.0
H190 H 0.37268 0.80316 0.7835 0.0
H191 H 0.3392 0.75058 0.64529 0.0
H192 H 0.42395 0.78214 0.68359 0.0
H193 H 0.40177 0.8505 0.7262 0.0
O194 O 0.46719 0.8923 0.52362 0.0
H195 H 0.37285 0.77085 0.49723 0.0
H196 H 0.4415 0.89821 0.457 0.0
H197 H 0.31032 0.70191 0.70198 0.0
H198 H 0.53043 0.92008 0.6677 0.0
H199 H 0.32719 0.72764 0.77155 0.0
H200 H 0.53411 0.85931 0.70755 0.0
O201 O 0.35073 0.8285 0.61129 0.0
H202 H 0.43926 0.01635 0.53593 0.0
H203 H 0.35804 0.8694 0.48931 0.0
H204 H 0.34547 0.93336 0.47136 0.0
H205 H 0.38644 0.00759 0.49447 0.0
H206 H 0.45039 0.95132 0.55376 0.0
H207 H 0.4329 0.87258 0.38705 0.0
H208 H 0.39333 0.79502 0.37198 0.0
O209 O 0.36226 0.8205 0.54684 0.0
C210 C 0.41169 0.77723 0.58012 0.0
C211 C 0.3804 0.77791 0.43384 0.0
C212 C 0.4196 0.85004 0.41105 0.0
N213 N 0.40768 0.83606 0.48124 0.0
C214 C 0.38595 0.79333 0.47318 0.0
C215 C 0.42449 0.86431 0.45077 0.0
C216 C 0.39738 0.80653 0.40262 0.0
C217 C 0.47408 0.88539 0.65597 0.0
N218 N 0.44389 0.84792 0.66163 0.0
C219 C 0.50681 0.89019 0.67249 0.0
C220 C 0.50895 0.85601 0.69456 0.0
C221 C 0.47872 0.81707 0.69871 0.0
C222 C 0.44659 0.81332 0.68135 0.0
C223 C 0.365 0.79147 0.75327 0.0
C224 C 0.34654 0.7624 0.67549 0.0
C225 C 0.38104 0.81838 0.72059 0.0
N226 N 0.37229 0.80344 0.6822 0.0
C227 C 0.32998 0.73462 0.70748 0.0
C228 C 0.33951 0.74914 0.74657 0.0
C229 C 0.34026 0.81509 0.57565 0.0
C230 C 0.4212 0.98418 0.52569 0.0
C231 C 0.37565 0.90142 0.49995 0.0
C232 C 0.36854 0.9376 0.4895 0.0
C233 C 0.39155 0.97924 0.50245 0.0
N234 N 0.40486 0.90653 0.52258 0.0
C235 C 0.4274 0.94722 0.53563 0.0
Co236 Co 0.65858 0.49618 0.11294 0.0
Co237 Co 0.62451 0.494 0.02008 0.0
O238 O 0.6364 0.52053 0.07373 0.0
C239 C 0.60417 0.50521 0.16917 0.0
O240 O 0.57725 0.47939 0.14721 0.0
C241 C 0.63073 0.58668 0.01301 0.0
O242 O 0.64838 0.59876 0.04677 0.0
O243 O 0.67703 0.50605 0.01139 0.0
O244 O 0.6837 0.47876 0.07059 0.0
H245 H 0.63448 0.40167 0.90577 0.0
H246 H 0.66641 0.58776 0.12285 0.0
O247 O 0.63606 0.51447 0.15812 0.0
H248 H 0.78948 0.5971 0.11548 0.0
H249 H 0.722 0.48832 0.24066 0.0
H250 H 0.66893 0.41456 0.11444 0.0
H251 H 0.73801 0.52552 0.11185 0.0
H252 H 0.69446 0.52268 0.19347 0.0
O253 O 0.62943 0.55199 0.99555 0.0
H254 H 0.64693 0.43405 0.9732 0.0
H255 H 0.57846 0.49875 0.95214 0.0
H256 H 0.69332 0.37836 0.16114 0.0
H257 H 0.71715 0.66008 0.12699 0.0
H258 H 0.72142 0.41508 0.22388 0.0
H259 H 0.77924 0.66508 0.1232 0.0
O260 O 0.61698 0.4381 0.10787 0.0
H261 H 0.52117 0.51915 0.0802 0.0
H262 H 0.55571 0.4174 0.0024 0.0
H263 H 0.4924 0.39717 0.01811 0.0
H264 H 0.47473 0.44815 0.05755 0.0
H265 H 0.58396 0.53754 0.06502 0.0
H266 H 0.56564 0.46782 0.88413 0.0
H267 H 0.59355 0.41853 0.8606 0.0
O268 O 0.61659 0.43469 0.04119 0.0
C269 C 0.69396 0.49067 0.03514 0.0
C270 C 0.62224 0.42322 0.91558 0.0
C271 C 0.58368 0.46039 0.90342 0.0
N272 N 0.61374 0.46866 0.96666 0.0
C273 C 0.62925 0.44171 0.9538 0.0
C274 C 0.59133 0.47824 0.94185 0.0
C275 C 0.59929 0.43269 0.89027 0.0
C276 C 0.69335 0.58969 0.12117 0.0
N277 N 0.69919 0.55248 0.11673 0.0
C278 C 0.72198 0.63072 0.12355 0.0
C279 C 0.7568 0.6335 0.12141 0.0
C280 C 0.76257 0.59539 0.11704 0.0
C281 C 0.73329 0.55495 0.11478 0.0
C282 C 0.71025 0.47199 0.21297 0.0
C283 C 0.68007 0.43083 0.1422 0.0
C284 C 0.69444 0.49113 0.18635 0.0
N285 N 0.67983 0.47053 0.15131 0.0
C286 C 0.69463 0.41036 0.16835 0.0
C287 C 0.71022 0.43124 0.20367 0.0
C288 C 0.60859 0.41611 0.07529 0.0
C289 C 0.52849 0.49691 0.06253 0.0
C290 C 0.54841 0.4403 0.01879 0.0
C291 C 0.51238 0.42848 0.0278 0.0
C292 C 0.50244 0.45708 0.04981 0.0
N293 N 0.57398 0.47988 0.03067 0.0
C294 C 0.56424 0.50752 0.05311 0.0
Co295 Co 0.14673 0.60246 0.50523 0.0
Co296 Co 0.15624 0.59571 0.60717 0.0
O297 O 0.12719 0.58433 0.559 0.0
C298 C 0.08253 0.62469 0.51443 0.0
O299 O 0.09244 0.63745 0.55119 0.0
C300 C 0.10819 0.51559 0.66085 0.0
O301 O 0.08421 0.4751 0.65778 0.0
O302 O 0.18414 0.56431 0.58174 0.0
O303 O 0.18788 0.58604 0.51723 0.0
H304 H 0.2727 0.63243 0.67837 0.0
H305 H 0.07162 0.53724 0.5174 0.0
O306 O 0.10385 0.61633 0.49128 0.0
H307 H 0.12847 0.46208 0.43394 0.0
H308 H 0.13696 0.61486 0.35576 0.0
H309 H 0.21946 0.64648 0.4704 0.0
H310 H 0.16277 0.53812 0.45618 0.0
H311 H 0.11383 0.593 0.42402 0.0
O312 O 0.1216 0.53641 0.62835 0.0
H313 H 0.23099 0.60862 0.62256 0.0
H314 H 0.15002 0.62061 0.69487 0.0
H315 H 0.24379 0.66845 0.40257 0.0
H316 H 0.03626 0.46158 0.4952 0.0
H317 H 0.20242 0.65283 0.34463 0.0
H318 H 0.06466 0.42337 0.45319 0.0
O319 O 0.17739 0.66489 0.52352 0.0
H320 H 0.0403 0.60374 0.64549 0.0
H321 H 0.17048 0.6874 0.63659 0.0
H322 H 0.13302 0.72413 0.65988 0.0
H323 H 0.06738 0.68215 0.66524 0.0
H324 H 0.07853 0.56858 0.6207 0.0
H325 H 0.19214 0.64873 0.7497 0.0
H326 H 0.25409 0.65506 0.74222 0.0
O327 O 0.19147 0.65217 0.58568 0.0
C328 C 0.1965 0.56693 0.54597 0.0
C329 C 0.24562 0.62954 0.68228 0.0
C330 C 0.20056 0.63884 0.72211 0.0
N331 N 0.18653 0.60953 0.65522 0.0
C332 C 0.22118 0.61447 0.65087 0.0
C333 C 0.17661 0.62264 0.69037 0.0
C334 C 0.23522 0.64202 0.71805 0.0
C335 C 0.08415 0.52124 0.49868 0.0
N336 N 0.11915 0.54257 0.48757 0.0
C337 C 0.06399 0.47819 0.48639 0.0
C338 C 0.07995 0.45675 0.46288 0.0
C339 C 0.11574 0.47845 0.45206 0.0
C340 C 0.13505 0.52154 0.46481 0.0
C341 C 0.15526 0.62223 0.3808 0.0
C342 C 0.20125 0.63977 0.44544 0.0
C343 C 0.14228 0.61031 0.41963 0.0
N344 N 0.16521 0.61942 0.45142 0.0
C345 C 0.2152 0.6522 0.40704 0.0
C346 C 0.19198 0.64343 0.37456 0.0
C347 C 0.19679 0.67701 0.55528 0.0
C348 C 0.06895 0.62222 0.64394 0.0
C349 C 0.14206 0.66878 0.63801 0.0
C350 C 0.1209 0.68981 0.6517 0.0
C351 C 0.08411 0.66625 0.65479 0.0
N352 N 0.12722 0.6251 0.62844 0.0
C353 C 0.09096 0.60221 0.63055 0.0
Co354 Co 0.83168 0.44712 0.38901 0.0
Co355 Co 0.86606 0.4601 0.48439 0.0
O356 O 0.87251 0.46813 0.42573 0.0
C357 C 0.8924 0.44576 0.33497 0.0
O358 O 0.91725 0.4583 0.3627 0.0
C359 C 0.92992 0.54783 0.4715 0.0
O360 O 0.91868 0.55109 0.43551 0.0
O361 O 0.8303 0.48896 0.48509 0.0
O362 O 0.80093 0.4578 0.42923 0.0
H363 H 0.79619 0.41474 0.61266 0.0
H364 H 0.90069 0.52179 0.36542 0.0
O365 O 0.85974 0.43589 0.34382 0.0
H366 H 0.80786 0.57805 0.3472 0.0
H367 H 0.76968 0.45268 0.2629 0.0
H368 H 0.75418 0.39233 0.39963 0.0
H369 H 0.79197 0.50283 0.37108 0.0
H370 H 0.82097 0.45787 0.30218 0.0
O371 O 0.90961 0.51768 0.49501 0.0
H372 H 0.80424 0.4247 0.53967 0.0
H373 H 0.91674 0.47735 0.55335 0.0
H374 H 0.70153 0.38583 0.36132 0.0
H375 H 0.91767 0.59673 0.34081 0.0
H376 H 0.70941 0.41998 0.29315 0.0
H377 H 0.87113 0.62567 0.33149 0.0
O378 O 0.8167 0.38576 0.411 0.0
H379 H 0.97644 0.43876 0.44367 0.0
H380 H 0.86411 0.37753 0.52055 0.0
H381 H 0.90357 0.33824 0.51949 0.0
H382 H 0.96041 0.36905 0.48117 0.0
H383 H 0.93596 0.47643 0.44478 0.0
H384 H 0.91018 0.46833 0.62643 0.0
H385 H 0.84956 0.43675 0.65665 0.0
O386 O 0.8244 0.40165 0.47681 0.0
C387 C 0.80281 0.47762 0.46188 0.0
C388 C 0.82276 0.42883 0.59992 0.0
C389 C 0.88671 0.45893 0.60763 0.0
N390 N 0.86071 0.45237 0.54213 0.0
C391 C 0.82737 0.43468 0.55858 0.0
C392 C 0.89023 0.46429 0.56616 0.0
C393 C 0.8527 0.44115 0.62457 0.0
C394 C 0.88008 0.53342 0.36116 0.0
N395 N 0.84525 0.50713 0.36951 0.0
C396 C 0.88995 0.57628 0.34734 0.0
C397 C 0.86388 0.59253 0.34219 0.0
C398 C 0.82843 0.56588 0.35103 0.0
C399 C 0.81963 0.52324 0.36483 0.0
C400 C 0.76565 0.43812 0.2924 0.0
C401 C 0.75757 0.40474 0.36933 0.0
C402 C 0.79491 0.44057 0.31477 0.0
N403 N 0.79087 0.42651 0.35357 0.0
C404 C 0.72752 0.40119 0.34768 0.0
C405 C 0.73184 0.41938 0.30942 0.0
C406 C 0.81125 0.37455 0.44809 0.0
C407 C 0.95193 0.42522 0.46081 0.0
C408 C 0.88877 0.39126 0.50378 0.0
C409 C 0.91103 0.3688 0.50331 0.0
C410 C 0.94289 0.38607 0.48179 0.0
N411 N 0.89801 0.43001 0.48358 0.0
C412 C 0.92895 0.44669 0.46187 0.0
Co413 Co 0.34271 0.83925 0.88592 0.0
Co414 Co 0.38274 0.86221 0.97901 0.0
O415 O 0.37336 0.88056 0.92571 0.0
C416 C 0.40462 0.90208 0.836 0.0
O417 O 0.42883 0.90791 0.8637 0.0
C418 C 0.38418 0.95283 0.98918 0.0
O419 O 0.3701 0.95181 0.95379 0.0
O420 O 0.32985 0.82934 0.98992 0.0
O421 O 0.31097 0.80268 0.92854 0.0
H422 H 0.36882 0.75468 0.09033 0.0
H423 H 0.35921 0.93415 0.87678 0.0
O424 O 0.37243 0.87507 0.84106 0.0
H425 H 0.22782 0.86036 0.88226 0.0
H426 H 0.27274 0.79843 0.75724 0.0
H427 H 0.30184 0.74214 0.88269 0.0
H428 H 0.26461 0.81757 0.88607 0.0
H429 H 0.3163 0.84841 0.80433 0.0
O430 O 0.38389 0.91767 0.00458 0.0
H431 H 0.35745 0.77809 0.02371 0.0
H432 H 0.42962 0.90895 0.04776 0.0
H433 H 0.25507 0.69196 0.83811 0.0
H434 H 0.3236 0.97825 0.87217 0.0
H435 H 0.241 0.71969 0.77453 0.0
H436 H 0.25736 0.94138 0.87516 0.0
O437 O 0.37225 0.80374 0.88981 0.0
H438 H 0.49609 0.9856 0.93032 0.0
H439 H 0.4445 0.83829 0.99105 0.0
H440 H 0.50945 0.87473 0.9802 0.0
H441 H 0.53584 0.94934 0.95036 0.0
H442 H 0.43144 0.94747 0.94027 0.0
H443 H 0.44158 0.88733 0.11481 0.0
H444 H 0.41121 0.80963 0.13651 0.0
O445 O 0.3833 0.80755 0.956 0.0
C446 C 0.3064 0.80291 0.96609 0.0
C447 C 0.38213 0.78868 0.08132 0.0
C448 C 0.42291 0.8631 0.09507 0.0
N449 N 0.39238 0.84476 0.03183 0.0
C450 C 0.37567 0.80205 0.04361 0.0
C451 C 0.41578 0.87521 0.05711 0.0
C452 C 0.40591 0.81951 0.1072 0.0
C453 C 0.33044 0.91783 0.87825 0.0
N454 N 0.31404 0.87336 0.88279 0.0
C455 C 0.31039 0.943 0.87557 0.0
C456 C 0.27325 0.92231 0.87726 0.0
C457 C 0.25667 0.87689 0.88136 0.0
C458 C 0.27762 0.85284 0.88399 0.0
C459 C 0.27897 0.7858 0.78471 0.0
C460 C 0.29562 0.75472 0.85526 0.0
C461 C 0.3042 0.81389 0.81129 0.0
N462 N 0.31202 0.79838 0.84634 0.0
C463 C 0.26938 0.72596 0.82996 0.0
C464 C 0.2612 0.74162 0.7944 0.0
C465 C 0.38284 0.79087 0.92159 0.0
C466 C 0.48504 0.95346 0.94411 0.0
C467 C 0.45563 0.87076 0.97805 0.0
C468 C 0.49251 0.89122 0.97193 0.0
C469 C 0.50729 0.93303 0.95517 0.0
N470 N 0.43396 0.89152 0.96832 0.0
C471 C 0.44827 0.9319 0.95054 0.0
Co472 Co 0.58049 0.42782 0.47019 0.0
Co473 Co 0.6019 0.42758 0.37041 0.0
O474 O 0.57953 0.44427 0.41449 0.0
C475 C 0.50136 0.38572 0.48858 0.0
O476 O 0.5056 0.3535 0.5072 0.0
C477 C 0.59578 0.50842 0.33767 0.0
O478 O 0.57059 0.50664 0.36264 0.0
O479 O 0.64921 0.45242 0.4007 0.0
O480 O 0.63293 0.4399 0.46595 0.0
H481 H 0.65414 0.33278 0.30356 0.0
H482 H 0.55166 0.49385 0.44901 0.0
O483 O 0.52819 0.41675 0.47283 0.0
H484 H 0.65361 0.57073 0.53878 0.0
H485 H 0.55099 0.43032 0.61636 0.0
H486 H 0.6111 0.37562 0.5163 0.0
H487 H 0.63722 0.49337 0.52066 0.0
H488 H 0.55037 0.44852 0.54486 0.0
O489 O 0.61436 0.48624 0.34396 0.0
H490 H 0.64071 0.36901 0.36119 0.0
H491 H 0.61187 0.44952 0.2825 0.0
H492 H 0.61263 0.3566 0.58747 0.0
H493 H 0.5667 0.57086 0.46702 0.0
H494 H 0.58235 0.38407 0.6381 0.0
H495 H 0.61804 0.60989 0.51218 0.0
O496 O 0.56799 0.36442 0.45617 0.0
H497 H 0.4726 0.40182 0.34172 0.0
H498 H 0.56783 0.35385 0.31016 0.0
H499 H 0.51118 0.32058 0.27559 0.0
H500 H 0.46266 0.34456 0.29064 0.0
H501 H 0.52973 0.43496 0.37594 0.0
H502 H 0.6283 0.41719 0.22472 0.0
H503 H 0.64777 0.35675 0.23453 0.0
O504 O 0.59043 0.36969 0.39445 0.0
C505 C 0.65674 0.45176 0.43822 0.0
C506 C 0.64526 0.35883 0.29881 0.0
C507 C 0.63131 0.40663 0.25463 0.0
N508 N 0.62511 0.41147 0.32588 0.0
C509 C 0.63783 0.37984 0.33147 0.0
C510 C 0.6231 0.42598 0.2879 0.0
C511 C 0.64185 0.37235 0.26016 0.0
C512 C 0.57387 0.5104 0.46893 0.0
N513 N 0.59334 0.48891 0.484 0.0
C514 C 0.58236 0.55413 0.47888 0.0
C515 C 0.61118 0.57601 0.50419 0.0
C516 C 0.63116 0.55406 0.5191 0.0
C517 C 0.62185 0.5103 0.50858 0.0
C518 C 0.56425 0.4181 0.59461 0.0
C519 C 0.59792 0.38755 0.53814 0.0
C520 C 0.56395 0.42825 0.55408 0.0
N521 N 0.58066 0.41295 0.52641 0.0
C522 C 0.59883 0.37673 0.5784 0.0
C523 C 0.58185 0.39216 0.60678 0.0
C524 C 0.57645 0.34771 0.42551 0.0
C525 C 0.49401 0.39226 0.33393 0.0
C526 C 0.5484 0.36698 0.31618 0.0
C527 C 0.51557 0.34682 0.29672 0.0
C528 C 0.48833 0.36 0.30533 0.0
N529 N 0.55512 0.40103 0.34252 0.0
C530 C 0.52732 0.41191 0.35266 0.0
Co531 Co 0.19382 0.57211 0.89038 0.0
Co532 Co 0.14146 0.54467 0.97316 0.0
O533 O 0.1464 0.54163 0.91453 0.0
C534 C 0.14091 0.57106 0.82658 0.0
O535 O 0.11459 0.55956 0.85241 0.0
C536 C 0.08295 0.45609 0.99521 0.0
O537 O 0.10306 0.45232 0.02438 0.0
O538 O 0.1746 0.51347 0.97943 0.0
O539 O 0.21658 0.56033 0.93908 0.0
H540 H 0.18715 0.56558 0.1146 0.0
H541 H 0.13637 0.49311 0.85415 0.0
O542 O 0.17303 0.58271 0.8386 0.0
H543 H 0.24494 0.46437 0.84897 0.0
H544 H 0.28697 0.62749 0.78111 0.0
H545 H 0.26336 0.63173 0.92497 0.0
H546 H 0.24649 0.53168 0.88037 0.0
H547 H 0.22756 0.5829 0.80839 0.0
O548 O 0.09641 0.48757 0.97001 0.0
H549 H 0.1917 0.56271 0.0412 0.0
H550 H 0.08073 0.53159 0.02972 0.0
H551 H 0.3237 0.67443 0.89924 0.0
H552 H 0.1338 0.42546 0.82263 0.0
H553 H 0.33578 0.6735 0.8266 0.0
H554 H 0.18853 0.41089 0.81936 0.0
O555 O 0.19583 0.6278 0.91427 0.0
H556 H 0.04113 0.57216 0.90964 0.0
H557 H 0.1387 0.62581 0.00867 0.0
H558 H 0.10109 0.66662 0.99812 0.0
H559 H 0.05165 0.63965 0.94857 0.0
H560 H 0.07994 0.53295 0.92052 0.0
H561 H 0.07508 0.53429 0.10295 0.0
H562 H 0.12851 0.55129 0.14597 0.0
O563 O 0.18436 0.60312 0.97716 0.0
C564 C 0.20655 0.52989 0.96516 0.0
C565 C 0.16364 0.55795 0.09618 0.0
C566 C 0.10076 0.54046 0.08965 0.0
N567 N 0.13649 0.54647 0.03105 0.0
C568 C 0.16602 0.55612 0.05456 0.0
C569 C 0.10416 0.53896 0.04815 0.0
C570 C 0.13074 0.54998 0.11377 0.0
C571 C 0.16042 0.48744 0.8527 0.0
N572 N 0.19185 0.51742 0.86788 0.0
C573 C 0.15874 0.44884 0.83488 0.0
C574 C 0.18942 0.44068 0.83304 0.0
C575 C 0.22114 0.47081 0.84942 0.0
C576 C 0.22181 0.50896 0.86718 0.0
C577 C 0.28202 0.62833 0.81279 0.0
C578 C 0.26832 0.63003 0.89349 0.0
C579 C 0.24818 0.60336 0.82841 0.0
N580 N 0.24147 0.60468 0.86835 0.0
C581 C 0.30268 0.65457 0.87906 0.0
C582 C 0.30943 0.65403 0.83833 0.0
C583 C 0.19715 0.63459 0.95197 0.0
C584 C 0.06246 0.58414 0.93149 0.0
C585 C 0.11746 0.61396 0.98678 0.0
C586 C 0.09614 0.63717 0.98107 0.0
C587 C 0.06841 0.62203 0.95328 0.0
N588 N 0.11131 0.57658 0.96549 0.0
C589 C 0.08439 0.56187 0.93793 0.0
Co590 Co 0.66601 0.16498 0.39056 0.0
Co591 Co 0.62847 0.13808 0.48319 0.0
O592 O 0.63771 0.12064 0.42947 0.0
C593 C 0.60919 0.10202 0.33573 0.0
O594 O 0.58313 0.09791 0.36046 0.0
C595 C 0.62413 0.04613 0.49074 0.0
O596 O 0.63845 0.04759 0.45538 0.0
O597 O 0.68189 0.17279 0.49261 0.0
O598 O 0.69329 0.20543 0.43283 0.0
H599 H 0.64489 0.24557 0.59484 0.0
H600 H 0.66116 0.07462 0.38076 0.0
O601 O 0.64127 0.12678 0.3445 0.0
H602 H 0.78959 0.16636 0.39823 0.0
H603 H 0.75343 0.22272 0.27775 0.0
H604 H 0.68788 0.26118 0.38396 0.0
H605 H 0.74586 0.19966 0.39853 0.0
H606 H 0.70576 0.16491 0.31546 0.0
O607 O 0.62792 0.08195 0.50804 0.0
H608 H 0.65461 0.22239 0.52757 0.0
H609 H 0.58392 0.09096 0.55354 0.0
H610 H 0.73384 0.31977 0.34515 0.0
H611 H 0.70403 0.04003 0.37999 0.0
H612 H 0.76803 0.30097 0.29275 0.0
H613 H 0.76879 0.086 0.38885 0.0
O614 O 0.62967 0.1911 0.3936 0.0
H615 H 0.51579 0.0179 0.42868 0.0
H616 H 0.56545 0.15807 0.50165 0.0
H617 H 0.50054 0.12083 0.49162 0.0
H618 H 0.47508 0.04969 0.4556 0.0
H619 H 0.58036 0.05667 0.43841 0.0
H620 H 0.57391 0.1126 0.6213 0.0
H621 H 0.60431 0.19046 0.64232 0.0
O622 O 0.62604 0.19217 0.46073 0.0
C623 C 0.70141 0.20378 0.46903 0.0
C624 C 0.63149 0.21153 0.58605 0.0
C625 C 0.59172 0.13691 0.60093 0.0
N626 N 0.61998 0.15537 0.53648 0.0
C627 C 0.63687 0.19822 0.54792 0.0
C628 C 0.59774 0.1248 0.56256 0.0
C629 C 0.60875 0.1806 0.61268 0.0
C630 C 0.68927 0.09488 0.38466 0.0
N631 N 0.70086 0.13909 0.39001 0.0
C632 C 0.71344 0.07508 0.38422 0.0
C633 C 0.74975 0.10088 0.38924 0.0
C634 C 0.76143 0.14595 0.39462 0.0
C635 C 0.73647 0.16457 0.39507 0.0
C636 C 0.73876 0.23145 0.30057 0.0
C637 C 0.70145 0.25249 0.35997 0.0
C638 C 0.71142 0.19881 0.32176 0.0
N639 N 0.6944 0.20953 0.35243 0.0
C640 C 0.72785 0.28595 0.3385 0.0
C641 C 0.74705 0.27533 0.3091 0.0
C642 C 0.61986 0.20371 0.42609 0.0
C643 C 0.52641 0.04826 0.44542 0.0
C644 C 0.55478 0.12679 0.48651 0.0
C645 C 0.51788 0.10602 0.48063 0.0
C646 C 0.50362 0.0662 0.46034 0.0
N647 N 0.577 0.10805 0.47346 0.0
C648 C 0.56318 0.07008 0.45178 0.0
Co649 Co 0.42301 0.56709 0.97548 0.0
Co650 Co 0.39056 0.54887 0.87906 0.0
O651 O 0.42079 0.54424 0.92167 0.0
C652 C 0.50238 0.61739 0.98532 0.0
O653 O 0.49642 0.65079 0.99866 0.0
C654 C 0.38346 0.46147 0.83447 0.0
O655 O 0.37218 0.41951 0.8428 0.0
O656 O 0.34784 0.52669 0.91546 0.0
O657 O 0.36989 0.5509 0.97673 0.0
H658 H 0.34319 0.62091 0.77315 0.0
H659 H 0.45333 0.50208 0.95695 0.0
O660 O 0.47624 0.58253 0.97395 0.0
H661 H 0.36221 0.43259 0.06085 0.0
H662 H 0.4676 0.59009 0.11785 0.0
H663 H 0.38965 0.61798 0.01942 0.0
H664 H 0.37447 0.50722 0.03681 0.0
H665 H 0.46259 0.56173 0.049 0.0
O666 O 0.38071 0.48592 0.86316 0.0
H667 H 0.37864 0.62146 0.83143 0.0
H668 H 0.3234 0.48408 0.84465 0.0
H669 H 0.39386 0.64712 0.0879 0.0
H670 H 0.44168 0.42733 0.97991 0.0
H671 H 0.43315 0.63327 0.13768 0.0
H672 H 0.39592 0.39211 0.0323 0.0
O673 O 0.43007 0.6265 0.9539 0.0
H674 H 0.50286 0.54181 0.82654 0.0
H675 H 0.43029 0.6276 0.82197 0.0
H676 H 0.48416 0.651 0.78194 0.0
H677 H 0.5212 0.6079 0.78333 0.0
H678 H 0.44813 0.51915 0.86633 0.0
H679 H 0.28292 0.48305 0.79045 0.0
H680 H 0.29314 0.55207 0.75345 0.0
O681 O 0.40047 0.61064 0.89508 0.0
C682 C 0.34372 0.53297 0.95256 0.0
C683 C 0.33897 0.5905 0.78826 0.0
C684 C 0.30526 0.51329 0.79782 0.0
N685 N 0.35745 0.55194 0.83795 0.0
C686 C 0.36047 0.59038 0.82049 0.0
C687 C 0.32864 0.51408 0.8285 0.0
C688 C 0.31098 0.55171 0.77707 0.0
C689 C 0.43349 0.48714 0.97991 0.0
N690 N 0.4148 0.5092 0.99571 0.0
C691 C 0.4269 0.44469 0.99266 0.0
C692 C 0.40118 0.42492 0.02202 0.0
C693 C 0.38228 0.44763 0.03807 0.0
C694 C 0.38936 0.4899 0.02434 0.0
C695 C 0.45061 0.59667 0.09636 0.0
C696 C 0.40715 0.61241 0.04069 0.0
C697 C 0.44778 0.58086 0.05726 0.0
N698 N 0.42656 0.58926 0.02983 0.0
C699 C 0.40926 0.62871 0.07954 0.0
C700 C 0.43126 0.62086 0.10747 0.0
C701 C 0.41697 0.6375 0.92293 0.0
C702 C 0.48661 0.56047 0.82497 0.0
C703 C 0.44487 0.60774 0.82284 0.0
C704 C 0.4761 0.62158 0.79999 0.0
C705 C 0.49692 0.59753 0.80085 0.0
N706 N 0.43376 0.57021 0.84528 0.0
C707 C 0.45521 0.54766 0.84736 0.0
C708 C 0.63198 0.0911 0.26919 0.0
C709 C 0.60243 0.08388 0.29433 0.0
C710 C 0.62808 0.08602 0.22772 0.0
C711 C 0.59442 0.07296 0.20957 0.0
H712 H 0.65887 0.10408 0.2811 0.0
H713 H 0.65202 0.09651 0.20953 0.0
S714 S 0.50743 0.03561 0.26281 0.0
N715 N 0.53761 0.05303 0.29881 0.0
N716 N 0.53006 0.04213 0.22064 0.0
C717 C 0.56412 0.05859 0.23473 0.0
C718 C 0.56817 0.06461 0.27721 0.0
C719 C 0.40238 0.52303 0.73413 0.0
C720 C 0.40776 0.49372 0.70794 0.0
C721 C 0.39697 0.51399 0.7749 0.0
C722 C 0.39674 0.47564 0.79229 0.0
H723 H 0.39975 0.55196 0.72259 0.0
H724 H 0.39146 0.537 0.79156 0.0
S725 S 0.41617 0.3912 0.73648 0.0
N726 N 0.41695 0.42676 0.70168 0.0
N727 N 0.40802 0.41039 0.77912 0.0
C728 C 0.4056 0.44779 0.76648 0.0
C729 C 0.41092 0.4568 0.72434 0.0
C730 C 0.89209 0.48586 0.22874 0.0
C731 C 0.90853 0.46362 0.20653 0.0
C732 C 0.88961 0.48224 0.27053 0.0
C733 C 0.90216 0.45491 0.29195 0.0
H734 H 0.87985 0.50494 0.21355 0.0
H735 H 0.87674 0.5002 0.28598 0.0
S736 S 0.9503 0.3926 0.24834 0.0
N737 N 0.94081 0.41654 0.2094 0.0
N738 N 0.93442 0.40821 0.28804 0.0
C739 C 0.92063 0.4346 0.27049 0.0
C740 C 0.92406 0.43918 0.22776 0.0
C741 C 0.3852 0.92924 0.77515 0.0
C742 C 0.41324 0.92542 0.79705 0.0
C743 C 0.38854 0.93876 0.73424 0.0
C744 C 0.42027 0.94574 0.71384 0.0
H745 H 0.35939 0.92132 0.78891 0.0
H746 H 0.36493 0.9359 0.71768 0.0
S747 S 0.50475 0.95213 0.75956 0.0
N748 N 0.47596 0.93813 0.79705 0.0
N749 N 0.48271 0.95789 0.72007 0.0
C750 C 0.45022 0.94897 0.73656 0.0
C751 C 0.4466 0.93829 0.7783 0.0
C752 C 0.62785 0.54329 0.27581 0.0
C753 C 0.59522 0.52258 0.29589 0.0
C754 C 0.62971 0.54146 0.2341 0.0
C755 C 0.59914 0.51748 0.21085 0.0
H756 H 0.65253 0.55779 0.29266 0.0
H757 H 0.65592 0.55607 0.2205 0.0
S758 S 0.50611 0.46625 0.24874 0.0
N759 N 0.53072 0.4851 0.28925 0.0
N760 N 0.53434 0.47966 0.21075 0.0
C761 C 0.56579 0.50106 0.23022 0.0
C762 C 0.56383 0.50408 0.27283 0.0
C763 C 0.14664 0.53027 0.72145 0.0
C764 C 0.11763 0.53355 0.70159 0.0
C765 C 0.15437 0.54362 0.76147 0.0
C766 C 0.13301 0.55996 0.78349 0.0
H767 H 0.16354 0.51747 0.70589 0.0
H768 H 0.17677 0.53991 0.77543 0.0
S769 S 0.05017 0.56727 0.74697 0.0
N770 N 0.06456 0.5483 0.70825 0.0
N771 N 0.07951 0.57438 0.78317 0.0
C772 C 0.10282 0.56111 0.76446 0.0
C773 C 0.09488 0.54735 0.72371 0.0
C774 C 0.45246 0.03143 0.05969 0.0
C775 C 0.47527 0.06447 0.0339 0.0
C776 C 0.42131 0.99734 0.04558 0.0
C777 C 0.41119 0.99491 0.00514 0.0
H778 H 0.45953 0.0304 0.0908 0.0
H779 H 0.40598 0.97139 0.06618 0.0
S780 S 0.45876 0.07624 0.92613 0.0
N781 N 0.48338 0.0949 0.96663 0.0
N782 N 0.42472 0.03106 0.94012 0.0
C783 C 0.43214 0.02956 0.97961 0.0
C784 C 0.4642 0.06416 0.99394 0.0
C785 C 0.41242 0.3819 0.52697 0.0
C786 C 0.40358 0.40715 0.49848 0.0
C787 C 0.44301 0.37295 0.52254 0.0
C788 C 0.46629 0.38944 0.48978 0.0
H789 H 0.39689 0.37115 0.55417 0.0
H790 H 0.44953 0.3552 0.54617 0.0
S791 S 0.4521 0.4507 0.40351 0.0
N792 N 0.41774 0.44216 0.43319 0.0
N793 N 0.47615 0.42807 0.42627 0.0
C794 C 0.45649 0.41219 0.4599 0.0
C795 C 0.4249 0.4202 0.46384 0.0
C796 C 0.02663 0.40813 0.03264 0.0
C797 C 0.04289 0.43088 0.99732 0.0
C798 C 0.98918 0.39016 0.03809 0.0
C799 C 0.96602 0.39421 0.00863 0.0
H800 H 0.043 0.40571 0.05718 0.0
H801 H 0.97848 0.37475 0.06651 0.0
S802 S 0.99397 0.44478 0.90831 0.0
N803 N 0.03187 0.4517 0.93057 0.0
N804 N 0.96216 0.41885 0.94105 0.0
C805 C 0.98172 0.41473 0.97237 0.0
C806 C 0.01981 0.43272 0.96667 0.0
C807 C 0.58424 0.998 0.54507 0.0
C808 C 0.59449 0.00431 0.50444 0.0
C809 C 0.55318 0.96202 0.5576 0.0
C810 C 0.53042 0.93174 0.52985 0.0
H811 H 0.59994 0.02161 0.56727 0.0
H812 H 0.54603 0.95908 0.58903 0.0
S813 S 0.54498 0.93198 0.42038 0.0
N814 N 0.57969 0.97499 0.43684 0.0
N815 N 0.52066 0.90952 0.4603 0.0
C816 C 0.54055 0.93708 0.4894 0.0
C817 C 0.57274 0.97267 0.47676 0.0
C818 C 0.55022 0.59415 0.96152 0.0
C819 C 0.53841 0.61678 0.98949 0.0
C820 C 0.58204 0.58835 0.96749 0.0
C821 C 0.60277 0.60332 0.00248 0.0
H822 H 0.53438 0.58006 0.93508 0.0
H823 H 0.5897 0.57055 0.94504 0.0
S824 S 0.5845 0.66738 0.08383 0.0
N825 N 0.55126 0.65725 0.052 0.0
N826 N 0.61006 0.64503 0.06414 0.0
C827 C 0.59213 0.62813 0.02967 0.0
C828 C 0.56014 0.6349 0.02307 0.0
C829 C 0.98031 0.57807 0.52208 0.0
C830 C 0.9688 0.5727 0.48189 0.0
C831 C 0.01696 0.59708 0.53221 0.0
C832 C 0.04399 0.61075 0.50266 0.0
H833 H 0.96084 0.56673 0.54601 0.0
H834 H 0.02411 0.59928 0.56359 0.0
S835 S 0.0286 0.60485 0.39291 0.0
N836 N 0.98801 0.58404 0.41226 0.0
N837 N 0.05631 0.61855 0.43136 0.0
C838 C 0.03287 0.60633 0.46241 0.0
C839 C 0.99557 0.58773 0.45206 0.0
C840 C 0.59528 0.30329 0.11221 0.0
C841 C 0.58898 0.27839 0.07672 0.0
C842 C 0.59854 0.34666 0.11218 0.0
C843 C 0.59643 0.36755 0.07639 0.0
H844 H 0.59896 0.28989 0.14035 0.0
H845 H 0.60484 0.36456 0.14016 0.0
S846 S 0.57361 0.31464 0.97616 0.0
N847 N 0.57534 0.27598 0.00576 0.0
N848 N 0.58241 0.35778 0.00511 0.0
C849 C 0.58715 0.34194 0.04111 0.0
C850 C 0.58327 0.2974 0.04138 0.0
C851 C 0.27981 0.55385 0.50859 0.0
C852 C 0.27342 0.51026 0.51884 0.0
C853 C 0.25447 0.5715 0.51646 0.0
C854 C 0.22214 0.54688 0.53632 0.0
H855 H 0.30581 0.57599 0.49799 0.0
H856 H 0.2612 0.60557 0.50909 0.0
S857 S 0.18967 0.42954 0.564 0.0
N858 N 0.22964 0.44139 0.54467 0.0
N859 N 0.18321 0.47521 0.56163 0.0
C860 C 0.21433 0.50265 0.54442 0.0
C861 C 0.23954 0.48425 0.53502 0.0
C862 C 0.74986 0.28522 0.01569 0.0
C863 C 0.77757 0.28563 0.04091 0.0
C864 C 0.71403 0.25552 0.02182 0.0
C865 C 0.70423 0.22538 0.05393 0.0
H866 H 0.7551 0.31044 0.99334 0.0
H867 H 0.69361 0.25854 0.00301 0.0
S868 S 0.76747 0.20747 0.12386 0.0
N869 N 0.79319 0.24863 0.0953 0.0
N870 N 0.7263 0.19369 0.10745 0.0
C871 C 0.73209 0.2229 0.07708 0.0
C872 C 0.76851 0.25267 0.07037 0.0
C873 C 0.39637 0.70404 0.61255 0.0
C874 C 0.40853 0.73124 0.57841 0.0
C875 C 0.38804 0.65901 0.6111 0.0
C876 C 0.39145 0.63889 0.57544 0.0
H877 H 0.39226 0.71726 0.64073 0.0
H878 H 0.37814 0.63979 0.63804 0.0
S879 S 0.42457 0.69589 0.47797 0.0
N880 N 0.42567 0.73511 0.50856 0.0
N881 N 0.4096 0.65072 0.50514 0.0
C882 C 0.40484 0.66607 0.54132 0.0
C883 C 0.41356 0.71208 0.54299 0.0
C884 C 0.75932 0.50981 0.03155 0.0
C885 C 0.72415 0.47947 0.02312 0.0
C886 C 0.78678 0.49591 0.04094 0.0
C887 C 0.78009 0.45107 0.04239 0.0
H888 H 0.76496 0.54434 0.03421 0.0
H889 H 0.81313 0.52032 0.04824 0.0
S890 S 0.69337 0.3583 0.02194 0.0
N891 N 0.68496 0.40232 0.01633 0.0
N892 N 0.73637 0.37663 0.03265 0.0
C893 C 0.74575 0.42063 0.03194 0.0
C894 C 0.71793 0.43468 0.02256 0.0
C895 C 0.24415 0.73503 0.59627 0.0
C896 C 0.22953 0.71966 0.55801 0.0
C897 C 0.27867 0.76794 0.60138 0.0
C898 C 0.30121 0.78685 0.56856 0.0
H899 H 0.22964 0.71991 0.62312 0.0
H900 H 0.28838 0.77663 0.63166 0.0
S901 S 0.27482 0.76385 0.46154 0.0
N902 N 0.23916 0.73093 0.48644 0.0
N903 N 0.3047 0.79103 0.49578 0.0
C904 C 0.2863 0.7741 0.52994 0.0
C905 C 0.25046 0.74115 0.52475 0.0
C906 C 0.75947 0.50982 0.44414 0.0
C907 C 0.76908 0.48339 0.47076 0.0
C908 C 0.72346 0.49992 0.43382 0.0
C909 C 0.69499 0.46397 0.45086 0.0
H910 H 0.78023 0.53648 0.42855 0.0
H911 H 0.71796 0.52005 0.41164 0.0
S912 S 0.70437 0.38772 0.52653 0.0
N913 N 0.74591 0.42161 0.51635 0.0
N914 N 0.67893 0.40452 0.499 0.0
C915 C 0.70394 0.43975 0.48023 0.0
C916 C 0.7406 0.44921 0.48987 0.0
C917 C 0.27912 0.72737 0.9932 0.0
C918 C 0.27448 0.76501 0.9806 0.0
C919 C 0.25246 0.68502 0.98701 0.0
C920 C 0.22066 0.67875 0.96678 0.0
H921 H 0.30479 0.73001 0.00376 0.0
H922 H 0.25816 0.65702 0.99481 0.0
S923 S 0.19185 0.7658 0.93601 0.0
N924 N 0.23236 0.79274 0.95453 0.0
N925 N 0.18343 0.71318 0.94007 0.0
C926 C 0.21415 0.71578 0.95756 0.0
C927 C 0.24072 0.75885 0.96534 0.0
C928 C 0.60013 0.2562 0.46165 0.0
C929 C 0.6032 0.23592 0.42548 0.0
C930 C 0.58723 0.28915 0.46242 0.0
C931 C 0.57698 0.30348 0.42706 0.0
H932 H 0.60916 0.24802 0.48972 0.0
H933 H 0.5877 0.30538 0.49051 0.0
S934 S 0.5717 0.25444 0.32601 0.0
N935 N 0.58939 0.22801 0.35446 0.0
N936 N 0.56451 0.28931 0.35597 0.0
C937 C 0.57652 0.2805 0.39137 0.0
C938 C 0.58996 0.24715 0.39049 0.0
C939 C 0.26623 0.55366 0.99548 0.0
C940 C 0.23594 0.51873 0.97999 0.0
C941 C 0.30099 0.55619 0.9893 0.0
C942 C 0.30693 0.52405 0.96703 0.0
H943 H 0.26335 0.5818 0.00842 0.0
H944 H 0.3234 0.58552 0.99891 0.0
S945 S 0.23658 0.42 0.93013 0.0
N946 N 0.21406 0.44698 0.94885 0.0
N947 N 0.27934 0.45191 0.93664 0.0
C948 C 0.27682 0.48653 0.95552 0.0
C949 C 0.24136 0.48368 0.96245 0.0
C950 C 0.7237 0.28297 0.48122 0.0
C951 C 0.73108 0.24515 0.48204 0.0
C952 C 0.74978 0.32433 0.47011 0.0
C953 C 0.78454 0.33003 0.45938 0.0
H954 H 0.69649 0.27979 0.48499 0.0
H955 H 0.7422 0.35173 0.46803 0.0
S956 S 0.81981 0.24405 0.46237 0.0
N957 N 0.77735 0.21786 0.47511 0.0
N958 N 0.82642 0.29576 0.45501 0.0
C959 C 0.79329 0.29363 0.46306 0.0
C960 C 0.76665 0.25135 0.47438 0.0
C961 C 0.40643 0.69756 0.95727 0.0
C962 C 0.41502 0.68122 0.92203 0.0
C963 C 0.39633 0.73288 0.95649 0.0
C964 C 0.39448 0.75396 0.92038 0.0
H965 H 0.40593 0.68188 0.98567 0.0
H966 H 0.38904 0.74288 0.98468 0.0
S967 S 0.42172 0.73016 0.82061 0.0
N968 N 0.42692 0.69395 0.85075 0.0
N969 N 0.40648 0.75918 0.849 0.0
C970 C 0.40504 0.73977 0.88513 0.0
C971 C 0.41576 0.7039 0.88605 0.0
loop_
_geom_bond_atom_site_label_1
_geom_bond_atom_site_label_2
_geom_bond_distance
_geom_bond_site_symmetry_2
_ccdc_geom_bond_type
Co0 O2 2.143 . S
Co0 O8 2.074 . S
Co0 O11 2.093 . S
Co0 O24 2.097 . S
Co0 N41 2.151 . S
Co0 N49 2.214 . S
Co1 O2 2.160 . S
Co1 O7 2.058 . S
Co1 O17 2.057 1_554 S
Co1 O32 2.037 . S
Co1 N36 2.145 1_554 S
Co1 N57 2.257 . S
O2 Co0 2.143 . S
O2 Co1 2.160 . S
C3 O4 1.278 . S
C3 O11 1.224 . S
O4 C3 1.278 . S
C5 O6 1.245 . S
C5 O17 1.232 1_554 S
O6 C5 1.245 . S
O7 Co1 2.058 . S
O7 C33 1.269 . S
O8 Co0 2.074 . S
O8 C33 1.257 . S
H9 C34 0.930 . S
H10 C40 0.930 . S
O11 Co0 2.093 . S
O11 C3 1.224 . S
H12 C44 0.929 . S
H13 C46 0.930 . S
H14 C47 0.930 . S
H15 C45 0.929 . S
H16 C48 0.928 . S
O17 Co1 2.057 1_556 S
O17 C5 1.232 1_556 S
H18 C37 0.929 . S
H19 C38 0.929 . S
H20 C50 0.931 . S
H21 C42 0.929 . S
H22 C51 0.930 . S
H23 C43 0.931 . S
O24 Co0 2.097 . S
O24 C52 1.214 . S
H25 C53 0.929 1_565 S
H26 C54 0.929 1_556 S
H27 C55 0.930 . S
H28 C56 0.929 . S
H29 C58 0.930 . S
H30 C35 0.930 . S
H31 C39 0.930 . S
O32 Co1 2.037 . S
O32 C52 1.234 . S
C33 O7 1.269 . S
C33 O8 1.257 . S
C34 H9 0.930 . S
C34 C37 1.388 . S
C34 C39 1.418 . S
C35 H30 0.930 . S
C35 C38 1.404 . S
C35 C39 1.353 . S
N36 Co1 2.145 1_556 S
N36 C37 1.397 . S
N36 C38 1.334 . S
C37 H18 0.929 . S
C37 C34 1.388 . S
C37 N36 1.397 . S
C38 H19 0.929 . S
C38 C35 1.404 . S
C38 N36 1.334 . S
C39 H31 0.930 . S
C39 C34 1.418 . S
C39 C35 1.353 . S
C40 H10 0.930 . S
C40 N41 1.330 . S
C40 C42 1.446 . S
N41 Co0 2.151 . S
N41 C40 1.330 . S
N41 C45 1.418 . S
C42 H21 0.929 . S
C42 C40 1.446 . S
C42 C43 1.332 . S
C43 H23 0.931 . S
C43 C42 1.332 . S
C43 C44 1.267 . S
C44 H12 0.929 . S
C44 C43 1.267 . S
C44 C45 1.251 . S
C45 H15 0.929 . S
C45 N41 1.418 . S
C45 C44 1.251 . S
C46 H13 0.930 . S
C46 C48 1.406 . S
C46 C51 1.261 . S
C47 H14 0.930 . S
C47 N49 1.325 . S
C47 C50 1.357 . S
C48 H16 0.928 . S
C48 C46 1.406 . S
C48 N49 1.261 . S
N49 Co0 2.214 . S
N49 C47 1.325 . S
N49 C48 1.261 . S
C50 H20 0.931 . S
C50 C47 1.357 . S
C50 C51 1.312 . S
C51 H22 0.930 . S
C51 C46 1.261 . S
C51 C50 1.312 . S
C52 O24 1.214 . S
C52 O32 1.234 . S
C53 H25 0.929 1_545 S
C53 C56 1.391 . S
C53 C58 1.391 . S
C54 H26 0.929 1_554 S
C54 C55 1.390 . S
C54 N57 1.391 . S
C55 H27 0.930 . S
C55 C54 1.390 . S
C55 C56 1.392 . S
C56 H28 0.929 . S
C56 C53 1.391 . S
C56 C55 1.392 . S
N57 Co1 2.257 . S
N57 C54 1.391 . S
N57 C58 1.388 . S
C58 H29 0.930 . S
C58 C53 1.391 . S
C58 N57 1.388 . S
Co59 O61 2.143 . S
Co59 O67 2.074 . S
Co59 O70 2.093 . S
Co59 O83 2.097 . S
Co59 N100 2.151 . S
Co59 N108 2.214 . S
Co60 O61 2.160 . S
Co60 O66 2.058 . S
Co60 O76 2.057 . S
Co60 O91 2.037 . S
Co60 N95 2.145 . S
Co60 N116 2.257 . S
O61 Co59 2.143 . S
O61 Co60 2.160 . S
C62 O63 1.278 . S
C62 O70 1.224 . S
O63 C62 1.278 . S
C64 O65 1.245 . S
C64 O76 1.232 . S
O65 C64 1.245 . S
O66 Co60 2.058 . S
O66 C92 1.269 . S
O67 Co59 2.074 . S
O67 C92 1.257 . S
H68 C93 0.930 . S
H69 C99 0.930 . S
O70 Co59 2.093 . S
O70 C62 1.224 . S
H71 C103 0.929 . S
H72 C105 0.930 . S
H73 C106 0.930 . S
H74 C104 0.929 . S
H75 C107 0.928 . S
O76 Co60 2.057 . S
O76 C64 1.232 . S
H77 C96 0.929 . S
H78 C97 0.929 . S
H79 C109 0.931 . S
H80 C101 0.929 . S
H81 C110 0.930 . S
H82 C102 0.931 . S
O83 Co59 2.097 . S
O83 C111 1.214 . S
H84 C112 0.929 . S
H85 C113 0.929 . S
H86 C114 0.930 . S
H87 C115 0.929 . S
H88 C117 0.930 . S
H89 C94 0.930 . S
H90 C98 0.930 . S
O91 Co60 2.037 . S
O91 C111 1.234 . S
C92 O66 1.269 . S
C92 O67 1.257 . S
C93 H68 0.930 . S
C93 C96 1.388 . S
C93 C98 1.418 . S
C94 H89 0.930 . S
C94 C97 1.404 . S
C94 C98 1.353 . S
N95 Co60 2.145 . S
N95 C96 1.397 . S
N95 C97 1.334 . S
C96 H77 0.929 . S
C96 C93 1.388 . S
C96 N95 1.397 . S
C97 H78 0.929 . S
C97 C94 1.404 . S
C97 N95 1.334 . S
C98 H90 0.930 . S
C98 C93 1.418 . S
C98 C94 1.353 . S
C99 H69 0.930 . S
C99 N100 1.330 . S
C99 C101 1.446 . S
N100 Co59 2.151 . S
N100 C99 1.330 . S
N100 C104 1.418 . S
C101 H80 0.929 . S
C101 C99 1.446 . S
C101 C102 1.332 . S
C102 H82 0.931 . S
C102 C101 1.332 . S
C102 C103 1.267 . S
C103 H71 0.929 . S
C103 C102 1.267 . S
C103 C104 1.251 . S
C104 H74 0.929 . S
C104 N100 1.418 . S
C104 C103 1.251 . S
C105 H72 0.930 . S
C105 C107 1.406 . S
C105 C110 1.261 . S
C106 H73 0.930 . S
C106 N108 1.325 . S
C106 C109 1.357 . S
C107 H75 0.928 . S
C107 C105 1.406 . S
C107 N108 1.261 . S
N108 Co59 2.214 . S
N108 C106 1.325 . S
N108 C107 1.261 . S
C109 H79 0.931 . S
C109 C106 1.357 . S
C109 C110 1.312 . S
C110 H81 0.930 . S
C110 C105 1.261 . S
C110 C109 1.312 . S
C111 O83 1.214 . S
C111 O91 1.234 . S
C112 H84 0.929 . S
C112 C115 1.391 . S
C112 C117 1.391 . S
C113 H85 0.929 . S
C113 C114 1.390 . S
C113 N116 1.391 . S
C114 H86 0.930 . S
C114 C113 1.390 . S
C114 C115 1.392 . S
C115 H87 0.929 . S
C115 C112 1.391 . S
C115 C114 1.392 . S
N116 Co60 2.257 . S
N116 C113 1.391 . S
N116 C117 1.388 . S
C117 H88 0.930 . S
C117 C112 1.391 . S
C117 N116 1.388 . S
Co118 O120 2.143 . S
Co118 O126 2.074 . S
Co118 O129 2.093 1_554 S
Co118 O142 2.097 1_554 S
Co118 N159 2.151 . S
Co118 N167 2.214 1_554 S
Co119 O120 2.160 . S
Co119 O125 2.058 . S
Co119 O135 2.057 . S
Co119 O150 2.037 . S
Co119 N154 2.145 . S
Co119 N175 2.257 . S
O120 Co118 2.143 . S
O120 Co119 2.160 . S
C121 O122 1.278 . S
C121 O129 1.224 1_554 S
O122 C121 1.278 . S
C123 O124 1.245 . S
C123 O135 1.232 . S
O124 C123 1.245 . S
O125 Co119 2.058 . S
O125 C151 1.269 . S
O126 Co118 2.074 . S
O126 C151 1.257 . S
H127 C152 0.930 . S
H128 C158 0.930 . S
O129 Co118 2.093 1_556 S
O129 C121 1.224 1_556 S
H130 C162 0.929 . S
H131 C164 0.930 . S
H132 C165 0.930 . S
H133 C163 0.929 . S
H134 C166 0.928 . S
O135 Co119 2.057 . S
O135 C123 1.232 . S
H136 C155 0.929 . S
H137 C156 0.929 . S
H138 C168 0.931 . S
H139 C160 0.929 . S
H140 C169 0.930 . S
H141 C161 0.931 . S
O142 Co118 2.097 1_556 S
O142 C170 1.214 1_556 S
H143 C171 0.929 . S
H144 C172 0.929 . S
H145 C173 0.930 . S
H146 C174 0.929 . S
H147 C176 0.930 . S
H148 C153 0.930 . S
H149 C157 0.930 . S
O150 Co119 2.037 . S
O150 C170 1.234 . S
C151 O125 1.269 . S
C151 O126 1.257 . S
C152 H127 0.930 . S
C152 C155 1.388 . S
C152 C157 1.418 . S
C153 H148 0.930 . S
C153 C156 1.404 . S
C153 C157 1.353 . S
N154 Co119 2.145 . S
N154 C155 1.397 . S
N154 C156 1.334 . S
C155 H136 0.929 . S
C155 C152 1.388 . S
C155 N154 1.397 . S
C156 H137 0.929 . S
C156 C153 1.404 . S
C156 N154 1.334 . S
C157 H149 0.930 . S
C157 C152 1.418 . S
C157 C153 1.353 . S
C158 H128 0.930 . S
C158 N159 1.330 . S
C158 C160 1.446 . S
N159 Co118 2.151 . S
N159 C158 1.330 . S
N159 C163 1.418 1_554 S
C160 H139 0.929 . S
C160 C158 1.446 . S
C160 C161 1.332 . S
C161 H141 0.931 . S
C161 C160 1.332 . S
C161 C162 1.267 1_554 S
C162 H130 0.929 . S
C162 C161 1.267 1_556 S
C162 C163 1.251 . S
C163 H133 0.929 . S
C163 N159 1.418 1_556 S
C163 C162 1.251 . S
C164 H131 0.930 . S
C164 C166 1.406 . S
C164 C169 1.261 . S
C165 H132 0.930 . S
C165 N167 1.325 . S
C165 C168 1.357 . S
C166 H134 0.928 . S
C166 C164 1.406 . S
C166 N167 1.261 . S
N167 Co118 2.214 1_556 S
N167 C165 1.325 . S
N167 C166 1.261 . S
C168 H138 0.931 . S
C168 C165 1.357 . S
C168 C169 1.312 . S
C169 H140 0.930 . S
C169 C164 1.261 . S
C169 C168 1.312 . S
C170 O142 1.214 1_554 S
C170 O150 1.234 . S
C171 H143 0.929 . S
C171 C174 1.391 . S
C171 C176 1.391 . S
C172 H144 0.929 . S
C172 C173 1.390 . S
C172 N175 1.391 . S
C173 H145 0.930 . S
C173 C172 1.390 . S
C173 C174 1.392 . S
C174 H146 0.929 . S
C174 C171 1.391 . S
C174 C173 1.392 . S
N175 Co119 2.257 . S
N175 C172 1.391 . S
N175 C176 1.388 . S
C176 H147 0.930 . S
C176 C171 1.391 . S
C176 N175 1.388 . S
Co177 O179 2.143 . S
Co177 O185 2.074 . S
Co177 O188 2.093 . S
Co177 O201 2.097 . S
Co177 N218 2.151 . S
Co177 N226 2.214 . S
Co178 O179 2.160 . S
Co178 O184 2.058 . S
Co178 O194 2.057 . S
Co178 O209 2.037 . S
Co178 N213 2.145 . S
Co178 N234 2.257 . S
O179 Co177 2.143 . S
O179 Co178 2.160 . S
C180 O181 1.278 . S
C180 O188 1.224 . S
O181 C180 1.278 . S
C182 O183 1.245 . S
C182 O194 1.232 . S
O183 C182 1.245 . S
O184 Co178 2.058 . S
O184 C210 1.269 . S
O185 Co177 2.074 . S
O185 C210 1.257 . S
H186 C211 0.930 . S
H187 C217 0.930 . S
O188 Co177 2.093 . S
O188 C180 1.224 . S
H189 C221 0.929 . S
H190 C223 0.930 . S
H191 C224 0.930 . S
H192 C222 0.929 . S
H193 C225 0.928 . S
O194 Co178 2.057 . S
O194 C182 1.232 . S
H195 C214 0.929 . S
H196 C215 0.929 . S
H197 C227 0.931 . S
H198 C219 0.929 . S
H199 C228 0.930 . S
H200 C220 0.931 . S
O201 Co177 2.097 . S
O201 C229 1.214 . S
H202 C230 0.929 1_545 S
H203 C231 0.929 . S
H204 C232 0.930 . S
H205 C233 0.929 . S
H206 C235 0.930 . S
H207 C212 0.930 . S
H208 C216 0.930 . S
O209 Co178 2.037 . S
O209 C229 1.234 . S
C210 O184 1.269 . S
C210 O185 1.257 . S
C211 H186 0.930 . S
C211 C214 1.388 . S
C211 C216 1.418 . S
C212 H207 0.930 . S
C212 C215 1.404 . S
C212 C216 1.353 . S
N213 Co178 2.145 . S
N213 C214 1.397 . S
N213 C215 1.334 . S
C214 H195 0.929 . S
C214 C211 1.388 . S
C214 N213 1.397 . S
C215 H196 0.929 . S
C215 C212 1.404 . S
C215 N213 1.334 . S
C216 H208 0.930 . S
C216 C211 1.418 . S
C216 C212 1.353 . S
C217 H187 0.930 . S
C217 N218 1.330 . S
C217 C219 1.446 . S
N218 Co177 2.151 . S
N218 C217 1.330 . S
N218 C222 1.418 . S
C219 H198 0.929 . S
C219 C217 1.446 . S
C219 C220 1.332 . S
C220 H200 0.931 . S
C220 C219 1.332 . S
C220 C221 1.267 . S
C221 H189 0.929 . S
C221 C220 1.267 . S
C221 C222 1.251 . S
C222 H192 0.929 . S
C222 N218 1.418 . S
C222 C221 1.251 . S
C223 H190 0.930 . S
C223 C225 1.406 . S
C223 C228 1.261 . S
C224 H191 0.930 . S
C224 N226 1.325 . S
C224 C227 1.357 . S
C225 H193 0.928 . S
C225 C223 1.406 . S
C225 N226 1.261 . S
N226 Co177 2.214 . S
N226 C224 1.325 . S
N226 C225 1.261 . S
C227 H197 0.931 . S
C227 C224 1.357 . S
C227 C228 1.312 . S
C228 H199 0.930 . S
C228 C223 1.261 . S
C228 C227 1.312 . S
C229 O201 1.214 . S
C229 O209 1.234 . S
C230 H202 0.929 1_565 S
C230 C233 1.391 . S
C230 C235 1.391 . S
C231 H203 0.929 . S
C231 C232 1.390 . S
C231 N234 1.391 . S
C232 H204 0.930 . S
C232 C231 1.390 . S
C232 C233 1.392 . S
C233 H205 0.929 . S
C233 C230 1.391 . S
C233 C232 1.392 . S
N234 Co178 2.257 . S
N234 C231 1.391 . S
N234 C235 1.388 . S
C235 H206 0.930 . S
C235 C230 1.391 . S
C235 N234 1.388 . S
Co236 O238 2.143 . S
Co236 O244 2.074 . S
Co236 O247 2.093 . S
Co236 O260 2.097 . S
Co236 N277 2.151 . S
Co236 N285 2.214 . S
Co237 O238 2.160 . S
Co237 O243 2.058 1_554 S
Co237 O253 2.057 1_554 S
Co237 O268 2.037 . S
Co237 N272 2.145 1_554 S
Co237 N293 2.257 . S
O238 Co236 2.143 . S
O238 Co237 2.160 . S
C239 O240 1.278 . S
C239 O247 1.224 . S
O240 C239 1.278 . S
C241 O242 1.245 . S
C241 O253 1.232 1_554 S
O242 C241 1.245 . S
O243 Co237 2.058 1_556 S
O243 C269 1.269 1_556 S
O244 Co236 2.074 . S
O244 C269 1.257 . S
H245 C270 0.930 . S
H246 C276 0.930 . S
O247 Co236 2.093 . S
O247 C239 1.224 . S
H248 C280 0.929 . S
H249 C282 0.930 . S
H250 C283 0.930 . S
H251 C281 0.929 . S
H252 C284 0.928 . S
O253 Co237 2.057 1_556 S
O253 C241 1.232 1_556 S
H254 C273 0.929 . S
H255 C274 0.929 . S
H256 C286 0.931 . S
H257 C278 0.929 . S
H258 C287 0.930 . S
H259 C279 0.931 . S
O260 Co236 2.097 . S
O260 C288 1.214 . S
H261 C289 0.929 . S
H262 C290 0.929 . S
H263 C291 0.930 . S
H264 C292 0.929 . S
H265 C294 0.930 . S
H266 C271 0.930 . S
H267 C275 0.930 . S
O268 Co237 2.037 . S
O268 C288 1.234 . S
C269 O243 1.269 1_554 S
C269 O244 1.257 . S
C270 H245 0.930 . S
C270 C273 1.388 . S
C270 C275 1.418 . S
C271 H266 0.930 . S
C271 C274 1.404 . S
C271 C275 1.353 . S
N272 Co237 2.145 1_556 S
N272 C273 1.397 . S
N272 C274 1.334 . S
C273 H254 0.929 . S
C273 C270 1.388 . S
C273 N272 1.397 . S
C274 H255 0.929 . S
C274 C271 1.404 . S
C274 N272 1.334 . S
C275 H267 0.930 . S
C275 C270 1.418 . S
C275 C271 1.353 . S
C276 H246 0.930 . S
C276 N277 1.330 . S
C276 C278 1.446 . S
N277 Co236 2.151 . S
N277 C276 1.330 . S
N277 C281 1.418 . S
C278 H257 0.929 . S
C278 C276 1.446 . S
C278 C279 1.332 . S
C279 H259 0.931 . S
C279 C278 1.332 . S
C279 C280 1.267 . S
C280 H248 0.929 . S
C280 C279 1.267 . S
C280 C281 1.251 . S
C281 H251 0.929 . S
C281 N277 1.418 . S
C281 C280 1.251 . S
C282 H249 0.930 . S
C282 C284 1.406 . S
C282 C287 1.261 . S
C283 H250 0.930 . S
C283 N285 1.325 . S
C283 C286 1.357 . S
C284 H252 0.928 . S
C284 C282 1.406 . S
C284 N285 1.261 . S
N285 Co236 2.214 . S
N285 C283 1.325 . S
N285 C284 1.261 . S
C286 H256 0.931 . S
C286 C283 1.357 . S
C286 C287 1.312 . S
C287 H258 0.930 . S
C287 C282 1.261 . S
C287 C286 1.312 . S
C288 O260 1.214 . S
C288 O268 1.234 . S
C289 H261 0.929 . S
C289 C292 1.391 . S
C289 C294 1.391 . S
C290 H262 0.929 . S
C290 C291 1.390 . S
C290 N293 1.391 . S
C291 H263 0.930 . S
C291 C290 1.390 . S
C291 C292 1.392 . S
C292 H264 0.929 . S
C292 C289 1.391 . S
C292 C291 1.392 . S
N293 Co237 2.257 . S
N293 C290 1.391 . S
N293 C294 1.388 . S
C294 H265 0.930 . S
C294 C289 1.391 . S
C294 N293 1.388 . S
Co295 O297 2.143 . S
Co295 O303 2.074 . S
Co295 O306 2.093 . S
Co295 O319 2.097 . S
Co295 N336 2.151 . S
Co295 N344 2.214 . S
Co296 O297 2.160 . S
Co296 O302 2.058 . S
Co296 O312 2.057 . S
Co296 O327 2.037 . S
Co296 N331 2.145 . S
Co296 N352 2.257 . S
O297 Co295 2.143 . S
O297 Co296 2.160 . S
C298 O299 1.278 . S
C298 O306 1.224 . S
O299 C298 1.278 . S
C300 O301 1.245 . S
C300 O312 1.232 . S
O301 C300 1.245 . S
O302 Co296 2.058 . S
O302 C328 1.269 . S
O303 Co295 2.074 . S
O303 C328 1.257 . S
H304 C329 0.930 . S
H305 C335 0.930 . S
O306 Co295 2.093 . S
O306 C298 1.224 . S
H307 C339 0.929 . S
H308 C341 0.930 . S
H309 C342 0.930 . S
H310 C340 0.929 . S
H311 C343 0.928 . S
O312 Co296 2.057 . S
O312 C300 1.232 . S
H313 C332 0.929 . S
H314 C333 0.929 . S
H315 C345 0.931 . S
H316 C337 0.929 . S
H317 C346 0.930 . S
H318 C338 0.931 . S
O319 Co295 2.097 . S
O319 C347 1.214 . S
H320 C348 0.929 . S
H321 C349 0.929 . S
H322 C350 0.930 . S
H323 C351 0.929 . S
H324 C353 0.930 . S
H325 C330 0.930 . S
H326 C334 0.930 . S
O327 Co296 2.037 . S
O327 C347 1.234 . S
C328 O302 1.269 . S
C328 O303 1.257 . S
C329 H304 0.930 . S
C329 C332 1.388 . S
C329 C334 1.418 . S
C330 H325 0.930 . S
C330 C333 1.404 . S
C330 C334 1.353 . S
N331 Co296 2.145 . S
N331 C332 1.397 . S
N331 C333 1.334 . S
C332 H313 0.929 . S
C332 C329 1.388 . S
C332 N331 1.397 . S
C333 H314 0.929 . S
C333 C330 1.404 . S
C333 N331 1.334 . S
C334 H326 0.930 . S
C334 C329 1.418 . S
C334 C330 1.353 . S
C335 H305 0.930 . S
C335 N336 1.330 . S
C335 C337 1.446 . S
N336 Co295 2.151 . S
N336 C335 1.330 . S
N336 C340 1.418 . S
C337 H316 0.929 . S
C337 C335 1.446 . S
C337 C338 1.332 . S
C338 H318 0.931 . S
C338 C337 1.332 . S
C338 C339 1.267 . S
C339 H307 0.929 . S
C339 C338 1.267 . S
C339 C340 1.251 . S
C340 H310 0.929 . S
C340 N336 1.418 . S
C340 C339 1.251 . S
C341 H308 0.930 . S
C341 C343 1.406 . S
C341 C346 1.261 . S
C342 H309 0.930 . S
C342 N344 1.325 . S
C342 C345 1.357 . S
C343 H311 0.928 . S
C343 C341 1.406 . S
C343 N344 1.261 . S
N344 Co295 2.214 . S
N344 C342 1.325 . S
N344 C343 1.261 . S
C345 H315 0.931 . S
C345 C342 1.357 . S
C345 C346 1.312 . S
C346 H317 0.930 . S
C346 C341 1.261 . S
C346 C345 1.312 . S
C347 O319 1.214 . S
C347 O327 1.234 . S
C348 H320 0.929 . S
C348 C351 1.391 . S
C348 C353 1.391 . S
C349 H321 0.929 . S
C349 C350 1.390 . S
C349 N352 1.391 . S
C350 H322 0.930 . S
C350 C349 1.390 . S
C350 C351 1.392 . S
C351 H323 0.929 . S
C351 C348 1.391 . S
C351 C350 1.392 . S
N352 Co296 2.257 . S
N352 C349 1.391 . S
N352 C353 1.388 . S
C353 H324 0.930 . S
C353 C348 1.391 . S
C353 N352 1.388 . S
Co354 O356 2.143 . S
Co354 O362 2.074 . S
Co354 O365 2.093 . S
Co354 O378 2.097 . S
Co354 N395 2.151 . S
Co354 N403 2.214 . S
Co355 O356 2.160 . S
Co355 O361 2.058 . S
Co355 O371 2.057 . S
Co355 O386 2.037 . S
Co355 N390 2.145 . S
Co355 N411 2.257 . S
O356 Co354 2.143 . S
O356 Co355 2.160 . S
C357 O358 1.278 . S
C357 O365 1.224 . S
O358 C357 1.278 . S
C359 O360 1.245 . S
C359 O371 1.232 . S
O360 C359 1.245 . S
O361 Co355 2.058 . S
O361 C387 1.269 . S
O362 Co354 2.074 . S
O362 C387 1.257 . S
H363 C388 0.930 . S
H364 C394 0.930 . S
O365 Co354 2.093 . S
O365 C357 1.224 . S
H366 C398 0.929 . S
H367 C400 0.930 . S
H368 C401 0.930 . S
H369 C399 0.929 . S
H370 C402 0.928 . S
O371 Co355 2.057 . S
O371 C359 1.232 . S
H372 C391 0.929 . S
H373 C392 0.929 . S
H374 C404 0.931 . S
H375 C396 0.929 . S
H376 C405 0.930 . S
H377 C397 0.931 . S
O378 Co354 2.097 . S
O378 C406 1.214 . S
H379 C407 0.929 . S
H380 C408 0.929 . S
H381 C409 0.930 . S
H382 C410 0.929 . S
H383 C412 0.930 . S
H384 C389 0.930 . S
H385 C393 0.930 . S
O386 Co355 2.037 . S
O386 C406 1.234 . S
C387 O361 1.269 . S
C387 O362 1.257 . S
C388 H363 0.930 . S
C388 C391 1.388 . S
C388 C393 1.418 . S
C389 H384 0.930 . S
C389 C392 1.404 . S
C389 C393 1.353 . S
N390 Co355 2.145 . S
N390 C391 1.397 . S
N390 C392 1.334 . S
C391 H372 0.929 . S
C391 C388 1.388 . S
C391 N390 1.397 . S
C392 H373 0.929 . S
C392 C389 1.404 . S
C392 N390 1.334 . S
C393 H385 0.930 . S
C393 C388 1.418 . S
C393 C389 1.353 . S
C394 H364 0.930 . S
C394 N395 1.330 . S
C394 C396 1.446 . S
N395 Co354 2.151 . S
N395 C394 1.330 . S
N395 C399 1.418 . S
C396 H375 0.929 . S
C396 C394 1.446 . S
C396 C397 1.332 . S
C397 H377 0.931 . S
C397 C396 1.332 . S
C397 C398 1.267 . S
C398 H366 0.929 . S
C398 C397 1.267 . S
C398 C399 1.251 . S
C399 H369 0.929 . S
C399 N395 1.418 . S
C399 C398 1.251 . S
C400 H367 0.930 . S
C400 C402 1.406 . S
C400 C405 1.261 . S
C401 H368 0.930 . S
C401 N403 1.325 . S
C401 C404 1.357 . S
C402 H370 0.928 . S
C402 C400 1.406 . S
C402 N403 1.261 . S
N403 Co354 2.214 . S
N403 C401 1.325 . S
N403 C402 1.261 . S
C404 H374 0.931 . S
C404 C401 1.357 . S
C404 C405 1.312 . S
C405 H376 0.930 . S
C405 C400 1.261 . S
C405 C404 1.312 . S
C406 O378 1.214 . S
C406 O386 1.234 . S
C407 H379 0.929 . S
C407 C410 1.391 . S
C407 C412 1.391 . S
C408 H380 0.929 . S
C408 C409 1.390 . S
C408 N411 1.391 . S
C409 H381 0.930 . S
C409 C408 1.390 . S
C409 C410 1.392 . S
C410 H382 0.929 . S
C410 C407 1.391 . S
C410 C409 1.392 . S
N411 Co355 2.257 . S
N411 C408 1.391 . S
N411 C412 1.388 . S
C412 H383 0.930 . S
C412 C407 1.391 . S
C412 N411 1.388 . S
Co413 O415 2.143 . S
Co413 O421 2.074 . S
Co413 O424 2.093 . S
Co413 O437 2.097 . S
Co413 N454 2.151 . S
Co413 N462 2.214 . S
Co414 O415 2.160 . S
Co414 O420 2.058 1_556 S
Co414 O430 2.057 1_556 S
Co414 O445 2.037 . S
Co414 N449 2.145 1_556 S
Co414 N470 2.257 . S
O415 Co413 2.143 . S
O415 Co414 2.160 . S
C416 O417 1.278 . S
C416 O424 1.224 . S
O417 C416 1.278 . S
C418 O419 1.245 . S
C418 O430 1.232 1_556 S
O419 C418 1.245 . S
O420 Co414 2.058 1_554 S
O420 C446 1.269 1_554 S
O421 Co413 2.074 . S
O421 C446 1.257 . S
H422 C447 0.930 . S
H423 C453 0.930 . S
O424 Co413 2.093 . S
O424 C416 1.224 . S
H425 C457 0.929 . S
H426 C459 0.930 . S
H427 C460 0.930 . S
H428 C458 0.929 . S
H429 C461 0.928 . S
O430 Co414 2.057 1_554 S
O430 C418 1.232 1_554 S
H431 C450 0.929 . S
H432 C451 0.929 . S
H433 C463 0.931 . S
H434 C455 0.929 . S
H435 C464 0.930 . S
H436 C456 0.931 . S
O437 Co413 2.097 . S
O437 C465 1.214 . S
H438 C466 0.929 . S
H439 C467 0.929 . S
H440 C468 0.930 . S
H441 C469 0.929 . S
H442 C471 0.930 . S
H443 C448 0.930 . S
H444 C452 0.930 . S
O445 Co414 2.037 . S
O445 C465 1.234 . S
C446 O420 1.269 1_556 S
C446 O421 1.257 . S
C447 H422 0.930 . S
C447 C450 1.388 . S
C447 C452 1.418 . S
C448 H443 0.930 . S
C448 C451 1.404 . S
C448 C452 1.353 . S
N449 Co414 2.145 1_554 S
N449 C450 1.397 . S
N449 C451 1.334 . S
C450 H431 0.929 . S
C450 C447 1.388 . S
C450 N449 1.397 . S
C451 H432 0.929 . S
C451 C448 1.404 . S
C451 N449 1.334 . S
C452 H444 0.930 . S
C452 C447 1.418 . S
C452 C448 1.353 . S
C453 H423 0.930 . S
C453 N454 1.330 . S
C453 C455 1.446 . S
N454 Co413 2.151 . S
N454 C453 1.330 . S
N454 C458 1.418 . S
C455 H434 0.929 . S
C455 C453 1.446 . S
C455 C456 1.332 . S
C456 H436 0.931 . S
C456 C455 1.332 . S
C456 C457 1.267 . S
C457 H425 0.929 . S
C457 C456 1.267 . S
C457 C458 1.251 . S
C458 H428 0.929 . S
C458 N454 1.418 . S
C458 C457 1.251 . S
C459 H426 0.930 . S
C459 C461 1.406 . S
C459 C464 1.261 . S
C460 H427 0.930 . S
C460 N462 1.325 . S
C460 C463 1.357 . S
C461 H429 0.928 . S
C461 C459 1.406 . S
C461 N462 1.261 . S
N462 Co413 2.214 . S
N462 C460 1.325 . S
N462 C461 1.261 . S
C463 H433 0.931 . S
C463 C460 1.357 . S
C463 C464 1.312 . S
C464 H435 0.930 . S
C464 C459 1.261 . S
C464 C463 1.312 . S
C465 O437 1.214 . S
C465 O445 1.234 . S
C466 H438 0.929 . S
C466 C469 1.391 . S
C466 C471 1.391 . S
C467 H439 0.929 . S
C467 C468 1.390 . S
C467 N470 1.391 . S
C468 H440 0.930 . S
C468 C467 1.390 . S
C468 C469 1.392 . S
C469 H441 0.929 . S
C469 C466 1.391 . S
C469 C468 1.392 . S
N470 Co414 2.257 . S
N470 C467 1.391 . S
N470 C471 1.388 . S
C471 H442 0.930 . S
C471 C466 1.391 . S
C471 N470 1.388 . S
Co472 O474 2.143 . S
Co472 O480 2.074 . S
Co472 O483 2.093 . S
Co472 O496 2.097 . S
Co472 N513 2.151 . S
Co472 N521 2.214 . S
Co473 O474 2.160 . S
Co473 O479 2.058 . S
Co473 O489 2.057 . S
Co473 O504 2.037 . S
Co473 N508 2.145 . S
Co473 N529 2.257 . S
O474 Co472 2.143 . S
O474 Co473 2.160 . S
C475 O476 1.278 . S
C475 O483 1.224 . S
O476 C475 1.278 . S
C477 O478 1.245 . S
C477 O489 1.232 . S
O478 C477 1.245 . S
O479 Co473 2.058 . S
O479 C505 1.269 . S
O480 Co472 2.074 . S
O480 C505 1.257 . S
H481 C506 0.930 . S
H482 C512 0.930 . S
O483 Co472 2.093 . S
O483 C475 1.224 . S
H484 C516 0.929 . S
H485 C518 0.930 . S
H486 C519 0.930 . S
H487 C517 0.929 . S
H488 C520 0.928 . S
O489 Co473 2.057 . S
O489 C477 1.232 . S
H490 C509 0.929 . S
H491 C510 0.929 . S
H492 C522 0.931 . S
H493 C514 0.929 . S
H494 C523 0.930 . S
H495 C515 0.931 . S
O496 Co472 2.097 . S
O496 C524 1.214 . S
H497 C525 0.929 . S
H498 C526 0.929 . S
H499 C527 0.930 . S
H500 C528 0.929 . S
H501 C530 0.930 . S
H502 C507 0.930 . S
H503 C511 0.930 . S
O504 Co473 2.037 . S
O504 C524 1.234 . S
C505 O479 1.269 . S
C505 O480 1.257 . S
C506 H481 0.930 . S
C506 C509 1.388 . S
C506 C511 1.418 . S
C507 H502 0.930 . S
C507 C510 1.404 . S
C507 C511 1.353 . S
N508 Co473 2.145 . S
N508 C509 1.397 . S
N508 C510 1.334 . S
C509 H490 0.929 . S
C509 C506 1.388 . S
C509 N508 1.397 . S
C510 H491 0.929 . S
C510 C507 1.404 . S
C510 N508 1.334 . S
C511 H503 0.930 . S
C511 C506 1.418 . S
C511 C507 1.353 . S
C512 H482 0.930 . S
C512 N513 1.330 . S
C512 C514 1.446 . S
N513 Co472 2.151 . S
N513 C512 1.330 . S
N513 C517 1.418 . S
C514 H493 0.929 . S
C514 C512 1.446 . S
C514 C515 1.332 . S
C515 H495 0.931 . S
C515 C514 1.332 . S
C515 C516 1.267 . S
C516 H484 0.929 . S
C516 C515 1.267 . S
C516 C517 1.251 . S
C517 H487 0.929 . S
C517 N513 1.418 . S
C517 C516 1.251 . S
C518 H485 0.930 . S
C518 C520 1.406 . S
C518 C523 1.261 . S
C519 H486 0.930 . S
C519 N521 1.325 . S
C519 C522 1.357 . S
C520 H488 0.928 . S
C520 C518 1.406 . S
C520 N521 1.261 . S
N521 Co472 2.214 . S
N521 C519 1.325 . S
N521 C520 1.261 . S
C522 H492 0.931 . S
C522 C519 1.357 . S
C522 C523 1.312 . S
C523 H494 0.930 . S
C523 C518 1.261 . S
C523 C522 1.312 . S
C524 O496 1.214 . S
C524 O504 1.234 . S
C525 H497 0.929 . S
C525 C528 1.391 . S
C525 C530 1.391 . S
C526 H498 0.929 . S
C526 C527 1.390 . S
C526 N529 1.391 . S
C527 H499 0.930 . S
C527 C526 1.390 . S
C527 C528 1.392 . S
C528 H500 0.929 . S
C528 C525 1.391 . S
C528 C527 1.392 . S
N529 Co473 2.257 . S
N529 C526 1.391 . S
N529 C530 1.388 . S
C530 H501 0.930 . S
C530 C525 1.391 . S
C530 N529 1.388 . S
Co531 O533 2.143 . S
Co531 O539 2.074 . S
Co531 O542 2.093 . S
Co531 O555 2.097 . S
Co531 N572 2.151 . S
Co531 N580 2.214 . S
Co532 O533 2.160 . S
Co532 O538 2.058 1_556 S
Co532 O548 2.057 1_556 S
Co532 O563 2.037 . S
Co532 N567 2.145 1_556 S
Co532 N588 2.257 . S
O533 Co531 2.143 . S
O533 Co532 2.160 . S
C534 O535 1.278 . S
C534 O542 1.224 . S
O535 C534 1.278 . S
C536 O537 1.245 . S
C536 O548 1.232 1_556 S
O537 C536 1.245 . S
O538 Co532 2.058 1_554 S
O538 C564 1.269 1_554 S
O539 Co531 2.074 . S
O539 C564 1.257 . S
H540 C565 0.930 . S
H541 C571 0.930 . S
O542 Co531 2.093 . S
O542 C534 1.224 . S
H543 C575 0.929 . S
H544 C577 0.930 . S
H545 C578 0.930 . S
H546 C576 0.929 . S
H547 C579 0.928 . S
O548 Co532 2.057 1_554 S
O548 C536 1.232 1_554 S
H549 C568 0.929 . S
H550 C569 0.929 . S
H551 C581 0.931 . S
H552 C573 0.929 . S
H553 C582 0.930 . S
H554 C574 0.931 . S
O555 Co531 2.097 . S
O555 C583 1.214 . S
H556 C584 0.929 . S
H557 C585 0.929 . S
H558 C586 0.930 . S
H559 C587 0.929 . S
H560 C589 0.930 . S
H561 C566 0.930 . S
H562 C570 0.930 . S
O563 Co532 2.037 . S
O563 C583 1.234 . S
C564 O538 1.269 1_556 S
C564 O539 1.257 . S
C565 H540 0.930 . S
C565 C568 1.388 . S
C565 C570 1.418 . S
C566 H561 0.930 . S
C566 C569 1.404 . S
C566 C570 1.353 . S
N567 Co532 2.145 1_554 S
N567 C568 1.397 . S
N567 C569 1.334 . S
C568 H549 0.929 . S
C568 C565 1.388 . S
C568 N567 1.397 . S
C569 H550 0.929 . S
C569 C566 1.404 . S
C569 N567 1.334 . S
C570 H562 0.930 . S
C570 C565 1.418 . S
C570 C566 1.353 . S
C571 H541 0.930 . S
C571 N572 1.330 . S
C571 C573 1.446 . S
N572 Co531 2.151 . S
N572 C571 1.330 . S
N572 C576 1.418 . S
C573 H552 0.929 . S
C573 C571 1.446 . S
C573 C574 1.332 . S
C574 H554 0.931 . S
C574 C573 1.332 . S
C574 C575 1.267 . S
C575 H543 0.929 . S
C575 C574 1.267 . S
C575 C576 1.251 . S
C576 H546 0.929 . S
C576 N572 1.418 . S
C576 C575 1.251 . S
C577 H544 0.930 . S
C577 C579 1.406 . S
C577 C582 1.261 . S
C578 H545 0.930 . S
C578 N580 1.325 . S
C578 C581 1.357 . S
C579 H547 0.928 . S
C579 C577 1.406 . S
C579 N580 1.261 . S
N580 Co531 2.214 . S
N580 C578 1.325 . S
N580 C579 1.261 . S
C581 H551 0.931 . S
C581 C578 1.357 . S
C581 C582 1.312 . S
C582 H553 0.930 . S
C582 C577 1.261 . S
C582 C581 1.312 . S
C583 O555 1.214 . S
C583 O563 1.234 . S
C584 H556 0.929 . S
C584 C587 1.391 . S
C584 C589 1.391 . S
C585 H557 0.929 . S
C585 C586 1.390 . S
C585 N588 1.391 . S
C586 H558 0.930 . S
C586 C585 1.390 . S
C586 C587 1.392 . S
C587 H559 0.929 . S
C587 C584 1.391 . S
C587 C586 1.392 . S
N588 Co532 2.257 . S
N588 C585 1.391 . S
N588 C589 1.388 . S
C589 H560 0.930 . S
C589 C584 1.391 . S
C589 N588 1.388 . S
Co590 O592 2.143 . S
Co590 O598 2.074 . S
Co590 O601 2.093 . S
Co590 O614 2.097 . S
Co590 N631 2.151 . S
Co590 N639 2.214 . S
Co591 O592 2.160 . S
Co591 O597 2.058 . S
Co591 O607 2.057 . S
Co591 O622 2.037 . S
Co591 N626 2.145 . S
Co591 N647 2.257 . S
O592 Co590 2.143 . S
O592 Co591 2.160 . S
C593 O594 1.278 . S
C593 O601 1.224 . S
O594 C593 1.278 . S
C595 O596 1.245 . S
C595 O607 1.232 . S
O596 C595 1.245 . S
O597 Co591 2.058 . S
O597 C623 1.269 . S
O598 Co590 2.074 . S
O598 C623 1.257 . S
H599 C624 0.930 . S
H600 C630 0.930 . S
O601 Co590 2.093 . S
O601 C593 1.224 . S
H602 C634 0.929 . S
H603 C636 0.930 . S
H604 C637 0.930 . S
H605 C635 0.929 . S
H606 C638 0.928 . S
O607 Co591 2.057 . S
O607 C595 1.232 . S
H608 C627 0.929 . S
H609 C628 0.929 . S
H610 C640 0.931 . S
H611 C632 0.929 . S
H612 C641 0.930 . S
H613 C633 0.931 . S
O614 Co590 2.097 . S
O614 C642 1.214 . S
H615 C643 0.929 . S
H616 C644 0.929 . S
H617 C645 0.930 . S
H618 C646 0.929 . S
H619 C648 0.930 . S
H620 C625 0.930 . S
H621 C629 0.930 . S
O622 Co591 2.037 . S
O622 C642 1.234 . S
C623 O597 1.269 . S
C623 O598 1.257 . S
C624 H599 0.930 . S
C624 C627 1.388 . S
C624 C629 1.418 . S
C625 H620 0.930 . S
C625 C628 1.404 . S
C625 C629 1.353 . S
N626 Co591 2.145 . S
N626 C627 1.397 . S
N626 C628 1.334 . S
C627 H608 0.929 . S
C627 C624 1.388 . S
C627 N626 1.397 . S
C628 H609 0.929 . S
C628 C625 1.404 . S
C628 N626 1.334 . S
C629 H621 0.930 . S
C629 C624 1.418 . S
C629 C625 1.353 . S
C630 H600 0.930 . S
C630 N631 1.330 . S
C630 C632 1.446 . S
N631 Co590 2.151 . S
N631 C630 1.330 . S
N631 C635 1.418 . S
C632 H611 0.929 . S
C632 C630 1.446 . S
C632 C633 1.332 . S
C633 H613 0.931 . S
C633 C632 1.332 . S
C633 C634 1.267 . S
C634 H602 0.929 . S
C634 C633 1.267 . S
C634 C635 1.251 . S
C635 H605 0.929 . S
C635 N631 1.418 . S
C635 C634 1.251 . S
C636 H603 0.930 . S
C636 C638 1.406 . S
C636 C641 1.261 . S
C637 H604 0.930 . S
C637 N639 1.325 . S
C637 C640 1.357 . S
C638 H606 0.928 . S
C638 C636 1.406 . S
C638 N639 1.261 . S
N639 Co590 2.214 . S
N639 C637 1.325 . S
N639 C638 1.261 . S
C640 H610 0.931 . S
C640 C637 1.357 . S
C640 C641 1.312 . S
C641 H612 0.930 . S
C641 C636 1.261 . S
C641 C640 1.312 . S
C642 O614 1.214 . S
C642 O622 1.234 . S
C643 H615 0.929 . S
C643 C646 1.391 . S
C643 C648 1.391 . S
C644 H616 0.929 . S
C644 C645 1.390 . S
C644 N647 1.391 . S
C645 H617 0.930 . S
C645 C644 1.390 . S
C645 C646 1.392 . S
C646 H618 0.929 . S
C646 C643 1.391 . S
C646 C645 1.392 . S
N647 Co591 2.257 . S
N647 C644 1.391 . S
N647 C648 1.388 . S
C648 H619 0.930 . S
C648 C643 1.391 . S
C648 N647 1.388 . S
Co649 O651 2.143 . S
Co649 O657 2.074 . S
Co649 O660 2.093 1_556 S
Co649 O673 2.097 . S
Co649 N690 2.151 . S
Co649 N698 2.214 1_556 S
Co650 O651 2.160 . S
Co650 O656 2.058 . S
Co650 O666 2.057 . S
Co650 O681 2.037 . S
Co650 N685 2.145 . S
Co650 N706 2.257 . S
O651 Co649 2.143 . S
O651 Co650 2.160 . S
C652 O653 1.278 . S
C652 O660 1.224 1_556 S
O653 C652 1.278 . S
C654 O655 1.245 . S
C654 O666 1.232 . S
O655 C654 1.245 . S
O656 Co650 2.058 . S
O656 C682 1.269 . S
O657 Co649 2.074 . S
O657 C682 1.257 . S
H658 C683 0.930 . S
H659 C689 0.930 . S
O660 Co649 2.093 1_554 S
O660 C652 1.224 1_554 S
H661 C693 0.929 . S
H662 C695 0.930 . S
H663 C696 0.930 . S
H664 C694 0.929 . S
H665 C697 0.928 . S
O666 Co650 2.057 . S
O666 C654 1.232 . S
H667 C686 0.929 . S
H668 C687 0.929 . S
H669 C699 0.931 . S
H670 C691 0.929 . S
H671 C700 0.930 . S
H672 C692 0.931 . S
O673 Co649 2.097 . S
O673 C701 1.214 . S
H674 C702 0.929 . S
H675 C703 0.929 . S
H676 C704 0.930 . S
H677 C705 0.929 . S
H678 C707 0.930 . S
H679 C684 0.930 . S
H680 C688 0.930 . S
O681 Co650 2.037 . S
O681 C701 1.234 . S
C682 O656 1.269 . S
C682 O657 1.257 . S
C683 H658 0.930 . S
C683 C686 1.388 . S
C683 C688 1.418 . S
C684 H679 0.930 . S
C684 C687 1.404 . S
C684 C688 1.353 . S
N685 Co650 2.145 . S
N685 C686 1.397 . S
N685 C687 1.334 . S
C686 H667 0.929 . S
C686 C683 1.388 . S
C686 N685 1.397 . S
C687 H668 0.929 . S
C687 C684 1.404 . S
C687 N685 1.334 . S
C688 H680 0.930 . S
C688 C683 1.418 . S
C688 C684 1.353 . S
C689 H659 0.930 . S
C689 N690 1.330 . S
C689 C691 1.446 . S
N690 Co649 2.151 . S
N690 C689 1.330 . S
N690 C694 1.418 1_556 S
C691 H670 0.929 . S
C691 C689 1.446 . S
C691 C692 1.332 1_556 S
C692 H672 0.931 . S
C692 C691 1.332 1_554 S
C692 C693 1.267 . S
C693 H661 0.929 . S
C693 C692 1.267 . S
C693 C694 1.251 . S
C694 H664 0.929 . S
C694 N690 1.418 1_554 S
C694 C693 1.251 . S
C695 H662 0.930 . S
C695 C697 1.406 . S
C695 C700 1.261 . S
C696 H663 0.930 . S
C696 N698 1.325 . S
C696 C699 1.357 . S
C697 H665 0.928 . S
C697 C695 1.406 . S
C697 N698 1.261 . S
N698 Co649 2.214 1_554 S
N698 C696 1.325 . S
N698 C697 1.261 . S
C699 H669 0.931 . S
C699 C696 1.357 . S
C699 C700 1.312 . S
C700 H671 0.930 . S
C700 C695 1.261 . S
C700 C699 1.312 . S
C701 O673 1.214 . S
C701 O681 1.234 . S
C702 H674 0.929 . S
C702 C705 1.391 . S
C702 C707 1.391 . S
C703 H675 0.929 . S
C703 C704 1.390 . S
C703 N706 1.391 . S
C704 H676 0.930 . S
C704 C703 1.390 . S
C704 C705 1.392 . S
C705 H677 0.929 . S
C705 C702 1.391 . S
C705 C704 1.392 . S
N706 Co650 2.257 . S
N706 C703 1.391 . S
N706 C707 1.388 . S
C707 H678 0.930 . S
C707 C702 1.391 . S
C707 N706 1.388 . S
C708 C709 1.369 . S
C708 C710 1.419 . S
C708 H712 0.930 . S
C709 C708 1.369 . S
C709 C718 1.429 . S
C710 C708 1.419 . S
C710 C711 1.363 . S
C710 H713 0.929 . S
C711 C710 1.363 . S
C711 C717 1.428 . S
H712 C708 0.930 . S
H713 C710 0.929 . S
S714 N715 1.613 . S
S714 N716 1.610 . S
N715 S714 1.613 . S
N715 C718 1.350 . S
N716 S714 1.610 . S
N716 C717 1.351 . S
C717 C711 1.428 . S
C717 N716 1.351 . S
C717 C718 1.434 . S
C718 C709 1.429 . S
C718 N715 1.350 . S
C718 C717 1.434 . S
C719 C720 1.369 . S
C719 C721 1.419 . S
C719 H723 0.930 . S
C720 C719 1.369 . S
C720 C729 1.429 . S
C721 C719 1.419 . S
C721 C722 1.363 . S
C721 H724 0.929 . S
C722 C721 1.363 . S
C722 C728 1.428 . S
H723 C719 0.930 . S
H724 C721 0.929 . S
S725 N726 1.613 . S
S725 N727 1.610 . S
N726 S725 1.613 . S
N726 C729 1.350 . S
N727 S725 1.610 . S
N727 C728 1.351 . S
C728 C722 1.428 . S
C728 N727 1.351 . S
C728 C729 1.434 . S
C729 C720 1.429 . S
C729 N726 1.350 . S
C729 C728 1.434 . S
C730 C731 1.369 . S
C730 C732 1.419 . S
C730 H734 0.930 . S
C731 C730 1.369 . S
C731 C740 1.429 . S
C732 C730 1.419 . S
C732 C733 1.363 . S
C732 H735 0.929 . S
C733 C732 1.363 . S
C733 C739 1.428 . S
H734 C730 0.930 . S
H735 C732 0.929 . S
S736 N737 1.613 . S
S736 N738 1.610 . S
N737 S736 1.613 . S
N737 C740 1.350 . S
N738 S736 1.610 . S
N738 C739 1.351 . S
C739 C733 1.428 . S
C739 N738 1.351 . S
C739 C740 1.434 . S
C740 C731 1.429 . S
C740 N737 1.350 . S
C740 C739 1.434 . S
C741 C742 1.369 . S
C741 C743 1.419 . S
C741 H745 0.930 . S
C742 C741 1.369 . S
C742 C751 1.429 . S
C743 C741 1.419 . S
C743 C744 1.363 . S
C743 H746 0.929 . S
C744 C743 1.363 . S
C744 C750 1.428 . S
H745 C741 0.930 . S
H746 C743 0.929 . S
S747 N748 1.613 . S
S747 N749 1.610 . S
N748 S747 1.613 . S
N748 C751 1.350 . S
N749 S747 1.610 . S
N749 C750 1.351 . S
C750 C744 1.428 . S
C750 N749 1.351 . S
C750 C751 1.434 . S
C751 C742 1.429 . S
C751 N748 1.350 . S
C751 C750 1.434 . S
C752 C753 1.369 . S
C752 C754 1.419 . S
C752 H756 0.930 . S
C753 C752 1.369 . S
C753 C762 1.429 . S
C754 C752 1.419 . S
C754 C755 1.363 . S
C754 H757 0.929 . S
C755 C754 1.363 . S
C755 C761 1.428 . S
H756 C752 0.930 . S
H757 C754 0.929 . S
S758 N759 1.613 . S
S758 N760 1.610 . S
N759 S758 1.613 . S
N759 C762 1.350 . S
N760 S758 1.610 . S
N760 C761 1.351 . S
C761 C755 1.428 . S
C761 N760 1.351 . S
C761 C762 1.434 . S
C762 C753 1.429 . S
C762 N759 1.350 . S
C762 C761 1.434 . S
C763 C764 1.369 . S
C763 C765 1.419 . S
C763 H767 0.930 . S
C764 C763 1.369 . S
C764 C773 1.429 . S
C765 C763 1.419 . S
C765 C766 1.363 . S
C765 H768 0.929 . S
C766 C765 1.363 . S
C766 C772 1.428 . S
H767 C763 0.930 . S
H768 C765 0.929 . S
S769 N770 1.613 . S
S769 N771 1.610 . S
N770 S769 1.613 . S
N770 C773 1.350 . S
N771 S769 1.610 . S
N771 C772 1.351 . S
C772 C766 1.428 . S
C772 N771 1.351 . S
C772 C773 1.434 . S
C773 C764 1.429 . S
C773 N770 1.350 . S
C773 C772 1.434 . S
C774 C775 1.369 . S
C774 C776 1.419 1_545 S
C774 H778 0.930 . S
C775 C774 1.369 . S
C775 C784 1.429 1_554 S
C776 C774 1.419 1_565 S
C776 C777 1.357 1_554 S
C776 H779 0.929 . S
C777 C776 1.357 1_556 S
C777 C783 1.437 . S
H778 C774 0.930 . S
H779 C776 0.929 . S
S780 N781 1.613 . S
S780 N782 1.610 1_545 S
N781 S780 1.613 . S
N781 C784 1.350 . S
N782 S780 1.610 1_565 S
N782 C783 1.351 . S
C783 C777 1.437 . S
C783 N782 1.351 . S
C783 C784 1.431 1_565 S
C784 C775 1.429 1_556 S
C784 N781 1.350 . S
C784 C783 1.431 1_545 S
C785 C786 1.369 . S
C785 C787 1.419 . S
C785 H789 0.930 . S
C786 C785 1.369 . S
C786 C795 1.429 . S
C787 C785 1.419 . S
C787 C788 1.363 . S
C787 H790 0.929 . S
C788 C787 1.363 . S
C788 C794 1.428 . S
H789 C785 0.930 . S
H790 C787 0.929 . S
S791 N792 1.613 . S
S791 N793 1.610 . S
N792 S791 1.613 . S
N792 C795 1.350 . S
N793 S791 1.610 . S
N793 C794 1.351 . S
C794 C788 1.428 . S
C794 N793 1.351 . S
C794 C795 1.434 . S
C795 C786 1.429 . S
C795 N792 1.350 . S
C795 C794 1.434 . S
C796 C797 1.369 1_554 S
C796 C798 1.419 1_455 S
C796 H800 0.930 . S
C797 C796 1.369 1_556 S
C797 C806 1.429 . S
C798 C796 1.419 1_655 S
C798 C799 1.363 . S
C798 H801 0.929 . S
C799 C798 1.363 . S
C799 C805 1.428 1_554 S
H800 C796 0.930 . S
H801 C798 0.929 . S
S802 N803 1.605 1_655 S
S802 N804 1.614 . S
N803 S802 1.605 1_455 S
N803 C806 1.350 . S
N804 S802 1.614 . S
N804 C805 1.351 . S
C805 C799 1.428 1_556 S
C805 N804 1.351 . S
C805 C806 1.434 1_655 S
C806 C797 1.429 . S
C806 N803 1.350 . S
C806 C805 1.434 1_455 S
C807 C808 1.372 . S
C807 C809 1.416 1_545 S
C807 H811 0.930 . S
C808 C807 1.372 . S
C808 C817 1.429 . S
C809 C807 1.416 1_565 S
C809 C810 1.363 . S
C809 H812 0.929 . S
C810 C809 1.363 . S
C810 C816 1.428 . S
H811 C807 0.930 . S
H812 C809 0.929 . S
S813 N814 1.614 . S
S813 N815 1.605 1_545 S
N814 S813 1.614 . S
N814 C817 1.350 . S
N815 S813 1.605 1_565 S
N815 C816 1.351 . S
C816 C810 1.428 . S
C816 N815 1.351 . S
C816 C817 1.434 1_565 S
C817 C808 1.429 . S
C817 N814 1.350 . S
C817 C816 1.434 1_545 S
C818 C819 1.369 1_554 S
C818 C820 1.419 . S
C818 H822 0.930 . S
C819 C818 1.369 1_556 S
C819 C828 1.429 . S
C820 C818 1.419 . S
C820 C821 1.363 1_554 S
C820 H823 0.929 . S
C821 C820 1.363 1_556 S
C821 C827 1.428 . S
H822 C818 0.930 . S
H823 C820 0.929 . S
S824 N825 1.613 . S
S824 N826 1.610 . S
N825 S824 1.613 . S
N825 C828 1.350 . S
N826 S824 1.610 . S
N826 C827 1.351 . S
C827 C821 1.428 . S
C827 N826 1.351 . S
C827 C828 1.434 . S
C828 C819 1.429 . S
C828 N825 1.350 . S
C828 C827 1.434 . S
C829 C830 1.369 . S
C829 C831 1.419 1_655 S
C829 H833 0.930 . S
C830 C829 1.369 . S
C830 C839 1.429 . S
C831 C829 1.419 1_455 S
C831 C832 1.363 . S
C831 H834 0.929 . S
C832 C831 1.363 . S
C832 C838 1.428 . S
H833 C829 0.930 . S
H834 C831 0.929 . S
S835 N836 1.613 1_455 S
S835 N837 1.610 . S
N836 S835 1.613 1_655 S
N836 C839 1.350 . S
N837 S835 1.610 . S
N837 C838 1.351 . S
C838 C832 1.428 . S
C838 N837 1.351 . S
C838 C839 1.434 1_455 S
C839 C830 1.429 . S
C839 N836 1.350 . S
C839 C838 1.434 1_655 S
C840 C841 1.369 . S
C840 C842 1.419 . S
C840 H844 0.930 . S
C841 C840 1.369 . S
C841 C850 1.429 1_554 S
C842 C840 1.419 . S
C842 C843 1.363 . S
C842 H845 0.929 . S
C843 C842 1.363 . S
C843 C849 1.428 . S
H844 C840 0.930 . S
H845 C842 0.929 . S
S846 N847 1.613 . S
S846 N848 1.610 . S
N847 S846 1.613 . S
N847 C850 1.350 . S
N848 S846 1.610 . S
N848 C849 1.351 1_556 S
C849 C843 1.428 . S
C849 N848 1.351 1_554 S
C849 C850 1.434 1_554 S
C850 C841 1.429 1_556 S
C850 N847 1.350 . S
C850 C849 1.434 1_556 S
C851 C852 1.369 . S
C851 C853 1.419 . S
C851 H855 0.930 . S
C852 C851 1.369 . S
C852 C861 1.429 . S
C853 C851 1.419 . S
C853 C854 1.363 . S
C853 H856 0.929 . S
C854 C853 1.363 . S
C854 C860 1.428 . S
H855 C851 0.930 . S
H856 C853 0.929 . S
S857 N858 1.613 . S
S857 N859 1.610 . S
N858 S857 1.613 . S
N858 C861 1.350 . S
N859 S857 1.610 . S
N859 C860 1.351 . S
C860 C854 1.428 . S
C860 N859 1.351 . S
C860 C861 1.434 . S
C861 C852 1.429 . S
C861 N858 1.350 . S
C861 C860 1.434 . S
C862 C863 1.369 . S
C862 C864 1.419 . S
C862 H866 0.930 . S
C863 C862 1.369 . S
C863 C872 1.429 1_554 S
C864 C862 1.419 . S
C864 C865 1.363 . S
C864 H867 0.929 . S
C865 C864 1.363 . S
C865 C871 1.428 . S
H866 C862 0.930 . S
H867 C864 0.929 . S
S868 N869 1.613 . S
S868 N870 1.610 . S
N869 S868 1.613 . S
N869 C872 1.350 . S
N870 S868 1.610 . S
N870 C871 1.351 1_556 S
C871 C865 1.428 . S
C871 N870 1.351 1_554 S
C871 C872 1.434 1_554 S
C872 C863 1.429 1_556 S
C872 N869 1.350 . S
C872 C871 1.434 1_556 S
C873 C874 1.369 . S
C873 C875 1.419 . S
C873 H877 0.930 . S
C874 C873 1.369 . S
C874 C883 1.429 . S
C875 C873 1.419 . S
C875 C876 1.363 . S
C875 H878 0.929 . S
C876 C875 1.363 . S
C876 C882 1.428 . S
H877 C873 0.930 . S
H878 C875 0.929 . S
S879 N880 1.613 . S
S879 N881 1.610 . S
N880 S879 1.613 . S
N880 C883 1.350 . S
N881 S879 1.610 . S
N881 C882 1.351 . S
C882 C876 1.428 . S
C882 N881 1.351 . S
C882 C883 1.434 . S
C883 C874 1.429 . S
C883 N880 1.350 . S
C883 C882 1.434 . S
C884 C885 1.369 . S
C884 C886 1.419 . S
C884 H888 0.930 1_554 S
C885 C884 1.369 . S
C885 C894 1.429 . S
C886 C884 1.419 . S
C886 C887 1.363 . S
C886 H889 0.929 . S
C887 C886 1.363 . S
C887 C893 1.428 . S
H888 C884 0.930 1_556 S
H889 C886 0.929 . S
S890 N891 1.613 . S
S890 N892 1.610 . S
N891 S890 1.613 . S
N891 C894 1.350 . S
N892 S890 1.610 . S
N892 C893 1.351 . S
C893 C887 1.428 . S
C893 N892 1.351 . S
C893 C894 1.434 . S
C894 C885 1.429 . S
C894 N891 1.350 . S
C894 C893 1.434 . S
C895 C896 1.369 . S
C895 C897 1.419 . S
C895 H899 0.930 . S
C896 C895 1.369 . S
C896 C905 1.429 . S
C897 C895 1.419 . S
C897 C898 1.363 . S
C897 H900 0.929 . S
C898 C897 1.363 . S
C898 C904 1.428 . S
H899 C895 0.930 . S
H900 C897 0.929 . S
S901 N902 1.613 . S
S901 N903 1.610 . S
N902 S901 1.613 . S
N902 C905 1.350 . S
N903 S901 1.610 . S
N903 C904 1.351 . S
C904 C898 1.428 . S
C904 N903 1.351 . S
C904 C905 1.434 . S
C905 C896 1.429 . S
C905 N902 1.350 . S
C905 C904 1.434 . S
C906 C907 1.369 . S
C906 C908 1.419 . S
C906 H910 0.930 . S
C907 C906 1.369 . S
C907 C916 1.429 . S
C908 C906 1.419 . S
C908 C909 1.363 . S
C908 H911 0.929 . S
C909 C908 1.363 . S
C909 C915 1.428 . S
H910 C906 0.930 . S
H911 C908 0.929 . S
S912 N913 1.613 . S
S912 N914 1.610 . S
N913 S912 1.613 . S
N913 C916 1.350 . S
N914 S912 1.610 . S
N914 C915 1.351 . S
C915 C909 1.428 . S
C915 N914 1.351 . S
C915 C916 1.434 . S
C916 C907 1.429 . S
C916 N913 1.350 . S
C916 C915 1.434 . S
C917 C918 1.369 . S
C917 C919 1.419 . S
C917 H921 0.930 . S
C918 C917 1.369 . S
C918 C927 1.424 1_556 S
C919 C917 1.419 . S
C919 C920 1.363 . S
C919 H922 0.929 . S
C920 C919 1.363 . S
C920 C926 1.428 . S
H921 C917 0.930 . S
H922 C919 0.929 . S
S923 N924 1.613 . S
S923 N925 1.610 1_554 S
N924 S923 1.613 . S
N924 C927 1.365 . S
N925 S923 1.610 1_556 S
N925 C926 1.351 . S
C926 C920 1.428 . S
C926 N925 1.351 . S
C926 C927 1.425 1_556 S
C927 C918 1.424 1_554 S
C927 N924 1.365 . S
C927 C926 1.425 1_554 S
C928 C929 1.369 . S
C928 C930 1.419 . S
C928 H932 0.930 . S
C929 C928 1.369 . S
C929 C938 1.429 . S
C930 C928 1.419 . S
C930 C931 1.363 . S
C930 H933 0.929 . S
C931 C930 1.363 . S
C931 C937 1.428 . S
H932 C928 0.930 . S
H933 C930 0.929 . S
S934 N935 1.613 . S
S934 N936 1.610 . S
N935 S934 1.613 . S
N935 C938 1.350 . S
N936 S934 1.610 . S
N936 C937 1.351 . S
C937 C931 1.428 . S
C937 N936 1.351 . S
C937 C938 1.434 . S
C938 C929 1.429 . S
C938 N935 1.350 . S
C938 C937 1.434 . S
C939 C940 1.369 . S
C939 C941 1.419 . S
C939 H943 0.930 . S
C940 C939 1.369 . S
C940 C949 1.429 1_556 S
C941 C939 1.419 . S
C941 C942 1.363 . S
C941 H944 0.929 . S
C942 C941 1.363 . S
C942 C948 1.428 . S
H943 C939 0.930 . S
H944 C941 0.929 . S
S945 N946 1.613 . S
S945 N947 1.610 . S
N946 S945 1.613 . S
N946 C949 1.350 . S
N947 S945 1.610 . S
N947 C948 1.351 1_554 S
C948 C942 1.428 . S
C948 N947 1.351 1_556 S
C948 C949 1.434 1_556 S
C949 C940 1.429 1_554 S
C949 N946 1.350 . S
C949 C948 1.434 1_554 S
C950 C951 1.369 . S
C950 C952 1.419 . S
C950 H954 0.930 . S
C951 C950 1.369 . S
C951 C960 1.429 . S
C952 C950 1.419 . S
C952 C953 1.363 . S
C952 H955 0.929 . S
C953 C952 1.363 . S
C953 C959 1.428 . S
H954 C950 0.930 . S
H955 C952 0.929 . S
S956 N957 1.613 . S
S956 N958 1.610 . S
N957 S956 1.613 . S
N957 C960 1.350 . S
N958 S956 1.610 . S
N958 C959 1.351 . S
C959 C953 1.428 . S
C959 N958 1.351 . S
C959 C960 1.434 . S
C960 C951 1.429 . S
C960 N957 1.350 . S
C960 C959 1.434 . S
C961 C962 1.369 . S
C961 C963 1.419 . S
C961 H965 0.930 . S
C962 C961 1.369 . S
C962 C971 1.429 . S
C963 C961 1.419 . S
C963 C964 1.363 . S
C963 H966 0.929 . S
C964 C963 1.363 . S
C964 C970 1.428 . S
H965 C961 0.930 . S
H966 C963 0.929 . S
S967 N968 1.613 . S
S967 N969 1.601 1_554 S
N968 S967 1.613 . S
N968 C971 1.350 1_554 S
N969 S967 1.601 1_556 S
N969 C970 1.358 . S
C970 C964 1.428 . S
C970 N969 1.358 . S
C970 C971 1.434 . S
C971 C962 1.429 . S
C971 N968 1.350 1_556 S
C971 C970 1.434 . S
C709 C593 1.744 . S
C711 C3 1.712 . S
C720 C62 1.741 . S
C722 C654 1.726 . S
C731 C123 1.730 . S
C733 C357 1.720 . S
C742 C416 1.743 . S
C744 C180 1.711 . S
C753 C477 1.722 . S
C755 C239 1.744 . S
C764 C300 1.731 . S
C766 C534 1.721 . S
C775 C5 1.547 . S
C777 C418 1.479 . S
C786 C64 1.479 . S
C788 C475 1.545 . S
C797 C536 1.241 . S
C799 C121 1.255 . S
C808 C595 1.472 . S
C810 C182 1.549 . S
C819 C652 1.537 . S
C821 C241 1.486 1_556 S
C830 C359 1.239 . S
C832 C298 1.257 . S
C841 C33 1.510 . S
C843 C288 1.616 . S
C852 C92 1.361 . S
C854 C328 1.646 . S
C863 C170 1.166 . S
C865 C52 1.253 . S
C874 C210 1.501 . S
C876 C111 1.620 . S
C885 C269 1.342 . S
C887 C151 1.650 . S
C896 C347 1.148 . S
C898 C229 1.253 . S
C907 C387 1.167 . S
C909 C505 1.241 . S
C918 C446 1.361 . S
C920 C583 1.642 . S
C929 C642 1.613 . S
C931 C524 1.509 . S
C940 C564 1.168 . S
C942 C682 1.243 . S
C951 C623 1.360 . S
C953 C406 1.642 . S
C962 C701 1.512 . S
C964 C465 1.614 . S
