# Generated by pormake.
# Topology umx, (4)-cn, num edge types: 1
# Building blocks:
#     Node 0, Type 0, BuildingBlock: KUFVIS_clean_sbu_0, # of connection points: 4
#     Node 1, Type 0, BuildingBlock: KUFVIS_clean_sbu_0, # of connection points: 4
#     Node 2, Type 0, BuildingBlock: KUFVIS_clean_sbu_0, # of connection points: 4
#     Node 3, Type 0, BuildingBlock: KUFVIS_clean_sbu_0, # of connection points: 4
#     Node 4, Type 0, BuildingBlock: KUFVIS_clean_sbu_0, # of connection points: 4
#     Node 5, Type 0, BuildingBlock: KUFVIS_clean_sbu_0, # of connection points: 4
#     Node 6, Type 0, BuildingBlock: KUFVIS_clean_sbu_0, # of connection points: 4
#     Node 7, Type 0, BuildingBlock: KUFVIS_clean_sbu_0, # of connection points: 4
#     Edge 8, Type (0, 0), BuildingBlock: OJICUG_clean_linker_0, # of connection points: 2
#     Edge 9, Type (0, 0), BuildingBlock: OJICUG_clean_linker_0, # of connection points: 2
#     Edge 10, Type (0, 0), BuildingBlock: OJICUG_clean_linker_0, # of connection points: 2
#     Edge 11, Type (0, 0), BuildingBlock: OJICUG_clean_linker_0, # of connection points: 2
#     Edge 12, Type (0, 0), BuildingBlock: OJICUG_clean_linker_0, # of connection points: 2
#     Edge 13, Type (0, 0), BuildingBlock: OJICUG_clean_linker_0, # of connection points: 2
#     Edge 14, Type (0, 0), BuildingBlock: OJICUG_clean_linker_0, # of connection points: 2
#     Edge 15, Type (0, 0), BuildingBlock: OJICUG_clean_linker_0, # of connection points: 2
#     Edge 16, Type (0, 0), BuildingBlock: OJICUG_clean_linker_0, # of connection points: 2
#     Edge 17, Type (0, 0), BuildingBlock: OJICUG_clean_linker_0, # of connection points: 2
#     Edge 18, Type (0, 0), BuildingBlock: OJICUG_clean_linker_0, # of connection points: 2
#     Edge 19, Type (0, 0), BuildingBlock: OJICUG_clean_linker_0, # of connection points: 2
#     Edge 20, Type (0, 0), BuildingBlock: OJICUG_clean_linker_0, # of connection points: 2
#     Edge 21, Type (0, 0), BuildingBlock: OJICUG_clean_linker_0, # of connection points: 2
#     Edge 22, Type (0, 0), BuildingBlock: OJICUG_clean_linker_0, # of connection points: 2
#     Edge 23, Type (0, 0), BuildingBlock: OJICUG_clean_linker_0, # of connection points: 2
# Relax obj value: 0.126
# Max RMSD: 0.262
# Mean RMSD: 0.233
data_MOF--net-umx--node1-KUFVIS_clean_sbu_0--edge1-OJICUG_clean_linker_0
_symmetry_space_group_name_H-M    P1
_symmetry_Int_Tables_number       1
_symmetry_cell_setting            triclinic
loop_
_symmetry_equiv_pos_as_xyz
'x, y, z'
_cell_length_a     25.414288
_cell_length_b     30.893398
_cell_length_c     20.294482
_cell_angle_alpha  90.012984
_cell_angle_beta   89.963755
_cell_angle_gamma 90.012356
loop_
_atom_site_label
_atom_site_type_symbol
_atom_site_fract_x
_atom_site_fract_y
_atom_site_fract_z
_atom_type_partial_charge
Mn0 Mn 0.18946 0.45127 0.04414 0.0
Mn1 Mn 0.11368 0.37693 0.96711 0.0
C2 C 0.10109 0.46462 0.03551 0.0
C3 C 0.2308 0.46923 0.1425 0.0
C4 C 0.17562 0.44671 0.89433 0.0
O5 O 0.2375 0.40041 0.03436 0.0
O6 O 0.18393 0.35161 0.98857 0.0
C7 C 0.1036 0.32165 0.08577 0.0
N8 N 0.08066 0.34541 0.03706 0.0
C9 C 0.99474 0.33496 0.08455 0.0
C10 C 0.01744 0.31017 0.13492 0.0
C11 C 0.07212 0.30355 0.13556 0.0
C12 C 0.02822 0.3528 0.03691 0.0
H13 H 0.14565 0.31682 0.08703 0.0
C14 C 0.22812 0.36261 0.01336 0.0
O15 O 0.24758 0.48513 0.08694 0.0
O16 O 0.19068 0.44357 0.14045 0.0
N17 N 0.04385 0.39287 0.94198 0.0
C18 C 0.02757 0.40605 0.88122 0.0
C19 C 0.9736 0.41172 0.86893 0.0
C20 C 0.93675 0.4007 0.91772 0.0
C21 C 0.95422 0.3819 0.9767 0.0
C22 C 0.00859 0.37732 0.98589 0.0
H23 H 0.05567 0.41195 0.84248 0.0
O24 O 0.13327 0.49508 0.05248 0.0
O25 O 0.12127 0.42596 0.02823 0.0
O26 O 0.19651 0.4646 0.9451 0.0
O27 O 0.14547 0.41315 0.89624 0.0
C28 C 0.91983 0.3652 0.02485 0.0
C29 C 0.94014 0.34209 0.07913 0.0
H30 H 0.99326 0.29587 0.17313 0.0
H31 H 0.08997 0.28459 0.17441 0.0
H32 H 0.96047 0.42398 0.82181 0.0
H33 H 0.89513 0.40482 0.90807 0.0
H34 H 0.87764 0.36887 0.01964 0.0
H35 H 0.91329 0.32881 0.11535 0.0
Mn36 Mn 0.5289 0.16108 0.54295 0.0
Mn37 Mn 0.47048 0.25853 0.53589 0.0
C38 C 0.51083 0.19639 0.64003 0.0
C39 C 0.51706 0.08633 0.53716 0.0
C40 C 0.58787 0.24749 0.52658 0.0
O41 O 0.50925 0.16578 0.44683 0.0
O42 O 0.47531 0.23238 0.44634 0.0
C43 C 0.3663 0.22152 0.50305 0.0
N44 N 0.39687 0.24669 0.54266 0.0
C45 C 0.3227 0.26534 0.61063 0.0
C46 C 0.29032 0.23979 0.5704 0.0
C47 C 0.31228 0.21764 0.51653 0.0
C48 C 0.37637 0.26735 0.59536 0.0
H49 H 0.38302 0.20453 0.46153 0.0
C50 C 0.49045 0.19813 0.41669 0.0
O51 O 0.56251 0.10376 0.52393 0.0
O52 O 0.47946 0.1122 0.55421 0.0
N53 N 0.46206 0.29035 0.61567 0.0
C54 C 0.49757 0.31729 0.64457 0.0
C55 C 0.48106 0.34492 0.69529 0.0
C56 C 0.42852 0.34399 0.71687 0.0
C57 C 0.39239 0.31675 0.68537 0.0
C58 C 0.41068 0.29129 0.63312 0.0
H59 H 0.53776 0.31878 0.62736 0.0
O60 O 0.54194 0.16324 0.63834 0.0
O61 O 0.48606 0.20531 0.58492 0.0
O62 O 0.58878 0.20586 0.52868 0.0
O63 O 0.54602 0.2705 0.53064 0.0
C64 C 0.33854 0.31527 0.70183 0.0
C65 C 0.30379 0.28921 0.66487 0.0
H66 H 0.24856 0.23705 0.5803 0.0
H67 H 0.2876 0.19779 0.48531 0.0
H68 H 0.50853 0.36773 0.71629 0.0
H69 H 0.41586 0.36542 0.756 0.0
H70 H 0.32335 0.33441 0.74232 0.0
H71 H 0.26244 0.28839 0.67784 0.0
Mn72 Mn 0.8 0.53787 0.04848 0.0
Mn73 Mn 0.87813 0.60973 0.96954 0.0
C74 C 0.88787 0.52226 0.03972 0.0
C75 C 0.75761 0.5227 0.14732 0.0
C76 C 0.81298 0.5411 0.89858 0.0
O77 O 0.75382 0.58971 0.03723 0.0
O78 O 0.80935 0.63731 0.99211 0.0
C79 C 0.89217 0.6652 0.08736 0.0
N80 N 0.91342 0.64058 0.03839 0.0
C81 C 0.00044 0.64912 0.08343 0.0
C82 C 0.9795 0.67479 0.13403 0.0
C83 C 0.92511 0.68279 0.13604 0.0
C84 C 0.96554 0.63185 0.03696 0.0
H85 H 0.85035 0.67111 0.08965 0.0
C86 C 0.76472 0.62732 0.01671 0.0
O87 O 0.74045 0.5063 0.0923 0.0
O88 O 0.79898 0.54697 0.14455 0.0
N89 N 0.94687 0.59154 0.94311 0.0
C90 C 0.96167 0.57724 0.8823 0.0
C91 C 0.0152 0.57018 0.86868 0.0
C92 C 0.05324 0.5808 0.91617 0.0
C93 C 0.03742 0.60047 0.97525 0.0
C94 C 0.98341 0.60651 0.9858 0.0
H95 H 0.93271 0.57144 0.84456 0.0
O96 O 0.85474 0.49283 0.05811 0.0
O97 O 0.86897 0.56126 0.03135 0.0
O98 O 0.79241 0.52354 0.94984 0.0
O99 O 0.84383 0.57423 0.89972 0.0
C100 C 0.0732 0.61658 0.02223 0.0
C101 C 0.05465 0.64055 0.07668 0.0
H102 H 0.00483 0.68871 0.17136 0.0
H103 H 0.90862 0.70244 0.17508 0.0
H104 H 0.02711 0.55703 0.82156 0.0
H105 H 0.09452 0.57553 0.9055 0.0
H106 H 0.11513 0.61177 0.01599 0.0
H107 H 0.08256 0.65335 0.11199 0.0
Mn108 Mn 0.4662 0.82746 0.54269 0.0
Mn109 Mn 0.52394 0.72982 0.53455 0.0
C110 C 0.48489 0.79202 0.63937 0.0
C111 C 0.47825 0.90218 0.53686 0.0
C112 C 0.40655 0.74117 0.52786 0.0
O113 O 0.48487 0.82275 0.44622 0.0
O114 O 0.51771 0.75581 0.44503 0.0
C115 C 0.62762 0.76664 0.49866 0.0
N116 N 0.59766 0.74169 0.53934 0.0
C117 C 0.67286 0.72342 0.60562 0.0
C118 C 0.70461 0.74876 0.56429 0.0
C119 C 0.68183 0.77061 0.51073 0.0
C120 C 0.61895 0.72135 0.59179 0.0
H121 H 0.61029 0.78338 0.45734 0.0
C122 C 0.5027 0.79018 0.41566 0.0
O123 O 0.43263 0.88486 0.52431 0.0
O124 O 0.51594 0.87623 0.55319 0.0
N125 N 0.53367 0.69813 0.6142 0.0
C126 C 0.49878 0.6709 0.64371 0.0
C127 C 0.51619 0.64332 0.69397 0.0
C128 C 0.56895 0.6446 0.71452 0.0
C129 C 0.60444 0.67207 0.68232 0.0
C130 C 0.58527 0.69747 0.63054 0.0
H131 H 0.45844 0.6691 0.62725 0.0
O132 O 0.45405 0.82535 0.63827 0.0
O133 O 0.50917 0.78305 0.58389 0.0
O134 O 0.406 0.78282 0.52942 0.0
O135 O 0.44829 0.71797 0.53141 0.0
C136 C 0.65852 0.67369 0.69743 0.0
C137 C 0.69264 0.69972 0.6595 0.0
H138 H 0.74652 0.75153 0.57307 0.0
H139 H 0.70603 0.79028 0.47864 0.0
H140 H 0.48927 0.62021 0.71533 0.0
H141 H 0.58229 0.62318 0.75329 0.0
H142 H 0.67438 0.65459 0.73753 0.0
H143 H 0.73418 0.70059 0.67136 0.0
Mn144 Mn 0.18742 0.54025 0.50231 0.0
Mn145 Mn 0.11227 0.6146 0.58034 0.0
C146 C 0.09918 0.52718 0.51222 0.0
C147 C 0.22854 0.52236 0.40369 0.0
C148 C 0.17369 0.54431 0.65237 0.0
O149 O 0.23561 0.59098 0.51159 0.0
O150 O 0.18306 0.63947 0.55996 0.0
C151 C 0.1038 0.67111 0.46279 0.0
N152 N 0.08021 0.64687 0.51051 0.0
C153 C 0.99488 0.65815 0.46195 0.0
C154 C 0.01826 0.6834 0.41256 0.0
C155 C 0.07297 0.68985 0.41298 0.0
C156 C 0.02772 0.6397 0.50969 0.0
H157 H 0.14587 0.67587 0.46235 0.0
C158 C 0.22688 0.6285 0.53406 0.0
O159 O 0.24535 0.50636 0.45914 0.0
O160 O 0.18832 0.54791 0.40595 0.0
N161 N 0.04201 0.59898 0.60425 0.0
C162 C 0.02493 0.58546 0.6645 0.0
C163 C 0.97079 0.57985 0.67574 0.0
C164 C 0.93459 0.59124 0.62646 0.0
C165 C 0.95286 0.61041 0.56813 0.0
C166 C 0.00736 0.61489 0.55994 0.0
H167 H 0.05254 0.57937 0.70362 0.0
O168 O 0.131 0.49658 0.49468 0.0
O169 O 0.11953 0.56582 0.51882 0.0
O170 O 0.19494 0.52693 0.60137 0.0
O171 O 0.14319 0.57766 0.65088 0.0
C172 C 0.91912 0.62764 0.51976 0.0
C173 C 0.94017 0.65119 0.46633 0.0
H174 H 0.99458 0.6982 0.37435 0.0
H175 H 0.09135 0.7092 0.37493 0.0
H176 H 0.957 0.56731 0.72242 0.0
H177 H 0.89284 0.58719 0.63532 0.0
H178 H 0.87686 0.62409 0.52422 0.0
H179 H 0.91381 0.66492 0.43 0.0
Mn180 Mn 0.46444 0.1613 1.00501 0.0
Mn181 Mn 0.52367 0.25838 0.01263 0.0
C182 C 0.48333 0.19648 0.90813 0.0
C183 C 0.47583 0.08649 0.01071 0.0
C184 C 0.4061 0.24814 0.02043 0.0
O185 O 0.48355 0.16586 0.1013 0.0
O186 O 0.51768 0.23239 0.10218 0.0
C187 C 0.62706 0.22056 0.04712 0.0
N188 N 0.59719 0.24591 1.00697 0.0
C189 C 0.67218 0.2636 0.93982 0.0
C190 C 0.70385 0.23787 0.98062 0.0
C191 C 0.68112 0.2161 0.03435 0.0
C192 C 0.61842 0.26618 0.95439 0.0
H193 H 0.60976 0.20385 0.08852 0.0
C194 C 0.5022 0.19819 0.13167 0.0
O195 O 0.43038 0.10403 0.02357 0.0
O196 O 0.51364 0.11227 0.99413 0.0
N197 N 0.53327 0.29004 0.93291 0.0
C198 C 0.49847 0.31741 0.90364 0.0
C199 C 0.51585 0.34481 0.85312 0.0
C200 C 0.5685 0.34319 0.83205 0.0
C201 C 0.60391 0.31556 0.864 0.0
C202 C 0.58479 0.29038 0.91608 0.0
H203 H 0.45821 0.31943 0.92045 0.0
O204 O 0.45196 0.16349 0.90952 0.0
O205 O 0.50788 0.20528 0.96344 0.0
O206 O 0.40487 0.20649 0.01872 0.0
O207 O 0.44821 0.27088 0.01665 0.0
C208 C 0.65786 0.31348 0.84821 0.0
C209 C 0.6919 0.28715 0.88571 0.0
H210 H 0.74564 0.23469 0.97127 0.0
H211 H 0.70525 0.1961 0.066 0.0
H212 H 0.48901 0.36801 0.8319 0.0
H213 H 0.58181 0.36444 0.79302 0.0
H214 H 0.67368 0.3324 0.80786 0.0
H215 H 0.73333 0.28589 0.87328 0.0
Mn216 Mn 0.79847 0.45373 0.50481 0.0
Mn217 Mn 0.87851 0.37989 0.57564 0.0
C218 C 0.88607 0.46967 0.5137 0.0
C219 C 0.75532 0.47279 0.40831 0.0
C220 C 0.81523 0.44609 0.65414 0.0
O221 O 0.753 0.40114 0.51143 0.0
O222 O 0.80839 0.3535 0.55651 0.0
C223 C 0.88622 0.32743 0.45368 0.0
N224 N 0.91006 0.35074 0.50225 0.0
C225 C 0.99432 0.34411 0.4488 0.0
C226 C 0.97066 0.31986 0.39849 0.0
C227 C 0.91636 0.31154 0.40094 0.0
C228 C 0.96209 0.35976 0.4995 0.0
H229 H 0.84442 0.32129 0.45475 0.0
C230 C 0.76378 0.36353 0.53198 0.0
O231 O 0.73827 0.48675 0.46496 0.0
O232 O 0.79688 0.44874 0.40824 0.0
N233 N 0.94873 0.39665 0.59786 0.0
C234 C 0.96695 0.40778 0.65867 0.0
C235 C 0.02111 0.41438 0.66829 0.0
C236 C 0.05637 0.40628 0.61641 0.0
C237 C 0.03726 0.38916 0.55705 0.0
C238 C 0.98277 0.38347 0.55075 0.0
H239 H 0.94029 0.41077 0.69956 0.0
O240 O 0.85246 0.4996 0.49907 0.0
O241 O 0.8678 0.43019 0.51798 0.0
O242 O 0.79176 0.46375 0.60491 0.0
O243 O 0.84766 0.41404 0.6496 0.0
C244 C 0.07031 0.37486 0.50574 0.0
C245 C 0.04875 0.3527 0.45127 0.0
H246 H 0.99384 0.30724 0.358 0.0
H247 H 0.89777 0.29296 0.36219 0.0
H248 H 0.03568 0.42496 0.71574 0.0
H249 H 0.09816 0.41109 0.62394 0.0
H250 H 0.11249 0.3795 0.50866 0.0
H251 H 0.07462 0.34117 0.41262 0.0
Mn252 Mn 0.52751 0.82773 1.00421 0.0
Mn253 Mn 0.47065 0.72964 0.0115 0.0
C254 C 0.51008 0.79209 0.90723 0.0
C255 C 0.51488 0.90238 0.00996 0.0
C256 C 0.5878 0.74197 0.02062 0.0
O257 O 0.50789 0.82289 0.10037 0.0
O258 O 0.47527 0.75584 0.10104 0.0
C259 C 0.36598 0.76552 0.04488 0.0
N260 N 0.39686 0.74075 1.00503 0.0
C261 C 0.32283 0.72134 0.93741 0.0
C262 C 0.29014 0.74648 0.97787 0.0
C263 C 0.31188 0.76881 0.03168 0.0
C264 C 0.37658 0.71993 0.95237 0.0
H265 H 0.38251 0.78262 0.08639 0.0
C266 C 0.4898 0.79029 0.13063 0.0
O267 O 0.56047 0.88525 0.02319 0.0
O268 O 0.47752 0.87626 0.9929 0.0
N269 N 0.46254 0.69773 0.93175 0.0
C270 C 0.49836 0.67108 0.90279 0.0
C271 C 0.48214 0.64326 0.85218 0.0
C272 C 0.42955 0.64369 0.83082 0.0
C273 C 0.39313 0.67064 0.86237 0.0
C274 C 0.41116 0.69634 0.91446 0.0
H275 H 0.53858 0.66995 0.91987 0.0
O276 O 0.54065 0.82559 0.90879 0.0
O277 O 0.48537 0.78299 0.96236 0.0
O278 O 0.588 0.78359 0.01856 0.0
O279 O 0.54637 0.71844 0.01649 0.0
C280 C 0.33922 0.67155 0.84617 0.0
C281 C 0.30416 0.69726 0.88328 0.0
H282 H 0.24832 0.74875 0.96821 0.0
H283 H 0.28694 0.78834 0.0631 0.0
H284 H 0.50985 0.62068 0.83112 0.0
H285 H 0.41708 0.62206 0.79185 0.0
H286 H 0.32422 0.6522 0.80582 0.0
H287 H 0.26277 0.69761 0.87056 0.0
C288 C 0.25435 0.45213 0.25798 0.0
C289 C 0.25097 0.48283 0.20701 0.0
H290 H 0.2521 0.44111 0.36228 0.0
C291 C 0.25315 0.52698 0.22236 0.0
H292 H 0.25239 0.41784 0.24697 0.0
C293 C 0.25159 0.5402 0.28819 0.0
C294 C 0.24935 0.5094 0.33912 0.0
H295 H 0.2499 0.55114 0.18387 0.0
H296 H 0.2476 0.57439 0.29912 0.0
C297 C 0.25432 0.46538 0.32384 0.0
C298 C 0.45298 0.21951 0.73295 0.0
C299 C 0.50323 0.21733 0.7049 0.0
H300 H 0.40776 0.21866 0.82181 0.0
C301 C 0.54739 0.22042 0.74674 0.0
H302 H 0.41834 0.21482 0.70281 0.0
C303 C 0.54151 0.2192 0.81533 0.0
C304 C 0.49124 0.21748 0.84338 0.0
H305 H 0.58672 0.21782 0.72644 0.0
H306 H 0.5761 0.21426 0.84548 0.0
C307 C 0.44713 0.22091 0.80153 0.0
C308 C 0.72744 0.45542 0.29475 0.0
C309 C 0.73341 0.48647 0.34485 0.0
H310 H 0.72834 0.44314 0.19075 0.0
C311 C 0.73385 0.53047 0.32844 0.0
H312 H 0.72755 0.42121 0.30661 0.0
C313 C 0.73572 0.54288 0.26227 0.0
C314 C 0.73581 0.51145 0.21213 0.0
H315 H 0.73924 0.55484 0.36626 0.0
H316 H 0.74192 0.57671 0.25046 0.0
C317 C 0.72788 0.46791 0.22856 0.0
C318 C 0.5476 0.76769 0.80118 0.0
C319 C 0.50309 0.7708 0.8425 0.0
H320 H 0.57714 0.7736 0.7027 0.0
C321 C 0.45309 0.76839 0.81389 0.0
H322 H 0.58675 0.77037 0.82193 0.0
C323 C 0.4478 0.76706 0.74523 0.0
C324 C 0.49225 0.7706 0.70389 0.0
H325 H 0.41817 0.77292 0.84367 0.0
H326 H 0.4086 0.76931 0.7245 0.0
C327 C 0.5423 0.76877 0.7325 0.0
C328 C 0.85833 0.47672 0.75284 0.0
C329 C 0.81167 0.46837 0.71842 0.0
H330 H 0.89449 0.50503 0.83673 0.0
C331 C 0.76393 0.48466 0.74352 0.0
H332 H 0.89588 0.46667 0.73356 0.0
C333 C 0.76331 0.50821 0.80296 0.0
C334 C 0.81062 0.51661 0.83643 0.0
H335 H 0.72742 0.47919 0.71731 0.0
H336 H 0.72636 0.5204 0.82203 0.0
C337 C 0.85775 0.50012 0.81116 0.0
C338 C 0.49348 0.82982 0.23884 0.0
C339 C 0.49068 0.79063 0.2037 0.0
H340 H 0.49956 0.8605 0.33332 0.0
C341 C 0.49322 0.75147 0.23884 0.0
H342 H 0.49197 0.86054 0.2132 0.0
C343 C 0.49893 0.75144 0.30735 0.0
C344 C 0.5013 0.79058 0.3426 0.0
H345 H 0.49194 0.72069 0.21329 0.0
H346 H 0.50048 0.72065 0.3328 0.0
C347 C 0.49818 0.82979 0.30759 0.0
C348 C 0.1301 0.48435 0.80377 0.0
C349 C 0.17768 0.4708 0.83174 0.0
H350 H 0.09206 0.51667 0.72466 0.0
C351 C 0.2253 0.4826 0.80133 0.0
H352 H 0.09299 0.47724 0.82735 0.0
C353 C 0.2248 0.50671 0.74247 0.0
C354 C 0.17673 0.52023 0.71498 0.0
H355 H 0.26253 0.47286 0.82261 0.0
H356 H 0.26166 0.51509 0.71888 0.0
C357 C 0.12962 0.50836 0.74595 0.0
C358 C 0.49351 0.23692 0.30849 0.0
C359 C 0.49111 0.19776 0.34364 0.0
H360 H 0.50039 0.26772 0.21445 0.0
C361 C 0.49381 0.15856 0.30852 0.0
H362 H 0.49231 0.2677 0.33405 0.0
C363 C 0.49822 0.15858 0.23974 0.0
C364 C 0.50119 0.19779 0.20471 0.0
H365 H 0.49241 0.12785 0.3342 0.0
H366 H 0.49949 0.12787 0.214 0.0
C367 C 0.49897 0.23694 0.23994 0.0
C368 C 0.96714 0.49895 0.978 0.0
C369 C 0.94351 0.51058 0.03754 0.0
H370 H 0.03957 0.48239 0.9303 0.0
C371 C 0.97004 0.5023 0.09675 0.0
H372 H 0.94549 0.50113 0.93244 0.0
C373 C 0.02029 0.48401 0.0958 0.0
C374 C 0.045 0.47478 0.03559 0.0
H375 H 0.95144 0.50915 0.14367 0.0
H376 H 0.04053 0.47829 0.14197 0.0
C377 C 0.01927 0.48497 0.97687 0.0
C378 C 0.44585 0.9787 0.53262 0.0
C379 C 0.48783 0.9493 0.53326 0.0
H380 H 0.42236 0.04518 0.53385 0.0
C381 C 0.53973 0.96527 0.53243 0.0
H382 H 0.40552 0.96735 0.5332 0.0
C383 C 0.54948 0.00982 0.53201 0.0
C384 C 0.5075 0.03922 0.53343 0.0
H385 H 0.57297 0.94333 0.53247 0.0
H386 H 0.58981 0.02118 0.5321 0.0
C387 C 0.4556 0.02324 0.53321 0.0
C388 C 0.01675 0.50966 0.4546 0.0
C389 C 0.04312 0.51714 0.51416 0.0
H390 H 0.94658 0.48597 0.40828 0.0
C391 C 0.01899 0.50544 0.57345 0.0
H392 H 0.0357 0.51666 0.40795 0.0
C393 C 0.96689 0.49121 0.57383 0.0
C394 C 0.94164 0.48146 0.51451 0.0
H395 H 0.04046 0.50725 0.61933 0.0
H396 H 0.94657 0.48727 0.62029 0.0
C397 C 0.96649 0.49146 0.45475 0.0
C398 C 0.54695 0.97891 0.01581 0.0
C399 C 0.50505 0.94946 0.0137 0.0
H400 H 0.57038 0.0454 0.01609 0.0
C401 C 0.45311 0.96536 0.01342 0.0
H402 H 0.5873 0.96763 0.01613 0.0
C403 C 0.44329 0.00991 0.01422 0.0
C404 C 0.48525 0.03936 0.01427 0.0
H405 H 0.41993 0.94336 0.01224 0.0
H406 H 0.40297 0.02124 0.01322 0.0
C407 C 0.53716 0.02343 0.01558 0.0
C408 C 0.26807 0.28938 0.98898 0.0
C409 C 0.27076 0.33024 0.01963 0.0
H410 H 0.30927 0.23043 0.96569 0.0
C411 C 0.31576 0.34086 0.05644 0.0
H412 H 0.23369 0.28009 0.9608 0.0
C413 C 0.35816 0.31266 0.05948 0.0
C414 C 0.35688 0.27295 0.02604 0.0
H415 H 0.31898 0.37154 0.08198 0.0
H416 H 0.39287 0.32261 0.08656 0.0
C417 C 0.31097 0.26082 0.99223 0.0
C418 C 0.72481 0.29038 0.55906 0.0
C419 C 0.72229 0.33021 0.52546 0.0
H420 H 0.68362 0.23194 0.58531 0.0
C421 C 0.67827 0.3391 0.48587 0.0
H422 H 0.75847 0.28247 0.58945 0.0
C423 C 0.63631 0.31042 0.48327 0.0
C424 C 0.63718 0.27198 0.5199 0.0
H425 H 0.67537 0.3689 0.45798 0.0
H426 H 0.60211 0.31914 0.45427 0.0
C427 C 0.68236 0.26134 0.55627 0.0
C428 C 0.72506 0.69991 0.98812 0.0
C429 C 0.72322 0.66059 0.02314 0.0
H430 H 0.68293 0.75755 0.96029 0.0
C431 C 0.67966 0.652 0.06376 0.0
H432 H 0.75835 0.70757 0.9569 0.0
C433 C 0.63736 0.68033 0.06586 0.0
C434 C 0.63748 0.71814 0.02775 0.0
H435 H 0.67734 0.6226 0.09275 0.0
H436 H 0.60345 0.67179 0.09558 0.0
C437 C 0.68227 0.72863 0.99044 0.0
C438 C 0.3115 0.72913 0.55716 0.0
C439 C 0.35693 0.71695 0.52231 0.0
H440 H 0.23417 0.71025 0.58912 0.0
C441 C 0.35731 0.67772 0.48762 0.0
H442 H 0.31054 0.75918 0.58464 0.0
C443 C 0.31446 0.64997 0.49036 0.0
C444 C 0.26993 0.66055 0.52817 0.0
H445 H 0.39165 0.66778 0.45975 0.0
H446 H 0.31699 0.61962 0.46378 0.0
C447 C 0.26815 0.701 0.56015 0.0
loop_
_geom_bond_atom_site_label_1
_geom_bond_atom_site_label_2
_geom_bond_distance
_geom_bond_site_symmetry_2
_ccdc_geom_bond_type
Mn0 O5 2.095 . S
Mn0 O15 2.162 . S
Mn0 O16 2.297 . S
Mn0 O24 2.385 . S
Mn0 O25 2.209 . S
Mn0 O26 2.094 1_554 S
Mn1 O6 2.121 . S
Mn1 N8 2.257 . S
Mn1 N17 2.282 . S
Mn1 O25 2.215 1_556 S
Mn1 O27 2.117 . S
C2 O24 1.234 . S
C2 O25 1.283 . S
C3 O15 1.281 . S
C3 O16 1.236 . S
C4 O26 1.240 . S
C4 O27 1.264 . S
O5 Mn0 2.095 . S
O5 C14 1.250 1_554 S
O6 Mn1 2.121 . S
O6 C14 1.258 . S
C7 N8 1.326 . S
C7 C11 1.460 . S
C7 H13 0.929 . S
N8 Mn1 2.257 . S
N8 C7 1.326 . S
N8 C12 1.362 . S
C9 C10 1.258 1_655 S
C9 C12 1.431 1_655 S
C9 C29 1.449 . S
C10 C9 1.258 1_455 S
C10 C11 1.477 . S
C10 H30 0.931 1_455 S
C11 C7 1.460 . S
C11 C10 1.477 . S
C11 H31 0.930 . S
C12 N8 1.362 . S
C12 C9 1.431 1_455 S
C12 C22 1.476 . S
H13 C7 0.929 . S
C14 O5 1.250 1_556 S
C14 O6 1.258 . S
O15 Mn0 2.162 . S
O15 C3 1.281 . S
O16 Mn0 2.297 . S
O16 C3 1.236 . S
N17 Mn1 2.282 . S
N17 C18 1.328 . S
N17 C22 1.318 . S
C18 N17 1.328 . S
C18 C19 1.457 . S
C18 H23 0.929 . S
C19 C18 1.457 . S
C19 C20 1.291 1_455 S
C19 H32 0.931 . S
C20 C19 1.291 1_655 S
C20 C21 1.373 . S
C20 H33 0.929 . S
C21 C20 1.373 . S
C21 C22 1.396 1_655 S
C21 C28 1.403 . S
C22 C12 1.476 . S
C22 N17 1.318 . S
C22 C21 1.396 1_455 S
H23 C18 0.929 . S
O24 Mn0 2.385 . S
O24 C2 1.234 . S
O25 Mn0 2.209 . S
O25 Mn1 2.215 1_554 S
O25 C2 1.283 . S
O26 Mn0 2.094 1_556 S
O26 C4 1.240 . S
O27 Mn1 2.117 . S
O27 C4 1.264 . S
C28 C21 1.403 . S
C28 C29 1.399 . S
C28 H34 0.929 . S
C29 C9 1.449 . S
C29 C28 1.399 . S
C29 H35 0.930 . S
H30 C10 0.931 1_655 S
H31 C11 0.930 . S
H32 C19 0.931 . S
H33 C20 0.929 . S
H34 C28 0.929 . S
H35 C29 0.930 . S
Mn36 O41 2.095 . S
Mn36 O51 2.162 . S
Mn36 O52 2.297 . S
Mn36 O60 2.385 . S
Mn36 O61 2.209 . S
Mn36 O62 2.094 . S
Mn37 O42 2.121 . S
Mn37 N44 2.257 . S
Mn37 N53 2.282 . S
Mn37 O61 2.215 . S
Mn37 O63 2.117 . S
C38 O60 1.234 . S
C38 O61 1.283 . S
C39 O51 1.281 . S
C39 O52 1.236 . S
C40 O62 1.240 . S
C40 O63 1.264 . S
O41 Mn36 2.095 . S
O41 C50 1.250 . S
O42 Mn37 2.121 . S
O42 C50 1.258 . S
C43 N44 1.326 . S
C43 C47 1.460 . S
C43 H49 0.929 . S
N44 Mn37 2.257 . S
N44 C43 1.326 . S
N44 C48 1.362 . S
C45 C46 1.258 . S
C45 C48 1.431 . S
C45 C65 1.449 . S
C46 C45 1.258 . S
C46 C47 1.477 . S
C46 H66 0.931 . S
C47 C43 1.460 . S
C47 C46 1.477 . S
C47 H67 0.930 . S
C48 N44 1.362 . S
C48 C45 1.431 . S
C48 C58 1.476 . S
H49 C43 0.929 . S
C50 O41 1.250 . S
C50 O42 1.258 . S
O51 Mn36 2.162 . S
O51 C39 1.281 . S
O52 Mn36 2.297 . S
O52 C39 1.236 . S
N53 Mn37 2.282 . S
N53 C54 1.328 . S
N53 C58 1.318 . S
C54 N53 1.328 . S
C54 C55 1.457 . S
C54 H59 0.929 . S
C55 C54 1.457 . S
C55 C56 1.291 . S
C55 H68 0.931 . S
C56 C55 1.291 . S
C56 C57 1.373 . S
C56 H69 0.929 . S
C57 C56 1.373 . S
C57 C58 1.396 . S
C57 C64 1.403 . S
C58 C48 1.476 . S
C58 N53 1.318 . S
C58 C57 1.396 . S
H59 C54 0.929 . S
O60 Mn36 2.385 . S
O60 C38 1.234 . S
O61 Mn36 2.209 . S
O61 Mn37 2.215 . S
O61 C38 1.283 . S
O62 Mn36 2.094 . S
O62 C40 1.240 . S
O63 Mn37 2.117 . S
O63 C40 1.264 . S
C64 C57 1.403 . S
C64 C65 1.399 . S
C64 H70 0.929 . S
C65 C45 1.449 . S
C65 C64 1.399 . S
C65 H71 0.930 . S
H66 C46 0.931 . S
H67 C47 0.930 . S
H68 C55 0.931 . S
H69 C56 0.929 . S
H70 C64 0.929 . S
H71 C65 0.930 . S
Mn72 O77 2.095 . S
Mn72 O87 2.162 . S
Mn72 O88 2.297 . S
Mn72 O96 2.385 . S
Mn72 O97 2.209 . S
Mn72 O98 2.094 1_554 S
Mn73 O78 2.121 . S
Mn73 N80 2.257 . S
Mn73 N89 2.282 . S
Mn73 O97 2.215 1_556 S
Mn73 O99 2.117 . S
C74 O96 1.234 . S
C74 O97 1.283 . S
C75 O87 1.281 . S
C75 O88 1.236 . S
C76 O98 1.240 . S
C76 O99 1.264 . S
O77 Mn72 2.095 . S
O77 C86 1.250 1_554 S
O78 Mn73 2.121 . S
O78 C86 1.258 . S
C79 N80 1.326 . S
C79 C83 1.460 . S
C79 H85 0.929 . S
N80 Mn73 2.257 . S
N80 C79 1.326 . S
N80 C84 1.362 . S
C81 C82 1.258 1_455 S
C81 C84 1.431 1_455 S
C81 C101 1.449 . S
C82 C81 1.258 1_655 S
C82 C83 1.477 . S
C82 H102 0.931 1_655 S
C83 C79 1.460 . S
C83 C82 1.477 . S
C83 H103 0.930 . S
C84 N80 1.362 . S
C84 C81 1.431 1_655 S
C84 C94 1.476 . S
H85 C79 0.929 . S
C86 O77 1.250 1_556 S
C86 O78 1.258 . S
O87 Mn72 2.162 . S
O87 C75 1.281 . S
O88 Mn72 2.297 . S
O88 C75 1.236 . S
N89 Mn73 2.282 . S
N89 C90 1.328 . S
N89 C94 1.318 . S
C90 N89 1.328 . S
C90 C91 1.457 . S
C90 H95 0.929 . S
C91 C90 1.457 . S
C91 C92 1.291 1_655 S
C91 H104 0.931 . S
C92 C91 1.291 1_455 S
C92 C93 1.373 . S
C92 H105 0.929 . S
C93 C92 1.373 . S
C93 C94 1.396 1_455 S
C93 C100 1.403 . S
C94 C84 1.476 . S
C94 N89 1.318 . S
C94 C93 1.396 1_655 S
H95 C90 0.929 . S
O96 Mn72 2.385 . S
O96 C74 1.234 . S
O97 Mn72 2.209 . S
O97 Mn73 2.215 1_554 S
O97 C74 1.283 . S
O98 Mn72 2.094 1_556 S
O98 C76 1.240 . S
O99 Mn73 2.117 . S
O99 C76 1.264 . S
C100 C93 1.403 . S
C100 C101 1.399 . S
C100 H106 0.929 . S
C101 C81 1.449 . S
C101 C100 1.399 . S
C101 H107 0.930 . S
H102 C82 0.931 1_455 S
H103 C83 0.930 . S
H104 C91 0.931 . S
H105 C92 0.929 . S
H106 C100 0.929 . S
H107 C101 0.930 . S
Mn108 O113 2.095 . S
Mn108 O123 2.162 . S
Mn108 O124 2.297 . S
Mn108 O132 2.385 . S
Mn108 O133 2.209 . S
Mn108 O134 2.094 . S
Mn109 O114 2.121 . S
Mn109 N116 2.257 . S
Mn109 N125 2.282 . S
Mn109 O133 2.215 . S
Mn109 O135 2.117 . S
C110 O132 1.234 . S
C110 O133 1.283 . S
C111 O123 1.281 . S
C111 O124 1.236 . S
C112 O134 1.240 . S
C112 O135 1.264 . S
O113 Mn108 2.095 . S
O113 C122 1.250 . S
O114 Mn109 2.121 . S
O114 C122 1.258 . S
C115 N116 1.326 . S
C115 C119 1.460 . S
C115 H121 0.929 . S
N116 Mn109 2.257 . S
N116 C115 1.326 . S
N116 C120 1.362 . S
C117 C118 1.258 . S
C117 C120 1.431 . S
C117 C137 1.449 . S
C118 C117 1.258 . S
C118 C119 1.477 . S
C118 H138 0.931 . S
C119 C115 1.460 . S
C119 C118 1.477 . S
C119 H139 0.930 . S
C120 N116 1.362 . S
C120 C117 1.431 . S
C120 C130 1.476 . S
H121 C115 0.929 . S
C122 O113 1.250 . S
C122 O114 1.258 . S
O123 Mn108 2.162 . S
O123 C111 1.281 . S
O124 Mn108 2.297 . S
O124 C111 1.236 . S
N125 Mn109 2.282 . S
N125 C126 1.328 . S
N125 C130 1.318 . S
C126 N125 1.328 . S
C126 C127 1.457 . S
C126 H131 0.929 . S
C127 C126 1.457 . S
C127 C128 1.291 . S
C127 H140 0.931 . S
C128 C127 1.291 . S
C128 C129 1.373 . S
C128 H141 0.929 . S
C129 C128 1.373 . S
C129 C130 1.396 . S
C129 C136 1.403 . S
C130 C120 1.476 . S
C130 N125 1.318 . S
C130 C129 1.396 . S
H131 C126 0.929 . S
O132 Mn108 2.385 . S
O132 C110 1.234 . S
O133 Mn108 2.209 . S
O133 Mn109 2.215 . S
O133 C110 1.283 . S
O134 Mn108 2.094 . S
O134 C112 1.240 . S
O135 Mn109 2.117 . S
O135 C112 1.264 . S
C136 C129 1.403 . S
C136 C137 1.399 . S
C136 H142 0.929 . S
C137 C117 1.449 . S
C137 C136 1.399 . S
C137 H143 0.930 . S
H138 C118 0.931 . S
H139 C119 0.930 . S
H140 C127 0.931 . S
H141 C128 0.929 . S
H142 C136 0.929 . S
H143 C137 0.930 . S
Mn144 O149 2.095 . S
Mn144 O159 2.162 . S
Mn144 O160 2.297 . S
Mn144 O168 2.385 . S
Mn144 O169 2.209 . S
Mn144 O170 2.094 . S
Mn145 O150 2.121 . S
Mn145 N152 2.257 . S
Mn145 N161 2.282 . S
Mn145 O169 2.215 . S
Mn145 O171 2.117 . S
C146 O168 1.234 . S
C146 O169 1.283 . S
C147 O159 1.281 . S
C147 O160 1.236 . S
C148 O170 1.240 . S
C148 O171 1.264 . S
O149 Mn144 2.095 . S
O149 C158 1.250 . S
O150 Mn145 2.121 . S
O150 C158 1.258 . S
C151 N152 1.326 . S
C151 C155 1.460 . S
C151 H157 0.929 . S
N152 Mn145 2.257 . S
N152 C151 1.326 . S
N152 C156 1.362 . S
C153 C154 1.258 1_655 S
C153 C156 1.431 1_655 S
C153 C173 1.449 . S
C154 C153 1.258 1_455 S
C154 C155 1.477 . S
C154 H174 0.931 1_455 S
C155 C151 1.460 . S
C155 C154 1.477 . S
C155 H175 0.930 . S
C156 N152 1.362 . S
C156 C153 1.431 1_455 S
C156 C166 1.476 . S
H157 C151 0.929 . S
C158 O149 1.250 . S
C158 O150 1.258 . S
O159 Mn144 2.162 . S
O159 C147 1.281 . S
O160 Mn144 2.297 . S
O160 C147 1.236 . S
N161 Mn145 2.282 . S
N161 C162 1.328 . S
N161 C166 1.318 . S
C162 N161 1.328 . S
C162 C163 1.457 . S
C162 H167 0.929 . S
C163 C162 1.457 . S
C163 C164 1.291 1_455 S
C163 H176 0.931 . S
C164 C163 1.291 1_655 S
C164 C165 1.373 . S
C164 H177 0.929 . S
C165 C164 1.373 . S
C165 C166 1.396 1_655 S
C165 C172 1.403 . S
C166 C156 1.476 . S
C166 N161 1.318 . S
C166 C165 1.396 1_455 S
H167 C162 0.929 . S
O168 Mn144 2.385 . S
O168 C146 1.234 . S
O169 Mn144 2.209 . S
O169 Mn145 2.215 . S
O169 C146 1.283 . S
O170 Mn144 2.094 . S
O170 C148 1.240 . S
O171 Mn145 2.117 . S
O171 C148 1.264 . S
C172 C165 1.403 . S
C172 C173 1.399 . S
C172 H178 0.929 . S
C173 C153 1.449 . S
C173 C172 1.399 . S
C173 H179 0.930 . S
H174 C154 0.931 1_655 S
H175 C155 0.930 . S
H176 C163 0.931 . S
H177 C164 0.929 . S
H178 C172 0.929 . S
H179 C173 0.930 . S
Mn180 O185 2.095 . S
Mn180 O195 2.162 . S
Mn180 O196 2.297 . S
Mn180 O204 2.385 1_554 S
Mn180 O205 2.209 1_554 S
Mn180 O206 2.094 . S
Mn181 O186 2.121 . S
Mn181 N188 2.257 1_554 S
Mn181 N197 2.282 1_554 S
Mn181 O205 2.215 1_554 S
Mn181 O207 2.117 . S
C182 O204 1.234 . S
C182 O205 1.283 . S
C183 O195 1.281 . S
C183 O196 1.236 . S
C184 O206 1.240 . S
C184 O207 1.264 . S
O185 Mn180 2.095 . S
O185 C194 1.250 . S
O186 Mn181 2.121 . S
O186 C194 1.258 . S
C187 N188 1.326 1_554 S
C187 C191 1.460 1_554 S
C187 H193 0.929 . S
N188 Mn181 2.257 1_556 S
N188 C187 1.326 1_556 S
N188 C192 1.362 . S
C189 C190 1.258 . S
C189 C192 1.431 . S
C189 C209 1.449 . S
C190 C189 1.258 . S
C190 C191 1.477 . S
C190 H210 0.931 . S
C191 C187 1.460 1_556 S
C191 C190 1.477 . S
C191 H211 0.930 1_556 S
C192 N188 1.362 . S
C192 C189 1.431 . S
C192 C202 1.476 . S
H193 C187 0.929 . S
C194 O185 1.250 . S
C194 O186 1.258 . S
O195 Mn180 2.162 . S
O195 C183 1.281 . S
O196 Mn180 2.297 . S
O196 C183 1.236 . S
N197 Mn181 2.282 1_556 S
N197 C198 1.328 . S
N197 C202 1.318 . S
C198 N197 1.328 . S
C198 C199 1.457 . S
C198 H203 0.929 . S
C199 C198 1.457 . S
C199 C200 1.291 . S
C199 H212 0.931 . S
C200 C199 1.291 . S
C200 C201 1.373 . S
C200 H213 0.929 . S
C201 C200 1.373 . S
C201 C202 1.396 . S
C201 C208 1.403 . S
C202 C192 1.476 . S
C202 N197 1.318 . S
C202 C201 1.396 . S
H203 C198 0.929 . S
O204 Mn180 2.385 1_556 S
O204 C182 1.234 . S
O205 Mn180 2.209 1_556 S
O205 Mn181 2.215 1_556 S
O205 C182 1.283 . S
O206 Mn180 2.094 . S
O206 C184 1.240 . S
O207 Mn181 2.117 . S
O207 C184 1.264 . S
C208 C201 1.403 . S
C208 C209 1.399 . S
C208 H214 0.929 . S
C209 C189 1.449 . S
C209 C208 1.399 . S
C209 H215 0.930 . S
H210 C190 0.931 . S
H211 C191 0.930 1_554 S
H212 C199 0.931 . S
H213 C200 0.929 . S
H214 C208 0.929 . S
H215 C209 0.930 . S
Mn216 O221 2.095 . S
Mn216 O231 2.162 . S
Mn216 O232 2.297 . S
Mn216 O240 2.385 . S
Mn216 O241 2.209 . S
Mn216 O242 2.094 . S
Mn217 O222 2.121 . S
Mn217 N224 2.257 . S
Mn217 N233 2.282 . S
Mn217 O241 2.215 . S
Mn217 O243 2.117 . S
C218 O240 1.234 . S
C218 O241 1.283 . S
C219 O231 1.281 . S
C219 O232 1.236 . S
C220 O242 1.240 . S
C220 O243 1.264 . S
O221 Mn216 2.095 . S
O221 C230 1.250 . S
O222 Mn217 2.121 . S
O222 C230 1.258 . S
C223 N224 1.326 . S
C223 C227 1.460 . S
C223 H229 0.929 . S
N224 Mn217 2.257 . S
N224 C223 1.326 . S
N224 C228 1.362 . S
C225 C226 1.258 1_455 S
C225 C228 1.431 1_455 S
C225 C245 1.449 . S
C226 C225 1.258 1_655 S
C226 C227 1.477 . S
C226 H246 0.931 1_655 S
C227 C223 1.460 . S
C227 C226 1.477 . S
C227 H247 0.930 . S
C228 N224 1.362 . S
C228 C225 1.431 1_655 S
C228 C238 1.476 . S
H229 C223 0.929 . S
C230 O221 1.250 . S
C230 O222 1.258 . S
O231 Mn216 2.162 . S
O231 C219 1.281 . S
O232 Mn216 2.297 . S
O232 C219 1.236 . S
N233 Mn217 2.282 . S
N233 C234 1.328 . S
N233 C238 1.318 . S
C234 N233 1.328 . S
C234 C235 1.457 . S
C234 H239 0.929 . S
C235 C234 1.457 . S
C235 C236 1.291 1_655 S
C235 H248 0.931 . S
C236 C235 1.291 1_455 S
C236 C237 1.373 . S
C236 H249 0.929 . S
C237 C236 1.373 . S
C237 C238 1.396 1_455 S
C237 C244 1.403 . S
C238 C228 1.476 . S
C238 N233 1.318 . S
C238 C237 1.396 1_655 S
H239 C234 0.929 . S
O240 Mn216 2.385 . S
O240 C218 1.234 . S
O241 Mn216 2.209 . S
O241 Mn217 2.215 . S
O241 C218 1.283 . S
O242 Mn216 2.094 . S
O242 C220 1.240 . S
O243 Mn217 2.117 . S
O243 C220 1.264 . S
C244 C237 1.403 . S
C244 C245 1.399 . S
C244 H250 0.929 . S
C245 C225 1.449 . S
C245 C244 1.399 . S
C245 H251 0.930 . S
H246 C226 0.931 1_455 S
H247 C227 0.930 . S
H248 C235 0.931 . S
H249 C236 0.929 . S
H250 C244 0.929 . S
H251 C245 0.930 . S
Mn252 O257 2.095 . S
Mn252 O267 2.162 . S
Mn252 O268 2.297 . S
Mn252 O276 2.385 1_554 S
Mn252 O277 2.209 1_554 S
Mn252 O278 2.094 . S
Mn253 O258 2.121 . S
Mn253 N260 2.257 1_554 S
Mn253 N269 2.282 1_554 S
Mn253 O277 2.215 1_554 S
Mn253 O279 2.117 . S
C254 O276 1.234 . S
C254 O277 1.283 . S
C255 O267 1.281 . S
C255 O268 1.236 . S
C256 O278 1.240 . S
C256 O279 1.264 . S
O257 Mn252 2.095 . S
O257 C266 1.250 . S
O258 Mn253 2.121 . S
O258 C266 1.258 . S
C259 N260 1.326 1_554 S
C259 C263 1.460 1_554 S
C259 H265 0.929 . S
N260 Mn253 2.257 1_556 S
N260 C259 1.326 1_556 S
N260 C264 1.362 . S
C261 C262 1.258 . S
C261 C264 1.431 . S
C261 C281 1.449 . S
C262 C261 1.258 . S
C262 C263 1.477 . S
C262 H282 0.931 . S
C263 C259 1.460 1_556 S
C263 C262 1.477 . S
C263 H283 0.930 1_556 S
C264 N260 1.362 . S
C264 C261 1.431 . S
C264 C274 1.476 . S
H265 C259 0.929 . S
C266 O257 1.250 . S
C266 O258 1.258 . S
O267 Mn252 2.162 . S
O267 C255 1.281 . S
O268 Mn252 2.297 . S
O268 C255 1.236 . S
N269 Mn253 2.282 1_556 S
N269 C270 1.328 . S
N269 C274 1.318 . S
C270 N269 1.328 . S
C270 C271 1.457 . S
C270 H275 0.929 . S
C271 C270 1.457 . S
C271 C272 1.291 . S
C271 H284 0.931 . S
C272 C271 1.291 . S
C272 C273 1.373 . S
C272 H285 0.929 . S
C273 C272 1.373 . S
C273 C274 1.396 . S
C273 C280 1.403 . S
C274 C264 1.476 . S
C274 N269 1.318 . S
C274 C273 1.396 . S
H275 C270 0.929 . S
O276 Mn252 2.385 1_556 S
O276 C254 1.234 . S
O277 Mn252 2.209 1_556 S
O277 Mn253 2.215 1_556 S
O277 C254 1.283 . S
O278 Mn252 2.094 . S
O278 C256 1.240 . S
O279 Mn253 2.117 . S
O279 C256 1.264 . S
C280 C273 1.403 . S
C280 C281 1.399 . S
C280 H286 0.929 . S
C281 C261 1.449 . S
C281 C280 1.399 . S
C281 H287 0.930 . S
H282 C262 0.931 . S
H283 C263 0.930 1_554 S
H284 C271 0.931 . S
H285 C272 0.929 . S
H286 C280 0.929 . S
H287 C281 0.930 . S
C288 C289 1.387 . S
C288 H292 0.950 . S
C288 C297 1.390 . S
C289 C288 1.387 . S
C289 C291 1.387 . S
H290 C297 0.950 . S
C291 C289 1.387 . S
C291 C293 1.390 . S
C291 H295 0.950 . S
H292 C288 0.950 . S
C293 C291 1.390 . S
C293 C294 1.387 . S
C293 H296 0.950 . S
C294 C293 1.387 . S
C294 C297 1.387 . S
H295 C291 0.950 . S
H296 C293 0.950 . S
C297 C288 1.390 . S
C297 H290 0.950 . S
C297 C294 1.387 . S
C298 C299 1.387 . S
C298 H302 0.950 . S
C298 C307 1.390 . S
C299 C298 1.387 . S
C299 C301 1.387 . S
H300 C307 0.950 . S
C301 C299 1.387 . S
C301 C303 1.390 . S
C301 H305 0.950 . S
H302 C298 0.950 . S
C303 C301 1.390 . S
C303 C304 1.387 . S
C303 H306 0.950 . S
C304 C303 1.387 . S
C304 C307 1.387 . S
H305 C301 0.950 . S
H306 C303 0.950 . S
C307 C298 1.390 . S
C307 H300 0.950 . S
C307 C304 1.387 . S
C308 C309 1.387 . S
C308 H312 0.950 . S
C308 C317 1.390 . S
C309 C308 1.387 . S
C309 C311 1.387 . S
H310 C317 0.950 . S
C311 C309 1.387 . S
C311 C313 1.390 . S
C311 H315 0.950 . S
H312 C308 0.950 . S
C313 C311 1.390 . S
C313 C314 1.387 . S
C313 H316 0.950 . S
C314 C313 1.387 . S
C314 C317 1.387 . S
H315 C311 0.950 . S
H316 C313 0.950 . S
C317 C308 1.390 . S
C317 H310 0.950 . S
C317 C314 1.387 . S
C318 C319 1.387 . S
C318 H322 0.950 . S
C318 C327 1.390 . S
C319 C318 1.387 . S
C319 C321 1.387 . S
H320 C327 0.950 . S
C321 C319 1.387 . S
C321 C323 1.390 . S
C321 H325 0.950 . S
H322 C318 0.950 . S
C323 C321 1.390 . S
C323 C324 1.387 . S
C323 H326 0.950 . S
C324 C323 1.387 . S
C324 C327 1.387 . S
H325 C321 0.950 . S
H326 C323 0.950 . S
C327 C318 1.390 . S
C327 H320 0.950 . S
C327 C324 1.387 . S
C328 C329 1.387 . S
C328 H332 0.950 . S
C328 C337 1.390 . S
C329 C328 1.387 . S
C329 C331 1.387 . S
H330 C337 0.950 . S
C331 C329 1.387 . S
C331 C333 1.390 . S
C331 H335 0.950 . S
H332 C328 0.950 . S
C333 C331 1.390 . S
C333 C334 1.387 . S
C333 H336 0.950 . S
C334 C333 1.387 . S
C334 C337 1.387 . S
H335 C331 0.950 . S
H336 C333 0.950 . S
C337 C328 1.390 . S
C337 H330 0.950 . S
C337 C334 1.387 . S
C338 C339 1.387 . S
C338 H342 0.950 . S
C338 C347 1.390 . S
C339 C338 1.387 . S
C339 C341 1.387 . S
H340 C347 0.950 . S
C341 C339 1.387 . S
C341 C343 1.390 . S
C341 H345 0.950 . S
H342 C338 0.950 . S
C343 C341 1.390 . S
C343 C344 1.387 . S
C343 H346 0.950 . S
C344 C343 1.387 . S
C344 C347 1.387 . S
H345 C341 0.950 . S
H346 C343 0.950 . S
C347 C338 1.390 . S
C347 H340 0.950 . S
C347 C344 1.387 . S
C348 C349 1.387 . S
C348 H352 0.950 . S
C348 C357 1.390 . S
C349 C348 1.387 . S
C349 C351 1.387 . S
H350 C357 0.950 . S
C351 C349 1.387 . S
C351 C353 1.390 . S
C351 H355 0.950 . S
H352 C348 0.950 . S
C353 C351 1.390 . S
C353 C354 1.387 . S
C353 H356 0.950 . S
C354 C353 1.387 . S
C354 C357 1.387 . S
H355 C351 0.950 . S
H356 C353 0.950 . S
C357 C348 1.390 . S
C357 H350 0.950 . S
C357 C354 1.387 . S
C358 C359 1.387 . S
C358 H362 0.950 . S
C358 C367 1.390 . S
C359 C358 1.387 . S
C359 C361 1.387 . S
H360 C367 0.950 . S
C361 C359 1.387 . S
C361 C363 1.390 . S
C361 H365 0.950 . S
H362 C358 0.950 . S
C363 C361 1.390 . S
C363 C364 1.387 . S
C363 H366 0.950 . S
C364 C363 1.387 . S
C364 C367 1.387 . S
H365 C361 0.950 . S
H366 C363 0.950 . S
C367 C358 1.390 . S
C367 H360 0.950 . S
C367 C364 1.387 . S
C368 C369 1.387 1_556 S
C368 H372 0.950 . S
C368 C377 1.390 1_655 S
C369 C368 1.387 1_554 S
C369 C371 1.387 . S
H370 C377 0.950 . S
C371 C369 1.387 . S
C371 C373 1.390 1_655 S
C371 H375 0.950 . S
H372 C368 0.950 . S
C373 C371 1.390 1_455 S
C373 C374 1.387 . S
C373 H376 0.950 . S
C374 C373 1.387 . S
C374 C377 1.387 1_554 S
H375 C371 0.950 . S
H376 C373 0.950 . S
C377 C368 1.390 1_455 S
C377 H370 0.950 . S
C377 C374 1.387 1_556 S
C378 C379 1.387 . S
C378 H382 0.950 . S
C378 C387 1.390 1_565 S
C379 C378 1.387 . S
C379 C381 1.387 . S
H380 C387 0.950 . S
C381 C379 1.387 . S
C381 C383 1.390 1_565 S
C381 H385 0.950 . S
H382 C378 0.950 . S
C383 C381 1.390 1_545 S
C383 C384 1.387 . S
C383 H386 0.950 . S
C384 C383 1.387 . S
C384 C387 1.387 . S
H385 C381 0.950 . S
H386 C383 0.950 . S
C387 C378 1.390 1_545 S
C387 H380 0.950 . S
C387 C384 1.387 . S
C388 C389 1.387 . S
C388 H392 0.950 . S
C388 C397 1.390 1_455 S
C389 C388 1.387 . S
C389 C391 1.387 . S
H390 C397 0.950 . S
C391 C389 1.387 . S
C391 C393 1.390 1_455 S
C391 H395 0.950 . S
H392 C388 0.950 . S
C393 C391 1.390 1_655 S
C393 C394 1.387 . S
C393 H396 0.950 . S
C394 C393 1.387 . S
C394 C397 1.387 . S
H395 C391 0.950 . S
H396 C393 0.950 . S
C397 C388 1.390 1_655 S
C397 H390 0.950 . S
C397 C394 1.387 . S
C398 C399 1.387 . S
C398 H402 0.950 . S
C398 C407 1.390 1_565 S
C399 C398 1.387 . S
C399 C401 1.387 1_554 S
H400 C407 0.950 . S
C401 C399 1.387 1_556 S
C401 C403 1.390 1_565 S
C401 H405 0.950 . S
H402 C398 0.950 . S
C403 C401 1.390 1_545 S
C403 C404 1.387 1_556 S
C403 H406 0.950 . S
C404 C403 1.387 1_554 S
C404 C407 1.387 . S
H405 C401 0.950 . S
H406 C403 0.950 . S
C407 C398 1.390 1_545 S
C407 H400 0.950 . S
C407 C404 1.387 . S
C408 C409 1.387 1_556 S
C408 H412 0.950 . S
C408 C417 1.390 . S
C409 C408 1.387 1_554 S
C409 C411 1.387 . S
H410 C417 0.950 . S
C411 C409 1.387 . S
C411 C413 1.390 . S
C411 H415 0.950 . S
H412 C408 0.950 . S
C413 C411 1.390 . S
C413 C414 1.387 . S
C413 H416 0.950 . S
C414 C413 1.387 . S
C414 C417 1.387 1_554 S
H415 C411 0.950 . S
H416 C413 0.950 . S
C417 C408 1.390 . S
C417 H410 0.950 . S
C417 C414 1.387 1_556 S
C418 C419 1.387 . S
C418 H422 0.950 . S
C418 C427 1.390 . S
C419 C418 1.387 . S
C419 C421 1.387 . S
H420 C427 0.950 . S
C421 C419 1.387 . S
C421 C423 1.390 . S
C421 H425 0.950 . S
H422 C418 0.950 . S
C423 C421 1.390 . S
C423 C424 1.387 . S
C423 H426 0.950 . S
C424 C423 1.387 . S
C424 C427 1.387 . S
H425 C421 0.950 . S
H426 C423 0.950 . S
C427 C418 1.390 . S
C427 H420 0.950 . S
C427 C424 1.387 . S
C428 C429 1.387 1_556 S
C428 H432 0.950 . S
C428 C437 1.390 . S
C429 C428 1.387 1_554 S
C429 C431 1.387 . S
H430 C437 0.950 . S
C431 C429 1.387 . S
C431 C433 1.390 . S
C431 H435 0.950 . S
H432 C428 0.950 . S
C433 C431 1.390 . S
C433 C434 1.387 . S
C433 H436 0.950 . S
C434 C433 1.387 . S
C434 C437 1.387 1_554 S
H435 C431 0.950 . S
H436 C433 0.950 . S
C437 C428 1.390 . S
C437 H430 0.950 . S
C437 C434 1.387 1_556 S
C438 C439 1.387 . S
C438 H442 0.950 . S
C438 C447 1.390 . S
C439 C438 1.387 . S
C439 C441 1.387 . S
H440 C447 0.950 . S
C441 C439 1.387 . S
C441 C443 1.390 . S
C441 H445 0.950 . S
H442 C438 0.950 . S
C443 C441 1.390 . S
C443 C444 1.387 . S
C443 H446 0.950 . S
C444 C443 1.387 . S
C444 C447 1.387 . S
H445 C441 0.950 . S
H446 C443 0.950 . S
C447 C438 1.390 . S
C447 H440 0.950 . S
C447 C444 1.387 . S
C289 C3 1.188 . S
C294 C147 1.188 . S
C299 C38 1.511 . S
C304 C182 1.511 . S
C309 C219 1.188 . S
C314 C75 1.188 . S
C319 C254 1.516 . S
C324 C110 1.516 . S
C329 C220 1.164 . S
C334 C76 1.164 . S
C339 C266 1.644 . S
C344 C122 1.644 . S
C349 C4 1.164 . S
C354 C148 1.164 . S
C359 C50 1.647 . S
C364 C194 1.647 . S
C369 C74 1.381 . S
C374 C2 1.381 . S
C379 C111 1.472 . S
C384 C39 1.472 . S
C389 C146 1.385 . S
C394 C218 1.385 . S
C399 C255 1.470 . S
C404 C183 1.470 . S
C409 C14 1.320 1_554 S
C414 C184 1.329 . S
C419 C230 1.321 . S
C424 C40 1.329 . S
C429 C86 1.320 1_554 S
C434 C256 1.329 . S
C439 C112 1.329 . S
C444 C158 1.321 . S
