# Generated by pormake.
# Topology smu, (6)-cn, num edge types: 1
# Building blocks:
#     Node 0, Type 0, BuildingBlock: VOLQOD_clean_sbu_1, # of connection points: 6
#     Node 1, Type 0, BuildingBlock: VOLQOD_clean_sbu_1, # of connection points: 6
#     Node 2, Type 0, BuildingBlock: VOLQOD_clean_sbu_1, # of connection points: 6
#     Node 3, Type 0, BuildingBlock: VOLQOD_clean_sbu_1, # of connection points: 6
#     Node 4, Type 0, BuildingBlock: VOLQOD_clean_sbu_1, # of connection points: 6
#     Node 5, Type 0, BuildingBlock: VOLQOD_clean_sbu_1, # of connection points: 6
#     Edge 6, Type (0, 0), BuildingBlock: XUDNAN_clean_linker_2, # of connection points: 2
#     Edge 7, Type (0, 0), BuildingBlock: XUDNAN_clean_linker_2, # of connection points: 2
#     Edge 8, Type (0, 0), BuildingBlock: XUDNAN_clean_linker_2, # of connection points: 2
#     Edge 9, Type (0, 0), BuildingBlock: XUDNAN_clean_linker_2, # of connection points: 2
#     Edge 10, Type (0, 0), BuildingBlock: XUDNAN_clean_linker_2, # of connection points: 2
#     Edge 11, Type (0, 0), BuildingBlock: XUDNAN_clean_linker_2, # of connection points: 2
#     Edge 12, Type (0, 0), BuildingBlock: XUDNAN_clean_linker_2, # of connection points: 2
#     Edge 13, Type (0, 0), BuildingBlock: XUDNAN_clean_linker_2, # of connection points: 2
#     Edge 14, Type (0, 0), BuildingBlock: XUDNAN_clean_linker_2, # of connection points: 2
#     Edge 15, Type (0, 0), BuildingBlock: XUDNAN_clean_linker_2, # of connection points: 2
#     Edge 16, Type (0, 0), BuildingBlock: XUDNAN_clean_linker_2, # of connection points: 2
#     Edge 17, Type (0, 0), BuildingBlock: XUDNAN_clean_linker_2, # of connection points: 2
#     Edge 18, Type (0, 0), BuildingBlock: XUDNAN_clean_linker_2, # of connection points: 2
#     Edge 19, Type (0, 0), BuildingBlock: XUDNAN_clean_linker_2, # of connection points: 2
#     Edge 20, Type (0, 0), BuildingBlock: XUDNAN_clean_linker_2, # of connection points: 2
#     Edge 21, Type (0, 0), BuildingBlock: XUDNAN_clean_linker_2, # of connection points: 2
#     Edge 22, Type (0, 0), BuildingBlock: XUDNAN_clean_linker_2, # of connection points: 2
#     Edge 23, Type (0, 0), BuildingBlock: XUDNAN_clean_linker_2, # of connection points: 2
# Relax obj value: 0.300
# Max RMSD: 0.244
# Mean RMSD: 0.244
data_MOF--net-smu--node1-VOLQOD_clean_sbu_1--edge1-XUDNAN_clean_linker_2
_symmetry_space_group_name_H-M    P1
_symmetry_Int_Tables_number       1
_symmetry_cell_setting            triclinic
loop_
_symmetry_equiv_pos_as_xyz
'x, y, z'
_cell_length_a     30.816302
_cell_length_b     30.839024
_cell_length_c     32.777116
_cell_angle_alpha  89.899029
_cell_angle_beta   90.029738
_cell_angle_gamma 120.17672
loop_
_atom_site_label
_atom_site_type_symbol
_atom_site_fract_x
_atom_site_fract_y
_atom_site_fract_z
_atom_type_partial_charge
O0 O 0.39229 0.18657 0.17624 0.0
Zn1 Zn 0.3332 0.11733 0.16385 0.0
O2 O 0.32096 0.07461 0.21104 0.0
Zn3 Zn 0.32698 0.01694 0.19976 0.0
Zn4 Zn 0.36299 0.11026 0.25565 0.0
Zn5 Zn 0.25394 0.04956 0.22832 0.0
O6 O 0.26445 0.95499 0.22183 0.0
O7 O 0.21197 0.98158 0.20482 0.0
O8 O 0.33835 0.08211 0.11236 0.0
O9 O 0.32804 0.01099 0.13914 0.0
O10 O 0.39301 0.02636 0.22218 0.0
O11 O 0.41852 0.09583 0.25877 0.0
O12 O 0.32685 0.08733 0.30969 0.0
O13 O 0.27791 0.13436 0.15725 0.0
O14 O 0.24798 0.0406 0.28932 0.0
O15 O 0.231 0.0969 0.21175 0.0
C16 C 0.40495 0.20819 0.21105 0.0
C17 C 0.21999 0.94634 0.21487 0.0
C18 C 0.42525 0.06117 0.245 0.0
C19 C 0.33344 0.03854 0.10829 0.0
C20 C 0.28059 0.05804 0.31766 0.0
C21 C 0.24291 0.12718 0.18184 0.0
O22 O 0.39204 0.1833 0.24437 0.0
O23 O 0.78286 0.59734 0.25154 0.0
Zn24 Zn 0.77547 0.65883 0.24534 0.0
O25 O 0.73631 0.66254 0.29025 0.0
Zn26 Zn 0.68196 0.66946 0.26932 0.0
Zn27 Zn 0.7103 0.60337 0.32195 0.0
Zn28 Zn 0.77757 0.71519 0.32743 0.0
O29 O 0.68308 0.73037 0.29395 0.0
O30 O 0.76134 0.76899 0.31877 0.0
O31 O 0.75149 0.66816 0.189 0.0
O32 O 0.69447 0.68671 0.21066 0.0
O33 O 0.61672 0.60199 0.27047 0.0
O34 O 0.64365 0.55457 0.29985 0.0
O35 O 0.7013 0.61593 0.38077 0.0
O36 O 0.84663 0.71389 0.25241 0.0
O37 O 0.75903 0.6961 0.38653 0.0
O38 O 0.85104 0.7403 0.31634 0.0
C39 C 0.78138 0.57522 0.28497 0.0
C40 C 0.72127 0.76887 0.30895 0.0
C41 C 0.60976 0.55917 0.28149 0.0
C42 C 0.7204 0.68324 0.18209 0.0
C43 C 0.72502 0.65535 0.40232 0.0
C44 C 0.87204 0.73911 0.28315 0.0
O45 O 0.75778 0.57752 0.31608 0.0
O46 O 0.80242 0.19053 0.22686 0.0
Zn47 Zn 0.87227 0.20222 0.21638 0.0
O48 O 0.92038 0.25324 0.25357 0.0
Zn49 Zn 0.96773 0.31229 0.22311 0.0
Zn50 Zn 0.88613 0.26662 0.29603 0.0
Zn51 Zn 0.95625 0.22796 0.28284 0.0
O52 O 0.03613 0.31598 0.21919 0.0
O53 O 0.01983 0.248 0.25501 0.0
O54 O 0.89168 0.223 0.15698 0.0
O55 O 0.94559 0.30478 0.16493 0.0
O56 O 0.96807 0.3741 0.24569 0.0
O57 O 0.90795 0.33898 0.29309 0.0
O58 O 0.90202 0.25293 0.35282 0.0
O59 O 0.8635 0.1343 0.23045 0.0
O60 O 0.97149 0.25067 0.34106 0.0
O61 O 0.91308 0.15382 0.28479 0.0
C62 C 0.78404 0.19863 0.25884 0.0
C63 C 0.04857 0.2846 0.2321 0.0
C64 C 0.94039 0.37712 0.27325 0.0
C65 C 0.9188 0.26708 0.14237 0.0
C66 C 0.94075 0.25255 0.36572 0.0
C67 C 0.87886 0.12143 0.26183 0.0
O68 O 0.81198 0.22538 0.28796 0.0
O69 O 0.17469 0.39113 0.79273 0.0
Zn70 Zn 0.10571 0.33191 0.80258 0.0
O71 O 0.06345 0.32236 0.75647 0.0
Zn72 Zn 0.01328 0.34005 0.76905 0.0
Zn73 Zn 0.10555 0.35756 0.71114 0.0
Zn74 Zn 0.03009 0.2545 0.74152 0.0
O75 O 0.94319 0.28046 0.7561 0.0
O76 O 0.96257 0.22041 0.76488 0.0
O77 O 0.07222 0.33562 0.85442 0.0
O78 O 0.01211 0.34853 0.83011 0.0
O79 O 0.03221 0.40563 0.73939 0.0
O80 O 0.09846 0.41721 0.70276 0.0
O81 O 0.08167 0.31895 0.65778 0.0
O82 O 0.1202 0.27556 0.80593 0.0
O83 O 0.01919 0.24761 0.68158 0.0
O84 O 0.07031 0.22372 0.75802 0.0
C85 C 0.19968 0.39693 0.76007 0.0
C86 C 0.93036 0.23444 0.76154 0.0
C87 C 0.068 0.43125 0.7143 0.0
C88 C 0.03555 0.34317 0.86002 0.0
C89 C 0.0434 0.27579 0.65178 0.0
C90 C 0.10495 0.2363 0.78436 0.0
O91 O 0.17776 0.37991 0.72585 0.0
O92 O 0.2192 0.80702 0.73217 0.0
Zn93 Zn 0.22179 0.86932 0.7515 0.0
O94 O 0.25295 0.92144 0.71047 0.0
Zn95 Zn 0.30768 0.98056 0.73598 0.0
Zn96 Zn 0.27726 0.89875 0.66604 0.0
Zn97 Zn 0.20463 0.93558 0.68727 0.0
O98 O 0.30215 0.04222 0.7267 0.0
O99 O 0.22354 0.00419 0.7038 0.0
O100 O 0.2541 0.89107 0.80709 0.0
O101 O 0.30459 0.97266 0.79702 0.0
O102 O 0.37365 0.98645 0.7202 0.0
O103 O 0.34937 0.92263 0.67714 0.0
O104 O 0.26871 0.92419 0.61095 0.0
O105 O 0.14908 0.84801 0.75806 0.0
O106 O 0.20529 0.93608 0.62604 0.0
O107 O 0.13549 0.88878 0.7084 0.0
C108 C 0.22168 0.79224 0.69645 0.0
C109 C 0.26266 0.04313 0.71666 0.0
C110 C 0.38317 0.95779 0.69866 0.0
C111 C 0.28405 0.93487 0.82071 0.0
C112 C 0.23522 0.93459 0.6001 0.0
C113 C 0.11955 0.85724 0.73762 0.0
O114 O 0.2398 0.82281 0.66654 0.0
O115 O 0.57807 0.7908 0.81763 0.0
Zn116 Zn 0.64226 0.79027 0.82591 0.0
O117 O 0.6505 0.74983 0.78573 0.0
Zn118 Zn 0.65913 0.69779 0.81093 0.0
Zn119 Zn 0.59232 0.72087 0.75295 0.0
Zn120 Zn 0.70355 0.79179 0.74923 0.0
O121 O 0.72659 0.70682 0.79233 0.0
O122 O 0.76072 0.78292 0.76391 0.0
O123 O 0.64978 0.77018 0.88264 0.0
O124 O 0.66486 0.70769 0.87251 0.0
O125 O 0.59609 0.62896 0.79998 0.0
O126 O 0.54477 0.65474 0.77621 0.0
O127 O 0.60803 0.70905 0.6959 0.0
O128 O 0.69195 0.86273 0.81704 0.0
O129 O 0.68808 0.76763 0.69075 0.0
O130 O 0.72163 0.86448 0.75493 0.0
C131 C 0.55866 0.7896 0.78302 0.0
C132 C 0.76431 0.74601 0.7773 0.0
C133 C 0.55224 0.62062 0.7904 0.0
C134 C 0.65984 0.7375 0.8964 0.0
C135 C 0.64832 0.73188 0.67516 0.0
C136 C 0.71626 0.88689 0.78555 0.0
O137 O 0.56392 0.76657 0.75291 0.0
H138 H 0.31384 0.02104 0.86442 0.0
H139 H 0.27569 0.86568 0.87717 0.0
H140 H 0.29006 0.8778 0.9515 0.0
H141 H 0.41041 0.07384 0.9434 0.0
H142 H 0.39163 0.11732 0.96101 0.0
H143 H 0.3823 0.09778 0.90841 0.0
H144 H 0.28765 0.0682 0.91481 0.0
H145 H 0.29665 0.08765 0.96737 0.0
H146 H 0.25097 0.02395 0.95419 0.0
H147 H 0.30651 0.90578 0.0238 0.0
H148 H 0.31803 0.94536 0.09082 0.0
H149 H 0.34191 0.08237 0.03244 0.0
C150 C 0.30922 0.98977 0.8828 0.0
C151 C 0.29412 0.94248 0.86501 0.0
C152 C 0.28734 0.90219 0.89016 0.0
C153 C 0.29562 0.9088 0.93234 0.0
C154 C 0.31018 0.95578 0.9489 0.0
C155 C 0.31656 -0.0045 0.92505 0.0
C156 C 0.32915 0.04111 0.95095 0.0
C157 C 0.38149 0.08511 0.9403 0.0
C158 C 0.28868 0.05609 0.94657 0.0
C159 C 0.32844 0.02064 0.9932 0.0
C160 C 0.31806 0.97156 0.99109 0.0
C161 C 0.31471 0.94419 0.02585 0.0
C162 C 0.32139 0.96722 0.06388 0.0
C163 C 0.33085 0.01716 0.06715 0.0
C164 C 0.3349 0.0443 0.03111 0.0
H165 H 0.72263 0.77733 0.617 0.0
H166 H 0.57887 0.64335 0.64026 0.0
H167 H 0.5853 0.60784 0.57478 0.0
H168 H 0.70332 0.78249 0.50816 0.0
H169 H 0.7681 0.80472 0.49557 0.0
H170 H 0.75209 0.81957 0.54438 0.0
H171 H 0.79955 0.78081 0.58046 0.0
H172 H 0.81511 0.76522 0.53175 0.0
H173 H 0.78256 0.71692 0.5695 0.0
H174 H 0.60866 0.58511 0.50831 0.0
H175 H 0.64236 0.5809 0.4412 0.0
H176 H 0.76961 0.73071 0.4595 0.0
C177 C 0.69231 0.74069 0.6082 0.0
C178 C 0.65025 0.71316 0.63391 0.0
C179 C 0.61136 0.66536 0.62111 0.0
C180 C 0.6148 0.64466 0.58405 0.0
C181 C 0.65714 0.67234 0.55986 0.0
C182 C 0.69484 0.71963 0.57103 0.0
C183 C 0.73568 0.74196 0.53882 0.0
C184 C 0.74003 0.79002 0.52066 0.0
C185 C 0.78621 0.75179 0.55618 0.0
C186 C 0.71505 0.69973 0.50789 0.0
C187 C 0.67 0.65973 0.52089 0.0
C188 C 0.64381 0.61629 0.49769 0.0
C189 C 0.66347 0.61417 0.45965 0.0
C190 C 0.70868 0.65545 0.44491 0.0
C191 C 0.73505 0.69845 0.46982 0.0
H192 H 0.96784 0.24009 0.0885 0.0
H193 H 0.88378 0.31753 0.09846 0.0
H194 H 0.90427 0.34563 0.02658 0.0
H195 H 0.06755 0.33449 0.0321 0.0
H196 H 0.07795 0.29266 0.00066 0.0
H197 H 0.05166 0.2733 0.05095 0.0
H198 H 0.97461 0.19446 0.02096 0.0
H199 H 0.00116 0.21305 0.97063 0.0
H200 H 0.93877 0.20164 0.98073 0.0
H201 H 0.93696 0.36794 0.95476 0.0
H202 H 0.97816 0.38185 0.8875 0.0
H203 H 0.04591 0.29458 0.92615 0.0
C204 C 0.95244 0.2615 0.07491 0.0
C205 C 0.92296 0.27548 0.09815 0.0
C206 C 0.90528 0.3055 0.08043 0.0
C207 C 0.91701 0.32182 0.03985 0.0
C208 C 0.9472 0.30842 0.01785 0.0
C209 C 0.96459 0.27883 0.03468 0.0
C210 C -0.0009 0.27257 0.00543 0.0
C211 C 0.0522 0.29458 0.02337 0.0
C212 C 0.97708 0.21714 0.99374 0.0
C213 C -0.00143 0.30339 0.9696 0.0
C214 C 0.96813 0.32345 0.97727 0.0
C215 C 0.96093 0.35248 0.94842 0.0
C216 C 0.98463 0.36034 0.91038 0.0
C217 C 0.01567 0.33979 0.90172 0.0
C218 C 0.02316 0.31156 0.93207 0.0
H219 H 0.3383 0.0543 0.37982 0.0
H220 H 0.1868 0.01965 0.35057 0.0
H221 H 0.15877 0.98356 0.41943 0.0
H222 H 0.30213 0.94136 0.43514 0.0
H223 H 0.35153 0.97048 0.47248 0.0
H224 H 0.36068 -0.00349 0.42186 0.0
H225 H 0.38184 0.08256 0.45198 0.0
H226 H 0.37329 0.05697 0.50271 0.0
H227 H 0.33812 0.08615 0.48638 0.0
H228 H 0.1473 0.95167 0.49129 0.0
H229 H 0.15262 0.92473 0.56115 0.0
H230 H 0.31044 0.97523 0.54251 0.0
C231 C 0.29941 0.0399 0.38815 0.0
C232 C 0.26481 0.04036 0.36001 0.0
C233 C 0.21398 0.01998 0.37173 0.0
C234 C 0.19771 -0.00065 0.41073 0.0
C235 C 0.2326 -0.0012 0.43749 0.0
C236 C 0.28235 0.01839 0.42673 0.0
C237 C 0.31172 0.01135 0.46069 0.0
C238 C 0.33274 0.97793 0.44669 0.0
C239 C 0.35372 0.06229 0.47637 0.0
C240 C 0.27075 0.98497 0.49233 0.0
C241 C 0.22549 0.97841 0.47837 0.0
C242 C 0.18245 0.95637 0.50248 0.0
C243 C 0.18586 0.94118 0.54211 0.0
C244 C 0.23181 0.9475 0.55714 0.0
C245 C 0.27463 0.96919 0.53164 0.0
H246 H 0.68937 0.67848 0.93833 0.0
H247 H 0.64818 0.79295 0.95559 0.0
H248 H 0.66332 0.79319 0.02918 0.0
H249 H 0.63228 0.60978 0.03078 0.0
H250 H 0.68118 0.59552 0.04136 0.0
H251 H 0.6679 0.60439 0.98948 0.0
H252 H 0.76086 0.67334 0.9796 0.0
H253 H 0.77437 0.66491 0.03156 0.0
H254 H 0.78872 0.7261 0.01391 0.0
H255 H 0.68108 0.78125 0.09995 0.0
H256 H 0.69815 0.75561 0.16614 0.0
H257 H 0.72944 0.64903 0.10569 0.0
C258 C 0.68345 0.70352 0.9576 0.0
C259 C 0.66755 0.73575 0.94096 0.0
C260 C 0.66034 0.76795 0.96735 0.0
C261 C 0.66896 0.76848 0.00929 0.0
C262 C 0.68492 0.73671 0.02456 0.0
C263 C 0.692 0.70466 0.99977 0.0
C264 C 0.70866 0.6739 0.02465 0.0
C265 C 0.67021 0.61756 0.02137 0.0
C266 C 0.76129 0.68526 0.01165 0.0
C267 C 0.70936 0.69351 0.06728 0.0
C268 C 0.69564 0.72985 0.06617 0.0
C269 C 0.69195 0.75293 0.10128 0.0
C270 C 0.70163 0.73794 0.13876 0.0
C271 C 0.71502 0.70022 0.14111 0.0
C272 C 0.71978 0.67827 0.10476 0.0
H273 H 0.02843 0.30049 0.40944 0.0
H274 H 0.86839 0.1974 0.42109 0.0
H275 H 0.87929 0.18727 0.49453 0.0
H276 H 0.07137 0.24204 0.48234 0.0
H277 H 0.12005 0.30047 0.50315 0.0
H278 H 0.10069 0.29753 0.45085 0.0
H279 H 0.08171 0.36917 0.46419 0.0
H280 H 0.10153 0.37268 0.51637 0.0
H281 H 0.03997 0.36292 0.5052 0.0
H282 H 0.90741 0.18602 0.56529 0.0
H283 H 0.94807 0.20398 0.63249 0.0
H284 H 0.08937 0.31433 0.57742 0.0
C285 C -0.00415 0.27577 0.4276 0.0
C286 C 0.9476 0.2494 0.40984 0.0
C287 C 0.90557 0.21797 0.43436 0.0
C288 C 0.91147 0.21169 0.47592 0.0
C289 C 0.95952 0.23788 0.49254 0.0
C290 C 0.00087 0.27015 0.46947 0.0
C291 C 0.04762 0.29667 0.49575 0.0
C292 C 0.08727 0.28337 0.4822 0.0
C293 C 0.06895 0.35374 0.49535 0.0
C294 C 0.02599 0.27419 0.53715 0.0
C295 C 0.97534 0.23957 0.53427 0.0
C296 C 0.94699 0.21326 0.56804 0.0
C297 C 0.97062 0.2236 0.60609 0.0
C298 C 0.02198 0.26071 0.61032 0.0
C299 C 0.05012 0.28581 0.57518 0.0
H300 H 0.49591 0.06463 0.19272 0.0
H301 H 0.46266 0.06916 0.32051 0.0
H302 H 0.55055 0.09696 0.33831 0.0
H303 H 0.59673 0.0286 0.20856 0.0
H304 H 0.63387 0.06883 0.16727 0.0
H305 H 0.56635 0.03843 0.16542 0.0
H306 H 0.57333 0.12498 0.1551 0.0
H307 H 0.64065 0.1558 0.15793 0.0
H308 H 0.60673 0.1738 0.19219 0.0
H309 H 0.64229 0.1387 0.34118 0.0
H310 H 0.73351 0.18436 0.33023 0.0
H311 H 0.71009 0.15406 0.20024 0.0
C312 C 0.50684 0.069 0.22453 0.0
C313 C 0.47273 0.06377 0.25548 0.0
C314 C 0.48837 0.07214 0.29665 0.0
C315 C 0.53814 0.08804 0.30698 0.0
C316 C 0.5717 0.09545 0.27568 0.0
C317 C 0.55679 0.08545 0.23532 0.0
C318 C 0.60172 0.10209 0.20738 0.0
C319 C 0.59953 0.05678 0.18589 0.0
C320 C 0.60582 0.14151 0.17634 0.0
C321 C 0.6441 0.12489 0.23821 0.0
C322 C 0.62572 0.12019 0.27739 0.0
C323 C 0.65723 0.14168 0.31077 0.0
C324 C 0.70904 0.16806 0.30412 0.0
C325 C 0.72901 0.17274 0.26436 0.0
C326 C 0.69596 0.15068 0.23101 0.0
H327 H 0.56484 0.47019 0.32119 0.0
H328 H 0.55696 0.54276 0.21037 0.0
H329 H 0.49899 0.45959 0.18032 0.0
H330 H 0.57359 0.37643 0.27624 0.0
H331 H 0.53584 0.32785 0.31245 0.0
H332 H 0.56841 0.39239 0.32821 0.0
H333 H 0.48507 0.38514 0.35279 0.0
H334 H 0.45226 0.31997 0.3383 0.0
H335 H 0.43242 0.36174 0.31836 0.0
H336 H 0.45385 0.36775 0.15879 0.0
H337 H 0.41539 0.27573 0.15132 0.0
H338 H 0.4542 0.26565 0.27692 0.0
C339 C 0.54933 0.46863 0.2912 0.0
C340 C 0.56493 0.51265 0.26814 0.0
C341 C 0.54464 0.50936 0.22876 0.0
C342 C 0.51212 0.46229 0.21135 0.0
C343 C 0.49986 0.41932 0.23411 0.0
C344 C 0.51688 0.42226 0.27363 0.0
C345 C 0.5015 0.37105 0.29083 0.0
C346 C 0.54758 0.36672 0.3026 0.0
C347 C 0.46567 0.35875 0.32722 0.0
C348 C 0.4747 0.33881 0.25438 0.0
C349 C 0.47388 0.36704 0.22192 0.0
C350 C 0.45349 0.34522 0.18428 0.0
C351 C 0.43227 0.29306 0.18018 0.0
C352 C 0.4317 0.26351 0.21357 0.0
C353 C 0.45362 0.28705 0.2509 0.0
H354 H 0.92505 0.43305 0.21724 0.0
H355 H 0.94958 0.42165 0.34591 0.0
H356 H 0.92035 0.48086 0.3618 0.0
H357 H 0.95238 0.57002 0.21948 0.0
H358 H 0.90291 0.55494 0.1831 0.0
H359 H 0.93876 0.52341 0.18078 0.0
H360 H 0.85603 0.43803 0.18453 0.0
H361 H 0.81997 0.46899 0.18827 0.0
H362 H 0.81423 0.42501 0.22716 0.0
H363 H 0.87082 0.52269 0.3654 0.0
H364 H 0.81426 0.55643 0.35618 0.0
H365 H 0.82051 0.54227 0.22478 0.0
C366 C 0.92719 0.44571 0.24837 0.0
C367 C 0.94067 0.42414 0.28037 0.0
C368 C 0.94046 0.43896 0.32109 0.0
C369 C 0.92368 0.4723 0.33035 0.0
C370 C 0.90733 0.49041 0.29846 0.0
C371 C 0.90998 0.47873 0.25813 0.0
C372 C 0.8838 0.49792 0.23038 0.0
C373 C 0.92173 0.53903 0.20174 0.0
C374 C 0.84099 0.45491 0.20619 0.0
C375 C 0.86361 0.51943 0.26165 0.0
C376 C 0.87814 0.51509 0.30063 0.0
C377 C 0.86032 0.52763 0.33498 0.0
C378 C 0.82759 0.54611 0.3294 0.0
C379 C 0.81299 0.55205 0.28973 0.0
C380 C 0.83145 0.53863 0.25543 0.0
H381 H 0.06575 0.50454 0.75894 0.0
H382 H 0.09742 0.46977 0.63842 0.0
H383 H 0.13472 0.55864 0.61836 0.0
H384 H 0.04288 0.60941 0.72732 0.0
H385 H 0.07407 0.645 0.77233 0.0
H386 H 0.04043 0.57742 0.77411 0.0
H387 H 0.12081 0.57973 0.80062 0.0
H388 H 0.15505 0.64709 0.79798 0.0
H389 H 0.17776 0.61154 0.77101 0.0
H390 H 0.17927 0.65227 0.61466 0.0
H391 H 0.22332 0.74386 0.62648 0.0
H392 H 0.16552 0.71715 0.75044 0.0
C393 C 0.07842 0.51541 0.72781 0.0
C394 C 0.07812 0.48057 0.69995 0.0
C395 C 0.09692 0.49616 0.65994 0.0
C396 C 0.1182 0.54645 0.64832 0.0
C397 C 0.12043 0.58057 0.67715 0.0
C398 C 0.10049 0.56569 0.71592 0.0
C399 C 0.11275 0.61045 0.74249 0.0
C400 C 0.06467 0.61058 0.75477 0.0
C401 C 0.14342 0.61228 0.78023 0.0
C402 C 0.14406 0.65261 0.71308 0.0
C403 C 0.14752 0.63473 0.67539 0.0
C404 C 0.17626 0.66681 0.64389 0.0
C405 C 0.20143 0.7187 0.65096 0.0
C406 C 0.19808 0.73773 0.68938 0.0
C407 C 0.16911 0.70397 0.72072 0.0
H408 H 0.41516 0.90054 0.66013 0.0
H409 H 0.45323 0.00806 0.75831 0.0
H410 H 0.50872 0.9805 0.78807 0.0
H411 H 0.39847 0.80539 0.71751 0.0
H412 H 0.42491 0.77849 0.6839 0.0
H413 H 0.39951 0.81501 0.66315 0.0
H414 H 0.48383 0.87525 0.62757 0.0
H415 H 0.50916 0.83768 0.64669 0.0
H416 H 0.54106 0.90407 0.65691 0.0
H417 H 0.54276 0.92807 0.81562 0.0
H418 H 0.56695 0.86507 0.83223 0.0
H419 H 0.50548 0.79089 0.71654 0.0
C420 C 0.43701 0.92006 0.68678 0.0
C421 C 0.42945 0.95615 0.70703 0.0
C422 C 0.45843 0.98043 0.7421 0.0
C423 C 0.48986 0.96477 0.75944 0.0
C424 C 0.49257 0.92562 0.74084 0.0
C425 C 0.46822 0.90467 0.70452 0.0
C426 C 0.47273 0.85956 0.69307 0.0
C427 C 0.42082 0.81184 0.68921 0.0
C428 C 0.50355 0.86977 0.65373 0.0
C429 C 0.50098 0.85677 0.7297 0.0
C430 C 0.51246 0.89539 0.75674 0.0
C431 C 0.5351 0.89838 0.79422 0.0
C432 C 0.54796 0.86193 0.80364 0.0
C433 C 0.53804 0.82297 0.77568 0.0
C434 C 0.51377 0.82029 0.73846 0.0
H435 H 0.26239 0.46564 0.81597 0.0
H436 H 0.26126 0.38093 0.71009 0.0
H437 H 0.35317 0.4179 0.7159 0.0
H438 H 0.37085 0.5763 0.78832 0.0
H439 H 0.39323 0.59422 0.83982 0.0
H440 H 0.32717 0.55536 0.83034 0.0
H441 H 0.32453 0.48898 0.88064 0.0
H442 H 0.39109 0.52738 0.88941 0.0
H443 H 0.36522 0.46357 0.87229 0.0
H444 H 0.44581 0.46891 0.73001 0.0
H445 H 0.53139 0.53961 0.74388 0.0
H446 H 0.47197 0.59265 0.83863 0.0
C447 C 0.28144 0.45437 0.79437 0.0
C448 C 0.25479 0.42029 0.76273 0.0
C449 C 0.28107 0.4072 0.7345 0.0
C450 C 0.33315 0.42747 0.73788 0.0
C451 C 0.35838 0.46091 0.76957 0.0
C452 C 0.33343 0.47483 0.79693 0.0
C453 C 0.36974 0.51607 0.82497 0.0
C454 C 0.36498 0.56326 0.82056 0.0
C455 C 0.36218 0.49789 0.86947 0.0
C456 C 0.41914 0.52441 0.80825 0.0
C457 C 0.41187 0.49121 0.77712 0.0
C458 C 0.45203 0.49447 0.75485 0.0
C459 C 0.50056 0.5343 0.76319 0.0
C460 C 0.50799 0.57036 0.79304 0.0
C461 C 0.46715 0.56429 0.81673 0.0
H462 H 0.2081 0.15641 0.24535 0.0
H463 H 0.23011 0.17366 0.11442 0.0
H464 H 0.19466 0.23046 0.11385 0.0
H465 H 0.09351 0.15107 0.25005 0.0
H466 H 0.10721 0.18569 0.29711 0.0
H467 H 0.13755 0.15038 0.28591 0.0
H468 H 0.22424 0.23099 0.2957 0.0
H469 H 0.19389 0.26682 0.30598 0.0
H470 H 0.23988 0.28607 0.26579 0.0
H471 H 0.14679 0.27739 0.1281 0.0
H472 H 0.0892 0.30492 0.15493 0.0
H473 H 0.10716 0.26155 0.27666 0.0
C474 C 0.20548 0.17202 0.21645 0.0
C475 C 0.22095 0.16004 0.17982 0.0
C476 C 0.21795 0.18212 0.14279 0.0
C477 C 0.1983 0.21467 0.14228 0.0
C478 C 0.18337 0.22572 0.17922 0.0
C479 C 0.18729 0.20517 0.21559 0.0
C480 C 0.16685 0.22048 0.25103 0.0
C481 C 0.12373 0.17417 0.27222 0.0
C482 C 0.20873 0.25303 0.28141 0.0
C483 C 0.1483 0.25093 0.22886 0.0
C484 C 0.15862 0.25439 0.18751 0.0
C485 C 0.13967 0.276 0.16054 0.0
C486 C 0.10742 0.29205 0.17602 0.0
C487 C 0.09449 0.28586 0.2179 0.0
C488 C 0.11733 0.26753 0.24465 0.0
H489 H 0.92878 0.77674 0.2148 0.0
H490 H 0.93939 0.75885 0.34504 0.0
H491 H 0.03158 0.79684 0.33858 0.0
H492 H 0.02992 0.75506 0.18207 0.0
H493 H 0.0515 0.80302 0.14331 0.0
H494 H 0.98609 0.76908 0.1574 0.0
H495 H 0.9886 0.85265 0.17373 0.0
H496 H 0.05342 0.88661 0.15868 0.0
H497 H 0.03535 0.89638 0.20861 0.0
H498 H 0.1229 0.84024 0.31798 0.0
H499 H 0.20569 0.89951 0.28797 0.0
H500 H 0.13435 0.89183 0.17228 0.0
C501 C 0.95047 0.78037 0.24191 0.0
C502 C 0.92717 0.76466 0.28035 0.0
C503 C 0.95674 0.7709 0.3153 0.0
C504 C 0.00892 0.79174 0.31182 0.0
C505 C 0.0307 0.80629 0.27324 0.0
C506 C 0.0024 0.80168 0.23906 0.0
C507 C 0.03502 0.82536 0.20198 0.0
C508 C 0.02502 0.78575 0.16926 0.0
C509 C 0.02768 0.86777 0.18478 0.0
C510 C 0.08637 0.84542 0.22079 0.0
C511 C 0.08318 0.8327 0.26163 0.0
C512 C 0.12588 0.84983 0.28593 0.0
C513 C 0.17277 0.88296 0.26856 0.0
C514 C 0.17604 0.89918 0.22773 0.0
C515 C 0.13265 0.87876 0.20326 0.0
H516 H 0.82074 0.03557 0.21693 0.0
H517 H 0.87261 0.08927 0.3398 0.0
H518 H 0.8207 0.00382 0.36643 0.0
H519 H 0.69199 0.93557 0.24445 0.0
H520 H 0.6917 0.89213 0.20757 0.0
H521 H 0.7275 0.95868 0.19787 0.0
H522 H 0.80834 0.95357 0.18796 0.0
H523 H 0.77239 0.88703 0.19653 0.0
H524 H 0.82699 0.92535 0.22733 0.0
H525 H 0.77051 0.91402 0.37982 0.0
H526 H 0.73645 0.82266 0.37736 0.0
H527 H 0.71628 0.8241 0.24674 0.0
C528 C 0.8208 0.02922 0.24943 0.0
C529 C 0.85068 0.06905 0.27625 0.0
C530 C 0.85038 0.05931 0.31855 0.0
C531 C 0.82036 0.011 0.33413 0.0
C532 C 0.79092 0.97265 0.30709 0.0
C533 C 0.79151 0.98083 0.26555 0.0
C534 C 0.76117 0.9318 0.24282 0.0
C535 C 0.71537 0.92942 0.22195 0.0
C536 C 0.7942 0.92398 0.21187 0.0
C537 C 0.7453 0.89485 0.27799 0.0
C538 C 0.76163 0.91953 0.3149 0.0
C539 C 0.75646 0.89408 0.35134 0.0
C540 C 0.73678 0.84225 0.34977 0.0
C541 C 0.7226 0.81673 0.31209 0.0
C542 C 0.72484 0.84281 0.27605 0.0
H543 H 0.09223 0.16183 0.73311 0.0
H544 H 0.18504 0.25391 0.83323 0.0
H545 H 0.24249 0.22068 0.82265 0.0
H546 H 0.10636 0.05482 0.75106 0.0
H547 H 0.10733 0.04326 0.69728 0.0
H548 H 0.0734 0.0727 0.71555 0.0
H549 H 0.12442 0.14692 0.66574 0.0
H550 H 0.1598 0.1185 0.64843 0.0
H551 H 0.19199 0.18128 0.66875 0.0
H552 H 0.28965 0.1763 0.79995 0.0
H553 H 0.31621 0.11857 0.77208 0.0
H554 H 0.19541 0.06431 0.68353 0.0
C555 C 0.12407 0.17455 0.75343 0.0
C556 C 0.13403 0.21032 0.78408 0.0
C557 C 0.17649 0.22618 0.80967 0.0
C558 C 0.20958 0.20794 0.80364 0.0
C559 C 0.19973 0.17445 0.77171 0.0
C560 C 0.15767 0.15767 0.74738 0.0
C561 C 0.15521 0.12208 0.7149 0.0
C562 C 0.1078 0.07016 0.72003 0.0
C563 C 0.15804 0.14351 0.67192 0.0
C564 C 0.20221 0.12078 0.72495 0.0
C565 C 0.2277 0.15118 0.75768 0.0
C566 C 0.2703 0.15277 0.77402 0.0
C567 C 0.28547 0.12034 0.75774 0.0
C568 C 0.25782 0.08715 0.72567 0.0
C569 C 0.21742 0.08947 0.70793 0.0
H570 H 0.05015 0.88164 0.7129 0.0
H571 H 0.06725 0.77347 0.78575 0.0
H572 H 0.97661 0.72987 0.80234 0.0
H573 H 0.96455 0.89123 0.77955 0.0
H574 H 0.92929 0.89814 0.73871 0.0
H575 H -0.00518 0.91899 0.73177 0.0
H576 H 0.9734 0.86275 0.66756 0.0
H577 H 0.90775 0.84161 0.67438 0.0
H578 H 0.92865 0.7966 0.67152 0.0
H579 H 0.88287 0.69884 0.81121 0.0
H580 H 0.79669 0.68614 0.81365 0.0
H581 H 0.84498 0.81607 0.73513 0.0
C582 C 0.03492 0.84859 0.73212 0.0
C583 C 0.06564 0.83084 0.74789 0.0
C584 C 0.04429 0.78779 0.77339 0.0
C585 C -0.00712 0.76268 0.78285 0.0
C586 C 0.96362 0.7813 0.7667 0.0
C587 C 0.9841 0.82345 0.74203 0.0
C588 C 0.94552 0.83729 0.72958 0.0
C589 C 0.95938 0.88949 0.74589 0.0
C590 C 0.93842 0.83435 0.683 0.0
C591 C 0.89999 0.79629 0.75098 0.0
C592 C 0.91073 0.7641 0.77216 0.0
C593 C 0.87404 0.72381 0.79466 0.0
C594 C 0.82525 0.7168 0.7958 0.0
C595 C 0.81411 0.75017 0.77475 0.0
C596 C 0.85208 0.78991 0.7518 0.0
H597 H 0.88892 0.16258 0.70551 0.0
H598 H 0.85865 0.21328 0.81913 0.0
H599 H 0.78731 0.1279 0.83206 0.0
H600 H 0.75238 0.05615 0.68258 0.0
H601 H 0.77658 0.0177 0.6634 0.0
H602 H 0.81185 0.08479 0.65633 0.0
H603 H 0.88838 0.08656 0.69049 0.0
H604 H 0.85329 0.0202 0.69932 0.0
H605 H 0.88244 0.06238 0.74159 0.0
H606 H 0.73684 0.0354 0.84125 0.0
H607 H 0.70475 0.9445 0.84324 0.0
H608 H 0.77092 0.95313 0.72441 0.0
C609 C 0.86483 0.15621 0.73161 0.0
C610 C 0.87788 0.19426 0.76083 0.0
C611 C 0.8478 0.18479 0.79584 0.0
C612 C 0.8076 0.13626 0.8035 0.0
C613 C 0.79822 0.09826 0.77563 0.0
C614 C 0.82528 0.108 0.73977 0.0
C615 C 0.81435 0.05999 0.71844 0.0
C616 C 0.78715 0.05432 0.67778 0.0
C617 C 0.86247 0.05717 0.71215 0.0
C618 C 0.77983 0.02172 0.74928 0.0
C619 C 0.77002 0.04439 0.78154 0.0
C620 C 0.74316 0.01717 0.81563 0.0
C621 C 0.7256 0.96553 0.81665 0.0
C622 C 0.73544 0.94157 0.78396 0.0
C623 C 0.76249 0.97019 0.74973 0.0
loop_
_geom_bond_atom_site_label_1
_geom_bond_atom_site_label_2
_geom_bond_distance
_geom_bond_site_symmetry_2
_ccdc_geom_bond_type
O0 Zn1 1.953 . S
O0 C16 1.225 . S
Zn1 O0 1.953 . S
Zn1 O2 1.949 . S
Zn1 O8 1.919 . S
Zn1 O13 1.924 . S
O2 Zn1 1.949 . S
O2 Zn3 1.923 . S
O2 Zn4 1.950 . S
O2 Zn5 1.945 . S
Zn3 O2 1.923 . S
Zn3 O6 1.933 1_545 S
Zn3 O9 1.941 . S
Zn3 O10 1.965 . S
Zn4 O2 1.950 . S
Zn4 O11 1.938 . S
Zn4 O12 1.906 . S
Zn4 O22 1.953 . S
Zn5 O2 1.945 . S
Zn5 O7 1.932 1_545 S
Zn5 O14 1.977 . S
Zn5 O15 1.910 . S
O6 Zn3 1.933 1_565 S
O6 C17 1.226 . S
O7 Zn5 1.932 1_565 S
O7 C17 1.307 . S
O8 Zn1 1.919 . S
O8 C19 1.253 . S
O9 Zn3 1.941 . S
O9 C19 1.283 . S
O10 Zn3 1.965 . S
O10 C18 1.303 . S
O11 Zn4 1.938 . S
O11 C18 1.247 . S
O12 Zn4 1.906 . S
O12 C20 1.304 . S
O13 Zn1 1.924 . S
O13 C21 1.311 . S
O14 Zn5 1.977 . S
O14 C20 1.272 . S
O15 Zn5 1.910 . S
O15 C21 1.231 . S
C16 O0 1.225 . S
C16 O22 1.298 . S
C17 O6 1.226 . S
C17 O7 1.307 . S
C18 O10 1.303 . S
C18 O11 1.247 . S
C19 O8 1.253 . S
C19 O9 1.283 . S
C20 O12 1.304 . S
C20 O14 1.272 . S
C21 O13 1.311 . S
C21 O15 1.231 . S
O22 Zn4 1.953 . S
O22 C16 1.298 . S
O23 Zn24 1.953 . S
O23 C39 1.225 . S
Zn24 O23 1.953 . S
Zn24 O25 1.949 . S
Zn24 O31 1.919 . S
Zn24 O36 1.924 . S
O25 Zn24 1.949 . S
O25 Zn26 1.923 . S
O25 Zn27 1.950 . S
O25 Zn28 1.945 . S
Zn26 O25 1.923 . S
Zn26 O29 1.933 . S
Zn26 O32 1.941 . S
Zn26 O33 1.965 . S
Zn27 O25 1.950 . S
Zn27 O34 1.938 . S
Zn27 O35 1.906 . S
Zn27 O45 1.953 . S
Zn28 O25 1.945 . S
Zn28 O30 1.932 . S
Zn28 O37 1.977 . S
Zn28 O38 1.910 . S
O29 Zn26 1.933 . S
O29 C40 1.226 . S
O30 Zn28 1.932 . S
O30 C40 1.307 . S
O31 Zn24 1.919 . S
O31 C42 1.253 . S
O32 Zn26 1.941 . S
O32 C42 1.283 . S
O33 Zn26 1.965 . S
O33 C41 1.303 . S
O34 Zn27 1.938 . S
O34 C41 1.247 . S
O35 Zn27 1.906 . S
O35 C43 1.304 . S
O36 Zn24 1.924 . S
O36 C44 1.311 . S
O37 Zn28 1.977 . S
O37 C43 1.272 . S
O38 Zn28 1.910 . S
O38 C44 1.231 . S
C39 O23 1.225 . S
C39 O45 1.298 . S
C40 O29 1.226 . S
C40 O30 1.307 . S
C41 O33 1.303 . S
C41 O34 1.247 . S
C42 O31 1.253 . S
C42 O32 1.283 . S
C43 O35 1.304 . S
C43 O37 1.272 . S
C44 O36 1.311 . S
C44 O38 1.231 . S
O45 Zn27 1.953 . S
O45 C39 1.298 . S
O46 Zn47 1.953 . S
O46 C62 1.225 . S
Zn47 O46 1.953 . S
Zn47 O48 1.949 . S
Zn47 O54 1.919 . S
Zn47 O59 1.924 . S
O48 Zn47 1.949 . S
O48 Zn49 1.923 . S
O48 Zn50 1.950 . S
O48 Zn51 1.945 . S
Zn49 O48 1.923 . S
Zn49 O52 1.933 1_655 S
Zn49 O55 1.941 . S
Zn49 O56 1.965 . S
Zn50 O48 1.950 . S
Zn50 O57 1.938 . S
Zn50 O58 1.906 . S
Zn50 O68 1.953 . S
Zn51 O48 1.945 . S
Zn51 O53 1.932 1_655 S
Zn51 O60 1.977 . S
Zn51 O61 1.910 . S
O52 Zn49 1.933 1_455 S
O52 C63 1.226 . S
O53 Zn51 1.932 1_455 S
O53 C63 1.307 . S
O54 Zn47 1.919 . S
O54 C65 1.253 . S
O55 Zn49 1.941 . S
O55 C65 1.283 . S
O56 Zn49 1.965 . S
O56 C64 1.303 . S
O57 Zn50 1.938 . S
O57 C64 1.247 . S
O58 Zn50 1.906 . S
O58 C66 1.304 . S
O59 Zn47 1.924 . S
O59 C67 1.311 . S
O60 Zn51 1.977 . S
O60 C66 1.272 . S
O61 Zn51 1.910 . S
O61 C67 1.231 . S
C62 O46 1.225 . S
C62 O68 1.298 . S
C63 O52 1.226 . S
C63 O53 1.307 . S
C64 O56 1.303 . S
C64 O57 1.247 . S
C65 O54 1.253 . S
C65 O55 1.283 . S
C66 O58 1.304 . S
C66 O60 1.272 . S
C67 O59 1.311 . S
C67 O61 1.231 . S
O68 Zn50 1.953 . S
O68 C62 1.298 . S
O69 Zn70 1.953 . S
O69 C85 1.225 . S
Zn70 O69 1.953 . S
Zn70 O71 1.949 . S
Zn70 O77 1.919 . S
Zn70 O82 1.924 . S
O71 Zn70 1.949 . S
O71 Zn72 1.923 . S
O71 Zn73 1.950 . S
O71 Zn74 1.945 . S
Zn72 O71 1.923 . S
Zn72 O75 1.933 1_455 S
Zn72 O78 1.941 . S
Zn72 O79 1.965 . S
Zn73 O71 1.950 . S
Zn73 O80 1.938 . S
Zn73 O81 1.906 . S
Zn73 O91 1.953 . S
Zn74 O71 1.945 . S
Zn74 O76 1.932 1_455 S
Zn74 O83 1.977 . S
Zn74 O84 1.910 . S
O75 Zn72 1.933 1_655 S
O75 C86 1.226 . S
O76 Zn74 1.932 1_655 S
O76 C86 1.307 . S
O77 Zn70 1.919 . S
O77 C88 1.253 . S
O78 Zn72 1.941 . S
O78 C88 1.283 . S
O79 Zn72 1.965 . S
O79 C87 1.303 . S
O80 Zn73 1.938 . S
O80 C87 1.247 . S
O81 Zn73 1.906 . S
O81 C89 1.304 . S
O82 Zn70 1.924 . S
O82 C90 1.311 . S
O83 Zn74 1.977 . S
O83 C89 1.272 . S
O84 Zn74 1.910 . S
O84 C90 1.231 . S
C85 O69 1.225 . S
C85 O91 1.298 . S
C86 O75 1.226 . S
C86 O76 1.307 . S
C87 O79 1.303 . S
C87 O80 1.247 . S
C88 O77 1.253 . S
C88 O78 1.283 . S
C89 O81 1.304 . S
C89 O83 1.272 . S
C90 O82 1.311 . S
C90 O84 1.231 . S
O91 Zn73 1.953 . S
O91 C85 1.298 . S
O92 Zn93 1.953 . S
O92 C108 1.225 . S
Zn93 O92 1.953 . S
Zn93 O94 1.949 . S
Zn93 O100 1.919 . S
Zn93 O105 1.924 . S
O94 Zn93 1.949 . S
O94 Zn95 1.923 . S
O94 Zn96 1.950 . S
O94 Zn97 1.945 . S
Zn95 O94 1.923 . S
Zn95 O98 1.933 1_565 S
Zn95 O101 1.941 . S
Zn95 O102 1.965 . S
Zn96 O94 1.950 . S
Zn96 O103 1.938 . S
Zn96 O104 1.906 . S
Zn96 O114 1.953 . S
Zn97 O94 1.945 . S
Zn97 O99 1.932 1_565 S
Zn97 O106 1.977 . S
Zn97 O107 1.910 . S
O98 Zn95 1.933 1_545 S
O98 C109 1.226 . S
O99 Zn97 1.932 1_545 S
O99 C109 1.307 . S
O100 Zn93 1.919 . S
O100 C111 1.253 . S
O101 Zn95 1.941 . S
O101 C111 1.283 . S
O102 Zn95 1.965 . S
O102 C110 1.303 . S
O103 Zn96 1.938 . S
O103 C110 1.247 . S
O104 Zn96 1.906 . S
O104 C112 1.304 . S
O105 Zn93 1.924 . S
O105 C113 1.311 . S
O106 Zn97 1.977 . S
O106 C112 1.272 . S
O107 Zn97 1.910 . S
O107 C113 1.231 . S
C108 O92 1.225 . S
C108 O114 1.298 . S
C109 O98 1.226 . S
C109 O99 1.307 . S
C110 O102 1.303 . S
C110 O103 1.247 . S
C111 O100 1.253 . S
C111 O101 1.283 . S
C112 O104 1.304 . S
C112 O106 1.272 . S
C113 O105 1.311 . S
C113 O107 1.231 . S
O114 Zn96 1.953 . S
O114 C108 1.298 . S
O115 Zn116 1.953 . S
O115 C131 1.225 . S
Zn116 O115 1.953 . S
Zn116 O117 1.949 . S
Zn116 O123 1.919 . S
Zn116 O128 1.924 . S
O117 Zn116 1.949 . S
O117 Zn118 1.923 . S
O117 Zn119 1.950 . S
O117 Zn120 1.945 . S
Zn118 O117 1.923 . S
Zn118 O121 1.933 . S
Zn118 O124 1.941 . S
Zn118 O125 1.965 . S
Zn119 O117 1.950 . S
Zn119 O126 1.938 . S
Zn119 O127 1.906 . S
Zn119 O137 1.953 . S
Zn120 O117 1.945 . S
Zn120 O122 1.932 . S
Zn120 O129 1.977 . S
Zn120 O130 1.910 . S
O121 Zn118 1.933 . S
O121 C132 1.226 . S
O122 Zn120 1.932 . S
O122 C132 1.307 . S
O123 Zn116 1.919 . S
O123 C134 1.253 . S
O124 Zn118 1.941 . S
O124 C134 1.283 . S
O125 Zn118 1.965 . S
O125 C133 1.303 . S
O126 Zn119 1.938 . S
O126 C133 1.247 . S
O127 Zn119 1.906 . S
O127 C135 1.304 . S
O128 Zn116 1.924 . S
O128 C136 1.311 . S
O129 Zn120 1.977 . S
O129 C135 1.272 . S
O130 Zn120 1.910 . S
O130 C136 1.231 . S
C131 O115 1.225 . S
C131 O137 1.298 . S
C132 O121 1.226 . S
C132 O122 1.307 . S
C133 O125 1.303 . S
C133 O126 1.247 . S
C134 O123 1.253 . S
C134 O124 1.283 . S
C135 O127 1.304 . S
C135 O129 1.272 . S
C136 O128 1.311 . S
C136 O130 1.231 . S
O137 Zn119 1.953 . S
O137 C131 1.298 . S
H138 C150 0.930 1_545 S
H139 C152 0.930 . S
H140 C153 0.930 . S
H141 C157 0.959 . S
H142 C157 0.959 . S
H143 C157 0.961 . S
H144 C158 0.960 . S
H145 C158 0.961 . S
H146 C158 0.959 . S
H147 C161 0.929 . S
H148 C162 0.931 1_565 S
H149 C164 0.930 . S
C150 H138 0.930 1_565 S
C150 C151 1.399 . S
C150 C155 1.399 1_565 S
C151 C150 1.399 . S
C151 C152 1.376 . S
C152 H139 0.930 . S
C152 C151 1.376 . S
C152 C153 1.388 . S
C153 H140 0.930 . S
C153 C152 1.388 . S
C153 C154 1.390 . S
C154 C153 1.390 . S
C154 C155 1.394 1_565 S
C154 C160 1.465 1_556 S
C155 C150 1.399 1_545 S
C155 C154 1.394 1_545 S
C155 C156 1.516 . S
C156 C155 1.516 . S
C156 C157 1.502 . S
C156 C158 1.561 . S
C156 C159 1.526 1_556 S
C157 H141 0.959 . S
C157 H142 0.959 . S
C157 H143 0.961 . S
C157 C156 1.502 . S
C158 H144 0.960 . S
C158 H145 0.961 . S
C158 H146 0.959 . S
C158 C156 1.561 . S
C159 C156 1.526 1_554 S
C159 C160 1.396 1_545 S
C159 C164 1.390 . S
C160 C154 1.465 1_554 S
C160 C159 1.396 1_565 S
C160 C161 1.399 . S
C161 H147 0.929 . S
C161 C160 1.399 . S
C161 C162 1.385 1_565 S
C162 H148 0.931 1_545 S
C162 C161 1.385 1_545 S
C162 C163 1.389 . S
C163 C162 1.389 . S
C163 C164 1.387 . S
C164 H149 0.930 . S
C164 C159 1.390 . S
C164 C163 1.387 . S
H165 C177 0.930 . S
H166 C179 0.930 . S
H167 C180 0.930 . S
H168 C184 0.959 . S
H169 C184 0.959 . S
H170 C184 0.961 . S
H171 C185 0.960 . S
H172 C185 0.961 . S
H173 C185 0.959 . S
H174 C188 0.929 . S
H175 C189 0.931 . S
H176 C191 0.930 . S
C177 H165 0.930 . S
C177 C178 1.399 . S
C177 C182 1.399 . S
C178 C177 1.399 . S
C178 C179 1.376 . S
C179 H166 0.930 . S
C179 C178 1.376 . S
C179 C180 1.388 . S
C180 H167 0.930 . S
C180 C179 1.388 . S
C180 C181 1.390 . S
C181 C180 1.390 . S
C181 C182 1.394 . S
C181 C187 1.465 . S
C182 C177 1.399 . S
C182 C181 1.394 . S
C182 C183 1.516 . S
C183 C182 1.516 . S
C183 C184 1.502 . S
C183 C185 1.561 . S
C183 C186 1.526 . S
C184 H168 0.959 . S
C184 H169 0.959 . S
C184 H170 0.961 . S
C184 C183 1.502 . S
C185 H171 0.960 . S
C185 H172 0.961 . S
C185 H173 0.959 . S
C185 C183 1.561 . S
C186 C183 1.526 . S
C186 C187 1.396 . S
C186 C191 1.390 . S
C187 C181 1.465 . S
C187 C186 1.396 . S
C187 C188 1.399 . S
C188 H174 0.929 . S
C188 C187 1.399 . S
C188 C189 1.385 . S
C189 H175 0.931 . S
C189 C188 1.385 . S
C189 C190 1.389 . S
C190 C189 1.389 . S
C190 C191 1.387 . S
C191 H176 0.930 . S
C191 C186 1.390 . S
C191 C190 1.387 . S
H192 C204 0.930 . S
H193 C206 0.940 . S
H194 C207 0.930 . S
H195 C211 0.959 . S
H196 C211 0.959 . S
H197 C211 0.961 . S
H198 C212 0.960 . S
H199 C212 0.961 . S
H200 C212 0.959 . S
H201 C215 0.929 . S
H202 C216 0.931 . S
H203 C218 0.930 1_655 S
C204 H192 0.930 . S
C204 C205 1.399 . S
C204 C209 1.399 . S
C205 C204 1.399 . S
C205 C206 1.355 1_655 S
C206 H193 0.940 . S
C206 C205 1.355 1_455 S
C206 C207 1.401 . S
C207 H194 0.930 . S
C207 C206 1.401 . S
C207 C208 1.390 . S
C208 C207 1.390 . S
C208 C209 1.394 1_455 S
C208 C214 1.465 1_554 S
C209 C204 1.399 . S
C209 C208 1.394 1_655 S
C209 C210 1.516 1_554 S
C210 C209 1.516 1_556 S
C210 C211 1.502 . S
C210 C212 1.561 . S
C210 C213 1.526 . S
C211 H195 0.959 . S
C211 H196 0.959 . S
C211 H197 0.961 . S
C211 C210 1.502 . S
C212 H198 0.960 . S
C212 H199 0.961 . S
C212 H200 0.959 . S
C212 C210 1.561 . S
C213 C210 1.526 . S
C213 C214 1.396 1_655 S
C213 C218 1.390 1_655 S
C214 C208 1.465 1_556 S
C214 C213 1.396 1_455 S
C214 C215 1.399 . S
C215 H201 0.929 . S
C215 C214 1.399 . S
C215 C216 1.385 . S
C216 H202 0.931 . S
C216 C215 1.385 . S
C216 C217 1.389 . S
C217 C216 1.389 . S
C217 C218 1.387 . S
C218 H203 0.930 1_455 S
C218 C213 1.390 1_455 S
C218 C217 1.387 . S
H219 C231 0.930 . S
H220 C233 0.930 . S
H221 C234 0.930 . S
H222 C238 0.959 . S
H223 C238 0.959 . S
H224 C238 0.961 . S
H225 C239 0.960 . S
H226 C239 0.961 . S
H227 C239 0.959 . S
H228 C242 0.929 . S
H229 C243 0.931 . S
H230 C245 0.930 1_545 S
C231 H219 0.930 . S
C231 C232 1.399 . S
C231 C236 1.399 . S
C232 C231 1.399 . S
C232 C233 1.376 1_545 S
C233 H220 0.930 . S
C233 C232 1.376 1_565 S
C233 C234 1.388 . S
C234 H221 0.930 . S
C234 C233 1.388 . S
C234 C235 1.390 . S
C235 C234 1.390 . S
C235 C236 1.394 1_565 S
C235 C241 1.465 . S
C236 C231 1.399 . S
C236 C235 1.394 1_545 S
C236 C237 1.516 . S
C237 C236 1.516 . S
C237 C238 1.502 . S
C237 C239 1.561 . S
C237 C240 1.526 . S
C238 H222 0.959 . S
C238 H223 0.959 . S
C238 H224 0.961 . S
C238 C237 1.502 . S
C239 H225 0.960 . S
C239 H226 0.961 . S
C239 H227 0.959 . S
C239 C237 1.561 . S
C240 C237 1.526 . S
C240 C241 1.396 1_545 S
C240 C245 1.390 1_545 S
C241 C235 1.465 . S
C241 C240 1.396 1_565 S
C241 C242 1.399 . S
C242 H228 0.929 . S
C242 C241 1.399 . S
C242 C243 1.385 . S
C243 H229 0.931 . S
C243 C242 1.385 . S
C243 C244 1.389 . S
C244 C243 1.389 . S
C244 C245 1.387 . S
C245 H230 0.930 1_565 S
C245 C240 1.390 1_565 S
C245 C244 1.387 . S
H246 C258 0.930 . S
H247 C260 0.930 . S
H248 C261 0.930 . S
H249 C265 0.959 1_554 S
H250 C265 0.959 1_554 S
H251 C265 0.961 . S
H252 C266 0.960 . S
H253 C266 0.961 . S
H254 C266 0.959 . S
H255 C269 0.929 . S
H256 C270 0.931 . S
H257 C272 0.930 . S
C258 H246 0.930 . S
C258 C259 1.399 . S
C258 C263 1.399 . S
C259 C258 1.399 . S
C259 C260 1.376 . S
C260 H247 0.930 . S
C260 C259 1.376 . S
C260 C261 1.388 . S
C261 H248 0.930 . S
C261 C260 1.388 . S
C261 C262 1.390 . S
C262 C261 1.390 . S
C262 C263 1.394 . S
C262 C268 1.465 1_556 S
C263 C258 1.399 . S
C263 C262 1.394 . S
C263 C264 1.516 . S
C264 C263 1.516 . S
C264 C265 1.502 . S
C264 C266 1.561 . S
C264 C267 1.526 1_556 S
C265 H249 0.959 1_556 S
C265 H250 0.959 1_556 S
C265 H251 0.961 . S
C265 C264 1.502 . S
C266 H252 0.960 . S
C266 H253 0.961 . S
C266 H254 0.959 . S
C266 C264 1.561 . S
C267 C264 1.526 1_554 S
C267 C268 1.396 . S
C267 C272 1.390 . S
C268 C262 1.465 1_554 S
C268 C267 1.396 . S
C268 C269 1.399 . S
C269 H255 0.929 . S
C269 C268 1.399 . S
C269 C270 1.385 . S
C270 H256 0.931 . S
C270 C269 1.385 . S
C270 C271 1.389 . S
C271 C270 1.389 . S
C271 C272 1.387 . S
C272 H257 0.930 . S
C272 C267 1.390 . S
C272 C271 1.387 . S
H273 C285 0.930 1_455 S
H274 C287 0.930 . S
H275 C288 0.930 . S
H276 C292 0.959 . S
H277 C292 0.959 . S
H278 C292 0.961 . S
H279 C293 0.960 . S
H280 C293 0.961 . S
H281 C293 0.959 . S
H282 C296 0.929 . S
H283 C297 0.931 1_655 S
H284 C299 0.930 . S
C285 H273 0.930 1_655 S
C285 C286 1.399 . S
C285 C290 1.399 . S
C286 C285 1.399 . S
C286 C287 1.376 . S
C287 H274 0.930 . S
C287 C286 1.376 . S
C287 C288 1.388 . S
C288 H275 0.930 . S
C288 C287 1.388 . S
C288 C289 1.390 . S
C289 C288 1.390 . S
C289 C290 1.394 . S
C289 C295 1.465 . S
C290 C285 1.399 . S
C290 C289 1.394 . S
C290 C291 1.516 1_655 S
C291 C290 1.516 1_455 S
C291 C292 1.502 . S
C291 C293 1.561 . S
C291 C294 1.526 . S
C292 H276 0.959 . S
C292 H277 0.959 . S
C292 H278 0.961 . S
C292 C291 1.502 . S
C293 H279 0.960 . S
C293 H280 0.961 . S
C293 H281 0.959 . S
C293 C291 1.561 . S
C294 C291 1.526 . S
C294 C295 1.396 1_455 S
C294 C299 1.390 . S
C295 C289 1.465 . S
C295 C294 1.396 1_655 S
C295 C296 1.399 . S
C296 H282 0.929 . S
C296 C295 1.399 . S
C296 C297 1.385 1_655 S
C297 H283 0.931 1_455 S
C297 C296 1.385 1_455 S
C297 C298 1.389 . S
C298 C297 1.389 . S
C298 C299 1.387 . S
C299 H284 0.930 . S
C299 C294 1.390 . S
C299 C298 1.387 . S
H300 C312 0.930 . S
H301 C314 0.930 . S
H302 C315 0.930 . S
H303 C319 0.959 . S
H304 C319 0.959 . S
H305 C319 0.961 . S
H306 C320 0.960 . S
H307 C320 0.961 . S
H308 C320 0.959 . S
H309 C323 0.929 . S
H310 C324 0.931 . S
H311 C326 0.930 . S
C312 H300 0.930 . S
C312 C313 1.399 . S
C312 C317 1.399 . S
C313 C312 1.399 . S
C313 C314 1.376 . S
C314 H301 0.930 . S
C314 C313 1.376 . S
C314 C315 1.388 . S
C315 H302 0.930 . S
C315 C314 1.388 . S
C315 C316 1.390 . S
C316 C315 1.390 . S
C316 C317 1.394 . S
C316 C322 1.465 . S
C317 C312 1.399 . S
C317 C316 1.394 . S
C317 C318 1.516 . S
C318 C317 1.516 . S
C318 C319 1.502 . S
C318 C320 1.561 . S
C318 C321 1.526 . S
C319 H303 0.959 . S
C319 H304 0.959 . S
C319 H305 0.961 . S
C319 C318 1.502 . S
C320 H306 0.960 . S
C320 H307 0.961 . S
C320 H308 0.959 . S
C320 C318 1.561 . S
C321 C318 1.526 . S
C321 C322 1.396 . S
C321 C326 1.390 . S
C322 C316 1.465 . S
C322 C321 1.396 . S
C322 C323 1.399 . S
C323 H309 0.929 . S
C323 C322 1.399 . S
C323 C324 1.385 . S
C324 H310 0.931 . S
C324 C323 1.385 . S
C324 C325 1.389 . S
C325 C324 1.389 . S
C325 C326 1.387 . S
C326 H311 0.930 . S
C326 C321 1.390 . S
C326 C325 1.387 . S
H327 C339 0.930 . S
H328 C341 0.930 . S
H329 C342 0.930 . S
H330 C346 0.959 . S
H331 C346 0.959 . S
H332 C346 0.961 . S
H333 C347 0.960 . S
H334 C347 0.961 . S
H335 C347 0.959 . S
H336 C350 0.929 . S
H337 C351 0.931 . S
H338 C353 0.930 . S
C339 H327 0.930 . S
C339 C340 1.399 . S
C339 C344 1.399 . S
C340 C339 1.399 . S
C340 C341 1.376 . S
C341 H328 0.930 . S
C341 C340 1.376 . S
C341 C342 1.388 . S
C342 H329 0.930 . S
C342 C341 1.388 . S
C342 C343 1.390 . S
C343 C342 1.390 . S
C343 C344 1.394 . S
C343 C349 1.465 . S
C344 C339 1.399 . S
C344 C343 1.394 . S
C344 C345 1.516 . S
C345 C344 1.516 . S
C345 C346 1.502 . S
C345 C347 1.561 . S
C345 C348 1.526 . S
C346 H330 0.959 . S
C346 H331 0.959 . S
C346 H332 0.961 . S
C346 C345 1.502 . S
C347 H333 0.960 . S
C347 H334 0.961 . S
C347 H335 0.959 . S
C347 C345 1.561 . S
C348 C345 1.526 . S
C348 C349 1.396 . S
C348 C353 1.390 . S
C349 C343 1.465 . S
C349 C348 1.396 . S
C349 C350 1.399 . S
C350 H336 0.929 . S
C350 C349 1.399 . S
C350 C351 1.385 . S
C351 H337 0.931 . S
C351 C350 1.385 . S
C351 C352 1.389 . S
C352 C351 1.389 . S
C352 C353 1.387 . S
C353 H338 0.930 . S
C353 C348 1.390 . S
C353 C352 1.387 . S
H354 C366 0.930 . S
H355 C368 0.930 . S
H356 C369 0.930 . S
H357 C373 0.959 . S
H358 C373 0.959 . S
H359 C373 0.961 . S
H360 C374 0.960 . S
H361 C374 0.961 . S
H362 C374 0.959 . S
H363 C377 0.929 . S
H364 C378 0.931 . S
H365 C380 0.930 . S
C366 H354 0.930 . S
C366 C367 1.399 . S
C366 C371 1.399 . S
C367 C366 1.399 . S
C367 C368 1.376 . S
C368 H355 0.930 . S
C368 C367 1.376 . S
C368 C369 1.388 . S
C369 H356 0.930 . S
C369 C368 1.388 . S
C369 C370 1.390 . S
C370 C369 1.390 . S
C370 C371 1.394 . S
C370 C376 1.465 . S
C371 C366 1.399 . S
C371 C370 1.394 . S
C371 C372 1.516 . S
C372 C371 1.516 . S
C372 C373 1.502 . S
C372 C374 1.561 . S
C372 C375 1.526 . S
C373 H357 0.959 . S
C373 H358 0.959 . S
C373 H359 0.961 . S
C373 C372 1.502 . S
C374 H360 0.960 . S
C374 H361 0.961 . S
C374 H362 0.959 . S
C374 C372 1.561 . S
C375 C372 1.526 . S
C375 C376 1.396 . S
C375 C380 1.390 . S
C376 C370 1.465 . S
C376 C375 1.396 . S
C376 C377 1.399 . S
C377 H363 0.929 . S
C377 C376 1.399 . S
C377 C378 1.385 . S
C378 H364 0.931 . S
C378 C377 1.385 . S
C378 C379 1.389 . S
C379 C378 1.389 . S
C379 C380 1.387 . S
C380 H365 0.930 . S
C380 C375 1.390 . S
C380 C379 1.387 . S
H381 C393 0.930 . S
H382 C395 0.930 . S
H383 C396 0.930 . S
H384 C400 0.959 . S
H385 C400 0.959 . S
H386 C400 0.961 . S
H387 C401 0.960 . S
H388 C401 0.961 . S
H389 C401 0.959 . S
H390 C404 0.929 . S
H391 C405 0.931 . S
H392 C407 0.930 . S
C393 H381 0.930 . S
C393 C394 1.399 . S
C393 C398 1.399 . S
C394 C393 1.399 . S
C394 C395 1.376 . S
C395 H382 0.930 . S
C395 C394 1.376 . S
C395 C396 1.388 . S
C396 H383 0.930 . S
C396 C395 1.388 . S
C396 C397 1.390 . S
C397 C396 1.390 . S
C397 C398 1.394 . S
C397 C403 1.465 . S
C398 C393 1.399 . S
C398 C397 1.394 . S
C398 C399 1.516 . S
C399 C398 1.516 . S
C399 C400 1.502 . S
C399 C401 1.561 . S
C399 C402 1.526 . S
C400 H384 0.959 . S
C400 H385 0.959 . S
C400 H386 0.961 . S
C400 C399 1.502 . S
C401 H387 0.960 . S
C401 H388 0.961 . S
C401 H389 0.959 . S
C401 C399 1.561 . S
C402 C399 1.526 . S
C402 C403 1.396 . S
C402 C407 1.390 . S
C403 C397 1.465 . S
C403 C402 1.396 . S
C403 C404 1.399 . S
C404 H390 0.929 . S
C404 C403 1.399 . S
C404 C405 1.385 . S
C405 H391 0.931 . S
C405 C404 1.385 . S
C405 C406 1.389 . S
C406 C405 1.389 . S
C406 C407 1.387 . S
C407 H392 0.930 . S
C407 C402 1.390 . S
C407 C406 1.387 . S
H408 C420 0.930 . S
H409 C422 0.930 . S
H410 C423 0.930 . S
H411 C427 0.959 . S
H412 C427 0.959 . S
H413 C427 0.961 . S
H414 C428 0.960 . S
H415 C428 0.961 . S
H416 C428 0.959 . S
H417 C431 0.929 . S
H418 C432 0.931 . S
H419 C434 0.930 . S
C420 H408 0.930 . S
C420 C421 1.399 . S
C420 C425 1.399 . S
C421 C420 1.399 . S
C421 C422 1.376 . S
C422 H409 0.930 . S
C422 C421 1.376 . S
C422 C423 1.388 . S
C423 H410 0.930 . S
C423 C422 1.388 . S
C423 C424 1.390 . S
C424 C423 1.390 . S
C424 C425 1.394 . S
C424 C430 1.465 . S
C425 C420 1.399 . S
C425 C424 1.394 . S
C425 C426 1.516 . S
C426 C425 1.516 . S
C426 C427 1.502 . S
C426 C428 1.561 . S
C426 C429 1.526 . S
C427 H411 0.959 . S
C427 H412 0.959 . S
C427 H413 0.961 . S
C427 C426 1.502 . S
C428 H414 0.960 . S
C428 H415 0.961 . S
C428 H416 0.959 . S
C428 C426 1.561 . S
C429 C426 1.526 . S
C429 C430 1.396 . S
C429 C434 1.390 . S
C430 C424 1.465 . S
C430 C429 1.396 . S
C430 C431 1.399 . S
C431 H417 0.929 . S
C431 C430 1.399 . S
C431 C432 1.385 . S
C432 H418 0.931 . S
C432 C431 1.385 . S
C432 C433 1.389 . S
C433 C432 1.389 . S
C433 C434 1.387 . S
C434 H419 0.930 . S
C434 C429 1.390 . S
C434 C433 1.387 . S
H435 C447 0.930 . S
H436 C449 0.930 . S
H437 C450 0.930 . S
H438 C454 0.959 . S
H439 C454 0.959 . S
H440 C454 0.961 . S
H441 C455 0.960 . S
H442 C455 0.961 . S
H443 C455 0.959 . S
H444 C458 0.929 . S
H445 C459 0.931 . S
H446 C461 0.930 . S
C447 H435 0.930 . S
C447 C448 1.399 . S
C447 C452 1.399 . S
C448 C447 1.399 . S
C448 C449 1.376 . S
C449 H436 0.930 . S
C449 C448 1.376 . S
C449 C450 1.388 . S
C450 H437 0.930 . S
C450 C449 1.388 . S
C450 C451 1.390 . S
C451 C450 1.390 . S
C451 C452 1.394 . S
C451 C457 1.465 . S
C452 C447 1.399 . S
C452 C451 1.394 . S
C452 C453 1.516 . S
C453 C452 1.516 . S
C453 C454 1.502 . S
C453 C455 1.561 . S
C453 C456 1.526 . S
C454 H438 0.959 . S
C454 H439 0.959 . S
C454 H440 0.961 . S
C454 C453 1.502 . S
C455 H441 0.960 . S
C455 H442 0.961 . S
C455 H443 0.959 . S
C455 C453 1.561 . S
C456 C453 1.526 . S
C456 C457 1.396 . S
C456 C461 1.390 . S
C457 C451 1.465 . S
C457 C456 1.396 . S
C457 C458 1.399 . S
C458 H444 0.929 . S
C458 C457 1.399 . S
C458 C459 1.385 . S
C459 H445 0.931 . S
C459 C458 1.385 . S
C459 C460 1.389 . S
C460 C459 1.389 . S
C460 C461 1.387 . S
C461 H446 0.930 . S
C461 C456 1.390 . S
C461 C460 1.387 . S
H462 C474 0.930 . S
H463 C476 0.930 . S
H464 C477 0.930 . S
H465 C481 0.959 . S
H466 C481 0.959 . S
H467 C481 0.961 . S
H468 C482 0.960 . S
H469 C482 0.961 . S
H470 C482 0.959 . S
H471 C485 0.929 . S
H472 C486 0.931 . S
H473 C488 0.930 . S
C474 H462 0.930 . S
C474 C475 1.399 . S
C474 C479 1.399 . S
C475 C474 1.399 . S
C475 C476 1.376 . S
C476 H463 0.930 . S
C476 C475 1.376 . S
C476 C477 1.388 . S
C477 H464 0.930 . S
C477 C476 1.388 . S
C477 C478 1.390 . S
C478 C477 1.390 . S
C478 C479 1.394 . S
C478 C484 1.465 . S
C479 C474 1.399 . S
C479 C478 1.394 . S
C479 C480 1.516 . S
C480 C479 1.516 . S
C480 C481 1.502 . S
C480 C482 1.561 . S
C480 C483 1.526 . S
C481 H465 0.959 . S
C481 H466 0.959 . S
C481 H467 0.961 . S
C481 C480 1.502 . S
C482 H468 0.960 . S
C482 H469 0.961 . S
C482 H470 0.959 . S
C482 C480 1.561 . S
C483 C480 1.526 . S
C483 C484 1.396 . S
C483 C488 1.390 . S
C484 C478 1.465 . S
C484 C483 1.396 . S
C484 C485 1.399 . S
C485 H471 0.929 . S
C485 C484 1.399 . S
C485 C486 1.385 . S
C486 H472 0.931 . S
C486 C485 1.385 . S
C486 C487 1.389 . S
C487 C486 1.389 . S
C487 C488 1.387 . S
C488 H473 0.930 . S
C488 C483 1.390 . S
C488 C487 1.387 . S
H489 C501 0.930 . S
H490 C503 0.930 . S
H491 C504 0.930 . S
H492 C508 0.959 . S
H493 C508 0.959 . S
H494 C508 0.961 . S
H495 C509 0.960 . S
H496 C509 0.961 . S
H497 C509 0.959 . S
H498 C512 0.929 . S
H499 C513 0.931 . S
H500 C515 0.930 . S
C501 H489 0.930 . S
C501 C502 1.399 . S
C501 C506 1.399 1_655 S
C502 C501 1.399 . S
C502 C503 1.376 . S
C503 H490 0.930 . S
C503 C502 1.376 . S
C503 C504 1.388 1_655 S
C504 H491 0.930 . S
C504 C503 1.388 1_455 S
C504 C505 1.390 . S
C505 C504 1.390 . S
C505 C506 1.394 . S
C505 C511 1.465 . S
C506 C501 1.399 1_455 S
C506 C505 1.394 . S
C506 C507 1.516 . S
C507 C506 1.516 . S
C507 C508 1.502 . S
C507 C509 1.561 . S
C507 C510 1.526 . S
C508 H492 0.959 . S
C508 H493 0.959 . S
C508 H494 0.961 . S
C508 C507 1.502 . S
C509 H495 0.960 . S
C509 H496 0.961 . S
C509 H497 0.959 . S
C509 C507 1.561 . S
C510 C507 1.526 . S
C510 C511 1.396 . S
C510 C515 1.390 . S
C511 C505 1.465 . S
C511 C510 1.396 . S
C511 C512 1.399 . S
C512 H498 0.929 . S
C512 C511 1.399 . S
C512 C513 1.385 . S
C513 H499 0.931 . S
C513 C512 1.385 . S
C513 C514 1.389 . S
C514 C513 1.389 . S
C514 C515 1.387 . S
C515 H500 0.930 . S
C515 C510 1.390 . S
C515 C514 1.387 . S
H516 C528 0.930 . S
H517 C530 0.930 . S
H518 C531 0.930 . S
H519 C535 0.959 . S
H520 C535 0.959 . S
H521 C535 0.961 . S
H522 C536 0.960 . S
H523 C536 0.961 . S
H524 C536 0.959 . S
H525 C539 0.929 . S
H526 C540 0.931 . S
H527 C542 0.930 . S
C528 H516 0.930 . S
C528 C529 1.399 . S
C528 C533 1.399 1_545 S
C529 C528 1.399 . S
C529 C530 1.376 . S
C530 H517 0.930 . S
C530 C529 1.376 . S
C530 C531 1.388 1_545 S
C531 H518 0.930 . S
C531 C530 1.388 1_565 S
C531 C532 1.390 . S
C532 C531 1.390 . S
C532 C533 1.394 . S
C532 C538 1.465 . S
C533 C528 1.399 1_565 S
C533 C532 1.394 . S
C533 C534 1.516 . S
C534 C533 1.516 . S
C534 C535 1.502 . S
C534 C536 1.561 . S
C534 C537 1.526 . S
C535 H519 0.959 . S
C535 H520 0.959 . S
C535 H521 0.961 . S
C535 C534 1.502 . S
C536 H522 0.960 . S
C536 H523 0.961 . S
C536 H524 0.959 . S
C536 C534 1.561 . S
C537 C534 1.526 . S
C537 C538 1.396 . S
C537 C542 1.390 . S
C538 C532 1.465 . S
C538 C537 1.396 . S
C538 C539 1.399 . S
C539 H525 0.929 . S
C539 C538 1.399 . S
C539 C540 1.385 . S
C540 H526 0.931 . S
C540 C539 1.385 . S
C540 C541 1.389 . S
C541 C540 1.389 . S
C541 C542 1.387 . S
C542 H527 0.930 . S
C542 C537 1.390 . S
C542 C541 1.387 . S
H543 C555 0.930 . S
H544 C557 0.930 . S
H545 C558 0.930 . S
H546 C562 0.959 . S
H547 C562 0.959 . S
H548 C562 0.961 . S
H549 C563 0.960 . S
H550 C563 0.961 . S
H551 C563 0.959 . S
H552 C566 0.929 . S
H553 C567 0.931 . S
H554 C569 0.930 . S
C555 H543 0.930 . S
C555 C556 1.399 . S
C555 C560 1.399 . S
C556 C555 1.399 . S
C556 C557 1.376 . S
C557 H544 0.930 . S
C557 C556 1.376 . S
C557 C558 1.388 . S
C558 H545 0.930 . S
C558 C557 1.388 . S
C558 C559 1.390 . S
C559 C558 1.390 . S
C559 C560 1.394 . S
C559 C565 1.465 . S
C560 C555 1.399 . S
C560 C559 1.394 . S
C560 C561 1.516 . S
C561 C560 1.516 . S
C561 C562 1.502 . S
C561 C563 1.561 . S
C561 C564 1.526 . S
C562 H546 0.959 . S
C562 H547 0.959 . S
C562 H548 0.961 . S
C562 C561 1.502 . S
C563 H549 0.960 . S
C563 H550 0.961 . S
C563 H551 0.959 . S
C563 C561 1.561 . S
C564 C561 1.526 . S
C564 C565 1.396 . S
C564 C569 1.390 . S
C565 C559 1.465 . S
C565 C564 1.396 . S
C565 C566 1.399 . S
C566 H552 0.929 . S
C566 C565 1.399 . S
C566 C567 1.385 . S
C567 H553 0.931 . S
C567 C566 1.385 . S
C567 C568 1.389 . S
C568 C567 1.389 . S
C568 C569 1.387 . S
C569 H554 0.930 . S
C569 C564 1.390 . S
C569 C568 1.387 . S
H570 C582 0.930 . S
H571 C584 0.930 . S
H572 C585 0.930 . S
H573 C589 0.959 . S
H574 C589 0.959 . S
H575 C589 0.961 . S
H576 C590 0.960 . S
H577 C590 0.961 . S
H578 C590 0.959 . S
H579 C593 0.929 . S
H580 C594 0.931 . S
H581 C596 0.930 . S
C582 H570 0.930 . S
C582 C583 1.399 . S
C582 C587 1.399 1_455 S
C583 C582 1.399 . S
C583 C584 1.376 . S
C584 H571 0.930 . S
C584 C583 1.376 . S
C584 C585 1.388 1_455 S
C585 H572 0.930 . S
C585 C584 1.388 1_655 S
C585 C586 1.390 . S
C586 C585 1.390 . S
C586 C587 1.394 . S
C586 C592 1.465 . S
C587 C582 1.399 1_655 S
C587 C586 1.394 . S
C587 C588 1.516 . S
C588 C587 1.516 . S
C588 C589 1.502 . S
C588 C590 1.561 . S
C588 C591 1.526 . S
C589 H573 0.959 . S
C589 H574 0.959 . S
C589 H575 0.961 . S
C589 C588 1.502 . S
C590 H576 0.960 . S
C590 H577 0.961 . S
C590 H578 0.959 . S
C590 C588 1.561 . S
C591 C588 1.526 . S
C591 C592 1.396 . S
C591 C596 1.390 . S
C592 C586 1.465 . S
C592 C591 1.396 . S
C592 C593 1.399 . S
C593 H579 0.929 . S
C593 C592 1.399 . S
C593 C594 1.385 . S
C594 H580 0.931 . S
C594 C593 1.385 . S
C594 C595 1.389 . S
C595 C594 1.389 . S
C595 C596 1.387 . S
C596 H581 0.930 . S
C596 C591 1.390 . S
C596 C595 1.387 . S
H597 C609 0.930 . S
H598 C611 0.930 . S
H599 C612 0.930 . S
H600 C616 0.959 . S
H601 C616 0.959 . S
H602 C616 0.961 . S
H603 C617 0.960 . S
H604 C617 0.961 . S
H605 C617 0.959 . S
H606 C620 0.936 1_545 S
H607 C621 0.931 . S
H608 C623 0.930 . S
C609 H597 0.930 . S
C609 C610 1.399 . S
C609 C614 1.399 . S
C610 C609 1.399 . S
C610 C611 1.376 . S
C611 H598 0.930 . S
C611 C610 1.376 . S
C611 C612 1.388 . S
C612 H599 0.930 . S
C612 C611 1.388 . S
C612 C613 1.390 . S
C613 C612 1.390 . S
C613 C614 1.394 . S
C613 C619 1.465 . S
C614 C609 1.399 . S
C614 C613 1.394 . S
C614 C615 1.516 . S
C615 C614 1.516 . S
C615 C616 1.502 . S
C615 C617 1.561 . S
C615 C618 1.526 . S
C616 H600 0.959 . S
C616 H601 0.959 . S
C616 H602 0.961 . S
C616 C615 1.502 . S
C617 H603 0.960 . S
C617 H604 0.961 . S
C617 H605 0.959 . S
C617 C615 1.561 . S
C618 C615 1.526 . S
C618 C619 1.396 . S
C618 C623 1.390 1_545 S
C619 C613 1.465 . S
C619 C618 1.396 . S
C619 C620 1.378 1_545 S
C620 H606 0.936 1_565 S
C620 C619 1.378 1_565 S
C620 C621 1.400 . S
C621 H607 0.931 . S
C621 C620 1.400 . S
C621 C622 1.389 . S
C622 C621 1.389 . S
C622 C623 1.387 . S
C623 H608 0.930 . S
C623 C618 1.390 1_565 S
C623 C622 1.387 . S
C151 C111 1.754 . S
C163 C19 1.748 . S
C178 C135 1.753 . S
C190 C43 1.758 . S
C205 C65 1.736 . S
C217 C88 1.745 . S
C232 C20 1.748 . S
C244 C112 1.754 . S
C259 C134 1.757 . S
C271 C42 1.755 . S
C286 C66 1.754 . S
C298 C89 1.749 . S
C313 C18 1.171 . S
C325 C62 1.229 . S
C340 C41 1.238 . S
C352 C16 1.217 . S
C367 C64 1.175 . S
C379 C39 1.233 . S
C394 C87 1.173 . S
C406 C108 1.232 . S
C421 C110 1.233 . S
C433 C131 1.215 . S
C448 C85 1.226 . S
C460 C133 1.176 . S
C475 C21 0.889 . S
C487 C63 0.904 . S
C502 C44 0.861 . S
C514 C17 0.830 . S
C529 C67 0.842 . S
C541 C40 0.805 . S
C556 C90 0.870 . S
C568 C109 0.842 . S
C583 C113 0.890 . S
C595 C132 0.875 . S
C610 C86 0.793 . S
C622 C136 0.826 . S
