# Generated by pormake.
# Topology ume, (4)-cn, num edge types: 1
# Building blocks:
#     Node 0, Type 0, BuildingBlock: KUFVIS_clean_sbu_0, # of connection points: 4
#     Node 1, Type 0, BuildingBlock: KUFVIS_clean_sbu_0, # of connection points: 4
#     Node 2, Type 0, BuildingBlock: KUFVIS_clean_sbu_0, # of connection points: 4
#     Node 3, Type 0, BuildingBlock: KUFVIS_clean_sbu_0, # of connection points: 4
#     Node 4, Type 0, BuildingBlock: KUFVIS_clean_sbu_0, # of connection points: 4
#     Node 5, Type 0, BuildingBlock: KUFVIS_clean_sbu_0, # of connection points: 4
#     Node 6, Type 0, BuildingBlock: KUFVIS_clean_sbu_0, # of connection points: 4
#     Node 7, Type 0, BuildingBlock: KUFVIS_clean_sbu_0, # of connection points: 4
#     Node 8, Type 0, BuildingBlock: KUFVIS_clean_sbu_0, # of connection points: 4
#     Node 9, Type 0, BuildingBlock: KUFVIS_clean_sbu_0, # of connection points: 4
#     Node 10, Type 0, BuildingBlock: KUFVIS_clean_sbu_0, # of connection points: 4
#     Node 11, Type 0, BuildingBlock: KUFVIS_clean_sbu_0, # of connection points: 4
#     Node 12, Type 0, BuildingBlock: KUFVIS_clean_sbu_0, # of connection points: 4
#     Node 13, Type 0, BuildingBlock: KUFVIS_clean_sbu_0, # of connection points: 4
#     Node 14, Type 0, BuildingBlock: KUFVIS_clean_sbu_0, # of connection points: 4
#     Node 15, Type 0, BuildingBlock: KUFVIS_clean_sbu_0, # of connection points: 4
#     Edge 16, Type (0, 0), BuildingBlock: EZIPEK_clean_linker_0, # of connection points: 2
#     Edge 17, Type (0, 0), BuildingBlock: EZIPEK_clean_linker_0, # of connection points: 2
#     Edge 18, Type (0, 0), BuildingBlock: EZIPEK_clean_linker_0, # of connection points: 2
#     Edge 19, Type (0, 0), BuildingBlock: EZIPEK_clean_linker_0, # of connection points: 2
#     Edge 20, Type (0, 0), BuildingBlock: EZIPEK_clean_linker_0, # of connection points: 2
#     Edge 21, Type (0, 0), BuildingBlock: EZIPEK_clean_linker_0, # of connection points: 2
#     Edge 22, Type (0, 0), BuildingBlock: EZIPEK_clean_linker_0, # of connection points: 2
#     Edge 23, Type (0, 0), BuildingBlock: EZIPEK_clean_linker_0, # of connection points: 2
#     Edge 24, Type (0, 0), BuildingBlock: EZIPEK_clean_linker_0, # of connection points: 2
#     Edge 25, Type (0, 0), BuildingBlock: EZIPEK_clean_linker_0, # of connection points: 2
#     Edge 26, Type (0, 0), BuildingBlock: EZIPEK_clean_linker_0, # of connection points: 2
#     Edge 27, Type (0, 0), BuildingBlock: EZIPEK_clean_linker_0, # of connection points: 2
#     Edge 28, Type (0, 0), BuildingBlock: EZIPEK_clean_linker_0, # of connection points: 2
#     Edge 29, Type (0, 0), BuildingBlock: EZIPEK_clean_linker_0, # of connection points: 2
#     Edge 30, Type (0, 0), BuildingBlock: EZIPEK_clean_linker_0, # of connection points: 2
#     Edge 31, Type (0, 0), BuildingBlock: EZIPEK_clean_linker_0, # of connection points: 2
#     Edge 32, Type (0, 0), BuildingBlock: EZIPEK_clean_linker_0, # of connection points: 2
#     Edge 33, Type (0, 0), BuildingBlock: EZIPEK_clean_linker_0, # of connection points: 2
#     Edge 34, Type (0, 0), BuildingBlock: EZIPEK_clean_linker_0, # of connection points: 2
#     Edge 35, Type (0, 0), BuildingBlock: EZIPEK_clean_linker_0, # of connection points: 2
#     Edge 36, Type (0, 0), BuildingBlock: EZIPEK_clean_linker_0, # of connection points: 2
#     Edge 37, Type (0, 0), BuildingBlock: EZIPEK_clean_linker_0, # of connection points: 2
#     Edge 38, Type (0, 0), BuildingBlock: EZIPEK_clean_linker_0, # of connection points: 2
#     Edge 39, Type (0, 0), BuildingBlock: EZIPEK_clean_linker_0, # of connection points: 2
#     Edge 40, Type (0, 0), BuildingBlock: EZIPEK_clean_linker_0, # of connection points: 2
#     Edge 41, Type (0, 0), BuildingBlock: EZIPEK_clean_linker_0, # of connection points: 2
#     Edge 42, Type (0, 0), BuildingBlock: EZIPEK_clean_linker_0, # of connection points: 2
#     Edge 43, Type (0, 0), BuildingBlock: EZIPEK_clean_linker_0, # of connection points: 2
#     Edge 44, Type (0, 0), BuildingBlock: EZIPEK_clean_linker_0, # of connection points: 2
#     Edge 45, Type (0, 0), BuildingBlock: EZIPEK_clean_linker_0, # of connection points: 2
#     Edge 46, Type (0, 0), BuildingBlock: EZIPEK_clean_linker_0, # of connection points: 2
#     Edge 47, Type (0, 0), BuildingBlock: EZIPEK_clean_linker_0, # of connection points: 2
# Relax obj value: 0.108
# Max RMSD: 0.167
# Mean RMSD: 0.167
data_MOF--net-ume--node1-KUFVIS_clean_sbu_0--edge1-EZIPEK_clean_linker_0
_symmetry_space_group_name_H-M    P1
_symmetry_Int_Tables_number       1
_symmetry_cell_setting            triclinic
loop_
_symmetry_equiv_pos_as_xyz
'x, y, z'
_cell_length_a     19.384921
_cell_length_b     19.251781
_cell_length_c     84.35983
_cell_angle_alpha  90.024999
_cell_angle_beta   89.843903
_cell_angle_gamma 89.780673
loop_
_atom_site_label
_atom_site_type_symbol
_atom_site_fract_x
_atom_site_fract_y
_atom_site_fract_z
_atom_type_partial_charge
Mn0 Mn 0.25878 0.12008 0.31909 0.0
Mn1 Mn 0.24854 0.98208 0.3433 0.0
C2 C 0.3627 0.06921 0.32762 0.0
C3 C 0.25288 0.15192 0.29194 0.0
C4 C 0.23002 0.13347 0.35404 0.0
O5 O 0.15653 0.09456 0.31893 0.0
O6 O 0.16767 0.98864 0.3294 0.0
C7 C 0.26047 0.87731 0.31775 0.0
N8 N 0.28105 0.90209 0.33211 0.0
C9 C 0.3651 0.81078 0.33478 0.0
C10 C 0.34439 0.78378 0.32011 0.0
C11 C 0.29221 0.81756 0.3115 0.0
C12 C 0.33332 0.87192 0.34012 0.0
H13 H 0.22041 0.90318 0.31109 0.0
C14 C 0.1332 0.03445 0.322 0.0
O15 O 0.24264 0.19695 0.30321 0.0
O16 O 0.26529 0.08987 0.29679 0.0
N17 N 0.3196 0.96226 0.35826 0.0
C18 C 0.32131 0.98521 0.37359 0.0
C19 C 0.36457 0.95234 0.38461 0.0
C20 C 0.40408 0.89458 0.37999 0.0
C21 C 0.39692 0.86792 0.36464 0.0
C22 C 0.35201 0.90229 0.35424 0.0
H23 H 0.28886 0.02755 0.37751 0.0
O24 O 0.36163 0.12894 0.32061 0.0
O25 O 0.3027 0.03962 0.32883 0.0
O26 O 0.24751 0.1636 0.3411 0.0
O27 O 0.22003 0.06747 0.35537 0.0
C28 C 0.4295 0.80626 0.35956 0.0
C29 C 0.41477 0.77851 0.34448 0.0
H30 H 0.36787 0.73694 0.3154 0.0
H31 H 0.27615 0.7973 0.30013 0.0
H32 H 0.36583 0.97032 0.39672 0.0
H33 H 0.43704 0.869 0.38855 0.0
H34 H 0.46476 0.77895 0.36731 0.0
H35 H 0.43998 0.73095 0.34073 0.0
Mn36 Mn 0.86316 0.76098 0.56888 0.0
Mn37 Mn 0.01164 0.75723 0.58961 0.0
C38 C 0.91481 0.86509 0.57644 0.0
C39 C 0.81482 0.76244 0.54355 0.0
C40 C 0.86849 0.73461 0.60412 0.0
O41 O 0.8927 0.65886 0.56746 0.0
O42 O -0.00096 0.67248 0.57728 0.0
C43 C 0.10134 0.76209 0.56119 0.0
N44 N 0.08354 0.78745 0.57573 0.0
C45 C 0.1707 0.87567 0.57416 0.0
C46 C 0.19041 0.8502 0.55924 0.0
C47 C 0.15522 0.79343 0.55268 0.0
C48 C 0.11504 0.8438 0.58182 0.0
H49 H 0.07431 0.71856 0.55609 0.0
C50 C 0.95283 0.63594 0.57068 0.0
O51 O 0.77772 0.74478 0.55577 0.0
O52 O 0.87946 0.77382 0.54604 0.0
N53 N 0.03631 0.83439 0.60263 0.0
C54 C 0.02067 0.84218 0.61832 0.0
C55 C 0.05677 0.89069 0.62749 0.0
C56 C 0.11103 0.92843 0.62068 0.0
C57 C 0.1291 0.91686 0.60481 0.0
C58 C 0.09181 0.86698 0.59634 0.0
H59 H 0.98128 0.81099 0.62389 0.0
O60 O 0.85177 0.86398 0.57152 0.0
O61 O 0.94647 0.8059 0.57619 0.0
O62 O 0.83231 0.74622 0.59175 0.0
O63 O 0.93488 0.73093 0.60427 0.0
C64 C 0.18518 0.94994 0.59734 0.0
C65 C 0.20503 0.93037 0.58188 0.0
H66 H 0.23274 0.87352 0.55276 0.0
H67 H 0.16988 0.77362 0.54114 0.0
H68 H 0.0437 0.89795 0.63987 0.0
H69 H 0.13959 0.96476 0.62788 0.0
H70 H 0.21435 0.98943 0.6035 0.0
H71 H 0.2484 0.95593 0.57627 0.0
Mn72 Mn 0.22207 0.36729 0.81907 0.0
Mn73 Mn 0.23981 0.5071 0.84298 0.0
C74 C 0.12372 0.42744 0.82754 0.0
C75 C 0.22225 0.32097 0.79365 0.0
C76 C 0.24942 0.357 0.85439 0.0
O77 O 0.32466 0.3897 0.81742 0.0
O78 O 0.32528 0.49123 0.83061 0.0
C79 C 0.2463 0.61185 0.81732 0.0
N80 N 0.21696 0.58819 0.83095 0.0
C81 C 0.13441 0.68188 0.83096 0.0
C82 C 0.16389 0.70725 0.81693 0.0
C83 C 0.21994 0.67187 0.81005 0.0
C84 C 0.16173 0.62068 0.83741 0.0
H85 H 0.28925 0.58493 0.81203 0.0
C86 C 0.35437 0.44505 0.82201 0.0
O87 O 0.23541 0.28236 0.80589 0.0
O88 O 0.21064 0.38644 0.7961 0.0
N89 N 0.16333 0.53221 0.8562 0.0
C90 C 0.15106 0.50937 0.87126 0.0
C91 C 0.10234 0.54386 0.88079 0.0
C92 C 0.06833 0.60304 0.87501 0.0
C93 C 0.08473 0.62821 0.85988 0.0
C94 C 0.13484 0.59237 0.85106 0.0
H95 H 0.17877 0.46549 0.87607 0.0
O96 O 0.1193 0.36518 0.82178 0.0
O97 O 0.18551 0.45332 0.82775 0.0
O98 O 0.23474 0.32783 0.84128 0.0
O99 O 0.25886 0.42264 0.85601 0.0
C100 C 0.05581 0.68941 0.85356 0.0
C101 C 0.07988 0.71561 0.83896 0.0
H102 H 0.14428 0.7541 0.81141 0.0
H103 H 0.24302 0.69103 0.79921 0.0
H104 H 0.09203 0.52565 0.89267 0.0
H105 H 0.03082 0.62958 0.88241 0.0
H106 H 0.01598 0.71741 0.85996 0.0
H107 H 0.05765 0.76299 0.83425 0.0
Mn108 Mn 0.61267 0.72403 0.06922 0.0
Mn109 Mn 0.47065 0.74923 0.09194 0.0
C110 C 0.54919 0.62936 0.07782 0.0
C111 C 0.6581 0.71246 0.04363 0.0
C112 C 0.6176 0.75563 0.10455 0.0
O113 O 0.59303 0.82732 0.06653 0.0
O114 O 0.49072 0.833 0.07928 0.0
C115 C 0.36988 0.75703 0.06567 0.0
N116 N 0.39158 0.72718 0.0794 0.0
C117 C 0.2989 0.64439 0.07865 0.0
C118 C 0.2757 0.67425 0.06447 0.0
C119 C 0.31146 0.73077 0.05794 0.0
C120 C 0.35831 0.67191 0.08562 0.0
H121 H 0.39709 0.80032 0.06064 0.0
C122 C 0.53814 0.85933 0.07067 0.0
O123 O 0.69792 0.72782 0.0555 0.0
O124 O 0.59282 0.70846 0.04656 0.0
N125 N 0.4429 0.67338 0.10513 0.0
C126 C 0.46436 0.65954 0.1202 0.0
C127 C 0.43021 0.60889 0.12921 0.0
C128 C 0.37249 0.57495 0.12291 0.0
C129 C 0.34857 0.59317 0.1078 0.0
C130 C 0.38432 0.64474 0.09948 0.0
H131 H 0.50725 0.68696 0.12534 0.0
O132 O 0.61193 0.62155 0.07282 0.0
O133 O 0.52547 0.69232 0.07751 0.0
O134 O 0.64913 0.73907 0.09175 0.0
O135 O 0.55246 0.76726 0.10547 0.0
C136 C 0.28916 0.56406 0.10094 0.0
C137 C 0.26486 0.58905 0.08625 0.0
H138 H 0.23024 0.65455 0.05856 0.0
H139 H 0.2939 0.75419 0.047 0.0
H140 H 0.44799 0.59653 0.14104 0.0
H141 H 0.34612 0.53598 0.1299 0.0
H142 H 0.26117 0.52322 0.10696 0.0
H143 H 0.21888 0.56659 0.08113 0.0
Mn144 Mn 0.24833 0.35973 0.9514 0.0
Mn145 Mn 0.24584 0.49144 0.92453 0.0
C146 C 0.35096 0.41369 0.94439 0.0
C147 C 0.23971 0.31993 0.9773 0.0
C148 C 0.23676 0.33862 0.91582 0.0
O149 O 0.14692 0.38521 0.95034 0.0
O150 O 0.15634 0.47906 0.93462 0.0
C151 C 0.21635 0.61113 0.94553 0.0
N152 N 0.25581 0.58058 0.93409 0.0
C153 C 0.31152 0.68871 0.928 0.0
C154 C 0.27216 0.72129 0.93986 0.0
C155 C 0.2249 0.68212 0.94878 0.0
C156 C 0.30293 0.61722 0.9258 0.0
H157 H 0.17818 0.58166 0.95199 0.0
C158 C 0.1221 0.43871 0.94357 0.0
O159 O 0.22848 0.27898 0.96537 0.0
O160 O 0.25198 0.38479 0.97425 0.0
N161 N 0.3289 0.51222 0.91338 0.0
C162 C 0.35914 0.47397 0.9017 0.0
C163 C 0.40396 0.5061 0.89097 0.0
C164 C 0.41882 0.57707 0.89253 0.0
C165 C 0.38689 0.61577 0.90458 0.0
C166 C 0.34123 0.58114 0.91471 0.0
H167 H 0.34648 0.42018 0.90008 0.0
O168 O 0.34985 0.3534 0.95121 0.0
O169 O 0.29105 0.44329 0.94235 0.0
O170 O 0.24365 0.3124 0.92959 0.0
O171 O 0.23467 0.40362 0.91305 0.0
C172 C 0.39531 0.68808 0.90631 0.0
C173 C 0.35813 0.72445 0.91812 0.0
H174 H 0.27741 0.77639 0.94213 0.0
H175 H 0.194 0.70697 0.95787 0.0
H176 H 0.42491 0.47655 0.88116 0.0
H177 H 0.45276 0.60175 0.88407 0.0
H178 H 0.42956 0.71641 0.89851 0.0
H179 H 0.36529 0.77994 0.91939 0.0
Mn180 Mn 0.60385 0.74977 0.2033 0.0
Mn181 Mn 0.46364 0.72606 0.18023 0.0
C182 C 0.54169 0.84525 0.19461 0.0
C183 C 0.64664 0.75794 0.22905 0.0
C184 C 0.61152 0.71983 0.16791 0.0
O185 O 0.58474 0.64664 0.20561 0.0
O186 O 0.48316 0.64167 0.19278 0.0
C187 C 0.36233 0.71826 0.2065 0.0
N188 N 0.384 0.74797 0.19273 0.0
C189 C 0.29074 0.83082 0.19348 0.0
C190 C 0.26744 0.80101 0.20767 0.0
C191 C 0.30353 0.74458 0.21423 0.0
C192 C 0.35055 0.8033 0.18652 0.0
H193 H 0.38992 0.67509 0.21159 0.0
C194 C 0.53014 0.61501 0.20145 0.0
O195 O 0.68769 0.74396 0.21724 0.0
O196 O 0.58165 0.7633 0.22589 0.0
N197 N 0.43597 0.80214 0.16709 0.0
C198 C 0.45776 0.81591 0.15202 0.0
C199 C 0.42319 0.86618 0.14295 0.0
C200 C 0.36485 0.89994 0.1492 0.0
C201 C 0.34081 0.88198 0.16433 0.0
C202 C 0.37686 0.8306 0.1727 0.0
H203 H 0.50125 0.78868 0.14692 0.0
O204 O 0.60358 0.85247 0.20007 0.0
O205 O 0.51757 0.78256 0.19476 0.0
O206 O 0.64207 0.73572 0.18083 0.0
O207 O 0.54646 0.70834 0.16681 0.0
C208 C 0.28097 0.91107 0.17117 0.0
C209 C 0.25648 0.88615 0.18586 0.0
H210 H 0.2217 0.82075 0.21357 0.0
H211 H 0.28596 0.72129 0.22518 0.0
H212 H 0.44118 0.87846 0.13112 0.0
H213 H 0.33827 0.93876 0.14218 0.0
H214 H 0.25282 0.95188 0.16513 0.0
H215 H 0.2102 0.90862 0.19098 0.0
Mn216 Mn 0.22491 0.10844 0.4518 0.0
Mn217 Mn 0.23044 0.9811 0.42398 0.0
C218 C 0.12339 0.05313 0.44469 0.0
C219 C 0.23223 0.13842 0.47862 0.0
C220 C 0.23324 0.1355 0.41621 0.0
O221 O 0.32696 0.08763 0.45014 0.0
O222 O 0.32019 -0.00427 0.4338 0.0
C223 C 0.26515 0.8608 0.44435 0.0
N224 N 0.22404 0.89085 0.4332 0.0
C225 C 0.16877 0.78204 0.42757 0.0
C226 C 0.21006 0.74993 0.43908 0.0
C227 C 0.25797 0.78966 0.44763 0.0
C228 C 0.17647 0.85357 0.42526 0.0
H229 H 0.3035 0.89078 0.45059 0.0
C230 C 0.35328 0.03581 0.44301 0.0
O231 O 0.24051 0.18485 0.46759 0.0
O232 O 0.22474 0.07484 0.47396 0.0
N233 N 0.14745 0.95833 0.41318 0.0
C234 C 0.11499 -0.00366 0.40186 0.0
C235 C 0.06839 0.9638 0.39169 0.0
C236 C 0.05409 0.89278 0.39337 0.0
C237 C 0.08895 0.85421 0.40494 0.0
C238 C 0.13619 0.88922 0.41456 0.0
H239 H 0.12699 0.05031 0.40007 0.0
O240 O 0.12347 0.11171 0.45221 0.0
O241 O 0.18401 0.02565 0.44207 0.0
O242 O 0.22667 0.16012 0.43025 0.0
O243 O 0.23752 0.07083 0.41304 0.0
C244 C 0.08146 0.78182 0.40674 0.0
C245 C 0.12093 0.74583 0.41815 0.0
H246 H 0.20566 0.69479 0.44141 0.0
H247 H 0.29025 0.76522 0.45648 0.0
H248 H 0.04569 -0.00669 0.38225 0.0
H249 H 0.01815 0.86804 0.38538 0.0
H250 H 0.04593 0.75323 0.39934 0.0
H251 H 0.11439 0.6903 0.41951 0.0
Mn252 Mn 0.85077 0.72228 0.70411 0.0
Mn253 Mn 0.00196 0.73737 0.68431 0.0
C254 C 0.91178 0.62245 0.69783 0.0
C255 C 0.79688 0.72578 0.72872 0.0
C256 C 0.86033 0.74764 0.66871 0.0
O257 O 0.87249 0.8252 0.70543 0.0
O258 O 0.98165 0.82224 0.69648 0.0
C259 C 0.0898 0.73818 0.71297 0.0
N260 N 0.07441 0.71125 0.69849 0.0
C261 C 0.16399 0.62503 0.70091 0.0
C262 C 0.18113 0.65224 0.7158 0.0
C263 C 0.14364 0.70889 0.72188 0.0
C264 C 0.1087 0.65534 0.69277 0.0
H265 H 0.06084 0.78126 0.71773 0.0
C266 C 0.93091 0.8531 0.70305 0.0
O267 O 0.76191 0.73738 0.71585 0.0
O268 O 0.86225 0.714 0.72727 0.0
N269 N 0.03307 0.66169 0.67144 0.0
C270 C 0.02047 0.65293 0.65564 0.0
C271 C 0.05809 0.60316 0.647 0.0
C272 C 0.11081 0.56534 0.65446 0.0
C273 C 0.12721 0.57973 0.6703 0.0
C274 C 0.08831 0.63059 0.67821 0.0
H275 H 0.98173 0.68353 0.64965 0.0
O276 O 0.84788 0.61902 0.70228 0.0
O277 O 0.93868 0.68404 0.69768 0.0
O278 O 0.82348 0.73206 0.68079 0.0
O279 O 0.9257 0.7589 0.66919 0.0
C280 C 0.1825 0.54776 0.67831 0.0
C281 C 0.20021 0.5697 0.69373 0.0
H282 H 0.22314 0.63027 0.72262 0.0
H283 H 0.15629 0.73003 0.7334 0.0
H284 H 0.04679 0.59442 0.6346 0.0
H285 H 0.13981 0.52702 0.64778 0.0
H286 H 0.21249 0.50717 0.67263 0.0
H287 H 0.2431 0.54509 0.69975 0.0
Mn288 Mn 0.75713 0.62744 0.81987 0.0
Mn289 Mn 0.75118 0.48394 0.8416 0.0
C290 C 0.86452 0.57723 0.82647 0.0
C291 C 0.74439 0.66631 0.79378 0.0
C292 C 0.72832 0.63134 0.8542 0.0
O293 O 0.65469 0.59945 0.82151 0.0
O294 O 0.67788 0.48858 0.82547 0.0
C295 C 0.78126 0.38422 0.81572 0.0
N296 N 0.79344 0.40783 0.83068 0.0
C297 C 0.87951 0.31967 0.83499 0.0
C298 C 0.86745 0.29391 0.8197 0.0
C299 C 0.81853 0.32676 0.80997 0.0
C300 C 0.84257 0.37864 0.83984 0.0
H301 H 0.74363 0.40925 0.8082 0.0
C302 C 0.63485 0.53683 0.82276 0.0
O303 O 0.73127 0.70698 0.80574 0.0
O304 O 0.76195 0.60305 0.79705 0.0
N305 N 0.81704 0.46656 0.85797 0.0
C306 C 0.81389 0.49023 0.87323 0.0
C307 C 0.85475 0.45906 0.88496 0.0
C308 C 0.89697 0.40221 0.8811 0.0
C309 C 0.8957 0.37533 0.86568 0.0
C310 C 0.85333 0.40819 0.8545 0.0
H311 H 0.77892 0.53121 0.87664 0.0
O312 O 0.86082 0.63808 0.81997 0.0
O313 O 0.80515 0.54811 0.8288 0.0
O314 O 0.74935 0.66536 0.84214 0.0
O315 O 0.71267 0.56604 0.8538 0.0
C316 C 0.93238 0.31516 0.86118 0.0
C317 C 0.92561 0.28829 0.84572 0.0
H318 H 0.89522 0.24883 0.81534 0.0
H319 H 0.80917 0.30746 0.79812 0.0
H320 H 0.85186 0.47745 0.89704 0.0
H321 H 0.92778 0.37769 0.89022 0.0
H322 H 0.96522 0.28876 0.86961 0.0
H323 H 0.95447 0.24226 0.84237 0.0
Mn324 Mn 0.35461 0.26395 0.06727 0.0
Mn325 Mn 0.50178 0.25869 0.08732 0.0
C326 C 0.4036 0.37144 0.07381 0.0
C327 C 0.31082 0.25493 0.04165 0.0
C328 C 0.35848 0.23561 0.10156 0.0
O329 O 0.38444 0.16068 0.06838 0.0
O330 O 0.49456 0.18607 0.07102 0.0
C331 C 0.5944 0.29041 0.06031 0.0
N332 N 0.5743 0.30191 0.07559 0.0
C333 C 0.66272 0.38755 0.07916 0.0
C334 C 0.68494 0.37617 0.06354 0.0
C335 C 0.6501 0.32789 0.05402 0.0
C336 C 0.60509 0.35076 0.08455 0.0
H337 H 0.56797 0.25312 0.05296 0.0
C338 C 0.44733 0.14167 0.06922 0.0
O339 O 0.27284 0.23972 0.05389 0.0
O340 O 0.37455 0.27055 0.04431 0.0
N341 N 0.52195 0.32443 0.10363 0.0
C342 C 0.50186 0.32063 0.11914 0.0
C343 C 0.53399 0.36233 0.13055 0.0
C344 C 0.58989 0.4042 0.12619 0.0
C345 C 0.61397 0.40268 0.11052 0.0
C346 C 0.57885 0.36106 0.09957 0.0
H347 H 0.46242 0.28515 0.12294 0.0
O348 O 0.34224 0.36795 0.06784 0.0
O349 O 0.43441 0.31215 0.07543 0.0
O350 O 0.32159 0.25582 0.08992 0.0
O351 O 0.42318 0.21972 0.10035 0.0
C352 C 0.67344 0.43833 0.10551 0.0
C353 C 0.69669 0.43239 0.08973 0.0
H354 H 0.72885 0.4039 0.05877 0.0
H355 H 0.66663 0.31906 0.04192 0.0
H356 H 0.51675 0.36061 0.14274 0.0
H357 H 0.61554 0.43519 0.1351 0.0
H358 H 0.70273 0.46889 0.11382 0.0
H359 H 0.74224 0.46053 0.08601 0.0
Mn360 Mn 0.72209 0.86619 0.32008 0.0
Mn361 Mn 0.73884 0.00305 0.34482 0.0
C362 C 0.6233 0.92354 0.32962 0.0
C363 C 0.7164 0.82761 0.29387 0.0
C364 C 0.75197 0.85121 0.35525 0.0
O365 O 0.82468 0.88962 0.31808 0.0
O366 O 0.82248 0.98848 0.33216 0.0
C367 C 0.74336 0.10787 0.31918 0.0
N368 N 0.71548 0.08451 0.33303 0.0
C369 C 0.6339 0.17889 0.33362 0.0
C370 C 0.66205 0.2043 0.31945 0.0
C371 C 0.71676 0.16836 0.31215 0.0
C372 C 0.66114 0.11716 0.3398 0.0
H373 H 0.78525 0.08029 0.31349 0.0
C374 C 0.85265 0.94532 0.32303 0.0
O375 O 0.73168 0.78485 0.30527 0.0
O376 O 0.70818 0.89213 0.2977 0.0
N377 N 0.6636 0.02778 0.35839 0.0
C378 C 0.6536 0.00516 0.37356 0.0
C379 C 0.60692 0.04028 0.38349 0.0
C380 C 0.57255 0.09975 0.37799 0.0
C381 C 0.58695 0.12486 0.36275 0.0
C382 C 0.63526 0.08849 0.35353 0.0
H383 H 0.68188 0.96116 0.37815 0.0
O384 O 0.61947 0.86229 0.32336 0.0
O385 O 0.68463 0.95 0.32972 0.0
O386 O 0.73774 0.82297 0.34195 0.0
O387 O 0.75845 0.9171 0.35735 0.0
C388 C 0.55829 0.18679 0.35674 0.0
C389 C 0.58085 0.21312 0.34202 0.0
H390 H 0.64237 0.25154 0.31412 0.0
H391 H 0.7386 0.18743 0.30117 0.0
H392 H 0.59888 0.02264 0.3955 0.0
H393 H 0.53673 0.12685 0.38571 0.0
H394 H 0.52004 0.21539 0.36349 0.0
H395 H 0.5588 0.26102 0.33756 0.0
Mn396 Mn 0.11717 0.22183 0.56858 0.0
Mn397 Mn 0.9675 0.24686 0.58861 0.0
C398 C 0.05422 0.12647 0.57691 0.0
C399 C 0.16879 0.21003 0.5436 0.0
C400 C 0.10992 0.25539 0.60389 0.0
O401 O 0.09739 0.32445 0.56509 0.0
O402 O -0.0085 0.32923 0.57594 0.0
C403 C 0.87977 0.24919 0.55992 0.0
N404 N 0.89446 0.22245 0.57448 0.0
C405 C 0.80429 0.13751 0.57202 0.0
C406 C 0.78795 0.16447 0.55705 0.0
C407 C 0.826 0.22044 0.55096 0.0
C408 C 0.85936 0.16738 0.58024 0.0
H409 H 0.90924 0.29172 0.55514 0.0
C410 C 0.04068 0.35559 0.56794 0.0
O411 O 0.20568 0.22655 0.5559 0.0
O412 O 0.10319 0.20427 0.54582 0.0
N413 N 0.93365 0.17376 0.60179 0.0
C414 C 0.94514 0.16591 0.61766 0.0
C415 C 0.90692 0.11686 0.62629 0.0
C416 C 0.85495 0.07875 0.61871 0.0
C417 C 0.83944 0.09268 0.60279 0.0
C418 C 0.87877 0.14297 0.59491 0.0
H419 H 0.98372 0.19642 0.62367 0.0
O420 O 0.11806 0.11991 0.57264 0.0
O421 O 0.02845 0.1885 0.57578 0.0
O422 O 0.14615 0.23942 0.59167 0.0
O423 O 0.04436 0.26613 0.60364 0.0
C424 C 0.78455 0.06098 0.59466 0.0
C425 C 0.76757 0.08275 0.57918 0.0
H426 H 0.74611 0.14284 0.55017 0.0
H427 H 0.81391 0.24139 0.53939 0.0
H428 H 0.91742 0.10865 0.63874 0.0
H429 H 0.82571 0.04073 0.62536 0.0
H430 H 0.75421 0.02082 0.60032 0.0
H431 H 0.7249 0.05844 0.57308 0.0
Mn432 Mn 0.75625 0.86342 0.45207 0.0
Mn433 Mn 0.75083 -0.00805 0.42458 0.0
C434 C 0.85787 0.91927 0.44503 0.0
C435 C 0.74857 0.83191 0.4787 0.0
C436 C 0.74775 0.83762 0.41662 0.0
O437 O 0.65404 0.88371 0.45034 0.0
O438 O 0.66148 0.97767 0.43464 0.0
C439 C 0.7177 0.11191 0.44524 0.0
N440 N 0.75817 0.08192 0.4339 0.0
C441 C 0.81346 0.19063 0.42816 0.0
C442 C 0.7729 0.22268 0.43987 0.0
C443 C 0.72531 0.18296 0.44856 0.0
C444 C 0.80553 0.11912 0.42583 0.0
H445 H 0.67952 0.08196 0.45157 0.0
C446 C 0.62801 0.93648 0.44354 0.0
O447 O 0.74071 0.78602 0.46754 0.0
O448 O 0.75536 0.89591 0.47426 0.0
N449 N 0.83342 0.01449 0.41347 0.0
C450 C 0.86398 0.977 0.40173 0.0
C451 C 0.90895 0.00989 0.39119 0.0
C452 C 0.92401 0.08069 0.39298 0.0
C453 C 0.89113 0.11879 0.40497 0.0
C454 C 0.84501 0.08355 0.41489 0.0
H455 H 0.85137 0.92326 0.39986 0.0
O456 O 0.85779 0.86061 0.45251 0.0
O457 O 0.79725 0.94668 0.4425 0.0
O458 O 0.75545 0.81253 0.43054 0.0
O459 O 0.74273 0.90237 0.41359 0.0
C460 C 0.89902 0.1911 0.40684 0.0
C461 C 0.86066 0.22692 0.41853 0.0
H462 H 0.77755 0.27778 0.44223 0.0
H463 H 0.69356 0.20736 0.45757 0.0
H464 H 0.92981 0.98089 0.38138 0.0
H465 H 0.95871 0.10574 0.3847 0.0
H466 H 0.93382 0.21981 0.39924 0.0
H467 H 0.86737 0.28242 0.41991 0.0
Mn468 Mn 0.11071 0.25733 0.70409 0.0
Mn469 Mn 0.96218 0.25374 0.68377 0.0
C470 C 0.05672 0.36252 0.69844 0.0
C471 C 0.15767 0.24863 0.72949 0.0
C472 C 0.10543 0.23669 0.66885 0.0
O473 O 0.08488 0.15432 0.70306 0.0
O474 O 0.97439 0.16977 0.6966 0.0
C475 C 0.87183 0.2616 0.71205 0.0
N476 N 0.88962 0.28525 0.69739 0.0
C477 C 0.8004 0.37223 0.69817 0.0
C478 C 0.78063 0.34845 0.71321 0.0
C479 C 0.81688 0.29321 0.72024 0.0
C480 C 0.85713 0.34027 0.69085 0.0
H481 H 0.89964 0.2192 0.71751 0.0
C482 C 0.02426 0.13115 0.70088 0.0
O483 O 0.19515 0.23561 0.717 0.0
O484 O 0.09316 0.26178 0.72716 0.0
N485 N 0.93725 0.32965 0.67033 0.0
C486 C 0.95386 0.33634 0.65465 0.0
C487 C 0.91738 0.38346 0.64512 0.0
C488 C 0.86162 0.42077 0.65153 0.0
C489 C 0.84264 0.41031 0.66738 0.0
C490 C 0.88057 0.36199 0.67625 0.0
H491 H -0.00578 0.30529 0.64935 0.0
O492 O 0.11924 0.36118 0.70377 0.0
O493 O 0.02727 0.30261 0.69717 0.0
O494 O 0.14182 0.25137 0.68102 0.0
O495 O 0.03969 0.22639 0.66922 0.0
C496 C 0.78537 0.44333 0.67449 0.0
C497 C 0.76517 0.42535 0.69001 0.0
H498 H 0.73748 0.37193 0.71943 0.0
H499 H 0.80219 0.27473 0.73187 0.0
H500 H 0.93127 0.38984 0.63277 0.0
H501 H 0.83289 0.45617 0.64406 0.0
H502 H 0.7557 0.48166 0.66802 0.0
H503 H 0.72097 0.45093 0.69535 0.0
Mn504 Mn 0.71594 0.60512 0.95203 0.0
Mn505 Mn 0.72404 0.4798 0.9237 0.0
C506 C 0.61568 0.54865 0.94459 0.0
C507 C 0.72209 0.6353 0.9788 0.0
C508 C 0.72626 0.63473 0.91668 0.0
O509 O 0.81822 0.58537 0.95038 0.0
O510 O 0.8131 0.49315 0.93402 0.0
C511 C 0.75675 0.35656 0.94329 0.0
N512 N 0.71642 0.38844 0.93226 0.0
C513 C 0.66095 0.2808 0.92562 0.0
C514 C 0.70128 0.24685 0.93704 0.0
C515 C 0.74892 0.28506 0.94602 0.0
C516 C 0.66916 0.35258 0.92387 0.0
H517 H 0.79495 0.38541 0.94984 0.0
C518 C 0.84532 0.53369 0.94332 0.0
O519 O 0.73048 0.68158 0.96776 0.0
O520 O 0.71529 0.57145 0.97423 0.0
N521 N 0.64171 0.45901 0.91237 0.0
C522 C 0.61068 0.49856 0.90107 0.0
C523 C 0.56548 0.46763 0.89031 0.0
C524 C 0.55101 0.39646 0.89145 0.0
C525 C 0.58374 0.35638 0.90308 0.0
C526 C 0.62996 0.38987 0.91323 0.0
H527 H 0.62292 0.55256 0.89976 0.0
O528 O 0.61462 0.60687 0.95228 0.0
O529 O 0.67669 0.52223 0.94196 0.0
O530 O 0.71742 0.65818 0.93072 0.0
O531 O 0.73245 0.57047 0.91332 0.0
C532 C 0.57545 0.2839 0.9044 0.0
C533 C 0.61364 0.24618 0.91575 0.0
H534 H 0.69642 0.19145 0.93895 0.0
H535 H 0.78052 0.25917 0.95479 0.0
H536 H 0.5438 0.49836 0.88081 0.0
H537 H 0.51681 0.37276 0.88295 0.0
H538 H 0.54038 0.25656 0.89664 0.0
H539 H 0.60663 0.19055 0.91671 0.0
Mn540 Mn 0.34845 0.21421 0.20124 0.0
Mn541 Mn 0.49763 0.21544 0.18143 0.0
C542 C 0.3966 0.10561 0.19452 0.0
C543 C 0.30053 0.22341 0.22655 0.0
C544 C 0.35625 0.24357 0.16698 0.0
O545 O 0.3814 0.31595 0.20104 0.0
O546 O 0.49171 0.28839 0.19763 0.0
C547 C 0.58964 0.18126 0.20832 0.0
N548 N 0.56917 0.17016 0.1931 0.0
C549 C 0.65691 0.08321 0.18928 0.0
C550 C 0.67944 0.09409 0.20486 0.0
C551 C 0.64513 0.14281 0.21448 0.0
C552 C 0.59946 0.12095 0.18403 0.0
H553 H 0.56374 0.21907 0.21572 0.0
C554 C 0.44482 0.33292 0.20023 0.0
O555 O 0.26443 0.23921 0.2141 0.0
O556 O 0.36429 0.20607 0.22429 0.0
N557 N 0.51649 0.14908 0.16512 0.0
C558 C 0.4963 0.15328 0.14964 0.0
C559 C 0.52754 0.1108 0.13818 0.0
C560 C 0.58302 0.06789 0.14241 0.0
C561 C 0.6075 0.06914 0.15802 0.0
C562 C 0.57301 0.11133 0.16905 0.0
H563 H 0.45787 0.18999 0.14587 0.0
O564 O 0.33429 0.11069 0.19994 0.0
O565 O 0.42914 0.16407 0.19357 0.0
O566 O 0.31812 0.2246 0.1785 0.0
O567 O 0.42106 0.25748 0.16837 0.0
C568 C 0.66687 0.03272 0.16286 0.0
C569 C 0.69046 0.03809 0.17859 0.0
H570 H 0.72325 0.06567 0.20952 0.0
H571 H 0.66197 0.15132 0.22655 0.0
H572 H 0.50997 0.11281 0.12604 0.0
H573 H 0.60808 0.03636 0.13344 0.0
H574 H 0.69571 0.002 0.15441 0.0
H575 H 0.73591 0.00928 0.18218 0.0
C576 C 0.96443 0.96714 0.33531 0.0
C577 C 0.92731 0.95768 0.32113 0.0
C578 C 0.02684 0.00205 0.30618 0.0
C579 C 0.05889 0.01945 0.32076 0.0
N580 N 0.04686 0.03739 0.34887 0.0
N581 N 0.91956 0.97229 0.29283 0.0
C582 C 0.02414 0.00768 0.33519 0.0
C583 C 0.95747 0.97661 0.30639 0.0
N584 N 0.9431 0.93645 0.34903 0.0
N585 N 0.06279 0.00863 0.29234 0.0
H586 H 0.86959 0.95232 0.29271 0.0
H587 H 0.93632 -0.00833 0.28196 0.0
H588 H 0.11255 0.02913 0.29196 0.0
H589 H 0.04468 -0.0094 0.28149 0.0
H590 H 0.97451 0.9342 0.35903 0.0
H591 H 0.89839 0.90684 0.34971 0.0
H592 H 0.01651 0.03878 0.35907 0.0
H593 H 0.09083 0.06809 0.34929 0.0
C594 C 0.96307 0.52514 0.55422 0.0
C595 C 0.97181 0.56184 0.56871 0.0
C596 C 0.0524 0.47319 0.57771 0.0
C597 C 0.03397 0.43043 0.56497 0.0
N598 N 0.96954 0.41282 0.54102 0.0
N599 N 0.00797 0.55657 0.59621 0.0
C600 C -0.01149 0.45557 0.55313 0.0
C601 C 0.01154 0.53158 0.58106 0.0
N602 N 0.93323 0.55676 0.54147 0.0
N603 N 0.10815 0.45721 0.58681 0.0
H604 H 0.97373 0.59585 0.59956 0.0
H605 H 0.03268 0.53234 0.6057 0.0
H606 H 0.14045 0.41534 0.58411 0.0
H607 H 0.12619 0.49027 0.59567 0.0
H608 H 0.93139 0.53408 0.53027 0.0
H609 H 0.91501 0.60772 0.54177 0.0
H610 H 0.93075 0.42525 0.53297 0.0
H611 H -0.00857 0.36358 0.53954 0.0
C612 C 0.51588 0.53968 0.80947 0.0
C613 C 0.56062 0.51631 0.8218 0.0
C614 C 0.47616 0.42737 0.82915 0.0
C615 C 0.42832 0.45634 0.81856 0.0
N616 N 0.40135 0.53561 0.7976 0.0
N617 N 0.57187 0.45126 0.84628 0.0
C618 C 0.44808 0.51111 0.80833 0.0
C619 C 0.53758 0.46365 0.83242 0.0
N620 N 0.53786 0.58801 0.79878 0.0
N621 N 0.46285 0.3649 0.83611 0.0
H622 H 0.61323 0.48129 0.85007 0.0
H623 H 0.55374 0.41728 0.85493 0.0
H624 H 0.41926 0.33595 0.83324 0.0
H625 H 0.49873 0.33848 0.84307 0.0
H626 H 0.51155 0.60033 0.78841 0.0
H627 H 0.58356 0.61536 0.79997 0.0
H628 H 0.40771 0.58089 0.79104 0.0
H629 H 0.35466 0.51028 0.79554 0.0
C630 C 0.52164 0.04567 0.07968 0.0
C631 C 0.46955 0.06727 0.06875 0.0
C632 C 0.47655 0.95264 0.0559 0.0
C633 C 0.52887 0.93325 0.06672 0.0
N634 N 0.61562 0.96647 0.08541 0.0
N635 N 0.40079 0.04224 0.04556 0.0
C636 C 0.55646 0.98189 0.07734 0.0
C637 C 0.44783 0.02099 0.05656 0.0
N638 N 0.53454 0.08362 0.09303 0.0
N639 N 0.45411 0.90473 0.04516 0.0
H640 H 0.37367 0.0886 0.04647 0.0
H641 H 0.38918 0.01476 0.0353 0.0
H642 H 0.47918 0.85705 0.04362 0.0
H643 H 0.41069 0.91092 0.03807 0.0
H644 H 0.56708 0.06686 0.10206 0.0
H645 H 0.50673 0.12781 0.0961 0.0
H646 H 0.64236 0.00263 0.0922 0.0
H647 H 0.64208 0.91966 0.08388 0.0
C648 C 0.01745 0.47317 0.95935 0.0
C649 C 0.04865 0.45522 0.94467 0.0
C650 C 0.95563 0.51105 0.93036 0.0
C651 C 0.91909 0.51958 0.94471 0.0
N652 N 0.91041 0.49987 0.97296 0.0
N653 N 0.03822 0.44073 0.91634 0.0
C654 C 0.94852 0.49837 0.95932 0.0
C655 C 0.01459 0.46888 0.93021 0.0
N656 N 0.05411 0.46921 0.97312 0.0
N657 N 0.9342 0.54399 0.9169 0.0
H658 H 0.08085 0.40759 0.91587 0.0
H659 H 0.01132 0.44475 0.9057 0.0
H660 H 0.89108 0.57653 0.91676 0.0
H661 H 0.96298 0.5442 0.90644 0.0
H662 H 0.03566 0.48838 0.98389 0.0
H663 H 0.10505 0.45185 0.97355 0.0
H664 H 0.92737 0.47785 0.98354 0.0
H665 H 0.86003 0.51887 0.97343 0.0
C666 C 0.51693 0.43125 0.19061 0.0
C667 C 0.46798 0.40588 0.20183 0.0
C668 C 0.47253 0.51741 0.2158 0.0
C669 C 0.52272 0.54048 0.20477 0.0
N670 N 0.60967 0.51171 0.18554 0.0
N671 N 0.41185 0.41926 0.22727 0.0
C672 C 0.55095 0.49443 0.19357 0.0
C673 C 0.44919 0.44733 0.21511 0.0
N674 N 0.52785 0.39758 0.17656 0.0
N675 N 0.44731 0.56277 0.22684 0.0
H676 H 0.39576 0.36768 0.22736 0.0
H677 H 0.40179 0.44526 0.23785 0.0
H678 H 0.4683 0.61219 0.22837 0.0
H679 H 0.40479 0.55232 0.23401 0.0
H680 H 0.55802 0.41798 0.16745 0.0
H681 H 0.50065 0.35366 0.17317 0.0
H682 H 0.63605 0.47705 0.17818 0.0
H683 H 0.63608 0.55788 0.18765 0.0
C684 C 0.46279 0.00869 0.43018 0.0
C685 C 0.42666 0.01979 0.44449 0.0
C686 C 0.52334 0.97074 0.45931 0.0
C687 C 0.55429 0.95154 0.44469 0.0
N688 N 0.54291 0.93428 0.4165 0.0
N689 N 0.41701 0.00141 0.47278 0.0
C690 C 0.52028 0.96456 0.43021 0.0
C691 C 0.45525 -0.00174 0.45918 0.0
N692 N 0.44249 0.04116 0.41657 0.0
N693 N 0.55938 0.96539 0.47315 0.0
H694 H 0.36723 0.02195 0.4732 0.0
H695 H 0.4331 0.97923 0.48342 0.0
H696 H 0.60901 0.94458 0.47375 0.0
H697 H 0.54162 0.98594 0.48384 0.0
H698 H 0.47117 0.03921 0.4061 0.0
H699 H 0.40053 0.07516 0.41627 0.0
H700 H 0.5157 0.93755 0.40589 0.0
H701 H 0.58507 0.9005 0.41621 0.0
C702 C 0.0238 0.0145 0.71532 0.0
C703 C 0.00764 0.05594 0.70185 0.0
C704 C 0.9203 0.97236 0.69374 0.0
C705 C 0.94087 0.92756 0.70597 0.0
N706 N 0.00885 0.90405 0.72904 0.0
N707 N 0.95872 0.05989 0.67551 0.0
C708 C -0.00854 0.94845 0.71706 0.0
C709 C 0.96123 0.03043 0.69024 0.0
N710 N 0.06993 0.03757 0.72626 0.0
N711 N 0.86156 0.95932 0.68542 0.0
H712 H -0.00774 0.09933 0.67205 0.0
H713 H 0.9297 0.03936 0.66625 0.0
H714 H 0.82883 0.9184 0.68834 0.0
H715 H 0.84159 -0.00626 0.67705 0.0
H716 H 0.07719 0.01475 0.73731 0.0
H717 H 0.10219 0.07948 0.72416 0.0
H718 H 0.05039 0.91125 0.73663 0.0
H719 H 0.98117 0.85851 0.73114 0.0
C720 C 0.51943 0.97407 0.34378 0.0
C721 C 0.56036 0.96696 0.32997 0.0
C722 C 0.46696 0.01798 0.31451 0.0
C723 C 0.42953 0.03183 0.32866 0.0
N724 N 0.43689 0.04724 0.3569 0.0
N725 N 0.58016 0.00391 0.30299 0.0
C726 C 0.46097 0.01771 0.34336 0.0
C727 C 0.53646 -0.00418 0.31555 0.0
N728 N 0.53429 0.93996 0.35742 0.0
N729 N 0.4361 0.02445 0.30009 0.0
H730 H 0.63257 -0.00743 0.30371 0.0
H731 H 0.56608 0.02977 0.29263 0.0
H732 H 0.38462 0.03859 0.29892 0.0
H733 H 0.45958 0.00876 0.28954 0.0
H734 H 0.57472 0.90437 0.35844 0.0
H735 H 0.57472 0.90437 0.35844 0.0
H736 H 0.45902 0.03684 0.3679 0.0
H737 H 0.39652 0.08311 0.35685 0.0
C738 C 0.95922 0.96813 0.59141 0.0
C739 C 0.95126 0.93163 0.57702 0.0
C740 C -0.00738 0.03305 0.5627 0.0
C741 C 0.01158 0.06385 0.57727 0.0
N742 N 0.02548 0.05232 0.60549 0.0
N743 N 0.97542 0.92478 0.54894 0.0
C744 C -0.00065 0.02852 0.5916 0.0
C745 C 0.97244 0.96266 0.5626 0.0
N746 N 0.92958 0.94672 0.60512 0.0
N747 N -0.00748 0.07107 0.54906 0.0
H748 H 0.96405 0.87201 0.54858 0.0
H749 H -0.00369 0.94404 0.53843 0.0
H750 H 0.00332 0.12399 0.54894 0.0
H751 H 0.97391 0.05195 0.53833 0.0
H752 H 0.89869 0.90274 0.60589 0.0
H753 H 0.89869 0.90274 0.60589 0.0
H754 H 0.01575 0.02801 0.61631 0.0
H755 H 0.05576 0.09666 0.60601 0.0
C756 C 0.03769 0.50241 0.81367 0.0
C757 C 0.06081 0.47125 0.82794 0.0
C758 C 0.96164 0.52124 0.84169 0.0
C759 C 0.93187 0.54047 0.82711 0.0
N760 N 0.93871 0.5395 0.79848 0.0
N761 N 0.03411 0.4408 0.85516 0.0
C762 C 0.96919 0.52852 0.81285 0.0
C763 C 0.01962 0.47687 0.84175 0.0
N764 N 0.08109 0.50796 0.80096 0.0
N765 N 0.93611 0.54652 0.85556 0.0
H766 H 0.07458 0.40518 0.85602 0.0
H767 H 0.07458 0.40518 0.85602 0.0
H768 H 0.89638 0.5831 0.85588 0.0
H769 H 0.95645 0.53203 0.8665 0.0
H770 H 0.06868 0.53616 0.79081 0.0
H771 H 0.13212 0.49095 0.80124 0.0
H772 H 0.96149 0.52489 0.78777 0.0
H773 H 0.88799 0.55668 0.79729 0.0
C774 C 0.498 0.52494 0.091 0.0
C775 C 0.5038 0.56856 0.07763 0.0
C776 C 0.44885 0.47967 0.06141 0.0
C777 C 0.43795 0.43919 0.07522 0.0
N778 N 0.43089 0.43716 0.10368 0.0
N779 N 0.46668 0.59499 0.05096 0.0
C780 C 0.45546 0.46634 0.09017 0.0
C781 C 0.47327 0.54849 0.06308 0.0
N782 N 0.5325 0.53738 0.10467 0.0
N783 N 0.4384 0.45193 0.0467 0.0
H784 H 0.48137 0.64671 0.05198 0.0
H785 H 0.43941 0.58427 0.04062 0.0
H786 H 0.42191 0.40107 0.04493 0.0
H787 H 0.45254 0.47725 0.03628 0.0
H788 H 0.56686 0.57838 0.10612 0.0
H789 H 0.56686 0.57838 0.10612 0.0
H790 H 0.44225 0.45694 0.11488 0.0
H791 H 0.39888 0.39406 0.1034 0.0
C792 C 0.42514 0.52096 0.9451 0.0
C793 C 0.41812 0.44897 0.94222 0.0
C794 C 0.54289 0.43995 0.94432 0.0
C795 C 0.54944 0.51241 0.94198 0.0
N796 N 0.4899 0.62167 0.93749 0.0
N797 N 0.47707 0.34025 0.93651 0.0
C798 C 0.48814 0.55278 0.94112 0.0
C799 C 0.47924 0.40857 0.94065 0.0
N800 N 0.37707 0.55703 0.9536 0.0
N801 N 0.59221 0.40272 0.95208 0.0
H802 H 0.4326 0.31675 0.9322 0.0
H803 H 0.52135 0.30962 0.9359 0.0
H804 H 0.63539 0.4257 0.95717 0.0
H805 H 0.58529 0.35063 0.9551 0.0
H806 H 0.38457 0.60861 0.95699 0.0
H807 H 0.33469 0.53334 0.95893 0.0
H808 H 0.44583 0.65262 0.93765 0.0
H809 H 0.53381 0.6456 0.93295 0.0
C810 C 0.46339 0.9298 0.20777 0.0
C811 C 0.49715 0.90688 0.19378 0.0
C812 C 0.45212 0.00708 0.17973 0.0
C813 C 0.43077 0.03703 0.19416 0.0
N814 N 0.42398 0.02924 0.22276 0.0
N815 N 0.53251 0.93277 0.16683 0.0
C816 C 0.43821 -0.00109 0.20847 0.0
C817 C 0.49483 0.94813 0.17997 0.0
N818 N 0.45498 0.8858 0.22032 0.0
N819 N 0.43062 0.0336 0.16568 0.0
H820 H 0.56662 0.89089 0.16613 0.0
H821 H 0.56662 0.89089 0.16613 0.0
H822 H 0.39706 0.0757 0.16515 0.0
H823 H 0.44547 0.01219 0.15483 0.0
H824 H 0.42499 0.89818 0.2302 0.0
H825 H 0.47173 0.83436 0.22013 0.0
H826 H 0.43527 0.0058 0.23358 0.0
H827 H 0.40714 0.08041 0.22386 0.0
C828 C 0.93183 0.02686 0.44518 0.0
C829 C 0.92474 0.95474 0.44254 0.0
C830 C 0.0495 0.94538 0.44494 0.0
C831 C 0.05648 0.01757 0.44235 0.0
N832 N -0.00257 0.12706 0.43763 0.0
N833 N 0.98349 0.84527 0.43754 0.0
C834 C -0.0047 0.05827 0.44134 0.0
C835 C 0.98584 0.91402 0.4413 0.0
N836 N 0.8831 0.06361 0.45333 0.0
N837 N 0.09857 0.90847 0.45288 0.0
H838 H 0.93901 0.8215 0.43334 0.0
H839 H 0.02755 0.81427 0.43723 0.0
H840 H 0.14188 0.93154 0.45788 0.0
H841 H 0.09135 0.8567 0.45613 0.0
H842 H 0.89047 0.11532 0.45662 0.0
H843 H 0.83999 0.04042 0.45846 0.0
H844 H 0.95332 0.15799 0.43748 0.0
H845 H 0.04172 0.15096 0.43331 0.0
C846 C -0.00069 0.46023 0.71257 0.0
C847 C 0.019 0.42861 0.69806 0.0
C848 C 0.96557 0.52283 0.68346 0.0
C849 C 0.95318 0.55861 0.69774 0.0
N850 N 0.97099 0.56776 0.72596 0.0
N851 N 0.03667 0.44211 0.66983 0.0
C852 C 0.97399 0.52931 0.71237 0.0
C853 C 0.00752 0.46349 0.68362 0.0
N854 N 0.00309 0.42396 0.72646 0.0
N855 N 0.93835 0.5458 0.6696 0.0
H856 H 0.06986 0.3996 0.66902 0.0
H857 H 0.06986 0.3996 0.66902 0.0
H858 H 0.90746 0.58991 0.66908 0.0
H859 H 0.94842 0.52152 0.65879 0.0
H860 H 0.98289 0.44238 0.73712 0.0
H861 H 0.02041 0.37276 0.72702 0.0
H862 H -0.00833 0.55101 0.73669 0.0
H863 H 0.95428 0.61923 0.72613 0.0
C864 C 0.29181 0.18927 0.37667 0.0
C865 C 0.22854 0.17438 0.369 0.0
C866 C 0.16778 0.18807 0.39425 0.0
C867 C 0.23171 0.18119 0.4021 0.0
N868 N 0.3544 0.1922 0.40168 0.0
N869 N 0.10526 0.18132 0.36925 0.0
C870 C 0.29378 0.18942 0.39354 0.0
C871 C 0.16581 0.18178 0.37743 0.0
N872 N 0.34947 0.20179 0.36784 0.0
N873 N 0.10962 0.19714 0.40313 0.0
H874 H 0.10469 0.18256 0.35687 0.0
H875 H 0.05666 0.1815 0.37449 0.0
H876 H 0.11272 0.20404 0.41537 0.0
H877 H 0.06026 0.2023 0.39849 0.0
H878 H 0.39658 0.21644 0.37264 0.0
H879 H 0.34848 0.203 0.35549 0.0
H880 H 0.40294 0.19011 0.39639 0.0
H881 H 0.35502 0.19523 0.41404 0.0
C882 C 0.83387 0.67233 0.62895 0.0
C883 C 0.83341 0.73333 0.61969 0.0
C884 C 0.82145 0.80441 0.64342 0.0
C885 C 0.82879 0.74398 0.65275 0.0
N886 N 0.80253 0.62203 0.65421 0.0
N887 N 0.78873 0.85004 0.61779 0.0
C888 C 0.82192 0.6781 0.64548 0.0
C889 C 0.81434 0.79724 0.62679 0.0
N890 N 0.84762 0.60966 0.62208 0.0
N891 N 0.82328 0.86824 0.65035 0.0
H892 H 0.78097 0.84484 0.60562 0.0
H893 H 0.76979 0.89617 0.62263 0.0
H894 H 0.82449 0.87379 0.66262 0.0
H895 H 0.82598 0.91434 0.6439 0.0
H896 H 0.85643 0.56467 0.62866 0.0
H897 H 0.8527 0.60403 0.60982 0.0
H898 H 0.79158 0.57406 0.64911 0.0
H899 H 0.79069 0.62598 0.66625 0.0
C900 C 0.18428 0.29491 0.87569 0.0
C901 C 0.24858 0.31428 0.869 0.0
C902 C 0.30419 0.28838 0.89423 0.0
C903 C 0.23917 0.29432 0.90161 0.0
N904 N 0.11638 0.28721 0.89989 0.0
N905 N 0.37206 0.31372 0.8707 0.0
C906 C 0.17878 0.29001 0.89243 0.0
C907 C 0.30971 0.30465 0.87786 0.0
N908 N 0.1291 0.28209 0.86616 0.0
N909 N 0.36018 0.27247 0.90328 0.0
H910 H 0.37595 0.32351 0.8586 0.0
H911 H 0.4189 0.3117 0.87663 0.0
H912 H 0.35452 0.26044 0.91528 0.0
H913 H 0.40977 0.26559 0.89878 0.0
H914 H 0.08299 0.26172 0.87041 0.0
H915 H 0.13194 0.28496 0.85385 0.0
H916 H 0.06937 0.29289 0.89407 0.0
H917 H 0.11294 0.28141 0.91218 0.0
C918 C 0.65862 0.80516 0.13039 0.0
C919 C 0.65408 0.74833 0.11988 0.0
C920 C 0.65234 0.66805 0.14221 0.0
C921 C 0.64984 0.72511 0.15271 0.0
N922 N 0.68938 0.84218 0.15683 0.0
N923 N 0.68573 0.62855 0.11608 0.0
C924 C 0.66618 0.79197 0.14685 0.0
C925 C 0.66441 0.68053 0.12587 0.0
N926 N 0.65278 0.87126 0.12478 0.0
N927 N 0.64022 0.60262 0.14766 0.0
H928 H 0.69588 0.63646 0.10408 0.0
H929 H 0.70072 0.58033 0.12044 0.0
H930 H 0.63383 0.59228 0.1597 0.0
H931 H 0.63373 0.56021 0.14013 0.0
H932 H 0.64848 0.91429 0.13222 0.0
H933 H 0.64968 0.8818 0.11266 0.0
H934 H 0.70996 0.88838 0.15259 0.0
H935 H 0.69616 0.83392 0.16893 0.0
C936 C 0.66105 0.6723 0.87792 0.0
C937 C 0.72476 0.66761 0.86974 0.0
C938 C 0.78723 0.68978 0.89442 0.0
C939 C 0.72477 0.68111 0.90274 0.0
N940 N 0.60265 0.69605 0.90301 0.0
N941 N 0.84536 0.69983 0.86902 0.0
C942 C 0.66161 0.68486 0.89455 0.0
C943 C 0.78692 0.68672 0.87756 0.0
N944 N 0.60094 0.66198 0.86989 0.0
N945 N 0.8469 0.6954 0.90285 0.0
H946 H 0.84691 0.69868 0.8567 0.0
H947 H 0.89104 0.71758 0.87401 0.0
H948 H 0.8461 0.70012 0.91519 0.0
H949 H 0.89603 0.69344 0.89786 0.0
H950 H 0.55286 0.65909 0.87531 0.0
H951 H 0.59976 0.65538 0.8576 0.0
H952 H 0.55413 0.70162 0.89793 0.0
H953 H 0.60454 0.70559 0.91518 0.0
C954 C 0.31452 0.17878 0.14321 0.0
C955 C 0.32662 0.24344 0.15082 0.0
C956 C 0.31435 0.30032 0.12522 0.0
C957 C 0.32743 0.23573 0.11763 0.0
N958 N 0.33493 0.11119 0.11942 0.0
N959 N 0.33346 0.36795 0.14901 0.0
C960 C 0.32506 0.17396 0.12661 0.0
C961 C 0.32429 0.30517 0.14183 0.0
N962 N 0.29309 0.12262 0.15171 0.0
N963 N 0.29191 0.35625 0.11676 0.0
H964 H 0.33767 0.37298 0.1613 0.0
H965 H 0.34011 0.41389 0.14266 0.0
H966 H 0.28136 0.35358 0.10468 0.0
H967 H 0.27748 0.40301 0.12208 0.0
H968 H 0.27942 0.0757 0.14642 0.0
H969 H 0.28259 0.12514 0.16381 0.0
H970 H 0.34172 0.06518 0.12575 0.0
H971 H 0.33948 0.10622 0.10713 0.0
C972 C 0.81529 0.79576 0.37783 0.0
C973 C 0.75274 0.80711 0.36967 0.0
C974 C 0.68719 0.78604 0.39392 0.0
C975 C 0.74921 0.79241 0.40249 0.0
N976 N 0.87121 0.77584 0.40332 0.0
N977 N 0.63174 0.78123 0.36814 0.0
C978 C 0.81318 0.78626 0.39455 0.0
C979 C 0.68927 0.79086 0.37712 0.0
N980 N 0.87557 0.79482 0.36947 0.0
N981 N 0.62659 0.78124 0.40209 0.0
H982 H 0.63295 0.78381 0.3558 0.0
H983 H 0.58466 0.76511 0.37274 0.0
H984 H 0.62606 0.77567 0.41441 0.0
H985 H 0.57804 0.78415 0.39689 0.0
H986 H 0.9242 0.78995 0.37452 0.0
H987 H 0.87559 0.79565 0.3571 0.0
H988 H 0.92082 0.77306 0.39866 0.0
H989 H 0.86789 0.76662 0.41549 0.0
C990 C 0.13805 0.17728 0.64342 0.0
C991 C 0.13862 0.23747 0.65299 0.0
C992 C 0.14874 0.31034 0.62945 0.0
C993 C 0.14195 0.25066 0.61984 0.0
N994 N 0.16796 0.12859 0.61786 0.0
N995 N 0.18107 0.35479 0.6552 0.0
C996 C 0.14923 0.18426 0.62687 0.0
C997 C 0.15631 0.30212 0.64607 0.0
N998 N 0.12473 0.11406 0.65001 0.0
N999 N 0.14617 0.3746 0.62277 0.0
H1000 H 0.18968 0.34917 0.66732 0.0
H1001 H 0.19917 0.40129 0.65047 0.0
H1002 H 0.14537 0.38086 0.61053 0.0
H1003 H 0.14261 0.42028 0.62937 0.0
H1004 H 0.11548 0.06979 0.64324 0.0
H1005 H 0.12006 0.10722 0.66225 0.0
H1006 H 0.17982 0.08041 0.62277 0.0
H1007 H 0.17812 0.13285 0.60575 0.0
C1008 C 0.27217 0.11924 0.26255 0.0
C1009 C 0.25296 0.16964 0.27444 0.0
C1010 C 0.25364 0.25899 0.25344 0.0
C1011 C 0.26845 0.20746 0.24204 0.0
N1012 N 0.25887 0.08716 0.23505 0.0
N1013 N 0.19582 0.28159 0.27826 0.0
C1014 C 0.26565 0.13718 0.2464 0.0
C1015 C 0.23471 0.23805 0.26908 0.0
N1016 N 0.30178 0.05641 0.26599 0.0
N1017 N 0.25761 0.32747 0.24944 0.0
H1018 H 0.1707 0.2654 0.28852 0.0
H1019 H 0.17915 0.33013 0.27432 0.0
H1020 H 0.26848 0.34367 0.23789 0.0
H1021 H 0.25402 0.36724 0.2578 0.0
H1022 H 0.32057 0.0233 0.25718 0.0
H1023 H 0.31801 0.03973 0.27699 0.0
H1024 H 0.25148 0.03485 0.23777 0.0
H1025 H 0.25162 0.09962 0.22314 0.0
C1026 C 0.80901 0.85117 0.50444 0.0
C1027 C 0.76013 0.81261 0.49559 0.0
C1028 C 0.74266 0.73743 0.51888 0.0
C1029 C 0.78551 0.78201 0.52791 0.0
N1030 N 0.83428 0.89688 0.53022 0.0
N1031 N 0.66839 0.72764 0.49586 0.0
C1032 C 0.81016 0.84407 0.52099 0.0
C1033 C 0.72315 0.75805 0.50321 0.0
N1034 N 0.85812 0.89082 0.49715 0.0
N1035 N 0.72268 0.67488 0.52489 0.0
H1036 H 0.65053 0.74355 0.4848 0.0
H1037 H 0.63645 0.6918 0.50148 0.0
H1038 H 0.73603 0.65843 0.53625 0.0
H1039 H 0.69735 0.6375 0.51816 0.0
H1040 H 0.89716 0.91566 0.50346 0.0
H1041 H 0.8664 0.89066 0.48495 0.0
H1042 H 0.84879 0.94483 0.52554 0.0
H1043 H 0.8312 0.89562 0.54255 0.0
C1044 C 0.14936 0.22271 0.75849 0.0
C1045 C 0.18596 0.25471 0.74583 0.0
C1046 C 0.25893 0.31461 0.76525 0.0
C1047 C 0.21509 0.29127 0.77758 0.0
N1048 N 0.11377 0.22855 0.78596 0.0
N1049 N 0.27078 0.33905 0.73728 0.0
C1050 C 0.15966 0.24586 0.77427 0.0
C1051 C 0.24041 0.3019 0.7492 0.0
N1052 N 0.10433 0.1701 0.75541 0.0
N1053 N 0.31841 0.34888 0.76892 0.0
H1054 H 0.2584 0.33335 0.72536 0.0
H1055 H 0.30445 0.38011 0.73931 0.0
H1056 H 0.33314 0.35906 0.78059 0.0
H1057 H 0.3561 0.36111 0.76057 0.0
H1058 H 0.08226 0.13923 0.76419 0.0
H1059 H 0.09367 0.15338 0.74398 0.0
H1060 H 0.06738 0.20318 0.78381 0.0
H1061 H 0.11892 0.24427 0.79772 0.0
C1062 C 0.75144 0.70601 1.00338 0.0
C1063 C 0.71067 0.65466 0.99572 0.0
C1064 C 0.65364 0.63035 0.02093 0.0
C1065 C 0.68422 0.68985 0.02783 0.0
N1066 N 0.7574 0.79021 0.02476 0.0
N1067 N 0.60745 0.58366 0.99685 0.0
C1068 C 0.73228 0.72932 0.01888 0.0
C1069 C 0.65754 0.62093 1.00439 0.0
N1070 N 0.80944 0.73089 0.99617 0.0
N1071 N 0.62168 0.58183 0.03019 0.0
H1072 H 0.60278 0.58117 0.98457 0.0
H1073 H 0.56493 0.56321 1.00282 0.0
H1074 H 0.62161 0.58427 0.04253 0.0
H1075 H 0.60315 0.53507 0.02566 0.0
H1076 H 0.84417 0.7637 1.00184 0.0
H1077 H 0.8266 0.71306 0.98517 0.0
H1078 H 0.78691 0.82443 0.01802 0.0
H1079 H 0.74404 0.80931 0.03592 0.0
C1080 C 0.22558 0.30402 0.02188 0.0
C1081 C 0.28317 0.2603 0.02526 0.0
C1082 C 0.30832 0.25073 0.9968 0.0
C1083 C 0.24951 0.29224 0.99348 0.0
N1084 N 0.1429 0.34359 1.00226 0.0
N1085 N 0.3699 0.18005 0.01574 0.0
C1086 C 0.20502 0.3139 1.00586 0.0
C1087 C 0.32125 0.22966 0.01263 0.0
N1088 N 0.19376 0.3406 0.03374 0.0
N1089 N 0.35451 0.23502 0.98502 0.0
H1090 H 0.38267 0.16487 0.02718 0.0
H1091 H 0.39332 0.14981 1.007 0.0
H1092 H 0.34726 0.24847 0.97319 0.0
H1093 H 0.40285 0.2132 0.98714 0.0
H1094 H 0.15702 0.3791 0.03164 0.0
H1095 H 0.20803 0.33756 0.0456 0.0
H1096 H 0.10511 0.35452 0.01071 0.0
H1097 H 0.12651 0.35061 0.99059 0.0
C1098 C 0.74207 0.75669 0.26896 0.0
C1099 C 0.70005 0.80469 0.27747 0.0
C1100 C 0.63768 0.83146 0.2532 0.0
C1101 C 0.6712 0.77591 0.24523 0.0
N1102 N 0.74835 0.67708 0.2467 0.0
N1103 N 0.59205 0.86836 0.27831 0.0
C1104 C 0.72176 0.73597 0.25339 0.0
C1105 C 0.64309 0.83631 0.26979 0.0
N1106 N 0.80227 0.73288 0.27536 0.0
N1107 N 0.6025 0.88133 0.24496 0.0
H1108 H 0.58993 0.86695 0.29066 0.0
H1109 H 0.54732 0.88787 0.27307 0.0
H1110 H 0.60235 0.88367 0.23261 0.0
H1111 H 0.5814 0.92521 0.25041 0.0
H1112 H 0.83774 0.70307 0.26898 0.0
H1113 H 0.8199 0.74833 0.28646 0.0
H1114 H 0.78023 0.64277 0.25284 0.0
H1115 H 0.73354 0.6591 0.23557 0.0
C1116 C 0.1716 0.11999 0.50455 0.0
C1117 C 0.22196 0.15679 0.49565 0.0
C1118 C 0.24341 0.23028 0.51903 0.0
C1119 C 0.19805 0.18808 0.52806 0.0
N1120 N 0.14163 0.07694 0.53042 0.0
N1121 N 0.31781 0.23687 0.49589 0.0
C1122 C 0.16998 0.12755 0.52114 0.0
C1123 C 0.26167 0.20909 0.50331 0.0
N1124 N 0.12146 0.08191 0.49724 0.0
N1125 N 0.26684 0.2915 0.52509 0.0
H1126 H 0.33458 0.2205 0.48474 0.0
H1127 H 0.35173 0.27072 0.5015 0.0
H1128 H 0.25473 0.30839 0.53651 0.0
H1129 H 0.29402 0.32762 0.51836 0.0
H1130 H 0.0811 0.05881 0.50348 0.0
H1131 H 0.11404 0.08161 0.48502 0.0
H1132 H 0.12473 0.02965 0.52584 0.0
H1133 H 0.14298 0.07896 0.54277 0.0
C1134 C 0.78562 0.76968 0.75624 0.0
C1135 C 0.76484 0.72143 0.74459 0.0
C1136 C 0.71288 0.64864 0.76516 0.0
C1137 C 0.74422 0.69067 0.77702 0.0
N1138 N 0.81932 0.78707 0.78348 0.0
N1139 N 0.71117 0.61313 0.73758 0.0
C1140 C 0.78183 0.75103 0.77252 0.0
C1141 C 0.7279 0.66104 0.7489 0.0
N1142 N 0.81012 0.83303 0.75165 0.0
N1143 N 0.66868 0.59673 0.7694 0.0
H1144 H 0.71916 0.62135 0.7255 0.0
H1145 H 0.69306 0.56356 0.74019 0.0
H1146 H 0.65832 0.58386 0.78113 0.0
H1147 H 0.63809 0.56996 0.76134 0.0
H1148 H 0.82014 0.8733 0.75955 0.0
H1149 H 0.81361 0.84748 0.73974 0.0
H1150 H 0.85368 0.82641 0.78047 0.0
H1151 H 0.82196 0.7738 0.79541 0.0
loop_
_geom_bond_atom_site_label_1
_geom_bond_atom_site_label_2
_geom_bond_distance
_geom_bond_site_symmetry_2
_ccdc_geom_bond_type
Mn0 O5 2.095 . S
Mn0 O15 2.162 . S
Mn0 O16 2.297 . S
Mn0 O24 2.385 . S
Mn0 O25 2.209 . S
Mn0 O26 2.094 . S
Mn1 O6 2.121 . S
Mn1 N8 2.257 1_545 S
Mn1 N17 2.282 1_545 S
Mn1 O25 2.215 . S
Mn1 O27 2.117 . S
C2 O24 1.234 . S
C2 O25 1.283 . S
C3 O15 1.281 . S
C3 O16 1.236 . S
C4 O26 1.240 . S
C4 O27 1.264 . S
O5 Mn0 2.095 . S
O5 C14 1.250 . S
O6 Mn1 2.121 . S
O6 C14 1.258 . S
C7 N8 1.326 . S
C7 C11 1.460 . S
C7 H13 0.929 . S
N8 Mn1 2.257 1_565 S
N8 C7 1.326 . S
N8 C12 1.362 . S
C9 C10 1.258 . S
C9 C12 1.431 . S
C9 C29 1.449 . S
C10 C9 1.258 . S
C10 C11 1.477 . S
C10 H30 0.931 . S
C11 C7 1.460 . S
C11 C10 1.477 . S
C11 H31 0.930 . S
C12 N8 1.362 . S
C12 C9 1.431 . S
C12 C22 1.476 . S
H13 C7 0.929 . S
C14 O5 1.250 . S
C14 O6 1.258 . S
O15 Mn0 2.162 . S
O15 C3 1.281 . S
O16 Mn0 2.297 . S
O16 C3 1.236 . S
N17 Mn1 2.282 1_565 S
N17 C18 1.328 1_565 S
N17 C22 1.318 . S
C18 N17 1.328 1_545 S
C18 C19 1.457 . S
C18 H23 0.929 . S
C19 C18 1.457 . S
C19 C20 1.291 1_545 S
C19 H32 0.931 . S
C20 C19 1.291 1_565 S
C20 C21 1.373 . S
C20 H33 0.929 . S
C21 C20 1.373 . S
C21 C22 1.396 . S
C21 C28 1.403 . S
C22 C12 1.476 . S
C22 N17 1.318 . S
C22 C21 1.396 . S
H23 C18 0.929 . S
O24 Mn0 2.385 . S
O24 C2 1.234 . S
O25 Mn0 2.209 . S
O25 Mn1 2.215 . S
O25 C2 1.283 . S
O26 Mn0 2.094 . S
O26 C4 1.240 . S
O27 Mn1 2.117 . S
O27 C4 1.264 . S
C28 C21 1.403 . S
C28 C29 1.399 . S
C28 H34 0.929 . S
C29 C9 1.449 . S
C29 C28 1.399 . S
C29 H35 0.930 . S
H30 C10 0.931 . S
H31 C11 0.930 . S
H32 C19 0.931 . S
H33 C20 0.929 . S
H34 C28 0.929 . S
H35 C29 0.930 . S
Mn36 O41 2.095 . S
Mn36 O51 2.162 . S
Mn36 O52 2.297 . S
Mn36 O60 2.385 . S
Mn36 O61 2.209 . S
Mn36 O62 2.094 . S
Mn37 O42 2.121 . S
Mn37 N44 2.257 1_655 S
Mn37 N53 2.282 1_655 S
Mn37 O61 2.215 . S
Mn37 O63 2.117 . S
C38 O60 1.234 . S
C38 O61 1.283 . S
C39 O51 1.281 . S
C39 O52 1.236 . S
C40 O62 1.240 . S
C40 O63 1.264 . S
O41 Mn36 2.095 . S
O41 C50 1.250 . S
O42 Mn37 2.121 . S
O42 C50 1.258 . S
C43 N44 1.326 . S
C43 C47 1.460 . S
C43 H49 0.929 . S
N44 Mn37 2.257 1_455 S
N44 C43 1.326 . S
N44 C48 1.362 . S
C45 C46 1.258 . S
C45 C48 1.431 . S
C45 C65 1.449 . S
C46 C45 1.258 . S
C46 C47 1.477 . S
C46 H66 0.931 . S
C47 C43 1.460 . S
C47 C46 1.477 . S
C47 H67 0.930 . S
C48 N44 1.362 . S
C48 C45 1.431 . S
C48 C58 1.476 . S
H49 C43 0.929 . S
C50 O41 1.250 . S
C50 O42 1.258 . S
O51 Mn36 2.162 . S
O51 C39 1.281 . S
O52 Mn36 2.297 . S
O52 C39 1.236 . S
N53 Mn37 2.282 1_455 S
N53 C54 1.328 1_455 S
N53 C58 1.318 . S
C54 N53 1.328 1_655 S
C54 C55 1.457 . S
C54 H59 0.929 . S
C55 C54 1.457 . S
C55 C56 1.291 1_655 S
C55 H68 0.931 . S
C56 C55 1.291 1_455 S
C56 C57 1.373 . S
C56 H69 0.929 1_565 S
C57 C56 1.373 . S
C57 C58 1.396 . S
C57 C64 1.403 . S
C58 C48 1.476 . S
C58 N53 1.318 . S
C58 C57 1.396 . S
H59 C54 0.929 . S
O60 Mn36 2.385 . S
O60 C38 1.234 . S
O61 Mn36 2.209 . S
O61 Mn37 2.215 . S
O61 C38 1.283 . S
O62 Mn36 2.094 . S
O62 C40 1.240 . S
O63 Mn37 2.117 . S
O63 C40 1.264 . S
C64 C57 1.403 . S
C64 C65 1.399 . S
C64 H70 0.929 1_565 S
C65 C45 1.449 . S
C65 C64 1.399 . S
C65 H71 0.930 . S
H66 C46 0.931 . S
H67 C47 0.930 . S
H68 C55 0.931 . S
H69 C56 0.929 1_545 S
H70 C64 0.929 1_545 S
H71 C65 0.930 . S
Mn72 O77 2.095 . S
Mn72 O87 2.162 . S
Mn72 O88 2.297 . S
Mn72 O96 2.385 . S
Mn72 O97 2.209 . S
Mn72 O98 2.094 . S
Mn73 O78 2.121 . S
Mn73 N80 2.257 . S
Mn73 N89 2.282 . S
Mn73 O97 2.215 . S
Mn73 O99 2.117 . S
C74 O96 1.234 . S
C74 O97 1.283 . S
C75 O87 1.281 . S
C75 O88 1.236 . S
C76 O98 1.240 . S
C76 O99 1.264 . S
O77 Mn72 2.095 . S
O77 C86 1.250 . S
O78 Mn73 2.121 . S
O78 C86 1.258 . S
C79 N80 1.326 . S
C79 C83 1.460 . S
C79 H85 0.929 . S
N80 Mn73 2.257 . S
N80 C79 1.326 . S
N80 C84 1.362 . S
C81 C82 1.258 . S
C81 C84 1.431 . S
C81 C101 1.449 . S
C82 C81 1.258 . S
C82 C83 1.477 . S
C82 H102 0.931 . S
C83 C79 1.460 . S
C83 C82 1.477 . S
C83 H103 0.930 . S
C84 N80 1.362 . S
C84 C81 1.431 . S
C84 C94 1.476 . S
H85 C79 0.929 . S
C86 O77 1.250 . S
C86 O78 1.258 . S
O87 Mn72 2.162 . S
O87 C75 1.281 . S
O88 Mn72 2.297 . S
O88 C75 1.236 . S
N89 Mn73 2.282 . S
N89 C90 1.328 . S
N89 C94 1.318 . S
C90 N89 1.328 . S
C90 C91 1.457 . S
C90 H95 0.929 . S
C91 C90 1.457 . S
C91 C92 1.291 . S
C91 H104 0.931 . S
C92 C91 1.291 . S
C92 C93 1.373 . S
C92 H105 0.929 1_455 S
C93 C92 1.373 . S
C93 C94 1.396 . S
C93 C100 1.403 . S
C94 C84 1.476 . S
C94 N89 1.318 . S
C94 C93 1.396 . S
H95 C90 0.929 . S
O96 Mn72 2.385 . S
O96 C74 1.234 . S
O97 Mn72 2.209 . S
O97 Mn73 2.215 . S
O97 C74 1.283 . S
O98 Mn72 2.094 . S
O98 C76 1.240 . S
O99 Mn73 2.117 . S
O99 C76 1.264 . S
C100 C93 1.403 . S
C100 C101 1.399 . S
C100 H106 0.929 1_455 S
C101 C81 1.449 . S
C101 C100 1.399 . S
C101 H107 0.930 . S
H102 C82 0.931 . S
H103 C83 0.930 . S
H104 C91 0.931 . S
H105 C92 0.929 1_655 S
H106 C100 0.929 1_655 S
H107 C101 0.930 . S
Mn108 O113 2.095 . S
Mn108 O123 2.162 . S
Mn108 O124 2.297 . S
Mn108 O132 2.385 . S
Mn108 O133 2.209 . S
Mn108 O134 2.094 . S
Mn109 O114 2.121 . S
Mn109 N116 2.257 . S
Mn109 N125 2.282 . S
Mn109 O133 2.215 . S
Mn109 O135 2.117 . S
C110 O132 1.234 . S
C110 O133 1.283 . S
C111 O123 1.281 . S
C111 O124 1.236 . S
C112 O134 1.240 . S
C112 O135 1.264 . S
O113 Mn108 2.095 . S
O113 C122 1.250 . S
O114 Mn109 2.121 . S
O114 C122 1.258 . S
C115 N116 1.326 . S
C115 C119 1.460 . S
C115 H121 0.929 . S
N116 Mn109 2.257 . S
N116 C115 1.326 . S
N116 C120 1.362 . S
C117 C118 1.258 . S
C117 C120 1.431 . S
C117 C137 1.449 . S
C118 C117 1.258 . S
C118 C119 1.477 . S
C118 H138 0.931 . S
C119 C115 1.460 . S
C119 C118 1.477 . S
C119 H139 0.930 . S
C120 N116 1.362 . S
C120 C117 1.431 . S
C120 C130 1.476 . S
H121 C115 0.929 . S
C122 O113 1.250 . S
C122 O114 1.258 . S
O123 Mn108 2.162 . S
O123 C111 1.281 . S
O124 Mn108 2.297 . S
O124 C111 1.236 . S
N125 Mn109 2.282 . S
N125 C126 1.328 . S
N125 C130 1.318 . S
C126 N125 1.328 . S
C126 C127 1.457 . S
C126 H131 0.929 . S
C127 C126 1.457 . S
C127 C128 1.291 . S
C127 H140 0.931 . S
C128 C127 1.291 . S
C128 C129 1.373 . S
C128 H141 0.929 . S
C129 C128 1.373 . S
C129 C130 1.396 . S
C129 C136 1.403 . S
C130 C120 1.476 . S
C130 N125 1.318 . S
C130 C129 1.396 . S
H131 C126 0.929 . S
O132 Mn108 2.385 . S
O132 C110 1.234 . S
O133 Mn108 2.209 . S
O133 Mn109 2.215 . S
O133 C110 1.283 . S
O134 Mn108 2.094 . S
O134 C112 1.240 . S
O135 Mn109 2.117 . S
O135 C112 1.264 . S
C136 C129 1.403 . S
C136 C137 1.399 . S
C136 H142 0.929 . S
C137 C117 1.449 . S
C137 C136 1.399 . S
C137 H143 0.930 . S
H138 C118 0.931 . S
H139 C119 0.930 . S
H140 C127 0.931 . S
H141 C128 0.929 . S
H142 C136 0.929 . S
H143 C137 0.930 . S
Mn144 O149 2.095 . S
Mn144 O159 2.162 . S
Mn144 O160 2.297 . S
Mn144 O168 2.385 . S
Mn144 O169 2.209 . S
Mn144 O170 2.094 . S
Mn145 O150 2.121 . S
Mn145 N152 2.257 . S
Mn145 N161 2.282 . S
Mn145 O169 2.215 . S
Mn145 O171 2.117 . S
C146 O168 1.234 . S
C146 O169 1.283 . S
C147 O159 1.281 . S
C147 O160 1.236 . S
C148 O170 1.240 . S
C148 O171 1.264 . S
O149 Mn144 2.095 . S
O149 C158 1.250 . S
O150 Mn145 2.121 . S
O150 C158 1.258 . S
C151 N152 1.326 . S
C151 C155 1.460 . S
C151 H157 0.929 . S
N152 Mn145 2.257 . S
N152 C151 1.326 . S
N152 C156 1.362 . S
C153 C154 1.258 . S
C153 C156 1.431 . S
C153 C173 1.449 . S
C154 C153 1.258 . S
C154 C155 1.477 . S
C154 H174 0.931 . S
C155 C151 1.460 . S
C155 C154 1.477 . S
C155 H175 0.930 . S
C156 N152 1.362 . S
C156 C153 1.431 . S
C156 C166 1.476 . S
H157 C151 0.929 . S
C158 O149 1.250 . S
C158 O150 1.258 . S
O159 Mn144 2.162 . S
O159 C147 1.281 . S
O160 Mn144 2.297 . S
O160 C147 1.236 . S
N161 Mn145 2.282 . S
N161 C162 1.328 . S
N161 C166 1.318 . S
C162 N161 1.328 . S
C162 C163 1.457 . S
C162 H167 0.929 . S
C163 C162 1.457 . S
C163 C164 1.291 . S
C163 H176 0.931 . S
C164 C163 1.291 . S
C164 C165 1.373 . S
C164 H177 0.929 . S
C165 C164 1.373 . S
C165 C166 1.396 . S
C165 C172 1.403 . S
C166 C156 1.476 . S
C166 N161 1.318 . S
C166 C165 1.396 . S
H167 C162 0.929 . S
O168 Mn144 2.385 . S
O168 C146 1.234 . S
O169 Mn144 2.209 . S
O169 Mn145 2.215 . S
O169 C146 1.283 . S
O170 Mn144 2.094 . S
O170 C148 1.240 . S
O171 Mn145 2.117 . S
O171 C148 1.264 . S
C172 C165 1.403 . S
C172 C173 1.399 . S
C172 H178 0.929 . S
C173 C153 1.449 . S
C173 C172 1.399 . S
C173 H179 0.930 . S
H174 C154 0.931 . S
H175 C155 0.930 . S
H176 C163 0.931 . S
H177 C164 0.929 . S
H178 C172 0.929 . S
H179 C173 0.930 . S
Mn180 O185 2.095 . S
Mn180 O195 2.162 . S
Mn180 O196 2.297 . S
Mn180 O204 2.385 . S
Mn180 O205 2.209 . S
Mn180 O206 2.094 . S
Mn181 O186 2.121 . S
Mn181 N188 2.257 . S
Mn181 N197 2.282 . S
Mn181 O205 2.215 . S
Mn181 O207 2.117 . S
C182 O204 1.234 . S
C182 O205 1.283 . S
C183 O195 1.281 . S
C183 O196 1.236 . S
C184 O206 1.240 . S
C184 O207 1.264 . S
O185 Mn180 2.095 . S
O185 C194 1.250 . S
O186 Mn181 2.121 . S
O186 C194 1.258 . S
C187 N188 1.326 . S
C187 C191 1.460 . S
C187 H193 0.929 . S
N188 Mn181 2.257 . S
N188 C187 1.326 . S
N188 C192 1.362 . S
C189 C190 1.258 . S
C189 C192 1.431 . S
C189 C209 1.449 . S
C190 C189 1.258 . S
C190 C191 1.477 . S
C190 H210 0.931 . S
C191 C187 1.460 . S
C191 C190 1.477 . S
C191 H211 0.930 . S
C192 N188 1.362 . S
C192 C189 1.431 . S
C192 C202 1.476 . S
H193 C187 0.929 . S
C194 O185 1.250 . S
C194 O186 1.258 . S
O195 Mn180 2.162 . S
O195 C183 1.281 . S
O196 Mn180 2.297 . S
O196 C183 1.236 . S
N197 Mn181 2.282 . S
N197 C198 1.328 . S
N197 C202 1.318 . S
C198 N197 1.328 . S
C198 C199 1.457 . S
C198 H203 0.929 . S
C199 C198 1.457 . S
C199 C200 1.291 . S
C199 H212 0.931 . S
C200 C199 1.291 . S
C200 C201 1.373 . S
C200 H213 0.929 1_565 S
C201 C200 1.373 . S
C201 C202 1.396 . S
C201 C208 1.403 . S
C202 C192 1.476 . S
C202 N197 1.318 . S
C202 C201 1.396 . S
H203 C198 0.929 . S
O204 Mn180 2.385 . S
O204 C182 1.234 . S
O205 Mn180 2.209 . S
O205 Mn181 2.215 . S
O205 C182 1.283 . S
O206 Mn180 2.094 . S
O206 C184 1.240 . S
O207 Mn181 2.117 . S
O207 C184 1.264 . S
C208 C201 1.403 . S
C208 C209 1.399 . S
C208 H214 0.929 1_565 S
C209 C189 1.449 . S
C209 C208 1.399 . S
C209 H215 0.930 . S
H210 C190 0.931 . S
H211 C191 0.930 . S
H212 C199 0.931 . S
H213 C200 0.929 1_545 S
H214 C208 0.929 1_545 S
H215 C209 0.930 . S
Mn216 O221 2.095 . S
Mn216 O231 2.162 . S
Mn216 O232 2.297 . S
Mn216 O240 2.385 . S
Mn216 O241 2.209 . S
Mn216 O242 2.094 . S
Mn217 O222 2.121 . S
Mn217 N224 2.257 1_545 S
Mn217 N233 2.282 1_545 S
Mn217 O241 2.215 . S
Mn217 O243 2.117 . S
C218 O240 1.234 . S
C218 O241 1.283 . S
C219 O231 1.281 . S
C219 O232 1.236 . S
C220 O242 1.240 . S
C220 O243 1.264 . S
O221 Mn216 2.095 . S
O221 C230 1.250 . S
O222 Mn217 2.121 . S
O222 C230 1.258 . S
C223 N224 1.326 . S
C223 C227 1.460 . S
C223 H229 0.929 . S
N224 Mn217 2.257 1_565 S
N224 C223 1.326 . S
N224 C228 1.362 . S
C225 C226 1.258 . S
C225 C228 1.431 . S
C225 C245 1.449 . S
C226 C225 1.258 . S
C226 C227 1.477 . S
C226 H246 0.931 . S
C227 C223 1.460 . S
C227 C226 1.477 . S
C227 H247 0.930 . S
C228 N224 1.362 . S
C228 C225 1.431 . S
C228 C238 1.476 . S
H229 C223 0.929 . S
C230 O221 1.250 . S
C230 O222 1.258 . S
O231 Mn216 2.162 . S
O231 C219 1.281 . S
O232 Mn216 2.297 . S
O232 C219 1.236 . S
N233 Mn217 2.282 1_565 S
N233 C234 1.328 1_565 S
N233 C238 1.318 . S
C234 N233 1.328 1_545 S
C234 C235 1.457 . S
C234 H239 0.929 . S
C235 C234 1.457 . S
C235 C236 1.291 1_545 S
C235 H248 0.931 . S
C236 C235 1.291 1_565 S
C236 C237 1.373 . S
C236 H249 0.929 1_455 S
C237 C236 1.373 . S
C237 C238 1.396 . S
C237 C244 1.403 . S
C238 C228 1.476 . S
C238 N233 1.318 . S
C238 C237 1.396 . S
H239 C234 0.929 . S
O240 Mn216 2.385 . S
O240 C218 1.234 . S
O241 Mn216 2.209 . S
O241 Mn217 2.215 . S
O241 C218 1.283 . S
O242 Mn216 2.094 . S
O242 C220 1.240 . S
O243 Mn217 2.117 . S
O243 C220 1.264 . S
C244 C237 1.403 . S
C244 C245 1.399 . S
C244 H250 0.929 1_455 S
C245 C225 1.449 . S
C245 C244 1.399 . S
C245 H251 0.930 . S
H246 C226 0.931 . S
H247 C227 0.930 . S
H248 C235 0.931 . S
H249 C236 0.929 1_655 S
H250 C244 0.929 1_655 S
H251 C245 0.930 . S
Mn252 O257 2.095 . S
Mn252 O267 2.162 . S
Mn252 O268 2.297 . S
Mn252 O276 2.385 . S
Mn252 O277 2.209 . S
Mn252 O278 2.094 . S
Mn253 O258 2.121 . S
Mn253 N260 2.257 1_655 S
Mn253 N269 2.282 1_655 S
Mn253 O277 2.215 . S
Mn253 O279 2.117 . S
C254 O276 1.234 . S
C254 O277 1.283 . S
C255 O267 1.281 . S
C255 O268 1.236 . S
C256 O278 1.240 . S
C256 O279 1.264 . S
O257 Mn252 2.095 . S
O257 C266 1.250 . S
O258 Mn253 2.121 . S
O258 C266 1.258 . S
C259 N260 1.326 . S
C259 C263 1.460 . S
C259 H265 0.929 . S
N260 Mn253 2.257 1_455 S
N260 C259 1.326 . S
N260 C264 1.362 . S
C261 C262 1.258 . S
C261 C264 1.431 . S
C261 C281 1.449 . S
C262 C261 1.258 . S
C262 C263 1.477 . S
C262 H282 0.931 . S
C263 C259 1.460 . S
C263 C262 1.477 . S
C263 H283 0.930 . S
C264 N260 1.362 . S
C264 C261 1.431 . S
C264 C274 1.476 . S
H265 C259 0.929 . S
C266 O257 1.250 . S
C266 O258 1.258 . S
O267 Mn252 2.162 . S
O267 C255 1.281 . S
O268 Mn252 2.297 . S
O268 C255 1.236 . S
N269 Mn253 2.282 1_455 S
N269 C270 1.328 1_455 S
N269 C274 1.318 . S
C270 N269 1.328 1_655 S
C270 C271 1.457 . S
C270 H275 0.929 . S
C271 C270 1.457 . S
C271 C272 1.291 1_655 S
C271 H284 0.931 . S
C272 C271 1.291 1_455 S
C272 C273 1.373 . S
C272 H285 0.929 . S
C273 C272 1.373 . S
C273 C274 1.396 . S
C273 C280 1.403 . S
C274 C264 1.476 . S
C274 N269 1.318 . S
C274 C273 1.396 . S
H275 C270 0.929 . S
O276 Mn252 2.385 . S
O276 C254 1.234 . S
O277 Mn252 2.209 . S
O277 Mn253 2.215 . S
O277 C254 1.283 . S
O278 Mn252 2.094 . S
O278 C256 1.240 . S
O279 Mn253 2.117 . S
O279 C256 1.264 . S
C280 C273 1.403 . S
C280 C281 1.399 . S
C280 H286 0.929 . S
C281 C261 1.449 . S
C281 C280 1.399 . S
C281 H287 0.930 . S
H282 C262 0.931 . S
H283 C263 0.930 . S
H284 C271 0.931 . S
H285 C272 0.929 . S
H286 C280 0.929 . S
H287 C281 0.930 . S
Mn288 O293 2.095 . S
Mn288 O303 2.162 . S
Mn288 O304 2.297 . S
Mn288 O312 2.385 . S
Mn288 O313 2.209 . S
Mn288 O314 2.094 . S
Mn289 O294 2.121 . S
Mn289 N296 2.257 . S
Mn289 N305 2.282 . S
Mn289 O313 2.215 . S
Mn289 O315 2.117 . S
C290 O312 1.234 . S
C290 O313 1.283 . S
C291 O303 1.281 . S
C291 O304 1.236 . S
C292 O314 1.240 . S
C292 O315 1.264 . S
O293 Mn288 2.095 . S
O293 C302 1.250 . S
O294 Mn289 2.121 . S
O294 C302 1.258 . S
C295 N296 1.326 . S
C295 C299 1.460 . S
C295 H301 0.929 . S
N296 Mn289 2.257 . S
N296 C295 1.326 . S
N296 C300 1.362 . S
C297 C298 1.258 . S
C297 C300 1.431 . S
C297 C317 1.449 . S
C298 C297 1.258 . S
C298 C299 1.477 . S
C298 H318 0.931 . S
C299 C295 1.460 . S
C299 C298 1.477 . S
C299 H319 0.930 . S
C300 N296 1.362 . S
C300 C297 1.431 . S
C300 C310 1.476 . S
H301 C295 0.929 . S
C302 O293 1.250 . S
C302 O294 1.258 . S
O303 Mn288 2.162 . S
O303 C291 1.281 . S
O304 Mn288 2.297 . S
O304 C291 1.236 . S
N305 Mn289 2.282 . S
N305 C306 1.328 . S
N305 C310 1.318 . S
C306 N305 1.328 . S
C306 C307 1.457 . S
C306 H311 0.929 . S
C307 C306 1.457 . S
C307 C308 1.291 . S
C307 H320 0.931 . S
C308 C307 1.291 . S
C308 C309 1.373 . S
C308 H321 0.929 1_655 S
C309 C308 1.373 . S
C309 C310 1.396 . S
C309 C316 1.403 . S
C310 C300 1.476 . S
C310 N305 1.318 . S
C310 C309 1.396 . S
H311 C306 0.929 . S
O312 Mn288 2.385 . S
O312 C290 1.234 . S
O313 Mn288 2.209 . S
O313 Mn289 2.215 . S
O313 C290 1.283 . S
O314 Mn288 2.094 . S
O314 C292 1.240 . S
O315 Mn289 2.117 . S
O315 C292 1.264 . S
C316 C309 1.403 . S
C316 C317 1.399 . S
C316 H322 0.929 1_655 S
C317 C297 1.449 . S
C317 C316 1.399 . S
C317 H323 0.930 . S
H318 C298 0.931 . S
H319 C299 0.930 . S
H320 C307 0.931 . S
H321 C308 0.929 1_455 S
H322 C316 0.929 1_455 S
H323 C317 0.930 . S
Mn324 O329 2.095 . S
Mn324 O339 2.162 . S
Mn324 O340 2.297 . S
Mn324 O348 2.385 . S
Mn324 O349 2.209 . S
Mn324 O350 2.094 . S
Mn325 O330 2.121 . S
Mn325 N332 2.257 . S
Mn325 N341 2.282 . S
Mn325 O349 2.215 . S
Mn325 O351 2.117 . S
C326 O348 1.234 . S
C326 O349 1.283 . S
C327 O339 1.281 . S
C327 O340 1.236 . S
C328 O350 1.240 . S
C328 O351 1.264 . S
O329 Mn324 2.095 . S
O329 C338 1.250 . S
O330 Mn325 2.121 . S
O330 C338 1.258 . S
C331 N332 1.326 . S
C331 C335 1.460 . S
C331 H337 0.929 . S
N332 Mn325 2.257 . S
N332 C331 1.326 . S
N332 C336 1.362 . S
C333 C334 1.258 . S
C333 C336 1.431 . S
C333 C353 1.449 . S
C334 C333 1.258 . S
C334 C335 1.477 . S
C334 H354 0.931 . S
C335 C331 1.460 . S
C335 C334 1.477 . S
C335 H355 0.930 . S
C336 N332 1.362 . S
C336 C333 1.431 . S
C336 C346 1.476 . S
H337 C331 0.929 . S
C338 O329 1.250 . S
C338 O330 1.258 . S
O339 Mn324 2.162 . S
O339 C327 1.281 . S
O340 Mn324 2.297 . S
O340 C327 1.236 . S
N341 Mn325 2.282 . S
N341 C342 1.328 . S
N341 C346 1.318 . S
C342 N341 1.328 . S
C342 C343 1.457 . S
C342 H347 0.929 . S
C343 C342 1.457 . S
C343 C344 1.291 . S
C343 H356 0.931 . S
C344 C343 1.291 . S
C344 C345 1.373 . S
C344 H357 0.929 . S
C345 C344 1.373 . S
C345 C346 1.396 . S
C345 C352 1.403 . S
C346 C336 1.476 . S
C346 N341 1.318 . S
C346 C345 1.396 . S
H347 C342 0.929 . S
O348 Mn324 2.385 . S
O348 C326 1.234 . S
O349 Mn324 2.209 . S
O349 Mn325 2.215 . S
O349 C326 1.283 . S
O350 Mn324 2.094 . S
O350 C328 1.240 . S
O351 Mn325 2.117 . S
O351 C328 1.264 . S
C352 C345 1.403 . S
C352 C353 1.399 . S
C352 H358 0.929 . S
C353 C333 1.449 . S
C353 C352 1.399 . S
C353 H359 0.930 . S
H354 C334 0.931 . S
H355 C335 0.930 . S
H356 C343 0.931 . S
H357 C344 0.929 . S
H358 C352 0.929 . S
H359 C353 0.930 . S
Mn360 O365 2.095 . S
Mn360 O375 2.162 . S
Mn360 O376 2.297 . S
Mn360 O384 2.385 . S
Mn360 O385 2.209 . S
Mn360 O386 2.094 . S
Mn361 O366 2.121 . S
Mn361 N368 2.257 1_565 S
Mn361 N377 2.282 1_565 S
Mn361 O385 2.215 . S
Mn361 O387 2.117 . S
C362 O384 1.234 . S
C362 O385 1.283 . S
C363 O375 1.281 . S
C363 O376 1.236 . S
C364 O386 1.240 . S
C364 O387 1.264 . S
O365 Mn360 2.095 . S
O365 C374 1.250 . S
O366 Mn361 2.121 . S
O366 C374 1.258 . S
C367 N368 1.326 . S
C367 C371 1.460 . S
C367 H373 0.929 . S
N368 Mn361 2.257 1_545 S
N368 C367 1.326 . S
N368 C372 1.362 . S
C369 C370 1.258 . S
C369 C372 1.431 . S
C369 C389 1.449 . S
C370 C369 1.258 . S
C370 C371 1.477 . S
C370 H390 0.931 . S
C371 C367 1.460 . S
C371 C370 1.477 . S
C371 H391 0.930 . S
C372 N368 1.362 . S
C372 C369 1.431 . S
C372 C382 1.476 . S
H373 C367 0.929 . S
C374 O365 1.250 . S
C374 O366 1.258 . S
O375 Mn360 2.162 . S
O375 C363 1.281 . S
O376 Mn360 2.297 . S
O376 C363 1.236 . S
N377 Mn361 2.282 1_545 S
N377 C378 1.328 1_545 S
N377 C382 1.318 . S
C378 N377 1.328 1_565 S
C378 C379 1.457 . S
C378 H383 0.929 . S
C379 C378 1.457 . S
C379 C380 1.291 1_565 S
C379 H392 0.931 . S
C380 C379 1.291 1_545 S
C380 C381 1.373 . S
C380 H393 0.929 . S
C381 C380 1.373 . S
C381 C382 1.396 . S
C381 C388 1.403 . S
C382 C372 1.476 . S
C382 N377 1.318 . S
C382 C381 1.396 . S
H383 C378 0.929 . S
O384 Mn360 2.385 . S
O384 C362 1.234 . S
O385 Mn360 2.209 . S
O385 Mn361 2.215 . S
O385 C362 1.283 . S
O386 Mn360 2.094 . S
O386 C364 1.240 . S
O387 Mn361 2.117 . S
O387 C364 1.264 . S
C388 C381 1.403 . S
C388 C389 1.399 . S
C388 H394 0.929 . S
C389 C369 1.449 . S
C389 C388 1.399 . S
C389 H395 0.930 . S
H390 C370 0.931 . S
H391 C371 0.930 . S
H392 C379 0.931 . S
H393 C380 0.929 . S
H394 C388 0.929 . S
H395 C389 0.930 . S
Mn396 O401 2.095 . S
Mn396 O411 2.162 . S
Mn396 O412 2.297 . S
Mn396 O420 2.385 . S
Mn396 O421 2.209 . S
Mn396 O422 2.094 . S
Mn397 O402 2.121 . S
Mn397 N404 2.257 1_455 S
Mn397 N413 2.282 1_455 S
Mn397 O421 2.215 . S
Mn397 O423 2.117 . S
C398 O420 1.234 . S
C398 O421 1.283 . S
C399 O411 1.281 . S
C399 O412 1.236 . S
C400 O422 1.240 . S
C400 O423 1.264 . S
O401 Mn396 2.095 . S
O401 C410 1.250 . S
O402 Mn397 2.121 . S
O402 C410 1.258 . S
C403 N404 1.326 . S
C403 C407 1.460 . S
C403 H409 0.929 . S
N404 Mn397 2.257 1_655 S
N404 C403 1.326 . S
N404 C408 1.362 . S
C405 C406 1.258 . S
C405 C408 1.431 . S
C405 C425 1.449 . S
C406 C405 1.258 . S
C406 C407 1.477 . S
C406 H426 0.931 . S
C407 C403 1.460 . S
C407 C406 1.477 . S
C407 H427 0.930 . S
C408 N404 1.362 . S
C408 C405 1.431 . S
C408 C418 1.476 . S
H409 C403 0.929 . S
C410 O401 1.250 . S
C410 O402 1.258 . S
O411 Mn396 2.162 . S
O411 C399 1.281 . S
O412 Mn396 2.297 . S
O412 C399 1.236 . S
N413 Mn397 2.282 1_655 S
N413 C414 1.328 1_655 S
N413 C418 1.318 . S
C414 N413 1.328 1_455 S
C414 C415 1.457 . S
C414 H419 0.929 . S
C415 C414 1.457 . S
C415 C416 1.291 1_455 S
C415 H428 0.931 . S
C416 C415 1.291 1_655 S
C416 C417 1.373 . S
C416 H429 0.929 1_545 S
C417 C416 1.373 . S
C417 C418 1.396 . S
C417 C424 1.403 . S
C418 C408 1.476 . S
C418 N413 1.318 . S
C418 C417 1.396 . S
H419 C414 0.929 . S
O420 Mn396 2.385 . S
O420 C398 1.234 . S
O421 Mn396 2.209 . S
O421 Mn397 2.215 . S
O421 C398 1.283 . S
O422 Mn396 2.094 . S
O422 C400 1.240 . S
O423 Mn397 2.117 . S
O423 C400 1.264 . S
C424 C417 1.403 . S
C424 C425 1.399 . S
C424 H430 0.929 1_545 S
C425 C405 1.449 . S
C425 C424 1.399 . S
C425 H431 0.930 . S
H426 C406 0.931 . S
H427 C407 0.930 . S
H428 C415 0.931 . S
H429 C416 0.929 1_565 S
H430 C424 0.929 1_565 S
H431 C425 0.930 . S
Mn432 O437 2.095 . S
Mn432 O447 2.162 . S
Mn432 O448 2.297 . S
Mn432 O456 2.385 . S
Mn432 O457 2.209 . S
Mn432 O458 2.094 . S
Mn433 O438 2.121 . S
Mn433 N440 2.257 1_565 S
Mn433 N449 2.282 1_565 S
Mn433 O457 2.215 . S
Mn433 O459 2.117 . S
C434 O456 1.234 . S
C434 O457 1.283 . S
C435 O447 1.281 . S
C435 O448 1.236 . S
C436 O458 1.240 . S
C436 O459 1.264 . S
O437 Mn432 2.095 . S
O437 C446 1.250 . S
O438 Mn433 2.121 . S
O438 C446 1.258 . S
C439 N440 1.326 . S
C439 C443 1.460 . S
C439 H445 0.929 . S
N440 Mn433 2.257 1_545 S
N440 C439 1.326 . S
N440 C444 1.362 . S
C441 C442 1.258 . S
C441 C444 1.431 . S
C441 C461 1.449 . S
C442 C441 1.258 . S
C442 C443 1.477 . S
C442 H462 0.931 . S
C443 C439 1.460 . S
C443 C442 1.477 . S
C443 H463 0.930 . S
C444 N440 1.362 . S
C444 C441 1.431 . S
C444 C454 1.476 . S
H445 C439 0.929 . S
C446 O437 1.250 . S
C446 O438 1.258 . S
O447 Mn432 2.162 . S
O447 C435 1.281 . S
O448 Mn432 2.297 . S
O448 C435 1.236 . S
N449 Mn433 2.282 1_545 S
N449 C450 1.328 1_545 S
N449 C454 1.318 . S
C450 N449 1.328 1_565 S
C450 C451 1.457 . S
C450 H455 0.929 . S
C451 C450 1.457 . S
C451 C452 1.291 1_565 S
C451 H464 0.931 . S
C452 C451 1.291 1_545 S
C452 C453 1.373 . S
C452 H465 0.929 1_655 S
C453 C452 1.373 . S
C453 C454 1.396 . S
C453 C460 1.403 . S
C454 C444 1.476 . S
C454 N449 1.318 . S
C454 C453 1.396 . S
H455 C450 0.929 . S
O456 Mn432 2.385 . S
O456 C434 1.234 . S
O457 Mn432 2.209 . S
O457 Mn433 2.215 . S
O457 C434 1.283 . S
O458 Mn432 2.094 . S
O458 C436 1.240 . S
O459 Mn433 2.117 . S
O459 C436 1.264 . S
C460 C453 1.403 . S
C460 C461 1.399 . S
C460 H466 0.929 1_655 S
C461 C441 1.449 . S
C461 C460 1.399 . S
C461 H467 0.930 . S
H462 C442 0.931 . S
H463 C443 0.930 . S
H464 C451 0.931 . S
H465 C452 0.929 1_455 S
H466 C460 0.929 1_455 S
H467 C461 0.930 . S
Mn468 O473 2.095 . S
Mn468 O483 2.162 . S
Mn468 O484 2.297 . S
Mn468 O492 2.385 . S
Mn468 O493 2.209 . S
Mn468 O494 2.094 . S
Mn469 O474 2.121 . S
Mn469 N476 2.257 1_455 S
Mn469 N485 2.282 1_455 S
Mn469 O493 2.215 . S
Mn469 O495 2.117 . S
C470 O492 1.234 . S
C470 O493 1.283 . S
C471 O483 1.281 . S
C471 O484 1.236 . S
C472 O494 1.240 . S
C472 O495 1.264 . S
O473 Mn468 2.095 . S
O473 C482 1.250 . S
O474 Mn469 2.121 . S
O474 C482 1.258 . S
C475 N476 1.326 . S
C475 C479 1.460 . S
C475 H481 0.929 . S
N476 Mn469 2.257 1_655 S
N476 C475 1.326 . S
N476 C480 1.362 . S
C477 C478 1.258 . S
C477 C480 1.431 . S
C477 C497 1.449 . S
C478 C477 1.258 . S
C478 C479 1.477 . S
C478 H498 0.931 . S
C479 C475 1.460 . S
C479 C478 1.477 . S
C479 H499 0.930 . S
C480 N476 1.362 . S
C480 C477 1.431 . S
C480 C490 1.476 . S
H481 C475 0.929 . S
C482 O473 1.250 . S
C482 O474 1.258 . S
O483 Mn468 2.162 . S
O483 C471 1.281 . S
O484 Mn468 2.297 . S
O484 C471 1.236 . S
N485 Mn469 2.282 1_655 S
N485 C486 1.328 1_655 S
N485 C490 1.318 . S
C486 N485 1.328 1_455 S
C486 C487 1.457 . S
C486 H491 0.929 . S
C487 C486 1.457 . S
C487 C488 1.291 1_455 S
C487 H500 0.931 . S
C488 C487 1.291 1_655 S
C488 C489 1.373 . S
C488 H501 0.929 . S
C489 C488 1.373 . S
C489 C490 1.396 . S
C489 C496 1.403 . S
C490 C480 1.476 . S
C490 N485 1.318 . S
C490 C489 1.396 . S
H491 C486 0.929 . S
O492 Mn468 2.385 . S
O492 C470 1.234 . S
O493 Mn468 2.209 . S
O493 Mn469 2.215 . S
O493 C470 1.283 . S
O494 Mn468 2.094 . S
O494 C472 1.240 . S
O495 Mn469 2.117 . S
O495 C472 1.264 . S
C496 C489 1.403 . S
C496 C497 1.399 . S
C496 H502 0.929 . S
C497 C477 1.449 . S
C497 C496 1.399 . S
C497 H503 0.930 . S
H498 C478 0.931 . S
H499 C479 0.930 . S
H500 C487 0.931 . S
H501 C488 0.929 . S
H502 C496 0.929 . S
H503 C497 0.930 . S
Mn504 O509 2.095 . S
Mn504 O519 2.162 . S
Mn504 O520 2.297 . S
Mn504 O528 2.385 . S
Mn504 O529 2.209 . S
Mn504 O530 2.094 . S
Mn505 O510 2.121 . S
Mn505 N512 2.257 . S
Mn505 N521 2.282 . S
Mn505 O529 2.215 . S
Mn505 O531 2.117 . S
C506 O528 1.234 . S
C506 O529 1.283 . S
C507 O519 1.281 . S
C507 O520 1.236 . S
C508 O530 1.240 . S
C508 O531 1.264 . S
O509 Mn504 2.095 . S
O509 C518 1.250 . S
O510 Mn505 2.121 . S
O510 C518 1.258 . S
C511 N512 1.326 . S
C511 C515 1.460 . S
C511 H517 0.929 . S
N512 Mn505 2.257 . S
N512 C511 1.326 . S
N512 C516 1.362 . S
C513 C514 1.258 . S
C513 C516 1.431 . S
C513 C533 1.449 . S
C514 C513 1.258 . S
C514 C515 1.477 . S
C514 H534 0.931 . S
C515 C511 1.460 . S
C515 C514 1.477 . S
C515 H535 0.930 . S
C516 N512 1.362 . S
C516 C513 1.431 . S
C516 C526 1.476 . S
H517 C511 0.929 . S
C518 O509 1.250 . S
C518 O510 1.258 . S
O519 Mn504 2.162 . S
O519 C507 1.281 . S
O520 Mn504 2.297 . S
O520 C507 1.236 . S
N521 Mn505 2.282 . S
N521 C522 1.328 . S
N521 C526 1.318 . S
C522 N521 1.328 . S
C522 C523 1.457 . S
C522 H527 0.929 . S
C523 C522 1.457 . S
C523 C524 1.291 . S
C523 H536 0.931 . S
C524 C523 1.291 . S
C524 C525 1.373 . S
C524 H537 0.929 . S
C525 C524 1.373 . S
C525 C526 1.396 . S
C525 C532 1.403 . S
C526 C516 1.476 . S
C526 N521 1.318 . S
C526 C525 1.396 . S
H527 C522 0.929 . S
O528 Mn504 2.385 . S
O528 C506 1.234 . S
O529 Mn504 2.209 . S
O529 Mn505 2.215 . S
O529 C506 1.283 . S
O530 Mn504 2.094 . S
O530 C508 1.240 . S
O531 Mn505 2.117 . S
O531 C508 1.264 . S
C532 C525 1.403 . S
C532 C533 1.399 . S
C532 H538 0.929 . S
C533 C513 1.449 . S
C533 C532 1.399 . S
C533 H539 0.930 . S
H534 C514 0.931 . S
H535 C515 0.930 . S
H536 C523 0.931 . S
H537 C524 0.929 . S
H538 C532 0.929 . S
H539 C533 0.930 . S
Mn540 O545 2.095 . S
Mn540 O555 2.162 . S
Mn540 O556 2.297 . S
Mn540 O564 2.385 . S
Mn540 O565 2.209 . S
Mn540 O566 2.094 . S
Mn541 O546 2.121 . S
Mn541 N548 2.257 . S
Mn541 N557 2.282 . S
Mn541 O565 2.215 . S
Mn541 O567 2.117 . S
C542 O564 1.234 . S
C542 O565 1.283 . S
C543 O555 1.281 . S
C543 O556 1.236 . S
C544 O566 1.240 . S
C544 O567 1.264 . S
O545 Mn540 2.095 . S
O545 C554 1.250 . S
O546 Mn541 2.121 . S
O546 C554 1.258 . S
C547 N548 1.326 . S
C547 C551 1.460 . S
C547 H553 0.929 . S
N548 Mn541 2.257 . S
N548 C547 1.326 . S
N548 C552 1.362 . S
C549 C550 1.258 . S
C549 C552 1.431 . S
C549 C569 1.449 . S
C550 C549 1.258 . S
C550 C551 1.477 . S
C550 H570 0.931 . S
C551 C547 1.460 . S
C551 C550 1.477 . S
C551 H571 0.930 . S
C552 N548 1.362 . S
C552 C549 1.431 . S
C552 C562 1.476 . S
H553 C547 0.929 . S
C554 O545 1.250 . S
C554 O546 1.258 . S
O555 Mn540 2.162 . S
O555 C543 1.281 . S
O556 Mn540 2.297 . S
O556 C543 1.236 . S
N557 Mn541 2.282 . S
N557 C558 1.328 . S
N557 C562 1.318 . S
C558 N557 1.328 . S
C558 C559 1.457 . S
C558 H563 0.929 . S
C559 C558 1.457 . S
C559 C560 1.291 . S
C559 H572 0.931 . S
C560 C559 1.291 . S
C560 C561 1.373 . S
C560 H573 0.929 1_545 S
C561 C560 1.373 . S
C561 C562 1.396 . S
C561 C568 1.403 . S
C562 C552 1.476 . S
C562 N557 1.318 . S
C562 C561 1.396 . S
H563 C558 0.929 . S
O564 Mn540 2.385 . S
O564 C542 1.234 . S
O565 Mn540 2.209 . S
O565 Mn541 2.215 . S
O565 C542 1.283 . S
O566 Mn540 2.094 . S
O566 C544 1.240 . S
O567 Mn541 2.117 . S
O567 C544 1.264 . S
C568 C561 1.403 . S
C568 C569 1.399 . S
C568 H574 0.929 1_545 S
C569 C549 1.449 . S
C569 C568 1.399 . S
C569 H575 0.930 . S
H570 C550 0.931 . S
H571 C551 0.930 . S
H572 C559 0.931 . S
H573 C560 0.929 1_565 S
H574 C568 0.929 1_565 S
H575 C569 0.930 . S
C576 C577 1.363 1_545 S
C576 C582 1.379 1_655 S
C576 N584 1.356 . S
C577 C576 1.363 1_565 S
C577 C583 1.363 . S
C578 C579 1.363 1_565 S
C578 C583 1.379 1_455 S
C578 N585 1.356 . S
C579 C578 1.363 1_545 S
C579 C582 1.363 . S
N580 C582 1.356 . S
N580 H592 0.984 . S
N580 H593 0.985 . S
N581 C583 1.356 . S
N581 H586 0.984 . S
N581 H587 0.985 . S
C582 C576 1.379 1_455 S
C582 C579 1.363 . S
C582 N580 1.356 . S
C583 C577 1.363 . S
C583 C578 1.379 1_655 S
C583 N581 1.356 . S
N584 C576 1.356 . S
N584 H590 0.984 . S
N584 H591 0.984 1_545 S
N585 C578 1.356 . S
N585 H588 0.984 1_565 S
N585 H589 0.985 . S
H586 N581 0.984 . S
H587 N581 0.985 . S
H588 N585 0.984 1_545 S
H589 N585 0.985 . S
H590 N584 0.984 . S
H591 N584 0.984 1_565 S
H592 N580 0.984 . S
H593 N580 0.985 . S
C594 C595 1.363 . S
C594 C600 1.379 . S
C594 N602 1.356 . S
C595 C594 1.363 . S
C595 C601 1.363 1_655 S
C596 C597 1.363 . S
C596 C601 1.379 . S
C596 N603 1.356 . S
C597 C596 1.363 . S
C597 C600 1.363 1_455 S
N598 C600 1.356 . S
N598 H610 0.984 . S
N598 H611 0.985 1_655 S
N599 C601 1.356 . S
N599 H604 0.984 1_455 S
N599 H605 0.985 . S
C600 C594 1.379 . S
C600 C597 1.363 1_655 S
C600 N598 1.356 . S
C601 C595 1.363 1_455 S
C601 C596 1.379 . S
C601 N599 1.356 . S
N602 C594 1.356 . S
N602 H608 0.984 . S
N602 H609 0.984 . S
N603 C596 1.356 . S
N603 H606 0.984 . S
N603 H607 0.985 . S
H604 N599 0.984 1_655 S
H605 N599 0.985 . S
H606 N603 0.984 . S
H607 N603 0.985 . S
H608 N602 0.984 . S
H609 N602 0.984 . S
H610 N598 0.984 . S
H611 N598 0.985 1_455 S
C612 C613 1.363 . S
C612 C618 1.379 . S
C612 N620 1.356 . S
C613 C612 1.363 . S
C613 C619 1.363 . S
C614 C615 1.363 . S
C614 C619 1.379 . S
C614 N621 1.356 . S
C615 C614 1.363 . S
C615 C618 1.363 . S
N616 C618 1.356 . S
N616 H628 0.984 . S
N616 H629 0.985 . S
N617 C619 1.356 . S
N617 H622 0.984 . S
N617 H623 0.985 . S
C618 C612 1.379 . S
C618 C615 1.363 . S
C618 N616 1.356 . S
C619 C613 1.363 . S
C619 C614 1.379 . S
C619 N617 1.356 . S
N620 C612 1.356 . S
N620 H626 0.984 . S
N620 H627 0.984 . S
N621 C614 1.356 . S
N621 H624 0.984 . S
N621 H625 0.985 . S
H622 N617 0.984 . S
H623 N617 0.985 . S
H624 N621 0.984 . S
H625 N621 0.985 . S
H626 N620 0.984 . S
H627 N620 0.984 . S
H628 N616 0.984 . S
H629 N616 0.985 . S
C630 C631 1.363 . S
C630 C636 1.379 1_545 S
C630 N638 1.356 . S
C631 C630 1.363 . S
C631 C637 1.363 . S
C632 C633 1.363 . S
C632 C637 1.379 1_565 S
C632 N639 1.356 . S
C633 C632 1.363 . S
C633 C636 1.363 . S
N634 C636 1.356 . S
N634 H646 0.984 . S
N634 H647 0.985 . S
N635 C637 1.356 . S
N635 H640 0.984 . S
N635 H641 0.985 . S
C636 C630 1.379 1_565 S
C636 C633 1.363 . S
C636 N634 1.356 . S
C637 C631 1.363 . S
C637 C632 1.379 1_545 S
C637 N635 1.356 . S
N638 C630 1.356 . S
N638 H644 0.984 . S
N638 H645 0.984 . S
N639 C632 1.356 . S
N639 H642 0.984 . S
N639 H643 0.985 . S
H640 N635 0.984 . S
H641 N635 0.985 . S
H642 N639 0.984 . S
H643 N639 0.985 . S
H644 N638 0.984 . S
H645 N638 0.984 . S
H646 N634 0.984 . S
H647 N634 0.985 . S
C648 C649 1.363 . S
C648 C654 1.379 1_455 S
C648 N656 1.356 . S
C649 C648 1.363 . S
C649 C655 1.363 . S
C650 C651 1.363 . S
C650 C655 1.379 1_655 S
C650 N657 1.356 . S
C651 C650 1.363 . S
C651 C654 1.363 . S
N652 C654 1.356 . S
N652 H664 0.984 . S
N652 H665 0.985 . S
N653 C655 1.356 . S
N653 H658 0.984 . S
N653 H659 0.985 . S
C654 C648 1.379 1_655 S
C654 C651 1.363 . S
C654 N652 1.356 . S
C655 C649 1.363 . S
C655 C650 1.379 1_455 S
C655 N653 1.356 . S
N656 C648 1.356 . S
N656 H662 0.984 . S
N656 H663 0.984 . S
N657 C650 1.356 . S
N657 H660 0.984 . S
N657 H661 0.985 . S
H658 N653 0.984 . S
H659 N653 0.985 . S
H660 N657 0.984 . S
H661 N657 0.985 . S
H662 N656 0.984 . S
H663 N656 0.984 . S
H664 N652 0.984 . S
H665 N652 0.985 . S
C666 C667 1.363 . S
C666 C672 1.379 . S
C666 N674 1.356 . S
C667 C666 1.363 . S
C667 C673 1.363 . S
C668 C669 1.363 . S
C668 C673 1.379 . S
C668 N675 1.356 . S
C669 C668 1.363 . S
C669 C672 1.363 . S
N670 C672 1.356 . S
N670 H682 0.984 . S
N670 H683 0.985 . S
N671 C673 1.356 . S
N671 H676 0.984 . S
N671 H677 0.985 . S
C672 C666 1.379 . S
C672 C669 1.363 . S
C672 N670 1.356 . S
C673 C667 1.363 . S
C673 C668 1.379 . S
C673 N671 1.356 . S
N674 C666 1.356 . S
N674 H680 0.984 . S
N674 H681 0.984 . S
N675 C668 1.356 . S
N675 H678 0.984 . S
N675 H679 0.985 . S
H676 N671 0.984 . S
H677 N671 0.985 . S
H678 N675 0.984 . S
H679 N675 0.985 . S
H680 N674 0.984 . S
H681 N674 0.984 . S
H682 N670 0.984 . S
H683 N670 0.985 . S
C684 C685 1.363 1_565 S
C684 C690 1.379 . S
C684 N692 1.356 . S
C685 C684 1.363 1_545 S
C685 C691 1.363 . S
C686 C687 1.363 1_545 S
C686 C691 1.379 . S
C686 N693 1.356 . S
C687 C686 1.363 1_565 S
C687 C690 1.363 . S
N688 C690 1.356 . S
N688 H700 0.984 . S
N688 H701 0.985 . S
N689 C691 1.356 . S
N689 H694 0.984 . S
N689 H695 0.985 . S
C690 C684 1.379 . S
C690 C687 1.363 . S
C690 N688 1.356 . S
C691 C685 1.363 . S
C691 C686 1.379 . S
C691 N689 1.356 . S
N692 C684 1.356 . S
N692 H698 0.984 . S
N692 H699 0.984 1_565 S
N693 C686 1.356 . S
N693 H696 0.984 1_545 S
N693 H697 0.985 . S
H694 N689 0.984 . S
H695 N689 0.985 . S
H696 N693 0.984 1_565 S
H697 N693 0.985 . S
H698 N692 0.984 . S
H699 N692 0.984 1_545 S
H700 N688 0.984 . S
H701 N688 0.985 . S
C702 C703 1.363 . S
C702 C708 1.379 1_545 S
C702 N710 1.356 . S
C703 C702 1.363 . S
C703 C709 1.363 1_455 S
C704 C705 1.363 . S
C704 C709 1.379 1_565 S
C704 N711 1.356 . S
C705 C704 1.363 . S
C705 C708 1.363 1_655 S
N706 C708 1.356 . S
N706 H718 0.984 . S
N706 H719 0.985 1_455 S
N707 C709 1.356 . S
N707 H712 0.984 1_655 S
N707 H713 0.985 . S
C708 C702 1.379 1_565 S
C708 C705 1.363 1_455 S
C708 N706 1.356 . S
C709 C703 1.363 1_655 S
C709 C704 1.379 1_545 S
C709 N707 1.356 . S
N710 C702 1.356 . S
N710 H716 0.984 . S
N710 H717 0.984 . S
N711 C704 1.356 . S
N711 H714 0.984 . S
N711 H715 0.985 . S
H712 N707 0.984 1_455 S
H713 N707 0.985 . S
H714 N711 0.984 . S
H715 N711 0.985 . S
H716 N710 0.984 . S
H717 N710 0.984 . S
H718 N706 0.984 . S
H719 N706 0.985 1_655 S
C720 C721 1.363 . S
C720 C726 1.379 . S
C720 N728 1.356 . S
C721 C720 1.363 . S
C721 C727 1.363 1_565 S
C722 C723 1.363 . S
C722 C727 1.379 . S
C722 N729 1.356 . S
C723 C722 1.363 . S
C723 C726 1.363 1_545 S
N724 C726 1.356 . S
N724 H736 0.984 . S
N724 H737 0.985 1_565 S
N725 C727 1.356 . S
N725 H730 0.984 1_545 S
N725 H731 0.985 . S
C726 C720 1.379 . S
C726 C723 1.363 1_565 S
C726 N724 1.356 . S
C727 C721 1.363 1_545 S
C727 C722 1.379 . S
C727 N725 1.356 . S
N728 C720 1.356 . S
N728 H734 0.984 . S
N728 H735 0.984 . S
N729 C722 1.356 . S
N729 H732 0.984 . S
N729 H733 0.985 . S
H730 N725 0.984 1_565 S
H731 N725 0.985 . S
H732 N729 0.984 . S
H733 N729 0.985 . S
H734 N728 0.984 . S
H735 N728 0.984 . S
H736 N724 0.984 . S
H737 N724 0.985 1_545 S
C738 C739 1.363 . S
C738 C744 1.379 1_565 S
C738 N746 1.356 . S
C739 C738 1.363 . S
C739 C745 1.363 1_655 S
C740 C741 1.363 . S
C740 C745 1.379 1_545 S
C740 N747 1.356 . S
C741 C740 1.363 . S
C741 C744 1.363 1_455 S
N742 C744 1.356 . S
N742 H754 0.984 . S
N742 H755 0.985 1_655 S
N743 C745 1.356 . S
N743 H748 0.984 1_455 S
N743 H749 0.985 . S
C744 C738 1.379 1_545 S
C744 C741 1.363 1_655 S
C744 N742 1.356 . S
C745 C739 1.363 1_455 S
C745 C740 1.379 1_565 S
C745 N743 1.356 . S
N746 C738 1.356 . S
N746 H752 0.984 . S
N746 H753 0.984 . S
N747 C740 1.356 . S
N747 H750 0.984 . S
N747 H751 0.985 . S
H748 N743 0.984 1_655 S
H749 N743 0.985 . S
H750 N747 0.984 . S
H751 N747 0.985 . S
H752 N746 0.984 . S
H753 N746 0.984 . S
H754 N742 0.984 . S
H755 N742 0.985 1_455 S
C756 C757 1.363 . S
C756 C762 1.379 1_455 S
C756 N764 1.356 . S
C757 C756 1.363 . S
C757 C763 1.363 . S
C758 C759 1.363 . S
C758 C763 1.379 1_655 S
C758 N765 1.356 . S
C759 C758 1.363 . S
C759 C762 1.363 . S
N760 C762 1.356 . S
N760 H772 0.984 . S
N760 H773 0.985 . S
N761 C763 1.356 . S
N761 H766 0.984 . S
N761 H767 0.985 . S
C762 C756 1.379 1_655 S
C762 C759 1.363 . S
C762 N760 1.356 . S
C763 C757 1.363 . S
C763 C758 1.379 1_455 S
C763 N761 1.356 . S
N764 C756 1.356 . S
N764 H770 0.984 . S
N764 H771 0.984 . S
N765 C758 1.356 . S
N765 H768 0.984 . S
N765 H769 0.985 . S
H766 N761 0.984 . S
H767 N761 0.985 . S
H768 N765 0.984 . S
H769 N765 0.985 . S
H770 N764 0.984 . S
H771 N764 0.984 . S
H772 N760 0.984 . S
H773 N760 0.985 . S
C774 C775 1.363 . S
C774 C780 1.379 . S
C774 N782 1.356 . S
C775 C774 1.363 . S
C775 C781 1.363 . S
C776 C777 1.363 . S
C776 C781 1.379 . S
C776 N783 1.356 . S
C777 C776 1.363 . S
C777 C780 1.363 . S
N778 C780 1.356 . S
N778 H790 0.984 . S
N778 H791 0.985 . S
N779 C781 1.356 . S
N779 H784 0.984 . S
N779 H785 0.985 . S
C780 C774 1.379 . S
C780 C777 1.363 . S
C780 N778 1.356 . S
C781 C775 1.363 . S
C781 C776 1.379 . S
C781 N779 1.356 . S
N782 C774 1.356 . S
N782 H788 0.984 . S
N782 H789 0.984 . S
N783 C776 1.356 . S
N783 H786 0.984 . S
N783 H787 0.985 . S
H784 N779 0.984 . S
H785 N779 0.985 . S
H786 N783 0.984 . S
H787 N783 0.985 . S
H788 N782 0.984 . S
H789 N782 0.984 . S
H790 N778 0.984 . S
H791 N778 0.985 . S
C792 C793 1.363 . S
C792 C798 1.379 . S
C792 N800 1.356 . S
C793 C792 1.363 . S
C793 C799 1.363 . S
C794 C795 1.363 . S
C794 C799 1.379 . S
C794 N801 1.356 . S
C795 C794 1.363 . S
C795 C798 1.363 . S
N796 C798 1.356 . S
N796 H808 0.984 . S
N796 H809 0.985 . S
N797 C799 1.356 . S
N797 H802 0.984 . S
N797 H803 0.985 . S
C798 C792 1.379 . S
C798 C795 1.363 . S
C798 N796 1.356 . S
C799 C793 1.363 . S
C799 C794 1.379 . S
C799 N797 1.356 . S
N800 C792 1.356 . S
N800 H806 0.984 . S
N800 H807 0.984 . S
N801 C794 1.356 . S
N801 H804 0.984 . S
N801 H805 0.985 . S
H802 N797 0.984 . S
H803 N797 0.985 . S
H804 N801 0.984 . S
H805 N801 0.985 . S
H806 N800 0.984 . S
H807 N800 0.984 . S
H808 N796 0.984 . S
H809 N796 0.985 . S
C810 C811 1.363 . S
C810 C816 1.379 1_565 S
C810 N818 1.356 . S
C811 C810 1.363 . S
C811 C817 1.363 . S
C812 C813 1.363 . S
C812 C817 1.379 1_545 S
C812 N819 1.356 . S
C813 C812 1.363 . S
C813 C816 1.363 . S
N814 C816 1.356 . S
N814 H826 0.984 . S
N814 H827 0.985 . S
N815 C817 1.356 . S
N815 H820 0.984 . S
N815 H821 0.985 . S
C816 C810 1.379 1_545 S
C816 C813 1.363 . S
C816 N814 1.356 . S
C817 C811 1.363 . S
C817 C812 1.379 1_565 S
C817 N815 1.356 . S
N818 C810 1.356 . S
N818 H824 0.984 . S
N818 H825 0.984 . S
N819 C812 1.356 . S
N819 H822 0.984 . S
N819 H823 0.985 . S
H820 N815 0.984 . S
H821 N815 0.985 . S
H822 N819 0.984 . S
H823 N819 0.985 . S
H824 N818 0.984 . S
H825 N818 0.984 . S
H826 N814 0.984 . S
H827 N814 0.985 . S
C828 C829 1.363 1_545 S
C828 C834 1.379 1_655 S
C828 N836 1.356 . S
C829 C828 1.363 1_565 S
C829 C835 1.363 . S
C830 C831 1.363 1_565 S
C830 C835 1.379 1_455 S
C830 N837 1.356 . S
C831 C830 1.363 1_545 S
C831 C834 1.363 . S
N832 C834 1.356 . S
N832 H844 0.984 . S
N832 H845 0.985 . S
N833 C835 1.356 . S
N833 H838 0.984 . S
N833 H839 0.985 . S
C834 C828 1.379 1_455 S
C834 C831 1.363 . S
C834 N832 1.356 . S
C835 C829 1.363 . S
C835 C830 1.379 1_655 S
C835 N833 1.356 . S
N836 C828 1.356 . S
N836 H842 0.984 . S
N836 H843 0.984 1_545 S
N837 C830 1.356 . S
N837 H840 0.984 1_565 S
N837 H841 0.985 . S
H838 N833 0.984 . S
H839 N833 0.985 . S
H840 N837 0.984 1_545 S
H841 N837 0.985 . S
H842 N836 0.984 . S
H843 N836 0.984 1_565 S
H844 N832 0.984 . S
H845 N832 0.985 . S
C846 C847 1.363 1_655 S
C846 C852 1.379 . S
C846 N854 1.356 . S
C847 C846 1.363 1_455 S
C847 C853 1.363 . S
C848 C849 1.363 1_455 S
C848 C853 1.379 . S
C848 N855 1.356 . S
C849 C848 1.363 1_655 S
C849 C852 1.363 . S
N850 C852 1.356 . S
N850 H862 0.984 . S
N850 H863 0.985 . S
N851 C853 1.356 . S
N851 H856 0.984 . S
N851 H857 0.985 . S
C852 C846 1.379 . S
C852 C849 1.363 . S
C852 N850 1.356 . S
C853 C847 1.363 . S
C853 C848 1.379 . S
C853 N851 1.356 . S
N854 C846 1.356 . S
N854 H860 0.984 . S
N854 H861 0.984 1_655 S
N855 C848 1.356 . S
N855 H858 0.984 1_455 S
N855 H859 0.985 . S
H856 N851 0.984 . S
H857 N851 0.985 . S
H858 N855 0.984 1_655 S
H859 N855 0.985 . S
H860 N854 0.984 . S
H861 N854 0.984 1_455 S
H862 N850 0.984 . S
H863 N850 0.985 . S
C864 C865 1.363 . S
C864 C870 1.379 . S
C864 N872 1.356 . S
C865 C864 1.363 . S
C865 C871 1.363 . S
C866 C867 1.363 . S
C866 C871 1.379 . S
C866 N873 1.356 . S
C867 C866 1.363 . S
C867 C870 1.363 . S
N868 C870 1.356 . S
N868 H880 0.984 . S
N868 H881 0.985 . S
N869 C871 1.356 . S
N869 H874 0.984 . S
N869 H875 0.985 . S
C870 C864 1.379 . S
C870 C867 1.363 . S
C870 N868 1.356 . S
C871 C865 1.363 . S
C871 C866 1.379 . S
C871 N869 1.356 . S
N872 C864 1.356 . S
N872 H878 0.984 . S
N872 H879 0.984 . S
N873 C866 1.356 . S
N873 H876 0.984 . S
N873 H877 0.985 . S
H874 N869 0.984 . S
H875 N869 0.985 . S
H876 N873 0.984 . S
H877 N873 0.985 . S
H878 N872 0.984 . S
H879 N872 0.984 . S
H880 N868 0.984 . S
H881 N868 0.985 . S
C882 C883 1.363 . S
C882 C888 1.379 . S
C882 N890 1.356 . S
C883 C882 1.363 . S
C883 C889 1.363 . S
C884 C885 1.363 . S
C884 C889 1.379 . S
C884 N891 1.356 . S
C885 C884 1.363 . S
C885 C888 1.363 . S
N886 C888 1.356 . S
N886 H898 0.984 . S
N886 H899 0.985 . S
N887 C889 1.356 . S
N887 H892 0.984 . S
N887 H893 0.985 . S
C888 C882 1.379 . S
C888 C885 1.363 . S
C888 N886 1.356 . S
C889 C883 1.363 . S
C889 C884 1.379 . S
C889 N887 1.356 . S
N890 C882 1.356 . S
N890 H896 0.984 . S
N890 H897 0.984 . S
N891 C884 1.356 . S
N891 H894 0.984 . S
N891 H895 0.985 . S
H892 N887 0.984 . S
H893 N887 0.985 . S
H894 N891 0.984 . S
H895 N891 0.985 . S
H896 N890 0.984 . S
H897 N890 0.984 . S
H898 N886 0.984 . S
H899 N886 0.985 . S
C900 C901 1.363 . S
C900 C906 1.379 . S
C900 N908 1.356 . S
C901 C900 1.363 . S
C901 C907 1.363 . S
C902 C903 1.363 . S
C902 C907 1.379 . S
C902 N909 1.356 . S
C903 C902 1.363 . S
C903 C906 1.363 . S
N904 C906 1.356 . S
N904 H916 0.984 . S
N904 H917 0.985 . S
N905 C907 1.356 . S
N905 H910 0.984 . S
N905 H911 0.985 . S
C906 C900 1.379 . S
C906 C903 1.363 . S
C906 N904 1.356 . S
C907 C901 1.363 . S
C907 C902 1.379 . S
C907 N905 1.356 . S
N908 C900 1.356 . S
N908 H914 0.984 . S
N908 H915 0.984 . S
N909 C902 1.356 . S
N909 H912 0.984 . S
N909 H913 0.985 . S
H910 N905 0.984 . S
H911 N905 0.985 . S
H912 N909 0.984 . S
H913 N909 0.985 . S
H914 N908 0.984 . S
H915 N908 0.984 . S
H916 N904 0.984 . S
H917 N904 0.985 . S
C918 C919 1.363 . S
C918 C924 1.379 . S
C918 N926 1.356 . S
C919 C918 1.363 . S
C919 C925 1.363 . S
C920 C921 1.363 . S
C920 C925 1.379 . S
C920 N927 1.356 . S
C921 C920 1.363 . S
C921 C924 1.363 . S
N922 C924 1.356 . S
N922 H934 0.984 . S
N922 H935 0.985 . S
N923 C925 1.356 . S
N923 H928 0.984 . S
N923 H929 0.985 . S
C924 C918 1.379 . S
C924 C921 1.363 . S
C924 N922 1.356 . S
C925 C919 1.363 . S
C925 C920 1.379 . S
C925 N923 1.356 . S
N926 C918 1.356 . S
N926 H932 0.984 . S
N926 H933 0.984 . S
N927 C920 1.356 . S
N927 H930 0.984 . S
N927 H931 0.985 . S
H928 N923 0.984 . S
H929 N923 0.985 . S
H930 N927 0.984 . S
H931 N927 0.985 . S
H932 N926 0.984 . S
H933 N926 0.984 . S
H934 N922 0.984 . S
H935 N922 0.985 . S
C936 C937 1.363 . S
C936 C942 1.379 . S
C936 N944 1.356 . S
C937 C936 1.363 . S
C937 C943 1.363 . S
C938 C939 1.363 . S
C938 C943 1.379 . S
C938 N945 1.356 . S
C939 C938 1.363 . S
C939 C942 1.363 . S
N940 C942 1.356 . S
N940 H952 0.984 . S
N940 H953 0.985 . S
N941 C943 1.356 . S
N941 H946 0.984 . S
N941 H947 0.985 . S
C942 C936 1.379 . S
C942 C939 1.363 . S
C942 N940 1.356 . S
C943 C937 1.363 . S
C943 C938 1.379 . S
C943 N941 1.356 . S
N944 C936 1.356 . S
N944 H950 0.984 . S
N944 H951 0.984 . S
N945 C938 1.356 . S
N945 H948 0.984 . S
N945 H949 0.985 . S
H946 N941 0.984 . S
H947 N941 0.985 . S
H948 N945 0.984 . S
H949 N945 0.985 . S
H950 N944 0.984 . S
H951 N944 0.984 . S
H952 N940 0.984 . S
H953 N940 0.985 . S
C954 C955 1.363 . S
C954 C960 1.379 . S
C954 N962 1.356 . S
C955 C954 1.363 . S
C955 C961 1.363 . S
C956 C957 1.363 . S
C956 C961 1.379 . S
C956 N963 1.356 . S
C957 C956 1.363 . S
C957 C960 1.363 . S
N958 C960 1.356 . S
N958 H970 0.984 . S
N958 H971 0.985 . S
N959 C961 1.356 . S
N959 H964 0.984 . S
N959 H965 0.985 . S
C960 C954 1.379 . S
C960 C957 1.363 . S
C960 N958 1.356 . S
C961 C955 1.363 . S
C961 C956 1.379 . S
C961 N959 1.356 . S
N962 C954 1.356 . S
N962 H968 0.984 . S
N962 H969 0.984 . S
N963 C956 1.356 . S
N963 H966 0.984 . S
N963 H967 0.985 . S
H964 N959 0.984 . S
H965 N959 0.985 . S
H966 N963 0.984 . S
H967 N963 0.985 . S
H968 N962 0.984 . S
H969 N962 0.984 . S
H970 N958 0.984 . S
H971 N958 0.985 . S
C972 C973 1.363 . S
C972 C978 1.379 . S
C972 N980 1.356 . S
C973 C972 1.363 . S
C973 C979 1.363 . S
C974 C975 1.363 . S
C974 C979 1.379 . S
C974 N981 1.356 . S
C975 C974 1.363 . S
C975 C978 1.363 . S
N976 C978 1.356 . S
N976 H988 0.984 . S
N976 H989 0.985 . S
N977 C979 1.356 . S
N977 H982 0.984 . S
N977 H983 0.985 . S
C978 C972 1.379 . S
C978 C975 1.363 . S
C978 N976 1.356 . S
C979 C973 1.363 . S
C979 C974 1.379 . S
C979 N977 1.356 . S
N980 C972 1.356 . S
N980 H986 0.984 . S
N980 H987 0.984 . S
N981 C974 1.356 . S
N981 H984 0.984 . S
N981 H985 0.985 . S
H982 N977 0.984 . S
H983 N977 0.985 . S
H984 N981 0.984 . S
H985 N981 0.985 . S
H986 N980 0.984 . S
H987 N980 0.984 . S
H988 N976 0.984 . S
H989 N976 0.985 . S
C990 C991 1.363 . S
C990 C996 1.379 . S
C990 N998 1.356 . S
C991 C990 1.363 . S
C991 C997 1.363 . S
C992 C993 1.363 . S
C992 C997 1.379 . S
C992 N999 1.356 . S
C993 C992 1.363 . S
C993 C996 1.363 . S
N994 C996 1.356 . S
N994 H1006 0.984 . S
N994 H1007 0.985 . S
N995 C997 1.356 . S
N995 H1000 0.984 . S
N995 H1001 0.985 . S
C996 C990 1.379 . S
C996 C993 1.363 . S
C996 N994 1.356 . S
C997 C991 1.363 . S
C997 C992 1.379 . S
C997 N995 1.356 . S
N998 C990 1.356 . S
N998 H1004 0.984 . S
N998 H1005 0.984 . S
N999 C992 1.356 . S
N999 H1002 0.984 . S
N999 H1003 0.985 . S
H1000 N995 0.984 . S
H1001 N995 0.985 . S
H1002 N999 0.984 . S
H1003 N999 0.985 . S
H1004 N998 0.984 . S
H1005 N998 0.984 . S
H1006 N994 0.984 . S
H1007 N994 0.985 . S
C1008 C1009 1.363 . S
C1008 C1014 1.379 . S
C1008 N1016 1.356 . S
C1009 C1008 1.363 . S
C1009 C1015 1.363 . S
C1010 C1011 1.363 . S
C1010 C1015 1.379 . S
C1010 N1017 1.356 . S
C1011 C1010 1.363 . S
C1011 C1014 1.363 . S
N1012 C1014 1.356 . S
N1012 H1024 0.984 . S
N1012 H1025 0.985 . S
N1013 C1015 1.356 . S
N1013 H1018 0.984 . S
N1013 H1019 0.985 . S
C1014 C1008 1.379 . S
C1014 C1011 1.363 . S
C1014 N1012 1.356 . S
C1015 C1009 1.363 . S
C1015 C1010 1.379 . S
C1015 N1013 1.356 . S
N1016 C1008 1.356 . S
N1016 H1022 0.984 . S
N1016 H1023 0.984 . S
N1017 C1010 1.356 . S
N1017 H1020 0.984 . S
N1017 H1021 0.985 . S
H1018 N1013 0.984 . S
H1019 N1013 0.985 . S
H1020 N1017 0.984 . S
H1021 N1017 0.985 . S
H1022 N1016 0.984 . S
H1023 N1016 0.984 . S
H1024 N1012 0.984 . S
H1025 N1012 0.985 . S
C1026 C1027 1.363 . S
C1026 C1032 1.379 . S
C1026 N1034 1.356 . S
C1027 C1026 1.363 . S
C1027 C1033 1.363 . S
C1028 C1029 1.363 . S
C1028 C1033 1.379 . S
C1028 N1035 1.356 . S
C1029 C1028 1.363 . S
C1029 C1032 1.363 . S
N1030 C1032 1.356 . S
N1030 H1042 0.984 . S
N1030 H1043 0.985 . S
N1031 C1033 1.356 . S
N1031 H1036 0.984 . S
N1031 H1037 0.985 . S
C1032 C1026 1.379 . S
C1032 C1029 1.363 . S
C1032 N1030 1.356 . S
C1033 C1027 1.363 . S
C1033 C1028 1.379 . S
C1033 N1031 1.356 . S
N1034 C1026 1.356 . S
N1034 H1040 0.984 . S
N1034 H1041 0.984 . S
N1035 C1028 1.356 . S
N1035 H1038 0.984 . S
N1035 H1039 0.985 . S
H1036 N1031 0.984 . S
H1037 N1031 0.985 . S
H1038 N1035 0.984 . S
H1039 N1035 0.985 . S
H1040 N1034 0.984 . S
H1041 N1034 0.984 . S
H1042 N1030 0.984 . S
H1043 N1030 0.985 . S
C1044 C1045 1.363 . S
C1044 C1050 1.379 . S
C1044 N1052 1.356 . S
C1045 C1044 1.363 . S
C1045 C1051 1.363 . S
C1046 C1047 1.363 . S
C1046 C1051 1.379 . S
C1046 N1053 1.356 . S
C1047 C1046 1.363 . S
C1047 C1050 1.363 . S
N1048 C1050 1.356 . S
N1048 H1060 0.984 . S
N1048 H1061 0.985 . S
N1049 C1051 1.356 . S
N1049 H1054 0.984 . S
N1049 H1055 0.985 . S
C1050 C1044 1.379 . S
C1050 C1047 1.363 . S
C1050 N1048 1.356 . S
C1051 C1045 1.363 . S
C1051 C1046 1.379 . S
C1051 N1049 1.356 . S
N1052 C1044 1.356 . S
N1052 H1058 0.984 . S
N1052 H1059 0.984 . S
N1053 C1046 1.356 . S
N1053 H1056 0.984 . S
N1053 H1057 0.985 . S
H1054 N1049 0.984 . S
H1055 N1049 0.985 . S
H1056 N1053 0.984 . S
H1057 N1053 0.985 . S
H1058 N1052 0.984 . S
H1059 N1052 0.984 . S
H1060 N1048 0.984 . S
H1061 N1048 0.985 . S
C1062 C1063 1.363 . S
C1062 C1068 1.379 1_556 S
C1062 N1070 1.356 . S
C1063 C1062 1.363 . S
C1063 C1069 1.363 . S
C1064 C1065 1.363 . S
C1064 C1069 1.379 1_554 S
C1064 N1071 1.356 . S
C1065 C1064 1.363 . S
C1065 C1068 1.363 . S
N1066 C1068 1.356 . S
N1066 H1078 0.984 . S
N1066 H1079 0.985 . S
N1067 C1069 1.356 . S
N1067 H1072 0.984 . S
N1067 H1073 0.985 . S
C1068 C1062 1.379 1_554 S
C1068 C1065 1.363 . S
C1068 N1066 1.356 . S
C1069 C1063 1.363 . S
C1069 C1064 1.379 1_556 S
C1069 N1067 1.356 . S
N1070 C1062 1.356 . S
N1070 H1076 0.984 . S
N1070 H1077 0.984 . S
N1071 C1064 1.356 . S
N1071 H1074 0.984 . S
N1071 H1075 0.985 . S
H1072 N1067 0.984 . S
H1073 N1067 0.985 . S
H1074 N1071 0.984 . S
H1075 N1071 0.985 . S
H1076 N1070 0.984 . S
H1077 N1070 0.984 . S
H1078 N1066 0.984 . S
H1079 N1066 0.985 . S
C1080 C1081 1.363 . S
C1080 C1086 1.379 1_554 S
C1080 N1088 1.356 . S
C1081 C1080 1.363 . S
C1081 C1087 1.363 . S
C1082 C1083 1.363 . S
C1082 C1087 1.379 1_556 S
C1082 N1089 1.356 . S
C1083 C1082 1.363 . S
C1083 C1086 1.363 . S
N1084 C1086 1.356 . S
N1084 H1096 0.984 . S
N1084 H1097 0.985 . S
N1085 C1087 1.356 . S
N1085 H1090 0.984 . S
N1085 H1091 0.985 . S
C1086 C1080 1.379 1_556 S
C1086 C1083 1.363 . S
C1086 N1084 1.356 . S
C1087 C1081 1.363 . S
C1087 C1082 1.379 1_554 S
C1087 N1085 1.356 . S
N1088 C1080 1.356 . S
N1088 H1094 0.984 . S
N1088 H1095 0.984 . S
N1089 C1082 1.356 . S
N1089 H1092 0.984 . S
N1089 H1093 0.985 . S
H1090 N1085 0.984 . S
H1091 N1085 0.985 . S
H1092 N1089 0.984 . S
H1093 N1089 0.985 . S
H1094 N1088 0.984 . S
H1095 N1088 0.984 . S
H1096 N1084 0.984 . S
H1097 N1084 0.985 . S
C1098 C1099 1.363 . S
C1098 C1104 1.379 . S
C1098 N1106 1.356 . S
C1099 C1098 1.363 . S
C1099 C1105 1.363 . S
C1100 C1101 1.363 . S
C1100 C1105 1.379 . S
C1100 N1107 1.356 . S
C1101 C1100 1.363 . S
C1101 C1104 1.363 . S
N1102 C1104 1.356 . S
N1102 H1114 0.984 . S
N1102 H1115 0.985 . S
N1103 C1105 1.356 . S
N1103 H1108 0.984 . S
N1103 H1109 0.985 . S
C1104 C1098 1.379 . S
C1104 C1101 1.363 . S
C1104 N1102 1.356 . S
C1105 C1099 1.363 . S
C1105 C1100 1.379 . S
C1105 N1103 1.356 . S
N1106 C1098 1.356 . S
N1106 H1112 0.984 . S
N1106 H1113 0.984 . S
N1107 C1100 1.356 . S
N1107 H1110 0.984 . S
N1107 H1111 0.985 . S
H1108 N1103 0.984 . S
H1109 N1103 0.985 . S
H1110 N1107 0.984 . S
H1111 N1107 0.985 . S
H1112 N1106 0.984 . S
H1113 N1106 0.984 . S
H1114 N1102 0.984 . S
H1115 N1102 0.985 . S
C1116 C1117 1.363 . S
C1116 C1122 1.379 . S
C1116 N1124 1.356 . S
C1117 C1116 1.363 . S
C1117 C1123 1.363 . S
C1118 C1119 1.363 . S
C1118 C1123 1.379 . S
C1118 N1125 1.356 . S
C1119 C1118 1.363 . S
C1119 C1122 1.363 . S
N1120 C1122 1.356 . S
N1120 H1132 0.984 . S
N1120 H1133 0.985 . S
N1121 C1123 1.356 . S
N1121 H1126 0.984 . S
N1121 H1127 0.985 . S
C1122 C1116 1.379 . S
C1122 C1119 1.363 . S
C1122 N1120 1.356 . S
C1123 C1117 1.363 . S
C1123 C1118 1.379 . S
C1123 N1121 1.356 . S
N1124 C1116 1.356 . S
N1124 H1130 0.984 . S
N1124 H1131 0.984 . S
N1125 C1118 1.356 . S
N1125 H1128 0.984 . S
N1125 H1129 0.985 . S
H1126 N1121 0.984 . S
H1127 N1121 0.985 . S
H1128 N1125 0.984 . S
H1129 N1125 0.985 . S
H1130 N1124 0.984 . S
H1131 N1124 0.984 . S
H1132 N1120 0.984 . S
H1133 N1120 0.985 . S
C1134 C1135 1.363 . S
C1134 C1140 1.379 . S
C1134 N1142 1.356 . S
C1135 C1134 1.363 . S
C1135 C1141 1.363 . S
C1136 C1137 1.363 . S
C1136 C1141 1.379 . S
C1136 N1143 1.356 . S
C1137 C1136 1.363 . S
C1137 C1140 1.363 . S
N1138 C1140 1.356 . S
N1138 H1150 0.984 . S
N1138 H1151 0.985 . S
N1139 C1141 1.356 . S
N1139 H1144 0.984 . S
N1139 H1145 0.985 . S
C1140 C1134 1.379 . S
C1140 C1137 1.363 . S
C1140 N1138 1.356 . S
C1141 C1135 1.363 . S
C1141 C1136 1.379 . S
C1141 N1139 1.356 . S
N1142 C1134 1.356 . S
N1142 H1148 0.984 . S
N1142 H1149 0.984 . S
N1143 C1136 1.356 . S
N1143 H1146 0.984 . S
N1143 H1147 0.985 . S
H1144 N1139 0.984 . S
H1145 N1139 0.985 . S
H1146 N1143 0.984 . S
H1147 N1143 0.985 . S
H1148 N1142 0.984 . S
H1149 N1142 0.984 . S
H1150 N1138 0.984 . S
H1151 N1138 0.985 . S
C577 C374 1.434 . S
C579 C14 1.434 . S
C595 C50 1.434 . S
C597 C410 1.434 . S
C613 C302 1.434 . S
C615 C86 1.434 . S
C631 C338 1.433 . S
C633 C122 1.433 . S
C649 C158 1.433 . S
C651 C518 1.433 . S
C667 C554 1.434 . S
C669 C194 1.434 . S
C685 C230 1.434 . S
C687 C446 1.434 . S
C703 C482 1.434 . S
C705 C266 1.434 . S
C721 C362 1.523 . S
C723 C2 1.523 . S
C739 C38 1.523 . S
C741 C398 1.523 . S
C757 C74 1.523 . S
C759 C290 1.523 . S
C775 C110 1.522 . S
C777 C326 1.522 . S
C793 C146 1.522 . S
C795 C506 1.522 . S
C811 C182 1.523 . S
C813 C542 1.523 . S
C829 C434 1.523 . S
C831 C218 1.523 . S
C847 C470 1.523 . S
C849 C254 1.523 . S
C865 C4 1.360 . S
C867 C220 1.360 . S
C883 C40 1.360 . S
C885 C256 1.360 . S
C901 C76 1.360 . S
C903 C148 1.360 . S
C919 C112 1.360 . S
C921 C184 1.360 . S
C937 C292 1.360 . S
C939 C508 1.360 . S
C955 C544 1.360 . S
C957 C328 1.360 . S
C973 C364 1.360 . S
C975 C436 1.360 . S
C991 C472 1.360 . S
C993 C400 1.360 . S
C1009 C3 1.415 . S
C1011 C543 1.415 . S
C1027 C435 1.415 . S
C1029 C39 1.415 . S
C1045 C471 1.415 . S
C1047 C75 1.415 . S
C1063 C507 1.415 . S
C1065 C111 1.415 . S
C1081 C327 1.415 . S
C1083 C147 1.415 . S
C1099 C363 1.415 . S
C1101 C183 1.415 . S
C1117 C219 1.415 . S
C1119 C399 1.415 . S
C1135 C255 1.415 . S
C1137 C291 1.415 . S
