# Generated by pormake.
# Topology ecs, (8)-cn, num edge types: 1
# Building blocks:
#     Node 0, Type 0, BuildingBlock: TAGTUT_clean_sbu_1, # of connection points: 8
#     Node 1, Type 0, BuildingBlock: TAGTUT_clean_sbu_1, # of connection points: 8
#     Node 2, Type 0, BuildingBlock: TAGTUT_clean_sbu_1, # of connection points: 8
#     Node 3, Type 0, BuildingBlock: TAGTUT_clean_sbu_1, # of connection points: 8
#     Node 4, Type 0, BuildingBlock: TAGTUT_clean_sbu_1, # of connection points: 8
#     Node 5, Type 0, BuildingBlock: TAGTUT_clean_sbu_1, # of connection points: 8
#     Node 6, Type 0, BuildingBlock: TAGTUT_clean_sbu_1, # of connection points: 8
#     Node 7, Type 0, BuildingBlock: TAGTUT_clean_sbu_1, # of connection points: 8
#     Node 8, Type 0, BuildingBlock: TAGTUT_clean_sbu_1, # of connection points: 8
#     Node 9, Type 0, BuildingBlock: TAGTUT_clean_sbu_1, # of connection points: 8
#     Node 10, Type 0, BuildingBlock: TAGTUT_clean_sbu_1, # of connection points: 8
#     Node 11, Type 0, BuildingBlock: TAGTUT_clean_sbu_1, # of connection points: 8
#     Edge 12, Type (0, 0), BuildingBlock: AJUNOK_clean_linker_0, # of connection points: 2
#     Edge 13, Type (0, 0), BuildingBlock: AJUNOK_clean_linker_0, # of connection points: 2
#     Edge 14, Type (0, 0), BuildingBlock: AJUNOK_clean_linker_0, # of connection points: 2
#     Edge 15, Type (0, 0), BuildingBlock: AJUNOK_clean_linker_0, # of connection points: 2
#     Edge 16, Type (0, 0), BuildingBlock: AJUNOK_clean_linker_0, # of connection points: 2
#     Edge 17, Type (0, 0), BuildingBlock: AJUNOK_clean_linker_0, # of connection points: 2
#     Edge 18, Type (0, 0), BuildingBlock: AJUNOK_clean_linker_0, # of connection points: 2
#     Edge 19, Type (0, 0), BuildingBlock: AJUNOK_clean_linker_0, # of connection points: 2
#     Edge 20, Type (0, 0), BuildingBlock: AJUNOK_clean_linker_0, # of connection points: 2
#     Edge 21, Type (0, 0), BuildingBlock: AJUNOK_clean_linker_0, # of connection points: 2
#     Edge 22, Type (0, 0), BuildingBlock: AJUNOK_clean_linker_0, # of connection points: 2
#     Edge 23, Type (0, 0), BuildingBlock: AJUNOK_clean_linker_0, # of connection points: 2
#     Edge 24, Type (0, 0), BuildingBlock: AJUNOK_clean_linker_0, # of connection points: 2
#     Edge 25, Type (0, 0), BuildingBlock: AJUNOK_clean_linker_0, # of connection points: 2
#     Edge 26, Type (0, 0), BuildingBlock: AJUNOK_clean_linker_0, # of connection points: 2
#     Edge 27, Type (0, 0), BuildingBlock: AJUNOK_clean_linker_0, # of connection points: 2
#     Edge 28, Type (0, 0), BuildingBlock: AJUNOK_clean_linker_0, # of connection points: 2
#     Edge 29, Type (0, 0), BuildingBlock: AJUNOK_clean_linker_0, # of connection points: 2
#     Edge 30, Type (0, 0), BuildingBlock: AJUNOK_clean_linker_0, # of connection points: 2
#     Edge 31, Type (0, 0), BuildingBlock: AJUNOK_clean_linker_0, # of connection points: 2
#     Edge 32, Type (0, 0), BuildingBlock: AJUNOK_clean_linker_0, # of connection points: 2
#     Edge 33, Type (0, 0), BuildingBlock: AJUNOK_clean_linker_0, # of connection points: 2
#     Edge 34, Type (0, 0), BuildingBlock: AJUNOK_clean_linker_0, # of connection points: 2
#     Edge 35, Type (0, 0), BuildingBlock: AJUNOK_clean_linker_0, # of connection points: 2
#     Edge 36, Type (0, 0), BuildingBlock: AJUNOK_clean_linker_0, # of connection points: 2
#     Edge 37, Type (0, 0), BuildingBlock: AJUNOK_clean_linker_0, # of connection points: 2
#     Edge 38, Type (0, 0), BuildingBlock: AJUNOK_clean_linker_0, # of connection points: 2
#     Edge 39, Type (0, 0), BuildingBlock: AJUNOK_clean_linker_0, # of connection points: 2
#     Edge 40, Type (0, 0), BuildingBlock: AJUNOK_clean_linker_0, # of connection points: 2
#     Edge 41, Type (0, 0), BuildingBlock: AJUNOK_clean_linker_0, # of connection points: 2
#     Edge 42, Type (0, 0), BuildingBlock: AJUNOK_clean_linker_0, # of connection points: 2
#     Edge 43, Type (0, 0), BuildingBlock: AJUNOK_clean_linker_0, # of connection points: 2
#     Edge 44, Type (0, 0), BuildingBlock: AJUNOK_clean_linker_0, # of connection points: 2
#     Edge 45, Type (0, 0), BuildingBlock: AJUNOK_clean_linker_0, # of connection points: 2
#     Edge 46, Type (0, 0), BuildingBlock: AJUNOK_clean_linker_0, # of connection points: 2
#     Edge 47, Type (0, 0), BuildingBlock: AJUNOK_clean_linker_0, # of connection points: 2
#     Edge 48, Type (0, 0), BuildingBlock: AJUNOK_clean_linker_0, # of connection points: 2
#     Edge 49, Type (0, 0), BuildingBlock: AJUNOK_clean_linker_0, # of connection points: 2
#     Edge 50, Type (0, 0), BuildingBlock: AJUNOK_clean_linker_0, # of connection points: 2
#     Edge 51, Type (0, 0), BuildingBlock: AJUNOK_clean_linker_0, # of connection points: 2
#     Edge 52, Type (0, 0), BuildingBlock: AJUNOK_clean_linker_0, # of connection points: 2
#     Edge 53, Type (0, 0), BuildingBlock: AJUNOK_clean_linker_0, # of connection points: 2
#     Edge 54, Type (0, 0), BuildingBlock: AJUNOK_clean_linker_0, # of connection points: 2
#     Edge 55, Type (0, 0), BuildingBlock: AJUNOK_clean_linker_0, # of connection points: 2
#     Edge 56, Type (0, 0), BuildingBlock: AJUNOK_clean_linker_0, # of connection points: 2
#     Edge 57, Type (0, 0), BuildingBlock: AJUNOK_clean_linker_0, # of connection points: 2
#     Edge 58, Type (0, 0), BuildingBlock: AJUNOK_clean_linker_0, # of connection points: 2
#     Edge 59, Type (0, 0), BuildingBlock: AJUNOK_clean_linker_0, # of connection points: 2
# Relax obj value: 0.349
# Max RMSD: 0.278
# Mean RMSD: 0.278
data_MOF--net-ecs--node1-TAGTUT_clean_sbu_1--edge1-AJUNOK_clean_linker_0
_symmetry_space_group_name_H-M    P1
_symmetry_Int_Tables_number       1
_symmetry_cell_setting            triclinic
loop_
_symmetry_equiv_pos_as_xyz
'x, y, z'
_cell_length_a     41.036843
_cell_length_b     41.108065
_cell_length_c     21.024991
_cell_angle_alpha  90.183857
_cell_angle_beta   89.963173
_cell_angle_gamma 119.98665
loop_
_atom_site_label
_atom_site_type_symbol
_atom_site_fract_x
_atom_site_fract_y
_atom_site_fract_z
_atom_type_partial_charge
C0 C 0.46652 0.43427 0.05456 0.0
C1 C 0.53898 0.39811 0.0279 0.0
C2 C 0.42624 0.25699 0.0887 0.0
Mg3 Mg 0.50808 0.41495 0.15093 0.0
O4 O 0.46492 0.36878 0.15048 0.0
Mg5 Mg 0.44718 0.3448 0.06429 0.0
Mg6 Mg 0.47057 0.32841 0.18993 0.0
O7 O 0.47782 0.28878 0.22701 0.0
Mg8 Mg 0.45067 0.23701 0.21749 0.0
Mg9 Mg 0.50917 0.31077 0.30368 0.0
C10 C 0.51375 0.39362 0.29709 0.0
C11 C 0.56329 0.36525 0.19671 0.0
O12 O 0.4505 0.40016 0.03472 0.0
O13 O 0.48527 0.44502 0.10652 0.0
O14 O 0.50592 0.37053 0.017 0.0
O15 O 0.54634 0.41724 0.07887 0.0
O16 O 0.52119 0.41677 0.25115 0.0
O17 O 0.49182 0.35798 0.28917 0.0
C18 C 0.38381 0.3118 0.17592 0.0
O19 O 0.40657 0.30709 0.21268 0.0
O20 O 0.39257 0.32284 0.11815 0.0
O21 O 0.53143 0.268 0.28888 0.0
O22 O 0.49669 0.22769 0.21128 0.0
O23 O 0.45827 0.26863 0.36229 0.0
C24 C 0.52552 0.24241 0.24741 0.0
O25 O 0.42561 0.21506 0.30715 0.0
O26 O 0.42215 0.23266 0.13055 0.0
C27 C 0.43511 0.23322 0.35945 0.0
O28 O 0.4483 0.29258 0.09847 0.0
O29 O 0.53527 0.35989 0.16205 0.0
O30 O 0.55856 0.34946 0.24994 0.0
C31 C 0.55739 0.03132 0.09386 0.0
C32 C 0.59657 0.13775 0.05527 0.0
C33 C 0.73727 0.16291 0.09297 0.0
Mg34 Mg 0.5851 0.09664 0.1856 0.0
O35 O 0.62997 0.0958 0.17746 0.0
Mg36 Mg 0.6486 0.09763 0.08731 0.0
Mg37 Mg 0.67433 0.14272 0.20727 0.0
O38 O 0.71738 0.19069 0.23476 0.0
Mg39 Mg 0.76807 0.21373 0.21386 0.0
Mg40 Mg 0.70174 0.20393 0.31521 0.0
C41 C 0.61871 0.1289 0.32724 0.0
C42 C 0.63963 0.2005 0.2186 0.0
O43 O 0.59066 0.04621 0.07028 0.0
O44 O 0.55001 0.04226 0.14636 0.0
O45 O 0.62215 0.12964 0.0429 0.0
O46 O 0.57979 0.12947 0.10873 0.0
O47 O 0.59091 0.11311 0.28789 0.0
O48 O 0.65279 0.13937 0.31089 0.0
C49 C 0.68928 0.07154 0.19157 0.0
O50 O 0.69668 0.10041 0.22696 0.0
O51 O 0.67322 0.06656 0.13723 0.0
O52 O 0.74359 0.26705 0.29214 0.0
O53 O 0.77838 0.26913 0.20766 0.0
O54 O 0.7494 0.1984 0.36466 0.0
C55 C 0.76638 0.28474 0.24628 0.0
O56 O 0.79587 0.21032 0.29574 0.0
O57 O 0.76516 0.18567 0.12738 0.0
C58 C 0.78244 0.20406 0.35178 0.0
O59 O 0.70296 0.15117 0.11012 0.0
O60 O 0.64219 0.176 0.18426 0.0
O61 O 0.65926 0.2137 0.26838 0.0
C62 C 0.97275 0.53018 0.08314 0.0
C63 C 0.86568 0.4598 0.0405 0.0
C64 C 0.83619 0.5713 0.08675 0.0
Mg65 Mg 0.90676 0.48818 0.17215 0.0
O66 O 0.90544 0.53264 0.1681 0.0
Mg67 Mg 0.90344 0.55095 0.07921 0.0
Mg68 Mg 0.8582 0.52877 0.19997 0.0
O69 O 0.81003 0.52315 0.22823 0.0
Mg70 Mg 0.78759 0.55181 0.20975 0.0
Mg71 Mg 0.79659 0.49331 0.30716 0.0
C72 C 0.87146 0.48361 0.31436 0.0
C73 C 0.80143 0.43666 0.20806 0.0
O74 O 0.95613 0.54702 0.06037 0.0
O75 O 0.96183 0.51032 0.13392 0.0
O76 O 0.87242 0.49321 0.03021 0.0
O77 O 0.87482 0.45129 0.09303 0.0
O78 O 0.8886 0.47433 0.2729 0.0
O79 O 0.86135 0.50813 0.30234 0.0
C80 C 0.92915 0.61526 0.18883 0.0
O81 O 0.90033 0.59297 0.22345 0.0
O82 O 0.93386 0.60559 0.13304 0.0
O83 O 0.7331 0.4724 0.28229 0.0
O84 O 0.73149 0.50787 0.20233 0.0
O85 O 0.80193 0.54581 0.35964 0.0
C86 C 0.71549 0.47916 0.2382 0.0
O87 O 0.79177 0.58243 0.29301 0.0
O88 O 0.81416 0.57682 0.12244 0.0
C89 C 0.79725 0.57394 0.34856 0.0
O90 O 0.84919 0.54988 0.10413 0.0
O91 O 0.82561 0.46399 0.17405 0.0
O92 O 0.7879 0.44241 0.25807 0.0
C93 C 0.45048 0.48928 0.37639 0.0
C94 C 0.40655 0.55095 0.42604 0.0
C95 C 0.26605 0.43294 0.38279 0.0
Mg96 Mg 0.41825 0.52537 0.29229 0.0
O97 O 0.3753 0.4778 0.29841 0.0
Mg98 Mg 0.35734 0.45948 0.38749 0.0
Mg99 Mg 0.32895 0.476 0.26806 0.0
O100 O 0.28399 0.47669 0.23869 0.0
Mg101 Mg 0.23454 0.45546 0.26534 0.0
Mg102 Mg 0.29937 0.50762 0.16089 0.0
C103 C 0.38503 0.52448 0.1519 0.0
C104 C 0.35727 0.56669 0.26226 0.0
O105 O 0.41778 0.47 0.40199 0.0
O106 O 0.45641 0.50873 0.32575 0.0
O107 O 0.37985 0.51731 0.43501 0.0
O108 O 0.42331 0.56114 0.37276 0.0
O109 O 0.41229 0.53807 0.19234 0.0
O110 O 0.35179 0.49739 0.16563 0.0
C111 C 0.31978 0.39217 0.28226 0.0
O112 O 0.311 0.41241 0.24662 0.0
O113 O 0.33617 0.40434 0.33606 0.0
O114 O 0.25395 0.5247 0.17788 0.0
O115 O 0.23082 0.50471 0.2752 0.0
O116 O 0.25425 0.45273 0.11231 0.0
C117 C 0.23909 0.52788 0.22965 0.0
O118 O 0.20589 0.42599 0.18156 0.0
O119 O 0.23818 0.4294 0.35002 0.0
C120 C 0.21991 0.42866 0.1263 0.0
O121 O 0.30041 0.45425 0.36463 0.0
O122 O 0.35568 0.5396 0.29457 0.0
O123 O 0.33874 0.56065 0.21115 0.0
C124 C 0.52589 0.96659 0.39697 0.0
C125 C 0.45747 0.86071 0.4277 0.0
C126 C 0.57467 0.83559 0.38921 0.0
Mg127 Mg 0.48937 0.90298 0.30117 0.0
O128 O 0.53409 0.90257 0.30907 0.0
Mg129 Mg 0.55023 0.89987 0.39893 0.0
Mg130 Mg 0.53294 0.85685 0.27513 0.0
O131 O 0.53097 0.811 0.24336 0.0
Mg132 Mg 0.55464 0.78464 0.2683 0.0
Mg133 Mg 0.5033 0.7983 0.16212 0.0
C134 C 0.49062 0.8719 0.15828 0.0
C135 C 0.44172 0.79775 0.25493 0.0
O136 O 0.54388 0.95109 0.41963 0.0
O137 O 0.50828 0.95657 0.34375 0.0
O138 O 0.49076 0.86777 0.44138 0.0
O139 O 0.44955 0.86848 0.37314 0.0
O140 O 0.47942 0.88697 0.20053 0.0
O141 O 0.51555 0.86224 0.17078 0.0
C142 C 0.61858 0.9287 0.29651 0.0
O143 O 0.59764 0.90072 0.25911 0.0
O144 O 0.60672 0.9323 0.35105 0.0
O145 O 0.48072 0.73439 0.1834 0.0
O146 O 0.50688 0.73087 0.27526 0.0
O147 O 0.55785 0.80515 0.11599 0.0
C148 C 0.48138 0.71627 0.23283 0.0
O149 O 0.58546 0.7856 0.18672 0.0
O150 O 0.57979 0.81281 0.35484 0.0
C151 C 0.58199 0.79512 0.13062 0.0
O152 O 0.55169 0.84688 0.37253 0.0
O153 O 0.46659 0.82064 0.29446 0.0
O154 O 0.45136 0.7875 0.20526 0.0
C155 C 0.03859 0.56127 0.39572 0.0
C156 C 0.14533 0.59885 0.43335 0.0
C157 C 0.17062 0.74191 0.38987 0.0
Mg158 Mg 0.10335 0.58672 0.30384 0.0
O159 O 0.10542 0.63253 0.31142 0.0
Mg160 Mg 0.10671 0.65214 0.40006 0.0
Mg161 Mg 0.14879 0.67802 0.27506 0.0
O162 O 0.19135 0.72332 0.23987 0.0
Mg163 Mg 0.21993 0.77233 0.26798 0.0
Mg164 Mg 0.20673 0.70891 0.16086 0.0
C165 C 0.13786 0.61944 0.16185 0.0
C166 C 0.21335 0.65314 0.25765 0.0
O167 O 0.05603 0.59437 0.41997 0.0
O168 O 0.04834 0.5529 0.34286 0.0
O169 O 0.14072 0.62694 0.44491 0.0
O170 O 0.13477 0.581 0.38073 0.0
O171 O 0.123 0.59349 0.20451 0.0
O172 O 0.14451 0.65345 0.17197 0.0
C173 C 0.07376 0.68689 0.29565 0.0
O174 O 0.10147 0.69416 0.25759 0.0
O175 O 0.0719 0.67326 0.35111 0.0
O176 O 0.27039 0.75414 0.17993 0.0
O177 O 0.27209 0.77507 0.27889 0.0
O178 O 0.19711 0.75457 0.11396 0.0
C179 C 0.28786 0.76828 0.23276 0.0
O180 O 0.22262 0.80262 0.18403 0.0
O181 O 0.19227 0.76988 0.35484 0.0
C182 C 0.2112 0.78959 0.12815 0.0
O183 O 0.15858 0.70772 0.37185 0.0
O184 O 0.1893 0.65325 0.29665 0.0
O185 O 0.22099 0.67143 0.20671 0.0
C186 C 0.48849 0.77312 0.73901 0.0
C187 C 0.58501 0.79118 0.62902 0.0
C188 C 0.49281 0.62267 0.65463 0.0
Mg189 Mg 0.56046 0.77364 0.76731 0.0
O190 O 0.53433 0.72362 0.74161 0.0
Mg191 Mg 0.50564 0.70992 0.66122 0.0
Mg192 Mg 0.53533 0.67911 0.77184 0.0
O193 O 0.53511 0.63399 0.80505 0.0
Mg194 Mg 0.49074 0.58922 0.79636 0.0
Mg195 Mg 0.55049 0.65119 0.89542 0.0
C196 C 0.5778 0.74122 0.88873 0.0
C197 C 0.61932 0.68871 0.79287 0.0
O198 O 0.48467 0.75264 0.68973 0.0
O199 O 0.51503 0.78301 0.77905 0.0
O200 O 0.55983 0.75738 0.61478 0.0
O201 O 0.59031 0.80411 0.68553 0.0
O202 O 0.58509 0.76926 0.85316 0.0
O203 O 0.55422 0.70717 0.87131 0.0
C204 C 0.44423 0.64816 0.75156 0.0
O205 O 0.46925 0.6496 0.79005 0.0
O206 O 0.45349 0.66817 0.7024 0.0
O207 O 0.54214 0.59236 0.91206 0.0
O208 O 0.51017 0.55371 0.83078 0.0
O209 O 0.49039 0.6257 0.93824 0.0
C210 C 0.52617 0.55989 0.88521 0.0
O211 O 0.45189 0.58177 0.87017 0.0
O212 O 0.48128 0.59757 0.69838 0.0
C213 C 0.45784 0.5986 0.92319 0.0
O214 O 0.51766 0.65749 0.66587 0.0
O215 O 0.5996 0.69764 0.75604 0.0
O216 O 0.60694 0.67355 0.84738 0.0
C217 C 0.24611 0.71781 0.73925 0.0
C218 C 0.22779 0.79504 0.62944 0.0
C219 C 0.39139 0.87404 0.65912 0.0
Mg220 Mg 0.2413 0.78759 0.76928 0.0
O221 O 0.29197 0.81273 0.74884 0.0
Mg222 Mg 0.30973 0.79894 0.67086 0.0
Mg223 Mg 0.33402 0.86117 0.77711 0.0
O224 O 0.37811 0.90842 0.80664 0.0
Mg225 Mg 0.42351 0.908 0.79947 0.0
Mg226 Mg 0.35904 0.90592 0.89637 0.0
C227 C 0.27 0.83955 0.88967 0.0
C228 C 0.31802 0.93135 0.79118 0.0
O229 O 0.26923 0.73585 0.69408 0.0
O230 O 0.23313 0.73289 0.77705 0.0
O231 O 0.26129 0.80155 0.61778 0.0
O232 O 0.21396 0.78928 0.68523 0.0
O233 O 0.24272 0.81595 0.85496 0.0
O234 O 0.30463 0.85228 0.87341 0.0
C235 C 0.37032 0.80562 0.77362 0.0
O236 O 0.36549 0.8294 0.80533 0.0
O237 O 0.35304 0.79187 0.72191 0.0
O238 O 0.41637 0.95805 0.91376 0.0
O239 O 0.45828 0.9621 0.84012 0.0
O240 O 0.38694 0.87452 0.93998 0.0
C241 C 0.44986 0.97355 0.89106 0.0
O242 O 0.42931 0.87455 0.87384 0.0
O243 O 0.41888 0.89082 0.69872 0.0
C244 C 0.41276 0.8666 0.92764 0.0
O245 O 0.35717 0.86383 0.67431 0.0
O246 O 0.31135 0.90281 0.75544 0.0
O247 O 0.33361 0.93625 0.846 0.0
C248 C 0.29119 0.52652 0.72011 0.0
C249 C 0.21073 0.42853 0.62164 0.0
C250 C 0.13304 0.51656 0.66172 0.0
Mg251 Mg 0.2234 0.45389 0.7605 0.0
O252 O 0.19568 0.47678 0.73992 0.0
Mg253 Mg 0.20679 0.50615 0.66063 0.0
Mg254 Mg 0.14903 0.47232 0.77415 0.0
O255 O 0.10327 0.46981 0.81089 0.0
Mg256 Mg 0.10281 0.51453 0.80689 0.0
Mg257 Mg 0.10742 0.45251 0.89922 0.0
C258 C 0.174 0.43093 0.88368 0.0
C259 C 0.07748 0.38714 0.78907 0.0
O260 O 0.27087 0.52772 0.67458 0.0
O261 O 0.27789 0.50145 0.76323 0.0
O262 O 0.2005 0.45282 0.60938 0.0
O263 O 0.2205 0.42401 0.67692 0.0
O264 O 0.19749 0.42774 0.84789 0.0
O265 O 0.16032 0.45206 0.86847 0.0
C266 C 0.20629 0.56381 0.76343 0.0
O267 O 0.18343 0.5367 0.79905 0.0
O268 O 0.21746 0.5579 0.71078 0.0
O269 O 0.05633 0.45824 0.92359 0.0
O270 O 0.04974 0.495 0.85131 0.0
O271 O 0.14051 0.51128 0.9484 0.0
C272 C 0.04051 0.47642 0.90349 0.0
O273 O 0.13729 0.55193 0.88313 0.0
O274 O 0.11748 0.52682 0.70462 0.0
C275 C 0.14679 0.54447 0.93633 0.0
O276 O 0.1428 0.49176 0.67291 0.0
O277 O 0.10584 0.40863 0.75309 0.0
O278 O 0.07425 0.39737 0.84544 0.0
C279 C 0.75047 0.46256 0.73649 0.0
C280 C 0.77944 0.56339 0.84505 0.0
C281 C 0.61199 0.48171 0.80425 0.0
Mg282 Mg 0.76341 0.53867 0.70525 0.0
O283 O 0.7143 0.52195 0.72987 0.0
Mg284 Mg 0.69531 0.49051 0.80678 0.0
Mg285 Mg 0.67302 0.52747 0.69546 0.0
O286 O 0.63092 0.5318 0.65915 0.0
Mg287 Mg 0.58575 0.48678 0.65921 0.0
Mg288 Mg 0.65389 0.55153 0.57257 0.0
C289 C 0.74119 0.56875 0.58704 0.0
C290 C 0.6897 0.61461 0.68456 0.0
O291 O 0.73502 0.46564 0.78787 0.0
O292 O 0.76138 0.48699 0.6926 0.0
O293 O 0.74425 0.54237 0.85809 0.0
O294 O 0.79319 0.56483 0.79001 0.0
O295 O 0.76674 0.56887 0.6219 0.0
O296 O 0.70604 0.54934 0.60187 0.0
C297 C 0.63514 0.43439 0.70536 0.0
O298 O 0.64026 0.46172 0.66909 0.0
O299 O 0.65286 0.44042 0.75716 0.0
O300 O 0.59702 0.54718 0.54872 0.0
O301 O 0.55311 0.5083 0.61888 0.0
O302 O 0.6295 0.49521 0.52126 0.0
C303 C 0.56296 0.52901 0.56911 0.0
O304 O 0.58246 0.45173 0.57858 0.0
O305 O 0.58705 0.47211 0.75996 0.0
C306 C 0.60114 0.4623 0.52705 0.0
O307 O 0.64678 0.50688 0.79553 0.0
O308 O 0.6951 0.59176 0.71962 0.0
O309 O 0.67627 0.60545 0.62817 0.0
C310 C 0.5167 0.28304 0.75173 0.0
C311 C 0.4198 0.19484 0.85271 0.0
C312 C 0.51796 0.12913 0.82639 0.0
Mg313 Mg 0.44656 0.20903 0.71617 0.0
O314 O 0.47852 0.1905 0.73672 0.0
Mg315 Mg 0.5045 0.20241 0.81937 0.0
Mg316 Mg 0.47604 0.14392 0.7086 0.0
O317 O 0.47386 0.09727 0.67729 0.0
Mg318 Mg 0.51465 0.09004 0.68822 0.0
Mg319 Mg 0.45862 0.10024 0.58722 0.0
C320 C 0.43593 0.1643 0.59133 0.0
C321 C 0.38969 0.07368 0.687 0.0
O322 O 0.52284 0.26562 0.79701 0.0
O323 O 0.48899 0.2665 0.71337 0.0
O324 O 0.44886 0.19213 0.86622 0.0
O325 O 0.41231 0.20036 0.79643 0.0
O326 O 0.42477 0.18226 0.62649 0.0
O327 O 0.45923 0.15432 0.61129 0.0
C328 C 0.56711 0.20548 0.72524 0.0
O329 O 0.54196 0.18018 0.68886 0.0
O330 O 0.55779 0.21578 0.77538 0.0
O331 O 0.4615 0.04727 0.56969 0.0
O332 O 0.49038 0.03464 0.64862 0.0
O333 O 0.51868 0.13058 0.54698 0.0
C334 C 0.47404 0.02716 0.5941 0.0
O335 O 0.5542 0.11884 0.61288 0.0
O336 O 0.52745 0.11101 0.78722 0.0
C337 C 0.54974 0.13202 0.56084 0.0
O338 O 0.49334 0.13888 0.81216 0.0
O339 O 0.41108 0.10125 0.7247 0.0
O340 O 0.40151 0.06977 0.6327 0.0
C341 C 0.71933 0.23456 0.74956 0.0
C342 C 0.79588 0.21283 0.8541 0.0
C343 C 0.86945 0.38314 0.81335 0.0
Mg344 Mg 0.78615 0.22857 0.71415 0.0
O345 O 0.81501 0.27785 0.74074 0.0
Mg346 Mg 0.80034 0.29327 0.81962 0.0
Mg347 Mg 0.85645 0.32284 0.70253 0.0
O348 O 0.89912 0.3681 0.66322 0.0
Mg349 Mg 0.89875 0.41265 0.66844 0.0
Mg350 Mg 0.89726 0.34734 0.57549 0.0
C351 C 0.83501 0.25748 0.59145 0.0
C352 C 0.9319 0.31498 0.68211 0.0
O353 O 0.73677 0.24831 0.80249 0.0
O354 O 0.73435 0.22643 0.70392 0.0
O355 O 0.81045 0.24805 0.86729 0.0
O356 O 0.78399 0.19929 0.79869 0.0
O357 O 0.81368 0.2301 0.62777 0.0
O358 O 0.84603 0.29187 0.60687 0.0
C359 C 0.79105 0.34662 0.72146 0.0
O360 O 0.81436 0.34614 0.68112 0.0
O361 O 0.78473 0.32931 0.77325 0.0
O362 O 0.94676 0.40495 0.55094 0.0
O363 O 0.95145 0.44783 0.62302 0.0
O364 O 0.86306 0.37234 0.52939 0.0
C365 C 0.9617 0.43885 0.57133 0.0
O366 O 0.86254 0.41436 0.59632 0.0
O367 O 0.88348 0.408 0.76901 0.0
C368 C 0.85563 0.39855 0.54176 0.0
O369 O 0.86216 0.34882 0.80474 0.0
O370 O 0.90425 0.30783 0.7201 0.0
O371 O 0.93334 0.32772 0.62595 0.0
C372 C 0.59235 0.25865 0.23025 0.0
C373 C 0.55417 0.23133 0.23621 0.0
C374 C 0.61957 0.24837 0.21693 0.0
C375 C 0.60975 0.21042 0.20965 0.0
H376 H 0.60126 0.28812 0.23623 0.0
H377 H 0.64886 0.2702 0.21564 0.0
S378 S 0.51338 0.12833 0.2272 0.0
N379 N 0.50763 0.1651 0.2346 0.0
N380 N 0.55881 0.14566 0.21529 0.0
C381 C 0.5714 0.18303 0.2151 0.0
C382 C 0.54364 0.19355 0.2271 0.0
C383 C 0.75548 0.36876 0.21081 0.0
C384 C 0.79277 0.39743 0.19939 0.0
C385 C 0.74715 0.33241 0.22731 0.0
C386 C 0.77577 0.3233 0.23196 0.0
H387 H 0.73285 0.37513 0.211 0.0
H388 H 0.71821 0.31138 0.23692 0.0
S389 S 0.87758 0.38684 0.20769 0.0
N390 N 0.85835 0.41327 0.19635 0.0
N391 N 0.84212 0.34441 0.22212 0.0
C392 C 0.81267 0.35072 0.21765 0.0
C393 C 0.82132 0.38792 0.20238 0.0
C394 C 0.66716 0.41307 0.21338 0.0
C395 C 0.67667 0.45069 0.22173 0.0
C396 C 0.63075 0.38581 0.19479 0.0
C397 C 0.60237 0.39504 0.18486 0.0
H398 H 0.68788 0.40457 0.22192 0.0
H399 H 0.62391 0.35671 0.19303 0.0
S400 S 0.6141 0.49042 0.19936 0.0
N401 N 0.65622 0.4966 0.21503 0.0
N402 N 0.58722 0.44514 0.18456 0.0
C403 C 0.61228 0.43302 0.19067 0.0
C404 C 0.64956 0.46088 0.2082 0.0
C405 C 0.21118 0.59533 0.3026 0.0
C406 C 0.22703 0.62577 0.26058 0.0
C407 C 0.21488 0.56357 0.29223 0.0
C408 C 0.235 0.56134 0.23955 0.0
H409 H 0.19505 0.59554 0.3426 0.0
H410 H 0.20128 0.54036 0.32519 0.0
S411 S 0.28979 0.63736 0.1235 0.0
N412 N 0.27001 0.65453 0.17085 0.0
N413 N 0.27587 0.59483 0.15051 0.0
C414 C 0.25384 0.59299 0.20036 0.0
C415 C 0.25054 0.62535 0.2115 0.0
C416 C 0.4254 0.61305 0.27136 0.0
C417 C 0.38799 0.60568 0.27225 0.0
C418 C 0.45562 0.6491 0.25992 0.0
C419 C 0.44937 0.67881 0.24604 0.0
H420 H 0.43143 0.59046 0.27273 0.0
H421 H 0.48385 0.65324 0.25808 0.0
S422 S 0.3578 0.67612 0.24978 0.0
N423 N 0.34701 0.63234 0.26418 0.0
N424 N 0.40393 0.70015 0.24058 0.0
C425 C 0.41251 0.67257 0.2495 0.0
C426 C 0.38178 0.63598 0.26281 0.0
C427 C 0.34803 0.77789 0.18817 0.0
C428 C 0.32685 0.77578 0.24159 0.0
C429 C 0.38434 0.78382 0.19457 0.0
C430 C 0.40195 0.78905 0.25457 0.0
H431 H 0.33661 0.77501 0.14069 0.0
H432 H 0.39894 0.78492 0.15103 0.0
S433 S 0.35522 0.77711 0.41006 0.0
N434 N 0.32358 0.77329 0.35753 0.0
N435 N 0.39283 0.7853 0.36872 0.0
C436 C 0.38055 0.7852 0.30879 0.0
C437 C 0.34288 0.77851 0.30244 0.0
C438 C 0.46625 0.8191 0.75108 0.0
C439 C 0.45904 0.78207 0.75536 0.0
C440 C 0.43832 0.8279 0.76672 0.0
C441 C 0.40229 0.79991 0.78628 0.0
H442 H 0.49313 0.84108 0.73356 0.0
H443 H 0.44417 0.85623 0.75862 0.0
S444 S 0.374 0.70169 0.82507 0.0
N445 N 0.41713 0.71953 0.79644 0.0
N446 N 0.36362 0.73562 0.82123 0.0
C447 C 0.39622 0.76372 0.79689 0.0
C448 C 0.42489 0.7549 0.78246 0.0
C449 C 0.25393 0.63125 0.76693 0.0
C450 C 0.21617 0.60306 0.77522 0.0
C451 C 0.2636 0.6685 0.75472 0.0
C452 C 0.23578 0.67879 0.75143 0.0
H453 H 0.27591 0.62398 0.76638 0.0
H454 H 0.2929 0.68924 0.74714 0.0
S455 S 0.13316 0.61664 0.76889 0.0
N456 N 0.15108 0.58884 0.77732 0.0
N457 N 0.1696 0.65907 0.75896 0.0
C458 C 0.19833 0.65161 0.76264 0.0
C459 C 0.18841 0.61364 0.7736 0.0
C460 C 0.35723 0.55169 0.75762 0.0
C461 C 0.33001 0.55779 0.72822 0.0
C462 C 0.39381 0.58142 0.76835 0.0
C463 C 0.40405 0.61861 0.75367 0.0
H464 H 0.35065 0.52349 0.77005 0.0
H465 H 0.41468 0.57458 0.7829 0.0
S466 S 0.3433 0.64902 0.67189 0.0
N467 N 0.31595 0.60336 0.68145 0.0
N468 N 0.38415 0.65921 0.70335 0.0
C469 C 0.37678 0.62489 0.724 0.0
C470 C 0.33994 0.59456 0.71121 0.0
C471 C 0.75484 0.40927 0.78136 0.0
C472 C 0.75673 0.43038 0.72822 0.0
C473 C 0.76417 0.38121 0.77676 0.0
C474 C 0.7759 0.37271 0.71865 0.0
H475 H 0.74783 0.41551 0.82782 0.0
H476 H 0.76396 0.36753 0.82083 0.0
S477 S 0.7709 0.40995 0.56141 0.0
N478 N 0.76154 0.43473 0.61259 0.0
N479 N 0.77891 0.38104 0.60431 0.0
C480 C 0.77378 0.39067 0.6637 0.0
C481 C 0.76422 0.41967 0.66839 0.0
C482 C 0.61253 0.36656 0.7152 0.0
C483 C 0.60452 0.39483 0.69691 0.0
C484 C 0.58405 0.33094 0.73443 0.0
C485 C 0.54616 0.32168 0.73519 0.0
H486 H 0.64148 0.37293 0.71899 0.0
H487 H 0.59179 0.3105 0.74902 0.0
S488 S 0.50891 0.38366 0.68871 0.0
N489 N 0.5549 0.40984 0.67997 0.0
N490 N 0.50143 0.3422 0.71206 0.0
C491 C 0.53724 0.34847 0.71322 0.0
C492 C 0.56635 0.38511 0.69479 0.0
C493 C 0.62072 0.19806 0.68489 0.0
C494 C 0.60806 0.2191 0.71855 0.0
C495 C 0.65689 0.20343 0.69457 0.0
C496 C 0.68186 0.2303 0.7384 0.0
H497 H 0.60211 0.17602 0.65359 0.0
H498 H 0.66475 0.18537 0.66934 0.0
S499 S 0.66663 0.30007 0.82555 0.0
N500 N 0.62658 0.27329 0.78807 0.0
N501 N 0.69426 0.28311 0.80643 0.0
C502 C 0.67112 0.25421 0.76754 0.0
C503 C 0.63444 0.24888 0.75727 0.0
C504 C 0.50398 0.53105 -0.0094 0.0
C505 C 0.5132 0.52742 0.92738 0.0
C506 C 0.48527 0.49989 0.02991 0.0
C507 C 0.47522 0.46388 0.00778 0.0
H508 H 0.51038 0.55812 0.00977 0.0
H509 H 0.47978 0.5042 0.07875 0.0
S510 S 0.49267 0.43924 0.84571 0.0
N511 N 0.51023 0.48517 0.84378 0.0
N512 N 0.47565 0.42612 0.91816 0.0
C513 C 0.48353 0.45962 0.94414 0.0
C514 C 0.50257 0.49153 0.90397 0.0
C515 C 0.5314 0.99353 -0.00406 0.0
C516 C 0.52685 0.01286 0.04718 0.0
C517 C 0.50843 0.98411 0.94225 0.0
C518 C 0.47995 0.99362 0.93779 0.0
H519 H 0.55342 0.98629 -0.00316 0.0
H520 H 0.51203 0.96775 0.90527 0.0
S521 S 0.45779 0.04626 0.0569 0.0
N522 N 0.49272 0.04286 0.08873 0.0
N523 N 0.44917 0.02439 -0.01229 0.0
C524 C 0.47537 0.01336 -0.01184 0.0
C525 C 0.49868 0.02292 0.04304 0.0
C526 C 0.98387 0.51655 0.97339 0.0
C527 C 0.99467 0.52162 0.03797 0.0
C528 C 0.997 0.49967 0.9308 0.0
C529 C 0.02141 0.48723 0.95109 0.0
H530 H 0.96376 0.52415 0.95581 0.0
H531 H 0.98817 0.49658 0.88152 0.0
S532 S 0.06125 0.49773 0.114 0.0
N533 N 0.03279 0.51513 0.11944 0.0
N534 N 0.05843 0.48392 0.03939 0.0
C535 C 0.03327 0.49303 0.01536 0.0
C536 C 0.01978 0.51024 0.05868 0.0
C537 C 0.48216 0.47197 0.45867 0.0
C538 C 0.4827 0.49922 0.41817 0.0
C539 C 0.50741 0.48237 0.50936 0.0
C540 C 0.53367 0.5204 0.52172 0.0
H541 H 0.46145 0.44257 0.4521 0.0
H542 H 0.50667 0.46034 0.53859 0.0
S543 S 0.54598 0.60255 0.43075 0.0
N544 N 0.51135 0.566 0.3942 0.0
N545 N 0.5592 0.58517 0.48953 0.0
C546 C 0.535 0.54785 0.4811 0.0
C547 C 0.50938 0.53735 0.42927 0.0
C548 C 0.53172 0.995 0.504 0.0
C549 C 0.51428 0.98577 0.44381 0.0
C550 C 0.51613 0.00444 0.55493 0.0
C551 C 0.48259 0.00546 0.5478 0.0
H552 H 0.55742 0.99431 0.51235 0.0
H553 H 0.53163 0.01276 0.59932 0.0
S554 S 0.42526 0.98353 0.40068 0.0
N555 N 0.46115 0.97823 0.38034 0.0
N556 N 0.43176 0.99556 0.47649 0.0
C557 C 0.46446 0.99576 0.48826 0.0
C558 C 0.48052 0.98652 0.4361 0.0
C559 C 0.00804 0.50524 0.54692 0.0
C560 C 0.98275 0.46896 0.52517 0.0
C561 C 0.02407 0.53541 0.50483 0.0
C562 C 0.01528 0.53043 0.43935 0.0
H563 H 0.01543 0.51039 0.59688 0.0
H564 H 0.04458 0.56262 0.52372 0.0
S565 S 0.94723 0.44177 0.35944 0.0
N566 N 0.94703 0.43009 0.43456 0.0
N567 N 0.97793 0.48713 0.35546 0.0
C568 C 0.9893 0.49451 0.41715 0.0
C569 C 0.97291 0.46368 0.45999 0.0
C570 C 0.55295 0.3997 0.91246 0.0
C571 C 0.56558 0.41456 0.9736 0.0
C572 C 0.56961 0.42114 0.85824 0.0
C573 C 0.60022 0.45806 0.86227 0.0
H574 H 0.52794 0.37254 0.90615 0.0
H575 H 0.55685 0.40919 0.81293 0.0
S576 S 0.6506 0.50653 0.00984 0.0
N577 N 0.61538 0.46603 0.03448 0.0
N578 N 0.647 0.506 0.93154 0.0
C579 C 0.61628 0.47157 0.92234 0.0
C580 C 0.59898 0.44982 0.97818 0.0
C581 C 0.54238 0.1396 0.00234 0.0
C582 C 0.58032 0.14819 0.00099 0.0
C583 C 0.52262 0.13671 0.94572 0.0
C584 C 0.54017 0.14211 0.88615 0.0
H585 H 0.5269 0.13192 0.04669 0.0
H586 H 0.49281 0.12715 0.94835 0.0
S587 S 0.6405 0.17176 0.85785 0.0
N588 N 0.63589 0.16819 0.9357 0.0
N589 N 0.59878 0.1613 0.83005 0.0
C590 C 0.57891 0.15434 0.88495 0.0
C591 C 0.59902 0.15792 0.94219 0.0
C592 C 0.86161 0.38297 0.93301 0.0
C593 C 0.8586 0.39562 0.87245 0.0
C594 C 0.86015 0.40163 -0.01142 0.0
C595 C 0.85528 0.43335 0.98542 0.0
H596 H 0.86796 0.36047 0.9374 0.0
H597 H 0.86562 0.39277 0.03384 0.0
S598 S 0.83938 0.47338 0.83859 0.0
N599 N 0.84586 0.43903 0.81337 0.0
N600 N 0.84174 0.47256 0.91672 0.0
C601 C 0.84819 0.44348 0.92541 0.0
C602 C 0.8503 0.42509 0.86927 0.0
C603 C 0.46679 0.62825 0.54719 0.0
C604 C 0.47563 0.6079 0.59107 0.0
C605 C 0.44412 0.61023 0.49307 0.0
C606 C 0.42847 0.57122 0.48332 0.0
H607 H 0.47641 0.65768 0.55559 0.0
H608 H 0.43807 0.62656 0.45976 0.0
S609 S 0.44666 0.50653 0.58021 0.0
N610 N 0.47102 0.54772 0.61512 0.0
N611 N 0.42601 0.51394 0.51942 0.0
C612 C 0.43828 0.55128 0.52591 0.0
C613 C 0.4625 0.5696 0.57807 0.0
C614 C 0.42442 0.84742 0.59747 0.0
C615 C 0.39981 0.86191 0.59788 0.0
C616 C 0.43949 0.84274 0.5408 0.0
C617 C 0.43124 0.85316 0.48192 0.0
H618 H 0.43363 0.84132 0.64161 0.0
H619 H 0.46 0.83354 0.54384 0.0
S620 S 0.36346 0.88705 0.45655 0.0
N621 N 0.36371 0.88187 0.53438 0.0
N622 N 0.39285 0.87443 0.42715 0.0
C623 C 0.40398 0.86464 0.48114 0.0
C624 C 0.38812 0.86875 0.53928 0.0
C625 C 0.15423 0.57685 0.60416 0.0
C626 C 0.14463 0.53885 0.60193 0.0
C627 C 0.15892 0.59753 0.54881 0.0
C628 C 0.15356 0.58099 0.48821 0.0
H629 H 0.15659 0.59052 0.64921 0.0
H630 H 0.16405 0.62594 0.55406 0.0
S631 S 0.1353 0.48417 0.45595 0.0
N632 N 0.13562 0.48706 0.53435 0.0
N633 N 0.14374 0.52547 0.42946 0.0
C634 C 0.14767 0.544 0.48509 0.0
C635 C 0.14328 0.52302 0.54207 0.0
C636 C 0.3928 0.52182 0.0349 0.0
C637 C 0.39304 0.54233 0.08853 0.0
C638 C 0.4108 0.54027 0.97846 0.0
C639 C 0.42975 0.57984 0.97411 0.0
H640 H 0.38144 0.49176 0.03819 0.0
H641 H 0.41265 0.52361 0.94011 0.0
S642 S 0.43028 0.64519 0.09546 0.0
N643 N 0.40781 0.60351 0.12963 0.0
N644 N 0.44179 0.63799 0.02375 0.0
C645 C 0.42682 0.60013 0.02504 0.0
C646 C 0.40846 0.5814 0.0823 0.0
C647 C 0.41261 0.85259 0.04248 0.0
C648 C 0.42924 0.85668 0.98241 0.0
C649 C 0.43243 0.85596 0.09821 0.0
C650 C 0.46926 0.86168 0.09729 0.0
H651 H 0.38503 0.84982 0.04713 0.0
H652 H 0.41904 0.85566 0.14278 0.0
S653 S 0.52332 0.86699 0.95268 0.0
N654 N 0.48346 0.86222 0.92502 0.0
N655 N 0.51993 0.86643 0.03106 0.0
C656 C 0.48494 0.86177 0.03783 0.0
C657 C 0.46504 0.8595 0.98019 0.0
C658 C 0.16263 0.56205 0.05125 0.0
C659 C 0.15623 0.57177 -0.00971 0.0
C660 C 0.15978 0.58009 0.10598 0.0
C661 C 0.15036 0.60872 0.10261 0.0
H662 H 0.16724 0.5385 0.05738 0.0
H663 H 0.16284 0.56986 0.15176 0.0
S664 S 0.13901 0.65064 0.95463 0.0
N665 N 0.14644 0.61675 0.92972 0.0
N666 N 0.14068 0.65005 0.03308 0.0
C667 C 0.14806 0.62166 0.04208 0.0
C668 C 0.15109 0.60334 0.9859 0.0
C669 C 0.53819 0.38772 0.4053 0.0
C670 C 0.53484 0.40991 0.35748 0.0
C671 C 0.56054 0.40437 0.46001 0.0
C672 C 0.58117 0.44371 0.46738 0.0
H673 H 0.52358 0.35745 0.40051 0.0
H674 H 0.56173 0.38648 0.49656 0.0
S675 S 0.57834 0.51414 0.36042 0.0
N676 N 0.55097 0.47335 0.32597 0.0
N677 N 0.59417 0.50402 0.4249 0.0
C678 C 0.57744 0.46594 0.4204 0.0
C679 C 0.55399 0.44923 0.36656 0.0
C680 C 0.59572 0.11965 0.5027 0.0
C681 C 0.57729 0.14075 0.50888 0.0
C682 C 0.61214 0.11826 0.4447 0.0
C683 C 0.61072 0.138 0.39136 0.0
H684 H 0.59464 0.10154 0.54095 0.0
H685 H 0.62343 0.09951 0.44028 0.0
S686 S 0.57299 0.20311 0.38684 0.0
N687 N 0.56401 0.18612 0.45972 0.0
N688 N 0.59454 0.1833 0.3513 0.0
C689 C 0.59558 0.16173 0.39892 0.0
C690 C 0.57907 0.16328 0.45765 0.0
C691 C 0.8484 0.42262 0.37089 0.0
C692 C 0.85923 0.46095 0.37372 0.0
C693 C 0.84323 0.40147 0.42592 0.0
C694 C 0.84932 0.41783 0.48677 0.0
H695 H 0.84549 0.40907 0.32557 0.0
H696 H 0.8369 0.37267 0.42031 0.0
S697 S 0.87361 0.51649 0.52051 0.0
N698 N 0.87182 0.51351 0.44212 0.0
N699 N 0.86342 0.47453 0.5463 0.0
C700 C 0.85752 0.45564 0.49046 0.0
C701 C 0.86214 0.47698 0.43388 0.0
C702 C 0.32002 0.35284 0.19064 0.0
C703 C 0.31997 0.3582 0.25661 0.0
C704 C 0.3356 0.33206 0.16469 0.0
C705 C 0.35275 0.31664 0.20353 0.0
H706 H 0.31165 0.36788 0.15847 0.0
H707 H 0.33794 0.33188 0.11339 0.0
S708 S 0.34726 0.31117 0.37946 0.0
N709 N 0.3281 0.33686 0.36045 0.0
N710 N 0.35916 0.29978 0.31146 0.0
C711 C 0.34714 0.31657 0.26942 0.0
C712 C 0.3304 0.33694 0.29593 0.0
C713 C 0.65696 0.96875 0.20523 0.0
C714 C 0.65215 0.9633 0.27123 0.0
C715 C 0.67532 0.00511 0.17937 0.0
C716 C 0.6887 0.0375 0.21838 0.0
H717 H 0.64289 0.9451 0.17297 0.0
H718 H 0.67483 0.00746 0.12812 0.0
S719 S 0.69647 0.03849 0.39405 0.0
N720 N 0.67325 0.99346 0.37499 0.0
N721 N 0.70563 0.0615 0.32616 0.0
C722 C 0.69017 0.03247 0.2841 0.0
C723 C 0.67234 0.9954 0.31053 0.0
C724 C 0.03255 0.68476 0.20529 0.0
C725 C 0.03811 0.68415 0.2711 0.0
C726 C 0.99611 0.66735 0.17923 0.0
C727 C 0.96361 0.64763 0.21766 0.0
H728 H 0.05625 0.6953 0.17304 0.0
H729 H 0.99375 0.66576 0.12786 0.0
S730 S 0.96265 0.64976 0.39388 0.0
N731 N 0.00776 0.67212 0.37511 0.0
N732 N 0.93964 0.63768 0.32565 0.0
C733 C 0.96872 0.65234 0.28376 0.0
C734 C 0.00588 0.67093 0.31052 0.0
C735 C 0.66713 0.668 0.80601 0.0
C736 C 0.65163 0.68514 0.76739 0.0
C737 C 0.68463 0.64913 0.77956 0.0
C738 C 0.68823 0.64732 0.71339 0.0
H739 H 0.66218 0.66545 0.85683 0.0
H740 H 0.69166 0.63266 0.81087 0.0
S741 S 0.66583 0.69976 0.59342 0.0
N742 N 0.6502 0.70727 0.6611 0.0
N743 N 0.68477 0.67374 0.61153 0.0
C744 C 0.67926 0.67027 0.67549 0.0
C745 C 0.66059 0.68872 0.70238 0.0
C746 C 0.33162 0.99764 0.80343 0.0
C747 C 0.31846 0.9653 0.76435 0.0
C748 C 0.35028 0.03402 0.7777 0.0
C749 C 0.35554 0.03948 0.71177 0.0
H750 H 0.33182 0.99522 0.85471 0.0
H751 H 0.36431 0.05762 0.81006 0.0
S752 S 0.31163 0.96446 0.58856 0.0
N753 N 0.30202 0.94139 0.65644 0.0
N754 N 0.33482 0.00947 0.60779 0.0
C755 C 0.33534 0.00747 0.67229 0.0
C756 C 0.31729 0.97039 0.6986 0.0
C757 C 0.97331 0.31916 0.77364 0.0
C758 C 0.96772 0.31852 0.70758 0.0
C759 C 0.00975 0.33681 0.7998 0.0
C760 C 0.04226 0.35524 0.76114 0.0
H761 H 0.94965 0.30936 0.80584 0.0
H762 H 0.01214 0.33934 0.8511 0.0
S763 S 0.043 0.35019 0.58501 0.0
N764 N 0.99792 0.32872 0.60381 0.0
N765 N 0.06606 0.36306 0.65316 0.0
C766 C 0.03702 0.3495 0.69512 0.0
C767 C 0.99986 0.33092 0.66836 0.0
C768 C 0.3903 0.18507 0.95863 0.0
C769 C 0.40508 0.20737 0.9047 0.0
C770 C 0.3917 0.20158 0.01749 0.0
C771 C 0.4104 0.24117 0.02495 0.0
H772 H 0.38073 0.15528 0.95642 0.0
H773 H 0.38198 0.18315 0.05837 0.0
S774 S 0.44496 0.31035 0.89337 0.0
N775 N 0.43076 0.26946 0.85831 0.0
N776 N 0.43629 0.30093 0.96979 0.0
C777 C 0.42055 0.26305 0.96954 0.0
C778 C 0.41738 0.24595 0.9091 0.0
C779 C 0.72422 0.15739 0.9772 0.0
C780 C 0.74694 0.15791 0.02745 0.0
C781 C 0.74009 0.17159 0.91758 0.0
C782 C 0.77892 0.18673 0.90706 0.0
H783 H 0.69544 0.15051 0.98576 0.0
H784 H 0.72271 0.17448 0.88177 0.0
S785 S 0.84734 0.18335 0.01666 0.0
N786 N 0.80769 0.16522 0.05753 0.0
N787 N 0.83769 0.19414 0.94619 0.0
C788 C 0.80057 0.18244 0.95366 0.0
C789 C 0.78427 0.16693 0.01366 0.0
C790 C 0.84191 0.56129 0.97167 0.0
C791 C 0.83802 0.58289 0.01975 0.0
C792 C 0.82605 0.55851 0.91158 0.0
C793 C 0.80581 0.57701 0.89837 0.0
H794 H 0.85317 0.54309 0.98234 0.0
H795 H 0.82621 0.53873 0.8776 0.0
S796 S 0.79846 0.64628 0.00036 0.0
N797 N 0.82169 0.63117 0.04391 0.0
N798 N 0.78969 0.62356 0.93193 0.0
C799 C 0.80639 0.60267 0.94244 0.0
C800 C 0.82356 0.60654 0.00284 0.0
C801 C 0.28027 0.4396 0.4979 0.0
C802 C 0.25661 0.41803 0.44799 0.0
C803 C 0.26512 0.43931 0.55764 0.0
C804 C 0.22612 0.41756 0.56859 0.0
H805 H 0.30941 0.46031 0.48889 0.0
H806 H 0.28336 0.45928 0.59321 0.0
S807 S 0.15489 0.34733 0.46024 0.0
N808 N 0.19439 0.3666 0.41885 0.0
N809 N 0.16585 0.3682 0.53053 0.0
C810 C 0.20332 0.39186 0.52253 0.0
C811 C 0.21885 0.39121 0.46239 0.0
C812 C 0.57366 0.83433 0.56577 0.0
C813 C 0.59635 0.81819 0.57716 0.0
C814 C 0.57074 0.84609 0.5047 0.0
C815 C 0.59073 0.84216 0.45395 0.0
H816 H 0.55453 0.83346 0.60219 0.0
H817 H 0.54932 0.85362 0.49606 0.0
S818 S 0.66335 0.8136 0.46555 0.0
N819 N 0.64502 0.80665 0.5376 0.0
N820 N 0.64195 0.83129 0.42337 0.0
C821 C 0.61863 0.83262 0.46797 0.0
C822 C 0.62061 0.81955 0.52958 0.0
C823 C 0.18439 0.74152 0.56359 0.0
C824 C 0.20111 0.78015 0.57685 0.0
C825 C 0.16799 0.72709 0.50434 0.0
C826 C 0.16819 0.75114 0.45693 0.0
H827 H 0.18725 0.72302 0.59691 0.0
H828 H 0.15955 0.69817 0.49341 0.0
S829 S 0.19826 0.8522 0.47669 0.0
N830 N 0.21005 0.84049 0.54438 0.0
N831 N 0.17765 0.81341 0.43336 0.0
C832 C 0.17927 0.78858 0.47397 0.0
C833 C 0.19667 0.80332 0.53382 0.0
C834 C 0.61612 0.78976 0.96927 0.0
C835 C 0.59176 0.75124 0.95511 0.0
C836 C 0.61643 0.80442 0.02947 0.0
C837 C 0.59463 0.78063 0.07839 0.0
H838 H 0.63149 0.80964 0.93182 0.0
H839 H 0.6312 0.8346 0.0362 0.0
S840 S 0.53677 0.67682 0.07311 0.0
N841 N 0.5522 0.68906 -0.00037 0.0
N842 N 0.55526 0.71636 0.1142 0.0
C843 C 0.57586 0.74159 0.0683 0.0
C844 C 0.57411 0.72679 0.00624 0.0
C845 C 0.28249 0.8467 0.00585 0.0
C846 C 0.25946 0.84442 0.95473 0.0
C847 C 0.26671 0.83284 0.0657 0.0
C848 C 0.22765 0.8162 0.07561 0.0
H849 H 0.31165 0.85474 -0.00202 0.0
H850 H 0.28449 0.83121 0.10221 0.0
S851 S 0.15784 0.81456 0.96315 0.0
N852 N 0.19771 0.83381 0.92283 0.0
N853 N 0.16799 0.80543 0.03455 0.0
C854 C 0.20548 0.81872 0.02791 0.0
C855 C 0.22163 0.83391 0.96766 0.0
C856 C 0.16028 0.43205 -0.00145 0.0
C857 C 0.1693 0.41534 0.94837 0.0
C858 C 0.17219 0.43109 0.06043 0.0
C859 C 0.19369 0.41385 0.07313 0.0
H860 H 0.14827 0.44976 -0.01074 0.0
H861 H 0.16883 0.44807 0.09655 0.0
S862 S 0.21279 0.35517 0.96337 0.0
N863 N 0.19074 0.37147 0.9195 0.0
N864 N 0.21565 0.3725 0.03545 0.0
C865 C 0.19756 0.39218 0.02595 0.0
C866 C 0.18435 0.39198 0.96345 0.0
C867 C 0.74464 0.5691 0.41095 0.0
C868 C 0.78381 0.58687 0.40175 0.0
C869 C 0.72964 0.56821 0.47113 0.0
C870 C 0.75364 0.58526 0.52323 0.0
H871 H 0.72559 0.55212 0.37332 0.0
H872 H 0.69967 0.55024 0.47805 0.0
S873 S 0.85772 0.64571 0.51742 0.0
N874 N 0.84575 0.62843 0.4447 0.0
N875 N 0.81791 0.62928 0.55738 0.0
C876 C 0.79254 0.60878 0.51136 0.0
C877 C 0.80771 0.60861 0.45064 0.0
C878 C 0.40048 0.18198 0.43935 0.0
C879 C 0.43411 0.21182 0.41564 0.0
C880 C 0.40094 0.16262 0.49401 0.0
C881 C 0.43516 0.17148 0.52375 0.0
H882 H 0.37381 0.17495 0.41764 0.0
H883 H 0.37447 0.14225 0.51528 0.0
S884 S 0.53073 0.2454 0.4764 0.0
N885 N 0.50243 0.24786 0.42352 0.0
N886 N 0.5032 0.21049 0.52383 0.0
C887 C 0.46895 0.19918 0.49708 0.0
C888 C 0.46844 0.2197 0.4436 0.0
C889 C 0.82794 0.2571 0.41573 0.0
C890 C 0.80942 0.21821 0.40391 0.0
C891 C 0.84243 0.27146 0.476 0.0
C892 C 0.83871 0.24709 0.52564 0.0
H893 H 0.82742 0.27602 0.38044 0.0
H894 H 0.85212 0.30082 0.48531 0.0
S895 S 0.80389 0.14471 0.51092 0.0
N896 N 0.7955 0.1569 0.44068 0.0
N897 N 0.82497 0.18378 0.55345 0.0
C898 C 0.82637 0.2091 0.51048 0.0
C899 C 0.81065 0.19446 0.44966 0.0
loop_
_geom_bond_atom_site_label_1
_geom_bond_atom_site_label_2
_geom_bond_distance
_geom_bond_site_symmetry_2
_ccdc_geom_bond_type
C0 O12 1.241 . S
C0 O13 1.280 . S
C1 O14 1.277 . S
C1 O15 1.245 1_556 S
C2 O26 1.247 . S
C2 O28 1.289 . S
Mg3 O4 1.926 . S
Mg3 O13 1.984 . S
Mg3 O15 1.988 . S
Mg3 O16 2.061 . S
O4 Mg3 1.926 . S
O4 Mg5 1.986 . S
O4 Mg6 1.917 . S
Mg5 O4 1.986 . S
Mg5 O12 2.042 . S
Mg5 O14 2.041 1_554 S
Mg5 O20 2.038 . S
Mg5 O28 2.238 . S
Mg6 O4 1.917 . S
Mg6 O7 1.917 . S
Mg6 O17 2.106 . S
Mg6 O19 2.079 . S
Mg6 O28 2.106 . S
Mg6 O29 2.079 . S
O7 Mg6 1.917 . S
O7 Mg8 1.926 . S
O7 Mg9 1.986 . S
Mg8 O7 1.926 . S
Mg8 O22 1.984 . S
Mg8 O25 1.988 . S
Mg8 O26 2.061 . S
Mg9 O7 1.986 . S
Mg9 O17 2.238 . S
Mg9 O21 2.042 . S
Mg9 O23 2.041 . S
Mg9 O30 2.038 . S
C10 O16 1.247 . S
C10 O17 1.289 . S
C11 O29 1.245 . S
C11 O30 1.274 . S
O12 C0 1.241 . S
O12 Mg5 2.042 . S
O13 C0 1.280 . S
O13 Mg3 1.984 . S
O14 C1 1.277 . S
O14 Mg5 2.041 1_556 S
O15 C1 1.245 1_554 S
O15 Mg3 1.988 . S
O16 Mg3 2.061 . S
O16 C10 1.247 . S
O17 Mg6 2.106 . S
O17 Mg9 2.238 . S
O17 C10 1.289 . S
C18 O19 1.245 . S
C18 O20 1.274 . S
O19 Mg6 2.079 . S
O19 C18 1.245 . S
O20 Mg5 2.038 . S
O20 C18 1.274 . S
O21 Mg9 2.042 . S
O21 C24 1.241 . S
O22 Mg8 1.984 . S
O22 C24 1.280 . S
O23 Mg9 2.041 . S
O23 C27 1.277 . S
C24 O21 1.241 . S
C24 O22 1.280 . S
O25 Mg8 1.988 . S
O25 C27 1.245 . S
O26 C2 1.247 . S
O26 Mg8 2.061 . S
C27 O23 1.277 . S
C27 O25 1.245 . S
O28 C2 1.289 . S
O28 Mg5 2.238 . S
O28 Mg6 2.106 . S
O29 Mg6 2.079 . S
O29 C11 1.245 . S
O30 Mg9 2.038 . S
O30 C11 1.274 . S
C31 O43 1.241 . S
C31 O44 1.280 . S
C32 O45 1.277 . S
C32 O46 1.245 1_556 S
C33 O57 1.247 . S
C33 O59 1.289 . S
Mg34 O35 1.926 . S
Mg34 O44 1.984 . S
Mg34 O46 1.988 . S
Mg34 O47 2.061 . S
O35 Mg34 1.926 . S
O35 Mg36 1.986 . S
O35 Mg37 1.917 . S
Mg36 O35 1.986 . S
Mg36 O43 2.042 . S
Mg36 O45 2.041 1_554 S
Mg36 O51 2.038 . S
Mg36 O59 2.238 . S
Mg37 O35 1.917 . S
Mg37 O38 1.917 . S
Mg37 O48 2.106 . S
Mg37 O50 2.079 . S
Mg37 O59 2.106 . S
Mg37 O60 2.079 . S
O38 Mg37 1.917 . S
O38 Mg39 1.926 . S
O38 Mg40 1.986 . S
Mg39 O38 1.926 . S
Mg39 O53 1.984 . S
Mg39 O56 1.988 . S
Mg39 O57 2.061 . S
Mg40 O38 1.986 . S
Mg40 O48 2.238 . S
Mg40 O52 2.042 . S
Mg40 O54 2.041 . S
Mg40 O61 2.038 . S
C41 O47 1.247 . S
C41 O48 1.289 . S
C42 O60 1.245 . S
C42 O61 1.274 . S
O43 C31 1.241 . S
O43 Mg36 2.042 . S
O44 C31 1.280 . S
O44 Mg34 1.984 . S
O45 C32 1.277 . S
O45 Mg36 2.041 1_556 S
O46 C32 1.245 1_554 S
O46 Mg34 1.988 . S
O47 Mg34 2.061 . S
O47 C41 1.247 . S
O48 Mg37 2.106 . S
O48 Mg40 2.238 . S
O48 C41 1.289 . S
C49 O50 1.245 . S
C49 O51 1.274 . S
O50 Mg37 2.079 . S
O50 C49 1.245 . S
O51 Mg36 2.038 . S
O51 C49 1.274 . S
O52 Mg40 2.042 . S
O52 C55 1.241 . S
O53 Mg39 1.984 . S
O53 C55 1.280 . S
O54 Mg40 2.041 . S
O54 C58 1.277 . S
C55 O52 1.241 . S
C55 O53 1.280 . S
O56 Mg39 1.988 . S
O56 C58 1.245 . S
O57 C33 1.247 . S
O57 Mg39 2.061 . S
C58 O54 1.277 . S
C58 O56 1.245 . S
O59 C33 1.289 . S
O59 Mg36 2.238 . S
O59 Mg37 2.106 . S
O60 Mg37 2.079 . S
O60 C42 1.245 . S
O61 Mg40 2.038 . S
O61 C42 1.274 . S
C62 O74 1.241 . S
C62 O75 1.280 . S
C63 O76 1.277 . S
C63 O77 1.245 1_556 S
C64 O88 1.247 . S
C64 O90 1.289 . S
Mg65 O66 1.926 . S
Mg65 O75 1.984 . S
Mg65 O77 1.988 . S
Mg65 O78 2.061 . S
O66 Mg65 1.926 . S
O66 Mg67 1.986 . S
O66 Mg68 1.917 . S
Mg67 O66 1.986 . S
Mg67 O74 2.042 . S
Mg67 O76 2.041 1_554 S
Mg67 O82 2.038 . S
Mg67 O90 2.238 . S
Mg68 O66 1.917 . S
Mg68 O69 1.917 . S
Mg68 O79 2.106 . S
Mg68 O81 2.079 . S
Mg68 O90 2.106 . S
Mg68 O91 2.079 . S
O69 Mg68 1.917 . S
O69 Mg70 1.926 . S
O69 Mg71 1.986 . S
Mg70 O69 1.926 . S
Mg70 O84 1.984 . S
Mg70 O87 1.988 . S
Mg70 O88 2.061 . S
Mg71 O69 1.986 . S
Mg71 O79 2.238 . S
Mg71 O83 2.042 . S
Mg71 O85 2.041 . S
Mg71 O92 2.038 . S
C72 O78 1.247 . S
C72 O79 1.289 . S
C73 O91 1.245 . S
C73 O92 1.274 . S
O74 C62 1.241 . S
O74 Mg67 2.042 . S
O75 C62 1.280 . S
O75 Mg65 1.984 . S
O76 C63 1.277 . S
O76 Mg67 2.041 1_556 S
O77 C63 1.245 1_554 S
O77 Mg65 1.988 . S
O78 Mg65 2.061 . S
O78 C72 1.247 . S
O79 Mg68 2.106 . S
O79 Mg71 2.238 . S
O79 C72 1.289 . S
C80 O81 1.245 . S
C80 O82 1.274 . S
O81 Mg68 2.079 . S
O81 C80 1.245 . S
O82 Mg67 2.038 . S
O82 C80 1.274 . S
O83 Mg71 2.042 . S
O83 C86 1.241 . S
O84 Mg70 1.984 . S
O84 C86 1.280 . S
O85 Mg71 2.041 . S
O85 C89 1.277 . S
C86 O83 1.241 . S
C86 O84 1.280 . S
O87 Mg70 1.988 . S
O87 C89 1.245 . S
O88 C64 1.247 . S
O88 Mg70 2.061 . S
C89 O85 1.277 . S
C89 O87 1.245 . S
O90 C64 1.289 . S
O90 Mg67 2.238 . S
O90 Mg68 2.106 . S
O91 Mg68 2.079 . S
O91 C73 1.245 . S
O92 Mg71 2.038 . S
O92 C73 1.274 . S
C93 O105 1.241 . S
C93 O106 1.280 . S
C94 O107 1.277 . S
C94 O108 1.245 . S
C95 O119 1.247 . S
C95 O121 1.289 . S
Mg96 O97 1.926 . S
Mg96 O106 1.984 . S
Mg96 O108 1.988 . S
Mg96 O109 2.061 . S
O97 Mg96 1.926 . S
O97 Mg98 1.986 . S
O97 Mg99 1.917 . S
Mg98 O97 1.986 . S
Mg98 O105 2.042 . S
Mg98 O107 2.041 . S
Mg98 O113 2.038 . S
Mg98 O121 2.238 . S
Mg99 O97 1.917 . S
Mg99 O100 1.917 . S
Mg99 O110 2.106 . S
Mg99 O112 2.079 . S
Mg99 O121 2.106 . S
Mg99 O122 2.079 . S
O100 Mg99 1.917 . S
O100 Mg101 1.926 . S
O100 Mg102 1.986 . S
Mg101 O100 1.926 . S
Mg101 O115 1.984 . S
Mg101 O118 1.988 . S
Mg101 O119 2.061 . S
Mg102 O100 1.986 . S
Mg102 O110 2.238 . S
Mg102 O114 2.042 . S
Mg102 O116 2.041 . S
Mg102 O123 2.038 . S
C103 O109 1.247 . S
C103 O110 1.289 . S
C104 O122 1.245 . S
C104 O123 1.274 . S
O105 C93 1.241 . S
O105 Mg98 2.042 . S
O106 C93 1.280 . S
O106 Mg96 1.984 . S
O107 C94 1.277 . S
O107 Mg98 2.041 . S
O108 C94 1.245 . S
O108 Mg96 1.988 . S
O109 Mg96 2.061 . S
O109 C103 1.247 . S
O110 Mg99 2.106 . S
O110 Mg102 2.238 . S
O110 C103 1.289 . S
C111 O112 1.245 . S
C111 O113 1.274 . S
O112 Mg99 2.079 . S
O112 C111 1.245 . S
O113 Mg98 2.038 . S
O113 C111 1.274 . S
O114 Mg102 2.042 . S
O114 C117 1.241 . S
O115 Mg101 1.984 . S
O115 C117 1.280 . S
O116 Mg102 2.041 . S
O116 C120 1.277 . S
C117 O114 1.241 . S
C117 O115 1.280 . S
O118 Mg101 1.988 . S
O118 C120 1.245 . S
O119 C95 1.247 . S
O119 Mg101 2.061 . S
C120 O116 1.277 . S
C120 O118 1.245 . S
O121 C95 1.289 . S
O121 Mg98 2.238 . S
O121 Mg99 2.106 . S
O122 Mg99 2.079 . S
O122 C104 1.245 . S
O123 Mg102 2.038 . S
O123 C104 1.274 . S
C124 O136 1.241 . S
C124 O137 1.280 . S
C125 O138 1.277 . S
C125 O139 1.245 . S
C126 O150 1.247 . S
C126 O152 1.289 . S
Mg127 O128 1.926 . S
Mg127 O137 1.984 . S
Mg127 O139 1.988 . S
Mg127 O140 2.061 . S
O128 Mg127 1.926 . S
O128 Mg129 1.986 . S
O128 Mg130 1.917 . S
Mg129 O128 1.986 . S
Mg129 O136 2.042 . S
Mg129 O138 2.041 . S
Mg129 O144 2.038 . S
Mg129 O152 2.238 . S
Mg130 O128 1.917 . S
Mg130 O131 1.917 . S
Mg130 O141 2.106 . S
Mg130 O143 2.079 . S
Mg130 O152 2.106 . S
Mg130 O153 2.079 . S
O131 Mg130 1.917 . S
O131 Mg132 1.926 . S
O131 Mg133 1.986 . S
Mg132 O131 1.926 . S
Mg132 O146 1.984 . S
Mg132 O149 1.988 . S
Mg132 O150 2.061 . S
Mg133 O131 1.986 . S
Mg133 O141 2.238 . S
Mg133 O145 2.042 . S
Mg133 O147 2.041 . S
Mg133 O154 2.038 . S
C134 O140 1.247 . S
C134 O141 1.289 . S
C135 O153 1.245 . S
C135 O154 1.274 . S
O136 C124 1.241 . S
O136 Mg129 2.042 . S
O137 C124 1.280 . S
O137 Mg127 1.984 . S
O138 C125 1.277 . S
O138 Mg129 2.041 . S
O139 C125 1.245 . S
O139 Mg127 1.988 . S
O140 Mg127 2.061 . S
O140 C134 1.247 . S
O141 Mg130 2.106 . S
O141 Mg133 2.238 . S
O141 C134 1.289 . S
C142 O143 1.245 . S
C142 O144 1.274 . S
O143 Mg130 2.079 . S
O143 C142 1.245 . S
O144 Mg129 2.038 . S
O144 C142 1.274 . S
O145 Mg133 2.042 . S
O145 C148 1.241 . S
O146 Mg132 1.984 . S
O146 C148 1.280 . S
O147 Mg133 2.041 . S
O147 C151 1.277 . S
C148 O145 1.241 . S
C148 O146 1.280 . S
O149 Mg132 1.988 . S
O149 C151 1.245 . S
O150 C126 1.247 . S
O150 Mg132 2.061 . S
C151 O147 1.277 . S
C151 O149 1.245 . S
O152 C126 1.289 . S
O152 Mg129 2.238 . S
O152 Mg130 2.106 . S
O153 Mg130 2.079 . S
O153 C135 1.245 . S
O154 Mg133 2.038 . S
O154 C135 1.274 . S
C155 O167 1.241 . S
C155 O168 1.280 . S
C156 O169 1.277 . S
C156 O170 1.245 . S
C157 O181 1.247 . S
C157 O183 1.289 . S
Mg158 O159 1.926 . S
Mg158 O168 1.984 . S
Mg158 O170 1.988 . S
Mg158 O171 2.061 . S
O159 Mg158 1.926 . S
O159 Mg160 1.986 . S
O159 Mg161 1.917 . S
Mg160 O159 1.986 . S
Mg160 O167 2.042 . S
Mg160 O169 2.041 . S
Mg160 O175 2.038 . S
Mg160 O183 2.238 . S
Mg161 O159 1.917 . S
Mg161 O162 1.917 . S
Mg161 O172 2.106 . S
Mg161 O174 2.079 . S
Mg161 O183 2.106 . S
Mg161 O184 2.079 . S
O162 Mg161 1.917 . S
O162 Mg163 1.926 . S
O162 Mg164 1.986 . S
Mg163 O162 1.926 . S
Mg163 O177 1.984 . S
Mg163 O180 1.988 . S
Mg163 O181 2.061 . S
Mg164 O162 1.986 . S
Mg164 O172 2.238 . S
Mg164 O176 2.042 . S
Mg164 O178 2.041 . S
Mg164 O185 2.038 . S
C165 O171 1.247 . S
C165 O172 1.289 . S
C166 O184 1.245 . S
C166 O185 1.274 . S
O167 C155 1.241 . S
O167 Mg160 2.042 . S
O168 C155 1.280 . S
O168 Mg158 1.984 . S
O169 C156 1.277 . S
O169 Mg160 2.041 . S
O170 C156 1.245 . S
O170 Mg158 1.988 . S
O171 Mg158 2.061 . S
O171 C165 1.247 . S
O172 Mg161 2.106 . S
O172 Mg164 2.238 . S
O172 C165 1.289 . S
C173 O174 1.245 . S
C173 O175 1.274 . S
O174 Mg161 2.079 . S
O174 C173 1.245 . S
O175 Mg160 2.038 . S
O175 C173 1.274 . S
O176 Mg164 2.042 . S
O176 C179 1.241 . S
O177 Mg163 1.984 . S
O177 C179 1.280 . S
O178 Mg164 2.041 . S
O178 C182 1.277 . S
C179 O176 1.241 . S
C179 O177 1.280 . S
O180 Mg163 1.988 . S
O180 C182 1.245 . S
O181 C157 1.247 . S
O181 Mg163 2.061 . S
C182 O178 1.277 . S
C182 O180 1.245 . S
O183 C157 1.289 . S
O183 Mg160 2.238 . S
O183 Mg161 2.106 . S
O184 Mg161 2.079 . S
O184 C166 1.245 . S
O185 Mg164 2.038 . S
O185 C166 1.274 . S
C186 O198 1.241 . S
C186 O199 1.280 . S
C187 O200 1.277 . S
C187 O201 1.245 . S
C188 O212 1.247 . S
C188 O214 1.289 . S
Mg189 O190 1.926 . S
Mg189 O199 1.984 . S
Mg189 O201 1.988 . S
Mg189 O202 2.061 . S
O190 Mg189 1.926 . S
O190 Mg191 1.986 . S
O190 Mg192 1.917 . S
Mg191 O190 1.986 . S
Mg191 O198 2.042 . S
Mg191 O200 2.041 . S
Mg191 O206 2.038 . S
Mg191 O214 2.238 . S
Mg192 O190 1.917 . S
Mg192 O193 1.917 . S
Mg192 O203 2.106 . S
Mg192 O205 2.079 . S
Mg192 O214 2.106 . S
Mg192 O215 2.079 . S
O193 Mg192 1.917 . S
O193 Mg194 1.926 . S
O193 Mg195 1.986 . S
Mg194 O193 1.926 . S
Mg194 O208 1.984 . S
Mg194 O211 1.988 . S
Mg194 O212 2.061 . S
Mg195 O193 1.986 . S
Mg195 O203 2.238 . S
Mg195 O207 2.042 . S
Mg195 O209 2.041 1_556 S
Mg195 O216 2.038 . S
C196 O202 1.247 . S
C196 O203 1.289 . S
C197 O215 1.245 . S
C197 O216 1.274 . S
O198 C186 1.241 . S
O198 Mg191 2.042 . S
O199 C186 1.280 . S
O199 Mg189 1.984 . S
O200 C187 1.277 . S
O200 Mg191 2.041 . S
O201 C187 1.245 . S
O201 Mg189 1.988 . S
O202 Mg189 2.061 . S
O202 C196 1.247 . S
O203 Mg192 2.106 . S
O203 Mg195 2.238 . S
O203 C196 1.289 . S
C204 O205 1.245 . S
C204 O206 1.274 . S
O205 Mg192 2.079 . S
O205 C204 1.245 . S
O206 Mg191 2.038 . S
O206 C204 1.274 . S
O207 Mg195 2.042 . S
O207 C210 1.241 . S
O208 Mg194 1.984 . S
O208 C210 1.280 . S
O209 Mg195 2.041 1_554 S
O209 C213 1.277 . S
C210 O207 1.241 . S
C210 O208 1.280 . S
O211 Mg194 1.988 . S
O211 C213 1.245 1_556 S
O212 C188 1.247 . S
O212 Mg194 2.061 . S
C213 O209 1.277 . S
C213 O211 1.245 1_554 S
O214 C188 1.289 . S
O214 Mg191 2.238 . S
O214 Mg192 2.106 . S
O215 Mg192 2.079 . S
O215 C197 1.245 . S
O216 Mg195 2.038 . S
O216 C197 1.274 . S
C217 O229 1.241 . S
C217 O230 1.280 . S
C218 O231 1.277 . S
C218 O232 1.245 . S
C219 O243 1.247 . S
C219 O245 1.289 . S
Mg220 O221 1.926 . S
Mg220 O230 1.984 . S
Mg220 O232 1.988 . S
Mg220 O233 2.061 . S
O221 Mg220 1.926 . S
O221 Mg222 1.986 . S
O221 Mg223 1.917 . S
Mg222 O221 1.986 . S
Mg222 O229 2.042 . S
Mg222 O231 2.041 . S
Mg222 O237 2.038 . S
Mg222 O245 2.238 . S
Mg223 O221 1.917 . S
Mg223 O224 1.917 . S
Mg223 O234 2.106 . S
Mg223 O236 2.079 . S
Mg223 O245 2.106 . S
Mg223 O246 2.079 . S
O224 Mg223 1.917 . S
O224 Mg225 1.926 . S
O224 Mg226 1.986 . S
Mg225 O224 1.926 . S
Mg225 O239 1.984 . S
Mg225 O242 1.988 . S
Mg225 O243 2.061 . S
Mg226 O224 1.986 . S
Mg226 O234 2.238 . S
Mg226 O238 2.042 . S
Mg226 O240 2.041 1_556 S
Mg226 O247 2.038 . S
C227 O233 1.247 . S
C227 O234 1.289 . S
C228 O246 1.245 . S
C228 O247 1.274 . S
O229 C217 1.241 . S
O229 Mg222 2.042 . S
O230 C217 1.280 . S
O230 Mg220 1.984 . S
O231 C218 1.277 . S
O231 Mg222 2.041 . S
O232 C218 1.245 . S
O232 Mg220 1.988 . S
O233 Mg220 2.061 . S
O233 C227 1.247 . S
O234 Mg223 2.106 . S
O234 Mg226 2.238 . S
O234 C227 1.289 . S
C235 O236 1.245 . S
C235 O237 1.274 . S
O236 Mg223 2.079 . S
O236 C235 1.245 . S
O237 Mg222 2.038 . S
O237 C235 1.274 . S
O238 Mg226 2.042 . S
O238 C241 1.241 . S
O239 Mg225 1.984 . S
O239 C241 1.280 . S
O240 Mg226 2.041 1_554 S
O240 C244 1.277 . S
C241 O238 1.241 . S
C241 O239 1.280 . S
O242 Mg225 1.988 . S
O242 C244 1.245 1_556 S
O243 C219 1.247 . S
O243 Mg225 2.061 . S
C244 O240 1.277 . S
C244 O242 1.245 1_554 S
O245 C219 1.289 . S
O245 Mg222 2.238 . S
O245 Mg223 2.106 . S
O246 Mg223 2.079 . S
O246 C228 1.245 . S
O247 Mg226 2.038 . S
O247 C228 1.274 . S
C248 O260 1.241 . S
C248 O261 1.280 . S
C249 O262 1.277 . S
C249 O263 1.245 . S
C250 O274 1.247 . S
C250 O276 1.289 . S
Mg251 O252 1.926 . S
Mg251 O261 1.984 . S
Mg251 O263 1.988 . S
Mg251 O264 2.061 . S
O252 Mg251 1.926 . S
O252 Mg253 1.986 . S
O252 Mg254 1.917 . S
Mg253 O252 1.986 . S
Mg253 O260 2.042 . S
Mg253 O262 2.041 . S
Mg253 O268 2.038 . S
Mg253 O276 2.238 . S
Mg254 O252 1.917 . S
Mg254 O255 1.917 . S
Mg254 O265 2.106 . S
Mg254 O267 2.079 . S
Mg254 O276 2.106 . S
Mg254 O277 2.079 . S
O255 Mg254 1.917 . S
O255 Mg256 1.926 . S
O255 Mg257 1.986 . S
Mg256 O255 1.926 . S
Mg256 O270 1.984 . S
Mg256 O273 1.988 . S
Mg256 O274 2.061 . S
Mg257 O255 1.986 . S
Mg257 O265 2.238 . S
Mg257 O269 2.042 . S
Mg257 O271 2.041 1_556 S
Mg257 O278 2.038 . S
C258 O264 1.247 . S
C258 O265 1.289 . S
C259 O277 1.245 . S
C259 O278 1.274 . S
O260 C248 1.241 . S
O260 Mg253 2.042 . S
O261 C248 1.280 . S
O261 Mg251 1.984 . S
O262 C249 1.277 . S
O262 Mg253 2.041 . S
O263 C249 1.245 . S
O263 Mg251 1.988 . S
O264 Mg251 2.061 . S
O264 C258 1.247 . S
O265 Mg254 2.106 . S
O265 Mg257 2.238 . S
O265 C258 1.289 . S
C266 O267 1.245 . S
C266 O268 1.274 . S
O267 Mg254 2.079 . S
O267 C266 1.245 . S
O268 Mg253 2.038 . S
O268 C266 1.274 . S
O269 Mg257 2.042 . S
O269 C272 1.241 . S
O270 Mg256 1.984 . S
O270 C272 1.280 . S
O271 Mg257 2.041 1_554 S
O271 C275 1.277 . S
C272 O269 1.241 . S
C272 O270 1.280 . S
O273 Mg256 1.988 . S
O273 C275 1.245 1_556 S
O274 C250 1.247 . S
O274 Mg256 2.061 . S
C275 O271 1.277 . S
C275 O273 1.245 1_554 S
O276 C250 1.289 . S
O276 Mg253 2.238 . S
O276 Mg254 2.106 . S
O277 Mg254 2.079 . S
O277 C259 1.245 . S
O278 Mg257 2.038 . S
O278 C259 1.274 . S
C279 O291 1.241 . S
C279 O292 1.280 . S
C280 O293 1.277 . S
C280 O294 1.245 . S
C281 O305 1.247 . S
C281 O307 1.289 . S
Mg282 O283 1.926 . S
Mg282 O292 1.984 . S
Mg282 O294 1.988 . S
Mg282 O295 2.061 . S
O283 Mg282 1.926 . S
O283 Mg284 1.986 . S
O283 Mg285 1.917 . S
Mg284 O283 1.986 . S
Mg284 O291 2.042 . S
Mg284 O293 2.041 . S
Mg284 O299 2.038 . S
Mg284 O307 2.238 . S
Mg285 O283 1.917 . S
Mg285 O286 1.917 . S
Mg285 O296 2.106 . S
Mg285 O298 2.079 . S
Mg285 O307 2.106 . S
Mg285 O308 2.079 . S
O286 Mg285 1.917 . S
O286 Mg287 1.926 . S
O286 Mg288 1.986 . S
Mg287 O286 1.926 . S
Mg287 O301 1.984 . S
Mg287 O304 1.988 . S
Mg287 O305 2.061 . S
Mg288 O286 1.986 . S
Mg288 O296 2.238 . S
Mg288 O300 2.042 . S
Mg288 O302 2.041 . S
Mg288 O309 2.038 . S
C289 O295 1.247 . S
C289 O296 1.289 . S
C290 O308 1.245 . S
C290 O309 1.274 . S
O291 C279 1.241 . S
O291 Mg284 2.042 . S
O292 C279 1.280 . S
O292 Mg282 1.984 . S
O293 C280 1.277 . S
O293 Mg284 2.041 . S
O294 C280 1.245 . S
O294 Mg282 1.988 . S
O295 Mg282 2.061 . S
O295 C289 1.247 . S
O296 Mg285 2.106 . S
O296 Mg288 2.238 . S
O296 C289 1.289 . S
C297 O298 1.245 . S
C297 O299 1.274 . S
O298 Mg285 2.079 . S
O298 C297 1.245 . S
O299 Mg284 2.038 . S
O299 C297 1.274 . S
O300 Mg288 2.042 . S
O300 C303 1.241 . S
O301 Mg287 1.984 . S
O301 C303 1.280 . S
O302 Mg288 2.041 . S
O302 C306 1.277 . S
C303 O300 1.241 . S
C303 O301 1.280 . S
O304 Mg287 1.988 . S
O304 C306 1.245 . S
O305 C281 1.247 . S
O305 Mg287 2.061 . S
C306 O302 1.277 . S
C306 O304 1.245 . S
O307 C281 1.289 . S
O307 Mg284 2.238 . S
O307 Mg285 2.106 . S
O308 Mg285 2.079 . S
O308 C290 1.245 . S
O309 Mg288 2.038 . S
O309 C290 1.274 . S
C310 O322 1.241 . S
C310 O323 1.280 . S
C311 O324 1.277 . S
C311 O325 1.245 . S
C312 O336 1.247 . S
C312 O338 1.289 . S
Mg313 O314 1.926 . S
Mg313 O323 1.984 . S
Mg313 O325 1.988 . S
Mg313 O326 2.061 . S
O314 Mg313 1.926 . S
O314 Mg315 1.986 . S
O314 Mg316 1.917 . S
Mg315 O314 1.986 . S
Mg315 O322 2.042 . S
Mg315 O324 2.041 . S
Mg315 O330 2.038 . S
Mg315 O338 2.238 . S
Mg316 O314 1.917 . S
Mg316 O317 1.917 . S
Mg316 O327 2.106 . S
Mg316 O329 2.079 . S
Mg316 O338 2.106 . S
Mg316 O339 2.079 . S
O317 Mg316 1.917 . S
O317 Mg318 1.926 . S
O317 Mg319 1.986 . S
Mg318 O317 1.926 . S
Mg318 O332 1.984 . S
Mg318 O335 1.988 . S
Mg318 O336 2.061 . S
Mg319 O317 1.986 . S
Mg319 O327 2.238 . S
Mg319 O331 2.042 . S
Mg319 O333 2.041 . S
Mg319 O340 2.038 . S
C320 O326 1.247 . S
C320 O327 1.289 . S
C321 O339 1.245 . S
C321 O340 1.274 . S
O322 C310 1.241 . S
O322 Mg315 2.042 . S
O323 C310 1.280 . S
O323 Mg313 1.984 . S
O324 C311 1.277 . S
O324 Mg315 2.041 . S
O325 C311 1.245 . S
O325 Mg313 1.988 . S
O326 Mg313 2.061 . S
O326 C320 1.247 . S
O327 Mg316 2.106 . S
O327 Mg319 2.238 . S
O327 C320 1.289 . S
C328 O329 1.245 . S
C328 O330 1.274 . S
O329 Mg316 2.079 . S
O329 C328 1.245 . S
O330 Mg315 2.038 . S
O330 C328 1.274 . S
O331 Mg319 2.042 . S
O331 C334 1.241 . S
O332 Mg318 1.984 . S
O332 C334 1.280 . S
O333 Mg319 2.041 . S
O333 C337 1.277 . S
C334 O331 1.241 . S
C334 O332 1.280 . S
O335 Mg318 1.988 . S
O335 C337 1.245 . S
O336 C312 1.247 . S
O336 Mg318 2.061 . S
C337 O333 1.277 . S
C337 O335 1.245 . S
O338 C312 1.289 . S
O338 Mg315 2.238 . S
O338 Mg316 2.106 . S
O339 Mg316 2.079 . S
O339 C321 1.245 . S
O340 Mg319 2.038 . S
O340 C321 1.274 . S
C341 O353 1.241 . S
C341 O354 1.280 . S
C342 O355 1.277 . S
C342 O356 1.245 . S
C343 O367 1.247 . S
C343 O369 1.289 . S
Mg344 O345 1.926 . S
Mg344 O354 1.984 . S
Mg344 O356 1.988 . S
Mg344 O357 2.061 . S
O345 Mg344 1.926 . S
O345 Mg346 1.986 . S
O345 Mg347 1.917 . S
Mg346 O345 1.986 . S
Mg346 O353 2.042 . S
Mg346 O355 2.041 . S
Mg346 O361 2.038 . S
Mg346 O369 2.238 . S
Mg347 O345 1.917 . S
Mg347 O348 1.917 . S
Mg347 O358 2.106 . S
Mg347 O360 2.079 . S
Mg347 O369 2.106 . S
Mg347 O370 2.079 . S
O348 Mg347 1.917 . S
O348 Mg349 1.926 . S
O348 Mg350 1.986 . S
Mg349 O348 1.926 . S
Mg349 O363 1.984 . S
Mg349 O366 1.988 . S
Mg349 O367 2.061 . S
Mg350 O348 1.986 . S
Mg350 O358 2.238 . S
Mg350 O362 2.042 . S
Mg350 O364 2.041 . S
Mg350 O371 2.038 . S
C351 O357 1.247 . S
C351 O358 1.289 . S
C352 O370 1.245 . S
C352 O371 1.274 . S
O353 C341 1.241 . S
O353 Mg346 2.042 . S
O354 C341 1.280 . S
O354 Mg344 1.984 . S
O355 C342 1.277 . S
O355 Mg346 2.041 . S
O356 C342 1.245 . S
O356 Mg344 1.988 . S
O357 Mg344 2.061 . S
O357 C351 1.247 . S
O358 Mg347 2.106 . S
O358 Mg350 2.238 . S
O358 C351 1.289 . S
C359 O360 1.245 . S
C359 O361 1.274 . S
O360 Mg347 2.079 . S
O360 C359 1.245 . S
O361 Mg346 2.038 . S
O361 C359 1.274 . S
O362 Mg350 2.042 . S
O362 C365 1.241 . S
O363 Mg349 1.984 . S
O363 C365 1.280 . S
O364 Mg350 2.041 . S
O364 C368 1.277 . S
C365 O362 1.241 . S
C365 O363 1.280 . S
O366 Mg349 1.988 . S
O366 C368 1.245 . S
O367 C343 1.247 . S
O367 Mg349 2.061 . S
C368 O364 1.277 . S
C368 O366 1.245 . S
O369 C343 1.289 . S
O369 Mg346 2.238 . S
O369 Mg347 2.106 . S
O370 Mg347 2.079 . S
O370 C352 1.245 . S
O371 Mg350 2.038 . S
O371 C352 1.274 . S
C372 C373 1.369 . S
C372 C374 1.419 . S
C372 H376 0.930 . S
C373 C372 1.369 . S
C373 C382 1.429 . S
C374 C372 1.419 . S
C374 C375 1.363 . S
C374 H377 0.929 . S
C375 C374 1.363 . S
C375 C381 1.428 . S
H376 C372 0.930 . S
H377 C374 0.929 . S
S378 N379 1.613 . S
S378 N380 1.610 . S
N379 S378 1.613 . S
N379 C382 1.350 . S
N380 S378 1.610 . S
N380 C381 1.351 . S
C381 C375 1.428 . S
C381 N380 1.351 . S
C381 C382 1.434 . S
C382 C373 1.429 . S
C382 N379 1.350 . S
C382 C381 1.434 . S
C383 C384 1.369 . S
C383 C385 1.419 . S
C383 H387 0.930 . S
C384 C383 1.369 . S
C384 C393 1.429 . S
C385 C383 1.419 . S
C385 C386 1.363 . S
C385 H388 0.929 . S
C386 C385 1.363 . S
C386 C392 1.428 . S
H387 C383 0.930 . S
H388 C385 0.929 . S
S389 N390 1.613 . S
S389 N391 1.610 . S
N390 S389 1.613 . S
N390 C393 1.350 . S
N391 S389 1.610 . S
N391 C392 1.351 . S
C392 C386 1.428 . S
C392 N391 1.351 . S
C392 C393 1.434 . S
C393 C384 1.429 . S
C393 N390 1.350 . S
C393 C392 1.434 . S
C394 C395 1.369 . S
C394 C396 1.419 . S
C394 H398 0.930 . S
C395 C394 1.369 . S
C395 C404 1.429 . S
C396 C394 1.419 . S
C396 C397 1.363 . S
C396 H399 0.929 . S
C397 C396 1.363 . S
C397 C403 1.428 . S
H398 C394 0.930 . S
H399 C396 0.929 . S
S400 N401 1.613 . S
S400 N402 1.610 . S
N401 S400 1.613 . S
N401 C404 1.350 . S
N402 S400 1.610 . S
N402 C403 1.351 . S
C403 C397 1.428 . S
C403 N402 1.351 . S
C403 C404 1.434 . S
C404 C395 1.429 . S
C404 N401 1.350 . S
C404 C403 1.434 . S
C405 C406 1.369 . S
C405 C407 1.419 . S
C405 H409 0.930 . S
C406 C405 1.369 . S
C406 C415 1.429 . S
C407 C405 1.419 . S
C407 C408 1.363 . S
C407 H410 0.929 . S
C408 C407 1.363 . S
C408 C414 1.428 . S
H409 C405 0.930 . S
H410 C407 0.929 . S
S411 N412 1.613 . S
S411 N413 1.610 . S
N412 S411 1.613 . S
N412 C415 1.350 . S
N413 S411 1.610 . S
N413 C414 1.351 . S
C414 C408 1.428 . S
C414 N413 1.351 . S
C414 C415 1.434 . S
C415 C406 1.429 . S
C415 N412 1.350 . S
C415 C414 1.434 . S
C416 C417 1.369 . S
C416 C418 1.419 . S
C416 H420 0.930 . S
C417 C416 1.369 . S
C417 C426 1.429 . S
C418 C416 1.419 . S
C418 C419 1.363 . S
C418 H421 0.929 . S
C419 C418 1.363 . S
C419 C425 1.428 . S
H420 C416 0.930 . S
H421 C418 0.929 . S
S422 N423 1.613 . S
S422 N424 1.610 . S
N423 S422 1.613 . S
N423 C426 1.350 . S
N424 S422 1.610 . S
N424 C425 1.351 . S
C425 C419 1.428 . S
C425 N424 1.351 . S
C425 C426 1.434 . S
C426 C417 1.429 . S
C426 N423 1.350 . S
C426 C425 1.434 . S
C427 C428 1.369 . S
C427 C429 1.419 . S
C427 H431 0.930 . S
C428 C427 1.369 . S
C428 C437 1.429 . S
C429 C427 1.419 . S
C429 C430 1.363 . S
C429 H432 0.929 . S
C430 C429 1.363 . S
C430 C436 1.428 . S
H431 C427 0.930 . S
H432 C429 0.929 . S
S433 N434 1.613 . S
S433 N435 1.610 . S
N434 S433 1.613 . S
N434 C437 1.350 . S
N435 S433 1.610 . S
N435 C436 1.351 . S
C436 C430 1.428 . S
C436 N435 1.351 . S
C436 C437 1.434 . S
C437 C428 1.429 . S
C437 N434 1.350 . S
C437 C436 1.434 . S
C438 C439 1.369 . S
C438 C440 1.419 . S
C438 H442 0.930 . S
C439 C438 1.369 . S
C439 C448 1.429 . S
C440 C438 1.419 . S
C440 C441 1.363 . S
C440 H443 0.929 . S
C441 C440 1.363 . S
C441 C447 1.428 . S
H442 C438 0.930 . S
H443 C440 0.929 . S
S444 N445 1.613 . S
S444 N446 1.610 . S
N445 S444 1.613 . S
N445 C448 1.350 . S
N446 S444 1.610 . S
N446 C447 1.351 . S
C447 C441 1.428 . S
C447 N446 1.351 . S
C447 C448 1.434 . S
C448 C439 1.429 . S
C448 N445 1.350 . S
C448 C447 1.434 . S
C449 C450 1.369 . S
C449 C451 1.419 . S
C449 H453 0.930 . S
C450 C449 1.369 . S
C450 C459 1.429 . S
C451 C449 1.419 . S
C451 C452 1.363 . S
C451 H454 0.929 . S
C452 C451 1.363 . S
C452 C458 1.428 . S
H453 C449 0.930 . S
H454 C451 0.929 . S
S455 N456 1.613 . S
S455 N457 1.610 . S
N456 S455 1.613 . S
N456 C459 1.350 . S
N457 S455 1.610 . S
N457 C458 1.351 . S
C458 C452 1.428 . S
C458 N457 1.351 . S
C458 C459 1.434 . S
C459 C450 1.429 . S
C459 N456 1.350 . S
C459 C458 1.434 . S
C460 C461 1.369 . S
C460 C462 1.419 . S
C460 H464 0.930 . S
C461 C460 1.369 . S
C461 C470 1.429 . S
C462 C460 1.419 . S
C462 C463 1.363 . S
C462 H465 0.929 . S
C463 C462 1.363 . S
C463 C469 1.428 . S
H464 C460 0.930 . S
H465 C462 0.929 . S
S466 N467 1.613 . S
S466 N468 1.610 . S
N467 S466 1.613 . S
N467 C470 1.350 . S
N468 S466 1.610 . S
N468 C469 1.351 . S
C469 C463 1.428 . S
C469 N468 1.351 . S
C469 C470 1.434 . S
C470 C461 1.429 . S
C470 N467 1.350 . S
C470 C469 1.434 . S
C471 C472 1.369 . S
C471 C473 1.419 . S
C471 H475 0.930 . S
C472 C471 1.369 . S
C472 C481 1.429 . S
C473 C471 1.419 . S
C473 C474 1.363 . S
C473 H476 0.929 . S
C474 C473 1.363 . S
C474 C480 1.428 . S
H475 C471 0.930 . S
H476 C473 0.929 . S
S477 N478 1.613 . S
S477 N479 1.610 . S
N478 S477 1.613 . S
N478 C481 1.350 . S
N479 S477 1.610 . S
N479 C480 1.351 . S
C480 C474 1.428 . S
C480 N479 1.351 . S
C480 C481 1.434 . S
C481 C472 1.429 . S
C481 N478 1.350 . S
C481 C480 1.434 . S
C482 C483 1.369 . S
C482 C484 1.419 . S
C482 H486 0.930 . S
C483 C482 1.369 . S
C483 C492 1.429 . S
C484 C482 1.419 . S
C484 C485 1.363 . S
C484 H487 0.929 . S
C485 C484 1.363 . S
C485 C491 1.428 . S
H486 C482 0.930 . S
H487 C484 0.929 . S
S488 N489 1.613 . S
S488 N490 1.610 . S
N489 S488 1.613 . S
N489 C492 1.350 . S
N490 S488 1.610 . S
N490 C491 1.351 . S
C491 C485 1.428 . S
C491 N490 1.351 . S
C491 C492 1.434 . S
C492 C483 1.429 . S
C492 N489 1.350 . S
C492 C491 1.434 . S
C493 C494 1.369 . S
C493 C495 1.419 . S
C493 H497 0.930 . S
C494 C493 1.369 . S
C494 C503 1.429 . S
C495 C493 1.419 . S
C495 C496 1.363 . S
C495 H498 0.929 . S
C496 C495 1.363 . S
C496 C502 1.428 . S
H497 C493 0.930 . S
H498 C495 0.929 . S
S499 N500 1.613 . S
S499 N501 1.610 . S
N500 S499 1.613 . S
N500 C503 1.350 . S
N501 S499 1.610 . S
N501 C502 1.351 . S
C502 C496 1.428 . S
C502 N501 1.351 . S
C502 C503 1.434 . S
C503 C494 1.429 . S
C503 N500 1.350 . S
C503 C502 1.434 . S
C504 C505 1.369 1_554 S
C504 C506 1.419 . S
C504 H508 0.930 . S
C505 C504 1.369 1_556 S
C505 C514 1.429 . S
C506 C504 1.419 . S
C506 C507 1.363 . S
C506 H509 0.929 . S
C507 C506 1.363 . S
C507 C513 1.428 1_554 S
H508 C504 0.930 . S
H509 C506 0.929 . S
S510 N511 1.613 . S
S510 N512 1.610 . S
N511 S510 1.613 . S
N511 C514 1.350 . S
N512 S510 1.610 . S
N512 C513 1.351 . S
C513 C507 1.428 1_556 S
C513 N512 1.351 . S
C513 C514 1.434 . S
C514 C505 1.429 . S
C514 N511 1.350 . S
C514 C513 1.434 . S
C515 C516 1.369 1_565 S
C515 C517 1.419 1_554 S
C515 H519 0.930 . S
C516 C515 1.369 1_545 S
C516 C525 1.429 . S
C517 C515 1.419 1_556 S
C517 C518 1.363 . S
C517 H520 0.929 . S
C518 C517 1.363 . S
C518 C524 1.428 1_565 S
H519 C515 0.930 . S
H520 C517 0.929 . S
S521 N522 1.613 . S
S521 N523 1.610 1_554 S
N522 S521 1.613 . S
N522 C525 1.350 . S
N523 S521 1.610 1_556 S
N523 C524 1.351 . S
C524 C518 1.428 1_545 S
C524 N523 1.351 . S
C524 C525 1.434 1_556 S
C525 C516 1.429 . S
C525 N522 1.350 . S
C525 C524 1.434 1_554 S
C526 C527 1.369 1_556 S
C526 C528 1.419 . S
C526 H530 0.930 . S
C527 C526 1.369 1_554 S
C527 C536 1.429 1_655 S
C528 C526 1.419 . S
C528 C529 1.363 1_655 S
C528 H531 0.929 . S
C529 C528 1.363 1_455 S
C529 C535 1.428 1_556 S
H530 C526 0.930 . S
H531 C528 0.929 . S
S532 N533 1.613 . S
S532 N534 1.610 . S
N533 S532 1.613 . S
N533 C536 1.350 . S
N534 S532 1.610 . S
N534 C535 1.351 . S
C535 C529 1.428 1_554 S
C535 N534 1.351 . S
C535 C536 1.434 . S
C536 C527 1.429 1_455 S
C536 N533 1.350 . S
C536 C535 1.434 . S
C537 C538 1.369 . S
C537 C539 1.419 . S
C537 H541 0.930 . S
C538 C537 1.369 . S
C538 C547 1.429 . S
C539 C537 1.419 . S
C539 C540 1.363 . S
C539 H542 0.929 . S
C540 C539 1.363 . S
C540 C546 1.428 . S
H541 C537 0.930 . S
H542 C539 0.929 . S
S543 N544 1.613 . S
S543 N545 1.610 . S
N544 S543 1.613 . S
N544 C547 1.350 . S
N545 S543 1.610 . S
N545 C546 1.351 . S
C546 C540 1.428 . S
C546 N545 1.351 . S
C546 C547 1.434 . S
C547 C538 1.429 . S
C547 N544 1.350 . S
C547 C546 1.434 . S
C548 C549 1.369 1_545 S
C548 C550 1.419 . S
C548 H552 0.930 . S
C549 C548 1.369 1_565 S
C549 C558 1.429 . S
C550 C548 1.419 . S
C550 C551 1.363 . S
C550 H553 0.929 . S
C551 C550 1.363 . S
C551 C557 1.428 1_545 S
H552 C548 0.930 . S
H553 C550 0.929 . S
S554 N555 1.613 . S
S554 N556 1.610 . S
N555 S554 1.613 . S
N555 C558 1.350 . S
N556 S554 1.610 . S
N556 C557 1.351 . S
C557 C551 1.428 1_565 S
C557 N556 1.351 . S
C557 C558 1.434 . S
C558 C549 1.429 . S
C558 N555 1.350 . S
C558 C557 1.434 . S
C559 C560 1.369 1_455 S
C559 C561 1.419 . S
C559 H563 0.930 . S
C560 C559 1.369 1_655 S
C560 C569 1.429 . S
C561 C559 1.419 . S
C561 C562 1.363 . S
C561 H564 0.929 . S
C562 C561 1.363 . S
C562 C568 1.428 1_455 S
H563 C559 0.930 . S
H564 C561 0.929 . S
S565 N566 1.613 . S
S565 N567 1.610 . S
N566 S565 1.613 . S
N566 C569 1.350 . S
N567 S565 1.610 . S
N567 C568 1.351 . S
C568 C562 1.428 1_655 S
C568 N567 1.351 . S
C568 C569 1.434 . S
C569 C560 1.429 . S
C569 N566 1.350 . S
C569 C568 1.434 . S
C570 C571 1.369 . S
C570 C572 1.419 . S
C570 H574 0.930 . S
C571 C570 1.369 . S
C571 C580 1.429 . S
C572 C570 1.419 . S
C572 C573 1.363 . S
C572 H575 0.929 . S
C573 C572 1.363 . S
C573 C579 1.428 . S
H574 C570 0.930 . S
H575 C572 0.929 . S
S576 N577 1.613 . S
S576 N578 1.610 . S
N577 S576 1.613 . S
N577 C580 1.350 . S
N578 S576 1.610 . S
N578 C579 1.351 . S
C579 C573 1.428 . S
C579 N578 1.351 . S
C579 C580 1.434 . S
C580 C571 1.429 . S
C580 N577 1.350 . S
C580 C579 1.434 . S
C581 C582 1.369 . S
C581 C583 1.419 . S
C581 H585 0.930 . S
C582 C581 1.369 . S
C582 C591 1.429 . S
C583 C581 1.419 . S
C583 C584 1.363 . S
C583 H586 0.929 . S
C584 C583 1.363 . S
C584 C590 1.428 . S
H585 C581 0.930 . S
H586 C583 0.929 . S
S587 N588 1.613 . S
S587 N589 1.610 . S
N588 S587 1.613 . S
N588 C591 1.350 . S
N589 S587 1.610 . S
N589 C590 1.351 . S
C590 C584 1.428 . S
C590 N589 1.351 . S
C590 C591 1.434 . S
C591 C582 1.429 . S
C591 N588 1.350 . S
C591 C590 1.434 . S
C592 C593 1.369 . S
C592 C594 1.419 . S
C592 H596 0.930 . S
C593 C592 1.369 . S
C593 C602 1.429 . S
C594 C592 1.419 . S
C594 C595 1.363 . S
C594 H597 0.929 . S
C595 C594 1.363 . S
C595 C601 1.428 . S
H596 C592 0.930 . S
H597 C594 0.929 . S
S598 N599 1.613 . S
S598 N600 1.610 . S
N599 S598 1.613 . S
N599 C602 1.350 . S
N600 S598 1.610 . S
N600 C601 1.351 . S
C601 C595 1.428 . S
C601 N600 1.351 . S
C601 C602 1.434 . S
C602 C593 1.429 . S
C602 N599 1.350 . S
C602 C601 1.434 . S
C603 C604 1.369 . S
C603 C605 1.419 . S
C603 H607 0.930 . S
C604 C603 1.369 . S
C604 C613 1.429 . S
C605 C603 1.419 . S
C605 C606 1.363 . S
C605 H608 0.929 . S
C606 C605 1.363 . S
C606 C612 1.428 . S
H607 C603 0.930 . S
H608 C605 0.929 . S
S609 N610 1.613 . S
S609 N611 1.610 . S
N610 S609 1.613 . S
N610 C613 1.350 . S
N611 S609 1.610 . S
N611 C612 1.351 . S
C612 C606 1.428 . S
C612 N611 1.351 . S
C612 C613 1.434 . S
C613 C604 1.429 . S
C613 N610 1.350 . S
C613 C612 1.434 . S
C614 C615 1.369 . S
C614 C616 1.419 . S
C614 H618 0.930 . S
C615 C614 1.369 . S
C615 C624 1.429 . S
C616 C614 1.419 . S
C616 C617 1.363 . S
C616 H619 0.929 . S
C617 C616 1.363 . S
C617 C623 1.428 . S
H618 C614 0.930 . S
H619 C616 0.929 . S
S620 N621 1.613 . S
S620 N622 1.610 . S
N621 S620 1.613 . S
N621 C624 1.350 . S
N622 S620 1.610 . S
N622 C623 1.351 . S
C623 C617 1.428 . S
C623 N622 1.351 . S
C623 C624 1.434 . S
C624 C615 1.429 . S
C624 N621 1.350 . S
C624 C623 1.434 . S
C625 C626 1.369 . S
C625 C627 1.419 . S
C625 H629 0.930 . S
C626 C625 1.369 . S
C626 C635 1.429 . S
C627 C625 1.419 . S
C627 C628 1.363 . S
C627 H630 0.929 . S
C628 C627 1.363 . S
C628 C634 1.428 . S
H629 C625 0.930 . S
H630 C627 0.929 . S
S631 N632 1.613 . S
S631 N633 1.610 . S
N632 S631 1.613 . S
N632 C635 1.350 . S
N633 S631 1.610 . S
N633 C634 1.351 . S
C634 C628 1.428 . S
C634 N633 1.351 . S
C634 C635 1.434 . S
C635 C626 1.429 . S
C635 N632 1.350 . S
C635 C634 1.434 . S
C636 C637 1.369 . S
C636 C638 1.419 . S
C636 H640 0.930 . S
C637 C636 1.369 . S
C637 C646 1.429 . S
C638 C636 1.419 . S
C638 C639 1.363 . S
C638 H641 0.929 . S
C639 C638 1.363 . S
C639 C645 1.428 . S
H640 C636 0.930 . S
H641 C638 0.929 . S
S642 N643 1.613 . S
S642 N644 1.610 . S
N643 S642 1.613 . S
N643 C646 1.350 . S
N644 S642 1.610 . S
N644 C645 1.351 . S
C645 C639 1.428 . S
C645 N644 1.351 . S
C645 C646 1.434 . S
C646 C637 1.429 . S
C646 N643 1.350 . S
C646 C645 1.434 . S
C647 C648 1.369 . S
C647 C649 1.419 . S
C647 H651 0.930 . S
C648 C647 1.369 . S
C648 C657 1.429 . S
C649 C647 1.419 . S
C649 C650 1.363 . S
C649 H652 0.929 . S
C650 C649 1.363 . S
C650 C656 1.428 . S
H651 C647 0.930 . S
H652 C649 0.929 . S
S653 N654 1.613 . S
S653 N655 1.610 . S
N654 S653 1.613 . S
N654 C657 1.350 . S
N655 S653 1.610 . S
N655 C656 1.351 . S
C656 C650 1.428 . S
C656 N655 1.351 . S
C656 C657 1.434 . S
C657 C648 1.429 . S
C657 N654 1.350 . S
C657 C656 1.434 . S
C658 C659 1.369 . S
C658 C660 1.419 . S
C658 H662 0.930 . S
C659 C658 1.369 . S
C659 C668 1.429 . S
C660 C658 1.419 . S
C660 C661 1.363 . S
C660 H663 0.929 . S
C661 C660 1.363 . S
C661 C667 1.428 . S
H662 C658 0.930 . S
H663 C660 0.929 . S
S664 N665 1.613 . S
S664 N666 1.610 . S
N665 S664 1.613 . S
N665 C668 1.350 . S
N666 S664 1.610 . S
N666 C667 1.351 . S
C667 C661 1.428 . S
C667 N666 1.351 . S
C667 C668 1.434 . S
C668 C659 1.429 . S
C668 N665 1.350 . S
C668 C667 1.434 . S
C669 C670 1.369 . S
C669 C671 1.419 . S
C669 H673 0.930 . S
C670 C669 1.369 . S
C670 C679 1.429 . S
C671 C669 1.419 . S
C671 C672 1.363 . S
C671 H674 0.929 . S
C672 C671 1.363 . S
C672 C678 1.428 . S
H673 C669 0.930 . S
H674 C671 0.929 . S
S675 N676 1.613 . S
S675 N677 1.610 . S
N676 S675 1.613 . S
N676 C679 1.350 . S
N677 S675 1.610 . S
N677 C678 1.351 . S
C678 C672 1.428 . S
C678 N677 1.351 . S
C678 C679 1.434 . S
C679 C670 1.429 . S
C679 N676 1.350 . S
C679 C678 1.434 . S
C680 C681 1.369 . S
C680 C682 1.419 . S
C680 H684 0.930 . S
C681 C680 1.369 . S
C681 C690 1.429 . S
C682 C680 1.419 . S
C682 C683 1.363 . S
C682 H685 0.929 . S
C683 C682 1.363 . S
C683 C689 1.428 . S
H684 C680 0.930 . S
H685 C682 0.929 . S
S686 N687 1.613 . S
S686 N688 1.610 . S
N687 S686 1.613 . S
N687 C690 1.350 . S
N688 S686 1.610 . S
N688 C689 1.351 . S
C689 C683 1.428 . S
C689 N688 1.351 . S
C689 C690 1.434 . S
C690 C681 1.429 . S
C690 N687 1.350 . S
C690 C689 1.434 . S
C691 C692 1.369 . S
C691 C693 1.419 . S
C691 H695 0.930 . S
C692 C691 1.369 . S
C692 C701 1.429 . S
C693 C691 1.419 . S
C693 C694 1.363 . S
C693 H696 0.929 . S
C694 C693 1.363 . S
C694 C700 1.428 . S
H695 C691 0.930 . S
H696 C693 0.929 . S
S697 N698 1.613 . S
S697 N699 1.610 . S
N698 S697 1.613 . S
N698 C701 1.350 . S
N699 S697 1.610 . S
N699 C700 1.351 . S
C700 C694 1.428 . S
C700 N699 1.351 . S
C700 C701 1.434 . S
C701 C692 1.429 . S
C701 N698 1.350 . S
C701 C700 1.434 . S
C702 C703 1.369 . S
C702 C704 1.419 . S
C702 H706 0.930 . S
C703 C702 1.369 . S
C703 C712 1.429 . S
C704 C702 1.419 . S
C704 C705 1.363 . S
C704 H707 0.929 . S
C705 C704 1.363 . S
C705 C711 1.428 . S
H706 C702 0.930 . S
H707 C704 0.929 . S
S708 N709 1.613 . S
S708 N710 1.610 . S
N709 S708 1.613 . S
N709 C712 1.350 . S
N710 S708 1.610 . S
N710 C711 1.351 . S
C711 C705 1.428 . S
C711 N710 1.351 . S
C711 C712 1.434 . S
C712 C703 1.429 . S
C712 N709 1.350 . S
C712 C711 1.434 . S
C713 C714 1.369 . S
C713 C715 1.419 1_565 S
C713 H717 0.930 . S
C714 C713 1.369 . S
C714 C723 1.429 . S
C715 C713 1.419 1_545 S
C715 C716 1.363 . S
C715 H718 0.929 . S
C716 C715 1.363 . S
C716 C722 1.428 . S
H717 C713 0.930 . S
H718 C715 0.929 . S
S719 N720 1.613 1_545 S
S719 N721 1.610 . S
N720 S719 1.613 1_565 S
N720 C723 1.350 . S
N721 S719 1.610 . S
N721 C722 1.351 . S
C722 C716 1.428 . S
C722 N721 1.351 . S
C722 C723 1.434 1_545 S
C723 C714 1.429 . S
C723 N720 1.350 . S
C723 C722 1.434 1_565 S
C724 C725 1.369 . S
C724 C726 1.419 1_455 S
C724 H728 0.930 . S
C725 C724 1.369 . S
C725 C734 1.429 . S
C726 C724 1.419 1_655 S
C726 C727 1.363 . S
C726 H729 0.929 . S
C727 C726 1.363 . S
C727 C733 1.428 . S
H728 C724 0.930 . S
H729 C726 0.929 . S
S730 N731 1.625 . S
S730 N732 1.610 . S
N731 S730 1.625 . S
N731 C734 1.347 1_655 S
N732 S730 1.610 . S
N732 C733 1.351 . S
C733 C727 1.428 . S
C733 N732 1.351 . S
C733 C734 1.434 1_655 S
C734 C725 1.429 . S
C734 N731 1.347 1_455 S
C734 C733 1.434 1_455 S
C735 C736 1.369 . S
C735 C737 1.419 . S
C735 H739 0.930 . S
C736 C735 1.369 . S
C736 C745 1.429 . S
C737 C735 1.419 . S
C737 C738 1.363 . S
C737 H740 0.929 . S
C738 C737 1.363 . S
C738 C744 1.428 . S
H739 C735 0.930 . S
H740 C737 0.929 . S
S741 N742 1.613 . S
S741 N743 1.610 . S
N742 S741 1.613 . S
N742 C745 1.350 . S
N743 S741 1.610 . S
N743 C744 1.351 . S
C744 C738 1.428 . S
C744 N743 1.351 . S
C744 C745 1.434 . S
C745 C736 1.429 . S
C745 N742 1.350 . S
C745 C744 1.434 . S
C746 C747 1.369 . S
C746 C748 1.419 1_565 S
C746 H750 0.930 . S
C747 C746 1.369 . S
C747 C756 1.429 . S
C748 C746 1.419 1_545 S
C748 C749 1.363 . S
C748 H751 0.929 . S
C749 C748 1.363 . S
C749 C755 1.428 . S
H750 C746 0.930 . S
H751 C748 0.929 . S
S752 N753 1.613 . S
S752 N754 1.610 1_565 S
N753 S752 1.613 . S
N753 C756 1.350 . S
N754 S752 1.610 1_545 S
N754 C755 1.351 . S
C755 C749 1.428 . S
C755 N754 1.351 . S
C755 C756 1.434 1_545 S
C756 C747 1.429 . S
C756 N753 1.350 . S
C756 C755 1.434 1_565 S
C757 C758 1.369 . S
C757 C759 1.419 1_655 S
C757 H761 0.930 . S
C758 C757 1.369 . S
C758 C767 1.429 . S
C759 C757 1.419 1_455 S
C759 C760 1.363 . S
C759 H762 0.929 . S
C760 C759 1.363 . S
C760 C766 1.428 . S
H761 C757 0.930 . S
H762 C759 0.929 . S
S763 N764 1.613 1_455 S
S763 N765 1.610 . S
N764 S763 1.613 1_655 S
N764 C767 1.350 . S
N765 S763 1.610 . S
N765 C766 1.351 . S
C766 C760 1.428 . S
C766 N765 1.351 . S
C766 C767 1.434 1_455 S
C767 C758 1.429 . S
C767 N764 1.350 . S
C767 C766 1.434 1_655 S
C768 C769 1.369 . S
C768 C770 1.419 . S
C768 H772 0.930 . S
C769 C768 1.369 . S
C769 C778 1.429 . S
C770 C768 1.419 . S
C770 C771 1.363 . S
C770 H773 0.929 . S
C771 C770 1.363 . S
C771 C777 1.428 . S
H772 C768 0.930 . S
H773 C770 0.929 . S
S774 N775 1.613 . S
S774 N776 1.610 . S
N775 S774 1.613 . S
N775 C778 1.350 . S
N776 S774 1.610 . S
N776 C777 1.351 . S
C777 C771 1.428 . S
C777 N776 1.351 . S
C777 C778 1.434 . S
C778 C769 1.429 . S
C778 N775 1.350 . S
C778 C777 1.434 . S
C779 C780 1.369 . S
C779 C781 1.419 . S
C779 H783 0.930 . S
C780 C779 1.369 . S
C780 C789 1.429 . S
C781 C779 1.419 . S
C781 C782 1.363 . S
C781 H784 0.929 . S
C782 C781 1.363 . S
C782 C788 1.428 . S
H783 C779 0.930 . S
H784 C781 0.929 . S
S785 N786 1.613 . S
S785 N787 1.610 1_554 S
N786 S785 1.613 . S
N786 C789 1.350 1_554 S
N787 S785 1.610 1_556 S
N787 C788 1.351 . S
C788 C782 1.428 . S
C788 N787 1.351 . S
C788 C789 1.434 . S
C789 C780 1.429 . S
C789 N786 1.350 1_556 S
C789 C788 1.434 . S
C790 C791 1.369 . S
C790 C792 1.419 . S
C790 H794 0.930 . S
C791 C790 1.369 . S
C791 C800 1.429 . S
C792 C790 1.419 . S
C792 C793 1.363 . S
C792 H795 0.929 . S
C793 C792 1.363 . S
C793 C799 1.428 . S
H794 C790 0.930 . S
H795 C792 0.929 . S
S796 N797 1.613 . S
S796 N798 1.610 1_554 S
N797 S796 1.613 . S
N797 C800 1.350 1_554 S
N798 S796 1.610 1_556 S
N798 C799 1.351 . S
C799 C793 1.428 . S
C799 N798 1.351 . S
C799 C800 1.434 . S
C800 C791 1.429 . S
C800 N797 1.350 1_556 S
C800 C799 1.434 . S
C801 C802 1.369 . S
C801 C803 1.419 . S
C801 H805 0.930 . S
C802 C801 1.369 . S
C802 C811 1.429 . S
C803 C801 1.419 . S
C803 C804 1.363 . S
C803 H806 0.929 . S
C804 C803 1.363 . S
C804 C810 1.428 . S
H805 C801 0.930 . S
H806 C803 0.929 . S
S807 N808 1.613 . S
S807 N809 1.610 . S
N808 S807 1.613 . S
N808 C811 1.350 . S
N809 S807 1.610 . S
N809 C810 1.351 . S
C810 C804 1.428 . S
C810 N809 1.351 . S
C810 C811 1.434 . S
C811 C802 1.429 . S
C811 N808 1.350 . S
C811 C810 1.434 . S
C812 C813 1.369 . S
C812 C814 1.419 . S
C812 H816 0.930 . S
C813 C812 1.369 . S
C813 C822 1.429 . S
C814 C812 1.419 . S
C814 C815 1.363 . S
C814 H817 0.929 . S
C815 C814 1.363 . S
C815 C821 1.428 . S
H816 C812 0.930 . S
H817 C814 0.929 . S
S818 N819 1.613 . S
S818 N820 1.610 . S
N819 S818 1.613 . S
N819 C822 1.350 . S
N820 S818 1.610 . S
N820 C821 1.351 . S
C821 C815 1.428 . S
C821 N820 1.351 . S
C821 C822 1.434 . S
C822 C813 1.429 . S
C822 N819 1.350 . S
C822 C821 1.434 . S
C823 C824 1.369 . S
C823 C825 1.419 . S
C823 H827 0.930 . S
C824 C823 1.369 . S
C824 C833 1.429 . S
C825 C823 1.419 . S
C825 C826 1.363 . S
C825 H828 0.929 . S
C826 C825 1.363 . S
C826 C832 1.428 . S
H827 C823 0.930 . S
H828 C825 0.929 . S
S829 N830 1.613 . S
S829 N831 1.610 . S
N830 S829 1.613 . S
N830 C833 1.350 . S
N831 S829 1.610 . S
N831 C832 1.351 . S
C832 C826 1.428 . S
C832 N831 1.351 . S
C832 C833 1.434 . S
C833 C824 1.429 . S
C833 N830 1.350 . S
C833 C832 1.434 . S
C834 C835 1.369 . S
C834 C836 1.419 . S
C834 H838 0.930 1_554 S
C835 C834 1.369 . S
C835 C844 1.429 . S
C836 C834 1.419 . S
C836 C837 1.363 . S
C836 H839 0.929 . S
C837 C836 1.363 . S
C837 C843 1.428 . S
H838 C834 0.930 1_556 S
H839 C836 0.929 . S
S840 N841 1.613 . S
S840 N842 1.610 . S
N841 S840 1.613 . S
N841 C844 1.350 . S
N842 S840 1.610 . S
N842 C843 1.351 . S
C843 C837 1.428 . S
C843 N842 1.351 . S
C843 C844 1.434 . S
C844 C835 1.429 . S
C844 N841 1.350 . S
C844 C843 1.434 . S
C845 C846 1.369 . S
C845 C847 1.419 . S
C845 H849 0.930 . S
C846 C845 1.369 . S
C846 C855 1.429 . S
C847 C845 1.419 . S
C847 C848 1.363 . S
C847 H850 0.929 . S
C848 C847 1.363 . S
C848 C854 1.428 . S
H849 C845 0.930 . S
H850 C847 0.929 . S
S851 N852 1.613 1_554 S
S851 N853 1.610 . S
N852 S851 1.613 1_556 S
N852 C855 1.350 1_556 S
N853 S851 1.610 . S
N853 C854 1.351 . S
C854 C848 1.428 . S
C854 N853 1.351 . S
C854 C855 1.434 . S
C855 C846 1.429 . S
C855 N852 1.350 1_554 S
C855 C854 1.434 . S
C856 C857 1.369 . S
C856 C858 1.419 . S
C856 H860 0.930 . S
C857 C856 1.369 . S
C857 C866 1.429 . S
C858 C856 1.419 . S
C858 C859 1.363 . S
C858 H861 0.929 . S
C859 C858 1.363 . S
C859 C865 1.428 . S
H860 C856 0.930 . S
H861 C858 0.929 . S
S862 N863 1.614 1_554 S
S862 N864 1.610 . S
N863 S862 1.614 1_556 S
N863 C866 1.351 1_556 S
N864 S862 1.610 . S
N864 C865 1.351 . S
C865 C859 1.428 . S
C865 N864 1.351 . S
C865 C866 1.434 . S
C866 C857 1.429 . S
C866 N863 1.351 1_554 S
C866 C865 1.434 . S
C867 C868 1.369 . S
C867 C869 1.419 . S
C867 H871 0.930 . S
C868 C867 1.369 . S
C868 C877 1.429 . S
C869 C867 1.419 . S
C869 C870 1.363 . S
C869 H872 0.929 . S
C870 C869 1.363 . S
C870 C876 1.428 . S
H871 C867 0.930 . S
H872 C869 0.929 . S
S873 N874 1.613 . S
S873 N875 1.610 . S
N874 S873 1.613 . S
N874 C877 1.350 . S
N875 S873 1.610 . S
N875 C876 1.351 . S
C876 C870 1.428 . S
C876 N875 1.351 . S
C876 C877 1.434 . S
C877 C868 1.429 . S
C877 N874 1.350 . S
C877 C876 1.434 . S
C878 C879 1.369 . S
C878 C880 1.419 . S
C878 H882 0.930 . S
C879 C878 1.369 . S
C879 C888 1.429 . S
C880 C878 1.419 . S
C880 C881 1.363 . S
C880 H883 0.929 . S
C881 C880 1.363 . S
C881 C887 1.428 . S
H882 C878 0.930 . S
H883 C880 0.929 . S
S884 N885 1.613 . S
S884 N886 1.610 . S
N885 S884 1.613 . S
N885 C888 1.350 . S
N886 S884 1.610 . S
N886 C887 1.351 . S
C887 C881 1.428 . S
C887 N886 1.351 . S
C887 C888 1.434 . S
C888 C879 1.429 . S
C888 N885 1.350 . S
C888 C887 1.434 . S
C889 C890 1.369 . S
C889 C891 1.419 . S
C889 H893 0.930 . S
C890 C889 1.369 . S
C890 C899 1.429 . S
C891 C889 1.419 . S
C891 C892 1.363 . S
C891 H894 0.929 . S
C892 C891 1.363 . S
C892 C898 1.428 . S
H893 C889 0.930 . S
H894 C891 0.929 . S
S895 N896 1.613 . S
S895 N897 1.610 . S
N896 S895 1.613 . S
N896 C899 1.350 . S
N897 S895 1.610 . S
N897 C898 1.351 . S
C898 C892 1.428 . S
C898 N897 1.351 . S
C898 C899 1.434 . S
C899 C890 1.429 . S
C899 N896 1.350 . S
C899 C898 1.434 . S
C373 C24 1.672 . S
C375 C42 1.381 . S
C384 C73 1.379 . S
C386 C55 1.672 . S
C395 C86 1.673 . S
C397 C11 1.379 . S
C406 C166 1.375 . S
C408 C117 1.671 . S
C417 C104 1.384 . S
C419 C148 1.667 . S
C428 C179 1.670 . S
C430 C135 1.388 . S
C439 C186 1.665 . S
C441 C235 1.390 . S
C450 C266 1.375 . S
C452 C217 1.672 . S
C461 C248 1.666 . S
C463 C204 1.387 . S
C472 C279 1.668 . S
C474 C359 1.390 . S
C483 C297 1.376 . S
C485 C310 1.672 . S
C494 C328 1.376 . S
C496 C341 1.670 . S
C505 C210 1.293 . S
C507 C0 1.286 . S
C516 C31 1.285 . S
C518 C241 1.294 . S
C527 C62 1.299 . S
C529 C272 1.282 . S
C538 C93 1.280 . S
C540 C303 1.297 . S
C549 C124 1.286 . S
C551 C334 1.293 . S
C560 C365 1.288 . S
C562 C155 1.291 . S
C571 C1 1.200 . S
C573 C281 1.180 . S
C582 C32 1.197 . S
C584 C312 1.178 . S
C593 C343 1.175 . S
C595 C63 1.199 . S
C604 C188 1.181 . S
C606 C94 1.197 . S
C615 C219 1.183 . S
C617 C125 1.198 . S
C626 C250 1.179 . S
C628 C156 1.201 . S
C637 C103 1.172 . S
C639 C213 1.201 . S
C648 C244 1.199 . S
C650 C134 1.182 . S
C659 C275 1.202 . S
C661 C165 1.179 . S
C670 C10 1.177 . S
C672 C306 1.198 . S
C681 C337 1.202 . S
C683 C41 1.174 . S
C692 C72 1.182 . S
C694 C368 1.200 . S
C703 C111 2.417 . S
C705 C18 2.418 . S
C714 C142 2.421 . S
C716 C49 2.423 . S
C725 C173 2.419 . S
C727 C80 2.422 . S
C736 C197 2.418 . S
C738 C290 2.418 . S
C747 C228 2.423 . S
C749 C321 2.420 . S
C758 C352 2.424 . S
C760 C259 2.423 . S
C769 C311 1.524 . S
C771 C2 1.696 1_556 S
C780 C33 1.694 1_556 S
C782 C342 1.525 . S
C791 C64 1.693 1_556 S
C793 C280 1.527 . S
C802 C95 1.695 . S
C804 C249 1.523 . S
C813 C187 1.526 . S
C815 C126 1.697 . S
C824 C218 1.521 . S
C826 C157 1.700 . S
C835 C196 1.702 1_554 S
C837 C151 1.515 . S
C846 C227 1.696 1_554 S
C848 C182 1.526 . S
C857 C258 1.696 1_554 S
C859 C120 1.526 . S
C868 C89 1.528 . S
C870 C289 1.694 . S
C879 C27 1.514 . S
C881 C320 1.700 . S
C890 C58 1.522 . S
C892 C351 1.696 . S
