# Generated by pormake.
# Topology sow, (4)-cn, num edge types: 1
# Building blocks:
#     Node 0, Type 0, BuildingBlock: CEKHIL_clean_sbu_0, # of connection points: 4
#     Node 1, Type 0, BuildingBlock: CEKHIL_clean_sbu_0, # of connection points: 4
#     Node 2, Type 0, BuildingBlock: CEKHIL_clean_sbu_0, # of connection points: 4
#     Node 3, Type 0, BuildingBlock: CEKHIL_clean_sbu_0, # of connection points: 4
#     Node 4, Type 0, BuildingBlock: CEKHIL_clean_sbu_0, # of connection points: 4
#     Node 5, Type 0, BuildingBlock: CEKHIL_clean_sbu_0, # of connection points: 4
#     Node 6, Type 0, BuildingBlock: CEKHIL_clean_sbu_0, # of connection points: 4
#     Node 7, Type 0, BuildingBlock: CEKHIL_clean_sbu_0, # of connection points: 4
#     Edge 8, Type (0, 0), BuildingBlock: XUDNAN_clean_linker_2, # of connection points: 2
#     Edge 9, Type (0, 0), BuildingBlock: XUDNAN_clean_linker_2, # of connection points: 2
#     Edge 10, Type (0, 0), BuildingBlock: XUDNAN_clean_linker_2, # of connection points: 2
#     Edge 11, Type (0, 0), BuildingBlock: XUDNAN_clean_linker_2, # of connection points: 2
#     Edge 12, Type (0, 0), BuildingBlock: XUDNAN_clean_linker_2, # of connection points: 2
#     Edge 13, Type (0, 0), BuildingBlock: XUDNAN_clean_linker_2, # of connection points: 2
#     Edge 14, Type (0, 0), BuildingBlock: XUDNAN_clean_linker_2, # of connection points: 2
#     Edge 15, Type (0, 0), BuildingBlock: XUDNAN_clean_linker_2, # of connection points: 2
#     Edge 16, Type (0, 0), BuildingBlock: XUDNAN_clean_linker_2, # of connection points: 2
#     Edge 17, Type (0, 0), BuildingBlock: XUDNAN_clean_linker_2, # of connection points: 2
#     Edge 18, Type (0, 0), BuildingBlock: XUDNAN_clean_linker_2, # of connection points: 2
#     Edge 19, Type (0, 0), BuildingBlock: XUDNAN_clean_linker_2, # of connection points: 2
#     Edge 20, Type (0, 0), BuildingBlock: XUDNAN_clean_linker_2, # of connection points: 2
#     Edge 21, Type (0, 0), BuildingBlock: XUDNAN_clean_linker_2, # of connection points: 2
#     Edge 22, Type (0, 0), BuildingBlock: XUDNAN_clean_linker_2, # of connection points: 2
#     Edge 23, Type (0, 0), BuildingBlock: XUDNAN_clean_linker_2, # of connection points: 2
# Relax obj value: 0.166
# Max RMSD: 0.206
# Mean RMSD: 0.206
data_MOF--net-sow--node1-CEKHIL_clean_sbu_0--edge1-XUDNAN_clean_linker_2
_symmetry_space_group_name_H-M    P1
_symmetry_Int_Tables_number       1
_symmetry_cell_setting            triclinic
loop_
_symmetry_equiv_pos_as_xyz
'x, y, z'
_cell_length_a     38.760583
_cell_length_b     22.157844
_cell_length_c     23.270634
_cell_angle_alpha  90.009889
_cell_angle_beta   90.200584
_cell_angle_gamma 90.002367
loop_
_atom_site_label
_atom_site_type_symbol
_atom_site_fract_x
_atom_site_fract_y
_atom_site_fract_z
_atom_type_partial_charge
Co0 Co 0.14016 0.1823 0.03682 0.0
O1 O 0.16941 0.16945 0.97133 0.0
O2 O 0.16044 0.25793 0.01286 0.0
C3 C 0.09364 0.13105 0.00584 0.0
O4 O 0.11036 0.21251 0.10288 0.0
Co5 Co 0.12038 0.07052 0.11081 0.0
O6 O 0.09051 0.1302 0.14945 0.0
C7 C 0.18647 0.1307 0.13314 0.0
C8 C 0.17463 0.22728 0.97147 0.0
C9 C 0.09193 0.18714 0.14196 0.0
O10 O 0.17963 0.1679 0.0921 0.0
O11 O 0.16692 0.08618 0.14587 0.0
O12 O 0.1 0.18512 0.98742 0.0
O13 O 0.11848 0.10601 0.03477 0.0
Co14 Co 0.35438 0.28809 0.54169 0.0
O15 O 0.32531 0.31619 0.48074 0.0
O16 O 0.32922 0.22067 0.5075 0.0
C17 C 0.40235 0.33712 0.51306 0.0
O18 O 0.38407 0.2439 0.60087 0.0
Co19 Co 0.38449 0.38523 0.62597 0.0
O20 O 0.41571 0.31684 0.64396 0.0
C21 C 0.31297 0.34336 0.64051 0.0
C22 C 0.3174 0.26034 0.47107 0.0
C23 C 0.40914 0.26153 0.63327 0.0
O24 O 0.31715 0.30266 0.6014 0.0
O25 O 0.33543 0.38396 0.65208 0.0
O26 O 0.39363 0.28639 0.48935 0.0
O27 O 0.37969 0.3599 0.54729 0.0
Co28 Co 0.63237 0.33487 0.96167 0.0
O29 O 0.65821 0.37055 0.0232 0.0
O30 O 0.65824 0.27307 1.00289 0.0
C31 C 0.58187 0.38091 0.98045 0.0
O32 O 0.60681 0.28326 0.90269 0.0
Co33 Co 0.60465 0.42272 0.86694 0.0
O34 O 0.58173 0.34785 0.83994 0.0
C35 C 0.67732 0.38665 0.86536 0.0
C36 C 0.66821 0.31663 0.03674 0.0
C37 C 0.5874 0.29472 0.85895 0.0
O38 O 0.67164 0.34785 0.90556 0.0
O39 O 0.65504 0.42563 0.84892 0.0
O40 O 0.59103 0.33334 0.00918 0.0
O41 O 0.60535 0.40344 0.94763 0.0
Co42 Co 0.84917 0.20584 0.47747 0.0
O43 O 0.81627 0.19844 0.53891 0.0
O44 O 0.83975 0.2843 0.51002 0.0
C45 C 0.88428 0.1293 0.50367 0.0
O46 O 0.88509 0.23083 0.41854 0.0
Co47 Co 0.85878 0.10129 0.38919 0.0
O48 O 0.90191 0.14632 0.37259 0.0
C49 C 0.80072 0.18578 0.37439 0.0
C50 C 0.81963 0.25631 0.54581 0.0
C51 C 0.90561 0.20194 0.38513 0.0
O52 O 0.81121 0.21672 0.41814 0.0
O53 O 0.81472 0.13613 0.35878 0.0
O54 O 0.88658 0.18132 0.52914 0.0
O55 O 0.85818 0.12328 0.46948 0.0
Co56 Co 0.83937 0.84092 0.96529 0.0
O57 O 0.80575 0.84044 0.02607 0.0
O58 O 0.83069 0.75909 0.98977 0.0
C59 C 0.87299 0.91503 1.00174 0.0
O60 O 0.87632 0.82385 0.9055 0.0
Co61 Co 0.85039 0.95572 0.88988 0.0
O62 O 0.89427 0.91363 0.87141 0.0
C63 C 0.79145 0.87484 0.86573 0.0
C64 C 0.81036 0.78246 0.0282 0.0
C65 C 0.89773 0.85676 0.8774 0.0
O66 O 0.8022 0.83647 0.90357 0.0
O67 O 0.80533 0.92664 0.85798 0.0
O68 O 0.87585 0.86022 0.02083 0.0
O69 O 0.84757 0.92409 0.96682 0.0
Co70 Co 0.64944 0.64373 0.46379 0.0
O71 O 0.68219 0.64636 0.52605 0.0
O72 O 0.65621 0.72631 0.48891 0.0
C73 C 0.61707 0.56753 0.49864 0.0
O74 O 0.61298 0.65744 0.40162 0.0
Co75 Co 0.64426 0.52665 0.38917 0.0
O76 O 0.60416 0.56941 0.35512 0.0
C77 C 0.70099 0.61239 0.3692 0.0
C78 C 0.67672 0.70405 0.52795 0.0
C79 C 0.59706 0.62485 0.36408 0.0
O80 O 0.68741 0.65083 0.40417 0.0
O81 O 0.68977 0.55848 0.36277 0.0
O82 O 0.61265 0.62217 0.51736 0.0
O83 O 0.64328 0.56002 0.46547 0.0
Co84 Co 0.33696 0.68042 0.03958 0.0
O85 O 0.30111 0.68648 0.98261 0.0
O86 O 0.32909 0.76446 0.0194 0.0
C87 C 0.36654 0.60591 0.99536 0.0
O88 O 0.37678 0.69039 0.09673 0.0
Co89 Co 0.34774 0.5595 0.10654 0.0
O90 O 0.39333 0.59675 0.12283 0.0
C91 C 0.2923 0.6437 0.1416 0.0
C92 C 0.30677 0.74412 0.98216 0.0
C93 C 0.39825 0.6536 0.12056 0.0
O94 O 0.30242 0.68381 0.10504 0.0
O95 O 0.30512 0.59052 0.14469 0.0
O96 O 0.3705 0.66159 0.97939 0.0
O97 O 0.34253 0.59693 0.03254 0.0
Co98 Co 0.1476 0.85927 0.54527 0.0
O99 O 0.18127 0.86372 0.48475 0.0
O100 O 0.16509 0.77963 0.52836 0.0
C101 C 0.10603 0.9151 0.50306 0.0
O102 O 0.11239 0.83754 0.6066 0.0
Co103 Co 0.12812 0.97829 0.60904 0.0
O104 O 0.09363 0.92485 0.64565 0.0
C105 C 0.19092 0.91359 0.64389 0.0
C106 C 0.18277 0.8053 0.48767 0.0
C107 C 0.09284 0.86751 0.64091 0.0
O108 O 0.18389 0.87163 0.60722 0.0
O109 O 0.17357 0.96258 0.64762 0.0
O110 O 0.11075 0.85923 0.48869 0.0
O111 O 0.12992 0.93795 0.53551 0.0
H112 H 0.28137 0.24073 0.6792 0.0
H113 H 0.28069 0.43565 0.69596 0.0
H114 H 0.24265 0.42736 0.78041 0.0
H115 H 0.19095 0.21389 0.73113 0.0
H116 H 0.2037 0.14627 0.76865 0.0
H117 H 0.22584 0.16835 0.70402 0.0
H118 H 0.28387 0.16509 0.75945 0.0
H119 H 0.26188 0.14452 0.82451 0.0
H120 H 0.28917 0.21037 0.82326 0.0
H121 H 0.21141 0.39765 0.87022 0.0
H122 H 0.18429 0.3485 0.95409 0.0
H123 H 0.2062 0.17288 0.87996 0.0
C124 C 0.27195 0.2817 0.69911 0.0
C125 C 0.28355 0.33888 0.68057 0.0
C126 C 0.27179 0.39144 0.70916 0.0
C127 C 0.25029 0.38717 0.75729 0.0
C128 C 0.24076 0.33 0.77634 0.0
C129 C 0.25073 0.27818 0.74767 0.0
C130 C 0.23929 0.22217 0.77979 0.0
C131 C 0.21339 0.18552 0.74375 0.0
C132 C 0.27041 0.18329 0.79781 0.0
C133 C 0.22208 0.25064 0.8315 0.0
C134 C 0.22307 0.31286 0.8286 0.0
C135 C 0.21004 0.34893 0.8726 0.0
C136 C 0.19493 0.32064 0.92027 0.0
C137 C 0.1931 0.25692 0.92361 0.0
C138 C 0.20712 0.22171 0.87868 0.0
H139 H 0.20032 0.08395 0.2409 0.0
H140 H 0.23715 0.21446 0.11591 0.0
H141 H 0.27679 0.25623 0.18832 0.0
H142 H 0.19828 0.1795 0.3571 0.0
H143 H 0.21346 0.12665 0.41036 0.0
H144 H 0.19137 0.09969 0.34723 0.0
H145 H 0.24316 0.03093 0.32218 0.0
H146 H 0.26522 0.05669 0.38596 0.0
H147 H 0.28572 0.06321 0.31683 0.0
H148 H 0.30436 0.29508 0.27585 0.0
H149 H 0.32597 0.32062 0.372 0.0
H150 H 0.27513 0.16268 0.44263 0.0
C151 C 0.2176 0.11987 0.22808 0.0
C152 C 0.21552 0.14583 0.17241 0.0
C153 C 0.23815 0.19366 0.158 0.0
C154 C 0.26078 0.21783 0.19895 0.0
C155 C 0.26092 0.19325 0.25401 0.0
C156 C 0.24061 0.14446 0.26852 0.0
C157 C 0.24458 0.12919 0.33199 0.0
C158 C 0.20985 0.13407 0.3635 0.0
C159 C 0.26064 0.06626 0.33968 0.0
C160 C 0.26935 0.17847 0.35111 0.0
C161 C 0.27821 0.2148 0.30513 0.0
C162 C 0.29827 0.26626 0.31195 0.0
C163 C 0.31011 0.28069 0.367 0.0
C164 C 0.30229 0.24358 0.41482 0.0
C165 C 0.28179 0.19143 0.40672 0.0
H166 H 0.77028 0.13299 0.27987 0.0
H167 H 0.77239 0.2993 0.37886 0.0
H168 H 0.73728 0.34901 0.30409 0.0
H169 H 0.78037 0.19777 0.14543 0.0
H170 H 0.75152 0.14772 0.10756 0.0
H171 H 0.77325 0.12221 0.17158 0.0
H172 H 0.71469 0.09526 0.21823 0.0
H173 H 0.69274 0.11956 0.15388 0.0
H174 H 0.68132 0.15174 0.22237 0.0
H175 H 0.70862 0.38402 0.21414 0.0
H176 H 0.68166 0.39978 0.11962 0.0
H177 H 0.69653 0.21033 0.07856 0.0
C178 C 0.76271 0.17947 0.28667 0.0
C179 C 0.77424 0.21217 0.33551 0.0
C180 C 0.76383 0.27305 0.34222 0.0
C181 C 0.74399 0.30182 0.29978 0.0
C182 C 0.73441 0.26895 0.25119 0.0
C183 C 0.7428 0.20881 0.24487 0.0
C184 C 0.73034 0.1845 0.18739 0.0
C185 C 0.76068 0.16173 0.15086 0.0
C186 C 0.70315 0.13483 0.196 0.0
C187 C 0.71443 0.24091 0.16171 0.0
C188 C 0.71714 0.289 0.19936 0.0
C189 C 0.70586 0.34653 0.18466 0.0
C190 C 0.69079 0.35502 0.13055 0.0
C191 C 0.68687 0.30624 0.09156 0.0
C192 C 0.69903 0.24842 0.10743 0.0
H193 H 0.7071 0.28176 0.83047 0.0
H194 H 0.71433 0.47613 0.8136 0.0
H195 H 0.7558 0.46379 0.734 0.0
H196 H 0.798 0.2441 0.78709 0.0
H197 H 0.78377 0.17843 0.74789 0.0
H198 H 0.76053 0.20288 0.81067 0.0
H199 H 0.70432 0.20717 0.75028 0.0
H200 H 0.72743 0.18416 0.68708 0.0
H201 H 0.70291 0.25328 0.68648 0.0
H202 H 0.79042 0.43029 0.64857 0.0
H203 H 0.81723 0.37812 0.56603 0.0
H204 H 0.78463 0.2057 0.63571 0.0
C205 C 0.71871 0.32165 0.81182 0.0
C206 C 0.7082 0.37992 0.82897 0.0
C207 C 0.72259 0.43114 0.80168 0.0
C208 C 0.74605 0.42453 0.75634 0.0
C209 C 0.75463 0.36637 0.73855 0.0
C210 C 0.74164 0.31577 0.76577 0.0
C211 C 0.75173 0.25858 0.7343 0.0
C212 C 0.7749 0.21865 0.77225 0.0
C213 C 0.71969 0.22379 0.7133 0.0
C214 C 0.77169 0.28498 0.68445 0.0
C215 C 0.77346 0.34714 0.68803 0.0
C216 C 0.78955 0.38157 0.6457 0.0
C217 C 0.80453 0.35159 0.59883 0.0
C218 C 0.80294 0.28792 0.59434 0.0
C219 C 0.78623 0.25445 0.63782 0.0
H220 H 0.76697 0.81995 0.11411 0.0
H221 H 0.82416 0.66423 0.05315 0.0
H222 H 0.80736 0.60782 0.14018 0.0
H223 H 0.78713 0.80319 0.26438 0.0
H224 H 0.74491 0.82562 0.28857 0.0
H225 H 0.76158 0.85457 0.22185 0.0
H226 H 0.70783 0.8146 0.16729 0.0
H227 H 0.69068 0.78681 0.23401 0.0
H228 H 0.69603 0.73622 0.17403 0.0
H229 H 0.7845 0.56836 0.23313 0.0
H230 H 0.75093 0.54359 0.31977 0.0
H231 H 0.7085 0.72478 0.32117 0.0
C232 C 0.77577 0.77382 0.11884 0.0
C233 C 0.79689 0.74645 0.07677 0.0
C234 C 0.80783 0.68603 0.08461 0.0
C235 C 0.79869 0.65382 0.13417 0.0
C236 C 0.77857 0.68264 0.17544 0.0
C237 C 0.7668 0.74095 0.16797 0.0
C238 C 0.7443 0.76052 0.21782 0.0
C239 C 0.76046 0.81416 0.25005 0.0
C240 C 0.70753 0.77538 0.19704 0.0
C241 C 0.74497 0.70381 0.25427 0.0
C242 C 0.76528 0.65977 0.22927 0.0
C243 C 0.76869 0.60254 0.25327 0.0
C244 C 0.74965 0.58901 0.30266 0.0
C245 C 0.72738 0.63242 0.32757 0.0
C246 C 0.72596 0.69119 0.30402 0.0
H247 H 0.71831 0.66626 0.61622 0.0
H248 H 0.66542 0.82427 0.54961 0.0
H249 H 0.68437 0.88254 0.63478 0.0
H250 H 0.69889 0.69076 0.7658 0.0
H251 H 0.74038 0.66482 0.79084 0.0
H252 H 0.72241 0.63515 0.72514 0.0
H253 H 0.77723 0.66718 0.66946 0.0
H254 H 0.79561 0.69583 0.73514 0.0
H255 H 0.7917 0.74441 0.67333 0.0
H256 H 0.71013 0.92388 0.72603 0.0
H257 H 0.74491 0.94797 0.81206 0.0
H258 H 0.77998 0.76229 0.8204 0.0
C259 C 0.7108 0.71322 0.61931 0.0
C260 C 0.6904 0.74079 0.57613 0.0
C261 C 0.68115 0.80229 0.58197 0.0
C262 C 0.69157 0.83558 0.63041 0.0
C263 C 0.71111 0.80663 0.67267 0.0
C264 C 0.72089 0.74698 0.66735 0.0
C265 C 0.7429 0.727 0.71788 0.0
C266 C 0.72507 0.67643 0.75192 0.0
C267 C 0.779 0.70748 0.69774 0.0
C268 C 0.74437 0.785 0.75229 0.0
C269 C 0.72561 0.83023 0.72565 0.0
C270 C 0.72464 0.8887 0.74749 0.0
C271 C 0.74437 0.90189 0.79653 0.0
C272 C 0.76478 0.85682 0.82338 0.0
C273 C 0.76391 0.79723 0.80181 0.0
H274 H 0.27187 0.70627 0.88689 0.0
H275 H 0.30852 0.86819 0.97236 0.0
H276 H 0.2867 0.92982 0.89096 0.0
H277 H 0.29464 0.75154 0.74381 0.0
H278 H 0.25735 0.7168 0.71124 0.0
H279 H 0.27528 0.68606 0.77648 0.0
H280 H 0.21601 0.69615 0.82687 0.0
H281 H 0.19779 0.72588 0.76153 0.0
H282 H 0.19448 0.76828 0.82739 0.0
H283 H 0.2587 0.97345 0.8004 0.0
H284 H 0.22585 0.9952 0.71145 0.0
H285 H 0.21119 0.8032 0.68411 0.0
C286 C 0.2751 0.75478 0.88894 0.0
C287 C 0.29164 0.78252 0.93633 0.0
C288 C 0.29572 0.84603 0.93671 0.0
C289 C 0.28357 0.88129 0.89052 0.0
C290 C 0.26785 0.85221 0.84403 0.0
C291 C 0.26364 0.79032 0.84307 0.0
C292 C 0.24595 0.76965 0.78839 0.0
C293 C 0.26974 0.72859 0.75289 0.0
C294 C 0.21152 0.73816 0.80186 0.0
C295 C 0.24029 0.82967 0.75882 0.0
C296 C 0.25311 0.87685 0.79144 0.0
C297 C 0.24896 0.93674 0.7743 0.0
C298 C 0.23037 0.94866 0.72355 0.0
C299 C 0.21637 0.90092 0.69019 0.0
C300 C 0.22229 0.84069 0.70763 0.0
H301 H 0.28062 0.75587 0.18914 0.0
H302 H 0.24992 0.56782 0.20022 0.0
H303 H 0.21931 0.58888 0.29051 0.0
H304 H 0.2979 0.7763 0.33475 0.0
H305 H 0.28099 0.85187 0.34002 0.0
H306 H 0.29742 0.82476 0.27252 0.0
H307 H 0.23924 0.84901 0.22248 0.0
H308 H 0.22295 0.87773 0.28955 0.0
H309 H 0.19979 0.81921 0.25189 0.0
H310 H 0.19775 0.62685 0.38463 0.0
H311 H 0.17872 0.68349 0.47019 0.0
H312 H 0.22228 0.84747 0.39849 0.0
C313 C 0.26644 0.71966 0.20953 0.0
C314 C 0.26762 0.66021 0.18747 0.0
C315 C 0.24941 0.61371 0.21626 0.0
C316 C 0.23203 0.62513 0.26775 0.0
C317 C 0.23285 0.68341 0.28991 0.0
C318 C 0.24889 0.73028 0.26125 0.0
C319 C 0.24676 0.78829 0.29572 0.0
C320 C 0.28292 0.81165 0.31169 0.0
C321 C 0.22594 0.8364 0.26296 0.0
C322 C 0.22755 0.76629 0.34842 0.0
C323 C 0.21996 0.70557 0.34425 0.0
C324 C 0.20317 0.67462 0.38816 0.0
C325 C 0.19276 0.70705 0.43687 0.0
C326 C 0.19901 0.76985 0.44113 0.0
C327 C 0.21716 0.79946 0.3966 0.0
H328 H 0.08593 0.17212 0.25569 0.0
H329 H 0.0485 0.28039 0.11399 0.0
H330 H 0.00127 0.31898 0.17541 0.0
H331 H 0.01338 0.11677 0.29548 0.0
H332 H 0.01951 0.11721 0.37228 0.0
H333 H 0.05622 0.1154 0.32598 0.0
H334 H 0.08051 0.211 0.37424 0.0
H335 H 0.04366 0.21592 0.42112 0.0
H336 H 0.05507 0.27905 0.37658 0.0
H337 H 0.95074 0.32303 0.242 0.0
H338 H 0.90273 0.29161 0.30536 0.0
H339 H 0.97273 0.1785 0.40221 0.0
C340 C 0.06869 0.20627 0.23869 0.0
C341 C 0.07072 0.22387 0.18069 0.0
C342 C 0.04759 0.2675 0.15886 0.0
C343 C 0.02072 0.28949 0.19349 0.0
C344 C 0.01803 0.26815 0.24987 0.0
C345 C 0.04195 0.22827 0.27261 0.0
C346 C 0.03066 0.20398 0.33025 0.0
C347 C 0.02987 0.1343 0.33094 0.0
C348 C 0.05385 0.22893 0.37839 0.0
C349 C 0.99491 0.23077 0.3335 0.0
C350 C 0.98857 0.26994 0.28825 0.0
C351 C 0.95578 0.29414 0.27857 0.0
C352 C 0.92867 0.27617 0.31462 0.0
C353 C 0.9346 0.23359 0.35868 0.0
C354 C 0.96815 0.21233 0.36942 0.0
H355 H 0.47446 0.24656 0.60246 0.0
H356 H 0.39836 0.18773 0.72507 0.0
H357 H 0.44473 0.15483 0.79099 0.0
H358 H 0.55019 0.13654 0.65229 0.0
H359 H 0.58025 0.19735 0.6406 0.0
H360 H 0.54349 0.18838 0.59361 0.0
H361 H 0.52569 0.29871 0.61419 0.0
H362 H 0.56162 0.30792 0.66145 0.0
H363 H 0.51861 0.32216 0.68747 0.0
H364 H 0.49542 0.16363 0.8545 0.0
H365 H 0.54275 0.21443 0.90696 0.0
H366 H 0.5869 0.27176 0.74581 0.0
C367 C 0.46792 0.2224 0.64141 0.0
C368 C 0.43324 0.2179 0.65839 0.0
C369 C 0.4249 0.18942 0.71071 0.0
C370 C 0.45121 0.17095 0.74849 0.0
C371 C 0.48556 0.18124 0.73298 0.0
C372 C 0.49396 0.20525 0.67976 0.0
C373 C 0.53121 0.2258 0.67809 0.0
C374 C 0.55255 0.18453 0.63883 0.0
C375 C 0.53439 0.29253 0.65933 0.0
C376 C 0.54119 0.21679 0.74042 0.0
C377 C 0.51527 0.18807 0.77085 0.0
C378 C 0.51641 0.18394 0.83082 0.0
C379 C 0.54346 0.21267 0.86045 0.0
C380 C 0.5685 0.24588 0.82996 0.0
C381 C 0.56837 0.245 0.76947 0.0
H382 H 0.08118 0.88938 0.75252 0.0
H383 H 0.0478 0.77724 0.61062 0.0
H384 H -0.00238 0.74292 0.66801 0.0
H385 H 0.04733 0.78472 0.86996 0.0
H386 H 0.03497 0.84711 0.91453 0.0
H387 H 0.07261 0.853 0.86963 0.0
H388 H 0.04942 0.94837 0.81991 0.0
H389 H 0.01194 0.9469 0.86461 0.0
H390 H 0.00707 0.94733 0.78757 0.0
H391 H 0.94523 0.73979 0.73234 0.0
H392 H 0.89649 0.76882 0.79539 0.0
H393 H 0.9646 0.88451 0.89346 0.0
C394 C 0.06395 0.85577 0.73452 0.0
C395 C 0.06812 0.83558 0.67765 0.0
C396 C 0.04513 0.79229 0.65467 0.0
C397 C 0.01664 0.77269 0.68698 0.0
C398 C 0.01224 0.79589 0.74235 0.0
C399 C 0.03578 0.83572 0.7662 0.0
C400 C 0.02354 0.8601 0.82318 0.0
C401 C 0.04594 0.83481 0.87222 0.0
C402 C 0.02293 0.92972 0.82377 0.0
C403 C 0.98769 0.83355 0.82469 0.0
C404 C 0.98208 0.79437 0.77921 0.0
C405 C 0.94964 0.76904 0.76887 0.0
C406 C 0.92214 0.7857 0.80473 0.0
C407 C 0.92727 0.82836 0.84907 0.0
C408 C 0.9605 0.85107 0.86015 0.0
H409 H 0.46314 0.61136 0.11053 0.0
H410 H 0.40182 0.74432 0.2002 0.0
H411 H 0.4507 0.76367 0.26686 0.0
H412 H 0.49782 0.54346 0.22146 0.0
H413 H 0.54073 0.53171 0.19398 0.0
H414 H 0.50517 0.53952 0.14502 0.0
H415 H 0.53568 0.62928 0.09397 0.0
H416 H 0.57183 0.62 0.14188 0.0
H417 H 0.55073 0.69222 0.13586 0.0
H418 H 0.5028 0.75377 0.33393 0.0
H419 H 0.55288 0.71813 0.39151 0.0
H420 H 0.57872 0.59165 0.25623 0.0
C421 C 0.46068 0.64641 0.14271 0.0
C422 C 0.42911 0.67682 0.15023 0.0
C423 C 0.42618 0.7215 0.19332 0.0
C424 C 0.45376 0.73257 0.23137 0.0
C425 C 0.48422 0.69964 0.22453 0.0
C426 C 0.48807 0.65861 0.1801 0.0
C427 C 0.52177 0.6246 0.18496 0.0
C428 C 0.51598 0.5558 0.1865 0.0
C429 C 0.54644 0.64259 0.13629 0.0
C430 C 0.53472 0.64846 0.2418 0.0
C431 C 0.51356 0.69325 0.26325 0.0
C432 C 0.51987 0.71958 0.31686 0.0
C433 C 0.5483 0.69909 0.3493 0.0
C434 C 0.56948 0.65194 0.32839 0.0
C435 C 0.56283 0.6275 0.2735 0.0
H436 H 0.06813 0.02287 0.04832 0.0
H437 H 0.03878 0.18497 0.95515 0.0
H438 H 0.97866 0.15069 0.95245 0.0
H439 H 0.01183 0.92413 0.96968 0.0
H440 H 0.00134 0.87729 0.03044 0.0
H441 H 0.04227 0.91579 0.02789 0.0
H442 H 0.02881 0.96667 0.12582 0.0
H443 H 0.98766 0.92885 0.12827 0.0
H444 H 0.98971 0.00994 0.13362 0.0
H445 H 0.92227 0.10037 0.95798 0.0
H446 H 0.87292 0.03076 0.96324 0.0
H447 H 0.93732 0.89868 0.05026 0.0
C448 C 0.049 0.05098 0.02741 0.0
C449 C 0.0582 0.10671 1.00217 0.0
C450 C 0.03245 0.14215 0.97493 0.0
C451 C -0.0019 0.12331 0.97341 0.0
C452 C 0.98973 0.06877 0.9992 0.0
C453 C 0.01432 0.03265 0.0252 0.0
C454 C -0.00175 0.97452 0.04684 0.0
C455 C 0.01442 0.9196 0.01699 0.0
C456 C 0.00129 0.96974 0.11255 0.0
C457 C 0.96104 0.98354 0.02811 0.0
C458 C 0.95677 0.03871 1.00146 0.0
C459 C 0.92518 0.05703 0.97886 0.0
C460 C 0.8973 0.01716 0.98209 0.0
C461 C 0.90126 0.95936 0.00712 0.0
C462 C 0.93342 0.94286 0.03144 0.0
H463 H 0.55295 0.5795 0.5465 0.0
H464 H 0.62052 0.45043 0.46308 0.0
H465 H 0.57352 0.37532 0.46263 0.0
H466 H 0.50532 0.46847 0.6355 0.0
H467 H 0.46506 0.50818 0.62674 0.0
H468 H 0.50519 0.54927 0.62631 0.0
H469 H 0.48911 0.59471 0.52709 0.0
H470 H 0.44921 0.55321 0.52682 0.0
H471 H 0.47906 0.54486 0.46812 0.0
H472 H 0.51809 0.31814 0.46257 0.0
H473 H 0.45825 0.28051 0.46703 0.0
H474 H 0.42658 0.44627 0.55113 0.0
C475 C 0.55808 0.53498 0.52933 0.0
C476 C 0.59037 0.52064 0.50495 0.0
C477 C 0.59596 0.46226 0.48207 0.0
C478 C 0.56946 0.4193 0.48167 0.0
C479 C 0.53762 0.43539 0.50461 0.0
C480 C 0.53189 0.49157 0.52856 0.0
C481 C 0.49473 0.49853 0.54737 0.0
C482 C 0.49245 0.50657 0.61288 0.0
C483 C 0.477 0.55092 0.51543 0.0
C484 C 0.48028 0.43811 0.52881 0.0
C485 C 0.50552 0.40225 0.5046 0.0
C486 C 0.49815 0.34552 0.48197 0.0
C487 C 0.46407 0.32475 0.48434 0.0
C488 C 0.43784 0.3606 0.50927 0.0
C489 C 0.44616 0.41786 0.53199 0.0
H490 H 0.43039 0.62085 0.94694 0.0
H491 H 0.36235 0.48634 0.02088 0.0
H492 H 0.40929 0.4114 0.01751 0.0
H493 H 0.48054 0.51575 0.85265 0.0
H494 H 0.52028 0.55553 0.86649 0.0
H495 H 0.47987 0.59579 0.86654 0.0
H496 H 0.49344 0.63512 0.96893 0.0
H497 H 0.53342 0.59381 0.97057 0.0
H498 H 0.50153 0.58148 0.02558 0.0
H499 H 0.46494 0.35583 0.01885 0.0
H500 H 0.52527 0.32045 0.01844 0.0
H501 H 0.55751 0.48988 0.94206 0.0
C502 C 0.42506 0.57508 0.96058 0.0
C503 C 0.39272 0.55922 0.98388 0.0
C504 C 0.38694 0.49932 1.00268 0.0
C505 C 0.41341 0.45642 1.00088 0.0
C506 C 0.44539 0.47402 0.97961 0.0
C507 C 0.45123 0.5316 0.95896 0.0
C508 C 0.48877 0.54026 0.94296 0.0
C509 C 0.49258 0.55254 0.8783 0.0
C510 C 0.50529 0.59073 0.97912 0.0
C511 C 0.50322 0.47907 0.95911 0.0
C512 C 0.4777 0.44153 0.98 0.0
C513 C 0.48506 0.38436 1.00162 0.0
C514 C 0.51942 0.36487 1.00162 0.0
C515 C 0.54592 0.40242 0.98003 0.0
C516 C 0.53764 0.46003 0.95814 0.0
H517 H 0.07927 0.01933 0.55137 0.0
H518 H 0.05587 0.87441 0.43173 0.0
H519 H 0.99645 0.91182 0.42208 0.0
H520 H -0.00152 0.01854 0.62357 0.0
H521 H 0.99557 0.09932 0.63141 0.0
H522 H 0.0372 0.06339 0.62769 0.0
H523 H 0.05403 0.13139 0.54156 0.0
H524 H 0.01261 0.16816 0.54531 0.0
H525 H 0.02636 0.13349 0.4792 0.0
H526 H 0.93902 0.9596 0.42948 0.0
H527 H 0.88786 0.02342 0.44451 0.0
H528 H 0.9476 0.14019 0.55702 0.0
C529 C 0.06178 0.99615 0.5225 0.0
C530 C 0.0722 0.94384 0.49244 0.0
C531 C 0.04847 0.91448 0.45534 0.0
C532 C 0.01458 0.93521 0.44966 0.0
C533 C 0.00476 0.9856 0.48116 0.0
C534 C 0.02764 0.01636 0.5162 0.0
C535 C 0.01005 0.06941 0.54512 0.0
C536 C 0.01035 0.06221 0.61085 0.0
C537 C 0.02677 0.12921 0.52673 0.0
C538 C 0.97381 0.06331 0.52089 0.0
C539 C 0.97139 0.01426 0.48451 0.0
C540 C 0.9406 0.99854 0.45743 0.0
C541 C 0.91164 0.03499 0.46642 0.0
C542 C 0.91375 0.08699 0.50162 0.0
C543 C 0.94516 0.10067 0.52994 0.0
loop_
_geom_bond_atom_site_label_1
_geom_bond_atom_site_label_2
_geom_bond_distance
_geom_bond_site_symmetry_2
_ccdc_geom_bond_type
Co0 O1 2.216 . S
Co0 O2 2.091 1_554 S
Co0 O4 2.004 . S
Co0 O10 2.021 . S
Co0 O12 2.137 . S
Co0 O13 2.244 . S
O1 Co0 2.216 . S
O1 C8 1.247 1_554 S
O2 Co0 2.091 1_556 S
O2 C8 1.261 . S
C3 O12 1.247 . S
C3 O13 1.272 . S
O4 Co0 2.004 . S
O4 C9 1.259 . S
Co5 O6 2.061 . S
Co5 O11 2.052 . S
Co5 O13 2.135 . S
O6 Co5 2.061 . S
O6 C9 1.235 . S
C7 O10 1.238 . S
C7 O11 1.241 . S
C8 O1 1.247 1_556 S
C8 O2 1.261 . S
C9 O4 1.259 . S
C9 O6 1.235 . S
O10 Co0 2.021 . S
O10 C7 1.238 . S
O11 Co5 2.052 . S
O11 C7 1.241 . S
O12 Co0 2.137 . S
O12 C3 1.247 . S
O13 Co0 2.244 . S
O13 C3 1.272 . S
O13 Co5 2.135 . S
Co14 O15 2.216 . S
Co14 O16 2.091 . S
Co14 O18 2.004 . S
Co14 O24 2.021 . S
Co14 O26 2.137 . S
Co14 O27 2.244 . S
O15 Co14 2.216 . S
O15 C22 1.247 . S
O16 Co14 2.091 . S
O16 C22 1.261 . S
C17 O26 1.247 . S
C17 O27 1.272 . S
O18 Co14 2.004 . S
O18 C23 1.259 . S
Co19 O20 2.061 . S
Co19 O25 2.052 . S
Co19 O27 2.135 . S
O20 Co19 2.061 . S
O20 C23 1.235 . S
C21 O24 1.238 . S
C21 O25 1.241 . S
C22 O15 1.247 . S
C22 O16 1.261 . S
C23 O18 1.259 . S
C23 O20 1.235 . S
O24 Co14 2.021 . S
O24 C21 1.238 . S
O25 Co19 2.052 . S
O25 C21 1.241 . S
O26 Co14 2.137 . S
O26 C17 1.247 . S
O27 Co14 2.244 . S
O27 C17 1.272 . S
O27 Co19 2.135 . S
Co28 O29 2.216 . S
Co28 O30 2.091 1_556 S
Co28 O32 2.004 . S
Co28 O38 2.021 . S
Co28 O40 2.137 . S
Co28 O41 2.244 . S
O29 Co28 2.216 . S
O29 C36 1.247 1_556 S
O30 Co28 2.091 1_554 S
O30 C36 1.261 . S
C31 O40 1.247 . S
C31 O41 1.272 . S
O32 Co28 2.004 . S
O32 C37 1.259 . S
Co33 O34 2.061 . S
Co33 O39 2.052 . S
Co33 O41 2.135 . S
O34 Co33 2.061 . S
O34 C37 1.235 . S
C35 O38 1.238 . S
C35 O39 1.241 . S
C36 O29 1.247 1_554 S
C36 O30 1.261 . S
C37 O32 1.259 . S
C37 O34 1.235 . S
O38 Co28 2.021 . S
O38 C35 1.238 . S
O39 Co33 2.052 . S
O39 C35 1.241 . S
O40 Co28 2.137 . S
O40 C31 1.247 . S
O41 Co28 2.244 . S
O41 C31 1.272 . S
O41 Co33 2.135 . S
Co42 O43 2.216 . S
Co42 O44 2.091 . S
Co42 O46 2.004 . S
Co42 O52 2.021 . S
Co42 O54 2.137 . S
Co42 O55 2.244 . S
O43 Co42 2.216 . S
O43 C50 1.247 . S
O44 Co42 2.091 . S
O44 C50 1.261 . S
C45 O54 1.247 . S
C45 O55 1.272 . S
O46 Co42 2.004 . S
O46 C51 1.259 . S
Co47 O48 2.061 . S
Co47 O53 2.052 . S
Co47 O55 2.135 . S
O48 Co47 2.061 . S
O48 C51 1.235 . S
C49 O52 1.238 . S
C49 O53 1.241 . S
C50 O43 1.247 . S
C50 O44 1.261 . S
C51 O46 1.259 . S
C51 O48 1.235 . S
O52 Co42 2.021 . S
O52 C49 1.238 . S
O53 Co47 2.052 . S
O53 C49 1.241 . S
O54 Co42 2.137 . S
O54 C45 1.247 . S
O55 Co42 2.244 . S
O55 C45 1.272 . S
O55 Co47 2.135 . S
Co56 O57 2.216 . S
Co56 O58 2.091 1_556 S
Co56 O60 2.004 . S
Co56 O66 2.021 . S
Co56 O68 2.137 . S
Co56 O69 2.244 . S
O57 Co56 2.216 . S
O57 C64 1.247 1_556 S
O58 Co56 2.091 1_554 S
O58 C64 1.261 . S
C59 O68 1.247 . S
C59 O69 1.272 . S
O60 Co56 2.004 . S
O60 C65 1.259 . S
Co61 O62 2.061 . S
Co61 O67 2.052 . S
Co61 O69 2.135 . S
O62 Co61 2.061 . S
O62 C65 1.235 . S
C63 O66 1.238 . S
C63 O67 1.241 . S
C64 O57 1.247 1_554 S
C64 O58 1.261 . S
C65 O60 1.259 . S
C65 O62 1.235 . S
O66 Co56 2.021 . S
O66 C63 1.238 . S
O67 Co61 2.052 . S
O67 C63 1.241 . S
O68 Co56 2.137 . S
O68 C59 1.247 . S
O69 Co56 2.244 . S
O69 C59 1.272 . S
O69 Co61 2.135 . S
Co70 O71 2.216 . S
Co70 O72 2.091 . S
Co70 O74 2.004 . S
Co70 O80 2.021 . S
Co70 O82 2.137 . S
Co70 O83 2.244 . S
O71 Co70 2.216 . S
O71 C78 1.247 . S
O72 Co70 2.091 . S
O72 C78 1.261 . S
C73 O82 1.247 . S
C73 O83 1.272 . S
O74 Co70 2.004 . S
O74 C79 1.259 . S
Co75 O76 2.061 . S
Co75 O81 2.052 . S
Co75 O83 2.135 . S
O76 Co75 2.061 . S
O76 C79 1.235 . S
C77 O80 1.238 . S
C77 O81 1.241 . S
C78 O71 1.247 . S
C78 O72 1.261 . S
C79 O74 1.259 . S
C79 O76 1.235 . S
O80 Co70 2.021 . S
O80 C77 1.238 . S
O81 Co75 2.052 . S
O81 C77 1.241 . S
O82 Co70 2.137 . S
O82 C73 1.247 . S
O83 Co70 2.244 . S
O83 C73 1.272 . S
O83 Co75 2.135 . S
Co84 O85 2.216 . S
Co84 O86 2.091 1_554 S
Co84 O88 2.004 . S
Co84 O94 2.021 . S
Co84 O96 2.137 . S
Co84 O97 2.244 . S
O85 Co84 2.216 . S
O85 C92 1.247 1_554 S
O86 Co84 2.091 1_556 S
O86 C92 1.261 . S
C87 O96 1.247 . S
C87 O97 1.272 . S
O88 Co84 2.004 . S
O88 C93 1.259 . S
Co89 O90 2.061 . S
Co89 O95 2.052 . S
Co89 O97 2.135 . S
O90 Co89 2.061 . S
O90 C93 1.235 . S
C91 O94 1.238 . S
C91 O95 1.241 . S
C92 O85 1.247 1_556 S
C92 O86 1.261 . S
C93 O88 1.259 . S
C93 O90 1.235 . S
O94 Co84 2.021 . S
O94 C91 1.238 . S
O95 Co89 2.052 . S
O95 C91 1.241 . S
O96 Co84 2.137 . S
O96 C87 1.247 . S
O97 Co84 2.244 . S
O97 C87 1.272 . S
O97 Co89 2.135 . S
Co98 O99 2.216 . S
Co98 O100 2.091 . S
Co98 O102 2.004 . S
Co98 O108 2.021 . S
Co98 O110 2.137 . S
Co98 O111 2.244 . S
O99 Co98 2.216 . S
O99 C106 1.247 . S
O100 Co98 2.091 . S
O100 C106 1.261 . S
C101 O110 1.247 . S
C101 O111 1.272 . S
O102 Co98 2.004 . S
O102 C107 1.259 . S
Co103 O104 2.061 . S
Co103 O109 2.052 . S
Co103 O111 2.135 . S
O104 Co103 2.061 . S
O104 C107 1.235 . S
C105 O108 1.238 . S
C105 O109 1.241 . S
C106 O99 1.247 . S
C106 O100 1.261 . S
C107 O102 1.259 . S
C107 O104 1.235 . S
O108 Co98 2.021 . S
O108 C105 1.238 . S
O109 Co103 2.052 . S
O109 C105 1.241 . S
O110 Co98 2.137 . S
O110 C101 1.247 . S
O111 Co98 2.244 . S
O111 C101 1.272 . S
O111 Co103 2.135 . S
H112 C124 0.930 . S
H113 C126 0.930 . S
H114 C127 0.930 . S
H115 C131 0.959 . S
H116 C131 0.959 . S
H117 C131 0.961 . S
H118 C132 0.960 . S
H119 C132 0.961 . S
H120 C132 0.959 . S
H121 C135 0.929 . S
H122 C136 0.931 . S
H123 C138 0.930 . S
C124 H112 0.930 . S
C124 C125 1.399 . S
C124 C129 1.399 . S
C125 C124 1.399 . S
C125 C126 1.376 . S
C126 H113 0.930 . S
C126 C125 1.376 . S
C126 C127 1.388 . S
C127 H114 0.930 . S
C127 C126 1.388 . S
C127 C128 1.390 . S
C128 C127 1.390 . S
C128 C129 1.394 . S
C128 C134 1.465 . S
C129 C124 1.399 . S
C129 C128 1.394 . S
C129 C130 1.516 . S
C130 C129 1.516 . S
C130 C131 1.502 . S
C130 C132 1.561 . S
C130 C133 1.526 . S
C131 H115 0.959 . S
C131 H116 0.959 . S
C131 H117 0.961 . S
C131 C130 1.502 . S
C132 H118 0.960 . S
C132 H119 0.961 . S
C132 H120 0.959 . S
C132 C130 1.561 . S
C133 C130 1.526 . S
C133 C134 1.396 . S
C133 C138 1.390 . S
C134 C128 1.465 . S
C134 C133 1.396 . S
C134 C135 1.399 . S
C135 H121 0.929 . S
C135 C134 1.399 . S
C135 C136 1.385 . S
C136 H122 0.931 . S
C136 C135 1.385 . S
C136 C137 1.389 . S
C137 C136 1.389 . S
C137 C138 1.387 . S
C138 H123 0.930 . S
C138 C133 1.390 . S
C138 C137 1.387 . S
H139 C151 0.930 . S
H140 C153 0.930 . S
H141 C154 0.930 . S
H142 C158 0.959 . S
H143 C158 0.959 . S
H144 C158 0.961 . S
H145 C159 0.960 . S
H146 C159 0.961 . S
H147 C159 0.959 . S
H148 C162 0.929 . S
H149 C163 0.931 . S
H150 C165 0.930 . S
C151 H139 0.930 . S
C151 C152 1.399 . S
C151 C156 1.399 . S
C152 C151 1.399 . S
C152 C153 1.376 . S
C153 H140 0.930 . S
C153 C152 1.376 . S
C153 C154 1.388 . S
C154 H141 0.930 . S
C154 C153 1.388 . S
C154 C155 1.390 . S
C155 C154 1.390 . S
C155 C156 1.394 . S
C155 C161 1.465 . S
C156 C151 1.399 . S
C156 C155 1.394 . S
C156 C157 1.516 . S
C157 C156 1.516 . S
C157 C158 1.502 . S
C157 C159 1.561 . S
C157 C160 1.526 . S
C158 H142 0.959 . S
C158 H143 0.959 . S
C158 H144 0.961 . S
C158 C157 1.502 . S
C159 H145 0.960 . S
C159 H146 0.961 . S
C159 H147 0.959 . S
C159 C157 1.561 . S
C160 C157 1.526 . S
C160 C161 1.396 . S
C160 C165 1.390 . S
C161 C155 1.465 . S
C161 C160 1.396 . S
C161 C162 1.399 . S
C162 H148 0.929 . S
C162 C161 1.399 . S
C162 C163 1.385 . S
C163 H149 0.931 . S
C163 C162 1.385 . S
C163 C164 1.389 . S
C164 C163 1.389 . S
C164 C165 1.387 . S
C165 H150 0.930 . S
C165 C160 1.390 . S
C165 C164 1.387 . S
H166 C178 0.930 . S
H167 C180 0.930 . S
H168 C181 0.930 . S
H169 C185 0.959 . S
H170 C185 0.959 . S
H171 C185 0.961 . S
H172 C186 0.960 . S
H173 C186 0.961 . S
H174 C186 0.959 . S
H175 C189 0.929 . S
H176 C190 0.931 . S
H177 C192 0.930 . S
C178 H166 0.930 . S
C178 C179 1.399 . S
C178 C183 1.399 . S
C179 C178 1.399 . S
C179 C180 1.376 . S
C180 H167 0.930 . S
C180 C179 1.376 . S
C180 C181 1.388 . S
C181 H168 0.930 . S
C181 C180 1.388 . S
C181 C182 1.390 . S
C182 C181 1.390 . S
C182 C183 1.394 . S
C182 C188 1.465 . S
C183 C178 1.399 . S
C183 C182 1.394 . S
C183 C184 1.516 . S
C184 C183 1.516 . S
C184 C185 1.502 . S
C184 C186 1.561 . S
C184 C187 1.526 . S
C185 H169 0.959 . S
C185 H170 0.959 . S
C185 H171 0.961 . S
C185 C184 1.502 . S
C186 H172 0.960 . S
C186 H173 0.961 . S
C186 H174 0.959 . S
C186 C184 1.561 . S
C187 C184 1.526 . S
C187 C188 1.396 . S
C187 C192 1.390 . S
C188 C182 1.465 . S
C188 C187 1.396 . S
C188 C189 1.399 . S
C189 H175 0.929 . S
C189 C188 1.399 . S
C189 C190 1.385 . S
C190 H176 0.931 . S
C190 C189 1.385 . S
C190 C191 1.389 . S
C191 C190 1.389 . S
C191 C192 1.387 . S
C192 H177 0.930 . S
C192 C187 1.390 . S
C192 C191 1.387 . S
H193 C205 0.930 . S
H194 C207 0.930 . S
H195 C208 0.930 . S
H196 C212 0.959 . S
H197 C212 0.959 . S
H198 C212 0.961 . S
H199 C213 0.960 . S
H200 C213 0.961 . S
H201 C213 0.959 . S
H202 C216 0.929 . S
H203 C217 0.931 . S
H204 C219 0.930 . S
C205 H193 0.930 . S
C205 C206 1.399 . S
C205 C210 1.399 . S
C206 C205 1.399 . S
C206 C207 1.376 . S
C207 H194 0.930 . S
C207 C206 1.376 . S
C207 C208 1.388 . S
C208 H195 0.930 . S
C208 C207 1.388 . S
C208 C209 1.390 . S
C209 C208 1.390 . S
C209 C210 1.394 . S
C209 C215 1.465 . S
C210 C205 1.399 . S
C210 C209 1.394 . S
C210 C211 1.516 . S
C211 C210 1.516 . S
C211 C212 1.502 . S
C211 C213 1.561 . S
C211 C214 1.526 . S
C212 H196 0.959 . S
C212 H197 0.959 . S
C212 H198 0.961 . S
C212 C211 1.502 . S
C213 H199 0.960 . S
C213 H200 0.961 . S
C213 H201 0.959 . S
C213 C211 1.561 . S
C214 C211 1.526 . S
C214 C215 1.396 . S
C214 C219 1.390 . S
C215 C209 1.465 . S
C215 C214 1.396 . S
C215 C216 1.399 . S
C216 H202 0.929 . S
C216 C215 1.399 . S
C216 C217 1.385 . S
C217 H203 0.931 . S
C217 C216 1.385 . S
C217 C218 1.389 . S
C218 C217 1.389 . S
C218 C219 1.387 . S
C219 H204 0.930 . S
C219 C214 1.390 . S
C219 C218 1.387 . S
H220 C232 0.930 . S
H221 C234 0.930 . S
H222 C235 0.930 . S
H223 C239 0.959 . S
H224 C239 0.959 . S
H225 C239 0.961 . S
H226 C240 0.960 . S
H227 C240 0.961 . S
H228 C240 0.959 . S
H229 C243 0.929 . S
H230 C244 0.931 . S
H231 C246 0.930 . S
C232 H220 0.930 . S
C232 C233 1.399 . S
C232 C237 1.399 . S
C233 C232 1.399 . S
C233 C234 1.376 . S
C234 H221 0.930 . S
C234 C233 1.376 . S
C234 C235 1.388 . S
C235 H222 0.930 . S
C235 C234 1.388 . S
C235 C236 1.390 . S
C236 C235 1.390 . S
C236 C237 1.394 . S
C236 C242 1.465 . S
C237 C232 1.399 . S
C237 C236 1.394 . S
C237 C238 1.516 . S
C238 C237 1.516 . S
C238 C239 1.502 . S
C238 C240 1.561 . S
C238 C241 1.526 . S
C239 H223 0.959 . S
C239 H224 0.959 . S
C239 H225 0.961 . S
C239 C238 1.502 . S
C240 H226 0.960 . S
C240 H227 0.961 . S
C240 H228 0.959 . S
C240 C238 1.561 . S
C241 C238 1.526 . S
C241 C242 1.396 . S
C241 C246 1.390 . S
C242 C236 1.465 . S
C242 C241 1.396 . S
C242 C243 1.399 . S
C243 H229 0.929 . S
C243 C242 1.399 . S
C243 C244 1.385 . S
C244 H230 0.931 . S
C244 C243 1.385 . S
C244 C245 1.389 . S
C245 C244 1.389 . S
C245 C246 1.387 . S
C246 H231 0.930 . S
C246 C241 1.390 . S
C246 C245 1.387 . S
H247 C259 0.930 . S
H248 C261 0.930 . S
H249 C262 0.930 . S
H250 C266 0.959 . S
H251 C266 0.959 . S
H252 C266 0.961 . S
H253 C267 0.960 . S
H254 C267 0.961 . S
H255 C267 0.959 . S
H256 C270 0.929 . S
H257 C271 0.931 . S
H258 C273 0.930 . S
C259 H247 0.930 . S
C259 C260 1.399 . S
C259 C264 1.399 . S
C260 C259 1.399 . S
C260 C261 1.376 . S
C261 H248 0.930 . S
C261 C260 1.376 . S
C261 C262 1.388 . S
C262 H249 0.930 . S
C262 C261 1.388 . S
C262 C263 1.390 . S
C263 C262 1.390 . S
C263 C264 1.394 . S
C263 C269 1.465 . S
C264 C259 1.399 . S
C264 C263 1.394 . S
C264 C265 1.516 . S
C265 C264 1.516 . S
C265 C266 1.502 . S
C265 C267 1.561 . S
C265 C268 1.526 . S
C266 H250 0.959 . S
C266 H251 0.959 . S
C266 H252 0.961 . S
C266 C265 1.502 . S
C267 H253 0.960 . S
C267 H254 0.961 . S
C267 H255 0.959 . S
C267 C265 1.561 . S
C268 C265 1.526 . S
C268 C269 1.396 . S
C268 C273 1.390 . S
C269 C263 1.465 . S
C269 C268 1.396 . S
C269 C270 1.399 . S
C270 H256 0.929 . S
C270 C269 1.399 . S
C270 C271 1.385 . S
C271 H257 0.931 . S
C271 C270 1.385 . S
C271 C272 1.389 . S
C272 C271 1.389 . S
C272 C273 1.387 . S
C273 H258 0.930 . S
C273 C268 1.390 . S
C273 C272 1.387 . S
H274 C286 0.930 . S
H275 C288 0.930 . S
H276 C289 0.930 . S
H277 C293 0.959 . S
H278 C293 0.959 . S
H279 C293 0.961 . S
H280 C294 0.960 . S
H281 C294 0.961 . S
H282 C294 0.959 . S
H283 C297 0.929 . S
H284 C298 0.931 . S
H285 C300 0.930 . S
C286 H274 0.930 . S
C286 C287 1.399 . S
C286 C291 1.399 . S
C287 C286 1.399 . S
C287 C288 1.376 . S
C288 H275 0.930 . S
C288 C287 1.376 . S
C288 C289 1.388 . S
C289 H276 0.930 . S
C289 C288 1.388 . S
C289 C290 1.390 . S
C290 C289 1.390 . S
C290 C291 1.394 . S
C290 C296 1.465 . S
C291 C286 1.399 . S
C291 C290 1.394 . S
C291 C292 1.516 . S
C292 C291 1.516 . S
C292 C293 1.502 . S
C292 C294 1.561 . S
C292 C295 1.526 . S
C293 H277 0.959 . S
C293 H278 0.959 . S
C293 H279 0.961 . S
C293 C292 1.502 . S
C294 H280 0.960 . S
C294 H281 0.961 . S
C294 H282 0.959 . S
C294 C292 1.561 . S
C295 C292 1.526 . S
C295 C296 1.396 . S
C295 C300 1.390 . S
C296 C290 1.465 . S
C296 C295 1.396 . S
C296 C297 1.399 . S
C297 H283 0.929 . S
C297 C296 1.399 . S
C297 C298 1.385 . S
C298 H284 0.931 . S
C298 C297 1.385 . S
C298 C299 1.389 . S
C299 C298 1.389 . S
C299 C300 1.387 . S
C300 H285 0.930 . S
C300 C295 1.390 . S
C300 C299 1.387 . S
H301 C313 0.930 . S
H302 C315 0.930 . S
H303 C316 0.930 . S
H304 C320 0.959 . S
H305 C320 0.959 . S
H306 C320 0.961 . S
H307 C321 0.960 . S
H308 C321 0.961 . S
H309 C321 0.959 . S
H310 C324 0.929 . S
H311 C325 0.931 . S
H312 C327 0.930 . S
C313 H301 0.930 . S
C313 C314 1.399 . S
C313 C318 1.399 . S
C314 C313 1.399 . S
C314 C315 1.376 . S
C315 H302 0.930 . S
C315 C314 1.376 . S
C315 C316 1.388 . S
C316 H303 0.930 . S
C316 C315 1.388 . S
C316 C317 1.390 . S
C317 C316 1.390 . S
C317 C318 1.394 . S
C317 C323 1.465 . S
C318 C313 1.399 . S
C318 C317 1.394 . S
C318 C319 1.516 . S
C319 C318 1.516 . S
C319 C320 1.502 . S
C319 C321 1.561 . S
C319 C322 1.526 . S
C320 H304 0.959 . S
C320 H305 0.959 . S
C320 H306 0.961 . S
C320 C319 1.502 . S
C321 H307 0.960 . S
C321 H308 0.961 . S
C321 H309 0.959 . S
C321 C319 1.561 . S
C322 C319 1.526 . S
C322 C323 1.396 . S
C322 C327 1.390 . S
C323 C317 1.465 . S
C323 C322 1.396 . S
C323 C324 1.399 . S
C324 H310 0.929 . S
C324 C323 1.399 . S
C324 C325 1.385 . S
C325 H311 0.931 . S
C325 C324 1.385 . S
C325 C326 1.389 . S
C326 C325 1.389 . S
C326 C327 1.387 . S
C327 H312 0.930 . S
C327 C322 1.390 . S
C327 C326 1.387 . S
H328 C340 0.930 . S
H329 C342 0.930 . S
H330 C343 0.930 1_655 S
H331 C347 0.959 . S
H332 C347 0.959 . S
H333 C347 0.961 . S
H334 C348 0.939 1_455 S
H335 C348 0.970 . S
H336 C348 0.983 . S
H337 C351 0.929 . S
H338 C352 0.931 . S
H339 C354 0.930 . S
C340 H328 0.930 . S
C340 C341 1.399 . S
C340 C345 1.399 . S
C341 C340 1.399 . S
C341 C342 1.376 . S
C342 H329 0.930 . S
C342 C341 1.376 . S
C342 C343 1.388 . S
C343 H330 0.930 1_455 S
C343 C342 1.388 . S
C343 C344 1.390 . S
C344 C343 1.390 . S
C344 C345 1.394 . S
C344 C350 1.465 1_455 S
C345 C340 1.399 . S
C345 C344 1.394 . S
C345 C346 1.516 . S
C346 C345 1.516 . S
C346 C347 1.502 . S
C346 C348 1.550 1_455 S
C346 C349 1.526 1_455 S
C347 H331 0.959 . S
C347 H332 0.959 . S
C347 H333 0.961 . S
C347 C346 1.502 . S
C348 H334 0.939 1_655 S
C348 H335 0.970 . S
C348 H336 0.983 . S
C348 C346 1.550 1_655 S
C349 C346 1.526 1_655 S
C349 C350 1.396 . S
C349 C354 1.390 . S
C350 C344 1.465 1_655 S
C350 C349 1.396 . S
C350 C351 1.399 . S
C351 H337 0.929 . S
C351 C350 1.399 . S
C351 C352 1.385 . S
C352 H338 0.931 . S
C352 C351 1.385 . S
C352 C353 1.389 . S
C353 C352 1.389 . S
C353 C354 1.387 . S
C354 H339 0.930 . S
C354 C349 1.390 . S
C354 C353 1.387 . S
H355 C367 0.930 . S
H356 C369 0.930 . S
H357 C370 0.930 . S
H358 C374 0.959 . S
H359 C374 0.959 . S
H360 C374 0.961 . S
H361 C375 0.960 . S
H362 C375 0.961 . S
H363 C375 0.959 . S
H364 C378 0.929 . S
H365 C379 0.931 . S
H366 C381 0.930 . S
C367 H355 0.930 . S
C367 C368 1.399 . S
C367 C372 1.399 . S
C368 C367 1.399 . S
C368 C369 1.376 . S
C369 H356 0.930 . S
C369 C368 1.376 . S
C369 C370 1.388 . S
C370 H357 0.930 . S
C370 C369 1.388 . S
C370 C371 1.390 . S
C371 C370 1.390 . S
C371 C372 1.394 . S
C371 C377 1.465 . S
C372 C367 1.399 . S
C372 C371 1.394 . S
C372 C373 1.516 . S
C373 C372 1.516 . S
C373 C374 1.502 . S
C373 C375 1.561 . S
C373 C376 1.526 . S
C374 H358 0.959 . S
C374 H359 0.959 . S
C374 H360 0.961 . S
C374 C373 1.502 . S
C375 H361 0.960 . S
C375 H362 0.961 . S
C375 H363 0.959 . S
C375 C373 1.561 . S
C376 C373 1.526 . S
C376 C377 1.396 . S
C376 C381 1.390 . S
C377 C371 1.465 . S
C377 C376 1.396 . S
C377 C378 1.399 . S
C378 H364 0.929 . S
C378 C377 1.399 . S
C378 C379 1.385 . S
C379 H365 0.931 . S
C379 C378 1.385 . S
C379 C380 1.389 . S
C380 C379 1.389 . S
C380 C381 1.387 . S
C381 H366 0.930 . S
C381 C376 1.390 . S
C381 C380 1.387 . S
H382 C394 0.930 . S
H383 C396 0.930 . S
H384 C397 0.930 1_655 S
H385 C401 0.959 . S
H386 C401 0.959 . S
H387 C401 0.961 . S
H388 C402 0.960 1_455 S
H389 C402 0.961 . S
H390 C402 0.959 . S
H391 C405 0.929 . S
H392 C406 0.931 . S
H393 C408 0.930 . S
C394 H382 0.930 . S
C394 C395 1.399 . S
C394 C399 1.399 . S
C395 C394 1.399 . S
C395 C396 1.376 . S
C396 H383 0.930 . S
C396 C395 1.376 . S
C396 C397 1.388 . S
C397 H384 0.930 1_455 S
C397 C396 1.388 . S
C397 C398 1.390 . S
C398 C397 1.390 . S
C398 C399 1.394 . S
C398 C404 1.465 1_455 S
C399 C394 1.399 . S
C399 C398 1.394 . S
C399 C400 1.516 . S
C400 C399 1.516 . S
C400 C401 1.502 . S
C400 C402 1.561 1_455 S
C400 C403 1.526 1_455 S
C401 H385 0.959 . S
C401 H386 0.959 . S
C401 H387 0.961 . S
C401 C400 1.502 . S
C402 H388 0.960 1_655 S
C402 H389 0.961 . S
C402 H390 0.959 . S
C402 C400 1.561 1_655 S
C403 C400 1.526 1_655 S
C403 C404 1.396 . S
C403 C408 1.390 . S
C404 C398 1.465 1_655 S
C404 C403 1.396 . S
C404 C405 1.399 . S
C405 H391 0.929 . S
C405 C404 1.399 . S
C405 C406 1.385 . S
C406 H392 0.931 . S
C406 C405 1.385 . S
C406 C407 1.389 . S
C407 C406 1.389 . S
C407 C408 1.387 . S
C408 H393 0.930 . S
C408 C403 1.390 . S
C408 C407 1.387 . S
H409 C421 0.930 . S
H410 C423 0.930 . S
H411 C424 0.930 . S
H412 C428 0.959 . S
H413 C428 0.959 . S
H414 C428 0.961 . S
H415 C429 0.960 . S
H416 C429 0.961 . S
H417 C429 0.959 . S
H418 C432 0.929 . S
H419 C433 0.931 . S
H420 C435 0.930 . S
C421 H409 0.930 . S
C421 C422 1.399 . S
C421 C426 1.399 . S
C422 C421 1.399 . S
C422 C423 1.376 . S
C423 H410 0.930 . S
C423 C422 1.376 . S
C423 C424 1.388 . S
C424 H411 0.930 . S
C424 C423 1.388 . S
C424 C425 1.390 . S
C425 C424 1.390 . S
C425 C426 1.394 . S
C425 C431 1.465 . S
C426 C421 1.399 . S
C426 C425 1.394 . S
C426 C427 1.516 . S
C427 C426 1.516 . S
C427 C428 1.502 . S
C427 C429 1.561 . S
C427 C430 1.526 . S
C428 H412 0.959 . S
C428 H413 0.959 . S
C428 H414 0.961 . S
C428 C427 1.502 . S
C429 H415 0.960 . S
C429 H416 0.961 . S
C429 H417 0.959 . S
C429 C427 1.561 . S
C430 C427 1.526 . S
C430 C431 1.396 . S
C430 C435 1.390 . S
C431 C425 1.465 . S
C431 C430 1.396 . S
C431 C432 1.399 . S
C432 H418 0.929 . S
C432 C431 1.399 . S
C432 C433 1.385 . S
C433 H419 0.931 . S
C433 C432 1.385 . S
C433 C434 1.389 . S
C434 C433 1.389 . S
C434 C435 1.387 . S
C435 H420 0.930 . S
C435 C430 1.390 . S
C435 C434 1.387 . S
H436 C448 0.930 . S
H437 C450 0.930 . S
H438 C451 0.930 . S
H439 C455 0.959 . S
H440 C455 0.959 . S
H441 C455 0.961 . S
H442 C456 0.960 1_445 S
H443 C456 0.961 . S
H444 C456 0.959 1_545 S
H445 C459 0.929 1_545 S
H446 C460 0.931 . S
H447 C462 0.930 . S
C448 H436 0.930 . S
C448 C449 1.399 . S
C448 C453 1.399 . S
C449 C448 1.399 . S
C449 C450 1.376 1_554 S
C450 H437 0.930 . S
C450 C449 1.376 1_556 S
C450 C451 1.388 . S
C451 H438 0.930 . S
C451 C450 1.388 . S
C451 C452 1.390 . S
C452 C451 1.390 . S
C452 C453 1.394 1_556 S
C452 C458 1.465 1_445 S
C453 C448 1.399 . S
C453 C452 1.394 1_554 S
C453 C454 1.516 1_545 S
C454 C453 1.516 1_565 S
C454 C455 1.502 . S
C454 C456 1.561 1_455 S
C454 C457 1.526 1_455 S
C455 H439 0.959 . S
C455 H440 0.959 . S
C455 H441 0.961 . S
C455 C454 1.502 . S
C456 H442 0.960 1_665 S
C456 H443 0.961 . S
C456 H444 0.959 1_565 S
C456 C454 1.561 1_655 S
C457 C454 1.526 1_655 S
C457 C458 1.396 1_554 S
C457 C462 1.390 . S
C458 C452 1.465 1_665 S
C458 C457 1.396 1_556 S
C458 C459 1.399 . S
C459 H445 0.929 1_565 S
C459 C458 1.399 . S
C459 C460 1.385 . S
C460 H446 0.931 . S
C460 C459 1.385 . S
C460 C461 1.389 . S
C461 C460 1.389 . S
C461 C462 1.387 1_556 S
C462 H447 0.930 . S
C462 C457 1.390 . S
C462 C461 1.387 1_554 S
H463 C475 0.930 . S
H464 C477 0.930 . S
H465 C478 0.930 . S
H466 C482 0.959 . S
H467 C482 0.959 . S
H468 C482 0.961 . S
H469 C483 0.960 . S
H470 C483 0.961 . S
H471 C483 0.959 . S
H472 C486 0.929 . S
H473 C487 0.931 . S
H474 C489 0.930 . S
C475 H463 0.930 . S
C475 C476 1.399 . S
C475 C480 1.399 . S
C476 C475 1.399 . S
C476 C477 1.376 . S
C477 H464 0.930 . S
C477 C476 1.376 . S
C477 C478 1.388 . S
C478 H465 0.930 . S
C478 C477 1.388 . S
C478 C479 1.390 . S
C479 C478 1.390 . S
C479 C480 1.394 . S
C479 C485 1.465 . S
C480 C475 1.399 . S
C480 C479 1.394 . S
C480 C481 1.516 . S
C481 C480 1.516 . S
C481 C482 1.502 . S
C481 C483 1.561 . S
C481 C484 1.526 . S
C482 H466 0.959 . S
C482 H467 0.959 . S
C482 H468 0.961 . S
C482 C481 1.502 . S
C483 H469 0.960 . S
C483 H470 0.961 . S
C483 H471 0.959 . S
C483 C481 1.561 . S
C484 C481 1.526 . S
C484 C485 1.396 . S
C484 C489 1.390 . S
C485 C479 1.465 . S
C485 C484 1.396 . S
C485 C486 1.399 . S
C486 H472 0.929 . S
C486 C485 1.399 . S
C486 C487 1.385 . S
C487 H473 0.931 . S
C487 C486 1.385 . S
C487 C488 1.389 . S
C488 C487 1.389 . S
C488 C489 1.387 . S
C489 H474 0.930 . S
C489 C484 1.390 . S
C489 C488 1.387 . S
H490 C502 0.930 . S
H491 C504 0.932 . S
H492 C505 0.930 . S
H493 C509 0.959 1_556 S
H494 C509 0.959 . S
H495 C509 0.961 . S
H496 C510 0.960 . S
H497 C510 0.961 . S
H498 C510 0.959 . S
H499 C513 0.929 . S
H500 C514 0.931 . S
H501 C516 0.930 . S
C502 H490 0.930 . S
C502 C503 1.399 . S
C502 C507 1.399 . S
C503 C502 1.399 . S
C503 C504 1.372 1_554 S
C504 H491 0.932 . S
C504 C503 1.372 1_556 S
C504 C505 1.391 . S
C505 H492 0.930 . S
C505 C504 1.391 . S
C505 C506 1.390 . S
C506 C505 1.390 . S
C506 C507 1.394 1_556 S
C506 C512 1.465 . S
C507 C502 1.399 . S
C507 C506 1.394 1_554 S
C507 C508 1.516 . S
C508 C507 1.516 . S
C508 C509 1.502 . S
C508 C510 1.561 . S
C508 C511 1.526 . S
C509 H493 0.959 1_554 S
C509 H494 0.959 . S
C509 H495 0.961 . S
C509 C508 1.502 . S
C510 H496 0.960 . S
C510 H497 0.961 . S
C510 H498 0.959 . S
C510 C508 1.561 . S
C511 C508 1.526 . S
C511 C512 1.396 1_554 S
C511 C516 1.390 . S
C512 C506 1.465 . S
C512 C511 1.396 1_556 S
C512 C513 1.399 . S
C513 H499 0.929 . S
C513 C512 1.399 . S
C513 C514 1.385 . S
C514 H500 0.931 . S
C514 C513 1.385 . S
C514 C515 1.389 . S
C515 C514 1.389 . S
C515 C516 1.387 1_556 S
C516 H501 0.930 . S
C516 C511 1.390 . S
C516 C515 1.387 1_554 S
H517 C529 0.930 . S
H518 C531 0.930 . S
H519 C532 0.930 . S
H520 C536 0.959 . S
H521 C536 0.959 1_545 S
H522 C536 0.961 . S
H523 C537 0.960 . S
H524 C537 0.961 . S
H525 C537 0.959 . S
H526 C540 0.929 . S
H527 C541 0.931 . S
H528 C543 0.930 . S
C529 H517 0.930 . S
C529 C530 1.399 . S
C529 C534 1.399 . S
C530 C529 1.399 . S
C530 C531 1.376 . S
C531 H518 0.930 . S
C531 C530 1.376 . S
C531 C532 1.388 . S
C532 H519 0.930 . S
C532 C531 1.388 . S
C532 C533 1.390 . S
C533 C532 1.390 . S
C533 C534 1.394 . S
C533 C539 1.465 1_465 S
C534 C529 1.399 . S
C534 C533 1.394 . S
C534 C535 1.516 1_465 S
C535 C534 1.516 1_645 S
C535 C536 1.502 1_545 S
C535 C537 1.561 1_655 S
C535 C538 1.526 . S
C536 H520 0.959 . S
C536 H521 0.959 1_565 S
C536 H522 0.961 . S
C536 C535 1.502 1_565 S
C537 H523 0.960 . S
C537 H524 0.961 . S
C537 H525 0.959 . S
C537 C535 1.561 1_455 S
C538 C535 1.526 . S
C538 C539 1.396 . S
C538 C543 1.390 . S
C539 C533 1.465 1_645 S
C539 C538 1.396 . S
C539 C540 1.399 . S
C540 H526 0.929 . S
C540 C539 1.399 . S
C540 C541 1.385 . S
C541 H527 0.931 . S
C541 C540 1.385 . S
C541 C542 1.389 . S
C542 C541 1.389 . S
C542 C543 1.387 . S
C543 H528 0.930 . S
C543 C538 1.390 . S
C543 C542 1.387 . S
C125 C21 1.587 . S
C137 C8 1.671 . S
C152 C7 1.651 . S
C164 C22 1.637 . S
C179 C49 1.652 . S
C191 C36 1.633 . S
C206 C35 1.585 . S
C218 C50 1.667 . S
C233 C64 1.669 . S
C245 C77 1.628 . S
C260 C78 1.657 . S
C272 C63 1.586 . S
C287 C92 1.670 . S
C299 C105 1.597 . S
C314 C91 1.632 . S
C326 C106 1.667 . S
C341 C9 0.559 . S
C353 C51 0.439 . S
C368 C23 0.580 . S
C380 C37 0.687 . S
C395 C107 0.688 . S
C407 C65 0.649 . S
C422 C93 0.437 . S
C434 C79 0.480 . S
C449 C3 1.543 . S
C461 C59 1.560 . S
C476 C73 1.575 . S
C488 C17 1.534 . S
C503 C87 1.574 . S
C515 C31 1.534 . S
C530 C101 1.569 . S
C542 C45 1.544 . S
