# Generated by pormake.
# Topology wkb, (5)-cn, num edge types: 1
# Building blocks:
#     Node 0, Type 0, BuildingBlock: XOMCOT_clean_sbu_1, # of connection points: 5
#     Node 1, Type 0, BuildingBlock: XOMCOT_clean_sbu_1, # of connection points: 5
#     Node 2, Type 0, BuildingBlock: XOMCOT_clean_sbu_1, # of connection points: 5
#     Node 3, Type 0, BuildingBlock: XOMCOT_clean_sbu_1, # of connection points: 5
#     Node 4, Type 0, BuildingBlock: XOMCOT_clean_sbu_1, # of connection points: 5
#     Node 5, Type 0, BuildingBlock: XOMCOT_clean_sbu_1, # of connection points: 5
#     Node 6, Type 0, BuildingBlock: XOMCOT_clean_sbu_1, # of connection points: 5
#     Node 7, Type 0, BuildingBlock: XOMCOT_clean_sbu_1, # of connection points: 5
#     Node 8, Type 0, BuildingBlock: XOMCOT_clean_sbu_1, # of connection points: 5
#     Node 9, Type 0, BuildingBlock: XOMCOT_clean_sbu_1, # of connection points: 5
#     Node 10, Type 0, BuildingBlock: XOMCOT_clean_sbu_1, # of connection points: 5
#     Node 11, Type 0, BuildingBlock: XOMCOT_clean_sbu_1, # of connection points: 5
#     Edge 12, Type (0, 0), BuildingBlock: OJICUG_clean_linker_0, # of connection points: 2
#     Edge 13, Type (0, 0), BuildingBlock: OJICUG_clean_linker_0, # of connection points: 2
#     Edge 14, Type (0, 0), BuildingBlock: OJICUG_clean_linker_0, # of connection points: 2
#     Edge 15, Type (0, 0), BuildingBlock: OJICUG_clean_linker_0, # of connection points: 2
#     Edge 16, Type (0, 0), BuildingBlock: OJICUG_clean_linker_0, # of connection points: 2
#     Edge 17, Type (0, 0), BuildingBlock: OJICUG_clean_linker_0, # of connection points: 2
#     Edge 18, Type (0, 0), BuildingBlock: OJICUG_clean_linker_0, # of connection points: 2
#     Edge 19, Type (0, 0), BuildingBlock: OJICUG_clean_linker_0, # of connection points: 2
#     Edge 20, Type (0, 0), BuildingBlock: OJICUG_clean_linker_0, # of connection points: 2
#     Edge 21, Type (0, 0), BuildingBlock: OJICUG_clean_linker_0, # of connection points: 2
#     Edge 22, Type (0, 0), BuildingBlock: OJICUG_clean_linker_0, # of connection points: 2
#     Edge 23, Type (0, 0), BuildingBlock: OJICUG_clean_linker_0, # of connection points: 2
#     Edge 24, Type (0, 0), BuildingBlock: OJICUG_clean_linker_0, # of connection points: 2
#     Edge 25, Type (0, 0), BuildingBlock: OJICUG_clean_linker_0, # of connection points: 2
#     Edge 26, Type (0, 0), BuildingBlock: OJICUG_clean_linker_0, # of connection points: 2
#     Edge 27, Type (0, 0), BuildingBlock: OJICUG_clean_linker_0, # of connection points: 2
#     Edge 28, Type (0, 0), BuildingBlock: OJICUG_clean_linker_0, # of connection points: 2
#     Edge 29, Type (0, 0), BuildingBlock: OJICUG_clean_linker_0, # of connection points: 2
#     Edge 30, Type (0, 0), BuildingBlock: OJICUG_clean_linker_0, # of connection points: 2
#     Edge 31, Type (0, 0), BuildingBlock: OJICUG_clean_linker_0, # of connection points: 2
#     Edge 32, Type (0, 0), BuildingBlock: OJICUG_clean_linker_0, # of connection points: 2
#     Edge 33, Type (0, 0), BuildingBlock: OJICUG_clean_linker_0, # of connection points: 2
#     Edge 34, Type (0, 0), BuildingBlock: OJICUG_clean_linker_0, # of connection points: 2
#     Edge 35, Type (0, 0), BuildingBlock: OJICUG_clean_linker_0, # of connection points: 2
#     Edge 36, Type (0, 0), BuildingBlock: OJICUG_clean_linker_0, # of connection points: 2
#     Edge 37, Type (0, 0), BuildingBlock: OJICUG_clean_linker_0, # of connection points: 2
#     Edge 38, Type (0, 0), BuildingBlock: OJICUG_clean_linker_0, # of connection points: 2
#     Edge 39, Type (0, 0), BuildingBlock: OJICUG_clean_linker_0, # of connection points: 2
#     Edge 40, Type (0, 0), BuildingBlock: OJICUG_clean_linker_0, # of connection points: 2
#     Edge 41, Type (0, 0), BuildingBlock: OJICUG_clean_linker_0, # of connection points: 2
# Relax obj value: 0.085
# Max RMSD: 0.113
# Mean RMSD: 0.113
data_MOF--net-wkb--node1-XOMCOT_clean_sbu_1--edge1-OJICUG_clean_linker_0
_symmetry_space_group_name_H-M    P1
_symmetry_Int_Tables_number       1
_symmetry_cell_setting            triclinic
loop_
_symmetry_equiv_pos_as_xyz
'x, y, z'
_cell_length_a     34.414696
_cell_length_b     34.449617
_cell_length_c     29.240128
_cell_angle_alpha  90.04595
_cell_angle_beta   90.009005
_cell_angle_gamma 119.93986
loop_
_atom_site_label
_atom_site_type_symbol
_atom_site_fract_x
_atom_site_fract_y
_atom_site_fract_z
_atom_type_partial_charge
C0 C 0.12668 0.39792 0.97595 0.0
C1 C 0.1194 0.39925 0.93022 0.0
N2 N 0.08731 0.35814 0.91723 0.0
N3 N 0.09887 0.35634 0.99189 0.0
C4 C 0.07548 0.33238 0.95514 0.0
H5 H 0.15041 0.42566 0.99674 0.0
Co6 Co 0.10183 0.3441 0.05263 0.0
C7 C 1.00234 0.27877 0.06955 0.0
O8 O 0.99415 0.31075 0.08091 0.0
N9 N 0.10688 0.33275 0.1141 0.0
C10 C 0.09593 0.32146 0.18893 0.0
C11 C 0.07849 0.32672 0.14881 0.0
C12 C 0.14125 0.33099 0.13403 0.0
N13 N 0.13553 0.32422 0.17961 0.0
O14 O 0.12831 0.30829 0.03268 0.0
H15 H 1.04799 0.3281 0.14589 0.0
H16 H 0.17014 0.33501 0.11547 0.0
O17 O 1.04123 0.28833 0.05446 0.0
C18 C 0.16902 0.33419 0.0206 0.0
O19 O 0.18797 0.37664 0.03228 0.0
N20 N 0.0807 0.38446 0.06866 0.0
C21 C 0.07049 0.46018 0.07685 0.0
C22 C 1.04438 0.4259 0.04588 0.0
C23 C 1.05038 0.38882 0.04188 0.0
C24 C 0.10643 0.41777 0.09897 0.0
C25 C 0.10121 0.4553 0.10429 0.0
H26 H 1.03169 0.36428 0.01573 0.0
H27 H 0.13323 0.41687 0.11734 0.0
H28 H 1.04975 0.29741 0.95632 0.0
H29 H 0.13608 0.42824 0.90814 0.0
H30 H 0.08133 0.3178 0.22253 0.0
H31 H 1.02039 0.42832 0.02381 0.0
H32 H 0.12305 0.48157 0.12771 0.0
C33 C 0.76419 0.10912 0.1433 0.0
C34 C 0.75479 0.10198 0.0977 0.0
N35 N 0.76296 0.06945 0.08413 0.0
N36 N 0.77762 0.08079 0.15865 0.0
C37 C 0.77718 0.0572 0.1216 0.0
H38 H 0.76115 0.13328 0.1644 0.0
Co39 Co 0.7941 0.08416 0.21907 0.0
C40 C 0.7579 0.98468 0.23817 0.0
O41 O 0.71866 0.97821 0.25097 0.0
N42 N 0.81174 0.08963 0.28027 0.0
C43 C 0.81274 0.07947 0.3552 0.0
C44 C 0.78901 0.06241 0.31557 0.0
C45 C 0.84918 0.12301 0.29944 0.0
N46 N 0.85064 0.1177 0.34506 0.0
O47 O 0.85574 0.10869 0.19774 0.0
H48 H 0.75617 1.03313 0.31344 0.0
H49 H 0.87464 0.15098 0.28036 0.0
O50 O 0.78742 1.02268 0.22149 0.0
C51 C 0.8713 0.14944 0.18544 0.0
O52 O 0.84894 0.16951 0.1976 0.0
N53 N 0.73345 0.06517 0.23632 0.0
C54 C 0.64904 0.05848 0.24542 0.0
C55 C 0.65517 1.03 0.21581 0.0
C56 C 0.69765 0.03453 0.21102 0.0
C57 C 0.72784 0.09302 0.26548 0.0
C58 C 0.68594 0.08981 0.27103 0.0
H59 H 0.70217 1.01459 0.18527 0.0
H60 H 0.75649 0.11987 0.28264 0.0
H61 H 0.78613 1.03122 0.12223 0.0
H62 H 0.74271 0.11922 0.07606 0.0
H63 H 0.80175 0.06576 0.38909 0.0
H64 H 0.62804 1.00621 0.19433 0.0
H65 H 0.68291 0.11284 0.29399 0.0
C66 C 0.68829 0.74738 0.30986 0.0
C67 C 0.68624 0.73875 0.26406 0.0
N68 N 0.72697 0.7469 0.25052 0.0
N69 N 0.72992 0.76027 0.32529 0.0
C70 C 0.75321 0.76033 0.28817 0.0
H71 H 0.66099 0.74392 0.33107 0.0
Co72 Co 0.7431 0.77486 0.38605 0.0
C73 C 0.80767 0.73892 0.39991 0.0
O74 O 0.77541 0.69821 0.40869 0.0
N75 N 0.75558 0.79066 0.44755 0.0
C76 C 0.76849 0.7895 0.52192 0.0
C77 C 0.7621 0.76751 0.48113 0.0
C78 C 0.75832 0.82666 0.46882 0.0
N79 N 0.76611 0.82668 0.51403 0.0
O80 O 0.77964 0.8371 0.36644 0.0
H81 H 0.76063 0.73571 0.47686 0.0
H82 H 0.75313 0.8516 0.4519 0.0
O83 O 0.79839 0.769 0.38679 0.0
C84 C 0.75448 0.85299 0.3549 0.0
O85 O 0.71213 0.83061 0.36723 0.0
N86 N 0.70204 0.71343 0.40183 0.0
C87 C 0.62602 0.62787 0.41095 0.0
C88 C 0.65923 0.63593 0.37865 0.0
C89 C 0.69639 0.67881 0.37418 0.0
C90 C 0.6697 0.70601 0.43337 0.0
C91 C 0.63206 0.66342 0.43916 0.0
H92 H 0.71999 0.68447 0.34707 0.0
H93 H 0.67144 0.73367 0.45254 0.0
H94 H 0.788 0.76873 0.28892 0.0
H95 H 0.65702 0.72698 0.24231 0.0
H96 H 0.77389 0.77872 0.5549 0.0
H97 H 0.65592 0.60959 0.35594 0.0
H98 H 0.60657 0.65909 0.46362 0.0
C99 C 0.97515 0.66992 0.4762 0.0
C100 C 0.9825 0.66838 0.43051 0.0
N101 N 1.01478 0.70938 0.41755 0.0
N102 N 1.00315 0.7115 0.49212 0.0
C103 C 1.02668 0.73526 0.45541 0.0
H104 H 0.95123 0.64234 0.49698 0.0
Co105 Co 1.00045 0.72422 0.55272 0.0
C106 C 0.10008 0.78852 0.56996 0.0
O107 O 0.10766 0.75625 0.58175 0.0
N108 N 0.99572 0.73614 0.61416 0.0
C109 C 1.00713 0.7478 0.68893 0.0
C110 C 1.0238 0.74132 0.64891 0.0
C111 C 0.96229 0.73967 0.63399 0.0
N112 N 0.96832 0.74673 0.67955 0.0
O113 O 0.97494 0.76077 0.53235 0.0
H114 H 0.05357 0.73858 0.64609 0.0
H115 H 0.93387 0.73676 0.61536 0.0
O116 O 0.06144 0.77941 0.55449 0.0
C117 C 0.93418 0.73552 0.51996 0.0
O118 O 0.91427 0.69316 0.53205 0.0
N119 N 1.02076 0.68329 0.569 0.0
C120 C 1.03007 0.60708 0.57728 0.0
C121 C 0.05651 0.64125 0.54643 0.0
C122 C 1.05095 0.67857 0.54238 0.0
C123 C 0.99468 0.6501 0.59919 0.0
C124 C 0.99946 0.6123 0.60457 0.0
H125 H 0.0699 0.70304 0.51631 0.0
H126 H 0.96802 0.65135 0.61744 0.0
H127 H 0.05255 0.77018 0.45659 0.0
H128 H 0.96569 0.63936 0.40843 0.0
H129 H 1.02167 0.75116 0.72252 0.0
H130 H 0.08043 0.63857 0.5245 0.0
H131 H 0.9774 0.58612 0.6279 0.0
C132 C 0.33806 0.95768 0.64422 0.0
C133 C 0.34747 0.96508 0.59866 0.0
N134 N 0.33923 0.99764 0.58542 0.0
N135 N 0.32457 0.98588 0.65987 0.0
C136 C 0.32497 1.00965 0.62305 0.0
H137 H 0.34118 0.93346 0.66508 0.0
Co138 Co 0.30821 0.98226 0.72036 0.0
C139 C 0.34407 0.08134 0.74073 0.0
O140 O 0.38298 0.08748 0.75432 0.0
N141 N 0.2907 0.97654 0.78166 0.0
C142 C 0.28995 0.98629 0.85673 0.0
C143 C 0.31387 1.00316 0.81723 0.0
C144 C 0.25278 0.94367 0.80059 0.0
N145 N 0.25146 0.94877 0.84627 0.0
O146 O 0.24656 0.95775 0.69915 0.0
H147 H 0.3471 1.03187 0.81539 0.0
H148 H 0.22684 0.91623 0.7813 0.0
O149 O 0.31479 0.04366 0.72319 0.0
C150 C 0.23117 0.91707 0.68662 0.0
O151 O 0.2536 0.89708 0.69875 0.0
N152 N 0.36889 1.00129 0.73736 0.0
C153 C 0.45335 1.00794 0.74536 0.0
C154 C 0.44707 0.03681 0.71652 0.0
C155 C 0.40457 1.03233 0.71229 0.0
C156 C 0.37464 0.97311 0.76581 0.0
C157 C 0.41658 0.97631 0.77085 0.0
H158 H 0.39989 0.05258 0.68707 0.0
H159 H 0.34605 0.94604 0.78276 0.0
H160 H 0.31602 0.03563 0.62395 0.0
H161 H 0.35963 0.94803 0.57682 0.0
H162 H 0.30116 0.9996 0.89075 0.0
H163 H 0.47408 0.06086 0.69516 0.0
H164 H 0.41972 0.95303 0.79329 0.0
C165 C 0.40992 0.31707 0.80543 0.0
C166 C 0.40541 0.31901 0.75912 0.0
N167 N 0.36302 0.30901 0.75049 0.0
N168 N 0.37057 0.30606 0.82571 0.0
C169 C 0.34249 0.30152 0.79143 0.0
H170 H 0.43965 0.3223 0.82337 0.0
Co171 Co 0.36149 0.29271 0.88682 0.0
C172 C 0.29848 0.32964 0.90537 0.0
O173 O 0.33143 0.36989 0.91469 0.0
N174 N 0.35251 0.27816 0.94882 0.0
C175 C 0.34336 0.28091 0.02379 0.0
C176 C 0.34875 0.30255 0.98302 0.0
C177 C 0.34914 0.24175 0.96972 0.0
N178 N 0.3436 0.2427 0.01528 0.0
O179 O 0.32382 0.23009 0.86875 0.0
H180 H 0.35127 0.33484 0.97913 0.0
H181 H 0.35197 0.21563 0.9522 0.0
O182 O 0.3067 0.29917 0.89107 0.0
C183 C 0.34911 0.21466 0.85604 0.0
O184 O 0.39184 0.23785 0.86683 0.0
N185 N 0.40383 0.354 0.90065 0.0
C186 C 0.48157 0.43856 0.90662 0.0
C187 C 0.44627 0.4315 0.87753 0.0
C188 C 0.40833 0.38886 0.87421 0.0
C189 C 0.43819 0.36051 0.92896 0.0
C190 C 0.47685 0.40248 0.933 0.0
H191 H 0.38321 0.3835 0.84889 0.0
H192 H 0.43702 0.33248 0.9468 0.0
H193 H 0.30756 0.29163 0.79617 0.0
H194 H 0.43129 0.32742 0.73369 0.0
H195 H 0.33989 0.29252 0.05713 0.0
H196 H 0.44901 0.45801 0.85549 0.0
H197 H 0.50349 0.40623 0.95553 0.0
C198 C 0.68724 0.95805 0.84579 0.0
C199 C 0.68521 0.96517 0.89144 0.0
N200 N 0.72605 0.99745 0.90494 0.0
N201 N 0.72899 0.98616 0.83034 0.0
C202 C 0.75236 1.00957 0.86736 0.0
H203 H 0.65991 0.93401 0.82476 0.0
Co204 Co 0.742 0.98265 0.7699 0.0
C205 C 0.80524 0.08197 0.75053 0.0
O206 O 0.77252 0.08845 0.73754 0.0
N207 N 0.75409 0.97704 0.70868 0.0
C208 C 0.76505 0.98706 0.63371 0.0
C209 C 0.75825 1.00408 0.67331 0.0
C210 C 0.75849 0.94381 0.68958 0.0
N211 N 0.76515 0.94904 0.64393 0.0
O212 O 0.77915 0.95821 0.7913 0.0
H213 H 0.75442 1.03321 0.67537 0.0
H214 H 0.75633 0.91602 0.70874 0.0
O215 O 0.79673 0.04404 0.7674 0.0
C216 C 0.75388 0.91754 0.80378 0.0
O217 O 0.71156 0.89745 0.79127 0.0
N218 N 0.70036 1.00166 0.75265 0.0
C219 C 0.62251 1.00822 0.74406 0.0
C220 C 0.6573 0.03683 0.77342 0.0
C221 C 0.69532 1.0324 0.77792 0.0
C222 C 0.66678 0.97373 0.72368 0.0
C223 C 0.62804 0.97689 0.71835 0.0
H224 H 0.71992 0.05244 0.80353 0.0
H225 H 0.66853 0.94684 0.70652 0.0
H226 H 0.78738 0.03528 0.86667 0.0
H227 H 0.65598 0.94803 0.91318 0.0
H228 H 0.76761 1.00068 0.5998 0.0
H229 H 0.65403 0.06064 0.79496 0.0
H230 H 0.6019 0.95379 0.69552 0.0
C231 C 0.7651 0.67166 0.01289 0.0
C232 C 0.75576 0.66939 0.05854 0.0
N233 N 0.76384 0.71005 0.07214 0.0
N234 N 0.7783 0.71334 0.99762 0.0
C235 C 0.77787 0.73644 0.03469 0.0
H236 H 0.76207 0.64452 0.99172 0.0
Co237 Co 0.79433 0.7272 0.93731 0.0
C238 C 0.75712 0.79083 0.9232 0.0
O239 O 0.71653 0.75845 0.914 0.0
N240 N 0.81144 0.7404 0.87626 0.0
C241 C 0.8108 0.75317 0.80184 0.0
C242 C 0.78867 0.74718 0.84243 0.0
C243 C 0.84736 0.74256 0.85535 0.0
N244 N 0.84763 0.7502 0.81008 0.0
O245 O 0.85598 0.76432 0.95846 0.0
H246 H 0.75689 0.74588 0.84634 0.0
H247 H 0.87185 0.73678 0.8725 0.0
O248 O 0.78739 0.78179 0.9363 0.0
C249 C 0.87224 0.73953 0.97012 0.0
O250 O 0.85054 0.69735 0.95723 0.0
N251 N 0.73358 0.68548 0.91985 0.0
C252 C 0.64948 0.60794 0.90844 0.0
C253 C 0.65533 0.64101 0.94001 0.0
C254 C 0.69765 0.6788 0.94594 0.0
C255 C 0.72823 0.65341 0.88887 0.0
C256 C 0.68651 0.61488 0.88218 0.0
H257 H 0.70189 0.70179 0.97322 0.0
H258 H 0.75694 0.65608 0.87098 0.0
H259 H 0.78658 0.77128 0.03406 0.0
H260 H 0.74377 0.64013 0.08017 0.0
H261 H 0.80019 0.75844 0.76869 0.0
H262 H 0.62811 0.63646 0.9621 0.0
H263 H 0.68372 0.58994 0.85779 0.0
C264 C 0.12892 0.74928 0.18044 0.0
C265 C 0.12258 0.74071 0.22624 0.0
N266 N 0.0899 0.74865 0.23995 0.0
N267 N 0.09996 0.76197 0.16521 0.0
C268 C 0.07681 0.76193 0.20242 0.0
H269 H 0.15268 0.74582 0.15908 0.0
Co270 Co 0.10088 0.77605 0.10445 0.0
C271 C 1.0005 0.74109 0.09123 0.0
O272 O 0.99144 0.70009 0.08283 0.0
N273 N 0.10366 0.79129 0.04287 0.0
C274 C 0.08892 0.78959 0.9686 0.0
C275 C 0.07377 0.76782 0.00954 0.0
C276 C 0.13659 0.82724 0.02133 0.0
N277 N 0.1284 0.82694 0.9762 0.0
O278 O 0.12724 0.83849 0.12368 0.0
H279 H 1.04354 0.736 0.01408 0.0
H280 H 0.16677 0.8524 0.03801 0.0
O281 O 1.04006 0.77089 0.10413 0.0
C282 C 0.1684 0.85416 0.13465 0.0
O283 O 0.18798 0.83157 0.12169 0.0
N284 N 0.07988 0.7144 0.0891 0.0
C285 C 0.07011 0.62864 0.08102 0.0
C286 C 1.04511 0.63717 0.11311 0.0
C287 C 1.05093 0.68016 0.11706 0.0
C288 C 0.1046 0.70649 0.05772 0.0
C289 C 0.09954 0.66379 0.05246 0.0
H290 H 1.03321 0.68624 0.14409 0.0
H291 H 0.1305 0.73389 0.03834 0.0
H292 H 1.05016 0.76997 0.20178 0.0
H293 H 0.14016 0.72899 0.24784 0.0
H294 H 0.07248 0.77856 0.93575 0.0
H295 H 1.02216 0.61115 0.13609 0.0
H296 H 0.12057 0.65909 0.02812 0.0
C297 C 0.41499 0.10933 0.34744 0.0
C298 C 0.41699 0.10251 0.39315 0.0
N299 N 0.37622 0.07011 0.40659 0.0
N300 N 0.37333 0.08095 0.3319 0.0
C301 C 0.34997 0.05764 0.36892 0.0
H302 H 0.4423 0.13333 0.32641 0.0
Co303 Co 0.36048 0.08403 0.27134 0.0
C304 C 0.29702 0.98439 0.25302 0.0
O305 O 0.32973 0.97739 0.24137 0.0
N306 N 0.34858 0.08922 0.21008 0.0
C307 C 0.3376 0.07887 0.13512 0.0
C308 C 0.34324 0.06141 0.175 0.0
C309 C 0.34608 0.12332 0.19058 0.0
N310 N 0.33951 0.11795 0.14496 0.0
O311 O 0.32342 0.10885 0.2921 0.0
H312 H 0.34557 1.03143 0.17746 0.0
H313 H 0.34966 0.15189 0.20942 0.0
O314 O 0.30561 1.02271 0.26894 0.0
C315 C 0.3486 0.14966 0.30428 0.0
O316 O 0.39108 0.16956 0.29245 0.0
N317 N 0.4021 0.0648 0.25452 0.0
C318 C 0.4799 0.05817 0.24583 0.0
C319 C 0.44545 1.03003 0.27567 0.0
C320 C 0.40746 0.03454 0.28024 0.0
C321 C 0.4354 0.09227 0.22509 0.0
C322 C 0.47411 0.08908 0.21974 0.0
H323 H 0.38314 1.01491 0.30619 0.0
H324 H 0.43351 0.11889 0.20756 0.0
H325 H 0.31504 1.03171 0.36815 0.0
H326 H 0.44618 0.11989 0.41495 0.0
H327 H 0.33452 0.06485 0.1013 0.0
H328 H 0.44896 1.00658 0.2975 0.0
H329 H 0.50003 0.11183 0.19656 0.0
C330 C 0.33422 0.39168 0.51907 0.0
C331 C 0.33634 0.38751 0.56541 0.0
N332 N 0.32587 0.34508 0.57433 0.0
N333 N 0.32266 0.3521 0.49905 0.0
C334 C 0.31793 0.3242 0.53353 0.0
H335 H 0.33978 0.42137 0.50091 0.0
Co336 Co 0.30918 0.34272 0.43796 0.0
C337 C 0.3447 0.27832 0.42078 0.0
O338 O 0.38553 0.31072 0.41258 0.0
N339 N 0.29434 0.33345 0.37604 0.0
C340 C 0.29624 0.3233 0.30115 0.0
C341 C 0.31776 0.32801 0.34195 0.0
C342 C 0.2586 0.33168 0.35511 0.0
N343 N 0.25905 0.32557 0.30961 0.0
O344 O 0.24644 0.30602 0.4562 0.0
H345 H 0.34934 0.3289 0.34595 0.0
H346 H 0.23334 0.33603 0.37255 0.0
O347 O 0.31445 0.28731 0.4341 0.0
C348 C 0.23137 0.3316 0.46887 0.0
O349 O 0.25473 0.37417 0.4577 0.0
N350 N 0.37093 0.3841 0.42387 0.0
C351 C 0.45684 0.45997 0.41663 0.0
C352 C 0.44838 0.42575 0.44775 0.0
C353 C 0.40527 0.38859 0.45129 0.0
C354 C 0.3787 0.41767 0.39389 0.0
C355 C 0.42143 0.45521 0.38899 0.0
H356 H 0.39925 0.36397 0.47736 0.0
H357 H 0.35121 0.41689 0.37523 0.0
H358 H 0.30768 0.28919 0.52902 0.0
H359 H 0.34523 0.41364 0.59065 0.0
H360 H 0.30721 0.31885 0.26785 0.0
H361 H 0.4746 0.42814 0.47009 0.0
H362 H 0.42602 0.48151 0.36557 0.0
C363 C 0.97273 0.31761 0.68022 0.0
C364 C 0.97919 0.3261 0.72604 0.0
N365 N 1.01219 0.31853 0.73948 0.0
N366 N 1.00191 0.30534 0.66468 0.0
C367 C 1.02535 0.30556 0.70175 0.0
H368 H 0.94871 0.32084 0.65905 0.0
Co369 Co 1.00071 0.29143 0.60374 0.0
C370 C 0.10098 0.3275 0.58915 0.0
O371 O 0.10907 0.36809 0.58032 0.0
N372 N 0.99761 0.27635 0.542 0.0
C373 C 1.01174 0.27834 0.46756 0.0
C374 C 1.027 0.30016 0.50848 0.0
C375 C 0.96484 0.24012 0.52055 0.0
N376 N 0.97268 0.2406 0.47531 0.0
O377 O 0.97504 0.22904 0.62263 0.0
H378 H 0.0569 0.33227 0.51285 0.0
H379 H 0.93502 0.2146 0.53737 0.0
O380 O 0.06188 0.29734 0.6028 0.0
C381 C 0.93389 0.21307 0.63376 0.0
O382 O 0.914 0.23547 0.62117 0.0
N383 N 1.02099 0.35298 0.5888 0.0
C384 C 1.03005 0.43846 0.58125 0.0
C385 C 0.05543 0.43015 0.61306 0.0
C386 C 1.04997 0.3873 0.61674 0.0
C387 C 0.99581 0.36064 0.55779 0.0
C388 C 1.00053 0.40321 0.55277 0.0
H389 H 0.06812 0.38138 0.64344 0.0
H390 H 0.96989 0.33314 0.53846 0.0
H391 H 0.05223 0.29786 0.70087 0.0
H392 H 0.96147 0.33753 0.74783 0.0
H393 H 1.02782 0.28961 0.4346 0.0
H394 H 0.07847 0.45627 0.63596 0.0
H395 H 0.97923 0.40774 0.52866 0.0
C396 C 0.24241 0.34259 0.23293 0.0
C397 C 0.22767 0.32419 0.27655 0.0
H398 H 0.22509 0.35809 0.16831 0.0
C399 C 0.18212 0.30492 0.28761 0.0
H400 H 0.27753 0.35822 0.22386 0.0
C401 C 0.15176 0.30418 0.25556 0.0
C402 C 0.16651 0.32325 0.21201 0.0
H403 H 0.16995 0.28998 0.32088 0.0
H404 H 0.11675 0.28848 0.26496 0.0
C405 C 0.21222 0.34235 0.20106 0.0
C406 C 0.91081 0.19376 0.36581 0.0
C407 C 0.88349 0.14829 0.37702 0.0
H408 H 0.96046 0.25885 0.38862 0.0
C409 C 0.88746 0.1335 0.42069 0.0
H410 H 0.90829 0.20659 0.33288 0.0
C411 C 0.91704 0.16372 0.45282 0.0
C412 C 0.94362 0.20917 0.44174 0.0
H413 H 0.86765 0.09861 0.43021 0.0
H414 H 0.91928 0.15157 0.4863 0.0
C415 C 0.94069 0.22383 0.39779 0.0
C416 C 0.78597 0.90329 0.53616 0.0
C417 C 0.76796 0.85799 0.54747 0.0
H418 H 0.80066 0.96817 0.5585 0.0
C419 C 0.75077 0.84336 0.59154 0.0
H420 H 0.80005 0.91543 0.50258 0.0
C421 C 0.7505 0.87329 0.62344 0.0
C422 C 0.76782 0.91861 0.61203 0.0
H423 H 0.73618 0.80844 0.60089 0.0
H424 H 0.73548 0.86044 0.65647 0.0
C425 C 0.78619 0.93339 0.56821 0.0
C426 C 0.95351 0.76803 0.75561 0.0
C427 C 0.93821 0.74933 0.71195 0.0
H428 H 0.93636 0.78292 0.82119 0.0
C429 C 0.89272 0.73201 0.701 0.0
H430 H 0.98841 0.78243 0.76503 0.0
C431 C 0.86325 0.73297 0.733 0.0
C432 C 0.87846 0.75082 0.77676 0.0
H433 H 0.8794 0.71664 0.66818 0.0
H434 H 0.82823 0.71854 0.72392 0.0
C435 C 0.92383 0.76847 0.7878 0.0
C436 C 0.19002 0.87325 0.86656 0.0
C437 C 0.21817 0.91855 0.87802 0.0
H438 H 0.13949 0.80849 0.88916 0.0
C439 C 0.21465 0.93348 0.92181 0.0
H440 H 0.19213 0.86033 0.83351 0.0
C441 C 0.18481 0.90351 0.95386 0.0
C442 C 0.1575 0.85818 0.94259 0.0
H443 H 0.23508 0.96827 0.9315 0.0
H444 H 0.183 0.91575 0.98745 0.0
C445 C 0.15986 0.84343 0.89848 0.0
C446 C 0.32087 0.16532 0.0373 0.0
C447 C 0.34119 0.21093 0.04839 0.0
H448 H 0.30312 0.09963 0.05991 0.0
C449 C 0.35973 0.22537 0.09206 0.0
H450 H 0.30577 0.15336 0.00402 0.0
C451 C 0.35871 0.19486 0.12389 0.0
C452 C 0.33877 0.14916 0.11283 0.0
H453 H 0.37617 0.2605 0.10119 0.0
H454 H 0.37466 0.20746 0.15666 0.0
C455 C 0.31944 0.13466 0.06931 0.0
C456 C 0.06702 0.52314 0.03714 0.0
C457 C 0.06819 0.50222 0.07804 0.0
H458 H 0.06669 0.57931 0.00595 0.0
C459 C 0.06882 0.52265 0.11986 0.0
H460 H 0.06709 0.50858 0.00431 0.0
C461 C 0.06856 0.56314 0.12075 0.0
C462 C 0.0681 0.58443 0.07984 0.0
H463 H 0.06957 0.50733 0.15193 0.0
H464 H 0.06982 0.57835 0.15356 0.0
C465 C 0.06721 0.56387 0.03802 0.0
C466 C 0.56413 0.09841 0.24506 0.0
C467 C 0.52306 0.05787 0.24494 0.0
H468 H 0.63575 0.13036 0.24538 0.0
C469 C 0.5237 1.01736 0.24572 0.0
H470 H 0.56491 0.13023 0.24519 0.0
C471 C 0.56446 1.01744 0.24622 0.0
C472 C 0.60552 0.05804 0.24648 0.0
H473 H 0.49266 0.98556 0.24555 0.0
H474 H 0.56385 0.9857 0.24676 0.0
C475 C 0.6048 0.09849 0.24591 0.0
C476 C 0.56432 0.56368 0.45464 0.0
C477 C 0.58379 0.58375 0.41262 0.0
H478 H 0.50921 0.50886 0.48885 0.0
C479 C 0.56179 0.56206 0.37192 0.0
H480 H 0.58049 0.57943 0.48656 0.0
C481 C 0.52099 0.52168 0.37319 0.0
C482 C 0.50134 0.50176 0.41519 0.0
H483 H 0.57557 0.57687 0.33896 0.0
H484 H 0.50474 0.50607 0.34125 0.0
C485 C 0.5237 0.52304 0.45591 0.0
C486 C 1.03299 0.54382 0.53753 0.0
C487 C 1.03198 0.56485 0.57846 0.0
H488 H 1.0332 0.48758 0.50627 0.0
C489 C 1.03133 0.54444 0.62026 0.0
H490 H 1.03293 0.55837 0.50472 0.0
C491 C 1.03154 0.50392 0.62111 0.0
C492 C 1.03193 0.48259 0.58016 0.0
H493 H 1.03069 0.55985 0.65234 0.0
H494 H 1.03036 0.48875 0.65389 0.0
C495 C 1.03273 0.50307 0.53837 0.0
C496 C 0.53795 0.04895 0.74531 0.0
C497 C 0.49688 1.00837 0.74579 0.0
H498 H 0.60972 0.08083 0.74399 0.0
C499 C 0.4976 0.96791 0.74493 0.0
H500 H 0.5386 0.08071 0.74608 0.0
C501 C 0.53826 0.96798 0.74368 0.0
C502 C 0.57934 1.00851 0.74338 0.0
H503 H 0.46666 0.93604 0.74453 0.0
H504 H 0.53745 0.93615 0.7437 0.0
C505 C 0.57869 0.04902 0.74433 0.0
C506 C 0.56572 0.48317 0.90553 0.0
C507 C 0.52439 0.48219 0.90678 0.0
H508 H 0.63728 0.52334 0.9049 0.0
C509 C 0.52444 0.52304 0.90726 0.0
H510 H 0.56689 0.45234 0.90445 0.0
C511 C 0.56493 0.56389 0.90727 0.0
C512 C 0.60625 0.56479 0.90618 0.0
H513 H 0.49316 0.52341 0.90829 0.0
H514 H 0.56392 0.59481 0.908 0.0
C515 C 0.60609 0.52391 0.9051 0.0
C516 C 1.04186 0.29794 0.80632 0.0
C517 C 1.03206 0.32809 0.78397 0.0
H518 H 0.06657 0.28368 0.86801 0.0
C519 C 1.0401 0.36745 0.80623 0.0
H520 H 1.03548 0.26726 0.78959 0.0
C521 C 0.05781 0.3768 0.85009 0.0
C522 C 0.06733 0.34673 0.87282 0.0
H523 H 1.03294 0.39118 0.7894 0.0
H524 H 0.06385 0.4075 0.86654 0.0
C525 C 0.059 0.30701 0.85094 0.0
C526 C 0.77657 1.02522 0.97184 0.0
C527 C 0.73683 1.01668 0.94973 0.0
H528 H 0.81566 0.0481 0.03367 0.0
C529 C 0.70599 1.02498 0.9727 0.0
H530 H 0.80049 1.01856 0.95462 0.0
C531 C 0.71458 0.04171 0.01696 0.0
C532 C 0.75397 0.05002 0.03942 0.0
H533 H 0.67525 1.01876 0.95613 0.0
H534 H 0.69027 0.04799 0.03391 0.0
C535 C 0.7849 0.04143 0.01684 0.0
C536 C 0.78578 0.76037 0.13902 0.0
C537 C 0.75491 0.72067 0.11677 0.0
H538 H 0.80129 0.79946 0.20075 0.0
C539 C 0.71549 0.68993 0.13927 0.0
H540 H 0.81654 0.78422 0.12212 0.0
C541 C 0.70677 0.69864 0.18327 0.0
C542 C 0.73759 0.73799 0.20588 0.0
H543 H 0.69123 0.65923 0.12253 0.0
H544 H 0.67602 0.67443 0.19992 0.0
C545 C 0.77738 0.76878 0.18376 0.0
C546 C 1.04417 0.69049 0.35046 0.0
C547 C 1.03477 0.72067 0.37318 0.0
H548 H 0.069 0.67599 0.2898 0.0
C549 C 1.0433 0.76046 0.35139 0.0
H550 H 1.03796 0.65974 0.36686 0.0
C551 C 0.06051 0.76948 0.30684 0.0
C552 C 0.07019 0.73922 0.28447 0.0
H553 H 1.03583 0.78387 0.36847 0.0
H554 H 0.06701 0.8002 0.29016 0.0
C555 C 0.06197 0.69981 0.30666 0.0
C556 C 0.38797 1.02626 0.51868 0.0
C557 C 0.34831 1.01737 0.54089 0.0
H558 H 0.42751 0.04971 0.45809 0.0
C559 C 0.31716 1.02555 0.5182 0.0
H560 H 0.41242 1.02027 0.53573 0.0
C561 C 0.32553 0.04187 0.47328 0.0
C562 C 0.36551 0.05095 0.45138 0.0
H563 H 0.28619 1.01842 0.53486 0.0
H564 H 0.30141 0.04816 0.45594 0.0
C565 C 0.39659 0.0431 0.4745 0.0
C566 C 0.3115 0.34069 0.65679 0.0
C567 C 0.32678 0.3277 0.6184 0.0
H568 H 0.31069 0.34393 0.72992 0.0
C569 C 0.3481 0.30245 0.62426 0.0
H570 H 0.29456 0.35983 0.65272 0.0
C571 C 0.35768 0.29385 0.66814 0.0
C572 C 0.34532 0.30973 0.70651 0.0
H573 H 0.36017 0.29226 0.595 0.0
H574 H 0.37656 0.27663 0.6722 0.0
C575 C 0.32039 0.33139 0.70068 0.0
C576 C 0.2389 0.34903 0.91639 0.0
C577 C 0.25402 0.31859 0.92405 0.0
H578 H 0.19933 0.37677 0.94063 0.0
C579 C 0.2341 0.28696 0.95956 0.0
H580 H 0.25404 0.37418 0.88986 0.0
C581 C 0.20276 0.28876 0.9894 0.0
C582 C 0.19107 0.32219 0.98393 0.0
H583 H 0.24593 0.26382 0.96701 0.0
H584 H 0.19075 0.26667 0.01873 0.0
C585 C 0.20782 0.35073 0.94583 0.0
C586 C 0.98272 0.21492 0.12358 0.0
C587 C 0.97011 0.23367 0.08762 0.0
H588 H 0.96094 0.17276 0.18358 0.0
C589 C 0.92428 0.21705 0.07971 0.0
H590 H 1.01786 0.22787 0.13124 0.0
C591 C 0.89206 0.18582 0.10943 0.0
C592 C 0.9047 0.17046 0.14809 0.0
H593 H 0.91355 0.23134 0.05291 0.0
H594 H 0.85726 0.17638 0.10419 0.0
C595 C 0.95018 0.18356 0.15377 0.0
C596 C 0.80007 0.93137 0.32218 0.0
C597 C 0.76654 0.88625 0.31743 0.0
H598 H 0.82493 0.99901 0.29871 0.0
C599 C 0.73786 0.87388 0.2793 0.0
H600 H 0.82227 0.94194 0.35151 0.0
C601 C 0.73947 0.90615 0.2492 0.0
C602 C 0.76994 0.95178 0.2562 0.0
H603 H 0.71168 0.83937 0.27468 0.0
H604 H 0.71404 0.89575 0.22285 0.0
C605 C 0.80178 0.96397 0.29167 0.0
C606 C 0.86785 0.72072 0.41289 0.0
C607 C 0.85215 0.75087 0.41941 0.0
H608 H 0.90681 0.69319 0.43936 0.0
C609 C 0.8711 0.78267 0.455 0.0
H610 H 0.85355 0.69548 0.38629 0.0
C611 C 0.90156 0.78099 0.48622 0.0
C612 C 0.91352 0.74764 0.48196 0.0
H613 H 0.85903 0.80578 0.46149 0.0
H614 H 0.91259 0.80308 0.51562 0.0
C615 C 0.89811 0.71917 0.44366 0.0
C616 C 0.1526 0.88377 0.65421 0.0
C617 C 0.19794 0.89615 0.64907 0.0
H618 H 0.08494 0.8402 0.63106 0.0
C619 C 0.21056 0.88045 0.61065 0.0
H620 H 0.14188 0.89492 0.6838 0.0
C621 C 0.17835 0.8495 0.58066 0.0
C622 C 0.13257 0.83352 0.58808 0.0
H623 H 0.24526 0.88941 0.60577 0.0
H624 H 0.18898 0.8349 0.55407 0.0
C625 C 0.12007 0.85266 0.62378 0.0
C626 C 0.303 0.13568 0.82467 0.0
C627 C 0.33626 0.18077 0.81899 0.0
H628 H 0.2781 0.06768 0.80225 0.0
C629 C 0.36415 0.19254 0.78029 0.0
H630 H 0.28145 0.12555 0.85446 0.0
C631 C 0.36208 0.15984 0.75048 0.0
C632 C 0.33198 0.11432 0.75838 0.0
H633 H 0.3902 0.22695 0.77498 0.0
H634 H 0.38701 0.16986 0.72367 0.0
C635 C 0.30088 0.10262 0.79449 0.0
C636 C 0.8012 0.85487 0.86904 0.0
C637 C 0.76888 0.83533 0.90407 0.0
H638 H 0.82213 0.89691 0.80892 0.0
C639 C 0.73833 0.85059 0.91033 0.0
H640 H 0.82468 0.8432 0.8628 0.0
C641 C 0.73691 0.88098 0.87974 0.0
C642 C 0.7659 0.89695 0.84188 0.0
H643 H 0.71273 0.83586 0.93652 0.0
H644 H 0.71065 0.88935 0.88375 0.0
C645 C 0.79963 0.88545 0.83798 0.0
C646 C 0.89104 0.72297 0.04675 0.0
C647 C 0.90461 0.75144 0.00849 0.0
H648 H 0.91109 0.6987 0.10426 0.0
C649 C 0.95011 0.78422 0.00442 0.0
H650 H 0.85622 0.69734 0.05082 0.0
C651 C 0.98186 0.7854 0.03586 0.0
C652 C 0.96845 0.75356 0.07141 0.0
H653 H 0.96159 0.80624 0.97502 0.0
H654 H 1.01715 0.80811 0.02955 0.0
C655 C 0.92246 0.72396 0.0777 0.0
C656 C 0.20148 0.93219 0.16865 0.0
C657 C 0.18999 0.88702 0.17246 0.0
H658 H 0.24417 0.99949 0.19321 0.0
C659 C 0.20653 0.87414 0.21 0.0
H660 H 0.18964 0.94314 0.13982 0.0
C661 C 0.23721 0.90598 0.24044 0.0
C662 C 0.25226 0.9517 0.23436 0.0
H663 H 0.19829 0.8396 0.21392 0.0
H664 H 0.25231 0.89521 0.26635 0.0
C665 C 0.23244 0.96438 0.1995 0.0
C666 C 0.30189 0.21498 0.36546 0.0
C667 C 0.33301 0.23386 0.40162 0.0
H668 H 0.28201 0.17269 0.30546 0.0
C669 C 0.36252 0.21763 0.4097 0.0
H670 H 0.27944 0.22761 0.35772 0.0
C671 C 0.36394 0.18653 0.38005 0.0
C672 C 0.33607 0.17091 0.3413 0.0
H673 H 0.38728 0.23194 0.43675 0.0
H674 H 0.38941 0.17729 0.38552 0.0
C675 C 0.30348 0.18372 0.33534 0.0
C676 C 0.17939 0.34615 0.57589 0.0
C677 C 0.13362 0.31578 0.56945 0.0
H678 H 0.24574 0.37425 0.54927 0.0
C679 C 0.12092 0.28407 0.53376 0.0
H680 H 0.19022 0.37136 0.60251 0.0
C681 C 0.15315 0.28595 0.5025 0.0
C682 C 0.19837 0.3195 0.50671 0.0
H683 H 0.08578 0.26084 0.52729 0.0
H684 H 0.14219 0.26381 0.47314 0.0
C685 C 0.21122 0.348 0.545 0.0
C686 C 0.89618 0.19251 0.70923 0.0
C687 C 0.91256 0.17995 0.6713 0.0
H688 H 0.85034 0.17094 0.76552 0.0
C689 C 0.90088 0.13478 0.66676 0.0
H690 H 0.90451 0.22704 0.71367 0.0
C691 C 0.86987 0.10233 0.69727 0.0
C692 C 0.85019 0.11473 0.73253 0.0
H693 H 0.91256 0.12407 0.63759 0.0
H694 H 0.85793 0.06725 0.6904 0.0
C695 C 0.86541 0.1604 0.73934 0.0
loop_
_geom_bond_atom_site_label_1
_geom_bond_atom_site_label_2
_geom_bond_distance
_geom_bond_site_symmetry_2
_ccdc_geom_bond_type
C0 C1 1.351 . S
C0 N3 1.368 . S
C0 H5 0.931 . S
C1 C0 1.351 . S
C1 N2 1.373 . S
C1 H29 0.930 . S
N2 C1 1.373 . S
N2 C4 1.340 . S
N3 C0 1.368 . S
N3 C4 1.321 . S
N3 Co6 2.135 1_556 S
C4 N2 1.340 . S
C4 N3 1.321 . S
C4 H28 0.930 1_455 S
H5 C0 0.931 . S
Co6 N3 2.135 1_554 S
Co6 N9 2.121 . S
Co6 O14 2.055 . S
Co6 O17 2.039 . S
Co6 N20 2.140 . S
C7 O8 1.227 . S
C7 O17 1.265 1_655 S
O8 C7 1.227 . S
N9 Co6 2.121 . S
N9 C11 1.375 . S
N9 C12 1.313 . S
C10 C11 1.338 . S
C10 N13 1.377 . S
C10 H30 0.930 . S
C11 N9 1.375 . S
C11 C10 1.338 . S
C11 H15 0.931 . S
C12 N9 1.313 . S
C12 N13 1.344 . S
C12 H16 0.930 . S
N13 C10 1.377 . S
N13 C12 1.344 . S
O14 Co6 2.055 . S
O14 C18 1.253 . S
H15 C11 0.931 . S
H16 C12 0.930 . S
O17 Co6 2.039 . S
O17 C7 1.265 1_455 S
C18 O14 1.253 . S
C18 O19 1.227 . S
O19 C18 1.227 . S
N20 Co6 2.140 . S
N20 C23 1.346 . S
N20 C24 1.345 . S
C21 C22 1.387 . S
C21 C25 1.391 . S
C22 C21 1.387 . S
C22 C23 1.369 . S
C22 H31 0.929 . S
C23 N20 1.346 . S
C23 C22 1.369 . S
C23 H26 0.928 . S
C24 N20 1.345 . S
C24 C25 1.371 . S
C24 H27 0.931 . S
C25 C21 1.391 . S
C25 C24 1.371 . S
C25 H32 0.930 . S
H26 C23 0.928 . S
H27 C24 0.931 . S
H28 C4 0.930 1_655 S
H29 C1 0.930 . S
H30 C10 0.930 . S
H31 C22 0.929 . S
H32 C25 0.930 . S
C33 C34 1.351 . S
C33 N36 1.368 . S
C33 H38 0.931 . S
C34 C33 1.351 . S
C34 N35 1.373 . S
C34 H62 0.930 . S
N35 C34 1.373 . S
N35 C37 1.340 . S
N36 C33 1.368 . S
N36 C37 1.321 . S
N36 Co39 2.135 . S
C37 N35 1.340 . S
C37 N36 1.321 . S
C37 H61 0.930 1_545 S
H38 C33 0.931 . S
Co39 N36 2.135 . S
Co39 N42 2.121 . S
Co39 O47 2.055 . S
Co39 O50 2.039 . S
Co39 N53 2.140 . S
C40 O41 1.227 . S
C40 O50 1.265 1_565 S
O41 C40 1.227 . S
N42 Co39 2.121 . S
N42 C44 1.375 . S
N42 C45 1.313 . S
C43 C44 1.338 . S
C43 N46 1.377 . S
C43 H63 0.930 . S
C44 N42 1.375 . S
C44 C43 1.338 . S
C44 H48 0.931 . S
C45 N42 1.313 . S
C45 N46 1.344 . S
C45 H49 0.930 . S
N46 C43 1.377 . S
N46 C45 1.344 . S
O47 Co39 2.055 . S
O47 C51 1.253 . S
H48 C44 0.931 . S
H49 C45 0.930 . S
O50 Co39 2.039 . S
O50 C40 1.265 1_545 S
C51 O47 1.253 . S
C51 O52 1.227 . S
O52 C51 1.227 . S
N53 Co39 2.140 . S
N53 C56 1.346 . S
N53 C57 1.345 . S
C54 C55 1.387 . S
C54 C58 1.391 . S
C55 C54 1.387 . S
C55 C56 1.369 . S
C55 H64 0.929 . S
C56 N53 1.346 . S
C56 C55 1.369 . S
C56 H59 0.928 . S
C57 N53 1.345 . S
C57 C58 1.371 . S
C57 H60 0.931 . S
C58 C54 1.391 . S
C58 C57 1.371 . S
C58 H65 0.930 . S
H59 C56 0.928 . S
H60 C57 0.931 . S
H61 C37 0.930 1_565 S
H62 C34 0.930 . S
H63 C43 0.930 . S
H64 C55 0.929 . S
H65 C58 0.930 . S
C66 C67 1.351 . S
C66 N69 1.368 . S
C66 H71 0.931 . S
C67 C66 1.351 . S
C67 N68 1.373 . S
C67 H95 0.930 . S
N68 C67 1.373 . S
N68 C70 1.340 . S
N69 C66 1.368 . S
N69 C70 1.321 . S
N69 Co72 2.135 . S
C70 N68 1.340 . S
C70 N69 1.321 . S
C70 H94 0.930 . S
H71 C66 0.931 . S
Co72 N69 2.135 . S
Co72 N75 2.121 . S
Co72 O80 2.055 . S
Co72 O83 2.039 . S
Co72 N86 2.140 . S
C73 O74 1.227 . S
C73 O83 1.265 . S
O74 C73 1.227 . S
N75 Co72 2.121 . S
N75 C77 1.375 . S
N75 C78 1.313 . S
C76 C77 1.338 . S
C76 N79 1.377 . S
C76 H96 0.930 . S
C77 N75 1.375 . S
C77 C76 1.338 . S
C77 H81 0.931 . S
C78 N75 1.313 . S
C78 N79 1.344 . S
C78 H82 0.930 . S
N79 C76 1.377 . S
N79 C78 1.344 . S
O80 Co72 2.055 . S
O80 C84 1.253 . S
H81 C77 0.931 . S
H82 C78 0.930 . S
O83 Co72 2.039 . S
O83 C73 1.265 . S
C84 O80 1.253 . S
C84 O85 1.227 . S
O85 C84 1.227 . S
N86 Co72 2.140 . S
N86 C89 1.346 . S
N86 C90 1.345 . S
C87 C88 1.387 . S
C87 C91 1.391 . S
C88 C87 1.387 . S
C88 C89 1.369 . S
C88 H97 0.929 . S
C89 N86 1.346 . S
C89 C88 1.369 . S
C89 H92 0.928 . S
C90 N86 1.345 . S
C90 C91 1.371 . S
C90 H93 0.931 . S
C91 C87 1.391 . S
C91 C90 1.371 . S
C91 H98 0.930 . S
H92 C89 0.928 . S
H93 C90 0.931 . S
H94 C70 0.930 . S
H95 C67 0.930 . S
H96 C76 0.930 . S
H97 C88 0.929 . S
H98 C91 0.930 . S
C99 C100 1.351 . S
C99 N102 1.368 . S
C99 H104 0.931 . S
C100 C99 1.351 . S
C100 N101 1.373 . S
C100 H128 0.930 . S
N101 C100 1.373 . S
N101 C103 1.340 . S
N102 C99 1.368 . S
N102 C103 1.321 . S
N102 Co105 2.135 . S
C103 N101 1.340 . S
C103 N102 1.321 . S
C103 H127 0.930 1_655 S
H104 C99 0.931 . S
Co105 N102 2.135 . S
Co105 N108 2.121 . S
Co105 O113 2.055 . S
Co105 O116 2.039 . S
Co105 N119 2.140 . S
C106 O107 1.227 . S
C106 O116 1.265 1_455 S
O107 C106 1.227 . S
N108 Co105 2.121 . S
N108 C110 1.375 . S
N108 C111 1.313 . S
C109 C110 1.338 . S
C109 N112 1.377 . S
C109 H129 0.930 . S
C110 N108 1.375 . S
C110 C109 1.338 . S
C110 H114 0.931 . S
C111 N108 1.313 . S
C111 N112 1.344 . S
C111 H115 0.930 . S
N112 C109 1.377 . S
N112 C111 1.344 . S
O113 Co105 2.055 . S
O113 C117 1.253 . S
H114 C110 0.931 . S
H115 C111 0.930 . S
O116 Co105 2.039 . S
O116 C106 1.265 1_655 S
C117 O113 1.253 . S
C117 O118 1.227 . S
O118 C117 1.227 . S
N119 Co105 2.140 . S
N119 C122 1.346 . S
N119 C123 1.345 . S
C120 C121 1.387 . S
C120 C124 1.391 . S
C121 C120 1.387 . S
C121 C122 1.369 . S
C121 H130 0.929 . S
C122 N119 1.346 . S
C122 C121 1.369 . S
C122 H125 0.928 . S
C123 N119 1.345 . S
C123 C124 1.371 . S
C123 H126 0.931 . S
C124 C120 1.391 . S
C124 C123 1.371 . S
C124 H131 0.930 . S
H125 C122 0.928 . S
H126 C123 0.931 . S
H127 C103 0.930 1_455 S
H128 C100 0.930 . S
H129 C109 0.930 . S
H130 C121 0.929 . S
H131 C124 0.930 . S
C132 C133 1.351 . S
C132 N135 1.368 . S
C132 H137 0.931 . S
C133 C132 1.351 . S
C133 N134 1.373 . S
C133 H161 0.930 . S
N134 C133 1.373 . S
N134 C136 1.340 . S
N135 C132 1.368 . S
N135 C136 1.321 . S
N135 Co138 2.135 . S
C136 N134 1.340 . S
C136 N135 1.321 . S
C136 H160 0.930 1_565 S
H137 C132 0.931 . S
Co138 N135 2.135 . S
Co138 N141 2.121 . S
Co138 O146 2.055 . S
Co138 O149 2.039 . S
Co138 N152 2.140 . S
C139 O140 1.227 . S
C139 O149 1.265 1_545 S
O140 C139 1.227 . S
N141 Co138 2.121 . S
N141 C143 1.375 . S
N141 C144 1.313 . S
C142 C143 1.338 . S
C142 N145 1.377 . S
C142 H162 0.930 . S
C143 N141 1.375 . S
C143 C142 1.338 . S
C143 H147 0.931 . S
C144 N141 1.313 . S
C144 N145 1.344 . S
C144 H148 0.930 . S
N145 C142 1.377 . S
N145 C144 1.344 . S
O146 Co138 2.055 . S
O146 C150 1.253 . S
H147 C143 0.931 . S
H148 C144 0.930 . S
O149 Co138 2.039 . S
O149 C139 1.265 1_565 S
C150 O146 1.253 . S
C150 O151 1.227 . S
O151 C150 1.227 . S
N152 Co138 2.140 . S
N152 C155 1.346 . S
N152 C156 1.345 . S
C153 C154 1.387 . S
C153 C157 1.391 . S
C154 C153 1.387 . S
C154 C155 1.369 . S
C154 H163 0.929 . S
C155 N152 1.346 . S
C155 C154 1.369 . S
C155 H158 0.928 . S
C156 N152 1.345 . S
C156 C157 1.371 . S
C156 H159 0.931 . S
C157 C153 1.391 . S
C157 C156 1.371 . S
C157 H164 0.930 . S
H158 C155 0.928 . S
H159 C156 0.931 . S
H160 C136 0.930 1_545 S
H161 C133 0.930 . S
H162 C142 0.930 . S
H163 C154 0.929 . S
H164 C157 0.930 . S
C165 C166 1.351 . S
C165 N168 1.368 . S
C165 H170 0.931 . S
C166 C165 1.351 . S
C166 N167 1.373 . S
C166 H194 0.930 . S
N167 C166 1.373 . S
N167 C169 1.340 . S
N168 C165 1.368 . S
N168 C169 1.321 . S
N168 Co171 2.135 . S
C169 N167 1.340 . S
C169 N168 1.321 . S
C169 H193 0.930 . S
H170 C165 0.931 . S
Co171 N168 2.135 . S
Co171 N174 2.121 . S
Co171 O179 2.055 . S
Co171 O182 2.039 . S
Co171 N185 2.140 . S
C172 O173 1.227 . S
C172 O182 1.265 . S
O173 C172 1.227 . S
N174 Co171 2.121 . S
N174 C176 1.375 . S
N174 C177 1.313 . S
C175 C176 1.338 1_554 S
C175 N178 1.377 . S
C175 H195 0.930 . S
C176 N174 1.375 . S
C176 C175 1.338 1_556 S
C176 H180 0.931 . S
C177 N174 1.313 . S
C177 N178 1.344 1_556 S
C177 H181 0.930 . S
N178 C175 1.377 . S
N178 C177 1.344 1_554 S
O179 Co171 2.055 . S
O179 C183 1.253 . S
H180 C176 0.931 . S
H181 C177 0.930 . S
O182 Co171 2.039 . S
O182 C172 1.265 . S
C183 O179 1.253 . S
C183 O184 1.227 . S
O184 C183 1.227 . S
N185 Co171 2.140 . S
N185 C188 1.346 . S
N185 C189 1.345 . S
C186 C187 1.387 . S
C186 C190 1.391 . S
C187 C186 1.387 . S
C187 C188 1.369 . S
C187 H196 0.929 . S
C188 N185 1.346 . S
C188 C187 1.369 . S
C188 H191 0.928 . S
C189 N185 1.345 . S
C189 C190 1.371 . S
C189 H192 0.931 . S
C190 C186 1.391 . S
C190 C189 1.371 . S
C190 H197 0.930 . S
H191 C188 0.928 . S
H192 C189 0.931 . S
H193 C169 0.930 . S
H194 C166 0.930 . S
H195 C175 0.930 . S
H196 C187 0.929 . S
H197 C190 0.930 . S
C198 C199 1.351 . S
C198 N201 1.368 . S
C198 H203 0.931 . S
C199 C198 1.351 . S
C199 N200 1.373 . S
C199 H227 0.930 . S
N200 C199 1.373 . S
N200 C202 1.340 . S
N201 C198 1.368 . S
N201 C202 1.321 . S
N201 Co204 2.135 . S
C202 N200 1.340 . S
C202 N201 1.321 . S
C202 H226 0.930 1_565 S
H203 C198 0.931 . S
Co204 N201 2.135 . S
Co204 N207 2.121 . S
Co204 O212 2.055 . S
Co204 O215 2.039 . S
Co204 N218 2.140 . S
C205 O206 1.227 . S
C205 O215 1.265 1_545 S
O206 C205 1.227 . S
N207 Co204 2.121 . S
N207 C209 1.375 . S
N207 C210 1.313 . S
C208 C209 1.338 . S
C208 N211 1.377 . S
C208 H228 0.930 . S
C209 N207 1.375 . S
C209 C208 1.338 . S
C209 H213 0.931 . S
C210 N207 1.313 . S
C210 N211 1.344 . S
C210 H214 0.930 . S
N211 C208 1.377 . S
N211 C210 1.344 . S
O212 Co204 2.055 . S
O212 C216 1.253 . S
H213 C209 0.931 . S
H214 C210 0.930 . S
O215 Co204 2.039 . S
O215 C205 1.265 1_565 S
C216 O212 1.253 . S
C216 O217 1.227 . S
O217 C216 1.227 . S
N218 Co204 2.140 . S
N218 C221 1.346 . S
N218 C222 1.345 . S
C219 C220 1.387 . S
C219 C223 1.391 . S
C220 C219 1.387 . S
C220 C221 1.369 . S
C220 H229 0.929 . S
C221 N218 1.346 . S
C221 C220 1.369 . S
C221 H224 0.928 . S
C222 N218 1.345 . S
C222 C223 1.371 . S
C222 H225 0.931 . S
C223 C219 1.391 . S
C223 C222 1.371 . S
C223 H230 0.930 . S
H224 C221 0.928 . S
H225 C222 0.931 . S
H226 C202 0.930 1_545 S
H227 C199 0.930 . S
H228 C208 0.930 . S
H229 C220 0.929 . S
H230 C223 0.930 . S
C231 C232 1.351 . S
C231 N234 1.368 . S
C231 H236 0.931 . S
C232 C231 1.351 . S
C232 N233 1.373 . S
C232 H260 0.930 . S
N233 C232 1.373 . S
N233 C235 1.340 . S
N234 C231 1.368 . S
N234 C235 1.321 . S
N234 Co237 2.135 1_554 S
C235 N233 1.340 . S
C235 N234 1.321 . S
C235 H259 0.930 . S
H236 C231 0.931 . S
Co237 N234 2.135 1_556 S
Co237 N240 2.121 . S
Co237 O245 2.055 . S
Co237 O248 2.039 . S
Co237 N251 2.140 . S
C238 O239 1.227 . S
C238 O248 1.265 . S
O239 C238 1.227 . S
N240 Co237 2.121 . S
N240 C242 1.375 . S
N240 C243 1.313 . S
C241 C242 1.338 . S
C241 N244 1.377 . S
C241 H261 0.930 . S
C242 N240 1.375 . S
C242 C241 1.338 . S
C242 H246 0.931 . S
C243 N240 1.313 . S
C243 N244 1.344 . S
C243 H247 0.930 . S
N244 C241 1.377 . S
N244 C243 1.344 . S
O245 Co237 2.055 . S
O245 C249 1.253 . S
H246 C242 0.931 . S
H247 C243 0.930 . S
O248 Co237 2.039 . S
O248 C238 1.265 . S
C249 O245 1.253 . S
C249 O250 1.227 . S
O250 C249 1.227 . S
N251 Co237 2.140 . S
N251 C254 1.346 . S
N251 C255 1.345 . S
C252 C253 1.387 . S
C252 C256 1.391 . S
C253 C252 1.387 . S
C253 C254 1.369 . S
C253 H262 0.929 . S
C254 N251 1.346 . S
C254 C253 1.369 . S
C254 H257 0.928 . S
C255 N251 1.345 . S
C255 C256 1.371 . S
C255 H258 0.931 . S
C256 C252 1.391 . S
C256 C255 1.371 . S
C256 H263 0.930 . S
H257 C254 0.928 . S
H258 C255 0.931 . S
H259 C235 0.930 . S
H260 C232 0.930 . S
H261 C241 0.930 . S
H262 C253 0.929 . S
H263 C256 0.930 . S
C264 C265 1.351 . S
C264 N267 1.368 . S
C264 H269 0.931 . S
C265 C264 1.351 . S
C265 N266 1.373 . S
C265 H293 0.930 . S
N266 C265 1.373 . S
N266 C268 1.340 . S
N267 C264 1.368 . S
N267 C268 1.321 . S
N267 Co270 2.135 . S
C268 N266 1.340 . S
C268 N267 1.321 . S
C268 H292 0.930 1_455 S
H269 C264 0.931 . S
Co270 N267 2.135 . S
Co270 N273 2.121 . S
Co270 O278 2.055 . S
Co270 O281 2.039 . S
Co270 N284 2.140 . S
C271 O272 1.227 . S
C271 O281 1.265 1_655 S
O272 C271 1.227 . S
N273 Co270 2.121 . S
N273 C275 1.375 . S
N273 C276 1.313 . S
C274 C275 1.338 1_556 S
C274 N277 1.377 . S
C274 H294 0.930 . S
C275 N273 1.375 . S
C275 C274 1.338 1_554 S
C275 H279 0.931 . S
C276 N273 1.313 . S
C276 N277 1.344 1_554 S
C276 H280 0.930 . S
N277 C274 1.377 . S
N277 C276 1.344 1_556 S
O278 Co270 2.055 . S
O278 C282 1.253 . S
H279 C275 0.931 . S
H280 C276 0.930 . S
O281 Co270 2.039 . S
O281 C271 1.265 1_455 S
C282 O278 1.253 . S
C282 O283 1.227 . S
O283 C282 1.227 . S
N284 Co270 2.140 . S
N284 C287 1.346 . S
N284 C288 1.345 . S
C285 C286 1.387 . S
C285 C289 1.391 . S
C286 C285 1.387 . S
C286 C287 1.369 . S
C286 H295 0.929 . S
C287 N284 1.346 . S
C287 C286 1.369 . S
C287 H290 0.928 . S
C288 N284 1.345 . S
C288 C289 1.371 . S
C288 H291 0.931 . S
C289 C285 1.391 . S
C289 C288 1.371 . S
C289 H296 0.930 . S
H290 C287 0.928 . S
H291 C288 0.931 . S
H292 C268 0.930 1_655 S
H293 C265 0.930 . S
H294 C274 0.930 . S
H295 C286 0.929 . S
H296 C289 0.930 . S
C297 C298 1.351 . S
C297 N300 1.368 . S
C297 H302 0.931 . S
C298 C297 1.351 . S
C298 N299 1.373 . S
C298 H326 0.930 . S
N299 C298 1.373 . S
N299 C301 1.340 . S
N300 C297 1.368 . S
N300 C301 1.321 . S
N300 Co303 2.135 . S
C301 N299 1.340 . S
C301 N300 1.321 . S
C301 H325 0.930 1_545 S
H302 C297 0.931 . S
Co303 N300 2.135 . S
Co303 N306 2.121 . S
Co303 O311 2.055 . S
Co303 O314 2.039 . S
Co303 N317 2.140 . S
C304 O305 1.227 . S
C304 O314 1.265 1_565 S
O305 C304 1.227 . S
N306 Co303 2.121 . S
N306 C308 1.375 . S
N306 C309 1.313 . S
C307 C308 1.338 . S
C307 N310 1.377 . S
C307 H327 0.930 . S
C308 N306 1.375 . S
C308 C307 1.338 . S
C308 H312 0.931 . S
C309 N306 1.313 . S
C309 N310 1.344 . S
C309 H313 0.930 . S
N310 C307 1.377 . S
N310 C309 1.344 . S
O311 Co303 2.055 . S
O311 C315 1.253 . S
H312 C308 0.931 . S
H313 C309 0.930 . S
O314 Co303 2.039 . S
O314 C304 1.265 1_545 S
C315 O311 1.253 . S
C315 O316 1.227 . S
O316 C315 1.227 . S
N317 Co303 2.140 . S
N317 C320 1.346 . S
N317 C321 1.345 . S
C318 C319 1.387 . S
C318 C322 1.391 . S
C319 C318 1.387 . S
C319 C320 1.369 . S
C319 H328 0.929 . S
C320 N317 1.346 . S
C320 C319 1.369 . S
C320 H323 0.928 . S
C321 N317 1.345 . S
C321 C322 1.371 . S
C321 H324 0.931 . S
C322 C318 1.391 . S
C322 C321 1.371 . S
C322 H329 0.930 . S
H323 C320 0.928 . S
H324 C321 0.931 . S
H325 C301 0.930 1_565 S
H326 C298 0.930 . S
H327 C307 0.930 . S
H328 C319 0.929 . S
H329 C322 0.930 . S
C330 C331 1.351 . S
C330 N333 1.368 . S
C330 H335 0.931 . S
C331 C330 1.351 . S
C331 N332 1.373 . S
C331 H359 0.930 . S
N332 C331 1.373 . S
N332 C334 1.340 . S
N333 C330 1.368 . S
N333 C334 1.321 . S
N333 Co336 2.135 . S
C334 N332 1.340 . S
C334 N333 1.321 . S
C334 H358 0.930 . S
H335 C330 0.931 . S
Co336 N333 2.135 . S
Co336 N339 2.121 . S
Co336 O344 2.055 . S
Co336 O347 2.039 . S
Co336 N350 2.140 . S
C337 O338 1.227 . S
C337 O347 1.265 . S
O338 C337 1.227 . S
N339 Co336 2.121 . S
N339 C341 1.375 . S
N339 C342 1.313 . S
C340 C341 1.338 . S
C340 N343 1.377 . S
C340 H360 0.930 . S
C341 N339 1.375 . S
C341 C340 1.338 . S
C341 H345 0.931 . S
C342 N339 1.313 . S
C342 N343 1.344 . S
C342 H346 0.930 . S
N343 C340 1.377 . S
N343 C342 1.344 . S
O344 Co336 2.055 . S
O344 C348 1.253 . S
H345 C341 0.931 . S
H346 C342 0.930 . S
O347 Co336 2.039 . S
O347 C337 1.265 . S
C348 O344 1.253 . S
C348 O349 1.227 . S
O349 C348 1.227 . S
N350 Co336 2.140 . S
N350 C353 1.346 . S
N350 C354 1.345 . S
C351 C352 1.387 . S
C351 C355 1.391 . S
C352 C351 1.387 . S
C352 C353 1.369 . S
C352 H361 0.929 . S
C353 N350 1.346 . S
C353 C352 1.369 . S
C353 H356 0.928 . S
C354 N350 1.345 . S
C354 C355 1.371 . S
C354 H357 0.931 . S
C355 C351 1.391 . S
C355 C354 1.371 . S
C355 H362 0.930 . S
H356 C353 0.928 . S
H357 C354 0.931 . S
H358 C334 0.930 . S
H359 C331 0.930 . S
H360 C340 0.930 . S
H361 C352 0.929 . S
H362 C355 0.930 . S
C363 C364 1.351 . S
C363 N366 1.368 . S
C363 H368 0.931 . S
C364 C363 1.351 . S
C364 N365 1.373 . S
C364 H392 0.930 . S
N365 C364 1.373 . S
N365 C367 1.340 . S
N366 C363 1.368 . S
N366 C367 1.321 . S
N366 Co369 2.135 . S
C367 N365 1.340 . S
C367 N366 1.321 . S
C367 H391 0.930 1_655 S
H368 C363 0.931 . S
Co369 N366 2.135 . S
Co369 N372 2.121 . S
Co369 O377 2.055 . S
Co369 O380 2.039 . S
Co369 N383 2.140 . S
C370 O371 1.227 . S
C370 O380 1.265 1_455 S
O371 C370 1.227 . S
N372 Co369 2.121 . S
N372 C374 1.375 . S
N372 C375 1.313 . S
C373 C374 1.338 . S
C373 N376 1.377 . S
C373 H393 0.930 . S
C374 N372 1.375 . S
C374 C373 1.338 . S
C374 H378 0.931 . S
C375 N372 1.313 . S
C375 N376 1.344 . S
C375 H379 0.930 . S
N376 C373 1.377 . S
N376 C375 1.344 . S
O377 Co369 2.055 . S
O377 C381 1.253 . S
H378 C374 0.931 . S
H379 C375 0.930 . S
O380 Co369 2.039 . S
O380 C370 1.265 1_655 S
C381 O377 1.253 . S
C381 O382 1.227 . S
O382 C381 1.227 . S
N383 Co369 2.140 . S
N383 C386 1.346 . S
N383 C387 1.345 . S
C384 C385 1.387 . S
C384 C388 1.391 . S
C385 C384 1.387 . S
C385 C386 1.369 . S
C385 H394 0.929 . S
C386 N383 1.346 . S
C386 C385 1.369 . S
C386 H389 0.928 . S
C387 N383 1.345 . S
C387 C388 1.371 . S
C387 H390 0.931 . S
C388 C384 1.391 . S
C388 C387 1.371 . S
C388 H395 0.930 . S
H389 C386 0.928 . S
H390 C387 0.931 . S
H391 C367 0.930 1_455 S
H392 C364 0.930 . S
H393 C373 0.930 . S
H394 C385 0.929 . S
H395 C388 0.930 . S
C396 C397 1.387 . S
C396 H400 0.950 . S
C396 C405 1.390 . S
C397 C396 1.387 . S
C397 C399 1.387 . S
H398 C405 0.950 . S
C399 C397 1.387 . S
C399 C401 1.390 . S
C399 H403 0.950 . S
H400 C396 0.950 . S
C401 C399 1.390 . S
C401 C402 1.387 . S
C401 H404 0.950 . S
C402 C401 1.387 . S
C402 C405 1.387 . S
H403 C399 0.950 . S
H404 C401 0.950 . S
C405 C396 1.390 . S
C405 H398 0.950 . S
C405 C402 1.387 . S
C406 C407 1.387 . S
C406 H410 0.950 . S
C406 C415 1.390 . S
C407 C406 1.387 . S
C407 C409 1.387 . S
H408 C415 0.950 . S
C409 C407 1.387 . S
C409 C411 1.390 . S
C409 H413 0.950 . S
H410 C406 0.950 . S
C411 C409 1.390 . S
C411 C412 1.387 . S
C411 H414 0.950 . S
C412 C411 1.387 . S
C412 C415 1.387 . S
H413 C409 0.950 . S
H414 C411 0.950 . S
C415 C406 1.390 . S
C415 H408 0.950 . S
C415 C412 1.387 . S
C416 C417 1.387 . S
C416 H420 0.950 . S
C416 C425 1.390 . S
C417 C416 1.387 . S
C417 C419 1.387 . S
H418 C425 0.950 . S
C419 C417 1.387 . S
C419 C421 1.390 . S
C419 H423 0.950 . S
H420 C416 0.950 . S
C421 C419 1.390 . S
C421 C422 1.387 . S
C421 H424 0.950 . S
C422 C421 1.387 . S
C422 C425 1.387 . S
H423 C419 0.950 . S
H424 C421 0.950 . S
C425 C416 1.390 . S
C425 H418 0.950 . S
C425 C422 1.387 . S
C426 C427 1.387 . S
C426 H430 0.950 . S
C426 C435 1.390 . S
C427 C426 1.387 . S
C427 C429 1.387 . S
H428 C435 0.950 . S
C429 C427 1.387 . S
C429 C431 1.390 . S
C429 H433 0.950 . S
H430 C426 0.950 . S
C431 C429 1.390 . S
C431 C432 1.387 . S
C431 H434 0.950 . S
C432 C431 1.387 . S
C432 C435 1.387 . S
H433 C429 0.950 . S
H434 C431 0.950 . S
C435 C426 1.390 . S
C435 H428 0.950 . S
C435 C432 1.387 . S
C436 C437 1.387 . S
C436 H440 0.950 . S
C436 C445 1.390 . S
C437 C436 1.387 . S
C437 C439 1.387 . S
H438 C445 0.950 . S
C439 C437 1.387 . S
C439 C441 1.390 . S
C439 H443 0.950 . S
H440 C436 0.950 . S
C441 C439 1.390 . S
C441 C442 1.387 . S
C441 H444 0.950 . S
C442 C441 1.387 . S
C442 C445 1.387 . S
H443 C439 0.950 . S
H444 C441 0.950 . S
C445 C436 1.390 . S
C445 H438 0.950 . S
C445 C442 1.387 . S
C446 C447 1.387 . S
C446 H450 0.950 . S
C446 C455 1.390 . S
C447 C446 1.387 . S
C447 C449 1.387 . S
H448 C455 0.950 . S
C449 C447 1.387 . S
C449 C451 1.390 . S
C449 H453 0.950 . S
H450 C446 0.950 . S
C451 C449 1.390 . S
C451 C452 1.387 . S
C451 H454 0.950 . S
C452 C451 1.387 . S
C452 C455 1.387 . S
H453 C449 0.950 . S
H454 C451 0.950 . S
C455 C446 1.390 . S
C455 H448 0.950 . S
C455 C452 1.387 . S
C456 C457 1.387 . S
C456 H460 0.950 . S
C456 C465 1.390 . S
C457 C456 1.387 . S
C457 C459 1.387 . S
H458 C465 0.950 . S
C459 C457 1.387 . S
C459 C461 1.390 . S
C459 H463 0.950 . S
H460 C456 0.950 . S
C461 C459 1.390 . S
C461 C462 1.387 . S
C461 H464 0.950 . S
C462 C461 1.387 . S
C462 C465 1.387 . S
H463 C459 0.950 . S
H464 C461 0.950 . S
C465 C456 1.390 . S
C465 H458 0.950 . S
C465 C462 1.387 . S
C466 C467 1.387 . S
C466 H470 0.950 . S
C466 C475 1.390 . S
C467 C466 1.387 . S
C467 C469 1.387 . S
H468 C475 0.950 . S
C469 C467 1.387 . S
C469 C471 1.390 . S
C469 H473 0.950 . S
H470 C466 0.950 . S
C471 C469 1.390 . S
C471 C472 1.387 . S
C471 H474 0.950 . S
C472 C471 1.387 . S
C472 C475 1.387 . S
H473 C469 0.950 . S
H474 C471 0.950 . S
C475 C466 1.390 . S
C475 H468 0.950 . S
C475 C472 1.387 . S
C476 C477 1.387 . S
C476 H480 0.950 . S
C476 C485 1.390 . S
C477 C476 1.387 . S
C477 C479 1.387 . S
H478 C485 0.950 . S
C479 C477 1.387 . S
C479 C481 1.390 . S
C479 H483 0.950 . S
H480 C476 0.950 . S
C481 C479 1.390 . S
C481 C482 1.387 . S
C481 H484 0.950 . S
C482 C481 1.387 . S
C482 C485 1.387 . S
H483 C479 0.950 . S
H484 C481 0.950 . S
C485 C476 1.390 . S
C485 H478 0.950 . S
C485 C482 1.387 . S
C486 C487 1.387 . S
C486 H490 0.950 . S
C486 C495 1.390 . S
C487 C486 1.387 . S
C487 C489 1.387 . S
H488 C495 0.950 . S
C489 C487 1.387 . S
C489 C491 1.390 . S
C489 H493 0.950 . S
H490 C486 0.950 . S
C491 C489 1.390 . S
C491 C492 1.387 . S
C491 H494 0.950 . S
C492 C491 1.387 . S
C492 C495 1.387 . S
H493 C489 0.950 . S
H494 C491 0.950 . S
C495 C486 1.390 . S
C495 H488 0.950 . S
C495 C492 1.387 . S
C496 C497 1.387 . S
C496 H500 0.950 . S
C496 C505 1.390 . S
C497 C496 1.387 . S
C497 C499 1.387 . S
H498 C505 0.950 . S
C499 C497 1.387 . S
C499 C501 1.390 . S
C499 H503 0.950 . S
H500 C496 0.950 . S
C501 C499 1.390 . S
C501 C502 1.387 . S
C501 H504 0.950 . S
C502 C501 1.387 . S
C502 C505 1.387 . S
H503 C499 0.950 . S
H504 C501 0.950 . S
C505 C496 1.390 . S
C505 H498 0.950 . S
C505 C502 1.387 . S
C506 C507 1.387 . S
C506 H510 0.950 . S
C506 C515 1.390 . S
C507 C506 1.387 . S
C507 C509 1.387 . S
H508 C515 0.950 . S
C509 C507 1.387 . S
C509 C511 1.390 . S
C509 H513 0.950 . S
H510 C506 0.950 . S
C511 C509 1.390 . S
C511 C512 1.387 . S
C511 H514 0.950 . S
C512 C511 1.387 . S
C512 C515 1.387 . S
H513 C509 0.950 . S
H514 C511 0.950 . S
C515 C506 1.390 . S
C515 H508 0.950 . S
C515 C512 1.387 . S
C516 C517 1.387 . S
C516 H520 0.950 . S
C516 C525 1.390 . S
C517 C516 1.387 . S
C517 C519 1.388 1_655 S
H518 C525 0.950 . S
C519 C517 1.388 1_455 S
C519 C521 1.390 . S
C519 H523 0.950 . S
H520 C516 0.950 . S
C521 C519 1.390 . S
C521 C522 1.387 . S
C521 H524 0.950 . S
C522 C521 1.387 . S
C522 C525 1.388 1_455 S
H523 C519 0.950 . S
H524 C521 0.950 . S
C525 C516 1.390 . S
C525 H518 0.950 . S
C525 C522 1.388 1_655 S
C526 C527 1.386 1_545 S
C526 H530 0.951 1_545 S
C526 C535 1.390 1_556 S
C527 C526 1.386 1_565 S
C527 C529 1.390 . S
H528 C535 0.954 . S
C529 C527 1.390 . S
C529 C531 1.390 1_556 S
C529 H533 0.954 . S
H530 C526 0.951 1_565 S
C531 C529 1.390 1_554 S
C531 C532 1.386 1_565 S
C531 H534 0.951 1_565 S
C532 C531 1.386 1_545 S
C532 C535 1.390 . S
H533 C529 0.954 . S
H534 C531 0.951 1_545 S
C535 C526 1.390 1_554 S
C535 H528 0.954 . S
C535 C532 1.390 . S
C536 C537 1.387 . S
C536 H540 0.950 . S
C536 C545 1.390 . S
C537 C536 1.387 . S
C537 C539 1.387 . S
H538 C545 0.950 . S
C539 C537 1.387 . S
C539 C541 1.390 . S
C539 H543 0.950 . S
H540 C536 0.950 . S
C541 C539 1.390 . S
C541 C542 1.387 . S
C541 H544 0.950 . S
C542 C541 1.387 . S
C542 C545 1.387 . S
H543 C539 0.950 . S
H544 C541 0.950 . S
C545 C536 1.390 . S
C545 H538 0.950 . S
C545 C542 1.387 . S
C546 C547 1.387 1_655 S
C546 H550 0.950 . S
C546 C555 1.390 . S
C547 C546 1.387 1_455 S
C547 C549 1.388 . S
H548 C555 0.950 . S
C549 C547 1.388 . S
C549 C551 1.390 . S
C549 H553 0.950 . S
H550 C546 0.950 . S
C551 C549 1.390 . S
C551 C552 1.387 1_455 S
C551 H554 0.950 . S
C552 C551 1.387 1_655 S
C552 C555 1.388 . S
H553 C549 0.950 . S
H554 C551 0.950 . S
C555 C546 1.390 . S
C555 H548 0.950 . S
C555 C552 1.388 . S
C556 C557 1.389 . S
C556 H560 0.956 . S
C556 C565 1.390 . S
C557 C556 1.389 . S
C557 C559 1.389 1_545 S
H558 C565 0.951 1_565 S
C559 C557 1.389 1_565 S
C559 C561 1.390 . S
C559 H563 0.951 1_565 S
H560 C556 0.956 . S
C561 C559 1.390 . S
C561 C562 1.389 . S
C561 H564 0.956 . S
C562 C561 1.389 . S
C562 C565 1.389 1_565 S
H563 C559 0.951 1_545 S
H564 C561 0.956 . S
C565 C556 1.390 . S
C565 H558 0.951 1_545 S
C565 C562 1.389 1_545 S
C566 C567 1.387 . S
C566 H570 0.950 . S
C566 C575 1.390 . S
C567 C566 1.387 . S
C567 C569 1.387 . S
H568 C575 0.950 . S
C569 C567 1.387 . S
C569 C571 1.390 . S
C569 H573 0.950 . S
H570 C566 0.950 . S
C571 C569 1.390 . S
C571 C572 1.387 . S
C571 H574 0.950 . S
C572 C571 1.387 . S
C572 C575 1.387 . S
H573 C569 0.950 . S
H574 C571 0.950 . S
C575 C566 1.390 . S
C575 H568 0.950 . S
C575 C572 1.387 . S
C576 C577 1.387 . S
C576 H580 0.950 . S
C576 C585 1.390 . S
C577 C576 1.387 . S
C577 C579 1.387 . S
H578 C585 0.950 . S
C579 C577 1.387 . S
C579 C581 1.390 . S
C579 H583 0.950 . S
H580 C576 0.950 . S
C581 C579 1.390 . S
C581 C582 1.387 . S
C581 H584 0.950 . S
C582 C581 1.387 . S
C582 C585 1.387 . S
H583 C579 0.950 . S
H584 C581 0.950 . S
C585 C576 1.390 . S
C585 H578 0.950 . S
C585 C582 1.387 . S
C586 C587 1.387 . S
C586 H590 0.950 . S
C586 C595 1.390 . S
C587 C586 1.387 . S
C587 C589 1.387 . S
H588 C595 0.950 . S
C589 C587 1.387 . S
C589 C591 1.390 . S
C589 H593 0.950 . S
H590 C586 0.950 . S
C591 C589 1.390 . S
C591 C592 1.387 . S
C591 H594 0.950 . S
C592 C591 1.387 . S
C592 C595 1.387 . S
H593 C589 0.950 . S
H594 C591 0.950 . S
C595 C586 1.390 . S
C595 H588 0.950 . S
C595 C592 1.387 . S
C596 C597 1.387 . S
C596 H600 0.950 . S
C596 C605 1.390 . S
C597 C596 1.387 . S
C597 C599 1.387 . S
H598 C605 0.950 . S
C599 C597 1.387 . S
C599 C601 1.390 . S
C599 H603 0.950 . S
H600 C596 0.950 . S
C601 C599 1.390 . S
C601 C602 1.387 . S
C601 H604 0.950 . S
C602 C601 1.387 . S
C602 C605 1.387 . S
H603 C599 0.950 . S
H604 C601 0.950 . S
C605 C596 1.390 . S
C605 H598 0.950 . S
C605 C602 1.387 . S
C606 C607 1.387 . S
C606 H610 0.950 . S
C606 C615 1.390 . S
C607 C606 1.387 . S
C607 C609 1.387 . S
H608 C615 0.950 . S
C609 C607 1.387 . S
C609 C611 1.390 . S
C609 H613 0.950 . S
H610 C606 0.950 . S
C611 C609 1.390 . S
C611 C612 1.387 . S
C611 H614 0.950 . S
C612 C611 1.387 . S
C612 C615 1.387 . S
H613 C609 0.950 . S
H614 C611 0.950 . S
C615 C606 1.390 . S
C615 H608 0.950 . S
C615 C612 1.387 . S
C616 C617 1.387 . S
C616 H620 0.950 . S
C616 C625 1.390 . S
C617 C616 1.387 . S
C617 C619 1.387 . S
H618 C625 0.950 . S
C619 C617 1.387 . S
C619 C621 1.390 . S
C619 H623 0.950 . S
H620 C616 0.950 . S
C621 C619 1.390 . S
C621 C622 1.387 . S
C621 H624 0.950 . S
C622 C621 1.387 . S
C622 C625 1.387 . S
H623 C619 0.950 . S
H624 C621 0.950 . S
C625 C616 1.390 . S
C625 H618 0.950 . S
C625 C622 1.387 . S
C626 C627 1.387 . S
C626 H630 0.950 . S
C626 C635 1.390 . S
C627 C626 1.387 . S
C627 C629 1.387 . S
H628 C635 0.950 . S
C629 C627 1.387 . S
C629 C631 1.390 . S
C629 H633 0.950 . S
H630 C626 0.950 . S
C631 C629 1.390 . S
C631 C632 1.387 . S
C631 H634 0.950 . S
C632 C631 1.387 . S
C632 C635 1.387 . S
H633 C629 0.950 . S
H634 C631 0.950 . S
C635 C626 1.390 . S
C635 H628 0.950 . S
C635 C632 1.387 . S
C636 C637 1.387 . S
C636 H640 0.950 . S
C636 C645 1.390 . S
C637 C636 1.387 . S
C637 C639 1.387 . S
H638 C645 0.950 . S
C639 C637 1.387 . S
C639 C641 1.390 . S
C639 H643 0.950 . S
H640 C636 0.950 . S
C641 C639 1.390 . S
C641 C642 1.387 . S
C641 H644 0.950 . S
C642 C641 1.387 . S
C642 C645 1.387 . S
H643 C639 0.950 . S
H644 C641 0.950 . S
C645 C636 1.390 . S
C645 H638 0.950 . S
C645 C642 1.387 . S
C646 C647 1.387 . S
C646 H650 0.950 . S
C646 C655 1.390 . S
C647 C646 1.387 . S
C647 C649 1.387 1_554 S
H648 C655 0.950 . S
C649 C647 1.387 1_556 S
C649 C651 1.390 1_556 S
C649 H653 0.950 . S
H650 C646 0.950 . S
C651 C649 1.390 1_554 S
C651 C652 1.387 . S
C651 H654 0.950 1_554 S
C652 C651 1.387 . S
C652 C655 1.387 . S
H653 C649 0.950 . S
H654 C651 0.950 1_556 S
C655 C646 1.390 . S
C655 H648 0.950 . S
C655 C652 1.387 . S
C656 C657 1.387 . S
C656 H660 0.950 . S
C656 C665 1.390 . S
C657 C656 1.387 . S
C657 C659 1.387 . S
H658 C665 0.950 . S
C659 C657 1.387 . S
C659 C661 1.390 . S
C659 H663 0.950 . S
H660 C656 0.950 . S
C661 C659 1.390 . S
C661 C662 1.387 . S
C661 H664 0.950 . S
C662 C661 1.387 . S
C662 C665 1.387 . S
H663 C659 0.950 . S
H664 C661 0.950 . S
C665 C656 1.390 . S
C665 H658 0.950 . S
C665 C662 1.387 . S
C666 C667 1.387 . S
C666 H670 0.950 . S
C666 C675 1.390 . S
C667 C666 1.387 . S
C667 C669 1.387 . S
H668 C675 0.950 . S
C669 C667 1.387 . S
C669 C671 1.390 . S
C669 H673 0.950 . S
H670 C666 0.950 . S
C671 C669 1.390 . S
C671 C672 1.387 . S
C671 H674 0.950 . S
C672 C671 1.387 . S
C672 C675 1.387 . S
H673 C669 0.950 . S
H674 C671 0.950 . S
C675 C666 1.390 . S
C675 H668 0.950 . S
C675 C672 1.387 . S
C676 C677 1.387 . S
C676 H680 0.950 . S
C676 C685 1.390 . S
C677 C676 1.387 . S
C677 C679 1.387 . S
H678 C685 0.950 . S
C679 C677 1.387 . S
C679 C681 1.390 . S
C679 H683 0.950 . S
H680 C676 0.950 . S
C681 C679 1.390 . S
C681 C682 1.387 . S
C681 H684 0.950 . S
C682 C681 1.387 . S
C682 C685 1.387 . S
H683 C679 0.950 . S
H684 C681 0.950 . S
C685 C676 1.390 . S
C685 H678 0.950 . S
C685 C682 1.387 . S
C686 C687 1.387 . S
C686 H690 0.950 . S
C686 C695 1.390 . S
C687 C686 1.387 . S
C687 C689 1.387 . S
H688 C695 0.950 . S
C689 C687 1.387 . S
C689 C691 1.390 . S
C689 H693 0.950 . S
H690 C686 0.950 . S
C691 C689 1.390 . S
C691 C692 1.387 . S
C691 H694 0.950 . S
C692 C691 1.387 . S
C692 C695 1.387 . S
H693 C689 0.950 . S
H694 C691 0.950 . S
C695 C686 1.390 . S
C695 H688 0.950 . S
C695 C692 1.387 . S
C397 N343 1.099 . S
C402 N13 1.099 . S
C407 N46 1.097 . S
C412 N376 1.099 . S
C417 N79 1.097 . S
C422 N211 1.099 . S
C427 N112 1.096 . S
C432 N244 1.096 . S
C437 N145 1.098 . S
C442 N277 1.099 . S
C447 N178 1.096 . S
C452 N310 1.097 . S
C457 C21 1.476 . S
C462 C285 1.476 . S
C467 C318 1.475 . S
C472 C54 1.475 . S
C477 C87 1.475 . S
C482 C351 1.476 . S
C487 C120 1.476 . S
C492 C384 1.476 . S
C497 C153 1.476 . S
C502 C219 1.476 . S
C507 C186 1.475 . S
C512 C252 1.475 . S
C517 N365 1.246 . S
C522 N2 1.244 . S
C527 N200 1.245 . S
C532 N35 1.245 . S
C537 N233 1.245 . S
C542 N68 1.245 . S
C547 N101 1.248 1_455 S
C552 N266 1.248 1_655 S
C557 N134 1.248 1_545 S
C562 N299 1.248 1_565 S
C567 N332 1.250 . S
C572 N167 1.248 . S
C577 C172 1.967 . S
C582 C18 1.977 1_556 S
C587 C7 1.968 . S
C592 C51 1.978 . S
C597 C84 1.978 . S
C602 C40 1.968 . S
C607 C73 1.967 . S
C612 C117 1.977 . S
C617 C150 1.978 . S
C622 C106 1.968 . S
C627 C183 1.977 . S
C632 C139 1.968 . S
C637 C238 1.967 . S
C642 C216 1.977 . S
C647 C249 1.977 1_554 S
C652 C271 1.967 . S
C657 C282 1.977 . S
C662 C304 1.967 . S
C667 C337 1.968 . S
C672 C315 1.978 . S
C677 C370 1.967 . S
C682 C348 1.977 . S
C687 C381 1.977 . S
C692 C205 1.967 . S
