# Generated by pormake.
# Topology wmg, (6)-cn, num edge types: 1
# Building blocks:
#     Node 0, Type 0, BuildingBlock: VOLQOD_clean_sbu_1, # of connection points: 6
#     Node 1, Type 0, BuildingBlock: VOLQOD_clean_sbu_1, # of connection points: 6
#     Node 2, Type 0, BuildingBlock: VOLQOD_clean_sbu_1, # of connection points: 6
#     Node 3, Type 0, BuildingBlock: VOLQOD_clean_sbu_1, # of connection points: 6
#     Node 4, Type 0, BuildingBlock: VOLQOD_clean_sbu_1, # of connection points: 6
#     Node 5, Type 0, BuildingBlock: VOLQOD_clean_sbu_1, # of connection points: 6
#     Node 6, Type 0, BuildingBlock: VOLQOD_clean_sbu_1, # of connection points: 6
#     Node 7, Type 0, BuildingBlock: VOLQOD_clean_sbu_1, # of connection points: 6
#     Node 8, Type 0, BuildingBlock: VOLQOD_clean_sbu_1, # of connection points: 6
#     Node 9, Type 0, BuildingBlock: VOLQOD_clean_sbu_1, # of connection points: 6
#     Node 10, Type 0, BuildingBlock: VOLQOD_clean_sbu_1, # of connection points: 6
#     Node 11, Type 0, BuildingBlock: VOLQOD_clean_sbu_1, # of connection points: 6
#     Node 12, Type 0, BuildingBlock: VOLQOD_clean_sbu_1, # of connection points: 6
#     Node 13, Type 0, BuildingBlock: VOLQOD_clean_sbu_1, # of connection points: 6
#     Node 14, Type 0, BuildingBlock: VOLQOD_clean_sbu_1, # of connection points: 6
#     Node 15, Type 0, BuildingBlock: VOLQOD_clean_sbu_1, # of connection points: 6
#     Node 16, Type 0, BuildingBlock: VOLQOD_clean_sbu_1, # of connection points: 6
#     Node 17, Type 0, BuildingBlock: VOLQOD_clean_sbu_1, # of connection points: 6
#     Edge 18, Type (0, 0), BuildingBlock: XUDNAN_clean_linker_2, # of connection points: 2
#     Edge 19, Type (0, 0), BuildingBlock: XUDNAN_clean_linker_2, # of connection points: 2
#     Edge 20, Type (0, 0), BuildingBlock: XUDNAN_clean_linker_2, # of connection points: 2
#     Edge 21, Type (0, 0), BuildingBlock: XUDNAN_clean_linker_2, # of connection points: 2
#     Edge 22, Type (0, 0), BuildingBlock: XUDNAN_clean_linker_2, # of connection points: 2
#     Edge 23, Type (0, 0), BuildingBlock: XUDNAN_clean_linker_2, # of connection points: 2
#     Edge 24, Type (0, 0), BuildingBlock: XUDNAN_clean_linker_2, # of connection points: 2
#     Edge 25, Type (0, 0), BuildingBlock: XUDNAN_clean_linker_2, # of connection points: 2
#     Edge 26, Type (0, 0), BuildingBlock: XUDNAN_clean_linker_2, # of connection points: 2
#     Edge 27, Type (0, 0), BuildingBlock: XUDNAN_clean_linker_2, # of connection points: 2
#     Edge 28, Type (0, 0), BuildingBlock: XUDNAN_clean_linker_2, # of connection points: 2
#     Edge 29, Type (0, 0), BuildingBlock: XUDNAN_clean_linker_2, # of connection points: 2
#     Edge 30, Type (0, 0), BuildingBlock: XUDNAN_clean_linker_2, # of connection points: 2
#     Edge 31, Type (0, 0), BuildingBlock: XUDNAN_clean_linker_2, # of connection points: 2
#     Edge 32, Type (0, 0), BuildingBlock: XUDNAN_clean_linker_2, # of connection points: 2
#     Edge 33, Type (0, 0), BuildingBlock: XUDNAN_clean_linker_2, # of connection points: 2
#     Edge 34, Type (0, 0), BuildingBlock: XUDNAN_clean_linker_2, # of connection points: 2
#     Edge 35, Type (0, 0), BuildingBlock: XUDNAN_clean_linker_2, # of connection points: 2
#     Edge 36, Type (0, 0), BuildingBlock: XUDNAN_clean_linker_2, # of connection points: 2
#     Edge 37, Type (0, 0), BuildingBlock: XUDNAN_clean_linker_2, # of connection points: 2
#     Edge 38, Type (0, 0), BuildingBlock: XUDNAN_clean_linker_2, # of connection points: 2
#     Edge 39, Type (0, 0), BuildingBlock: XUDNAN_clean_linker_2, # of connection points: 2
#     Edge 40, Type (0, 0), BuildingBlock: XUDNAN_clean_linker_2, # of connection points: 2
#     Edge 41, Type (0, 0), BuildingBlock: XUDNAN_clean_linker_2, # of connection points: 2
#     Edge 42, Type (0, 0), BuildingBlock: XUDNAN_clean_linker_2, # of connection points: 2
#     Edge 43, Type (0, 0), BuildingBlock: XUDNAN_clean_linker_2, # of connection points: 2
#     Edge 44, Type (0, 0), BuildingBlock: XUDNAN_clean_linker_2, # of connection points: 2
#     Edge 45, Type (0, 0), BuildingBlock: XUDNAN_clean_linker_2, # of connection points: 2
#     Edge 46, Type (0, 0), BuildingBlock: XUDNAN_clean_linker_2, # of connection points: 2
#     Edge 47, Type (0, 0), BuildingBlock: XUDNAN_clean_linker_2, # of connection points: 2
#     Edge 48, Type (0, 0), BuildingBlock: XUDNAN_clean_linker_2, # of connection points: 2
#     Edge 49, Type (0, 0), BuildingBlock: XUDNAN_clean_linker_2, # of connection points: 2
#     Edge 50, Type (0, 0), BuildingBlock: XUDNAN_clean_linker_2, # of connection points: 2
#     Edge 51, Type (0, 0), BuildingBlock: XUDNAN_clean_linker_2, # of connection points: 2
#     Edge 52, Type (0, 0), BuildingBlock: XUDNAN_clean_linker_2, # of connection points: 2
#     Edge 53, Type (0, 0), BuildingBlock: XUDNAN_clean_linker_2, # of connection points: 2
#     Edge 54, Type (0, 0), BuildingBlock: XUDNAN_clean_linker_2, # of connection points: 2
#     Edge 55, Type (0, 0), BuildingBlock: XUDNAN_clean_linker_2, # of connection points: 2
#     Edge 56, Type (0, 0), BuildingBlock: XUDNAN_clean_linker_2, # of connection points: 2
#     Edge 57, Type (0, 0), BuildingBlock: XUDNAN_clean_linker_2, # of connection points: 2
#     Edge 58, Type (0, 0), BuildingBlock: XUDNAN_clean_linker_2, # of connection points: 2
#     Edge 59, Type (0, 0), BuildingBlock: XUDNAN_clean_linker_2, # of connection points: 2
#     Edge 60, Type (0, 0), BuildingBlock: XUDNAN_clean_linker_2, # of connection points: 2
#     Edge 61, Type (0, 0), BuildingBlock: XUDNAN_clean_linker_2, # of connection points: 2
#     Edge 62, Type (0, 0), BuildingBlock: XUDNAN_clean_linker_2, # of connection points: 2
#     Edge 63, Type (0, 0), BuildingBlock: XUDNAN_clean_linker_2, # of connection points: 2
#     Edge 64, Type (0, 0), BuildingBlock: XUDNAN_clean_linker_2, # of connection points: 2
#     Edge 65, Type (0, 0), BuildingBlock: XUDNAN_clean_linker_2, # of connection points: 2
#     Edge 66, Type (0, 0), BuildingBlock: XUDNAN_clean_linker_2, # of connection points: 2
#     Edge 67, Type (0, 0), BuildingBlock: XUDNAN_clean_linker_2, # of connection points: 2
#     Edge 68, Type (0, 0), BuildingBlock: XUDNAN_clean_linker_2, # of connection points: 2
#     Edge 69, Type (0, 0), BuildingBlock: XUDNAN_clean_linker_2, # of connection points: 2
#     Edge 70, Type (0, 0), BuildingBlock: XUDNAN_clean_linker_2, # of connection points: 2
#     Edge 71, Type (0, 0), BuildingBlock: XUDNAN_clean_linker_2, # of connection points: 2
# Relax obj value: 0.414
# Max RMSD: 0.275
# Mean RMSD: 0.275
data_MOF--net-wmg--node1-VOLQOD_clean_sbu_1--edge1-XUDNAN_clean_linker_2
_symmetry_space_group_name_H-M    P1
_symmetry_Int_Tables_number       1
_symmetry_cell_setting            triclinic
loop_
_symmetry_equiv_pos_as_xyz
'x, y, z'
_cell_length_a     63.131364
_cell_length_b     63.187736
_cell_length_c     26.397026
_cell_angle_alpha  89.8631
_cell_angle_beta   90.069618
_cell_angle_gamma 120.10067
loop_
_atom_site_label
_atom_site_type_symbol
_atom_site_fract_x
_atom_site_fract_y
_atom_site_fract_z
_atom_type_partial_charge
O0 O 0.18931 0.30819 0.04161 0.0
Zn1 Zn 0.20551 0.29505 0.08765 0.0
O2 O 0.19132 0.26005 0.07802 0.0
Zn3 Zn 0.17626 0.24114 0.13866 0.0
Zn4 Zn 0.16759 0.24953 0.02561 0.0
Zn5 Zn 0.216 0.25345 0.05656 0.0
O6 O 0.19422 0.22402 0.16433 0.0
O7 O 0.22774 0.24363 0.11695 0.0
O8 O 0.20283 0.30262 0.16104 0.0
O9 O 0.18233 0.26501 0.1935 0.0
O10 O 0.13888 0.22036 0.13199 0.0
O11 O 0.13519 0.23504 0.05776 0.0
O12 O 0.16774 0.22375 0.98122 0.0
O13 O 0.24042 0.31327 0.06229 0.0
O14 O 0.20207 0.22556 0.00766 0.0
O15 O 0.24366 0.2835 0.02518 0.0
C16 C 0.17903 0.29986 -0.00105 0.0
C17 C 0.21655 0.23051 0.1553 0.0
C18 C 0.12585 0.22297 0.09818 0.0
C19 C 0.19291 0.28812 0.19846 0.0
C20 C 0.18298 0.21619 0.98004 0.0
C21 C 0.25181 0.30616 0.03343 0.0
O22 O 0.17199 0.27798 0.98556 0.0
O23 O 0.6872 0.86429 0.06134 0.0
Zn24 Zn 0.69976 0.89318 0.10759 0.0
O25 O 0.73341 0.91695 0.09255 0.0
Zn26 Zn 0.75363 0.92488 0.15264 0.0
Zn27 Zn 0.74501 0.90396 0.04187 0.0
Zn28 Zn 0.73445 0.94516 0.06366 0.0
O29 O 0.76731 0.96076 0.17014 0.0
O30 O 0.74581 0.97056 0.11767 0.0
O31 O 0.6952 0.88274 0.18005 0.0
O32 O 0.73235 0.90617 0.21225 0.0
O33 O 0.77826 0.91285 0.1459 0.0
O34 O 0.76278 0.88984 0.07669 0.0
O35 O 0.76873 0.93018 0.99455 0.0
O36 O 0.67742 0.90611 0.09064 0.0
O37 O 0.75885 0.95895 0.00669 0.0
O38 O 0.70097 0.93655 0.03847 0.0
C39 C 0.69479 0.8629 0.01751 0.0
C40 C 0.76 0.97538 0.15567 0.0
C41 C 0.77667 0.89644 0.11539 0.0
C42 C 0.70986 0.88999 0.21751 0.0
C43 C 0.77122 0.95096 0.9841 0.0
C44 C 0.67996 0.92138 0.05633 0.0
O45 O 0.71644 0.8782 0.00294 0.0
O46 O 0.12037 0.8104 0.03816 0.0
Zn47 Zn 0.09344 0.79348 0.08917 0.0
O48 O 0.06713 0.80014 0.07529 0.0
Zn49 Zn 0.06102 0.81531 0.1333 0.0
Zn50 Zn 0.07488 0.82052 0.01674 0.0
Zn51 Zn 0.03852 0.77025 0.05821 0.0
O52 O 0.02668 0.79307 0.16136 0.0
O53 O 0.01703 0.75908 0.11845 0.0
O54 O 0.10652 0.80333 0.15986 0.0
O55 O 0.08315 0.81749 0.18986 0.0
O56 O 0.07104 0.85099 0.11818 0.0
O57 O 0.08548 0.8537 0.04022 0.0
O58 O 0.04619 0.81117 0.97081 0.0
O59 O 0.08267 0.75805 0.07761 0.0
O60 O 0.01984 0.77474 0.00198 0.0
O61 O 0.04723 0.7451 0.03803 0.0
C62 C 0.12012 0.81835 0.99392 0.0
C63 C 0.01308 0.77004 0.15446 0.0
C64 C 0.08231 0.8636 0.07911 0.0
C65 C 0.10015 0.81245 0.19564 0.0
C66 C 0.02521 0.79197 0.97045 0.0
C67 C 0.06487 0.74204 0.05156 0.0
O68 O 0.10258 0.82131 0.97901 0.0
O69 O 0.7881 0.68114 0.97143 0.0
Zn70 Zn 0.78478 0.69483 0.90625 0.0
O71 O 0.80126 0.72963 0.91054 0.0
Zn72 Zn 0.81705 0.74289 0.84635 0.0
Zn73 Zn 0.82409 0.74079 0.96522 0.0
Zn74 Zn 0.77592 0.7365 0.92672 0.0
O75 O 0.79744 0.75516 0.80833 0.0
O76 O 0.7671 0.74725 0.86249 0.0
O77 O 0.79738 0.68328 0.85067 0.0
O78 O 0.81651 0.7164 0.80243 0.0
O79 O 0.85347 0.76638 0.85726 0.0
O80 O 0.8567 0.75272 0.93353 0.0
O81 O 0.82398 0.76868 0.00233 0.0
O82 O 0.74898 0.68109 0.8971 0.0
O83 O 0.78753 0.76288 0.97934 0.0
O84 O 0.74714 0.70543 0.95422 0.0
C85 C 0.8004 0.69025 0.01166 0.0
C86 C 0.77735 0.7544 0.81928 0.0
C87 C 0.86622 0.76412 0.89229 0.0
C88 C 0.80899 0.69386 0.81056 0.0
C89 C 0.80717 0.77417 0.0052 0.0
C90 C 0.7378 0.6845 0.93324 0.0
O91 O 0.81551 0.71315 0.01541 0.0
O92 O 0.29719 0.11852 0.01257 0.0
Zn93 Zn 0.29396 0.10335 0.94474 0.0
O94 O 0.26113 0.07671 0.93462 0.0
Zn95 Zn 0.24996 0.07918 0.86743 0.0
Zn96 Zn 0.24 0.07806 0.98539 0.0
Zn97 Zn 0.26179 0.04673 0.94296 0.0
O98 O 0.24403 0.05033 0.82432 0.0
O99 O 0.2588 0.03223 0.87415 0.0
O100 O 0.3048 0.12853 0.89039 0.0
O101 O 0.27611 0.10919 0.83214 0.0
O102 O 0.22097 0.08454 0.87106 0.0
O103 O 0.21927 0.09009 0.95388 0.0
O104 O 0.21753 0.04511 0.01405 0.0
O105 O 0.3177 0.0913 0.9466 0.0
O106 O 0.23254 0.02239 0.9842 0.0
O107 O 0.29413 0.0531 0.97355 0.0
C108 C 0.28215 0.11435 0.04843 0.0
C109 C 0.25055 0.03444 0.83157 0.0
C110 C 0.21229 0.09037 0.90867 0.0
C111 C 0.29623 0.12754 0.84632 0.0
C112 C 0.21688 0.02477 0.01032 0.0
C113 C 0.31523 0.07162 0.9652 0.0
O114 O 0.25942 0.0991 0.04349 0.0
O115 O 0.86574 0.15745 0.99338 0.0
Zn116 Zn 0.88167 0.1709 0.92676 0.0
O117 O 0.91043 0.16806 0.9186 0.0
Zn118 Zn 0.91013 0.15618 0.85087 0.0
Zn119 Zn 0.90973 0.14557 0.96849 0.0
Zn120 Zn 0.93884 0.19949 0.9316 0.0
O121 O 0.94138 0.18012 0.81377 0.0
O122 O 0.95639 0.2124 0.86535 0.0
O123 O 0.85815 0.15663 0.86952 0.0
O124 O 0.88201 0.15438 0.81069 0.0
O125 O 0.90242 0.12079 0.85381 0.0
O126 O 0.89695 0.11287 0.93662 0.0
O127 O 0.94291 0.15645 0.99672 0.0
O128 O 0.89064 0.20586 0.93184 0.0
O129 O 0.96225 0.19619 0.97948 0.0
O130 O 0.92887 0.22313 0.96017 0.0
C131 C 0.87209 0.14938 0.03116 0.0
C132 C 0.95658 0.20261 0.82323 0.0
C133 C 0.89605 0.10586 0.89104 0.0
C134 C 0.86197 0.15307 0.82389 0.0
C135 C 0.96162 0.17767 0.00053 0.0
C136 C 0.90923 0.22372 0.95225 0.0
O137 O 0.8892 0.14437 0.0276 0.0
O138 O 0.81493 0.6157 0.35021 0.0
Zn139 Zn 0.83607 0.61316 0.40466 0.0
O140 O 0.83398 0.58135 0.40177 0.0
Zn141 Zn 0.82503 0.56558 0.46718 0.0
Zn142 Zn 0.80907 0.56073 0.35481 0.0
Zn143 Zn 0.86457 0.58466 0.37976 0.0
O144 O 0.84975 0.55666 0.49244 0.0
O145 O 0.88077 0.57905 0.44018 0.0
O146 O 0.82915 0.6212 0.47503 0.0
O147 O 0.82708 0.58978 0.51703 0.0
O148 O 0.78901 0.53955 0.4713 0.0
O149 O 0.77802 0.54087 0.39199 0.0
O150 O 0.81832 0.53906 0.31713 0.0
O151 O 0.86978 0.63933 0.38542 0.0
O152 O 0.85885 0.55909 0.32658 0.0
O153 O 0.88683 0.61889 0.35328 0.0
C154 C 0.80458 0.60223 0.31174 0.0
C155 C 0.87235 0.56644 0.4806 0.0
C156 C 0.77258 0.53343 0.4374 0.0
C157 C 0.8275 0.61008 0.51649 0.0
C158 C 0.83926 0.54174 0.30746 0.0
C159 C 0.88714 0.6389 0.36196 0.0
O160 O 0.80272 0.58132 0.30672 0.0
O161 O 0.36902 0.19821 0.39264 0.0
Zn162 Zn 0.37238 0.22536 0.43677 0.0
O163 O 0.40354 0.25427 0.42554 0.0
Zn164 Zn 0.4231 0.26351 0.48627 0.0
Zn165 Zn 0.41986 0.24863 0.37054 0.0
Zn166 Zn 0.39826 0.28003 0.40572 0.0
O167 O 0.43404 0.29886 0.50446 0.0
O168 O 0.40409 0.30143 0.46534 0.0
O169 O 0.36714 0.21583 0.50993 0.0
O170 O 0.40205 0.24397 0.54459 0.0
O171 O 0.4493 0.25379 0.48027 0.0
O172 O 0.44352 0.2403 0.40059 0.0
O173 O 0.4392 0.27872 0.32714 0.0
O174 O 0.34492 0.23022 0.41304 0.0
O175 O 0.42379 0.30119 0.35578 0.0
O176 O 0.36441 0.26701 0.37719 0.0
C177 C 0.37651 0.20011 0.34715 0.0
C178 C 0.42134 0.30931 0.49784 0.0
C179 C 0.45407 0.24378 0.44338 0.0
C180 C 0.38059 0.22557 0.54863 0.0
C181 C 0.4387 0.29859 0.32773 0.0
C182 C 0.34479 0.24695 0.3864 0.0
O183 O 0.39484 0.21983 0.33083 0.0
O184 O 0.80445 0.17721 0.37104 0.0
Zn185 Zn 0.77535 0.15153 0.40848 0.0
O186 O 0.74682 0.15465 0.39695 0.0
Zn187 Zn 0.73503 0.15978 0.46109 0.0
Zn188 Zn 0.75622 0.18148 0.35195 0.0
Zn189 Zn 0.72235 0.12673 0.3612 0.0
O190 O 0.69997 0.13185 0.47437 0.0
O191 O 0.69734 0.10667 0.41251 0.0
O192 O 0.78311 0.15159 0.48205 0.0
O193 O 0.75372 0.15574 0.51814 0.0
O194 O 0.74379 0.19575 0.46645 0.0
O195 O 0.76418 0.21038 0.39371 0.0
O196 O 0.72894 0.17627 0.30541 0.0
O197 O 0.77033 0.12043 0.37816 0.0
O198 O 0.70539 0.13595 0.30765 0.0
O199 O 0.7365 0.10684 0.332 0.0
C200 C 0.80378 0.18482 0.32672 0.0
C201 C 0.6894 0.11067 0.45364 0.0
C202 C 0.75716 0.2136 0.43676 0.0
C203 C 0.77224 0.15289 0.52142 0.0
C204 C 0.71 0.15677 0.29091 0.0
C205 C 0.75526 0.10564 0.34579 0.0
O206 O 0.78515 0.18589 0.31162 0.0
O207 O 0.50273 0.04497 0.3291 0.0
Zn208 Zn 0.48786 0.04532 0.26267 0.0
O209 O 0.49111 0.07698 0.25201 0.0
Zn210 Zn 0.50098 0.08716 0.18248 0.0
Zn211 Zn 0.51578 0.10045 0.29632 0.0
Zn212 Zn 0.46039 0.07464 0.26976 0.0
O213 O 0.47491 0.09129 0.14654 0.0
O214 O 0.44586 0.07921 0.20565 0.0
O215 O 0.50278 0.03614 0.20625 0.0
O216 O 0.5047 0.06142 0.14556 0.0
O217 O 0.53564 0.11628 0.17831 0.0
O218 O 0.54717 0.11896 0.2589 0.0
O219 O 0.50605 0.12366 0.32417 0.0
O220 O 0.45266 0.01913 0.26974 0.0
O221 O 0.46541 0.10099 0.3204 0.0
O222 O 0.43641 0.04102 0.2976 0.0
C223 C 0.51405 0.06107 0.36297 0.0
C224 C 0.45345 0.08609 0.1605 0.0
C225 C 0.55211 0.12489 0.21254 0.0
C226 C 0.50697 0.04348 0.16049 0.0
C227 C 0.48489 0.12001 0.33521 0.0
C228 C 0.43505 0.02045 0.28983 0.0
O229 O 0.52016 0.08335 0.35597 0.0
O230 O 0.96568 0.45224 0.26944 0.0
Zn231 Zn 0.95468 0.42426 0.22149 0.0
O232 O 0.9208 0.39986 0.23538 0.0
Zn233 Zn 0.90146 0.39347 0.174 0.0
Zn234 Zn 0.90769 0.41088 0.28817 0.0
Zn235 Zn 0.91987 0.37069 0.26002 0.0
O236 O 0.8885 0.35846 0.15096 0.0
O237 O 0.90913 0.3471 0.20225 0.0
O238 O 0.96017 0.43648 0.1494 0.0
O239 O 0.92309 0.41357 0.11684 0.0
O240 O 0.8768 0.40528 0.1806 0.0
O241 O 0.8862 0.42193 0.25754 0.0
O242 O 0.88659 0.38388 0.33674 0.0
O243 O 0.97735 0.41149 0.23791 0.0
O244 O 0.89585 0.35522 0.31782 0.0
O245 O 0.95343 0.37812 0.28286 0.0
C246 C 0.95691 0.45449 0.31116 0.0
C247 C 0.89591 0.34365 0.16311 0.0
C248 C 0.87448 0.41767 0.21609 0.0
C249 C 0.9455 0.42986 0.11195 0.0
C250 C 0.88418 0.3629 0.34412 0.0
C251 C 0.97457 0.39428 0.26731 0.0
O252 O 0.93521 0.43898 0.32507 0.0
O253 O 0.54227 0.5374 0.2995 0.0
Zn254 Zn 0.56626 0.54478 0.24296 0.0
O255 O 0.58741 0.5318 0.25938 0.0
Zn256 Zn 0.59069 0.51447 0.20336 0.0
Zn257 Zn 0.57557 0.51102 0.31611 0.0
Zn258 Zn 0.61795 0.5587 0.27974 0.0
O259 O 0.62457 0.53481 0.17302 0.0
O260 O 0.63851 0.56931 0.21741 0.0
O261 O 0.54964 0.53279 0.17501 0.0
O262 O 0.56844 0.51314 0.14818 0.0
O263 O 0.57832 0.47858 0.22145 0.0
O264 O 0.55792 0.47706 0.2915 0.0
O265 O 0.60302 0.51332 0.35826 0.0
O266 O 0.5854 0.58152 0.2443 0.0
O267 O 0.63435 0.54873 0.33322 0.0
O268 O 0.61133 0.58501 0.30488 0.0
C269 C 0.54169 0.52953 0.34426 0.0
C270 C 0.63986 0.55758 0.17941 0.0
C271 C 0.56279 0.46642 0.25624 0.0
C272 C 0.55333 0.52061 0.14119 0.0
C273 C 0.62555 0.52952 0.36063 0.0
C274 C 0.59889 0.59297 0.28198 0.0
O275 O 0.55434 0.51971 0.3567 0.0
O276 O 0.5222 0.98248 0.712 0.0
Zn277 Zn 0.54075 0.97066 0.75359 0.0
O278 O 0.52603 0.93542 0.7467 0.0
Zn279 Zn 0.51329 0.91918 0.81058 0.0
Zn280 Zn 0.50099 0.9235 0.69579 0.0
Zn281 Zn 0.55033 0.92814 0.72478 0.0
O282 O 0.53076 0.90154 0.83426 0.0
O283 O 0.56393 0.92012 0.78556 0.0
O284 O 0.54209 0.98089 0.82663 0.0
O285 O 0.52192 0.94441 0.86377 0.0
O286 O 0.47618 0.89895 0.80943 0.0
O287 O 0.46871 0.90543 0.72999 0.0
O288 O 0.50261 0.89934 0.64863 0.0
O289 O 0.57393 0.98819 0.7199 0.0
O290 O 0.53549 0.89915 0.67833 0.0
O291 O 0.57612 0.95708 0.6866 0.0
C292 C 0.51053 0.97388 0.67077 0.0
C293 C 0.5529 0.90754 0.8247 0.0
C294 C 0.46136 0.89624 0.77382 0.0
C295 C 0.53337 0.96763 0.86609 0.0
C296 C 0.51708 0.89084 0.64886 0.0
C297 C 0.58393 0.97995 0.69006 0.0
O298 O 0.50298 0.95184 0.65748 0.0
O299 O 0.03056 0.53921 0.64717 0.0
Zn300 Zn 0.03187 0.55533 0.71286 0.0
O301 O 0.06413 0.58275 0.72427 0.0
Zn302 Zn 0.07334 0.58039 0.79326 0.0
Zn303 Zn 0.08663 0.58096 0.67807 0.0
Zn304 Zn 0.06414 0.61298 0.71101 0.0
O305 O 0.08206 0.61113 0.83128 0.0
O306 O 0.06897 0.62982 0.77851 0.0
O307 O 0.01938 0.53112 0.76989 0.0
O308 O 0.04536 0.5528 0.83086 0.0
O309 O 0.09912 0.57049 0.79508 0.0
O310 O 0.10404 0.56621 0.71305 0.0
O311 O 0.11096 0.61382 0.65175 0.0
O312 O 0.00815 0.56688 0.70376 0.0
O313 O 0.09289 0.63573 0.66515 0.0
O314 O 0.0312 0.60588 0.68101 0.0
C315 C 0.04623 0.54415 0.61223 0.0
C316 C 0.07717 0.62801 0.82162 0.0
C317 C 0.10813 0.56393 0.7594 0.0
C318 C 0.02601 0.53376 0.81605 0.0
C319 C 0.11045 0.63358 0.64683 0.0
C320 C 0.01029 0.58661 0.68634 0.0
O321 O 0.0686 0.56043 0.6181 0.0
O322 O 0.46108 0.51828 0.67661 0.0
Zn323 Zn 0.44106 0.49313 0.72828 0.0
O324 O 0.40974 0.49098 0.73796 0.0
Zn325 Zn 0.40497 0.49364 0.81064 0.0
Zn326 Zn 0.40983 0.51733 0.70135 0.0
Zn327 Zn 0.3842 0.46086 0.70884 0.0
O328 O 0.37427 0.46303 0.83601 0.0
O329 O 0.36511 0.43971 0.76701 0.0
O330 O 0.45984 0.49903 0.79237 0.0
O331 O 0.4328 0.49486 0.85077 0.0
O332 O 0.4087 0.52688 0.8268 0.0
O333 O 0.41645 0.54362 0.74987 0.0
O334 O 0.37829 0.50687 0.66606 0.0
O335 O 0.43659 0.46203 0.70005 0.0
O336 O 0.36136 0.4665 0.66306 0.0
O337 O 0.39823 0.44231 0.67232 0.0
C338 C 0.45615 0.53056 0.64538 0.0
C339 C 0.36213 0.44235 0.81385 0.0
C340 C 0.41504 0.54525 0.79762 0.0
C341 C 0.45368 0.49803 0.83849 0.0
C342 C 0.36127 0.48608 0.65141 0.0
C343 C 0.41929 0.44427 0.67642 0.0
O344 O 0.43624 0.53095 0.64839 0.0
O345 O 0.15364 0.36123 0.65935 0.0
Zn346 Zn 0.13739 0.35989 0.59331 0.0
O347 O 0.13945 0.39096 0.57998 0.0
Zn348 Zn 0.15084 0.40147 0.51112 0.0
Zn349 Zn 0.16291 0.41517 0.62504 0.0
Zn350 Zn 0.10783 0.38786 0.59318 0.0
O351 O 0.12599 0.4063 0.47231 0.0
O352 O 0.09492 0.39294 0.52689 0.0
O353 O 0.15204 0.35025 0.53698 0.0
O354 O 0.15477 0.37569 0.4758 0.0
O355 O 0.18559 0.43052 0.50862 0.0
O356 O 0.19468 0.4351 0.59067 0.0
O357 O 0.15136 0.43695 0.65116 0.0
O358 O 0.10257 0.33322 0.60282 0.0
O359 O 0.11093 0.41369 0.64331 0.0
O360 O 0.08364 0.35401 0.62005 0.0
C361 C 0.16436 0.3779 0.6925 0.0
C362 C 0.1041 0.4008 0.48305 0.0
C363 C 0.20089 0.44038 0.54464 0.0
C364 C 0.15664 0.3576 0.49124 0.0
C365 C 0.12983 0.43282 0.65974 0.0
C366 C 0.08375 0.33391 0.61758 0.0
O367 O 0.16861 0.39954 0.685 0.0
O368 O 0.61316 0.78984 0.68155 0.0
Zn369 Zn 0.61391 0.77242 0.61981 0.0
O370 O 0.58243 0.74388 0.60539 0.0
Zn371 Zn 0.5732 0.74637 0.53596 0.0
Zn372 Zn 0.55893 0.74396 0.65194 0.0
Zn373 Zn 0.58365 0.714 0.61644 0.0
O374 O 0.56627 0.7163 0.49603 0.0
O375 O 0.57595 0.69556 0.55061 0.0
O376 O 0.62768 0.79547 0.56135 0.0
O377 O 0.60118 0.77492 0.50021 0.0
O378 O 0.54554 0.75396 0.53443 0.0
O379 O 0.53882 0.75558 0.61658 0.0
O380 O 0.53707 0.71092 0.68097 0.0
O381 O 0.63818 0.76236 0.63685 0.0
O382 O 0.55899 0.69256 0.67053 0.0
O383 O 0.6178 0.72168 0.63666 0.0
C384 C 0.59744 0.78388 0.7167 0.0
C385 C 0.5693 0.69826 0.50654 0.0
C386 C 0.5347 0.75819 0.5704 0.0
C387 C 0.62106 0.79331 0.51527 0.0
C388 C 0.54075 0.69323 0.68955 0.0
C389 C 0.63747 0.74207 0.64264 0.0
O390 O 0.57585 0.76578 0.71178 0.0
O391 O 0.21081 0.84319 0.65861 0.0
Zn392 Zn 0.22718 0.8596 0.59361 0.0
O393 O 0.25559 0.85639 0.58153 0.0
Zn394 Zn 0.25439 0.84485 0.51266 0.0
Zn395 Zn 0.25546 0.83297 0.62807 0.0
Zn396 Zn 0.28473 0.88715 0.59546 0.0
O397 O 0.28622 0.86772 0.47582 0.0
O398 O 0.30388 0.89856 0.53088 0.0
O399 O 0.20389 0.84746 0.53548 0.0
O400 O 0.22684 0.8451 0.47453 0.0
O401 O 0.24402 0.80858 0.51239 0.0
O402 O 0.24092 0.80062 0.59507 0.0
O403 O 0.28873 0.84303 0.65493 0.0
O404 O 0.23674 0.89459 0.60339 0.0
O405 O 0.30577 0.88344 0.6488 0.0
O406 O 0.2767 0.9128 0.61831 0.0
C407 C 0.21691 0.83334 0.69349 0.0
C408 C 0.30321 0.88925 0.48765 0.0
C409 C 0.23806 0.79358 0.5493 0.0
C410 C 0.20726 0.84436 0.48923 0.0
C411 C 0.30584 0.86451 0.66536 0.0
C412 C 0.25681 0.91332 0.61605 0.0
O413 O 0.2346 0.82935 0.68777 0.0
H414 H 0.1828 0.0948 0.97702 0.0
H415 H 0.20802 0.11186 0.82177 0.0
H416 H 0.19243 0.14061 0.81678 0.0
H417 H 0.12848 0.10718 0.96428 0.0
H418 H 0.135 0.12025 0.02691 0.0
H419 H 0.13976 0.09506 0.01243 0.0
H420 H 0.18463 0.12072 0.04331 0.0
H421 H 0.18022 0.14596 0.05706 0.0
H422 H 0.20443 0.15015 0.01471 0.0
H423 H 0.18587 0.17543 0.83648 0.0
H424 H 0.18737 0.21129 0.87833 0.0
H425 H 0.16709 0.17208 0.02067 0.0
C426 C 0.18396 0.10372 0.94122 0.0
C427 C 0.19663 0.1012 0.89991 0.0
C428 C 0.19813 0.11334 0.85378 0.0
C429 C 0.1893 0.12973 0.85062 0.0
C430 C 0.17861 0.13333 0.89355 0.0
C431 C 0.17538 0.12017 0.93773 0.0
C432 C 0.1676 0.13026 0.98124 0.0
C433 C 0.14113 0.11211 -0.00287 0.0
C434 C 0.18529 0.13719 0.02665 0.0
C435 C 0.16933 0.15256 0.95609 0.0
C436 C 0.17481 0.15363 0.90504 0.0
C437 C 0.18069 0.17436 0.87587 0.0
C438 C 0.18159 0.19464 0.89978 0.0
C439 C 0.17694 0.19393 0.95218 0.0
C440 C 0.17006 0.17251 0.98017 0.0
H441 H 0.81869 0.97756 0.00889 0.0
H442 H 0.7676 0.96341 0.88684 0.0
H443 H 0.80031 -0.0024 0.83748 0.0
H444 H 0.84181 0.03755 0.00938 0.0
H445 H 0.87295 0.04632 0.02515 0.0
H446 H 0.84849 0.01668 0.04291 0.0
H447 H 0.86956 0.99642 0.99504 0.0
H448 H 0.89419 0.02622 0.97692 0.0
H449 H 0.87746 0.00352 0.92914 0.0
H450 H 0.8355 0.03745 0.80952 0.0
H451 H 0.86709 0.0812 0.8103 0.0
H452 H 0.89459 0.07084 0.95308 0.0
C453 C 0.8149 0.98104 0.9707 0.0
C454 C 0.79111 0.96768 0.95063 0.0
C455 C 0.78604 0.97324 0.90189 0.0
C456 C 0.80453 0.9925 0.87367 0.0
C457 C 0.82782 0.00602 0.89511 0.0
C458 C 0.83301 0.0005 0.94271 0.0
C459 C 0.85759 0.02044 0.96178 0.0
C460 C 0.85503 0.03086 0.01275 0.0
C461 C 0.87578 0.01109 0.96594 0.0
C462 C 0.86465 0.03886 0.91925 0.0
C463 C 0.84782 0.02982 0.8801 0.0
C464 C 0.8491 0.04452 0.83933 0.0
C465 C 0.8672 0.06936 0.83993 0.0
C466 C 0.88328 0.07927 0.8817 0.0
C467 C 0.8827 0.06356 0.9204 0.0
H468 H 0.88683 0.7369 0.91068 0.0
H469 H 0.90323 0.80802 0.85492 0.0
H470 H 0.94757 0.82119 0.85341 0.0
H471 H 0.93215 0.75593 0.99502 0.0
H472 H 0.9387 0.73153 0.9859 0.0
H473 H 0.90875 0.72656 0.97191 0.0
H474 H 0.91191 0.71362 0.88032 0.0
H475 H 0.94201 0.71849 0.89414 0.0
H476 H 0.93756 0.73387 0.84112 0.0
H477 H 0.98998 0.82834 0.87416 0.0
H478 H 0.02569 0.82897 0.91428 0.0
H479 H 0.98033 0.75231 0.95374 0.0
C480 C 0.89975 0.75505 0.89685 0.0
C481 C 0.89194 0.77158 0.88316 0.0
C482 C 0.90909 0.79515 0.86526 0.0
C483 C 0.93419 0.80267 0.86419 0.0
C484 C 0.94144 0.78608 0.87985 0.0
C485 C 0.92454 0.76258 0.895 0.0
C486 C 0.93668 0.74896 0.91536 0.0
C487 C 0.9286 0.74027 0.97028 0.0
C488 C 0.93175 0.72747 0.88064 0.0
C489 C 0.96313 0.76895 0.9127 0.0
C490 C 0.96569 0.79008 0.89107 0.0
C491 C 0.98825 0.81172 0.88995 0.0
C492 C 0.00843 0.8119 0.91288 0.0
C493 C 0.00576 0.79066 0.93717 0.0
C494 C 0.98302 0.76878 0.93516 0.0
H495 H 0.77163 0.77578 0.05882 0.0
H496 H 0.84921 0.8174 0.02586 0.0
H497 H 0.85208 0.85302 0.07149 0.0
H498 H 0.75821 0.81922 0.03458 0.0
H499 H 0.73602 0.8117 0.0844 0.0
H500 H 0.7417 0.78859 0.05997 0.0
H501 H 0.75188 0.78038 0.15063 0.0
H502 H 0.74637 0.80377 0.17533 0.0
H503 H 0.7752 0.80524 0.18715 0.0
H504 H 0.84407 0.88622 0.10237 0.0
H505 H 0.82596 0.91278 0.11501 0.0
H506 H 0.75446 0.8486 0.13266 0.0
C507 C 0.78936 0.79219 0.06261 0.0
C508 C 0.81017 0.79403 0.0389 0.0
C509 C 0.83309 0.81568 0.04424 0.0
C510 C 0.83487 0.83592 0.07023 0.0
C511 C 0.81371 0.83382 0.09182 0.0
C512 C 0.79146 0.81223 0.08907 0.0
C513 C 0.77083 0.81521 0.10974 0.0
C514 C 0.75054 0.8083 0.06978 0.0
C515 C 0.76047 0.80026 0.15863 0.0
C516 C 0.78449 0.84231 0.12071 0.0
C517 C 0.80933 0.85276 0.11147 0.0
C518 C 0.82485 0.87816 0.11159 0.0
C519 C 0.81452 0.89314 0.11908 0.0
C520 C 0.78901 0.88252 0.126 0.0
C521 C 0.77415 0.85695 0.12914 0.0
H522 H 0.18477 0.98439 0.95957 0.0
H523 H 0.20112 0.01732 0.10856 0.0
H524 H 0.16396 0.98105 0.14299 0.0
H525 H 0.11832 0.95812 0.96994 0.0
H526 H 0.11199 0.93139 0.93385 0.0
H527 H 0.13945 0.96014 0.92169 0.0
H528 H 0.16599 0.93993 0.93708 0.0
H529 H 0.13862 0.91114 0.94807 0.0
H530 H 0.16242 0.92354 0.99537 0.0
H531 H 0.12726 0.93854 0.16142 0.0
H532 H 0.0953 0.89464 0.16158 0.0
H533 H 0.10065 0.89341 -0.00212 0.0
C534 C 0.18052 0.98382 -0.00052 0.0
C535 C 0.1958 0.0031 0.03189 0.0
C536 C 0.18957 0.00232 0.08358 0.0
C537 C 0.16849 0.98197 0.10322 0.0
C538 C 0.15357 0.96316 0.07006 0.0
C539 C 0.15923 0.96416 0.01913 0.0
C540 C 0.14056 0.94173 0.99122 0.0
C541 C 0.12677 0.94825 0.95186 0.0
C542 C 0.15262 0.92829 0.96653 0.0
C543 C 0.12408 0.92732 0.03472 0.0
C544 C 0.13165 0.93986 0.08 0.0
C545 C 0.12079 0.92875 0.12602 0.0
C546 C 0.10252 0.90387 0.12579 0.0
C547 C 0.09545 0.89062 0.07977 0.0
C548 C 0.10549 0.90302 0.03373 0.0
H549 H 0.10132 0.24612 0.07541 0.0
H550 H 0.0911 0.17738 0.13306 0.0
H551 H 0.04603 0.15907 0.12446 0.0
H552 H 0.04378 0.24101 0.13014 0.0
H553 H 0.03966 0.25515 0.0745 0.0
H554 H 0.07008 0.26364 0.09556 0.0
H555 H 0.0796 0.25312 0.00671 0.0
H556 H 0.0492 0.24417 0.98562 0.0
H557 H 0.06028 0.22291 0.98126 0.0
H558 H 0.00316 0.14693 0.0947 0.0
H559 H 0.96634 0.14235 0.05179 0.0
H560 H 0.00573 0.21962 0.01349 0.0
C561 C 0.08951 0.22742 0.08787 0.0
C562 C 0.09944 0.21307 0.10503 0.0
C563 C 0.08366 0.18867 0.12053 0.0
C564 C 0.05813 0.17818 0.11556 0.0
C565 C 0.04897 0.1926 0.09599 0.0
C566 C 0.06426 0.21688 0.08334 0.0
C567 C 0.0505 0.22794 0.05833 0.0
C568 C 0.05103 0.24813 0.09164 0.0
C569 C 0.06049 0.23758 0.00483 0.0
C570 C 0.02517 0.20579 0.05633 0.0
C571 C 0.02448 0.18566 0.07889 0.0
C572 C 0.0034 0.1627 0.07793 0.0
C573 C 0.98261 0.16028 0.05316 0.0
C574 C 0.98311 0.18067 0.02927 0.0
C575 C 0.00463 0.20373 0.03171 0.0
H576 H 0.82303 0.49507 0.33557 0.0
H577 H 0.85965 0.54672 0.21389 0.0
H578 H 0.864 0.51517 0.16664 0.0
H579 H 0.86299 0.47338 0.33724 0.0
H580 H 0.84064 0.44231 0.35361 0.0
H581 H 0.83561 0.46684 0.37126 0.0
H582 H 0.79384 0.4453 0.32447 0.0
H583 H 0.79903 0.42082 0.306 0.0
H584 H 0.79271 0.43746 0.25852 0.0
H585 H 0.86824 0.47956 0.13749 0.0
H586 H 0.87877 0.44676 0.13611 0.0
H587 H 0.84232 0.41992 0.28027 0.0
C588 C 0.83129 0.49937 0.29826 0.0
C589 C 0.84059 0.52292 0.27752 0.0
C590 C 0.85217 0.52853 0.22971 0.0
C591 C 0.8545 0.51068 0.20259 0.0
C592 C 0.84534 0.48752 0.22427 0.0
C593 C 0.83426 0.48199 0.27144 0.0
C594 C 0.82975 0.45747 0.29043 0.0
C595 C 0.84306 0.46018 0.34108 0.0
C596 C 0.80219 0.43918 0.29511 0.0
C597 C 0.84098 0.45049 0.24768 0.0
C598 C 0.849 0.46755 0.2089 0.0
C599 C 0.86166 0.46589 0.16718 0.0
C600 C 0.86738 0.44708 0.16642 0.0
C601 C 0.86098 0.43073 0.20774 0.0
C602 C 0.84684 0.43191 0.24774 0.0
H603 H 0.53846 0.43754 0.33561 0.0
H604 H 0.55579 0.43425 0.17789 0.0
H605 H 0.52762 0.38918 0.17901 0.0
H606 H 0.53036 0.37845 0.37642 0.0
H607 H 0.50551 0.37323 0.41786 0.0
H608 H 0.52983 0.40397 0.40547 0.0
H609 H 0.49775 0.4156 0.37595 0.0
H610 H 0.47342 0.38488 0.38745 0.0
H611 H 0.47681 0.39842 0.32565 0.0
H612 H 0.49428 0.34388 0.1983 0.0
H613 H 0.45968 0.30502 0.23252 0.0
H614 H 0.46395 0.34173 0.37374 0.0
C615 C 0.53676 0.42744 0.30129 0.0
C616 C 0.54925 0.43939 0.25661 0.0
C617 C 0.54648 0.42537 0.2127 0.0
C618 C 0.5305 0.39982 0.21302 0.0
C619 C 0.51767 0.3888 0.25756 0.0
C620 C 0.52089 0.40236 0.30087 0.0
C621 C 0.50385 0.38724 0.34285 0.0
C622 C 0.51825 0.38562 0.38832 0.0
C623 C 0.48696 0.39713 0.35885 0.0
C624 C 0.48983 0.36307 0.31623 0.0
C625 C 0.49821 0.36387 0.26748 0.0
C626 C 0.48764 0.34317 0.2364 0.0
C627 C 0.46803 0.32128 0.25589 0.0
C628 C 0.45898 0.32075 0.30516 0.0
C629 C 0.47019 0.34185 0.33544 0.0
H630 H 0.57631 0.10178 0.18983 0.0
H631 H 0.58574 0.1738 0.21088 0.0
H632 H 0.63076 0.19153 0.21306 0.0
H633 H 0.61429 0.10695 0.2799 0.0
H634 H 0.62688 0.08978 0.25124 0.0
H635 H 0.59705 0.08391 0.23299 0.0
H636 H 0.61048 0.09238 0.13901 0.0
H637 H 0.64044 0.09792 0.15678 0.0
H638 H 0.63738 0.12073 0.12163 0.0
H639 H 0.67295 0.1998 0.23136 0.0
H640 H 0.70769 0.19795 0.26904 0.0
H641 H 0.67018 0.11964 0.24303 0.0
C642 C 0.58808 0.12146 0.1917 0.0
C643 C 0.57794 0.13669 0.19811 0.0
C644 C 0.59343 0.16213 0.20394 0.0
C645 C 0.61896 0.17226 0.20532 0.0
C646 C 0.62849 0.15656 0.20143 0.0
C647 C 0.61344 0.13163 0.19446 0.0
C648 C 0.6273 0.11803 0.20187 0.0
C649 C 0.61569 0.09855 0.24401 0.0
C650 C 0.629 0.10659 0.15183 0.0
C651 C 0.65206 0.1389 0.21749 0.0
C652 C 0.65268 0.16108 0.21514 0.0
C653 C 0.67284 0.18262 0.2323 0.0
C654 C 0.69251 0.18136 0.25378 0.0
C655 C 0.69164 0.15861 0.25907 0.0
C656 C 0.67147 0.13731 0.23913 0.0
H657 H 0.5039 0.16812 0.31405 0.0
H658 H 0.46143 0.11245 0.42553 0.0
H659 H 0.45863 0.14339 0.47823 0.0
H660 H 0.53534 0.22189 0.40148 0.0
H661 H 0.53178 0.2417 0.35735 0.0
H662 H 0.53532 0.2168 0.3343 0.0
H663 H 0.49477 0.19979 0.28356 0.0
H664 H 0.4916 0.22491 0.30544 0.0
H665 H 0.46725 0.19394 0.3161 0.0
H666 H 0.45699 0.17906 0.51411 0.0
H667 H 0.44806 0.21279 0.52028 0.0
H668 H 0.48851 0.2442 0.3818 0.0
C669 C 0.49451 0.16271 0.35017 0.0
C670 C 0.48312 0.1382 0.36644 0.0
C671 C 0.47031 0.1313 0.41289 0.0
C672 C 0.46895 0.14879 0.44323 0.0
C673 C 0.48031 0.17295 0.42613 0.0
C674 C 0.49242 0.17978 0.3801 0.0
C675 C 0.49913 0.2056 0.36581 0.0
C676 C 0.52706 0.22249 0.36469 0.0
C677 C 0.48747 0.20606 0.31476 0.0
C678 C 0.48785 0.21183 0.40971 0.0
C679 C 0.47809 0.19322 0.44531 0.0
C680 C 0.4649 0.19393 0.48699 0.0
C681 C 0.46013 0.2133 0.49055 0.0
C682 C 0.46792 0.23113 0.4518 0.0
C683 C 0.48296 0.23106 0.41246 0.0
H684 H 0.75606 0.25101 0.39041 0.0
H685 H 0.78732 0.23293 0.51735 0.0
H686 H 0.82189 0.27534 0.51917 0.0
H687 H 0.80393 0.27987 0.32484 0.0
H688 H 0.80036 0.30442 0.29952 0.0
H689 H 0.77394 0.27659 0.31934 0.0
H690 H 0.76138 0.30007 0.38113 0.0
H691 H 0.78741 0.32839 0.36024 0.0
H692 H 0.78318 0.32077 0.4267 0.0
H693 H 0.85854 0.3127 0.48688 0.0
H694 H 0.89082 0.34531 0.43369 0.0
H695 H 0.83544 0.3413 0.33123 0.0
C696 C 0.76924 0.25664 0.42098 0.0
C697 C 0.76894 0.23903 0.45429 0.0
C698 C 0.78692 0.24641 0.49253 0.0
C699 C 0.80678 0.27045 0.49341 0.0
C700 C 0.80786 0.28693 0.45674 0.0
C701 C 0.78897 0.28064 0.42251 0.0
C702 C 0.79608 0.30017 0.38217 0.0
C703 C 0.79343 0.28961 0.32837 0.0
C704 C 0.78113 0.31312 0.38793 0.0
C705 C 0.82264 0.31711 0.39585 0.0
C706 C 0.82906 0.30944 0.43945 0.0
C707 C 0.85352 0.31961 0.45421 0.0
C708 C 0.87174 0.33794 0.42371 0.0
C709 C 0.86532 0.346 0.37947 0.0
C710 C 0.84053 0.33589 0.36608 0.0
H711 H 0.6697 0.56276 0.40167 0.0
H712 H 0.61933 0.48491 0.38627 0.0
H713 H 0.65013 0.47631 0.42336 0.0
H714 H 0.72069 0.56332 0.36457 0.0
H715 H 0.74146 0.58598 0.4087 0.0
H716 H 0.71389 0.58561 0.39063 0.0
H717 H 0.70137 0.58229 0.48518 0.0
H718 H 0.72901 0.5825 0.50348 0.0
H719 H 0.69964 0.55786 0.52365 0.0
H720 H 0.6895 0.47679 0.44042 0.0
H721 H 0.73287 0.48679 0.44265 0.0
H722 H 0.75608 0.56349 0.4577 0.0
C723 C 0.66491 0.54392 0.40773 0.0
C724 C 0.6422 0.52454 0.39118 0.0
C725 C 0.63658 0.50007 0.39918 0.0
C726 C 0.65395 0.49499 0.42029 0.0
C727 C 0.67657 0.51455 0.43467 0.0
C728 C 0.68183 0.53854 0.42988 0.0
C729 C 0.70815 0.55632 0.44367 0.0
C730 C 0.72183 0.5738 0.39925 0.0
C731 C 0.70962 0.57058 0.49187 0.0
C732 C 0.71733 0.53868 0.45341 0.0
C733 C 0.69885 0.5146 0.44855 0.0
C734 C 0.70394 0.49545 0.44675 0.0
C735 C 0.72854 0.50117 0.4483 0.0
C736 C 0.74745 0.52574 0.45257 0.0
C737 C 0.74168 0.54447 0.45713 0.0
H738 H 0.50378 0.76297 0.63426 0.0
H739 H 0.53599 0.78349 0.48462 0.0
H740 H 0.5249 0.81571 0.48069 0.0
H741 H 0.45538 0.78351 0.61719 0.0
H742 H 0.46066 0.79429 0.68167 0.0
H743 H 0.46244 0.76755 0.66499 0.0
H744 H 0.50604 0.78776 0.7033 0.0
H745 H 0.50473 0.81461 0.71902 0.0
H746 H 0.52929 0.81718 0.67984 0.0
H747 H 0.52202 0.85247 0.50306 0.0
H748 H 0.52547 0.88849 0.54817 0.0
H749 H 0.49668 0.84498 0.68408 0.0
C750 C 0.50735 0.77342 0.5996 0.0
C751 C 0.52079 0.7708 0.55989 0.0
C752 C 0.52547 0.78499 0.51535 0.0
C753 C 0.51925 0.80341 0.51284 0.0
C754 C 0.508 0.80705 0.55476 0.0
C755 C 0.50154 0.79199 0.59694 0.0
C756 C 0.49392 0.80218 0.6406 0.0
C757 C 0.46646 0.78591 0.65175 0.0
C758 C 0.50944 0.80565 0.68841 0.0
C759 C 0.49934 0.82639 0.61818 0.0
C760 C 0.50658 0.82858 0.56804 0.0
C761 C 0.51555 0.85065 0.54166 0.0
C762 C 0.51757 0.871 0.56744 0.0
C763 C 0.51098 0.86906 0.61901 0.0
C764 C 0.50124 0.84647 0.64419 0.0
H765 H 0.11446 0.67738 0.61778 0.0
H766 H 0.15338 0.63696 0.61588 0.0
H767 H 0.18879 0.67209 0.57593 0.0
H768 H 0.13991 0.71057 0.4958 0.0
H769 H 0.14165 0.73812 0.51952 0.0
H770 H 0.11807 0.70869 0.54215 0.0
H771 H 0.13214 0.72201 0.63478 0.0
H772 H 0.15544 0.75147 0.61242 0.0
H773 H 0.16372 0.73329 0.65145 0.0
H774 H 0.22222 0.71356 0.54861 0.0
H775 H 0.25043 0.75811 0.5367 0.0
H776 H 0.18934 0.77064 0.55075 0.0
C777 C 0.13026 0.67575 0.60818 0.0
C778 C 0.13105 0.65436 0.62003 0.0
C779 C 0.15221 0.65309 0.60709 0.0
C780 C 0.17244 0.67293 0.58411 0.0
C781 C 0.17118 0.69385 0.57343 0.0
C782 C 0.15055 0.69532 0.58469 0.0
C783 C 0.15455 0.72051 0.57291 0.0
C784 C 0.13753 0.71939 0.53004 0.0
C785 C 0.15129 0.73252 0.62073 0.0
C786 C 0.18098 0.73325 0.55558 0.0
C787 C 0.19022 0.71752 0.55547 0.0
C788 C 0.21504 0.72591 0.54685 0.0
C789 C 0.23092 0.75113 0.53977 0.0
C790 C 0.22173 0.76739 0.54087 0.0
C791 C 0.19645 0.75825 0.54744 0.0
H792 H 0.22865 0.42003 0.53293 0.0
H793 H 0.23164 0.48977 0.54175 0.0
H794 H 0.27649 0.51047 0.55488 0.0
H795 H 0.26305 0.42879 0.63298 0.0
H796 H 0.27903 0.41348 0.61178 0.0
H797 H 0.24953 0.40498 0.58593 0.0
H798 H 0.26717 0.41367 0.49493 0.0
H799 H 0.29679 0.42161 0.52025 0.0
H800 H 0.29352 0.44292 0.48013 0.0
H801 H 0.3182 0.52197 0.58488 0.0
H802 H 0.35353 0.52393 0.62872 0.0
H803 H 0.3227 0.44582 0.60674 0.0
C804 C 0.23914 0.43983 0.53432 0.0
C805 C 0.22717 0.45358 0.53424 0.0
C806 C 0.24085 0.47922 0.53965 0.0
C807 C 0.26625 0.49102 0.54741 0.0
C808 C 0.27744 0.47677 0.55016 0.0
C809 C 0.26433 0.45169 0.54325 0.0
C810 C 0.27941 0.43996 0.55729 0.0
C811 C 0.26701 0.42069 0.59949 0.0
C812 C 0.28453 0.42889 0.51034 0.0
C813 C 0.30253 0.46211 0.57605 0.0
C814 C 0.30129 0.48322 0.57025 0.0
C815 C 0.31959 0.50565 0.58859 0.0
C816 C 0.33954 0.50651 0.61378 0.0
C817 C 0.34092 0.48499 0.62128 0.0
C818 C 0.32229 0.46261 0.60136 0.0
H819 H 0.14442 0.56167 0.70919 0.0
H820 H 0.09221 0.52865 0.8316 0.0
H821 H 0.09644 0.492 0.82725 0.0
H822 H 0.12396 0.51454 0.6361 0.0
H823 H 0.15231 0.51774 0.6132 0.0
H824 H 0.15141 0.54416 0.6349 0.0
H825 H 0.1857 0.55394 0.70022 0.0
H826 H 0.18754 0.52803 0.67744 0.0
H827 H 0.18263 0.53058 0.74386 0.0
H828 H 0.09604 0.45536 0.79125 0.0
H829 H 0.09917 0.42425 0.73974 0.0
H830 H 0.15431 0.48176 0.64583 0.0
C831 C 0.1351 0.54731 0.73707 0.0
C832 C 0.11814 0.54791 0.77082 0.0
C833 C 0.10565 0.52867 0.80608 0.0
C834 C 0.10779 0.50767 0.80359 0.0
C835 C 0.12312 0.50672 0.76685 0.0
C836 C 0.13745 0.52649 0.73569 0.0
C837 C 0.15043 0.51995 0.69591 0.0
C838 C 0.14412 0.52435 0.64189 0.0
C839 C 0.17823 0.53395 0.70492 0.0
C840 C 0.13957 0.49299 0.70682 0.0
C841 C 0.12392 0.48566 0.74797 0.0
C842 C 0.10901 0.46099 0.76035 0.0
C843 C 0.1106 0.44347 0.73058 0.0
C844 C 0.12715 0.45085 0.68954 0.0
C845 C 0.14192 0.47585 0.67789 0.0
H846 H 0.49133 0.67226 0.69114 0.0
H847 H 0.55166 0.66984 0.76355 0.0
H848 H 0.52251 0.63736 0.82147 0.0
H849 H 0.44914 0.65474 0.80394 0.0
H850 H 0.42273 0.63573 0.76542 0.0
H851 H 0.44833 0.66274 0.73866 0.0
H852 H 0.45228 0.63677 0.66705 0.0
H853 H 0.42627 0.61017 0.6927 0.0
H854 H 0.4547 0.61038 0.68384 0.0
H855 H 0.48707 0.60238 0.86401 0.0
H856 H 0.45023 0.56168 0.86957 0.0
H857 H 0.41264 0.58475 0.76574 0.0
C858 C 0.49836 0.66522 0.72007 0.0
C859 C 0.52362 0.67359 0.72353 0.0
C860 C 0.53228 0.66357 0.76053 0.0
C861 C 0.51591 0.64546 0.79406 0.0
C862 C 0.49096 0.63751 0.78973 0.0
C863 C 0.48222 0.64673 0.7528 0.0
C864 C 0.4546 0.63193 0.74897 0.0
C865 C 0.44302 0.6472 0.76523 0.0
C866 C 0.44651 0.62169 0.695 0.0
C867 C 0.44922 0.61195 0.78723 0.0
C868 C 0.47029 0.61625 0.81236 0.0
C869 C 0.47041 0.599 0.84525 0.0
C870 C 0.4492 0.57596 0.84883 0.0
C871 C 0.42866 0.57021 0.81804 0.0
C872 C 0.42798 0.58901 0.79043 0.0
H873 H 0.42473 0.85909 0.72229 0.0
H874 H 0.43984 0.91075 0.8434 0.0
H875 H 0.39753 0.90324 0.83748 0.0
H876 H 0.39524 0.87601 0.6473 0.0
H877 H 0.37173 0.84665 0.62448 0.0
H878 H 0.40013 0.85023 0.64717 0.0
H879 H 0.37738 0.81546 0.71261 0.0
H880 H 0.34862 0.81106 0.68904 0.0
H881 H 0.35577 0.81657 0.75554 0.0
H882 H 0.35968 0.89996 0.80054 0.0
H883 H 0.32495 0.89437 0.74712 0.0
H884 H 0.33237 0.84182 0.65507 0.0
C885 C 0.41852 0.86757 0.74957 0.0
C886 C 0.43512 0.88512 0.78381 0.0
C887 C 0.42702 0.89676 0.81789 0.0
C888 C 0.4031 0.89272 0.81447 0.0
C889 C 0.38753 0.87647 0.77781 0.0
C890 C 0.39458 0.86329 0.74729 0.0
C891 C 0.37549 0.84904 0.70727 0.0
C892 C 0.38631 0.85592 0.65343 0.0
C893 C 0.3636 0.82139 0.7167 0.0
C894 C 0.35761 0.85784 0.71729 0.0
C895 C 0.36477 0.87355 0.75829 0.0
C896 C 0.35328 0.88691 0.76978 0.0
C897 C 0.33384 0.88388 0.739 0.0
C898 C 0.32599 0.86743 0.6978 0.0
C899 C 0.33775 0.854 0.68734 0.0
H900 H 0.15381 0.28689 0.9102 0.0
H901 H 0.20053 0.34995 0.00336 0.0
H902 H 0.20141 0.37731 0.93518 0.0
H903 H 0.18373 0.31112 0.79619 0.0
H904 H 0.15638 0.29751 0.75795 0.0
H905 H 0.15724 0.28292 0.81591 0.0
H906 H 0.11891 0.28361 0.84899 0.0
H907 H 0.11765 0.29781 0.79069 0.0
H908 H 0.11894 0.31215 0.85045 0.0
H909 H 0.19924 0.39756 0.85404 0.0
H910 H 0.19253 0.40901 0.76835 0.0
H911 H 0.14839 0.33209 0.72961 0.0
C912 C 0.16393 0.30643 0.91678 0.0
C913 C 0.17709 0.31631 0.96204 0.0
C914 C 0.19015 0.342 0.96904 0.0
C915 C 0.19084 0.35766 0.93051 0.0
C916 C 0.17827 0.34725 0.88566 0.0
C917 C 0.16486 0.32221 0.87895 0.0
C918 C 0.1538 0.31548 0.82666 0.0
C919 C 0.16337 0.30091 0.79748 0.0
C920 C 0.12566 0.30144 0.82938 0.0
C921 C 0.16347 0.34068 0.80449 0.0
C922 C 0.17739 0.3588 0.83905 0.0
C923 C 0.18827 0.38353 0.82674 0.0
C924 C 0.18444 0.38983 0.778 0.0
C925 C 0.17003 0.37143 0.7423 0.0
C926 C 0.15967 0.3466 0.75582 0.0
H927 H 0.70116 0.8622 0.91538 0.0
H928 H 0.64739 0.82653 0.03486 0.0
H929 H 0.61554 0.80389 0.97041 0.0
H930 H 0.66262 0.871 0.8324 0.0
H931 H 0.67483 0.86541 0.77555 0.0
H932 H 0.69387 0.87748 0.83089 0.0
H933 H 0.70266 0.84148 0.8304 0.0
H934 H 0.68425 0.82975 0.77419 0.0
H935 H 0.67737 0.81048 0.82927 0.0
H936 H 0.58925 0.78632 0.892 0.0
H937 H 0.57183 0.77217 0.80653 0.0
H938 H 0.643 0.82124 0.74037 0.0
C939 C 0.68284 0.84925 0.92823 0.0
C940 C 0.67682 0.84608 0.9802 0.0
C941 C 0.65248 0.82918 0.9952 0.0
C942 C 0.63422 0.81636 0.9589 0.0
C943 C 0.64063 0.82073 0.90791 0.0
C944 C 0.66442 0.83653 0.89267 0.0
C945 C 0.66657 0.83843 0.8357 0.0
C946 C 0.67496 0.86464 0.8176 0.0
C947 C 0.68371 0.82949 0.81627 0.0
C948 C 0.64028 0.82109 0.82116 0.0
C949 C 0.62551 0.8111 0.86318 0.0
C950 C 0.60064 0.79403 0.85878 0.0
C951 C 0.59086 0.78626 0.81008 0.0
C952 C 0.60602 0.79559 0.76668 0.0
C953 C 0.63083 0.8138 0.7726 0.0
H954 H 0.17988 0.84153 0.72091 0.0
H955 H 0.22641 0.81445 0.77852 0.0
H956 H 0.20814 0.80967 0.86335 0.0
H957 H 0.18299 0.8761 0.83012 0.0
H958 H 0.15153 0.86876 0.82585 0.0
H959 H 0.16798 0.86975 0.76936 0.0
H960 H 0.13462 0.82529 0.74741 0.0
H961 H 0.1179 0.82431 0.80338 0.0
H962 H 0.12649 0.80139 0.79367 0.0
H963 H 0.18525 0.80847 0.94202 0.0
H964 H 0.15692 0.80775 0.00726 0.0
H965 H 0.12596 0.83596 0.89725 0.0
C966 C 0.18615 0.83442 0.75117 0.0
C967 C 0.20458 0.82838 0.74307 0.0
C968 C 0.21227 0.81917 0.78381 0.0
C969 C 0.20211 0.8165 0.83217 0.0
C970 C 0.18435 0.82313 0.839 0.0
C971 C 0.17629 0.83168 0.79953 0.0
C972 C 0.15679 0.83726 0.81662 0.0
C973 C 0.16535 0.86459 0.8101 0.0
C974 C 0.13252 0.82109 0.78862 0.0
C975 C 0.15502 0.83035 0.87188 0.0
C976 C 0.17118 0.82242 0.8842 0.0
C977 C 0.17252 0.81467 0.9329 0.0
C978 C 0.15643 0.81443 0.96971 0.0
C979 C 0.13921 0.82178 0.95734 0.0
C980 C 0.13893 0.83028 0.908 0.0
H981 H 0.82327 0.70147 0.10491 0.0
H982 H 0.76713 0.64142 0.01679 0.0
H983 H 0.75919 0.61341 0.08812 0.0
H984 H 0.84748 0.66773 0.16243 0.0
H985 H 0.8532 0.68279 0.22294 0.0
H986 H 0.85329 0.69868 0.16623 0.0
H987 H 0.82037 0.70677 0.20539 0.0
H988 H 0.82002 0.69067 0.26214 0.0
H989 H 0.792 0.68137 0.22786 0.0
H990 H 0.75924 0.59118 0.16528 0.0
H991 H 0.76848 0.57586 0.24348 0.0
H992 H 0.82354 0.65003 0.28345 0.0
C993 C 0.80919 0.68248 0.10076 0.0
C994 C 0.79594 0.6737 0.05509 0.0
C995 C 0.77771 0.64865 0.05118 0.0
C996 C 0.77291 0.63255 0.09163 0.0
C997 C 0.78627 0.64177 0.13602 0.0
C998 C 0.80405 0.6661 0.14095 0.0
C999 C 0.81669 0.67089 0.19192 0.0
C1000 C 0.84429 0.68058 0.18547 0.0
C1001 C 0.81198 0.68846 0.22371 0.0
C1002 C 0.80366 0.6453 0.21411 0.0
C1003 C 0.786 0.62886 0.18137 0.0
C1004 C 0.77276 0.60388 0.19164 0.0
C1005 C 0.77814 0.59536 0.23603 0.0
C1006 C 0.79652 0.6118 0.26957 0.0
C1007 C 0.809 0.63714 0.25902 0.0
H1008 H 0.32842 0.15104 0.07106 0.0
H1009 H 0.25801 0.10114 0.13933 0.0
H1010 H 0.27601 0.11495 0.22425 0.0
H1011 H 0.36573 0.14355 0.16322 0.0
H1012 H 0.38943 0.17527 0.16231 0.0
H1013 H 0.37119 0.16154 0.10654 0.0
H1014 H 0.35858 0.19481 0.10388 0.0
H1015 H 0.37727 0.20898 0.15879 0.0
H1016 H 0.34532 0.20011 0.15944 0.0
H1017 H 0.3018 0.13327 0.30126 0.0
H1018 H 0.3318 0.15963 0.36522 0.0
H1019 H 0.38517 0.19789 0.24619 0.0
C1020 C 0.3167 0.14313 0.10381 0.0
C1021 C 0.29184 0.12497 0.0986 0.0
C1022 C 0.2771 0.11517 0.14241 0.0
C1023 C 0.2872 0.12269 0.19079 0.0
C1024 C 0.31197 0.14005 0.19453 0.0
C1025 C 0.32641 0.15047 0.15225 0.0
C1026 C 0.35226 0.16949 0.16659 0.0
C1027 C 0.37073 0.162 0.14859 0.0
C1028 C 0.35873 0.19485 0.14597 0.0
C1029 C 0.35001 0.16836 0.22364 0.0
C1030 C 0.32675 0.15096 0.23897 0.0
C1031 C 0.32008 0.14698 0.28979 0.0
C1032 C 0.33734 0.16198 0.32585 0.0
C1033 C 0.36084 0.18093 0.3107 0.0
C1034 C 0.36743 0.18353 0.25903 0.0
H1035 H 0.80203 0.18884 0.22376 0.0
H1036 H 0.84468 0.18125 0.34432 0.0
H1037 H 0.8664 0.1704 0.28134 0.0
H1038 H 0.79204 0.13868 0.15585 0.0
H1039 H 0.79474 0.15172 0.09374 0.0
H1040 H 0.78507 0.16282 0.14646 0.0
H1041 H 0.82051 0.20716 0.13054 0.0
H1042 H 0.82967 0.19635 0.07642 0.0
H1043 H 0.85146 0.21296 0.12578 0.0
H1044 H 0.87932 0.15487 0.2069 0.0
H1045 H 0.88812 0.14318 0.12376 0.0
H1046 H 0.83635 0.16035 0.05296 0.0
C1047 C 0.81656 0.18582 0.23689 0.0
C1048 C 0.82155 0.18582 0.28906 0.0
C1049 C 0.84051 0.1814 0.30455 0.0
C1050 C 0.85285 0.17504 0.2691 0.0
C1051 C 0.8462 0.17348 0.21838 0.0
C1052 C 0.82899 0.17939 0.2021 0.0
C1053 C 0.82433 0.17514 0.14583 0.0
C1054 C 0.79745 0.15595 0.13488 0.0
C1055 C 0.83196 0.19934 0.11801 0.0
C1056 C 0.84122 0.16542 0.13328 0.0
C1057 C 0.85364 0.16453 0.17558 0.0
C1058 C 0.86995 0.15578 0.17333 0.0
C1059 C 0.87459 0.1489 0.12602 0.0
C1060 C 0.86298 0.15089 0.08174 0.0
C1061 C 0.84554 0.15857 0.08598 0.0
H1062 H 0.49032 0.96308 0.57612 0.0
H1063 H 0.52901 0.02328 0.68143 0.0
H1064 H 0.53398 0.0525 0.61397 0.0
H1065 H 0.52761 0.99113 0.47294 0.0
H1066 H 0.50355 0.97885 0.42621 0.0
H1067 H 0.50008 0.96228 0.48403 0.0
H1068 H 0.45958 0.96172 0.50404 0.0
H1069 H 0.46257 0.97775 0.44557 0.0
H1070 H 0.45922 0.99007 0.50456 0.0
H1071 H 0.53805 0.0753 0.53279 0.0
H1072 H 0.53741 0.08963 0.44587 0.0
H1073 H 0.49704 0.01416 0.3948 0.0
C1074 C 0.49928 0.98234 0.58552 0.0
C1075 C 0.50925 0.99086 0.63408 0.0
C1076 C 0.52109 0.01628 0.64454 0.0
C1077 C 0.52411 0.03304 0.60643 0.0
C1078 C 0.51504 0.02405 0.55835 0.0
C1079 C 0.50252 -0.00073 0.54804 0.0
C1080 C 0.49558 0.99433 0.49278 0.0
C1081 C 0.50742 0.98086 0.46753 0.0
C1082 C 0.46758 0.98013 0.48638 0.0
C1083 C 0.50661 0.02022 0.47339 0.0
C1084 C 0.51766 0.03714 0.51169 0.0
C1085 C 0.52928 0.06222 0.50252 0.0
C1086 C 0.52897 0.07017 0.45301 0.0
C1087 C 0.51724 0.05303 0.41349 0.0
C1088 C 0.5063 0.02778 0.42398 0.0
H1089 H -0.00078 0.51145 0.58451 0.0
H1090 H 0.0736 0.55143 0.52635 0.0
H1091 H 0.05818 0.53541 0.44072 0.0
H1092 H 0.97899 0.45799 0.50873 0.0
H1093 H 0.94865 0.45347 0.50024 0.0
H1094 H 0.96584 0.46836 0.55638 0.0
H1095 H 0.9603 0.50559 0.53718 0.0
H1096 H 0.94349 0.491 0.48038 0.0
H1097 H 0.97026 0.52104 0.47703 0.0
H1098 H 0.03462 0.51513 0.3618 0.0
H1099 H 0.00525 0.48871 0.29682 0.0
H1100 H 0.94643 0.46255 0.40739 0.0
C1101 C 0.01237 0.51675 0.55396 0.0
C1102 C 0.03763 0.53269 0.56216 0.0
C1103 C 0.05416 0.53918 0.521 0.0
C1104 C 0.04557 0.53033 0.47219 0.0
C1105 C 0.02047 0.51513 0.46534 0.0
C1106 C 0.00415 0.50821 0.50517 0.0
C1107 C 0.97815 0.49124 0.48809 0.0
C1108 C 0.96728 0.46629 0.51494 0.0
C1109 C 0.96211 0.50293 0.49615 0.0
C1110 C 0.98242 0.48929 0.43244 0.0
C1111 C 0.0069 0.50346 0.41993 0.0
C1112 C 0.01539 0.50401 0.37106 0.0
C1113 C -0.00148 0.48898 0.33439 0.0
C1114 C 0.97351 0.4735 0.34702 0.0
C1115 C 0.96536 0.47425 0.39639 0.0
H1116 H 0.49748 0.52904 0.62375 0.0
H1117 H 0.44944 0.55367 0.56359 0.0
H1118 H 0.46965 0.56059 0.48027 0.0
H1119 H 0.5525 0.56875 0.54346 0.0
H1120 H 0.55938 0.54446 0.53643 0.0
H1121 H 0.54536 0.54694 0.59387 0.0
H1122 H 0.51001 0.50247 0.58304 0.0
H1123 H 0.52343 0.49954 0.52546 0.0
H1124 H 0.49241 0.49372 0.52526 0.0
H1125 H 0.48991 0.55761 0.40054 0.0
H1126 H 0.51047 0.54771 0.33266 0.0
H1127 H 0.54325 0.52307 0.44604 0.0
C1128 C 0.49176 0.53679 0.59371 0.0
C1129 C 0.47185 0.54078 0.60019 0.0
C1130 C 0.46475 0.55058 0.55959 0.0
C1131 C 0.47611 0.55454 0.51209 0.0
C1132 C 0.49459 0.54879 0.50617 0.0
C1133 C 0.50263 0.5405 0.54621 0.0
C1134 C 0.52045 0.53264 0.52906 0.0
C1135 C 0.54594 0.54919 0.55203 0.0
C1136 C 0.51099 0.50549 0.54143 0.0
C1137 C 0.52036 0.53673 0.47278 0.0
C1138 C 0.50571 0.54644 0.46023 0.0
C1139 C 0.50173 0.55037 0.41001 0.0
C1140 C 0.51328 0.54446 0.37173 0.0
C1141 C 0.52829 0.5344 0.38402 0.0
C1142 C 0.5318 0.53059 0.43527 0.0
H1143 H 0.26603 0.25093 0.15738 0.0
H1144 H 0.20023 0.20126 0.24071 0.0
H1145 H 0.22593 0.19933 0.3096 0.0
H1146 H 0.30375 0.22487 0.19596 0.0
H1147 H 0.33091 0.2546 0.19982 0.0
H1148 H 0.30709 0.24935 0.15538 0.0
H1149 H 0.30463 0.28573 0.19423 0.0
H1150 H 0.32804 0.29077 0.23946 0.0
H1151 H 0.29877 0.28568 0.26107 0.0
H1152 H 0.25956 0.20443 0.3707 0.0
H1153 H 0.29776 0.21604 0.41814 0.0
H1154 H 0.34031 0.26486 0.29587 0.0
C1155 C 0.25686 0.23914 0.18946 0.0
C1156 C 0.23106 0.22605 0.19341 0.0
C1157 C 0.21996 0.21129 0.23668 0.0
C1158 C 0.2344 0.21014 0.276 0.0
C1159 C 0.25983 0.22401 0.27144 0.0
C1160 C 0.27089 0.23815 0.22909 0.0
C1161 C 0.29841 0.25264 0.23431 0.0
C1162 C 0.31076 0.24489 0.19399 0.0
C1163 C 0.30801 0.28034 0.23215 0.0
C1164 C 0.30124 0.24472 0.28661 0.0
C1165 C 0.27887 0.22795 0.30728 0.0
C1166 C 0.27713 0.21762 0.35491 0.0
C1167 C 0.29886 0.22438 0.38161 0.0
C1168 C 0.32188 0.24163 0.36092 0.0
C1169 C 0.32294 0.25205 0.31309 0.0
H1170 H 0.7354 0.07893 0.25925 0.0
H1171 H 0.78693 0.09123 0.38034 0.0
H1172 H 0.79613 0.06125 0.34166 0.0
H1173 H 0.71125 0.01505 0.24741 0.0
H1174 H 0.70866 0.01491 0.17938 0.0
H1175 H 0.70686 0.03793 0.21598 0.0
H1176 H 0.74238 0.0718 0.16321 0.0
H1177 H 0.74443 0.04884 0.1267 0.0
H1178 H 0.77108 0.07221 0.15902 0.0
H1179 H 0.79798 0.02816 0.29226 0.0
H1180 H 0.79206 0.99442 0.23585 0.0
H1181 H 0.74064 0.00532 0.14582 0.0
C1182 C 0.74859 0.0753 0.27769 0.0
C1183 C 0.76034 0.08733 0.32293 0.0
C1184 C 0.77768 0.08223 0.34561 0.0
C1185 C 0.78309 0.06528 0.3239 0.0
C1186 C 0.77123 0.0538 0.27919 0.0
C1187 C 0.75442 0.05866 0.25625 0.0
C1188 C 0.74396 0.0436 0.2088 0.0
C1189 C 0.71603 0.02688 0.21319 0.0
C1190 C 0.75089 0.0601 0.16165 0.0
C1191 C 0.75702 0.02904 0.20943 0.0
C1192 C 0.77279 0.03525 0.25011 0.0
C1193 C 0.78589 0.0233 0.2599 0.0
C1194 C 0.78241 0.00417 0.22768 0.0
C1195 C 0.76601 -0.00273 0.18623 0.0
C1196 C 0.75357 0.01028 0.17672 0.0
H1197 H 0.91704 0.64444 0.28246 0.0
H1198 H 0.90116 0.68554 0.39243 0.0
H1199 H 0.93175 0.7242 0.35164 0.0
H1200 H 0.98207 0.68684 0.27028 0.0
H1201 H 0.98204 0.68174 0.20312 0.0
H1202 H 0.96011 0.65774 0.24347 0.0
H1203 H 0.92482 0.6547 0.18769 0.0
H1204 H 0.94662 0.67892 0.14759 0.0
H1205 H 0.92239 0.68161 0.1773 0.0
H1206 H 0.96412 0.75855 0.29708 0.0
H1207 H -0.00485 0.78512 0.23364 0.0
H1208 H 0.98713 0.72038 0.15858 0.0
C1209 C 0.9203 0.66157 0.29858 0.0
C1210 C 0.90694 0.66203 0.34084 0.0
C1211 C 0.91132 0.68481 0.36009 0.0
C1212 C 0.92862 0.70685 0.3372 0.0
C1213 C 0.94115 0.70571 0.29487 0.0
C1214 C 0.93715 0.68362 0.27581 0.0
C1215 C 0.9521 0.68716 0.22873 0.0
C1216 C 0.97015 0.67782 0.23692 0.0
C1217 C 0.93549 0.67487 0.18262 0.0
C1218 C 0.96524 0.71469 0.22436 0.0
C1219 C 0.95887 0.72519 0.26282 0.0
C1220 C 0.9692 0.75051 0.26667 0.0
C1221 C 0.98673 0.76544 0.23047 0.0
C1222 C 0.99348 0.75488 0.19092 0.0
C1223 C 0.9823 0.72916 0.18792 0.0
H1224 H 0.74921 0.77581 0.82585 0.0
H1225 H 0.77194 0.73759 0.72295 0.0
H1226 H 0.73944 0.7319 0.66291 0.0
H1227 H 0.68796 0.7404 0.81182 0.0
H1228 H 0.68046 0.76444 0.81216 0.0
H1229 H 0.70766 0.76889 0.84366 0.0
H1230 H 0.73414 0.8079 0.79062 0.0
H1231 H 0.70702 0.80385 0.75911 0.0
H1232 H 0.73225 0.80641 0.72244 0.0
H1233 H 0.69934 0.72287 0.62374 0.0
H1234 H 0.6596 0.71903 0.59879 0.0
H1235 H 0.6657 0.76662 0.72269 0.0
C1236 C 0.74791 0.76713 0.78973 0.0
C1237 C 0.76305 0.75726 0.77866 0.0
C1238 C 0.76073 0.74564 0.73156 0.0
C1239 C 0.7422 0.74214 0.69748 0.0
C1240 C 0.72674 0.75103 0.7106 0.0
C1241 C 0.72999 0.76411 0.75473 0.0
C1242 C 0.71042 0.77105 0.76072 0.0
C1243 C 0.69577 0.76055 0.81 0.0
C1244 C 0.72163 0.79896 0.75805 0.0
C1245 C 0.69494 0.75871 0.71457 0.0
C1246 C 0.70452 0.74712 0.68622 0.0
C1247 C 0.69203 0.73247 0.64472 0.0
C1248 C 0.66944 0.73015 0.63117 0.0
C1249 C 0.65999 0.74273 0.65869 0.0
C1250 C 0.67289 0.75716 0.70072 0.0
H1251 H 0.28438 0.94461 0.69078 0.0
H1252 H 0.22653 0.92973 0.58342 0.0
H1253 H 0.2211 0.9623 0.62224 0.0
H1254 H 0.25448 0.95044 0.79405 0.0
H1255 H 0.28136 0.97422 0.82498 0.0
H1256 H 0.28396 0.95319 0.78326 0.0
H1257 H 0.31627 0.98932 0.72932 0.0
H1258 H 0.31404 0.01055 0.77135 0.0
H1259 H 0.30915 0.0116 0.70433 0.0
H1260 H 0.21969 0.99405 0.67757 0.0
H1261 H 0.22139 0.02126 0.74685 0.0
H1262 H 0.27807 0.01266 0.82078 0.0
C1263 C 0.27118 0.94883 0.67436 0.0
C1264 C 0.25616 0.93506 0.63367 0.0
C1265 C 0.23838 0.94035 0.61433 0.0
C1266 C 0.23521 0.9588 0.63604 0.0
C1267 C 0.24981 0.97156 0.67729 0.0
C1268 C 0.26744 0.96679 0.69625 0.0
C1269 C 0.27874 0.98097 0.74432 0.0
C1270 C 0.27436 0.96367 0.78928 0.0
C1271 C 0.30618 -0.0008 0.73686 0.0
C1272 C 0.26435 0.99403 0.75007 0.0
C1273 C 0.24809 0.98879 0.7106 0.0
C1274 C 0.23247 -0.00158 0.70852 0.0
C1275 C 0.23351 0.01378 0.74798 0.0
C1276 C 0.24969 0.01885 0.78926 0.0
C1277 C 0.26534 0.00892 0.78993 0.0
H1278 H 0.98105 0.25248 0.81788 0.0
H1279 H 0.97209 0.18813 0.73972 0.0
H1280 H 0.00212 0.21478 0.67506 0.0
H1281 H 0.98637 0.28765 0.70526 0.0
H1282 H 0.00871 0.31626 0.73324 0.0
H1283 H 0.98634 0.29208 0.7727 0.0
H1284 H 0.02105 0.29352 0.82784 0.0
H1285 H 0.04349 0.31779 0.78879 0.0
H1286 H 0.04493 0.29026 0.79797 0.0
H1287 H 0.0354 0.24883 0.62268 0.0
H1288 H 0.06799 0.28736 0.5849 0.0
H1289 H 0.05277 0.32899 0.69458 0.0
C1290 C 0.98538 0.24393 0.78721 0.0
C1291 C 0.97436 0.21821 0.78402 0.0
C1292 C 0.98033 0.20778 0.74292 0.0
C1293 C -0.00267 0.22277 0.70605 0.0
C1294 C 0.00786 0.24808 0.71047 0.0
C1295 C 0.00195 0.25853 0.74983 0.0
C1296 C 0.01585 0.28617 0.74627 0.0
C1297 C -0.00174 0.29612 0.73892 0.0
C1298 C 0.03231 0.2976 0.79298 0.0
C1299 C 0.03085 0.28973 0.69909 0.0
C1300 C 0.02608 0.26755 0.67908 0.0
C1301 C 0.03899 0.26627 0.63753 0.0
C1302 C 0.05744 0.28821 0.61636 0.0
C1303 C 0.06255 0.31109 0.63635 0.0
C1304 C 0.04879 0.31177 0.67772 0.0
H1305 H 0.92252 0.58919 0.47332 0.0
H1306 H 0.86161 0.54267 0.57218 0.0
H1307 H 0.89075 0.54558 0.63786 0.0
H1308 H 0.96139 0.5646 0.50995 0.0
H1309 H 0.9891 0.59388 0.50583 0.0
H1310 H 0.96329 0.58751 0.46637 0.0
H1311 H 0.96415 0.62624 0.50144 0.0
H1312 H 0.98963 0.6324 0.54184 0.0
H1313 H 0.96203 0.6294 0.56882 0.0
H1314 H 0.92615 0.55355 0.6928 0.0
H1315 H 0.96572 0.56327 0.731 0.0
H1316 H 0.00386 0.60566 0.59802 0.0
C1317 C 0.91524 0.57936 0.50852 0.0
C1318 C 0.88969 0.56567 0.51747 0.0
C1319 C 0.88104 0.55321 0.56426 0.0
C1320 C 0.89746 0.55487 0.60197 0.0
C1321 C 0.92247 0.56907 0.59238 0.0
C1322 C 0.93136 0.58087 0.54665 0.0
C1323 C 0.95912 0.5947 0.54587 0.0
C1324 C 0.96879 0.58456 0.50457 0.0
C1325 C 0.96932 0.62232 0.53909 0.0
C1326 C 0.96447 0.58888 0.59843 0.0
C1327 C 0.94301 0.57409 0.62458 0.0
C1328 C 0.94307 0.56526 0.67289 0.0
C1329 C 0.9656 0.57098 0.69436 0.0
C1330 C 0.98776 0.58555 0.66777 0.0
C1331 C 0.98722 0.5951 0.61971 0.0
H1332 H 0.39257 0.33003 0.50499 0.0
H1333 H 0.46054 0.33694 0.56058 0.0
H1334 H 0.46766 0.3727 0.6118 0.0
H1335 H 0.41331 0.39419 0.49559 0.0
H1336 H 0.38451 0.39071 0.51611 0.0
H1337 H 0.38518 0.36609 0.48333 0.0
H1338 H 0.36198 0.33676 0.55789 0.0
H1339 H 0.36125 0.36127 0.59095 0.0
H1340 H 0.37428 0.34479 0.6211 0.0
H1341 H 0.46724 0.40776 0.65616 0.0
H1342 H 0.45898 0.43871 0.6928 0.0
H1343 H 0.39057 0.40778 0.60922 0.0
C1344 C 0.40906 0.33907 0.52769 0.0
C1345 C 0.42608 0.33074 0.52865 0.0
C1346 C 0.44726 0.343 0.5593 0.0
C1347 C 0.45147 0.36333 0.58839 0.0
C1348 C 0.43424 0.37098 0.58649 0.0
C1349 C 0.41342 0.35915 0.55706 0.0
C1350 C 0.39748 0.37062 0.56228 0.0
C1351 C 0.39499 0.38102 0.5113 0.0
C1352 C 0.37226 0.35226 0.58438 0.0
C1353 C 0.41254 0.3908 0.59948 0.0
C1354 C 0.43374 0.3908 0.61272 0.0
C1355 C 0.45069 0.4079 0.64615 0.0
C1356 C 0.4458 0.42543 0.66668 0.0
C1357 C 0.42406 0.42565 0.65398 0.0
C1358 C 0.40726 0.40803 0.61991 0.0
H1359 H 0.6709 0.1078 0.55061 0.0
H1360 H 0.66376 0.06418 0.41762 0.0
H1361 H 0.63791 0.02673 0.46559 0.0
H1362 H 0.67398 0.06913 0.64193 0.0
H1363 H 0.65509 0.07242 0.68879 0.0
H1364 H 0.67216 0.09669 0.64405 0.0
H1365 H 0.63235 0.09542 0.61464 0.0
H1366 H 0.61525 0.07157 0.66023 0.0
H1367 H 0.60664 0.0668 0.59433 0.0
H1368 H 0.61762 0.99406 0.52886 0.0
H1369 H 0.59514 0.96705 0.60014 0.0
H1370 H 0.61149 0.03048 0.69195 0.0
C1371 C 0.6634 0.09041 0.53128 0.0
C1372 C 0.66974 0.08908 0.4804 0.0
C1373 C 0.65951 0.06586 0.45661 0.0
C1374 C 0.64483 0.04436 0.48359 0.0
C1375 C 0.63999 0.04623 0.53414 0.0
C1376 C 0.6482 0.06856 0.5575 0.0
C1377 C 0.63966 0.06502 0.61224 0.0
C1378 C 0.66153 0.0765 0.6489 0.0
C1379 C 0.62245 0.07531 0.62085 0.0
C1380 C 0.62595 0.03728 0.6159 0.0
C1381 C 0.62679 0.02696 0.57047 0.0
C1382 C 0.61645 0.00183 0.56451 0.0
C1383 C 0.60394 0.98665 0.60551 0.0
C1384 C 0.60148 0.9966 0.65169 0.0
C1385 C 0.61304 0.02233 0.65714 0.0
H1386 H 0.32229 0.05329 0.05325 0.0
H1387 H 0.35882 0.09211 0.9159 0.0
H1388 H 0.39829 0.09876 0.94947 0.0
H1389 H 0.36839 0.09363 0.13505 0.0
H1390 H 0.36542 0.07073 0.17985 0.0
H1391 H 0.33945 0.06576 0.14252 0.0
H1392 H 0.33445 0.02505 0.10853 0.0
H1393 H 0.36015 0.02964 0.14649 0.0
H1394 H 0.36017 0.02495 0.07917 0.0
H1395 H 0.43411 0.10353 0.0003 0.0
H1396 H 0.46367 0.10569 0.06453 0.0
H1397 H 0.40386 0.06594 0.17051 0.0
C1398 C 0.33848 0.06244 0.02968 0.0
C1399 C 0.33758 0.07177 0.98167 0.0
C1400 C 0.35923 0.08456 0.95255 0.0
C1401 C 0.38168 0.08846 0.97132 0.0
C1402 C 0.38216 0.07972 0.01953 0.0
C1403 C 0.36113 0.06694 0.04831 0.0
C1404 C 0.36697 0.06136 0.10058 0.0
C1405 C 0.35962 0.07361 0.14192 0.0
C1406 C 0.35471 0.0336 0.10918 0.0
C1407 C 0.39451 0.07309 0.09673 0.0
C1408 C 0.40292 0.08341 0.0496 0.0
C1409 C 0.42774 0.09542 0.03733 0.0
C1410 C 0.4444 0.09663 0.07409 0.0
C1411 C 0.43614 0.08612 0.12266 0.0
C1412 C 0.41085 0.07436 0.13394 0.0
H1413 H 0.93048 0.2507 0.03728 0.0
H1414 H 0.87992 0.2405 0.91576 0.0
H1415 H 0.86985 0.26932 0.95759 0.0
H1416 H 0.89299 0.25161 0.13621 0.0
H1417 H 0.91808 0.27421 0.1734 0.0
H1418 H 0.92275 0.25432 0.13194 0.0
H1419 H 0.95802 0.29201 0.08652 0.0
H1420 H 0.95362 0.31193 0.12842 0.0
H1421 H 0.95242 0.31521 0.0608 0.0
H1422 H 0.86467 0.29862 0.01399 0.0
H1423 H 0.86611 0.32744 0.07903 0.0
H1424 H 0.91826 0.31617 0.16544 0.0
C1425 C 0.91779 0.25504 0.01884 0.0
C1426 C 0.90625 0.24372 0.97295 0.0
C1427 C 0.88913 0.24922 0.95073 0.0
C1428 C 0.88321 0.26545 0.97429 0.0
C1429 C 0.89436 0.27575 0.02034 0.0
C1430 C 0.91134 0.27084 0.04229 0.0
C1431 C 0.91993 0.28349 0.0929 0.0
C1432 C 0.91302 0.26479 0.13615 0.0
C1433 C 0.94764 0.30175 0.09208 0.0
C1434 C 0.90531 0.29646 0.09574 0.0
C1435 C 0.89067 0.29181 0.05359 0.0
C1436 C 0.87602 0.30236 0.04728 0.0
C1437 C 0.87687 0.31862 0.0845 0.0
C1438 C 0.89215 0.32398 0.12755 0.0
C1439 C 0.90612 0.31229 0.13341 0.0
H1440 H 0.72469 0.68116 0.03275 0.0
H1441 H 0.7096 0.63835 0.89528 0.0
H1442 H 0.68502 0.60044 0.94467 0.0
H1443 H 0.73252 0.64055 0.11243 0.0
H1444 H 0.71849 0.64565 0.1668 0.0
H1445 H 0.73353 0.66937 0.11994 0.0
H1446 H 0.69355 0.67117 0.10772 0.0
H1447 H 0.67874 0.64771 0.15511 0.0
H1448 H 0.66542 0.6435 0.09289 0.0
H1449 H 0.66371 0.56715 0.00998 0.0
H1450 H 0.64283 0.54138 0.08451 0.0
H1451 H 0.67363 0.6064 0.17879 0.0
C1452 C 0.71565 0.6639 0.0127 0.0
C1453 C 0.71885 0.6627 0.96009 0.0
C1454 C 0.7072 0.63966 0.93555 0.0
C1455 C 0.69341 0.61804 0.96332 0.0
C1456 C 0.6916 0.61982 0.01552 0.0
C1457 C 0.70211 0.64218 0.03984 0.0
C1458 C 0.69776 0.63913 0.09634 0.0
C1459 C 0.72203 0.64929 0.12557 0.0
C1460 C 0.68298 0.65107 0.11404 0.0
C1461 C 0.68293 0.61156 0.09996 0.0
C1462 C 0.67973 0.60071 0.05307 0.0
C1463 C 0.66608 0.57542 0.04694 0.0
C1464 C 0.65446 0.56091 0.0896 0.0
C1465 C 0.65655 0.57182 0.13758 0.0
C1466 C 0.67171 0.59741 0.14281 0.0
H1467 H 0.60174 0.92259 0.82218 0.0
H1468 H 0.53676 0.88364 0.91588 0.0
H1469 H 0.56232 0.88302 0.98609 0.0
H1470 H 0.63433 0.8921 0.87215 0.0
H1471 H 0.66357 0.91985 0.86818 0.0
H1472 H 0.63963 0.91451 0.824 0.0
H1473 H 0.64357 0.95592 0.8499 0.0
H1474 H 0.66706 0.96111 0.89507 0.0
H1475 H 0.63996 0.96138 0.91549 0.0
H1476 H 0.59546 0.88925 0.04791 0.0
H1477 H 0.63335 0.89929 0.09453 0.0
H1478 H 0.67629 0.93571 0.96073 0.0
C1479 C 0.59272 0.9134 0.85698 0.0
C1480 C 0.56721 0.90313 0.86343 0.0
C1481 C 0.55625 0.89154 0.9099 0.0
C1482 C 0.57063 0.89118 0.95009 0.0
C1483 C 0.59586 0.90241 0.94306 0.0
C1484 C 0.60676 0.913 0.89743 0.0
C1485 C 0.63431 0.92478 0.90018 0.0
C1486 C 0.64349 0.91205 0.864 0.0
C1487 C 0.64695 0.95244 0.88954 0.0
C1488 C 0.63728 0.91971 0.95489 0.0
C1489 C 0.61491 0.90659 0.97892 0.0
C1490 C 0.61308 0.89949 0.02946 0.0
C1491 C 0.63468 0.90541 0.05569 0.0
C1492 C 0.65776 0.91853 0.03143 0.0
C1493 C 0.65898 0.92608 0.98064 0.0
H1494 H 0.0539 0.65442 0.8274 0.0
H1495 H 0.10373 0.63824 0.90959 0.0
H1496 H 0.10416 0.66382 0.98087 0.0
H1497 H 0.07962 0.71664 0.86689 0.0
H1498 H 0.05029 0.71487 0.87151 0.0
H1499 H 0.05454 0.69566 0.82735 0.0
H1500 H 0.01788 0.65741 0.86797 0.0
H1501 H 0.01379 0.67651 0.91282 0.0
H1502 H 0.01818 0.65197 0.93498 0.0
H1503 H 0.10017 0.69258 0.04161 0.0
H1504 H 0.09229 0.72235 0.08634 0.0
H1505 H 0.04295 0.71679 0.96578 0.0
C1506 C 0.06512 0.65643 0.86013 0.0
C1507 C 0.07895 0.64454 0.86285 0.0
C1508 C 0.09305 0.64729 0.90673 0.0
C1509 C 0.09335 0.66169 0.94741 0.0
C1510 C 0.07917 0.67286 0.94375 0.0
C1511 C 0.0653 0.67033 0.90123 0.0
C1512 C 0.05153 0.68403 0.90663 0.0
C1513 C 0.05948 0.70398 0.86568 0.0
C1514 C 0.0237 0.66642 0.90554 0.0
C1515 C 0.06005 0.69496 0.95863 0.0
C1516 C 0.07603 0.6884 0.97949 0.0
C1517 C 0.08745 0.6976 0.02596 0.0
C1518 C 0.08282 0.71442 0.05111 0.0
C1519 C 0.06675 0.72157 0.02987 0.0
C1520 C 0.05486 0.71123 0.98362 0.0
H1521 H 0.27225 0.35636 0.03312 0.0
H1522 H 0.27845 0.29732 0.96402 0.0
H1523 H 0.3083 0.32642 0.9031 0.0
H1524 H 0.27408 0.3867 0.9219 0.0
H1525 H 0.29246 0.41734 0.94599 0.0
H1526 H 0.27348 0.3927 0.98847 0.0
H1527 H 0.31117 0.4027 0.04418 0.0
H1528 H 0.33025 0.42769 0.00237 0.0
H1529 H 0.33781 0.40424 0.01551 0.0
H1530 H 0.33245 0.35974 0.84315 0.0
H1531 H 0.35497 0.3974 0.79319 0.0
H1532 H 0.33584 0.43648 0.90221 0.0
C1533 C 0.28036 0.34965 0.00606 0.0
C1534 C 0.27291 0.32447 0.00342 0.0
C1535 C 0.28382 0.31645 0.967 0.0
C1536 C 0.30077 0.33285 0.93206 0.0
C1537 C 0.30694 0.35728 0.93444 0.0
C1538 C 0.29755 0.36586 0.97105 0.0
C1539 C 0.30678 0.39297 0.96377 0.0
C1540 C 0.28543 0.39769 0.95448 0.0
C1541 C 0.32244 0.40778 0.00916 0.0
C1542 C 0.32227 0.39805 0.91652 0.0
C1543 C 0.32189 0.37706 0.90032 0.0
C1544 C 0.3333 0.37642 0.85588 0.0
C1545 C 0.34584 0.3979 0.82752 0.0
C1546 C 0.34718 0.4199 0.84384 0.0
C1547 C 0.33528 0.41999 0.88911 0.0
H1548 H 0.9785 0.37428 0.35627 0.0
H1549 H 0.02061 0.4167 0.22642 0.0
H1550 H 0.05842 0.42202 0.26634 0.0
H1551 H 0.02146 0.41126 0.44773 0.0
H1552 H 0.01611 0.38648 0.4896 0.0
H1553 H 0.992 0.38364 0.44865 0.0
H1554 H 0.98755 0.34389 0.41021 0.0
H1555 H 0.01143 0.34642 0.45156 0.0
H1556 H 0.01407 0.3442 0.38404 0.0
H1557 H 0.09187 0.42437 0.32247 0.0
H1558 H 0.11838 0.42341 0.39033 0.0
H1559 H 0.0543 0.38106 0.4847 0.0
C1560 C -0.00443 0.38417 0.33565 0.0
C1561 C -0.0034 0.39484 0.28799 0.0
C1562 C 0.01941 0.40824 0.26285 0.0
C1563 C 0.04096 0.41137 0.28522 0.0
C1564 C 0.03939 0.40113 0.33285 0.0
C1565 C 0.01727 0.38776 0.35772 0.0
C1566 C 0.02073 0.38 0.40992 0.0
C1567 C 0.01206 0.39101 0.4514 0.0
C1568 C 0.00767 0.35196 0.41416 0.0
C1569 C 0.04826 0.39123 0.41068 0.0
C1570 C 0.05869 0.40318 0.36577 0.0
C1571 C 0.0839 0.415 0.35776 0.0
C1572 C 0.0988 0.41441 0.39657 0.0
C1573 C 0.08846 0.40227 0.44296 0.0
C1574 C 0.06284 0.39066 0.4499 0.0
H1575 H 0.57722 0.65951 0.51392 0.0
H1576 H 0.56056 0.70086 0.40529 0.0
H1577 H 0.56628 0.67833 0.33536 0.0
H1578 H 0.62448 0.65994 0.44762 0.0
H1579 H 0.61693 0.6292 0.46372 0.0
H1580 H 0.60848 0.64611 0.50576 0.0
H1581 H 0.56303 0.61158 0.50223 0.0
H1582 H 0.5713 0.59428 0.46073 0.0
H1583 H 0.54814 0.60136 0.44168 0.0
H1584 H 0.57647 0.65299 0.27693 0.0
H1585 H 0.58809 0.62516 0.23531 0.0
H1586 H 0.60004 0.60245 0.38267 0.0
C1587 C 0.57422 0.66351 0.47554 0.0
C1588 C 0.56843 0.682 0.46522 0.0
C1589 C 0.56488 0.68672 0.41429 0.0
C1590 C 0.56818 0.67407 0.37424 0.0
C1591 C 0.57488 0.65669 0.38578 0.0
C1592 C 0.5775 0.65115 0.43524 0.0
C1593 C 0.58572 0.63242 0.43754 0.0
C1594 C 0.61037 0.64254 0.46529 0.0
C1595 C 0.56587 0.6085 0.46199 0.0
C1596 C 0.58829 0.62902 0.38166 0.0
C1597 C 0.58156 0.64283 0.35233 0.0
C1598 C 0.58183 0.64214 0.29955 0.0
C1599 C 0.58861 0.62646 0.27625 0.0
C1600 C 0.59547 0.61213 0.30578 0.0
C1601 C 0.59558 0.61374 0.3591 0.0
H1602 H 0.40594 0.0154 0.37051 0.0
H1603 H 0.41663 0.97417 0.25217 0.0
H1604 H 0.38289 0.93571 0.28784 0.0
H1605 H 0.39627 0.97329 0.46832 0.0
H1606 H 0.37391 0.97784 0.50138 0.0
H1607 H 0.3971 0.00217 0.46362 0.0
H1608 H 0.36364 0.0049 0.41177 0.0
H1609 H 0.34031 0.98074 0.44971 0.0
H1610 H 0.33971 0.97781 0.38174 0.0
H1611 H 0.34815 0.90154 0.33828 0.0
H1612 H 0.31686 0.87478 0.40106 0.0
H1613 H 0.3316 0.93888 0.48836 0.0
C1614 C 0.40083 -0.00167 0.35147 0.0
C1615 C 0.41359 -0.00227 0.3082 0.0
C1616 C 0.4069 0.97498 0.28521 0.0
C1617 C 0.38778 0.95308 0.30515 0.0
C1618 C 0.37582 0.95426 0.34846 0.0
C1619 C 0.38219 0.97633 0.37144 0.0
C1620 C 0.36775 0.97261 0.41951 0.0
C1621 C 0.38477 0.98203 0.46594 0.0
C1622 C 0.35191 0.98473 0.41541 0.0
C1623 C 0.3522 0.94503 0.42 0.0
C1624 C 0.35686 0.93471 0.37855 0.0
C1625 C 0.3444 0.90944 0.37097 0.0
C1626 C 0.32668 0.89439 0.40675 0.0
C1627 C 0.32195 0.9047 0.44982 0.0
C1628 C 0.33497 0.93036 0.45622 0.0
H1629 H 0.19402 0.33091 0.22155 0.0
H1630 H 0.19037 0.26645 0.28899 0.0
H1631 H 0.18441 0.27938 0.3732 0.0
H1632 H 0.22425 0.37301 0.33106 0.0
H1633 H 0.20636 0.38773 0.32215 0.0
H1634 H 0.21426 0.3755 0.26845 0.0
H1635 H 0.16829 0.34951 0.24504 0.0
H1636 H 0.16023 0.3614 0.29888 0.0
H1637 H 0.14694 0.32882 0.29138 0.0
H1638 H 0.17426 0.29648 0.44779 0.0
H1639 H 0.16123 0.31728 0.50867 0.0
H1640 H 0.1706 0.37015 0.3925 0.0
C1641 C 0.19271 0.31996 0.25431 0.0
C1642 C 0.19275 0.29779 0.24898 0.0
C1643 C 0.19035 0.28353 0.2924 0.0
C1644 C 0.18707 0.29075 0.34038 0.0
C1645 C 0.18626 0.31227 0.34423 0.0
C1646 C 0.18916 0.32679 0.3025 0.0
C1647 C 0.18527 0.3478 0.31636 0.0
C1648 C 0.20895 0.37247 0.30908 0.0
C1649 C 0.16391 0.3468 0.28612 0.0
C1650 C 0.17893 0.34231 0.37189 0.0
C1651 C 0.17995 0.32196 0.38738 0.0
C1652 C 0.1737 0.31265 0.43638 0.0
C1653 C 0.16621 0.32452 0.47059 0.0
C1654 C 0.16485 0.34532 0.45537 0.0
C1655 C 0.17148 0.35433 0.40541 0.0
H1656 H 0.66477 0.85116 0.24077 0.0
H1657 H 0.7337 0.90488 0.30876 0.0
H1658 H 0.71774 0.88708 0.39316 0.0
H1659 H 0.62529 0.84955 0.3415 0.0
H1660 H 0.60466 0.81707 0.33603 0.0
H1661 H 0.62122 0.8346 0.28125 0.0
H1662 H 0.63901 0.8059 0.26775 0.0
H1663 H 0.62247 0.78826 0.32236 0.0
H1664 H 0.65518 0.8012 0.31886 0.0
H1665 H 0.69447 0.86299 0.46977 0.0
H1666 H 0.66626 0.83337 0.5327 0.0
H1667 H 0.61287 0.7953 0.41377 0.0
C1668 C 0.67651 0.85932 0.27336 0.0
C1669 C 0.70047 0.87946 0.26815 0.0
C1670 C 0.71528 0.88942 0.3118 0.0
C1671 C 0.70636 0.87951 0.35991 0.0
C1672 C 0.68265 0.85965 0.3636 0.0
C1673 C 0.66797 0.84962 0.32149 0.0
C1674 C 0.64347 0.82781 0.33544 0.0
C1675 C 0.62242 0.83255 0.32281 0.0
C1676 C 0.63983 0.80441 0.30958 0.0
C1677 C 0.64672 0.82701 0.39202 0.0
C1678 C 0.66936 0.84563 0.40759 0.0
C1679 C 0.67666 0.84837 0.45807 0.0
C1680 C 0.66048 0.83145 0.49352 0.0
C1681 C 0.63733 0.81197 0.47821 0.0
C1682 C 0.63038 0.80997 0.42679 0.0
H1683 H 0.1422 0.81176 0.21891 0.0
H1684 H 0.08643 0.82451 0.28423 0.0
H1685 H 0.10744 0.83332 0.36672 0.0
H1686 H 0.15094 0.7827 0.32863 0.0
H1687 H 0.18356 0.79685 0.31962 0.0
H1688 H 0.16377 0.79086 0.26582 0.0
H1689 H 0.18866 0.83661 0.24015 0.0
H1690 H 0.2085 0.84274 0.29387 0.0
H1691 H 0.19279 0.85971 0.28539 0.0
H1692 H 0.13436 0.8409 0.44171 0.0
H1693 H 0.16621 0.84781 0.50427 0.0
H1694 H 0.20486 0.83091 0.3897 0.0
C1695 C 0.13432 0.81626 0.2506 0.0
C1696 C 0.11265 0.81739 0.24512 0.0
C1697 C 0.10305 0.82357 0.28746 0.0
C1698 C 0.1148 0.82855 0.33452 0.0
C1699 C 0.13615 0.82737 0.33854 0.0
C1700 C 0.14588 0.82145 0.29778 0.0
C1701 C 0.16938 0.82202 0.31205 0.0
C1702 C 0.16674 0.79659 0.30619 0.0
C1703 C 0.19111 0.84143 0.28102 0.0
C1704 C 0.17135 0.82927 0.36717 0.0
C1705 C 0.15193 0.83212 0.38173 0.0
C1706 C 0.14969 0.83873 0.43084 0.0
C1707 C 0.16786 0.84258 0.46607 0.0
C1708 C 0.18806 0.83995 0.45187 0.0
C1709 C 0.18972 0.83316 0.40171 0.0
H1710 H 0.82872 0.65379 0.53545 0.0
H1711 H 0.82228 0.58918 0.60922 0.0
H1712 H 0.81885 0.60484 0.69166 0.0
H1713 H 0.86469 0.69678 0.63557 0.0
H1714 H 0.84955 0.71443 0.62943 0.0
H1715 H 0.8524 0.69876 0.57519 0.0
H1716 H 0.80538 0.67629 0.56235 0.0
H1717 H 0.8024 0.6919 0.61647 0.0
H1718 H 0.78552 0.65896 0.61401 0.0
H1719 H 0.81419 0.62562 0.76516 0.0
H1720 H 0.80881 0.65138 0.82756 0.0
H1721 H 0.81901 0.70345 0.70889 0.0
C1722 C 0.8267 0.64303 0.56898 0.0
C1723 C 0.82578 0.62025 0.56564 0.0
C1724 C 0.82307 0.60669 0.6105 0.0
C1725 C 0.82114 0.61542 0.65771 0.0
C1726 C 0.82205 0.6378 0.65971 0.0
C1727 C 0.82482 0.65154 0.61681 0.0
C1728 C 0.82468 0.6748 0.63014 0.0
C1729 C 0.8493 0.69754 0.61679 0.0
C1730 C 0.80321 0.67552 0.6042 0.0
C1731 C 0.82105 0.67167 0.68702 0.0
C1732 C 0.81966 0.65019 0.70304 0.0
C1733 C 0.81542 0.64261 0.75333 0.0
C1734 C 0.81231 0.65733 0.78841 0.0
C1735 C 0.81356 0.67941 0.77305 0.0
C1736 C 0.81826 0.6868 0.72175 0.0
H1737 H 0.28658 0.12916 0.74573 0.0
H1738 H 0.33896 0.17039 0.86424 0.0
H1739 H 0.3652 0.20143 0.80133 0.0
H1740 H 0.32936 0.13783 0.65315 0.0
H1741 H 0.31248 0.14065 0.60099 0.0
H1742 H 0.29644 0.12305 0.65599 0.0
H1743 H 0.27589 0.14942 0.66748 0.0
H1744 H 0.29171 0.16699 0.61215 0.0
H1745 H 0.29472 0.18222 0.67161 0.0
H1746 H 0.38729 0.22594 0.72484 0.0
H1747 H 0.40321 0.24299 0.64012 0.0
H1748 H 0.33634 0.18547 0.57201 0.0
C1749 C 0.30333 0.14493 0.75874 0.0
C1750 C 0.3107 0.14735 0.80991 0.0
C1751 C 0.33292 0.16815 0.82521 0.0
C1752 C 0.34793 0.1859 0.78981 0.0
C1753 C 0.34039 0.18262 0.73945 0.0
C1754 C 0.31853 0.16276 0.72398 0.0
C1755 C 0.31531 0.16278 0.66722 0.0
C1756 C 0.31329 0.13971 0.64294 0.0
C1757 C 0.29309 0.16552 0.65384 0.0
C1758 C 0.33905 0.18544 0.65308 0.0
C1759 C 0.35317 0.19673 0.69528 0.0
C1760 C 0.3763 0.21744 0.6915 0.0
C1761 C 0.38521 0.2269 0.6432 0.0
C1762 C 0.37102 0.21557 0.5994 0.0
C1763 C 0.3476 0.19463 0.60469 0.0
H1764 H 0.81416 0.15199 0.54452 0.0
H1765 H 0.75005 0.14884 0.61282 0.0
H1766 H 0.76468 0.14539 0.69736 0.0
H1767 H 0.81851 0.1093 0.63119 0.0
H1768 H 0.85151 0.12637 0.63239 0.0
H1769 H 0.83529 0.12709 0.57678 0.0
H1770 H 0.85768 0.17444 0.58116 0.0
H1771 H 0.87401 0.17386 0.63658 0.0
H1772 H 0.85625 0.189 0.63869 0.0
H1773 H 0.78696 0.14414 0.77437 0.0
H1774 H 0.81628 0.14679 0.83925 0.0
H1775 H 0.86593 0.15084 0.72076 0.0
C1776 C 0.80307 0.15037 0.57717 0.0
C1777 C 0.78095 0.15065 0.57201 0.0
C1778 C 0.7671 0.14871 0.6158 0.0
C1779 C 0.77518 0.14662 0.66398 0.0
C1780 C 0.79709 0.14646 0.66769 0.0
C1781 C 0.81088 0.14834 0.62554 0.0
C1782 C 0.83435 0.14891 0.64018 0.0
C1783 C 0.83493 0.12658 0.61887 0.0
C1784 C 0.8569 0.17299 0.62315 0.0
C1785 C 0.83177 0.14749 0.69723 0.0
C1786 C 0.81004 0.14585 0.71226 0.0
C1787 C 0.80397 0.14525 0.76312 0.0
C1788 C 0.82077 0.14678 0.79966 0.0
C1789 C 0.84342 0.149 0.78512 0.0
C1790 C 0.84871 0.14895 0.73316 0.0
H1791 H 0.51752 0.05409 0.05967 0.0
H1792 H 0.51395 0.0047 0.17853 0.0
H1793 H 0.52555 0.9831 0.11681 0.0
H1794 H 0.4908 0.01034 0.96504 0.0
H1795 H 0.50976 0.0297 0.91432 0.0
H1796 H 0.50398 0.04305 0.96885 0.0
H1797 H 0.55068 0.07042 0.98345 0.0
H1798 H 0.55663 0.05706 0.92893 0.0
H1799 H 0.56943 0.05647 0.98964 0.0
H1800 H 0.53305 0.96431 0.0418 0.0
H1801 H 0.53541 0.94897 0.95746 0.0
H1802 H 0.53509 0.01093 0.88703 0.0
C1803 C 0.5195 0.03895 0.07295 0.0
C1804 C 0.5148 0.03109 0.12397 0.0
C1805 C 0.51744 0.01107 0.13966 0.0
C1806 C 0.52416 -0.00124 0.10496 0.0
C1807 C 0.5284 0.00684 0.0549 0.0
C1808 C 0.52626 0.0265 0.03888 0.0
C1809 C 0.53012 0.03037 0.98225 0.0
C1810 C 0.5073 0.02822 0.9561 0.0
C1811 C 0.55309 0.05505 0.97038 0.0
C1812 C 0.53384 0.00922 0.96865 0.0
C1813 C 0.5331 0.99609 0.01129 0.0
C1814 C 0.53409 0.97463 0.00821 0.0
C1815 C 0.53533 0.96604 0.96018 0.0
C1816 C 0.53558 0.9789 0.91596 0.0
C1817 C 0.53545 0.00108 0.92033 0.0
H1818 H 0.98942 0.47088 0.08888 0.0
H1819 H 0.92143 0.41499 0.02143 0.0
H1820 H 0.93532 0.4347 0.93798 0.0
H1821 H 0.99398 0.52062 0.01705 0.0
H1822 H 0.02681 0.53598 0.01072 0.0
H1823 H 0.01219 0.51676 0.06487 0.0
H1824 H 0.03293 0.49129 0.04429 0.0
H1825 H 0.04767 0.51048 0.99009 0.0
H1826 H 0.02899 0.47783 0.98237 0.0
H1827 H 0.95591 0.4609 0.86241 0.0
H1828 H 0.98167 0.49242 0.79982 0.0
H1829 H 0.03598 0.5316 0.9166 0.0
C1830 C 0.97755 0.46264 0.0565 0.0
C1831 C 0.95436 0.44135 0.06174 0.0
C1832 C 0.93926 0.43131 0.01844 0.0
C1833 C 0.947 0.44232 0.9708 0.0
C1834 C 0.96985 0.46339 0.96706 0.0
C1835 C 0.98491 0.47348 0.00867 0.0
C1836 C 0.00823 0.49671 0.99455 0.0
C1837 C 0.01042 0.51882 0.02352 0.0
C1838 C 0.03078 0.4939 0.00334 0.0
C1839 C 0.00379 0.49819 0.93863 0.0
C1840 C 0.98162 0.4787 0.92348 0.0
C1841 C 0.97336 0.47623 0.87372 0.0
C1842 C 0.98813 0.49423 0.83847 0.0
C1843 C 0.01085 0.51452 0.85324 0.0
C1844 C 0.01872 0.51635 0.90403 0.0
H1845 H 0.45398 0.50993 0.9387 0.0
H1846 H 0.49267 0.49103 0.82812 0.0
H1847 H 0.52174 0.49423 0.89416 0.0
H1848 H 0.50783 0.55466 0.00482 0.0
H1849 H 0.49362 0.54685 0.06644 0.0
H1850 H 0.4753 0.54244 0.01085 0.0
H1851 H 0.44735 0.4968 0.03467 0.0
H1852 H 0.46561 0.50105 0.09031 0.0
H1853 H 0.46078 0.4778 0.04486 0.0
H1854 H 0.54596 0.49863 0.97115 0.0
H1855 H 0.56578 0.50622 0.05455 0.0
H1856 H 0.51268 0.52397 0.1157 0.0
C1857 C 0.46851 0.50636 0.92849 0.0
C1858 C 0.47103 0.50014 0.87834 0.0
C1859 C 0.49044 0.4959 0.86626 0.0
C1860 C 0.50699 0.49758 0.90351 0.0
C1861 C 0.50401 0.50375 0.95249 0.0
C1862 C 0.48542 0.50827 0.96511 0.0
C1863 C 0.48685 0.51525 0.02044 0.0
C1864 C 0.49116 0.54135 0.02594 0.0
C1865 C 0.46378 0.49661 0.04926 0.0
C1866 C 0.50911 0.51384 0.03687 0.0
C1867 C 0.51855 0.50699 -0.00295 0.0
C1868 C 0.53882 0.50407 0.00267 0.0
C1869 C 0.54989 0.50836 0.0503 0.0
C1870 C 0.54079 0.51571 0.09171 0.0
C1871 C 0.52012 0.51849 0.08475 0.0
loop_
_geom_bond_atom_site_label_1
_geom_bond_atom_site_label_2
_geom_bond_distance
_geom_bond_site_symmetry_2
_ccdc_geom_bond_type
O0 Zn1 1.953 . S
O0 C16 1.225 1_554 S
Zn1 O0 1.953 . S
Zn1 O2 1.949 . S
Zn1 O8 1.919 . S
Zn1 O13 1.924 . S
O2 Zn1 1.949 . S
O2 Zn3 1.923 . S
O2 Zn4 1.950 . S
O2 Zn5 1.945 . S
Zn3 O2 1.923 . S
Zn3 O6 1.933 . S
Zn3 O9 1.941 . S
Zn3 O10 1.965 . S
Zn4 O2 1.950 . S
Zn4 O11 1.938 . S
Zn4 O12 1.902 1_554 S
Zn4 O22 1.953 1_554 S
Zn5 O2 1.945 . S
Zn5 O7 1.932 . S
Zn5 O14 1.977 . S
Zn5 O15 1.910 . S
O6 Zn3 1.933 . S
O6 C17 1.226 . S
O7 Zn5 1.932 . S
O7 C17 1.307 . S
O8 Zn1 1.919 . S
O8 C19 1.253 . S
O9 Zn3 1.941 . S
O9 C19 1.283 . S
O10 Zn3 1.965 . S
O10 C18 1.303 . S
O11 Zn4 1.938 . S
O11 C18 1.247 . S
O12 Zn4 1.902 1_556 S
O12 C20 1.301 1_556 S
O13 Zn1 1.924 . S
O13 C21 1.311 . S
O14 Zn5 1.977 . S
O14 C20 1.272 . S
O15 Zn5 1.910 . S
O15 C21 1.231 . S
C16 O0 1.225 1_556 S
C16 O22 1.298 . S
C17 O6 1.226 . S
C17 O7 1.307 . S
C18 O10 1.303 . S
C18 O11 1.247 . S
C19 O8 1.253 . S
C19 O9 1.283 . S
C20 O12 1.301 1_554 S
C20 O14 1.272 . S
C21 O13 1.311 . S
C21 O15 1.231 . S
O22 Zn4 1.953 1_556 S
O22 C16 1.298 . S
O23 Zn24 1.953 . S
O23 C39 1.225 1_554 S
Zn24 O23 1.953 . S
Zn24 O25 1.949 . S
Zn24 O31 1.919 . S
Zn24 O36 1.924 . S
O25 Zn24 1.949 . S
O25 Zn26 1.923 . S
O25 Zn27 1.950 . S
O25 Zn28 1.945 . S
Zn26 O25 1.923 . S
Zn26 O29 1.933 . S
Zn26 O32 1.941 . S
Zn26 O33 1.965 . S
Zn27 O25 1.950 . S
Zn27 O34 1.938 . S
Zn27 O35 1.902 1_554 S
Zn27 O45 1.953 1_554 S
Zn28 O25 1.945 . S
Zn28 O30 1.932 . S
Zn28 O37 1.977 . S
Zn28 O38 1.910 . S
O29 Zn26 1.933 . S
O29 C40 1.226 . S
O30 Zn28 1.932 . S
O30 C40 1.307 . S
O31 Zn24 1.919 . S
O31 C42 1.253 . S
O32 Zn26 1.941 . S
O32 C42 1.283 . S
O33 Zn26 1.965 . S
O33 C41 1.303 . S
O34 Zn27 1.938 . S
O34 C41 1.247 . S
O35 Zn27 1.902 1_556 S
O35 C43 1.301 1_556 S
O36 Zn24 1.924 . S
O36 C44 1.311 . S
O37 Zn28 1.977 . S
O37 C43 1.272 . S
O38 Zn28 1.910 . S
O38 C44 1.231 . S
C39 O23 1.225 1_556 S
C39 O45 1.298 . S
C40 O29 1.226 . S
C40 O30 1.307 . S
C41 O33 1.303 . S
C41 O34 1.247 . S
C42 O31 1.253 . S
C42 O32 1.283 . S
C43 O35 1.301 1_554 S
C43 O37 1.272 . S
C44 O36 1.311 . S
C44 O38 1.231 . S
O45 Zn27 1.953 1_556 S
O45 C39 1.298 . S
O46 Zn47 1.953 . S
O46 C62 1.225 1_554 S
Zn47 O46 1.953 . S
Zn47 O48 1.949 . S
Zn47 O54 1.919 . S
Zn47 O59 1.924 . S
O48 Zn47 1.949 . S
O48 Zn49 1.923 . S
O48 Zn50 1.950 . S
O48 Zn51 1.945 . S
Zn49 O48 1.923 . S
Zn49 O52 1.933 . S
Zn49 O55 1.941 . S
Zn49 O56 1.965 . S
Zn50 O48 1.950 . S
Zn50 O57 1.938 . S
Zn50 O58 1.902 1_554 S
Zn50 O68 1.953 1_554 S
Zn51 O48 1.945 . S
Zn51 O53 1.932 . S
Zn51 O60 1.977 . S
Zn51 O61 1.910 . S
O52 Zn49 1.933 . S
O52 C63 1.226 . S
O53 Zn51 1.932 . S
O53 C63 1.307 . S
O54 Zn47 1.919 . S
O54 C65 1.253 . S
O55 Zn49 1.941 . S
O55 C65 1.283 . S
O56 Zn49 1.965 . S
O56 C64 1.303 . S
O57 Zn50 1.938 . S
O57 C64 1.247 . S
O58 Zn50 1.902 1_556 S
O58 C66 1.301 1_556 S
O59 Zn47 1.924 . S
O59 C67 1.311 . S
O60 Zn51 1.977 . S
O60 C66 1.272 . S
O61 Zn51 1.910 . S
O61 C67 1.231 . S
C62 O46 1.225 1_556 S
C62 O68 1.298 . S
C63 O52 1.226 . S
C63 O53 1.307 . S
C64 O56 1.303 . S
C64 O57 1.247 . S
C65 O54 1.253 . S
C65 O55 1.283 . S
C66 O58 1.301 1_554 S
C66 O60 1.272 . S
C67 O59 1.311 . S
C67 O61 1.231 . S
O68 Zn50 1.953 1_556 S
O68 C62 1.298 . S
O69 Zn70 1.953 . S
O69 C85 1.225 1_556 S
Zn70 O69 1.953 . S
Zn70 O71 1.949 . S
Zn70 O77 1.919 . S
Zn70 O82 1.924 . S
O71 Zn70 1.949 . S
O71 Zn72 1.923 . S
O71 Zn73 1.950 . S
O71 Zn74 1.945 . S
Zn72 O71 1.923 . S
Zn72 O75 1.933 . S
Zn72 O78 1.941 . S
Zn72 O79 1.965 . S
Zn73 O71 1.950 . S
Zn73 O80 1.938 . S
Zn73 O81 1.902 1_556 S
Zn73 O91 1.953 1_556 S
Zn74 O71 1.945 . S
Zn74 O76 1.932 . S
Zn74 O83 1.977 . S
Zn74 O84 1.910 . S
O75 Zn72 1.933 . S
O75 C86 1.226 . S
O76 Zn74 1.932 . S
O76 C86 1.307 . S
O77 Zn70 1.919 . S
O77 C88 1.253 . S
O78 Zn72 1.941 . S
O78 C88 1.283 . S
O79 Zn72 1.965 . S
O79 C87 1.303 . S
O80 Zn73 1.938 . S
O80 C87 1.247 . S
O81 Zn73 1.902 1_554 S
O81 C89 1.301 1_554 S
O82 Zn70 1.924 . S
O82 C90 1.311 . S
O83 Zn74 1.977 . S
O83 C89 1.272 . S
O84 Zn74 1.910 . S
O84 C90 1.231 . S
C85 O69 1.225 1_554 S
C85 O91 1.298 . S
C86 O75 1.226 . S
C86 O76 1.307 . S
C87 O79 1.303 . S
C87 O80 1.247 . S
C88 O77 1.253 . S
C88 O78 1.283 . S
C89 O81 1.301 1_556 S
C89 O83 1.272 . S
C90 O82 1.311 . S
C90 O84 1.231 . S
O91 Zn73 1.953 1_554 S
O91 C85 1.298 . S
O92 Zn93 1.953 . S
O92 C108 1.225 1_556 S
Zn93 O92 1.953 . S
Zn93 O94 1.949 . S
Zn93 O100 1.919 . S
Zn93 O105 1.924 . S
O94 Zn93 1.949 . S
O94 Zn95 1.923 . S
O94 Zn96 1.950 . S
O94 Zn97 1.945 . S
Zn95 O94 1.923 . S
Zn95 O98 1.933 . S
Zn95 O101 1.941 . S
Zn95 O102 1.965 . S
Zn96 O94 1.950 . S
Zn96 O103 1.938 . S
Zn96 O104 1.902 1_556 S
Zn96 O114 1.953 1_556 S
Zn97 O94 1.945 . S
Zn97 O99 1.932 . S
Zn97 O106 1.977 . S
Zn97 O107 1.910 . S
O98 Zn95 1.933 . S
O98 C109 1.226 . S
O99 Zn97 1.932 . S
O99 C109 1.307 . S
O100 Zn93 1.919 . S
O100 C111 1.253 . S
O101 Zn95 1.941 . S
O101 C111 1.283 . S
O102 Zn95 1.965 . S
O102 C110 1.303 . S
O103 Zn96 1.938 . S
O103 C110 1.247 . S
O104 Zn96 1.902 1_554 S
O104 C112 1.301 1_554 S
O105 Zn93 1.924 . S
O105 C113 1.311 . S
O106 Zn97 1.977 . S
O106 C112 1.272 . S
O107 Zn97 1.910 . S
O107 C113 1.231 . S
C108 O92 1.225 1_554 S
C108 O114 1.298 . S
C109 O98 1.226 . S
C109 O99 1.307 . S
C110 O102 1.303 . S
C110 O103 1.247 . S
C111 O100 1.253 . S
C111 O101 1.283 . S
C112 O104 1.301 1_556 S
C112 O106 1.272 . S
C113 O105 1.311 . S
C113 O107 1.231 . S
O114 Zn96 1.953 1_554 S
O114 C108 1.298 . S
O115 Zn116 1.953 . S
O115 C131 1.225 1_556 S
Zn116 O115 1.953 . S
Zn116 O117 1.949 . S
Zn116 O123 1.919 . S
Zn116 O128 1.924 . S
O117 Zn116 1.949 . S
O117 Zn118 1.923 . S
O117 Zn119 1.950 . S
O117 Zn120 1.945 . S
Zn118 O117 1.923 . S
Zn118 O121 1.933 . S
Zn118 O124 1.941 . S
Zn118 O125 1.965 . S
Zn119 O117 1.950 . S
Zn119 O126 1.938 . S
Zn119 O127 1.902 1_556 S
Zn119 O137 1.953 1_556 S
Zn120 O117 1.945 . S
Zn120 O122 1.932 . S
Zn120 O129 1.977 . S
Zn120 O130 1.910 . S
O121 Zn118 1.933 . S
O121 C132 1.226 . S
O122 Zn120 1.932 . S
O122 C132 1.307 . S
O123 Zn116 1.919 . S
O123 C134 1.253 . S
O124 Zn118 1.941 . S
O124 C134 1.283 . S
O125 Zn118 1.965 . S
O125 C133 1.303 . S
O126 Zn119 1.938 . S
O126 C133 1.247 . S
O127 Zn119 1.902 1_554 S
O127 C135 1.301 1_554 S
O128 Zn116 1.924 . S
O128 C136 1.311 . S
O129 Zn120 1.977 . S
O129 C135 1.272 . S
O130 Zn120 1.910 . S
O130 C136 1.231 . S
C131 O115 1.225 1_554 S
C131 O137 1.298 . S
C132 O121 1.226 . S
C132 O122 1.307 . S
C133 O125 1.303 . S
C133 O126 1.247 . S
C134 O123 1.253 . S
C134 O124 1.283 . S
C135 O127 1.301 1_556 S
C135 O129 1.272 . S
C136 O128 1.311 . S
C136 O130 1.231 . S
O137 Zn119 1.953 1_554 S
O137 C131 1.298 . S
O138 Zn139 1.953 . S
O138 C154 1.225 . S
Zn139 O138 1.953 . S
Zn139 O140 1.949 . S
Zn139 O146 1.919 . S
Zn139 O151 1.924 . S
O140 Zn139 1.949 . S
O140 Zn141 1.923 . S
O140 Zn142 1.950 . S
O140 Zn143 1.945 . S
Zn141 O140 1.923 . S
Zn141 O144 1.933 . S
Zn141 O147 1.941 . S
Zn141 O148 1.965 . S
Zn142 O140 1.950 . S
Zn142 O149 1.938 . S
Zn142 O150 1.906 . S
Zn142 O160 1.953 . S
Zn143 O140 1.945 . S
Zn143 O145 1.932 . S
Zn143 O152 1.977 . S
Zn143 O153 1.910 . S
O144 Zn141 1.933 . S
O144 C155 1.226 . S
O145 Zn143 1.932 . S
O145 C155 1.307 . S
O146 Zn139 1.919 . S
O146 C157 1.253 . S
O147 Zn141 1.941 . S
O147 C157 1.283 . S
O148 Zn141 1.965 . S
O148 C156 1.303 . S
O149 Zn142 1.938 . S
O149 C156 1.247 . S
O150 Zn142 1.906 . S
O150 C158 1.304 . S
O151 Zn139 1.924 . S
O151 C159 1.311 . S
O152 Zn143 1.977 . S
O152 C158 1.272 . S
O153 Zn143 1.910 . S
O153 C159 1.231 . S
C154 O138 1.225 . S
C154 O160 1.298 . S
C155 O144 1.226 . S
C155 O145 1.307 . S
C156 O148 1.303 . S
C156 O149 1.247 . S
C157 O146 1.253 . S
C157 O147 1.283 . S
C158 O150 1.304 . S
C158 O152 1.272 . S
C159 O151 1.311 . S
C159 O153 1.231 . S
O160 Zn142 1.953 . S
O160 C154 1.298 . S
O161 Zn162 1.953 . S
O161 C177 1.225 . S
Zn162 O161 1.953 . S
Zn162 O163 1.949 . S
Zn162 O169 1.919 . S
Zn162 O174 1.924 . S
O163 Zn162 1.949 . S
O163 Zn164 1.923 . S
O163 Zn165 1.950 . S
O163 Zn166 1.945 . S
Zn164 O163 1.923 . S
Zn164 O167 1.933 . S
Zn164 O170 1.941 . S
Zn164 O171 1.965 . S
Zn165 O163 1.950 . S
Zn165 O172 1.938 . S
Zn165 O173 1.906 . S
Zn165 O183 1.953 . S
Zn166 O163 1.945 . S
Zn166 O168 1.932 . S
Zn166 O175 1.977 . S
Zn166 O176 1.910 . S
O167 Zn164 1.933 . S
O167 C178 1.226 . S
O168 Zn166 1.932 . S
O168 C178 1.307 . S
O169 Zn162 1.919 . S
O169 C180 1.253 . S
O170 Zn164 1.941 . S
O170 C180 1.283 . S
O171 Zn164 1.965 . S
O171 C179 1.303 . S
O172 Zn165 1.938 . S
O172 C179 1.247 . S
O173 Zn165 1.906 . S
O173 C181 1.304 . S
O174 Zn162 1.924 . S
O174 C182 1.311 . S
O175 Zn166 1.977 . S
O175 C181 1.272 . S
O176 Zn166 1.910 . S
O176 C182 1.231 . S
C177 O161 1.225 . S
C177 O183 1.298 . S
C178 O167 1.226 . S
C178 O168 1.307 . S
C179 O171 1.303 . S
C179 O172 1.247 . S
C180 O169 1.253 . S
C180 O170 1.283 . S
C181 O173 1.304 . S
C181 O175 1.272 . S
C182 O174 1.311 . S
C182 O176 1.231 . S
O183 Zn165 1.953 . S
O183 C177 1.298 . S
O184 Zn185 1.953 . S
O184 C200 1.225 . S
Zn185 O184 1.953 . S
Zn185 O186 1.949 . S
Zn185 O192 1.919 . S
Zn185 O197 1.924 . S
O186 Zn185 1.949 . S
O186 Zn187 1.923 . S
O186 Zn188 1.950 . S
O186 Zn189 1.945 . S
Zn187 O186 1.923 . S
Zn187 O190 1.933 . S
Zn187 O193 1.941 . S
Zn187 O194 1.965 . S
Zn188 O186 1.950 . S
Zn188 O195 1.938 . S
Zn188 O196 1.906 . S
Zn188 O206 1.953 . S
Zn189 O186 1.945 . S
Zn189 O191 1.932 . S
Zn189 O198 1.977 . S
Zn189 O199 1.910 . S
O190 Zn187 1.933 . S
O190 C201 1.226 . S
O191 Zn189 1.932 . S
O191 C201 1.307 . S
O192 Zn185 1.919 . S
O192 C203 1.253 . S
O193 Zn187 1.941 . S
O193 C203 1.283 . S
O194 Zn187 1.965 . S
O194 C202 1.303 . S
O195 Zn188 1.938 . S
O195 C202 1.247 . S
O196 Zn188 1.906 . S
O196 C204 1.304 . S
O197 Zn185 1.924 . S
O197 C205 1.311 . S
O198 Zn189 1.977 . S
O198 C204 1.272 . S
O199 Zn189 1.910 . S
O199 C205 1.231 . S
C200 O184 1.225 . S
C200 O206 1.298 . S
C201 O190 1.226 . S
C201 O191 1.307 . S
C202 O194 1.303 . S
C202 O195 1.247 . S
C203 O192 1.253 . S
C203 O193 1.283 . S
C204 O196 1.304 . S
C204 O198 1.272 . S
C205 O197 1.311 . S
C205 O199 1.231 . S
O206 Zn188 1.953 . S
O206 C200 1.298 . S
O207 Zn208 1.953 . S
O207 C223 1.225 . S
Zn208 O207 1.953 . S
Zn208 O209 1.949 . S
Zn208 O215 1.919 . S
Zn208 O220 1.924 . S
O209 Zn208 1.949 . S
O209 Zn210 1.923 . S
O209 Zn211 1.950 . S
O209 Zn212 1.945 . S
Zn210 O209 1.923 . S
Zn210 O213 1.933 . S
Zn210 O216 1.941 . S
Zn210 O217 1.965 . S
Zn211 O209 1.950 . S
Zn211 O218 1.938 . S
Zn211 O219 1.906 . S
Zn211 O229 1.953 . S
Zn212 O209 1.945 . S
Zn212 O214 1.932 . S
Zn212 O221 1.977 . S
Zn212 O222 1.910 . S
O213 Zn210 1.933 . S
O213 C224 1.226 . S
O214 Zn212 1.932 . S
O214 C224 1.307 . S
O215 Zn208 1.919 . S
O215 C226 1.253 . S
O216 Zn210 1.941 . S
O216 C226 1.283 . S
O217 Zn210 1.965 . S
O217 C225 1.303 . S
O218 Zn211 1.938 . S
O218 C225 1.247 . S
O219 Zn211 1.906 . S
O219 C227 1.304 . S
O220 Zn208 1.924 . S
O220 C228 1.311 . S
O221 Zn212 1.977 . S
O221 C227 1.272 . S
O222 Zn212 1.910 . S
O222 C228 1.231 . S
C223 O207 1.225 . S
C223 O229 1.298 . S
C224 O213 1.226 . S
C224 O214 1.307 . S
C225 O217 1.303 . S
C225 O218 1.247 . S
C226 O215 1.253 . S
C226 O216 1.283 . S
C227 O219 1.304 . S
C227 O221 1.272 . S
C228 O220 1.311 . S
C228 O222 1.231 . S
O229 Zn211 1.953 . S
O229 C223 1.298 . S
O230 Zn231 1.953 . S
O230 C246 1.225 . S
Zn231 O230 1.953 . S
Zn231 O232 1.949 . S
Zn231 O238 1.919 . S
Zn231 O243 1.924 . S
O232 Zn231 1.949 . S
O232 Zn233 1.923 . S
O232 Zn234 1.950 . S
O232 Zn235 1.945 . S
Zn233 O232 1.923 . S
Zn233 O236 1.933 . S
Zn233 O239 1.941 . S
Zn233 O240 1.965 . S
Zn234 O232 1.950 . S
Zn234 O241 1.938 . S
Zn234 O242 1.906 . S
Zn234 O252 1.953 . S
Zn235 O232 1.945 . S
Zn235 O237 1.932 . S
Zn235 O244 1.977 . S
Zn235 O245 1.910 . S
O236 Zn233 1.933 . S
O236 C247 1.226 . S
O237 Zn235 1.932 . S
O237 C247 1.307 . S
O238 Zn231 1.919 . S
O238 C249 1.253 . S
O239 Zn233 1.941 . S
O239 C249 1.283 . S
O240 Zn233 1.965 . S
O240 C248 1.303 . S
O241 Zn234 1.938 . S
O241 C248 1.247 . S
O242 Zn234 1.906 . S
O242 C250 1.304 . S
O243 Zn231 1.924 . S
O243 C251 1.311 . S
O244 Zn235 1.977 . S
O244 C250 1.272 . S
O245 Zn235 1.910 . S
O245 C251 1.231 . S
C246 O230 1.225 . S
C246 O252 1.298 . S
C247 O236 1.226 . S
C247 O237 1.307 . S
C248 O240 1.303 . S
C248 O241 1.247 . S
C249 O238 1.253 . S
C249 O239 1.283 . S
C250 O242 1.304 . S
C250 O244 1.272 . S
C251 O243 1.311 . S
C251 O245 1.231 . S
O252 Zn234 1.953 . S
O252 C246 1.298 . S
O253 Zn254 1.953 . S
O253 C269 1.225 . S
Zn254 O253 1.953 . S
Zn254 O255 1.949 . S
Zn254 O261 1.919 . S
Zn254 O266 1.924 . S
O255 Zn254 1.949 . S
O255 Zn256 1.923 . S
O255 Zn257 1.950 . S
O255 Zn258 1.945 . S
Zn256 O255 1.923 . S
Zn256 O259 1.933 . S
Zn256 O262 1.941 . S
Zn256 O263 1.965 . S
Zn257 O255 1.950 . S
Zn257 O264 1.938 . S
Zn257 O265 1.906 . S
Zn257 O275 1.953 . S
Zn258 O255 1.945 . S
Zn258 O260 1.932 . S
Zn258 O267 1.977 . S
Zn258 O268 1.910 . S
O259 Zn256 1.933 . S
O259 C270 1.226 . S
O260 Zn258 1.932 . S
O260 C270 1.307 . S
O261 Zn254 1.919 . S
O261 C272 1.253 . S
O262 Zn256 1.941 . S
O262 C272 1.283 . S
O263 Zn256 1.965 . S
O263 C271 1.303 . S
O264 Zn257 1.938 . S
O264 C271 1.247 . S
O265 Zn257 1.906 . S
O265 C273 1.304 . S
O266 Zn254 1.924 . S
O266 C274 1.311 . S
O267 Zn258 1.977 . S
O267 C273 1.272 . S
O268 Zn258 1.910 . S
O268 C274 1.231 . S
C269 O253 1.225 . S
C269 O275 1.298 . S
C270 O259 1.226 . S
C270 O260 1.307 . S
C271 O263 1.303 . S
C271 O264 1.247 . S
C272 O261 1.253 . S
C272 O262 1.283 . S
C273 O265 1.304 . S
C273 O267 1.272 . S
C274 O266 1.311 . S
C274 O268 1.231 . S
O275 Zn257 1.953 . S
O275 C269 1.298 . S
O276 Zn277 1.953 . S
O276 C292 1.225 . S
Zn277 O276 1.953 . S
Zn277 O278 1.949 . S
Zn277 O284 1.919 . S
Zn277 O289 1.924 . S
O278 Zn277 1.949 . S
O278 Zn279 1.923 . S
O278 Zn280 1.950 . S
O278 Zn281 1.945 . S
Zn279 O278 1.923 . S
Zn279 O282 1.933 . S
Zn279 O285 1.941 . S
Zn279 O286 1.965 . S
Zn280 O278 1.950 . S
Zn280 O287 1.938 . S
Zn280 O288 1.906 . S
Zn280 O298 1.953 . S
Zn281 O278 1.945 . S
Zn281 O283 1.932 . S
Zn281 O290 1.977 . S
Zn281 O291 1.910 . S
O282 Zn279 1.933 . S
O282 C293 1.226 . S
O283 Zn281 1.932 . S
O283 C293 1.307 . S
O284 Zn277 1.919 . S
O284 C295 1.253 . S
O285 Zn279 1.941 . S
O285 C295 1.283 . S
O286 Zn279 1.965 . S
O286 C294 1.303 . S
O287 Zn280 1.938 . S
O287 C294 1.247 . S
O288 Zn280 1.906 . S
O288 C296 1.304 . S
O289 Zn277 1.924 . S
O289 C297 1.311 . S
O290 Zn281 1.977 . S
O290 C296 1.272 . S
O291 Zn281 1.910 . S
O291 C297 1.231 . S
C292 O276 1.225 . S
C292 O298 1.298 . S
C293 O282 1.226 . S
C293 O283 1.307 . S
C294 O286 1.303 . S
C294 O287 1.247 . S
C295 O284 1.253 . S
C295 O285 1.283 . S
C296 O288 1.304 . S
C296 O290 1.272 . S
C297 O289 1.311 . S
C297 O291 1.231 . S
O298 Zn280 1.953 . S
O298 C292 1.298 . S
O299 Zn300 1.953 . S
O299 C315 1.225 . S
Zn300 O299 1.953 . S
Zn300 O301 1.949 . S
Zn300 O307 1.919 . S
Zn300 O312 1.924 . S
O301 Zn300 1.949 . S
O301 Zn302 1.923 . S
O301 Zn303 1.950 . S
O301 Zn304 1.945 . S
Zn302 O301 1.923 . S
Zn302 O305 1.933 . S
Zn302 O308 1.941 . S
Zn302 O309 1.965 . S
Zn303 O301 1.950 . S
Zn303 O310 1.938 . S
Zn303 O311 1.906 . S
Zn303 O321 1.953 . S
Zn304 O301 1.945 . S
Zn304 O306 1.932 . S
Zn304 O313 1.977 . S
Zn304 O314 1.910 . S
O305 Zn302 1.933 . S
O305 C316 1.226 . S
O306 Zn304 1.932 . S
O306 C316 1.307 . S
O307 Zn300 1.919 . S
O307 C318 1.253 . S
O308 Zn302 1.941 . S
O308 C318 1.283 . S
O309 Zn302 1.965 . S
O309 C317 1.303 . S
O310 Zn303 1.938 . S
O310 C317 1.247 . S
O311 Zn303 1.906 . S
O311 C319 1.304 . S
O312 Zn300 1.924 . S
O312 C320 1.311 . S
O313 Zn304 1.977 . S
O313 C319 1.272 . S
O314 Zn304 1.910 . S
O314 C320 1.231 . S
C315 O299 1.225 . S
C315 O321 1.298 . S
C316 O305 1.226 . S
C316 O306 1.307 . S
C317 O309 1.303 . S
C317 O310 1.247 . S
C318 O307 1.253 . S
C318 O308 1.283 . S
C319 O311 1.304 . S
C319 O313 1.272 . S
C320 O312 1.311 . S
C320 O314 1.231 . S
O321 Zn303 1.953 . S
O321 C315 1.298 . S
O322 Zn323 1.953 . S
O322 C338 1.225 . S
Zn323 O322 1.953 . S
Zn323 O324 1.949 . S
Zn323 O330 1.919 . S
Zn323 O335 1.924 . S
O324 Zn323 1.949 . S
O324 Zn325 1.923 . S
O324 Zn326 1.950 . S
O324 Zn327 1.945 . S
Zn325 O324 1.923 . S
Zn325 O328 1.933 . S
Zn325 O331 1.941 . S
Zn325 O332 1.965 . S
Zn326 O324 1.950 . S
Zn326 O333 1.938 . S
Zn326 O334 1.906 . S
Zn326 O344 1.953 . S
Zn327 O324 1.945 . S
Zn327 O329 1.932 . S
Zn327 O336 1.977 . S
Zn327 O337 1.910 . S
O328 Zn325 1.933 . S
O328 C339 1.226 . S
O329 Zn327 1.932 . S
O329 C339 1.307 . S
O330 Zn323 1.919 . S
O330 C341 1.253 . S
O331 Zn325 1.941 . S
O331 C341 1.283 . S
O332 Zn325 1.965 . S
O332 C340 1.303 . S
O333 Zn326 1.938 . S
O333 C340 1.247 . S
O334 Zn326 1.906 . S
O334 C342 1.304 . S
O335 Zn323 1.924 . S
O335 C343 1.311 . S
O336 Zn327 1.977 . S
O336 C342 1.272 . S
O337 Zn327 1.910 . S
O337 C343 1.231 . S
C338 O322 1.225 . S
C338 O344 1.298 . S
C339 O328 1.226 . S
C339 O329 1.307 . S
C340 O332 1.303 . S
C340 O333 1.247 . S
C341 O330 1.253 . S
C341 O331 1.283 . S
C342 O334 1.304 . S
C342 O336 1.272 . S
C343 O335 1.311 . S
C343 O337 1.231 . S
O344 Zn326 1.953 . S
O344 C338 1.298 . S
O345 Zn346 1.953 . S
O345 C361 1.225 . S
Zn346 O345 1.953 . S
Zn346 O347 1.949 . S
Zn346 O353 1.919 . S
Zn346 O358 1.924 . S
O347 Zn346 1.949 . S
O347 Zn348 1.923 . S
O347 Zn349 1.950 . S
O347 Zn350 1.945 . S
Zn348 O347 1.923 . S
Zn348 O351 1.933 . S
Zn348 O354 1.941 . S
Zn348 O355 1.965 . S
Zn349 O347 1.950 . S
Zn349 O356 1.938 . S
Zn349 O357 1.906 . S
Zn349 O367 1.953 . S
Zn350 O347 1.945 . S
Zn350 O352 1.932 . S
Zn350 O359 1.977 . S
Zn350 O360 1.910 . S
O351 Zn348 1.933 . S
O351 C362 1.226 . S
O352 Zn350 1.932 . S
O352 C362 1.307 . S
O353 Zn346 1.919 . S
O353 C364 1.253 . S
O354 Zn348 1.941 . S
O354 C364 1.283 . S
O355 Zn348 1.965 . S
O355 C363 1.303 . S
O356 Zn349 1.938 . S
O356 C363 1.247 . S
O357 Zn349 1.906 . S
O357 C365 1.304 . S
O358 Zn346 1.924 . S
O358 C366 1.311 . S
O359 Zn350 1.977 . S
O359 C365 1.272 . S
O360 Zn350 1.910 . S
O360 C366 1.231 . S
C361 O345 1.225 . S
C361 O367 1.298 . S
C362 O351 1.226 . S
C362 O352 1.307 . S
C363 O355 1.303 . S
C363 O356 1.247 . S
C364 O353 1.253 . S
C364 O354 1.283 . S
C365 O357 1.304 . S
C365 O359 1.272 . S
C366 O358 1.311 . S
C366 O360 1.231 . S
O367 Zn349 1.953 . S
O367 C361 1.298 . S
O368 Zn369 1.953 . S
O368 C384 1.225 . S
Zn369 O368 1.953 . S
Zn369 O370 1.949 . S
Zn369 O376 1.919 . S
Zn369 O381 1.924 . S
O370 Zn369 1.949 . S
O370 Zn371 1.923 . S
O370 Zn372 1.950 . S
O370 Zn373 1.945 . S
Zn371 O370 1.923 . S
Zn371 O374 1.933 . S
Zn371 O377 1.941 . S
Zn371 O378 1.965 . S
Zn372 O370 1.950 . S
Zn372 O379 1.938 . S
Zn372 O380 1.906 . S
Zn372 O390 1.953 . S
Zn373 O370 1.945 . S
Zn373 O375 1.932 . S
Zn373 O382 1.977 . S
Zn373 O383 1.910 . S
O374 Zn371 1.933 . S
O374 C385 1.226 . S
O375 Zn373 1.932 . S
O375 C385 1.307 . S
O376 Zn369 1.919 . S
O376 C387 1.253 . S
O377 Zn371 1.941 . S
O377 C387 1.283 . S
O378 Zn371 1.965 . S
O378 C386 1.303 . S
O379 Zn372 1.938 . S
O379 C386 1.247 . S
O380 Zn372 1.906 . S
O380 C388 1.304 . S
O381 Zn369 1.924 . S
O381 C389 1.311 . S
O382 Zn373 1.977 . S
O382 C388 1.272 . S
O383 Zn373 1.910 . S
O383 C389 1.231 . S
C384 O368 1.225 . S
C384 O390 1.298 . S
C385 O374 1.226 . S
C385 O375 1.307 . S
C386 O378 1.303 . S
C386 O379 1.247 . S
C387 O376 1.253 . S
C387 O377 1.283 . S
C388 O380 1.304 . S
C388 O382 1.272 . S
C389 O381 1.311 . S
C389 O383 1.231 . S
O390 Zn372 1.953 . S
O390 C384 1.298 . S
O391 Zn392 1.953 . S
O391 C407 1.225 . S
Zn392 O391 1.953 . S
Zn392 O393 1.949 . S
Zn392 O399 1.919 . S
Zn392 O404 1.924 . S
O393 Zn392 1.949 . S
O393 Zn394 1.923 . S
O393 Zn395 1.950 . S
O393 Zn396 1.945 . S
Zn394 O393 1.923 . S
Zn394 O397 1.933 . S
Zn394 O400 1.941 . S
Zn394 O401 1.965 . S
Zn395 O393 1.950 . S
Zn395 O402 1.938 . S
Zn395 O403 1.906 . S
Zn395 O413 1.953 . S
Zn396 O393 1.945 . S
Zn396 O398 1.932 . S
Zn396 O405 1.977 . S
Zn396 O406 1.910 . S
O397 Zn394 1.933 . S
O397 C408 1.226 . S
O398 Zn396 1.932 . S
O398 C408 1.307 . S
O399 Zn392 1.919 . S
O399 C410 1.253 . S
O400 Zn394 1.941 . S
O400 C410 1.283 . S
O401 Zn394 1.965 . S
O401 C409 1.303 . S
O402 Zn395 1.938 . S
O402 C409 1.247 . S
O403 Zn395 1.906 . S
O403 C411 1.304 . S
O404 Zn392 1.924 . S
O404 C412 1.311 . S
O405 Zn396 1.977 . S
O405 C411 1.272 . S
O406 Zn396 1.910 . S
O406 C412 1.231 . S
C407 O391 1.225 . S
C407 O413 1.298 . S
C408 O397 1.226 . S
C408 O398 1.307 . S
C409 O401 1.303 . S
C409 O402 1.247 . S
C410 O399 1.253 . S
C410 O400 1.283 . S
C411 O403 1.304 . S
C411 O405 1.272 . S
C412 O404 1.311 . S
C412 O406 1.231 . S
O413 Zn395 1.953 . S
O413 C407 1.298 . S
H414 C426 0.930 . S
H415 C428 0.930 . S
H416 C429 0.930 . S
H417 C433 0.959 . S
H418 C433 0.959 . S
H419 C433 0.961 . S
H420 C434 0.960 . S
H421 C434 0.961 . S
H422 C434 0.959 . S
H423 C437 0.929 . S
H424 C438 0.931 . S
H425 C440 0.930 . S
C426 H414 0.930 . S
C426 C427 1.399 . S
C426 C431 1.399 . S
C427 C426 1.399 . S
C427 C428 1.376 . S
C428 H415 0.930 . S
C428 C427 1.376 . S
C428 C429 1.388 . S
C429 H416 0.930 . S
C429 C428 1.388 . S
C429 C430 1.390 . S
C430 C429 1.390 . S
C430 C431 1.394 . S
C430 C436 1.465 . S
C431 C426 1.399 . S
C431 C430 1.394 . S
C431 C432 1.516 1_556 S
C432 C431 1.516 1_554 S
C432 C433 1.502 . S
C432 C434 1.561 . S
C432 C435 1.526 1_554 S
C433 H417 0.959 . S
C433 H418 0.959 . S
C433 H419 0.961 . S
C433 C432 1.502 . S
C434 H420 0.960 . S
C434 H421 0.961 . S
C434 H422 0.959 . S
C434 C432 1.561 . S
C435 C432 1.526 1_556 S
C435 C436 1.396 . S
C435 C440 1.390 1_556 S
C436 C430 1.465 . S
C436 C435 1.396 . S
C436 C437 1.399 . S
C437 H423 0.929 . S
C437 C436 1.399 . S
C437 C438 1.385 . S
C438 H424 0.931 . S
C438 C437 1.385 . S
C438 C439 1.389 . S
C439 C438 1.389 . S
C439 C440 1.387 1_556 S
C440 H425 0.930 . S
C440 C435 1.390 1_554 S
C440 C439 1.387 1_554 S
H441 C453 0.930 . S
H442 C455 0.930 . S
H443 C456 0.930 . S
H444 C460 0.959 . S
H445 C460 0.959 . S
H446 C460 0.961 . S
H447 C461 0.960 . S
H448 C461 0.961 . S
H449 C461 0.959 . S
H450 C464 0.929 . S
H451 C465 0.931 . S
H452 C467 0.930 . S
C453 H441 0.930 . S
C453 C454 1.399 1_544 S
C453 C458 1.399 1_554 S
C454 C453 1.399 1_566 S
C454 C455 1.376 . S
C455 H442 0.930 . S
C455 C454 1.376 . S
C455 C456 1.388 1_565 S
C456 H443 0.930 . S
C456 C455 1.388 1_545 S
C456 C457 1.390 . S
C457 C456 1.390 . S
C457 C458 1.394 . S
C457 C463 1.465 . S
C458 C453 1.399 1_556 S
C458 C457 1.394 . S
C458 C459 1.516 1_556 S
C459 C458 1.516 1_554 S
C459 C460 1.502 . S
C459 C461 1.561 . S
C459 C462 1.526 1_554 S
C460 H444 0.959 . S
C460 H445 0.959 . S
C460 H446 0.961 . S
C460 C459 1.502 . S
C461 H447 0.960 . S
C461 H448 0.961 . S
C461 H449 0.959 . S
C461 C459 1.561 . S
C462 C459 1.526 1_556 S
C462 C463 1.396 . S
C462 C467 1.390 . S
C463 C457 1.465 . S
C463 C462 1.396 . S
C463 C464 1.399 . S
C464 H450 0.929 . S
C464 C463 1.399 . S
C464 C465 1.385 . S
C465 H451 0.931 . S
C465 C464 1.385 . S
C465 C466 1.389 . S
C466 C465 1.389 . S
C466 C467 1.387 . S
C467 H452 0.930 . S
C467 C462 1.390 . S
C467 C466 1.387 . S
H468 C480 0.930 . S
H469 C482 0.930 . S
H470 C483 0.930 . S
H471 C487 0.959 . S
H472 C487 0.959 . S
H473 C487 0.961 . S
H474 C488 0.960 . S
H475 C488 0.961 1_554 S
H476 C488 0.959 . S
H477 C491 0.929 . S
H478 C492 0.931 . S
H479 C494 0.930 . S
C480 H468 0.930 . S
C480 C481 1.399 . S
C480 C485 1.399 . S
C481 C480 1.399 . S
C481 C482 1.376 . S
C482 H469 0.930 . S
C482 C481 1.376 . S
C482 C483 1.388 . S
C483 H470 0.930 . S
C483 C482 1.388 . S
C483 C484 1.390 . S
C484 C483 1.390 . S
C484 C485 1.394 . S
C484 C490 1.465 . S
C485 C480 1.399 . S
C485 C484 1.394 . S
C485 C486 1.516 . S
C486 C485 1.516 . S
C486 C487 1.502 1_556 S
C486 C488 1.561 . S
C486 C489 1.526 . S
C487 H471 0.959 . S
C487 H472 0.959 . S
C487 H473 0.961 . S
C487 C486 1.502 1_554 S
C488 H474 0.960 . S
C488 H475 0.961 1_556 S
C488 H476 0.959 . S
C488 C486 1.561 . S
C489 C486 1.526 . S
C489 C490 1.396 . S
C489 C494 1.390 1_556 S
C490 C484 1.465 . S
C490 C489 1.396 . S
C490 C491 1.399 . S
C491 H477 0.929 . S
C491 C490 1.399 . S
C491 C492 1.385 1_655 S
C492 H478 0.931 . S
C492 C491 1.385 1_455 S
C492 C493 1.389 . S
C493 C492 1.389 . S
C493 C494 1.387 1_456 S
C494 H479 0.930 . S
C494 C489 1.390 1_554 S
C494 C493 1.387 1_654 S
H495 C507 0.930 . S
H496 C509 0.930 . S
H497 C510 0.930 . S
H498 C514 0.959 . S
H499 C514 0.959 . S
H500 C514 0.961 . S
H501 C515 0.960 . S
H502 C515 0.961 . S
H503 C515 0.959 . S
H504 C518 0.929 1_556 S
H505 C519 0.931 . S
H506 C521 0.930 . S
C507 H495 0.930 . S
C507 C508 1.399 1_554 S
C507 C512 1.399 . S
C508 C507 1.399 1_556 S
C508 C509 1.376 . S
C509 H496 0.930 . S
C509 C508 1.376 . S
C509 C510 1.388 . S
C510 H497 0.930 . S
C510 C509 1.388 . S
C510 C511 1.390 1_556 S
C511 C510 1.390 1_554 S
C511 C512 1.394 . S
C511 C517 1.465 . S
C512 C507 1.399 . S
C512 C511 1.394 . S
C512 C513 1.516 . S
C513 C512 1.516 . S
C513 C514 1.502 . S
C513 C515 1.561 . S
C513 C516 1.526 . S
C514 H498 0.959 . S
C514 H499 0.959 . S
C514 H500 0.961 . S
C514 C513 1.502 . S
C515 H501 0.960 . S
C515 H502 0.961 . S
C515 H503 0.959 . S
C515 C513 1.561 . S
C516 C513 1.526 . S
C516 C517 1.396 . S
C516 C521 1.390 . S
C517 C511 1.465 . S
C517 C516 1.396 . S
C517 C518 1.399 . S
C518 H504 0.929 1_554 S
C518 C517 1.399 . S
C518 C519 1.385 . S
C519 H505 0.931 . S
C519 C518 1.385 . S
C519 C520 1.389 . S
C520 C519 1.389 . S
C520 C521 1.387 . S
C521 H506 0.930 . S
C521 C516 1.390 . S
C521 C520 1.387 . S
H522 C534 0.930 . S
H523 C536 0.930 . S
H524 C537 0.930 . S
H525 C541 0.959 . S
H526 C541 0.959 . S
H527 C541 0.961 . S
H528 C542 0.960 . S
H529 C542 0.961 . S
H530 C542 0.959 . S
H531 C545 0.929 . S
H532 C546 0.931 . S
H533 C548 0.930 . S
C534 H522 0.930 . S
C534 C535 1.399 1_566 S
C534 C539 1.399 1_556 S
C535 C534 1.399 1_544 S
C535 C536 1.376 . S
C536 H523 0.930 . S
C536 C535 1.376 . S
C536 C537 1.388 1_545 S
C537 H524 0.930 . S
C537 C536 1.388 1_565 S
C537 C538 1.390 . S
C538 C537 1.390 . S
C538 C539 1.394 . S
C538 C544 1.465 . S
C539 C534 1.399 1_554 S
C539 C538 1.394 . S
C539 C540 1.516 1_554 S
C540 C539 1.516 1_556 S
C540 C541 1.502 . S
C540 C542 1.561 . S
C540 C543 1.526 1_556 S
C541 H525 0.959 . S
C541 H526 0.959 . S
C541 H527 0.961 . S
C541 C540 1.502 . S
C542 H528 0.960 . S
C542 H529 0.961 . S
C542 H530 0.959 . S
C542 C540 1.561 . S
C543 C540 1.526 1_554 S
C543 C544 1.396 . S
C543 C548 1.390 . S
C544 C538 1.465 . S
C544 C543 1.396 . S
C544 C545 1.399 . S
C545 H531 0.929 . S
C545 C544 1.399 . S
C545 C546 1.385 . S
C546 H532 0.931 . S
C546 C545 1.385 . S
C546 C547 1.389 . S
C547 C546 1.389 . S
C547 C548 1.387 . S
C548 H533 0.930 . S
C548 C543 1.390 . S
C548 C547 1.387 . S
H549 C561 0.930 . S
H550 C563 0.930 . S
H551 C564 0.930 1_556 S
H552 C568 0.959 . S
H553 C568 0.959 . S
H554 C568 0.961 . S
H555 C569 0.960 . S
H556 C569 0.961 . S
H557 C569 0.959 . S
H558 C572 0.929 . S
H559 C573 0.931 . S
H560 C575 0.930 . S
C561 H549 0.930 . S
C561 C562 1.399 . S
C561 C566 1.399 . S
C562 C561 1.399 . S
C562 C563 1.376 . S
C563 H550 0.930 . S
C563 C562 1.376 . S
C563 C564 1.388 . S
C564 H551 0.930 1_554 S
C564 C563 1.388 . S
C564 C565 1.390 . S
C565 C564 1.390 . S
C565 C566 1.394 . S
C565 C571 1.465 . S
C566 C561 1.399 . S
C566 C565 1.394 . S
C566 C567 1.516 . S
C567 C566 1.516 . S
C567 C568 1.502 . S
C567 C569 1.561 . S
C567 C570 1.526 . S
C568 H552 0.959 . S
C568 H553 0.959 . S
C568 H554 0.961 . S
C568 C567 1.502 . S
C569 H555 0.960 . S
C569 H556 0.961 . S
C569 H557 0.959 . S
C569 C567 1.561 . S
C570 C567 1.526 . S
C570 C571 1.396 . S
C570 C575 1.390 . S
C571 C565 1.465 . S
C571 C570 1.396 . S
C571 C572 1.399 1_554 S
C572 H558 0.929 . S
C572 C571 1.399 1_556 S
C572 C573 1.385 1_455 S
C573 H559 0.931 . S
C573 C572 1.385 1_655 S
C573 C574 1.389 . S
C574 C573 1.389 . S
C574 C575 1.387 1_656 S
C575 H560 0.930 . S
C575 C570 1.390 . S
C575 C574 1.387 1_454 S
H576 C588 0.930 . S
H577 C590 0.930 . S
H578 C591 0.930 . S
H579 C595 0.959 . S
H580 C595 0.959 . S
H581 C595 0.961 . S
H582 C596 0.960 . S
H583 C596 0.961 . S
H584 C596 0.959 . S
H585 C599 0.929 . S
H586 C600 0.931 . S
H587 C602 0.930 . S
C588 H576 0.930 . S
C588 C589 1.399 . S
C588 C593 1.399 . S
C589 C588 1.399 . S
C589 C590 1.376 . S
C590 H577 0.930 . S
C590 C589 1.376 . S
C590 C591 1.388 . S
C591 H578 0.930 . S
C591 C590 1.388 . S
C591 C592 1.390 . S
C592 C591 1.390 . S
C592 C593 1.394 . S
C592 C598 1.465 . S
C593 C588 1.399 . S
C593 C592 1.394 . S
C593 C594 1.516 . S
C594 C593 1.516 . S
C594 C595 1.502 . S
C594 C596 1.561 . S
C594 C597 1.526 . S
C595 H579 0.959 . S
C595 H580 0.959 . S
C595 H581 0.961 . S
C595 C594 1.502 . S
C596 H582 0.960 . S
C596 H583 0.961 . S
C596 H584 0.959 . S
C596 C594 1.561 . S
C597 C594 1.526 . S
C597 C598 1.396 . S
C597 C602 1.390 . S
C598 C592 1.465 . S
C598 C597 1.396 . S
C598 C599 1.399 . S
C599 H585 0.929 . S
C599 C598 1.399 . S
C599 C600 1.385 . S
C600 H586 0.931 . S
C600 C599 1.385 . S
C600 C601 1.389 . S
C601 C600 1.389 . S
C601 C602 1.387 . S
C602 H587 0.930 . S
C602 C597 1.390 . S
C602 C601 1.387 . S
H603 C615 0.930 . S
H604 C617 0.930 . S
H605 C618 0.930 . S
H606 C622 0.959 . S
H607 C622 0.959 . S
H608 C622 0.961 . S
H609 C623 0.960 . S
H610 C623 0.961 . S
H611 C623 0.959 . S
H612 C626 0.929 . S
H613 C627 0.931 . S
H614 C629 0.930 . S
C615 H603 0.930 . S
C615 C616 1.399 . S
C615 C620 1.399 . S
C616 C615 1.399 . S
C616 C617 1.376 . S
C617 H604 0.930 . S
C617 C616 1.376 . S
C617 C618 1.388 . S
C618 H605 0.930 . S
C618 C617 1.388 . S
C618 C619 1.390 . S
C619 C618 1.390 . S
C619 C620 1.394 . S
C619 C625 1.465 . S
C620 C615 1.399 . S
C620 C619 1.394 . S
C620 C621 1.516 . S
C621 C620 1.516 . S
C621 C622 1.502 . S
C621 C623 1.561 . S
C621 C624 1.526 . S
C622 H606 0.959 . S
C622 H607 0.959 . S
C622 H608 0.961 . S
C622 C621 1.502 . S
C623 H609 0.960 . S
C623 H610 0.961 . S
C623 H611 0.959 . S
C623 C621 1.561 . S
C624 C621 1.526 . S
C624 C625 1.396 . S
C624 C629 1.390 . S
C625 C619 1.465 . S
C625 C624 1.396 . S
C625 C626 1.399 . S
C626 H612 0.929 . S
C626 C625 1.399 . S
C626 C627 1.385 . S
C627 H613 0.931 . S
C627 C626 1.385 . S
C627 C628 1.389 . S
C628 C627 1.389 . S
C628 C629 1.387 . S
C629 H614 0.930 . S
C629 C624 1.390 . S
C629 C628 1.387 . S
H630 C642 0.930 . S
H631 C644 0.930 . S
H632 C645 0.930 . S
H633 C649 0.959 . S
H634 C649 0.959 . S
H635 C649 0.961 . S
H636 C650 0.960 . S
H637 C650 0.961 . S
H638 C650 0.959 . S
H639 C653 0.929 . S
H640 C654 0.931 . S
H641 C656 0.930 . S
C642 H630 0.930 . S
C642 C643 1.399 . S
C642 C647 1.399 . S
C643 C642 1.399 . S
C643 C644 1.376 . S
C644 H631 0.930 . S
C644 C643 1.376 . S
C644 C645 1.388 . S
C645 H632 0.930 . S
C645 C644 1.388 . S
C645 C646 1.390 . S
C646 C645 1.390 . S
C646 C647 1.394 . S
C646 C652 1.465 . S
C647 C642 1.399 . S
C647 C646 1.394 . S
C647 C648 1.516 . S
C648 C647 1.516 . S
C648 C649 1.502 . S
C648 C650 1.561 . S
C648 C651 1.526 . S
C649 H633 0.959 . S
C649 H634 0.959 . S
C649 H635 0.961 . S
C649 C648 1.502 . S
C650 H636 0.960 . S
C650 H637 0.961 . S
C650 H638 0.959 . S
C650 C648 1.561 . S
C651 C648 1.526 . S
C651 C652 1.396 . S
C651 C656 1.390 . S
C652 C646 1.465 . S
C652 C651 1.396 . S
C652 C653 1.399 . S
C653 H639 0.929 . S
C653 C652 1.399 . S
C653 C654 1.385 . S
C654 H640 0.931 . S
C654 C653 1.385 . S
C654 C655 1.389 . S
C655 C654 1.389 . S
C655 C656 1.387 . S
C656 H641 0.930 . S
C656 C651 1.390 . S
C656 C655 1.387 . S
H657 C669 0.930 . S
H658 C671 0.930 . S
H659 C672 0.930 . S
H660 C676 0.959 . S
H661 C676 0.959 . S
H662 C676 0.961 . S
H663 C677 0.960 . S
H664 C677 0.961 . S
H665 C677 0.959 . S
H666 C680 0.929 . S
H667 C681 0.931 . S
H668 C683 0.930 . S
C669 H657 0.930 . S
C669 C670 1.399 . S
C669 C674 1.399 . S
C670 C669 1.399 . S
C670 C671 1.376 . S
C671 H658 0.930 . S
C671 C670 1.376 . S
C671 C672 1.388 . S
C672 H659 0.930 . S
C672 C671 1.388 . S
C672 C673 1.390 . S
C673 C672 1.390 . S
C673 C674 1.394 . S
C673 C679 1.465 . S
C674 C669 1.399 . S
C674 C673 1.394 . S
C674 C675 1.516 . S
C675 C674 1.516 . S
C675 C676 1.502 . S
C675 C677 1.561 . S
C675 C678 1.526 . S
C676 H660 0.959 . S
C676 H661 0.959 . S
C676 H662 0.961 . S
C676 C675 1.502 . S
C677 H663 0.960 . S
C677 H664 0.961 . S
C677 H665 0.959 . S
C677 C675 1.561 . S
C678 C675 1.526 . S
C678 C679 1.396 . S
C678 C683 1.390 . S
C679 C673 1.465 . S
C679 C678 1.396 . S
C679 C680 1.399 . S
C680 H666 0.929 . S
C680 C679 1.399 . S
C680 C681 1.385 . S
C681 H667 0.931 . S
C681 C680 1.385 . S
C681 C682 1.389 . S
C682 C681 1.389 . S
C682 C683 1.387 . S
C683 H668 0.930 . S
C683 C678 1.390 . S
C683 C682 1.387 . S
H684 C696 0.930 . S
H685 C698 0.930 . S
H686 C699 0.930 . S
H687 C703 0.959 . S
H688 C703 0.959 . S
H689 C703 0.961 . S
H690 C704 0.960 . S
H691 C704 0.961 . S
H692 C704 0.959 . S
H693 C707 0.929 . S
H694 C708 0.931 . S
H695 C710 0.930 . S
C696 H684 0.930 . S
C696 C697 1.399 . S
C696 C701 1.399 . S
C697 C696 1.399 . S
C697 C698 1.376 . S
C698 H685 0.930 . S
C698 C697 1.376 . S
C698 C699 1.388 . S
C699 H686 0.930 . S
C699 C698 1.388 . S
C699 C700 1.390 . S
C700 C699 1.390 . S
C700 C701 1.394 . S
C700 C706 1.465 . S
C701 C696 1.399 . S
C701 C700 1.394 . S
C701 C702 1.516 . S
C702 C701 1.516 . S
C702 C703 1.502 . S
C702 C704 1.561 . S
C702 C705 1.526 . S
C703 H687 0.959 . S
C703 H688 0.959 . S
C703 H689 0.961 . S
C703 C702 1.502 . S
C704 H690 0.960 . S
C704 H691 0.961 . S
C704 H692 0.959 . S
C704 C702 1.561 . S
C705 C702 1.526 . S
C705 C706 1.396 . S
C705 C710 1.390 . S
C706 C700 1.465 . S
C706 C705 1.396 . S
C706 C707 1.399 . S
C707 H693 0.929 . S
C707 C706 1.399 . S
C707 C708 1.385 . S
C708 H694 0.931 . S
C708 C707 1.385 . S
C708 C709 1.389 . S
C709 C708 1.389 . S
C709 C710 1.387 . S
C710 H695 0.930 . S
C710 C705 1.390 . S
C710 C709 1.387 . S
H711 C723 0.930 . S
H712 C725 0.930 . S
H713 C726 0.930 . S
H714 C730 0.959 . S
H715 C730 0.959 . S
H716 C730 0.961 . S
H717 C731 0.960 . S
H718 C731 0.961 . S
H719 C731 0.959 . S
H720 C734 0.929 . S
H721 C735 0.931 . S
H722 C737 0.930 . S
C723 H711 0.930 . S
C723 C724 1.399 . S
C723 C728 1.399 . S
C724 C723 1.399 . S
C724 C725 1.376 . S
C725 H712 0.930 . S
C725 C724 1.376 . S
C725 C726 1.388 . S
C726 H713 0.930 . S
C726 C725 1.388 . S
C726 C727 1.390 . S
C727 C726 1.390 . S
C727 C728 1.394 . S
C727 C733 1.465 . S
C728 C723 1.399 . S
C728 C727 1.394 . S
C728 C729 1.516 . S
C729 C728 1.516 . S
C729 C730 1.502 . S
C729 C731 1.561 . S
C729 C732 1.526 . S
C730 H714 0.959 . S
C730 H715 0.959 . S
C730 H716 0.961 . S
C730 C729 1.502 . S
C731 H717 0.960 . S
C731 H718 0.961 . S
C731 H719 0.959 . S
C731 C729 1.561 . S
C732 C729 1.526 . S
C732 C733 1.396 . S
C732 C737 1.390 . S
C733 C727 1.465 . S
C733 C732 1.396 . S
C733 C734 1.399 . S
C734 H720 0.929 . S
C734 C733 1.399 . S
C734 C735 1.385 . S
C735 H721 0.931 . S
C735 C734 1.385 . S
C735 C736 1.389 . S
C736 C735 1.389 . S
C736 C737 1.387 . S
C737 H722 0.930 . S
C737 C732 1.390 . S
C737 C736 1.387 . S
H738 C750 0.930 . S
H739 C752 0.930 . S
H740 C753 0.930 . S
H741 C757 0.959 . S
H742 C757 0.959 . S
H743 C757 0.961 . S
H744 C758 0.960 . S
H745 C758 0.961 . S
H746 C758 0.959 . S
H747 C761 0.929 . S
H748 C762 0.931 . S
H749 C764 0.930 . S
C750 H738 0.930 . S
C750 C751 1.399 . S
C750 C755 1.399 . S
C751 C750 1.399 . S
C751 C752 1.376 . S
C752 H739 0.930 . S
C752 C751 1.376 . S
C752 C753 1.388 . S
C753 H740 0.930 . S
C753 C752 1.388 . S
C753 C754 1.390 . S
C754 C753 1.390 . S
C754 C755 1.394 . S
C754 C760 1.465 . S
C755 C750 1.399 . S
C755 C754 1.394 . S
C755 C756 1.516 . S
C756 C755 1.516 . S
C756 C757 1.502 . S
C756 C758 1.561 . S
C756 C759 1.526 . S
C757 H741 0.959 . S
C757 H742 0.959 . S
C757 H743 0.961 . S
C757 C756 1.502 . S
C758 H744 0.960 . S
C758 H745 0.961 . S
C758 H746 0.959 . S
C758 C756 1.561 . S
C759 C756 1.526 . S
C759 C760 1.396 . S
C759 C764 1.390 . S
C760 C754 1.465 . S
C760 C759 1.396 . S
C760 C761 1.399 . S
C761 H747 0.929 . S
C761 C760 1.399 . S
C761 C762 1.385 . S
C762 H748 0.931 . S
C762 C761 1.385 . S
C762 C763 1.389 . S
C763 C762 1.389 . S
C763 C764 1.387 . S
C764 H749 0.930 . S
C764 C759 1.390 . S
C764 C763 1.387 . S
H765 C777 0.930 . S
H766 C779 0.930 . S
H767 C780 0.930 . S
H768 C784 0.959 . S
H769 C784 0.959 . S
H770 C784 0.961 . S
H771 C785 0.960 . S
H772 C785 0.961 . S
H773 C785 0.959 . S
H774 C788 0.929 . S
H775 C789 0.931 . S
H776 C791 0.930 . S
C777 H765 0.930 . S
C777 C778 1.399 . S
C777 C782 1.399 . S
C778 C777 1.399 . S
C778 C779 1.376 . S
C779 H766 0.930 . S
C779 C778 1.376 . S
C779 C780 1.388 . S
C780 H767 0.930 . S
C780 C779 1.388 . S
C780 C781 1.390 . S
C781 C780 1.390 . S
C781 C782 1.394 . S
C781 C787 1.465 . S
C782 C777 1.399 . S
C782 C781 1.394 . S
C782 C783 1.516 . S
C783 C782 1.516 . S
C783 C784 1.502 . S
C783 C785 1.561 . S
C783 C786 1.526 . S
C784 H768 0.959 . S
C784 H769 0.959 . S
C784 H770 0.961 . S
C784 C783 1.502 . S
C785 H771 0.960 . S
C785 H772 0.961 . S
C785 H773 0.959 . S
C785 C783 1.561 . S
C786 C783 1.526 . S
C786 C787 1.396 . S
C786 C791 1.390 . S
C787 C781 1.465 . S
C787 C786 1.396 . S
C787 C788 1.399 . S
C788 H774 0.929 . S
C788 C787 1.399 . S
C788 C789 1.385 . S
C789 H775 0.931 . S
C789 C788 1.385 . S
C789 C790 1.389 . S
C790 C789 1.389 . S
C790 C791 1.387 . S
C791 H776 0.930 . S
C791 C786 1.390 . S
C791 C790 1.387 . S
H792 C804 0.930 . S
H793 C806 0.930 . S
H794 C807 0.930 . S
H795 C811 0.959 . S
H796 C811 0.959 . S
H797 C811 0.961 . S
H798 C812 0.960 . S
H799 C812 0.961 . S
H800 C812 0.959 . S
H801 C815 0.929 . S
H802 C816 0.931 . S
H803 C818 0.930 . S
C804 H792 0.930 . S
C804 C805 1.399 . S
C804 C809 1.399 . S
C805 C804 1.399 . S
C805 C806 1.376 . S
C806 H793 0.930 . S
C806 C805 1.376 . S
C806 C807 1.388 . S
C807 H794 0.930 . S
C807 C806 1.388 . S
C807 C808 1.390 . S
C808 C807 1.390 . S
C808 C809 1.394 . S
C808 C814 1.465 . S
C809 C804 1.399 . S
C809 C808 1.394 . S
C809 C810 1.516 . S
C810 C809 1.516 . S
C810 C811 1.502 . S
C810 C812 1.561 . S
C810 C813 1.526 . S
C811 H795 0.959 . S
C811 H796 0.959 . S
C811 H797 0.961 . S
C811 C810 1.502 . S
C812 H798 0.960 . S
C812 H799 0.961 . S
C812 H800 0.959 . S
C812 C810 1.561 . S
C813 C810 1.526 . S
C813 C814 1.396 . S
C813 C818 1.390 . S
C814 C808 1.465 . S
C814 C813 1.396 . S
C814 C815 1.399 . S
C815 H801 0.929 . S
C815 C814 1.399 . S
C815 C816 1.385 . S
C816 H802 0.931 . S
C816 C815 1.385 . S
C816 C817 1.389 . S
C817 C816 1.389 . S
C817 C818 1.387 . S
C818 H803 0.930 . S
C818 C813 1.390 . S
C818 C817 1.387 . S
H819 C831 0.930 . S
H820 C833 0.930 . S
H821 C834 0.930 . S
H822 C838 0.959 . S
H823 C838 0.959 . S
H824 C838 0.961 . S
H825 C839 0.960 . S
H826 C839 0.961 . S
H827 C839 0.959 . S
H828 C842 0.929 . S
H829 C843 0.931 . S
H830 C845 0.930 . S
C831 H819 0.930 . S
C831 C832 1.399 . S
C831 C836 1.399 . S
C832 C831 1.399 . S
C832 C833 1.376 . S
C833 H820 0.930 . S
C833 C832 1.376 . S
C833 C834 1.388 . S
C834 H821 0.930 . S
C834 C833 1.388 . S
C834 C835 1.390 . S
C835 C834 1.390 . S
C835 C836 1.394 . S
C835 C841 1.465 . S
C836 C831 1.399 . S
C836 C835 1.394 . S
C836 C837 1.516 . S
C837 C836 1.516 . S
C837 C838 1.502 . S
C837 C839 1.561 . S
C837 C840 1.526 . S
C838 H822 0.959 . S
C838 H823 0.959 . S
C838 H824 0.961 . S
C838 C837 1.502 . S
C839 H825 0.960 . S
C839 H826 0.961 . S
C839 H827 0.959 . S
C839 C837 1.561 . S
C840 C837 1.526 . S
C840 C841 1.396 . S
C840 C845 1.390 . S
C841 C835 1.465 . S
C841 C840 1.396 . S
C841 C842 1.399 . S
C842 H828 0.929 . S
C842 C841 1.399 . S
C842 C843 1.385 . S
C843 H829 0.931 . S
C843 C842 1.385 . S
C843 C844 1.389 . S
C844 C843 1.389 . S
C844 C845 1.387 . S
C845 H830 0.930 . S
C845 C840 1.390 . S
C845 C844 1.387 . S
H846 C858 0.930 . S
H847 C860 0.930 . S
H848 C861 0.930 . S
H849 C865 0.959 . S
H850 C865 0.959 . S
H851 C865 0.961 . S
H852 C866 0.960 . S
H853 C866 0.961 . S
H854 C866 0.959 . S
H855 C869 0.929 . S
H856 C870 0.931 . S
H857 C872 0.930 . S
C858 H846 0.930 . S
C858 C859 1.399 . S
C858 C863 1.399 . S
C859 C858 1.399 . S
C859 C860 1.376 . S
C860 H847 0.930 . S
C860 C859 1.376 . S
C860 C861 1.388 . S
C861 H848 0.930 . S
C861 C860 1.388 . S
C861 C862 1.390 . S
C862 C861 1.390 . S
C862 C863 1.394 . S
C862 C868 1.465 . S
C863 C858 1.399 . S
C863 C862 1.394 . S
C863 C864 1.516 . S
C864 C863 1.516 . S
C864 C865 1.502 . S
C864 C866 1.561 . S
C864 C867 1.526 . S
C865 H849 0.959 . S
C865 H850 0.959 . S
C865 H851 0.961 . S
C865 C864 1.502 . S
C866 H852 0.960 . S
C866 H853 0.961 . S
C866 H854 0.959 . S
C866 C864 1.561 . S
C867 C864 1.526 . S
C867 C868 1.396 . S
C867 C872 1.390 . S
C868 C862 1.465 . S
C868 C867 1.396 . S
C868 C869 1.399 . S
C869 H855 0.929 . S
C869 C868 1.399 . S
C869 C870 1.385 . S
C870 H856 0.931 . S
C870 C869 1.385 . S
C870 C871 1.389 . S
C871 C870 1.389 . S
C871 C872 1.387 . S
C872 H857 0.930 . S
C872 C867 1.390 . S
C872 C871 1.387 . S
H873 C885 0.930 . S
H874 C887 0.930 . S
H875 C888 0.930 . S
H876 C892 0.959 . S
H877 C892 0.959 . S
H878 C892 0.961 . S
H879 C893 0.960 . S
H880 C893 0.961 . S
H881 C893 0.959 . S
H882 C896 0.929 . S
H883 C897 0.931 . S
H884 C899 0.930 . S
C885 H873 0.930 . S
C885 C886 1.399 . S
C885 C890 1.399 . S
C886 C885 1.399 . S
C886 C887 1.376 . S
C887 H874 0.930 . S
C887 C886 1.376 . S
C887 C888 1.388 . S
C888 H875 0.930 . S
C888 C887 1.388 . S
C888 C889 1.390 . S
C889 C888 1.390 . S
C889 C890 1.394 . S
C889 C895 1.465 . S
C890 C885 1.399 . S
C890 C889 1.394 . S
C890 C891 1.516 . S
C891 C890 1.516 . S
C891 C892 1.502 . S
C891 C893 1.561 . S
C891 C894 1.526 . S
C892 H876 0.959 . S
C892 H877 0.959 . S
C892 H878 0.961 . S
C892 C891 1.502 . S
C893 H879 0.960 . S
C893 H880 0.961 . S
C893 H881 0.959 . S
C893 C891 1.561 . S
C894 C891 1.526 . S
C894 C895 1.396 . S
C894 C899 1.390 . S
C895 C889 1.465 . S
C895 C894 1.396 . S
C895 C896 1.399 . S
C896 H882 0.929 . S
C896 C895 1.399 . S
C896 C897 1.385 . S
C897 H883 0.931 . S
C897 C896 1.385 . S
C897 C898 1.389 . S
C898 C897 1.389 . S
C898 C899 1.387 . S
C899 H884 0.930 . S
C899 C894 1.390 . S
C899 C898 1.387 . S
H900 C912 0.930 . S
H901 C914 0.930 . S
H902 C915 0.930 . S
H903 C919 0.959 . S
H904 C919 0.959 . S
H905 C919 0.961 . S
H906 C920 0.960 . S
H907 C920 0.961 . S
H908 C920 0.959 . S
H909 C923 0.929 . S
H910 C924 0.931 . S
H911 C926 0.930 . S
C912 H900 0.930 . S
C912 C913 1.399 . S
C912 C917 1.399 . S
C913 C912 1.399 . S
C913 C914 1.376 . S
C914 H901 0.930 . S
C914 C913 1.376 . S
C914 C915 1.388 . S
C915 H902 0.930 . S
C915 C914 1.388 . S
C915 C916 1.390 . S
C916 C915 1.390 . S
C916 C917 1.394 . S
C916 C922 1.465 . S
C917 C912 1.399 . S
C917 C916 1.394 . S
C917 C918 1.516 . S
C918 C917 1.516 . S
C918 C919 1.502 . S
C918 C920 1.561 . S
C918 C921 1.526 . S
C919 H903 0.959 . S
C919 H904 0.959 . S
C919 H905 0.961 . S
C919 C918 1.502 . S
C920 H906 0.960 . S
C920 H907 0.961 . S
C920 H908 0.959 . S
C920 C918 1.561 . S
C921 C918 1.526 . S
C921 C922 1.396 . S
C921 C926 1.390 . S
C922 C916 1.465 . S
C922 C921 1.396 . S
C922 C923 1.399 . S
C923 H909 0.929 . S
C923 C922 1.399 . S
C923 C924 1.385 . S
C924 H910 0.931 . S
C924 C923 1.385 . S
C924 C925 1.389 . S
C925 C924 1.389 . S
C925 C926 1.387 . S
C926 H911 0.930 . S
C926 C921 1.390 . S
C926 C925 1.387 . S
H927 C939 0.930 . S
H928 C941 0.930 . S
H929 C942 0.930 . S
H930 C946 0.959 . S
H931 C946 0.959 . S
H932 C946 0.961 . S
H933 C947 0.960 . S
H934 C947 0.961 . S
H935 C947 0.959 . S
H936 C950 0.929 . S
H937 C951 0.931 . S
H938 C953 0.930 . S
C939 H927 0.930 . S
C939 C940 1.399 . S
C939 C944 1.399 . S
C940 C939 1.399 . S
C940 C941 1.376 . S
C941 H928 0.930 . S
C941 C940 1.376 . S
C941 C942 1.388 . S
C942 H929 0.930 . S
C942 C941 1.388 . S
C942 C943 1.390 . S
C943 C942 1.390 . S
C943 C944 1.394 . S
C943 C949 1.465 . S
C944 C939 1.399 . S
C944 C943 1.394 . S
C944 C945 1.516 . S
C945 C944 1.516 . S
C945 C946 1.502 . S
C945 C947 1.561 . S
C945 C948 1.526 . S
C946 H930 0.959 . S
C946 H931 0.959 . S
C946 H932 0.961 . S
C946 C945 1.502 . S
C947 H933 0.960 . S
C947 H934 0.961 . S
C947 H935 0.959 . S
C947 C945 1.561 . S
C948 C945 1.526 . S
C948 C949 1.396 . S
C948 C953 1.390 . S
C949 C943 1.465 . S
C949 C948 1.396 . S
C949 C950 1.399 . S
C950 H936 0.929 . S
C950 C949 1.399 . S
C950 C951 1.385 . S
C951 H937 0.931 . S
C951 C950 1.385 . S
C951 C952 1.389 . S
C952 C951 1.389 . S
C952 C953 1.387 . S
C953 H938 0.930 . S
C953 C948 1.390 . S
C953 C952 1.387 . S
H954 C966 0.930 . S
H955 C968 0.930 . S
H956 C969 0.930 . S
H957 C973 0.959 . S
H958 C973 0.959 . S
H959 C973 0.961 . S
H960 C974 0.960 . S
H961 C974 0.961 . S
H962 C974 0.959 . S
H963 C977 0.929 . S
H964 C978 0.931 . S
H965 C980 0.930 . S
C966 H954 0.930 . S
C966 C967 1.399 . S
C966 C971 1.399 . S
C967 C966 1.399 . S
C967 C968 1.376 . S
C968 H955 0.930 . S
C968 C967 1.376 . S
C968 C969 1.388 . S
C969 H956 0.930 . S
C969 C968 1.388 . S
C969 C970 1.390 . S
C970 C969 1.390 . S
C970 C971 1.394 . S
C970 C976 1.465 . S
C971 C966 1.399 . S
C971 C970 1.394 . S
C971 C972 1.516 . S
C972 C971 1.516 . S
C972 C973 1.502 . S
C972 C974 1.561 . S
C972 C975 1.526 . S
C973 H957 0.959 . S
C973 H958 0.959 . S
C973 H959 0.961 . S
C973 C972 1.502 . S
C974 H960 0.960 . S
C974 H961 0.961 . S
C974 H962 0.959 . S
C974 C972 1.561 . S
C975 C972 1.526 . S
C975 C976 1.396 . S
C975 C980 1.390 . S
C976 C970 1.465 . S
C976 C975 1.396 . S
C976 C977 1.399 . S
C977 H963 0.929 . S
C977 C976 1.399 . S
C977 C978 1.385 . S
C978 H964 0.931 . S
C978 C977 1.385 . S
C978 C979 1.389 . S
C979 C978 1.389 . S
C979 C980 1.387 . S
C980 H965 0.930 . S
C980 C975 1.390 . S
C980 C979 1.387 . S
H981 C993 0.930 . S
H982 C995 0.930 . S
H983 C996 0.930 . S
H984 C1000 0.959 . S
H985 C1000 0.959 . S
H986 C1000 0.961 . S
H987 C1001 0.960 . S
H988 C1001 0.961 . S
H989 C1001 0.959 . S
H990 C1004 0.929 . S
H991 C1005 0.931 . S
H992 C1007 0.930 . S
C993 H981 0.930 . S
C993 C994 1.399 . S
C993 C998 1.399 . S
C994 C993 1.399 . S
C994 C995 1.376 . S
C995 H982 0.930 . S
C995 C994 1.376 . S
C995 C996 1.388 . S
C996 H983 0.930 . S
C996 C995 1.388 . S
C996 C997 1.390 . S
C997 C996 1.390 . S
C997 C998 1.394 . S
C997 C1003 1.465 . S
C998 C993 1.399 . S
C998 C997 1.394 . S
C998 C999 1.516 . S
C999 C998 1.516 . S
C999 C1000 1.502 . S
C999 C1001 1.561 . S
C999 C1002 1.526 . S
C1000 H984 0.959 . S
C1000 H985 0.959 . S
C1000 H986 0.961 . S
C1000 C999 1.502 . S
C1001 H987 0.960 . S
C1001 H988 0.961 . S
C1001 H989 0.959 . S
C1001 C999 1.561 . S
C1002 C999 1.526 . S
C1002 C1003 1.396 . S
C1002 C1007 1.390 . S
C1003 C997 1.465 . S
C1003 C1002 1.396 . S
C1003 C1004 1.399 . S
C1004 H990 0.929 . S
C1004 C1003 1.399 . S
C1004 C1005 1.385 . S
C1005 H991 0.931 . S
C1005 C1004 1.385 . S
C1005 C1006 1.389 . S
C1006 C1005 1.389 . S
C1006 C1007 1.387 . S
C1007 H992 0.930 . S
C1007 C1002 1.390 . S
C1007 C1006 1.387 . S
H1008 C1020 0.930 . S
H1009 C1022 0.930 . S
H1010 C1023 0.930 . S
H1011 C1027 0.959 . S
H1012 C1027 0.959 . S
H1013 C1027 0.961 . S
H1014 C1028 0.960 . S
H1015 C1028 0.961 . S
H1016 C1028 0.959 . S
H1017 C1031 0.929 . S
H1018 C1032 0.931 . S
H1019 C1034 0.930 . S
C1020 H1008 0.930 . S
C1020 C1021 1.399 . S
C1020 C1025 1.399 . S
C1021 C1020 1.399 . S
C1021 C1022 1.376 . S
C1022 H1009 0.930 . S
C1022 C1021 1.376 . S
C1022 C1023 1.388 . S
C1023 H1010 0.930 . S
C1023 C1022 1.388 . S
C1023 C1024 1.390 . S
C1024 C1023 1.390 . S
C1024 C1025 1.394 . S
C1024 C1030 1.465 . S
C1025 C1020 1.399 . S
C1025 C1024 1.394 . S
C1025 C1026 1.516 . S
C1026 C1025 1.516 . S
C1026 C1027 1.502 . S
C1026 C1028 1.561 . S
C1026 C1029 1.526 . S
C1027 H1011 0.959 . S
C1027 H1012 0.959 . S
C1027 H1013 0.961 . S
C1027 C1026 1.502 . S
C1028 H1014 0.960 . S
C1028 H1015 0.961 . S
C1028 H1016 0.959 . S
C1028 C1026 1.561 . S
C1029 C1026 1.526 . S
C1029 C1030 1.396 . S
C1029 C1034 1.390 . S
C1030 C1024 1.465 . S
C1030 C1029 1.396 . S
C1030 C1031 1.399 . S
C1031 H1017 0.929 . S
C1031 C1030 1.399 . S
C1031 C1032 1.385 . S
C1032 H1018 0.931 . S
C1032 C1031 1.385 . S
C1032 C1033 1.389 . S
C1033 C1032 1.389 . S
C1033 C1034 1.387 . S
C1034 H1019 0.930 . S
C1034 C1029 1.390 . S
C1034 C1033 1.387 . S
H1035 C1047 0.930 . S
H1036 C1049 0.930 . S
H1037 C1050 0.930 . S
H1038 C1054 0.959 . S
H1039 C1054 0.959 . S
H1040 C1054 0.961 . S
H1041 C1055 0.960 . S
H1042 C1055 0.961 . S
H1043 C1055 0.959 . S
H1044 C1058 0.929 . S
H1045 C1059 0.931 . S
H1046 C1061 0.930 . S
C1047 H1035 0.930 . S
C1047 C1048 1.399 . S
C1047 C1052 1.399 . S
C1048 C1047 1.399 . S
C1048 C1049 1.376 . S
C1049 H1036 0.930 . S
C1049 C1048 1.376 . S
C1049 C1050 1.388 . S
C1050 H1037 0.930 . S
C1050 C1049 1.388 . S
C1050 C1051 1.390 . S
C1051 C1050 1.390 . S
C1051 C1052 1.394 . S
C1051 C1057 1.465 . S
C1052 C1047 1.399 . S
C1052 C1051 1.394 . S
C1052 C1053 1.516 . S
C1053 C1052 1.516 . S
C1053 C1054 1.502 . S
C1053 C1055 1.561 . S
C1053 C1056 1.526 . S
C1054 H1038 0.959 . S
C1054 H1039 0.959 . S
C1054 H1040 0.961 . S
C1054 C1053 1.502 . S
C1055 H1041 0.960 . S
C1055 H1042 0.961 . S
C1055 H1043 0.959 . S
C1055 C1053 1.561 . S
C1056 C1053 1.526 . S
C1056 C1057 1.396 . S
C1056 C1061 1.390 . S
C1057 C1051 1.465 . S
C1057 C1056 1.396 . S
C1057 C1058 1.399 . S
C1058 H1044 0.929 . S
C1058 C1057 1.399 . S
C1058 C1059 1.385 . S
C1059 H1045 0.931 . S
C1059 C1058 1.385 . S
C1059 C1060 1.389 . S
C1060 C1059 1.389 . S
C1060 C1061 1.387 . S
C1061 H1046 0.930 . S
C1061 C1056 1.390 . S
C1061 C1060 1.387 . S
H1062 C1074 0.930 . S
H1063 C1076 0.930 . S
H1064 C1077 0.930 . S
H1065 C1081 0.959 . S
H1066 C1081 0.959 . S
H1067 C1081 0.961 . S
H1068 C1082 0.960 . S
H1069 C1082 0.961 . S
H1070 C1082 0.959 . S
H1071 C1085 0.929 . S
H1072 C1086 0.931 . S
H1073 C1088 0.927 1_565 S
C1074 H1062 0.930 . S
C1074 C1075 1.399 . S
C1074 C1079 1.399 . S
C1075 C1074 1.399 . S
C1075 C1076 1.376 . S
C1076 H1063 0.930 . S
C1076 C1075 1.376 . S
C1076 C1077 1.388 1_565 S
C1077 H1064 0.930 . S
C1077 C1076 1.388 1_545 S
C1077 C1078 1.390 . S
C1078 C1077 1.390 . S
C1078 C1079 1.394 1_545 S
C1078 C1084 1.465 . S
C1079 C1074 1.399 . S
C1079 C1078 1.394 1_565 S
C1079 C1080 1.516 . S
C1080 C1079 1.516 . S
C1080 C1081 1.502 . S
C1080 C1082 1.561 . S
C1080 C1083 1.526 1_565 S
C1081 H1065 0.959 . S
C1081 H1066 0.959 . S
C1081 H1067 0.961 . S
C1081 C1080 1.502 . S
C1082 H1068 0.960 . S
C1082 H1069 0.961 . S
C1082 H1070 0.959 . S
C1082 C1080 1.561 . S
C1083 C1080 1.526 1_545 S
C1083 C1084 1.396 . S
C1083 C1088 1.390 . S
C1084 C1078 1.465 . S
C1084 C1083 1.396 . S
C1084 C1085 1.399 . S
C1085 H1071 0.929 . S
C1085 C1084 1.399 . S
C1085 C1086 1.385 . S
C1086 H1072 0.931 . S
C1086 C1085 1.385 . S
C1086 C1087 1.389 . S
C1087 C1086 1.389 . S
C1087 C1088 1.387 . S
C1088 H1073 0.927 1_545 S
C1088 C1083 1.390 . S
C1088 C1087 1.387 . S
H1089 C1101 0.930 . S
H1090 C1103 0.930 . S
H1091 C1104 0.930 . S
H1092 C1108 0.959 . S
H1093 C1108 0.959 . S
H1094 C1108 0.961 . S
H1095 C1109 0.960 . S
H1096 C1109 0.961 . S
H1097 C1109 0.959 . S
H1098 C1112 0.929 . S
H1099 C1113 0.931 . S
H1100 C1115 0.930 . S
C1101 H1089 0.930 . S
C1101 C1102 1.399 . S
C1101 C1106 1.399 . S
C1102 C1101 1.399 . S
C1102 C1103 1.376 . S
C1103 H1090 0.930 . S
C1103 C1102 1.376 . S
C1103 C1104 1.388 . S
C1104 H1091 0.930 . S
C1104 C1103 1.388 . S
C1104 C1105 1.390 . S
C1105 C1104 1.390 . S
C1105 C1106 1.394 . S
C1105 C1111 1.465 1_455 S
C1106 C1101 1.399 . S
C1106 C1105 1.394 . S
C1106 C1107 1.516 1_455 S
C1107 C1106 1.516 1_655 S
C1107 C1108 1.502 1_655 S
C1107 C1109 1.561 . S
C1107 C1110 1.526 . S
C1108 H1092 0.959 . S
C1108 H1093 0.959 . S
C1108 H1094 0.961 . S
C1108 C1107 1.502 1_455 S
C1109 H1095 0.960 . S
C1109 H1096 0.961 . S
C1109 H1097 0.959 . S
C1109 C1107 1.561 . S
C1110 C1107 1.526 . S
C1110 C1111 1.396 . S
C1110 C1115 1.390 . S
C1111 C1105 1.465 1_655 S
C1111 C1110 1.396 . S
C1111 C1112 1.399 . S
C1112 H1098 0.929 . S
C1112 C1111 1.399 . S
C1112 C1113 1.385 . S
C1113 H1099 0.931 . S
C1113 C1112 1.385 . S
C1113 C1114 1.389 . S
C1114 C1113 1.389 . S
C1114 C1115 1.387 . S
C1115 H1100 0.930 . S
C1115 C1110 1.390 . S
C1115 C1114 1.387 . S
H1116 C1128 0.930 . S
H1117 C1130 0.930 . S
H1118 C1131 0.930 . S
H1119 C1135 0.959 . S
H1120 C1135 0.959 . S
H1121 C1135 0.961 . S
H1122 C1136 0.960 . S
H1123 C1136 0.961 . S
H1124 C1136 0.959 . S
H1125 C1139 0.929 . S
H1126 C1140 0.931 . S
H1127 C1142 0.930 . S
C1128 H1116 0.930 . S
C1128 C1129 1.399 . S
C1128 C1133 1.399 . S
C1129 C1128 1.399 . S
C1129 C1130 1.376 . S
C1130 H1117 0.930 . S
C1130 C1129 1.376 . S
C1130 C1131 1.388 . S
C1131 H1118 0.930 . S
C1131 C1130 1.388 . S
C1131 C1132 1.390 . S
C1132 C1131 1.390 . S
C1132 C1133 1.394 . S
C1132 C1138 1.465 . S
C1133 C1128 1.399 . S
C1133 C1132 1.394 . S
C1133 C1134 1.516 . S
C1134 C1133 1.516 . S
C1134 C1135 1.502 . S
C1134 C1136 1.561 . S
C1134 C1137 1.526 . S
C1135 H1119 0.959 . S
C1135 H1120 0.959 . S
C1135 H1121 0.961 . S
C1135 C1134 1.502 . S
C1136 H1122 0.960 . S
C1136 H1123 0.961 . S
C1136 H1124 0.959 . S
C1136 C1134 1.561 . S
C1137 C1134 1.526 . S
C1137 C1138 1.396 . S
C1137 C1142 1.390 . S
C1138 C1132 1.465 . S
C1138 C1137 1.396 . S
C1138 C1139 1.399 . S
C1139 H1125 0.929 . S
C1139 C1138 1.399 . S
C1139 C1140 1.385 . S
C1140 H1126 0.931 . S
C1140 C1139 1.385 . S
C1140 C1141 1.389 . S
C1141 C1140 1.389 . S
C1141 C1142 1.387 . S
C1142 H1127 0.930 . S
C1142 C1137 1.390 . S
C1142 C1141 1.387 . S
H1143 C1155 0.930 . S
H1144 C1157 0.930 . S
H1145 C1158 0.930 . S
H1146 C1162 0.959 . S
H1147 C1162 0.959 . S
H1148 C1162 0.961 . S
H1149 C1163 0.960 . S
H1150 C1163 0.961 . S
H1151 C1163 0.959 . S
H1152 C1166 0.929 . S
H1153 C1167 0.931 . S
H1154 C1169 0.930 . S
C1155 H1143 0.930 . S
C1155 C1156 1.399 . S
C1155 C1160 1.399 . S
C1156 C1155 1.399 . S
C1156 C1157 1.376 . S
C1157 H1144 0.930 . S
C1157 C1156 1.376 . S
C1157 C1158 1.388 . S
C1158 H1145 0.930 . S
C1158 C1157 1.388 . S
C1158 C1159 1.390 . S
C1159 C1158 1.390 . S
C1159 C1160 1.394 . S
C1159 C1165 1.465 . S
C1160 C1155 1.399 . S
C1160 C1159 1.394 . S
C1160 C1161 1.516 . S
C1161 C1160 1.516 . S
C1161 C1162 1.502 . S
C1161 C1163 1.561 . S
C1161 C1164 1.526 . S
C1162 H1146 0.959 . S
C1162 H1147 0.959 . S
C1162 H1148 0.961 . S
C1162 C1161 1.502 . S
C1163 H1149 0.960 . S
C1163 H1150 0.961 . S
C1163 H1151 0.959 . S
C1163 C1161 1.561 . S
C1164 C1161 1.526 . S
C1164 C1165 1.396 . S
C1164 C1169 1.390 . S
C1165 C1159 1.465 . S
C1165 C1164 1.396 . S
C1165 C1166 1.399 . S
C1166 H1152 0.929 . S
C1166 C1165 1.399 . S
C1166 C1167 1.385 . S
C1167 H1153 0.931 . S
C1167 C1166 1.385 . S
C1167 C1168 1.389 . S
C1168 C1167 1.389 . S
C1168 C1169 1.387 . S
C1169 H1154 0.930 . S
C1169 C1164 1.390 . S
C1169 C1168 1.387 . S
H1170 C1182 0.930 . S
H1171 C1184 0.930 . S
H1172 C1185 0.930 . S
H1173 C1189 0.959 . S
H1174 C1189 0.959 . S
H1175 C1189 0.961 . S
H1176 C1190 0.960 . S
H1177 C1190 0.961 . S
H1178 C1190 0.959 . S
H1179 C1193 0.929 . S
H1180 C1194 0.931 . S
H1181 C1196 0.930 . S
C1182 H1170 0.930 . S
C1182 C1183 1.399 . S
C1182 C1187 1.399 . S
C1183 C1182 1.399 . S
C1183 C1184 1.376 . S
C1184 H1171 0.930 . S
C1184 C1183 1.376 . S
C1184 C1185 1.388 . S
C1185 H1172 0.930 . S
C1185 C1184 1.388 . S
C1185 C1186 1.390 . S
C1186 C1185 1.390 . S
C1186 C1187 1.394 . S
C1186 C1192 1.465 . S
C1187 C1182 1.399 . S
C1187 C1186 1.394 . S
C1187 C1188 1.516 . S
C1188 C1187 1.516 . S
C1188 C1189 1.502 . S
C1188 C1190 1.561 . S
C1188 C1191 1.526 . S
C1189 H1173 0.959 . S
C1189 H1174 0.959 . S
C1189 H1175 0.961 . S
C1189 C1188 1.502 . S
C1190 H1176 0.960 . S
C1190 H1177 0.961 . S
C1190 H1178 0.959 . S
C1190 C1188 1.561 . S
C1191 C1188 1.526 . S
C1191 C1192 1.396 . S
C1191 C1196 1.390 1_545 S
C1192 C1186 1.465 . S
C1192 C1191 1.396 . S
C1192 C1193 1.399 1_545 S
C1193 H1179 0.929 . S
C1193 C1192 1.399 1_565 S
C1193 C1194 1.385 . S
C1194 H1180 0.931 . S
C1194 C1193 1.385 . S
C1194 C1195 1.389 . S
C1195 C1194 1.389 . S
C1195 C1196 1.387 . S
C1196 H1181 0.930 . S
C1196 C1191 1.390 1_565 S
C1196 C1195 1.387 . S
H1197 C1209 0.930 . S
H1198 C1211 0.930 . S
H1199 C1212 0.930 . S
H1200 C1216 0.959 . S
H1201 C1216 0.959 . S
H1202 C1216 0.961 . S
H1203 C1217 0.960 . S
H1204 C1217 0.961 . S
H1205 C1217 0.959 . S
H1206 C1220 0.929 . S
H1207 C1221 0.931 . S
H1208 C1223 0.930 . S
C1209 H1197 0.930 . S
C1209 C1210 1.399 . S
C1209 C1214 1.399 . S
C1210 C1209 1.399 . S
C1210 C1211 1.376 . S
C1211 H1198 0.930 . S
C1211 C1210 1.376 . S
C1211 C1212 1.388 . S
C1212 H1199 0.930 . S
C1212 C1211 1.388 . S
C1212 C1213 1.390 . S
C1213 C1212 1.390 . S
C1213 C1214 1.394 . S
C1213 C1219 1.465 . S
C1214 C1209 1.399 . S
C1214 C1213 1.394 . S
C1214 C1215 1.516 . S
C1215 C1214 1.516 . S
C1215 C1216 1.502 . S
C1215 C1217 1.561 . S
C1215 C1218 1.526 . S
C1216 H1200 0.959 . S
C1216 H1201 0.959 . S
C1216 H1202 0.961 . S
C1216 C1215 1.502 . S
C1217 H1203 0.960 . S
C1217 H1204 0.961 . S
C1217 H1205 0.959 . S
C1217 C1215 1.561 . S
C1218 C1215 1.526 . S
C1218 C1219 1.396 . S
C1218 C1223 1.390 1_655 S
C1219 C1213 1.465 . S
C1219 C1218 1.396 . S
C1219 C1220 1.399 1_655 S
C1220 H1206 0.929 . S
C1220 C1219 1.399 1_455 S
C1220 C1221 1.385 . S
C1221 H1207 0.931 . S
C1221 C1220 1.385 . S
C1221 C1222 1.389 . S
C1222 C1221 1.389 . S
C1222 C1223 1.387 . S
C1223 H1208 0.930 . S
C1223 C1218 1.390 1_455 S
C1223 C1222 1.387 . S
H1224 C1236 0.930 . S
H1225 C1238 0.930 . S
H1226 C1239 0.930 . S
H1227 C1243 0.959 . S
H1228 C1243 0.959 . S
H1229 C1243 0.961 . S
H1230 C1244 0.960 . S
H1231 C1244 0.961 . S
H1232 C1244 0.959 . S
H1233 C1247 0.929 . S
H1234 C1248 0.931 . S
H1235 C1250 0.930 . S
C1236 H1224 0.930 . S
C1236 C1237 1.399 . S
C1236 C1241 1.399 . S
C1237 C1236 1.399 . S
C1237 C1238 1.376 . S
C1238 H1225 0.930 . S
C1238 C1237 1.376 . S
C1238 C1239 1.388 . S
C1239 H1226 0.930 . S
C1239 C1238 1.388 . S
C1239 C1240 1.390 . S
C1240 C1239 1.390 . S
C1240 C1241 1.394 . S
C1240 C1246 1.465 . S
C1241 C1236 1.399 . S
C1241 C1240 1.394 . S
C1241 C1242 1.516 . S
C1242 C1241 1.516 . S
C1242 C1243 1.502 . S
C1242 C1244 1.561 . S
C1242 C1245 1.526 . S
C1243 H1227 0.959 . S
C1243 H1228 0.959 . S
C1243 H1229 0.961 . S
C1243 C1242 1.502 . S
C1244 H1230 0.960 . S
C1244 H1231 0.961 . S
C1244 H1232 0.959 . S
C1244 C1242 1.561 . S
C1245 C1242 1.526 . S
C1245 C1246 1.396 . S
C1245 C1250 1.390 . S
C1246 C1240 1.465 . S
C1246 C1245 1.396 . S
C1246 C1247 1.399 . S
C1247 H1233 0.929 . S
C1247 C1246 1.399 . S
C1247 C1248 1.385 . S
C1248 H1234 0.931 . S
C1248 C1247 1.385 . S
C1248 C1249 1.389 . S
C1249 C1248 1.389 . S
C1249 C1250 1.387 . S
C1250 H1235 0.930 . S
C1250 C1245 1.390 . S
C1250 C1249 1.387 . S
H1251 C1263 0.930 . S
H1252 C1265 0.930 . S
H1253 C1266 0.930 . S
H1254 C1270 0.959 . S
H1255 C1270 0.959 . S
H1256 C1270 0.961 . S
H1257 C1271 0.963 . S
H1258 C1271 0.961 . S
H1259 C1271 0.959 1_565 S
H1260 C1274 0.929 . S
H1261 C1275 0.917 . S
H1262 C1277 0.930 . S
C1263 H1251 0.930 . S
C1263 C1264 1.399 . S
C1263 C1268 1.399 . S
C1264 C1263 1.399 . S
C1264 C1265 1.376 . S
C1265 H1252 0.930 . S
C1265 C1264 1.376 . S
C1265 C1266 1.388 . S
C1266 H1253 0.930 . S
C1266 C1265 1.388 . S
C1266 C1267 1.390 . S
C1267 C1266 1.390 . S
C1267 C1268 1.394 . S
C1267 C1273 1.465 . S
C1268 C1263 1.399 . S
C1268 C1267 1.394 . S
C1268 C1269 1.516 . S
C1269 C1268 1.516 . S
C1269 C1270 1.502 1_565 S
C1269 C1271 1.561 1_565 S
C1269 C1272 1.526 1_565 S
C1270 H1254 0.959 . S
C1270 H1255 0.959 . S
C1270 H1256 0.961 . S
C1270 C1269 1.502 1_545 S
C1271 H1257 0.963 . S
C1271 H1258 0.961 . S
C1271 H1259 0.959 1_545 S
C1271 C1269 1.561 1_545 S
C1272 C1269 1.526 1_545 S
C1272 C1273 1.396 1_545 S
C1272 C1277 1.390 . S
C1273 C1267 1.465 . S
C1273 C1272 1.396 1_565 S
C1273 C1274 1.399 . S
C1274 H1260 0.929 . S
C1274 C1273 1.399 . S
C1274 C1275 1.434 . S
C1275 H1261 0.917 . S
C1275 C1274 1.434 . S
C1275 C1276 1.356 1_565 S
C1276 C1275 1.356 1_545 S
C1276 C1277 1.387 . S
C1277 H1262 0.930 . S
C1277 C1272 1.390 . S
C1277 C1276 1.387 . S
H1278 C1290 0.930 . S
H1279 C1292 0.930 . S
H1280 C1293 0.930 . S
H1281 C1297 0.959 . S
H1282 C1297 0.959 . S
H1283 C1297 0.961 . S
H1284 C1298 0.960 . S
H1285 C1298 0.961 . S
H1286 C1298 0.959 . S
H1287 C1301 0.929 . S
H1288 C1302 0.931 . S
H1289 C1304 0.930 . S
C1290 H1278 0.930 . S
C1290 C1291 1.399 . S
C1290 C1295 1.399 1_655 S
C1291 C1290 1.399 . S
C1291 C1292 1.376 . S
C1292 H1279 0.930 . S
C1292 C1291 1.376 . S
C1292 C1293 1.388 . S
C1293 H1280 0.930 . S
C1293 C1292 1.388 . S
C1293 C1294 1.390 1_655 S
C1294 C1293 1.390 1_455 S
C1294 C1295 1.394 . S
C1294 C1300 1.465 . S
C1295 C1290 1.399 1_455 S
C1295 C1294 1.394 . S
C1295 C1296 1.516 . S
C1296 C1295 1.516 . S
C1296 C1297 1.502 . S
C1296 C1298 1.561 . S
C1296 C1299 1.526 . S
C1297 H1281 0.959 . S
C1297 H1282 0.959 . S
C1297 H1283 0.961 . S
C1297 C1296 1.502 . S
C1298 H1284 0.960 . S
C1298 H1285 0.961 . S
C1298 H1286 0.959 . S
C1298 C1296 1.561 . S
C1299 C1296 1.526 . S
C1299 C1300 1.396 . S
C1299 C1304 1.390 . S
C1300 C1294 1.465 . S
C1300 C1299 1.396 . S
C1300 C1301 1.399 . S
C1301 H1287 0.929 . S
C1301 C1300 1.399 . S
C1301 C1302 1.385 . S
C1302 H1288 0.931 . S
C1302 C1301 1.385 . S
C1302 C1303 1.389 . S
C1303 C1302 1.389 . S
C1303 C1304 1.387 . S
C1304 H1289 0.930 . S
C1304 C1299 1.390 . S
C1304 C1303 1.387 . S
H1305 C1317 0.930 . S
H1306 C1319 0.930 . S
H1307 C1320 0.930 . S
H1308 C1324 0.959 . S
H1309 C1324 0.959 . S
H1310 C1324 0.961 . S
H1311 C1325 0.960 . S
H1312 C1325 0.961 . S
H1313 C1325 0.959 . S
H1314 C1328 0.929 . S
H1315 C1329 0.931 . S
H1316 C1331 0.930 . S
C1317 H1305 0.930 . S
C1317 C1318 1.399 . S
C1317 C1322 1.399 . S
C1318 C1317 1.399 . S
C1318 C1319 1.376 . S
C1319 H1306 0.930 . S
C1319 C1318 1.376 . S
C1319 C1320 1.388 . S
C1320 H1307 0.930 . S
C1320 C1319 1.388 . S
C1320 C1321 1.390 . S
C1321 C1320 1.390 . S
C1321 C1322 1.394 . S
C1321 C1327 1.465 . S
C1322 C1317 1.399 . S
C1322 C1321 1.394 . S
C1322 C1323 1.516 . S
C1323 C1322 1.516 . S
C1323 C1324 1.502 . S
C1323 C1325 1.561 . S
C1323 C1326 1.526 . S
C1324 H1308 0.959 . S
C1324 H1309 0.959 . S
C1324 H1310 0.961 . S
C1324 C1323 1.502 . S
C1325 H1311 0.960 . S
C1325 H1312 0.961 . S
C1325 H1313 0.959 . S
C1325 C1323 1.561 . S
C1326 C1323 1.526 . S
C1326 C1327 1.396 . S
C1326 C1331 1.390 . S
C1327 C1321 1.465 . S
C1327 C1326 1.396 . S
C1327 C1328 1.399 . S
C1328 H1314 0.929 . S
C1328 C1327 1.399 . S
C1328 C1329 1.385 . S
C1329 H1315 0.931 . S
C1329 C1328 1.385 . S
C1329 C1330 1.389 . S
C1330 C1329 1.389 . S
C1330 C1331 1.387 . S
C1331 H1316 0.930 . S
C1331 C1326 1.390 . S
C1331 C1330 1.387 . S
H1332 C1344 0.930 . S
H1333 C1346 0.930 . S
H1334 C1347 0.930 . S
H1335 C1351 0.959 . S
H1336 C1351 0.959 . S
H1337 C1351 0.961 . S
H1338 C1352 0.960 . S
H1339 C1352 0.961 . S
H1340 C1352 0.959 . S
H1341 C1355 0.929 . S
H1342 C1356 0.931 . S
H1343 C1358 0.930 . S
C1344 H1332 0.930 . S
C1344 C1345 1.399 . S
C1344 C1349 1.399 . S
C1345 C1344 1.399 . S
C1345 C1346 1.376 . S
C1346 H1333 0.930 . S
C1346 C1345 1.376 . S
C1346 C1347 1.388 . S
C1347 H1334 0.930 . S
C1347 C1346 1.388 . S
C1347 C1348 1.390 . S
C1348 C1347 1.390 . S
C1348 C1349 1.394 . S
C1348 C1354 1.465 . S
C1349 C1344 1.399 . S
C1349 C1348 1.394 . S
C1349 C1350 1.516 . S
C1350 C1349 1.516 . S
C1350 C1351 1.502 . S
C1350 C1352 1.561 . S
C1350 C1353 1.526 . S
C1351 H1335 0.959 . S
C1351 H1336 0.959 . S
C1351 H1337 0.961 . S
C1351 C1350 1.502 . S
C1352 H1338 0.960 . S
C1352 H1339 0.961 . S
C1352 H1340 0.959 . S
C1352 C1350 1.561 . S
C1353 C1350 1.526 . S
C1353 C1354 1.396 . S
C1353 C1358 1.390 . S
C1354 C1348 1.465 . S
C1354 C1353 1.396 . S
C1354 C1355 1.399 . S
C1355 H1341 0.929 . S
C1355 C1354 1.399 . S
C1355 C1356 1.385 . S
C1356 H1342 0.931 . S
C1356 C1355 1.385 . S
C1356 C1357 1.389 . S
C1357 C1356 1.389 . S
C1357 C1358 1.387 . S
C1358 H1343 0.930 . S
C1358 C1353 1.390 . S
C1358 C1357 1.387 . S
H1359 C1371 0.930 . S
H1360 C1373 0.930 . S
H1361 C1374 0.930 . S
H1362 C1378 0.959 . S
H1363 C1378 0.959 . S
H1364 C1378 0.961 . S
H1365 C1379 0.960 . S
H1366 C1379 0.961 . S
H1367 C1379 0.959 . S
H1368 C1382 0.929 . S
H1369 C1383 0.931 1_565 S
H1370 C1385 0.930 . S
C1371 H1359 0.930 . S
C1371 C1372 1.399 . S
C1371 C1376 1.399 . S
C1372 C1371 1.399 . S
C1372 C1373 1.376 . S
C1373 H1360 0.930 . S
C1373 C1372 1.376 . S
C1373 C1374 1.388 . S
C1374 H1361 0.930 . S
C1374 C1373 1.388 . S
C1374 C1375 1.390 . S
C1375 C1374 1.390 . S
C1375 C1376 1.394 . S
C1375 C1381 1.465 . S
C1376 C1371 1.399 . S
C1376 C1375 1.394 . S
C1376 C1377 1.516 . S
C1377 C1376 1.516 . S
C1377 C1378 1.502 . S
C1377 C1379 1.561 . S
C1377 C1380 1.526 . S
C1378 H1362 0.959 . S
C1378 H1363 0.959 . S
C1378 H1364 0.961 . S
C1378 C1377 1.502 . S
C1379 H1365 0.960 . S
C1379 H1366 0.961 . S
C1379 H1367 0.959 . S
C1379 C1377 1.561 . S
C1380 C1377 1.526 . S
C1380 C1381 1.396 . S
C1380 C1385 1.390 . S
C1381 C1375 1.465 . S
C1381 C1380 1.396 . S
C1381 C1382 1.399 . S
C1382 H1368 0.929 . S
C1382 C1381 1.399 . S
C1382 C1383 1.385 . S
C1383 H1369 0.931 1_545 S
C1383 C1382 1.385 . S
C1383 C1384 1.389 . S
C1384 C1383 1.389 . S
C1384 C1385 1.387 . S
C1385 H1370 0.930 . S
C1385 C1380 1.390 . S
C1385 C1384 1.387 . S
H1386 C1398 0.930 . S
H1387 C1400 0.930 . S
H1388 C1401 0.930 . S
H1389 C1405 0.959 . S
H1390 C1405 0.959 . S
H1391 C1405 0.961 . S
H1392 C1406 0.960 . S
H1393 C1406 0.961 . S
H1394 C1406 0.959 . S
H1395 C1409 0.929 . S
H1396 C1410 0.931 . S
H1397 C1412 0.930 . S
C1398 H1386 0.930 . S
C1398 C1399 1.399 1_554 S
C1398 C1403 1.399 . S
C1399 C1398 1.399 1_556 S
C1399 C1400 1.376 . S
C1400 H1387 0.930 . S
C1400 C1399 1.376 . S
C1400 C1401 1.388 . S
C1401 H1388 0.930 . S
C1401 C1400 1.388 . S
C1401 C1402 1.390 1_556 S
C1402 C1401 1.390 1_554 S
C1402 C1403 1.394 . S
C1402 C1408 1.465 . S
C1403 C1398 1.399 . S
C1403 C1402 1.394 . S
C1403 C1404 1.516 . S
C1404 C1403 1.516 . S
C1404 C1405 1.502 . S
C1404 C1406 1.561 . S
C1404 C1407 1.526 . S
C1405 H1389 0.959 . S
C1405 H1390 0.959 . S
C1405 H1391 0.961 . S
C1405 C1404 1.502 . S
C1406 H1392 0.960 . S
C1406 H1393 0.961 . S
C1406 H1394 0.959 . S
C1406 C1404 1.561 . S
C1407 C1404 1.526 . S
C1407 C1408 1.396 . S
C1407 C1412 1.390 . S
C1408 C1402 1.465 . S
C1408 C1407 1.396 . S
C1408 C1409 1.399 . S
C1409 H1395 0.929 . S
C1409 C1408 1.399 . S
C1409 C1410 1.385 . S
C1410 H1396 0.931 . S
C1410 C1409 1.385 . S
C1410 C1411 1.389 . S
C1411 C1410 1.389 . S
C1411 C1412 1.387 . S
C1412 H1397 0.930 . S
C1412 C1407 1.390 . S
C1412 C1411 1.387 . S
H1413 C1425 0.930 . S
H1414 C1427 0.930 . S
H1415 C1428 0.930 . S
H1416 C1432 0.959 . S
H1417 C1432 0.959 . S
H1418 C1432 0.961 . S
H1419 C1433 0.960 . S
H1420 C1433 0.961 . S
H1421 C1433 0.959 . S
H1422 C1436 0.929 1_556 S
H1423 C1437 0.931 . S
H1424 C1439 0.930 . S
C1425 H1413 0.930 . S
C1425 C1426 1.399 1_554 S
C1425 C1430 1.399 . S
C1426 C1425 1.399 1_556 S
C1426 C1427 1.376 . S
C1427 H1414 0.930 . S
C1427 C1426 1.376 . S
C1427 C1428 1.388 . S
C1428 H1415 0.930 . S
C1428 C1427 1.388 . S
C1428 C1429 1.390 1_556 S
C1429 C1428 1.390 1_554 S
C1429 C1430 1.394 . S
C1429 C1435 1.465 . S
C1430 C1425 1.399 . S
C1430 C1429 1.394 . S
C1430 C1431 1.516 . S
C1431 C1430 1.516 . S
C1431 C1432 1.502 . S
C1431 C1433 1.561 . S
C1431 C1434 1.526 . S
C1432 H1416 0.959 . S
C1432 H1417 0.959 . S
C1432 H1418 0.961 . S
C1432 C1431 1.502 . S
C1433 H1419 0.960 . S
C1433 H1420 0.961 . S
C1433 H1421 0.959 . S
C1433 C1431 1.561 . S
C1434 C1431 1.526 . S
C1434 C1435 1.396 . S
C1434 C1439 1.390 . S
C1435 C1429 1.465 . S
C1435 C1434 1.396 . S
C1435 C1436 1.399 . S
C1436 H1422 0.929 1_554 S
C1436 C1435 1.399 . S
C1436 C1437 1.385 . S
C1437 H1423 0.931 . S
C1437 C1436 1.385 . S
C1437 C1438 1.389 . S
C1438 C1437 1.389 . S
C1438 C1439 1.387 . S
C1439 H1424 0.930 . S
C1439 C1434 1.390 . S
C1439 C1438 1.387 . S
H1440 C1452 0.930 . S
H1441 C1454 0.930 . S
H1442 C1455 0.930 . S
H1443 C1459 0.959 . S
H1444 C1459 0.959 . S
H1445 C1459 0.961 . S
H1446 C1460 0.960 . S
H1447 C1460 0.961 . S
H1448 C1460 0.959 . S
H1449 C1463 0.929 1_556 S
H1450 C1464 0.931 . S
H1451 C1466 0.930 . S
C1452 H1440 0.930 . S
C1452 C1453 1.399 1_554 S
C1452 C1457 1.399 . S
C1453 C1452 1.399 1_556 S
C1453 C1454 1.376 . S
C1454 H1441 0.930 . S
C1454 C1453 1.376 . S
C1454 C1455 1.388 . S
C1455 H1442 0.930 . S
C1455 C1454 1.388 . S
C1455 C1456 1.390 1_556 S
C1456 C1455 1.390 1_554 S
C1456 C1457 1.394 . S
C1456 C1462 1.465 . S
C1457 C1452 1.399 . S
C1457 C1456 1.394 . S
C1457 C1458 1.516 . S
C1458 C1457 1.516 . S
C1458 C1459 1.502 . S
C1458 C1460 1.561 . S
C1458 C1461 1.526 . S
C1459 H1443 0.959 . S
C1459 H1444 0.959 . S
C1459 H1445 0.961 . S
C1459 C1458 1.502 . S
C1460 H1446 0.960 . S
C1460 H1447 0.961 . S
C1460 H1448 0.959 . S
C1460 C1458 1.561 . S
C1461 C1458 1.526 . S
C1461 C1462 1.396 . S
C1461 C1466 1.390 . S
C1462 C1456 1.465 . S
C1462 C1461 1.396 . S
C1462 C1463 1.399 . S
C1463 H1449 0.929 1_554 S
C1463 C1462 1.399 . S
C1463 C1464 1.385 . S
C1464 H1450 0.931 . S
C1464 C1463 1.385 . S
C1464 C1465 1.389 . S
C1465 C1464 1.389 . S
C1465 C1466 1.387 . S
C1466 H1451 0.930 . S
C1466 C1461 1.390 . S
C1466 C1465 1.387 . S
H1467 C1479 0.930 . S
H1468 C1481 0.930 . S
H1469 C1482 0.930 . S
H1470 C1486 0.959 . S
H1471 C1486 0.959 . S
H1472 C1486 0.961 . S
H1473 C1487 0.960 1_556 S
H1474 C1487 0.961 . S
H1475 C1487 0.959 . S
H1476 C1490 0.929 . S
H1477 C1491 0.931 . S
H1478 C1493 0.930 1_554 S
C1479 H1467 0.930 . S
C1479 C1480 1.399 . S
C1479 C1484 1.399 . S
C1480 C1479 1.399 . S
C1480 C1481 1.376 . S
C1481 H1468 0.930 . S
C1481 C1480 1.376 . S
C1481 C1482 1.388 . S
C1482 H1469 0.930 . S
C1482 C1481 1.388 . S
C1482 C1483 1.390 . S
C1483 C1482 1.390 . S
C1483 C1484 1.394 . S
C1483 C1489 1.465 . S
C1484 C1479 1.399 . S
C1484 C1483 1.394 . S
C1484 C1485 1.516 . S
C1485 C1484 1.516 . S
C1485 C1486 1.502 . S
C1485 C1487 1.561 1_556 S
C1485 C1488 1.526 . S
C1486 H1470 0.959 . S
C1486 H1471 0.959 . S
C1486 H1472 0.961 . S
C1486 C1485 1.502 . S
C1487 H1473 0.960 1_554 S
C1487 H1474 0.961 . S
C1487 H1475 0.959 . S
C1487 C1485 1.561 1_554 S
C1488 C1485 1.526 . S
C1488 C1489 1.396 . S
C1488 C1493 1.390 . S
C1489 C1483 1.465 . S
C1489 C1488 1.396 . S
C1489 C1490 1.399 . S
C1490 H1476 0.929 . S
C1490 C1489 1.399 . S
C1490 C1491 1.385 1_556 S
C1491 H1477 0.931 . S
C1491 C1490 1.385 1_554 S
C1491 C1492 1.389 . S
C1492 C1491 1.389 . S
C1492 C1493 1.387 1_554 S
C1493 H1478 0.930 1_556 S
C1493 C1488 1.390 . S
C1493 C1492 1.387 1_556 S
H1494 C1506 0.930 . S
H1495 C1508 0.930 . S
H1496 C1509 0.930 . S
H1497 C1513 0.959 1_554 S
H1498 C1513 0.955 1_554 S
H1499 C1513 0.961 . S
H1500 C1514 0.960 . S
H1501 C1514 0.961 . S
H1502 C1514 0.959 . S
H1503 C1517 0.929 . S
H1504 C1518 0.931 1_554 S
H1505 C1520 0.930 1_554 S
C1506 H1494 0.930 . S
C1506 C1507 1.399 . S
C1506 C1511 1.399 . S
C1507 C1506 1.399 . S
C1507 C1508 1.376 . S
C1508 H1495 0.930 . S
C1508 C1507 1.376 . S
C1508 C1509 1.388 . S
C1509 H1496 0.930 . S
C1509 C1508 1.388 . S
C1509 C1510 1.390 . S
C1510 C1509 1.390 . S
C1510 C1511 1.394 . S
C1510 C1516 1.465 . S
C1511 C1506 1.399 . S
C1511 C1510 1.394 . S
C1511 C1512 1.516 . S
C1512 C1511 1.516 . S
C1512 C1513 1.502 . S
C1512 C1514 1.561 . S
C1512 C1515 1.526 . S
C1513 H1497 0.959 1_556 S
C1513 H1498 0.955 1_556 S
C1513 H1499 0.961 . S
C1513 C1512 1.502 . S
C1514 H1500 0.960 . S
C1514 H1501 0.961 . S
C1514 H1502 0.959 . S
C1514 C1512 1.561 . S
C1515 C1512 1.526 . S
C1515 C1516 1.396 . S
C1515 C1520 1.390 . S
C1516 C1510 1.465 . S
C1516 C1515 1.396 . S
C1516 C1517 1.399 . S
C1517 H1503 0.929 . S
C1517 C1516 1.399 . S
C1517 C1518 1.385 . S
C1518 H1504 0.931 1_556 S
C1518 C1517 1.385 . S
C1518 C1519 1.389 1_556 S
C1519 C1518 1.389 1_554 S
C1519 C1520 1.387 1_554 S
C1520 H1505 0.930 1_556 S
C1520 C1515 1.390 . S
C1520 C1519 1.387 1_556 S
H1521 C1533 0.930 . S
H1522 C1535 0.930 . S
H1523 C1536 0.930 . S
H1524 C1540 0.959 . S
H1525 C1540 0.959 . S
H1526 C1540 0.961 . S
H1527 C1541 0.960 . S
H1528 C1541 0.961 . S
H1529 C1541 0.959 . S
H1530 C1544 0.929 . S
H1531 C1545 0.931 . S
H1532 C1547 0.930 . S
C1533 H1521 0.930 . S
C1533 C1534 1.399 . S
C1533 C1538 1.399 1_554 S
C1534 C1533 1.399 . S
C1534 C1535 1.376 1_554 S
C1535 H1522 0.930 . S
C1535 C1534 1.376 1_556 S
C1535 C1536 1.388 . S
C1536 H1523 0.930 . S
C1536 C1535 1.388 . S
C1536 C1537 1.390 . S
C1537 C1536 1.390 . S
C1537 C1538 1.394 . S
C1537 C1543 1.465 . S
C1538 C1533 1.399 1_556 S
C1538 C1537 1.394 . S
C1538 C1539 1.516 1_556 S
C1539 C1538 1.516 1_554 S
C1539 C1540 1.502 . S
C1539 C1541 1.561 . S
C1539 C1542 1.526 1_554 S
C1540 H1524 0.959 . S
C1540 H1525 0.959 . S
C1540 H1526 0.961 . S
C1540 C1539 1.502 . S
C1541 H1527 0.960 . S
C1541 H1528 0.961 . S
C1541 H1529 0.959 . S
C1541 C1539 1.561 . S
C1542 C1539 1.526 1_556 S
C1542 C1543 1.396 . S
C1542 C1547 1.390 . S
C1543 C1537 1.465 . S
C1543 C1542 1.396 . S
C1543 C1544 1.399 . S
C1544 H1530 0.929 . S
C1544 C1543 1.399 . S
C1544 C1545 1.385 . S
C1545 H1531 0.931 . S
C1545 C1544 1.385 . S
C1545 C1546 1.389 . S
C1546 C1545 1.389 . S
C1546 C1547 1.387 . S
C1547 H1532 0.930 . S
C1547 C1542 1.390 . S
C1547 C1546 1.387 . S
H1548 C1560 0.930 . S
H1549 C1562 0.930 . S
H1550 C1563 0.930 . S
H1551 C1567 0.959 . S
H1552 C1567 0.959 . S
H1553 C1567 0.961 . S
H1554 C1568 0.960 . S
H1555 C1568 0.961 . S
H1556 C1568 0.959 . S
H1557 C1571 0.929 . S
H1558 C1572 0.931 . S
H1559 C1574 0.930 . S
C1560 H1548 0.930 . S
C1560 C1561 1.399 . S
C1560 C1565 1.399 . S
C1561 C1560 1.399 . S
C1561 C1562 1.376 . S
C1562 H1549 0.930 . S
C1562 C1561 1.376 . S
C1562 C1563 1.388 . S
C1563 H1550 0.930 . S
C1563 C1562 1.388 . S
C1563 C1564 1.390 . S
C1564 C1563 1.390 . S
C1564 C1565 1.394 . S
C1564 C1570 1.465 . S
C1565 C1560 1.399 . S
C1565 C1564 1.394 . S
C1565 C1566 1.516 . S
C1566 C1565 1.516 . S
C1566 C1567 1.502 . S
C1566 C1568 1.561 . S
C1566 C1569 1.526 . S
C1567 H1551 0.959 . S
C1567 H1552 0.959 . S
C1567 H1553 0.961 . S
C1567 C1566 1.502 . S
C1568 H1554 0.960 . S
C1568 H1555 0.961 . S
C1568 H1556 0.959 . S
C1568 C1566 1.561 . S
C1569 C1566 1.526 . S
C1569 C1570 1.396 . S
C1569 C1574 1.390 . S
C1570 C1564 1.465 . S
C1570 C1569 1.396 . S
C1570 C1571 1.399 . S
C1571 H1557 0.929 . S
C1571 C1570 1.399 . S
C1571 C1572 1.385 . S
C1572 H1558 0.931 . S
C1572 C1571 1.385 . S
C1572 C1573 1.389 . S
C1573 C1572 1.389 . S
C1573 C1574 1.387 . S
C1574 H1559 0.930 . S
C1574 C1569 1.390 . S
C1574 C1573 1.387 . S
H1575 C1587 0.930 . S
H1576 C1589 0.930 . S
H1577 C1590 0.930 . S
H1578 C1594 0.959 . S
H1579 C1594 0.959 . S
H1580 C1594 0.961 . S
H1581 C1595 0.960 . S
H1582 C1595 0.961 . S
H1583 C1595 0.959 . S
H1584 C1598 0.929 . S
H1585 C1599 0.931 . S
H1586 C1601 0.930 . S
C1587 H1575 0.930 . S
C1587 C1588 1.399 . S
C1587 C1592 1.399 . S
C1588 C1587 1.399 . S
C1588 C1589 1.376 . S
C1589 H1576 0.930 . S
C1589 C1588 1.376 . S
C1589 C1590 1.388 . S
C1590 H1577 0.930 . S
C1590 C1589 1.388 . S
C1590 C1591 1.390 . S
C1591 C1590 1.390 . S
C1591 C1592 1.394 . S
C1591 C1597 1.465 . S
C1592 C1587 1.399 . S
C1592 C1591 1.394 . S
C1592 C1593 1.516 . S
C1593 C1592 1.516 . S
C1593 C1594 1.502 . S
C1593 C1595 1.561 . S
C1593 C1596 1.526 . S
C1594 H1578 0.959 . S
C1594 H1579 0.959 . S
C1594 H1580 0.961 . S
C1594 C1593 1.502 . S
C1595 H1581 0.960 . S
C1595 H1582 0.961 . S
C1595 H1583 0.959 . S
C1595 C1593 1.561 . S
C1596 C1593 1.526 . S
C1596 C1597 1.396 . S
C1596 C1601 1.390 . S
C1597 C1591 1.465 . S
C1597 C1596 1.396 . S
C1597 C1598 1.399 . S
C1598 H1584 0.929 . S
C1598 C1597 1.399 . S
C1598 C1599 1.385 . S
C1599 H1585 0.931 . S
C1599 C1598 1.385 . S
C1599 C1600 1.389 . S
C1600 C1599 1.389 . S
C1600 C1601 1.387 . S
C1601 H1586 0.930 . S
C1601 C1596 1.390 . S
C1601 C1600 1.387 . S
H1602 C1614 0.930 1_545 S
H1603 C1616 0.930 . S
H1604 C1617 0.930 . S
H1605 C1621 0.959 . S
H1606 C1621 0.959 . S
H1607 C1621 0.961 . S
H1608 C1622 0.960 . S
H1609 C1622 0.961 . S
H1610 C1622 0.959 . S
H1611 C1625 0.929 . S
H1612 C1626 0.931 . S
H1613 C1628 0.930 . S
C1614 H1602 0.930 1_565 S
C1614 C1615 1.399 . S
C1614 C1619 1.399 . S
C1615 C1614 1.399 . S
C1615 C1616 1.376 . S
C1616 H1603 0.930 . S
C1616 C1615 1.376 . S
C1616 C1617 1.388 . S
C1617 H1604 0.930 . S
C1617 C1616 1.388 . S
C1617 C1618 1.390 . S
C1618 C1617 1.390 . S
C1618 C1619 1.394 . S
C1618 C1624 1.465 . S
C1619 C1614 1.399 . S
C1619 C1618 1.394 . S
C1619 C1620 1.516 . S
C1620 C1619 1.516 . S
C1620 C1621 1.502 . S
C1620 C1622 1.561 . S
C1620 C1623 1.526 . S
C1621 H1605 0.959 . S
C1621 H1606 0.959 . S
C1621 H1607 0.961 . S
C1621 C1620 1.502 . S
C1622 H1608 0.960 . S
C1622 H1609 0.961 . S
C1622 H1610 0.959 . S
C1622 C1620 1.561 . S
C1623 C1620 1.526 . S
C1623 C1624 1.396 . S
C1623 C1628 1.390 . S
C1624 C1618 1.465 . S
C1624 C1623 1.396 . S
C1624 C1625 1.399 . S
C1625 H1611 0.929 . S
C1625 C1624 1.399 . S
C1625 C1626 1.385 . S
C1626 H1612 0.931 . S
C1626 C1625 1.385 . S
C1626 C1627 1.389 . S
C1627 C1626 1.389 . S
C1627 C1628 1.387 . S
C1628 H1613 0.930 . S
C1628 C1623 1.390 . S
C1628 C1627 1.387 . S
H1629 C1641 0.930 . S
H1630 C1643 0.930 . S
H1631 C1644 0.930 . S
H1632 C1648 0.959 . S
H1633 C1648 0.959 . S
H1634 C1648 0.961 . S
H1635 C1649 0.960 . S
H1636 C1649 0.961 . S
H1637 C1649 0.959 . S
H1638 C1652 0.929 . S
H1639 C1653 0.931 . S
H1640 C1655 0.930 . S
C1641 H1629 0.930 . S
C1641 C1642 1.399 . S
C1641 C1646 1.399 . S
C1642 C1641 1.399 . S
C1642 C1643 1.376 . S
C1643 H1630 0.930 . S
C1643 C1642 1.376 . S
C1643 C1644 1.388 . S
C1644 H1631 0.930 . S
C1644 C1643 1.388 . S
C1644 C1645 1.390 . S
C1645 C1644 1.390 . S
C1645 C1646 1.394 . S
C1645 C1651 1.465 . S
C1646 C1641 1.399 . S
C1646 C1645 1.394 . S
C1646 C1647 1.516 . S
C1647 C1646 1.516 . S
C1647 C1648 1.502 . S
C1647 C1649 1.561 . S
C1647 C1650 1.526 . S
C1648 H1632 0.959 . S
C1648 H1633 0.959 . S
C1648 H1634 0.961 . S
C1648 C1647 1.502 . S
C1649 H1635 0.960 . S
C1649 H1636 0.961 . S
C1649 H1637 0.959 . S
C1649 C1647 1.561 . S
C1650 C1647 1.526 . S
C1650 C1651 1.396 . S
C1650 C1655 1.390 . S
C1651 C1645 1.465 . S
C1651 C1650 1.396 . S
C1651 C1652 1.399 . S
C1652 H1638 0.929 . S
C1652 C1651 1.399 . S
C1652 C1653 1.385 . S
C1653 H1639 0.931 . S
C1653 C1652 1.385 . S
C1653 C1654 1.389 . S
C1654 C1653 1.389 . S
C1654 C1655 1.387 . S
C1655 H1640 0.930 . S
C1655 C1650 1.390 . S
C1655 C1654 1.387 . S
H1656 C1668 0.930 . S
H1657 C1670 0.930 . S
H1658 C1671 0.930 . S
H1659 C1675 0.959 . S
H1660 C1675 0.959 . S
H1661 C1675 0.961 . S
H1662 C1676 0.960 . S
H1663 C1676 0.961 . S
H1664 C1676 0.959 . S
H1665 C1679 0.929 . S
H1666 C1680 0.931 . S
H1667 C1682 0.930 . S
C1668 H1656 0.930 . S
C1668 C1669 1.399 . S
C1668 C1673 1.399 . S
C1669 C1668 1.399 . S
C1669 C1670 1.376 . S
C1670 H1657 0.930 . S
C1670 C1669 1.376 . S
C1670 C1671 1.388 . S
C1671 H1658 0.930 . S
C1671 C1670 1.388 . S
C1671 C1672 1.390 . S
C1672 C1671 1.390 . S
C1672 C1673 1.394 . S
C1672 C1678 1.465 . S
C1673 C1668 1.399 . S
C1673 C1672 1.394 . S
C1673 C1674 1.516 . S
C1674 C1673 1.516 . S
C1674 C1675 1.502 . S
C1674 C1676 1.561 . S
C1674 C1677 1.526 . S
C1675 H1659 0.959 . S
C1675 H1660 0.959 . S
C1675 H1661 0.961 . S
C1675 C1674 1.502 . S
C1676 H1662 0.960 . S
C1676 H1663 0.961 . S
C1676 H1664 0.959 . S
C1676 C1674 1.561 . S
C1677 C1674 1.526 . S
C1677 C1678 1.396 . S
C1677 C1682 1.390 . S
C1678 C1672 1.465 . S
C1678 C1677 1.396 . S
C1678 C1679 1.399 . S
C1679 H1665 0.929 . S
C1679 C1678 1.399 . S
C1679 C1680 1.385 . S
C1680 H1666 0.931 . S
C1680 C1679 1.385 . S
C1680 C1681 1.389 . S
C1681 C1680 1.389 . S
C1681 C1682 1.387 . S
C1682 H1667 0.930 . S
C1682 C1677 1.390 . S
C1682 C1681 1.387 . S
H1683 C1695 0.930 . S
H1684 C1697 0.930 . S
H1685 C1698 0.930 . S
H1686 C1702 0.959 . S
H1687 C1702 0.959 . S
H1688 C1702 0.961 . S
H1689 C1703 0.960 . S
H1690 C1703 0.961 . S
H1691 C1703 0.959 . S
H1692 C1706 0.929 . S
H1693 C1707 0.931 . S
H1694 C1709 0.930 . S
C1695 H1683 0.930 . S
C1695 C1696 1.399 . S
C1695 C1700 1.399 . S
C1696 C1695 1.399 . S
C1696 C1697 1.376 . S
C1697 H1684 0.930 . S
C1697 C1696 1.376 . S
C1697 C1698 1.388 . S
C1698 H1685 0.930 . S
C1698 C1697 1.388 . S
C1698 C1699 1.390 . S
C1699 C1698 1.390 . S
C1699 C1700 1.394 . S
C1699 C1705 1.465 . S
C1700 C1695 1.399 . S
C1700 C1699 1.394 . S
C1700 C1701 1.516 . S
C1701 C1700 1.516 . S
C1701 C1702 1.502 . S
C1701 C1703 1.561 . S
C1701 C1704 1.526 . S
C1702 H1686 0.959 . S
C1702 H1687 0.959 . S
C1702 H1688 0.961 . S
C1702 C1701 1.502 . S
C1703 H1689 0.960 . S
C1703 H1690 0.961 . S
C1703 H1691 0.959 . S
C1703 C1701 1.561 . S
C1704 C1701 1.526 . S
C1704 C1705 1.396 . S
C1704 C1709 1.390 . S
C1705 C1699 1.465 . S
C1705 C1704 1.396 . S
C1705 C1706 1.399 . S
C1706 H1692 0.929 . S
C1706 C1705 1.399 . S
C1706 C1707 1.385 . S
C1707 H1693 0.931 . S
C1707 C1706 1.385 . S
C1707 C1708 1.389 . S
C1708 C1707 1.389 . S
C1708 C1709 1.387 . S
C1709 H1694 0.930 . S
C1709 C1704 1.390 . S
C1709 C1708 1.387 . S
H1710 C1722 0.930 . S
H1711 C1724 0.930 . S
H1712 C1725 0.930 . S
H1713 C1729 0.959 . S
H1714 C1729 0.959 . S
H1715 C1729 0.961 . S
H1716 C1730 0.960 . S
H1717 C1730 0.961 . S
H1718 C1730 0.959 . S
H1719 C1733 0.929 . S
H1720 C1734 0.931 . S
H1721 C1736 0.930 . S
C1722 H1710 0.930 . S
C1722 C1723 1.399 . S
C1722 C1727 1.399 . S
C1723 C1722 1.399 . S
C1723 C1724 1.376 . S
C1724 H1711 0.930 . S
C1724 C1723 1.376 . S
C1724 C1725 1.388 . S
C1725 H1712 0.930 . S
C1725 C1724 1.388 . S
C1725 C1726 1.390 . S
C1726 C1725 1.390 . S
C1726 C1727 1.394 . S
C1726 C1732 1.465 . S
C1727 C1722 1.399 . S
C1727 C1726 1.394 . S
C1727 C1728 1.516 . S
C1728 C1727 1.516 . S
C1728 C1729 1.502 . S
C1728 C1730 1.561 . S
C1728 C1731 1.526 . S
C1729 H1713 0.959 . S
C1729 H1714 0.959 . S
C1729 H1715 0.961 . S
C1729 C1728 1.502 . S
C1730 H1716 0.960 . S
C1730 H1717 0.961 . S
C1730 H1718 0.959 . S
C1730 C1728 1.561 . S
C1731 C1728 1.526 . S
C1731 C1732 1.396 . S
C1731 C1736 1.390 . S
C1732 C1726 1.465 . S
C1732 C1731 1.396 . S
C1732 C1733 1.399 . S
C1733 H1719 0.929 . S
C1733 C1732 1.399 . S
C1733 C1734 1.385 . S
C1734 H1720 0.931 . S
C1734 C1733 1.385 . S
C1734 C1735 1.389 . S
C1735 C1734 1.389 . S
C1735 C1736 1.387 . S
C1736 H1721 0.930 . S
C1736 C1731 1.390 . S
C1736 C1735 1.387 . S
H1737 C1749 0.930 . S
H1738 C1751 0.930 . S
H1739 C1752 0.930 . S
H1740 C1756 0.959 . S
H1741 C1756 0.959 . S
H1742 C1756 0.961 . S
H1743 C1757 0.960 . S
H1744 C1757 0.961 . S
H1745 C1757 0.959 . S
H1746 C1760 0.929 . S
H1747 C1761 0.931 . S
H1748 C1763 0.930 . S
C1749 H1737 0.930 . S
C1749 C1750 1.399 . S
C1749 C1754 1.399 . S
C1750 C1749 1.399 . S
C1750 C1751 1.376 . S
C1751 H1738 0.930 . S
C1751 C1750 1.376 . S
C1751 C1752 1.388 . S
C1752 H1739 0.930 . S
C1752 C1751 1.388 . S
C1752 C1753 1.390 . S
C1753 C1752 1.390 . S
C1753 C1754 1.394 . S
C1753 C1759 1.465 . S
C1754 C1749 1.399 . S
C1754 C1753 1.394 . S
C1754 C1755 1.516 . S
C1755 C1754 1.516 . S
C1755 C1756 1.502 . S
C1755 C1757 1.561 . S
C1755 C1758 1.526 . S
C1756 H1740 0.959 . S
C1756 H1741 0.959 . S
C1756 H1742 0.961 . S
C1756 C1755 1.502 . S
C1757 H1743 0.960 . S
C1757 H1744 0.961 . S
C1757 H1745 0.959 . S
C1757 C1755 1.561 . S
C1758 C1755 1.526 . S
C1758 C1759 1.396 . S
C1758 C1763 1.390 . S
C1759 C1753 1.465 . S
C1759 C1758 1.396 . S
C1759 C1760 1.399 . S
C1760 H1746 0.929 . S
C1760 C1759 1.399 . S
C1760 C1761 1.385 . S
C1761 H1747 0.931 . S
C1761 C1760 1.385 . S
C1761 C1762 1.389 . S
C1762 C1761 1.389 . S
C1762 C1763 1.387 . S
C1763 H1748 0.930 . S
C1763 C1758 1.390 . S
C1763 C1762 1.387 . S
H1764 C1776 0.930 . S
H1765 C1778 0.930 . S
H1766 C1779 0.930 . S
H1767 C1783 0.959 . S
H1768 C1783 0.959 . S
H1769 C1783 0.961 . S
H1770 C1784 0.960 . S
H1771 C1784 0.961 . S
H1772 C1784 0.959 . S
H1773 C1787 0.929 . S
H1774 C1788 0.931 . S
H1775 C1790 0.930 . S
C1776 H1764 0.930 . S
C1776 C1777 1.399 . S
C1776 C1781 1.399 . S
C1777 C1776 1.399 . S
C1777 C1778 1.376 . S
C1778 H1765 0.930 . S
C1778 C1777 1.376 . S
C1778 C1779 1.388 . S
C1779 H1766 0.930 . S
C1779 C1778 1.388 . S
C1779 C1780 1.390 . S
C1780 C1779 1.390 . S
C1780 C1781 1.394 . S
C1780 C1786 1.465 . S
C1781 C1776 1.399 . S
C1781 C1780 1.394 . S
C1781 C1782 1.516 . S
C1782 C1781 1.516 . S
C1782 C1783 1.502 . S
C1782 C1784 1.561 . S
C1782 C1785 1.526 . S
C1783 H1767 0.959 . S
C1783 H1768 0.959 . S
C1783 H1769 0.961 . S
C1783 C1782 1.502 . S
C1784 H1770 0.960 . S
C1784 H1771 0.961 . S
C1784 H1772 0.959 . S
C1784 C1782 1.561 . S
C1785 C1782 1.526 . S
C1785 C1786 1.396 . S
C1785 C1790 1.390 . S
C1786 C1780 1.465 . S
C1786 C1785 1.396 . S
C1786 C1787 1.399 . S
C1787 H1773 0.929 . S
C1787 C1786 1.399 . S
C1787 C1788 1.385 . S
C1788 H1774 0.931 . S
C1788 C1787 1.385 . S
C1788 C1789 1.389 . S
C1789 C1788 1.389 . S
C1789 C1790 1.387 . S
C1790 H1775 0.930 . S
C1790 C1785 1.390 . S
C1790 C1789 1.387 . S
H1791 C1803 0.930 . S
H1792 C1805 0.930 . S
H1793 C1806 0.930 . S
H1794 C1810 0.959 . S
H1795 C1810 0.959 . S
H1796 C1810 0.961 . S
H1797 C1811 0.960 1_554 S
H1798 C1811 0.961 . S
H1799 C1811 0.959 1_554 S
H1800 C1814 0.929 . S
H1801 C1815 0.931 . S
H1802 C1817 0.930 . S
C1803 H1791 0.930 . S
C1803 C1804 1.399 . S
C1803 C1808 1.399 . S
C1804 C1803 1.399 . S
C1804 C1805 1.376 1_545 S
C1805 H1792 0.930 . S
C1805 C1804 1.376 1_565 S
C1805 C1806 1.388 . S
C1806 H1793 0.930 . S
C1806 C1805 1.388 . S
C1806 C1807 1.390 . S
C1807 C1806 1.390 . S
C1807 C1808 1.394 1_565 S
C1807 C1813 1.465 1_554 S
C1808 C1803 1.399 . S
C1808 C1807 1.394 1_545 S
C1808 C1809 1.516 1_554 S
C1809 C1808 1.516 1_556 S
C1809 C1810 1.502 . S
C1809 C1811 1.561 . S
C1809 C1812 1.526 . S
C1810 H1794 0.959 . S
C1810 H1795 0.959 . S
C1810 H1796 0.961 . S
C1810 C1809 1.502 . S
C1811 H1797 0.960 1_556 S
C1811 H1798 0.961 . S
C1811 H1799 0.959 1_556 S
C1811 C1809 1.561 . S
C1812 C1809 1.526 . S
C1812 C1813 1.396 1_545 S
C1812 C1817 1.390 . S
C1813 C1807 1.465 1_556 S
C1813 C1812 1.396 1_565 S
C1813 C1814 1.399 . S
C1814 H1800 0.929 . S
C1814 C1813 1.399 . S
C1814 C1815 1.385 . S
C1815 H1801 0.931 . S
C1815 C1814 1.385 . S
C1815 C1816 1.389 . S
C1816 C1815 1.389 . S
C1816 C1817 1.387 1_565 S
C1817 H1802 0.930 . S
C1817 C1812 1.390 . S
C1817 C1816 1.387 1_545 S
H1818 C1830 0.930 . S
H1819 C1832 0.930 . S
H1820 C1833 0.930 . S
H1821 C1837 0.959 . S
H1822 C1837 0.959 . S
H1823 C1837 0.961 . S
H1824 C1838 0.960 . S
H1825 C1838 0.961 . S
H1826 C1838 0.959 . S
H1827 C1841 0.929 . S
H1828 C1842 0.931 . S
H1829 C1844 0.930 . S
C1830 H1818 0.930 . S
C1830 C1831 1.399 . S
C1830 C1835 1.399 . S
C1831 C1830 1.399 . S
C1831 C1832 1.376 . S
C1832 H1819 0.930 . S
C1832 C1831 1.376 . S
C1832 C1833 1.388 . S
C1833 H1820 0.930 . S
C1833 C1832 1.388 . S
C1833 C1834 1.388 . S
C1834 C1833 1.388 . S
C1834 C1835 1.397 . S
C1834 C1840 1.465 1_654 S
C1835 C1830 1.399 . S
C1835 C1834 1.397 . S
C1835 C1836 1.516 1_655 S
C1836 C1835 1.516 1_455 S
C1836 C1837 1.502 1_455 S
C1836 C1838 1.561 . S
C1836 C1839 1.526 1_554 S
C1837 H1821 0.959 . S
C1837 H1822 0.959 . S
C1837 H1823 0.961 . S
C1837 C1836 1.502 1_655 S
C1838 H1824 0.960 . S
C1838 H1825 0.961 . S
C1838 H1826 0.959 . S
C1838 C1836 1.561 . S
C1839 C1836 1.526 1_556 S
C1839 C1840 1.396 . S
C1839 C1844 1.390 . S
C1840 C1834 1.465 1_456 S
C1840 C1839 1.396 . S
C1840 C1841 1.399 . S
C1841 H1827 0.929 . S
C1841 C1840 1.399 . S
C1841 C1842 1.385 . S
C1842 H1828 0.931 . S
C1842 C1841 1.385 . S
C1842 C1843 1.389 . S
C1843 C1842 1.389 . S
C1843 C1844 1.387 . S
C1844 H1829 0.930 . S
C1844 C1839 1.390 . S
C1844 C1843 1.387 . S
H1845 C1857 0.930 . S
H1846 C1859 0.930 . S
H1847 C1860 0.930 . S
H1848 C1864 0.959 . S
H1849 C1864 0.959 1_554 S
H1850 C1864 0.961 . S
H1851 C1865 0.960 . S
H1852 C1865 0.961 . S
H1853 C1865 0.959 . S
H1854 C1868 0.929 . S
H1855 C1869 0.931 . S
H1856 C1871 0.930 . S
C1857 H1845 0.930 . S
C1857 C1858 1.399 . S
C1857 C1862 1.399 . S
C1858 C1857 1.399 . S
C1858 C1859 1.376 . S
C1859 H1846 0.930 . S
C1859 C1858 1.376 . S
C1859 C1860 1.388 . S
C1860 H1847 0.930 . S
C1860 C1859 1.388 . S
C1860 C1861 1.390 . S
C1861 C1860 1.390 . S
C1861 C1862 1.394 . S
C1861 C1867 1.465 1_556 S
C1862 C1857 1.399 . S
C1862 C1861 1.394 . S
C1862 C1863 1.516 1_556 S
C1863 C1862 1.516 1_554 S
C1863 C1864 1.502 1_554 S
C1863 C1865 1.561 . S
C1863 C1866 1.526 . S
C1864 H1848 0.959 . S
C1864 H1849 0.959 1_556 S
C1864 H1850 0.961 . S
C1864 C1863 1.502 1_556 S
C1865 H1851 0.960 . S
C1865 H1852 0.961 . S
C1865 H1853 0.959 . S
C1865 C1863 1.561 . S
C1866 C1863 1.526 . S
C1866 C1867 1.396 . S
C1866 C1871 1.390 . S
C1867 C1861 1.465 1_554 S
C1867 C1866 1.396 . S
C1867 C1868 1.399 . S
C1868 H1854 0.929 . S
C1868 C1867 1.399 . S
C1868 C1869 1.385 . S
C1869 H1855 0.931 . S
C1869 C1868 1.385 . S
C1869 C1870 1.389 . S
C1870 C1869 1.389 . S
C1870 C1871 1.387 . S
C1871 H1856 0.930 . S
C1871 C1866 1.390 . S
C1871 C1870 1.387 . S
C427 C110 1.266 . S
C439 C20 1.257 1_556 S
C454 C43 1.265 1_556 S
C466 C133 1.278 . S
C481 C87 1.279 . S
C493 C66 1.267 1_556 S
C508 C89 1.281 . S
C520 C41 1.221 . S
C535 C112 1.253 1_554 S
C547 C64 1.266 . S
C562 C18 1.217 . S
C574 C135 1.281 . S
C589 C158 1.258 . S
C601 C248 1.215 . S
C616 C271 1.263 . S
C628 C181 1.256 . S
C643 C225 1.279 . S
C655 C204 1.270 . S
C670 C227 1.253 . S
C682 C179 1.256 . S
C697 C202 1.215 . S
C709 C250 1.265 . S
C724 C273 1.268 . S
C736 C156 1.272 . S
C751 C386 1.257 . S
C763 C296 1.255 . S
C778 C319 1.277 . S
C790 C409 1.218 . S
C805 C363 1.279 . S
C817 C342 1.267 . S
C832 C317 1.277 . S
C844 C365 1.256 . S
C859 C388 1.255 . S
C871 C340 1.276 . S
C886 C294 1.233 . S
C898 C411 1.258 . S
C913 C16 1.178 . S
C925 C361 1.114 . S
C940 C39 1.177 . S
C952 C384 1.116 . S
C967 C407 1.117 . S
C979 C62 1.176 . S
C994 C85 1.107 . S
C1006 C154 1.177 . S
C1021 C108 1.151 . S
C1033 C177 1.147 . S
C1048 C200 1.121 . S
C1060 C131 1.173 . S
C1075 C292 1.142 . S
C1087 C223 1.157 . S
C1102 C315 1.109 . S
C1114 C246 1.172 . S
C1129 C338 1.174 . S
C1141 C269 1.109 . S
C1156 C17 1.408 . S
C1168 C182 1.397 . S
C1183 C205 1.396 . S
C1195 C40 1.407 . S
C1210 C159 1.396 . S
C1222 C63 1.407 . S
C1237 C86 1.370 . S
C1249 C389 1.419 . S
C1264 C412 1.404 . S
C1276 C109 1.366 . S
C1291 C132 1.408 . S
C1303 C366 1.400 . S
C1318 C155 1.383 . S
C1330 C320 1.407 1_655 S
C1345 C178 1.401 . S
C1357 C343 1.400 . S
C1372 C201 1.350 . S
C1384 C297 1.420 1_545 S
C1399 C113 1.397 . S
C1411 C224 1.407 . S
C1426 C136 1.413 . S
C1438 C247 1.385 . S
C1453 C90 1.413 . S
C1465 C270 1.386 . S
C1480 C293 1.401 . S
C1492 C44 1.400 . S
C1507 C316 1.328 . S
C1519 C67 1.425 . S
C1534 C21 1.428 . S
C1546 C339 1.325 . S
C1561 C251 1.406 1_455 S
C1573 C362 1.360 . S
C1588 C385 1.408 . S
C1600 C274 1.398 . S
C1615 C228 1.405 1_565 S
C1627 C408 1.400 . S
C1642 C19 1.367 . S
C1654 C364 1.430 . S
C1669 C42 1.385 . S
C1681 C387 1.403 . S
C1696 C65 1.402 . S
C1708 C410 1.386 . S
C1723 C157 1.366 . S
C1735 C88 1.430 . S
C1750 C111 1.372 . S
C1762 C180 1.418 . S
C1777 C203 1.369 . S
C1789 C134 1.422 . S
C1804 C226 1.405 . S
C1816 C295 1.384 . S
C1831 C249 1.428 . S
C1843 C318 1.375 . S
C1858 C341 1.431 . S
C1870 C272 1.368 . S
