# Generated by pormake.
# Topology upa, (4)-cn, num edge types: 1
# Building blocks:
#     Node 0, Type 0, BuildingBlock: AZAVOO_clean_sbu_0, # of connection points: 4
#     Node 1, Type 0, BuildingBlock: AZAVOO_clean_sbu_0, # of connection points: 4
#     Node 2, Type 0, BuildingBlock: AZAVOO_clean_sbu_0, # of connection points: 4
#     Node 3, Type 0, BuildingBlock: AZAVOO_clean_sbu_0, # of connection points: 4
#     Node 4, Type 0, BuildingBlock: AZAVOO_clean_sbu_0, # of connection points: 4
#     Node 5, Type 0, BuildingBlock: AZAVOO_clean_sbu_0, # of connection points: 4
#     Node 6, Type 0, BuildingBlock: AZAVOO_clean_sbu_0, # of connection points: 4
#     Node 7, Type 0, BuildingBlock: AZAVOO_clean_sbu_0, # of connection points: 4
#     Edge 8, Type (0, 0), BuildingBlock: UVAHIK_clean_linker_0, # of connection points: 2
#     Edge 9, Type (0, 0), BuildingBlock: UVAHIK_clean_linker_0, # of connection points: 2
#     Edge 10, Type (0, 0), BuildingBlock: UVAHIK_clean_linker_0, # of connection points: 2
#     Edge 11, Type (0, 0), BuildingBlock: UVAHIK_clean_linker_0, # of connection points: 2
#     Edge 12, Type (0, 0), BuildingBlock: UVAHIK_clean_linker_0, # of connection points: 2
#     Edge 13, Type (0, 0), BuildingBlock: UVAHIK_clean_linker_0, # of connection points: 2
#     Edge 14, Type (0, 0), BuildingBlock: UVAHIK_clean_linker_0, # of connection points: 2
#     Edge 15, Type (0, 0), BuildingBlock: UVAHIK_clean_linker_0, # of connection points: 2
#     Edge 16, Type (0, 0), BuildingBlock: UVAHIK_clean_linker_0, # of connection points: 2
#     Edge 17, Type (0, 0), BuildingBlock: UVAHIK_clean_linker_0, # of connection points: 2
#     Edge 18, Type (0, 0), BuildingBlock: UVAHIK_clean_linker_0, # of connection points: 2
#     Edge 19, Type (0, 0), BuildingBlock: UVAHIK_clean_linker_0, # of connection points: 2
#     Edge 20, Type (0, 0), BuildingBlock: UVAHIK_clean_linker_0, # of connection points: 2
#     Edge 21, Type (0, 0), BuildingBlock: UVAHIK_clean_linker_0, # of connection points: 2
#     Edge 22, Type (0, 0), BuildingBlock: UVAHIK_clean_linker_0, # of connection points: 2
#     Edge 23, Type (0, 0), BuildingBlock: UVAHIK_clean_linker_0, # of connection points: 2
# Relax obj value: 0.214
# Max RMSD: 0.200
# Mean RMSD: 0.200
data_MOF--net-upa--node1-AZAVOO_clean_sbu_0--edge1-UVAHIK_clean_linker_0
_symmetry_space_group_name_H-M    P1
_symmetry_Int_Tables_number       1
_symmetry_cell_setting            triclinic
loop_
_symmetry_equiv_pos_as_xyz
'x, y, z'
_cell_length_a     35.760752
_cell_length_b     35.599948
_cell_length_c     56.211088
_cell_angle_alpha  89.920562
_cell_angle_beta   89.772932
_cell_angle_gamma 89.896808
loop_
_atom_site_label
_atom_site_type_symbol
_atom_site_fract_x
_atom_site_fract_y
_atom_site_fract_z
_atom_type_partial_charge
Mg0 Mg 0.13698 0.2227 0.3158 0.0
O1 O 0.11615 0.16208 0.31351 0.0
O2 O 0.15629 0.12212 0.33024 0.0
Mg3 Mg 0.20624 0.1577 0.34169 0.0
C4 C 0.12544 0.12894 0.31975 0.0
C5 C 0.05617 0.22785 0.29969 0.0
O6 O 0.0556 0.20827 0.3195 0.0
O7 O 0.1786 0.21267 0.28494 0.0
O8 O 0.21881 0.17382 0.30308 0.0
O9 O 0.11242 0.22854 0.35222 0.0
O10 O 0.16953 0.2073 0.34538 0.0
C11 C 0.20831 0.19254 0.2849 0.0
C12 C 0.14297 0.21405 0.36034 0.0
O13 O 0.08752 0.23986 0.2919 0.0
Mg14 Mg 0.2423 0.63781 0.82196 0.0
O15 O 0.30172 0.61508 0.8195 0.0
O16 O 0.34299 0.65582 0.83402 0.0
Mg17 Mg 0.30892 0.70697 0.84598 0.0
C18 C 0.33515 0.62427 0.82457 0.0
C19 C 0.23106 0.55556 0.80912 0.0
O20 O 0.24574 0.55556 0.83048 0.0
O21 O 0.25238 0.67817 0.79031 0.0
O22 O 0.29172 0.7187 0.80758 0.0
O23 O 0.23813 0.61575 0.85924 0.0
O24 O 0.25814 0.67262 0.85039 0.0
C25 C 0.27259 0.70787 0.78973 0.0
C26 C 0.2524 0.64715 0.86621 0.0
O27 O 0.22484 0.58703 0.79898 0.0
Mg28 Mg 0.8337 0.74699 0.31479 0.0
O29 O 0.85454 0.80738 0.31475 0.0
O30 O 0.81596 0.84497 0.33491 0.0
Mg31 Mg 0.76675 0.80774 0.34611 0.0
C32 C 0.84585 0.8396 0.32292 0.0
C33 C 0.90263 0.70728 0.29206 0.0
O34 O 0.89392 0.68268 0.30861 0.0
O35 O 0.79027 0.76078 0.28601 0.0
O36 O 0.75135 0.79741 0.30707 0.0
O37 O 0.86092 0.73839 0.35011 0.0
O38 O 0.80242 0.75712 0.34557 0.0
C39 C 0.76075 0.781 0.28774 0.0
C40 C 0.82994 0.75003 0.35955 0.0
O41 O 0.88103 0.73513 0.28856 0.0
Mg42 Mg 0.71615 0.33015 0.81635 0.0
O43 O 0.65672 0.35251 0.81401 0.0
O44 O 0.61611 0.31379 0.83144 0.0
Mg45 Mg 0.65091 0.26387 0.84457 0.0
C46 C 0.62354 0.34417 0.82035 0.0
C47 C 0.75821 0.39988 0.79581 0.0
O48 O 0.78001 0.39182 0.81387 0.0
O49 O 0.70532 0.28656 0.78688 0.0
O50 O 0.66641 0.2479 0.80636 0.0
O51 O 0.72073 0.35729 0.85203 0.0
O52 O 0.70167 0.29893 0.84655 0.0
C53 C 0.68508 0.25694 0.7878 0.0
C54 C 0.70722 0.32654 0.86084 0.0
O55 O 0.73158 0.37767 0.79075 0.0
Mg56 Mg 0.63513 0.25596 0.15283 0.0
O57 O 0.61432 0.31644 0.15325 0.0
O58 O 0.65253 0.3536 0.13251 0.0
Mg59 Mg 0.70113 0.31632 0.12023 0.0
C60 C 0.62298 0.34856 0.14489 0.0
C61 C 0.56743 0.2152 0.17538 0.0
O62 O 0.5766 0.19218 0.15806 0.0
O63 O 0.68003 0.26926 0.18106 0.0
O64 O 0.71816 0.30459 0.15868 0.0
O65 O 0.6066 0.24807 0.11772 0.0
O66 O 0.66523 0.26628 0.12155 0.0
C67 C 0.70998 0.28858 0.17838 0.0
C68 C 0.63724 0.25975 0.10791 0.0
O69 O 0.58843 0.24321 0.17957 0.0
Mg70 Mg 0.21967 0.1388 0.65289 0.0
O71 O 0.1603 0.11559 0.65352 0.0
O72 O 0.11966 0.15624 0.63803 0.0
Mg73 Mg 0.15408 0.20749 0.62693 0.0
C74 C 0.12715 0.12463 0.6476 0.0
C75 C 0.22945 0.05669 0.6661 0.0
O76 O 0.21557 0.05718 0.64452 0.0
O77 O 0.20679 0.17895 0.68415 0.0
O78 O 0.16866 0.21958 0.66573 0.0
O79 O 0.22775 0.11687 0.61598 0.0
O80 O 0.20552 0.17333 0.62373 0.0
C81 C 0.18658 0.20872 0.68412 0.0
C82 C 0.21345 0.1479 0.60826 0.0
O83 O 0.23579 0.08797 0.67638 0.0
Mg84 Mg 0.33412 0.73403 0.15526 0.0
O85 O 0.35477 0.6735 0.15515 0.0
O86 O 0.31547 0.63607 0.13575 0.0
Mg87 Mg 0.26602 0.67345 0.1253 0.0
C88 C 0.34575 0.64131 0.14718 0.0
C89 C 0.40328 0.77397 0.17765 0.0
O90 O 0.39418 0.7992 0.16159 0.0
O91 O 0.29139 0.72091 0.1848 0.0
O92 O 0.25189 0.68423 0.16451 0.0
O93 O 0.36042 0.7418 0.11943 0.0
O94 O 0.30194 0.72374 0.12507 0.0
C95 C 0.26183 0.70078 0.18362 0.0
C96 C 0.32915 0.73014 0.1106 0.0
O97 O 0.38209 0.74575 0.18081 0.0
Mg98 Mg 0.74849 0.82672 0.65134 0.0
O99 O 0.80731 0.85075 0.6538 0.0
O100 O 0.84973 0.81099 0.6392 0.0
Mg101 Mg 0.81704 0.759 0.62747 0.0
C102 C 0.84101 0.84238 0.64864 0.0
C103 C 0.73498 0.90851 0.66432 0.0
O104 O 0.74982 0.90894 0.64293 0.0
O105 O 0.75897 0.78668 0.6829 0.0
O106 O 0.79958 0.7467 0.66597 0.0
O107 O 0.74414 0.84902 0.6143 0.0
O108 O 0.76556 0.79244 0.62274 0.0
C109 C 0.77977 0.75737 0.68369 0.0
C110 C 0.75937 0.81811 0.60712 0.0
O111 O 0.72953 0.87689 0.67444 0.0
C112 C 0.06548 0.10433 0.30293 0.0
C113 C 0.09828 0.09811 0.31611 0.0
C114 C 0.0383 0.07636 0.30113 0.0
C115 C 0.02208 0.97429 0.31037 0.0
H116 H 0.91829 0.00512 0.31549 0.0
C117 C 0.90244 0.86709 0.30319 0.0
C118 C 0.87236 0.87102 0.3192 0.0
C119 C 0.92902 0.89551 0.30076 0.0
C120 C 0.94713 -0.004 0.31419 0.0
H121 H 0.12848 0.05722 0.33733 0.0
H122 H 0.08083 0.00874 0.33455 0.0
H123 H 0.96733 0.05245 0.31535 0.0
H124 H 0.84629 0.90832 0.34487 0.0
H125 H 0.89314 0.9576 0.34102 0.0
H126 H 0.00203 0.91779 0.31025 0.0
C127 C 0.07636 0.03502 0.32525 0.0
C128 C 0.97527 0.02319 0.31377 0.0
C129 C 0.10367 0.06291 0.32693 0.0
C130 C 0.86902 0.90444 0.33231 0.0
C131 C 0.89582 0.93279 0.33001 0.0
C132 C -0.00603 0.94711 0.31093 0.0
C133 C 0.04312 0.04155 0.31257 0.0
C134 C 0.01312 0.01266 0.31199 0.0
C135 C 0.92641 0.92847 0.31441 0.0
C136 C 0.95614 0.95759 0.31297 0.0
H137 H 0.06047 0.13103 0.29422 0.0
H138 H 0.01338 0.08212 0.29085 0.0
H139 H 0.05087 0.96517 0.30869 0.0
H140 H 0.90571 0.84185 0.29263 0.0
H141 H 0.95175 0.89154 0.28822 0.0
C142 C 0.35649 0.55835 0.81738 0.0
C143 C 0.36528 0.59652 0.82038 0.0
C144 C 0.38477 0.5316 0.81476 0.0
C145 C 0.48601 0.51779 0.82608 0.0
H146 H 0.47105 0.42792 0.78834 0.0
C147 C 0.60279 0.40928 0.81008 0.0
C148 C 0.59353 0.3721 0.81622 0.0
C149 C 0.57506 0.43673 0.80826 0.0
C150 C 0.47548 0.45288 0.79897 0.0
H151 H 0.41062 0.63673 0.82209 0.0
H152 H 0.46003 0.59026 0.8166 0.0
H153 H 0.42308 0.47683 0.78876 0.0
H154 H 0.54764 0.33431 0.82426 0.0
H155 H 0.49898 0.38242 0.82062 0.0
H156 H 0.53878 0.49394 0.83585 0.0
C157 C 0.4313 0.58076 0.81704 0.0
C158 C 0.44799 0.48085 0.79933 0.0
C159 C 0.40297 0.60748 0.82004 0.0
C160 C 0.5557 0.3627 0.81959 0.0
C161 C 0.52786 0.39014 0.81742 0.0
C162 C 0.51369 0.49012 0.82539 0.0
C163 C 0.42259 0.54237 0.8147 0.0
C164 C 0.45271 0.51352 0.81311 0.0
C165 C 0.53742 0.42752 0.81219 0.0
C166 C 0.50852 0.45728 0.81202 0.0
H167 H 0.32771 0.54889 0.81771 0.0
H168 H 0.37687 0.50233 0.81345 0.0
H169 H 0.49042 0.54207 0.83729 0.0
H170 H 0.63163 0.41756 0.80735 0.0
H171 H 0.58308 0.4653 0.80401 0.0
C172 C 0.60083 0.414 0.13589 0.0
C173 C 0.59658 0.38017 0.14853 0.0
C174 C 0.57404 0.44249 0.13787 0.0
C175 C 0.52226 0.50552 0.15355 0.0
H176 H 0.418 0.47571 0.15497 0.0
C177 C 0.40415 0.61418 0.16472 0.0
C178 C 0.37244 0.6098 0.15026 0.0
C179 C 0.43088 0.58568 0.16634 0.0
C180 C 0.44696 0.48452 0.15445 0.0
H181 H 0.56151 0.35042 0.17393 0.0
H182 H 0.51536 0.40033 0.17771 0.0
H183 H 0.46664 0.42779 0.15402 0.0
H184 H 0.34362 0.57157 0.12658 0.0
H185 H 0.39058 0.52207 0.12912 0.0
H186 H 0.50257 0.56224 0.15309 0.0
C187 C 0.53891 0.40452 0.16583 0.0
C188 C 0.4749 0.45704 0.15422 0.0
C189 C 0.56556 0.37599 0.16377 0.0
C190 C 0.36763 0.57584 0.13794 0.0
C191 C 0.39451 0.54737 0.13948 0.0
C192 C 0.49433 0.533 0.1537 0.0
C193 C 0.54251 0.43788 0.15263 0.0
C194 C 0.51289 0.4672 0.15366 0.0
C195 C 0.42669 0.55216 0.15347 0.0
C196 C 0.45633 0.52284 0.15405 0.0
H197 H 0.62428 0.41811 0.12393 0.0
H198 H 0.5775 0.46766 0.12726 0.0
H199 H 0.55123 0.51433 0.15337 0.0
H200 H 0.40864 0.63986 0.17462 0.0
H201 H 0.45495 0.59002 0.17764 0.0
C202 C 0.05918 0.10751 0.64994 0.0
C203 C 0.09694 0.09677 0.65106 0.0
C204 C 0.03087 0.08072 0.65232 0.0
C205 C 0.0134 0.98156 0.6712 0.0
H206 H 0.92581 -0.00746 0.63134 0.0
C207 C 0.90844 0.86175 0.65076 0.0
C208 C 0.8703 0.87107 0.65243 0.0
C209 C 0.93579 0.88957 0.65293 0.0
C210 C 0.94997 -0.01069 0.64273 0.0
H211 H 0.13459 0.04943 0.65568 0.0
H212 H 0.0855 0.00274 0.65893 0.0
H213 H 0.97392 0.0408 0.63059 0.0
H214 H 0.83106 0.9169 0.65814 0.0
H215 H 0.8788 0.96529 0.66152 0.0
H216 H -0.01028 0.92915 0.68253 0.0
C217 C 0.07751 0.03191 0.65691 0.0
C218 C 0.9775 0.01706 0.64243 0.0
C219 C 0.10576 0.05874 0.65488 0.0
C220 C 0.86016 0.90867 0.65675 0.0
C221 C 0.88745 0.93647 0.65858 0.0
C222 C -0.01393 0.95353 0.67122 0.0
C223 C 0.03967 0.04248 0.65552 0.0
C224 C 0.00967 0.01354 0.6566 0.0
C225 C 0.92547 0.92725 0.65647 0.0
C226 C 0.95415 0.95716 0.65696 0.0
H227 H 0.05147 0.13664 0.64724 0.0
H228 H 0.00206 0.09006 0.65164 0.0
H229 H 0.03739 0.97815 0.68269 0.0
H230 H 0.91717 0.83306 0.64751 0.0
H231 H 0.96497 0.8818 0.65112 0.0
C232 C 0.16778 0.17314 0.39283 0.0
C233 C 0.14664 0.20438 0.38572 0.0
C234 C 0.17257 0.16501 0.41691 0.0
C235 C 0.13616 0.18753 0.47739 0.0
H236 H 0.23374 0.15122 0.49681 0.0
C237 C 0.18742 0.18631 0.5748 0.0
C238 C 0.20418 0.1529 0.58284 0.0
C239 C 0.17855 0.19096 0.55081 0.0
C240 C 0.20626 0.161 0.4916 0.0
H241 H 0.11307 0.25115 0.3981 0.0
H242 H 0.12247 0.2379 0.44027 0.0
H243 H 0.22149 0.16281 0.45487 0.0
H244 H 0.22522 0.09834 0.57192 0.0
H245 H 0.21037 0.10689 0.52986 0.0
H246 H 0.12163 0.18687 0.51443 0.0
C247 C 0.13479 0.2191 0.42729 0.0
C248 C 0.19911 0.16752 0.46756 0.0
C249 C 0.12954 0.22686 0.40314 0.0
C250 C 0.21225 0.12439 0.56632 0.0
C251 C 0.20384 0.12927 0.54225 0.0
C252 C 0.14351 0.18147 0.50149 0.0
C253 C 0.15673 0.18826 0.43448 0.0
C254 C 0.16396 0.18085 0.46012 0.0
C255 C 0.18683 0.16256 0.53432 0.0
C256 C 0.17863 0.16816 0.50879 0.0
H257 H 0.18025 0.15457 0.37988 0.0
H258 H 0.18868 0.14038 0.42172 0.0
H259 H 0.10858 0.19718 0.47232 0.0
H260 H 0.18141 0.2091 0.58693 0.0
H261 H 0.16593 0.21711 0.54507 0.0
C262 C 0.26624 0.62248 0.907 0.0
C263 C 0.26454 0.65277 0.89102 0.0
C264 C 0.27764 0.62814 0.93049 0.0
C265 C 0.32517 0.6971 0.96981 0.0
H266 H 0.26924 0.6465 0.01956 0.0
C267 C 0.28968 0.71381 0.07576 0.0
C268 C 0.32532 0.72075 0.08516 0.0
C269 C 0.28548 0.70345 0.05204 0.0
C270 C 0.28505 0.66098 0.00588 0.0
H271 H 0.2732 0.71275 0.88709 0.0
H272 H 0.29221 0.72278 0.92804 0.0
H273 H 0.256 0.63246 0.97814 0.0
H274 H 0.38458 0.72275 0.077 0.0
H275 H 0.37728 0.70415 0.03536 0.0
H276 H 0.35298 0.72691 -0.00236 0.0
C277 C 0.28572 0.69447 0.92239 0.0
C278 C 0.27781 0.65253 0.98211 0.0
C279 C 0.27458 0.68876 0.89892 0.0
C280 C 0.35674 0.71765 0.07021 0.0
C281 C 0.35254 0.70707 0.04638 0.0
C282 C 0.33229 0.70569 -0.00638 0.0
C283 C 0.28729 0.66427 0.9385 0.0
C284 C 0.29734 0.67093 0.96377 0.0
C285 C 0.31683 0.69957 0.03711 0.0
C286 C 0.3118 0.68823 0.01191 0.0
H287 H 0.25892 0.59436 0.90136 0.0
H288 H 0.27896 0.60419 0.94235 0.0
H289 H 0.34117 0.71134 0.95612 0.0
H290 H 0.26484 0.71651 0.08672 0.0
H291 H 0.2575 0.69884 0.04535 0.0
C292 C 0.78198 0.77782 0.57363 0.0
C293 C 0.77163 0.8134 0.5822 0.0
C294 C 0.79245 0.77308 0.54986 0.0
C295 C 0.78179 0.81805 0.49107 0.0
H296 H 0.85616 0.74441 0.47212 0.0
C297 C 0.85834 0.75937 0.3999 0.0
C298 C 0.82664 0.75797 0.38524 0.0
C299 C 0.85466 0.76797 0.4241 0.0
C300 C 0.83567 0.76543 0.47711 0.0
H301 H 0.76525 0.87216 0.57284 0.0
H302 H 0.78432 0.86411 0.53149 0.0
H303 H 0.84582 0.7572 0.51425 0.0
H304 H 0.76621 0.76333 0.38454 0.0
H305 H 0.75974 0.77748 0.42655 0.0
H306 H 0.77208 0.82685 0.45402 0.0
C307 C 0.78353 0.83965 0.54295 0.0
C308 C 0.82938 0.77242 0.50127 0.0
C309 C 0.77273 0.84431 0.56667 0.0
C310 C 0.79125 0.76473 0.39528 0.0
C311 C 0.78756 0.77306 0.41938 0.0
C312 C 0.78824 0.81126 0.46697 0.0
C313 C 0.79308 0.80389 0.53417 0.0
C314 C 0.80194 0.79839 0.50854 0.0
C315 C 0.81919 0.77512 0.43406 0.0
C316 C 0.81473 0.78437 0.45969 0.0
H317 H 0.7812 0.75342 0.58515 0.0
H318 H 0.79901 0.74504 0.54365 0.0
H319 H 0.76018 0.83797 0.49596 0.0
H320 H 0.88599 0.75435 0.39263 0.0
H321 H 0.87961 0.76958 0.43489 0.0
C322 C 0.69363 0.35576 0.90056 0.0
C323 C 0.69551 0.32377 0.88601 0.0
C324 C 0.6823 0.35263 0.92434 0.0
C325 C 0.68235 0.33331 0.97704 0.0
H326 H 0.60802 0.25968 -0.00413 0.0
C327 C 0.67469 0.27601 0.07195 0.0
C328 C 0.63961 0.26892 0.08232 0.0
C329 C 0.67761 0.28598 0.04806 0.0
C330 C 0.62843 0.28075 -0.00907 0.0
H331 H 0.68743 0.26341 0.885 0.0
H332 H 0.66846 0.25785 0.92635 0.0
H333 H 0.61891 0.27225 0.95377 0.0
H334 H 0.58 0.26634 0.07571 0.0
H335 H 0.58506 0.2841 0.0337 0.0
H336 H 0.69173 0.34199 0.01416 0.0
C337 C 0.67472 0.28552 0.91937 0.0
C338 C 0.63502 0.28764 0.96679 0.0
C339 C 0.68586 0.28868 0.89566 0.0
C340 C 0.60742 0.27156 0.06817 0.0
C341 C 0.61034 0.28169 0.04414 0.0
C342 C 0.67565 0.32655 0.00115 0.0
C343 C 0.67281 0.31741 0.93403 0.0
C344 C 0.66271 0.31332 0.95957 0.0
C345 C 0.64551 0.28924 0.03388 0.0
C346 C 0.64931 0.2995 0.00837 0.0
H347 H 0.70071 0.38322 0.89358 0.0
H348 H 0.68083 0.37779 0.93511 0.0
H349 H 0.70399 0.35314 0.97214 0.0
H350 H 0.7001 0.27363 0.08227 0.0
H351 H 0.7052 0.2906 0.04061 0.0
C352 C 0.51309 0.24313 0.19763 0.0
C353 C 0.53034 0.21175 0.18704 0.0
C354 C 0.47622 0.24094 0.20601 0.0
C355 C 0.40523 0.17516 0.22744 0.0
H356 H 0.33343 0.25093 0.20805 0.0
C357 C 0.25299 0.16163 0.25724 0.0
C358 C 0.23514 0.19456 0.26496 0.0
C359 C 0.286 0.16349 0.24391 0.0
C360 C 0.35311 0.22971 0.21387 0.0
H361 H 0.52282 0.15323 0.17762 0.0
H362 H 0.45888 0.14915 0.19291 0.0
H363 H 0.39831 0.25521 0.19449 0.0
H364 H 0.23654 0.25526 0.26387 0.0
H365 H 0.29482 0.25881 0.24129 0.0
H366 H 0.3611 0.15035 0.24759 0.0
C367 C 0.47376 0.17551 0.19448 0.0
C368 C 0.3903 0.23219 0.20605 0.0
C369 C 0.51036 0.17785 0.18574 0.0
C370 C 0.24944 0.22945 0.25774 0.0
C371 C 0.28303 0.23139 0.24485 0.0
C372 C 0.36831 0.17297 0.23555 0.0
C373 C 0.45609 0.20717 0.20436 0.0
C374 C 0.41671 0.20491 0.21275 0.0
C375 C 0.30263 0.19838 0.23864 0.0
C376 C 0.34158 0.20014 0.22886 0.0
H377 H 0.52761 0.26975 0.19872 0.0
H378 H 0.4634 0.26568 0.21376 0.0
H379 H 0.42507 0.15397 0.23311 0.0
H380 H 0.24251 0.13437 0.26266 0.0
H381 H 0.29938 0.13743 0.23875 0.0
C382 C 0.3021 0.75575 0.76355 0.0
C383 C 0.2705 0.73428 0.76948 0.0
C384 C 0.2987 0.788 0.74957 0.0
C385 C 0.23316 0.84392 0.71196 0.0
H386 H 0.29277 0.92705 0.73515 0.0
C387 C 0.23492 -0.01307 0.66404 0.0
C388 C 0.23639 0.01993 0.67774 0.0
C389 C 0.23964 0.95173 0.67454 0.0
C390 C 0.27562 0.90431 0.72858 0.0
H391 H 0.21089 0.72834 0.76424 0.0
H392 H 0.20462 0.78511 0.74007 0.0
H393 H 0.29967 0.86528 0.75304 0.0
H394 H 0.24424 0.04173 0.71332 0.0
H395 H 0.25184 0.97993 0.73191 0.0
H396 H 0.20802 0.88339 0.68815 0.0
C397 C 0.23224 0.77681 0.7459 0.0
C398 C 0.28004 0.86859 0.73857 0.0
C399 C 0.23579 0.7441 0.75966 0.0
C400 C 0.24315 0.01687 0.70227 0.0
C401 C 0.24761 0.98142 0.71287 0.0
C402 C 0.22857 0.87974 0.70206 0.0
C403 C 0.26345 0.80001 0.74152 0.0
C404 C 0.25904 0.83782 0.73032 0.0
C405 C 0.24564 0.94835 0.69913 0.0
C406 C 0.24986 0.91041 0.71016 0.0
H407 H 0.32924 0.74871 0.77084 0.0
H408 H 0.32355 0.8044 0.74593 0.0
H409 H 0.21658 0.82099 0.70507 0.0
H410 H 0.23011 -0.01182 0.64504 0.0
H411 H 0.23884 0.92712 0.66325 0.0
C412 C 0.71188 0.81442 0.26441 0.0
C413 C 0.73326 0.78183 0.26824 0.0
C414 C 0.67969 0.81316 0.25044 0.0
C415 C 0.60436 0.75012 0.23907 0.0
H416 H 0.57345 0.82056 0.19031 0.0
C417 C 0.45778 0.74167 0.19658 0.0
C418 C 0.44067 0.77504 0.18882 0.0
C419 C 0.49474 0.74179 0.20459 0.0
C420 C 0.58131 0.80101 0.20419 0.0
H421 H 0.7389 0.72283 0.25956 0.0
H422 H 0.68182 0.7204 0.23553 0.0
H423 H 0.63747 0.82223 0.2052 0.0
H424 H 0.44841 0.83491 0.18415 0.0
H425 H 0.51208 0.83566 0.19942 0.0
H426 H 0.54813 0.73021 0.23937 0.0
C427 C 0.69039 0.74697 0.24311 0.0
C428 C 0.61818 0.80174 0.21246 0.0
C429 C 0.72316 0.74845 0.25665 0.0
C430 C 0.46091 0.80873 0.18996 0.0
C431 C 0.49765 0.80901 0.19845 0.0
C432 C 0.56734 0.74986 0.2312 0.0
C433 C 0.66782 0.77908 0.2405 0.0
C434 C 0.62998 0.77634 0.23001 0.0
C435 C 0.51538 0.77543 0.20552 0.0
C436 C 0.55515 0.77541 0.21369 0.0
H437 H 0.71899 0.84044 0.27327 0.0
H438 H 0.66269 0.83825 0.24879 0.0
H439 H 0.6126 0.7307 0.25297 0.0
H440 H 0.44312 0.71512 0.19559 0.0
H441 H 0.50736 0.71521 0.2094 0.0
C442 C 0.65553 0.2056 0.76453 0.0
C443 C 0.68654 0.22891 0.76844 0.0
C444 C 0.65894 0.1732 0.75073 0.0
C445 C 0.7226 0.12057 0.70979 0.0
H446 H 0.66956 0.03464 0.73562 0.0
C447 C 0.72448 0.97764 0.6622 0.0
C448 C 0.72606 0.94473 0.67601 0.0
C449 C 0.71835 0.01254 0.67277 0.0
C450 C 0.68489 0.05819 0.72829 0.0
H451 H 0.74494 0.23777 0.7599 0.0
H452 H 0.75129 0.18072 0.73615 0.0
H453 H 0.66174 0.09591 0.75394 0.0
H454 H 0.72201 0.92261 0.71183 0.0
H455 H 0.71215 0.98391 0.73056 0.0
H456 H 0.7471 0.08246 0.68483 0.0
C457 C 0.72407 0.18769 0.7434 0.0
C458 C 0.6799 0.09361 0.73855 0.0
C459 C 0.72046 0.22053 0.75696 0.0
C460 C 0.72074 0.94745 0.70071 0.0
C461 C 0.71498 0.98261 0.71139 0.0
C462 C 0.72785 0.08506 0.69966 0.0
C463 C 0.69365 0.16289 0.74084 0.0
C464 C 0.69854 0.12537 0.72939 0.0
C465 C 0.71407 0.01568 0.69755 0.0
C466 C 0.70894 0.05338 0.7087 0.0
H467 H 0.62895 0.21154 0.77307 0.0
H468 H 0.63458 0.15553 0.74853 0.0
H469 H 0.7373 0.14428 0.70214 0.0
H470 H 0.72805 0.97654 0.64306 0.0
H471 H 0.71687 0.03709 0.66142 0.0
C472 C -0.01136 0.21425 0.29313 0.0
C473 C 0.02042 0.23565 0.28738 0.0
C474 C 0.95407 0.22217 0.28283 0.0
C475 C 0.90984 0.27233 0.23229 0.0
H476 H 0.81985 0.26022 0.27036 0.0
C477 C 0.76733 0.3166 0.19602 0.0
C478 C 0.73912 0.28914 0.19708 0.0
C479 C 0.79977 0.31296 0.20951 0.0
C480 C 0.84472 0.26356 0.25951 0.0
H481 H 0.04092 0.28202 0.26608 0.0
H482 H 0.98019 0.2966 0.24836 0.0
H483 H 0.88095 0.24846 0.28818 0.0
H484 H 0.72165 0.23782 0.21464 0.0
H485 H 0.77855 0.2316 0.23853 0.0
H486 H 0.87357 0.28774 0.20371 0.0
C487 C 0.98214 0.27316 0.26059 0.0
C488 C 0.87979 0.25669 0.26965 0.0
C489 C 0.01697 0.26492 0.27076 0.0
C490 C 0.74278 0.25951 0.21348 0.0
C491 C 0.77543 0.25589 0.22708 0.0
C492 C 0.87485 0.27952 0.22225 0.0
C493 C 0.95015 0.25203 0.26664 0.0
C494 C 0.91284 0.26071 0.25611 0.0
C495 C 0.80486 0.28182 0.22449 0.0
C496 C 0.84188 0.2751 0.2357 0.0
H497 H -0.0096 0.19116 0.30566 0.0
H498 H 0.93045 0.20462 0.28749 0.0
H499 H 0.93446 0.27506 0.22115 0.0
H500 H 0.7652 0.34008 0.18381 0.0
H501 H 0.82153 0.33389 0.20756 0.0
C502 C 0.15604 0.25753 0.70918 0.0
C503 C 0.18757 0.2352 0.70433 0.0
C504 C 0.15899 0.28954 0.72337 0.0
C505 C 0.22285 0.34318 0.76333 0.0
H506 H 0.16667 0.42814 0.73895 0.0
C507 C 0.22312 0.48605 0.81124 0.0
C508 C 0.2231 0.51908 0.79749 0.0
C509 C 0.21763 0.45103 0.80072 0.0
C510 C 0.18288 0.40488 0.74588 0.0
H511 H 0.24646 0.22758 0.71166 0.0
H512 H 0.25199 0.28392 0.73611 0.0
H513 H 0.15955 0.36685 0.72065 0.0
H514 H 0.21695 0.5412 0.76181 0.0
H515 H 0.20817 0.47975 0.74317 0.0
H516 H 0.24747 0.38166 0.78785 0.0
C517 C 0.22472 0.27647 0.72931 0.0
C518 C 0.17829 0.36941 0.73563 0.0
C519 C 0.22159 0.244 0.71537 0.0
C520 C 0.21693 0.51629 0.7729 0.0
C521 C 0.21178 0.48103 0.76226 0.0
C522 C 0.22767 0.37874 0.77346 0.0
C523 C 0.19375 0.30047 0.73271 0.0
C524 C 0.19808 0.33799 0.74426 0.0
C525 C 0.21236 0.44788 0.77604 0.0
C526 C 0.20765 0.41009 0.76492 0.0
H527 H 0.12941 0.25129 0.70096 0.0
H528 H 0.13424 0.30654 0.72622 0.0
H529 H 0.23846 0.31974 0.77056 0.0
H530 H 0.22742 0.48714 0.83029 0.0
H531 H 0.21735 0.4264 0.81204 0.0
C532 C 0.22398 0.73414 0.21442 0.0
C533 C 0.23475 0.70036 0.20347 0.0
C534 C 0.19105 0.73581 0.22796 0.0
C535 C 0.11887 0.68152 0.2593 0.0
H536 H 0.04849 0.75075 0.23048 0.0
C537 C 0.96105 0.6729 0.28041 0.0
C538 C 0.94018 0.70632 0.28091 0.0
C539 C -0.00195 0.67287 0.27219 0.0
C540 C 0.06777 0.73177 0.23918 0.0
H541 H 0.22163 0.64131 0.19964 0.0
H542 H 0.16507 0.64389 0.22415 0.0
H543 H 0.11343 0.75064 0.21748 0.0
H544 H 0.9417 0.76599 0.27322 0.0
H545 H 0.00633 0.76636 0.25984 0.0
H546 H 0.0737 0.66299 0.28134 0.0
C547 C 0.18165 0.66912 0.22201 0.0
C548 C 0.10506 0.73173 0.23165 0.0
C549 C 0.214 0.66764 0.20803 0.0
C550 C 0.95687 0.73963 0.27272 0.0
C551 C -0.00594 0.73978 0.26497 0.0
C552 C 0.08171 0.68205 0.26721 0.0
C553 C 0.169 0.70353 0.2312 0.0
C554 C 0.13083 0.7063 0.24141 0.0
C555 C 0.01537 0.70645 0.26476 0.0
C556 C 0.05542 0.70679 0.257 0.0
H557 H 0.23921 0.75984 0.2109 0.0
H558 H 0.18188 0.76264 0.23496 0.0
H559 H 0.13827 0.66164 0.26709 0.0
H560 H 0.94889 0.64677 0.28656 0.0
H561 H 0.01301 0.64642 0.27175 0.0
C562 C 0.72879 0.45365 0.77398 0.0
C563 C 0.7606 0.43731 0.78435 0.0
C564 C 0.72964 0.49076 0.76578 0.0
C565 C 0.78609 0.57919 0.77022 0.0
H566 H 0.72562 0.60905 0.71631 0.0
C567 C 0.80893 0.71059 0.71088 0.0
C568 C 0.77712 0.73101 0.70392 0.0
C569 C 0.80541 0.67845 0.72501 0.0
C570 C 0.74222 0.60123 0.73163 0.0
H571 H 0.81861 0.44659 0.79348 0.0
H572 H 0.82089 0.51047 0.77796 0.0
H573 H 0.72374 0.54432 0.73014 0.0
H574 H 0.7169 0.73504 0.7073 0.0
H575 H 0.71063 0.67816 0.73166 0.0
H576 H 0.8061 0.63604 0.77054 0.0
C577 C 0.79472 0.49535 0.77698 0.0
C578 C 0.74116 0.56404 0.73964 0.0
C579 C 0.79362 0.45847 0.78562 0.0
C580 C 0.74192 0.72013 0.71268 0.0
C581 C 0.7383 0.68741 0.72638 0.0
C582 C 0.78769 0.61623 0.76187 0.0
C583 C 0.76254 0.51234 0.7673 0.0
C584 C 0.76322 0.55233 0.759 0.0
C585 C 0.76992 0.66563 0.73199 0.0
C586 C 0.76583 0.62756 0.74245 0.0
H587 H 0.70271 0.43829 0.77307 0.0
H588 H 0.70405 0.50277 0.75889 0.0
H589 H 0.80284 0.57173 0.78552 0.0
H590 H 0.83635 0.71825 0.70419 0.0
H591 H 0.83021 0.66212 0.72899 0.0
loop_
_geom_bond_atom_site_label_1
_geom_bond_atom_site_label_2
_geom_bond_distance
_geom_bond_site_symmetry_2
_ccdc_geom_bond_type
Mg0 O1 2.028 . S
Mg0 O7 1.986 . S
Mg0 O9 2.114 . S
Mg0 O10 2.251 . S
Mg0 O13 2.010 . S
O1 Mg0 2.028 . S
O1 C4 1.250 . S
O2 Mg3 2.028 . S
O2 C4 1.248 . S
Mg3 O2 2.028 . S
Mg3 O8 2.032 . S
Mg3 O10 2.079 . S
C4 O1 1.250 . S
C4 O2 1.248 . S
C5 O6 1.264 . S
C5 O13 1.249 . S
O6 C5 1.264 . S
O7 Mg0 1.986 . S
O7 C11 1.246 . S
O8 Mg3 2.032 . S
O8 C11 1.259 . S
O9 Mg0 2.114 . S
O9 C12 1.252 . S
O10 Mg0 2.251 . S
O10 Mg3 2.079 . S
O10 C12 1.273 . S
C11 O7 1.246 . S
C11 O8 1.259 . S
C12 O9 1.252 . S
C12 O10 1.273 . S
O13 Mg0 2.010 . S
O13 C5 1.249 . S
Mg14 O15 2.028 . S
Mg14 O21 1.986 . S
Mg14 O23 2.114 . S
Mg14 O24 2.251 . S
Mg14 O27 2.010 . S
O15 Mg14 2.028 . S
O15 C18 1.250 . S
O16 Mg17 2.028 . S
O16 C18 1.248 . S
Mg17 O16 2.028 . S
Mg17 O22 2.032 . S
Mg17 O24 2.079 . S
C18 O15 1.250 . S
C18 O16 1.248 . S
C19 O20 1.264 . S
C19 O27 1.249 . S
O20 C19 1.264 . S
O21 Mg14 1.986 . S
O21 C25 1.246 . S
O22 Mg17 2.032 . S
O22 C25 1.259 . S
O23 Mg14 2.114 . S
O23 C26 1.252 . S
O24 Mg14 2.251 . S
O24 Mg17 2.079 . S
O24 C26 1.273 . S
C25 O21 1.246 . S
C25 O22 1.259 . S
C26 O23 1.252 . S
C26 O24 1.273 . S
O27 Mg14 2.010 . S
O27 C19 1.249 . S
Mg28 O29 2.028 . S
Mg28 O35 1.986 . S
Mg28 O37 2.114 . S
Mg28 O38 2.251 . S
Mg28 O41 2.010 . S
O29 Mg28 2.028 . S
O29 C32 1.250 . S
O30 Mg31 2.028 . S
O30 C32 1.248 . S
Mg31 O30 2.028 . S
Mg31 O36 2.032 . S
Mg31 O38 2.079 . S
C32 O29 1.250 . S
C32 O30 1.248 . S
C33 O34 1.264 . S
C33 O41 1.249 . S
O34 C33 1.264 . S
O35 Mg28 1.986 . S
O35 C39 1.246 . S
O36 Mg31 2.032 . S
O36 C39 1.259 . S
O37 Mg28 2.114 . S
O37 C40 1.252 . S
O38 Mg28 2.251 . S
O38 Mg31 2.079 . S
O38 C40 1.273 . S
C39 O35 1.246 . S
C39 O36 1.259 . S
C40 O37 1.252 . S
C40 O38 1.273 . S
O41 Mg28 2.010 . S
O41 C33 1.249 . S
Mg42 O43 2.028 . S
Mg42 O49 1.986 . S
Mg42 O51 2.114 . S
Mg42 O52 2.251 . S
Mg42 O55 2.010 . S
O43 Mg42 2.028 . S
O43 C46 1.250 . S
O44 Mg45 2.028 . S
O44 C46 1.248 . S
Mg45 O44 2.028 . S
Mg45 O50 2.032 . S
Mg45 O52 2.079 . S
C46 O43 1.250 . S
C46 O44 1.248 . S
C47 O48 1.264 . S
C47 O55 1.249 . S
O48 C47 1.264 . S
O49 Mg42 1.986 . S
O49 C53 1.246 . S
O50 Mg45 2.032 . S
O50 C53 1.259 . S
O51 Mg42 2.114 . S
O51 C54 1.252 . S
O52 Mg42 2.251 . S
O52 Mg45 2.079 . S
O52 C54 1.273 . S
C53 O49 1.246 . S
C53 O50 1.259 . S
C54 O51 1.252 . S
C54 O52 1.273 . S
O55 Mg42 2.010 . S
O55 C47 1.249 . S
Mg56 O57 2.028 . S
Mg56 O63 1.986 . S
Mg56 O65 2.114 . S
Mg56 O66 2.251 . S
Mg56 O69 2.010 . S
O57 Mg56 2.028 . S
O57 C60 1.250 . S
O58 Mg59 2.028 . S
O58 C60 1.248 . S
Mg59 O58 2.028 . S
Mg59 O64 2.032 . S
Mg59 O66 2.079 . S
C60 O57 1.250 . S
C60 O58 1.248 . S
C61 O62 1.264 . S
C61 O69 1.249 . S
O62 C61 1.264 . S
O63 Mg56 1.986 . S
O63 C67 1.246 . S
O64 Mg59 2.032 . S
O64 C67 1.259 . S
O65 Mg56 2.114 . S
O65 C68 1.252 . S
O66 Mg56 2.251 . S
O66 Mg59 2.079 . S
O66 C68 1.273 . S
C67 O63 1.246 . S
C67 O64 1.259 . S
C68 O65 1.252 . S
C68 O66 1.273 . S
O69 Mg56 2.010 . S
O69 C61 1.249 . S
Mg70 O71 2.028 . S
Mg70 O77 1.986 . S
Mg70 O79 2.114 . S
Mg70 O80 2.251 . S
Mg70 O83 2.010 . S
O71 Mg70 2.028 . S
O71 C74 1.250 . S
O72 Mg73 2.028 . S
O72 C74 1.248 . S
Mg73 O72 2.028 . S
Mg73 O78 2.032 . S
Mg73 O80 2.079 . S
C74 O71 1.250 . S
C74 O72 1.248 . S
C75 O76 1.264 . S
C75 O83 1.249 . S
O76 C75 1.264 . S
O77 Mg70 1.986 . S
O77 C81 1.246 . S
O78 Mg73 2.032 . S
O78 C81 1.259 . S
O79 Mg70 2.114 . S
O79 C82 1.252 . S
O80 Mg70 2.251 . S
O80 Mg73 2.079 . S
O80 C82 1.273 . S
C81 O77 1.246 . S
C81 O78 1.259 . S
C82 O79 1.252 . S
C82 O80 1.273 . S
O83 Mg70 2.010 . S
O83 C75 1.249 . S
Mg84 O85 2.028 . S
Mg84 O91 1.986 . S
Mg84 O93 2.114 . S
Mg84 O94 2.251 . S
Mg84 O97 2.010 . S
O85 Mg84 2.028 . S
O85 C88 1.250 . S
O86 Mg87 2.028 . S
O86 C88 1.248 . S
Mg87 O86 2.028 . S
Mg87 O92 2.032 . S
Mg87 O94 2.079 . S
C88 O85 1.250 . S
C88 O86 1.248 . S
C89 O90 1.264 . S
C89 O97 1.249 . S
O90 C89 1.264 . S
O91 Mg84 1.986 . S
O91 C95 1.246 . S
O92 Mg87 2.032 . S
O92 C95 1.259 . S
O93 Mg84 2.114 . S
O93 C96 1.252 . S
O94 Mg84 2.251 . S
O94 Mg87 2.079 . S
O94 C96 1.273 . S
C95 O91 1.246 . S
C95 O92 1.259 . S
C96 O93 1.252 . S
C96 O94 1.273 . S
O97 Mg84 2.010 . S
O97 C89 1.249 . S
Mg98 O99 2.028 . S
Mg98 O105 1.986 . S
Mg98 O107 2.114 . S
Mg98 O108 2.251 . S
Mg98 O111 2.010 . S
O99 Mg98 2.028 . S
O99 C102 1.250 . S
O100 Mg101 2.028 . S
O100 C102 1.248 . S
Mg101 O100 2.028 . S
Mg101 O106 2.032 . S
Mg101 O108 2.079 . S
C102 O99 1.250 . S
C102 O100 1.248 . S
C103 O104 1.264 . S
C103 O111 1.249 . S
O104 C103 1.264 . S
O105 Mg98 1.986 . S
O105 C109 1.246 . S
O106 Mg101 2.032 . S
O106 C109 1.259 . S
O107 Mg98 2.114 . S
O107 C110 1.252 . S
O108 Mg98 2.251 . S
O108 Mg101 2.079 . S
O108 C110 1.273 . S
C109 O105 1.246 . S
C109 O106 1.259 . S
C110 O107 1.252 . S
C110 O108 1.273 . S
O111 Mg98 2.010 . S
O111 C103 1.249 . S
C112 C113 1.349 . S
C112 C114 1.327 . S
C112 H137 0.950 . S
C113 C112 1.349 . S
C113 C129 1.349 . S
C114 C112 1.327 . S
C114 C133 1.429 . S
C114 H138 0.950 . S
C115 C132 1.574 1_545 S
C115 C134 1.368 . S
C115 H139 0.949 . S
H116 C120 0.949 . S
C117 C118 1.349 . S
C117 C119 1.327 . S
C117 H140 0.950 . S
C118 C117 1.349 . S
C118 C130 1.349 . S
C119 C117 1.327 . S
C119 C135 1.429 . S
C119 H141 0.950 . S
C120 H116 0.949 . S
C120 C128 1.574 1_565 S
C120 C136 1.368 . S
H121 C129 0.950 . S
H122 C127 0.950 . S
H123 C128 0.949 . S
H124 C130 0.950 . S
H125 C131 0.950 . S
H126 C132 0.949 . S
C127 H122 0.950 . S
C127 C129 1.327 . S
C127 C133 1.429 . S
C128 C120 1.574 1_545 S
C128 H123 0.949 . S
C128 C134 1.368 1_655 S
C129 C113 1.349 . S
C129 H121 0.950 . S
C129 C127 1.327 . S
C130 C118 1.349 . S
C130 H124 0.950 . S
C130 C131 1.327 . S
C131 H125 0.950 . S
C131 C130 1.327 . S
C131 C135 1.429 . S
C132 C115 1.574 1_565 S
C132 H126 0.949 . S
C132 C136 1.368 1_455 S
C133 C114 1.429 . S
C133 C127 1.429 . S
C133 C134 1.523 . S
C134 C115 1.368 . S
C134 C128 1.368 1_455 S
C134 C133 1.523 . S
C135 C119 1.429 . S
C135 C131 1.429 . S
C135 C136 1.523 . S
C136 C120 1.368 . S
C136 C132 1.368 1_655 S
C136 C135 1.523 . S
H137 C112 0.950 . S
H138 C114 0.950 . S
H139 C115 0.949 . S
H140 C117 0.950 . S
H141 C119 0.950 . S
C142 C143 1.349 . S
C142 C144 1.327 . S
C142 H167 0.950 . S
C143 C142 1.349 . S
C143 C159 1.349 . S
C144 C142 1.327 . S
C144 C163 1.429 . S
C144 H168 0.950 . S
C145 C162 1.574 . S
C145 C164 1.368 . S
C145 H169 0.949 . S
H146 C150 0.949 . S
C147 C148 1.349 . S
C147 C149 1.327 . S
C147 H170 0.950 . S
C148 C147 1.349 . S
C148 C160 1.349 . S
C149 C147 1.327 . S
C149 C165 1.429 . S
C149 H171 0.950 . S
C150 H146 0.949 . S
C150 C158 1.574 . S
C150 C166 1.368 . S
H151 C159 0.950 . S
H152 C157 0.950 . S
H153 C158 0.949 . S
H154 C160 0.950 . S
H155 C161 0.950 . S
H156 C162 0.949 . S
C157 H152 0.950 . S
C157 C159 1.327 . S
C157 C163 1.429 . S
C158 C150 1.574 . S
C158 H153 0.949 . S
C158 C164 1.368 . S
C159 C143 1.349 . S
C159 H151 0.950 . S
C159 C157 1.327 . S
C160 C148 1.349 . S
C160 H154 0.950 . S
C160 C161 1.327 . S
C161 H155 0.950 . S
C161 C160 1.327 . S
C161 C165 1.429 . S
C162 C145 1.574 . S
C162 H156 0.949 . S
C162 C166 1.368 . S
C163 C144 1.429 . S
C163 C157 1.429 . S
C163 C164 1.523 . S
C164 C145 1.368 . S
C164 C158 1.368 . S
C164 C163 1.523 . S
C165 C149 1.429 . S
C165 C161 1.429 . S
C165 C166 1.523 . S
C166 C150 1.368 . S
C166 C162 1.368 . S
C166 C165 1.523 . S
H167 C142 0.950 . S
H168 C144 0.950 . S
H169 C145 0.949 . S
H170 C147 0.950 . S
H171 C149 0.950 . S
C172 C173 1.349 . S
C172 C174 1.327 . S
C172 H197 0.950 . S
C173 C172 1.349 . S
C173 C189 1.349 . S
C174 C172 1.327 . S
C174 C193 1.429 . S
C174 H198 0.950 . S
C175 C192 1.574 . S
C175 C194 1.368 . S
C175 H199 0.949 . S
H176 C180 0.949 . S
C177 C178 1.349 . S
C177 C179 1.327 . S
C177 H200 0.950 . S
C178 C177 1.349 . S
C178 C190 1.349 . S
C179 C177 1.327 . S
C179 C195 1.429 . S
C179 H201 0.950 . S
C180 H176 0.949 . S
C180 C188 1.574 . S
C180 C196 1.368 . S
H181 C189 0.950 . S
H182 C187 0.950 . S
H183 C188 0.949 . S
H184 C190 0.950 . S
H185 C191 0.950 . S
H186 C192 0.949 . S
C187 H182 0.950 . S
C187 C189 1.327 . S
C187 C193 1.429 . S
C188 C180 1.574 . S
C188 H183 0.949 . S
C188 C194 1.368 . S
C189 C173 1.349 . S
C189 H181 0.950 . S
C189 C187 1.327 . S
C190 C178 1.349 . S
C190 H184 0.950 . S
C190 C191 1.327 . S
C191 H185 0.950 . S
C191 C190 1.327 . S
C191 C195 1.429 . S
C192 C175 1.574 . S
C192 H186 0.949 . S
C192 C196 1.368 . S
C193 C174 1.429 . S
C193 C187 1.429 . S
C193 C194 1.523 . S
C194 C175 1.368 . S
C194 C188 1.368 . S
C194 C193 1.523 . S
C195 C179 1.429 . S
C195 C191 1.429 . S
C195 C196 1.523 . S
C196 C180 1.368 . S
C196 C192 1.368 . S
C196 C195 1.523 . S
H197 C172 0.950 . S
H198 C174 0.950 . S
H199 C175 0.949 . S
H200 C177 0.950 . S
H201 C179 0.950 . S
C202 C203 1.349 . S
C202 C204 1.327 . S
C202 H227 0.950 . S
C203 C202 1.349 . S
C203 C219 1.349 . S
C204 C202 1.327 . S
C204 C223 1.429 . S
C204 H228 0.950 . S
C205 C222 1.574 1_455 S
C205 C224 1.368 1_565 S
C205 H229 0.949 . S
H206 C210 0.949 . S
C207 C208 1.349 . S
C207 C209 1.327 . S
C207 H230 0.950 . S
C208 C207 1.349 . S
C208 C220 1.349 . S
C209 C207 1.327 . S
C209 C225 1.429 . S
C209 H231 0.950 . S
C210 H206 0.949 . S
C210 C218 1.574 1_655 S
C210 C226 1.368 1_545 S
H211 C219 0.950 . S
H212 C217 0.950 . S
H213 C218 0.949 . S
H214 C220 0.950 . S
H215 C221 0.950 . S
H216 C222 0.949 . S
C217 H212 0.950 . S
C217 C219 1.327 . S
C217 C223 1.429 . S
C218 C210 1.574 1_455 S
C218 H213 0.949 . S
C218 C224 1.368 . S
C219 C203 1.349 . S
C219 H211 0.950 . S
C219 C217 1.327 . S
C220 C208 1.349 . S
C220 H214 0.950 . S
C220 C221 1.327 . S
C221 H215 0.950 . S
C221 C220 1.327 . S
C221 C225 1.429 . S
C222 C205 1.574 1_655 S
C222 H216 0.949 . S
C222 C226 1.368 . S
C223 C204 1.429 . S
C223 C217 1.429 . S
C223 C224 1.523 . S
C224 C205 1.368 1_545 S
C224 C218 1.368 . S
C224 C223 1.523 . S
C225 C209 1.429 . S
C225 C221 1.429 . S
C225 C226 1.523 . S
C226 C210 1.368 1_565 S
C226 C222 1.368 . S
C226 C225 1.523 . S
H227 C202 0.950 . S
H228 C204 0.950 . S
H229 C205 0.949 . S
H230 C207 0.950 . S
H231 C209 0.950 . S
C232 C233 1.349 . S
C232 C234 1.327 . S
C232 H257 0.950 . S
C233 C232 1.349 . S
C233 C249 1.349 . S
C234 C232 1.327 . S
C234 C253 1.429 . S
C234 H258 0.950 . S
C235 C252 1.574 . S
C235 C254 1.368 . S
C235 H259 0.949 . S
H236 C240 0.949 . S
C237 C238 1.349 . S
C237 C239 1.327 . S
C237 H260 0.950 . S
C238 C237 1.349 . S
C238 C250 1.349 . S
C239 C237 1.327 . S
C239 C255 1.429 . S
C239 H261 0.950 . S
C240 H236 0.949 . S
C240 C248 1.574 . S
C240 C256 1.368 . S
H241 C249 0.950 . S
H242 C247 0.950 . S
H243 C248 0.949 . S
H244 C250 0.950 . S
H245 C251 0.950 . S
H246 C252 0.949 . S
C247 H242 0.950 . S
C247 C249 1.327 . S
C247 C253 1.429 . S
C248 C240 1.574 . S
C248 H243 0.949 . S
C248 C254 1.368 . S
C249 C233 1.349 . S
C249 H241 0.950 . S
C249 C247 1.327 . S
C250 C238 1.349 . S
C250 H244 0.950 . S
C250 C251 1.327 . S
C251 H245 0.950 . S
C251 C250 1.327 . S
C251 C255 1.429 . S
C252 C235 1.574 . S
C252 H246 0.949 . S
C252 C256 1.368 . S
C253 C234 1.429 . S
C253 C247 1.429 . S
C253 C254 1.523 . S
C254 C235 1.368 . S
C254 C248 1.368 . S
C254 C253 1.523 . S
C255 C239 1.429 . S
C255 C251 1.429 . S
C255 C256 1.523 . S
C256 C240 1.368 . S
C256 C252 1.368 . S
C256 C255 1.523 . S
H257 C232 0.950 . S
H258 C234 0.950 . S
H259 C235 0.949 . S
H260 C237 0.950 . S
H261 C239 0.950 . S
C262 C263 1.349 . S
C262 C264 1.327 . S
C262 H287 0.950 . S
C263 C262 1.349 . S
C263 C279 1.349 . S
C264 C262 1.327 . S
C264 C283 1.429 . S
C264 H288 0.950 . S
C265 C282 1.574 1_556 S
C265 C284 1.368 . S
C265 H289 0.949 . S
H266 C270 0.949 . S
C267 C268 1.349 . S
C267 C269 1.327 . S
C267 H290 0.950 . S
C268 C267 1.349 . S
C268 C280 1.349 . S
C269 C267 1.327 . S
C269 C285 1.429 . S
C269 H291 0.950 . S
C270 H266 0.949 . S
C270 C278 1.574 1_554 S
C270 C286 1.368 . S
H271 C279 0.950 . S
H272 C277 0.950 . S
H273 C278 0.949 . S
H274 C280 0.950 . S
H275 C281 0.950 . S
H276 C282 0.949 . S
C277 H272 0.950 . S
C277 C279 1.327 . S
C277 C283 1.429 . S
C278 C270 1.574 1_556 S
C278 H273 0.949 . S
C278 C284 1.368 . S
C279 C263 1.349 . S
C279 H271 0.950 . S
C279 C277 1.327 . S
C280 C268 1.349 . S
C280 H274 0.950 . S
C280 C281 1.327 . S
C281 H275 0.950 . S
C281 C280 1.327 . S
C281 C285 1.429 . S
C282 C265 1.574 1_554 S
C282 H276 0.949 . S
C282 C286 1.368 . S
C283 C264 1.429 . S
C283 C277 1.429 . S
C283 C284 1.523 . S
C284 C265 1.368 . S
C284 C278 1.368 . S
C284 C283 1.523 . S
C285 C269 1.429 . S
C285 C281 1.429 . S
C285 C286 1.523 . S
C286 C270 1.368 . S
C286 C282 1.368 . S
C286 C285 1.523 . S
H287 C262 0.950 . S
H288 C264 0.950 . S
H289 C265 0.949 . S
H290 C267 0.950 . S
H291 C269 0.950 . S
C292 C293 1.349 . S
C292 C294 1.327 . S
C292 H317 0.950 . S
C293 C292 1.349 . S
C293 C309 1.349 . S
C294 C292 1.327 . S
C294 C313 1.429 . S
C294 H318 0.950 . S
C295 C312 1.574 . S
C295 C314 1.368 . S
C295 H319 0.949 . S
H296 C300 0.949 . S
C297 C298 1.349 . S
C297 C299 1.327 . S
C297 H320 0.950 . S
C298 C297 1.349 . S
C298 C310 1.349 . S
C299 C297 1.327 . S
C299 C315 1.429 . S
C299 H321 0.950 . S
C300 H296 0.949 . S
C300 C308 1.574 . S
C300 C316 1.368 . S
H301 C309 0.950 . S
H302 C307 0.950 . S
H303 C308 0.949 . S
H304 C310 0.950 . S
H305 C311 0.950 . S
H306 C312 0.949 . S
C307 H302 0.950 . S
C307 C309 1.327 . S
C307 C313 1.429 . S
C308 C300 1.574 . S
C308 H303 0.949 . S
C308 C314 1.368 . S
C309 C293 1.349 . S
C309 H301 0.950 . S
C309 C307 1.327 . S
C310 C298 1.349 . S
C310 H304 0.950 . S
C310 C311 1.327 . S
C311 H305 0.950 . S
C311 C310 1.327 . S
C311 C315 1.429 . S
C312 C295 1.574 . S
C312 H306 0.949 . S
C312 C316 1.368 . S
C313 C294 1.429 . S
C313 C307 1.429 . S
C313 C314 1.523 . S
C314 C295 1.368 . S
C314 C308 1.368 . S
C314 C313 1.523 . S
C315 C299 1.429 . S
C315 C311 1.429 . S
C315 C316 1.523 . S
C316 C300 1.368 . S
C316 C312 1.368 . S
C316 C315 1.523 . S
H317 C292 0.950 . S
H318 C294 0.950 . S
H319 C295 0.949 . S
H320 C297 0.950 . S
H321 C299 0.950 . S
C322 C323 1.349 . S
C322 C324 1.327 . S
C322 H347 0.950 . S
C323 C322 1.349 . S
C323 C339 1.349 . S
C324 C322 1.327 . S
C324 C343 1.429 . S
C324 H348 0.950 . S
C325 C342 1.574 1_556 S
C325 C344 1.368 . S
C325 H349 0.949 . S
H326 C330 0.949 . S
C327 C328 1.349 . S
C327 C329 1.327 . S
C327 H350 0.950 . S
C328 C327 1.349 . S
C328 C340 1.349 . S
C329 C327 1.327 . S
C329 C345 1.429 . S
C329 H351 0.950 . S
C330 H326 0.949 . S
C330 C338 1.574 1_554 S
C330 C346 1.368 . S
H331 C339 0.950 . S
H332 C337 0.950 . S
H333 C338 0.949 . S
H334 C340 0.950 . S
H335 C341 0.950 . S
H336 C342 0.949 . S
C337 H332 0.950 . S
C337 C339 1.327 . S
C337 C343 1.429 . S
C338 C330 1.574 1_556 S
C338 H333 0.949 . S
C338 C344 1.368 . S
C339 C323 1.349 . S
C339 H331 0.950 . S
C339 C337 1.327 . S
C340 C328 1.349 . S
C340 H334 0.950 . S
C340 C341 1.327 . S
C341 H335 0.950 . S
C341 C340 1.327 . S
C341 C345 1.429 . S
C342 C325 1.574 1_554 S
C342 H336 0.949 . S
C342 C346 1.368 . S
C343 C324 1.429 . S
C343 C337 1.429 . S
C343 C344 1.523 . S
C344 C325 1.368 . S
C344 C338 1.368 . S
C344 C343 1.523 . S
C345 C329 1.429 . S
C345 C341 1.429 . S
C345 C346 1.523 . S
C346 C330 1.368 . S
C346 C342 1.368 . S
C346 C345 1.523 . S
H347 C322 0.950 . S
H348 C324 0.950 . S
H349 C325 0.949 . S
H350 C327 0.950 . S
H351 C329 0.950 . S
C352 C353 1.349 . S
C352 C354 1.327 . S
C352 H377 0.950 . S
C353 C352 1.349 . S
C353 C369 1.349 . S
C354 C352 1.327 . S
C354 C373 1.429 . S
C354 H378 0.950 . S
C355 C372 1.574 . S
C355 C374 1.368 . S
C355 H379 0.949 . S
H356 C360 0.949 . S
C357 C358 1.349 . S
C357 C359 1.327 . S
C357 H380 0.950 . S
C358 C357 1.349 . S
C358 C370 1.349 . S
C359 C357 1.327 . S
C359 C375 1.429 . S
C359 H381 0.950 . S
C360 H356 0.949 . S
C360 C368 1.574 . S
C360 C376 1.368 . S
H361 C369 0.950 . S
H362 C367 0.950 . S
H363 C368 0.949 . S
H364 C370 0.950 . S
H365 C371 0.950 . S
H366 C372 0.949 . S
C367 H362 0.950 . S
C367 C369 1.327 . S
C367 C373 1.429 . S
C368 C360 1.574 . S
C368 H363 0.949 . S
C368 C374 1.368 . S
C369 C353 1.349 . S
C369 H361 0.950 . S
C369 C367 1.327 . S
C370 C358 1.349 . S
C370 H364 0.950 . S
C370 C371 1.327 . S
C371 H365 0.950 . S
C371 C370 1.327 . S
C371 C375 1.429 . S
C372 C355 1.574 . S
C372 H366 0.949 . S
C372 C376 1.368 . S
C373 C354 1.429 . S
C373 C367 1.429 . S
C373 C374 1.523 . S
C374 C355 1.368 . S
C374 C368 1.368 . S
C374 C373 1.523 . S
C375 C359 1.429 . S
C375 C371 1.429 . S
C375 C376 1.523 . S
C376 C360 1.368 . S
C376 C372 1.368 . S
C376 C375 1.523 . S
H377 C352 0.950 . S
H378 C354 0.950 . S
H379 C355 0.949 . S
H380 C357 0.950 . S
H381 C359 0.950 . S
C382 C383 1.349 . S
C382 C384 1.327 . S
C382 H407 0.950 . S
C383 C382 1.349 . S
C383 C399 1.349 . S
C384 C382 1.327 . S
C384 C403 1.429 . S
C384 H408 0.950 . S
C385 C402 1.574 . S
C385 C404 1.368 . S
C385 H409 0.949 . S
H386 C390 0.949 . S
C387 C388 1.349 . S
C387 C389 1.327 . S
C387 H410 0.950 . S
C388 C387 1.349 . S
C388 C400 1.349 . S
C389 C387 1.327 . S
C389 C405 1.429 . S
C389 H411 0.950 . S
C390 H386 0.949 . S
C390 C398 1.574 . S
C390 C406 1.368 . S
H391 C399 0.950 . S
H392 C397 0.950 . S
H393 C398 0.949 . S
H394 C400 0.950 . S
H395 C401 0.950 . S
H396 C402 0.949 . S
C397 H392 0.950 . S
C397 C399 1.327 . S
C397 C403 1.429 . S
C398 C390 1.574 . S
C398 H393 0.949 . S
C398 C404 1.368 . S
C399 C383 1.349 . S
C399 H391 0.950 . S
C399 C397 1.327 . S
C400 C388 1.349 . S
C400 H394 0.950 . S
C400 C401 1.327 . S
C401 H395 0.950 . S
C401 C400 1.327 . S
C401 C405 1.429 . S
C402 C385 1.574 . S
C402 H396 0.949 . S
C402 C406 1.368 . S
C403 C384 1.429 . S
C403 C397 1.429 . S
C403 C404 1.523 . S
C404 C385 1.368 . S
C404 C398 1.368 . S
C404 C403 1.523 . S
C405 C389 1.429 . S
C405 C401 1.429 . S
C405 C406 1.523 . S
C406 C390 1.368 . S
C406 C402 1.368 . S
C406 C405 1.523 . S
H407 C382 0.950 . S
H408 C384 0.950 . S
H409 C385 0.949 . S
H410 C387 0.950 . S
H411 C389 0.950 . S
C412 C413 1.349 . S
C412 C414 1.327 . S
C412 H437 0.950 . S
C413 C412 1.349 . S
C413 C429 1.349 . S
C414 C412 1.327 . S
C414 C433 1.429 . S
C414 H438 0.950 . S
C415 C432 1.574 . S
C415 C434 1.368 . S
C415 H439 0.949 . S
H416 C420 0.949 . S
C417 C418 1.349 . S
C417 C419 1.327 . S
C417 H440 0.950 . S
C418 C417 1.349 . S
C418 C430 1.349 . S
C419 C417 1.327 . S
C419 C435 1.429 . S
C419 H441 0.950 . S
C420 H416 0.949 . S
C420 C428 1.574 . S
C420 C436 1.368 . S
H421 C429 0.950 . S
H422 C427 0.950 . S
H423 C428 0.949 . S
H424 C430 0.950 . S
H425 C431 0.950 . S
H426 C432 0.949 . S
C427 H422 0.950 . S
C427 C429 1.327 . S
C427 C433 1.429 . S
C428 C420 1.574 . S
C428 H423 0.949 . S
C428 C434 1.368 . S
C429 C413 1.349 . S
C429 H421 0.950 . S
C429 C427 1.327 . S
C430 C418 1.349 . S
C430 H424 0.950 . S
C430 C431 1.327 . S
C431 H425 0.950 . S
C431 C430 1.327 . S
C431 C435 1.429 . S
C432 C415 1.574 . S
C432 H426 0.949 . S
C432 C436 1.368 . S
C433 C414 1.429 . S
C433 C427 1.429 . S
C433 C434 1.523 . S
C434 C415 1.368 . S
C434 C428 1.368 . S
C434 C433 1.523 . S
C435 C419 1.429 . S
C435 C431 1.429 . S
C435 C436 1.523 . S
C436 C420 1.368 . S
C436 C432 1.368 . S
C436 C435 1.523 . S
H437 C412 0.950 . S
H438 C414 0.950 . S
H439 C415 0.949 . S
H440 C417 0.950 . S
H441 C419 0.950 . S
C442 C443 1.349 . S
C442 C444 1.327 . S
C442 H467 0.950 . S
C443 C442 1.349 . S
C443 C459 1.349 . S
C444 C442 1.327 . S
C444 C463 1.429 . S
C444 H468 0.950 . S
C445 C462 1.574 . S
C445 C464 1.368 . S
C445 H469 0.949 . S
H446 C450 0.949 . S
C447 C448 1.349 . S
C447 C449 1.327 . S
C447 H470 0.950 . S
C448 C447 1.349 . S
C448 C460 1.349 . S
C449 C447 1.327 . S
C449 C465 1.429 . S
C449 H471 0.950 . S
C450 H446 0.949 . S
C450 C458 1.574 . S
C450 C466 1.368 . S
H451 C459 0.950 . S
H452 C457 0.950 . S
H453 C458 0.949 . S
H454 C460 0.950 . S
H455 C461 0.950 . S
H456 C462 0.949 . S
C457 H452 0.950 . S
C457 C459 1.327 . S
C457 C463 1.429 . S
C458 C450 1.574 . S
C458 H453 0.949 . S
C458 C464 1.368 . S
C459 C443 1.349 . S
C459 H451 0.950 . S
C459 C457 1.327 . S
C460 C448 1.349 . S
C460 H454 0.950 . S
C460 C461 1.327 . S
C461 H455 0.950 . S
C461 C460 1.327 . S
C461 C465 1.429 . S
C462 C445 1.574 . S
C462 H456 0.949 . S
C462 C466 1.368 . S
C463 C444 1.429 . S
C463 C457 1.429 . S
C463 C464 1.523 . S
C464 C445 1.368 . S
C464 C458 1.368 . S
C464 C463 1.523 . S
C465 C449 1.429 . S
C465 C461 1.429 . S
C465 C466 1.523 . S
C466 C450 1.368 . S
C466 C462 1.368 . S
C466 C465 1.523 . S
H467 C442 0.950 . S
H468 C444 0.950 . S
H469 C445 0.949 . S
H470 C447 0.950 . S
H471 C449 0.950 . S
C472 C473 1.349 . S
C472 C474 1.327 . S
C472 H497 0.950 . S
C473 C472 1.349 . S
C473 C489 1.349 . S
C474 C472 1.327 . S
C474 C493 1.429 . S
C474 H498 0.950 . S
C475 C492 1.574 . S
C475 C494 1.368 . S
C475 H499 0.949 . S
H476 C480 0.949 . S
C477 C478 1.349 . S
C477 C479 1.327 . S
C477 H500 0.950 . S
C478 C477 1.349 . S
C478 C490 1.349 . S
C479 C477 1.327 . S
C479 C495 1.429 . S
C479 H501 0.950 . S
C480 H476 0.949 . S
C480 C488 1.574 . S
C480 C496 1.368 . S
H481 C489 0.950 . S
H482 C487 0.950 . S
H483 C488 0.949 . S
H484 C490 0.950 . S
H485 C491 0.950 . S
H486 C492 0.949 . S
C487 H482 0.950 . S
C487 C489 1.327 . S
C487 C493 1.429 . S
C488 C480 1.574 . S
C488 H483 0.949 . S
C488 C494 1.368 . S
C489 C473 1.349 . S
C489 H481 0.950 . S
C489 C487 1.327 . S
C490 C478 1.349 . S
C490 H484 0.950 . S
C490 C491 1.327 . S
C491 H485 0.950 . S
C491 C490 1.327 . S
C491 C495 1.429 . S
C492 C475 1.574 . S
C492 H486 0.949 . S
C492 C496 1.368 . S
C493 C474 1.429 . S
C493 C487 1.429 . S
C493 C494 1.523 . S
C494 C475 1.368 . S
C494 C488 1.368 . S
C494 C493 1.523 . S
C495 C479 1.429 . S
C495 C491 1.429 . S
C495 C496 1.523 . S
C496 C480 1.368 . S
C496 C492 1.368 . S
C496 C495 1.523 . S
H497 C472 0.950 . S
H498 C474 0.950 . S
H499 C475 0.949 . S
H500 C477 0.950 . S
H501 C479 0.950 . S
C502 C503 1.349 . S
C502 C504 1.327 . S
C502 H527 0.950 . S
C503 C502 1.349 . S
C503 C519 1.349 . S
C504 C502 1.327 . S
C504 C523 1.429 . S
C504 H528 0.950 . S
C505 C522 1.574 . S
C505 C524 1.368 . S
C505 H529 0.949 . S
H506 C510 0.949 . S
C507 C508 1.349 . S
C507 C509 1.327 . S
C507 H530 0.950 . S
C508 C507 1.349 . S
C508 C520 1.349 . S
C509 C507 1.327 . S
C509 C525 1.429 . S
C509 H531 0.950 . S
C510 H506 0.949 . S
C510 C518 1.574 . S
C510 C526 1.368 . S
H511 C519 0.950 . S
H512 C517 0.950 . S
H513 C518 0.949 . S
H514 C520 0.950 . S
H515 C521 0.950 . S
H516 C522 0.949 . S
C517 H512 0.950 . S
C517 C519 1.327 . S
C517 C523 1.429 . S
C518 C510 1.574 . S
C518 H513 0.949 . S
C518 C524 1.368 . S
C519 C503 1.349 . S
C519 H511 0.950 . S
C519 C517 1.327 . S
C520 C508 1.349 . S
C520 H514 0.950 . S
C520 C521 1.327 . S
C521 H515 0.950 . S
C521 C520 1.327 . S
C521 C525 1.429 . S
C522 C505 1.574 . S
C522 H516 0.949 . S
C522 C526 1.368 . S
C523 C504 1.429 . S
C523 C517 1.429 . S
C523 C524 1.523 . S
C524 C505 1.368 . S
C524 C518 1.368 . S
C524 C523 1.523 . S
C525 C509 1.429 . S
C525 C521 1.429 . S
C525 C526 1.523 . S
C526 C510 1.368 . S
C526 C522 1.368 . S
C526 C525 1.523 . S
H527 C502 0.950 . S
H528 C504 0.950 . S
H529 C505 0.949 . S
H530 C507 0.950 . S
H531 C509 0.950 . S
C532 C533 1.349 . S
C532 C534 1.327 . S
C532 H557 0.950 . S
C533 C532 1.349 . S
C533 C549 1.349 . S
C534 C532 1.327 . S
C534 C553 1.429 . S
C534 H558 0.950 . S
C535 C552 1.574 . S
C535 C554 1.368 . S
C535 H559 0.949 . S
H536 C540 0.949 . S
C537 C538 1.349 . S
C537 C539 1.327 . S
C537 H560 0.950 . S
C538 C537 1.349 . S
C538 C550 1.349 . S
C539 C537 1.327 . S
C539 C555 1.429 . S
C539 H561 0.950 . S
C540 H536 0.949 . S
C540 C548 1.574 . S
C540 C556 1.368 . S
H541 C549 0.950 . S
H542 C547 0.950 . S
H543 C548 0.949 . S
H544 C550 0.950 . S
H545 C551 0.950 . S
H546 C552 0.949 . S
C547 H542 0.950 . S
C547 C549 1.327 . S
C547 C553 1.429 . S
C548 C540 1.574 . S
C548 H543 0.949 . S
C548 C554 1.368 . S
C549 C533 1.349 . S
C549 H541 0.950 . S
C549 C547 1.327 . S
C550 C538 1.349 . S
C550 H544 0.950 . S
C550 C551 1.327 . S
C551 H545 0.950 . S
C551 C550 1.327 . S
C551 C555 1.429 . S
C552 C535 1.574 . S
C552 H546 0.949 . S
C552 C556 1.368 . S
C553 C534 1.429 . S
C553 C547 1.429 . S
C553 C554 1.523 . S
C554 C535 1.368 . S
C554 C548 1.368 . S
C554 C553 1.523 . S
C555 C539 1.429 . S
C555 C551 1.429 . S
C555 C556 1.523 . S
C556 C540 1.368 . S
C556 C552 1.368 . S
C556 C555 1.523 . S
H557 C532 0.950 . S
H558 C534 0.950 . S
H559 C535 0.949 . S
H560 C537 0.950 . S
H561 C539 0.950 . S
C562 C563 1.349 . S
C562 C564 1.327 . S
C562 H587 0.950 . S
C563 C562 1.349 . S
C563 C579 1.349 . S
C564 C562 1.327 . S
C564 C583 1.429 . S
C564 H588 0.950 . S
C565 C582 1.574 . S
C565 C584 1.368 . S
C565 H589 0.949 . S
H566 C570 0.949 . S
C567 C568 1.349 . S
C567 C569 1.327 . S
C567 H590 0.950 . S
C568 C567 1.349 . S
C568 C580 1.349 . S
C569 C567 1.327 . S
C569 C585 1.429 . S
C569 H591 0.950 . S
C570 H566 0.949 . S
C570 C578 1.574 . S
C570 C586 1.368 . S
H571 C579 0.950 . S
H572 C577 0.950 . S
H573 C578 0.949 . S
H574 C580 0.950 . S
H575 C581 0.950 . S
H576 C582 0.949 . S
C577 H572 0.950 . S
C577 C579 1.327 . S
C577 C583 1.429 . S
C578 C570 1.574 . S
C578 H573 0.949 . S
C578 C584 1.368 . S
C579 C563 1.349 . S
C579 H571 0.950 . S
C579 C577 1.327 . S
C580 C568 1.349 . S
C580 H574 0.950 . S
C580 C581 1.327 . S
C581 H575 0.950 . S
C581 C580 1.327 . S
C581 C585 1.429 . S
C582 C565 1.574 . S
C582 H576 0.949 . S
C582 C586 1.368 . S
C583 C564 1.429 . S
C583 C577 1.429 . S
C583 C584 1.523 . S
C584 C565 1.368 . S
C584 C578 1.368 . S
C584 C583 1.523 . S
C585 C569 1.429 . S
C585 C581 1.429 . S
C585 C586 1.523 . S
C586 C570 1.368 . S
C586 C582 1.368 . S
C586 C585 1.523 . S
H587 C562 0.950 . S
H588 C564 0.950 . S
H589 C565 0.949 . S
H590 C567 0.950 . S
H591 C569 0.950 . S
C113 C4 0.320 . S
C118 C32 0.320 . S
C143 C18 0.320 . S
C148 C46 0.320 . S
C173 C60 0.320 . S
C178 C88 0.320 . S
C203 C74 0.320 . S
C208 C102 0.320 . S
C233 C12 1.492 . S
C238 C82 1.492 . S
C263 C26 1.493 . S
C268 C96 1.493 . S
C293 C110 1.492 . S
C298 C40 1.492 . S
C323 C54 1.493 . S
C328 C68 1.493 . S
C353 C61 1.398 . S
C358 C11 1.440 . S
C383 C25 1.440 . S
C388 C75 1.398 1_565 S
C413 C39 1.440 . S
C418 C89 1.398 . S
C443 C53 1.440 . S
C448 C103 1.398 1_545 S
C473 C5 1.398 1_655 S
C478 C67 1.440 . S
C503 C81 1.440 . S
C508 C19 1.398 . S
C533 C95 1.440 . S
C538 C33 1.398 1_455 S
C563 C47 1.398 . S
C568 C109 1.440 . S
