# Generated by pormake.
# Topology fng, (5)-cn, num edge types: 1
# Building blocks:
#     Node 0, Type 0, BuildingBlock: BEQFEK_clean_sbu_0, # of connection points: 5
#     Node 1, Type 0, BuildingBlock: BEQFEK_clean_sbu_0, # of connection points: 5
#     Node 2, Type 0, BuildingBlock: BEQFEK_clean_sbu_0, # of connection points: 5
#     Node 3, Type 0, BuildingBlock: BEQFEK_clean_sbu_0, # of connection points: 5
#     Node 4, Type 0, BuildingBlock: BEQFEK_clean_sbu_0, # of connection points: 5
#     Node 5, Type 0, BuildingBlock: BEQFEK_clean_sbu_0, # of connection points: 5
#     Node 6, Type 0, BuildingBlock: BEQFEK_clean_sbu_0, # of connection points: 5
#     Node 7, Type 0, BuildingBlock: BEQFEK_clean_sbu_0, # of connection points: 5
#     Node 8, Type 0, BuildingBlock: BEQFEK_clean_sbu_0, # of connection points: 5
#     Node 9, Type 0, BuildingBlock: BEQFEK_clean_sbu_0, # of connection points: 5
#     Node 10, Type 0, BuildingBlock: BEQFEK_clean_sbu_0, # of connection points: 5
#     Node 11, Type 0, BuildingBlock: BEQFEK_clean_sbu_0, # of connection points: 5
#     Node 12, Type 0, BuildingBlock: BEQFEK_clean_sbu_0, # of connection points: 5
#     Node 13, Type 0, BuildingBlock: BEQFEK_clean_sbu_0, # of connection points: 5
#     Node 14, Type 0, BuildingBlock: BEQFEK_clean_sbu_0, # of connection points: 5
#     Node 15, Type 0, BuildingBlock: BEQFEK_clean_sbu_0, # of connection points: 5
#     Node 16, Type 0, BuildingBlock: BEQFEK_clean_sbu_0, # of connection points: 5
#     Node 17, Type 0, BuildingBlock: BEQFEK_clean_sbu_0, # of connection points: 5
#     Edge 18, Type (0, 0), BuildingBlock: KIFKEQ_clean_linker_1, # of connection points: 2
#     Edge 19, Type (0, 0), BuildingBlock: KIFKEQ_clean_linker_1, # of connection points: 2
#     Edge 20, Type (0, 0), BuildingBlock: KIFKEQ_clean_linker_1, # of connection points: 2
#     Edge 21, Type (0, 0), BuildingBlock: KIFKEQ_clean_linker_1, # of connection points: 2
#     Edge 22, Type (0, 0), BuildingBlock: KIFKEQ_clean_linker_1, # of connection points: 2
#     Edge 23, Type (0, 0), BuildingBlock: KIFKEQ_clean_linker_1, # of connection points: 2
#     Edge 24, Type (0, 0), BuildingBlock: KIFKEQ_clean_linker_1, # of connection points: 2
#     Edge 25, Type (0, 0), BuildingBlock: KIFKEQ_clean_linker_1, # of connection points: 2
#     Edge 26, Type (0, 0), BuildingBlock: KIFKEQ_clean_linker_1, # of connection points: 2
#     Edge 27, Type (0, 0), BuildingBlock: KIFKEQ_clean_linker_1, # of connection points: 2
#     Edge 28, Type (0, 0), BuildingBlock: KIFKEQ_clean_linker_1, # of connection points: 2
#     Edge 29, Type (0, 0), BuildingBlock: KIFKEQ_clean_linker_1, # of connection points: 2
#     Edge 30, Type (0, 0), BuildingBlock: KIFKEQ_clean_linker_1, # of connection points: 2
#     Edge 31, Type (0, 0), BuildingBlock: KIFKEQ_clean_linker_1, # of connection points: 2
#     Edge 32, Type (0, 0), BuildingBlock: KIFKEQ_clean_linker_1, # of connection points: 2
#     Edge 33, Type (0, 0), BuildingBlock: KIFKEQ_clean_linker_1, # of connection points: 2
#     Edge 34, Type (0, 0), BuildingBlock: KIFKEQ_clean_linker_1, # of connection points: 2
#     Edge 35, Type (0, 0), BuildingBlock: KIFKEQ_clean_linker_1, # of connection points: 2
#     Edge 36, Type (0, 0), BuildingBlock: KIFKEQ_clean_linker_1, # of connection points: 2
#     Edge 37, Type (0, 0), BuildingBlock: KIFKEQ_clean_linker_1, # of connection points: 2
#     Edge 38, Type (0, 0), BuildingBlock: KIFKEQ_clean_linker_1, # of connection points: 2
#     Edge 39, Type (0, 0), BuildingBlock: KIFKEQ_clean_linker_1, # of connection points: 2
#     Edge 40, Type (0, 0), BuildingBlock: KIFKEQ_clean_linker_1, # of connection points: 2
#     Edge 41, Type (0, 0), BuildingBlock: KIFKEQ_clean_linker_1, # of connection points: 2
#     Edge 42, Type (0, 0), BuildingBlock: KIFKEQ_clean_linker_1, # of connection points: 2
#     Edge 43, Type (0, 0), BuildingBlock: KIFKEQ_clean_linker_1, # of connection points: 2
#     Edge 44, Type (0, 0), BuildingBlock: KIFKEQ_clean_linker_1, # of connection points: 2
#     Edge 45, Type (0, 0), BuildingBlock: KIFKEQ_clean_linker_1, # of connection points: 2
#     Edge 46, Type (0, 0), BuildingBlock: KIFKEQ_clean_linker_1, # of connection points: 2
#     Edge 47, Type (0, 0), BuildingBlock: KIFKEQ_clean_linker_1, # of connection points: 2
#     Edge 48, Type (0, 0), BuildingBlock: KIFKEQ_clean_linker_1, # of connection points: 2
#     Edge 49, Type (0, 0), BuildingBlock: KIFKEQ_clean_linker_1, # of connection points: 2
#     Edge 50, Type (0, 0), BuildingBlock: KIFKEQ_clean_linker_1, # of connection points: 2
#     Edge 51, Type (0, 0), BuildingBlock: KIFKEQ_clean_linker_1, # of connection points: 2
#     Edge 52, Type (0, 0), BuildingBlock: KIFKEQ_clean_linker_1, # of connection points: 2
#     Edge 53, Type (0, 0), BuildingBlock: KIFKEQ_clean_linker_1, # of connection points: 2
#     Edge 54, Type (0, 0), BuildingBlock: KIFKEQ_clean_linker_1, # of connection points: 2
#     Edge 55, Type (0, 0), BuildingBlock: KIFKEQ_clean_linker_1, # of connection points: 2
#     Edge 56, Type (0, 0), BuildingBlock: KIFKEQ_clean_linker_1, # of connection points: 2
#     Edge 57, Type (0, 0), BuildingBlock: KIFKEQ_clean_linker_1, # of connection points: 2
#     Edge 58, Type (0, 0), BuildingBlock: KIFKEQ_clean_linker_1, # of connection points: 2
#     Edge 59, Type (0, 0), BuildingBlock: KIFKEQ_clean_linker_1, # of connection points: 2
#     Edge 60, Type (0, 0), BuildingBlock: KIFKEQ_clean_linker_1, # of connection points: 2
#     Edge 61, Type (0, 0), BuildingBlock: KIFKEQ_clean_linker_1, # of connection points: 2
#     Edge 62, Type (0, 0), BuildingBlock: KIFKEQ_clean_linker_1, # of connection points: 2
# Relax obj value: 0.328
# Max RMSD: 0.245
# Mean RMSD: 0.245
data_MOF--net-fng--node1-BEQFEK_clean_sbu_0--edge1-KIFKEQ_clean_linker_1
_symmetry_space_group_name_H-M    P1
_symmetry_Int_Tables_number       1
_symmetry_cell_setting            triclinic
loop_
_symmetry_equiv_pos_as_xyz
'x, y, z'
_cell_length_a     77.643473
_cell_length_b     77.647547
_cell_length_c     18.460621
_cell_angle_alpha  89.991916
_cell_angle_beta   90.002719
_cell_angle_gamma 120.00847
loop_
_atom_site_label
_atom_site_type_symbol
_atom_site_fract_x
_atom_site_fract_y
_atom_site_fract_z
_atom_type_partial_charge
Co0 Co 0.11265 0.22767 0.02389 0.0
Co1 Co 0.10249 0.20728 0.17531 0.0
C2 C 0.07065 0.19959 0.06748 0.0
O3 O 0.08358 0.21112 0.02216 0.0
O4 O 0.07575 0.1968 0.12999 0.0
C5 C 0.10768 0.24599 0.89937 0.0
O6 O 0.09241 0.24443 0.9357 0.0
C7 C 0.08866 0.20329 0.32434 0.0
C8 C 0.10654 0.19213 0.37835 0.0
C9 C 0.0938 0.19944 0.3921 0.0
N10 N 0.09864 0.1993 0.27382 0.0
N11 N 0.10882 0.19206 0.30622 0.0
C12 C 0.07455 0.21058 0.30686 0.0
H13 H 0.08298 0.22658 0.29254 0.0
H14 H 0.06452 0.20832 0.35316 0.0
H15 H 0.06546 0.2025 0.25903 0.0
C16 C 0.1326 0.26415 0.11373 0.0
N17 N 0.12154 0.24428 0.10606 0.0
N18 N 0.11849 0.23575 0.17007 0.0
C19 C 0.12838 0.25002 0.22027 0.0
C20 C 0.13735 0.26843 0.18636 0.0
C21 C 0.13936 0.27853 0.05199 0.0
H22 H 0.1473 0.2744 0.01184 0.0
H23 H 0.12616 0.27751 0.02455 0.0
H24 H 0.1493 0.29404 0.07048 0.0
O25 O 0.12461 0.21031 0.02156 0.0
O26 O 0.11676 0.19514 0.12827 0.0
H27 H 0.13122 0.23277 0.30543 0.0
H28 H 0.14284 0.25886 0.32526 0.0
C29 C 0.12988 0.24622 0.29895 0.0
H30 H 0.11643 0.24407 0.3275 0.0
H31 H 0.11833 0.18831 0.27948 0.0
O32 O 0.11991 0.24224 0.93153 0.0
C33 C 0.12498 0.19802 0.06636 0.0
Co34 Co 0.77024 0.88467 0.02988 0.0
Co35 Co 0.79029 0.89508 0.18189 0.0
C36 C 0.79803 0.87065 0.07493 0.0
O37 O 0.78638 0.87181 0.02955 0.0
O38 O 0.80102 0.87891 0.13683 0.0
C39 C 0.75185 0.86128 0.90552 0.0
O40 O 0.7533 0.84753 0.94206 0.0
C41 C 0.7945 0.88536 0.33089 0.0
C42 C 0.80501 0.91429 0.38504 0.0
C43 C 0.79817 0.89432 0.39866 0.0
N44 N 0.79815 0.89926 0.28046 0.0
N45 N 0.805 0.91662 0.31293 0.0
C46 C 0.78772 0.86407 0.31335 0.0
H47 H 0.77179 0.85623 0.29793 0.0
H48 H 0.78997 0.85638 0.35994 0.0
H49 H 0.79617 0.86335 0.26617 0.0
C50 C 0.73358 0.86828 0.11889 0.0
N51 N 0.75348 0.87717 0.11171 0.0
N52 N 0.76186 0.88248 0.17601 0.0
C53 C 0.74747 0.87788 0.22592 0.0
C54 C 0.72913 0.86851 0.19149 0.0
C55 C 0.71931 0.86064 0.0568 0.0
H56 H 0.72363 0.87266 0.01622 0.0
H57 H 0.72024 0.84833 0.03009 0.0
H58 H 0.7038 0.85524 0.0748 0.0
O59 O 0.78813 0.91392 0.0265 0.0
O60 O 0.80215 0.92153 0.13544 0.0
H61 H 0.76427 0.89771 0.31227 0.0
H62 H 0.73822 0.88248 0.3318 0.0
C63 C 0.7511 0.88276 0.30494 0.0
H64 H 0.75367 0.87158 0.33229 0.0
H65 H 0.80844 0.92981 0.28625 0.0
O66 O 0.75576 0.87734 0.93738 0.0
C67 C 0.79985 0.92665 0.07231 0.0
Co68 Co 0.11255 0.88533 0.03302 0.0
Co69 Co 0.1014 0.89447 0.1846 0.0
C70 C 0.12734 0.9271 0.082 0.0
O71 O 0.12581 0.91439 0.03544 0.0
O72 O 0.11889 0.92168 0.14358 0.0
C73 C 0.13589 0.89038 0.9074 0.0
O74 O 0.14938 0.90633 0.94134 0.0
C75 C 0.10985 0.90595 0.33598 0.0
C76 C 0.0802 0.88786 0.3853 0.0
C77 C 0.10015 0.89992 0.40197 0.0
N78 N 0.09631 0.89746 0.28298 0.0
N79 N 0.07851 0.88727 0.31273 0.0
C80 C 0.13185 0.91725 0.32337 0.0
H81 H 0.13548 0.91379 0.26909 0.0
H82 H 0.13983 0.91394 0.36607 0.0
H83 H 0.13704 0.9334 0.32565 0.0
C84 C 0.12787 0.86416 0.12162 0.0
N85 N 0.11914 0.87531 0.11462 0.0
N86 N 0.11319 0.87779 0.17858 0.0
C87 C 0.11712 0.86735 0.22789 0.0
C88 C 0.12682 0.8587 0.19363 0.0
C89 C 0.13628 0.85829 0.05979 0.0
H90 H 0.14842 0.87187 0.0341 0.0
H91 H 0.14208 0.8485 0.07773 0.0
H92 H 0.12455 0.85043 0.01836 0.0
O93 O 0.08341 0.87416 0.02744 0.0
O94 O 0.07545 0.88141 0.13399 0.0
H95 H 0.10997 0.8515 0.33012 0.0
H96 H 0.12322 0.87792 0.33687 0.0
C97 C 0.11145 0.86525 0.30622 0.0
H98 H 0.09711 0.86485 0.31268 0.0
H99 H 0.06544 0.87851 0.28367 0.0
O100 O 0.1201 0.87824 0.94078 0.0
C101 C 0.07053 0.87379 0.07104 0.0
Co102 Co 0.22752 0.11333 0.97041 0.0
Co103 Co 0.20679 0.1028 0.8195 0.0
C104 C 0.19956 0.07121 0.92782 0.0
O105 O 0.21111 0.08426 0.97272 0.0
O106 O 0.19659 0.07613 0.86527 0.0
C107 C 0.24583 0.10858 0.09541 0.0
O108 O 0.24435 0.09329 0.0595 0.0
C109 C 0.20251 0.08885 0.67041 0.0
C110 C 0.19122 0.10669 0.61697 0.0
C111 C 0.19854 0.09399 0.60281 0.0
N112 N 0.19859 0.09881 0.72119 0.0
N113 N 0.19126 0.10896 0.68914 0.0
C114 C 0.20983 0.07474 0.68751 0.0
H115 H 0.22586 0.08317 0.7014 0.0
H116 H 0.20747 0.06469 0.64117 0.0
H117 H 0.20184 0.06568 0.73551 0.0
C118 C 0.2638 0.13313 0.87942 0.0
N119 N 0.24394 0.12211 0.88774 0.0
N120 N 0.23527 0.11894 0.82396 0.0
C121 C 0.24943 0.12871 0.77327 0.0
C122 C 0.26792 0.13772 0.8066 0.0
C123 C 0.27833 0.13992 0.94069 0.0
H124 H 0.27435 0.14799 0.98087 0.0
H125 H 0.27729 0.12674 0.96831 0.0
H126 H 0.2938 0.14976 0.92168 0.0
O127 O 0.21005 0.12515 0.97293 0.0
O128 O 0.19461 0.117 0.86678 0.0
H129 H 0.23196 0.13129 0.68835 0.0
H130 H 0.25802 0.14298 0.66793 0.0
C131 C 0.24546 0.13003 0.69464 0.0
H132 H 0.24335 0.11656 0.66634 0.0
H133 H 0.18753 0.11846 0.71611 0.0
O134 O 0.2422 0.12081 0.06262 0.0
C135 C 0.19761 0.12534 0.92848 0.0
Co136 Co 0.88463 0.11361 0.9679 0.0
Co137 Co 0.8931 0.1025 0.81515 0.0
C138 C 0.92612 0.12766 0.91814 0.0
O139 O 0.91362 0.12652 0.96493 0.0
O140 O 0.92043 0.1192 0.85668 0.0
C141 C 0.89021 0.13737 0.09258 0.0
O142 O 0.90604 0.15067 0.05754 0.0
C143 C 0.9049 0.11134 0.66426 0.0
C144 C 0.88635 0.082 0.61334 0.0
C145 C 0.89887 0.10195 0.59776 0.0
N146 N 0.89601 0.09765 0.7165 0.0
N147 N 0.88553 0.08001 0.6858 0.0
C148 C 0.91668 0.13327 0.67804 0.0
H149 H 0.91327 0.13685 0.7325 0.0
H150 H 0.91375 0.14164 0.63574 0.0
H151 H 0.93274 0.13806 0.67605 0.0
C152 C 0.86369 0.12961 0.88077 0.0
N153 N 0.87466 0.12066 0.88691 0.0
N154 N 0.87708 0.11492 0.82244 0.0
C155 C 0.86681 0.11923 0.77368 0.0
C156 C 0.85829 0.12892 0.80881 0.0
C157 C 0.85787 0.13786 0.94327 0.0
H158 H 0.85006 0.12603 0.98443 0.0
H159 H 0.87148 0.14995 0.96899 0.0
H160 H 0.84808 0.14371 0.92598 0.0
O161 O 0.87328 0.08436 0.97311 0.0
O162 O 0.87908 0.07636 0.86389 0.0
H163 H 0.85125 0.11296 0.6709 0.0
H164 H 0.87767 0.12551 0.66513 0.0
C165 C 0.86472 0.11387 0.69505 0.0
H166 H 0.86384 0.09931 0.68784 0.0
H167 H 0.87644 0.0669 0.71414 0.0
O168 O 0.87796 0.12139 0.06047 0.0
C169 C 0.87206 0.07148 0.92762 0.0
Co170 Co 0.88413 0.77075 0.96304 0.0
Co171 Co 0.89454 0.79134 0.81192 0.0
C172 C 0.86995 0.7986 0.91897 0.0
O173 O 0.87136 0.78706 0.96418 0.0
O174 O 0.87799 0.80158 0.85669 0.0
C175 C 0.86095 0.75249 0.08796 0.0
O176 O 0.84719 0.75406 0.05202 0.0
C177 C 0.88516 0.79577 0.66262 0.0
C178 C 0.91422 0.80641 0.6094 0.0
C179 C 0.89427 0.79949 0.5951 0.0
N180 N 0.89895 0.79944 0.71353 0.0
N181 N 0.9164 0.80639 0.6816 0.0
C182 C 0.86381 0.7889 0.67951 0.0
H183 H 0.86294 0.79725 0.72671 0.0
H184 H 0.85597 0.77294 0.69458 0.0
H185 H 0.85622 0.7912 0.63271 0.0
C186 C 0.86801 0.73439 0.87285 0.0
N187 N 0.87674 0.75425 0.88071 0.0
N188 N 0.88219 0.76285 0.81679 0.0
C189 C 0.8778 0.74861 0.76639 0.0
C190 C 0.86845 0.73017 0.80014 0.0
C191 C 0.86041 0.71998 0.9345 0.0
H192 H 0.87244 0.72423 0.97499 0.0
H193 H 0.84809 0.72081 0.96155 0.0
H194 H 0.85506 0.70452 0.91602 0.0
O195 O 0.91335 0.78836 0.96636 0.0
O196 O 0.92085 0.80368 0.85996 0.0
H197 H 0.89771 0.76572 0.68068 0.0
H198 H 0.8826 0.73973 0.6601 0.0
C199 C 0.88278 0.75248 0.68751 0.0
H200 H 0.87159 0.75506 0.66031 0.0
H201 H 0.92954 0.80985 0.70871 0.0
O202 O 0.87683 0.75613 0.05532 0.0
C203 C 0.92607 0.80081 0.92213 0.0
Co204 Co 0.77934 0.56048 0.36203 0.0
Co205 Co 0.76987 0.54021 0.51373 0.0
C206 C 0.73747 0.53301 0.40934 0.0
O207 O 0.75029 0.54427 0.36322 0.0
O208 O 0.74274 0.53017 0.47153 0.0
C209 C 0.77413 0.57868 0.23674 0.0
O210 O 0.75824 0.57619 0.27119 0.0
C211 C 0.75811 0.53708 0.66494 0.0
C212 C 0.77618 0.52557 0.71472 0.0
C213 C 0.76405 0.5334 0.73111 0.0
N214 N 0.76671 0.5321 0.61215 0.0
N215 N 0.77688 0.52451 0.64218 0.0
C216 C 0.74672 0.54767 0.65201 0.0
H217 H 0.75022 0.55479 0.59776 0.0
H218 H 0.74991 0.55894 0.69473 0.0
H219 H 0.73058 0.53665 0.65401 0.0
C220 C 0.79996 0.59703 0.45077 0.0
N221 N 0.78893 0.57713 0.44374 0.0
N222 N 0.78633 0.56872 0.50779 0.0
C223 C 0.79658 0.58312 0.55723 0.0
C224 C 0.80522 0.60147 0.52294 0.0
C225 C 0.80599 0.6113 0.38884 0.0
H226 H 0.81395 0.60743 0.34788 0.0
H227 H 0.79246 0.60984 0.36257 0.0
H228 H 0.81571 0.62689 0.40684 0.0
O229 O 0.79088 0.54281 0.35751 0.0
O230 O 0.7833 0.52756 0.46402 0.0
H231 H 0.79905 0.56566 0.6423 0.0
H232 H 0.81228 0.59188 0.65973 0.0
C233 C 0.7986 0.57958 0.63564 0.0
H234 H 0.78586 0.57862 0.666 0.0
H235 H 0.78572 0.52026 0.61336 0.0
O236 O 0.78637 0.57509 0.26972 0.0
C237 C 0.79117 0.53034 0.40152 0.0
Co238 Co 0.43657 0.21806 0.36219 0.0
Co239 Co 0.45701 0.22862 0.51351 0.0
C240 C 0.46474 0.20431 0.40685 0.0
O241 O 0.45319 0.20561 0.36138 0.0
O242 O 0.46758 0.21233 0.46911 0.0
C243 C 0.41852 0.19471 0.23742 0.0
O244 O 0.42032 0.1811 0.2735 0.0
C245 C 0.46166 0.21944 0.66282 0.0
C246 C 0.47173 0.2484 0.71603 0.0
C247 C 0.46519 0.22852 0.73033 0.0
N248 N 0.46506 0.23315 0.61191 0.0
N249 N 0.47168 0.25055 0.64383 0.0
C250 C 0.4552 0.19818 0.64596 0.0
H251 H 0.46375 0.19752 0.59902 0.0
H252 H 0.43927 0.1901 0.6305 0.0
H253 H 0.45761 0.1907 0.69289 0.0
C254 C 0.40011 0.20146 0.45208 0.0
N255 N 0.41999 0.21044 0.44436 0.0
N256 N 0.42852 0.21593 0.50837 0.0
C257 C 0.41422 0.2113 0.55868 0.0
C258 C 0.3958 0.20177 0.52478 0.0
C259 C 0.38572 0.19371 0.39035 0.0
H260 H 0.38981 0.20574 0.35 0.0
H261 H 0.38681 0.18154 0.36316 0.0
H262 H 0.37021 0.1881 0.40881 0.0
O263 O 0.45383 0.24736 0.35892 0.0
O264 O 0.46904 0.25491 0.46552 0.0
H265 H 0.43101 0.23129 0.64462 0.0
H266 H 0.40506 0.2157 0.66507 0.0
C267 C 0.41798 0.21623 0.63762 0.0
H268 H 0.42088 0.20522 0.66462 0.0
H269 H 0.47488 0.26362 0.61671 0.0
O270 O 0.42198 0.21056 0.26986 0.0
C271 C 0.46612 0.26011 0.40343 0.0
Co272 Co 0.77928 0.21767 0.36073 0.0
Co273 Co 0.76878 0.22818 0.51127 0.0
C274 C 0.79304 0.25978 0.40299 0.0
O275 O 0.79167 0.24672 0.35844 0.0
O276 O 0.78511 0.25489 0.46552 0.0
C277 C 0.80235 0.22277 0.23541 0.0
O278 O 0.81605 0.2382 0.27113 0.0
C279 C 0.77798 0.24224 0.66055 0.0
C280 C 0.74888 0.22372 0.71341 0.0
C281 C 0.7688 0.23684 0.72799 0.0
N282 N 0.76427 0.23203 0.60948 0.0
N283 N 0.7468 0.22148 0.6412 0.0
C284 C 0.79932 0.25682 0.64387 0.0
H285 H 0.80018 0.26587 0.59609 0.0
H286 H 0.80731 0.24879 0.62977 0.0
H287 H 0.80676 0.26687 0.69046 0.0
C288 C 0.79579 0.19805 0.4525 0.0
N289 N 0.78692 0.20903 0.44377 0.0
N290 N 0.7814 0.21228 0.50738 0.0
C291 C 0.78586 0.20265 0.55841 0.0
C292 C 0.79535 0.19359 0.52545 0.0
C293 C 0.80346 0.19112 0.39144 0.0
H294 H 0.79138 0.183 0.35141 0.0
H295 H 0.8156 0.20424 0.36352 0.0
H296 H 0.80907 0.18129 0.41072 0.0
O297 O 0.75 0.20562 0.35767 0.0
O298 O 0.74246 0.21375 0.46339 0.0
H299 H 0.76573 0.19979 0.64332 0.0
H300 H 0.78092 0.18909 0.66504 0.0
C301 C 0.78071 0.20159 0.63711 0.0
H302 H 0.7918 0.21541 0.66432 0.0
H303 H 0.73371 0.21172 0.61398 0.0
O304 O 0.78666 0.21032 0.26855 0.0
C305 C 0.73725 0.20534 0.40174 0.0
Co306 Co 0.89282 0.44542 0.29239 0.0
Co307 Co 0.87245 0.43606 0.14083 0.0
C308 C 0.86533 0.40359 0.24471 0.0
O309 O 0.87663 0.41637 0.29085 0.0
O310 O 0.86242 0.4089 0.18272 0.0
C311 C 0.91094 0.44013 0.41787 0.0
O312 O 0.90837 0.42419 0.38362 0.0
C313 C 0.8692 0.42431 0.98958 0.0
C314 C 0.85783 0.44253 0.94001 0.0
C315 C 0.86557 0.43032 0.92348 0.0
N316 N 0.8643 0.43295 0.04246 0.0
N317 N 0.85679 0.44321 0.01257 0.0
C318 C 0.87971 0.41283 0.00236 0.0
H319 H 0.88687 0.41633 0.05652 0.0
H320 H 0.89092 0.41594 0.9595 0.0
H321 H 0.86862 0.39671 0.00053 0.0
C322 C 0.92932 0.46619 0.20342 0.0
N323 N 0.90943 0.45509 0.21058 0.0
N324 N 0.90097 0.4525 0.14661 0.0
C325 C 0.91533 0.46279 0.0971 0.0
C326 C 0.93371 0.47149 0.13125 0.0
C327 C 0.94362 0.47227 0.26528 0.0
H328 H 0.93969 0.48017 0.30634 0.0
H329 H 0.94224 0.45877 0.29145 0.0
H330 H 0.95919 0.48207 0.24724 0.0
O331 O 0.87518 0.45697 0.29731 0.0
O332 O 0.85987 0.4495 0.1909 0.0
H333 H 0.89784 0.46529 0.01222 0.0
H334 H 0.92402 0.47833 0.99415 0.0
C335 C 0.91171 0.46473 0.01868 0.0
H336 H 0.91061 0.45191 0.98854 0.0
H337 H 0.85261 0.4521 0.04148 0.0
O338 O 0.90746 0.45241 0.38469 0.0
C339 C 0.8627 0.45734 0.2535 0.0
Co340 Co 0.55151 0.44713 0.29966 0.0
Co341 Co 0.56117 0.43623 0.14836 0.0
C342 C 0.59341 0.46111 0.25366 0.0
O343 O 0.58054 0.45965 0.29936 0.0
O344 O 0.58823 0.45309 0.19133 0.0
C345 C 0.55687 0.4705 0.42515 0.0
O346 O 0.57284 0.48382 0.39082 0.0
C347 C 0.57316 0.44479 -0.00284 0.0
C348 C 0.55506 0.41518 0.94763 0.0
C349 C 0.56723 0.43512 0.93104 0.0
N350 N 0.56448 0.43124 0.05006 0.0
N351 N 0.5543 0.41346 0.02019 0.0
C352 C 0.58461 0.46677 0.00988 0.0
H353 H 0.58111 0.47044 0.06403 0.0
H354 H 0.58148 0.47485 0.96698 0.0
H355 H 0.60073 0.47183 0.00802 0.0
C356 C 0.53119 0.46321 0.20981 0.0
N357 N 0.54224 0.45438 0.21741 0.0
N358 N 0.54492 0.44852 0.15358 0.0
C359 C 0.53473 0.45261 0.10373 0.0
C360 C 0.52601 0.46231 0.13749 0.0
C361 C 0.52492 0.47132 0.27143 0.0
H362 H 0.53834 0.48331 0.29849 0.0
H363 H 0.51528 0.47725 0.25294 0.0
H364 H 0.51677 0.45939 0.31192 0.0
O365 O 0.53958 0.41787 0.30397 0.0
O366 O 0.54733 0.41014 0.1979 0.0
H367 H 0.51917 0.44556 0.00079 0.0
H368 H 0.54558 0.4586 0.9951 0.0
C369 C 0.53277 0.44691 0.02546 0.0
H370 H 0.53224 0.43249 0.0194 0.0
H371 H 0.54541 0.40039 0.04908 0.0
O372 O 0.54447 0.4548 0.39187 0.0
C373 C 0.53922 0.40505 0.26006 0.0
Co374 Co 0.55016 0.10363 0.2993 0.0
Co375 Co 0.5609 0.12408 0.148 0.0
C376 C 0.53662 0.13194 0.25453 0.0
O377 O 0.53781 0.12033 0.30004 0.0
O378 O 0.5447 0.13477 0.19237 0.0
C379 C 0.52675 0.08561 0.42405 0.0
O380 O 0.51319 0.0875 0.38803 0.0
C381 C 0.55164 0.12859 -0.00129 0.0
C382 C 0.58061 0.13877 0.94533 0.0
C383 C 0.5607 0.13213 0.93115 0.0
N384 N 0.5654 0.13209 0.04955 0.0
N385 N 0.5828 0.13877 0.01752 0.0
C386 C 0.53036 0.12203 0.0157 0.0
H387 H 0.52234 0.10608 0.03093 0.0
H388 H 0.52285 0.12444 0.9689 0.0
H389 H 0.52966 0.1305 0.06281 0.0
C390 C 0.5334 0.06718 0.20948 0.0
N391 N 0.54249 0.08706 0.21716 0.0
N392 N 0.54809 0.09558 0.15317 0.0
C393 C 0.54345 0.08126 0.10293 0.0
C394 C 0.53377 0.06285 0.13685 0.0
C395 C 0.52551 0.0528 0.27121 0.0
H396 H 0.5375 0.05678 0.31164 0.0
H397 H 0.51341 0.05402 0.2983 0.0
H398 H 0.51978 0.03727 0.25279 0.0
O399 O 0.57947 0.12079 0.30264 0.0
O400 O 0.58719 0.13599 0.19602 0.0
H401 H 0.5482 0.0721 -0.00287 0.0
H402 H 0.53753 0.08775 0.99646 0.0
C403 C 0.54855 0.085 0.02411 0.0
H404 H 0.56358 0.09808 0.01734 0.0
H405 H 0.5959 0.14205 0.04458 0.0
O406 O 0.54259 0.08903 0.39159 0.0
C407 C 0.5923 0.13302 0.25821 0.0
Co408 Co 0.44487 0.89363 0.69645 0.0
Co409 Co 0.435 0.87301 0.84751 0.0
C410 C 0.40296 0.86537 0.74086 0.0
O411 O 0.41582 0.877 0.69557 0.0
O412 O 0.40813 0.86245 0.80303 0.0
C413 C 0.43954 0.9116 0.57146 0.0
O414 O 0.42408 0.90973 0.60729 0.0
C415 C 0.42117 0.86826 -0.00313 0.0
C416 C 0.44008 0.85819 0.0499 0.0
C417 C 0.42674 0.86472 0.06434 0.0
N418 N 0.43148 0.86489 0.94587 0.0
N419 N 0.44227 0.85827 0.97768 0.0
C420 C 0.40636 0.87471 0.98014 0.0
H421 H 0.39718 0.86622 0.93304 0.0
H422 H 0.4142 0.89066 0.96497 0.0
H423 H 0.39644 0.87223 0.02703 0.0
C424 C 0.46464 0.92999 0.78675 0.0
N425 N 0.45378 0.91011 0.77881 0.0
N426 N 0.45076 0.90153 0.84271 0.0
C427 C 0.46041 0.91579 0.89316 0.0
C428 C 0.46925 0.93423 0.85947 0.0
C429 C 0.47124 0.94442 0.72517 0.0
H430 H 0.47924 0.94041 0.68478 0.0
H431 H 0.45797 0.94329 0.69795 0.0
H432 H 0.48109 0.95993 0.74377 0.0
O433 O 0.45695 0.87643 0.69291 0.0
O434 O 0.44934 0.86109 0.79926 0.0
H435 H 0.46364 0.89894 0.9788 0.0
H436 H 0.47402 0.92487 -0.0005 0.0
C437 C 0.4616 0.91197 0.97203 0.0
H438 H 0.44772 0.90906 -0.00083 0.0
H439 H 0.45214 0.85508 0.95048 0.0
O440 O 0.45198 0.90828 0.60421 0.0
C441 C 0.45747 0.86412 0.73713 0.0
Co442 Co 0.10306 0.55002 0.69122 0.0
Co443 Co 0.1233 0.56085 0.84298 0.0
C444 C 0.13073 0.53586 0.73856 0.0
O445 O 0.11944 0.53735 0.69239 0.0
O446 O 0.13349 0.54392 0.80077 0.0
C447 C 0.08495 0.52655 0.56597 0.0
O448 O 0.08754 0.51321 0.60048 0.0
C449 C 0.12653 0.55226 0.99416 0.0
C450 C 0.13787 0.58181 0.04395 0.0
C451 C 0.13016 0.56187 0.06033 0.0
N452 N 0.13142 0.56583 0.94138 0.0
N453 N 0.13891 0.58359 0.97141 0.0
C454 C 0.11606 0.53028 0.98122 0.0
H455 H 0.10894 0.52663 0.927 0.0
H456 H 0.10483 0.52214 0.02398 0.0
H457 H 0.12717 0.52528 0.98313 0.0
C458 C 0.06649 0.53414 0.7799 0.0
N459 N 0.08638 0.54288 0.77294 0.0
N460 N 0.0948 0.54867 0.83701 0.0
C461 C 0.0804 0.54458 0.88642 0.0
C462 C 0.06206 0.53499 0.85206 0.0
C463 C 0.05224 0.52611 0.71785 0.0
H464 H 0.05626 0.53804 0.67715 0.0
H465 H 0.05358 0.51401 0.69127 0.0
H466 H 0.03666 0.52035 0.73577 0.0
O467 O 0.12055 0.57926 0.68679 0.0
O468 O 0.13577 0.58693 0.79335 0.0
H469 H 0.09783 0.56456 0.97141 0.0
H470 H 0.07164 0.55132 0.98943 0.0
C471 C 0.08399 0.55011 0.96486 0.0
H472 H 0.08514 0.5384 0.99493 0.0
H473 H 0.14308 0.59666 0.9426 0.0
O474 O 0.08845 0.54235 0.59889 0.0
C475 C 0.13295 0.59204 0.73094 0.0
Co476 Co 0.44681 0.55238 0.69575 0.0
Co477 Co 0.43565 0.56102 0.84824 0.0
C478 C 0.46097 0.59392 0.74502 0.0
O479 O 0.45983 0.58137 0.69851 0.0
O480 O 0.45246 0.58831 0.80645 0.0
C481 C 0.47046 0.55781 0.57084 0.0
O482 O 0.48382 0.57365 0.60564 0.0
C483 C 0.44441 0.57285 -0.00078 0.0
C484 C 0.415 0.5544 0.0498 0.0
C485 C 0.43495 0.56683 0.06562 0.0
N486 N 0.43076 0.56401 0.94682 0.0
N487 N 0.41308 0.55359 0.9773 0.0
C488 C 0.46636 0.58455 0.9857 0.0
H489 H 0.46996 0.58111 0.93134 0.0
H490 H 0.47466 0.58158 0.02817 0.0
H491 H 0.47121 0.60063 0.98759 0.0
C492 C 0.46248 0.53125 0.78341 0.0
N493 N 0.45368 0.54236 0.77702 0.0
N494 N 0.44795 0.54487 0.84136 0.0
C495 C 0.45212 0.53453 0.89033 0.0
C496 C 0.46171 0.52586 0.85544 0.0
C497 C 0.47064 0.52527 0.72105 0.0
H498 H 0.45881 0.51756 0.67984 0.0
H499 H 0.48283 0.53881 0.69532 0.0
H500 H 0.47632 0.51535 0.73847 0.0
O501 O 0.41762 0.54122 0.69026 0.0
O502 O 0.40954 0.5471 0.79925 0.0
H503 H 0.43224 0.53177 0.97599 0.0
H504 H 0.44579 0.51912 0.99351 0.0
C505 C 0.44676 0.53257 0.96895 0.0
H506 H 0.45843 0.54554 -0.00132 0.0
H507 H 0.39998 0.54455 0.94883 0.0
O508 O 0.45452 0.54559 0.60327 0.0
C509 C 0.40471 0.54009 0.73548 0.0
Co510 Co 0.56036 0.78015 0.63438 0.0
Co511 Co 0.5396 0.76983 0.48352 0.0
C512 C 0.53213 0.7381 0.59151 0.0
O513 O 0.54377 0.7511 0.6364 0.0
O514 O 0.52919 0.74309 0.52902 0.0
C515 C 0.57848 0.77511 0.75939 0.0
O516 O 0.57679 0.75973 0.72354 0.0
C517 C 0.53507 0.75591 0.33429 0.0
C518 C 0.52429 0.77421 0.28109 0.0
C519 C 0.53128 0.76124 0.26676 0.0
N520 N 0.53138 0.76602 0.3852 0.0
N521 N 0.52435 0.77644 0.35328 0.0
C522 C 0.54202 0.7415 0.3512 0.0
H523 H 0.53389 0.73243 0.39902 0.0
H524 H 0.55805 0.74968 0.3653 0.0
H525 H 0.53953 0.73146 0.30471 0.0
C526 C 0.59664 0.79979 0.5434 0.0
N527 N 0.57677 0.78889 0.5517 0.0
N528 N 0.5681 0.78577 0.48793 0.0
C529 C 0.58229 0.79545 0.43724 0.0
C530 C 0.60078 0.80436 0.47059 0.0
C531 C 0.61115 0.8065 0.60471 0.0
H532 H 0.60723 0.81461 0.6449 0.0
H533 H 0.61003 0.79328 0.6323 0.0
H534 H 0.62664 0.81628 0.58574 0.0
O535 O 0.54306 0.79212 0.63731 0.0
O536 O 0.52758 0.78415 0.53123 0.0
H537 H 0.59105 0.80949 0.33151 0.0
H538 H 0.57592 0.78311 0.33064 0.0
C539 C 0.57836 0.79674 0.35855 0.0
H540 H 0.56505 0.79832 0.35218 0.0
H541 H 0.52086 0.7861 0.38038 0.0
O542 O 0.57506 0.78748 0.72655 0.0
C543 C 0.53064 0.79244 0.59306 0.0
Co544 Co 0.21688 0.77895 0.63081 0.0
Co545 Co 0.22697 0.76872 0.47928 0.0
C546 C 0.2589 0.79313 0.58609 0.0
O547 O 0.24597 0.79164 0.63158 0.0
O548 O 0.25379 0.78517 0.5237 0.0
C549 C 0.22197 0.80226 0.75544 0.0
O550 O 0.23726 0.81597 0.71916 0.0
C551 C 0.2408 0.77802 0.32998 0.0
C552 C 0.22201 0.74905 0.27666 0.0
C553 C 0.2353 0.76894 0.26245 0.0
N554 N 0.23051 0.76428 0.38083 0.0
N555 N 0.21979 0.74687 0.34885 0.0
C556 C 0.25555 0.79929 0.3469 0.0
H557 H 0.26484 0.79997 0.39361 0.0
H558 H 0.24767 0.8073 0.36278 0.0
H559 H 0.26538 0.80684 0.29988 0.0
C560 C 0.19666 0.79522 0.54146 0.0
N561 N 0.20778 0.78647 0.54886 0.0
N562 N 0.21094 0.78116 0.4847 0.0
C563 C 0.20117 0.78572 0.43456 0.0
C564 C 0.19205 0.79498 0.46879 0.0
C565 C 0.18981 0.80267 0.60346 0.0
H566 H 0.18216 0.7906 0.64388 0.0
H567 H 0.20294 0.81505 0.63043 0.0
H568 H 0.17958 0.80791 0.58535 0.0
O569 O 0.2051 0.7497 0.63379 0.0
O570 O 0.21291 0.74238 0.52706 0.0
H571 H 0.1982 0.766 0.34795 0.0
H572 H 0.18787 0.78163 0.32777 0.0
C573 C 0.2002 0.78103 0.35545 0.0
H574 H 0.21417 0.79213 0.32903 0.0
H575 H 0.20996 0.73378 0.37592 0.0
O576 O 0.20971 0.78631 0.72322 0.0
C577 C 0.20478 0.73705 0.58911 0.0
Co578 Co 0.21835 0.4375 0.62826 0.0
Co579 Co 0.22875 0.4578 0.47659 0.0
C580 C 0.20394 0.46499 0.58379 0.0
O581 O 0.20517 0.45335 0.62894 0.0
O582 O 0.21228 0.46817 0.52198 0.0
C583 C 0.19518 0.41896 0.75293 0.0
O584 O 0.18129 0.42024 0.71676 0.0
C585 C 0.219 0.46197 0.32756 0.0
C586 C 0.24803 0.47294 0.27369 0.0
C587 C 0.22802 0.4658 0.25986 0.0
N588 N 0.23291 0.4658 0.37813 0.0
N589 N 0.25033 0.47294 0.34582 0.0
C590 C 0.19762 0.45486 0.34493 0.0
H591 H 0.1967 0.4631 0.3924 0.0
H592 H 0.18996 0.43889 0.3598 0.0
H593 H 0.18989 0.45709 0.29842 0.0
C594 C 0.2023 0.40101 0.53845 0.0
N595 N 0.21109 0.42088 0.54606 0.0
N596 N 0.21646 0.42938 0.48196 0.0
C597 C 0.21202 0.4151 0.43176 0.0
C598 C 0.20267 0.3967 0.46578 0.0
C599 C 0.19455 0.38663 0.60019 0.0
H600 H 0.18218 0.3875 0.62669 0.0
H601 H 0.1892 0.37115 0.58187 0.0
H602 H 0.20649 0.39088 0.64105 0.0
O603 O 0.24753 0.45569 0.63195 0.0
O604 O 0.25518 0.4699 0.5233 0.0
H605 H 0.21709 0.40617 0.32603 0.0
H606 H 0.20565 0.42113 0.32525 0.0
C607 C 0.217 0.41887 0.35285 0.0
H608 H 0.23181 0.43224 0.34581 0.0
H609 H 0.26356 0.47656 0.37261 0.0
O610 O 0.2112 0.42293 0.7206 0.0
C611 C 0.26026 0.46759 0.58649 0.0
H612 H 0.09312 0.1828 0.52153 0.0
H613 H 0.0912 0.23272 0.42647 0.0
H614 H 0.09691 0.19764 0.64119 0.0
H615 H 0.09412 0.24696 0.54654 0.0
H616 H 0.13456 0.24461 0.80808 0.0
H617 H 0.1289 0.234 0.68205 0.0
H618 H 0.07388 0.23502 0.68223 0.0
H619 H 0.0792 0.24535 0.8095 0.0
C620 C 0.09291 0.1966 0.52624 0.0
C621 C 0.09155 0.20636 0.46431 0.0
C622 C 0.09518 0.20512 0.59454 0.0
C623 C 0.09597 0.22347 0.60236 0.0
C624 C 0.09344 0.23273 0.54147 0.0
C625 C 0.09147 0.22435 0.47275 0.0
C626 C 0.12146 0.24306 0.7811 0.0
C627 C 0.10712 0.24543 0.81933 0.0
C628 C 0.11821 0.23687 0.70912 0.0
C629 C 0.10076 0.2333 0.67365 0.0
C630 C 0.08736 0.23756 0.7091 0.0
C631 C 0.09048 0.24354 0.78171 0.0
H632 H 0.81471 0.91032 0.5281 0.0
H633 H 0.76522 0.85817 0.43267 0.0
H634 H 0.79988 0.89906 0.64769 0.0
H635 H 0.751 0.84666 0.55269 0.0
H636 H 0.75263 0.88918 0.8139 0.0
H637 H 0.76322 0.89417 0.68782 0.0
H638 H 0.76317 0.83861 0.68876 0.0
H639 H 0.75287 0.83357 0.81607 0.0
C640 C 0.80102 0.89619 0.53273 0.0
C641 C 0.79137 0.88506 0.47075 0.0
C642 C 0.79252 0.88983 0.60098 0.0
C643 C 0.77428 0.87213 0.60865 0.0
C644 C 0.76515 0.86031 0.5477 0.0
C645 C 0.77351 0.86683 0.47905 0.0
C646 C 0.75439 0.87774 0.78706 0.0
C647 C 0.75232 0.86118 0.82551 0.0
C648 C 0.76055 0.88069 0.71507 0.0
C649 C 0.76441 0.86698 0.67982 0.0
C650 C 0.76042 0.84942 0.71547 0.0
C651 C 0.75445 0.84655 0.78809 0.0
H652 H 0.16251 0.91834 0.81317 0.0
H653 H 0.10912 0.86068 0.82071 0.0
H654 H 0.15755 0.9204 0.68364 0.0
H655 H 0.1037 0.86308 0.69318 0.0
H656 H 0.09845 0.86716 0.4581 0.0
H657 H 0.11227 0.86392 0.57214 0.0
H658 H 0.13521 0.92649 0.61469 0.0
H659 H 0.12236 0.92977 0.49735 0.0
C660 C 0.14996 0.90591 0.78697 0.0
C661 C 0.13601 0.88949 0.82747 0.0
C662 C 0.14699 0.90721 0.71289 0.0
C663 C 0.13001 0.89213 0.67808 0.0
C664 C 0.11703 0.87498 0.71764 0.0
C665 C 0.12008 0.87362 0.79126 0.0
C666 C 0.10664 0.88022 0.49175 0.0
C667 C 0.10915 0.89864 0.47021 0.0
C668 C 0.11452 0.87839 0.55714 0.0
C669 C 0.12462 0.89486 0.60336 0.0
C670 C 0.12771 0.91351 0.58023 0.0
C671 C 0.12016 0.91541 0.5137 0.0
H672 H 0.23177 0.09134 0.56763 0.0
H673 H 0.18191 0.09359 0.47363 0.0
H674 H 0.24599 0.0945 0.44746 0.0
H675 H 0.19674 0.09761 0.35383 0.0
H676 H 0.24326 0.13499 0.18575 0.0
H677 H 0.23232 0.12917 0.31138 0.0
H678 H 0.23497 0.075 0.31311 0.0
H679 H 0.24564 0.0805 0.18621 0.0
C680 C 0.22341 0.09173 0.52154 0.0
C681 C 0.20543 0.09184 0.53036 0.0
C682 C 0.23178 0.09384 0.45274 0.0
C683 C 0.22255 0.09654 0.39209 0.0
C684 C 0.20421 0.09577 0.40027 0.0
C685 C 0.1957 0.09336 0.46865 0.0
C686 C 0.24198 0.12205 0.21305 0.0
C687 C 0.24495 0.108 0.17544 0.0
C688 C 0.23559 0.11869 0.28481 0.0
C689 C 0.23239 0.10142 0.32074 0.0
C690 C 0.23719 0.08833 0.28591 0.0
C691 C 0.24337 0.09155 0.2135 0.0
H692 H 0.92886 0.12303 0.50149 0.0
H693 H 0.86691 0.10224 0.54356 0.0
H694 H 0.92603 0.13625 0.38427 0.0
H695 H 0.8642 0.11647 0.42964 0.0
H696 H 0.86017 0.11188 0.18091 0.0
H697 H 0.86254 0.10696 0.30894 0.0
H698 H 0.92102 0.15937 0.31482 0.0
H699 H 0.91892 0.16384 0.18492 0.0
C700 C 0.91477 0.12164 0.48585 0.0
C701 C 0.89801 0.11137 0.53005 0.0
C702 C 0.91315 0.1294 0.41939 0.0
C703 C 0.8948 0.12726 0.39708 0.0
C704 C 0.87841 0.11798 0.44411 0.0
C705 C 0.87995 0.10989 0.50943 0.0
C706 C 0.87336 0.12265 0.20968 0.0
C707 C 0.88951 0.138 0.17242 0.0
C708 C 0.87471 0.1199 0.28354 0.0
C709 C 0.89216 0.13258 0.32219 0.0
C710 C 0.90758 0.14905 0.28627 0.0
C711 C 0.90627 0.15175 0.21198 0.0
H712 H 0.88951 0.75416 0.17839 0.0
H713 H 0.83334 0.75327 0.17865 0.0
H714 H 0.89478 0.765 0.30414 0.0
H715 H 0.83867 0.76384 0.30565 0.0
H716 H 0.91063 0.81587 0.46579 0.0
H717 H 0.89957 0.80104 0.34611 0.0
H718 H 0.84683 0.75235 0.44025 0.0
H719 H 0.85815 0.76657 0.56031 0.0
C720 C 0.87802 0.75574 0.20568 0.0
C721 C 0.86119 0.75324 0.16799 0.0
C722 C 0.88114 0.76207 0.2775 0.0
C723 C 0.86734 0.76567 0.31338 0.0
C724 C 0.84957 0.7613 0.27847 0.0
C725 C 0.84652 0.75518 0.20602 0.0
C726 C 0.89648 0.80221 0.46094 0.0
C727 C 0.88518 0.79264 0.52273 0.0
C728 C 0.89024 0.7937 0.39263 0.0
C729 C 0.87248 0.77552 0.38466 0.0
C730 C 0.86053 0.76645 0.44541 0.0
C731 C 0.86694 0.77482 0.51412 0.0
H732 H 0.74585 0.57701 0.14349 0.0
H733 H 0.80373 0.58177 0.14902 0.0
H734 H 0.74355 0.56996 0.01395 0.0
H735 H 0.80111 0.57396 0.02143 0.0
H736 H 0.79668 0.56475 0.78641 0.0
H737 H 0.79994 0.58176 0.90056 0.0
H738 H 0.73759 0.54156 0.94471 0.0
H739 H 0.73425 0.52546 0.82723 0.0
C740 C 0.75827 0.577 0.11684 0.0
C741 C 0.77483 0.57963 0.15678 0.0
C742 C 0.75683 0.57271 0.04276 0.0
C743 C 0.77193 0.57097 0.00737 0.0
C744 C 0.7892 0.57527 0.04637 0.0
C745 C 0.79069 0.57968 0.12001 0.0
C746 C 0.78366 0.55977 0.82037 0.0
C747 C 0.76529 0.5437 0.79924 0.0
C748 C 0.78552 0.56944 0.88585 0.0
C749 C 0.76912 0.56289 0.93257 0.0
C750 C 0.7505 0.54717 0.90985 0.0
C751 C 0.74858 0.53776 0.84323 0.0
H752 H 0.41936 0.22282 0.14668 0.0
H753 H 0.41995 0.16739 0.14704 0.0
H754 H 0.43014 0.22819 0.02084 0.0
H755 H 0.43045 0.17281 0.01995 0.0
H756 H 0.43267 0.19211 0.76498 0.0
H757 H 0.41852 0.18059 0.88502 0.0
H758 H 0.4666 0.23375 0.97931 0.0
H759 H 0.48139 0.24502 0.85966 0.0
C760 C 0.42125 0.2115 0.1195 0.0
C761 C 0.41919 0.19487 0.15739 0.0
C762 C 0.42753 0.21468 0.04763 0.0
C763 C 0.43153 0.20113 0.01191 0.0
C764 C 0.42759 0.18351 0.04701 0.0
C765 C 0.42151 0.18041 0.11951 0.0
C766 C 0.44082 0.20096 0.81121 0.0
C767 C 0.45845 0.21938 0.80267 0.0
C768 C 0.43248 0.19443 0.8799 0.0
C769 C 0.44139 0.20643 0.94067 0.0
C770 C 0.45939 0.22437 0.93276 0.0
C771 C 0.46788 0.23074 0.86448 0.0
H772 H 0.80509 0.24051 0.76366 0.0
H773 H 0.7521 0.23644 0.85705 0.0
H774 H 0.81625 0.23753 0.88386 0.0
H775 H 0.76303 0.2326 0.97688 0.0
H776 H 0.77334 0.19619 0.14552 0.0
H777 H 0.76788 0.20189 0.02013 0.0
H778 H 0.82431 0.25651 0.01759 0.0
H779 H 0.82983 0.25112 0.1442 0.0
C780 C 0.79615 0.23976 0.80964 0.0
C781 C 0.7778 0.23909 0.80061 0.0
C782 C 0.80247 0.23774 0.87846 0.0
C783 C 0.79035 0.23458 0.93896 0.0
C784 C 0.77249 0.23479 0.93059 0.0
C785 C 0.76632 0.23711 0.86217 0.0
C786 C 0.78484 0.20921 0.11808 0.0
C787 C 0.80186 0.2234 0.15539 0.0
C788 C 0.78162 0.21251 0.04646 0.0
C789 C 0.79547 0.22985 0.01034 0.0
C790 C 0.81337 0.24312 0.0449 0.0
C791 C 0.81652 0.23995 0.11715 0.0
H792 H 0.85764 0.40048 0.82762 0.0
H793 H 0.89688 0.46294 0.86782 0.0
H794 H 0.87373 0.40374 0.71017 0.0
H795 H 0.91389 0.46614 0.75372 0.0
H796 H 0.91403 0.46978 0.50526 0.0
H797 H 0.90616 0.46724 0.63279 0.0
H798 H 0.9021 0.40965 0.64098 0.0
H799 H 0.9092 0.41187 0.51149 0.0
C800 C 0.86992 0.4148 0.81148 0.0
C801 C 0.87584 0.43154 0.85529 0.0
C802 C 0.87933 0.41668 0.74487 0.0
C803 C 0.89504 0.43529 0.72199 0.0
C804 C 0.90157 0.45172 0.76853 0.0
C805 C 0.8919 0.4499 0.83398 0.0
C806 C 0.91191 0.45675 0.53442 0.0
C807 C 0.91185 0.44087 0.49785 0.0
C808 C 0.90747 0.45531 0.60803 0.0
C809 C 0.90313 0.43805 0.64721 0.0
C810 C 0.90487 0.42292 0.61203 0.0
C811 C 0.90919 0.42431 0.53797 0.0
H812 H 0.53454 0.43364 0.87537 0.0
H813 H 0.59702 0.45706 0.8349 0.0
H814 H 0.53123 0.44731 0.76113 0.0
H815 H 0.59364 0.46974 0.71727 0.0
H816 H 0.58521 0.49699 0.51855 0.0
H817 H 0.5876 0.4921 0.64792 0.0
H818 H 0.53009 0.43845 0.64026 0.0
H819 H 0.52738 0.44379 0.51286 0.0
C820 C 0.54756 0.44172 0.84146 0.0
C821 C 0.56596 0.44413 0.86277 0.0
C822 C 0.54568 0.44948 0.7759 0.0
C823 C 0.56207 0.45939 0.72922 0.0
C824 C 0.58072 0.46239 0.75207 0.0
C825 C 0.58267 0.45495 0.8188 0.0
C826 C 0.57283 0.4845 0.54513 0.0
C827 C 0.55624 0.4706 0.50517 0.0
C828 C 0.57431 0.48156 0.61912 0.0
C829 C 0.55925 0.46467 0.65442 0.0
C830 C 0.54197 0.45172 0.61541 0.0
C831 C 0.54043 0.45473 0.54187 0.0
H832 H 0.5548 0.08629 0.51466 0.0
H833 H 0.49946 0.08707 0.51456 0.0
H834 H 0.5602 0.09699 0.64058 0.0
H835 H 0.5049 0.09749 0.64172 0.0
H836 H 0.57712 0.14833 0.80171 0.0
H837 H 0.56579 0.13355 0.6821 0.0
H838 H 0.51273 0.0854 0.77669 0.0
H839 H 0.5243 0.09954 0.89669 0.0
C840 C 0.54351 0.0882 0.54191 0.0
C841 C 0.5269 0.08622 0.50408 0.0
C842 C 0.54669 0.09444 0.61383 0.0
C843 C 0.53318 0.09847 0.64964 0.0
C844 C 0.51558 0.0946 0.61459 0.0
C845 C 0.51247 0.08856 0.54204 0.0
C846 C 0.56285 0.1348 0.79698 0.0
C847 C 0.55153 0.12535 0.85886 0.0
C848 C 0.55645 0.12632 0.72872 0.0
C849 C 0.53851 0.10831 0.72089 0.0
C850 C 0.52656 0.09937 0.78175 0.0
C851 C 0.53312 0.1077 0.85041 0.0
H852 H 0.46675 0.91046 0.48124 0.0
H853 H 0.41088 0.91018 0.48056 0.0
H854 H 0.46137 0.89956 0.35556 0.0
H855 H 0.40583 0.89956 0.35363 0.0
H856 H 0.42274 0.89716 0.09922 0.0
H857 H 0.42536 0.91127 0.21928 0.0
H858 H 0.43069 0.86331 0.31332 0.0
H859 H 0.42719 0.84856 0.19363 0.0
C860 C 0.45359 0.90861 0.45387 0.0
C861 C 0.43905 0.9108 0.49143 0.0
C862 C 0.45048 0.90225 0.38209 0.0
C863 C 0.43298 0.89831 0.34611 0.0
C864 C 0.41935 0.90236 0.38088 0.0
C865 C 0.42232 0.90852 0.4533 0.0
C866 C 0.4235 0.88903 0.14539 0.0
C867 C 0.42436 0.87144 0.13675 0.0
C868 C 0.42531 0.89734 0.2141 0.0
C869 C 0.42846 0.88846 0.27483 0.0
C870 C 0.42848 0.8705 0.26682 0.0
C871 C 0.42637 0.86204 0.19851 0.0
H872 H 0.08167 0.55292 0.47815 0.0
H873 H 0.08677 0.5 0.47283 0.0
H874 H 0.08946 0.55813 0.35054 0.0
H875 H 0.0938 0.50475 0.34326 0.0
H876 H 0.13823 0.54012 0.15648 0.0
H877 H 0.12215 0.52729 0.27395 0.0
H878 H 0.08169 0.54911 0.2297 0.0
H879 H 0.09869 0.56294 0.11558 0.0
C880 C 0.08383 0.54201 0.44918 0.0
C881 C 0.08399 0.52627 0.48601 0.0
C882 C 0.08823 0.54494 0.37553 0.0
C883 C 0.09262 0.53203 0.33658 0.0
C884 C 0.09098 0.51524 0.37203 0.0
C885 C 0.08671 0.51239 0.44613 0.0
C886 C 0.12588 0.54205 0.17246 0.0
C887 C 0.11987 0.55276 0.12845 0.0
C888 C 0.11648 0.53453 0.23907 0.0
C889 C 0.1007 0.53733 0.26177 0.0
C890 C 0.09407 0.5471 0.21502 0.0
C891 C 0.10373 0.55495 0.14955 0.0
H892 H 0.49694 0.58638 0.47811 0.0
H893 H 0.44463 0.52788 0.4828 0.0
H894 H 0.49234 0.58853 0.34834 0.0
H895 H 0.43958 0.53031 0.35494 0.0
H896 H 0.43477 0.53467 0.12021 0.0
H897 H 0.44888 0.53181 0.23415 0.0
H898 H 0.4694 0.59381 0.27905 0.0
H899 H 0.45629 0.59677 0.16178 0.0
C900 C 0.48474 0.57379 0.45122 0.0
C901 C 0.47094 0.55709 0.49096 0.0
C902 C 0.48197 0.57513 0.37701 0.0
C903 C 0.46537 0.5598 0.34132 0.0
C904 C 0.45261 0.54241 0.38014 0.0
C905 C 0.45545 0.54103 0.45392 0.0
C906 C 0.44255 0.54771 0.15426 0.0
C907 C 0.44427 0.56586 0.13346 0.0
C908 C 0.45057 0.54608 0.2196 0.0
C909 C 0.46004 0.56248 0.26649 0.0
C910 C 0.4624 0.58091 0.24403 0.0
C911 C 0.45471 0.58262 0.17755 0.0
H912 H 0.51487 0.7613 0.13757 0.0
H913 H 0.56412 0.75792 0.23153 0.0
H914 H 0.52965 0.76511 0.0178 0.0
H915 H 0.57828 0.76085 0.11137 0.0
H916 H 0.57769 0.74675 0.85027 0.0
H917 H 0.56699 0.74143 0.97713 0.0
H918 H 0.56549 0.7962 0.97525 0.0
H919 H 0.57646 0.80185 0.84964 0.0
C920 C 0.52851 0.76078 0.13259 0.0
C921 C 0.53808 0.759 0.19428 0.0
C922 C 0.53699 0.76307 0.06421 0.0
C923 C 0.55515 0.76345 0.05603 0.0
C924 C 0.5642 0.76049 0.11667 0.0
C925 C 0.55586 0.75851 0.18545 0.0
C926 C 0.57567 0.75797 0.87752 0.0
C927 C 0.57758 0.77455 0.83942 0.0
C928 C 0.56948 0.75485 0.9499 0.0
C929 C 0.56498 0.76817 0.98469 0.0
C930 C 0.56851 0.78554 0.94872 0.0
C931 C 0.57492 0.78881 0.87697 0.0
H932 H 0.23889 0.80522 0.22789 0.0
H933 H 0.23526 0.75257 0.13314 0.0
H934 H 0.23614 0.81666 0.10784 0.0
H935 H 0.23163 0.76376 0.01349 0.0
H936 H 0.19486 0.77415 0.84653 0.0
H937 H 0.2004 0.76895 0.97241 0.0
H938 H 0.25589 0.82456 0.97256 0.0
H939 H 0.25066 0.8298 0.84544 0.0
C940 C 0.23829 0.79642 0.18163 0.0
C941 C 0.23768 0.77809 0.19015 0.0
C942 C 0.23641 0.8029 0.11295 0.0
C943 C 0.23344 0.79094 0.05217 0.0
C944 C 0.23371 0.77311 0.06006 0.0
C945 C 0.23588 0.76678 0.12833 0.0
C946 C 0.20804 0.78555 0.87356 0.0
C947 C 0.22252 0.8022 0.83546 0.0
C948 C 0.21123 0.78248 0.94545 0.0
C949 C 0.22877 0.79614 0.98096 0.0
C950 C 0.24234 0.81377 0.94566 0.0
C951 C 0.23927 0.81677 0.87314 0.0
H952 H 0.22368 0.42071 0.84382 0.0
H953 H 0.1673 0.41938 0.84314 0.0
H954 H 0.22872 0.43147 0.96967 0.0
H955 H 0.17239 0.42985 0.97025 0.0
H956 H 0.19208 0.43261 0.22548 0.0
H957 H 0.18078 0.41834 0.10545 0.0
H958 H 0.23301 0.46754 0.01084 0.0
H959 H 0.24405 0.48241 0.13047 0.0
C960 C 0.2121 0.42217 0.87093 0.0
C961 C 0.19527 0.41959 0.83295 0.0
C962 C 0.21508 0.42844 0.94281 0.0
C963 C 0.20115 0.43189 0.97843 0.0
C964 C 0.18338 0.42742 0.94325 0.0
C965 C 0.18048 0.42135 0.87074 0.0
C966 C 0.20074 0.44095 0.17919 0.0
C967 C 0.21886 0.45892 0.18764 0.0
C968 C 0.19435 0.43255 0.11051 0.0
C969 C 0.20619 0.44176 0.04965 0.0
C970 C 0.22378 0.4601 0.05746 0.0
C971 C 0.23001 0.46863 0.12574 0.0
H972 H 0.16369 0.3685 0.46047 0.0
H973 H 0.22188 0.381 0.39178 0.0
H974 H 0.14851 0.33753 0.39071 0.0
H975 H 0.20685 0.3504 0.32006 0.0
H976 H 0.17263 0.28389 0.25784 0.0
H977 H 0.1888 0.3145 0.32941 0.0
H978 H 0.14328 0.32781 0.2636 0.0
H979 H 0.12691 0.29684 0.19394 0.0
C980 C 0.17318 0.36445 0.43078 0.0
C981 C 0.19385 0.37704 0.43069 0.0
C982 C 0.16454 0.34691 0.39017 0.0
C983 C 0.17645 0.34164 0.3489 0.0
C984 C 0.19725 0.35397 0.35133 0.0
C985 C 0.20586 0.37148 0.39203 0.0
C986 C 0.16623 0.2935 0.25861 0.0
C987 C 0.1485 0.28808 0.22137 0.0
C988 C 0.17549 0.31103 0.29923 0.0
C989 C 0.16719 0.32348 0.30299 0.0
C990 C 0.14981 0.31834 0.26311 0.0
C991 C 0.14057 0.30079 0.22257 0.0
H992 H 0.7135 0.88792 0.26437 0.0
H993 H 0.70074 0.82958 0.19669 0.0
H994 H 0.68278 0.87311 0.3354 0.0
H995 H 0.66966 0.8146 0.26584 0.0
H996 H 0.62892 0.79355 0.46306 0.0
H997 H 0.65984 0.80956 0.39294 0.0
H998 H 0.6469 0.85523 0.32561 0.0
H999 H 0.61635 0.83942 0.39763 0.0
C1000 C 0.7039 0.87191 0.26416 0.0
C1001 C 0.70941 0.8598 0.22603 0.0
C1002 C 0.68631 0.86342 0.30447 0.0
C1003 C 0.67388 0.84265 0.30704 0.0
C1004 C 0.67911 0.83062 0.26625 0.0
C1005 C 0.69672 0.83915 0.22601 0.0
C1006 C 0.63294 0.80717 0.43396 0.0
C1007 C 0.62036 0.81526 0.43495 0.0
C1008 C 0.65045 0.8162 0.39316 0.0
C1009 C 0.65569 0.83352 0.3528 0.0
C1010 C 0.64335 0.84196 0.35618 0.0
C1011 C 0.62586 0.83291 0.39706 0.0
H1012 H 0.15738 0.77542 0.39358 0.0
H1013 H 0.20189 0.83372 0.46607 0.0
H1014 H 0.14124 0.79012 0.32331 0.0
H1015 H 0.18551 0.84855 0.39784 0.0
H1016 H 0.1659 0.87019 0.20254 0.0
H1017 H 0.18105 0.85423 0.27132 0.0
H1018 H 0.12256 0.80728 0.33403 0.0
H1019 H 0.10758 0.82304 0.26314 0.0
C1020 C 0.16351 0.79139 0.39494 0.0
C1021 C 0.18091 0.80354 0.43418 0.0
C1022 C 0.15426 0.79981 0.35511 0.0
C1023 C 0.16223 0.82054 0.35421 0.0
C1024 C 0.17925 0.83257 0.39611 0.0
C1025 C 0.18849 0.82413 0.43581 0.0
C1026 C 0.15638 0.8563 0.23029 0.0
C1027 C 0.13567 0.84784 0.22834 0.0
C1028 C 0.165 0.84729 0.27035 0.0
C1029 C 0.15302 0.82963 0.30908 0.0
C1030 C 0.13221 0.82083 0.30472 0.0
C1031 C 0.12363 0.82985 0.26453 0.0
H1032 H 0.36743 0.16285 0.53065 0.0
H1033 H 0.38029 0.22123 0.59814 0.0
H1034 H 0.33649 0.14791 0.60059 0.0
H1035 H 0.34973 0.20646 0.66999 0.0
H1036 H 0.29608 0.12694 0.79854 0.0
H1037 H 0.32688 0.14293 0.72783 0.0
H1038 H 0.31385 0.18859 0.66124 0.0
H1039 H 0.28342 0.1728 0.73388 0.0
C1040 C 0.36346 0.17243 0.5601 0.0
C1041 C 0.37615 0.19308 0.55984 0.0
C1042 C 0.34593 0.16393 0.60079 0.0
C1043 C 0.34078 0.17598 0.64178 0.0
C1044 C 0.3532 0.19676 0.63893 0.0
C1045 C 0.3707 0.20522 0.59815 0.0
C1046 C 0.30006 0.14056 0.76951 0.0
C1047 C 0.28748 0.14865 0.77087 0.0
C1048 C 0.3175 0.14958 0.72836 0.0
C1049 C 0.32268 0.16689 0.688 0.0
C1050 C 0.31035 0.17533 0.6918 0.0
C1051 C 0.29293 0.1663 0.73304 0.0
H1052 H 0.82255 0.10966 0.74028 0.0
H1053 H 0.86969 0.16803 0.80024 0.0
H1054 H 0.80698 0.12454 0.66796 0.0
H1055 H 0.85387 0.18312 0.73016 0.0
H1056 H 0.83415 0.20369 0.53233 0.0
H1057 H 0.84869 0.18758 0.60384 0.0
H1058 H 0.78985 0.14304 0.67387 0.0
H1059 H 0.77548 0.15886 0.60012 0.0
C1060 C 0.82936 0.12571 0.73867 0.0
C1061 C 0.84733 0.13778 0.77487 0.0
C1062 C 0.82045 0.13425 0.69758 0.0
C1063 C 0.82932 0.15505 0.69242 0.0
C1064 C 0.84689 0.16706 0.73162 0.0
C1065 C 0.85581 0.15848 0.7725 0.0
C1066 C 0.82442 0.19028 0.56225 0.0
C1067 C 0.8038 0.18253 0.56155 0.0
C1068 C 0.83269 0.1812 0.60392 0.0
C1069 C 0.82045 0.16418 0.64557 0.0
C1070 C 0.79971 0.15606 0.64237 0.0
C1071 C 0.79147 0.16512 0.60048 0.0
H1072 H 0.82968 0.70135 0.79556 0.0
H1073 H 0.88815 0.71508 0.72559 0.0
H1074 H 0.81498 0.67027 0.72658 0.0
H1075 H 0.8736 0.6844 0.65451 0.0
H1076 H 0.84079 0.61791 0.59304 0.0
H1077 H 0.85641 0.64861 0.66418 0.0
H1078 H 0.80957 0.66016 0.60022 0.0
H1079 H 0.79372 0.62908 0.53123 0.0
C1080 C 0.83934 0.69756 0.76568 0.0
C1081 C 0.85994 0.71053 0.76501 0.0
C1082 C 0.83097 0.67995 0.72552 0.0
C1083 C 0.8431 0.67499 0.6841 0.0
C1084 C 0.86384 0.68771 0.68591 0.0
C1085 C 0.87217 0.7053 0.7262 0.0
C1086 C 0.83397 0.62714 0.59421 0.0
C1087 C 0.81603 0.62119 0.55764 0.0
C1088 C 0.84292 0.64473 0.63454 0.0
C1089 C 0.83411 0.65673 0.63866 0.0
C1090 C 0.81651 0.65105 0.59948 0.0
C1091 C 0.80757 0.63344 0.55929 0.0
H1092 H 0.96171 0.46049 0.12396 0.0
H1093 H 0.94973 0.50686 0.05995 0.0
H1094 H 0.99268 0.47642 0.05433 0.0
H1095 H 0.98021 0.52248 0.98778 0.0
H1096 H 0.0463 0.55467 0.92262 0.0
H1097 H 0.01578 0.54012 0.99453 0.0
H1098 H 0.00274 0.48135 0.92884 0.0
H1099 H 0.03375 0.49608 0.85946 0.0
C1100 C 0.96586 0.4742 0.09525 0.0
C1101 C 0.95341 0.48243 0.09641 0.0
C1102 C 0.9834 0.48318 0.05463 0.0
C1103 C 0.98878 0.50056 0.01442 0.0
C1104 C 0.97659 0.50916 0.01816 0.0
C1105 C 0.9591 0.5002 0.05907 0.0
C1106 C 0.03679 0.53865 0.9236 0.0
C1107 C 0.04234 0.52641 0.88661 0.0
C1108 C 0.01929 0.53031 0.96436 0.0
C1109 C 0.00692 0.50954 0.96831 0.0
C1110 C 0.01215 0.49737 0.92838 0.0
C1111 C 0.02971 0.50575 0.88791 0.0
H1112 H 0.44227 0.4904 0.92587 0.0
H1113 H 0.5007 0.5367 0.86233 0.0
H1114 H 0.45702 0.47475 -0.00164 0.0
H1115 H 0.51565 0.52073 0.93224 0.0
H1116 H 0.5368 0.50125 0.1285 0.0
H1117 H 0.52072 0.51594 0.05769 0.0
H1118 H 0.47483 0.45708 0.99343 0.0
H1119 H 0.49058 0.44259 0.06684 0.0
C1120 C 0.4583 0.49701 0.92679 0.0
C1121 C 0.47043 0.5148 0.88959 0.0
C1122 C 0.46677 0.48804 0.96792 0.0
C1123 C 0.48756 0.49663 0.97202 0.0
C1124 C 0.49962 0.51398 0.93172 0.0
C1125 C 0.49111 0.52298 0.8909 0.0
C1126 C 0.52309 0.49155 0.10006 0.0
C1127 C 0.51495 0.47089 0.10224 0.0
C1128 C 0.51403 0.49991 0.05874 0.0
C1129 C 0.49665 0.4877 0.01879 0.0
C1130 C 0.48814 0.46693 0.02358 0.0
C1131 C 0.49717 0.45862 0.06522 0.0
H1132 H 0.49477 0.03474 0.13046 0.0
H1133 H 0.55308 0.04704 0.06435 0.0
H1134 H 0.4797 0.00365 0.06143 0.0
H1135 H 0.53818 0.01631 0.99341 0.0
H1136 H 0.50421 0.94977 0.93296 0.0
H1137 H 0.52011 0.98046 0.00408 0.0
H1138 H 0.47475 0.99362 0.93455 0.0
H1139 H 0.45864 0.96255 0.86536 0.0
C1140 C 0.50431 0.03063 0.10146 0.0
C1141 C 0.52498 0.04318 0.10189 0.0
C1142 C 0.49573 0.01301 0.06129 0.0
C1143 C 0.50773 0.00764 0.02104 0.0
C1144 C 0.52852 0.01996 0.02393 0.0
C1145 C 0.53705 0.03755 0.06417 0.0
C1146 C 0.49779 0.95936 0.93286 0.0
C1147 C 0.48018 0.95387 0.89465 0.0
C1148 C 0.50689 0.97693 0.9732 0.0
C1149 C 0.49857 0.98938 0.97571 0.0
C1150 C 0.4813 0.98415 0.935 0.0
C1151 C 0.47221 0.96655 0.89474 0.0
H1152 H 0.13033 0.17183 0.14936 0.0
H1153 H 0.14286 0.19915 0.93732 0.0
H1154 H 0.14733 0.15378 0.11583 0.0
H1155 H 0.16009 0.18132 0.90447 0.0
H1156 H 0.17108 0.13033 0.84615 0.0
H1157 H 0.15306 0.14736 0.87978 0.0
H1158 H 0.18123 0.16078 0.09005 0.0
H1159 H 0.19903 0.14351 0.05711 0.0
C1160 C 0.13672 0.17402 0.09566 0.0
C1161 C 0.13522 0.18696 0.04606 0.0
C1162 C 0.14655 0.16375 0.07662 0.0
C1163 C 0.15506 0.16613 0.00752 0.0
C1164 C 0.15348 0.17898 0.95782 0.0
C1165 C 0.1437 0.1893 0.97688 0.0
C1166 C 0.17341 0.13687 0.89964 0.0
C1167 C 0.18652 0.13555 0.9489 0.0
C1168 C 0.16316 0.14672 0.91873 0.0
C1169 C 0.16574 0.15543 0.98754 0.0
C1170 C 0.17874 0.15401 0.03693 0.0
C1171 C 0.18904 0.14422 0.01782 0.0
H1172 H 0.81504 0.9422 0.94006 0.0
H1173 H 0.80952 0.95867 0.1583 0.0
H1174 H 0.83358 0.97709 0.90578 0.0
H1175 H 0.82655 0.99355 0.12338 0.0
H1176 H 0.87203 0.05613 0.0602 0.0
H1177 H 0.85576 0.02126 0.09503 0.0
H1178 H 0.83166 0.00455 0.8783 0.0
H1179 H 0.84938 0.03936 0.84282 0.0
C1180 C 0.81761 0.95337 0.98041 0.0
C1181 C 0.81092 0.94781 0.05174 0.0
C1182 C 0.82809 0.97342 0.96075 0.0
C1183 C 0.83158 0.9884 0.01146 0.0
C1184 C 0.82466 0.98266 0.08291 0.0
C1185 C 0.81471 0.96262 0.10302 0.0
C1186 C 0.86331 0.04491 0.02017 0.0
C1187 C 0.86199 0.05036 0.94886 0.0
C1188 C 0.8538 0.02487 0.04015 0.0
C1189 C 0.84221 0.00982 0.98978 0.0
C1190 C 0.84078 0.01549 0.91846 0.0
C1191 C 0.8508 0.03549 0.89804 0.0
H1192 H 0.95777 0.82775 0.84132 0.0
H1193 H 0.94243 0.79952 0.05177 0.0
H1194 H 0.99266 0.84627 0.87718 0.0
H1195 H 0.9773 0.81778 0.08688 0.0
H1196 H 0.03852 0.86853 0.15085 0.0
H1197 H 0.00369 0.85172 0.11421 0.0
H1198 H 0.01985 0.83981 0.90393 0.0
H1199 H 0.05469 0.85688 0.93988 0.0
C1200 C 0.96181 0.82546 0.89515 0.0
C1201 C 0.94728 0.81213 0.94363 0.0
C1202 C 0.98183 0.83601 0.91553 0.0
C1203 C 0.98773 0.8335 0.98487 0.0
C1204 C 0.9732 0.82025 0.03342 0.0
C1205 C 0.95321 0.80967 0.01304 0.0
C1206 C 0.03467 0.86241 0.09668 0.0
C1207 C 0.04941 0.86403 0.04839 0.0
C1208 C 0.0147 0.85268 0.07586 0.0
C1209 C 0.00901 0.84439 0.00625 0.0
C1210 C 0.02377 0.84623 0.95766 0.0
C1211 C 0.04374 0.85592 0.97849 0.0
H1212 H 0.85226 0.79633 0.04919 0.0
H1213 H 0.86341 0.82463 0.83916 0.0
H1214 H 0.83513 0.81379 0.08722 0.0
H1215 H 0.84646 0.84239 0.87803 0.0
H1216 H 0.79546 0.85243 0.94582 0.0
H1217 H 0.81285 0.83522 0.90842 0.0
H1218 H 0.84209 0.84747 0.11655 0.0
H1219 H 0.82436 0.86454 0.15489 0.0
C1220 C 0.8511 0.8063 0.01104 0.0
C1221 C 0.85921 0.80905 0.94094 0.0
C1222 C 0.84139 0.81643 0.03319 0.0
C1223 C 0.8395 0.82953 0.98582 0.0
C1224 C 0.84752 0.83224 0.91559 0.0
C1225 C 0.85729 0.82212 0.89338 0.0
C1226 C 0.80556 0.85147 0.98391 0.0
C1227 C 0.8085 0.85989 0.05352 0.0
C1228 C 0.81565 0.84171 0.96209 0.0
C1229 C 0.82892 0.84007 0.0093 0.0
C1230 C 0.83181 0.84836 0.07913 0.0
C1231 C 0.82172 0.85819 0.10101 0.0
H1232 H 0.20159 0.05606 0.05903 0.0
H1233 H 0.17398 0.03846 0.84802 0.0
H1234 H 0.18439 0.02147 0.0974 0.0
H1235 H 0.15651 0.00379 0.88718 0.0
H1236 H 0.13338 0.95941 0.16283 0.0
H1237 H 0.1507 0.99431 0.12552 0.0
H1238 H 0.16419 0.97779 0.91873 0.0
H1239 H 0.14675 0.94311 0.95505 0.0
C1240 C 0.19182 0.04483 0.02075 0.0
C1241 C 0.18919 0.05006 0.95026 0.0
C1242 C 0.18185 0.025 0.04308 0.0
C1243 C 0.16906 0.00989 0.99546 0.0
C1244 C 0.16644 0.01508 0.92492 0.0
C1245 C 0.17639 0.03495 0.90255 0.0
C1246 C 0.1401 0.96325 0.10954 0.0
C1247 C 0.1386 0.94843 0.06197 0.0
C1248 C 0.15007 0.98323 0.08824 0.0
C1249 C 0.1587 0.98878 0.01894 0.0
C1250 C 0.15741 0.97398 0.97193 0.0
C1251 C 0.14751 0.95408 0.99314 0.0
H1252 H 0.94257 0.14668 0.04525 0.0
H1253 H 0.9581 0.13327 0.83607 0.0
H1254 H 0.97733 0.1638 0.08036 0.0
H1255 H 0.9931 0.15027 0.87218 0.0
H1256 H 0.0551 0.20132 0.93676 0.0
H1257 H 0.0204 0.18392 0.89962 0.0
H1258 H 0.00341 0.15615 0.11025 0.0
H1259 H 0.03818 0.17384 0.14818 0.0
C1260 C 0.95339 0.14734 0.00661 0.0
C1261 C 0.9475 0.13855 0.93769 0.0
C1262 C 0.97334 0.15706 0.02713 0.0
C1263 C 0.98796 0.15827 0.97934 0.0
C1264 C 0.98217 0.1497 0.91006 0.0
C1265 C 0.96213 0.1399 0.88944 0.0
C1266 C 0.04399 0.19153 0.97537 0.0
C1267 C 0.04944 0.18903 0.04566 0.0
C1268 C 0.0241 0.18144 0.95374 0.0
C1269 C 0.00916 0.16863 0.00186 0.0
C1270 C 0.01457 0.16609 0.07214 0.0
C1271 C 0.0345 0.17617 0.0938 0.0
H1272 H 0.83599 0.46256 0.17319 0.0
H1273 H 0.86402 0.4747 0.3839 0.0
H1274 H 0.81799 0.47942 0.20926 0.0
H1275 H 0.84626 0.49181 0.41926 0.0
H1276 H 0.79607 0.50347 0.48213 0.0
H1277 H 0.81254 0.48508 0.4462 0.0
H1278 H 0.82527 0.51332 0.23609 0.0
H1279 H 0.80854 0.53147 0.27131 0.0
C1280 C 0.83833 0.46881 0.22716 0.0
C1281 C 0.85148 0.46729 0.27559 0.0
C1282 C 0.82809 0.47857 0.24766 0.0
C1283 C 0.83072 0.48697 0.31707 0.0
C1284 C 0.84372 0.48528 0.3657 0.0
C1285 C 0.854 0.47557 0.3452 0.0
C1286 C 0.80232 0.50573 0.42817 0.0
C1287 C 0.80099 0.51897 0.37965 0.0
C1288 C 0.81185 0.49526 0.40775 0.0
C1289 C 0.82022 0.49776 0.33833 0.0
C1290 C 0.81876 0.51088 0.28965 0.0
C1291 C 0.80927 0.52138 0.31007 0.0
H1292 H 0.52126 0.38878 0.3895 0.0
H1293 H 0.53393 0.37321 0.17912 0.0
H1294 H 0.50383 0.35381 0.42386 0.0
H1295 H 0.51674 0.33826 0.21417 0.0
H1296 H 0.46484 0.27659 0.27394 0.0
H1297 H 0.48275 0.31157 0.23987 0.0
H1298 H 0.51057 0.3268 0.45072 0.0
H1299 H 0.49243 0.29183 0.48547 0.0
C1300 C 0.52042 0.37793 0.35066 0.0
C1301 C 0.52898 0.38382 0.28147 0.0
C1302 C 0.51052 0.35789 0.37058 0.0
C1303 C 0.50891 0.34327 0.32175 0.0
C1304 C 0.51753 0.34915 0.2527 0.0
C1305 C 0.52748 0.3692 0.2328 0.0
C1306 C 0.47477 0.28737 0.31313 0.0
C1307 C 0.47717 0.28138 0.3825 0.0
C1308 C 0.48513 0.30742 0.29338 0.0
C1309 C 0.49809 0.32195 0.34256 0.0
C1310 C 0.50052 0.31598 0.41189 0.0
C1311 C 0.49019 0.29592 0.43163 0.0
H1312 H 0.72082 0.18706 0.27295 0.0
H1313 H 0.70548 0.20019 0.48293 0.0
H1314 H 0.68585 0.16978 0.23873 0.0
H1315 H 0.67051 0.18315 0.44801 0.0
H1316 H 0.60857 0.13164 0.38805 0.0
H1317 H 0.64354 0.14926 0.42243 0.0
H1318 H 0.65915 0.17694 0.2114 0.0
H1319 H 0.6242 0.1591 0.17634 0.0
C1320 C 0.71002 0.18634 0.31177 0.0
C1321 C 0.71598 0.19501 0.38076 0.0
C1322 C 0.68998 0.17653 0.29192 0.0
C1323 C 0.67542 0.17512 0.34062 0.0
C1324 C 0.68136 0.18379 0.40957 0.0
C1325 C 0.70142 0.19366 0.42941 0.0
C1326 C 0.61943 0.14148 0.34889 0.0
C1327 C 0.61356 0.14392 0.27936 0.0
C1328 C 0.63947 0.15167 0.36882 0.0
C1329 C 0.65411 0.1645 0.31967 0.0
C1330 C 0.64825 0.16698 0.25021 0.0
C1331 C 0.6282 0.15683 0.23029 0.0
H1332 H 0.53058 0.15818 0.17389 0.0
H1333 H 0.51863 0.12978 0.38392 0.0
H1334 H 0.51364 0.17606 0.21147 0.0
H1335 H 0.50151 0.14734 0.42061 0.0
H1336 H 0.49081 0.19802 0.48745 0.0
H1337 H 0.50857 0.18098 0.44974 0.0
H1338 H 0.48004 0.1692 0.24034 0.0
H1339 H 0.46259 0.18644 0.27718 0.0
C1340 C 0.52429 0.15568 0.22785 0.0
C1341 C 0.52599 0.14255 0.2758 0.0
C1342 C 0.51452 0.16587 0.2493 0.0
C1343 C 0.50628 0.16315 0.31913 0.0
C1344 C 0.50795 0.14999 0.36688 0.0
C1345 C 0.51766 0.13981 0.3455 0.0
C1346 C 0.48833 0.19179 0.43341 0.0
C1347 C 0.47528 0.19362 0.38544 0.0
C1348 C 0.49844 0.18196 0.41188 0.0
C1349 C 0.49574 0.17378 0.34195 0.0
C1350 C 0.48267 0.17559 0.29416 0.0
C1351 C 0.47256 0.18536 0.31562 0.0
H1352 H 0.81032 0.2748 0.27186 0.0
H1353 H 0.79982 0.2926 0.48166 0.0
H1354 H 0.82762 0.30931 0.23277 0.0
H1355 H 0.81692 0.32722 0.44172 0.0
H1356 H 0.86815 0.38784 0.3732 0.0
H1357 H 0.85063 0.35326 0.4107 0.0
H1358 H 0.82115 0.33635 0.20298 0.0
H1359 H 0.83901 0.37115 0.1645 0.0
C1360 C 0.81165 0.28606 0.30972 0.0
C1361 C 0.8037 0.2809 0.38011 0.0
C1362 C 0.82146 0.30585 0.28695 0.0
C1363 C 0.82361 0.32099 0.334 0.0
C1364 C 0.81568 0.31589 0.40442 0.0
C1365 C 0.80582 0.29605 0.42724 0.0
C1366 C 0.85799 0.3768 0.33517 0.0
C1367 C 0.85499 0.38231 0.26568 0.0
C1368 C 0.84782 0.35696 0.35706 0.0
C1369 C 0.83439 0.34208 0.31009 0.0
C1370 C 0.83152 0.34749 0.24026 0.0
C1371 C 0.8417 0.36742 0.21827 0.0
H1372 H 0.72181 0.53563 0.28029 0.0
H1373 H 0.70497 0.50688 0.48964 0.0
H1374 H 0.68722 0.51824 0.2428 0.0
H1375 H 0.67018 0.48915 0.45119 0.0
H1376 H 0.6089 0.47886 0.38363 0.0
H1377 H 0.64348 0.49603 0.42154 0.0
H1378 H 0.66073 0.48466 0.21243 0.0
H1379 H 0.62599 0.46766 0.17361 0.0
C1380 C 0.71074 0.52558 0.31846 0.0
C1381 C 0.71621 0.52267 0.38817 0.0
C1382 C 0.69089 0.51548 0.29656 0.0
C1383 C 0.67596 0.50223 0.34377 0.0
C1384 C 0.68134 0.4994 0.41374 0.0
C1385 C 0.70127 0.50951 0.43571 0.0
C1386 C 0.62002 0.48002 0.34542 0.0
C1387 C 0.61463 0.47188 0.27536 0.0
C1388 C 0.63986 0.48975 0.36754 0.0
C1389 C 0.65484 0.49164 0.3202 0.0
C1390 C 0.64953 0.4836 0.24998 0.0
C1391 C 0.62962 0.47381 0.22779 0.0
H1392 H 0.53222 0.81045 0.72219 0.0
H1393 H 0.50404 0.79756 0.51166 0.0
H1394 H 0.51431 0.8275 0.75652 0.0
H1395 H 0.4859 0.81437 0.5467 0.0
H1396 H 0.47523 0.86567 0.6074 0.0
H1397 H 0.49266 0.84816 0.57288 0.0
H1398 H 0.48036 0.82015 0.78335 0.0
H1399 H 0.46316 0.83789 0.81856 0.0
C1400 C 0.52216 0.81118 0.68327 0.0
C1401 C 0.5196 0.80264 0.61409 0.0
C1402 C 0.5118 0.82085 0.70319 0.0
C1403 C 0.49868 0.82226 0.65438 0.0
C1404 C 0.49608 0.81372 0.58524 0.0
C1405 C 0.5064 0.80399 0.56533 0.0
C1406 C 0.47621 0.85578 0.64641 0.0
C1407 C 0.46781 0.85322 0.71585 0.0
C1408 C 0.48611 0.84565 0.62639 0.0
C1409 C 0.48788 0.83277 0.67536 0.0
C1410 C 0.47944 0.83015 0.7447 0.0
C1411 C 0.46949 0.84025 0.7647 0.0
H1412 H 0.19976 0.70552 0.50678 0.0
H1413 H 0.18697 0.72037 0.71826 0.0
H1414 H 0.18307 0.67051 0.54103 0.0
H1415 H 0.17004 0.68536 0.75179 0.0
H1416 H 0.1595 0.62379 0.81222 0.0
H1417 H 0.17741 0.65875 0.77743 0.0
H1418 H 0.14931 0.64338 0.56708 0.0
H1419 H 0.13162 0.60839 0.60119 0.0
C1420 C 0.19338 0.70134 0.5605 0.0
C1421 C 0.19471 0.71578 0.60975 0.0
C1422 C 0.18372 0.68126 0.57996 0.0
C1423 C 0.17524 0.67518 0.64911 0.0
C1424 C 0.17665 0.68961 0.69843 0.0
C1425 C 0.18625 0.70967 0.67898 0.0
C1426 C 0.15717 0.62784 0.75845 0.0
C1427 C 0.14409 0.61327 0.70955 0.0
C1428 C 0.16736 0.64789 0.73869 0.0
C1429 C 0.16475 0.65383 0.66957 0.0
C1430 C 0.15182 0.63926 0.62045 0.0
C1431 C 0.14159 0.61921 0.64022 0.0
H1432 H 0.27541 0.48278 0.7191 0.0
H1433 H 0.29254 0.47768 0.50142 0.0
H1434 H 0.3102 0.50152 0.75448 0.0
H1435 H 0.32734 0.49492 0.53746 0.0
H1436 H 0.38967 0.54037 0.60267 0.0
H1437 H 0.35488 0.52416 0.56681 0.0
H1438 H 0.33768 0.49972 0.78293 0.0
H1439 H 0.3724 0.51739 0.81946 0.0
C1440 C 0.28671 0.48549 0.6791 0.0
C1441 C 0.28137 0.47885 0.60762 0.0
C1442 C 0.3067 0.49609 0.69941 0.0
C1443 C 0.32184 0.49975 0.64921 0.0
C1444 C 0.31631 0.4929 0.57756 0.0
C1445 C 0.29633 0.48283 0.5568 0.0
C1446 C 0.37835 0.5316 0.64236 0.0
C1447 C 0.38364 0.53014 0.71378 0.0
C1448 C 0.35836 0.52212 0.62178 0.0
C1449 C 0.3432 0.51043 0.67164 0.0
C1450 C 0.3487 0.50891 0.74313 0.0
C1451 C 0.36865 0.5189 0.76416 0.0
H1452 H 0.12856 0.51791 0.60914 0.0
H1453 H 0.15676 0.5295 0.81945 0.0
H1454 H 0.14626 0.501 0.57185 0.0
H1455 H 0.17478 0.51274 0.78126 0.0
H1456 H 0.18569 0.46219 0.71311 0.0
H1457 H 0.16817 0.47926 0.75077 0.0
H1458 H 0.1801 0.50852 0.54274 0.0
H1459 H 0.19748 0.49114 0.50416 0.0
C1460 C 0.13855 0.51688 0.64756 0.0
C1461 C 0.14122 0.52508 0.71747 0.0
C1462 C 0.14883 0.5073 0.6258 0.0
C1463 C 0.16201 0.50562 0.67337 0.0
C1464 C 0.16459 0.51365 0.74353 0.0
C1465 C 0.15432 0.52331 0.76536 0.0
C1466 C 0.18459 0.47223 0.6751 0.0
C1467 C 0.193 0.47527 0.60542 0.0
C1468 C 0.17465 0.48213 0.69707 0.0
C1469 C 0.17281 0.4953 0.64994 0.0
C1470 C 0.18112 0.49831 0.5801 0.0
C1471 C 0.19113 0.48841 0.55807 0.0
H1472 H 0.46648 0.62601 0.82617 0.0
H1473 H 0.47998 0.61018 0.61772 0.0
H1474 H 0.48329 0.66092 0.789 0.0
H1475 H 0.49689 0.64485 0.58154 0.0
H1476 H 0.50639 0.7054 0.51173 0.0
H1477 H 0.48891 0.6707 0.5507 0.0
H1478 H 0.51687 0.68829 0.76083 0.0
H1479 H 0.53407 0.72289 0.72267 0.0
C1480 C 0.4731 0.62995 0.77274 0.0
C1481 C 0.47183 0.61527 0.725 0.0
C1482 C 0.48277 0.64995 0.75151 0.0
C1483 C 0.4913 0.65562 0.68211 0.0
C1484 C 0.49018 0.64094 0.63484 0.0
C1485 C 0.48059 0.62105 0.65599 0.0
C1486 C 0.5088 0.70187 0.56621 0.0
C1487 C 0.52166 0.71694 0.61391 0.0
C1488 C 0.49885 0.68198 0.58848 0.0
C1489 C 0.50151 0.67676 0.65892 0.0
C1490 C 0.5143 0.69184 0.70659 0.0
C1491 C 0.52428 0.71168 0.68437 0.0
H1492 H 0.29139 0.79965 0.50586 0.0
H1493 H 0.27444 0.81099 0.71593 0.0
H1494 H 0.32616 0.81674 0.54417 0.0
H1495 H 0.30908 0.82827 0.75336 0.0
H1496 H 0.37054 0.8391 0.82085 0.0
H1497 H 0.33576 0.82134 0.78262 0.0
H1498 H 0.35269 0.85034 0.57405 0.0
H1499 H 0.38733 0.86778 0.61137 0.0
C1500 C 0.29506 0.80585 0.55997 0.0
C1501 C 0.28011 0.80393 0.60773 0.0
C1502 C 0.31498 0.8157 0.58184 0.0
C1503 C 0.32035 0.8238 0.65191 0.0
C1504 C 0.30541 0.82193 0.69945 0.0
C1505 C 0.28554 0.81214 0.67765 0.0
C1506 C 0.36683 0.84168 0.76688 0.0
C1507 C 0.38174 0.85485 0.71927 0.0
C1508 C 0.3469 0.83157 0.74506 0.0
C1509 C 0.34149 0.8344 0.67519 0.0
C1510 C 0.3564 0.84761 0.62779 0.0
C1511 C 0.37626 0.85772 0.64954 0.0
loop_
_geom_bond_atom_site_label_1
_geom_bond_atom_site_label_2
_geom_bond_distance
_geom_bond_site_symmetry_2
_ccdc_geom_bond_type
Co0 O3 1.970 . S
Co0 N17 1.989 . S
Co0 O25 1.967 . S
Co0 O32 1.920 1_554 S
Co1 O4 1.966 . S
Co1 N10 2.022 . S
Co1 N18 1.993 . S
Co1 O26 1.941 . S
C2 O3 1.258 . S
C2 O4 1.263 . S
O3 Co0 1.970 . S
O3 C2 1.258 . S
O4 Co1 1.966 . S
O4 C2 1.263 . S
C5 O6 1.235 . S
C5 O32 1.289 . S
O6 C5 1.235 . S
C7 C9 1.400 . S
C7 N10 1.351 . S
C7 C12 1.501 . S
C8 C9 1.387 . S
C8 N11 1.341 . S
C9 C7 1.400 . S
C9 C8 1.387 . S
N10 Co1 2.022 . S
N10 C7 1.351 . S
N10 N11 1.365 . S
N11 C8 1.341 . S
N11 N10 1.365 . S
N11 H31 0.862 . S
C12 C7 1.501 . S
C12 H13 0.961 . S
C12 H14 0.961 . S
C12 H15 0.960 . S
H13 C12 0.961 . S
H14 C12 0.961 . S
H15 C12 0.960 . S
C16 N17 1.342 . S
C16 C20 1.401 . S
C16 C21 1.499 . S
N17 Co0 1.989 . S
N17 C16 1.342 . S
N17 N18 1.388 . S
N18 Co1 1.993 . S
N18 N17 1.388 . S
N18 C19 1.346 . S
C19 N18 1.346 . S
C19 C20 1.396 . S
C19 C29 1.510 . S
C20 C16 1.401 . S
C20 C19 1.396 . S
C21 C16 1.499 . S
C21 H22 0.959 . S
C21 H23 0.960 . S
C21 H24 0.961 . S
H22 C21 0.959 . S
H23 C21 0.960 . S
H24 C21 0.961 . S
O25 Co0 1.967 . S
O25 C33 1.258 . S
O26 Co1 1.941 . S
O26 C33 1.266 . S
H27 C29 0.959 . S
H28 C29 0.961 . S
C29 C19 1.510 . S
C29 H27 0.959 . S
C29 H28 0.961 . S
C29 H30 0.960 . S
H30 C29 0.960 . S
H31 N11 0.862 . S
O32 Co0 1.920 1_556 S
O32 C5 1.289 . S
C33 O25 1.258 . S
C33 O26 1.266 . S
Co34 O37 1.970 . S
Co34 N51 1.989 . S
Co34 O59 1.967 . S
Co34 O66 1.920 1_554 S
Co35 O38 1.966 . S
Co35 N44 2.022 . S
Co35 N52 1.993 . S
Co35 O60 1.941 . S
C36 O37 1.258 . S
C36 O38 1.263 . S
O37 Co34 1.970 . S
O37 C36 1.258 . S
O38 Co35 1.966 . S
O38 C36 1.263 . S
C39 O40 1.235 . S
C39 O66 1.289 . S
O40 C39 1.235 . S
C41 C43 1.400 . S
C41 N44 1.351 . S
C41 C46 1.501 . S
C42 C43 1.387 . S
C42 N45 1.341 . S
C43 C41 1.400 . S
C43 C42 1.387 . S
N44 Co35 2.022 . S
N44 C41 1.351 . S
N44 N45 1.365 . S
N45 C42 1.341 . S
N45 N44 1.365 . S
N45 H65 0.862 . S
C46 C41 1.501 . S
C46 H47 0.961 . S
C46 H48 0.961 . S
C46 H49 0.960 . S
H47 C46 0.961 . S
H48 C46 0.961 . S
H49 C46 0.960 . S
C50 N51 1.342 . S
C50 C54 1.401 . S
C50 C55 1.499 . S
N51 Co34 1.989 . S
N51 C50 1.342 . S
N51 N52 1.388 . S
N52 Co35 1.993 . S
N52 N51 1.388 . S
N52 C53 1.346 . S
C53 N52 1.346 . S
C53 C54 1.396 . S
C53 C63 1.510 . S
C54 C50 1.401 . S
C54 C53 1.396 . S
C55 C50 1.499 . S
C55 H56 0.959 . S
C55 H57 0.960 . S
C55 H58 0.961 . S
H56 C55 0.959 . S
H57 C55 0.960 . S
H58 C55 0.961 . S
O59 Co34 1.967 . S
O59 C67 1.258 . S
O60 Co35 1.941 . S
O60 C67 1.266 . S
H61 C63 0.959 . S
H62 C63 0.961 . S
C63 C53 1.510 . S
C63 H61 0.959 . S
C63 H62 0.961 . S
C63 H64 0.960 . S
H64 C63 0.960 . S
H65 N45 0.862 . S
O66 Co34 1.920 1_556 S
O66 C39 1.289 . S
C67 O59 1.258 . S
C67 O60 1.266 . S
Co68 O71 1.970 . S
Co68 N85 1.989 . S
Co68 O93 1.967 . S
Co68 O100 1.920 1_554 S
Co69 O72 1.966 . S
Co69 N78 2.022 . S
Co69 N86 1.993 . S
Co69 O94 1.941 . S
C70 O71 1.258 . S
C70 O72 1.263 . S
O71 Co68 1.970 . S
O71 C70 1.258 . S
O72 Co69 1.966 . S
O72 C70 1.263 . S
C73 O74 1.235 . S
C73 O100 1.289 . S
O74 C73 1.235 . S
C75 C77 1.400 . S
C75 N78 1.351 . S
C75 C80 1.501 . S
C76 C77 1.387 . S
C76 N79 1.341 . S
C77 C75 1.400 . S
C77 C76 1.387 . S
N78 Co69 2.022 . S
N78 C75 1.351 . S
N78 N79 1.365 . S
N79 C76 1.341 . S
N79 N78 1.365 . S
N79 H99 0.862 . S
C80 C75 1.501 . S
C80 H81 0.961 . S
C80 H82 0.961 . S
C80 H83 0.960 . S
H81 C80 0.961 . S
H82 C80 0.961 . S
H83 C80 0.960 . S
C84 N85 1.342 . S
C84 C88 1.401 . S
C84 C89 1.499 . S
N85 Co68 1.989 . S
N85 C84 1.342 . S
N85 N86 1.388 . S
N86 Co69 1.993 . S
N86 N85 1.388 . S
N86 C87 1.346 . S
C87 N86 1.346 . S
C87 C88 1.396 . S
C87 C97 1.510 . S
C88 C84 1.401 . S
C88 C87 1.396 . S
C89 C84 1.499 . S
C89 H90 0.959 . S
C89 H91 0.960 . S
C89 H92 0.961 . S
H90 C89 0.959 . S
H91 C89 0.960 . S
H92 C89 0.961 . S
O93 Co68 1.967 . S
O93 C101 1.258 . S
O94 Co69 1.941 . S
O94 C101 1.266 . S
H95 C97 0.959 . S
H96 C97 0.961 . S
C97 C87 1.510 . S
C97 H95 0.959 . S
C97 H96 0.961 . S
C97 H98 0.960 . S
H98 C97 0.960 . S
H99 N79 0.862 . S
O100 Co68 1.920 1_556 S
O100 C73 1.289 . S
C101 O93 1.258 . S
C101 O94 1.266 . S
Co102 O105 1.970 . S
Co102 N119 1.989 . S
Co102 O127 1.967 . S
Co102 O134 1.920 1_556 S
Co103 O106 1.966 . S
Co103 N112 2.022 . S
Co103 N120 1.993 . S
Co103 O128 1.941 . S
C104 O105 1.258 . S
C104 O106 1.263 . S
O105 Co102 1.970 . S
O105 C104 1.258 . S
O106 Co103 1.966 . S
O106 C104 1.263 . S
C107 O108 1.235 . S
C107 O134 1.289 . S
O108 C107 1.235 . S
C109 C111 1.400 . S
C109 N112 1.351 . S
C109 C114 1.501 . S
C110 C111 1.387 . S
C110 N113 1.341 . S
C111 C109 1.400 . S
C111 C110 1.387 . S
N112 Co103 2.022 . S
N112 C109 1.351 . S
N112 N113 1.365 . S
N113 C110 1.341 . S
N113 N112 1.365 . S
N113 H133 0.862 . S
C114 C109 1.501 . S
C114 H115 0.961 . S
C114 H116 0.961 . S
C114 H117 0.960 . S
H115 C114 0.961 . S
H116 C114 0.961 . S
H117 C114 0.960 . S
C118 N119 1.342 . S
C118 C122 1.401 . S
C118 C123 1.499 . S
N119 Co102 1.989 . S
N119 C118 1.342 . S
N119 N120 1.388 . S
N120 Co103 1.993 . S
N120 N119 1.388 . S
N120 C121 1.346 . S
C121 N120 1.346 . S
C121 C122 1.396 . S
C121 C131 1.510 . S
C122 C118 1.401 . S
C122 C121 1.396 . S
C123 C118 1.499 . S
C123 H124 0.959 . S
C123 H125 0.960 . S
C123 H126 0.961 . S
H124 C123 0.959 . S
H125 C123 0.960 . S
H126 C123 0.961 . S
O127 Co102 1.967 . S
O127 C135 1.258 . S
O128 Co103 1.941 . S
O128 C135 1.266 . S
H129 C131 0.959 . S
H130 C131 0.961 . S
C131 C121 1.510 . S
C131 H129 0.959 . S
C131 H130 0.961 . S
C131 H132 0.960 . S
H132 C131 0.960 . S
H133 N113 0.862 . S
O134 Co102 1.920 1_554 S
O134 C107 1.289 . S
C135 O127 1.258 . S
C135 O128 1.266 . S
Co136 O139 1.970 . S
Co136 N153 1.989 . S
Co136 O161 1.967 . S
Co136 O168 1.920 1_556 S
Co137 O140 1.966 . S
Co137 N146 2.022 . S
Co137 N154 1.993 . S
Co137 O162 1.941 . S
C138 O139 1.258 . S
C138 O140 1.263 . S
O139 Co136 1.970 . S
O139 C138 1.258 . S
O140 Co137 1.966 . S
O140 C138 1.263 . S
C141 O142 1.235 . S
C141 O168 1.289 . S
O142 C141 1.235 . S
C143 C145 1.400 . S
C143 N146 1.351 . S
C143 C148 1.501 . S
C144 C145 1.387 . S
C144 N147 1.341 . S
C145 C143 1.400 . S
C145 C144 1.387 . S
N146 Co137 2.022 . S
N146 C143 1.351 . S
N146 N147 1.365 . S
N147 C144 1.341 . S
N147 N146 1.365 . S
N147 H167 0.862 . S
C148 C143 1.501 . S
C148 H149 0.961 . S
C148 H150 0.961 . S
C148 H151 0.960 . S
H149 C148 0.961 . S
H150 C148 0.961 . S
H151 C148 0.960 . S
C152 N153 1.342 . S
C152 C156 1.401 . S
C152 C157 1.499 . S
N153 Co136 1.989 . S
N153 C152 1.342 . S
N153 N154 1.388 . S
N154 Co137 1.993 . S
N154 N153 1.388 . S
N154 C155 1.346 . S
C155 N154 1.346 . S
C155 C156 1.396 . S
C155 C165 1.510 . S
C156 C152 1.401 . S
C156 C155 1.396 . S
C157 C152 1.499 . S
C157 H158 0.959 . S
C157 H159 0.960 . S
C157 H160 0.961 . S
H158 C157 0.959 . S
H159 C157 0.960 . S
H160 C157 0.961 . S
O161 Co136 1.967 . S
O161 C169 1.258 . S
O162 Co137 1.941 . S
O162 C169 1.266 . S
H163 C165 0.959 . S
H164 C165 0.961 . S
C165 C155 1.510 . S
C165 H163 0.959 . S
C165 H164 0.961 . S
C165 H166 0.960 . S
H166 C165 0.960 . S
H167 N147 0.862 . S
O168 Co136 1.920 1_554 S
O168 C141 1.289 . S
C169 O161 1.258 . S
C169 O162 1.266 . S
Co170 O173 1.970 . S
Co170 N187 1.989 . S
Co170 O195 1.967 . S
Co170 O202 1.920 1_556 S
Co171 O174 1.966 . S
Co171 N180 2.022 . S
Co171 N188 1.993 . S
Co171 O196 1.941 . S
C172 O173 1.258 . S
C172 O174 1.263 . S
O173 Co170 1.970 . S
O173 C172 1.258 . S
O174 Co171 1.966 . S
O174 C172 1.263 . S
C175 O176 1.235 . S
C175 O202 1.289 . S
O176 C175 1.235 . S
C177 C179 1.400 . S
C177 N180 1.351 . S
C177 C182 1.501 . S
C178 C179 1.387 . S
C178 N181 1.341 . S
C179 C177 1.400 . S
C179 C178 1.387 . S
N180 Co171 2.022 . S
N180 C177 1.351 . S
N180 N181 1.365 . S
N181 C178 1.341 . S
N181 N180 1.365 . S
N181 H201 0.862 . S
C182 C177 1.501 . S
C182 H183 0.961 . S
C182 H184 0.961 . S
C182 H185 0.960 . S
H183 C182 0.961 . S
H184 C182 0.961 . S
H185 C182 0.960 . S
C186 N187 1.342 . S
C186 C190 1.401 . S
C186 C191 1.499 . S
N187 Co170 1.989 . S
N187 C186 1.342 . S
N187 N188 1.388 . S
N188 Co171 1.993 . S
N188 N187 1.388 . S
N188 C189 1.346 . S
C189 N188 1.346 . S
C189 C190 1.396 . S
C189 C199 1.510 . S
C190 C186 1.401 . S
C190 C189 1.396 . S
C191 C186 1.499 . S
C191 H192 0.959 . S
C191 H193 0.960 . S
C191 H194 0.961 . S
H192 C191 0.959 . S
H193 C191 0.960 . S
H194 C191 0.961 . S
O195 Co170 1.967 . S
O195 C203 1.258 . S
O196 Co171 1.941 . S
O196 C203 1.266 . S
H197 C199 0.959 . S
H198 C199 0.961 . S
C199 C189 1.510 . S
C199 H197 0.959 . S
C199 H198 0.961 . S
C199 H200 0.960 . S
H200 C199 0.960 . S
H201 N181 0.862 . S
O202 Co170 1.920 1_554 S
O202 C175 1.289 . S
C203 O195 1.258 . S
C203 O196 1.266 . S
Co204 O207 1.970 . S
Co204 N221 1.989 . S
Co204 O229 1.967 . S
Co204 O236 1.920 . S
Co205 O208 1.966 . S
Co205 N214 2.022 . S
Co205 N222 1.993 . S
Co205 O230 1.941 . S
C206 O207 1.258 . S
C206 O208 1.263 . S
O207 Co204 1.970 . S
O207 C206 1.258 . S
O208 Co205 1.966 . S
O208 C206 1.263 . S
C209 O210 1.235 . S
C209 O236 1.289 . S
O210 C209 1.235 . S
C211 C213 1.400 . S
C211 N214 1.351 . S
C211 C216 1.501 . S
C212 C213 1.387 . S
C212 N215 1.341 . S
C213 C211 1.400 . S
C213 C212 1.387 . S
N214 Co205 2.022 . S
N214 C211 1.351 . S
N214 N215 1.365 . S
N215 C212 1.341 . S
N215 N214 1.365 . S
N215 H235 0.862 . S
C216 C211 1.501 . S
C216 H217 0.961 . S
C216 H218 0.961 . S
C216 H219 0.960 . S
H217 C216 0.961 . S
H218 C216 0.961 . S
H219 C216 0.960 . S
C220 N221 1.342 . S
C220 C224 1.401 . S
C220 C225 1.499 . S
N221 Co204 1.989 . S
N221 C220 1.342 . S
N221 N222 1.388 . S
N222 Co205 1.993 . S
N222 N221 1.388 . S
N222 C223 1.346 . S
C223 N222 1.346 . S
C223 C224 1.396 . S
C223 C233 1.510 . S
C224 C220 1.401 . S
C224 C223 1.396 . S
C225 C220 1.499 . S
C225 H226 0.959 . S
C225 H227 0.960 . S
C225 H228 0.961 . S
H226 C225 0.959 . S
H227 C225 0.960 . S
H228 C225 0.961 . S
O229 Co204 1.967 . S
O229 C237 1.258 . S
O230 Co205 1.941 . S
O230 C237 1.266 . S
H231 C233 0.959 . S
H232 C233 0.961 . S
C233 C223 1.510 . S
C233 H231 0.959 . S
C233 H232 0.961 . S
C233 H234 0.960 . S
H234 C233 0.960 . S
H235 N215 0.862 . S
O236 Co204 1.920 . S
O236 C209 1.289 . S
C237 O229 1.258 . S
C237 O230 1.266 . S
Co238 O241 1.970 . S
Co238 N255 1.989 . S
Co238 O263 1.967 . S
Co238 O270 1.920 . S
Co239 O242 1.966 . S
Co239 N248 2.022 . S
Co239 N256 1.993 . S
Co239 O264 1.941 . S
C240 O241 1.258 . S
C240 O242 1.263 . S
O241 Co238 1.970 . S
O241 C240 1.258 . S
O242 Co239 1.966 . S
O242 C240 1.263 . S
C243 O244 1.235 . S
C243 O270 1.289 . S
O244 C243 1.235 . S
C245 C247 1.400 . S
C245 N248 1.351 . S
C245 C250 1.501 . S
C246 C247 1.387 . S
C246 N249 1.341 . S
C247 C245 1.400 . S
C247 C246 1.387 . S
N248 Co239 2.022 . S
N248 C245 1.351 . S
N248 N249 1.365 . S
N249 C246 1.341 . S
N249 N248 1.365 . S
N249 H269 0.862 . S
C250 C245 1.501 . S
C250 H251 0.961 . S
C250 H252 0.961 . S
C250 H253 0.960 . S
H251 C250 0.961 . S
H252 C250 0.961 . S
H253 C250 0.960 . S
C254 N255 1.342 . S
C254 C258 1.401 . S
C254 C259 1.499 . S
N255 Co238 1.989 . S
N255 C254 1.342 . S
N255 N256 1.388 . S
N256 Co239 1.993 . S
N256 N255 1.388 . S
N256 C257 1.346 . S
C257 N256 1.346 . S
C257 C258 1.396 . S
C257 C267 1.510 . S
C258 C254 1.401 . S
C258 C257 1.396 . S
C259 C254 1.499 . S
C259 H260 0.959 . S
C259 H261 0.960 . S
C259 H262 0.961 . S
H260 C259 0.959 . S
H261 C259 0.960 . S
H262 C259 0.961 . S
O263 Co238 1.967 . S
O263 C271 1.258 . S
O264 Co239 1.941 . S
O264 C271 1.266 . S
H265 C267 0.959 . S
H266 C267 0.961 . S
C267 C257 1.510 . S
C267 H265 0.959 . S
C267 H266 0.961 . S
C267 H268 0.960 . S
H268 C267 0.960 . S
H269 N249 0.862 . S
O270 Co238 1.920 . S
O270 C243 1.289 . S
C271 O263 1.258 . S
C271 O264 1.266 . S
Co272 O275 1.970 . S
Co272 N289 1.989 . S
Co272 O297 1.967 . S
Co272 O304 1.920 . S
Co273 O276 1.966 . S
Co273 N282 2.022 . S
Co273 N290 1.993 . S
Co273 O298 1.941 . S
C274 O275 1.258 . S
C274 O276 1.263 . S
O275 Co272 1.970 . S
O275 C274 1.258 . S
O276 Co273 1.966 . S
O276 C274 1.263 . S
C277 O278 1.235 . S
C277 O304 1.289 . S
O278 C277 1.235 . S
C279 C281 1.400 . S
C279 N282 1.351 . S
C279 C284 1.501 . S
C280 C281 1.387 . S
C280 N283 1.341 . S
C281 C279 1.400 . S
C281 C280 1.387 . S
N282 Co273 2.022 . S
N282 C279 1.351 . S
N282 N283 1.365 . S
N283 C280 1.341 . S
N283 N282 1.365 . S
N283 H303 0.862 . S
C284 C279 1.501 . S
C284 H285 0.961 . S
C284 H286 0.961 . S
C284 H287 0.960 . S
H285 C284 0.961 . S
H286 C284 0.961 . S
H287 C284 0.960 . S
C288 N289 1.342 . S
C288 C292 1.401 . S
C288 C293 1.499 . S
N289 Co272 1.989 . S
N289 C288 1.342 . S
N289 N290 1.388 . S
N290 Co273 1.993 . S
N290 N289 1.388 . S
N290 C291 1.346 . S
C291 N290 1.346 . S
C291 C292 1.396 . S
C291 C301 1.510 . S
C292 C288 1.401 . S
C292 C291 1.396 . S
C293 C288 1.499 . S
C293 H294 0.959 . S
C293 H295 0.960 . S
C293 H296 0.961 . S
H294 C293 0.959 . S
H295 C293 0.960 . S
H296 C293 0.961 . S
O297 Co272 1.967 . S
O297 C305 1.258 . S
O298 Co273 1.941 . S
O298 C305 1.266 . S
H299 C301 0.959 . S
H300 C301 0.961 . S
C301 C291 1.510 . S
C301 H299 0.959 . S
C301 H300 0.961 . S
C301 H302 0.960 . S
H302 C301 0.960 . S
H303 N283 0.862 . S
O304 Co272 1.920 . S
O304 C277 1.289 . S
C305 O297 1.258 . S
C305 O298 1.266 . S
Co306 O309 1.970 . S
Co306 N323 1.989 . S
Co306 O331 1.967 . S
Co306 O338 1.920 . S
Co307 O310 1.966 . S
Co307 N316 2.022 . S
Co307 N324 1.993 . S
Co307 O332 1.941 . S
C308 O309 1.258 . S
C308 O310 1.263 . S
O309 Co306 1.970 . S
O309 C308 1.258 . S
O310 Co307 1.966 . S
O310 C308 1.263 . S
C311 O312 1.235 . S
C311 O338 1.289 . S
O312 C311 1.235 . S
C313 C315 1.400 . S
C313 N316 1.351 1_556 S
C313 C318 1.501 . S
C314 C315 1.387 . S
C314 N317 1.341 . S
C315 C313 1.400 . S
C315 C314 1.387 . S
N316 Co307 2.022 . S
N316 C313 1.351 1_554 S
N316 N317 1.365 1_554 S
N317 C314 1.341 . S
N317 N316 1.365 1_556 S
N317 H337 0.862 . S
C318 C313 1.501 . S
C318 H319 0.961 1_556 S
C318 H320 0.961 . S
C318 H321 0.960 . S
H319 C318 0.961 1_554 S
H320 C318 0.961 . S
H321 C318 0.960 . S
C322 N323 1.342 . S
C322 C326 1.401 . S
C322 C327 1.499 . S
N323 Co306 1.989 . S
N323 C322 1.342 . S
N323 N324 1.388 . S
N324 Co307 1.993 . S
N324 N323 1.388 . S
N324 C325 1.346 . S
C325 N324 1.346 . S
C325 C326 1.396 . S
C325 C335 1.510 . S
C326 C322 1.401 . S
C326 C325 1.396 . S
C327 C322 1.499 . S
C327 H328 0.959 . S
C327 H329 0.960 . S
C327 H330 0.961 . S
H328 C327 0.959 . S
H329 C327 0.960 . S
H330 C327 0.961 . S
O331 Co306 1.967 . S
O331 C339 1.258 . S
O332 Co307 1.941 . S
O332 C339 1.266 . S
H333 C335 0.959 1_556 S
H334 C335 0.961 1_556 S
C335 C325 1.510 . S
C335 H333 0.959 1_554 S
C335 H334 0.961 1_554 S
C335 H336 0.960 1_554 S
H336 C335 0.960 1_556 S
H337 N317 0.862 . S
O338 Co306 1.920 . S
O338 C311 1.289 . S
C339 O331 1.258 . S
C339 O332 1.266 . S
Co340 O343 1.970 . S
Co340 N357 1.989 . S
Co340 O365 1.967 . S
Co340 O372 1.920 . S
Co341 O344 1.966 . S
Co341 N350 2.022 . S
Co341 N358 1.993 . S
Co341 O366 1.941 . S
C342 O343 1.258 . S
C342 O344 1.263 . S
O343 Co340 1.970 . S
O343 C342 1.258 . S
O344 Co341 1.966 . S
O344 C342 1.263 . S
C345 O346 1.235 . S
C345 O372 1.289 . S
O346 C345 1.235 . S
C347 C349 1.400 . S
C347 N350 1.351 1_556 S
C347 C352 1.501 . S
C348 C349 1.387 . S
C348 N351 1.341 . S
C349 C347 1.400 . S
C349 C348 1.387 . S
N350 Co341 2.022 . S
N350 C347 1.351 1_554 S
N350 N351 1.365 1_554 S
N351 C348 1.341 . S
N351 N350 1.365 1_556 S
N351 H371 0.862 . S
C352 C347 1.501 . S
C352 H353 0.961 1_556 S
C352 H354 0.961 . S
C352 H355 0.960 . S
H353 C352 0.961 1_554 S
H354 C352 0.961 . S
H355 C352 0.960 . S
C356 N357 1.342 . S
C356 C360 1.401 . S
C356 C361 1.499 . S
N357 Co340 1.989 . S
N357 C356 1.342 . S
N357 N358 1.388 . S
N358 Co341 1.993 . S
N358 N357 1.388 . S
N358 C359 1.346 . S
C359 N358 1.346 . S
C359 C360 1.396 . S
C359 C369 1.510 . S
C360 C356 1.401 . S
C360 C359 1.396 . S
C361 C356 1.499 . S
C361 H362 0.959 . S
C361 H363 0.960 . S
C361 H364 0.961 . S
H362 C361 0.959 . S
H363 C361 0.960 . S
H364 C361 0.961 . S
O365 Co340 1.967 . S
O365 C373 1.258 . S
O366 Co341 1.941 . S
O366 C373 1.266 . S
H367 C369 0.959 1_556 S
H368 C369 0.961 1_556 S
C369 C359 1.510 . S
C369 H367 0.959 1_554 S
C369 H368 0.961 1_554 S
C369 H370 0.960 1_554 S
H370 C369 0.960 1_556 S
H371 N351 0.862 . S
O372 Co340 1.920 . S
O372 C345 1.289 . S
C373 O365 1.258 . S
C373 O366 1.266 . S
Co374 O377 1.970 . S
Co374 N391 1.989 . S
Co374 O399 1.967 . S
Co374 O406 1.920 . S
Co375 O378 1.966 . S
Co375 N384 2.022 . S
Co375 N392 1.993 . S
Co375 O400 1.941 . S
C376 O377 1.258 . S
C376 O378 1.263 . S
O377 Co374 1.970 . S
O377 C376 1.258 . S
O378 Co375 1.966 . S
O378 C376 1.263 . S
C379 O380 1.235 . S
C379 O406 1.289 . S
O380 C379 1.235 . S
C381 C383 1.400 . S
C381 N384 1.351 1_556 S
C381 C386 1.501 . S
C382 C383 1.387 . S
C382 N385 1.341 . S
C383 C381 1.400 . S
C383 C382 1.387 . S
N384 Co375 2.022 . S
N384 C381 1.351 1_554 S
N384 N385 1.365 1_554 S
N385 C382 1.341 . S
N385 N384 1.365 1_556 S
N385 H405 0.862 . S
C386 C381 1.501 . S
C386 H387 0.961 1_556 S
C386 H388 0.961 . S
C386 H389 0.960 . S
H387 C386 0.961 1_554 S
H388 C386 0.961 . S
H389 C386 0.960 . S
C390 N391 1.342 . S
C390 C394 1.401 . S
C390 C395 1.499 . S
N391 Co374 1.989 . S
N391 C390 1.342 . S
N391 N392 1.388 . S
N392 Co375 1.993 . S
N392 N391 1.388 . S
N392 C393 1.346 . S
C393 N392 1.346 . S
C393 C394 1.396 . S
C393 C403 1.510 . S
C394 C390 1.401 . S
C394 C393 1.396 . S
C395 C390 1.499 . S
C395 H396 0.959 . S
C395 H397 0.960 . S
C395 H398 0.961 . S
H396 C395 0.959 . S
H397 C395 0.960 . S
H398 C395 0.961 . S
O399 Co374 1.967 . S
O399 C407 1.258 . S
O400 Co375 1.941 . S
O400 C407 1.266 . S
H401 C403 0.959 1_556 S
H402 C403 0.961 1_556 S
C403 C393 1.510 . S
C403 H401 0.959 1_554 S
C403 H402 0.961 1_554 S
C403 H404 0.960 1_554 S
H404 C403 0.960 1_556 S
H405 N385 0.862 . S
O406 Co374 1.920 . S
O406 C379 1.289 . S
C407 O399 1.258 . S
C407 O400 1.266 . S
Co408 O411 1.970 . S
Co408 N425 1.989 . S
Co408 O433 1.967 . S
Co408 O440 1.920 . S
Co409 O412 1.966 . S
Co409 N418 2.022 . S
Co409 N426 1.993 . S
Co409 O434 1.941 . S
C410 O411 1.258 . S
C410 O412 1.263 . S
O411 Co408 1.970 . S
O411 C410 1.258 . S
O412 Co409 1.966 . S
O412 C410 1.263 . S
C413 O414 1.235 . S
C413 O440 1.289 . S
O414 C413 1.235 . S
C415 C417 1.400 . S
C415 N418 1.351 1_554 S
C415 C420 1.501 . S
C416 C417 1.387 . S
C416 N419 1.341 . S
C417 C415 1.400 . S
C417 C416 1.387 . S
N418 Co409 2.022 . S
N418 C415 1.351 1_556 S
N418 N419 1.365 1_556 S
N419 C416 1.341 . S
N419 N418 1.365 1_554 S
N419 H439 0.862 . S
C420 C415 1.501 . S
C420 H421 0.961 1_554 S
C420 H422 0.961 . S
C420 H423 0.960 . S
H421 C420 0.961 1_556 S
H422 C420 0.961 . S
H423 C420 0.960 . S
C424 N425 1.342 . S
C424 C428 1.401 . S
C424 C429 1.499 . S
N425 Co408 1.989 . S
N425 C424 1.342 . S
N425 N426 1.388 . S
N426 Co409 1.993 . S
N426 N425 1.388 . S
N426 C427 1.346 . S
C427 N426 1.346 . S
C427 C428 1.396 . S
C427 C437 1.510 . S
C428 C424 1.401 . S
C428 C427 1.396 . S
C429 C424 1.499 . S
C429 H430 0.959 . S
C429 H431 0.960 . S
C429 H432 0.961 . S
H430 C429 0.959 . S
H431 C429 0.960 . S
H432 C429 0.961 . S
O433 Co408 1.967 . S
O433 C441 1.258 . S
O434 Co409 1.941 . S
O434 C441 1.266 . S
H435 C437 0.959 1_554 S
H436 C437 0.961 1_554 S
C437 C427 1.510 . S
C437 H435 0.959 1_556 S
C437 H436 0.961 1_556 S
C437 H438 0.960 1_556 S
H438 C437 0.960 1_554 S
H439 N419 0.862 . S
O440 Co408 1.920 . S
O440 C413 1.289 . S
C441 O433 1.258 . S
C441 O434 1.266 . S
Co442 O445 1.970 . S
Co442 N459 1.989 . S
Co442 O467 1.967 . S
Co442 O474 1.920 . S
Co443 O446 1.966 . S
Co443 N452 2.022 . S
Co443 N460 1.993 . S
Co443 O468 1.941 . S
C444 O445 1.258 . S
C444 O446 1.263 . S
O445 Co442 1.970 . S
O445 C444 1.258 . S
O446 Co443 1.966 . S
O446 C444 1.263 . S
C447 O448 1.235 . S
C447 O474 1.289 . S
O448 C447 1.235 . S
C449 C451 1.400 . S
C449 N452 1.351 1_554 S
C449 C454 1.501 . S
C450 C451 1.387 . S
C450 N453 1.341 . S
C451 C449 1.400 . S
C451 C450 1.387 . S
N452 Co443 2.022 . S
N452 C449 1.351 1_556 S
N452 N453 1.365 1_556 S
N453 C450 1.341 . S
N453 N452 1.365 1_554 S
N453 H473 0.862 . S
C454 C449 1.501 . S
C454 H455 0.961 1_554 S
C454 H456 0.961 . S
C454 H457 0.960 . S
H455 C454 0.961 1_556 S
H456 C454 0.961 . S
H457 C454 0.960 . S
C458 N459 1.342 . S
C458 C462 1.401 . S
C458 C463 1.499 . S
N459 Co442 1.989 . S
N459 C458 1.342 . S
N459 N460 1.388 . S
N460 Co443 1.993 . S
N460 N459 1.388 . S
N460 C461 1.346 . S
C461 N460 1.346 . S
C461 C462 1.396 . S
C461 C471 1.510 . S
C462 C458 1.401 . S
C462 C461 1.396 . S
C463 C458 1.499 . S
C463 H464 0.959 . S
C463 H465 0.960 . S
C463 H466 0.961 . S
H464 C463 0.959 . S
H465 C463 0.960 . S
H466 C463 0.961 . S
O467 Co442 1.967 . S
O467 C475 1.258 . S
O468 Co443 1.941 . S
O468 C475 1.266 . S
H469 C471 0.959 1_554 S
H470 C471 0.961 1_554 S
C471 C461 1.510 . S
C471 H469 0.959 1_556 S
C471 H470 0.961 1_556 S
C471 H472 0.960 1_556 S
H472 C471 0.960 1_554 S
H473 N453 0.862 . S
O474 Co442 1.920 . S
O474 C447 1.289 . S
C475 O467 1.258 . S
C475 O468 1.266 . S
Co476 O479 1.970 . S
Co476 N493 1.989 . S
Co476 O501 1.967 . S
Co476 O508 1.920 . S
Co477 O480 1.966 . S
Co477 N486 2.022 . S
Co477 N494 1.993 . S
Co477 O502 1.941 . S
C478 O479 1.258 . S
C478 O480 1.263 . S
O479 Co476 1.970 . S
O479 C478 1.258 . S
O480 Co477 1.966 . S
O480 C478 1.263 . S
C481 O482 1.235 . S
C481 O508 1.289 . S
O482 C481 1.235 . S
C483 C485 1.400 . S
C483 N486 1.351 1_554 S
C483 C488 1.501 . S
C484 C485 1.387 . S
C484 N487 1.341 . S
C485 C483 1.400 . S
C485 C484 1.387 . S
N486 Co477 2.022 . S
N486 C483 1.351 1_556 S
N486 N487 1.365 1_556 S
N487 C484 1.341 . S
N487 N486 1.365 1_554 S
N487 H507 0.862 . S
C488 C483 1.501 . S
C488 H489 0.961 1_554 S
C488 H490 0.961 . S
C488 H491 0.960 . S
H489 C488 0.961 1_556 S
H490 C488 0.961 . S
H491 C488 0.960 . S
C492 N493 1.342 . S
C492 C496 1.401 . S
C492 C497 1.499 . S
N493 Co476 1.989 . S
N493 C492 1.342 . S
N493 N494 1.388 . S
N494 Co477 1.993 . S
N494 N493 1.388 . S
N494 C495 1.346 . S
C495 N494 1.346 . S
C495 C496 1.396 . S
C495 C505 1.510 . S
C496 C492 1.401 . S
C496 C495 1.396 . S
C497 C492 1.499 . S
C497 H498 0.959 . S
C497 H499 0.960 . S
C497 H500 0.961 . S
H498 C497 0.959 . S
H499 C497 0.960 . S
H500 C497 0.961 . S
O501 Co476 1.967 . S
O501 C509 1.258 . S
O502 Co477 1.941 . S
O502 C509 1.266 . S
H503 C505 0.959 1_554 S
H504 C505 0.961 1_554 S
C505 C495 1.510 . S
C505 H503 0.959 1_556 S
C505 H504 0.961 1_556 S
C505 H506 0.960 1_556 S
H506 C505 0.960 1_554 S
H507 N487 0.862 . S
O508 Co476 1.920 . S
O508 C481 1.289 . S
C509 O501 1.258 . S
C509 O502 1.266 . S
Co510 O513 1.970 . S
Co510 N527 1.989 . S
Co510 O535 1.967 . S
Co510 O542 1.920 . S
Co511 O514 1.966 . S
Co511 N520 2.022 . S
Co511 N528 1.993 . S
Co511 O536 1.941 . S
C512 O513 1.258 . S
C512 O514 1.263 . S
O513 Co510 1.970 . S
O513 C512 1.258 . S
O514 Co511 1.966 . S
O514 C512 1.263 . S
C515 O516 1.235 . S
C515 O542 1.289 . S
O516 C515 1.235 . S
C517 C519 1.400 . S
C517 N520 1.351 . S
C517 C522 1.501 . S
C518 C519 1.387 . S
C518 N521 1.341 . S
C519 C517 1.400 . S
C519 C518 1.387 . S
N520 Co511 2.022 . S
N520 C517 1.351 . S
N520 N521 1.365 . S
N521 C518 1.341 . S
N521 N520 1.365 . S
N521 H541 0.862 . S
C522 C517 1.501 . S
C522 H523 0.961 . S
C522 H524 0.961 . S
C522 H525 0.960 . S
H523 C522 0.961 . S
H524 C522 0.961 . S
H525 C522 0.960 . S
C526 N527 1.342 . S
C526 C530 1.401 . S
C526 C531 1.499 . S
N527 Co510 1.989 . S
N527 C526 1.342 . S
N527 N528 1.388 . S
N528 Co511 1.993 . S
N528 N527 1.388 . S
N528 C529 1.346 . S
C529 N528 1.346 . S
C529 C530 1.396 . S
C529 C539 1.510 . S
C530 C526 1.401 . S
C530 C529 1.396 . S
C531 C526 1.499 . S
C531 H532 0.959 . S
C531 H533 0.960 . S
C531 H534 0.961 . S
H532 C531 0.959 . S
H533 C531 0.960 . S
H534 C531 0.961 . S
O535 Co510 1.967 . S
O535 C543 1.258 . S
O536 Co511 1.941 . S
O536 C543 1.266 . S
H537 C539 0.959 . S
H538 C539 0.961 . S
C539 C529 1.510 . S
C539 H537 0.959 . S
C539 H538 0.961 . S
C539 H540 0.960 . S
H540 C539 0.960 . S
H541 N521 0.862 . S
O542 Co510 1.920 . S
O542 C515 1.289 . S
C543 O535 1.258 . S
C543 O536 1.266 . S
Co544 O547 1.970 . S
Co544 N561 1.989 . S
Co544 O569 1.967 . S
Co544 O576 1.920 . S
Co545 O548 1.966 . S
Co545 N554 2.022 . S
Co545 N562 1.993 . S
Co545 O570 1.941 . S
C546 O547 1.258 . S
C546 O548 1.263 . S
O547 Co544 1.970 . S
O547 C546 1.258 . S
O548 Co545 1.966 . S
O548 C546 1.263 . S
C549 O550 1.235 . S
C549 O576 1.289 . S
O550 C549 1.235 . S
C551 C553 1.400 . S
C551 N554 1.351 . S
C551 C556 1.501 . S
C552 C553 1.387 . S
C552 N555 1.341 . S
C553 C551 1.400 . S
C553 C552 1.387 . S
N554 Co545 2.022 . S
N554 C551 1.351 . S
N554 N555 1.365 . S
N555 C552 1.341 . S
N555 N554 1.365 . S
N555 H575 0.862 . S
C556 C551 1.501 . S
C556 H557 0.961 . S
C556 H558 0.961 . S
C556 H559 0.960 . S
H557 C556 0.961 . S
H558 C556 0.961 . S
H559 C556 0.960 . S
C560 N561 1.342 . S
C560 C564 1.401 . S
C560 C565 1.499 . S
N561 Co544 1.989 . S
N561 C560 1.342 . S
N561 N562 1.388 . S
N562 Co545 1.993 . S
N562 N561 1.388 . S
N562 C563 1.346 . S
C563 N562 1.346 . S
C563 C564 1.396 . S
C563 C573 1.510 . S
C564 C560 1.401 . S
C564 C563 1.396 . S
C565 C560 1.499 . S
C565 H566 0.959 . S
C565 H567 0.960 . S
C565 H568 0.961 . S
H566 C565 0.959 . S
H567 C565 0.960 . S
H568 C565 0.961 . S
O569 Co544 1.967 . S
O569 C577 1.258 . S
O570 Co545 1.941 . S
O570 C577 1.266 . S
H571 C573 0.959 . S
H572 C573 0.961 . S
C573 C563 1.510 . S
C573 H571 0.959 . S
C573 H572 0.961 . S
C573 H574 0.960 . S
H574 C573 0.960 . S
H575 N555 0.862 . S
O576 Co544 1.920 . S
O576 C549 1.289 . S
C577 O569 1.258 . S
C577 O570 1.266 . S
Co578 O581 1.970 . S
Co578 N595 1.989 . S
Co578 O603 1.967 . S
Co578 O610 1.920 . S
Co579 O582 1.966 . S
Co579 N588 2.022 . S
Co579 N596 1.993 . S
Co579 O604 1.941 . S
C580 O581 1.258 . S
C580 O582 1.263 . S
O581 Co578 1.970 . S
O581 C580 1.258 . S
O582 Co579 1.966 . S
O582 C580 1.263 . S
C583 O584 1.235 . S
C583 O610 1.289 . S
O584 C583 1.235 . S
C585 C587 1.400 . S
C585 N588 1.351 . S
C585 C590 1.501 . S
C586 C587 1.387 . S
C586 N589 1.341 . S
C587 C585 1.400 . S
C587 C586 1.387 . S
N588 Co579 2.022 . S
N588 C585 1.351 . S
N588 N589 1.365 . S
N589 C586 1.341 . S
N589 N588 1.365 . S
N589 H609 0.862 . S
C590 C585 1.501 . S
C590 H591 0.961 . S
C590 H592 0.961 . S
C590 H593 0.960 . S
H591 C590 0.961 . S
H592 C590 0.961 . S
H593 C590 0.960 . S
C594 N595 1.342 . S
C594 C598 1.401 . S
C594 C599 1.499 . S
N595 Co578 1.989 . S
N595 C594 1.342 . S
N595 N596 1.388 . S
N596 Co579 1.993 . S
N596 N595 1.388 . S
N596 C597 1.346 . S
C597 N596 1.346 . S
C597 C598 1.396 . S
C597 C607 1.510 . S
C598 C594 1.401 . S
C598 C597 1.396 . S
C599 C594 1.499 . S
C599 H600 0.959 . S
C599 H601 0.960 . S
C599 H602 0.961 . S
H600 C599 0.959 . S
H601 C599 0.960 . S
H602 C599 0.961 . S
O603 Co578 1.967 . S
O603 C611 1.258 . S
O604 Co579 1.941 . S
O604 C611 1.266 . S
H605 C607 0.959 . S
H606 C607 0.961 . S
C607 C597 1.510 . S
C607 H605 0.959 . S
C607 H606 0.961 . S
C607 H608 0.960 . S
H608 C607 0.960 . S
H609 N589 0.862 . S
O610 Co578 1.920 . S
O610 C583 1.289 . S
C611 O603 1.258 . S
C611 O604 1.266 . S
H612 C620 0.950 . S
H613 C625 0.950 . S
H614 C622 0.950 . S
H615 C624 0.950 . S
H616 C626 0.950 . S
H617 C628 0.950 . S
H618 C630 0.950 . S
H619 C631 0.950 . S
C620 H612 0.950 . S
C620 C621 1.386 . S
C620 C622 1.391 . S
C621 C620 1.386 . S
C621 C625 1.393 . S
C622 H614 0.950 . S
C622 C620 1.391 . S
C622 C623 1.400 . S
C623 C622 1.400 . S
C623 C624 1.398 . S
C623 C629 1.491 . S
C624 H615 0.950 . S
C624 C623 1.398 . S
C624 C625 1.391 . S
C625 H613 0.950 . S
C625 C621 1.393 . S
C625 C624 1.391 . S
C626 H616 0.950 . S
C626 C627 1.386 . S
C626 C628 1.391 . S
C627 C626 1.386 . S
C627 C631 1.393 . S
C628 H617 0.950 . S
C628 C626 1.391 . S
C628 C629 1.400 . S
C629 C623 1.491 . S
C629 C628 1.400 . S
C629 C630 1.398 . S
C630 H618 0.950 . S
C630 C629 1.398 . S
C630 C631 1.391 . S
C631 H619 0.950 . S
C631 C627 1.393 . S
C631 C630 1.391 . S
H632 C640 0.950 . S
H633 C645 0.950 . S
H634 C642 0.950 . S
H635 C644 0.950 . S
H636 C646 0.950 . S
H637 C648 0.950 . S
H638 C650 0.950 . S
H639 C651 0.950 . S
C640 H632 0.950 . S
C640 C641 1.386 . S
C640 C642 1.391 . S
C641 C640 1.386 . S
C641 C645 1.393 . S
C642 H634 0.950 . S
C642 C640 1.391 . S
C642 C643 1.400 . S
C643 C642 1.400 . S
C643 C644 1.398 . S
C643 C649 1.491 . S
C644 H635 0.950 . S
C644 C643 1.398 . S
C644 C645 1.391 . S
C645 H633 0.950 . S
C645 C641 1.393 . S
C645 C644 1.391 . S
C646 H636 0.950 . S
C646 C647 1.386 . S
C646 C648 1.391 . S
C647 C646 1.386 . S
C647 C651 1.393 . S
C648 H637 0.950 . S
C648 C646 1.391 . S
C648 C649 1.400 . S
C649 C643 1.491 . S
C649 C648 1.400 . S
C649 C650 1.398 . S
C650 H638 0.950 . S
C650 C649 1.398 . S
C650 C651 1.391 . S
C651 H639 0.950 . S
C651 C647 1.393 . S
C651 C650 1.391 . S
H652 C660 0.950 . S
H653 C665 0.950 . S
H654 C662 0.950 . S
H655 C664 0.950 . S
H656 C666 0.950 . S
H657 C668 0.950 . S
H658 C670 0.950 . S
H659 C671 0.950 . S
C660 H652 0.950 . S
C660 C661 1.386 . S
C660 C662 1.391 . S
C661 C660 1.386 . S
C661 C665 1.393 . S
C662 H654 0.950 . S
C662 C660 1.391 . S
C662 C663 1.400 . S
C663 C662 1.400 . S
C663 C664 1.398 . S
C663 C669 1.491 . S
C664 H655 0.950 . S
C664 C663 1.398 . S
C664 C665 1.391 . S
C665 H653 0.950 . S
C665 C661 1.393 . S
C665 C664 1.391 . S
C666 H656 0.950 . S
C666 C667 1.386 . S
C666 C668 1.391 . S
C667 C666 1.386 . S
C667 C671 1.393 . S
C668 H657 0.950 . S
C668 C666 1.391 . S
C668 C669 1.400 . S
C669 C663 1.491 . S
C669 C668 1.400 . S
C669 C670 1.398 . S
C670 H658 0.950 . S
C670 C669 1.398 . S
C670 C671 1.391 . S
C671 H659 0.950 . S
C671 C667 1.393 . S
C671 C670 1.391 . S
H672 C680 0.950 . S
H673 C685 0.950 . S
H674 C682 0.950 . S
H675 C684 0.950 . S
H676 C686 0.950 . S
H677 C688 0.950 . S
H678 C690 0.950 . S
H679 C691 0.950 . S
C680 H672 0.950 . S
C680 C681 1.386 . S
C680 C682 1.391 . S
C681 C680 1.386 . S
C681 C685 1.393 . S
C682 H674 0.950 . S
C682 C680 1.391 . S
C682 C683 1.400 . S
C683 C682 1.400 . S
C683 C684 1.398 . S
C683 C689 1.491 . S
C684 H675 0.950 . S
C684 C683 1.398 . S
C684 C685 1.391 . S
C685 H673 0.950 . S
C685 C681 1.393 . S
C685 C684 1.391 . S
C686 H676 0.950 . S
C686 C687 1.386 . S
C686 C688 1.391 . S
C687 C686 1.386 . S
C687 C691 1.393 . S
C688 H677 0.950 . S
C688 C686 1.391 . S
C688 C689 1.400 . S
C689 C683 1.491 . S
C689 C688 1.400 . S
C689 C690 1.398 . S
C690 H678 0.950 . S
C690 C689 1.398 . S
C690 C691 1.391 . S
C691 H679 0.950 . S
C691 C687 1.393 . S
C691 C690 1.391 . S
H692 C700 0.950 . S
H693 C705 0.950 . S
H694 C702 0.950 . S
H695 C704 0.950 . S
H696 C706 0.950 . S
H697 C708 0.950 . S
H698 C710 0.950 . S
H699 C711 0.950 . S
C700 H692 0.950 . S
C700 C701 1.386 . S
C700 C702 1.391 . S
C701 C700 1.386 . S
C701 C705 1.393 . S
C702 H694 0.950 . S
C702 C700 1.391 . S
C702 C703 1.400 . S
C703 C702 1.400 . S
C703 C704 1.398 . S
C703 C709 1.491 . S
C704 H695 0.950 . S
C704 C703 1.398 . S
C704 C705 1.391 . S
C705 H693 0.950 . S
C705 C701 1.393 . S
C705 C704 1.391 . S
C706 H696 0.950 . S
C706 C707 1.386 . S
C706 C708 1.391 . S
C707 C706 1.386 . S
C707 C711 1.393 . S
C708 H697 0.950 . S
C708 C706 1.391 . S
C708 C709 1.400 . S
C709 C703 1.491 . S
C709 C708 1.400 . S
C709 C710 1.398 . S
C710 H698 0.950 . S
C710 C709 1.398 . S
C710 C711 1.391 . S
C711 H699 0.950 . S
C711 C707 1.393 . S
C711 C710 1.391 . S
H712 C720 0.950 . S
H713 C725 0.950 . S
H714 C722 0.950 . S
H715 C724 0.950 . S
H716 C726 0.950 . S
H717 C728 0.950 . S
H718 C730 0.950 . S
H719 C731 0.950 . S
C720 H712 0.950 . S
C720 C721 1.386 . S
C720 C722 1.391 . S
C721 C720 1.386 . S
C721 C725 1.393 . S
C722 H714 0.950 . S
C722 C720 1.391 . S
C722 C723 1.400 . S
C723 C722 1.400 . S
C723 C724 1.398 . S
C723 C729 1.491 . S
C724 H715 0.950 . S
C724 C723 1.398 . S
C724 C725 1.391 . S
C725 H713 0.950 . S
C725 C721 1.393 . S
C725 C724 1.391 . S
C726 H716 0.950 . S
C726 C727 1.386 . S
C726 C728 1.391 . S
C727 C726 1.386 . S
C727 C731 1.393 . S
C728 H717 0.950 . S
C728 C726 1.391 . S
C728 C729 1.400 . S
C729 C723 1.491 . S
C729 C728 1.400 . S
C729 C730 1.398 . S
C730 H718 0.950 . S
C730 C729 1.398 . S
C730 C731 1.391 . S
C731 H719 0.950 . S
C731 C727 1.393 . S
C731 C730 1.391 . S
H732 C740 0.950 . S
H733 C745 0.950 . S
H734 C742 0.950 . S
H735 C744 0.950 . S
H736 C746 0.950 . S
H737 C748 0.950 . S
H738 C750 0.950 . S
H739 C751 0.950 . S
C740 H732 0.950 . S
C740 C741 1.386 . S
C740 C742 1.391 . S
C741 C740 1.386 . S
C741 C745 1.393 . S
C742 H734 0.950 . S
C742 C740 1.391 . S
C742 C743 1.400 . S
C743 C742 1.400 . S
C743 C744 1.398 . S
C743 C749 1.491 1_554 S
C744 H735 0.950 . S
C744 C743 1.398 . S
C744 C745 1.391 . S
C745 H733 0.950 . S
C745 C741 1.393 . S
C745 C744 1.391 . S
C746 H736 0.950 . S
C746 C747 1.386 . S
C746 C748 1.391 . S
C747 C746 1.386 . S
C747 C751 1.393 . S
C748 H737 0.950 . S
C748 C746 1.391 . S
C748 C749 1.400 . S
C749 C743 1.491 1_556 S
C749 C748 1.400 . S
C749 C750 1.398 . S
C750 H738 0.950 . S
C750 C749 1.398 . S
C750 C751 1.391 . S
C751 H739 0.950 . S
C751 C747 1.393 . S
C751 C750 1.391 . S
H752 C760 0.950 . S
H753 C765 0.950 . S
H754 C762 0.950 . S
H755 C764 0.950 . S
H756 C766 0.950 . S
H757 C768 0.950 . S
H758 C770 0.950 . S
H759 C771 0.950 . S
C760 H752 0.950 . S
C760 C761 1.386 . S
C760 C762 1.391 . S
C761 C760 1.386 . S
C761 C765 1.393 . S
C762 H754 0.950 . S
C762 C760 1.391 . S
C762 C763 1.400 . S
C763 C762 1.400 . S
C763 C764 1.398 . S
C763 C769 1.491 1_554 S
C764 H755 0.950 . S
C764 C763 1.398 . S
C764 C765 1.391 . S
C765 H753 0.950 . S
C765 C761 1.393 . S
C765 C764 1.391 . S
C766 H756 0.950 . S
C766 C767 1.386 . S
C766 C768 1.391 . S
C767 C766 1.386 . S
C767 C771 1.393 . S
C768 H757 0.950 . S
C768 C766 1.391 . S
C768 C769 1.400 . S
C769 C763 1.491 1_556 S
C769 C768 1.400 . S
C769 C770 1.398 . S
C770 H758 0.950 . S
C770 C769 1.398 . S
C770 C771 1.391 . S
C771 H759 0.950 . S
C771 C767 1.393 . S
C771 C770 1.391 . S
H772 C780 0.950 . S
H773 C785 0.950 . S
H774 C782 0.950 . S
H775 C784 0.950 . S
H776 C786 0.950 . S
H777 C788 0.950 . S
H778 C790 0.950 . S
H779 C791 0.950 . S
C780 H772 0.950 . S
C780 C781 1.386 . S
C780 C782 1.391 . S
C781 C780 1.386 . S
C781 C785 1.393 . S
C782 H774 0.950 . S
C782 C780 1.391 . S
C782 C783 1.400 . S
C783 C782 1.400 . S
C783 C784 1.398 . S
C783 C789 1.491 1_556 S
C784 H775 0.950 . S
C784 C783 1.398 . S
C784 C785 1.391 . S
C785 H773 0.950 . S
C785 C781 1.393 . S
C785 C784 1.391 . S
C786 H776 0.950 . S
C786 C787 1.386 . S
C786 C788 1.391 . S
C787 C786 1.386 . S
C787 C791 1.393 . S
C788 H777 0.950 . S
C788 C786 1.391 . S
C788 C789 1.400 . S
C789 C783 1.491 1_554 S
C789 C788 1.400 . S
C789 C790 1.398 . S
C790 H778 0.950 . S
C790 C789 1.398 . S
C790 C791 1.391 . S
C791 H779 0.950 . S
C791 C787 1.393 . S
C791 C790 1.391 . S
H792 C800 0.950 . S
H793 C805 0.950 . S
H794 C802 0.950 . S
H795 C804 0.950 . S
H796 C806 0.950 . S
H797 C808 0.950 . S
H798 C810 0.950 . S
H799 C811 0.950 . S
C800 H792 0.950 . S
C800 C801 1.386 . S
C800 C802 1.391 . S
C801 C800 1.386 . S
C801 C805 1.393 . S
C802 H794 0.950 . S
C802 C800 1.391 . S
C802 C803 1.400 . S
C803 C802 1.400 . S
C803 C804 1.398 . S
C803 C809 1.491 . S
C804 H795 0.950 . S
C804 C803 1.398 . S
C804 C805 1.391 . S
C805 H793 0.950 . S
C805 C801 1.393 . S
C805 C804 1.391 . S
C806 H796 0.950 . S
C806 C807 1.386 . S
C806 C808 1.391 . S
C807 C806 1.386 . S
C807 C811 1.393 . S
C808 H797 0.950 . S
C808 C806 1.391 . S
C808 C809 1.400 . S
C809 C803 1.491 . S
C809 C808 1.400 . S
C809 C810 1.398 . S
C810 H798 0.950 . S
C810 C809 1.398 . S
C810 C811 1.391 . S
C811 H799 0.950 . S
C811 C807 1.393 . S
C811 C810 1.391 . S
H812 C820 0.950 . S
H813 C825 0.950 . S
H814 C822 0.950 . S
H815 C824 0.950 . S
H816 C826 0.950 . S
H817 C828 0.950 . S
H818 C830 0.950 . S
H819 C831 0.950 . S
C820 H812 0.950 . S
C820 C821 1.386 . S
C820 C822 1.391 . S
C821 C820 1.386 . S
C821 C825 1.393 . S
C822 H814 0.950 . S
C822 C820 1.391 . S
C822 C823 1.400 . S
C823 C822 1.400 . S
C823 C824 1.398 . S
C823 C829 1.491 . S
C824 H815 0.950 . S
C824 C823 1.398 . S
C824 C825 1.391 . S
C825 H813 0.950 . S
C825 C821 1.393 . S
C825 C824 1.391 . S
C826 H816 0.950 . S
C826 C827 1.386 . S
C826 C828 1.391 . S
C827 C826 1.386 . S
C827 C831 1.393 . S
C828 H817 0.950 . S
C828 C826 1.391 . S
C828 C829 1.400 . S
C829 C823 1.491 . S
C829 C828 1.400 . S
C829 C830 1.398 . S
C830 H818 0.950 . S
C830 C829 1.398 . S
C830 C831 1.391 . S
C831 H819 0.950 . S
C831 C827 1.393 . S
C831 C830 1.391 . S
H832 C840 0.950 . S
H833 C845 0.950 . S
H834 C842 0.950 . S
H835 C844 0.950 . S
H836 C846 0.950 . S
H837 C848 0.950 . S
H838 C850 0.950 . S
H839 C851 0.950 . S
C840 H832 0.950 . S
C840 C841 1.386 . S
C840 C842 1.391 . S
C841 C840 1.386 . S
C841 C845 1.393 . S
C842 H834 0.950 . S
C842 C840 1.391 . S
C842 C843 1.400 . S
C843 C842 1.400 . S
C843 C844 1.398 . S
C843 C849 1.491 . S
C844 H835 0.950 . S
C844 C843 1.398 . S
C844 C845 1.391 . S
C845 H833 0.950 . S
C845 C841 1.393 . S
C845 C844 1.391 . S
C846 H836 0.950 . S
C846 C847 1.386 . S
C846 C848 1.391 . S
C847 C846 1.386 . S
C847 C851 1.393 . S
C848 H837 0.950 . S
C848 C846 1.391 . S
C848 C849 1.400 . S
C849 C843 1.491 . S
C849 C848 1.400 . S
C849 C850 1.398 . S
C850 H838 0.950 . S
C850 C849 1.398 . S
C850 C851 1.391 . S
C851 H839 0.950 . S
C851 C847 1.393 . S
C851 C850 1.391 . S
H852 C860 0.950 . S
H853 C865 0.950 . S
H854 C862 0.950 . S
H855 C864 0.950 . S
H856 C866 0.950 . S
H857 C868 0.950 . S
H858 C870 0.950 . S
H859 C871 0.950 . S
C860 H852 0.950 . S
C860 C861 1.386 . S
C860 C862 1.391 . S
C861 C860 1.386 . S
C861 C865 1.393 . S
C862 H854 0.950 . S
C862 C860 1.391 . S
C862 C863 1.400 . S
C863 C862 1.400 . S
C863 C864 1.398 . S
C863 C869 1.491 . S
C864 H855 0.950 . S
C864 C863 1.398 . S
C864 C865 1.391 . S
C865 H853 0.950 . S
C865 C861 1.393 . S
C865 C864 1.391 . S
C866 H856 0.950 . S
C866 C867 1.386 . S
C866 C868 1.391 . S
C867 C866 1.386 . S
C867 C871 1.393 . S
C868 H857 0.950 . S
C868 C866 1.391 . S
C868 C869 1.400 . S
C869 C863 1.491 . S
C869 C868 1.400 . S
C869 C870 1.398 . S
C870 H858 0.950 . S
C870 C869 1.398 . S
C870 C871 1.391 . S
C871 H859 0.950 . S
C871 C867 1.393 . S
C871 C870 1.391 . S
H872 C880 0.950 . S
H873 C885 0.950 . S
H874 C882 0.950 . S
H875 C884 0.950 . S
H876 C886 0.950 . S
H877 C888 0.950 . S
H878 C890 0.950 . S
H879 C891 0.950 . S
C880 H872 0.950 . S
C880 C881 1.386 . S
C880 C882 1.391 . S
C881 C880 1.386 . S
C881 C885 1.393 . S
C882 H874 0.950 . S
C882 C880 1.391 . S
C882 C883 1.400 . S
C883 C882 1.400 . S
C883 C884 1.398 . S
C883 C889 1.491 . S
C884 H875 0.950 . S
C884 C883 1.398 . S
C884 C885 1.391 . S
C885 H873 0.950 . S
C885 C881 1.393 . S
C885 C884 1.391 . S
C886 H876 0.950 . S
C886 C887 1.386 . S
C886 C888 1.391 . S
C887 C886 1.386 . S
C887 C891 1.393 . S
C888 H877 0.950 . S
C888 C886 1.391 . S
C888 C889 1.400 . S
C889 C883 1.491 . S
C889 C888 1.400 . S
C889 C890 1.398 . S
C890 H878 0.950 . S
C890 C889 1.398 . S
C890 C891 1.391 . S
C891 H879 0.950 . S
C891 C887 1.393 . S
C891 C890 1.391 . S
H892 C900 0.950 . S
H893 C905 0.950 . S
H894 C902 0.950 . S
H895 C904 0.950 . S
H896 C906 0.950 . S
H897 C908 0.950 . S
H898 C910 0.950 . S
H899 C911 0.950 . S
C900 H892 0.950 . S
C900 C901 1.386 . S
C900 C902 1.391 . S
C901 C900 1.386 . S
C901 C905 1.393 . S
C902 H894 0.950 . S
C902 C900 1.391 . S
C902 C903 1.400 . S
C903 C902 1.400 . S
C903 C904 1.398 . S
C903 C909 1.491 . S
C904 H895 0.950 . S
C904 C903 1.398 . S
C904 C905 1.391 . S
C905 H893 0.950 . S
C905 C901 1.393 . S
C905 C904 1.391 . S
C906 H896 0.950 . S
C906 C907 1.386 . S
C906 C908 1.391 . S
C907 C906 1.386 . S
C907 C911 1.393 . S
C908 H897 0.950 . S
C908 C906 1.391 . S
C908 C909 1.400 . S
C909 C903 1.491 . S
C909 C908 1.400 . S
C909 C910 1.398 . S
C910 H898 0.950 . S
C910 C909 1.398 . S
C910 C911 1.391 . S
C911 H899 0.950 . S
C911 C907 1.393 . S
C911 C910 1.391 . S
H912 C920 0.950 . S
H913 C925 0.950 . S
H914 C922 0.950 . S
H915 C924 0.950 . S
H916 C926 0.950 . S
H917 C928 0.950 . S
H918 C930 0.950 . S
H919 C931 0.950 . S
C920 H912 0.950 . S
C920 C921 1.386 . S
C920 C922 1.391 . S
C921 C920 1.386 . S
C921 C925 1.393 . S
C922 H914 0.950 . S
C922 C920 1.391 . S
C922 C923 1.400 . S
C923 C922 1.400 . S
C923 C924 1.398 . S
C923 C929 1.491 1_554 S
C924 H915 0.950 . S
C924 C923 1.398 . S
C924 C925 1.391 . S
C925 H913 0.950 . S
C925 C921 1.393 . S
C925 C924 1.391 . S
C926 H916 0.950 . S
C926 C927 1.386 . S
C926 C928 1.391 . S
C927 C926 1.386 . S
C927 C931 1.393 . S
C928 H917 0.950 . S
C928 C926 1.391 . S
C928 C929 1.400 . S
C929 C923 1.491 1_556 S
C929 C928 1.400 . S
C929 C930 1.398 . S
C930 H918 0.950 . S
C930 C929 1.398 . S
C930 C931 1.391 . S
C931 H919 0.950 . S
C931 C927 1.393 . S
C931 C930 1.391 . S
H932 C940 0.950 . S
H933 C945 0.950 . S
H934 C942 0.950 . S
H935 C944 0.950 . S
H936 C946 0.950 . S
H937 C948 0.950 . S
H938 C950 0.950 . S
H939 C951 0.950 . S
C940 H932 0.950 . S
C940 C941 1.386 . S
C940 C942 1.391 . S
C941 C940 1.386 . S
C941 C945 1.393 . S
C942 H934 0.950 . S
C942 C940 1.391 . S
C942 C943 1.400 . S
C943 C942 1.400 . S
C943 C944 1.398 . S
C943 C949 1.491 1_554 S
C944 H935 0.950 . S
C944 C943 1.398 . S
C944 C945 1.391 . S
C945 H933 0.950 . S
C945 C941 1.393 . S
C945 C944 1.391 . S
C946 H936 0.950 . S
C946 C947 1.386 . S
C946 C948 1.391 . S
C947 C946 1.386 . S
C947 C951 1.393 . S
C948 H937 0.950 . S
C948 C946 1.391 . S
C948 C949 1.400 . S
C949 C943 1.491 1_556 S
C949 C948 1.400 . S
C949 C950 1.398 . S
C950 H938 0.950 . S
C950 C949 1.398 . S
C950 C951 1.391 . S
C951 H939 0.950 . S
C951 C947 1.393 . S
C951 C950 1.391 . S
H952 C960 0.950 . S
H953 C965 0.950 . S
H954 C962 0.950 . S
H955 C964 0.950 . S
H956 C966 0.950 . S
H957 C968 0.950 . S
H958 C970 0.950 . S
H959 C971 0.950 . S
C960 H952 0.950 . S
C960 C961 1.386 . S
C960 C962 1.391 . S
C961 C960 1.386 . S
C961 C965 1.393 . S
C962 H954 0.950 . S
C962 C960 1.391 . S
C962 C963 1.400 . S
C963 C962 1.400 . S
C963 C964 1.398 . S
C963 C969 1.491 1_556 S
C964 H955 0.950 . S
C964 C963 1.398 . S
C964 C965 1.391 . S
C965 H953 0.950 . S
C965 C961 1.393 . S
C965 C964 1.391 . S
C966 H956 0.950 . S
C966 C967 1.386 . S
C966 C968 1.391 . S
C967 C966 1.386 . S
C967 C971 1.393 . S
C968 H957 0.950 . S
C968 C966 1.391 . S
C968 C969 1.400 . S
C969 C963 1.491 1_554 S
C969 C968 1.400 . S
C969 C970 1.398 . S
C970 H958 0.950 . S
C970 C969 1.398 . S
C970 C971 1.391 . S
C971 H959 0.950 . S
C971 C967 1.393 . S
C971 C970 1.391 . S
H972 C980 0.950 . S
H973 C985 0.950 . S
H974 C982 0.950 . S
H975 C984 0.950 . S
H976 C986 0.950 . S
H977 C988 0.950 . S
H978 C990 0.950 . S
H979 C991 0.950 . S
C980 H972 0.950 . S
C980 C981 1.386 . S
C980 C982 1.391 . S
C981 C980 1.386 . S
C981 C985 1.393 . S
C982 H974 0.950 . S
C982 C980 1.391 . S
C982 C983 1.400 . S
C983 C982 1.400 . S
C983 C984 1.398 . S
C983 C989 1.491 . S
C984 H975 0.950 . S
C984 C983 1.398 . S
C984 C985 1.391 . S
C985 H973 0.950 . S
C985 C981 1.393 . S
C985 C984 1.391 . S
C986 H976 0.950 . S
C986 C987 1.386 . S
C986 C988 1.391 . S
C987 C986 1.386 . S
C987 C991 1.393 . S
C988 H977 0.950 . S
C988 C986 1.391 . S
C988 C989 1.400 . S
C989 C983 1.491 . S
C989 C988 1.400 . S
C989 C990 1.398 . S
C990 H978 0.950 . S
C990 C989 1.398 . S
C990 C991 1.391 . S
C991 H979 0.950 . S
C991 C987 1.393 . S
C991 C990 1.391 . S
H992 C1000 0.950 . S
H993 C1005 0.950 . S
H994 C1002 0.950 . S
H995 C1004 0.950 . S
H996 C1006 0.950 . S
H997 C1008 0.950 . S
H998 C1010 0.950 . S
H999 C1011 0.950 . S
C1000 H992 0.950 . S
C1000 C1001 1.386 . S
C1000 C1002 1.391 . S
C1001 C1000 1.386 . S
C1001 C1005 1.393 . S
C1002 H994 0.950 . S
C1002 C1000 1.391 . S
C1002 C1003 1.400 . S
C1003 C1002 1.400 . S
C1003 C1004 1.398 . S
C1003 C1009 1.491 . S
C1004 H995 0.950 . S
C1004 C1003 1.398 . S
C1004 C1005 1.391 . S
C1005 H993 0.950 . S
C1005 C1001 1.393 . S
C1005 C1004 1.391 . S
C1006 H996 0.950 . S
C1006 C1007 1.386 . S
C1006 C1008 1.391 . S
C1007 C1006 1.386 . S
C1007 C1011 1.393 . S
C1008 H997 0.950 . S
C1008 C1006 1.391 . S
C1008 C1009 1.400 . S
C1009 C1003 1.491 . S
C1009 C1008 1.400 . S
C1009 C1010 1.398 . S
C1010 H998 0.950 . S
C1010 C1009 1.398 . S
C1010 C1011 1.391 . S
C1011 H999 0.950 . S
C1011 C1007 1.393 . S
C1011 C1010 1.391 . S
H1012 C1020 0.950 . S
H1013 C1025 0.950 . S
H1014 C1022 0.950 . S
H1015 C1024 0.950 . S
H1016 C1026 0.950 . S
H1017 C1028 0.950 . S
H1018 C1030 0.950 . S
H1019 C1031 0.950 . S
C1020 H1012 0.950 . S
C1020 C1021 1.386 . S
C1020 C1022 1.391 . S
C1021 C1020 1.386 . S
C1021 C1025 1.393 . S
C1022 H1014 0.950 . S
C1022 C1020 1.391 . S
C1022 C1023 1.400 . S
C1023 C1022 1.400 . S
C1023 C1024 1.398 . S
C1023 C1029 1.491 . S
C1024 H1015 0.950 . S
C1024 C1023 1.398 . S
C1024 C1025 1.391 . S
C1025 H1013 0.950 . S
C1025 C1021 1.393 . S
C1025 C1024 1.391 . S
C1026 H1016 0.950 . S
C1026 C1027 1.386 . S
C1026 C1028 1.391 . S
C1027 C1026 1.386 . S
C1027 C1031 1.393 . S
C1028 H1017 0.950 . S
C1028 C1026 1.391 . S
C1028 C1029 1.400 . S
C1029 C1023 1.491 . S
C1029 C1028 1.400 . S
C1029 C1030 1.398 . S
C1030 H1018 0.950 . S
C1030 C1029 1.398 . S
C1030 C1031 1.391 . S
C1031 H1019 0.950 . S
C1031 C1027 1.393 . S
C1031 C1030 1.391 . S
H1032 C1040 0.950 . S
H1033 C1045 0.950 . S
H1034 C1042 0.950 . S
H1035 C1044 0.950 . S
H1036 C1046 0.950 . S
H1037 C1048 0.950 . S
H1038 C1050 0.950 . S
H1039 C1051 0.950 . S
C1040 H1032 0.950 . S
C1040 C1041 1.386 . S
C1040 C1042 1.391 . S
C1041 C1040 1.386 . S
C1041 C1045 1.393 . S
C1042 H1034 0.950 . S
C1042 C1040 1.391 . S
C1042 C1043 1.400 . S
C1043 C1042 1.400 . S
C1043 C1044 1.398 . S
C1043 C1049 1.491 . S
C1044 H1035 0.950 . S
C1044 C1043 1.398 . S
C1044 C1045 1.391 . S
C1045 H1033 0.950 . S
C1045 C1041 1.393 . S
C1045 C1044 1.391 . S
C1046 H1036 0.950 . S
C1046 C1047 1.386 . S
C1046 C1048 1.391 . S
C1047 C1046 1.386 . S
C1047 C1051 1.393 . S
C1048 H1037 0.950 . S
C1048 C1046 1.391 . S
C1048 C1049 1.400 . S
C1049 C1043 1.491 . S
C1049 C1048 1.400 . S
C1049 C1050 1.398 . S
C1050 H1038 0.950 . S
C1050 C1049 1.398 . S
C1050 C1051 1.391 . S
C1051 H1039 0.950 . S
C1051 C1047 1.393 . S
C1051 C1050 1.391 . S
H1052 C1060 0.950 . S
H1053 C1065 0.950 . S
H1054 C1062 0.950 . S
H1055 C1064 0.950 . S
H1056 C1066 0.950 . S
H1057 C1068 0.950 . S
H1058 C1070 0.950 . S
H1059 C1071 0.950 . S
C1060 H1052 0.950 . S
C1060 C1061 1.386 . S
C1060 C1062 1.391 . S
C1061 C1060 1.386 . S
C1061 C1065 1.393 . S
C1062 H1054 0.950 . S
C1062 C1060 1.391 . S
C1062 C1063 1.400 . S
C1063 C1062 1.400 . S
C1063 C1064 1.398 . S
C1063 C1069 1.491 . S
C1064 H1055 0.950 . S
C1064 C1063 1.398 . S
C1064 C1065 1.391 . S
C1065 H1053 0.950 . S
C1065 C1061 1.393 . S
C1065 C1064 1.391 . S
C1066 H1056 0.950 . S
C1066 C1067 1.386 . S
C1066 C1068 1.391 . S
C1067 C1066 1.386 . S
C1067 C1071 1.393 . S
C1068 H1057 0.950 . S
C1068 C1066 1.391 . S
C1068 C1069 1.400 . S
C1069 C1063 1.491 . S
C1069 C1068 1.400 . S
C1069 C1070 1.398 . S
C1070 H1058 0.950 . S
C1070 C1069 1.398 . S
C1070 C1071 1.391 . S
C1071 H1059 0.950 . S
C1071 C1067 1.393 . S
C1071 C1070 1.391 . S
H1072 C1080 0.950 . S
H1073 C1085 0.950 . S
H1074 C1082 0.950 . S
H1075 C1084 0.950 . S
H1076 C1086 0.950 . S
H1077 C1088 0.950 . S
H1078 C1090 0.950 . S
H1079 C1091 0.950 . S
C1080 H1072 0.950 . S
C1080 C1081 1.386 . S
C1080 C1082 1.391 . S
C1081 C1080 1.386 . S
C1081 C1085 1.393 . S
C1082 H1074 0.950 . S
C1082 C1080 1.391 . S
C1082 C1083 1.400 . S
C1083 C1082 1.400 . S
C1083 C1084 1.398 . S
C1083 C1089 1.491 . S
C1084 H1075 0.950 . S
C1084 C1083 1.398 . S
C1084 C1085 1.391 . S
C1085 H1073 0.950 . S
C1085 C1081 1.393 . S
C1085 C1084 1.391 . S
C1086 H1076 0.950 . S
C1086 C1087 1.386 . S
C1086 C1088 1.391 . S
C1087 C1086 1.386 . S
C1087 C1091 1.393 . S
C1088 H1077 0.950 . S
C1088 C1086 1.391 . S
C1088 C1089 1.400 . S
C1089 C1083 1.491 . S
C1089 C1088 1.400 . S
C1089 C1090 1.398 . S
C1090 H1078 0.950 . S
C1090 C1089 1.398 . S
C1090 C1091 1.391 . S
C1091 H1079 0.950 . S
C1091 C1087 1.393 . S
C1091 C1090 1.391 . S
H1092 C1100 0.950 . S
H1093 C1105 0.950 . S
H1094 C1102 0.945 1_556 S
H1095 C1104 0.950 . S
H1096 C1106 0.950 . S
H1097 C1108 0.945 1_554 S
H1098 C1110 0.950 . S
H1099 C1111 0.950 . S
C1100 H1092 0.950 . S
C1100 C1101 1.386 . S
C1100 C1102 1.391 . S
C1101 C1100 1.386 . S
C1101 C1105 1.393 . S
C1102 H1094 0.945 1_554 S
C1102 C1100 1.391 . S
C1102 C1103 1.400 . S
C1103 C1102 1.400 . S
C1103 C1104 1.398 . S
C1103 C1109 1.491 1_654 S
C1104 H1095 0.950 . S
C1104 C1103 1.398 . S
C1104 C1105 1.391 . S
C1105 H1093 0.950 . S
C1105 C1101 1.393 . S
C1105 C1104 1.391 . S
C1106 H1096 0.950 . S
C1106 C1107 1.386 . S
C1106 C1108 1.391 . S
C1107 C1106 1.386 . S
C1107 C1111 1.393 . S
C1108 H1097 0.945 1_556 S
C1108 C1106 1.391 . S
C1108 C1109 1.400 . S
C1109 C1103 1.491 1_456 S
C1109 C1108 1.400 . S
C1109 C1110 1.398 . S
C1110 H1098 0.950 . S
C1110 C1109 1.398 . S
C1110 C1111 1.391 . S
C1111 H1099 0.950 . S
C1111 C1107 1.393 . S
C1111 C1110 1.391 . S
H1112 C1120 0.950 . S
H1113 C1125 0.950 . S
H1114 C1122 0.950 . S
H1115 C1124 0.950 . S
H1116 C1126 0.950 . S
H1117 C1128 0.950 . S
H1118 C1130 0.950 . S
H1119 C1131 0.950 . S
C1120 H1112 0.950 . S
C1120 C1121 1.386 . S
C1120 C1122 1.391 1_556 S
C1121 C1120 1.386 . S
C1121 C1125 1.393 . S
C1122 H1114 0.950 . S
C1122 C1120 1.391 1_554 S
C1122 C1123 1.400 1_554 S
C1123 C1122 1.400 1_556 S
C1123 C1124 1.398 . S
C1123 C1129 1.491 1_556 S
C1124 H1115 0.950 . S
C1124 C1123 1.398 . S
C1124 C1125 1.391 . S
C1125 H1113 0.950 . S
C1125 C1121 1.393 . S
C1125 C1124 1.391 . S
C1126 H1116 0.950 . S
C1126 C1127 1.386 . S
C1126 C1128 1.391 1_554 S
C1127 C1126 1.386 . S
C1127 C1131 1.393 . S
C1128 H1117 0.950 . S
C1128 C1126 1.391 1_556 S
C1128 C1129 1.400 1_556 S
C1129 C1123 1.491 1_554 S
C1129 C1128 1.400 1_554 S
C1129 C1130 1.398 . S
C1130 H1118 0.950 . S
C1130 C1129 1.398 . S
C1130 C1131 1.391 . S
C1131 H1119 0.950 . S
C1131 C1127 1.393 . S
C1131 C1130 1.391 . S
H1132 C1140 0.950 . S
H1133 C1145 0.950 . S
H1134 C1142 0.946 1_556 S
H1135 C1144 0.950 . S
H1136 C1146 0.950 . S
H1137 C1148 0.946 1_554 S
H1138 C1150 0.950 . S
H1139 C1151 0.950 . S
C1140 H1132 0.950 . S
C1140 C1141 1.386 . S
C1140 C1142 1.394 . S
C1141 C1140 1.386 . S
C1141 C1145 1.393 . S
C1142 H1134 0.946 1_554 S
C1142 C1140 1.394 . S
C1142 C1143 1.402 . S
C1143 C1142 1.402 . S
C1143 C1144 1.398 . S
C1143 C1149 1.491 1_544 S
C1144 H1135 0.950 . S
C1144 C1143 1.398 . S
C1144 C1145 1.391 . S
C1145 H1133 0.950 . S
C1145 C1141 1.393 . S
C1145 C1144 1.391 . S
C1146 H1136 0.950 . S
C1146 C1147 1.386 . S
C1146 C1148 1.394 . S
C1147 C1146 1.386 . S
C1147 C1151 1.393 . S
C1148 H1137 0.946 1_556 S
C1148 C1146 1.394 . S
C1148 C1149 1.401 . S
C1149 C1143 1.491 1_566 S
C1149 C1148 1.401 . S
C1149 C1150 1.398 . S
C1150 H1138 0.950 . S
C1150 C1149 1.398 . S
C1150 C1151 1.391 . S
C1151 H1139 0.950 . S
C1151 C1147 1.393 . S
C1151 C1150 1.391 . S
H1152 C1160 0.950 . S
H1153 C1165 0.950 . S
H1154 C1162 0.950 . S
H1155 C1164 0.950 1_556 S
H1156 C1166 0.950 . S
H1157 C1168 0.950 . S
H1158 C1170 0.950 1_554 S
H1159 C1171 0.950 . S
C1160 H1152 0.950 . S
C1160 C1161 1.386 . S
C1160 C1162 1.391 . S
C1161 C1160 1.386 . S
C1161 C1165 1.393 . S
C1162 H1154 0.950 . S
C1162 C1160 1.391 . S
C1162 C1163 1.400 . S
C1163 C1162 1.400 . S
C1163 C1164 1.398 . S
C1163 C1169 1.491 1_554 S
C1164 H1155 0.950 1_554 S
C1164 C1163 1.398 . S
C1164 C1165 1.391 . S
C1165 H1153 0.950 . S
C1165 C1161 1.393 . S
C1165 C1164 1.391 . S
C1166 H1156 0.950 . S
C1166 C1167 1.386 . S
C1166 C1168 1.391 . S
C1167 C1166 1.386 . S
C1167 C1171 1.393 . S
C1168 H1157 0.950 . S
C1168 C1166 1.391 . S
C1168 C1169 1.400 . S
C1169 C1163 1.491 1_556 S
C1169 C1168 1.400 . S
C1169 C1170 1.398 . S
C1170 H1158 0.950 1_556 S
C1170 C1169 1.398 . S
C1170 C1171 1.391 . S
C1171 H1159 0.950 . S
C1171 C1167 1.393 . S
C1171 C1170 1.391 . S
H1172 C1180 0.950 1_556 S
H1173 C1185 0.950 . S
H1174 C1182 0.950 . S
H1175 C1184 0.950 1_545 S
H1176 C1186 0.950 1_554 S
H1177 C1188 0.950 . S
H1178 C1190 0.950 1_565 S
H1179 C1191 0.950 . S
C1180 H1172 0.950 1_554 S
C1180 C1181 1.386 . S
C1180 C1182 1.391 1_554 S
C1181 C1180 1.386 . S
C1181 C1185 1.393 . S
C1182 H1174 0.950 . S
C1182 C1180 1.391 1_556 S
C1182 C1183 1.400 1_556 S
C1183 C1182 1.400 1_554 S
C1183 C1184 1.398 . S
C1183 C1189 1.491 1_564 S
C1184 H1175 0.950 1_565 S
C1184 C1183 1.398 . S
C1184 C1185 1.391 . S
C1185 H1173 0.950 . S
C1185 C1181 1.393 . S
C1185 C1184 1.391 . S
C1186 H1176 0.950 1_556 S
C1186 C1187 1.386 . S
C1186 C1188 1.391 1_556 S
C1187 C1186 1.386 . S
C1187 C1191 1.393 . S
C1188 H1177 0.950 . S
C1188 C1186 1.391 1_554 S
C1188 C1189 1.400 1_554 S
C1189 C1183 1.491 1_546 S
C1189 C1188 1.400 1_556 S
C1189 C1190 1.398 . S
C1190 H1178 0.950 1_545 S
C1190 C1189 1.398 . S
C1190 C1191 1.391 . S
C1191 H1179 0.950 . S
C1191 C1187 1.393 . S
C1191 C1190 1.391 . S
H1192 C1200 0.950 . S
H1193 C1205 0.950 . S
H1194 C1202 0.983 . S
H1195 C1204 0.950 . S
H1196 C1206 0.950 . S
H1197 C1208 0.983 . S
H1198 C1210 0.950 . S
H1199 C1211 0.950 . S
C1200 H1192 0.950 . S
C1200 C1201 1.386 . S
C1200 C1202 1.391 . S
C1201 C1200 1.386 . S
C1201 C1205 1.393 . S
C1202 H1194 0.983 . S
C1202 C1200 1.391 . S
C1202 C1203 1.400 . S
C1203 C1202 1.400 . S
C1203 C1204 1.398 1_556 S
C1203 C1209 1.491 1_656 S
C1204 H1195 0.950 . S
C1204 C1203 1.398 1_554 S
C1204 C1205 1.391 1_554 S
C1205 H1193 0.950 . S
C1205 C1201 1.393 . S
C1205 C1204 1.391 1_556 S
C1206 H1196 0.950 . S
C1206 C1207 1.386 . S
C1206 C1208 1.391 . S
C1207 C1206 1.386 . S
C1207 C1211 1.393 . S
C1208 H1197 0.983 . S
C1208 C1206 1.391 . S
C1208 C1209 1.400 . S
C1209 C1203 1.491 1_454 S
C1209 C1208 1.400 . S
C1209 C1210 1.398 1_554 S
C1210 H1198 0.950 . S
C1210 C1209 1.398 1_556 S
C1210 C1211 1.391 1_556 S
C1211 H1199 0.950 . S
C1211 C1207 1.393 . S
C1211 C1210 1.391 1_554 S
H1212 C1220 0.950 1_554 S
H1213 C1225 0.950 . S
H1214 C1222 0.950 . S
H1215 C1224 0.950 . S
H1216 C1226 0.950 1_556 S
H1217 C1228 0.950 . S
H1218 C1230 0.950 . S
H1219 C1231 0.950 . S
C1220 H1212 0.950 1_556 S
C1220 C1221 1.386 . S
C1220 C1222 1.391 1_556 S
C1221 C1220 1.386 . S
C1221 C1225 1.393 . S
C1222 H1214 0.950 . S
C1222 C1220 1.391 1_554 S
C1222 C1223 1.400 1_554 S
C1223 C1222 1.400 1_556 S
C1223 C1224 1.398 . S
C1223 C1229 1.491 1_556 S
C1224 H1215 0.950 . S
C1224 C1223 1.398 . S
C1224 C1225 1.391 . S
C1225 H1213 0.950 . S
C1225 C1221 1.393 . S
C1225 C1224 1.391 . S
C1226 H1216 0.950 1_554 S
C1226 C1227 1.386 . S
C1226 C1228 1.391 1_554 S
C1227 C1226 1.386 . S
C1227 C1231 1.393 . S
C1228 H1217 0.950 . S
C1228 C1226 1.391 1_556 S
C1228 C1229 1.400 1_556 S
C1229 C1223 1.491 1_554 S
C1229 C1228 1.400 1_554 S
C1229 C1230 1.398 . S
C1230 H1218 0.950 . S
C1230 C1229 1.398 . S
C1230 C1231 1.391 . S
C1231 H1219 0.950 . S
C1231 C1227 1.393 . S
C1231 C1230 1.391 . S
H1232 C1240 0.950 . S
H1233 C1245 0.950 . S
H1234 C1242 0.950 . S
H1235 C1244 0.950 . S
H1236 C1246 0.950 . S
H1237 C1248 0.950 . S
H1238 C1250 0.950 . S
H1239 C1251 0.950 . S
C1240 H1232 0.950 . S
C1240 C1241 1.386 . S
C1240 C1242 1.391 . S
C1241 C1240 1.386 . S
C1241 C1245 1.393 . S
C1242 H1234 0.950 . S
C1242 C1240 1.391 . S
C1242 C1243 1.400 . S
C1243 C1242 1.400 . S
C1243 C1244 1.398 . S
C1243 C1249 1.491 1_546 S
C1244 H1235 0.950 . S
C1244 C1243 1.398 . S
C1244 C1245 1.391 . S
C1245 H1233 0.950 . S
C1245 C1241 1.393 . S
C1245 C1244 1.391 . S
C1246 H1236 0.950 . S
C1246 C1247 1.386 . S
C1246 C1248 1.391 . S
C1247 C1246 1.386 . S
C1247 C1251 1.393 . S
C1248 H1237 0.950 . S
C1248 C1246 1.391 . S
C1248 C1249 1.400 . S
C1249 C1243 1.491 1_564 S
C1249 C1248 1.400 . S
C1249 C1250 1.398 . S
C1250 H1238 0.950 . S
C1250 C1249 1.398 . S
C1250 C1251 1.391 . S
C1251 H1239 0.950 . S
C1251 C1247 1.393 . S
C1251 C1250 1.391 . S
H1252 C1260 0.950 1_554 S
H1253 C1265 0.950 . S
H1254 C1262 0.950 . S
H1255 C1264 1.005 . S
H1256 C1266 0.950 1_556 S
H1257 C1268 0.950 . S
H1258 C1270 1.005 . S
H1259 C1271 0.950 . S
C1260 H1252 0.950 1_556 S
C1260 C1261 1.386 . S
C1260 C1262 1.391 1_556 S
C1261 C1260 1.386 . S
C1261 C1265 1.393 . S
C1262 H1254 0.950 . S
C1262 C1260 1.391 1_554 S
C1262 C1263 1.400 1_554 S
C1263 C1262 1.400 1_556 S
C1263 C1264 1.398 . S
C1263 C1269 1.491 1_656 S
C1264 H1255 1.005 . S
C1264 C1263 1.398 . S
C1264 C1265 1.391 . S
C1265 H1253 0.950 . S
C1265 C1261 1.393 . S
C1265 C1264 1.391 . S
C1266 H1256 0.950 1_554 S
C1266 C1267 1.386 . S
C1266 C1268 1.391 1_554 S
C1267 C1266 1.386 . S
C1267 C1271 1.393 . S
C1268 H1257 0.950 . S
C1268 C1266 1.391 1_556 S
C1268 C1269 1.400 1_556 S
C1269 C1263 1.491 1_454 S
C1269 C1268 1.400 1_554 S
C1269 C1270 1.398 . S
C1270 H1258 1.005 . S
C1270 C1269 1.398 . S
C1270 C1271 1.391 . S
C1271 H1259 0.950 . S
C1271 C1267 1.393 . S
C1271 C1270 1.391 . S
H1272 C1280 0.950 . S
H1273 C1285 0.950 . S
H1274 C1282 0.950 . S
H1275 C1284 0.950 . S
H1276 C1286 0.950 . S
H1277 C1288 0.950 . S
H1278 C1290 0.950 . S
H1279 C1291 0.950 . S
C1280 H1272 0.950 . S
C1280 C1281 1.386 . S
C1280 C1282 1.391 . S
C1281 C1280 1.386 . S
C1281 C1285 1.393 . S
C1282 H1274 0.950 . S
C1282 C1280 1.391 . S
C1282 C1283 1.400 . S
C1283 C1282 1.400 . S
C1283 C1284 1.398 . S
C1283 C1289 1.491 . S
C1284 H1275 0.950 . S
C1284 C1283 1.398 . S
C1284 C1285 1.391 . S
C1285 H1273 0.950 . S
C1285 C1281 1.393 . S
C1285 C1284 1.391 . S
C1286 H1276 0.950 . S
C1286 C1287 1.386 . S
C1286 C1288 1.391 . S
C1287 C1286 1.386 . S
C1287 C1291 1.393 . S
C1288 H1277 0.950 . S
C1288 C1286 1.391 . S
C1288 C1289 1.400 . S
C1289 C1283 1.491 . S
C1289 C1288 1.400 . S
C1289 C1290 1.398 . S
C1290 H1278 0.950 . S
C1290 C1289 1.398 . S
C1290 C1291 1.391 . S
C1291 H1279 0.950 . S
C1291 C1287 1.393 . S
C1291 C1290 1.391 . S
H1292 C1300 0.950 . S
H1293 C1305 0.950 . S
H1294 C1302 0.950 . S
H1295 C1304 0.950 . S
H1296 C1306 0.950 . S
H1297 C1308 0.950 . S
H1298 C1310 0.950 . S
H1299 C1311 0.950 . S
C1300 H1292 0.950 . S
C1300 C1301 1.386 . S
C1300 C1302 1.391 . S
C1301 C1300 1.386 . S
C1301 C1305 1.393 . S
C1302 H1294 0.950 . S
C1302 C1300 1.391 . S
C1302 C1303 1.400 . S
C1303 C1302 1.400 . S
C1303 C1304 1.398 . S
C1303 C1309 1.491 . S
C1304 H1295 0.950 . S
C1304 C1303 1.398 . S
C1304 C1305 1.391 . S
C1305 H1293 0.950 . S
C1305 C1301 1.393 . S
C1305 C1304 1.391 . S
C1306 H1296 0.950 . S
C1306 C1307 1.386 . S
C1306 C1308 1.391 . S
C1307 C1306 1.386 . S
C1307 C1311 1.393 . S
C1308 H1297 0.950 . S
C1308 C1306 1.391 . S
C1308 C1309 1.400 . S
C1309 C1303 1.491 . S
C1309 C1308 1.400 . S
C1309 C1310 1.398 . S
C1310 H1298 0.950 . S
C1310 C1309 1.398 . S
C1310 C1311 1.391 . S
C1311 H1299 0.950 . S
C1311 C1307 1.393 . S
C1311 C1310 1.391 . S
H1312 C1320 0.950 . S
H1313 C1325 0.950 . S
H1314 C1322 0.950 . S
H1315 C1324 0.950 . S
H1316 C1326 0.950 . S
H1317 C1328 0.950 . S
H1318 C1330 0.950 . S
H1319 C1331 0.950 . S
C1320 H1312 0.950 . S
C1320 C1321 1.386 . S
C1320 C1322 1.391 . S
C1321 C1320 1.386 . S
C1321 C1325 1.393 . S
C1322 H1314 0.950 . S
C1322 C1320 1.391 . S
C1322 C1323 1.400 . S
C1323 C1322 1.400 . S
C1323 C1324 1.398 . S
C1323 C1329 1.491 . S
C1324 H1315 0.950 . S
C1324 C1323 1.398 . S
C1324 C1325 1.391 . S
C1325 H1313 0.950 . S
C1325 C1321 1.393 . S
C1325 C1324 1.391 . S
C1326 H1316 0.950 . S
C1326 C1327 1.386 . S
C1326 C1328 1.391 . S
C1327 C1326 1.386 . S
C1327 C1331 1.393 . S
C1328 H1317 0.950 . S
C1328 C1326 1.391 . S
C1328 C1329 1.400 . S
C1329 C1323 1.491 . S
C1329 C1328 1.400 . S
C1329 C1330 1.398 . S
C1330 H1318 0.950 . S
C1330 C1329 1.398 . S
C1330 C1331 1.391 . S
C1331 H1319 0.950 . S
C1331 C1327 1.393 . S
C1331 C1330 1.391 . S
H1332 C1340 0.950 . S
H1333 C1345 0.950 . S
H1334 C1342 0.950 . S
H1335 C1344 0.950 . S
H1336 C1346 0.950 . S
H1337 C1348 0.950 . S
H1338 C1350 0.950 . S
H1339 C1351 0.950 . S
C1340 H1332 0.950 . S
C1340 C1341 1.386 . S
C1340 C1342 1.391 . S
C1341 C1340 1.386 . S
C1341 C1345 1.393 . S
C1342 H1334 0.950 . S
C1342 C1340 1.391 . S
C1342 C1343 1.400 . S
C1343 C1342 1.400 . S
C1343 C1344 1.398 . S
C1343 C1349 1.491 . S
C1344 H1335 0.950 . S
C1344 C1343 1.398 . S
C1344 C1345 1.391 . S
C1345 H1333 0.950 . S
C1345 C1341 1.393 . S
C1345 C1344 1.391 . S
C1346 H1336 0.950 . S
C1346 C1347 1.386 . S
C1346 C1348 1.391 . S
C1347 C1346 1.386 . S
C1347 C1351 1.393 . S
C1348 H1337 0.950 . S
C1348 C1346 1.391 . S
C1348 C1349 1.400 . S
C1349 C1343 1.491 . S
C1349 C1348 1.400 . S
C1349 C1350 1.398 . S
C1350 H1338 0.950 . S
C1350 C1349 1.398 . S
C1350 C1351 1.391 . S
C1351 H1339 0.950 . S
C1351 C1347 1.393 . S
C1351 C1350 1.391 . S
H1352 C1360 0.950 . S
H1353 C1365 0.950 . S
H1354 C1362 0.950 . S
H1355 C1364 0.950 . S
H1356 C1366 0.950 . S
H1357 C1368 0.950 . S
H1358 C1370 0.950 . S
H1359 C1371 0.950 . S
C1360 H1352 0.950 . S
C1360 C1361 1.386 . S
C1360 C1362 1.391 . S
C1361 C1360 1.386 . S
C1361 C1365 1.393 . S
C1362 H1354 0.950 . S
C1362 C1360 1.391 . S
C1362 C1363 1.400 . S
C1363 C1362 1.400 . S
C1363 C1364 1.398 . S
C1363 C1369 1.491 . S
C1364 H1355 0.950 . S
C1364 C1363 1.398 . S
C1364 C1365 1.391 . S
C1365 H1353 0.950 . S
C1365 C1361 1.393 . S
C1365 C1364 1.391 . S
C1366 H1356 0.950 . S
C1366 C1367 1.386 . S
C1366 C1368 1.391 . S
C1367 C1366 1.386 . S
C1367 C1371 1.393 . S
C1368 H1357 0.950 . S
C1368 C1366 1.391 . S
C1368 C1369 1.400 . S
C1369 C1363 1.491 . S
C1369 C1368 1.400 . S
C1369 C1370 1.398 . S
C1370 H1358 0.950 . S
C1370 C1369 1.398 . S
C1370 C1371 1.391 . S
C1371 H1359 0.950 . S
C1371 C1367 1.393 . S
C1371 C1370 1.391 . S
H1372 C1380 0.950 . S
H1373 C1385 0.950 . S
H1374 C1382 0.950 . S
H1375 C1384 0.950 . S
H1376 C1386 0.950 . S
H1377 C1388 0.950 . S
H1378 C1390 0.950 . S
H1379 C1391 0.950 . S
C1380 H1372 0.950 . S
C1380 C1381 1.386 . S
C1380 C1382 1.391 . S
C1381 C1380 1.386 . S
C1381 C1385 1.393 . S
C1382 H1374 0.950 . S
C1382 C1380 1.391 . S
C1382 C1383 1.400 . S
C1383 C1382 1.400 . S
C1383 C1384 1.398 . S
C1383 C1389 1.491 . S
C1384 H1375 0.950 . S
C1384 C1383 1.398 . S
C1384 C1385 1.391 . S
C1385 H1373 0.950 . S
C1385 C1381 1.393 . S
C1385 C1384 1.391 . S
C1386 H1376 0.950 . S
C1386 C1387 1.386 . S
C1386 C1388 1.391 . S
C1387 C1386 1.386 . S
C1387 C1391 1.393 . S
C1388 H1377 0.950 . S
C1388 C1386 1.391 . S
C1388 C1389 1.400 . S
C1389 C1383 1.491 . S
C1389 C1388 1.400 . S
C1389 C1390 1.398 . S
C1390 H1378 0.950 . S
C1390 C1389 1.398 . S
C1390 C1391 1.391 . S
C1391 H1379 0.950 . S
C1391 C1387 1.393 . S
C1391 C1390 1.391 . S
H1392 C1400 0.950 . S
H1393 C1405 0.950 . S
H1394 C1402 0.950 . S
H1395 C1404 0.950 . S
H1396 C1406 0.950 . S
H1397 C1408 0.950 . S
H1398 C1410 0.950 . S
H1399 C1411 0.950 . S
C1400 H1392 0.950 . S
C1400 C1401 1.386 . S
C1400 C1402 1.391 . S
C1401 C1400 1.386 . S
C1401 C1405 1.393 . S
C1402 H1394 0.950 . S
C1402 C1400 1.391 . S
C1402 C1403 1.400 . S
C1403 C1402 1.400 . S
C1403 C1404 1.398 . S
C1403 C1409 1.491 . S
C1404 H1395 0.950 . S
C1404 C1403 1.398 . S
C1404 C1405 1.391 . S
C1405 H1393 0.950 . S
C1405 C1401 1.393 . S
C1405 C1404 1.391 . S
C1406 H1396 0.950 . S
C1406 C1407 1.386 . S
C1406 C1408 1.391 . S
C1407 C1406 1.386 . S
C1407 C1411 1.393 . S
C1408 H1397 0.950 . S
C1408 C1406 1.391 . S
C1408 C1409 1.400 . S
C1409 C1403 1.491 . S
C1409 C1408 1.400 . S
C1409 C1410 1.398 . S
C1410 H1398 0.950 . S
C1410 C1409 1.398 . S
C1410 C1411 1.391 . S
C1411 H1399 0.950 . S
C1411 C1407 1.393 . S
C1411 C1410 1.391 . S
H1412 C1420 0.950 . S
H1413 C1425 0.950 . S
H1414 C1422 0.950 . S
H1415 C1424 0.950 . S
H1416 C1426 0.950 . S
H1417 C1428 0.950 . S
H1418 C1430 0.950 . S
H1419 C1431 0.950 . S
C1420 H1412 0.950 . S
C1420 C1421 1.386 . S
C1420 C1422 1.391 . S
C1421 C1420 1.386 . S
C1421 C1425 1.393 . S
C1422 H1414 0.950 . S
C1422 C1420 1.391 . S
C1422 C1423 1.400 . S
C1423 C1422 1.400 . S
C1423 C1424 1.398 . S
C1423 C1429 1.491 . S
C1424 H1415 0.950 . S
C1424 C1423 1.398 . S
C1424 C1425 1.391 . S
C1425 H1413 0.950 . S
C1425 C1421 1.393 . S
C1425 C1424 1.391 . S
C1426 H1416 0.950 . S
C1426 C1427 1.386 . S
C1426 C1428 1.391 . S
C1427 C1426 1.386 . S
C1427 C1431 1.393 . S
C1428 H1417 0.950 . S
C1428 C1426 1.391 . S
C1428 C1429 1.400 . S
C1429 C1423 1.491 . S
C1429 C1428 1.400 . S
C1429 C1430 1.398 . S
C1430 H1418 0.950 . S
C1430 C1429 1.398 . S
C1430 C1431 1.391 . S
C1431 H1419 0.950 . S
C1431 C1427 1.393 . S
C1431 C1430 1.391 . S
H1432 C1440 0.950 . S
H1433 C1445 0.950 . S
H1434 C1442 0.950 . S
H1435 C1444 0.950 . S
H1436 C1446 0.950 . S
H1437 C1448 0.950 . S
H1438 C1450 0.950 . S
H1439 C1451 0.950 . S
C1440 H1432 0.950 . S
C1440 C1441 1.386 . S
C1440 C1442 1.391 . S
C1441 C1440 1.386 . S
C1441 C1445 1.393 . S
C1442 H1434 0.950 . S
C1442 C1440 1.391 . S
C1442 C1443 1.400 . S
C1443 C1442 1.400 . S
C1443 C1444 1.398 . S
C1443 C1449 1.491 . S
C1444 H1435 0.950 . S
C1444 C1443 1.398 . S
C1444 C1445 1.391 . S
C1445 H1433 0.950 . S
C1445 C1441 1.393 . S
C1445 C1444 1.391 . S
C1446 H1436 0.950 . S
C1446 C1447 1.386 . S
C1446 C1448 1.391 . S
C1447 C1446 1.386 . S
C1447 C1451 1.393 . S
C1448 H1437 0.950 . S
C1448 C1446 1.391 . S
C1448 C1449 1.400 . S
C1449 C1443 1.491 . S
C1449 C1448 1.400 . S
C1449 C1450 1.398 . S
C1450 H1438 0.950 . S
C1450 C1449 1.398 . S
C1450 C1451 1.391 . S
C1451 H1439 0.950 . S
C1451 C1447 1.393 . S
C1451 C1450 1.391 . S
H1452 C1460 0.950 . S
H1453 C1465 0.950 . S
H1454 C1462 0.950 . S
H1455 C1464 0.950 . S
H1456 C1466 0.950 . S
H1457 C1468 0.950 . S
H1458 C1470 0.950 . S
H1459 C1471 0.950 . S
C1460 H1452 0.950 . S
C1460 C1461 1.386 . S
C1460 C1462 1.391 . S
C1461 C1460 1.386 . S
C1461 C1465 1.393 . S
C1462 H1454 0.950 . S
C1462 C1460 1.391 . S
C1462 C1463 1.400 . S
C1463 C1462 1.400 . S
C1463 C1464 1.398 . S
C1463 C1469 1.491 . S
C1464 H1455 0.950 . S
C1464 C1463 1.398 . S
C1464 C1465 1.391 . S
C1465 H1453 0.950 . S
C1465 C1461 1.393 . S
C1465 C1464 1.391 . S
C1466 H1456 0.950 . S
C1466 C1467 1.386 . S
C1466 C1468 1.391 . S
C1467 C1466 1.386 . S
C1467 C1471 1.393 . S
C1468 H1457 0.950 . S
C1468 C1466 1.391 . S
C1468 C1469 1.400 . S
C1469 C1463 1.491 . S
C1469 C1468 1.400 . S
C1469 C1470 1.398 . S
C1470 H1458 0.950 . S
C1470 C1469 1.398 . S
C1470 C1471 1.391 . S
C1471 H1459 0.950 . S
C1471 C1467 1.393 . S
C1471 C1470 1.391 . S
H1472 C1480 0.950 . S
H1473 C1485 0.950 . S
H1474 C1482 0.950 . S
H1475 C1484 0.950 . S
H1476 C1486 0.950 . S
H1477 C1488 0.950 . S
H1478 C1490 0.950 . S
H1479 C1491 0.950 . S
C1480 H1472 0.950 . S
C1480 C1481 1.386 . S
C1480 C1482 1.391 . S
C1481 C1480 1.386 . S
C1481 C1485 1.393 . S
C1482 H1474 0.950 . S
C1482 C1480 1.391 . S
C1482 C1483 1.400 . S
C1483 C1482 1.400 . S
C1483 C1484 1.398 . S
C1483 C1489 1.491 . S
C1484 H1475 0.950 . S
C1484 C1483 1.398 . S
C1484 C1485 1.391 . S
C1485 H1473 0.950 . S
C1485 C1481 1.393 . S
C1485 C1484 1.391 . S
C1486 H1476 0.950 . S
C1486 C1487 1.386 . S
C1486 C1488 1.391 . S
C1487 C1486 1.386 . S
C1487 C1491 1.393 . S
C1488 H1477 0.950 . S
C1488 C1486 1.391 . S
C1488 C1489 1.400 . S
C1489 C1483 1.491 . S
C1489 C1488 1.400 . S
C1489 C1490 1.398 . S
C1490 H1478 0.950 . S
C1490 C1489 1.398 . S
C1490 C1491 1.391 . S
C1491 H1479 0.950 . S
C1491 C1487 1.393 . S
C1491 C1490 1.391 . S
H1492 C1500 0.950 . S
H1493 C1505 0.950 . S
H1494 C1502 0.950 . S
H1495 C1504 0.950 . S
H1496 C1506 0.950 . S
H1497 C1508 0.950 . S
H1498 C1510 0.950 . S
H1499 C1511 0.950 . S
C1500 H1492 0.950 . S
C1500 C1501 1.386 . S
C1500 C1502 1.391 . S
C1501 C1500 1.386 . S
C1501 C1505 1.393 . S
C1502 H1494 0.950 . S
C1502 C1500 1.391 . S
C1502 C1503 1.400 . S
C1503 C1502 1.400 . S
C1503 C1504 1.398 . S
C1503 C1509 1.491 . S
C1504 H1495 0.950 . S
C1504 C1503 1.398 . S
C1504 C1505 1.391 . S
C1505 H1493 0.950 . S
C1505 C1501 1.393 . S
C1505 C1504 1.391 . S
C1506 H1496 0.950 . S
C1506 C1507 1.386 . S
C1506 C1508 1.391 . S
C1507 C1506 1.386 . S
C1507 C1511 1.393 . S
C1508 H1497 0.950 . S
C1508 C1506 1.391 . S
C1508 C1509 1.400 . S
C1509 C1503 1.491 . S
C1509 C1508 1.400 . S
C1509 C1510 1.398 . S
C1510 H1498 0.950 . S
C1510 C1509 1.398 . S
C1510 C1511 1.391 . S
C1511 H1499 0.950 . S
C1511 C1507 1.393 . S
C1511 C1510 1.391 . S
C621 C9 0.961 . S
C627 C5 1.016 . S
C641 C43 0.957 . S
C647 C39 1.011 . S
C661 C73 1.026 . S
C667 C77 0.976 . S
C681 C111 1.006 . S
C687 C107 1.031 . S
C701 C145 0.978 . S
C707 C141 1.028 . S
C721 C175 1.018 . S
C727 C179 1.001 . S
C741 C209 1.031 . S
C747 C213 0.985 . S
C761 C243 0.998 . S
C767 C247 0.967 . S
C781 C281 1.002 . S
C787 C277 1.034 . S
C801 C315 0.966 . S
C807 C311 1.020 . S
C821 C349 0.980 . S
C827 C345 1.003 . S
C841 C379 1.016 . S
C847 C383 0.999 . S
C861 C413 0.998 . S
C867 C417 0.956 . S
C881 C447 1.001 . S
C887 C451 0.976 . S
C901 C481 1.027 . S
C907 C485 0.976 . S
C921 C519 0.953 . S
C927 C515 1.002 . S
C941 C553 0.999 . S
C947 C549 1.034 . S
C961 C583 1.006 . S
C967 C587 0.954 . S
C981 C598 1.815 . S
C987 C20 1.807 . S
C1001 C54 1.819 . S
C1007 C530 1.814 . S
C1021 C564 1.819 . S
C1027 C88 1.811 . S
C1041 C258 1.807 . S
C1047 C122 1.816 . S
C1061 C156 1.816 . S
C1067 C292 1.819 . S
C1081 C190 1.809 . S
C1087 C224 1.806 . S
C1101 C326 1.810 . S
C1107 C462 1.806 . S
C1121 C496 1.819 . S
C1127 C360 1.811 . S
C1141 C394 1.813 . S
C1147 C428 1.806 . S
C1161 C33 1.263 . S
C1167 C135 1.261 . S
C1181 C67 1.256 . S
C1187 C169 1.259 . S
C1201 C203 1.261 . S
C1207 C101 1.258 . S
C1221 C172 1.727 . S
C1227 C36 1.717 . S
C1241 C104 1.718 . S
C1247 C70 1.716 . S
C1261 C138 1.727 . S
C1267 C2 1.717 . S
C1281 C339 1.249 . S
C1287 C237 1.249 . S
C1301 C373 1.260 . S
C1307 C271 1.262 . S
C1321 C305 1.262 . S
C1327 C407 1.263 . S
C1341 C376 1.728 . S
C1347 C240 1.733 . S
C1361 C274 1.733 . S
C1367 C308 1.730 . S
C1381 C206 1.719 . S
C1387 C342 1.716 . S
C1401 C543 1.261 . S
C1407 C441 1.263 . S
C1421 C577 1.250 . S
C1427 C475 1.249 . S
C1441 C611 1.255 . S
C1447 C509 1.258 . S
C1461 C444 1.725 . S
C1467 C580 1.715 . S
C1481 C478 1.723 . S
C1487 C512 1.733 . S
C1501 C546 1.720 . S
C1507 C410 1.731 . S
