# Generated by pormake.
# Topology smc, (6)-cn, num edge types: 1
# Building blocks:
#     Node 0, Type 0, BuildingBlock: UKALOJ_clean_sbu_0, # of connection points: 6
#     Node 1, Type 0, BuildingBlock: UKALOJ_clean_sbu_0, # of connection points: 6
#     Node 2, Type 0, BuildingBlock: UKALOJ_clean_sbu_0, # of connection points: 6
#     Node 3, Type 0, BuildingBlock: UKALOJ_clean_sbu_0, # of connection points: 6
#     Node 4, Type 0, BuildingBlock: UKALOJ_clean_sbu_0, # of connection points: 6
#     Node 5, Type 0, BuildingBlock: UKALOJ_clean_sbu_0, # of connection points: 6
#     Node 6, Type 0, BuildingBlock: UKALOJ_clean_sbu_0, # of connection points: 6
#     Node 7, Type 0, BuildingBlock: UKALOJ_clean_sbu_0, # of connection points: 6
#     Node 8, Type 0, BuildingBlock: UKALOJ_clean_sbu_0, # of connection points: 6
#     Edge 9, Type (0, 0), BuildingBlock: ZUJKAS_clean_linker_0, # of connection points: 2
#     Edge 10, Type (0, 0), BuildingBlock: ZUJKAS_clean_linker_0, # of connection points: 2
#     Edge 11, Type (0, 0), BuildingBlock: ZUJKAS_clean_linker_0, # of connection points: 2
#     Edge 12, Type (0, 0), BuildingBlock: ZUJKAS_clean_linker_0, # of connection points: 2
#     Edge 13, Type (0, 0), BuildingBlock: ZUJKAS_clean_linker_0, # of connection points: 2
#     Edge 14, Type (0, 0), BuildingBlock: ZUJKAS_clean_linker_0, # of connection points: 2
#     Edge 15, Type (0, 0), BuildingBlock: ZUJKAS_clean_linker_0, # of connection points: 2
#     Edge 16, Type (0, 0), BuildingBlock: ZUJKAS_clean_linker_0, # of connection points: 2
#     Edge 17, Type (0, 0), BuildingBlock: ZUJKAS_clean_linker_0, # of connection points: 2
#     Edge 18, Type (0, 0), BuildingBlock: ZUJKAS_clean_linker_0, # of connection points: 2
#     Edge 19, Type (0, 0), BuildingBlock: ZUJKAS_clean_linker_0, # of connection points: 2
#     Edge 20, Type (0, 0), BuildingBlock: ZUJKAS_clean_linker_0, # of connection points: 2
#     Edge 21, Type (0, 0), BuildingBlock: ZUJKAS_clean_linker_0, # of connection points: 2
#     Edge 22, Type (0, 0), BuildingBlock: ZUJKAS_clean_linker_0, # of connection points: 2
#     Edge 23, Type (0, 0), BuildingBlock: ZUJKAS_clean_linker_0, # of connection points: 2
#     Edge 24, Type (0, 0), BuildingBlock: ZUJKAS_clean_linker_0, # of connection points: 2
#     Edge 25, Type (0, 0), BuildingBlock: ZUJKAS_clean_linker_0, # of connection points: 2
#     Edge 26, Type (0, 0), BuildingBlock: ZUJKAS_clean_linker_0, # of connection points: 2
#     Edge 27, Type (0, 0), BuildingBlock: ZUJKAS_clean_linker_0, # of connection points: 2
#     Edge 28, Type (0, 0), BuildingBlock: ZUJKAS_clean_linker_0, # of connection points: 2
#     Edge 29, Type (0, 0), BuildingBlock: ZUJKAS_clean_linker_0, # of connection points: 2
#     Edge 30, Type (0, 0), BuildingBlock: ZUJKAS_clean_linker_0, # of connection points: 2
#     Edge 31, Type (0, 0), BuildingBlock: ZUJKAS_clean_linker_0, # of connection points: 2
#     Edge 32, Type (0, 0), BuildingBlock: ZUJKAS_clean_linker_0, # of connection points: 2
#     Edge 33, Type (0, 0), BuildingBlock: ZUJKAS_clean_linker_0, # of connection points: 2
#     Edge 34, Type (0, 0), BuildingBlock: ZUJKAS_clean_linker_0, # of connection points: 2
#     Edge 35, Type (0, 0), BuildingBlock: ZUJKAS_clean_linker_0, # of connection points: 2
# Relax obj value: 0.121
# Max RMSD: 0.216
# Mean RMSD: 0.216
data_MOF--net-smc--node1-UKALOJ_clean_sbu_0--edge1-ZUJKAS_clean_linker_0
_symmetry_space_group_name_H-M    P1
_symmetry_Int_Tables_number       1
_symmetry_cell_setting            triclinic
loop_
_symmetry_equiv_pos_as_xyz
'x, y, z'
_cell_length_a     36.143372
_cell_length_b     36.141586
_cell_length_c     73.213008
_cell_angle_alpha  90.020082
_cell_angle_beta   89.998977
_cell_angle_gamma 119.99431
loop_
_atom_site_label
_atom_site_type_symbol
_atom_site_fract_x
_atom_site_fract_y
_atom_site_fract_z
_atom_type_partial_charge
Zn0 Zn 0.01107 0.41592 0.0376 0.0
O1 O 0.05857 0.48056 0.03995 0.0
C2 C 0.0768 0.39557 0.02556 0.0
Zn3 Zn 0.01725 0.4187 1.00707 0.0
C4 C 0.07509 0.50221 0.02552 0.0
O5 O 0.06417 0.48394 0.01001 0.0
C6 C 0.95012 0.33355 0.01912 0.0
O7 O 0.9709 0.43731 1.00455 0.0
O8 O 0.9652 0.43583 0.03449 0.0
N9 N 0.02755 0.42263 0.97923 0.0
C10 C 0.00176 0.40813 0.96442 0.0
C11 C 0.06575 0.43392 0.955 0.0
N12 N 0.06724 0.43889 0.97325 0.0
N13 N 0.02505 0.41471 0.94903 0.0
C14 C 0.02715 0.42216 0.08022 0.0
C15 C 0.96325 0.38568 0.08995 0.0
N16 N 0.00106 0.4105 0.06549 0.0
N17 N 0.96143 0.38814 0.07166 0.0
N18 N 0.0041 0.40675 0.09579 0.0
H19 H 0.08656 0.44846 0.06512 0.0
H20 H 0.08646 0.4801 0.08381 0.0
H21 H 0.08878 0.4324 0.08835 0.0
C22 C 0.07496 0.44686 0.07921 0.0
C23 C 0.95394 0.38563 0.96515 0.0
H24 H 0.94188 0.37711 0.97928 0.0
H25 H 0.94294 0.40708 0.95967 0.0
H26 H 0.94015 0.35648 0.95653 0.0
O27 O 0.96957 0.35398 1.00485 0.0
O28 O 0.96213 0.35155 0.03462 0.0
C29 C 0.95469 0.44326 0.0189 0.0
O30 O 0.058 0.39742 0.03991 0.0
O31 O 0.06474 0.40166 0.01012 0.0
Zn32 Zn 0.61355 0.61139 0.03652 0.0
O33 O 0.54839 0.59272 0.03825 0.0
C34 C 0.63222 0.69675 0.0245 0.0
Zn35 Zn 0.6112 0.61436 1.00596 0.0
C36 C 0.52684 0.58707 0.02375 0.0
O37 O 0.54543 0.59473 1.0083 0.0
C38 C 0.69679 0.63436 0.01885 0.0
O39 O 0.59392 0.54984 1.00329 0.0
O40 O 0.5953 0.54618 0.03324 0.0
N41 N 0.60825 0.62093 0.97807 0.0
C42 C 0.62327 0.60978 0.96339 0.0
C43 C 0.59625 0.64662 0.95363 0.0
N44 N 0.59125 0.64353 0.97188 0.0
N45 N 0.61625 0.62574 0.94784 0.0
C46 C 0.61011 0.62458 0.07887 0.0
C47 C 0.63093 0.58319 0.0895 0.0
N48 N 0.61711 0.60552 0.06445 0.0
N49 N 0.6299 0.57973 0.07116 0.0
N50 N 0.61887 0.61134 0.09474 0.0
H51 H 0.57343 0.648 0.06482 0.0
H52 H 0.57247 0.65075 0.08949 0.0
H53 H 0.61956 0.68753 0.07708 0.0
C54 C 0.59258 0.65423 0.07743 0.0
C55 C 0.64635 0.58505 0.96442 0.0
H56 H 0.65616 0.58333 0.97854 0.0
H57 H 0.62468 0.55187 0.95974 0.0
H58 H 0.67477 0.5996 0.95536 0.0
O59 O 0.67646 0.63263 1.00441 0.0
O60 O 0.67837 0.6283 0.03425 0.0
C61 C 0.58834 0.52804 0.0177 0.0
O62 O 0.63031 0.67638 0.03897 0.0
O63 O 0.6269 0.67854 0.00911 0.0
Zn64 Zn 0.41367 0.01219 1.0061 0.0
O65 O 0.47853 0.05896 1.00349 0.0
C66 C 0.39449 0.07843 0.01814 0.0
Zn67 Zn 0.41725 0.01846 0.03663 0.0
C68 C 0.50059 0.07544 0.01783 0.0
O69 O 0.48264 0.06493 0.03342 0.0
C70 C 0.33147 0.95211 0.02485 0.0
O71 O 0.43545 0.97174 0.03906 0.0
O72 O 0.43259 0.96572 0.00912 0.0
N73 N 0.42187 0.02909 0.06446 0.0
C74 C 0.40736 0.00339 0.07929 0.0
C75 C 0.43371 0.06748 0.08869 0.0
N76 N 0.4385 0.06884 0.07043 0.0
N77 N 0.4143 0.0268 0.09468 0.0
C78 C 0.41895 0.02731 0.96344 0.0
C79 C 0.38039 0.96334 0.95404 0.0
N80 N 0.40722 0.00158 0.97828 0.0
N81 N 0.38355 0.9619 0.97231 0.0
N82 N 0.40232 0.00399 0.94804 0.0
H83 H 0.47748 0.08568 0.95921 0.0
H84 H 0.43032 0.08917 0.95508 0.0
H85 H 0.4472 0.08727 0.97821 0.0
C86 C 0.44467 0.07511 0.96415 0.0
C87 C 0.38437 0.95555 0.07861 0.0
H88 H 0.37654 0.94346 0.06445 0.0
H89 H 0.40512 0.94415 0.08452 0.0
H90 H 0.35476 0.94219 0.08692 0.0
O91 O 0.35235 0.97105 0.03912 0.0
O92 O 0.34922 0.96423 0.00932 0.0
C93 C 0.44049 0.95519 0.02461 0.0
O94 O 0.39606 0.05949 1.00379 0.0
O95 O 0.40063 0.0664 0.03358 0.0
Zn96 Zn 0.67972 0.74771 0.36979 0.0
O97 O 0.72676 0.81257 0.37177 0.0
C98 C 0.74483 0.7277 0.35675 0.0
Zn99 Zn 0.68347 0.7498 0.33918 0.0
C100 C 0.74221 0.83385 0.35718 0.0
O101 O 0.7303 0.81513 0.3418 0.0
C102 C 0.61795 0.66467 0.35205 0.0
O103 O 0.63664 0.76805 0.33739 0.0
O104 O 0.63318 0.76663 0.36737 0.0
N105 N 0.69219 0.75453 0.31122 0.0
C106 C 0.66617 0.7349 0.29686 0.0
C107 C 0.72802 0.7772 0.28612 0.0
N108 N 0.73054 0.78084 0.30445 0.0
N109 N 0.68798 0.7484 0.28096 0.0
C110 C 0.69746 0.74994 0.41204 0.0
C111 C 0.63556 0.72952 0.42294 0.0
N112 N 0.67117 0.74329 0.39775 0.0
N113 N 0.63278 0.7307 0.40462 0.0
N114 N 0.67579 0.74124 0.428 0.0
H115 H 0.75727 0.7862 0.39773 0.0
H116 H 0.76158 0.78727 0.42239 0.0
H117 H 0.75069 0.74004 0.40992 0.0
C118 C 0.74456 0.76716 0.41038 0.0
C119 C 0.61917 0.70449 0.29839 0.0
H120 H 0.60607 0.71069 0.31097 0.0
H121 H 0.60214 0.70719 0.2863 0.0
H122 H 0.6136 0.67145 0.29893 0.0
O123 O 0.6355 0.68473 0.33741 0.0
O124 O 0.63154 0.68329 0.36734 0.0
C125 C 0.62132 0.77379 0.35205 0.0
O126 O 0.72721 0.73011 0.37139 0.0
O127 O 0.73153 0.73316 0.34146 0.0
Zn128 Zn 0.27726 0.94597 0.33967 0.0
O129 O 0.25826 0.88085 0.33771 0.0
C130 C 0.36221 0.9645 0.35278 0.0
Zn131 Zn 0.27923 0.94347 0.37028 0.0
C132 C 0.25238 0.8592 0.35219 0.0
O133 O 0.25987 0.8777 0.36765 0.0
C134 C 0.29967 0.02916 0.35751 0.0
O135 O 0.21459 0.92596 0.372 0.0
O136 O 0.21187 0.92802 0.34205 0.0
N137 N 0.28304 0.93896 0.39829 0.0
C138 C 0.27623 0.9586 0.41254 0.0
C139 C 0.29645 0.91706 0.42355 0.0
N140 N 0.29549 0.91311 0.40523 0.0
N141 N 0.28471 0.9456 0.42855 0.0
C142 C 0.29283 0.94313 0.29744 0.0
C143 C 0.25449 0.96722 0.28643 0.0
N144 N 0.27375 0.9508 0.31166 0.0
N145 N 0.24988 0.96564 0.30472 0.0
N146 N 0.28149 0.95349 0.28143 0.0
H147 H 0.31317 0.90433 0.31191 0.0
H148 H 0.31644 0.90289 0.28727 0.0
H149 H 0.35443 0.94927 0.29979 0.0
C150 C 0.32059 0.92347 0.29924 0.0
C151 C 0.25905 0.98851 0.4108 0.0
H152 H 0.24013 0.98218 0.39811 0.0
H153 H 0.23881 0.98544 0.42275 0.0
H154 H 0.28617 0.02174 0.41036 0.0
O155 O 0.29704 0.00876 0.37206 0.0
O156 O 0.29444 0.01076 0.34215 0.0
C157 C 0.19326 0.92073 0.35747 0.0
O158 O 0.34228 0.96235 0.33814 0.0
O159 O 0.34356 0.9594 0.36806 0.0
Zn160 Zn 0.08492 0.35093 0.3707 0.0
O161 O 0.10489 0.30538 0.37221 0.0
C162 C 0.00063 0.28366 0.35797 0.0
Zn163 Zn 0.08322 0.34669 0.34009 0.0
C164 C 0.11157 0.29035 0.35767 0.0
O165 O 0.10413 0.30152 0.34223 0.0
C166 C 0.06092 0.41055 0.35322 0.0
O167 O 0.14747 0.39506 0.338 0.0
O168 O 0.14982 0.39891 0.36799 0.0
N169 N 0.0778 0.33835 0.31209 0.0
C170 C 0.08786 0.36504 0.29764 0.0
C171 C 0.05345 0.30146 0.28736 0.0
N172 N 0.05677 0.29894 0.30557 0.0
N173 N 0.07268 0.34257 0.28193 0.0
C174 C 0.0709 0.33206 0.4129 0.0
C175 C 0.10881 0.39444 0.42403 0.0
N176 N 0.0893 0.3591 0.39872 0.0
N177 N 0.11291 0.39778 0.40573 0.0
N178 N 0.0824 0.35354 0.42897 0.0
H179 H 0.05101 0.27325 0.39822 0.0
H180 H 0.0484 0.26823 0.42285 0.0
H181 H 0.00966 0.27607 0.41067 0.0
C182 C 0.04366 0.2846 0.41102 0.0
C183 C 0.11062 0.4128 0.29907 0.0
H184 H 0.11374 0.42359 0.31339 0.0
H185 H 0.14333 0.42615 0.29346 0.0
H186 H 0.09362 0.42561 0.29094 0.0
O187 O 0.06359 0.39264 0.33873 0.0
O188 O 0.0668 0.398 0.36861 0.0
C189 C 0.16853 0.41099 0.35262 0.0
O190 O 0.0203 0.30181 0.3726 0.0
O191 O 0.01934 0.29721 0.34271 0.0
Zn192 Zn 0.34968 0.08807 0.67279 0.0
O193 O 0.30201 0.10517 0.67139 0.0
C194 C 0.28501 0.00211 0.68573 0.0
Zn195 Zn 0.34599 0.08528 0.70342 0.0
C196 C 0.28657 0.11042 0.68612 0.0
O197 O 0.29867 0.10325 0.70138 0.0
C198 C 0.41215 0.06707 0.68994 0.0
O199 O 0.39223 0.15045 0.70526 0.0
O200 O 0.39571 0.15386 0.6753 0.0
N201 N 0.33853 0.08063 0.73146 0.0
C202 C 0.36582 0.08852 0.74549 0.0
C203 C 0.30381 0.06462 0.75693 0.0
N204 N 0.30008 0.06589 0.73866 0.0
N205 N 0.34472 0.07843 0.76164 0.0
C206 C 0.33094 0.07238 0.63058 0.0
C207 C 0.39248 0.11397 0.61939 0.0
N208 N 0.35748 0.09251 0.64474 0.0
N209 N 0.39563 0.11841 0.63769 0.0
N210 N 0.35223 0.08507 0.61451 0.0
H211 H 0.27144 0.04886 0.64512 0.0
H212 H 0.26655 0.04484 0.62048 0.0
H213 H 0.27811 0.00915 0.63309 0.0
C214 C 0.28394 0.04227 0.63246 0.0
C215 C 0.41318 0.10818 0.74336 0.0
H216 H 0.42445 0.1273 0.73067 0.0
H217 H 0.43005 0.12879 0.75527 0.0
H218 H 0.42125 0.08241 0.74262 0.0
O219 O 0.39432 0.06872 0.70465 0.0
O220 O 0.39865 0.07264 0.67474 0.0
C221 C 0.40729 0.17225 0.69076 0.0
O222 O 0.30245 0.02257 0.67114 0.0
O223 O 0.29835 0.02053 0.70107 0.0
Zn224 Zn 0.94625 0.28419 0.67369 0.0
O225 O 0.92948 0.21972 0.67105 0.0
C226 C 0.03173 0.30492 0.68701 0.0
Zn227 Zn 0.94796 0.28097 0.70427 0.0
C228 C 0.92403 0.19797 0.68547 0.0
O229 O 0.93061 0.21602 0.70101 0.0
C230 C 0.96634 0.36616 0.69235 0.0
O231 O 0.88263 0.26148 0.70563 0.0
O232 O 0.88037 0.26413 0.67569 0.0
N233 N 0.95113 0.27557 0.73226 0.0
C234 C 0.94254 0.29394 0.74648 0.0
C235 C 0.96671 0.25571 0.75753 0.0
N236 N 0.96599 0.25174 0.73922 0.0
N237 N 0.95239 0.28225 0.76252 0.0
C238 C 0.95907 0.28 0.63117 0.0
C239 C 0.93339 0.31804 0.6214 0.0
N240 N 0.94401 0.29119 0.64582 0.0
N241 N 0.92786 0.31455 0.63962 0.0
N242 N 0.95288 0.29665 0.61566 0.0
H243 H 0.99109 0.25269 0.64634 0.0
H244 H 0.95974 0.22178 0.62732 0.0
H245 H 0.01018 0.2692 0.62321 0.0
C246 C 0.98161 0.25476 0.63219 0.0
C247 C 0.92244 0.32132 0.74466 0.0
H248 H 0.90352 0.31392 0.73192 0.0
H249 H 0.90153 0.31675 0.75655 0.0
H250 H 0.94794 0.35529 0.74422 0.0
O251 O 0.96404 0.34551 0.70675 0.0
O252 O 0.96146 0.3483 0.67689 0.0
C253 C 0.86139 0.25596 0.69105 0.0
O254 O 0.01167 0.30281 0.67242 0.0
O255 O 0.01288 0.29875 0.7023 0.0
Zn256 Zn 0.7517 0.68648 0.70327 0.0
O257 O 0.76824 0.63884 0.70607 0.0
C258 C 0.66603 0.62129 0.69027 0.0
Zn259 Zn 0.74958 0.68069 0.67271 0.0
C260 C 0.77396 0.62234 0.69179 0.0
O261 O 0.76741 0.63338 0.67615 0.0
C262 C 0.73158 0.7481 0.68453 0.0
O263 O 0.81478 0.72674 0.67107 0.0
O264 O 0.81774 0.73213 0.70101 0.0
N265 N 0.74608 0.67102 0.64479 0.0
C266 C 0.75322 0.69695 0.63032 0.0
C267 C 0.73171 0.63449 0.61983 0.0
N268 N 0.73288 0.63228 0.63817 0.0
N269 N 0.74411 0.67471 0.6145 0.0
C270 C 0.73861 0.66936 0.74573 0.0
C271 C 0.76598 0.73305 0.75574 0.0
N272 N 0.75433 0.69583 0.73117 0.0
N273 N 0.77157 0.73532 0.73752 0.0
N274 N 0.74541 0.69203 0.76135 0.0
H275 H 0.70606 0.61031 0.7303 0.0
H276 H 0.73588 0.60946 0.74957 0.0
H277 H 0.68593 0.60791 0.75319 0.0
C278 C 0.71498 0.62155 0.74451 0.0
C279 C 0.77123 0.74421 0.63167 0.0
H280 H 0.79053 0.75711 0.64426 0.0
H281 H 0.7913 0.76057 0.61958 0.0
H282 H 0.7445 0.75091 0.63207 0.0
O283 O 0.73332 0.72932 0.67013 0.0
O284 O 0.73672 0.73533 0.69999 0.0
C285 C 0.83636 0.74268 0.68556 0.0
O286 O 0.68624 0.64005 0.70471 0.0
O287 O 0.68468 0.63322 0.67491 0.0
H288 H 0.47677 0.56402 0.05436 0.0
H289 H 0.39871 0.52429 0.05576 0.0
H290 H 0.39257 0.52468 0.99694 0.0
H291 H 0.47053 0.56484 0.99537 0.0
H292 H 0.33624 0.54487 0.01407 0.0
H293 H 0.32363 0.39706 0.04324 0.0
H294 H 0.3569 0.44494 0.05597 0.0
H295 H 0.37237 0.43902 0.03331 0.0
C296 C 0.45883 0.55598 0.04171 0.0
C297 C 0.47987 0.56741 0.02474 0.0
C298 C 0.41425 0.5329 0.04255 0.0
C299 C 0.38998 0.52068 0.02644 0.0
C300 C 0.41081 0.53344 0.00952 0.0
H301 H 0.12339 0.38922 0.99767 0.0
H302 H 0.19966 0.41331 0.9985 0.0
C303 C 0.45535 0.55653 1.00866 0.0
C304 C 0.3428 0.49516 0.02716 0.0
H305 H 0.25908 0.39904 0.04066 0.0
C306 C 0.31938 0.51295 0.01981 0.0
C307 C 0.32099 0.4535 0.03469 0.0
C308 C 0.34466 0.43224 0.04212 0.0
C309 C 0.27464 0.49041 0.01996 0.0
C310 C 0.25282 0.44874 0.02743 0.0
C311 C 0.27609 0.43093 0.0349 0.0
C312 C 0.20568 0.42398 0.02767 0.0
C313 C 0.25096 0.51153 0.01235 0.0
C314 C 0.18351 0.41926 0.04401 0.0
C315 C 0.13978 0.40524 0.04363 0.0
C316 C 0.11788 0.3961 0.02686 0.0
C317 C 0.13941 0.39645 0.01079 0.0
C318 C 0.18301 0.41033 0.01121 0.0
H319 H 0.27229 0.54644 0.01036 0.0
H320 H 0.237 0.49712 0.9989 0.0
H321 H 0.22437 0.5064 0.02155 0.0
H322 H 0.20059 0.42946 0.05685 0.0
H323 H 0.12412 0.40509 0.05626 0.0
H324 H 0.4665 0.93074 0.05515 0.0
H325 H 0.50612 0.89221 0.0563 0.0
H326 H 0.4991 0.88007 0.99763 0.0
H327 H 0.4591 0.918 0.99631 0.0
H328 H 0.48047 0.80509 0.0159 0.0
H329 H 0.63191 0.94298 0.04105 0.0
H330 H 0.5855 0.9297 0.05464 0.0
H331 H 0.58891 0.94892 0.03173 0.0
C332 C 0.47304 0.91953 0.0425 0.0
C333 C 0.45985 0.92764 0.02562 0.0
C334 C 0.49604 0.89792 0.04318 0.0
C335 C 0.50637 0.88427 0.02702 0.0
C336 C 0.4918 0.8908 0.01024 0.0
H337 H 0.63355 0.74644 0.99615 0.0
H338 H 0.60934 0.79848 0.99722 0.0
C339 C 0.46882 0.91235 0.00953 0.0
C340 C 0.53187 0.8626 0.02749 0.0
H341 H 0.62987 0.87647 0.03864 0.0
C342 C 0.51314 0.82071 0.02082 0.0
C343 C 0.57451 0.8832 0.03394 0.0
C344 C 0.59665 0.92881 0.04061 0.0
C345 C 0.53578 0.79862 0.02056 0.0
C346 C 0.57847 0.81926 0.02688 0.0
C347 C 0.5972 0.861 0.03372 0.0
C348 C 0.60336 0.79703 0.02663 0.0
C349 C 0.51369 0.75311 0.01371 0.0
C350 C 0.61081 0.78148 0.04292 0.0
C351 C 0.62488 0.75182 0.04239 0.0
C352 C 0.63132 0.73718 0.02554 0.0
C353 C 0.62834 0.75657 0.00936 0.0
C354 C 0.6144 0.78625 0.00992 0.0
H355 H 0.47853 0.73925 0.01272 0.0
H356 H 0.52598 0.75231 0.99991 0.0
H357 H 0.5204 0.73263 0.02284 0.0
H358 H 0.60273 0.7898 0.05595 0.0
H359 H 0.62739 0.73802 0.05508 0.0
H360 H 0.29352 0.90658 0.05588 0.0
H361 H 0.24201 0.83004 0.05719 0.0
H362 H 0.22769 0.82708 0.99868 0.0
H363 H 0.27924 0.90344 0.99714 0.0
H364 H 0.15319 0.76955 0.04054 0.0
H365 H 0.29024 0.75711 0.0131 0.0
H366 H 0.29686 0.80524 0.02363 0.0
H367 H 0.27624 0.79146 1.00081 0.0
C368 C 0.27831 0.89004 0.04334 0.0
C369 C 0.29117 0.91089 0.02635 0.0
C370 C 0.24892 0.84628 0.04414 0.0
C371 C 0.23192 0.82304 0.02799 0.0
C372 C 0.24098 0.84461 0.01125 0.0
H373 H 0.11176 0.5583 0.99729 0.0
H374 H 0.14971 0.63621 0.99881 0.0
C375 C 0.27038 0.88826 0.01042 0.0
C376 C 0.21019 0.77597 0.0283 0.0
H377 H 0.22501 0.69281 0.01675 0.0
C378 C 0.16876 0.75262 0.03541 0.0
C379 C 0.23097 0.7543 0.02168 0.0
C380 C 0.27616 0.77815 0.01448 0.0
C381 C 0.14696 0.70775 0.03559 0.0
C382 C 0.16768 0.68607 0.02884 0.0
C383 C 0.2093 0.70958 0.02192 0.0
C384 C 0.14633 0.63893 0.02824 0.0
C385 C 0.1016 0.6839 0.04254 0.0
C386 C 0.13319 0.61476 0.04436 0.0
C387 C 0.11157 0.57016 0.04357 0.0
C388 C 0.10292 0.54907 0.02662 0.0
C389 C 0.11782 0.57351 0.01056 0.0
C390 C 0.13938 0.61804 0.01139 0.0
H391 H 0.08716 0.70472 0.04322 0.0
H392 H 0.08137 0.65602 0.03368 0.0
H393 H 0.10133 0.67186 0.05651 0.0
H394 H 0.13924 0.63038 0.05754 0.0
H395 H 0.10069 0.55227 0.05619 0.0
H396 H 0.40121 0.12388 0.98719 0.0
H397 H 0.42605 0.20038 0.98596 0.0
H398 H 0.41589 0.20328 0.04453 0.0
H399 H 0.39129 0.12696 0.046 0.0
H400 H 0.39825 0.261 1.00289 0.0
H401 H 0.54808 0.27293 0.02961 0.0
H402 H 0.50624 0.22485 0.0192 0.0
H403 H 0.49997 0.23872 0.04208 0.0
C404 C 0.40275 0.14039 0.99976 0.0
C405 C 0.3952 0.11956 0.01674 0.0
C406 C 0.417 0.18413 0.99901 0.0
C407 C 0.42355 0.20735 0.01519 0.0
C408 C 0.41141 0.18577 0.03194 0.0
H409 H 0.56881 0.47189 0.0459 0.0
H410 H 0.52861 0.39399 0.04436 0.0
C411 C 0.39728 0.14214 0.03272 0.0
C412 C 0.44897 0.2544 0.01488 0.0
H413 H 0.54727 0.33734 0.02615 0.0
C414 C 0.43084 0.27784 1.00791 0.0
C415 C 0.49155 0.27595 0.02134 0.0
C416 C 0.51292 0.25198 0.02837 0.0
C417 C 0.45404 0.32271 1.00771 0.0
C418 C 0.49656 0.34426 0.01432 0.0
C419 C 0.51469 0.32065 0.0211 0.0
C420 C 0.52244 0.39137 0.01492 0.0
C421 C 0.43256 0.34671 1.00091 0.0
C422 C 0.53349 0.41556 0.99881 0.0
C423 C 0.55663 0.46015 0.99962 0.0
C424 C 0.56918 0.48119 0.01658 0.0
C425 C 0.55958 0.45671 0.03263 0.0
C426 C 0.53647 0.4122 0.03179 0.0
H427 H 0.39728 0.32595 1.00025 0.0
H428 H 0.44029 0.37448 0.00986 0.0
H429 H 0.44428 0.35894 0.98696 0.0
H430 H 0.52381 0.39996 0.98564 0.0
H431 H 0.56366 0.47808 0.98701 0.0
H432 H 0.54957 0.10296 0.98689 0.0
H433 H 0.62763 0.13997 0.98501 0.0
H434 H 0.63577 0.14586 0.04379 0.0
H435 H 0.55791 0.10878 0.04587 0.0
H436 H 0.68971 0.22075 0.99981 0.0
H437 H 0.70424 0.08663 0.02875 0.0
H438 H 0.65446 0.07994 0.02008 0.0
H439 H 0.67319 0.10256 0.04234 0.0
C440 C 0.56796 0.11248 0.99942 0.0
C441 C 0.54752 0.10267 0.01654 0.0
C442 C 0.6125 0.13345 0.99831 0.0
C443 C 0.63725 0.14463 0.01427 0.0
C444 C 0.61708 0.13653 0.03133 0.0
H445 H 0.89669 0.28557 0.04668 0.0
H446 H 0.82088 0.23327 0.04368 0.0
C447 C 0.57261 0.11571 0.03248 0.0
C448 C 0.68427 0.16523 0.01313 0.0
H449 H 0.76875 0.15352 0.02587 0.0
C450 C 0.70706 0.20592 1.00527 0.0
C451 C 0.70658 0.14559 0.02028 0.0
C452 C 0.68343 0.1011 0.0282 0.0
C453 C 0.75185 0.22843 1.00507 0.0
C454 C 0.77427 0.20917 0.01257 0.0
C455 C 0.75142 0.16801 0.02004 0.0
C456 C 0.82137 0.23305 0.01414 0.0
C457 C 0.77478 0.2734 0.99761 0.0
C458 C 0.8472 0.24805 0.99852 0.0
C459 C 0.89062 0.27807 1.00017 0.0
C460 C 0.90877 0.29337 0.01749 0.0
C461 C 0.88366 0.27477 0.03314 0.0
C462 C 0.84027 0.24487 0.03146 0.0
H463 H 0.75293 0.2864 0.99575 0.0
H464 H 0.80119 0.29507 1.00683 0.0
H465 H 0.78879 0.2735 0.98411 0.0
H466 H 0.83326 0.23852 0.98504 0.0
H467 H 0.90914 0.29144 0.98783 0.0
H468 H 0.91953 0.46557 0.04684 0.0
H469 H 0.88167 0.50565 0.0447 0.0
H470 H 0.89205 0.50744 0.98599 0.0
H471 H 0.92949 0.46693 0.98793 0.0
H472 H 0.9143 0.58784 0.02871 0.0
H473 H 0.76487 0.46576 0.9949 0.0
H474 H 0.80134 0.45245 1.00596 0.0
H475 H 0.81355 0.47665 0.98372 0.0
C476 C 0.91319 0.47387 0.03344 0.0
C477 C 0.92745 0.46296 0.01755 0.0
C478 C 0.89178 0.49699 0.03226 0.0
C479 C 0.88398 0.50934 0.01519 0.0
C480 C 0.8973 0.49772 0.99928 0.0
H481 H 0.73932 0.63451 0.98789 0.0
H482 H 0.79328 0.61285 0.98579 0.0
C483 C 0.91872 0.4746 1.00043 0.0
C484 C 0.86307 0.53551 0.01413 0.0
H485 H 0.77308 0.5341 0.99916 0.0
C486 C 0.88346 0.57622 0.02221 0.0
C487 C 0.82305 0.5203 1.00553 0.0
C488 C 0.79914 0.47628 0.99715 0.0
C489 C 0.86466 0.60208 0.02202 0.0
C490 C 0.82421 0.58649 0.01376 0.0
C491 C 0.8043 0.54615 1.00534 0.0
C492 C 0.79988 0.60937 0.01501 0.0
C493 C 0.88827 0.64581 0.03063 0.0
C494 C 0.78714 0.61644 0.03214 0.0
C495 C 0.75643 0.62897 0.03341 0.0
C496 C 0.73752 0.63413 0.01754 0.0
C497 C 0.75309 0.63067 1.00038 0.0
C498 C 0.78385 0.61814 0.99914 0.0
H499 H 0.92328 0.65825 0.03091 0.0
H500 H 0.88203 0.66894 0.02322 0.0
H501 H 0.87733 0.64372 0.04496 0.0
H502 H 0.79856 0.60923 0.04457 0.0
H503 H 0.7452 0.63138 0.04683 0.0
H504 H 0.79621 0.73363 0.32823 0.0
H505 H 0.87174 0.75587 0.33014 0.0
H506 H 0.86261 0.74556 0.38884 0.0
H507 H 0.78684 0.72336 0.38708 0.0
H508 H 0.91983 0.82694 0.37623 0.0
H509 H 0.94921 0.70712 0.34214 0.0
H510 H 0.91645 0.72147 0.32892 0.0
H511 H 0.89713 0.6946 0.35044 0.0
C512 C 0.80977 0.73455 0.34153 0.0
C513 C 0.78567 0.72763 0.35756 0.0
C514 C 0.85304 0.74714 0.34258 0.0
C515 C 0.87278 0.75251 0.35963 0.0
C516 C 0.84791 0.74168 0.37555 0.0
H517 H 0.14315 0.89622 0.38802 0.0
H518 H 0.06523 0.85555 0.38932 0.0
C519 C 0.80459 0.72902 0.37451 0.0
C520 C 0.91992 0.77608 0.3609 0.0
H521 H 0.00969 0.7776 0.34546 0.0
C522 C 0.93955 0.81587 0.36976 0.0
C523 C 0.9454 0.76176 0.35223 0.0
C524 C 0.926 0.71871 0.34304 0.0
C525 C 0.98403 0.84244 0.36969 0.0
C526 C 0.0095 0.82844 0.36077 0.0
C527 C 0.98996 0.78829 0.3522 0.0
C528 C 0.05654 0.85511 0.36007 0.0
C529 C 0.00325 0.8859 0.37855 0.0
C530 C 0.07739 0.86837 0.34317 0.0
C531 C 0.12194 0.89153 0.34235 0.0
C532 C 0.14638 0.90158 0.35844 0.0
C533 C 0.12529 0.88923 0.37538 0.0
C534 C 0.08075 0.86601 0.37617 0.0
H535 H 0.97909 0.8959 0.38073 0.0
H536 H 0.01655 0.88482 0.39207 0.0
H537 H 0.02964 0.91047 0.37012 0.0
H538 H 0.05916 0.86025 0.3306 0.0
H539 H 0.13719 0.90043 0.32909 0.0
H540 H 0.13415 0.26301 0.3883 0.0
H541 H 0.1754 0.22624 0.3898 0.0
H542 H 0.17685 0.22103 0.33098 0.0
H543 H 0.13603 0.25818 0.32928 0.0
H544 H 0.15656 0.14663 0.37577 0.0
H545 H 0.30405 0.27757 0.34467 0.0
H546 H 0.2615 0.28529 0.3532 0.0
H547 H 0.25674 0.26102 0.33124 0.0
C548 C 0.14298 0.2538 0.37567 0.0
C549 C 0.13203 0.26376 0.35866 0.0
C550 C 0.16667 0.23294 0.37657 0.0
C551 C 0.18002 0.22191 0.36051 0.0
C552 C 0.16777 0.23031 0.34353 0.0
H553 H 0.29259 0.07446 0.32922 0.0
H554 H 0.27051 0.12795 0.33148 0.0
C555 C 0.14406 0.25113 0.3426 0.0
C556 C 0.20603 0.20082 0.36149 0.0
H557 H 0.30092 0.21035 0.34802 0.0
C558 C 0.18833 0.16072 0.36992 0.0
C559 C 0.24749 0.21947 0.35385 0.0
C560 C 0.26882 0.26339 0.34537 0.0
C561 C 0.21027 0.13789 0.37028 0.0
C562 C 0.2514 0.15614 0.36231 0.0
C563 C 0.26951 0.19665 0.35421 0.0
C564 C 0.27413 0.13174 0.36096 0.0
C565 C 0.18848 0.09362 0.37848 0.0
C566 C 0.28619 0.11837 0.37673 0.0
C567 C 0.29886 0.08771 0.3755 0.0
C568 C 0.29956 0.07 0.35848 0.0
C569 C 0.29197 0.08704 0.34257 0.0
C570 C 0.27927 0.11762 0.34382 0.0
H571 H 0.15386 0.08116 0.38083 0.0
H572 H 0.19216 0.07094 0.36947 0.0
H573 H 0.20345 0.09455 0.39183 0.0
H574 H 0.28332 0.12971 0.39006 0.0
H575 H 0.3053 0.07592 0.38797 0.0
H576 H 0.95302 0.23532 0.3292 0.0
H577 H 0.90056 0.15926 0.32998 0.0
H578 H 0.90561 0.16112 0.38882 0.0
H579 H 0.95767 0.2374 0.38821 0.0
H580 H 0.92962 0.10682 0.3461 0.0
H581 H 0.77761 0.07901 0.37736 0.0
H582 H 0.81538 0.12921 0.36688 0.0
H583 H 0.82565 0.11595 0.38923 0.0
C584 C 0.94192 0.21999 0.34235 0.0
C585 C 0.96027 0.24226 0.35866 0.0
C586 C 0.91196 0.17647 0.34275 0.0
C587 C 0.89951 0.15461 0.35944 0.0
C588 C 0.91455 0.17752 0.3758 0.0
H589 H 0.77103 0.88471 0.38756 0.0
H590 H 0.81103 0.9629 0.38851 0.0
C591 C 0.94453 0.22115 0.37542 0.0
C592 C 0.87693 0.10744 0.35956 0.0
H593 H 0.78587 0.0183 0.37336 0.0
C594 C 0.89804 0.08741 0.35194 0.0
C595 C 0.83618 0.08245 0.36749 0.0
C596 C 0.8121 0.10259 0.3756 0.0
C597 C 0.87952 0.04289 0.35207 0.0
C598 C 0.83841 0.01776 0.35969 0.0
C599 C 0.81741 0.03777 0.36751 0.0
C600 C 0.81616 0.97058 0.35916 0.0
C601 C 0.90449 0.02325 0.34433 0.0
C602 C 0.8062 0.94918 0.34233 0.0
C603 C 0.7837 0.90464 0.34173 0.0
C604 C 0.77035 0.88068 0.35795 0.0
C605 C 0.78101 0.90224 0.37482 0.0
C606 C 0.80363 0.94686 0.3754 0.0
H607 H 0.9393 0.0466 0.34392 0.0
H608 H 0.89924 0.9951 0.35246 0.0
H609 H 0.89373 0.01252 0.33013 0.0
H610 H 0.81498 0.96694 0.32964 0.0
H611 H 0.77573 0.88907 0.32851 0.0
H612 H 0.23039 0.80266 0.38048 0.0
H613 H 0.19009 0.72465 0.37879 0.0
H614 H 0.18745 0.73136 0.32003 0.0
H615 H 0.22818 0.80932 0.32153 0.0
H616 H 0.10772 0.67469 0.36313 0.0
H617 H 0.22888 0.64595 0.32935 0.0
H618 H 0.24248 0.69613 0.34011 0.0
H619 H 0.21796 0.68344 0.31792 0.0
C620 C 0.22186 0.78757 0.36718 0.0
C621 C 0.2326 0.81222 0.35114 0.0
C622 C 0.19862 0.74302 0.36625 0.0
C623 C 0.18597 0.72233 0.34929 0.0
C624 C 0.19741 0.74674 0.33324 0.0
H625 H 0.05954 0.45256 0.32237 0.0
H626 H 0.08105 0.52812 0.32033 0.0
C627 C 0.22066 0.7913 0.33414 0.0
C628 C 0.15968 0.67523 0.34847 0.0
H629 H 0.1603 0.58615 0.33362 0.0
C630 C 0.1191 0.65524 0.35665 0.0
C631 C 0.17458 0.65011 0.3399 0.0
C632 C 0.21848 0.66985 0.33144 0.0
C633 C 0.09302 0.6106 0.35657 0.0
C634 C 0.10826 0.58545 0.34829 0.0
C635 C 0.14851 0.60555 0.33981 0.0
C636 C 0.08509 0.53825 0.34955 0.0
C637 C 0.04943 0.5908 0.36529 0.0
C638 C 0.07829 0.51849 0.36668 0.0
C639 C 0.06585 0.47525 0.36791 0.0
C640 C 0.06054 0.45121 0.35201 0.0
C641 C 0.06356 0.47017 0.33489 0.0
C642 C 0.07599 0.51342 0.33368 0.0
H643 H 0.03726 0.61359 0.36565 0.0
H644 H 0.02605 0.56153 0.35788 0.0
H645 H 0.05163 0.58185 0.37958 0.0
H646 H 0.08573 0.53714 0.37911 0.0
H647 H 0.06377 0.46168 0.38132 0.0
H648 H 0.22354 0.44492 0.38134 0.0
H649 H 0.30139 0.48346 0.38032 0.0
H650 H 0.29769 0.47936 0.32144 0.0
H651 H 0.21951 0.44003 0.32229 0.0
H652 H 0.3515 0.45258 0.33661 0.0
H653 H 0.3835 0.6071 0.36625 0.0
H654 H 0.3487 0.56184 0.38004 0.0
H655 H 0.33161 0.56791 0.35771 0.0
C656 C 0.23919 0.4528 0.36815 0.0
C657 C 0.21531 0.43946 0.35189 0.0
C658 C 0.28372 0.47489 0.3676 0.0
C659 C 0.30522 0.48449 0.35081 0.0
C660 C 0.28159 0.47222 0.33453 0.0
H661 H 0.57152 0.62189 0.32181 0.0
H662 H 0.49516 0.57033 0.32128 0.0
C663 C 0.23697 0.44999 0.33505 0.0
C664 C 0.35234 0.50576 0.35035 0.0
H665 H 0.4426 0.59556 0.36416 0.0
C666 C 0.37153 0.48396 0.34252 0.0
C667 C 0.37823 0.54664 0.35807 0.0
C668 C 0.35953 0.57245 0.36584 0.0
C669 C 0.41609 0.50173 0.34259 0.0
C670 C 0.44181 0.54225 0.3506 0.0
C671 C 0.42261 0.56414 0.35826 0.0
C672 C 0.48894 0.56396 0.35066 0.0
C673 C 0.43532 0.47685 0.33442 0.0
C674 C 0.51099 0.57596 0.36732 0.0
C675 C 0.55461 0.60561 0.36767 0.0
C676 C 0.57673 0.62411 0.35136 0.0
C677 C 0.55542 0.60862 0.33461 0.0
C678 C 0.51171 0.57894 0.33427 0.0
H679 H 0.41114 0.44256 0.33261 0.0
H680 H 0.44889 0.49034 0.32082 0.0
H681 H 0.46165 0.4794 0.34314 0.0
H682 H 0.49387 0.5646 0.38011 0.0
H683 H 0.57009 0.61652 0.38082 0.0
H684 H 0.40971 0.96342 0.38154 0.0
H685 H 0.46239 0.9401 0.38062 0.0
H686 H 0.45805 0.93842 0.32176 0.0
H687 H 0.40577 0.96235 0.32252 0.0
H688 H 0.43388 0.85909 0.36413 0.0
H689 H 0.58593 0.98432 0.33334 0.0
H690 H 0.54791 0.99632 0.34388 0.0
H691 H 0.53799 0.97334 0.32142 0.0
C692 C 0.42102 0.95961 0.36836 0.0
C693 C 0.40279 0.96384 0.35208 0.0
C694 C 0.45111 0.94619 0.36788 0.0
C695 C 0.46382 0.93727 0.35114 0.0
C696 C 0.44891 0.94549 0.33482 0.0
H697 H 0.59285 0.79693 0.32188 0.0
H698 H 0.55291 0.83521 0.32127 0.0
C699 C 0.4188 0.95899 0.33529 0.0
C700 C 0.48655 0.9128 0.35087 0.0
H701 H 0.57778 0.91528 0.33688 0.0
C702 C 0.4655 0.87147 0.35829 0.0
C703 C 0.52735 0.92884 0.34295 0.0
C704 C 0.5514 0.97326 0.33504 0.0
C705 C 0.4841 0.84555 0.35797 0.0
C706 C 0.52526 0.86178 0.35034 0.0
C707 C 0.54621 0.90299 0.34273 0.0
C708 C 0.54758 0.83689 0.35065 0.0
C709 C 0.45917 0.80075 0.36549 0.0
C710 C 0.55744 0.82495 0.36737 0.0
C711 C 0.5799 0.80286 0.36778 0.0
C712 C 0.59332 0.79268 0.35146 0.0
C713 C 0.5828 0.80412 0.33469 0.0
C714 C 0.56022 0.82618 0.33431 0.0
H715 H 0.42434 0.78921 0.3659 0.0
H716 H 0.46451 0.77809 0.35721 0.0
H717 H 0.46987 0.80042 0.37967 0.0
H718 H 0.54859 0.83357 0.38015 0.0
H719 H 0.58776 0.79485 0.38093 0.0
H720 H 0.81076 0.23172 0.72146 0.0
H721 H 0.73274 0.19044 0.72258 0.0
H722 H 0.72758 0.19294 0.66377 0.0
H723 H 0.80557 0.23377 0.66246 0.0
H724 H 0.67224 0.20995 0.70899 0.0
H725 H 0.65699 0.06487 0.67585 0.0
H726 H 0.70699 0.10696 0.68482 0.0
H727 H 0.68788 0.1131 0.663 0.0
C728 C 0.79306 0.22377 0.70876 0.0
C729 C 0.81438 0.23578 0.69186 0.0
C730 C 0.74851 0.20006 0.70943 0.0
C731 C 0.72457 0.18778 0.69325 0.0
C732 C 0.74562 0.20118 0.67639 0.0
H733 H 0.46511 0.07698 0.66145 0.0
H734 H 0.54071 0.09915 0.66363 0.0
C735 C 0.79016 0.2249 0.67569 0.0
C736 C 0.67748 0.1616 0.69399 0.0
H737 H 0.59268 0.06746 0.67948 0.0
C738 C 0.6548 0.17859 0.70275 0.0
C739 C 0.65499 0.12065 0.68584 0.0
C740 C 0.67792 0.10006 0.67699 0.0
C741 C 0.61003 0.15645 0.70297 0.0
C742 C 0.58749 0.11587 0.69449 0.0
C743 C 0.61016 0.09845 0.68604 0.0
C744 C 0.54043 0.09306 0.69302 0.0
C745 C 0.58722 0.17746 0.71159 0.0
C746 C 0.51478 0.07964 0.70872 0.0
C747 C 0.47145 0.06691 0.70754 0.0
C748 C 0.45328 0.06755 0.69064 0.0
C749 C 0.47815 0.07656 0.67472 0.0
C750 C 0.52143 0.0893 0.67592 0.0
H751 H 0.60921 0.21192 0.71439 0.0
H752 H 0.56103 0.17434 0.70262 0.0
H753 H 0.5729 0.16147 0.72475 0.0
H754 H 0.52882 0.08147 0.722 0.0
H755 H 0.45299 0.05933 0.72 0.0
H756 H 0.97204 0.41218 0.72307 0.0
H757 H 0.94912 0.46521 0.72562 0.0
H758 H 0.93533 0.46425 0.6671 0.0
H759 H 0.95825 0.41151 0.66438 0.0
H760 H 0.96482 0.54606 0.684 0.0
H761 H 0.81915 0.41456 0.71674 0.0
H762 H 0.86921 0.42886 0.72754 0.0
H763 H 0.85788 0.40539 0.70515 0.0
C764 C 0.96512 0.42398 0.71071 0.0
C765 C 0.96571 0.40666 0.69358 0.0
C766 C 0.95197 0.45422 0.7122 0.0
C767 C 0.93938 0.46754 0.69658 0.0
C768 C 0.94451 0.45393 0.67933 0.0
H769 H 0.7972 0.58776 0.66397 0.0
H770 H 0.83838 0.55113 0.66635 0.0
C771 C 0.95767 0.42377 0.67782 0.0
C772 C 0.91596 0.49116 0.69818 0.0
H773 H 0.81989 0.47896 0.71142 0.0
C774 C 0.93332 0.53166 0.69014 0.0
C775 C 0.87473 0.47196 0.7061 0.0
C776 C 0.85383 0.42768 0.71427 0.0
C777 C 0.91031 0.55346 0.6897 0.0
C778 C 0.86867 0.53375 0.69719 0.0
C779 C 0.8518 0.49379 0.70566 0.0
C780 C 0.84157 0.55354 0.69587 0.0
C781 C 0.9307 0.59733 0.68121 0.0
C782 C 0.82797 0.565 0.71173 0.0
C783 C 0.80409 0.58559 0.71044 0.0
C784 C 0.79328 0.59483 0.69325 0.0
C785 C 0.80516 0.58131 0.67741 0.0
C786 C 0.82906 0.56078 0.67873 0.0
H787 H 0.96604 0.61238 0.68059 0.0
H788 H 0.91868 0.59461 0.66704 0.0
H789 H 0.92248 0.61865 0.68897 0.0
H790 H 0.83689 0.55912 0.72508 0.0
H791 H 0.79532 0.59548 0.72291 0.0
H792 H 0.62228 0.58015 0.72124 0.0
H793 H 0.56871 0.50439 0.72361 0.0
H794 H 0.5653 0.49338 0.66492 0.0
H795 H 0.61827 0.56907 0.66234 0.0
H796 H 0.48481 0.44071 0.68241 0.0
H797 H 0.61735 0.42458 0.71272 0.0
H798 H 0.60419 0.46019 0.72441 0.0
H799 H 0.62614 0.47301 0.70176 0.0
C800 C 0.60915 0.562 0.7088 0.0
C801 C 0.62524 0.58044 0.6916 0.0
C802 C 0.57875 0.51864 0.7102 0.0
C803 C 0.56412 0.49319 0.69445 0.0
C804 C 0.5766 0.51247 0.67724 0.0
H805 H 0.43867 0.2291 0.66247 0.0
H806 H 0.47556 0.30702 0.66434 0.0
C807 C 0.60689 0.55581 0.6758 0.0
C808 C 0.54028 0.44607 0.69581 0.0
H809 H 0.55184 0.3614 0.70837 0.0
C810 C 0.49924 0.4233 0.68821 0.0
C811 C 0.55949 0.42357 0.70327 0.0
C812 C 0.60433 0.44642 0.71088 0.0
C813 C 0.47685 0.37846 0.68783 0.0
C814 C 0.49643 0.35606 0.69496 0.0
C815 C 0.53705 0.37879 0.70291 0.0
C816 C 0.47576 0.30901 0.69388 0.0
C817 C 0.43241 0.35543 0.67986 0.0
C818 C 0.46547 0.28452 0.70988 0.0
C819 C 0.44472 0.23998 0.70888 0.0
C820 C 0.43416 0.21924 0.69183 0.0
C821 C 0.44619 0.24405 0.67581 0.0
C822 C 0.46687 0.28855 0.67685 0.0
H823 H 0.41789 0.37621 0.67946 0.0
H824 H 0.43398 0.3456 0.66565 0.0
H825 H 0.41124 0.32624 0.68784 0.0
H826 H 0.47259 0.29984 0.72315 0.0
H827 H 0.43598 0.22183 0.72147 0.0
H828 H 0.73131 0.79728 0.71275 0.0
H829 H 0.75575 0.87348 0.71145 0.0
H830 H 0.76118 0.87013 0.65269 0.0
H831 H 0.73627 0.79372 0.65381 0.0
H832 H 0.8387 0.92464 0.69515 0.0
H833 H 0.71573 0.95378 0.66338 0.0
H834 H 0.70244 0.90407 0.67457 0.0
H835 H 0.7259 0.91539 0.65221 0.0
C836 C 0.73621 0.8123 0.69948 0.0
C837 C 0.73275 0.78954 0.68337 0.0
C838 C 0.75024 0.85592 0.69879 0.0
C839 C 0.76055 0.87738 0.682 0.0
C840 C 0.75307 0.85403 0.66578 0.0
H841 H 0.90249 0.14828 0.65472 0.0
H842 H 0.8647 0.07013 0.65322 0.0
C843 C 0.73898 0.81031 0.66646 0.0
C844 C 0.78564 0.92453 0.6817 0.0
H845 H 0.78441 0.0141 0.66803 0.0
C846 C 0.82678 0.94426 0.6893 0.0
C847 C 0.77019 0.94977 0.67376 0.0
C848 C 0.72604 0.92987 0.6656 0.0
C849 C 0.85301 0.98875 0.68923 0.0
C850 C 0.83726 0.01417 0.68169 0.0
C851 C 0.79632 0.99443 0.67382 0.0
C852 C 0.8622 0.06135 0.68251 0.0
C853 C 0.89757 0.00804 0.69698 0.0
C854 C 0.87359 0.08215 0.69947 0.0
C855 C 0.8954 0.12665 0.70039 0.0
C856 C 0.90583 0.15122 0.68434 0.0
C857 C 0.89508 0.13029 0.66733 0.0
C858 C 0.8733 0.08568 0.66644 0.0
H859 H 0.90898 0.98463 0.69712 0.0
H860 H 0.92055 0.03651 0.68904 0.0
H861 H 0.89748 0.01816 0.71129 0.0
H862 H 0.86465 0.06393 0.71205 0.0
H863 H 0.90288 0.14172 0.71371 0.0
H864 H 0.89291 0.77806 0.71384 0.0
H865 H 0.97094 0.81598 0.71216 0.0
H866 H 0.96418 0.80447 0.65346 0.0
H867 H 0.88626 0.76713 0.65494 0.0
H868 H 0.02161 0.78407 0.69719 0.0
H869 H 0.04862 0.93159 0.66179 0.0
H870 H -0.0015 0.89502 0.67256 0.0
H871 H 0.01166 0.8826 0.65059 0.0
C872 C 0.908 0.78418 0.70055 0.0
C873 C 0.88335 0.76971 0.68452 0.0
C874 C 0.95257 0.80561 0.69963 0.0
C875 C 0.97325 0.81317 0.68269 0.0
C876 C 0.94882 0.79948 0.66665 0.0
H877 H 0.24299 0.95583 0.65533 0.0
H878 H 0.16744 0.90152 0.6536 0.0
C879 C 0.90427 0.7781 0.66754 0.0
C880 C 0.02038 0.83433 0.68186 0.0
H881 H 0.10886 0.92355 0.66627 0.0
C882 C 0.04076 0.81455 0.69041 0.0
C883 C 0.04513 0.8739 0.67291 0.0
C884 C 0.02501 0.8973 0.66406 0.0
C885 C 0.08544 0.83348 0.69031 0.0
C886 C 0.11021 0.87338 0.68161 0.0
C887 C 0.08973 0.89271 0.67277 0.0
C888 C 0.15739 0.89787 0.68282 0.0
C889 C 0.10572 0.81062 0.69946 0.0
C890 C 0.17717 0.91235 0.69986 0.0
C891 C 0.22031 0.94346 0.70088 0.0
C892 C 0.24428 0.96101 0.68486 0.0
C893 C 0.22534 0.94351 0.6679 0.0
C894 C 0.18214 0.91241 0.66688 0.0
H895 H 0.08314 0.77567 0.70031 0.0
H896 H 0.13486 0.81613 0.69206 0.0
H897 H 0.11502 0.82292 0.71359 0.0
H898 H 0.15858 0.90202 0.71232 0.0
H899 H 0.23386 0.95607 0.71419 0.0
H900 H 0.25446 0.13273 0.71515 0.0
H901 H 0.21614 0.17231 0.71446 0.0
H902 H 0.21755 0.1714 0.65556 0.0
H903 H 0.25667 0.13232 0.65607 0.0
H904 H 0.24458 0.25218 0.6704 0.0
H905 H 0.09185 0.13013 0.70148 0.0
H906 H 0.13785 0.14128 0.71488 0.0
H907 H 0.1308 0.11741 0.69266 0.0
C908 C 0.24607 0.14031 0.70202 0.0
C909 C 0.25853 0.12927 0.68566 0.0
C910 C 0.2241 0.1629 0.70167 0.0
C911 C 0.21375 0.17445 0.68496 0.0
C912 C 0.22527 0.16271 0.66859 0.0
H913 H 0.07291 0.3001 0.65649 0.0
H914 H 0.12512 0.27607 0.65574 0.0
C915 C 0.24738 0.14018 0.66892 0.0
C916 C 0.19229 0.20016 0.68467 0.0
H917 H 0.10277 0.20045 0.69907 0.0
C918 C 0.21346 0.24086 0.67657 0.0
C919 C 0.15173 0.18521 0.69272 0.0
C920 C 0.1265 0.14096 0.70077 0.0
C921 C 0.1954 0.26741 0.67666 0.0
C922 C 0.1552 0.25265 0.68498 0.0
C923 C 0.13395 0.21187 0.69293 0.0
C924 C 0.13316 0.27777 0.68507 0.0
C925 C 0.21959 0.3112 0.66817 0.0
C926 C 0.12189 0.28846 0.70176 0.0
C927 C 0.09198 0.3021 0.70226 0.0
C928 C 0.07252 0.30478 0.68606 0.0
C929 C 0.08718 0.29826 0.66922 0.0
C930 C 0.11713 0.28457 0.66875 0.0
H931 H 0.25383 0.32144 0.66604 0.0
H932 H 0.20531 0.31066 0.65468 0.0
H933 H 0.21734 0.33521 0.67684 0.0
H934 H 0.13403 0.28344 0.71449 0.0
H935 H 0.08164 0.30717 0.71545 0.0
H936 H 0.1356 0.40916 0.26264 0.0
H937 H 0.13025 0.43091 0.23144 0.0
H938 H 0.00049 0.32658 0.22806 0.0
H939 H 0.00514 0.30607 0.25937 0.0
H940 H 0.11467 0.3866 0.19935 0.0
H941 H 0.98638 0.42489 0.21092 0.0
H942 H 0.01538 0.41819 0.22948 0.0
H943 H 0.97131 0.37232 0.21889 0.0
C944 C 0.10557 0.39174 0.25546 0.0
C945 C 0.07036 0.35662 0.2637 0.0
C946 C 0.1027 0.40384 0.23752 0.0
C947 C 0.06459 0.38105 0.22751 0.0
C948 C 0.02981 0.34551 0.23563 0.0
H949 H 0.96788 0.34127 0.11945 0.0
H950 H 0.98727 0.34039 0.15139 0.0
C951 C 0.03263 0.33355 0.25348 0.0
C952 C 0.06126 0.39281 0.20831 0.0
H953 H 0.99715 0.41095 0.17974 0.0
C954 C 0.0895 0.39275 0.19512 0.0
C955 C 0.02855 0.40111 0.20274 0.0
C956 C -0.00101 0.4046 0.2163 0.0
C957 C 0.08438 0.39842 0.17644 0.0
C958 C 0.05025 0.40431 0.17086 0.0
C959 C 0.02313 0.40613 0.18407 0.0
C960 C 0.0401 0.40529 0.15128 0.0
C961 C 0.1142 0.39625 0.16264 0.0
C962 C 0.06329 0.44222 0.14065 0.0
C963 C 0.052 0.44293 0.12235 0.0
C964 C 0.01759 0.40654 0.11436 0.0
C965 C 0.9946 0.36973 0.12516 0.0
C966 C 0.00569 0.36913 0.14339 0.0
H967 H 0.1384 0.3901 0.16912 0.0
H968 H 0.09559 0.37054 0.15258 0.0
H969 H 0.13099 0.42685 0.15502 0.0
H970 H 0.08957 0.47068 0.14661 0.0
H971 H 0.06936 0.47228 0.11471 0.0
H972 H 0.63945 0.66716 0.26855 0.0
H973 H 0.62286 0.6444 0.2366 0.0
H974 H 0.69084 0.77616 0.21942 0.0
H975 H 0.70771 0.79885 0.25137 0.0
H976 H 0.58052 0.66088 0.20909 0.0
H977 H 0.75079 0.72559 0.19071 0.0
H978 H 0.73307 0.7207 0.21407 0.0
H979 H 0.73987 0.76486 0.20027 0.0
C980 C 0.64996 0.69124 0.25799 0.0
C981 C 0.67442 0.73483 0.26244 0.0
C982 C 0.64079 0.67822 0.23972 0.0
C983 C 0.65619 0.70852 0.22556 0.0
C984 C 0.67941 0.75212 0.23004 0.0
H985 H 0.65057 0.69263 0.10681 0.0
H986 H 0.65592 0.71606 0.1386 0.0
C987 C 0.6888 0.76509 0.24828 0.0
C988 C 0.64895 0.69452 0.20611 0.0
H989 H 0.70104 0.70033 0.1663 0.0
C990 C 0.60686 0.6694 0.19974 0.0
C991 C 0.68334 0.70548 0.19391 0.0
C992 C 0.72931 0.73027 0.20009 0.0
C993 C 0.59827 0.65562 0.18146 0.0
C994 C 0.63267 0.66689 0.16927 0.0
C995 C 0.6747 0.69199 0.17563 0.0
C996 C 0.626 0.65229 0.14994 0.0
C997 C 0.55247 0.6297 0.17524 0.0
C998 C 0.60745 0.60868 0.14574 0.0
C999 C 0.60416 0.59527 0.12756 0.0
C1000 C 0.61905 0.62515 0.11324 0.0
C1001 C 0.63741 0.66878 0.11747 0.0
C1002 C 0.64091 0.68221 0.13565 0.0
H1003 H 0.53023 0.63254 0.18485 0.0
H1004 H 0.54836 0.6399 0.16144 0.0
H1005 H 0.5434 0.59553 0.17446 0.0
H1006 H 0.59659 0.58507 0.15654 0.0
H1007 H 0.59046 0.56155 0.12466 0.0
H1008 H 0.421 0.96735 0.11509 0.0
H1009 H 0.39893 0.94841 0.14704 0.0
H1010 H 0.35413 0.03885 0.14814 0.0
H1011 H 0.37616 0.05769 0.11632 0.0
H1012 H 0.40427 0.04791 0.17732 0.0
H1013 H 0.27993 0.87737 0.16909 0.0
H1014 H 0.33125 0.89152 0.15968 0.0
H1015 H 0.30093 0.91377 0.15002 0.0
C1016 C 0.40546 0.9823 0.12202 0.0
C1017 C 0.39955 0.01343 0.11311 0.0
C1018 C 0.39299 0.97161 0.14031 0.0
C1019 C 0.37426 0.99175 0.14997 0.0
C1020 C 0.36835 0.02275 0.14101 0.0
H1021 H 0.23332 0.93253 0.25101 0.0
H1022 H 0.25772 0.93965 0.2193 0.0
C1023 C 0.38093 0.03351 0.12284 0.0
C1024 C 0.36247 0.98238 0.16961 0.0
H1025 H 0.29688 0.90375 0.19933 0.0
C1026 C 0.38092 0.01633 0.18214 0.0
C1027 C 0.33171 0.94125 0.17588 0.0
C1028 C 0.30945 0.90389 0.16298 0.0
C1029 C 0.36916 0.01052 0.20066 0.0
C1030 C 0.33874 0.96931 0.207 0.0
C1031 C 0.32051 0.93522 0.19451 0.0
C1032 C 0.32367 0.96165 0.22631 0.0
C1033 C 0.38833 0.04898 0.21312 0.0
C1034 C 0.35235 0.97074 0.24085 0.0
C1035 C 0.33847 0.96697 0.25898 0.0
C1036 C 0.29543 0.95324 0.26295 0.0
C1037 C 0.26659 0.94294 0.24836 0.0
C1038 C 0.28049 0.94688 0.23025 0.0
H1039 H 0.40265 0.07939 0.20531 0.0
H1040 H 0.3639 0.04816 0.22256 0.0
H1041 H 0.414 0.04896 0.22142 0.0
H1042 H 0.38573 0.98173 0.23818 0.0
H1043 H 0.36183 0.97653 0.2698 0.0
H1044 H 0.33455 0.97279 0.92562 0.0
H1045 H 0.33316 0.99147 0.89363 0.0
H1046 H 0.46788 0.08319 0.89608 0.0
H1047 H 0.46936 0.06428 0.92821 0.0
H1048 H 0.42008 0.11401 0.87775 0.0
H1049 H 0.38165 0.95515 0.85135 0.0
H1050 H 0.34486 0.95204 0.86857 0.0
H1051 H 0.40004 0.97212 0.87441 0.0
C1052 C 0.36386 0.997 0.91934 0.0
C1053 C 0.40194 0.01736 0.92949 0.0
C1054 C 0.36308 0.00754 0.90104 0.0
C1055 C 0.40054 0.03827 0.89235 0.0
C1056 C 0.43858 0.05936 0.90251 0.0
H1057 H 0.40217 0.05535 0.77292 0.0
H1058 H 0.42246 0.05132 0.80442 0.0
C1059 C 0.43934 0.04883 0.92092 0.0
C1060 C 0.39958 0.04786 0.87263 0.0
H1061 H 0.37131 0.00034 0.83067 0.0
C1062 C 0.40986 0.0893 0.86741 0.0
C1063 C 0.387 0.01584 0.85907 0.0
C1064 C 0.37818 0.9714 0.86357 0.0
C1065 C 0.4061 0.09908 0.84913 0.0
C1066 C 0.39098 0.06635 0.83576 0.0
C1067 C 0.38246 0.02539 0.84089 0.0
C1068 C 0.38218 0.07324 0.81653 0.0
C1069 C 0.41848 0.14441 0.84433 0.0
C1070 C 0.35285 0.08696 0.81275 0.0
C1071 C 0.34179 0.08996 0.79471 0.0
C1072 C 0.3597 0.07924 0.78002 0.0
C1073 C 0.38912 0.06556 0.78381 0.0
C1074 C 0.4003 0.06268 0.80187 0.0
H1075 H 0.44181 0.16749 0.85429 0.0
H1076 H 0.43255 0.15302 0.83043 0.0
H1077 H 0.38959 0.14775 0.8447 0.0
H1078 H 0.33739 0.09408 0.82377 0.0
H1079 H 0.31855 0.09995 0.79221 0.0
H1080 H 0.05622 0.3773 0.92709 0.0
H1081 H 0.03775 0.35633 0.89515 0.0
H1082 H 0.94603 0.39944 0.89682 0.0
H1083 H 0.96475 0.42074 0.92889 0.0
H1084 H 0.91556 0.32021 0.87874 0.0
H1085 H 0.0747 0.44085 0.85269 0.0
H1086 H 0.07755 0.40745 0.87011 0.0
H1087 H 0.05723 0.44251 0.87562 0.0
C1088 C 0.03203 0.38219 0.92065 0.0
C1089 C 0.01165 0.40026 0.93055 0.0
C1090 C 0.0216 0.37035 0.90239 0.0
C1091 C 0.99096 0.37689 0.89348 0.0
C1092 C 0.96979 0.39411 0.90341 0.0
H1093 H 0.97535 0.36243 0.7742 0.0
H1094 H 0.97898 0.38597 0.80578 0.0
C1095 C 0.98021 0.40592 0.92179 0.0
C1096 C 0.98171 0.36607 0.87378 0.0
H1097 H 0.02983 0.38537 0.83197 0.0
C1098 C 0.9404 0.33473 0.86847 0.0
C1099 C 0.01392 0.38553 0.8603 0.0
C1100 C 0.05822 0.42126 0.8649 0.0
C1101 C 0.93092 0.32113 0.85018 0.0
C1102 C 0.9638 0.33887 0.83689 0.0
C1103 C 0.00466 0.37139 0.84212 0.0
C1104 C 0.95714 0.32354 0.81762 0.0
C1105 C 0.88571 0.28805 0.84527 0.0
C1106 C 0.94358 0.28058 0.81365 0.0
C1107 C 0.94077 0.26695 0.79554 0.0
C1108 C 0.9515 0.29591 0.78098 0.0
C1109 C 0.96507 0.3389 0.78497 0.0
C1110 C 0.96774 0.35252 0.80309 0.0
H1111 H 0.86243 0.28793 0.85522 0.0
H1112 H 0.87715 0.29366 0.83139 0.0
H1113 H 0.88261 0.25592 0.84552 0.0
H1114 H 0.93644 0.25779 0.82457 0.0
H1115 H 0.9309 0.23381 0.79287 0.0
H1116 H 0.74464 0.62679 0.78059 0.0
H1117 H 0.7187 0.60477 0.81191 0.0
H1118 H 0.68946 0.70651 0.8156 0.0
H1119 H 0.71348 0.72725 0.78417 0.0
H1120 H 0.74719 0.64951 0.84392 0.0
H1121 H 0.57886 0.60608 0.83309 0.0
H1122 H 0.61452 0.61377 0.81436 0.0
H1123 H 0.61505 0.65897 0.82503 0.0
C1124 C 0.73147 0.64357 0.78787 0.0
C1125 C 0.72994 0.678 0.77969 0.0
C1126 C 0.71715 0.63133 0.80588 0.0
C1127 C 0.70108 0.65329 0.816 0.0
C1128 C 0.70045 0.6882 0.80794 0.0
H1129 H 0.64671 0.69192 0.92454 0.0
H1130 H 0.667 0.69323 0.89256 0.0
C1131 C 0.71459 0.7003 0.79002 0.0
C1132 C 0.68657 0.64129 0.83524 0.0
H1133 H 0.60413 0.62054 0.86417 0.0
C1134 C 0.71563 0.64236 0.8483 0.0
C1135 C 0.64526 0.63166 0.84099 0.0
C1136 C 0.6115 0.62709 0.82759 0.0
C1137 C 0.70523 0.6364 0.867 0.0
C1138 C 0.66486 0.6292 0.87276 0.0
C1139 C 0.63519 0.62634 0.85969 0.0
C1140 C 0.65406 0.62804 0.89238 0.0
C1141 C 0.73792 0.6396 0.88066 0.0
C1142 C 0.63993 0.59083 0.90285 0.0
C1143 C 0.62798 0.58989 0.92117 0.0
C1144 C 0.63035 0.62631 0.92931 0.0
C1145 C 0.64468 0.66344 0.91869 0.0
C1146 C 0.65637 0.66428 0.90044 0.0
H1147 H 0.76811 0.64573 0.87402 0.0
H1148 H 0.74517 0.66579 0.89048 0.0
H1149 H 0.72471 0.60946 0.88859 0.0
H1150 H 0.63739 0.56233 0.89675 0.0
H1151 H 0.61567 0.56035 0.9287 0.0
H1152 H 0.65481 0.77049 0.45772 0.0
H1153 H 0.67264 0.76549 0.48961 0.0
H1154 H 0.74341 0.70482 0.47208 0.0
H1155 H 0.7258 0.71011 0.44024 0.0
H1156 H 0.65034 0.69354 0.50856 0.0
H1157 H 0.82698 0.79252 0.50758 0.0
H1158 H 0.794 0.79357 0.4893 0.0
H1159 H 0.80615 0.75106 0.49064 0.0
C1160 C 0.6748 0.7568 0.46072 0.0
C1161 C 0.68978 0.74166 0.44648 0.0
C1162 C 0.68494 0.75389 0.4789 0.0
C1163 C 0.71007 0.7355 0.48329 0.0
C1164 C 0.72515 0.72038 0.46906 0.0
H1165 H 0.77088 0.65172 0.5845 0.0
H1166 H 0.76405 0.66845 0.55258 0.0
C1167 C 0.71519 0.72353 0.45084 0.0
C1168 C 0.71773 0.72937 0.50276 0.0
H1169 H 0.79586 0.74983 0.53413 0.0
C1170 C 0.68219 0.70619 0.51417 0.0
C1171 C 0.75929 0.74567 0.5101 0.0
C1172 C 0.79881 0.77244 0.49883 0.0
C1173 C 0.68698 0.69824 0.53255 0.0
C1174 C 0.72847 0.71437 0.53986 0.0
C1175 C 0.76408 0.73754 0.5285 0.0
C1176 C 0.73532 0.70683 0.55922 0.0
C1177 C 0.6475 0.67174 0.54391 0.0
C1178 C 0.72219 0.72349 0.57354 0.0
C1179 C 0.72614 0.71402 0.59173 0.0
C1180 C 0.7437 0.68803 0.59596 0.0
C1181 C 0.75755 0.67207 0.5816 0.0
C1182 C 0.75372 0.68166 0.56341 0.0
H1183 H 0.61856 0.65376 0.5353 0.0
H1184 H 0.65142 0.64869 0.55255 0.0
H1185 H 0.64218 0.69311 0.55307 0.0
H1186 H 0.70812 0.74319 0.57062 0.0
H1187 H 0.71395 0.72568 0.60241 0.0
H1188 H 0.25566 0.89555 0.45834 0.0
H1189 H 0.26038 0.91854 0.49019 0.0
H1190 H 0.32042 0.04982 0.47253 0.0
H1191 H 0.31548 0.02678 0.44074 0.0
H1192 H 0.33204 0.96874 0.50931 0.0
H1193 H 0.23201 0.04522 0.50775 0.0
H1194 H 0.2314 0.01116 0.48957 0.0
H1195 H 0.27357 0.06597 0.49087 0.0
C1196 C 0.26916 0.92923 0.46129 0.0
C1197 C 0.2842 0.95925 0.44702 0.0
C1198 C 0.27191 0.94237 0.47947 0.0
C1199 C 0.29 0.98589 0.48381 0.0
C1200 C 0.30506 0.01598 0.46955 0.0
H1201 H 0.37318 0.13339 0.58414 0.0
H1202 H 0.35576 0.10836 0.55244 0.0
C1203 C 0.3021 0.00279 0.45134 0.0
C1204 C 0.29586 -0.00017 0.50328 0.0
H1205 H 0.27487 0.05771 0.53434 0.0
C1206 C 0.31917 0.98786 0.5148 0.0
C1207 C 0.27926 0.02496 0.51048 0.0
C1208 C 0.25231 0.03727 0.49908 0.0
C1209 C 0.32707 0.00097 0.53316 0.0
C1210 C 0.31073 0.02631 0.54031 0.0
C1211 C 0.28733 0.03824 0.52884 0.0
C1212 C 0.31855 0.04146 0.55958 0.0
C1213 C 0.35387 0.98854 0.54461 0.0
C1214 C 0.30273 0.01227 0.57414 0.0
C1215 C 0.31261 0.02655 0.59223 0.0
C1216 C 0.33817 0.07035 0.59612 0.0
C1217 C 0.35319 0.09952 0.58152 0.0
C1218 C 0.34321 0.08527 0.56344 0.0
H1219 H 0.37198 0.97759 0.53608 0.0
H1220 H 0.37684 0.01578 0.55317 0.0
H1221 H 0.33269 0.96198 0.55386 0.0
H1222 H 0.2834 0.97834 0.5715 0.0
H1223 H 0.30166 0.00318 0.6031 0.0
H1224 H 0.98963 0.36452 0.59334 0.0
H1225 H 0.01 0.36605 0.56138 0.0
H1226 H 0.96807 0.23156 0.56388 0.0
H1227 H 0.94743 0.22995 0.59599 0.0
H1228 H 0.0466 0.28008 0.54532 0.0
H1229 H 0.92433 0.31637 0.51939 0.0
H1230 H 0.95799 0.35342 0.53654 0.0
H1231 H 0.92351 0.29816 0.54242 0.0
C1232 C 0.9849 0.33531 0.58708 0.0
C1233 C 0.96731 0.29723 0.59722 0.0
C1234 C 0.99639 0.33617 0.56881 0.0
C1235 C 0.98995 0.29879 0.56012 0.0
C1236 C 0.97329 0.26079 0.5703 0.0
H1237 H 0.00248 0.29577 0.44075 0.0
H1238 H 0.97932 0.27585 0.47237 0.0
C1239 C 0.96185 0.25996 0.58869 0.0
C1240 C 0.00023 0.29973 0.54038 0.0
H1241 H 0.97962 0.32712 0.49852 0.0
C1242 C 0.03168 0.28993 0.53504 0.0
C1243 C 0.98023 0.31183 0.5269 0.0
C1244 C 0.94432 0.32012 0.53154 0.0
C1245 C 0.04489 0.29367 0.51671 0.0
C1246 C 0.02666 0.30828 0.50342 0.0
C1247 C 0.99399 0.31635 0.50868 0.0
C1248 C 0.04177 0.31685 0.48411 0.0
C1249 C 0.07814 0.28179 0.51178 0.0
C1250 C 0.08461 0.34647 0.48008 0.0
C1251 C 0.09803 0.3573 0.46195 0.0
C1252 C 0.06896 0.33888 0.44743 0.0
C1253 C 0.02609 0.3092 0.45149 0.0
C1254 C 0.01269 0.29823 0.46962 0.0
H1255 H 0.0785 0.2588 0.52175 0.0
H1256 H 0.07249 0.26749 0.49792 0.0
H1257 H 0.11017 0.31094 0.51198 0.0
H1258 H 0.10747 0.36231 0.49096 0.0
H1259 H 0.13108 0.38076 0.45925 0.0
loop_
_geom_bond_atom_site_label_1
_geom_bond_atom_site_label_2
_geom_bond_distance
_geom_bond_site_symmetry_2
_ccdc_geom_bond_type
Zn0 O1 2.055 . S
Zn0 O8 2.046 1_455 S
Zn0 N16 2.036 . S
Zn0 O28 2.053 1_455 S
Zn0 O30 2.066 . S
O1 Zn0 2.055 . S
O1 C4 1.259 . S
C2 O30 1.256 . S
C2 O31 1.210 1_554 S
Zn3 O5 2.046 . S
Zn3 O7 2.055 1_455 S
Zn3 N9 2.036 . S
Zn3 O27 2.066 1_455 S
Zn3 O31 2.064 . S
C4 O1 1.259 . S
C4 O5 1.254 1_554 S
O5 Zn3 2.046 . S
O5 C4 1.254 1_556 S
C6 O27 1.256 1_554 S
C6 O28 1.244 . S
O7 Zn3 2.055 1_655 S
O7 C29 1.259 1_556 S
O8 Zn0 2.046 1_655 S
O8 C29 1.254 . S
N9 Zn3 2.036 . S
N9 C10 1.298 1_455 S
N9 N12 1.398 . S
C10 N9 1.298 1_655 S
C10 N13 1.367 . S
C10 C23 1.481 . S
C11 N12 1.299 . S
C11 N13 1.379 1_455 S
N12 N9 1.398 . S
N12 C11 1.299 . S
N13 C10 1.367 . S
N13 C11 1.379 1_655 S
C14 N16 1.298 . S
C14 N18 1.367 . S
C14 C22 1.481 . S
C15 N17 1.299 . S
C15 N18 1.379 1_655 S
N16 Zn0 2.036 . S
N16 C14 1.298 . S
N16 N17 1.398 1_455 S
N17 C15 1.299 . S
N17 N16 1.398 1_655 S
N18 C14 1.367 . S
N18 C15 1.379 1_455 S
H19 C22 0.980 . S
H20 C22 0.981 . S
H21 C22 0.981 . S
C22 C14 1.481 . S
C22 H19 0.980 . S
C22 H20 0.981 . S
C22 H21 0.981 . S
C23 C10 1.481 . S
C23 H24 0.980 . S
C23 H25 0.981 . S
C23 H26 0.981 . S
H24 C23 0.980 . S
H25 C23 0.981 . S
H26 C23 0.981 . S
O27 Zn3 2.066 1_655 S
O27 C6 1.256 1_556 S
O28 Zn0 2.053 1_655 S
O28 C6 1.244 . S
C29 O7 1.259 1_554 S
C29 O8 1.254 . S
O30 Zn0 2.066 . S
O30 C2 1.256 . S
O31 C2 1.210 1_556 S
O31 Zn3 2.064 . S
Zn32 O33 2.055 . S
Zn32 O40 2.046 . S
Zn32 N48 2.036 . S
Zn32 O60 2.053 . S
Zn32 O62 2.066 . S
O33 Zn32 2.055 . S
O33 C36 1.259 . S
C34 O62 1.256 . S
C34 O63 1.209 1_554 S
Zn35 O37 2.046 . S
Zn35 O39 2.055 . S
Zn35 N41 2.036 . S
Zn35 O59 2.066 . S
Zn35 O63 2.064 . S
C36 O33 1.259 . S
C36 O37 1.254 1_554 S
O37 Zn35 2.046 . S
O37 C36 1.254 1_556 S
C38 O59 1.256 1_554 S
C38 O60 1.244 . S
O39 Zn35 2.055 . S
O39 C61 1.259 1_556 S
O40 Zn32 2.046 . S
O40 C61 1.254 . S
N41 Zn35 2.036 . S
N41 C42 1.298 . S
N41 N44 1.398 . S
C42 N41 1.298 . S
C42 N45 1.367 . S
C42 C55 1.481 . S
C43 N44 1.299 . S
C43 N45 1.379 . S
N44 N41 1.398 . S
N44 C43 1.299 . S
N45 C42 1.367 . S
N45 C43 1.379 . S
C46 N48 1.298 . S
C46 N50 1.367 . S
C46 C54 1.481 . S
C47 N49 1.299 . S
C47 N50 1.379 . S
N48 Zn32 2.036 . S
N48 C46 1.298 . S
N48 N49 1.398 . S
N49 C47 1.299 . S
N49 N48 1.398 . S
N50 C46 1.367 . S
N50 C47 1.379 . S
H51 C54 0.980 . S
H52 C54 0.981 . S
H53 C54 0.981 . S
C54 C46 1.481 . S
C54 H51 0.980 . S
C54 H52 0.981 . S
C54 H53 0.981 . S
C55 C42 1.481 . S
C55 H56 0.980 . S
C55 H57 0.981 . S
C55 H58 0.981 . S
H56 C55 0.980 . S
H57 C55 0.981 . S
H58 C55 0.981 . S
O59 Zn35 2.066 . S
O59 C38 1.256 1_556 S
O60 Zn32 2.053 . S
O60 C38 1.244 . S
C61 O39 1.259 1_554 S
C61 O40 1.254 . S
O62 Zn32 2.066 . S
O62 C34 1.256 . S
O63 C34 1.209 1_556 S
O63 Zn35 2.064 . S
Zn64 O65 2.055 . S
Zn64 O72 2.046 1_545 S
Zn64 N80 2.036 . S
Zn64 O92 2.064 1_545 S
Zn64 O94 2.066 . S
O65 Zn64 2.055 . S
O65 C68 1.259 1_556 S
C66 O94 1.256 1_554 S
C66 O95 1.244 . S
Zn67 O69 2.046 . S
Zn67 O71 2.055 1_545 S
Zn67 N73 2.036 . S
Zn67 O91 2.066 1_545 S
Zn67 O95 2.053 . S
C68 O65 1.259 1_554 S
C68 O69 1.254 . S
O69 Zn67 2.046 . S
O69 C68 1.254 . S
C70 O91 1.256 . S
C70 O92 1.209 1_554 S
O71 Zn67 2.055 1_565 S
O71 C93 1.259 . S
O72 Zn64 2.046 1_565 S
O72 C93 1.254 1_556 S
N73 Zn67 2.036 . S
N73 C74 1.298 1_545 S
N73 N76 1.398 . S
C74 N73 1.298 1_565 S
C74 N77 1.367 . S
C74 C87 1.481 . S
C75 N76 1.299 . S
C75 N77 1.379 1_545 S
N76 N73 1.398 . S
N76 C75 1.299 . S
N77 C74 1.367 . S
N77 C75 1.379 1_565 S
C78 N80 1.298 . S
C78 N82 1.367 . S
C78 C86 1.481 . S
C79 N81 1.299 . S
C79 N82 1.379 1_565 S
N80 Zn64 2.036 . S
N80 C78 1.298 . S
N80 N81 1.398 1_545 S
N81 C79 1.299 . S
N81 N80 1.398 1_565 S
N82 C78 1.367 . S
N82 C79 1.379 1_545 S
H83 C86 0.980 . S
H84 C86 0.981 . S
H85 C86 0.981 . S
C86 C78 1.481 . S
C86 H83 0.980 . S
C86 H84 0.981 . S
C86 H85 0.981 . S
C87 C74 1.481 . S
C87 H88 0.980 . S
C87 H89 0.981 . S
C87 H90 0.981 . S
H88 C87 0.980 . S
H89 C87 0.981 . S
H90 C87 0.981 . S
O91 Zn67 2.066 1_565 S
O91 C70 1.256 . S
O92 Zn64 2.064 1_565 S
O92 C70 1.209 1_556 S
C93 O71 1.259 . S
C93 O72 1.254 1_554 S
O94 Zn64 2.066 . S
O94 C66 1.256 1_556 S
O95 C66 1.244 . S
O95 Zn67 2.053 . S
Zn96 O97 2.055 . S
Zn96 O104 2.046 . S
Zn96 N112 2.036 . S
Zn96 O124 2.053 . S
Zn96 O126 2.066 . S
O97 Zn96 2.055 . S
O97 C100 1.259 . S
C98 O126 1.256 . S
C98 O127 1.244 . S
Zn99 O101 2.046 . S
Zn99 O103 2.055 . S
Zn99 N105 2.036 . S
Zn99 O123 2.066 . S
Zn99 O127 2.053 . S
C100 O97 1.259 . S
C100 O101 1.254 . S
O101 Zn99 2.046 . S
O101 C100 1.254 . S
C102 O123 1.256 . S
C102 O124 1.244 . S
O103 Zn99 2.055 . S
O103 C125 1.259 . S
O104 Zn96 2.046 . S
O104 C125 1.254 . S
N105 Zn99 2.036 . S
N105 C106 1.298 . S
N105 N108 1.398 . S
C106 N105 1.298 . S
C106 N109 1.367 . S
C106 C119 1.481 . S
C107 N108 1.299 . S
C107 N109 1.379 . S
N108 N105 1.398 . S
N108 C107 1.299 . S
N109 C106 1.367 . S
N109 C107 1.379 . S
C110 N112 1.298 . S
C110 N114 1.367 . S
C110 C118 1.481 . S
C111 N113 1.299 . S
C111 N114 1.379 . S
N112 Zn96 2.036 . S
N112 C110 1.298 . S
N112 N113 1.398 . S
N113 C111 1.299 . S
N113 N112 1.398 . S
N114 C110 1.367 . S
N114 C111 1.379 . S
H115 C118 0.980 . S
H116 C118 0.981 . S
H117 C118 0.981 . S
C118 C110 1.481 . S
C118 H115 0.980 . S
C118 H116 0.981 . S
C118 H117 0.981 . S
C119 C106 1.481 . S
C119 H120 0.980 . S
C119 H121 0.981 . S
C119 H122 0.981 . S
H120 C119 0.980 . S
H121 C119 0.981 . S
H122 C119 0.981 . S
O123 Zn99 2.066 . S
O123 C102 1.256 . S
O124 Zn96 2.053 . S
O124 C102 1.244 . S
C125 O103 1.259 . S
C125 O104 1.254 . S
O126 Zn96 2.066 . S
O126 C98 1.256 . S
O127 C98 1.244 . S
O127 Zn99 2.053 . S
Zn128 O129 2.055 . S
Zn128 O136 2.046 . S
Zn128 N144 2.036 . S
Zn128 O156 2.053 . S
Zn128 O158 2.066 . S
O129 Zn128 2.055 . S
O129 C132 1.259 . S
C130 O158 1.256 . S
C130 O159 1.244 . S
Zn131 O133 2.046 . S
Zn131 O135 2.055 . S
Zn131 N137 2.036 . S
Zn131 O155 2.066 . S
Zn131 O159 2.053 . S
C132 O129 1.259 . S
C132 O133 1.254 . S
O133 Zn131 2.046 . S
O133 C132 1.254 . S
C134 O155 1.256 . S
C134 O156 1.244 . S
O135 Zn131 2.055 . S
O135 C157 1.259 . S
O136 Zn128 2.046 . S
O136 C157 1.254 . S
N137 Zn131 2.036 . S
N137 C138 1.298 . S
N137 N140 1.398 . S
C138 N137 1.298 . S
C138 N141 1.367 . S
C138 C151 1.481 . S
C139 N140 1.299 . S
C139 N141 1.379 . S
N140 N137 1.398 . S
N140 C139 1.299 . S
N141 C138 1.367 . S
N141 C139 1.379 . S
C142 N144 1.298 . S
C142 N146 1.367 . S
C142 C150 1.481 . S
C143 N145 1.299 . S
C143 N146 1.379 . S
N144 Zn128 2.036 . S
N144 C142 1.298 . S
N144 N145 1.398 . S
N145 C143 1.299 . S
N145 N144 1.398 . S
N146 C142 1.367 . S
N146 C143 1.379 . S
H147 C150 0.980 . S
H148 C150 0.981 . S
H149 C150 0.981 . S
C150 C142 1.481 . S
C150 H147 0.980 . S
C150 H148 0.981 . S
C150 H149 0.981 . S
C151 C138 1.481 . S
C151 H152 0.980 . S
C151 H153 0.981 . S
C151 H154 0.981 . S
H152 C151 0.980 . S
H153 C151 0.981 . S
H154 C151 0.981 . S
O155 Zn131 2.066 . S
O155 C134 1.256 . S
O156 Zn128 2.053 . S
O156 C134 1.244 . S
C157 O135 1.259 . S
C157 O136 1.254 . S
O158 Zn128 2.066 . S
O158 C130 1.256 . S
O159 C130 1.244 . S
O159 Zn131 2.053 . S
Zn160 O161 2.055 . S
Zn160 O168 2.046 . S
Zn160 N176 2.036 . S
Zn160 O188 2.053 . S
Zn160 O190 2.066 . S
O161 Zn160 2.055 . S
O161 C164 1.259 . S
C162 O190 1.256 . S
C162 O191 1.244 . S
Zn163 O165 2.046 . S
Zn163 O167 2.055 . S
Zn163 N169 2.036 . S
Zn163 O187 2.066 . S
Zn163 O191 2.053 . S
C164 O161 1.259 . S
C164 O165 1.254 . S
O165 Zn163 2.046 . S
O165 C164 1.254 . S
C166 O187 1.256 . S
C166 O188 1.244 . S
O167 Zn163 2.055 . S
O167 C189 1.259 . S
O168 Zn160 2.046 . S
O168 C189 1.254 . S
N169 Zn163 2.036 . S
N169 C170 1.298 . S
N169 N172 1.398 . S
C170 N169 1.298 . S
C170 N173 1.367 . S
C170 C183 1.481 . S
C171 N172 1.299 . S
C171 N173 1.379 . S
N172 N169 1.398 . S
N172 C171 1.299 . S
N173 C170 1.367 . S
N173 C171 1.379 . S
C174 N176 1.298 . S
C174 N178 1.367 . S
C174 C182 1.481 . S
C175 N177 1.299 . S
C175 N178 1.379 . S
N176 Zn160 2.036 . S
N176 C174 1.298 . S
N176 N177 1.398 . S
N177 C175 1.299 . S
N177 N176 1.398 . S
N178 C174 1.367 . S
N178 C175 1.379 . S
H179 C182 0.980 . S
H180 C182 0.981 . S
H181 C182 0.981 . S
C182 C174 1.481 . S
C182 H179 0.980 . S
C182 H180 0.981 . S
C182 H181 0.981 . S
C183 C170 1.481 . S
C183 H184 0.980 . S
C183 H185 0.981 . S
C183 H186 0.981 . S
H184 C183 0.980 . S
H185 C183 0.981 . S
H186 C183 0.981 . S
O187 Zn163 2.066 . S
O187 C166 1.256 . S
O188 Zn160 2.053 . S
O188 C166 1.244 . S
C189 O167 1.259 . S
C189 O168 1.254 . S
O190 Zn160 2.066 . S
O190 C162 1.256 . S
O191 C162 1.244 . S
O191 Zn163 2.053 . S
Zn192 O193 2.055 . S
Zn192 O200 2.046 . S
Zn192 N208 2.036 . S
Zn192 O220 2.053 . S
Zn192 O222 2.066 . S
O193 Zn192 2.055 . S
O193 C196 1.259 . S
C194 O222 1.256 . S
C194 O223 1.244 . S
Zn195 O197 2.046 . S
Zn195 O199 2.055 . S
Zn195 N201 2.036 . S
Zn195 O219 2.066 . S
Zn195 O223 2.053 . S
C196 O193 1.259 . S
C196 O197 1.254 . S
O197 Zn195 2.046 . S
O197 C196 1.254 . S
C198 O219 1.256 . S
C198 O220 1.244 . S
O199 Zn195 2.055 . S
O199 C221 1.259 . S
O200 Zn192 2.046 . S
O200 C221 1.254 . S
N201 Zn195 2.036 . S
N201 C202 1.298 . S
N201 N204 1.398 . S
C202 N201 1.298 . S
C202 N205 1.367 . S
C202 C215 1.481 . S
C203 N204 1.299 . S
C203 N205 1.379 . S
N204 N201 1.398 . S
N204 C203 1.299 . S
N205 C202 1.367 . S
N205 C203 1.379 . S
C206 N208 1.298 . S
C206 N210 1.367 . S
C206 C214 1.481 . S
C207 N209 1.299 . S
C207 N210 1.379 . S
N208 Zn192 2.036 . S
N208 C206 1.298 . S
N208 N209 1.398 . S
N209 C207 1.299 . S
N209 N208 1.398 . S
N210 C206 1.367 . S
N210 C207 1.379 . S
H211 C214 0.980 . S
H212 C214 0.981 . S
H213 C214 0.981 . S
C214 C206 1.481 . S
C214 H211 0.980 . S
C214 H212 0.981 . S
C214 H213 0.981 . S
C215 C202 1.481 . S
C215 H216 0.980 . S
C215 H217 0.981 . S
C215 H218 0.981 . S
H216 C215 0.980 . S
H217 C215 0.981 . S
H218 C215 0.981 . S
O219 Zn195 2.066 . S
O219 C198 1.256 . S
O220 Zn192 2.053 . S
O220 C198 1.244 . S
C221 O199 1.259 . S
C221 O200 1.254 . S
O222 Zn192 2.066 . S
O222 C194 1.256 . S
O223 C194 1.244 . S
O223 Zn195 2.053 . S
Zn224 O225 2.055 . S
Zn224 O232 2.046 . S
Zn224 N240 2.036 . S
Zn224 O252 2.053 . S
Zn224 O254 2.066 . S
O225 Zn224 2.055 . S
O225 C228 1.259 . S
C226 O254 1.256 . S
C226 O255 1.244 . S
Zn227 O229 2.046 . S
Zn227 O231 2.055 . S
Zn227 N233 2.036 . S
Zn227 O251 2.066 . S
Zn227 O255 2.053 . S
C228 O225 1.259 . S
C228 O229 1.254 . S
O229 Zn227 2.046 . S
O229 C228 1.254 . S
C230 O251 1.256 . S
C230 O252 1.244 . S
O231 Zn227 2.055 . S
O231 C253 1.259 . S
O232 Zn224 2.046 . S
O232 C253 1.254 . S
N233 Zn227 2.036 . S
N233 C234 1.298 . S
N233 N236 1.398 . S
C234 N233 1.298 . S
C234 N237 1.367 . S
C234 C247 1.481 . S
C235 N236 1.299 . S
C235 N237 1.379 . S
N236 N233 1.398 . S
N236 C235 1.299 . S
N237 C234 1.367 . S
N237 C235 1.379 . S
C238 N240 1.298 . S
C238 N242 1.367 . S
C238 C246 1.481 . S
C239 N241 1.299 . S
C239 N242 1.379 . S
N240 Zn224 2.036 . S
N240 C238 1.298 . S
N240 N241 1.398 . S
N241 C239 1.299 . S
N241 N240 1.398 . S
N242 C238 1.367 . S
N242 C239 1.379 . S
H243 C246 0.980 . S
H244 C246 0.981 . S
H245 C246 0.981 . S
C246 C238 1.481 . S
C246 H243 0.980 . S
C246 H244 0.981 . S
C246 H245 0.981 . S
C247 C234 1.481 . S
C247 H248 0.980 . S
C247 H249 0.981 . S
C247 H250 0.981 . S
H248 C247 0.980 . S
H249 C247 0.981 . S
H250 C247 0.981 . S
O251 Zn227 2.066 . S
O251 C230 1.256 . S
O252 Zn224 2.053 . S
O252 C230 1.244 . S
C253 O231 1.259 . S
C253 O232 1.254 . S
O254 Zn224 2.066 . S
O254 C226 1.256 . S
O255 C226 1.244 . S
O255 Zn227 2.053 . S
Zn256 O257 2.055 . S
Zn256 O264 2.046 . S
Zn256 N272 2.036 . S
Zn256 O284 2.053 . S
Zn256 O286 2.066 . S
O257 Zn256 2.055 . S
O257 C260 1.259 . S
C258 O286 1.256 . S
C258 O287 1.244 . S
Zn259 O261 2.046 . S
Zn259 O263 2.055 . S
Zn259 N265 2.036 . S
Zn259 O283 2.066 . S
Zn259 O287 2.053 . S
C260 O257 1.259 . S
C260 O261 1.254 . S
O261 Zn259 2.046 . S
O261 C260 1.254 . S
C262 O283 1.256 . S
C262 O284 1.244 . S
O263 Zn259 2.055 . S
O263 C285 1.259 . S
O264 Zn256 2.046 . S
O264 C285 1.254 . S
N265 Zn259 2.036 . S
N265 C266 1.298 . S
N265 N268 1.398 . S
C266 N265 1.298 . S
C266 N269 1.367 . S
C266 C279 1.481 . S
C267 N268 1.299 . S
C267 N269 1.379 . S
N268 N265 1.398 . S
N268 C267 1.299 . S
N269 C266 1.367 . S
N269 C267 1.379 . S
C270 N272 1.298 . S
C270 N274 1.367 . S
C270 C278 1.481 . S
C271 N273 1.299 . S
C271 N274 1.379 . S
N272 Zn256 2.036 . S
N272 C270 1.298 . S
N272 N273 1.398 . S
N273 C271 1.299 . S
N273 N272 1.398 . S
N274 C270 1.367 . S
N274 C271 1.379 . S
H275 C278 0.980 . S
H276 C278 0.981 . S
H277 C278 0.981 . S
C278 C270 1.481 . S
C278 H275 0.980 . S
C278 H276 0.981 . S
C278 H277 0.981 . S
C279 C266 1.481 . S
C279 H280 0.980 . S
C279 H281 0.981 . S
C279 H282 0.981 . S
H280 C279 0.980 . S
H281 C279 0.981 . S
H282 C279 0.981 . S
O283 Zn259 2.066 . S
O283 C262 1.256 . S
O284 Zn256 2.053 . S
O284 C262 1.244 . S
C285 O263 1.259 . S
C285 O264 1.254 . S
O286 Zn256 2.066 . S
O286 C258 1.256 . S
O287 C258 1.244 . S
O287 Zn259 2.053 . S
H288 C296 0.929 . S
H289 C298 0.930 . S
H290 C300 0.930 1_556 S
H291 C303 0.929 1_556 S
H292 C306 0.917 1_556 S
H293 C308 0.960 . S
H294 C308 0.960 . S
H295 C308 0.960 . S
C296 H288 0.929 . S
C296 C297 1.377 . S
C296 C298 1.384 . S
C297 C296 1.377 . S
C297 C303 1.390 . S
C298 H289 0.930 . S
C298 C296 1.384 . S
C298 C299 1.372 . S
C299 C298 1.372 . S
C299 C300 1.400 . S
C299 C304 1.490 . S
C300 H290 0.930 1_554 S
C300 C299 1.400 . S
C300 C303 1.386 . S
H301 C317 0.930 1_556 S
H302 C318 0.931 1_556 S
C303 H291 0.929 1_554 S
C303 C297 1.390 . S
C303 C300 1.386 . S
C304 C299 1.490 . S
C304 C306 1.395 . S
C304 C307 1.403 . S
H305 C311 0.930 . S
C306 H292 0.917 1_554 S
C306 C304 1.395 . S
C306 C309 1.403 . S
C307 C304 1.403 . S
C307 C308 1.524 . S
C307 C311 1.400 . S
C308 H293 0.960 . S
C308 H294 0.960 . S
C308 H295 0.960 . S
C308 C307 1.524 . S
C309 C306 1.403 . S
C309 C310 1.392 . S
C309 C313 1.495 1_554 S
C310 C309 1.392 . S
C310 C311 1.385 . S
C310 C312 1.478 . S
C311 H305 0.930 . S
C311 C307 1.400 . S
C311 C310 1.385 . S
C312 C310 1.478 . S
C312 C314 1.381 . S
C312 C318 1.383 . S
C313 C309 1.495 1_556 S
C313 H319 0.959 . S
C313 H320 0.961 . S
C313 H321 0.960 1_556 S
C314 C312 1.381 . S
C314 C315 1.394 . S
C314 H322 0.930 . S
C315 C314 1.394 . S
C315 C316 1.383 . S
C315 H323 0.929 . S
C316 C315 1.383 . S
C316 C317 1.377 . S
C317 H301 0.930 1_554 S
C317 C316 1.377 . S
C317 C318 1.379 . S
C318 H302 0.931 1_554 S
C318 C312 1.383 . S
C318 C317 1.379 . S
H319 C313 0.959 . S
H320 C313 0.961 . S
H321 C313 0.960 1_554 S
H322 C314 0.930 . S
H323 C315 0.929 . S
H324 C332 0.929 . S
H325 C334 0.930 . S
H326 C336 0.927 1_556 S
H327 C339 0.929 1_556 S
H328 C342 0.930 1_556 S
H329 C344 0.960 . S
H330 C344 0.960 . S
H331 C344 0.960 . S
C332 H324 0.929 . S
C332 C333 1.377 . S
C332 C334 1.384 . S
C333 C332 1.377 . S
C333 C339 1.390 . S
C334 H325 0.930 . S
C334 C332 1.384 . S
C334 C335 1.372 . S
C335 C334 1.372 . S
C335 C336 1.400 . S
C335 C340 1.490 . S
C336 H326 0.927 1_554 S
C336 C335 1.400 . S
C336 C339 1.386 . S
H337 C353 0.930 1_556 S
H338 C354 0.931 1_556 S
C339 H327 0.929 1_554 S
C339 C333 1.390 . S
C339 C336 1.386 . S
C340 C335 1.490 . S
C340 C342 1.395 . S
C340 C343 1.403 . S
H341 C347 0.930 . S
C342 H328 0.930 1_554 S
C342 C340 1.395 . S
C342 C345 1.403 . S
C343 C340 1.403 . S
C343 C344 1.524 . S
C343 C347 1.400 . S
C344 H329 0.960 . S
C344 H330 0.960 . S
C344 H331 0.960 . S
C344 C343 1.524 . S
C345 C342 1.403 . S
C345 C346 1.392 . S
C345 C349 1.495 1_554 S
C346 C345 1.392 . S
C346 C347 1.385 . S
C346 C348 1.478 . S
C347 H341 0.930 . S
C347 C343 1.400 . S
C347 C346 1.385 . S
C348 C346 1.478 . S
C348 C350 1.381 . S
C348 C354 1.383 . S
C349 C345 1.495 1_556 S
C349 H355 0.959 . S
C349 H356 0.961 . S
C349 H357 0.960 1_556 S
C350 C348 1.381 . S
C350 C351 1.394 . S
C350 H358 0.930 . S
C351 C350 1.394 . S
C351 C352 1.383 . S
C351 H359 0.929 . S
C352 C351 1.383 . S
C352 C353 1.377 . S
C353 H337 0.930 1_554 S
C353 C352 1.377 . S
C353 C354 1.379 . S
C354 H338 0.931 1_554 S
C354 C348 1.383 . S
C354 C353 1.379 . S
H355 C349 0.959 . S
H356 C349 0.961 . S
H357 C349 0.960 1_554 S
H358 C350 0.930 . S
H359 C351 0.929 . S
H360 C368 0.929 . S
H361 C370 0.930 . S
H362 C372 0.944 . S
H363 C375 0.951 . S
H364 C378 0.930 . S
H365 C380 0.960 . S
H366 C380 0.960 . S
H367 C380 0.960 . S
C368 H360 0.929 . S
C368 C369 1.377 . S
C368 C370 1.384 . S
C369 C368 1.377 . S
C369 C375 1.369 1_554 S
C370 H361 0.930 . S
C370 C368 1.384 . S
C370 C371 1.372 . S
C371 C370 1.372 . S
C371 C372 1.386 1_554 S
C371 C376 1.490 . S
C372 H362 0.944 . S
C372 C371 1.386 1_556 S
C372 C375 1.386 . S
H373 C389 0.930 . S
H374 C390 0.931 . S
C375 H363 0.951 . S
C375 C369 1.369 1_556 S
C375 C372 1.386 . S
C376 C371 1.490 . S
C376 C378 1.395 . S
C376 C379 1.403 . S
H377 C383 0.930 . S
C378 H364 0.930 . S
C378 C376 1.395 . S
C378 C381 1.403 . S
C379 C376 1.403 . S
C379 C380 1.524 . S
C379 C383 1.400 . S
C380 H365 0.960 . S
C380 H366 0.960 . S
C380 H367 0.960 . S
C380 C379 1.524 . S
C381 C378 1.403 . S
C381 C382 1.392 . S
C381 C385 1.495 . S
C382 C381 1.392 . S
C382 C383 1.385 . S
C382 C384 1.478 . S
C383 H377 0.930 . S
C383 C379 1.400 . S
C383 C382 1.385 . S
C384 C382 1.478 . S
C384 C386 1.381 . S
C384 C390 1.383 1_554 S
C385 C381 1.495 . S
C385 H391 0.959 . S
C385 H392 0.961 . S
C385 H393 0.960 . S
C386 C384 1.381 . S
C386 C387 1.394 . S
C386 H394 0.930 . S
C387 C386 1.394 . S
C387 C388 1.383 . S
C387 H395 0.929 . S
C388 C387 1.383 . S
C388 C389 1.377 1_554 S
C389 H373 0.930 . S
C389 C388 1.377 1_556 S
C389 C390 1.379 . S
C390 H374 0.931 . S
C390 C384 1.383 1_556 S
C390 C389 1.379 . S
H391 C385 0.959 . S
H392 C385 0.961 . S
H393 C385 0.960 . S
H394 C386 0.930 . S
H395 C387 0.929 . S
H396 C404 0.929 . S
H397 C406 0.930 . S
H398 C408 0.930 . S
H399 C411 0.929 . S
H400 C414 0.930 . S
H401 C416 0.960 . S
H402 C416 0.960 . S
H403 C416 0.960 . S
C404 H396 0.929 . S
C404 C405 1.377 1_556 S
C404 C406 1.384 . S
C405 C404 1.377 1_554 S
C405 C411 1.390 . S
C406 H397 0.930 . S
C406 C404 1.384 . S
C406 C407 1.372 1_556 S
C407 C406 1.372 1_554 S
C407 C408 1.400 . S
C407 C412 1.490 . S
C408 H398 0.930 . S
C408 C407 1.400 . S
C408 C411 1.386 . S
H409 C425 0.930 . S
H410 C426 0.931 . S
C411 H399 0.929 . S
C411 C405 1.390 . S
C411 C408 1.386 . S
C412 C407 1.490 . S
C412 C414 1.395 . S
C412 C415 1.403 . S
H413 C419 0.930 . S
C414 H400 0.930 . S
C414 C412 1.395 . S
C414 C417 1.403 . S
C415 C412 1.403 . S
C415 C416 1.524 . S
C415 C419 1.400 . S
C416 H401 0.960 . S
C416 H402 0.960 . S
C416 H403 0.960 . S
C416 C415 1.524 . S
C417 C414 1.403 . S
C417 C418 1.392 . S
C417 C421 1.495 . S
C418 C417 1.392 . S
C418 C419 1.385 . S
C418 C420 1.478 . S
C419 H413 0.930 . S
C419 C415 1.400 . S
C419 C418 1.385 . S
C420 C418 1.478 . S
C420 C422 1.381 1_554 S
C420 C426 1.383 . S
C421 C417 1.495 . S
C421 H427 0.956 1_554 S
C421 H428 0.961 . S
C421 H429 0.960 1_554 S
C422 C420 1.381 1_556 S
C422 C423 1.394 . S
C422 H430 0.930 . S
C423 C422 1.394 . S
C423 C424 1.383 1_556 S
C423 H431 0.929 . S
C424 C423 1.383 1_554 S
C424 C425 1.377 . S
C425 H409 0.930 . S
C425 C424 1.377 . S
C425 C426 1.379 . S
C426 H410 0.931 . S
C426 C420 1.383 . S
C426 C425 1.379 . S
H427 C421 0.956 1_556 S
H428 C421 0.961 . S
H429 C421 0.960 1_556 S
H430 C422 0.930 . S
H431 C423 0.929 . S
H432 C440 0.916 1_556 S
H433 C442 0.934 . S
H434 C444 0.930 . S
H435 C447 0.929 . S
H436 C450 0.930 . S
H437 C452 0.960 . S
H438 C452 0.960 1_556 S
H439 C452 0.960 . S
C440 H432 0.916 1_554 S
C440 C441 1.391 . S
C440 C442 1.383 1_554 S
C441 C440 1.391 . S
C441 C447 1.390 . S
C442 H433 0.934 . S
C442 C440 1.383 1_556 S
C442 C443 1.368 1_556 S
C443 C442 1.368 1_554 S
C443 C444 1.400 . S
C443 C448 1.490 . S
C444 H434 0.930 . S
C444 C443 1.400 . S
C444 C447 1.386 . S
H445 C461 0.930 . S
H446 C462 0.931 . S
C447 H435 0.929 . S
C447 C441 1.390 . S
C447 C444 1.386 . S
C448 C443 1.490 . S
C448 C450 1.395 . S
C448 C451 1.403 . S
H449 C455 0.930 . S
C450 H436 0.930 . S
C450 C448 1.395 . S
C450 C453 1.403 . S
C451 C448 1.403 . S
C451 C452 1.524 . S
C451 C455 1.400 . S
C452 H437 0.960 . S
C452 H438 0.960 1_554 S
C452 H439 0.960 . S
C452 C451 1.524 . S
C453 C450 1.403 . S
C453 C454 1.392 . S
C453 C457 1.495 . S
C454 C453 1.392 . S
C454 C455 1.385 . S
C454 C456 1.478 . S
C455 H449 0.930 . S
C455 C451 1.400 . S
C455 C454 1.385 . S
C456 C454 1.478 . S
C456 C458 1.381 1_554 S
C456 C462 1.383 . S
C457 C453 1.495 . S
C457 H463 0.959 . S
C457 H464 0.961 . S
C457 H465 0.960 . S
C458 C456 1.381 1_556 S
C458 C459 1.394 . S
C458 H466 0.930 . S
C459 C458 1.394 . S
C459 C460 1.383 1_556 S
C459 H467 0.929 . S
C460 C459 1.383 1_554 S
C460 C461 1.377 . S
C461 H445 0.930 . S
C461 C460 1.377 . S
C461 C462 1.379 . S
C462 H446 0.931 . S
C462 C456 1.383 . S
C462 C461 1.379 . S
H463 C457 0.959 . S
H464 C457 0.961 . S
H465 C457 0.960 . S
H466 C458 0.930 . S
H467 C459 0.929 . S
H468 C476 0.929 . S
H469 C478 0.930 . S
H470 C480 0.930 . S
H471 C483 0.929 . S
H472 C486 0.930 . S
H473 C488 0.960 1_556 S
H474 C488 0.960 . S
H475 C488 0.960 1_556 S
C476 H468 0.929 . S
C476 C477 1.377 . S
C476 C478 1.384 . S
C477 C476 1.377 . S
C477 C483 1.390 1_554 S
C478 H469 0.930 . S
C478 C476 1.384 . S
C478 C479 1.372 . S
C479 C478 1.372 . S
C479 C480 1.400 1_554 S
C479 C484 1.490 . S
C480 H470 0.930 . S
C480 C479 1.400 1_556 S
C480 C483 1.386 . S
H481 C497 0.930 . S
H482 C498 0.931 . S
C483 H471 0.929 . S
C483 C477 1.390 1_556 S
C483 C480 1.386 . S
C484 C479 1.490 . S
C484 C486 1.395 . S
C484 C487 1.403 . S
H485 C491 0.930 . S
C486 H472 0.930 . S
C486 C484 1.395 . S
C486 C489 1.403 . S
C487 C484 1.403 . S
C487 C488 1.524 . S
C487 C491 1.400 . S
C488 H473 0.960 1_554 S
C488 H474 0.960 . S
C488 H475 0.960 1_554 S
C488 C487 1.524 . S
C489 C486 1.403 . S
C489 C490 1.392 . S
C489 C493 1.495 . S
C490 C489 1.392 . S
C490 C491 1.385 . S
C490 C492 1.478 . S
C491 H485 0.930 . S
C491 C487 1.400 . S
C491 C490 1.385 . S
C492 C490 1.478 . S
C492 C494 1.381 . S
C492 C498 1.383 1_554 S
C493 C489 1.495 . S
C493 H499 0.959 . S
C493 H500 0.961 . S
C493 H501 0.960 . S
C494 C492 1.381 . S
C494 C495 1.394 . S
C494 H502 0.930 . S
C495 C494 1.394 . S
C495 C496 1.383 . S
C495 H503 0.929 . S
C496 C495 1.383 . S
C496 C497 1.377 1_554 S
C497 H481 0.930 . S
C497 C496 1.377 1_556 S
C497 C498 1.379 . S
C498 H482 0.931 . S
C498 C492 1.383 1_556 S
C498 C497 1.379 . S
H499 C493 0.959 . S
H500 C493 0.961 . S
H501 C493 0.960 . S
H502 C494 0.930 . S
H503 C495 0.929 . S
H504 C512 0.929 . S
H505 C514 0.930 . S
H506 C516 0.930 . S
H507 C519 0.929 . S
H508 C522 0.930 . S
H509 C524 0.960 . S
H510 C524 0.960 . S
H511 C524 0.960 . S
C512 H504 0.929 . S
C512 C513 1.377 . S
C512 C514 1.384 . S
C513 C512 1.377 . S
C513 C519 1.390 . S
C514 H505 0.930 . S
C514 C512 1.384 . S
C514 C515 1.372 . S
C515 C514 1.372 . S
C515 C516 1.400 . S
C515 C520 1.490 . S
C516 H506 0.930 . S
C516 C515 1.400 . S
C516 C519 1.386 . S
H517 C533 0.930 . S
H518 C534 0.931 . S
C519 H507 0.929 . S
C519 C513 1.390 . S
C519 C516 1.386 . S
C520 C515 1.490 . S
C520 C522 1.395 . S
C520 C523 1.403 . S
H521 C527 0.930 . S
C522 H508 0.930 . S
C522 C520 1.395 . S
C522 C525 1.403 . S
C523 C520 1.403 . S
C523 C524 1.524 . S
C523 C527 1.400 . S
C524 H509 0.960 . S
C524 H510 0.960 . S
C524 H511 0.960 . S
C524 C523 1.524 . S
C525 C522 1.403 . S
C525 C526 1.392 . S
C525 C529 1.495 1_655 S
C526 C525 1.392 . S
C526 C527 1.385 . S
C526 C528 1.478 1_655 S
C527 H521 0.930 . S
C527 C523 1.400 . S
C527 C526 1.385 . S
C528 C526 1.478 1_455 S
C528 C530 1.381 . S
C528 C534 1.383 . S
C529 C525 1.495 1_455 S
C529 H535 0.959 1_455 S
C529 H536 0.961 . S
C529 H537 0.960 . S
C530 C528 1.381 . S
C530 C531 1.394 . S
C530 H538 0.930 . S
C531 C530 1.394 . S
C531 C532 1.383 . S
C531 H539 0.929 . S
C532 C531 1.383 . S
C532 C533 1.377 . S
C533 H517 0.930 . S
C533 C532 1.377 . S
C533 C534 1.379 . S
C534 H518 0.931 . S
C534 C528 1.383 . S
C534 C533 1.379 . S
H535 C529 0.959 1_655 S
H536 C529 0.961 . S
H537 C529 0.960 . S
H538 C530 0.930 . S
H539 C531 0.929 . S
H540 C548 0.929 . S
H541 C550 0.930 . S
H542 C552 0.930 . S
H543 C555 0.929 . S
H544 C558 0.930 . S
H545 C560 0.960 . S
H546 C560 0.960 . S
H547 C560 0.960 . S
C548 H540 0.929 . S
C548 C549 1.377 . S
C548 C550 1.384 . S
C549 C548 1.377 . S
C549 C555 1.390 . S
C550 H541 0.930 . S
C550 C548 1.384 . S
C550 C551 1.372 . S
C551 C550 1.372 . S
C551 C552 1.400 . S
C551 C556 1.490 . S
C552 H542 0.930 . S
C552 C551 1.400 . S
C552 C555 1.386 . S
H553 C569 0.930 . S
H554 C570 0.931 . S
C555 H543 0.929 . S
C555 C549 1.390 . S
C555 C552 1.386 . S
C556 C551 1.490 . S
C556 C558 1.395 . S
C556 C559 1.403 . S
H557 C563 0.930 . S
C558 H544 0.930 . S
C558 C556 1.395 . S
C558 C561 1.403 . S
C559 C556 1.403 . S
C559 C560 1.524 . S
C559 C563 1.400 . S
C560 H545 0.960 . S
C560 H546 0.960 . S
C560 H547 0.960 . S
C560 C559 1.524 . S
C561 C558 1.403 . S
C561 C562 1.392 . S
C561 C565 1.495 . S
C562 C561 1.392 . S
C562 C563 1.385 . S
C562 C564 1.478 . S
C563 H557 0.930 . S
C563 C559 1.400 . S
C563 C562 1.385 . S
C564 C562 1.478 . S
C564 C566 1.381 . S
C564 C570 1.383 . S
C565 C561 1.495 . S
C565 H571 0.959 . S
C565 H572 0.961 . S
C565 H573 0.960 . S
C566 C564 1.381 . S
C566 C567 1.394 . S
C566 H574 0.930 . S
C567 C566 1.394 . S
C567 C568 1.383 1_545 S
C567 H575 0.929 . S
C568 C567 1.383 1_565 S
C568 C569 1.377 . S
C569 H553 0.930 . S
C569 C568 1.377 . S
C569 C570 1.379 1_565 S
C570 H554 0.931 . S
C570 C564 1.383 . S
C570 C569 1.379 1_545 S
H571 C565 0.959 . S
H572 C565 0.961 . S
H573 C565 0.960 . S
H574 C566 0.930 . S
H575 C567 0.929 . S
H576 C584 0.929 . S
H577 C586 0.930 . S
H578 C588 0.930 . S
H579 C591 0.929 . S
H580 C594 0.930 . S
H581 C596 0.960 . S
H582 C596 0.960 . S
H583 C596 0.960 . S
C584 H576 0.929 . S
C584 C585 1.377 . S
C584 C586 1.384 . S
C585 C584 1.377 . S
C585 C591 1.390 . S
C586 H577 0.930 . S
C586 C584 1.384 . S
C586 C587 1.372 1_455 S
C587 C586 1.372 1_655 S
C587 C588 1.400 . S
C587 C592 1.490 . S
C588 H578 0.930 . S
C588 C587 1.400 . S
C588 C591 1.386 1_655 S
H589 C605 0.930 . S
H590 C606 0.931 1_545 S
C591 H579 0.929 . S
C591 C585 1.390 . S
C591 C588 1.386 1_455 S
C592 C587 1.490 . S
C592 C594 1.395 . S
C592 C595 1.403 . S
H593 C599 0.930 . S
C594 H580 0.930 . S
C594 C592 1.395 . S
C594 C597 1.403 . S
C595 C592 1.403 . S
C595 C596 1.524 . S
C595 C599 1.400 . S
C596 H581 0.960 . S
C596 H582 0.960 . S
C596 H583 0.960 . S
C596 C595 1.524 . S
C597 C594 1.403 . S
C597 C598 1.392 . S
C597 C601 1.495 . S
C598 C597 1.392 . S
C598 C599 1.385 . S
C598 C600 1.478 . S
C599 H593 0.930 . S
C599 C595 1.400 . S
C599 C598 1.385 . S
C600 C598 1.478 . S
C600 C602 1.381 1_545 S
C600 C606 1.383 1_545 S
C601 C597 1.495 . S
C601 H607 0.959 . S
C601 H608 0.961 . S
C601 H609 0.960 . S
C602 C600 1.381 1_565 S
C602 C603 1.394 . S
C602 H610 0.930 . S
C603 C602 1.394 . S
C603 C604 1.383 . S
C603 H611 0.929 . S
C604 C603 1.383 . S
C604 C605 1.377 . S
C605 H589 0.930 . S
C605 C604 1.377 . S
C605 C606 1.379 . S
C606 H590 0.931 1_565 S
C606 C600 1.383 1_565 S
C606 C605 1.379 . S
H607 C601 0.959 . S
H608 C601 0.961 . S
H609 C601 0.960 . S
H610 C602 0.930 . S
H611 C603 0.929 . S
H612 C620 0.929 . S
H613 C622 0.930 . S
H614 C624 0.930 . S
H615 C627 0.929 . S
H616 C630 0.930 . S
H617 C632 0.960 . S
H618 C632 0.960 . S
H619 C632 0.960 . S
C620 H612 0.929 . S
C620 C621 1.377 . S
C620 C622 1.384 . S
C621 C620 1.377 . S
C621 C627 1.390 . S
C622 H613 0.930 . S
C622 C620 1.384 . S
C622 C623 1.372 . S
C623 C622 1.372 . S
C623 C624 1.400 . S
C623 C628 1.490 . S
C624 H614 0.930 . S
C624 C623 1.400 . S
C624 C627 1.386 . S
H625 C641 0.930 . S
H626 C642 0.931 . S
C627 H615 0.929 . S
C627 C621 1.390 . S
C627 C624 1.386 . S
C628 C623 1.490 . S
C628 C630 1.395 . S
C628 C631 1.403 . S
H629 C635 0.930 . S
C630 H616 0.930 . S
C630 C628 1.395 . S
C630 C633 1.403 . S
C631 C628 1.403 . S
C631 C632 1.524 . S
C631 C635 1.400 . S
C632 H617 0.960 . S
C632 H618 0.960 . S
C632 H619 0.960 . S
C632 C631 1.524 . S
C633 C630 1.403 . S
C633 C634 1.392 . S
C633 C637 1.495 . S
C634 C633 1.392 . S
C634 C635 1.385 . S
C634 C636 1.478 . S
C635 H629 0.930 . S
C635 C631 1.400 . S
C635 C634 1.385 . S
C636 C634 1.478 . S
C636 C638 1.381 . S
C636 C642 1.383 . S
C637 C633 1.495 . S
C637 H643 0.959 . S
C637 H644 0.961 . S
C637 H645 0.960 . S
C638 C636 1.381 . S
C638 C639 1.394 . S
C638 H646 0.930 . S
C639 C638 1.394 . S
C639 C640 1.383 . S
C639 H647 0.929 . S
C640 C639 1.383 . S
C640 C641 1.377 . S
C641 H625 0.930 . S
C641 C640 1.377 . S
C641 C642 1.379 . S
C642 H626 0.931 . S
C642 C636 1.383 . S
C642 C641 1.379 . S
H643 C637 0.959 . S
H644 C637 0.961 . S
H645 C637 0.960 . S
H646 C638 0.930 . S
H647 C639 0.929 . S
H648 C656 0.929 . S
H649 C658 0.930 . S
H650 C660 0.930 . S
H651 C663 0.929 . S
H652 C666 0.930 . S
H653 C668 0.960 . S
H654 C668 0.960 . S
H655 C668 0.960 . S
C656 H648 0.929 . S
C656 C657 1.377 . S
C656 C658 1.384 . S
C657 C656 1.377 . S
C657 C663 1.390 . S
C658 H649 0.930 . S
C658 C656 1.384 . S
C658 C659 1.372 . S
C659 C658 1.372 . S
C659 C660 1.400 . S
C659 C664 1.490 . S
C660 H650 0.930 . S
C660 C659 1.400 . S
C660 C663 1.386 . S
H661 C677 0.930 . S
H662 C678 0.931 . S
C663 H651 0.929 . S
C663 C657 1.390 . S
C663 C660 1.386 . S
C664 C659 1.490 . S
C664 C666 1.395 . S
C664 C667 1.403 . S
H665 C671 0.930 . S
C666 H652 0.930 . S
C666 C664 1.395 . S
C666 C669 1.403 . S
C667 C664 1.403 . S
C667 C668 1.524 . S
C667 C671 1.400 . S
C668 H653 0.960 . S
C668 H654 0.960 . S
C668 H655 0.960 . S
C668 C667 1.524 . S
C669 C666 1.403 . S
C669 C670 1.392 . S
C669 C673 1.495 . S
C670 C669 1.392 . S
C670 C671 1.385 . S
C670 C672 1.478 . S
C671 H665 0.930 . S
C671 C667 1.400 . S
C671 C670 1.385 . S
C672 C670 1.478 . S
C672 C674 1.381 . S
C672 C678 1.383 . S
C673 C669 1.495 . S
C673 H679 0.959 . S
C673 H680 0.961 . S
C673 H681 0.960 . S
C674 C672 1.381 . S
C674 C675 1.394 . S
C674 H682 0.930 . S
C675 C674 1.394 . S
C675 C676 1.383 . S
C675 H683 0.929 . S
C676 C675 1.383 . S
C676 C677 1.377 . S
C677 H661 0.930 . S
C677 C676 1.377 . S
C677 C678 1.379 . S
C678 H662 0.931 . S
C678 C672 1.383 . S
C678 C677 1.379 . S
H679 C673 0.959 . S
H680 C673 0.961 . S
H681 C673 0.960 . S
H682 C674 0.930 . S
H683 C675 0.929 . S
H684 C692 0.929 . S
H685 C694 0.930 . S
H686 C696 0.930 . S
H687 C699 0.929 . S
H688 C702 0.930 . S
H689 C704 0.960 . S
H690 C704 0.960 . S
H691 C704 0.960 . S
C692 H684 0.929 . S
C692 C693 1.377 . S
C692 C694 1.384 . S
C693 C692 1.377 . S
C693 C699 1.390 . S
C694 H685 0.930 . S
C694 C692 1.384 . S
C694 C695 1.372 . S
C695 C694 1.372 . S
C695 C696 1.400 . S
C695 C700 1.490 . S
C696 H686 0.930 . S
C696 C695 1.400 . S
C696 C699 1.386 . S
H697 C713 0.930 . S
H698 C714 0.931 . S
C699 H687 0.929 . S
C699 C693 1.390 . S
C699 C696 1.386 . S
C700 C695 1.490 . S
C700 C702 1.395 . S
C700 C703 1.403 . S
H701 C707 0.930 . S
C702 H688 0.930 . S
C702 C700 1.395 . S
C702 C705 1.403 . S
C703 C700 1.403 . S
C703 C704 1.524 . S
C703 C707 1.400 . S
C704 H689 0.960 . S
C704 H690 0.960 . S
C704 H691 0.960 . S
C704 C703 1.524 . S
C705 C702 1.403 . S
C705 C706 1.392 . S
C705 C709 1.495 . S
C706 C705 1.392 . S
C706 C707 1.385 . S
C706 C708 1.478 . S
C707 H701 0.930 . S
C707 C703 1.400 . S
C707 C706 1.385 . S
C708 C706 1.478 . S
C708 C710 1.381 . S
C708 C714 1.383 . S
C709 C705 1.495 . S
C709 H715 0.959 . S
C709 H716 0.961 . S
C709 H717 0.960 . S
C710 C708 1.381 . S
C710 C711 1.394 . S
C710 H718 0.930 . S
C711 C710 1.394 . S
C711 C712 1.383 . S
C711 H719 0.929 . S
C712 C711 1.383 . S
C712 C713 1.377 . S
C713 H697 0.930 . S
C713 C712 1.377 . S
C713 C714 1.379 . S
C714 H698 0.931 . S
C714 C708 1.383 . S
C714 C713 1.379 . S
H715 C709 0.959 . S
H716 C709 0.961 . S
H717 C709 0.960 . S
H718 C710 0.930 . S
H719 C711 0.929 . S
H720 C728 0.929 . S
H721 C730 0.930 . S
H722 C732 0.930 . S
H723 C735 0.929 . S
H724 C738 0.930 . S
H725 C740 0.960 . S
H726 C740 0.960 . S
H727 C740 0.960 . S
C728 H720 0.929 . S
C728 C729 1.377 . S
C728 C730 1.384 . S
C729 C728 1.377 . S
C729 C735 1.390 . S
C730 H721 0.930 . S
C730 C728 1.384 . S
C730 C731 1.372 . S
C731 C730 1.372 . S
C731 C732 1.400 . S
C731 C736 1.490 . S
C732 H722 0.930 . S
C732 C731 1.400 . S
C732 C735 1.386 . S
H733 C749 0.930 . S
H734 C750 0.931 . S
C735 H723 0.929 . S
C735 C729 1.390 . S
C735 C732 1.386 . S
C736 C731 1.490 . S
C736 C738 1.395 . S
C736 C739 1.403 . S
H737 C743 0.930 . S
C738 H724 0.930 . S
C738 C736 1.395 . S
C738 C741 1.403 . S
C739 C736 1.403 . S
C739 C740 1.524 . S
C739 C743 1.400 . S
C740 H725 0.960 . S
C740 H726 0.960 . S
C740 H727 0.960 . S
C740 C739 1.524 . S
C741 C738 1.403 . S
C741 C742 1.392 . S
C741 C745 1.495 . S
C742 C741 1.392 . S
C742 C743 1.385 . S
C742 C744 1.478 . S
C743 H737 0.930 . S
C743 C739 1.400 . S
C743 C742 1.385 . S
C744 C742 1.478 . S
C744 C746 1.381 . S
C744 C750 1.383 . S
C745 C741 1.495 . S
C745 H751 0.959 . S
C745 H752 0.961 . S
C745 H753 0.960 . S
C746 C744 1.381 . S
C746 C747 1.394 . S
C746 H754 0.930 . S
C747 C746 1.394 . S
C747 C748 1.383 . S
C747 H755 0.929 . S
C748 C747 1.383 . S
C748 C749 1.377 . S
C749 H733 0.930 . S
C749 C748 1.377 . S
C749 C750 1.379 . S
C750 H734 0.931 . S
C750 C744 1.383 . S
C750 C749 1.379 . S
H751 C745 0.959 . S
H752 C745 0.961 . S
H753 C745 0.960 . S
H754 C746 0.930 . S
H755 C747 0.929 . S
H756 C764 0.929 . S
H757 C766 0.930 . S
H758 C768 0.930 . S
H759 C771 0.929 . S
H760 C774 0.930 . S
H761 C776 0.960 . S
H762 C776 0.960 . S
H763 C776 0.960 . S
C764 H756 0.929 . S
C764 C765 1.377 . S
C764 C766 1.384 . S
C765 C764 1.377 . S
C765 C771 1.390 . S
C766 H757 0.930 . S
C766 C764 1.384 . S
C766 C767 1.372 . S
C767 C766 1.372 . S
C767 C768 1.400 . S
C767 C772 1.490 . S
C768 H758 0.930 . S
C768 C767 1.400 . S
C768 C771 1.386 . S
H769 C785 0.930 . S
H770 C786 0.931 . S
C771 H759 0.929 . S
C771 C765 1.390 . S
C771 C768 1.386 . S
C772 C767 1.490 . S
C772 C774 1.395 . S
C772 C775 1.403 . S
H773 C779 0.930 . S
C774 H760 0.930 . S
C774 C772 1.395 . S
C774 C777 1.403 . S
C775 C772 1.403 . S
C775 C776 1.524 . S
C775 C779 1.400 . S
C776 H761 0.960 . S
C776 H762 0.960 . S
C776 H763 0.960 . S
C776 C775 1.524 . S
C777 C774 1.403 . S
C777 C778 1.392 . S
C777 C781 1.495 . S
C778 C777 1.392 . S
C778 C779 1.385 . S
C778 C780 1.478 . S
C779 H773 0.930 . S
C779 C775 1.400 . S
C779 C778 1.385 . S
C780 C778 1.478 . S
C780 C782 1.381 . S
C780 C786 1.383 . S
C781 C777 1.495 . S
C781 H787 0.959 . S
C781 H788 0.961 . S
C781 H789 0.960 . S
C782 C780 1.381 . S
C782 C783 1.394 . S
C782 H790 0.930 . S
C783 C782 1.394 . S
C783 C784 1.383 . S
C783 H791 0.929 . S
C784 C783 1.383 . S
C784 C785 1.377 . S
C785 H769 0.930 . S
C785 C784 1.377 . S
C785 C786 1.379 . S
C786 H770 0.931 . S
C786 C780 1.383 . S
C786 C785 1.379 . S
H787 C781 0.959 . S
H788 C781 0.961 . S
H789 C781 0.960 . S
H790 C782 0.930 . S
H791 C783 0.929 . S
H792 C800 0.929 . S
H793 C802 0.930 . S
H794 C804 0.930 . S
H795 C807 0.929 . S
H796 C810 0.930 . S
H797 C812 0.960 . S
H798 C812 0.960 . S
H799 C812 0.960 . S
C800 H792 0.929 . S
C800 C801 1.377 . S
C800 C802 1.384 . S
C801 C800 1.377 . S
C801 C807 1.390 . S
C802 H793 0.930 . S
C802 C800 1.384 . S
C802 C803 1.372 . S
C803 C802 1.372 . S
C803 C804 1.400 . S
C803 C808 1.490 . S
C804 H794 0.930 . S
C804 C803 1.400 . S
C804 C807 1.386 . S
H805 C821 0.930 . S
H806 C822 0.931 . S
C807 H795 0.929 . S
C807 C801 1.390 . S
C807 C804 1.386 . S
C808 C803 1.490 . S
C808 C810 1.395 . S
C808 C811 1.403 . S
H809 C815 0.930 . S
C810 H796 0.930 . S
C810 C808 1.395 . S
C810 C813 1.403 . S
C811 C808 1.403 . S
C811 C812 1.524 . S
C811 C815 1.400 . S
C812 H797 0.960 . S
C812 H798 0.960 . S
C812 H799 0.960 . S
C812 C811 1.524 . S
C813 C810 1.403 . S
C813 C814 1.392 . S
C813 C817 1.495 . S
C814 C813 1.392 . S
C814 C815 1.385 . S
C814 C816 1.478 . S
C815 H809 0.930 . S
C815 C811 1.400 . S
C815 C814 1.385 . S
C816 C814 1.478 . S
C816 C818 1.381 . S
C816 C822 1.383 . S
C817 C813 1.495 . S
C817 H823 0.959 . S
C817 H824 0.961 . S
C817 H825 0.960 . S
C818 C816 1.381 . S
C818 C819 1.394 . S
C818 H826 0.930 . S
C819 C818 1.394 . S
C819 C820 1.383 . S
C819 H827 0.929 . S
C820 C819 1.383 . S
C820 C821 1.377 . S
C821 H805 0.930 . S
C821 C820 1.377 . S
C821 C822 1.379 . S
C822 H806 0.931 . S
C822 C816 1.383 . S
C822 C821 1.379 . S
H823 C817 0.959 . S
H824 C817 0.961 . S
H825 C817 0.960 . S
H826 C818 0.930 . S
H827 C819 0.929 . S
H828 C836 0.929 . S
H829 C838 0.930 . S
H830 C840 0.930 . S
H831 C843 0.929 . S
H832 C846 0.930 . S
H833 C848 0.960 . S
H834 C848 0.960 . S
H835 C848 0.960 . S
C836 H828 0.929 . S
C836 C837 1.377 . S
C836 C838 1.384 . S
C837 C836 1.377 . S
C837 C843 1.390 . S
C838 H829 0.930 . S
C838 C836 1.384 . S
C838 C839 1.372 . S
C839 C838 1.372 . S
C839 C840 1.400 . S
C839 C844 1.490 . S
C840 H830 0.930 . S
C840 C839 1.400 . S
C840 C843 1.386 . S
H841 C857 0.930 . S
H842 C858 0.931 . S
C843 H831 0.929 . S
C843 C837 1.390 . S
C843 C840 1.386 . S
C844 C839 1.490 . S
C844 C846 1.395 . S
C844 C847 1.403 . S
H845 C851 0.930 . S
C846 H832 0.930 . S
C846 C844 1.395 . S
C846 C849 1.403 . S
C847 C844 1.403 . S
C847 C848 1.524 . S
C847 C851 1.400 . S
C848 H833 0.960 . S
C848 H834 0.960 . S
C848 H835 0.960 . S
C848 C847 1.524 . S
C849 C846 1.403 . S
C849 C850 1.392 . S
C849 C853 1.495 . S
C850 C849 1.392 . S
C850 C851 1.385 . S
C850 C852 1.478 1_565 S
C851 H845 0.930 . S
C851 C847 1.400 . S
C851 C850 1.385 . S
C852 C850 1.478 1_545 S
C852 C854 1.381 . S
C852 C858 1.383 . S
C853 C849 1.495 . S
C853 H859 0.959 . S
C853 H860 0.961 1_565 S
C853 H861 0.960 1_565 S
C854 C852 1.381 . S
C854 C855 1.394 . S
C854 H862 0.930 . S
C855 C854 1.394 . S
C855 C856 1.383 . S
C855 H863 0.929 . S
C856 C855 1.383 . S
C856 C857 1.377 . S
C857 H841 0.930 . S
C857 C856 1.377 . S
C857 C858 1.379 . S
C858 H842 0.931 . S
C858 C852 1.383 . S
C858 C857 1.379 . S
H859 C853 0.959 . S
H860 C853 0.961 1_545 S
H861 C853 0.960 1_545 S
H862 C854 0.930 . S
H863 C855 0.929 . S
H864 C872 0.929 . S
H865 C874 0.930 1_455 S
H866 C876 0.930 . S
H867 C879 0.929 . S
H868 C882 0.930 . S
H869 C884 0.960 . S
H870 C884 0.960 . S
H871 C884 0.960 . S
C872 H864 0.929 . S
C872 C873 1.377 . S
C872 C874 1.384 . S
C873 C872 1.377 . S
C873 C879 1.390 . S
C874 H865 0.930 1_655 S
C874 C872 1.384 . S
C874 C875 1.372 1_655 S
C875 C874 1.372 1_455 S
C875 C876 1.400 1_455 S
C875 C880 1.490 . S
C876 H866 0.930 . S
C876 C875 1.400 1_655 S
C876 C879 1.386 . S
H877 C893 0.930 . S
H878 C894 0.931 . S
C879 H867 0.929 . S
C879 C873 1.390 . S
C879 C876 1.386 . S
C880 C875 1.490 . S
C880 C882 1.395 . S
C880 C883 1.403 . S
H881 C887 0.930 . S
C882 H868 0.930 . S
C882 C880 1.395 . S
C882 C885 1.403 . S
C883 C880 1.403 . S
C883 C884 1.524 . S
C883 C887 1.400 . S
C884 H869 0.960 . S
C884 H870 0.960 . S
C884 H871 0.960 . S
C884 C883 1.524 . S
C885 C882 1.403 . S
C885 C886 1.392 . S
C885 C889 1.495 . S
C886 C885 1.392 . S
C886 C887 1.385 . S
C886 C888 1.478 . S
C887 H881 0.930 . S
C887 C883 1.400 . S
C887 C886 1.385 . S
C888 C886 1.478 . S
C888 C890 1.381 . S
C888 C894 1.383 . S
C889 C885 1.495 . S
C889 H895 0.959 . S
C889 H896 0.961 . S
C889 H897 0.960 . S
C890 C888 1.381 . S
C890 C891 1.394 1_565 S
C890 H898 0.930 . S
C891 C890 1.394 1_545 S
C891 C892 1.383 . S
C891 H899 0.929 . S
C892 C891 1.383 . S
C892 C893 1.377 . S
C893 H877 0.930 . S
C893 C892 1.377 . S
C893 C894 1.379 1_545 S
C894 H878 0.931 . S
C894 C888 1.383 . S
C894 C893 1.379 1_565 S
H895 C889 0.959 . S
H896 C889 0.961 . S
H897 C889 0.960 . S
H898 C890 0.930 . S
H899 C891 0.929 . S
H900 C908 0.929 . S
H901 C910 0.930 . S
H902 C912 0.930 . S
H903 C915 0.929 . S
H904 C918 0.930 . S
H905 C920 0.960 . S
H906 C920 0.960 . S
H907 C920 0.960 . S
C908 H900 0.929 . S
C908 C909 1.377 . S
C908 C910 1.384 . S
C909 C908 1.377 . S
C909 C915 1.390 . S
C910 H901 0.930 . S
C910 C908 1.384 . S
C910 C911 1.372 . S
C911 C910 1.372 . S
C911 C912 1.400 . S
C911 C916 1.490 . S
C912 H902 0.930 . S
C912 C911 1.400 . S
C912 C915 1.386 . S
H913 C929 0.930 . S
H914 C930 0.931 . S
C915 H903 0.929 . S
C915 C909 1.390 . S
C915 C912 1.386 . S
C916 C911 1.490 . S
C916 C918 1.395 . S
C916 C919 1.403 . S
H917 C923 0.930 . S
C918 H904 0.930 . S
C918 C916 1.395 . S
C918 C921 1.403 . S
C919 C916 1.403 . S
C919 C920 1.524 . S
C919 C923 1.400 . S
C920 H905 0.960 . S
C920 H906 0.960 . S
C920 H907 0.960 . S
C920 C919 1.524 . S
C921 C918 1.403 . S
C921 C922 1.392 . S
C921 C925 1.495 . S
C922 C921 1.392 . S
C922 C923 1.385 . S
C922 C924 1.478 . S
C923 H917 0.930 . S
C923 C919 1.400 . S
C923 C922 1.385 . S
C924 C922 1.478 . S
C924 C926 1.381 . S
C924 C930 1.383 . S
C925 C921 1.495 . S
C925 H931 0.959 . S
C925 H932 0.961 . S
C925 H933 0.960 . S
C926 C924 1.381 . S
C926 C927 1.394 . S
C926 H934 0.930 . S
C927 C926 1.394 . S
C927 C928 1.383 1_455 S
C927 H935 0.929 . S
C928 C927 1.383 1_655 S
C928 C929 1.377 . S
C929 H913 0.930 . S
C929 C928 1.377 . S
C929 C930 1.379 1_655 S
C930 H914 0.931 . S
C930 C924 1.383 . S
C930 C929 1.379 1_455 S
H931 C925 0.959 . S
H932 C925 0.961 . S
H933 C925 0.960 . S
H934 C926 0.930 . S
H935 C927 0.929 . S
H936 C944 0.929 . S
H937 C946 0.930 . S
H938 C948 0.930 . S
H939 C951 0.929 . S
H940 C954 0.930 . S
H941 C956 0.960 . S
H942 C956 0.960 . S
H943 C956 0.960 . S
C944 H936 0.929 . S
C944 C945 1.377 . S
C944 C946 1.384 . S
C945 C944 1.377 . S
C945 C951 1.390 . S
C946 H937 0.930 . S
C946 C944 1.384 . S
C946 C947 1.372 . S
C947 C946 1.372 . S
C947 C948 1.400 . S
C947 C952 1.490 . S
C948 H938 0.930 . S
C948 C947 1.400 . S
C948 C951 1.386 . S
H949 C965 0.930 . S
H950 C966 0.931 . S
C951 H939 0.929 . S
C951 C945 1.390 . S
C951 C948 1.386 . S
C952 C947 1.490 . S
C952 C954 1.395 . S
C952 C955 1.403 . S
H953 C959 0.930 . S
C954 H940 0.930 . S
C954 C952 1.395 . S
C954 C957 1.403 . S
C955 C952 1.403 . S
C955 C956 1.524 . S
C955 C959 1.400 . S
C956 H941 0.960 . S
C956 H942 0.960 . S
C956 H943 0.960 . S
C956 C955 1.524 . S
C957 C954 1.403 . S
C957 C958 1.392 . S
C957 C961 1.495 . S
C958 C957 1.392 . S
C958 C959 1.385 . S
C958 C960 1.478 . S
C959 H953 0.930 . S
C959 C955 1.400 . S
C959 C958 1.385 . S
C960 C958 1.478 . S
C960 C962 1.381 . S
C960 C966 1.383 . S
C961 C957 1.495 . S
C961 H967 0.959 . S
C961 H968 0.961 . S
C961 H969 0.960 . S
C962 C960 1.381 . S
C962 C963 1.394 . S
C962 H970 0.930 . S
C963 C962 1.394 . S
C963 C964 1.383 . S
C963 H971 0.929 . S
C964 C963 1.383 . S
C964 C965 1.377 . S
C965 H949 0.930 . S
C965 C964 1.377 . S
C965 C966 1.379 . S
C966 H950 0.931 . S
C966 C960 1.383 . S
C966 C965 1.379 . S
H967 C961 0.959 . S
H968 C961 0.961 . S
H969 C961 0.960 . S
H970 C962 0.930 . S
H971 C963 0.929 . S
H972 C980 0.929 . S
H973 C982 0.930 . S
H974 C984 0.930 . S
H975 C987 0.929 . S
H976 C990 0.930 . S
H977 C992 0.960 . S
H978 C992 0.960 . S
H979 C992 0.960 . S
C980 H972 0.929 . S
C980 C981 1.377 . S
C980 C982 1.384 . S
C981 C980 1.377 . S
C981 C987 1.390 . S
C982 H973 0.930 . S
C982 C980 1.384 . S
C982 C983 1.372 . S
C983 C982 1.372 . S
C983 C984 1.400 . S
C983 C988 1.490 . S
C984 H974 0.930 . S
C984 C983 1.400 . S
C984 C987 1.386 . S
H985 C1001 0.930 . S
H986 C1002 0.931 . S
C987 H975 0.929 . S
C987 C981 1.390 . S
C987 C984 1.386 . S
C988 C983 1.490 . S
C988 C990 1.395 . S
C988 C991 1.403 . S
H989 C995 0.930 . S
C990 H976 0.930 . S
C990 C988 1.395 . S
C990 C993 1.403 . S
C991 C988 1.403 . S
C991 C992 1.524 . S
C991 C995 1.400 . S
C992 H977 0.960 . S
C992 H978 0.960 . S
C992 H979 0.960 . S
C992 C991 1.524 . S
C993 C990 1.403 . S
C993 C994 1.392 . S
C993 C997 1.495 . S
C994 C993 1.392 . S
C994 C995 1.385 . S
C994 C996 1.478 . S
C995 H989 0.930 . S
C995 C991 1.400 . S
C995 C994 1.385 . S
C996 C994 1.478 . S
C996 C998 1.381 . S
C996 C1002 1.383 . S
C997 C993 1.495 . S
C997 H1003 0.959 . S
C997 H1004 0.961 . S
C997 H1005 0.960 . S
C998 C996 1.381 . S
C998 C999 1.394 . S
C998 H1006 0.930 . S
C999 C998 1.394 . S
C999 C1000 1.383 . S
C999 H1007 0.929 . S
C1000 C999 1.383 . S
C1000 C1001 1.377 . S
C1001 H985 0.930 . S
C1001 C1000 1.377 . S
C1001 C1002 1.379 . S
C1002 H986 0.931 . S
C1002 C996 1.383 . S
C1002 C1001 1.379 . S
H1003 C997 0.959 . S
H1004 C997 0.961 . S
H1005 C997 0.960 . S
H1006 C998 0.930 . S
H1007 C999 0.929 . S
H1008 C1016 0.929 . S
H1009 C1018 0.930 . S
H1010 C1020 0.930 . S
H1011 C1023 0.929 1_545 S
H1012 C1026 0.930 . S
H1013 C1028 0.960 . S
H1014 C1028 0.960 . S
H1015 C1028 0.960 . S
C1016 H1008 0.929 . S
C1016 C1017 1.377 . S
C1016 C1018 1.384 . S
C1017 C1016 1.377 . S
C1017 C1023 1.390 . S
C1018 H1009 0.930 . S
C1018 C1016 1.384 . S
C1018 C1019 1.372 . S
C1019 C1018 1.372 . S
C1019 C1020 1.400 . S
C1019 C1024 1.490 . S
C1020 H1010 0.930 . S
C1020 C1019 1.400 . S
C1020 C1023 1.386 . S
H1021 C1037 0.930 . S
H1022 C1038 0.931 . S
C1023 H1011 0.929 1_565 S
C1023 C1017 1.390 . S
C1023 C1020 1.386 . S
C1024 C1019 1.490 . S
C1024 C1026 1.395 . S
C1024 C1027 1.403 . S
H1025 C1031 0.930 . S
C1026 H1012 0.930 . S
C1026 C1024 1.395 . S
C1026 C1029 1.403 . S
C1027 C1024 1.403 . S
C1027 C1028 1.524 . S
C1027 C1031 1.400 . S
C1028 H1013 0.960 . S
C1028 H1014 0.960 . S
C1028 H1015 0.960 . S
C1028 C1027 1.524 . S
C1029 C1026 1.403 . S
C1029 C1030 1.392 . S
C1029 C1033 1.495 . S
C1030 C1029 1.392 . S
C1030 C1031 1.385 . S
C1030 C1032 1.478 . S
C1031 H1025 0.930 . S
C1031 C1027 1.400 . S
C1031 C1030 1.385 . S
C1032 C1030 1.478 . S
C1032 C1034 1.381 . S
C1032 C1038 1.383 . S
C1033 C1029 1.495 . S
C1033 H1039 0.959 . S
C1033 H1040 0.961 . S
C1033 H1041 0.960 . S
C1034 C1032 1.381 . S
C1034 C1035 1.394 . S
C1034 H1042 0.930 . S
C1035 C1034 1.394 . S
C1035 C1036 1.383 . S
C1035 H1043 0.929 . S
C1036 C1035 1.383 . S
C1036 C1037 1.377 . S
C1037 H1021 0.930 . S
C1037 C1036 1.377 . S
C1037 C1038 1.379 . S
C1038 H1022 0.931 . S
C1038 C1032 1.383 . S
C1038 C1037 1.379 . S
H1039 C1033 0.959 . S
H1040 C1033 0.961 . S
H1041 C1033 0.960 . S
H1042 C1034 0.930 . S
H1043 C1035 0.929 . S
H1044 C1052 0.929 . S
H1045 C1054 0.930 . S
H1046 C1056 0.930 . S
H1047 C1059 0.929 . S
H1048 C1062 0.930 . S
H1049 C1064 0.960 . S
H1050 C1064 0.960 . S
H1051 C1064 0.960 . S
C1052 H1044 0.929 . S
C1052 C1053 1.377 . S
C1052 C1054 1.384 . S
C1053 C1052 1.377 . S
C1053 C1059 1.390 . S
C1054 H1045 0.930 . S
C1054 C1052 1.384 . S
C1054 C1055 1.372 . S
C1055 C1054 1.372 . S
C1055 C1056 1.400 . S
C1055 C1060 1.490 . S
C1056 H1046 0.930 . S
C1056 C1055 1.400 . S
C1056 C1059 1.386 . S
H1057 C1073 0.930 . S
H1058 C1074 0.931 . S
C1059 H1047 0.929 . S
C1059 C1053 1.390 . S
C1059 C1056 1.386 . S
C1060 C1055 1.490 . S
C1060 C1062 1.395 . S
C1060 C1063 1.403 . S
H1061 C1067 0.930 . S
C1062 H1048 0.930 . S
C1062 C1060 1.395 . S
C1062 C1065 1.403 . S
C1063 C1060 1.403 . S
C1063 C1064 1.524 . S
C1063 C1067 1.400 . S
C1064 H1049 0.960 . S
C1064 H1050 0.960 . S
C1064 H1051 0.960 . S
C1064 C1063 1.524 . S
C1065 C1062 1.403 . S
C1065 C1066 1.392 . S
C1065 C1069 1.495 . S
C1066 C1065 1.392 . S
C1066 C1067 1.385 . S
C1066 C1068 1.478 . S
C1067 H1061 0.930 . S
C1067 C1063 1.400 . S
C1067 C1066 1.385 . S
C1068 C1066 1.478 . S
C1068 C1070 1.381 . S
C1068 C1074 1.383 . S
C1069 C1065 1.495 . S
C1069 H1075 0.959 . S
C1069 H1076 0.961 . S
C1069 H1077 0.960 . S
C1070 C1068 1.381 . S
C1070 C1071 1.394 . S
C1070 H1078 0.930 . S
C1071 C1070 1.394 . S
C1071 C1072 1.383 . S
C1071 H1079 0.929 . S
C1072 C1071 1.383 . S
C1072 C1073 1.377 . S
C1073 H1057 0.930 . S
C1073 C1072 1.377 . S
C1073 C1074 1.379 . S
C1074 H1058 0.931 . S
C1074 C1068 1.383 . S
C1074 C1073 1.379 . S
H1075 C1069 0.959 . S
H1076 C1069 0.961 . S
H1077 C1069 0.960 . S
H1078 C1070 0.930 . S
H1079 C1071 0.929 . S
H1080 C1088 0.929 . S
H1081 C1090 0.930 . S
H1082 C1092 0.930 . S
H1083 C1095 0.929 . S
H1084 C1098 0.930 . S
H1085 C1100 0.960 . S
H1086 C1100 0.960 . S
H1087 C1100 0.960 1_655 S
C1088 H1080 0.929 . S
C1088 C1089 1.377 . S
C1088 C1090 1.384 . S
C1089 C1088 1.377 . S
C1089 C1095 1.390 . S
C1090 H1081 0.930 . S
C1090 C1088 1.384 . S
C1090 C1091 1.372 . S
C1091 C1090 1.372 . S
C1091 C1092 1.400 . S
C1091 C1096 1.490 . S
C1092 H1082 0.930 . S
C1092 C1091 1.400 . S
C1092 C1095 1.386 . S
H1093 C1109 0.930 . S
H1094 C1110 0.931 . S
C1095 H1083 0.929 . S
C1095 C1089 1.390 . S
C1095 C1092 1.386 . S
C1096 C1091 1.490 . S
C1096 C1098 1.395 . S
C1096 C1099 1.403 . S
H1097 C1103 0.930 . S
C1098 H1084 0.930 . S
C1098 C1096 1.395 . S
C1098 C1101 1.403 . S
C1099 C1096 1.403 . S
C1099 C1100 1.524 1_655 S
C1099 C1103 1.400 . S
C1100 H1085 0.960 . S
C1100 H1086 0.960 . S
C1100 H1087 0.960 1_455 S
C1100 C1099 1.524 1_455 S
C1101 C1098 1.403 . S
C1101 C1102 1.392 . S
C1101 C1105 1.495 . S
C1102 C1101 1.392 . S
C1102 C1103 1.385 . S
C1102 C1104 1.478 . S
C1103 H1097 0.930 . S
C1103 C1099 1.400 . S
C1103 C1102 1.385 . S
C1104 C1102 1.478 . S
C1104 C1106 1.381 . S
C1104 C1110 1.383 . S
C1105 C1101 1.495 . S
C1105 H1111 0.959 . S
C1105 H1112 0.961 . S
C1105 H1113 0.960 . S
C1106 C1104 1.381 . S
C1106 C1107 1.394 . S
C1106 H1114 0.930 . S
C1107 C1106 1.394 . S
C1107 C1108 1.383 . S
C1107 H1115 0.929 . S
C1108 C1107 1.383 . S
C1108 C1109 1.377 . S
C1109 H1093 0.930 . S
C1109 C1108 1.377 . S
C1109 C1110 1.379 . S
C1110 H1094 0.931 . S
C1110 C1104 1.383 . S
C1110 C1109 1.379 . S
H1111 C1105 0.959 . S
H1112 C1105 0.961 . S
H1113 C1105 0.960 . S
H1114 C1106 0.930 . S
H1115 C1107 0.929 . S
H1116 C1124 0.929 . S
H1117 C1126 0.930 . S
H1118 C1128 0.930 . S
H1119 C1131 0.929 . S
H1120 C1134 0.930 . S
H1121 C1136 0.960 . S
H1122 C1136 0.960 . S
H1123 C1136 0.960 . S
C1124 H1116 0.929 . S
C1124 C1125 1.377 . S
C1124 C1126 1.384 . S
C1125 C1124 1.377 . S
C1125 C1131 1.390 . S
C1126 H1117 0.930 . S
C1126 C1124 1.384 . S
C1126 C1127 1.372 . S
C1127 C1126 1.372 . S
C1127 C1128 1.400 . S
C1127 C1132 1.490 . S
C1128 H1118 0.930 . S
C1128 C1127 1.400 . S
C1128 C1131 1.386 . S
H1129 C1145 0.930 . S
H1130 C1146 0.931 . S
C1131 H1119 0.929 . S
C1131 C1125 1.390 . S
C1131 C1128 1.386 . S
C1132 C1127 1.490 . S
C1132 C1134 1.395 . S
C1132 C1135 1.403 . S
H1133 C1139 0.930 . S
C1134 H1120 0.930 . S
C1134 C1132 1.395 . S
C1134 C1137 1.403 . S
C1135 C1132 1.403 . S
C1135 C1136 1.524 . S
C1135 C1139 1.400 . S
C1136 H1121 0.960 . S
C1136 H1122 0.960 . S
C1136 H1123 0.960 . S
C1136 C1135 1.524 . S
C1137 C1134 1.403 . S
C1137 C1138 1.392 . S
C1137 C1141 1.495 . S
C1138 C1137 1.392 . S
C1138 C1139 1.385 . S
C1138 C1140 1.478 . S
C1139 H1133 0.930 . S
C1139 C1135 1.400 . S
C1139 C1138 1.385 . S
C1140 C1138 1.478 . S
C1140 C1142 1.381 . S
C1140 C1146 1.383 . S
C1141 C1137 1.495 . S
C1141 H1147 0.959 . S
C1141 H1148 0.961 . S
C1141 H1149 0.960 . S
C1142 C1140 1.381 . S
C1142 C1143 1.394 . S
C1142 H1150 0.930 . S
C1143 C1142 1.394 . S
C1143 C1144 1.383 . S
C1143 H1151 0.929 . S
C1144 C1143 1.383 . S
C1144 C1145 1.377 . S
C1145 H1129 0.930 . S
C1145 C1144 1.377 . S
C1145 C1146 1.379 . S
C1146 H1130 0.931 . S
C1146 C1140 1.383 . S
C1146 C1145 1.379 . S
H1147 C1141 0.959 . S
H1148 C1141 0.961 . S
H1149 C1141 0.960 . S
H1150 C1142 0.930 . S
H1151 C1143 0.929 . S
H1152 C1160 0.929 . S
H1153 C1162 0.930 . S
H1154 C1164 0.930 . S
H1155 C1167 0.929 . S
H1156 C1170 0.930 . S
H1157 C1172 0.960 . S
H1158 C1172 0.960 . S
H1159 C1172 0.960 . S
C1160 H1152 0.929 . S
C1160 C1161 1.377 . S
C1160 C1162 1.384 . S
C1161 C1160 1.377 . S
C1161 C1167 1.390 . S
C1162 H1153 0.930 . S
C1162 C1160 1.384 . S
C1162 C1163 1.372 . S
C1163 C1162 1.372 . S
C1163 C1164 1.400 . S
C1163 C1168 1.490 . S
C1164 H1154 0.930 . S
C1164 C1163 1.400 . S
C1164 C1167 1.386 . S
H1165 C1181 0.930 . S
H1166 C1182 0.931 . S
C1167 H1155 0.929 . S
C1167 C1161 1.390 . S
C1167 C1164 1.386 . S
C1168 C1163 1.490 . S
C1168 C1170 1.395 . S
C1168 C1171 1.403 . S
H1169 C1175 0.930 . S
C1170 H1156 0.930 . S
C1170 C1168 1.395 . S
C1170 C1173 1.403 . S
C1171 C1168 1.403 . S
C1171 C1172 1.524 . S
C1171 C1175 1.400 . S
C1172 H1157 0.960 . S
C1172 H1158 0.960 . S
C1172 H1159 0.960 . S
C1172 C1171 1.524 . S
C1173 C1170 1.403 . S
C1173 C1174 1.392 . S
C1173 C1177 1.495 . S
C1174 C1173 1.392 . S
C1174 C1175 1.385 . S
C1174 C1176 1.478 . S
C1175 H1169 0.930 . S
C1175 C1171 1.400 . S
C1175 C1174 1.385 . S
C1176 C1174 1.478 . S
C1176 C1178 1.381 . S
C1176 C1182 1.383 . S
C1177 C1173 1.495 . S
C1177 H1183 0.959 . S
C1177 H1184 0.961 . S
C1177 H1185 0.960 . S
C1178 C1176 1.381 . S
C1178 C1179 1.394 . S
C1178 H1186 0.930 . S
C1179 C1178 1.394 . S
C1179 C1180 1.383 . S
C1179 H1187 0.929 . S
C1180 C1179 1.383 . S
C1180 C1181 1.377 . S
C1181 H1165 0.930 . S
C1181 C1180 1.377 . S
C1181 C1182 1.379 . S
C1182 H1166 0.931 . S
C1182 C1176 1.383 . S
C1182 C1181 1.379 . S
H1183 C1177 0.959 . S
H1184 C1177 0.961 . S
H1185 C1177 0.960 . S
H1186 C1178 0.930 . S
H1187 C1179 0.929 . S
H1188 C1196 0.929 . S
H1189 C1198 0.930 . S
H1190 C1200 0.930 1_545 S
H1191 C1203 0.929 . S
H1192 C1206 0.930 1_565 S
H1193 C1208 0.960 1_545 S
H1194 C1208 0.960 . S
H1195 C1208 0.960 1_545 S
C1196 H1188 0.929 . S
C1196 C1197 1.377 . S
C1196 C1198 1.384 . S
C1197 C1196 1.377 . S
C1197 C1203 1.390 . S
C1198 H1189 0.930 . S
C1198 C1196 1.384 . S
C1198 C1199 1.372 . S
C1199 C1198 1.372 . S
C1199 C1200 1.400 . S
C1199 C1204 1.490 . S
C1200 H1190 0.930 1_565 S
C1200 C1199 1.400 . S
C1200 C1203 1.386 . S
H1201 C1217 0.930 . S
H1202 C1218 0.931 . S
C1203 H1191 0.929 . S
C1203 C1197 1.390 . S
C1203 C1200 1.386 . S
C1204 C1199 1.490 . S
C1204 C1206 1.395 1_565 S
C1204 C1207 1.403 1_565 S
H1205 C1211 0.930 . S
C1206 H1192 0.930 1_545 S
C1206 C1204 1.395 1_545 S
C1206 C1209 1.403 . S
C1207 C1204 1.403 1_545 S
C1207 C1208 1.524 1_545 S
C1207 C1211 1.400 . S
C1208 H1193 0.960 1_565 S
C1208 H1194 0.960 . S
C1208 H1195 0.960 1_565 S
C1208 C1207 1.524 1_565 S
C1209 C1206 1.403 . S
C1209 C1210 1.392 . S
C1209 C1213 1.495 . S
C1210 C1209 1.392 . S
C1210 C1211 1.385 . S
C1210 C1212 1.478 . S
C1211 H1205 0.930 . S
C1211 C1207 1.400 . S
C1211 C1210 1.385 . S
C1212 C1210 1.478 . S
C1212 C1214 1.381 . S
C1212 C1218 1.383 . S
C1213 C1209 1.495 . S
C1213 H1219 0.959 . S
C1213 H1220 0.961 . S
C1213 H1221 0.960 . S
C1214 C1212 1.381 . S
C1214 C1215 1.394 . S
C1214 H1222 0.930 . S
C1215 C1214 1.394 . S
C1215 C1216 1.383 . S
C1215 H1223 0.929 . S
C1216 C1215 1.383 . S
C1216 C1217 1.377 . S
C1217 H1201 0.930 . S
C1217 C1216 1.377 . S
C1217 C1218 1.379 . S
C1218 H1202 0.931 . S
C1218 C1212 1.383 . S
C1218 C1217 1.379 . S
H1219 C1213 0.959 . S
H1220 C1213 0.961 . S
H1221 C1213 0.960 . S
H1222 C1214 0.930 . S
H1223 C1215 0.929 . S
H1224 C1232 0.929 . S
H1225 C1234 0.930 . S
H1226 C1236 0.930 . S
H1227 C1239 0.929 . S
H1228 C1242 0.930 . S
H1229 C1244 0.960 . S
H1230 C1244 0.960 . S
H1231 C1244 0.960 . S
C1232 H1224 0.929 . S
C1232 C1233 1.377 . S
C1232 C1234 1.384 . S
C1233 C1232 1.377 . S
C1233 C1239 1.390 . S
C1234 H1225 0.930 . S
C1234 C1232 1.384 . S
C1234 C1235 1.372 . S
C1235 C1234 1.372 . S
C1235 C1236 1.400 . S
C1235 C1240 1.491 1_655 S
C1236 H1226 0.930 . S
C1236 C1235 1.400 . S
C1236 C1239 1.386 . S
H1237 C1253 0.930 . S
H1238 C1254 0.931 . S
C1239 H1227 0.929 . S
C1239 C1233 1.390 . S
C1239 C1236 1.386 . S
C1240 C1235 1.491 1_455 S
C1240 C1242 1.392 . S
C1240 C1243 1.404 1_455 S
H1241 C1247 0.928 1_655 S
C1242 H1228 0.930 . S
C1242 C1240 1.392 . S
C1242 C1245 1.403 . S
C1243 C1240 1.404 1_655 S
C1243 C1244 1.524 . S
C1243 C1247 1.397 1_655 S
C1244 H1229 0.960 . S
C1244 H1230 0.960 . S
C1244 H1231 0.960 . S
C1244 C1243 1.524 . S
C1245 C1242 1.403 . S
C1245 C1246 1.392 . S
C1245 C1249 1.495 . S
C1246 C1245 1.392 . S
C1246 C1247 1.390 . S
C1246 C1248 1.478 . S
C1247 H1241 0.928 1_455 S
C1247 C1243 1.397 1_455 S
C1247 C1246 1.390 . S
C1248 C1246 1.478 . S
C1248 C1250 1.381 . S
C1248 C1254 1.383 . S
C1249 C1245 1.495 . S
C1249 H1255 0.959 . S
C1249 H1256 0.961 . S
C1249 H1257 0.960 . S
C1250 C1248 1.381 . S
C1250 C1251 1.394 . S
C1250 H1258 0.930 . S
C1251 C1250 1.394 . S
C1251 C1252 1.383 . S
C1251 H1259 0.929 . S
C1252 C1251 1.383 . S
C1252 C1253 1.377 . S
C1253 H1237 0.930 . S
C1253 C1252 1.377 . S
C1253 C1254 1.379 . S
C1254 H1238 0.931 . S
C1254 C1248 1.383 . S
C1254 C1253 1.379 . S
H1255 C1249 0.959 . S
H1256 C1249 0.961 . S
H1257 C1249 0.960 . S
H1258 C1250 0.930 . S
H1259 C1251 0.929 . S
C297 C36 0.961 . S
C316 C2 0.932 . S
C333 C93 0.961 . S
C352 C34 0.932 . S
C369 C70 0.951 . S
C388 C4 0.946 . S
C405 C66 0.950 . S
C424 C61 0.945 . S
C441 C68 0.960 . S
C460 C6 0.927 . S
C477 C29 0.963 . S
C496 C38 0.978 . S
C513 C98 0.954 . S
C532 C157 0.971 . S
C549 C164 0.958 . S
C568 C134 0.930 . S
C585 C162 0.956 . S
C604 C100 0.973 . S
C621 C132 0.964 . S
C640 C166 0.974 . S
C657 C189 0.960 . S
C676 C102 0.965 . S
C693 C130 0.957 . S
C712 C125 0.973 . S
C729 C253 0.959 . S
C748 C198 0.955 . S
C765 C230 0.954 . S
C784 C260 0.948 . S
C801 C258 0.952 . S
C820 C221 0.946 . S
C837 C262 0.959 . S
C856 C228 0.970 . S
C873 C285 0.963 . S
C892 C194 0.979 . S
C909 C196 0.961 . S
C928 C226 0.972 . S
C945 N173 1.916 . S
C964 N18 1.911 . S
C981 N109 1.910 . S
C1000 N50 1.924 . S
C1017 N77 1.916 . S
C1036 N146 1.908 . S
C1053 N82 1.910 . S
C1072 N205 1.914 . S
C1089 N13 1.909 . S
C1108 N237 1.916 . S
C1125 N274 1.915 . S
C1144 N45 1.919 . S
C1161 N114 1.916 . S
C1180 N269 1.893 . S
C1197 N141 1.915 . S
C1216 N210 1.892 . S
C1233 N242 1.910 . S
C1252 N178 1.910 . S
