# Generated by pormake.
# Topology uov, (4)-cn, num edge types: 1
# Building blocks:
#     Node 0, Type 0, BuildingBlock: AZAVOO_clean_sbu_0, # of connection points: 4
#     Node 1, Type 0, BuildingBlock: AZAVOO_clean_sbu_0, # of connection points: 4
#     Node 2, Type 0, BuildingBlock: AZAVOO_clean_sbu_0, # of connection points: 4
#     Node 3, Type 0, BuildingBlock: AZAVOO_clean_sbu_0, # of connection points: 4
#     Node 4, Type 0, BuildingBlock: AZAVOO_clean_sbu_0, # of connection points: 4
#     Node 5, Type 0, BuildingBlock: AZAVOO_clean_sbu_0, # of connection points: 4
#     Node 6, Type 0, BuildingBlock: AZAVOO_clean_sbu_0, # of connection points: 4
#     Node 7, Type 0, BuildingBlock: AZAVOO_clean_sbu_0, # of connection points: 4
#     Edge 8, Type (0, 0), BuildingBlock: TEMPAE_clean_linker_10, # of connection points: 2
#     Edge 9, Type (0, 0), BuildingBlock: TEMPAE_clean_linker_10, # of connection points: 2
#     Edge 10, Type (0, 0), BuildingBlock: TEMPAE_clean_linker_10, # of connection points: 2
#     Edge 11, Type (0, 0), BuildingBlock: TEMPAE_clean_linker_10, # of connection points: 2
#     Edge 12, Type (0, 0), BuildingBlock: TEMPAE_clean_linker_10, # of connection points: 2
#     Edge 13, Type (0, 0), BuildingBlock: TEMPAE_clean_linker_10, # of connection points: 2
#     Edge 14, Type (0, 0), BuildingBlock: TEMPAE_clean_linker_10, # of connection points: 2
#     Edge 15, Type (0, 0), BuildingBlock: TEMPAE_clean_linker_10, # of connection points: 2
#     Edge 16, Type (0, 0), BuildingBlock: TEMPAE_clean_linker_10, # of connection points: 2
#     Edge 17, Type (0, 0), BuildingBlock: TEMPAE_clean_linker_10, # of connection points: 2
#     Edge 18, Type (0, 0), BuildingBlock: TEMPAE_clean_linker_10, # of connection points: 2
#     Edge 19, Type (0, 0), BuildingBlock: TEMPAE_clean_linker_10, # of connection points: 2
#     Edge 20, Type (0, 0), BuildingBlock: TEMPAE_clean_linker_10, # of connection points: 2
#     Edge 21, Type (0, 0), BuildingBlock: TEMPAE_clean_linker_10, # of connection points: 2
#     Edge 22, Type (0, 0), BuildingBlock: TEMPAE_clean_linker_10, # of connection points: 2
#     Edge 23, Type (0, 0), BuildingBlock: TEMPAE_clean_linker_10, # of connection points: 2
# Relax obj value: 0.238
# Max RMSD: 0.250
# Mean RMSD: 0.233
data_MOF--net-uov--node1-AZAVOO_clean_sbu_0--edge1-TEMPAE_clean_linker_10
_symmetry_space_group_name_H-M    P1
_symmetry_Int_Tables_number       1
_symmetry_cell_setting            triclinic
loop_
_symmetry_equiv_pos_as_xyz
'x, y, z'
_cell_length_a     30.252113
_cell_length_b     29.289056
_cell_length_c     43.013402
_cell_angle_alpha  89.978047
_cell_angle_beta   90.019335
_cell_angle_gamma 92.427487
loop_
_atom_site_label
_atom_site_type_symbol
_atom_site_fract_x
_atom_site_fract_y
_atom_site_fract_z
_atom_type_partial_charge
Mg0 Mg 0.95736 0.22588 0.6272 0.0
O1 O -0.00021 0.22945 0.58319 0.0
O2 O 0.95849 0.25432 0.54397 0.0
Mg3 Mg 0.88963 0.26658 0.5631 0.0
C4 C 0.99501 0.24072 0.55475 0.0
C5 C 0.04336 0.18281 0.65035 0.0
O6 O 0.03412 0.15761 0.62574 0.0
O7 O 0.96438 0.30355 0.63111 0.0
O8 O 0.9211 0.3254 0.59226 0.0
O9 O 0.93653 0.15502 0.61506 0.0
O10 O 0.90102 0.21527 0.59929 0.0
C11 C 0.94693 0.33482 0.61511 0.0
C12 C 0.90653 0.17187 0.59752 0.0
O13 O 0.01882 0.2158 0.65675 0.0
Mg14 Mg 0.25454 0.08037 0.3725 0.0
O15 O 0.23584 0.03833 0.41635 0.0
O16 O 0.25852 0.07951 0.45764 0.0
Mg17 Mg 0.29159 0.14613 0.44044 0.0
C18 C 0.23995 0.04363 0.44576 0.0
C19 C 0.21789 0.02371 0.31827 0.0
O20 O 0.20339 0.06455 0.31262 0.0
O21 O 0.32538 0.06241 0.37899 0.0
O22 O 0.34763 0.10382 0.42009 0.0
O23 O 0.18994 0.11118 0.37468 0.0
O24 O 0.24988 0.13997 0.39844 0.0
C25 C 0.35504 0.07509 0.39853 0.0
C26 C 0.20747 0.13962 0.39466 0.0
O27 O 0.2417 0.01802 0.34215 0.0
Mg28 Mg 0.04058 0.77312 0.6283 0.0
O29 O -0.00016 0.77007 0.58346 0.0
O30 O 0.04273 0.74572 0.54498 0.0
Mg31 Mg 0.11081 0.73327 0.56543 0.0
C32 C 0.00578 0.75919 0.55507 0.0
C33 C 0.9531 0.81489 0.65024 0.0
O34 O 0.96249 0.84055 0.62587 0.0
O35 O 0.03364 0.69547 0.63177 0.0
O36 O 0.07839 0.67396 0.59371 0.0
O37 O 0.06165 0.84421 0.6169 0.0
O38 O 0.09789 0.78421 0.60155 0.0
C39 C 0.05171 0.66434 0.61605 0.0
C40 C 0.09236 0.82763 0.59988 0.0
O41 O 0.97808 0.78232 0.6568 0.0
Mg42 Mg 0.74705 0.91647 0.37028 0.0
O43 O 0.76583 0.95935 0.41375 0.0
O44 O 0.74404 0.91844 0.45539 0.0
Mg45 Mg 0.71152 0.85123 0.43881 0.0
C46 C 0.76206 0.95439 0.4432 0.0
C47 C 0.77381 0.9705 0.31238 0.0
O48 O 0.77954 0.92798 0.30408 0.0
O49 O 0.67607 0.93387 0.37705 0.0
O50 O 0.65489 0.89278 0.41856 0.0
O51 O 0.81202 0.88635 0.37233 0.0
O52 O 0.75254 0.85733 0.39654 0.0
C53 C 0.64684 0.92116 0.39689 0.0
C54 C 0.79492 0.85804 0.39259 0.0
O55 O 0.75915 0.97832 0.33943 0.0
Mg56 Mg 0.93679 0.27405 0.12058 0.0
O57 O 0.90471 0.23829 0.07717 0.0
O58 O 0.93748 0.26486 0.0336 0.0
Mg59 Mg 0.96903 0.33319 0.04875 0.0
C60 C 0.91145 0.23624 0.04776 0.0
C61 C 0.90879 0.21827 0.17691 0.0
O62 O 0.95041 0.23029 0.18241 0.0
O63 O 0.89186 0.33515 0.12151 0.0
O64 O 0.90273 0.33817 0.07225 0.0
O65 O 0.99291 0.22975 0.11351 0.0
O66 O 0.99072 0.2988 0.09238 0.0
C67 C 0.89844 0.35961 0.0975 0.0
C68 C 0.01029 0.26069 0.09522 0.0
O69 O 0.8909 0.23239 0.1522 0.0
Mg70 Mg 0.26434 0.11825 0.8987 0.0
O71 O 0.22473 0.05752 0.92154 0.0
O72 O 0.15463 0.07783 0.92574 0.0
Mg73 Mg 0.14766 0.1476 0.90362 0.0
C74 C 0.18473 0.04935 0.93029 0.0
C75 C 0.362 0.09639 0.89251 0.0
O76 O 0.36269 0.14127 0.89335 0.0
O77 O 0.23722 0.09953 0.85013 0.0
O78 O 0.16713 0.11936 0.85646 0.0
O79 O 0.27239 0.15067 0.94589 0.0
O80 O 0.21757 0.16342 0.91365 0.0
C81 C 0.19791 0.10364 0.83981 0.0
C82 C 0.23521 0.16957 0.94056 0.0
O83 O 0.32476 0.07458 0.89344 0.0
Mg84 Mg 0.06031 0.72701 0.1227 0.0
O85 O 0.09005 0.76462 0.07913 0.0
O86 O 0.05478 0.73975 0.03604 0.0
Mg87 Mg 0.02437 0.67067 0.05063 0.0
C88 C 0.0816 0.76784 0.04997 0.0
C89 C 0.09595 0.77046 0.18221 0.0
O90 O 0.05939 0.74852 0.19123 0.0
O91 O 0.10548 0.66613 0.12124 0.0
O92 O 0.09185 0.66532 0.07227 0.0
O93 O 0.00364 0.7713 0.11791 0.0
O94 O 0.00504 0.70312 0.09547 0.0
C95 C 0.09732 0.64278 0.09694 0.0
C96 C 0.98552 0.74105 0.09943 0.0
O97 O 0.1077 0.76741 0.15397 0.0
Mg98 Mg 0.73324 0.88102 0.89928 0.0
O99 O 0.77144 0.94375 0.92078 0.0
O100 O 0.84202 0.92526 0.92539 0.0
Mg101 Mg 0.85058 0.85445 0.90536 0.0
C102 C 0.81134 0.95328 0.92925 0.0
C103 C 0.65013 0.93692 0.91444 0.0
O104 O 0.66385 0.92787 0.94268 0.0
O105 O 0.76057 0.8975 0.85049 0.0
O106 O 0.83107 0.87951 0.85732 0.0
O107 O 0.7254 0.85083 0.94731 0.0
O108 O 0.78087 0.83785 0.91577 0.0
C109 C 0.79993 0.89365 0.84028 0.0
C110 C 0.76309 0.8326 0.9427 0.0
O111 O 0.67236 0.92338 0.89137 0.0
C112 C 0.00594 0.60318 0.64372 0.0
C113 C 0.03915 0.61554 0.62212 0.0
C114 C 0.9907 0.55741 0.64705 0.0
C115 C 0.00899 0.52328 0.62829 0.0
C116 C 0.04385 0.53524 0.6075 0.0
C117 C 0.05852 0.58111 0.60472 0.0
C118 C 0.95372 0.54591 0.66965 0.0
C119 C 0.06432 0.49988 0.58709 0.0
C120 C 0.99179 0.39585 0.64362 0.0
C121 C 0.95931 0.38358 0.62145 0.0
C122 C 0.00696 0.4416 0.6472 0.0
C123 C 0.98936 0.4758 0.62811 0.0
C124 C 0.9552 0.46393 0.60675 0.0
C125 C 0.94057 0.41809 0.60373 0.0
C126 C 0.04316 0.45302 0.67043 0.0
C127 C 0.93546 0.49936 0.58597 0.0
H128 H 0.99085 0.6294 0.6574 0.0
H129 H 0.08441 0.59007 0.58813 0.0
H130 H 0.92316 0.53601 0.6566 0.0
H131 H 0.96206 0.51631 0.68431 0.0
H132 H 0.94663 0.57518 0.68502 0.0
H133 H 0.09319 0.51417 0.57379 0.0
H134 H 0.07519 0.47086 0.60135 0.0
H135 H 0.03929 0.48603 0.57033 0.0
H136 H 0.00638 0.36957 0.65754 0.0
H137 H 0.91522 0.40921 0.5867 0.0
H138 H 0.03431 0.48256 0.68497 0.0
H139 H 0.07415 0.46299 0.65792 0.0
H140 H 0.04973 0.4237 0.68591 0.0
H141 H 0.92408 0.52834 0.60004 0.0
H142 H 0.90707 0.48512 0.57216 0.0
H143 H 0.96108 0.51327 0.56967 0.0
C144 C 0.56913 0.92762 0.41609 0.0
C145 C 0.6032 0.94219 0.39581 0.0
C146 C 0.52855 0.9491 0.41632 0.0
C147 C 0.52205 0.98615 0.39593 0.0
C148 C 0.55606 0.00075 0.3752 0.0
C149 C 0.59615 0.9785 0.37531 0.0
C150 C 0.49276 0.93239 0.43854 0.0
C151 C 0.55032 0.04027 0.35319 0.0
C152 C 0.40471 0.01687 0.37692 0.0
C153 C 0.39852 0.05376 0.39708 0.0
C154 C 0.44475 0.99456 0.37633 0.0
C155 C 0.47959 0.00969 0.39621 0.0
C156 C 0.47392 0.04727 0.41629 0.0
C157 C 0.43336 0.06879 0.41657 0.0
C158 C 0.44957 0.95446 0.35469 0.0
C159 C 0.51061 0.06453 0.43761 0.0
H160 H 0.57421 0.89958 0.43197 0.0
H161 H 0.62227 0.9902 0.35962 0.0
H162 H 0.4844 0.96029 0.45466 0.0
H163 H 0.46223 0.92246 0.42547 0.0
H164 H 0.50279 0.90262 0.4525 0.0
H165 H 0.57997 0.04725 0.33843 0.0
H166 H 0.5214 0.03306 0.33782 0.0
H167 H 0.54361 0.07161 0.36657 0.0
H168 H 0.37797 0.00481 0.36185 0.0
H169 H 0.42893 0.09727 0.43218 0.0
H170 H 0.45692 0.9235 0.3683 0.0
H171 H 0.47778 0.96129 0.33865 0.0
H172 H 0.41929 0.94705 0.34065 0.0
H173 H 0.51972 0.03702 0.45384 0.0
H174 H 0.50113 0.0946 0.45145 0.0
H175 H 0.54056 0.0742 0.42383 0.0
C176 C 0.96439 0.40202 0.11961 0.0
C177 C 0.92604 0.40179 0.10132 0.0
C178 C 0.99342 0.44064 0.12063 0.0
C179 C 0.98306 0.48022 0.10367 0.0
C180 C 0.94348 0.48056 0.08605 0.0
C181 C 0.91582 0.44093 0.08464 0.0
C182 C 0.03588 0.43852 0.13894 0.0
C183 C 0.93076 0.5225 0.06826 0.0
C184 C 0.04006 0.59404 0.1248 0.0
C185 C 0.07059 0.59982 0.10044 0.0
C186 C 0.01151 0.55507 0.12631 0.0
C187 C 0.01435 0.52074 0.10331 0.0
C188 C 0.04615 0.52581 0.07926 0.0
C189 C 0.07345 0.56569 0.07787 0.0
C190 C 0.97732 0.55136 0.15185 0.0
C191 C 0.05088 0.48947 0.05473 0.0
H192 H 0.97251 0.3714 0.13219 0.0
H193 H 0.88619 0.44043 0.07042 0.0
H194 H 0.06459 0.44321 0.12303 0.0
H195 H 0.03822 0.46665 0.15619 0.0
H196 H 0.03855 0.40549 0.15136 0.0
H197 H 0.89733 0.51827 0.05769 0.0
H198 H 0.93134 0.55265 0.0839 0.0
H199 H 0.95511 0.52994 0.04947 0.0
H200 H 0.03729 0.6208 0.14201 0.0
H201 H 0.09702 0.57035 0.05902 0.0
H202 H 0.98068 0.51913 0.16503 0.0
H203 H 0.94367 0.55025 0.14154 0.0
H204 H 0.98018 0.58049 0.16837 0.0
H205 H 0.05538 0.45578 0.06585 0.0
H206 H 0.07931 0.49718 0.03897 0.0
H207 H 0.02028 0.48636 0.04054 0.0
C208 C 0.40408 0.02426 0.89421 0.0
C209 C 0.4041 0.07212 0.89258 0.0
C210 C 0.44392 0.00139 0.89624 0.0
C211 C 0.48473 0.02697 0.89667 0.0
C212 C 0.48498 0.07516 0.89425 0.0
C213 C 0.44473 0.09711 0.89223 0.0
C214 C 0.44231 0.94992 0.89868 0.0
C215 C 0.52777 0.10368 0.89458 0.0
C216 C 0.58392 0.9752 0.93534 0.0
C217 C 0.60824 0.96063 0.90968 0.0
C218 C 0.54363 0.99658 0.9314 0.0
C219 C 0.52712 0.00361 0.90104 0.0
C220 C 0.55149 0.98909 0.87501 0.0
C221 C 0.59177 0.96782 0.87963 0.0
C222 C 0.51873 0.01171 0.95976 0.0
C223 C 0.53499 0.99601 0.84229 0.0
H224 H 0.37288 0.00465 0.89444 0.0
H225 H 0.44517 0.13408 0.89087 0.0
H226 H 0.46321 0.93519 0.88036 0.0
H227 H 0.45592 0.93957 0.92145 0.0
H228 H 0.40811 0.93491 0.89643 0.0
H229 H 0.5224 0.14063 0.8911 0.0
H230 H 0.54489 0.09931 0.91714 0.0
H231 H 0.55022 0.09204 0.87609 0.0
H232 H 0.5963 0.96981 0.95865 0.0
H233 H 0.61024 0.9566 0.85966 0.0
H234 H 0.48513 0.995 0.96013 0.0
H235 H 0.5146 0.04914 0.95886 0.0
H236 H 0.53588 0.00341 0.98177 0.0
H237 H 0.50183 0.97886 0.83941 0.0
H238 H 0.55762 0.98239 0.82455 0.0
H239 H 0.5313 0.03295 0.83779 0.0
C240 C 0.13386 0.14993 0.41853 0.0
C241 C 0.17872 0.16364 0.41639 0.0
C242 C 0.10675 0.16769 0.44148 0.0
C243 C 0.1247 0.20073 0.46245 0.0
C244 C 0.16941 0.21644 0.45953 0.0
C245 C 0.19611 0.19734 0.43663 0.0
C246 C 0.05934 0.14958 0.44406 0.0
C247 C 0.18927 0.2524 0.4811 0.0
C248 C 0.03513 0.26078 0.50558 0.0
C249 C 0.03216 0.23512 0.53307 0.0
C250 C 0.06754 0.25232 0.48326 0.0
C251 C 0.09677 0.21658 0.48829 0.0
C252 C 0.0952 0.19198 0.51664 0.0
C253 C 0.06317 0.20194 0.53888 0.0
C254 C 0.06895 0.27998 0.45363 0.0
C255 C 0.12526 0.15302 0.52262 0.0
H256 H 0.12016 0.12379 0.40304 0.0
H257 H 0.23069 0.20831 0.43488 0.0
H258 H 0.05404 0.13276 0.46696 0.0
H259 H 0.03644 0.17809 0.44267 0.0
H260 H 0.05034 0.12448 0.42551 0.0
H261 H 0.22305 0.26423 0.47377 0.0
H262 H 0.16795 0.28227 0.48208 0.0
H263 H 0.19116 0.23837 0.50499 0.0
H264 H 0.01156 0.28692 0.50124 0.0
H265 H 0.06091 0.18198 0.5601 0.0
H266 H 0.05586 0.25861 0.43413 0.0
H267 H 0.10353 0.29086 0.44776 0.0
H268 H 0.0489 0.31079 0.45536 0.0
H269 H 0.11646 0.12436 0.5066 0.0
H270 H 0.12264 0.14019 0.54689 0.0
H271 H 0.1602 0.16381 0.51795 0.0
C272 C 0.23474 0.00751 0.49837 0.0
C273 C 0.22172 0.00775 0.46705 0.0
C274 C 0.21601 0.97566 0.51941 0.0
C275 C 0.18302 0.94354 0.50902 0.0
C276 C 0.17044 0.9428 0.47729 0.0
C277 C 0.19015 0.97476 0.45662 0.0
C278 C 0.23064 0.97728 0.55299 0.0
C279 C 0.13499 0.90937 0.46543 0.0
C280 C 0.1531 0.84148 0.56084 0.0
C281 C 0.11612 0.85689 0.57672 0.0
C282 C 0.17519 0.86917 0.53856 0.0
C283 C 0.15957 0.91302 0.53185 0.0
C284 C 0.12202 0.92852 0.54764 0.0
C285 C 0.10094 0.90041 0.56998 0.0
C286 C 0.21545 0.85176 0.52243 0.0
C287 C 0.1041 0.97492 0.54098 0.0
H288 H 0.25942 0.03257 0.50659 0.0
H289 H 0.17981 0.97477 0.43249 0.0
H290 H 0.2028 0.98742 0.5679 0.0
H291 H 0.24016 0.94293 0.56076 0.0
H292 H 0.25908 0.00189 0.55681 0.0
H293 H 0.13098 0.91127 0.4398 0.0
H294 H 0.14293 0.87395 0.47183 0.0
H295 H 0.10289 0.91655 0.4765 0.0
H296 H 0.16506 0.80796 0.56603 0.0
H297 H 0.07217 0.91247 0.58196 0.0
H298 H 0.24463 0.87484 0.52739 0.0
H299 H 0.21042 0.85178 0.49688 0.0
H300 H 0.22297 0.81662 0.52992 0.0
H301 H 0.12946 0.00211 0.54665 0.0
H302 H 0.07371 0.98122 0.55455 0.0
H303 H 0.09635 0.97802 0.51587 0.0
C304 C 0.8686 0.84933 0.41684 0.0
C305 C 0.82402 0.83464 0.41444 0.0
C306 C 0.89583 0.83215 0.43997 0.0
C307 C 0.8783 0.79874 0.46084 0.0
C308 C 0.83391 0.78207 0.45765 0.0
C309 C 0.80707 0.80059 0.43459 0.0
C310 C 0.94285 0.85128 0.44286 0.0
C311 C 0.81451 0.74571 0.47911 0.0
C312 C 0.96773 0.73972 0.505 0.0
C313 C 0.96951 0.76499 0.53267 0.0
C314 C 0.93599 0.74814 0.48217 0.0
C315 C 0.9062 0.78344 0.48689 0.0
C316 C 0.9067 0.80781 0.51533 0.0
C317 C 0.93808 0.7979 0.53805 0.0
C318 C 0.93574 0.72077 0.45244 0.0
C319 C 0.87601 0.84633 0.52098 0.0
H320 H 0.88192 0.87578 0.40143 0.0
H321 H 0.77271 0.7889 0.43263 0.0
H322 H 0.94745 0.86833 0.46575 0.0
H323 H 0.96638 0.8233 0.44178 0.0
H324 H 0.95162 0.87646 0.42431 0.0
H325 H 0.78098 0.73324 0.47162 0.0
H326 H 0.83638 0.71627 0.48017 0.0
H327 H 0.81216 0.75962 0.503 0.0
H328 H 0.99165 0.71382 0.50096 0.0
H329 H 0.93944 0.8176 0.55939 0.0
H330 H 0.94857 0.74263 0.43311 0.0
H331 H 0.90149 0.70905 0.44628 0.0
H332 H 0.95653 0.6905 0.45421 0.0
H333 H 0.88456 0.87502 0.50491 0.0
H334 H 0.87814 0.85934 0.54522 0.0
H335 H 0.84126 0.83496 0.51612 0.0
C336 C 0.76674 0.99144 0.49549 0.0
C337 C 0.77987 0.99083 0.4642 0.0
C338 C 0.78509 0.02381 0.51631 0.0
C339 C 0.81782 0.05609 0.50574 0.0
C340 C 0.83043 0.05651 0.47402 0.0
C341 C 0.81108 0.02403 0.45356 0.0
C342 C 0.77042 0.0225 0.54988 0.0
C343 C 0.86558 0.09012 0.46197 0.0
C344 C 0.84679 0.15826 0.55767 0.0
C345 C 0.88356 0.1429 0.57384 0.0
C346 C 0.8252 0.13061 0.53513 0.0
C347 C 0.84114 0.0869 0.52845 0.0
C348 C 0.87865 0.07158 0.54441 0.0
C349 C 0.8992 0.09962 0.56701 0.0
C350 C 0.78498 0.14783 0.51881 0.0
C351 C 0.89695 0.02536 0.53777 0.0
H352 H 0.74229 0.96625 0.50387 0.0
H353 H 0.82147 0.02374 0.42945 0.0
H354 H 0.79831 0.01268 0.56488 0.0
H355 H 0.76072 0.05688 0.55744 0.0
H356 H 0.7421 0.99779 0.5538 0.0
H357 H 0.86938 0.08815 0.43632 0.0
H358 H 0.85752 0.1255 0.46834 0.0
H359 H 0.89782 0.08315 0.47292 0.0
H360 H 0.83452 0.19163 0.5629 0.0
H361 H 0.92786 0.08765 0.57919 0.0
H362 H 0.75577 0.12489 0.52396 0.0
H363 H 0.78999 0.14735 0.49326 0.0
H364 H 0.77753 0.18311 0.52599 0.0
H365 H 0.87186 0.99797 0.54358 0.0
H366 H 0.9275 0.01939 0.55126 0.0
H367 H 0.90455 0.02223 0.51265 0.0
C368 C 0.86547 0.00554 0.95724 0.0
C369 C 0.82264 0.99722 0.94529 0.0
C370 C 0.87684 0.04577 0.97354 0.0
C371 C 0.84475 0.07893 0.97795 0.0
C372 C 0.80158 0.07117 0.96573 0.0
C373 C 0.79097 0.03033 0.94961 0.0
C374 C 0.92322 0.05255 0.98628 0.0
C375 C 0.7666 0.10592 0.96981 0.0
C376 C 0.86896 0.16079 0.04496 0.0
C377 C 0.89026 0.19796 0.0297 0.0
C378 C 0.85236 0.12254 0.02827 0.0
C379 C 0.85685 0.12151 0.99551 0.0
C380 C 0.87657 0.15969 0.97985 0.0
C381 C 0.89317 0.19733 0.99711 0.0
C382 C 0.83179 0.0824 0.04586 0.0
C383 C 0.88173 0.16008 0.94493 0.0
H384 H 0.89027 0.98028 0.9542 0.0
H385 H 0.75782 0.02431 0.94051 0.0
H386 H 0.93923 0.08415 0.97647 0.0
H387 H 0.92204 0.05687 0.01189 0.0
H388 H 0.94426 0.0234 0.98088 0.0
H389 H 0.73485 0.09515 0.95847 0.0
H390 H 0.76043 0.11147 0.99492 0.0
H391 H 0.77832 0.13924 0.95987 0.0
H392 H 0.86647 0.16084 0.07009 0.0
H393 H 0.90921 0.22596 0.98502 0.0
H394 H 0.8531 0.05265 0.04367 0.0
H395 H 0.79907 0.07222 0.03581 0.0
H396 H 0.82746 0.08999 0.07096 0.0
H397 H 0.90558 0.13423 0.93794 0.0
H398 H 0.89384 0.19396 0.93605 0.0
H399 H 0.8497 0.1507 0.93356 0.0
C400 C 0.17117 0.21365 0.95759 0.0
C401 C 0.2099 0.19159 0.96539 0.0
C402 C 0.14222 0.22812 0.98054 0.0
C403 C 0.15311 0.22204 0.0122 0.0
C404 C 0.19397 0.20333 0.02033 0.0
C405 C 0.22181 0.1878 0.99675 0.0
C406 C 0.09869 0.24727 0.97081 0.0
C407 C 0.2073 0.1978 0.05388 0.0
C408 C 0.07919 0.28549 0.06705 0.0
C409 C 0.04861 0.2506 0.07576 0.0
C410 C 0.11526 0.27616 0.04788 0.0
C411 C 0.1196 0.23131 0.03632 0.0
C412 C 0.08893 0.19592 0.0454 0.0
C413 C 0.05418 0.20589 0.06546 0.0
C414 C 0.14809 0.31442 0.03946 0.0
C415 C 0.09155 0.14796 0.03278 0.0
H416 H 0.16247 0.21817 0.93339 0.0
H417 H 0.252 0.17133 0.00293 0.0
H418 H 0.07096 0.22418 0.97884 0.0
H419 H 0.09443 0.28104 0.98177 0.0
H420 H 0.09602 0.25122 0.94519 0.0
H421 H 0.24266 0.18958 0.05623 0.0
H422 H 0.20144 0.22945 0.06716 0.0
H423 H 0.1868 0.16975 0.06463 0.0
H424 H 0.07501 0.31999 0.07535 0.0
H425 H 0.0303 0.179 0.07209 0.0
H426 H 0.14444 0.32335 0.01456 0.0
H427 H 0.18241 0.30339 0.04283 0.0
H428 H 0.14336 0.34562 0.05355 0.0
H429 H 0.0873 0.14837 0.00715 0.0
H430 H 0.06586 0.12412 0.04289 0.0
H431 H 0.12454 0.13447 0.03766 0.0
C432 C 0.09591 0.80916 -0.00037 0.0
C433 C 0.10206 0.80657 0.03194 0.0
C434 C 0.11244 0.84695 0.9825 0.0
C435 C 0.13553 0.88329 0.998 0.0
C436 C 0.14302 0.88038 0.03043 0.0
C437 C 0.12631 0.84204 0.047 0.0
C438 C 0.1039 0.84864 0.94793 0.0
C439 C 0.1673 0.91854 0.04784 0.0
C440 C 0.20249 0.97121 0.95006 0.0
C441 C 0.17263 0.00639 0.94728 0.0
C442 C 0.19098 0.93088 0.96651 0.0
C443 C 0.14879 0.92578 0.98068 0.0
C444 C 0.11865 0.96124 0.97808 0.0
C445 C 0.13085 0.0009 0.96138 0.0
C446 C 0.22386 0.89365 0.96862 0.0
C447 C 0.07342 0.95734 0.99299 0.0
H448 H 0.07749 0.78191 0.98766 0.0
H449 H 0.13133 0.84048 0.07192 0.0
H450 H 0.08156 0.87671 0.94263 0.0
H451 H 0.13528 0.85602 0.9352 0.0
H452 H 0.08848 0.81614 0.93898 0.0
H453 H 0.17309 0.90969 0.07259 0.0
H454 H 0.19966 0.92697 0.03667 0.0
H455 H 0.14782 0.94977 0.047 0.0
H456 H 0.23482 0.97506 0.93929 0.0
H457 H 0.10754 0.02789 0.95963 0.0
H458 H 0.20943 0.8616 0.95838 0.0
H459 H 0.23136 0.88643 0.99335 0.0
H460 H 0.25533 0.90289 0.9564 0.0
H461 H 0.05436 0.92732 0.98345 0.0
H462 H 0.05409 0.98827 0.98914 0.0
H463 H 0.07675 0.95187 0.01839 0.0
C464 C 0.82804 0.79098 0.96115 0.0
C465 C 0.78842 0.81194 0.96814 0.0
C466 C 0.85643 0.77716 0.98467 0.0
C467 C 0.84404 0.78258 0.01609 0.0
C468 C 0.8025 0.80043 0.0234 0.0
C469 C 0.77527 0.81547 -0.00073 0.0
C470 C 0.90074 0.75898 0.9758 0.0
C471 C 0.78759 0.80518 0.05667 0.0
C472 C 0.91647 0.71748 0.07099 0.0
C473 C 0.94685 0.75205 0.08054 0.0
C474 C 0.88068 0.72748 0.05172 0.0
C475 C 0.87643 0.77275 0.0409 0.0
C476 C 0.90664 0.8079 0.05105 0.0
C477 C 0.94112 0.7972 0.07118 0.0
C478 C 0.84832 0.6894 0.04218 0.0
C479 C 0.90415 0.85632 0.03924 0.0
H480 H 0.83773 0.78655 0.93715 0.0
H481 H 0.7444 0.83108 0.00483 0.0
H482 H 0.92776 0.78181 0.98519 0.0
H483 H 0.90459 0.72467 0.98608 0.0
H484 H 0.90502 0.75644 0.95021 0.0
H485 H 0.75214 0.81336 0.05829 0.0
H486 H 0.79281 0.77318 0.06975 0.0
H487 H 0.8076 0.8329 0.0682 0.0
H488 H 0.92075 0.68261 0.07854 0.0
H489 H 0.96484 0.82388 0.07845 0.0
H490 H 0.85335 0.68092 0.01734 0.0
H491 H 0.81383 0.70032 0.04471 0.0
H492 H 0.85234 0.65794 0.05616 0.0
H493 H 0.91008 0.85704 0.01378 0.0
H494 H 0.92886 0.88001 0.05057 0.0
H495 H 0.87068 0.86916 0.04329 0.0
C496 C 0.09996 0.12832 0.66807 0.0
C497 C 0.07777 0.16897 0.67259 0.0
C498 C 0.12777 0.11139 0.69118 0.0
C499 C 0.13334 0.13565 0.71943 0.0
C500 C 0.11337 0.17823 0.72321 0.0
C501 C 0.08588 0.19435 0.69975 0.0
C502 C 0.14886 0.06622 0.68605 0.0
C503 C 0.11876 0.20549 0.75288 0.0
C504 C 0.14496 0.08153 0.79816 0.0
C505 C 0.18772 0.0971 0.80656 0.0
C506 C 0.12825 0.08981 0.76843 0.0
C507 C 0.15495 0.11459 0.74669 0.0
C508 C 0.19986 0.12562 0.75386 0.0
C509 C 0.21587 0.1166 0.78386 0.0
C510 C 0.08043 0.07653 0.76163 0.0
C511 C 0.22966 0.15115 0.73108 0.0
H512 H 0.09423 0.10861 0.64702 0.0
H513 H 0.06931 0.22603 0.7033 0.0
H514 H 0.18332 0.06722 0.69494 0.0
H515 H 0.12996 0.03907 0.699 0.0
H516 H 0.1491 0.05662 0.66107 0.0
H517 H 0.10426 0.23961 0.75109 0.0
H518 H 0.10223 0.18651 0.77229 0.0
H519 H 0.15429 0.21032 0.75894 0.0
H520 H 0.12329 0.06613 0.8157 0.0
H521 H 0.24892 0.12885 0.79035 0.0
H522 H 0.07701 0.06094 0.73822 0.0
H523 H 0.06062 0.10758 0.76188 0.0
H524 H 0.06625 0.05205 0.77906 0.0
H525 H 0.22409 0.13837 0.70706 0.0
H526 H 0.26513 0.14819 0.73713 0.0
H527 H 0.22207 0.18788 0.73136 0.0
C528 C 0.10313 0.8101 0.23343 0.0
C529 C 0.12001 0.80223 0.20364 0.0
C530 C 0.12248 0.84387 0.25277 0.0
C531 C 0.15977 0.87017 0.24212 0.0
C532 C 0.17836 0.86084 0.21272 0.0
C533 C 0.15815 0.82702 0.19376 0.0
C534 C 0.10167 0.85289 0.28397 0.0
C535 C 0.21841 0.8879 0.20075 0.0
C536 C 0.17327 0.99014 0.27452 0.0
C537 C 0.2049 0.98476 0.29791 0.0
C538 C 0.15887 0.9532 0.25591 0.0
C539 C 0.17681 0.90989 0.26063 0.0
C540 C 0.20955 0.9044 0.28368 0.0
C541 C 0.22309 0.94192 0.30219 0.0
C542 C 0.12367 0.96032 0.23166 0.0
C543 C 0.2297 0.85879 0.28911 0.0
H544 H 0.0738 0.79095 0.24131 0.0
H545 H 0.17157 0.82092 0.17085 0.0
H546 H 0.12701 0.85275 0.30261 0.0
H547 H 0.08758 0.88727 0.28387 0.0
H548 H 0.07485 0.82723 0.28978 0.0
H549 H 0.23149 0.87333 0.17893 0.0
H550 H 0.20952 0.92364 0.19616 0.0
H551 H 0.24509 0.88907 0.21847 0.0
H552 H 0.15905 0.02311 0.27108 0.0
H553 H 0.24773 0.93759 0.32013 0.0
H554 H 0.09383 0.93837 0.23699 0.0
H555 H 0.13569 0.95011 0.20842 0.0
H556 H 0.11388 0.99641 0.23046 0.0
H557 H 0.2038 0.83352 0.29711 0.0
H558 H 0.25655 0.86084 0.30675 0.0
H559 H 0.24331 0.84568 0.26706 0.0
C560 C 0.89559 0.86837 0.6679 0.0
C561 C 0.91816 0.82792 0.67228 0.0
C562 C 0.86763 0.8848 0.69107 0.0
C563 C 0.86234 0.86025 0.71924 0.0
C564 C 0.88246 0.81772 0.72278 0.0
C565 C 0.91007 0.80208 0.69926 0.0
C566 C 0.84622 0.92985 0.68615 0.0
C567 C 0.87734 0.79013 0.75235 0.0
C568 C 0.85254 0.91433 0.79809 0.0
C569 C 0.80988 0.89902 0.8069 0.0
C570 C 0.8686 0.90589 0.76822 0.0
C571 C 0.84136 0.88121 0.74675 0.0
C572 C 0.79659 0.87027 0.75438 0.0
C573 C 0.78123 0.87945 0.78452 0.0
C574 C 0.91629 0.91908 0.76092 0.0
C575 C 0.76623 0.84484 0.73191 0.0
H576 H 0.90125 0.88838 0.64696 0.0
H577 H 0.92687 0.7705 0.70268 0.0
H578 H 0.81194 0.92869 0.69536 0.0
H579 H 0.86528 0.95708 0.69891 0.0
H580 H 0.84547 0.93944 0.66117 0.0
H581 H 0.89169 0.75597 0.75028 0.0
H582 H 0.8942 0.80882 0.77174 0.0
H583 H 0.84188 0.78537 0.75861 0.0
H584 H 0.87456 0.92986 0.81536 0.0
H585 H 0.74824 0.86745 0.79132 0.0
H586 H 0.91917 0.935 0.73758 0.0
H587 H 0.93598 0.88794 0.76071 0.0
H588 H 0.93102 0.94326 0.77833 0.0
H589 H 0.77146 0.85743 0.70781 0.0
H590 H 0.73091 0.8481 0.73824 0.0
H591 H 0.77355 0.80803 0.73224 0.0
C592 C 0.78092 0.05403 0.30006 0.0
C593 C 0.78746 0.00861 0.29147 0.0
C594 C 0.79679 0.0905 0.28144 0.0
C595 C 0.81994 0.08122 0.25372 0.0
C596 C 0.82539 0.03546 0.24443 0.0
C597 C 0.80896 0.9997 0.26337 0.0
C598 C 0.79003 0.1389 0.29191 0.0
C599 C 0.85004 0.02423 0.21505 0.0
C600 C 0.84054 0.17189 0.19172 0.0
C601 C 0.88459 0.18595 0.19788 0.0
C602 C 0.81849 0.13874 0.21029 0.0
C603 C 0.84115 0.11914 0.23544 0.0
C604 C 0.88517 0.1341 0.24227 0.0
C605 C 0.90631 0.16742 0.22346 0.0
C606 C 0.77141 0.12379 0.20249 0.0
C607 C 0.91048 0.11389 0.26888 0.0
H608 H 0.76409 0.06118 0.32165 0.0
H609 H 0.81404 0.9647 0.25651 0.0
H610 H 0.82245 0.15586 0.29777 0.0
H611 H 0.7754 0.15885 0.27284 0.0
H612 H 0.76817 0.1403 0.3126 0.0
H613 H 0.84926 0.98694 0.21024 0.0
H614 H 0.83563 0.04187 0.19486 0.0
H615 H 0.88508 0.03666 0.21709 0.0
H616 H 0.82349 0.18618 0.17205 0.0
H617 H 0.9403 0.17816 0.22844 0.0
H618 H 0.7501 0.12615 0.22336 0.0
H619 H 0.77011 0.0875 0.19504 0.0
H620 H 0.75743 0.14469 0.18361 0.0
H621 H 0.89182 0.11713 0.2909 0.0
H622 H 0.94384 0.13065 0.27188 0.0
H623 H 0.9144 0.07689 0.26471 0.0
loop_
_geom_bond_atom_site_label_1
_geom_bond_atom_site_label_2
_geom_bond_distance
_geom_bond_site_symmetry_2
_ccdc_geom_bond_type
Mg0 O1 2.028 . S
Mg0 O7 1.986 . S
Mg0 O9 2.114 1_455 S
Mg0 O10 2.251 1_455 S
Mg0 O13 2.010 . S
O1 Mg0 2.028 . S
O1 C4 1.250 . S
O2 Mg3 2.028 . S
O2 C4 1.248 . S
Mg3 O2 2.028 . S
Mg3 O8 2.032 . S
Mg3 O10 2.079 1_455 S
C4 O1 1.250 . S
C4 O2 1.248 . S
C5 O6 1.264 . S
C5 O13 1.249 . S
O6 C5 1.264 . S
O7 Mg0 1.986 . S
O7 C11 1.246 . S
O8 Mg3 2.032 . S
O8 C11 1.259 . S
O9 Mg0 2.114 1_655 S
O9 C12 1.252 . S
O10 Mg0 2.251 1_655 S
O10 Mg3 2.079 1_655 S
O10 C12 1.273 . S
C11 O7 1.246 . S
C11 O8 1.259 . S
C12 O9 1.252 . S
C12 O10 1.273 . S
O13 Mg0 2.010 . S
O13 C5 1.249 . S
Mg14 O15 2.028 1_545 S
Mg14 O21 1.986 1_545 S
Mg14 O23 2.114 . S
Mg14 O24 2.251 . S
Mg14 O27 2.010 1_545 S
O15 Mg14 2.028 1_565 S
O15 C18 1.250 . S
O16 Mg17 2.028 1_565 S
O16 C18 1.248 . S
Mg17 O16 2.028 1_545 S
Mg17 O22 2.032 1_545 S
Mg17 O24 2.079 . S
C18 O15 1.250 . S
C18 O16 1.248 . S
C19 O20 1.264 . S
C19 O27 1.249 . S
O20 C19 1.264 . S
O21 Mg14 1.986 1_565 S
O21 C25 1.246 . S
O22 Mg17 2.032 1_565 S
O22 C25 1.259 . S
O23 Mg14 2.114 . S
O23 C26 1.252 . S
O24 Mg14 2.251 . S
O24 Mg17 2.079 . S
O24 C26 1.273 . S
C25 O21 1.246 . S
C25 O22 1.259 . S
C26 O23 1.252 . S
C26 O24 1.273 . S
O27 Mg14 2.010 1_565 S
O27 C19 1.249 . S
Mg28 O29 2.028 . S
Mg28 O35 1.986 . S
Mg28 O37 2.114 1_655 S
Mg28 O38 2.251 1_655 S
Mg28 O41 2.010 . S
O29 Mg28 2.028 . S
O29 C32 1.250 . S
O30 Mg31 2.028 . S
O30 C32 1.248 . S
Mg31 O30 2.028 . S
Mg31 O36 2.032 . S
Mg31 O38 2.079 1_655 S
C32 O29 1.250 . S
C32 O30 1.248 . S
C33 O34 1.264 . S
C33 O41 1.249 . S
O34 C33 1.264 . S
O35 Mg28 1.986 . S
O35 C39 1.246 . S
O36 Mg31 2.032 . S
O36 C39 1.259 . S
O37 Mg28 2.114 1_455 S
O37 C40 1.252 . S
O38 Mg28 2.251 1_455 S
O38 Mg31 2.079 1_455 S
O38 C40 1.273 . S
C39 O35 1.246 . S
C39 O36 1.259 . S
C40 O37 1.252 . S
C40 O38 1.273 . S
O41 Mg28 2.010 . S
O41 C33 1.249 . S
Mg42 O43 2.028 1_565 S
Mg42 O49 1.986 1_565 S
Mg42 O51 2.114 . S
Mg42 O52 2.251 . S
Mg42 O55 2.010 1_565 S
O43 Mg42 2.028 1_545 S
O43 C46 1.250 . S
O44 Mg45 2.028 1_545 S
O44 C46 1.248 . S
Mg45 O44 2.028 1_565 S
Mg45 O50 2.032 1_565 S
Mg45 O52 2.079 . S
C46 O43 1.250 . S
C46 O44 1.248 . S
C47 O48 1.264 . S
C47 O55 1.249 . S
O48 C47 1.264 . S
O49 Mg42 1.986 1_545 S
O49 C53 1.246 . S
O50 Mg45 2.032 1_545 S
O50 C53 1.259 . S
O51 Mg42 2.114 . S
O51 C54 1.252 . S
O52 Mg42 2.251 . S
O52 Mg45 2.079 . S
O52 C54 1.273 . S
C53 O49 1.246 . S
C53 O50 1.259 . S
C54 O51 1.252 . S
C54 O52 1.273 . S
O55 Mg42 2.010 1_545 S
O55 C47 1.249 . S
Mg56 O57 2.028 . S
Mg56 O63 1.986 . S
Mg56 O65 2.114 1_655 S
Mg56 O66 2.251 1_655 S
Mg56 O69 2.010 . S
O57 Mg56 2.028 . S
O57 C60 1.250 . S
O58 Mg59 2.028 . S
O58 C60 1.248 . S
Mg59 O58 2.028 . S
Mg59 O64 2.032 . S
Mg59 O66 2.079 1_655 S
C60 O57 1.250 . S
C60 O58 1.248 . S
C61 O62 1.264 . S
C61 O69 1.249 . S
O62 C61 1.264 . S
O63 Mg56 1.986 . S
O63 C67 1.246 . S
O64 Mg59 2.032 . S
O64 C67 1.259 . S
O65 Mg56 2.114 1_455 S
O65 C68 1.252 . S
O66 Mg56 2.251 1_455 S
O66 Mg59 2.079 1_455 S
O66 C68 1.273 . S
C67 O63 1.246 . S
C67 O64 1.259 . S
C68 O65 1.252 . S
C68 O66 1.273 . S
O69 Mg56 2.010 . S
O69 C61 1.249 . S
Mg70 O71 2.028 1_545 S
Mg70 O77 1.986 . S
Mg70 O79 2.114 . S
Mg70 O80 2.251 . S
Mg70 O83 2.010 . S
O71 Mg70 2.028 1_565 S
O71 C74 1.250 . S
O72 Mg73 2.028 1_565 S
O72 C74 1.248 . S
Mg73 O72 2.028 1_545 S
Mg73 O78 2.032 . S
Mg73 O80 2.079 . S
C74 O71 1.250 . S
C74 O72 1.248 . S
C75 O76 1.264 . S
C75 O83 1.249 . S
O76 C75 1.264 . S
O77 Mg70 1.986 . S
O77 C81 1.246 . S
O78 Mg73 2.032 . S
O78 C81 1.259 . S
O79 Mg70 2.114 . S
O79 C82 1.252 . S
O80 Mg70 2.251 . S
O80 Mg73 2.079 . S
O80 C82 1.273 . S
C81 O77 1.246 . S
C81 O78 1.259 . S
C82 O79 1.252 . S
C82 O80 1.273 . S
O83 Mg70 2.010 . S
O83 C75 1.249 . S
Mg84 O85 2.028 . S
Mg84 O91 1.986 . S
Mg84 O93 2.114 1_455 S
Mg84 O94 2.251 1_455 S
Mg84 O97 2.010 . S
O85 Mg84 2.028 . S
O85 C88 1.250 . S
O86 Mg87 2.028 . S
O86 C88 1.248 . S
Mg87 O86 2.028 . S
Mg87 O92 2.032 . S
Mg87 O94 2.079 1_455 S
C88 O85 1.250 . S
C88 O86 1.248 . S
C89 O90 1.264 . S
C89 O97 1.249 . S
O90 C89 1.264 . S
O91 Mg84 1.986 . S
O91 C95 1.246 . S
O92 Mg87 2.032 . S
O92 C95 1.259 . S
O93 Mg84 2.114 1_655 S
O93 C96 1.252 . S
O94 Mg84 2.251 1_655 S
O94 Mg87 2.079 1_655 S
O94 C96 1.273 . S
C95 O91 1.246 . S
C95 O92 1.259 . S
C96 O93 1.252 . S
C96 O94 1.273 . S
O97 Mg84 2.010 . S
O97 C89 1.249 . S
Mg98 O99 2.028 1_565 S
Mg98 O105 1.986 . S
Mg98 O107 2.114 . S
Mg98 O108 2.251 . S
Mg98 O111 2.010 . S
O99 Mg98 2.028 1_545 S
O99 C102 1.250 . S
O100 Mg101 2.028 1_545 S
O100 C102 1.248 . S
Mg101 O100 2.028 1_565 S
Mg101 O106 2.032 . S
Mg101 O108 2.079 . S
C102 O99 1.250 . S
C102 O100 1.248 . S
C103 O104 1.264 . S
C103 O111 1.249 . S
O104 C103 1.264 . S
O105 Mg98 1.986 . S
O105 C109 1.246 . S
O106 Mg101 2.032 . S
O106 C109 1.259 . S
O107 Mg98 2.114 . S
O107 C110 1.252 . S
O108 Mg98 2.251 . S
O108 Mg101 2.079 . S
O108 C110 1.273 . S
C109 O105 1.246 . S
C109 O106 1.259 . S
C110 O107 1.252 . S
C110 O108 1.273 . S
O111 Mg98 2.010 . S
O111 C103 1.249 . S
C112 C113 1.391 . S
C112 C114 1.394 . S
C112 H128 0.931 . S
C113 C112 1.391 . S
C113 C117 1.376 1_655 S
C114 C112 1.394 . S
C114 C115 1.369 . S
C114 C118 1.531 . S
C115 C114 1.369 . S
C115 C116 1.410 1_655 S
C115 C123 1.503 1_655 S
C116 C115 1.410 1_455 S
C116 C117 1.392 . S
C116 C119 1.511 . S
C117 C113 1.376 1_455 S
C117 C116 1.392 . S
C117 H129 0.929 . S
C118 C114 1.531 . S
C118 H130 0.960 . S
C118 H131 0.962 . S
C118 H132 0.960 . S
C119 C116 1.511 . S
C119 H133 0.961 . S
C119 H134 0.961 . S
C119 H135 0.961 . S
C120 C121 1.370 . S
C120 C122 1.363 1_455 S
C120 H136 0.929 1_455 S
C121 C120 1.370 . S
C121 C125 1.408 . S
C122 C120 1.363 1_655 S
C122 C123 1.370 1_655 S
C122 C126 1.524 . S
C123 C115 1.503 1_455 S
C123 C122 1.370 1_455 S
C123 C124 1.403 . S
C124 C123 1.403 . S
C124 C125 1.404 . S
C124 C127 1.539 . S
C125 C121 1.408 . S
C125 C124 1.404 . S
C125 H137 0.930 . S
C126 C122 1.524 . S
C126 H138 0.956 . S
C126 H139 0.961 . S
C126 H140 0.961 . S
C127 C124 1.539 . S
C127 H141 0.958 . S
C127 H142 0.961 . S
C127 H143 0.960 . S
H128 C112 0.931 . S
H129 C117 0.929 . S
H130 C118 0.960 . S
H131 C118 0.962 . S
H132 C118 0.960 . S
H133 C119 0.961 . S
H134 C119 0.961 . S
H135 C119 0.961 . S
H136 C120 0.929 1_655 S
H137 C125 0.930 . S
H138 C126 0.956 . S
H139 C126 0.961 . S
H140 C126 0.961 . S
H141 C127 0.958 . S
H142 C127 0.961 . S
H143 C127 0.960 . S
C144 C145 1.391 . S
C144 C146 1.394 . S
C144 H160 0.931 1_545 S
C145 C144 1.391 . S
C145 C149 1.376 . S
C146 C144 1.394 . S
C146 C147 1.369 . S
C146 C150 1.531 1_545 S
C147 C146 1.369 . S
C147 C148 1.410 . S
C147 C155 1.503 . S
C148 C147 1.410 . S
C148 C149 1.392 . S
C148 C151 1.511 . S
C149 C145 1.376 . S
C149 C148 1.392 . S
C149 H161 0.929 . S
C150 C146 1.531 1_565 S
C150 H162 0.960 1_565 S
C150 H163 0.962 . S
C150 H164 0.960 . S
C151 C148 1.511 . S
C151 H165 0.961 . S
C151 H166 0.961 . S
C151 H167 0.961 . S
C152 C153 1.370 . S
C152 C154 1.363 . S
C152 H168 0.931 . S
C153 C152 1.370 . S
C153 C157 1.408 1_565 S
C154 C152 1.363 . S
C154 C155 1.370 1_565 S
C154 C158 1.524 . S
C155 C147 1.503 . S
C155 C154 1.370 1_545 S
C155 C156 1.403 . S
C156 C155 1.403 . S
C156 C157 1.404 . S
C156 C159 1.539 . S
C157 C153 1.408 1_545 S
C157 C156 1.404 . S
C157 H169 0.930 . S
C158 C154 1.524 . S
C158 H170 0.956 . S
C158 H171 0.961 . S
C158 H172 0.961 . S
C159 C156 1.539 . S
C159 H173 0.958 . S
C159 H174 0.961 . S
C159 H175 0.960 . S
H160 C144 0.931 1_565 S
H161 C149 0.929 . S
H162 C150 0.960 1_545 S
H163 C150 0.962 . S
H164 C150 0.960 . S
H165 C151 0.961 . S
H166 C151 0.961 . S
H167 C151 0.961 . S
H168 C152 0.931 . S
H169 C157 0.930 . S
H170 C158 0.956 . S
H171 C158 0.961 . S
H172 C158 0.961 . S
H173 C159 0.958 . S
H174 C159 0.961 . S
H175 C159 0.960 . S
C176 C177 1.391 1_455 S
C176 C178 1.394 . S
C176 H192 0.931 . S
C177 C176 1.391 1_655 S
C177 C181 1.376 . S
C178 C176 1.394 . S
C178 C179 1.369 1_455 S
C178 C182 1.531 . S
C179 C178 1.369 1_655 S
C179 C180 1.410 . S
C179 C187 1.503 1_655 S
C180 C179 1.410 . S
C180 C181 1.392 . S
C180 C183 1.511 . S
C181 C177 1.376 . S
C181 C180 1.392 . S
C181 H193 0.929 . S
C182 C178 1.531 . S
C182 H194 0.960 . S
C182 H195 0.962 . S
C182 H196 0.960 . S
C183 C180 1.511 . S
C183 H197 0.961 . S
C183 H198 0.961 . S
C183 H199 0.961 . S
C184 C185 1.370 . S
C184 C186 1.363 . S
C184 H200 0.931 . S
C185 C184 1.370 . S
C185 C189 1.408 . S
C186 C184 1.363 . S
C186 C187 1.370 . S
C186 C190 1.524 . S
C187 C179 1.503 1_455 S
C187 C186 1.370 . S
C187 C188 1.403 1_455 S
C188 C187 1.403 1_655 S
C188 C189 1.404 1_655 S
C188 C191 1.539 . S
C189 C185 1.408 . S
C189 C188 1.404 1_455 S
C189 H201 0.930 . S
C190 C186 1.524 . S
C190 H202 0.956 . S
C190 H203 0.961 . S
C190 H204 0.961 . S
C191 C188 1.539 . S
C191 H205 0.958 . S
C191 H206 0.961 . S
C191 H207 0.960 . S
H192 C176 0.931 . S
H193 C181 0.929 . S
H194 C182 0.960 . S
H195 C182 0.962 . S
H196 C182 0.960 . S
H197 C183 0.961 . S
H198 C183 0.961 . S
H199 C183 0.961 . S
H200 C184 0.931 . S
H201 C189 0.930 . S
H202 C190 0.956 . S
H203 C190 0.961 . S
H204 C190 0.961 . S
H205 C191 0.958 . S
H206 C191 0.961 . S
H207 C191 0.960 . S
C208 C209 1.391 1_565 S
C208 C210 1.394 . S
C208 H224 0.931 . S
C209 C208 1.391 1_545 S
C209 C213 1.376 . S
C210 C208 1.394 . S
C210 C211 1.369 1_565 S
C210 C214 1.531 . S
C211 C210 1.369 1_545 S
C211 C212 1.410 . S
C211 C219 1.503 1_545 S
C212 C211 1.410 . S
C212 C213 1.392 . S
C212 C215 1.511 . S
C213 C209 1.376 . S
C213 C212 1.392 . S
C213 H225 0.929 . S
C214 C210 1.531 . S
C214 H226 0.960 . S
C214 H227 0.962 . S
C214 H228 0.960 . S
C215 C212 1.511 . S
C215 H229 0.961 . S
C215 H230 0.961 . S
C215 H231 0.961 . S
C216 C217 1.370 . S
C216 C218 1.363 . S
C216 H232 0.931 . S
C217 C216 1.370 . S
C217 C221 1.408 . S
C218 C216 1.363 . S
C218 C219 1.370 . S
C218 C222 1.524 1_565 S
C219 C211 1.503 1_565 S
C219 C218 1.370 . S
C219 C220 1.403 . S
C220 C219 1.403 . S
C220 C221 1.404 . S
C220 C223 1.539 . S
C221 C217 1.408 . S
C221 C220 1.404 . S
C221 H233 0.930 . S
C222 C218 1.524 1_545 S
C222 H234 0.956 1_545 S
C222 H235 0.961 . S
C222 H236 0.961 . S
C223 C220 1.539 . S
C223 H237 0.958 . S
C223 H238 0.961 . S
C223 H239 0.960 . S
H224 C208 0.931 . S
H225 C213 0.929 . S
H226 C214 0.960 . S
H227 C214 0.962 . S
H228 C214 0.960 . S
H229 C215 0.961 . S
H230 C215 0.961 . S
H231 C215 0.961 . S
H232 C216 0.931 . S
H233 C221 0.930 . S
H234 C222 0.956 1_565 S
H235 C222 0.961 . S
H236 C222 0.961 . S
H237 C223 0.958 . S
H238 C223 0.961 . S
H239 C223 0.960 . S
C240 C241 1.391 . S
C240 C242 1.394 . S
C240 H256 0.931 . S
C241 C240 1.391 . S
C241 C245 1.376 . S
C242 C240 1.394 . S
C242 C243 1.369 . S
C242 C246 1.531 . S
C243 C242 1.369 . S
C243 C244 1.410 . S
C243 C251 1.503 . S
C244 C243 1.410 . S
C244 C245 1.392 . S
C244 C247 1.511 . S
C245 C241 1.376 . S
C245 C244 1.392 . S
C245 H257 0.929 . S
C246 C242 1.531 . S
C246 H258 0.960 . S
C246 H259 0.962 . S
C246 H260 0.960 . S
C247 C244 1.511 . S
C247 H261 0.961 . S
C247 H262 0.961 . S
C247 H263 0.961 . S
C248 C249 1.370 . S
C248 C250 1.363 . S
C248 H264 0.931 . S
C249 C248 1.370 . S
C249 C253 1.408 . S
C250 C248 1.363 . S
C250 C251 1.370 . S
C250 C254 1.524 . S
C251 C243 1.503 . S
C251 C250 1.370 . S
C251 C252 1.403 . S
C252 C251 1.403 . S
C252 C253 1.404 . S
C252 C255 1.539 . S
C253 C249 1.408 . S
C253 C252 1.404 . S
C253 H265 0.930 . S
C254 C250 1.524 . S
C254 H266 0.956 . S
C254 H267 0.961 . S
C254 H268 0.961 . S
C255 C252 1.539 . S
C255 H269 0.958 . S
C255 H270 0.961 . S
C255 H271 0.960 . S
H256 C240 0.931 . S
H257 C245 0.929 . S
H258 C246 0.960 . S
H259 C246 0.962 . S
H260 C246 0.960 . S
H261 C247 0.961 . S
H262 C247 0.961 . S
H263 C247 0.961 . S
H264 C248 0.931 . S
H265 C253 0.930 . S
H266 C254 0.956 . S
H267 C254 0.961 . S
H268 C254 0.961 . S
H269 C255 0.958 . S
H270 C255 0.961 . S
H271 C255 0.960 . S
C272 C273 1.391 . S
C272 C274 1.394 . S
C272 H288 0.931 . S
C273 C272 1.391 . S
C273 C277 1.376 . S
C274 C272 1.394 . S
C274 C275 1.369 . S
C274 C278 1.531 . S
C275 C274 1.369 . S
C275 C276 1.410 . S
C275 C283 1.503 . S
C276 C275 1.410 . S
C276 C277 1.392 . S
C276 C279 1.511 . S
C277 C273 1.376 . S
C277 C276 1.392 . S
C277 H289 0.929 . S
C278 C274 1.531 . S
C278 H290 0.960 . S
C278 H291 0.962 . S
C278 H292 0.960 . S
C279 C276 1.511 . S
C279 H293 0.961 . S
C279 H294 0.961 . S
C279 H295 0.961 . S
C280 C281 1.370 . S
C280 C282 1.363 . S
C280 H296 0.931 . S
C281 C280 1.370 . S
C281 C285 1.408 . S
C282 C280 1.363 . S
C282 C283 1.370 . S
C282 C286 1.524 . S
C283 C275 1.503 . S
C283 C282 1.370 . S
C283 C284 1.403 . S
C284 C283 1.403 . S
C284 C285 1.404 . S
C284 C287 1.539 . S
C285 C281 1.408 . S
C285 C284 1.404 . S
C285 H297 0.930 . S
C286 C282 1.524 . S
C286 H298 0.956 . S
C286 H299 0.961 . S
C286 H300 0.961 . S
C287 C284 1.539 . S
C287 H301 0.958 . S
C287 H302 0.961 . S
C287 H303 0.960 . S
H288 C272 0.931 . S
H289 C277 0.929 . S
H290 C278 0.960 . S
H291 C278 0.962 . S
H292 C278 0.960 . S
H293 C279 0.961 . S
H294 C279 0.961 . S
H295 C279 0.961 . S
H296 C280 0.931 . S
H297 C285 0.930 . S
H298 C286 0.956 . S
H299 C286 0.961 . S
H300 C286 0.961 . S
H301 C287 0.958 . S
H302 C287 0.961 . S
H303 C287 0.960 . S
C304 C305 1.391 . S
C304 C306 1.394 . S
C304 H320 0.931 . S
C305 C304 1.391 . S
C305 C309 1.376 . S
C306 C304 1.394 . S
C306 C307 1.369 . S
C306 C310 1.531 . S
C307 C306 1.369 . S
C307 C308 1.410 . S
C307 C315 1.503 . S
C308 C307 1.410 . S
C308 C309 1.392 . S
C308 C311 1.511 . S
C309 C305 1.376 . S
C309 C308 1.392 . S
C309 H321 0.929 . S
C310 C306 1.531 . S
C310 H322 0.960 . S
C310 H323 0.962 . S
C310 H324 0.960 . S
C311 C308 1.511 . S
C311 H325 0.961 . S
C311 H326 0.961 . S
C311 H327 0.961 . S
C312 C313 1.370 . S
C312 C314 1.363 . S
C312 H328 0.931 . S
C313 C312 1.370 . S
C313 C317 1.408 . S
C314 C312 1.363 . S
C314 C315 1.370 . S
C314 C318 1.524 . S
C315 C307 1.503 . S
C315 C314 1.370 . S
C315 C316 1.403 . S
C316 C315 1.403 . S
C316 C317 1.404 . S
C316 C319 1.539 . S
C317 C313 1.408 . S
C317 C316 1.404 . S
C317 H329 0.930 . S
C318 C314 1.524 . S
C318 H330 0.956 . S
C318 H331 0.961 . S
C318 H332 0.961 . S
C319 C316 1.539 . S
C319 H333 0.958 . S
C319 H334 0.961 . S
C319 H335 0.960 . S
H320 C304 0.931 . S
H321 C309 0.929 . S
H322 C310 0.960 . S
H323 C310 0.962 . S
H324 C310 0.960 . S
H325 C311 0.961 . S
H326 C311 0.961 . S
H327 C311 0.961 . S
H328 C312 0.931 . S
H329 C317 0.930 . S
H330 C318 0.956 . S
H331 C318 0.961 . S
H332 C318 0.961 . S
H333 C319 0.958 . S
H334 C319 0.961 . S
H335 C319 0.960 . S
C336 C337 1.391 . S
C336 C338 1.394 . S
C336 H352 0.931 . S
C337 C336 1.391 . S
C337 C341 1.376 . S
C338 C336 1.394 . S
C338 C339 1.369 . S
C338 C342 1.531 . S
C339 C338 1.369 . S
C339 C340 1.410 . S
C339 C347 1.503 . S
C340 C339 1.410 . S
C340 C341 1.392 . S
C340 C343 1.511 . S
C341 C337 1.376 . S
C341 C340 1.392 . S
C341 H353 0.929 . S
C342 C338 1.531 . S
C342 H354 0.960 . S
C342 H355 0.962 . S
C342 H356 0.960 . S
C343 C340 1.511 . S
C343 H357 0.961 . S
C343 H358 0.961 . S
C343 H359 0.961 . S
C344 C345 1.370 . S
C344 C346 1.363 . S
C344 H360 0.931 . S
C345 C344 1.370 . S
C345 C349 1.408 . S
C346 C344 1.363 . S
C346 C347 1.370 . S
C346 C350 1.524 . S
C347 C339 1.503 . S
C347 C346 1.370 . S
C347 C348 1.403 . S
C348 C347 1.403 . S
C348 C349 1.404 . S
C348 C351 1.539 . S
C349 C345 1.408 . S
C349 C348 1.404 . S
C349 H361 0.930 . S
C350 C346 1.524 . S
C350 H362 0.956 . S
C350 H363 0.961 . S
C350 H364 0.961 . S
C351 C348 1.539 . S
C351 H365 0.958 . S
C351 H366 0.961 . S
C351 H367 0.960 . S
H352 C336 0.931 . S
H353 C341 0.929 . S
H354 C342 0.960 . S
H355 C342 0.962 . S
H356 C342 0.960 . S
H357 C343 0.961 . S
H358 C343 0.961 . S
H359 C343 0.961 . S
H360 C344 0.931 . S
H361 C349 0.930 . S
H362 C350 0.956 . S
H363 C350 0.961 . S
H364 C350 0.961 . S
H365 C351 0.958 . S
H366 C351 0.961 . S
H367 C351 0.960 . S
C368 C369 1.391 . S
C368 C370 1.394 . S
C368 H384 0.931 . S
C369 C368 1.391 . S
C369 C373 1.376 . S
C370 C368 1.394 . S
C370 C371 1.369 . S
C370 C374 1.531 . S
C371 C370 1.369 . S
C371 C372 1.410 . S
C371 C379 1.520 . S
C372 C371 1.410 . S
C372 C373 1.392 . S
C372 C375 1.499 1_556 S
C373 C369 1.376 . S
C373 C372 1.392 . S
C373 H385 0.929 . S
C374 C370 1.531 . S
C374 H386 0.960 . S
C374 H387 0.962 . S
C374 H388 0.960 . S
C375 C372 1.499 1_554 S
C375 H389 0.964 . S
C375 H390 0.975 . S
C375 H391 0.955 1_554 S
C376 C377 1.370 . S
C376 C378 1.363 . S
C376 H392 0.931 . S
C377 C376 1.370 . S
C377 C381 1.408 . S
C378 C376 1.363 . S
C378 C379 1.352 1_554 S
C378 C382 1.524 . S
C379 C371 1.520 . S
C379 C378 1.352 1_556 S
C379 C380 1.405 . S
C380 C379 1.405 . S
C380 C381 1.404 1_556 S
C380 C383 1.539 . S
C381 C377 1.408 . S
C381 C380 1.404 1_554 S
C381 H393 0.930 . S
C382 C378 1.524 . S
C382 H394 0.956 . S
C382 H395 0.961 . S
C382 H396 0.961 . S
C383 C380 1.539 . S
C383 H397 0.958 . S
C383 H398 0.961 . S
C383 H399 0.960 . S
H384 C368 0.931 . S
H385 C373 0.929 . S
H386 C374 0.960 . S
H387 C374 0.962 . S
H388 C374 0.960 . S
H389 C375 0.964 . S
H390 C375 0.975 . S
H391 C375 0.955 1_556 S
H392 C376 0.931 . S
H393 C381 0.930 . S
H394 C382 0.956 . S
H395 C382 0.961 . S
H396 C382 0.961 . S
H397 C383 0.958 . S
H398 C383 0.961 . S
H399 C383 0.960 . S
C400 C401 1.391 . S
C400 C402 1.394 . S
C400 H416 0.931 . S
C401 C400 1.391 . S
C401 C405 1.376 . S
C402 C400 1.394 . S
C402 C403 1.369 . S
C402 C406 1.531 . S
C403 C402 1.369 . S
C403 C404 1.410 1_556 S
C403 C411 1.503 1_556 S
C404 C403 1.410 1_554 S
C404 C405 1.392 1_554 S
C404 C407 1.511 . S
C405 C401 1.376 . S
C405 C404 1.392 1_556 S
C405 H417 0.929 . S
C406 C402 1.531 . S
C406 H418 0.960 . S
C406 H419 0.962 . S
C406 H420 0.960 . S
C407 C404 1.511 . S
C407 H421 0.961 . S
C407 H422 0.961 . S
C407 H423 0.961 . S
C408 C409 1.370 . S
C408 C410 1.363 . S
C408 H424 0.931 . S
C409 C408 1.370 . S
C409 C413 1.408 . S
C410 C408 1.363 . S
C410 C411 1.370 . S
C410 C414 1.524 . S
C411 C403 1.503 1_554 S
C411 C410 1.370 . S
C411 C412 1.403 . S
C412 C411 1.403 . S
C412 C413 1.404 . S
C412 C415 1.539 1_554 S
C413 C409 1.408 . S
C413 C412 1.404 . S
C413 H425 0.930 . S
C414 C410 1.524 . S
C414 H426 0.956 . S
C414 H427 0.961 . S
C414 H428 0.961 . S
C415 C412 1.539 1_556 S
C415 H429 0.958 . S
C415 H430 0.961 1_556 S
C415 H431 0.960 . S
H416 C400 0.931 . S
H417 C405 0.929 . S
H418 C406 0.960 . S
H419 C406 0.962 . S
H420 C406 0.960 . S
H421 C407 0.961 . S
H422 C407 0.961 . S
H423 C407 0.961 . S
H424 C408 0.931 . S
H425 C413 0.930 . S
H426 C414 0.956 . S
H427 C414 0.961 . S
H428 C414 0.961 . S
H429 C415 0.958 . S
H430 C415 0.961 1_554 S
H431 C415 0.960 . S
C432 C433 1.391 . S
C432 C434 1.394 1_554 S
C432 H448 0.931 . S
C433 C432 1.391 . S
C433 C437 1.376 . S
C434 C432 1.394 1_556 S
C434 C435 1.369 . S
C434 C438 1.531 . S
C435 C434 1.369 . S
C435 C436 1.410 1_556 S
C435 C443 1.503 . S
C436 C435 1.410 1_554 S
C436 C437 1.392 . S
C436 C439 1.511 . S
C437 C433 1.376 . S
C437 C436 1.392 . S
C437 H449 0.929 . S
C438 C434 1.531 . S
C438 H450 0.960 . S
C438 H451 0.962 . S
C438 H452 0.960 . S
C439 C436 1.511 . S
C439 H453 0.961 . S
C439 H454 0.961 . S
C439 H455 0.961 . S
C440 C441 1.370 . S
C440 C442 1.363 . S
C440 H456 0.931 . S
C441 C440 1.370 . S
C441 C445 1.408 . S
C442 C440 1.363 . S
C442 C443 1.370 . S
C442 C446 1.524 1_556 S
C443 C435 1.503 . S
C443 C442 1.370 . S
C443 C444 1.403 . S
C444 C443 1.403 . S
C444 C445 1.404 . S
C444 C447 1.539 . S
C445 C441 1.408 . S
C445 C444 1.404 . S
C445 H457 0.930 . S
C446 C442 1.524 1_554 S
C446 H458 0.956 . S
C446 H459 0.961 . S
C446 H460 0.961 . S
C447 C444 1.539 . S
C447 H461 0.958 . S
C447 H462 0.961 . S
C447 H463 0.960 . S
H448 C432 0.931 . S
H449 C437 0.929 . S
H450 C438 0.960 . S
H451 C438 0.962 . S
H452 C438 0.960 . S
H453 C439 0.961 . S
H454 C439 0.961 . S
H455 C439 0.961 . S
H456 C440 0.931 . S
H457 C445 0.930 . S
H458 C446 0.956 . S
H459 C446 0.961 . S
H460 C446 0.961 . S
H461 C447 0.958 . S
H462 C447 0.961 . S
H463 C447 0.960 . S
C464 C465 1.391 . S
C464 C466 1.394 . S
C464 H480 0.931 . S
C465 C464 1.391 . S
C465 C469 1.376 . S
C466 C464 1.394 . S
C466 C467 1.369 1_556 S
C466 C470 1.531 . S
C467 C466 1.369 1_554 S
C467 C468 1.410 . S
C467 C475 1.503 . S
C468 C467 1.410 . S
C468 C469 1.392 1_554 S
C468 C471 1.511 . S
C469 C465 1.376 . S
C469 C468 1.392 1_556 S
C469 H481 0.929 . S
C470 C466 1.531 . S
C470 H482 0.960 1_556 S
C470 H483 0.962 . S
C470 H484 0.960 . S
C471 C468 1.511 . S
C471 H485 0.961 . S
C471 H486 0.961 . S
C471 H487 0.961 . S
C472 C473 1.370 . S
C472 C474 1.363 . S
C472 H488 0.931 . S
C473 C472 1.370 . S
C473 C477 1.408 . S
C474 C472 1.363 . S
C474 C475 1.370 . S
C474 C478 1.524 1_554 S
C475 C467 1.503 . S
C475 C474 1.370 . S
C475 C476 1.403 . S
C476 C475 1.403 . S
C476 C477 1.404 . S
C476 C479 1.539 . S
C477 C473 1.408 . S
C477 C476 1.404 . S
C477 H489 0.930 . S
C478 C474 1.524 1_556 S
C478 H490 0.956 . S
C478 H491 0.961 . S
C478 H492 0.961 . S
C479 C476 1.539 . S
C479 H493 0.958 . S
C479 H494 0.961 . S
C479 H495 0.960 . S
H480 C464 0.931 . S
H481 C469 0.929 . S
H482 C470 0.960 1_554 S
H483 C470 0.962 . S
H484 C470 0.960 . S
H485 C471 0.961 . S
H486 C471 0.961 . S
H487 C471 0.961 . S
H488 C472 0.931 . S
H489 C477 0.930 . S
H490 C478 0.956 . S
H491 C478 0.961 . S
H492 C478 0.961 . S
H493 C479 0.958 . S
H494 C479 0.961 . S
H495 C479 0.960 . S
C496 C497 1.391 . S
C496 C498 1.394 . S
C496 H512 0.931 . S
C497 C496 1.391 . S
C497 C501 1.376 . S
C498 C496 1.394 . S
C498 C499 1.369 . S
C498 C502 1.531 . S
C499 C498 1.369 . S
C499 C500 1.410 . S
C499 C507 1.503 . S
C500 C499 1.410 . S
C500 C501 1.392 . S
C500 C503 1.511 . S
C501 C497 1.376 . S
C501 C500 1.392 . S
C501 H513 0.929 . S
C502 C498 1.531 . S
C502 H514 0.960 . S
C502 H515 0.962 . S
C502 H516 0.960 . S
C503 C500 1.511 . S
C503 H517 0.961 . S
C503 H518 0.961 . S
C503 H519 0.961 . S
C504 C505 1.370 . S
C504 C506 1.363 . S
C504 H520 0.931 . S
C505 C504 1.370 . S
C505 C509 1.408 . S
C506 C504 1.363 . S
C506 C507 1.370 . S
C506 C510 1.524 . S
C507 C499 1.503 . S
C507 C506 1.370 . S
C507 C508 1.403 . S
C508 C507 1.403 . S
C508 C509 1.404 . S
C508 C511 1.539 . S
C509 C505 1.408 . S
C509 C508 1.404 . S
C509 H521 0.930 . S
C510 C506 1.524 . S
C510 H522 0.956 . S
C510 H523 0.961 . S
C510 H524 0.961 . S
C511 C508 1.539 . S
C511 H525 0.958 . S
C511 H526 0.961 . S
C511 H527 0.960 . S
H512 C496 0.931 . S
H513 C501 0.929 . S
H514 C502 0.960 . S
H515 C502 0.962 . S
H516 C502 0.960 . S
H517 C503 0.961 . S
H518 C503 0.961 . S
H519 C503 0.961 . S
H520 C504 0.931 . S
H521 C509 0.930 . S
H522 C510 0.956 . S
H523 C510 0.961 . S
H524 C510 0.961 . S
H525 C511 0.958 . S
H526 C511 0.961 . S
H527 C511 0.960 . S
C528 C529 1.391 . S
C528 C530 1.394 . S
C528 H544 0.931 . S
C529 C528 1.391 . S
C529 C533 1.376 . S
C530 C528 1.394 . S
C530 C531 1.369 . S
C530 C534 1.531 . S
C531 C530 1.369 . S
C531 C532 1.410 . S
C531 C539 1.503 . S
C532 C531 1.410 . S
C532 C533 1.392 . S
C532 C535 1.511 . S
C533 C529 1.376 . S
C533 C532 1.392 . S
C533 H545 0.929 . S
C534 C530 1.531 . S
C534 H546 0.960 . S
C534 H547 0.962 . S
C534 H548 0.960 . S
C535 C532 1.511 . S
C535 H549 0.961 . S
C535 H550 0.961 . S
C535 H551 0.961 . S
C536 C537 1.370 . S
C536 C538 1.363 . S
C536 H552 0.931 . S
C537 C536 1.370 . S
C537 C541 1.408 . S
C538 C536 1.363 . S
C538 C539 1.370 . S
C538 C542 1.524 . S
C539 C531 1.503 . S
C539 C538 1.370 . S
C539 C540 1.403 . S
C540 C539 1.403 . S
C540 C541 1.404 . S
C540 C543 1.539 . S
C541 C537 1.408 . S
C541 C540 1.404 . S
C541 H553 0.930 . S
C542 C538 1.524 . S
C542 H554 0.956 . S
C542 H555 0.961 . S
C542 H556 0.961 . S
C543 C540 1.539 . S
C543 H557 0.958 . S
C543 H558 0.961 . S
C543 H559 0.960 . S
H544 C528 0.931 . S
H545 C533 0.929 . S
H546 C534 0.960 . S
H547 C534 0.962 . S
H548 C534 0.960 . S
H549 C535 0.961 . S
H550 C535 0.961 . S
H551 C535 0.961 . S
H552 C536 0.931 . S
H553 C541 0.930 . S
H554 C542 0.956 . S
H555 C542 0.961 . S
H556 C542 0.961 . S
H557 C543 0.958 . S
H558 C543 0.961 . S
H559 C543 0.960 . S
C560 C561 1.391 . S
C560 C562 1.394 . S
C560 H576 0.931 . S
C561 C560 1.391 . S
C561 C565 1.376 . S
C562 C560 1.394 . S
C562 C563 1.369 . S
C562 C566 1.531 . S
C563 C562 1.369 . S
C563 C564 1.410 . S
C563 C571 1.503 . S
C564 C563 1.410 . S
C564 C565 1.392 . S
C564 C567 1.511 . S
C565 C561 1.376 . S
C565 C564 1.392 . S
C565 H577 0.929 . S
C566 C562 1.531 . S
C566 H578 0.960 . S
C566 H579 0.962 . S
C566 H580 0.960 . S
C567 C564 1.511 . S
C567 H581 0.961 . S
C567 H582 0.961 . S
C567 H583 0.961 . S
C568 C569 1.370 . S
C568 C570 1.363 . S
C568 H584 0.931 . S
C569 C568 1.370 . S
C569 C573 1.408 . S
C570 C568 1.363 . S
C570 C571 1.370 . S
C570 C574 1.524 . S
C571 C563 1.503 . S
C571 C570 1.370 . S
C571 C572 1.403 . S
C572 C571 1.403 . S
C572 C573 1.404 . S
C572 C575 1.539 . S
C573 C569 1.408 . S
C573 C572 1.404 . S
C573 H585 0.930 . S
C574 C570 1.524 . S
C574 H586 0.956 . S
C574 H587 0.961 . S
C574 H588 0.961 . S
C575 C572 1.539 . S
C575 H589 0.958 . S
C575 H590 0.961 . S
C575 H591 0.960 . S
H576 C560 0.931 . S
H577 C565 0.929 . S
H578 C566 0.960 . S
H579 C566 0.962 . S
H580 C566 0.960 . S
H581 C567 0.961 . S
H582 C567 0.961 . S
H583 C567 0.961 . S
H584 C568 0.931 . S
H585 C573 0.930 . S
H586 C574 0.956 . S
H587 C574 0.961 . S
H588 C574 0.961 . S
H589 C575 0.958 . S
H590 C575 0.961 . S
H591 C575 0.960 . S
C592 C593 1.391 . S
C592 C594 1.394 . S
C592 H608 0.931 . S
C593 C592 1.391 . S
C593 C597 1.376 . S
C594 C592 1.394 . S
C594 C595 1.369 . S
C594 C598 1.531 . S
C595 C594 1.369 . S
C595 C596 1.410 . S
C595 C603 1.503 . S
C596 C595 1.410 . S
C596 C597 1.392 . S
C596 C599 1.511 . S
C597 C593 1.376 . S
C597 C596 1.392 . S
C597 H609 0.929 . S
C598 C594 1.531 . S
C598 H610 0.960 . S
C598 H611 0.962 . S
C598 H612 0.960 . S
C599 C596 1.511 . S
C599 H613 0.961 . S
C599 H614 0.961 . S
C599 H615 0.961 . S
C600 C601 1.370 . S
C600 C602 1.363 . S
C600 H616 0.931 . S
C601 C600 1.370 . S
C601 C605 1.408 . S
C602 C600 1.363 . S
C602 C603 1.370 . S
C602 C606 1.524 . S
C603 C595 1.503 . S
C603 C602 1.370 . S
C603 C604 1.403 . S
C604 C603 1.403 . S
C604 C605 1.404 . S
C604 C607 1.539 . S
C605 C601 1.408 . S
C605 C604 1.404 . S
C605 H617 0.930 . S
C606 C602 1.524 . S
C606 H618 0.956 . S
C606 H619 0.961 . S
C606 H620 0.961 . S
C607 C604 1.539 . S
C607 H621 0.958 . S
C607 H622 0.961 . S
C607 H623 0.960 . S
H608 C592 0.931 . S
H609 C597 0.929 . S
H610 C598 0.960 . S
H611 C598 0.962 . S
H612 C598 0.960 . S
H613 C599 0.961 . S
H614 C599 0.961 . S
H615 C599 0.961 . S
H616 C600 0.931 . S
H617 C605 0.930 . S
H618 C606 0.956 . S
H619 C606 0.961 . S
H620 C606 0.961 . S
H621 C607 0.958 . S
H622 C607 0.961 . S
H623 C607 0.960 . S
C113 C39 1.214 . S
C121 C11 1.239 . S
C145 C53 1.214 . S
C153 C25 1.206 . S
C177 C67 1.223 . S
C185 C95 1.224 . S
C209 C75 1.046 . S
C217 C103 1.045 . S
C241 C26 0.778 . S
C249 C4 0.835 . S
C273 C18 0.852 . S
C281 C40 0.897 . S
C305 C54 0.770 . S
C313 C32 0.821 . S
C337 C46 0.917 . S
C345 C12 0.892 . S
C369 C102 0.966 . S
C377 C60 0.916 . S
C401 C82 0.722 . S
C409 C68 0.747 . S
C433 C88 0.853 . S
C441 C74 0.898 . S
C465 C110 0.742 . S
C473 C96 0.771 . S
C497 C5 1.635 . S
C505 C81 1.683 . S
C529 C89 1.540 . S
C537 C19 1.548 . S
C561 C33 1.633 . S
C569 C109 1.679 . S
C593 C47 1.555 . S
C601 C61 1.517 . S
