# Generated by pormake.
# Topology vme, (6)-cn, num edge types: 1
# Building blocks:
#     Node 0, Type 0, BuildingBlock: IZENUY_clean_sbu_0, # of connection points: 6
#     Node 1, Type 0, BuildingBlock: IZENUY_clean_sbu_0, # of connection points: 6
#     Node 2, Type 0, BuildingBlock: IZENUY_clean_sbu_0, # of connection points: 6
#     Node 3, Type 0, BuildingBlock: IZENUY_clean_sbu_0, # of connection points: 6
#     Edge 4, Type (0, 0), BuildingBlock: XIVTED_clean_linker_0, # of connection points: 2
#     Edge 5, Type (0, 0), BuildingBlock: XIVTED_clean_linker_0, # of connection points: 2
#     Edge 6, Type (0, 0), BuildingBlock: XIVTED_clean_linker_0, # of connection points: 2
#     Edge 7, Type (0, 0), BuildingBlock: XIVTED_clean_linker_0, # of connection points: 2
#     Edge 8, Type (0, 0), BuildingBlock: XIVTED_clean_linker_0, # of connection points: 2
#     Edge 9, Type (0, 0), BuildingBlock: XIVTED_clean_linker_0, # of connection points: 2
#     Edge 10, Type (0, 0), BuildingBlock: XIVTED_clean_linker_0, # of connection points: 2
#     Edge 11, Type (0, 0), BuildingBlock: XIVTED_clean_linker_0, # of connection points: 2
#     Edge 12, Type (0, 0), BuildingBlock: XIVTED_clean_linker_0, # of connection points: 2
#     Edge 13, Type (0, 0), BuildingBlock: XIVTED_clean_linker_0, # of connection points: 2
#     Edge 14, Type (0, 0), BuildingBlock: XIVTED_clean_linker_0, # of connection points: 2
#     Edge 15, Type (0, 0), BuildingBlock: XIVTED_clean_linker_0, # of connection points: 2
# Relax obj value: 0.240
# Max RMSD: 0.243
# Mean RMSD: 0.243
data_MOF--net-vme--node1-IZENUY_clean_sbu_0--edge1-XIVTED_clean_linker_0
_symmetry_space_group_name_H-M    P1
_symmetry_Int_Tables_number       1
_symmetry_cell_setting            triclinic
loop_
_symmetry_equiv_pos_as_xyz
'x, y, z'
_cell_length_a     25.910706
_cell_length_b     25.70995
_cell_length_c     28.287792
_cell_angle_alpha  89.970739
_cell_angle_beta   116.29485
_cell_angle_gamma 90.048377
loop_
_atom_site_label
_atom_site_type_symbol
_atom_site_fract_x
_atom_site_fract_y
_atom_site_fract_z
_atom_type_partial_charge
Fe0 Fe 0.13267 0.38847 0.32862 0.0
Fe1 Fe 0.24437 0.32855 0.39303 0.0
O2 O 0.19703 0.38021 0.38681 0.0
Fe3 Fe 0.21355 0.42379 0.43959 0.0
O4 O 0.15069 0.40362 0.44603 0.0
O5 O 0.09151 0.41597 0.36279 0.0
O6 O 0.10663 0.32579 0.33582 0.0
C7 C 0.13218 0.28374 0.33771 0.0
C8 C 0.15981 0.489 0.3485 0.0
O9 O 0.18618 0.28263 0.35184 0.0
C10 C 0.318 0.41574 0.44033 0.0
O11 O 0.16211 0.36211 0.28458 0.0
O12 O 0.25407 0.35079 0.3371 0.0
O13 O 0.1755 0.48011 0.39719 0.0
O14 O 0.15545 0.45181 0.31816 0.0
C15 C 0.24558 0.32708 0.48979 0.0
O16 O 0.31063 0.36651 0.43508 0.0
O17 O 0.2771 0.44518 0.43524 0.0
C18 C 0.21345 0.35454 0.29135 0.0
O19 O 0.23623 0.3025 0.44846 0.0
O20 O 0.25355 0.37584 0.49187 0.0
C21 C 0.10066 0.41172 0.41074 0.0
Fe22 Fe 0.77651 0.82839 0.12358 0.0
Fe23 Fe 0.8075 0.92449 0.07824 0.0
O24 O 0.82385 0.88033 0.13055 0.0
Fe25 Fe 0.88798 0.88839 0.18899 0.0
O26 O 0.91421 0.82602 0.18146 0.0
O27 O 0.83467 0.78228 0.16439 0.0
O28 O 0.78483 0.80322 0.06794 0.0
C29 C 0.77525 0.82832 0.02684 0.0
C30 C 0.80685 0.8532 0.22545 0.0
O31 O 0.76747 0.87707 0.0254 0.0
C32 C 0.86081 0.98897 0.16986 0.0
O33 O 0.71032 0.86653 0.08185 0.0
O34 O 0.74395 0.94543 0.08271 0.0
O35 O 0.85826 0.86128 0.23262 0.0
O36 O 0.76649 0.84972 0.17956 0.0
C37 C 0.92041 0.91249 0.10728 0.0
O38 O 0.84555 0.98048 0.12119 0.0
O39 O 0.86502 0.95147 0.19985 0.0
C40 C 0.70301 0.91579 0.07724 0.0
O41 O 0.8704 0.90472 0.07179 0.0
O42 O 0.92938 0.91647 0.15521 0.0
C43 C 0.8888 0.78376 0.17918 0.0
Fe44 Fe 0.80773 0.58762 0.57607 0.0
Fe45 Fe 0.89225 0.62619 0.68461 0.0
O46 O 0.82504 0.63114 0.62893 0.0
Fe47 Fe 0.77588 0.68014 0.62532 0.0
O48 O 0.77833 0.70787 0.56788 0.0
O49 O 0.76315 0.63452 0.52452 0.0
O50 O 0.86717 0.61082 0.56554 0.0
C51 C 0.91857 0.60494 0.59882 0.0
C52 C 0.70557 0.59057 0.58055 0.0
O53 O 0.93104 0.60069 0.64752 0.0
C54 C 0.81498 0.65501 0.72785 0.0
O55 O 0.85034 0.53285 0.61816 0.0
O56 O 0.87536 0.56148 0.69839 0.0
O57 O 0.71094 0.63988 0.58585 0.0
O58 O 0.74716 0.56294 0.584 0.0
C59 C 0.88494 0.73088 0.67273 0.0
O60 O 0.8656 0.65104 0.73149 0.0
O61 O 0.77199 0.65569 0.68331 0.0
C62 C 0.86855 0.52425 0.66726 0.0
O63 O 0.91238 0.69037 0.67325 0.0
O64 O 0.83247 0.72834 0.66427 0.0
C65 C 0.76827 0.68364 0.52616 0.0
Fe66 Fe 0.24611 0.18059 0.89349 0.0
Fe67 Fe 0.21395 0.08758 0.9419 0.0
O68 O 0.1968 0.13149 0.88937 0.0
Fe69 Fe 0.12968 0.12676 0.83354 0.0
O70 O 0.10962 0.19082 0.84515 0.0
O71 O 0.1897 0.22896 0.8547 0.0
O72 O 0.24356 0.20783 0.95108 0.0
C73 C 0.25383 0.18318 0.99266 0.0
C74 C 0.20739 0.15611 0.79084 0.0
O75 O 0.25875 0.13406 0.9938 0.0
C76 C 0.15298 0.02474 0.85037 0.0
O77 O 0.3109 0.14015 0.93278 0.0
O78 O 0.27439 0.06307 0.93374 0.0
O79 O 0.15663 0.15198 0.7869 0.0
O80 O 0.25018 0.15658 0.8355 0.0
C81 C 0.10316 0.10502 0.91918 0.0
O82 O 0.17114 0.03309 0.89949 0.0
O83 O 0.14641 0.06214 0.81945 0.0
C84 C 0.31608 0.0908 0.93751 0.0
O85 O 0.15459 0.11062 0.95255 0.0
O86 O 0.09071 0.10103 0.87045 0.0
C87 C 0.13715 0.2314 0.84595 0.0
H88 H 0.91999 0.01078 0.27521 0.0
H89 H 0.04434 0.28259 0.24011 0.0
H90 H 0.87739 0.07608 0.12158 0.0
H91 H 0.13509 0.18468 0.37563 0.0
H92 H 0.97469 0.21278 0.19847 0.0
H93 H 0.98846 0.08133 0.31557 0.0
C94 C 0.92415 0.0404 0.24986 0.0
C95 C 0.89283 0.03719 0.19466 0.0
C96 C 1.01004 0.20632 0.23708 0.0
C97 C 0.97178 0.11795 0.24109 0.0
C98 C 0.04977 0.24598 0.2608 0.0
C99 C 0.09541 0.23899 0.31116 0.0
C100 C 0.01523 0.15966 0.26441 0.0
C101 C 0.10068 0.19116 0.33653 0.0
C102 C 0.96384 0.08032 0.27307 0.0
C103 C 0.9004 0.07689 0.16419 0.0
N104 N 0.06051 0.15331 0.31305 0.0
N105 N 0.93921 0.11559 0.18782 0.0
H106 H 0.14965 0.57801 0.39774 0.0
H107 H 0.87659 0.68208 0.14522 0.0
H108 H 0.09338 0.50864 0.24369 0.0
H109 H 0.98528 0.78393 0.27124 0.0
H110 H 0.94612 0.611 0.18686 0.0
H111 H 0.08154 0.64944 0.35696 0.0
C112 C 0.12381 0.57816 0.35538 0.0
C113 C 0.12748 0.53719 0.32424 0.0
C114 C 0.9544 0.64899 0.2053 0.0
C115 C 0.04826 0.61764 0.27777 0.0
C116 C 0.91463 0.68915 0.18186 0.0
C117 C 0.92564 0.73867 0.20478 0.0
C118 C 1.00444 0.6585 0.25236 0.0
C119 C 0.97565 0.74625 0.25214 0.0
C120 C 0.08468 0.61867 0.33222 0.0
C121 C 0.09232 0.53931 0.26944 0.0
N122 N 0.0131 0.70659 0.27448 0.0
N123 N 0.0537 0.57843 0.24809 0.0
H124 H 0.13382 0.98139 0.75592 0.0
H125 H 0.87779 0.80153 0.74197 0.0
H126 H 0.09803 0.95943 0.88973 0.0
H127 H 0.97156 0.76675 0.65236 0.0
H128 H 0.94721 0.8713 0.78747 0.0
H129 H 0.06604 0.91116 0.70983 0.0
C130 C 0.11247 0.96114 0.77592 0.0
C131 C 0.12181 0.97604 0.82681 0.0
C132 C 0.95212 0.84863 0.75746 0.0
C133 C 0.0427 0.89734 0.77362 0.0
C134 C 0.91214 0.80947 0.73102 0.0
C135 C 0.91895 0.77875 0.69324 0.0
C136 C 0.99837 0.85753 0.7452 0.0
C137 C 0.96487 0.78979 0.68121 0.0
C138 C 0.07358 0.9214 0.74951 0.0
C139 C 0.09255 0.94887 0.85074 0.0
N140 N 1.00277 0.82839 0.70698 0.0
N141 N 0.05361 0.91134 0.82362 0.0
H142 H 0.88667 0.4802 0.76112 0.0
H143 H 0.1445 0.30215 0.77679 0.0
H144 H 0.92421 0.45955 0.62819 0.0
H145 H 0.05022 0.26696 0.86591 0.0
H146 H 0.07481 0.37154 0.73082 0.0
H147 H 0.9546 0.41023 0.80742 0.0
C148 C 0.90842 0.46026 0.74133 0.0
C149 C 0.89955 0.47547 0.69064 0.0
C150 C 0.06985 0.34886 0.76083 0.0
C151 C 0.97885 0.39707 0.74412 0.0
C152 C 0.10999 0.30994 0.78755 0.0
C153 C 0.10312 0.27921 0.82533 0.0
C154 C 0.02336 0.35751 0.7728 0.0
C155 C 0.05698 0.29002 0.83708 0.0
C156 C 0.94741 0.42068 0.76788 0.0
C157 C 0.92933 0.44872 0.66701 0.0
N158 N 0.01891 0.32838 0.81103 0.0
N159 N 0.96836 0.41133 0.69428 0.0
H160 H 1.00288 0.53102 0.64081 0.0
H161 H 0.02703 0.49397 0.37005 0.0
H162 H 0.91926 0.63217 0.50643 0.0
H163 H 0.08846 0.38241 0.49711 0.0
H164 H 0.98766 0.54626 0.41886 0.0
H165 H 0.04252 0.48067 0.59111 0.0
C166 C 0.99441 0.54361 0.60149 0.0
C167 C 0.95751 0.58553 0.57752 0.0
C168 C 1.00889 0.50987 0.43564 0.0
C169 C 1.001 0.5274 0.51989 0.0
C170 C 0.03029 0.47953 0.40727 0.0
C171 C 0.06072 0.43375 0.42955 0.0
C172 C 0.01837 0.49425 0.48654 0.0
C173 C 0.06512 0.41749 0.47859 0.0
C174 C 0.01612 0.51433 0.57273 0.0
C175 C 0.94737 0.59985 0.52619 0.0
N176 N 0.04486 0.448 0.50572 0.0
N177 N 0.96844 0.5705 0.49885 0.0
H178 H 0.994 0.99486 0.14789 0.0
H179 H 0.0192 0.03069 0.87743 0.0
H180 H 0.9334 0.88259 0.02153 0.0
H181 H 0.10193 0.13274 0.01118 0.0
H182 H 0.97957 0.98043 0.92727 0.0
H183 H 0.03362 0.04695 0.09904 0.0
C184 C 0.99099 0.98024 0.11084 0.0
C185 C 0.9607 0.93432 0.08874 0.0
C186 C 1.00577 0.01427 0.94548 0.0
C187 C 1.00329 0.99458 0.03167 0.0
C188 C 0.02745 0.0435 0.91662 0.0
C189 C 0.06408 0.08567 0.94038 0.0
C190 C 0.02066 0.02762 0.99821 0.0
C191 C 0.07399 0.10024 0.99158 0.0
C192 C 0.01252 0.01045 0.08243 0.0
C193 C 0.95663 0.91779 0.03991 0.0
N194 N 0.05296 0.07094 0.01902 0.0
N195 N 0.97698 0.94819 0.01272 0.0
H196 H 0.30174 0.15314 0.09685 0.0
H197 H 0.14498 0.3682 0.18518 0.0
H198 H 0.20768 0.27822 0.99237 0.0
H199 H 0.30599 0.30041 0.29548 0.0
H200 H 0.15947 0.32965 0.11251 0.0
H201 H 0.29614 0.20007 0.17012 0.0
C202 C 0.28042 0.19057 0.08945 0.0
C203 C 0.25555 0.21197 0.03859 0.0
C204 C 0.19181 0.32384 0.1527 0.0
C205 C 0.24782 0.26498 0.12153 0.0
C206 C 0.1836 0.34582 0.19409 0.0
C207 C 0.2243 0.33766 0.24648 0.0
C208 C 0.24029 0.2925 0.16396 0.0
C209 C 0.27353 0.30804 0.25574 0.0
C210 C 0.2773 0.21731 0.13116 0.0
C211 C 0.22803 0.26052 0.03108 0.0
N212 N 0.27972 0.28593 0.21497 0.0
N213 N 0.22429 0.28509 0.07193 0.0
H214 H 0.7131 0.79989 0.21987 0.0
H215 H 0.81628 0.77824 0.5284 0.0
H216 H 0.87496 0.86485 0.33212 0.0
H217 H 0.7204 0.65547 0.42132 0.0
H218 H 0.82267 0.82397 0.45543 0.0
H219 H 0.69988 0.76108 0.29248 0.0
C220 C 0.74552 0.80679 0.25982 0.0
C221 C 0.79545 0.83571 0.26987 0.0
C222 C 0.79991 0.78723 0.44793 0.0
C223 C 0.78005 0.79128 0.35303 0.0
C224 C 0.79577 0.76122 0.48935 0.0
C225 C 0.76747 0.71296 0.48084 0.0
C226 C 0.77463 0.76545 0.39735 0.0
C227 C 0.74252 0.69253 0.42956 0.0
C228 C 0.73801 0.78418 0.30113 0.0
C229 C 0.83597 0.84282 0.32254 0.0
N230 N 0.74642 0.71907 0.38959 0.0
N231 N 0.82733 0.82081 0.36226 0.0
H232 H 0.72497 0.85621 0.922 0.0
H233 H 0.89006 0.64859 0.83351 0.0
H234 H 0.82993 0.73744 0.02936 0.0
H235 H 0.72112 0.7044 0.72644 0.0
H236 H 0.87797 0.68874 0.90689 0.0
H237 H 0.73242 0.80964 0.84934 0.0
C238 C 0.74929 0.82033 0.9302 0.0
C239 C 0.77639 0.80041 0.9816 0.0
C240 C 0.84348 0.6916 0.86726 0.0
C241 C 0.78616 0.74789 0.89938 0.0
C242 C 0.8503 0.66868 0.8255 0.0
C243 C 0.80654 0.67289 0.77377 0.0
C244 C 0.79326 0.71999 0.8569 0.0
C245 C 0.75595 0.69975 0.76564 0.0
C246 C 0.75343 0.79377 0.88886 0.0
C247 C 0.80773 0.75384 0.99017 0.0
N248 N 0.75105 0.72285 0.8066 0.0
N249 N 0.81227 0.72943 0.9496 0.0
H250 H 0.30311 0.20293 0.79322 0.0
H251 H 0.18816 0.23722 0.485 0.0
H252 H 0.13219 0.15246 0.68484 0.0
H253 H 0.29647 0.35244 0.59536 0.0
H254 H 0.17972 0.19189 0.55734 0.0
H255 H 0.314 0.24305 0.72009 0.0
C256 C 0.26808 0.19947 0.75393 0.0
C257 C 0.21644 0.17417 0.74525 0.0
C258 C 0.20548 0.22695 0.56564 0.0
C259 C 0.22922 0.22019 0.66136 0.0
C260 C 0.21077 0.25268 0.5246 0.0
C261 C 0.24342 0.29859 0.53431 0.0
C262 C 0.23408 0.24653 0.617 0.0
C263 C 0.27099 0.3172 0.58621 0.0
C264 C 0.27432 0.22288 0.71235 0.0
C265 C 0.17263 0.17153 0.69337 0.0
N266 N 0.2661 0.29081 0.62579 0.0
N267 N 0.18008 0.19415 0.65324 0.0
H268 H 0.34189 0.51901 0.44234 0.0
H269 H 0.68382 0.48624 0.57609 0.0
H270 H 0.42579 0.36925 0.48048 0.0
H271 H 0.5977 0.63494 0.54472 0.0
H272 H 0.59066 0.44275 0.54131 0.0
H273 H 0.43528 0.56121 0.47788 0.0
C274 C 0.38003 0.49478 0.45814 0.0
C275 C 0.37569 0.44022 0.45867 0.0
C276 C 0.59203 0.48485 0.54212 0.0
C277 C 0.48377 0.48907 0.49986 0.0
C278 C 0.6453 0.5099 0.56205 0.0
C279 C 0.6488 0.56458 0.56314 0.0
C280 C 0.54144 0.51448 0.52285 0.0
C281 C 0.59726 0.59284 0.54472 0.0
C282 C 0.43354 0.51915 0.47856 0.0
C283 C 0.42692 0.4113 0.47922 0.0
N284 N 0.54577 0.56746 0.52512 0.0
N285 N 0.47887 0.43611 0.49919 0.0
H286 H 0.33741 0.98653 0.94044 0.0
H287 H 0.6794 0.01884 0.0772 0.0
H288 H 0.42412 0.13512 0.97453 0.0
H289 H 0.59511 0.86932 0.03558 0.0
H290 H 0.58614 0.06111 0.04173 0.0
H291 H 0.43042 0.94292 0.97516 0.0
C292 C 0.37603 0.01014 0.95505 0.0
C293 C 0.37276 0.06481 0.95477 0.0
C294 C 0.58777 0.01908 0.04027 0.0
C295 C 0.47991 0.01458 0.99498 0.0
C296 C 0.6412 0.99468 0.06065 0.0
C297 C 0.64537 0.94018 0.0591 0.0
C298 C 0.53746 0.9891 0.018 0.0
C299 C 0.59408 0.91132 0.03763 0.0
C300 C 0.42921 0.98503 0.97494 0.0
C301 C 0.4244 0.09302 0.9739 0.0
N302 N 0.5422 0.93617 0.01773 0.0
N303 N 0.4758 0.06758 0.99346 0.0
loop_
_geom_bond_atom_site_label_1
_geom_bond_atom_site_label_2
_geom_bond_distance
_geom_bond_site_symmetry_2
_ccdc_geom_bond_type
Fe0 O2 1.918 . S
Fe0 O5 1.997 . S
Fe0 O6 2.002 . S
Fe0 O11 1.976 . S
Fe0 O14 1.996 . S
Fe1 O2 1.918 . S
Fe1 O9 1.997 . S
Fe1 O12 1.996 . S
Fe1 O16 1.976 . S
Fe1 O19 2.002 . S
O2 Fe0 1.918 . S
O2 Fe1 1.918 . S
O2 Fe3 1.918 . S
Fe3 O2 1.918 . S
Fe3 O4 2.002 . S
Fe3 O13 1.976 . S
Fe3 O17 1.996 . S
Fe3 O20 1.997 . S
O4 Fe3 2.002 . S
O4 C21 1.295 . S
O5 Fe0 1.997 . S
O5 C21 1.235 . S
O6 Fe0 2.002 . S
O6 C7 1.295 . S
C7 O6 1.295 . S
C7 O9 1.235 . S
C8 O13 1.287 . S
C8 O14 1.255 . S
O9 Fe1 1.997 . S
O9 C7 1.235 . S
C10 O16 1.287 . S
C10 O17 1.255 . S
O11 Fe0 1.976 . S
O11 C18 1.287 . S
O12 Fe1 1.996 . S
O12 C18 1.255 . S
O13 Fe3 1.976 . S
O13 C8 1.287 . S
O14 Fe0 1.996 . S
O14 C8 1.255 . S
C15 O19 1.295 . S
C15 O20 1.235 . S
O16 Fe1 1.976 . S
O16 C10 1.287 . S
O17 Fe3 1.996 . S
O17 C10 1.255 . S
C18 O11 1.287 . S
C18 O12 1.255 . S
O19 Fe1 2.002 . S
O19 C15 1.295 . S
O20 Fe3 1.997 . S
O20 C15 1.235 . S
C21 O4 1.295 . S
C21 O5 1.235 . S
Fe22 O24 1.918 . S
Fe22 O27 1.997 . S
Fe22 O28 2.002 . S
Fe22 O33 1.976 . S
Fe22 O36 1.996 . S
Fe23 O24 1.918 . S
Fe23 O31 1.997 . S
Fe23 O34 1.996 . S
Fe23 O38 1.976 . S
Fe23 O41 2.002 . S
O24 Fe22 1.918 . S
O24 Fe23 1.918 . S
O24 Fe25 1.918 . S
Fe25 O24 1.918 . S
Fe25 O26 2.002 . S
Fe25 O35 1.976 . S
Fe25 O39 1.996 . S
Fe25 O42 1.997 . S
O26 Fe25 2.002 . S
O26 C43 1.295 . S
O27 Fe22 1.997 . S
O27 C43 1.235 . S
O28 Fe22 2.002 . S
O28 C29 1.295 1_554 S
C29 O28 1.295 1_556 S
C29 O31 1.235 1_556 S
C30 O35 1.287 . S
C30 O36 1.255 . S
O31 Fe23 1.997 . S
O31 C29 1.235 1_554 S
C32 O38 1.284 1_545 S
C32 O39 1.238 1_545 S
O33 Fe22 1.976 . S
O33 C40 1.287 . S
O34 Fe23 1.996 . S
O34 C40 1.255 . S
O35 Fe25 1.976 . S
O35 C30 1.287 . S
O36 Fe22 1.996 . S
O36 C30 1.255 . S
C37 O41 1.295 . S
C37 O42 1.235 . S
O38 Fe23 1.976 . S
O38 C32 1.284 1_565 S
O39 Fe25 1.996 . S
O39 C32 1.238 1_565 S
C40 O33 1.287 . S
C40 O34 1.255 . S
O41 Fe23 2.002 . S
O41 C37 1.295 . S
O42 Fe25 1.997 . S
O42 C37 1.235 . S
C43 O26 1.295 . S
C43 O27 1.235 . S
Fe44 O46 1.918 . S
Fe44 O49 1.997 . S
Fe44 O50 2.002 . S
Fe44 O55 1.976 . S
Fe44 O58 1.996 . S
Fe45 O46 1.918 . S
Fe45 O53 1.997 . S
Fe45 O56 1.996 . S
Fe45 O60 1.976 . S
Fe45 O63 2.002 . S
O46 Fe44 1.918 . S
O46 Fe45 1.918 . S
O46 Fe47 1.918 . S
Fe47 O46 1.918 . S
Fe47 O48 2.002 . S
Fe47 O57 1.976 . S
Fe47 O61 1.996 . S
Fe47 O64 1.997 . S
O48 Fe47 2.002 . S
O48 C65 1.295 . S
O49 Fe44 1.997 . S
O49 C65 1.235 . S
O50 Fe44 2.002 . S
O50 C51 1.295 . S
C51 O50 1.295 . S
C51 O53 1.235 . S
C52 O57 1.287 . S
C52 O58 1.255 . S
O53 Fe45 1.997 . S
O53 C51 1.235 . S
C54 O60 1.287 . S
C54 O61 1.255 . S
O55 Fe44 1.976 . S
O55 C62 1.287 . S
O56 Fe45 1.996 . S
O56 C62 1.255 . S
O57 Fe47 1.976 . S
O57 C52 1.287 . S
O58 Fe44 1.996 . S
O58 C52 1.255 . S
C59 O63 1.295 . S
C59 O64 1.235 . S
O60 Fe45 1.976 . S
O60 C54 1.287 . S
O61 Fe47 1.996 . S
O61 C54 1.255 . S
C62 O55 1.287 . S
C62 O56 1.255 . S
O63 Fe45 2.002 . S
O63 C59 1.295 . S
O64 Fe47 1.997 . S
O64 C59 1.235 . S
C65 O48 1.295 . S
C65 O49 1.235 . S
Fe66 O68 1.918 . S
Fe66 O71 1.997 . S
Fe66 O72 2.002 . S
Fe66 O77 1.976 . S
Fe66 O80 1.996 . S
Fe67 O68 1.918 . S
Fe67 O75 1.997 . S
Fe67 O78 1.996 . S
Fe67 O82 1.976 . S
Fe67 O85 2.002 . S
O68 Fe66 1.918 . S
O68 Fe67 1.918 . S
O68 Fe69 1.918 . S
Fe69 O68 1.918 . S
Fe69 O70 2.002 . S
Fe69 O79 1.976 . S
Fe69 O83 1.996 . S
Fe69 O86 1.997 . S
O70 Fe69 2.002 . S
O70 C87 1.295 . S
O71 Fe66 1.997 . S
O71 C87 1.235 . S
O72 Fe66 2.002 . S
O72 C73 1.295 1_556 S
C73 O72 1.295 1_554 S
C73 O75 1.235 1_554 S
C74 O79 1.287 . S
C74 O80 1.255 . S
O75 Fe67 1.997 . S
O75 C73 1.235 1_556 S
C76 O82 1.284 1_565 S
C76 O83 1.238 1_565 S
O77 Fe66 1.976 . S
O77 C84 1.287 . S
O78 Fe67 1.996 . S
O78 C84 1.255 . S
O79 Fe69 1.976 . S
O79 C74 1.287 . S
O80 Fe66 1.996 . S
O80 C74 1.255 . S
C81 O85 1.295 . S
C81 O86 1.235 . S
O82 Fe67 1.976 . S
O82 C76 1.284 1_545 S
O83 Fe69 1.996 . S
O83 C76 1.238 1_545 S
C84 O77 1.287 . S
C84 O78 1.255 . S
O85 Fe67 2.002 . S
O85 C81 1.295 . S
O86 Fe69 1.997 . S
O86 C81 1.235 . S
C87 O70 1.295 . S
C87 O71 1.235 . S
H88 C94 0.930 . S
H89 C98 0.930 . S
H90 C103 0.929 . S
H91 C101 0.929 . S
H92 C96 0.929 . S
H93 C102 0.929 1_455 S
C94 H88 0.930 . S
C94 C95 1.367 . S
C94 C102 1.378 . S
C95 C94 1.367 . S
C95 C103 1.433 . S
C96 H92 0.929 . S
C96 C98 1.378 1_655 S
C96 C100 1.350 . S
C97 C100 1.463 . S
C97 C102 1.350 . S
C97 N105 1.427 . S
C98 H89 0.930 . S
C98 C96 1.378 1_455 S
C98 C99 1.367 . S
C99 C98 1.367 . S
C99 C101 1.433 . S
C100 C96 1.350 . S
C100 C97 1.463 . S
C100 N104 1.427 1_655 S
C101 H91 0.929 . S
C101 C99 1.433 . S
C101 N104 1.384 . S
C102 H93 0.929 1_655 S
C102 C94 1.378 . S
C102 C97 1.350 . S
C103 H90 0.929 . S
C103 C95 1.433 . S
C103 N105 1.384 . S
N104 C100 1.427 1_455 S
N104 C101 1.384 . S
N105 C97 1.427 . S
N105 C103 1.384 . S
H106 C112 0.930 . S
H107 C116 0.930 . S
H108 C121 0.929 . S
H109 C119 0.929 . S
H110 C114 0.929 . S
H111 C120 0.929 . S
C112 H106 0.930 . S
C112 C113 1.367 . S
C112 C120 1.378 . S
C113 C112 1.367 . S
C113 C121 1.433 . S
C114 H110 0.929 . S
C114 C116 1.378 . S
C114 C118 1.339 1_655 S
C115 C118 1.472 . S
C115 C120 1.350 . S
C115 N123 1.427 . S
C116 H107 0.930 . S
C116 C114 1.378 . S
C116 C117 1.367 . S
C117 C116 1.367 . S
C117 C119 1.433 . S
C118 C114 1.339 1_455 S
C118 C115 1.472 . S
C118 N122 1.430 . S
C119 H109 0.929 . S
C119 C117 1.433 . S
C119 N122 1.384 1_655 S
C120 H111 0.929 . S
C120 C112 1.378 . S
C120 C115 1.350 . S
C121 H108 0.929 . S
C121 C113 1.433 . S
C121 N123 1.384 . S
N122 C118 1.430 . S
N122 C119 1.384 1_455 S
N123 C115 1.427 . S
N123 C121 1.384 . S
H124 C130 0.930 . S
H125 C134 0.930 . S
H126 C139 0.929 . S
H127 C137 0.929 . S
H128 C132 0.929 . S
H129 C138 0.929 . S
C130 H124 0.930 . S
C130 C131 1.367 . S
C130 C138 1.378 . S
C131 C130 1.367 . S
C131 C139 1.433 . S
C132 H128 0.929 . S
C132 C134 1.378 . S
C132 C136 1.350 1_655 S
C133 C136 1.463 . S
C133 C138 1.350 . S
C133 N141 1.427 . S
C134 H125 0.930 . S
C134 C132 1.378 . S
C134 C135 1.367 . S
C135 C134 1.367 . S
C135 C137 1.433 . S
C136 C132 1.350 1_455 S
C136 C133 1.463 . S
C136 N140 1.427 1_455 S
C137 H127 0.929 . S
C137 C135 1.433 . S
C137 N140 1.384 . S
C138 H129 0.929 . S
C138 C130 1.378 . S
C138 C133 1.350 . S
C139 H126 0.929 . S
C139 C131 1.433 . S
C139 N141 1.384 . S
N140 C136 1.427 1_655 S
N140 C137 1.384 . S
N141 C133 1.427 . S
N141 C139 1.384 . S
H142 C148 0.930 . S
H143 C152 0.930 . S
H144 C157 0.929 . S
H145 C155 0.929 . S
H146 C150 0.929 . S
H147 C156 0.929 . S
C148 H142 0.930 . S
C148 C149 1.367 . S
C148 C156 1.378 . S
C149 C148 1.367 . S
C149 C157 1.433 . S
C150 H146 0.929 . S
C150 C152 1.378 . S
C150 C154 1.330 1_455 S
C151 C154 1.474 . S
C151 C156 1.350 . S
C151 N159 1.427 . S
C152 H143 0.930 . S
C152 C150 1.378 . S
C152 C153 1.367 . S
C153 C152 1.367 . S
C153 C155 1.433 . S
C154 C150 1.330 1_655 S
C154 C151 1.474 . S
C154 N158 1.438 . S
C155 H145 0.929 . S
C155 C153 1.433 . S
C155 N158 1.384 1_455 S
C156 H147 0.929 . S
C156 C148 1.378 . S
C156 C151 1.350 . S
C157 H144 0.929 . S
C157 C149 1.433 . S
C157 N159 1.384 . S
N158 C154 1.438 . S
N158 C155 1.384 1_655 S
N159 C151 1.427 . S
N159 C157 1.384 . S
H160 C166 0.930 . S
H161 C170 0.930 . S
H162 C175 0.929 . S
H163 C173 0.929 . S
H164 C168 0.929 . S
H165 C174 0.929 . S
C166 H160 0.930 . S
C166 C167 1.367 . S
C166 C174 1.378 . S
C167 C166 1.367 . S
C167 C175 1.433 1_655 S
C168 H164 0.929 . S
C168 C170 1.378 . S
C168 C172 1.350 . S
C169 C172 1.463 1_655 S
C169 C174 1.350 . S
C169 N177 1.427 1_655 S
C170 H161 0.930 . S
C170 C168 1.378 . S
C170 C171 1.367 . S
C171 C170 1.367 . S
C171 C173 1.433 1_455 S
C172 C168 1.350 . S
C172 C169 1.463 1_455 S
C172 N176 1.427 1_455 S
C173 H163 0.929 . S
C173 C171 1.433 1_655 S
C173 N176 1.384 . S
C174 H165 0.929 . S
C174 C166 1.378 . S
C174 C169 1.350 . S
C175 H162 0.929 . S
C175 C167 1.433 1_455 S
C175 N177 1.384 . S
N176 C172 1.427 1_655 S
N176 C173 1.384 . S
N177 C169 1.427 1_455 S
N177 C175 1.384 . S
H178 C184 0.930 1_455 S
H179 C188 0.930 1_655 S
H180 C193 0.929 . S
H181 C191 0.929 . S
H182 C186 0.929 1_565 S
H183 C192 0.929 1_545 S
C184 H178 0.930 1_655 S
C184 C185 1.367 . S
C184 C192 1.378 1_655 S
C185 C184 1.367 . S
C185 C193 1.433 . S
C186 H182 0.929 1_545 S
C186 C188 1.378 1_655 S
C186 C190 1.350 1_655 S
C187 C190 1.463 1_664 S
C187 C192 1.350 1_655 S
C187 N195 1.427 1_554 S
C188 H179 0.930 1_455 S
C188 C186 1.378 1_455 S
C188 C189 1.367 . S
C189 C188 1.367 . S
C189 C191 1.433 . S
C190 C186 1.350 1_455 S
C190 C187 1.463 1_446 S
C190 N194 1.427 1_556 S
C191 H181 0.929 . S
C191 C189 1.433 . S
C191 N194 1.384 1_556 S
C192 H183 0.929 1_565 S
C192 C184 1.378 1_455 S
C192 C187 1.350 1_455 S
C193 H180 0.929 . S
C193 C185 1.433 . S
C193 N195 1.384 1_554 S
N194 C190 1.427 1_554 S
N194 C191 1.384 1_554 S
N195 C187 1.427 1_556 S
N195 C193 1.384 1_556 S
H196 C202 0.930 . S
H197 C206 0.930 . S
H198 C211 0.929 1_556 S
H199 C209 0.929 . S
H200 C204 0.929 . S
H201 C210 0.929 . S
C202 H196 0.930 . S
C202 C203 1.367 . S
C202 C210 1.378 . S
C203 C202 1.367 . S
C203 C211 1.433 . S
C204 H200 0.929 . S
C204 C206 1.378 . S
C204 C208 1.350 . S
C205 C208 1.463 . S
C205 C210 1.350 . S
C205 N213 1.427 . S
C206 H197 0.930 . S
C206 C204 1.378 . S
C206 C207 1.367 . S
C207 C206 1.367 . S
C207 C209 1.433 . S
C208 C204 1.350 . S
C208 C205 1.463 . S
C208 N212 1.427 . S
C209 H199 0.929 . S
C209 C207 1.433 . S
C209 N212 1.384 . S
C210 H201 0.929 . S
C210 C202 1.378 . S
C210 C205 1.350 . S
C211 H198 0.929 1_554 S
C211 C203 1.433 . S
C211 N213 1.384 . S
N212 C208 1.427 . S
N212 C209 1.384 . S
N213 C205 1.427 . S
N213 C211 1.384 . S
H214 C220 0.930 . S
H215 C224 0.930 . S
H216 C229 0.929 . S
H217 C227 0.929 . S
H218 C222 0.929 . S
H219 C228 0.929 . S
C220 H214 0.930 . S
C220 C221 1.367 . S
C220 C228 1.378 . S
C221 C220 1.367 . S
C221 C229 1.433 . S
C222 H218 0.929 . S
C222 C224 1.378 . S
C222 C226 1.350 . S
C223 C226 1.463 . S
C223 C228 1.350 . S
C223 N231 1.427 . S
C224 H215 0.930 . S
C224 C222 1.378 . S
C224 C225 1.367 . S
C225 C224 1.367 . S
C225 C227 1.433 . S
C226 C222 1.350 . S
C226 C223 1.463 . S
C226 N230 1.427 . S
C227 H217 0.929 . S
C227 C225 1.433 . S
C227 N230 1.384 . S
C228 H219 0.929 . S
C228 C220 1.378 . S
C228 C223 1.350 . S
C229 H216 0.929 . S
C229 C221 1.433 . S
C229 N231 1.384 . S
N230 C226 1.427 . S
N230 C227 1.384 . S
N231 C223 1.427 . S
N231 C229 1.384 . S
H232 C238 0.930 . S
H233 C242 0.930 . S
H234 C247 0.929 . S
H235 C245 0.929 . S
H236 C240 0.929 . S
H237 C246 0.929 . S
C238 H232 0.930 . S
C238 C239 1.367 . S
C238 C246 1.378 . S
C239 C238 1.367 . S
C239 C247 1.433 . S
C240 H236 0.929 . S
C240 C242 1.378 . S
C240 C244 1.350 . S
C241 C244 1.463 . S
C241 C246 1.350 . S
C241 N249 1.427 . S
C242 H233 0.930 . S
C242 C240 1.378 . S
C242 C243 1.367 . S
C243 C242 1.367 . S
C243 C245 1.433 . S
C244 C240 1.350 . S
C244 C241 1.463 . S
C244 N248 1.427 . S
C245 H235 0.929 . S
C245 C243 1.433 . S
C245 N248 1.384 . S
C246 H237 0.929 . S
C246 C238 1.378 . S
C246 C241 1.350 . S
C247 H234 0.929 . S
C247 C239 1.433 . S
C247 N249 1.384 . S
N248 C244 1.427 . S
N248 C245 1.384 . S
N249 C241 1.427 . S
N249 C247 1.384 . S
H250 C256 0.930 . S
H251 C260 0.930 . S
H252 C265 0.929 . S
H253 C263 0.929 . S
H254 C258 0.929 . S
H255 C264 0.929 . S
C256 H250 0.930 . S
C256 C257 1.367 . S
C256 C264 1.378 . S
C257 C256 1.367 . S
C257 C265 1.433 . S
C258 H254 0.929 . S
C258 C260 1.378 . S
C258 C262 1.350 . S
C259 C262 1.463 . S
C259 C264 1.350 . S
C259 N267 1.427 . S
C260 H251 0.930 . S
C260 C258 1.378 . S
C260 C261 1.367 . S
C261 C260 1.367 . S
C261 C263 1.433 . S
C262 C258 1.350 . S
C262 C259 1.463 . S
C262 N266 1.427 . S
C263 H253 0.929 . S
C263 C261 1.433 . S
C263 N266 1.384 . S
C264 H255 0.929 . S
C264 C256 1.378 . S
C264 C259 1.350 . S
C265 H252 0.929 . S
C265 C257 1.433 . S
C265 N267 1.384 . S
N266 C262 1.427 . S
N266 C263 1.384 . S
N267 C259 1.427 . S
N267 C265 1.384 . S
H268 C274 0.930 . S
H269 C278 0.930 . S
H270 C283 0.929 . S
H271 C281 0.929 . S
H272 C276 0.929 . S
H273 C282 0.929 . S
C274 H268 0.930 . S
C274 C275 1.367 . S
C274 C282 1.378 . S
C275 C274 1.367 . S
C275 C283 1.433 . S
C276 H272 0.929 . S
C276 C278 1.378 . S
C276 C280 1.350 . S
C277 C280 1.463 . S
C277 C282 1.350 . S
C277 N285 1.427 . S
C278 H269 0.930 . S
C278 C276 1.378 . S
C278 C279 1.367 . S
C279 C278 1.367 . S
C279 C281 1.433 . S
C280 C276 1.350 . S
C280 C277 1.463 . S
C280 N284 1.427 . S
C281 H271 0.929 . S
C281 C279 1.433 . S
C281 N284 1.384 . S
C282 H273 0.929 . S
C282 C274 1.378 . S
C282 C277 1.350 . S
C283 H270 0.929 . S
C283 C275 1.433 . S
C283 N285 1.384 . S
N284 C280 1.427 . S
N284 C281 1.384 . S
N285 C277 1.427 . S
N285 C283 1.384 . S
H286 C292 0.930 . S
H287 C296 0.930 . S
H288 C301 0.929 . S
H289 C299 0.929 . S
H290 C294 0.929 . S
H291 C300 0.929 . S
C292 H286 0.930 . S
C292 C293 1.367 . S
C292 C300 1.378 1_546 S
C293 C292 1.367 . S
C293 C301 1.433 . S
C294 H290 0.929 . S
C294 C296 1.378 1_546 S
C294 C298 1.350 1_546 S
C295 C298 1.463 1_546 S
C295 C300 1.350 1_546 S
C295 N303 1.427 . S
C296 H287 0.930 . S
C296 C294 1.378 1_564 S
C296 C297 1.367 . S
C297 C296 1.367 . S
C297 C299 1.433 . S
C298 C294 1.350 1_564 S
C298 C295 1.463 1_564 S
C298 N302 1.427 . S
C299 H289 0.929 . S
C299 C297 1.433 . S
C299 N302 1.384 . S
C300 H291 0.929 . S
C300 C292 1.378 1_564 S
C300 C295 1.350 1_564 S
C301 H288 0.929 . S
C301 C293 1.433 . S
C301 N303 1.384 . S
N302 C298 1.427 . S
N302 C299 1.384 . S
N303 C295 1.427 . S
N303 C301 1.384 . S
C95 C32 1.492 . S
C99 C7 1.506 . S
C113 C8 1.487 . S
C117 C43 1.511 . S
C131 C76 1.500 . S
C135 C59 1.499 . S
C149 C62 1.486 . S
C153 C87 1.503 . S
C167 C51 0.975 . S
C171 C21 0.975 . S
C185 C37 0.991 . S
C189 C81 0.991 . S
C203 C73 1.563 . S
C207 C18 1.549 . S
C221 C30 1.542 . S
C225 C65 1.554 . S
C239 C29 1.558 . S
C243 C54 1.550 . S
C257 C74 1.540 . S
C261 C15 1.556 . S
C275 C10 1.554 . S
C279 C52 1.554 . S
C293 C84 1.554 . S
C297 C40 1.554 . S
