# Generated by pormake.
# Topology sxh, (6)-cn, num edge types: 1
# Building blocks:
#     Node 0, Type 0, BuildingBlock: OJICUG_clean_sbu_0, # of connection points: 6
#     Node 1, Type 0, BuildingBlock: OJICUG_clean_sbu_0, # of connection points: 6
#     Node 2, Type 0, BuildingBlock: OJICUG_clean_sbu_0, # of connection points: 6
#     Node 3, Type 0, BuildingBlock: OJICUG_clean_sbu_0, # of connection points: 6
#     Node 4, Type 0, BuildingBlock: OJICUG_clean_sbu_0, # of connection points: 6
#     Node 5, Type 0, BuildingBlock: OJICUG_clean_sbu_0, # of connection points: 6
#     Node 6, Type 0, BuildingBlock: OJICUG_clean_sbu_0, # of connection points: 6
#     Node 7, Type 0, BuildingBlock: OJICUG_clean_sbu_0, # of connection points: 6
#     Node 8, Type 0, BuildingBlock: OJICUG_clean_sbu_0, # of connection points: 6
#     Node 9, Type 0, BuildingBlock: OJICUG_clean_sbu_0, # of connection points: 6
#     Node 10, Type 0, BuildingBlock: OJICUG_clean_sbu_0, # of connection points: 6
#     Node 11, Type 0, BuildingBlock: OJICUG_clean_sbu_0, # of connection points: 6
#     Node 12, Type 0, BuildingBlock: OJICUG_clean_sbu_0, # of connection points: 6
#     Node 13, Type 0, BuildingBlock: OJICUG_clean_sbu_0, # of connection points: 6
#     Node 14, Type 0, BuildingBlock: OJICUG_clean_sbu_0, # of connection points: 6
#     Node 15, Type 0, BuildingBlock: OJICUG_clean_sbu_0, # of connection points: 6
#     Node 16, Type 0, BuildingBlock: OJICUG_clean_sbu_0, # of connection points: 6
#     Node 17, Type 0, BuildingBlock: OJICUG_clean_sbu_0, # of connection points: 6
#     Node 18, Type 0, BuildingBlock: OJICUG_clean_sbu_0, # of connection points: 6
#     Node 19, Type 0, BuildingBlock: OJICUG_clean_sbu_0, # of connection points: 6
#     Node 20, Type 0, BuildingBlock: OJICUG_clean_sbu_0, # of connection points: 6
#     Node 21, Type 0, BuildingBlock: OJICUG_clean_sbu_0, # of connection points: 6
#     Node 22, Type 0, BuildingBlock: OJICUG_clean_sbu_0, # of connection points: 6
#     Node 23, Type 0, BuildingBlock: OJICUG_clean_sbu_0, # of connection points: 6
#     Node 24, Type 0, BuildingBlock: OJICUG_clean_sbu_0, # of connection points: 6
#     Node 25, Type 0, BuildingBlock: OJICUG_clean_sbu_0, # of connection points: 6
#     Node 26, Type 0, BuildingBlock: OJICUG_clean_sbu_0, # of connection points: 6
#     Node 27, Type 0, BuildingBlock: OJICUG_clean_sbu_0, # of connection points: 6
#     Node 28, Type 0, BuildingBlock: OJICUG_clean_sbu_0, # of connection points: 6
#     Node 29, Type 0, BuildingBlock: OJICUG_clean_sbu_0, # of connection points: 6
#     Node 30, Type 0, BuildingBlock: OJICUG_clean_sbu_0, # of connection points: 6
#     Node 31, Type 0, BuildingBlock: OJICUG_clean_sbu_0, # of connection points: 6
#     Node 32, Type 0, BuildingBlock: OJICUG_clean_sbu_0, # of connection points: 6
#     Node 33, Type 0, BuildingBlock: OJICUG_clean_sbu_0, # of connection points: 6
#     Node 34, Type 0, BuildingBlock: OJICUG_clean_sbu_0, # of connection points: 6
#     Node 35, Type 0, BuildingBlock: OJICUG_clean_sbu_0, # of connection points: 6
#     Node 36, Type 0, BuildingBlock: OJICUG_clean_sbu_0, # of connection points: 6
#     Node 37, Type 0, BuildingBlock: OJICUG_clean_sbu_0, # of connection points: 6
#     Node 38, Type 0, BuildingBlock: OJICUG_clean_sbu_0, # of connection points: 6
#     Node 39, Type 0, BuildingBlock: OJICUG_clean_sbu_0, # of connection points: 6
#     Node 40, Type 0, BuildingBlock: OJICUG_clean_sbu_0, # of connection points: 6
#     Node 41, Type 0, BuildingBlock: OJICUG_clean_sbu_0, # of connection points: 6
#     Node 42, Type 0, BuildingBlock: OJICUG_clean_sbu_0, # of connection points: 6
#     Node 43, Type 0, BuildingBlock: OJICUG_clean_sbu_0, # of connection points: 6
#     Node 44, Type 0, BuildingBlock: OJICUG_clean_sbu_0, # of connection points: 6
#     Node 45, Type 0, BuildingBlock: OJICUG_clean_sbu_0, # of connection points: 6
#     Node 46, Type 0, BuildingBlock: OJICUG_clean_sbu_0, # of connection points: 6
#     Node 47, Type 0, BuildingBlock: OJICUG_clean_sbu_0, # of connection points: 6
#     Edge 48, Type (0, 0), None
#     Edge 49, Type (0, 0), None
#     Edge 50, Type (0, 0), None
#     Edge 51, Type (0, 0), None
#     Edge 52, Type (0, 0), None
#     Edge 53, Type (0, 0), None
#     Edge 54, Type (0, 0), None
#     Edge 55, Type (0, 0), None
#     Edge 56, Type (0, 0), None
#     Edge 57, Type (0, 0), None
#     Edge 58, Type (0, 0), None
#     Edge 59, Type (0, 0), None
#     Edge 60, Type (0, 0), None
#     Edge 61, Type (0, 0), None
#     Edge 62, Type (0, 0), None
#     Edge 63, Type (0, 0), None
#     Edge 64, Type (0, 0), None
#     Edge 65, Type (0, 0), None
#     Edge 66, Type (0, 0), None
#     Edge 67, Type (0, 0), None
#     Edge 68, Type (0, 0), None
#     Edge 69, Type (0, 0), None
#     Edge 70, Type (0, 0), None
#     Edge 71, Type (0, 0), None
#     Edge 72, Type (0, 0), None
#     Edge 73, Type (0, 0), None
#     Edge 74, Type (0, 0), None
#     Edge 75, Type (0, 0), None
#     Edge 76, Type (0, 0), None
#     Edge 77, Type (0, 0), None
#     Edge 78, Type (0, 0), None
#     Edge 79, Type (0, 0), None
#     Edge 80, Type (0, 0), None
#     Edge 81, Type (0, 0), None
#     Edge 82, Type (0, 0), None
#     Edge 83, Type (0, 0), None
#     Edge 84, Type (0, 0), None
#     Edge 85, Type (0, 0), None
#     Edge 86, Type (0, 0), None
#     Edge 87, Type (0, 0), None
#     Edge 88, Type (0, 0), None
#     Edge 89, Type (0, 0), None
#     Edge 90, Type (0, 0), None
#     Edge 91, Type (0, 0), None
#     Edge 92, Type (0, 0), None
#     Edge 93, Type (0, 0), None
#     Edge 94, Type (0, 0), None
#     Edge 95, Type (0, 0), None
#     Edge 96, Type (0, 0), None
#     Edge 97, Type (0, 0), None
#     Edge 98, Type (0, 0), None
#     Edge 99, Type (0, 0), None
#     Edge 100, Type (0, 0), None
#     Edge 101, Type (0, 0), None
#     Edge 102, Type (0, 0), None
#     Edge 103, Type (0, 0), None
#     Edge 104, Type (0, 0), None
#     Edge 105, Type (0, 0), None
#     Edge 106, Type (0, 0), None
#     Edge 107, Type (0, 0), None
#     Edge 108, Type (0, 0), None
#     Edge 109, Type (0, 0), None
#     Edge 110, Type (0, 0), None
#     Edge 111, Type (0, 0), None
#     Edge 112, Type (0, 0), None
#     Edge 113, Type (0, 0), None
#     Edge 114, Type (0, 0), None
#     Edge 115, Type (0, 0), None
#     Edge 116, Type (0, 0), None
#     Edge 117, Type (0, 0), None
#     Edge 118, Type (0, 0), None
#     Edge 119, Type (0, 0), None
#     Edge 120, Type (0, 0), None
#     Edge 121, Type (0, 0), None
#     Edge 122, Type (0, 0), None
#     Edge 123, Type (0, 0), None
#     Edge 124, Type (0, 0), None
#     Edge 125, Type (0, 0), None
#     Edge 126, Type (0, 0), None
#     Edge 127, Type (0, 0), None
#     Edge 128, Type (0, 0), None
#     Edge 129, Type (0, 0), None
#     Edge 130, Type (0, 0), None
#     Edge 131, Type (0, 0), None
#     Edge 132, Type (0, 0), None
#     Edge 133, Type (0, 0), None
#     Edge 134, Type (0, 0), None
#     Edge 135, Type (0, 0), None
#     Edge 136, Type (0, 0), None
#     Edge 137, Type (0, 0), None
#     Edge 138, Type (0, 0), None
#     Edge 139, Type (0, 0), None
#     Edge 140, Type (0, 0), None
#     Edge 141, Type (0, 0), None
#     Edge 142, Type (0, 0), None
#     Edge 143, Type (0, 0), None
#     Edge 144, Type (0, 0), None
#     Edge 145, Type (0, 0), None
#     Edge 146, Type (0, 0), None
#     Edge 147, Type (0, 0), None
#     Edge 148, Type (0, 0), None
#     Edge 149, Type (0, 0), None
#     Edge 150, Type (0, 0), None
#     Edge 151, Type (0, 0), None
#     Edge 152, Type (0, 0), None
#     Edge 153, Type (0, 0), None
#     Edge 154, Type (0, 0), None
#     Edge 155, Type (0, 0), None
#     Edge 156, Type (0, 0), None
#     Edge 157, Type (0, 0), None
#     Edge 158, Type (0, 0), None
#     Edge 159, Type (0, 0), None
#     Edge 160, Type (0, 0), None
#     Edge 161, Type (0, 0), None
#     Edge 162, Type (0, 0), None
#     Edge 163, Type (0, 0), None
#     Edge 164, Type (0, 0), None
#     Edge 165, Type (0, 0), None
#     Edge 166, Type (0, 0), None
#     Edge 167, Type (0, 0), None
#     Edge 168, Type (0, 0), None
#     Edge 169, Type (0, 0), None
#     Edge 170, Type (0, 0), None
#     Edge 171, Type (0, 0), None
#     Edge 172, Type (0, 0), None
#     Edge 173, Type (0, 0), None
#     Edge 174, Type (0, 0), None
#     Edge 175, Type (0, 0), None
#     Edge 176, Type (0, 0), None
#     Edge 177, Type (0, 0), None
#     Edge 178, Type (0, 0), None
#     Edge 179, Type (0, 0), None
#     Edge 180, Type (0, 0), None
#     Edge 181, Type (0, 0), None
#     Edge 182, Type (0, 0), None
#     Edge 183, Type (0, 0), None
#     Edge 184, Type (0, 0), None
#     Edge 185, Type (0, 0), None
#     Edge 186, Type (0, 0), None
#     Edge 187, Type (0, 0), None
#     Edge 188, Type (0, 0), None
#     Edge 189, Type (0, 0), None
#     Edge 190, Type (0, 0), None
#     Edge 191, Type (0, 0), None
# Relax obj value: 0.209
# Max RMSD: 0.267
# Mean RMSD: 0.267
data_MOF--net-sxh--node1-OJICUG_clean_sbu_0--edge1-none
_symmetry_space_group_name_H-M    P1
_symmetry_Int_Tables_number       1
_symmetry_cell_setting            triclinic
loop_
_symmetry_equiv_pos_as_xyz
'x, y, z'
_cell_length_a     27.374024
_cell_length_b     27.37401
_cell_length_c     27.373918
_cell_angle_alpha  90.002332
_cell_angle_beta   89.999968
_cell_angle_gamma 90.00232
loop_
_atom_site_label
_atom_site_type_symbol
_atom_site_fract_x
_atom_site_fract_y
_atom_site_fract_z
_atom_type_partial_charge
Sc0 Sc 0.12517 0.20125 0.32366 0.0
Sc1 Sc 0.03948 0.14209 0.2529 0.0
Sc2 Sc 0.08893 0.0843 0.34859 0.0
O3 O 0.08403 0.14451 0.30881 0.0
C4 C 0.17985 0.11226 0.27679 0.0
C5 C 0.10164 0.23437 0.21434 0.0
C6 C 0.06265 0.03031 0.2619 0.0
C7 C 0.01976 0.23443 0.31844 0.0
C8 C 0.12466 0.15074 0.43009 0.0
C9 C 0.98183 0.1149 0.34511 0.0
O10 O 0.18378 0.1552 0.29605 0.0
O11 O 0.0805 0.19358 0.20227 0.0
O12 O 0.05016 0.03723 0.30467 0.0
O13 O 0.06018 0.23821 0.34121 0.0
O14 O 0.12279 0.10753 0.41529 0.0
O15 O 0.9885 0.10582 0.2999 0.0
O16 O 0.12806 0.1857 0.40026 0.0
O17 O 0.01114 0.20676 0.28203 0.0
O18 O 0.01619 0.10642 0.37646 0.0
O19 O 0.1216 0.23869 0.25558 0.0
O20 O 0.15474 0.07791 0.29846 0.0
O21 O 0.06708 0.06718 0.23207 0.0
Sc22 Sc 0.8839 0.30774 0.32371 0.0
Sc23 Sc 0.96952 0.36692 0.25291 0.0
Sc24 Sc 0.92014 0.4247 0.34863 0.0
O25 O 0.92502 0.36449 0.30885 0.0
C26 C 0.8292 0.39672 0.27687 0.0
C27 C 0.90735 0.27463 0.21438 0.0
C28 C 0.94632 0.47868 0.26193 0.0
C29 C 0.98935 0.27468 0.31849 0.0
C30 C 0.88445 0.35827 0.43015 0.0
C31 C 0.02725 0.3941 0.34509 0.0
O32 O 0.82528 0.35379 0.29613 0.0
O33 O 0.92846 0.31543 0.20231 0.0
O34 O 0.95889 0.47175 0.30468 0.0
O35 O 0.94892 0.27078 0.34121 0.0
O36 O 0.8863 0.40148 0.41534 0.0
O37 O 0.02055 0.40318 0.29988 0.0
O38 O 0.88106 0.3233 0.40032 0.0
O39 O 0.99791 0.30227 0.282 0.0
O40 O 0.9929 0.40258 0.37646 0.0
O41 O 0.88742 0.27029 0.25563 0.0
O42 O 0.85431 0.43108 0.29853 0.0
O43 O 0.94187 0.44182 0.2321 0.0
Sc44 Sc 0.08881 0.92475 0.16041 0.0
Sc45 Sc 0.03942 0.86691 0.2561 0.0
Sc46 Sc 0.12512 0.80781 0.18532 0.0
O47 O 0.08394 0.86452 0.20017 0.0
C48 C 0.12455 0.85833 0.07889 0.0
C49 C 0.98172 0.89411 0.16392 0.0
C50 C 0.01973 0.77455 0.19056 0.0
C51 C 0.06259 0.97869 0.24712 0.0
C52 C 0.17975 0.89683 0.23219 0.0
C53 C 0.1016 0.77465 0.29463 0.0
O54 O 0.12266 0.90154 0.09369 0.0
O55 O 0.9884 0.90317 0.20914 0.0
O56 O 0.06015 0.7708 0.16778 0.0
O57 O 0.05004 0.97178 0.20437 0.0
O58 O 0.1837 0.8539 0.21294 0.0
O59 O 0.08045 0.81542 0.30671 0.0
O60 O 0.15464 0.93117 0.21052 0.0
O61 O 0.06704 0.94181 0.27694 0.0
O62 O 0.12158 0.77035 0.25339 0.0
O63 O 0.01607 0.90261 0.13256 0.0
O64 O 0.12798 0.82337 0.10872 0.0
O65 O 0.01109 0.80223 0.22696 0.0
Sc66 Sc 0.92013 0.58427 0.16046 0.0
Sc67 Sc 0.96955 0.64206 0.25616 0.0
Sc68 Sc 0.88389 0.70122 0.18539 0.0
O69 O 0.92503 0.64448 0.20024 0.0
C70 C 0.88438 0.65071 0.07895 0.0
C71 C 0.02723 0.61485 0.16398 0.0
C72 C 0.98935 0.73428 0.19053 0.0
C73 C 0.94633 0.5303 0.24716 0.0
C74 C 0.82922 0.61221 0.23226 0.0
C75 C 0.90744 0.73436 0.2947 0.0
O76 O 0.88632 0.6075 0.09373 0.0
O77 O 0.02054 0.60576 0.20919 0.0
O78 O 0.9489 0.73816 0.16782 0.0
O79 O 0.95886 0.53721 0.2044 0.0
O80 O 0.8253 0.65517 0.21305 0.0
O81 O 0.92854 0.69357 0.30678 0.0
O82 O 0.8543 0.57787 0.21055 0.0
O83 O 0.9419 0.56717 0.277 0.0
O84 O 0.88749 0.73869 0.25345 0.0
O85 O 0.99288 0.60637 0.13262 0.0
O86 O 0.88095 0.68566 0.10879 0.0
O87 O 0.99792 0.7067 0.22702 0.0
Sc88 Sc 0.32373 0.12517 0.20124 0.0
Sc89 Sc 0.25296 0.0395 0.1421 0.0
Sc90 Sc 0.34867 0.08889 0.08431 0.0
O91 O 0.30888 0.08401 0.14452 0.0
C92 C 0.2769 0.17984 0.11224 0.0
C93 C 0.2144 0.10168 0.23435 0.0
C94 C 0.26197 0.06267 0.03032 0.0
C95 C 0.31844 0.01978 0.23447 0.0
C96 C 0.43018 0.1246 0.15075 0.0
C97 C 0.34514 0.98179 0.11492 0.0
O98 O 0.29616 0.18378 0.15517 0.0
O99 O 0.20234 0.08053 0.19357 0.0
O100 O 0.30473 0.05013 0.03725 0.0
O101 O 0.34123 0.0602 0.23824 0.0
O102 O 0.41538 0.12274 0.10755 0.0
O103 O 0.29993 0.98848 0.10584 0.0
O104 O 0.40034 0.12801 0.18572 0.0
O105 O 0.28205 0.01115 0.20677 0.0
O106 O 0.3765 0.01614 0.10643 0.0
O107 O 0.25564 0.12165 0.23867 0.0
O108 O 0.29856 0.15472 0.0779 0.0
O109 O 0.23214 0.06712 0.06719 0.0
Sc110 Sc 0.66046 0.42016 0.0843 0.0
Sc111 Sc 0.75614 0.46952 0.14217 0.0
Sc112 Sc 0.68536 0.3838 0.20122 0.0
O113 O 0.70021 0.42501 0.14453 0.0
C114 C 0.57893 0.38438 0.15069 0.0
C115 C 0.66396 0.52725 0.11497 0.0
C116 C 0.6906 0.48918 0.23452 0.0
C117 C 0.74718 0.44638 0.03039 0.0
C118 C 0.73225 0.32923 0.11218 0.0
C119 C 0.79466 0.4073 0.23441 0.0
O120 O 0.59373 0.38631 0.10749 0.0
O121 O 0.70919 0.52057 0.10593 0.0
O122 O 0.66782 0.44876 0.23827 0.0
O123 O 0.70443 0.45896 0.03731 0.0
O124 O 0.71299 0.32526 0.1551 0.0
O125 O 0.80674 0.42847 0.19365 0.0
O126 O 0.71056 0.35434 0.07784 0.0
O127 O 0.777 0.44192 0.06726 0.0
O128 O 0.75343 0.38732 0.2387 0.0
O129 O 0.63261 0.4929 0.10645 0.0
O130 O 0.60876 0.38094 0.18565 0.0
O131 O 0.727 0.49783 0.20685 0.0
Sc132 Sc 0.34855 0.92013 0.42471 0.0
Sc133 Sc 0.25285 0.96956 0.36694 0.0
Sc134 Sc 0.32362 0.88392 0.30775 0.0
O135 O 0.30877 0.92504 0.36451 0.0
C136 C 0.43006 0.88443 0.35825 0.0
C137 C 0.34504 0.02724 0.39414 0.0
C138 C 0.31846 0.98938 0.27472 0.0
C139 C 0.26186 0.94634 0.47871 0.0
C140 C 0.27677 0.82921 0.39673 0.0
C141 C 0.2143 0.90743 0.27464 0.0
O142 O 0.41526 0.8863 0.40146 0.0
O143 O 0.29983 0.02055 0.40324 0.0
O144 O 0.34117 0.94893 0.27082 0.0
O145 O 0.30462 0.95886 0.47179 0.0
O146 O 0.29601 0.8253 0.35378 0.0
O147 O 0.20223 0.92854 0.31543 0.0
O148 O 0.29845 0.8543 0.43108 0.0
O149 O 0.23203 0.94191 0.44184 0.0
O150 O 0.25555 0.88749 0.2703 0.0
O151 O 0.3764 0.99289 0.40261 0.0
O152 O 0.40023 0.88104 0.32329 0.0
O153 O 0.28197 0.99795 0.3023 0.0
Sc154 Sc 0.68534 0.62506 0.30779 0.0
Sc155 Sc 0.75614 0.53947 0.36701 0.0
Sc156 Sc 0.66042 0.58889 0.42475 0.0
O157 O 0.70021 0.58397 0.36456 0.0
C158 C 0.73219 0.67981 0.39675 0.0
C159 C 0.79466 0.60159 0.2747 0.0
C160 C 0.74711 0.56269 0.47878 0.0
C161 C 0.69054 0.51958 0.27479 0.0
C162 C 0.5789 0.62456 0.35829 0.0
C163 C 0.66397 0.48177 0.39421 0.0
O164 O 0.71295 0.68371 0.3538 0.0
O165 O 0.80674 0.58051 0.3155 0.0
O166 O 0.70434 0.55018 0.47185 0.0
O167 O 0.66781 0.56002 0.27088 0.0
O168 O 0.5937 0.62269 0.4015 0.0
O169 O 0.70917 0.48847 0.40331 0.0
O170 O 0.60874 0.62795 0.32333 0.0
O171 O 0.72704 0.51105 0.30237 0.0
O172 O 0.6326 0.51612 0.40267 0.0
O173 O 0.7534 0.6215 0.27034 0.0
O174 O 0.71051 0.65473 0.43111 0.0
O175 O 0.77694 0.56713 0.44191 0.0
Sc176 Sc 0.08432 0.34857 0.08884 0.0
Sc177 Sc 0.14218 0.2529 0.03945 0.0
Sc178 Sc 0.20126 0.32369 0.12516 0.0
O179 O 0.14456 0.30882 0.08397 0.0
C180 C 0.15072 0.43011 0.12457 0.0
C181 C 0.11498 0.34508 0.98174 0.0
C182 C 0.23453 0.31844 0.01977 0.0
C183 C 0.0304 0.26186 0.06262 0.0
C184 C 0.11224 0.27681 0.17978 0.0
C185 C 0.23444 0.21438 0.10166 0.0
O186 O 0.10752 0.41529 0.1227 0.0
O187 O 0.10593 0.29986 0.98842 0.0
O188 O 0.23828 0.34121 0.06019 0.0
O189 O 0.03732 0.30461 0.05004 0.0
O190 O 0.15517 0.29608 0.18374 0.0
O191 O 0.19367 0.20229 0.08049 0.0
O192 O 0.0779 0.29847 0.15466 0.0
O193 O 0.06728 0.23204 0.06707 0.0
O194 O 0.23873 0.25561 0.12164 0.0
O195 O 0.10646 0.37643 0.0161 0.0
O196 O 0.1857 0.40029 0.12799 0.0
O197 O 0.20685 0.28203 0.01113 0.0
Sc198 Sc 0.20119 0.68534 0.38381 0.0
Sc199 Sc 0.14207 0.75612 0.46949 0.0
Sc200 Sc 0.08426 0.66041 0.4201 0.0
O201 O 0.14447 0.70019 0.42498 0.0
C202 C 0.1122 0.73219 0.32917 0.0
C203 C 0.23432 0.79466 0.40731 0.0
C204 C 0.03028 0.74711 0.44634 0.0
C205 C 0.23441 0.69058 0.48921 0.0
C206 C 0.15069 0.5789 0.38435 0.0
C207 C 0.11488 0.66395 0.52721 0.0
O208 O 0.15513 0.71295 0.32522 0.0
O209 O 0.19355 0.80673 0.42845 0.0
O210 O 0.0372 0.70435 0.45886 0.0
O211 O 0.23817 0.6678 0.4488 0.0
O212 O 0.10748 0.59369 0.38628 0.0
O213 O 0.1058 0.70916 0.52051 0.0
O214 O 0.18564 0.60874 0.38092 0.0
O215 O 0.20674 0.727 0.49783 0.0
O216 O 0.10639 0.63259 0.49286 0.0
O217 O 0.23865 0.75341 0.38736 0.0
O218 O 0.07785 0.71051 0.35427 0.0
O219 O 0.06715 0.77694 0.44189 0.0
Sc220 Sc 0.8078 0.82368 0.38384 0.0
Sc221 Sc 0.86688 0.7529 0.46954 0.0
Sc222 Sc 0.92473 0.84859 0.42018 0.0
O223 O 0.8645 0.80882 0.42503 0.0
C224 C 0.89683 0.77681 0.32924 0.0
C225 C 0.77464 0.71436 0.40733 0.0
C226 C 0.97866 0.76188 0.44639 0.0
C227 C 0.77453 0.81844 0.48922 0.0
C228 C 0.85833 0.93011 0.38441 0.0
C229 C 0.89406 0.84507 0.52727 0.0
O230 O 0.85391 0.79607 0.32527 0.0
O231 O 0.8154 0.70229 0.42849 0.0
O232 O 0.97174 0.80463 0.45897 0.0
O233 O 0.77078 0.84121 0.4488 0.0
O234 O 0.90154 0.9153 0.38633 0.0
O235 O 0.90313 0.79986 0.52058 0.0
O236 O 0.82337 0.90028 0.38097 0.0
O237 O 0.8022 0.78203 0.49786 0.0
O238 O 0.90258 0.87643 0.49292 0.0
O239 O 0.77033 0.7556 0.38735 0.0
O240 O 0.93117 0.79849 0.35436 0.0
O241 O 0.94179 0.73206 0.44193 0.0
Sc242 Sc 0.42469 0.66044 0.58884 0.0
Sc243 Sc 0.3669 0.75614 0.53943 0.0
Sc244 Sc 0.30773 0.68536 0.62507 0.0
O245 O 0.36448 0.70021 0.58394 0.0
C246 C 0.35825 0.57892 0.62453 0.0
C247 C 0.3941 0.66394 0.48174 0.0
C248 C 0.27467 0.69054 0.51961 0.0
C249 C 0.47866 0.74714 0.56266 0.0
C250 C 0.39673 0.73222 0.67976 0.0
C251 C 0.27461 0.79467 0.60158 0.0
O252 O 0.40146 0.59373 0.6227 0.0
O253 O 0.40318 0.70915 0.48842 0.0
O254 O 0.27077 0.66784 0.56006 0.0
O255 O 0.47174 0.70439 0.55009 0.0
O256 O 0.35379 0.71297 0.68368 0.0
O257 O 0.31539 0.80675 0.58046 0.0
O258 O 0.43108 0.71054 0.65467 0.0
O259 O 0.44179 0.77696 0.56709 0.0
O260 O 0.27028 0.75343 0.62153 0.0
O261 O 0.40259 0.63258 0.5161 0.0
O262 O 0.32328 0.60875 0.62791 0.0
O263 O 0.30226 0.72702 0.51104 0.0
Sc264 Sc 0.88385 0.80777 0.68535 0.0
Sc265 Sc 0.96954 0.86692 0.75611 0.0
Sc266 Sc 0.92009 0.92471 0.66043 0.0
O267 O 0.92499 0.86451 0.7002 0.0
C268 C 0.88432 0.85829 0.57892 0.0
C269 C 0.98926 0.77459 0.69053 0.0
C270 C 0.02721 0.89415 0.66391 0.0
C271 C 0.90741 0.77463 0.79466 0.0
C272 C 0.82915 0.89676 0.73222 0.0
C273 C 0.94642 0.97872 0.74712 0.0
O274 O 0.88092 0.82332 0.60875 0.0
O275 O 0.99787 0.80224 0.72696 0.0
O276 O 0.99284 0.9026 0.63256 0.0
O277 O 0.88744 0.7703 0.75342 0.0
O278 O 0.85428 0.9311 0.71055 0.0
O279 O 0.94195 0.94184 0.77694 0.0
O280 O 0.82525 0.85381 0.713 0.0
O281 O 0.92851 0.81543 0.80673 0.0
O282 O 0.95885 0.9718 0.70433 0.0
O283 O 0.94883 0.77082 0.66777 0.0
O284 O 0.88625 0.90149 0.59372 0.0
O285 O 0.02053 0.9032 0.70913 0.0
Sc286 Sc 0.12513 0.70129 0.6853 0.0
Sc287 Sc 0.0395 0.64212 0.7561 0.0
Sc288 Sc 0.08888 0.58434 0.66039 0.0
O289 O 0.084 0.64455 0.70016 0.0
C290 C 0.12462 0.65075 0.57886 0.0
C291 C 0.01967 0.73434 0.69049 0.0
C292 C 0.98176 0.61489 0.66393 0.0
C293 C 0.10165 0.73442 0.79462 0.0
C294 C 0.17984 0.6123 0.73214 0.0
C295 C 0.06266 0.53034 0.74709 0.0
O296 O 0.12801 0.68572 0.60869 0.0
O297 O 0.01113 0.70677 0.72699 0.0
O298 O 0.01612 0.60644 0.63256 0.0
O299 O 0.12158 0.73876 0.75337 0.0
O300 O 0.15472 0.57796 0.71048 0.0
O301 O 0.06714 0.56721 0.77691 0.0
O302 O 0.18375 0.65525 0.71292 0.0
O303 O 0.08057 0.69361 0.8067 0.0
O304 O 0.05015 0.53726 0.70432 0.0
O305 O 0.06012 0.73823 0.66777 0.0
O306 O 0.1227 0.60755 0.59367 0.0
O307 O 0.98847 0.60584 0.70915 0.0
Sc308 Sc 0.92021 0.08429 0.84862 0.0
Sc309 Sc 0.9696 0.14213 0.75295 0.0
Sc310 Sc 0.8839 0.20122 0.82372 0.0
O311 O 0.92508 0.14451 0.80886 0.0
C312 C 0.82925 0.11219 0.77685 0.0
C313 C 0.94647 0.03033 0.76191 0.0
C314 C 0.90745 0.2344 0.71442 0.0
C315 C 0.02732 0.11489 0.84511 0.0
C316 C 0.88444 0.15069 0.93015 0.0
C317 C 0.98929 0.23447 0.81852 0.0
O318 O 0.85439 0.07786 0.79852 0.0
O319 O 0.942 0.06721 0.7321 0.0
O320 O 0.88746 0.2387 0.75566 0.0
O321 O 0.99296 0.10641 0.87647 0.0
O322 O 0.88101 0.18566 0.90032 0.0
O323 O 0.99793 0.20681 0.7821 0.0
O324 O 0.88638 0.10749 0.91535 0.0
O325 O 0.02062 0.10585 0.79989 0.0
O326 O 0.94886 0.23822 0.84128 0.0
O327 O 0.95898 0.03724 0.80468 0.0
O328 O 0.82532 0.15514 0.79607 0.0
O329 O 0.92856 0.19362 0.70234 0.0
Sc330 Sc 0.08889 0.42475 0.84858 0.0
Sc331 Sc 0.03948 0.36695 0.75288 0.0
Sc332 Sc 0.12514 0.3078 0.82365 0.0
O333 O 0.084 0.36454 0.8088 0.0
C334 C 0.17982 0.39681 0.77678 0.0
C335 C 0.06266 0.47873 0.76187 0.0
C336 C 0.10156 0.27463 0.71436 0.0
C337 C 0.98178 0.3942 0.84505 0.0
C338 C 0.12469 0.35832 0.93009 0.0
C339 C 0.01968 0.27474 0.81855 0.0
O340 O 0.15473 0.43114 0.79849 0.0
O341 O 0.06711 0.44185 0.73205 0.0
O342 O 0.12151 0.27031 0.7556 0.0
O343 O 0.01614 0.40265 0.87641 0.0
O344 O 0.12812 0.32336 0.90025 0.0
O345 O 0.01111 0.3023 0.78204 0.0
O346 O 0.12269 0.40152 0.91531 0.0
O347 O 0.98848 0.40326 0.79983 0.0
O348 O 0.06014 0.27087 0.84125 0.0
O349 O 0.05017 0.47182 0.80465 0.0
O350 O 0.18372 0.35384 0.79595 0.0
O351 O 0.0805 0.31545 0.70227 0.0
Sc352 Sc 0.68528 0.88384 0.80777 0.0
Sc353 Sc 0.75605 0.96952 0.86692 0.0
Sc354 Sc 0.66035 0.92013 0.92471 0.0
O355 O 0.70013 0.92501 0.8645 0.0
C356 C 0.57883 0.8844 0.85827 0.0
C357 C 0.69053 0.98924 0.77456 0.0
C358 C 0.66388 0.02725 0.89414 0.0
C359 C 0.79459 0.90737 0.77465 0.0
C360 C 0.73211 0.82916 0.89678 0.0
C361 C 0.74704 0.94639 0.97871 0.0
O362 O 0.60867 0.88097 0.82331 0.0
O363 O 0.72694 0.99786 0.80223 0.0
O364 O 0.63252 0.99289 0.90259 0.0
O365 O 0.75336 0.88739 0.77033 0.0
O366 O 0.71045 0.8543 0.93112 0.0
O367 O 0.77686 0.94192 0.94184 0.0
O368 O 0.71288 0.82524 0.85384 0.0
O369 O 0.80667 0.92848 0.81544 0.0
O370 O 0.70427 0.95888 0.97179 0.0
O371 O 0.66775 0.94882 0.77079 0.0
O372 O 0.59363 0.8863 0.90147 0.0
O373 O 0.7091 0.02055 0.90319 0.0
Sc374 Sc 0.34857 0.58886 0.92472 0.0
Sc375 Sc 0.2529 0.5395 0.86684 0.0
Sc376 Sc 0.32367 0.62523 0.8078 0.0
O377 O 0.30882 0.58402 0.86448 0.0
C378 C 0.27679 0.67982 0.89685 0.0
C379 C 0.26185 0.5626 0.97864 0.0
C380 C 0.21438 0.6017 0.77459 0.0
C381 C 0.34506 0.48176 0.89408 0.0
C382 C 0.43011 0.62467 0.85834 0.0
C383 C 0.31847 0.51985 0.7745 0.0
O384 O 0.29847 0.65468 0.93117 0.0
O385 O 0.23204 0.56709 0.94176 0.0
O386 O 0.25562 0.62169 0.7703 0.0
O387 O 0.37642 0.51612 0.90257 0.0
O388 O 0.40028 0.62812 0.82337 0.0
O389 O 0.28205 0.5112 0.80216 0.0
O390 O 0.4153 0.6227 0.90154 0.0
O391 O 0.29983 0.48845 0.90309 0.0
O392 O 0.34124 0.56028 0.77076 0.0
O393 O 0.30461 0.55007 0.97173 0.0
O394 O 0.29602 0.68377 0.85391 0.0
O395 O 0.2023 0.58056 0.81537 0.0
Sc396 Sc 0.66046 0.08889 0.58433 0.0
Sc397 Sc 0.75616 0.03947 0.6421 0.0
Sc398 Sc 0.68539 0.12511 0.70129 0.0
O399 O 0.70024 0.08399 0.64453 0.0
C400 C 0.73223 0.17984 0.6123 0.0
C401 C 0.74716 0.06264 0.53032 0.0
C402 C 0.79469 0.10157 0.73441 0.0
C403 C 0.66398 0.98177 0.61486 0.0
C404 C 0.57895 0.12462 0.65077 0.0
C405 C 0.69051 0.01965 0.73431 0.0
O406 O 0.71056 0.15473 0.57795 0.0
O407 O 0.77698 0.0671 0.56719 0.0
O408 O 0.75345 0.12152 0.73875 0.0
O409 O 0.63262 0.01613 0.60642 0.0
O410 O 0.60878 0.12803 0.68574 0.0
O411 O 0.72702 0.01109 0.70674 0.0
O412 O 0.59375 0.12271 0.60757 0.0
O413 O 0.7092 0.98847 0.60579 0.0
O414 O 0.66782 0.0601 0.7382 0.0
O415 O 0.70438 0.05017 0.53723 0.0
O416 O 0.71303 0.18373 0.65526 0.0
O417 O 0.80678 0.08049 0.69361 0.0
Sc418 Sc 0.3237 0.38396 0.70125 0.0
Sc419 Sc 0.25289 0.46955 0.64203 0.0
Sc420 Sc 0.34861 0.42014 0.58429 0.0
O421 O 0.30883 0.42505 0.64448 0.0
C422 C 0.43013 0.38443 0.65073 0.0
C423 C 0.31853 0.48944 0.73424 0.0
C424 C 0.34506 0.52727 0.61479 0.0
C425 C 0.21438 0.40745 0.73436 0.0
C426 C 0.27685 0.32919 0.61228 0.0
C427 C 0.26192 0.44637 0.53025 0.0
O428 O 0.40029 0.38103 0.68569 0.0
O429 O 0.28201 0.49796 0.70668 0.0
O430 O 0.37643 0.49291 0.60636 0.0
O431 O 0.25564 0.38754 0.73872 0.0
O432 O 0.29853 0.35429 0.57793 0.0
O433 O 0.23209 0.4419 0.56712 0.0
O434 O 0.29606 0.32532 0.65524 0.0
O435 O 0.20229 0.4285 0.69353 0.0
O436 O 0.3047 0.45883 0.53717 0.0
O437 O 0.34125 0.449 0.73814 0.0
O438 O 0.41534 0.38635 0.60753 0.0
O439 O 0.29984 0.52056 0.60573 0.0
Sc440 Sc 0.92469 0.66044 0.92019 0.0
Sc441 Sc 0.86683 0.75612 0.96957 0.0
Sc442 Sc 0.80775 0.68533 0.88386 0.0
O443 O 0.86446 0.70019 0.92505 0.0
C444 C 0.89679 0.73219 0.82922 0.0
C445 C 0.97862 0.74716 0.94645 0.0
C446 C 0.77456 0.79462 0.90739 0.0
C447 C 0.89408 0.66394 0.02729 0.0
C448 C 0.8583 0.5789 0.88443 0.0
C449 C 0.77449 0.69054 0.98925 0.0
O450 O 0.93112 0.71054 0.85436 0.0
O451 O 0.94174 0.77697 0.94197 0.0
O452 O 0.77027 0.75339 0.8874 0.0
O453 O 0.90256 0.63259 0.99293 0.0
O454 O 0.82333 0.60872 0.881 0.0
O455 O 0.80215 0.72697 0.99788 0.0
O456 O 0.9015 0.59371 0.88635 0.0
O457 O 0.90308 0.70917 0.02061 0.0
O458 O 0.77074 0.66777 0.94882 0.0
O459 O 0.97171 0.7044 0.95898 0.0
O460 O 0.85384 0.71296 0.82529 0.0
O461 O 0.81534 0.80671 0.92852 0.0
Sc462 Sc 0.92475 0.34862 0.58892 0.0
Sc463 Sc 0.86694 0.25292 0.53953 0.0
Sc464 Sc 0.80782 0.3237 0.62522 0.0
O465 O 0.86454 0.30884 0.58405 0.0
C466 C 0.89683 0.27685 0.67988 0.0
C467 C 0.97874 0.26191 0.56264 0.0
C468 C 0.77467 0.21439 0.60169 0.0
C469 C 0.89418 0.34507 0.48181 0.0
C470 C 0.85833 0.43014 0.6247 0.0
C471 C 0.77462 0.31849 0.51982 0.0
O472 O 0.93116 0.29852 0.65475 0.0
O473 O 0.94187 0.23209 0.56712 0.0
O474 O 0.77034 0.25564 0.62164 0.0
O475 O 0.90263 0.37644 0.51616 0.0
O476 O 0.82338 0.4003 0.62815 0.0
O477 O 0.80226 0.28205 0.5112 0.0
O478 O 0.90154 0.41535 0.62273 0.0
O479 O 0.90322 0.29985 0.48851 0.0
O480 O 0.77086 0.34127 0.56024 0.0
O481 O 0.97183 0.30469 0.55017 0.0
O482 O 0.85388 0.29606 0.6838 0.0
O483 O 0.81547 0.20231 0.58059 0.0
Sc484 Sc 0.0843 0.16043 0.58884 0.0
Sc485 Sc 0.14216 0.25611 0.53949 0.0
Sc486 Sc 0.20123 0.18533 0.6252 0.0
O487 O 0.14453 0.20019 0.584 0.0
C488 C 0.11219 0.2322 0.67981 0.0
C489 C 0.03036 0.24713 0.5626 0.0
C490 C 0.23441 0.29463 0.60168 0.0
C491 C 0.11493 0.16395 0.48175 0.0
C492 C 0.15069 0.0789 0.62464 0.0
C493 C 0.23449 0.19054 0.51981 0.0
O494 O 0.07786 0.21052 0.65467 0.0
O495 O 0.06724 0.27695 0.56708 0.0
O496 O 0.23872 0.2534 0.62165 0.0
O497 O 0.10645 0.13259 0.5161 0.0
O498 O 0.18565 0.10873 0.62809 0.0
O499 O 0.20684 0.22697 0.51118 0.0
O500 O 0.10749 0.0937 0.62268 0.0
O501 O 0.1059 0.20917 0.48844 0.0
O502 O 0.23824 0.16777 0.56024 0.0
O503 O 0.03727 0.20437 0.55007 0.0
O504 O 0.15513 0.21297 0.68376 0.0
O505 O 0.19363 0.30672 0.58056 0.0
Sc506 Sc 0.58434 0.34859 0.42018 0.0
Sc507 Sc 0.64213 0.2529 0.46959 0.0
Sc508 Sc 0.7013 0.32368 0.38395 0.0
O509 O 0.64455 0.30882 0.42508 0.0
C510 C 0.61229 0.27682 0.32924 0.0
C511 C 0.53036 0.26189 0.44641 0.0
C512 C 0.73444 0.21437 0.40747 0.0
C513 C 0.6149 0.34509 0.5273 0.0
C514 C 0.65077 0.43011 0.38446 0.0
C515 C 0.73436 0.31853 0.48941 0.0
O516 O 0.57795 0.2985 0.35435 0.0
O517 O 0.56723 0.23207 0.44195 0.0
O518 O 0.73877 0.25562 0.38751 0.0
O519 O 0.60644 0.37645 0.49293 0.0
O520 O 0.68574 0.40029 0.38106 0.0
O521 O 0.70678 0.28203 0.49797 0.0
O522 O 0.60756 0.41531 0.38635 0.0
O523 O 0.60585 0.29987 0.5206 0.0
O524 O 0.73825 0.34123 0.44896 0.0
O525 O 0.53727 0.30466 0.45893 0.0
O526 O 0.65524 0.29603 0.32534 0.0
O527 O 0.69364 0.20229 0.42856 0.0
Sc528 Sc 0.62514 0.70127 0.82372 0.0
Sc529 Sc 0.53949 0.64213 0.75292 0.0
Sc530 Sc 0.58887 0.58432 0.84863 0.0
O531 O 0.58399 0.64454 0.80886 0.0
C532 C 0.67982 0.61228 0.77688 0.0
C533 C 0.6017 0.73438 0.71439 0.0
C534 C 0.56265 0.53034 0.76194 0.0
C535 C 0.51974 0.73448 0.81842 0.0
C536 C 0.62455 0.65075 0.93015 0.0
C537 C 0.48177 0.61494 0.84511 0.0
O538 O 0.68376 0.65519 0.79616 0.0
O539 O 0.58056 0.69361 0.70232 0.0
O540 O 0.5501 0.53728 0.80469 0.0
O541 O 0.56015 0.73826 0.84121 0.0
O542 O 0.62273 0.60754 0.91534 0.0
O543 O 0.48845 0.60588 0.79989 0.0
O544 O 0.62794 0.68572 0.90033 0.0
O545 O 0.51114 0.7068 0.78201 0.0
O546 O 0.51612 0.60645 0.87647 0.0
O547 O 0.62166 0.73871 0.75564 0.0
O548 O 0.65469 0.57792 0.79852 0.0
O549 O 0.5671 0.56721 0.73211 0.0
Sc550 Sc 0.38386 0.80775 0.82365 0.0
Sc551 Sc 0.46948 0.86695 0.75286 0.0
Sc552 Sc 0.42007 0.92471 0.84859 0.0
O553 O 0.42498 0.86451 0.80879 0.0
C554 C 0.32915 0.89673 0.77681 0.0
C555 C 0.40733 0.77466 0.71432 0.0
C556 C 0.44628 0.97872 0.76189 0.0
C557 C 0.48933 0.77473 0.81845 0.0
C558 C 0.38438 0.85826 0.93009 0.0
C559 C 0.52718 0.89414 0.84505 0.0
O560 O 0.32524 0.85379 0.79605 0.0
O561 O 0.42844 0.81545 0.70225 0.0
O562 O 0.4588 0.97179 0.80466 0.0
O563 O 0.44889 0.77082 0.84117 0.0
O564 O 0.38624 0.90147 0.9153 0.0
O565 O 0.52049 0.90323 0.79984 0.0
O566 O 0.38099 0.8233 0.90025 0.0
O567 O 0.49788 0.80231 0.78195 0.0
O568 O 0.49283 0.90261 0.87642 0.0
O569 O 0.38741 0.77031 0.75558 0.0
O570 O 0.35424 0.93109 0.79849 0.0
O571 O 0.44184 0.94186 0.73206 0.0
Sc572 Sc 0.58888 0.42476 0.66046 0.0
Sc573 Sc 0.53946 0.36694 0.75615 0.0
Sc574 Sc 0.62515 0.30782 0.68538 0.0
O575 O 0.58399 0.36454 0.70023 0.0
C576 C 0.62464 0.35832 0.57895 0.0
C577 C 0.48178 0.39415 0.66396 0.0
C578 C 0.51975 0.2746 0.69059 0.0
C579 C 0.56264 0.47872 0.74716 0.0
C580 C 0.6798 0.39684 0.73226 0.0
C581 C 0.60162 0.27467 0.79469 0.0
O582 O 0.62271 0.40153 0.59374 0.0
O583 O 0.48846 0.40321 0.70918 0.0
O584 O 0.56018 0.27084 0.66782 0.0
O585 O 0.55012 0.47181 0.7044 0.0
O586 O 0.68374 0.35389 0.71303 0.0
O587 O 0.58048 0.31545 0.80677 0.0
O588 O 0.6547 0.43117 0.71056 0.0
O589 O 0.56708 0.44185 0.77699 0.0
O590 O 0.62158 0.27036 0.75345 0.0
O591 O 0.51614 0.40264 0.6326 0.0
O592 O 0.62807 0.32336 0.60878 0.0
O593 O 0.51112 0.30227 0.72701 0.0
Sc594 Sc 0.42019 0.08429 0.66042 0.0
Sc595 Sc 0.46955 0.1421 0.75614 0.0
Sc596 Sc 0.38392 0.20124 0.68533 0.0
O597 O 0.42506 0.14451 0.70019 0.0
C598 C 0.38448 0.15072 0.57889 0.0
C599 C 0.52729 0.1149 0.66398 0.0
C600 C 0.48936 0.23433 0.69055 0.0
C601 C 0.44633 0.03034 0.74713 0.0
C602 C 0.32925 0.11222 0.73218 0.0
C603 C 0.40738 0.23438 0.79465 0.0
O604 O 0.38638 0.10751 0.59369 0.0
O605 O 0.52059 0.10583 0.7092 0.0
O606 O 0.44892 0.23821 0.66782 0.0
O607 O 0.45893 0.03726 0.70439 0.0
O608 O 0.32532 0.15516 0.71294 0.0
O609 O 0.42849 0.19359 0.80673 0.0
O610 O 0.35435 0.07788 0.71049 0.0
O611 O 0.44188 0.0672 0.77696 0.0
O612 O 0.38744 0.23871 0.75339 0.0
O613 O 0.49295 0.10641 0.6326 0.0
O614 O 0.38106 0.18568 0.60872 0.0
O615 O 0.49793 0.20675 0.72703 0.0
Sc616 Sc 0.82367 0.62522 0.70125 0.0
Sc617 Sc 0.75291 0.53949 0.64218 0.0
Sc618 Sc 0.84859 0.58887 0.58432 0.0
O619 O 0.80883 0.58402 0.64455 0.0
C620 C 0.7768 0.6798 0.6122 0.0
C621 C 0.71436 0.6017 0.73441 0.0
C622 C 0.76188 0.56264 0.5304 0.0
C623 C 0.81844 0.51984 0.73453 0.0
C624 C 0.93011 0.62464 0.65072 0.0
C625 C 0.8451 0.48179 0.61498 0.0
O626 O 0.79606 0.68378 0.65513 0.0
O627 O 0.70229 0.58053 0.69366 0.0
O628 O 0.80463 0.55007 0.53731 0.0
O629 O 0.84121 0.56027 0.73828 0.0
O630 O 0.9153 0.62274 0.60752 0.0
O631 O 0.79988 0.48846 0.60593 0.0
O632 O 0.90028 0.62807 0.68569 0.0
O633 O 0.78204 0.51118 0.70685 0.0
O634 O 0.87645 0.51614 0.60646 0.0
O635 O 0.75559 0.6217 0.73871 0.0
O636 O 0.79848 0.65468 0.57787 0.0
O637 O 0.73206 0.56709 0.56727 0.0
Sc638 Sc 0.16038 0.92016 0.58427 0.0
Sc639 Sc 0.25608 0.96953 0.64211 0.0
Sc640 Sc 0.18529 0.88385 0.70121 0.0
O641 O 0.20015 0.92502 0.6445 0.0
C642 C 0.07886 0.8844 0.65068 0.0
C643 C 0.16391 0.02725 0.61492 0.0
C644 C 0.19056 0.98924 0.73446 0.0
C645 C 0.24709 0.94637 0.53033 0.0
C646 C 0.23216 0.82923 0.61219 0.0
C647 C 0.29461 0.90732 0.73436 0.0
O648 O 0.09366 0.88632 0.60748 0.0
O649 O 0.20913 0.02057 0.60586 0.0
O650 O 0.16777 0.94883 0.73822 0.0
O651 O 0.20434 0.95893 0.53725 0.0
O652 O 0.2129 0.82527 0.65512 0.0
O653 O 0.30669 0.92847 0.69359 0.0
O654 O 0.21048 0.85433 0.57785 0.0
O655 O 0.27691 0.94191 0.5672 0.0
O656 O 0.25336 0.88737 0.73868 0.0
O657 O 0.13254 0.9929 0.60641 0.0
O658 O 0.10869 0.88098 0.68565 0.0
O659 O 0.22697 0.99787 0.70678 0.0
Sc660 Sc 0.84863 0.42012 0.92473 0.0
Sc661 Sc 0.75291 0.46956 0.86701 0.0
Sc662 Sc 0.82369 0.38396 0.80776 0.0
O663 O 0.80883 0.42505 0.86454 0.0
C664 C 0.93013 0.38445 0.85826 0.0
C665 C 0.84509 0.52724 0.8942 0.0
C666 C 0.8185 0.48944 0.77479 0.0
C667 C 0.76195 0.44633 0.97877 0.0
C668 C 0.77687 0.3292 0.89672 0.0
C669 C 0.71436 0.40745 0.77469 0.0
O670 O 0.91534 0.3863 0.90147 0.0
O671 O 0.79989 0.52055 0.90331 0.0
O672 O 0.84122 0.449 0.77087 0.0
O673 O 0.80472 0.45883 0.97185 0.0
O674 O 0.7961 0.32531 0.85377 0.0
O675 O 0.70229 0.42854 0.8155 0.0
O676 O 0.79854 0.35429 0.93108 0.0
O677 O 0.73211 0.4419 0.94191 0.0
O678 O 0.75562 0.38753 0.77033 0.0
O679 O 0.87647 0.49289 0.90265 0.0
O680 O 0.9003 0.38108 0.82329 0.0
O681 O 0.782 0.49798 0.80237 0.0
Sc682 Sc 0.1854 0.12511 0.80779 0.0
Sc683 Sc 0.25619 0.03946 0.86693 0.0
Sc684 Sc 0.16049 0.08887 0.92474 0.0
O685 O 0.20026 0.08397 0.86452 0.0
C686 C 0.23228 0.17978 0.89679 0.0
C687 C 0.29471 0.10161 0.77463 0.0
C688 C 0.2472 0.06266 0.9787 0.0
C689 C 0.19054 0.01964 0.77473 0.0
C690 C 0.07897 0.12461 0.85833 0.0
C691 C 0.164 0.98177 0.89414 0.0
O692 O 0.21305 0.1837 0.85384 0.0
O693 O 0.30679 0.08049 0.81542 0.0
O694 O 0.20444 0.05012 0.97179 0.0
O695 O 0.16784 0.06009 0.77084 0.0
O696 O 0.09377 0.1227 0.90153 0.0
O697 O 0.20922 0.98846 0.90322 0.0
O698 O 0.1088 0.12801 0.82336 0.0
O699 O 0.22704 0.01108 0.80229 0.0
O700 O 0.13264 0.01612 0.90263 0.0
O701 O 0.25345 0.12155 0.7703 0.0
O702 O 0.21059 0.1547 0.93114 0.0
O703 O 0.27703 0.0671 0.94183 0.0
Sc704 Sc 0.5843 0.84861 0.58893 0.0
Sc705 Sc 0.64205 0.75289 0.53947 0.0
Sc706 Sc 0.70127 0.82368 0.62509 0.0
O707 O 0.6445 0.80882 0.584 0.0
C708 C 0.65077 0.93012 0.6246 0.0
C709 C 0.61484 0.84509 0.4818 0.0
C710 C 0.73427 0.81849 0.51962 0.0
C711 C 0.53028 0.76191 0.5627 0.0
C712 C 0.6123 0.77682 0.67983 0.0
C713 C 0.73436 0.71435 0.60159 0.0
O714 O 0.60756 0.91532 0.62274 0.0
O715 O 0.60575 0.79987 0.48849 0.0
O716 O 0.73818 0.84121 0.56006 0.0
O717 O 0.5372 0.80468 0.55021 0.0
O718 O 0.65525 0.79606 0.68373 0.0
O719 O 0.69356 0.70228 0.58049 0.0
O720 O 0.57794 0.79851 0.65475 0.0
O721 O 0.56715 0.73208 0.56713 0.0
O722 O 0.73871 0.75561 0.62152 0.0
O723 O 0.60638 0.87645 0.51616 0.0
O724 O 0.68573 0.90028 0.62798 0.0
O725 O 0.70668 0.782 0.51107 0.0
Sc726 Sc 0.70124 0.18533 0.88382 0.0
Sc727 Sc 0.64218 0.25614 0.96952 0.0
Sc728 Sc 0.5843 0.16045 0.92018 0.0
O729 O 0.64454 0.2002 0.92501 0.0
C730 C 0.61221 0.23221 0.82923 0.0
C731 C 0.73441 0.29465 0.90729 0.0
C732 C 0.5304 0.24717 0.94636 0.0
C733 C 0.73452 0.19059 0.9892 0.0
C734 C 0.65068 0.07891 0.88439 0.0
C735 C 0.61497 0.16398 0.02726 0.0
O736 O 0.65513 0.21294 0.82525 0.0
O737 O 0.69365 0.30673 0.92845 0.0
O738 O 0.53732 0.20443 0.95897 0.0
O739 O 0.73826 0.1678 0.94878 0.0
O740 O 0.60748 0.09372 0.88633 0.0
O741 O 0.60593 0.2092 0.02057 0.0
O742 O 0.68565 0.10873 0.88096 0.0
O743 O 0.70685 0.227 0.99783 0.0
O744 O 0.60645 0.13261 0.99292 0.0
O745 O 0.73872 0.2534 0.88733 0.0
O746 O 0.57787 0.21054 0.85435 0.0
O747 O 0.56727 0.27698 0.9419 0.0
Sc748 Sc 0.3078 0.32367 0.8839 0.0
Sc749 Sc 0.36702 0.2529 0.96952 0.0
Sc750 Sc 0.42476 0.34862 0.9201 0.0
O751 O 0.36456 0.30882 0.92501 0.0
C752 C 0.39677 0.27682 0.8292 0.0
C753 C 0.27472 0.21435 0.90739 0.0
C754 C 0.47878 0.26193 0.9463 0.0
C755 C 0.27479 0.31849 0.98937 0.0
C756 C 0.35829 0.43011 0.88437 0.0
C757 C 0.3942 0.34508 0.02721 0.0
O758 O 0.35383 0.29605 0.82528 0.0
O759 O 0.31552 0.20228 0.92849 0.0
O760 O 0.47186 0.30471 0.95881 0.0
O761 O 0.27088 0.34121 0.94893 0.0
O762 O 0.4015 0.41533 0.88629 0.0
O763 O 0.40331 0.29987 0.02051 0.0
O764 O 0.32333 0.40027 0.88098 0.0
O765 O 0.30237 0.282 0.99792 0.0
O766 O 0.40266 0.37645 0.99286 0.0
O767 O 0.27035 0.2556 0.88748 0.0
O768 O 0.43113 0.29853 0.85426 0.0
O769 O 0.44192 0.2321 0.94187 0.0
Sc770 Sc 0.92474 0.1604 0.08892 0.0
Sc771 Sc 0.86701 0.25612 0.03945 0.0
Sc772 Sc 0.80777 0.18536 0.12507 0.0
O773 O 0.86455 0.20021 0.08398 0.0
C774 C 0.85825 0.07892 0.12458 0.0
C775 C 0.8942 0.16392 0.9818 0.0
C776 C 0.77478 0.19053 0.01959 0.0
C777 C 0.97878 0.24709 0.06268 0.0
C778 C 0.89675 0.2322 0.17981 0.0
C779 C 0.77469 0.29468 0.10156 0.0
O780 O 0.90146 0.0937 0.12274 0.0
O781 O 0.90331 0.20912 0.98848 0.0
O782 O 0.77086 0.16783 0.06004 0.0
O783 O 0.97186 0.20431 0.0502 0.0
O784 O 0.85379 0.21298 0.18371 0.0
O785 O 0.81549 0.30675 0.08046 0.0
O786 O 0.93111 0.2105 0.15474 0.0
O787 O 0.94192 0.27693 0.0671 0.0
O788 O 0.77034 0.25343 0.1215 0.0
O789 O 0.90266 0.13255 0.01616 0.0
O790 O 0.82329 0.10876 0.12797 0.0
O791 O 0.80237 0.22702 0.01104 0.0
Sc792 Sc 0.38387 0.30775 0.18529 0.0
Sc793 Sc 0.46953 0.36688 0.25609 0.0
Sc794 Sc 0.42016 0.42469 0.16039 0.0
O795 O 0.42503 0.36447 0.20016 0.0
C796 C 0.38443 0.35828 0.07886 0.0
C797 C 0.48927 0.27454 0.19056 0.0
C798 C 0.52727 0.39411 0.16391 0.0
C799 C 0.40735 0.27461 0.29461 0.0
C800 C 0.32918 0.39675 0.23213 0.0
C801 C 0.44642 0.47868 0.24709 0.0
O802 O 0.38103 0.3233 0.10868 0.0
O803 O 0.49787 0.3022 0.22698 0.0
O804 O 0.49291 0.40257 0.13255 0.0
O805 O 0.38739 0.27029 0.25337 0.0
O806 O 0.35433 0.43109 0.21049 0.0
O807 O 0.44193 0.4418 0.2769 0.0
O808 O 0.32526 0.35381 0.21288 0.0
O809 O 0.42846 0.31541 0.30669 0.0
O810 O 0.45892 0.47176 0.20431 0.0
O811 O 0.44886 0.27076 0.16777 0.0
O812 O 0.38631 0.40148 0.09367 0.0
O813 O 0.52058 0.40313 0.20913 0.0
Sc814 Sc 0.62517 0.20128 0.18536 0.0
Sc815 Sc 0.53954 0.14208 0.25615 0.0
Sc816 Sc 0.58895 0.08432 0.16043 0.0
O817 O 0.58405 0.14452 0.20022 0.0
C818 C 0.62469 0.15076 0.07892 0.0
C819 C 0.5197 0.23429 0.19052 0.0
C820 C 0.48183 0.11485 0.16397 0.0
C821 C 0.60166 0.23439 0.29468 0.0
C822 C 0.67989 0.11229 0.2322 0.0
C823 C 0.5627 0.0303 0.24713 0.0
O824 O 0.62809 0.18572 0.10876 0.0
O825 O 0.51116 0.20673 0.22704 0.0
O826 O 0.51619 0.10642 0.1326 0.0
O827 O 0.62159 0.23874 0.25342 0.0
O828 O 0.65478 0.07794 0.21052 0.0
O829 O 0.56717 0.06717 0.27695 0.0
O830 O 0.68379 0.15525 0.213 0.0
O831 O 0.58059 0.19358 0.30676 0.0
O832 O 0.55023 0.03722 0.20435 0.0
O833 O 0.56014 0.2382 0.16781 0.0
O834 O 0.62276 0.10755 0.09371 0.0
O835 O 0.48853 0.1058 0.20919 0.0
Sc836 Sc 0.42014 0.58427 0.34858 0.0
Sc837 Sc 0.46956 0.6421 0.2529 0.0
Sc838 Sc 0.38386 0.70121 0.32365 0.0
O839 O 0.42503 0.64449 0.30881 0.0
C840 C 0.3292 0.61218 0.27679 0.0
C841 C 0.44642 0.5303 0.26187 0.0
C842 C 0.40743 0.73438 0.21436 0.0
C843 C 0.52725 0.61485 0.34507 0.0
C844 C 0.38436 0.6507 0.43009 0.0
C845 C 0.48927 0.73442 0.31848 0.0
O846 O 0.35432 0.57786 0.29848 0.0
O847 O 0.44196 0.56717 0.23205 0.0
O848 O 0.38746 0.73869 0.2556 0.0
O849 O 0.49289 0.60639 0.37643 0.0
O850 O 0.38092 0.68566 0.40026 0.0
O851 O 0.49789 0.70677 0.28205 0.0
O852 O 0.38633 0.6075 0.4153 0.0
O853 O 0.52056 0.60581 0.29985 0.0
O854 O 0.44884 0.73818 0.34125 0.0
O855 O 0.45889 0.5372 0.30465 0.0
O856 O 0.32529 0.65514 0.29598 0.0
O857 O 0.42853 0.69359 0.20228 0.0
Sc858 Sc 0.58883 0.92472 0.34862 0.0
Sc859 Sc 0.53948 0.86691 0.2529 0.0
Sc860 Sc 0.62511 0.80778 0.32371 0.0
O861 O 0.58396 0.86451 0.30885 0.0
C862 C 0.67979 0.8968 0.27686 0.0
C863 C 0.56265 0.97869 0.2619 0.0
C864 C 0.60162 0.77462 0.21441 0.0
C865 C 0.48172 0.89416 0.34505 0.0
C866 C 0.62458 0.8583 0.43015 0.0
C867 C 0.51967 0.77469 0.31853 0.0
O868 O 0.65467 0.93113 0.29855 0.0
O869 O 0.56713 0.94181 0.23208 0.0
O870 O 0.62156 0.77029 0.25566 0.0
O871 O 0.51606 0.90261 0.37643 0.0
O872 O 0.62801 0.82334 0.40032 0.0
O873 O 0.51111 0.80226 0.28203 0.0
O874 O 0.62263 0.90151 0.41535 0.0
O875 O 0.48843 0.90319 0.29983 0.0
O876 O 0.56011 0.77081 0.34125 0.0
O877 O 0.5501 0.97178 0.30466 0.0
O878 O 0.68371 0.85385 0.29607 0.0
O879 O 0.58055 0.81542 0.20232 0.0
Sc880 Sc 0.18534 0.3838 0.30777 0.0
Sc881 Sc 0.2561 0.46953 0.36684 0.0
Sc882 Sc 0.16043 0.42015 0.4247 0.0
O883 O 0.20018 0.425 0.36447 0.0
C884 C 0.0789 0.38435 0.3583 0.0
C885 C 0.19054 0.48918 0.2745 0.0
C886 C 0.16392 0.52725 0.39407 0.0
C887 C 0.29464 0.40735 0.27459 0.0
C888 C 0.2322 0.3292 0.39683 0.0
C889 C 0.24713 0.44642 0.47863 0.0
O890 O 0.10873 0.38091 0.32333 0.0
O891 O 0.22695 0.49783 0.30216 0.0
O892 O 0.13257 0.49289 0.40256 0.0
O893 O 0.25341 0.38734 0.27029 0.0
O894 O 0.21053 0.35434 0.43115 0.0
O895 O 0.27695 0.44194 0.44176 0.0
O896 O 0.21298 0.32525 0.35388 0.0
O897 O 0.30672 0.42849 0.31536 0.0
O898 O 0.20437 0.45894 0.47172 0.0
O899 O 0.16778 0.44874 0.27075 0.0
O900 O 0.09371 0.3863 0.4015 0.0
O901 O 0.20915 0.52057 0.40309 0.0
Sc902 Sc 0.84865 0.08886 0.42474 0.0
Sc903 Sc 0.75295 0.0395 0.3669 0.0
Sc904 Sc 0.82374 0.12518 0.30781 0.0
O905 O 0.80889 0.084 0.36452 0.0
C906 C 0.77688 0.17982 0.39684 0.0
C907 C 0.76194 0.06261 0.4787 0.0
C908 C 0.71444 0.10167 0.27464 0.0
C909 C 0.84512 0.98176 0.39414 0.0
C910 C 0.93018 0.12465 0.35834 0.0
C911 C 0.81851 0.01978 0.27456 0.0
O912 O 0.79856 0.15469 0.43117 0.0
O913 O 0.73213 0.0671 0.44182 0.0
O914 O 0.75568 0.12164 0.27033 0.0
O915 O 0.87648 0.01611 0.40261 0.0
O916 O 0.90034 0.12808 0.32338 0.0
O917 O 0.78208 0.01117 0.30222 0.0
O918 O 0.91538 0.12269 0.40155 0.0
O919 O 0.79989 0.98846 0.40316 0.0
O920 O 0.84129 0.0602 0.27081 0.0
O921 O 0.80471 0.0501 0.47179 0.0
O922 O 0.7961 0.18376 0.35389 0.0
O923 O 0.70236 0.08056 0.31543 0.0
Sc924 Sc 0.16038 0.5889 0.08431 0.0
Sc925 Sc 0.2561 0.53946 0.14203 0.0
Sc926 Sc 0.18532 0.62507 0.20127 0.0
O927 O 0.20018 0.58398 0.14449 0.0
C928 C 0.23214 0.67985 0.11231 0.0
C929 C 0.24707 0.56265 0.03026 0.0
C930 C 0.29464 0.60155 0.23436 0.0
C931 C 0.16392 0.48177 0.1148 0.0
C932 C 0.07888 0.6246 0.15077 0.0
C933 C 0.19048 0.51959 0.23424 0.0
O934 O 0.21047 0.65474 0.07796 0.0
O935 O 0.2769 0.56711 0.06712 0.0
O936 O 0.25338 0.62147 0.23872 0.0
O937 O 0.13255 0.51612 0.10638 0.0
O938 O 0.10871 0.62798 0.18573 0.0
O939 O 0.22699 0.51105 0.20667 0.0
O940 O 0.09367 0.6227 0.10756 0.0
O941 O 0.20913 0.48847 0.10572 0.0
O942 O 0.16777 0.56003 0.23816 0.0
O943 O 0.20428 0.5502 0.03717 0.0
O944 O 0.21294 0.68372 0.15527 0.0
O945 O 0.30672 0.58049 0.19354 0.0
Sc946 Sc 0.82364 0.88391 0.20125 0.0
Sc947 Sc 0.75285 0.96956 0.14211 0.0
Sc948 Sc 0.84854 0.92016 0.0843 0.0
O949 O 0.80877 0.92505 0.14451 0.0
C950 C 0.93006 0.88438 0.1507 0.0
C951 C 0.81853 0.98938 0.2343 0.0
C952 C 0.84502 0.02727 0.11485 0.0
C953 C 0.71434 0.90743 0.23442 0.0
C954 C 0.77676 0.82922 0.11224 0.0
C955 C 0.76183 0.9464 0.03033 0.0
O956 O 0.90023 0.88097 0.18567 0.0
O957 O 0.782 0.99793 0.20675 0.0
O958 O 0.87638 0.99291 0.1064 0.0
O959 O 0.75559 0.8875 0.23875 0.0
O960 O 0.79845 0.85432 0.0779 0.0
O961 O 0.73201 0.94193 0.0672 0.0
O962 O 0.79595 0.82532 0.1552 0.0
O963 O 0.70225 0.92852 0.19362 0.0
O964 O 0.8046 0.9589 0.03723 0.0
O965 O 0.84122 0.94892 0.23818 0.0
O966 O 0.91527 0.88634 0.1075 0.0
O967 O 0.7998 0.02057 0.10582 0.0
Sc968 Sc 0.42471 0.16041 0.4201 0.0
Sc969 Sc 0.36696 0.25612 0.46955 0.0
Sc970 Sc 0.30775 0.18533 0.38393 0.0
O971 O 0.36452 0.20019 0.42503 0.0
C972 C 0.39673 0.23218 0.32917 0.0
C973 C 0.47874 0.24711 0.44637 0.0
C974 C 0.27464 0.29464 0.40746 0.0
C975 C 0.39421 0.16394 0.52724 0.0
C976 C 0.35826 0.07889 0.3844 0.0
C977 C 0.27475 0.19049 0.4894 0.0
O978 O 0.43108 0.2105 0.35427 0.0
O979 O 0.44187 0.27693 0.44191 0.0
O980 O 0.27029 0.25339 0.38752 0.0
O981 O 0.40264 0.13257 0.49287 0.0
O982 O 0.32329 0.10873 0.381 0.0
O983 O 0.30232 0.227 0.49795 0.0
O984 O 0.40146 0.09368 0.3863 0.0
O985 O 0.40327 0.20916 0.52054 0.0
O986 O 0.27084 0.16778 0.44896 0.0
O987 O 0.47183 0.20432 0.45881 0.0
O988 O 0.35376 0.21298 0.32529 0.0
O989 O 0.31545 0.30673 0.42852 0.0
Sc990 Sc 0.42471 0.84858 0.08885 0.0
Sc991 Sc 0.36683 0.7529 0.03951 0.0
Sc992 Sc 0.30778 0.82371 0.12522 0.0
O993 O 0.36447 0.80884 0.08401 0.0
C994 C 0.39681 0.77683 0.17982 0.0
C995 C 0.47862 0.76186 0.06262 0.0
C996 C 0.27458 0.7144 0.10171 0.0
C997 C 0.39408 0.84505 0.98175 0.0
C998 C 0.35835 0.93013 0.12466 0.0
C999 C 0.27451 0.81848 0.01983 0.0
O1000 O 0.43114 0.79849 0.15468 0.0
O1001 O 0.44174 0.73205 0.06711 0.0
O1002 O 0.27028 0.75565 0.12167 0.0
O1003 O 0.40257 0.87641 0.0161 0.0
O1004 O 0.32337 0.90031 0.12811 0.0
O1005 O 0.30215 0.78205 0.01121 0.0
O1006 O 0.40154 0.91532 0.12268 0.0
O1007 O 0.40309 0.79982 0.98845 0.0
O1008 O 0.27077 0.84126 0.06026 0.0
O1009 O 0.47171 0.80461 0.05007 0.0
O1010 O 0.35387 0.79606 0.18377 0.0
O1011 O 0.31536 0.70231 0.08059 0.0
Sc1012 Sc 0.58428 0.66039 0.08893 0.0
Sc1013 Sc 0.64202 0.75612 0.03951 0.0
Sc1014 Sc 0.70123 0.68534 0.12513 0.0
O1015 O 0.64447 0.70019 0.08402 0.0
C1016 C 0.61225 0.73218 0.17985 0.0
C1017 C 0.53024 0.74708 0.06268 0.0
C1018 C 0.73433 0.79465 0.10161 0.0
C1019 C 0.61479 0.66394 0.98181 0.0
C1020 C 0.65073 0.5789 0.12468 0.0
C1021 C 0.73423 0.69049 0.01966 0.0
O1022 O 0.5779 0.71048 0.15476 0.0
O1023 O 0.56711 0.77691 0.06715 0.0
O1024 O 0.73869 0.7534 0.12153 0.0
O1025 O 0.60637 0.63257 0.01616 0.0
O1026 O 0.68569 0.60874 0.12809 0.0
O1027 O 0.70667 0.727 0.01112 0.0
O1028 O 0.60752 0.59367 0.12272 0.0
O1029 O 0.60572 0.70916 0.98851 0.0
O1030 O 0.73814 0.66778 0.0601 0.0
O1031 O 0.53715 0.7043 0.05023 0.0
O1032 O 0.65521 0.71299 0.18375 0.0
O1033 O 0.69351 0.80673 0.08055 0.0
Sc1034 Sc 0.0843 0.84863 0.92011 0.0
Sc1035 Sc 0.14202 0.75292 0.96957 0.0
Sc1036 Sc 0.20126 0.82368 0.88394 0.0
O1037 O 0.14448 0.80883 0.92504 0.0
C1038 C 0.11227 0.77684 0.82919 0.0
C1039 C 0.03024 0.76194 0.94639 0.0
C1040 C 0.23436 0.71437 0.90749 0.0
C1041 C 0.1148 0.84511 0.02724 0.0
C1042 C 0.15077 0.93012 0.8844 0.0
C1043 C 0.23425 0.81854 0.98943 0.0
O1044 O 0.07793 0.79853 0.85428 0.0
O1045 O 0.06711 0.73211 0.94193 0.0
O1046 O 0.23871 0.75562 0.88755 0.0
O1047 O 0.10637 0.87648 0.99288 0.0
O1048 O 0.18573 0.90028 0.88101 0.0
O1049 O 0.20667 0.78204 0.99797 0.0
O1050 O 0.10756 0.91534 0.8863 0.0
O1051 O 0.10572 0.7999 0.02055 0.0
O1052 O 0.23816 0.84124 0.94897 0.0
O1053 O 0.03716 0.80474 0.95882 0.0
O1054 O 0.15524 0.79603 0.82531 0.0
O1055 O 0.19354 0.70229 0.92856 0.0
loop_
_geom_bond_atom_site_label_1
_geom_bond_atom_site_label_2
_geom_bond_distance
_geom_bond_site_symmetry_2
_ccdc_geom_bond_type
Sc0 O3 2.025 . S
Sc0 O10 2.105 . S
Sc0 O13 2.105 . S
Sc0 O16 2.105 . S
Sc0 O19 2.105 . S
Sc1 O3 2.025 . S
Sc1 O11 2.105 . S
Sc1 O15 2.105 1_455 S
Sc1 O17 2.105 1_455 S
Sc1 O21 2.105 . S
Sc2 O3 2.025 . S
Sc2 O12 2.105 . S
Sc2 O14 2.105 . S
Sc2 O18 2.105 . S
Sc2 O20 2.105 . S
O3 Sc0 2.025 . S
O3 Sc1 2.025 . S
O3 Sc2 2.025 . S
C4 O10 1.268 . S
C4 O20 1.268 . S
C5 O11 1.268 . S
C5 O19 1.268 . S
C6 O12 1.268 . S
C6 O21 1.268 . S
C7 O13 1.268 . S
C7 O17 1.268 1_455 S
C8 O14 1.268 . S
C8 O16 1.268 . S
C9 O15 1.268 . S
C9 O18 1.268 1_655 S
O10 Sc0 2.105 . S
O10 C4 1.268 . S
O11 Sc1 2.105 . S
O11 C5 1.268 . S
O12 Sc2 2.105 . S
O12 C6 1.268 . S
O13 Sc0 2.105 . S
O13 C7 1.268 . S
O14 Sc2 2.105 . S
O14 C8 1.268 . S
O15 Sc1 2.105 1_655 S
O15 C9 1.268 . S
O16 Sc0 2.105 . S
O16 C8 1.268 . S
O17 Sc1 2.105 1_655 S
O17 C7 1.268 1_655 S
O18 Sc2 2.105 . S
O18 C9 1.268 1_455 S
O19 Sc0 2.105 . S
O19 C5 1.268 . S
O20 Sc2 2.105 . S
O20 C4 1.268 . S
O21 Sc1 2.105 . S
O21 C6 1.268 . S
Sc22 O25 2.025 . S
Sc22 O32 2.105 . S
Sc22 O35 2.105 . S
Sc22 O38 2.105 . S
Sc22 O41 2.105 . S
Sc23 O25 2.025 . S
Sc23 O33 2.105 . S
Sc23 O37 2.105 1_655 S
Sc23 O39 2.105 1_655 S
Sc23 O43 2.105 . S
Sc24 O25 2.025 . S
Sc24 O34 2.105 . S
Sc24 O36 2.105 . S
Sc24 O40 2.105 . S
Sc24 O42 2.105 . S
O25 Sc22 2.025 . S
O25 Sc23 2.025 . S
O25 Sc24 2.025 . S
C26 O32 1.268 . S
C26 O42 1.268 . S
C27 O33 1.268 . S
C27 O41 1.268 . S
C28 O34 1.268 . S
C28 O43 1.268 . S
C29 O35 1.268 . S
C29 O39 1.268 1_655 S
C30 O36 1.268 . S
C30 O38 1.268 . S
C31 O37 1.268 . S
C31 O40 1.268 1_455 S
O32 Sc22 2.105 . S
O32 C26 1.268 . S
O33 Sc23 2.105 . S
O33 C27 1.268 . S
O34 Sc24 2.105 . S
O34 C28 1.268 . S
O35 Sc22 2.105 . S
O35 C29 1.268 . S
O36 Sc24 2.105 . S
O36 C30 1.268 . S
O37 Sc23 2.105 1_455 S
O37 C31 1.268 . S
O38 Sc22 2.105 . S
O38 C30 1.268 . S
O39 Sc23 2.105 1_455 S
O39 C29 1.268 1_455 S
O40 Sc24 2.105 . S
O40 C31 1.268 1_655 S
O41 Sc22 2.105 . S
O41 C27 1.268 . S
O42 Sc24 2.105 . S
O42 C26 1.268 . S
O43 Sc23 2.105 . S
O43 C28 1.268 . S
Sc44 O47 2.025 . S
Sc44 O54 2.105 . S
Sc44 O57 2.105 . S
Sc44 O60 2.105 . S
Sc44 O63 2.105 . S
Sc45 O47 2.025 . S
Sc45 O55 2.105 1_455 S
Sc45 O59 2.105 . S
Sc45 O61 2.105 . S
Sc45 O65 2.105 1_455 S
Sc46 O47 2.025 . S
Sc46 O56 2.105 . S
Sc46 O58 2.105 . S
Sc46 O62 2.105 . S
Sc46 O64 2.105 . S
O47 Sc44 2.025 . S
O47 Sc45 2.025 . S
O47 Sc46 2.025 . S
C48 O54 1.268 . S
C48 O64 1.268 . S
C49 O55 1.268 . S
C49 O63 1.268 1_655 S
C50 O56 1.268 . S
C50 O65 1.268 1_455 S
C51 O57 1.268 . S
C51 O61 1.268 . S
C52 O58 1.268 . S
C52 O60 1.268 . S
C53 O59 1.268 . S
C53 O62 1.268 . S
O54 Sc44 2.105 . S
O54 C48 1.268 . S
O55 Sc45 2.105 1_655 S
O55 C49 1.268 . S
O56 Sc46 2.105 . S
O56 C50 1.268 . S
O57 Sc44 2.105 . S
O57 C51 1.268 . S
O58 Sc46 2.105 . S
O58 C52 1.268 . S
O59 Sc45 2.105 . S
O59 C53 1.268 . S
O60 Sc44 2.105 . S
O60 C52 1.268 . S
O61 Sc45 2.105 . S
O61 C51 1.268 . S
O62 Sc46 2.105 . S
O62 C53 1.268 . S
O63 Sc44 2.105 . S
O63 C49 1.268 1_455 S
O64 Sc46 2.105 . S
O64 C48 1.268 . S
O65 Sc45 2.105 1_655 S
O65 C50 1.268 1_655 S
Sc66 O69 2.025 . S
Sc66 O76 2.105 . S
Sc66 O79 2.105 . S
Sc66 O82 2.105 . S
Sc66 O85 2.105 . S
Sc67 O69 2.025 . S
Sc67 O77 2.105 1_655 S
Sc67 O81 2.105 . S
Sc67 O83 2.105 . S
Sc67 O87 2.105 1_655 S
Sc68 O69 2.025 . S
Sc68 O78 2.105 . S
Sc68 O80 2.105 . S
Sc68 O84 2.105 . S
Sc68 O86 2.105 . S
O69 Sc66 2.025 . S
O69 Sc67 2.025 . S
O69 Sc68 2.025 . S
C70 O76 1.268 . S
C70 O86 1.268 . S
C71 O77 1.268 . S
C71 O85 1.268 1_455 S
C72 O78 1.268 . S
C72 O87 1.268 1_655 S
C73 O79 1.268 . S
C73 O83 1.268 . S
C74 O80 1.268 . S
C74 O82 1.268 . S
C75 O81 1.268 . S
C75 O84 1.268 . S
O76 Sc66 2.105 . S
O76 C70 1.268 . S
O77 Sc67 2.105 1_455 S
O77 C71 1.268 . S
O78 Sc68 2.105 . S
O78 C72 1.268 . S
O79 Sc66 2.105 . S
O79 C73 1.268 . S
O80 Sc68 2.105 . S
O80 C74 1.268 . S
O81 Sc67 2.105 . S
O81 C75 1.268 . S
O82 Sc66 2.105 . S
O82 C74 1.268 . S
O83 Sc67 2.105 . S
O83 C73 1.268 . S
O84 Sc68 2.105 . S
O84 C75 1.268 . S
O85 Sc66 2.105 . S
O85 C71 1.268 1_655 S
O86 Sc68 2.105 . S
O86 C70 1.268 . S
O87 Sc67 2.105 1_455 S
O87 C72 1.268 1_455 S
Sc88 O91 2.025 . S
Sc88 O98 2.105 . S
Sc88 O101 2.105 . S
Sc88 O104 2.105 . S
Sc88 O107 2.105 . S
Sc89 O91 2.025 . S
Sc89 O99 2.105 . S
Sc89 O103 2.105 1_545 S
Sc89 O105 2.105 1_545 S
Sc89 O109 2.105 . S
Sc90 O91 2.025 . S
Sc90 O100 2.105 . S
Sc90 O102 2.105 . S
Sc90 O106 2.105 . S
Sc90 O108 2.105 . S
O91 Sc88 2.025 . S
O91 Sc89 2.025 . S
O91 Sc90 2.025 . S
C92 O98 1.268 . S
C92 O108 1.268 . S
C93 O99 1.268 . S
C93 O107 1.268 . S
C94 O100 1.268 . S
C94 O109 1.268 . S
C95 O101 1.268 . S
C95 O105 1.268 1_545 S
C96 O102 1.268 . S
C96 O104 1.268 . S
C97 O103 1.268 . S
C97 O106 1.268 1_565 S
O98 Sc88 2.105 . S
O98 C92 1.268 . S
O99 Sc89 2.105 . S
O99 C93 1.268 . S
O100 Sc90 2.105 . S
O100 C94 1.268 . S
O101 Sc88 2.105 . S
O101 C95 1.268 . S
O102 Sc90 2.105 . S
O102 C96 1.268 . S
O103 Sc89 2.105 1_565 S
O103 C97 1.268 . S
O104 Sc88 2.105 . S
O104 C96 1.268 . S
O105 Sc89 2.105 1_565 S
O105 C95 1.268 1_565 S
O106 Sc90 2.105 . S
O106 C97 1.268 1_545 S
O107 Sc88 2.105 . S
O107 C93 1.268 . S
O108 Sc90 2.105 . S
O108 C92 1.268 . S
O109 Sc89 2.105 . S
O109 C94 1.268 . S
Sc110 O113 2.025 . S
Sc110 O120 2.105 . S
Sc110 O123 2.105 . S
Sc110 O126 2.105 . S
Sc110 O129 2.105 . S
Sc111 O113 2.025 . S
Sc111 O121 2.105 . S
Sc111 O125 2.105 . S
Sc111 O127 2.105 . S
Sc111 O131 2.105 . S
Sc112 O113 2.025 . S
Sc112 O122 2.105 . S
Sc112 O124 2.105 . S
Sc112 O128 2.105 . S
Sc112 O130 2.105 . S
O113 Sc110 2.025 . S
O113 Sc111 2.025 . S
O113 Sc112 2.025 . S
C114 O120 1.268 . S
C114 O130 1.268 . S
C115 O121 1.268 . S
C115 O129 1.268 . S
C116 O122 1.268 . S
C116 O131 1.268 . S
C117 O123 1.268 . S
C117 O127 1.268 . S
C118 O124 1.268 . S
C118 O126 1.268 . S
C119 O125 1.268 . S
C119 O128 1.268 . S
O120 Sc110 2.105 . S
O120 C114 1.268 . S
O121 Sc111 2.105 . S
O121 C115 1.268 . S
O122 Sc112 2.105 . S
O122 C116 1.268 . S
O123 Sc110 2.105 . S
O123 C117 1.268 . S
O124 Sc112 2.105 . S
O124 C118 1.268 . S
O125 Sc111 2.105 . S
O125 C119 1.268 . S
O126 Sc110 2.105 . S
O126 C118 1.268 . S
O127 Sc111 2.105 . S
O127 C117 1.268 . S
O128 Sc112 2.105 . S
O128 C119 1.268 . S
O129 Sc110 2.105 . S
O129 C115 1.268 . S
O130 Sc112 2.105 . S
O130 C114 1.268 . S
O131 Sc111 2.105 . S
O131 C116 1.268 . S
Sc132 O135 2.025 . S
Sc132 O142 2.105 . S
Sc132 O145 2.105 . S
Sc132 O148 2.105 . S
Sc132 O151 2.105 . S
Sc133 O135 2.025 . S
Sc133 O143 2.105 1_565 S
Sc133 O147 2.105 . S
Sc133 O149 2.105 . S
Sc133 O153 2.105 1_565 S
Sc134 O135 2.025 . S
Sc134 O144 2.105 . S
Sc134 O146 2.105 . S
Sc134 O150 2.105 . S
Sc134 O152 2.105 . S
O135 Sc132 2.025 . S
O135 Sc133 2.025 . S
O135 Sc134 2.025 . S
C136 O142 1.268 . S
C136 O152 1.268 . S
C137 O143 1.268 . S
C137 O151 1.268 1_545 S
C138 O144 1.268 . S
C138 O153 1.268 1_565 S
C139 O145 1.268 . S
C139 O149 1.268 . S
C140 O146 1.268 . S
C140 O148 1.268 . S
C141 O147 1.268 . S
C141 O150 1.268 . S
O142 Sc132 2.105 . S
O142 C136 1.268 . S
O143 Sc133 2.105 1_545 S
O143 C137 1.268 . S
O144 Sc134 2.105 . S
O144 C138 1.268 . S
O145 Sc132 2.105 . S
O145 C139 1.268 . S
O146 Sc134 2.105 . S
O146 C140 1.268 . S
O147 Sc133 2.105 . S
O147 C141 1.268 . S
O148 Sc132 2.105 . S
O148 C140 1.268 . S
O149 Sc133 2.105 . S
O149 C139 1.268 . S
O150 Sc134 2.105 . S
O150 C141 1.268 . S
O151 Sc132 2.105 . S
O151 C137 1.268 1_565 S
O152 Sc134 2.105 . S
O152 C136 1.268 . S
O153 Sc133 2.105 1_545 S
O153 C138 1.268 1_545 S
Sc154 O157 2.025 . S
Sc154 O164 2.105 . S
Sc154 O167 2.105 . S
Sc154 O170 2.105 . S
Sc154 O173 2.105 . S
Sc155 O157 2.025 . S
Sc155 O165 2.105 . S
Sc155 O169 2.105 . S
Sc155 O171 2.105 . S
Sc155 O175 2.105 . S
Sc156 O157 2.025 . S
Sc156 O166 2.105 . S
Sc156 O168 2.105 . S
Sc156 O172 2.105 . S
Sc156 O174 2.105 . S
O157 Sc154 2.025 . S
O157 Sc155 2.025 . S
O157 Sc156 2.025 . S
C158 O164 1.268 . S
C158 O174 1.268 . S
C159 O165 1.268 . S
C159 O173 1.268 . S
C160 O166 1.268 . S
C160 O175 1.268 . S
C161 O167 1.268 . S
C161 O171 1.268 . S
C162 O168 1.268 . S
C162 O170 1.268 . S
C163 O169 1.268 . S
C163 O172 1.268 . S
O164 Sc154 2.105 . S
O164 C158 1.268 . S
O165 Sc155 2.105 . S
O165 C159 1.268 . S
O166 Sc156 2.105 . S
O166 C160 1.268 . S
O167 Sc154 2.105 . S
O167 C161 1.268 . S
O168 Sc156 2.105 . S
O168 C162 1.268 . S
O169 Sc155 2.105 . S
O169 C163 1.268 . S
O170 Sc154 2.105 . S
O170 C162 1.268 . S
O171 Sc155 2.105 . S
O171 C161 1.268 . S
O172 Sc156 2.105 . S
O172 C163 1.268 . S
O173 Sc154 2.105 . S
O173 C159 1.268 . S
O174 Sc156 2.105 . S
O174 C158 1.268 . S
O175 Sc155 2.105 . S
O175 C160 1.268 . S
Sc176 O179 2.025 . S
Sc176 O186 2.105 . S
Sc176 O189 2.105 . S
Sc176 O192 2.105 . S
Sc176 O195 2.105 . S
Sc177 O179 2.025 . S
Sc177 O187 2.105 1_554 S
Sc177 O191 2.105 . S
Sc177 O193 2.105 . S
Sc177 O197 2.105 1_554 S
Sc178 O179 2.025 . S
Sc178 O188 2.105 . S
Sc178 O190 2.105 . S
Sc178 O194 2.105 . S
Sc178 O196 2.105 . S
O179 Sc176 2.025 . S
O179 Sc177 2.025 . S
O179 Sc178 2.025 . S
C180 O186 1.268 . S
C180 O196 1.268 . S
C181 O187 1.268 . S
C181 O195 1.268 1_556 S
C182 O188 1.268 . S
C182 O197 1.268 1_554 S
C183 O189 1.268 . S
C183 O193 1.268 . S
C184 O190 1.268 . S
C184 O192 1.268 . S
C185 O191 1.268 . S
C185 O194 1.268 . S
O186 Sc176 2.105 . S
O186 C180 1.268 . S
O187 Sc177 2.105 1_556 S
O187 C181 1.268 . S
O188 Sc178 2.105 . S
O188 C182 1.268 . S
O189 Sc176 2.105 . S
O189 C183 1.268 . S
O190 Sc178 2.105 . S
O190 C184 1.268 . S
O191 Sc177 2.105 . S
O191 C185 1.268 . S
O192 Sc176 2.105 . S
O192 C184 1.268 . S
O193 Sc177 2.105 . S
O193 C183 1.268 . S
O194 Sc178 2.105 . S
O194 C185 1.268 . S
O195 Sc176 2.105 . S
O195 C181 1.268 1_554 S
O196 Sc178 2.105 . S
O196 C180 1.268 . S
O197 Sc177 2.105 1_556 S
O197 C182 1.268 1_556 S
Sc198 O201 2.025 . S
Sc198 O208 2.105 . S
Sc198 O211 2.105 . S
Sc198 O214 2.105 . S
Sc198 O217 2.105 . S
Sc199 O201 2.025 . S
Sc199 O209 2.105 . S
Sc199 O213 2.105 . S
Sc199 O215 2.105 . S
Sc199 O219 2.105 . S
Sc200 O201 2.025 . S
Sc200 O210 2.105 . S
Sc200 O212 2.105 . S
Sc200 O216 2.105 . S
Sc200 O218 2.105 . S
O201 Sc198 2.025 . S
O201 Sc199 2.025 . S
O201 Sc200 2.025 . S
C202 O208 1.268 . S
C202 O218 1.268 . S
C203 O209 1.268 . S
C203 O217 1.268 . S
C204 O210 1.268 . S
C204 O219 1.268 . S
C205 O211 1.268 . S
C205 O215 1.268 . S
C206 O212 1.268 . S
C206 O214 1.268 . S
C207 O213 1.268 . S
C207 O216 1.268 . S
O208 Sc198 2.105 . S
O208 C202 1.268 . S
O209 Sc199 2.105 . S
O209 C203 1.268 . S
O210 Sc200 2.105 . S
O210 C204 1.268 . S
O211 Sc198 2.105 . S
O211 C205 1.268 . S
O212 Sc200 2.105 . S
O212 C206 1.268 . S
O213 Sc199 2.105 . S
O213 C207 1.268 . S
O214 Sc198 2.105 . S
O214 C206 1.268 . S
O215 Sc199 2.105 . S
O215 C205 1.268 . S
O216 Sc200 2.105 . S
O216 C207 1.268 . S
O217 Sc198 2.105 . S
O217 C203 1.268 . S
O218 Sc200 2.105 . S
O218 C202 1.268 . S
O219 Sc199 2.105 . S
O219 C204 1.268 . S
Sc220 O223 2.025 . S
Sc220 O230 2.105 . S
Sc220 O233 2.105 . S
Sc220 O236 2.105 . S
Sc220 O239 2.105 . S
Sc221 O223 2.025 . S
Sc221 O231 2.105 . S
Sc221 O235 2.105 . S
Sc221 O237 2.105 . S
Sc221 O241 2.105 . S
Sc222 O223 2.025 . S
Sc222 O232 2.105 . S
Sc222 O234 2.105 . S
Sc222 O238 2.105 . S
Sc222 O240 2.105 . S
O223 Sc220 2.025 . S
O223 Sc221 2.025 . S
O223 Sc222 2.025 . S
C224 O230 1.268 . S
C224 O240 1.268 . S
C225 O231 1.268 . S
C225 O239 1.268 . S
C226 O232 1.268 . S
C226 O241 1.268 . S
C227 O233 1.268 . S
C227 O237 1.268 . S
C228 O234 1.268 . S
C228 O236 1.268 . S
C229 O235 1.268 . S
C229 O238 1.268 . S
O230 Sc220 2.105 . S
O230 C224 1.268 . S
O231 Sc221 2.105 . S
O231 C225 1.268 . S
O232 Sc222 2.105 . S
O232 C226 1.268 . S
O233 Sc220 2.105 . S
O233 C227 1.268 . S
O234 Sc222 2.105 . S
O234 C228 1.268 . S
O235 Sc221 2.105 . S
O235 C229 1.268 . S
O236 Sc220 2.105 . S
O236 C228 1.268 . S
O237 Sc221 2.105 . S
O237 C227 1.268 . S
O238 Sc222 2.105 . S
O238 C229 1.268 . S
O239 Sc220 2.105 . S
O239 C225 1.268 . S
O240 Sc222 2.105 . S
O240 C224 1.268 . S
O241 Sc221 2.105 . S
O241 C226 1.268 . S
Sc242 O245 2.025 . S
Sc242 O252 2.105 . S
Sc242 O255 2.105 . S
Sc242 O258 2.105 . S
Sc242 O261 2.105 . S
Sc243 O245 2.025 . S
Sc243 O253 2.105 . S
Sc243 O257 2.105 . S
Sc243 O259 2.105 . S
Sc243 O263 2.105 . S
Sc244 O245 2.025 . S
Sc244 O254 2.105 . S
Sc244 O256 2.105 . S
Sc244 O260 2.105 . S
Sc244 O262 2.105 . S
O245 Sc242 2.025 . S
O245 Sc243 2.025 . S
O245 Sc244 2.025 . S
C246 O252 1.268 . S
C246 O262 1.268 . S
C247 O253 1.268 . S
C247 O261 1.268 . S
C248 O254 1.268 . S
C248 O263 1.268 . S
C249 O255 1.268 . S
C249 O259 1.268 . S
C250 O256 1.268 . S
C250 O258 1.268 . S
C251 O257 1.268 . S
C251 O260 1.268 . S
O252 Sc242 2.105 . S
O252 C246 1.268 . S
O253 Sc243 2.105 . S
O253 C247 1.268 . S
O254 Sc244 2.105 . S
O254 C248 1.268 . S
O255 Sc242 2.105 . S
O255 C249 1.268 . S
O256 Sc244 2.105 . S
O256 C250 1.268 . S
O257 Sc243 2.105 . S
O257 C251 1.268 . S
O258 Sc242 2.105 . S
O258 C250 1.268 . S
O259 Sc243 2.105 . S
O259 C249 1.268 . S
O260 Sc244 2.105 . S
O260 C251 1.268 . S
O261 Sc242 2.105 . S
O261 C247 1.268 . S
O262 Sc244 2.105 . S
O262 C246 1.268 . S
O263 Sc243 2.105 . S
O263 C248 1.268 . S
Sc264 O267 2.025 . S
Sc264 O274 2.105 . S
Sc264 O277 2.105 . S
Sc264 O280 2.105 . S
Sc264 O283 2.105 . S
Sc265 O267 2.025 . S
Sc265 O275 2.105 1_655 S
Sc265 O279 2.105 . S
Sc265 O281 2.105 . S
Sc265 O285 2.105 1_655 S
Sc266 O267 2.025 . S
Sc266 O276 2.105 . S
Sc266 O278 2.105 . S
Sc266 O282 2.105 . S
Sc266 O284 2.105 . S
O267 Sc264 2.025 . S
O267 Sc265 2.025 . S
O267 Sc266 2.025 . S
C268 O274 1.268 . S
C268 O284 1.268 . S
C269 O275 1.268 1_655 S
C269 O283 1.268 . S
C270 O276 1.268 1_455 S
C270 O285 1.268 . S
C271 O277 1.268 . S
C271 O281 1.268 . S
C272 O278 1.268 . S
C272 O280 1.268 . S
C273 O279 1.268 . S
C273 O282 1.268 . S
O274 Sc264 2.105 . S
O274 C268 1.268 . S
O275 Sc265 2.105 1_455 S
O275 C269 1.268 1_455 S
O276 Sc266 2.105 . S
O276 C270 1.268 1_655 S
O277 Sc264 2.105 . S
O277 C271 1.268 . S
O278 Sc266 2.105 . S
O278 C272 1.268 . S
O279 Sc265 2.105 . S
O279 C273 1.268 . S
O280 Sc264 2.105 . S
O280 C272 1.268 . S
O281 Sc265 2.105 . S
O281 C271 1.268 . S
O282 Sc266 2.105 . S
O282 C273 1.268 . S
O283 Sc264 2.105 . S
O283 C269 1.268 . S
O284 Sc266 2.105 . S
O284 C268 1.268 . S
O285 Sc265 2.105 1_455 S
O285 C270 1.268 . S
Sc286 O289 2.025 . S
Sc286 O296 2.105 . S
Sc286 O299 2.105 . S
Sc286 O302 2.105 . S
Sc286 O305 2.105 . S
Sc287 O289 2.025 . S
Sc287 O297 2.105 1_455 S
Sc287 O301 2.105 . S
Sc287 O303 2.105 . S
Sc287 O307 2.105 1_455 S
Sc288 O289 2.025 . S
Sc288 O298 2.105 . S
Sc288 O300 2.105 . S
Sc288 O304 2.105 . S
Sc288 O306 2.105 . S
O289 Sc286 2.025 . S
O289 Sc287 2.025 . S
O289 Sc288 2.025 . S
C290 O296 1.268 . S
C290 O306 1.268 . S
C291 O297 1.268 1_455 S
C291 O305 1.268 . S
C292 O298 1.268 1_655 S
C292 O307 1.268 . S
C293 O299 1.268 . S
C293 O303 1.268 . S
C294 O300 1.268 . S
C294 O302 1.268 . S
C295 O301 1.268 . S
C295 O304 1.268 . S
O296 Sc286 2.105 . S
O296 C290 1.268 . S
O297 Sc287 2.105 1_655 S
O297 C291 1.268 1_655 S
O298 Sc288 2.105 . S
O298 C292 1.268 1_455 S
O299 Sc286 2.105 . S
O299 C293 1.268 . S
O300 Sc288 2.105 . S
O300 C294 1.268 . S
O301 Sc287 2.105 . S
O301 C295 1.268 . S
O302 Sc286 2.105 . S
O302 C294 1.268 . S
O303 Sc287 2.105 . S
O303 C293 1.268 . S
O304 Sc288 2.105 . S
O304 C295 1.268 . S
O305 Sc286 2.105 . S
O305 C291 1.268 . S
O306 Sc288 2.105 . S
O306 C290 1.268 . S
O307 Sc287 2.105 1_655 S
O307 C292 1.268 . S
Sc308 O311 2.025 . S
Sc308 O318 2.105 . S
Sc308 O321 2.105 . S
Sc308 O324 2.105 . S
Sc308 O327 2.105 . S
Sc309 O311 2.025 . S
Sc309 O319 2.105 . S
Sc309 O323 2.105 1_655 S
Sc309 O325 2.105 1_655 S
Sc309 O329 2.105 . S
Sc310 O311 2.025 . S
Sc310 O320 2.105 . S
Sc310 O322 2.105 . S
Sc310 O326 2.105 . S
Sc310 O328 2.105 . S
O311 Sc308 2.025 . S
O311 Sc309 2.025 . S
O311 Sc310 2.025 . S
C312 O318 1.268 . S
C312 O328 1.268 . S
C313 O319 1.268 . S
C313 O327 1.268 . S
C314 O320 1.268 . S
C314 O329 1.268 . S
C315 O321 1.268 1_455 S
C315 O325 1.268 . S
C316 O322 1.268 . S
C316 O324 1.268 . S
C317 O323 1.268 1_655 S
C317 O326 1.268 . S
O318 Sc308 2.105 . S
O318 C312 1.268 . S
O319 Sc309 2.105 . S
O319 C313 1.268 . S
O320 Sc310 2.105 . S
O320 C314 1.268 . S
O321 Sc308 2.105 . S
O321 C315 1.268 1_655 S
O322 Sc310 2.105 . S
O322 C316 1.268 . S
O323 Sc309 2.105 1_455 S
O323 C317 1.268 1_455 S
O324 Sc308 2.105 . S
O324 C316 1.268 . S
O325 Sc309 2.105 1_455 S
O325 C315 1.268 . S
O326 Sc310 2.105 . S
O326 C317 1.268 . S
O327 Sc308 2.105 . S
O327 C313 1.268 . S
O328 Sc310 2.105 . S
O328 C312 1.268 . S
O329 Sc309 2.105 . S
O329 C314 1.268 . S
Sc330 O333 2.025 . S
Sc330 O340 2.105 . S
Sc330 O343 2.105 . S
Sc330 O346 2.105 . S
Sc330 O349 2.105 . S
Sc331 O333 2.025 . S
Sc331 O341 2.105 . S
Sc331 O345 2.105 1_455 S
Sc331 O347 2.105 1_455 S
Sc331 O351 2.105 . S
Sc332 O333 2.025 . S
Sc332 O342 2.105 . S
Sc332 O344 2.105 . S
Sc332 O348 2.105 . S
Sc332 O350 2.105 . S
O333 Sc330 2.025 . S
O333 Sc331 2.025 . S
O333 Sc332 2.025 . S
C334 O340 1.268 . S
C334 O350 1.268 . S
C335 O341 1.268 . S
C335 O349 1.268 . S
C336 O342 1.268 . S
C336 O351 1.268 . S
C337 O343 1.268 1_655 S
C337 O347 1.268 . S
C338 O344 1.268 . S
C338 O346 1.268 . S
C339 O345 1.268 1_455 S
C339 O348 1.268 . S
O340 Sc330 2.105 . S
O340 C334 1.268 . S
O341 Sc331 2.105 . S
O341 C335 1.268 . S
O342 Sc332 2.105 . S
O342 C336 1.268 . S
O343 Sc330 2.105 . S
O343 C337 1.268 1_455 S
O344 Sc332 2.105 . S
O344 C338 1.268 . S
O345 Sc331 2.105 1_655 S
O345 C339 1.268 1_655 S
O346 Sc330 2.105 . S
O346 C338 1.268 . S
O347 Sc331 2.105 1_655 S
O347 C337 1.268 . S
O348 Sc332 2.105 . S
O348 C339 1.268 . S
O349 Sc330 2.105 . S
O349 C335 1.268 . S
O350 Sc332 2.105 . S
O350 C334 1.268 . S
O351 Sc331 2.105 . S
O351 C336 1.268 . S
Sc352 O355 2.025 . S
Sc352 O362 2.105 . S
Sc352 O365 2.105 . S
Sc352 O368 2.105 . S
Sc352 O371 2.105 . S
Sc353 O355 2.025 . S
Sc353 O363 2.105 1_565 S
Sc353 O367 2.105 . S
Sc353 O369 2.105 . S
Sc353 O373 2.105 1_565 S
Sc354 O355 2.025 . S
Sc354 O364 2.105 . S
Sc354 O366 2.105 . S
Sc354 O370 2.105 . S
Sc354 O372 2.105 . S
O355 Sc352 2.025 . S
O355 Sc353 2.025 . S
O355 Sc354 2.025 . S
C356 O362 1.268 . S
C356 O372 1.268 . S
C357 O363 1.268 1_565 S
C357 O371 1.268 . S
C358 O364 1.268 1_545 S
C358 O373 1.268 . S
C359 O365 1.268 . S
C359 O369 1.268 . S
C360 O366 1.268 . S
C360 O368 1.268 . S
C361 O367 1.268 . S
C361 O370 1.268 . S
O362 Sc352 2.105 . S
O362 C356 1.268 . S
O363 Sc353 2.105 1_545 S
O363 C357 1.268 1_545 S
O364 Sc354 2.105 . S
O364 C358 1.268 1_565 S
O365 Sc352 2.105 . S
O365 C359 1.268 . S
O366 Sc354 2.105 . S
O366 C360 1.268 . S
O367 Sc353 2.105 . S
O367 C361 1.268 . S
O368 Sc352 2.105 . S
O368 C360 1.268 . S
O369 Sc353 2.105 . S
O369 C359 1.268 . S
O370 Sc354 2.105 . S
O370 C361 1.268 . S
O371 Sc352 2.105 . S
O371 C357 1.268 . S
O372 Sc354 2.105 . S
O372 C356 1.268 . S
O373 Sc353 2.105 1_545 S
O373 C358 1.268 . S
Sc374 O377 2.025 . S
Sc374 O384 2.105 . S
Sc374 O387 2.105 . S
Sc374 O390 2.105 . S
Sc374 O393 2.105 . S
Sc375 O377 2.025 . S
Sc375 O385 2.105 . S
Sc375 O389 2.105 . S
Sc375 O391 2.105 . S
Sc375 O395 2.105 . S
Sc376 O377 2.025 . S
Sc376 O386 2.105 . S
Sc376 O388 2.105 . S
Sc376 O392 2.105 . S
Sc376 O394 2.105 . S
O377 Sc374 2.025 . S
O377 Sc375 2.025 . S
O377 Sc376 2.025 . S
C378 O384 1.268 . S
C378 O394 1.268 . S
C379 O385 1.268 . S
C379 O393 1.268 . S
C380 O386 1.268 . S
C380 O395 1.268 . S
C381 O387 1.268 . S
C381 O391 1.268 . S
C382 O388 1.268 . S
C382 O390 1.268 . S
C383 O389 1.268 . S
C383 O392 1.268 . S
O384 Sc374 2.105 . S
O384 C378 1.268 . S
O385 Sc375 2.105 . S
O385 C379 1.268 . S
O386 Sc376 2.105 . S
O386 C380 1.268 . S
O387 Sc374 2.105 . S
O387 C381 1.268 . S
O388 Sc376 2.105 . S
O388 C382 1.268 . S
O389 Sc375 2.105 . S
O389 C383 1.268 . S
O390 Sc374 2.105 . S
O390 C382 1.268 . S
O391 Sc375 2.105 . S
O391 C381 1.268 . S
O392 Sc376 2.105 . S
O392 C383 1.268 . S
O393 Sc374 2.105 . S
O393 C379 1.268 . S
O394 Sc376 2.105 . S
O394 C378 1.268 . S
O395 Sc375 2.105 . S
O395 C380 1.268 . S
Sc396 O399 2.025 . S
Sc396 O406 2.105 . S
Sc396 O409 2.105 . S
Sc396 O412 2.105 . S
Sc396 O415 2.105 . S
Sc397 O399 2.025 . S
Sc397 O407 2.105 . S
Sc397 O411 2.105 1_545 S
Sc397 O413 2.105 1_545 S
Sc397 O417 2.105 . S
Sc398 O399 2.025 . S
Sc398 O408 2.105 . S
Sc398 O410 2.105 . S
Sc398 O414 2.105 . S
Sc398 O416 2.105 . S
O399 Sc396 2.025 . S
O399 Sc397 2.025 . S
O399 Sc398 2.025 . S
C400 O406 1.268 . S
C400 O416 1.268 . S
C401 O407 1.268 . S
C401 O415 1.268 . S
C402 O408 1.268 . S
C402 O417 1.268 . S
C403 O409 1.268 1_565 S
C403 O413 1.268 . S
C404 O410 1.268 . S
C404 O412 1.268 . S
C405 O411 1.268 1_545 S
C405 O414 1.268 . S
O406 Sc396 2.105 . S
O406 C400 1.268 . S
O407 Sc397 2.105 . S
O407 C401 1.268 . S
O408 Sc398 2.105 . S
O408 C402 1.268 . S
O409 Sc396 2.105 . S
O409 C403 1.268 1_545 S
O410 Sc398 2.105 . S
O410 C404 1.268 . S
O411 Sc397 2.105 1_565 S
O411 C405 1.268 1_565 S
O412 Sc396 2.105 . S
O412 C404 1.268 . S
O413 Sc397 2.105 1_565 S
O413 C403 1.268 . S
O414 Sc398 2.105 . S
O414 C405 1.268 . S
O415 Sc396 2.105 . S
O415 C401 1.268 . S
O416 Sc398 2.105 . S
O416 C400 1.268 . S
O417 Sc397 2.105 . S
O417 C402 1.268 . S
Sc418 O421 2.025 . S
Sc418 O428 2.105 . S
Sc418 O431 2.105 . S
Sc418 O434 2.105 . S
Sc418 O437 2.105 . S
Sc419 O421 2.025 . S
Sc419 O429 2.105 . S
Sc419 O433 2.105 . S
Sc419 O435 2.105 . S
Sc419 O439 2.105 . S
Sc420 O421 2.025 . S
Sc420 O430 2.105 . S
Sc420 O432 2.105 . S
Sc420 O436 2.105 . S
Sc420 O438 2.105 . S
O421 Sc418 2.025 . S
O421 Sc419 2.025 . S
O421 Sc420 2.025 . S
C422 O428 1.268 . S
C422 O438 1.268 . S
C423 O429 1.268 . S
C423 O437 1.268 . S
C424 O430 1.268 . S
C424 O439 1.268 . S
C425 O431 1.268 . S
C425 O435 1.268 . S
C426 O432 1.268 . S
C426 O434 1.268 . S
C427 O433 1.268 . S
C427 O436 1.268 . S
O428 Sc418 2.105 . S
O428 C422 1.268 . S
O429 Sc419 2.105 . S
O429 C423 1.268 . S
O430 Sc420 2.105 . S
O430 C424 1.268 . S
O431 Sc418 2.105 . S
O431 C425 1.268 . S
O432 Sc420 2.105 . S
O432 C426 1.268 . S
O433 Sc419 2.105 . S
O433 C427 1.268 . S
O434 Sc418 2.105 . S
O434 C426 1.268 . S
O435 Sc419 2.105 . S
O435 C425 1.268 . S
O436 Sc420 2.105 . S
O436 C427 1.268 . S
O437 Sc418 2.105 . S
O437 C423 1.268 . S
O438 Sc420 2.105 . S
O438 C422 1.268 . S
O439 Sc419 2.105 . S
O439 C424 1.268 . S
Sc440 O443 2.025 . S
Sc440 O450 2.105 . S
Sc440 O453 2.105 . S
Sc440 O456 2.105 . S
Sc440 O459 2.105 . S
Sc441 O443 2.025 . S
Sc441 O451 2.105 . S
Sc441 O455 2.105 1_556 S
Sc441 O457 2.105 1_556 S
Sc441 O461 2.105 . S
Sc442 O443 2.025 . S
Sc442 O452 2.105 . S
Sc442 O454 2.105 . S
Sc442 O458 2.105 . S
Sc442 O460 2.105 . S
O443 Sc440 2.025 . S
O443 Sc441 2.025 . S
O443 Sc442 2.025 . S
C444 O450 1.268 . S
C444 O460 1.268 . S
C445 O451 1.268 . S
C445 O459 1.268 . S
C446 O452 1.268 . S
C446 O461 1.268 . S
C447 O453 1.268 1_554 S
C447 O457 1.268 . S
C448 O454 1.268 . S
C448 O456 1.268 . S
C449 O455 1.268 1_556 S
C449 O458 1.268 . S
O450 Sc440 2.105 . S
O450 C444 1.268 . S
O451 Sc441 2.105 . S
O451 C445 1.268 . S
O452 Sc442 2.105 . S
O452 C446 1.268 . S
O453 Sc440 2.105 . S
O453 C447 1.268 1_556 S
O454 Sc442 2.105 . S
O454 C448 1.268 . S
O455 Sc441 2.105 1_554 S
O455 C449 1.268 1_554 S
O456 Sc440 2.105 . S
O456 C448 1.268 . S
O457 Sc441 2.105 1_554 S
O457 C447 1.268 . S
O458 Sc442 2.105 . S
O458 C449 1.268 . S
O459 Sc440 2.105 . S
O459 C445 1.268 . S
O460 Sc442 2.105 . S
O460 C444 1.268 . S
O461 Sc441 2.105 . S
O461 C446 1.268 . S
Sc462 O465 2.025 . S
Sc462 O472 2.105 . S
Sc462 O475 2.105 . S
Sc462 O478 2.105 . S
Sc462 O481 2.105 . S
Sc463 O465 2.025 . S
Sc463 O473 2.105 . S
Sc463 O477 2.105 . S
Sc463 O479 2.105 . S
Sc463 O483 2.105 . S
Sc464 O465 2.025 . S
Sc464 O474 2.105 . S
Sc464 O476 2.105 . S
Sc464 O480 2.105 . S
Sc464 O482 2.105 . S
O465 Sc462 2.025 . S
O465 Sc463 2.025 . S
O465 Sc464 2.025 . S
C466 O472 1.268 . S
C466 O482 1.268 . S
C467 O473 1.268 . S
C467 O481 1.268 . S
C468 O474 1.268 . S
C468 O483 1.268 . S
C469 O475 1.268 . S
C469 O479 1.268 . S
C470 O476 1.268 . S
C470 O478 1.268 . S
C471 O477 1.268 . S
C471 O480 1.268 . S
O472 Sc462 2.105 . S
O472 C466 1.268 . S
O473 Sc463 2.105 . S
O473 C467 1.268 . S
O474 Sc464 2.105 . S
O474 C468 1.268 . S
O475 Sc462 2.105 . S
O475 C469 1.268 . S
O476 Sc464 2.105 . S
O476 C470 1.268 . S
O477 Sc463 2.105 . S
O477 C471 1.268 . S
O478 Sc462 2.105 . S
O478 C470 1.268 . S
O479 Sc463 2.105 . S
O479 C469 1.268 . S
O480 Sc464 2.105 . S
O480 C471 1.268 . S
O481 Sc462 2.105 . S
O481 C467 1.268 . S
O482 Sc464 2.105 . S
O482 C466 1.268 . S
O483 Sc463 2.105 . S
O483 C468 1.268 . S
Sc484 O487 2.025 . S
Sc484 O494 2.105 . S
Sc484 O497 2.105 . S
Sc484 O500 2.105 . S
Sc484 O503 2.105 . S
Sc485 O487 2.025 . S
Sc485 O495 2.105 . S
Sc485 O499 2.105 . S
Sc485 O501 2.105 . S
Sc485 O505 2.105 . S
Sc486 O487 2.025 . S
Sc486 O496 2.105 . S
Sc486 O498 2.105 . S
Sc486 O502 2.105 . S
Sc486 O504 2.105 . S
O487 Sc484 2.025 . S
O487 Sc485 2.025 . S
O487 Sc486 2.025 . S
C488 O494 1.268 . S
C488 O504 1.268 . S
C489 O495 1.268 . S
C489 O503 1.268 . S
C490 O496 1.268 . S
C490 O505 1.268 . S
C491 O497 1.268 . S
C491 O501 1.268 . S
C492 O498 1.268 . S
C492 O500 1.268 . S
C493 O499 1.268 . S
C493 O502 1.268 . S
O494 Sc484 2.105 . S
O494 C488 1.268 . S
O495 Sc485 2.105 . S
O495 C489 1.268 . S
O496 Sc486 2.105 . S
O496 C490 1.268 . S
O497 Sc484 2.105 . S
O497 C491 1.268 . S
O498 Sc486 2.105 . S
O498 C492 1.268 . S
O499 Sc485 2.105 . S
O499 C493 1.268 . S
O500 Sc484 2.105 . S
O500 C492 1.268 . S
O501 Sc485 2.105 . S
O501 C491 1.268 . S
O502 Sc486 2.105 . S
O502 C493 1.268 . S
O503 Sc484 2.105 . S
O503 C489 1.268 . S
O504 Sc486 2.105 . S
O504 C488 1.268 . S
O505 Sc485 2.105 . S
O505 C490 1.268 . S
Sc506 O509 2.025 . S
Sc506 O516 2.105 . S
Sc506 O519 2.105 . S
Sc506 O522 2.105 . S
Sc506 O525 2.105 . S
Sc507 O509 2.025 . S
Sc507 O517 2.105 . S
Sc507 O521 2.105 . S
Sc507 O523 2.105 . S
Sc507 O527 2.105 . S
Sc508 O509 2.025 . S
Sc508 O518 2.105 . S
Sc508 O520 2.105 . S
Sc508 O524 2.105 . S
Sc508 O526 2.105 . S
O509 Sc506 2.025 . S
O509 Sc507 2.025 . S
O509 Sc508 2.025 . S
C510 O516 1.268 . S
C510 O526 1.268 . S
C511 O517 1.268 . S
C511 O525 1.268 . S
C512 O518 1.268 . S
C512 O527 1.268 . S
C513 O519 1.268 . S
C513 O523 1.268 . S
C514 O520 1.268 . S
C514 O522 1.268 . S
C515 O521 1.268 . S
C515 O524 1.268 . S
O516 Sc506 2.105 . S
O516 C510 1.268 . S
O517 Sc507 2.105 . S
O517 C511 1.268 . S
O518 Sc508 2.105 . S
O518 C512 1.268 . S
O519 Sc506 2.105 . S
O519 C513 1.268 . S
O520 Sc508 2.105 . S
O520 C514 1.268 . S
O521 Sc507 2.105 . S
O521 C515 1.268 . S
O522 Sc506 2.105 . S
O522 C514 1.268 . S
O523 Sc507 2.105 . S
O523 C513 1.268 . S
O524 Sc508 2.105 . S
O524 C515 1.268 . S
O525 Sc506 2.105 . S
O525 C511 1.268 . S
O526 Sc508 2.105 . S
O526 C510 1.268 . S
O527 Sc507 2.105 . S
O527 C512 1.268 . S
Sc528 O531 2.025 . S
Sc528 O538 2.105 . S
Sc528 O541 2.105 . S
Sc528 O544 2.105 . S
Sc528 O547 2.105 . S
Sc529 O531 2.025 . S
Sc529 O539 2.105 . S
Sc529 O543 2.105 . S
Sc529 O545 2.105 . S
Sc529 O549 2.105 . S
Sc530 O531 2.025 . S
Sc530 O540 2.105 . S
Sc530 O542 2.105 . S
Sc530 O546 2.105 . S
Sc530 O548 2.105 . S
O531 Sc528 2.025 . S
O531 Sc529 2.025 . S
O531 Sc530 2.025 . S
C532 O538 1.268 . S
C532 O548 1.268 . S
C533 O539 1.268 . S
C533 O547 1.268 . S
C534 O540 1.268 . S
C534 O549 1.268 . S
C535 O541 1.268 . S
C535 O545 1.268 . S
C536 O542 1.268 . S
C536 O544 1.268 . S
C537 O543 1.268 . S
C537 O546 1.268 . S
O538 Sc528 2.105 . S
O538 C532 1.268 . S
O539 Sc529 2.105 . S
O539 C533 1.268 . S
O540 Sc530 2.105 . S
O540 C534 1.268 . S
O541 Sc528 2.105 . S
O541 C535 1.268 . S
O542 Sc530 2.105 . S
O542 C536 1.268 . S
O543 Sc529 2.105 . S
O543 C537 1.268 . S
O544 Sc528 2.105 . S
O544 C536 1.268 . S
O545 Sc529 2.105 . S
O545 C535 1.268 . S
O546 Sc530 2.105 . S
O546 C537 1.268 . S
O547 Sc528 2.105 . S
O547 C533 1.268 . S
O548 Sc530 2.105 . S
O548 C532 1.268 . S
O549 Sc529 2.105 . S
O549 C534 1.268 . S
Sc550 O553 2.025 . S
Sc550 O560 2.105 . S
Sc550 O563 2.105 . S
Sc550 O566 2.105 . S
Sc550 O569 2.105 . S
Sc551 O553 2.025 . S
Sc551 O561 2.105 . S
Sc551 O565 2.105 . S
Sc551 O567 2.105 . S
Sc551 O571 2.105 . S
Sc552 O553 2.025 . S
Sc552 O562 2.105 . S
Sc552 O564 2.105 . S
Sc552 O568 2.105 . S
Sc552 O570 2.105 . S
O553 Sc550 2.025 . S
O553 Sc551 2.025 . S
O553 Sc552 2.025 . S
C554 O560 1.268 . S
C554 O570 1.268 . S
C555 O561 1.268 . S
C555 O569 1.268 . S
C556 O562 1.268 . S
C556 O571 1.268 . S
C557 O563 1.268 . S
C557 O567 1.268 . S
C558 O564 1.268 . S
C558 O566 1.268 . S
C559 O565 1.268 . S
C559 O568 1.268 . S
O560 Sc550 2.105 . S
O560 C554 1.268 . S
O561 Sc551 2.105 . S
O561 C555 1.268 . S
O562 Sc552 2.105 . S
O562 C556 1.268 . S
O563 Sc550 2.105 . S
O563 C557 1.268 . S
O564 Sc552 2.105 . S
O564 C558 1.268 . S
O565 Sc551 2.105 . S
O565 C559 1.268 . S
O566 Sc550 2.105 . S
O566 C558 1.268 . S
O567 Sc551 2.105 . S
O567 C557 1.268 . S
O568 Sc552 2.105 . S
O568 C559 1.268 . S
O569 Sc550 2.105 . S
O569 C555 1.268 . S
O570 Sc552 2.105 . S
O570 C554 1.268 . S
O571 Sc551 2.105 . S
O571 C556 1.268 . S
Sc572 O575 2.025 . S
Sc572 O582 2.105 . S
Sc572 O585 2.105 . S
Sc572 O588 2.105 . S
Sc572 O591 2.105 . S
Sc573 O575 2.025 . S
Sc573 O583 2.105 . S
Sc573 O587 2.105 . S
Sc573 O589 2.105 . S
Sc573 O593 2.105 . S
Sc574 O575 2.025 . S
Sc574 O584 2.105 . S
Sc574 O586 2.105 . S
Sc574 O590 2.105 . S
Sc574 O592 2.105 . S
O575 Sc572 2.025 . S
O575 Sc573 2.025 . S
O575 Sc574 2.025 . S
C576 O582 1.268 . S
C576 O592 1.268 . S
C577 O583 1.268 . S
C577 O591 1.268 . S
C578 O584 1.268 . S
C578 O593 1.268 . S
C579 O585 1.268 . S
C579 O589 1.268 . S
C580 O586 1.268 . S
C580 O588 1.268 . S
C581 O587 1.268 . S
C581 O590 1.268 . S
O582 Sc572 2.105 . S
O582 C576 1.268 . S
O583 Sc573 2.105 . S
O583 C577 1.268 . S
O584 Sc574 2.105 . S
O584 C578 1.268 . S
O585 Sc572 2.105 . S
O585 C579 1.268 . S
O586 Sc574 2.105 . S
O586 C580 1.268 . S
O587 Sc573 2.105 . S
O587 C581 1.268 . S
O588 Sc572 2.105 . S
O588 C580 1.268 . S
O589 Sc573 2.105 . S
O589 C579 1.268 . S
O590 Sc574 2.105 . S
O590 C581 1.268 . S
O591 Sc572 2.105 . S
O591 C577 1.268 . S
O592 Sc574 2.105 . S
O592 C576 1.268 . S
O593 Sc573 2.105 . S
O593 C578 1.268 . S
Sc594 O597 2.025 . S
Sc594 O604 2.105 . S
Sc594 O607 2.105 . S
Sc594 O610 2.105 . S
Sc594 O613 2.105 . S
Sc595 O597 2.025 . S
Sc595 O605 2.105 . S
Sc595 O609 2.105 . S
Sc595 O611 2.105 . S
Sc595 O615 2.105 . S
Sc596 O597 2.025 . S
Sc596 O606 2.105 . S
Sc596 O608 2.105 . S
Sc596 O612 2.105 . S
Sc596 O614 2.105 . S
O597 Sc594 2.025 . S
O597 Sc595 2.025 . S
O597 Sc596 2.025 . S
C598 O604 1.268 . S
C598 O614 1.268 . S
C599 O605 1.268 . S
C599 O613 1.268 . S
C600 O606 1.268 . S
C600 O615 1.268 . S
C601 O607 1.268 . S
C601 O611 1.268 . S
C602 O608 1.268 . S
C602 O610 1.268 . S
C603 O609 1.268 . S
C603 O612 1.268 . S
O604 Sc594 2.105 . S
O604 C598 1.268 . S
O605 Sc595 2.105 . S
O605 C599 1.268 . S
O606 Sc596 2.105 . S
O606 C600 1.268 . S
O607 Sc594 2.105 . S
O607 C601 1.268 . S
O608 Sc596 2.105 . S
O608 C602 1.268 . S
O609 Sc595 2.105 . S
O609 C603 1.268 . S
O610 Sc594 2.105 . S
O610 C602 1.268 . S
O611 Sc595 2.105 . S
O611 C601 1.268 . S
O612 Sc596 2.105 . S
O612 C603 1.268 . S
O613 Sc594 2.105 . S
O613 C599 1.268 . S
O614 Sc596 2.105 . S
O614 C598 1.268 . S
O615 Sc595 2.105 . S
O615 C600 1.268 . S
Sc616 O619 2.025 . S
Sc616 O626 2.105 . S
Sc616 O629 2.105 . S
Sc616 O632 2.105 . S
Sc616 O635 2.105 . S
Sc617 O619 2.025 . S
Sc617 O627 2.105 . S
Sc617 O631 2.105 . S
Sc617 O633 2.105 . S
Sc617 O637 2.105 . S
Sc618 O619 2.025 . S
Sc618 O628 2.105 . S
Sc618 O630 2.105 . S
Sc618 O634 2.105 . S
Sc618 O636 2.105 . S
O619 Sc616 2.025 . S
O619 Sc617 2.025 . S
O619 Sc618 2.025 . S
C620 O626 1.268 . S
C620 O636 1.268 . S
C621 O627 1.268 . S
C621 O635 1.268 . S
C622 O628 1.268 . S
C622 O637 1.268 . S
C623 O629 1.268 . S
C623 O633 1.268 . S
C624 O630 1.268 . S
C624 O632 1.268 . S
C625 O631 1.268 . S
C625 O634 1.268 . S
O626 Sc616 2.105 . S
O626 C620 1.268 . S
O627 Sc617 2.105 . S
O627 C621 1.268 . S
O628 Sc618 2.105 . S
O628 C622 1.268 . S
O629 Sc616 2.105 . S
O629 C623 1.268 . S
O630 Sc618 2.105 . S
O630 C624 1.268 . S
O631 Sc617 2.105 . S
O631 C625 1.268 . S
O632 Sc616 2.105 . S
O632 C624 1.268 . S
O633 Sc617 2.105 . S
O633 C623 1.268 . S
O634 Sc618 2.105 . S
O634 C625 1.268 . S
O635 Sc616 2.105 . S
O635 C621 1.268 . S
O636 Sc618 2.105 . S
O636 C620 1.268 . S
O637 Sc617 2.105 . S
O637 C622 1.268 . S
Sc638 O641 2.025 . S
Sc638 O648 2.105 . S
Sc638 O651 2.105 . S
Sc638 O654 2.105 . S
Sc638 O657 2.105 . S
Sc639 O641 2.025 . S
Sc639 O649 2.105 1_565 S
Sc639 O653 2.105 . S
Sc639 O655 2.105 . S
Sc639 O659 2.105 1_565 S
Sc640 O641 2.025 . S
Sc640 O650 2.105 . S
Sc640 O652 2.105 . S
Sc640 O656 2.105 . S
Sc640 O658 2.105 . S
O641 Sc638 2.025 . S
O641 Sc639 2.025 . S
O641 Sc640 2.025 . S
C642 O648 1.268 . S
C642 O658 1.268 . S
C643 O649 1.268 . S
C643 O657 1.268 1_545 S
C644 O650 1.268 . S
C644 O659 1.268 1_565 S
C645 O651 1.268 . S
C645 O655 1.268 . S
C646 O652 1.268 . S
C646 O654 1.268 . S
C647 O653 1.268 . S
C647 O656 1.268 . S
O648 Sc638 2.105 . S
O648 C642 1.268 . S
O649 Sc639 2.105 1_545 S
O649 C643 1.268 . S
O650 Sc640 2.105 . S
O650 C644 1.268 . S
O651 Sc638 2.105 . S
O651 C645 1.268 . S
O652 Sc640 2.105 . S
O652 C646 1.268 . S
O653 Sc639 2.105 . S
O653 C647 1.268 . S
O654 Sc638 2.105 . S
O654 C646 1.268 . S
O655 Sc639 2.105 . S
O655 C645 1.268 . S
O656 Sc640 2.105 . S
O656 C647 1.268 . S
O657 Sc638 2.105 . S
O657 C643 1.268 1_565 S
O658 Sc640 2.105 . S
O658 C642 1.268 . S
O659 Sc639 2.105 1_545 S
O659 C644 1.268 1_545 S
Sc660 O663 2.025 . S
Sc660 O670 2.105 . S
Sc660 O673 2.105 . S
Sc660 O676 2.105 . S
Sc660 O679 2.105 . S
Sc661 O663 2.025 . S
Sc661 O671 2.105 . S
Sc661 O675 2.105 . S
Sc661 O677 2.105 . S
Sc661 O681 2.105 . S
Sc662 O663 2.025 . S
Sc662 O672 2.105 . S
Sc662 O674 2.105 . S
Sc662 O678 2.105 . S
Sc662 O680 2.105 . S
O663 Sc660 2.025 . S
O663 Sc661 2.025 . S
O663 Sc662 2.025 . S
C664 O670 1.268 . S
C664 O680 1.268 . S
C665 O671 1.268 . S
C665 O679 1.268 . S
C666 O672 1.268 . S
C666 O681 1.268 . S
C667 O673 1.268 . S
C667 O677 1.268 . S
C668 O674 1.268 . S
C668 O676 1.268 . S
C669 O675 1.268 . S
C669 O678 1.268 . S
O670 Sc660 2.105 . S
O670 C664 1.268 . S
O671 Sc661 2.105 . S
O671 C665 1.268 . S
O672 Sc662 2.105 . S
O672 C666 1.268 . S
O673 Sc660 2.105 . S
O673 C667 1.268 . S
O674 Sc662 2.105 . S
O674 C668 1.268 . S
O675 Sc661 2.105 . S
O675 C669 1.268 . S
O676 Sc660 2.105 . S
O676 C668 1.268 . S
O677 Sc661 2.105 . S
O677 C667 1.268 . S
O678 Sc662 2.105 . S
O678 C669 1.268 . S
O679 Sc660 2.105 . S
O679 C665 1.268 . S
O680 Sc662 2.105 . S
O680 C664 1.268 . S
O681 Sc661 2.105 . S
O681 C666 1.268 . S
Sc682 O685 2.025 . S
Sc682 O692 2.105 . S
Sc682 O695 2.105 . S
Sc682 O698 2.105 . S
Sc682 O701 2.105 . S
Sc683 O685 2.025 . S
Sc683 O693 2.105 . S
Sc683 O697 2.105 1_545 S
Sc683 O699 2.105 1_545 S
Sc683 O703 2.105 . S
Sc684 O685 2.025 . S
Sc684 O694 2.105 . S
Sc684 O696 2.105 . S
Sc684 O700 2.105 . S
Sc684 O702 2.105 . S
O685 Sc682 2.025 . S
O685 Sc683 2.025 . S
O685 Sc684 2.025 . S
C686 O692 1.268 . S
C686 O702 1.268 . S
C687 O693 1.268 . S
C687 O701 1.268 . S
C688 O694 1.268 . S
C688 O703 1.268 . S
C689 O695 1.268 . S
C689 O699 1.268 1_545 S
C690 O696 1.268 . S
C690 O698 1.268 . S
C691 O697 1.268 . S
C691 O700 1.268 1_565 S
O692 Sc682 2.105 . S
O692 C686 1.268 . S
O693 Sc683 2.105 . S
O693 C687 1.268 . S
O694 Sc684 2.105 . S
O694 C688 1.268 . S
O695 Sc682 2.105 . S
O695 C689 1.268 . S
O696 Sc684 2.105 . S
O696 C690 1.268 . S
O697 Sc683 2.105 1_565 S
O697 C691 1.268 . S
O698 Sc682 2.105 . S
O698 C690 1.268 . S
O699 Sc683 2.105 1_565 S
O699 C689 1.268 1_565 S
O700 Sc684 2.105 . S
O700 C691 1.268 1_545 S
O701 Sc682 2.105 . S
O701 C687 1.268 . S
O702 Sc684 2.105 . S
O702 C686 1.268 . S
O703 Sc683 2.105 . S
O703 C688 1.268 . S
Sc704 O707 2.025 . S
Sc704 O714 2.105 . S
Sc704 O717 2.105 . S
Sc704 O720 2.105 . S
Sc704 O723 2.105 . S
Sc705 O707 2.025 . S
Sc705 O715 2.105 . S
Sc705 O719 2.105 . S
Sc705 O721 2.105 . S
Sc705 O725 2.105 . S
Sc706 O707 2.025 . S
Sc706 O716 2.105 . S
Sc706 O718 2.105 . S
Sc706 O722 2.105 . S
Sc706 O724 2.105 . S
O707 Sc704 2.025 . S
O707 Sc705 2.025 . S
O707 Sc706 2.025 . S
C708 O714 1.268 . S
C708 O724 1.268 . S
C709 O715 1.268 . S
C709 O723 1.268 . S
C710 O716 1.268 . S
C710 O725 1.268 . S
C711 O717 1.268 . S
C711 O721 1.268 . S
C712 O718 1.268 . S
C712 O720 1.268 . S
C713 O719 1.268 . S
C713 O722 1.268 . S
O714 Sc704 2.105 . S
O714 C708 1.268 . S
O715 Sc705 2.105 . S
O715 C709 1.268 . S
O716 Sc706 2.105 . S
O716 C710 1.268 . S
O717 Sc704 2.105 . S
O717 C711 1.268 . S
O718 Sc706 2.105 . S
O718 C712 1.268 . S
O719 Sc705 2.105 . S
O719 C713 1.268 . S
O720 Sc704 2.105 . S
O720 C712 1.268 . S
O721 Sc705 2.105 . S
O721 C711 1.268 . S
O722 Sc706 2.105 . S
O722 C713 1.268 . S
O723 Sc704 2.105 . S
O723 C709 1.268 . S
O724 Sc706 2.105 . S
O724 C708 1.268 . S
O725 Sc705 2.105 . S
O725 C710 1.268 . S
Sc726 O729 2.025 . S
Sc726 O736 2.105 . S
Sc726 O739 2.105 . S
Sc726 O742 2.105 . S
Sc726 O745 2.105 . S
Sc727 O729 2.025 . S
Sc727 O737 2.105 . S
Sc727 O741 2.105 1_556 S
Sc727 O743 2.105 1_556 S
Sc727 O747 2.105 . S
Sc728 O729 2.025 . S
Sc728 O738 2.105 . S
Sc728 O740 2.105 . S
Sc728 O744 2.105 . S
Sc728 O746 2.105 . S
O729 Sc726 2.025 . S
O729 Sc727 2.025 . S
O729 Sc728 2.025 . S
C730 O736 1.268 . S
C730 O746 1.268 . S
C731 O737 1.268 . S
C731 O745 1.268 . S
C732 O738 1.268 . S
C732 O747 1.268 . S
C733 O739 1.268 . S
C733 O743 1.268 1_556 S
C734 O740 1.268 . S
C734 O742 1.268 . S
C735 O741 1.268 . S
C735 O744 1.268 1_554 S
O736 Sc726 2.105 . S
O736 C730 1.268 . S
O737 Sc727 2.105 . S
O737 C731 1.268 . S
O738 Sc728 2.105 . S
O738 C732 1.268 . S
O739 Sc726 2.105 . S
O739 C733 1.268 . S
O740 Sc728 2.105 . S
O740 C734 1.268 . S
O741 Sc727 2.105 1_554 S
O741 C735 1.268 . S
O742 Sc726 2.105 . S
O742 C734 1.268 . S
O743 Sc727 2.105 1_554 S
O743 C733 1.268 1_554 S
O744 Sc728 2.105 . S
O744 C735 1.268 1_556 S
O745 Sc726 2.105 . S
O745 C731 1.268 . S
O746 Sc728 2.105 . S
O746 C730 1.268 . S
O747 Sc727 2.105 . S
O747 C732 1.268 . S
Sc748 O751 2.025 . S
Sc748 O758 2.105 . S
Sc748 O761 2.105 . S
Sc748 O764 2.105 . S
Sc748 O767 2.105 . S
Sc749 O751 2.025 . S
Sc749 O759 2.105 . S
Sc749 O763 2.105 1_556 S
Sc749 O765 2.105 1_556 S
Sc749 O769 2.105 . S
Sc750 O751 2.025 . S
Sc750 O760 2.105 . S
Sc750 O762 2.105 . S
Sc750 O766 2.105 . S
Sc750 O768 2.105 . S
O751 Sc748 2.025 . S
O751 Sc749 2.025 . S
O751 Sc750 2.025 . S
C752 O758 1.268 . S
C752 O768 1.268 . S
C753 O759 1.268 . S
C753 O767 1.268 . S
C754 O760 1.268 . S
C754 O769 1.268 . S
C755 O761 1.268 . S
C755 O765 1.268 1_556 S
C756 O762 1.268 . S
C756 O764 1.268 . S
C757 O763 1.268 . S
C757 O766 1.268 1_554 S
O758 Sc748 2.105 . S
O758 C752 1.268 . S
O759 Sc749 2.105 . S
O759 C753 1.268 . S
O760 Sc750 2.105 . S
O760 C754 1.268 . S
O761 Sc748 2.105 . S
O761 C755 1.268 . S
O762 Sc750 2.105 . S
O762 C756 1.268 . S
O763 Sc749 2.105 1_554 S
O763 C757 1.268 . S
O764 Sc748 2.105 . S
O764 C756 1.268 . S
O765 Sc749 2.105 1_554 S
O765 C755 1.268 1_554 S
O766 Sc750 2.105 . S
O766 C757 1.268 1_556 S
O767 Sc748 2.105 . S
O767 C753 1.268 . S
O768 Sc750 2.105 . S
O768 C752 1.268 . S
O769 Sc749 2.105 . S
O769 C754 1.268 . S
Sc770 O773 2.025 . S
Sc770 O780 2.105 . S
Sc770 O783 2.105 . S
Sc770 O786 2.105 . S
Sc770 O789 2.105 . S
Sc771 O773 2.025 . S
Sc771 O781 2.105 1_554 S
Sc771 O785 2.105 . S
Sc771 O787 2.105 . S
Sc771 O791 2.105 1_554 S
Sc772 O773 2.025 . S
Sc772 O782 2.105 . S
Sc772 O784 2.105 . S
Sc772 O788 2.105 . S
Sc772 O790 2.105 . S
O773 Sc770 2.025 . S
O773 Sc771 2.025 . S
O773 Sc772 2.025 . S
C774 O780 1.268 . S
C774 O790 1.268 . S
C775 O781 1.268 . S
C775 O789 1.268 1_556 S
C776 O782 1.268 . S
C776 O791 1.268 1_554 S
C777 O783 1.268 . S
C777 O787 1.268 . S
C778 O784 1.268 . S
C778 O786 1.268 . S
C779 O785 1.268 . S
C779 O788 1.268 . S
O780 Sc770 2.105 . S
O780 C774 1.268 . S
O781 Sc771 2.105 1_556 S
O781 C775 1.268 . S
O782 Sc772 2.105 . S
O782 C776 1.268 . S
O783 Sc770 2.105 . S
O783 C777 1.268 . S
O784 Sc772 2.105 . S
O784 C778 1.268 . S
O785 Sc771 2.105 . S
O785 C779 1.268 . S
O786 Sc770 2.105 . S
O786 C778 1.268 . S
O787 Sc771 2.105 . S
O787 C777 1.268 . S
O788 Sc772 2.105 . S
O788 C779 1.268 . S
O789 Sc770 2.105 . S
O789 C775 1.268 1_554 S
O790 Sc772 2.105 . S
O790 C774 1.268 . S
O791 Sc771 2.105 1_556 S
O791 C776 1.268 1_556 S
Sc792 O795 2.025 . S
Sc792 O802 2.105 . S
Sc792 O805 2.105 . S
Sc792 O808 2.105 . S
Sc792 O811 2.105 . S
Sc793 O795 2.025 . S
Sc793 O803 2.105 . S
Sc793 O807 2.105 . S
Sc793 O809 2.105 . S
Sc793 O813 2.105 . S
Sc794 O795 2.025 . S
Sc794 O804 2.105 . S
Sc794 O806 2.105 . S
Sc794 O810 2.105 . S
Sc794 O812 2.105 . S
O795 Sc792 2.025 . S
O795 Sc793 2.025 . S
O795 Sc794 2.025 . S
C796 O802 1.268 . S
C796 O812 1.268 . S
C797 O803 1.268 . S
C797 O811 1.268 . S
C798 O804 1.268 . S
C798 O813 1.268 . S
C799 O805 1.268 . S
C799 O809 1.268 . S
C800 O806 1.268 . S
C800 O808 1.268 . S
C801 O807 1.268 . S
C801 O810 1.268 . S
O802 Sc792 2.105 . S
O802 C796 1.268 . S
O803 Sc793 2.105 . S
O803 C797 1.268 . S
O804 Sc794 2.105 . S
O804 C798 1.268 . S
O805 Sc792 2.105 . S
O805 C799 1.268 . S
O806 Sc794 2.105 . S
O806 C800 1.268 . S
O807 Sc793 2.105 . S
O807 C801 1.268 . S
O808 Sc792 2.105 . S
O808 C800 1.268 . S
O809 Sc793 2.105 . S
O809 C799 1.268 . S
O810 Sc794 2.105 . S
O810 C801 1.268 . S
O811 Sc792 2.105 . S
O811 C797 1.268 . S
O812 Sc794 2.105 . S
O812 C796 1.268 . S
O813 Sc793 2.105 . S
O813 C798 1.268 . S
Sc814 O817 2.025 . S
Sc814 O824 2.105 . S
Sc814 O827 2.105 . S
Sc814 O830 2.105 . S
Sc814 O833 2.105 . S
Sc815 O817 2.025 . S
Sc815 O825 2.105 . S
Sc815 O829 2.105 . S
Sc815 O831 2.105 . S
Sc815 O835 2.105 . S
Sc816 O817 2.025 . S
Sc816 O826 2.105 . S
Sc816 O828 2.105 . S
Sc816 O832 2.105 . S
Sc816 O834 2.105 . S
O817 Sc814 2.025 . S
O817 Sc815 2.025 . S
O817 Sc816 2.025 . S
C818 O824 1.268 . S
C818 O834 1.268 . S
C819 O825 1.268 . S
C819 O833 1.268 . S
C820 O826 1.268 . S
C820 O835 1.268 . S
C821 O827 1.268 . S
C821 O831 1.268 . S
C822 O828 1.268 . S
C822 O830 1.268 . S
C823 O829 1.268 . S
C823 O832 1.268 . S
O824 Sc814 2.105 . S
O824 C818 1.268 . S
O825 Sc815 2.105 . S
O825 C819 1.268 . S
O826 Sc816 2.105 . S
O826 C820 1.268 . S
O827 Sc814 2.105 . S
O827 C821 1.268 . S
O828 Sc816 2.105 . S
O828 C822 1.268 . S
O829 Sc815 2.105 . S
O829 C823 1.268 . S
O830 Sc814 2.105 . S
O830 C822 1.268 . S
O831 Sc815 2.105 . S
O831 C821 1.268 . S
O832 Sc816 2.105 . S
O832 C823 1.268 . S
O833 Sc814 2.105 . S
O833 C819 1.268 . S
O834 Sc816 2.105 . S
O834 C818 1.268 . S
O835 Sc815 2.105 . S
O835 C820 1.268 . S
Sc836 O839 2.025 . S
Sc836 O846 2.105 . S
Sc836 O849 2.105 . S
Sc836 O852 2.105 . S
Sc836 O855 2.105 . S
Sc837 O839 2.025 . S
Sc837 O847 2.105 . S
Sc837 O851 2.105 . S
Sc837 O853 2.105 . S
Sc837 O857 2.105 . S
Sc838 O839 2.025 . S
Sc838 O848 2.105 . S
Sc838 O850 2.105 . S
Sc838 O854 2.105 . S
Sc838 O856 2.105 . S
O839 Sc836 2.025 . S
O839 Sc837 2.025 . S
O839 Sc838 2.025 . S
C840 O846 1.268 . S
C840 O856 1.268 . S
C841 O847 1.268 . S
C841 O855 1.268 . S
C842 O848 1.268 . S
C842 O857 1.268 . S
C843 O849 1.268 . S
C843 O853 1.268 . S
C844 O850 1.268 . S
C844 O852 1.268 . S
C845 O851 1.268 . S
C845 O854 1.268 . S
O846 Sc836 2.105 . S
O846 C840 1.268 . S
O847 Sc837 2.105 . S
O847 C841 1.268 . S
O848 Sc838 2.105 . S
O848 C842 1.268 . S
O849 Sc836 2.105 . S
O849 C843 1.268 . S
O850 Sc838 2.105 . S
O850 C844 1.268 . S
O851 Sc837 2.105 . S
O851 C845 1.268 . S
O852 Sc836 2.105 . S
O852 C844 1.268 . S
O853 Sc837 2.105 . S
O853 C843 1.268 . S
O854 Sc838 2.105 . S
O854 C845 1.268 . S
O855 Sc836 2.105 . S
O855 C841 1.268 . S
O856 Sc838 2.105 . S
O856 C840 1.268 . S
O857 Sc837 2.105 . S
O857 C842 1.268 . S
Sc858 O861 2.025 . S
Sc858 O868 2.105 . S
Sc858 O871 2.105 . S
Sc858 O874 2.105 . S
Sc858 O877 2.105 . S
Sc859 O861 2.025 . S
Sc859 O869 2.105 . S
Sc859 O873 2.105 . S
Sc859 O875 2.105 . S
Sc859 O879 2.105 . S
Sc860 O861 2.025 . S
Sc860 O870 2.105 . S
Sc860 O872 2.105 . S
Sc860 O876 2.105 . S
Sc860 O878 2.105 . S
O861 Sc858 2.025 . S
O861 Sc859 2.025 . S
O861 Sc860 2.025 . S
C862 O868 1.268 . S
C862 O878 1.268 . S
C863 O869 1.268 . S
C863 O877 1.268 . S
C864 O870 1.268 . S
C864 O879 1.268 . S
C865 O871 1.268 . S
C865 O875 1.268 . S
C866 O872 1.268 . S
C866 O874 1.268 . S
C867 O873 1.268 . S
C867 O876 1.268 . S
O868 Sc858 2.105 . S
O868 C862 1.268 . S
O869 Sc859 2.105 . S
O869 C863 1.268 . S
O870 Sc860 2.105 . S
O870 C864 1.268 . S
O871 Sc858 2.105 . S
O871 C865 1.268 . S
O872 Sc860 2.105 . S
O872 C866 1.268 . S
O873 Sc859 2.105 . S
O873 C867 1.268 . S
O874 Sc858 2.105 . S
O874 C866 1.268 . S
O875 Sc859 2.105 . S
O875 C865 1.268 . S
O876 Sc860 2.105 . S
O876 C867 1.268 . S
O877 Sc858 2.105 . S
O877 C863 1.268 . S
O878 Sc860 2.105 . S
O878 C862 1.268 . S
O879 Sc859 2.105 . S
O879 C864 1.268 . S
Sc880 O883 2.025 . S
Sc880 O890 2.105 . S
Sc880 O893 2.105 . S
Sc880 O896 2.105 . S
Sc880 O899 2.105 . S
Sc881 O883 2.025 . S
Sc881 O891 2.105 . S
Sc881 O895 2.105 . S
Sc881 O897 2.105 . S
Sc881 O901 2.105 . S
Sc882 O883 2.025 . S
Sc882 O892 2.105 . S
Sc882 O894 2.105 . S
Sc882 O898 2.105 . S
Sc882 O900 2.105 . S
O883 Sc880 2.025 . S
O883 Sc881 2.025 . S
O883 Sc882 2.025 . S
C884 O890 1.268 . S
C884 O900 1.268 . S
C885 O891 1.268 . S
C885 O899 1.268 . S
C886 O892 1.268 . S
C886 O901 1.268 . S
C887 O893 1.268 . S
C887 O897 1.268 . S
C888 O894 1.268 . S
C888 O896 1.268 . S
C889 O895 1.268 . S
C889 O898 1.268 . S
O890 Sc880 2.105 . S
O890 C884 1.268 . S
O891 Sc881 2.105 . S
O891 C885 1.268 . S
O892 Sc882 2.105 . S
O892 C886 1.268 . S
O893 Sc880 2.105 . S
O893 C887 1.268 . S
O894 Sc882 2.105 . S
O894 C888 1.268 . S
O895 Sc881 2.105 . S
O895 C889 1.268 . S
O896 Sc880 2.105 . S
O896 C888 1.268 . S
O897 Sc881 2.105 . S
O897 C887 1.268 . S
O898 Sc882 2.105 . S
O898 C889 1.268 . S
O899 Sc880 2.105 . S
O899 C885 1.268 . S
O900 Sc882 2.105 . S
O900 C884 1.268 . S
O901 Sc881 2.105 . S
O901 C886 1.268 . S
Sc902 O905 2.025 . S
Sc902 O912 2.105 . S
Sc902 O915 2.105 . S
Sc902 O918 2.105 . S
Sc902 O921 2.105 . S
Sc903 O905 2.025 . S
Sc903 O913 2.105 . S
Sc903 O917 2.105 1_545 S
Sc903 O919 2.105 1_545 S
Sc903 O923 2.105 . S
Sc904 O905 2.025 . S
Sc904 O914 2.105 . S
Sc904 O916 2.105 . S
Sc904 O920 2.105 . S
Sc904 O922 2.105 . S
O905 Sc902 2.025 . S
O905 Sc903 2.025 . S
O905 Sc904 2.025 . S
C906 O912 1.268 . S
C906 O922 1.268 . S
C907 O913 1.268 . S
C907 O921 1.268 . S
C908 O914 1.268 . S
C908 O923 1.268 . S
C909 O915 1.268 1_565 S
C909 O919 1.268 . S
C910 O916 1.268 . S
C910 O918 1.268 . S
C911 O917 1.268 1_545 S
C911 O920 1.268 . S
O912 Sc902 2.105 . S
O912 C906 1.268 . S
O913 Sc903 2.105 . S
O913 C907 1.268 . S
O914 Sc904 2.105 . S
O914 C908 1.268 . S
O915 Sc902 2.105 . S
O915 C909 1.268 1_545 S
O916 Sc904 2.105 . S
O916 C910 1.268 . S
O917 Sc903 2.105 1_565 S
O917 C911 1.268 1_565 S
O918 Sc902 2.105 . S
O918 C910 1.268 . S
O919 Sc903 2.105 1_565 S
O919 C909 1.268 . S
O920 Sc904 2.105 . S
O920 C911 1.268 . S
O921 Sc902 2.105 . S
O921 C907 1.268 . S
O922 Sc904 2.105 . S
O922 C906 1.268 . S
O923 Sc903 2.105 . S
O923 C908 1.268 . S
Sc924 O927 2.025 . S
Sc924 O934 2.105 . S
Sc924 O937 2.105 . S
Sc924 O940 2.105 . S
Sc924 O943 2.105 . S
Sc925 O927 2.025 . S
Sc925 O935 2.105 . S
Sc925 O939 2.105 . S
Sc925 O941 2.105 . S
Sc925 O945 2.105 . S
Sc926 O927 2.025 . S
Sc926 O936 2.105 . S
Sc926 O938 2.105 . S
Sc926 O942 2.105 . S
Sc926 O944 2.105 . S
O927 Sc924 2.025 . S
O927 Sc925 2.025 . S
O927 Sc926 2.025 . S
C928 O934 1.268 . S
C928 O944 1.268 . S
C929 O935 1.268 . S
C929 O943 1.268 . S
C930 O936 1.268 . S
C930 O945 1.268 . S
C931 O937 1.268 . S
C931 O941 1.268 . S
C932 O938 1.268 . S
C932 O940 1.268 . S
C933 O939 1.268 . S
C933 O942 1.268 . S
O934 Sc924 2.105 . S
O934 C928 1.268 . S
O935 Sc925 2.105 . S
O935 C929 1.268 . S
O936 Sc926 2.105 . S
O936 C930 1.268 . S
O937 Sc924 2.105 . S
O937 C931 1.268 . S
O938 Sc926 2.105 . S
O938 C932 1.268 . S
O939 Sc925 2.105 . S
O939 C933 1.268 . S
O940 Sc924 2.105 . S
O940 C932 1.268 . S
O941 Sc925 2.105 . S
O941 C931 1.268 . S
O942 Sc926 2.105 . S
O942 C933 1.268 . S
O943 Sc924 2.105 . S
O943 C929 1.268 . S
O944 Sc926 2.105 . S
O944 C928 1.268 . S
O945 Sc925 2.105 . S
O945 C930 1.268 . S
Sc946 O949 2.025 . S
Sc946 O956 2.105 . S
Sc946 O959 2.105 . S
Sc946 O962 2.105 . S
Sc946 O965 2.105 . S
Sc947 O949 2.025 . S
Sc947 O957 2.105 1_565 S
Sc947 O961 2.105 . S
Sc947 O963 2.105 . S
Sc947 O967 2.105 1_565 S
Sc948 O949 2.025 . S
Sc948 O958 2.105 . S
Sc948 O960 2.105 . S
Sc948 O964 2.105 . S
Sc948 O966 2.105 . S
O949 Sc946 2.025 . S
O949 Sc947 2.025 . S
O949 Sc948 2.025 . S
C950 O956 1.268 . S
C950 O966 1.268 . S
C951 O957 1.268 1_565 S
C951 O965 1.268 . S
C952 O958 1.268 1_545 S
C952 O967 1.268 . S
C953 O959 1.268 . S
C953 O963 1.268 . S
C954 O960 1.268 . S
C954 O962 1.268 . S
C955 O961 1.268 . S
C955 O964 1.268 . S
O956 Sc946 2.105 . S
O956 C950 1.268 . S
O957 Sc947 2.105 1_545 S
O957 C951 1.268 1_545 S
O958 Sc948 2.105 . S
O958 C952 1.268 1_565 S
O959 Sc946 2.105 . S
O959 C953 1.268 . S
O960 Sc948 2.105 . S
O960 C954 1.268 . S
O961 Sc947 2.105 . S
O961 C955 1.268 . S
O962 Sc946 2.105 . S
O962 C954 1.268 . S
O963 Sc947 2.105 . S
O963 C953 1.268 . S
O964 Sc948 2.105 . S
O964 C955 1.268 . S
O965 Sc946 2.105 . S
O965 C951 1.268 . S
O966 Sc948 2.105 . S
O966 C950 1.268 . S
O967 Sc947 2.105 1_545 S
O967 C952 1.268 . S
Sc968 O971 2.025 . S
Sc968 O978 2.105 . S
Sc968 O981 2.105 . S
Sc968 O984 2.105 . S
Sc968 O987 2.105 . S
Sc969 O971 2.025 . S
Sc969 O979 2.105 . S
Sc969 O983 2.105 . S
Sc969 O985 2.105 . S
Sc969 O989 2.105 . S
Sc970 O971 2.025 . S
Sc970 O980 2.105 . S
Sc970 O982 2.105 . S
Sc970 O986 2.105 . S
Sc970 O988 2.105 . S
O971 Sc968 2.025 . S
O971 Sc969 2.025 . S
O971 Sc970 2.025 . S
C972 O978 1.268 . S
C972 O988 1.268 . S
C973 O979 1.268 . S
C973 O987 1.268 . S
C974 O980 1.268 . S
C974 O989 1.268 . S
C975 O981 1.268 . S
C975 O985 1.268 . S
C976 O982 1.268 . S
C976 O984 1.268 . S
C977 O983 1.268 . S
C977 O986 1.268 . S
O978 Sc968 2.105 . S
O978 C972 1.268 . S
O979 Sc969 2.105 . S
O979 C973 1.268 . S
O980 Sc970 2.105 . S
O980 C974 1.268 . S
O981 Sc968 2.105 . S
O981 C975 1.268 . S
O982 Sc970 2.105 . S
O982 C976 1.268 . S
O983 Sc969 2.105 . S
O983 C977 1.268 . S
O984 Sc968 2.105 . S
O984 C976 1.268 . S
O985 Sc969 2.105 . S
O985 C975 1.268 . S
O986 Sc970 2.105 . S
O986 C977 1.268 . S
O987 Sc968 2.105 . S
O987 C973 1.268 . S
O988 Sc970 2.105 . S
O988 C972 1.268 . S
O989 Sc969 2.105 . S
O989 C974 1.268 . S
Sc990 O993 2.025 . S
Sc990 O1000 2.105 . S
Sc990 O1003 2.105 . S
Sc990 O1006 2.105 . S
Sc990 O1009 2.105 . S
Sc991 O993 2.025 . S
Sc991 O1001 2.105 . S
Sc991 O1005 2.105 1_554 S
Sc991 O1007 2.105 1_554 S
Sc991 O1011 2.105 . S
Sc992 O993 2.025 . S
Sc992 O1002 2.105 . S
Sc992 O1004 2.105 . S
Sc992 O1008 2.105 . S
Sc992 O1010 2.105 . S
O993 Sc990 2.025 . S
O993 Sc991 2.025 . S
O993 Sc992 2.025 . S
C994 O1000 1.268 . S
C994 O1010 1.268 . S
C995 O1001 1.268 . S
C995 O1009 1.268 . S
C996 O1002 1.268 . S
C996 O1011 1.268 . S
C997 O1003 1.268 1_556 S
C997 O1007 1.268 . S
C998 O1004 1.268 . S
C998 O1006 1.268 . S
C999 O1005 1.268 1_554 S
C999 O1008 1.268 . S
O1000 Sc990 2.105 . S
O1000 C994 1.268 . S
O1001 Sc991 2.105 . S
O1001 C995 1.268 . S
O1002 Sc992 2.105 . S
O1002 C996 1.268 . S
O1003 Sc990 2.105 . S
O1003 C997 1.268 1_554 S
O1004 Sc992 2.105 . S
O1004 C998 1.268 . S
O1005 Sc991 2.105 1_556 S
O1005 C999 1.268 1_556 S
O1006 Sc990 2.105 . S
O1006 C998 1.268 . S
O1007 Sc991 2.105 1_556 S
O1007 C997 1.268 . S
O1008 Sc992 2.105 . S
O1008 C999 1.268 . S
O1009 Sc990 2.105 . S
O1009 C995 1.268 . S
O1010 Sc992 2.105 . S
O1010 C994 1.268 . S
O1011 Sc991 2.105 . S
O1011 C996 1.268 . S
Sc1012 O1015 2.025 . S
Sc1012 O1022 2.105 . S
Sc1012 O1025 2.105 . S
Sc1012 O1028 2.105 . S
Sc1012 O1031 2.105 . S
Sc1013 O1015 2.025 . S
Sc1013 O1023 2.105 . S
Sc1013 O1027 2.105 1_554 S
Sc1013 O1029 2.105 1_554 S
Sc1013 O1033 2.105 . S
Sc1014 O1015 2.025 . S
Sc1014 O1024 2.105 . S
Sc1014 O1026 2.105 . S
Sc1014 O1030 2.105 . S
Sc1014 O1032 2.105 . S
O1015 Sc1012 2.025 . S
O1015 Sc1013 2.025 . S
O1015 Sc1014 2.025 . S
C1016 O1022 1.268 . S
C1016 O1032 1.268 . S
C1017 O1023 1.268 . S
C1017 O1031 1.268 . S
C1018 O1024 1.268 . S
C1018 O1033 1.268 . S
C1019 O1025 1.268 1_556 S
C1019 O1029 1.268 . S
C1020 O1026 1.268 . S
C1020 O1028 1.268 . S
C1021 O1027 1.268 1_554 S
C1021 O1030 1.268 . S
O1022 Sc1012 2.105 . S
O1022 C1016 1.268 . S
O1023 Sc1013 2.105 . S
O1023 C1017 1.268 . S
O1024 Sc1014 2.105 . S
O1024 C1018 1.268 . S
O1025 Sc1012 2.105 . S
O1025 C1019 1.268 1_554 S
O1026 Sc1014 2.105 . S
O1026 C1020 1.268 . S
O1027 Sc1013 2.105 1_556 S
O1027 C1021 1.268 1_556 S
O1028 Sc1012 2.105 . S
O1028 C1020 1.268 . S
O1029 Sc1013 2.105 1_556 S
O1029 C1019 1.268 . S
O1030 Sc1014 2.105 . S
O1030 C1021 1.268 . S
O1031 Sc1012 2.105 . S
O1031 C1017 1.268 . S
O1032 Sc1014 2.105 . S
O1032 C1016 1.268 . S
O1033 Sc1013 2.105 . S
O1033 C1018 1.268 . S
Sc1034 O1037 2.025 . S
Sc1034 O1044 2.105 . S
Sc1034 O1047 2.105 . S
Sc1034 O1050 2.105 . S
Sc1034 O1053 2.105 . S
Sc1035 O1037 2.025 . S
Sc1035 O1045 2.105 . S
Sc1035 O1049 2.105 1_556 S
Sc1035 O1051 2.105 1_556 S
Sc1035 O1055 2.105 . S
Sc1036 O1037 2.025 . S
Sc1036 O1046 2.105 . S
Sc1036 O1048 2.105 . S
Sc1036 O1052 2.105 . S
Sc1036 O1054 2.105 . S
O1037 Sc1034 2.025 . S
O1037 Sc1035 2.025 . S
O1037 Sc1036 2.025 . S
C1038 O1044 1.268 . S
C1038 O1054 1.268 . S
C1039 O1045 1.268 . S
C1039 O1053 1.268 . S
C1040 O1046 1.268 . S
C1040 O1055 1.268 . S
C1041 O1047 1.268 1_554 S
C1041 O1051 1.268 . S
C1042 O1048 1.268 . S
C1042 O1050 1.268 . S
C1043 O1049 1.268 1_556 S
C1043 O1052 1.268 . S
O1044 Sc1034 2.105 . S
O1044 C1038 1.268 . S
O1045 Sc1035 2.105 . S
O1045 C1039 1.268 . S
O1046 Sc1036 2.105 . S
O1046 C1040 1.268 . S
O1047 Sc1034 2.105 . S
O1047 C1041 1.268 1_556 S
O1048 Sc1036 2.105 . S
O1048 C1042 1.268 . S
O1049 Sc1035 2.105 1_554 S
O1049 C1043 1.268 1_554 S
O1050 Sc1034 2.105 . S
O1050 C1042 1.268 . S
O1051 Sc1035 2.105 1_554 S
O1051 C1041 1.268 . S
O1052 Sc1036 2.105 . S
O1052 C1043 1.268 . S
O1053 Sc1034 2.105 . S
O1053 C1039 1.268 . S
O1054 Sc1036 2.105 . S
O1054 C1038 1.268 . S
O1055 Sc1035 2.105 . S
O1055 C1040 1.268 . S
C7 C29 0.539 1_455 S
C72 C50 0.539 1_655 S
C95 C138 0.539 1_545 S
C161 C116 0.539 . S
C755 C182 0.539 1_556 S
C248 C205 0.539 . S
C227 C710 0.539 . S
C269 C291 0.539 1_655 S
C317 C339 0.539 1_655 S
C357 C405 0.539 1_565 S
C423 C383 0.539 . S
C1021 C449 0.539 1_554 S
C471 C515 0.539 . S
C493 C977 0.539 . S
C557 C535 0.539 . S
C600 C578 0.539 . S
C623 C666 0.539 . S
C644 C689 0.539 1_565 S
C776 C733 0.539 1_554 S
C797 C819 0.539 . S
C867 C845 0.539 . S
C933 C885 0.539 . S
C951 C911 0.539 1_565 S
C999 C1043 0.539 1_554 S
C51 C6 2.170 1_565 S
C73 C28 2.170 . S
C94 C688 2.170 1_554 S
C667 C117 2.170 1_556 S
C139 C645 2.170 . S
C160 C622 2.170 . S
C183 C777 2.170 1_455 S
C204 C226 2.170 1_455 S
C711 C249 2.170 . S
C273 C313 2.170 1_565 S
C295 C335 2.170 . S
C955 C361 2.170 1_554 S
C929 C379 2.170 1_554 S
C907 C401 2.170 . S
C427 C889 2.170 . S
C1039 C445 2.170 1_455 S
C489 C467 2.170 1_455 S
C511 C973 2.170 . S
C534 C579 2.170 . S
C556 C601 2.170 1_565 S
C754 C732 2.170 . S
C801 C841 2.170 . S
C823 C863 2.170 1_545 S
C995 C1017 2.170 . S
C5 C184 2.860 . S
C778 C27 2.860 . S
C202 C53 2.860 . S
C75 C224 2.860 . S
C4 C93 2.860 . S
C119 C26 2.860 . S
C141 C52 2.860 . S
C159 C74 2.860 . S
C185 C92 2.860 . S
C203 C140 2.860 . S
C225 C158 2.860 . S
C646 C251 2.860 . S
C271 C444 2.860 . S
C293 C1038 2.860 . S
C314 C466 2.860 . S
C488 C336 2.860 . S
C272 C359 2.860 . S
C380 C294 2.860 . S
C402 C312 2.860 . S
C334 C425 2.860 . S
C360 C446 2.860 . S
C468 C400 2.860 . S
C490 C426 2.860 . S
C512 C906 2.860 . S
C712 C533 2.860 . S
C555 C250 2.860 . S
C730 C581 2.860 . S
C603 C752 2.860 . S
C532 C621 2.860 . S
C647 C554 2.860 . S
C669 C580 2.860 . S
C687 C602 2.860 . S
C713 C620 2.860 . S
C668 C731 2.860 . S
C686 C753 2.860 . S
C779 C118 2.860 . S
C799 C972 2.860 . S
C821 C510 2.860 . S
C994 C842 2.860 . S
C864 C1016 2.860 . S
C887 C800 2.860 . S
C908 C822 2.860 . S
C930 C840 2.860 . S
C953 C862 2.860 . S
C974 C888 2.860 . S
C996 C928 2.860 . S
C1018 C954 2.860 . S
C1040 C378 2.860 . S
C8 C491 1.875 . S
C469 C30 1.875 . S
C48 C1041 1.875 . S
C70 C447 1.875 . S
C820 C96 1.875 . S
C798 C114 1.875 . S
C136 C865 1.875 . S
C162 C843 1.875 . S
C931 C180 1.875 . S
C886 C206 1.875 . S
C228 C909 1.875 . S
C246 C424 1.875 . S
C229 C268 1.875 . S
C290 C207 1.875 . S
C316 C775 1.875 . S
C181 C338 1.875 . S
C356 C559 1.875 . S
C382 C537 1.875 . S
C404 C599 1.875 . S
C422 C577 1.875 . S
C448 C665 1.875 . S
C625 C470 1.875 . S
C492 C643 1.875 . S
C514 C163 1.875 . S
C1019 C536 1.875 . S
C997 C558 1.875 . S
C576 C513 1.875 . S
C975 C598 1.875 . S
C292 C624 1.875 . S
C270 C642 1.875 . S
C664 C337 1.875 . S
C690 C315 1.875 . S
C403 C708 1.875 . S
C358 C734 1.875 . S
C381 C756 1.875 . S
C774 C952 1.875 . S
C796 C757 1.875 . S
C735 C818 1.875 . S
C844 C247 1.875 . S
C866 C709 1.875 . S
C31 C884 1.875 . S
C9 C910 1.875 . S
C932 C71 1.875 . S
C49 C950 1.875 . S
C137 C976 1.875 . S
C998 C97 1.875 . S
C1020 C115 1.875 . S
C691 C1042 1.875 . S
