# Generated by pormake.
# Topology sqp, (5)-cn, num edge types: 1
# Building blocks:
#     Node 0, Type 0, BuildingBlock: BEQFEK_clean_sbu_0, # of connection points: 5
#     Node 1, Type 0, BuildingBlock: BEQFEK_clean_sbu_0, # of connection points: 5
#     Node 2, Type 0, BuildingBlock: BEQFEK_clean_sbu_0, # of connection points: 5
#     Node 3, Type 0, BuildingBlock: BEQFEK_clean_sbu_0, # of connection points: 5
#     Edge 4, Type (0, 0), BuildingBlock: FUNLAD_clean_linker_1, # of connection points: 2
#     Edge 5, Type (0, 0), BuildingBlock: FUNLAD_clean_linker_1, # of connection points: 2
#     Edge 6, Type (0, 0), BuildingBlock: FUNLAD_clean_linker_1, # of connection points: 2
#     Edge 7, Type (0, 0), BuildingBlock: FUNLAD_clean_linker_1, # of connection points: 2
#     Edge 8, Type (0, 0), BuildingBlock: FUNLAD_clean_linker_1, # of connection points: 2
#     Edge 9, Type (0, 0), BuildingBlock: FUNLAD_clean_linker_1, # of connection points: 2
#     Edge 10, Type (0, 0), BuildingBlock: FUNLAD_clean_linker_1, # of connection points: 2
#     Edge 11, Type (0, 0), BuildingBlock: FUNLAD_clean_linker_1, # of connection points: 2
#     Edge 12, Type (0, 0), BuildingBlock: FUNLAD_clean_linker_1, # of connection points: 2
#     Edge 13, Type (0, 0), BuildingBlock: FUNLAD_clean_linker_1, # of connection points: 2
# Relax obj value: 0.030
# Max RMSD: 0.082
# Mean RMSD: 0.082
data_MOF--net-sqp--node1-BEQFEK_clean_sbu_0--edge1-FUNLAD_clean_linker_1
_symmetry_space_group_name_H-M    P1
_symmetry_Int_Tables_number       1
_symmetry_cell_setting            triclinic
loop_
_symmetry_equiv_pos_as_xyz
'x, y, z'
_cell_length_a     25.141795
_cell_length_b     25.274778
_cell_length_c     39.832873
_cell_angle_alpha  97.350972
_cell_angle_beta   98.827879
_cell_angle_gamma 102.03213
loop_
_atom_site_label
_atom_site_type_symbol
_atom_site_fract_x
_atom_site_fract_y
_atom_site_fract_z
_atom_type_partial_charge
Co0 Co 0.0634 0.97123 0.29775 0.0
Co1 Co 0.98534 0.05135 0.31152 0.0
C2 C 0.94097 0.93598 0.27282 0.0
O3 O 0.98937 0.92733 0.27539 0.0
O4 O 0.93254 0.98217 0.28508 0.0
C5 C 0.11802 0.88222 0.28922 0.0
O6 O 0.07703 0.85426 0.30127 0.0
C7 C 0.91108 0.12738 0.29755 0.0
C8 C 0.92885 0.18038 0.34842 0.0
C9 C 0.8984 0.17309 0.31545 0.0
N10 N 0.94746 0.10935 0.3192 0.0
N11 N 0.95743 0.14107 0.34957 0.0
C12 C 0.89203 0.10261 0.26037 0.0
H13 H 0.91476 0.07094 0.25312 0.0
H14 H 0.89894 0.13492 0.24404 0.0
H15 H 0.84711 0.08326 0.25564 0.0
C16 C 0.11981 0.06357 0.26901 0.0
N17 N 0.07786 0.03996 0.28339 0.0
N18 N 0.04704 0.07492 0.28966 0.0
C19 C 0.06965 0.12281 0.2801 0.0
C20 C 0.11648 0.11691 0.26669 0.0
C21 C 0.1648 0.03666 0.2603 0.0
H22 H 0.18652 0.0261 0.28405 0.0
H23 H 0.14623 0.99802 0.24189 0.0
H24 H 0.19544 0.06348 0.24886 0.0
O25 O 0.06864 0.97962 0.34812 0.0
O26 O 0.0126 0.03501 0.35787 0.0
H27 H 0.04278 0.18457 0.31065 0.0
H28 H 0.07241 0.20775 0.27487 0.0
C29 C 0.04652 0.17278 0.28346 0.0
H30 H 1.0046 0.16317 0.26742 0.0
H31 H 0.98465 0.13649 0.37099 0.0
O32 O 0.11949 0.93161 0.28569 0.0
C33 C 0.04536 1.0059 0.36856 0.0
Co34 Co 0.08631 0.97521 0.69121 0.0
Co35 Co 1.0022 0.05218 0.6934 0.0
C36 C 0.12118 0.09675 0.72101 0.0
O37 O 0.13006 0.0495 0.71288 0.0
O38 O 0.07264 0.10533 0.71571 0.0
C39 C 0.16172 0.93233 0.73147 0.0
O40 O 0.15394 0.97124 0.75405 0.0
C41 C 0.93667 0.13503 0.70758 0.0
C42 C 0.85367 0.0899 0.67931 0.0
C43 C 0.88215 0.13934 0.69963 0.0
N44 N 0.94008 0.08513 0.69286 0.0
N45 N 0.89034 0.05864 0.67582 0.0
C46 C 0.98461 0.17684 0.72939 0.0
H47 H 1.00698 0.15715 0.7486 0.0
H48 H 0.97116 0.21149 0.74292 0.0
H49 H 0.01385 0.19274 0.71282 0.0
C50 C 1.00381 0.909 0.7239 0.0
N51 N 0.02323 0.95472 0.71131 0.0
N52 N 0.99003 0.98826 0.71456 0.0
C53 C 0.94916 0.9654 0.73027 0.0
C54 C 0.9562 0.914 0.73621 0.0
C55 C 0.02783 0.85946 0.72162 0.0
H56 H 0.04581 0.85495 0.69798 0.0
H57 H 0.06106 0.86438 0.74438 0.0
H58 H 0.99601 0.8216 0.72135 0.0
O59 O 0.06451 0.97578 0.64131 0.0
O60 O 1.0066 0.03129 0.6443 0.0
H61 H 0.86988 0.98431 0.71992 0.0
H62 H 0.89241 0.97871 0.76416 0.0
C63 C 0.90625 0.99347 0.74115 0.0
H64 H 0.92308 0.03847 0.74726 0.0
H65 H 0.88142 0.019 0.66184 0.0
O66 O 0.13624 0.92503 0.70046 0.0
C67 C 0.03171 1.00202 0.62694 0.0
Co68 Co 0.56697 0.46265 0.79981 0.0
Co69 Co 0.49658 0.55075 0.81114 0.0
C70 C 0.4446 0.43768 0.77305 0.0
O71 O 0.49029 0.42284 0.77664 0.0
O72 O 0.44191 0.48596 0.7847 0.0
C73 C 0.6234 0.3957 0.7602 0.0
O74 O 0.5973 0.41138 0.73344 0.0
C75 C 0.4249 0.62044 0.78723 0.0
C76 C 0.42972 0.68002 0.83382 0.0
C77 C 0.40543 0.66522 0.79923 0.0
N78 N 0.45915 0.60917 0.81332 0.0
N79 N 0.46178 0.64486 0.84119 0.0
C80 C 0.41197 0.58925 0.75129 0.0
H81 H 0.44344 0.5654 0.74709 0.0
H82 H 0.41048 0.61773 0.73232 0.0
H83 H 0.3707 0.56058 0.74709 0.0
C84 C 0.63616 0.5564 0.77518 0.0
N85 N 0.59018 0.53244 0.78618 0.0
N86 N 0.55935 0.56829 0.78995 0.0
C87 C 0.58384 0.61536 0.78048 0.0
C88 C 0.63307 0.60939 0.77086 0.0
C89 C 0.6828 0.52975 0.76994 0.0
H90 H 0.68918 0.50343 0.78971 0.0
H91 H 0.67243 0.50396 0.74408 0.0
H92 H 0.72188 0.56037 0.77114 0.0
O93 O 0.56918 0.47371 0.84999 0.0
O94 O 0.51934 0.53581 0.85855 0.0
H95 H 0.55485 0.67648 0.81022 0.0
H96 H 0.59428 0.70246 0.77918 0.0
C97 C 0.56357 0.6671 0.78394 0.0
H98 H 0.52471 0.6614 0.7651 0.0
H99 H 0.48543 0.64522 0.8652 0.0
O100 O 0.61661 0.41287 0.79027 0.0
C101 C 0.54823 0.50367 0.86987 0.0
Co102 Co 0.57378 0.48699 0.19432 0.0
Co103 Co 0.48368 0.55756 0.18951 0.0
C104 C 0.60061 0.60846 0.22325 0.0
O105 O 0.61565 0.56339 0.21702 0.0
O106 O 0.55052 0.61153 0.21494 0.0
C107 C 0.65734 0.43414 0.22646 0.0
O108 O 0.66718 0.4746 0.25249 0.0
C109 C 0.40583 0.62432 0.20859 0.0
C110 C 0.34019 0.59951 0.16199 0.0
C111 C 0.35431 0.63164 0.19426 0.0
N112 N 0.42101 0.58923 0.18562 0.0
N113 N 0.38191 0.57518 0.15771 0.0
C114 C 0.43787 0.64551 0.24435 0.0
H115 H 0.46856 0.62094 0.25109 0.0
H116 H 0.40952 0.64414 0.26316 0.0
H117 H 0.46034 0.68873 0.24587 0.0
C118 C 0.48824 0.41985 0.22628 0.0
N119 N 0.50739 0.46405 0.21199 0.0
N120 N 0.47062 0.49437 0.2105 0.0
C121 C 0.42756 0.47096 0.22418 0.0
C122 C 0.43719 0.42315 0.23456 0.0
C123 C 0.51896 0.37632 0.23265 0.0
H124 H 0.55792 0.39488 0.25135 0.0
H125 H 0.49434 0.34274 0.24316 0.0
H126 H 0.53002 0.35936 0.20826 0.0
O127 O 0.55621 0.48779 0.14389 0.0
O128 O 0.49371 0.53832 0.14187 0.0
H129 H 0.35858 0.49738 0.19901 0.0
H130 H 0.34427 0.46321 0.2347 0.0
C131 C 0.37618 0.4918 0.2252 0.0
H132 H 0.38672 0.53196 0.24245 0.0
H133 H 0.383 0.54765 0.13609 0.0
O134 O 0.62088 0.43266 0.20022 0.0
C135 C 0.52315 0.51112 0.12706 0.0
H136 H 0.08348 0.97476 0.41327 0.0
C137 C 0.05494 0.99961 0.40511 0.0
H138 H 0.99949 0.04621 0.42064 0.0
H139 H 1.00539 0.88508 0.5389 0.0
H140 H 0.95294 0.81263 0.49237 0.0
H141 H 0.93684 0.82999 0.4325 0.0
H142 H 0.9733 0.91961 0.41873 0.0
C143 C 0.02757 0.02053 0.42794 0.0
C144 C 0.03575 0.01007 0.46404 0.0
C145 C 0.01373 0.95739 0.47158 0.0
C146 C 0.02214 0.94758 0.50616 0.0
C147 C 0.99988 0.89471 0.51307 0.0
C148 C 0.96973 0.8528 0.48663 0.0
C149 C 0.96074 0.86256 0.45291 0.0
C150 C 0.98222 0.91416 0.44533 0.0
H151 H 0.99506 0.02449 0.57862 0.0
C152 C 0.02457 1.00253 0.58961 0.0
H153 H 0.08588 0.95966 0.57954 0.0
H154 H 0.08306 0.11552 0.45828 0.0
H155 H 0.13513 0.1879 0.50489 0.0
H156 H 0.15046 0.17061 0.5648 0.0
H157 H 0.11368 0.08094 0.57848 0.0
C158 C 0.05594 0.98178 0.56949 0.0
C159 C 0.05142 0.99067 0.53309 0.0
C160 C 0.07393 0.04316 0.52551 0.0
C161 C 0.06564 0.05297 0.49096 0.0
C162 C 0.08816 0.10585 0.4841 0.0
C163 C 0.11819 0.14774 0.5106 0.0
C164 C 0.12677 0.13802 0.54433 0.0
C165 C 0.10515 0.08641 0.55185 0.0
H166 H 0.48983 0.52964 0.0768 0.0
C167 C 0.51998 0.5102 0.0898 0.0
H168 H 0.58545 0.47092 0.08392 0.0
H169 H 0.47798 0.41974 0.92134 0.0
H170 H 0.44532 0.33045 0.93662 0.0
H171 H 0.46198 0.31619 0.99713 0.0
H172 H 0.51108 0.39155 0.04278 0.0
C173 C 0.55479 0.49066 0.07193 0.0
C174 C 0.55237 0.49734 0.03524 0.0
C175 C 0.52544 0.45259 0.00882 0.0
C176 C 0.51711 0.46058 0.97387 0.0
C177 C 0.48727 0.41573 0.94818 0.0
C178 C 0.46786 0.36427 0.95664 0.0
C179 C 0.47712 0.35627 0.9907 0.0
C180 C 0.50532 0.39983 0.01663 0.0
H181 H 0.58375 0.47293 0.91544 0.0
C182 C 0.55656 0.49865 0.90663 0.0
H183 H 0.50302 0.54833 0.92093 0.0
H184 H 0.61008 0.59051 0.07961 0.0
H185 H 0.6439 0.67985 0.0645 0.0
H186 H 0.62948 0.6939 0.0039 0.0
H187 H 0.58127 0.61869 0.95805 0.0
C188 C 0.52972 0.52173 0.92893 0.0
C189 C 0.53733 0.5131 0.96543 0.0
C190 C 0.5652 0.55761 0.99188 0.0
C191 C 0.57308 0.54964 0.02681 0.0
C192 C 0.60202 0.59455 0.0527 0.0
C193 C 0.62193 0.64598 0.04437 0.0
C194 C 0.61386 0.65387 0.01025 0.0
C195 C 0.58602 0.61035 0.98419 0.0
H196 H 0.17215 0.144 0.23141 0.0
C197 C 0.15708 0.15753 0.25443 0.0
H198 H 0.17134 0.21846 0.29825 0.0
H199 H 0.42302 0.30497 0.28988 0.0
H200 H 0.42986 0.26654 0.34275 0.0
H201 H 0.34641 0.21557 0.36011 0.0
H202 H 0.25568 0.20281 0.32484 0.0
C203 C 0.18232 0.20657 0.27349 0.0
C204 C 0.23193 0.24079 0.26409 0.0
C205 C 0.28466 0.24827 0.28525 0.0
C206 C 0.33284 0.27768 0.2753 0.0
C207 C 0.38506 0.28363 0.29651 0.0
C208 C 0.3896 0.26156 0.32683 0.0
C209 C 0.34261 0.23284 0.33659 0.0
C210 C 0.29071 0.22595 0.31611 0.0
H211 H 0.38087 0.40165 0.27048 0.0
C212 C 0.39896 0.38466 0.2497 0.0
H213 H 0.39161 0.31659 0.21133 0.0
H214 H 0.13678 0.23944 0.21966 0.0
H215 H 0.13021 0.27795 0.16687 0.0
H216 H 0.21406 0.32659 0.14878 0.0
H217 H 0.30493 0.33726 0.18347 0.0
C218 C 0.37793 0.33252 0.23435 0.0
C219 C 0.3282 0.29967 0.24429 0.0
C220 C 0.27551 0.29263 0.22328 0.0
C221 C 0.22724 0.26376 0.23339 0.0
C222 C 0.17494 0.25945 0.21266 0.0
C223 C 0.17053 0.28177 0.18243 0.0
C224 C 0.21772 0.30923 0.17227 0.0
C225 C 0.26967 0.31494 0.19241 0.0
H226 H 0.86809 0.2482 0.32334 0.0
C227 C 0.86411 0.21147 0.30472 0.0
H228 H 0.82224 0.16894 0.25518 0.0
H229 H 0.66944 0.3437 0.29956 0.0
H230 H 0.64328 0.28324 0.33989 0.0
H231 H 0.68608 0.20499 0.34695 0.0
H232 H 0.7555 0.18685 0.31381 0.0
C233 C 0.82831 0.20444 0.27484 0.0
C234 C 0.79722 0.24736 0.26753 0.0
C235 C 0.75605 0.257 0.28669 0.0
C236 C 0.7309 0.30181 0.28231 0.0
C237 C 0.69015 0.31052 0.30197 0.0
C238 C 0.67456 0.276 0.32513 0.0
C239 C 0.69869 0.23197 0.32913 0.0
C240 C 0.7388 0.22226 0.31013 0.0
H241 H 0.67484 0.3552 0.20613 0.0
C242 C 0.68548 0.38831 0.22804 0.0
H243 H 0.73132 0.41718 0.2784 0.0
H244 H 0.87072 0.23729 0.22455 0.0
H245 H 0.89567 0.29649 0.18327 0.0
H246 H 0.8535 0.37518 0.17638 0.0
H247 H 0.78595 0.39505 0.2105 0.0
C248 C 0.72204 0.38544 0.2558 0.0
C249 C 0.74621 0.33654 0.25838 0.0
C250 C 0.78586 0.3256 0.23824 0.0
C251 C 0.81091 0.28064 0.2426 0.0
C252 C 0.85057 0.27091 0.22233 0.0
C253 C 0.8653 0.30458 0.19857 0.0
C254 C 0.8415 0.34885 0.19466 0.0
C255 C 0.80247 0.35961 0.2143 0.0
H256 H 0.62672 0.69536 0.2475 0.0
C257 C 0.64188 0.66012 0.23792 0.0
H258 H 0.71066 0.63363 0.22354 0.0
H259 H 0.81816 0.87221 0.1979 0.0
H260 H 0.78337 0.82489 0.13916 0.0
H261 H 0.72517 0.73062 0.12728 0.0
H262 H 0.70122 0.6832 0.17403 0.0
C263 C 0.69549 0.66727 0.23546 0.0
C264 C 0.73258 0.72334 0.24306 0.0
C265 C 0.74717 0.75011 0.21545 0.0
C266 C 0.78147 0.80417 0.22229 0.0
C267 C 0.79361 0.8306 0.19418 0.0
C268 C 0.77356 0.80407 0.16033 0.0
C269 C 0.74074 0.75102 0.15364 0.0
C270 C 0.7274 0.72423 0.18075 0.0
H271 H 0.90421 0.85246 0.24479 0.0
C272 C 0.89438 0.88864 0.25796 0.0
H273 H 0.83328 0.9195 0.27965 0.0
H274 H 0.71351 0.68327 0.30181 0.0
H275 H 0.74838 0.7304 0.36056 0.0
H276 H 0.80836 0.82384 0.37256 0.0
H277 H 0.83368 0.8708 0.32597 0.0
C278 C 0.843 0.88512 0.26444 0.0
C279 C 0.80222 0.83096 0.25679 0.0
C280 C 0.78697 0.80443 0.28439 0.0
C281 C 0.75226 0.75053 0.27751 0.0
C282 C 0.739 0.72448 0.30557 0.0
C283 C 0.75896 0.75096 0.33943 0.0
C284 C 0.79274 0.80355 0.34618 0.0
C285 C 0.80687 0.8301 0.31913 0.0
H286 H 0.19607 0.88319 0.27056 0.0
C287 C 0.16214 0.85717 0.27897 0.0
H288 H 0.12811 0.77733 0.28747 0.0
H289 H 0.30491 0.75069 0.17981 0.0
H290 H 0.24386 0.78528 0.13933 0.0
H291 H 0.16258 0.81462 0.15596 0.0
H292 H 0.14284 0.81097 0.21335 0.0
C293 C 0.16095 0.80373 0.2784 0.0
C294 C 0.20574 0.77988 0.2668 0.0
C295 C 0.21465 0.7794 0.23241 0.0
C296 C 0.25932 0.75916 0.2221 0.0
C297 C 0.26984 0.7629 0.18844 0.0
C298 C 0.23539 0.78307 0.16501 0.0
C299 C 0.18981 0.79984 0.17443 0.0
C300 C 0.17928 0.798 0.20764 0.0
H301 H 0.27292 0.64762 0.19818 0.0
C302 C 0.31681 0.66171 0.20915 0.0
H303 H 0.37718 0.72346 0.24413 0.0
H304 H 0.20093 0.77586 0.33469 0.0
H305 H 0.26005 0.7379 0.37433 0.0
H306 H 0.33429 0.69811 0.35538 0.0
H307 H 0.35022 0.69651 0.29675 0.0
C308 C 0.33374 0.70708 0.23313 0.0
C309 C 0.29245 0.73569 0.24536 0.0
C310 C 0.28364 0.73619 0.27966 0.0
C311 C 0.24033 0.75846 0.29044 0.0
C312 C 0.23278 0.7589 0.32498 0.0
C313 C 0.26648 0.7373 0.34804 0.0
C314 C 0.3083 0.71493 0.33738 0.0
C315 C 0.31697 0.71423 0.30363 0.0
H316 H 0.34966 0.67375 0.75245 0.0
C317 C 0.36691 0.69161 0.7792 0.0
H318 H 0.36838 0.75459 0.8199 0.0
H319 H 0.28015 0.86661 0.68722 0.0
H320 H 0.37051 0.86922 0.67215 0.0
H321 H 0.43605 0.82398 0.70333 0.0
H322 H 0.41166 0.77569 0.74959 0.0
C323 C 0.353 0.73699 0.79292 0.0
C324 C 0.3131 0.76232 0.77272 0.0
C325 C 0.32829 0.79055 0.74576 0.0
C326 C 0.29087 0.81744 0.72812 0.0
C327 C 0.3071 0.84569 0.70151 0.0
C328 C 0.35883 0.84752 0.69261 0.0
C329 C 0.39569 0.82197 0.71014 0.0
C330 C 0.38098 0.79405 0.73654 0.0
H331 H 0.21752 0.9056 0.77029 0.0
C332 C 0.19713 0.89631 0.74339 0.0
H333 H 0.1848 0.84244 0.69616 0.0
H334 H 0.2697 0.7088 0.82146 0.0
H335 H 0.17822 0.704 0.83516 0.0
H336 H 0.11291 0.74935 0.80384 0.0
H337 H 0.13883 0.80005 0.75878 0.0
C338 C 0.20369 0.85216 0.7233 0.0
C339 C 0.23899 0.81703 0.73795 0.0
C340 C 0.22274 0.78649 0.76368 0.0
C341 C 0.26006 0.75964 0.78133 0.0
C342 C 0.24304 0.7301 0.80727 0.0
C343 C 0.19057 0.72685 0.81532 0.0
C344 C 0.15383 0.75244 0.79772 0.0
C345 C 0.1694 0.78179 0.7721 0.0
H346 H 0.209 0.13157 0.74295 0.0
C347 C 0.16985 0.14221 0.73463 0.0
H348 H 0.13175 0.20606 0.72241 0.0
H349 H 0.38175 0.32725 0.81855 0.0
H350 H 0.34342 0.29385 0.86623 0.0
H351 H 0.2492 0.23479 0.8567 0.0
H352 H 0.19281 0.20868 0.79935 0.0
C353 C 0.16955 0.19481 0.73294 0.0
C354 C 0.22298 0.23653 0.73966 0.0
C355 C 0.25511 0.25194 0.77337 0.0
C356 C 0.30914 0.28648 0.77888 0.0
C357 C 0.34045 0.30104 0.81282 0.0
C358 C 0.31892 0.28224 0.84047 0.0
C359 C 0.26591 0.24894 0.8351 0.0
C360 C 0.23413 0.23396 0.80202 0.0
H361 H 0.35536 0.4134 0.75169 0.0
C362 C 0.39211 0.39767 0.7581 0.0
H363 H 0.42209 0.32732 0.76589 0.0
H364 H 0.1713 0.21654 0.672 0.0
H365 H 0.20913 0.25095 0.62442 0.0
H366 H 0.30294 0.31085 0.63403 0.0
H367 H 0.35957 0.33659 0.6913 0.0
C368 C 0.38657 0.34353 0.75709 0.0
C369 C 0.33052 0.30633 0.75075 0.0
C370 C 0.29788 0.29205 0.71718 0.0
C371 C 0.2439 0.2573 0.71165 0.0
C372 C 0.2125 0.24294 0.67773 0.0
C373 C 0.23372 0.26237 0.65016 0.0
C374 C 0.28653 0.29613 0.65558 0.0
C375 C 0.31849 0.31081 0.68861 0.0
H376 H 0.88587 0.22766 0.71565 0.0
C377 C 0.85855 0.18698 0.70895 0.0
H378 H 0.77675 0.14 0.70156 0.0
H379 H 0.76711 0.38661 0.78268 0.0
H380 H 0.83768 0.37584 0.82841 0.0
H381 H 0.87864 0.29523 0.82327 0.0
H382 H 0.85081 0.22616 0.77192 0.0
C383 C 0.80398 0.18077 0.70857 0.0
C384 C 0.77739 0.22806 0.71357 0.0
C385 C 0.79154 0.26599 0.74489 0.0
C386 C 0.76465 0.31012 0.74906 0.0
C387 C 0.78337 0.35032 0.77915 0.0
C388 C 0.8243 0.34496 0.80546 0.0
C389 C 0.84758 0.29976 0.80248 0.0
C390 C 0.83153 0.2606 0.77264 0.0
H391 H 0.66577 0.33203 0.77531 0.0
C392 C 0.6599 0.3577 0.75578 0.0
H393 H 0.681 0.38118 0.70985 0.0
H394 H 0.74383 0.1661 0.64905 0.0
H395 H 0.67014 0.17439 0.60463 0.0
H396 H 0.61726 0.24512 0.61415 0.0
H397 H 0.63833 0.30848 0.66786 0.0
C398 C 0.68654 0.35491 0.72906 0.0
C399 C 0.72012 0.31336 0.72329 0.0
C400 C 0.70631 0.27569 0.69191 0.0
C401 C 0.73557 0.23368 0.68685 0.0
C402 C 0.72203 0.19782 0.65477 0.0
C403 C 0.67992 0.20224 0.62892 0.0
C404 C 0.65026 0.24212 0.63424 0.0
C405 C 0.663 0.27843 0.66528 0.0
H406 H 0.6587 0.6728 0.73962 0.0
C407 C 0.6735 0.65209 0.7602 0.0
H408 H 0.73912 0.65393 0.80071 0.0
H409 H 0.87895 0.78483 0.69693 0.0
H410 H 0.87225 0.69323 0.66705 0.0
H411 H 0.81576 0.61231 0.68395 0.0
H412 H 0.76532 0.62265 0.73077 0.0
C413 C 0.72519 0.67085 0.7781 0.0
C414 C 0.76235 0.71906 0.76957 0.0
C415 C 0.79238 0.7122 0.74265 0.0
C416 C 0.82581 0.75877 0.73341 0.0
C417 C 0.85399 0.75087 0.70564 0.0
C418 C 0.85028 0.69848 0.68813 0.0
C419 C 0.81841 0.65293 0.6976 0.0
C420 C 0.78962 0.65945 0.72448 0.0
H421 H 0.93934 0.84315 0.76336 0.0
C422 C 0.92012 0.87107 0.74983 0.0
H423 H 0.84413 0.88627 0.72717 0.0
H424 H 0.71026 0.74602 0.82256 0.0
H425 H 0.71728 0.83764 0.85282 0.0
H426 H 0.77602 0.91845 0.83719 0.0
H427 H 0.82803 0.90816 0.79113 0.0
C428 C 0.86473 0.86075 0.74202 0.0
C429 C 0.82982 0.81198 0.75159 0.0
C430 C 0.79988 0.81876 0.77857 0.0
C431 C 0.76621 0.77218 0.78765 0.0
C432 C 0.73656 0.78004 0.81466 0.0
C433 C 0.74022 0.83238 0.83224 0.0
C434 C 0.77329 0.87788 0.82343 0.0
C435 C 0.80289 0.87141 0.79694 0.0
loop_
_geom_bond_atom_site_label_1
_geom_bond_atom_site_label_2
_geom_bond_distance
_geom_bond_site_symmetry_2
_ccdc_geom_bond_type
Co0 O3 1.970 1_455 S
Co0 N17 1.989 1_565 S
Co0 O25 1.967 . S
Co0 O32 1.920 . S
Co1 O4 1.966 1_545 S
Co1 N10 2.022 . S
Co1 N18 1.993 1_655 S
Co1 O26 1.941 . S
C2 O3 1.258 . S
C2 O4 1.263 . S
O3 Co0 1.970 1_655 S
O3 C2 1.258 . S
O4 Co1 1.966 1_565 S
O4 C2 1.263 . S
C5 O6 1.235 . S
C5 O32 1.289 . S
O6 C5 1.235 . S
C7 C9 1.400 . S
C7 N10 1.351 . S
C7 C12 1.501 . S
C8 C9 1.387 . S
C8 N11 1.341 . S
C9 C7 1.400 . S
C9 C8 1.387 . S
N10 Co1 2.022 . S
N10 C7 1.351 . S
N10 N11 1.365 . S
N11 C8 1.341 . S
N11 N10 1.365 . S
N11 H31 0.862 . S
C12 C7 1.501 . S
C12 H13 0.961 . S
C12 H14 0.961 . S
C12 H15 0.960 . S
H13 C12 0.961 . S
H14 C12 0.961 . S
H15 C12 0.960 . S
C16 N17 1.342 . S
C16 C20 1.401 . S
C16 C21 1.499 . S
N17 Co0 1.989 1_545 S
N17 C16 1.342 . S
N17 N18 1.388 . S
N18 Co1 1.993 1_455 S
N18 N17 1.388 . S
N18 C19 1.346 . S
C19 N18 1.346 . S
C19 C20 1.396 . S
C19 C29 1.510 . S
C20 C16 1.401 . S
C20 C19 1.396 . S
C21 C16 1.499 . S
C21 H22 0.980 . S
C21 H23 0.960 . S
C21 H24 0.961 . S
H22 C21 0.980 . S
H23 C21 0.960 . S
H24 C21 0.961 . S
O25 Co0 1.967 . S
O25 C33 1.258 1_565 S
O26 Co1 1.941 . S
O26 C33 1.266 1_655 S
H27 C29 0.959 . S
H28 C29 0.961 . S
C29 C19 1.510 . S
C29 H27 0.959 . S
C29 H28 0.961 . S
C29 H30 0.960 . S
H30 C29 0.960 . S
H31 N11 0.862 . S
O32 Co0 1.920 . S
O32 C5 1.289 . S
C33 O25 1.258 1_545 S
C33 O26 1.266 1_455 S
Co34 O37 1.970 1_565 S
Co34 N51 1.989 1_455 S
Co34 O59 1.967 . S
Co34 O66 1.920 . S
Co35 O38 1.966 1_655 S
Co35 N44 2.022 . S
Co35 N52 1.993 1_545 S
Co35 O60 1.941 . S
C36 O37 1.258 . S
C36 O38 1.263 . S
O37 Co34 1.970 1_545 S
O37 C36 1.258 . S
O38 Co35 1.966 1_455 S
O38 C36 1.263 . S
C39 O40 1.235 . S
C39 O66 1.289 . S
O40 C39 1.235 . S
C41 C43 1.400 . S
C41 N44 1.351 . S
C41 C46 1.501 . S
C42 C43 1.387 . S
C42 N45 1.341 . S
C43 C41 1.400 . S
C43 C42 1.387 . S
N44 Co35 2.022 . S
N44 C41 1.351 . S
N44 N45 1.365 . S
N45 C42 1.341 . S
N45 N44 1.365 . S
N45 H65 0.862 . S
C46 C41 1.501 . S
C46 H47 0.961 1_655 S
C46 H48 0.961 . S
C46 H49 0.960 . S
H47 C46 0.961 1_455 S
H48 C46 0.961 . S
H49 C46 0.960 . S
C50 N51 1.342 . S
C50 C54 1.401 . S
C50 C55 1.499 . S
N51 Co34 1.989 1_655 S
N51 C50 1.342 . S
N51 N52 1.388 . S
N52 Co35 1.993 1_565 S
N52 N51 1.388 . S
N52 C53 1.346 . S
C53 N52 1.346 . S
C53 C54 1.396 . S
C53 C63 1.510 . S
C54 C50 1.401 . S
C54 C53 1.396 . S
C55 C50 1.499 . S
C55 H56 0.959 1_655 S
C55 H57 0.960 . S
C55 H58 0.961 . S
H56 C55 0.959 1_455 S
H57 C55 0.960 . S
H58 C55 0.961 . S
O59 Co34 1.967 . S
O59 C67 1.258 1_565 S
O60 Co35 1.941 . S
O60 C67 1.266 1_655 S
H61 C63 0.959 . S
H62 C63 0.961 . S
C63 C53 1.510 . S
C63 H61 0.959 . S
C63 H62 0.961 . S
C63 H64 0.960 1_565 S
H64 C63 0.960 1_545 S
H65 N45 0.862 . S
O66 Co34 1.920 . S
O66 C39 1.289 . S
C67 O59 1.258 1_545 S
C67 O60 1.266 1_455 S
Co68 O71 1.970 . S
Co68 N85 1.989 . S
Co68 O93 1.967 . S
Co68 O100 1.920 . S
Co69 O72 1.966 . S
Co69 N78 2.022 . S
Co69 N86 1.993 . S
Co69 O94 1.941 . S
C70 O71 1.258 . S
C70 O72 1.263 . S
O71 Co68 1.970 . S
O71 C70 1.258 . S
O72 Co69 1.966 . S
O72 C70 1.263 . S
C73 O74 1.235 . S
C73 O100 1.289 . S
O74 C73 1.235 . S
C75 C77 1.400 . S
C75 N78 1.351 . S
C75 C80 1.501 . S
C76 C77 1.387 . S
C76 N79 1.341 . S
C77 C75 1.400 . S
C77 C76 1.387 . S
N78 Co69 2.022 . S
N78 C75 1.351 . S
N78 N79 1.365 . S
N79 C76 1.341 . S
N79 N78 1.365 . S
N79 H99 0.862 . S
C80 C75 1.501 . S
C80 H81 0.961 . S
C80 H82 0.961 . S
C80 H83 0.960 . S
H81 C80 0.961 . S
H82 C80 0.961 . S
H83 C80 0.960 . S
C84 N85 1.342 . S
C84 C88 1.401 . S
C84 C89 1.499 . S
N85 Co68 1.989 . S
N85 C84 1.342 . S
N85 N86 1.388 . S
N86 Co69 1.993 . S
N86 N85 1.388 . S
N86 C87 1.346 . S
C87 N86 1.346 . S
C87 C88 1.396 . S
C87 C97 1.510 . S
C88 C84 1.401 . S
C88 C87 1.396 . S
C89 C84 1.499 . S
C89 H90 0.959 . S
C89 H91 0.960 . S
C89 H92 0.961 . S
H90 C89 0.959 . S
H91 C89 0.960 . S
H92 C89 0.961 . S
O93 Co68 1.967 . S
O93 C101 1.258 . S
O94 Co69 1.941 . S
O94 C101 1.266 . S
H95 C97 0.959 . S
H96 C97 0.961 . S
C97 C87 1.510 . S
C97 H95 0.959 . S
C97 H96 0.961 . S
C97 H98 0.960 . S
H98 C97 0.960 . S
H99 N79 0.862 . S
O100 Co68 1.920 . S
O100 C73 1.289 . S
C101 O93 1.258 . S
C101 O94 1.266 . S
Co102 O105 1.970 . S
Co102 N119 1.989 . S
Co102 O127 1.967 . S
Co102 O134 1.920 . S
Co103 O106 1.966 . S
Co103 N112 2.022 . S
Co103 N120 1.993 . S
Co103 O128 1.941 . S
C104 O105 1.258 . S
C104 O106 1.263 . S
O105 Co102 1.970 . S
O105 C104 1.258 . S
O106 Co103 1.966 . S
O106 C104 1.263 . S
C107 O108 1.235 . S
C107 O134 1.289 . S
O108 C107 1.235 . S
C109 C111 1.400 . S
C109 N112 1.351 . S
C109 C114 1.501 . S
C110 C111 1.387 . S
C110 N113 1.341 . S
C111 C109 1.400 . S
C111 C110 1.387 . S
N112 Co103 2.022 . S
N112 C109 1.351 . S
N112 N113 1.365 . S
N113 C110 1.341 . S
N113 N112 1.365 . S
N113 H133 0.862 . S
C114 C109 1.501 . S
C114 H115 0.961 . S
C114 H116 0.961 . S
C114 H117 0.960 . S
H115 C114 0.961 . S
H116 C114 0.961 . S
H117 C114 0.960 . S
C118 N119 1.342 . S
C118 C122 1.401 . S
C118 C123 1.499 . S
N119 Co102 1.989 . S
N119 C118 1.342 . S
N119 N120 1.388 . S
N120 Co103 1.993 . S
N120 N119 1.388 . S
N120 C121 1.346 . S
C121 N120 1.346 . S
C121 C122 1.396 . S
C121 C131 1.510 . S
C122 C118 1.401 . S
C122 C121 1.396 . S
C123 C118 1.499 . S
C123 H124 0.959 . S
C123 H125 0.960 . S
C123 H126 0.961 . S
H124 C123 0.959 . S
H125 C123 0.960 . S
H126 C123 0.961 . S
O127 Co102 1.967 . S
O127 C135 1.258 . S
O128 Co103 1.941 . S
O128 C135 1.266 . S
H129 C131 0.959 . S
H130 C131 0.961 . S
C131 C121 1.510 . S
C131 H129 0.959 . S
C131 H130 0.961 . S
C131 H132 0.960 . S
H132 C131 0.960 . S
H133 N113 0.862 . S
O134 Co102 1.920 . S
O134 C107 1.289 . S
C135 O127 1.258 . S
C135 O128 1.266 . S
H136 C137 0.951 . S
C137 H136 0.951 . S
C137 C143 1.265 1_445 S
H138 C143 0.950 . S
H139 C147 0.949 . S
H140 C148 0.950 . S
H141 C149 0.951 . S
H142 C150 0.951 . S
C143 C137 1.265 1_665 S
C143 H138 0.950 . S
C143 C144 1.478 1_665 S
C144 C143 1.478 1_445 S
C144 C145 1.397 1_445 S
C144 C161 1.394 . S
C145 C144 1.397 1_665 S
C145 C146 1.438 1_655 S
C145 C150 1.429 . S
C146 C145 1.438 1_455 S
C146 C147 1.428 1_455 S
C146 C159 1.394 1_565 S
C147 H139 0.949 . S
C147 C146 1.428 1_655 S
C147 C148 1.345 . S
C148 H140 0.950 . S
C148 C147 1.345 . S
C148 C149 1.424 . S
C149 H141 0.951 . S
C149 C148 1.424 . S
C149 C150 1.347 . S
C150 H142 0.951 . S
C150 C145 1.429 . S
C150 C149 1.347 . S
H151 C152 0.951 1_665 S
C152 H151 0.951 1_445 S
C152 C158 1.268 . S
H153 C158 0.950 . S
H154 C162 0.949 . S
H155 C163 0.950 . S
H156 C164 0.951 . S
H157 C165 0.951 . S
C158 C152 1.268 . S
C158 H153 0.950 . S
C158 C159 1.478 . S
C159 C146 1.394 1_545 S
C159 C158 1.478 . S
C159 C160 1.397 . S
C160 C159 1.397 . S
C160 C161 1.438 . S
C160 C165 1.429 . S
C161 C144 1.394 . S
C161 C160 1.438 . S
C161 C162 1.428 . S
C162 H154 0.949 . S
C162 C161 1.428 . S
C162 C163 1.345 . S
C163 H155 0.950 . S
C163 C162 1.345 . S
C163 C164 1.424 . S
C164 H156 0.951 . S
C164 C163 1.424 . S
C164 C165 1.347 . S
C165 H157 0.951 . S
C165 C160 1.429 . S
C165 C164 1.347 . S
H166 C167 0.951 . S
C167 H166 0.951 . S
C167 C173 1.265 . S
H168 C173 0.950 . S
H169 C177 0.949 . S
H170 C178 0.950 . S
H171 C179 0.951 . S
H172 C180 0.951 . S
C173 C167 1.265 . S
C173 H168 0.950 . S
C173 C174 1.478 . S
C174 C173 1.478 . S
C174 C175 1.397 . S
C174 C191 1.394 . S
C175 C174 1.397 . S
C175 C176 1.438 1_554 S
C175 C180 1.429 . S
C176 C175 1.438 1_556 S
C176 C177 1.428 . S
C176 C189 1.394 . S
C177 H169 0.949 . S
C177 C176 1.428 . S
C177 C178 1.345 . S
C178 H170 0.950 . S
C178 C177 1.345 . S
C178 C179 1.424 1_556 S
C179 H171 0.951 . S
C179 C178 1.424 1_554 S
C179 C180 1.347 . S
C180 H172 0.951 . S
C180 C175 1.429 . S
C180 C179 1.347 . S
H181 C182 0.951 . S
C182 H181 0.951 . S
C182 C188 1.265 . S
H183 C188 0.950 . S
H184 C192 0.949 . S
H185 C193 0.950 . S
H186 C194 0.951 . S
H187 C195 0.951 . S
C188 C182 1.265 . S
C188 H183 0.950 . S
C188 C189 1.478 . S
C189 C176 1.394 . S
C189 C188 1.478 . S
C189 C190 1.397 . S
C190 C189 1.397 . S
C190 C191 1.438 1_556 S
C190 C195 1.429 . S
C191 C174 1.394 . S
C191 C190 1.438 1_554 S
C191 C192 1.428 . S
C192 H184 0.949 . S
C192 C191 1.428 . S
C192 C193 1.345 . S
C193 H185 0.950 . S
C193 C192 1.345 . S
C193 C194 1.424 1_554 S
C194 H186 0.951 . S
C194 C193 1.424 1_556 S
C194 C195 1.347 . S
C195 H187 0.951 . S
C195 C190 1.429 . S
C195 C194 1.347 . S
H196 C197 0.951 . S
C197 H196 0.951 . S
C197 C203 1.265 . S
H198 C203 0.950 . S
H199 C207 0.949 . S
H200 C208 0.950 . S
H201 C209 0.951 . S
H202 C210 0.951 . S
C203 C197 1.265 . S
C203 H198 0.950 . S
C203 C204 1.478 . S
C204 C203 1.478 . S
C204 C205 1.397 . S
C204 C221 1.394 . S
C205 C204 1.397 . S
C205 C206 1.438 . S
C205 C210 1.429 . S
C206 C205 1.438 . S
C206 C207 1.428 . S
C206 C219 1.394 . S
C207 H199 0.949 . S
C207 C206 1.428 . S
C207 C208 1.345 . S
C208 H200 0.950 . S
C208 C207 1.345 . S
C208 C209 1.424 . S
C209 H201 0.951 . S
C209 C208 1.424 . S
C209 C210 1.347 . S
C210 H202 0.951 . S
C210 C205 1.429 . S
C210 C209 1.347 . S
H211 C212 0.951 . S
C212 H211 0.951 . S
C212 C218 1.265 . S
H213 C218 0.950 . S
H214 C222 0.949 . S
H215 C223 0.950 . S
H216 C224 0.951 . S
H217 C225 0.951 . S
C218 C212 1.265 . S
C218 H213 0.950 . S
C218 C219 1.478 . S
C219 C206 1.394 . S
C219 C218 1.478 . S
C219 C220 1.397 . S
C220 C219 1.397 . S
C220 C221 1.438 . S
C220 C225 1.429 . S
C221 C204 1.394 . S
C221 C220 1.438 . S
C221 C222 1.428 . S
C222 H214 0.949 . S
C222 C221 1.428 . S
C222 C223 1.345 . S
C223 H215 0.950 . S
C223 C222 1.345 . S
C223 C224 1.424 . S
C224 H216 0.951 . S
C224 C223 1.424 . S
C224 C225 1.347 . S
C225 H217 0.951 . S
C225 C220 1.429 . S
C225 C224 1.347 . S
H226 C227 0.951 . S
C227 H226 0.951 . S
C227 C233 1.265 . S
H228 C233 0.950 . S
H229 C237 0.949 . S
H230 C238 0.950 . S
H231 C239 0.951 . S
H232 C240 0.951 . S
C233 C227 1.265 . S
C233 H228 0.950 . S
C233 C234 1.478 . S
C234 C233 1.478 . S
C234 C235 1.397 . S
C234 C251 1.394 . S
C235 C234 1.397 . S
C235 C236 1.438 . S
C235 C240 1.429 . S
C236 C235 1.438 . S
C236 C237 1.428 . S
C236 C249 1.394 . S
C237 H229 0.949 . S
C237 C236 1.428 . S
C237 C238 1.345 . S
C238 H230 0.950 . S
C238 C237 1.345 . S
C238 C239 1.424 . S
C239 H231 0.951 . S
C239 C238 1.424 . S
C239 C240 1.347 . S
C240 H232 0.951 . S
C240 C235 1.429 . S
C240 C239 1.347 . S
H241 C242 0.951 . S
C242 H241 0.951 . S
C242 C248 1.265 . S
H243 C248 0.950 . S
H244 C252 0.949 . S
H245 C253 0.950 . S
H246 C254 0.951 . S
H247 C255 0.951 . S
C248 C242 1.265 . S
C248 H243 0.950 . S
C248 C249 1.478 . S
C249 C236 1.394 . S
C249 C248 1.478 . S
C249 C250 1.397 . S
C250 C249 1.397 . S
C250 C251 1.438 . S
C250 C255 1.429 . S
C251 C234 1.394 . S
C251 C250 1.438 . S
C251 C252 1.428 . S
C252 H244 0.949 . S
C252 C251 1.428 . S
C252 C253 1.345 . S
C253 H245 0.950 . S
C253 C252 1.345 . S
C253 C254 1.424 . S
C254 H246 0.951 . S
C254 C253 1.424 . S
C254 C255 1.347 . S
C255 H247 0.951 . S
C255 C250 1.429 . S
C255 C254 1.347 . S
H256 C257 0.951 . S
C257 H256 0.951 . S
C257 C263 1.265 . S
H258 C263 0.950 . S
H259 C267 0.949 . S
H260 C268 0.950 . S
H261 C269 0.951 . S
H262 C270 0.951 . S
C263 C257 1.265 . S
C263 H258 0.950 . S
C263 C264 1.478 . S
C264 C263 1.478 . S
C264 C265 1.397 . S
C264 C281 1.394 . S
C265 C264 1.397 . S
C265 C266 1.438 . S
C265 C270 1.429 . S
C266 C265 1.438 . S
C266 C267 1.428 . S
C266 C279 1.394 . S
C267 H259 0.949 . S
C267 C266 1.428 . S
C267 C268 1.345 . S
C268 H260 0.950 . S
C268 C267 1.345 . S
C268 C269 1.424 . S
C269 H261 0.951 . S
C269 C268 1.424 . S
C269 C270 1.347 . S
C270 H262 0.951 . S
C270 C265 1.429 . S
C270 C269 1.347 . S
H271 C272 0.951 . S
C272 H271 0.951 . S
C272 C278 1.265 . S
H273 C278 0.950 . S
H274 C282 0.949 . S
H275 C283 0.950 . S
H276 C284 0.951 . S
H277 C285 0.951 . S
C278 C272 1.265 . S
C278 H273 0.950 . S
C278 C279 1.478 . S
C279 C266 1.394 . S
C279 C278 1.478 . S
C279 C280 1.397 . S
C280 C279 1.397 . S
C280 C281 1.438 . S
C280 C285 1.429 . S
C281 C264 1.394 . S
C281 C280 1.438 . S
C281 C282 1.428 . S
C282 H274 0.949 . S
C282 C281 1.428 . S
C282 C283 1.345 . S
C283 H275 0.950 . S
C283 C282 1.345 . S
C283 C284 1.424 . S
C284 H276 0.951 . S
C284 C283 1.424 . S
C284 C285 1.347 . S
C285 H277 0.951 . S
C285 C280 1.429 . S
C285 C284 1.347 . S
H286 C287 0.951 . S
C287 H286 0.951 . S
C287 C293 1.265 . S
H288 C293 0.950 . S
H289 C297 0.949 . S
H290 C298 0.950 . S
H291 C299 0.951 . S
H292 C300 0.951 . S
C293 C287 1.265 . S
C293 H288 0.950 . S
C293 C294 1.478 . S
C294 C293 1.478 . S
C294 C295 1.397 . S
C294 C311 1.394 . S
C295 C294 1.397 . S
C295 C296 1.438 . S
C295 C300 1.429 . S
C296 C295 1.438 . S
C296 C297 1.428 . S
C296 C309 1.394 . S
C297 H289 0.949 . S
C297 C296 1.428 . S
C297 C298 1.345 . S
C298 H290 0.950 . S
C298 C297 1.345 . S
C298 C299 1.424 . S
C299 H291 0.951 . S
C299 C298 1.424 . S
C299 C300 1.347 . S
C300 H292 0.951 . S
C300 C295 1.429 . S
C300 C299 1.347 . S
H301 C302 0.951 . S
C302 H301 0.951 . S
C302 C308 1.265 . S
H303 C308 0.950 . S
H304 C312 0.949 . S
H305 C313 0.950 . S
H306 C314 0.951 . S
H307 C315 0.951 . S
C308 C302 1.265 . S
C308 H303 0.950 . S
C308 C309 1.478 . S
C309 C296 1.394 . S
C309 C308 1.478 . S
C309 C310 1.397 . S
C310 C309 1.397 . S
C310 C311 1.438 . S
C310 C315 1.429 . S
C311 C294 1.394 . S
C311 C310 1.438 . S
C311 C312 1.428 . S
C312 H304 0.949 . S
C312 C311 1.428 . S
C312 C313 1.345 . S
C313 H305 0.950 . S
C313 C312 1.345 . S
C313 C314 1.424 . S
C314 H306 0.951 . S
C314 C313 1.424 . S
C314 C315 1.347 . S
C315 H307 0.951 . S
C315 C310 1.429 . S
C315 C314 1.347 . S
H316 C317 0.951 . S
C317 H316 0.951 . S
C317 C323 1.265 . S
H318 C323 0.950 . S
H319 C327 0.949 . S
H320 C328 0.950 . S
H321 C329 0.951 . S
H322 C330 0.951 . S
C323 C317 1.265 . S
C323 H318 0.950 . S
C323 C324 1.478 . S
C324 C323 1.478 . S
C324 C325 1.397 . S
C324 C341 1.394 . S
C325 C324 1.397 . S
C325 C326 1.438 . S
C325 C330 1.429 . S
C326 C325 1.438 . S
C326 C327 1.428 . S
C326 C339 1.394 . S
C327 H319 0.949 . S
C327 C326 1.428 . S
C327 C328 1.345 . S
C328 H320 0.950 . S
C328 C327 1.345 . S
C328 C329 1.424 . S
C329 H321 0.951 . S
C329 C328 1.424 . S
C329 C330 1.347 . S
C330 H322 0.951 . S
C330 C325 1.429 . S
C330 C329 1.347 . S
H331 C332 0.951 . S
C332 H331 0.951 . S
C332 C338 1.265 . S
H333 C338 0.950 . S
H334 C342 0.949 . S
H335 C343 0.950 . S
H336 C344 0.951 . S
H337 C345 0.951 . S
C338 C332 1.265 . S
C338 H333 0.950 . S
C338 C339 1.478 . S
C339 C326 1.394 . S
C339 C338 1.478 . S
C339 C340 1.397 . S
C340 C339 1.397 . S
C340 C341 1.438 . S
C340 C345 1.429 . S
C341 C324 1.394 . S
C341 C340 1.438 . S
C341 C342 1.428 . S
C342 H334 0.949 . S
C342 C341 1.428 . S
C342 C343 1.345 . S
C343 H335 0.950 . S
C343 C342 1.345 . S
C343 C344 1.424 . S
C344 H336 0.951 . S
C344 C343 1.424 . S
C344 C345 1.347 . S
C345 H337 0.951 . S
C345 C340 1.429 . S
C345 C344 1.347 . S
H346 C347 0.951 . S
C347 H346 0.951 . S
C347 C353 1.265 . S
H348 C353 0.950 . S
H349 C357 0.949 . S
H350 C358 0.950 . S
H351 C359 0.951 . S
H352 C360 0.951 . S
C353 C347 1.265 . S
C353 H348 0.950 . S
C353 C354 1.478 . S
C354 C353 1.478 . S
C354 C355 1.397 . S
C354 C371 1.394 . S
C355 C354 1.397 . S
C355 C356 1.438 . S
C355 C360 1.429 . S
C356 C355 1.438 . S
C356 C357 1.428 . S
C356 C369 1.394 . S
C357 H349 0.949 . S
C357 C356 1.428 . S
C357 C358 1.345 . S
C358 H350 0.950 . S
C358 C357 1.345 . S
C358 C359 1.424 . S
C359 H351 0.951 . S
C359 C358 1.424 . S
C359 C360 1.347 . S
C360 H352 0.951 . S
C360 C355 1.429 . S
C360 C359 1.347 . S
H361 C362 0.951 . S
C362 H361 0.951 . S
C362 C368 1.265 . S
H363 C368 0.950 . S
H364 C372 0.949 . S
H365 C373 0.950 . S
H366 C374 0.951 . S
H367 C375 0.951 . S
C368 C362 1.265 . S
C368 H363 0.950 . S
C368 C369 1.478 . S
C369 C356 1.394 . S
C369 C368 1.478 . S
C369 C370 1.397 . S
C370 C369 1.397 . S
C370 C371 1.438 . S
C370 C375 1.429 . S
C371 C354 1.394 . S
C371 C370 1.438 . S
C371 C372 1.428 . S
C372 H364 0.949 . S
C372 C371 1.428 . S
C372 C373 1.345 . S
C373 H365 0.950 . S
C373 C372 1.345 . S
C373 C374 1.424 . S
C374 H366 0.951 . S
C374 C373 1.424 . S
C374 C375 1.347 . S
C375 H367 0.951 . S
C375 C370 1.429 . S
C375 C374 1.347 . S
H376 C377 0.951 . S
C377 H376 0.951 . S
C377 C383 1.265 . S
H378 C383 0.950 . S
H379 C387 0.949 . S
H380 C388 0.950 . S
H381 C389 0.951 . S
H382 C390 0.951 . S
C383 C377 1.265 . S
C383 H378 0.950 . S
C383 C384 1.478 . S
C384 C383 1.478 . S
C384 C385 1.397 . S
C384 C401 1.394 . S
C385 C384 1.397 . S
C385 C386 1.438 . S
C385 C390 1.429 . S
C386 C385 1.438 . S
C386 C387 1.428 . S
C386 C399 1.394 . S
C387 H379 0.949 . S
C387 C386 1.428 . S
C387 C388 1.345 . S
C388 H380 0.950 . S
C388 C387 1.345 . S
C388 C389 1.424 . S
C389 H381 0.951 . S
C389 C388 1.424 . S
C389 C390 1.347 . S
C390 H382 0.951 . S
C390 C385 1.429 . S
C390 C389 1.347 . S
H391 C392 0.951 . S
C392 H391 0.951 . S
C392 C398 1.265 . S
H393 C398 0.950 . S
H394 C402 0.949 . S
H395 C403 0.950 . S
H396 C404 0.951 . S
H397 C405 0.951 . S
C398 C392 1.265 . S
C398 H393 0.950 . S
C398 C399 1.478 . S
C399 C386 1.394 . S
C399 C398 1.478 . S
C399 C400 1.397 . S
C400 C399 1.397 . S
C400 C401 1.438 . S
C400 C405 1.429 . S
C401 C384 1.394 . S
C401 C400 1.438 . S
C401 C402 1.428 . S
C402 H394 0.949 . S
C402 C401 1.428 . S
C402 C403 1.345 . S
C403 H395 0.950 . S
C403 C402 1.345 . S
C403 C404 1.424 . S
C404 H396 0.951 . S
C404 C403 1.424 . S
C404 C405 1.347 . S
C405 H397 0.951 . S
C405 C400 1.429 . S
C405 C404 1.347 . S
H406 C407 0.951 . S
C407 H406 0.951 . S
C407 C413 1.265 . S
H408 C413 0.950 . S
H409 C417 0.949 . S
H410 C418 0.950 . S
H411 C419 0.951 . S
H412 C420 0.951 . S
C413 C407 1.265 . S
C413 H408 0.950 . S
C413 C414 1.478 . S
C414 C413 1.478 . S
C414 C415 1.397 . S
C414 C431 1.394 . S
C415 C414 1.397 . S
C415 C416 1.438 . S
C415 C420 1.429 . S
C416 C415 1.438 . S
C416 C417 1.428 . S
C416 C429 1.394 . S
C417 H409 0.949 . S
C417 C416 1.428 . S
C417 C418 1.345 . S
C418 H410 0.950 . S
C418 C417 1.345 . S
C418 C419 1.424 . S
C419 H411 0.951 . S
C419 C418 1.424 . S
C419 C420 1.347 . S
C420 H412 0.951 . S
C420 C415 1.429 . S
C420 C419 1.347 . S
H421 C422 0.951 . S
C422 H421 0.951 . S
C422 C428 1.265 . S
H423 C428 0.950 . S
H424 C432 0.949 . S
H425 C433 0.950 . S
H426 C434 0.951 . S
H427 C435 0.951 . S
C428 C422 1.265 . S
C428 H423 0.950 . S
C428 C429 1.478 . S
C429 C416 1.394 . S
C429 C428 1.478 . S
C429 C430 1.397 . S
C430 C429 1.397 . S
C430 C431 1.438 . S
C430 C435 1.429 . S
C431 C414 1.394 . S
C431 C430 1.438 . S
C431 C432 1.428 . S
C432 H424 0.949 . S
C432 C431 1.428 . S
C432 C433 1.345 . S
C433 H425 0.950 . S
C433 C432 1.345 . S
C433 C434 1.424 . S
C434 H426 0.951 . S
C434 C433 1.424 . S
C434 C435 1.347 . S
C435 H427 0.951 . S
C435 C430 1.429 . S
C435 C434 1.347 . S
C137 C33 1.512 . S
C152 C67 1.496 . S
C167 C135 1.496 . S
C182 C101 1.512 . S
C197 C20 1.268 . S
C212 C122 1.275 . S
C227 C9 1.491 . S
C242 C107 1.529 . S
C257 C104 1.568 . S
C272 C2 1.557 . S
C287 C5 1.536 . S
C302 C111 1.483 . S
C317 C77 1.529 . S
C332 C39 1.530 . S
C347 C36 1.555 . S
C362 C70 1.566 . S
C377 C43 1.516 . S
C392 C73 1.541 . S
C407 C88 1.274 . S
C422 C54 1.267 . S
