# Generated by pormake.
# Topology uns, (4)-cn, num edge types: 1
# Building blocks:
#     Node 0, Type 0, BuildingBlock: GALJAG_clean_sbu_0, # of connection points: 4
#     Node 1, Type 0, BuildingBlock: GALJAG_clean_sbu_0, # of connection points: 4
#     Node 2, Type 0, BuildingBlock: GALJAG_clean_sbu_0, # of connection points: 4
#     Node 3, Type 0, BuildingBlock: GALJAG_clean_sbu_0, # of connection points: 4
#     Node 4, Type 0, BuildingBlock: GALJAG_clean_sbu_0, # of connection points: 4
#     Node 5, Type 0, BuildingBlock: GALJAG_clean_sbu_0, # of connection points: 4
#     Node 6, Type 0, BuildingBlock: GALJAG_clean_sbu_0, # of connection points: 4
#     Node 7, Type 0, BuildingBlock: GALJAG_clean_sbu_0, # of connection points: 4
#     Node 8, Type 0, BuildingBlock: GALJAG_clean_sbu_0, # of connection points: 4
#     Node 9, Type 0, BuildingBlock: GALJAG_clean_sbu_0, # of connection points: 4
#     Node 10, Type 0, BuildingBlock: GALJAG_clean_sbu_0, # of connection points: 4
#     Node 11, Type 0, BuildingBlock: GALJAG_clean_sbu_0, # of connection points: 4
#     Node 12, Type 0, BuildingBlock: GALJAG_clean_sbu_0, # of connection points: 4
#     Node 13, Type 0, BuildingBlock: GALJAG_clean_sbu_0, # of connection points: 4
#     Node 14, Type 0, BuildingBlock: GALJAG_clean_sbu_0, # of connection points: 4
#     Node 15, Type 0, BuildingBlock: GALJAG_clean_sbu_0, # of connection points: 4
#     Node 16, Type 0, BuildingBlock: GALJAG_clean_sbu_0, # of connection points: 4
#     Node 17, Type 0, BuildingBlock: GALJAG_clean_sbu_0, # of connection points: 4
#     Node 18, Type 0, BuildingBlock: GALJAG_clean_sbu_0, # of connection points: 4
#     Node 19, Type 0, BuildingBlock: GALJAG_clean_sbu_0, # of connection points: 4
#     Node 20, Type 0, BuildingBlock: GALJAG_clean_sbu_0, # of connection points: 4
#     Node 21, Type 0, BuildingBlock: GALJAG_clean_sbu_0, # of connection points: 4
#     Node 22, Type 0, BuildingBlock: GALJAG_clean_sbu_0, # of connection points: 4
#     Node 23, Type 0, BuildingBlock: GALJAG_clean_sbu_0, # of connection points: 4
#     Node 24, Type 0, BuildingBlock: GALJAG_clean_sbu_0, # of connection points: 4
#     Node 25, Type 0, BuildingBlock: GALJAG_clean_sbu_0, # of connection points: 4
#     Node 26, Type 0, BuildingBlock: GALJAG_clean_sbu_0, # of connection points: 4
#     Node 27, Type 0, BuildingBlock: GALJAG_clean_sbu_0, # of connection points: 4
#     Node 28, Type 0, BuildingBlock: GALJAG_clean_sbu_0, # of connection points: 4
#     Node 29, Type 0, BuildingBlock: GALJAG_clean_sbu_0, # of connection points: 4
#     Node 30, Type 0, BuildingBlock: GALJAG_clean_sbu_0, # of connection points: 4
#     Node 31, Type 0, BuildingBlock: GALJAG_clean_sbu_0, # of connection points: 4
#     Node 32, Type 0, BuildingBlock: GALJAG_clean_sbu_0, # of connection points: 4
#     Node 33, Type 0, BuildingBlock: GALJAG_clean_sbu_0, # of connection points: 4
#     Node 34, Type 0, BuildingBlock: GALJAG_clean_sbu_0, # of connection points: 4
#     Node 35, Type 0, BuildingBlock: GALJAG_clean_sbu_0, # of connection points: 4
#     Edge 36, Type (0, 0), None
#     Edge 37, Type (0, 0), None
#     Edge 38, Type (0, 0), None
#     Edge 39, Type (0, 0), None
#     Edge 40, Type (0, 0), None
#     Edge 41, Type (0, 0), None
#     Edge 42, Type (0, 0), None
#     Edge 43, Type (0, 0), None
#     Edge 44, Type (0, 0), None
#     Edge 45, Type (0, 0), None
#     Edge 46, Type (0, 0), None
#     Edge 47, Type (0, 0), None
#     Edge 48, Type (0, 0), None
#     Edge 49, Type (0, 0), None
#     Edge 50, Type (0, 0), None
#     Edge 51, Type (0, 0), None
#     Edge 52, Type (0, 0), None
#     Edge 53, Type (0, 0), None
#     Edge 54, Type (0, 0), None
#     Edge 55, Type (0, 0), None
#     Edge 56, Type (0, 0), None
#     Edge 57, Type (0, 0), None
#     Edge 58, Type (0, 0), None
#     Edge 59, Type (0, 0), None
#     Edge 60, Type (0, 0), None
#     Edge 61, Type (0, 0), None
#     Edge 62, Type (0, 0), None
#     Edge 63, Type (0, 0), None
#     Edge 64, Type (0, 0), None
#     Edge 65, Type (0, 0), None
#     Edge 66, Type (0, 0), None
#     Edge 67, Type (0, 0), None
#     Edge 68, Type (0, 0), None
#     Edge 69, Type (0, 0), None
#     Edge 70, Type (0, 0), None
#     Edge 71, Type (0, 0), None
#     Edge 72, Type (0, 0), None
#     Edge 73, Type (0, 0), None
#     Edge 74, Type (0, 0), None
#     Edge 75, Type (0, 0), None
#     Edge 76, Type (0, 0), None
#     Edge 77, Type (0, 0), None
#     Edge 78, Type (0, 0), None
#     Edge 79, Type (0, 0), None
#     Edge 80, Type (0, 0), None
#     Edge 81, Type (0, 0), None
#     Edge 82, Type (0, 0), None
#     Edge 83, Type (0, 0), None
#     Edge 84, Type (0, 0), None
#     Edge 85, Type (0, 0), None
#     Edge 86, Type (0, 0), None
#     Edge 87, Type (0, 0), None
#     Edge 88, Type (0, 0), None
#     Edge 89, Type (0, 0), None
#     Edge 90, Type (0, 0), None
#     Edge 91, Type (0, 0), None
#     Edge 92, Type (0, 0), None
#     Edge 93, Type (0, 0), None
#     Edge 94, Type (0, 0), None
#     Edge 95, Type (0, 0), None
#     Edge 96, Type (0, 0), None
#     Edge 97, Type (0, 0), None
#     Edge 98, Type (0, 0), None
#     Edge 99, Type (0, 0), None
#     Edge 100, Type (0, 0), None
#     Edge 101, Type (0, 0), None
#     Edge 102, Type (0, 0), None
#     Edge 103, Type (0, 0), None
#     Edge 104, Type (0, 0), None
#     Edge 105, Type (0, 0), None
#     Edge 106, Type (0, 0), None
#     Edge 107, Type (0, 0), None
# Relax obj value: 0.063
# Max RMSD: 0.222
# Mean RMSD: 0.222
data_MOF--net-uns--node1-GALJAG_clean_sbu_0--edge1-none
_symmetry_space_group_name_H-M    P1
_symmetry_Int_Tables_number       1
_symmetry_cell_setting            triclinic
loop_
_symmetry_equiv_pos_as_xyz
'x, y, z'
_cell_length_a     27.31447
_cell_length_b     27.310512
_cell_length_c     19.937135
_cell_angle_alpha  90.001401
_cell_angle_beta   89.998291
_cell_angle_gamma 119.98489
loop_
_atom_site_label
_atom_site_type_symbol
_atom_site_fract_x
_atom_site_fract_y
_atom_site_fract_z
_atom_type_partial_charge
In0 In 0.23392 0.18013 0.06047 0.0
O1 O 0.23445 0.12726 0.97242 0.0
O2 O 0.18049 0.086 0.05756 0.0
C3 C 0.30072 0.28979 0.07883 0.0
C4 C 0.2962 0.15907 0.14375 0.0
C5 C 0.14774 0.1931 0.02339 0.0
O6 O 0.30006 0.26642 0.02321 0.0
O7 O 0.26793 0.25777 0.12419 0.0
O8 O 0.15352 0.18324 0.08446 0.0
O9 O 0.18403 0.19467 0.98268 0.0
C10 C 0.19848 0.08131 0.0006 0.0
O11 O 0.2478 0.15127 0.16091 0.0
O12 O 0.31252 0.17702 0.08456 0.0
In13 In 0.78737 0.04729 0.06046 0.0
O14 O 0.84024 0.10069 0.97241 0.0
O15 O 0.8815 0.08798 0.05754 0.0
C16 C 0.6777 0.00443 0.07882 0.0
C17 C 0.80841 0.13061 0.14375 0.0
C18 C 0.7744 0.94813 0.02338 0.0
O19 O 0.70107 0.02715 0.0232 0.0
O20 O 0.70973 0.00367 0.12418 0.0
O21 O 0.78427 0.96378 0.08445 0.0
O22 O 0.77284 0.98286 0.98267 0.0
C23 C 0.88619 0.11067 0.00059 0.0
O24 O 0.81622 0.09001 0.1609 0.0
O25 O 0.79046 0.12899 0.08457 0.0
In26 In 0.92021 0.73359 0.06047 0.0
O27 O 0.86682 0.73304 0.97241 0.0
O28 O 0.8795 0.78703 0.05754 0.0
C29 C 0.96307 0.66677 0.07882 0.0
C30 C 0.83688 0.67129 0.14376 0.0
C31 C 0.01936 0.81976 0.02338 0.0
O32 O 0.94035 0.66742 0.0232 0.0
O33 O 0.96382 0.69956 0.12418 0.0
O34 O 0.00371 0.81398 0.08445 0.0
O35 O -0.01536 0.78348 0.98268 0.0
C36 C 0.85683 0.76902 0.00059 0.0
O37 O 0.87746 0.71969 0.16091 0.0
O38 O 0.83852 0.65498 0.08456 0.0
In39 In 0.17363 0.24043 0.43952 0.0
O40 O 0.14478 0.2543 0.33908 0.0
O41 O 0.17052 0.31903 0.41543 0.0
C42 C 0.1866 0.15424 0.4766 0.0
C43 C 0.07481 0.20498 0.49939 0.0
C44 C 0.2833 0.30723 0.42116 0.0
O45 O 0.17675 0.16002 0.41553 0.0
O46 O 0.18817 0.19054 0.51731 0.0
O47 O 0.25992 0.30658 0.47678 0.0
O48 O 0.25127 0.27444 0.37581 0.0
C49 C 0.15257 0.3027 0.35624 0.0
O50 O 0.12075 0.24095 0.52757 0.0
O51 O 0.07951 0.18699 0.44243 0.0
In52 In 0.72708 0.9267 0.43952 0.0
O53 O 0.72654 0.87331 0.52757 0.0
O54 O 0.78052 0.886 0.44244 0.0
C55 C 0.66026 0.96956 0.42117 0.0
C56 C 0.6648 0.84337 0.35624 0.0
C57 C 0.81325 0.02586 0.4766 0.0
O58 O 0.66092 0.94684 0.47679 0.0
O59 O 0.69306 0.97032 0.37581 0.0
O60 O 0.80747 0.01021 0.41554 0.0
O61 O 0.77697 -0.00886 0.51731 0.0
C62 C 0.76252 0.86333 0.4994 0.0
O63 O 0.71319 0.88395 0.33908 0.0
O64 O 0.64848 0.84501 0.41543 0.0
In65 In 0.04079 0.79387 0.43953 0.0
O66 O 0.08353 0.82272 0.33908 0.0
O67 O 0.12249 0.79696 0.41542 0.0
C68 C 0.94164 0.7809 0.47661 0.0
C69 C 0.10416 0.89269 0.49941 0.0
C70 C -0.00206 0.6842 0.42117 0.0
O71 O 0.95728 0.79076 0.41555 0.0
O72 O 0.97636 0.77934 0.51732 0.0
O73 O 0.02066 0.70757 0.47679 0.0
O74 O -0.00281 0.71624 0.37581 0.0
C75 C 0.12412 0.81492 0.35624 0.0
O76 O 0.09418 0.84673 0.52758 0.0
O77 O 0.08148 0.88801 0.44245 0.0
In78 In 0.72707 0.79386 0.93952 0.0
O79 O 0.72654 0.84673 0.02757 0.0
O80 O 0.78049 0.88799 0.94242 0.0
C81 C 0.66027 0.6842 0.92117 0.0
C82 C 0.66479 0.81491 0.85624 0.0
C83 C 0.81326 0.78089 0.97659 0.0
O84 O 0.66093 0.70757 0.97679 0.0
O85 O 0.69306 0.71622 0.87581 0.0
O86 O 0.80747 0.79076 0.91552 0.0
O87 O 0.77697 0.77932 0.0173 0.0
C88 C 0.76249 0.89268 0.99937 0.0
O89 O 0.71318 0.82271 0.83908 0.0
O90 O 0.64847 0.79697 0.91544 0.0
In91 In 0.17362 0.9267 0.93953 0.0
O92 O 0.12075 0.8733 0.02758 0.0
O93 O 0.07949 0.886 0.94243 0.0
C94 C 0.2833 0.96957 0.92117 0.0
C95 C 0.15259 0.84337 0.85624 0.0
C96 C 0.18659 0.02586 0.9766 0.0
O97 O 0.25993 0.94685 0.97679 0.0
O98 O 0.25126 0.97032 0.87582 0.0
O99 O 0.17672 0.01021 0.91553 0.0
O100 O 0.18815 -0.00887 0.01731 0.0
C101 C 0.07481 0.8633 0.99938 0.0
O102 O 0.14478 0.88398 0.83909 0.0
O103 O 0.17054 0.845 0.91543 0.0
In104 In 0.04079 0.24041 0.93952 0.0
O105 O 0.09418 0.24095 0.02758 0.0
O106 O 0.0815 0.18698 0.94243 0.0
C107 C -0.00207 0.30722 0.92117 0.0
C108 C 0.12412 0.30271 0.85624 0.0
C109 C 0.94163 0.15423 0.97659 0.0
O110 O 0.02064 0.30657 0.97679 0.0
O111 O -0.00282 0.27444 0.87581 0.0
O112 O 0.95729 0.16001 0.91553 0.0
O113 O 0.97635 0.19051 0.01731 0.0
C114 C 0.10419 0.205 0.99938 0.0
O115 O 0.08354 0.25431 0.83908 0.0
O116 O 0.12248 0.31902 0.91543 0.0
In117 In 0.78737 0.73357 0.56047 0.0
O118 O 0.84024 0.73304 0.47242 0.0
O119 O 0.88149 0.78699 0.55757 0.0
C120 C 0.6777 0.66678 0.57883 0.0
C121 C 0.8084 0.67129 0.64375 0.0
C122 C 0.7744 0.81976 0.5234 0.0
O123 O 0.70107 0.66743 0.52321 0.0
O124 O 0.70973 0.69956 0.62418 0.0
O125 O 0.78427 0.81398 0.58447 0.0
O126 O 0.77284 0.78347 0.48268 0.0
C127 C 0.88618 0.76898 0.50062 0.0
O128 O 0.81621 0.71969 0.66091 0.0
O129 O 0.79046 0.65496 0.58456 0.0
In130 In 0.23391 0.04729 0.56047 0.0
O131 O 0.24781 0.09004 0.66091 0.0
O132 O 0.31252 0.12898 0.58456 0.0
C133 C 0.14773 0.94814 0.5234 0.0
C134 C 0.19851 0.11069 0.50061 0.0
C135 C 0.30071 0.00442 0.57882 0.0
O136 O 0.15351 0.96379 0.58446 0.0
O137 O 0.18401 0.98285 0.48269 0.0
O138 O 0.30005 0.02713 0.5232 0.0
O139 O 0.26792 0.00366 0.62418 0.0
C140 C 0.2962 0.13061 0.64375 0.0
O141 O 0.23446 0.10068 0.47241 0.0
O142 O 0.18049 0.08801 0.55757 0.0
In143 In 0.9202 0.18012 0.56046 0.0
O144 O 0.87747 0.15128 0.66091 0.0
O145 O 0.83851 0.17705 0.58457 0.0
C146 C 0.01936 0.19308 0.52339 0.0
C147 C 0.8568 0.0813 0.50061 0.0
C148 C 0.96307 0.28979 0.57882 0.0
O149 O 0.0037 0.18321 0.58445 0.0
O150 O -0.01536 0.19464 0.48268 0.0
O151 O 0.94035 0.26643 0.5232 0.0
O152 O 0.96382 0.25775 0.62418 0.0
C153 C 0.83688 0.15909 0.64376 0.0
O154 O 0.86681 0.12726 0.47241 0.0
O155 O 0.87949 0.08598 0.55756 0.0
In156 In 0.90059 0.51347 0.39381 0.0
O157 O 0.90112 0.4606 0.30576 0.0
O158 O 0.84715 0.41934 0.3909 0.0
C159 C 0.96739 0.62314 0.41214 0.0
C160 C 0.96287 0.49241 0.47709 0.0
C161 C 0.81441 0.52644 0.35672 0.0
O162 O 0.96674 0.59975 0.35653 0.0
O163 O 0.93461 0.59112 0.45751 0.0
O164 O 0.8202 0.51659 0.4178 0.0
O165 O 0.8507 0.52801 0.31602 0.0
C166 C 0.86514 0.41465 0.33393 0.0
O167 O 0.91447 0.48462 0.49425 0.0
O168 O 0.97919 0.51036 0.4179 0.0
In169 In 0.45403 0.38062 0.3938 0.0
O170 O 0.5069 0.43402 0.30575 0.0
O171 O 0.54816 0.4213 0.39088 0.0
C172 C 0.34435 0.33775 0.41213 0.0
C173 C 0.47508 0.46395 0.47709 0.0
C174 C 0.44106 0.28146 0.35672 0.0
O175 O 0.36773 0.36049 0.35653 0.0
O176 O 0.37638 0.337 0.4575 0.0
O177 O 0.45092 0.2971 0.41779 0.0
O178 O 0.4395 0.31619 0.31601 0.0
C179 C 0.55285 0.44399 0.33392 0.0
O180 O 0.48287 0.42334 0.49424 0.0
O181 O 0.45712 0.46233 0.4179 0.0
In182 In 0.58688 0.06691 0.39381 0.0
O183 O 0.53349 0.06637 0.30575 0.0
O184 O 0.54618 0.12036 0.39088 0.0
C185 C 0.62974 0.0001 0.41214 0.0
C186 C 0.50354 0.00463 0.47709 0.0
C187 C 0.68603 0.15309 0.35672 0.0
O188 O 0.60701 0.00075 0.35653 0.0
O189 O 0.63049 0.03288 0.45751 0.0
O190 O 0.67038 0.14731 0.41779 0.0
O191 O 0.65131 0.11681 0.31601 0.0
C192 C 0.5235 0.10235 0.33392 0.0
O193 O 0.54413 0.05302 0.49425 0.0
O194 O 0.50518 -0.01169 0.4179 0.0
In195 In 0.8403 0.57375 0.77286 0.0
O196 O 0.78743 0.57429 0.86091 0.0
O197 O 0.74617 0.52032 0.77577 0.0
C198 C 0.94996 0.64055 0.7545 0.0
C199 C 0.81925 0.63603 0.68957 0.0
C200 C 0.85326 0.48756 0.80994 0.0
O201 O 0.92659 0.6399 0.81012 0.0
O202 O 0.91794 0.60776 0.70915 0.0
O203 O 0.84341 0.49334 0.74887 0.0
O204 O 0.85483 0.52386 0.85065 0.0
C205 C 0.74148 0.53831 0.83273 0.0
O206 O 0.81145 0.58762 0.67242 0.0
O207 O 0.8372 0.65236 0.74876 0.0
In208 In 0.39376 0.26005 0.77286 0.0
O209 O 0.39321 0.20665 0.86091 0.0
O210 O 0.44718 0.21934 0.77578 0.0
C211 C 0.32695 0.30291 0.7545 0.0
C212 C 0.33147 0.17672 0.68957 0.0
C213 C 0.47993 0.3592 0.80994 0.0
O214 O 0.32761 0.2802 0.81012 0.0
O215 O 0.35974 0.30367 0.70914 0.0
O216 O 0.47415 0.34355 0.74887 0.0
O217 O 0.44365 0.32448 0.85065 0.0
C218 C 0.42918 0.19666 0.83274 0.0
O219 O 0.37986 0.2173 0.67241 0.0
O220 O 0.31515 0.17836 0.74876 0.0
In221 In 0.70745 0.12721 0.77287 0.0
O222 O 0.75018 0.15605 0.67242 0.0
O223 O 0.78914 0.13028 0.74876 0.0
C224 C 0.60829 0.11424 0.80995 0.0
C225 C 0.77083 0.22602 0.83275 0.0
C226 C 0.66459 0.01753 0.75451 0.0
O227 O 0.62394 0.1241 0.74888 0.0
O228 O 0.64302 0.11267 0.85066 0.0
O229 O 0.68731 0.0409 0.81012 0.0
O230 O 0.66384 0.04957 0.70915 0.0
C231 C 0.79077 0.14824 0.68957 0.0
O232 O 0.76085 0.18006 0.86092 0.0
O233 O 0.74815 0.22135 0.77579 0.0
In234 In 0.39375 0.1272 0.27286 0.0
O235 O 0.37986 0.15604 0.17241 0.0
O236 O 0.31514 0.13029 0.24876 0.0
C237 C 0.47994 0.11423 0.30993 0.0
C238 C 0.42915 0.22601 0.33271 0.0
C239 C 0.32696 0.01753 0.2545 0.0
O240 O 0.47415 0.1241 0.24886 0.0
O241 O 0.44365 0.11266 0.35064 0.0
O242 O 0.32761 0.04091 0.31012 0.0
O243 O 0.35974 0.04956 0.20914 0.0
C244 C 0.33146 0.14823 0.18957 0.0
O245 O 0.39321 0.18006 0.36091 0.0
O246 O 0.44716 0.22133 0.27575 0.0
In247 In 0.84029 0.26004 0.27287 0.0
O248 O 0.81145 0.21732 0.17242 0.0
O249 O 0.83722 0.17835 0.24876 0.0
C250 C 0.85325 0.3592 0.30993 0.0
C251 C 0.74148 0.19663 0.33271 0.0
C252 C 0.94996 0.30292 0.2545 0.0
O253 O 0.84338 0.34355 0.24887 0.0
O254 O 0.85481 0.32447 0.35065 0.0
O255 O 0.92659 0.28019 0.31012 0.0
O256 O 0.91793 0.30367 0.20915 0.0
C257 C 0.81926 0.17672 0.18957 0.0
O258 O 0.78743 0.20664 0.36092 0.0
O259 O 0.74616 0.21933 0.27577 0.0
In260 In 0.70745 0.57373 0.27286 0.0
O261 O 0.76084 0.57429 0.36091 0.0
O262 O 0.74817 0.52031 0.27577 0.0
C263 C 0.66458 0.64054 0.2545 0.0
C264 C 0.79077 0.63603 0.18956 0.0
C265 C 0.60829 0.48755 0.30993 0.0
O266 O 0.68729 0.63989 0.31012 0.0
O267 O 0.66383 0.60775 0.20914 0.0
O268 O 0.62395 0.49333 0.24887 0.0
O269 O 0.64301 0.52383 0.35064 0.0
C270 C 0.77086 0.53833 0.33271 0.0
O271 O 0.75019 0.58763 0.17241 0.0
O272 O 0.78913 0.65235 0.24876 0.0
In273 In 0.45402 0.0669 0.8938 0.0
O274 O 0.48286 0.05302 0.99424 0.0
O275 O 0.45712 -0.01171 0.9179 0.0
C276 C 0.44106 0.15309 0.85674 0.0
C277 C 0.55284 0.10232 0.83396 0.0
C278 C 0.34435 0.00011 0.91214 0.0
O279 O 0.45092 0.14731 0.91781 0.0
O280 O 0.4395 0.11681 0.81602 0.0
O281 O 0.36773 0.00075 0.85653 0.0
O282 O 0.37637 0.03288 0.95751 0.0
C283 C 0.47507 0.00462 0.97709 0.0
O284 O 0.5069 0.06637 0.80575 0.0
O285 O 0.54815 0.12032 0.89091 0.0
In286 In 0.90058 0.38061 0.89381 0.0
O287 O 0.91448 0.42336 0.99425 0.0
O288 O 0.97919 0.46231 0.9179 0.0
C289 C 0.8144 0.28146 0.85674 0.0
C290 C 0.86517 0.44401 0.83395 0.0
C291 C 0.96738 0.33774 0.91214 0.0
O292 O 0.82019 0.29712 0.91781 0.0
O293 O 0.85068 0.31617 0.81603 0.0
O294 O 0.96673 0.36047 0.85653 0.0
O295 O 0.9346 0.33699 0.95751 0.0
C296 C 0.96287 0.46395 0.97709 0.0
O297 O 0.90112 0.434 0.80575 0.0
O298 O 0.84716 0.42133 0.89091 0.0
In299 In 0.58687 0.51346 0.8938 0.0
O300 O 0.54414 0.48462 0.99425 0.0
O301 O 0.50518 0.51038 0.9179 0.0
C302 C 0.68603 0.52642 0.85673 0.0
C303 C 0.52348 0.41464 0.83395 0.0
C304 C 0.62975 0.62314 0.91213 0.0
O305 O 0.67038 0.51656 0.9178 0.0
O306 O 0.65131 0.52798 0.81602 0.0
O307 O 0.60701 0.59976 0.85652 0.0
O308 O 0.63049 0.5911 0.95751 0.0
C309 C 0.50355 0.49243 0.97709 0.0
O310 O 0.53348 0.4606 0.80575 0.0
O311 O 0.54617 0.41932 0.8909 0.0
In312 In 0.56724 0.8468 0.72714 0.0
O313 O 0.56778 0.79394 0.63909 0.0
O314 O 0.51382 0.75268 0.72423 0.0
C315 C 0.63404 0.95647 0.74548 0.0
C316 C 0.62952 0.82575 0.81043 0.0
C317 C 0.48106 0.85977 0.69006 0.0
O318 O 0.63339 0.93309 0.68987 0.0
O319 O 0.60126 0.92445 0.79085 0.0
O320 O 0.48685 0.84992 0.75113 0.0
O321 O 0.51735 0.86134 0.64935 0.0
C322 C 0.53181 0.74799 0.66727 0.0
O323 O 0.58113 0.81795 0.82758 0.0
O324 O 0.64584 0.8437 0.75124 0.0
In325 In 0.12069 0.71394 0.72713 0.0
O326 O 0.17356 0.76735 0.63908 0.0
O327 O 0.21483 0.75464 0.72421 0.0
C328 C 0.01102 0.67106 0.74547 0.0
C329 C 0.14173 0.79726 0.81043 0.0
C330 C 0.10773 0.61479 0.69005 0.0
O331 O 0.0344 0.6938 0.68986 0.0
O332 O 0.04305 0.67032 0.79084 0.0
O333 O 0.11759 0.63043 0.75112 0.0
O334 O 0.10617 0.64952 0.64934 0.0
C335 C 0.21951 0.77732 0.66726 0.0
O336 O 0.14954 0.75666 0.82758 0.0
O337 O 0.12378 0.79564 0.75124 0.0
In338 In 0.25356 0.40026 0.72714 0.0
O339 O 0.20016 0.39971 0.63909 0.0
O340 O 0.21284 0.45369 0.72421 0.0
C341 C 0.29643 0.33345 0.74547 0.0
C342 C 0.17023 0.33797 0.81043 0.0
C343 C 0.35271 0.48644 0.69006 0.0
O344 O 0.2737 0.3341 0.68986 0.0
O345 O 0.29718 0.36623 0.79085 0.0
O346 O 0.33706 0.48066 0.75112 0.0
O347 O 0.31799 0.45016 0.64935 0.0
C348 C 0.19017 0.43569 0.66726 0.0
O349 O 0.21081 0.38636 0.82759 0.0
O350 O 0.17187 0.32165 0.75124 0.0
In351 In 0.50698 0.90709 0.10619 0.0
O352 O 0.47812 0.92096 0.00575 0.0
O353 O 0.50387 0.98569 0.08209 0.0
C354 C 0.51994 0.8209 0.14327 0.0
C355 C 0.40816 0.87164 0.16606 0.0
C356 C 0.61664 0.97388 0.08785 0.0
O357 O 0.51009 0.82668 0.0822 0.0
O358 O 0.52151 0.85719 0.18398 0.0
O359 O 0.59326 0.97324 0.14346 0.0
O360 O 0.58462 0.9411 0.04248 0.0
C361 C 0.48592 0.96936 0.0229 0.0
O362 O 0.4541 0.90762 0.19424 0.0
O363 O 0.41285 0.85365 0.1091 0.0
In364 In 0.06042 0.59339 0.10619 0.0
O365 O 0.04653 0.55064 0.00574 0.0
O366 O -0.01818 0.51169 0.08209 0.0
C367 C 0.1466 0.69254 0.14327 0.0
C368 C 0.09585 0.53001 0.16607 0.0
C369 C -0.00638 0.63626 0.08785 0.0
O370 O 0.14081 0.67689 0.0822 0.0
O371 O 0.11031 0.65782 0.18398 0.0
O372 O -0.00574 0.61353 0.14347 0.0
O373 O 0.02639 0.63701 0.04248 0.0
C374 C -0.00186 0.51005 0.0229 0.0
O375 O 0.05988 0.54 0.19424 0.0
O376 O 0.11385 0.55268 0.10911 0.0
In377 In 0.37411 0.46053 0.1062 0.0
O378 O 0.41684 0.48937 0.00575 0.0
O379 O 0.45581 0.46361 0.08209 0.0
C380 C 0.27495 0.44756 0.14328 0.0
C381 C 0.43748 0.55935 0.16608 0.0
C382 C 0.33124 0.35085 0.08786 0.0
O383 O 0.2906 0.45742 0.08221 0.0
O384 O 0.30968 0.446 0.18399 0.0
O385 O 0.35398 0.37423 0.14347 0.0
O386 O 0.3305 0.38289 0.04249 0.0
C387 C 0.45744 0.48157 0.0229 0.0
O388 O 0.4275 0.51338 0.19425 0.0
O389 O 0.4148 0.55467 0.10912 0.0
In390 In 0.06041 0.46052 0.60619 0.0
O391 O 0.04652 0.48936 0.50575 0.0
O392 O -0.01819 0.46362 0.5821 0.0
C393 C 0.1466 0.44756 0.64326 0.0
C394 C 0.09582 0.55933 0.66604 0.0
C395 C -0.00638 0.35085 0.58786 0.0
O396 O 0.14081 0.45742 0.58219 0.0
O397 O 0.11031 0.44599 0.68397 0.0
O398 O -0.00573 0.37423 0.64347 0.0
O399 O 0.0264 0.38287 0.54249 0.0
C400 C -0.00187 0.48156 0.5229 0.0
O401 O 0.05987 0.51338 0.69424 0.0
O402 O 0.11383 0.55465 0.60909 0.0
In403 In 0.50697 0.59338 0.6062 0.0
O404 O 0.47813 0.55066 0.50576 0.0
O405 O 0.50389 0.51168 0.58209 0.0
C406 C 0.51993 0.69254 0.64327 0.0
C407 C 0.40815 0.52998 0.66605 0.0
C408 C 0.61664 0.63626 0.58786 0.0
O409 O 0.51006 0.67689 0.5822 0.0
O410 O 0.52149 0.65781 0.68398 0.0
O411 O 0.59327 0.61352 0.64347 0.0
O412 O 0.58461 0.637 0.54249 0.0
C413 C 0.48593 0.51006 0.52291 0.0
O414 O 0.4541 0.53998 0.69425 0.0
O415 O 0.41284 0.55268 0.6091 0.0
In416 In 0.37411 0.90707 0.60619 0.0
O417 O 0.4275 0.90762 0.69425 0.0
O418 O 0.41482 0.85365 0.6091 0.0
C419 C 0.33123 0.97387 0.58786 0.0
C420 C 0.45743 0.96937 0.5229 0.0
C421 C 0.27495 0.82089 0.64326 0.0
O422 O 0.35396 0.97323 0.64347 0.0
O423 O 0.33049 0.9411 0.54249 0.0
O424 O 0.29061 0.82667 0.5822 0.0
O425 O 0.30967 0.85717 0.68398 0.0
C426 C 0.43751 0.87167 0.66605 0.0
O427 O 0.41685 0.92097 0.50574 0.0
O428 O 0.4558 0.98569 0.58209 0.0
In429 In 0.12069 0.40024 0.22713 0.0
O430 O 0.14953 0.38636 0.32757 0.0
O431 O 0.12378 0.32163 0.25123 0.0
C432 C 0.10773 0.48644 0.19007 0.0
C433 C 0.2195 0.43565 0.16729 0.0
C434 C 0.01102 0.33346 0.24547 0.0
O435 O 0.11759 0.48066 0.25114 0.0
O436 O 0.10617 0.45015 0.14935 0.0
O437 O 0.0344 0.3341 0.18986 0.0
O438 O 0.04304 0.36623 0.29084 0.0
C439 C 0.14172 0.33796 0.31042 0.0
O440 O 0.17356 0.39971 0.13908 0.0
O441 O 0.21481 0.45366 0.22424 0.0
In442 In 0.56724 0.71393 0.22714 0.0
O443 O 0.58114 0.75668 0.32758 0.0
O444 O 0.64584 0.79562 0.25123 0.0
C445 C 0.48105 0.61479 0.19007 0.0
C446 C 0.53184 0.77734 0.16728 0.0
C447 C 0.63403 0.67105 0.24547 0.0
O448 O 0.48684 0.63044 0.25113 0.0
O449 O 0.51733 0.6495 0.14935 0.0
O450 O 0.63338 0.69378 0.18986 0.0
O451 O 0.60125 0.6703 0.29084 0.0
C452 C 0.62953 0.79726 0.31043 0.0
O453 O 0.56779 0.76733 0.13908 0.0
O454 O 0.51383 0.75466 0.22423 0.0
In455 In 0.25355 0.84679 0.22713 0.0
O456 O 0.20016 0.79394 0.13907 0.0
O457 O 0.21284 0.75265 0.22422 0.0
C458 C 0.29643 0.95647 0.24546 0.0
C459 C 0.17023 0.82577 0.31043 0.0
C460 C 0.35271 0.85975 0.19006 0.0
O461 O 0.2737 0.9331 0.18985 0.0
O462 O 0.29717 0.92444 0.29083 0.0
O463 O 0.33705 0.84988 0.25112 0.0
O464 O 0.31799 0.86131 0.14934 0.0
C465 C 0.19015 0.74798 0.16727 0.0
O466 O 0.21083 0.81796 0.32758 0.0
O467 O 0.17186 0.84373 0.25124 0.0
loop_
_geom_bond_atom_site_label_1
_geom_bond_atom_site_label_2
_geom_bond_distance
_geom_bond_site_symmetry_2
_ccdc_geom_bond_type
In0 O1 2.294 1_554 S
In0 O2 2.326 . S
In0 O6 2.266 . S
In0 O7 2.326 . S
In0 O8 2.266 . S
In0 O9 2.326 1_554 S
In0 O11 2.294 . S
In0 O12 2.326 . S
O1 In0 2.294 1_556 S
O1 C10 1.237 1_556 S
O2 In0 2.326 . S
O2 C10 1.263 . S
C3 O6 1.252 . S
C3 O7 1.260 . S
C4 O11 1.240 . S
C4 O12 1.252 . S
C5 O8 1.252 . S
C5 O9 1.260 1_554 S
O6 In0 2.266 . S
O6 C3 1.252 . S
O7 In0 2.326 . S
O7 C3 1.260 . S
O8 In0 2.266 . S
O8 C5 1.252 . S
O9 In0 2.326 1_556 S
O9 C5 1.260 1_556 S
C10 O1 1.237 1_554 S
C10 O2 1.263 . S
O11 In0 2.294 . S
O11 C4 1.240 . S
O12 In0 2.326 . S
O12 C4 1.252 . S
In13 O14 2.294 1_554 S
In13 O15 2.326 . S
In13 O19 2.266 . S
In13 O20 2.326 1_545 S
In13 O21 2.266 1_545 S
In13 O22 2.326 1_544 S
In13 O24 2.294 . S
In13 O25 2.326 . S
O14 In13 2.294 1_556 S
O14 C23 1.237 1_556 S
O15 In13 2.326 . S
O15 C23 1.263 . S
C16 O19 1.252 . S
C16 O20 1.260 1_545 S
C17 O24 1.240 . S
C17 O25 1.252 . S
C18 O21 1.252 . S
C18 O22 1.260 1_554 S
O19 In13 2.266 . S
O19 C16 1.252 . S
O20 In13 2.326 1_565 S
O20 C16 1.260 1_565 S
O21 In13 2.266 1_565 S
O21 C18 1.252 . S
O22 In13 2.326 1_566 S
O22 C18 1.260 1_556 S
C23 O14 1.237 1_554 S
C23 O15 1.263 . S
O24 In13 2.294 . S
O24 C17 1.240 . S
O25 In13 2.326 . S
O25 C17 1.252 . S
In26 O27 2.294 1_554 S
In26 O28 2.326 . S
In26 O32 2.266 . S
In26 O33 2.326 1_655 S
In26 O34 2.266 1_655 S
In26 O35 2.326 1_654 S
In26 O37 2.294 . S
In26 O38 2.326 . S
O27 In26 2.294 1_556 S
O27 C36 1.237 1_556 S
O28 In26 2.326 . S
O28 C36 1.263 . S
C29 O32 1.252 . S
C29 O33 1.260 1_655 S
C30 O37 1.240 . S
C30 O38 1.252 . S
C31 O34 1.252 . S
C31 O35 1.260 1_554 S
O32 In26 2.266 . S
O32 C29 1.252 . S
O33 In26 2.326 1_455 S
O33 C29 1.260 1_455 S
O34 In26 2.266 1_455 S
O34 C31 1.252 . S
O35 In26 2.326 1_456 S
O35 C31 1.260 1_556 S
C36 O27 1.237 1_554 S
C36 O28 1.263 . S
O37 In26 2.294 . S
O37 C30 1.240 . S
O38 In26 2.326 . S
O38 C30 1.252 . S
In39 O40 2.294 . S
In39 O41 2.326 . S
In39 O45 2.266 . S
In39 O46 2.326 . S
In39 O47 2.266 . S
In39 O48 2.326 . S
In39 O50 2.294 . S
In39 O51 2.326 . S
O40 In39 2.294 . S
O40 C49 1.240 . S
O41 In39 2.326 . S
O41 C49 1.252 . S
C42 O45 1.252 . S
C42 O46 1.260 . S
C43 O50 1.240 . S
C43 O51 1.252 . S
C44 O47 1.252 . S
C44 O48 1.260 . S
O45 In39 2.266 . S
O45 C42 1.252 . S
O46 In39 2.326 . S
O46 C42 1.260 . S
O47 In39 2.266 . S
O47 C44 1.252 . S
O48 In39 2.326 . S
O48 C44 1.260 . S
C49 O40 1.240 . S
C49 O41 1.252 . S
O50 In39 2.294 . S
O50 C43 1.240 . S
O51 In39 2.326 . S
O51 C43 1.252 . S
In52 O53 2.294 . S
In52 O54 2.326 . S
In52 O58 2.266 . S
In52 O59 2.326 1_565 S
In52 O60 2.266 1_565 S
In52 O61 2.326 1_565 S
In52 O63 2.294 . S
In52 O64 2.326 . S
O53 In52 2.294 . S
O53 C62 1.240 . S
O54 In52 2.326 . S
O54 C62 1.252 . S
C55 O58 1.252 . S
C55 O59 1.260 1_565 S
C56 O63 1.240 . S
C56 O64 1.252 . S
C57 O60 1.252 . S
C57 O61 1.260 . S
O58 In52 2.266 . S
O58 C55 1.252 . S
O59 In52 2.326 1_545 S
O59 C55 1.260 1_545 S
O60 In52 2.266 1_545 S
O60 C57 1.252 . S
O61 In52 2.326 1_545 S
O61 C57 1.260 . S
C62 O53 1.240 . S
C62 O54 1.252 . S
O63 In52 2.294 . S
O63 C56 1.240 . S
O64 In52 2.326 . S
O64 C56 1.252 . S
In65 O66 2.294 . S
In65 O67 2.326 . S
In65 O71 2.266 1_455 S
In65 O72 2.326 1_455 S
In65 O73 2.266 . S
In65 O74 2.326 1_455 S
In65 O76 2.294 . S
In65 O77 2.326 . S
O66 In65 2.294 . S
O66 C75 1.240 . S
O67 In65 2.326 . S
O67 C75 1.252 . S
C68 O71 1.252 . S
C68 O72 1.260 . S
C69 O76 1.240 . S
C69 O77 1.252 . S
C70 O73 1.252 . S
C70 O74 1.260 1_455 S
O71 In65 2.266 1_655 S
O71 C68 1.252 . S
O72 In65 2.326 1_655 S
O72 C68 1.260 . S
O73 In65 2.266 . S
O73 C70 1.252 . S
O74 In65 2.326 1_655 S
O74 C70 1.260 1_655 S
C75 O66 1.240 . S
C75 O67 1.252 . S
O76 In65 2.294 . S
O76 C69 1.240 . S
O77 In65 2.326 . S
O77 C69 1.252 . S
In78 O79 2.294 1_556 S
In78 O80 2.326 . S
In78 O84 2.266 . S
In78 O85 2.326 . S
In78 O86 2.266 . S
In78 O87 2.326 1_556 S
In78 O89 2.294 . S
In78 O90 2.326 . S
O79 In78 2.294 1_554 S
O79 C88 1.237 1_554 S
O80 In78 2.326 . S
O80 C88 1.263 . S
C81 O84 1.252 . S
C81 O85 1.260 . S
C82 O89 1.240 . S
C82 O90 1.252 . S
C83 O86 1.252 . S
C83 O87 1.260 1_556 S
O84 In78 2.266 . S
O84 C81 1.252 . S
O85 In78 2.326 . S
O85 C81 1.260 . S
O86 In78 2.266 . S
O86 C83 1.252 . S
O87 In78 2.326 1_554 S
O87 C83 1.260 1_554 S
C88 O79 1.237 1_556 S
C88 O80 1.263 . S
O89 In78 2.294 . S
O89 C82 1.240 . S
O90 In78 2.326 . S
O90 C82 1.252 . S
In91 O92 2.294 1_556 S
In91 O93 2.326 . S
In91 O97 2.266 . S
In91 O98 2.326 1_565 S
In91 O99 2.266 1_565 S
In91 O100 2.326 1_566 S
In91 O102 2.294 . S
In91 O103 2.326 . S
O92 In91 2.294 1_554 S
O92 C101 1.237 1_554 S
O93 In91 2.326 . S
O93 C101 1.263 . S
C94 O97 1.252 . S
C94 O98 1.260 1_565 S
C95 O102 1.240 . S
C95 O103 1.252 . S
C96 O99 1.252 . S
C96 O100 1.260 1_556 S
O97 In91 2.266 . S
O97 C94 1.252 . S
O98 In91 2.326 1_545 S
O98 C94 1.260 1_545 S
O99 In91 2.266 1_545 S
O99 C96 1.252 . S
O100 In91 2.326 1_544 S
O100 C96 1.260 1_554 S
C101 O92 1.237 1_556 S
C101 O93 1.263 . S
O102 In91 2.294 . S
O102 C95 1.240 . S
O103 In91 2.326 . S
O103 C95 1.252 . S
In104 O105 2.294 1_556 S
In104 O106 2.326 . S
In104 O110 2.266 . S
In104 O111 2.326 1_455 S
In104 O112 2.266 1_455 S
In104 O113 2.326 1_456 S
In104 O115 2.294 . S
In104 O116 2.326 . S
O105 In104 2.294 1_554 S
O105 C114 1.237 1_554 S
O106 In104 2.326 . S
O106 C114 1.263 . S
C107 O110 1.252 . S
C107 O111 1.260 1_455 S
C108 O115 1.240 . S
C108 O116 1.252 . S
C109 O112 1.252 . S
C109 O113 1.260 1_556 S
O110 In104 2.266 . S
O110 C107 1.252 . S
O111 In104 2.326 1_655 S
O111 C107 1.260 1_655 S
O112 In104 2.266 1_655 S
O112 C109 1.252 . S
O113 In104 2.326 1_654 S
O113 C109 1.260 1_554 S
C114 O105 1.237 1_556 S
C114 O106 1.263 . S
O115 In104 2.294 . S
O115 C108 1.240 . S
O116 In104 2.326 . S
O116 C108 1.252 . S
In117 O118 2.294 . S
In117 O119 2.326 . S
In117 O123 2.266 . S
In117 O124 2.326 . S
In117 O125 2.266 . S
In117 O126 2.326 . S
In117 O128 2.294 . S
In117 O129 2.326 . S
O118 In117 2.294 . S
O118 C127 1.240 . S
O119 In117 2.326 . S
O119 C127 1.252 . S
C120 O123 1.252 . S
C120 O124 1.260 . S
C121 O128 1.240 . S
C121 O129 1.252 . S
C122 O125 1.252 . S
C122 O126 1.260 . S
O123 In117 2.266 . S
O123 C120 1.252 . S
O124 In117 2.326 . S
O124 C120 1.260 . S
O125 In117 2.266 . S
O125 C122 1.252 . S
O126 In117 2.326 . S
O126 C122 1.260 . S
C127 O118 1.240 . S
C127 O119 1.252 . S
O128 In117 2.294 . S
O128 C121 1.240 . S
O129 In117 2.326 . S
O129 C121 1.252 . S
In130 O131 2.294 . S
In130 O132 2.326 . S
In130 O136 2.266 1_545 S
In130 O137 2.326 1_545 S
In130 O138 2.266 . S
In130 O139 2.326 1_545 S
In130 O141 2.294 . S
In130 O142 2.326 . S
O131 In130 2.294 . S
O131 C140 1.240 . S
O132 In130 2.326 . S
O132 C140 1.252 . S
C133 O136 1.252 . S
C133 O137 1.260 . S
C134 O141 1.240 . S
C134 O142 1.252 . S
C135 O138 1.252 . S
C135 O139 1.260 1_545 S
O136 In130 2.266 1_565 S
O136 C133 1.252 . S
O137 In130 2.326 1_565 S
O137 C133 1.260 . S
O138 In130 2.266 . S
O138 C135 1.252 . S
O139 In130 2.326 1_565 S
O139 C135 1.260 1_565 S
C140 O131 1.240 . S
C140 O132 1.252 . S
O141 In130 2.294 . S
O141 C134 1.240 . S
O142 In130 2.326 . S
O142 C134 1.252 . S
In143 O144 2.294 . S
In143 O145 2.326 . S
In143 O149 2.266 1_655 S
In143 O150 2.326 1_655 S
In143 O151 2.266 . S
In143 O152 2.326 1_655 S
In143 O154 2.294 . S
In143 O155 2.326 . S
O144 In143 2.294 . S
O144 C153 1.240 . S
O145 In143 2.326 . S
O145 C153 1.252 . S
C146 O149 1.252 . S
C146 O150 1.260 . S
C147 O154 1.240 . S
C147 O155 1.252 . S
C148 O151 1.252 . S
C148 O152 1.260 1_655 S
O149 In143 2.266 1_455 S
O149 C146 1.252 . S
O150 In143 2.326 1_455 S
O150 C146 1.260 . S
O151 In143 2.266 . S
O151 C148 1.252 . S
O152 In143 2.326 1_455 S
O152 C148 1.260 1_455 S
C153 O144 1.240 . S
C153 O145 1.252 . S
O154 In143 2.294 . S
O154 C147 1.240 . S
O155 In143 2.326 . S
O155 C147 1.252 . S
In156 O157 2.294 . S
In156 O158 2.326 . S
In156 O162 2.266 . S
In156 O163 2.326 . S
In156 O164 2.266 . S
In156 O165 2.326 . S
In156 O167 2.294 . S
In156 O168 2.326 . S
O157 In156 2.294 . S
O157 C166 1.240 . S
O158 In156 2.326 . S
O158 C166 1.252 . S
C159 O162 1.252 . S
C159 O163 1.260 . S
C160 O167 1.240 . S
C160 O168 1.252 . S
C161 O164 1.252 . S
C161 O165 1.260 . S
O162 In156 2.266 . S
O162 C159 1.252 . S
O163 In156 2.326 . S
O163 C159 1.260 . S
O164 In156 2.266 . S
O164 C161 1.252 . S
O165 In156 2.326 . S
O165 C161 1.260 . S
C166 O157 1.240 . S
C166 O158 1.252 . S
O167 In156 2.294 . S
O167 C160 1.240 . S
O168 In156 2.326 . S
O168 C160 1.252 . S
In169 O170 2.294 . S
In169 O171 2.326 . S
In169 O175 2.266 . S
In169 O176 2.326 . S
In169 O177 2.266 . S
In169 O178 2.326 . S
In169 O180 2.294 . S
In169 O181 2.326 . S
O170 In169 2.294 . S
O170 C179 1.240 . S
O171 In169 2.326 . S
O171 C179 1.252 . S
C172 O175 1.252 . S
C172 O176 1.260 . S
C173 O180 1.240 . S
C173 O181 1.252 . S
C174 O177 1.252 . S
C174 O178 1.260 . S
O175 In169 2.266 . S
O175 C172 1.252 . S
O176 In169 2.326 . S
O176 C172 1.260 . S
O177 In169 2.266 . S
O177 C174 1.252 . S
O178 In169 2.326 . S
O178 C174 1.260 . S
C179 O170 1.240 . S
C179 O171 1.252 . S
O180 In169 2.294 . S
O180 C173 1.240 . S
O181 In169 2.326 . S
O181 C173 1.252 . S
In182 O183 2.294 . S
In182 O184 2.326 . S
In182 O188 2.266 . S
In182 O189 2.326 . S
In182 O190 2.266 . S
In182 O191 2.326 . S
In182 O193 2.294 . S
In182 O194 2.326 . S
O183 In182 2.294 . S
O183 C192 1.240 . S
O184 In182 2.326 . S
O184 C192 1.252 . S
C185 O188 1.252 . S
C185 O189 1.260 . S
C186 O193 1.240 . S
C186 O194 1.252 . S
C187 O190 1.252 . S
C187 O191 1.260 . S
O188 In182 2.266 . S
O188 C185 1.252 . S
O189 In182 2.326 . S
O189 C185 1.260 . S
O190 In182 2.266 . S
O190 C187 1.252 . S
O191 In182 2.326 . S
O191 C187 1.260 . S
C192 O183 1.240 . S
C192 O184 1.252 . S
O193 In182 2.294 . S
O193 C186 1.240 . S
O194 In182 2.326 . S
O194 C186 1.252 . S
In195 O196 2.294 . S
In195 O197 2.326 . S
In195 O201 2.266 . S
In195 O202 2.326 . S
In195 O203 2.266 . S
In195 O204 2.326 . S
In195 O206 2.294 . S
In195 O207 2.326 . S
O196 In195 2.294 . S
O196 C205 1.240 . S
O197 In195 2.326 . S
O197 C205 1.252 . S
C198 O201 1.252 . S
C198 O202 1.260 . S
C199 O206 1.240 . S
C199 O207 1.252 . S
C200 O203 1.252 . S
C200 O204 1.260 . S
O201 In195 2.266 . S
O201 C198 1.252 . S
O202 In195 2.326 . S
O202 C198 1.260 . S
O203 In195 2.266 . S
O203 C200 1.252 . S
O204 In195 2.326 . S
O204 C200 1.260 . S
C205 O196 1.240 . S
C205 O197 1.252 . S
O206 In195 2.294 . S
O206 C199 1.240 . S
O207 In195 2.326 . S
O207 C199 1.252 . S
In208 O209 2.294 . S
In208 O210 2.326 . S
In208 O214 2.266 . S
In208 O215 2.326 . S
In208 O216 2.266 . S
In208 O217 2.326 . S
In208 O219 2.294 . S
In208 O220 2.326 . S
O209 In208 2.294 . S
O209 C218 1.240 . S
O210 In208 2.326 . S
O210 C218 1.252 . S
C211 O214 1.252 . S
C211 O215 1.260 . S
C212 O219 1.240 . S
C212 O220 1.252 . S
C213 O216 1.252 . S
C213 O217 1.260 . S
O214 In208 2.266 . S
O214 C211 1.252 . S
O215 In208 2.326 . S
O215 C211 1.260 . S
O216 In208 2.266 . S
O216 C213 1.252 . S
O217 In208 2.326 . S
O217 C213 1.260 . S
C218 O209 1.240 . S
C218 O210 1.252 . S
O219 In208 2.294 . S
O219 C212 1.240 . S
O220 In208 2.326 . S
O220 C212 1.252 . S
In221 O222 2.294 . S
In221 O223 2.326 . S
In221 O227 2.266 . S
In221 O228 2.326 . S
In221 O229 2.266 . S
In221 O230 2.326 . S
In221 O232 2.294 . S
In221 O233 2.326 . S
O222 In221 2.294 . S
O222 C231 1.240 . S
O223 In221 2.326 . S
O223 C231 1.252 . S
C224 O227 1.252 . S
C224 O228 1.260 . S
C225 O232 1.240 . S
C225 O233 1.252 . S
C226 O229 1.252 . S
C226 O230 1.260 . S
O227 In221 2.266 . S
O227 C224 1.252 . S
O228 In221 2.326 . S
O228 C224 1.260 . S
O229 In221 2.266 . S
O229 C226 1.252 . S
O230 In221 2.326 . S
O230 C226 1.260 . S
C231 O222 1.240 . S
C231 O223 1.252 . S
O232 In221 2.294 . S
O232 C225 1.240 . S
O233 In221 2.326 . S
O233 C225 1.252 . S
In234 O235 2.294 . S
In234 O236 2.326 . S
In234 O240 2.266 . S
In234 O241 2.326 . S
In234 O242 2.266 . S
In234 O243 2.326 . S
In234 O245 2.294 . S
In234 O246 2.326 . S
O235 In234 2.294 . S
O235 C244 1.240 . S
O236 In234 2.326 . S
O236 C244 1.252 . S
C237 O240 1.252 . S
C237 O241 1.260 . S
C238 O245 1.240 . S
C238 O246 1.252 . S
C239 O242 1.252 . S
C239 O243 1.260 . S
O240 In234 2.266 . S
O240 C237 1.252 . S
O241 In234 2.326 . S
O241 C237 1.260 . S
O242 In234 2.266 . S
O242 C239 1.252 . S
O243 In234 2.326 . S
O243 C239 1.260 . S
C244 O235 1.240 . S
C244 O236 1.252 . S
O245 In234 2.294 . S
O245 C238 1.240 . S
O246 In234 2.326 . S
O246 C238 1.252 . S
In247 O248 2.294 . S
In247 O249 2.326 . S
In247 O253 2.266 . S
In247 O254 2.326 . S
In247 O255 2.266 . S
In247 O256 2.326 . S
In247 O258 2.294 . S
In247 O259 2.326 . S
O248 In247 2.294 . S
O248 C257 1.240 . S
O249 In247 2.326 . S
O249 C257 1.252 . S
C250 O253 1.252 . S
C250 O254 1.260 . S
C251 O258 1.240 . S
C251 O259 1.252 . S
C252 O255 1.252 . S
C252 O256 1.260 . S
O253 In247 2.266 . S
O253 C250 1.252 . S
O254 In247 2.326 . S
O254 C250 1.260 . S
O255 In247 2.266 . S
O255 C252 1.252 . S
O256 In247 2.326 . S
O256 C252 1.260 . S
C257 O248 1.240 . S
C257 O249 1.252 . S
O258 In247 2.294 . S
O258 C251 1.240 . S
O259 In247 2.326 . S
O259 C251 1.252 . S
In260 O261 2.294 . S
In260 O262 2.326 . S
In260 O266 2.266 . S
In260 O267 2.326 . S
In260 O268 2.266 . S
In260 O269 2.326 . S
In260 O271 2.294 . S
In260 O272 2.326 . S
O261 In260 2.294 . S
O261 C270 1.240 . S
O262 In260 2.326 . S
O262 C270 1.252 . S
C263 O266 1.252 . S
C263 O267 1.260 . S
C264 O271 1.240 . S
C264 O272 1.252 . S
C265 O268 1.252 . S
C265 O269 1.260 . S
O266 In260 2.266 . S
O266 C263 1.252 . S
O267 In260 2.326 . S
O267 C263 1.260 . S
O268 In260 2.266 . S
O268 C265 1.252 . S
O269 In260 2.326 . S
O269 C265 1.260 . S
C270 O261 1.240 . S
C270 O262 1.252 . S
O271 In260 2.294 . S
O271 C264 1.240 . S
O272 In260 2.326 . S
O272 C264 1.252 . S
In273 O274 2.294 1_556 S
In273 O275 2.326 . S
In273 O279 2.266 . S
In273 O280 2.326 . S
In273 O281 2.266 . S
In273 O282 2.326 . S
In273 O284 2.294 . S
In273 O285 2.326 . S
O274 In273 2.294 1_554 S
O274 C283 1.240 . S
O275 In273 2.326 . S
O275 C283 1.252 1_556 S
C276 O279 1.252 . S
C276 O280 1.260 . S
C277 O284 1.240 . S
C277 O285 1.252 . S
C278 O281 1.252 . S
C278 O282 1.260 . S
O279 In273 2.266 . S
O279 C276 1.252 . S
O280 In273 2.326 . S
O280 C276 1.260 . S
O281 In273 2.266 . S
O281 C278 1.252 . S
O282 In273 2.326 . S
O282 C278 1.260 . S
C283 O274 1.240 . S
C283 O275 1.252 1_554 S
O284 In273 2.294 . S
O284 C277 1.240 . S
O285 In273 2.326 . S
O285 C277 1.252 . S
In286 O287 2.294 1_556 S
In286 O288 2.326 . S
In286 O292 2.266 . S
In286 O293 2.326 . S
In286 O294 2.266 . S
In286 O295 2.326 . S
In286 O297 2.294 . S
In286 O298 2.326 . S
O287 In286 2.294 1_554 S
O287 C296 1.240 . S
O288 In286 2.326 . S
O288 C296 1.252 1_556 S
C289 O292 1.252 . S
C289 O293 1.260 . S
C290 O297 1.240 . S
C290 O298 1.252 . S
C291 O294 1.252 . S
C291 O295 1.260 . S
O292 In286 2.266 . S
O292 C289 1.252 . S
O293 In286 2.326 . S
O293 C289 1.260 . S
O294 In286 2.266 . S
O294 C291 1.252 . S
O295 In286 2.326 . S
O295 C291 1.260 . S
C296 O287 1.240 . S
C296 O288 1.252 1_554 S
O297 In286 2.294 . S
O297 C290 1.240 . S
O298 In286 2.326 . S
O298 C290 1.252 . S
In299 O300 2.294 1_556 S
In299 O301 2.326 . S
In299 O305 2.266 . S
In299 O306 2.326 . S
In299 O307 2.266 . S
In299 O308 2.326 . S
In299 O310 2.294 . S
In299 O311 2.326 . S
O300 In299 2.294 1_554 S
O300 C309 1.240 . S
O301 In299 2.326 . S
O301 C309 1.252 1_556 S
C302 O305 1.252 . S
C302 O306 1.260 . S
C303 O310 1.240 . S
C303 O311 1.252 . S
C304 O307 1.252 . S
C304 O308 1.260 . S
O305 In299 2.266 . S
O305 C302 1.252 . S
O306 In299 2.326 . S
O306 C302 1.260 . S
O307 In299 2.266 . S
O307 C304 1.252 . S
O308 In299 2.326 . S
O308 C304 1.260 . S
C309 O300 1.240 . S
C309 O301 1.252 1_554 S
O310 In299 2.294 . S
O310 C303 1.240 . S
O311 In299 2.326 . S
O311 C303 1.252 . S
In312 O313 2.294 . S
In312 O314 2.326 . S
In312 O318 2.266 . S
In312 O319 2.326 . S
In312 O320 2.266 . S
In312 O321 2.326 . S
In312 O323 2.294 . S
In312 O324 2.326 . S
O313 In312 2.294 . S
O313 C322 1.240 . S
O314 In312 2.326 . S
O314 C322 1.252 . S
C315 O318 1.252 . S
C315 O319 1.260 . S
C316 O323 1.240 . S
C316 O324 1.252 . S
C317 O320 1.252 . S
C317 O321 1.260 . S
O318 In312 2.266 . S
O318 C315 1.252 . S
O319 In312 2.326 . S
O319 C315 1.260 . S
O320 In312 2.266 . S
O320 C317 1.252 . S
O321 In312 2.326 . S
O321 C317 1.260 . S
C322 O313 1.240 . S
C322 O314 1.252 . S
O323 In312 2.294 . S
O323 C316 1.240 . S
O324 In312 2.326 . S
O324 C316 1.252 . S
In325 O326 2.294 . S
In325 O327 2.326 . S
In325 O331 2.266 . S
In325 O332 2.326 . S
In325 O333 2.266 . S
In325 O334 2.326 . S
In325 O336 2.294 . S
In325 O337 2.326 . S
O326 In325 2.294 . S
O326 C335 1.240 . S
O327 In325 2.326 . S
O327 C335 1.252 . S
C328 O331 1.252 . S
C328 O332 1.260 . S
C329 O336 1.240 . S
C329 O337 1.252 . S
C330 O333 1.252 . S
C330 O334 1.260 . S
O331 In325 2.266 . S
O331 C328 1.252 . S
O332 In325 2.326 . S
O332 C328 1.260 . S
O333 In325 2.266 . S
O333 C330 1.252 . S
O334 In325 2.326 . S
O334 C330 1.260 . S
C335 O326 1.240 . S
C335 O327 1.252 . S
O336 In325 2.294 . S
O336 C329 1.240 . S
O337 In325 2.326 . S
O337 C329 1.252 . S
In338 O339 2.294 . S
In338 O340 2.326 . S
In338 O344 2.266 . S
In338 O345 2.326 . S
In338 O346 2.266 . S
In338 O347 2.326 . S
In338 O349 2.294 . S
In338 O350 2.326 . S
O339 In338 2.294 . S
O339 C348 1.240 . S
O340 In338 2.326 . S
O340 C348 1.252 . S
C341 O344 1.252 . S
C341 O345 1.260 . S
C342 O349 1.240 . S
C342 O350 1.252 . S
C343 O346 1.252 . S
C343 O347 1.260 . S
O344 In338 2.266 . S
O344 C341 1.252 . S
O345 In338 2.326 . S
O345 C341 1.260 . S
O346 In338 2.266 . S
O346 C343 1.252 . S
O347 In338 2.326 . S
O347 C343 1.260 . S
C348 O339 1.240 . S
C348 O340 1.252 . S
O349 In338 2.294 . S
O349 C342 1.240 . S
O350 In338 2.326 . S
O350 C342 1.252 . S
In351 O352 2.294 1_554 S
In351 O353 2.326 . S
In351 O357 2.266 . S
In351 O358 2.326 . S
In351 O359 2.266 . S
In351 O360 2.326 . S
In351 O362 2.294 . S
In351 O363 2.326 . S
O352 In351 2.294 1_556 S
O352 C361 1.240 . S
O353 In351 2.326 . S
O353 C361 1.252 1_554 S
C354 O357 1.252 . S
C354 O358 1.260 . S
C355 O362 1.240 . S
C355 O363 1.252 . S
C356 O359 1.252 . S
C356 O360 1.260 . S
O357 In351 2.266 . S
O357 C354 1.252 . S
O358 In351 2.326 . S
O358 C354 1.260 . S
O359 In351 2.266 . S
O359 C356 1.252 . S
O360 In351 2.326 . S
O360 C356 1.260 . S
C361 O352 1.240 . S
C361 O353 1.252 1_556 S
O362 In351 2.294 . S
O362 C355 1.240 . S
O363 In351 2.326 . S
O363 C355 1.252 . S
In364 O365 2.294 1_554 S
In364 O366 2.326 . S
In364 O370 2.266 . S
In364 O371 2.326 . S
In364 O372 2.266 . S
In364 O373 2.326 . S
In364 O375 2.294 . S
In364 O376 2.326 . S
O365 In364 2.294 1_556 S
O365 C374 1.240 . S
O366 In364 2.326 . S
O366 C374 1.252 1_554 S
C367 O370 1.252 . S
C367 O371 1.260 . S
C368 O375 1.240 . S
C368 O376 1.252 . S
C369 O372 1.252 . S
C369 O373 1.260 . S
O370 In364 2.266 . S
O370 C367 1.252 . S
O371 In364 2.326 . S
O371 C367 1.260 . S
O372 In364 2.266 . S
O372 C369 1.252 . S
O373 In364 2.326 . S
O373 C369 1.260 . S
C374 O365 1.240 . S
C374 O366 1.252 1_556 S
O375 In364 2.294 . S
O375 C368 1.240 . S
O376 In364 2.326 . S
O376 C368 1.252 . S
In377 O378 2.294 1_554 S
In377 O379 2.326 . S
In377 O383 2.266 . S
In377 O384 2.326 . S
In377 O385 2.266 . S
In377 O386 2.326 . S
In377 O388 2.294 . S
In377 O389 2.326 . S
O378 In377 2.294 1_556 S
O378 C387 1.240 . S
O379 In377 2.326 . S
O379 C387 1.252 1_554 S
C380 O383 1.252 . S
C380 O384 1.260 . S
C381 O388 1.240 . S
C381 O389 1.252 . S
C382 O385 1.252 . S
C382 O386 1.260 . S
O383 In377 2.266 . S
O383 C380 1.252 . S
O384 In377 2.326 . S
O384 C380 1.260 . S
O385 In377 2.266 . S
O385 C382 1.252 . S
O386 In377 2.326 . S
O386 C382 1.260 . S
C387 O378 1.240 . S
C387 O379 1.252 1_556 S
O388 In377 2.294 . S
O388 C381 1.240 . S
O389 In377 2.326 . S
O389 C381 1.252 . S
In390 O391 2.294 . S
In390 O392 2.326 . S
In390 O396 2.266 . S
In390 O397 2.326 . S
In390 O398 2.266 . S
In390 O399 2.326 . S
In390 O401 2.294 . S
In390 O402 2.326 . S
O391 In390 2.294 . S
O391 C400 1.240 . S
O392 In390 2.326 . S
O392 C400 1.252 . S
C393 O396 1.252 . S
C393 O397 1.260 . S
C394 O401 1.240 . S
C394 O402 1.252 . S
C395 O398 1.252 . S
C395 O399 1.260 . S
O396 In390 2.266 . S
O396 C393 1.252 . S
O397 In390 2.326 . S
O397 C393 1.260 . S
O398 In390 2.266 . S
O398 C395 1.252 . S
O399 In390 2.326 . S
O399 C395 1.260 . S
C400 O391 1.240 . S
C400 O392 1.252 . S
O401 In390 2.294 . S
O401 C394 1.240 . S
O402 In390 2.326 . S
O402 C394 1.252 . S
In403 O404 2.294 . S
In403 O405 2.326 . S
In403 O409 2.266 . S
In403 O410 2.326 . S
In403 O411 2.266 . S
In403 O412 2.326 . S
In403 O414 2.294 . S
In403 O415 2.326 . S
O404 In403 2.294 . S
O404 C413 1.240 . S
O405 In403 2.326 . S
O405 C413 1.252 . S
C406 O409 1.252 . S
C406 O410 1.260 . S
C407 O414 1.240 . S
C407 O415 1.252 . S
C408 O411 1.252 . S
C408 O412 1.260 . S
O409 In403 2.266 . S
O409 C406 1.252 . S
O410 In403 2.326 . S
O410 C406 1.260 . S
O411 In403 2.266 . S
O411 C408 1.252 . S
O412 In403 2.326 . S
O412 C408 1.260 . S
C413 O404 1.240 . S
C413 O405 1.252 . S
O414 In403 2.294 . S
O414 C407 1.240 . S
O415 In403 2.326 . S
O415 C407 1.252 . S
In416 O417 2.294 . S
In416 O418 2.326 . S
In416 O422 2.266 . S
In416 O423 2.326 . S
In416 O424 2.266 . S
In416 O425 2.326 . S
In416 O427 2.294 . S
In416 O428 2.326 . S
O417 In416 2.294 . S
O417 C426 1.240 . S
O418 In416 2.326 . S
O418 C426 1.252 . S
C419 O422 1.252 . S
C419 O423 1.260 . S
C420 O427 1.240 . S
C420 O428 1.252 . S
C421 O424 1.252 . S
C421 O425 1.260 . S
O422 In416 2.266 . S
O422 C419 1.252 . S
O423 In416 2.326 . S
O423 C419 1.260 . S
O424 In416 2.266 . S
O424 C421 1.252 . S
O425 In416 2.326 . S
O425 C421 1.260 . S
C426 O417 1.240 . S
C426 O418 1.252 . S
O427 In416 2.294 . S
O427 C420 1.240 . S
O428 In416 2.326 . S
O428 C420 1.252 . S
In429 O430 2.294 . S
In429 O431 2.326 . S
In429 O435 2.266 . S
In429 O436 2.326 . S
In429 O437 2.266 . S
In429 O438 2.326 . S
In429 O440 2.294 . S
In429 O441 2.326 . S
O430 In429 2.294 . S
O430 C439 1.240 . S
O431 In429 2.326 . S
O431 C439 1.252 . S
C432 O435 1.252 . S
C432 O436 1.260 . S
C433 O440 1.240 . S
C433 O441 1.252 . S
C434 O437 1.252 . S
C434 O438 1.260 . S
O435 In429 2.266 . S
O435 C432 1.252 . S
O436 In429 2.326 . S
O436 C432 1.260 . S
O437 In429 2.266 . S
O437 C434 1.252 . S
O438 In429 2.326 . S
O438 C434 1.260 . S
C439 O430 1.240 . S
C439 O431 1.252 . S
O440 In429 2.294 . S
O440 C433 1.240 . S
O441 In429 2.326 . S
O441 C433 1.252 . S
In442 O443 2.294 . S
In442 O444 2.326 . S
In442 O448 2.266 . S
In442 O449 2.326 . S
In442 O450 2.266 . S
In442 O451 2.326 . S
In442 O453 2.294 . S
In442 O454 2.326 . S
O443 In442 2.294 . S
O443 C452 1.240 . S
O444 In442 2.326 . S
O444 C452 1.252 . S
C445 O448 1.252 . S
C445 O449 1.260 . S
C446 O453 1.240 . S
C446 O454 1.252 . S
C447 O450 1.252 . S
C447 O451 1.260 . S
O448 In442 2.266 . S
O448 C445 1.252 . S
O449 In442 2.326 . S
O449 C445 1.260 . S
O450 In442 2.266 . S
O450 C447 1.252 . S
O451 In442 2.326 . S
O451 C447 1.260 . S
C452 O443 1.240 . S
C452 O444 1.252 . S
O453 In442 2.294 . S
O453 C446 1.240 . S
O454 In442 2.326 . S
O454 C446 1.252 . S
In455 O456 2.294 . S
In455 O457 2.326 . S
In455 O461 2.266 . S
In455 O462 2.326 . S
In455 O463 2.266 . S
In455 O464 2.326 . S
In455 O466 2.294 . S
In455 O467 2.326 . S
O456 In455 2.294 . S
O456 C465 1.240 . S
O457 In455 2.326 . S
O457 C465 1.252 . S
C458 O461 1.252 . S
C458 O462 1.260 . S
C459 O466 1.240 . S
C459 O467 1.252 . S
C460 O463 1.252 . S
C460 O464 1.260 . S
O461 In455 2.266 . S
O461 C458 1.252 . S
O462 In455 2.326 . S
O462 C458 1.260 . S
O463 In455 2.266 . S
O463 C460 1.252 . S
O464 In455 2.326 . S
O464 C460 1.260 . S
C465 O456 1.240 . S
C465 O457 1.252 . S
O466 In455 2.294 . S
O466 C459 1.240 . S
O467 In455 2.326 . S
O467 C459 1.252 . S
C4 C244 2.054 . S
C17 C257 2.054 . S
C264 C30 2.054 . S
C49 C439 2.054 . S
C452 C56 2.054 . S
C75 C459 2.054 . S
C316 C82 2.054 . S
C95 C329 2.054 . S
C108 C342 2.054 . S
C121 C199 2.054 . S
C212 C140 2.054 . S
C153 C231 2.054 . S
C160 C400 2.054 1_655 S
C173 C413 2.054 . S
C186 C420 2.054 1_545 S
C283 C361 2.054 1_544 S
C296 C374 2.054 1_654 S
C309 C387 2.054 1_554 S
C96 C10 1.594 1_556 S
C109 C23 1.594 1_556 S
C36 C83 1.594 1_554 S
C146 C43 1.601 . S
C122 C62 1.601 . S
C133 C69 1.601 . S
C88 C18 1.594 1_556 S
C101 C31 1.594 1_556 S
C114 C5 1.594 1_556 S
C127 C68 1.601 . S
C42 C134 1.601 . S
C57 C147 1.601 . S
C166 C250 1.601 . S
C179 C265 1.601 . S
C192 C237 1.601 . S
C302 C205 1.601 . S
C218 C276 1.601 . S
C289 C225 1.601 . S
C238 C174 1.601 . S
C187 C251 1.601 . S
C161 C270 1.601 . S
C277 C224 1.601 . S
C290 C200 1.601 . S
C303 C213 1.601 . S
C406 C322 1.601 . S
C335 C421 1.601 . S
C348 C393 1.601 . S
C460 C355 1.601 . S
C432 C368 1.601 . S
C445 C381 1.601 . S
C330 C394 1.601 . S
C343 C407 1.601 . S
C317 C426 1.601 . S
C433 C380 1.601 . S
C354 C446 1.601 . S
C465 C367 1.601 . S
C3 C382 1.478 . S
C356 C16 1.478 1_565 S
C29 C369 1.478 1_655 S
C44 C172 1.478 . S
C185 C55 1.478 1_545 S
C70 C159 1.478 1_455 S
C304 C81 1.478 . S
C94 C278 1.478 1_565 S
C107 C291 1.478 1_455 S
C120 C408 1.478 . S
C135 C419 1.478 1_545 S
C395 C148 1.478 1_455 S
C198 C328 1.478 1_655 S
C341 C211 1.478 . S
C315 C226 1.478 1_565 S
C458 C239 1.478 1_565 S
C252 C434 1.478 1_655 S
C263 C447 1.478 . S
