# Generated by pormake.
# Topology wjr, (5)-cn, num edge types: 1
# Building blocks:
#     Node 0, Type 0, BuildingBlock: BEQFEK_clean_sbu_0, # of connection points: 5
#     Node 1, Type 0, BuildingBlock: BEQFEK_clean_sbu_0, # of connection points: 5
#     Node 2, Type 0, BuildingBlock: BEQFEK_clean_sbu_0, # of connection points: 5
#     Node 3, Type 0, BuildingBlock: BEQFEK_clean_sbu_0, # of connection points: 5
#     Node 4, Type 0, BuildingBlock: BEQFEK_clean_sbu_0, # of connection points: 5
#     Node 5, Type 0, BuildingBlock: BEQFEK_clean_sbu_0, # of connection points: 5
#     Node 6, Type 0, BuildingBlock: BEQFEK_clean_sbu_0, # of connection points: 5
#     Node 7, Type 0, BuildingBlock: BEQFEK_clean_sbu_0, # of connection points: 5
#     Node 8, Type 0, BuildingBlock: BEQFEK_clean_sbu_0, # of connection points: 5
#     Node 9, Type 0, BuildingBlock: BEQFEK_clean_sbu_0, # of connection points: 5
#     Node 10, Type 0, BuildingBlock: BEQFEK_clean_sbu_0, # of connection points: 5
#     Node 11, Type 0, BuildingBlock: BEQFEK_clean_sbu_0, # of connection points: 5
#     Node 12, Type 0, BuildingBlock: BEQFEK_clean_sbu_0, # of connection points: 5
#     Node 13, Type 0, BuildingBlock: BEQFEK_clean_sbu_0, # of connection points: 5
#     Node 14, Type 0, BuildingBlock: BEQFEK_clean_sbu_0, # of connection points: 5
#     Node 15, Type 0, BuildingBlock: BEQFEK_clean_sbu_0, # of connection points: 5
#     Node 16, Type 0, BuildingBlock: BEQFEK_clean_sbu_0, # of connection points: 5
#     Node 17, Type 0, BuildingBlock: BEQFEK_clean_sbu_0, # of connection points: 5
#     Node 18, Type 0, BuildingBlock: BEQFEK_clean_sbu_0, # of connection points: 5
#     Node 19, Type 0, BuildingBlock: BEQFEK_clean_sbu_0, # of connection points: 5
#     Node 20, Type 0, BuildingBlock: BEQFEK_clean_sbu_0, # of connection points: 5
#     Node 21, Type 0, BuildingBlock: BEQFEK_clean_sbu_0, # of connection points: 5
#     Node 22, Type 0, BuildingBlock: BEQFEK_clean_sbu_0, # of connection points: 5
#     Node 23, Type 0, BuildingBlock: BEQFEK_clean_sbu_0, # of connection points: 5
#     Edge 24, Type (0, 0), BuildingBlock: AJUNOK_clean_linker_0, # of connection points: 2
#     Edge 25, Type (0, 0), BuildingBlock: AJUNOK_clean_linker_0, # of connection points: 2
#     Edge 26, Type (0, 0), BuildingBlock: AJUNOK_clean_linker_0, # of connection points: 2
#     Edge 27, Type (0, 0), BuildingBlock: AJUNOK_clean_linker_0, # of connection points: 2
#     Edge 28, Type (0, 0), BuildingBlock: AJUNOK_clean_linker_0, # of connection points: 2
#     Edge 29, Type (0, 0), BuildingBlock: AJUNOK_clean_linker_0, # of connection points: 2
#     Edge 30, Type (0, 0), BuildingBlock: AJUNOK_clean_linker_0, # of connection points: 2
#     Edge 31, Type (0, 0), BuildingBlock: AJUNOK_clean_linker_0, # of connection points: 2
#     Edge 32, Type (0, 0), BuildingBlock: AJUNOK_clean_linker_0, # of connection points: 2
#     Edge 33, Type (0, 0), BuildingBlock: AJUNOK_clean_linker_0, # of connection points: 2
#     Edge 34, Type (0, 0), BuildingBlock: AJUNOK_clean_linker_0, # of connection points: 2
#     Edge 35, Type (0, 0), BuildingBlock: AJUNOK_clean_linker_0, # of connection points: 2
#     Edge 36, Type (0, 0), BuildingBlock: AJUNOK_clean_linker_0, # of connection points: 2
#     Edge 37, Type (0, 0), BuildingBlock: AJUNOK_clean_linker_0, # of connection points: 2
#     Edge 38, Type (0, 0), BuildingBlock: AJUNOK_clean_linker_0, # of connection points: 2
#     Edge 39, Type (0, 0), BuildingBlock: AJUNOK_clean_linker_0, # of connection points: 2
#     Edge 40, Type (0, 0), BuildingBlock: AJUNOK_clean_linker_0, # of connection points: 2
#     Edge 41, Type (0, 0), BuildingBlock: AJUNOK_clean_linker_0, # of connection points: 2
#     Edge 42, Type (0, 0), BuildingBlock: AJUNOK_clean_linker_0, # of connection points: 2
#     Edge 43, Type (0, 0), BuildingBlock: AJUNOK_clean_linker_0, # of connection points: 2
#     Edge 44, Type (0, 0), BuildingBlock: AJUNOK_clean_linker_0, # of connection points: 2
#     Edge 45, Type (0, 0), BuildingBlock: AJUNOK_clean_linker_0, # of connection points: 2
#     Edge 46, Type (0, 0), BuildingBlock: AJUNOK_clean_linker_0, # of connection points: 2
#     Edge 47, Type (0, 0), BuildingBlock: AJUNOK_clean_linker_0, # of connection points: 2
#     Edge 48, Type (0, 0), BuildingBlock: AJUNOK_clean_linker_0, # of connection points: 2
#     Edge 49, Type (0, 0), BuildingBlock: AJUNOK_clean_linker_0, # of connection points: 2
#     Edge 50, Type (0, 0), BuildingBlock: AJUNOK_clean_linker_0, # of connection points: 2
#     Edge 51, Type (0, 0), BuildingBlock: AJUNOK_clean_linker_0, # of connection points: 2
#     Edge 52, Type (0, 0), BuildingBlock: AJUNOK_clean_linker_0, # of connection points: 2
#     Edge 53, Type (0, 0), BuildingBlock: AJUNOK_clean_linker_0, # of connection points: 2
#     Edge 54, Type (0, 0), BuildingBlock: AJUNOK_clean_linker_0, # of connection points: 2
#     Edge 55, Type (0, 0), BuildingBlock: AJUNOK_clean_linker_0, # of connection points: 2
#     Edge 56, Type (0, 0), BuildingBlock: AJUNOK_clean_linker_0, # of connection points: 2
#     Edge 57, Type (0, 0), BuildingBlock: AJUNOK_clean_linker_0, # of connection points: 2
#     Edge 58, Type (0, 0), BuildingBlock: AJUNOK_clean_linker_0, # of connection points: 2
#     Edge 59, Type (0, 0), BuildingBlock: AJUNOK_clean_linker_0, # of connection points: 2
#     Edge 60, Type (0, 0), BuildingBlock: AJUNOK_clean_linker_0, # of connection points: 2
#     Edge 61, Type (0, 0), BuildingBlock: AJUNOK_clean_linker_0, # of connection points: 2
#     Edge 62, Type (0, 0), BuildingBlock: AJUNOK_clean_linker_0, # of connection points: 2
#     Edge 63, Type (0, 0), BuildingBlock: AJUNOK_clean_linker_0, # of connection points: 2
#     Edge 64, Type (0, 0), BuildingBlock: AJUNOK_clean_linker_0, # of connection points: 2
#     Edge 65, Type (0, 0), BuildingBlock: AJUNOK_clean_linker_0, # of connection points: 2
#     Edge 66, Type (0, 0), BuildingBlock: AJUNOK_clean_linker_0, # of connection points: 2
#     Edge 67, Type (0, 0), BuildingBlock: AJUNOK_clean_linker_0, # of connection points: 2
#     Edge 68, Type (0, 0), BuildingBlock: AJUNOK_clean_linker_0, # of connection points: 2
#     Edge 69, Type (0, 0), BuildingBlock: AJUNOK_clean_linker_0, # of connection points: 2
#     Edge 70, Type (0, 0), BuildingBlock: AJUNOK_clean_linker_0, # of connection points: 2
#     Edge 71, Type (0, 0), BuildingBlock: AJUNOK_clean_linker_0, # of connection points: 2
#     Edge 72, Type (0, 0), BuildingBlock: AJUNOK_clean_linker_0, # of connection points: 2
#     Edge 73, Type (0, 0), BuildingBlock: AJUNOK_clean_linker_0, # of connection points: 2
#     Edge 74, Type (0, 0), BuildingBlock: AJUNOK_clean_linker_0, # of connection points: 2
#     Edge 75, Type (0, 0), BuildingBlock: AJUNOK_clean_linker_0, # of connection points: 2
#     Edge 76, Type (0, 0), BuildingBlock: AJUNOK_clean_linker_0, # of connection points: 2
#     Edge 77, Type (0, 0), BuildingBlock: AJUNOK_clean_linker_0, # of connection points: 2
#     Edge 78, Type (0, 0), BuildingBlock: AJUNOK_clean_linker_0, # of connection points: 2
#     Edge 79, Type (0, 0), BuildingBlock: AJUNOK_clean_linker_0, # of connection points: 2
#     Edge 80, Type (0, 0), BuildingBlock: AJUNOK_clean_linker_0, # of connection points: 2
#     Edge 81, Type (0, 0), BuildingBlock: AJUNOK_clean_linker_0, # of connection points: 2
#     Edge 82, Type (0, 0), BuildingBlock: AJUNOK_clean_linker_0, # of connection points: 2
#     Edge 83, Type (0, 0), BuildingBlock: AJUNOK_clean_linker_0, # of connection points: 2
# Relax obj value: 0.373
# Max RMSD: 0.190
# Mean RMSD: 0.190
data_MOF--net-wjr--node1-BEQFEK_clean_sbu_0--edge1-AJUNOK_clean_linker_0
_symmetry_space_group_name_H-M    P1
_symmetry_Int_Tables_number       1
_symmetry_cell_setting            triclinic
loop_
_symmetry_equiv_pos_as_xyz
'x, y, z'
_cell_length_a     55.462061
_cell_length_b     55.487794
_cell_length_c     35.996292
_cell_angle_alpha  89.859529
_cell_angle_beta   90.082424
_cell_angle_gamma 120.00178
loop_
_atom_site_label
_atom_site_type_symbol
_atom_site_fract_x
_atom_site_fract_y
_atom_site_fract_z
_atom_type_partial_charge
Co0 Co 0.47377 0.07206 0.1629 0.0
Co1 Co 0.4622 0.11387 0.20497 0.0
C2 C 0.51529 0.11309 0.21789 0.0
O3 O 0.50795 0.09382 0.1938 0.0
O4 O 0.49981 0.12347 0.22529 0.0
C5 C 0.49911 0.05013 0.11178 0.0
O6 O 0.52106 0.07517 0.10971 0.0
C7 C 0.46513 0.1662 0.23041 0.0
C8 C 0.42018 0.15168 0.23544 0.0
C9 C 0.44631 0.17502 0.23871 0.0
N10 N 0.45061 0.13884 0.2225 0.0
N11 N 0.42381 0.13031 0.22599 0.0
C12 C 0.49607 0.18366 0.22708 0.0
H13 H 0.50388 0.17494 0.2056 0.0
H14 H 0.50232 0.20553 0.22018 0.0
H15 H 0.50567 0.18337 0.25402 0.0
C16 C 0.46199 0.0964 0.09753 0.0
N17 N 0.4648 0.0948 0.13441 0.0
N18 N 0.46151 0.11396 0.15123 0.0
C19 C 0.45759 0.12922 0.12492 0.0
C20 C 0.45766 0.1184 0.09007 0.0
C21 C 0.46324 0.07707 0.06971 0.0
H22 H 0.45322 0.05565 0.08108 0.0
H23 H 0.48532 0.08409 0.06317 0.0
H24 H 0.45243 0.07671 0.04364 0.0
O25 O 0.44267 0.04731 0.19498 0.0
O26 O 0.43444 0.07644 0.22686 0.0
H27 H 0.43507 0.1469 0.14983 0.0
H28 H 0.45217 0.16337 0.10672 0.0
C29 C 0.45405 0.1537 0.13279 0.0
H30 H 0.47214 0.16931 0.14899 0.0
H31 H 0.40794 0.11 0.22082 0.0
O32 O 0.47858 0.04615 0.13163 0.0
C33 C 0.42915 0.05176 0.21975 0.0
Co34 Co 0.40674 0.47507 0.15567 0.0
Co35 Co 0.3531 0.46183 0.19959 0.0
C36 C 0.40749 0.5152 0.21209 0.0
O37 O 0.41932 0.50836 0.18729 0.0
O38 O 0.38179 0.49937 0.22024 0.0
C39 C 0.45545 0.50298 0.10882 0.0
O40 O 0.45352 0.52542 0.11357 0.0
C41 C 0.30326 0.46316 0.22974 0.0
C42 C 0.27571 0.41816 0.23972 0.0
C43 C 0.27714 0.44368 0.24336 0.0
N44 N 0.31659 0.4496 0.21895 0.0
N45 N 0.29984 0.42273 0.2249 0.0
C46 C 0.31564 0.49405 0.22821 0.0
H47 H 0.33867 0.50462 0.22828 0.0
H48 H 0.30894 0.49966 0.20211 0.0
H49 H 0.30829 0.50138 0.25198 0.0
C50 C 0.37105 0.46665 0.09151 0.0
N51 N 0.37506 0.46746 0.12837 0.0
N52 N 0.35192 0.46164 0.14578 0.0
C53 C 0.3322 0.45677 0.11986 0.0
C54 C 0.34388 0.45995 0.08464 0.0
C55 C 0.39299 0.47213 0.06326 0.0
H56 H 0.40198 0.45857 0.06882 0.0
H57 H 0.4098 0.49413 0.06535 0.0
H58 H 0.3846 0.46838 0.03466 0.0
O59 O 0.40046 0.44332 0.18667 0.0
O60 O 0.36335 0.43418 0.21993 0.0
H61 H 0.29294 0.42981 0.14528 0.0
H62 H 0.29071 0.44634 0.10292 0.0
C63 C 0.30295 0.44926 0.12863 0.0
H64 H 0.30313 0.46595 0.14573 0.0
H65 H 0.305 0.40746 0.21903 0.0
O66 O 0.43716 0.48023 0.12313 0.0
C67 C 0.38276 0.42922 0.21154 0.0
Co68 Co 0.9377 0.40439 0.16179 0.0
Co69 Co 0.89528 0.35194 0.20643 0.0
C70 C 0.89714 0.40652 0.21629 0.0
O71 O 0.91639 0.4176 0.19198 0.0
O72 O 0.88644 0.38086 0.22513 0.0
C73 C 0.95745 0.45058 0.10995 0.0
O74 O 0.93216 0.44693 0.1109 0.0
C75 C 0.84342 0.30255 0.23649 0.0
C76 C 0.85997 0.27418 0.24589 0.0
C77 C 0.83611 0.27606 0.24943 0.0
N78 N 0.87041 0.31558 0.22607 0.0
N79 N 0.88001 0.29837 0.23178 0.0
C80 C 0.82541 0.31552 0.23523 0.0
H81 H 0.83824 0.33849 0.23662 0.0
H82 H 0.8137 0.30991 0.20867 0.0
H83 H 0.81019 0.3077 0.25843 0.0
C84 C 0.91278 0.3667 0.0984 0.0
N85 N 0.91445 0.372 0.13501 0.0
N86 N 0.8951 0.35008 0.1527 0.0
C87 C 0.87964 0.33037 0.12717 0.0
C88 C 0.89053 0.34032 0.09194 0.0
C89 C 0.93227 0.3866 0.06996 0.0
H90 H 0.92554 0.40175 0.0625 0.0
H91 H 0.93252 0.37559 0.04447 0.0
H92 H 0.9537 0.39801 0.08129 0.0
O93 O 0.9625 0.39854 0.19442 0.0
O94 O 0.93302 0.36232 0.22823 0.0
H95 H 0.86181 0.2906 0.15347 0.0
H96 H 0.84469 0.29083 0.11071 0.0
C97 C 0.85499 0.30272 0.13627 0.0
H98 H 0.83994 0.30582 0.15288 0.0
H99 H 0.90036 0.30319 0.22599 0.0
O100 O 0.963 0.43461 0.12876 0.0
C101 C 0.95782 0.38123 0.22036 0.0
Co102 Co 0.53159 0.93331 0.17123 0.0
Co103 Co 0.54445 0.89308 0.21615 0.0
C104 C 0.49076 0.89331 0.2271 0.0
O105 O 0.49794 0.91209 0.20229 0.0
O106 O 0.50652 0.88348 0.23591 0.0
C107 C 0.50393 0.95216 0.12026 0.0
O108 O 0.48175 0.92742 0.12401 0.0
C109 C 0.54284 0.84086 0.23979 0.0
C110 C 0.58744 0.85737 0.25201 0.0
C111 C 0.56206 0.83298 0.24999 0.0
N112 N 0.55642 0.86872 0.23558 0.0
N113 N 0.58297 0.87841 0.24352 0.0
C114 C 0.51273 0.82211 0.23106 0.0
H115 H 0.50448 0.83335 0.2146 0.0
H116 H 0.50981 0.80352 0.21566 0.0
H117 H 0.5009 0.81484 0.25746 0.0
C118 C 0.54165 0.90681 0.10769 0.0
N119 N 0.54011 0.90974 0.14449 0.0
N120 N 0.54542 0.89219 0.16232 0.0
C121 C 0.55048 0.87731 0.13673 0.0
C122 C 0.54799 0.88609 0.1014 0.0
C123 C 0.53734 0.92373 0.07878 0.0
H124 H 0.54941 0.9461 0.08608 0.0
H125 H 0.51493 0.91717 0.07748 0.0
H126 H 0.5439 0.92083 0.05091 0.0
O127 O 0.56282 0.95899 0.20266 0.0
O128 O 0.57153 0.93097 0.23677 0.0
H129 H 0.57465 0.86315 0.16609 0.0
H130 H 0.56356 0.8482 0.12025 0.0
C131 C 0.55743 0.85517 0.14561 0.0
H132 H 0.53898 0.8371 0.15811 0.0
H133 H 0.59829 0.89936 0.24166 0.0
O134 O 0.52602 0.95781 0.13766 0.0
C135 C 0.57643 0.95532 0.22823 0.0
Co136 Co 0.605 0.53461 0.16409 0.0
Co137 Co 0.65712 0.54434 0.20878 0.0
C138 C 0.60237 0.49207 0.21943 0.0
O139 O 0.59151 0.50023 0.19473 0.0
O140 O 0.62805 0.50684 0.22829 0.0
C141 C 0.55943 0.50917 0.111 0.0
O142 O 0.56284 0.48737 0.1109 0.0
C143 C 0.70592 0.54123 0.23843 0.0
C144 C 0.73593 0.58621 0.24413 0.0
C145 C 0.73315 0.56018 0.24884 0.0
N146 N 0.69344 0.55563 0.22771 0.0
N147 N 0.71154 0.58245 0.23131 0.0
C148 C 0.69148 0.51017 0.24049 0.0
H149 H 0.67015 0.5019 0.25162 0.0
H150 H 0.6896 0.50165 0.21211 0.0
H151 H 0.70309 0.50311 0.25838 0.0
C152 C 0.64266 0.54715 0.10071 0.0
N153 N 0.63725 0.54347 0.1373 0.0
N154 N 0.65899 0.54567 0.15504 0.0
C155 C 0.67862 0.54957 0.12953 0.0
C156 C 0.66885 0.55081 0.09429 0.0
C157 C 0.62316 0.54747 0.0722 0.0
H158 H 0.61152 0.55712 0.0838 0.0
H159 H 0.60825 0.52581 0.06362 0.0
H160 H 0.63465 0.55952 0.04734 0.0
O161 O 0.61111 0.5654 0.19618 0.0
O162 O 0.64726 0.57209 0.2301 0.0
H163 H 0.7188 0.57113 0.15475 0.0
H164 H 0.71741 0.55241 0.113 0.0
C165 C 0.70599 0.55185 0.13859 0.0
H166 H 0.70252 0.53394 0.15613 0.0
H167 H 0.70724 0.59824 0.22475 0.0
O168 O 0.57504 0.52997 0.13106 0.0
C169 C 0.62847 0.57809 0.22196 0.0
Co170 Co 0.07493 0.60218 0.16229 0.0
Co171 Co 0.11699 0.65472 0.20689 0.0
C172 C 0.1158 0.60044 0.21678 0.0
O173 O 0.09651 0.5893 0.19252 0.0
O174 O 0.12631 0.62606 0.22568 0.0
C175 C 0.05431 0.55557 0.11079 0.0
O176 O 0.07959 0.55917 0.11054 0.0
C177 C 0.16809 0.70471 0.23768 0.0
C178 C 0.15045 0.73227 0.24581 0.0
C179 C 0.17453 0.73094 0.25051 0.0
N180 N 0.1413 0.69124 0.22629 0.0
N181 N 0.13109 0.708 0.23115 0.0
C182 C 0.1867 0.69243 0.23748 0.0
H183 H 0.17429 0.6694 0.23792 0.0
H184 H 0.19938 0.69897 0.21172 0.0
H185 H 0.20108 0.70002 0.26162 0.0
C186 C 0.09985 0.63981 0.09877 0.0
N187 N 0.09798 0.63458 0.13542 0.0
N188 N 0.11714 0.65658 0.15312 0.0
C189 C 0.13267 0.67628 0.12756 0.0
C190 C 0.12198 0.66626 0.09229 0.0
C191 C 0.08091 0.61964 0.07021 0.0
H192 H 0.05933 0.60807 0.08099 0.0
H193 H 0.08801 0.60466 0.06365 0.0
H194 H 0.08093 0.63045 0.04429 0.0
O195 O 0.05007 0.60792 0.19459 0.0
O196 O 0.07917 0.64403 0.22868 0.0
H197 H 0.15065 0.71623 0.15314 0.0
H198 H 0.1681 0.71551 0.11105 0.0
C199 C 0.15744 0.70383 0.13662 0.0
H200 H 0.17216 0.7006 0.15392 0.0
H201 H 0.11073 0.70278 0.22458 0.0
O202 O 0.04939 0.57186 0.12974 0.0
C203 C 0.05447 0.62518 0.22035 0.0
Co204 Co 0.93404 0.52946 0.36667 0.0
Co205 Co 0.89485 0.5442 0.32297 0.0
C206 C 0.8956 0.49083 0.30841 0.0
O207 O 0.91356 0.49662 0.33403 0.0
O208 O 0.88607 0.50707 0.30089 0.0
C209 C 0.95456 0.50185 0.41557 0.0
O210 O 0.93055 0.4789 0.41104 0.0
C211 C 0.84274 0.54185 0.29769 0.0
C212 C 0.85805 0.58667 0.28908 0.0
C213 C 0.83427 0.56073 0.288 0.0
N214 N 0.87033 0.55614 0.30427 0.0
N215 N 0.87933 0.58285 0.29862 0.0
C216 C 0.82478 0.51122 0.30369 0.0
H217 H 0.83412 0.50396 0.32514 0.0
H218 H 0.80342 0.50593 0.312 0.0
H219 H 0.82347 0.50028 0.27735 0.0
C220 C 0.90676 0.53776 0.43105 0.0
N221 N 0.91003 0.53704 0.39417 0.0
N222 N 0.89329 0.54367 0.37673 0.0
C223 C 0.87884 0.54906 0.40262 0.0
C224 C 0.8869 0.54528 0.43782 0.0
C225 C 0.92281 0.53181 0.45952 0.0
H226 H 0.94544 0.54498 0.45414 0.0
H227 H 0.91707 0.50966 0.45755 0.0
H228 H 0.91831 0.53576 0.48809 0.0
O229 O 0.96003 0.56151 0.3362 0.0
O230 O 0.93275 0.57212 0.30367 0.0
H231 H 0.86765 0.57652 0.37589 0.0
H232 H 0.85012 0.56252 0.41975 0.0
C233 C 0.85799 0.55783 0.39401 0.0
H234 H 0.84026 0.54092 0.3787 0.0
H235 H 0.89992 0.5986 0.30248 0.0
O236 O 0.95886 0.52403 0.39964 0.0
C237 C 0.9569 0.57628 0.3118 0.0
Co238 Co 0.40469 0.9355 0.37053 0.0
Co239 Co 0.35106 0.89337 0.3282 0.0
C240 C 0.40507 0.89429 0.31608 0.0
O241 O 0.41693 0.91359 0.34014 0.0
O242 O 0.37926 0.8839 0.30825 0.0
C243 C 0.45267 0.95867 0.42127 0.0
O244 O 0.45042 0.934 0.42347 0.0
C245 C 0.30092 0.84062 0.30371 0.0
C246 C 0.27119 0.85586 0.29709 0.0
C247 C 0.27334 0.83209 0.29523 0.0
N248 N 0.31429 0.86818 0.31067 0.0
N249 N 0.2964 0.8771 0.30621 0.0
C250 C 0.31377 0.82266 0.3078 0.0
H251 H 0.33248 0.83291 0.32584 0.0
H252 H 0.29846 0.80205 0.31946 0.0
H253 H 0.32016 0.81929 0.27998 0.0
C254 C 0.36878 0.9114 0.43567 0.0
N255 N 0.37301 0.91286 0.3988 0.0
N256 N 0.3505 0.8936 0.38209 0.0
C257 C 0.33147 0.87839 0.40857 0.0
C258 C 0.34255 0.88936 0.44335 0.0
C259 C 0.38947 0.93096 0.46327 0.0
H260 H 0.40066 0.95232 0.4517 0.0
H261 H 0.40469 0.92414 0.46982 0.0
H262 H 0.37908 0.93138 0.48931 0.0
O263 O 0.39812 0.95984 0.33821 0.0
O264 O 0.36081 0.93086 0.30592 0.0
H265 H 0.2913 0.86024 0.38329 0.0
H266 H 0.29191 0.84442 0.42706 0.0
C267 C 0.30349 0.85376 0.40092 0.0
H268 H 0.30606 0.83797 0.38538 0.0
H269 H 0.30123 0.89762 0.31045 0.0
O270 O 0.43552 0.9619 0.40158 0.0
C271 C 0.38016 0.95551 0.31343 0.0
Co272 Co 0.4734 0.40385 0.36449 0.0
Co273 Co 0.46322 0.3514 0.32081 0.0
C274 C 0.51562 0.40588 0.3093 0.0
O275 O 0.50785 0.41716 0.33379 0.0
O276 O 0.50068 0.38009 0.30127 0.0
C277 C 0.49894 0.44964 0.41712 0.0
O278 O 0.52092 0.44653 0.417 0.0
C279 C 0.46618 0.30271 0.29118 0.0
C280 C 0.42116 0.27269 0.28563 0.0
C281 C 0.44721 0.27558 0.28065 0.0
N282 N 0.45179 0.31508 0.30222 0.0
N283 N 0.42494 0.29697 0.29875 0.0
C284 C 0.49725 0.3172 0.28888 0.0
H285 H 0.5053 0.33815 0.2765 0.0
H286 H 0.50598 0.32 0.31732 0.0
H287 H 0.5043 0.3052 0.27194 0.0
C288 C 0.46115 0.36653 0.42858 0.0
N289 N 0.46445 0.37167 0.39188 0.0
N290 N 0.462 0.34978 0.37443 0.0
C291 C 0.45828 0.33031 0.40016 0.0
C292 C 0.45745 0.34034 0.4353 0.0
C293 C 0.46157 0.3864 0.45697 0.0
H294 H 0.48346 0.40164 0.46417 0.0
H295 H 0.45052 0.37539 0.48264 0.0
H296 H 0.45134 0.39765 0.44576 0.0
O297 O 0.44265 0.39789 0.33192 0.0
O298 O 0.43575 0.3614 0.29888 0.0
H299 H 0.4364 0.29003 0.37546 0.0
H300 H 0.45543 0.29156 0.41707 0.0
C301 C 0.45583 0.30287 0.39138 0.0
H302 H 0.47358 0.30617 0.37367 0.0
H303 H 0.40916 0.30123 0.30547 0.0
O304 O 0.47803 0.43382 0.39731 0.0
C305 C 0.42996 0.38042 0.30626 0.0
Co306 Co 0.07853 0.47685 0.36618 0.0
Co307 Co 0.11752 0.46182 0.32264 0.0
C308 C 0.11709 0.5155 0.30806 0.0
O309 O 0.09909 0.50972 0.33359 0.0
O310 O 0.12647 0.49915 0.30054 0.0
C311 C 0.0559 0.50312 0.4145 0.0
O312 O 0.07939 0.52675 0.41074 0.0
C313 C 0.16939 0.4631 0.29755 0.0
C314 C 0.1529 0.41812 0.28886 0.0
C315 C 0.17715 0.44369 0.28799 0.0
N316 N 0.14178 0.44946 0.30412 0.0
N317 N 0.1321 0.42265 0.29842 0.0
C318 C 0.18811 0.49364 0.30316 0.0
H319 H 0.17783 0.5022 0.32092 0.0
H320 H 0.20808 0.49779 0.31588 0.0
H321 H 0.19283 0.50423 0.27575 0.0
C322 C 0.106 0.46902 0.43067 0.0
N323 N 0.10254 0.46933 0.39378 0.0
N324 N 0.11908 0.4624 0.37655 0.0
C325 C 0.13356 0.45714 0.40266 0.0
C326 C 0.12574 0.46137 0.43776 0.0
C327 C 0.09038 0.4757 0.45883 0.0
H328 H 0.06768 0.46206 0.45451 0.0
H329 H 0.09568 0.49765 0.45524 0.0
H330 H 0.09565 0.47298 0.48761 0.0
O331 O 0.05266 0.44481 0.33598 0.0
O332 O 0.07951 0.43393 0.30319 0.0
H333 H 0.14466 0.42958 0.37625 0.0
H334 H 0.16208 0.44347 0.42021 0.0
C335 C 0.15433 0.44823 0.39434 0.0
H336 H 0.17214 0.46512 0.37906 0.0
H337 H 0.11134 0.40729 0.30216 0.0
O338 O 0.0531 0.48148 0.39874 0.0
C339 C 0.05546 0.4298 0.31181 0.0
Co340 Co 0.60281 0.07894 0.37003 0.0
Co341 Co 0.65621 0.11696 0.32409 0.0
C342 C 0.60193 0.11649 0.31074 0.0
O343 O 0.5902 0.09889 0.33688 0.0
O344 O 0.62751 0.12568 0.30231 0.0
C345 C 0.55461 0.05911 0.41841 0.0
O346 O 0.55565 0.08296 0.4122 0.0
C347 C 0.70715 0.16862 0.29908 0.0
C348 C 0.73435 0.15124 0.28613 0.0
C349 C 0.73391 0.17592 0.28791 0.0
N350 N 0.69253 0.14081 0.30401 0.0
N351 N 0.70889 0.13062 0.2957 0.0
C352 C 0.69643 0.18786 0.30792 0.0
H353 H 0.67704 0.17699 0.3246 0.0
H354 H 0.71248 0.20633 0.32317 0.0
H355 H 0.69191 0.19527 0.28158 0.0
C356 C 0.6395 0.1073 0.43287 0.0
N357 N 0.63492 0.10348 0.39615 0.0
N358 N 0.65818 0.11928 0.37796 0.0
C359 C 0.67866 0.13343 0.40327 0.0
C360 C 0.66727 0.12641 0.43882 0.0
C361 C 0.61774 0.09204 0.46189 0.0
H362 H 0.60862 0.06929 0.45805 0.0
H363 H 0.60097 0.09722 0.45874 0.0
H364 H 0.62627 0.09767 0.49038 0.0
O365 O 0.60847 0.05238 0.34063 0.0
O366 O 0.64551 0.07856 0.30607 0.0
H367 H 0.7158 0.14251 0.37391 0.0
H368 H 0.72181 0.15895 0.41909 0.0
C369 C 0.70853 0.15272 0.39385 0.0
H370 H 0.71056 0.17163 0.38037 0.0
H371 H 0.70295 0.10961 0.29785 0.0
O372 O 0.57281 0.05465 0.40391 0.0
C373 C 0.62581 0.05472 0.31592 0.0
Co374 Co 0.5298 0.60018 0.36476 0.0
Co375 Co 0.54448 0.65419 0.32067 0.0
C376 C 0.49144 0.59973 0.30577 0.0
O377 O 0.49723 0.58761 0.33148 0.0
O378 O 0.50764 0.6255 0.2983 0.0
C379 C 0.50241 0.55192 0.41379 0.0
O380 O 0.47957 0.55332 0.41015 0.0
C381 C 0.54294 0.70433 0.2928 0.0
C382 C 0.58772 0.73193 0.28139 0.0
C383 C 0.5622 0.73075 0.27982 0.0
N384 N 0.55662 0.69068 0.30142 0.0
N385 N 0.58335 0.70739 0.29446 0.0
C386 C 0.51209 0.69195 0.29587 0.0
H387 H 0.50149 0.66894 0.29467 0.0
H388 H 0.50707 0.6979 0.32295 0.0
H389 H 0.50422 0.69993 0.27338 0.0
C390 C 0.53697 0.6356 0.4287 0.0
N391 N 0.5367 0.63166 0.39188 0.0
N392 N 0.54323 0.65496 0.37431 0.0
C393 C 0.54804 0.6747 0.40003 0.0
C394 C 0.54389 0.66282 0.43523 0.0
C395 C 0.53177 0.61389 0.45735 0.0
H396 H 0.54473 0.60434 0.45128 0.0
H397 H 0.50953 0.59749 0.4564 0.0
H398 H 0.5366 0.62263 0.48579 0.0
O399 O 0.56247 0.60697 0.33555 0.0
O400 O 0.57299 0.64461 0.30253 0.0
H401 H 0.57555 0.71333 0.37333 0.0
H402 H 0.56118 0.71685 0.41686 0.0
C403 C 0.55674 0.70427 0.39119 0.0
H404 H 0.53989 0.70493 0.37544 0.0
H405 H 0.59871 0.70207 0.29887 0.0
O406 O 0.52446 0.56984 0.39764 0.0
C407 C 0.57757 0.62506 0.31162 0.0
Co408 Co 0.54026 0.93696 0.87311 0.0
Co409 Co 0.54977 0.89333 0.83202 0.0
C410 C 0.49778 0.89539 0.81856 0.0
O411 O 0.50614 0.91515 0.8421 0.0
O412 O 0.51238 0.88403 0.81102 0.0
C413 C 0.51452 0.95824 0.92375 0.0
O414 O 0.49264 0.9331 0.92471 0.0
C415 C 0.55049 0.84467 0.79707 0.0
C416 C 0.58876 0.84973 0.82348 0.0
C417 C 0.56705 0.83228 0.80027 0.0
N418 N 0.56171 0.86767 0.81841 0.0
N419 N 0.58477 0.87072 0.83351 0.0
C420 C 0.52626 0.83684 0.77181 0.0
H421 H 0.52598 0.8558 0.7626 0.0
H422 H 0.50665 0.82356 0.7872 0.0
H423 H 0.52729 0.82548 0.74709 0.0
C424 C 0.55167 0.91309 0.939 0.0
N425 N 0.54865 0.91428 0.90211 0.0
N426 N 0.54944 0.8935 0.88592 0.0
C427 C 0.55107 0.8772 0.91287 0.0
C428 C 0.55317 0.88953 0.94719 0.0
C429 C 0.55258 0.93386 0.96622 0.0
H430 H 0.5626 0.95487 0.95353 0.0
H431 H 0.53105 0.92776 0.97471 0.0
H432 H 0.56449 0.93465 0.99137 0.0
O433 O 0.57141 0.96081 0.84121 0.0
O434 O 0.57818 0.93063 0.80931 0.0
H435 H 0.56992 0.85218 0.90492 0.0
H436 H 0.53794 0.83534 0.93041 0.0
C437 C 0.54874 0.84948 0.90667 0.0
H438 H 0.5372 0.83991 0.88066 0.0
H439 H 0.59754 0.88695 0.85133 0.0
O440 O 0.53537 0.96292 0.90411 0.0
C441 C 0.58438 0.95564 0.81643 0.0
Co442 Co 0.60523 0.53267 0.86958 0.0
Co443 Co 0.65872 0.54615 0.82545 0.0
C444 C 0.60412 0.49289 0.81236 0.0
O445 O 0.59233 0.49955 0.83744 0.0
O446 O 0.62983 0.50881 0.80429 0.0
C447 C 0.5566 0.50468 0.9164 0.0
O448 O 0.55834 0.48218 0.91104 0.0
C449 C 0.70781 0.5434 0.79648 0.0
C450 C 0.73709 0.58828 0.78797 0.0
C451 C 0.7347 0.56232 0.78475 0.0
N452 N 0.69513 0.55774 0.80646 0.0
N453 N 0.71282 0.5845 0.80124 0.0
C454 C 0.69383 0.51232 0.79637 0.0
H455 H 0.67222 0.50334 0.78595 0.0
H456 H 0.69274 0.50482 0.82525 0.0
H457 H 0.70531 0.50499 0.77881 0.0
C458 C 0.64076 0.53987 0.93361 0.0
N459 N 0.63679 0.53968 0.89679 0.0
N460 N 0.65993 0.54574 0.87923 0.0
C461 C 0.67964 0.55024 0.90499 0.0
C462 C 0.66795 0.54653 0.94027 0.0
C463 C 0.61873 0.53363 0.96204 0.0
H464 H 0.60981 0.54738 0.95758 0.0
H465 H 0.60189 0.51172 0.95895 0.0
H466 H 0.62698 0.53649 0.99066 0.0
O467 O 0.61186 0.56493 0.83927 0.0
O468 O 0.64912 0.57454 0.80606 0.0
H469 H 0.71888 0.57715 0.87941 0.0
H470 H 0.72118 0.56064 0.92174 0.0
C471 C 0.70888 0.55772 0.89609 0.0
H472 H 0.70865 0.54098 0.87905 0.0
H473 H 0.70829 0.60026 0.80683 0.0
O474 O 0.57499 0.52751 0.9024 0.0
C475 C 0.62974 0.57948 0.8148 0.0
Co476 Co 0.07902 0.60238 0.8672 0.0
Co477 Co 0.11766 0.65645 0.82339 0.0
C478 C 0.1166 0.60205 0.80815 0.0
O479 O 0.099 0.58979 0.83412 0.0
O480 O 0.12589 0.6278 0.80073 0.0
C481 C 0.05607 0.55318 0.91527 0.0
O482 O 0.07919 0.55246 0.91059 0.0
C483 C 0.17 0.70593 0.79831 0.0
C484 C 0.15515 0.73585 0.79001 0.0
C485 C 0.17875 0.73337 0.78887 0.0
N486 N 0.14241 0.69286 0.80481 0.0
N487 N 0.13368 0.71081 0.79934 0.0
C488 C 0.18771 0.69296 0.80422 0.0
H489 H 0.17814 0.6762 0.82542 0.0
H490 H 0.20908 0.70884 0.81283 0.0
H491 H 0.18909 0.68352 0.77775 0.0
C492 C 0.10753 0.63745 0.93141 0.0
N493 N 0.10356 0.63376 0.89458 0.0
N494 N 0.11975 0.6573 0.8772 0.0
C495 C 0.13437 0.67705 0.90313 0.0
C496 C 0.12714 0.66491 0.93828 0.0
C497 C 0.09238 0.61504 0.95969 0.0
H498 H 0.06963 0.60642 0.95658 0.0
H499 H 0.09711 0.59811 0.955 0.0
H500 H 0.09857 0.62278 0.98841 0.0
O501 O 0.05315 0.609 0.83732 0.0
O502 O 0.07973 0.64703 0.80475 0.0
H503 H 0.14455 0.71552 0.87665 0.0
H504 H 0.16232 0.71938 0.92043 0.0
C505 C 0.15464 0.70686 0.89463 0.0
H506 H 0.17256 0.7082 0.87921 0.0
H507 H 0.11316 0.70619 0.80322 0.0
O508 O 0.05357 0.57244 0.9001 0.0
C509 C 0.05576 0.62703 0.81349 0.0
Co510 Co 0.4832 0.07733 0.866 0.0
Co511 Co 0.46838 0.11619 0.82122 0.0
C512 C 0.52189 0.11534 0.80731 0.0
O513 O 0.51595 0.0975 0.83316 0.0
O514 O 0.5057 0.12488 0.79939 0.0
C515 C 0.51071 0.05688 0.91522 0.0
O516 O 0.53349 0.08108 0.91094 0.0
C517 C 0.47038 0.16809 0.79494 0.0
C518 C 0.42542 0.15254 0.78727 0.0
C519 C 0.4513 0.17635 0.7854 0.0
N520 N 0.45626 0.14058 0.80218 0.0
N521 N 0.42946 0.13144 0.7971 0.0
C522 C 0.50107 0.18622 0.80021 0.0
H523 H 0.50861 0.17727 0.82185 0.0
H524 H 0.50636 0.20768 0.80791 0.0
H525 H 0.51174 0.18716 0.77375 0.0
C526 C 0.47491 0.10504 0.92971 0.0
N527 N 0.47576 0.10162 0.8929 0.0
N528 N 0.46886 0.11802 0.87509 0.0
C529 C 0.46308 0.13235 0.90069 0.0
C530 C 0.46701 0.12466 0.93609 0.0
C531 C 0.48055 0.08894 0.95845 0.0
H532 H 0.46729 0.06633 0.95315 0.0
H533 H 0.50269 0.09452 0.95672 0.0
H534 H 0.47649 0.09351 0.98692 0.0
O535 O 0.451 0.05132 0.83607 0.0
O536 O 0.44046 0.07811 0.80223 0.0
H537 H 0.43451 0.1421 0.87417 0.0
H538 H 0.44891 0.16061 0.91726 0.0
C539 C 0.45348 0.1525 0.89167 0.0
H540 H 0.46988 0.17012 0.87555 0.0
H541 H 0.4138 0.11089 0.80155 0.0
O542 O 0.4885 0.05251 0.89926 0.0
C543 C 0.43615 0.05409 0.81148 0.0
Co544 Co 0.40782 0.47414 0.85949 0.0
Co545 Co 0.35516 0.46342 0.81561 0.0
C546 C 0.40948 0.51615 0.8041 0.0
O547 O 0.42082 0.50848 0.82874 0.0
O548 O 0.38371 0.50105 0.79585 0.0
C549 C 0.45323 0.49934 0.91322 0.0
O550 O 0.44962 0.521 0.91435 0.0
C551 C 0.30559 0.46641 0.79037 0.0
C552 C 0.27564 0.42155 0.78321 0.0
C553 C 0.27804 0.44758 0.78155 0.0
N554 N 0.31876 0.452 0.79707 0.0
N555 N 0.30078 0.42527 0.79224 0.0
C556 C 0.31856 0.49714 0.7955 0.0
H557 H 0.33583 0.50471 0.81594 0.0
H558 H 0.30279 0.50261 0.80469 0.0
H559 H 0.32732 0.50764 0.76857 0.0
C560 C 0.37047 0.46107 0.92351 0.0
N561 N 0.37563 0.46488 0.88685 0.0
N562 N 0.35352 0.46206 0.86943 0.0
C563 C 0.33384 0.4575 0.89524 0.0
C564 C 0.34406 0.4567 0.9303 0.0
C565 C 0.39012 0.46064 0.95168 0.0
H566 H 0.4019 0.45128 0.93961 0.0
H567 H 0.40487 0.48222 0.96069 0.0
H568 H 0.37873 0.44822 0.97636 0.0
O569 O 0.40198 0.44342 0.82721 0.0
O570 O 0.36537 0.43605 0.79381 0.0
H571 H 0.29424 0.43548 0.86845 0.0
H572 H 0.29364 0.45086 0.91245 0.0
C573 C 0.30583 0.45384 0.8867 0.0
H574 H 0.30839 0.4724 0.87159 0.0
H575 H 0.30546 0.40944 0.79645 0.0
O576 O 0.43799 0.47901 0.89224 0.0
C577 C 0.38453 0.43051 0.80159 0.0
Co578 Co 0.93274 0.40605 0.86914 0.0
Co579 Co 0.89439 0.35286 0.82354 0.0
C580 C 0.89506 0.40732 0.81058 0.0
O581 O 0.91272 0.41898 0.83663 0.0
O582 O 0.88591 0.38181 0.80199 0.0
C583 C 0.95368 0.45412 0.91815 0.0
O584 O 0.9302 0.45404 0.91263 0.0
C585 C 0.84353 0.30269 0.7939 0.0
C586 C 0.86193 0.27642 0.78084 0.0
C587 C 0.83724 0.27693 0.77941 0.0
N588 N 0.87075 0.31666 0.80311 0.0
N589 N 0.88147 0.30071 0.79524 0.0
C590 C 0.82437 0.31418 0.79787 0.0
H591 H 0.83632 0.33723 0.7986 0.0
H592 H 0.81273 0.30666 0.82436 0.0
H593 H 0.80909 0.30696 0.77472 0.0
C594 C 0.90424 0.36947 0.93213 0.0
N595 N 0.90818 0.37398 0.89541 0.0
N596 N 0.89203 0.35082 0.87731 0.0
C597 C 0.87746 0.33049 0.90265 0.0
C598 C 0.88464 0.34186 0.93821 0.0
C599 C 0.91963 0.39119 0.96106 0.0
H600 H 0.91477 0.40815 0.9577 0.0
H601 H 0.91376 0.38274 0.98954 0.0
H602 H 0.94236 0.39997 0.95738 0.0
O603 O 0.95926 0.40058 0.83921 0.0
O604 O 0.93275 0.36345 0.80524 0.0
H605 H 0.86809 0.29274 0.87502 0.0
H606 H 0.84959 0.28774 0.91847 0.0
C607 C 0.85756 0.30082 0.89311 0.0
H608 H 0.83983 0.29963 0.87728 0.0
H609 H 0.90224 0.30642 0.79976 0.0
O610 O 0.9573 0.4356 0.903 0.0
C611 C 0.95672 0.38316 0.81456 0.0
Co612 Co 0.07345 0.47299 0.66253 0.0
Co613 Co 0.1162 0.46339 0.70651 0.0
C614 C 0.11482 0.51628 0.7158 0.0
O615 O 0.0952 0.50781 0.692 0.0
O616 O 0.12567 0.50143 0.72453 0.0
C617 C 0.0533 0.49898 0.61078 0.0
O618 O 0.07888 0.52014 0.61018 0.0
C619 C 0.16844 0.46671 0.73505 0.0
C620 C 0.15354 0.42182 0.74184 0.0
C621 C 0.17688 0.4479 0.74556 0.0
N622 N 0.14139 0.45219 0.72518 0.0
N623 N 0.1327 0.42542 0.72945 0.0
C624 C 0.1851 0.4978 0.73628 0.0
H625 H 0.17238 0.50613 0.74836 0.0
H626 H 0.19076 0.50602 0.70756 0.0
H627 H 0.20433 0.50509 0.75301 0.0
C628 C 0.09777 0.45983 0.59867 0.0
N629 N 0.09624 0.46351 0.63531 0.0
N630 N 0.11576 0.46112 0.65282 0.0
C631 C 0.13119 0.45694 0.62715 0.0
C632 C 0.12005 0.45577 0.59203 0.0
C633 C 0.07844 0.46058 0.57025 0.0
H634 H 0.05704 0.45093 0.58158 0.0
H635 H 0.08556 0.48253 0.56272 0.0
H636 H 0.078 0.44921 0.54478 0.0
O637 O 0.04903 0.44278 0.69598 0.0
O638 O 0.07887 0.4365 0.72967 0.0
H639 H 0.14997 0.43561 0.65267 0.0
H640 H 0.1668 0.45363 0.61019 0.0
C641 C 0.15631 0.45465 0.6359 0.0
H642 H 0.17107 0.4728 0.65275 0.0
H643 H 0.11251 0.40956 0.72361 0.0
O644 O 0.04782 0.47772 0.63013 0.0
C645 C 0.054 0.43059 0.7222 0.0
Co646 Co 0.60801 0.07142 0.66286 0.0
Co647 Co 0.66043 0.11346 0.70687 0.0
C648 C 0.6063 0.11243 0.7169 0.0
O649 O 0.5951 0.09307 0.69281 0.0
O650 O 0.63194 0.12292 0.72576 0.0
C651 C 0.56171 0.05213 0.61165 0.0
O652 O 0.56512 0.0773 0.61333 0.0
C653 C 0.71011 0.16605 0.73201 0.0
C654 C 0.73955 0.15072 0.74107 0.0
C655 C 0.73746 0.17454 0.74155 0.0
N656 N 0.69673 0.13841 0.72581 0.0
N657 N 0.71442 0.12942 0.73181 0.0
C658 C 0.69761 0.18417 0.726 0.0
H659 H 0.67852 0.17331 0.70874 0.0
H660 H 0.71294 0.20402 0.71255 0.0
H661 H 0.69203 0.1892 0.75334 0.0
C662 C 0.64523 0.09619 0.59893 0.0
N663 N 0.64027 0.09436 0.63565 0.0
N664 N 0.66228 0.11372 0.65309 0.0
C665 C 0.68173 0.12933 0.62727 0.0
C666 C 0.67152 0.1185 0.59214 0.0
C667 C 0.62479 0.07732 0.57053 0.0
H668 H 0.61361 0.05566 0.58111 0.0
H669 H 0.60951 0.08419 0.56471 0.0
H670 H 0.63526 0.07767 0.54419 0.0
O671 O 0.61366 0.04638 0.69547 0.0
O672 O 0.65023 0.07577 0.72863 0.0
H673 H 0.72109 0.14848 0.65494 0.0
H674 H 0.72157 0.16356 0.61011 0.0
C675 C 0.70923 0.15438 0.63577 0.0
H676 H 0.70579 0.17015 0.64987 0.0
H677 H 0.70956 0.10881 0.72831 0.0
O678 O 0.57781 0.04648 0.62995 0.0
C679 C 0.63119 0.05099 0.72107 0.0
Co680 Co 0.54072 0.60455 0.66245 0.0
Co681 Co 0.54893 0.65703 0.70409 0.0
C682 C 0.49714 0.6028 0.71599 0.0
O683 O 0.50617 0.59184 0.69271 0.0
O684 O 0.51128 0.6287 0.72403 0.0
C685 C 0.51567 0.55797 0.6111 0.0
O686 O 0.49404 0.5616 0.60937 0.0
C687 C 0.54981 0.70645 0.73938 0.0
C688 C 0.5881 0.73953 0.7129 0.0
C689 C 0.56651 0.73539 0.73626 0.0
N690 N 0.56086 0.69458 0.71787 0.0
N691 N 0.58393 0.71452 0.70273 0.0
C692 C 0.52558 0.69009 0.76464 0.0
H693 H 0.52505 0.67066 0.77348 0.0
H694 H 0.50599 0.68411 0.74938 0.0
H695 H 0.52683 0.7024 0.78957 0.0
C696 C 0.552 0.64026 0.59686 0.0
N697 N 0.5491 0.6358 0.63374 0.0
N698 N 0.54929 0.65697 0.65023 0.0
C699 C 0.55046 0.67487 0.62358 0.0
C700 C 0.55289 0.66509 0.58908 0.0
C701 C 0.55253 0.62045 0.56917 0.0
H702 H 0.56293 0.6096 0.58117 0.0
H703 H 0.53086 0.60489 0.56141 0.0
H704 H 0.56376 0.63153 0.54359 0.0
O705 O 0.57149 0.61172 0.69524 0.0
O706 O 0.57691 0.64795 0.72765 0.0
H707 H 0.56798 0.71853 0.63213 0.0
H708 H 0.53601 0.7027 0.60661 0.0
C709 C 0.54711 0.69964 0.63021 0.0
H710 H 0.53543 0.69709 0.65626 0.0
H711 H 0.59659 0.71099 0.68479 0.0
O712 O 0.53632 0.57397 0.6312 0.0
C713 C 0.58353 0.62941 0.72083 0.0
Co714 Co 0.93827 0.53564 0.66405 0.0
Co715 Co 0.89601 0.5466 0.70677 0.0
C716 C 0.89682 0.49361 0.71871 0.0
O717 O 0.9163 0.50136 0.69479 0.0
O718 O 0.88615 0.50878 0.72632 0.0
C719 C 0.95774 0.50905 0.61225 0.0
O720 O 0.93219 0.48782 0.61208 0.0
C721 C 0.84382 0.54395 0.73313 0.0
C722 C 0.85839 0.58893 0.73705 0.0
C723 C 0.83508 0.56287 0.74122 0.0
N724 N 0.8711 0.55834 0.7245 0.0
N725 N 0.87965 0.58517 0.72732 0.0
C726 C 0.8263 0.51299 0.7307 0.0
H727 H 0.82717 0.50376 0.7577 0.0
H728 H 0.83458 0.5049 0.70899 0.0
H729 H 0.80428 0.50663 0.72463 0.0
C730 C 0.91432 0.54849 0.59927 0.0
N731 N 0.91571 0.54512 0.63606 0.0
N732 N 0.8963 0.54795 0.65304 0.0
C733 C 0.88103 0.552 0.62689 0.0
C734 C 0.89219 0.55267 0.59201 0.0
C735 C 0.93377 0.54759 0.57128 0.0
H736 H 0.95509 0.55715 0.58287 0.0
H737 H 0.92654 0.52563 0.56385 0.0
H738 H 0.93447 0.55903 0.54566 0.0
O739 O 0.96301 0.56633 0.69652 0.0
O740 O 0.9335 0.57365 0.72925 0.0
H741 H 0.86244 0.57376 0.65147 0.0
H742 H 0.84587 0.5558 0.60892 0.0
C743 C 0.85604 0.55466 0.63493 0.0
H744 H 0.84098 0.53659 0.6517 0.0
H745 H 0.8999 0.60096 0.72152 0.0
O746 O 0.96354 0.53018 0.63194 0.0
C747 C 0.95827 0.57918 0.72197 0.0
Co748 Co 0.41105 0.93274 0.66791 0.0
Co749 Co 0.35745 0.89299 0.7122 0.0
C750 C 0.41211 0.8944 0.72595 0.0
O751 O 0.42402 0.91245 0.70032 0.0
O752 O 0.38635 0.88467 0.73366 0.0
C753 C 0.45874 0.95408 0.6179 0.0
O754 O 0.45736 0.92981 0.62083 0.0
C755 C 0.30793 0.84133 0.74067 0.0
C756 C 0.27897 0.85736 0.74881 0.0
C757 C 0.28095 0.83353 0.75177 0.0
N758 N 0.32101 0.86848 0.7312 0.0
N759 N 0.30354 0.87783 0.73628 0.0
C760 C 0.32161 0.82396 0.74076 0.0
H761 H 0.34331 0.83641 0.75093 0.0
H762 H 0.32245 0.81744 0.7119 0.0
H763 H 0.31005 0.80522 0.75851 0.0
C764 C 0.37482 0.9052 0.6039 0.0
N765 N 0.37923 0.90846 0.64073 0.0
N766 N 0.3561 0.89155 0.65848 0.0
C767 C 0.33603 0.87695 0.63291 0.0
C768 C 0.34743 0.88509 0.59752 0.0
C769 C 0.39634 0.9217 0.57516 0.0
H770 H 0.40576 0.94423 0.58108 0.0
H771 H 0.41289 0.91608 0.57612 0.0
H772 H 0.38742 0.91749 0.54683 0.0
O773 O 0.40475 0.95835 0.69866 0.0
O774 O 0.36732 0.93075 0.73172 0.0
H775 H 0.29719 0.86598 0.65866 0.0
H776 H 0.29404 0.84686 0.61649 0.0
C777 C 0.30656 0.85594 0.64204 0.0
H778 H 0.30618 0.83911 0.65916 0.0
H779 H 0.30837 0.89825 0.73089 0.0
O780 O 0.44104 0.95809 0.63484 0.0
C781 C 0.38701 0.95498 0.72335 0.0
Co782 Co 0.48292 0.40685 0.65842 0.0
Co783 Co 0.46765 0.35313 0.70348 0.0
C784 C 0.52097 0.40777 0.71798 0.0
O785 O 0.51548 0.41971 0.69172 0.0
O786 O 0.50456 0.38209 0.72576 0.0
C787 C 0.51092 0.4548 0.60966 0.0
O788 O 0.53355 0.45317 0.61456 0.0
C789 C 0.47017 0.304 0.73286 0.0
C790 C 0.4253 0.27482 0.74158 0.0
C791 C 0.45124 0.27707 0.74455 0.0
N792 N 0.45584 0.31676 0.72306 0.0
N793 N 0.42908 0.29916 0.72848 0.0
C794 C 0.50125 0.31794 0.73273 0.0
H795 H 0.51034 0.33967 0.74256 0.0
H796 H 0.50855 0.31863 0.70385 0.0
H797 H 0.50868 0.30667 0.75067 0.0
C798 C 0.47528 0.37073 0.59504 0.0
N799 N 0.47584 0.37507 0.6318 0.0
N800 N 0.46877 0.3518 0.64976 0.0
C801 C 0.46315 0.33163 0.62436 0.0
C802 C 0.4674 0.34318 0.58887 0.0
C803 C 0.48098 0.3924 0.56615 0.0
H804 H 0.50304 0.40909 0.56818 0.0
H805 H 0.47722 0.38375 0.53771 0.0
H806 H 0.46754 0.4016 0.57109 0.0
O807 O 0.45042 0.40058 0.68778 0.0
O808 O 0.43919 0.36296 0.72128 0.0
H809 H 0.43388 0.29333 0.6502 0.0
H810 H 0.44953 0.28921 0.60828 0.0
C811 C 0.45335 0.30189 0.63372 0.0
H812 H 0.46925 0.30069 0.6511 0.0
H813 H 0.41332 0.30374 0.723 0.0
O814 O 0.48845 0.43697 0.62502 0.0
C815 C 0.43509 0.38279 0.71189 0.0
C816 C 0.47529 0.99916 0.10124 0.0
C817 C 0.4999 0.02525 0.09908 0.0
C818 C 0.47631 0.97456 0.10351 0.0
C819 C 0.50198 0.97537 0.10349 0.0
H820 H 0.45527 0.99785 0.10488 0.0
H821 H 0.45718 0.95532 0.10918 0.0
S822 S 0.57114 0.03705 0.08439 0.0
N823 N 0.54974 0.04958 0.08695 0.0
N824 N 0.55165 1.00313 0.09077 0.0
C825 C 0.52616 1.00069 0.09491 0.0
C826 C 0.52512 0.02579 0.0927 0.0
C827 C 0.50925 0.4817 0.09486 0.0
C828 C 0.53393 0.50752 0.09601 0.0
C829 C 0.48339 0.48035 0.09448 0.0
C830 C 0.48148 0.50476 0.09542 0.0
H831 H 0.50973 0.46253 0.09811 0.0
H832 H 0.46489 0.46003 0.09697 0.0
S833 S 0.54029 0.57701 0.0857 0.0
N834 N 0.55513 0.55764 0.08832 0.0
N835 N 0.50643 0.55512 0.08795 0.0
C836 C 0.50598 0.53046 0.09055 0.0
C837 C 0.53231 0.53182 0.09083 0.0
C838 C 1.00363 0.52725 0.09739 0.0
C839 C 0.03018 0.52967 0.09681 0.0
C840 C 0.9794 0.50118 0.09697 0.0
C841 C 0.98101 0.47676 0.09593 0.0
H842 H 1.0015 0.54543 0.10155 0.0
H843 H 0.95961 0.50022 0.10131 0.0
S844 S 0.04478 0.47212 0.08155 0.0
N845 N 0.05624 0.50576 0.0859 0.0
N846 N 0.01055 0.45664 0.08493 0.0
C847 C 0.0071 0.47905 0.08946 0.0
C848 C 0.03181 0.50562 0.08988 0.0
C849 C 1.0051 0.47673 0.42768 0.0
C850 C 0.03053 0.50215 0.42906 0.0
C851 C 0.97965 0.47618 0.42817 0.0
C852 C 0.97892 0.50102 0.43033 0.0
H853 H 1.00475 0.45732 0.42257 0.0
H854 H 0.96084 0.45658 0.42289 0.0
S855 S 0.0388 0.57138 0.44914 0.0
N856 N 0.05292 0.55158 0.44315 0.0
N857 N 1.00489 0.5505 0.44466 0.0
C858 C 1.0038 0.52583 0.43836 0.0
C859 C 0.02976 0.52642 0.43761 0.0
C860 C 0.47855 0.00977 0.43166 0.0
C861 C 0.47783 0.98405 0.43429 0.0
C862 C 0.50381 0.03486 0.43108 0.0
C863 C 0.52914 0.03501 0.43323 0.0
H864 H 0.45965 0.01049 0.42667 0.0
H865 H 0.50343 0.05382 0.42522 0.0
S866 S 0.53812 0.97434 0.45358 0.0
N867 N 0.50418 0.9609 0.44855 0.0
N868 N 0.55182 0.00825 0.44794 0.0
C869 C 0.5285 0.00993 0.44196 0.0
C870 C 0.50273 0.98431 0.44242 0.0
C871 C 0.52601 0.50018 0.43043 0.0
C872 C 0.5005 0.47517 0.43153 0.0
C873 C 0.52665 0.52567 0.42923 0.0
C874 C 0.5018 0.52683 0.42894 0.0
H875 H 0.54531 0.50008 0.4264 0.0
H876 H 0.54661 0.54431 0.42492 0.0
S877 S 0.43073 0.46746 0.44523 0.0
N878 N 0.45067 0.45325 0.44258 0.0
N879 N 0.45182 0.50128 0.44006 0.0
C880 C 0.47667 0.50226 0.43637 0.0
C881 C 0.47605 0.47631 0.43769 0.0
C882 C 0.48665 0.0067 0.93234 0.0
C883 C 0.51146 0.03272 0.93127 0.0
C884 C 0.48737 0.98193 0.93493 0.0
C885 C 0.5129 0.98252 0.93667 0.0
H886 H 0.46665 0.00522 0.92768 0.0
H887 H 0.46808 0.96241 0.93151 0.0
S888 S 0.58269 0.04499 0.94819 0.0
N889 N 0.56151 0.05751 0.94194 0.0
N890 N 0.56279 0.01079 0.9471 0.0
C891 C 0.53735 0.00828 0.94187 0.0
C892 C 0.53665 0.03353 0.93913 0.0
C893 C 0.50316 0.52631 0.93071 0.0
C894 C 0.47842 0.50061 0.92869 0.0
C895 C 0.52892 0.52746 0.9314 0.0
C896 C 0.53062 0.50294 0.9299 0.0
H897 H 0.50286 0.5456 0.92782 0.0
H898 H 0.54753 0.54773 0.92949 0.0
S899 S 0.47139 0.43077 0.93762 0.0
N900 N 0.4568 0.45037 0.9352 0.0
N901 N 0.50531 0.4525 0.93617 0.0
C902 C 0.50598 0.47728 0.93406 0.0
C903 C 0.47976 0.47614 0.93347 0.0
C904 C 0.97975 0.5049 0.93051 0.0
C905 C 0.9785 0.47906 0.93251 0.0
C906 C 1.00543 0.52952 0.92951 0.0
C907 C 0.03061 0.529 0.93017 0.0
H908 H 0.96108 0.5061 0.92579 0.0
H909 H 1.00541 0.54878 0.92457 0.0
S910 S 0.03783 0.46723 0.94936 0.0
N911 N 1.00394 0.45479 0.94587 0.0
N912 N 0.0524 0.50119 0.94327 0.0
C913 C 0.02944 0.50371 0.9385 0.0
C914 C 1.00324 0.47863 0.93984 0.0
C915 C 0.97893 0.48008 0.59697 0.0
C916 C 0.98106 0.50635 0.59756 0.0
C917 C 1.00288 0.47774 0.59667 0.0
C918 C 0.02962 0.50159 0.59696 0.0
H919 H 0.95894 0.46135 0.60061 0.0
H920 H 1.00039 0.45718 0.59969 0.0
S921 S 0.04559 0.57457 0.58596 0.0
N922 N 0.01131 0.55621 0.58895 0.0
N923 N 0.05647 0.55182 0.58859 0.0
C924 C 0.03178 0.52767 0.59155 0.0
C925 C 0.00737 0.53004 0.59189 0.0
C926 C 0.51079 0.02942 0.60162 0.0
C927 C 0.53551 0.02857 0.59797 0.0
C928 C 0.48516 0.00477 0.60368 0.0
C929 C 0.48356 0.97859 0.60229 0.0
H930 H 0.51137 0.04891 0.60698 0.0
H931 H 0.46689 0.00635 0.60991 0.0
S932 S 0.54154 0.96612 0.5792 0.0
N933 N 0.55632 1.00027 0.58284 0.0
N934 N 0.50803 0.95374 0.58691 0.0
C935 C 0.50761 0.97775 0.5924 0.0
C936 C 0.53371 1.00289 0.59021 0.0
C937 C 0.53824 0.50543 0.5962 0.0
C938 C 0.51258 0.48054 0.59545 0.0
C939 C 0.53923 0.53108 0.59675 0.0
C940 C 0.51461 0.53259 0.59662 0.0
H941 H 0.55747 0.50518 0.60021 0.0
H942 H 0.55929 0.54965 0.60074 0.0
S943 S 0.44306 0.47371 0.5818 0.0
N944 N 0.46267 0.45913 0.58464 0.0
N945 N 0.46455 0.5075 0.58624 0.0
C946 C 0.48927 0.50815 0.58977 0.0
C947 C 0.48826 0.48199 0.58907 0.0
C948 C 0.43582 0.23704 0.23669 0.0
C949 C 0.45182 0.25313 0.26687 0.0
C950 C 0.43551 0.21258 0.22659 0.0
C951 C 0.45124 0.20328 0.24621 0.0
H952 H 0.4226 0.24288 0.22156 0.0
H953 H 0.4221 0.20032 0.20396 0.0
S954 S 0.49639 0.23757 0.32765 0.0
N955 N 0.48377 0.25802 0.31645 0.0
N956 N 0.48346 0.21203 0.29699 0.0
C957 C 0.46818 0.21963 0.27559 0.0
C958 C 0.46839 0.24459 0.28606 0.0
C959 C 0.24664 0.46545 0.24187 0.0
C960 C 0.2545 0.44751 0.25888 0.0
C961 C 0.22235 0.46558 0.25294 0.0
C962 C 0.20515 0.44759 0.28108 0.0
H963 H 0.25834 0.47828 0.21852 0.0
H964 H 0.21617 0.47858 0.23797 0.0
S965 S 0.21848 0.39961 0.33771 0.0
N966 N 0.24463 0.41364 0.30798 0.0
N967 N 0.199 0.4136 0.32814 0.0
C968 C 0.21362 0.4308 0.29958 0.0
C969 C 0.23828 0.43081 0.28862 0.0
C970 C 0.78372 0.24662 0.24617 0.0
C971 C 0.80908 0.25327 0.26359 0.0
C972 C 0.75879 0.2223 0.25575 0.0
C973 C 0.75858 0.20382 0.2827 0.0
H974 H 0.78331 0.25932 0.22359 0.0
H975 H 0.73996 0.21714 0.24051 0.0
S976 S 0.8184 0.21343 0.33976 0.0
N977 N 0.83159 0.24071 0.31182 0.0
N978 N 0.78504 0.19501 0.32907 0.0
C979 C 0.7834 0.21099 0.30159 0.0
C980 C 0.80858 0.23569 0.29218 0.0
C981 C 0.54047 0.78593 0.28009 0.0
C982 C 0.55836 0.80481 0.25324 0.0
C983 C 0.54057 0.76106 0.2875 0.0
C984 C 0.55834 0.75424 0.26791 0.0
H985 H 0.52752 0.79115 0.29687 0.0
H986 H 0.52787 0.74803 0.3101 0.0
S987 S 0.60607 0.79517 0.19114 0.0
N988 N 0.5922 0.81398 0.2047 0.0
N989 N 0.59204 0.7672 0.21786 0.0
C990 C 0.57498 0.77229 0.23943 0.0
C991 C 0.57505 0.79757 0.23224 0.0
C992 C 0.77278 0.57211 0.29135 0.0
C993 C 0.75587 0.55564 0.26199 0.0
C994 C 0.79738 0.57238 0.30076 0.0
C995 C 0.80598 0.55608 0.28133 0.0
H996 H 0.76745 0.58571 0.30636 0.0
H997 H 0.81026 0.58616 0.32272 0.0
S998 S 0.76959 0.50961 0.20186 0.0
N999 N 0.74966 0.52275 0.21322 0.0
N1000 N 0.79578 0.52283 0.23164 0.0
C1001 C 0.78886 0.53869 0.25281 0.0
C1002 C 0.76381 0.53858 0.24294 0.0
C1003 C 0.25086 0.78671 0.26048 0.0
C1004 C 0.24962 0.80381 0.28833 0.0
C1005 C 0.22675 0.76207 0.24948 0.0
C1006 C 0.2008 0.7538 0.26623 0.0
H1007 H 0.27013 0.79321 0.24565 0.0
H1008 H 0.22819 0.75042 0.22636 0.0
S1009 S 0.18775 0.78931 0.34433 0.0
N1010 N 0.22118 0.8093 0.33497 0.0
N1011 N 0.17618 0.76314 0.3148 0.0
C1012 C 0.19987 0.7699 0.29569 0.0
C1013 C 0.22421 0.79486 0.30664 0.0
C1014 C 0.58978 0.80693 0.77532 0.0
C1015 C 0.56492 0.80691 0.783 0.0
C1016 C 0.58965 0.78347 0.76122 0.0
C1017 C 0.56465 0.75872 0.7537 0.0
H1018 H 0.60979 0.82536 0.78024 0.0
H1019 H 0.60957 0.78488 0.75613 0.0
S1020 S 0.49346 0.74738 0.76868 0.0
N1021 N 0.51431 0.77928 0.78383 0.0
N1022 N 0.51406 0.73607 0.75334 0.0
C1023 C 0.53946 0.75834 0.7607 0.0
C1024 C 0.5396 0.7822 0.77623 0.0
C1025 C 0.79722 0.57339 0.72957 0.0
C1026 C 0.8069 0.55807 0.7494 0.0
C1027 C 0.77286 0.57319 0.7401 0.0
C1028 C 0.75725 0.55775 0.77098 0.0
H1029 H 0.80909 0.58637 0.70637 0.0
H1030 H 0.7667 0.58603 0.72465 0.0
S1031 S 0.77405 0.51453 0.83271 0.0
N1032 N 0.79907 0.52688 0.80121 0.0
N1033 N 0.75335 0.52686 0.82156 0.0
C1034 C 0.76622 0.54165 0.7905 0.0
C1035 C 0.79106 0.54172 0.77955 0.0
C1036 C 0.24106 0.80566 0.79382 0.0
C1037 C 0.25778 0.80624 0.76411 0.0
C1038 C 0.21621 0.78144 0.80277 0.0
C1039 C 0.20718 0.75681 0.78251 0.0
H1040 H 0.24676 0.82439 0.80955 0.0
H1041 H 0.2035 0.78224 0.82504 0.0
S1042 S 0.2428 0.7472 0.70177 0.0
N1043 N 0.26322 0.78 0.714 0.0
N1044 N 0.21671 0.73415 0.73166 0.0
C1045 C 0.22406 0.75667 0.75359 0.0
C1046 C 0.24934 0.7815 0.74415 0.0
C1047 C 0.4398 0.21344 0.79771 0.0
C1048 C 0.45574 0.2045 0.77802 0.0
C1049 C 0.43988 0.23787 0.78781 0.0
C1050 C 0.45575 0.25427 0.75765 0.0
H1051 H 0.42649 0.20096 0.82032 0.0
H1052 H 0.42664 0.2435 0.80319 0.0
S1053 S 0.5004 0.23931 0.69636 0.0
N1054 N 0.48788 0.21375 0.72711 0.0
N1055 N 0.48748 0.25944 0.70767 0.0
C1056 C 0.47234 0.24591 0.7382 0.0
C1057 C 0.47246 0.22106 0.74861 0.0
C1058 C 0.20538 0.43658 0.78747 0.0
C1059 C 0.20439 0.45261 0.75784 0.0
C1060 C 0.22987 0.43639 0.79614 0.0
C1061 C 0.25438 0.45232 0.77563 0.0
H1062 H 0.18675 0.42325 0.80329 0.0
H1063 H 0.22938 0.42293 0.81835 0.0
S1064 S 0.26295 0.49762 0.69513 0.0
N1065 N 0.23012 0.48473 0.70771 0.0
N1066 N 0.27647 0.48479 0.72471 0.0
C1067 C 0.25411 0.46929 0.74684 0.0
C1068 C 0.229 0.46933 0.73774 0.0
C1069 C 0.76093 0.22017 0.77535 0.0
C1070 C 0.76119 0.20295 0.74696 0.0
C1071 C 0.78529 0.24509 0.78471 0.0
C1072 C 0.81047 0.25359 0.76565 0.0
H1073 H 0.7423 0.21357 0.79177 0.0
H1074 H 0.78469 0.25679 0.80834 0.0
S1075 S 0.8205 0.21757 0.68546 0.0
N1076 N 0.78765 0.1973 0.69757 0.0
N1077 N 0.83311 0.24413 0.71446 0.0
C1078 C 0.81029 0.23728 0.73568 0.0
C1079 C 0.78572 0.21197 0.72647 0.0
C1080 C 0.39616 1.00078 0.22827 0.0
C1081 C 0.40984 0.02784 0.24338 0.0
C1082 C 0.38368 0.97706 0.25116 0.0
C1083 C 0.38498 0.97957 0.29005 0.0
H1084 H 0.39653 0.99788 0.19856 0.0
H1085 H 0.37516 0.95675 0.23839 0.0
S1086 S 0.41503 0.04546 0.34346 0.0
N1087 N 0.421 0.05557 0.2996 0.0
N1088 N 0.39823 0.0111 0.3426 0.0
C1089 C 0.39661 0.00643 0.30539 0.0
C1090 C 0.40884 0.03055 0.28207 0.0
C1091 C 0.38471 0.40943 0.27322 0.0
C1092 C 0.38791 0.40995 0.23443 0.0
C1093 C 0.39654 0.39771 0.29642 0.0
C1094 C 0.41142 0.38548 0.28167 0.0
H1095 H 0.37502 0.42016 0.28594 0.0
H1096 H 0.39541 0.39967 0.32623 0.0
S1097 S 0.42195 0.37772 0.18166 0.0
N1098 N 0.40441 0.39456 0.18211 0.0
N1099 N 0.42596 0.37191 0.22564 0.0
C1100 C 0.41246 0.38353 0.24284 0.0
C1101 C 0.40091 0.39596 0.21925 0.0
C1102 C 0.03249 0.40946 0.25105 0.0
C1103 C 0.03052 0.41047 0.28988 0.0
C1104 C 0.00852 0.39782 0.22866 0.0
C1105 C 0.98169 0.38618 0.2443 0.0
H1106 H 0.05268 0.41975 0.23764 0.0
H1107 H 0.0111 0.39939 0.19876 0.0
S1108 S 0.96523 0.37986 0.34488 0.0
N1109 N 0.99958 0.39619 0.34327 0.0
N1110 N 0.95459 0.37367 0.30126 0.0
C1111 C 0.97939 0.38472 0.28322 0.0
C1112 C 1.0038 0.39708 0.30599 0.0
C1113 C 0.61009 0.00625 0.23449 0.0
C1114 C 0.59532 0.97976 0.25117 0.0
C1115 C 0.6225 0.03063 0.25597 0.0
C1116 C 0.61994 0.02939 0.29489 0.0
H1117 H 0.61077 0.00822 0.2045 0.0
H1118 H 0.63215 0.05054 0.24181 0.0
S1119 S 0.5862 0.96521 0.35234 0.0
N1120 N 0.58144 0.95376 0.30913 0.0
N1121 N 0.60399 0.99952 0.34943 0.0
C1122 C 0.60694 1.00302 0.312 0.0
C1123 C 0.59485 0.9782 0.29016 0.0
C1124 C 0.5996 0.62392 0.25168 0.0
C1125 C 0.59771 0.62026 0.29044 0.0
C1126 C 0.61196 0.61219 0.22967 0.0
C1127 C 0.62345 0.59696 0.24567 0.0
H1128 H 0.58938 0.6338 0.23796 0.0
H1129 H 0.61095 0.61356 0.19973 0.0
S1130 S 0.62794 0.58556 0.34635 0.0
N1131 N 0.61128 0.60324 0.34426 0.0
N1132 N 0.63512 0.58185 0.30294 0.0
C1133 C 0.62419 0.59562 0.2846 0.0
C1134 C 0.61111 0.60707 0.30697 0.0
C1135 C 0.00843 0.60749 0.30493 0.0
C1136 C 0.98157 0.59547 0.28922 0.0
C1137 C 0.03244 0.61991 0.2826 0.0
C1138 C 0.0304 0.62017 0.24369 0.0
H1139 H 0.01087 0.60589 0.33455 0.0
H1140 H 0.05251 0.6272 0.29569 0.0
S1141 S 0.96539 0.59468 0.18905 0.0
N1142 N 0.9547 0.5875 0.23257 0.0
N1143 N 0.99969 0.61008 0.19066 0.0
C1144 C 1.00385 0.61013 0.22788 0.0
C1145 C 0.97946 0.598 0.25063 0.0
C1146 C 0.60144 0.97634 0.75355 0.0
C1147 C 0.60366 0.9792 0.79237 0.0
C1148 C 0.61245 0.99987 0.73029 0.0
C1149 C 0.62652 0.02709 0.74494 0.0
H1150 H 0.58904 0.95596 0.7412 0.0
H1151 H 0.60845 0.99671 0.70072 0.0
S1152 S 0.64173 0.04549 0.84455 0.0
N1153 N 0.62369 0.01114 0.84425 0.0
N1154 N 0.6449 0.05524 0.8006 0.0
C1155 C 0.63124 0.03009 0.78347 0.0
C1156 C 0.61964 0.00616 0.80716 0.0
C1157 C 0.62963 0.60163 0.75418 0.0
C1158 C 0.62491 0.59938 0.79274 0.0
C1159 C 0.61822 0.61387 0.73116 0.0
C1160 C 0.60222 0.6249 0.74587 0.0
H1161 H 0.64016 0.5918 0.7413 0.0
H1162 H 0.62044 0.61309 0.70135 0.0
S1163 S 0.58788 0.62844 0.84565 0.0
N1164 N 0.60606 0.61225 0.84508 0.0
N1165 N 0.5852 0.63577 0.80186 0.0
C1166 C 0.59978 0.6253 0.78467 0.0
C1167 C 0.61094 0.61237 0.80808 0.0
C1168 C 0.03269 0.62563 0.75319 0.0
C1169 C 0.03071 0.62162 0.7919 0.0
C1170 C 0.00876 0.61364 0.73073 0.0
C1171 C 0.98196 0.59783 0.74622 0.0
H1172 H 0.0529 0.63609 0.73981 0.0
H1173 H 0.01135 0.6154 0.70084 0.0
S1174 S 0.96537 0.58472 0.84653 0.0
N1175 N 0.99971 0.60318 0.84509 0.0
N1176 N 0.95479 0.58137 0.80296 0.0
C1177 C 0.9796 0.5959 0.78511 0.0
C1178 C 1.00397 0.60759 0.80792 0.0
C1179 C 0.41668 0.03045 0.75085 0.0
C1180 C 0.41678 0.02906 0.78986 0.0
C1181 C 0.405 0.00612 0.72925 0.0
C1182 C 0.39237 0.97955 0.74588 0.0
H1183 H 0.42772 0.0504 0.73687 0.0
H1184 H 0.40723 0.00816 0.69933 0.0
S1185 S 0.38373 0.96474 0.847 0.0
N1186 N 0.40084 0.99905 0.84424 0.0
N1187 N 0.37814 0.95341 0.80371 0.0
C1188 C 0.39009 0.97791 0.7848 0.0
C1189 C 0.40252 1.00266 0.80678 0.0
C1190 C 0.40045 0.39593 0.79356 0.0
C1191 C 0.38977 0.4119 0.77764 0.0
C1192 C 0.41265 0.384 0.77156 0.0
C1193 C 0.41527 0.38825 0.7329 0.0
H1194 H 0.40084 0.394 0.82349 0.0
H1195 H 0.42213 0.37341 0.78531 0.0
S1196 S 0.38793 0.42577 0.67718 0.0
N1197 N 0.38007 0.42885 0.7205 0.0
N1198 N 0.40362 0.40714 0.67922 0.0
C1199 C 0.40288 0.40246 0.7164 0.0
C1200 C 0.38994 0.41409 0.73874 0.0
C1201 C 1.00358 0.39616 0.73171 0.0
C1202 C 0.03044 0.41228 0.74692 0.0
C1203 C 0.97975 0.38437 0.75432 0.0
C1204 C 0.98184 0.38888 0.79292 0.0
H1205 H 1.00087 0.39394 0.70186 0.0
H1206 H 0.9595 0.37358 0.74108 0.0
S1207 S 0.04741 0.42671 0.84696 0.0
N1208 N 0.05781 0.42958 0.80338 0.0
N1209 N 0.01307 0.4081 0.84579 0.0
C1210 C 0.00865 0.40324 0.80873 0.0
C1211 C 0.03295 0.41475 0.78576 0.0
C1212 C 0.56305 0.11901 0.2255 0.0
C1213 C 0.54047 0.12055 0.24083 0.0
C1214 C 0.58453 0.12049 0.24803 0.0
C1215 C 0.58385 0.1228 0.2869 0.0
H1216 H 0.56352 0.11544 0.196 0.0
H1217 H 0.60062 0.1177 0.2352 0.0
S1218 S 0.53068 0.12977 0.34072 0.0
N1219 N 0.52014 0.12685 0.29718 0.0
N1220 N 0.55983 0.12856 0.33946 0.0
C1221 C 0.56222 0.12582 0.30234 0.0
C1222 C 0.54074 0.12501 0.27935 0.0
C1223 C 0.44326 0.55929 0.29669 0.0
C1224 C 0.46719 0.58218 0.28149 0.0
C1225 C 0.42254 0.53888 0.27383 0.0
C1226 C 0.42538 0.54019 0.23493 0.0
H1227 H 0.44112 0.55646 0.32654 0.0
H1228 H 0.40526 0.52093 0.28684 0.0
S1229 S 0.48286 0.59689 0.18112 0.0
N1230 N 0.49126 0.60604 0.22495 0.0
N1231 N 0.45291 0.56731 0.18214 0.0
C1232 C 0.44842 0.56373 0.21936 0.0
C1233 C 0.46916 0.58483 0.24259 0.0
C1234 C 0.8866 0.44221 0.29942 0.0
C1235 C 0.88918 0.46676 0.28399 0.0
C1236 C 0.8867 0.42156 0.2769 0.0
C1237 C 0.89029 0.42507 0.23816 0.0
H1238 H 0.88572 0.4395 0.3293 0.0
H1239 H 0.88598 0.4037 0.29026 0.0
S1240 S 0.89609 0.48464 0.18375 0.0
N1241 N 0.89332 0.49235 0.22726 0.0
N1242 N 0.89457 0.45416 0.18515 0.0
C1243 C 0.89153 0.44888 0.22224 0.0
C1244 C 0.89068 0.46954 0.24509 0.0
C1245 C 0.4462 0.88724 0.31008 0.0
C1246 C 0.42299 0.88698 0.29362 0.0
C1247 C 0.46688 0.88647 0.28836 0.0
C1248 C 0.46551 0.88622 0.24932 0.0
H1249 H 0.44905 0.88937 0.33992 0.0
H1250 H 0.48508 0.88827 0.30217 0.0
S1251 S 0.40815 0.88312 0.1926 0.0
N1252 N 0.39884 0.88401 0.23592 0.0
N1253 N 0.43814 0.88364 0.1952 0.0
C1254 C 0.44171 0.88441 0.23263 0.0
C1255 C 0.42032 0.88448 0.25474 0.0
C1256 C 0.58512 0.46784 0.28064 0.0
C1257 C 0.58348 0.46695 0.24157 0.0
C1258 C 0.56377 0.44714 0.30258 0.0
C1259 C 0.54043 0.42431 0.28631 0.0
H1260 H 0.60202 0.48563 0.29439 0.0
H1261 H 0.56502 0.44958 0.3325 0.0
S1262 S 0.52755 0.41098 0.18524 0.0
N1263 N 0.5574 0.44061 0.1876 0.0
N1264 N 0.51799 0.40122 0.22866 0.0
C1265 C 0.53955 0.42223 0.24731 0.0
C1266 C 0.56086 0.44367 0.22501 0.0
C1267 C 0.12637 0.58511 0.27721 0.0
C1268 C 0.12289 0.58193 0.23844 0.0
C1269 C 0.12639 0.56427 0.29952 0.0
C1270 C 0.12383 0.53984 0.28386 0.0
H1271 H 0.12698 0.60284 0.29072 0.0
H1272 H 0.12713 0.5667 0.32943 0.0
S1273 S 0.11743 0.52291 0.18343 0.0
N1274 N 0.11892 0.55338 0.18513 0.0
N1275 N 0.12 0.51479 0.22688 0.0
C1276 C 0.12254 0.53743 0.24493 0.0
C1277 C 0.12179 0.55831 0.22229 0.0
C1278 C 0.47291 0.88587 0.75744 0.0
C1279 C 0.47253 0.88857 0.79629 0.0
C1280 C 0.45226 0.88605 0.73481 0.0
C1281 C 0.42997 0.88802 0.75021 0.0
H1282 H 0.49033 0.88565 0.7442 0.0
H1283 H 0.4544 0.88581 0.70492 0.0
S1284 S 0.41786 0.89262 0.85062 0.0
N1285 N 0.44704 0.89147 0.84929 0.0
N1286 N 0.40777 0.89067 0.80699 0.0
C1287 C 0.42828 0.88866 0.78916 0.0
C1288 C 0.44968 0.88925 0.81211 0.0
C1289 C 0.56898 0.44851 0.72756 0.0
C1290 C 0.545 0.42554 0.74256 0.0
C1291 C 0.58943 0.46908 0.75055 0.0
C1292 C 0.58628 0.4679 0.78941 0.0
H1293 H 0.57137 0.45124 0.69772 0.0
H1294 H 0.60676 0.48703 0.73763 0.0
S1295 S 0.52857 0.41109 0.84283 0.0
N1296 N 0.52057 0.40178 0.79897 0.0
N1297 N 0.55839 0.4408 0.842 0.0
C1298 C 0.56318 0.44431 0.80482 0.0
C1299 C 0.54272 0.42304 0.78147 0.0
C1300 C 0.12618 0.54224 0.77607 0.0
C1301 C 0.12184 0.5418 0.73746 0.0
C1302 C 0.1263 0.56296 0.79866 0.0
C1303 C 0.123 0.58454 0.78343 0.0
H1304 H 0.12744 0.52536 0.78932 0.0
H1305 H 0.12776 0.56138 0.8285 0.0
S1306 S 0.11403 0.59457 0.68349 0.0
N1307 N 0.11612 0.56591 0.68471 0.0
N1308 N 0.11741 0.60532 0.72695 0.0
C1309 C 0.12077 0.58551 0.74459 0.0
C1310 C 0.1199 0.56402 0.72168 0.0
C1311 C 0.57041 0.12381 0.79915 0.0
C1312 C 0.54615 0.12163 0.78326 0.0
C1313 C 0.59108 0.12332 0.77707 0.0
C1314 C 0.5879 0.11975 0.73832 0.0
H1315 H 0.57282 0.12461 0.82907 0.0
H1316 H 0.60867 0.12369 0.79078 0.0
S1317 S 0.52934 0.11515 0.68273 0.0
N1318 N 0.5213 0.11803 0.72604 0.0
N1319 N 0.55955 0.11608 0.68475 0.0
C1320 C 0.56445 0.11899 0.72193 0.0
C1321 C 0.54376 0.12022 0.74432 0.0
C1322 C 0.44998 0.56478 0.79772 0.0
C1323 C 0.42798 0.54092 0.78109 0.0
C1324 C 0.47109 0.58609 0.77616 0.0
C1325 C 0.47149 0.58389 0.73722 0.0
H1326 H 0.45149 0.56645 0.82771 0.0
H1327 H 0.48824 0.60342 0.79027 0.0
S1328 S 0.41811 0.52632 0.68 0.0
N1329 N 0.40707 0.51729 0.72314 0.0
N1330 N 0.44721 0.55662 0.68287 0.0
C1331 C 0.44901 0.56071 0.72022 0.0
C1332 C 0.42715 0.53943 0.74207 0.0
C1333 C 0.89131 0.44601 0.72583 0.0
C1334 C 0.88966 0.46843 0.74146 0.0
C1335 C 0.89032 0.42466 0.74817 0.0
C1336 C 0.88845 0.42535 0.7871 0.0
H1337 H 0.8946 0.4456 0.69623 0.0
H1338 H 0.89314 0.40868 0.73508 0.0
S1339 S 0.88146 0.47815 0.84169 0.0
N1340 N 0.88376 0.48862 0.79819 0.0
N1341 N 0.88298 0.44919 0.84008 0.0
C1342 C 0.88534 0.44681 0.80287 0.0
C1343 C 0.88564 0.46814 0.7801 0.0
C1344 C 0.48273 0.14714 0.03514 0.0
C1345 C 0.45723 0.12894 0.05237 0.0
C1346 C 0.48507 0.14889 0.99622 0.0
C1347 C 0.46198 0.1325 0.97338 0.0
H1348 H 0.50152 0.15784 0.05169 0.0
H1349 H 0.50561 0.16081 0.98403 0.0
S1350 S 0.39003 0.08437 1.00504 0.0
N1351 N 0.40797 0.09662 0.04388 0.0
N1352 N 0.41236 0.09988 0.97076 0.0
C1353 C 0.43589 0.11647 0.99032 0.0
C1354 C 0.43351 0.11468 0.0299 0.0
C1355 C 0.33928 0.48063 0.02575 0.0
C1356 C 0.33169 0.45658 0.04704 0.0
C1357 C 0.33957 0.47983 0.98672 0.0
C1358 C 0.33227 0.45496 0.9678 0.0
H1359 H 0.34793 0.50067 0.03931 0.0
H1360 H 0.34833 0.49926 0.97148 0.0
S1361 S 0.30758 0.38581 1.01062 0.0
N1362 N 0.31394 0.40682 0.04633 0.0
N1363 N 0.31441 0.40531 0.97302 0.0
C1364 C 0.32194 0.43035 0.98866 0.0
C1365 C 0.32166 0.43117 0.02835 0.0
C1366 C 0.86131 0.33505 0.03679 0.0
C1367 C 0.87993 0.32854 0.05458 0.0
C1368 C 0.85959 0.33517 0.99781 0.0
C1369 C 0.87646 0.3288 0.97546 0.0
H1370 H 0.85029 0.34298 0.05287 0.0
H1371 H 0.84739 0.34331 0.98514 0.0
S1372 S 0.92562 0.30673 1.00875 0.0
N1373 N 0.91299 0.31243 0.04718 0.0
N1374 N 0.90984 0.31275 0.97399 0.0
C1375 C 0.89282 0.31937 0.99303 0.0
C1376 C 0.89455 0.31923 0.03265 0.0
C1377 C 0.57608 0.89057 0.04557 0.0
C1378 C 0.55038 0.87636 0.06411 0.0
C1379 C 0.5773 0.8919 1.00656 0.0
C1380 C 0.55285 0.87901 0.98508 0.0
H1381 H 0.59499 0.90324 0.06122 0.0
H1382 H 0.59714 0.90536 0.99332 0.0
S1383 S 0.48089 0.83651 0.02033 0.0
N1384 N 0.50038 0.8468 0.05816 0.0
N1385 N 0.50267 0.8493 0.98492 0.0
C1386 C 0.5274 0.86248 1.00322 0.0
C1387 C 0.52617 0.8611 0.04281 0.0
C1388 C 0.69081 0.57589 0.03548 0.0
C1389 C 0.68035 0.55146 0.05692 0.0
C1390 C 0.69071 0.57481 0.99643 0.0
C1391 C 0.68017 0.54928 0.97772 0.0
H1392 H 0.69622 0.59545 0.04879 0.0
H1393 H 0.696 0.59357 0.9809 0.0
S1394 S 0.65387 0.48009 0.02125 0.0
N1395 N 0.66215 0.50163 0.05675 0.0
N1396 N 0.66198 0.49961 0.98349 0.0
C1397 C 0.67247 0.52524 0.99892 0.0
C1398 C 0.67256 0.52633 0.03858 0.0
C1399 C 0.11993 0.68707 0.99381 0.0
C1400 C 0.13577 0.6772 0.97581 0.0
C1401 C 0.11854 0.68734 0.03283 0.0
C1402 C 0.13297 0.67773 0.05493 0.0
H1403 H 0.10619 0.6917 0.97776 0.0
H1404 H 0.1038 0.69218 0.04559 0.0
S1405 S 0.18005 0.65327 0.0212 0.0
N1406 N 0.16848 0.66059 0.98292 0.0
N1407 N 0.16588 0.66107 0.05611 0.0
C1408 C 0.1511 0.67064 0.03727 0.0
C1409 C 0.1525 0.67038 0.99766 0.0
C1410 C 0.89425 0.57492 0.49307 0.0
C1411 C 0.87837 0.54911 0.4753 0.0
C1412 C 0.89577 0.57676 0.53207 0.0
C1413 C 0.88145 0.55285 0.55436 0.0
H1414 H 0.90788 0.59322 0.47685 0.0
H1415 H 0.91047 0.59644 0.54467 0.0
S1416 S 0.83447 0.48111 0.52129 0.0
N1417 N 0.84586 0.4998 0.48284 0.0
N1418 N 0.84869 0.50326 0.556 0.0
C1419 C 0.86336 0.52751 0.53694 0.0
C1420 C 0.86182 0.52564 0.49736 0.0
C1421 C 0.34046 0.86171 0.49874 0.0
C1422 C 0.332 0.87894 0.48122 0.0
C1423 C 0.34171 0.86063 0.53768 0.0
C1424 C 0.3345 0.87671 0.56026 0.0
H1425 H 0.34894 0.85135 0.48233 0.0
H1426 H 0.35112 0.84947 0.55001 0.0
S1427 S 0.30787 0.92243 0.52792 0.0
N1428 N 0.31361 0.91007 0.48927 0.0
N1429 N 0.31592 0.90802 0.56243 0.0
C1430 C 0.32338 0.89176 0.54312 0.0
C1431 C 0.32213 0.89288 0.50352 0.0
C1432 C 0.48274 0.33633 0.48974 0.0
C1433 C 0.45716 0.32902 0.47273 0.0
C1434 C 0.48524 0.3369 0.52864 0.0
C1435 C 0.46224 0.33015 0.55167 0.0
H1436 H 0.50147 0.34453 0.47307 0.0
H1437 H 0.50584 0.3456 0.54068 0.0
S1438 S 0.39009 0.30606 0.5206 0.0
N1439 N 0.40788 0.31184 0.48162 0.0
N1440 N 0.41259 0.31293 0.55469 0.0
C1441 C 0.43606 0.31995 0.53494 0.0
C1442 C 0.43351 0.31939 0.49538 0.0
C1443 C 0.11806 0.43226 0.49386 0.0
C1444 C 0.13427 0.4578 0.47547 0.0
C1445 C 0.11634 0.43091 0.53288 0.0
C1446 C 0.13081 0.45505 0.55462 0.0
H1447 H 0.10428 0.41384 0.47802 0.0
H1448 H 0.10141 0.41146 0.54586 0.0
S1449 S 0.17869 0.52619 0.51995 0.0
N1450 N 0.16727 0.50707 0.48196 0.0
N1451 N 0.16408 0.50451 0.55516 0.0
C1452 C 0.14924 0.48007 0.53668 0.0
C1453 C 0.15098 0.48145 0.49706 0.0
C1454 C 0.69017 0.11767 0.49236 0.0
C1455 C 0.68053 0.13429 0.47592 0.0
C1456 C 0.69108 0.11553 0.53123 0.0
C1457 C 0.68237 0.12994 0.55472 0.0
H1458 H 0.69404 0.10392 0.47525 0.0
H1459 H 0.69569 0.10024 0.54283 0.0
S1460 S 0.6591 0.179 0.5253 0.0
N1461 N 0.66527 0.16778 0.48594 0.0
N1462 N 0.66699 0.16377 0.55887 0.0
C1463 C 0.67564 0.14887 0.53861 0.0
C1464 C 0.67471 0.15104 0.49914 0.0
C1465 C 0.57554 0.68654 0.52887 0.0
C1466 C 0.55163 0.67509 0.55141 0.0
C1467 C 0.57336 0.68657 0.48997 0.0
C1468 C 0.54721 0.67506 0.4726 0.0
H1469 H 0.59569 0.69292 0.54117 0.0
H1470 H 0.59186 0.69271 0.47343 0.0
S1471 S 0.47887 0.64581 0.51948 0.0
N1472 N 0.5015 0.6548 0.55387 0.0
N1473 N 0.4974 0.65484 0.48082 0.0
C1474 C 0.52355 0.66628 0.495 0.0
C1475 C 0.52576 0.66624 0.5345 0.0
loop_
_geom_bond_atom_site_label_1
_geom_bond_atom_site_label_2
_geom_bond_distance
_geom_bond_site_symmetry_2
_ccdc_geom_bond_type
Co0 O3 1.970 . S
Co0 N17 1.989 . S
Co0 O25 1.967 . S
Co0 O32 1.920 . S
Co1 O4 1.966 . S
Co1 N10 2.022 . S
Co1 N18 1.993 . S
Co1 O26 1.941 . S
C2 O3 1.258 . S
C2 O4 1.263 . S
O3 Co0 1.970 . S
O3 C2 1.258 . S
O4 Co1 1.966 . S
O4 C2 1.263 . S
C5 O6 1.235 . S
C5 O32 1.289 . S
O6 C5 1.235 . S
C7 C9 1.400 . S
C7 N10 1.351 . S
C7 C12 1.501 . S
C8 C9 1.387 . S
C8 N11 1.341 . S
C9 C7 1.400 . S
C9 C8 1.387 . S
N10 Co1 2.022 . S
N10 C7 1.351 . S
N10 N11 1.365 . S
N11 C8 1.341 . S
N11 N10 1.365 . S
N11 H31 0.862 . S
C12 C7 1.501 . S
C12 H13 0.961 . S
C12 H14 0.961 . S
C12 H15 0.960 . S
H13 C12 0.961 . S
H14 C12 0.961 . S
H15 C12 0.960 . S
C16 N17 1.342 . S
C16 C20 1.401 . S
C16 C21 1.499 . S
N17 Co0 1.989 . S
N17 C16 1.342 . S
N17 N18 1.388 . S
N18 Co1 1.993 . S
N18 N17 1.388 . S
N18 C19 1.346 . S
C19 N18 1.346 . S
C19 C20 1.396 . S
C19 C29 1.510 . S
C20 C16 1.401 . S
C20 C19 1.396 . S
C21 C16 1.499 . S
C21 H22 0.959 . S
C21 H23 0.960 . S
C21 H24 0.961 . S
H22 C21 0.959 . S
H23 C21 0.960 . S
H24 C21 0.961 . S
O25 Co0 1.967 . S
O25 C33 1.258 . S
O26 Co1 1.941 . S
O26 C33 1.266 . S
H27 C29 0.959 . S
H28 C29 0.961 . S
C29 C19 1.510 . S
C29 H27 0.959 . S
C29 H28 0.961 . S
C29 H30 0.960 . S
H30 C29 0.960 . S
H31 N11 0.862 . S
O32 Co0 1.920 . S
O32 C5 1.289 . S
C33 O25 1.258 . S
C33 O26 1.266 . S
Co34 O37 1.970 . S
Co34 N51 1.989 . S
Co34 O59 1.967 . S
Co34 O66 1.920 . S
Co35 O38 1.966 . S
Co35 N44 2.022 . S
Co35 N52 1.993 . S
Co35 O60 1.941 . S
C36 O37 1.258 . S
C36 O38 1.263 . S
O37 Co34 1.970 . S
O37 C36 1.258 . S
O38 Co35 1.966 . S
O38 C36 1.263 . S
C39 O40 1.235 . S
C39 O66 1.289 . S
O40 C39 1.235 . S
C41 C43 1.400 . S
C41 N44 1.351 . S
C41 C46 1.501 . S
C42 C43 1.387 . S
C42 N45 1.341 . S
C43 C41 1.400 . S
C43 C42 1.387 . S
N44 Co35 2.022 . S
N44 C41 1.351 . S
N44 N45 1.365 . S
N45 C42 1.341 . S
N45 N44 1.365 . S
N45 H65 0.862 . S
C46 C41 1.501 . S
C46 H47 0.961 . S
C46 H48 0.961 . S
C46 H49 0.960 . S
H47 C46 0.961 . S
H48 C46 0.961 . S
H49 C46 0.960 . S
C50 N51 1.342 . S
C50 C54 1.401 . S
C50 C55 1.499 . S
N51 Co34 1.989 . S
N51 C50 1.342 . S
N51 N52 1.388 . S
N52 Co35 1.993 . S
N52 N51 1.388 . S
N52 C53 1.346 . S
C53 N52 1.346 . S
C53 C54 1.396 . S
C53 C63 1.510 . S
C54 C50 1.401 . S
C54 C53 1.396 . S
C55 C50 1.499 . S
C55 H56 0.959 . S
C55 H57 0.960 . S
C55 H58 0.961 . S
H56 C55 0.959 . S
H57 C55 0.960 . S
H58 C55 0.961 . S
O59 Co34 1.967 . S
O59 C67 1.258 . S
O60 Co35 1.941 . S
O60 C67 1.266 . S
H61 C63 0.959 . S
H62 C63 0.961 . S
C63 C53 1.510 . S
C63 H61 0.959 . S
C63 H62 0.961 . S
C63 H64 0.960 . S
H64 C63 0.960 . S
H65 N45 0.862 . S
O66 Co34 1.920 . S
O66 C39 1.289 . S
C67 O59 1.258 . S
C67 O60 1.266 . S
Co68 O71 1.970 . S
Co68 N85 1.989 . S
Co68 O93 1.967 . S
Co68 O100 1.920 . S
Co69 O72 1.966 . S
Co69 N78 2.022 . S
Co69 N86 1.993 . S
Co69 O94 1.941 . S
C70 O71 1.258 . S
C70 O72 1.263 . S
O71 Co68 1.970 . S
O71 C70 1.258 . S
O72 Co69 1.966 . S
O72 C70 1.263 . S
C73 O74 1.235 . S
C73 O100 1.289 . S
O74 C73 1.235 . S
C75 C77 1.400 . S
C75 N78 1.351 . S
C75 C80 1.501 . S
C76 C77 1.387 . S
C76 N79 1.341 . S
C77 C75 1.400 . S
C77 C76 1.387 . S
N78 Co69 2.022 . S
N78 C75 1.351 . S
N78 N79 1.365 . S
N79 C76 1.341 . S
N79 N78 1.365 . S
N79 H99 0.862 . S
C80 C75 1.501 . S
C80 H81 0.961 . S
C80 H82 0.961 . S
C80 H83 0.960 . S
H81 C80 0.961 . S
H82 C80 0.961 . S
H83 C80 0.960 . S
C84 N85 1.342 . S
C84 C88 1.401 . S
C84 C89 1.499 . S
N85 Co68 1.989 . S
N85 C84 1.342 . S
N85 N86 1.388 . S
N86 Co69 1.993 . S
N86 N85 1.388 . S
N86 C87 1.346 . S
C87 N86 1.346 . S
C87 C88 1.396 . S
C87 C97 1.510 . S
C88 C84 1.401 . S
C88 C87 1.396 . S
C89 C84 1.499 . S
C89 H90 0.959 . S
C89 H91 0.960 . S
C89 H92 0.961 . S
H90 C89 0.959 . S
H91 C89 0.960 . S
H92 C89 0.961 . S
O93 Co68 1.967 . S
O93 C101 1.258 . S
O94 Co69 1.941 . S
O94 C101 1.266 . S
H95 C97 0.959 . S
H96 C97 0.961 . S
C97 C87 1.510 . S
C97 H95 0.959 . S
C97 H96 0.961 . S
C97 H98 0.960 . S
H98 C97 0.960 . S
H99 N79 0.862 . S
O100 Co68 1.920 . S
O100 C73 1.289 . S
C101 O93 1.258 . S
C101 O94 1.266 . S
Co102 O105 1.970 . S
Co102 N119 1.989 . S
Co102 O127 1.967 . S
Co102 O134 1.920 . S
Co103 O106 1.966 . S
Co103 N112 2.022 . S
Co103 N120 1.993 . S
Co103 O128 1.941 . S
C104 O105 1.258 . S
C104 O106 1.263 . S
O105 Co102 1.970 . S
O105 C104 1.258 . S
O106 Co103 1.966 . S
O106 C104 1.263 . S
C107 O108 1.235 . S
C107 O134 1.289 . S
O108 C107 1.235 . S
C109 C111 1.400 . S
C109 N112 1.351 . S
C109 C114 1.501 . S
C110 C111 1.387 . S
C110 N113 1.341 . S
C111 C109 1.400 . S
C111 C110 1.387 . S
N112 Co103 2.022 . S
N112 C109 1.351 . S
N112 N113 1.365 . S
N113 C110 1.341 . S
N113 N112 1.365 . S
N113 H133 0.862 . S
C114 C109 1.501 . S
C114 H115 0.961 . S
C114 H116 0.961 . S
C114 H117 0.960 . S
H115 C114 0.961 . S
H116 C114 0.961 . S
H117 C114 0.960 . S
C118 N119 1.342 . S
C118 C122 1.401 . S
C118 C123 1.499 . S
N119 Co102 1.989 . S
N119 C118 1.342 . S
N119 N120 1.388 . S
N120 Co103 1.993 . S
N120 N119 1.388 . S
N120 C121 1.346 . S
C121 N120 1.346 . S
C121 C122 1.396 . S
C121 C131 1.510 . S
C122 C118 1.401 . S
C122 C121 1.396 . S
C123 C118 1.499 . S
C123 H124 0.959 . S
C123 H125 0.960 . S
C123 H126 0.961 . S
H124 C123 0.959 . S
H125 C123 0.960 . S
H126 C123 0.961 . S
O127 Co102 1.967 . S
O127 C135 1.258 . S
O128 Co103 1.941 . S
O128 C135 1.266 . S
H129 C131 0.959 . S
H130 C131 0.961 . S
C131 C121 1.510 . S
C131 H129 0.959 . S
C131 H130 0.961 . S
C131 H132 0.960 . S
H132 C131 0.960 . S
H133 N113 0.862 . S
O134 Co102 1.920 . S
O134 C107 1.289 . S
C135 O127 1.258 . S
C135 O128 1.266 . S
Co136 O139 1.970 . S
Co136 N153 1.989 . S
Co136 O161 1.967 . S
Co136 O168 1.920 . S
Co137 O140 1.966 . S
Co137 N146 2.022 . S
Co137 N154 1.993 . S
Co137 O162 1.941 . S
C138 O139 1.258 . S
C138 O140 1.263 . S
O139 Co136 1.970 . S
O139 C138 1.258 . S
O140 Co137 1.966 . S
O140 C138 1.263 . S
C141 O142 1.235 . S
C141 O168 1.289 . S
O142 C141 1.235 . S
C143 C145 1.400 . S
C143 N146 1.351 . S
C143 C148 1.501 . S
C144 C145 1.387 . S
C144 N147 1.341 . S
C145 C143 1.400 . S
C145 C144 1.387 . S
N146 Co137 2.022 . S
N146 C143 1.351 . S
N146 N147 1.365 . S
N147 C144 1.341 . S
N147 N146 1.365 . S
N147 H167 0.862 . S
C148 C143 1.501 . S
C148 H149 0.961 . S
C148 H150 0.961 . S
C148 H151 0.960 . S
H149 C148 0.961 . S
H150 C148 0.961 . S
H151 C148 0.960 . S
C152 N153 1.342 . S
C152 C156 1.401 . S
C152 C157 1.499 . S
N153 Co136 1.989 . S
N153 C152 1.342 . S
N153 N154 1.388 . S
N154 Co137 1.993 . S
N154 N153 1.388 . S
N154 C155 1.346 . S
C155 N154 1.346 . S
C155 C156 1.396 . S
C155 C165 1.510 . S
C156 C152 1.401 . S
C156 C155 1.396 . S
C157 C152 1.499 . S
C157 H158 0.959 . S
C157 H159 0.960 . S
C157 H160 0.961 . S
H158 C157 0.959 . S
H159 C157 0.960 . S
H160 C157 0.961 . S
O161 Co136 1.967 . S
O161 C169 1.258 . S
O162 Co137 1.941 . S
O162 C169 1.266 . S
H163 C165 0.959 . S
H164 C165 0.961 . S
C165 C155 1.510 . S
C165 H163 0.959 . S
C165 H164 0.961 . S
C165 H166 0.960 . S
H166 C165 0.960 . S
H167 N147 0.862 . S
O168 Co136 1.920 . S
O168 C141 1.289 . S
C169 O161 1.258 . S
C169 O162 1.266 . S
Co170 O173 1.970 . S
Co170 N187 1.989 . S
Co170 O195 1.967 . S
Co170 O202 1.920 . S
Co171 O174 1.966 . S
Co171 N180 2.022 . S
Co171 N188 1.993 . S
Co171 O196 1.941 . S
C172 O173 1.258 . S
C172 O174 1.263 . S
O173 Co170 1.970 . S
O173 C172 1.258 . S
O174 Co171 1.966 . S
O174 C172 1.263 . S
C175 O176 1.235 . S
C175 O202 1.289 . S
O176 C175 1.235 . S
C177 C179 1.400 . S
C177 N180 1.351 . S
C177 C182 1.501 . S
C178 C179 1.387 . S
C178 N181 1.341 . S
C179 C177 1.400 . S
C179 C178 1.387 . S
N180 Co171 2.022 . S
N180 C177 1.351 . S
N180 N181 1.365 . S
N181 C178 1.341 . S
N181 N180 1.365 . S
N181 H201 0.862 . S
C182 C177 1.501 . S
C182 H183 0.961 . S
C182 H184 0.961 . S
C182 H185 0.960 . S
H183 C182 0.961 . S
H184 C182 0.961 . S
H185 C182 0.960 . S
C186 N187 1.342 . S
C186 C190 1.401 . S
C186 C191 1.499 . S
N187 Co170 1.989 . S
N187 C186 1.342 . S
N187 N188 1.388 . S
N188 Co171 1.993 . S
N188 N187 1.388 . S
N188 C189 1.346 . S
C189 N188 1.346 . S
C189 C190 1.396 . S
C189 C199 1.510 . S
C190 C186 1.401 . S
C190 C189 1.396 . S
C191 C186 1.499 . S
C191 H192 0.959 . S
C191 H193 0.960 . S
C191 H194 0.961 . S
H192 C191 0.959 . S
H193 C191 0.960 . S
H194 C191 0.961 . S
O195 Co170 1.967 . S
O195 C203 1.258 . S
O196 Co171 1.941 . S
O196 C203 1.266 . S
H197 C199 0.959 . S
H198 C199 0.961 . S
C199 C189 1.510 . S
C199 H197 0.959 . S
C199 H198 0.961 . S
C199 H200 0.960 . S
H200 C199 0.960 . S
H201 N181 0.862 . S
O202 Co170 1.920 . S
O202 C175 1.289 . S
C203 O195 1.258 . S
C203 O196 1.266 . S
Co204 O207 1.970 . S
Co204 N221 1.989 . S
Co204 O229 1.967 . S
Co204 O236 1.920 . S
Co205 O208 1.966 . S
Co205 N214 2.022 . S
Co205 N222 1.993 . S
Co205 O230 1.941 . S
C206 O207 1.258 . S
C206 O208 1.263 . S
O207 Co204 1.970 . S
O207 C206 1.258 . S
O208 Co205 1.966 . S
O208 C206 1.263 . S
C209 O210 1.235 . S
C209 O236 1.289 . S
O210 C209 1.235 . S
C211 C213 1.400 . S
C211 N214 1.351 . S
C211 C216 1.501 . S
C212 C213 1.387 . S
C212 N215 1.341 . S
C213 C211 1.400 . S
C213 C212 1.387 . S
N214 Co205 2.022 . S
N214 C211 1.351 . S
N214 N215 1.365 . S
N215 C212 1.341 . S
N215 N214 1.365 . S
N215 H235 0.862 . S
C216 C211 1.501 . S
C216 H217 0.961 . S
C216 H218 0.961 . S
C216 H219 0.960 . S
H217 C216 0.961 . S
H218 C216 0.961 . S
H219 C216 0.960 . S
C220 N221 1.342 . S
C220 C224 1.401 . S
C220 C225 1.499 . S
N221 Co204 1.989 . S
N221 C220 1.342 . S
N221 N222 1.388 . S
N222 Co205 1.993 . S
N222 N221 1.388 . S
N222 C223 1.346 . S
C223 N222 1.346 . S
C223 C224 1.396 . S
C223 C233 1.510 . S
C224 C220 1.401 . S
C224 C223 1.396 . S
C225 C220 1.499 . S
C225 H226 0.959 . S
C225 H227 0.960 . S
C225 H228 0.961 . S
H226 C225 0.959 . S
H227 C225 0.960 . S
H228 C225 0.961 . S
O229 Co204 1.967 . S
O229 C237 1.258 . S
O230 Co205 1.941 . S
O230 C237 1.266 . S
H231 C233 0.959 . S
H232 C233 0.961 . S
C233 C223 1.510 . S
C233 H231 0.959 . S
C233 H232 0.961 . S
C233 H234 0.960 . S
H234 C233 0.960 . S
H235 N215 0.862 . S
O236 Co204 1.920 . S
O236 C209 1.289 . S
C237 O229 1.258 . S
C237 O230 1.266 . S
Co238 O241 1.970 . S
Co238 N255 1.989 . S
Co238 O263 1.967 . S
Co238 O270 1.920 . S
Co239 O242 1.966 . S
Co239 N248 2.022 . S
Co239 N256 1.993 . S
Co239 O264 1.941 . S
C240 O241 1.258 . S
C240 O242 1.263 . S
O241 Co238 1.970 . S
O241 C240 1.258 . S
O242 Co239 1.966 . S
O242 C240 1.263 . S
C243 O244 1.235 . S
C243 O270 1.289 . S
O244 C243 1.235 . S
C245 C247 1.400 . S
C245 N248 1.351 . S
C245 C250 1.501 . S
C246 C247 1.387 . S
C246 N249 1.341 . S
C247 C245 1.400 . S
C247 C246 1.387 . S
N248 Co239 2.022 . S
N248 C245 1.351 . S
N248 N249 1.365 . S
N249 C246 1.341 . S
N249 N248 1.365 . S
N249 H269 0.862 . S
C250 C245 1.501 . S
C250 H251 0.961 . S
C250 H252 0.961 . S
C250 H253 0.960 . S
H251 C250 0.961 . S
H252 C250 0.961 . S
H253 C250 0.960 . S
C254 N255 1.342 . S
C254 C258 1.401 . S
C254 C259 1.499 . S
N255 Co238 1.989 . S
N255 C254 1.342 . S
N255 N256 1.388 . S
N256 Co239 1.993 . S
N256 N255 1.388 . S
N256 C257 1.346 . S
C257 N256 1.346 . S
C257 C258 1.396 . S
C257 C267 1.510 . S
C258 C254 1.401 . S
C258 C257 1.396 . S
C259 C254 1.499 . S
C259 H260 0.959 . S
C259 H261 0.960 . S
C259 H262 0.961 . S
H260 C259 0.959 . S
H261 C259 0.960 . S
H262 C259 0.961 . S
O263 Co238 1.967 . S
O263 C271 1.258 . S
O264 Co239 1.941 . S
O264 C271 1.266 . S
H265 C267 0.959 . S
H266 C267 0.961 . S
C267 C257 1.510 . S
C267 H265 0.959 . S
C267 H266 0.961 . S
C267 H268 0.960 . S
H268 C267 0.960 . S
H269 N249 0.862 . S
O270 Co238 1.920 . S
O270 C243 1.289 . S
C271 O263 1.258 . S
C271 O264 1.266 . S
Co272 O275 1.970 . S
Co272 N289 1.989 . S
Co272 O297 1.967 . S
Co272 O304 1.920 . S
Co273 O276 1.966 . S
Co273 N282 2.022 . S
Co273 N290 1.993 . S
Co273 O298 1.941 . S
C274 O275 1.258 . S
C274 O276 1.263 . S
O275 Co272 1.970 . S
O275 C274 1.258 . S
O276 Co273 1.966 . S
O276 C274 1.263 . S
C277 O278 1.235 . S
C277 O304 1.289 . S
O278 C277 1.235 . S
C279 C281 1.400 . S
C279 N282 1.351 . S
C279 C284 1.501 . S
C280 C281 1.387 . S
C280 N283 1.341 . S
C281 C279 1.400 . S
C281 C280 1.387 . S
N282 Co273 2.022 . S
N282 C279 1.351 . S
N282 N283 1.365 . S
N283 C280 1.341 . S
N283 N282 1.365 . S
N283 H303 0.862 . S
C284 C279 1.501 . S
C284 H285 0.961 . S
C284 H286 0.961 . S
C284 H287 0.960 . S
H285 C284 0.961 . S
H286 C284 0.961 . S
H287 C284 0.960 . S
C288 N289 1.342 . S
C288 C292 1.401 . S
C288 C293 1.499 . S
N289 Co272 1.989 . S
N289 C288 1.342 . S
N289 N290 1.388 . S
N290 Co273 1.993 . S
N290 N289 1.388 . S
N290 C291 1.346 . S
C291 N290 1.346 . S
C291 C292 1.396 . S
C291 C301 1.510 . S
C292 C288 1.401 . S
C292 C291 1.396 . S
C293 C288 1.499 . S
C293 H294 0.959 . S
C293 H295 0.960 . S
C293 H296 0.961 . S
H294 C293 0.959 . S
H295 C293 0.960 . S
H296 C293 0.961 . S
O297 Co272 1.967 . S
O297 C305 1.258 . S
O298 Co273 1.941 . S
O298 C305 1.266 . S
H299 C301 0.959 . S
H300 C301 0.961 . S
C301 C291 1.510 . S
C301 H299 0.959 . S
C301 H300 0.961 . S
C301 H302 0.960 . S
H302 C301 0.960 . S
H303 N283 0.862 . S
O304 Co272 1.920 . S
O304 C277 1.289 . S
C305 O297 1.258 . S
C305 O298 1.266 . S
Co306 O309 1.970 . S
Co306 N323 1.989 . S
Co306 O331 1.967 . S
Co306 O338 1.920 . S
Co307 O310 1.966 . S
Co307 N316 2.022 . S
Co307 N324 1.993 . S
Co307 O332 1.941 . S
C308 O309 1.258 . S
C308 O310 1.263 . S
O309 Co306 1.970 . S
O309 C308 1.258 . S
O310 Co307 1.966 . S
O310 C308 1.263 . S
C311 O312 1.235 . S
C311 O338 1.289 . S
O312 C311 1.235 . S
C313 C315 1.400 . S
C313 N316 1.351 . S
C313 C318 1.501 . S
C314 C315 1.387 . S
C314 N317 1.341 . S
C315 C313 1.400 . S
C315 C314 1.387 . S
N316 Co307 2.022 . S
N316 C313 1.351 . S
N316 N317 1.365 . S
N317 C314 1.341 . S
N317 N316 1.365 . S
N317 H337 0.862 . S
C318 C313 1.501 . S
C318 H319 0.961 . S
C318 H320 0.961 . S
C318 H321 0.960 . S
H319 C318 0.961 . S
H320 C318 0.961 . S
H321 C318 0.960 . S
C322 N323 1.342 . S
C322 C326 1.401 . S
C322 C327 1.499 . S
N323 Co306 1.989 . S
N323 C322 1.342 . S
N323 N324 1.388 . S
N324 Co307 1.993 . S
N324 N323 1.388 . S
N324 C325 1.346 . S
C325 N324 1.346 . S
C325 C326 1.396 . S
C325 C335 1.510 . S
C326 C322 1.401 . S
C326 C325 1.396 . S
C327 C322 1.499 . S
C327 H328 0.959 . S
C327 H329 0.960 . S
C327 H330 0.961 . S
H328 C327 0.959 . S
H329 C327 0.960 . S
H330 C327 0.961 . S
O331 Co306 1.967 . S
O331 C339 1.258 . S
O332 Co307 1.941 . S
O332 C339 1.266 . S
H333 C335 0.959 . S
H334 C335 0.961 . S
C335 C325 1.510 . S
C335 H333 0.959 . S
C335 H334 0.961 . S
C335 H336 0.960 . S
H336 C335 0.960 . S
H337 N317 0.862 . S
O338 Co306 1.920 . S
O338 C311 1.289 . S
C339 O331 1.258 . S
C339 O332 1.266 . S
Co340 O343 1.970 . S
Co340 N357 1.989 . S
Co340 O365 1.967 . S
Co340 O372 1.920 . S
Co341 O344 1.966 . S
Co341 N350 2.022 . S
Co341 N358 1.993 . S
Co341 O366 1.941 . S
C342 O343 1.258 . S
C342 O344 1.263 . S
O343 Co340 1.970 . S
O343 C342 1.258 . S
O344 Co341 1.966 . S
O344 C342 1.263 . S
C345 O346 1.235 . S
C345 O372 1.289 . S
O346 C345 1.235 . S
C347 C349 1.400 . S
C347 N350 1.351 . S
C347 C352 1.501 . S
C348 C349 1.387 . S
C348 N351 1.341 . S
C349 C347 1.400 . S
C349 C348 1.387 . S
N350 Co341 2.022 . S
N350 C347 1.351 . S
N350 N351 1.365 . S
N351 C348 1.341 . S
N351 N350 1.365 . S
N351 H371 0.862 . S
C352 C347 1.501 . S
C352 H353 0.961 . S
C352 H354 0.961 . S
C352 H355 0.960 . S
H353 C352 0.961 . S
H354 C352 0.961 . S
H355 C352 0.960 . S
C356 N357 1.342 . S
C356 C360 1.401 . S
C356 C361 1.499 . S
N357 Co340 1.989 . S
N357 C356 1.342 . S
N357 N358 1.388 . S
N358 Co341 1.993 . S
N358 N357 1.388 . S
N358 C359 1.346 . S
C359 N358 1.346 . S
C359 C360 1.396 . S
C359 C369 1.510 . S
C360 C356 1.401 . S
C360 C359 1.396 . S
C361 C356 1.499 . S
C361 H362 0.959 . S
C361 H363 0.960 . S
C361 H364 0.961 . S
H362 C361 0.959 . S
H363 C361 0.960 . S
H364 C361 0.961 . S
O365 Co340 1.967 . S
O365 C373 1.258 . S
O366 Co341 1.941 . S
O366 C373 1.266 . S
H367 C369 0.959 . S
H368 C369 0.961 . S
C369 C359 1.510 . S
C369 H367 0.959 . S
C369 H368 0.961 . S
C369 H370 0.960 . S
H370 C369 0.960 . S
H371 N351 0.862 . S
O372 Co340 1.920 . S
O372 C345 1.289 . S
C373 O365 1.258 . S
C373 O366 1.266 . S
Co374 O377 1.970 . S
Co374 N391 1.989 . S
Co374 O399 1.967 . S
Co374 O406 1.920 . S
Co375 O378 1.966 . S
Co375 N384 2.022 . S
Co375 N392 1.993 . S
Co375 O400 1.941 . S
C376 O377 1.258 . S
C376 O378 1.263 . S
O377 Co374 1.970 . S
O377 C376 1.258 . S
O378 Co375 1.966 . S
O378 C376 1.263 . S
C379 O380 1.235 . S
C379 O406 1.289 . S
O380 C379 1.235 . S
C381 C383 1.400 . S
C381 N384 1.351 . S
C381 C386 1.501 . S
C382 C383 1.387 . S
C382 N385 1.341 . S
C383 C381 1.400 . S
C383 C382 1.387 . S
N384 Co375 2.022 . S
N384 C381 1.351 . S
N384 N385 1.365 . S
N385 C382 1.341 . S
N385 N384 1.365 . S
N385 H405 0.862 . S
C386 C381 1.501 . S
C386 H387 0.961 . S
C386 H388 0.961 . S
C386 H389 0.960 . S
H387 C386 0.961 . S
H388 C386 0.961 . S
H389 C386 0.960 . S
C390 N391 1.342 . S
C390 C394 1.401 . S
C390 C395 1.499 . S
N391 Co374 1.989 . S
N391 C390 1.342 . S
N391 N392 1.388 . S
N392 Co375 1.993 . S
N392 N391 1.388 . S
N392 C393 1.346 . S
C393 N392 1.346 . S
C393 C394 1.396 . S
C393 C403 1.510 . S
C394 C390 1.401 . S
C394 C393 1.396 . S
C395 C390 1.499 . S
C395 H396 0.959 . S
C395 H397 0.960 . S
C395 H398 0.961 . S
H396 C395 0.959 . S
H397 C395 0.960 . S
H398 C395 0.961 . S
O399 Co374 1.967 . S
O399 C407 1.258 . S
O400 Co375 1.941 . S
O400 C407 1.266 . S
H401 C403 0.959 . S
H402 C403 0.961 . S
C403 C393 1.510 . S
C403 H401 0.959 . S
C403 H402 0.961 . S
C403 H404 0.960 . S
H404 C403 0.960 . S
H405 N385 0.862 . S
O406 Co374 1.920 . S
O406 C379 1.289 . S
C407 O399 1.258 . S
C407 O400 1.266 . S
Co408 O411 1.970 . S
Co408 N425 1.989 . S
Co408 O433 1.967 . S
Co408 O440 1.920 . S
Co409 O412 1.966 . S
Co409 N418 2.022 . S
Co409 N426 1.993 . S
Co409 O434 1.941 . S
C410 O411 1.258 . S
C410 O412 1.263 . S
O411 Co408 1.970 . S
O411 C410 1.258 . S
O412 Co409 1.966 . S
O412 C410 1.263 . S
C413 O414 1.235 . S
C413 O440 1.289 . S
O414 C413 1.235 . S
C415 C417 1.400 . S
C415 N418 1.351 . S
C415 C420 1.501 . S
C416 C417 1.387 . S
C416 N419 1.341 . S
C417 C415 1.400 . S
C417 C416 1.387 . S
N418 Co409 2.022 . S
N418 C415 1.351 . S
N418 N419 1.365 . S
N419 C416 1.341 . S
N419 N418 1.365 . S
N419 H439 0.862 . S
C420 C415 1.501 . S
C420 H421 0.961 . S
C420 H422 0.961 . S
C420 H423 0.960 . S
H421 C420 0.961 . S
H422 C420 0.961 . S
H423 C420 0.960 . S
C424 N425 1.342 . S
C424 C428 1.401 . S
C424 C429 1.499 . S
N425 Co408 1.989 . S
N425 C424 1.342 . S
N425 N426 1.388 . S
N426 Co409 1.993 . S
N426 N425 1.388 . S
N426 C427 1.346 . S
C427 N426 1.346 . S
C427 C428 1.396 . S
C427 C437 1.510 . S
C428 C424 1.401 . S
C428 C427 1.396 . S
C429 C424 1.499 . S
C429 H430 0.959 . S
C429 H431 0.960 . S
C429 H432 0.961 . S
H430 C429 0.959 . S
H431 C429 0.960 . S
H432 C429 0.961 . S
O433 Co408 1.967 . S
O433 C441 1.258 . S
O434 Co409 1.941 . S
O434 C441 1.266 . S
H435 C437 0.959 . S
H436 C437 0.961 . S
C437 C427 1.510 . S
C437 H435 0.959 . S
C437 H436 0.961 . S
C437 H438 0.960 . S
H438 C437 0.960 . S
H439 N419 0.862 . S
O440 Co408 1.920 . S
O440 C413 1.289 . S
C441 O433 1.258 . S
C441 O434 1.266 . S
Co442 O445 1.970 . S
Co442 N459 1.989 . S
Co442 O467 1.967 . S
Co442 O474 1.920 . S
Co443 O446 1.966 . S
Co443 N452 2.022 . S
Co443 N460 1.993 . S
Co443 O468 1.941 . S
C444 O445 1.258 . S
C444 O446 1.263 . S
O445 Co442 1.970 . S
O445 C444 1.258 . S
O446 Co443 1.966 . S
O446 C444 1.263 . S
C447 O448 1.235 . S
C447 O474 1.289 . S
O448 C447 1.235 . S
C449 C451 1.400 . S
C449 N452 1.351 . S
C449 C454 1.501 . S
C450 C451 1.387 . S
C450 N453 1.341 . S
C451 C449 1.400 . S
C451 C450 1.387 . S
N452 Co443 2.022 . S
N452 C449 1.351 . S
N452 N453 1.365 . S
N453 C450 1.341 . S
N453 N452 1.365 . S
N453 H473 0.862 . S
C454 C449 1.501 . S
C454 H455 0.961 . S
C454 H456 0.961 . S
C454 H457 0.960 . S
H455 C454 0.961 . S
H456 C454 0.961 . S
H457 C454 0.960 . S
C458 N459 1.342 . S
C458 C462 1.401 . S
C458 C463 1.499 . S
N459 Co442 1.989 . S
N459 C458 1.342 . S
N459 N460 1.388 . S
N460 Co443 1.993 . S
N460 N459 1.388 . S
N460 C461 1.346 . S
C461 N460 1.346 . S
C461 C462 1.396 . S
C461 C471 1.510 . S
C462 C458 1.401 . S
C462 C461 1.396 . S
C463 C458 1.499 . S
C463 H464 0.959 . S
C463 H465 0.960 . S
C463 H466 0.961 . S
H464 C463 0.959 . S
H465 C463 0.960 . S
H466 C463 0.961 . S
O467 Co442 1.967 . S
O467 C475 1.258 . S
O468 Co443 1.941 . S
O468 C475 1.266 . S
H469 C471 0.959 . S
H470 C471 0.961 . S
C471 C461 1.510 . S
C471 H469 0.959 . S
C471 H470 0.961 . S
C471 H472 0.960 . S
H472 C471 0.960 . S
H473 N453 0.862 . S
O474 Co442 1.920 . S
O474 C447 1.289 . S
C475 O467 1.258 . S
C475 O468 1.266 . S
Co476 O479 1.970 . S
Co476 N493 1.989 . S
Co476 O501 1.967 . S
Co476 O508 1.920 . S
Co477 O480 1.966 . S
Co477 N486 2.022 . S
Co477 N494 1.993 . S
Co477 O502 1.941 . S
C478 O479 1.258 . S
C478 O480 1.263 . S
O479 Co476 1.970 . S
O479 C478 1.258 . S
O480 Co477 1.966 . S
O480 C478 1.263 . S
C481 O482 1.235 . S
C481 O508 1.289 . S
O482 C481 1.235 . S
C483 C485 1.400 . S
C483 N486 1.351 . S
C483 C488 1.501 . S
C484 C485 1.387 . S
C484 N487 1.341 . S
C485 C483 1.400 . S
C485 C484 1.387 . S
N486 Co477 2.022 . S
N486 C483 1.351 . S
N486 N487 1.365 . S
N487 C484 1.341 . S
N487 N486 1.365 . S
N487 H507 0.862 . S
C488 C483 1.501 . S
C488 H489 0.961 . S
C488 H490 0.961 . S
C488 H491 0.960 . S
H489 C488 0.961 . S
H490 C488 0.961 . S
H491 C488 0.960 . S
C492 N493 1.342 . S
C492 C496 1.401 . S
C492 C497 1.499 . S
N493 Co476 1.989 . S
N493 C492 1.342 . S
N493 N494 1.388 . S
N494 Co477 1.993 . S
N494 N493 1.388 . S
N494 C495 1.346 . S
C495 N494 1.346 . S
C495 C496 1.396 . S
C495 C505 1.510 . S
C496 C492 1.401 . S
C496 C495 1.396 . S
C497 C492 1.499 . S
C497 H498 0.959 . S
C497 H499 0.960 . S
C497 H500 0.961 . S
H498 C497 0.959 . S
H499 C497 0.960 . S
H500 C497 0.961 . S
O501 Co476 1.967 . S
O501 C509 1.258 . S
O502 Co477 1.941 . S
O502 C509 1.266 . S
H503 C505 0.959 . S
H504 C505 0.961 . S
C505 C495 1.510 . S
C505 H503 0.959 . S
C505 H504 0.961 . S
C505 H506 0.960 . S
H506 C505 0.960 . S
H507 N487 0.862 . S
O508 Co476 1.920 . S
O508 C481 1.289 . S
C509 O501 1.258 . S
C509 O502 1.266 . S
Co510 O513 1.970 . S
Co510 N527 1.989 . S
Co510 O535 1.967 . S
Co510 O542 1.920 . S
Co511 O514 1.966 . S
Co511 N520 2.022 . S
Co511 N528 1.993 . S
Co511 O536 1.941 . S
C512 O513 1.258 . S
C512 O514 1.263 . S
O513 Co510 1.970 . S
O513 C512 1.258 . S
O514 Co511 1.966 . S
O514 C512 1.263 . S
C515 O516 1.235 . S
C515 O542 1.289 . S
O516 C515 1.235 . S
C517 C519 1.400 . S
C517 N520 1.351 . S
C517 C522 1.501 . S
C518 C519 1.387 . S
C518 N521 1.341 . S
C519 C517 1.400 . S
C519 C518 1.387 . S
N520 Co511 2.022 . S
N520 C517 1.351 . S
N520 N521 1.365 . S
N521 C518 1.341 . S
N521 N520 1.365 . S
N521 H541 0.862 . S
C522 C517 1.501 . S
C522 H523 0.961 . S
C522 H524 0.961 . S
C522 H525 0.960 . S
H523 C522 0.961 . S
H524 C522 0.961 . S
H525 C522 0.960 . S
C526 N527 1.342 . S
C526 C530 1.401 . S
C526 C531 1.499 . S
N527 Co510 1.989 . S
N527 C526 1.342 . S
N527 N528 1.388 . S
N528 Co511 1.993 . S
N528 N527 1.388 . S
N528 C529 1.346 . S
C529 N528 1.346 . S
C529 C530 1.396 . S
C529 C539 1.510 . S
C530 C526 1.401 . S
C530 C529 1.396 . S
C531 C526 1.499 . S
C531 H532 0.959 . S
C531 H533 0.960 . S
C531 H534 0.961 . S
H532 C531 0.959 . S
H533 C531 0.960 . S
H534 C531 0.961 . S
O535 Co510 1.967 . S
O535 C543 1.258 . S
O536 Co511 1.941 . S
O536 C543 1.266 . S
H537 C539 0.959 . S
H538 C539 0.961 . S
C539 C529 1.510 . S
C539 H537 0.959 . S
C539 H538 0.961 . S
C539 H540 0.960 . S
H540 C539 0.960 . S
H541 N521 0.862 . S
O542 Co510 1.920 . S
O542 C515 1.289 . S
C543 O535 1.258 . S
C543 O536 1.266 . S
Co544 O547 1.970 . S
Co544 N561 1.989 . S
Co544 O569 1.967 . S
Co544 O576 1.920 . S
Co545 O548 1.966 . S
Co545 N554 2.022 . S
Co545 N562 1.993 . S
Co545 O570 1.941 . S
C546 O547 1.258 . S
C546 O548 1.263 . S
O547 Co544 1.970 . S
O547 C546 1.258 . S
O548 Co545 1.966 . S
O548 C546 1.263 . S
C549 O550 1.235 . S
C549 O576 1.289 . S
O550 C549 1.235 . S
C551 C553 1.400 . S
C551 N554 1.351 . S
C551 C556 1.501 . S
C552 C553 1.387 . S
C552 N555 1.341 . S
C553 C551 1.400 . S
C553 C552 1.387 . S
N554 Co545 2.022 . S
N554 C551 1.351 . S
N554 N555 1.365 . S
N555 C552 1.341 . S
N555 N554 1.365 . S
N555 H575 0.862 . S
C556 C551 1.501 . S
C556 H557 0.961 . S
C556 H558 0.961 . S
C556 H559 0.960 . S
H557 C556 0.961 . S
H558 C556 0.961 . S
H559 C556 0.960 . S
C560 N561 1.342 . S
C560 C564 1.401 . S
C560 C565 1.499 . S
N561 Co544 1.989 . S
N561 C560 1.342 . S
N561 N562 1.388 . S
N562 Co545 1.993 . S
N562 N561 1.388 . S
N562 C563 1.346 . S
C563 N562 1.346 . S
C563 C564 1.396 . S
C563 C573 1.510 . S
C564 C560 1.401 . S
C564 C563 1.396 . S
C565 C560 1.499 . S
C565 H566 0.959 . S
C565 H567 0.960 . S
C565 H568 0.961 . S
H566 C565 0.959 . S
H567 C565 0.960 . S
H568 C565 0.961 . S
O569 Co544 1.967 . S
O569 C577 1.258 . S
O570 Co545 1.941 . S
O570 C577 1.266 . S
H571 C573 0.959 . S
H572 C573 0.961 . S
C573 C563 1.510 . S
C573 H571 0.959 . S
C573 H572 0.961 . S
C573 H574 0.960 . S
H574 C573 0.960 . S
H575 N555 0.862 . S
O576 Co544 1.920 . S
O576 C549 1.289 . S
C577 O569 1.258 . S
C577 O570 1.266 . S
Co578 O581 1.970 . S
Co578 N595 1.989 . S
Co578 O603 1.967 . S
Co578 O610 1.920 . S
Co579 O582 1.966 . S
Co579 N588 2.022 . S
Co579 N596 1.993 . S
Co579 O604 1.941 . S
C580 O581 1.258 . S
C580 O582 1.263 . S
O581 Co578 1.970 . S
O581 C580 1.258 . S
O582 Co579 1.966 . S
O582 C580 1.263 . S
C583 O584 1.235 . S
C583 O610 1.289 . S
O584 C583 1.235 . S
C585 C587 1.400 . S
C585 N588 1.351 . S
C585 C590 1.501 . S
C586 C587 1.387 . S
C586 N589 1.341 . S
C587 C585 1.400 . S
C587 C586 1.387 . S
N588 Co579 2.022 . S
N588 C585 1.351 . S
N588 N589 1.365 . S
N589 C586 1.341 . S
N589 N588 1.365 . S
N589 H609 0.862 . S
C590 C585 1.501 . S
C590 H591 0.961 . S
C590 H592 0.961 . S
C590 H593 0.960 . S
H591 C590 0.961 . S
H592 C590 0.961 . S
H593 C590 0.960 . S
C594 N595 1.342 . S
C594 C598 1.401 . S
C594 C599 1.499 . S
N595 Co578 1.989 . S
N595 C594 1.342 . S
N595 N596 1.388 . S
N596 Co579 1.993 . S
N596 N595 1.388 . S
N596 C597 1.346 . S
C597 N596 1.346 . S
C597 C598 1.396 . S
C597 C607 1.510 . S
C598 C594 1.401 . S
C598 C597 1.396 . S
C599 C594 1.499 . S
C599 H600 0.959 . S
C599 H601 0.960 . S
C599 H602 0.961 . S
H600 C599 0.959 . S
H601 C599 0.960 . S
H602 C599 0.961 . S
O603 Co578 1.967 . S
O603 C611 1.258 . S
O604 Co579 1.941 . S
O604 C611 1.266 . S
H605 C607 0.959 . S
H606 C607 0.961 . S
C607 C597 1.510 . S
C607 H605 0.959 . S
C607 H606 0.961 . S
C607 H608 0.960 . S
H608 C607 0.960 . S
H609 N589 0.862 . S
O610 Co578 1.920 . S
O610 C583 1.289 . S
C611 O603 1.258 . S
C611 O604 1.266 . S
Co612 O615 1.970 . S
Co612 N629 1.989 . S
Co612 O637 1.967 . S
Co612 O644 1.920 . S
Co613 O616 1.966 . S
Co613 N622 2.022 . S
Co613 N630 1.993 . S
Co613 O638 1.941 . S
C614 O615 1.258 . S
C614 O616 1.263 . S
O615 Co612 1.970 . S
O615 C614 1.258 . S
O616 Co613 1.966 . S
O616 C614 1.263 . S
C617 O618 1.235 . S
C617 O644 1.289 . S
O618 C617 1.235 . S
C619 C621 1.400 . S
C619 N622 1.351 . S
C619 C624 1.501 . S
C620 C621 1.387 . S
C620 N623 1.341 . S
C621 C619 1.400 . S
C621 C620 1.387 . S
N622 Co613 2.022 . S
N622 C619 1.351 . S
N622 N623 1.365 . S
N623 C620 1.341 . S
N623 N622 1.365 . S
N623 H643 0.862 . S
C624 C619 1.501 . S
C624 H625 0.961 . S
C624 H626 0.961 . S
C624 H627 0.960 . S
H625 C624 0.961 . S
H626 C624 0.961 . S
H627 C624 0.960 . S
C628 N629 1.342 . S
C628 C632 1.401 . S
C628 C633 1.499 . S
N629 Co612 1.989 . S
N629 C628 1.342 . S
N629 N630 1.388 . S
N630 Co613 1.993 . S
N630 N629 1.388 . S
N630 C631 1.346 . S
C631 N630 1.346 . S
C631 C632 1.396 . S
C631 C641 1.510 . S
C632 C628 1.401 . S
C632 C631 1.396 . S
C633 C628 1.499 . S
C633 H634 0.959 . S
C633 H635 0.960 . S
C633 H636 0.961 . S
H634 C633 0.959 . S
H635 C633 0.960 . S
H636 C633 0.961 . S
O637 Co612 1.967 . S
O637 C645 1.258 . S
O638 Co613 1.941 . S
O638 C645 1.266 . S
H639 C641 0.959 . S
H640 C641 0.961 . S
C641 C631 1.510 . S
C641 H639 0.959 . S
C641 H640 0.961 . S
C641 H642 0.960 . S
H642 C641 0.960 . S
H643 N623 0.862 . S
O644 Co612 1.920 . S
O644 C617 1.289 . S
C645 O637 1.258 . S
C645 O638 1.266 . S
Co646 O649 1.970 . S
Co646 N663 1.989 . S
Co646 O671 1.967 . S
Co646 O678 1.920 . S
Co647 O650 1.966 . S
Co647 N656 2.022 . S
Co647 N664 1.993 . S
Co647 O672 1.941 . S
C648 O649 1.258 . S
C648 O650 1.263 . S
O649 Co646 1.970 . S
O649 C648 1.258 . S
O650 Co647 1.966 . S
O650 C648 1.263 . S
C651 O652 1.235 . S
C651 O678 1.289 . S
O652 C651 1.235 . S
C653 C655 1.400 . S
C653 N656 1.351 . S
C653 C658 1.501 . S
C654 C655 1.387 . S
C654 N657 1.341 . S
C655 C653 1.400 . S
C655 C654 1.387 . S
N656 Co647 2.022 . S
N656 C653 1.351 . S
N656 N657 1.365 . S
N657 C654 1.341 . S
N657 N656 1.365 . S
N657 H677 0.862 . S
C658 C653 1.501 . S
C658 H659 0.961 . S
C658 H660 0.961 . S
C658 H661 0.960 . S
H659 C658 0.961 . S
H660 C658 0.961 . S
H661 C658 0.960 . S
C662 N663 1.342 . S
C662 C666 1.401 . S
C662 C667 1.499 . S
N663 Co646 1.989 . S
N663 C662 1.342 . S
N663 N664 1.388 . S
N664 Co647 1.993 . S
N664 N663 1.388 . S
N664 C665 1.346 . S
C665 N664 1.346 . S
C665 C666 1.396 . S
C665 C675 1.510 . S
C666 C662 1.401 . S
C666 C665 1.396 . S
C667 C662 1.499 . S
C667 H668 0.959 . S
C667 H669 0.960 . S
C667 H670 0.961 . S
H668 C667 0.959 . S
H669 C667 0.960 . S
H670 C667 0.961 . S
O671 Co646 1.967 . S
O671 C679 1.258 . S
O672 Co647 1.941 . S
O672 C679 1.266 . S
H673 C675 0.959 . S
H674 C675 0.961 . S
C675 C665 1.510 . S
C675 H673 0.959 . S
C675 H674 0.961 . S
C675 H676 0.960 . S
H676 C675 0.960 . S
H677 N657 0.862 . S
O678 Co646 1.920 . S
O678 C651 1.289 . S
C679 O671 1.258 . S
C679 O672 1.266 . S
Co680 O683 1.970 . S
Co680 N697 1.989 . S
Co680 O705 1.967 . S
Co680 O712 1.920 . S
Co681 O684 1.966 . S
Co681 N690 2.022 . S
Co681 N698 1.993 . S
Co681 O706 1.941 . S
C682 O683 1.258 . S
C682 O684 1.263 . S
O683 Co680 1.970 . S
O683 C682 1.258 . S
O684 Co681 1.966 . S
O684 C682 1.263 . S
C685 O686 1.235 . S
C685 O712 1.289 . S
O686 C685 1.235 . S
C687 C689 1.400 . S
C687 N690 1.351 . S
C687 C692 1.501 . S
C688 C689 1.387 . S
C688 N691 1.341 . S
C689 C687 1.400 . S
C689 C688 1.387 . S
N690 Co681 2.022 . S
N690 C687 1.351 . S
N690 N691 1.365 . S
N691 C688 1.341 . S
N691 N690 1.365 . S
N691 H711 0.862 . S
C692 C687 1.501 . S
C692 H693 0.961 . S
C692 H694 0.961 . S
C692 H695 0.960 . S
H693 C692 0.961 . S
H694 C692 0.961 . S
H695 C692 0.960 . S
C696 N697 1.342 . S
C696 C700 1.401 . S
C696 C701 1.499 . S
N697 Co680 1.989 . S
N697 C696 1.342 . S
N697 N698 1.388 . S
N698 Co681 1.993 . S
N698 N697 1.388 . S
N698 C699 1.346 . S
C699 N698 1.346 . S
C699 C700 1.396 . S
C699 C709 1.510 . S
C700 C696 1.401 . S
C700 C699 1.396 . S
C701 C696 1.499 . S
C701 H702 0.959 . S
C701 H703 0.960 . S
C701 H704 0.961 . S
H702 C701 0.959 . S
H703 C701 0.960 . S
H704 C701 0.961 . S
O705 Co680 1.967 . S
O705 C713 1.258 . S
O706 Co681 1.941 . S
O706 C713 1.266 . S
H707 C709 0.959 . S
H708 C709 0.961 . S
C709 C699 1.510 . S
C709 H707 0.959 . S
C709 H708 0.961 . S
C709 H710 0.960 . S
H710 C709 0.960 . S
H711 N691 0.862 . S
O712 Co680 1.920 . S
O712 C685 1.289 . S
C713 O705 1.258 . S
C713 O706 1.266 . S
Co714 O717 1.970 . S
Co714 N731 1.989 . S
Co714 O739 1.967 . S
Co714 O746 1.920 . S
Co715 O718 1.966 . S
Co715 N724 2.022 . S
Co715 N732 1.993 . S
Co715 O740 1.941 . S
C716 O717 1.258 . S
C716 O718 1.263 . S
O717 Co714 1.970 . S
O717 C716 1.258 . S
O718 Co715 1.966 . S
O718 C716 1.263 . S
C719 O720 1.235 . S
C719 O746 1.289 . S
O720 C719 1.235 . S
C721 C723 1.400 . S
C721 N724 1.351 . S
C721 C726 1.501 . S
C722 C723 1.387 . S
C722 N725 1.341 . S
C723 C721 1.400 . S
C723 C722 1.387 . S
N724 Co715 2.022 . S
N724 C721 1.351 . S
N724 N725 1.365 . S
N725 C722 1.341 . S
N725 N724 1.365 . S
N725 H745 0.862 . S
C726 C721 1.501 . S
C726 H727 0.961 . S
C726 H728 0.961 . S
C726 H729 0.960 . S
H727 C726 0.961 . S
H728 C726 0.961 . S
H729 C726 0.960 . S
C730 N731 1.342 . S
C730 C734 1.401 . S
C730 C735 1.499 . S
N731 Co714 1.989 . S
N731 C730 1.342 . S
N731 N732 1.388 . S
N732 Co715 1.993 . S
N732 N731 1.388 . S
N732 C733 1.346 . S
C733 N732 1.346 . S
C733 C734 1.396 . S
C733 C743 1.510 . S
C734 C730 1.401 . S
C734 C733 1.396 . S
C735 C730 1.499 . S
C735 H736 0.959 . S
C735 H737 0.960 . S
C735 H738 0.961 . S
H736 C735 0.959 . S
H737 C735 0.960 . S
H738 C735 0.961 . S
O739 Co714 1.967 . S
O739 C747 1.258 . S
O740 Co715 1.941 . S
O740 C747 1.266 . S
H741 C743 0.959 . S
H742 C743 0.961 . S
C743 C733 1.510 . S
C743 H741 0.959 . S
C743 H742 0.961 . S
C743 H744 0.960 . S
H744 C743 0.960 . S
H745 N725 0.862 . S
O746 Co714 1.920 . S
O746 C719 1.289 . S
C747 O739 1.258 . S
C747 O740 1.266 . S
Co748 O751 1.970 . S
Co748 N765 1.989 . S
Co748 O773 1.967 . S
Co748 O780 1.920 . S
Co749 O752 1.966 . S
Co749 N758 2.022 . S
Co749 N766 1.993 . S
Co749 O774 1.941 . S
C750 O751 1.258 . S
C750 O752 1.263 . S
O751 Co748 1.970 . S
O751 C750 1.258 . S
O752 Co749 1.966 . S
O752 C750 1.263 . S
C753 O754 1.235 . S
C753 O780 1.289 . S
O754 C753 1.235 . S
C755 C757 1.400 . S
C755 N758 1.351 . S
C755 C760 1.501 . S
C756 C757 1.387 . S
C756 N759 1.341 . S
C757 C755 1.400 . S
C757 C756 1.387 . S
N758 Co749 2.022 . S
N758 C755 1.351 . S
N758 N759 1.365 . S
N759 C756 1.341 . S
N759 N758 1.365 . S
N759 H779 0.862 . S
C760 C755 1.501 . S
C760 H761 0.961 . S
C760 H762 0.961 . S
C760 H763 0.960 . S
H761 C760 0.961 . S
H762 C760 0.961 . S
H763 C760 0.960 . S
C764 N765 1.342 . S
C764 C768 1.401 . S
C764 C769 1.499 . S
N765 Co748 1.989 . S
N765 C764 1.342 . S
N765 N766 1.388 . S
N766 Co749 1.993 . S
N766 N765 1.388 . S
N766 C767 1.346 . S
C767 N766 1.346 . S
C767 C768 1.396 . S
C767 C777 1.510 . S
C768 C764 1.401 . S
C768 C767 1.396 . S
C769 C764 1.499 . S
C769 H770 0.959 . S
C769 H771 0.960 . S
C769 H772 0.961 . S
H770 C769 0.959 . S
H771 C769 0.960 . S
H772 C769 0.961 . S
O773 Co748 1.967 . S
O773 C781 1.258 . S
O774 Co749 1.941 . S
O774 C781 1.266 . S
H775 C777 0.959 . S
H776 C777 0.961 . S
C777 C767 1.510 . S
C777 H775 0.959 . S
C777 H776 0.961 . S
C777 H778 0.960 . S
H778 C777 0.960 . S
H779 N759 0.862 . S
O780 Co748 1.920 . S
O780 C753 1.289 . S
C781 O773 1.258 . S
C781 O774 1.266 . S
Co782 O785 1.970 . S
Co782 N799 1.989 . S
Co782 O807 1.967 . S
Co782 O814 1.920 . S
Co783 O786 1.966 . S
Co783 N792 2.022 . S
Co783 N800 1.993 . S
Co783 O808 1.941 . S
C784 O785 1.258 . S
C784 O786 1.263 . S
O785 Co782 1.970 . S
O785 C784 1.258 . S
O786 Co783 1.966 . S
O786 C784 1.263 . S
C787 O788 1.235 . S
C787 O814 1.289 . S
O788 C787 1.235 . S
C789 C791 1.400 . S
C789 N792 1.351 . S
C789 C794 1.501 . S
C790 C791 1.387 . S
C790 N793 1.341 . S
C791 C789 1.400 . S
C791 C790 1.387 . S
N792 Co783 2.022 . S
N792 C789 1.351 . S
N792 N793 1.365 . S
N793 C790 1.341 . S
N793 N792 1.365 . S
N793 H813 0.862 . S
C794 C789 1.501 . S
C794 H795 0.961 . S
C794 H796 0.961 . S
C794 H797 0.960 . S
H795 C794 0.961 . S
H796 C794 0.961 . S
H797 C794 0.960 . S
C798 N799 1.342 . S
C798 C802 1.401 . S
C798 C803 1.499 . S
N799 Co782 1.989 . S
N799 C798 1.342 . S
N799 N800 1.388 . S
N800 Co783 1.993 . S
N800 N799 1.388 . S
N800 C801 1.346 . S
C801 N800 1.346 . S
C801 C802 1.396 . S
C801 C811 1.510 . S
C802 C798 1.401 . S
C802 C801 1.396 . S
C803 C798 1.499 . S
C803 H804 0.959 . S
C803 H805 0.960 . S
C803 H806 0.961 . S
H804 C803 0.959 . S
H805 C803 0.960 . S
H806 C803 0.961 . S
O807 Co782 1.967 . S
O807 C815 1.258 . S
O808 Co783 1.941 . S
O808 C815 1.266 . S
H809 C811 0.959 . S
H810 C811 0.961 . S
C811 C801 1.510 . S
C811 H809 0.959 . S
C811 H810 0.961 . S
C811 H812 0.960 . S
H812 C811 0.960 . S
H813 N793 0.862 . S
O814 Co782 1.920 . S
O814 C787 1.289 . S
C815 O807 1.258 . S
C815 O808 1.266 . S
C816 C817 1.369 1_565 S
C816 C818 1.419 . S
C816 H820 0.930 . S
C817 C816 1.369 1_545 S
C817 C826 1.429 . S
C818 C816 1.419 . S
C818 C819 1.363 . S
C818 H821 0.929 . S
C819 C818 1.363 . S
C819 C825 1.428 1_565 S
H820 C816 0.930 . S
H821 C818 0.929 . S
S822 N823 1.613 . S
S822 N824 1.610 . S
N823 S822 1.613 . S
N823 C826 1.350 . S
N824 S822 1.610 . S
N824 C825 1.351 . S
C825 C819 1.428 1_545 S
C825 N824 1.351 . S
C825 C826 1.434 . S
C826 C817 1.429 . S
C826 N823 1.350 . S
C826 C825 1.434 . S
C827 C828 1.369 . S
C827 C829 1.419 . S
C827 H831 0.930 . S
C828 C827 1.369 . S
C828 C837 1.429 . S
C829 C827 1.419 . S
C829 C830 1.363 . S
C829 H832 0.929 . S
C830 C829 1.363 . S
C830 C836 1.428 . S
H831 C827 0.930 . S
H832 C829 0.929 . S
S833 N834 1.613 . S
S833 N835 1.610 . S
N834 S833 1.613 . S
N834 C837 1.350 . S
N835 S833 1.610 . S
N835 C836 1.351 . S
C836 C830 1.428 . S
C836 N835 1.351 . S
C836 C837 1.434 . S
C837 C828 1.429 . S
C837 N834 1.350 . S
C837 C836 1.434 . S
C838 C839 1.369 1_655 S
C838 C840 1.419 . S
C838 H842 0.930 . S
C839 C838 1.369 1_455 S
C839 C848 1.429 . S
C840 C838 1.419 . S
C840 C841 1.363 . S
C840 H843 0.929 . S
C841 C840 1.363 . S
C841 C847 1.428 1_655 S
H842 C838 0.930 . S
H843 C840 0.929 . S
S844 N845 1.613 . S
S844 N846 1.610 . S
N845 S844 1.613 . S
N845 C848 1.350 . S
N846 S844 1.610 . S
N846 C847 1.351 . S
C847 C841 1.428 1_455 S
C847 N846 1.351 . S
C847 C848 1.434 . S
C848 C839 1.429 . S
C848 N845 1.350 . S
C848 C847 1.434 . S
C849 C850 1.372 1_655 S
C849 C851 1.414 . S
C849 H853 0.932 . S
C850 C849 1.372 1_455 S
C850 C859 1.429 . S
C851 C849 1.414 . S
C851 C852 1.363 . S
C851 H854 0.929 . S
C852 C851 1.363 . S
C852 C858 1.428 1_655 S
H853 C849 0.932 . S
H854 C851 0.929 . S
S855 N856 1.613 . S
S855 N857 1.610 . S
N856 S855 1.613 . S
N856 C859 1.350 . S
N857 S855 1.610 . S
N857 C858 1.351 . S
C858 C852 1.428 1_455 S
C858 N857 1.351 . S
C858 C859 1.434 . S
C859 C850 1.429 . S
C859 N856 1.350 . S
C859 C858 1.434 . S
C860 C861 1.401 . S
C860 C862 1.404 1_565 S
C860 H864 0.921 . S
C861 C860 1.401 . S
C861 C870 1.429 . S
C862 C860 1.404 1_545 S
C862 C863 1.363 . S
C862 H865 0.929 . S
C863 C862 1.363 . S
C863 C869 1.433 . S
H864 C860 0.921 . S
H865 C862 0.929 . S
S866 N867 1.613 . S
S866 N868 1.610 . S
N867 S866 1.613 . S
N867 C870 1.350 . S
N868 S866 1.610 . S
N868 C869 1.348 1_565 S
C869 C863 1.433 . S
C869 N868 1.348 1_545 S
C869 C870 1.432 1_545 S
C870 C861 1.429 . S
C870 N867 1.350 . S
C870 C869 1.432 1_565 S
C871 C872 1.369 . S
C871 C873 1.419 . S
C871 H875 0.930 . S
C872 C871 1.369 . S
C872 C881 1.429 . S
C873 C871 1.419 . S
C873 C874 1.363 . S
C873 H876 0.929 . S
C874 C873 1.363 . S
C874 C880 1.428 . S
H875 C871 0.930 . S
H876 C873 0.929 . S
S877 N878 1.613 . S
S877 N879 1.610 . S
N878 S877 1.613 . S
N878 C881 1.350 . S
N879 S877 1.610 . S
N879 C880 1.351 . S
C880 C874 1.428 . S
C880 N879 1.351 . S
C880 C881 1.434 . S
C881 C872 1.429 . S
C881 N878 1.350 . S
C881 C880 1.434 . S
C882 C883 1.369 . S
C882 C884 1.419 1_545 S
C882 H886 0.930 . S
C883 C882 1.369 . S
C883 C892 1.429 . S
C884 C882 1.419 1_565 S
C884 C885 1.363 . S
C884 H887 0.929 . S
C885 C884 1.363 . S
C885 C891 1.428 . S
H886 C882 0.930 . S
H887 C884 0.929 . S
S888 N889 1.613 . S
S888 N890 1.571 1_545 S
N889 S888 1.613 . S
N889 C892 1.350 . S
N890 S888 1.571 1_565 S
N890 C891 1.337 . S
C891 C885 1.428 . S
C891 N890 1.337 . S
C891 C892 1.434 1_565 S
C892 C883 1.429 . S
C892 N889 1.350 . S
C892 C891 1.434 1_545 S
C893 C894 1.369 . S
C893 C895 1.419 . S
C893 H897 0.930 . S
C894 C893 1.369 . S
C894 C903 1.429 . S
C895 C893 1.419 . S
C895 C896 1.363 . S
C895 H898 0.929 . S
C896 C895 1.363 . S
C896 C902 1.428 . S
H897 C893 0.930 . S
H898 C895 0.929 . S
S899 N900 1.613 . S
S899 N901 1.610 . S
N900 S899 1.613 . S
N900 C903 1.350 . S
N901 S899 1.610 . S
N901 C902 1.351 . S
C902 C896 1.428 . S
C902 N901 1.351 . S
C902 C903 1.434 . S
C903 C894 1.429 . S
C903 N900 1.350 . S
C903 C902 1.434 . S
C904 C905 1.369 . S
C904 C906 1.419 . S
C904 H908 0.930 . S
C905 C904 1.369 . S
C905 C914 1.429 1_655 S
C906 C904 1.419 . S
C906 C907 1.363 1_655 S
C906 H909 0.929 . S
C907 C906 1.363 1_455 S
C907 C913 1.428 . S
H908 C904 0.930 . S
H909 C906 0.929 . S
S910 N911 1.613 . S
S910 N912 1.610 . S
N911 S910 1.613 . S
N911 C914 1.350 . S
N912 S910 1.610 . S
N912 C913 1.351 . S
C913 C907 1.428 . S
C913 N912 1.351 . S
C913 C914 1.434 . S
C914 C905 1.429 1_455 S
C914 N911 1.350 . S
C914 C913 1.434 . S
C915 C916 1.369 . S
C915 C917 1.419 . S
C915 H919 0.930 . S
C916 C915 1.369 . S
C916 C925 1.429 1_655 S
C917 C915 1.419 . S
C917 C918 1.363 1_655 S
C917 H920 0.929 . S
C918 C917 1.363 1_455 S
C918 C924 1.428 . S
H919 C915 0.930 . S
H920 C917 0.929 . S
S921 N922 1.613 . S
S921 N923 1.610 . S
N922 S921 1.613 . S
N922 C925 1.350 . S
N923 S921 1.610 . S
N923 C924 1.351 . S
C924 C918 1.428 . S
C924 N923 1.351 . S
C924 C925 1.434 . S
C925 C916 1.429 1_455 S
C925 N922 1.350 . S
C925 C924 1.434 . S
C926 C927 1.369 . S
C926 C928 1.419 . S
C926 H930 0.930 . S
C927 C926 1.369 . S
C927 C936 1.429 1_545 S
C928 C926 1.419 . S
C928 C929 1.363 1_545 S
C928 H931 0.929 . S
C929 C928 1.363 1_565 S
C929 C935 1.428 . S
H930 C926 0.930 . S
H931 C928 0.929 . S
S932 N933 1.613 . S
S932 N934 1.610 . S
N933 S932 1.613 . S
N933 C936 1.350 . S
N934 S932 1.610 . S
N934 C935 1.351 . S
C935 C929 1.428 . S
C935 N934 1.351 . S
C935 C936 1.434 . S
C936 C927 1.429 1_565 S
C936 N933 1.350 . S
C936 C935 1.434 . S
C937 C938 1.369 . S
C937 C939 1.419 . S
C937 H941 0.930 . S
C938 C937 1.369 . S
C938 C947 1.429 . S
C939 C937 1.419 . S
C939 C940 1.363 . S
C939 H942 0.929 . S
C940 C939 1.363 . S
C940 C946 1.428 . S
H941 C937 0.930 . S
H942 C939 0.929 . S
S943 N944 1.613 . S
S943 N945 1.610 . S
N944 S943 1.613 . S
N944 C947 1.350 . S
N945 S943 1.610 . S
N945 C946 1.351 . S
C946 C940 1.428 . S
C946 N945 1.351 . S
C946 C947 1.434 . S
C947 C938 1.429 . S
C947 N944 1.350 . S
C947 C946 1.434 . S
C948 C949 1.369 . S
C948 C950 1.419 . S
C948 H952 0.930 . S
C949 C948 1.369 . S
C949 C958 1.429 . S
C950 C948 1.419 . S
C950 C951 1.363 . S
C950 H953 0.929 . S
C951 C950 1.363 . S
C951 C957 1.428 . S
H952 C948 0.930 . S
H953 C950 0.929 . S
S954 N955 1.613 . S
S954 N956 1.610 . S
N955 S954 1.613 . S
N955 C958 1.350 . S
N956 S954 1.610 . S
N956 C957 1.351 . S
C957 C951 1.428 . S
C957 N956 1.351 . S
C957 C958 1.434 . S
C958 C949 1.429 . S
C958 N955 1.350 . S
C958 C957 1.434 . S
C959 C960 1.369 . S
C959 C961 1.419 . S
C959 H963 0.930 . S
C960 C959 1.369 . S
C960 C969 1.429 . S
C961 C959 1.419 . S
C961 C962 1.363 . S
C961 H964 0.929 . S
C962 C961 1.363 . S
C962 C968 1.428 . S
H963 C959 0.930 . S
H964 C961 0.929 . S
S965 N966 1.613 . S
S965 N967 1.610 . S
N966 S965 1.613 . S
N966 C969 1.350 . S
N967 S965 1.610 . S
N967 C968 1.351 . S
C968 C962 1.428 . S
C968 N967 1.351 . S
C968 C969 1.434 . S
C969 C960 1.429 . S
C969 N966 1.350 . S
C969 C968 1.434 . S
C970 C971 1.369 . S
C970 C972 1.419 . S
C970 H974 0.930 . S
C971 C970 1.369 . S
C971 C980 1.429 . S
C972 C970 1.419 . S
C972 C973 1.363 . S
C972 H975 0.929 . S
C973 C972 1.363 . S
C973 C979 1.428 . S
H974 C970 0.930 . S
H975 C972 0.929 . S
S976 N977 1.613 . S
S976 N978 1.610 . S
N977 S976 1.613 . S
N977 C980 1.350 . S
N978 S976 1.610 . S
N978 C979 1.351 . S
C979 C973 1.428 . S
C979 N978 1.351 . S
C979 C980 1.434 . S
C980 C971 1.429 . S
C980 N977 1.350 . S
C980 C979 1.434 . S
C981 C982 1.369 . S
C981 C983 1.419 . S
C981 H985 0.930 . S
C982 C981 1.369 . S
C982 C991 1.429 . S
C983 C981 1.419 . S
C983 C984 1.363 . S
C983 H986 0.929 . S
C984 C983 1.363 . S
C984 C990 1.428 . S
H985 C981 0.930 . S
H986 C983 0.929 . S
S987 N988 1.613 . S
S987 N989 1.610 . S
N988 S987 1.613 . S
N988 C991 1.350 . S
N989 S987 1.610 . S
N989 C990 1.351 . S
C990 C984 1.428 . S
C990 N989 1.351 . S
C990 C991 1.434 . S
C991 C982 1.429 . S
C991 N988 1.350 . S
C991 C990 1.434 . S
C992 C993 1.369 . S
C992 C994 1.419 . S
C992 H996 0.930 . S
C993 C992 1.369 . S
C993 C1002 1.429 . S
C994 C992 1.419 . S
C994 C995 1.363 . S
C994 H997 0.929 . S
C995 C994 1.363 . S
C995 C1001 1.428 . S
H996 C992 0.930 . S
H997 C994 0.929 . S
S998 N999 1.613 . S
S998 N1000 1.610 . S
N999 S998 1.613 . S
N999 C1002 1.350 . S
N1000 S998 1.610 . S
N1000 C1001 1.351 . S
C1001 C995 1.428 . S
C1001 N1000 1.351 . S
C1001 C1002 1.434 . S
C1002 C993 1.429 . S
C1002 N999 1.350 . S
C1002 C1001 1.434 . S
C1003 C1004 1.369 . S
C1003 C1005 1.419 . S
C1003 H1007 0.930 . S
C1004 C1003 1.369 . S
C1004 C1013 1.429 . S
C1005 C1003 1.419 . S
C1005 C1006 1.363 . S
C1005 H1008 0.929 . S
C1006 C1005 1.363 . S
C1006 C1012 1.428 . S
H1007 C1003 0.930 . S
H1008 C1005 0.929 . S
S1009 N1010 1.613 . S
S1009 N1011 1.610 . S
N1010 S1009 1.613 . S
N1010 C1013 1.350 . S
N1011 S1009 1.610 . S
N1011 C1012 1.351 . S
C1012 C1006 1.428 . S
C1012 N1011 1.351 . S
C1012 C1013 1.434 . S
C1013 C1004 1.429 . S
C1013 N1010 1.350 . S
C1013 C1012 1.434 . S
C1014 C1015 1.369 . S
C1014 C1016 1.419 . S
C1014 H1018 0.930 . S
C1015 C1014 1.369 . S
C1015 C1024 1.429 . S
C1016 C1014 1.419 . S
C1016 C1017 1.363 . S
C1016 H1019 0.929 . S
C1017 C1016 1.363 . S
C1017 C1023 1.428 . S
H1018 C1014 0.930 . S
H1019 C1016 0.929 . S
S1020 N1021 1.613 . S
S1020 N1022 1.610 . S
N1021 S1020 1.613 . S
N1021 C1024 1.350 . S
N1022 S1020 1.610 . S
N1022 C1023 1.351 . S
C1023 C1017 1.428 . S
C1023 N1022 1.351 . S
C1023 C1024 1.434 . S
C1024 C1015 1.429 . S
C1024 N1021 1.350 . S
C1024 C1023 1.434 . S
C1025 C1026 1.369 . S
C1025 C1027 1.419 . S
C1025 H1029 0.930 . S
C1026 C1025 1.369 . S
C1026 C1035 1.429 . S
C1027 C1025 1.419 . S
C1027 C1028 1.363 . S
C1027 H1030 0.929 . S
C1028 C1027 1.363 . S
C1028 C1034 1.428 . S
H1029 C1025 0.930 . S
H1030 C1027 0.929 . S
S1031 N1032 1.613 . S
S1031 N1033 1.610 . S
N1032 S1031 1.613 . S
N1032 C1035 1.350 . S
N1033 S1031 1.610 . S
N1033 C1034 1.351 . S
C1034 C1028 1.428 . S
C1034 N1033 1.351 . S
C1034 C1035 1.434 . S
C1035 C1026 1.429 . S
C1035 N1032 1.350 . S
C1035 C1034 1.434 . S
C1036 C1037 1.369 . S
C1036 C1038 1.419 . S
C1036 H1040 0.930 . S
C1037 C1036 1.369 . S
C1037 C1046 1.429 . S
C1038 C1036 1.419 . S
C1038 C1039 1.363 . S
C1038 H1041 0.929 . S
C1039 C1038 1.363 . S
C1039 C1045 1.428 . S
H1040 C1036 0.930 . S
H1041 C1038 0.929 . S
S1042 N1043 1.613 . S
S1042 N1044 1.610 . S
N1043 S1042 1.613 . S
N1043 C1046 1.350 . S
N1044 S1042 1.610 . S
N1044 C1045 1.351 . S
C1045 C1039 1.428 . S
C1045 N1044 1.351 . S
C1045 C1046 1.434 . S
C1046 C1037 1.429 . S
C1046 N1043 1.350 . S
C1046 C1045 1.434 . S
C1047 C1048 1.369 . S
C1047 C1049 1.419 . S
C1047 H1051 0.930 . S
C1048 C1047 1.369 . S
C1048 C1057 1.429 . S
C1049 C1047 1.419 . S
C1049 C1050 1.363 . S
C1049 H1052 0.929 . S
C1050 C1049 1.363 . S
C1050 C1056 1.428 . S
H1051 C1047 0.930 . S
H1052 C1049 0.929 . S
S1053 N1054 1.613 . S
S1053 N1055 1.610 . S
N1054 S1053 1.613 . S
N1054 C1057 1.350 . S
N1055 S1053 1.610 . S
N1055 C1056 1.351 . S
C1056 C1050 1.428 . S
C1056 N1055 1.351 . S
C1056 C1057 1.434 . S
C1057 C1048 1.429 . S
C1057 N1054 1.350 . S
C1057 C1056 1.434 . S
C1058 C1059 1.369 . S
C1058 C1060 1.419 . S
C1058 H1062 0.930 . S
C1059 C1058 1.369 . S
C1059 C1068 1.429 . S
C1060 C1058 1.419 . S
C1060 C1061 1.363 . S
C1060 H1063 0.929 . S
C1061 C1060 1.363 . S
C1061 C1067 1.428 . S
H1062 C1058 0.930 . S
H1063 C1060 0.929 . S
S1064 N1065 1.613 . S
S1064 N1066 1.610 . S
N1065 S1064 1.613 . S
N1065 C1068 1.350 . S
N1066 S1064 1.610 . S
N1066 C1067 1.351 . S
C1067 C1061 1.428 . S
C1067 N1066 1.351 . S
C1067 C1068 1.434 . S
C1068 C1059 1.429 . S
C1068 N1065 1.350 . S
C1068 C1067 1.434 . S
C1069 C1070 1.369 . S
C1069 C1071 1.419 . S
C1069 H1073 0.930 . S
C1070 C1069 1.369 . S
C1070 C1079 1.429 . S
C1071 C1069 1.419 . S
C1071 C1072 1.363 . S
C1071 H1074 0.929 . S
C1072 C1071 1.363 . S
C1072 C1078 1.428 . S
H1073 C1069 0.930 . S
H1074 C1071 0.929 . S
S1075 N1076 1.613 . S
S1075 N1077 1.610 . S
N1076 S1075 1.613 . S
N1076 C1079 1.350 . S
N1077 S1075 1.610 . S
N1077 C1078 1.351 . S
C1078 C1072 1.428 . S
C1078 N1077 1.351 . S
C1078 C1079 1.434 . S
C1079 C1070 1.429 . S
C1079 N1076 1.350 . S
C1079 C1078 1.434 . S
C1080 C1081 1.369 . S
C1080 C1082 1.419 1_545 S
C1080 H1084 0.930 . S
C1081 C1080 1.369 . S
C1081 C1090 1.429 . S
C1082 C1080 1.419 1_565 S
C1082 C1083 1.363 . S
C1082 H1085 0.929 . S
C1083 C1082 1.363 . S
C1083 C1089 1.428 . S
H1084 C1080 0.930 . S
H1085 C1082 0.929 . S
S1086 N1087 1.613 . S
S1086 N1088 1.601 1_545 S
N1087 S1086 1.613 . S
N1087 C1090 1.350 . S
N1088 S1086 1.601 1_565 S
N1088 C1089 1.351 . S
C1089 C1083 1.428 . S
C1089 N1088 1.351 . S
C1089 C1090 1.434 1_565 S
C1090 C1081 1.429 . S
C1090 N1087 1.350 . S
C1090 C1089 1.434 1_545 S
C1091 C1092 1.369 . S
C1091 C1093 1.419 . S
C1091 H1095 0.930 . S
C1092 C1091 1.369 . S
C1092 C1101 1.429 . S
C1093 C1091 1.419 . S
C1093 C1094 1.363 . S
C1093 H1096 0.929 . S
C1094 C1093 1.363 . S
C1094 C1100 1.428 . S
H1095 C1091 0.930 . S
H1096 C1093 0.929 . S
S1097 N1098 1.613 . S
S1097 N1099 1.610 . S
N1098 S1097 1.613 . S
N1098 C1101 1.350 . S
N1099 S1097 1.610 . S
N1099 C1100 1.351 . S
C1100 C1094 1.428 . S
C1100 N1099 1.351 . S
C1100 C1101 1.434 . S
C1101 C1092 1.429 . S
C1101 N1098 1.350 . S
C1101 C1100 1.434 . S
C1102 C1103 1.369 . S
C1102 C1104 1.419 1_455 S
C1102 H1106 0.930 . S
C1103 C1102 1.369 . S
C1103 C1112 1.429 . S
C1104 C1102 1.419 1_655 S
C1104 C1105 1.363 . S
C1104 H1107 0.929 . S
C1105 C1104 1.363 . S
C1105 C1111 1.428 . S
H1106 C1102 0.930 . S
H1107 C1104 0.929 . S
S1108 N1109 1.613 1_655 S
S1108 N1110 1.610 . S
N1109 S1108 1.613 1_455 S
N1109 C1112 1.350 . S
N1110 S1108 1.610 . S
N1110 C1111 1.351 . S
C1111 C1105 1.428 . S
C1111 N1110 1.351 . S
C1111 C1112 1.434 1_655 S
C1112 C1103 1.429 . S
C1112 N1109 1.350 . S
C1112 C1111 1.434 1_455 S
C1113 C1114 1.369 . S
C1113 C1115 1.419 1_565 S
C1113 H1117 0.930 . S
C1114 C1113 1.369 . S
C1114 C1123 1.429 . S
C1115 C1113 1.419 1_545 S
C1115 C1116 1.363 . S
C1115 H1118 0.929 . S
C1116 C1115 1.363 . S
C1116 C1122 1.428 . S
H1117 C1113 0.930 . S
H1118 C1115 0.929 . S
S1119 N1120 1.613 . S
S1119 N1121 1.593 1_565 S
N1120 S1119 1.613 . S
N1120 C1123 1.350 . S
N1121 S1119 1.593 1_545 S
N1121 C1122 1.350 . S
C1122 C1116 1.428 . S
C1122 N1121 1.350 . S
C1122 C1123 1.434 1_545 S
C1123 C1114 1.429 . S
C1123 N1120 1.350 . S
C1123 C1122 1.434 1_565 S
C1124 C1125 1.369 . S
C1124 C1126 1.419 . S
C1124 H1128 0.930 . S
C1125 C1124 1.369 . S
C1125 C1134 1.429 . S
C1126 C1124 1.419 . S
C1126 C1127 1.363 . S
C1126 H1129 0.929 . S
C1127 C1126 1.363 . S
C1127 C1133 1.428 . S
H1128 C1124 0.930 . S
H1129 C1126 0.929 . S
S1130 N1131 1.613 . S
S1130 N1132 1.610 . S
N1131 S1130 1.613 . S
N1131 C1134 1.350 . S
N1132 S1130 1.610 . S
N1132 C1133 1.351 . S
C1133 C1127 1.428 . S
C1133 N1132 1.351 . S
C1133 C1134 1.434 . S
C1134 C1125 1.429 . S
C1134 N1131 1.350 . S
C1134 C1133 1.434 . S
C1135 C1136 1.369 . S
C1135 C1137 1.419 1_655 S
C1135 H1139 0.930 . S
C1136 C1135 1.369 . S
C1136 C1145 1.429 . S
C1137 C1135 1.419 1_455 S
C1137 C1138 1.363 . S
C1137 H1140 0.929 . S
C1138 C1137 1.363 . S
C1138 C1144 1.428 . S
H1139 C1135 0.930 . S
H1140 C1137 0.929 . S
S1141 N1142 1.613 . S
S1141 N1143 1.610 1_655 S
N1142 S1141 1.613 . S
N1142 C1145 1.350 . S
N1143 S1141 1.610 1_455 S
N1143 C1144 1.351 . S
C1144 C1138 1.428 . S
C1144 N1143 1.351 . S
C1144 C1145 1.434 1_455 S
C1145 C1136 1.429 . S
C1145 N1142 1.350 . S
C1145 C1144 1.434 1_655 S
C1146 C1147 1.369 . S
C1146 C1148 1.419 1_565 S
C1146 H1150 0.930 . S
C1147 C1146 1.369 . S
C1147 C1156 1.429 . S
C1148 C1146 1.419 1_545 S
C1148 C1149 1.363 . S
C1148 H1151 0.929 . S
C1149 C1148 1.363 . S
C1149 C1155 1.428 . S
H1150 C1146 0.930 . S
H1151 C1148 0.929 . S
S1152 N1153 1.613 1_545 S
S1152 N1154 1.610 . S
N1153 S1152 1.613 1_565 S
N1153 C1156 1.350 . S
N1154 S1152 1.610 . S
N1154 C1155 1.351 . S
C1155 C1149 1.428 . S
C1155 N1154 1.351 . S
C1155 C1156 1.434 1_545 S
C1156 C1147 1.429 . S
C1156 N1153 1.350 . S
C1156 C1155 1.434 1_565 S
C1157 C1158 1.369 . S
C1157 C1159 1.419 . S
C1157 H1161 0.930 . S
C1158 C1157 1.369 . S
C1158 C1167 1.429 . S
C1159 C1157 1.419 . S
C1159 C1160 1.363 . S
C1159 H1162 0.929 . S
C1160 C1159 1.363 . S
C1160 C1166 1.428 . S
H1161 C1157 0.930 . S
H1162 C1159 0.929 . S
S1163 N1164 1.613 . S
S1163 N1165 1.610 . S
N1164 S1163 1.613 . S
N1164 C1167 1.350 . S
N1165 S1163 1.610 . S
N1165 C1166 1.351 . S
C1166 C1160 1.428 . S
C1166 N1165 1.351 . S
C1166 C1167 1.434 . S
C1167 C1158 1.429 . S
C1167 N1164 1.350 . S
C1167 C1166 1.434 . S
C1168 C1169 1.369 . S
C1168 C1170 1.419 1_455 S
C1168 H1172 0.930 . S
C1169 C1168 1.369 . S
C1169 C1178 1.429 . S
C1170 C1168 1.419 1_655 S
C1170 C1171 1.363 . S
C1170 H1173 0.929 . S
C1171 C1170 1.363 . S
C1171 C1177 1.428 . S
H1172 C1168 0.930 . S
H1173 C1170 0.929 . S
S1174 N1175 1.580 1_655 S
S1174 N1176 1.610 . S
N1175 S1174 1.580 1_455 S
N1175 C1178 1.346 . S
N1176 S1174 1.610 . S
N1176 C1177 1.351 . S
C1177 C1171 1.428 . S
C1177 N1176 1.351 . S
C1177 C1178 1.434 1_655 S
C1178 C1169 1.429 . S
C1178 N1175 1.346 . S
C1178 C1177 1.434 1_455 S
C1179 C1180 1.369 . S
C1179 C1181 1.419 1_545 S
C1179 H1183 0.930 . S
C1180 C1179 1.369 . S
C1180 C1189 1.429 . S
C1181 C1179 1.419 1_565 S
C1181 C1182 1.363 . S
C1181 H1184 0.929 . S
C1182 C1181 1.363 . S
C1182 C1188 1.428 . S
H1183 C1179 0.930 . S
H1184 C1181 0.929 . S
S1185 N1186 1.613 1_565 S
S1185 N1187 1.610 . S
N1186 S1185 1.613 1_545 S
N1186 C1189 1.350 . S
N1187 S1185 1.610 . S
N1187 C1188 1.351 . S
C1188 C1182 1.428 . S
C1188 N1187 1.351 . S
C1188 C1189 1.434 1_565 S
C1189 C1180 1.429 . S
C1189 N1186 1.350 . S
C1189 C1188 1.434 1_545 S
C1190 C1191 1.369 . S
C1190 C1192 1.419 . S
C1190 H1194 0.930 . S
C1191 C1190 1.369 . S
C1191 C1200 1.429 . S
C1192 C1190 1.419 . S
C1192 C1193 1.363 . S
C1192 H1195 0.929 . S
C1193 C1192 1.363 . S
C1193 C1199 1.428 . S
H1194 C1190 0.930 . S
H1195 C1192 0.929 . S
S1196 N1197 1.613 . S
S1196 N1198 1.610 . S
N1197 S1196 1.613 . S
N1197 C1200 1.350 . S
N1198 S1196 1.610 . S
N1198 C1199 1.351 . S
C1199 C1193 1.428 . S
C1199 N1198 1.351 . S
C1199 C1200 1.434 . S
C1200 C1191 1.429 . S
C1200 N1197 1.350 . S
C1200 C1199 1.434 . S
C1201 C1202 1.369 . S
C1201 C1203 1.419 1_455 S
C1201 H1205 0.930 . S
C1202 C1201 1.369 . S
C1202 C1211 1.429 . S
C1203 C1201 1.419 1_655 S
C1203 C1204 1.363 . S
C1203 H1206 0.929 . S
C1204 C1203 1.363 . S
C1204 C1210 1.428 . S
H1205 C1201 0.930 . S
H1206 C1203 0.929 . S
S1207 N1208 1.613 . S
S1207 N1209 1.610 1_455 S
N1208 S1207 1.613 . S
N1208 C1211 1.350 . S
N1209 S1207 1.610 1_655 S
N1209 C1210 1.351 . S
C1210 C1204 1.428 . S
C1210 N1209 1.351 . S
C1210 C1211 1.434 1_655 S
C1211 C1202 1.429 . S
C1211 N1208 1.350 . S
C1211 C1210 1.434 1_455 S
C1212 C1213 1.369 . S
C1212 C1214 1.419 . S
C1212 H1216 0.930 . S
C1213 C1212 1.369 . S
C1213 C1222 1.429 . S
C1214 C1212 1.419 . S
C1214 C1215 1.363 . S
C1214 H1217 0.929 . S
C1215 C1214 1.363 . S
C1215 C1221 1.428 . S
H1216 C1212 0.930 . S
H1217 C1214 0.929 . S
S1218 N1219 1.613 . S
S1218 N1220 1.610 . S
N1219 S1218 1.613 . S
N1219 C1222 1.350 . S
N1220 S1218 1.610 . S
N1220 C1221 1.351 . S
C1221 C1215 1.428 . S
C1221 N1220 1.351 . S
C1221 C1222 1.434 . S
C1222 C1213 1.429 . S
C1222 N1219 1.350 . S
C1222 C1221 1.434 . S
C1223 C1224 1.369 . S
C1223 C1225 1.419 . S
C1223 H1227 0.930 . S
C1224 C1223 1.369 . S
C1224 C1233 1.429 . S
C1225 C1223 1.419 . S
C1225 C1226 1.363 . S
C1225 H1228 0.929 . S
C1226 C1225 1.363 . S
C1226 C1232 1.428 . S
H1227 C1223 0.930 . S
H1228 C1225 0.929 . S
S1229 N1230 1.613 . S
S1229 N1231 1.610 . S
N1230 S1229 1.613 . S
N1230 C1233 1.350 . S
N1231 S1229 1.610 . S
N1231 C1232 1.351 . S
C1232 C1226 1.428 . S
C1232 N1231 1.351 . S
C1232 C1233 1.434 . S
C1233 C1224 1.429 . S
C1233 N1230 1.350 . S
C1233 C1232 1.434 . S
C1234 C1235 1.369 . S
C1234 C1236 1.419 . S
C1234 H1238 0.930 . S
C1235 C1234 1.369 . S
C1235 C1244 1.429 . S
C1236 C1234 1.419 . S
C1236 C1237 1.363 . S
C1236 H1239 0.929 . S
C1237 C1236 1.363 . S
C1237 C1243 1.428 . S
H1238 C1234 0.930 . S
H1239 C1236 0.929 . S
S1240 N1241 1.613 . S
S1240 N1242 1.610 . S
N1241 S1240 1.613 . S
N1241 C1244 1.350 . S
N1242 S1240 1.610 . S
N1242 C1243 1.351 . S
C1243 C1237 1.428 . S
C1243 N1242 1.351 . S
C1243 C1244 1.434 . S
C1244 C1235 1.429 . S
C1244 N1241 1.350 . S
C1244 C1243 1.434 . S
C1245 C1246 1.369 . S
C1245 C1247 1.419 . S
C1245 H1249 0.930 . S
C1246 C1245 1.369 . S
C1246 C1255 1.429 . S
C1247 C1245 1.419 . S
C1247 C1248 1.363 . S
C1247 H1250 0.929 . S
C1248 C1247 1.363 . S
C1248 C1254 1.428 . S
H1249 C1245 0.930 . S
H1250 C1247 0.929 . S
S1251 N1252 1.613 . S
S1251 N1253 1.610 . S
N1252 S1251 1.613 . S
N1252 C1255 1.350 . S
N1253 S1251 1.610 . S
N1253 C1254 1.351 . S
C1254 C1248 1.428 . S
C1254 N1253 1.351 . S
C1254 C1255 1.434 . S
C1255 C1246 1.429 . S
C1255 N1252 1.350 . S
C1255 C1254 1.434 . S
C1256 C1257 1.369 . S
C1256 C1258 1.419 . S
C1256 H1260 0.930 . S
C1257 C1256 1.369 . S
C1257 C1266 1.429 . S
C1258 C1256 1.419 . S
C1258 C1259 1.363 . S
C1258 H1261 0.929 . S
C1259 C1258 1.363 . S
C1259 C1265 1.428 . S
H1260 C1256 0.930 . S
H1261 C1258 0.929 . S
S1262 N1263 1.613 . S
S1262 N1264 1.610 . S
N1263 S1262 1.613 . S
N1263 C1266 1.350 . S
N1264 S1262 1.610 . S
N1264 C1265 1.351 . S
C1265 C1259 1.428 . S
C1265 N1264 1.351 . S
C1265 C1266 1.434 . S
C1266 C1257 1.429 . S
C1266 N1263 1.350 . S
C1266 C1265 1.434 . S
C1267 C1268 1.369 . S
C1267 C1269 1.419 . S
C1267 H1271 0.930 . S
C1268 C1267 1.369 . S
C1268 C1277 1.429 . S
C1269 C1267 1.419 . S
C1269 C1270 1.363 . S
C1269 H1272 0.929 . S
C1270 C1269 1.363 . S
C1270 C1276 1.428 . S
H1271 C1267 0.930 . S
H1272 C1269 0.929 . S
S1273 N1274 1.613 . S
S1273 N1275 1.610 . S
N1274 S1273 1.613 . S
N1274 C1277 1.350 . S
N1275 S1273 1.610 . S
N1275 C1276 1.351 . S
C1276 C1270 1.428 . S
C1276 N1275 1.351 . S
C1276 C1277 1.434 . S
C1277 C1268 1.429 . S
C1277 N1274 1.350 . S
C1277 C1276 1.434 . S
C1278 C1279 1.369 . S
C1278 C1280 1.419 . S
C1278 H1282 0.930 . S
C1279 C1278 1.369 . S
C1279 C1288 1.429 . S
C1280 C1278 1.419 . S
C1280 C1281 1.363 . S
C1280 H1283 0.929 . S
C1281 C1280 1.363 . S
C1281 C1287 1.428 . S
H1282 C1278 0.930 . S
H1283 C1280 0.929 . S
S1284 N1285 1.613 . S
S1284 N1286 1.610 . S
N1285 S1284 1.613 . S
N1285 C1288 1.350 . S
N1286 S1284 1.610 . S
N1286 C1287 1.351 . S
C1287 C1281 1.428 . S
C1287 N1286 1.351 . S
C1287 C1288 1.434 . S
C1288 C1279 1.429 . S
C1288 N1285 1.350 . S
C1288 C1287 1.434 . S
C1289 C1290 1.369 . S
C1289 C1291 1.419 . S
C1289 H1293 0.930 . S
C1290 C1289 1.369 . S
C1290 C1299 1.429 . S
C1291 C1289 1.419 . S
C1291 C1292 1.363 . S
C1291 H1294 0.929 . S
C1292 C1291 1.363 . S
C1292 C1298 1.428 . S
H1293 C1289 0.930 . S
H1294 C1291 0.929 . S
S1295 N1296 1.613 . S
S1295 N1297 1.610 . S
N1296 S1295 1.613 . S
N1296 C1299 1.350 . S
N1297 S1295 1.610 . S
N1297 C1298 1.351 . S
C1298 C1292 1.428 . S
C1298 N1297 1.351 . S
C1298 C1299 1.434 . S
C1299 C1290 1.429 . S
C1299 N1296 1.350 . S
C1299 C1298 1.434 . S
C1300 C1301 1.369 . S
C1300 C1302 1.419 . S
C1300 H1304 0.930 . S
C1301 C1300 1.369 . S
C1301 C1310 1.429 . S
C1302 C1300 1.419 . S
C1302 C1303 1.363 . S
C1302 H1305 0.929 . S
C1303 C1302 1.363 . S
C1303 C1309 1.428 . S
H1304 C1300 0.930 . S
H1305 C1302 0.929 . S
S1306 N1307 1.613 . S
S1306 N1308 1.610 . S
N1307 S1306 1.613 . S
N1307 C1310 1.350 . S
N1308 S1306 1.610 . S
N1308 C1309 1.351 . S
C1309 C1303 1.428 . S
C1309 N1308 1.351 . S
C1309 C1310 1.434 . S
C1310 C1301 1.429 . S
C1310 N1307 1.350 . S
C1310 C1309 1.434 . S
C1311 C1312 1.369 . S
C1311 C1313 1.419 . S
C1311 H1315 0.930 . S
C1312 C1311 1.369 . S
C1312 C1321 1.429 . S
C1313 C1311 1.419 . S
C1313 C1314 1.363 . S
C1313 H1316 0.929 . S
C1314 C1313 1.363 . S
C1314 C1320 1.428 . S
H1315 C1311 0.930 . S
H1316 C1313 0.929 . S
S1317 N1318 1.613 . S
S1317 N1319 1.610 . S
N1318 S1317 1.613 . S
N1318 C1321 1.350 . S
N1319 S1317 1.610 . S
N1319 C1320 1.351 . S
C1320 C1314 1.428 . S
C1320 N1319 1.351 . S
C1320 C1321 1.434 . S
C1321 C1312 1.429 . S
C1321 N1318 1.350 . S
C1321 C1320 1.434 . S
C1322 C1323 1.369 . S
C1322 C1324 1.419 . S
C1322 H1326 0.930 . S
C1323 C1322 1.369 . S
C1323 C1332 1.429 . S
C1324 C1322 1.419 . S
C1324 C1325 1.363 . S
C1324 H1327 0.929 . S
C1325 C1324 1.363 . S
C1325 C1331 1.428 . S
H1326 C1322 0.930 . S
H1327 C1324 0.929 . S
S1328 N1329 1.613 . S
S1328 N1330 1.610 . S
N1329 S1328 1.613 . S
N1329 C1332 1.350 . S
N1330 S1328 1.610 . S
N1330 C1331 1.351 . S
C1331 C1325 1.428 . S
C1331 N1330 1.351 . S
C1331 C1332 1.434 . S
C1332 C1323 1.429 . S
C1332 N1329 1.350 . S
C1332 C1331 1.434 . S
C1333 C1334 1.369 . S
C1333 C1335 1.419 . S
C1333 H1337 0.930 . S
C1334 C1333 1.369 . S
C1334 C1343 1.429 . S
C1335 C1333 1.419 . S
C1335 C1336 1.363 . S
C1335 H1338 0.929 . S
C1336 C1335 1.363 . S
C1336 C1342 1.428 . S
H1337 C1333 0.930 . S
H1338 C1335 0.929 . S
S1339 N1340 1.613 . S
S1339 N1341 1.610 . S
N1340 S1339 1.613 . S
N1340 C1343 1.350 . S
N1341 S1339 1.610 . S
N1341 C1342 1.351 . S
C1342 C1336 1.428 . S
C1342 N1341 1.351 . S
C1342 C1343 1.434 . S
C1343 C1334 1.429 . S
C1343 N1340 1.350 . S
C1343 C1342 1.434 . S
C1344 C1345 1.369 . S
C1344 C1346 1.419 1_554 S
C1344 H1348 0.930 . S
C1345 C1344 1.369 . S
C1345 C1354 1.429 . S
C1346 C1344 1.419 1_556 S
C1346 C1347 1.363 . S
C1346 H1349 0.929 . S
C1347 C1346 1.363 . S
C1347 C1353 1.428 . S
H1348 C1344 0.930 . S
H1349 C1346 0.929 . S
S1350 N1351 1.615 1_556 S
S1350 N1352 1.608 . S
N1351 S1350 1.615 1_554 S
N1351 C1354 1.350 . S
N1352 S1350 1.608 . S
N1352 C1353 1.351 . S
C1353 C1347 1.428 . S
C1353 N1352 1.351 . S
C1353 C1354 1.434 1_556 S
C1354 C1345 1.429 . S
C1354 N1351 1.350 . S
C1354 C1353 1.434 1_554 S
C1355 C1356 1.369 . S
C1355 C1357 1.419 1_554 S
C1355 H1359 0.930 . S
C1356 C1355 1.369 . S
C1356 C1365 1.429 . S
C1357 C1355 1.419 1_556 S
C1357 C1358 1.363 . S
C1357 H1360 0.929 . S
C1358 C1357 1.363 . S
C1358 C1364 1.428 . S
H1359 C1355 0.930 . S
H1360 C1357 0.929 . S
S1361 N1362 1.615 1_556 S
S1361 N1363 1.608 . S
N1362 S1361 1.615 1_554 S
N1362 C1365 1.350 . S
N1363 S1361 1.608 . S
N1363 C1364 1.351 . S
C1364 C1358 1.428 . S
C1364 N1363 1.351 . S
C1364 C1365 1.434 1_556 S
C1365 C1356 1.429 . S
C1365 N1362 1.350 . S
C1365 C1364 1.434 1_554 S
C1366 C1367 1.369 . S
C1366 C1368 1.419 1_554 S
C1366 H1370 0.930 . S
C1367 C1366 1.369 . S
C1367 C1376 1.429 . S
C1368 C1366 1.419 1_556 S
C1368 C1369 1.363 . S
C1368 H1371 0.929 . S
C1369 C1368 1.363 . S
C1369 C1375 1.428 . S
H1370 C1366 0.930 . S
H1371 C1368 0.929 . S
S1372 N1373 1.615 1_556 S
S1372 N1374 1.608 . S
N1373 S1372 1.615 1_554 S
N1373 C1376 1.350 . S
N1374 S1372 1.608 . S
N1374 C1375 1.351 . S
C1375 C1369 1.428 . S
C1375 N1374 1.351 . S
C1375 C1376 1.434 1_556 S
C1376 C1367 1.429 . S
C1376 N1373 1.350 . S
C1376 C1375 1.434 1_554 S
C1377 C1378 1.369 . S
C1377 C1379 1.419 1_554 S
C1377 H1381 0.930 . S
C1378 C1377 1.369 . S
C1378 C1387 1.429 . S
C1379 C1377 1.419 1_556 S
C1379 C1380 1.363 . S
C1379 H1382 0.929 . S
C1380 C1379 1.363 . S
C1380 C1386 1.428 . S
H1381 C1377 0.930 . S
H1382 C1379 0.929 . S
S1383 N1384 1.615 1_556 S
S1383 N1385 1.608 . S
N1384 S1383 1.615 1_554 S
N1384 C1387 1.350 . S
N1385 S1383 1.608 . S
N1385 C1386 1.351 . S
C1386 C1380 1.428 . S
C1386 N1385 1.351 . S
C1386 C1387 1.434 1_556 S
C1387 C1378 1.429 . S
C1387 N1384 1.350 . S
C1387 C1386 1.434 1_554 S
C1388 C1389 1.369 . S
C1388 C1390 1.419 1_554 S
C1388 H1392 0.930 . S
C1389 C1388 1.369 . S
C1389 C1398 1.429 . S
C1390 C1388 1.419 1_556 S
C1390 C1391 1.363 . S
C1390 H1393 0.929 . S
C1391 C1390 1.363 . S
C1391 C1397 1.428 . S
H1392 C1388 0.930 . S
H1393 C1390 0.929 . S
S1394 N1395 1.615 1_556 S
S1394 N1396 1.608 . S
N1395 S1394 1.615 1_554 S
N1395 C1398 1.350 . S
N1396 S1394 1.608 . S
N1396 C1397 1.351 . S
C1397 C1391 1.428 . S
C1397 N1396 1.351 . S
C1397 C1398 1.434 1_556 S
C1398 C1389 1.429 . S
C1398 N1395 1.350 . S
C1398 C1397 1.434 1_554 S
C1399 C1400 1.369 . S
C1399 C1401 1.419 1_556 S
C1399 H1403 0.930 . S
C1400 C1399 1.369 . S
C1400 C1409 1.429 . S
C1401 C1399 1.419 1_554 S
C1401 C1402 1.363 . S
C1401 H1404 0.929 . S
C1402 C1401 1.363 . S
C1402 C1408 1.428 . S
H1403 C1399 0.930 . S
H1404 C1401 0.929 . S
S1405 N1406 1.615 1_554 S
S1405 N1407 1.608 . S
N1406 S1405 1.615 1_556 S
N1406 C1409 1.350 . S
N1407 S1405 1.608 . S
N1407 C1408 1.351 . S
C1408 C1402 1.428 . S
C1408 N1407 1.351 . S
C1408 C1409 1.434 1_554 S
C1409 C1400 1.429 . S
C1409 N1406 1.350 . S
C1409 C1408 1.434 1_556 S
C1410 C1411 1.369 . S
C1410 C1412 1.419 . S
C1410 H1414 0.930 . S
C1411 C1410 1.369 . S
C1411 C1420 1.429 . S
C1412 C1410 1.419 . S
C1412 C1413 1.363 . S
C1412 H1415 0.929 . S
C1413 C1412 1.363 . S
C1413 C1419 1.428 . S
H1414 C1410 0.930 . S
H1415 C1412 0.929 . S
S1416 N1417 1.613 . S
S1416 N1418 1.610 . S
N1417 S1416 1.613 . S
N1417 C1420 1.350 . S
N1418 S1416 1.610 . S
N1418 C1419 1.351 . S
C1419 C1413 1.428 . S
C1419 N1418 1.351 . S
C1419 C1420 1.434 . S
C1420 C1411 1.429 . S
C1420 N1417 1.350 . S
C1420 C1419 1.434 . S
C1421 C1422 1.369 . S
C1421 C1423 1.419 . S
C1421 H1425 0.930 . S
C1422 C1421 1.369 . S
C1422 C1431 1.429 . S
C1423 C1421 1.419 . S
C1423 C1424 1.363 . S
C1423 H1426 0.929 . S
C1424 C1423 1.363 . S
C1424 C1430 1.428 . S
H1425 C1421 0.930 . S
H1426 C1423 0.929 . S
S1427 N1428 1.613 . S
S1427 N1429 1.610 . S
N1428 S1427 1.613 . S
N1428 C1431 1.350 . S
N1429 S1427 1.610 . S
N1429 C1430 1.351 . S
C1430 C1424 1.428 . S
C1430 N1429 1.351 . S
C1430 C1431 1.434 . S
C1431 C1422 1.429 . S
C1431 N1428 1.350 . S
C1431 C1430 1.434 . S
C1432 C1433 1.369 . S
C1432 C1434 1.419 . S
C1432 H1436 0.930 . S
C1433 C1432 1.369 . S
C1433 C1442 1.429 . S
C1434 C1432 1.419 . S
C1434 C1435 1.363 . S
C1434 H1437 0.929 . S
C1435 C1434 1.363 . S
C1435 C1441 1.428 . S
H1436 C1432 0.930 . S
H1437 C1434 0.929 . S
S1438 N1439 1.613 . S
S1438 N1440 1.610 . S
N1439 S1438 1.613 . S
N1439 C1442 1.350 . S
N1440 S1438 1.610 . S
N1440 C1441 1.351 . S
C1441 C1435 1.428 . S
C1441 N1440 1.351 . S
C1441 C1442 1.434 . S
C1442 C1433 1.429 . S
C1442 N1439 1.350 . S
C1442 C1441 1.434 . S
C1443 C1444 1.369 . S
C1443 C1445 1.419 . S
C1443 H1447 0.930 . S
C1444 C1443 1.369 . S
C1444 C1453 1.429 . S
C1445 C1443 1.419 . S
C1445 C1446 1.363 . S
C1445 H1448 0.929 . S
C1446 C1445 1.363 . S
C1446 C1452 1.428 . S
H1447 C1443 0.930 . S
H1448 C1445 0.929 . S
S1449 N1450 1.613 . S
S1449 N1451 1.610 . S
N1450 S1449 1.613 . S
N1450 C1453 1.350 . S
N1451 S1449 1.610 . S
N1451 C1452 1.351 . S
C1452 C1446 1.428 . S
C1452 N1451 1.351 . S
C1452 C1453 1.434 . S
C1453 C1444 1.429 . S
C1453 N1450 1.350 . S
C1453 C1452 1.434 . S
C1454 C1455 1.369 . S
C1454 C1456 1.419 . S
C1454 H1458 0.930 . S
C1455 C1454 1.369 . S
C1455 C1464 1.429 . S
C1456 C1454 1.419 . S
C1456 C1457 1.363 . S
C1456 H1459 0.929 . S
C1457 C1456 1.363 . S
C1457 C1463 1.428 . S
H1458 C1454 0.930 . S
H1459 C1456 0.929 . S
S1460 N1461 1.613 . S
S1460 N1462 1.610 . S
N1461 S1460 1.613 . S
N1461 C1464 1.350 . S
N1462 S1460 1.610 . S
N1462 C1463 1.351 . S
C1463 C1457 1.428 . S
C1463 N1462 1.351 . S
C1463 C1464 1.434 . S
C1464 C1455 1.429 . S
C1464 N1461 1.350 . S
C1464 C1463 1.434 . S
C1465 C1466 1.369 . S
C1465 C1467 1.419 . S
C1465 H1469 0.930 . S
C1466 C1465 1.369 . S
C1466 C1475 1.429 . S
C1467 C1465 1.419 . S
C1467 C1468 1.363 . S
C1467 H1470 0.929 . S
C1468 C1467 1.363 . S
C1468 C1474 1.428 . S
H1469 C1465 0.930 . S
H1470 C1467 0.929 . S
S1471 N1472 1.613 . S
S1471 N1473 1.610 . S
N1472 S1471 1.613 . S
N1472 C1475 1.350 . S
N1473 S1471 1.610 . S
N1473 C1474 1.351 . S
C1474 C1468 1.428 . S
C1474 N1473 1.351 . S
C1474 C1475 1.434 . S
C1475 C1466 1.429 . S
C1475 N1472 1.350 . S
C1475 C1474 1.434 . S
C817 C5 0.782 . S
C819 C107 0.785 . S
C828 C141 0.785 . S
C830 C39 0.782 . S
C839 C175 0.784 . S
C841 C73 0.786 . S
C850 C311 0.779 . S
C852 C209 0.783 . S
C861 C243 0.785 . S
C863 C345 0.786 . S
C872 C277 0.778 . S
C874 C379 0.779 . S
C883 C515 0.777 . S
C885 C413 0.780 . S
C894 C549 0.779 . S
C896 C447 0.778 . S
C905 C583 0.785 . S
C907 C481 0.781 . S
C916 C719 0.786 . S
C918 C617 0.781 . S
C927 C651 0.787 . S
C929 C753 0.783 . S
C938 C787 0.786 . S
C940 C685 0.782 . S
C949 C281 1.686 . S
C951 C9 1.681 . S
C960 C43 1.677 . S
C962 C315 1.678 . S
C971 C77 1.677 . S
C973 C349 1.678 . S
C982 C111 1.680 . S
C984 C383 1.676 . S
C993 C145 1.686 . S
C995 C213 1.681 . S
C1004 C247 1.683 . S
C1006 C179 1.677 . S
C1015 C417 1.685 . S
C1017 C689 1.683 . S
C1026 C723 1.679 . S
C1028 C451 1.685 . S
C1037 C757 1.684 . S
C1039 C485 1.677 . S
C1048 C519 1.685 . S
C1050 C791 1.683 . S
C1059 C621 1.685 . S
C1061 C553 1.678 . S
C1070 C655 1.678 . S
C1072 C587 1.677 . S
C1081 C33 1.400 . S
C1083 C271 1.399 . S
C1092 C67 1.397 . S
C1094 C305 1.399 . S
C1103 C339 1.397 . S
C1105 C101 1.399 . S
C1114 C135 1.400 . S
C1116 C373 1.399 . S
C1125 C407 1.405 . S
C1127 C169 1.404 . S
C1136 C237 1.399 . S
C1138 C203 1.399 . S
C1147 C441 1.401 . S
C1149 C679 1.403 . S
C1158 C475 1.397 . S
C1160 C713 1.398 . S
C1169 C509 1.398 . S
C1171 C747 1.400 . S
C1180 C543 1.401 . S
C1182 C781 1.403 . S
C1191 C577 1.399 . S
C1193 C815 1.398 . S
C1202 C645 1.405 . S
C1204 C611 1.404 . S
C1213 C2 1.591 . S
C1215 C342 1.585 . S
C1224 C376 1.591 . S
C1226 C36 1.586 . S
C1235 C206 1.590 . S
C1237 C70 1.583 . S
C1246 C240 1.590 . S
C1248 C104 1.583 . S
C1257 C138 1.582 . S
C1259 C274 1.586 . S
C1268 C172 1.585 . S
C1270 C308 1.590 . S
C1279 C410 1.583 . S
C1281 C750 1.590 . S
C1290 C784 1.584 . S
C1292 C444 1.583 . S
C1301 C614 1.581 . S
C1303 C478 1.587 . S
C1312 C512 1.589 . S
C1314 C648 1.583 . S
C1323 C546 1.587 . S
C1325 C682 1.583 . S
C1334 C716 1.591 . S
C1336 C580 1.586 . S
C1345 C20 1.496 . S
C1347 C530 1.495 . S
C1356 C54 1.491 . S
C1358 C564 1.492 . S
C1367 C88 1.491 . S
C1369 C598 1.492 . S
C1378 C122 1.493 . S
C1380 C428 1.493 . S
C1389 C156 1.490 . S
C1391 C462 1.490 . S
C1400 C496 1.489 . S
C1402 C190 1.490 . S
C1411 C224 1.491 . S
C1413 C734 1.491 . S
C1422 C258 1.492 . S
C1424 C768 1.492 . S
C1433 C292 1.490 . S
C1435 C802 1.491 . S
C1444 C326 1.489 . S
C1446 C632 1.490 . S
C1455 C360 1.494 . S
C1457 C666 1.494 . S
C1466 C700 1.489 . S
C1468 C394 1.490 . S
