# Generated by pormake.
# Topology smc, (6)-cn, num edge types: 1
# Building blocks:
#     Node 0, Type 0, BuildingBlock: HISSIN_clean_sbu_0, # of connection points: 6
#     Node 1, Type 0, BuildingBlock: HISSIN_clean_sbu_0, # of connection points: 6
#     Node 2, Type 0, BuildingBlock: HISSIN_clean_sbu_0, # of connection points: 6
#     Node 3, Type 0, BuildingBlock: HISSIN_clean_sbu_0, # of connection points: 6
#     Node 4, Type 0, BuildingBlock: HISSIN_clean_sbu_0, # of connection points: 6
#     Node 5, Type 0, BuildingBlock: HISSIN_clean_sbu_0, # of connection points: 6
#     Node 6, Type 0, BuildingBlock: HISSIN_clean_sbu_0, # of connection points: 6
#     Node 7, Type 0, BuildingBlock: HISSIN_clean_sbu_0, # of connection points: 6
#     Node 8, Type 0, BuildingBlock: HISSIN_clean_sbu_0, # of connection points: 6
#     Edge 9, Type (0, 0), BuildingBlock: OJICUG_clean_linker_0, # of connection points: 2
#     Edge 10, Type (0, 0), BuildingBlock: OJICUG_clean_linker_0, # of connection points: 2
#     Edge 11, Type (0, 0), BuildingBlock: OJICUG_clean_linker_0, # of connection points: 2
#     Edge 12, Type (0, 0), BuildingBlock: OJICUG_clean_linker_0, # of connection points: 2
#     Edge 13, Type (0, 0), BuildingBlock: OJICUG_clean_linker_0, # of connection points: 2
#     Edge 14, Type (0, 0), BuildingBlock: OJICUG_clean_linker_0, # of connection points: 2
#     Edge 15, Type (0, 0), BuildingBlock: OJICUG_clean_linker_0, # of connection points: 2
#     Edge 16, Type (0, 0), BuildingBlock: OJICUG_clean_linker_0, # of connection points: 2
#     Edge 17, Type (0, 0), BuildingBlock: OJICUG_clean_linker_0, # of connection points: 2
#     Edge 18, Type (0, 0), BuildingBlock: OJICUG_clean_linker_0, # of connection points: 2
#     Edge 19, Type (0, 0), BuildingBlock: OJICUG_clean_linker_0, # of connection points: 2
#     Edge 20, Type (0, 0), BuildingBlock: OJICUG_clean_linker_0, # of connection points: 2
#     Edge 21, Type (0, 0), BuildingBlock: OJICUG_clean_linker_0, # of connection points: 2
#     Edge 22, Type (0, 0), BuildingBlock: OJICUG_clean_linker_0, # of connection points: 2
#     Edge 23, Type (0, 0), BuildingBlock: OJICUG_clean_linker_0, # of connection points: 2
#     Edge 24, Type (0, 0), BuildingBlock: OJICUG_clean_linker_0, # of connection points: 2
#     Edge 25, Type (0, 0), BuildingBlock: OJICUG_clean_linker_0, # of connection points: 2
#     Edge 26, Type (0, 0), BuildingBlock: OJICUG_clean_linker_0, # of connection points: 2
#     Edge 27, Type (0, 0), BuildingBlock: OJICUG_clean_linker_0, # of connection points: 2
#     Edge 28, Type (0, 0), BuildingBlock: OJICUG_clean_linker_0, # of connection points: 2
#     Edge 29, Type (0, 0), BuildingBlock: OJICUG_clean_linker_0, # of connection points: 2
#     Edge 30, Type (0, 0), BuildingBlock: OJICUG_clean_linker_0, # of connection points: 2
#     Edge 31, Type (0, 0), BuildingBlock: OJICUG_clean_linker_0, # of connection points: 2
#     Edge 32, Type (0, 0), BuildingBlock: OJICUG_clean_linker_0, # of connection points: 2
#     Edge 33, Type (0, 0), BuildingBlock: OJICUG_clean_linker_0, # of connection points: 2
#     Edge 34, Type (0, 0), BuildingBlock: OJICUG_clean_linker_0, # of connection points: 2
#     Edge 35, Type (0, 0), BuildingBlock: OJICUG_clean_linker_0, # of connection points: 2
# Relax obj value: 0.425
# Max RMSD: 0.414
# Mean RMSD: 0.352
data_MOF--net-smc--node1-HISSIN_clean_sbu_0--edge1-OJICUG_clean_linker_0
_symmetry_space_group_name_H-M    P1
_symmetry_Int_Tables_number       1
_symmetry_cell_setting            triclinic
loop_
_symmetry_equiv_pos_as_xyz
'x, y, z'
_cell_length_a     34.234218
_cell_length_b     23.690498
_cell_length_c     28.79939
_cell_angle_alpha  92.414239
_cell_angle_beta   89.992955
_cell_angle_gamma 118.89845
loop_
_atom_site_label
_atom_site_type_symbol
_atom_site_fract_x
_atom_site_fract_y
_atom_site_fract_z
_atom_type_partial_charge
Eu0 Eu 1.08065 0.51822 0.04372 0.0
Eu1 Eu 0.10293 0.41663 0.99621 0.0
C2 C 1.0416 0.45618 0.93752 0.0
C3 C 1.00249 0.55779 0.09534 0.0
C4 C 0.97373 0.5008 0.06962 0.0
C5 C 0.93957 0.56931 0.11991 0.0
C6 C 0.92852 0.48068 0.06631 0.0
C7 C 0.98517 0.58983 0.1229 0.0
C8 C 0.91201 0.51809 0.0884 0.0
C9 C 1.05012 0.58365 0.08967 0.0
O10 O 0.16885 0.51213 1.00213 0.0
O11 O 0.14031 0.58158 1.00327 0.0
C12 C 0.17399 0.57062 0.99837 0.0
O13 O 0.13632 0.5221 0.09017 0.0
O14 O 0.13027 0.38084 0.94181 0.0
O15 O 0.09977 0.3227 1.00112 0.0
O16 O 0.11503 0.41698 0.07376 0.0
C17 C 0.13675 0.46904 0.10098 0.0
O18 O 1.0349 0.42066 0.07047 0.0
O19 O 1.02858 0.36447 1.00363 0.0
O20 O 1.07479 0.44328 0.93512 0.0
O21 O 1.06599 0.5508 0.10998 0.0
O22 O 1.06295 0.59517 0.04672 0.0
O23 O 1.03385 0.47824 0.97769 0.0
C24 C 0.17236 0.34575 0.98152 0.0
C25 C 0.1877 0.37195 0.02701 0.0
C26 C 0.24597 0.41319 0.95314 0.0
C27 C 0.23025 0.42428 0.03409 0.0
C28 C 0.20341 0.3609 0.94613 0.0
C29 C 0.25791 0.44822 0.99609 0.0
C30 C 0.12823 0.33544 0.96768 0.0
C31 C 1.01094 0.37166 0.04195 0.0
H32 H 0.98678 0.47519 0.04863 0.0
H33 H 0.92725 0.59912 0.13691 0.0
H34 H 0.90795 0.44184 0.0414 0.0
H35 H 1.00703 0.63307 0.14364 0.0
H36 H 0.16488 0.35947 0.05559 0.0
H37 H 0.26808 0.42971 0.92394 0.0
H38 H 0.23972 0.44961 0.06788 0.0
H39 H 0.19258 0.34061 0.91107 0.0
Eu40 Eu 0.60767 0.65241 0.97226 0.0
Eu41 Eu 0.69244 0.7109 0.99805 0.0
C42 C 0.63904 0.67365 0.08118 0.0
C43 C 0.49969 0.62292 0.9356 0.0
C44 C 0.50009 0.65023 0.97993 0.0
C45 C 0.42837 0.61443 0.91857 0.0
C46 C 0.4647 0.65915 0.99374 0.0
C47 C 0.46498 0.60829 0.90399 0.0
C48 C 0.42679 0.63573 0.96477 0.0
C49 C 0.53473 0.60728 0.9247 0.0
O50 O 0.67374 0.59747 0.99985 0.0
O51 O 0.59904 0.55575 0.99151 0.0
C52 C 0.63246 0.54473 0.99789 0.0
O53 O 0.67108 0.68502 0.92571 0.0
O54 O 0.75176 0.77327 0.04032 0.0
O55 O 0.75749 0.7542 0.9671 0.0
O56 O 0.66704 0.68234 0.92359 0.0
C57 C 0.6831 0.6899 0.88126 0.0
O58 O 0.60007 0.73999 0.98769 0.0
O59 O 0.67279 0.79666 1.00732 0.0
O60 O 0.66494 0.6563 0.06018 0.0
O61 O 0.57177 0.65603 0.91121 0.0
O62 O 0.541 0.57432 0.95652 0.0
O63 O 0.61203 0.68262 0.0529 0.0
C64 C 0.80929 0.75167 0.01785 0.0
C65 C 0.82595 0.73032 0.98077 0.0
C66 C 0.82323 0.68509 0.06905 0.0
C67 C 0.83515 0.68015 0.98634 0.0
C68 C 0.81128 0.73254 0.06279 0.0
C69 C 0.83216 0.65511 0.03036 0.0
C70 C 0.77853 0.77585 1.00712 0.0
C71 C 0.63349 0.79557 1.00051 0.0
H72 H 0.52591 0.65976 1.00548 0.0
H73 H 0.39949 0.59554 0.89535 0.0
H74 H 0.46447 0.67607 0.02924 0.0
H75 H 0.46463 0.58768 0.86958 0.0
H76 H 0.827 0.74741 0.94638 0.0
H77 H 0.82376 0.6705 0.10405 0.0
H78 H 0.84248 0.6595 0.95558 0.0
H79 H 0.8003 0.75029 0.09252 0.0
Eu80 Eu 0.61038 0.15774 0.04096 0.0
Eu81 Eu 0.52574 0.09144 0.01936 0.0
C82 C 0.5774 0.13274 0.93297 0.0
C83 C 0.73227 0.23054 0.07852 0.0
C84 C 0.74466 0.20005 0.04325 0.0
C85 C 0.80989 0.30535 0.09608 0.0
C86 C 0.78977 0.22104 0.03545 0.0
C87 C 0.76498 0.28384 0.10422 0.0
C88 C 0.82282 0.27312 0.06254 0.0
C89 C 0.68558 0.21013 0.08775 0.0
O90 O 0.54785 1.00942 0.02207 0.0
O91 O 0.62031 1.07551 0.0105 0.0
C92 C 0.58844 1.01608 0.01403 0.0
O93 O 0.55096 0.12831 0.09277 0.0
O94 O 0.46023 1.05067 0.98322 0.0
O95 O 0.46434 1.03318 0.05551 0.0
O96 O 0.55073 0.1275 0.09331 0.0
C97 C 0.53743 0.08323 0.12428 0.0
O98 O 0.61639 0.25365 0.02992 0.0
O99 O 0.54322 0.20422 0.00928 0.0
O100 O 0.54881 1.07936 0.9504 0.0
O101 O 0.66967 0.2431 0.06764 0.0
O102 O 0.65779 0.14812 0.08605 0.0
O103 O 0.60668 0.1775 0.96247 0.0
C104 C 0.40505 0.9488 0.01105 0.0
C105 C 0.40614 0.90075 0.03741 0.0
C106 C 0.33457 0.86683 0.97562 0.0
C107 C 0.37157 0.83665 0.03323 0.0
C108 C 0.36924 0.9308 0.97966 0.0
C109 C 0.33481 0.81873 1.00274 0.0
C110 C 0.4386 1.01818 0.01882 0.0
C111 C 0.58252 0.26001 0.01673 0.0
H112 H 0.71958 0.15977 0.02221 0.0
H113 H 0.83449 0.34714 0.11628 0.0
H114 H 0.79864 0.19546 0.00914 0.0
H115 H 0.75573 0.30888 0.13064 0.0
H116 H 0.43329 0.91277 0.06199 0.0
H117 H 0.30679 0.85586 0.95228 0.0
H118 H 0.37368 0.80128 0.05417 0.0
H119 H 0.36736 0.96675 0.95916 0.0
Eu120 Eu 0.71941 0.85436 0.37565 0.0
Eu121 Eu 0.79089 0.79297 0.33985 0.0
C122 C 0.71938 0.78882 0.26567 0.0
C123 C 0.62899 0.91826 0.38145 0.0
C124 C 0.61946 0.93535 0.3381 0.0
C125 C 0.56764 0.93234 0.41374 0.0
C126 C 0.58443 0.95055 0.33276 0.0
C127 C 0.60221 0.91672 0.41889 0.0
C128 C 0.55787 0.94992 0.37066 0.0
C129 C 0.66983 0.91093 0.39043 0.0
O130 O 0.80182 0.88841 0.31736 0.0
O131 O 0.78844 0.93296 0.38099 0.0
C132 C 0.81461 0.93644 0.34767 0.0
O133 O 0.76729 0.865 0.43794 0.0
O134 O 0.84112 0.764 0.31203 0.0
O135 O 0.86338 0.85023 0.35755 0.0
O136 O 0.77587 0.77809 0.41476 0.0
C137 C 0.78267 0.82398 0.44585 0.0
O138 O 0.68639 0.75418 0.39758 0.0
O139 O 0.71391 0.70749 0.34353 0.0
O140 O 0.75499 0.78183 0.27304 0.0
O141 O 0.66739 0.8642 0.41526 0.0
O142 O 0.70014 0.92693 0.35857 0.0
O143 O 0.70256 0.8126 0.29828 0.0
C144 C 0.92679 0.83137 0.33001 0.0
C145 C 0.9561 0.85513 0.3698 0.0
C146 C 0.99666 0.85593 0.28565 0.0
C147 C 1.00342 0.87648 0.36783 0.0
C148 C 0.94904 0.83255 0.28786 0.0
C149 C 1.02588 0.87866 0.32558 0.0
C150 C 0.8761 0.81568 0.3313 0.0
C151 C 0.6798 0.70574 0.36932 0.0
H152 H 0.63955 0.93809 0.30836 0.0
H153 H 0.54948 0.93237 0.44445 0.0
H154 H 0.57828 0.96279 0.29874 0.0
H155 H 0.60897 0.90539 0.45301 0.0
H156 H 0.94238 0.85766 0.40321 0.0
H157 H 1.01061 0.85569 0.25197 0.0
H158 H 1.02285 0.89331 0.39998 0.0
H159 H 0.92966 0.81719 0.25565 0.0
Eu160 Eu 0.30685 0.92798 0.32067 0.0
Eu161 Eu 0.3415 1.06374 0.31463 0.0
C162 C 0.37487 1.00757 0.23569 0.0
C163 C 0.32842 0.80639 0.28794 0.0
C164 C 0.33551 0.78237 0.24497 0.0
C165 C 0.38684 0.79035 0.32116 0.0
C166 C 0.36193 0.75153 0.24561 0.0
C167 C 0.35954 0.81908 0.32464 0.0
C168 C 0.37042 0.73619 0.29009 0.0
C169 C 0.2898 0.81624 0.29527 0.0
O170 O 0.26227 1.02501 0.30654 0.0
O171 O 0.2386 0.92323 0.32821 0.0
C172 C 0.22821 0.96779 0.31779 0.0
O173 O 0.31963 0.95626 0.3982 0.0
O174 O 0.35086 0.15069 0.283 0.0
O175 O 0.39108 0.15798 0.34359 0.0
O176 O 0.32177 1.05247 0.38991 0.0
C177 C 0.32272 1.01009 0.41687 0.0
O178 O 0.36857 0.95204 0.36128 0.0
O179 O 0.40417 1.04912 0.32945 0.0
O180 O 0.3585 1.04668 0.2416 0.0
O181 O 0.28316 0.82866 0.33857 0.0
O182 O 0.28542 0.85298 0.26529 0.0
O183 O 0.36219 0.96112 0.26496 0.0
C184 C 0.3568 0.22244 0.3427 0.0
C185 C 0.3388 0.20115 0.38657 0.0
C186 C 0.30112 0.25426 0.32883 0.0
C187 C 0.2994 0.20028 0.39916 0.0
C188 C 0.34035 0.25466 0.3161 0.0
C189 C 0.27884 0.22285 0.36873 0.0
C190 C 0.37615 0.18767 0.31773 0.0
C191 C 0.406 1.00222 0.35157 0.0
H192 H 0.31665 0.77925 0.21388 0.0
H193 H 0.40724 0.79417 0.35112 0.0
H194 H 0.36163 0.72308 0.21506 0.0
H195 H 0.35915 0.84299 0.35722 0.0
H196 H 0.35176 0.17775 0.40855 0.0
H197 H 0.2869 0.27523 0.3061 0.0
H198 H 0.28354 0.17798 0.43091 0.0
H199 H 0.35412 0.27196 0.28246 0.0
Eu200 Eu 0.24836 0.46836 0.38373 0.0
Eu201 Eu 0.14207 0.41371 0.34439 0.0
C202 C 0.21301 0.4428 0.27615 0.0
C203 C 0.38526 0.537 0.39024 0.0
C204 C 0.4083 0.56875 0.35023 0.0
C205 C 0.45748 0.54762 0.41775 0.0
C206 C 0.45473 0.58942 0.34422 0.0
C207 C 0.41129 0.52729 0.42372 0.0
C208 C 0.4812 0.58001 0.378 0.0
C209 C 0.33689 0.52197 0.4005 0.0
O210 O 0.14255 0.32857 0.37565 0.0
O211 O 0.21805 0.36269 0.36685 0.0
C212 C 0.17707 0.31853 0.3762 0.0
O213 O 0.20147 0.43925 0.45066 0.0
O214 O 0.09938 0.3684 0.28324 0.0
O215 O 1.07721 0.40913 0.33968 0.0
O216 O 0.13019 0.40676 0.41932 0.0
C217 C 0.15675 0.41637 0.45494 0.0
O218 O 0.21863 0.52872 0.40912 0.0
O219 O 0.1799 0.52171 0.34493 0.0
O220 O 0.18325 0.3921 0.29529 0.0
O221 O 0.30726 0.46854 0.4187 0.0
O222 O 0.31733 0.54463 0.37422 0.0
O223 O 0.24147 0.48875 0.30558 0.0
C224 C 1.02889 0.30614 0.30969 0.0
C225 C 1.03008 0.27479 0.34951 0.0
C226 C 0.96481 0.20925 0.28002 0.0
C227 C 0.99858 0.21124 0.35482 0.0
C228 C 0.99672 0.27319 0.27458 0.0
C229 C 0.96557 0.1785 0.32038 0.0
C230 C 1.06558 0.36971 0.30296 0.0
C231 C 0.21028 0.55802 0.37661 0.0
H232 H 0.3906 0.57905 0.32362 0.0
H233 H 0.47424 0.53726 0.44515 0.0
H234 H 0.46985 0.61431 0.31311 0.0
H235 H 0.39598 0.50462 0.45556 0.0
H236 H 1.05574 0.29926 0.37627 0.0
H237 H 0.93911 0.18429 0.25332 0.0
H238 H 0.99981 0.18778 0.3859 0.0
H239 H 0.99656 0.29659 0.24312 0.0
Eu240 Eu 0.42758 0.18875 0.70268 0.0
Eu241 Eu 0.44333 1.073 0.67866 0.0
C242 C 0.40082 0.11427 0.6015 0.0
C243 C 0.35925 0.26091 0.7292 0.0
C244 C 0.32792 0.21762 0.69585 0.0
C245 C 0.30016 0.26479 0.77201 0.0
C246 C 0.28322 0.20037 0.69948 0.0
C247 C 0.34503 0.28256 0.76813 0.0
C248 C 0.26947 0.22563 0.73678 0.0
C249 C 0.40532 0.27467 0.72686 0.0
O250 O 0.51219 0.16562 0.68103 0.0
O251 O 0.48547 0.23036 0.65663 0.0
C252 C 0.51912 0.22066 0.66404 0.0
O253 O 0.48046 0.19744 0.75619 0.0
O254 O 0.4575 1.01369 0.62909 0.0
O255 O 0.44667 0.9881 0.70069 0.0
O256 O 0.44981 0.08947 0.75622 0.0
C257 C 0.47724 0.14606 0.77551 0.0
O258 O 0.37242 0.10347 0.73513 0.0
O259 O 0.36788 1.02921 0.68059 0.0
O260 O 0.43533 0.10684 0.61023 0.0
O261 O 0.41578 0.24465 0.75718 0.0
O262 O 0.41937 0.27099 0.68527 0.0
O263 O 0.38588 0.1379 0.63528 0.0
C264 C 0.51399 1.00464 0.66728 0.0
C265 C 0.53476 1.03144 0.71089 0.0
C266 C 0.57941 0.08457 0.63 0.0
C267 C 0.57405 0.09033 0.71369 0.0
C268 C 0.53971 1.02631 0.62739 0.0
C269 C 0.59459 0.11966 0.67278 0.0
C270 C 0.46633 0.98558 0.66239 0.0
C271 C 0.34861 1.0489 0.71176 0.0
H272 H 0.338 0.19792 0.66652 0.0
H273 H 0.29002 0.28558 0.80066 0.0
H274 H 0.2599 0.17073 0.67185 0.0
H275 H 0.36863 0.31374 0.79504 0.0
H276 H 0.51712 1.01281 0.74255 0.0
H277 H 0.59638 0.10437 0.59811 0.0
H278 H 0.58605 0.11502 0.7474 0.0
H279 H 0.52548 1.00505 0.59333 0.0
Eu280 Eu 0.93176 0.32521 0.65524 0.0
Eu281 Eu 1.01034 0.38099 0.71135 0.0
C282 C 0.93633 0.33225 0.76893 0.0
C283 C 0.8268 0.30619 0.61212 0.0
C284 C 0.8293 0.34377 0.65215 0.0
C285 C 0.75504 0.29422 0.59246 0.0
C286 C 0.79361 0.35358 0.66363 0.0
C287 C 0.79111 0.2852 0.5807 0.0
C288 C 0.75439 0.32297 0.63625 0.0
C289 C 0.85903 0.28354 0.60694 0.0
O290 O 0.99339 0.26912 0.69526 0.0
O291 O 0.92047 0.22759 0.67542 0.0
C292 C 0.95288 0.21631 0.68659 0.0
O293 O 0.98707 0.32877 0.60426 0.0
O294 O 1.0429 0.38678 0.77799 0.0
O295 O 1.07832 0.45727 0.7273 0.0
O296 O 1.04579 0.40636 0.6444 0.0
C297 C 1.03044 0.37089 0.60658 0.0
O298 O 0.93949 0.42571 0.65369 0.0
O299 O 0.98625 0.46167 0.71597 0.0
O300 O 0.96058 0.30798 0.75507 0.0
O301 O 0.89766 0.32605 0.59181 0.0
O302 O 0.86229 0.2542 0.64302 0.0
O303 O 0.9228 0.35349 0.73386 0.0
C304 C 0.1123 0.40254 0.75759 0.0
C305 C 0.11381 0.3762 0.71348 0.0
C306 C 0.15098 0.35094 0.7905 0.0
C307 C 0.13198 0.33583 0.70804 0.0
C308 C 0.13114 0.39011 0.79621 0.0
C309 C 0.15079 0.32275 0.74635 0.0
C310 C 1.0817 0.42824 0.76317 0.0
C311 C 0.95916 0.47026 0.68678 0.0
H312 H 0.85699 0.36046 0.67674 0.0
H313 H 0.72546 0.27037 0.57019 0.0
H314 H 0.79422 0.37668 0.69712 0.0
H315 H 0.7893 0.25697 0.54937 0.0
H316 H 0.09875 0.38363 0.68317 0.0
H317 H 0.16616 0.34253 0.82053 0.0
H318 H 0.13052 0.31401 0.6738 0.0
H319 H 0.1291 0.40865 0.83064 0.0
Eu320 Eu 0.93128 0.82974 0.70919 0.0
Eu321 Eu 0.84541 0.76062 0.69715 0.0
C322 C 0.88118 0.80469 0.60581 0.0
C323 C 1.06574 0.91195 0.71633 0.0
C324 C 0.08879 0.92276 0.67446 0.0
C325 C 0.13497 0.94335 0.75881 0.0
C326 C 0.13447 0.94338 0.67471 0.0
C327 C 0.08928 0.9233 0.75854 0.0
C328 C 0.15807 0.95301 0.71684 0.0
C329 C 1.01676 0.88215 0.71528 0.0
O330 O 0.86833 0.67994 0.6848 0.0
O331 O 0.93307 0.73699 0.72238 0.0
C332 C 0.90504 0.68189 0.70236 0.0
O333 O 0.87769 0.80927 0.76804 0.0
O334 O 0.77492 0.72214 0.67515 0.0
O335 O 0.79197 0.69187 0.73823 0.0
O336 O 0.87736 0.80599 0.7677 0.0
C337 C 0.86202 0.76759 0.8023 0.0
O338 O 0.93312 0.92377 0.7204 0.0
O339 O 0.86258 0.87461 0.69012 0.0
O340 O 0.85606 0.74988 0.62324 0.0
O341 O 0.99319 0.88321 0.75113 0.0
O342 O 0.99389 0.85471 0.67662 0.0
O343 O 0.91278 0.8486 0.63401 0.0
C344 C 0.73021 0.61133 0.69539 0.0
C345 C 0.74019 0.56314 0.70926 0.0
C346 C 0.65888 0.52643 0.66396 0.0
C347 C 0.70958 0.49752 0.70125 0.0
C348 C 0.68949 0.59212 0.67209 0.0
C349 C 0.66822 0.47809 0.67893 0.0
C350 C 0.76057 0.68077 0.70811 0.0
C351 C 0.90036 0.93048 0.70373 0.0
H352 H 1.07139 0.9143 0.64133 0.0
H353 H 0.15188 0.94953 0.79192 0.0
H354 H 0.15122 0.95172 0.6418 0.0
H355 H 1.0721 0.9144 0.79124 0.0
H356 H 0.77143 0.57594 0.72711 0.0
H357 H 0.62721 0.51368 0.64717 0.0
H358 H 0.71837 0.46202 0.71263 0.0
H359 H 0.68083 0.62796 0.66116 0.0
C360 C 0.37438 0.57352 0.02509 0.0
C361 C 0.38299 0.61182 0.98621 0.0
H362 H 0.32667 0.48918 0.05808 0.0
C363 C 0.34712 0.60765 0.96008 0.0
H364 H 0.40121 0.57583 0.04642 0.0
C365 C 0.3045 0.55691 0.96645 0.0
C366 C 0.29778 0.51148 0.99963 0.0
H367 H 0.35287 0.63782 0.93082 0.0
H368 H 0.27778 0.54959 0.94263 0.0
C369 C 0.33175 0.52312 0.0316 0.0
C370 C 0.56736 0.89353 1.00662 0.0
C371 C 0.60001 0.95943 0.01141 0.0
H372 H 0.55167 0.79379 0.9995 0.0
C373 C 0.64499 0.97073 0.01402 0.0
H374 H 0.53246 0.88079 1.0044 0.0
C375 C 0.65648 0.91963 0.01183 0.0
C376 C 0.62368 0.85372 1.00631 0.0
H377 H 0.67193 1.01992 0.01799 0.0
H378 H 0.69133 0.93214 0.01382 0.0
C379 C 0.57882 0.84274 1.00384 0.0
C380 C 0.27115 0.72404 0.95866 0.0
C381 C 0.29616 0.75115 1.00034 0.0
H382 H 0.21288 0.64548 0.92542 0.0
C383 C 0.2824 0.71413 0.0402 0.0
H384 H 0.28078 0.74999 0.92697 0.0
C385 C 0.24427 0.65301 0.03857 0.0
C386 C 0.21879 0.62762 0.99727 0.0
H387 H 0.29983 0.73333 0.07327 0.0
H388 H 0.23339 0.62702 0.07024 0.0
C389 C 0.2326 0.66354 0.95737 0.0
C390 C 0.63812 0.38374 0.018 0.0
C391 C 0.59329 0.33202 0.01061 0.0
H392 H 0.68585 0.48639 0.02028 0.0
C393 C 0.56229 0.35281 0.99883 0.0
H394 H 0.66418 0.37257 0.02728 0.0
C395 C 0.57538 0.42022 0.99499 0.0
C396 C 0.62034 0.4718 1.00233 0.0
H397 H 0.52762 0.31712 0.99272 0.0
H398 H 0.5495 0.43189 0.98599 0.0
C399 C 0.65119 0.45081 0.01393 0.0
C400 C 0.89926 0.31275 0.09658 0.0
C401 C 0.87062 0.2929 0.05721 0.0
H402 H 0.96635 0.35276 0.12254 0.0
C403 C 0.88819 0.29307 0.01312 0.0
H404 H 0.88665 0.3118 0.13118 0.0
C405 C 0.93367 0.31437 1.0085 0.0
C406 C 0.96244 0.33695 0.04767 0.0
H407 H 0.86718 0.27892 0.98204 0.0
H408 H 0.94651 0.31627 0.97408 0.0
C409 C 0.94479 0.33519 0.0918 0.0
C410 C 0.84187 0.52381 0.08895 0.0
C411 C 0.87721 0.52464 0.06427 0.0
H412 H 0.79702 0.56198 0.09528 0.0
C413 C 0.88905 0.55447 0.02166 0.0
H414 H 0.8323 0.50048 0.12174 0.0
C415 C 0.87182 0.59359 1.00846 0.0
C416 C 0.8409 0.60073 0.03665 0.0
H417 H 0.91663 0.55588 1.00225 0.0
H418 H 0.88667 0.62309 0.97908 0.0
C419 C 0.82286 0.56057 0.07441 0.0
C420 C 0.1024 0.89176 0.35847 0.0
C421 C 1.07833 0.90388 0.32347 0.0
H422 H 0.16462 0.89967 0.38398 0.0
C423 C 0.10589 0.94048 0.28668 0.0
H424 H 1.0844 0.86394 0.3876 0.0
C425 C 0.1536 0.96365 0.28544 0.0
C426 C 0.17727 0.95029 0.32017 0.0
H427 H 0.09056 0.95211 0.25846 0.0
H428 H 0.17177 0.99066 0.25609 0.0
C429 C 0.14957 0.91291 0.35639 0.0
C430 C 0.19435 0.25522 0.42589 0.0
C431 C 0.17153 0.25563 0.38559 0.0
H432 H 0.25039 0.2481 0.45109 0.0
C433 C 0.17101 0.21895 0.34601 0.0
H434 H 0.19414 0.28215 0.45719 0.0
C435 C 0.20352 0.19995 0.3421 0.0
C436 C 0.23481 0.21575 0.37862 0.0
H437 H 0.15251 0.21726 0.31496 0.0
H438 H 0.20778 0.18085 0.30876 0.0
C439 C 0.22724 0.23696 0.4221 0.0
C440 C 0.916 1.06503 0.29373 0.0
C441 C 0.92973 0.11425 0.32856 0.0
H442 H 0.86792 0.96849 0.27277 0.0
C443 C 0.90734 0.10344 0.37067 0.0
H444 H 0.93353 1.07282 0.2613 0.0
C445 C 0.87021 1.04458 0.3772 0.0
C446 C 0.85521 0.99619 0.34163 0.0
H447 H 0.91753 0.14125 0.39782 0.0
H448 H 0.8528 1.03758 0.40968 0.0
C449 C 0.87881 1.00583 0.30033 0.0
C450 C 0.28863 0.65317 0.28752 0.0
C451 C 0.33053 0.68064 0.311 0.0
H452 H 0.2181 0.60642 0.29167 0.0
C453 C 0.33058 0.67147 0.35915 0.0
H454 H 0.2856 0.65769 0.25072 0.0
C455 C 0.29061 0.63949 0.3827 0.0
C456 C 0.24959 0.6129 0.35832 0.0
H457 H 0.36161 0.69116 0.37902 0.0
H458 H 0.292 0.63152 0.4193 0.0
C459 C 0.24918 0.62448 0.31131 0.0
C460 C 0.56014 0.6093 0.41128 0.0
C461 C 0.53249 0.60432 0.37282 0.0
H462 H 0.62596 0.64019 0.43959 0.0
C463 C 0.55549 0.62466 0.33023 0.0
H464 H 0.54645 0.59729 0.44546 0.0
C465 C 0.60285 0.65002 0.32704 0.0
C466 C 0.63003 0.65543 0.36594 0.0
H467 H 0.53732 0.62282 0.29902 0.0
H468 H 0.61855 0.66933 0.29454 0.0
C469 C 0.60696 0.63378 0.40786 0.0
C470 C 0.48529 1.02549 0.33 0.0
C471 C 0.4481 0.99734 0.35904 0.0
H472 H 0.5485 1.03348 0.31037 0.0
C473 C 0.44808 0.95469 0.39179 0.0
H474 H 0.48635 1.05733 0.30354 0.0
C475 C 0.48298 0.93965 0.39506 0.0
C476 C 0.52027 0.967 0.36605 0.0
H477 H 0.42003 0.931 0.41448 0.0
H478 H 0.47973 0.90468 0.41987 0.0
C479 C 0.52073 1.01061 0.33343 0.0
C480 C 0.70584 0.26383 0.69974 0.0
C481 C 0.71109 0.29788 0.65916 0.0
H482 H 0.66458 0.178 0.73486 0.0
C483 C 0.67322 0.2843 0.63227 0.0
H484 H 0.73419 0.27366 0.72193 0.0
C485 C 0.63366 0.22773 0.63879 0.0
C486 C 0.63114 0.18669 0.67389 0.0
H487 H 0.67611 0.31136 0.60186 0.0
H488 H 0.60619 0.21371 0.61422 0.0
C489 C 0.66601 0.20798 0.70683 0.0
C490 C 0.907 0.51905 0.66878 0.0
C491 C 0.94591 0.52512 0.69185 0.0
H492 H 0.863 0.55866 0.6541 0.0
C493 C 0.97037 0.58365 0.71861 0.0
H494 H 0.88668 0.47614 0.64719 0.0
C495 C 0.95697 0.63267 0.72162 0.0
C496 C 0.91766 0.62616 0.69905 0.0
H497 H 1.00054 0.59233 0.73688 0.0
H498 H 0.978 0.67655 0.74209 0.0
C499 C 0.89305 0.56734 0.67262 0.0
C500 C 0.60666 0.38559 0.63221 0.0
C501 C 0.63436 0.40805 0.67229 0.0
H502 H 0.54926 0.30792 0.59791 0.0
C503 C 0.62755 0.36375 0.70684 0.0
H504 H 0.61121 0.41753 0.60447 0.0
C505 C 0.59225 0.29994 0.70252 0.0
C506 C 0.56338 0.27908 0.66338 0.0
H507 H 0.64789 0.37921 0.73843 0.0
H508 H 0.58591 0.26832 0.73097 0.0
C509 C 0.57157 0.32228 0.62801 0.0
C510 C 0.95567 1.05429 0.71041 0.0
C511 C 0.91169 1.00286 0.69838 0.0
H512 H 1.00334 0.15689 0.7165 0.0
C513 C 0.88249 1.02417 0.68132 0.0
H514 H 0.9805 1.04273 0.72341 0.0
C515 C 0.89631 0.0918 0.67744 0.0
C516 C 0.9403 0.14307 0.68985 0.0
H517 H 0.8487 0.98869 0.67101 0.0
H518 H 0.87174 0.10391 0.66448 0.0
C519 C 0.96949 0.12157 0.70628 0.0
C520 C 0.22501 0.95075 0.68199 0.0
C521 C 0.20661 0.97359 0.71698 0.0
H522 H 0.28439 0.95601 0.65301 0.0
C523 C 0.23516 1.01749 0.75177 0.0
H524 H 0.20394 0.91625 0.65493 0.0
C525 C 0.2809 1.03896 0.75119 0.0
C526 C 0.2995 1.01758 0.71561 0.0
H527 H 0.22248 1.03707 0.77877 0.0
H528 H 0.30189 1.07408 0.77801 0.0
C529 C 0.27103 0.97266 0.68126 0.0
C530 C 0.22521 0.26307 0.69557 0.0
C531 C 0.22827 0.22854 0.73233 0.0
H532 H 0.20023 0.32338 0.67259 0.0
C533 C 0.19983 0.21511 0.77005 0.0
H534 H 0.24765 0.27494 0.6666 0.0
C535 C 0.17167 0.242 0.77321 0.0
C536 C 0.17274 0.28333 0.73913 0.0
H537 H 0.2022 0.18859 0.79867 0.0
H538 H 0.15128 0.2338 0.80358 0.0
C539 C 0.19815 0.29119 0.69925 0.0
C540 C 0.21279 0.51382 0.21066 0.0
C541 C 0.20052 0.45292 0.22797 0.0
H542 H 0.20204 0.56801 0.15829 0.0
C543 C 0.16921 0.3984 0.20117 0.0
H544 H 0.23735 0.55637 0.22902 0.0
C545 C 0.14935 0.40437 0.16044 0.0
C546 C 0.15977 0.46522 0.1444 0.0
H547 H 0.15864 0.35023 0.21258 0.0
H548 H 0.12477 0.36064 0.14206 0.0
C549 C 0.19234 0.52018 0.16984 0.0
C550 C 0.71873 0.74498 0.18539 0.0
C551 C 0.69694 0.76443 0.21834 0.0
H552 H 0.71813 0.70134 0.12034 0.0
C553 C 0.65412 0.75529 0.20562 0.0
H554 H 0.75171 0.75123 0.19241 0.0
C555 C 0.63395 0.72641 0.16126 0.0
C556 C 0.65591 0.70495 0.12933 0.0
H557 H 0.636 0.76942 0.23003 0.0
H558 H 0.60127 0.71998 0.15246 0.0
C559 C 0.69874 0.71552 0.14287 0.0
C560 C 0.47917 1.01125 0.18048 0.0
C561 C 0.49595 1.06552 0.15279 0.0
H562 H 0.4285 0.94976 0.22703 0.0
C563 C 0.47132 0.09914 0.15145 0.0
H564 H 0.49679 0.98377 0.18245 0.0
C565 C 0.43169 1.07926 0.1769 0.0
C566 C 0.4148 1.0248 0.20461 0.0
H567 H 0.4826 0.14099 0.13062 0.0
H568 H 0.41448 0.10731 0.17522 0.0
C569 C 0.43946 0.9912 0.20579 0.0
C570 C 0.53805 0.09115 0.85697 0.0
C571 C 0.56343 0.14529 0.88692 0.0
H572 H 0.48932 1.0479 0.80253 0.0
C573 C 0.5625 0.20299 0.87838 0.0
H574 H 0.53694 1.04549 0.86275 0.0
C575 C 0.53556 0.20506 0.84166 0.0
C576 C 0.50803 0.14895 0.81387 0.0
H577 H 0.58029 0.24512 0.90166 0.0
H578 H 0.53483 0.24953 0.83638 0.0
C579 C 0.51021 0.09249 0.82222 0.0
C580 C 0.99587 0.46181 0.86773 0.0
C581 C 1.00641 0.42627 0.8989 0.0
H582 H 0.96392 0.46064 0.80247 0.0
C583 C 0.98651 0.35923 0.88971 0.0
H584 H 1.01119 0.51375 0.87288 0.0
C585 C 0.95808 0.32861 0.85088 0.0
C586 C 0.94969 0.36371 0.81755 0.0
H587 H 0.99457 0.33017 0.91174 0.0
H588 H 0.9459 0.27733 0.84455 0.0
C589 C 0.96819 0.43103 0.82736 0.0
C590 C 0.79326 0.78434 0.81615 0.0
C591 C 0.81841 0.75332 0.82667 0.0
H592 H 0.73218 0.78893 0.82484 0.0
C593 C 0.79911 0.70315 0.85818 0.0
H594 H 0.80565 0.82206 0.79143 0.0
C595 C 0.75681 0.68478 0.87827 0.0
C596 C 0.73176 0.7158 0.8676 0.0
H597 H 0.81644 0.67678 0.86669 0.0
H598 H 0.74307 0.64478 0.90109 0.0
C599 C 0.75077 0.76532 0.83564 0.0
C600 C 0.83501 0.87933 0.51837 0.0
C601 C 0.8078 0.82432 0.48925 0.0
H602 H 0.8809 0.91786 0.57793 0.0
C603 C 0.80903 0.76698 0.4977 0.0
H604 H 0.83574 0.92475 0.51283 0.0
C605 C 0.83614 0.76405 0.53258 0.0
C606 C 0.86291 0.81771 0.56227 0.0
H607 H 0.78884 0.72303 0.47688 0.0
H608 H 0.83475 0.71799 0.53739 0.0
C609 C 0.86201 0.87588 0.55483 0.0
C610 C 0.32895 1.07799 0.49015 0.0
C611 C 0.33603 1.02995 0.46696 0.0
H612 H 0.34276 0.14186 0.55109 0.0
C613 C 0.36224 1.00842 0.48973 0.0
H614 H 0.30922 0.09618 0.47342 0.0
C615 C 0.38225 1.0357 0.53326 0.0
C616 C 0.37626 0.08481 0.55619 0.0
H617 H 0.3693 0.97267 0.47288 0.0
H618 H 0.40314 1.01849 0.54875 0.0
C619 C 0.3483 0.10448 0.53458 0.0
C620 C 1.05442 0.33476 0.53119 0.0
C621 C 1.06427 0.37892 0.56923 0.0
H622 H 1.07677 0.30993 0.46782 0.0
C623 C 0.10869 0.43147 0.57274 0.0
H624 H 1.02142 0.29334 0.527 0.0
C625 C 0.14102 0.44133 0.5385 0.0
C626 C 0.13056 0.39834 0.49958 0.0
H627 H 0.11833 0.46676 0.60157 0.0
H628 H 0.17322 0.48457 0.5412 0.0
C629 C 0.08686 0.34407 0.49747 0.0
loop_
_geom_bond_atom_site_label_1
_geom_bond_atom_site_label_2
_geom_bond_distance
_geom_bond_site_symmetry_2
_ccdc_geom_bond_type
Eu0 C9 2.828 . S
Eu0 O11 2.392 1_655 S
Eu0 O13 2.418 1_655 S
Eu0 O18 2.373 . S
Eu0 O21 2.488 . S
Eu0 O22 2.471 1_554 S
Eu0 O23 2.349 1_554 S
Eu1 O10 2.373 1_554 S
Eu1 O14 2.488 1_554 S
Eu1 O15 2.471 . S
Eu1 O16 2.349 . S
Eu1 O19 2.392 1_455 S
Eu1 O20 2.418 1_554 S
Eu1 C30 2.828 . S
C2 O20 1.244 1_655 S
C2 O23 1.265 . S
C3 C4 1.379 1_554 S
C3 C7 1.373 . S
C3 C9 1.505 . S
C4 C3 1.379 1_556 S
C4 C6 1.369 . S
C4 H32 0.930 . S
C5 C7 1.383 . S
C5 C8 1.382 . S
C5 H33 0.930 . S
C6 C4 1.369 . S
C6 C8 1.392 1_556 S
C6 H34 0.930 . S
C7 C3 1.373 . S
C7 C5 1.383 . S
C7 H35 0.931 . S
C8 C5 1.382 . S
C8 C6 1.392 1_554 S
C9 Eu0 2.828 . S
C9 C3 1.505 . S
C9 O21 1.249 . S
C9 O22 1.244 1_554 S
O10 Eu1 2.373 1_556 S
O10 C12 1.258 1_556 S
O11 Eu0 2.392 1_455 S
O11 C12 1.242 . S
C12 O10 1.258 1_554 S
C12 O11 1.242 . S
O13 Eu0 2.418 1_455 S
O13 C17 1.244 . S
O14 Eu1 2.488 1_556 S
O14 C30 1.249 1_556 S
O15 Eu1 2.471 . S
O15 C30 1.244 . S
O16 Eu1 2.349 . S
O16 C17 1.265 . S
C17 O13 1.244 . S
C17 O16 1.265 . S
O18 Eu0 2.373 . S
O18 C31 1.258 . S
O19 Eu1 2.392 1_655 S
O19 C31 1.242 . S
O20 Eu1 2.418 1_556 S
O20 C2 1.244 1_455 S
O21 Eu0 2.488 . S
O21 C9 1.249 . S
O22 Eu0 2.471 1_556 S
O22 C9 1.244 1_556 S
O23 Eu0 2.349 1_556 S
O23 C2 1.265 . S
C24 C25 1.379 . S
C24 C28 1.373 1_554 S
C24 C30 1.505 . S
C25 C24 1.379 . S
C25 C27 1.369 . S
C25 H36 0.930 . S
C26 C28 1.383 . S
C26 C29 1.382 1_556 S
C26 H37 0.930 . S
C27 C25 1.369 . S
C27 C29 1.392 . S
C27 H38 0.930 . S
C28 C24 1.373 1_556 S
C28 C26 1.383 . S
C28 H39 0.931 . S
C29 C26 1.382 1_554 S
C29 C27 1.392 . S
C30 Eu1 2.828 . S
C30 O14 1.249 1_554 S
C30 O15 1.244 . S
C30 C24 1.505 . S
C31 O18 1.258 . S
C31 O19 1.242 . S
H32 C4 0.930 . S
H33 C5 0.930 . S
H34 C6 0.930 . S
H35 C7 0.931 . S
H36 C25 0.930 . S
H37 C26 0.930 . S
H38 C27 0.930 . S
H39 C28 0.931 . S
Eu40 C49 2.828 . S
Eu40 O51 2.392 . S
Eu40 O53 2.418 . S
Eu40 O58 2.373 . S
Eu40 O61 2.488 . S
Eu40 O62 2.471 1_556 S
Eu40 O63 2.349 1_556 S
Eu41 O50 2.373 . S
Eu41 O54 2.488 . S
Eu41 O55 2.471 1_554 S
Eu41 O56 2.349 1_554 S
Eu41 O59 2.392 . S
Eu41 O60 2.418 . S
Eu41 C70 2.828 . S
C42 O60 1.244 . S
C42 O63 1.265 . S
C43 C44 1.379 1_556 S
C43 C47 1.373 . S
C43 C49 1.505 . S
C44 C43 1.379 1_554 S
C44 C46 1.369 . S
C44 H72 0.930 . S
C45 C47 1.383 . S
C45 C48 1.382 . S
C45 H73 0.930 . S
C46 C44 1.369 . S
C46 C48 1.392 1_554 S
C46 H74 0.930 . S
C47 C43 1.373 . S
C47 C45 1.383 . S
C47 H75 0.931 . S
C48 C45 1.382 . S
C48 C46 1.392 1_556 S
C49 Eu40 2.828 . S
C49 C43 1.505 . S
C49 O61 1.249 . S
C49 O62 1.244 1_556 S
O50 Eu41 2.373 . S
O50 C52 1.258 . S
O51 Eu40 2.392 . S
O51 C52 1.242 1_556 S
C52 O50 1.258 . S
C52 O51 1.242 1_554 S
O53 Eu40 2.418 . S
O53 C57 1.244 . S
O54 Eu41 2.488 . S
O54 C70 1.249 . S
O55 Eu41 2.471 1_556 S
O55 C70 1.244 1_556 S
O56 Eu41 2.349 1_556 S
O56 C57 1.265 . S
C57 O53 1.244 . S
C57 O56 1.265 . S
O58 Eu40 2.373 . S
O58 C71 1.258 . S
O59 Eu41 2.392 . S
O59 C71 1.242 1_554 S
O60 Eu41 2.418 . S
O60 C42 1.244 . S
O61 Eu40 2.488 . S
O61 C49 1.249 . S
O62 Eu40 2.471 1_554 S
O62 C49 1.244 1_554 S
O63 Eu40 2.349 1_554 S
O63 C42 1.265 . S
C64 C65 1.379 1_554 S
C64 C68 1.373 . S
C64 C70 1.505 . S
C65 C64 1.379 1_556 S
C65 C67 1.369 . S
C65 H76 0.930 . S
C66 C68 1.383 . S
C66 C69 1.382 . S
C66 H77 0.930 . S
C67 C65 1.369 . S
C67 C69 1.392 1_556 S
C67 H78 0.930 . S
C68 C64 1.373 . S
C68 C66 1.383 . S
C68 H79 0.931 . S
C69 C66 1.382 . S
C69 C67 1.392 1_554 S
C70 Eu41 2.828 . S
C70 O54 1.249 . S
C70 O55 1.244 1_554 S
C70 C64 1.505 . S
C71 O58 1.258 . S
C71 O59 1.242 1_556 S
H72 C44 0.930 . S
H73 C45 0.930 . S
H74 C46 0.930 . S
H75 C47 0.931 . S
H76 C65 0.930 . S
H77 C66 0.930 . S
H78 C67 0.930 . S
H79 C68 0.931 . S
Eu80 C89 2.828 . S
Eu80 O91 2.392 1_545 S
Eu80 O93 2.418 . S
Eu80 O98 2.373 . S
Eu80 O101 2.488 . S
Eu80 O102 2.471 1_554 S
Eu80 O103 2.349 1_554 S
Eu81 O90 2.373 . S
Eu81 O94 2.488 . S
Eu81 O95 2.471 1_556 S
Eu81 O96 2.349 1_556 S
Eu81 O99 2.392 1_566 S
Eu81 O100 2.418 . S
Eu81 C110 2.828 . S
C82 O100 1.244 1_545 S
C82 O103 1.265 . S
C83 C84 1.379 1_554 S
C83 C87 1.373 . S
C83 C89 1.505 . S
C84 C83 1.379 1_556 S
C84 C86 1.369 . S
C84 H112 0.930 . S
C85 C87 1.383 . S
C85 C88 1.382 . S
C85 H113 0.930 . S
C86 C84 1.369 . S
C86 C88 1.392 1_556 S
C86 H114 0.930 . S
C87 C83 1.373 . S
C87 C85 1.383 . S
C87 H115 0.931 . S
C88 C85 1.382 . S
C88 C86 1.392 1_554 S
C89 Eu80 2.828 . S
C89 C83 1.505 . S
C89 O101 1.249 . S
C89 O102 1.244 1_554 S
O90 Eu81 2.373 . S
O90 C92 1.258 1_556 S
O91 Eu80 2.392 1_565 S
O91 C92 1.242 . S
C92 O90 1.258 1_554 S
C92 O91 1.242 . S
O93 Eu80 2.418 . S
O93 C97 1.244 1_545 S
O94 Eu81 2.488 . S
O94 C110 1.249 . S
O95 Eu81 2.471 1_554 S
O95 C110 1.244 1_554 S
O96 Eu81 2.349 1_554 S
O96 C97 1.265 . S
C97 O93 1.244 1_565 S
C97 O96 1.265 . S
O98 Eu80 2.373 . S
O98 C111 1.258 . S
O99 Eu81 2.392 1_544 S
O99 C111 1.242 . S
O100 Eu81 2.418 . S
O100 C82 1.244 1_565 S
O101 Eu80 2.488 . S
O101 C89 1.249 . S
O102 Eu80 2.471 1_556 S
O102 C89 1.244 1_556 S
O103 Eu80 2.349 1_556 S
O103 C82 1.265 . S
C104 C105 1.379 1_556 S
C104 C108 1.373 . S
C104 C110 1.505 . S
C105 C104 1.379 1_554 S
C105 C107 1.369 . S
C105 H116 0.930 . S
C106 C108 1.383 . S
C106 C109 1.382 . S
C106 H117 0.930 . S
C107 C105 1.369 . S
C107 C109 1.392 1_554 S
C107 H118 0.930 . S
C108 C104 1.373 . S
C108 C106 1.383 . S
C108 H119 0.931 . S
C109 C106 1.382 . S
C109 C107 1.392 1_556 S
C110 Eu81 2.828 . S
C110 O94 1.249 . S
C110 O95 1.244 1_556 S
C110 C104 1.505 . S
C111 O98 1.258 . S
C111 O99 1.242 . S
H112 C84 0.930 . S
H113 C85 0.930 . S
H114 C86 0.930 . S
H115 C87 0.931 . S
H116 C105 0.930 . S
H117 C106 0.930 . S
H118 C107 0.930 . S
H119 C108 0.931 . S
Eu120 C129 2.828 . S
Eu120 O131 2.392 . S
Eu120 O133 2.418 . S
Eu120 O138 2.373 . S
Eu120 O141 2.488 . S
Eu120 O142 2.471 . S
Eu120 O143 2.349 . S
Eu121 O130 2.373 . S
Eu121 O134 2.488 . S
Eu121 O135 2.471 . S
Eu121 O136 2.349 . S
Eu121 O139 2.392 . S
Eu121 O140 2.418 . S
Eu121 C150 2.828 . S
C122 O140 1.244 . S
C122 O143 1.265 . S
C123 C124 1.379 . S
C123 C127 1.373 . S
C123 C129 1.505 . S
C124 C123 1.379 . S
C124 C126 1.369 . S
C124 H152 0.930 . S
C125 C127 1.383 . S
C125 C128 1.382 . S
C125 H153 0.930 . S
C126 C124 1.369 . S
C126 C128 1.392 . S
C126 H154 0.930 . S
C127 C123 1.373 . S
C127 C125 1.383 . S
C127 H155 0.931 . S
C128 C125 1.382 . S
C128 C126 1.392 . S
C129 Eu120 2.828 . S
C129 C123 1.505 . S
C129 O141 1.249 . S
C129 O142 1.244 . S
O130 Eu121 2.373 . S
O130 C132 1.258 . S
O131 Eu120 2.392 . S
O131 C132 1.242 . S
C132 O130 1.258 . S
C132 O131 1.242 . S
O133 Eu120 2.418 . S
O133 C137 1.244 . S
O134 Eu121 2.488 . S
O134 C150 1.249 . S
O135 Eu121 2.471 . S
O135 C150 1.244 . S
O136 Eu121 2.349 . S
O136 C137 1.265 . S
C137 O133 1.244 . S
C137 O136 1.265 . S
O138 Eu120 2.373 . S
O138 C151 1.258 . S
O139 Eu121 2.392 . S
O139 C151 1.242 . S
O140 Eu121 2.418 . S
O140 C122 1.244 . S
O141 Eu120 2.488 . S
O141 C129 1.249 . S
O142 Eu120 2.471 . S
O142 C129 1.244 . S
O143 Eu120 2.349 . S
O143 C122 1.265 . S
C144 C145 1.379 . S
C144 C148 1.373 . S
C144 C150 1.505 . S
C145 C144 1.379 . S
C145 C147 1.369 . S
C145 H156 0.930 . S
C146 C148 1.383 . S
C146 C149 1.382 . S
C146 H157 0.930 . S
C147 C145 1.369 . S
C147 C149 1.392 . S
C147 H158 0.930 . S
C148 C144 1.373 . S
C148 C146 1.383 . S
C148 H159 0.931 . S
C149 C146 1.382 . S
C149 C147 1.392 . S
C150 Eu121 2.828 . S
C150 O134 1.249 . S
C150 O135 1.244 . S
C150 C144 1.505 . S
C151 O138 1.258 . S
C151 O139 1.242 . S
H152 C124 0.930 . S
H153 C125 0.930 . S
H154 C126 0.930 . S
H155 C127 0.931 . S
H156 C145 0.930 . S
H157 C146 0.930 . S
H158 C147 0.930 . S
H159 C148 0.931 . S
Eu160 C169 2.828 . S
Eu160 O171 2.392 . S
Eu160 O173 2.418 . S
Eu160 O178 2.373 . S
Eu160 O181 2.488 . S
Eu160 O182 2.471 . S
Eu160 O183 2.349 . S
Eu161 O170 2.373 . S
Eu161 O174 2.488 1_565 S
Eu161 O175 2.471 1_565 S
Eu161 O176 2.349 . S
Eu161 O179 2.392 . S
Eu161 O180 2.418 . S
Eu161 C190 2.828 1_565 S
C162 O180 1.244 . S
C162 O183 1.265 . S
C163 C164 1.379 . S
C163 C167 1.373 . S
C163 C169 1.505 . S
C164 C163 1.379 . S
C164 C166 1.369 . S
C164 H192 0.930 . S
C165 C167 1.383 . S
C165 C168 1.382 . S
C165 H193 0.930 . S
C166 C164 1.369 . S
C166 C168 1.392 . S
C166 H194 0.930 . S
C167 C163 1.373 . S
C167 C165 1.383 . S
C167 H195 0.931 . S
C168 C165 1.382 . S
C168 C166 1.392 . S
C169 Eu160 2.828 . S
C169 C163 1.505 . S
C169 O181 1.249 . S
C169 O182 1.244 . S
O170 Eu161 2.373 . S
O170 C172 1.258 . S
O171 Eu160 2.392 . S
O171 C172 1.242 . S
C172 O170 1.258 . S
C172 O171 1.242 . S
O173 Eu160 2.418 . S
O173 C177 1.244 . S
O174 Eu161 2.488 1_545 S
O174 C190 1.249 . S
O175 Eu161 2.471 1_545 S
O175 C190 1.244 . S
O176 Eu161 2.349 . S
O176 C177 1.265 . S
C177 O173 1.244 . S
C177 O176 1.265 . S
O178 Eu160 2.373 . S
O178 C191 1.258 . S
O179 Eu161 2.392 . S
O179 C191 1.242 . S
O180 Eu161 2.418 . S
O180 C162 1.244 . S
O181 Eu160 2.488 . S
O181 C169 1.249 . S
O182 Eu160 2.471 . S
O182 C169 1.244 . S
O183 Eu160 2.349 . S
O183 C162 1.265 . S
C184 C185 1.379 . S
C184 C188 1.373 . S
C184 C190 1.505 . S
C185 C184 1.379 . S
C185 C187 1.369 . S
C185 H196 0.930 . S
C186 C188 1.383 . S
C186 C189 1.382 . S
C186 H197 0.930 . S
C187 C185 1.369 . S
C187 C189 1.392 . S
C187 H198 0.930 . S
C188 C184 1.373 . S
C188 C186 1.383 . S
C188 H199 0.931 . S
C189 C186 1.382 . S
C189 C187 1.392 . S
C190 Eu161 2.828 1_545 S
C190 O174 1.249 . S
C190 O175 1.244 . S
C190 C184 1.505 . S
C191 O178 1.258 . S
C191 O179 1.242 . S
H192 C164 0.930 . S
H193 C165 0.930 . S
H194 C166 0.930 . S
H195 C167 0.931 . S
H196 C185 0.930 . S
H197 C186 0.930 . S
H198 C187 0.930 . S
H199 C188 0.931 . S
Eu200 C209 2.828 . S
Eu200 O211 2.392 . S
Eu200 O213 2.418 . S
Eu200 O218 2.373 . S
Eu200 O221 2.488 . S
Eu200 O222 2.471 . S
Eu200 O223 2.349 . S
Eu201 O210 2.373 . S
Eu201 O214 2.488 . S
Eu201 O215 2.471 . S
Eu201 O216 2.349 . S
Eu201 O219 2.392 . S
Eu201 O220 2.418 . S
Eu201 C230 2.828 1_455 S
C202 O220 1.244 . S
C202 O223 1.265 . S
C203 C204 1.379 . S
C203 C207 1.373 . S
C203 C209 1.505 . S
C204 C203 1.379 . S
C204 C206 1.369 . S
C204 H232 0.930 . S
C205 C207 1.383 . S
C205 C208 1.382 . S
C205 H233 0.930 . S
C206 C204 1.369 . S
C206 C208 1.392 . S
C206 H234 0.930 . S
C207 C203 1.373 . S
C207 C205 1.383 . S
C207 H235 0.931 . S
C208 C205 1.382 . S
C208 C206 1.392 . S
C209 Eu200 2.828 . S
C209 C203 1.505 . S
C209 O221 1.249 . S
C209 O222 1.244 . S
O210 Eu201 2.373 . S
O210 C212 1.258 . S
O211 Eu200 2.392 . S
O211 C212 1.242 . S
C212 O210 1.258 . S
C212 O211 1.242 . S
O213 Eu200 2.418 . S
O213 C217 1.244 . S
O214 Eu201 2.488 . S
O214 C230 1.249 1_455 S
O215 Eu201 2.471 . S
O215 C230 1.244 1_455 S
O216 Eu201 2.349 . S
O216 C217 1.265 . S
C217 O213 1.244 . S
C217 O216 1.265 . S
O218 Eu200 2.373 . S
O218 C231 1.258 . S
O219 Eu201 2.392 . S
O219 C231 1.242 . S
O220 Eu201 2.418 . S
O220 C202 1.244 . S
O221 Eu200 2.488 . S
O221 C209 1.249 . S
O222 Eu200 2.471 . S
O222 C209 1.244 . S
O223 Eu200 2.349 . S
O223 C202 1.265 . S
C224 C225 1.379 . S
C224 C228 1.373 . S
C224 C230 1.505 . S
C225 C224 1.379 . S
C225 C227 1.369 . S
C225 H236 0.930 . S
C226 C228 1.383 . S
C226 C229 1.382 . S
C226 H237 0.930 . S
C227 C225 1.369 . S
C227 C229 1.392 . S
C227 H238 0.930 . S
C228 C224 1.373 . S
C228 C226 1.383 . S
C228 H239 0.931 . S
C229 C226 1.382 . S
C229 C227 1.392 . S
C230 Eu201 2.828 1_655 S
C230 O214 1.249 1_655 S
C230 O215 1.244 1_655 S
C230 C224 1.505 . S
C231 O218 1.258 . S
C231 O219 1.242 . S
H232 C204 0.930 . S
H233 C205 0.930 . S
H234 C206 0.930 . S
H235 C207 0.931 . S
H236 C225 0.930 . S
H237 C226 0.930 . S
H238 C227 0.930 . S
H239 C228 0.931 . S
Eu240 C249 2.828 . S
Eu240 O251 2.392 . S
Eu240 O253 2.418 . S
Eu240 O258 2.373 . S
Eu240 O261 2.488 . S
Eu240 O262 2.471 . S
Eu240 O263 2.349 . S
Eu241 O250 2.373 . S
Eu241 O254 2.488 . S
Eu241 O255 2.471 . S
Eu241 O256 2.349 . S
Eu241 O259 2.392 . S
Eu241 O260 2.418 . S
Eu241 C270 2.828 . S
C242 O260 1.244 . S
C242 O263 1.265 . S
C243 C244 1.379 . S
C243 C247 1.373 . S
C243 C249 1.505 . S
C244 C243 1.379 . S
C244 C246 1.369 . S
C244 H272 0.930 . S
C245 C247 1.383 . S
C245 C248 1.382 . S
C245 H273 0.930 . S
C246 C244 1.369 . S
C246 C248 1.392 . S
C246 H274 0.930 . S
C247 C243 1.373 . S
C247 C245 1.383 . S
C247 H275 0.931 . S
C248 C245 1.382 . S
C248 C246 1.392 . S
C249 Eu240 2.828 . S
C249 C243 1.505 . S
C249 O261 1.249 . S
C249 O262 1.244 . S
O250 Eu241 2.373 . S
O250 C252 1.258 . S
O251 Eu240 2.392 . S
O251 C252 1.242 . S
C252 O250 1.258 . S
C252 O251 1.242 . S
O253 Eu240 2.418 . S
O253 C257 1.244 . S
O254 Eu241 2.488 . S
O254 C270 1.249 . S
O255 Eu241 2.471 . S
O255 C270 1.244 . S
O256 Eu241 2.349 . S
O256 C257 1.265 . S
C257 O253 1.244 . S
C257 O256 1.265 . S
O258 Eu240 2.373 . S
O258 C271 1.258 . S
O259 Eu241 2.392 . S
O259 C271 1.242 . S
O260 Eu241 2.418 . S
O260 C242 1.244 . S
O261 Eu240 2.488 . S
O261 C249 1.249 . S
O262 Eu240 2.471 . S
O262 C249 1.244 . S
O263 Eu240 2.349 . S
O263 C242 1.265 . S
C264 C265 1.379 . S
C264 C268 1.373 . S
C264 C270 1.505 . S
C265 C264 1.379 . S
C265 C267 1.369 . S
C265 H276 0.930 . S
C266 C268 1.383 . S
C266 C269 1.382 . S
C266 H277 0.930 . S
C267 C265 1.369 . S
C267 C269 1.392 . S
C267 H278 0.930 . S
C268 C264 1.373 . S
C268 C266 1.383 . S
C268 H279 0.931 . S
C269 C266 1.382 . S
C269 C267 1.392 . S
C270 Eu241 2.828 . S
C270 O254 1.249 . S
C270 O255 1.244 . S
C270 C264 1.505 . S
C271 O258 1.258 . S
C271 O259 1.242 . S
H272 C244 0.930 . S
H273 C245 0.930 . S
H274 C246 0.930 . S
H275 C247 0.931 . S
H276 C265 0.930 . S
H277 C266 0.930 . S
H278 C267 0.930 . S
H279 C268 0.931 . S
Eu280 C289 2.828 . S
Eu280 O291 2.392 . S
Eu280 O293 2.418 . S
Eu280 O298 2.373 . S
Eu280 O301 2.488 . S
Eu280 O302 2.471 . S
Eu280 O303 2.349 . S
Eu281 O290 2.373 . S
Eu281 O294 2.488 1_655 S
Eu281 O295 2.471 1_655 S
Eu281 O296 2.349 . S
Eu281 O299 2.392 . S
Eu281 O300 2.418 . S
Eu281 C310 2.828 1_655 S
C282 O300 1.244 . S
C282 O303 1.265 . S
C283 C284 1.379 . S
C283 C287 1.373 . S
C283 C289 1.505 . S
C284 C283 1.379 . S
C284 C286 1.369 . S
C284 H312 0.930 . S
C285 C287 1.383 . S
C285 C288 1.382 . S
C285 H313 0.930 . S
C286 C284 1.369 . S
C286 C288 1.392 . S
C286 H314 0.930 . S
C287 C283 1.373 . S
C287 C285 1.383 . S
C287 H315 0.931 . S
C288 C285 1.382 . S
C288 C286 1.392 . S
C289 Eu280 2.828 . S
C289 C283 1.505 . S
C289 O301 1.249 . S
C289 O302 1.244 . S
O290 Eu281 2.373 . S
O290 C292 1.258 . S
O291 Eu280 2.392 . S
O291 C292 1.242 . S
C292 O290 1.258 . S
C292 O291 1.242 . S
O293 Eu280 2.418 . S
O293 C297 1.244 . S
O294 Eu281 2.488 1_455 S
O294 C310 1.249 . S
O295 Eu281 2.471 1_455 S
O295 C310 1.244 . S
O296 Eu281 2.349 . S
O296 C297 1.265 . S
C297 O293 1.244 . S
C297 O296 1.265 . S
O298 Eu280 2.373 . S
O298 C311 1.258 . S
O299 Eu281 2.392 . S
O299 C311 1.242 . S
O300 Eu281 2.418 . S
O300 C282 1.244 . S
O301 Eu280 2.488 . S
O301 C289 1.249 . S
O302 Eu280 2.471 . S
O302 C289 1.244 . S
O303 Eu280 2.349 . S
O303 C282 1.265 . S
C304 C305 1.379 . S
C304 C308 1.373 . S
C304 C310 1.505 . S
C305 C304 1.379 . S
C305 C307 1.369 . S
C305 H316 0.930 . S
C306 C308 1.383 . S
C306 C309 1.382 . S
C306 H317 0.930 . S
C307 C305 1.369 . S
C307 C309 1.392 . S
C307 H318 0.930 . S
C308 C304 1.373 . S
C308 C306 1.383 . S
C308 H319 0.931 . S
C309 C306 1.382 . S
C309 C307 1.392 . S
C310 Eu281 2.828 1_455 S
C310 O294 1.249 . S
C310 O295 1.244 . S
C310 C304 1.505 . S
C311 O298 1.258 . S
C311 O299 1.242 . S
H312 C284 0.930 . S
H313 C285 0.930 . S
H314 C286 0.930 . S
H315 C287 0.931 . S
H316 C305 0.930 . S
H317 C306 0.930 . S
H318 C307 0.930 . S
H319 C308 0.931 . S
Eu320 C329 2.828 . S
Eu320 O331 2.392 . S
Eu320 O333 2.418 . S
Eu320 O338 2.373 . S
Eu320 O341 2.488 . S
Eu320 O342 2.471 . S
Eu320 O343 2.349 . S
Eu321 O330 2.373 . S
Eu321 O334 2.488 . S
Eu321 O335 2.471 . S
Eu321 O336 2.349 . S
Eu321 O339 2.392 . S
Eu321 O340 2.418 . S
Eu321 C350 2.828 . S
C322 O340 1.244 . S
C322 O343 1.265 . S
C323 C324 1.379 . S
C323 C327 1.373 1_655 S
C323 C329 1.505 . S
C324 C323 1.379 . S
C324 C326 1.369 1_655 S
C324 H352 0.930 . S
C325 C327 1.383 . S
C325 C328 1.382 . S
C325 H353 0.930 . S
C326 C324 1.369 1_455 S
C326 C328 1.392 . S
C326 H354 0.930 . S
C327 C323 1.373 1_455 S
C327 C325 1.383 . S
C327 H355 0.928 . S
C328 C325 1.382 . S
C328 C326 1.392 . S
C329 Eu320 2.828 . S
C329 C323 1.505 . S
C329 O341 1.249 . S
C329 O342 1.244 . S
O330 Eu321 2.373 . S
O330 C332 1.258 . S
O331 Eu320 2.392 . S
O331 C332 1.242 . S
C332 O330 1.258 . S
C332 O331 1.242 . S
O333 Eu320 2.418 . S
O333 C337 1.244 . S
O334 Eu321 2.488 . S
O334 C350 1.249 . S
O335 Eu321 2.471 . S
O335 C350 1.244 . S
O336 Eu321 2.349 . S
O336 C337 1.265 . S
C337 O333 1.244 . S
C337 O336 1.265 . S
O338 Eu320 2.373 . S
O338 C351 1.258 . S
O339 Eu321 2.392 . S
O339 C351 1.242 . S
O340 Eu321 2.418 . S
O340 C322 1.244 . S
O341 Eu320 2.488 . S
O341 C329 1.249 . S
O342 Eu320 2.471 . S
O342 C329 1.244 . S
O343 Eu320 2.349 . S
O343 C322 1.265 . S
C344 C345 1.379 . S
C344 C348 1.373 . S
C344 C350 1.505 . S
C345 C344 1.379 . S
C345 C347 1.369 . S
C345 H356 0.930 . S
C346 C348 1.383 . S
C346 C349 1.382 . S
C346 H357 0.930 . S
C347 C345 1.369 . S
C347 C349 1.392 . S
C347 H358 0.930 . S
C348 C344 1.373 . S
C348 C346 1.383 . S
C348 H359 0.931 . S
C349 C346 1.382 . S
C349 C347 1.392 . S
C350 Eu321 2.828 . S
C350 O334 1.249 . S
C350 O335 1.244 . S
C350 C344 1.505 . S
C351 O338 1.258 . S
C351 O339 1.242 . S
H352 C324 0.930 . S
H353 C325 0.930 . S
H354 C326 0.930 . S
H355 C327 0.928 . S
H356 C345 0.930 . S
H357 C346 0.930 . S
H358 C347 0.930 . S
H359 C348 0.931 . S
C360 C361 1.387 1_554 S
C360 H364 0.950 . S
C360 C369 1.390 . S
C361 C360 1.387 1_556 S
C361 C363 1.387 . S
H362 C369 0.950 . S
C363 C361 1.387 . S
C363 C365 1.390 . S
C363 H367 0.950 . S
H364 C360 0.950 . S
C365 C363 1.390 . S
C365 C366 1.378 1_556 S
C365 H368 0.950 . S
C366 C365 1.378 1_554 S
C366 C369 1.394 . S
H367 C363 0.950 . S
H368 C365 0.950 . S
C369 C360 1.390 . S
C369 H362 0.950 . S
C369 C366 1.394 . S
C370 C371 1.387 . S
C370 H374 0.950 . S
C370 C379 1.390 . S
C371 C370 1.387 . S
C371 C373 1.387 1_556 S
H372 C379 0.950 . S
C373 C371 1.387 1_554 S
C373 C375 1.390 . S
C373 H377 0.950 . S
H374 C370 0.950 . S
C375 C373 1.390 . S
C375 C376 1.387 1_554 S
C375 H378 0.950 . S
C376 C375 1.387 1_556 S
C376 C379 1.387 . S
H377 C373 0.950 . S
H378 C375 0.950 . S
C379 C370 1.390 . S
C379 H372 0.950 . S
C379 C376 1.387 . S
C380 C381 1.387 . S
C380 H384 0.950 . S
C380 C389 1.390 . S
C381 C380 1.387 . S
C381 C383 1.387 1_556 S
H382 C389 0.950 . S
C383 C381 1.387 1_554 S
C383 C385 1.390 . S
C383 H387 0.950 . S
H384 C380 0.950 . S
C385 C383 1.390 . S
C385 C386 1.387 . S
C385 H388 0.950 . S
C386 C385 1.387 . S
C386 C389 1.387 1_554 S
H387 C383 0.950 . S
H388 C385 0.950 . S
C389 C380 1.390 . S
C389 H382 0.950 . S
C389 C386 1.387 1_556 S
C390 C391 1.387 . S
C390 H394 0.950 . S
C390 C399 1.390 . S
C391 C390 1.387 . S
C391 C393 1.387 1_554 S
H392 C399 0.950 . S
C393 C391 1.387 1_556 S
C393 C395 1.390 . S
C393 H397 0.950 . S
H394 C390 0.950 . S
C395 C393 1.390 . S
C395 C396 1.387 1_556 S
C395 H398 0.950 . S
C396 C395 1.387 1_554 S
C396 C399 1.387 . S
H397 C393 0.950 . S
H398 C395 0.950 . S
C399 C390 1.390 . S
C399 H392 0.950 . S
C399 C396 1.387 . S
C400 C401 1.387 . S
C400 H404 0.950 . S
C400 C409 1.390 . S
C401 C400 1.387 . S
C401 C403 1.387 1_554 S
H402 C409 0.950 . S
C403 C401 1.387 1_556 S
C403 C405 1.390 . S
C403 H407 0.950 . S
H404 C400 0.950 . S
C405 C403 1.390 . S
C405 C406 1.387 1_556 S
C405 H408 0.950 . S
C406 C405 1.387 1_554 S
C406 C409 1.387 . S
H407 C403 0.950 . S
H408 C405 0.950 . S
C409 C400 1.390 . S
C409 H402 0.950 . S
C409 C406 1.387 . S
C410 C411 1.387 . S
C410 H414 0.950 . S
C410 C419 1.390 . S
C411 C410 1.387 . S
C411 C413 1.387 . S
H412 C419 0.950 . S
C413 C411 1.387 . S
C413 C415 1.390 . S
C413 H417 0.950 . S
H414 C410 0.950 . S
C415 C413 1.390 . S
C415 C416 1.387 . S
C415 H418 0.950 . S
C416 C415 1.387 . S
C416 C419 1.387 . S
H417 C413 0.950 . S
H418 C415 0.950 . S
C419 C410 1.390 . S
C419 H412 0.950 . S
C419 C416 1.387 . S
C420 C421 1.387 1_455 S
C420 H424 0.950 1_455 S
C420 C429 1.390 . S
C421 C420 1.387 1_655 S
C421 C423 1.387 1_655 S
H422 C429 0.950 . S
C423 C421 1.387 1_455 S
C423 C425 1.390 . S
C423 H427 0.950 1_455 S
H424 C420 0.950 1_655 S
C425 C423 1.390 . S
C425 C426 1.387 . S
C425 H428 0.950 . S
C426 C425 1.387 . S
C426 C429 1.387 . S
H427 C423 0.950 1_655 S
H428 C425 0.950 . S
C429 C420 1.390 . S
C429 H422 0.950 . S
C429 C426 1.387 . S
C430 C431 1.387 . S
C430 H434 0.950 . S
C430 C439 1.390 . S
C431 C430 1.387 . S
C431 C433 1.387 . S
H432 C439 0.950 . S
C433 C431 1.387 . S
C433 C435 1.390 . S
C433 H437 0.950 . S
H434 C430 0.950 . S
C435 C433 1.390 . S
C435 C436 1.387 . S
C435 H438 0.950 . S
C436 C435 1.387 . S
C436 C439 1.387 . S
H437 C433 0.950 . S
H438 C435 0.950 . S
C439 C430 1.390 . S
C439 H432 0.950 . S
C439 C436 1.387 . S
C440 C441 1.381 1_565 S
C440 H444 0.950 . S
C440 C449 1.390 . S
C441 C440 1.381 1_545 S
C441 C443 1.384 1_545 S
H442 C449 0.950 . S
C443 C441 1.384 1_565 S
C443 C445 1.390 . S
C443 H447 0.950 1_565 S
H444 C440 0.950 . S
C445 C443 1.390 . S
C445 C446 1.387 . S
C445 H448 0.950 . S
C446 C445 1.387 . S
C446 C449 1.387 . S
H447 C443 0.950 1_545 S
H448 C445 0.950 . S
C449 C440 1.390 . S
C449 H442 0.950 . S
C449 C446 1.387 . S
C450 C451 1.387 . S
C450 H454 0.950 . S
C450 C459 1.390 . S
C451 C450 1.387 . S
C451 C453 1.387 . S
H452 C459 0.950 . S
C453 C451 1.387 . S
C453 C455 1.390 . S
C453 H457 0.950 . S
H454 C450 0.950 . S
C455 C453 1.390 . S
C455 C456 1.387 . S
C455 H458 0.950 . S
C456 C455 1.387 . S
C456 C459 1.387 . S
H457 C453 0.950 . S
H458 C455 0.950 . S
C459 C450 1.390 . S
C459 H452 0.950 . S
C459 C456 1.387 . S
C460 C461 1.387 . S
C460 H464 0.950 . S
C460 C469 1.390 . S
C461 C460 1.387 . S
C461 C463 1.387 . S
H462 C469 0.950 . S
C463 C461 1.387 . S
C463 C465 1.390 . S
C463 H467 0.950 . S
H464 C460 0.950 . S
C465 C463 1.390 . S
C465 C466 1.387 . S
C465 H468 0.950 . S
C466 C465 1.387 . S
C466 C469 1.387 . S
H467 C463 0.950 . S
H468 C465 0.950 . S
C469 C460 1.390 . S
C469 H462 0.950 . S
C469 C466 1.387 . S
C470 C471 1.387 . S
C470 H474 0.950 . S
C470 C479 1.390 . S
C471 C470 1.387 . S
C471 C473 1.387 . S
H472 C479 0.950 . S
C473 C471 1.387 . S
C473 C475 1.390 . S
C473 H477 0.950 . S
H474 C470 0.950 . S
C475 C473 1.390 . S
C475 C476 1.387 . S
C475 H478 0.950 . S
C476 C475 1.387 . S
C476 C479 1.387 . S
H477 C473 0.950 . S
H478 C475 0.950 . S
C479 C470 1.390 . S
C479 H472 0.950 . S
C479 C476 1.387 . S
C480 C481 1.387 . S
C480 H484 0.950 . S
C480 C489 1.390 . S
C481 C480 1.387 . S
C481 C483 1.387 . S
H482 C489 0.950 . S
C483 C481 1.387 . S
C483 C485 1.390 . S
C483 H487 0.950 . S
H484 C480 0.950 . S
C485 C483 1.390 . S
C485 C486 1.387 . S
C485 H488 0.950 . S
C486 C485 1.387 . S
C486 C489 1.387 . S
H487 C483 0.950 . S
H488 C485 0.950 . S
C489 C480 1.390 . S
C489 H482 0.950 . S
C489 C486 1.387 . S
C490 C491 1.387 . S
C490 H494 0.950 . S
C490 C499 1.390 . S
C491 C490 1.387 . S
C491 C493 1.387 . S
H492 C499 0.950 . S
C493 C491 1.387 . S
C493 C495 1.390 . S
C493 H497 0.950 . S
H494 C490 0.950 . S
C495 C493 1.390 . S
C495 C496 1.387 . S
C495 H498 0.950 . S
C496 C495 1.387 . S
C496 C499 1.387 . S
H497 C493 0.950 . S
H498 C495 0.950 . S
C499 C490 1.390 . S
C499 H492 0.950 . S
C499 C496 1.387 . S
C500 C501 1.387 . S
C500 H504 0.950 . S
C500 C509 1.390 . S
C501 C500 1.387 . S
C501 C503 1.387 . S
H502 C509 0.950 . S
C503 C501 1.387 . S
C503 C505 1.390 . S
C503 H507 0.950 . S
H504 C500 0.950 . S
C505 C503 1.390 . S
C505 C506 1.387 . S
C505 H508 0.950 . S
C506 C505 1.387 . S
C506 C509 1.387 . S
H507 C503 0.950 . S
H508 C505 0.950 . S
C509 C500 1.390 . S
C509 H502 0.950 . S
C509 C506 1.387 . S
C510 C511 1.387 . S
C510 H514 0.950 . S
C510 C519 1.390 . S
C511 C510 1.387 . S
C511 C513 1.387 . S
H512 C519 0.950 1_545 S
C513 C511 1.387 . S
C513 C515 1.390 . S
C513 H517 0.950 . S
H514 C510 0.950 . S
C515 C513 1.390 . S
C515 C516 1.387 1_565 S
C515 H518 0.950 . S
C516 C515 1.387 1_545 S
C516 C519 1.387 1_545 S
H517 C513 0.950 . S
H518 C515 0.950 . S
C519 C510 1.390 . S
C519 H512 0.950 1_565 S
C519 C516 1.387 1_565 S
C520 C521 1.388 . S
C520 H524 0.950 . S
C520 C529 1.390 . S
C521 C520 1.388 . S
C521 C523 1.385 1_545 S
H522 C529 0.950 . S
C523 C521 1.385 1_565 S
C523 C525 1.390 . S
C523 H527 0.950 . S
H524 C520 0.950 . S
C525 C523 1.390 . S
C525 C526 1.387 . S
C525 H528 0.950 . S
C526 C525 1.387 . S
C526 C529 1.387 1_565 S
H527 C523 0.950 . S
H528 C525 0.950 . S
C529 C520 1.390 . S
C529 H522 0.950 . S
C529 C526 1.387 1_545 S
C530 C531 1.387 . S
C530 H534 0.950 . S
C530 C539 1.390 . S
C531 C530 1.387 . S
C531 C533 1.387 . S
H532 C539 0.950 . S
C533 C531 1.387 . S
C533 C535 1.390 . S
C533 H537 0.950 . S
H534 C530 0.950 . S
C535 C533 1.390 . S
C535 C536 1.387 . S
C535 H538 0.950 . S
C536 C535 1.387 . S
C536 C539 1.387 . S
H537 C533 0.950 . S
H538 C535 0.950 . S
C539 C530 1.390 . S
C539 H532 0.950 . S
C539 C536 1.387 . S
C540 C541 1.387 . S
C540 H544 0.950 . S
C540 C549 1.390 . S
C541 C540 1.387 . S
C541 C543 1.387 . S
H542 C549 0.950 . S
C543 C541 1.387 . S
C543 C545 1.390 . S
C543 H547 0.950 . S
H544 C540 0.950 . S
C545 C543 1.390 . S
C545 C546 1.387 . S
C545 H548 0.950 . S
C546 C545 1.387 . S
C546 C549 1.387 . S
H547 C543 0.950 . S
H548 C545 0.950 . S
C549 C540 1.390 . S
C549 H542 0.950 . S
C549 C546 1.387 . S
C550 C551 1.387 . S
C550 H554 0.950 . S
C550 C559 1.390 . S
C551 C550 1.387 . S
C551 C553 1.387 . S
H552 C559 0.950 . S
C553 C551 1.387 . S
C553 C555 1.390 . S
C553 H557 0.950 . S
H554 C550 0.950 . S
C555 C553 1.390 . S
C555 C556 1.387 . S
C555 H558 0.950 . S
C556 C555 1.387 . S
C556 C559 1.387 . S
H557 C553 0.950 . S
H558 C555 0.950 . S
C559 C550 1.390 . S
C559 H552 0.950 . S
C559 C556 1.387 . S
C560 C561 1.387 . S
C560 H564 0.950 . S
C560 C569 1.390 . S
C561 C560 1.387 . S
C561 C563 1.387 . S
H562 C569 0.950 . S
C563 C561 1.387 . S
C563 C565 1.390 . S
C563 H567 0.958 . S
H564 C560 0.950 . S
C565 C563 1.390 . S
C565 C566 1.387 . S
C565 H568 0.950 . S
C566 C565 1.387 . S
C566 C569 1.387 . S
H567 C563 0.958 . S
H568 C565 0.950 . S
C569 C560 1.390 . S
C569 H562 0.950 . S
C569 C566 1.387 . S
C570 C571 1.387 . S
C570 H574 0.950 1_545 S
C570 C579 1.390 . S
C571 C570 1.387 . S
C571 C573 1.387 . S
H572 C579 0.950 . S
C573 C571 1.387 . S
C573 C575 1.390 . S
C573 H577 0.950 . S
H574 C570 0.950 1_565 S
C575 C573 1.390 . S
C575 C576 1.387 . S
C575 H578 0.950 . S
C576 C575 1.387 . S
C576 C579 1.387 . S
H577 C573 0.950 . S
H578 C575 0.950 . S
C579 C570 1.390 . S
C579 H572 0.950 . S
C579 C576 1.387 . S
C580 C581 1.387 . S
C580 H584 0.950 . S
C580 C589 1.390 . S
C581 C580 1.387 . S
C581 C583 1.387 . S
H582 C589 0.950 . S
C583 C581 1.387 . S
C583 C585 1.390 . S
C583 H587 0.950 . S
H584 C580 0.950 . S
C585 C583 1.390 . S
C585 C586 1.387 . S
C585 H588 0.950 . S
C586 C585 1.387 . S
C586 C589 1.387 . S
H587 C583 0.950 . S
H588 C585 0.950 . S
C589 C580 1.390 . S
C589 H582 0.950 . S
C589 C586 1.387 . S
C590 C591 1.387 . S
C590 H594 0.950 . S
C590 C599 1.390 . S
C591 C590 1.387 . S
C591 C593 1.387 . S
H592 C599 0.950 . S
C593 C591 1.387 . S
C593 C595 1.390 . S
C593 H597 0.950 . S
H594 C590 0.950 . S
C595 C593 1.390 . S
C595 C596 1.387 . S
C595 H598 0.950 . S
C596 C595 1.387 . S
C596 C599 1.387 . S
H597 C593 0.950 . S
H598 C595 0.950 . S
C599 C590 1.390 . S
C599 H592 0.950 . S
C599 C596 1.387 . S
C600 C601 1.387 . S
C600 H604 0.950 . S
C600 C609 1.390 . S
C601 C600 1.387 . S
C601 C603 1.387 . S
H602 C609 0.950 . S
C603 C601 1.387 . S
C603 C605 1.390 . S
C603 H607 0.950 . S
H604 C600 0.950 . S
C605 C603 1.390 . S
C605 C606 1.387 . S
C605 H608 0.950 . S
C606 C605 1.387 . S
C606 C609 1.387 . S
H607 C603 0.950 . S
H608 C605 0.950 . S
C609 C600 1.390 . S
C609 H602 0.950 . S
C609 C606 1.387 . S
C610 C611 1.387 . S
C610 H614 0.950 . S
C610 C619 1.390 1_565 S
C611 C610 1.387 . S
C611 C613 1.387 . S
H612 C619 0.950 . S
C613 C611 1.387 . S
C613 C615 1.390 1_565 S
C613 H617 0.950 . S
H614 C610 0.950 . S
C615 C613 1.390 1_545 S
C615 C616 1.387 . S
C615 H618 0.950 . S
C616 C615 1.387 . S
C616 C619 1.387 . S
H617 C613 0.950 . S
H618 C615 0.950 . S
C619 C610 1.390 1_545 S
C619 H612 0.950 . S
C619 C616 1.387 . S
C620 C621 1.387 . S
C620 H624 0.950 . S
C620 C629 1.390 1_655 S
C621 C620 1.387 . S
C621 C623 1.387 1_655 S
H622 C629 0.950 . S
C623 C621 1.387 1_455 S
C623 C625 1.390 . S
C623 H627 0.950 . S
H624 C620 0.950 . S
C625 C623 1.390 . S
C625 C626 1.387 . S
C625 H628 0.950 . S
C626 C625 1.387 . S
C626 C629 1.387 . S
H627 C623 0.950 . S
H628 C625 0.950 . S
C629 C620 1.390 1_455 S
C629 H622 0.950 . S
C629 C626 1.387 . S
C361 C48 1.046 . S
C366 C29 1.222 . S
C371 C92 3.492 1_556 S
C376 C71 3.568 . S
C381 C109 1.143 . S
C386 C12 1.137 . S
C391 C111 3.182 . S
C396 C52 3.152 . S
C401 C88 2.453 . S
C406 C31 2.626 . S
C411 C8 0.778 . S
C416 C69 0.718 . S
C421 C149 3.045 . S
C426 C172 2.989 . S
C431 C212 1.139 . S
C436 C189 1.294 . S
C441 C229 0.978 . S
C446 C132 0.963 . S
C451 C168 0.796 . S
C456 C231 0.859 . S
C461 C208 2.481 . S
C466 C151 2.645 . S
C471 C191 2.493 . S
C476 C128 2.462 . S
C481 C288 0.997 . S
C486 C269 1.166 . S
C491 C311 3.586 . S
C496 C332 3.510 . S
C501 C349 1.153 . S
C506 C252 1.146 . S
C511 C351 3.114 . S
C516 C292 3.085 . S
C521 C328 2.462 1_545 S
C526 C271 2.635 1_565 S
C531 C248 0.786 . S
C536 C309 0.705 . S
C541 C202 2.308 . S
C546 C17 2.777 . S
C551 C122 1.978 . S
C556 C42 1.912 . S
C561 C97 3.256 . S
C566 C162 2.886 . S
C571 C82 2.322 . S
C576 C257 2.777 . S
C581 C2 1.870 . S
C586 C282 1.798 . S
C591 C337 3.179 . S
C596 C57 3.190 . S
C601 C137 2.864 . S
C606 C322 2.398 . S
C611 C177 2.113 . S
C616 C242 1.841 . S
C621 C297 3.100 . S
C626 C217 3.085 . S
