# Generated by pormake.
# Topology wka, (5)-cn, num edge types: 1
# Building blocks:
#     Node 0, Type 0, BuildingBlock: BEQFEK_clean_sbu_0, # of connection points: 5
#     Node 1, Type 0, BuildingBlock: BEQFEK_clean_sbu_0, # of connection points: 5
#     Node 2, Type 0, BuildingBlock: BEQFEK_clean_sbu_0, # of connection points: 5
#     Node 3, Type 0, BuildingBlock: BEQFEK_clean_sbu_0, # of connection points: 5
#     Node 4, Type 0, BuildingBlock: BEQFEK_clean_sbu_0, # of connection points: 5
#     Node 5, Type 0, BuildingBlock: BEQFEK_clean_sbu_0, # of connection points: 5
#     Node 6, Type 0, BuildingBlock: BEQFEK_clean_sbu_0, # of connection points: 5
#     Node 7, Type 0, BuildingBlock: BEQFEK_clean_sbu_0, # of connection points: 5
#     Node 8, Type 0, BuildingBlock: BEQFEK_clean_sbu_0, # of connection points: 5
#     Node 9, Type 0, BuildingBlock: BEQFEK_clean_sbu_0, # of connection points: 5
#     Node 10, Type 0, BuildingBlock: BEQFEK_clean_sbu_0, # of connection points: 5
#     Node 11, Type 0, BuildingBlock: BEQFEK_clean_sbu_0, # of connection points: 5
#     Edge 12, Type (0, 0), BuildingBlock: MIFKUJ_clean_linker_0, # of connection points: 2
#     Edge 13, Type (0, 0), BuildingBlock: MIFKUJ_clean_linker_0, # of connection points: 2
#     Edge 14, Type (0, 0), BuildingBlock: MIFKUJ_clean_linker_0, # of connection points: 2
#     Edge 15, Type (0, 0), BuildingBlock: MIFKUJ_clean_linker_0, # of connection points: 2
#     Edge 16, Type (0, 0), BuildingBlock: MIFKUJ_clean_linker_0, # of connection points: 2
#     Edge 17, Type (0, 0), BuildingBlock: MIFKUJ_clean_linker_0, # of connection points: 2
#     Edge 18, Type (0, 0), BuildingBlock: MIFKUJ_clean_linker_0, # of connection points: 2
#     Edge 19, Type (0, 0), BuildingBlock: MIFKUJ_clean_linker_0, # of connection points: 2
#     Edge 20, Type (0, 0), BuildingBlock: MIFKUJ_clean_linker_0, # of connection points: 2
#     Edge 21, Type (0, 0), BuildingBlock: MIFKUJ_clean_linker_0, # of connection points: 2
#     Edge 22, Type (0, 0), BuildingBlock: MIFKUJ_clean_linker_0, # of connection points: 2
#     Edge 23, Type (0, 0), BuildingBlock: MIFKUJ_clean_linker_0, # of connection points: 2
#     Edge 24, Type (0, 0), BuildingBlock: MIFKUJ_clean_linker_0, # of connection points: 2
#     Edge 25, Type (0, 0), BuildingBlock: MIFKUJ_clean_linker_0, # of connection points: 2
#     Edge 26, Type (0, 0), BuildingBlock: MIFKUJ_clean_linker_0, # of connection points: 2
#     Edge 27, Type (0, 0), BuildingBlock: MIFKUJ_clean_linker_0, # of connection points: 2
#     Edge 28, Type (0, 0), BuildingBlock: MIFKUJ_clean_linker_0, # of connection points: 2
#     Edge 29, Type (0, 0), BuildingBlock: MIFKUJ_clean_linker_0, # of connection points: 2
#     Edge 30, Type (0, 0), BuildingBlock: MIFKUJ_clean_linker_0, # of connection points: 2
#     Edge 31, Type (0, 0), BuildingBlock: MIFKUJ_clean_linker_0, # of connection points: 2
#     Edge 32, Type (0, 0), BuildingBlock: MIFKUJ_clean_linker_0, # of connection points: 2
#     Edge 33, Type (0, 0), BuildingBlock: MIFKUJ_clean_linker_0, # of connection points: 2
#     Edge 34, Type (0, 0), BuildingBlock: MIFKUJ_clean_linker_0, # of connection points: 2
#     Edge 35, Type (0, 0), BuildingBlock: MIFKUJ_clean_linker_0, # of connection points: 2
#     Edge 36, Type (0, 0), BuildingBlock: MIFKUJ_clean_linker_0, # of connection points: 2
#     Edge 37, Type (0, 0), BuildingBlock: MIFKUJ_clean_linker_0, # of connection points: 2
#     Edge 38, Type (0, 0), BuildingBlock: MIFKUJ_clean_linker_0, # of connection points: 2
#     Edge 39, Type (0, 0), BuildingBlock: MIFKUJ_clean_linker_0, # of connection points: 2
#     Edge 40, Type (0, 0), BuildingBlock: MIFKUJ_clean_linker_0, # of connection points: 2
#     Edge 41, Type (0, 0), BuildingBlock: MIFKUJ_clean_linker_0, # of connection points: 2
# Relax obj value: 0.359
# Max RMSD: 0.223
# Mean RMSD: 0.223
data_MOF--net-wka--node1-BEQFEK_clean_sbu_0--edge1-MIFKUJ_clean_linker_0
_symmetry_space_group_name_H-M    P1
_symmetry_Int_Tables_number       1
_symmetry_cell_setting            triclinic
loop_
_symmetry_equiv_pos_as_xyz
'x, y, z'
_cell_length_a     88.018059
_cell_length_b     88.031766
_cell_length_c     21.791827
_cell_angle_alpha  89.976652
_cell_angle_beta   90.014419
_cell_angle_gamma 120.01787
loop_
_atom_site_label
_atom_site_type_symbol
_atom_site_fract_x
_atom_site_fract_y
_atom_site_fract_z
_atom_type_partial_charge
Co0 Co 0.11511 0.44755 0.00258 0.0
Co1 Co 0.09704 0.43864 0.1304 0.0
C2 C 0.07594 0.42211 0.02239 0.0
O3 O 0.08953 0.43185 0.99084 0.0
O4 O 0.07657 0.42179 0.08059 0.0
C5 C 0.12054 0.43048 0.9079 0.0
O6 O 0.11294 0.41814 0.94965 0.0
C7 C 0.08253 0.42107 0.24788 0.0
C8 C 0.09069 0.44383 0.3092 0.0
C9 C 0.08273 0.42569 0.30894 0.0
N10 N 0.09037 0.43583 0.21423 0.0
N11 N 0.09485 0.44936 0.25093 0.0
C12 C 0.07447 0.40302 0.22098 0.0
H13 H 0.06175 0.39981 0.19968 0.0
H14 H 0.0829 0.40267 0.18382 0.0
H15 H 0.07191 0.39294 0.25623 0.0
C16 C 0.13999 0.43994 0.06788 0.0
N17 N 0.12478 0.4401 0.06546 0.0
N18 N 0.11724 0.43609 0.11977 0.0
C19 C 0.12749 0.43314 0.15858 0.0
C20 C 0.14221 0.43541 0.1268 0.0
C21 C 0.15319 0.44622 0.01702 0.0
H22 H 0.15225 0.45625 0.98908 0.0
H23 H 0.15048 0.43496 0.98702 0.0
H24 H 0.16673 0.45188 0.03529 0.0
O25 O 0.11902 0.47114 0.02214 0.0
O26 O 0.10337 0.46321 0.10839 0.0
H27 H 0.12213 0.43905 0.24859 0.0
H28 H 0.13372 0.42691 0.24841 0.0
C29 C 0.12351 0.42864 0.22508 0.0
H30 H 0.11099 0.41614 0.22916 0.0
H31 H 0.10147 0.46242 0.2366 0.0
O32 O 0.12445 0.44607 0.92174 0.0
C33 C 0.11222 0.4747 0.06763 0.0
Co34 Co 0.66937 0.11685 0.16989 0.0
Co35 Co 0.65827 0.09808 0.29597 0.0
C36 C 0.65467 0.07767 0.18605 0.0
O37 O 0.65945 0.09168 0.15631 0.0
O38 O 0.65451 0.07773 0.24428 0.0
C39 C 0.68982 0.1187 0.07555 0.0
O40 O 0.69427 0.1115 0.11971 0.0
C41 C 0.66133 0.08289 0.41105 0.0
C42 C 0.6402 0.08261 0.46659 0.0
C43 C 0.65341 0.07842 0.46815 0.0
N44 N 0.65321 0.08948 0.37733 0.0
N45 N 0.64043 0.08906 0.41043 0.0
C46 C 0.67569 0.08005 0.38751 0.0
H47 H 0.68052 0.08658 0.34242 0.0
H48 H 0.68669 0.08499 0.42067 0.0
H49 H 0.67051 0.06575 0.38206 0.0
C50 C 0.70153 0.14053 0.23886 0.0
N51 N 0.68592 0.12563 0.23476 0.0
N52 N 0.68136 0.11814 0.28911 0.0
C53 C 0.6939 0.12836 0.33005 0.0
C54 C 0.70715 0.14279 0.29944 0.0
C55 C 0.71044 0.15253 0.18562 0.0
H56 H 0.71373 0.14549 0.15072 0.0
H57 H 0.7228 0.16445 0.19884 0.0
H58 H 0.70134 0.15624 0.16409 0.0
O59 O 0.64951 0.12077 0.18707 0.0
O60 O 0.641 0.10562 0.27443 0.0
H61 H 0.70008 0.13864 0.42247 0.0
H62 H 0.6967 0.11692 0.41262 0.0
C63 C 0.69207 0.12599 0.39822 0.0
H64 H 0.67818 0.12043 0.412 0.0
H65 H 0.63206 0.09345 0.39506 0.0
O66 O 0.68046 0.12551 0.08917 0.0
C67 C 0.63899 0.11461 0.23252 0.0
Co68 Co 0.55511 0.66968 0.32629 0.0
Co69 Co 0.56347 0.65858 0.45169 0.0
C70 C 0.58235 0.65832 0.34125 0.0
O71 O 0.57271 0.66259 0.31133 0.0
O72 O 0.58111 0.65679 0.39928 0.0
C73 C 0.57142 0.69232 0.23202 0.0
O74 O 0.58395 0.69709 0.27304 0.0
C75 C 0.58178 0.66306 0.56794 0.0
C76 C 0.56032 0.644 0.62714 0.0
C77 C 0.57776 0.65722 0.62817 0.0
N78 N 0.56725 0.65407 0.53373 0.0
N79 N 0.55459 0.64239 0.56903 0.0
C80 C 0.59914 0.67662 0.54241 0.0
H81 H 0.60185 0.6716 0.49957 0.0
H82 H 0.59871 0.68861 0.53008 0.0
H83 H 0.60991 0.67998 0.57568 0.0
C84 C 0.56098 0.7006 0.39803 0.0
N85 N 0.56132 0.68553 0.39258 0.0
N86 N 0.56433 0.68085 0.4466 0.0
C87 C 0.56559 0.69275 0.48864 0.0
C88 C 0.56379 0.70575 0.45908 0.0
C89 C 0.55771 0.7096 0.34552 0.0
H90 H 0.54645 0.69984 0.31793 0.0
H91 H 0.56946 0.71567 0.31557 0.0
H92 H 0.55522 0.72015 0.36073 0.0
O93 O 0.53206 0.64836 0.34291 0.0
O94 O 0.53955 0.63976 0.42822 0.0
H95 H 0.55786 0.67637 0.56905 0.0
H96 H 0.55974 0.69749 0.5806 0.0
C97 C 0.56553 0.69044 0.55676 0.0
H98 H 0.57918 0.69596 0.57327 0.0
H99 H 0.5418 0.63392 0.55409 0.0
O100 O 0.55582 0.68095 0.24714 0.0
C101 C 0.52841 0.63734 0.3864 0.0
Co102 Co 0.89009 0.55728 0.5045 0.0
Co103 Co 0.90588 0.56089 0.63448 0.0
C104 C 0.92815 0.5834 0.53389 0.0
O105 O 0.91512 0.57626 0.4975 0.0
O106 O 0.92677 0.5787 0.58965 0.0
C107 C 0.88179 0.57352 0.41137 0.0
O108 O 0.88932 0.58646 0.45099 0.0
C109 C 0.92025 0.57572 0.75448 0.0
C110 C 0.90933 0.55169 0.811 0.0
C111 C 0.91862 0.56985 0.81448 0.0
N112 N 0.91177 0.56167 0.71788 0.0
N113 N 0.90571 0.54734 0.75163 0.0
C114 C 0.92974 0.59427 0.73165 0.0
H115 H 0.93905 0.59551 0.69504 0.0
H116 H 0.9203 0.59762 0.71078 0.0
H117 H 0.93719 0.60367 0.76887 0.0
C118 C 0.86354 0.56149 0.57532 0.0
N119 N 0.87878 0.56141 0.57126 0.0
N120 N 0.88574 0.56364 0.6263 0.0
C121 C 0.87513 0.56533 0.6672 0.0
C122 C 0.86076 0.56411 0.63611 0.0
C123 C 0.85088 0.55709 0.52336 0.0
H124 H 0.85177 0.54777 0.49143 0.0
H125 H 0.85415 0.56927 0.49796 0.0
H126 H 0.8372 0.55121 0.54043 0.0
O127 O 0.88832 0.53379 0.51326 0.0
O128 O 0.89978 0.53727 0.60638 0.0
H129 H 0.87852 0.55615 0.75431 0.0
H130 H 0.86858 0.56979 0.75915 0.0
C131 C 0.87848 0.56777 0.73485 0.0
H132 H 0.89145 0.57944 0.74311 0.0
H133 H 0.89825 0.53461 0.73454 0.0
O134 O 0.87966 0.55859 0.42597 0.0
C135 C 0.89292 0.52792 0.55886 0.0
Co136 Co 0.33458 0.88345 0.66488 0.0
Co137 Co 0.34472 0.90278 0.79095 0.0
C138 C 0.34693 0.92246 0.68019 0.0
O139 O 0.3425 0.9084 0.65093 0.0
O140 O 0.34786 0.92278 0.7385 0.0
C141 C 0.31227 0.87776 0.56992 0.0
O142 O 0.30653 0.88425 0.61239 0.0
C143 C 0.34492 0.91949 0.90998 0.0
C144 C 0.3579 0.90872 0.96799 0.0
C145 C 0.35002 0.91894 0.96995 0.0
N146 N 0.34933 0.90972 0.87473 0.0
N147 N 0.35735 0.90361 0.90965 0.0
C148 C 0.33654 0.92952 0.88625 0.0
H149 H 0.34145 0.93455 0.83951 0.0
H150 H 0.32214 0.9208 0.88326 0.0
H151 H 0.33932 0.94064 0.91719 0.0
C152 C 0.30287 0.85881 0.73473 0.0
N153 N 0.31817 0.87401 0.72978 0.0
N154 N 0.32203 0.88229 0.78276 0.0
C155 C 0.30915 0.87254 0.82323 0.0
C156 C 0.29656 0.85734 0.7941 0.0
C157 C 0.29548 0.84515 0.68547 0.0
H158 H 0.30616 0.84605 0.65595 0.0
H159 H 0.28641 0.8474 0.65655 0.0
H160 H 0.28803 0.83179 0.70548 0.0
O161 O 0.35539 0.88111 0.68217 0.0
O162 O 0.36277 0.8963 0.76918 0.0
H163 H 0.31962 0.87677 0.91419 0.0
H164 H 0.29629 0.86894 0.91135 0.0
C165 C 0.30908 0.87752 0.88882 0.0
H166 H 0.31174 0.89116 0.89104 0.0
H167 H 0.3619 0.89541 0.89404 0.0
O168 O 0.32372 0.87362 0.58481 0.0
C169 C 0.36566 0.88777 0.72795 0.0
Co170 Co 0.44312 0.32924 0.82597 0.0
Co171 Co 0.43741 0.34283 0.95001 0.0
C172 C 0.41487 0.33884 0.84416 0.0
O173 O 0.42388 0.33413 0.8125 0.0
O174 O 0.41825 0.34264 0.90059 0.0
C175 C 0.42722 0.30652 0.73 0.0
O176 O 0.41414 0.30043 0.76929 0.0
C177 C 0.42357 0.34367 0.07251 0.0
C178 C 0.44518 0.36885 0.10705 0.0
C179 C 0.42916 0.35462 0.12373 0.0
N180 N 0.43601 0.35099 0.029 0.0
N181 N 0.44865 0.36622 0.04943 0.0
C182 C 0.40722 0.32628 0.06496 0.0
H183 H 0.40778 0.31975 0.02215 0.0
H184 H 0.40532 0.31773 0.10505 0.0
H185 H 0.39577 0.3283 0.06204 0.0
C186 C 0.43957 0.30019 0.90394 0.0
N187 N 0.43901 0.31508 0.89646 0.0
N188 N 0.43683 0.32063 0.95018 0.0
C189 C 0.4363 0.30944 0.99387 0.0
C190 C 0.43776 0.29604 0.96588 0.0
C191 C 0.44199 0.29038 0.85231 0.0
H192 H 0.45347 0.29955 0.82423 0.0
H193 H 0.43024 0.28482 0.8224 0.0
H194 H 0.44373 0.27942 0.86861 0.0
O195 O 0.46598 0.3515 0.83232 0.0
O196 O 0.46077 0.36081 0.91996 0.0
H197 H 0.44275 0.3267 0.07163 0.0
H198 H 0.44481 0.30757 0.08483 0.0
C199 C 0.43693 0.31255 0.06156 0.0
H200 H 0.42345 0.30521 0.08041 0.0
H201 H 0.45988 0.37467 0.02463 0.0
O202 O 0.44255 0.31734 0.74914 0.0
C203 C 0.4708 0.36287 0.87496 0.0
Co204 Co 0.5583 0.88729 0.82683 0.0
Co205 Co 0.56383 0.90505 0.69904 0.0
C206 C 0.58402 0.92576 0.80617 0.0
O207 O 0.57579 0.91205 0.83843 0.0
O208 O 0.5811 0.92546 0.74898 0.0
C209 C 0.57617 0.883 0.92052 0.0
O210 O 0.58803 0.88925 0.87675 0.0
C211 C 0.58134 0.91984 0.58269 0.0
C212 C 0.55995 0.91886 0.52683 0.0
C213 C 0.57748 0.92357 0.52504 0.0
N214 N 0.56676 0.91323 0.6171 0.0
N215 N 0.55407 0.91295 0.58382 0.0
C216 C 0.59871 0.92293 0.60527 0.0
H217 H 0.5972 0.91602 0.64943 0.0
H218 H 0.60498 0.9186 0.57063 0.0
H219 H 0.60752 0.93721 0.61243 0.0
C220 C 0.56493 0.86262 0.75585 0.0
N221 N 0.56424 0.87751 0.76028 0.0
N222 N 0.56641 0.88466 0.70553 0.0
C223 C 0.56814 0.87417 0.66416 0.0
C224 C 0.56757 0.86007 0.69501 0.0
C225 C 0.56116 0.85007 0.80773 0.0
H226 H 0.55125 0.85012 0.83896 0.0
H227 H 0.57341 0.85426 0.83411 0.0
H228 H 0.55637 0.83654 0.79063 0.0
O229 O 0.5348 0.88492 0.8142 0.0
O230 O 0.53951 0.89817 0.72347 0.0
H231 H 0.56035 0.88173 0.58147 0.0
H232 H 0.56596 0.86477 0.57078 0.0
C233 C 0.56928 0.87695 0.59616 0.0
H234 H 0.58291 0.88688 0.58392 0.0
H235 H 0.54129 0.90829 0.59948 0.0
O236 O 0.5603 0.87793 0.90656 0.0
C237 C 0.52951 0.89024 0.76886 0.0
Co238 Co 0.66643 0.54891 0.99291 0.0
Co239 Co 0.65848 0.55929 0.86525 0.0
C240 C 0.6562 0.57706 0.97487 0.0
O241 O 0.65979 0.56695 0.00515 0.0
O242 O 0.65558 0.57642 0.91657 0.0
C243 C 0.68817 0.56414 0.09097 0.0
O244 O 0.69568 0.5764 0.04896 0.0
C245 C 0.65977 0.57671 0.74671 0.0
C246 C 0.64704 0.55336 0.68676 0.0
C247 C 0.65496 0.57147 0.68632 0.0
N248 N 0.65509 0.56228 0.78092 0.0
N249 N 0.64729 0.5484 0.7448 0.0
C250 C 0.66812 0.59499 0.77169 0.0
H251 H 0.66301 0.5949 0.81822 0.0
H252 H 0.6825 0.60055 0.77533 0.0
H253 H 0.66556 0.60356 0.74111 0.0
C254 C 0.69853 0.55494 0.9279 0.0
N255 N 0.68348 0.55539 0.93046 0.0
N256 N 0.68062 0.56051 0.87709 0.0
C257 C 0.69396 0.56364 0.83887 0.0
C258 C 0.70577 0.56022 0.86983 0.0
C259 C 0.70483 0.54783 0.97806 0.0
H260 H 0.69364 0.53834 0.00653 0.0
H261 H 0.71411 0.55881 0.00779 0.0
H262 H 0.7118 0.54131 0.95885 0.0
O263 O 0.64512 0.52638 0.97314 0.0
O264 O 0.63942 0.53496 0.88447 0.0
H265 H 0.68541 0.55877 0.74549 0.0
H266 H 0.70855 0.57443 0.75458 0.0
C267 C 0.69528 0.56971 0.77395 0.0
H268 H 0.69243 0.58057 0.77212 0.0
H269 H 0.64252 0.53553 0.75955 0.0
O270 O 0.67595 0.54903 0.0747 0.0
C271 C 0.63552 0.52331 0.92575 0.0
Co272 Co 0.11751 0.66949 0.17859 0.0
Co273 Co 0.09943 0.65935 0.05145 0.0
C274 C 0.07852 0.6567 0.1575 0.0
O275 O 0.09196 0.66069 0.19027 0.0
O276 O 0.07918 0.65654 0.09938 0.0
C277 C 0.12487 0.69264 0.27504 0.0
O278 O 0.11814 0.69881 0.23505 0.0
C279 C 0.08329 0.65882 0.93252 0.0
C280 C 0.09519 0.64688 0.8748 0.0
C281 C 0.08453 0.65429 0.8725 0.0
N282 N 0.09316 0.65464 0.96803 0.0
N283 N 0.09991 0.64718 0.93347 0.0
C284 C 0.07261 0.6665 0.95627 0.0
H285 H 0.06551 0.6594 -0.00173 0.0
H286 H 0.08136 0.68043 0.96896 0.0
H287 H 0.06294 0.66558 0.92164 0.0
C288 C 0.14259 0.70147 0.10948 0.0
N289 N 0.12744 0.68607 0.11388 0.0
N290 N 0.11963 0.68204 0.06007 0.0
C291 C 0.1295 0.6949 0.01974 0.0
C292 C 0.14439 0.70766 0.04975 0.0
C293 C 0.15605 0.70902 0.1594 0.0
H294 H 0.15512 0.69843 0.18952 0.0
H295 H 0.15364 0.71812 0.18746 0.0
H296 H 0.16949 0.71649 0.14001 0.0
O297 O 0.12065 0.64911 0.16258 0.0
O298 O 0.10523 0.64104 0.07623 0.0
H299 H 0.12603 0.6844 0.92898 0.0
H300 H 0.13358 0.70765 0.93111 0.0
C301 C 0.12493 0.69485 0.95351 0.0
H302 H 0.11126 0.69205 0.94968 0.0
H303 H 0.10831 0.64291 0.94961 0.0
O304 O 0.1275 0.68028 0.25863 0.0
C305 C 0.11378 0.63843 0.11807 0.0
Co306 Co 0.44779 0.11679 0.3385 0.0
Co307 Co 0.44088 0.09919 0.20992 0.0
C308 C 0.42129 0.0784 0.31779 0.0
O309 O 0.43011 0.09201 0.35017 0.0
O310 O 0.42358 0.07883 0.26009 0.0
C311 C 0.43085 0.12263 0.43182 0.0
O312 O 0.41868 0.11551 0.38927 0.0
C313 C 0.42276 0.08515 0.0938 0.0
C314 C 0.44478 0.09028 0.03236 0.0
C315 C 0.4269 0.08421 0.03298 0.0
N316 N 0.4376 0.09188 0.12694 0.0
N317 N 0.45065 0.09454 0.09028 0.0
C318 C 0.40505 0.07931 0.12097 0.0
H319 H 0.40244 0.06948 0.15739 0.0
H320 H 0.40489 0.09052 0.14342 0.0
H321 H 0.39449 0.07331 0.08606 0.0
C322 C 0.44147 0.14215 0.26999 0.0
N323 N 0.44172 0.12699 0.2734 0.0
N324 N 0.43897 0.11986 0.21844 0.0
C325 C 0.43733 0.13062 0.17798 0.0
C326 C 0.43854 0.14486 0.20968 0.0
C327 C 0.44593 0.15477 0.32204 0.0
H328 H 0.45601 0.15453 0.35188 0.0
H329 H 0.43396 0.15085 0.34978 0.0
H330 H 0.45082 0.16833 0.30505 0.0
O331 O 0.47105 0.11881 0.32299 0.0
O332 O 0.46516 0.10544 0.23224 0.0
H333 H 0.44553 0.12424 0.09387 0.0
H334 H 0.4386 0.14026 0.08538 0.0
C335 C 0.43604 0.12816 0.1098 0.0
H336 H 0.42263 0.11772 0.09763 0.0
H337 H 0.46368 0.1 0.10428 0.0
O338 O 0.44647 0.12656 0.4184 0.0
C339 C 0.47568 0.11323 0.27657 0.0
Co340 Co 0.33326 0.44749 0.49436 0.0
Co341 Co 0.34386 0.43937 0.36769 0.0
C342 C 0.34486 0.42032 0.47504 0.0
O343 O 0.34079 0.43002 0.50564 0.0
O344 O 0.34593 0.42142 0.41687 0.0
C345 C 0.31061 0.42973 0.58686 0.0
O346 O 0.30552 0.418 0.54277 0.0
C347 C 0.3436 0.42321 0.24914 0.0
C348 C 0.35721 0.44679 0.19063 0.0
C349 C 0.34856 0.42863 0.18896 0.0
N350 N 0.34875 0.43753 0.28415 0.0
N351 N 0.35721 0.45158 0.24912 0.0
C352 C 0.3347 0.40486 0.27378 0.0
H353 H 0.34288 0.40402 0.31092 0.0
H354 H 0.32191 0.40155 0.29453 0.0
H355 H 0.33277 0.39517 0.23766 0.0
C356 C 0.30198 0.44144 0.42402 0.0
N357 N 0.31723 0.44144 0.4287 0.0
N358 N 0.32133 0.43762 0.37505 0.0
C359 C 0.30867 0.43503 0.3343 0.0
C360 C 0.29596 0.43733 0.36409 0.0
C361 C 0.29432 0.44703 0.47452 0.0
H362 H 0.30487 0.45657 0.50507 0.0
H363 H 0.28529 0.43536 0.50209 0.0
H364 H 0.28679 0.45301 0.45578 0.0
O365 O 0.35428 0.47073 0.47986 0.0
O366 O 0.36233 0.46333 0.3934 0.0
H367 H 0.32003 0.44189 0.24466 0.0
H368 H 0.29647 0.42751 0.24437 0.0
C369 C 0.30885 0.43067 0.26801 0.0
H370 H 0.31062 0.41914 0.26422 0.0
H371 H 0.36236 0.46443 0.26476 0.0
O372 O 0.32193 0.44557 0.57438 0.0
C373 C 0.36505 0.47446 0.43557 0.0
Co374 Co 0.88822 0.3333 0.65614 0.0
Co375 Co 0.90576 0.34431 0.52757 0.0
C376 C 0.9267 0.34539 0.634 0.0
O377 O 0.91307 0.34041 0.66645 0.0
O378 O 0.92639 0.34768 0.57654 0.0
C379 C 0.88349 0.31085 0.74896 0.0
O380 O 0.89013 0.30573 0.70502 0.0
C381 C 0.92135 0.343 0.41047 0.0
C382 C 0.91276 0.35749 0.35033 0.0
C383 C 0.92151 0.34807 0.35007 0.0
N384 N 0.91257 0.34884 0.44429 0.0
N385 N 0.90779 0.3578 0.40836 0.0
C386 C 0.9299 0.33337 0.43657 0.0
H387 H 0.93876 0.3412 0.47453 0.0
H388 H 0.91982 0.3207 0.45649 0.0
H389 H 0.93768 0.33109 0.40154 0.0
C390 C 0.86326 0.30144 0.58738 0.0
N391 N 0.87814 0.31709 0.5909 0.0
N392 N 0.88553 0.32144 0.53633 0.0
C393 C 0.87533 0.30869 0.49604 0.0
C394 C 0.86103 0.29554 0.52736 0.0
C395 C 0.85052 0.29315 0.6391 0.0
H396 H 0.85088 0.30338 0.66969 0.0
H397 H 0.85423 0.28482 0.66617 0.0
H398 H 0.83697 0.28471 0.62166 0.0
O399 O 0.88585 0.35441 0.64195 0.0
O400 O 0.89897 0.36184 0.55083 0.0
H401 H 0.88001 0.32168 0.40922 0.0
H402 H 0.86815 0.298 0.40396 0.0
C403 C 0.87873 0.30944 0.42848 0.0
H404 H 0.89119 0.30955 0.42044 0.0
H405 H 0.90055 0.36356 0.42302 0.0
O406 O 0.87894 0.32213 0.73632 0.0
C407 C 0.89116 0.36449 0.5952 0.0
H408 H 0.09542 0.61003 0.04413 0.0
H409 H 0.09762 0.58361 0.03775 0.0
H410 H 0.13864 0.60449 0.17433 0.0
H411 H 0.13604 0.63086 0.18262 0.0
H412 H 0.12158 0.57713 0.00345 0.0
H413 H 0.13743 0.57097 0.25654 0.0
H414 H 0.13245 0.57905 0.35999 0.0
H415 H 0.08601 0.57846 0.29594 0.0
H416 H 0.0906 0.57016 0.1924 0.0
H417 H 0.1375 0.50554 0.01621 0.0
H418 H 0.14071 0.53469 0.0274 0.0
H419 H 0.09445 0.51272 0.14161 0.0
H420 H 0.09172 0.48388 0.13308 0.0
H421 H 0.11655 0.54188 0.18785 0.0
H422 H 0.09494 0.52325 0.98259 0.0
H423 H 0.09522 0.51291 0.87762 0.0
H424 H 0.1449 0.55914 0.84328 0.0
H425 H 0.14501 0.56966 0.94835 0.0
C426 C 0.10492 0.60904 0.07297 0.0
C427 C 0.1155 0.62254 0.11418 0.0
C428 C 0.10622 0.59392 0.06904 0.0
C429 C 0.11821 0.59195 0.1058 0.0
C430 C 0.12906 0.60555 0.14622 0.0
C431 C 0.1276 0.62064 0.15081 0.0
C432 C 0.119 0.57548 0.10193 0.0
C433 C 0.12056 0.56947 0.04386 0.0
C434 C 0.11746 0.56532 0.15442 0.0
C435 C 0.1145 0.57017 0.21661 0.0
C436 C 0.12615 0.57253 0.26462 0.0
C437 C 0.12339 0.57715 0.32325 0.0
C438 C 0.10896 0.57933 0.33447 0.0
C439 C 0.09722 0.57683 0.28714 0.0
C440 C 0.09991 0.5722 0.22846 0.0
C441 C 0.12805 0.50697 0.04374 0.0
C442 C 0.11432 0.4924 0.07355 0.0
C443 C 0.12985 0.52363 0.04998 0.0
C444 C 0.11768 0.52593 0.08471 0.0
C445 C 0.10407 0.51137 0.1148 0.0
C446 C 0.10247 0.49484 0.10964 0.0
C447 C 0.11879 0.54334 0.08922 0.0
C448 C 0.11773 0.5496 0.14746 0.0
C449 C 0.12013 0.55342 0.03667 0.0
C450 C 0.12007 0.54714 0.9735 0.0
C451 C 0.10598 0.53115 0.95277 0.0
C452 C 0.10606 0.52526 0.89326 0.0
C453 C 0.12009 0.53534 0.85388 0.0
C454 C 0.13406 0.55134 0.87388 0.0
C455 C 0.13405 0.55727 0.93338 0.0
H456 H 0.12013 0.53076 0.80781 0.0
H457 H 0.10686 0.58292 0.37987 0.0
H458 H 0.4987 0.11884 0.37058 0.0
H459 H 0.52768 0.12144 0.36288 0.0
H460 H 0.52233 0.11684 0.1658 0.0
H461 H 0.49322 0.1135 0.17352 0.0
H462 H 0.53397 0.09723 0.20193 0.0
H463 H 0.55042 0.15682 0.24337 0.0
H464 H 0.55069 0.18134 0.29901 0.0
H465 H 0.57077 0.16906 0.45954 0.0
H466 H 0.57041 0.14431 0.4051 0.0
H467 H 0.6232 0.1228 0.14003 0.0
H468 H 0.59665 0.12518 0.14725 0.0
H469 H 0.59422 0.11555 0.34198 0.0
H470 H 0.62052 0.11291 0.33516 0.0
H471 H 0.58745 0.14341 0.30529 0.0
H472 H 0.56957 0.0828 0.25954 0.0
H473 H 0.57021 0.05947 0.19892 0.0
H474 H 0.55362 0.07572 0.03879 0.0
H475 H 0.55314 0.09933 0.09834 0.0
C476 C 0.50378 0.1185 0.32566 0.0
C477 C 0.49364 0.11588 0.27273 0.0
C478 C 0.52039 0.12008 0.32121 0.0
C479 C 0.52733 0.11951 0.26363 0.0
C480 C 0.5173 0.11724 0.21077 0.0
C481 C 0.50063 0.11535 0.21527 0.0
C482 C 0.54467 0.1205 0.2582 0.0
C483 C 0.54568 0.10753 0.22381 0.0
C484 C 0.55999 0.13374 0.28742 0.0
C485 C 0.56022 0.1486 0.32033 0.0
C486 C 0.55476 0.15926 0.29069 0.0
C487 C 0.55496 0.17322 0.32198 0.0
C488 C 0.5607 0.17673 0.38282 0.0
C489 C 0.5663 0.16631 0.41244 0.0
C490 C 0.56612 0.15233 0.38137 0.0
C491 C 0.61712 0.12138 0.18446 0.0
C492 C 0.62387 0.11753 0.23693 0.0
C493 C 0.60196 0.12272 0.18848 0.0
C494 C 0.59348 0.12047 0.24513 0.0
C495 C 0.6006 0.11735 0.29792 0.0
C496 C 0.61557 0.11574 0.29381 0.0
C497 C 0.57658 0.12025 0.24894 0.0
C498 C 0.57568 0.13327 0.28317 0.0
C499 C 0.56141 0.10724 0.21884 0.0
C500 C 0.56151 0.09294 0.18321 0.0
C501 C 0.5662 0.08148 0.21129 0.0
C502 C 0.56651 0.0682 0.17715 0.0
C503 C 0.562 0.06615 0.11499 0.0
C504 C 0.55713 0.07734 0.08691 0.0
C505 C 0.55683 0.09067 0.12084 0.0
H506 H 0.56225 0.05585 0.08863 0.0
H507 H 0.56084 0.18754 0.40697 0.0
H508 H 0.39252 0.48498 0.35651 0.0
H509 H 0.41896 0.51357 0.3496 0.0
H510 H 0.40029 0.53265 0.49709 0.0
H511 H 0.37384 0.50374 0.50554 0.0
H512 H 0.42494 0.54462 0.32154 0.0
H513 H 0.43542 0.56362 0.57831 0.0
H514 H 0.42899 0.54935 0.67997 0.0
H515 H 0.42799 0.50416 0.60108 0.0
H516 H 0.43463 0.51825 0.4992 0.0
H517 H 0.49722 0.63216 0.33958 0.0
H518 H 0.46823 0.60586 0.34976 0.0
H519 H 0.49148 0.57998 0.44831 0.0
H520 H 0.52014 0.60642 0.44106 0.0
H521 H 0.46325 0.5725 0.50204 0.0
H522 H 0.4784 0.57211 0.28956 0.0
H523 H 0.48698 0.58411 0.18492 0.0
H524 H 0.44041 0.58803 0.16978 0.0
H525 H 0.43166 0.57624 0.27465 0.0
C526 C 0.39398 0.49521 0.38768 0.0
C527 C 0.38106 0.49201 0.43186 0.0
C528 C 0.40912 0.51162 0.38341 0.0
C529 C 0.41171 0.52528 0.42296 0.0
C530 C 0.39872 0.52225 0.46661 0.0
C531 C 0.38359 0.50572 0.47133 0.0
C532 C 0.42818 0.54251 0.41862 0.0
C533 C 0.43328 0.55076 0.36109 0.0
C534 C 0.4392 0.55046 0.46995 0.0
C535 C 0.43529 0.54191 0.53106 0.0
C536 C 0.43385 0.55065 0.58273 0.0
C537 C 0.43018 0.5426 0.64038 0.0
C538 C 0.42801 0.52583 0.64693 0.0
C539 C 0.42959 0.51711 0.5959 0.0
C540 C 0.43329 0.52512 0.53819 0.0
C541 C 0.4961 0.62081 0.36321 0.0
C542 C 0.51094 0.62132 0.38941 0.0
C543 C 0.47954 0.60576 0.36889 0.0
C544 C 0.47762 0.59079 0.39929 0.0
C545 C 0.49252 0.59134 0.42501 0.0
C546 C 0.50894 0.60645 0.42056 0.0
C547 C 0.46023 0.57449 0.40463 0.0
C548 C 0.45486 0.56647 0.4625 0.0
C549 C 0.44926 0.56643 0.35318 0.0
C550 C 0.45448 0.57348 0.29013 0.0
C551 C 0.47005 0.57564 0.26404 0.0
C552 C 0.47494 0.58239 0.20468 0.0
C553 C 0.46427 0.58687 0.17079 0.0
C554 C 0.44867 0.58458 0.19613 0.0
C555 C 0.44374 0.57785 0.25549 0.0
H556 H 0.46807 0.59209 0.12485 0.0
H557 H 0.42516 0.51962 0.69159 0.0
H558 H 0.88691 0.3789 0.49124 0.0
H559 H 0.88389 0.40484 0.48146 0.0
H560 H 0.88633 0.4106 0.67849 0.0
H561 H 0.88852 0.38398 0.68859 0.0
H562 H 0.86371 0.41876 0.635 0.0
H563 H 0.92292 0.43509 0.58165 0.0
H564 H 0.94603 0.43282 0.52555 0.0
H565 H 0.92707 0.44145 0.35502 0.0
H566 H 0.90369 0.44355 0.41006 0.0
H567 H 0.89504 0.50966 0.65608 0.0
H568 H 0.89142 0.48041 0.65681 0.0
H569 H 0.881 0.47571 0.46233 0.0
H570 H 0.8846 0.50527 0.46101 0.0
H571 H 0.90584 0.46635 0.49825 0.0
H572 H 0.84797 0.45273 0.55714 0.0
H573 H 0.82607 0.45602 0.6173 0.0
H574 H 0.84411 0.44357 0.7826 0.0
H575 H 0.8663 0.44045 0.72357 0.0
C576 C 0.88671 0.38564 0.53256 0.0
C577 C 0.88818 0.37956 0.5907 0.0
C578 C 0.88506 0.40052 0.52688 0.0
C579 C 0.88537 0.41 0.5791 0.0
C580 C 0.88617 0.40358 0.63746 0.0
C581 C 0.88745 0.38841 0.64325 0.0
C582 C 0.88538 0.42683 0.57253 0.0
C583 C 0.87304 0.42922 0.60558 0.0
C584 C 0.8973 0.4404 0.53304 0.0
C585 C 0.91145 0.43931 0.49992 0.0
C586 C 0.92362 0.4364 0.53215 0.0
C587 C 0.93677 0.43515 0.50055 0.0
C588 C 0.93799 0.43694 0.43674 0.0
C589 C 0.92609 0.44004 0.40443 0.0
C590 C 0.9129 0.44128 0.4358 0.0
C591 C 0.89192 0.50245 0.61329 0.0
C592 C 0.89015 0.50986 0.55835 0.0
C593 C 0.88974 0.48565 0.61397 0.0
C594 C 0.88577 0.47582 0.55981 0.0
C595 C 0.88399 0.48309 0.50471 0.0
C596 C 0.88601 0.49993 0.50405 0.0
C597 C 0.88428 0.45828 0.56103 0.0
C598 C 0.89639 0.4558 0.52713 0.0
C599 C 0.87233 0.44476 0.60033 0.0
C600 C 0.85889 0.44648 0.63593 0.0
C601 C 0.84735 0.45082 0.60638 0.0
C602 C 0.83487 0.45263 0.64027 0.0
C603 C 0.83372 0.45004 0.70374 0.0
C604 C 0.84502 0.44558 0.73343 0.0
C605 C 0.85754 0.44376 0.69976 0.0
H606 H 0.82405 0.45146 0.72991 0.0
H607 H 0.94817 0.43596 0.41235 0.0
H608 H 0.38163 0.87833 0.63968 0.0
H609 H 0.40828 0.87638 0.65058 0.0
H610 H 0.41123 0.88999 0.8422 0.0
H611 H 0.3851 0.8926 0.83104 0.0
H612 H 0.4418 0.90784 0.79632 0.0
H613 H 0.39843 0.84722 0.79068 0.0
H614 H 0.37306 0.82019 0.75101 0.0
H615 H 0.40143 0.82428 0.58576 0.0
H616 H 0.4269 0.85149 0.62408 0.0
H617 H 0.50808 0.88572 0.86677 0.0
H618 H 0.47883 0.88282 0.86383 0.0
H619 H 0.48085 0.8848 0.66615 0.0
H620 H 0.51011 0.88807 0.66863 0.0
H621 H 0.44746 0.85774 0.72074 0.0
H622 H 0.49025 0.92008 0.7296 0.0
H623 H 0.5154 0.94615 0.77539 0.0
H624 H 0.487 0.93698 0.94435 0.0
H625 H 0.46176 0.91068 0.89976 0.0
C626 C 0.38791 0.8808 0.68418 0.0
C627 C 0.38126 0.88566 0.7344 0.0
C628 C 0.40311 0.87959 0.69049 0.0
C629 C 0.41171 0.88285 0.74746 0.0
C630 C 0.40491 0.88746 0.79775 0.0
C631 C 0.38991 0.88892 0.79128 0.0
C632 C 0.42822 0.88222 0.75427 0.0
C633 C 0.44287 0.89672 0.78066 0.0
C634 C 0.42981 0.86783 0.73333 0.0
C635 C 0.41452 0.85149 0.71002 0.0
C636 C 0.39921 0.84243 0.74566 0.0
C637 C 0.38482 0.82707 0.72346 0.0
C638 C 0.38562 0.82055 0.66583 0.0
C639 C 0.40083 0.82936 0.63035 0.0
C640 C 0.41525 0.84475 0.65232 0.0
C641 C 0.5022 0.88538 0.82274 0.0
C642 C 0.51142 0.88724 0.76797 0.0
C643 C 0.48554 0.88374 0.82113 0.0
C644 C 0.47776 0.88363 0.76474 0.0
C645 C 0.48665 0.88482 0.71005 0.0
C646 C 0.50339 0.88679 0.71163 0.0
C647 C 0.4608 0.8833 0.76248 0.0
C648 C 0.44617 0.86871 0.73681 0.0
C649 C 0.45911 0.89743 0.785 0.0
C650 C 0.47421 0.91331 0.81161 0.0
C651 C 0.48943 0.92354 0.77669 0.0
C652 C 0.50369 0.93837 0.80238 0.0
C653 C 0.50282 0.94319 0.86281 0.0
C654 C 0.48767 0.93321 0.89759 0.0
C655 C 0.47338 0.91835 0.87213 0.0
H656 H 0.51387 0.95468 0.88262 0.0
H657 H 0.37446 0.80865 0.64873 0.0
H658 H 0.61783 0.49772 0.01217 0.0
H659 H 0.59085 0.46958 -0.00216 0.0
H660 H 0.59052 0.48129 0.80565 0.0
H661 H 0.617 0.50962 0.82017 0.0
H662 H 0.55937 0.46868 0.84678 0.0
H663 H 0.60199 0.45051 0.85992 0.0
H664 H 0.62665 0.44831 0.90373 0.0
H665 H 0.59627 0.42384 0.0654 0.0
H666 H 0.5715 0.42611 0.02292 0.0
H667 H 0.49209 0.37976 0.77623 0.0
H668 H 0.5213 0.40631 0.77866 0.0
H669 H 0.51893 0.4071 0.97618 0.0
H670 H 0.48982 0.38101 0.97415 0.0
H671 H 0.55195 0.41235 0.92413 0.0
H672 H 0.51024 0.43312 0.90928 0.0
H673 H 0.48577 0.43472 0.86071 0.0
H674 H 0.51548 0.45361 0.69406 0.0
H675 H 0.54004 0.45186 0.74145 0.0
C676 C 0.61204 0.49425 0.96683 0.0
C677 C 0.61956 0.50593 0.91738 0.0
C678 C 0.59666 0.47811 0.95856 0.0
C679 C 0.58872 0.47316 0.9004 0.0
C680 C 0.59633 0.48477 0.85096 0.0
C681 C 0.61152 0.50098 0.85937 0.0
C682 C 0.57216 0.45619 0.89138 0.0
C683 C 0.55793 0.45635 0.86278 0.0
C684 C 0.57008 0.44003 0.91268 0.0
C685 C 0.58494 0.43863 0.93844 0.0
C686 C 0.60061 0.44478 0.90501 0.0
C687 C 0.6146 0.4435 0.92958 0.0
C688 C 0.61304 0.43598 0.98737 0.0
C689 C 0.59747 0.42968 0.02066 0.0
C690 C 0.58344 0.43095 0.99634 0.0
C691 C 0.49787 0.38559 0.82006 0.0
C692 C 0.48863 0.37842 0.87493 0.0
C693 C 0.5145 0.40071 0.82139 0.0
C694 C 0.52221 0.4086 0.87765 0.0
C695 C 0.51321 0.40116 0.93239 0.0
C696 C 0.49652 0.38634 0.93104 0.0
C697 C 0.53938 0.42503 0.88005 0.0
C698 C 0.55363 0.42472 0.90754 0.0
C699 C 0.54158 0.441 0.85696 0.0
C700 C 0.52687 0.44214 0.82862 0.0
C701 C 0.51148 0.43745 0.86209 0.0
C702 C 0.49761 0.43842 0.83482 0.0
C703 C 0.49904 0.4442 0.77426 0.0
C704 C 0.51437 0.44909 0.74092 0.0
C705 C 0.52827 0.44812 0.76796 0.0
H706 H 0.48829 0.44495 0.75323 0.0
H707 H 0.62389 0.43499 0.0063 0.0
H708 H 0.05168 0.38702 0.03069 0.0
H709 H 0.02551 0.37056 0.96519 0.0
H710 H 0.03626 0.41878 0.87687 0.0
H711 H 0.06265 0.43501 0.93971 0.0
H712 H 0.99764 0.39121 0.91994 0.0
H713 H 0.04979 0.40197 0.80375 0.0
H714 H 0.07652 0.39985 0.79445 0.0
H715 H 0.04556 0.34363 0.80092 0.0
H716 H 0.01867 0.34549 0.81369 0.0
H717 H 0.96072 0.36973 0.60447 0.0
H718 H 0.98662 0.37926 0.67052 0.0
H719 H 0.95522 0.33847 0.80019 0.0
H720 H 0.92936 0.3293 0.73598 0.0
H721 H 0.00371 0.36038 0.73868 0.0
H722 H 0.95667 0.35426 0.9058 0.0
H723 H 0.92909 0.35498 0.91738 0.0
H724 H 0.94989 0.40083 0.80298 0.0
H725 H 0.9775 0.40021 0.79068 0.0
C726 C 0.04826 0.39404 0.99772 0.0
C727 C 0.05911 0.41221 0.98977 0.0
C728 C 0.0334 0.38468 0.96043 0.0
C729 C 0.02907 0.39351 0.91619 0.0
C730 C 0.03941 0.41177 0.91077 0.0
C731 C 0.05447 0.42099 0.94646 0.0
C732 C 0.01446 0.38383 0.87255 0.0
C733 C 0.99894 0.38435 0.88075 0.0
C734 C 0.0162 0.37499 0.82107 0.0
C735 C 0.03226 0.37388 0.81099 0.0
C736 C 0.0487 0.38917 0.80433 0.0
C737 C 0.06389 0.38801 0.79845 0.0
C738 C 0.06276 0.37161 0.79727 0.0
C739 C 0.04642 0.35633 0.80205 0.0
C740 C 0.03121 0.35743 0.80898 0.0
C741 C 0.95949 0.36257 0.64633 0.0
C742 C 0.94301 0.34899 0.66566 0.0
C743 C 0.97426 0.36797 0.68387 0.0
C744 C 0.97271 0.35969 0.74052 0.0
C745 C 0.95661 0.34515 0.75701 0.0
C746 C 0.94186 0.33996 0.72029 0.0
C747 C 0.98696 0.36774 0.78649 0.0
C748 C 0.00239 0.36704 0.77846 0.0
C749 C 0.98518 0.37632 0.83844 0.0
C750 C 0.96912 0.37735 0.84827 0.0
C751 C 0.95539 0.36462 0.88404 0.0
C752 C 0.93974 0.36494 0.8903 0.0
C753 C 0.93779 0.37802 0.86124 0.0
C754 C 0.95146 0.39076 0.82569 0.0
C755 C 0.96709 0.39042 0.81903 0.0
H756 H 0.92566 0.37824 0.86606 0.0
H757 H 0.07452 0.37072 0.79243 0.0
H758 H 0.59336 0.95953 0.77477 0.0
H759 H 0.60953 0.98574 0.83881 0.0
H760 H 0.61881 0.95516 0.97286 0.0
H761 H 0.60217 0.92897 0.91048 0.0
H762 H 0.6053 0.97162 0.0261 0.0
H763 H 0.65193 0.98828 0.88127 0.0
H764 H 0.66636 0.9951 0.78005 0.0
H765 H 0.65515 0.03693 0.75605 0.0
H766 H 0.64035 0.03017 0.85658 0.0
H767 H 0.65225 0.04653 0.22361 0.0
H768 H 0.64391 0.02041 0.16012 0.0
H769 H 0.63521 0.04597 0.00609 0.0
H770 H 0.64438 0.07209 0.06752 0.0
H771 H 0.65155 0.03142 0.96683 0.0
H772 H 0.60182 0.01279 0.10275 0.0
H773 H 0.58582 0.00546 0.20107 0.0
H774 H 0.60116 0.9671 0.23804 0.0
H775 H 0.61746 0.97436 0.14042 0.0
C776 C 0.59921 0.95854 0.81722 0.0
C777 C 0.5964 0.94221 0.83787 0.0
C778 C 0.6085 0.97352 0.85376 0.0
C779 C 0.61543 0.97245 0.91077 0.0
C780 C 0.61352 0.95633 0.92933 0.0
C781 C 0.60403 0.94136 0.89352 0.0
C782 C 0.6229 0.98749 0.95422 0.0
C783 C 0.61564 0.98464 0.01341 0.0
C784 C 0.63609 0.00459 0.93728 0.0
C785 C 0.64482 0.00855 0.87632 0.0
C786 C 0.65235 0.9988 0.85416 0.0
C787 C 0.66064 0.00269 0.79692 0.0
C788 C 0.66161 0.0164 0.76156 0.0
C789 C 0.65435 0.02629 0.78341 0.0
C790 C 0.646 0.02242 0.84054 0.0
C791 C 0.64852 0.04648 0.17621 0.0
C792 C 0.64896 0.06135 0.1506 0.0
C793 C 0.6437 0.03155 0.13999 0.0
C794 C 0.63881 0.03115 0.07817 0.0
C795 C 0.63907 0.04596 0.05328 0.0
C796 C 0.64422 0.06088 0.08873 0.0
C797 C 0.63357 0.0156 0.03812 0.0
C798 C 0.6413 0.01834 0.97963 0.0
C799 C 0.62061 0.99841 0.05531 0.0
C800 C 0.61116 0.99439 0.1148 0.0
C801 C 0.60199 0.00296 0.13223 0.0
C802 C 0.59281 0.99877 0.18777 0.0
C803 C 0.59254 0.98587 0.22593 0.0
C804 C 0.60142 0.97712 0.20858 0.0
C805 C 0.61066 0.98129 0.15321 0.0
H806 H 0.5854 0.98262 0.26884 0.0
H807 H 0.66803 0.01936 0.71728 0.0
H808 H 0.60029 0.64197 0.3816 0.0
H809 H 0.61665 0.63194 0.31814 0.0
H810 H 0.60752 0.65525 0.15849 0.0
H811 H 0.59127 0.66521 0.22079 0.0
H812 H 0.59755 0.6213 0.13983 0.0
H813 H 0.64719 0.67226 0.22205 0.0
H814 H 0.66692 0.69227 0.30162 0.0
H815 H 0.67713 0.6522 0.36644 0.0
H816 H 0.65698 0.63168 0.28861 0.0
H817 H 0.64548 0.59955 0.93042 0.0
H818 H 0.63653 0.61729 0.99076 0.0
H819 H 0.6483 0.59896 0.15799 0.0
H820 H 0.65767 0.58177 0.09869 0.0
H821 H 0.65799 0.63209 0.16994 0.0
H822 H 0.60653 0.5804 0.09749 0.0
H823 H 0.58654 0.55959 0.02003 0.0
H824 H 0.57949 0.60025 0.94014 0.0
H825 H 0.59957 0.62134 0.01685 0.0
C826 C 0.60205 0.64521 0.3332 0.0
C827 C 0.59429 0.65421 0.30621 0.0
C828 C 0.6114 0.63949 0.29704 0.0
C829 C 0.61323 0.64279 0.23355 0.0
C830 C 0.60617 0.65245 0.20726 0.0
C831 C 0.59687 0.65813 0.24311 0.0
C832 C 0.62122 0.63508 0.19328 0.0
C833 C 0.61088 0.62389 0.14584 0.0
C834 C 0.63844 0.6381 0.20221 0.0
C835 C 0.65031 0.65031 0.24998 0.0
C836 C 0.65338 0.66758 0.25391 0.0
C837 C 0.66467 0.67903 0.2987 0.0
C838 C 0.67316 0.67346 0.33938 0.0
C839 C 0.67041 0.65643 0.33524 0.0
C840 C 0.65903 0.64487 0.29086 0.0
C841 C 0.64634 0.59947 0.97999 0.0
C842 C 0.65208 0.58905 0.00959 0.0
C843 C 0.64116 0.60956 0.01445 0.0
C844 C 0.64146 0.60923 0.07902 0.0
C845 C 0.6479 0.59942 0.10834 0.0
C846 C 0.65316 0.58948 0.07414 0.0
C847 C 0.63429 0.61829 0.11665 0.0
C848 C 0.64472 0.62964 0.16373 0.0
C849 C 0.61706 0.61527 0.10799 0.0
C850 C 0.60485 0.60255 0.06215 0.0
C851 C 0.60086 0.58495 0.06303 0.0
C852 C 0.58947 0.57309 0.01936 0.0
C853 C 0.58183 0.57862 0.97496 0.0
C854 C 0.58549 0.596 0.97436 0.0
C855 C 0.59688 0.60792 0.0179 0.0
H856 H 0.57301 0.56941 0.9412 0.0
H857 H 0.68194 0.68236 0.37387 0.0
H858 H 0.95864 0.58301 0.54484 0.0
H859 H 0.98568 0.60068 0.48659 0.0
H860 H 0.96392 0.63104 0.41119 0.0
H861 H 0.93634 0.6124 0.46579 0.0
H862 H 0.97386 0.61886 0.32312 0.0
H863 H 1.00115 0.64849 0.50762 0.0
H864 H 0.01152 0.65346 0.61472 0.0
H865 H 0.04163 0.62826 0.57912 0.0
H866 H 0.03117 0.62278 0.4722 0.0
H867 H 0.05753 0.67148 0.15848 0.0
H868 H 0.03145 0.66249 0.22377 0.0
H869 H 0.03579 0.61873 0.29088 0.0
H870 H 0.06173 0.62772 0.2265 0.0
H871 H 0.03582 0.64266 0.38342 0.0
H872 H 0.00531 0.61032 0.20213 0.0
H873 H 0.99477 0.6056 0.09531 0.0
H874 H 0.97039 0.63665 0.12706 0.0
H875 H 0.9812 0.64199 0.2337 0.0
C876 C 0.95982 0.5937 0.51673 0.0
C877 C 0.94544 0.59628 0.50907 0.0
C878 C 0.97532 0.60389 0.48375 0.0
C879 C 0.97686 0.61719 0.44402 0.0
C880 C 0.96297 0.62072 0.44079 0.0
C881 C 0.94726 0.61014 0.47211 0.0
C882 C 0.99163 0.62545 0.39937 0.0
C883 C 0.98743 0.62449 0.33669 0.0
C884 C 0.00941 0.63241 0.41661 0.0
C885 C 0.01517 0.63503 0.48182 0.0
C886 C 0.00976 0.64375 0.52278 0.0
C887 C 0.01571 0.64671 0.58349 0.0
C888 C 0.02718 0.64113 0.60378 0.0
C889 C 0.03269 0.63252 0.56343 0.0
C890 C 0.02675 0.62949 0.50275 0.0
C891 C 0.05264 0.65979 0.18651 0.0
C892 C 0.0616 0.65035 0.18853 0.0
C893 C 0.03784 0.6547 0.22367 0.0
C894 C 0.03191 0.64009 0.26265 0.0
C895 C 0.04031 0.63014 0.2616 0.0
C896 C 0.05506 0.63525 0.22493 0.0
C897 C 0.0178 0.63569 0.30802 0.0
C898 C 0.0222 0.63736 0.37053 0.0
C899 C 1.0002 0.62943 0.29075 0.0
C900 C 0.99446 0.62692 0.22564 0.0
C901 C 0.99806 0.6165 0.18604 0.0
C902 C 0.99195 0.61363 0.12555 0.0
C903 C 0.98202 0.62092 0.10427 0.0
C904 C 0.97819 0.63111 0.14345 0.0
C905 C 0.98435 0.6341 0.20387 0.0
H906 H 0.97721 0.61859 0.05753 0.0
H907 H 0.03185 0.64353 0.65068 0.0
H908 H 0.40751 0.07503 0.43189 0.0
H909 H 0.39103 0.04827 0.49167 0.0
H910 H 0.39104 0.01754 0.33767 0.0
H911 H 0.40744 0.04444 0.27659 0.0
H912 H 0.35939 0.00132 0.40451 0.0
H913 H 0.4217 0.02867 0.44501 0.0
H914 H 0.45064 0.05366 0.47272 0.0
H915 H 0.43006 0.0585 0.64568 0.0
H916 H 0.40097 0.03365 0.61853 0.0
H917 H 0.34883 0.92593 0.5558 0.0
H918 H 0.35782 0.9522 0.4953 0.0
H919 H 0.36401 0.98174 0.66062 0.0
H920 H 0.35552 0.95535 0.72238 0.0
H921 H 0.39097 0.99928 0.59022 0.0
H922 H 0.32955 0.96888 0.55657 0.0
H923 H 0.30037 0.94442 0.52881 0.0
H924 H 0.31759 0.94597 0.34354 0.0
H925 H 0.34711 0.96995 0.37066 0.0
C926 C 0.40382 0.06258 0.41023 0.0
C927 C 0.40903 0.06188 0.34972 0.0
C928 C 0.39439 0.04729 0.44457 0.0
C929 C 0.39012 0.03097 0.41951 0.0
C930 C 0.39428 0.03004 0.35786 0.0
C931 C 0.40366 0.04541 0.32309 0.0
C932 C 0.38267 0.01519 0.45937 0.0
C933 C 0.36631 1.0007 0.44476 0.0
C934 C 0.39154 0.0147 0.51287 0.0
C935 C 0.40914 0.02939 0.52964 0.0
C936 C 0.42334 0.03511 0.48884 0.0
C937 C 0.43977 0.04925 0.50443 0.0
C938 C 0.44218 0.05768 0.56088 0.0
C939 C 0.42818 0.05196 0.60196 0.0
C940 C 0.41173 0.03784 0.58655 0.0
C941 C 0.35199 0.93796 0.57967 0.0
C942 C 0.35148 0.93851 0.64423 0.0
C943 C 0.35701 0.95299 0.5447 0.0
C944 C 0.36133 0.96894 0.57312 0.0
C945 C 0.36066 0.96956 0.63758 0.0
C946 C 0.35578 0.95447 0.67286 0.0
C947 C 0.36758 0.98511 0.53549 0.0
C948 C 0.38384 0.99977 0.55037 0.0
C949 C 0.3585 0.98569 0.4824 0.0
C950 C 0.34072 0.9711 0.46599 0.0
C951 C 0.32724 0.96384 0.51013 0.0
C952 C 0.31062 0.95003 0.4945 0.0
C953 C 0.30718 0.94353 0.43458 0.0
C954 C 0.32034 0.95088 0.3901 0.0
C955 C 0.33704 0.96455 0.40564 0.0
H956 H 0.29429 0.93288 0.42251 0.0
H957 H 0.45491 0.06864 0.57283 0.0
H958 H 0.40049 0.35901 0.87841 0.0
H959 H 0.38222 0.36651 0.81435 0.0
H960 H 0.38004 0.33081 0.67467 0.0
H961 H 0.39818 0.32326 0.73787 0.0
H962 H 0.39573 0.36678 0.63908 0.0
H963 H 0.34532 0.32193 0.73715 0.0
H964 H 0.32509 0.30497 0.82067 0.0
H965 H 0.31846 0.34876 0.86556 0.0
H966 H 0.33929 0.36633 0.78418 0.0
H967 H 0.35289 0.3959 0.42939 0.0
H968 H 0.35988 0.37646 0.48877 0.0
H969 H 0.35268 0.39793 0.65708 0.0
H970 H 0.3452 0.41673 0.59891 0.0
H971 H 0.33893 0.36459 0.67021 0.0
H972 H 0.39358 0.41084 0.58683 0.0
H973 H 0.41512 0.42853 0.50718 0.0
H974 H 0.41429 0.38244 0.4382 0.0
H975 H 0.39248 0.36439 0.51666 0.0
C976 C 0.39571 0.35241 0.83481 0.0
C977 C 0.40107 0.34083 0.81262 0.0
C978 C 0.38525 0.35667 0.79836 0.0
C979 C 0.37996 0.34932 0.73961 0.0
C980 C 0.38408 0.33668 0.71974 0.0
C981 C 0.39449 0.33243 0.75592 0.0
C982 C 0.37263 0.35673 0.69541 0.0
C983 C 0.38315 0.36603 0.6452 0.0
C984 C 0.35638 0.356 0.70446 0.0
C985 C 0.34425 0.34563 0.75508 0.0
C986 C 0.33993 0.32815 0.7657 0.0
C987 C 0.3283 0.31839 0.81269 0.0
C988 C 0.32064 0.32585 0.84886 0.0
C989 C 0.32457 0.34308 0.83801 0.0
C990 C 0.33635 0.35296 0.79157 0.0
C991 C 0.35271 0.39637 0.47904 0.0
C992 C 0.34861 0.40799 0.50924 0.0
C993 C 0.35676 0.3853 0.51294 0.0
C994 C 0.35701 0.38586 0.57751 0.0
C995 C 0.35256 0.39719 0.60742 0.0
C996 C 0.34837 0.40805 0.57384 0.0
C997 C 0.36233 0.37514 0.6149 0.0
C998 C 0.35144 0.36518 0.66379 0.0
C999 C 0.37838 0.37542 0.60524 0.0
C1000 C 0.39109 0.3862 0.55683 0.0
C1001 C 0.39777 0.40442 0.55407 0.0
C1002 C 0.41008 0.41452 0.50924 0.0
C1003 C 0.41598 0.40659 0.46741 0.0
C1004 C 0.40962 0.38854 0.47038 0.0
C1005 C 0.39726 0.37837 0.51493 0.0
H1006 H 0.42556 0.41445 0.43287 0.0
H1007 H 0.31156 0.31824 0.88497 0.0
H1008 H 0.16213 0.4527 0.22672 0.0
H1009 H 0.18812 0.45241 0.26526 0.0
H1010 H 0.18413 0.41817 0.11677 0.0
H1011 H 0.15761 0.4178 0.07994 0.0
H1012 H 0.19207 0.4077 0.21782 0.0
H1013 H 0.21425 0.4626 0.11469 0.0
H1014 H 0.21682 0.49115 0.09034 0.0
H1015 H 0.23327 0.50858 0.27509 0.0
H1016 H 0.23056 0.48002 0.30081 0.0
H1017 H 0.2941 0.45419 0.2616 0.0
H1018 H 0.26801 0.45322 0.2176 0.0
H1019 H 0.2366 0.4196 0.36571 0.0
H1020 H 0.26255 0.41994 0.40812 0.0
H1021 H 0.24698 0.46382 0.25736 0.0
H1022 H 0.19534 0.39178 0.31671 0.0
H1023 H 0.19381 0.36319 0.32953 0.0
H1024 H 0.23835 0.38005 0.21086 0.0
H1025 H 0.23999 0.40862 0.19666 0.0
C1026 C 0.16664 0.44486 0.20307 0.0
C1027 C 0.15776 0.43506 0.15094 0.0
C1028 C 0.18161 0.44488 0.2246 0.0
C1029 C 0.18822 0.43541 0.19358 0.0
C1030 C 0.17929 0.42555 0.14156 0.0
C1031 C 0.16422 0.42541 0.12036 0.0
C1032 C 0.2045 0.43589 0.21511 0.0
C1033 C 0.20407 0.41998 0.22648 0.0
C1034 C 0.2203 0.45189 0.22518 0.0
C1035 C 0.22205 0.46912 0.20981 0.0
C1036 C 0.2183 0.47248 0.15024 0.0
C1037 C 0.2198 0.48867 0.13618 0.0
C1038 C 0.22517 0.50166 0.18117 0.0
C1039 C 0.22909 0.4985 0.2403 0.0
C1040 C 0.22759 0.48232 0.25463 0.0
C1041 C 0.28155 0.44636 0.28407 0.0
C1042 C 0.28024 0.43688 0.33757 0.0
C1043 C 0.2667 0.44596 0.25932 0.0
C1044 C 0.25027 0.43614 0.28782 0.0
C1045 C 0.24904 0.42698 0.34215 0.0
C1046 C 0.26388 0.42729 0.36662 0.0
C1047 C 0.23447 0.43564 0.26106 0.0
C1048 C 0.23498 0.45154 0.24875 0.0
C1049 C 0.21889 0.41963 0.24852 0.0
C1050 C 0.21788 0.4024 0.25615 0.0
C1051 C 0.20476 0.38935 0.29317 0.0
C1052 C 0.20388 0.37316 0.3007 0.0
C1053 C 0.21601 0.36983 0.27119 0.0
C1054 C 0.229 0.38266 0.23388 0.0
C1055 C 0.22992 0.39887 0.22613 0.0
H1056 H 0.21532 0.35729 0.27713 0.0
H1057 H 0.22632 0.51418 0.17019 0.0
H1058 H 0.71694 0.17734 0.2877 0.0
H1059 H 0.74354 0.20276 0.32761 0.0
H1060 H 0.75826 0.16819 0.4161 0.0
H1061 H 0.73184 0.14266 0.3745 0.0
H1062 H 0.76226 0.19694 0.49055 0.0
H1063 H 0.77782 0.18608 0.29031 0.0
H1064 H 0.77413 0.18113 0.17863 0.0
H1065 H 0.77888 0.23172 0.15373 0.0
H1066 H 0.78226 0.23683 0.26547 0.0
H1067 H 0.84967 0.26187 0.56087 0.0
H1068 H 0.8238 0.2353 0.52289 0.0
H1069 H 0.81196 0.26692 0.40226 0.0
H1070 H 0.83815 0.29341 0.43909 0.0
H1071 H 0.80665 0.23882 0.34403 0.0
H1072 H 0.79009 0.24998 0.54072 0.0
H1073 H 0.79293 0.2556 0.65213 0.0
H1074 H 0.78892 0.20558 0.68402 0.0
H1075 H 0.78636 0.19979 0.57263 0.0
C1076 C 0.72597 0.17519 0.31506 0.0
C1077 C 0.72265 0.15811 0.32674 0.0
C1078 C 0.74107 0.18969 0.33814 0.0
C1079 C 0.75296 0.18733 0.37406 0.0
C1080 C 0.74927 0.17025 0.38818 0.0
C1081 C 0.73424 0.15573 0.36446 0.0
C1082 C 0.76944 0.20276 0.3955 0.0
C1083 C 0.77212 0.20599 0.45869 0.0
C1084 C 0.78202 0.21476 0.35366 0.0
C1085 C 0.78011 0.21176 0.28637 0.0
C1086 C 0.77791 0.19608 0.26111 0.0
C1087 C 0.7759 0.19325 0.19777 0.0
C1088 C 0.77622 0.20608 0.15912 0.0
C1089 C 0.7786 0.22178 0.18373 0.0
C1090 C 0.78057 0.22465 0.24707 0.0
C1091 C 0.84156 0.26304 0.52592 0.0
C1092 C 0.84586 0.27955 0.50238 0.0
C1093 C 0.82675 0.24792 0.50452 0.0
C1094 C 0.81576 0.2491 0.46029 0.0
C1095 C 0.82023 0.26565 0.43628 0.0
C1096 C 0.83516 0.28075 0.4572 0.0
C1097 C 0.79953 0.23315 0.43937 0.0
C1098 C 0.79687 0.2298 0.37613 0.0
C1099 C 0.78685 0.22116 0.4812 0.0
C1100 C 0.78821 0.22453 0.54826 0.0
C1101 C 0.78994 0.24023 0.57145 0.0
C1102 C 0.79149 0.24344 0.6346 0.0
C1103 C 0.79115 0.23097 0.67511 0.0
C1104 C 0.78921 0.21524 0.65256 0.0
C1105 C 0.7877 0.21198 0.58942 0.0
H1106 H 0.79235 0.23348 0.724 0.0
H1107 H 0.77468 0.20387 0.1101 0.0
H1108 H 0.54405 0.83558 0.61627 0.0
H1109 H 0.54371 0.80914 0.57837 0.0
H1110 H 0.59101 0.82333 0.68026 0.0
H1111 H 0.59133 0.84978 0.71811 0.0
H1112 H 0.59162 0.81214 0.56009 0.0
H1113 H 0.55376 0.793 0.73618 0.0
H1114 H 0.52912 0.78962 0.79987 0.0
H1115 H 0.49292 0.76057 0.6555 0.0
H1116 H 0.5174 0.76403 0.59049 0.0
H1117 H 0.5891 0.73073 0.53127 0.0
H1118 H 0.58987 0.75675 0.57525 0.0
H1119 H 0.53935 0.74108 0.49453 0.0
H1120 H 0.53828 0.71471 0.45287 0.0
H1121 H 0.54088 0.7533 0.60611 0.0
H1122 H 0.57808 0.773 0.42849 0.0
H1123 H 0.60239 0.77673 0.36205 0.0
H1124 H 0.63935 0.805 0.50543 0.0
H1125 H 0.61521 0.8012 0.57309 0.0
C1126 C 0.55448 0.83312 0.62973 0.0
C1127 C 0.56786 0.84472 0.66922 0.0
C1128 C 0.55421 0.818 0.60854 0.0
C1129 C 0.56731 0.81426 0.62674 0.0
C1130 C 0.58083 0.82601 0.66556 0.0
C1131 C 0.581 0.84105 0.68714 0.0
C1132 C 0.56672 0.79792 0.60609 0.0
C1133 C 0.58065 0.79925 0.57082 0.0
C1134 C 0.55221 0.78116 0.61902 0.0
C1135 C 0.53744 0.77892 0.65823 0.0
C1136 C 0.54057 0.78601 0.7178 0.0
C1137 C 0.52662 0.78407 0.75418 0.0
C1138 C 0.50946 0.77492 0.73169 0.0
C1139 C 0.50622 0.76767 0.67282 0.0
C1140 C 0.52012 0.76961 0.6362 0.0
C1141 C 0.57815 0.73286 0.52333 0.0
C1142 C 0.56385 0.72105 0.48743 0.0
C1143 C 0.57863 0.74774 0.54809 0.0
C1144 C 0.56485 0.7511 0.537 0.0
C1145 C 0.55022 0.73888 0.50318 0.0
C1146 C 0.54969 0.72394 0.47883 0.0
C1147 C 0.56577 0.76747 0.5597 0.0
C1148 C 0.55188 0.76616 0.59542 0.0
C1149 C 0.58027 0.78427 0.54676 0.0
C1150 C 0.59482 0.78666 0.50606 0.0
C1151 C 0.59138 0.7799 0.44601 0.0
C1152 C 0.60512 0.78204 0.40811 0.0
C1153 C 0.6224 0.79106 0.42956 0.0
C1154 C 0.62596 0.79799 0.48891 0.0
C1155 C 0.61225 0.79586 0.52705 0.0
H1156 H 0.63303 0.79271 0.40014 0.0
H1157 H 0.49868 0.77343 0.75993 0.0
H1158 H 0.73801 0.57487 0.92357 0.0
H1159 H 0.76438 0.57545 0.88454 0.0
H1160 H 0.73608 0.54784 0.72183 0.0
H1161 H 0.70947 0.54643 0.76239 0.0
H1162 H 0.75532 0.53492 0.75857 0.0
H1163 H 0.7656 0.59296 0.72248 0.0
H1164 H 0.768 0.62128 0.74962 0.0
H1165 H 0.80939 0.63167 0.87673 0.0
H1166 H 0.80706 0.6033 0.85093 0.0
H1167 H 0.84662 0.58373 0.59793 0.0
H1168 H 0.82026 0.58322 0.63713 0.0
H1169 H 0.81389 0.54451 0.77186 0.0
H1170 H 0.83984 0.54454 0.7311 0.0
H1171 H 0.81185 0.59096 0.74476 0.0
H1172 H 0.7704 0.51645 0.79522 0.0
H1173 H 0.76731 0.48865 0.75707 0.0
H1174 H 0.78696 0.51218 0.58087 0.0
H1175 H 0.78992 0.54002 0.61766 0.0
C1176 C 0.73743 0.56883 0.87968 0.0
C1177 C 0.72179 0.5608 0.8456 0.0
C1178 C 0.75253 0.56931 0.85713 0.0
C1179 C 0.75233 0.56196 0.79969 0.0
C1180 C 0.73661 0.55369 0.76607 0.0
C1181 C 0.72147 0.55307 0.78892 0.0
C1182 C 0.76846 0.5628 0.77469 0.0
C1183 C 0.76768 0.54718 0.75567 0.0
C1184 C 0.78455 0.57882 0.76979 0.0
C1185 C 0.78604 0.59593 0.78518 0.0
C1186 C 0.77513 0.60123 0.75653 0.0
C1187 C 0.77649 0.6173 0.77163 0.0
C1188 C 0.78881 0.62825 0.81498 0.0
C1189 C 0.79983 0.62317 0.84321 0.0
C1190 C 0.79851 0.6071 0.82833 0.0
C1191 C 0.83953 0.57511 0.63583 0.0
C1192 C 0.84526 0.56425 0.66178 0.0
C1193 C 0.82456 0.5749 0.65843 0.0
C1194 C 0.81502 0.56374 0.70717 0.0
C1195 C 0.82092 0.55307 0.73376 0.0
C1196 C 0.83583 0.55322 0.71091 0.0
C1197 C 0.79873 0.56306 0.72937 0.0
C1198 C 0.7995 0.5787 0.74791 0.0
C1199 C 0.78252 0.54713 0.73233 0.0
C1200 C 0.78055 0.53037 0.70946 0.0
C1201 C 0.77399 0.51566 0.74827 0.0
C1202 C 0.77227 0.4999 0.72689 0.0
C1203 C 0.77699 0.49867 0.66665 0.0
C1204 C 0.78337 0.51317 0.62758 0.0
C1205 C 0.78509 0.52895 0.6487 0.0
H1206 H 0.77567 0.48646 0.65022 0.0
H1207 H 0.78985 0.64068 0.82661 0.0
H1208 H 0.26327 0.84046 0.74861 0.0
H1209 H 0.23734 0.81514 0.79267 0.0
H1210 H 0.26858 0.81495 0.94506 0.0
H1211 H 0.29463 0.83975 0.89962 0.0
H1212 H 0.24786 0.78279 0.90825 0.0
H1213 H 0.24035 0.83157 0.95848 0.0
H1214 H 0.23834 0.85805 0.93769 0.0
H1215 H 0.19386 0.82821 0.82069 0.0
H1216 H 0.19575 0.80159 0.84013 0.0
H1217 H 0.16045 0.74111 0.09338 0.0
H1218 H 0.18638 0.76693 0.05147 0.0
H1219 H 0.1884 0.73533 0.90384 0.0
H1220 H 0.16285 0.70945 0.94674 0.0
H1221 H 0.19282 0.78405 0.94401 0.0
H1222 H 0.23119 0.74947 0.86951 0.0
H1223 H 0.23409 0.72404 0.90003 0.0
H1224 H 0.21855 0.72752 0.08388 0.0
H1225 H 0.21582 0.75311 0.05471 0.0
C1226 C 0.26456 0.83494 0.79138 0.0
C1227 C 0.28085 0.84219 0.82124 0.0
C1228 C 0.24974 0.82057 0.81677 0.0
C1229 C 0.25092 0.8133 0.87277 0.0
C1230 C 0.2673 0.82038 0.90205 0.0
C1231 C 0.28213 0.83466 0.87644 0.0
C1232 C 0.23516 0.79823 0.90066 0.0
C1233 C 0.23583 0.78308 0.91596 0.0
C1234 C 0.21953 0.79867 0.91183 0.0
C1235 C 0.21829 0.81463 0.90033 0.0
C1236 C 0.23021 0.83068 0.92798 0.0
C1237 C 0.22909 0.84571 0.91649 0.0
C1238 C 0.21601 0.84482 0.87778 0.0
C1239 C 0.204 0.82889 0.85061 0.0
C1240 C 0.20508 0.81382 0.86189 0.0
C1241 C 0.16649 0.73973 0.05207 0.0
C1242 C 0.15965 0.72335 0.02309 0.0
C1243 C 0.18121 0.75447 0.02796 0.0
C1244 C 0.18941 0.75305 0.97474 0.0
C1245 C 0.18241 0.73671 0.94528 0.0
C1246 C 0.16773 0.72198 0.96947 0.0
C1247 C 0.20547 0.76856 0.95067 0.0
C1248 C 0.20485 0.78377 0.93609 0.0
C1249 C 0.22127 0.76833 0.94146 0.0
C1250 C 0.22313 0.7531 0.9597 0.0
C1251 C 0.22846 0.74485 0.9165 0.0
C1252 C 0.23007 0.7304 0.93356 0.0
C1253 C 0.22645 0.72413 0.9938 0.0
C1254 C 0.22129 0.73235 0.03718 0.0
C1255 C 0.21969 0.74681 0.02039 0.0
H1256 H 0.22769 0.71294 0.00689 0.0
H1257 H 0.21515 0.85647 0.86893 0.0
H1258 H 0.41449 0.15482 0.23153 0.0
H1259 H 0.41436 0.18089 0.19178 0.0
H1260 H 0.46256 0.19609 0.09439 0.0
H1261 H 0.46256 0.1699 0.13371 0.0
H1262 H 0.46255 0.22376 0.16078 0.0
H1263 H 0.42701 0.17924 0.01492 0.0
H1264 H 0.40287 0.15046 0.98159 0.0
H1265 H 0.36526 0.16237 0.05982 0.0
H1266 H 0.38922 0.19114 0.09452 0.0
H1267 H 0.46357 0.28764 0.9588 0.0
H1268 H 0.4636 0.26216 0.00404 0.0
H1269 H 0.41331 0.24601 0.08747 0.0
H1270 H 0.41318 0.27142 0.04127 0.0
H1271 H 0.41402 0.21872 0.03027 0.0
H1272 H 0.44949 0.26359 0.17402 0.0
H1273 H 0.47362 0.29236 0.20753 0.0
H1274 H 0.51131 0.27985 0.1341 0.0
H1275 H 0.48738 0.25109 0.09927 0.0
C1276 C 0.42496 0.16372 0.20132 0.0
C1277 C 0.43839 0.16037 0.18473 0.0
C1278 C 0.42489 0.17855 0.17871 0.0
C1279 C 0.43839 0.19033 0.13984 0.0
C1280 C 0.45201 0.18713 0.12419 0.0
C1281 C 0.45196 0.17218 0.14623 0.0
C1282 C 0.43829 0.20601 0.11559 0.0
C1283 C 0.45206 0.22269 0.13162 0.0
C1284 C 0.42436 0.20455 0.07884 0.0
C1285 C 0.40992 0.18727 0.05794 0.0
C1286 C 0.4136 0.17566 0.02555 0.0
C1287 C 0.39995 0.15936 0.0063 0.0
C1288 C 0.38255 0.15457 0.01874 0.0
C1289 C 0.37876 0.16609 0.05032 0.0
C1290 C 0.39237 0.1824 0.06976 0.0
C1291 C 0.45253 0.27859 0.9867 0.0
C1292 C 0.43826 0.28125 0.99598 0.0
C1293 C 0.4526 0.26414 0.01286 0.0
C1294 C 0.43847 0.25219 0.04924 0.0
C1295 C 0.42432 0.25503 0.05939 0.0
C1296 C 0.42428 0.26954 0.03334 0.0
C1297 C 0.43831 0.23654 0.07535 0.0
C1298 C 0.42448 0.21983 0.05963 0.0
C1299 C 0.45218 0.23799 0.11246 0.0
C1300 C 0.46662 0.25525 0.13352 0.0
C1301 C 0.46292 0.26703 0.16455 0.0
C1302 C 0.47656 0.28332 0.18386 0.0
C1303 C 0.49399 0.28795 0.17282 0.0
C1304 C 0.4978 0.27626 0.14255 0.0
C1305 C 0.4842 0.25995 0.12306 0.0
H1306 H 0.50454 0.30057 0.18782 0.0
H1307 H 0.37199 0.14194 0.00377 0.0
H1308 H 0.09532 0.40341 0.32827 0.0
H1309 H 0.10009 0.39381 0.42778 0.0
H1310 H 0.07281 0.41709 0.51628 0.0
H1311 H 0.06772 0.42643 0.41648 0.0
H1312 H 0.12057 0.4184 0.50713 0.0
H1313 H 0.05888 0.3991 0.66034 0.0
H1314 H 0.02669 0.38126 0.65432 0.0
H1315 H 0.03094 0.35132 0.50665 0.0
H1316 H 0.0632 0.3687 0.51265 0.0
H1317 H 0.13131 0.45175 0.80669 0.0
H1318 H 0.12622 0.44233 0.69963 0.0
H1319 H 0.10602 0.38867 0.75623 0.0
H1320 H 0.11091 0.39791 0.86351 0.0
H1321 H 0.08252 0.39298 0.68938 0.0
H1322 H 0.14125 0.40664 0.66794 0.0
H1323 H 0.17344 0.42395 0.67784 0.0
H1324 H 0.17458 0.46449 0.56495 0.0
H1325 H 0.14238 0.44757 0.55511 0.0
C1326 C 0.08945 0.4056 0.36845 0.0
C1327 C 0.08087 0.41541 0.36463 0.0
C1328 C 0.09238 0.40028 0.42546 0.0
C1329 C 0.08679 0.4047 0.47942 0.0
C1330 C 0.077 0.41328 0.47521 0.0
C1331 C 0.07412 0.41864 0.41823 0.0
C1332 C 0.09389 0.40346 0.53963 0.0
C1333 C 0.11222 0.41265 0.54695 0.0
C1334 C 0.08301 0.39574 0.59139 0.0
C1335 C 0.06355 0.38534 0.58665 0.0
C1336 C 0.05299 0.38866 0.62671 0.0
C1337 C 0.03471 0.37862 0.62336 0.0
C1338 C 0.02677 0.36519 0.58003 0.0
C1339 C 0.03711 0.36177 0.54004 0.0
C1340 C 0.05542 0.37174 0.54336 0.0
C1341 C 0.12623 0.43801 0.79636 0.0
C1342 C 0.12125 0.42555 0.84361 0.0
C1343 C 0.1234 0.43265 0.73509 0.0
C1344 C 0.11565 0.41478 0.72016 0.0
C1345 C 0.11194 0.4025 0.76696 0.0
C1346 C 0.11477 0.40783 0.82821 0.0
C1347 C 0.10899 0.40888 0.65726 0.0
C1348 C 0.0908 0.3984 0.64944 0.0
C1349 C 0.11994 0.41554 0.60527 0.0
C1350 C 0.13935 0.42583 0.61098 0.0
C1351 C 0.14834 0.4193 0.64558 0.0
C1352 C 0.1666 0.42904 0.65112 0.0
C1353 C 0.17605 0.44531 0.62209 0.0
C1354 C 0.16725 0.45188 0.58739 0.0
C1355 C 0.14899 0.4422 0.58172 0.0
H1356 H 0.19019 0.45283 0.62643 0.0
H1357 H 0.01261 0.35743 0.57749 0.0
H1358 H 0.68239 0.13104 0.97114 0.0
H1359 H 0.67826 0.11852 0.86822 0.0
H1360 H 0.69424 0.08231 0.93301 0.0
H1361 H 0.6991 0.09519 0.03506 0.0
H1362 H 0.70519 0.0912 0.82115 0.0
H1363 H 0.64995 0.06855 0.92014 0.0
H1364 H 0.62612 0.06914 0.9781 0.0
H1365 H 0.62095 0.10008 0.83631 0.0
H1366 H 0.64466 0.09965 0.77741 0.0
H1367 H 0.63509 0.05194 0.54871 0.0
H1368 H 0.64354 0.0506 0.6549 0.0
H1369 H 0.69408 0.09659 0.62251 0.0
H1370 H 0.68587 0.09748 0.51673 0.0
H1371 H 0.64721 0.07378 0.72901 0.0
H1372 H 0.72397 0.10344 0.72778 0.0
H1373 H 0.74563 0.09849 0.6732 0.0
H1374 H 0.70524 0.04643 0.62521 0.0
H1375 H 0.68337 0.05097 0.68005 0.0
C1376 C 0.68543 0.12071 0.96307 0.0
C1377 C 0.69088 0.114 0.01134 0.0
C1378 C 0.6829 0.11344 0.90447 0.0
C1379 C 0.68542 0.09911 0.89355 0.0
C1380 C 0.69206 0.09324 0.94055 0.0
C1381 C 0.69486 0.10067 -0.0011 0.0
C1382 C 0.68024 0.08975 0.83405 0.0
C1383 C 0.69252 0.08732 0.80081 0.0
C1384 C 0.66335 0.08376 0.80917 0.0
C1385 C 0.64914 0.08415 0.84459 0.0
C1386 C 0.64379 0.07556 0.90154 0.0
C1387 C 0.6303 0.07585 0.93451 0.0
C1388 C 0.62211 0.08471 0.91108 0.0
C1389 C 0.62732 0.09323 0.85445 0.0
C1390 C 0.64073 0.09292 0.82114 0.0
C1391 C 0.64827 0.06121 0.56386 0.0
C1392 C 0.65994 0.07464 0.52471 0.0
C1393 C 0.65308 0.0605 0.62441 0.0
C1394 C 0.66945 0.07349 0.64689 0.0
C1395 C 0.68156 0.08614 0.60619 0.0
C1396 C 0.67686 0.08665 0.54548 0.0
C1397 C 0.67256 0.07618 0.71389 0.0
C1398 C 0.65982 0.0773 0.74918 0.0
C1399 C 0.6888 0.08037 0.74108 0.0
C1400 C 0.70198 0.07757 0.70807 0.0
C1401 C 0.7197 0.09088 0.70599 0.0
C1402 C 0.73203 0.08816 0.67484 0.0
C1403 C 0.72682 0.07216 0.64571 0.0
C1404 C 0.70926 0.05884 0.64768 0.0
C1405 C 0.69689 0.06149 0.67872 0.0
H1406 H 0.73638 0.07009 0.62162 0.0
H1407 H 0.6117 0.08493 0.93674 0.0
H1408 H 0.59791 0.69249 0.65025 0.0
H1409 H 0.60644 0.70651 0.75041 0.0
H1410 H 0.58578 0.65579 0.83626 0.0
H1411 H 0.57759 0.64169 0.73577 0.0
H1412 H 0.582 0.70122 0.83044 0.0
H1413 H 0.60419 0.65976 0.97757 0.0
H1414 H 0.62359 0.64719 0.96695 0.0
H1415 H 0.65198 0.68376 0.82289 0.0
H1416 H 0.63313 0.69691 0.83358 0.0
H1417 H 0.54971 0.6811 0.13192 0.0
H1418 H 0.55867 0.68371 0.02462 0.0
H1419 H 0.61284 0.71631 0.07759 0.0
H1420 H 0.60403 0.71374 0.18498 0.0
H1421 H 0.60826 0.68879 0.01119 0.0
H1422 H 0.59395 0.73363 0.99032 0.0
H1423 H 0.57636 0.74817 0.00124 0.0
H1424 H 0.53546 0.70811 0.89132 0.0
H1425 H 0.55268 0.69316 0.88047 0.0
C1426 C 0.59598 0.68434 0.68992 0.0
C1427 C 0.58721 0.66596 0.68505 0.0
C1428 C 0.6007 0.6924 0.74737 0.0
C1429 C 0.59675 0.68222 0.80079 0.0
C1430 C 0.5892 0.66395 0.79563 0.0
C1431 C 0.58446 0.65589 0.73822 0.0
C1432 C 0.59762 0.69012 0.86159 0.0
C1433 C 0.58796 0.69872 0.86985 0.0
C1434 C 0.60568 0.68715 0.91275 0.0
C1435 C 0.6171 0.67925 0.90607 0.0
C1436 C 0.61462 0.66521 0.94381 0.0
C1437 C 0.62552 0.65796 0.93776 0.0
C1438 C 0.63893 0.66461 0.89408 0.0
C1439 C 0.64153 0.67857 0.85652 0.0
C1440 C 0.63074 0.68592 0.86254 0.0
C1441 C 0.56348 0.68922 0.12063 0.0
C1442 C 0.57617 0.69703 0.167 0.0
C1443 C 0.56859 0.69073 0.05925 0.0
C1444 C 0.58644 0.70016 0.04327 0.0
C1445 C 0.59902 0.70892 0.08906 0.0
C1446 C 0.59392 0.70747 0.15039 0.0
C1447 C 0.59194 0.69907 0.98005 0.0
C1448 C 0.60269 0.69166 0.97148 0.0
C1449 C 0.58506 0.70331 0.92848 0.0
C1450 C 0.5746 0.71223 0.93482 0.0
C1451 C 0.58115 0.72785 0.96883 0.0
C1452 C 0.57125 0.73617 0.97495 0.0
C1453 C 0.5548 0.72906 0.94704 0.0
C1454 C 0.54822 0.71361 0.91289 0.0
C1455 C 0.55806 0.70522 0.90666 0.0
H1456 H 0.54715 0.73553 0.95183 0.0
H1457 H 0.64733 0.65896 0.88947 0.0
H1458 H 0.92748 0.56316 0.92546 0.0
H1459 H 0.92128 0.57187 0.02399 0.0
H1460 H 0.90723 0.60659 0.93223 0.0
H1461 H 0.91233 0.59703 0.83333 0.0
H1462 H 0.9298 0.59825 0.09306 0.0
H1463 H 0.87068 0.6029 0.00507 0.0
H1464 H 0.85133 0.59443 0.91425 0.0
H1465 H 0.8594 0.55087 0.88174 0.0
H1466 H 0.87852 0.5589 0.97295 0.0
H1467 H 0.89158 0.60534 0.35952 0.0
H1468 H 0.89515 0.61202 0.25003 0.0
H1469 H 0.87006 0.55683 0.20837 0.0
H1470 H 0.86651 0.54996 0.31783 0.0
H1471 H 0.86724 0.58215 0.11219 0.0
H1472 H 0.90861 0.56572 0.20885 0.0
H1473 H 0.92461 0.5659 0.3022 0.0
H1474 H 0.9475 0.62185 0.31523 0.0
H1475 H 0.93179 0.62191 0.22159 0.0
C1476 C 0.92361 0.57306 0.92644 0.0
C1477 C 0.92049 0.57945 0.8718 0.0
C1478 C 0.92008 0.57808 0.98274 0.0
C1479 C 0.91344 0.58962 0.98531 0.0
C1480 C 0.91208 0.59746 0.93112 0.0
C1481 C 0.91534 0.59221 0.87455 0.0
C1482 C 0.90598 0.59145 0.04376 0.0
C1483 C 0.91627 0.59521 0.09672 0.0
C1484 C 0.88811 0.58696 0.04907 0.0
C1485 C 0.8762 0.58166 0.9953 0.0
C1486 C 0.86825 0.59148 0.97867 0.0
C1487 C 0.85732 0.58675 0.92716 0.0
C1488 C 0.85419 0.57216 0.89213 0.0
C1489 C 0.86187 0.56219 0.90883 0.0
C1490 C 0.87273 0.56681 0.96045 0.0
C1491 C 0.88619 0.59456 0.32716 0.0
C1492 C 0.87921 0.57714 0.34723 0.0
C1493 C 0.8881 0.59842 0.26456 0.0
C1494 C 0.88292 0.58491 0.22145 0.0
C1495 C 0.87398 0.56741 0.24114 0.0
C1496 C 0.87216 0.56352 0.30374 0.0
C1497 C 0.89115 0.58894 0.16028 0.0
C1498 C 0.881 0.58611 0.10753 0.0
C1499 C 0.90889 0.59348 0.15464 0.0
C1500 C 0.91915 0.59383 0.20864 0.0
C1501 C 0.91721 0.57805 0.23156 0.0
C1502 C 0.92617 0.57809 0.28444 0.0
C1503 C 0.93709 0.59385 0.3146 0.0
C1504 C 0.9391 0.60963 0.29181 0.0
C1505 C 0.93024 0.60966 0.23867 0.0
H1506 H 0.944 0.59376 0.35542 0.0
H1507 H 0.84579 0.56857 0.85214 0.0
H1508 H 0.29245 0.89096 0.52301 0.0
H1509 H 0.29347 0.90138 0.41814 0.0
H1510 H 0.32731 0.88139 0.36493 0.0
H1511 H 0.32639 0.87084 0.46935 0.0
H1512 H 0.33345 0.92551 0.36067 0.0
H1513 H 0.30617 0.86174 0.28069 0.0
H1514 H 0.28137 0.83134 0.28753 0.0
H1515 H 0.2449 0.85019 0.27621 0.0
H1516 H 0.26954 0.8807 0.26993 0.0
H1517 H 0.36914 0.93038 0.07399 0.0
H1518 H 0.35777 0.92896 0.17667 0.0
H1519 H 0.30754 0.91645 0.10052 0.0
H1520 H 0.31872 0.91708 0.99755 0.0
H1521 H 0.30306 0.89204 0.17349 0.0
H1522 H 0.33139 0.95314 0.19893 0.0
H1523 H 0.35445 0.98429 0.19538 0.0
H1524 H 0.38666 0.97377 0.31596 0.0
H1525 H 0.36395 0.9425 0.31956 0.0
C1526 C 0.29972 0.88832 0.48866 0.0
C1527 C 0.30946 0.88017 0.50463 0.0
C1528 C 0.30031 0.89435 0.42891 0.0
C1529 C 0.31045 0.89212 0.38434 0.0
C1530 C 0.31929 0.88306 0.39898 0.0
C1531 C 0.31872 0.87702 0.45861 0.0
C1532 C 0.3135 0.90082 0.32431 0.0
C1533 C 0.32684 0.91837 0.3194 0.0
C1534 C 0.3043 0.89161 0.27162 0.0
C1535 C 0.2896 0.87339 0.27537 0.0
C1536 C 0.29285 0.85936 0.28004 0.0
C1537 C 0.27884 0.84213 0.28375 0.0
C1538 C 0.26157 0.83883 0.28244 0.0
C1539 C 0.25828 0.85276 0.27735 0.0
C1540 C 0.27224 0.87001 0.27377 0.0
C1541 C 0.35588 0.928 0.07902 0.0
C1542 C 0.34485 0.92386 0.02774 0.0
C1543 C 0.34939 0.92733 0.13788 0.0
C1544 C 0.33176 0.92261 0.14659 0.0
C1545 C 0.3212 0.92015 0.09495 0.0
C1546 C 0.32768 0.92072 0.03589 0.0
C1547 C 0.32379 0.91684 0.20833 0.0
C1548 C 0.30948 0.89967 0.21416 0.0
C1549 C 0.332 0.92663 0.26195 0.0
C1550 C 0.34596 0.9454 0.25913 0.0
C1551 C 0.34346 0.95741 0.22419 0.0
C1552 C 0.35646 0.97511 0.2223 0.0
C1553 C 0.37203 0.98099 0.25526 0.0
C1554 C 0.37461 0.96919 0.29033 0.0
C1555 C 0.36166 0.95147 0.29239 0.0
H1556 H 0.38208 0.99469 0.25364 0.0
H1557 H 0.25074 0.82549 0.28525 0.0
H1558 H 0.4506 0.32305 0.63702 0.0
H1559 H 0.44367 0.32917 0.53484 0.0
H1560 H 0.38844 0.29589 0.57082 0.0
H1561 H 0.39517 0.28969 0.6736 0.0
H1562 H 0.40104 0.29405 0.4463 0.0
H1563 H 0.40439 0.33646 0.59728 0.0
H1564 H 0.41898 0.35876 0.67851 0.0
H1565 H 0.46117 0.39052 0.55607 0.0
H1566 H 0.44735 0.36833 0.47482 0.0
H1567 H 0.39508 0.33379 0.16799 0.0
H1568 H 0.38694 0.32364 0.27388 0.0
H1569 H 0.44064 0.35729 0.33033 0.0
H1570 H 0.44891 0.36705 0.22596 0.0
H1571 H 0.41916 0.35669 0.41473 0.0
H1572 H 0.42576 0.31481 0.28849 0.0
H1573 H 0.41801 0.29454 0.2008 0.0
H1574 H 0.36527 0.26432 0.26849 0.0
H1575 H 0.37269 0.28461 0.35619 0.0
C1576 C 0.43699 0.31664 0.62283 0.0
C1577 C 0.42342 0.30612 0.66385 0.0
C1578 C 0.43306 0.32026 0.56459 0.0
C1579 C 0.41555 0.31334 0.54638 0.0
C1580 C 0.40202 0.3015 0.5847 0.0
C1581 C 0.40592 0.29793 0.64323 0.0
C1582 C 0.41155 0.31942 0.48888 0.0
C1583 C 0.4046 0.30765 0.43963 0.0
C1584 C 0.41656 0.33728 0.48037 0.0
C1585 C 0.42481 0.3506 0.52988 0.0
C1586 C 0.41686 0.34809 0.58782 0.0
C1587 C 0.425 0.3607 0.63389 0.0
C1588 C 0.44091 0.37598 0.62243 0.0
C1589 C 0.44882 0.37868 0.56493 0.0
C1590 C 0.44087 0.36607 0.51888 0.0
C1591 C 0.40517 0.33892 0.20279 0.0
C1592 C 0.42282 0.35063 0.18781 0.0
C1593 C 0.40042 0.33329 0.26343 0.0
C1594 C 0.41326 0.33948 0.30961 0.0
C1595 C 0.43051 0.3523 0.29543 0.0
C1596 C 0.43523 0.35784 0.23534 0.0
C1597 C 0.40968 0.3316 0.37147 0.0
C1598 C 0.41501 0.34296 0.42196 0.0
C1599 C 0.40414 0.31365 0.38044 0.0
C1600 C 0.3997 0.30133 0.32833 0.0
C1601 C 0.41248 0.3039 0.28441 0.0
C1602 C 0.40816 0.29242 0.23474 0.0
C1603 C 0.39114 0.27818 0.22895 0.0
C1604 C 0.37843 0.27538 0.27295 0.0
C1605 C 0.38268 0.28687 0.32262 0.0
H1606 H 0.38781 0.2693 0.19047 0.0
H1607 H 0.4471 0.38573 0.65814 0.0
H1608 H 0.55558 0.87434 0.02295 0.0
H1609 H 0.56469 0.8875 0.12451 0.0
H1610 H 0.61867 0.91541 0.06514 0.0
H1611 H 0.60975 0.90206 0.96367 0.0
H1612 H 0.61668 0.90567 0.18217 0.0
H1613 H 0.59729 0.93703 0.06569 0.0
H1614 H 0.57851 0.94232 0.99513 0.0
H1615 H 0.53677 0.92088 0.1273 0.0
H1616 H 0.55508 0.91498 0.19804 0.0
H1617 H 0.58902 0.95088 0.44508 0.0
H1618 H 0.60007 0.95196 0.34086 0.0
H1619 H 0.59662 0.9018 0.3716 0.0
H1620 H 0.5869 0.90149 0.47605 0.0
H1621 H 0.58304 0.93344 0.25635 0.0
H1622 H 0.61746 0.89063 0.27752 0.0
H1623 H 0.64004 0.88996 0.34242 0.0
H1624 H 0.65966 0.94372 0.39317 0.0
H1625 H 0.63739 0.94484 0.32783 0.0
C1626 C 0.56943 0.88293 0.03186 0.0
C1627 C 0.58189 0.88733 0.985 0.0
C1628 C 0.57461 0.89056 0.08973 0.0
C1629 C 0.59229 0.90282 0.1016 0.0
C1630 C 0.60494 0.90614 0.05662 0.0
C1631 C 0.59979 0.89842 -0.00129 0.0
C1632 C 0.59719 0.91272 0.15996 0.0
C1633 C 0.60948 0.91187 0.19862 0.0
C1634 C 0.5887 0.92192 0.17938 0.0
C1635 C 0.57755 0.92545 0.13711 0.0
C1636 C 0.58405 0.93329 0.07954 0.0
C1637 C 0.5735 0.93641 0.03951 0.0
C1638 C 0.55648 0.93195 0.05675 0.0
C1639 C 0.54997 0.92433 0.11403 0.0
C1640 C 0.56043 0.92109 0.15413 0.0
C1641 C 0.59139 0.94053 0.4299 0.0
C1642 C 0.58743 0.92625 0.46826 0.0
C1643 C 0.5976 0.94107 0.37042 0.0
C1644 C 0.59936 0.92703 0.34799 0.0
C1645 C 0.59604 0.91313 0.3878 0.0
C1646 C 0.59034 0.91286 0.44758 0.0
C1647 C 0.60158 0.9252 0.28125 0.0
C1648 C 0.59069 0.92768 0.24023 0.0
C1649 C 0.61208 0.91837 0.2589 0.0
C1650 C 0.62567 0.9178 0.29774 0.0
C1651 C 0.62667 0.90237 0.30204 0.0
C1652 C 0.6394 0.90189 0.33907 0.0
C1653 C 0.65126 0.91678 0.37194 0.0
C1654 C 0.65044 0.93218 0.36779 0.0
C1655 C 0.63774 0.93274 0.33082 0.0
H1656 H 0.6611 0.91638 0.40062 0.0
H1657 H 0.54835 0.93441 0.02572 0.0
H1658 H 0.71454 0.59379 0.14374 0.0
H1659 H 0.71424 0.60528 0.24618 0.0
H1660 H 0.66507 0.55852 0.28541 0.0
H1661 H 0.66541 0.54677 0.18434 0.0
H1662 H 0.66849 0.59557 0.29824 0.0
H1663 H 0.69485 0.55887 0.35201 0.0
H1664 H 0.71851 0.5517 0.34329 0.0
H1665 H 0.75648 0.60431 0.39579 0.0
H1666 H 0.73303 0.61183 0.40401 0.0
H1667 H 0.63541 0.56469 0.58383 0.0
H1668 H 0.64629 0.57561 0.4815 0.0
H1669 H 0.69694 0.61255 0.55693 0.0
H1670 H 0.6862 0.60107 0.65959 0.0
H1671 H 0.70095 0.5932 0.48054 0.0
H1672 H 0.67298 0.62583 0.46536 0.0
H1673 H 0.65059 0.63466 0.4741 0.0
H1674 H 0.61752 0.59428 0.34715 0.0
H1675 H 0.6394 0.58477 0.33898 0.0
C1676 C 0.70389 0.5858 0.17482 0.0
C1677 C 0.69 0.56939 0.15603 0.0
C1678 C 0.70369 0.59244 0.23292 0.0
C1679 C 0.68949 0.58283 0.27243 0.0
C1680 C 0.67603 0.56615 0.25493 0.0
C1681 C 0.67636 0.55939 0.19748 0.0
C1682 C 0.68819 0.59006 0.33184 0.0
C1683 C 0.6755 0.59513 0.33853 0.0
C1684 C 0.69824 0.59053 0.38284 0.0
C1685 C 0.71226 0.58598 0.37769 0.0
C1686 C 0.70827 0.56896 0.36099 0.0
C1687 C 0.72163 0.56481 0.35632 0.0
C1688 C 0.739 0.57756 0.36872 0.0
C1689 C 0.74303 0.59446 0.38601 0.0
C1690 C 0.72972 0.59867 0.39069 0.0
C1691 C 0.64866 0.57561 0.57883 0.0
C1692 C 0.65994 0.58201 0.62959 0.0
C1693 C 0.65487 0.58199 0.52021 0.0
C1694 C 0.67248 0.59497 0.51124 0.0
C1695 C 0.6833 0.60258 0.56271 0.0
C1696 C 0.67708 0.59611 0.62157 0.0
C1697 C 0.68012 0.59751 0.44881 0.0
C1698 C 0.69416 0.59434 0.44081 0.0
C1699 C 0.67143 0.5991 0.39654 0.0
C1700 C 0.65793 0.60453 0.40174 0.0
C1701 C 0.66085 0.61865 0.43986 0.0
C1702 C 0.64821 0.62377 0.44476 0.0
C1703 C 0.63262 0.61501 0.41135 0.0
C1704 C 0.6296 0.60105 0.37306 0.0
C1705 C 0.64214 0.59579 0.36828 0.0
H1706 H 0.62289 0.61905 0.41505 0.0
H1707 H 0.74932 0.57433 0.36514 0.0
H1708 H 0.13125 0.67708 0.37242 0.0
H1709 H 0.123 0.67774 0.47881 0.0
H1710 H 0.11021 0.71771 0.43365 0.0
H1711 H 0.11834 0.71711 0.32664 0.0
H1712 H 0.12745 0.71547 0.56857 0.0
H1713 H 0.07972 0.68351 0.41178 0.0
H1714 H 0.07057 0.6626 0.32566 0.0
H1715 H 0.07122 0.62392 0.44404 0.0
H1716 H 0.0812 0.64485 0.52995 0.0
H1717 H 0.08484 0.68515 0.84815 0.0
H1718 H 0.08655 0.69744 0.74646 0.0
H1719 H 0.07887 0.64937 0.66482 0.0
H1720 H 0.07554 0.63659 0.76574 0.0
H1721 H 0.06851 0.66256 0.58939 0.0
H1722 H 0.12111 0.68583 0.7146 0.0
H1723 H 0.13918 0.70104 0.80525 0.0
H1724 H 0.13672 0.74722 0.75949 0.0
H1725 H 0.11842 0.73216 0.669 0.0
C1726 C 0.12728 0.68646 0.38533 0.0
C1727 C 0.12503 0.69673 0.34084 0.0
C1728 C 0.12263 0.68686 0.44622 0.0
C1729 C 0.1158 0.6976 0.46344 0.0
C1730 C 0.11546 0.70934 0.42088 0.0
C1731 C 0.12002 0.70889 0.35976 0.0
C1732 C 0.10601 0.69397 0.52151 0.0
C1733 C 0.11439 0.70417 0.57324 0.0
C1734 C 0.08927 0.67882 0.52745 0.0
C1735 C 0.0814 0.66584 0.47708 0.0
C1736 C 0.07799 0.67058 0.41932 0.0
C1737 C 0.07275 0.65874 0.37045 0.0
C1738 C 0.07044 0.64198 0.37938 0.0
C1739 C 0.07309 0.63693 0.43721 0.0
C1740 C 0.0786 0.64879 0.48588 0.0
C1741 C 0.08239 0.67681 0.80861 0.0
C1742 C 0.08008 0.65987 0.81481 0.0
C1743 C 0.08374 0.68401 0.75032 0.0
C1744 C 0.08351 0.67462 0.69793 0.0
C1745 C 0.07926 0.65703 0.7043 0.0
C1746 C 0.07744 0.64971 0.76219 0.0
C1747 C 0.09026 0.68339 0.63791 0.0
C1748 C 0.08124 0.67433 0.585 0.0
C1749 C 0.10706 0.69865 0.63188 0.0
C1750 C 0.11823 0.70782 0.68564 0.0
C1751 C 0.12438 0.69921 0.72408 0.0
C1752 C 0.13464 0.70779 0.77541 0.0
C1753 C 0.13905 0.72507 0.78824 0.0
C1754 C 0.13325 0.73382 0.74961 0.0
C1755 C 0.12292 0.72526 0.69833 0.0
H1756 H 0.14699 0.73169 0.82801 0.0
H1757 H 0.06667 0.63284 0.34171 0.0
H1758 H 0.39776 0.11027 0.4763 0.0
H1759 H 0.3884 0.10388 0.58321 0.0
H1760 H 0.44243 0.12704 0.64016 0.0
H1761 H 0.45193 0.13352 0.53342 0.0
H1762 H 0.39356 0.08167 0.65287 0.0
H1763 H 0.4474 0.14336 0.78198 0.0
H1764 H 0.46355 0.1755 0.76923 0.0
H1765 H 0.42206 0.17227 0.65628 0.0
H1766 H 0.40553 0.14014 0.66908 0.0
H1767 H 0.42706 0.06876 0.92584 0.0
H1768 H 0.4174 0.07345 0.82622 0.0
H1769 H 0.39511 0.10179 0.91384 0.0
H1770 H 0.40509 0.09747 0.01324 0.0
H1771 H 0.41851 0.12143 0.83178 0.0
H1772 H 0.36871 0.06516 0.83048 0.0
H1773 H 0.35096 0.03313 0.84403 0.0
H1774 H 0.3807 0.0255 0.70384 0.0
H1775 H 0.39888 0.05755 0.68985 0.0
C1776 C 0.4077 0.1144 0.51165 0.0
C1777 C 0.4256 0.12225 0.49638 0.0
C1778 C 0.40229 0.11068 0.57268 0.0
C1779 C 0.4147 0.11495 0.61947 0.0
C1780 C 0.43264 0.1238 0.60473 0.0
C1781 C 0.43806 0.12746 0.54368 0.0
C1782 C 0.40902 0.10853 0.68271 0.0
C1783 C 0.3988 0.09034 0.69216 0.0
C1784 C 0.41543 0.11992 0.73372 0.0
C1785 C 0.42525 0.1393 0.72629 0.0
C1786 C 0.44166 0.1495 0.75474 0.0
C1787 C 0.4509 0.16773 0.74743 0.0
C1788 C 0.44385 0.17592 0.71188 0.0
C1789 C 0.42753 0.16591 0.68366 0.0
C1790 C 0.41823 0.14768 0.69086 0.0
C1791 C 0.4195 0.07539 0.92401 0.0
C1792 C 0.41668 0.08257 0.97729 0.0
C1793 C 0.41391 0.07801 0.86713 0.0
C1794 C 0.40547 0.08793 0.86265 0.0
C1795 C 0.40149 0.094 0.91638 0.0
C1796 C 0.40705 0.09134 0.97333 0.0
C1797 C 0.40383 0.0945 0.80191 0.0
C1798 C 0.41279 0.11274 0.79277 0.0
C1799 C 0.39604 0.08315 0.75134 0.0
C1800 C 0.38523 0.06382 0.75931 0.0
C1801 C 0.37158 0.05669 0.80279 0.0
C1802 C 0.36142 0.03852 0.81047 0.0
C1803 C 0.36473 0.02731 0.77479 0.0
C1804 C 0.37818 0.03424 0.7313 0.0
C1805 C 0.3884 0.05241 0.7234 0.0
H1806 H 0.35685 0.01325 0.7808 0.0
H1807 H 0.45103 0.19003 0.70626 0.0
H1808 H 0.29537 0.3961 0.62901 0.0
H1809 H 0.29513 0.38667 0.73453 0.0
H1810 H 0.31794 0.44023 0.79607 0.0
H1811 H 0.31844 0.44987 0.69044 0.0
H1812 H 0.32537 0.3977 0.80253 0.0
H1813 H 0.30297 0.43989 0.93979 0.0
H1814 H 0.28139 0.44982 0.92997 0.0
H1815 H 0.24964 0.40613 0.81225 0.0
H1816 H 0.27088 0.39577 0.82208 0.0
H1817 H 0.36662 0.43393 0.08314 0.0
H1818 H 0.35404 0.42353 0.98154 0.0
H1819 H 0.30313 0.39079 0.06314 0.0
H1820 H 0.31557 0.40161 0.1646 0.0
H1821 H 0.30203 0.41268 0.98554 0.0
H1822 H 0.32351 0.3733 0.97847 0.0
H1823 H 0.34441 0.36253 0.98784 0.0
H1824 H 0.37642 0.39793 0.84597 0.0
H1825 H 0.35601 0.4093 0.83675 0.0
C1826 C 0.29995 0.40586 0.66509 0.0
C1827 C 0.30704 0.42378 0.65134 0.0
C1828 C 0.29987 0.40042 0.72531 0.0
C1829 C 0.30654 0.41274 0.77288 0.0
C1830 C 0.31261 0.4305 0.7599 0.0
C1831 C 0.3129 0.43599 0.69957 0.0
C1832 C 0.30878 0.40748 0.83515 0.0
C1833 C 0.32017 0.40078 0.84279 0.0
C1834 C 0.30153 0.41103 0.88716 0.0
C1835 C 0.2886 0.41711 0.88142 0.0
C1836 C 0.29134 0.43234 0.91208 0.0
C1837 C 0.27917 0.43806 0.90645 0.0
C1838 C 0.26417 0.42863 0.87041 0.0
C1839 C 0.26129 0.41345 0.84 0.0
C1840 C 0.27341 0.40766 0.84551 0.0
C1841 C 0.35289 0.424 0.07949 0.0
C1842 C 0.34213 0.41844 0.13174 0.0
C1843 C 0.34571 0.41798 0.02143 0.0
C1844 C 0.32764 0.40632 0.01472 0.0
C1845 C 0.31713 0.3997 0.06734 0.0
C1846 C 0.32431 0.40574 0.12546 0.0
C1847 C 0.31946 0.4038 0.95338 0.0
C1848 C 0.30696 0.40913 0.94567 0.0
C1849 C 0.32569 0.39891 0.90143 0.0
C1850 C 0.33819 0.39224 0.90716 0.0
C1851 C 0.33512 0.37899 0.94979 0.0
C1852 C 0.3469 0.37277 0.95509 0.0
C1853 C 0.36176 0.37959 0.91768 0.0
C1854 C 0.36492 0.39269 0.87503 0.0
C1855 C 0.35322 0.39902 0.86971 0.0
H1856 H 0.37079 0.37466 0.92155 0.0
H1857 H 0.25477 0.43308 0.86611 0.0
H1858 H 0.91475 0.31473 0.32697 0.0
H1859 H 0.91346 0.30216 0.22612 0.0
H1860 H 0.93313 0.35323 0.1438 0.0
H1861 H 0.93523 0.36595 0.24476 0.0
H1862 H 0.89112 0.3013 0.14758 0.0
H1863 H 0.9481 0.35751 0.01477 0.0
H1864 H 0.98012 0.37724 0.02232 0.0
H1865 H 0.98417 0.33984 0.13762 0.0
H1866 H 0.9522 0.31974 0.1293 0.0
H1867 H 0.87117 0.31882 0.85216 0.0
H1868 H 0.88007 0.31813 0.95801 0.0
H1869 H 0.91057 0.29498 0.89711 0.0
H1870 H 0.90163 0.29541 0.79141 0.0
H1871 H 0.9298 0.32534 0.96559 0.0
H1872 H 0.8769 0.27077 0.98267 0.0
H1873 H 0.84527 0.24971 0.97228 0.0
H1874 H 0.83348 0.28123 0.09169 0.0
H1875 H 0.86503 0.30263 0.10205 0.0
C1876 C 0.91983 0.32347 0.28789 0.0
C1877 C 0.92535 0.34139 0.2937 0.0
C1878 C 0.91887 0.31621 0.23009 0.0
C1879 C 0.92327 0.32673 0.17734 0.0
C1880 C 0.93005 0.34487 0.18376 0.0
C1881 C 0.93112 0.35214 0.24148 0.0
C1882 C 0.91754 0.3186 0.11603 0.0
C1883 C 0.89966 0.30629 0.10789 0.0
C1884 C 0.92869 0.32492 0.06434 0.0
C1885 C 0.94783 0.33706 0.07061 0.0
C1886 C 0.95589 0.35341 0.04086 0.0
C1887 C 0.974 0.36468 0.0455 0.0
C1888 C 0.9842 0.35976 0.08021 0.0
C1889 C 0.97626 0.34361 0.11061 0.0
C1890 C 0.95815 0.33228 0.10594 0.0
C1891 C 0.8794 0.31317 0.86149 0.0
C1892 C 0.88575 0.30725 0.81344 0.0
C1893 C 0.88446 0.31277 0.92191 0.0
C1894 C 0.89599 0.30653 0.93509 0.0
C1895 C 0.90167 0.29984 0.88768 0.0
C1896 C 0.89645 0.30003 0.82738 0.0
C1897 C 0.90333 0.30859 0.99743 0.0
C1898 C 0.92142 0.31988 0.0055 0.0
C1899 C 0.89241 0.30116 0.04914 0.0
C1900 C 0.87337 0.28837 0.04287 0.0
C1901 C 0.86757 0.27329 0.00632 0.0
C1902 C 0.84964 0.26127 0.0005 0.0
C1903 C 0.83737 0.26414 0.03125 0.0
C1904 C 0.843 0.27902 0.0679 0.0
C1905 C 0.86091 0.2911 0.07383 0.0
H1906 H 0.8235 0.25481 0.02674 0.0
H1907 H 0.99823 0.36849 0.08369 0.0
loop_
_geom_bond_atom_site_label_1
_geom_bond_atom_site_label_2
_geom_bond_distance
_geom_bond_site_symmetry_2
_ccdc_geom_bond_type
Co0 O3 1.970 . S
Co0 N17 1.989 . S
Co0 O25 1.967 . S
Co0 O32 1.920 1_554 S
Co1 O4 1.966 . S
Co1 N10 2.022 . S
Co1 N18 1.993 . S
Co1 O26 1.941 . S
C2 O3 1.258 . S
C2 O4 1.263 . S
O3 Co0 1.970 . S
O3 C2 1.258 . S
O4 Co1 1.966 . S
O4 C2 1.263 . S
C5 O6 1.235 . S
C5 O32 1.289 . S
O6 C5 1.235 . S
C7 C9 1.400 . S
C7 N10 1.351 . S
C7 C12 1.501 . S
C8 C9 1.387 . S
C8 N11 1.341 . S
C9 C7 1.400 . S
C9 C8 1.387 . S
N10 Co1 2.022 . S
N10 C7 1.351 . S
N10 N11 1.365 . S
N11 C8 1.341 . S
N11 N10 1.365 . S
N11 H31 0.862 . S
C12 C7 1.501 . S
C12 H13 0.961 . S
C12 H14 0.961 . S
C12 H15 0.960 . S
H13 C12 0.961 . S
H14 C12 0.961 . S
H15 C12 0.960 . S
C16 N17 1.342 . S
C16 C20 1.401 . S
C16 C21 1.499 1_554 S
N17 Co0 1.989 . S
N17 C16 1.342 . S
N17 N18 1.388 . S
N18 Co1 1.993 . S
N18 N17 1.388 . S
N18 C19 1.346 . S
C19 N18 1.346 . S
C19 C20 1.396 . S
C19 C29 1.510 . S
C20 C16 1.401 . S
C20 C19 1.396 . S
C21 C16 1.499 1_556 S
C21 H22 0.959 . S
C21 H23 0.960 . S
C21 H24 0.962 . S
H22 C21 0.959 . S
H23 C21 0.960 . S
H24 C21 0.962 . S
O25 Co0 1.967 . S
O25 C33 1.258 . S
O26 Co1 1.941 . S
O26 C33 1.266 . S
H27 C29 0.959 . S
H28 C29 0.961 . S
C29 C19 1.510 . S
C29 H27 0.959 . S
C29 H28 0.961 . S
C29 H30 0.960 . S
H30 C29 0.960 . S
H31 N11 0.862 . S
O32 Co0 1.920 1_556 S
O32 C5 1.289 . S
C33 O25 1.258 . S
C33 O26 1.266 . S
Co34 O37 1.970 . S
Co34 N51 1.989 . S
Co34 O59 1.967 . S
Co34 O66 1.920 . S
Co35 O38 1.966 . S
Co35 N44 2.022 . S
Co35 N52 1.993 . S
Co35 O60 1.941 . S
C36 O37 1.258 . S
C36 O38 1.263 . S
O37 Co34 1.970 . S
O37 C36 1.258 . S
O38 Co35 1.966 . S
O38 C36 1.263 . S
C39 O40 1.235 . S
C39 O66 1.289 . S
O40 C39 1.235 . S
C41 C43 1.400 . S
C41 N44 1.351 . S
C41 C46 1.501 . S
C42 C43 1.387 . S
C42 N45 1.341 . S
C43 C41 1.400 . S
C43 C42 1.387 . S
N44 Co35 2.022 . S
N44 C41 1.351 . S
N44 N45 1.365 . S
N45 C42 1.341 . S
N45 N44 1.365 . S
N45 H65 0.862 . S
C46 C41 1.501 . S
C46 H47 0.961 . S
C46 H48 0.961 . S
C46 H49 0.960 . S
H47 C46 0.961 . S
H48 C46 0.961 . S
H49 C46 0.960 . S
C50 N51 1.342 . S
C50 C54 1.401 . S
C50 C55 1.499 . S
N51 Co34 1.989 . S
N51 C50 1.342 . S
N51 N52 1.388 . S
N52 Co35 1.993 . S
N52 N51 1.388 . S
N52 C53 1.346 . S
C53 N52 1.346 . S
C53 C54 1.396 . S
C53 C63 1.510 . S
C54 C50 1.401 . S
C54 C53 1.396 . S
C55 C50 1.499 . S
C55 H56 0.959 . S
C55 H57 0.960 . S
C55 H58 0.961 . S
H56 C55 0.959 . S
H57 C55 0.960 . S
H58 C55 0.961 . S
O59 Co34 1.967 . S
O59 C67 1.258 . S
O60 Co35 1.941 . S
O60 C67 1.266 . S
H61 C63 0.959 . S
H62 C63 0.961 . S
C63 C53 1.510 . S
C63 H61 0.959 . S
C63 H62 0.961 . S
C63 H64 0.960 . S
H64 C63 0.960 . S
H65 N45 0.862 . S
O66 Co34 1.920 . S
O66 C39 1.289 . S
C67 O59 1.258 . S
C67 O60 1.266 . S
Co68 O71 1.970 . S
Co68 N85 1.989 . S
Co68 O93 1.967 . S
Co68 O100 1.920 . S
Co69 O72 1.966 . S
Co69 N78 2.022 . S
Co69 N86 1.993 . S
Co69 O94 1.941 . S
C70 O71 1.258 . S
C70 O72 1.263 . S
O71 Co68 1.970 . S
O71 C70 1.258 . S
O72 Co69 1.966 . S
O72 C70 1.263 . S
C73 O74 1.235 . S
C73 O100 1.289 . S
O74 C73 1.235 . S
C75 C77 1.400 . S
C75 N78 1.351 . S
C75 C80 1.501 . S
C76 C77 1.387 . S
C76 N79 1.341 . S
C77 C75 1.400 . S
C77 C76 1.387 . S
N78 Co69 2.022 . S
N78 C75 1.351 . S
N78 N79 1.365 . S
N79 C76 1.341 . S
N79 N78 1.365 . S
N79 H99 0.862 . S
C80 C75 1.501 . S
C80 H81 0.961 . S
C80 H82 0.961 . S
C80 H83 0.960 . S
H81 C80 0.961 . S
H82 C80 0.961 . S
H83 C80 0.960 . S
C84 N85 1.342 . S
C84 C88 1.401 . S
C84 C89 1.499 . S
N85 Co68 1.989 . S
N85 C84 1.342 . S
N85 N86 1.388 . S
N86 Co69 1.993 . S
N86 N85 1.388 . S
N86 C87 1.346 . S
C87 N86 1.346 . S
C87 C88 1.396 . S
C87 C97 1.510 . S
C88 C84 1.401 . S
C88 C87 1.396 . S
C89 C84 1.499 . S
C89 H90 0.959 . S
C89 H91 0.960 . S
C89 H92 0.961 . S
H90 C89 0.959 . S
H91 C89 0.960 . S
H92 C89 0.961 . S
O93 Co68 1.967 . S
O93 C101 1.258 . S
O94 Co69 1.941 . S
O94 C101 1.266 . S
H95 C97 0.959 . S
H96 C97 0.961 . S
C97 C87 1.510 . S
C97 H95 0.959 . S
C97 H96 0.961 . S
C97 H98 0.960 . S
H98 C97 0.960 . S
H99 N79 0.862 . S
O100 Co68 1.920 . S
O100 C73 1.289 . S
C101 O93 1.258 . S
C101 O94 1.266 . S
Co102 O105 1.970 . S
Co102 N119 1.989 . S
Co102 O127 1.967 . S
Co102 O134 1.920 . S
Co103 O106 1.966 . S
Co103 N112 2.022 . S
Co103 N120 1.993 . S
Co103 O128 1.941 . S
C104 O105 1.258 . S
C104 O106 1.263 . S
O105 Co102 1.970 . S
O105 C104 1.258 . S
O106 Co103 1.966 . S
O106 C104 1.263 . S
C107 O108 1.235 . S
C107 O134 1.289 . S
O108 C107 1.235 . S
C109 C111 1.400 . S
C109 N112 1.351 . S
C109 C114 1.501 . S
C110 C111 1.387 . S
C110 N113 1.341 . S
C111 C109 1.400 . S
C111 C110 1.387 . S
N112 Co103 2.022 . S
N112 C109 1.351 . S
N112 N113 1.365 . S
N113 C110 1.341 . S
N113 N112 1.365 . S
N113 H133 0.862 . S
C114 C109 1.501 . S
C114 H115 0.961 . S
C114 H116 0.961 . S
C114 H117 0.960 . S
H115 C114 0.961 . S
H116 C114 0.961 . S
H117 C114 0.960 . S
C118 N119 1.342 . S
C118 C122 1.401 . S
C118 C123 1.499 . S
N119 Co102 1.989 . S
N119 C118 1.342 . S
N119 N120 1.388 . S
N120 Co103 1.993 . S
N120 N119 1.388 . S
N120 C121 1.346 . S
C121 N120 1.346 . S
C121 C122 1.396 . S
C121 C131 1.510 . S
C122 C118 1.401 . S
C122 C121 1.396 . S
C123 C118 1.499 . S
C123 H124 0.959 . S
C123 H125 0.960 . S
C123 H126 0.961 . S
H124 C123 0.959 . S
H125 C123 0.960 . S
H126 C123 0.961 . S
O127 Co102 1.967 . S
O127 C135 1.258 . S
O128 Co103 1.941 . S
O128 C135 1.266 . S
H129 C131 0.959 . S
H130 C131 0.961 . S
C131 C121 1.510 . S
C131 H129 0.959 . S
C131 H130 0.961 . S
C131 H132 0.960 . S
H132 C131 0.960 . S
H133 N113 0.862 . S
O134 Co102 1.920 . S
O134 C107 1.289 . S
C135 O127 1.258 . S
C135 O128 1.266 . S
Co136 O139 1.970 . S
Co136 N153 1.989 . S
Co136 O161 1.967 . S
Co136 O168 1.920 . S
Co137 O140 1.966 . S
Co137 N146 2.022 . S
Co137 N154 1.993 . S
Co137 O162 1.941 . S
C138 O139 1.258 . S
C138 O140 1.263 . S
O139 Co136 1.970 . S
O139 C138 1.258 . S
O140 Co137 1.966 . S
O140 C138 1.263 . S
C141 O142 1.235 . S
C141 O168 1.289 . S
O142 C141 1.235 . S
C143 C145 1.406 . S
C143 N146 1.351 . S
C143 C148 1.501 . S
C144 C145 1.387 1_554 S
C144 N147 1.341 1_554 S
C145 C143 1.406 . S
C145 C144 1.387 1_556 S
N146 Co137 2.022 . S
N146 C143 1.351 . S
N146 N147 1.365 . S
N147 C144 1.341 1_556 S
N147 N146 1.365 . S
N147 H167 0.862 . S
C148 C143 1.501 . S
C148 H149 0.961 . S
C148 H150 0.961 . S
C148 H151 0.960 . S
H149 C148 0.961 . S
H150 C148 0.961 . S
H151 C148 0.960 . S
C152 N153 1.342 . S
C152 C156 1.401 . S
C152 C157 1.499 . S
N153 Co136 1.989 . S
N153 C152 1.342 . S
N153 N154 1.388 . S
N154 Co137 1.993 . S
N154 N153 1.388 . S
N154 C155 1.346 . S
C155 N154 1.346 . S
C155 C156 1.396 . S
C155 C165 1.510 . S
C156 C152 1.401 . S
C156 C155 1.396 . S
C157 C152 1.499 . S
C157 H158 0.959 . S
C157 H159 0.960 . S
C157 H160 0.961 . S
H158 C157 0.959 . S
H159 C157 0.960 . S
H160 C157 0.961 . S
O161 Co136 1.967 . S
O161 C169 1.258 . S
O162 Co137 1.941 . S
O162 C169 1.266 . S
H163 C165 0.959 . S
H164 C165 0.961 . S
C165 C155 1.510 . S
C165 H163 0.959 . S
C165 H164 0.961 . S
C165 H166 0.960 . S
H166 C165 0.960 . S
H167 N147 0.862 . S
O168 Co136 1.920 . S
O168 C141 1.289 . S
C169 O161 1.258 . S
C169 O162 1.266 . S
Co170 O173 1.970 . S
Co170 N187 1.989 . S
Co170 O195 1.967 . S
Co170 O202 1.920 . S
Co171 O174 1.966 . S
Co171 N180 2.022 1_556 S
Co171 N188 1.993 . S
Co171 O196 1.941 . S
C172 O173 1.258 . S
C172 O174 1.263 . S
O173 Co170 1.970 . S
O173 C172 1.258 . S
O174 Co171 1.966 . S
O174 C172 1.263 . S
C175 O176 1.235 . S
C175 O202 1.289 . S
O176 C175 1.235 . S
C177 C179 1.400 . S
C177 N180 1.351 . S
C177 C182 1.501 . S
C178 C179 1.387 . S
C178 N181 1.341 . S
C179 C177 1.400 . S
C179 C178 1.387 . S
N180 Co171 2.022 1_554 S
N180 C177 1.351 . S
N180 N181 1.365 . S
N181 C178 1.341 . S
N181 N180 1.365 . S
N181 H201 0.862 . S
C182 C177 1.501 . S
C182 H183 0.961 . S
C182 H184 0.961 . S
C182 H185 0.960 . S
H183 C182 0.961 . S
H184 C182 0.961 . S
H185 C182 0.960 . S
C186 N187 1.342 . S
C186 C190 1.401 . S
C186 C191 1.499 . S
N187 Co170 1.989 . S
N187 C186 1.342 . S
N187 N188 1.388 . S
N188 Co171 1.993 . S
N188 N187 1.388 . S
N188 C189 1.346 . S
C189 N188 1.346 . S
C189 C190 1.396 . S
C189 C199 1.510 1_556 S
C190 C186 1.401 . S
C190 C189 1.396 . S
C191 C186 1.499 . S
C191 H192 0.959 . S
C191 H193 0.960 . S
C191 H194 0.961 . S
H192 C191 0.959 . S
H193 C191 0.960 . S
H194 C191 0.961 . S
O195 Co170 1.967 . S
O195 C203 1.258 . S
O196 Co171 1.941 . S
O196 C203 1.266 . S
H197 C199 0.959 . S
H198 C199 0.961 . S
C199 C189 1.510 1_554 S
C199 H197 0.959 . S
C199 H198 0.961 . S
C199 H200 0.960 . S
H200 C199 0.960 . S
H201 N181 0.862 . S
O202 Co170 1.920 . S
O202 C175 1.289 . S
C203 O195 1.258 . S
C203 O196 1.266 . S
Co204 O207 1.970 . S
Co204 N221 1.989 . S
Co204 O229 1.967 . S
Co204 O236 1.920 . S
Co205 O208 1.966 . S
Co205 N214 2.022 . S
Co205 N222 1.993 . S
Co205 O230 1.941 . S
C206 O207 1.258 . S
C206 O208 1.263 . S
O207 Co204 1.970 . S
O207 C206 1.258 . S
O208 Co205 1.966 . S
O208 C206 1.263 . S
C209 O210 1.235 . S
C209 O236 1.289 . S
O210 C209 1.235 . S
C211 C213 1.400 . S
C211 N214 1.351 . S
C211 C216 1.501 . S
C212 C213 1.387 . S
C212 N215 1.341 . S
C213 C211 1.400 . S
C213 C212 1.387 . S
N214 Co205 2.022 . S
N214 C211 1.351 . S
N214 N215 1.365 . S
N215 C212 1.341 . S
N215 N214 1.365 . S
N215 H235 0.862 . S
C216 C211 1.501 . S
C216 H217 0.961 . S
C216 H218 0.961 . S
C216 H219 0.960 . S
H217 C216 0.961 . S
H218 C216 0.961 . S
H219 C216 0.960 . S
C220 N221 1.342 . S
C220 C224 1.401 . S
C220 C225 1.499 . S
N221 Co204 1.989 . S
N221 C220 1.342 . S
N221 N222 1.388 . S
N222 Co205 1.993 . S
N222 N221 1.388 . S
N222 C223 1.346 . S
C223 N222 1.346 . S
C223 C224 1.396 . S
C223 C233 1.510 . S
C224 C220 1.401 . S
C224 C223 1.396 . S
C225 C220 1.499 . S
C225 H226 0.959 . S
C225 H227 0.960 . S
C225 H228 0.961 . S
H226 C225 0.959 . S
H227 C225 0.960 . S
H228 C225 0.961 . S
O229 Co204 1.967 . S
O229 C237 1.258 . S
O230 Co205 1.941 . S
O230 C237 1.266 . S
H231 C233 0.959 . S
H232 C233 0.961 . S
C233 C223 1.510 . S
C233 H231 0.959 . S
C233 H232 0.961 . S
C233 H234 0.960 . S
H234 C233 0.960 . S
H235 N215 0.862 . S
O236 Co204 1.920 . S
O236 C209 1.289 . S
C237 O229 1.258 . S
C237 O230 1.266 . S
Co238 O241 1.970 . S
Co238 N255 1.989 . S
Co238 O263 1.967 . S
Co238 O270 1.920 1_556 S
Co239 O242 1.966 . S
Co239 N248 2.022 . S
Co239 N256 1.993 . S
Co239 O264 1.941 . S
C240 O241 1.258 . S
C240 O242 1.263 . S
O241 Co238 1.970 . S
O241 C240 1.258 . S
O242 Co239 1.966 . S
O242 C240 1.263 . S
C243 O244 1.235 . S
C243 O270 1.289 . S
O244 C243 1.235 . S
C245 C247 1.400 . S
C245 N248 1.351 . S
C245 C250 1.501 . S
C246 C247 1.387 . S
C246 N249 1.341 . S
C247 C245 1.400 . S
C247 C246 1.387 . S
N248 Co239 2.022 . S
N248 C245 1.351 . S
N248 N249 1.365 . S
N249 C246 1.341 . S
N249 N248 1.365 . S
N249 H269 0.862 . S
C250 C245 1.501 . S
C250 H251 0.961 . S
C250 H252 0.961 . S
C250 H253 0.960 . S
H251 C250 0.961 . S
H252 C250 0.961 . S
H253 C250 0.960 . S
C254 N255 1.342 . S
C254 C258 1.401 . S
C254 C259 1.499 1_556 S
N255 Co238 1.989 . S
N255 C254 1.342 . S
N255 N256 1.388 . S
N256 Co239 1.993 . S
N256 N255 1.388 . S
N256 C257 1.346 . S
C257 N256 1.346 . S
C257 C258 1.396 . S
C257 C267 1.510 . S
C258 C254 1.401 . S
C258 C257 1.396 . S
C259 C254 1.499 1_554 S
C259 H260 0.959 . S
C259 H261 0.960 . S
C259 H262 0.961 . S
H260 C259 0.959 . S
H261 C259 0.960 . S
H262 C259 0.961 . S
O263 Co238 1.967 . S
O263 C271 1.258 . S
O264 Co239 1.941 . S
O264 C271 1.266 . S
H265 C267 0.959 . S
H266 C267 0.961 . S
C267 C257 1.510 . S
C267 H265 0.959 . S
C267 H266 0.961 . S
C267 H268 0.960 . S
H268 C267 0.960 . S
H269 N249 0.862 . S
O270 Co238 1.920 1_554 S
O270 C243 1.289 . S
C271 O263 1.258 . S
C271 O264 1.266 . S
Co272 O275 1.970 . S
Co272 N289 1.989 . S
Co272 O297 1.967 . S
Co272 O304 1.920 . S
Co273 O276 1.966 . S
Co273 N282 2.022 1_554 S
Co273 N290 1.993 . S
Co273 O298 1.941 . S
C274 O275 1.258 . S
C274 O276 1.263 . S
O275 Co272 1.970 . S
O275 C274 1.258 . S
O276 Co273 1.966 . S
O276 C274 1.263 . S
C277 O278 1.235 . S
C277 O304 1.289 . S
O278 C277 1.235 . S
C279 C281 1.400 . S
C279 N282 1.351 . S
C279 C284 1.501 . S
C280 C281 1.387 . S
C280 N283 1.341 . S
C281 C279 1.400 . S
C281 C280 1.387 . S
N282 Co273 2.022 1_556 S
N282 C279 1.351 . S
N282 N283 1.365 . S
N283 C280 1.341 . S
N283 N282 1.365 . S
N283 H303 0.862 . S
C284 C279 1.501 . S
C284 H285 0.961 . S
C284 H286 0.961 . S
C284 H287 0.960 . S
H285 C284 0.961 . S
H286 C284 0.961 . S
H287 C284 0.960 . S
C288 N289 1.342 . S
C288 C292 1.401 . S
C288 C293 1.499 . S
N289 Co272 1.989 . S
N289 C288 1.342 . S
N289 N290 1.388 . S
N290 Co273 1.993 . S
N290 N289 1.388 . S
N290 C291 1.346 . S
C291 N290 1.346 . S
C291 C292 1.396 . S
C291 C301 1.510 1_554 S
C292 C288 1.401 . S
C292 C291 1.396 . S
C293 C288 1.499 . S
C293 H294 0.959 . S
C293 H295 0.960 . S
C293 H296 0.961 . S
H294 C293 0.959 . S
H295 C293 0.960 . S
H296 C293 0.961 . S
O297 Co272 1.967 . S
O297 C305 1.258 . S
O298 Co273 1.941 . S
O298 C305 1.266 . S
H299 C301 0.959 . S
H300 C301 0.961 . S
C301 C291 1.510 1_556 S
C301 H299 0.959 . S
C301 H300 0.961 . S
C301 H302 0.960 . S
H302 C301 0.960 . S
H303 N283 0.862 . S
O304 Co272 1.920 . S
O304 C277 1.289 . S
C305 O297 1.258 . S
C305 O298 1.266 . S
Co306 O309 1.970 . S
Co306 N323 1.989 . S
Co306 O331 1.967 . S
Co306 O338 1.920 . S
Co307 O310 1.966 . S
Co307 N316 2.022 . S
Co307 N324 1.993 . S
Co307 O332 1.941 . S
C308 O309 1.258 . S
C308 O310 1.263 . S
O309 Co306 1.970 . S
O309 C308 1.258 . S
O310 Co307 1.966 . S
O310 C308 1.263 . S
C311 O312 1.235 . S
C311 O338 1.289 . S
O312 C311 1.235 . S
C313 C315 1.400 . S
C313 N316 1.351 . S
C313 C318 1.501 . S
C314 C315 1.387 1_556 S
C314 N317 1.341 1_556 S
C315 C313 1.400 . S
C315 C314 1.387 1_554 S
N316 Co307 2.022 . S
N316 C313 1.351 . S
N316 N317 1.365 . S
N317 C314 1.341 1_554 S
N317 N316 1.365 . S
N317 H337 0.862 . S
C318 C313 1.501 . S
C318 H319 0.961 . S
C318 H320 0.961 . S
C318 H321 0.960 . S
H319 C318 0.961 . S
H320 C318 0.961 . S
H321 C318 0.960 . S
C322 N323 1.342 . S
C322 C326 1.401 . S
C322 C327 1.499 . S
N323 Co306 1.989 . S
N323 C322 1.342 . S
N323 N324 1.388 . S
N324 Co307 1.993 . S
N324 N323 1.388 . S
N324 C325 1.346 . S
C325 N324 1.346 . S
C325 C326 1.396 . S
C325 C335 1.510 . S
C326 C322 1.401 . S
C326 C325 1.396 . S
C327 C322 1.499 . S
C327 H328 0.959 . S
C327 H329 0.960 . S
C327 H330 0.961 . S
H328 C327 0.959 . S
H329 C327 0.960 . S
H330 C327 0.961 . S
O331 Co306 1.967 . S
O331 C339 1.258 . S
O332 Co307 1.941 . S
O332 C339 1.266 . S
H333 C335 0.959 . S
H334 C335 0.961 . S
C335 C325 1.510 . S
C335 H333 0.959 . S
C335 H334 0.961 . S
C335 H336 0.960 . S
H336 C335 0.960 . S
H337 N317 0.862 . S
O338 Co306 1.920 . S
O338 C311 1.289 . S
C339 O331 1.258 . S
C339 O332 1.266 . S
Co340 O343 1.970 . S
Co340 N357 1.989 . S
Co340 O365 1.967 . S
Co340 O372 1.920 . S
Co341 O344 1.966 . S
Co341 N350 2.022 . S
Co341 N358 1.993 . S
Co341 O366 1.941 . S
C342 O343 1.258 . S
C342 O344 1.263 . S
O343 Co340 1.970 . S
O343 C342 1.258 . S
O344 Co341 1.966 . S
O344 C342 1.263 . S
C345 O346 1.235 . S
C345 O372 1.289 . S
O346 C345 1.235 . S
C347 C349 1.400 . S
C347 N350 1.351 . S
C347 C352 1.501 . S
C348 C349 1.387 . S
C348 N351 1.341 . S
C349 C347 1.400 . S
C349 C348 1.387 . S
N350 Co341 2.022 . S
N350 C347 1.351 . S
N350 N351 1.365 . S
N351 C348 1.341 . S
N351 N350 1.365 . S
N351 H371 0.862 . S
C352 C347 1.501 . S
C352 H353 0.961 . S
C352 H354 0.961 . S
C352 H355 0.960 . S
H353 C352 0.961 . S
H354 C352 0.961 . S
H355 C352 0.960 . S
C356 N357 1.342 . S
C356 C360 1.401 . S
C356 C361 1.499 . S
N357 Co340 1.989 . S
N357 C356 1.342 . S
N357 N358 1.388 . S
N358 Co341 1.993 . S
N358 N357 1.388 . S
N358 C359 1.346 . S
C359 N358 1.346 . S
C359 C360 1.396 . S
C359 C369 1.510 . S
C360 C356 1.401 . S
C360 C359 1.396 . S
C361 C356 1.499 . S
C361 H362 0.959 . S
C361 H363 0.960 . S
C361 H364 0.961 . S
H362 C361 0.959 . S
H363 C361 0.960 . S
H364 C361 0.961 . S
O365 Co340 1.967 . S
O365 C373 1.258 . S
O366 Co341 1.941 . S
O366 C373 1.266 . S
H367 C369 0.959 . S
H368 C369 0.961 . S
C369 C359 1.510 . S
C369 H367 0.959 . S
C369 H368 0.961 . S
C369 H370 0.960 . S
H370 C369 0.960 . S
H371 N351 0.862 . S
O372 Co340 1.920 . S
O372 C345 1.289 . S
C373 O365 1.258 . S
C373 O366 1.266 . S
Co374 O377 1.970 . S
Co374 N391 1.989 . S
Co374 O399 1.967 . S
Co374 O406 1.920 . S
Co375 O378 1.966 . S
Co375 N384 2.022 . S
Co375 N392 1.993 . S
Co375 O400 1.941 . S
C376 O377 1.258 . S
C376 O378 1.263 . S
O377 Co374 1.970 . S
O377 C376 1.258 . S
O378 Co375 1.966 . S
O378 C376 1.263 . S
C379 O380 1.235 . S
C379 O406 1.289 . S
O380 C379 1.235 . S
C381 C383 1.400 . S
C381 N384 1.351 . S
C381 C386 1.501 . S
C382 C383 1.387 . S
C382 N385 1.341 . S
C383 C381 1.400 . S
C383 C382 1.387 . S
N384 Co375 2.022 . S
N384 C381 1.351 . S
N384 N385 1.365 . S
N385 C382 1.341 . S
N385 N384 1.365 . S
N385 H405 0.862 . S
C386 C381 1.501 . S
C386 H387 0.961 . S
C386 H388 0.961 . S
C386 H389 0.960 . S
H387 C386 0.961 . S
H388 C386 0.961 . S
H389 C386 0.960 . S
C390 N391 1.342 . S
C390 C394 1.401 . S
C390 C395 1.499 . S
N391 Co374 1.989 . S
N391 C390 1.342 . S
N391 N392 1.388 . S
N392 Co375 1.993 . S
N392 N391 1.388 . S
N392 C393 1.346 . S
C393 N392 1.346 . S
C393 C394 1.396 . S
C393 C403 1.510 . S
C394 C390 1.401 . S
C394 C393 1.396 . S
C395 C390 1.499 . S
C395 H396 0.959 . S
C395 H397 0.960 . S
C395 H398 0.961 . S
H396 C395 0.959 . S
H397 C395 0.960 . S
H398 C395 0.961 . S
O399 Co374 1.967 . S
O399 C407 1.258 . S
O400 Co375 1.941 . S
O400 C407 1.266 . S
H401 C403 0.959 . S
H402 C403 0.961 . S
C403 C393 1.510 . S
C403 H401 0.959 . S
C403 H402 0.961 . S
C403 H404 0.960 . S
H404 C403 0.960 . S
H405 N385 0.862 . S
O406 Co374 1.920 . S
O406 C379 1.289 . S
C407 O399 1.258 . S
C407 O400 1.266 . S
H408 C426 0.951 . S
H409 C428 0.951 . S
H410 C430 0.950 . S
H411 C431 0.950 . S
H412 C433 0.950 . S
H413 C436 0.950 . S
H414 C437 0.950 . S
H415 C439 0.950 . S
H416 C440 0.950 . S
H417 C441 0.951 . S
H418 C443 0.951 . S
H419 C445 0.950 . S
H420 C446 0.950 . S
H421 C448 0.950 . S
H422 C451 0.950 . S
H423 C452 0.950 . S
H424 C454 0.950 . S
H425 C455 0.950 . S
C426 H408 0.951 . S
C426 C427 1.366 . S
C426 C428 1.388 . S
C427 C426 1.366 . S
C427 C431 1.385 . S
C428 H409 0.951 . S
C428 C426 1.388 . S
C428 C429 1.366 . S
C429 C428 1.366 . S
C429 C430 1.414 . S
C429 C432 1.499 . S
C430 H410 0.950 . S
C430 C429 1.414 . S
C430 C431 1.374 . S
C431 H411 0.950 . S
C431 C427 1.385 . S
C431 C430 1.374 . S
C432 C429 1.499 . S
C432 C433 1.373 . S
C432 C434 1.389 . S
C433 H412 0.950 . S
C433 C432 1.373 . S
C433 C449 1.377 . S
C434 C432 1.389 . S
C434 C435 1.524 . S
C434 C448 1.377 . S
C435 C434 1.524 . S
C435 C436 1.397 . S
C435 C440 1.363 . S
C436 H413 0.950 . S
C436 C435 1.397 . S
C436 C437 1.334 . S
C437 H414 0.950 . S
C437 C436 1.334 . S
C437 C438 1.287 . S
C438 C437 1.287 . S
C438 C439 1.524 . S
C438 H457 0.913 . S
C439 H415 0.950 . S
C439 C438 1.524 . S
C439 C440 1.415 . S
C440 H416 0.950 . S
C440 C435 1.363 . S
C440 C439 1.415 . S
C441 H417 0.951 . S
C441 C442 1.366 . S
C441 C443 1.388 . S
C442 C441 1.366 . S
C442 C446 1.385 . S
C443 H418 0.951 . S
C443 C441 1.388 . S
C443 C444 1.366 . S
C444 C443 1.366 . S
C444 C445 1.414 . S
C444 C447 1.499 . S
C445 H419 0.950 . S
C445 C444 1.414 . S
C445 C446 1.374 . S
C446 H420 0.950 . S
C446 C442 1.385 . S
C446 C445 1.374 . S
C447 C444 1.499 . S
C447 C448 1.373 . S
C447 C449 1.389 . S
C448 H421 0.950 . S
C448 C434 1.377 . S
C448 C447 1.373 . S
C449 C433 1.377 . S
C449 C447 1.389 . S
C449 C450 1.524 1_554 S
C450 C449 1.524 1_556 S
C450 C451 1.397 . S
C450 C455 1.363 . S
C451 H422 0.950 . S
C451 C450 1.397 . S
C451 C452 1.334 . S
C452 H423 0.950 . S
C452 C451 1.334 . S
C452 C453 1.287 . S
C453 C452 1.287 . S
C453 C454 1.524 . S
C453 H456 0.999 . S
C454 H424 0.950 . S
C454 C453 1.524 . S
C454 C455 1.415 . S
C455 H425 0.950 . S
C455 C450 1.363 . S
C455 C454 1.415 . S
H456 C453 0.999 . S
H457 C438 0.913 . S
H458 C476 0.951 . S
H459 C478 0.951 . S
H460 C480 0.950 . S
H461 C481 0.950 . S
H462 C483 0.950 . S
H463 C486 0.950 . S
H464 C487 0.950 . S
H465 C489 0.950 . S
H466 C490 0.950 . S
H467 C491 0.951 . S
H468 C493 0.951 . S
H469 C495 0.950 . S
H470 C496 0.950 . S
H471 C498 0.950 . S
H472 C501 0.950 . S
H473 C502 0.950 . S
H474 C504 0.950 . S
H475 C505 0.950 . S
C476 H458 0.951 . S
C476 C477 1.366 . S
C476 C478 1.388 . S
C477 C476 1.366 . S
C477 C481 1.385 . S
C478 H459 0.951 . S
C478 C476 1.388 . S
C478 C479 1.366 . S
C479 C478 1.366 . S
C479 C480 1.414 . S
C479 C482 1.499 . S
C480 H460 0.950 . S
C480 C479 1.414 . S
C480 C481 1.374 . S
C481 H461 0.950 . S
C481 C477 1.385 . S
C481 C480 1.374 . S
C482 C479 1.499 . S
C482 C483 1.373 . S
C482 C484 1.389 . S
C483 H462 0.950 . S
C483 C482 1.373 . S
C483 C499 1.377 . S
C484 C482 1.389 . S
C484 C485 1.524 . S
C484 C498 1.377 . S
C485 C484 1.524 . S
C485 C486 1.397 . S
C485 C490 1.363 . S
C486 H463 0.950 . S
C486 C485 1.397 . S
C486 C487 1.334 . S
C487 H464 0.950 . S
C487 C486 1.334 . S
C487 C488 1.287 . S
C488 C487 1.287 . S
C488 C489 1.524 . S
C488 H507 0.913 . S
C489 H465 0.950 . S
C489 C488 1.524 . S
C489 C490 1.415 . S
C490 H466 0.950 . S
C490 C485 1.363 . S
C490 C489 1.415 . S
C491 H467 0.951 . S
C491 C492 1.366 . S
C491 C493 1.388 . S
C492 C491 1.366 . S
C492 C496 1.385 . S
C493 H468 0.951 . S
C493 C491 1.388 . S
C493 C494 1.366 . S
C494 C493 1.366 . S
C494 C495 1.414 . S
C494 C497 1.499 . S
C495 H469 0.950 . S
C495 C494 1.414 . S
C495 C496 1.374 . S
C496 H470 0.950 . S
C496 C492 1.385 . S
C496 C495 1.374 . S
C497 C494 1.499 . S
C497 C498 1.373 . S
C497 C499 1.389 . S
C498 H471 0.950 . S
C498 C484 1.377 . S
C498 C497 1.373 . S
C499 C483 1.377 . S
C499 C497 1.389 . S
C499 C500 1.524 . S
C500 C499 1.524 . S
C500 C501 1.397 . S
C500 C505 1.363 . S
C501 H472 0.950 . S
C501 C500 1.397 . S
C501 C502 1.334 . S
C502 H473 0.950 . S
C502 C501 1.334 . S
C502 C503 1.287 . S
C503 C502 1.287 . S
C503 C504 1.524 . S
C503 H506 0.999 . S
C504 H474 0.950 . S
C504 C503 1.524 . S
C504 C505 1.415 . S
C505 H475 0.950 . S
C505 C500 1.363 . S
C505 C504 1.415 . S
H506 C503 0.999 . S
H507 C488 0.913 . S
H508 C526 0.951 . S
H509 C528 0.951 . S
H510 C530 0.950 . S
H511 C531 0.950 . S
H512 C533 0.950 . S
H513 C536 0.950 . S
H514 C537 0.950 . S
H515 C539 0.950 . S
H516 C540 0.950 . S
H517 C541 0.951 . S
H518 C543 0.951 . S
H519 C545 0.950 . S
H520 C546 0.950 . S
H521 C548 0.950 . S
H522 C551 0.950 . S
H523 C552 0.950 . S
H524 C554 0.950 . S
H525 C555 0.950 . S
C526 H508 0.951 . S
C526 C527 1.366 . S
C526 C528 1.388 . S
C527 C526 1.366 . S
C527 C531 1.385 . S
C528 H509 0.951 . S
C528 C526 1.388 . S
C528 C529 1.366 . S
C529 C528 1.366 . S
C529 C530 1.414 . S
C529 C532 1.499 . S
C530 H510 0.950 . S
C530 C529 1.414 . S
C530 C531 1.374 . S
C531 H511 0.950 . S
C531 C527 1.385 . S
C531 C530 1.374 . S
C532 C529 1.499 . S
C532 C533 1.373 . S
C532 C534 1.389 . S
C533 H512 0.950 . S
C533 C532 1.373 . S
C533 C549 1.377 . S
C534 C532 1.389 . S
C534 C535 1.524 . S
C534 C548 1.377 . S
C535 C534 1.524 . S
C535 C536 1.397 . S
C535 C540 1.363 . S
C536 H513 0.950 . S
C536 C535 1.397 . S
C536 C537 1.334 . S
C537 H514 0.950 . S
C537 C536 1.334 . S
C537 C538 1.287 . S
C538 C537 1.287 . S
C538 C539 1.524 . S
C538 H557 0.913 . S
C539 H515 0.950 . S
C539 C538 1.524 . S
C539 C540 1.415 . S
C540 H516 0.950 . S
C540 C535 1.363 . S
C540 C539 1.415 . S
C541 H517 0.951 . S
C541 C542 1.366 . S
C541 C543 1.388 . S
C542 C541 1.366 . S
C542 C546 1.385 . S
C543 H518 0.951 . S
C543 C541 1.388 . S
C543 C544 1.366 . S
C544 C543 1.366 . S
C544 C545 1.414 . S
C544 C547 1.499 . S
C545 H519 0.950 . S
C545 C544 1.414 . S
C545 C546 1.374 . S
C546 H520 0.950 . S
C546 C542 1.385 . S
C546 C545 1.374 . S
C547 C544 1.499 . S
C547 C548 1.373 . S
C547 C549 1.389 . S
C548 H521 0.950 . S
C548 C534 1.377 . S
C548 C547 1.373 . S
C549 C533 1.377 . S
C549 C547 1.389 . S
C549 C550 1.524 . S
C550 C549 1.524 . S
C550 C551 1.397 . S
C550 C555 1.363 . S
C551 H522 0.950 . S
C551 C550 1.397 . S
C551 C552 1.334 . S
C552 H523 0.950 . S
C552 C551 1.334 . S
C552 C553 1.287 . S
C553 C552 1.287 . S
C553 C554 1.524 . S
C553 H556 0.999 . S
C554 H524 0.950 . S
C554 C553 1.524 . S
C554 C555 1.415 . S
C555 H525 0.950 . S
C555 C550 1.363 . S
C555 C554 1.415 . S
H556 C553 0.999 . S
H557 C538 0.913 . S
H558 C576 0.951 . S
H559 C578 0.951 . S
H560 C580 0.950 . S
H561 C581 0.950 . S
H562 C583 0.950 . S
H563 C586 0.950 . S
H564 C587 0.950 . S
H565 C589 0.950 . S
H566 C590 0.950 . S
H567 C591 0.951 . S
H568 C593 0.951 . S
H569 C595 0.950 . S
H570 C596 0.950 . S
H571 C598 0.950 . S
H572 C601 0.950 . S
H573 C602 0.950 . S
H574 C604 0.950 . S
H575 C605 0.950 . S
C576 H558 0.951 . S
C576 C577 1.366 . S
C576 C578 1.388 . S
C577 C576 1.366 . S
C577 C581 1.385 . S
C578 H559 0.951 . S
C578 C576 1.388 . S
C578 C579 1.366 . S
C579 C578 1.366 . S
C579 C580 1.414 . S
C579 C582 1.499 . S
C580 H560 0.950 . S
C580 C579 1.414 . S
C580 C581 1.374 . S
C581 H561 0.950 . S
C581 C577 1.385 . S
C581 C580 1.374 . S
C582 C579 1.499 . S
C582 C583 1.373 . S
C582 C584 1.389 . S
C583 H562 0.950 . S
C583 C582 1.373 . S
C583 C599 1.377 . S
C584 C582 1.389 . S
C584 C585 1.524 . S
C584 C598 1.377 . S
C585 C584 1.524 . S
C585 C586 1.397 . S
C585 C590 1.363 . S
C586 H563 0.950 . S
C586 C585 1.397 . S
C586 C587 1.334 . S
C587 H564 0.950 . S
C587 C586 1.334 . S
C587 C588 1.287 . S
C588 C587 1.287 . S
C588 C589 1.524 . S
C588 H607 0.913 . S
C589 H565 0.950 . S
C589 C588 1.524 . S
C589 C590 1.415 . S
C590 H566 0.950 . S
C590 C585 1.363 . S
C590 C589 1.415 . S
C591 H567 0.951 . S
C591 C592 1.366 . S
C591 C593 1.388 . S
C592 C591 1.366 . S
C592 C596 1.385 . S
C593 H568 0.951 . S
C593 C591 1.388 . S
C593 C594 1.366 . S
C594 C593 1.366 . S
C594 C595 1.414 . S
C594 C597 1.499 . S
C595 H569 0.950 . S
C595 C594 1.414 . S
C595 C596 1.374 . S
C596 H570 0.950 . S
C596 C592 1.385 . S
C596 C595 1.374 . S
C597 C594 1.499 . S
C597 C598 1.373 . S
C597 C599 1.389 . S
C598 H571 0.950 . S
C598 C584 1.377 . S
C598 C597 1.373 . S
C599 C583 1.377 . S
C599 C597 1.389 . S
C599 C600 1.524 . S
C600 C599 1.524 . S
C600 C601 1.397 . S
C600 C605 1.363 . S
C601 H572 0.950 . S
C601 C600 1.397 . S
C601 C602 1.334 . S
C602 H573 0.950 . S
C602 C601 1.334 . S
C602 C603 1.287 . S
C603 C602 1.287 . S
C603 C604 1.524 . S
C603 H606 0.999 . S
C604 H574 0.950 . S
C604 C603 1.524 . S
C604 C605 1.415 . S
C605 H575 0.950 . S
C605 C600 1.363 . S
C605 C604 1.415 . S
H606 C603 0.999 . S
H607 C588 0.913 . S
H608 C626 0.951 . S
H609 C628 0.951 . S
H610 C630 0.950 . S
H611 C631 0.950 . S
H612 C633 0.950 . S
H613 C636 0.950 . S
H614 C637 0.950 . S
H615 C639 0.950 . S
H616 C640 0.950 . S
H617 C641 0.951 . S
H618 C643 0.951 . S
H619 C645 0.950 . S
H620 C646 0.950 . S
H621 C648 0.950 . S
H622 C651 0.950 . S
H623 C652 0.950 . S
H624 C654 0.950 . S
H625 C655 0.950 . S
C626 H608 0.951 . S
C626 C627 1.366 . S
C626 C628 1.388 . S
C627 C626 1.366 . S
C627 C631 1.385 . S
C628 H609 0.951 . S
C628 C626 1.388 . S
C628 C629 1.366 . S
C629 C628 1.366 . S
C629 C630 1.414 . S
C629 C632 1.499 . S
C630 H610 0.950 . S
C630 C629 1.414 . S
C630 C631 1.374 . S
C631 H611 0.950 . S
C631 C627 1.385 . S
C631 C630 1.374 . S
C632 C629 1.499 . S
C632 C633 1.373 . S
C632 C634 1.389 . S
C633 H612 0.950 . S
C633 C632 1.373 . S
C633 C649 1.377 . S
C634 C632 1.389 . S
C634 C635 1.524 . S
C634 C648 1.377 . S
C635 C634 1.524 . S
C635 C636 1.397 . S
C635 C640 1.363 . S
C636 H613 0.950 . S
C636 C635 1.397 . S
C636 C637 1.334 . S
C637 H614 0.950 . S
C637 C636 1.334 . S
C637 C638 1.287 . S
C638 C637 1.287 . S
C638 C639 1.524 . S
C638 H657 0.913 . S
C639 H615 0.950 . S
C639 C638 1.524 . S
C639 C640 1.415 . S
C640 H616 0.950 . S
C640 C635 1.363 . S
C640 C639 1.415 . S
C641 H617 0.951 . S
C641 C642 1.366 . S
C641 C643 1.388 . S
C642 C641 1.366 . S
C642 C646 1.385 . S
C643 H618 0.951 . S
C643 C641 1.388 . S
C643 C644 1.366 . S
C644 C643 1.366 . S
C644 C645 1.414 . S
C644 C647 1.499 . S
C645 H619 0.950 . S
C645 C644 1.414 . S
C645 C646 1.374 . S
C646 H620 0.950 . S
C646 C642 1.385 . S
C646 C645 1.374 . S
C647 C644 1.499 . S
C647 C648 1.373 . S
C647 C649 1.389 . S
C648 H621 0.950 . S
C648 C634 1.377 . S
C648 C647 1.373 . S
C649 C633 1.377 . S
C649 C647 1.389 . S
C649 C650 1.524 . S
C650 C649 1.524 . S
C650 C651 1.397 . S
C650 C655 1.363 . S
C651 H622 0.950 . S
C651 C650 1.397 . S
C651 C652 1.334 . S
C652 H623 0.950 . S
C652 C651 1.334 . S
C652 C653 1.287 . S
C653 C652 1.287 . S
C653 C654 1.524 . S
C653 H656 0.999 . S
C654 H624 0.950 . S
C654 C653 1.524 . S
C654 C655 1.415 . S
C655 H625 0.950 . S
C655 C650 1.363 . S
C655 C654 1.415 . S
H656 C653 0.999 . S
H657 C638 0.913 . S
H658 C676 0.951 1_554 S
H659 C678 0.951 1_554 S
H660 C680 0.950 . S
H661 C681 0.950 . S
H662 C683 0.950 . S
H663 C686 0.950 . S
H664 C687 0.950 . S
H665 C689 0.950 1_554 S
H666 C690 0.950 1_554 S
H667 C691 0.951 . S
H668 C693 0.951 . S
H669 C695 0.950 . S
H670 C696 0.950 . S
H671 C698 0.950 . S
H672 C701 0.950 . S
H673 C702 0.950 . S
H674 C704 0.950 . S
H675 C705 0.950 . S
C676 H658 0.951 1_556 S
C676 C677 1.366 . S
C676 C678 1.388 . S
C677 C676 1.366 . S
C677 C681 1.385 . S
C678 H659 0.951 1_556 S
C678 C676 1.388 . S
C678 C679 1.366 . S
C679 C678 1.366 . S
C679 C680 1.414 . S
C679 C682 1.499 . S
C680 H660 0.950 . S
C680 C679 1.414 . S
C680 C681 1.374 . S
C681 H661 0.950 . S
C681 C677 1.385 . S
C681 C680 1.374 . S
C682 C679 1.499 . S
C682 C683 1.373 . S
C682 C684 1.389 . S
C683 H662 0.950 . S
C683 C682 1.373 . S
C683 C699 1.377 . S
C684 C682 1.389 . S
C684 C685 1.524 . S
C684 C698 1.377 . S
C685 C684 1.524 . S
C685 C686 1.397 . S
C685 C690 1.363 . S
C686 H663 0.950 . S
C686 C685 1.397 . S
C686 C687 1.334 . S
C687 H664 0.950 . S
C687 C686 1.334 . S
C687 C688 1.287 . S
C688 C687 1.287 . S
C688 C689 1.524 . S
C688 H707 0.913 . S
C689 H665 0.950 1_556 S
C689 C688 1.524 . S
C689 C690 1.415 . S
C690 H666 0.950 1_556 S
C690 C685 1.363 . S
C690 C689 1.415 . S
C691 H667 0.951 . S
C691 C692 1.366 . S
C691 C693 1.388 . S
C692 C691 1.366 . S
C692 C696 1.385 . S
C693 H668 0.951 . S
C693 C691 1.388 . S
C693 C694 1.366 . S
C694 C693 1.366 . S
C694 C695 1.414 . S
C694 C697 1.499 . S
C695 H669 0.950 . S
C695 C694 1.414 . S
C695 C696 1.374 . S
C696 H670 0.950 . S
C696 C692 1.385 . S
C696 C695 1.374 . S
C697 C694 1.499 . S
C697 C698 1.373 . S
C697 C699 1.389 . S
C698 H671 0.950 . S
C698 C684 1.377 . S
C698 C697 1.373 . S
C699 C683 1.377 . S
C699 C697 1.389 . S
C699 C700 1.524 . S
C700 C699 1.524 . S
C700 C701 1.397 . S
C700 C705 1.363 . S
C701 H672 0.950 . S
C701 C700 1.397 . S
C701 C702 1.334 . S
C702 H673 0.950 . S
C702 C701 1.334 . S
C702 C703 1.287 . S
C703 C702 1.287 . S
C703 C704 1.524 . S
C703 H706 0.999 . S
C704 H674 0.950 . S
C704 C703 1.524 . S
C704 C705 1.415 . S
C705 H675 0.950 . S
C705 C700 1.363 . S
C705 C704 1.415 . S
H706 C703 0.999 . S
H707 C688 0.913 . S
H708 C726 0.951 . S
H709 C728 0.951 . S
H710 C730 0.950 . S
H711 C731 0.951 1_554 S
H712 C733 0.950 . S
H713 C736 0.950 . S
H714 C737 0.950 . S
H715 C739 0.950 . S
H716 C740 0.950 . S
H717 C741 0.951 . S
H718 C743 0.951 . S
H719 C745 0.950 . S
H720 C746 0.950 . S
H721 C748 0.950 . S
H722 C751 0.950 . S
H723 C752 0.950 . S
H724 C754 0.950 . S
H725 C755 0.950 . S
C726 H708 0.951 . S
C726 C727 1.366 1_556 S
C726 C728 1.388 . S
C727 C726 1.366 1_554 S
C727 C731 1.385 1_554 S
C728 H709 0.951 . S
C728 C726 1.388 . S
C728 C729 1.366 . S
C729 C728 1.366 . S
C729 C730 1.414 . S
C729 C732 1.499 . S
C730 H710 0.950 . S
C730 C729 1.414 . S
C730 C731 1.372 . S
C731 H711 0.951 1_556 S
C731 C727 1.385 1_556 S
C731 C730 1.372 . S
C732 C729 1.499 . S
C732 C733 1.373 1_455 S
C732 C734 1.389 . S
C733 H712 0.950 . S
C733 C732 1.373 1_655 S
C733 C749 1.377 . S
C734 C732 1.389 . S
C734 C735 1.524 . S
C734 C748 1.377 . S
C735 C734 1.524 . S
C735 C736 1.397 . S
C735 C740 1.363 . S
C736 H713 0.950 . S
C736 C735 1.397 . S
C736 C737 1.334 . S
C737 H714 0.950 . S
C737 C736 1.334 . S
C737 C738 1.287 . S
C738 C737 1.287 . S
C738 C739 1.524 . S
C738 H757 0.913 . S
C739 H715 0.950 . S
C739 C738 1.524 . S
C739 C740 1.415 . S
C740 H716 0.950 . S
C740 C735 1.363 . S
C740 C739 1.415 . S
C741 H717 0.951 . S
C741 C742 1.366 . S
C741 C743 1.388 . S
C742 C741 1.366 . S
C742 C746 1.385 . S
C743 H718 0.951 . S
C743 C741 1.388 . S
C743 C744 1.366 . S
C744 C743 1.366 . S
C744 C745 1.414 . S
C744 C747 1.499 . S
C745 H719 0.950 . S
C745 C744 1.414 . S
C745 C746 1.374 . S
C746 H720 0.950 . S
C746 C742 1.385 . S
C746 C745 1.374 . S
C747 C744 1.499 . S
C747 C748 1.373 1_655 S
C747 C749 1.389 . S
C748 H721 0.950 . S
C748 C734 1.377 . S
C748 C747 1.373 1_455 S
C749 C733 1.377 . S
C749 C747 1.389 . S
C749 C750 1.524 . S
C750 C749 1.524 . S
C750 C751 1.397 . S
C750 C755 1.363 . S
C751 H722 0.950 . S
C751 C750 1.397 . S
C751 C752 1.334 . S
C752 H723 0.950 . S
C752 C751 1.334 . S
C752 C753 1.287 . S
C753 C752 1.287 . S
C753 C754 1.524 . S
C753 H756 0.999 . S
C754 H724 0.950 . S
C754 C753 1.524 . S
C754 C755 1.415 . S
C755 H725 0.950 . S
C755 C750 1.363 . S
C755 C754 1.415 . S
H756 C753 0.999 . S
H757 C738 0.913 . S
H758 C776 0.951 . S
H759 C778 0.951 . S
H760 C780 0.950 . S
H761 C781 0.950 . S
H762 C783 0.950 . S
H763 C786 0.895 1_565 S
H764 C787 0.950 . S
H765 C789 0.950 . S
H766 C790 0.950 . S
H767 C791 0.951 . S
H768 C793 0.951 . S
H769 C795 0.950 . S
H770 C796 0.950 . S
H771 C798 0.950 . S
H772 C801 0.895 1_545 S
H773 C802 0.950 . S
H774 C804 0.950 . S
H775 C805 0.950 . S
C776 H758 0.951 . S
C776 C777 1.366 . S
C776 C778 1.388 . S
C777 C776 1.366 . S
C777 C781 1.385 . S
C778 H759 0.951 . S
C778 C776 1.388 . S
C778 C779 1.366 . S
C779 C778 1.366 . S
C779 C780 1.414 . S
C779 C782 1.499 . S
C780 H760 0.950 . S
C780 C779 1.414 . S
C780 C781 1.374 . S
C781 H761 0.950 . S
C781 C777 1.385 . S
C781 C780 1.374 . S
C782 C779 1.499 . S
C782 C783 1.373 1_556 S
C782 C784 1.389 1_565 S
C783 H762 0.950 . S
C783 C782 1.373 1_554 S
C783 C799 1.377 . S
C784 C782 1.389 1_545 S
C784 C785 1.524 . S
C784 C798 1.377 . S
C785 C784 1.524 . S
C785 C786 1.397 . S
C785 C790 1.363 . S
C786 H763 0.895 1_545 S
C786 C785 1.397 . S
C786 C787 1.334 . S
C787 H764 0.950 . S
C787 C786 1.334 . S
C787 C788 1.287 . S
C788 C787 1.287 . S
C788 C789 1.524 . S
C788 H807 0.913 . S
C789 H765 0.950 . S
C789 C788 1.524 . S
C789 C790 1.415 . S
C790 H766 0.950 . S
C790 C785 1.363 . S
C790 C789 1.415 . S
C791 H767 0.951 . S
C791 C792 1.366 . S
C791 C793 1.388 . S
C792 C791 1.366 . S
C792 C796 1.385 . S
C793 H768 0.951 . S
C793 C791 1.388 . S
C793 C794 1.366 . S
C794 C793 1.366 . S
C794 C795 1.414 . S
C794 C797 1.499 . S
C795 H769 0.950 . S
C795 C794 1.414 . S
C795 C796 1.374 . S
C796 H770 0.950 . S
C796 C792 1.385 . S
C796 C795 1.374 . S
C797 C794 1.499 . S
C797 C798 1.373 1_554 S
C797 C799 1.389 1_545 S
C798 H771 0.950 . S
C798 C784 1.377 . S
C798 C797 1.373 1_556 S
C799 C783 1.377 . S
C799 C797 1.389 1_565 S
C799 C800 1.524 . S
C800 C799 1.524 . S
C800 C801 1.397 . S
C800 C805 1.363 . S
C801 H772 0.895 1_565 S
C801 C800 1.397 . S
C801 C802 1.334 . S
C802 H773 0.950 . S
C802 C801 1.334 . S
C802 C803 1.287 . S
C803 C802 1.287 . S
C803 C804 1.524 . S
C803 H806 0.999 . S
C804 H774 0.950 . S
C804 C803 1.524 . S
C804 C805 1.415 . S
C805 H775 0.950 . S
C805 C800 1.363 . S
C805 C804 1.415 . S
H806 C803 0.999 . S
H807 C788 0.913 . S
H808 C826 0.951 . S
H809 C828 0.951 . S
H810 C830 0.950 . S
H811 C831 0.950 . S
H812 C833 0.950 . S
H813 C836 0.950 . S
H814 C837 0.950 . S
H815 C839 0.950 . S
H816 C840 0.950 . S
H817 C841 0.951 . S
H818 C843 0.951 . S
H819 C845 0.950 . S
H820 C846 0.950 . S
H821 C848 0.950 . S
H822 C851 0.950 . S
H823 C852 0.950 . S
H824 C854 0.950 . S
H825 C855 0.950 . S
C826 H808 0.951 . S
C826 C827 1.366 . S
C826 C828 1.388 . S
C827 C826 1.366 . S
C827 C831 1.385 . S
C828 H809 0.951 . S
C828 C826 1.388 . S
C828 C829 1.366 . S
C829 C828 1.366 . S
C829 C830 1.414 . S
C829 C832 1.499 . S
C830 H810 0.950 . S
C830 C829 1.414 . S
C830 C831 1.374 . S
C831 H811 0.950 . S
C831 C827 1.385 . S
C831 C830 1.374 . S
C832 C829 1.499 . S
C832 C833 1.373 . S
C832 C834 1.389 . S
C833 H812 0.950 . S
C833 C832 1.373 . S
C833 C849 1.377 . S
C834 C832 1.389 . S
C834 C835 1.524 . S
C834 C848 1.377 . S
C835 C834 1.524 . S
C835 C836 1.397 . S
C835 C840 1.363 . S
C836 H813 0.950 . S
C836 C835 1.397 . S
C836 C837 1.334 . S
C837 H814 0.950 . S
C837 C836 1.334 . S
C837 C838 1.287 . S
C838 C837 1.287 . S
C838 C839 1.524 . S
C838 H857 0.913 . S
C839 H815 0.950 . S
C839 C838 1.524 . S
C839 C840 1.415 . S
C840 H816 0.950 . S
C840 C835 1.363 . S
C840 C839 1.415 . S
C841 H817 0.951 . S
C841 C842 1.366 . S
C841 C843 1.388 1_556 S
C842 C841 1.366 . S
C842 C846 1.385 1_556 S
C843 H818 0.951 . S
C843 C841 1.388 1_554 S
C843 C844 1.366 . S
C844 C843 1.366 . S
C844 C845 1.414 . S
C844 C847 1.499 . S
C845 H819 0.950 . S
C845 C844 1.414 . S
C845 C846 1.374 . S
C846 H820 0.950 . S
C846 C842 1.385 1_554 S
C846 C845 1.374 . S
C847 C844 1.499 . S
C847 C848 1.373 . S
C847 C849 1.389 . S
C848 H821 0.950 . S
C848 C834 1.377 . S
C848 C847 1.373 . S
C849 C833 1.377 . S
C849 C847 1.389 . S
C849 C850 1.524 . S
C850 C849 1.524 . S
C850 C851 1.397 . S
C850 C855 1.363 . S
C851 H822 0.950 . S
C851 C850 1.397 . S
C851 C852 1.334 1_554 S
C852 H823 0.950 . S
C852 C851 1.334 1_556 S
C852 C853 1.287 . S
C853 C852 1.287 . S
C853 C854 1.524 . S
C853 H856 0.999 . S
C854 H824 0.950 . S
C854 C853 1.524 . S
C854 C855 1.415 1_556 S
C855 H825 0.950 . S
C855 C850 1.363 . S
C855 C854 1.415 1_554 S
H856 C853 0.999 . S
H857 C838 0.913 . S
H858 C876 0.951 . S
H859 C878 0.951 . S
H860 C880 0.950 . S
H861 C881 0.950 . S
H862 C883 0.950 . S
H863 C886 0.950 1_655 S
H864 C887 0.950 . S
H865 C889 0.950 . S
H866 C890 0.950 . S
H867 C891 0.951 . S
H868 C893 0.951 . S
H869 C895 0.950 . S
H870 C896 0.950 . S
H871 C898 0.950 . S
H872 C901 0.950 1_455 S
H873 C902 0.950 . S
H874 C904 0.950 . S
H875 C905 0.950 . S
C876 H858 0.951 . S
C876 C877 1.366 . S
C876 C878 1.388 . S
C877 C876 1.366 . S
C877 C881 1.385 . S
C878 H859 0.951 . S
C878 C876 1.388 . S
C878 C879 1.366 . S
C879 C878 1.366 . S
C879 C880 1.414 . S
C879 C882 1.499 . S
C880 H860 0.950 . S
C880 C879 1.414 . S
C880 C881 1.374 . S
C881 H861 0.950 . S
C881 C877 1.385 . S
C881 C880 1.374 . S
C882 C879 1.499 . S
C882 C883 1.373 . S
C882 C884 1.389 1_655 S
C883 H862 0.950 . S
C883 C882 1.373 . S
C883 C899 1.377 . S
C884 C882 1.389 1_455 S
C884 C885 1.524 . S
C884 C898 1.377 . S
C885 C884 1.524 . S
C885 C886 1.397 . S
C885 C890 1.363 . S
C886 H863 0.950 1_455 S
C886 C885 1.397 . S
C886 C887 1.334 . S
C887 H864 0.950 . S
C887 C886 1.334 . S
C887 C888 1.287 . S
C888 C887 1.287 . S
C888 C889 1.524 . S
C888 H907 0.913 . S
C889 H865 0.950 . S
C889 C888 1.524 . S
C889 C890 1.415 . S
C890 H866 0.950 . S
C890 C885 1.363 . S
C890 C889 1.415 . S
C891 H867 0.951 . S
C891 C892 1.366 . S
C891 C893 1.388 . S
C892 C891 1.366 . S
C892 C896 1.385 . S
C893 H868 0.951 . S
C893 C891 1.388 . S
C893 C894 1.366 . S
C894 C893 1.366 . S
C894 C895 1.414 . S
C894 C897 1.499 . S
C895 H869 0.950 . S
C895 C894 1.414 . S
C895 C896 1.374 . S
C896 H870 0.950 . S
C896 C892 1.385 . S
C896 C895 1.374 . S
C897 C894 1.499 . S
C897 C898 1.373 . S
C897 C899 1.389 1_455 S
C898 H871 0.950 . S
C898 C884 1.377 . S
C898 C897 1.373 . S
C899 C883 1.377 . S
C899 C897 1.389 1_655 S
C899 C900 1.524 . S
C900 C899 1.524 . S
C900 C901 1.397 . S
C900 C905 1.363 . S
C901 H872 0.950 1_655 S
C901 C900 1.397 . S
C901 C902 1.334 . S
C902 H873 0.950 . S
C902 C901 1.334 . S
C902 C903 1.287 . S
C903 C902 1.287 . S
C903 C904 1.524 . S
C903 H906 0.999 . S
C904 H874 0.950 . S
C904 C903 1.524 . S
C904 C905 1.415 . S
C905 H875 0.950 . S
C905 C900 1.363 . S
C905 C904 1.415 . S
H906 C903 0.999 . S
H907 C888 0.913 . S
H908 C926 0.951 . S
H909 C928 0.951 . S
H910 C930 0.950 . S
H911 C931 0.950 . S
H912 C933 0.950 . S
H913 C936 0.950 . S
H914 C937 0.950 . S
H915 C939 0.950 . S
H916 C940 0.950 . S
H917 C941 0.951 . S
H918 C943 0.951 . S
H919 C945 0.950 . S
H920 C946 0.950 . S
H921 C948 0.950 . S
H922 C951 0.950 . S
H923 C952 0.950 . S
H924 C954 0.950 . S
H925 C955 0.950 . S
C926 H908 0.951 . S
C926 C927 1.366 . S
C926 C928 1.388 . S
C927 C926 1.366 . S
C927 C931 1.385 . S
C928 H909 0.951 . S
C928 C926 1.388 . S
C928 C929 1.366 . S
C929 C928 1.366 . S
C929 C930 1.414 . S
C929 C932 1.499 . S
C930 H910 0.950 . S
C930 C929 1.414 . S
C930 C931 1.374 . S
C931 H911 0.950 . S
C931 C927 1.385 . S
C931 C930 1.374 . S
C932 C929 1.499 . S
C932 C933 1.373 1_545 S
C932 C934 1.389 . S
C933 H912 0.950 . S
C933 C932 1.373 1_565 S
C933 C949 1.377 . S
C934 C932 1.389 . S
C934 C935 1.524 . S
C934 C948 1.377 . S
C935 C934 1.524 . S
C935 C936 1.397 . S
C935 C940 1.363 . S
C936 H913 0.950 . S
C936 C935 1.397 . S
C936 C937 1.334 . S
C937 H914 0.950 . S
C937 C936 1.334 . S
C937 C938 1.287 . S
C938 C937 1.287 . S
C938 C939 1.524 . S
C938 H957 0.913 . S
C939 H915 0.950 . S
C939 C938 1.524 . S
C939 C940 1.415 . S
C940 H916 0.950 . S
C940 C935 1.363 . S
C940 C939 1.415 . S
C941 H917 0.951 . S
C941 C942 1.366 . S
C941 C943 1.388 . S
C942 C941 1.366 . S
C942 C946 1.385 . S
C943 H918 0.951 . S
C943 C941 1.388 . S
C943 C944 1.366 . S
C944 C943 1.366 . S
C944 C945 1.414 . S
C944 C947 1.499 . S
C945 H919 0.950 . S
C945 C944 1.414 . S
C945 C946 1.374 . S
C946 H920 0.950 . S
C946 C942 1.385 . S
C946 C945 1.374 . S
C947 C944 1.499 . S
C947 C948 1.373 1_565 S
C947 C949 1.389 . S
C948 H921 0.950 . S
C948 C934 1.377 . S
C948 C947 1.373 1_545 S
C949 C933 1.377 . S
C949 C947 1.389 . S
C949 C950 1.524 . S
C950 C949 1.524 . S
C950 C951 1.397 . S
C950 C955 1.363 . S
C951 H922 0.950 . S
C951 C950 1.397 . S
C951 C952 1.334 . S
C952 H923 0.950 . S
C952 C951 1.334 . S
C952 C953 1.287 . S
C953 C952 1.287 . S
C953 C954 1.524 . S
C953 H956 0.999 . S
C954 H924 0.950 . S
C954 C953 1.524 . S
C954 C955 1.415 . S
C955 H925 0.950 . S
C955 C950 1.363 . S
C955 C954 1.415 . S
H956 C953 0.999 . S
H957 C938 0.913 . S
H958 C976 0.951 . S
H959 C978 0.951 . S
H960 C980 0.950 . S
H961 C981 0.950 . S
H962 C983 0.950 . S
H963 C986 0.950 . S
H964 C987 0.950 . S
H965 C989 0.950 . S
H966 C990 0.950 . S
H967 C991 0.951 . S
H968 C993 0.951 . S
H969 C995 0.950 . S
H970 C996 0.950 . S
H971 C998 0.950 . S
H972 C1001 0.950 . S
H973 C1002 0.950 . S
H974 C1004 0.950 . S
H975 C1005 0.950 . S
C976 H958 0.951 . S
C976 C977 1.366 . S
C976 C978 1.388 . S
C977 C976 1.366 . S
C977 C981 1.385 . S
C978 H959 0.951 . S
C978 C976 1.388 . S
C978 C979 1.366 . S
C979 C978 1.366 . S
C979 C980 1.414 . S
C979 C982 1.499 . S
C980 H960 0.950 . S
C980 C979 1.414 . S
C980 C981 1.374 . S
C981 H961 0.950 . S
C981 C977 1.385 . S
C981 C980 1.374 . S
C982 C979 1.499 . S
C982 C983 1.373 . S
C982 C984 1.389 . S
C983 H962 0.950 . S
C983 C982 1.373 . S
C983 C999 1.377 . S
C984 C982 1.389 . S
C984 C985 1.524 . S
C984 C998 1.377 . S
C985 C984 1.524 . S
C985 C986 1.397 . S
C985 C990 1.363 . S
C986 H963 0.950 . S
C986 C985 1.397 . S
C986 C987 1.334 . S
C987 H964 0.950 . S
C987 C986 1.334 . S
C987 C988 1.287 . S
C988 C987 1.287 . S
C988 C989 1.524 . S
C988 H1007 0.913 . S
C989 H965 0.950 . S
C989 C988 1.524 . S
C989 C990 1.415 . S
C990 H966 0.950 . S
C990 C985 1.363 . S
C990 C989 1.415 . S
C991 H967 0.951 . S
C991 C992 1.366 . S
C991 C993 1.388 . S
C992 C991 1.366 . S
C992 C996 1.385 . S
C993 H968 0.951 . S
C993 C991 1.388 . S
C993 C994 1.366 . S
C994 C993 1.366 . S
C994 C995 1.414 . S
C994 C997 1.499 . S
C995 H969 0.950 . S
C995 C994 1.414 . S
C995 C996 1.374 . S
C996 H970 0.950 . S
C996 C992 1.385 . S
C996 C995 1.374 . S
C997 C994 1.499 . S
C997 C998 1.373 . S
C997 C999 1.389 . S
C998 H971 0.950 . S
C998 C984 1.377 . S
C998 C997 1.373 . S
C999 C983 1.377 . S
C999 C997 1.389 . S
C999 C1000 1.524 . S
C1000 C999 1.524 . S
C1000 C1001 1.397 . S
C1000 C1005 1.363 . S
C1001 H972 0.950 . S
C1001 C1000 1.397 . S
C1001 C1002 1.334 . S
C1002 H973 0.950 . S
C1002 C1001 1.334 . S
C1002 C1003 1.287 . S
C1003 C1002 1.287 . S
C1003 C1004 1.524 . S
C1003 H1006 0.999 . S
C1004 H974 0.950 . S
C1004 C1003 1.524 . S
C1004 C1005 1.415 . S
C1005 H975 0.950 . S
C1005 C1000 1.363 . S
C1005 C1004 1.415 . S
H1006 C1003 0.999 . S
H1007 C988 0.913 . S
H1008 C1026 0.951 . S
H1009 C1028 0.951 . S
H1010 C1030 0.950 . S
H1011 C1031 0.950 . S
H1012 C1033 0.950 . S
H1013 C1036 0.950 . S
H1014 C1037 0.950 . S
H1015 C1039 0.950 . S
H1016 C1040 0.950 . S
H1017 C1041 0.951 . S
H1018 C1043 0.951 . S
H1019 C1045 0.950 . S
H1020 C1046 0.950 . S
H1021 C1048 0.950 . S
H1022 C1051 0.950 . S
H1023 C1052 0.950 . S
H1024 C1054 0.950 . S
H1025 C1055 0.950 . S
C1026 H1008 0.951 . S
C1026 C1027 1.366 . S
C1026 C1028 1.388 . S
C1027 C1026 1.366 . S
C1027 C1031 1.385 . S
C1028 H1009 0.951 . S
C1028 C1026 1.388 . S
C1028 C1029 1.366 . S
C1029 C1028 1.366 . S
C1029 C1030 1.414 . S
C1029 C1032 1.499 . S
C1030 H1010 0.950 . S
C1030 C1029 1.414 . S
C1030 C1031 1.374 . S
C1031 H1011 0.950 . S
C1031 C1027 1.385 . S
C1031 C1030 1.374 . S
C1032 C1029 1.499 . S
C1032 C1033 1.373 . S
C1032 C1034 1.389 . S
C1033 H1012 0.950 . S
C1033 C1032 1.373 . S
C1033 C1049 1.377 . S
C1034 C1032 1.389 . S
C1034 C1035 1.524 . S
C1034 C1048 1.377 . S
C1035 C1034 1.524 . S
C1035 C1036 1.397 . S
C1035 C1040 1.363 . S
C1036 H1013 0.950 . S
C1036 C1035 1.397 . S
C1036 C1037 1.334 . S
C1037 H1014 0.950 . S
C1037 C1036 1.334 . S
C1037 C1038 1.287 . S
C1038 C1037 1.287 . S
C1038 C1039 1.524 . S
C1038 H1057 0.913 . S
C1039 H1015 0.950 . S
C1039 C1038 1.524 . S
C1039 C1040 1.415 . S
C1040 H1016 0.950 . S
C1040 C1035 1.363 . S
C1040 C1039 1.415 . S
C1041 H1017 0.951 . S
C1041 C1042 1.366 . S
C1041 C1043 1.388 . S
C1042 C1041 1.366 . S
C1042 C1046 1.385 . S
C1043 H1018 0.951 . S
C1043 C1041 1.388 . S
C1043 C1044 1.366 . S
C1044 C1043 1.366 . S
C1044 C1045 1.414 . S
C1044 C1047 1.499 . S
C1045 H1019 0.950 . S
C1045 C1044 1.414 . S
C1045 C1046 1.374 . S
C1046 H1020 0.950 . S
C1046 C1042 1.385 . S
C1046 C1045 1.374 . S
C1047 C1044 1.499 . S
C1047 C1048 1.373 . S
C1047 C1049 1.389 . S
C1048 H1021 0.950 . S
C1048 C1034 1.377 . S
C1048 C1047 1.373 . S
C1049 C1033 1.377 . S
C1049 C1047 1.389 . S
C1049 C1050 1.524 . S
C1050 C1049 1.524 . S
C1050 C1051 1.397 . S
C1050 C1055 1.363 . S
C1051 H1022 0.950 . S
C1051 C1050 1.397 . S
C1051 C1052 1.334 . S
C1052 H1023 0.950 . S
C1052 C1051 1.334 . S
C1052 C1053 1.287 . S
C1053 C1052 1.287 . S
C1053 C1054 1.524 . S
C1053 H1056 0.999 . S
C1054 H1024 0.950 . S
C1054 C1053 1.524 . S
C1054 C1055 1.415 . S
C1055 H1025 0.950 . S
C1055 C1050 1.363 . S
C1055 C1054 1.415 . S
H1056 C1053 0.999 . S
H1057 C1038 0.913 . S
H1058 C1076 0.951 . S
H1059 C1078 0.951 . S
H1060 C1080 0.950 . S
H1061 C1081 0.950 . S
H1062 C1083 0.950 . S
H1063 C1086 0.950 . S
H1064 C1087 0.950 . S
H1065 C1089 0.950 . S
H1066 C1090 0.950 . S
H1067 C1091 0.951 . S
H1068 C1093 0.951 . S
H1069 C1095 0.950 . S
H1070 C1096 0.950 . S
H1071 C1098 0.950 . S
H1072 C1101 0.950 . S
H1073 C1102 0.950 . S
H1074 C1104 0.950 . S
H1075 C1105 0.950 . S
C1076 H1058 0.951 . S
C1076 C1077 1.366 . S
C1076 C1078 1.388 . S
C1077 C1076 1.366 . S
C1077 C1081 1.385 . S
C1078 H1059 0.951 . S
C1078 C1076 1.388 . S
C1078 C1079 1.366 . S
C1079 C1078 1.366 . S
C1079 C1080 1.414 . S
C1079 C1082 1.499 . S
C1080 H1060 0.950 . S
C1080 C1079 1.414 . S
C1080 C1081 1.374 . S
C1081 H1061 0.950 . S
C1081 C1077 1.385 . S
C1081 C1080 1.374 . S
C1082 C1079 1.499 . S
C1082 C1083 1.373 . S
C1082 C1084 1.389 . S
C1083 H1062 0.950 . S
C1083 C1082 1.373 . S
C1083 C1099 1.377 . S
C1084 C1082 1.389 . S
C1084 C1085 1.524 . S
C1084 C1098 1.377 . S
C1085 C1084 1.524 . S
C1085 C1086 1.397 . S
C1085 C1090 1.363 . S
C1086 H1063 0.950 . S
C1086 C1085 1.397 . S
C1086 C1087 1.334 . S
C1087 H1064 0.950 . S
C1087 C1086 1.334 . S
C1087 C1088 1.287 . S
C1088 C1087 1.287 . S
C1088 C1089 1.524 . S
C1088 H1107 0.913 . S
C1089 H1065 0.950 . S
C1089 C1088 1.524 . S
C1089 C1090 1.415 . S
C1090 H1066 0.950 . S
C1090 C1085 1.363 . S
C1090 C1089 1.415 . S
C1091 H1067 0.951 . S
C1091 C1092 1.366 . S
C1091 C1093 1.388 . S
C1092 C1091 1.366 . S
C1092 C1096 1.385 . S
C1093 H1068 0.951 . S
C1093 C1091 1.388 . S
C1093 C1094 1.366 . S
C1094 C1093 1.366 . S
C1094 C1095 1.414 . S
C1094 C1097 1.499 . S
C1095 H1069 0.950 . S
C1095 C1094 1.414 . S
C1095 C1096 1.374 . S
C1096 H1070 0.950 . S
C1096 C1092 1.385 . S
C1096 C1095 1.374 . S
C1097 C1094 1.499 . S
C1097 C1098 1.373 . S
C1097 C1099 1.389 . S
C1098 H1071 0.950 . S
C1098 C1084 1.377 . S
C1098 C1097 1.373 . S
C1099 C1083 1.377 . S
C1099 C1097 1.389 . S
C1099 C1100 1.524 . S
C1100 C1099 1.524 . S
C1100 C1101 1.397 . S
C1100 C1105 1.363 . S
C1101 H1072 0.950 . S
C1101 C1100 1.397 . S
C1101 C1102 1.334 . S
C1102 H1073 0.950 . S
C1102 C1101 1.334 . S
C1102 C1103 1.287 . S
C1103 C1102 1.287 . S
C1103 C1104 1.524 . S
C1103 H1106 0.999 . S
C1104 H1074 0.950 . S
C1104 C1103 1.524 . S
C1104 C1105 1.415 . S
C1105 H1075 0.950 . S
C1105 C1100 1.363 . S
C1105 C1104 1.415 . S
H1106 C1103 0.999 . S
H1107 C1088 0.913 . S
H1108 C1126 0.951 . S
H1109 C1128 0.951 . S
H1110 C1130 0.950 . S
H1111 C1131 0.950 . S
H1112 C1133 0.950 . S
H1113 C1136 0.950 . S
H1114 C1137 0.950 . S
H1115 C1139 0.950 . S
H1116 C1140 0.950 . S
H1117 C1141 0.951 . S
H1118 C1143 0.951 . S
H1119 C1145 0.950 . S
H1120 C1146 0.950 . S
H1121 C1148 0.950 . S
H1122 C1151 0.950 . S
H1123 C1152 0.950 . S
H1124 C1154 0.950 . S
H1125 C1155 0.950 . S
C1126 H1108 0.951 . S
C1126 C1127 1.366 . S
C1126 C1128 1.388 . S
C1127 C1126 1.366 . S
C1127 C1131 1.385 . S
C1128 H1109 0.951 . S
C1128 C1126 1.388 . S
C1128 C1129 1.366 . S
C1129 C1128 1.366 . S
C1129 C1130 1.414 . S
C1129 C1132 1.499 . S
C1130 H1110 0.950 . S
C1130 C1129 1.414 . S
C1130 C1131 1.374 . S
C1131 H1111 0.950 . S
C1131 C1127 1.385 . S
C1131 C1130 1.374 . S
C1132 C1129 1.499 . S
C1132 C1133 1.373 . S
C1132 C1134 1.389 . S
C1133 H1112 0.950 . S
C1133 C1132 1.373 . S
C1133 C1149 1.377 . S
C1134 C1132 1.389 . S
C1134 C1135 1.524 . S
C1134 C1148 1.377 . S
C1135 C1134 1.524 . S
C1135 C1136 1.397 . S
C1135 C1140 1.363 . S
C1136 H1113 0.950 . S
C1136 C1135 1.397 . S
C1136 C1137 1.334 . S
C1137 H1114 0.950 . S
C1137 C1136 1.334 . S
C1137 C1138 1.287 . S
C1138 C1137 1.287 . S
C1138 C1139 1.524 . S
C1138 H1157 0.913 . S
C1139 H1115 0.950 . S
C1139 C1138 1.524 . S
C1139 C1140 1.415 . S
C1140 H1116 0.950 . S
C1140 C1135 1.363 . S
C1140 C1139 1.415 . S
C1141 H1117 0.951 . S
C1141 C1142 1.366 . S
C1141 C1143 1.388 . S
C1142 C1141 1.366 . S
C1142 C1146 1.385 . S
C1143 H1118 0.951 . S
C1143 C1141 1.388 . S
C1143 C1144 1.366 . S
C1144 C1143 1.366 . S
C1144 C1145 1.414 . S
C1144 C1147 1.499 . S
C1145 H1119 0.950 . S
C1145 C1144 1.414 . S
C1145 C1146 1.374 . S
C1146 H1120 0.950 . S
C1146 C1142 1.385 . S
C1146 C1145 1.374 . S
C1147 C1144 1.499 . S
C1147 C1148 1.373 . S
C1147 C1149 1.389 . S
C1148 H1121 0.950 . S
C1148 C1134 1.377 . S
C1148 C1147 1.373 . S
C1149 C1133 1.377 . S
C1149 C1147 1.389 . S
C1149 C1150 1.524 . S
C1150 C1149 1.524 . S
C1150 C1151 1.397 . S
C1150 C1155 1.363 . S
C1151 H1122 0.950 . S
C1151 C1150 1.397 . S
C1151 C1152 1.334 . S
C1152 H1123 0.950 . S
C1152 C1151 1.334 . S
C1152 C1153 1.287 . S
C1153 C1152 1.287 . S
C1153 C1154 1.524 . S
C1153 H1156 0.999 . S
C1154 H1124 0.950 . S
C1154 C1153 1.524 . S
C1154 C1155 1.415 . S
C1155 H1125 0.950 . S
C1155 C1150 1.363 . S
C1155 C1154 1.415 . S
H1156 C1153 0.999 . S
H1157 C1138 0.913 . S
H1158 C1176 0.951 . S
H1159 C1178 0.951 . S
H1160 C1180 0.950 . S
H1161 C1181 0.950 . S
H1162 C1183 0.950 . S
H1163 C1186 0.950 . S
H1164 C1187 0.950 . S
H1165 C1189 0.950 . S
H1166 C1190 0.950 . S
H1167 C1191 0.951 . S
H1168 C1193 0.951 . S
H1169 C1195 0.950 . S
H1170 C1196 0.950 . S
H1171 C1198 0.950 . S
H1172 C1201 0.950 . S
H1173 C1202 0.950 . S
H1174 C1204 0.950 . S
H1175 C1205 0.950 . S
C1176 H1158 0.951 . S
C1176 C1177 1.366 . S
C1176 C1178 1.388 . S
C1177 C1176 1.366 . S
C1177 C1181 1.385 . S
C1178 H1159 0.951 . S
C1178 C1176 1.388 . S
C1178 C1179 1.366 . S
C1179 C1178 1.366 . S
C1179 C1180 1.414 . S
C1179 C1182 1.499 . S
C1180 H1160 0.950 . S
C1180 C1179 1.414 . S
C1180 C1181 1.374 . S
C1181 H1161 0.950 . S
C1181 C1177 1.385 . S
C1181 C1180 1.374 . S
C1182 C1179 1.499 . S
C1182 C1183 1.373 . S
C1182 C1184 1.389 . S
C1183 H1162 0.950 . S
C1183 C1182 1.373 . S
C1183 C1199 1.377 . S
C1184 C1182 1.389 . S
C1184 C1185 1.524 . S
C1184 C1198 1.377 . S
C1185 C1184 1.524 . S
C1185 C1186 1.397 . S
C1185 C1190 1.363 . S
C1186 H1163 0.950 . S
C1186 C1185 1.397 . S
C1186 C1187 1.334 . S
C1187 H1164 0.950 . S
C1187 C1186 1.334 . S
C1187 C1188 1.287 . S
C1188 C1187 1.287 . S
C1188 C1189 1.524 . S
C1188 H1207 0.913 . S
C1189 H1165 0.950 . S
C1189 C1188 1.524 . S
C1189 C1190 1.415 . S
C1190 H1166 0.950 . S
C1190 C1185 1.363 . S
C1190 C1189 1.415 . S
C1191 H1167 0.951 . S
C1191 C1192 1.366 . S
C1191 C1193 1.388 . S
C1192 C1191 1.366 . S
C1192 C1196 1.385 . S
C1193 H1168 0.951 . S
C1193 C1191 1.388 . S
C1193 C1194 1.366 . S
C1194 C1193 1.366 . S
C1194 C1195 1.414 . S
C1194 C1197 1.499 . S
C1195 H1169 0.950 . S
C1195 C1194 1.414 . S
C1195 C1196 1.374 . S
C1196 H1170 0.950 . S
C1196 C1192 1.385 . S
C1196 C1195 1.374 . S
C1197 C1194 1.499 . S
C1197 C1198 1.373 . S
C1197 C1199 1.389 . S
C1198 H1171 0.950 . S
C1198 C1184 1.377 . S
C1198 C1197 1.373 . S
C1199 C1183 1.377 . S
C1199 C1197 1.389 . S
C1199 C1200 1.524 . S
C1200 C1199 1.524 . S
C1200 C1201 1.397 . S
C1200 C1205 1.363 . S
C1201 H1172 0.950 . S
C1201 C1200 1.397 . S
C1201 C1202 1.334 . S
C1202 H1173 0.950 . S
C1202 C1201 1.334 . S
C1202 C1203 1.287 . S
C1203 C1202 1.287 . S
C1203 C1204 1.524 . S
C1203 H1206 0.999 . S
C1204 H1174 0.950 . S
C1204 C1203 1.524 . S
C1204 C1205 1.415 . S
C1205 H1175 0.950 . S
C1205 C1200 1.363 . S
C1205 C1204 1.415 . S
H1206 C1203 0.999 . S
H1207 C1188 0.913 . S
H1208 C1226 0.951 . S
H1209 C1228 0.951 . S
H1210 C1230 0.950 . S
H1211 C1231 0.950 . S
H1212 C1233 0.950 . S
H1213 C1236 0.950 . S
H1214 C1237 0.950 . S
H1215 C1239 0.950 . S
H1216 C1240 0.950 . S
H1217 C1241 0.951 . S
H1218 C1243 0.951 . S
H1219 C1245 0.950 . S
H1220 C1246 0.950 . S
H1221 C1248 0.950 . S
H1222 C1251 0.950 . S
H1223 C1252 0.950 . S
H1224 C1254 0.950 . S
H1225 C1255 0.950 . S
C1226 H1208 0.951 . S
C1226 C1227 1.366 . S
C1226 C1228 1.388 . S
C1227 C1226 1.366 . S
C1227 C1231 1.385 . S
C1228 H1209 0.951 . S
C1228 C1226 1.388 . S
C1228 C1229 1.366 . S
C1229 C1228 1.366 . S
C1229 C1230 1.414 . S
C1229 C1232 1.499 . S
C1230 H1210 0.950 . S
C1230 C1229 1.414 . S
C1230 C1231 1.374 . S
C1231 H1211 0.950 . S
C1231 C1227 1.385 . S
C1231 C1230 1.374 . S
C1232 C1229 1.499 . S
C1232 C1233 1.373 . S
C1232 C1234 1.389 . S
C1233 H1212 0.950 . S
C1233 C1232 1.373 . S
C1233 C1249 1.377 . S
C1234 C1232 1.389 . S
C1234 C1235 1.524 . S
C1234 C1248 1.377 . S
C1235 C1234 1.524 . S
C1235 C1236 1.397 . S
C1235 C1240 1.363 . S
C1236 H1213 0.950 . S
C1236 C1235 1.397 . S
C1236 C1237 1.334 . S
C1237 H1214 0.950 . S
C1237 C1236 1.334 . S
C1237 C1238 1.287 . S
C1238 C1237 1.287 . S
C1238 C1239 1.524 . S
C1238 H1257 0.913 . S
C1239 H1215 0.950 . S
C1239 C1238 1.524 . S
C1239 C1240 1.415 . S
C1240 H1216 0.950 . S
C1240 C1235 1.363 . S
C1240 C1239 1.415 . S
C1241 H1217 0.951 . S
C1241 C1242 1.366 . S
C1241 C1243 1.388 . S
C1242 C1241 1.366 . S
C1242 C1246 1.385 1_554 S
C1243 H1218 0.951 . S
C1243 C1241 1.388 . S
C1243 C1244 1.366 1_554 S
C1244 C1243 1.366 1_556 S
C1244 C1245 1.414 . S
C1244 C1247 1.499 . S
C1245 H1219 0.950 . S
C1245 C1244 1.414 . S
C1245 C1246 1.374 . S
C1246 H1220 0.950 . S
C1246 C1242 1.385 1_556 S
C1246 C1245 1.374 . S
C1247 C1244 1.499 . S
C1247 C1248 1.373 . S
C1247 C1249 1.389 . S
C1248 H1221 0.950 . S
C1248 C1234 1.377 . S
C1248 C1247 1.373 . S
C1249 C1233 1.377 . S
C1249 C1247 1.389 . S
C1249 C1250 1.524 . S
C1250 C1249 1.524 . S
C1250 C1251 1.397 . S
C1250 C1255 1.363 1_556 S
C1251 H1222 0.950 . S
C1251 C1250 1.397 . S
C1251 C1252 1.334 1_556 S
C1252 H1223 0.950 . S
C1252 C1251 1.334 1_554 S
C1252 C1253 1.287 . S
C1253 C1252 1.287 . S
C1253 C1254 1.524 . S
C1253 H1256 0.999 . S
C1254 H1224 0.950 . S
C1254 C1253 1.524 . S
C1254 C1255 1.415 . S
C1255 H1225 0.950 . S
C1255 C1250 1.363 1_554 S
C1255 C1254 1.415 . S
H1256 C1253 0.999 . S
H1257 C1238 0.913 . S
H1258 C1276 0.951 . S
H1259 C1278 0.951 . S
H1260 C1280 0.950 . S
H1261 C1281 0.950 . S
H1262 C1283 0.950 . S
H1263 C1286 0.950 . S
H1264 C1287 0.950 1_556 S
H1265 C1289 0.950 . S
H1266 C1290 0.950 . S
H1267 C1291 0.951 . S
H1268 C1293 0.951 . S
H1269 C1295 0.950 . S
H1270 C1296 0.950 . S
H1271 C1298 0.950 . S
H1272 C1301 0.950 . S
H1273 C1302 0.950 . S
H1274 C1304 0.950 . S
H1275 C1305 0.950 . S
C1276 H1258 0.951 . S
C1276 C1277 1.366 . S
C1276 C1278 1.388 . S
C1277 C1276 1.366 . S
C1277 C1281 1.385 . S
C1278 H1259 0.951 . S
C1278 C1276 1.388 . S
C1278 C1279 1.366 . S
C1279 C1278 1.366 . S
C1279 C1280 1.414 . S
C1279 C1282 1.499 . S
C1280 H1260 0.950 . S
C1280 C1279 1.414 . S
C1280 C1281 1.374 . S
C1281 H1261 0.950 . S
C1281 C1277 1.385 . S
C1281 C1280 1.374 . S
C1282 C1279 1.499 . S
C1282 C1283 1.373 . S
C1282 C1284 1.389 . S
C1283 H1262 0.950 . S
C1283 C1282 1.373 . S
C1283 C1299 1.377 . S
C1284 C1282 1.389 . S
C1284 C1285 1.524 . S
C1284 C1298 1.377 . S
C1285 C1284 1.524 . S
C1285 C1286 1.397 . S
C1285 C1290 1.363 . S
C1286 H1263 0.950 . S
C1286 C1285 1.397 . S
C1286 C1287 1.334 . S
C1287 H1264 0.950 1_554 S
C1287 C1286 1.334 . S
C1287 C1288 1.287 . S
C1288 C1287 1.287 . S
C1288 C1289 1.524 . S
C1288 H1307 0.913 1_554 S
C1289 H1265 0.950 . S
C1289 C1288 1.524 . S
C1289 C1290 1.415 . S
C1290 H1266 0.950 . S
C1290 C1285 1.363 . S
C1290 C1289 1.415 . S
C1291 H1267 0.951 . S
C1291 C1292 1.366 . S
C1291 C1293 1.388 . S
C1292 C1291 1.366 . S
C1292 C1296 1.385 1_556 S
C1293 H1268 0.951 . S
C1293 C1291 1.388 . S
C1293 C1294 1.366 1_556 S
C1294 C1293 1.366 1_554 S
C1294 C1295 1.414 . S
C1294 C1297 1.499 . S
C1295 H1269 0.950 . S
C1295 C1294 1.414 . S
C1295 C1296 1.374 . S
C1296 H1270 0.950 . S
C1296 C1292 1.385 1_554 S
C1296 C1295 1.374 . S
C1297 C1294 1.499 . S
C1297 C1298 1.373 . S
C1297 C1299 1.389 . S
C1298 H1271 0.950 . S
C1298 C1284 1.377 . S
C1298 C1297 1.373 . S
C1299 C1283 1.377 . S
C1299 C1297 1.389 . S
C1299 C1300 1.524 . S
C1300 C1299 1.524 . S
C1300 C1301 1.397 . S
C1300 C1305 1.363 . S
C1301 H1272 0.950 . S
C1301 C1300 1.397 . S
C1301 C1302 1.334 . S
C1302 H1273 0.950 . S
C1302 C1301 1.334 . S
C1302 C1303 1.287 . S
C1303 C1302 1.287 . S
C1303 C1304 1.524 . S
C1303 H1306 0.999 . S
C1304 H1274 0.950 . S
C1304 C1303 1.524 . S
C1304 C1305 1.415 . S
C1305 H1275 0.950 . S
C1305 C1300 1.363 . S
C1305 C1304 1.415 . S
H1306 C1303 0.999 . S
H1307 C1288 0.913 1_556 S
H1308 C1326 0.951 . S
H1309 C1328 0.951 . S
H1310 C1330 0.950 . S
H1311 C1331 0.950 . S
H1312 C1333 0.950 . S
H1313 C1336 0.950 . S
H1314 C1337 0.950 . S
H1315 C1339 0.950 . S
H1316 C1340 0.950 . S
H1317 C1341 0.951 . S
H1318 C1343 0.951 . S
H1319 C1345 0.950 . S
H1320 C1346 0.950 . S
H1321 C1348 0.950 . S
H1322 C1351 0.950 . S
H1323 C1352 0.950 . S
H1324 C1354 0.950 . S
H1325 C1355 0.950 . S
C1326 H1308 0.951 . S
C1326 C1327 1.366 . S
C1326 C1328 1.388 . S
C1327 C1326 1.366 . S
C1327 C1331 1.385 . S
C1328 H1309 0.951 . S
C1328 C1326 1.388 . S
C1328 C1329 1.366 . S
C1329 C1328 1.366 . S
C1329 C1330 1.414 . S
C1329 C1332 1.499 . S
C1330 H1310 0.950 . S
C1330 C1329 1.414 . S
C1330 C1331 1.374 . S
C1331 H1311 0.950 . S
C1331 C1327 1.385 . S
C1331 C1330 1.374 . S
C1332 C1329 1.499 . S
C1332 C1333 1.373 . S
C1332 C1334 1.389 . S
C1333 H1312 0.950 . S
C1333 C1332 1.373 . S
C1333 C1349 1.377 . S
C1334 C1332 1.389 . S
C1334 C1335 1.524 . S
C1334 C1348 1.377 . S
C1335 C1334 1.524 . S
C1335 C1336 1.397 . S
C1335 C1340 1.363 . S
C1336 H1313 0.950 . S
C1336 C1335 1.397 . S
C1336 C1337 1.334 . S
C1337 H1314 0.950 . S
C1337 C1336 1.334 . S
C1337 C1338 1.287 . S
C1338 C1337 1.287 . S
C1338 C1339 1.524 . S
C1338 H1357 0.913 . S
C1339 H1315 0.950 . S
C1339 C1338 1.524 . S
C1339 C1340 1.415 . S
C1340 H1316 0.950 . S
C1340 C1335 1.363 . S
C1340 C1339 1.415 . S
C1341 H1317 0.951 . S
C1341 C1342 1.366 . S
C1341 C1343 1.388 . S
C1342 C1341 1.366 . S
C1342 C1346 1.385 . S
C1343 H1318 0.951 . S
C1343 C1341 1.388 . S
C1343 C1344 1.366 . S
C1344 C1343 1.366 . S
C1344 C1345 1.414 . S
C1344 C1347 1.499 . S
C1345 H1319 0.950 . S
C1345 C1344 1.414 . S
C1345 C1346 1.374 . S
C1346 H1320 0.950 . S
C1346 C1342 1.385 . S
C1346 C1345 1.374 . S
C1347 C1344 1.499 . S
C1347 C1348 1.373 . S
C1347 C1349 1.389 . S
C1348 H1321 0.950 . S
C1348 C1334 1.377 . S
C1348 C1347 1.373 . S
C1349 C1333 1.377 . S
C1349 C1347 1.389 . S
C1349 C1350 1.524 . S
C1350 C1349 1.524 . S
C1350 C1351 1.397 . S
C1350 C1355 1.363 . S
C1351 H1322 0.950 . S
C1351 C1350 1.397 . S
C1351 C1352 1.334 . S
C1352 H1323 0.950 . S
C1352 C1351 1.334 . S
C1352 C1353 1.287 . S
C1353 C1352 1.287 . S
C1353 C1354 1.524 . S
C1353 H1356 0.999 . S
C1354 H1324 0.950 . S
C1354 C1353 1.524 . S
C1354 C1355 1.415 . S
C1355 H1325 0.950 . S
C1355 C1350 1.363 . S
C1355 C1354 1.415 . S
H1356 C1353 0.999 . S
H1357 C1338 0.913 . S
H1358 C1376 0.951 . S
H1359 C1378 0.951 . S
H1360 C1380 0.950 . S
H1361 C1381 0.950 . S
H1362 C1383 0.950 . S
H1363 C1386 0.950 . S
H1364 C1387 0.950 . S
H1365 C1389 0.950 . S
H1366 C1390 0.950 . S
H1367 C1391 0.951 . S
H1368 C1393 0.951 . S
H1369 C1395 0.950 . S
H1370 C1396 0.950 . S
H1371 C1398 0.950 . S
H1372 C1401 0.950 . S
H1373 C1402 0.950 . S
H1374 C1404 0.950 . S
H1375 C1405 0.950 . S
C1376 H1358 0.951 . S
C1376 C1377 1.366 1_556 S
C1376 C1378 1.388 . S
C1377 C1376 1.366 1_554 S
C1377 C1381 1.385 . S
C1378 H1359 0.951 . S
C1378 C1376 1.388 . S
C1378 C1379 1.366 . S
C1379 C1378 1.366 . S
C1379 C1380 1.414 . S
C1379 C1382 1.499 . S
C1380 H1360 0.950 . S
C1380 C1379 1.414 . S
C1380 C1381 1.374 1_556 S
C1381 H1361 0.950 . S
C1381 C1377 1.385 . S
C1381 C1380 1.374 1_554 S
C1382 C1379 1.499 . S
C1382 C1383 1.373 . S
C1382 C1384 1.389 . S
C1383 H1362 0.950 . S
C1383 C1382 1.373 . S
C1383 C1399 1.377 . S
C1384 C1382 1.389 . S
C1384 C1385 1.524 . S
C1384 C1398 1.377 . S
C1385 C1384 1.524 . S
C1385 C1386 1.397 . S
C1385 C1390 1.363 . S
C1386 H1363 0.950 . S
C1386 C1385 1.397 . S
C1386 C1387 1.334 . S
C1387 H1364 0.950 . S
C1387 C1386 1.334 . S
C1387 C1388 1.287 . S
C1388 C1387 1.287 . S
C1388 C1389 1.524 . S
C1388 H1407 0.913 . S
C1389 H1365 0.950 . S
C1389 C1388 1.524 . S
C1389 C1390 1.415 . S
C1390 H1366 0.950 . S
C1390 C1385 1.363 . S
C1390 C1389 1.415 . S
C1391 H1367 0.951 . S
C1391 C1392 1.366 . S
C1391 C1393 1.388 . S
C1392 C1391 1.366 . S
C1392 C1396 1.385 . S
C1393 H1368 0.951 . S
C1393 C1391 1.388 . S
C1393 C1394 1.366 . S
C1394 C1393 1.366 . S
C1394 C1395 1.414 . S
C1394 C1397 1.499 . S
C1395 H1369 0.950 . S
C1395 C1394 1.414 . S
C1395 C1396 1.374 . S
C1396 H1370 0.950 . S
C1396 C1392 1.385 . S
C1396 C1395 1.374 . S
C1397 C1394 1.499 . S
C1397 C1398 1.373 . S
C1397 C1399 1.389 . S
C1398 H1371 0.950 . S
C1398 C1384 1.377 . S
C1398 C1397 1.373 . S
C1399 C1383 1.377 . S
C1399 C1397 1.389 . S
C1399 C1400 1.524 . S
C1400 C1399 1.524 . S
C1400 C1401 1.397 . S
C1400 C1405 1.363 . S
C1401 H1372 0.950 . S
C1401 C1400 1.397 . S
C1401 C1402 1.334 . S
C1402 H1373 0.950 . S
C1402 C1401 1.334 . S
C1402 C1403 1.287 . S
C1403 C1402 1.287 . S
C1403 C1404 1.524 . S
C1403 H1406 0.999 . S
C1404 H1374 0.950 . S
C1404 C1403 1.524 . S
C1404 C1405 1.415 . S
C1405 H1375 0.950 . S
C1405 C1400 1.363 . S
C1405 C1404 1.415 . S
H1406 C1403 0.999 . S
H1407 C1388 0.913 . S
H1408 C1426 0.951 . S
H1409 C1428 0.951 . S
H1410 C1430 0.950 . S
H1411 C1431 0.950 . S
H1412 C1433 0.950 . S
H1413 C1436 0.950 . S
H1414 C1437 0.950 . S
H1415 C1439 0.950 . S
H1416 C1440 0.950 . S
H1417 C1441 0.951 . S
H1418 C1443 0.951 . S
H1419 C1445 0.950 . S
H1420 C1446 0.950 . S
H1421 C1448 0.950 1_554 S
H1422 C1451 0.950 . S
H1423 C1452 0.950 . S
H1424 C1454 0.950 . S
H1425 C1455 0.950 . S
C1426 H1408 0.951 . S
C1426 C1427 1.366 . S
C1426 C1428 1.388 . S
C1427 C1426 1.366 . S
C1427 C1431 1.385 . S
C1428 H1409 0.951 . S
C1428 C1426 1.388 . S
C1428 C1429 1.366 . S
C1429 C1428 1.366 . S
C1429 C1430 1.414 . S
C1429 C1432 1.499 . S
C1430 H1410 0.950 . S
C1430 C1429 1.414 . S
C1430 C1431 1.374 . S
C1431 H1411 0.950 . S
C1431 C1427 1.385 . S
C1431 C1430 1.374 . S
C1432 C1429 1.499 . S
C1432 C1433 1.373 . S
C1432 C1434 1.389 . S
C1433 H1412 0.950 . S
C1433 C1432 1.373 . S
C1433 C1449 1.377 . S
C1434 C1432 1.389 . S
C1434 C1435 1.524 . S
C1434 C1448 1.377 . S
C1435 C1434 1.524 . S
C1435 C1436 1.397 . S
C1435 C1440 1.363 . S
C1436 H1413 0.950 . S
C1436 C1435 1.397 . S
C1436 C1437 1.334 . S
C1437 H1414 0.950 . S
C1437 C1436 1.334 . S
C1437 C1438 1.287 . S
C1438 C1437 1.287 . S
C1438 C1439 1.524 . S
C1438 H1457 0.913 . S
C1439 H1415 0.950 . S
C1439 C1438 1.524 . S
C1439 C1440 1.415 . S
C1440 H1416 0.950 . S
C1440 C1435 1.363 . S
C1440 C1439 1.415 . S
C1441 H1417 0.951 . S
C1441 C1442 1.366 . S
C1441 C1443 1.388 . S
C1442 C1441 1.366 . S
C1442 C1446 1.385 . S
C1443 H1418 0.951 . S
C1443 C1441 1.388 . S
C1443 C1444 1.366 . S
C1444 C1443 1.366 . S
C1444 C1445 1.414 . S
C1444 C1447 1.512 . S
C1445 H1419 0.950 . S
C1445 C1444 1.414 . S
C1445 C1446 1.374 . S
C1446 H1420 0.950 . S
C1446 C1442 1.385 . S
C1446 C1445 1.374 . S
C1447 C1444 1.512 . S
C1447 C1448 1.370 1_554 S
C1447 C1449 1.380 1_554 S
C1448 H1421 0.950 1_556 S
C1448 C1434 1.377 . S
C1448 C1447 1.370 1_556 S
C1449 C1433 1.377 . S
C1449 C1447 1.380 1_556 S
C1449 C1450 1.524 . S
C1450 C1449 1.524 . S
C1450 C1451 1.396 1_556 S
C1450 C1455 1.363 . S
C1451 H1422 0.950 . S
C1451 C1450 1.396 1_554 S
C1451 C1452 1.334 . S
C1452 H1423 0.950 . S
C1452 C1451 1.334 . S
C1452 C1453 1.287 1_554 S
C1453 C1452 1.287 1_556 S
C1453 C1454 1.524 . S
C1453 H1456 0.999 . S
C1454 H1424 0.950 . S
C1454 C1453 1.524 . S
C1454 C1455 1.415 . S
C1455 H1425 0.950 . S
C1455 C1450 1.363 . S
C1455 C1454 1.415 . S
H1456 C1453 0.999 . S
H1457 C1438 0.913 . S
H1458 C1476 0.951 . S
H1459 C1478 0.951 . S
H1460 C1480 0.950 . S
H1461 C1481 0.950 . S
H1462 C1483 0.950 . S
H1463 C1486 0.950 . S
H1464 C1487 0.950 . S
H1465 C1489 0.950 . S
H1466 C1490 0.950 . S
H1467 C1491 0.951 . S
H1468 C1493 0.951 . S
H1469 C1495 0.950 . S
H1470 C1496 0.950 . S
H1471 C1498 0.950 . S
H1472 C1501 0.950 . S
H1473 C1502 0.950 . S
H1474 C1504 0.950 . S
H1475 C1505 0.950 . S
C1476 H1458 0.951 . S
C1476 C1477 1.366 . S
C1476 C1478 1.388 . S
C1477 C1476 1.366 . S
C1477 C1481 1.385 . S
C1478 H1459 0.951 . S
C1478 C1476 1.388 . S
C1478 C1479 1.366 . S
C1479 C1478 1.366 . S
C1479 C1480 1.414 . S
C1479 C1482 1.499 1_556 S
C1480 H1460 0.950 . S
C1480 C1479 1.414 . S
C1480 C1481 1.374 . S
C1481 H1461 0.950 . S
C1481 C1477 1.385 . S
C1481 C1480 1.374 . S
C1482 C1479 1.499 1_554 S
C1482 C1483 1.373 . S
C1482 C1484 1.389 . S
C1483 H1462 0.950 . S
C1483 C1482 1.373 . S
C1483 C1499 1.377 . S
C1484 C1482 1.389 . S
C1484 C1485 1.524 . S
C1484 C1498 1.377 . S
C1485 C1484 1.524 . S
C1485 C1486 1.397 1_554 S
C1485 C1490 1.363 . S
C1486 H1463 0.950 . S
C1486 C1485 1.397 1_556 S
C1486 C1487 1.334 . S
C1487 H1464 0.950 . S
C1487 C1486 1.334 . S
C1487 C1488 1.287 . S
C1488 C1487 1.287 . S
C1488 C1489 1.524 . S
C1488 H1507 0.913 . S
C1489 H1465 0.950 . S
C1489 C1488 1.524 . S
C1489 C1490 1.415 1_556 S
C1490 H1466 0.950 . S
C1490 C1485 1.363 . S
C1490 C1489 1.415 1_554 S
C1491 H1467 0.951 . S
C1491 C1492 1.366 . S
C1491 C1493 1.388 . S
C1492 C1491 1.366 . S
C1492 C1496 1.385 . S
C1493 H1468 0.951 . S
C1493 C1491 1.388 . S
C1493 C1494 1.366 . S
C1494 C1493 1.366 . S
C1494 C1495 1.414 . S
C1494 C1497 1.499 . S
C1495 H1469 0.950 . S
C1495 C1494 1.414 . S
C1495 C1496 1.374 . S
C1496 H1470 0.950 . S
C1496 C1492 1.385 . S
C1496 C1495 1.374 . S
C1497 C1494 1.499 . S
C1497 C1498 1.373 . S
C1497 C1499 1.389 . S
C1498 H1471 0.950 . S
C1498 C1484 1.377 . S
C1498 C1497 1.373 . S
C1499 C1483 1.377 . S
C1499 C1497 1.389 . S
C1499 C1500 1.524 . S
C1500 C1499 1.524 . S
C1500 C1501 1.397 . S
C1500 C1505 1.363 . S
C1501 H1472 0.950 . S
C1501 C1500 1.397 . S
C1501 C1502 1.334 . S
C1502 H1473 0.950 . S
C1502 C1501 1.334 . S
C1502 C1503 1.287 . S
C1503 C1502 1.287 . S
C1503 C1504 1.524 . S
C1503 H1506 0.999 . S
C1504 H1474 0.950 . S
C1504 C1503 1.524 . S
C1504 C1505 1.415 . S
C1505 H1475 0.950 . S
C1505 C1500 1.363 . S
C1505 C1504 1.415 . S
H1506 C1503 0.999 . S
H1507 C1488 0.913 . S
H1508 C1526 0.951 . S
H1509 C1528 0.951 . S
H1510 C1530 0.950 . S
H1511 C1531 0.950 . S
H1512 C1533 0.950 . S
H1513 C1536 0.950 . S
H1514 C1537 0.950 . S
H1515 C1539 0.950 . S
H1516 C1540 0.950 . S
H1517 C1541 0.951 . S
H1518 C1543 0.951 . S
H1519 C1545 0.950 . S
H1520 C1546 0.950 . S
H1521 C1548 0.950 . S
H1522 C1551 0.950 . S
H1523 C1552 0.950 . S
H1524 C1554 0.950 . S
H1525 C1555 0.950 . S
C1526 H1508 0.951 . S
C1526 C1527 1.366 . S
C1526 C1528 1.388 . S
C1527 C1526 1.366 . S
C1527 C1531 1.385 . S
C1528 H1509 0.951 . S
C1528 C1526 1.388 . S
C1528 C1529 1.366 . S
C1529 C1528 1.366 . S
C1529 C1530 1.414 . S
C1529 C1532 1.499 . S
C1530 H1510 0.950 . S
C1530 C1529 1.414 . S
C1530 C1531 1.374 . S
C1531 H1511 0.950 . S
C1531 C1527 1.385 . S
C1531 C1530 1.374 . S
C1532 C1529 1.499 . S
C1532 C1533 1.373 . S
C1532 C1534 1.389 . S
C1533 H1512 0.950 . S
C1533 C1532 1.373 . S
C1533 C1549 1.377 . S
C1534 C1532 1.389 . S
C1534 C1535 1.524 . S
C1534 C1548 1.377 . S
C1535 C1534 1.524 . S
C1535 C1536 1.397 . S
C1535 C1540 1.363 . S
C1536 H1513 0.950 . S
C1536 C1535 1.397 . S
C1536 C1537 1.334 . S
C1537 H1514 0.950 . S
C1537 C1536 1.334 . S
C1537 C1538 1.287 . S
C1538 C1537 1.287 . S
C1538 C1539 1.524 . S
C1538 H1557 0.913 . S
C1539 H1515 0.950 . S
C1539 C1538 1.524 . S
C1539 C1540 1.415 . S
C1540 H1516 0.950 . S
C1540 C1535 1.363 . S
C1540 C1539 1.415 . S
C1541 H1517 0.951 . S
C1541 C1542 1.366 . S
C1541 C1543 1.388 . S
C1542 C1541 1.366 . S
C1542 C1546 1.385 . S
C1543 H1518 0.951 . S
C1543 C1541 1.388 . S
C1543 C1544 1.366 . S
C1544 C1543 1.366 . S
C1544 C1545 1.414 . S
C1544 C1547 1.499 . S
C1545 H1519 0.950 . S
C1545 C1544 1.414 . S
C1545 C1546 1.374 . S
C1546 H1520 0.950 . S
C1546 C1542 1.385 . S
C1546 C1545 1.374 . S
C1547 C1544 1.499 . S
C1547 C1548 1.373 . S
C1547 C1549 1.389 . S
C1548 H1521 0.950 . S
C1548 C1534 1.377 . S
C1548 C1547 1.373 . S
C1549 C1533 1.377 . S
C1549 C1547 1.389 . S
C1549 C1550 1.524 . S
C1550 C1549 1.524 . S
C1550 C1551 1.397 . S
C1550 C1555 1.363 . S
C1551 H1522 0.950 . S
C1551 C1550 1.397 . S
C1551 C1552 1.334 . S
C1552 H1523 0.950 . S
C1552 C1551 1.334 . S
C1552 C1553 1.287 . S
C1553 C1552 1.287 . S
C1553 C1554 1.524 . S
C1553 H1556 0.999 . S
C1554 H1524 0.950 . S
C1554 C1553 1.524 . S
C1554 C1555 1.415 . S
C1555 H1525 0.950 . S
C1555 C1550 1.363 . S
C1555 C1554 1.415 . S
H1556 C1553 0.999 . S
H1557 C1538 0.913 . S
H1558 C1576 0.951 . S
H1559 C1578 0.951 . S
H1560 C1580 0.950 . S
H1561 C1581 0.950 . S
H1562 C1583 0.950 . S
H1563 C1586 0.950 . S
H1564 C1587 0.950 . S
H1565 C1589 0.950 . S
H1566 C1590 0.950 . S
H1567 C1591 0.951 . S
H1568 C1593 0.951 . S
H1569 C1595 0.950 . S
H1570 C1596 0.950 . S
H1571 C1598 0.950 . S
H1572 C1601 0.950 . S
H1573 C1602 0.950 . S
H1574 C1604 0.950 . S
H1575 C1605 0.950 . S
C1576 H1558 0.951 . S
C1576 C1577 1.366 . S
C1576 C1578 1.388 . S
C1577 C1576 1.366 . S
C1577 C1581 1.385 . S
C1578 H1559 0.951 . S
C1578 C1576 1.388 . S
C1578 C1579 1.366 . S
C1579 C1578 1.366 . S
C1579 C1580 1.414 . S
C1579 C1582 1.499 . S
C1580 H1560 0.950 . S
C1580 C1579 1.414 . S
C1580 C1581 1.374 . S
C1581 H1561 0.950 . S
C1581 C1577 1.385 . S
C1581 C1580 1.374 . S
C1582 C1579 1.499 . S
C1582 C1583 1.373 . S
C1582 C1584 1.389 . S
C1583 H1562 0.950 . S
C1583 C1582 1.373 . S
C1583 C1599 1.377 . S
C1584 C1582 1.389 . S
C1584 C1585 1.524 . S
C1584 C1598 1.377 . S
C1585 C1584 1.524 . S
C1585 C1586 1.397 . S
C1585 C1590 1.363 . S
C1586 H1563 0.950 . S
C1586 C1585 1.397 . S
C1586 C1587 1.334 . S
C1587 H1564 0.950 . S
C1587 C1586 1.334 . S
C1587 C1588 1.287 . S
C1588 C1587 1.287 . S
C1588 C1589 1.524 . S
C1588 H1607 0.913 . S
C1589 H1565 0.950 . S
C1589 C1588 1.524 . S
C1589 C1590 1.415 . S
C1590 H1566 0.950 . S
C1590 C1585 1.363 . S
C1590 C1589 1.415 . S
C1591 H1567 0.951 . S
C1591 C1592 1.366 . S
C1591 C1593 1.388 . S
C1592 C1591 1.366 . S
C1592 C1596 1.385 . S
C1593 H1568 0.951 . S
C1593 C1591 1.388 . S
C1593 C1594 1.366 . S
C1594 C1593 1.366 . S
C1594 C1595 1.414 . S
C1594 C1597 1.499 . S
C1595 H1569 0.950 . S
C1595 C1594 1.414 . S
C1595 C1596 1.374 . S
C1596 H1570 0.950 . S
C1596 C1592 1.385 . S
C1596 C1595 1.374 . S
C1597 C1594 1.499 . S
C1597 C1598 1.373 . S
C1597 C1599 1.389 . S
C1598 H1571 0.950 . S
C1598 C1584 1.377 . S
C1598 C1597 1.373 . S
C1599 C1583 1.377 . S
C1599 C1597 1.389 . S
C1599 C1600 1.524 . S
C1600 C1599 1.524 . S
C1600 C1601 1.397 . S
C1600 C1605 1.363 . S
C1601 H1572 0.950 . S
C1601 C1600 1.397 . S
C1601 C1602 1.334 . S
C1602 H1573 0.950 . S
C1602 C1601 1.334 . S
C1602 C1603 1.287 . S
C1603 C1602 1.287 . S
C1603 C1604 1.524 . S
C1603 H1606 0.999 . S
C1604 H1574 0.950 . S
C1604 C1603 1.524 . S
C1604 C1605 1.415 . S
C1605 H1575 0.950 . S
C1605 C1600 1.363 . S
C1605 C1604 1.415 . S
H1606 C1603 0.999 . S
H1607 C1588 0.913 . S
H1608 C1626 0.951 . S
H1609 C1628 0.951 . S
H1610 C1630 0.950 . S
H1611 C1631 0.950 . S
H1612 C1633 0.950 . S
H1613 C1636 0.950 . S
H1614 C1637 0.950 . S
H1615 C1639 0.950 . S
H1616 C1640 0.950 . S
H1617 C1641 0.951 . S
H1618 C1643 0.951 . S
H1619 C1645 0.950 . S
H1620 C1646 0.950 . S
H1621 C1648 0.950 . S
H1622 C1651 0.950 . S
H1623 C1652 0.950 . S
H1624 C1654 0.950 . S
H1625 C1655 0.950 . S
C1626 H1608 0.951 . S
C1626 C1627 1.366 1_554 S
C1626 C1628 1.388 . S
C1627 C1626 1.366 1_556 S
C1627 C1631 1.385 . S
C1628 H1609 0.951 . S
C1628 C1626 1.388 . S
C1628 C1629 1.366 . S
C1629 C1628 1.366 . S
C1629 C1630 1.414 . S
C1629 C1632 1.499 . S
C1630 H1610 0.950 . S
C1630 C1629 1.414 . S
C1630 C1631 1.374 1_554 S
C1631 H1611 0.950 . S
C1631 C1627 1.385 . S
C1631 C1630 1.374 1_556 S
C1632 C1629 1.499 . S
C1632 C1633 1.373 . S
C1632 C1634 1.389 . S
C1633 H1612 0.950 . S
C1633 C1632 1.373 . S
C1633 C1649 1.377 . S
C1634 C1632 1.389 . S
C1634 C1635 1.524 . S
C1634 C1648 1.377 . S
C1635 C1634 1.524 . S
C1635 C1636 1.397 . S
C1635 C1640 1.363 . S
C1636 H1613 0.950 . S
C1636 C1635 1.397 . S
C1636 C1637 1.334 . S
C1637 H1614 0.950 . S
C1637 C1636 1.334 . S
C1637 C1638 1.287 . S
C1638 C1637 1.287 . S
C1638 C1639 1.524 . S
C1638 H1657 0.913 . S
C1639 H1615 0.950 . S
C1639 C1638 1.524 . S
C1639 C1640 1.415 . S
C1640 H1616 0.950 . S
C1640 C1635 1.363 . S
C1640 C1639 1.415 . S
C1641 H1617 0.951 . S
C1641 C1642 1.366 . S
C1641 C1643 1.388 . S
C1642 C1641 1.366 . S
C1642 C1646 1.385 . S
C1643 H1618 0.951 . S
C1643 C1641 1.388 . S
C1643 C1644 1.366 . S
C1644 C1643 1.366 . S
C1644 C1645 1.414 . S
C1644 C1647 1.499 . S
C1645 H1619 0.950 . S
C1645 C1644 1.414 . S
C1645 C1646 1.374 . S
C1646 H1620 0.950 . S
C1646 C1642 1.385 . S
C1646 C1645 1.374 . S
C1647 C1644 1.499 . S
C1647 C1648 1.373 . S
C1647 C1649 1.389 . S
C1648 H1621 0.950 . S
C1648 C1634 1.377 . S
C1648 C1647 1.373 . S
C1649 C1633 1.377 . S
C1649 C1647 1.389 . S
C1649 C1650 1.524 . S
C1650 C1649 1.524 . S
C1650 C1651 1.397 . S
C1650 C1655 1.363 . S
C1651 H1622 0.950 . S
C1651 C1650 1.397 . S
C1651 C1652 1.334 . S
C1652 H1623 0.950 . S
C1652 C1651 1.334 . S
C1652 C1653 1.287 . S
C1653 C1652 1.287 . S
C1653 C1654 1.524 . S
C1653 H1656 0.999 . S
C1654 H1624 0.950 . S
C1654 C1653 1.524 . S
C1654 C1655 1.415 . S
C1655 H1625 0.950 . S
C1655 C1650 1.363 . S
C1655 C1654 1.415 . S
H1656 C1653 0.999 . S
H1657 C1638 0.913 . S
H1658 C1676 0.951 . S
H1659 C1678 0.951 . S
H1660 C1680 0.950 . S
H1661 C1681 0.950 . S
H1662 C1683 0.950 . S
H1663 C1686 0.950 . S
H1664 C1687 0.950 . S
H1665 C1689 0.950 . S
H1666 C1690 0.950 . S
H1667 C1691 0.951 . S
H1668 C1693 0.951 . S
H1669 C1695 0.950 . S
H1670 C1696 0.950 . S
H1671 C1698 0.950 . S
H1672 C1701 0.950 . S
H1673 C1702 0.950 . S
H1674 C1704 0.950 . S
H1675 C1705 0.950 . S
C1676 H1658 0.951 . S
C1676 C1677 1.366 . S
C1676 C1678 1.388 . S
C1677 C1676 1.366 . S
C1677 C1681 1.385 . S
C1678 H1659 0.951 . S
C1678 C1676 1.388 . S
C1678 C1679 1.366 . S
C1679 C1678 1.366 . S
C1679 C1680 1.414 . S
C1679 C1682 1.499 . S
C1680 H1660 0.950 . S
C1680 C1679 1.414 . S
C1680 C1681 1.374 . S
C1681 H1661 0.950 . S
C1681 C1677 1.385 . S
C1681 C1680 1.374 . S
C1682 C1679 1.499 . S
C1682 C1683 1.373 . S
C1682 C1684 1.389 . S
C1683 H1662 0.950 . S
C1683 C1682 1.373 . S
C1683 C1699 1.377 . S
C1684 C1682 1.389 . S
C1684 C1685 1.524 . S
C1684 C1698 1.377 . S
C1685 C1684 1.524 . S
C1685 C1686 1.397 . S
C1685 C1690 1.363 . S
C1686 H1663 0.950 . S
C1686 C1685 1.397 . S
C1686 C1687 1.334 . S
C1687 H1664 0.950 . S
C1687 C1686 1.334 . S
C1687 C1688 1.287 . S
C1688 C1687 1.287 . S
C1688 C1689 1.524 . S
C1688 H1707 0.913 . S
C1689 H1665 0.950 . S
C1689 C1688 1.524 . S
C1689 C1690 1.415 . S
C1690 H1666 0.950 . S
C1690 C1685 1.363 . S
C1690 C1689 1.415 . S
C1691 H1667 0.951 . S
C1691 C1692 1.366 . S
C1691 C1693 1.388 . S
C1692 C1691 1.366 . S
C1692 C1696 1.385 . S
C1693 H1668 0.951 . S
C1693 C1691 1.388 . S
C1693 C1694 1.366 . S
C1694 C1693 1.366 . S
C1694 C1695 1.414 . S
C1694 C1697 1.499 . S
C1695 H1669 0.950 . S
C1695 C1694 1.414 . S
C1695 C1696 1.374 . S
C1696 H1670 0.950 . S
C1696 C1692 1.385 . S
C1696 C1695 1.374 . S
C1697 C1694 1.499 . S
C1697 C1698 1.373 . S
C1697 C1699 1.389 . S
C1698 H1671 0.950 . S
C1698 C1684 1.377 . S
C1698 C1697 1.373 . S
C1699 C1683 1.377 . S
C1699 C1697 1.389 . S
C1699 C1700 1.524 . S
C1700 C1699 1.524 . S
C1700 C1701 1.397 . S
C1700 C1705 1.363 . S
C1701 H1672 0.950 . S
C1701 C1700 1.397 . S
C1701 C1702 1.334 . S
C1702 H1673 0.950 . S
C1702 C1701 1.334 . S
C1702 C1703 1.287 . S
C1703 C1702 1.287 . S
C1703 C1704 1.524 . S
C1703 H1706 0.999 . S
C1704 H1674 0.950 . S
C1704 C1703 1.524 . S
C1704 C1705 1.415 . S
C1705 H1675 0.950 . S
C1705 C1700 1.363 . S
C1705 C1704 1.415 . S
H1706 C1703 0.999 . S
H1707 C1688 0.913 . S
H1708 C1726 0.951 . S
H1709 C1728 0.951 . S
H1710 C1730 0.950 . S
H1711 C1731 0.950 . S
H1712 C1733 0.950 . S
H1713 C1736 0.950 . S
H1714 C1737 0.950 . S
H1715 C1739 0.950 . S
H1716 C1740 0.950 . S
H1717 C1741 0.951 . S
H1718 C1743 0.951 . S
H1719 C1745 0.950 . S
H1720 C1746 0.950 . S
H1721 C1748 0.950 . S
H1722 C1751 0.950 . S
H1723 C1752 0.950 . S
H1724 C1754 0.950 . S
H1725 C1755 0.950 . S
C1726 H1708 0.951 . S
C1726 C1727 1.366 . S
C1726 C1728 1.388 . S
C1727 C1726 1.366 . S
C1727 C1731 1.385 . S
C1728 H1709 0.951 . S
C1728 C1726 1.388 . S
C1728 C1729 1.366 . S
C1729 C1728 1.366 . S
C1729 C1730 1.414 . S
C1729 C1732 1.499 . S
C1730 H1710 0.950 . S
C1730 C1729 1.414 . S
C1730 C1731 1.374 . S
C1731 H1711 0.950 . S
C1731 C1727 1.385 . S
C1731 C1730 1.374 . S
C1732 C1729 1.499 . S
C1732 C1733 1.373 . S
C1732 C1734 1.389 . S
C1733 H1712 0.950 . S
C1733 C1732 1.373 . S
C1733 C1749 1.377 . S
C1734 C1732 1.389 . S
C1734 C1735 1.524 . S
C1734 C1748 1.377 . S
C1735 C1734 1.524 . S
C1735 C1736 1.397 . S
C1735 C1740 1.363 . S
C1736 H1713 0.950 . S
C1736 C1735 1.397 . S
C1736 C1737 1.334 . S
C1737 H1714 0.950 . S
C1737 C1736 1.334 . S
C1737 C1738 1.287 . S
C1738 C1737 1.287 . S
C1738 C1739 1.524 . S
C1738 H1757 0.913 . S
C1739 H1715 0.950 . S
C1739 C1738 1.524 . S
C1739 C1740 1.415 . S
C1740 H1716 0.950 . S
C1740 C1735 1.363 . S
C1740 C1739 1.415 . S
C1741 H1717 0.951 . S
C1741 C1742 1.366 . S
C1741 C1743 1.388 . S
C1742 C1741 1.366 . S
C1742 C1746 1.385 . S
C1743 H1718 0.951 . S
C1743 C1741 1.388 . S
C1743 C1744 1.366 . S
C1744 C1743 1.366 . S
C1744 C1745 1.414 . S
C1744 C1747 1.499 . S
C1745 H1719 0.950 . S
C1745 C1744 1.414 . S
C1745 C1746 1.374 . S
C1746 H1720 0.950 . S
C1746 C1742 1.385 . S
C1746 C1745 1.374 . S
C1747 C1744 1.499 . S
C1747 C1748 1.373 . S
C1747 C1749 1.389 . S
C1748 H1721 0.950 . S
C1748 C1734 1.377 . S
C1748 C1747 1.373 . S
C1749 C1733 1.377 . S
C1749 C1747 1.389 . S
C1749 C1750 1.524 . S
C1750 C1749 1.524 . S
C1750 C1751 1.397 . S
C1750 C1755 1.363 . S
C1751 H1722 0.950 . S
C1751 C1750 1.397 . S
C1751 C1752 1.334 . S
C1752 H1723 0.950 . S
C1752 C1751 1.334 . S
C1752 C1753 1.287 . S
C1753 C1752 1.287 . S
C1753 C1754 1.524 . S
C1753 H1756 0.999 . S
C1754 H1724 0.950 . S
C1754 C1753 1.524 . S
C1754 C1755 1.415 . S
C1755 H1725 0.950 . S
C1755 C1750 1.363 . S
C1755 C1754 1.415 . S
H1756 C1753 0.999 . S
H1757 C1738 0.913 . S
H1758 C1776 0.951 . S
H1759 C1778 0.951 . S
H1760 C1780 0.950 . S
H1761 C1781 0.950 . S
H1762 C1783 0.950 . S
H1763 C1786 0.950 . S
H1764 C1787 0.950 . S
H1765 C1789 0.950 . S
H1766 C1790 0.950 . S
H1767 C1791 0.951 . S
H1768 C1793 0.951 . S
H1769 C1795 0.950 . S
H1770 C1796 0.950 . S
H1771 C1798 0.950 . S
H1772 C1801 0.950 . S
H1773 C1802 0.950 . S
H1774 C1804 0.950 . S
H1775 C1805 0.950 . S
C1776 H1758 0.951 . S
C1776 C1777 1.366 . S
C1776 C1778 1.388 . S
C1777 C1776 1.366 . S
C1777 C1781 1.385 . S
C1778 H1759 0.951 . S
C1778 C1776 1.388 . S
C1778 C1779 1.366 . S
C1779 C1778 1.366 . S
C1779 C1780 1.414 . S
C1779 C1782 1.499 . S
C1780 H1760 0.950 . S
C1780 C1779 1.414 . S
C1780 C1781 1.374 . S
C1781 H1761 0.950 . S
C1781 C1777 1.385 . S
C1781 C1780 1.374 . S
C1782 C1779 1.499 . S
C1782 C1783 1.373 . S
C1782 C1784 1.389 . S
C1783 H1762 0.950 . S
C1783 C1782 1.373 . S
C1783 C1799 1.377 . S
C1784 C1782 1.389 . S
C1784 C1785 1.524 . S
C1784 C1798 1.377 . S
C1785 C1784 1.524 . S
C1785 C1786 1.397 . S
C1785 C1790 1.363 . S
C1786 H1763 0.950 . S
C1786 C1785 1.397 . S
C1786 C1787 1.334 . S
C1787 H1764 0.950 . S
C1787 C1786 1.334 . S
C1787 C1788 1.287 . S
C1788 C1787 1.287 . S
C1788 C1789 1.524 . S
C1788 H1807 0.913 . S
C1789 H1765 0.950 . S
C1789 C1788 1.524 . S
C1789 C1790 1.415 . S
C1790 H1766 0.950 . S
C1790 C1785 1.363 . S
C1790 C1789 1.415 . S
C1791 H1767 0.951 . S
C1791 C1792 1.366 . S
C1791 C1793 1.388 . S
C1792 C1791 1.366 . S
C1792 C1796 1.385 . S
C1793 H1768 0.951 . S
C1793 C1791 1.388 . S
C1793 C1794 1.366 . S
C1794 C1793 1.366 . S
C1794 C1795 1.414 . S
C1794 C1797 1.499 . S
C1795 H1769 0.950 . S
C1795 C1794 1.414 . S
C1795 C1796 1.374 . S
C1796 H1770 0.950 . S
C1796 C1792 1.385 . S
C1796 C1795 1.374 . S
C1797 C1794 1.499 . S
C1797 C1798 1.373 . S
C1797 C1799 1.389 . S
C1798 H1771 0.950 . S
C1798 C1784 1.377 . S
C1798 C1797 1.373 . S
C1799 C1783 1.377 . S
C1799 C1797 1.389 . S
C1799 C1800 1.524 . S
C1800 C1799 1.524 . S
C1800 C1801 1.397 . S
C1800 C1805 1.363 . S
C1801 H1772 0.950 . S
C1801 C1800 1.397 . S
C1801 C1802 1.334 . S
C1802 H1773 0.950 . S
C1802 C1801 1.334 . S
C1802 C1803 1.287 . S
C1803 C1802 1.287 . S
C1803 C1804 1.524 . S
C1803 H1806 0.999 . S
C1804 H1774 0.950 . S
C1804 C1803 1.524 . S
C1804 C1805 1.415 . S
C1805 H1775 0.950 . S
C1805 C1800 1.363 . S
C1805 C1804 1.415 . S
H1806 C1803 0.999 . S
H1807 C1788 0.913 . S
H1808 C1826 0.951 . S
H1809 C1828 0.951 . S
H1810 C1830 0.950 . S
H1811 C1831 0.950 . S
H1812 C1833 0.950 . S
H1813 C1836 0.950 . S
H1814 C1837 0.950 . S
H1815 C1839 0.950 . S
H1816 C1840 0.950 . S
H1817 C1841 0.951 . S
H1818 C1843 0.951 . S
H1819 C1845 0.950 . S
H1820 C1846 0.950 . S
H1821 C1848 0.950 . S
H1822 C1851 0.950 . S
H1823 C1852 0.950 . S
H1824 C1854 0.950 . S
H1825 C1855 0.950 . S
C1826 H1808 0.951 . S
C1826 C1827 1.366 . S
C1826 C1828 1.388 . S
C1827 C1826 1.366 . S
C1827 C1831 1.385 . S
C1828 H1809 0.951 . S
C1828 C1826 1.388 . S
C1828 C1829 1.366 . S
C1829 C1828 1.366 . S
C1829 C1830 1.414 . S
C1829 C1832 1.499 . S
C1830 H1810 0.950 . S
C1830 C1829 1.414 . S
C1830 C1831 1.374 . S
C1831 H1811 0.950 . S
C1831 C1827 1.385 . S
C1831 C1830 1.374 . S
C1832 C1829 1.499 . S
C1832 C1833 1.373 . S
C1832 C1834 1.389 . S
C1833 H1812 0.950 . S
C1833 C1832 1.373 . S
C1833 C1849 1.377 . S
C1834 C1832 1.389 . S
C1834 C1835 1.524 . S
C1834 C1848 1.377 . S
C1835 C1834 1.524 . S
C1835 C1836 1.397 . S
C1835 C1840 1.363 . S
C1836 H1813 0.950 . S
C1836 C1835 1.397 . S
C1836 C1837 1.334 . S
C1837 H1814 0.950 . S
C1837 C1836 1.334 . S
C1837 C1838 1.287 . S
C1838 C1837 1.287 . S
C1838 C1839 1.524 . S
C1838 H1857 0.913 . S
C1839 H1815 0.950 . S
C1839 C1838 1.524 . S
C1839 C1840 1.415 . S
C1840 H1816 0.950 . S
C1840 C1835 1.363 . S
C1840 C1839 1.415 . S
C1841 H1817 0.951 . S
C1841 C1842 1.366 . S
C1841 C1843 1.388 . S
C1842 C1841 1.366 . S
C1842 C1846 1.385 . S
C1843 H1818 0.951 . S
C1843 C1841 1.388 . S
C1843 C1844 1.366 . S
C1844 C1843 1.366 . S
C1844 C1845 1.414 . S
C1844 C1847 1.499 1_554 S
C1845 H1819 0.950 . S
C1845 C1844 1.414 . S
C1845 C1846 1.374 . S
C1846 H1820 0.950 . S
C1846 C1842 1.385 . S
C1846 C1845 1.374 . S
C1847 C1844 1.499 1_556 S
C1847 C1848 1.373 . S
C1847 C1849 1.389 . S
C1848 H1821 0.950 . S
C1848 C1834 1.377 . S
C1848 C1847 1.373 . S
C1849 C1833 1.377 . S
C1849 C1847 1.389 . S
C1849 C1850 1.524 . S
C1850 C1849 1.524 . S
C1850 C1851 1.397 . S
C1850 C1855 1.363 . S
C1851 H1822 0.950 . S
C1851 C1850 1.397 . S
C1851 C1852 1.334 . S
C1852 H1823 0.950 . S
C1852 C1851 1.334 . S
C1852 C1853 1.287 . S
C1853 C1852 1.287 . S
C1853 C1854 1.524 . S
C1853 H1856 0.999 . S
C1854 H1824 0.950 . S
C1854 C1853 1.524 . S
C1854 C1855 1.415 . S
C1855 H1825 0.950 . S
C1855 C1850 1.363 . S
C1855 C1854 1.415 . S
H1856 C1853 0.999 . S
H1857 C1838 0.913 . S
H1858 C1876 0.951 . S
H1859 C1878 0.951 . S
H1860 C1880 0.950 . S
H1861 C1881 0.950 . S
H1862 C1883 0.950 . S
H1863 C1886 0.950 . S
H1864 C1887 0.950 . S
H1865 C1889 0.950 . S
H1866 C1890 0.950 . S
H1867 C1891 0.951 . S
H1868 C1893 0.951 . S
H1869 C1895 0.950 . S
H1870 C1896 0.950 . S
H1871 C1898 0.950 1_556 S
H1872 C1901 0.950 . S
H1873 C1902 0.950 . S
H1874 C1904 0.950 . S
H1875 C1905 0.950 . S
C1876 H1858 0.951 . S
C1876 C1877 1.366 . S
C1876 C1878 1.388 . S
C1877 C1876 1.366 . S
C1877 C1881 1.385 . S
C1878 H1859 0.951 . S
C1878 C1876 1.388 . S
C1878 C1879 1.366 . S
C1879 C1878 1.366 . S
C1879 C1880 1.414 . S
C1879 C1882 1.499 . S
C1880 H1860 0.950 . S
C1880 C1879 1.414 . S
C1880 C1881 1.374 . S
C1881 H1861 0.950 . S
C1881 C1877 1.385 . S
C1881 C1880 1.374 . S
C1882 C1879 1.499 . S
C1882 C1883 1.373 . S
C1882 C1884 1.389 . S
C1883 H1862 0.950 . S
C1883 C1882 1.373 . S
C1883 C1899 1.377 . S
C1884 C1882 1.389 . S
C1884 C1885 1.524 . S
C1884 C1898 1.377 . S
C1885 C1884 1.524 . S
C1885 C1886 1.397 . S
C1885 C1890 1.363 . S
C1886 H1863 0.950 . S
C1886 C1885 1.397 . S
C1886 C1887 1.334 . S
C1887 H1864 0.950 . S
C1887 C1886 1.334 . S
C1887 C1888 1.287 . S
C1888 C1887 1.287 . S
C1888 C1889 1.524 . S
C1888 H1907 0.913 . S
C1889 H1865 0.950 . S
C1889 C1888 1.524 . S
C1889 C1890 1.415 . S
C1890 H1866 0.950 . S
C1890 C1885 1.363 . S
C1890 C1889 1.415 . S
C1891 H1867 0.951 . S
C1891 C1892 1.366 . S
C1891 C1893 1.388 . S
C1892 C1891 1.366 . S
C1892 C1896 1.385 . S
C1893 H1868 0.951 . S
C1893 C1891 1.388 . S
C1893 C1894 1.366 . S
C1894 C1893 1.366 . S
C1894 C1895 1.414 . S
C1894 C1897 1.503 . S
C1895 H1869 0.950 . S
C1895 C1894 1.414 . S
C1895 C1896 1.374 . S
C1896 H1870 0.950 . S
C1896 C1892 1.385 . S
C1896 C1895 1.374 . S
C1897 C1894 1.503 . S
C1897 C1898 1.372 1_556 S
C1897 C1899 1.386 1_556 S
C1898 H1871 0.950 1_554 S
C1898 C1884 1.377 . S
C1898 C1897 1.372 1_554 S
C1899 C1883 1.377 . S
C1899 C1897 1.386 1_554 S
C1899 C1900 1.524 . S
C1900 C1899 1.524 . S
C1900 C1901 1.397 1_554 S
C1900 C1905 1.363 . S
C1901 H1872 0.950 . S
C1901 C1900 1.397 1_556 S
C1901 C1902 1.334 . S
C1902 H1873 0.950 . S
C1902 C1901 1.334 . S
C1902 C1903 1.287 1_556 S
C1903 C1902 1.287 1_554 S
C1903 C1904 1.524 . S
C1903 H1906 0.999 1_554 S
C1904 H1874 0.950 . S
C1904 C1903 1.524 . S
C1904 C1905 1.415 . S
C1905 H1875 0.950 . S
C1905 C1900 1.363 . S
C1905 C1904 1.415 . S
H1906 C1903 0.999 1_556 S
H1907 C1888 0.913 . S
C427 C305 1.530 . S
C442 C33 1.530 . S
C477 C339 1.529 . S
C492 C67 1.530 . S
C527 C373 1.530 . S
C542 C101 1.530 . S
C577 C407 1.530 . S
C592 C135 1.530 . S
C627 C169 1.530 . S
C642 C237 1.530 . S
C677 C271 1.530 . S
C692 C203 1.530 . S
C727 C2 1.657 . S
C742 C376 1.657 . S
C777 C206 1.655 . S
C792 C36 1.656 . S
C827 C70 1.656 . S
C842 C240 1.656 . S
C877 C104 1.656 . S
C892 C274 1.656 . S
C927 C308 1.656 . S
C942 C138 1.656 . S
C977 C172 1.656 . S
C992 C342 1.656 . S
C1027 C20 1.572 . S
C1042 C360 1.572 . S
C1077 C54 1.572 . S
C1092 C394 1.572 . S
C1127 C224 1.572 . S
C1142 C88 1.572 . S
C1177 C258 1.572 . S
C1192 C122 1.572 . S
C1227 C156 1.572 . S
C1242 C292 1.572 . S
C1277 C326 1.572 . S
C1292 C190 1.572 . S
C1327 C9 0.686 . S
C1342 C5 0.640 . S
C1377 C39 0.640 . S
C1392 C43 0.685 . S
C1427 C77 0.685 . S
C1442 C73 0.639 . S
C1477 C111 0.687 . S
C1492 C107 0.642 . S
C1527 C141 0.639 . S
C1542 C145 0.682 1_554 S
C1577 C175 0.641 . S
C1592 C179 0.686 . S
C1627 C209 0.640 . S
C1642 C213 0.685 . S
C1677 C243 0.639 . S
C1692 C247 0.685 . S
C1727 C277 0.642 . S
C1742 C281 0.688 . S
C1777 C311 0.639 . S
C1792 C315 0.685 1_556 S
C1827 C345 0.639 . S
C1842 C349 0.685 . S
C1877 C383 0.686 . S
C1892 C379 0.640 . S
