# Generated by pormake.
# Topology fnz, (5)-cn, num edge types: 1
# Building blocks:
#     Node 0, Type 0, BuildingBlock: XOMCOT_clean_sbu_0, # of connection points: 5
#     Node 1, Type 0, BuildingBlock: XOMCOT_clean_sbu_0, # of connection points: 5
#     Node 2, Type 0, BuildingBlock: XOMCOT_clean_sbu_0, # of connection points: 5
#     Node 3, Type 0, BuildingBlock: XOMCOT_clean_sbu_0, # of connection points: 5
#     Node 4, Type 0, BuildingBlock: XOMCOT_clean_sbu_0, # of connection points: 5
#     Node 5, Type 0, BuildingBlock: XOMCOT_clean_sbu_0, # of connection points: 5
#     Node 6, Type 0, BuildingBlock: XOMCOT_clean_sbu_0, # of connection points: 5
#     Node 7, Type 0, BuildingBlock: XOMCOT_clean_sbu_0, # of connection points: 5
#     Node 8, Type 0, BuildingBlock: XOMCOT_clean_sbu_0, # of connection points: 5
#     Node 9, Type 0, BuildingBlock: XOMCOT_clean_sbu_0, # of connection points: 5
#     Node 10, Type 0, BuildingBlock: XOMCOT_clean_sbu_0, # of connection points: 5
#     Node 11, Type 0, BuildingBlock: XOMCOT_clean_sbu_0, # of connection points: 5
#     Edge 12, Type (0, 0), BuildingBlock: AJUNOK_clean_linker_0, # of connection points: 2
#     Edge 13, Type (0, 0), BuildingBlock: AJUNOK_clean_linker_0, # of connection points: 2
#     Edge 14, Type (0, 0), BuildingBlock: AJUNOK_clean_linker_0, # of connection points: 2
#     Edge 15, Type (0, 0), BuildingBlock: AJUNOK_clean_linker_0, # of connection points: 2
#     Edge 16, Type (0, 0), BuildingBlock: AJUNOK_clean_linker_0, # of connection points: 2
#     Edge 17, Type (0, 0), BuildingBlock: AJUNOK_clean_linker_0, # of connection points: 2
#     Edge 18, Type (0, 0), BuildingBlock: AJUNOK_clean_linker_0, # of connection points: 2
#     Edge 19, Type (0, 0), BuildingBlock: AJUNOK_clean_linker_0, # of connection points: 2
#     Edge 20, Type (0, 0), BuildingBlock: AJUNOK_clean_linker_0, # of connection points: 2
#     Edge 21, Type (0, 0), BuildingBlock: AJUNOK_clean_linker_0, # of connection points: 2
#     Edge 22, Type (0, 0), BuildingBlock: AJUNOK_clean_linker_0, # of connection points: 2
#     Edge 23, Type (0, 0), BuildingBlock: AJUNOK_clean_linker_0, # of connection points: 2
#     Edge 24, Type (0, 0), BuildingBlock: AJUNOK_clean_linker_0, # of connection points: 2
#     Edge 25, Type (0, 0), BuildingBlock: AJUNOK_clean_linker_0, # of connection points: 2
#     Edge 26, Type (0, 0), BuildingBlock: AJUNOK_clean_linker_0, # of connection points: 2
#     Edge 27, Type (0, 0), BuildingBlock: AJUNOK_clean_linker_0, # of connection points: 2
#     Edge 28, Type (0, 0), BuildingBlock: AJUNOK_clean_linker_0, # of connection points: 2
#     Edge 29, Type (0, 0), BuildingBlock: AJUNOK_clean_linker_0, # of connection points: 2
#     Edge 30, Type (0, 0), BuildingBlock: AJUNOK_clean_linker_0, # of connection points: 2
#     Edge 31, Type (0, 0), BuildingBlock: AJUNOK_clean_linker_0, # of connection points: 2
#     Edge 32, Type (0, 0), BuildingBlock: AJUNOK_clean_linker_0, # of connection points: 2
#     Edge 33, Type (0, 0), BuildingBlock: AJUNOK_clean_linker_0, # of connection points: 2
#     Edge 34, Type (0, 0), BuildingBlock: AJUNOK_clean_linker_0, # of connection points: 2
#     Edge 35, Type (0, 0), BuildingBlock: AJUNOK_clean_linker_0, # of connection points: 2
#     Edge 36, Type (0, 0), BuildingBlock: AJUNOK_clean_linker_0, # of connection points: 2
#     Edge 37, Type (0, 0), BuildingBlock: AJUNOK_clean_linker_0, # of connection points: 2
#     Edge 38, Type (0, 0), BuildingBlock: AJUNOK_clean_linker_0, # of connection points: 2
#     Edge 39, Type (0, 0), BuildingBlock: AJUNOK_clean_linker_0, # of connection points: 2
#     Edge 40, Type (0, 0), BuildingBlock: AJUNOK_clean_linker_0, # of connection points: 2
#     Edge 41, Type (0, 0), BuildingBlock: AJUNOK_clean_linker_0, # of connection points: 2
# Relax obj value: 0.173
# Max RMSD: 0.244
# Mean RMSD: 0.244
data_MOF--net-fnz--node1-XOMCOT_clean_sbu_0--edge1-AJUNOK_clean_linker_0
_symmetry_space_group_name_H-M    P1
_symmetry_Int_Tables_number       1
_symmetry_cell_setting            triclinic
loop_
_symmetry_equiv_pos_as_xyz
'x, y, z'
_cell_length_a     34.254459
_cell_length_b     34.231612
_cell_length_c     23.258716
_cell_angle_alpha  89.97238
_cell_angle_beta   89.876207
_cell_angle_gamma 119.91925
loop_
_atom_site_label
_atom_site_type_symbol
_atom_site_fract_x
_atom_site_fract_y
_atom_site_fract_z
_atom_type_partial_charge
Co0 Co 0.42246 0.14564 0.0766 0.0
C1 C 0.38492 0.20593 0.06399 0.0
C2 C 0.33876 0.14485 0.10809 0.0
C3 C 0.32028 0.17249 0.10582 0.0
N4 N 0.37918 0.16591 0.08177 0.0
N5 N 0.34954 0.21095 0.07849 0.0
H6 H 0.41501 0.23142 0.04257 0.0
H7 H 0.32417 0.11216 0.1285 0.0
C8 C 0.36113 0.0503 0.03292 0.0
O9 O 0.38728 0.05667 0.98831 0.0
N10 N 0.46654 0.12527 0.07351 0.0
C11 C 0.5119 0.15136 0.0716 0.0
C12 C 0.53117 0.1245 0.07706 0.0
C13 C 0.45923 0.08303 0.08235 0.0
N14 N 0.49786 0.08163 0.08359 0.0
C15 C 0.46601 0.18461 0.96766 0.0
C16 C 0.38727 0.15179 0.90514 0.0
C17 C 0.42828 0.18 0.87734 0.0
C18 C 0.46804 0.19649 0.90954 0.0
C19 C 0.38677 0.14042 0.96293 0.0
N20 N 0.42581 0.15621 0.99356 0.0
H21 H 0.49669 0.19974 0.99216 0.0
H22 H 0.35455 0.12015 0.98373 0.0
H23 H 0.53019 0.18769 0.06844 0.0
H24 H 0.42676 0.05386 0.09068 0.0
O25 O 0.46809 0.20489 0.1033 0.0
O26 O 0.42583 0.14607 0.15915 0.0
O27 O 0.37118 0.08198 0.06896 0.0
C28 C 0.45597 0.18848 0.15511 0.0
H29 H 0.28788 0.1649 0.12311 0.0
H30 H 0.56679 0.13554 0.07624 0.0
H31 H 0.3555 0.13982 0.88314 0.0
H32 H 0.50048 0.21901 0.89027 0.0
Co33 Co 0.28043 0.4167 0.07018 0.0
C34 C 0.1821 0.37465 0.05935 0.0
C35 C 0.20026 0.32985 0.10061 0.0
C36 C 0.1539 0.30905 0.09796 0.0
N37 N 0.21775 0.37091 0.07631 0.0
N38 N 0.14267 0.33744 0.07224 0.0
H39 H 0.18487 0.40454 0.03955 0.0
H40 H 0.21972 0.31618 0.11951 0.0
C41 C 0.32818 0.36553 0.0359 0.0
O42 O 0.35377 0.39651 0.99828 0.0
N43 N 0.34335 0.46315 0.06425 0.0
C44 C 0.36112 0.50076 0.03177 0.0
C45 C 0.40725 0.52192 0.03504 0.0
C46 C 0.37907 0.46303 0.0887 0.0
N47 N 0.4187 0.49821 0.07079 0.0
C48 C 0.26234 0.45255 0.96938 0.0
C49 C 0.2575 0.38914 0.89225 0.0
C50 C 0.24957 0.42329 0.87234 0.0
C51 C 0.25087 0.45445 0.91247 0.0
C52 C 0.26648 0.38706 0.95039 0.0
N53 N 0.27115 0.41985 0.98786 0.0
H54 H 0.26284 0.477 0.99899 0.0
H55 H 0.26788 0.35796 0.9648 0.0
H56 H 0.34246 0.51175 1.00569 0.0
H57 H 0.37611 0.43652 0.1169 0.0
O58 O 0.26485 0.46057 0.09793 0.0
O59 O 0.28472 0.42049 0.15275 0.0
O60 O 0.29687 0.36805 0.0625 0.0
C61 C 0.27076 0.4494 0.14926 0.0
H62 H 0.13035 0.2756 0.11359 0.0
H63 H 0.43036 0.55091 1.00982 0.0
H64 H 0.25583 0.36347 0.86356 0.0
H65 H 0.24183 0.47951 0.90088 0.0
Co66 Co 0.8691 0.27786 0.07462 0.0
C67 C 0.81178 0.18086 0.05764 0.0
C68 C 0.86641 0.19481 0.11466 0.0
C69 C 0.83793 0.14881 0.1122 0.0
N70 N 0.84986 0.21463 0.08026 0.0
N71 N 0.8034 0.1401 0.07653 0.0
H72 H 0.79069 0.18652 0.02831 0.0
H73 H 0.89583 0.21258 0.14158 0.0
C74 C 0.96479 0.31256 0.02987 0.0
O75 O 0.95805 0.33172 0.98493 0.0
N76 N 0.88742 0.34175 0.07058 0.0
C77 C 0.85933 0.35877 0.07028 0.0
C78 C 0.8841 0.40496 0.07219 0.0
C79 C 0.92907 0.37836 0.0751 0.0
N80 N 0.92806 0.41736 0.07441 0.0
C81 C 0.82768 0.28045 0.96747 0.0
C82 C 0.86114 0.23599 0.90259 0.0
C83 C 0.83021 0.24618 0.87705 0.0
C84 C 0.81419 0.26958 0.91012 0.0
C85 C 0.8742 0.24798 0.9598 0.0
N86 N 0.8577 0.27014 0.99172 0.0
H87 H 0.81231 0.29541 0.99284 0.0
H88 H 0.89598 0.23735 0.97931 0.0
H89 H 0.82299 0.33917 0.07084 0.0
H90 H 0.95959 0.37696 0.0804 0.0
O91 O 0.80973 0.2631 0.10281 0.0
O92 O 0.86945 0.28149 0.15721 0.0
O93 O 0.93322 0.29119 0.06629 0.0
C94 C 0.82681 0.26834 0.15425 0.0
H95 H 0.84147 0.12388 0.13671 0.0
H96 H 0.87052 0.42748 0.07412 0.0
H97 H 0.87389 0.21728 0.87929 0.0
H98 H 0.79073 0.2788 0.89228 0.0
Co99 Co 0.59998 0.86745 0.08236 0.0
C100 C 0.6461 0.81501 0.06307 0.0
C101 C 0.68222 0.86943 0.12249 0.0
C102 C 0.70406 0.84487 0.11841 0.0
N103 N 0.64593 0.8506 0.08786 0.0
N104 N 0.68143 0.8111 0.08075 0.0
H105 H 0.62016 0.79152 0.0344 0.0
H106 H 0.69134 0.89816 0.15002 0.0
C107 C 0.65125 0.96271 0.03764 0.0
O108 O 0.61907 0.95399 1.00049 0.0
N109 N 0.55342 0.88437 0.07847 0.0
C110 C 0.5101 0.85868 0.06227 0.0
C111 C 0.48891 0.88376 0.06617 0.0
C112 C 0.55703 0.92397 0.09491 0.0
N113 N 0.51856 0.92509 0.08618 0.0
C114 C 0.55882 0.81653 0.98018 0.0
C115 C 0.63071 0.86603 0.90731 0.0
C116 C 0.59304 0.82733 0.88599 0.0
C117 C 0.55669 0.80257 0.92332 0.0
C118 C 0.6321 0.87779 0.96492 0.0
N119 N 0.59572 0.85439 1.00025 0.0
H120 H 0.53177 0.79513 1.00881 0.0
H121 H 0.66347 0.90462 0.98126 0.0
H122 H 0.49424 0.82388 0.04936 0.0
H123 H 0.58774 0.95191 0.11125 0.0
O124 O 0.55668 0.80837 0.11105 0.0
O125 O 0.59719 0.86883 0.16495 0.0
O126 O 0.64877 0.93203 0.07121 0.0
C127 C 0.56822 0.82596 0.16212 0.0
H128 H 0.73388 0.85091 0.14172 0.0
H129 H 0.45421 0.87235 0.05496 0.0
H130 H 0.65952 0.88672 0.88027 0.0
H131 H 0.52745 0.77162 0.90942 0.0
Co132 Co 0.73325 0.59451 0.07021 0.0
C133 C 0.83286 0.63843 0.05618 0.0
C134 C 0.81318 0.68168 0.09801 0.0
C135 C 0.8595 0.70364 0.09507 0.0
N136 N 0.79635 0.64111 0.07241 0.0
N137 N 0.87169 0.6762 0.06892 0.0
H138 H 0.83179 0.6088 0.03874 0.0
H139 H 0.79321 0.69413 0.11865 0.0
C140 C 0.73201 0.67777 0.02833 0.0
O141 O 0.766 0.68814 0.99336 0.0
N142 N 0.67053 0.54875 0.06917 0.0
C143 C 0.65144 0.50839 0.04292 0.0
C144 C 0.60526 0.48976 0.04528 0.0
C145 C 0.6361 0.55384 0.08793 0.0
N146 N 0.59568 0.51867 0.07298 0.0
C147 C 0.76076 0.56387 0.97168 0.0
C148 C 0.72469 0.59383 0.88837 0.0
C149 C 0.75369 0.57796 0.87139 0.0
C150 C 0.77025 0.56117 0.91398 0.0
C151 C 0.71638 0.59622 0.94698 0.0
N152 N 0.73749 0.58482 0.98799 0.0
H153 H 0.77307 0.5497 1.00336 0.0
H154 H 0.69319 0.60749 0.95905 0.0
H155 H 0.66974 0.49452 0.0212 0.0
H156 H 0.64089 0.58328 0.11106 0.0
O157 O 0.74949 0.55202 0.10186 0.0
O158 O 0.7316 0.59546 0.15295 0.0
O159 O 0.71488 0.64151 0.05789 0.0
C160 C 0.74453 0.56567 0.15217 0.0
H161 H 0.88235 0.73697 0.11148 0.0
H162 H 0.58075 0.45849 0.02533 0.0
H163 H 0.70865 0.60439 0.85678 0.0
H164 H 0.79147 0.5471 0.9031 0.0
Co165 Co 0.14469 0.7357 0.07799 0.0
C166 C 0.20393 0.83372 0.06494 0.0
C167 C 0.14254 0.81799 0.10891 0.0
C168 C 0.16912 0.86413 0.10536 0.0
N169 N 0.16438 0.7991 0.08338 0.0
N170 N 0.20771 0.87384 0.07797 0.0
H171 H 0.22979 0.8296 0.04367 0.0
H172 H 0.10997 0.79961 0.12944 0.0
C173 C 0.05024 0.70181 0.03066 0.0
O174 O 0.05768 0.68231 0.98665 0.0
N175 N 0.12504 0.6715 0.07433 0.0
C176 C 0.1514 0.65249 0.07205 0.0
C177 C 0.12468 0.6063 0.07383 0.0
C178 C 0.08277 0.63628 0.0806 0.0
N179 N 0.08151 0.59625 0.07849 0.0
C180 C 0.18746 0.73273 0.97243 0.0
C181 C 0.15535 0.77765 0.90615 0.0
C182 C 0.18516 0.76567 0.88143 0.0
C183 C 0.20106 0.74267 0.91504 0.0
C184 C 0.14202 0.76641 0.96337 0.0
N185 N 0.15754 0.74364 0.99575 0.0
H186 H 0.20279 0.71823 0.99858 0.0
H187 H 0.12048 0.77762 0.98232 0.0
H188 H 0.18777 0.67062 0.07099 0.0
H189 H 0.05351 0.6394 0.0893 0.0
O190 O 0.20318 0.74899 0.10689 0.0
O191 O 0.14278 0.73166 0.16021 0.0
O192 O 0.08111 0.72322 0.06766 0.0
C193 C 0.18512 0.74332 0.15785 0.0
H194 H 0.16074 0.88864 0.12175 0.0
H195 H 0.13607 0.58198 0.07172 0.0
H196 H 0.14297 0.79616 0.88167 0.0
H197 H 0.22528 0.73416 0.89779 0.0
Co198 Co 0.86763 0.59183 0.44436 0.0
C199 C 0.80741 0.62911 0.45381 0.0
C200 C 0.87169 0.67848 0.41979 0.0
C201 C 0.84445 0.69743 0.42344 0.0
N202 N 0.84827 0.63572 0.43896 0.0
N203 N 0.80396 0.66613 0.44448 0.0
H204 H 0.78045 0.5975 0.47024 0.0
H205 H 0.90603 0.69478 0.40431 0.0
C206 C 0.96425 0.64694 0.48632 0.0
O207 O 0.95813 0.61649 0.52518 0.0
N208 N 0.88721 0.5475 0.44909 0.0
C209 C 0.86676 0.50672 0.47481 0.0
C210 C 0.89416 0.48809 0.47032 0.0
C211 C 0.9259 0.55212 0.42734 0.0
N212 N 0.93168 0.51695 0.44117 0.0
C213 C 0.81364 0.54984 0.54442 0.0
C214 C 0.85975 0.62137 0.61856 0.0
C215 C 0.81985 0.58378 0.63779 0.0
C216 C 0.79702 0.54752 0.60001 0.0
C217 C 0.875 0.6225 0.56241 0.0
N218 N 0.85278 0.5865 0.52629 0.0
H219 H 0.79341 0.52296 0.515 0.0
H220 H 0.90329 0.65354 0.54749 0.0
H221 H 0.83454 0.49121 0.49607 0.0
H222 H 0.94964 0.58112 0.40261 0.0
O223 O 0.80972 0.54698 0.41383 0.0
O224 O 0.8704 0.59026 0.36165 0.0
O225 O 0.93144 0.64224 0.45544 0.0
C226 C 0.82784 0.56025 0.36317 0.0
H227 H 0.85406 0.73176 0.41228 0.0
H228 H 0.88774 0.4565 0.48918 0.0
H229 H 0.87862 0.65024 0.6462 0.0
H230 H 0.76545 0.51828 0.61244 0.0
Co231 Co 0.27865 0.86532 0.45056 0.0
C232 C 0.18079 0.80656 0.46232 0.0
C233 C 0.1968 0.86985 0.42352 0.0
C234 C 0.15059 0.84293 0.42618 0.0
N235 N 0.21551 0.8469 0.44625 0.0
N236 N 0.14073 0.80312 0.45028 0.0
H237 H 0.18483 0.77979 0.48092 0.0
H238 H 0.21537 0.90342 0.40552 0.0
C239 C 0.31711 0.95892 0.50036 0.0
O240 O 0.33848 0.94971 0.5402 0.0
N241 N 0.34243 0.88296 0.4532 0.0
C242 C 0.35926 0.85471 0.45452 0.0
C243 C 0.40544 0.87931 0.45165 0.0
C244 C 0.3791 0.92437 0.4463 0.0
N245 N 0.41802 0.9233 0.44757 0.0
C246 C 0.28003 0.82101 0.55586 0.0
C247 C 0.2373 0.85551 0.62233 0.0
C248 C 0.24708 0.82404 0.64698 0.0
C249 C 0.26939 0.80725 0.61317 0.0
C250 C 0.24907 0.8688 0.56528 0.0
N251 N 0.27064 0.85204 0.53271 0.0
H252 H 0.29411 0.80518 0.52977 0.0
H253 H 0.23897 0.89126 0.54654 0.0
H254 H 0.33956 0.81837 0.45502 0.0
H255 H 0.37769 0.95475 0.43909 0.0
O256 O 0.2637 0.80663 0.42069 0.0
O257 O 0.28216 0.86754 0.36803 0.0
O258 O 0.29297 0.92946 0.46297 0.0
C259 C 0.26917 0.82482 0.36989 0.0
H260 H 0.12617 0.85193 0.41138 0.0
H261 H 0.42777 0.8655 0.45047 0.0
H262 H 0.21922 0.86865 0.64629 0.0
H263 H 0.27796 0.78312 0.63044 0.0
Co264 Co 0.41584 0.2751 0.44736 0.0
C265 C 0.37973 0.17778 0.46429 0.0
C266 C 0.33729 0.19051 0.40878 0.0
C267 C 0.31963 0.14457 0.41348 0.0
N268 N 0.37486 0.21112 0.44079 0.0
N269 N 0.34642 0.13657 0.44834 0.0
H270 H 0.40689 0.18387 0.49307 0.0
H271 H 0.32416 0.2077 0.38309 0.0
C272 C 0.35679 0.31072 0.49228 0.0
O273 O 0.38735 0.33466 0.53099 0.0
N274 N 0.45735 0.33987 0.45242 0.0
C275 C 0.49998 0.36157 0.47229 0.0
C276 C 0.51701 0.40726 0.46742 0.0
C277 C 0.4501 0.37303 0.43307 0.0
N278 N 0.48552 0.41464 0.44326 0.0
C279 C 0.46016 0.26972 0.5502 0.0
C280 C 0.38526 0.23486 0.62081 0.0
C281 C 0.42561 0.24021 0.64288 0.0
C282 C 0.4635 0.2582 0.60705 0.0
C283 C 0.38359 0.24756 0.56408 0.0
N284 N 0.42108 0.26602 0.52966 0.0
H285 H 0.48828 0.27876 0.52184 0.0
H286 H 0.35127 0.2399 0.5471 0.0
H287 H 0.51844 0.34605 0.48825 0.0
H288 H 0.41962 0.36665 0.41132 0.0
O289 O 0.46328 0.2655 0.41663 0.0
O290 O 0.418 0.28037 0.36491 0.0
O291 O 0.36279 0.28465 0.45873 0.0
C292 C 0.45018 0.27075 0.36602 0.0
H293 H 0.28982 0.11908 0.39185 0.0
H294 H 0.54995 0.43312 0.48164 0.0
H295 H 0.35491 0.21986 0.64677 0.0
H296 H 0.49479 0.26112 0.62194 0.0
Co297 Co 0.1452 0.41419 0.44137 0.0
C298 C 0.20335 0.37441 0.45065 0.0
C299 C 0.13896 0.32641 0.41601 0.0
C300 C 0.16458 0.30579 0.42237 0.0
N301 N 0.16339 0.36934 0.43412 0.0
N302 N 0.20482 0.33597 0.44483 0.0
H303 H 0.23095 0.4058 0.46624 0.0
H304 H 0.10481 0.31096 0.40016 0.0
C305 C 0.04831 0.36218 0.48277 0.0
O306 O 0.05467 0.39484 0.51797 0.0
N307 N 0.12763 0.45987 0.4488 0.0
C308 C 0.14725 0.49722 0.48161 0.0
C309 C 0.1222 0.51835 0.47876 0.0
C310 C 0.09168 0.45982 0.42473 0.0
N311 N 0.08719 0.49499 0.4429 0.0
C312 C 0.20303 0.45203 0.53857 0.0
C313 C 0.14885 0.38827 0.61847 0.0
C314 C 0.19149 0.42274 0.63568 0.0
C315 C 0.21909 0.45416 0.59415 0.0
C316 C 0.13509 0.38595 0.56154 0.0
N317 N 0.16106 0.41881 0.52274 0.0
H318 H 0.22529 0.4766 0.50768 0.0
H319 H 0.10436 0.35649 0.54902 0.0
H320 H 0.17689 0.50814 0.50754 0.0
H321 H 0.06826 0.43347 0.39644 0.0
O322 O 0.20289 0.45858 0.40958 0.0
O323 O 0.14112 0.41649 0.35907 0.0
O324 O 0.0811 0.36467 0.45362 0.0
C325 C 0.18366 0.44653 0.35952 0.0
H326 H 0.15411 0.27105 0.4124 0.0
H327 H 0.12807 0.54716 0.50429 0.0
H328 H 0.12643 0.36249 0.64832 0.0
H329 H 0.25344 0.4796 0.60354 0.0
Co330 Co 0.73573 0.14049 0.44636 0.0
C331 C 0.83291 0.20049 0.45708 0.0
C332 C 0.81869 0.13761 0.41894 0.0
C333 C 0.86478 0.16487 0.42359 0.0
N334 N 0.79901 0.16011 0.44027 0.0
N335 N 0.8735 0.20419 0.44804 0.0
H336 H 0.82775 0.22684 0.47463 0.0
H337 H 0.80089 0.10396 0.4012 0.0
C338 C 0.7017 0.04692 0.49647 0.0
O339 O 0.6853 0.05669 0.54182 0.0
N340 N 0.6717 0.1212 0.45096 0.0
C341 C 0.65277 0.14764 0.4533 0.0
C342 C 0.60656 0.12092 0.45152 0.0
C343 C 0.63646 0.07896 0.44488 0.0
N344 N 0.59649 0.07771 0.4469 0.0
C345 C 0.73385 0.18376 0.5527 0.0
C346 C 0.78119 0.15341 0.61719 0.0
C347 C 0.76943 0.18319 0.64257 0.0
C348 C 0.7452 0.1982 0.60971 0.0
C349 C 0.76858 0.13926 0.56046 0.0
N350 N 0.74463 0.15387 0.52884 0.0
H351 H 0.7183 0.19841 0.52722 0.0
H352 H 0.77953 0.1176 0.54124 0.0
H353 H 0.67097 0.18403 0.45429 0.0
H354 H 0.63954 0.0497 0.43631 0.0
O355 O 0.74919 0.19909 0.41674 0.0
O356 O 0.73133 0.13861 0.36385 0.0
O357 O 0.72227 0.07625 0.45713 0.0
C358 C 0.74338 0.18109 0.36581 0.0
H359 H 0.88993 0.15637 0.41023 0.0
H360 H 0.58227 0.13235 0.45346 0.0
H361 H 0.80043 0.14149 0.64085 0.0
H362 H 0.73668 0.22233 0.6272 0.0
Co363 Co 0.59442 0.7298 0.45613 0.0
C364 C 0.6361 0.82937 0.45138 0.0
C365 C 0.68525 0.8097 0.46934 0.0
C366 C 0.7052 0.85569 0.47591 0.0
N367 N 0.6417 0.79293 0.45413 0.0
N368 N 0.67427 0.86782 0.46444 0.0
H369 H 0.60414 0.82774 0.44426 0.0
H370 H 0.7012 0.79006 0.47879 0.0
C371 C 0.64332 0.67736 0.48391 0.0
O372 O 0.60837 0.64332 0.50857 0.0
N373 N 0.54671 0.66726 0.45908 0.0
C374 C 0.51121 0.64959 0.4952 0.0
C375 C 0.48781 0.60355 0.48845 0.0
C376 C 0.54329 0.63186 0.42906 0.0
N377 N 0.50807 0.5922 0.4471 0.0
C378 C 0.56636 0.76209 0.55153 0.0
C379 C 0.60375 0.73585 0.63756 0.0
C380 C 0.58522 0.76295 0.65176 0.0
C381 C 0.56533 0.77517 0.60808 0.0
C382 C 0.60502 0.72441 0.58035 0.0
N383 N 0.58699 0.73793 0.53773 0.0
H384 H 0.55201 0.77315 0.51852 0.0
H385 H 0.62176 0.70588 0.57143 0.0
H386 H 0.50395 0.66845 0.52648 0.0
H387 H 0.56798 0.63482 0.39762 0.0
O388 O 0.55207 0.74575 0.42346 0.0
O389 O 0.59531 0.72682 0.3737 0.0
O390 O 0.64227 0.7126 0.46824 0.0
C391 C 0.56576 0.73999 0.3736 0.0
H392 H 0.73928 0.87831 0.49018 0.0
H393 H 0.46015 0.58016 0.51534 0.0
H394 H 0.61814 0.72429 0.67023 0.0
H395 H 0.55052 0.79604 0.6171 0.0
C396 C 0.47686 0.00542 0.05041 0.0
C397 C 0.50214 0.04197 0.08716 0.0
C398 C 0.48198 0.96726 0.05102 0.0
C399 C 0.51209 0.96376 0.08913 0.0
H400 H 0.45389 0.00701 0.01982 0.0
H401 H 0.46296 0.94084 0.02023 0.0
S402 S 0.58108 0.04814 0.19996 0.0
N403 N 0.55562 0.07139 0.16558 0.0
N404 N 0.56406 0.99892 0.1688 0.0
C405 C 0.53623 0.99957 0.1278 0.0
C406 C 0.53154 0.03881 0.12633 0.0
C407 C 0.51292 0.47205 0.08352 0.0
C408 C 0.55178 0.51479 0.07839 0.0
C409 C 0.46964 0.46698 0.08362 0.0
C410 C 0.46338 0.50451 0.07862 0.0
H411 H 0.51596 0.44211 0.08644 0.0
H412 H 0.44089 0.43321 0.08523 0.0
S413 S 0.55391 0.62418 0.06723 0.0
N414 N 0.58089 0.59555 0.06918 0.0
N415 N 0.49997 0.58621 0.0727 0.0
C416 C 0.50199 0.54762 0.07599 0.0
C417 C 0.54603 0.55274 0.07513 0.0
C418 C 0.04279 0.51604 0.10756 0.0
C419 C 0.04219 0.55192 0.07884 0.0
C420 C 1.00534 0.47231 0.1064 0.0
C421 C 0.96598 0.46274 0.07613 0.0
H422 H 0.07235 0.52194 0.1314 0.0
H423 H 1.00714 0.44589 0.12973 0.0
S424 S 0.94914 0.54439 0.98951 0.0
N425 N 1.00002 0.57466 0.01696 0.0
N426 N 0.93007 0.49265 0.0138 0.0
C427 C 0.96529 0.49835 0.04662 0.0
C428 C 1.00326 0.54286 0.04822 0.0
C429 C 1.00551 0.46479 0.42764 0.0
C430 C 0.0492 0.50193 0.43455 0.0
C431 C 0.9675 0.47022 0.42745 0.0
C432 C 0.9715 0.51296 0.4341 0.0
H433 H 1.00033 0.43097 0.42499 0.0
H434 H 0.93454 0.44053 0.42351 0.0
S435 S 0.0783 0.62142 0.45079 0.0
N436 N 0.09427 0.58346 0.44399 0.0
N437 N 0.02288 0.5932 0.44664 0.0
C438 C 0.01504 0.55055 0.43897 0.0
C439 C 0.0538 0.54513 0.43854 0.0
C440 C 0.51663 0.03895 0.41672 0.0
C441 C 0.55223 0.03828 0.44587 0.0
C442 C 0.4731 1.00116 0.41672 0.0
C443 C 0.4634 0.96135 0.44628 0.0
H444 H 0.5226 0.06882 0.39338 0.0
H445 H 0.44693 1.00313 0.39314 0.0
S446 S 0.54435 0.94421 0.53382 0.0
N447 N 0.57459 0.99558 0.50743 0.0
N448 N 0.49297 0.92504 0.50861 0.0
C449 C 0.49876 0.96063 0.47629 0.0
C450 C 0.54307 0.99894 0.4758 0.0
C451 C 0.53153 0.49683 0.42633 0.0
C452 C 0.489 0.45826 0.43518 0.0
C453 C 0.53717 0.54034 0.42691 0.0
C454 C 0.50046 0.54728 0.43625 0.0
H455 H 0.5611 0.4935 0.42059 0.0
H456 H 0.57097 0.56875 0.42297 0.0
S457 S 0.381 0.45779 0.45422 0.0
N458 N 0.40884 0.43008 0.44922 0.0
N459 N 0.41925 0.51163 0.44783 0.0
C460 C 0.45728 0.50896 0.44127 0.0
C461 C 0.45156 0.46457 0.4412 0.0
C462 C 0.30613 0.97065 1.00344 0.0
C463 C 0.32163 1.00508 0.04502 0.0
C464 C 0.26903 0.92772 0.01449 0.0
C465 C 0.24592 0.9178 0.06732 0.0
H466 H 0.3226 0.97687 0.96193 0.0
H467 H 0.25789 0.90226 0.98126 0.0
S468 S 0.27495 0.99405 0.19264 0.0
N469 N 0.31205 0.02478 0.14285 0.0
N470 N 0.24268 0.94442 0.16281 0.0
C471 C 0.26139 0.95144 0.10953 0.0
C472 C 0.29914 0.99497 0.09859 0.0
C473 C 0.35964 0.27423 0.01689 0.0
C474 C 0.34508 0.2501 0.06893 0.0
C475 C 0.35461 0.31192 1.00649 0.0
C476 C 0.33476 0.32667 0.04779 0.0
H477 H 0.37423 0.26333 0.98363 0.0
H478 H 0.36556 0.32905 0.96547 0.0
S479 S 0.29717 0.27886 0.1942 0.0
N480 N 0.31435 0.24634 0.16424 0.0
N481 N 0.30442 0.3166 0.14489 0.0
C482 C 0.32152 0.30365 0.10077 0.0
C483 C 0.32676 0.2655 0.11129 0.0
C484 C 0.04507 0.33932 1.00041 0.0
C485 C 0.01017 0.31818 0.04124 0.0
C486 C 0.08822 0.34552 1.01079 0.0
C487 C 0.09812 0.33055 0.06218 0.0
H488 H 0.03912 0.35122 0.96003 0.0
H489 H 0.11398 0.36173 0.9781 0.0
S490 S 0.02035 0.27633 0.18506 0.0
N491 N 0.98971 0.28413 0.1367 0.0
N492 N 0.07059 0.29608 0.15559 0.0
C493 C 0.06392 0.3099 0.10361 0.0
C494 C 0.02007 0.30366 0.09331 0.0
C495 C 0.76945 0.05768 0.06645 0.0
C496 C 0.7651 0.09642 0.0636 0.0
C497 C 0.7326 0.01464 0.05688 0.0
C498 C 0.69005 0.00864 0.04311 0.0
H499 H 0.80163 0.06054 0.07631 0.0
H500 H 0.73746 0.98578 0.06037 0.0
S501 S 0.65922 0.09783 0.03241 0.0
N502 N 0.71348 0.12512 0.04775 0.0
N503 N 0.64481 0.04418 0.02826 0.0
C504 C 0.68501 0.04676 0.03923 0.0
C505 C 0.72238 0.09068 0.04978 0.0
C506 C 0.69205 0.74778 0.10873 0.0
C507 C 0.69143 0.77633 0.06591 0.0
C508 C 0.70379 0.71497 0.09558 0.0
C509 C 0.71656 0.71049 0.03941 0.0
H510 H 0.68348 0.75103 0.15264 0.0
H511 H 0.70422 0.69391 0.13009 0.0
S512 S 0.71899 0.77664 0.91196 0.0
N513 N 0.70262 0.79722 0.96512 0.0
N514 N 0.7265 0.73666 0.94047 0.0
C515 C 0.71562 0.73867 0.99615 0.0
C516 C 0.70252 0.7713 1.00937 0.0
C517 C 0.92715 0.6685 1.00888 0.0
C518 C 0.91655 0.68371 0.0596 0.0
C519 C 0.97044 0.67474 0.99952 0.0
C520 C 1.00474 0.69618 0.04075 0.0
H521 H 0.9018 0.65195 0.97599 0.0
H522 H 0.97695 0.66257 0.9597 0.0
S523 S 0.99263 0.73885 0.18299 0.0
N524 N 0.9428 0.71885 0.1527 0.0
N525 N 0.02386 0.73068 0.13585 0.0
C526 C 0.99413 0.71094 0.09212 0.0
C527 C 0.95018 0.70473 0.10134 0.0
C528 C 0.08679 0.73792 0.50898 0.0
C529 C 0.09683 0.76408 0.45863 0.0
C530 C 0.04393 0.70001 0.51783 0.0
C531 C 0.00965 0.68682 0.47649 0.0
H532 H 0.11208 0.74727 0.54208 0.0
H533 H 0.03756 0.68121 0.55753 0.0
S534 S 0.02122 0.74098 0.33406 0.0
N535 N 0.07058 0.77204 0.365 0.0
N536 N 0.9904 0.70118 0.38098 0.0
C537 C 0.01996 0.71209 0.42515 0.0
C538 C 0.06341 0.7506 0.4164 0.0
C539 C 0.29635 0.05508 0.46638 0.0
C540 C 0.34005 0.09296 0.46486 0.0
C541 C 0.28917 0.01202 0.47952 0.0
C542 C 0.32526 1.00521 0.49303 0.0
H543 H 0.26733 0.0586 0.45699 0.0
H544 H 0.25506 0.98371 0.47876 0.0
S545 S 0.44635 0.09172 0.49266 0.0
N546 N 0.4203 0.11969 0.47547 0.0
N547 N 0.40621 0.03904 0.50304 0.0
C548 C 0.36901 0.04254 0.49284 0.0
C549 C 0.37656 0.08635 0.47812 0.0
C550 C 0.25149 0.30127 0.42431 0.0
C551 C 0.24174 0.32879 0.45921 0.0
C552 C 0.28816 0.29509 0.43613 0.0
C553 C 0.31665 0.31608 0.48355 0.0
H554 H 0.23121 0.2852 0.38671 0.0
H555 H 0.29454 0.2742 0.40703 0.0
S556 S 0.30289 0.38831 0.59151 0.0
N557 N 0.26141 0.37472 0.54556 0.0
N558 N 0.33071 0.3637 0.56755 0.0
C559 C 0.30651 0.34282 0.51976 0.0
C560 C 0.26905 0.34907 0.50763 0.0
C561 C 0.99499 0.29258 0.42914 0.0
C562 C 1.0032 0.32144 0.47639 0.0
C563 C 0.95283 0.25421 0.42066 0.0
C564 C 0.91704 0.24298 0.45901 0.0
H565 H 0.02115 0.29995 0.39769 0.0
H566 H 0.94795 0.23367 0.38304 0.0
S567 S 0.92153 0.30483 0.59218 0.0
N568 N 0.97226 0.33473 0.56366 0.0
N569 N 0.89318 0.26201 0.54815 0.0
C570 C 0.92485 0.27088 0.50713 0.0
C571 C 0.96785 0.31021 0.51569 0.0
C572 C 0.69904 0.97702 0.53384 0.0
C573 C 0.69316 1.00045 0.48808 0.0
C574 C 0.69297 0.93363 0.52581 0.0
C575 C 0.6794 0.91178 0.47234 0.0
H576 H 0.70947 0.99276 0.57565 0.0
H577 H 0.69863 0.91683 0.56161 0.0
S578 S 0.65674 0.95711 0.34007 0.0
N579 N 0.67205 0.99796 0.38772 0.0
N580 N 0.65864 0.91564 0.37392 0.0
C581 C 0.67204 0.93416 0.42691 0.0
C582 C 0.67949 0.97875 0.43445 0.0
C583 C 0.69612 0.64949 0.50999 0.0
C584 C 0.68508 0.67559 0.47413 0.0
C585 C 0.73534 0.6471 0.5005 0.0
C586 C 0.76467 0.67032 0.45447 0.0
H587 H 0.67456 0.63109 0.54593 0.0
H588 H 0.74289 0.6271 0.52964 0.0
S589 S 0.74844 0.73963 0.34475 0.0
N590 N 0.70533 0.72325 0.38903 0.0
N591 N 0.7782 0.71772 0.37048 0.0
C592 C 0.75355 0.6959 0.41776 0.0
C593 C 0.71394 0.69874 0.42774 0.0
C594 C 0.47129 0.22104 0.31197 0.0
C595 C 0.46442 0.25827 0.31222 0.0
C596 C 0.4723 0.20051 0.26011 0.0
C597 C 0.46792 0.21734 0.20676 0.0
H598 H 0.47201 0.20529 0.35207 0.0
H599 H 0.47393 0.16972 0.26191 0.0
S600 S 0.45426 0.31708 0.18399 0.0
N601 N 0.45652 0.31315 0.25456 0.0
N602 N 0.46027 0.27568 0.15728 0.0
C603 C 0.46493 0.25682 0.20633 0.0
C604 C 0.46269 0.277 0.25909 0.0
C605 C 0.27486 0.46502 0.25419 0.0
C606 C 0.25392 0.46115 0.20095 0.0
C607 C 0.25357 0.46484 0.3058 0.0
C608 C 0.21006 0.4594 0.30576 0.0
H609 H 0.30682 0.46574 0.25609 0.0
H610 H 0.26973 0.46522 0.34596 0.0
S611 S 0.14243 0.45166 0.17756 0.0
N612 N 0.18912 0.4558 0.15104 0.0
N613 N 0.14838 0.45378 0.24814 0.0
C614 C 0.19 0.45831 0.25274 0.0
C615 C 0.21216 0.45964 0.20019 0.0
C616 C 0.81752 0.272 0.26028 0.0
C617 C 0.79873 0.25227 0.20688 0.0
C618 C 0.7968 0.25076 0.31226 0.0
C619 C 0.75723 0.20844 0.31254 0.0
H620 H 0.84978 0.30286 0.2619 0.0
H621 H 0.81388 0.26582 0.35223 0.0
S622 S 0.69243 0.14463 0.18478 0.0
N623 N 0.73603 0.19013 0.15778 0.0
N624 N 0.69798 0.14947 0.25533 0.0
C625 C 0.73665 0.18978 0.25963 0.0
C626 C 0.75715 0.21193 0.20678 0.0
C627 C 0.55237 0.81548 0.26729 0.0
C628 C 0.55606 0.79784 0.21429 0.0
C629 C 0.55095 0.79387 0.31916 0.0
C630 C 0.55464 0.75476 0.31959 0.0
H631 H 0.55276 0.84731 0.26883 0.0
H632 H 0.55053 0.80987 0.35915 0.0
S633 S 0.56184 0.69357 0.19229 0.0
N634 N 0.55988 0.73715 0.16516 0.0
N635 N 0.55881 0.69746 0.26273 0.0
C636 C 0.5558 0.73548 0.26679 0.0
C637 C 0.55611 0.75682 0.21401 0.0
C638 C 0.81894 0.54883 0.25697 0.0
C639 C 0.80036 0.54994 0.31053 0.0
C640 C 0.79829 0.54985 0.20533 0.0
C641 C 0.75918 0.55352 0.20564 0.0
H642 H 0.8508 0.54932 0.25499 0.0
H643 H 0.81494 0.55122 0.1651 0.0
S644 S 0.6958 0.55495 0.33431 0.0
N645 N 0.73873 0.55147 0.36055 0.0
N646 N 0.7011 0.55539 0.26367 0.0
C647 C 0.73911 0.55247 0.25879 0.0
C648 C 0.75939 0.55012 0.31126 0.0
C649 C 0.254 0.79674 0.21167 0.0
C650 C 0.21216 0.75667 0.21088 0.0
C651 C 0.27431 0.81721 0.26393 0.0
C652 C 0.254 0.79761 0.31689 0.0
H653 H 0.26922 0.81438 0.17193 0.0
H654 H 0.3048 0.84981 0.26287 0.0
S655 S 0.14711 0.69006 0.3373 0.0
N656 N 0.15302 0.69624 0.26689 0.0
N657 N 0.19182 0.73386 0.36509 0.0
C658 C 0.21417 0.75559 0.31646 0.0
C659 C 0.19304 0.73533 0.26335 0.0
C660 C 0.55038 0.77874 0.73714 0.0
C661 C 0.58804 0.77974 0.71135 0.0
C662 C 0.55243 0.79444 0.79332 0.0
C663 C 0.59216 0.81159 0.82606 0.0
H664 H 0.51891 0.76535 0.71393 0.0
H665 H 0.52264 0.79337 0.81106 0.0
S666 S 0.7006 0.82245 0.77751 0.0
N667 N 0.66689 0.80126 0.72165 0.0
N668 N 0.66998 0.82789 0.82834 0.0
C669 C 0.63009 0.81271 0.80065 0.0
C670 C 0.62819 0.79743 0.74314 0.0
C671 C 0.7858 0.54386 0.73083 0.0
C672 C 0.80131 0.58259 0.69627 0.0
C673 C 0.76928 0.54219 0.78657 0.0
C674 C 0.76745 0.57915 0.81017 0.0
H675 H 0.78727 0.51483 0.71511 0.0
H676 H 0.75815 0.51171 0.81156 0.0
S677 S 0.80159 0.68774 0.73625 0.0
N678 N 0.81124 0.65788 0.68845 0.0
N679 N 0.7818 0.6554 0.79385 0.0
C680 C 0.78191 0.61775 0.77558 0.0
C681 C 0.79855 0.61936 0.71866 0.0
C682 C 0.23838 0.83941 0.75028 0.0
C683 C 0.23263 0.80817 0.70705 0.0
C684 C 0.22297 0.82535 0.80651 0.0
C685 C 0.20162 0.77957 0.82187 0.0
H686 H 0.25495 0.87511 0.7406 0.0
H687 H 0.22801 0.85053 0.83837 0.0
S688 S 0.17634 0.68391 0.72514 0.0
N689 N 0.20222 0.7289 0.68351 0.0
N690 N 0.17464 0.70287 0.78984 0.0
C691 C 0.19592 0.74795 0.77954 0.0
C692 C 0.2111 0.76214 0.72202 0.0
C693 C 0.45647 0.23973 0.8 0.0
C694 C 0.42909 0.1942 0.81627 0.0
C695 C 0.45574 0.25433 0.74367 0.0
C696 C 0.42725 0.2241 0.70167 0.0
H697 H 0.47785 0.26455 0.83137 0.0
H698 H 0.47685 0.28971 0.73322 0.0
S699 S 0.35282 0.10087 0.71947 0.0
N700 N 0.37572 0.11844 0.78347 0.0
N701 N 0.37351 0.14633 0.6785 0.0
C702 C 0.40063 0.17846 0.71669 0.0
C703 C 0.40173 0.16343 0.77371 0.0
C704 C 0.20963 0.38395 0.78163 0.0
C705 C 0.23702 0.42449 0.81116 0.0
C706 C 0.19589 0.38386 0.72502 0.0
C707 C 0.20764 0.42427 0.69568 0.0
H708 H 0.19792 0.35172 0.80252 0.0
H709 H 0.17585 0.35157 0.70421 0.0
S710 S 0.27946 0.53999 0.75306 0.0
N711 N 0.27802 0.50648 0.805 0.0
N712 N 0.24774 0.50626 0.70128 0.0
C713 C 0.23484 0.46518 0.72473 0.0
C714 C 0.25041 0.4653 0.78171 0.0
C715 C 0.84443 0.23515 0.77353 0.0
C716 C 0.81388 0.23104 0.81706 0.0
C717 C 0.82982 0.21972 0.71737 0.0
C718 C 0.78411 0.1999 0.70219 0.0
H719 H 0.88005 0.25057 0.78285 0.0
H720 H 0.85458 0.22361 0.68541 0.0
S721 S 0.6899 0.17844 0.80006 0.0
N722 N 0.73512 0.20327 0.84111 0.0
N723 N 0.70815 0.17563 0.73528 0.0
C724 C 0.75318 0.19561 0.74496 0.0
C725 C 0.76791 0.21083 0.80236 0.0
loop_
_geom_bond_atom_site_label_1
_geom_bond_atom_site_label_2
_geom_bond_distance
_geom_bond_site_symmetry_2
_ccdc_geom_bond_type
Co0 N4 2.148 . S
Co0 N10 2.128 . S
Co0 N20 2.194 1_554 S
Co0 O25 2.351 . S
Co0 O26 2.155 . S
Co0 O27 2.096 . S
C1 N4 1.301 . S
C1 N5 1.328 . S
C1 H6 0.930 . S
C2 C3 1.333 . S
C2 N4 1.317 . S
C2 H7 0.930 . S
C3 C2 1.333 . S
C3 N5 1.350 . S
C3 H29 0.931 . S
N4 Co0 2.148 . S
N4 C1 1.301 . S
N4 C2 1.317 . S
N5 C1 1.328 . S
N5 C3 1.350 . S
H6 C1 0.930 . S
H7 C2 0.930 . S
C8 O9 1.224 1_554 S
C8 O27 1.247 . S
O9 C8 1.224 1_556 S
N10 Co0 2.128 . S
N10 C11 1.355 . S
N10 C13 1.311 . S
C11 N10 1.355 . S
C11 C12 1.363 . S
C11 H23 0.929 . S
C12 C11 1.363 . S
C12 N14 1.375 . S
C12 H30 0.931 . S
C13 N10 1.311 . S
C13 N14 1.347 . S
C13 H24 0.929 . S
N14 C12 1.375 . S
N14 C13 1.347 . S
C15 C18 1.365 . S
C15 N20 1.328 . S
C15 H21 0.929 1_556 S
C16 C17 1.362 . S
C16 C19 1.378 . S
C16 H31 0.929 . S
C17 C16 1.362 . S
C17 C18 1.366 . S
C18 C15 1.365 . S
C18 C17 1.366 . S
C18 H32 0.930 . S
C19 C16 1.378 . S
C19 N20 1.315 . S
C19 H22 0.930 . S
N20 Co0 2.194 1_556 S
N20 C15 1.328 . S
N20 C19 1.315 . S
H21 C15 0.929 1_554 S
H22 C19 0.930 . S
H23 C11 0.929 . S
H24 C13 0.929 . S
O25 Co0 2.351 . S
O25 C28 1.244 . S
O26 Co0 2.155 . S
O26 C28 1.240 . S
O27 Co0 2.096 . S
O27 C8 1.247 . S
C28 O25 1.244 . S
C28 O26 1.240 . S
H29 C3 0.931 . S
H30 C12 0.931 . S
H31 C16 0.929 . S
H32 C18 0.930 . S
Co33 N37 2.148 . S
Co33 N43 2.128 . S
Co33 N53 2.194 1_554 S
Co33 O58 2.351 . S
Co33 O59 2.155 . S
Co33 O60 2.096 . S
C34 N37 1.301 . S
C34 N38 1.328 . S
C34 H39 0.930 . S
C35 C36 1.333 . S
C35 N37 1.317 . S
C35 H40 0.930 . S
C36 C35 1.333 . S
C36 N38 1.350 . S
C36 H62 0.931 . S
N37 Co33 2.148 . S
N37 C34 1.301 . S
N37 C35 1.317 . S
N38 C34 1.328 . S
N38 C36 1.350 . S
H39 C34 0.930 . S
H40 C35 0.930 . S
C41 O42 1.224 1_554 S
C41 O60 1.247 . S
O42 C41 1.224 1_556 S
N43 Co33 2.128 . S
N43 C44 1.355 . S
N43 C46 1.311 . S
C44 N43 1.355 . S
C44 C45 1.363 . S
C44 H56 0.929 . S
C45 C44 1.363 . S
C45 N47 1.375 . S
C45 H63 0.931 . S
C46 N43 1.311 . S
C46 N47 1.347 . S
C46 H57 0.929 . S
N47 C45 1.375 . S
N47 C46 1.347 . S
C48 C51 1.365 . S
C48 N53 1.328 . S
C48 H54 0.929 1_556 S
C49 C50 1.362 . S
C49 C52 1.378 . S
C49 H64 0.929 . S
C50 C49 1.362 . S
C50 C51 1.366 . S
C51 C48 1.365 . S
C51 C50 1.366 . S
C51 H65 0.930 . S
C52 C49 1.378 . S
C52 N53 1.315 . S
C52 H55 0.930 . S
N53 Co33 2.194 1_556 S
N53 C48 1.328 . S
N53 C52 1.315 . S
H54 C48 0.929 1_554 S
H55 C52 0.930 . S
H56 C44 0.929 . S
H57 C46 0.929 . S
O58 Co33 2.351 . S
O58 C61 1.244 . S
O59 Co33 2.155 . S
O59 C61 1.240 . S
O60 Co33 2.096 . S
O60 C41 1.247 . S
C61 O58 1.244 . S
C61 O59 1.240 . S
H62 C36 0.931 . S
H63 C45 0.931 . S
H64 C49 0.929 . S
H65 C51 0.930 . S
Co66 N70 2.148 . S
Co66 N76 2.128 . S
Co66 N86 2.194 1_554 S
Co66 O91 2.351 . S
Co66 O92 2.155 . S
Co66 O93 2.096 . S
C67 N70 1.301 . S
C67 N71 1.328 . S
C67 H72 0.930 . S
C68 C69 1.333 . S
C68 N70 1.317 . S
C68 H73 0.930 . S
C69 C68 1.333 . S
C69 N71 1.350 . S
C69 H95 0.931 . S
N70 Co66 2.148 . S
N70 C67 1.301 . S
N70 C68 1.317 . S
N71 C67 1.328 . S
N71 C69 1.350 . S
H72 C67 0.930 . S
H73 C68 0.930 . S
C74 O75 1.224 1_554 S
C74 O93 1.247 . S
O75 C74 1.224 1_556 S
N76 Co66 2.128 . S
N76 C77 1.355 . S
N76 C79 1.311 . S
C77 N76 1.355 . S
C77 C78 1.363 . S
C77 H89 0.929 . S
C78 C77 1.363 . S
C78 N80 1.375 . S
C78 H96 0.931 . S
C79 N76 1.311 . S
C79 N80 1.347 . S
C79 H90 0.929 . S
N80 C78 1.375 . S
N80 C79 1.347 . S
C81 C84 1.365 . S
C81 N86 1.328 . S
C81 H87 0.929 1_556 S
C82 C83 1.362 . S
C82 C85 1.378 . S
C82 H97 0.929 . S
C83 C82 1.362 . S
C83 C84 1.366 . S
C84 C81 1.365 . S
C84 C83 1.366 . S
C84 H98 0.930 . S
C85 C82 1.378 . S
C85 N86 1.315 . S
C85 H88 0.930 . S
N86 Co66 2.194 1_556 S
N86 C81 1.328 . S
N86 C85 1.315 . S
H87 C81 0.929 1_554 S
H88 C85 0.930 . S
H89 C77 0.929 . S
H90 C79 0.929 . S
O91 Co66 2.351 . S
O91 C94 1.244 . S
O92 Co66 2.155 . S
O92 C94 1.240 . S
O93 Co66 2.096 . S
O93 C74 1.247 . S
C94 O91 1.244 . S
C94 O92 1.240 . S
H95 C69 0.931 . S
H96 C78 0.931 . S
H97 C82 0.929 . S
H98 C84 0.930 . S
Co99 N103 2.148 . S
Co99 N109 2.128 . S
Co99 N119 2.194 1_554 S
Co99 O124 2.351 . S
Co99 O125 2.155 . S
Co99 O126 2.096 . S
C100 N103 1.301 . S
C100 N104 1.328 . S
C100 H105 0.930 . S
C101 C102 1.333 . S
C101 N103 1.317 . S
C101 H106 0.930 . S
C102 C101 1.333 . S
C102 N104 1.350 . S
C102 H128 0.931 . S
N103 Co99 2.148 . S
N103 C100 1.301 . S
N103 C101 1.317 . S
N104 C100 1.328 . S
N104 C102 1.350 . S
H105 C100 0.930 . S
H106 C101 0.930 . S
C107 O108 1.224 1_554 S
C107 O126 1.247 . S
O108 C107 1.224 1_556 S
N109 Co99 2.128 . S
N109 C110 1.355 . S
N109 C112 1.311 . S
C110 N109 1.355 . S
C110 C111 1.363 . S
C110 H122 0.929 . S
C111 C110 1.363 . S
C111 N113 1.375 . S
C111 H129 0.931 . S
C112 N109 1.311 . S
C112 N113 1.347 . S
C112 H123 0.929 . S
N113 C111 1.375 . S
N113 C112 1.347 . S
C114 C117 1.365 . S
C114 N119 1.328 . S
C114 H120 0.929 1_556 S
C115 C116 1.362 . S
C115 C118 1.378 . S
C115 H130 0.929 . S
C116 C115 1.362 . S
C116 C117 1.366 . S
C117 C114 1.365 . S
C117 C116 1.366 . S
C117 H131 0.930 . S
C118 C115 1.378 . S
C118 N119 1.315 . S
C118 H121 0.930 . S
N119 Co99 2.194 1_556 S
N119 C114 1.328 . S
N119 C118 1.315 . S
H120 C114 0.929 1_554 S
H121 C118 0.930 . S
H122 C110 0.929 . S
H123 C112 0.929 . S
O124 Co99 2.351 . S
O124 C127 1.244 . S
O125 Co99 2.155 . S
O125 C127 1.240 . S
O126 Co99 2.096 . S
O126 C107 1.247 . S
C127 O124 1.244 . S
C127 O125 1.240 . S
H128 C102 0.931 . S
H129 C111 0.931 . S
H130 C115 0.929 . S
H131 C117 0.930 . S
Co132 N136 2.148 . S
Co132 N142 2.128 . S
Co132 N152 2.194 1_554 S
Co132 O157 2.351 . S
Co132 O158 2.155 . S
Co132 O159 2.096 . S
C133 N136 1.301 . S
C133 N137 1.328 . S
C133 H138 0.930 . S
C134 C135 1.333 . S
C134 N136 1.317 . S
C134 H139 0.930 . S
C135 C134 1.333 . S
C135 N137 1.350 . S
C135 H161 0.931 . S
N136 Co132 2.148 . S
N136 C133 1.301 . S
N136 C134 1.317 . S
N137 C133 1.328 . S
N137 C135 1.350 . S
H138 C133 0.930 . S
H139 C134 0.930 . S
C140 O141 1.224 1_554 S
C140 O159 1.247 . S
O141 C140 1.224 1_556 S
N142 Co132 2.128 . S
N142 C143 1.355 . S
N142 C145 1.311 . S
C143 N142 1.355 . S
C143 C144 1.363 . S
C143 H155 0.929 . S
C144 C143 1.363 . S
C144 N146 1.375 . S
C144 H162 0.931 . S
C145 N142 1.311 . S
C145 N146 1.347 . S
C145 H156 0.929 . S
N146 C144 1.375 . S
N146 C145 1.347 . S
C147 C150 1.365 . S
C147 N152 1.328 . S
C147 H153 0.929 1_556 S
C148 C149 1.362 . S
C148 C151 1.378 . S
C148 H163 0.929 . S
C149 C148 1.362 . S
C149 C150 1.366 . S
C150 C147 1.365 . S
C150 C149 1.366 . S
C150 H164 0.930 . S
C151 C148 1.378 . S
C151 N152 1.315 . S
C151 H154 0.930 . S
N152 Co132 2.194 1_556 S
N152 C147 1.328 . S
N152 C151 1.315 . S
H153 C147 0.929 1_554 S
H154 C151 0.930 . S
H155 C143 0.929 . S
H156 C145 0.929 . S
O157 Co132 2.351 . S
O157 C160 1.244 . S
O158 Co132 2.155 . S
O158 C160 1.240 . S
O159 Co132 2.096 . S
O159 C140 1.247 . S
C160 O157 1.244 . S
C160 O158 1.240 . S
H161 C135 0.931 . S
H162 C144 0.931 . S
H163 C148 0.929 . S
H164 C150 0.930 . S
Co165 N169 2.148 . S
Co165 N175 2.128 . S
Co165 N185 2.194 1_554 S
Co165 O190 2.351 . S
Co165 O191 2.155 . S
Co165 O192 2.096 . S
C166 N169 1.301 . S
C166 N170 1.328 . S
C166 H171 0.930 . S
C167 C168 1.333 . S
C167 N169 1.317 . S
C167 H172 0.930 . S
C168 C167 1.333 . S
C168 N170 1.350 . S
C168 H194 0.931 . S
N169 Co165 2.148 . S
N169 C166 1.301 . S
N169 C167 1.317 . S
N170 C166 1.328 . S
N170 C168 1.350 . S
H171 C166 0.930 . S
H172 C167 0.930 . S
C173 O174 1.224 1_554 S
C173 O192 1.247 . S
O174 C173 1.224 1_556 S
N175 Co165 2.128 . S
N175 C176 1.355 . S
N175 C178 1.311 . S
C176 N175 1.355 . S
C176 C177 1.363 . S
C176 H188 0.929 . S
C177 C176 1.363 . S
C177 N179 1.375 . S
C177 H195 0.931 . S
C178 N175 1.311 . S
C178 N179 1.347 . S
C178 H189 0.929 . S
N179 C177 1.375 . S
N179 C178 1.347 . S
C180 C183 1.365 . S
C180 N185 1.328 . S
C180 H186 0.929 1_556 S
C181 C182 1.362 . S
C181 C184 1.378 . S
C181 H196 0.929 . S
C182 C181 1.362 . S
C182 C183 1.366 . S
C183 C180 1.365 . S
C183 C182 1.366 . S
C183 H197 0.930 . S
C184 C181 1.378 . S
C184 N185 1.315 . S
C184 H187 0.930 . S
N185 Co165 2.194 1_556 S
N185 C180 1.328 . S
N185 C184 1.315 . S
H186 C180 0.929 1_554 S
H187 C184 0.930 . S
H188 C176 0.929 . S
H189 C178 0.929 . S
O190 Co165 2.351 . S
O190 C193 1.244 . S
O191 Co165 2.155 . S
O191 C193 1.240 . S
O192 Co165 2.096 . S
O192 C173 1.247 . S
C193 O190 1.244 . S
C193 O191 1.240 . S
H194 C168 0.931 . S
H195 C177 0.931 . S
H196 C181 0.929 . S
H197 C183 0.930 . S
Co198 N202 2.148 . S
Co198 N208 2.128 . S
Co198 N218 2.194 . S
Co198 O223 2.351 . S
Co198 O224 2.155 . S
Co198 O225 2.096 . S
C199 N202 1.301 . S
C199 N203 1.328 . S
C199 H204 0.930 . S
C200 C201 1.333 . S
C200 N202 1.317 . S
C200 H205 0.930 . S
C201 C200 1.333 . S
C201 N203 1.350 . S
C201 H227 0.931 . S
N202 Co198 2.148 . S
N202 C199 1.301 . S
N202 C200 1.317 . S
N203 C199 1.328 . S
N203 C201 1.350 . S
H204 C199 0.930 . S
H205 C200 0.930 . S
C206 O207 1.224 . S
C206 O225 1.247 . S
O207 C206 1.224 . S
N208 Co198 2.128 . S
N208 C209 1.355 . S
N208 C211 1.311 . S
C209 N208 1.355 . S
C209 C210 1.363 . S
C209 H221 0.929 . S
C210 C209 1.363 . S
C210 N212 1.375 . S
C210 H228 0.931 . S
C211 N208 1.311 . S
C211 N212 1.347 . S
C211 H222 0.929 . S
N212 C210 1.375 . S
N212 C211 1.347 . S
C213 C216 1.365 . S
C213 N218 1.328 . S
C213 H219 0.929 . S
C214 C215 1.362 . S
C214 C217 1.378 . S
C214 H229 0.929 . S
C215 C214 1.362 . S
C215 C216 1.366 . S
C216 C213 1.365 . S
C216 C215 1.366 . S
C216 H230 0.930 . S
C217 C214 1.378 . S
C217 N218 1.315 . S
C217 H220 0.930 . S
N218 Co198 2.194 . S
N218 C213 1.328 . S
N218 C217 1.315 . S
H219 C213 0.929 . S
H220 C217 0.930 . S
H221 C209 0.929 . S
H222 C211 0.929 . S
O223 Co198 2.351 . S
O223 C226 1.244 . S
O224 Co198 2.155 . S
O224 C226 1.240 . S
O225 Co198 2.096 . S
O225 C206 1.247 . S
C226 O223 1.244 . S
C226 O224 1.240 . S
H227 C201 0.931 . S
H228 C210 0.931 . S
H229 C214 0.929 . S
H230 C216 0.930 . S
Co231 N235 2.148 . S
Co231 N241 2.128 . S
Co231 N251 2.194 . S
Co231 O256 2.351 . S
Co231 O257 2.155 . S
Co231 O258 2.096 . S
C232 N235 1.301 . S
C232 N236 1.328 . S
C232 H237 0.930 . S
C233 C234 1.333 . S
C233 N235 1.317 . S
C233 H238 0.930 . S
C234 C233 1.333 . S
C234 N236 1.350 . S
C234 H260 0.931 . S
N235 Co231 2.148 . S
N235 C232 1.301 . S
N235 C233 1.317 . S
N236 C232 1.328 . S
N236 C234 1.350 . S
H237 C232 0.930 . S
H238 C233 0.930 . S
C239 O240 1.224 . S
C239 O258 1.247 . S
O240 C239 1.224 . S
N241 Co231 2.128 . S
N241 C242 1.355 . S
N241 C244 1.311 . S
C242 N241 1.355 . S
C242 C243 1.363 . S
C242 H254 0.929 . S
C243 C242 1.363 . S
C243 N245 1.375 . S
C243 H261 0.931 . S
C244 N241 1.311 . S
C244 N245 1.347 . S
C244 H255 0.929 . S
N245 C243 1.375 . S
N245 C244 1.347 . S
C246 C249 1.365 . S
C246 N251 1.328 . S
C246 H252 0.929 . S
C247 C248 1.362 . S
C247 C250 1.378 . S
C247 H262 0.929 . S
C248 C247 1.362 . S
C248 C249 1.366 . S
C249 C246 1.365 . S
C249 C248 1.366 . S
C249 H263 0.930 . S
C250 C247 1.378 . S
C250 N251 1.315 . S
C250 H253 0.930 . S
N251 Co231 2.194 . S
N251 C246 1.328 . S
N251 C250 1.315 . S
H252 C246 0.929 . S
H253 C250 0.930 . S
H254 C242 0.929 . S
H255 C244 0.929 . S
O256 Co231 2.351 . S
O256 C259 1.244 . S
O257 Co231 2.155 . S
O257 C259 1.240 . S
O258 Co231 2.096 . S
O258 C239 1.247 . S
C259 O256 1.244 . S
C259 O257 1.240 . S
H260 C234 0.931 . S
H261 C243 0.931 . S
H262 C247 0.929 . S
H263 C249 0.930 . S
Co264 N268 2.148 . S
Co264 N274 2.128 . S
Co264 N284 2.194 . S
Co264 O289 2.351 . S
Co264 O290 2.155 . S
Co264 O291 2.096 . S
C265 N268 1.301 . S
C265 N269 1.328 . S
C265 H270 0.930 . S
C266 C267 1.333 . S
C266 N268 1.317 . S
C266 H271 0.930 . S
C267 C266 1.333 . S
C267 N269 1.350 . S
C267 H293 0.931 . S
N268 Co264 2.148 . S
N268 C265 1.301 . S
N268 C266 1.317 . S
N269 C265 1.328 . S
N269 C267 1.350 . S
H270 C265 0.930 . S
H271 C266 0.930 . S
C272 O273 1.224 . S
C272 O291 1.247 . S
O273 C272 1.224 . S
N274 Co264 2.128 . S
N274 C275 1.355 . S
N274 C277 1.311 . S
C275 N274 1.355 . S
C275 C276 1.363 . S
C275 H287 0.929 . S
C276 C275 1.363 . S
C276 N278 1.375 . S
C276 H294 0.931 . S
C277 N274 1.311 . S
C277 N278 1.347 . S
C277 H288 0.929 . S
N278 C276 1.375 . S
N278 C277 1.347 . S
C279 C282 1.365 . S
C279 N284 1.328 . S
C279 H285 0.929 . S
C280 C281 1.362 . S
C280 C283 1.378 . S
C280 H295 0.929 . S
C281 C280 1.362 . S
C281 C282 1.366 . S
C282 C279 1.365 . S
C282 C281 1.366 . S
C282 H296 0.930 . S
C283 C280 1.378 . S
C283 N284 1.315 . S
C283 H286 0.930 . S
N284 Co264 2.194 . S
N284 C279 1.328 . S
N284 C283 1.315 . S
H285 C279 0.929 . S
H286 C283 0.930 . S
H287 C275 0.929 . S
H288 C277 0.929 . S
O289 Co264 2.351 . S
O289 C292 1.244 . S
O290 Co264 2.155 . S
O290 C292 1.240 . S
O291 Co264 2.096 . S
O291 C272 1.247 . S
C292 O289 1.244 . S
C292 O290 1.240 . S
H293 C267 0.931 . S
H294 C276 0.931 . S
H295 C280 0.929 . S
H296 C282 0.930 . S
Co297 N301 2.148 . S
Co297 N307 2.128 . S
Co297 N317 2.194 . S
Co297 O322 2.351 . S
Co297 O323 2.155 . S
Co297 O324 2.096 . S
C298 N301 1.301 . S
C298 N302 1.328 . S
C298 H303 0.930 . S
C299 C300 1.333 . S
C299 N301 1.317 . S
C299 H304 0.930 . S
C300 C299 1.333 . S
C300 N302 1.350 . S
C300 H326 0.931 . S
N301 Co297 2.148 . S
N301 C298 1.301 . S
N301 C299 1.317 . S
N302 C298 1.328 . S
N302 C300 1.350 . S
H303 C298 0.930 . S
H304 C299 0.930 . S
C305 O306 1.224 . S
C305 O324 1.247 . S
O306 C305 1.224 . S
N307 Co297 2.128 . S
N307 C308 1.355 . S
N307 C310 1.311 . S
C308 N307 1.355 . S
C308 C309 1.363 . S
C308 H320 0.929 . S
C309 C308 1.363 . S
C309 N311 1.375 . S
C309 H327 0.931 . S
C310 N307 1.311 . S
C310 N311 1.347 . S
C310 H321 0.929 . S
N311 C309 1.375 . S
N311 C310 1.347 . S
C312 C315 1.365 . S
C312 N317 1.328 . S
C312 H318 0.929 . S
C313 C314 1.362 . S
C313 C316 1.378 . S
C313 H328 0.929 . S
C314 C313 1.362 . S
C314 C315 1.366 . S
C315 C312 1.365 . S
C315 C314 1.366 . S
C315 H329 0.930 . S
C316 C313 1.378 . S
C316 N317 1.315 . S
C316 H319 0.930 . S
N317 Co297 2.194 . S
N317 C312 1.328 . S
N317 C316 1.315 . S
H318 C312 0.929 . S
H319 C316 0.930 . S
H320 C308 0.929 . S
H321 C310 0.929 . S
O322 Co297 2.351 . S
O322 C325 1.244 . S
O323 Co297 2.155 . S
O323 C325 1.240 . S
O324 Co297 2.096 . S
O324 C305 1.247 . S
C325 O322 1.244 . S
C325 O323 1.240 . S
H326 C300 0.931 . S
H327 C309 0.931 . S
H328 C313 0.929 . S
H329 C315 0.930 . S
Co330 N334 2.148 . S
Co330 N340 2.128 . S
Co330 N350 2.194 . S
Co330 O355 2.351 . S
Co330 O356 2.155 . S
Co330 O357 2.096 . S
C331 N334 1.301 . S
C331 N335 1.328 . S
C331 H336 0.930 . S
C332 C333 1.333 . S
C332 N334 1.317 . S
C332 H337 0.930 . S
C333 C332 1.333 . S
C333 N335 1.350 . S
C333 H359 0.931 . S
N334 Co330 2.148 . S
N334 C331 1.301 . S
N334 C332 1.317 . S
N335 C331 1.328 . S
N335 C333 1.350 . S
H336 C331 0.930 . S
H337 C332 0.930 . S
C338 O339 1.224 . S
C338 O357 1.247 . S
O339 C338 1.224 . S
N340 Co330 2.128 . S
N340 C341 1.355 . S
N340 C343 1.311 . S
C341 N340 1.355 . S
C341 C342 1.363 . S
C341 H353 0.929 . S
C342 C341 1.363 . S
C342 N344 1.375 . S
C342 H360 0.931 . S
C343 N340 1.311 . S
C343 N344 1.347 . S
C343 H354 0.929 . S
N344 C342 1.375 . S
N344 C343 1.347 . S
C345 C348 1.365 . S
C345 N350 1.328 . S
C345 H351 0.929 . S
C346 C347 1.362 . S
C346 C349 1.378 . S
C346 H361 0.929 . S
C347 C346 1.362 . S
C347 C348 1.366 . S
C348 C345 1.365 . S
C348 C347 1.366 . S
C348 H362 0.930 . S
C349 C346 1.378 . S
C349 N350 1.315 . S
C349 H352 0.930 . S
N350 Co330 2.194 . S
N350 C345 1.328 . S
N350 C349 1.315 . S
H351 C345 0.929 . S
H352 C349 0.930 . S
H353 C341 0.929 . S
H354 C343 0.929 . S
O355 Co330 2.351 . S
O355 C358 1.244 . S
O356 Co330 2.155 . S
O356 C358 1.240 . S
O357 Co330 2.096 . S
O357 C338 1.247 . S
C358 O355 1.244 . S
C358 O356 1.240 . S
H359 C333 0.931 . S
H360 C342 0.931 . S
H361 C346 0.929 . S
H362 C348 0.930 . S
Co363 N367 2.148 . S
Co363 N373 2.128 . S
Co363 N383 2.194 . S
Co363 O388 2.351 . S
Co363 O389 2.155 . S
Co363 O390 2.096 . S
C364 N367 1.301 . S
C364 N368 1.328 . S
C364 H369 0.930 . S
C365 C366 1.333 . S
C365 N367 1.317 . S
C365 H370 0.930 . S
C366 C365 1.333 . S
C366 N368 1.350 . S
C366 H392 0.931 . S
N367 Co363 2.148 . S
N367 C364 1.301 . S
N367 C365 1.317 . S
N368 C364 1.328 . S
N368 C366 1.350 . S
H369 C364 0.930 . S
H370 C365 0.930 . S
C371 O372 1.224 . S
C371 O390 1.247 . S
O372 C371 1.224 . S
N373 Co363 2.128 . S
N373 C374 1.355 . S
N373 C376 1.311 . S
C374 N373 1.355 . S
C374 C375 1.363 . S
C374 H386 0.929 . S
C375 C374 1.363 . S
C375 N377 1.375 . S
C375 H393 0.931 . S
C376 N373 1.311 . S
C376 N377 1.347 . S
C376 H387 0.929 . S
N377 C375 1.375 . S
N377 C376 1.347 . S
C378 C381 1.365 . S
C378 N383 1.328 . S
C378 H384 0.929 . S
C379 C380 1.362 . S
C379 C382 1.378 . S
C379 H394 0.929 . S
C380 C379 1.362 . S
C380 C381 1.366 . S
C381 C378 1.365 . S
C381 C380 1.366 . S
C381 H395 0.930 . S
C382 C379 1.378 . S
C382 N383 1.315 . S
C382 H385 0.930 . S
N383 Co363 2.194 . S
N383 C378 1.328 . S
N383 C382 1.315 . S
H384 C378 0.929 . S
H385 C382 0.930 . S
H386 C374 0.929 . S
H387 C376 0.929 . S
O388 Co363 2.351 . S
O388 C391 1.244 . S
O389 Co363 2.155 . S
O389 C391 1.240 . S
O390 Co363 2.096 . S
O390 C371 1.247 . S
C391 O388 1.244 . S
C391 O389 1.240 . S
H392 C366 0.931 . S
H393 C375 0.931 . S
H394 C379 0.929 . S
H395 C381 0.930 . S
C396 C397 1.369 . S
C396 C398 1.419 1_545 S
C396 H400 0.930 1_554 S
C397 C396 1.369 . S
C397 C406 1.429 . S
C398 C396 1.419 1_565 S
C398 C399 1.363 . S
C398 H401 0.929 1_554 S
C399 C398 1.363 . S
C399 C405 1.428 . S
H400 C396 0.930 1_556 S
H401 C398 0.929 1_556 S
S402 N403 1.613 . S
S402 N404 1.610 1_545 S
N403 S402 1.613 . S
N403 C406 1.350 . S
N404 S402 1.610 1_565 S
N404 C405 1.351 . S
C405 C399 1.428 . S
C405 N404 1.351 . S
C405 C406 1.434 1_565 S
C406 C397 1.429 . S
C406 N403 1.350 . S
C406 C405 1.434 1_545 S
C407 C408 1.369 . S
C407 C409 1.419 . S
C407 H411 0.930 . S
C408 C407 1.369 . S
C408 C417 1.429 . S
C409 C407 1.419 . S
C409 C410 1.363 . S
C409 H412 0.929 . S
C410 C409 1.363 . S
C410 C416 1.428 . S
H411 C407 0.930 . S
H412 C409 0.929 . S
S413 N414 1.613 . S
S413 N415 1.610 . S
N414 S413 1.613 . S
N414 C417 1.350 . S
N415 S413 1.610 . S
N415 C416 1.351 . S
C416 C410 1.428 . S
C416 N415 1.351 . S
C416 C417 1.434 . S
C417 C408 1.429 . S
C417 N414 1.350 . S
C417 C416 1.434 . S
C418 C419 1.369 . S
C418 C420 1.419 . S
C418 H422 0.930 . S
C419 C418 1.369 . S
C419 C428 1.429 1_455 S
C420 C418 1.419 . S
C420 C421 1.363 1_455 S
C420 H423 0.929 . S
C421 C420 1.363 1_655 S
C421 C427 1.428 . S
H422 C418 0.930 . S
H423 C420 0.929 . S
S424 N425 1.613 . S
S424 N426 1.610 . S
N425 S424 1.613 . S
N425 C428 1.350 1_556 S
N426 S424 1.610 . S
N426 C427 1.351 1_556 S
C427 C421 1.428 . S
C427 N426 1.351 1_554 S
C427 C428 1.434 . S
C428 C419 1.429 1_655 S
C428 N425 1.350 1_554 S
C428 C427 1.434 . S
C429 C430 1.369 1_655 S
C429 C431 1.419 . S
C429 H433 0.930 . S
C430 C429 1.369 1_455 S
C430 C439 1.429 . S
C431 C429 1.419 . S
C431 C432 1.363 . S
C431 H434 0.929 . S
C432 C431 1.363 . S
C432 C438 1.428 1_655 S
H433 C429 0.930 . S
H434 C431 0.929 . S
S435 N436 1.613 . S
S435 N437 1.610 . S
N436 S435 1.613 . S
N436 C439 1.350 . S
N437 S435 1.610 . S
N437 C438 1.351 . S
C438 C432 1.428 1_455 S
C438 N437 1.351 . S
C438 C439 1.434 . S
C439 C430 1.429 . S
C439 N436 1.350 . S
C439 C438 1.434 . S
C440 C441 1.369 . S
C440 C442 1.419 . S
C440 H444 0.930 . S
C441 C440 1.369 . S
C441 C450 1.429 1_545 S
C442 C440 1.419 . S
C442 C443 1.363 1_545 S
C442 H445 0.929 . S
C443 C442 1.363 1_565 S
C443 C449 1.428 . S
H444 C440 0.930 . S
H445 C442 0.929 . S
S446 N447 1.613 . S
S446 N448 1.610 . S
N447 S446 1.613 . S
N447 C450 1.350 . S
N448 S446 1.610 . S
N448 C449 1.351 . S
C449 C443 1.428 . S
C449 N448 1.351 . S
C449 C450 1.434 . S
C450 C441 1.429 1_565 S
C450 N447 1.350 . S
C450 C449 1.434 . S
C451 C452 1.369 . S
C451 C453 1.419 . S
C451 H455 0.930 . S
C452 C451 1.369 . S
C452 C461 1.429 . S
C453 C451 1.419 . S
C453 C454 1.363 . S
C453 H456 0.929 . S
C454 C453 1.363 . S
C454 C460 1.428 . S
H455 C451 0.930 . S
H456 C453 0.929 . S
S457 N458 1.613 . S
S457 N459 1.610 . S
N458 S457 1.613 . S
N458 C461 1.350 . S
N459 S457 1.610 . S
N459 C460 1.351 . S
C460 C454 1.428 . S
C460 N459 1.351 . S
C460 C461 1.434 . S
C461 C452 1.429 . S
C461 N458 1.350 . S
C461 C460 1.434 . S
C462 C463 1.369 1_565 S
C462 C464 1.419 . S
C462 H466 0.930 1_554 S
C463 C462 1.369 1_545 S
C463 C472 1.429 1_545 S
C464 C462 1.419 . S
C464 C465 1.363 . S
C464 H467 0.929 1_554 S
C465 C464 1.363 . S
C465 C471 1.428 . S
H466 C462 0.930 1_556 S
H467 C464 0.929 1_556 S
S468 N469 1.625 . S
S468 N470 1.610 . S
N469 S468 1.625 . S
N469 C472 1.352 . S
N470 S468 1.610 . S
N470 C471 1.351 . S
C471 C465 1.428 . S
C471 N470 1.351 . S
C471 C472 1.434 . S
C472 C463 1.429 1_565 S
C472 N469 1.352 . S
C472 C471 1.434 . S
C473 C474 1.369 . S
C473 C475 1.419 . S
C473 H477 0.930 . S
C474 C473 1.369 . S
C474 C483 1.429 . S
C475 C473 1.419 . S
C475 C476 1.363 . S
C475 H478 0.929 . S
C476 C475 1.363 . S
C476 C482 1.428 . S
H477 C473 0.930 . S
H478 C475 0.929 . S
S479 N480 1.613 . S
S479 N481 1.610 . S
N480 S479 1.613 . S
N480 C483 1.350 . S
N481 S479 1.610 . S
N481 C482 1.351 . S
C482 C476 1.428 . S
C482 N481 1.351 . S
C482 C483 1.434 . S
C483 C474 1.429 . S
C483 N480 1.350 . S
C483 C482 1.434 . S
C484 C485 1.369 1_455 S
C484 C486 1.419 . S
C484 H488 0.930 1_554 S
C485 C484 1.369 1_655 S
C485 C494 1.414 1_655 S
C486 C484 1.419 . S
C486 C487 1.363 . S
C486 H489 0.929 . S
C487 C486 1.363 . S
C487 C493 1.428 . S
H488 C484 0.930 1_556 S
H489 C486 0.929 . S
S490 N491 1.613 . S
S490 N492 1.610 1_655 S
N491 S490 1.613 . S
N491 C494 1.340 1_655 S
N492 S490 1.610 1_455 S
N492 C493 1.351 . S
C493 C487 1.428 . S
C493 N492 1.351 . S
C493 C494 1.462 . S
C494 C485 1.414 1_455 S
C494 N491 1.340 1_455 S
C494 C493 1.462 . S
C495 C496 1.369 . S
C495 C497 1.419 . S
C495 H499 0.930 . S
C496 C495 1.369 . S
C496 C505 1.429 . S
C497 C495 1.419 . S
C497 C498 1.363 1_545 S
C497 H500 0.929 1_545 S
C498 C497 1.363 1_565 S
C498 C504 1.428 1_565 S
H499 C495 0.930 . S
H500 C497 0.929 1_565 S
S501 N502 1.613 . S
S501 N503 1.610 . S
N502 S501 1.613 . S
N502 C505 1.350 . S
N503 S501 1.610 . S
N503 C504 1.351 . S
C504 C498 1.428 1_545 S
C504 N503 1.351 . S
C504 C505 1.434 . S
C505 C496 1.429 . S
C505 N502 1.350 . S
C505 C504 1.434 . S
C506 C507 1.369 . S
C506 C508 1.419 . S
C506 H510 0.930 . S
C507 C506 1.369 . S
C507 C516 1.429 . S
C508 C506 1.419 . S
C508 C509 1.363 . S
C508 H511 0.929 . S
C509 C508 1.363 . S
C509 C515 1.428 . S
H510 C506 0.930 . S
H511 C508 0.929 . S
S512 N513 1.613 . S
S512 N514 1.610 . S
N513 S512 1.613 . S
N513 C516 1.350 1_556 S
N514 S512 1.610 . S
N514 C515 1.351 1_556 S
C515 C509 1.428 . S
C515 N514 1.351 1_554 S
C515 C516 1.434 . S
C516 C507 1.429 . S
C516 N513 1.350 1_554 S
C516 C515 1.434 . S
C517 C518 1.369 . S
C517 C519 1.419 . S
C517 H521 0.930 . S
C518 C517 1.369 . S
C518 C527 1.429 . S
C519 C517 1.419 . S
C519 C520 1.363 1_655 S
C519 H522 0.929 . S
C520 C519 1.363 1_455 S
C520 C526 1.446 . S
H521 C517 0.930 . S
H522 C519 0.929 . S
S523 N524 1.613 1_455 S
S523 N525 1.610 . S
N524 S523 1.613 1_655 S
N524 C527 1.350 . S
N525 S523 1.610 . S
N525 C526 1.360 . S
C526 C520 1.446 . S
C526 N525 1.360 . S
C526 C527 1.404 1_455 S
C527 C518 1.429 . S
C527 N524 1.350 . S
C527 C526 1.404 1_655 S
C528 C529 1.369 . S
C528 C530 1.419 . S
C528 H532 0.930 . S
C529 C528 1.369 . S
C529 C538 1.429 . S
C530 C528 1.419 . S
C530 C531 1.363 1_455 S
C530 H533 0.929 . S
C531 C530 1.363 1_655 S
C531 C537 1.427 1_655 S
H532 C528 0.930 . S
H533 C530 0.929 . S
S534 N535 1.613 1_655 S
S534 N536 1.610 . S
N535 S534 1.613 1_455 S
N535 C538 1.350 . S
N536 S534 1.610 . S
N536 C537 1.354 1_655 S
C537 C531 1.427 1_455 S
C537 N536 1.354 1_455 S
C537 C538 1.432 . S
C538 C529 1.429 . S
C538 N535 1.350 . S
C538 C537 1.432 . S
C539 C540 1.369 . S
C539 C541 1.419 . S
C539 H543 0.930 . S
C540 C539 1.369 . S
C540 C549 1.429 . S
C541 C539 1.419 . S
C541 C542 1.363 1_545 S
C541 H544 0.929 1_545 S
C542 C541 1.363 1_565 S
C542 C548 1.428 1_565 S
H543 C539 0.930 . S
H544 C541 0.929 1_565 S
S545 N546 1.613 . S
S545 N547 1.610 . S
N546 S545 1.613 . S
N546 C549 1.350 . S
N547 S545 1.610 . S
N547 C548 1.351 . S
C548 C542 1.428 1_545 S
C548 N547 1.351 . S
C548 C549 1.434 . S
C549 C540 1.429 . S
C549 N546 1.350 . S
C549 C548 1.434 . S
C550 C551 1.369 . S
C550 C552 1.419 . S
C550 H554 0.930 . S
C551 C550 1.369 . S
C551 C560 1.429 . S
C552 C550 1.419 . S
C552 C553 1.363 . S
C552 H555 0.929 . S
C553 C552 1.363 . S
C553 C559 1.428 . S
H554 C550 0.930 . S
H555 C552 0.929 . S
S556 N557 1.613 . S
S556 N558 1.610 . S
N557 S556 1.613 . S
N557 C560 1.350 . S
N558 S556 1.610 . S
N558 C559 1.351 . S
C559 C553 1.428 . S
C559 N558 1.351 . S
C559 C560 1.434 . S
C560 C551 1.429 . S
C560 N557 1.350 . S
C560 C559 1.434 . S
C561 C562 1.369 1_655 S
C561 C563 1.419 . S
C561 H565 0.930 . S
C562 C561 1.369 1_455 S
C562 C571 1.429 1_455 S
C563 C561 1.419 . S
C563 C564 1.363 . S
C563 H566 0.929 . S
C564 C563 1.363 . S
C564 C570 1.428 . S
H565 C561 0.930 . S
H566 C563 0.929 . S
S567 N568 1.603 1_655 S
S567 N569 1.610 . S
N568 S567 1.603 1_455 S
N568 C571 1.339 1_455 S
N569 S567 1.610 . S
N569 C570 1.351 . S
C570 C564 1.428 . S
C570 N569 1.351 . S
C570 C571 1.434 . S
C571 C562 1.429 1_655 S
C571 N568 1.339 1_655 S
C571 C570 1.434 . S
C572 C573 1.369 1_565 S
C572 C574 1.419 . S
C572 H576 0.930 1_565 S
C573 C572 1.369 1_545 S
C573 C582 1.429 1_545 S
C574 C572 1.419 . S
C574 C575 1.363 . S
C574 H577 0.929 . S
C575 C574 1.363 . S
C575 C581 1.428 . S
H576 C572 0.930 1_545 S
H577 C574 0.929 . S
S578 N579 1.613 . S
S578 N580 1.610 . S
N579 S578 1.613 . S
N579 C582 1.350 . S
N580 S578 1.610 . S
N580 C581 1.351 . S
C581 C575 1.428 . S
C581 N580 1.351 . S
C581 C582 1.434 . S
C582 C573 1.429 1_565 S
C582 N579 1.350 . S
C582 C581 1.434 . S
C583 C584 1.369 . S
C583 C585 1.419 . S
C583 H587 0.930 . S
C584 C583 1.369 . S
C584 C593 1.429 . S
C585 C583 1.419 . S
C585 C586 1.363 . S
C585 H588 0.929 . S
C586 C585 1.363 . S
C586 C592 1.428 . S
H587 C583 0.930 . S
H588 C585 0.929 . S
S589 N590 1.613 . S
S589 N591 1.610 . S
N590 S589 1.613 . S
N590 C593 1.350 . S
N591 S589 1.610 . S
N591 C592 1.351 . S
C592 C586 1.428 . S
C592 N591 1.351 . S
C592 C593 1.434 . S
C593 C584 1.429 . S
C593 N590 1.350 . S
C593 C592 1.434 . S
C594 C595 1.369 . S
C594 C596 1.419 . S
C594 H598 0.930 . S
C595 C594 1.369 . S
C595 C604 1.429 . S
C596 C594 1.419 . S
C596 C597 1.363 . S
C596 H599 0.929 . S
C597 C596 1.363 . S
C597 C603 1.428 . S
H598 C594 0.930 . S
H599 C596 0.929 . S
S600 N601 1.613 . S
S600 N602 1.610 . S
N601 S600 1.613 . S
N601 C604 1.350 . S
N602 S600 1.610 . S
N602 C603 1.351 . S
C603 C597 1.428 . S
C603 N602 1.351 . S
C603 C604 1.434 . S
C604 C595 1.429 . S
C604 N601 1.350 . S
C604 C603 1.434 . S
C605 C606 1.369 . S
C605 C607 1.419 . S
C605 H609 0.930 . S
C606 C605 1.369 . S
C606 C615 1.429 . S
C607 C605 1.419 . S
C607 C608 1.363 . S
C607 H610 0.929 . S
C608 C607 1.363 . S
C608 C614 1.428 . S
H609 C605 0.930 . S
H610 C607 0.929 . S
S611 N612 1.613 . S
S611 N613 1.610 . S
N612 S611 1.613 . S
N612 C615 1.350 . S
N613 S611 1.610 . S
N613 C614 1.351 . S
C614 C608 1.428 . S
C614 N613 1.351 . S
C614 C615 1.434 . S
C615 C606 1.429 . S
C615 N612 1.350 . S
C615 C614 1.434 . S
C616 C617 1.369 . S
C616 C618 1.419 . S
C616 H620 0.930 . S
C617 C616 1.369 . S
C617 C626 1.429 . S
C618 C616 1.419 . S
C618 C619 1.363 . S
C618 H621 0.929 . S
C619 C618 1.363 . S
C619 C625 1.428 . S
H620 C616 0.930 . S
H621 C618 0.929 . S
S622 N623 1.613 . S
S622 N624 1.610 . S
N623 S622 1.613 . S
N623 C626 1.350 . S
N624 S622 1.610 . S
N624 C625 1.351 . S
C625 C619 1.428 . S
C625 N624 1.351 . S
C625 C626 1.434 . S
C626 C617 1.429 . S
C626 N623 1.350 . S
C626 C625 1.434 . S
C627 C628 1.369 . S
C627 C629 1.419 . S
C627 H631 0.930 . S
C628 C627 1.369 . S
C628 C637 1.429 . S
C629 C627 1.419 . S
C629 C630 1.363 . S
C629 H632 0.929 . S
C630 C629 1.363 . S
C630 C636 1.428 . S
H631 C627 0.930 . S
H632 C629 0.929 . S
S633 N634 1.613 . S
S633 N635 1.610 . S
N634 S633 1.613 . S
N634 C637 1.350 . S
N635 S633 1.610 . S
N635 C636 1.351 . S
C636 C630 1.428 . S
C636 N635 1.351 . S
C636 C637 1.434 . S
C637 C628 1.429 . S
C637 N634 1.350 . S
C637 C636 1.434 . S
C638 C639 1.369 . S
C638 C640 1.419 . S
C638 H642 0.930 . S
C639 C638 1.369 . S
C639 C648 1.429 . S
C640 C638 1.419 . S
C640 C641 1.363 . S
C640 H643 0.929 . S
C641 C640 1.363 . S
C641 C647 1.428 . S
H642 C638 0.930 . S
H643 C640 0.929 . S
S644 N645 1.613 . S
S644 N646 1.610 . S
N645 S644 1.613 . S
N645 C648 1.350 . S
N646 S644 1.610 . S
N646 C647 1.351 . S
C647 C641 1.428 . S
C647 N646 1.351 . S
C647 C648 1.434 . S
C648 C639 1.429 . S
C648 N645 1.350 . S
C648 C647 1.434 . S
C649 C650 1.369 . S
C649 C651 1.419 . S
C649 H653 0.930 . S
C650 C649 1.369 . S
C650 C659 1.429 . S
C651 C649 1.419 . S
C651 C652 1.363 . S
C651 H654 0.929 . S
C652 C651 1.363 . S
C652 C658 1.428 . S
H653 C649 0.930 . S
H654 C651 0.929 . S
S655 N656 1.613 . S
S655 N657 1.610 . S
N656 S655 1.613 . S
N656 C659 1.350 . S
N657 S655 1.610 . S
N657 C658 1.351 . S
C658 C652 1.428 . S
C658 N657 1.351 . S
C658 C659 1.434 . S
C659 C650 1.429 . S
C659 N656 1.350 . S
C659 C658 1.434 . S
C660 C661 1.369 . S
C660 C662 1.419 . S
C660 H664 0.930 . S
C661 C660 1.369 . S
C661 C670 1.429 . S
C662 C660 1.419 . S
C662 C663 1.363 . S
C662 H665 0.929 . S
C663 C662 1.363 . S
C663 C669 1.428 . S
H664 C660 0.930 . S
H665 C662 0.929 . S
S666 N667 1.613 . S
S666 N668 1.610 . S
N667 S666 1.613 . S
N667 C670 1.350 . S
N668 S666 1.610 . S
N668 C669 1.351 . S
C669 C663 1.428 . S
C669 N668 1.351 . S
C669 C670 1.434 . S
C670 C661 1.429 . S
C670 N667 1.350 . S
C670 C669 1.434 . S
C671 C672 1.369 . S
C671 C673 1.419 . S
C671 H675 0.930 . S
C672 C671 1.369 . S
C672 C681 1.429 . S
C673 C671 1.419 . S
C673 C674 1.363 . S
C673 H676 0.929 . S
C674 C673 1.363 . S
C674 C680 1.428 . S
H675 C671 0.930 . S
H676 C673 0.929 . S
S677 N678 1.613 . S
S677 N679 1.610 . S
N678 S677 1.613 . S
N678 C681 1.350 . S
N679 S677 1.610 . S
N679 C680 1.351 . S
C680 C674 1.428 . S
C680 N679 1.351 . S
C680 C681 1.434 . S
C681 C672 1.429 . S
C681 N678 1.350 . S
C681 C680 1.434 . S
C682 C683 1.369 . S
C682 C684 1.419 . S
C682 H686 0.930 . S
C683 C682 1.369 . S
C683 C692 1.429 . S
C684 C682 1.419 . S
C684 C685 1.363 . S
C684 H687 0.929 . S
C685 C684 1.363 . S
C685 C691 1.428 . S
H686 C682 0.930 . S
H687 C684 0.929 . S
S688 N689 1.613 . S
S688 N690 1.610 . S
N689 S688 1.613 . S
N689 C692 1.350 . S
N690 S688 1.610 . S
N690 C691 1.351 . S
C691 C685 1.428 . S
C691 N690 1.351 . S
C691 C692 1.434 . S
C692 C683 1.429 . S
C692 N689 1.350 . S
C692 C691 1.434 . S
C693 C694 1.369 . S
C693 C695 1.419 . S
C693 H697 0.930 . S
C694 C693 1.369 . S
C694 C703 1.429 . S
C695 C693 1.419 . S
C695 C696 1.363 . S
C695 H698 0.929 . S
C696 C695 1.363 . S
C696 C702 1.428 . S
H697 C693 0.930 . S
H698 C695 0.929 . S
S699 N700 1.613 . S
S699 N701 1.610 . S
N700 S699 1.613 . S
N700 C703 1.350 . S
N701 S699 1.610 . S
N701 C702 1.351 . S
C702 C696 1.428 . S
C702 N701 1.351 . S
C702 C703 1.434 . S
C703 C694 1.429 . S
C703 N700 1.350 . S
C703 C702 1.434 . S
C704 C705 1.369 . S
C704 C706 1.419 . S
C704 H708 0.930 . S
C705 C704 1.369 . S
C705 C714 1.429 . S
C706 C704 1.419 . S
C706 C707 1.363 . S
C706 H709 0.929 . S
C707 C706 1.363 . S
C707 C713 1.428 . S
H708 C704 0.930 . S
H709 C706 0.929 . S
S710 N711 1.613 . S
S710 N712 1.610 . S
N711 S710 1.613 . S
N711 C714 1.350 . S
N712 S710 1.610 . S
N712 C713 1.351 . S
C713 C707 1.428 . S
C713 N712 1.351 . S
C713 C714 1.434 . S
C714 C705 1.429 . S
C714 N711 1.350 . S
C714 C713 1.434 . S
C715 C716 1.369 . S
C715 C717 1.419 . S
C715 H719 0.930 . S
C716 C715 1.369 . S
C716 C725 1.429 . S
C717 C715 1.419 . S
C717 C718 1.363 . S
C717 H720 0.929 . S
C718 C717 1.363 . S
C718 C724 1.428 . S
H719 C715 0.930 . S
H720 C717 0.929 . S
S721 N722 1.613 . S
S721 N723 1.610 . S
N722 S721 1.613 . S
N722 C725 1.350 . S
N723 S721 1.610 . S
N723 C724 1.351 . S
C724 C718 1.428 . S
C724 N723 1.351 . S
C724 C725 1.434 . S
C725 C716 1.429 . S
C725 N722 1.350 . S
C725 C724 1.434 . S
C397 N14 1.558 . S
C399 N113 1.559 . S
C408 N146 1.559 . S
C410 N47 1.558 . S
C419 N179 1.559 . S
C421 N80 1.558 . S
C430 N311 1.558 . S
C432 N212 1.559 . S
C441 N344 1.559 . S
C443 N245 1.558 . S
C452 N278 1.559 . S
C454 N377 1.558 . S
C463 C8 1.239 . S
C465 N170 1.238 . S
C474 N5 1.237 . S
C476 C41 1.238 . S
C485 C74 1.238 . S
C487 N38 1.238 . S
C496 N71 1.238 . S
C498 C107 1.239 . S
C507 N104 1.235 . S
C509 C140 1.239 . S
C518 N137 1.237 . S
C520 C173 1.238 . S
C529 N236 1.238 . S
C531 C206 1.238 . S
C540 N269 1.237 . S
C542 C239 1.240 . S
C551 N302 1.236 . S
C553 C272 1.238 . S
C562 C305 1.238 . S
C564 N335 1.236 . S
C573 C338 1.240 . S
C575 N368 1.237 . S
C584 C371 1.238 . S
C586 N203 1.238 . S
C595 C292 1.317 . S
C597 C28 1.319 . S
C606 C61 1.325 . S
C608 C325 1.322 . S
C617 C94 1.325 . S
C619 C358 1.322 . S
C628 C127 1.323 . S
C630 C391 1.320 . S
C639 C226 1.324 . S
C641 C160 1.321 . S
C650 C193 1.324 . S
C652 C259 1.324 . S
C661 C380 1.581 . S
C663 C116 1.580 . S
C672 C215 1.579 . S
C674 C149 1.580 . S
C683 C248 1.582 . S
C685 C182 1.583 . S
C694 C17 1.582 . S
C696 C281 1.581 . S
C705 C50 1.583 . S
C707 C314 1.584 . S
C716 C83 1.583 . S
C718 C347 1.584 . S
