# Generated by pormake.
# Topology kfi, (4)-cn, num edge types: 1
# Building blocks:
#     Node 0, Type 0, BuildingBlock: QUQFOY_clean_sbu_1, # of connection points: 4
#     Node 1, Type 0, BuildingBlock: QUQFOY_clean_sbu_1, # of connection points: 4
#     Node 2, Type 0, BuildingBlock: QUQFOY_clean_sbu_1, # of connection points: 4
#     Node 3, Type 0, BuildingBlock: QUQFOY_clean_sbu_1, # of connection points: 4
#     Node 4, Type 0, BuildingBlock: QUQFOY_clean_sbu_1, # of connection points: 4
#     Node 5, Type 0, BuildingBlock: QUQFOY_clean_sbu_1, # of connection points: 4
#     Node 6, Type 0, BuildingBlock: QUQFOY_clean_sbu_1, # of connection points: 4
#     Node 7, Type 0, BuildingBlock: QUQFOY_clean_sbu_1, # of connection points: 4
#     Node 8, Type 0, BuildingBlock: QUQFOY_clean_sbu_1, # of connection points: 4
#     Node 9, Type 0, BuildingBlock: QUQFOY_clean_sbu_1, # of connection points: 4
#     Node 10, Type 0, BuildingBlock: QUQFOY_clean_sbu_1, # of connection points: 4
#     Node 11, Type 0, BuildingBlock: QUQFOY_clean_sbu_1, # of connection points: 4
#     Node 12, Type 0, BuildingBlock: QUQFOY_clean_sbu_1, # of connection points: 4
#     Node 13, Type 0, BuildingBlock: QUQFOY_clean_sbu_1, # of connection points: 4
#     Node 14, Type 0, BuildingBlock: QUQFOY_clean_sbu_1, # of connection points: 4
#     Node 15, Type 0, BuildingBlock: QUQFOY_clean_sbu_1, # of connection points: 4
#     Node 16, Type 0, BuildingBlock: QUQFOY_clean_sbu_1, # of connection points: 4
#     Node 17, Type 0, BuildingBlock: QUQFOY_clean_sbu_1, # of connection points: 4
#     Node 18, Type 0, BuildingBlock: QUQFOY_clean_sbu_1, # of connection points: 4
#     Node 19, Type 0, BuildingBlock: QUQFOY_clean_sbu_1, # of connection points: 4
#     Node 20, Type 0, BuildingBlock: QUQFOY_clean_sbu_1, # of connection points: 4
#     Node 21, Type 0, BuildingBlock: QUQFOY_clean_sbu_1, # of connection points: 4
#     Node 22, Type 0, BuildingBlock: QUQFOY_clean_sbu_1, # of connection points: 4
#     Node 23, Type 0, BuildingBlock: QUQFOY_clean_sbu_1, # of connection points: 4
#     Node 24, Type 0, BuildingBlock: QUQFOY_clean_sbu_1, # of connection points: 4
#     Node 25, Type 0, BuildingBlock: QUQFOY_clean_sbu_1, # of connection points: 4
#     Node 26, Type 0, BuildingBlock: QUQFOY_clean_sbu_1, # of connection points: 4
#     Node 27, Type 0, BuildingBlock: QUQFOY_clean_sbu_1, # of connection points: 4
#     Node 28, Type 0, BuildingBlock: QUQFOY_clean_sbu_1, # of connection points: 4
#     Node 29, Type 0, BuildingBlock: QUQFOY_clean_sbu_1, # of connection points: 4
#     Node 30, Type 0, BuildingBlock: QUQFOY_clean_sbu_1, # of connection points: 4
#     Node 31, Type 0, BuildingBlock: QUQFOY_clean_sbu_1, # of connection points: 4
#     Node 32, Type 0, BuildingBlock: QUQFOY_clean_sbu_1, # of connection points: 4
#     Node 33, Type 0, BuildingBlock: QUQFOY_clean_sbu_1, # of connection points: 4
#     Node 34, Type 0, BuildingBlock: QUQFOY_clean_sbu_1, # of connection points: 4
#     Node 35, Type 0, BuildingBlock: QUQFOY_clean_sbu_1, # of connection points: 4
#     Node 36, Type 0, BuildingBlock: QUQFOY_clean_sbu_1, # of connection points: 4
#     Node 37, Type 0, BuildingBlock: QUQFOY_clean_sbu_1, # of connection points: 4
#     Node 38, Type 0, BuildingBlock: QUQFOY_clean_sbu_1, # of connection points: 4
#     Node 39, Type 0, BuildingBlock: QUQFOY_clean_sbu_1, # of connection points: 4
#     Node 40, Type 0, BuildingBlock: QUQFOY_clean_sbu_1, # of connection points: 4
#     Node 41, Type 0, BuildingBlock: QUQFOY_clean_sbu_1, # of connection points: 4
#     Node 42, Type 0, BuildingBlock: QUQFOY_clean_sbu_1, # of connection points: 4
#     Node 43, Type 0, BuildingBlock: QUQFOY_clean_sbu_1, # of connection points: 4
#     Node 44, Type 0, BuildingBlock: QUQFOY_clean_sbu_1, # of connection points: 4
#     Node 45, Type 0, BuildingBlock: QUQFOY_clean_sbu_1, # of connection points: 4
#     Node 46, Type 0, BuildingBlock: QUQFOY_clean_sbu_1, # of connection points: 4
#     Node 47, Type 0, BuildingBlock: QUQFOY_clean_sbu_1, # of connection points: 4
#     Node 48, Type 0, BuildingBlock: QUQFOY_clean_sbu_1, # of connection points: 4
#     Node 49, Type 0, BuildingBlock: QUQFOY_clean_sbu_1, # of connection points: 4
#     Node 50, Type 0, BuildingBlock: QUQFOY_clean_sbu_1, # of connection points: 4
#     Node 51, Type 0, BuildingBlock: QUQFOY_clean_sbu_1, # of connection points: 4
#     Node 52, Type 0, BuildingBlock: QUQFOY_clean_sbu_1, # of connection points: 4
#     Node 53, Type 0, BuildingBlock: QUQFOY_clean_sbu_1, # of connection points: 4
#     Node 54, Type 0, BuildingBlock: QUQFOY_clean_sbu_1, # of connection points: 4
#     Node 55, Type 0, BuildingBlock: QUQFOY_clean_sbu_1, # of connection points: 4
#     Node 56, Type 0, BuildingBlock: QUQFOY_clean_sbu_1, # of connection points: 4
#     Node 57, Type 0, BuildingBlock: QUQFOY_clean_sbu_1, # of connection points: 4
#     Node 58, Type 0, BuildingBlock: QUQFOY_clean_sbu_1, # of connection points: 4
#     Node 59, Type 0, BuildingBlock: QUQFOY_clean_sbu_1, # of connection points: 4
#     Node 60, Type 0, BuildingBlock: QUQFOY_clean_sbu_1, # of connection points: 4
#     Node 61, Type 0, BuildingBlock: QUQFOY_clean_sbu_1, # of connection points: 4
#     Node 62, Type 0, BuildingBlock: QUQFOY_clean_sbu_1, # of connection points: 4
#     Node 63, Type 0, BuildingBlock: QUQFOY_clean_sbu_1, # of connection points: 4
#     Node 64, Type 0, BuildingBlock: QUQFOY_clean_sbu_1, # of connection points: 4
#     Node 65, Type 0, BuildingBlock: QUQFOY_clean_sbu_1, # of connection points: 4
#     Node 66, Type 0, BuildingBlock: QUQFOY_clean_sbu_1, # of connection points: 4
#     Node 67, Type 0, BuildingBlock: QUQFOY_clean_sbu_1, # of connection points: 4
#     Node 68, Type 0, BuildingBlock: QUQFOY_clean_sbu_1, # of connection points: 4
#     Node 69, Type 0, BuildingBlock: QUQFOY_clean_sbu_1, # of connection points: 4
#     Node 70, Type 0, BuildingBlock: QUQFOY_clean_sbu_1, # of connection points: 4
#     Node 71, Type 0, BuildingBlock: QUQFOY_clean_sbu_1, # of connection points: 4
#     Node 72, Type 0, BuildingBlock: QUQFOY_clean_sbu_1, # of connection points: 4
#     Node 73, Type 0, BuildingBlock: QUQFOY_clean_sbu_1, # of connection points: 4
#     Node 74, Type 0, BuildingBlock: QUQFOY_clean_sbu_1, # of connection points: 4
#     Node 75, Type 0, BuildingBlock: QUQFOY_clean_sbu_1, # of connection points: 4
#     Node 76, Type 0, BuildingBlock: QUQFOY_clean_sbu_1, # of connection points: 4
#     Node 77, Type 0, BuildingBlock: QUQFOY_clean_sbu_1, # of connection points: 4
#     Node 78, Type 0, BuildingBlock: QUQFOY_clean_sbu_1, # of connection points: 4
#     Node 79, Type 0, BuildingBlock: QUQFOY_clean_sbu_1, # of connection points: 4
#     Node 80, Type 0, BuildingBlock: QUQFOY_clean_sbu_1, # of connection points: 4
#     Node 81, Type 0, BuildingBlock: QUQFOY_clean_sbu_1, # of connection points: 4
#     Node 82, Type 0, BuildingBlock: QUQFOY_clean_sbu_1, # of connection points: 4
#     Node 83, Type 0, BuildingBlock: QUQFOY_clean_sbu_1, # of connection points: 4
#     Node 84, Type 0, BuildingBlock: QUQFOY_clean_sbu_1, # of connection points: 4
#     Node 85, Type 0, BuildingBlock: QUQFOY_clean_sbu_1, # of connection points: 4
#     Node 86, Type 0, BuildingBlock: QUQFOY_clean_sbu_1, # of connection points: 4
#     Node 87, Type 0, BuildingBlock: QUQFOY_clean_sbu_1, # of connection points: 4
#     Node 88, Type 0, BuildingBlock: QUQFOY_clean_sbu_1, # of connection points: 4
#     Node 89, Type 0, BuildingBlock: QUQFOY_clean_sbu_1, # of connection points: 4
#     Node 90, Type 0, BuildingBlock: QUQFOY_clean_sbu_1, # of connection points: 4
#     Node 91, Type 0, BuildingBlock: QUQFOY_clean_sbu_1, # of connection points: 4
#     Node 92, Type 0, BuildingBlock: QUQFOY_clean_sbu_1, # of connection points: 4
#     Node 93, Type 0, BuildingBlock: QUQFOY_clean_sbu_1, # of connection points: 4
#     Node 94, Type 0, BuildingBlock: QUQFOY_clean_sbu_1, # of connection points: 4
#     Node 95, Type 0, BuildingBlock: QUQFOY_clean_sbu_1, # of connection points: 4
#     Edge 96, Type (0, 0), BuildingBlock: OJICUG_clean_linker_0, # of connection points: 2
#     Edge 97, Type (0, 0), BuildingBlock: OJICUG_clean_linker_0, # of connection points: 2
#     Edge 98, Type (0, 0), BuildingBlock: OJICUG_clean_linker_0, # of connection points: 2
#     Edge 99, Type (0, 0), BuildingBlock: OJICUG_clean_linker_0, # of connection points: 2
#     Edge 100, Type (0, 0), BuildingBlock: OJICUG_clean_linker_0, # of connection points: 2
#     Edge 101, Type (0, 0), BuildingBlock: OJICUG_clean_linker_0, # of connection points: 2
#     Edge 102, Type (0, 0), BuildingBlock: OJICUG_clean_linker_0, # of connection points: 2
#     Edge 103, Type (0, 0), BuildingBlock: OJICUG_clean_linker_0, # of connection points: 2
#     Edge 104, Type (0, 0), BuildingBlock: OJICUG_clean_linker_0, # of connection points: 2
#     Edge 105, Type (0, 0), BuildingBlock: OJICUG_clean_linker_0, # of connection points: 2
#     Edge 106, Type (0, 0), BuildingBlock: OJICUG_clean_linker_0, # of connection points: 2
#     Edge 107, Type (0, 0), BuildingBlock: OJICUG_clean_linker_0, # of connection points: 2
#     Edge 108, Type (0, 0), BuildingBlock: OJICUG_clean_linker_0, # of connection points: 2
#     Edge 109, Type (0, 0), BuildingBlock: OJICUG_clean_linker_0, # of connection points: 2
#     Edge 110, Type (0, 0), BuildingBlock: OJICUG_clean_linker_0, # of connection points: 2
#     Edge 111, Type (0, 0), BuildingBlock: OJICUG_clean_linker_0, # of connection points: 2
#     Edge 112, Type (0, 0), BuildingBlock: OJICUG_clean_linker_0, # of connection points: 2
#     Edge 113, Type (0, 0), BuildingBlock: OJICUG_clean_linker_0, # of connection points: 2
#     Edge 114, Type (0, 0), BuildingBlock: OJICUG_clean_linker_0, # of connection points: 2
#     Edge 115, Type (0, 0), BuildingBlock: OJICUG_clean_linker_0, # of connection points: 2
#     Edge 116, Type (0, 0), BuildingBlock: OJICUG_clean_linker_0, # of connection points: 2
#     Edge 117, Type (0, 0), BuildingBlock: OJICUG_clean_linker_0, # of connection points: 2
#     Edge 118, Type (0, 0), BuildingBlock: OJICUG_clean_linker_0, # of connection points: 2
#     Edge 119, Type (0, 0), BuildingBlock: OJICUG_clean_linker_0, # of connection points: 2
#     Edge 120, Type (0, 0), BuildingBlock: OJICUG_clean_linker_0, # of connection points: 2
#     Edge 121, Type (0, 0), BuildingBlock: OJICUG_clean_linker_0, # of connection points: 2
#     Edge 122, Type (0, 0), BuildingBlock: OJICUG_clean_linker_0, # of connection points: 2
#     Edge 123, Type (0, 0), BuildingBlock: OJICUG_clean_linker_0, # of connection points: 2
#     Edge 124, Type (0, 0), BuildingBlock: OJICUG_clean_linker_0, # of connection points: 2
#     Edge 125, Type (0, 0), BuildingBlock: OJICUG_clean_linker_0, # of connection points: 2
#     Edge 126, Type (0, 0), BuildingBlock: OJICUG_clean_linker_0, # of connection points: 2
#     Edge 127, Type (0, 0), BuildingBlock: OJICUG_clean_linker_0, # of connection points: 2
#     Edge 128, Type (0, 0), BuildingBlock: OJICUG_clean_linker_0, # of connection points: 2
#     Edge 129, Type (0, 0), BuildingBlock: OJICUG_clean_linker_0, # of connection points: 2
#     Edge 130, Type (0, 0), BuildingBlock: OJICUG_clean_linker_0, # of connection points: 2
#     Edge 131, Type (0, 0), BuildingBlock: OJICUG_clean_linker_0, # of connection points: 2
#     Edge 132, Type (0, 0), BuildingBlock: OJICUG_clean_linker_0, # of connection points: 2
#     Edge 133, Type (0, 0), BuildingBlock: OJICUG_clean_linker_0, # of connection points: 2
#     Edge 134, Type (0, 0), BuildingBlock: OJICUG_clean_linker_0, # of connection points: 2
#     Edge 135, Type (0, 0), BuildingBlock: OJICUG_clean_linker_0, # of connection points: 2
#     Edge 136, Type (0, 0), BuildingBlock: OJICUG_clean_linker_0, # of connection points: 2
#     Edge 137, Type (0, 0), BuildingBlock: OJICUG_clean_linker_0, # of connection points: 2
#     Edge 138, Type (0, 0), BuildingBlock: OJICUG_clean_linker_0, # of connection points: 2
#     Edge 139, Type (0, 0), BuildingBlock: OJICUG_clean_linker_0, # of connection points: 2
#     Edge 140, Type (0, 0), BuildingBlock: OJICUG_clean_linker_0, # of connection points: 2
#     Edge 141, Type (0, 0), BuildingBlock: OJICUG_clean_linker_0, # of connection points: 2
#     Edge 142, Type (0, 0), BuildingBlock: OJICUG_clean_linker_0, # of connection points: 2
#     Edge 143, Type (0, 0), BuildingBlock: OJICUG_clean_linker_0, # of connection points: 2
#     Edge 144, Type (0, 0), BuildingBlock: OJICUG_clean_linker_0, # of connection points: 2
#     Edge 145, Type (0, 0), BuildingBlock: OJICUG_clean_linker_0, # of connection points: 2
#     Edge 146, Type (0, 0), BuildingBlock: OJICUG_clean_linker_0, # of connection points: 2
#     Edge 147, Type (0, 0), BuildingBlock: OJICUG_clean_linker_0, # of connection points: 2
#     Edge 148, Type (0, 0), BuildingBlock: OJICUG_clean_linker_0, # of connection points: 2
#     Edge 149, Type (0, 0), BuildingBlock: OJICUG_clean_linker_0, # of connection points: 2
#     Edge 150, Type (0, 0), BuildingBlock: OJICUG_clean_linker_0, # of connection points: 2
#     Edge 151, Type (0, 0), BuildingBlock: OJICUG_clean_linker_0, # of connection points: 2
#     Edge 152, Type (0, 0), BuildingBlock: OJICUG_clean_linker_0, # of connection points: 2
#     Edge 153, Type (0, 0), BuildingBlock: OJICUG_clean_linker_0, # of connection points: 2
#     Edge 154, Type (0, 0), BuildingBlock: OJICUG_clean_linker_0, # of connection points: 2
#     Edge 155, Type (0, 0), BuildingBlock: OJICUG_clean_linker_0, # of connection points: 2
#     Edge 156, Type (0, 0), BuildingBlock: OJICUG_clean_linker_0, # of connection points: 2
#     Edge 157, Type (0, 0), BuildingBlock: OJICUG_clean_linker_0, # of connection points: 2
#     Edge 158, Type (0, 0), BuildingBlock: OJICUG_clean_linker_0, # of connection points: 2
#     Edge 159, Type (0, 0), BuildingBlock: OJICUG_clean_linker_0, # of connection points: 2
#     Edge 160, Type (0, 0), BuildingBlock: OJICUG_clean_linker_0, # of connection points: 2
#     Edge 161, Type (0, 0), BuildingBlock: OJICUG_clean_linker_0, # of connection points: 2
#     Edge 162, Type (0, 0), BuildingBlock: OJICUG_clean_linker_0, # of connection points: 2
#     Edge 163, Type (0, 0), BuildingBlock: OJICUG_clean_linker_0, # of connection points: 2
#     Edge 164, Type (0, 0), BuildingBlock: OJICUG_clean_linker_0, # of connection points: 2
#     Edge 165, Type (0, 0), BuildingBlock: OJICUG_clean_linker_0, # of connection points: 2
#     Edge 166, Type (0, 0), BuildingBlock: OJICUG_clean_linker_0, # of connection points: 2
#     Edge 167, Type (0, 0), BuildingBlock: OJICUG_clean_linker_0, # of connection points: 2
#     Edge 168, Type (0, 0), BuildingBlock: OJICUG_clean_linker_0, # of connection points: 2
#     Edge 169, Type (0, 0), BuildingBlock: OJICUG_clean_linker_0, # of connection points: 2
#     Edge 170, Type (0, 0), BuildingBlock: OJICUG_clean_linker_0, # of connection points: 2
#     Edge 171, Type (0, 0), BuildingBlock: OJICUG_clean_linker_0, # of connection points: 2
#     Edge 172, Type (0, 0), BuildingBlock: OJICUG_clean_linker_0, # of connection points: 2
#     Edge 173, Type (0, 0), BuildingBlock: OJICUG_clean_linker_0, # of connection points: 2
#     Edge 174, Type (0, 0), BuildingBlock: OJICUG_clean_linker_0, # of connection points: 2
#     Edge 175, Type (0, 0), BuildingBlock: OJICUG_clean_linker_0, # of connection points: 2
#     Edge 176, Type (0, 0), BuildingBlock: OJICUG_clean_linker_0, # of connection points: 2
#     Edge 177, Type (0, 0), BuildingBlock: OJICUG_clean_linker_0, # of connection points: 2
#     Edge 178, Type (0, 0), BuildingBlock: OJICUG_clean_linker_0, # of connection points: 2
#     Edge 179, Type (0, 0), BuildingBlock: OJICUG_clean_linker_0, # of connection points: 2
#     Edge 180, Type (0, 0), BuildingBlock: OJICUG_clean_linker_0, # of connection points: 2
#     Edge 181, Type (0, 0), BuildingBlock: OJICUG_clean_linker_0, # of connection points: 2
#     Edge 182, Type (0, 0), BuildingBlock: OJICUG_clean_linker_0, # of connection points: 2
#     Edge 183, Type (0, 0), BuildingBlock: OJICUG_clean_linker_0, # of connection points: 2
#     Edge 184, Type (0, 0), BuildingBlock: OJICUG_clean_linker_0, # of connection points: 2
#     Edge 185, Type (0, 0), BuildingBlock: OJICUG_clean_linker_0, # of connection points: 2
#     Edge 186, Type (0, 0), BuildingBlock: OJICUG_clean_linker_0, # of connection points: 2
#     Edge 187, Type (0, 0), BuildingBlock: OJICUG_clean_linker_0, # of connection points: 2
#     Edge 188, Type (0, 0), BuildingBlock: OJICUG_clean_linker_0, # of connection points: 2
#     Edge 189, Type (0, 0), BuildingBlock: OJICUG_clean_linker_0, # of connection points: 2
#     Edge 190, Type (0, 0), BuildingBlock: OJICUG_clean_linker_0, # of connection points: 2
#     Edge 191, Type (0, 0), BuildingBlock: OJICUG_clean_linker_0, # of connection points: 2
#     Edge 192, Type (0, 0), BuildingBlock: OJICUG_clean_linker_0, # of connection points: 2
#     Edge 193, Type (0, 0), BuildingBlock: OJICUG_clean_linker_0, # of connection points: 2
#     Edge 194, Type (0, 0), BuildingBlock: OJICUG_clean_linker_0, # of connection points: 2
#     Edge 195, Type (0, 0), BuildingBlock: OJICUG_clean_linker_0, # of connection points: 2
#     Edge 196, Type (0, 0), BuildingBlock: OJICUG_clean_linker_0, # of connection points: 2
#     Edge 197, Type (0, 0), BuildingBlock: OJICUG_clean_linker_0, # of connection points: 2
#     Edge 198, Type (0, 0), BuildingBlock: OJICUG_clean_linker_0, # of connection points: 2
#     Edge 199, Type (0, 0), BuildingBlock: OJICUG_clean_linker_0, # of connection points: 2
#     Edge 200, Type (0, 0), BuildingBlock: OJICUG_clean_linker_0, # of connection points: 2
#     Edge 201, Type (0, 0), BuildingBlock: OJICUG_clean_linker_0, # of connection points: 2
#     Edge 202, Type (0, 0), BuildingBlock: OJICUG_clean_linker_0, # of connection points: 2
#     Edge 203, Type (0, 0), BuildingBlock: OJICUG_clean_linker_0, # of connection points: 2
#     Edge 204, Type (0, 0), BuildingBlock: OJICUG_clean_linker_0, # of connection points: 2
#     Edge 205, Type (0, 0), BuildingBlock: OJICUG_clean_linker_0, # of connection points: 2
#     Edge 206, Type (0, 0), BuildingBlock: OJICUG_clean_linker_0, # of connection points: 2
#     Edge 207, Type (0, 0), BuildingBlock: OJICUG_clean_linker_0, # of connection points: 2
#     Edge 208, Type (0, 0), BuildingBlock: OJICUG_clean_linker_0, # of connection points: 2
#     Edge 209, Type (0, 0), BuildingBlock: OJICUG_clean_linker_0, # of connection points: 2
#     Edge 210, Type (0, 0), BuildingBlock: OJICUG_clean_linker_0, # of connection points: 2
#     Edge 211, Type (0, 0), BuildingBlock: OJICUG_clean_linker_0, # of connection points: 2
#     Edge 212, Type (0, 0), BuildingBlock: OJICUG_clean_linker_0, # of connection points: 2
#     Edge 213, Type (0, 0), BuildingBlock: OJICUG_clean_linker_0, # of connection points: 2
#     Edge 214, Type (0, 0), BuildingBlock: OJICUG_clean_linker_0, # of connection points: 2
#     Edge 215, Type (0, 0), BuildingBlock: OJICUG_clean_linker_0, # of connection points: 2
#     Edge 216, Type (0, 0), BuildingBlock: OJICUG_clean_linker_0, # of connection points: 2
#     Edge 217, Type (0, 0), BuildingBlock: OJICUG_clean_linker_0, # of connection points: 2
#     Edge 218, Type (0, 0), BuildingBlock: OJICUG_clean_linker_0, # of connection points: 2
#     Edge 219, Type (0, 0), BuildingBlock: OJICUG_clean_linker_0, # of connection points: 2
#     Edge 220, Type (0, 0), BuildingBlock: OJICUG_clean_linker_0, # of connection points: 2
#     Edge 221, Type (0, 0), BuildingBlock: OJICUG_clean_linker_0, # of connection points: 2
#     Edge 222, Type (0, 0), BuildingBlock: OJICUG_clean_linker_0, # of connection points: 2
#     Edge 223, Type (0, 0), BuildingBlock: OJICUG_clean_linker_0, # of connection points: 2
#     Edge 224, Type (0, 0), BuildingBlock: OJICUG_clean_linker_0, # of connection points: 2
#     Edge 225, Type (0, 0), BuildingBlock: OJICUG_clean_linker_0, # of connection points: 2
#     Edge 226, Type (0, 0), BuildingBlock: OJICUG_clean_linker_0, # of connection points: 2
#     Edge 227, Type (0, 0), BuildingBlock: OJICUG_clean_linker_0, # of connection points: 2
#     Edge 228, Type (0, 0), BuildingBlock: OJICUG_clean_linker_0, # of connection points: 2
#     Edge 229, Type (0, 0), BuildingBlock: OJICUG_clean_linker_0, # of connection points: 2
#     Edge 230, Type (0, 0), BuildingBlock: OJICUG_clean_linker_0, # of connection points: 2
#     Edge 231, Type (0, 0), BuildingBlock: OJICUG_clean_linker_0, # of connection points: 2
#     Edge 232, Type (0, 0), BuildingBlock: OJICUG_clean_linker_0, # of connection points: 2
#     Edge 233, Type (0, 0), BuildingBlock: OJICUG_clean_linker_0, # of connection points: 2
#     Edge 234, Type (0, 0), BuildingBlock: OJICUG_clean_linker_0, # of connection points: 2
#     Edge 235, Type (0, 0), BuildingBlock: OJICUG_clean_linker_0, # of connection points: 2
#     Edge 236, Type (0, 0), BuildingBlock: OJICUG_clean_linker_0, # of connection points: 2
#     Edge 237, Type (0, 0), BuildingBlock: OJICUG_clean_linker_0, # of connection points: 2
#     Edge 238, Type (0, 0), BuildingBlock: OJICUG_clean_linker_0, # of connection points: 2
#     Edge 239, Type (0, 0), BuildingBlock: OJICUG_clean_linker_0, # of connection points: 2
#     Edge 240, Type (0, 0), BuildingBlock: OJICUG_clean_linker_0, # of connection points: 2
#     Edge 241, Type (0, 0), BuildingBlock: OJICUG_clean_linker_0, # of connection points: 2
#     Edge 242, Type (0, 0), BuildingBlock: OJICUG_clean_linker_0, # of connection points: 2
#     Edge 243, Type (0, 0), BuildingBlock: OJICUG_clean_linker_0, # of connection points: 2
#     Edge 244, Type (0, 0), BuildingBlock: OJICUG_clean_linker_0, # of connection points: 2
#     Edge 245, Type (0, 0), BuildingBlock: OJICUG_clean_linker_0, # of connection points: 2
#     Edge 246, Type (0, 0), BuildingBlock: OJICUG_clean_linker_0, # of connection points: 2
#     Edge 247, Type (0, 0), BuildingBlock: OJICUG_clean_linker_0, # of connection points: 2
#     Edge 248, Type (0, 0), BuildingBlock: OJICUG_clean_linker_0, # of connection points: 2
#     Edge 249, Type (0, 0), BuildingBlock: OJICUG_clean_linker_0, # of connection points: 2
#     Edge 250, Type (0, 0), BuildingBlock: OJICUG_clean_linker_0, # of connection points: 2
#     Edge 251, Type (0, 0), BuildingBlock: OJICUG_clean_linker_0, # of connection points: 2
#     Edge 252, Type (0, 0), BuildingBlock: OJICUG_clean_linker_0, # of connection points: 2
#     Edge 253, Type (0, 0), BuildingBlock: OJICUG_clean_linker_0, # of connection points: 2
#     Edge 254, Type (0, 0), BuildingBlock: OJICUG_clean_linker_0, # of connection points: 2
#     Edge 255, Type (0, 0), BuildingBlock: OJICUG_clean_linker_0, # of connection points: 2
#     Edge 256, Type (0, 0), BuildingBlock: OJICUG_clean_linker_0, # of connection points: 2
#     Edge 257, Type (0, 0), BuildingBlock: OJICUG_clean_linker_0, # of connection points: 2
#     Edge 258, Type (0, 0), BuildingBlock: OJICUG_clean_linker_0, # of connection points: 2
#     Edge 259, Type (0, 0), BuildingBlock: OJICUG_clean_linker_0, # of connection points: 2
#     Edge 260, Type (0, 0), BuildingBlock: OJICUG_clean_linker_0, # of connection points: 2
#     Edge 261, Type (0, 0), BuildingBlock: OJICUG_clean_linker_0, # of connection points: 2
#     Edge 262, Type (0, 0), BuildingBlock: OJICUG_clean_linker_0, # of connection points: 2
#     Edge 263, Type (0, 0), BuildingBlock: OJICUG_clean_linker_0, # of connection points: 2
#     Edge 264, Type (0, 0), BuildingBlock: OJICUG_clean_linker_0, # of connection points: 2
#     Edge 265, Type (0, 0), BuildingBlock: OJICUG_clean_linker_0, # of connection points: 2
#     Edge 266, Type (0, 0), BuildingBlock: OJICUG_clean_linker_0, # of connection points: 2
#     Edge 267, Type (0, 0), BuildingBlock: OJICUG_clean_linker_0, # of connection points: 2
#     Edge 268, Type (0, 0), BuildingBlock: OJICUG_clean_linker_0, # of connection points: 2
#     Edge 269, Type (0, 0), BuildingBlock: OJICUG_clean_linker_0, # of connection points: 2
#     Edge 270, Type (0, 0), BuildingBlock: OJICUG_clean_linker_0, # of connection points: 2
#     Edge 271, Type (0, 0), BuildingBlock: OJICUG_clean_linker_0, # of connection points: 2
#     Edge 272, Type (0, 0), BuildingBlock: OJICUG_clean_linker_0, # of connection points: 2
#     Edge 273, Type (0, 0), BuildingBlock: OJICUG_clean_linker_0, # of connection points: 2
#     Edge 274, Type (0, 0), BuildingBlock: OJICUG_clean_linker_0, # of connection points: 2
#     Edge 275, Type (0, 0), BuildingBlock: OJICUG_clean_linker_0, # of connection points: 2
#     Edge 276, Type (0, 0), BuildingBlock: OJICUG_clean_linker_0, # of connection points: 2
#     Edge 277, Type (0, 0), BuildingBlock: OJICUG_clean_linker_0, # of connection points: 2
#     Edge 278, Type (0, 0), BuildingBlock: OJICUG_clean_linker_0, # of connection points: 2
#     Edge 279, Type (0, 0), BuildingBlock: OJICUG_clean_linker_0, # of connection points: 2
#     Edge 280, Type (0, 0), BuildingBlock: OJICUG_clean_linker_0, # of connection points: 2
#     Edge 281, Type (0, 0), BuildingBlock: OJICUG_clean_linker_0, # of connection points: 2
#     Edge 282, Type (0, 0), BuildingBlock: OJICUG_clean_linker_0, # of connection points: 2
#     Edge 283, Type (0, 0), BuildingBlock: OJICUG_clean_linker_0, # of connection points: 2
#     Edge 284, Type (0, 0), BuildingBlock: OJICUG_clean_linker_0, # of connection points: 2
#     Edge 285, Type (0, 0), BuildingBlock: OJICUG_clean_linker_0, # of connection points: 2
#     Edge 286, Type (0, 0), BuildingBlock: OJICUG_clean_linker_0, # of connection points: 2
#     Edge 287, Type (0, 0), BuildingBlock: OJICUG_clean_linker_0, # of connection points: 2
# Relax obj value: 0.107
# Max RMSD: 0.145
# Mean RMSD: 0.145
data_MOF--net-kfi--node1-QUQFOY_clean_sbu_1--edge1-OJICUG_clean_linker_0
_symmetry_space_group_name_H-M    P1
_symmetry_Int_Tables_number       1
_symmetry_cell_setting            triclinic
loop_
_symmetry_equiv_pos_as_xyz
'x, y, z'
_cell_length_a     70.710798
_cell_length_b     70.706752
_cell_length_c     70.69614
_cell_angle_alpha  89.999579
_cell_angle_beta   89.9952
_cell_angle_gamma 89.999047
loop_
_atom_site_label
_atom_site_type_symbol
_atom_site_fract_x
_atom_site_fract_y
_atom_site_fract_z
_atom_type_partial_charge
O0 O 0.11324 0.21959 0.329 0.0
Cd1 Cd 0.10046 0.20226 0.30927 0.0
Cd2 Cd 0.06884 0.21755 0.32767 0.0
O3 O 0.08876 0.22576 0.34728 0.0
O4 O 0.12299 0.19065 0.29718 0.0
O5 O 0.10196 0.17375 0.31281 0.0
C6 C 0.11761 0.17446 0.30344 0.0
C7 C 0.0386 0.20946 0.33834 0.0
C8 C 0.10635 0.22692 0.34389 0.0
C9 C 0.07639 0.22867 0.28706 0.0
O10 O 0.06815 0.23249 0.30257 0.0
O11 O 0.08848 0.21543 0.28626 0.0
O12 O 0.04521 0.22632 0.33995 0.0
O13 O 0.04951 0.19666 0.33125 0.0
O14 O 0.77773 0.11324 0.32824 0.0
Cd15 Cd 0.79518 0.10024 0.30874 0.0
Cd16 Cd 0.78032 0.06894 0.32749 0.0
O17 O 0.77216 0.08898 0.34699 0.0
O18 O 0.80688 0.12259 0.29644 0.0
O19 O 0.82364 0.10176 0.31248 0.0
C20 C 0.82302 0.11729 0.30292 0.0
C21 C 0.78899 0.03895 0.33835 0.0
C22 C 0.77069 0.1065 0.34334 0.0
C23 C 0.76891 0.07577 0.28691 0.0
O24 O 0.7651 0.06783 0.30257 0.0
O25 O 0.78217 0.08783 0.28588 0.0
O26 O 0.77206 0.04534 0.34015 0.0
O27 O 0.80154 0.04996 0.33095 0.0
O28 O 0.88496 0.77831 0.32703 0.0
Cd29 Cd 0.8979 0.79576 0.3075 0.0
Cd30 Cd 0.92924 0.78123 0.32629 0.0
O31 O 0.90924 0.77311 0.34585 0.0
O32 O 0.87556 0.8076 0.29531 0.0
O33 O 0.89651 0.8242 0.31137 0.0
C34 C 0.88094 0.82368 0.30187 0.0
C35 C 0.95924 0.7899 0.33713 0.0
C36 C 0.89175 0.77145 0.34219 0.0
C37 C 0.9224 0.7695 0.28578 0.0
O38 O 0.93037 0.76586 0.30146 0.0
O39 O 0.91029 0.78271 0.28465 0.0
O40 O 0.95282 0.77299 0.33899 0.0
O41 O 0.94826 0.80243 0.32967 0.0
O42 O 0.2205 0.88492 0.3278 0.0
Cd43 Cd 0.20313 0.89799 0.30828 0.0
Cd44 Cd 0.21803 0.92926 0.32709 0.0
O45 O 0.22615 0.90916 0.34654 0.0
O46 O 0.19129 0.8757 0.29598 0.0
O47 O 0.17466 0.89665 0.31202 0.0
C48 C 0.17519 0.88111 0.30246 0.0
C49 C 0.20957 0.95929 0.33804 0.0
C50 C 0.22757 0.89164 0.34289 0.0
C51 C 0.22948 0.92241 0.2865 0.0
O52 O 0.23324 0.93037 0.30217 0.0
O53 O 0.21623 0.91034 0.28545 0.0
O54 O 0.22646 0.95278 0.33978 0.0
O55 O 0.19694 0.94838 0.33065 0.0
O56 O 0.11353 0.77848 0.67158 0.0
Cd57 Cd 0.10063 0.79591 0.69116 0.0
Cd58 Cd 0.06925 0.78157 0.67244 0.0
O59 O 0.08917 0.77336 0.65285 0.0
O60 O 0.12298 0.80773 0.70335 0.0
O61 O 0.102 0.82436 0.68735 0.0
C62 C 0.11759 0.82383 0.69685 0.0
C63 C 0.03932 0.79044 0.66157 0.0
C64 C 0.10667 0.77164 0.65644 0.0
C65 C 0.07607 0.76972 0.7129 0.0
O66 O 0.06803 0.76615 0.69723 0.0
O67 O 0.08826 0.78286 0.714 0.0
O68 O 0.04565 0.77349 0.6597 0.0
O69 O 0.05035 0.80289 0.66909 0.0
O70 O 0.22051 0.1135 0.67069 0.0
Cd71 Cd 0.20322 0.10047 0.69031 0.0
Cd72 Cd 0.21784 0.0692 0.67139 0.0
O73 O 0.22587 0.08926 0.65186 0.0
O74 O 0.19144 0.12276 0.70268 0.0
O75 O 0.17473 0.10182 0.68674 0.0
C76 C 0.1753 0.11735 0.6963 0.0
C77 C 0.20917 0.03919 0.66058 0.0
C78 C 0.22743 0.10676 0.65553 0.0
C79 C 0.22969 0.07601 0.71186 0.0
O80 O 0.2333 0.06807 0.69615 0.0
O81 O 0.21646 0.08808 0.71305 0.0
O82 O 0.22606 0.04564 0.65864 0.0
O83 O 0.19665 0.05016 0.66808 0.0
O84 O 0.88525 0.21984 0.67079 0.0
Cd85 Cd 0.89817 0.20244 0.69037 0.0
Cd86 Cd 0.9295 0.21715 0.67166 0.0
O87 O 0.90954 0.22521 0.65203 0.0
O88 O 0.87578 0.19074 0.70261 0.0
O89 O 0.89668 0.17397 0.68668 0.0
C90 C 0.88111 0.1746 0.69618 0.0
C91 C 0.95956 0.20844 0.661 0.0
C92 C 0.89203 0.22678 0.65567 0.0
C93 C 0.92249 0.22883 0.71214 0.0
O94 O 0.93048 0.23254 0.69648 0.0
O95 O 0.91048 0.21554 0.71323 0.0
O96 O 0.95314 0.22535 0.65906 0.0
O97 O 0.94853 0.19593 0.66842 0.0
O98 O 0.77863 0.88513 0.67123 0.0
Cd99 Cd 0.79595 0.89815 0.69082 0.0
Cd100 Cd 0.78126 0.92944 0.67197 0.0
O101 O 0.77325 0.90939 0.65242 0.0
O102 O 0.80776 0.87584 0.70311 0.0
O103 O 0.82442 0.89682 0.68713 0.0
C104 C 0.82387 0.88125 0.69665 0.0
C105 C 0.78975 0.95949 0.6611 0.0
C106 C 0.77171 0.89188 0.65608 0.0
C107 C 0.76951 0.92255 0.71247 0.0
O108 O 0.76587 0.93052 0.69679 0.0
O109 O 0.78276 0.91048 0.71362 0.0
O110 O 0.77288 0.95297 0.65925 0.0
O111 O 0.80235 0.94858 0.66856 0.0
O112 O 0.32784 0.11344 0.22019 0.0
Cd113 Cd 0.30834 0.1005 0.20272 0.0
Cd114 Cd 0.32719 0.06914 0.21742 0.0
O115 O 0.34669 0.08921 0.22552 0.0
O116 O 0.29613 0.12288 0.19095 0.0
O117 O 0.31218 0.10199 0.17427 0.0
C118 C 0.30269 0.11757 0.17484 0.0
C119 C 0.33806 0.03908 0.20894 0.0
C120 C 0.34299 0.1067 0.22712 0.0
C121 C 0.28662 0.07602 0.22902 0.0
O122 O 0.30231 0.06807 0.23271 0.0
O123 O 0.2855 0.08809 0.21577 0.0
O124 O 0.33985 0.04559 0.22582 0.0
O125 O 0.33066 0.05001 0.19632 0.0
O126 O 0.88493 0.3277 0.2199 0.0
Cd127 Cd 0.89779 0.30814 0.20243 0.0
Cd128 Cd 0.92925 0.32674 0.21736 0.0
O129 O 0.90927 0.34636 0.22544 0.0
O130 O 0.87535 0.29608 0.19064 0.0
O131 O 0.89635 0.31199 0.17397 0.0
C132 C 0.88072 0.30258 0.17453 0.0
C133 C 0.95947 0.33739 0.20919 0.0
C134 C 0.89174 0.34277 0.22693 0.0
C135 C 0.92199 0.28618 0.22876 0.0
O136 O 0.93004 0.30179 0.23253 0.0
O137 O 0.90997 0.28518 0.21547 0.0
O138 O 0.95283 0.33916 0.22603 0.0
O139 O 0.94858 0.33017 0.19644 0.0
O140 O 0.67046 0.88489 0.22075 0.0
Cd141 Cd 0.68997 0.89784 0.20328 0.0
Cd142 Cd 0.67117 0.92917 0.21799 0.0
O143 O 0.65166 0.90914 0.22616 0.0
O144 O 0.70223 0.87546 0.19157 0.0
O145 O 0.6862 0.89631 0.17482 0.0
C146 C 0.69573 0.88075 0.17544 0.0
C147 C 0.66036 0.95917 0.20928 0.0
C148 C 0.65534 0.89164 0.22772 0.0
C149 C 0.71171 0.92235 0.22955 0.0
O150 O 0.69603 0.93029 0.23329 0.0
O151 O 0.7128 0.91028 0.21631 0.0
O152 O 0.65851 0.95278 0.2262 0.0
O153 O 0.66778 0.94815 0.19675 0.0
O154 O 0.11363 0.67096 0.22007 0.0
Cd155 Cd 0.10072 0.69049 0.2026 0.0
Cd156 Cd 0.06929 0.67179 0.21729 0.0
O157 O 0.0893 0.65227 0.2255 0.0
O158 O 0.12309 0.70268 0.1908 0.0
O159 O 0.10215 0.68666 0.17415 0.0
C160 C 0.11773 0.69616 0.1747 0.0
C161 C 0.03927 0.66086 0.20878 0.0
C162 C 0.10681 0.65588 0.22706 0.0
C163 C 0.07622 0.71235 0.2288 0.0
O164 O 0.06819 0.69671 0.2325 0.0
O165 O 0.08837 0.71338 0.21561 0.0
O166 O 0.04574 0.65914 0.22569 0.0
O167 O 0.05022 0.66823 0.19616 0.0
O168 O 0.3282 0.88469 0.77814 0.0
Cd169 Cd 0.30871 0.89769 0.7956 0.0
Cd170 Cd 0.32756 0.92906 0.78069 0.0
O171 O 0.34695 0.90893 0.77251 0.0
O172 O 0.29642 0.87536 0.80739 0.0
O173 O 0.31247 0.89624 0.82407 0.0
C174 C 0.30291 0.88071 0.8235 0.0
C175 C 0.33859 0.95913 0.78894 0.0
C176 C 0.34327 0.89141 0.77105 0.0
C177 C 0.28693 0.92221 0.76934 0.0
O178 O 0.30259 0.93017 0.76557 0.0
O179 O 0.28588 0.91011 0.78256 0.0
O180 O 0.34024 0.95253 0.77207 0.0
O181 O 0.33126 0.94828 0.80167 0.0
O182 O 0.11303 0.328 0.7785 0.0
Cd183 Cd 0.10017 0.30846 0.79599 0.0
Cd184 Cd 0.0687 0.32707 0.78105 0.0
O185 O 0.08869 0.34661 0.77287 0.0
O186 O 0.12264 0.29628 0.80762 0.0
O187 O 0.1018 0.31222 0.82446 0.0
C188 C 0.11738 0.30275 0.82377 0.0
C189 C 0.03861 0.33789 0.78944 0.0
C190 C 0.10622 0.34304 0.77142 0.0
C191 C 0.07578 0.28646 0.76978 0.0
O192 O 0.06775 0.30207 0.76595 0.0
O193 O 0.08785 0.28552 0.78304 0.0
O194 O 0.04512 0.33959 0.77254 0.0
O195 O 0.04955 0.33061 0.80211 0.0
O196 O 0.67091 0.11362 0.77891 0.0
Cd197 Cd 0.6904 0.1006 0.79633 0.0
Cd198 Cd 0.67152 0.06928 0.78153 0.0
O199 O 0.65209 0.0894 0.77343 0.0
O200 O 0.70268 0.12293 0.80811 0.0
O201 O 0.68661 0.10205 0.82479 0.0
C202 C 0.69616 0.1176 0.82422 0.0
C203 C 0.66055 0.03921 0.78985 0.0
C204 C 0.65578 0.10691 0.77191 0.0
C205 C 0.71211 0.07611 0.77002 0.0
O206 O 0.69643 0.06818 0.7663 0.0
O207 O 0.71322 0.08818 0.78327 0.0
O208 O 0.65882 0.0458 0.77298 0.0
O209 O 0.66793 0.05007 0.80253 0.0
O210 O 0.88497 0.67051 0.77788 0.0
Cd211 Cd 0.89791 0.69 0.79538 0.0
Cd212 Cd 0.92926 0.67125 0.78063 0.0
O213 O 0.90924 0.65177 0.77239 0.0
O214 O 0.87552 0.70225 0.8071 0.0
O215 O 0.89636 0.68619 0.82384 0.0
C216 C 0.8808 0.69573 0.82322 0.0
C217 C 0.95924 0.66037 0.78933 0.0
C218 C 0.89174 0.65542 0.77085 0.0
C219 C 0.92247 0.71183 0.76921 0.0
O220 O 0.93042 0.69617 0.76543 0.0
O221 O 0.91036 0.71286 0.78243 0.0
O222 O 0.95287 0.6586 0.77239 0.0
O223 O 0.94821 0.66775 0.80187 0.0
O224 O 0.22095 0.3282 0.11368 0.0
Cd225 Cd 0.20364 0.30857 0.1007 0.0
Cd226 Cd 0.21868 0.32744 0.06929 0.0
O227 O 0.22676 0.34689 0.08942 0.0
O228 O 0.19202 0.29624 0.12309 0.0
O229 O 0.17515 0.3121 0.10222 0.0
C230 C 0.17583 0.30258 0.11778 0.0
C231 C 0.21039 0.3383 0.03918 0.0
C232 C 0.22808 0.34326 0.10696 0.0
C233 C 0.23007 0.28683 0.07627 0.0
O234 O 0.23382 0.30248 0.06829 0.0
O235 O 0.21682 0.28578 0.08835 0.0
O236 O 0.22725 0.34003 0.04576 0.0
O237 O 0.19769 0.33101 0.05008 0.0
O238 O 0.22022 0.6707 0.88525 0.0
Cd239 Cd 0.20286 0.69021 0.89833 0.0
Cd240 Cd 0.21766 0.67137 0.92957 0.0
O241 O 0.22571 0.65188 0.90947 0.0
O242 O 0.19101 0.70251 0.87605 0.0
O243 O 0.1744 0.68645 0.89698 0.0
C244 C 0.17491 0.696 0.88144 0.0
C245 C 0.20912 0.66045 0.95958 0.0
C246 C 0.2272 0.65556 0.89196 0.0
C247 C 0.22924 0.71192 0.92275 0.0
O248 O 0.23297 0.69623 0.93068 0.0
O249 O 0.21597 0.71303 0.91071 0.0
O250 O 0.22601 0.65863 0.95309 0.0
O251 O 0.19654 0.66791 0.94866 0.0
O252 O 0.32794 0.22024 0.88453 0.0
Cd253 Cd 0.30848 0.20273 0.89748 0.0
Cd254 Cd 0.32725 0.21761 0.92891 0.0
O255 O 0.34666 0.22584 0.9088 0.0
O256 O 0.29633 0.19089 0.87511 0.0
O257 O 0.31239 0.17429 0.89605 0.0
C258 C 0.3029 0.17481 0.88046 0.0
C259 C 0.33826 0.20942 0.95902 0.0
C260 C 0.343 0.22734 0.89129 0.0
C261 C 0.28661 0.22894 0.92194 0.0
O262 O 0.30224 0.23266 0.92996 0.0
O263 O 0.28558 0.21574 0.90981 0.0
O264 O 0.33985 0.22629 0.95241 0.0
O265 O 0.33099 0.19667 0.94817 0.0
O266 O 0.7777 0.3281 0.88479 0.0
Cd267 Cd 0.79516 0.30866 0.89786 0.0
Cd268 Cd 0.78035 0.32759 0.92913 0.0
O269 O 0.77217 0.34696 0.90897 0.0
O270 O 0.80692 0.29628 0.87557 0.0
O271 O 0.82361 0.31243 0.89637 0.0
C272 C 0.82303 0.30281 0.88087 0.0
C273 C 0.78884 0.33864 0.95912 0.0
C274 C 0.77066 0.34322 0.89148 0.0
C275 C 0.76893 0.28697 0.92249 0.0
O276 O 0.76516 0.30267 0.93037 0.0
O277 O 0.78215 0.28587 0.9104 0.0
O278 O 0.77194 0.34036 0.95262 0.0
O279 O 0.80146 0.33123 0.94821 0.0
O280 O 0.67024 0.77819 0.88513 0.0
Cd281 Cd 0.68983 0.7956 0.89803 0.0
Cd282 Cd 0.67117 0.78058 0.9295 0.0
O283 O 0.65165 0.77243 0.90947 0.0
O284 O 0.70198 0.80735 0.87561 0.0
O285 O 0.68612 0.82407 0.8966 0.0
C286 C 0.69556 0.82348 0.88099 0.0
C287 C 0.66035 0.78878 0.95967 0.0
C288 C 0.65522 0.77106 0.89193 0.0
C289 C 0.71177 0.76923 0.92229 0.0
O290 O 0.69617 0.76548 0.93038 0.0
O291 O 0.71274 0.78248 0.91022 0.0
O292 O 0.65868 0.77192 0.95306 0.0
O293 O 0.66759 0.80152 0.94878 0.0
O294 O 0.77784 0.67003 0.11353 0.0
Cd295 Cd 0.79525 0.68956 0.10054 0.0
Cd296 Cd 0.7801 0.67092 0.06915 0.0
O297 O 0.77189 0.65146 0.08922 0.0
O298 O 0.80709 0.70174 0.1229 0.0
O299 O 0.82373 0.68582 0.10188 0.0
C300 C 0.8232 0.69531 0.11747 0.0
C301 C 0.78834 0.66007 0.03901 0.0
C302 C 0.7706 0.65504 0.10677 0.0
C303 C 0.76891 0.71155 0.0763 0.0
O304 O 0.76509 0.69595 0.06823 0.0
O305 O 0.78217 0.71249 0.08835 0.0
O306 O 0.77146 0.65843 0.04559 0.0
O307 O 0.80108 0.66728 0.04993 0.0
O308 O 0.32794 0.77803 0.11353 0.0
Cd309 Cd 0.30846 0.79547 0.1005 0.0
Cd310 Cd 0.32735 0.78073 0.06923 0.0
O311 O 0.34681 0.77261 0.08933 0.0
O312 O 0.29616 0.80726 0.12282 0.0
O313 O 0.31225 0.82393 0.10195 0.0
C314 C 0.30269 0.82337 0.11749 0.0
C315 C 0.33824 0.78929 0.03921 0.0
C316 C 0.34308 0.77105 0.10683 0.0
C317 C 0.28679 0.76915 0.076 0.0
O318 O 0.30249 0.76542 0.0681 0.0
O319 O 0.28566 0.78242 0.08805 0.0
O320 O 0.34007 0.7724 0.04568 0.0
O321 O 0.33081 0.80187 0.05016 0.0
O322 O 0.67115 0.22026 0.11375 0.0
Cd323 Cd 0.69071 0.20288 0.10075 0.0
Cd324 Cd 0.67176 0.21725 0.06946 0.0
O325 O 0.65225 0.22535 0.08952 0.0
O326 O 0.70302 0.19103 0.12303 0.0
O327 O 0.68696 0.17442 0.10208 0.0
C328 C 0.69651 0.17493 0.11763 0.0
C329 C 0.66083 0.20851 0.0395 0.0
C330 C 0.65596 0.22707 0.107 0.0
C331 C 0.71221 0.2292 0.07613 0.0
O332 O 0.69649 0.23274 0.06819 0.0
O333 O 0.71344 0.21603 0.08827 0.0
O334 O 0.65892 0.22542 0.04593 0.0
O335 O 0.66839 0.19602 0.05046 0.0
O336 O 0.88519 0.77875 0.67128 0.0
Cd337 Cd 0.89813 0.7961 0.6909 0.0
Cd338 Cd 0.92942 0.7818 0.67203 0.0
O339 O 0.90946 0.77381 0.65239 0.0
O340 O 0.87581 0.8079 0.70317 0.0
O341 O 0.89677 0.82457 0.6872 0.0
C342 C 0.88119 0.82401 0.69671 0.0
C343 C 0.95941 0.79061 0.66128 0.0
C344 C 0.89198 0.77203 0.65606 0.0
C345 C 0.92261 0.7697 0.71242 0.0
O346 O 0.93057 0.76617 0.6967 0.0
O347 O 0.91053 0.78292 0.71366 0.0
O348 O 0.953 0.77371 0.65925 0.0
O349 O 0.94842 0.80306 0.66887 0.0
O350 O 0.22009 0.88484 0.67116 0.0
Cd351 Cd 0.20283 0.89792 0.69075 0.0
Cd352 Cd 0.21752 0.92917 0.67182 0.0
O353 O 0.22548 0.90905 0.6523 0.0
O354 O 0.191 0.87566 0.70309 0.0
O355 O 0.17435 0.89661 0.68709 0.0
C356 C 0.17489 0.88106 0.69664 0.0
C357 C 0.20901 0.95919 0.66088 0.0
C358 C 0.22699 0.89155 0.65598 0.0
C359 C 0.22931 0.92234 0.71232 0.0
O360 O 0.23294 0.93028 0.69661 0.0
O361 O 0.21606 0.91029 0.7135 0.0
O362 O 0.22588 0.95265 0.65903 0.0
O363 O 0.19643 0.9483 0.6684 0.0
O364 O 0.11383 0.21978 0.67202 0.0
Cd365 Cd 0.10082 0.20233 0.6915 0.0
Cd366 Cd 0.06954 0.21671 0.67247 0.0
O367 O 0.08966 0.22476 0.653 0.0
O368 O 0.12312 0.19048 0.70377 0.0
O369 O 0.10223 0.1739 0.68759 0.0
C370 C 0.11779 0.17441 0.69713 0.0
C371 C 0.03955 0.20819 0.66146 0.0
C372 C 0.10712 0.22653 0.65678 0.0
C373 C 0.07618 0.2286 0.71299 0.0
O374 O 0.0683 0.23216 0.69724 0.0
O375 O 0.08829 0.21541 0.71426 0.0
O376 O 0.04608 0.22505 0.65961 0.0
O377 O 0.05042 0.19561 0.669 0.0
O378 O 0.77812 0.11374 0.67146 0.0
Cd379 Cd 0.7956 0.10069 0.69089 0.0
Cd380 Cd 0.78094 0.06946 0.67209 0.0
O381 O 0.77274 0.08952 0.65262 0.0
O382 O 0.80756 0.12296 0.7031 0.0
O383 O 0.82404 0.10198 0.68695 0.0
C384 C 0.8236 0.11754 0.69649 0.0
C385 C 0.78957 0.03948 0.66114 0.0
C386 C 0.77115 0.10701 0.65633 0.0
C387 C 0.76938 0.07619 0.71266 0.0
O388 O 0.76567 0.06826 0.69697 0.0
O389 O 0.7826 0.08829 0.71376 0.0
O390 O 0.77265 0.04591 0.65936 0.0
O391 O 0.80213 0.05045 0.66858 0.0
O392 O 0.884 0.22021 0.32747 0.0
Cd393 Cd 0.89701 0.20275 0.308 0.0
Cd394 Cd 0.92839 0.21757 0.32683 0.0
O395 O 0.90825 0.22573 0.34623 0.0
O396 O 0.87471 0.19079 0.29584 0.0
O397 O 0.89571 0.17431 0.31195 0.0
C398 C 0.88013 0.17475 0.30245 0.0
C399 C 0.95849 0.20944 0.33788 0.0
C400 C 0.89074 0.22724 0.34257 0.0
C401 C 0.9215 0.22893 0.28617 0.0
O402 O 0.92949 0.23264 0.30183 0.0
O403 O 0.90935 0.21575 0.28511 0.0
O404 O 0.95184 0.22629 0.33947 0.0
O405 O 0.94768 0.19666 0.3306 0.0
O406 O 0.77828 0.88462 0.32772 0.0
Cd407 Cd 0.79562 0.89773 0.30821 0.0
Cd408 Cd 0.78095 0.92894 0.32722 0.0
O409 O 0.77296 0.90878 0.34667 0.0
O410 O 0.80745 0.87549 0.29581 0.0
O411 O 0.82409 0.89637 0.31191 0.0
C412 C 0.82355 0.88086 0.3023 0.0
C413 C 0.78938 0.95896 0.33823 0.0
C414 C 0.77138 0.8913 0.34292 0.0
C415 C 0.76921 0.92226 0.28669 0.0
O416 O 0.76556 0.93013 0.30242 0.0
O417 O 0.78247 0.91021 0.28548 0.0
O418 O 0.77253 0.95239 0.34006 0.0
O419 O 0.802 0.94811 0.33072 0.0
O420 O 0.11358 0.77871 0.32723 0.0
Cd421 Cd 0.10068 0.79614 0.30766 0.0
Cd422 Cd 0.0693 0.78162 0.32644 0.0
O423 O 0.08928 0.77357 0.34604 0.0
O424 O 0.12306 0.80793 0.29548 0.0
O425 O 0.10211 0.82459 0.3115 0.0
C426 C 0.1177 0.82403 0.30202 0.0
C427 C 0.03923 0.79014 0.33724 0.0
C428 C 0.10678 0.77189 0.3424 0.0
C429 C 0.07622 0.76986 0.28594 0.0
O430 O 0.06823 0.76623 0.30162 0.0
O431 O 0.08832 0.78308 0.28481 0.0
O432 O 0.04574 0.77326 0.33911 0.0
O433 O 0.05016 0.80273 0.3298 0.0
O434 O 0.22053 0.11362 0.3276 0.0
Cd435 Cd 0.20308 0.10048 0.30822 0.0
Cd436 Cd 0.21797 0.06934 0.32709 0.0
O437 O 0.22602 0.08949 0.34652 0.0
O438 O 0.19107 0.12272 0.29601 0.0
O439 O 0.17465 0.10175 0.31222 0.0
C440 C 0.17505 0.11731 0.30268 0.0
C441 C 0.20953 0.03931 0.33805 0.0
C442 C 0.22752 0.10698 0.34276 0.0
C443 C 0.22941 0.07608 0.28647 0.0
O444 O 0.2332 0.06822 0.30218 0.0
O445 O 0.21611 0.08809 0.28535 0.0
O446 O 0.22641 0.04584 0.33982 0.0
O447 O 0.1969 0.05021 0.33064 0.0
O448 O 0.67076 0.88487 0.77833 0.0
Cd449 Cd 0.6902 0.89788 0.79583 0.0
Cd450 Cd 0.67136 0.92917 0.78103 0.0
O451 O 0.65192 0.90908 0.77286 0.0
O452 O 0.70242 0.87554 0.80765 0.0
O453 O 0.6863 0.89641 0.82428 0.0
C454 C 0.69583 0.88085 0.82373 0.0
C455 C 0.66045 0.95919 0.78956 0.0
C456 C 0.65564 0.89158 0.77132 0.0
C457 C 0.71197 0.92239 0.76959 0.0
O458 O 0.69628 0.9303 0.76583 0.0
O459 O 0.71305 0.91032 0.78284 0.0
O460 O 0.65869 0.95272 0.77266 0.0
O461 O 0.66782 0.94823 0.80217 0.0
O462 O 0.1136 0.67103 0.77879 0.0
Cd463 Cd 0.1006 0.69048 0.79629 0.0
Cd464 Cd 0.06925 0.67167 0.78154 0.0
O465 O 0.08935 0.65223 0.77338 0.0
O466 O 0.12292 0.70272 0.80812 0.0
O467 O 0.10202 0.6866 0.82473 0.0
C468 C 0.11757 0.69615 0.82421 0.0
C469 C 0.03922 0.66062 0.78985 0.0
C470 C 0.10685 0.65591 0.77181 0.0
C471 C 0.07607 0.71226 0.77008 0.0
O472 O 0.06811 0.69659 0.76635 0.0
O473 O 0.08818 0.71333 0.78329 0.0
O474 O 0.0458 0.65894 0.77298 0.0
O475 O 0.05006 0.66801 0.80255 0.0
O476 O 0.32846 0.11356 0.77786 0.0
Cd477 Cd 0.30899 0.10049 0.79528 0.0
Cd478 Cd 0.32787 0.06923 0.78035 0.0
O479 O 0.3473 0.08938 0.77227 0.0
O480 O 0.29667 0.1228 0.80705 0.0
O481 O 0.31275 0.10196 0.82374 0.0
C482 C 0.30319 0.11749 0.82317 0.0
C483 C 0.33879 0.03918 0.78876 0.0
C484 C 0.34358 0.10688 0.77082 0.0
C485 C 0.28728 0.07604 0.76892 0.0
O486 O 0.30296 0.06814 0.76513 0.0
O487 O 0.28618 0.08806 0.78222 0.0
O488 O 0.34056 0.04572 0.77188 0.0
O489 O 0.33141 0.05009 0.80141 0.0
O490 O 0.88425 0.32732 0.77815 0.0
Cd491 Cd 0.89728 0.30787 0.79562 0.0
Cd492 Cd 0.92856 0.32681 0.78102 0.0
O493 O 0.90843 0.34626 0.77295 0.0
O494 O 0.87499 0.29562 0.80752 0.0
O495 O 0.89589 0.31181 0.82405 0.0
C496 C 0.88034 0.30226 0.82357 0.0
C497 C 0.95858 0.33779 0.78947 0.0
C498 C 0.89096 0.34251 0.77129 0.0
C499 C 0.92189 0.28623 0.7694 0.0
O500 O 0.92977 0.30195 0.76572 0.0
O501 O 0.90978 0.28506 0.78261 0.0
O502 O 0.95204 0.33958 0.77259 0.0
O503 O 0.9477 0.33035 0.8021 0.0
O504 O 0.67116 0.11353 0.21997 0.0
Cd505 Cd 0.69071 0.10049 0.20263 0.0
Cd506 Cd 0.67162 0.06922 0.21716 0.0
O507 O 0.65216 0.08938 0.22509 0.0
O508 O 0.70309 0.12277 0.19087 0.0
O509 O 0.68701 0.10193 0.17416 0.0
C510 C 0.69658 0.11746 0.17474 0.0
C511 C 0.66062 0.03918 0.20878 0.0
C512 C 0.65593 0.10686 0.22676 0.0
C513 C 0.71212 0.07591 0.22906 0.0
O514 O 0.69636 0.06804 0.23264 0.0
O515 O 0.7134 0.08796 0.21582 0.0
O516 O 0.65876 0.0458 0.22561 0.0
O517 O 0.66816 0.04999 0.19614 0.0
O518 O 0.88493 0.67086 0.21984 0.0
Cd519 Cd 0.8979 0.6903 0.20232 0.0
Cd520 Cd 0.9292 0.67149 0.21705 0.0
O521 O 0.90913 0.65198 0.22513 0.0
O522 O 0.87553 0.7025 0.19054 0.0
O523 O 0.89638 0.68636 0.17389 0.0
C524 C 0.88081 0.69588 0.17445 0.0
C525 C 0.95927 0.66063 0.20861 0.0
C526 C 0.89165 0.6557 0.22675 0.0
C527 C 0.92237 0.71207 0.22856 0.0
O528 O 0.93027 0.69637 0.23232 0.0
O529 O 0.91034 0.71317 0.21528 0.0
O530 O 0.95273 0.65883 0.22549 0.0
O531 O 0.94835 0.66802 0.19598 0.0
O532 O 0.32765 0.8847 0.22015 0.0
Cd533 Cd 0.30819 0.8977 0.20267 0.0
Cd534 Cd 0.32713 0.929 0.2173 0.0
O535 O 0.34658 0.90888 0.2254 0.0
O536 O 0.29591 0.87538 0.19086 0.0
O537 O 0.31204 0.89626 0.17423 0.0
C538 C 0.30249 0.88071 0.17477 0.0
C539 C 0.33806 0.95905 0.20885 0.0
C540 C 0.34282 0.8914 0.22705 0.0
C541 C 0.28657 0.92226 0.22896 0.0
O542 O 0.30229 0.93016 0.23262 0.0
O543 O 0.28539 0.91018 0.21572 0.0
O544 O 0.33987 0.9525 0.22572 0.0
O545 O 0.33063 0.94815 0.19622 0.0
O546 O 0.11415 0.32707 0.22028 0.0
Cd547 Cd 0.10141 0.30733 0.20295 0.0
Cd548 Cd 0.06976 0.32608 0.21749 0.0
O549 O 0.08973 0.34569 0.22557 0.0
O550 O 0.12388 0.29529 0.19117 0.0
O551 O 0.10279 0.31107 0.17448 0.0
C552 C 0.11847 0.30174 0.17506 0.0
C553 C 0.0396 0.33691 0.20928 0.0
C554 C 0.10726 0.34217 0.22716 0.0
C555 C 0.07696 0.28556 0.22925 0.0
O556 O 0.0688 0.30118 0.23274 0.0
O557 O 0.0892 0.28447 0.21615 0.0
O558 O 0.04623 0.33863 0.22612 0.0
O559 O 0.05045 0.32961 0.19655 0.0
O560 O 0.77805 0.67065 0.88435 0.0
Cd561 Cd 0.79543 0.69019 0.89736 0.0
Cd562 Cd 0.78054 0.67128 0.92875 0.0
O563 O 0.77248 0.65186 0.90858 0.0
O564 O 0.80728 0.70241 0.87503 0.0
O565 O 0.82389 0.68639 0.896 0.0
C566 C 0.82337 0.69588 0.88041 0.0
C567 C 0.78861 0.66028 0.95889 0.0
C568 C 0.77103 0.65554 0.89107 0.0
C569 C 0.76911 0.71192 0.92183 0.0
O570 O 0.76541 0.69625 0.9298 0.0
O571 O 0.78232 0.71302 0.90972 0.0
O572 O 0.77179 0.65863 0.95219 0.0
O573 O 0.8014 0.66758 0.9481 0.0
O574 O 0.77794 0.32816 0.11348 0.0
Cd575 Cd 0.7954 0.30873 0.10039 0.0
Cd576 Cd 0.78043 0.32755 0.06913 0.0
O577 O 0.77224 0.34693 0.08927 0.0
O578 O 0.80721 0.29643 0.12269 0.0
O579 O 0.82385 0.31255 0.10182 0.0
C580 C 0.82331 0.30297 0.11735 0.0
C581 C 0.78886 0.33857 0.03913 0.0
C582 C 0.77082 0.34323 0.10679 0.0
C583 C 0.76912 0.28692 0.07592 0.0
O584 O 0.76529 0.30258 0.068 0.0
O585 O 0.78239 0.28588 0.08797 0.0
O586 O 0.77196 0.34025 0.04563 0.0
O587 O 0.80151 0.3312 0.05003 0.0
O588 O 0.67061 0.77798 0.11428 0.0
Cd589 Cd 0.69015 0.79539 0.1013 0.0
Cd590 Cd 0.67123 0.78066 0.06991 0.0
O591 O 0.65179 0.77257 0.09005 0.0
O592 O 0.70238 0.80722 0.12364 0.0
O593 O 0.68635 0.82384 0.10268 0.0
C594 C 0.69585 0.82332 0.11826 0.0
C595 C 0.6603 0.78887 0.03979 0.0
C596 C 0.65548 0.77103 0.10755 0.0
C597 C 0.71182 0.76909 0.07678 0.0
O598 O 0.69613 0.76545 0.06882 0.0
O599 O 0.71296 0.78229 0.08891 0.0
O600 O 0.65857 0.77203 0.04643 0.0
O601 O 0.66763 0.8016 0.05063 0.0
O602 O 0.22048 0.67089 0.11383 0.0
Cd603 Cd 0.20308 0.69031 0.10067 0.0
Cd604 Cd 0.21779 0.67132 0.06955 0.0
O605 O 0.22584 0.65191 0.08972 0.0
O606 O 0.19118 0.70268 0.12288 0.0
O607 O 0.17463 0.68648 0.102 0.0
C608 C 0.17511 0.6961 0.11751 0.0
C609 C 0.20917 0.66036 0.03958 0.0
C610 C 0.2274 0.6557 0.1072 0.0
C611 C 0.22945 0.71187 0.07613 0.0
O612 O 0.23316 0.69613 0.06831 0.0
O613 O 0.21617 0.71307 0.08816 0.0
O614 O 0.22606 0.65849 0.04605 0.0
O615 O 0.19662 0.66787 0.05051 0.0
O616 O 0.32836 0.22029 0.1136 0.0
Cd617 Cd 0.30883 0.20288 0.10061 0.0
Cd618 Cd 0.32774 0.21773 0.06926 0.0
O619 O 0.34719 0.22582 0.08938 0.0
O620 O 0.29656 0.19113 0.12297 0.0
O621 O 0.31255 0.17441 0.10207 0.0
C622 C 0.30303 0.175 0.11763 0.0
C623 C 0.33859 0.20946 0.03913 0.0
C624 C 0.34348 0.22732 0.10689 0.0
C625 C 0.28716 0.22928 0.07619 0.0
O626 O 0.30284 0.23297 0.06824 0.0
O627 O 0.28603 0.21601 0.08824 0.0
O628 O 0.34037 0.2263 0.04574 0.0
O629 O 0.33126 0.19676 0.05001 0.0
O630 O 0.22048 0.32773 0.8845 0.0
Cd631 Cd 0.20308 0.30822 0.89753 0.0
Cd632 Cd 0.2181 0.32699 0.92892 0.0
O633 O 0.22623 0.3464 0.90878 0.0
O634 O 0.19113 0.29607 0.87522 0.0
O635 O 0.17463 0.31209 0.89628 0.0
C636 C 0.17507 0.30261 0.88069 0.0
C637 C 0.21007 0.33801 0.95906 0.0
C638 C 0.2276 0.34278 0.89124 0.0
C639 C 0.22937 0.28633 0.9219 0.0
O640 O 0.23312 0.30196 0.92993 0.0
O641 O 0.21616 0.28532 0.90979 0.0
O642 O 0.2269 0.33959 0.95237 0.0
O643 O 0.19725 0.33076 0.94828 0.0
O644 O 0.6708 0.22033 0.88531 0.0
Cd645 Cd 0.69036 0.20295 0.8983 0.0
Cd646 Cd 0.67153 0.21741 0.92958 0.0
O647 O 0.65196 0.22549 0.90958 0.0
O648 O 0.70262 0.19111 0.87599 0.0
O649 O 0.6866 0.17449 0.89696 0.0
C650 C 0.69612 0.17501 0.8814 0.0
C651 C 0.66071 0.20861 0.95955 0.0
C652 C 0.65563 0.22717 0.89208 0.0
C653 C 0.71196 0.22931 0.92277 0.0
O654 O 0.69627 0.23291 0.93074 0.0
O655 O 0.71314 0.21609 0.91068 0.0
O656 O 0.65877 0.22553 0.95317 0.0
O657 O 0.66825 0.19615 0.94855 0.0
O658 O 0.32744 0.77812 0.88488 0.0
Cd659 Cd 0.30805 0.79562 0.89795 0.0
Cd660 Cd 0.32704 0.78096 0.92917 0.0
O661 O 0.34646 0.77289 0.909 0.0
O662 O 0.29575 0.80747 0.87565 0.0
O663 O 0.31198 0.82405 0.89649 0.0
C664 C 0.30241 0.82353 0.88095 0.0
C665 C 0.33805 0.78942 0.95918 0.0
C666 C 0.34265 0.77124 0.89153 0.0
C667 C 0.28646 0.76934 0.92253 0.0
O668 O 0.3022 0.76564 0.93037 0.0
O669 O 0.28526 0.7826 0.91049 0.0
O670 O 0.33985 0.77255 0.95264 0.0
O671 O 0.33058 0.80204 0.9483 0.0
O672 O 0.61337 0.71992 0.82804 0.0
Cd673 Cd 0.60047 0.70255 0.80841 0.0
Cd674 Cd 0.56903 0.71745 0.82709 0.0
O675 O 0.58903 0.72554 0.84667 0.0
O676 O 0.62288 0.69088 0.79618 0.0
O677 O 0.60195 0.67407 0.81202 0.0
C678 C 0.61753 0.67472 0.80254 0.0
C679 C 0.5389 0.70912 0.83787 0.0
C680 C 0.60656 0.72698 0.8431 0.0
C681 C 0.57617 0.72894 0.78654 0.0
O682 O 0.56811 0.73267 0.80217 0.0
O683 O 0.58823 0.71568 0.78553 0.0
O684 O 0.54546 0.72599 0.83963 0.0
O685 O 0.54981 0.69644 0.83056 0.0
O686 O 0.2779 0.61347 0.82787 0.0
Cd687 Cd 0.2953 0.60047 0.80833 0.0
Cd688 Cd 0.28057 0.5692 0.82712 0.0
O689 O 0.2725 0.58922 0.84667 0.0
O690 O 0.30705 0.62281 0.79605 0.0
O691 O 0.32376 0.60191 0.81207 0.0
C692 C 0.32317 0.61747 0.80254 0.0
C693 C 0.28927 0.53918 0.83789 0.0
C694 C 0.27096 0.60673 0.84301 0.0
C695 C 0.26895 0.57605 0.7866 0.0
O696 O 0.26523 0.56811 0.80228 0.0
O697 O 0.28222 0.5881 0.7855 0.0
O698 O 0.27236 0.54559 0.83979 0.0
O699 O 0.30179 0.55019 0.83045 0.0
O700 O 0.38479 0.27853 0.82736 0.0
Cd701 Cd 0.3978 0.29597 0.80785 0.0
Cd702 Cd 0.42915 0.28139 0.82679 0.0
O703 O 0.40903 0.27322 0.8462 0.0
O704 O 0.3755 0.30774 0.79551 0.0
O705 O 0.39635 0.32442 0.81161 0.0
C706 C 0.38083 0.32386 0.80202 0.0
C707 C 0.4591 0.28988 0.83793 0.0
C708 C 0.39154 0.2716 0.8425 0.0
C709 C 0.42247 0.26975 0.78621 0.0
O710 O 0.43043 0.26612 0.8019 0.0
O711 O 0.4103 0.2829 0.78508 0.0
O712 O 0.45259 0.27298 0.83963 0.0
O713 O 0.44824 0.30249 0.83044 0.0
O714 O 0.71963 0.38491 0.82738 0.0
Cd715 Cd 0.70213 0.39785 0.8079 0.0
Cd716 Cd 0.71676 0.4292 0.82663 0.0
O717 O 0.72486 0.40919 0.84619 0.0
O718 O 0.69023 0.3755 0.79577 0.0
O719 O 0.6737 0.39649 0.81187 0.0
C720 C 0.67418 0.3809 0.80239 0.0
C721 C 0.70837 0.4593 0.83744 0.0
C722 C 0.72652 0.3917 0.84253 0.0
C723 C 0.72836 0.42226 0.78608 0.0
O724 O 0.73205 0.43023 0.80175 0.0
O725 O 0.71513 0.41018 0.78499 0.0
O726 O 0.72523 0.45274 0.83925 0.0
O727 O 0.69572 0.4484 0.83006 0.0
O728 O 0.6137 0.27829 0.17058 0.0
Cd729 Cd 0.60058 0.2957 0.19003 0.0
Cd730 Cd 0.56943 0.28095 0.17114 0.0
O731 O 0.58954 0.27282 0.15169 0.0
O732 O 0.62283 0.30756 0.20238 0.0
O733 O 0.60194 0.32416 0.18625 0.0
C734 C 0.61745 0.32365 0.19585 0.0
C735 C 0.53944 0.28961 0.16027 0.0
C736 C 0.60703 0.27129 0.15544 0.0
C737 C 0.57613 0.26934 0.21168 0.0
O738 O 0.56825 0.26561 0.19597 0.0
O739 O 0.58815 0.28262 0.21283 0.0
O740 O 0.54588 0.27271 0.15839 0.0
O741 O 0.55042 0.30215 0.16772 0.0
O742 O 0.7196 0.6134 0.17094 0.0
Cd743 Cd 0.70224 0.60045 0.19054 0.0
Cd744 Cd 0.71671 0.56913 0.17168 0.0
O745 O 0.72472 0.58914 0.15208 0.0
O746 O 0.69049 0.62278 0.20285 0.0
O747 O 0.67377 0.60185 0.18688 0.0
C748 C 0.67436 0.61741 0.19641 0.0
C749 C 0.70803 0.53912 0.16086 0.0
C750 C 0.72641 0.60663 0.15575 0.0
C751 C 0.72865 0.57598 0.21211 0.0
O752 O 0.73222 0.56802 0.19641 0.0
O753 O 0.71542 0.58806 0.21331 0.0
O754 O 0.72492 0.54558 0.15892 0.0
O755 O 0.69552 0.55007 0.1684 0.0
O756 O 0.38492 0.72006 0.17087 0.0
Cd757 Cd 0.39791 0.70267 0.19042 0.0
Cd758 Cd 0.42921 0.7173 0.17159 0.0
O759 O 0.40918 0.72538 0.15205 0.0
O760 O 0.37557 0.69095 0.20274 0.0
O761 O 0.39644 0.6742 0.18672 0.0
C762 C 0.3809 0.67481 0.19628 0.0
C763 C 0.45922 0.70865 0.16077 0.0
C764 C 0.39168 0.72698 0.15572 0.0
C765 C 0.42239 0.729 0.21209 0.0
O766 O 0.43034 0.73268 0.1964 0.0
O767 O 0.41032 0.71576 0.21322 0.0
O768 O 0.45277 0.72555 0.15887 0.0
O769 O 0.44825 0.69611 0.16823 0.0
O770 O 0.27857 0.38518 0.17132 0.0
Cd771 Cd 0.29591 0.39813 0.19094 0.0
Cd772 Cd 0.28134 0.42947 0.17208 0.0
O773 O 0.27338 0.40945 0.15248 0.0
O774 O 0.3077 0.37577 0.20317 0.0
O775 O 0.32437 0.39674 0.18721 0.0
C776 C 0.32381 0.38114 0.19668 0.0
C777 C 0.28984 0.45955 0.16128 0.0
C778 C 0.27175 0.39195 0.15614 0.0
C779 C 0.2695 0.42254 0.21257 0.0
O780 O 0.26589 0.43051 0.19687 0.0
O781 O 0.28274 0.41048 0.21374 0.0
O782 O 0.27298 0.45301 0.15938 0.0
O783 O 0.30243 0.44864 0.16876 0.0
O784 O 0.82788 0.61346 0.71978 0.0
Cd785 Cd 0.80841 0.60058 0.70224 0.0
Cd786 Cd 0.82716 0.56916 0.71704 0.0
O787 O 0.84669 0.5892 0.72514 0.0
O788 O 0.79627 0.62301 0.6905 0.0
O789 O 0.81233 0.60214 0.6738 0.0
C790 C 0.80286 0.61773 0.6744 0.0
C791 C 0.83797 0.53902 0.70878 0.0
C792 C 0.84301 0.6067 0.72674 0.0
C793 C 0.78656 0.57613 0.72846 0.0
O794 O 0.80222 0.56818 0.73223 0.0
O795 O 0.7855 0.58819 0.7152 0.0
O796 O 0.83972 0.54563 0.72563 0.0
O797 O 0.83067 0.5499 0.69607 0.0
O798 O 0.38488 0.82749 0.71975 0.0
Cd799 Cd 0.39768 0.8079 0.70227 0.0
Cd800 Cd 0.42923 0.82662 0.71701 0.0
O801 O 0.40923 0.84616 0.72516 0.0
O802 O 0.37521 0.79575 0.69062 0.0
O803 O 0.3961 0.81164 0.6738 0.0
C804 C 0.3805 0.8022 0.67447 0.0
C805 C 0.45939 0.83746 0.70882 0.0
C806 C 0.39171 0.84257 0.72674 0.0
C807 C 0.42211 0.78605 0.72851 0.0
O808 O 0.43017 0.80167 0.73219 0.0
O809 O 0.40998 0.78501 0.71531 0.0
O810 O 0.45276 0.83916 0.72567 0.0
O811 O 0.44854 0.83018 0.69607 0.0
O812 O 0.17004 0.38518 0.72044 0.0
Cd813 Cd 0.18955 0.39811 0.70296 0.0
Cd814 Cd 0.17077 0.4295 0.71782 0.0
O815 O 0.15127 0.40943 0.72595 0.0
O816 O 0.20185 0.37569 0.69137 0.0
O817 O 0.18582 0.39644 0.6745 0.0
C818 C 0.19537 0.3809 0.6752 0.0
C819 C 0.1599 0.45955 0.70936 0.0
C820 C 0.15494 0.39193 0.72746 0.0
C821 C 0.21137 0.42262 0.7292 0.0
O822 O 0.1957 0.43055 0.73301 0.0
O823 O 0.2124 0.41056 0.71593 0.0
O824 O 0.15814 0.45306 0.72625 0.0
O825 O 0.16725 0.44861 0.69672 0.0
O826 O 0.61381 0.17098 0.72108 0.0
Cd827 Cd 0.60078 0.19047 0.70365 0.0
Cd828 Cd 0.56957 0.17147 0.71806 0.0
O829 O 0.58964 0.15198 0.72615 0.0
O830 O 0.62305 0.20282 0.69183 0.0
O831 O 0.60219 0.18668 0.6752 0.0
C832 C 0.61772 0.19627 0.67573 0.0
C833 C 0.53964 0.16062 0.70919 0.0
C834 C 0.60711 0.15576 0.72788 0.0
C835 C 0.57611 0.21195 0.72994 0.0
O836 O 0.56827 0.1962 0.73356 0.0
O837 O 0.5882 0.2132 0.71672 0.0
O838 O 0.546 0.15864 0.72611 0.0
O839 O 0.55067 0.16818 0.69675 0.0
O840 O 0.82794 0.38486 0.27801 0.0
Cd841 Cd 0.80839 0.39784 0.29541 0.0
Cd842 Cd 0.8272 0.42921 0.28053 0.0
O843 O 0.84667 0.40912 0.27241 0.0
O844 O 0.79607 0.3755 0.30713 0.0
O845 O 0.81205 0.39638 0.32389 0.0
C846 C 0.8025 0.38084 0.32328 0.0
C847 C 0.83811 0.45927 0.28892 0.0
C848 C 0.84303 0.3916 0.27096 0.0
C849 C 0.78662 0.42233 0.26909 0.0
O850 O 0.80228 0.43029 0.26532 0.0
O851 O 0.78556 0.41024 0.28233 0.0
O852 O 0.83985 0.45272 0.27204 0.0
O853 O 0.83075 0.44837 0.30158 0.0
O854 O 0.61331 0.82773 0.27871 0.0
Cd855 Cd 0.60035 0.80821 0.29615 0.0
Cd856 Cd 0.569 0.82708 0.28143 0.0
O857 O 0.58908 0.84656 0.27334 0.0
O858 O 0.62272 0.7959 0.30782 0.0
O859 O 0.60192 0.81193 0.32461 0.0
C860 C 0.61746 0.80239 0.32397 0.0
C861 C 0.53896 0.83798 0.28989 0.0
C862 C 0.60658 0.84287 0.27177 0.0
C863 C 0.57581 0.78652 0.26986 0.0
O864 O 0.56789 0.80221 0.26614 0.0
O865 O 0.58788 0.7854 0.2831 0.0
O866 O 0.54549 0.83978 0.27301 0.0
O867 O 0.54987 0.83056 0.30252 0.0
O868 O 0.17034 0.6137 0.27838 0.0
Cd869 Cd 0.18975 0.60074 0.29593 0.0
Cd870 Cd 0.17096 0.56937 0.28101 0.0
O871 O 0.15154 0.58948 0.27283 0.0
O872 O 0.20196 0.62311 0.3077 0.0
O873 O 0.18584 0.60227 0.32438 0.0
C874 C 0.19538 0.61783 0.3238 0.0
C875 C 0.16001 0.53927 0.28925 0.0
C876 C 0.15525 0.60698 0.27131 0.0
C877 C 0.21161 0.57626 0.26973 0.0
O878 O 0.19595 0.56833 0.26592 0.0
O879 O 0.21264 0.58832 0.283 0.0
O880 O 0.15835 0.54587 0.27239 0.0
O881 O 0.1673 0.55014 0.30198 0.0
O882 O 0.38496 0.17058 0.27817 0.0
Cd883 Cd 0.39787 0.19019 0.29556 0.0
Cd884 Cd 0.42934 0.17138 0.28071 0.0
O885 O 0.40927 0.1519 0.27256 0.0
O886 O 0.37545 0.20247 0.30719 0.0
O887 O 0.39631 0.18656 0.32404 0.0
C888 C 0.38074 0.19607 0.32336 0.0
C889 C 0.45941 0.16043 0.28902 0.0
C890 C 0.39174 0.15551 0.27112 0.0
C891 C 0.42239 0.21197 0.26928 0.0
O892 O 0.43041 0.19633 0.26555 0.0
O893 O 0.41026 0.21301 0.28247 0.0
O894 O 0.45285 0.15874 0.27215 0.0
O895 O 0.44853 0.16777 0.30172 0.0
O896 O 0.72091 0.82799 0.61384 0.0
Cd897 Cd 0.70354 0.80842 0.60085 0.0
Cd898 Cd 0.71825 0.82736 0.56952 0.0
O899 O 0.72631 0.84685 0.58962 0.0
O900 O 0.6918 0.79612 0.6232 0.0
O901 O 0.67507 0.8121 0.6023 0.0
C902 C 0.67567 0.80258 0.61786 0.0
C903 C 0.70977 0.83816 0.53944 0.0
C904 C 0.72786 0.84314 0.60712 0.0
C905 C 0.72991 0.78681 0.57635 0.0
O906 O 0.73358 0.80252 0.56843 0.0
O907 O 0.71668 0.78565 0.58842 0.0
O908 O 0.72664 0.84003 0.54597 0.0
O909 O 0.69716 0.83077 0.55038 0.0
O910 O 0.71972 0.17046 0.38527 0.0
Cd911 Cd 0.70226 0.19004 0.39811 0.0
Cd912 Cd 0.71717 0.17136 0.42964 0.0
O913 O 0.7253 0.15181 0.40962 0.0
O914 O 0.69067 0.20222 0.37562 0.0
O915 O 0.6738 0.18632 0.39647 0.0
C916 C 0.67451 0.19577 0.38087 0.0
C917 C 0.70894 0.16054 0.4598 0.0
C918 C 0.72677 0.1554 0.39208 0.0
C919 C 0.72851 0.21196 0.42251 0.0
O920 O 0.73228 0.19634 0.43055 0.0
O921 O 0.71528 0.21295 0.41042 0.0
O922 O 0.7258 0.15884 0.4532 0.0
O923 O 0.69621 0.1678 0.44891 0.0
O924 O 0.82821 0.72026 0.38453 0.0
Cd925 Cd 0.80875 0.70279 0.39754 0.0
Cd926 Cd 0.82761 0.7178 0.42894 0.0
O927 O 0.84696 0.72599 0.40876 0.0
O928 O 0.79648 0.69105 0.37518 0.0
O929 O 0.81254 0.67434 0.39602 0.0
C930 C 0.80299 0.67493 0.38048 0.0
C931 C 0.83869 0.70971 0.45904 0.0
C932 C 0.84328 0.72739 0.39124 0.0
C933 C 0.78692 0.72901 0.42207 0.0
O934 O 0.80257 0.7328 0.43004 0.0
O935 O 0.78589 0.7158 0.40996 0.0
O936 O 0.84026 0.72656 0.45238 0.0
O937 O 0.83143 0.69691 0.44824 0.0
O938 O 0.27826 0.8275 0.38492 0.0
Cd939 Cd 0.29562 0.80794 0.39792 0.0
Cd940 Cd 0.28099 0.82688 0.42925 0.0
O941 O 0.27303 0.8464 0.40914 0.0
O942 O 0.30742 0.79565 0.37559 0.0
O943 O 0.32408 0.81168 0.39651 0.0
C944 C 0.32352 0.80216 0.38095 0.0
C945 C 0.28934 0.83777 0.45934 0.0
C946 C 0.27141 0.84269 0.39164 0.0
C947 C 0.26922 0.78636 0.4224 0.0
O948 O 0.2656 0.80207 0.43032 0.0
O949 O 0.28247 0.78517 0.41033 0.0
O950 O 0.27251 0.83962 0.45273 0.0
O951 O 0.30199 0.83032 0.44849 0.0
O952 O 0.17004 0.27831 0.38566 0.0
Cd953 Cd 0.18957 0.29589 0.39841 0.0
Cd954 Cd 0.17098 0.28099 0.42998 0.0
O955 O 0.15139 0.27282 0.41001 0.0
O956 O 0.20166 0.3075 0.37588 0.0
O957 O 0.18578 0.32435 0.39675 0.0
C958 C 0.19521 0.32366 0.38114 0.0
C959 C 0.1602 0.28918 0.46016 0.0
C960 C 0.155 0.27126 0.39249 0.0
C961 C 0.21159 0.26969 0.42275 0.0
O962 O 0.19598 0.26589 0.43081 0.0
O963 O 0.21253 0.28296 0.41068 0.0
O964 O 0.15853 0.27232 0.45355 0.0
O965 O 0.16742 0.30193 0.44927 0.0
O966 O 0.27859 0.17053 0.61352 0.0
Cd967 Cd 0.29597 0.1901 0.60055 0.0
Cd968 Cd 0.2811 0.17138 0.56921 0.0
O969 O 0.27302 0.15182 0.58923 0.0
O970 O 0.30775 0.20233 0.62291 0.0
O971 O 0.32445 0.18641 0.60193 0.0
C972 C 0.32388 0.1959 0.61751 0.0
C973 C 0.28948 0.16064 0.53907 0.0
C974 C 0.27155 0.15545 0.60676 0.0
C975 C 0.26954 0.2119 0.57628 0.0
O976 O 0.26582 0.19625 0.56828 0.0
O977 O 0.28283 0.21296 0.58831 0.0
O978 O 0.27262 0.1588 0.54563 0.0
O979 O 0.30213 0.16798 0.54999 0.0
O980 O 0.82837 0.27799 0.61358 0.0
Cd981 Cd 0.80879 0.29537 0.60063 0.0
Cd982 Cd 0.82741 0.28034 0.56925 0.0
O983 O 0.84696 0.27219 0.58925 0.0
O984 O 0.79657 0.30711 0.62302 0.0
O985 O 0.81245 0.32386 0.60205 0.0
C986 C 0.80296 0.32325 0.61763 0.0
C987 C 0.8381 0.2888 0.53913 0.0
C988 C 0.84339 0.27084 0.6068 0.0
C989 C 0.78685 0.269 0.57637 0.0
O990 O 0.80246 0.26518 0.56833 0.0
O991 O 0.78588 0.28229 0.5884 0.0
O992 O 0.8399 0.2719 0.54562 0.0
O993 O 0.83084 0.30143 0.55012 0.0
O994 O 0.16994 0.7204 0.61379 0.0
Cd995 Cd 0.18934 0.70293 0.60068 0.0
Cd996 Cd 0.17036 0.71794 0.56945 0.0
O997 O 0.15102 0.72603 0.58968 0.0
O998 O 0.20171 0.69117 0.62298 0.0
O999 O 0.18554 0.67447 0.6022 0.0
C1000 C 0.19515 0.67505 0.6177 0.0
C1001 C 0.15939 0.70972 0.53936 0.0
C1002 C 0.15481 0.72748 0.60717 0.0
C1003 C 0.21102 0.72927 0.57618 0.0
O1004 O 0.19531 0.7331 0.56835 0.0
O1005 O 0.21214 0.71595 0.58817 0.0
O1006 O 0.15767 0.72657 0.54599 0.0
O1007 O 0.16672 0.697 0.5502 0.0
O1008 O 0.38509 0.27852 0.17091 0.0
Cd1009 Cd 0.39801 0.29589 0.19052 0.0
Cd1010 Cd 0.42944 0.2813 0.17169 0.0
O1011 O 0.40941 0.27315 0.15218 0.0
O1012 O 0.37565 0.30764 0.20278 0.0
O1013 O 0.3966 0.32436 0.18686 0.0
C1014 C 0.38102 0.32377 0.19637 0.0
C1015 C 0.45946 0.28977 0.16071 0.0
C1016 C 0.3919 0.27157 0.1558 0.0
C1017 C 0.42252 0.26957 0.21221 0.0
O1018 O 0.43057 0.26598 0.19655 0.0
O1019 O 0.41036 0.28273 0.21332 0.0
O1020 O 0.45295 0.27288 0.15897 0.0
O1021 O 0.44857 0.30239 0.16815 0.0
O1022 O 0.71998 0.38494 0.17103 0.0
Cd1023 Cd 0.70256 0.39794 0.19055 0.0
Cd1024 Cd 0.71698 0.42918 0.1717 0.0
O1025 O 0.72503 0.40918 0.15212 0.0
O1026 O 0.6907 0.37564 0.2028 0.0
O1027 O 0.67412 0.39659 0.18671 0.0
C1028 C 0.67462 0.38103 0.19623 0.0
C1029 C 0.70819 0.45916 0.16088 0.0
C1030 C 0.72676 0.3917 0.15582 0.0
C1031 C 0.7289 0.42242 0.21215 0.0
O1032 O 0.7325 0.43035 0.19643 0.0
O1033 O 0.71567 0.41034 0.21335 0.0
O1034 O 0.7251 0.45276 0.15893 0.0
O1035 O 0.69572 0.44816 0.16843 0.0
O1036 O 0.61341 0.72017 0.17156 0.0
Cd1037 Cd 0.60033 0.70276 0.19103 0.0
Cd1038 Cd 0.56913 0.71736 0.17212 0.0
O1039 O 0.58922 0.72545 0.15266 0.0
O1040 O 0.62257 0.69083 0.20331 0.0
O1041 O 0.60163 0.67431 0.18716 0.0
C1042 C 0.61717 0.67477 0.19673 0.0
C1043 C 0.53918 0.7087 0.16113 0.0
C1044 C 0.60671 0.72707 0.15639 0.0
C1045 C 0.57581 0.72907 0.21266 0.0
O1046 O 0.5679 0.73273 0.19694 0.0
O1047 O 0.58788 0.71584 0.21382 0.0
O1048 O 0.54562 0.72561 0.1593 0.0
O1049 O 0.55011 0.69616 0.16865 0.0
O1050 O 0.27811 0.61384 0.17145 0.0
Cd1051 Cd 0.2955 0.60083 0.19099 0.0
Cd1052 Cd 0.28096 0.56955 0.17216 0.0
O1053 O 0.27288 0.58958 0.15262 0.0
O1054 O 0.30742 0.62311 0.20321 0.0
O1055 O 0.32394 0.6021 0.18714 0.0
C1056 C 0.32348 0.61768 0.19665 0.0
C1057 C 0.28963 0.53955 0.1613 0.0
C1058 C 0.27125 0.60708 0.15628 0.0
C1059 C 0.26918 0.57636 0.21266 0.0
O1060 O 0.26556 0.56839 0.19696 0.0
O1061 O 0.28238 0.58847 0.21381 0.0
O1062 O 0.27273 0.54599 0.15942 0.0
O1063 O 0.30216 0.55052 0.16879 0.0
O1064 O 0.38442 0.72021 0.82748 0.0
Cd1065 Cd 0.39735 0.70276 0.80794 0.0
Cd1066 Cd 0.42879 0.71752 0.82665 0.0
O1067 O 0.40875 0.72574 0.84613 0.0
O1068 O 0.37499 0.69091 0.79579 0.0
O1069 O 0.39598 0.67432 0.8118 0.0
C1070 C 0.38039 0.67483 0.80232 0.0
C1071 C 0.45885 0.70917 0.83761 0.0
C1072 C 0.39123 0.72724 0.84254 0.0
C1073 C 0.42184 0.72893 0.78604 0.0
O1074 O 0.42989 0.73263 0.80167 0.0
O1075 O 0.40966 0.71577 0.78503 0.0
O1076 O 0.45231 0.72606 0.83926 0.0
O1077 O 0.44795 0.69648 0.8303 0.0
O1078 O 0.27819 0.38488 0.82704 0.0
Cd1079 Cd 0.29555 0.39797 0.80753 0.0
Cd1080 Cd 0.28103 0.42918 0.82657 0.0
O1081 O 0.27308 0.40904 0.84605 0.0
O1082 O 0.30743 0.37572 0.79519 0.0
O1083 O 0.324 0.39665 0.81133 0.0
C1084 C 0.32351 0.38111 0.80176 0.0
C1085 C 0.28954 0.45919 0.83755 0.0
C1086 C 0.27141 0.39156 0.84228 0.0
C1087 C 0.26914 0.42251 0.78606 0.0
O1088 O 0.26555 0.43038 0.80181 0.0
O1089 O 0.28238 0.41045 0.7848 0.0
O1090 O 0.27268 0.45264 0.83943 0.0
O1091 O 0.30212 0.44833 0.82999 0.0
O1092 O 0.61326 0.27822 0.82846 0.0
Cd1093 Cd 0.60011 0.29561 0.809 0.0
Cd1094 Cd 0.56902 0.28079 0.82788 0.0
O1095 O 0.58911 0.27273 0.84737 0.0
O1096 O 0.62235 0.30742 0.7966 0.0
O1097 O 0.60149 0.32408 0.81272 0.0
C1098 C 0.61699 0.32353 0.80309 0.0
C1099 C 0.53905 0.28958 0.83868 0.0
C1100 C 0.6066 0.27123 0.84361 0.0
C1101 C 0.57571 0.26916 0.78737 0.0
O1102 O 0.56787 0.26538 0.80309 0.0
O1103 O 0.58767 0.2825 0.78622 0.0
O1104 O 0.54543 0.27267 0.84063 0.0
O1105 O 0.55007 0.30206 0.83118 0.0
O1106 O 0.7203 0.61357 0.82693 0.0
Cd1107 Cd 0.70285 0.60058 0.80744 0.0
Cd1108 Cd 0.71746 0.56929 0.82622 0.0
O1109 O 0.72561 0.58932 0.84574 0.0
O1110 O 0.69093 0.6229 0.79528 0.0
O1111 O 0.67442 0.6019 0.81137 0.0
C1112 C 0.67488 0.61749 0.80188 0.0
C1113 C 0.7088 0.5393 0.83713 0.0
C1114 C 0.72722 0.60682 0.84207 0.0
C1115 C 0.72911 0.57613 0.78567 0.0
O1116 O 0.73277 0.56815 0.80135 0.0
O1117 O 0.7159 0.58824 0.78457 0.0
O1118 O 0.72572 0.54572 0.83892 0.0
O1119 O 0.69626 0.55028 0.82968 0.0
O1120 O 0.17065 0.38486 0.27818 0.0
Cd1121 Cd 0.18999 0.39791 0.29575 0.0
Cd1122 Cd 0.17112 0.42916 0.28077 0.0
O1123 O 0.15176 0.40899 0.27258 0.0
O1124 O 0.2022 0.37557 0.30761 0.0
O1125 O 0.186 0.39643 0.32418 0.0
C1126 C 0.19554 0.38087 0.32367 0.0
C1127 C 0.16011 0.4592 0.28911 0.0
C1128 C 0.15554 0.3915 0.2711 0.0
C1129 C 0.21181 0.4224 0.26954 0.0
O1130 O 0.19612 0.43027 0.26569 0.0
O1131 O 0.21287 0.41037 0.28283 0.0
O1132 O 0.15846 0.45266 0.27222 0.0
O1133 O 0.16743 0.44831 0.3018 0.0
O1134 O 0.61379 0.17073 0.27771 0.0
Cd1135 Cd 0.60075 0.19019 0.29516 0.0
Cd1136 Cd 0.56947 0.17135 0.2804 0.0
O1137 O 0.58957 0.15192 0.27224 0.0
O1138 O 0.62303 0.20242 0.30709 0.0
O1139 O 0.60205 0.18631 0.32361 0.0
C1140 C 0.61761 0.19585 0.32315 0.0
C1141 C 0.53944 0.16039 0.28886 0.0
C1142 C 0.60707 0.15561 0.2707 0.0
C1143 C 0.57624 0.21193 0.2689 0.0
O1144 O 0.56831 0.19625 0.26518 0.0
O1145 O 0.58834 0.21303 0.28212 0.0
O1146 O 0.54595 0.15864 0.27197 0.0
O1147 O 0.55036 0.16777 0.3015 0.0
O1148 O 0.82773 0.61365 0.27771 0.0
Cd1149 Cd 0.80827 0.60067 0.29519 0.0
Cd1150 Cd 0.82703 0.56932 0.28038 0.0
O1151 O 0.84649 0.58939 0.2722 0.0
O1152 O 0.79608 0.62302 0.30705 0.0
O1153 O 0.81218 0.60209 0.32364 0.0
C1154 C 0.80267 0.61767 0.32312 0.0
C1155 C 0.83798 0.53929 0.28881 0.0
C1156 C 0.84283 0.6069 0.27069 0.0
C1157 C 0.78642 0.57617 0.269 0.0
O1158 O 0.80207 0.56821 0.26522 0.0
O1159 O 0.78538 0.58827 0.28222 0.0
O1160 O 0.83968 0.54579 0.27191 0.0
O1161 O 0.83063 0.55021 0.30146 0.0
O1162 O 0.38469 0.82752 0.27821 0.0
Cd1163 Cd 0.39769 0.80802 0.29565 0.0
Cd1164 Cd 0.42901 0.82689 0.28103 0.0
O1165 O 0.40894 0.84634 0.27285 0.0
O1166 O 0.37539 0.79573 0.30747 0.0
O1167 O 0.39629 0.81181 0.32411 0.0
C1168 C 0.38075 0.80226 0.32358 0.0
C1169 C 0.45898 0.83785 0.28966 0.0
C1170 C 0.39144 0.84265 0.27126 0.0
C1171 C 0.42228 0.78634 0.2694 0.0
O1172 O 0.43023 0.80203 0.26573 0.0
O1173 O 0.41015 0.78522 0.28259 0.0
O1174 O 0.45254 0.83964 0.27275 0.0
O1175 O 0.44802 0.8304 0.30222 0.0
O1176 O 0.1706 0.6139 0.72059 0.0
Cd1177 Cd 0.18999 0.60088 0.70305 0.0
Cd1178 Cd 0.17108 0.56959 0.7177 0.0
O1179 O 0.15167 0.58972 0.72587 0.0
O1180 O 0.20222 0.62317 0.69114 0.0
O1181 O 0.186 0.60228 0.67462 0.0
C1182 C 0.19556 0.61782 0.67509 0.0
C1183 C 0.16006 0.53957 0.70927 0.0
C1184 C 0.15544 0.60719 0.72753 0.0
C1185 C 0.21167 0.57628 0.72924 0.0
O1186 O 0.19596 0.56839 0.73294 0.0
O1187 O 0.21282 0.58838 0.71602 0.0
O1188 O 0.15832 0.54611 0.72615 0.0
O1189 O 0.16747 0.55046 0.69662 0.0
O1190 O 0.38534 0.17113 0.72004 0.0
Cd1191 Cd 0.39829 0.19066 0.7026 0.0
Cd1192 Cd 0.42966 0.1719 0.71724 0.0
O1193 O 0.40963 0.15235 0.72532 0.0
O1194 O 0.37593 0.20285 0.69078 0.0
O1195 O 0.39687 0.18682 0.67414 0.0
C1196 C 0.38129 0.1963 0.67469 0.0
C1197 C 0.45969 0.16097 0.70877 0.0
C1198 C 0.39213 0.15599 0.72693 0.0
C1199 C 0.42274 0.21243 0.72887 0.0
O1200 O 0.43073 0.19676 0.73256 0.0
O1201 O 0.41065 0.21352 0.71564 0.0
O1202 O 0.45317 0.1592 0.72566 0.0
O1203 O 0.4488 0.16842 0.69616 0.0
O1204 O 0.82711 0.38463 0.72032 0.0
Cd1205 Cd 0.80771 0.39763 0.70278 0.0
Cd1206 Cd 0.82648 0.42896 0.71756 0.0
O1207 O 0.8459 0.40887 0.7258 0.0
O1208 O 0.79556 0.3753 0.69089 0.0
O1209 O 0.81173 0.39622 0.67436 0.0
C1210 C 0.80222 0.38064 0.67484 0.0
C1211 C 0.8375 0.45897 0.70912 0.0
C1212 C 0.84221 0.39136 0.72735 0.0
C1213 C 0.78584 0.42214 0.72892 0.0
O1214 O 0.8015 0.43011 0.73268 0.0
O1215 O 0.7848 0.41002 0.71571 0.0
O1216 O 0.83915 0.45248 0.72603 0.0
O1217 O 0.83016 0.44805 0.69646 0.0
O1218 O 0.6139 0.82751 0.72033 0.0
Cd1219 Cd 0.60106 0.80792 0.70288 0.0
Cd1220 Cd 0.56957 0.82673 0.71749 0.0
O1221 O 0.58959 0.84627 0.72563 0.0
O1222 O 0.62351 0.79575 0.69117 0.0
O1223 O 0.60259 0.8117 0.67442 0.0
C1224 C 0.6182 0.80225 0.67504 0.0
C1225 C 0.53947 0.83755 0.70908 0.0
C1226 C 0.60709 0.84264 0.72724 0.0
C1227 C 0.57653 0.78618 0.72912 0.0
O1228 O 0.56852 0.80185 0.73275 0.0
O1229 O 0.58868 0.78508 0.71594 0.0
O1230 O 0.54601 0.83933 0.72595 0.0
O1231 O 0.5504 0.83021 0.69643 0.0
O1232 O 0.27804 0.17137 0.38462 0.0
Cd1233 Cd 0.29541 0.19096 0.39755 0.0
Cd1234 Cd 0.2809 0.17205 0.42898 0.0
O1235 O 0.27282 0.15255 0.4089 0.0
O1236 O 0.30725 0.20315 0.3752 0.0
O1237 O 0.32385 0.18715 0.39619 0.0
C1238 C 0.32333 0.19661 0.38059 0.0
C1239 C 0.28935 0.16108 0.45901 0.0
C1240 C 0.27119 0.1562 0.39139 0.0
C1241 C 0.26914 0.21259 0.42215 0.0
O1242 O 0.26558 0.1969 0.43015 0.0
O1243 O 0.28228 0.21375 0.40996 0.0
O1244 O 0.27248 0.15931 0.45248 0.0
O1245 O 0.30197 0.16852 0.44812 0.0
O1246 O 0.27758 0.82751 0.61368 0.0
Cd1247 Cd 0.29493 0.80799 0.6006 0.0
Cd1248 Cd 0.28025 0.8269 0.56938 0.0
O1249 O 0.2722 0.84639 0.58948 0.0
O1250 O 0.30682 0.7957 0.62287 0.0
O1251 O 0.32339 0.81176 0.6019 0.0
C1252 C 0.3229 0.80222 0.61746 0.0
C1253 C 0.28891 0.83777 0.53938 0.0
C1254 C 0.27065 0.84267 0.60698 0.0
C1255 C 0.26853 0.78638 0.57614 0.0
O1256 O 0.26487 0.80209 0.56823 0.0
O1257 O 0.28178 0.78521 0.5882 0.0
O1258 O 0.272 0.83965 0.54582 0.0
O1259 O 0.30144 0.83029 0.55035 0.0
O1260 O 0.17084 0.27763 0.61458 0.0
Cd1261 Cd 0.19023 0.29513 0.60151 0.0
Cd1262 Cd 0.17137 0.2804 0.57024 0.0
O1263 O 0.152 0.27215 0.59037 0.0
O1264 O 0.20242 0.30714 0.62376 0.0
O1265 O 0.18622 0.32355 0.60277 0.0
C1266 C 0.19577 0.32317 0.61833 0.0
C1267 C 0.16035 0.28887 0.54023 0.0
C1268 C 0.15572 0.2706 0.60787 0.0
C1269 C 0.212 0.26899 0.57692 0.0
O1270 O 0.19632 0.26526 0.569 0.0
O1271 O 0.21309 0.28216 0.58907 0.0
O1272 O 0.15866 0.27197 0.54672 0.0
O1273 O 0.16771 0.30151 0.55116 0.0
O1274 O 0.72019 0.17095 0.61432 0.0
Cd1275 Cd 0.70281 0.19051 0.60134 0.0
Cd1276 Cd 0.71741 0.17151 0.56997 0.0
O1277 O 0.72546 0.15205 0.5901 0.0
O1278 O 0.69106 0.20281 0.62368 0.0
O1279 O 0.67435 0.18678 0.60279 0.0
C1280 C 0.67494 0.19631 0.61835 0.0
C1281 C 0.70904 0.16059 0.53989 0.0
C1282 C 0.72708 0.15577 0.60759 0.0
C1283 C 0.72915 0.21205 0.57677 0.0
O1284 O 0.73275 0.19634 0.56883 0.0
O1285 O 0.71596 0.21326 0.58888 0.0
O1286 O 0.72589 0.15878 0.54648 0.0
O1287 O 0.69639 0.168 0.55077 0.0
O1288 O 0.82868 0.72072 0.61356 0.0
Cd1289 Cd 0.80922 0.7033 0.60048 0.0
Cd1290 Cd 0.82804 0.71838 0.56921 0.0
O1291 O 0.84743 0.72655 0.58936 0.0
O1292 O 0.79693 0.69147 0.62279 0.0
O1293 O 0.81297 0.67483 0.60186 0.0
C1294 C 0.80342 0.67536 0.6174 0.0
C1295 C 0.83896 0.71003 0.53913 0.0
C1296 C 0.84373 0.7279 0.60688 0.0
C1297 C 0.78741 0.72968 0.57611 0.0
O1298 O 0.80307 0.73348 0.56816 0.0
O1299 O 0.78637 0.71639 0.58814 0.0
O1300 O 0.84066 0.72691 0.54568 0.0
O1301 O 0.83167 0.69734 0.55005 0.0
O1302 O 0.7204 0.82735 0.38489 0.0
Cd1303 Cd 0.703 0.80782 0.39788 0.0
Cd1304 Cd 0.71779 0.82662 0.42928 0.0
O1305 O 0.72592 0.84608 0.40918 0.0
O1306 O 0.69109 0.79564 0.37556 0.0
O1307 O 0.67455 0.81165 0.3966 0.0
C1308 C 0.67502 0.80216 0.381 0.0
C1309 C 0.70956 0.83763 0.45937 0.0
C1310 C 0.72742 0.84244 0.39166 0.0
C1311 C 0.72932 0.78604 0.4223 0.0
O1312 O 0.73298 0.80169 0.43033 0.0
O1313 O 0.71612 0.78496 0.41018 0.0
O1314 O 0.72641 0.83929 0.45275 0.0
O1315 O 0.69684 0.83027 0.44854 0.0
O1316 O 0.17023 0.72072 0.38486 0.0
Cd1317 Cd 0.18963 0.70323 0.39793 0.0
Cd1318 Cd 0.17081 0.71827 0.42924 0.0
O1319 O 0.15147 0.72649 0.40907 0.0
O1320 O 0.20188 0.69136 0.37562 0.0
O1321 O 0.18574 0.67478 0.39652 0.0
C1322 C 0.1953 0.67529 0.38097 0.0
C1323 C 0.15974 0.70996 0.45928 0.0
C1324 C 0.15517 0.72788 0.39156 0.0
C1325 C 0.2115 0.72946 0.42241 0.0
O1326 O 0.19585 0.73328 0.43036 0.0
O1327 O 0.21251 0.71621 0.41033 0.0
O1328 O 0.15815 0.72685 0.45274 0.0
O1329 O 0.16705 0.69725 0.4484 0.0
O1330 O 0.8268 0.27817 0.38462 0.0
Cd1331 Cd 0.80736 0.29566 0.39762 0.0
Cd1332 Cd 0.82627 0.28097 0.42899 0.0
O1333 O 0.84568 0.27285 0.40883 0.0
O1334 O 0.79516 0.30755 0.3753 0.0
O1335 O 0.81131 0.32409 0.39622 0.0
C1336 C 0.8018 0.3236 0.38065 0.0
C1337 C 0.83739 0.28915 0.45906 0.0
C1338 C 0.84195 0.27124 0.39134 0.0
C1339 C 0.78565 0.26946 0.4222 0.0
O1340 O 0.80134 0.26579 0.43015 0.0
O1341 O 0.78452 0.28265 0.41006 0.0
O1342 O 0.83901 0.2723 0.45241 0.0
O1343 O 0.83001 0.30189 0.44827 0.0
C1344 C 0.1124 0.24397 0.37451 0.0
C1345 C 0.11879 0.23789 0.35667 0.0
H1346 H 0.11883 0.25928 0.39988 0.0
C1347 C 0.13703 0.24307 0.35072 0.0
H1348 H 0.09839 0.24026 0.37948 0.0
C1349 C 0.14857 0.25418 0.36224 0.0
C1350 C 0.14227 0.26019 0.3801 0.0
H1351 H 0.14237 0.23875 0.33703 0.0
H1352 H 0.16256 0.25786 0.35719 0.0
C1353 C 0.12408 0.2549 0.38617 0.0
C1354 C 0.74323 0.14867 0.36153 0.0
C1355 C 0.7377 0.14259 0.37963 0.0
H1356 H 0.75818 0.14221 0.33608 0.0
C1357 C 0.74333 0.12457 0.38586 0.0
H1358 H 0.73926 0.16252 0.35633 0.0
C1359 C 0.75415 0.11283 0.37416 0.0
C1360 C 0.75976 0.11899 0.3561 0.0
H1361 H 0.73933 0.11949 0.39976 0.0
H1362 H 0.75816 0.09896 0.37929 0.0
C1363 C 0.75422 0.13706 0.34996 0.0
C1364 C 0.87395 0.74417 0.38488 0.0
C1365 C 0.85597 0.73835 0.3787 0.0
H1366 H 0.89942 0.75918 0.37819 0.0
C1367 C 0.84982 0.74374 0.36058 0.0
H1368 H 0.87908 0.74029 0.39879 0.0
C1369 C 0.86132 0.75476 0.34894 0.0
C1370 C 0.87935 0.76049 0.35502 0.0
H1371 H 0.836 0.73962 0.35542 0.0
H1372 H 0.85612 0.75861 0.33505 0.0
C1373 C 0.88558 0.75503 0.3731 0.0
C1374 C 0.24389 0.861 0.34955 0.0
C1375 C 0.23847 0.87913 0.35565 0.0
H1376 H 0.25874 0.83548 0.35596 0.0
C1377 C 0.24421 0.88533 0.37365 0.0
H1378 H 0.23984 0.85581 0.33572 0.0
C1379 C 0.25502 0.87359 0.38535 0.0
C1380 C 0.26052 0.8555 0.37917 0.0
H1381 H 0.2403 0.89925 0.37874 0.0
H1382 H 0.25911 0.8787 0.3992 0.0
C1383 C 0.25487 0.84938 0.36112 0.0
C1384 C 0.12418 0.74427 0.6137 0.0
C1385 C 0.1422 0.73845 0.61978 0.0
H1386 H 0.09878 0.75933 0.62051 0.0
C1387 C 0.14846 0.74386 0.63785 0.0
H1388 H 0.11897 0.74038 0.59983 0.0
C1389 C 0.13704 0.75491 0.64955 0.0
C1390 C 0.11899 0.76066 0.64356 0.0
H1391 H 0.16231 0.73974 0.64294 0.0
H1392 H 0.14233 0.75877 0.6634 0.0
C1393 C 0.11264 0.75517 0.62552 0.0
C1394 C 0.25506 0.14881 0.63732 0.0
C1395 C 0.26058 0.1427 0.61922 0.0
H1396 H 0.24006 0.14245 0.66276 0.0
C1397 C 0.25486 0.1247 0.613 0.0
H1398 H 0.2591 0.16265 0.64251 0.0
C1399 C 0.24396 0.11302 0.6247 0.0
C1400 C 0.23837 0.11922 0.64275 0.0
H1401 H 0.25884 0.11959 0.59911 0.0
H1402 H 0.23989 0.09917 0.61958 0.0
C1403 C 0.244 0.13727 0.64888 0.0
C1404 C 0.85005 0.25448 0.63742 0.0
C1405 C 0.85614 0.25989 0.61928 0.0
H1406 H 0.85643 0.23959 0.66291 0.0
C1407 C 0.87412 0.2541 0.61305 0.0
H1408 H 0.83624 0.25858 0.64262 0.0
C1409 C 0.88579 0.24323 0.62478 0.0
C1410 C 0.8796 0.23773 0.64287 0.0
H1411 H 0.8792 0.25799 0.59913 0.0
H1412 H 0.89962 0.23909 0.61965 0.0
C1413 C 0.86159 0.24345 0.64901 0.0
C1414 C 0.75529 0.86131 0.64933 0.0
C1415 C 0.76083 0.87941 0.64325 0.0
H1416 H 0.74033 0.83588 0.64286 0.0
C1417 C 0.75523 0.88564 0.62521 0.0
H1418 H 0.75924 0.85611 0.66319 0.0
C1419 C 0.74441 0.87394 0.61347 0.0
C1420 C 0.73877 0.85589 0.61963 0.0
H1421 H 0.75923 0.89952 0.62014 0.0
H1422 H 0.74041 0.87907 0.59959 0.0
C1423 C 0.7443 0.84975 0.63771 0.0
C1424 C 0.37383 0.11302 0.24362 0.0
C1425 C 0.35575 0.11917 0.23807 0.0
H1426 H 0.39944 0.11967 0.2584 0.0
C1427 C 0.34958 0.1372 0.24372 0.0
H1428 H 0.37897 0.09918 0.23953 0.0
C1429 C 0.36115 0.14878 0.25473 0.0
C1430 C 0.37928 0.14272 0.26019 0.0
H1431 H 0.33569 0.14234 0.23982 0.0
H1432 H 0.35593 0.16261 0.25878 0.0
C1433 C 0.38553 0.12473 0.25446 0.0
C1434 C 0.86121 0.34946 0.24345 0.0
C1435 C 0.8793 0.35555 0.23789 0.0
H1436 H 0.83579 0.35588 0.25845 0.0
C1437 C 0.88553 0.37358 0.24353 0.0
H1438 H 0.85601 0.33561 0.23948 0.0
C1439 C 0.87384 0.3853 0.25439 0.0
C1440 C 0.85579 0.37912 0.26003 0.0
H1441 H 0.89941 0.37866 0.23952 0.0
H1442 H 0.87896 0.39917 0.2584 0.0
C1443 C 0.84966 0.36105 0.25448 0.0
C1444 C 0.64869 0.8611 0.24423 0.0
C1445 C 0.64258 0.87918 0.23868 0.0
H1446 H 0.6423 0.83566 0.25921 0.0
C1447 C 0.62455 0.88539 0.24434 0.0
H1448 H 0.66254 0.85591 0.24024 0.0
C1449 C 0.61285 0.87369 0.2552 0.0
C1450 C 0.61905 0.85564 0.26082 0.0
H1451 H 0.61945 0.89927 0.24034 0.0
H1452 H 0.59898 0.8788 0.25923 0.0
C1453 C 0.63712 0.84952 0.25525 0.0
C1454 C 0.13728 0.64913 0.24367 0.0
C1455 C 0.11921 0.64308 0.23805 0.0
H1456 H 0.16263 0.64267 0.25876 0.0
C1457 C 0.11292 0.62507 0.24368 0.0
H1458 H 0.14253 0.66297 0.23969 0.0
C1459 C 0.12454 0.61333 0.2546 0.0
C1460 C 0.14257 0.61948 0.2603 0.0
H1461 H 0.09904 0.62001 0.23963 0.0
H1462 H 0.11937 0.59948 0.25861 0.0
C1463 C 0.14877 0.63753 0.25474 0.0
C1464 C 0.37398 0.88509 0.7543 0.0
C1465 C 0.35596 0.87892 0.76004 0.0
H1466 H 0.39946 0.87846 0.73928 0.0
C1467 C 0.34978 0.86085 0.75451 0.0
H1468 H 0.37913 0.89896 0.75829 0.0
C1469 C 0.36127 0.84927 0.74342 0.0
C1470 C 0.37933 0.85535 0.73775 0.0
H1471 H 0.33594 0.8557 0.75857 0.0
H1472 H 0.35604 0.83542 0.73946 0.0
C1473 C 0.3856 0.87337 0.74337 0.0
C1474 C 0.14834 0.36138 0.74397 0.0
C1475 C 0.14219 0.37944 0.73839 0.0
H1476 H 0.14199 0.33594 0.75897 0.0
C1477 C 0.12412 0.38559 0.74398 0.0
H1478 H 0.16222 0.35624 0.74004 0.0
C1479 C 0.11242 0.37385 0.75481 0.0
C1480 C 0.11867 0.35584 0.76048 0.0
H1481 H 0.11898 0.39944 0.73994 0.0
H1482 H 0.09852 0.37891 0.75879 0.0
C1483 C 0.13678 0.34978 0.75497 0.0
C1484 C 0.63758 0.14913 0.74452 0.0
C1485 C 0.61956 0.14298 0.73883 0.0
H1486 H 0.66295 0.14273 0.75962 0.0
C1487 C 0.61338 0.1249 0.74433 0.0
H1488 H 0.64274 0.16302 0.74065 0.0
C1489 C 0.62506 0.11317 0.7552 0.0
C1490 C 0.64304 0.1194 0.76097 0.0
H1491 H 0.59955 0.11976 0.74022 0.0
H1492 H 0.61997 0.09926 0.75911 0.0
C1493 C 0.64913 0.13753 0.75554 0.0
C1494 C 0.88551 0.62465 0.7542 0.0
C1495 C 0.87928 0.64267 0.75988 0.0
H1496 H 0.87893 0.59909 0.73928 0.0
C1497 C 0.8612 0.64878 0.75434 0.0
H1498 H 0.89938 0.61955 0.7582 0.0
C1499 C 0.84964 0.63721 0.7433 0.0
C1500 C 0.85577 0.61915 0.73771 0.0
H1501 H 0.85601 0.66262 0.75835 0.0
H1502 H 0.83577 0.64239 0.73934 0.0
C1503 C 0.87381 0.61295 0.74332 0.0
C1504 C 0.24424 0.34992 0.13768 0.0
C1505 C 0.23894 0.35602 0.11952 0.0
H1506 H 0.25895 0.35631 0.16328 0.0
C1507 C 0.24474 0.37401 0.11334 0.0
H1508 H 0.24014 0.3361 0.14286 0.0
C1509 C 0.2555 0.38569 0.12515 0.0
C1510 C 0.26089 0.37951 0.14327 0.0
H1511 H 0.24092 0.3791 0.0994 0.0
H1512 H 0.25965 0.39953 0.12005 0.0
C1513 C 0.25517 0.36147 0.14936 0.0
C1514 C 0.24357 0.64889 0.86134 0.0
C1515 C 0.23807 0.64278 0.87944 0.0
H1516 H 0.25846 0.64248 0.83585 0.0
C1517 C 0.24369 0.62473 0.88562 0.0
H1518 H 0.2396 0.66276 0.85618 0.0
C1519 C 0.25448 0.61301 0.87387 0.0
C1520 C 0.26006 0.61921 0.85581 0.0
H1521 H 0.23972 0.61963 0.89951 0.0
H1522 H 0.25849 0.59913 0.87896 0.0
C1523 C 0.25452 0.6373 0.84972 0.0
C1524 C 0.36109 0.25492 0.84914 0.0
C1525 C 0.37911 0.26062 0.85527 0.0
H1526 H 0.33576 0.23975 0.85552 0.0
C1527 C 0.38532 0.25506 0.87333 0.0
H1528 H 0.3559 0.25883 0.83526 0.0
C1529 C 0.37368 0.24414 0.88504 0.0
C1530 C 0.3557 0.23836 0.87881 0.0
H1531 H 0.39916 0.25918 0.87846 0.0
H1532 H 0.37879 0.24019 0.89893 0.0
C1533 C 0.34957 0.24384 0.86071 0.0
C1534 C 0.74315 0.36124 0.84926 0.0
C1535 C 0.7375 0.3793 0.85533 0.0
H1536 H 0.75826 0.33589 0.85572 0.0
C1537 C 0.74306 0.38556 0.87337 0.0
H1538 H 0.73923 0.35601 0.83539 0.0
C1539 C 0.75395 0.37393 0.88512 0.0
C1540 C 0.75969 0.35591 0.87895 0.0
H1541 H 0.73897 0.39942 0.87845 0.0
H1542 H 0.75791 0.37908 0.89899 0.0
C1543 C 0.7542 0.34974 0.86087 0.0
C1544 C 0.63705 0.74355 0.84977 0.0
C1545 C 0.619 0.73792 0.8559 0.0
H1546 H 0.66243 0.75863 0.85617 0.0
C1547 C 0.61279 0.7435 0.87395 0.0
H1548 H 0.64223 0.73963 0.8359 0.0
C1549 C 0.62446 0.75437 0.88567 0.0
C1550 C 0.64247 0.76009 0.87945 0.0
H1551 H 0.59893 0.73943 0.87906 0.0
H1552 H 0.61936 0.75834 0.89956 0.0
C1553 C 0.64859 0.7546 0.86136 0.0
C1554 C 0.75429 0.64847 0.13744 0.0
C1555 C 0.7596 0.64236 0.11928 0.0
H1556 H 0.73944 0.64217 0.16298 0.0
C1557 C 0.75367 0.62443 0.11305 0.0
H1558 H 0.75849 0.66225 0.14265 0.0
C1559 C 0.74276 0.61282 0.12481 0.0
C1560 C 0.73737 0.61902 0.14292 0.0
H1561 H 0.75749 0.61933 0.09912 0.0
H1562 H 0.73852 0.59902 0.11968 0.0
C1563 C 0.74322 0.637 0.14906 0.0
C1564 C 0.34964 0.75454 0.1374 0.0
C1565 C 0.3558 0.76009 0.11933 0.0
H1566 H 0.35595 0.73955 0.16285 0.0
C1567 C 0.37383 0.75442 0.11316 0.0
H1568 H 0.33577 0.75855 0.14255 0.0
C1569 C 0.38549 0.74354 0.12489 0.0
C1570 C 0.37925 0.73792 0.14292 0.0
H1571 H 0.37897 0.75842 0.09929 0.0
H1572 H 0.39937 0.7395 0.11981 0.0
C1573 C 0.36117 0.74351 0.149 0.0
C1574 C 0.64925 0.24376 0.13744 0.0
C1575 C 0.64315 0.23805 0.1194 0.0
H1576 H 0.6428 0.25894 0.16275 0.0
C1577 C 0.6251 0.24359 0.11315 0.0
H1578 H 0.66312 0.23987 0.14265 0.0
C1579 C 0.61337 0.2545 0.12476 0.0
C1580 C 0.61955 0.2603 0.14276 0.0
H1581 H 0.62001 0.23945 0.0993 0.0
H1582 H 0.59948 0.25843 0.11962 0.0
C1583 C 0.63764 0.25484 0.14892 0.0
C1584 C 0.86163 0.75524 0.64926 0.0
C1585 C 0.87963 0.76109 0.64318 0.0
H1586 H 0.8364 0.73997 0.64275 0.0
C1587 C 0.88589 0.75572 0.62508 0.0
H1588 H 0.85642 0.759 0.66317 0.0
C1589 C 0.87432 0.74482 0.61328 0.0
C1590 C 0.85637 0.73888 0.61945 0.0
H1591 H 0.8997 0.75996 0.62 0.0
H1592 H 0.87946 0.74102 0.59936 0.0
C1593 C 0.8502 0.74418 0.63759 0.0
C1594 C 0.24332 0.86093 0.64922 0.0
C1595 C 0.23782 0.87904 0.64315 0.0
H1596 H 0.25818 0.83544 0.64273 0.0
C1597 C 0.24342 0.88525 0.6251 0.0
H1598 H 0.23937 0.85574 0.66309 0.0
C1599 C 0.25419 0.87352 0.61334 0.0
C1600 C 0.25978 0.85545 0.6195 0.0
H1601 H 0.23945 0.89915 0.62003 0.0
H1602 H 0.25818 0.87863 0.59946 0.0
C1603 C 0.25425 0.84933 0.63759 0.0
C1604 C 0.13759 0.24318 0.65011 0.0
C1605 C 0.11956 0.23747 0.64398 0.0
H1606 H 0.16294 0.2583 0.64369 0.0
C1607 C 0.11337 0.24296 0.62589 0.0
H1608 H 0.14276 0.23932 0.664 0.0
C1609 C 0.12503 0.25383 0.61416 0.0
C1610 C 0.14301 0.25962 0.62037 0.0
H1611 H 0.09954 0.23883 0.62077 0.0
H1612 H 0.11993 0.25774 0.60025 0.0
C1613 C 0.14912 0.2542 0.6385 0.0
C1614 C 0.75451 0.11327 0.62556 0.0
C1615 C 0.76018 0.11948 0.64359 0.0
H1616 H 0.73961 0.11985 0.59999 0.0
C1617 C 0.75462 0.13755 0.64971 0.0
H1618 H 0.75853 0.09939 0.62045 0.0
C1619 C 0.74359 0.14912 0.63814 0.0
C1620 C 0.73801 0.143 0.62007 0.0
H1621 H 0.75861 0.14274 0.66356 0.0
H1622 H 0.73962 0.16298 0.64333 0.0
C1623 C 0.74364 0.12496 0.61386 0.0
C1624 C 0.88448 0.24387 0.37334 0.0
C1625 C 0.87826 0.23818 0.35533 0.0
H1626 H 0.8779 0.25878 0.3989 0.0
C1627 C 0.86016 0.24367 0.34923 0.0
H1628 H 0.89838 0.23991 0.37843 0.0
C1629 C 0.84857 0.25468 0.36081 0.0
C1630 C 0.85471 0.26029 0.37887 0.0
H1631 H 0.85496 0.23965 0.33539 0.0
H1632 H 0.83469 0.2586 0.35565 0.0
C1633 C 0.87277 0.25472 0.38505 0.0
C1634 C 0.75486 0.86075 0.34951 0.0
C1635 C 0.76048 0.87879 0.35568 0.0
H1636 H 0.73982 0.83533 0.35585 0.0
C1637 C 0.75492 0.88493 0.37376 0.0
H1638 H 0.75878 0.85561 0.33561 0.0
C1639 C 0.74407 0.87321 0.38545 0.0
C1640 C 0.73836 0.85522 0.37919 0.0
H1641 H 0.75898 0.89878 0.37891 0.0
H1642 H 0.74011 0.87828 0.39936 0.0
C1643 C 0.74385 0.84916 0.36107 0.0
C1644 C 0.12451 0.74466 0.38514 0.0
C1645 C 0.14251 0.73884 0.379 0.0
H1646 H 0.09905 0.75967 0.3784 0.0
C1647 C 0.14868 0.74421 0.36088 0.0
H1648 H 0.11936 0.74079 0.39904 0.0
C1649 C 0.1372 0.75522 0.34921 0.0
C1650 C 0.11916 0.76096 0.35526 0.0
H1651 H 0.16251 0.74009 0.35574 0.0
H1652 H 0.14242 0.75905 0.33532 0.0
C1653 C 0.1129 0.75551 0.37334 0.0
C1654 C 0.24383 0.13765 0.34931 0.0
C1655 C 0.2384 0.11956 0.35548 0.0
H1656 H 0.25864 0.16321 0.35563 0.0
C1657 C 0.24406 0.11345 0.37354 0.0
H1658 H 0.23983 0.14276 0.33543 0.0
C1659 C 0.25482 0.12527 0.38522 0.0
C1660 C 0.26033 0.14333 0.37896 0.0
H1661 H 0.24014 0.09957 0.3787 0.0
H1662 H 0.25886 0.12023 0.39911 0.0
C1663 C 0.25475 0.14934 0.36086 0.0
C1664 C 0.6249 0.88523 0.75466 0.0
C1665 C 0.64293 0.87908 0.76035 0.0
H1666 H 0.59937 0.87855 0.73974 0.0
C1667 C 0.6491 0.86101 0.75483 0.0
H1668 H 0.61975 0.8991 0.75864 0.0
C1669 C 0.63758 0.84939 0.7438 0.0
C1670 C 0.6195 0.85545 0.7382 0.0
H1671 H 0.66296 0.85586 0.75884 0.0
H1672 H 0.64281 0.83554 0.73986 0.0
C1673 C 0.61324 0.87348 0.74379 0.0
C1674 C 0.12469 0.61348 0.74418 0.0
C1675 C 0.14273 0.61966 0.73855 0.0
H1676 H 0.09915 0.62008 0.75911 0.0
C1677 C 0.14891 0.63769 0.74418 0.0
H1678 H 0.11953 0.59964 0.74011 0.0
C1679 C 0.13738 0.64925 0.75527 0.0
C1680 C 0.11929 0.64316 0.76081 0.0
H1681 H 0.16278 0.64285 0.74021 0.0
H1682 H 0.1426 0.66308 0.7593 0.0
C1683 C 0.11303 0.62517 0.7551 0.0
C1684 C 0.35013 0.13754 0.75448 0.0
C1685 C 0.35629 0.11944 0.75991 0.0
H1686 H 0.35643 0.16307 0.73962 0.0
C1687 C 0.37432 0.1133 0.75418 0.0
H1688 H 0.33627 0.14267 0.75853 0.0
C1689 C 0.38597 0.12509 0.74336 0.0
C1690 C 0.37972 0.14315 0.73785 0.0
H1691 H 0.37946 0.09941 0.75809 0.0
H1692 H 0.39984 0.12003 0.73927 0.0
C1693 C 0.36165 0.1492 0.7435 0.0
C1694 C 0.88466 0.37337 0.75484 0.0
C1695 C 0.87848 0.35529 0.76038 0.0
H1696 H 0.87805 0.399 0.74007 0.0
C1697 C 0.86043 0.34917 0.75475 0.0
H1698 H 0.89851 0.37849 0.75891 0.0
C1699 C 0.84886 0.36077 0.74376 0.0
C1700 C 0.85495 0.37888 0.7383 0.0
H1701 H 0.85527 0.33528 0.75865 0.0
H1702 H 0.83502 0.35558 0.73973 0.0
C1703 C 0.87296 0.3851 0.74401 0.0
C1704 C 0.64927 0.13739 0.24329 0.0
C1705 C 0.64314 0.11935 0.23765 0.0
H1706 H 0.64287 0.16279 0.25834 0.0
C1707 C 0.62506 0.11317 0.24318 0.0
H1708 H 0.66316 0.14255 0.23939 0.0
C1709 C 0.61333 0.12487 0.25402 0.0
C1710 C 0.61956 0.14287 0.25975 0.0
H1711 H 0.61993 0.09932 0.2391 0.0
H1712 H 0.59943 0.11978 0.25796 0.0
C1713 C 0.63767 0.14896 0.25429 0.0
C1714 C 0.86112 0.64907 0.24329 0.0
C1715 C 0.87917 0.64293 0.23769 0.0
H1716 H 0.83569 0.64269 0.25829 0.0
C1717 C 0.88534 0.62486 0.24325 0.0
H1718 H 0.85597 0.66296 0.23937 0.0
C1719 C 0.87362 0.61315 0.25407 0.0
C1720 C 0.8556 0.61937 0.25976 0.0
H1721 H 0.89919 0.61973 0.23919 0.0
H1722 H 0.8787 0.59924 0.25803 0.0
C1723 C 0.84953 0.63749 0.25428 0.0
C1724 C 0.37359 0.88511 0.24367 0.0
C1725 C 0.35555 0.87893 0.23804 0.0
H1726 H 0.39913 0.8785 0.25859 0.0
C1727 C 0.34938 0.86089 0.24365 0.0
H1728 H 0.37873 0.89895 0.23962 0.0
C1729 C 0.36092 0.84932 0.25472 0.0
C1730 C 0.379 0.85541 0.26027 0.0
H1731 H 0.33551 0.85573 0.23968 0.0
H1732 H 0.3557 0.83549 0.25874 0.0
C1733 C 0.38525 0.87341 0.25458 0.0
C1734 C 0.12483 0.38494 0.25445 0.0
C1735 C 0.14291 0.37892 0.26013 0.0
H1736 H 0.09932 0.37806 0.23959 0.0
C1737 C 0.1492 0.36088 0.25462 0.0
H1738 H 0.11959 0.39878 0.25843 0.0
C1739 C 0.13774 0.34917 0.24363 0.0
C1740 C 0.11961 0.3551 0.23805 0.0
H1741 H 0.1631 0.35584 0.25862 0.0
H1742 H 0.14306 0.33535 0.2397 0.0
C1743 C 0.11324 0.3731 0.24363 0.0
C1744 C 0.75473 0.64888 0.86041 0.0
C1745 C 0.76015 0.64278 0.87854 0.0
H1746 H 0.73989 0.64249 0.83489 0.0
C1747 C 0.75445 0.62475 0.88472 0.0
H1748 H 0.75877 0.66273 0.85524 0.0
C1749 C 0.74365 0.61306 0.87296 0.0
C1750 C 0.73814 0.61926 0.85488 0.0
H1751 H 0.75836 0.61965 0.89863 0.0
H1752 H 0.73957 0.5992 0.87805 0.0
C1753 C 0.74377 0.63732 0.84878 0.0
C1754 C 0.75448 0.34977 0.13745 0.0
C1755 C 0.75986 0.35592 0.11932 0.0
H1756 H 0.73961 0.35607 0.16299 0.0
C1757 C 0.75403 0.3739 0.11314 0.0
H1758 H 0.7586 0.33595 0.14262 0.0
C1759 C 0.74316 0.38552 0.12491 0.0
C1760 C 0.7377 0.37929 0.14299 0.0
H1761 H 0.7579 0.37902 0.09923 0.0
H1762 H 0.73899 0.39936 0.11981 0.0
C1763 C 0.74345 0.36127 0.14909 0.0
C1764 C 0.6247 0.75441 0.11383 0.0
C1765 C 0.64271 0.7601 0.12004 0.0
H1766 H 0.59915 0.7395 0.12042 0.0
C1767 C 0.64881 0.75461 0.13815 0.0
H1768 H 0.61961 0.75836 0.09993 0.0
C1769 C 0.63724 0.74361 0.14974 0.0
C1770 C 0.61918 0.738 0.14361 0.0
H1771 H 0.66265 0.75863 0.14335 0.0
H1772 H 0.6424 0.73969 0.16363 0.0
C1773 C 0.613 0.74356 0.12554 0.0
C1774 C 0.25478 0.63762 0.14948 0.0
C1775 C 0.26035 0.61952 0.14345 0.0
H1776 H 0.23982 0.66304 0.14295 0.0
C1777 C 0.25476 0.61325 0.12541 0.0
H1778 H 0.25871 0.64285 0.16333 0.0
C1779 C 0.24395 0.62492 0.11363 0.0
C1780 C 0.2383 0.64298 0.11975 0.0
H1781 H 0.25879 0.59936 0.12036 0.0
H1782 H 0.23998 0.61976 0.09976 0.0
C1783 C 0.2438 0.64916 0.13783 0.0
C1784 C 0.34997 0.24384 0.13746 0.0
C1785 C 0.35616 0.23831 0.1194 0.0
H1786 H 0.35621 0.25887 0.16291 0.0
C1787 C 0.37418 0.24405 0.11324 0.0
H1788 H 0.33612 0.23979 0.14261 0.0
C1789 C 0.38579 0.25498 0.12497 0.0
C1790 C 0.37951 0.26058 0.14299 0.0
H1791 H 0.37934 0.24007 0.09937 0.0
H1792 H 0.39965 0.25906 0.1199 0.0
C1793 C 0.36145 0.25493 0.14907 0.0
C1794 C 0.2548 0.36107 0.84893 0.0
C1795 C 0.26053 0.37908 0.85509 0.0
H1796 H 0.23972 0.33569 0.85534 0.0
C1797 C 0.25512 0.38521 0.87322 0.0
H1798 H 0.2586 0.35595 0.835 0.0
C1799 C 0.24432 0.37351 0.88498 0.0
C1800 C 0.23851 0.35554 0.87873 0.0
H1801 H 0.25927 0.39903 0.87837 0.0
H1802 H 0.24048 0.37856 0.89892 0.0
C1803 C 0.24383 0.3495 0.86056 0.0
C1804 C 0.62476 0.24366 0.88596 0.0
C1805 C 0.6428 0.23812 0.87968 0.0
H1806 H 0.59912 0.25848 0.87949 0.0
C1807 C 0.64886 0.24379 0.86162 0.0
H1808 H 0.61969 0.23956 0.89982 0.0
C1809 C 0.63723 0.25482 0.85013 0.0
C1810 C 0.61914 0.26029 0.85631 0.0
H1811 H 0.66272 0.23988 0.85639 0.0
H1812 H 0.64237 0.25888 0.83627 0.0
C1813 C 0.613 0.25454 0.87433 0.0
C1814 C 0.34913 0.75465 0.86099 0.0
C1815 C 0.35536 0.7603 0.879 0.0
H1816 H 0.3554 0.7396 0.83555 0.0
C1817 C 0.37346 0.75476 0.88509 0.0
H1818 H 0.33522 0.75855 0.8559 0.0
C1819 C 0.38512 0.74391 0.87333 0.0
C1820 C 0.37881 0.73819 0.85536 0.0
H1821 H 0.37865 0.75884 0.89891 0.0
H1822 H 0.39905 0.73997 0.87835 0.0
C1823 C 0.36066 0.74365 0.84936 0.0
C1824 C 0.06165 0.25702 0.27177 0.0
C1825 C 0.0737 0.24125 0.27053 0.0
H1826 H 0.05304 0.2833 0.25957 0.0
C1827 C 0.08475 0.23889 0.25416 0.0
H1828 H 0.05279 0.25918 0.28409 0.0
C1829 C 0.0849 0.25275 0.24008 0.0
C1830 C 0.07398 0.26925 0.24206 0.0
H1831 H 0.09408 0.22683 0.25266 0.0
H1832 H 0.09433 0.25096 0.22813 0.0
C1833 C 0.06179 0.27087 0.25769 0.0
C1834 C 0.75893 0.08334 0.25376 0.0
C1835 C 0.75632 0.07282 0.27043 0.0
H1836 H 0.7471 0.09241 0.22745 0.0
C1837 C 0.74031 0.06114 0.27199 0.0
H1838 H 0.77119 0.09236 0.252 0.0
C1839 C 0.72648 0.06116 0.25789 0.0
C1840 C 0.72836 0.07288 0.24193 0.0
H1841 H 0.73794 0.0527 0.28456 0.0
H1842 H 0.71385 0.05274 0.26001 0.0
C1843 C 0.7451 0.08337 0.23965 0.0
C1844 C 0.93712 0.72682 0.25718 0.0
C1845 C 0.92534 0.72847 0.24124 0.0
H1846 H 0.94562 0.73863 0.28369 0.0
C1847 C 0.91477 0.74513 0.23881 0.0
H1848 H 0.94561 0.71427 0.25941 0.0
C1849 C 0.91478 0.75913 0.25275 0.0
C1850 C 0.92536 0.75675 0.26942 0.0
H1851 H 0.90568 0.74695 0.22661 0.0
H1852 H 0.90569 0.77132 0.25089 0.0
C1853 C 0.93713 0.74082 0.27112 0.0
C1854 C 0.23965 0.91475 0.25343 0.0
C1855 C 0.24213 0.92534 0.27007 0.0
H1856 H 0.25166 0.90561 0.22722 0.0
C1857 C 0.25808 0.93711 0.27167 0.0
H1858 H 0.22743 0.90567 0.25165 0.0
C1859 C 0.27199 0.93707 0.25764 0.0
C1860 C 0.27025 0.92528 0.24172 0.0
H1861 H 0.26035 0.94561 0.28421 0.0
H1862 H 0.28457 0.94555 0.25979 0.0
C1863 C 0.25356 0.91472 0.2394 0.0
C1864 C 0.06129 0.72705 0.74148 0.0
C1865 C 0.07308 0.72867 0.75741 0.0
H1866 H 0.05279 0.73889 0.71499 0.0
C1867 C 0.08367 0.74533 0.75985 0.0
H1868 H 0.05279 0.7145 0.73925 0.0
C1869 C 0.08367 0.75933 0.74591 0.0
C1870 C 0.07308 0.75698 0.72925 0.0
H1871 H 0.09277 0.74713 0.77205 0.0
H1872 H 0.09277 0.77152 0.74778 0.0
C1873 C 0.06129 0.74106 0.72755 0.0
C1874 C 0.25419 0.08361 0.75876 0.0
C1875 C 0.27086 0.07307 0.75626 0.0
H1876 H 0.22794 0.09265 0.74677 0.0
C1877 C 0.27249 0.06133 0.74029 0.0
H1878 H 0.25238 0.09266 0.77099 0.0
C1879 C 0.25846 0.06132 0.72639 0.0
C1880 C 0.2425 0.07305 0.72816 0.0
H1881 H 0.28506 0.05287 0.73801 0.0
H1882 H 0.26063 0.05286 0.7138 0.0
C1883 C 0.24015 0.0836 0.74485 0.0
C1884 C 0.91451 0.25314 0.75909 0.0
C1885 C 0.925 0.26986 0.7567 0.0
H1886 H 0.90566 0.22689 0.74696 0.0
C1887 C 0.93683 0.27159 0.74081 0.0
H1888 H 0.90539 0.25126 0.77125 0.0
C1889 C 0.93699 0.2576 0.72687 0.0
C1890 C 0.92531 0.24159 0.72851 0.0
H1891 H 0.94525 0.2842 0.73862 0.0
H1892 H 0.94552 0.25984 0.71434 0.0
C1893 C 0.91467 0.23914 0.74514 0.0
C1894 C 0.72676 0.93719 0.74101 0.0
C1895 C 0.72839 0.92539 0.75693 0.0
H1896 H 0.73862 0.94575 0.71454 0.0
C1897 C 0.74505 0.91482 0.75938 0.0
H1898 H 0.71421 0.94568 0.73877 0.0
C1899 C 0.75908 0.91486 0.74546 0.0
C1900 C 0.75673 0.92547 0.72881 0.0
H1901 H 0.74685 0.90571 0.77157 0.0
H1902 H 0.77127 0.90578 0.74733 0.0
C1903 C 0.74079 0.93723 0.7271 0.0
C1904 C 0.23967 0.08369 0.2534 0.0
C1905 C 0.2421 0.07311 0.27007 0.0
H1906 H 0.25175 0.09276 0.2272 0.0
C1907 C 0.25802 0.06132 0.27171 0.0
H1908 H 0.22748 0.09278 0.25159 0.0
C1909 C 0.27196 0.0613 0.25771 0.0
C1910 C 0.27027 0.07307 0.24177 0.0
H1911 H 0.26025 0.05283 0.28427 0.0
H1912 H 0.28452 0.05279 0.25989 0.0
C1913 C 0.25361 0.08367 0.2394 0.0
C1914 C 0.91392 0.25327 0.23916 0.0
C1915 C 0.92479 0.26977 0.24147 0.0
H1916 H 0.9045 0.22727 0.25141 0.0
C1917 C 0.9367 0.27127 0.25732 0.0
H1918 H 0.90472 0.25156 0.22704 0.0
C1919 C 0.93657 0.25732 0.27131 0.0
C1920 C 0.92454 0.24158 0.26975 0.0
H1921 H 0.94541 0.28369 0.25945 0.0
H1922 H 0.94519 0.25941 0.28381 0.0
C1923 C 0.9138 0.23932 0.25316 0.0
C1924 C 0.74047 0.93699 0.27215 0.0
C1925 C 0.75644 0.92527 0.27037 0.0
H1926 H 0.71388 0.94546 0.26052 0.0
C1927 C 0.75882 0.91477 0.25365 0.0
H1928 H 0.73828 0.94542 0.28476 0.0
C1929 C 0.7448 0.91479 0.23972 0.0
C1930 C 0.72811 0.92531 0.24223 0.0
H1931 H 0.77103 0.90573 0.25172 0.0
H1932 H 0.74663 0.90577 0.22748 0.0
C1933 C 0.72646 0.93701 0.25823 0.0
C1934 C 0.06144 0.72719 0.25736 0.0
C1935 C 0.07327 0.72877 0.24146 0.0
H1936 H 0.0529 0.73907 0.28383 0.0
C1937 C 0.08391 0.74539 0.23903 0.0
H1938 H 0.0529 0.71467 0.25958 0.0
C1939 C 0.08391 0.75941 0.25296 0.0
C1940 C 0.07327 0.7571 0.2696 0.0
H1941 H 0.09305 0.74717 0.22686 0.0
H1942 H 0.09305 0.77157 0.25111 0.0
C1943 C 0.06144 0.74121 0.27129 0.0
C1944 C 0.23979 0.91466 0.74529 0.0
C1945 C 0.24211 0.92527 0.72862 0.0
H1946 H 0.25206 0.90552 0.77137 0.0
C1947 C 0.25805 0.93704 0.72688 0.0
H1948 H 0.2276 0.90558 0.74718 0.0
C1949 C 0.27209 0.93701 0.74078 0.0
C1950 C 0.27049 0.92521 0.75671 0.0
H1951 H 0.26019 0.94555 0.71433 0.0
H1952 H 0.28464 0.9455 0.73852 0.0
C1953 C 0.25384 0.91463 0.75918 0.0
C1954 C 0.08365 0.23925 0.74596 0.0
C1955 C 0.0731 0.24145 0.72925 0.0
H1956 H 0.09262 0.25167 0.77203 0.0
C1957 C 0.06126 0.25732 0.7274 0.0
H1958 H 0.09279 0.22711 0.74794 0.0
C1959 C 0.06117 0.27142 0.74123 0.0
C1960 C 0.07291 0.26996 0.75721 0.0
H1961 H 0.05279 0.25937 0.7148 0.0
H1962 H 0.05263 0.28392 0.73888 0.0
C1963 C 0.08356 0.25336 0.7598 0.0
C1964 C 0.74513 0.08377 0.7597 0.0
C1965 C 0.72849 0.07315 0.75731 0.0
H1966 H 0.77127 0.0929 0.74754 0.0
C1967 C 0.72683 0.06136 0.74138 0.0
H1968 H 0.74696 0.09287 0.77188 0.0
C1969 C 0.74079 0.06138 0.7274 0.0
C1970 C 0.7567 0.07319 0.72905 0.0
H1971 H 0.71429 0.05284 0.73919 0.0
H1972 H 0.73859 0.05288 0.71485 0.0
C1973 C 0.75909 0.08379 0.74571 0.0
C1974 C 0.91498 0.74499 0.75921 0.0
C1975 C 0.92548 0.7283 0.75662 0.0
H1976 H 0.906 0.77132 0.74736 0.0
C1977 C 0.93721 0.72673 0.74064 0.0
H1978 H 0.90593 0.74677 0.77145 0.0
C1979 C 0.93726 0.74084 0.72681 0.0
C1980 C 0.92556 0.75681 0.72866 0.0
H1981 H 0.94564 0.71415 0.7383 0.0
H1982 H 0.94571 0.73871 0.71421 0.0
C1983 C 0.91502 0.7591 0.74537 0.0
C1984 C 0.25859 0.27196 0.06145 0.0
C1985 C 0.24271 0.2704 0.07332 0.0
H1986 H 0.28501 0.26005 0.05285 0.0
C1987 C 0.2403 0.25379 0.08398 0.0
H1988 H 0.2608 0.28448 0.0529 0.0
C1989 C 0.25421 0.23975 0.08396 0.0
C1990 C 0.27082 0.24205 0.07327 0.0
H1991 H 0.22815 0.25203 0.09315 0.0
H1992 H 0.25237 0.2276 0.0931 0.0
C1993 C 0.2725 0.25793 0.06142 0.0
C1994 C 0.25795 0.72664 0.93736 0.0
C1995 C 0.24195 0.72831 0.92568 0.0
H1996 H 0.2845 0.73844 0.94573 0.0
C1997 C 0.23945 0.74499 0.91514 0.0
H1998 H 0.26022 0.71407 0.94582 0.0
C1999 C 0.2534 0.75899 0.91509 0.0
C2000 C 0.27012 0.75659 0.92558 0.0
H2001 H 0.2272 0.74683 0.90613 0.0
H2002 H 0.25148 0.7712 0.90604 0.0
C2003 C 0.27189 0.74064 0.93731 0.0
C2004 C 0.2578 0.2714 0.93683 0.0
C2005 C 0.24202 0.26989 0.92484 0.0
H2006 H 0.28419 0.2595 0.94552 0.0
C2007 C 0.23971 0.25335 0.91404 0.0
H2008 H 0.25992 0.28386 0.9455 0.0
C2009 C 0.25366 0.23936 0.91405 0.0
C2010 C 0.2702 0.24162 0.92487 0.0
H2011 H 0.22763 0.25164 0.90477 0.0
H2012 H 0.25192 0.22727 0.9048 0.0
C2013 C 0.27174 0.25741 0.93685 0.0
C2014 C 0.74495 0.23977 0.91515 0.0
C2015 C 0.72826 0.24213 0.92571 0.0
H2016 H 0.77105 0.252 0.90602 0.0
C2017 C 0.72647 0.25813 0.93739 0.0
H2018 H 0.74688 0.22753 0.90615 0.0
C2019 C 0.74035 0.27219 0.93731 0.0
C2020 C 0.75631 0.27054 0.92555 0.0
H2021 H 0.71389 0.26031 0.94585 0.0
H2022 H 0.73806 0.28479 0.94572 0.0
C2023 C 0.75883 0.25383 0.91508 0.0
C2024 C 0.7267 0.74068 0.93699 0.0
C2025 C 0.72819 0.75654 0.92509 0.0
H2026 H 0.73859 0.71421 0.94549 0.0
C2027 C 0.74469 0.75887 0.91424 0.0
H2028 H 0.71427 0.73853 0.94569 0.0
C2029 C 0.75866 0.7449 0.91412 0.0
C2030 C 0.75642 0.72831 0.92485 0.0
H2031 H 0.74639 0.771 0.90504 0.0
H2032 H 0.77072 0.74668 0.90483 0.0
C2033 C 0.74067 0.72671 0.93688 0.0
C2034 C 0.74041 0.72658 0.0616 0.0
C2035 C 0.75628 0.72802 0.07349 0.0
H2036 H 0.71399 0.73857 0.05312 0.0
C2037 C 0.75869 0.74452 0.08433 0.0
H2038 H 0.73821 0.71416 0.05291 0.0
C2039 C 0.74477 0.75855 0.08446 0.0
C2040 C 0.72816 0.75636 0.07374 0.0
H2041 H 0.77083 0.74617 0.09352 0.0
H2042 H 0.7466 0.7706 0.09374 0.0
C2043 C 0.7265 0.74061 0.06172 0.0
C2044 C 0.25815 0.72647 0.06139 0.0
C2045 C 0.24218 0.72822 0.0731 0.0
H2046 H 0.28472 0.73816 0.05293 0.0
C2047 C 0.23974 0.74495 0.08357 0.0
H2048 H 0.26039 0.71385 0.05299 0.0
C2049 C 0.25372 0.75892 0.08354 0.0
C2050 C 0.27042 0.75644 0.07303 0.0
H2051 H 0.22751 0.74686 0.0926 0.0
H2052 H 0.25185 0.77117 0.09254 0.0
C2053 C 0.27213 0.74043 0.06136 0.0
C2054 C 0.74521 0.23973 0.08358 0.0
C2055 C 0.72848 0.24203 0.07308 0.0
H2056 H 0.77133 0.25203 0.09256 0.0
C2057 C 0.72665 0.25796 0.06132 0.0
H2058 H 0.74718 0.22753 0.09264 0.0
C2059 C 0.74051 0.27203 0.06127 0.0
C2060 C 0.75651 0.27046 0.07298 0.0
H2061 H 0.71403 0.26009 0.05289 0.0
H2062 H 0.73818 0.28458 0.05281 0.0
C2063 C 0.75908 0.2538 0.08353 0.0
C2064 C 0.56158 0.77147 0.75766 0.0
C2065 C 0.57352 0.76982 0.74184 0.0
H2066 H 0.55286 0.75972 0.78412 0.0
C2067 C 0.58419 0.75319 0.73957 0.0
H2068 H 0.55301 0.784 0.75976 0.0
C2069 C 0.5841 0.73924 0.75357 0.0
C2070 C 0.57333 0.74163 0.77012 0.0
H2071 H 0.59341 0.75137 0.72747 0.0
H2072 H 0.59325 0.72708 0.75184 0.0
C2073 C 0.56149 0.75753 0.77165 0.0
C2074 C 0.24473 0.58378 0.73957 0.0
C2075 C 0.22804 0.57324 0.74195 0.0
H2076 H 0.27091 0.59278 0.75173 0.0
C2077 C 0.22632 0.56145 0.75788 0.0
H2078 H 0.2466 0.59287 0.72739 0.0
C2079 C 0.24028 0.5614 0.77186 0.0
C2080 C 0.25624 0.57313 0.77021 0.0
H2081 H 0.21374 0.55299 0.76007 0.0
H2082 H 0.23804 0.5529 0.78441 0.0
C2083 C 0.25869 0.58372 0.75355 0.0
C2084 C 0.41507 0.24546 0.73916 0.0
C2085 C 0.42566 0.22881 0.7416 0.0
H2086 H 0.40591 0.27162 0.75126 0.0
C2087 C 0.43738 0.22715 0.75758 0.0
H2088 H 0.40603 0.2473 0.72693 0.0
C2089 C 0.43732 0.24112 0.77155 0.0
C2090 C 0.42553 0.25704 0.76984 0.0
H2091 H 0.44588 0.2146 0.75982 0.0
H2092 H 0.44576 0.23892 0.78414 0.0
C2093 C 0.41501 0.25943 0.75313 0.0
C2094 C 0.75697 0.43705 0.77135 0.0
C2095 C 0.74109 0.42519 0.76971 0.0
H2096 H 0.78349 0.44559 0.75961 0.0
C2097 C 0.73878 0.41449 0.7531 0.0
H2098 H 0.7591 0.44563 0.78386 0.0
C2099 C 0.7528 0.41447 0.73917 0.0
C2100 C 0.76941 0.42514 0.74156 0.0
H2101 H 0.72664 0.40534 0.75129 0.0
H2102 H 0.75103 0.40529 0.72703 0.0
C2103 C 0.77098 0.43703 0.75742 0.0
C2104 C 0.56145 0.22667 0.24029 0.0
C2105 C 0.57324 0.22833 0.25622 0.0
H2106 H 0.55292 0.23846 0.21379 0.0
C2107 C 0.58379 0.24501 0.25865 0.0
H2108 H 0.55298 0.2141 0.23807 0.0
C2109 C 0.58375 0.259 0.24471 0.0
C2110 C 0.57317 0.25661 0.22804 0.0
H2111 H 0.59288 0.24684 0.27085 0.0
H2112 H 0.59282 0.27121 0.24656 0.0
C2113 C 0.56141 0.24066 0.22635 0.0
C2114 C 0.77153 0.56137 0.24046 0.0
C2115 C 0.76996 0.57317 0.2564 0.0
H2116 H 0.75958 0.55282 0.21404 0.0
C2117 C 0.75329 0.58371 0.25892 0.0
H2118 H 0.78409 0.55291 0.23817 0.0
C2119 C 0.73921 0.58366 0.24506 0.0
C2120 C 0.7415 0.57306 0.22839 0.0
H2121 H 0.75153 0.59281 0.27112 0.0
H2122 H 0.72701 0.59272 0.24699 0.0
C2123 C 0.75745 0.56132 0.22661 0.0
C2124 C 0.43708 0.7577 0.22677 0.0
C2125 C 0.42535 0.74173 0.22846 0.0
H2126 H 0.44549 0.78426 0.23851 0.0
C2127 C 0.4148 0.7393 0.24514 0.0
H2128 H 0.44554 0.75993 0.21419 0.0
C2129 C 0.41477 0.75328 0.25911 0.0
C2130 C 0.42529 0.76997 0.25668 0.0
H2131 H 0.40575 0.72708 0.247 0.0
H2132 H 0.4057 0.75141 0.27132 0.0
C2133 C 0.43705 0.77168 0.24073 0.0
C2134 C 0.25898 0.41486 0.24553 0.0
C2135 C 0.25668 0.42547 0.22887 0.0
H2136 H 0.24669 0.40572 0.27161 0.0
C2137 C 0.24074 0.43724 0.22712 0.0
H2138 H 0.27117 0.40578 0.24744 0.0
C2139 C 0.22669 0.4372 0.241 0.0
C2140 C 0.22826 0.4254 0.25693 0.0
H2141 H 0.23861 0.44575 0.21456 0.0
H2142 H 0.21414 0.44569 0.23872 0.0
C2143 C 0.24492 0.41483 0.25942 0.0
C2144 C 0.73952 0.58384 0.75268 0.0
C2145 C 0.74184 0.57317 0.7693 0.0
H2146 H 0.75175 0.59299 0.72657 0.0
C2147 C 0.75773 0.56133 0.77096 0.0
H2148 H 0.72736 0.59298 0.75085 0.0
C2149 C 0.77173 0.56134 0.75702 0.0
C2150 C 0.77014 0.57319 0.74113 0.0
H2151 H 0.75987 0.55278 0.78349 0.0
H2152 H 0.78425 0.55278 0.75922 0.0
C2153 C 0.75352 0.58384 0.73873 0.0
C2154 C 0.41417 0.75314 0.73899 0.0
C2155 C 0.42498 0.76967 0.74125 0.0
H2156 H 0.40484 0.72713 0.75129 0.0
C2157 C 0.4369 0.77125 0.75709 0.0
H2158 H 0.40496 0.75137 0.72687 0.0
C2159 C 0.43682 0.75733 0.77111 0.0
C2160 C 0.42483 0.74155 0.76959 0.0
H2161 H 0.44557 0.7837 0.75918 0.0
H2162 H 0.44544 0.75948 0.7836 0.0
C2163 C 0.41409 0.73922 0.75302 0.0
C2164 C 0.25859 0.41502 0.75307 0.0
C2165 C 0.25629 0.42552 0.7698 0.0
H2166 H 0.24627 0.40602 0.72696 0.0
C2167 C 0.24034 0.43725 0.77166 0.0
H2168 H 0.27079 0.40597 0.75109 0.0
C2169 C 0.22626 0.43727 0.7578 0.0
C2170 C 0.22783 0.42557 0.7418 0.0
H2171 H 0.23821 0.44568 0.78427 0.0
H2172 H 0.21369 0.44572 0.76015 0.0
C2173 C 0.2445 0.41504 0.73921 0.0
C2174 C 0.58325 0.25901 0.75427 0.0
C2175 C 0.5728 0.25643 0.771 0.0
H2176 H 0.59235 0.24704 0.72803 0.0
C2177 C 0.56124 0.24035 0.77271 0.0
H2178 H 0.59217 0.27132 0.7524 0.0
C2179 C 0.56134 0.22641 0.75871 0.0
C2180 C 0.57301 0.22826 0.74271 0.0
H2181 H 0.55285 0.23801 0.78532 0.0
H2182 H 0.55303 0.21373 0.76095 0.0
C2183 C 0.58336 0.24506 0.74027 0.0
C2184 C 0.7535 0.41477 0.25899 0.0
C2185 C 0.77017 0.42531 0.25646 0.0
H2186 H 0.72723 0.40574 0.24706 0.0
C2187 C 0.77176 0.43707 0.2405 0.0
H2188 H 0.75172 0.4057 0.27121 0.0
C2189 C 0.75769 0.4371 0.22664 0.0
C2190 C 0.74174 0.42537 0.22843 0.0
H2191 H 0.78433 0.44553 0.2382 0.0
H2192 H 0.75983 0.44558 0.21405 0.0
C2193 C 0.73943 0.4148 0.24512 0.0
C2194 C 0.58334 0.75343 0.25964 0.0
C2195 C 0.57282 0.77012 0.25717 0.0
H2196 H 0.59237 0.7272 0.2476 0.0
C2197 C 0.5611 0.7718 0.24119 0.0
H2198 H 0.59238 0.75158 0.27188 0.0
C2199 C 0.5611 0.7578 0.22725 0.0
C2200 C 0.57281 0.74183 0.229 0.0
H2201 H 0.55266 0.78438 0.23893 0.0
H2202 H 0.55266 0.76001 0.21466 0.0
C2203 C 0.58333 0.73942 0.2457 0.0
C2204 C 0.24052 0.56154 0.22726 0.0
C2205 C 0.25641 0.57337 0.22899 0.0
H2206 H 0.21397 0.55298 0.23892 0.0
C2207 C 0.2587 0.58398 0.24565 0.0
H2208 H 0.2384 0.55302 0.21471 0.0
C2209 C 0.24467 0.58396 0.25956 0.0
C2210 C 0.22805 0.57332 0.2571 0.0
H2211 H 0.27086 0.59311 0.24753 0.0
H2212 H 0.24643 0.59307 0.27175 0.0
C2213 C 0.22649 0.56151 0.24117 0.0
C2214 C 0.43723 0.22684 0.24075 0.0
C2215 C 0.42537 0.22841 0.25664 0.0
H2216 H 0.44583 0.23876 0.21432 0.0
C2217 C 0.41474 0.24504 0.25907 0.0
H2218 H 0.44576 0.21432 0.23852 0.0
C2219 C 0.41478 0.25908 0.24517 0.0
C2220 C 0.42545 0.25679 0.22855 0.0
H2221 H 0.40559 0.2468 0.27124 0.0
H2222 H 0.40566 0.27125 0.24703 0.0
C2223 C 0.43727 0.24089 0.22685 0.0
C2224 C 0.75438 0.73988 0.58388 0.0
C2225 C 0.77098 0.74233 0.57321 0.0
H2226 H 0.72822 0.75194 0.5931 0.0
C2227 C 0.77255 0.75826 0.56142 0.0
H2228 H 0.75262 0.72769 0.59299 0.0
C2229 C 0.75854 0.77219 0.56148 0.0
C2230 C 0.74267 0.77048 0.57334 0.0
H2231 H 0.78505 0.7605 0.55286 0.0
H2232 H 0.76066 0.78475 0.55296 0.0
C2233 C 0.74036 0.75381 0.58394 0.0
C2234 C 0.77096 0.24092 0.43717 0.0
C2235 C 0.76929 0.25674 0.42523 0.0
H2236 H 0.75925 0.21444 0.44586 0.0
C2237 C 0.75266 0.25899 0.41456 0.0
H2238 H 0.78349 0.23883 0.44573 0.0
C2239 C 0.73873 0.24497 0.41464 0.0
C2240 C 0.74115 0.22841 0.42538 0.0
H2241 H 0.75082 0.27109 0.40535 0.0
H2242 H 0.72657 0.24669 0.40548 0.0
C2243 C 0.75704 0.22691 0.43724 0.0
C2244 C 0.75386 0.73921 0.41438 0.0
C2245 C 0.77046 0.7416 0.42508 0.0
H2246 H 0.72769 0.7513 0.40526 0.0
C2247 C 0.77197 0.75742 0.43703 0.0
H2248 H 0.75214 0.7271 0.40516 0.0
C2249 C 0.75793 0.77132 0.43709 0.0
C2250 C 0.74208 0.76968 0.4252 0.0
H2251 H 0.78447 0.75961 0.44561 0.0
H2252 H 0.76003 0.7838 0.44572 0.0
C2253 C 0.73982 0.75311 0.41444 0.0
C2254 C 0.22644 0.75796 0.43719 0.0
C2255 C 0.22797 0.74204 0.42537 0.0
H2256 H 0.23841 0.78439 0.44571 0.0
C2257 C 0.2446 0.73954 0.41475 0.0
H2258 H 0.21392 0.76024 0.44571 0.0
C2259 C 0.25867 0.75341 0.41475 0.0
C2260 C 0.25641 0.77007 0.42537 0.0
H2261 H 0.24633 0.72735 0.40563 0.0
H2262 H 0.27083 0.7515 0.40562 0.0
C2263 C 0.24051 0.77183 0.43719 0.0
C2264 C 0.2586 0.24558 0.4146 0.0
C2265 C 0.25638 0.22892 0.42523 0.0
H2266 H 0.24626 0.2717 0.40564 0.0
C2267 C 0.24059 0.22719 0.43719 0.0
H2268 H 0.27068 0.24746 0.40537 0.0
C2269 C 0.22657 0.24111 0.43734 0.0
C2270 C 0.22804 0.25704 0.42554 0.0
H2271 H 0.23853 0.21464 0.44572 0.0
H2272 H 0.21412 0.23886 0.44599 0.0
C2273 C 0.24458 0.2595 0.41476 0.0
C2274 C 0.22681 0.24055 0.56187 0.0
C2275 C 0.22842 0.25637 0.57382 0.0
H2276 H 0.23867 0.21417 0.55308 0.0
C2277 C 0.24509 0.25873 0.58441 0.0
H2278 H 0.21425 0.23838 0.55336 0.0
C2279 C 0.25912 0.24482 0.58424 0.0
C2280 C 0.25677 0.22826 0.57348 0.0
H2281 H 0.24688 0.27083 0.59362 0.0
H2282 H 0.27131 0.24661 0.59334 0.0
C2283 C 0.24083 0.22665 0.5617 0.0
C2284 C 0.75382 0.25888 0.58426 0.0
C2285 C 0.77038 0.25638 0.57353 0.0
H2286 H 0.72765 0.24692 0.59356 0.0
C2287 C 0.77185 0.24046 0.56172 0.0
H2288 H 0.75214 0.27108 0.59338 0.0
C2289 C 0.75778 0.22658 0.56182 0.0
C2290 C 0.74196 0.22835 0.57373 0.0
H2291 H 0.78432 0.23818 0.55312 0.0
H2292 H 0.75984 0.21403 0.55329 0.0
C2293 C 0.73975 0.24501 0.58436 0.0
C2294 C 0.25813 0.75337 0.58373 0.0
C2295 C 0.25576 0.77006 0.57317 0.0
H2296 H 0.24593 0.72723 0.5928 0.0
C2297 C 0.2398 0.7718 0.56143 0.0
H2298 H 0.27033 0.75147 0.59278 0.0
C2299 C 0.22579 0.75788 0.56144 0.0
C2300 C 0.22743 0.74192 0.57319 0.0
H2301 H 0.23762 0.78438 0.55297 0.0
H2302 H 0.21322 0.76015 0.55298 0.0
C2303 C 0.24411 0.73944 0.58373 0.0
C2304 C 0.0083 0.21929 0.35309 0.0
C2305 C 0.01842 0.20595 0.34243 0.0
H2306 H 0.98124 0.23053 0.36033 0.0
C2307 C 0.00849 0.19134 0.33329 0.0
H2308 H 0.01557 0.23054 0.36052 0.0
C2309 C 0.98865 0.19133 0.33318 0.0
C2310 C 0.97861 0.20593 0.3422 0.0
H2311 H 0.01596 0.18085 0.32499 0.0
H2312 H 0.98129 0.18084 0.32479 0.0
C2313 C 0.98861 0.21928 0.35298 0.0
C2314 C 0.80732 0.98913 0.33302 0.0
C2315 C 0.79303 0.97907 0.3425 0.0
H2316 H 0.8174 0.01645 0.32439 0.0
C2317 C 0.77999 0.98904 0.35367 0.0
H2318 H 0.81758 0.98178 0.32434 0.0
C2319 C 0.77989 0.00873 0.35369 0.0
C2320 C 0.79283 0.01886 0.34256 0.0
H2321 H 0.76899 0.98165 0.36137 0.0
H2322 H 0.76882 0.01599 0.36141 0.0
C2323 C 0.80722 0.00897 0.33306 0.0
C2324 C 0.98927 0.80804 0.33182 0.0
C2325 C 0.97932 0.79372 0.34137 0.0
H2326 H 0.01651 0.8183 0.32313 0.0
C2327 C 0.9894 0.78081 0.35259 0.0
H2328 H 0.98184 0.81819 0.32308 0.0
C2329 C 0.00909 0.78087 0.35262 0.0
C2330 C 0.01912 0.79384 0.34143 0.0
H2331 H 0.9821 0.7698 0.36035 0.0
H2332 H 0.01643 0.7699 0.3604 0.0
C2333 C 0.00911 0.80811 0.33185 0.0
C2334 C 0.19145 0.00921 0.33291 0.0
C2335 C 0.20586 0.0192 0.34229 0.0
H2336 H 0.18117 0.98196 0.32431 0.0
C2337 C 0.21894 0.00915 0.35333 0.0
H2338 H 0.18116 0.01663 0.32432 0.0
C2339 C 0.21895 0.98946 0.35332 0.0
C2340 C 0.20588 0.9794 0.34228 0.0
H2341 H 0.23003 0.01647 0.36096 0.0
H2342 H 0.23005 0.98214 0.36095 0.0
C2343 C 0.19146 0.98937 0.33291 0.0
C2344 C 0.00925 0.78167 0.6458 0.0
C2345 C 0.01928 0.79438 0.65728 0.0
H2346 H 0.98224 0.77087 0.63775 0.0
C2347 C 0.0093 0.80854 0.66704 0.0
H2348 H 0.01658 0.77079 0.63788 0.0
C2349 C 0.98947 0.80858 0.66697 0.0
C2350 C 0.9795 0.79447 0.65713 0.0
H2351 H 0.01671 0.81853 0.67598 0.0
H2352 H 0.98204 0.81861 0.67586 0.0
C2353 C 0.98956 0.78172 0.64572 0.0
C2354 C 0.21831 0.00896 0.64528 0.0
C2355 C 0.20538 0.01908 0.65644 0.0
H2356 H 0.22927 0.98189 0.63764 0.0
C2357 C 0.19105 0.00916 0.66602 0.0
H2358 H 0.22933 0.01623 0.6375 0.0
C2359 C 0.19102 0.98932 0.6661 0.0
C2360 C 0.20531 0.97928 0.6566 0.0
H2361 H 0.18088 0.01663 0.67471 0.0
H2362 H 0.18082 0.98196 0.67485 0.0
C2363 C 0.21828 0.98927 0.64536 0.0
C2364 C 0.98983 0.2175 0.64574 0.0
C2365 C 0.97967 0.20461 0.65691 0.0
H2366 H 0.01692 0.2284 0.63811 0.0
C2367 C 0.98955 0.1903 0.66656 0.0
H2368 H 0.98259 0.22851 0.63791 0.0
C2369 C 0.00938 0.19023 0.66667 0.0
C2370 C 0.01947 0.20448 0.65714 0.0
H2371 H 0.98204 0.18016 0.67526 0.0
H2372 H 0.01672 0.18005 0.67546 0.0
C2373 C 0.00952 0.21743 0.64585 0.0
C2374 C 0.78041 0.00932 0.64573 0.0
C2375 C 0.79336 0.0194 0.6569 0.0
H2376 H 0.76944 0.98229 0.638 0.0
C2377 C 0.80772 0.00944 0.6664 0.0
H2378 H 0.76936 0.01662 0.63802 0.0
C2379 C 0.80776 0.98961 0.66639 0.0
C2380 C 0.79345 0.9796 0.65688 0.0
H2381 H 0.81791 0.01688 0.67509 0.0
H2382 H 0.81799 0.98221 0.67508 0.0
C2383 C 0.78045 0.98963 0.64572 0.0
C2384 C 0.33286 0.98916 0.1908 0.0
C2385 C 0.34228 0.97916 0.20518 0.0
H2386 H 0.32424 0.01643 0.18056 0.0
C2387 C 0.35334 0.98921 0.21826 0.0
H2388 H 0.32425 0.98175 0.18052 0.0
C2389 C 0.35333 0.0089 0.21828 0.0
C2390 C 0.34227 0.01897 0.20523 0.0
H2391 H 0.36099 0.98187 0.22932 0.0
H2392 H 0.36098 0.01621 0.22937 0.0
C2393 C 0.33286 0.009 0.19082 0.0
C2394 C 0.98977 0.3522 0.21893 0.0
C2395 C 0.97966 0.34142 0.20567 0.0
H2396 H 0.0168 0.35952 0.23015 0.0
C2397 C 0.98961 0.33215 0.19116 0.0
H2398 H 0.98248 0.35973 0.23011 0.0
C2399 C 0.00945 0.33202 0.19118 0.0
C2400 C 0.01947 0.34117 0.20572 0.0
H2401 H 0.98215 0.32376 0.18073 0.0
H2402 H 0.01683 0.32354 0.18078 0.0
C2403 C 0.00946 0.35207 0.21895 0.0
C2404 C 0.66573 0.98912 0.19102 0.0
C2405 C 0.65621 0.97926 0.20542 0.0
H2406 H 0.6745 0.01628 0.18062 0.0
C2407 C 0.6451 0.98944 0.21836 0.0
H2408 H 0.67438 0.98161 0.18084 0.0
C2409 C 0.64516 0.00913 0.21823 0.0
C2410 C 0.65634 0.01906 0.20517 0.0
H2411 H 0.63736 0.98221 0.22944 0.0
H2412 H 0.63747 0.01654 0.22922 0.0
C2413 C 0.6658 0.00896 0.19089 0.0
C2414 C 0.00914 0.64548 0.21807 0.0
C2415 C 0.01919 0.65658 0.20504 0.0
H2416 H 0.98213 0.63773 0.22908 0.0
C2417 C 0.00921 0.66597 0.19062 0.0
H2418 H 0.01646 0.63784 0.22916 0.0
C2419 C 0.98937 0.66591 0.19058 0.0
C2420 C 0.97939 0.65645 0.20495 0.0
H2421 H 0.01662 0.67461 0.18037 0.0
H2422 H 0.98195 0.67451 0.1803 0.0
C2423 C 0.98945 0.64541 0.21802 0.0
C2424 C 0.35382 0.98925 0.77931 0.0
C2425 C 0.34288 0.97925 0.79252 0.0
H2426 H 0.36142 0.01621 0.76809 0.0
C2427 C 0.33364 0.98929 0.80699 0.0
H2428 H 0.36133 0.98188 0.76816 0.0
C2429 C 0.33369 0.00912 0.80694 0.0
C2430 C 0.34298 0.01905 0.79243 0.0
H2431 H 0.32513 0.98191 0.81738 0.0
H2432 H 0.32521 0.01658 0.8173 0.0
C2433 C 0.35387 0.00894 0.77926 0.0
C2434 C 0.00852 0.33271 0.80754 0.0
C2435 C 0.01849 0.34209 0.79311 0.0
H2436 H 0.98129 0.32411 0.81786 0.0
C2437 C 0.00842 0.3531 0.78001 0.0
H2438 H 0.01596 0.32415 0.81784 0.0
C2439 C 0.98873 0.35308 0.78003 0.0
C2440 C 0.97869 0.34205 0.79313 0.0
H2441 H 0.01573 0.36072 0.7689 0.0
H2442 H 0.98139 0.36069 0.76893 0.0
C2443 C 0.98869 0.33269 0.80755 0.0
C2444 C 0.66563 0.00905 0.80784 0.0
C2445 C 0.65629 0.01909 0.79345 0.0
H2446 H 0.67416 0.98175 0.81806 0.0
C2447 C 0.64527 0.0091 0.7803 0.0
H2448 H 0.6742 0.01642 0.81818 0.0
C2449 C 0.64524 0.98941 0.78023 0.0
C2450 C 0.65624 0.97929 0.7933 0.0
H2451 H 0.63767 0.01647 0.76922 0.0
H2452 H 0.63763 0.98214 0.76909 0.0
C2453 C 0.6656 0.98921 0.80777 0.0
C2454 C 0.98917 0.66563 0.80764 0.0
C2455 C 0.97932 0.65618 0.79318 0.0
H2456 H 0.01633 0.67434 0.81808 0.0
C2457 C 0.9895 0.64512 0.7802 0.0
H2458 H 0.98166 0.67423 0.81785 0.0
C2459 C 0.00918 0.64519 0.78034 0.0
C2460 C 0.01911 0.6563 0.79345 0.0
H2461 H 0.98227 0.63745 0.76908 0.0
H2462 H 0.01661 0.63755 0.76931 0.0
C2463 C 0.00901 0.66569 0.80777 0.0
C2464 C 0.19215 0.3333 0.00913 0.0
C2465 C 0.20678 0.34245 0.01903 0.0
H2466 H 0.18157 0.32484 0.98195 0.0
C2467 C 0.22005 0.35316 0.00887 0.0
H2468 H 0.18171 0.32496 0.01662 0.0
C2469 C 0.21997 0.35309 0.98918 0.0
C2470 C 0.20662 0.3423 0.97921 0.0
H2471 H 0.23132 0.3606 0.01612 0.0
H2472 H 0.23118 0.36047 0.98178 0.0
C2473 C 0.19207 0.33323 0.98929 0.0
C2474 C 0.19106 0.66569 0.98968 0.0
C2475 C 0.20538 0.65619 0.97968 0.0
H2476 H 0.18087 0.67435 0.01695 0.0
C2477 C 0.21835 0.645 0.98971 0.0
H2478 H 0.18086 0.6744 0.98227 0.0
C2479 C 0.21836 0.64497 0.00941 0.0
C2480 C 0.20539 0.65613 0.01948 0.0
H2481 H 0.22937 0.63728 0.98237 0.0
H2482 H 0.22938 0.63723 0.01671 0.0
C2483 C 0.19106 0.66566 0.00952 0.0
C2484 C 0.33351 0.19134 0.00902 0.0
C2485 C 0.34273 0.20589 0.01897 0.0
H2486 H 0.32498 0.1809 0.98181 0.0
C2487 C 0.3535 0.21915 0.00885 0.0
H2488 H 0.32513 0.18091 0.01648 0.0
C2489 C 0.35341 0.21914 0.98916 0.0
C2490 C 0.34255 0.20587 0.97915 0.0
H2491 H 0.36099 0.23035 0.01614 0.0
H2492 H 0.36084 0.23035 0.9818 0.0
C2493 C 0.33343 0.19133 0.98918 0.0
C2494 C 0.77945 0.35391 0.98929 0.0
C2495 C 0.79254 0.3429 0.97922 0.0
H2496 H 0.76834 0.36149 0.01632 0.0
C2497 C 0.80698 0.33354 0.98919 0.0
H2498 H 0.76834 0.36153 0.98198 0.0
C2499 C 0.80698 0.33352 0.00903 0.0
C2500 C 0.79255 0.34286 0.01903 0.0
H2501 H 0.81727 0.32496 0.98176 0.0
H2502 H 0.81728 0.32493 0.01644 0.0
C2503 C 0.77945 0.3539 0.00898 0.0
C2504 C 0.66529 0.80693 0.00963 0.0
C2505 C 0.65611 0.7924 0.01963 0.0
H2506 H 0.67373 0.81733 0.98237 0.0
C2507 C 0.64531 0.77912 0.00958 0.0
H2508 H 0.6737 0.81737 0.01704 0.0
C2509 C 0.64533 0.77909 0.98989 0.0
C2510 C 0.65615 0.79234 0.97981 0.0
H2511 H 0.63784 0.76792 0.01691 0.0
H2512 H 0.63788 0.76787 0.98257 0.0
C2513 C 0.66531 0.80691 0.98979 0.0
C2514 C 0.77864 0.6452 0.00873 0.0
C2515 C 0.79193 0.65591 0.01886 0.0
H2516 H 0.76749 0.63786 0.98166 0.0
C2517 C 0.80656 0.66504 0.00894 0.0
H2518 H 0.76737 0.63778 0.01599 0.0
C2519 C 0.80662 0.66508 0.9891 0.0
C2520 C 0.79206 0.65601 0.97904 0.0
H2521 H 0.81701 0.67338 0.01642 0.0
H2522 H 0.81712 0.67346 0.98174 0.0
C2523 C 0.77871 0.64524 0.98903 0.0
C2524 C 0.3535 0.78003 0.00899 0.0
C2525 C 0.34242 0.79304 0.0191 0.0
H2526 H 0.36112 0.76901 0.98194 0.0
C2527 C 0.33295 0.80743 0.00916 0.0
H2528 H 0.3612 0.76896 0.01628 0.0
C2529 C 0.3329 0.80746 0.98932 0.0
C2530 C 0.34233 0.7931 0.97929 0.0
H2531 H 0.32433 0.81766 0.01661 0.0
H2532 H 0.32424 0.81772 0.98194 0.0
C2533 C 0.35346 0.78006 0.9893 0.0
C2534 C 0.64517 0.21752 0.98972 0.0
C2535 C 0.65652 0.20474 0.97963 0.0
H2536 H 0.63732 0.2284 0.01676 0.0
C2537 C 0.66624 0.19052 0.98958 0.0
H2538 H 0.63728 0.22845 0.98242 0.0
C2539 C 0.66626 0.1905 0.00942 0.0
C2540 C 0.65657 0.20468 0.01943 0.0
H2541 H 0.67508 0.18047 0.98213 0.0
H2542 H 0.67512 0.18042 0.01681 0.0
C2543 C 0.64519 0.2175 0.00941 0.0
C2544 C 0.48896 0.69106 0.83262 0.0
C2545 C 0.47896 0.70553 0.84189 0.0
H2546 H 0.51624 0.68069 0.82419 0.0
C2547 C 0.48898 0.71868 0.85287 0.0
H2548 H 0.48156 0.68072 0.82408 0.0
C2549 C 0.50867 0.71867 0.85294 0.0
C2550 C 0.51876 0.70551 0.84202 0.0
H2551 H 0.48164 0.72983 0.86041 0.0
H2552 H 0.51597 0.72981 0.86052 0.0
C2553 C 0.5088 0.69104 0.83269 0.0
C2554 C 0.30743 0.50919 0.83243 0.0
C2555 C 0.29309 0.51908 0.84203 0.0
H2556 H 0.3177 0.48201 0.82358 0.0
C2557 C 0.28019 0.50893 0.85319 0.0
H2558 H 0.31758 0.51668 0.82374 0.0
C2559 C 0.28025 0.48924 0.8531 0.0
C2560 C 0.29323 0.47928 0.84185 0.0
H2561 H 0.26916 0.51618 0.86098 0.0
H2562 H 0.26928 0.48185 0.86083 0.0
C2563 C 0.30749 0.48935 0.83234 0.0
C2564 C 0.50911 0.30779 0.83311 0.0
C2565 C 0.51894 0.29345 0.84276 0.0
H2566 H 0.48197 0.31806 0.82412 0.0
C2567 C 0.50874 0.28055 0.85388 0.0
H2568 H 0.51664 0.31793 0.82445 0.0
C2569 C 0.48905 0.28062 0.85368 0.0
C2570 C 0.47915 0.29359 0.84237 0.0
H2571 H 0.51594 0.26953 0.86171 0.0
H2572 H 0.48161 0.26964 0.86137 0.0
C2573 C 0.48927 0.30786 0.83292 0.0
C2574 C 0.7178 0.48946 0.85268 0.0
C2575 C 0.70474 0.47944 0.84159 0.0
H2576 H 0.729 0.51644 0.86027 0.0
C2577 C 0.69045 0.48946 0.83206 0.0
H2578 H 0.7288 0.48211 0.86042 0.0
C2579 C 0.69057 0.5093 0.83197 0.0
C2580 C 0.70497 0.51923 0.84142 0.0
H2581 H 0.68019 0.48206 0.82342 0.0
H2582 H 0.68039 0.51674 0.82328 0.0
C2583 C 0.71791 0.50915 0.85259 0.0
C2584 C 0.4895 0.28047 0.14515 0.0
C2585 C 0.47954 0.29347 0.15637 0.0
H2586 H 0.51645 0.26939 0.13727 0.0
C2587 C 0.4896 0.3078 0.16581 0.0
H2588 H 0.48212 0.26945 0.13748 0.0
C2589 C 0.50943 0.30776 0.16569 0.0
C2590 C 0.51933 0.29341 0.15613 0.0
H2591 H 0.48225 0.31802 0.17453 0.0
H2592 H 0.51692 0.31796 0.17433 0.0
C2593 C 0.50919 0.28044 0.14503 0.0
C2594 C 0.71711 0.48931 0.14532 0.0
C2595 C 0.70432 0.47923 0.15667 0.0
H2596 H 0.72798 0.51634 0.13744 0.0
C2597 C 0.69009 0.48918 0.16637 0.0
H2598 H 0.72805 0.482 0.13745 0.0
C2599 C 0.69005 0.50902 0.16637 0.0
C2600 C 0.70424 0.51903 0.15666 0.0
H2601 H 0.68003 0.48175 0.17521 0.0
H2602 H 0.67996 0.51642 0.1752 0.0
C2603 C 0.71707 0.509 0.14532 0.0
C2604 C 0.5091 0.69061 0.16634 0.0
C2605 C 0.51911 0.7049 0.1568 0.0
H2606 H 0.48182 0.68043 0.17497 0.0
C2607 C 0.50911 0.7178 0.14551 0.0
H2608 H 0.51649 0.68046 0.17513 0.0
C2609 C 0.48942 0.71778 0.14541 0.0
C2610 C 0.47932 0.70486 0.15661 0.0
H2611 H 0.51646 0.72879 0.13776 0.0
H2612 H 0.48212 0.72876 0.1376 0.0
C2613 C 0.48927 0.69059 0.16625 0.0
C2614 C 0.30781 0.48967 0.16666 0.0
C2615 C 0.29354 0.47966 0.15709 0.0
H2616 H 0.31791 0.51695 0.17539 0.0
C2617 C 0.28058 0.48968 0.14588 0.0
H2618 H 0.318 0.48228 0.17538 0.0
C2619 C 0.28053 0.50937 0.14588 0.0
C2620 C 0.29344 0.51946 0.15709 0.0
H2621 H 0.26961 0.48233 0.13811 0.0
H2622 H 0.26952 0.51667 0.13812 0.0
C2623 C 0.30776 0.50951 0.16666 0.0
C2624 C 0.83273 0.50887 0.6908 0.0
C2625 C 0.84208 0.51886 0.70523 0.0
H2626 H 0.82404 0.48162 0.68057 0.0
C2627 C 0.85297 0.50879 0.71843 0.0
H2628 H 0.82425 0.51629 0.68042 0.0
C2629 C 0.85284 0.4891 0.71852 0.0
C2630 C 0.84184 0.47905 0.7054 0.0
H2631 H 0.86057 0.51611 0.72954 0.0
H2632 H 0.86036 0.48178 0.72969 0.0
C2633 C 0.83261 0.48903 0.69089 0.0
C2634 C 0.50923 0.85263 0.71856 0.0
C2635 C 0.51934 0.84172 0.70541 0.0
H2636 H 0.48217 0.86014 0.72963 0.0
C2637 C 0.50942 0.83243 0.6909 0.0
H2638 H 0.5165 0.86018 0.72973 0.0
C2639 C 0.48958 0.8324 0.69083 0.0
C2640 C 0.47954 0.84167 0.70528 0.0
H2641 H 0.51688 0.82394 0.68056 0.0
H2642 H 0.4822 0.82389 0.68044 0.0
C2643 C 0.48954 0.8526 0.7185 0.0
C2644 C 0.14472 0.50945 0.7187 0.0
C2645 C 0.15578 0.51947 0.7056 0.0
H2646 H 0.13705 0.48247 0.72983 0.0
C2647 C 0.16514 0.50945 0.6912 0.0
H2648 H 0.13711 0.5168 0.72979 0.0
C2649 C 0.1651 0.48962 0.69122 0.0
C2650 C 0.1557 0.47967 0.70565 0.0
H2651 H 0.17374 0.51684 0.6809 0.0
H2652 H 0.17367 0.48217 0.68094 0.0
C2653 C 0.14469 0.48976 0.71873 0.0
C2654 C 0.48971 0.14535 0.71802 0.0
C2655 C 0.47977 0.15666 0.70508 0.0
H2656 H 0.51662 0.13741 0.72912 0.0
C2657 C 0.48987 0.16622 0.69086 0.0
H2658 H 0.48229 0.13758 0.72895 0.0
C2659 C 0.5097 0.16613 0.69096 0.0
C2660 C 0.51956 0.15647 0.70528 0.0
H2661 H 0.48254 0.17503 0.68069 0.0
H2662 H 0.51721 0.17487 0.68086 0.0
C2663 C 0.50939 0.14525 0.71811 0.0
C2664 C 0.85331 0.48944 0.27944 0.0
C2665 C 0.84232 0.47939 0.29256 0.0
H2666 H 0.86086 0.51645 0.26829 0.0
C2667 C 0.83295 0.48937 0.30699 0.0
H2668 H 0.86092 0.48212 0.26834 0.0
C2669 C 0.83292 0.50921 0.30696 0.0
C2670 C 0.84225 0.51919 0.29251 0.0
H2671 H 0.82439 0.48196 0.31731 0.0
H2672 H 0.82434 0.51663 0.31726 0.0
C2673 C 0.85327 0.50914 0.27941 0.0
C2674 C 0.50884 0.8327 0.3079 0.0
C2675 C 0.51885 0.84219 0.29357 0.0
H2676 H 0.48158 0.82399 0.31805 0.0
C2677 C 0.50882 0.85331 0.28054 0.0
H2678 H 0.51625 0.82405 0.31815 0.0
C2679 C 0.48913 0.85328 0.28048 0.0
C2680 C 0.47905 0.84213 0.29346 0.0
H2681 H 0.51616 0.86102 0.26952 0.0
H2682 H 0.48183 0.86096 0.26942 0.0
C2683 C 0.48901 0.83267 0.30784 0.0
C2684 C 0.14497 0.48939 0.27955 0.0
C2685 C 0.15585 0.47932 0.29275 0.0
H2686 H 0.13743 0.51641 0.26841 0.0
C2687 C 0.16506 0.48929 0.30728 0.0
H2688 H 0.13748 0.48208 0.26835 0.0
C2689 C 0.16503 0.50913 0.30732 0.0
C2690 C 0.1558 0.51913 0.29282 0.0
H2691 H 0.17353 0.48187 0.31767 0.0
H2692 H 0.17349 0.51654 0.31773 0.0
C2693 C 0.14494 0.50908 0.27958 0.0
C2694 C 0.50938 0.16549 0.30703 0.0
C2695 C 0.51933 0.15616 0.29255 0.0
H2696 H 0.48216 0.17404 0.31742 0.0
C2697 C 0.50925 0.14519 0.27944 0.0
H2698 H 0.51683 0.17402 0.31735 0.0
C2699 C 0.48956 0.14521 0.27948 0.0
C2700 C 0.47953 0.15619 0.29263 0.0
H2701 H 0.51654 0.13761 0.26829 0.0
H2702 H 0.48221 0.13764 0.26836 0.0
C2703 C 0.48955 0.1655 0.30707 0.0
C2704 C 0.71916 0.85299 0.48943 0.0
C2705 C 0.70599 0.84197 0.47948 0.0
H2706 H 0.73035 0.86076 0.51636 0.0
C2707 C 0.69155 0.83272 0.48957 0.0
H2708 H 0.73027 0.86051 0.48203 0.0
C2709 C 0.6916 0.83286 0.50941 0.0
C2710 C 0.70608 0.84225 0.51929 0.0
H2711 H 0.6812 0.82414 0.48223 0.0
H2712 H 0.68128 0.82438 0.51691 0.0
C2713 C 0.7192 0.85314 0.50912 0.0
C2714 C 0.71857 0.14545 0.49 0.0
C2715 C 0.70537 0.15635 0.47995 0.0
H2716 H 0.72976 0.13793 0.517 0.0
C2717 C 0.69089 0.16563 0.48995 0.0
H2718 H 0.72972 0.13791 0.48266 0.0
C2719 C 0.69092 0.16564 0.50979 0.0
C2720 C 0.70542 0.15637 0.51976 0.0
H2721 H 0.68051 0.17411 0.48253 0.0
H2722 H 0.68056 0.17413 0.51721 0.0
C2723 C 0.71859 0.14546 0.50969 0.0
C2724 C 0.83397 0.69178 0.5091 0.0
C2725 C 0.84314 0.70639 0.51899 0.0
H2726 H 0.82549 0.68122 0.48191 0.0
C2727 C 0.8539 0.71963 0.50884 0.0
H2728 H 0.8256 0.68136 0.51658 0.0
C2729 C 0.85383 0.71955 0.48915 0.0
C2730 C 0.84301 0.70623 0.47918 0.0
H2731 H 0.86136 0.73088 0.51609 0.0
H2732 H 0.86124 0.73075 0.48176 0.0
C2733 C 0.83391 0.69169 0.48926 0.0
C2734 C 0.30724 0.83251 0.48953 0.0
C2735 C 0.29294 0.84198 0.47947 0.0
H2736 H 0.31733 0.82386 0.51684 0.0
C2737 C 0.27986 0.85309 0.48946 0.0
H2738 H 0.31752 0.82386 0.48217 0.0
C2739 C 0.27975 0.85309 0.50915 0.0
C2740 C 0.29272 0.84198 0.51928 0.0
H2741 H 0.26886 0.86078 0.48208 0.0
H2742 H 0.26866 0.86078 0.51642 0.0
C2743 C 0.30713 0.83251 0.50937 0.0
C2744 C 0.16533 0.30716 0.49034 0.0
C2745 C 0.15603 0.29272 0.48031 0.0
H2746 H 0.17389 0.31742 0.51762 0.0
C2747 C 0.14511 0.27952 0.49035 0.0
H2748 H 0.17383 0.31754 0.48294 0.0
C2749 C 0.14514 0.27945 0.51004 0.0
C2750 C 0.15609 0.29258 0.52013 0.0
H2751 H 0.13755 0.2684 0.48299 0.0
H2752 H 0.1376 0.26828 0.51733 0.0
C2753 C 0.16536 0.30709 0.51018 0.0
C2754 C 0.3075 0.16599 0.50896 0.0
C2755 C 0.29311 0.15654 0.51892 0.0
H2756 H 0.31775 0.17474 0.48173 0.0
C2757 C 0.28001 0.14557 0.50882 0.0
H2758 H 0.31781 0.17454 0.51641 0.0
C2759 C 0.27998 0.14568 0.48913 0.0
C2760 C 0.29305 0.15677 0.47911 0.0
H2761 H 0.26893 0.13789 0.51612 0.0
H2762 H 0.26888 0.13809 0.48178 0.0
C2763 C 0.30747 0.1661 0.48912 0.0
C2764 C 0.85279 0.27945 0.48907 0.0
C2765 C 0.84178 0.29267 0.47917 0.0
H2766 H 0.86058 0.26818 0.51596 0.0
C2767 C 0.8326 0.30712 0.4893 0.0
H2768 H 0.86026 0.26833 0.48163 0.0
C2769 C 0.83279 0.30703 0.50914 0.0
C2770 C 0.84215 0.2925 0.51898 0.0
H2771 H 0.82404 0.31751 0.482 0.0
H2772 H 0.82436 0.31737 0.51668 0.0
C2773 C 0.85297 0.27937 0.50876 0.0
C2774 C 0.14443 0.71947 0.50913 0.0
C2775 C 0.15522 0.70619 0.5192 0.0
H2776 H 0.1371 0.73076 0.48211 0.0
C2777 C 0.16444 0.69168 0.50921 0.0
H2778 H 0.13693 0.73065 0.51645 0.0
C2779 C 0.16454 0.69174 0.48937 0.0
C2780 C 0.15541 0.70632 0.47938 0.0
H2781 H 0.17284 0.68123 0.51663 0.0
H2782 H 0.173 0.68134 0.48196 0.0
C2783 C 0.14453 0.71953 0.48943 0.0
C2784 C 0.15909 0.14495 0.28798 0.0
C2785 C 0.1583 0.12965 0.30062 0.0
H2786 H 0.14668 0.17086 0.27879 0.0
C2787 C 0.14245 0.12779 0.31251 0.0
H2788 H 0.17096 0.14668 0.27845 0.0
C2789 C 0.12838 0.14179 0.3127 0.0
C2790 C 0.13003 0.15781 0.30101 0.0
H2791 H 0.14146 0.11612 0.32238 0.0
H2792 H 0.11685 0.14061 0.32272 0.0
C2793 C 0.14514 0.15884 0.28818 0.0
C2794 C 0.85259 0.15876 0.28758 0.0
C2795 C 0.86781 0.15799 0.30032 0.0
H2796 H 0.82676 0.14633 0.27824 0.0
C2797 C 0.86962 0.14216 0.31222 0.0
H2798 H 0.85092 0.17063 0.27803 0.0
C2799 C 0.85562 0.12808 0.31234 0.0
C2800 C 0.83968 0.1297 0.30056 0.0
H2801 H 0.88123 0.14118 0.32217 0.0
H2802 H 0.85674 0.11656 0.32238 0.0
C2803 C 0.83871 0.1448 0.2877 0.0
C2804 C 0.85333 0.83953 0.28697 0.0
C2805 C 0.86855 0.84038 0.2997 0.0
H2806 H 0.82743 0.85183 0.27763 0.0
C2807 C 0.87029 0.85624 0.31159 0.0
H2808 H 0.85171 0.82764 0.27744 0.0
C2809 C 0.85622 0.87025 0.3117 0.0
C2810 C 0.84028 0.86854 0.29993 0.0
H2811 H 0.88189 0.85728 0.32153 0.0
H2812 H 0.8573 0.88178 0.32172 0.0
C2813 C 0.83939 0.85342 0.28708 0.0
C2814 C 0.14535 0.83981 0.28714 0.0
C2815 C 0.13013 0.84071 0.29986 0.0
H2816 H 0.17129 0.85206 0.27782 0.0
C2817 C 0.1284 0.85657 0.31174 0.0
H2818 H 0.14696 0.82792 0.27762 0.0
C2819 C 0.1425 0.87056 0.31185 0.0
C2820 C 0.15845 0.86881 0.30009 0.0
H2821 H 0.11679 0.85764 0.32167 0.0
H2822 H 0.14144 0.8821 0.32187 0.0
C2823 C 0.15933 0.85368 0.28726 0.0
C2824 C 0.14224 0.87046 0.68719 0.0
C2825 C 0.15817 0.86873 0.69898 0.0
H2826 H 0.1166 0.85749 0.67728 0.0
C2827 C 0.15907 0.85358 0.71179 0.0
H2828 H 0.14117 0.88202 0.6772 0.0
C2829 C 0.14514 0.83967 0.71184 0.0
C2830 C 0.12995 0.84054 0.69908 0.0
H2831 H 0.17101 0.85198 0.72125 0.0
H2832 H 0.14676 0.82775 0.72133 0.0
C2833 C 0.1282 0.85643 0.68724 0.0
C2834 C 0.1595 0.14474 0.71165 0.0
C2835 C 0.15857 0.12964 0.69878 0.0
H2836 H 0.14715 0.17047 0.72141 0.0
C2837 C 0.14256 0.12791 0.6871 0.0
H2838 H 0.1715 0.14635 0.72103 0.0
C2839 C 0.12846 0.14189 0.68731 0.0
C2840 C 0.13023 0.15773 0.69922 0.0
H2841 H 0.14146 0.11639 0.67706 0.0
H2842 H 0.11681 0.14083 0.67743 0.0
C2843 C 0.14551 0.1586 0.71187 0.0
C2844 C 0.87032 0.14201 0.68672 0.0
C2845 C 0.86868 0.15794 0.69851 0.0
H2846 H 0.85721 0.11642 0.67684 0.0
C2847 C 0.85356 0.15891 0.71134 0.0
H2848 H 0.88186 0.14088 0.6767 0.0
C2849 C 0.83959 0.14505 0.71142 0.0
C2850 C 0.84037 0.12984 0.69867 0.0
H2851 H 0.85202 0.17087 0.7208 0.0
H2852 H 0.8277 0.14672 0.72094 0.0
C2853 C 0.85623 0.12802 0.68679 0.0
C2854 C 0.85362 0.8398 0.71173 0.0
C2855 C 0.86883 0.84072 0.69898 0.0
H2856 H 0.82774 0.85208 0.72116 0.0
C2857 C 0.87058 0.85664 0.68719 0.0
H2858 H 0.85199 0.82786 0.72119 0.0
C2859 C 0.85653 0.87067 0.68718 0.0
C2860 C 0.84059 0.8689 0.69895 0.0
H2861 H 0.88218 0.85773 0.67725 0.0
H2862 H 0.85761 0.88226 0.67722 0.0
C2863 C 0.83969 0.85371 0.71171 0.0
C2864 C 0.31238 0.14231 0.12823 0.0
C2865 C 0.3007 0.15831 0.13002 0.0
H2866 H 0.32216 0.11657 0.14112 0.0
C2867 C 0.28798 0.15927 0.14524 0.0
H2868 H 0.32231 0.14118 0.11662 0.0
C2869 C 0.28789 0.14532 0.15913 0.0
C2870 C 0.30052 0.13003 0.15818 0.0
H2871 H 0.2786 0.17128 0.1469 0.0
H2872 H 0.27845 0.14699 0.17109 0.0
C2873 C 0.31229 0.12824 0.14224 0.0
C2874 C 0.85306 0.28774 0.15875 0.0
C2875 C 0.8683 0.30044 0.15785 0.0
H2876 H 0.82714 0.27841 0.14648 0.0
C2877 C 0.87005 0.31229 0.14197 0.0
H2878 H 0.85143 0.27824 0.17066 0.0
C2879 C 0.85598 0.31239 0.12796 0.0
C2880 C 0.84002 0.30064 0.1297 0.0
H2881 H 0.88167 0.3222 0.1409 0.0
H2882 H 0.85706 0.32238 0.1164 0.0
C2883 C 0.83911 0.28784 0.14486 0.0
C2884 C 0.71073 0.85309 0.15978 0.0
C2885 C 0.69801 0.86831 0.15879 0.0
H2886 H 0.7202 0.82719 0.14757 0.0
C2887 C 0.68627 0.87004 0.14282 0.0
H2888 H 0.72014 0.85148 0.17176 0.0
C2889 C 0.6863 0.85597 0.12881 0.0
C2890 C 0.69807 0.84003 0.13063 0.0
H2891 H 0.67634 0.88164 0.14167 0.0
H2892 H 0.6764 0.85704 0.11717 0.0
C2893 C 0.71076 0.83914 0.14588 0.0
C2894 C 0.15921 0.7112 0.14498 0.0
C2895 C 0.15837 0.69838 0.12983 0.0
H2896 H 0.14684 0.72072 0.17079 0.0
C2897 C 0.14249 0.68653 0.1281 0.0
H2898 H 0.17112 0.7207 0.14658 0.0
C2899 C 0.12843 0.68654 0.14212 0.0
C2900 C 0.13011 0.69841 0.158 0.0
H2901 H 0.14146 0.67652 0.11655 0.0
H2902 H 0.11687 0.67655 0.14106 0.0
C2903 C 0.14526 0.71121 0.15888 0.0
C2904 C 0.28773 0.85322 0.8393 0.0
C2905 C 0.30055 0.86835 0.84022 0.0
H2906 H 0.27808 0.82744 0.85163 0.0
C2907 C 0.31229 0.87008 0.85618 0.0
H2908 H 0.27831 0.85161 0.82732 0.0
C2909 C 0.31216 0.85608 0.87026 0.0
C2910 C 0.30028 0.84022 0.86851 0.0
H2911 H 0.32229 0.88163 0.85728 0.0
H2912 H 0.32207 0.85714 0.8819 0.0
C2913 C 0.2876 0.83934 0.85326 0.0
C2914 C 0.15909 0.28769 0.85316 0.0
C2915 C 0.1583 0.30041 0.8684 0.0
H2916 H 0.14662 0.27828 0.82737 0.0
C2917 C 0.14239 0.31221 0.87028 0.0
H2918 H 0.17102 0.27822 0.85144 0.0
C2919 C 0.12826 0.31224 0.85634 0.0
C2920 C 0.12989 0.30048 0.84038 0.0
H2921 H 0.1414 0.32214 0.8819 0.0
H2922 H 0.11667 0.3222 0.85752 0.0
C2923 C 0.14508 0.28773 0.83934 0.0
C2924 C 0.71116 0.15915 0.85387 0.0
C2925 C 0.6984 0.15828 0.86906 0.0
H2926 H 0.72064 0.1468 0.82803 0.0
C2927 C 0.68661 0.14236 0.87084 0.0
H2928 H 0.72062 0.17109 0.85222 0.0
C2929 C 0.68662 0.12829 0.85683 0.0
C2930 C 0.69842 0.13 0.84091 0.0
H2931 H 0.67665 0.1413 0.88243 0.0
H2932 H 0.67666 0.1167 0.85793 0.0
C2933 C 0.71117 0.1452 0.83998 0.0
C2934 C 0.85315 0.71074 0.83889 0.0
C2935 C 0.86836 0.69801 0.83988 0.0
H2936 H 0.82726 0.72023 0.8511 0.0
C2937 C 0.87008 0.68627 0.85585 0.0
H2938 H 0.85154 0.72016 0.82691 0.0
C2939 C 0.85601 0.68631 0.86986 0.0
C2940 C 0.84009 0.69809 0.86804 0.0
H2941 H 0.88168 0.67633 0.85699 0.0
H2942 H 0.85708 0.6764 0.8815 0.0
C2943 C 0.8392 0.71078 0.85279 0.0
C2944 C 0.16028 0.28741 0.14541 0.0
C2945 C 0.15918 0.30011 0.13019 0.0
H2946 H 0.14811 0.27777 0.17128 0.0
C2947 C 0.14307 0.31164 0.12841 0.0
H2948 H 0.17237 0.27814 0.14707 0.0
C2949 C 0.12901 0.31143 0.14244 0.0
C2950 C 0.13093 0.29968 0.15838 0.0
H2951 H 0.14183 0.32156 0.1168 0.0
H2952 H 0.11725 0.32118 0.14132 0.0
C2953 C 0.14634 0.28719 0.15932 0.0
C2954 C 0.15906 0.71112 0.85396 0.0
C2955 C 0.15819 0.6983 0.8691 0.0
H2956 H 0.14672 0.72067 0.82814 0.0
C2957 C 0.14229 0.68647 0.87082 0.0
H2958 H 0.17098 0.7206 0.85236 0.0
C2959 C 0.12824 0.68651 0.85679 0.0
C2960 C 0.12995 0.69837 0.84091 0.0
H2961 H 0.14124 0.67647 0.88237 0.0
H2962 H 0.11666 0.67653 0.85784 0.0
C2963 C 0.14512 0.71115 0.84005 0.0
C2964 C 0.28803 0.15898 0.85283 0.0
C2965 C 0.30073 0.15811 0.86807 0.0
H2966 H 0.27866 0.14666 0.82695 0.0
C2967 C 0.31257 0.14222 0.86984 0.0
H2968 H 0.27854 0.1709 0.85118 0.0
C2969 C 0.31264 0.12818 0.85581 0.0
C2970 C 0.30088 0.12989 0.83985 0.0
H2971 H 0.32249 0.14117 0.88147 0.0
H2972 H 0.32261 0.11661 0.85692 0.0
C2973 C 0.2881 0.14505 0.83891 0.0
C2974 C 0.85272 0.28743 0.83947 0.0
C2975 C 0.86795 0.30014 0.84029 0.0
H2976 H 0.82682 0.27814 0.85181 0.0
C2977 C 0.86973 0.31204 0.85614 0.0
H2978 H 0.85107 0.2779 0.82759 0.0
C2979 C 0.85568 0.31218 0.87017 0.0
C2980 C 0.83972 0.30043 0.86849 0.0
H2981 H 0.88135 0.32196 0.85715 0.0
H2982 H 0.85679 0.32221 0.8817 0.0
C2983 C 0.83879 0.28758 0.85338 0.0
C2984 C 0.6862 0.8702 0.85634 0.0
C2985 C 0.69801 0.86842 0.84042 0.0
H2986 H 0.67619 0.85725 0.88196 0.0
C2987 C 0.71068 0.85317 0.8395 0.0
H2988 H 0.67631 0.88184 0.85743 0.0
C2989 C 0.71061 0.83923 0.8534 0.0
C2990 C 0.69787 0.84017 0.8686 0.0
H2991 H 0.72015 0.85151 0.82756 0.0
H2992 H 0.72002 0.82725 0.85177 0.0
C2993 C 0.68614 0.85614 0.87036 0.0
C2994 C 0.83907 0.7105 0.1449 0.0
C2995 C 0.83994 0.69767 0.12976 0.0
H2996 H 0.85147 0.72018 0.17063 0.0
C2997 C 0.85591 0.68594 0.12798 0.0
H2998 H 0.82709 0.71992 0.14654 0.0
C2999 C 0.87003 0.68609 0.14194 0.0
C3000 C 0.86833 0.69798 0.1578 0.0
H3001 H 0.85697 0.67593 0.11644 0.0
H3002 H 0.88167 0.67619 0.14085 0.0
C3003 C 0.85307 0.71066 0.15873 0.0
C3004 C 0.31215 0.85601 0.12813 0.0
C3005 C 0.30039 0.84006 0.12988 0.0
H3006 H 0.32203 0.88167 0.14108 0.0
C3007 C 0.28763 0.83914 0.14506 0.0
H3008 H 0.32212 0.8571 0.11655 0.0
C3009 C 0.28758 0.85307 0.15898 0.0
C3010 C 0.30029 0.8683 0.15807 0.0
H3011 H 0.27819 0.82718 0.14669 0.0
H3012 H 0.2781 0.85143 0.17091 0.0
C3013 C 0.3121 0.87006 0.14216 0.0
C3014 C 0.71156 0.15906 0.14515 0.0
C3015 C 0.69881 0.15819 0.12995 0.0
H3016 H 0.72104 0.14669 0.17097 0.0
C3017 C 0.68704 0.14226 0.12815 0.0
H3018 H 0.721 0.17101 0.14681 0.0
C3019 C 0.68706 0.12817 0.14214 0.0
C3020 C 0.69885 0.12988 0.15807 0.0
H3021 H 0.67709 0.1412 0.11655 0.0
H3022 H 0.67712 0.11657 0.14102 0.0
C3023 C 0.71158 0.14509 0.15902 0.0
C3024 C 0.64504 0.65905 0.7873 0.0
C3025 C 0.62992 0.65805 0.80013 0.0
H3026 H 0.67086 0.64684 0.77761 0.0
C3027 C 0.62824 0.64205 0.81183 0.0
H3028 H 0.64661 0.67105 0.7779 0.0
C3029 C 0.64229 0.62802 0.81166 0.0
C3030 C 0.65815 0.62986 0.79978 0.0
H3031 H 0.6167 0.6409 0.82184 0.0
H3032 H 0.64128 0.61636 0.82155 0.0
C3033 C 0.65897 0.64514 0.78713 0.0
C3034 C 0.33891 0.64503 0.78744 0.0
C3035 C 0.33985 0.62986 0.80023 0.0
H3036 H 0.35116 0.67089 0.7779 0.0
C3037 C 0.35579 0.62816 0.81201 0.0
H3038 H 0.32696 0.64662 0.77799 0.0
C3039 C 0.36981 0.64222 0.81196 0.0
C3040 C 0.36802 0.65811 0.80012 0.0
H3041 H 0.3569 0.61659 0.82199 0.0
H3042 H 0.38142 0.64118 0.8219 0.0
C3043 C 0.35281 0.65897 0.78739 0.0
C3044 C 0.35332 0.33964 0.78687 0.0
C3045 C 0.36846 0.34055 0.79969 0.0
H3046 H 0.3275 0.35192 0.77728 0.0
C3047 C 0.37015 0.35649 0.81148 0.0
H3048 H 0.35174 0.32769 0.77741 0.0
C3049 C 0.35611 0.37052 0.81141 0.0
C3050 C 0.34024 0.36876 0.79955 0.0
H3051 H 0.3817 0.35758 0.82148 0.0
H3052 H 0.35714 0.38212 0.82136 0.0
C3053 C 0.3394 0.35356 0.7868 0.0
C3054 C 0.62765 0.3562 0.81244 0.0
C3055 C 0.62931 0.34025 0.80066 0.0
H3056 H 0.64067 0.38187 0.82221 0.0
C3057 C 0.64436 0.33935 0.78775 0.0
H3058 H 0.61616 0.35727 0.82252 0.0
C3059 C 0.65825 0.3533 0.78757 0.0
C3060 C 0.65746 0.36851 0.8003 0.0
H3061 H 0.64591 0.3274 0.77829 0.0
H3062 H 0.6701 0.35167 0.77798 0.0
C3063 C 0.64166 0.37026 0.81226 0.0
C3064 C 0.65874 0.35348 0.21119 0.0
C3065 C 0.65791 0.36866 0.19841 0.0
H3066 H 0.64642 0.3276 0.22058 0.0
C3067 C 0.64208 0.37037 0.18649 0.0
H3068 H 0.6706 0.35189 0.22075 0.0
C3069 C 0.62807 0.3563 0.18639 0.0
C3070 C 0.62976 0.34039 0.19821 0.0
H3071 H 0.64106 0.38194 0.17651 0.0
H3072 H 0.61656 0.35734 0.17634 0.0
C3073 C 0.64484 0.33953 0.21109 0.0
C3074 C 0.64469 0.65884 0.21168 0.0
C3075 C 0.6295 0.65802 0.19893 0.0
H3076 H 0.67054 0.64646 0.22107 0.0
C3077 C 0.62772 0.64216 0.18705 0.0
H3078 H 0.64634 0.67073 0.22121 0.0
C3079 C 0.64174 0.6281 0.18698 0.0
C3080 C 0.65767 0.62978 0.19877 0.0
H3081 H 0.61612 0.64115 0.1771 0.0
H3082 H 0.64064 0.61657 0.17696 0.0
C3083 C 0.65859 0.6449 0.2116 0.0
C3084 C 0.35338 0.6591 0.21147 0.0
C3085 C 0.36851 0.65814 0.19864 0.0
H3086 H 0.32754 0.64688 0.22109 0.0
C3087 C 0.37016 0.64219 0.18686 0.0
H3088 H 0.35183 0.67106 0.22093 0.0
C3089 C 0.35609 0.62819 0.18696 0.0
C3090 C 0.34023 0.63 0.19883 0.0
H3091 H 0.3817 0.64107 0.17685 0.0
H3092 H 0.35709 0.61658 0.17701 0.0
C3093 C 0.33943 0.64521 0.21157 0.0
C3094 C 0.37044 0.35647 0.18703 0.0
C3095 C 0.36866 0.34047 0.19872 0.0
H3096 H 0.35753 0.38219 0.17723 0.0
C3097 C 0.35345 0.33951 0.21145 0.0
H3098 H 0.38204 0.3576 0.17709 0.0
C3099 C 0.33956 0.35346 0.21154 0.0
C3100 C 0.34049 0.36873 0.19889 0.0
H3101 H 0.3518 0.32751 0.22084 0.0
H3102 H 0.3276 0.35179 0.22099 0.0
C3103 C 0.35643 0.37053 0.18711 0.0
C3104 C 0.78826 0.65953 0.64488 0.0
C3105 C 0.80105 0.65862 0.62972 0.0
H3106 H 0.77862 0.64714 0.67064 0.0
C3107 C 0.81275 0.64264 0.62792 0.0
H3108 H 0.77887 0.67152 0.64655 0.0
C3109 C 0.81261 0.62851 0.64188 0.0
C3110 C 0.80076 0.63024 0.65777 0.0
H3111 H 0.82274 0.64155 0.61635 0.0
H3112 H 0.82248 0.61686 0.64076 0.0
C3113 C 0.78812 0.64552 0.65872 0.0
C3114 C 0.33878 0.78726 0.64502 0.0
C3115 C 0.33965 0.79996 0.62977 0.0
H3116 H 0.35117 0.77784 0.67085 0.0
C3117 C 0.3556 0.8117 0.62791 0.0
H3118 H 0.32682 0.77784 0.64674 0.0
C3119 C 0.36971 0.81169 0.64188 0.0
C3120 C 0.36801 0.79995 0.65785 0.0
H3121 H 0.35666 0.82161 0.61628 0.0
H3122 H 0.38133 0.8216 0.64071 0.0
C3123 C 0.35277 0.78726 0.65887 0.0
C3124 C 0.18605 0.35582 0.62871 0.0
C3125 C 0.1979 0.33995 0.63061 0.0
H3126 H 0.17596 0.38151 0.64144 0.0
C3127 C 0.2106 0.33921 0.64586 0.0
H3128 H 0.17613 0.35677 0.61707 0.0
C3129 C 0.2105 0.35324 0.65968 0.0
C3130 C 0.1977 0.36838 0.65861 0.0
H3131 H 0.2201 0.32732 0.64761 0.0
H3132 H 0.21993 0.35174 0.67166 0.0
C3133 C 0.18595 0.36996 0.64264 0.0
C3134 C 0.65921 0.21128 0.64599 0.0
C3135 C 0.65826 0.19857 0.63076 0.0
H3136 H 0.64697 0.2207 0.6719 0.0
C3137 C 0.64232 0.18681 0.62901 0.0
H3138 H 0.67117 0.22072 0.64763 0.0
C3139 C 0.6283 0.1868 0.64307 0.0
C3140 C 0.63009 0.19855 0.65902 0.0
H3141 H 0.6412 0.17689 0.61739 0.0
H3142 H 0.61669 0.17686 0.64198 0.0
C3143 C 0.6453 0.21127 0.65994 0.0
C3144 C 0.81161 0.35615 0.37003 0.0
C3145 C 0.79971 0.3403 0.36823 0.0
H3146 H 0.82181 0.3817 0.35709 0.0
C3147 C 0.78706 0.33946 0.35295 0.0
H3148 H 0.82149 0.35718 0.38168 0.0
C3149 C 0.78724 0.35336 0.33901 0.0
C3150 C 0.80008 0.36848 0.33997 0.0
H3151 H 0.77753 0.32758 0.35128 0.0
H3152 H 0.77784 0.35178 0.32701 0.0
C3153 C 0.81179 0.37017 0.35597 0.0
C3154 C 0.64236 0.81177 0.37054 0.0
C3155 C 0.65827 0.79997 0.36868 0.0
H3156 H 0.61668 0.82178 0.35774 0.0
C3157 C 0.6591 0.78727 0.35344 0.0
H3158 H 0.64134 0.82168 0.38218 0.0
C3159 C 0.64511 0.78732 0.33958 0.0
C3160 C 0.62992 0.80008 0.3406 0.0
H3161 H 0.67102 0.7778 0.35172 0.0
H3162 H 0.64668 0.7779 0.3276 0.0
C3163 C 0.62826 0.81182 0.35657 0.0
C3164 C 0.18573 0.64266 0.37038 0.0
C3165 C 0.19754 0.65857 0.36861 0.0
H3166 H 0.1758 0.61699 0.35747 0.0
C3167 C 0.21031 0.65943 0.35342 0.0
H3168 H 0.17577 0.64161 0.38196 0.0
C3169 C 0.21033 0.64548 0.33954 0.0
C3170 C 0.19758 0.63028 0.34046 0.0
H3171 H 0.21978 0.67137 0.35178 0.0
H3172 H 0.21981 0.64707 0.3276 0.0
C3173 C 0.18575 0.62858 0.35637 0.0
C3174 C 0.33914 0.21132 0.35284 0.0
C3175 C 0.34004 0.19874 0.36819 0.0
H3176 H 0.35146 0.22051 0.32689 0.0
C3177 C 0.35597 0.18698 0.37008 0.0
H3178 H 0.32719 0.22075 0.35109 0.0
C3179 C 0.37003 0.18684 0.35606 0.0
C3180 C 0.36829 0.19846 0.34 0.0
H3181 H 0.35705 0.17716 0.38179 0.0
H3182 H 0.38163 0.17691 0.35727 0.0
C3183 C 0.35308 0.21117 0.33893 0.0
C3184 C 0.65997 0.78758 0.64552 0.0
C3185 C 0.65898 0.80025 0.63026 0.0
H3186 H 0.6477 0.7781 0.67139 0.0
C3187 C 0.64295 0.81189 0.62843 0.0
H3188 H 0.672 0.77824 0.64721 0.0
C3189 C 0.62887 0.8118 0.64243 0.0
C3190 C 0.63068 0.80008 0.6584 0.0
H3191 H 0.6418 0.82178 0.61678 0.0
H3192 H 0.61718 0.82163 0.64127 0.0
C3193 C 0.64601 0.7875 0.6594 0.0
C3194 C 0.64516 0.21075 0.33909 0.0
C3195 C 0.62991 0.19806 0.33992 0.0
H3196 H 0.67097 0.22014 0.35154 0.0
C3197 C 0.62801 0.18631 0.35586 0.0
H3198 H 0.64691 0.22018 0.32713 0.0
C3199 C 0.64194 0.1863 0.37 0.0
C3200 C 0.65792 0.19803 0.36834 0.0
H3201 H 0.61637 0.17641 0.35689 0.0
H3202 H 0.64074 0.17638 0.38162 0.0
C3203 C 0.65898 0.21073 0.35311 0.0
C3204 C 0.81234 0.62827 0.35572 0.0
C3205 C 0.80051 0.63006 0.33983 0.0
H3206 H 0.8224 0.64117 0.38134 0.0
C3207 C 0.78782 0.64531 0.33896 0.0
H3208 H 0.82226 0.61664 0.35677 0.0
C3209 C 0.7879 0.65922 0.35289 0.0
C3210 C 0.80068 0.65826 0.36806 0.0
H3211 H 0.77834 0.64698 0.32704 0.0
H3212 H 0.77848 0.6712 0.35129 0.0
C3213 C 0.81243 0.6423 0.36977 0.0
C3214 C 0.3532 0.7872 0.3394 0.0
C3215 C 0.36839 0.79997 0.34029 0.0
H3216 H 0.32737 0.77771 0.35172 0.0
C3217 C 0.37015 0.81175 0.35623 0.0
H3218 H 0.35157 0.77775 0.32744 0.0
C3219 C 0.35613 0.81172 0.37029 0.0
C3220 C 0.34022 0.79991 0.36855 0.0
H3221 H 0.38173 0.82171 0.35731 0.0
H3222 H 0.35722 0.82166 0.38189 0.0
C3223 C 0.3393 0.78718 0.35334 0.0
C3224 C 0.21025 0.35311 0.33944 0.0
C3225 C 0.19766 0.36844 0.34036 0.0
H3226 H 0.21952 0.32719 0.35176 0.0
C3227 C 0.1859 0.37031 0.3563 0.0
H3228 H 0.21968 0.35138 0.32748 0.0
C3229 C 0.18582 0.35629 0.37037 0.0
C3230 C 0.19748 0.34027 0.36863 0.0
H3231 H 0.17607 0.382 0.3574 0.0
H3232 H 0.17592 0.35749 0.382 0.0
C3233 C 0.21016 0.33922 0.35339 0.0
C3234 C 0.35362 0.21115 0.65891 0.0
C3235 C 0.36887 0.19847 0.658 0.0
H3236 H 0.32768 0.22046 0.64665 0.0
C3237 C 0.37063 0.18663 0.64211 0.0
H3238 H 0.35198 0.22064 0.67083 0.0
C3239 C 0.35656 0.18653 0.6281 0.0
C3240 C 0.34059 0.19826 0.62986 0.0
H3241 H 0.38227 0.17673 0.64103 0.0
H3242 H 0.35766 0.17655 0.61653 0.0
C3243 C 0.33966 0.21105 0.64502 0.0
C3244 C 0.81207 0.37 0.6423 0.0
C3245 C 0.80016 0.36822 0.65814 0.0
H3246 H 0.8223 0.35705 0.61677 0.0
C3247 C 0.78748 0.35296 0.65897 0.0
H3248 H 0.82197 0.38165 0.64128 0.0
C3249 C 0.78768 0.33901 0.64508 0.0
C3250 C 0.80054 0.33995 0.62998 0.0
H3251 H 0.77793 0.35131 0.67084 0.0
H3252 H 0.77827 0.32702 0.64665 0.0
C3253 C 0.81226 0.35594 0.62829 0.0
C3254 C 0.21042 0.64542 0.65918 0.0
C3255 C 0.1977 0.6302 0.65837 0.0
H3256 H 0.21977 0.67129 0.6468 0.0
C3257 C 0.18581 0.62842 0.64251 0.0
H3258 H 0.21995 0.64708 0.67107 0.0
C3259 C 0.18571 0.64244 0.62845 0.0
C3260 C 0.19749 0.65838 0.63011 0.0
H3261 H 0.17588 0.6168 0.6415 0.0
H3262 H 0.1757 0.64132 0.61691 0.0
C3263 C 0.21032 0.65933 0.64524 0.0
loop_
_geom_bond_atom_site_label_1
_geom_bond_atom_site_label_2
_geom_bond_distance
_geom_bond_site_symmetry_2
_ccdc_geom_bond_type
O0 Cd1 2.223 . S
O0 C8 1.315 . S
Cd1 O0 2.223 . S
Cd1 O4 2.297 . S
Cd1 O5 2.439 . S
Cd1 O11 2.240 . S
Cd2 O3 2.240 . S
Cd2 O10 2.223 . S
Cd2 O12 2.297 . S
Cd2 O13 2.439 . S
O3 Cd2 2.240 . S
O3 C8 1.279 . S
O4 Cd1 2.297 . S
O4 C6 1.247 . S
O5 Cd1 2.439 . S
O5 C6 1.208 . S
C6 O4 1.247 . S
C6 O5 1.208 . S
C7 O12 1.247 . S
C7 O13 1.208 . S
C8 O0 1.315 . S
C8 O3 1.279 . S
C9 O10 1.315 . S
C9 O11 1.279 . S
O10 Cd2 2.223 . S
O10 C9 1.315 . S
O11 Cd1 2.240 . S
O11 C9 1.279 . S
O12 Cd2 2.297 . S
O12 C7 1.247 . S
O13 Cd2 2.439 . S
O13 C7 1.208 . S
O14 Cd15 2.223 . S
O14 C22 1.315 . S
Cd15 O14 2.223 . S
Cd15 O18 2.297 . S
Cd15 O19 2.439 . S
Cd15 O25 2.240 . S
Cd16 O17 2.240 . S
Cd16 O24 2.223 . S
Cd16 O26 2.297 . S
Cd16 O27 2.439 . S
O17 Cd16 2.240 . S
O17 C22 1.279 . S
O18 Cd15 2.297 . S
O18 C20 1.247 . S
O19 Cd15 2.439 . S
O19 C20 1.208 . S
C20 O18 1.247 . S
C20 O19 1.208 . S
C21 O26 1.247 . S
C21 O27 1.208 . S
C22 O14 1.315 . S
C22 O17 1.279 . S
C23 O24 1.315 . S
C23 O25 1.279 . S
O24 Cd16 2.223 . S
O24 C23 1.315 . S
O25 Cd15 2.240 . S
O25 C23 1.279 . S
O26 Cd16 2.297 . S
O26 C21 1.247 . S
O27 Cd16 2.439 . S
O27 C21 1.208 . S
O28 Cd29 2.223 . S
O28 C36 1.315 . S
Cd29 O28 2.223 . S
Cd29 O32 2.297 . S
Cd29 O33 2.439 . S
Cd29 O39 2.240 . S
Cd30 O31 2.240 . S
Cd30 O38 2.223 . S
Cd30 O40 2.297 . S
Cd30 O41 2.439 . S
O31 Cd30 2.240 . S
O31 C36 1.279 . S
O32 Cd29 2.297 . S
O32 C34 1.247 . S
O33 Cd29 2.439 . S
O33 C34 1.208 . S
C34 O32 1.247 . S
C34 O33 1.208 . S
C35 O40 1.247 . S
C35 O41 1.208 . S
C36 O28 1.315 . S
C36 O31 1.279 . S
C37 O38 1.315 . S
C37 O39 1.279 . S
O38 Cd30 2.223 . S
O38 C37 1.315 . S
O39 Cd29 2.240 . S
O39 C37 1.279 . S
O40 Cd30 2.297 . S
O40 C35 1.247 . S
O41 Cd30 2.439 . S
O41 C35 1.208 . S
O42 Cd43 2.223 . S
O42 C50 1.315 . S
Cd43 O42 2.223 . S
Cd43 O46 2.297 . S
Cd43 O47 2.439 . S
Cd43 O53 2.240 . S
Cd44 O45 2.240 . S
Cd44 O52 2.223 . S
Cd44 O54 2.297 . S
Cd44 O55 2.439 . S
O45 Cd44 2.240 . S
O45 C50 1.279 . S
O46 Cd43 2.297 . S
O46 C48 1.247 . S
O47 Cd43 2.439 . S
O47 C48 1.208 . S
C48 O46 1.247 . S
C48 O47 1.208 . S
C49 O54 1.247 . S
C49 O55 1.208 . S
C50 O42 1.315 . S
C50 O45 1.279 . S
C51 O52 1.315 . S
C51 O53 1.279 . S
O52 Cd44 2.223 . S
O52 C51 1.315 . S
O53 Cd43 2.240 . S
O53 C51 1.279 . S
O54 Cd44 2.297 . S
O54 C49 1.247 . S
O55 Cd44 2.439 . S
O55 C49 1.208 . S
O56 Cd57 2.223 . S
O56 C64 1.315 . S
Cd57 O56 2.223 . S
Cd57 O60 2.297 . S
Cd57 O61 2.439 . S
Cd57 O67 2.240 . S
Cd58 O59 2.240 . S
Cd58 O66 2.223 . S
Cd58 O68 2.297 . S
Cd58 O69 2.439 . S
O59 Cd58 2.240 . S
O59 C64 1.279 . S
O60 Cd57 2.297 . S
O60 C62 1.247 . S
O61 Cd57 2.439 . S
O61 C62 1.208 . S
C62 O60 1.247 . S
C62 O61 1.208 . S
C63 O68 1.247 . S
C63 O69 1.208 . S
C64 O56 1.315 . S
C64 O59 1.279 . S
C65 O66 1.315 . S
C65 O67 1.279 . S
O66 Cd58 2.223 . S
O66 C65 1.315 . S
O67 Cd57 2.240 . S
O67 C65 1.279 . S
O68 Cd58 2.297 . S
O68 C63 1.247 . S
O69 Cd58 2.439 . S
O69 C63 1.208 . S
O70 Cd71 2.223 . S
O70 C78 1.315 . S
Cd71 O70 2.223 . S
Cd71 O74 2.297 . S
Cd71 O75 2.439 . S
Cd71 O81 2.240 . S
Cd72 O73 2.240 . S
Cd72 O80 2.223 . S
Cd72 O82 2.297 . S
Cd72 O83 2.439 . S
O73 Cd72 2.240 . S
O73 C78 1.279 . S
O74 Cd71 2.297 . S
O74 C76 1.247 . S
O75 Cd71 2.439 . S
O75 C76 1.208 . S
C76 O74 1.247 . S
C76 O75 1.208 . S
C77 O82 1.247 . S
C77 O83 1.208 . S
C78 O70 1.315 . S
C78 O73 1.279 . S
C79 O80 1.315 . S
C79 O81 1.279 . S
O80 Cd72 2.223 . S
O80 C79 1.315 . S
O81 Cd71 2.240 . S
O81 C79 1.279 . S
O82 Cd72 2.297 . S
O82 C77 1.247 . S
O83 Cd72 2.439 . S
O83 C77 1.208 . S
O84 Cd85 2.223 . S
O84 C92 1.315 . S
Cd85 O84 2.223 . S
Cd85 O88 2.297 . S
Cd85 O89 2.439 . S
Cd85 O95 2.240 . S
Cd86 O87 2.240 . S
Cd86 O94 2.223 . S
Cd86 O96 2.297 . S
Cd86 O97 2.439 . S
O87 Cd86 2.240 . S
O87 C92 1.279 . S
O88 Cd85 2.297 . S
O88 C90 1.247 . S
O89 Cd85 2.439 . S
O89 C90 1.208 . S
C90 O88 1.247 . S
C90 O89 1.208 . S
C91 O96 1.247 . S
C91 O97 1.208 . S
C92 O84 1.315 . S
C92 O87 1.279 . S
C93 O94 1.315 . S
C93 O95 1.279 . S
O94 Cd86 2.223 . S
O94 C93 1.315 . S
O95 Cd85 2.240 . S
O95 C93 1.279 . S
O96 Cd86 2.297 . S
O96 C91 1.247 . S
O97 Cd86 2.439 . S
O97 C91 1.208 . S
O98 Cd99 2.223 . S
O98 C106 1.315 . S
Cd99 O98 2.223 . S
Cd99 O102 2.297 . S
Cd99 O103 2.439 . S
Cd99 O109 2.240 . S
Cd100 O101 2.240 . S
Cd100 O108 2.223 . S
Cd100 O110 2.297 . S
Cd100 O111 2.439 . S
O101 Cd100 2.240 . S
O101 C106 1.279 . S
O102 Cd99 2.297 . S
O102 C104 1.247 . S
O103 Cd99 2.439 . S
O103 C104 1.208 . S
C104 O102 1.247 . S
C104 O103 1.208 . S
C105 O110 1.247 . S
C105 O111 1.208 . S
C106 O98 1.315 . S
C106 O101 1.279 . S
C107 O108 1.315 . S
C107 O109 1.279 . S
O108 Cd100 2.223 . S
O108 C107 1.315 . S
O109 Cd99 2.240 . S
O109 C107 1.279 . S
O110 Cd100 2.297 . S
O110 C105 1.247 . S
O111 Cd100 2.439 . S
O111 C105 1.208 . S
O112 Cd113 2.223 . S
O112 C120 1.315 . S
Cd113 O112 2.223 . S
Cd113 O116 2.297 . S
Cd113 O117 2.439 . S
Cd113 O123 2.240 . S
Cd114 O115 2.240 . S
Cd114 O122 2.223 . S
Cd114 O124 2.297 . S
Cd114 O125 2.439 . S
O115 Cd114 2.240 . S
O115 C120 1.279 . S
O116 Cd113 2.297 . S
O116 C118 1.247 . S
O117 Cd113 2.439 . S
O117 C118 1.208 . S
C118 O116 1.247 . S
C118 O117 1.208 . S
C119 O124 1.247 . S
C119 O125 1.208 . S
C120 O112 1.315 . S
C120 O115 1.279 . S
C121 O122 1.315 . S
C121 O123 1.279 . S
O122 Cd114 2.223 . S
O122 C121 1.315 . S
O123 Cd113 2.240 . S
O123 C121 1.279 . S
O124 Cd114 2.297 . S
O124 C119 1.247 . S
O125 Cd114 2.439 . S
O125 C119 1.208 . S
O126 Cd127 2.223 . S
O126 C134 1.315 . S
Cd127 O126 2.223 . S
Cd127 O130 2.297 . S
Cd127 O131 2.439 . S
Cd127 O137 2.240 . S
Cd128 O129 2.240 . S
Cd128 O136 2.223 . S
Cd128 O138 2.297 . S
Cd128 O139 2.439 . S
O129 Cd128 2.240 . S
O129 C134 1.279 . S
O130 Cd127 2.297 . S
O130 C132 1.247 . S
O131 Cd127 2.439 . S
O131 C132 1.208 . S
C132 O130 1.247 . S
C132 O131 1.208 . S
C133 O138 1.247 . S
C133 O139 1.208 . S
C134 O126 1.315 . S
C134 O129 1.279 . S
C135 O136 1.315 . S
C135 O137 1.279 . S
O136 Cd128 2.223 . S
O136 C135 1.315 . S
O137 Cd127 2.240 . S
O137 C135 1.279 . S
O138 Cd128 2.297 . S
O138 C133 1.247 . S
O139 Cd128 2.439 . S
O139 C133 1.208 . S
O140 Cd141 2.223 . S
O140 C148 1.315 . S
Cd141 O140 2.223 . S
Cd141 O144 2.297 . S
Cd141 O145 2.439 . S
Cd141 O151 2.240 . S
Cd142 O143 2.240 . S
Cd142 O150 2.223 . S
Cd142 O152 2.297 . S
Cd142 O153 2.439 . S
O143 Cd142 2.240 . S
O143 C148 1.279 . S
O144 Cd141 2.297 . S
O144 C146 1.247 . S
O145 Cd141 2.439 . S
O145 C146 1.208 . S
C146 O144 1.247 . S
C146 O145 1.208 . S
C147 O152 1.247 . S
C147 O153 1.208 . S
C148 O140 1.315 . S
C148 O143 1.279 . S
C149 O150 1.315 . S
C149 O151 1.279 . S
O150 Cd142 2.223 . S
O150 C149 1.315 . S
O151 Cd141 2.240 . S
O151 C149 1.279 . S
O152 Cd142 2.297 . S
O152 C147 1.247 . S
O153 Cd142 2.439 . S
O153 C147 1.208 . S
O154 Cd155 2.223 . S
O154 C162 1.315 . S
Cd155 O154 2.223 . S
Cd155 O158 2.297 . S
Cd155 O159 2.439 . S
Cd155 O165 2.240 . S
Cd156 O157 2.240 . S
Cd156 O164 2.223 . S
Cd156 O166 2.297 . S
Cd156 O167 2.439 . S
O157 Cd156 2.240 . S
O157 C162 1.279 . S
O158 Cd155 2.297 . S
O158 C160 1.247 . S
O159 Cd155 2.439 . S
O159 C160 1.208 . S
C160 O158 1.247 . S
C160 O159 1.208 . S
C161 O166 1.247 . S
C161 O167 1.208 . S
C162 O154 1.315 . S
C162 O157 1.279 . S
C163 O164 1.315 . S
C163 O165 1.279 . S
O164 Cd156 2.223 . S
O164 C163 1.315 . S
O165 Cd155 2.240 . S
O165 C163 1.279 . S
O166 Cd156 2.297 . S
O166 C161 1.247 . S
O167 Cd156 2.439 . S
O167 C161 1.208 . S
O168 Cd169 2.223 . S
O168 C176 1.315 . S
Cd169 O168 2.223 . S
Cd169 O172 2.297 . S
Cd169 O173 2.439 . S
Cd169 O179 2.240 . S
Cd170 O171 2.240 . S
Cd170 O178 2.223 . S
Cd170 O180 2.297 . S
Cd170 O181 2.439 . S
O171 Cd170 2.240 . S
O171 C176 1.279 . S
O172 Cd169 2.297 . S
O172 C174 1.247 . S
O173 Cd169 2.439 . S
O173 C174 1.208 . S
C174 O172 1.247 . S
C174 O173 1.208 . S
C175 O180 1.247 . S
C175 O181 1.208 . S
C176 O168 1.315 . S
C176 O171 1.279 . S
C177 O178 1.315 . S
C177 O179 1.279 . S
O178 Cd170 2.223 . S
O178 C177 1.315 . S
O179 Cd169 2.240 . S
O179 C177 1.279 . S
O180 Cd170 2.297 . S
O180 C175 1.247 . S
O181 Cd170 2.439 . S
O181 C175 1.208 . S
O182 Cd183 2.223 . S
O182 C190 1.315 . S
Cd183 O182 2.223 . S
Cd183 O186 2.297 . S
Cd183 O187 2.439 . S
Cd183 O193 2.240 . S
Cd184 O185 2.240 . S
Cd184 O192 2.223 . S
Cd184 O194 2.297 . S
Cd184 O195 2.439 . S
O185 Cd184 2.240 . S
O185 C190 1.279 . S
O186 Cd183 2.297 . S
O186 C188 1.247 . S
O187 Cd183 2.439 . S
O187 C188 1.208 . S
C188 O186 1.247 . S
C188 O187 1.208 . S
C189 O194 1.247 . S
C189 O195 1.208 . S
C190 O182 1.315 . S
C190 O185 1.279 . S
C191 O192 1.315 . S
C191 O193 1.279 . S
O192 Cd184 2.223 . S
O192 C191 1.315 . S
O193 Cd183 2.240 . S
O193 C191 1.279 . S
O194 Cd184 2.297 . S
O194 C189 1.247 . S
O195 Cd184 2.439 . S
O195 C189 1.208 . S
O196 Cd197 2.223 . S
O196 C204 1.315 . S
Cd197 O196 2.223 . S
Cd197 O200 2.297 . S
Cd197 O201 2.439 . S
Cd197 O207 2.240 . S
Cd198 O199 2.240 . S
Cd198 O206 2.223 . S
Cd198 O208 2.297 . S
Cd198 O209 2.439 . S
O199 Cd198 2.240 . S
O199 C204 1.279 . S
O200 Cd197 2.297 . S
O200 C202 1.247 . S
O201 Cd197 2.439 . S
O201 C202 1.208 . S
C202 O200 1.247 . S
C202 O201 1.208 . S
C203 O208 1.247 . S
C203 O209 1.208 . S
C204 O196 1.315 . S
C204 O199 1.279 . S
C205 O206 1.315 . S
C205 O207 1.279 . S
O206 Cd198 2.223 . S
O206 C205 1.315 . S
O207 Cd197 2.240 . S
O207 C205 1.279 . S
O208 Cd198 2.297 . S
O208 C203 1.247 . S
O209 Cd198 2.439 . S
O209 C203 1.208 . S
O210 Cd211 2.223 . S
O210 C218 1.315 . S
Cd211 O210 2.223 . S
Cd211 O214 2.297 . S
Cd211 O215 2.439 . S
Cd211 O221 2.240 . S
Cd212 O213 2.240 . S
Cd212 O220 2.223 . S
Cd212 O222 2.297 . S
Cd212 O223 2.439 . S
O213 Cd212 2.240 . S
O213 C218 1.279 . S
O214 Cd211 2.297 . S
O214 C216 1.247 . S
O215 Cd211 2.439 . S
O215 C216 1.208 . S
C216 O214 1.247 . S
C216 O215 1.208 . S
C217 O222 1.247 . S
C217 O223 1.208 . S
C218 O210 1.315 . S
C218 O213 1.279 . S
C219 O220 1.315 . S
C219 O221 1.279 . S
O220 Cd212 2.223 . S
O220 C219 1.315 . S
O221 Cd211 2.240 . S
O221 C219 1.279 . S
O222 Cd212 2.297 . S
O222 C217 1.247 . S
O223 Cd212 2.439 . S
O223 C217 1.208 . S
O224 Cd225 2.223 . S
O224 C232 1.315 . S
Cd225 O224 2.223 . S
Cd225 O228 2.297 . S
Cd225 O229 2.439 . S
Cd225 O235 2.240 . S
Cd226 O227 2.240 . S
Cd226 O234 2.223 . S
Cd226 O236 2.297 . S
Cd226 O237 2.439 . S
O227 Cd226 2.240 . S
O227 C232 1.279 . S
O228 Cd225 2.297 . S
O228 C230 1.247 . S
O229 Cd225 2.439 . S
O229 C230 1.208 . S
C230 O228 1.247 . S
C230 O229 1.208 . S
C231 O236 1.247 . S
C231 O237 1.208 . S
C232 O224 1.315 . S
C232 O227 1.279 . S
C233 O234 1.315 . S
C233 O235 1.279 . S
O234 Cd226 2.223 . S
O234 C233 1.315 . S
O235 Cd225 2.240 . S
O235 C233 1.279 . S
O236 Cd226 2.297 . S
O236 C231 1.247 . S
O237 Cd226 2.439 . S
O237 C231 1.208 . S
O238 Cd239 2.223 . S
O238 C246 1.315 . S
Cd239 O238 2.223 . S
Cd239 O242 2.297 . S
Cd239 O243 2.439 . S
Cd239 O249 2.240 . S
Cd240 O241 2.240 . S
Cd240 O248 2.223 . S
Cd240 O250 2.297 . S
Cd240 O251 2.439 . S
O241 Cd240 2.240 . S
O241 C246 1.279 . S
O242 Cd239 2.297 . S
O242 C244 1.247 . S
O243 Cd239 2.439 . S
O243 C244 1.208 . S
C244 O242 1.247 . S
C244 O243 1.208 . S
C245 O250 1.247 . S
C245 O251 1.208 . S
C246 O238 1.315 . S
C246 O241 1.279 . S
C247 O248 1.315 . S
C247 O249 1.279 . S
O248 Cd240 2.223 . S
O248 C247 1.315 . S
O249 Cd239 2.240 . S
O249 C247 1.279 . S
O250 Cd240 2.297 . S
O250 C245 1.247 . S
O251 Cd240 2.439 . S
O251 C245 1.208 . S
O252 Cd253 2.223 . S
O252 C260 1.315 . S
Cd253 O252 2.223 . S
Cd253 O256 2.297 . S
Cd253 O257 2.439 . S
Cd253 O263 2.240 . S
Cd254 O255 2.240 . S
Cd254 O262 2.223 . S
Cd254 O264 2.297 . S
Cd254 O265 2.439 . S
O255 Cd254 2.240 . S
O255 C260 1.279 . S
O256 Cd253 2.297 . S
O256 C258 1.247 . S
O257 Cd253 2.439 . S
O257 C258 1.208 . S
C258 O256 1.247 . S
C258 O257 1.208 . S
C259 O264 1.247 . S
C259 O265 1.208 . S
C260 O252 1.315 . S
C260 O255 1.279 . S
C261 O262 1.315 . S
C261 O263 1.279 . S
O262 Cd254 2.223 . S
O262 C261 1.315 . S
O263 Cd253 2.240 . S
O263 C261 1.279 . S
O264 Cd254 2.297 . S
O264 C259 1.247 . S
O265 Cd254 2.439 . S
O265 C259 1.208 . S
O266 Cd267 2.223 . S
O266 C274 1.315 . S
Cd267 O266 2.223 . S
Cd267 O270 2.297 . S
Cd267 O271 2.439 . S
Cd267 O277 2.240 . S
Cd268 O269 2.240 . S
Cd268 O276 2.223 . S
Cd268 O278 2.297 . S
Cd268 O279 2.439 . S
O269 Cd268 2.240 . S
O269 C274 1.279 . S
O270 Cd267 2.297 . S
O270 C272 1.247 . S
O271 Cd267 2.439 . S
O271 C272 1.208 . S
C272 O270 1.247 . S
C272 O271 1.208 . S
C273 O278 1.247 . S
C273 O279 1.208 . S
C274 O266 1.315 . S
C274 O269 1.279 . S
C275 O276 1.315 . S
C275 O277 1.279 . S
O276 Cd268 2.223 . S
O276 C275 1.315 . S
O277 Cd267 2.240 . S
O277 C275 1.279 . S
O278 Cd268 2.297 . S
O278 C273 1.247 . S
O279 Cd268 2.439 . S
O279 C273 1.208 . S
O280 Cd281 2.223 . S
O280 C288 1.315 . S
Cd281 O280 2.223 . S
Cd281 O284 2.297 . S
Cd281 O285 2.439 . S
Cd281 O291 2.240 . S
Cd282 O283 2.240 . S
Cd282 O290 2.223 . S
Cd282 O292 2.297 . S
Cd282 O293 2.439 . S
O283 Cd282 2.240 . S
O283 C288 1.279 . S
O284 Cd281 2.297 . S
O284 C286 1.247 . S
O285 Cd281 2.439 . S
O285 C286 1.208 . S
C286 O284 1.247 . S
C286 O285 1.208 . S
C287 O292 1.247 . S
C287 O293 1.208 . S
C288 O280 1.315 . S
C288 O283 1.279 . S
C289 O290 1.315 . S
C289 O291 1.279 . S
O290 Cd282 2.223 . S
O290 C289 1.315 . S
O291 Cd281 2.240 . S
O291 C289 1.279 . S
O292 Cd282 2.297 . S
O292 C287 1.247 . S
O293 Cd282 2.439 . S
O293 C287 1.208 . S
O294 Cd295 2.223 . S
O294 C302 1.315 . S
Cd295 O294 2.223 . S
Cd295 O298 2.297 . S
Cd295 O299 2.439 . S
Cd295 O305 2.240 . S
Cd296 O297 2.240 . S
Cd296 O304 2.223 . S
Cd296 O306 2.297 . S
Cd296 O307 2.439 . S
O297 Cd296 2.240 . S
O297 C302 1.279 . S
O298 Cd295 2.297 . S
O298 C300 1.247 . S
O299 Cd295 2.439 . S
O299 C300 1.208 . S
C300 O298 1.247 . S
C300 O299 1.208 . S
C301 O306 1.247 . S
C301 O307 1.208 . S
C302 O294 1.315 . S
C302 O297 1.279 . S
C303 O304 1.315 . S
C303 O305 1.279 . S
O304 Cd296 2.223 . S
O304 C303 1.315 . S
O305 Cd295 2.240 . S
O305 C303 1.279 . S
O306 Cd296 2.297 . S
O306 C301 1.247 . S
O307 Cd296 2.439 . S
O307 C301 1.208 . S
O308 Cd309 2.223 . S
O308 C316 1.315 . S
Cd309 O308 2.223 . S
Cd309 O312 2.297 . S
Cd309 O313 2.439 . S
Cd309 O319 2.240 . S
Cd310 O311 2.240 . S
Cd310 O318 2.223 . S
Cd310 O320 2.297 . S
Cd310 O321 2.439 . S
O311 Cd310 2.240 . S
O311 C316 1.279 . S
O312 Cd309 2.297 . S
O312 C314 1.247 . S
O313 Cd309 2.439 . S
O313 C314 1.208 . S
C314 O312 1.247 . S
C314 O313 1.208 . S
C315 O320 1.247 . S
C315 O321 1.208 . S
C316 O308 1.315 . S
C316 O311 1.279 . S
C317 O318 1.315 . S
C317 O319 1.279 . S
O318 Cd310 2.223 . S
O318 C317 1.315 . S
O319 Cd309 2.240 . S
O319 C317 1.279 . S
O320 Cd310 2.297 . S
O320 C315 1.247 . S
O321 Cd310 2.439 . S
O321 C315 1.208 . S
O322 Cd323 2.223 . S
O322 C330 1.315 . S
Cd323 O322 2.223 . S
Cd323 O326 2.297 . S
Cd323 O327 2.439 . S
Cd323 O333 2.240 . S
Cd324 O325 2.240 . S
Cd324 O332 2.223 . S
Cd324 O334 2.297 . S
Cd324 O335 2.439 . S
O325 Cd324 2.240 . S
O325 C330 1.279 . S
O326 Cd323 2.297 . S
O326 C328 1.247 . S
O327 Cd323 2.439 . S
O327 C328 1.208 . S
C328 O326 1.247 . S
C328 O327 1.208 . S
C329 O334 1.247 . S
C329 O335 1.208 . S
C330 O322 1.315 . S
C330 O325 1.279 . S
C331 O332 1.315 . S
C331 O333 1.279 . S
O332 Cd324 2.223 . S
O332 C331 1.315 . S
O333 Cd323 2.240 . S
O333 C331 1.279 . S
O334 Cd324 2.297 . S
O334 C329 1.247 . S
O335 Cd324 2.439 . S
O335 C329 1.208 . S
O336 Cd337 2.223 . S
O336 C344 1.315 . S
Cd337 O336 2.223 . S
Cd337 O340 2.297 . S
Cd337 O341 2.439 . S
Cd337 O347 2.240 . S
Cd338 O339 2.240 . S
Cd338 O346 2.223 . S
Cd338 O348 2.297 . S
Cd338 O349 2.439 . S
O339 Cd338 2.240 . S
O339 C344 1.279 . S
O340 Cd337 2.297 . S
O340 C342 1.247 . S
O341 Cd337 2.439 . S
O341 C342 1.208 . S
C342 O340 1.247 . S
C342 O341 1.208 . S
C343 O348 1.247 . S
C343 O349 1.208 . S
C344 O336 1.315 . S
C344 O339 1.279 . S
C345 O346 1.315 . S
C345 O347 1.279 . S
O346 Cd338 2.223 . S
O346 C345 1.315 . S
O347 Cd337 2.240 . S
O347 C345 1.279 . S
O348 Cd338 2.297 . S
O348 C343 1.247 . S
O349 Cd338 2.439 . S
O349 C343 1.208 . S
O350 Cd351 2.223 . S
O350 C358 1.315 . S
Cd351 O350 2.223 . S
Cd351 O354 2.297 . S
Cd351 O355 2.439 . S
Cd351 O361 2.240 . S
Cd352 O353 2.240 . S
Cd352 O360 2.223 . S
Cd352 O362 2.297 . S
Cd352 O363 2.439 . S
O353 Cd352 2.240 . S
O353 C358 1.279 . S
O354 Cd351 2.297 . S
O354 C356 1.247 . S
O355 Cd351 2.439 . S
O355 C356 1.208 . S
C356 O354 1.247 . S
C356 O355 1.208 . S
C357 O362 1.247 . S
C357 O363 1.208 . S
C358 O350 1.315 . S
C358 O353 1.279 . S
C359 O360 1.315 . S
C359 O361 1.279 . S
O360 Cd352 2.223 . S
O360 C359 1.315 . S
O361 Cd351 2.240 . S
O361 C359 1.279 . S
O362 Cd352 2.297 . S
O362 C357 1.247 . S
O363 Cd352 2.439 . S
O363 C357 1.208 . S
O364 Cd365 2.223 . S
O364 C372 1.315 . S
Cd365 O364 2.223 . S
Cd365 O368 2.297 . S
Cd365 O369 2.439 . S
Cd365 O375 2.240 . S
Cd366 O367 2.240 . S
Cd366 O374 2.223 . S
Cd366 O376 2.297 . S
Cd366 O377 2.439 . S
O367 Cd366 2.240 . S
O367 C372 1.279 . S
O368 Cd365 2.297 . S
O368 C370 1.247 . S
O369 Cd365 2.439 . S
O369 C370 1.208 . S
C370 O368 1.247 . S
C370 O369 1.208 . S
C371 O376 1.247 . S
C371 O377 1.208 . S
C372 O364 1.315 . S
C372 O367 1.279 . S
C373 O374 1.315 . S
C373 O375 1.279 . S
O374 Cd366 2.223 . S
O374 C373 1.315 . S
O375 Cd365 2.240 . S
O375 C373 1.279 . S
O376 Cd366 2.297 . S
O376 C371 1.247 . S
O377 Cd366 2.439 . S
O377 C371 1.208 . S
O378 Cd379 2.223 . S
O378 C386 1.315 . S
Cd379 O378 2.223 . S
Cd379 O382 2.297 . S
Cd379 O383 2.439 . S
Cd379 O389 2.240 . S
Cd380 O381 2.240 . S
Cd380 O388 2.223 . S
Cd380 O390 2.297 . S
Cd380 O391 2.439 . S
O381 Cd380 2.240 . S
O381 C386 1.279 . S
O382 Cd379 2.297 . S
O382 C384 1.247 . S
O383 Cd379 2.439 . S
O383 C384 1.208 . S
C384 O382 1.247 . S
C384 O383 1.208 . S
C385 O390 1.247 . S
C385 O391 1.208 . S
C386 O378 1.315 . S
C386 O381 1.279 . S
C387 O388 1.315 . S
C387 O389 1.279 . S
O388 Cd380 2.223 . S
O388 C387 1.315 . S
O389 Cd379 2.240 . S
O389 C387 1.279 . S
O390 Cd380 2.297 . S
O390 C385 1.247 . S
O391 Cd380 2.439 . S
O391 C385 1.208 . S
O392 Cd393 2.223 . S
O392 C400 1.315 . S
Cd393 O392 2.223 . S
Cd393 O396 2.297 . S
Cd393 O397 2.439 . S
Cd393 O403 2.240 . S
Cd394 O395 2.240 . S
Cd394 O402 2.223 . S
Cd394 O404 2.297 . S
Cd394 O405 2.439 . S
O395 Cd394 2.240 . S
O395 C400 1.279 . S
O396 Cd393 2.297 . S
O396 C398 1.247 . S
O397 Cd393 2.439 . S
O397 C398 1.208 . S
C398 O396 1.247 . S
C398 O397 1.208 . S
C399 O404 1.247 . S
C399 O405 1.208 . S
C400 O392 1.315 . S
C400 O395 1.279 . S
C401 O402 1.315 . S
C401 O403 1.279 . S
O402 Cd394 2.223 . S
O402 C401 1.315 . S
O403 Cd393 2.240 . S
O403 C401 1.279 . S
O404 Cd394 2.297 . S
O404 C399 1.247 . S
O405 Cd394 2.439 . S
O405 C399 1.208 . S
O406 Cd407 2.223 . S
O406 C414 1.315 . S
Cd407 O406 2.223 . S
Cd407 O410 2.297 . S
Cd407 O411 2.439 . S
Cd407 O417 2.240 . S
Cd408 O409 2.240 . S
Cd408 O416 2.223 . S
Cd408 O418 2.297 . S
Cd408 O419 2.439 . S
O409 Cd408 2.240 . S
O409 C414 1.279 . S
O410 Cd407 2.297 . S
O410 C412 1.247 . S
O411 Cd407 2.439 . S
O411 C412 1.208 . S
C412 O410 1.247 . S
C412 O411 1.208 . S
C413 O418 1.247 . S
C413 O419 1.208 . S
C414 O406 1.315 . S
C414 O409 1.279 . S
C415 O416 1.315 . S
C415 O417 1.279 . S
O416 Cd408 2.223 . S
O416 C415 1.315 . S
O417 Cd407 2.240 . S
O417 C415 1.279 . S
O418 Cd408 2.297 . S
O418 C413 1.247 . S
O419 Cd408 2.439 . S
O419 C413 1.208 . S
O420 Cd421 2.223 . S
O420 C428 1.315 . S
Cd421 O420 2.223 . S
Cd421 O424 2.297 . S
Cd421 O425 2.439 . S
Cd421 O431 2.240 . S
Cd422 O423 2.240 . S
Cd422 O430 2.223 . S
Cd422 O432 2.297 . S
Cd422 O433 2.439 . S
O423 Cd422 2.240 . S
O423 C428 1.279 . S
O424 Cd421 2.297 . S
O424 C426 1.247 . S
O425 Cd421 2.439 . S
O425 C426 1.208 . S
C426 O424 1.247 . S
C426 O425 1.208 . S
C427 O432 1.247 . S
C427 O433 1.208 . S
C428 O420 1.315 . S
C428 O423 1.279 . S
C429 O430 1.315 . S
C429 O431 1.279 . S
O430 Cd422 2.223 . S
O430 C429 1.315 . S
O431 Cd421 2.240 . S
O431 C429 1.279 . S
O432 Cd422 2.297 . S
O432 C427 1.247 . S
O433 Cd422 2.439 . S
O433 C427 1.208 . S
O434 Cd435 2.223 . S
O434 C442 1.315 . S
Cd435 O434 2.223 . S
Cd435 O438 2.297 . S
Cd435 O439 2.439 . S
Cd435 O445 2.240 . S
Cd436 O437 2.240 . S
Cd436 O444 2.223 . S
Cd436 O446 2.297 . S
Cd436 O447 2.439 . S
O437 Cd436 2.240 . S
O437 C442 1.279 . S
O438 Cd435 2.297 . S
O438 C440 1.247 . S
O439 Cd435 2.439 . S
O439 C440 1.208 . S
C440 O438 1.247 . S
C440 O439 1.208 . S
C441 O446 1.247 . S
C441 O447 1.208 . S
C442 O434 1.315 . S
C442 O437 1.279 . S
C443 O444 1.315 . S
C443 O445 1.279 . S
O444 Cd436 2.223 . S
O444 C443 1.315 . S
O445 Cd435 2.240 . S
O445 C443 1.279 . S
O446 Cd436 2.297 . S
O446 C441 1.247 . S
O447 Cd436 2.439 . S
O447 C441 1.208 . S
O448 Cd449 2.223 . S
O448 C456 1.315 . S
Cd449 O448 2.223 . S
Cd449 O452 2.297 . S
Cd449 O453 2.439 . S
Cd449 O459 2.240 . S
Cd450 O451 2.240 . S
Cd450 O458 2.223 . S
Cd450 O460 2.297 . S
Cd450 O461 2.439 . S
O451 Cd450 2.240 . S
O451 C456 1.279 . S
O452 Cd449 2.297 . S
O452 C454 1.247 . S
O453 Cd449 2.439 . S
O453 C454 1.208 . S
C454 O452 1.247 . S
C454 O453 1.208 . S
C455 O460 1.247 . S
C455 O461 1.208 . S
C456 O448 1.315 . S
C456 O451 1.279 . S
C457 O458 1.315 . S
C457 O459 1.279 . S
O458 Cd450 2.223 . S
O458 C457 1.315 . S
O459 Cd449 2.240 . S
O459 C457 1.279 . S
O460 Cd450 2.297 . S
O460 C455 1.247 . S
O461 Cd450 2.439 . S
O461 C455 1.208 . S
O462 Cd463 2.223 . S
O462 C470 1.315 . S
Cd463 O462 2.223 . S
Cd463 O466 2.297 . S
Cd463 O467 2.439 . S
Cd463 O473 2.240 . S
Cd464 O465 2.240 . S
Cd464 O472 2.223 . S
Cd464 O474 2.297 . S
Cd464 O475 2.439 . S
O465 Cd464 2.240 . S
O465 C470 1.279 . S
O466 Cd463 2.297 . S
O466 C468 1.247 . S
O467 Cd463 2.439 . S
O467 C468 1.208 . S
C468 O466 1.247 . S
C468 O467 1.208 . S
C469 O474 1.247 . S
C469 O475 1.208 . S
C470 O462 1.315 . S
C470 O465 1.279 . S
C471 O472 1.315 . S
C471 O473 1.279 . S
O472 Cd464 2.223 . S
O472 C471 1.315 . S
O473 Cd463 2.240 . S
O473 C471 1.279 . S
O474 Cd464 2.297 . S
O474 C469 1.247 . S
O475 Cd464 2.439 . S
O475 C469 1.208 . S
O476 Cd477 2.223 . S
O476 C484 1.315 . S
Cd477 O476 2.223 . S
Cd477 O480 2.297 . S
Cd477 O481 2.439 . S
Cd477 O487 2.240 . S
Cd478 O479 2.240 . S
Cd478 O486 2.223 . S
Cd478 O488 2.297 . S
Cd478 O489 2.439 . S
O479 Cd478 2.240 . S
O479 C484 1.279 . S
O480 Cd477 2.297 . S
O480 C482 1.247 . S
O481 Cd477 2.439 . S
O481 C482 1.208 . S
C482 O480 1.247 . S
C482 O481 1.208 . S
C483 O488 1.247 . S
C483 O489 1.208 . S
C484 O476 1.315 . S
C484 O479 1.279 . S
C485 O486 1.315 . S
C485 O487 1.279 . S
O486 Cd478 2.223 . S
O486 C485 1.315 . S
O487 Cd477 2.240 . S
O487 C485 1.279 . S
O488 Cd478 2.297 . S
O488 C483 1.247 . S
O489 Cd478 2.439 . S
O489 C483 1.208 . S
O490 Cd491 2.223 . S
O490 C498 1.315 . S
Cd491 O490 2.223 . S
Cd491 O494 2.297 . S
Cd491 O495 2.439 . S
Cd491 O501 2.240 . S
Cd492 O493 2.240 . S
Cd492 O500 2.223 . S
Cd492 O502 2.297 . S
Cd492 O503 2.439 . S
O493 Cd492 2.240 . S
O493 C498 1.279 . S
O494 Cd491 2.297 . S
O494 C496 1.247 . S
O495 Cd491 2.439 . S
O495 C496 1.208 . S
C496 O494 1.247 . S
C496 O495 1.208 . S
C497 O502 1.247 . S
C497 O503 1.208 . S
C498 O490 1.315 . S
C498 O493 1.279 . S
C499 O500 1.315 . S
C499 O501 1.279 . S
O500 Cd492 2.223 . S
O500 C499 1.315 . S
O501 Cd491 2.240 . S
O501 C499 1.279 . S
O502 Cd492 2.297 . S
O502 C497 1.247 . S
O503 Cd492 2.439 . S
O503 C497 1.208 . S
O504 Cd505 2.223 . S
O504 C512 1.315 . S
Cd505 O504 2.223 . S
Cd505 O508 2.297 . S
Cd505 O509 2.439 . S
Cd505 O515 2.240 . S
Cd506 O507 2.240 . S
Cd506 O514 2.223 . S
Cd506 O516 2.297 . S
Cd506 O517 2.439 . S
O507 Cd506 2.240 . S
O507 C512 1.279 . S
O508 Cd505 2.297 . S
O508 C510 1.247 . S
O509 Cd505 2.439 . S
O509 C510 1.208 . S
C510 O508 1.247 . S
C510 O509 1.208 . S
C511 O516 1.247 . S
C511 O517 1.208 . S
C512 O504 1.315 . S
C512 O507 1.279 . S
C513 O514 1.315 . S
C513 O515 1.279 . S
O514 Cd506 2.223 . S
O514 C513 1.315 . S
O515 Cd505 2.240 . S
O515 C513 1.279 . S
O516 Cd506 2.297 . S
O516 C511 1.247 . S
O517 Cd506 2.439 . S
O517 C511 1.208 . S
O518 Cd519 2.223 . S
O518 C526 1.315 . S
Cd519 O518 2.223 . S
Cd519 O522 2.297 . S
Cd519 O523 2.439 . S
Cd519 O529 2.240 . S
Cd520 O521 2.240 . S
Cd520 O528 2.223 . S
Cd520 O530 2.297 . S
Cd520 O531 2.439 . S
O521 Cd520 2.240 . S
O521 C526 1.279 . S
O522 Cd519 2.297 . S
O522 C524 1.247 . S
O523 Cd519 2.439 . S
O523 C524 1.208 . S
C524 O522 1.247 . S
C524 O523 1.208 . S
C525 O530 1.247 . S
C525 O531 1.208 . S
C526 O518 1.315 . S
C526 O521 1.279 . S
C527 O528 1.315 . S
C527 O529 1.279 . S
O528 Cd520 2.223 . S
O528 C527 1.315 . S
O529 Cd519 2.240 . S
O529 C527 1.279 . S
O530 Cd520 2.297 . S
O530 C525 1.247 . S
O531 Cd520 2.439 . S
O531 C525 1.208 . S
O532 Cd533 2.223 . S
O532 C540 1.315 . S
Cd533 O532 2.223 . S
Cd533 O536 2.297 . S
Cd533 O537 2.439 . S
Cd533 O543 2.240 . S
Cd534 O535 2.240 . S
Cd534 O542 2.223 . S
Cd534 O544 2.297 . S
Cd534 O545 2.439 . S
O535 Cd534 2.240 . S
O535 C540 1.279 . S
O536 Cd533 2.297 . S
O536 C538 1.247 . S
O537 Cd533 2.439 . S
O537 C538 1.208 . S
C538 O536 1.247 . S
C538 O537 1.208 . S
C539 O544 1.247 . S
C539 O545 1.208 . S
C540 O532 1.315 . S
C540 O535 1.279 . S
C541 O542 1.315 . S
C541 O543 1.279 . S
O542 Cd534 2.223 . S
O542 C541 1.315 . S
O543 Cd533 2.240 . S
O543 C541 1.279 . S
O544 Cd534 2.297 . S
O544 C539 1.247 . S
O545 Cd534 2.439 . S
O545 C539 1.208 . S
O546 Cd547 2.223 . S
O546 C554 1.315 . S
Cd547 O546 2.223 . S
Cd547 O550 2.297 . S
Cd547 O551 2.439 . S
Cd547 O557 2.240 . S
Cd548 O549 2.240 . S
Cd548 O556 2.223 . S
Cd548 O558 2.297 . S
Cd548 O559 2.439 . S
O549 Cd548 2.240 . S
O549 C554 1.279 . S
O550 Cd547 2.297 . S
O550 C552 1.247 . S
O551 Cd547 2.439 . S
O551 C552 1.208 . S
C552 O550 1.247 . S
C552 O551 1.208 . S
C553 O558 1.247 . S
C553 O559 1.208 . S
C554 O546 1.315 . S
C554 O549 1.279 . S
C555 O556 1.315 . S
C555 O557 1.279 . S
O556 Cd548 2.223 . S
O556 C555 1.315 . S
O557 Cd547 2.240 . S
O557 C555 1.279 . S
O558 Cd548 2.297 . S
O558 C553 1.247 . S
O559 Cd548 2.439 . S
O559 C553 1.208 . S
O560 Cd561 2.223 . S
O560 C568 1.315 . S
Cd561 O560 2.223 . S
Cd561 O564 2.297 . S
Cd561 O565 2.439 . S
Cd561 O571 2.240 . S
Cd562 O563 2.240 . S
Cd562 O570 2.223 . S
Cd562 O572 2.297 . S
Cd562 O573 2.439 . S
O563 Cd562 2.240 . S
O563 C568 1.279 . S
O564 Cd561 2.297 . S
O564 C566 1.247 . S
O565 Cd561 2.439 . S
O565 C566 1.208 . S
C566 O564 1.247 . S
C566 O565 1.208 . S
C567 O572 1.247 . S
C567 O573 1.208 . S
C568 O560 1.315 . S
C568 O563 1.279 . S
C569 O570 1.315 . S
C569 O571 1.279 . S
O570 Cd562 2.223 . S
O570 C569 1.315 . S
O571 Cd561 2.240 . S
O571 C569 1.279 . S
O572 Cd562 2.297 . S
O572 C567 1.247 . S
O573 Cd562 2.439 . S
O573 C567 1.208 . S
O574 Cd575 2.223 . S
O574 C582 1.315 . S
Cd575 O574 2.223 . S
Cd575 O578 2.297 . S
Cd575 O579 2.439 . S
Cd575 O585 2.240 . S
Cd576 O577 2.240 . S
Cd576 O584 2.223 . S
Cd576 O586 2.297 . S
Cd576 O587 2.439 . S
O577 Cd576 2.240 . S
O577 C582 1.279 . S
O578 Cd575 2.297 . S
O578 C580 1.247 . S
O579 Cd575 2.439 . S
O579 C580 1.208 . S
C580 O578 1.247 . S
C580 O579 1.208 . S
C581 O586 1.247 . S
C581 O587 1.208 . S
C582 O574 1.315 . S
C582 O577 1.279 . S
C583 O584 1.315 . S
C583 O585 1.279 . S
O584 Cd576 2.223 . S
O584 C583 1.315 . S
O585 Cd575 2.240 . S
O585 C583 1.279 . S
O586 Cd576 2.297 . S
O586 C581 1.247 . S
O587 Cd576 2.439 . S
O587 C581 1.208 . S
O588 Cd589 2.223 . S
O588 C596 1.315 . S
Cd589 O588 2.223 . S
Cd589 O592 2.297 . S
Cd589 O593 2.439 . S
Cd589 O599 2.240 . S
Cd590 O591 2.240 . S
Cd590 O598 2.223 . S
Cd590 O600 2.297 . S
Cd590 O601 2.439 . S
O591 Cd590 2.240 . S
O591 C596 1.279 . S
O592 Cd589 2.297 . S
O592 C594 1.247 . S
O593 Cd589 2.439 . S
O593 C594 1.208 . S
C594 O592 1.247 . S
C594 O593 1.208 . S
C595 O600 1.247 . S
C595 O601 1.208 . S
C596 O588 1.315 . S
C596 O591 1.279 . S
C597 O598 1.315 . S
C597 O599 1.279 . S
O598 Cd590 2.223 . S
O598 C597 1.315 . S
O599 Cd589 2.240 . S
O599 C597 1.279 . S
O600 Cd590 2.297 . S
O600 C595 1.247 . S
O601 Cd590 2.439 . S
O601 C595 1.208 . S
O602 Cd603 2.223 . S
O602 C610 1.315 . S
Cd603 O602 2.223 . S
Cd603 O606 2.297 . S
Cd603 O607 2.439 . S
Cd603 O613 2.240 . S
Cd604 O605 2.240 . S
Cd604 O612 2.223 . S
Cd604 O614 2.297 . S
Cd604 O615 2.439 . S
O605 Cd604 2.240 . S
O605 C610 1.279 . S
O606 Cd603 2.297 . S
O606 C608 1.247 . S
O607 Cd603 2.439 . S
O607 C608 1.208 . S
C608 O606 1.247 . S
C608 O607 1.208 . S
C609 O614 1.247 . S
C609 O615 1.208 . S
C610 O602 1.315 . S
C610 O605 1.279 . S
C611 O612 1.315 . S
C611 O613 1.279 . S
O612 Cd604 2.223 . S
O612 C611 1.315 . S
O613 Cd603 2.240 . S
O613 C611 1.279 . S
O614 Cd604 2.297 . S
O614 C609 1.247 . S
O615 Cd604 2.439 . S
O615 C609 1.208 . S
O616 Cd617 2.223 . S
O616 C624 1.315 . S
Cd617 O616 2.223 . S
Cd617 O620 2.297 . S
Cd617 O621 2.439 . S
Cd617 O627 2.240 . S
Cd618 O619 2.240 . S
Cd618 O626 2.223 . S
Cd618 O628 2.297 . S
Cd618 O629 2.439 . S
O619 Cd618 2.240 . S
O619 C624 1.279 . S
O620 Cd617 2.297 . S
O620 C622 1.247 . S
O621 Cd617 2.439 . S
O621 C622 1.208 . S
C622 O620 1.247 . S
C622 O621 1.208 . S
C623 O628 1.247 . S
C623 O629 1.208 . S
C624 O616 1.315 . S
C624 O619 1.279 . S
C625 O626 1.315 . S
C625 O627 1.279 . S
O626 Cd618 2.223 . S
O626 C625 1.315 . S
O627 Cd617 2.240 . S
O627 C625 1.279 . S
O628 Cd618 2.297 . S
O628 C623 1.247 . S
O629 Cd618 2.439 . S
O629 C623 1.208 . S
O630 Cd631 2.223 . S
O630 C638 1.315 . S
Cd631 O630 2.223 . S
Cd631 O634 2.297 . S
Cd631 O635 2.439 . S
Cd631 O641 2.240 . S
Cd632 O633 2.240 . S
Cd632 O640 2.223 . S
Cd632 O642 2.297 . S
Cd632 O643 2.439 . S
O633 Cd632 2.240 . S
O633 C638 1.279 . S
O634 Cd631 2.297 . S
O634 C636 1.247 . S
O635 Cd631 2.439 . S
O635 C636 1.208 . S
C636 O634 1.247 . S
C636 O635 1.208 . S
C637 O642 1.247 . S
C637 O643 1.208 . S
C638 O630 1.315 . S
C638 O633 1.279 . S
C639 O640 1.315 . S
C639 O641 1.279 . S
O640 Cd632 2.223 . S
O640 C639 1.315 . S
O641 Cd631 2.240 . S
O641 C639 1.279 . S
O642 Cd632 2.297 . S
O642 C637 1.247 . S
O643 Cd632 2.439 . S
O643 C637 1.208 . S
O644 Cd645 2.223 . S
O644 C652 1.315 . S
Cd645 O644 2.223 . S
Cd645 O648 2.297 . S
Cd645 O649 2.439 . S
Cd645 O655 2.240 . S
Cd646 O647 2.240 . S
Cd646 O654 2.223 . S
Cd646 O656 2.297 . S
Cd646 O657 2.439 . S
O647 Cd646 2.240 . S
O647 C652 1.279 . S
O648 Cd645 2.297 . S
O648 C650 1.247 . S
O649 Cd645 2.439 . S
O649 C650 1.208 . S
C650 O648 1.247 . S
C650 O649 1.208 . S
C651 O656 1.247 . S
C651 O657 1.208 . S
C652 O644 1.315 . S
C652 O647 1.279 . S
C653 O654 1.315 . S
C653 O655 1.279 . S
O654 Cd646 2.223 . S
O654 C653 1.315 . S
O655 Cd645 2.240 . S
O655 C653 1.279 . S
O656 Cd646 2.297 . S
O656 C651 1.247 . S
O657 Cd646 2.439 . S
O657 C651 1.208 . S
O658 Cd659 2.223 . S
O658 C666 1.315 . S
Cd659 O658 2.223 . S
Cd659 O662 2.297 . S
Cd659 O663 2.439 . S
Cd659 O669 2.240 . S
Cd660 O661 2.240 . S
Cd660 O668 2.223 . S
Cd660 O670 2.297 . S
Cd660 O671 2.439 . S
O661 Cd660 2.240 . S
O661 C666 1.279 . S
O662 Cd659 2.297 . S
O662 C664 1.247 . S
O663 Cd659 2.439 . S
O663 C664 1.208 . S
C664 O662 1.247 . S
C664 O663 1.208 . S
C665 O670 1.247 . S
C665 O671 1.208 . S
C666 O658 1.315 . S
C666 O661 1.279 . S
C667 O668 1.315 . S
C667 O669 1.279 . S
O668 Cd660 2.223 . S
O668 C667 1.315 . S
O669 Cd659 2.240 . S
O669 C667 1.279 . S
O670 Cd660 2.297 . S
O670 C665 1.247 . S
O671 Cd660 2.439 . S
O671 C665 1.208 . S
O672 Cd673 2.223 . S
O672 C680 1.315 . S
Cd673 O672 2.223 . S
Cd673 O676 2.297 . S
Cd673 O677 2.439 . S
Cd673 O683 2.240 . S
Cd674 O675 2.240 . S
Cd674 O682 2.223 . S
Cd674 O684 2.297 . S
Cd674 O685 2.439 . S
O675 Cd674 2.240 . S
O675 C680 1.279 . S
O676 Cd673 2.297 . S
O676 C678 1.247 . S
O677 Cd673 2.439 . S
O677 C678 1.208 . S
C678 O676 1.247 . S
C678 O677 1.208 . S
C679 O684 1.247 . S
C679 O685 1.208 . S
C680 O672 1.315 . S
C680 O675 1.279 . S
C681 O682 1.315 . S
C681 O683 1.279 . S
O682 Cd674 2.223 . S
O682 C681 1.315 . S
O683 Cd673 2.240 . S
O683 C681 1.279 . S
O684 Cd674 2.297 . S
O684 C679 1.247 . S
O685 Cd674 2.439 . S
O685 C679 1.208 . S
O686 Cd687 2.223 . S
O686 C694 1.315 . S
Cd687 O686 2.223 . S
Cd687 O690 2.297 . S
Cd687 O691 2.439 . S
Cd687 O697 2.240 . S
Cd688 O689 2.240 . S
Cd688 O696 2.223 . S
Cd688 O698 2.297 . S
Cd688 O699 2.439 . S
O689 Cd688 2.240 . S
O689 C694 1.279 . S
O690 Cd687 2.297 . S
O690 C692 1.247 . S
O691 Cd687 2.439 . S
O691 C692 1.208 . S
C692 O690 1.247 . S
C692 O691 1.208 . S
C693 O698 1.247 . S
C693 O699 1.208 . S
C694 O686 1.315 . S
C694 O689 1.279 . S
C695 O696 1.315 . S
C695 O697 1.279 . S
O696 Cd688 2.223 . S
O696 C695 1.315 . S
O697 Cd687 2.240 . S
O697 C695 1.279 . S
O698 Cd688 2.297 . S
O698 C693 1.247 . S
O699 Cd688 2.439 . S
O699 C693 1.208 . S
O700 Cd701 2.223 . S
O700 C708 1.315 . S
Cd701 O700 2.223 . S
Cd701 O704 2.297 . S
Cd701 O705 2.439 . S
Cd701 O711 2.240 . S
Cd702 O703 2.240 . S
Cd702 O710 2.223 . S
Cd702 O712 2.297 . S
Cd702 O713 2.439 . S
O703 Cd702 2.240 . S
O703 C708 1.279 . S
O704 Cd701 2.297 . S
O704 C706 1.247 . S
O705 Cd701 2.439 . S
O705 C706 1.208 . S
C706 O704 1.247 . S
C706 O705 1.208 . S
C707 O712 1.247 . S
C707 O713 1.208 . S
C708 O700 1.315 . S
C708 O703 1.279 . S
C709 O710 1.315 . S
C709 O711 1.279 . S
O710 Cd702 2.223 . S
O710 C709 1.315 . S
O711 Cd701 2.240 . S
O711 C709 1.279 . S
O712 Cd702 2.297 . S
O712 C707 1.247 . S
O713 Cd702 2.439 . S
O713 C707 1.208 . S
O714 Cd715 2.223 . S
O714 C722 1.315 . S
Cd715 O714 2.223 . S
Cd715 O718 2.297 . S
Cd715 O719 2.439 . S
Cd715 O725 2.240 . S
Cd716 O717 2.240 . S
Cd716 O724 2.223 . S
Cd716 O726 2.297 . S
Cd716 O727 2.439 . S
O717 Cd716 2.240 . S
O717 C722 1.279 . S
O718 Cd715 2.297 . S
O718 C720 1.247 . S
O719 Cd715 2.439 . S
O719 C720 1.208 . S
C720 O718 1.247 . S
C720 O719 1.208 . S
C721 O726 1.247 . S
C721 O727 1.208 . S
C722 O714 1.315 . S
C722 O717 1.279 . S
C723 O724 1.315 . S
C723 O725 1.279 . S
O724 Cd716 2.223 . S
O724 C723 1.315 . S
O725 Cd715 2.240 . S
O725 C723 1.279 . S
O726 Cd716 2.297 . S
O726 C721 1.247 . S
O727 Cd716 2.439 . S
O727 C721 1.208 . S
O728 Cd729 2.223 . S
O728 C736 1.315 . S
Cd729 O728 2.223 . S
Cd729 O732 2.297 . S
Cd729 O733 2.439 . S
Cd729 O739 2.240 . S
Cd730 O731 2.240 . S
Cd730 O738 2.223 . S
Cd730 O740 2.297 . S
Cd730 O741 2.439 . S
O731 Cd730 2.240 . S
O731 C736 1.279 . S
O732 Cd729 2.297 . S
O732 C734 1.247 . S
O733 Cd729 2.439 . S
O733 C734 1.208 . S
C734 O732 1.247 . S
C734 O733 1.208 . S
C735 O740 1.247 . S
C735 O741 1.208 . S
C736 O728 1.315 . S
C736 O731 1.279 . S
C737 O738 1.315 . S
C737 O739 1.279 . S
O738 Cd730 2.223 . S
O738 C737 1.315 . S
O739 Cd729 2.240 . S
O739 C737 1.279 . S
O740 Cd730 2.297 . S
O740 C735 1.247 . S
O741 Cd730 2.439 . S
O741 C735 1.208 . S
O742 Cd743 2.223 . S
O742 C750 1.315 . S
Cd743 O742 2.223 . S
Cd743 O746 2.297 . S
Cd743 O747 2.439 . S
Cd743 O753 2.240 . S
Cd744 O745 2.240 . S
Cd744 O752 2.223 . S
Cd744 O754 2.297 . S
Cd744 O755 2.439 . S
O745 Cd744 2.240 . S
O745 C750 1.279 . S
O746 Cd743 2.297 . S
O746 C748 1.247 . S
O747 Cd743 2.439 . S
O747 C748 1.208 . S
C748 O746 1.247 . S
C748 O747 1.208 . S
C749 O754 1.247 . S
C749 O755 1.208 . S
C750 O742 1.315 . S
C750 O745 1.279 . S
C751 O752 1.315 . S
C751 O753 1.279 . S
O752 Cd744 2.223 . S
O752 C751 1.315 . S
O753 Cd743 2.240 . S
O753 C751 1.279 . S
O754 Cd744 2.297 . S
O754 C749 1.247 . S
O755 Cd744 2.439 . S
O755 C749 1.208 . S
O756 Cd757 2.223 . S
O756 C764 1.315 . S
Cd757 O756 2.223 . S
Cd757 O760 2.297 . S
Cd757 O761 2.439 . S
Cd757 O767 2.240 . S
Cd758 O759 2.240 . S
Cd758 O766 2.223 . S
Cd758 O768 2.297 . S
Cd758 O769 2.439 . S
O759 Cd758 2.240 . S
O759 C764 1.279 . S
O760 Cd757 2.297 . S
O760 C762 1.247 . S
O761 Cd757 2.439 . S
O761 C762 1.208 . S
C762 O760 1.247 . S
C762 O761 1.208 . S
C763 O768 1.247 . S
C763 O769 1.208 . S
C764 O756 1.315 . S
C764 O759 1.279 . S
C765 O766 1.315 . S
C765 O767 1.279 . S
O766 Cd758 2.223 . S
O766 C765 1.315 . S
O767 Cd757 2.240 . S
O767 C765 1.279 . S
O768 Cd758 2.297 . S
O768 C763 1.247 . S
O769 Cd758 2.439 . S
O769 C763 1.208 . S
O770 Cd771 2.223 . S
O770 C778 1.315 . S
Cd771 O770 2.223 . S
Cd771 O774 2.297 . S
Cd771 O775 2.439 . S
Cd771 O781 2.240 . S
Cd772 O773 2.240 . S
Cd772 O780 2.223 . S
Cd772 O782 2.297 . S
Cd772 O783 2.439 . S
O773 Cd772 2.240 . S
O773 C778 1.279 . S
O774 Cd771 2.297 . S
O774 C776 1.247 . S
O775 Cd771 2.439 . S
O775 C776 1.208 . S
C776 O774 1.247 . S
C776 O775 1.208 . S
C777 O782 1.247 . S
C777 O783 1.208 . S
C778 O770 1.315 . S
C778 O773 1.279 . S
C779 O780 1.315 . S
C779 O781 1.279 . S
O780 Cd772 2.223 . S
O780 C779 1.315 . S
O781 Cd771 2.240 . S
O781 C779 1.279 . S
O782 Cd772 2.297 . S
O782 C777 1.247 . S
O783 Cd772 2.439 . S
O783 C777 1.208 . S
O784 Cd785 2.223 . S
O784 C792 1.315 . S
Cd785 O784 2.223 . S
Cd785 O788 2.297 . S
Cd785 O789 2.439 . S
Cd785 O795 2.240 . S
Cd786 O787 2.240 . S
Cd786 O794 2.223 . S
Cd786 O796 2.297 . S
Cd786 O797 2.439 . S
O787 Cd786 2.240 . S
O787 C792 1.279 . S
O788 Cd785 2.297 . S
O788 C790 1.247 . S
O789 Cd785 2.439 . S
O789 C790 1.208 . S
C790 O788 1.247 . S
C790 O789 1.208 . S
C791 O796 1.247 . S
C791 O797 1.208 . S
C792 O784 1.315 . S
C792 O787 1.279 . S
C793 O794 1.315 . S
C793 O795 1.279 . S
O794 Cd786 2.223 . S
O794 C793 1.315 . S
O795 Cd785 2.240 . S
O795 C793 1.279 . S
O796 Cd786 2.297 . S
O796 C791 1.247 . S
O797 Cd786 2.439 . S
O797 C791 1.208 . S
O798 Cd799 2.223 . S
O798 C806 1.315 . S
Cd799 O798 2.223 . S
Cd799 O802 2.297 . S
Cd799 O803 2.439 . S
Cd799 O809 2.240 . S
Cd800 O801 2.240 . S
Cd800 O808 2.223 . S
Cd800 O810 2.297 . S
Cd800 O811 2.439 . S
O801 Cd800 2.240 . S
O801 C806 1.279 . S
O802 Cd799 2.297 . S
O802 C804 1.247 . S
O803 Cd799 2.439 . S
O803 C804 1.208 . S
C804 O802 1.247 . S
C804 O803 1.208 . S
C805 O810 1.247 . S
C805 O811 1.208 . S
C806 O798 1.315 . S
C806 O801 1.279 . S
C807 O808 1.315 . S
C807 O809 1.279 . S
O808 Cd800 2.223 . S
O808 C807 1.315 . S
O809 Cd799 2.240 . S
O809 C807 1.279 . S
O810 Cd800 2.297 . S
O810 C805 1.247 . S
O811 Cd800 2.439 . S
O811 C805 1.208 . S
O812 Cd813 2.223 . S
O812 C820 1.315 . S
Cd813 O812 2.223 . S
Cd813 O816 2.297 . S
Cd813 O817 2.439 . S
Cd813 O823 2.240 . S
Cd814 O815 2.240 . S
Cd814 O822 2.223 . S
Cd814 O824 2.297 . S
Cd814 O825 2.439 . S
O815 Cd814 2.240 . S
O815 C820 1.279 . S
O816 Cd813 2.297 . S
O816 C818 1.247 . S
O817 Cd813 2.439 . S
O817 C818 1.208 . S
C818 O816 1.247 . S
C818 O817 1.208 . S
C819 O824 1.247 . S
C819 O825 1.208 . S
C820 O812 1.315 . S
C820 O815 1.279 . S
C821 O822 1.315 . S
C821 O823 1.279 . S
O822 Cd814 2.223 . S
O822 C821 1.315 . S
O823 Cd813 2.240 . S
O823 C821 1.279 . S
O824 Cd814 2.297 . S
O824 C819 1.247 . S
O825 Cd814 2.439 . S
O825 C819 1.208 . S
O826 Cd827 2.223 . S
O826 C834 1.315 . S
Cd827 O826 2.223 . S
Cd827 O830 2.297 . S
Cd827 O831 2.439 . S
Cd827 O837 2.240 . S
Cd828 O829 2.240 . S
Cd828 O836 2.223 . S
Cd828 O838 2.297 . S
Cd828 O839 2.439 . S
O829 Cd828 2.240 . S
O829 C834 1.279 . S
O830 Cd827 2.297 . S
O830 C832 1.247 . S
O831 Cd827 2.439 . S
O831 C832 1.208 . S
C832 O830 1.247 . S
C832 O831 1.208 . S
C833 O838 1.247 . S
C833 O839 1.208 . S
C834 O826 1.315 . S
C834 O829 1.279 . S
C835 O836 1.315 . S
C835 O837 1.279 . S
O836 Cd828 2.223 . S
O836 C835 1.315 . S
O837 Cd827 2.240 . S
O837 C835 1.279 . S
O838 Cd828 2.297 . S
O838 C833 1.247 . S
O839 Cd828 2.439 . S
O839 C833 1.208 . S
O840 Cd841 2.223 . S
O840 C848 1.315 . S
Cd841 O840 2.223 . S
Cd841 O844 2.297 . S
Cd841 O845 2.439 . S
Cd841 O851 2.240 . S
Cd842 O843 2.240 . S
Cd842 O850 2.223 . S
Cd842 O852 2.297 . S
Cd842 O853 2.439 . S
O843 Cd842 2.240 . S
O843 C848 1.279 . S
O844 Cd841 2.297 . S
O844 C846 1.247 . S
O845 Cd841 2.439 . S
O845 C846 1.208 . S
C846 O844 1.247 . S
C846 O845 1.208 . S
C847 O852 1.247 . S
C847 O853 1.208 . S
C848 O840 1.315 . S
C848 O843 1.279 . S
C849 O850 1.315 . S
C849 O851 1.279 . S
O850 Cd842 2.223 . S
O850 C849 1.315 . S
O851 Cd841 2.240 . S
O851 C849 1.279 . S
O852 Cd842 2.297 . S
O852 C847 1.247 . S
O853 Cd842 2.439 . S
O853 C847 1.208 . S
O854 Cd855 2.223 . S
O854 C862 1.315 . S
Cd855 O854 2.223 . S
Cd855 O858 2.297 . S
Cd855 O859 2.439 . S
Cd855 O865 2.240 . S
Cd856 O857 2.240 . S
Cd856 O864 2.223 . S
Cd856 O866 2.297 . S
Cd856 O867 2.439 . S
O857 Cd856 2.240 . S
O857 C862 1.279 . S
O858 Cd855 2.297 . S
O858 C860 1.247 . S
O859 Cd855 2.439 . S
O859 C860 1.208 . S
C860 O858 1.247 . S
C860 O859 1.208 . S
C861 O866 1.247 . S
C861 O867 1.208 . S
C862 O854 1.315 . S
C862 O857 1.279 . S
C863 O864 1.315 . S
C863 O865 1.279 . S
O864 Cd856 2.223 . S
O864 C863 1.315 . S
O865 Cd855 2.240 . S
O865 C863 1.279 . S
O866 Cd856 2.297 . S
O866 C861 1.247 . S
O867 Cd856 2.439 . S
O867 C861 1.208 . S
O868 Cd869 2.223 . S
O868 C876 1.315 . S
Cd869 O868 2.223 . S
Cd869 O872 2.297 . S
Cd869 O873 2.439 . S
Cd869 O879 2.240 . S
Cd870 O871 2.240 . S
Cd870 O878 2.223 . S
Cd870 O880 2.297 . S
Cd870 O881 2.439 . S
O871 Cd870 2.240 . S
O871 C876 1.279 . S
O872 Cd869 2.297 . S
O872 C874 1.247 . S
O873 Cd869 2.439 . S
O873 C874 1.208 . S
C874 O872 1.247 . S
C874 O873 1.208 . S
C875 O880 1.247 . S
C875 O881 1.208 . S
C876 O868 1.315 . S
C876 O871 1.279 . S
C877 O878 1.315 . S
C877 O879 1.279 . S
O878 Cd870 2.223 . S
O878 C877 1.315 . S
O879 Cd869 2.240 . S
O879 C877 1.279 . S
O880 Cd870 2.297 . S
O880 C875 1.247 . S
O881 Cd870 2.439 . S
O881 C875 1.208 . S
O882 Cd883 2.223 . S
O882 C890 1.315 . S
Cd883 O882 2.223 . S
Cd883 O886 2.297 . S
Cd883 O887 2.439 . S
Cd883 O893 2.240 . S
Cd884 O885 2.240 . S
Cd884 O892 2.223 . S
Cd884 O894 2.297 . S
Cd884 O895 2.439 . S
O885 Cd884 2.240 . S
O885 C890 1.279 . S
O886 Cd883 2.297 . S
O886 C888 1.247 . S
O887 Cd883 2.439 . S
O887 C888 1.208 . S
C888 O886 1.247 . S
C888 O887 1.208 . S
C889 O894 1.247 . S
C889 O895 1.208 . S
C890 O882 1.315 . S
C890 O885 1.279 . S
C891 O892 1.315 . S
C891 O893 1.279 . S
O892 Cd884 2.223 . S
O892 C891 1.315 . S
O893 Cd883 2.240 . S
O893 C891 1.279 . S
O894 Cd884 2.297 . S
O894 C889 1.247 . S
O895 Cd884 2.439 . S
O895 C889 1.208 . S
O896 Cd897 2.223 . S
O896 C904 1.315 . S
Cd897 O896 2.223 . S
Cd897 O900 2.297 . S
Cd897 O901 2.439 . S
Cd897 O907 2.240 . S
Cd898 O899 2.240 . S
Cd898 O906 2.223 . S
Cd898 O908 2.297 . S
Cd898 O909 2.439 . S
O899 Cd898 2.240 . S
O899 C904 1.279 . S
O900 Cd897 2.297 . S
O900 C902 1.247 . S
O901 Cd897 2.439 . S
O901 C902 1.208 . S
C902 O900 1.247 . S
C902 O901 1.208 . S
C903 O908 1.247 . S
C903 O909 1.208 . S
C904 O896 1.315 . S
C904 O899 1.279 . S
C905 O906 1.315 . S
C905 O907 1.279 . S
O906 Cd898 2.223 . S
O906 C905 1.315 . S
O907 Cd897 2.240 . S
O907 C905 1.279 . S
O908 Cd898 2.297 . S
O908 C903 1.247 . S
O909 Cd898 2.439 . S
O909 C903 1.208 . S
O910 Cd911 2.223 . S
O910 C918 1.315 . S
Cd911 O910 2.223 . S
Cd911 O914 2.297 . S
Cd911 O915 2.439 . S
Cd911 O921 2.240 . S
Cd912 O913 2.240 . S
Cd912 O920 2.223 . S
Cd912 O922 2.297 . S
Cd912 O923 2.439 . S
O913 Cd912 2.240 . S
O913 C918 1.279 . S
O914 Cd911 2.297 . S
O914 C916 1.247 . S
O915 Cd911 2.439 . S
O915 C916 1.208 . S
C916 O914 1.247 . S
C916 O915 1.208 . S
C917 O922 1.247 . S
C917 O923 1.208 . S
C918 O910 1.315 . S
C918 O913 1.279 . S
C919 O920 1.315 . S
C919 O921 1.279 . S
O920 Cd912 2.223 . S
O920 C919 1.315 . S
O921 Cd911 2.240 . S
O921 C919 1.279 . S
O922 Cd912 2.297 . S
O922 C917 1.247 . S
O923 Cd912 2.439 . S
O923 C917 1.208 . S
O924 Cd925 2.223 . S
O924 C932 1.315 . S
Cd925 O924 2.223 . S
Cd925 O928 2.297 . S
Cd925 O929 2.439 . S
Cd925 O935 2.240 . S
Cd926 O927 2.240 . S
Cd926 O934 2.223 . S
Cd926 O936 2.297 . S
Cd926 O937 2.439 . S
O927 Cd926 2.240 . S
O927 C932 1.279 . S
O928 Cd925 2.297 . S
O928 C930 1.247 . S
O929 Cd925 2.439 . S
O929 C930 1.208 . S
C930 O928 1.247 . S
C930 O929 1.208 . S
C931 O936 1.247 . S
C931 O937 1.208 . S
C932 O924 1.315 . S
C932 O927 1.279 . S
C933 O934 1.315 . S
C933 O935 1.279 . S
O934 Cd926 2.223 . S
O934 C933 1.315 . S
O935 Cd925 2.240 . S
O935 C933 1.279 . S
O936 Cd926 2.297 . S
O936 C931 1.247 . S
O937 Cd926 2.439 . S
O937 C931 1.208 . S
O938 Cd939 2.223 . S
O938 C946 1.315 . S
Cd939 O938 2.223 . S
Cd939 O942 2.297 . S
Cd939 O943 2.439 . S
Cd939 O949 2.240 . S
Cd940 O941 2.240 . S
Cd940 O948 2.223 . S
Cd940 O950 2.297 . S
Cd940 O951 2.439 . S
O941 Cd940 2.240 . S
O941 C946 1.279 . S
O942 Cd939 2.297 . S
O942 C944 1.247 . S
O943 Cd939 2.439 . S
O943 C944 1.208 . S
C944 O942 1.247 . S
C944 O943 1.208 . S
C945 O950 1.247 . S
C945 O951 1.208 . S
C946 O938 1.315 . S
C946 O941 1.279 . S
C947 O948 1.315 . S
C947 O949 1.279 . S
O948 Cd940 2.223 . S
O948 C947 1.315 . S
O949 Cd939 2.240 . S
O949 C947 1.279 . S
O950 Cd940 2.297 . S
O950 C945 1.247 . S
O951 Cd940 2.439 . S
O951 C945 1.208 . S
O952 Cd953 2.223 . S
O952 C960 1.315 . S
Cd953 O952 2.223 . S
Cd953 O956 2.297 . S
Cd953 O957 2.439 . S
Cd953 O963 2.240 . S
Cd954 O955 2.240 . S
Cd954 O962 2.223 . S
Cd954 O964 2.297 . S
Cd954 O965 2.439 . S
O955 Cd954 2.240 . S
O955 C960 1.279 . S
O956 Cd953 2.297 . S
O956 C958 1.247 . S
O957 Cd953 2.439 . S
O957 C958 1.208 . S
C958 O956 1.247 . S
C958 O957 1.208 . S
C959 O964 1.247 . S
C959 O965 1.208 . S
C960 O952 1.315 . S
C960 O955 1.279 . S
C961 O962 1.315 . S
C961 O963 1.279 . S
O962 Cd954 2.223 . S
O962 C961 1.315 . S
O963 Cd953 2.240 . S
O963 C961 1.279 . S
O964 Cd954 2.297 . S
O964 C959 1.247 . S
O965 Cd954 2.439 . S
O965 C959 1.208 . S
O966 Cd967 2.223 . S
O966 C974 1.315 . S
Cd967 O966 2.223 . S
Cd967 O970 2.297 . S
Cd967 O971 2.439 . S
Cd967 O977 2.240 . S
Cd968 O969 2.240 . S
Cd968 O976 2.223 . S
Cd968 O978 2.297 . S
Cd968 O979 2.439 . S
O969 Cd968 2.240 . S
O969 C974 1.279 . S
O970 Cd967 2.297 . S
O970 C972 1.247 . S
O971 Cd967 2.439 . S
O971 C972 1.208 . S
C972 O970 1.247 . S
C972 O971 1.208 . S
C973 O978 1.247 . S
C973 O979 1.208 . S
C974 O966 1.315 . S
C974 O969 1.279 . S
C975 O976 1.315 . S
C975 O977 1.279 . S
O976 Cd968 2.223 . S
O976 C975 1.315 . S
O977 Cd967 2.240 . S
O977 C975 1.279 . S
O978 Cd968 2.297 . S
O978 C973 1.247 . S
O979 Cd968 2.439 . S
O979 C973 1.208 . S
O980 Cd981 2.223 . S
O980 C988 1.315 . S
Cd981 O980 2.223 . S
Cd981 O984 2.297 . S
Cd981 O985 2.439 . S
Cd981 O991 2.240 . S
Cd982 O983 2.240 . S
Cd982 O990 2.223 . S
Cd982 O992 2.297 . S
Cd982 O993 2.439 . S
O983 Cd982 2.240 . S
O983 C988 1.279 . S
O984 Cd981 2.297 . S
O984 C986 1.247 . S
O985 Cd981 2.439 . S
O985 C986 1.208 . S
C986 O984 1.247 . S
C986 O985 1.208 . S
C987 O992 1.247 . S
C987 O993 1.208 . S
C988 O980 1.315 . S
C988 O983 1.279 . S
C989 O990 1.315 . S
C989 O991 1.279 . S
O990 Cd982 2.223 . S
O990 C989 1.315 . S
O991 Cd981 2.240 . S
O991 C989 1.279 . S
O992 Cd982 2.297 . S
O992 C987 1.247 . S
O993 Cd982 2.439 . S
O993 C987 1.208 . S
O994 Cd995 2.223 . S
O994 C1002 1.315 . S
Cd995 O994 2.223 . S
Cd995 O998 2.297 . S
Cd995 O999 2.439 . S
Cd995 O1005 2.240 . S
Cd996 O997 2.240 . S
Cd996 O1004 2.223 . S
Cd996 O1006 2.297 . S
Cd996 O1007 2.439 . S
O997 Cd996 2.240 . S
O997 C1002 1.279 . S
O998 Cd995 2.297 . S
O998 C1000 1.247 . S
O999 Cd995 2.439 . S
O999 C1000 1.208 . S
C1000 O998 1.247 . S
C1000 O999 1.208 . S
C1001 O1006 1.247 . S
C1001 O1007 1.208 . S
C1002 O994 1.315 . S
C1002 O997 1.279 . S
C1003 O1004 1.315 . S
C1003 O1005 1.279 . S
O1004 Cd996 2.223 . S
O1004 C1003 1.315 . S
O1005 Cd995 2.240 . S
O1005 C1003 1.279 . S
O1006 Cd996 2.297 . S
O1006 C1001 1.247 . S
O1007 Cd996 2.439 . S
O1007 C1001 1.208 . S
O1008 Cd1009 2.223 . S
O1008 C1016 1.315 . S
Cd1009 O1008 2.223 . S
Cd1009 O1012 2.297 . S
Cd1009 O1013 2.439 . S
Cd1009 O1019 2.240 . S
Cd1010 O1011 2.240 . S
Cd1010 O1018 2.223 . S
Cd1010 O1020 2.297 . S
Cd1010 O1021 2.439 . S
O1011 Cd1010 2.240 . S
O1011 C1016 1.279 . S
O1012 Cd1009 2.297 . S
O1012 C1014 1.247 . S
O1013 Cd1009 2.439 . S
O1013 C1014 1.208 . S
C1014 O1012 1.247 . S
C1014 O1013 1.208 . S
C1015 O1020 1.247 . S
C1015 O1021 1.208 . S
C1016 O1008 1.315 . S
C1016 O1011 1.279 . S
C1017 O1018 1.315 . S
C1017 O1019 1.279 . S
O1018 Cd1010 2.223 . S
O1018 C1017 1.315 . S
O1019 Cd1009 2.240 . S
O1019 C1017 1.279 . S
O1020 Cd1010 2.297 . S
O1020 C1015 1.247 . S
O1021 Cd1010 2.439 . S
O1021 C1015 1.208 . S
O1022 Cd1023 2.223 . S
O1022 C1030 1.315 . S
Cd1023 O1022 2.223 . S
Cd1023 O1026 2.297 . S
Cd1023 O1027 2.439 . S
Cd1023 O1033 2.240 . S
Cd1024 O1025 2.240 . S
Cd1024 O1032 2.223 . S
Cd1024 O1034 2.297 . S
Cd1024 O1035 2.439 . S
O1025 Cd1024 2.240 . S
O1025 C1030 1.279 . S
O1026 Cd1023 2.297 . S
O1026 C1028 1.247 . S
O1027 Cd1023 2.439 . S
O1027 C1028 1.208 . S
C1028 O1026 1.247 . S
C1028 O1027 1.208 . S
C1029 O1034 1.247 . S
C1029 O1035 1.208 . S
C1030 O1022 1.315 . S
C1030 O1025 1.279 . S
C1031 O1032 1.315 . S
C1031 O1033 1.279 . S
O1032 Cd1024 2.223 . S
O1032 C1031 1.315 . S
O1033 Cd1023 2.240 . S
O1033 C1031 1.279 . S
O1034 Cd1024 2.297 . S
O1034 C1029 1.247 . S
O1035 Cd1024 2.439 . S
O1035 C1029 1.208 . S
O1036 Cd1037 2.223 . S
O1036 C1044 1.315 . S
Cd1037 O1036 2.223 . S
Cd1037 O1040 2.297 . S
Cd1037 O1041 2.439 . S
Cd1037 O1047 2.240 . S
Cd1038 O1039 2.240 . S
Cd1038 O1046 2.223 . S
Cd1038 O1048 2.297 . S
Cd1038 O1049 2.439 . S
O1039 Cd1038 2.240 . S
O1039 C1044 1.279 . S
O1040 Cd1037 2.297 . S
O1040 C1042 1.247 . S
O1041 Cd1037 2.439 . S
O1041 C1042 1.208 . S
C1042 O1040 1.247 . S
C1042 O1041 1.208 . S
C1043 O1048 1.247 . S
C1043 O1049 1.208 . S
C1044 O1036 1.315 . S
C1044 O1039 1.279 . S
C1045 O1046 1.315 . S
C1045 O1047 1.279 . S
O1046 Cd1038 2.223 . S
O1046 C1045 1.315 . S
O1047 Cd1037 2.240 . S
O1047 C1045 1.279 . S
O1048 Cd1038 2.297 . S
O1048 C1043 1.247 . S
O1049 Cd1038 2.439 . S
O1049 C1043 1.208 . S
O1050 Cd1051 2.223 . S
O1050 C1058 1.315 . S
Cd1051 O1050 2.223 . S
Cd1051 O1054 2.297 . S
Cd1051 O1055 2.439 . S
Cd1051 O1061 2.240 . S
Cd1052 O1053 2.240 . S
Cd1052 O1060 2.223 . S
Cd1052 O1062 2.297 . S
Cd1052 O1063 2.439 . S
O1053 Cd1052 2.240 . S
O1053 C1058 1.279 . S
O1054 Cd1051 2.297 . S
O1054 C1056 1.247 . S
O1055 Cd1051 2.439 . S
O1055 C1056 1.208 . S
C1056 O1054 1.247 . S
C1056 O1055 1.208 . S
C1057 O1062 1.247 . S
C1057 O1063 1.208 . S
C1058 O1050 1.315 . S
C1058 O1053 1.279 . S
C1059 O1060 1.315 . S
C1059 O1061 1.279 . S
O1060 Cd1052 2.223 . S
O1060 C1059 1.315 . S
O1061 Cd1051 2.240 . S
O1061 C1059 1.279 . S
O1062 Cd1052 2.297 . S
O1062 C1057 1.247 . S
O1063 Cd1052 2.439 . S
O1063 C1057 1.208 . S
O1064 Cd1065 2.223 . S
O1064 C1072 1.315 . S
Cd1065 O1064 2.223 . S
Cd1065 O1068 2.297 . S
Cd1065 O1069 2.439 . S
Cd1065 O1075 2.240 . S
Cd1066 O1067 2.240 . S
Cd1066 O1074 2.223 . S
Cd1066 O1076 2.297 . S
Cd1066 O1077 2.439 . S
O1067 Cd1066 2.240 . S
O1067 C1072 1.279 . S
O1068 Cd1065 2.297 . S
O1068 C1070 1.247 . S
O1069 Cd1065 2.439 . S
O1069 C1070 1.208 . S
C1070 O1068 1.247 . S
C1070 O1069 1.208 . S
C1071 O1076 1.247 . S
C1071 O1077 1.208 . S
C1072 O1064 1.315 . S
C1072 O1067 1.279 . S
C1073 O1074 1.315 . S
C1073 O1075 1.279 . S
O1074 Cd1066 2.223 . S
O1074 C1073 1.315 . S
O1075 Cd1065 2.240 . S
O1075 C1073 1.279 . S
O1076 Cd1066 2.297 . S
O1076 C1071 1.247 . S
O1077 Cd1066 2.439 . S
O1077 C1071 1.208 . S
O1078 Cd1079 2.223 . S
O1078 C1086 1.315 . S
Cd1079 O1078 2.223 . S
Cd1079 O1082 2.297 . S
Cd1079 O1083 2.439 . S
Cd1079 O1089 2.240 . S
Cd1080 O1081 2.240 . S
Cd1080 O1088 2.223 . S
Cd1080 O1090 2.297 . S
Cd1080 O1091 2.439 . S
O1081 Cd1080 2.240 . S
O1081 C1086 1.279 . S
O1082 Cd1079 2.297 . S
O1082 C1084 1.247 . S
O1083 Cd1079 2.439 . S
O1083 C1084 1.208 . S
C1084 O1082 1.247 . S
C1084 O1083 1.208 . S
C1085 O1090 1.247 . S
C1085 O1091 1.208 . S
C1086 O1078 1.315 . S
C1086 O1081 1.279 . S
C1087 O1088 1.315 . S
C1087 O1089 1.279 . S
O1088 Cd1080 2.223 . S
O1088 C1087 1.315 . S
O1089 Cd1079 2.240 . S
O1089 C1087 1.279 . S
O1090 Cd1080 2.297 . S
O1090 C1085 1.247 . S
O1091 Cd1080 2.439 . S
O1091 C1085 1.208 . S
O1092 Cd1093 2.223 . S
O1092 C1100 1.315 . S
Cd1093 O1092 2.223 . S
Cd1093 O1096 2.297 . S
Cd1093 O1097 2.439 . S
Cd1093 O1103 2.240 . S
Cd1094 O1095 2.240 . S
Cd1094 O1102 2.223 . S
Cd1094 O1104 2.297 . S
Cd1094 O1105 2.439 . S
O1095 Cd1094 2.240 . S
O1095 C1100 1.279 . S
O1096 Cd1093 2.297 . S
O1096 C1098 1.247 . S
O1097 Cd1093 2.439 . S
O1097 C1098 1.208 . S
C1098 O1096 1.247 . S
C1098 O1097 1.208 . S
C1099 O1104 1.247 . S
C1099 O1105 1.208 . S
C1100 O1092 1.315 . S
C1100 O1095 1.279 . S
C1101 O1102 1.315 . S
C1101 O1103 1.279 . S
O1102 Cd1094 2.223 . S
O1102 C1101 1.315 . S
O1103 Cd1093 2.240 . S
O1103 C1101 1.279 . S
O1104 Cd1094 2.297 . S
O1104 C1099 1.247 . S
O1105 Cd1094 2.439 . S
O1105 C1099 1.208 . S
O1106 Cd1107 2.223 . S
O1106 C1114 1.315 . S
Cd1107 O1106 2.223 . S
Cd1107 O1110 2.297 . S
Cd1107 O1111 2.439 . S
Cd1107 O1117 2.240 . S
Cd1108 O1109 2.240 . S
Cd1108 O1116 2.223 . S
Cd1108 O1118 2.297 . S
Cd1108 O1119 2.439 . S
O1109 Cd1108 2.240 . S
O1109 C1114 1.279 . S
O1110 Cd1107 2.297 . S
O1110 C1112 1.247 . S
O1111 Cd1107 2.439 . S
O1111 C1112 1.208 . S
C1112 O1110 1.247 . S
C1112 O1111 1.208 . S
C1113 O1118 1.247 . S
C1113 O1119 1.208 . S
C1114 O1106 1.315 . S
C1114 O1109 1.279 . S
C1115 O1116 1.315 . S
C1115 O1117 1.279 . S
O1116 Cd1108 2.223 . S
O1116 C1115 1.315 . S
O1117 Cd1107 2.240 . S
O1117 C1115 1.279 . S
O1118 Cd1108 2.297 . S
O1118 C1113 1.247 . S
O1119 Cd1108 2.439 . S
O1119 C1113 1.208 . S
O1120 Cd1121 2.223 . S
O1120 C1128 1.315 . S
Cd1121 O1120 2.223 . S
Cd1121 O1124 2.297 . S
Cd1121 O1125 2.439 . S
Cd1121 O1131 2.240 . S
Cd1122 O1123 2.240 . S
Cd1122 O1130 2.223 . S
Cd1122 O1132 2.297 . S
Cd1122 O1133 2.439 . S
O1123 Cd1122 2.240 . S
O1123 C1128 1.279 . S
O1124 Cd1121 2.297 . S
O1124 C1126 1.247 . S
O1125 Cd1121 2.439 . S
O1125 C1126 1.208 . S
C1126 O1124 1.247 . S
C1126 O1125 1.208 . S
C1127 O1132 1.247 . S
C1127 O1133 1.208 . S
C1128 O1120 1.315 . S
C1128 O1123 1.279 . S
C1129 O1130 1.315 . S
C1129 O1131 1.279 . S
O1130 Cd1122 2.223 . S
O1130 C1129 1.315 . S
O1131 Cd1121 2.240 . S
O1131 C1129 1.279 . S
O1132 Cd1122 2.297 . S
O1132 C1127 1.247 . S
O1133 Cd1122 2.439 . S
O1133 C1127 1.208 . S
O1134 Cd1135 2.223 . S
O1134 C1142 1.315 . S
Cd1135 O1134 2.223 . S
Cd1135 O1138 2.297 . S
Cd1135 O1139 2.439 . S
Cd1135 O1145 2.240 . S
Cd1136 O1137 2.240 . S
Cd1136 O1144 2.223 . S
Cd1136 O1146 2.297 . S
Cd1136 O1147 2.439 . S
O1137 Cd1136 2.240 . S
O1137 C1142 1.279 . S
O1138 Cd1135 2.297 . S
O1138 C1140 1.247 . S
O1139 Cd1135 2.439 . S
O1139 C1140 1.208 . S
C1140 O1138 1.247 . S
C1140 O1139 1.208 . S
C1141 O1146 1.247 . S
C1141 O1147 1.208 . S
C1142 O1134 1.315 . S
C1142 O1137 1.279 . S
C1143 O1144 1.315 . S
C1143 O1145 1.279 . S
O1144 Cd1136 2.223 . S
O1144 C1143 1.315 . S
O1145 Cd1135 2.240 . S
O1145 C1143 1.279 . S
O1146 Cd1136 2.297 . S
O1146 C1141 1.247 . S
O1147 Cd1136 2.439 . S
O1147 C1141 1.208 . S
O1148 Cd1149 2.223 . S
O1148 C1156 1.315 . S
Cd1149 O1148 2.223 . S
Cd1149 O1152 2.297 . S
Cd1149 O1153 2.439 . S
Cd1149 O1159 2.240 . S
Cd1150 O1151 2.240 . S
Cd1150 O1158 2.223 . S
Cd1150 O1160 2.297 . S
Cd1150 O1161 2.439 . S
O1151 Cd1150 2.240 . S
O1151 C1156 1.279 . S
O1152 Cd1149 2.297 . S
O1152 C1154 1.247 . S
O1153 Cd1149 2.439 . S
O1153 C1154 1.208 . S
C1154 O1152 1.247 . S
C1154 O1153 1.208 . S
C1155 O1160 1.247 . S
C1155 O1161 1.208 . S
C1156 O1148 1.315 . S
C1156 O1151 1.279 . S
C1157 O1158 1.315 . S
C1157 O1159 1.279 . S
O1158 Cd1150 2.223 . S
O1158 C1157 1.315 . S
O1159 Cd1149 2.240 . S
O1159 C1157 1.279 . S
O1160 Cd1150 2.297 . S
O1160 C1155 1.247 . S
O1161 Cd1150 2.439 . S
O1161 C1155 1.208 . S
O1162 Cd1163 2.223 . S
O1162 C1170 1.315 . S
Cd1163 O1162 2.223 . S
Cd1163 O1166 2.297 . S
Cd1163 O1167 2.439 . S
Cd1163 O1173 2.240 . S
Cd1164 O1165 2.240 . S
Cd1164 O1172 2.223 . S
Cd1164 O1174 2.297 . S
Cd1164 O1175 2.439 . S
O1165 Cd1164 2.240 . S
O1165 C1170 1.279 . S
O1166 Cd1163 2.297 . S
O1166 C1168 1.247 . S
O1167 Cd1163 2.439 . S
O1167 C1168 1.208 . S
C1168 O1166 1.247 . S
C1168 O1167 1.208 . S
C1169 O1174 1.247 . S
C1169 O1175 1.208 . S
C1170 O1162 1.315 . S
C1170 O1165 1.279 . S
C1171 O1172 1.315 . S
C1171 O1173 1.279 . S
O1172 Cd1164 2.223 . S
O1172 C1171 1.315 . S
O1173 Cd1163 2.240 . S
O1173 C1171 1.279 . S
O1174 Cd1164 2.297 . S
O1174 C1169 1.247 . S
O1175 Cd1164 2.439 . S
O1175 C1169 1.208 . S
O1176 Cd1177 2.223 . S
O1176 C1184 1.315 . S
Cd1177 O1176 2.223 . S
Cd1177 O1180 2.297 . S
Cd1177 O1181 2.439 . S
Cd1177 O1187 2.240 . S
Cd1178 O1179 2.240 . S
Cd1178 O1186 2.223 . S
Cd1178 O1188 2.297 . S
Cd1178 O1189 2.439 . S
O1179 Cd1178 2.240 . S
O1179 C1184 1.279 . S
O1180 Cd1177 2.297 . S
O1180 C1182 1.247 . S
O1181 Cd1177 2.439 . S
O1181 C1182 1.208 . S
C1182 O1180 1.247 . S
C1182 O1181 1.208 . S
C1183 O1188 1.247 . S
C1183 O1189 1.208 . S
C1184 O1176 1.315 . S
C1184 O1179 1.279 . S
C1185 O1186 1.315 . S
C1185 O1187 1.279 . S
O1186 Cd1178 2.223 . S
O1186 C1185 1.315 . S
O1187 Cd1177 2.240 . S
O1187 C1185 1.279 . S
O1188 Cd1178 2.297 . S
O1188 C1183 1.247 . S
O1189 Cd1178 2.439 . S
O1189 C1183 1.208 . S
O1190 Cd1191 2.223 . S
O1190 C1198 1.315 . S
Cd1191 O1190 2.223 . S
Cd1191 O1194 2.297 . S
Cd1191 O1195 2.439 . S
Cd1191 O1201 2.240 . S
Cd1192 O1193 2.240 . S
Cd1192 O1200 2.223 . S
Cd1192 O1202 2.297 . S
Cd1192 O1203 2.439 . S
O1193 Cd1192 2.240 . S
O1193 C1198 1.279 . S
O1194 Cd1191 2.297 . S
O1194 C1196 1.247 . S
O1195 Cd1191 2.439 . S
O1195 C1196 1.208 . S
C1196 O1194 1.247 . S
C1196 O1195 1.208 . S
C1197 O1202 1.247 . S
C1197 O1203 1.208 . S
C1198 O1190 1.315 . S
C1198 O1193 1.279 . S
C1199 O1200 1.315 . S
C1199 O1201 1.279 . S
O1200 Cd1192 2.223 . S
O1200 C1199 1.315 . S
O1201 Cd1191 2.240 . S
O1201 C1199 1.279 . S
O1202 Cd1192 2.297 . S
O1202 C1197 1.247 . S
O1203 Cd1192 2.439 . S
O1203 C1197 1.208 . S
O1204 Cd1205 2.223 . S
O1204 C1212 1.315 . S
Cd1205 O1204 2.223 . S
Cd1205 O1208 2.297 . S
Cd1205 O1209 2.439 . S
Cd1205 O1215 2.240 . S
Cd1206 O1207 2.240 . S
Cd1206 O1214 2.223 . S
Cd1206 O1216 2.297 . S
Cd1206 O1217 2.439 . S
O1207 Cd1206 2.240 . S
O1207 C1212 1.279 . S
O1208 Cd1205 2.297 . S
O1208 C1210 1.247 . S
O1209 Cd1205 2.439 . S
O1209 C1210 1.208 . S
C1210 O1208 1.247 . S
C1210 O1209 1.208 . S
C1211 O1216 1.247 . S
C1211 O1217 1.208 . S
C1212 O1204 1.315 . S
C1212 O1207 1.279 . S
C1213 O1214 1.315 . S
C1213 O1215 1.279 . S
O1214 Cd1206 2.223 . S
O1214 C1213 1.315 . S
O1215 Cd1205 2.240 . S
O1215 C1213 1.279 . S
O1216 Cd1206 2.297 . S
O1216 C1211 1.247 . S
O1217 Cd1206 2.439 . S
O1217 C1211 1.208 . S
O1218 Cd1219 2.223 . S
O1218 C1226 1.315 . S
Cd1219 O1218 2.223 . S
Cd1219 O1222 2.297 . S
Cd1219 O1223 2.439 . S
Cd1219 O1229 2.240 . S
Cd1220 O1221 2.240 . S
Cd1220 O1228 2.223 . S
Cd1220 O1230 2.297 . S
Cd1220 O1231 2.439 . S
O1221 Cd1220 2.240 . S
O1221 C1226 1.279 . S
O1222 Cd1219 2.297 . S
O1222 C1224 1.247 . S
O1223 Cd1219 2.439 . S
O1223 C1224 1.208 . S
C1224 O1222 1.247 . S
C1224 O1223 1.208 . S
C1225 O1230 1.247 . S
C1225 O1231 1.208 . S
C1226 O1218 1.315 . S
C1226 O1221 1.279 . S
C1227 O1228 1.315 . S
C1227 O1229 1.279 . S
O1228 Cd1220 2.223 . S
O1228 C1227 1.315 . S
O1229 Cd1219 2.240 . S
O1229 C1227 1.279 . S
O1230 Cd1220 2.297 . S
O1230 C1225 1.247 . S
O1231 Cd1220 2.439 . S
O1231 C1225 1.208 . S
O1232 Cd1233 2.223 . S
O1232 C1240 1.315 . S
Cd1233 O1232 2.223 . S
Cd1233 O1236 2.297 . S
Cd1233 O1237 2.439 . S
Cd1233 O1243 2.240 . S
Cd1234 O1235 2.240 . S
Cd1234 O1242 2.223 . S
Cd1234 O1244 2.297 . S
Cd1234 O1245 2.439 . S
O1235 Cd1234 2.240 . S
O1235 C1240 1.279 . S
O1236 Cd1233 2.297 . S
O1236 C1238 1.247 . S
O1237 Cd1233 2.439 . S
O1237 C1238 1.208 . S
C1238 O1236 1.247 . S
C1238 O1237 1.208 . S
C1239 O1244 1.247 . S
C1239 O1245 1.208 . S
C1240 O1232 1.315 . S
C1240 O1235 1.279 . S
C1241 O1242 1.315 . S
C1241 O1243 1.279 . S
O1242 Cd1234 2.223 . S
O1242 C1241 1.315 . S
O1243 Cd1233 2.240 . S
O1243 C1241 1.279 . S
O1244 Cd1234 2.297 . S
O1244 C1239 1.247 . S
O1245 Cd1234 2.439 . S
O1245 C1239 1.208 . S
O1246 Cd1247 2.223 . S
O1246 C1254 1.315 . S
Cd1247 O1246 2.223 . S
Cd1247 O1250 2.297 . S
Cd1247 O1251 2.439 . S
Cd1247 O1257 2.240 . S
Cd1248 O1249 2.240 . S
Cd1248 O1256 2.223 . S
Cd1248 O1258 2.297 . S
Cd1248 O1259 2.439 . S
O1249 Cd1248 2.240 . S
O1249 C1254 1.279 . S
O1250 Cd1247 2.297 . S
O1250 C1252 1.247 . S
O1251 Cd1247 2.439 . S
O1251 C1252 1.208 . S
C1252 O1250 1.247 . S
C1252 O1251 1.208 . S
C1253 O1258 1.247 . S
C1253 O1259 1.208 . S
C1254 O1246 1.315 . S
C1254 O1249 1.279 . S
C1255 O1256 1.315 . S
C1255 O1257 1.279 . S
O1256 Cd1248 2.223 . S
O1256 C1255 1.315 . S
O1257 Cd1247 2.240 . S
O1257 C1255 1.279 . S
O1258 Cd1248 2.297 . S
O1258 C1253 1.247 . S
O1259 Cd1248 2.439 . S
O1259 C1253 1.208 . S
O1260 Cd1261 2.223 . S
O1260 C1268 1.315 . S
Cd1261 O1260 2.223 . S
Cd1261 O1264 2.297 . S
Cd1261 O1265 2.439 . S
Cd1261 O1271 2.240 . S
Cd1262 O1263 2.240 . S
Cd1262 O1270 2.223 . S
Cd1262 O1272 2.297 . S
Cd1262 O1273 2.439 . S
O1263 Cd1262 2.240 . S
O1263 C1268 1.279 . S
O1264 Cd1261 2.297 . S
O1264 C1266 1.247 . S
O1265 Cd1261 2.439 . S
O1265 C1266 1.208 . S
C1266 O1264 1.247 . S
C1266 O1265 1.208 . S
C1267 O1272 1.247 . S
C1267 O1273 1.208 . S
C1268 O1260 1.315 . S
C1268 O1263 1.279 . S
C1269 O1270 1.315 . S
C1269 O1271 1.279 . S
O1270 Cd1262 2.223 . S
O1270 C1269 1.315 . S
O1271 Cd1261 2.240 . S
O1271 C1269 1.279 . S
O1272 Cd1262 2.297 . S
O1272 C1267 1.247 . S
O1273 Cd1262 2.439 . S
O1273 C1267 1.208 . S
O1274 Cd1275 2.223 . S
O1274 C1282 1.315 . S
Cd1275 O1274 2.223 . S
Cd1275 O1278 2.297 . S
Cd1275 O1279 2.439 . S
Cd1275 O1285 2.240 . S
Cd1276 O1277 2.240 . S
Cd1276 O1284 2.223 . S
Cd1276 O1286 2.297 . S
Cd1276 O1287 2.439 . S
O1277 Cd1276 2.240 . S
O1277 C1282 1.279 . S
O1278 Cd1275 2.297 . S
O1278 C1280 1.247 . S
O1279 Cd1275 2.439 . S
O1279 C1280 1.208 . S
C1280 O1278 1.247 . S
C1280 O1279 1.208 . S
C1281 O1286 1.247 . S
C1281 O1287 1.208 . S
C1282 O1274 1.315 . S
C1282 O1277 1.279 . S
C1283 O1284 1.315 . S
C1283 O1285 1.279 . S
O1284 Cd1276 2.223 . S
O1284 C1283 1.315 . S
O1285 Cd1275 2.240 . S
O1285 C1283 1.279 . S
O1286 Cd1276 2.297 . S
O1286 C1281 1.247 . S
O1287 Cd1276 2.439 . S
O1287 C1281 1.208 . S
O1288 Cd1289 2.223 . S
O1288 C1296 1.315 . S
Cd1289 O1288 2.223 . S
Cd1289 O1292 2.297 . S
Cd1289 O1293 2.439 . S
Cd1289 O1299 2.240 . S
Cd1290 O1291 2.240 . S
Cd1290 O1298 2.223 . S
Cd1290 O1300 2.297 . S
Cd1290 O1301 2.439 . S
O1291 Cd1290 2.240 . S
O1291 C1296 1.279 . S
O1292 Cd1289 2.297 . S
O1292 C1294 1.247 . S
O1293 Cd1289 2.439 . S
O1293 C1294 1.208 . S
C1294 O1292 1.247 . S
C1294 O1293 1.208 . S
C1295 O1300 1.247 . S
C1295 O1301 1.208 . S
C1296 O1288 1.315 . S
C1296 O1291 1.279 . S
C1297 O1298 1.315 . S
C1297 O1299 1.279 . S
O1298 Cd1290 2.223 . S
O1298 C1297 1.315 . S
O1299 Cd1289 2.240 . S
O1299 C1297 1.279 . S
O1300 Cd1290 2.297 . S
O1300 C1295 1.247 . S
O1301 Cd1290 2.439 . S
O1301 C1295 1.208 . S
O1302 Cd1303 2.223 . S
O1302 C1310 1.315 . S
Cd1303 O1302 2.223 . S
Cd1303 O1306 2.297 . S
Cd1303 O1307 2.439 . S
Cd1303 O1313 2.240 . S
Cd1304 O1305 2.240 . S
Cd1304 O1312 2.223 . S
Cd1304 O1314 2.297 . S
Cd1304 O1315 2.439 . S
O1305 Cd1304 2.240 . S
O1305 C1310 1.279 . S
O1306 Cd1303 2.297 . S
O1306 C1308 1.247 . S
O1307 Cd1303 2.439 . S
O1307 C1308 1.208 . S
C1308 O1306 1.247 . S
C1308 O1307 1.208 . S
C1309 O1314 1.247 . S
C1309 O1315 1.208 . S
C1310 O1302 1.315 . S
C1310 O1305 1.279 . S
C1311 O1312 1.315 . S
C1311 O1313 1.279 . S
O1312 Cd1304 2.223 . S
O1312 C1311 1.315 . S
O1313 Cd1303 2.240 . S
O1313 C1311 1.279 . S
O1314 Cd1304 2.297 . S
O1314 C1309 1.247 . S
O1315 Cd1304 2.439 . S
O1315 C1309 1.208 . S
O1316 Cd1317 2.223 . S
O1316 C1324 1.315 . S
Cd1317 O1316 2.223 . S
Cd1317 O1320 2.297 . S
Cd1317 O1321 2.439 . S
Cd1317 O1327 2.240 . S
Cd1318 O1319 2.240 . S
Cd1318 O1326 2.223 . S
Cd1318 O1328 2.297 . S
Cd1318 O1329 2.439 . S
O1319 Cd1318 2.240 . S
O1319 C1324 1.279 . S
O1320 Cd1317 2.297 . S
O1320 C1322 1.247 . S
O1321 Cd1317 2.439 . S
O1321 C1322 1.208 . S
C1322 O1320 1.247 . S
C1322 O1321 1.208 . S
C1323 O1328 1.247 . S
C1323 O1329 1.208 . S
C1324 O1316 1.315 . S
C1324 O1319 1.279 . S
C1325 O1326 1.315 . S
C1325 O1327 1.279 . S
O1326 Cd1318 2.223 . S
O1326 C1325 1.315 . S
O1327 Cd1317 2.240 . S
O1327 C1325 1.279 . S
O1328 Cd1318 2.297 . S
O1328 C1323 1.247 . S
O1329 Cd1318 2.439 . S
O1329 C1323 1.208 . S
O1330 Cd1331 2.223 . S
O1330 C1338 1.315 . S
Cd1331 O1330 2.223 . S
Cd1331 O1334 2.297 . S
Cd1331 O1335 2.439 . S
Cd1331 O1341 2.240 . S
Cd1332 O1333 2.240 . S
Cd1332 O1340 2.223 . S
Cd1332 O1342 2.297 . S
Cd1332 O1343 2.439 . S
O1333 Cd1332 2.240 . S
O1333 C1338 1.279 . S
O1334 Cd1331 2.297 . S
O1334 C1336 1.247 . S
O1335 Cd1331 2.439 . S
O1335 C1336 1.208 . S
C1336 O1334 1.247 . S
C1336 O1335 1.208 . S
C1337 O1342 1.247 . S
C1337 O1343 1.208 . S
C1338 O1330 1.315 . S
C1338 O1333 1.279 . S
C1339 O1340 1.315 . S
C1339 O1341 1.279 . S
O1340 Cd1332 2.223 . S
O1340 C1339 1.315 . S
O1341 Cd1331 2.240 . S
O1341 C1339 1.279 . S
O1342 Cd1332 2.297 . S
O1342 C1337 1.247 . S
O1343 Cd1332 2.439 . S
O1343 C1337 1.208 . S
C1344 C1345 1.387 . S
C1344 H1348 0.950 . S
C1344 C1353 1.390 . S
C1345 C1344 1.387 . S
C1345 C1347 1.387 . S
H1346 C1353 0.950 . S
C1347 C1345 1.387 . S
C1347 C1349 1.390 . S
C1347 H1351 0.950 . S
H1348 C1344 0.950 . S
C1349 C1347 1.390 . S
C1349 C1350 1.387 . S
C1349 H1352 0.950 . S
C1350 C1349 1.387 . S
C1350 C1353 1.387 . S
H1351 C1347 0.950 . S
H1352 C1349 0.950 . S
C1353 C1344 1.390 . S
C1353 H1346 0.950 . S
C1353 C1350 1.387 . S
C1354 C1355 1.387 . S
C1354 H1358 0.950 . S
C1354 C1363 1.390 . S
C1355 C1354 1.387 . S
C1355 C1357 1.387 . S
H1356 C1363 0.950 . S
C1357 C1355 1.387 . S
C1357 C1359 1.390 . S
C1357 H1361 0.950 . S
H1358 C1354 0.950 . S
C1359 C1357 1.390 . S
C1359 C1360 1.387 . S
C1359 H1362 0.950 . S
C1360 C1359 1.387 . S
C1360 C1363 1.387 . S
H1361 C1357 0.950 . S
H1362 C1359 0.950 . S
C1363 C1354 1.390 . S
C1363 H1356 0.950 . S
C1363 C1360 1.387 . S
C1364 C1365 1.387 . S
C1364 H1368 0.950 . S
C1364 C1373 1.390 . S
C1365 C1364 1.387 . S
C1365 C1367 1.387 . S
H1366 C1373 0.950 . S
C1367 C1365 1.387 . S
C1367 C1369 1.390 . S
C1367 H1371 0.950 . S
H1368 C1364 0.950 . S
C1369 C1367 1.390 . S
C1369 C1370 1.387 . S
C1369 H1372 0.950 . S
C1370 C1369 1.387 . S
C1370 C1373 1.387 . S
H1371 C1367 0.950 . S
H1372 C1369 0.950 . S
C1373 C1364 1.390 . S
C1373 H1366 0.950 . S
C1373 C1370 1.387 . S
C1374 C1375 1.387 . S
C1374 H1378 0.950 . S
C1374 C1383 1.390 . S
C1375 C1374 1.387 . S
C1375 C1377 1.387 . S
H1376 C1383 0.950 . S
C1377 C1375 1.387 . S
C1377 C1379 1.390 . S
C1377 H1381 0.950 . S
H1378 C1374 0.950 . S
C1379 C1377 1.390 . S
C1379 C1380 1.387 . S
C1379 H1382 0.950 . S
C1380 C1379 1.387 . S
C1380 C1383 1.387 . S
H1381 C1377 0.950 . S
H1382 C1379 0.950 . S
C1383 C1374 1.390 . S
C1383 H1376 0.950 . S
C1383 C1380 1.387 . S
C1384 C1385 1.387 . S
C1384 H1388 0.950 . S
C1384 C1393 1.390 . S
C1385 C1384 1.387 . S
C1385 C1387 1.387 . S
H1386 C1393 0.950 . S
C1387 C1385 1.387 . S
C1387 C1389 1.390 . S
C1387 H1391 0.950 . S
H1388 C1384 0.950 . S
C1389 C1387 1.390 . S
C1389 C1390 1.387 . S
C1389 H1392 0.950 . S
C1390 C1389 1.387 . S
C1390 C1393 1.387 . S
H1391 C1387 0.950 . S
H1392 C1389 0.950 . S
C1393 C1384 1.390 . S
C1393 H1386 0.950 . S
C1393 C1390 1.387 . S
C1394 C1395 1.387 . S
C1394 H1398 0.950 . S
C1394 C1403 1.390 . S
C1395 C1394 1.387 . S
C1395 C1397 1.387 . S
H1396 C1403 0.950 . S
C1397 C1395 1.387 . S
C1397 C1399 1.390 . S
C1397 H1401 0.950 . S
H1398 C1394 0.950 . S
C1399 C1397 1.390 . S
C1399 C1400 1.387 . S
C1399 H1402 0.950 . S
C1400 C1399 1.387 . S
C1400 C1403 1.387 . S
H1401 C1397 0.950 . S
H1402 C1399 0.950 . S
C1403 C1394 1.390 . S
C1403 H1396 0.950 . S
C1403 C1400 1.387 . S
C1404 C1405 1.387 . S
C1404 H1408 0.950 . S
C1404 C1413 1.390 . S
C1405 C1404 1.387 . S
C1405 C1407 1.387 . S
H1406 C1413 0.950 . S
C1407 C1405 1.387 . S
C1407 C1409 1.390 . S
C1407 H1411 0.950 . S
H1408 C1404 0.950 . S
C1409 C1407 1.390 . S
C1409 C1410 1.387 . S
C1409 H1412 0.950 . S
C1410 C1409 1.387 . S
C1410 C1413 1.387 . S
H1411 C1407 0.950 . S
H1412 C1409 0.950 . S
C1413 C1404 1.390 . S
C1413 H1406 0.950 . S
C1413 C1410 1.387 . S
C1414 C1415 1.387 . S
C1414 H1418 0.950 . S
C1414 C1423 1.390 . S
C1415 C1414 1.387 . S
C1415 C1417 1.387 . S
H1416 C1423 0.950 . S
C1417 C1415 1.387 . S
C1417 C1419 1.390 . S
C1417 H1421 0.950 . S
H1418 C1414 0.950 . S
C1419 C1417 1.390 . S
C1419 C1420 1.387 . S
C1419 H1422 0.950 . S
C1420 C1419 1.387 . S
C1420 C1423 1.387 . S
H1421 C1417 0.950 . S
H1422 C1419 0.950 . S
C1423 C1414 1.390 . S
C1423 H1416 0.950 . S
C1423 C1420 1.387 . S
C1424 C1425 1.387 . S
C1424 H1428 0.950 . S
C1424 C1433 1.390 . S
C1425 C1424 1.387 . S
C1425 C1427 1.387 . S
H1426 C1433 0.950 . S
C1427 C1425 1.387 . S
C1427 C1429 1.390 . S
C1427 H1431 0.950 . S
H1428 C1424 0.950 . S
C1429 C1427 1.390 . S
C1429 C1430 1.387 . S
C1429 H1432 0.950 . S
C1430 C1429 1.387 . S
C1430 C1433 1.387 . S
H1431 C1427 0.950 . S
H1432 C1429 0.950 . S
C1433 C1424 1.390 . S
C1433 H1426 0.950 . S
C1433 C1430 1.387 . S
C1434 C1435 1.387 . S
C1434 H1438 0.950 . S
C1434 C1443 1.390 . S
C1435 C1434 1.387 . S
C1435 C1437 1.387 . S
H1436 C1443 0.950 . S
C1437 C1435 1.387 . S
C1437 C1439 1.390 . S
C1437 H1441 0.950 . S
H1438 C1434 0.950 . S
C1439 C1437 1.390 . S
C1439 C1440 1.387 . S
C1439 H1442 0.950 . S
C1440 C1439 1.387 . S
C1440 C1443 1.387 . S
H1441 C1437 0.950 . S
H1442 C1439 0.950 . S
C1443 C1434 1.390 . S
C1443 H1436 0.950 . S
C1443 C1440 1.387 . S
C1444 C1445 1.387 . S
C1444 H1448 0.950 . S
C1444 C1453 1.390 . S
C1445 C1444 1.387 . S
C1445 C1447 1.387 . S
H1446 C1453 0.950 . S
C1447 C1445 1.387 . S
C1447 C1449 1.390 . S
C1447 H1451 0.950 . S
H1448 C1444 0.950 . S
C1449 C1447 1.390 . S
C1449 C1450 1.387 . S
C1449 H1452 0.950 . S
C1450 C1449 1.387 . S
C1450 C1453 1.387 . S
H1451 C1447 0.950 . S
H1452 C1449 0.950 . S
C1453 C1444 1.390 . S
C1453 H1446 0.950 . S
C1453 C1450 1.387 . S
C1454 C1455 1.387 . S
C1454 H1458 0.950 . S
C1454 C1463 1.390 . S
C1455 C1454 1.387 . S
C1455 C1457 1.387 . S
H1456 C1463 0.950 . S
C1457 C1455 1.387 . S
C1457 C1459 1.390 . S
C1457 H1461 0.950 . S
H1458 C1454 0.950 . S
C1459 C1457 1.390 . S
C1459 C1460 1.387 . S
C1459 H1462 0.950 . S
C1460 C1459 1.387 . S
C1460 C1463 1.387 . S
H1461 C1457 0.950 . S
H1462 C1459 0.950 . S
C1463 C1454 1.390 . S
C1463 H1456 0.950 . S
C1463 C1460 1.387 . S
C1464 C1465 1.387 . S
C1464 H1468 0.950 . S
C1464 C1473 1.390 . S
C1465 C1464 1.387 . S
C1465 C1467 1.387 . S
H1466 C1473 0.950 . S
C1467 C1465 1.387 . S
C1467 C1469 1.390 . S
C1467 H1471 0.950 . S
H1468 C1464 0.950 . S
C1469 C1467 1.390 . S
C1469 C1470 1.387 . S
C1469 H1472 0.950 . S
C1470 C1469 1.387 . S
C1470 C1473 1.387 . S
H1471 C1467 0.950 . S
H1472 C1469 0.950 . S
C1473 C1464 1.390 . S
C1473 H1466 0.950 . S
C1473 C1470 1.387 . S
C1474 C1475 1.387 . S
C1474 H1478 0.950 . S
C1474 C1483 1.390 . S
C1475 C1474 1.387 . S
C1475 C1477 1.387 . S
H1476 C1483 0.950 . S
C1477 C1475 1.387 . S
C1477 C1479 1.390 . S
C1477 H1481 0.950 . S
H1478 C1474 0.950 . S
C1479 C1477 1.390 . S
C1479 C1480 1.387 . S
C1479 H1482 0.950 . S
C1480 C1479 1.387 . S
C1480 C1483 1.387 . S
H1481 C1477 0.950 . S
H1482 C1479 0.950 . S
C1483 C1474 1.390 . S
C1483 H1476 0.950 . S
C1483 C1480 1.387 . S
C1484 C1485 1.387 . S
C1484 H1488 0.950 . S
C1484 C1493 1.390 . S
C1485 C1484 1.387 . S
C1485 C1487 1.387 . S
H1486 C1493 0.950 . S
C1487 C1485 1.387 . S
C1487 C1489 1.390 . S
C1487 H1491 0.950 . S
H1488 C1484 0.950 . S
C1489 C1487 1.390 . S
C1489 C1490 1.387 . S
C1489 H1492 0.950 . S
C1490 C1489 1.387 . S
C1490 C1493 1.387 . S
H1491 C1487 0.950 . S
H1492 C1489 0.950 . S
C1493 C1484 1.390 . S
C1493 H1486 0.950 . S
C1493 C1490 1.387 . S
C1494 C1495 1.387 . S
C1494 H1498 0.950 . S
C1494 C1503 1.390 . S
C1495 C1494 1.387 . S
C1495 C1497 1.387 . S
H1496 C1503 0.950 . S
C1497 C1495 1.387 . S
C1497 C1499 1.390 . S
C1497 H1501 0.950 . S
H1498 C1494 0.950 . S
C1499 C1497 1.390 . S
C1499 C1500 1.387 . S
C1499 H1502 0.950 . S
C1500 C1499 1.387 . S
C1500 C1503 1.387 . S
H1501 C1497 0.950 . S
H1502 C1499 0.950 . S
C1503 C1494 1.390 . S
C1503 H1496 0.950 . S
C1503 C1500 1.387 . S
C1504 C1505 1.387 . S
C1504 H1508 0.950 . S
C1504 C1513 1.390 . S
C1505 C1504 1.387 . S
C1505 C1507 1.387 . S
H1506 C1513 0.950 . S
C1507 C1505 1.387 . S
C1507 C1509 1.390 . S
C1507 H1511 0.950 . S
H1508 C1504 0.950 . S
C1509 C1507 1.390 . S
C1509 C1510 1.387 . S
C1509 H1512 0.950 . S
C1510 C1509 1.387 . S
C1510 C1513 1.387 . S
H1511 C1507 0.950 . S
H1512 C1509 0.950 . S
C1513 C1504 1.390 . S
C1513 H1506 0.950 . S
C1513 C1510 1.387 . S
C1514 C1515 1.387 . S
C1514 H1518 0.950 . S
C1514 C1523 1.390 . S
C1515 C1514 1.387 . S
C1515 C1517 1.387 . S
H1516 C1523 0.950 . S
C1517 C1515 1.387 . S
C1517 C1519 1.390 . S
C1517 H1521 0.950 . S
H1518 C1514 0.950 . S
C1519 C1517 1.390 . S
C1519 C1520 1.387 . S
C1519 H1522 0.950 . S
C1520 C1519 1.387 . S
C1520 C1523 1.387 . S
H1521 C1517 0.950 . S
H1522 C1519 0.950 . S
C1523 C1514 1.390 . S
C1523 H1516 0.950 . S
C1523 C1520 1.387 . S
C1524 C1525 1.387 . S
C1524 H1528 0.950 . S
C1524 C1533 1.390 . S
C1525 C1524 1.387 . S
C1525 C1527 1.387 . S
H1526 C1533 0.950 . S
C1527 C1525 1.387 . S
C1527 C1529 1.390 . S
C1527 H1531 0.950 . S
H1528 C1524 0.950 . S
C1529 C1527 1.390 . S
C1529 C1530 1.387 . S
C1529 H1532 0.950 . S
C1530 C1529 1.387 . S
C1530 C1533 1.387 . S
H1531 C1527 0.950 . S
H1532 C1529 0.950 . S
C1533 C1524 1.390 . S
C1533 H1526 0.950 . S
C1533 C1530 1.387 . S
C1534 C1535 1.387 . S
C1534 H1538 0.950 . S
C1534 C1543 1.390 . S
C1535 C1534 1.387 . S
C1535 C1537 1.387 . S
H1536 C1543 0.950 . S
C1537 C1535 1.387 . S
C1537 C1539 1.390 . S
C1537 H1541 0.950 . S
H1538 C1534 0.950 . S
C1539 C1537 1.390 . S
C1539 C1540 1.387 . S
C1539 H1542 0.950 . S
C1540 C1539 1.387 . S
C1540 C1543 1.387 . S
H1541 C1537 0.950 . S
H1542 C1539 0.950 . S
C1543 C1534 1.390 . S
C1543 H1536 0.950 . S
C1543 C1540 1.387 . S
C1544 C1545 1.387 . S
C1544 H1548 0.950 . S
C1544 C1553 1.390 . S
C1545 C1544 1.387 . S
C1545 C1547 1.387 . S
H1546 C1553 0.950 . S
C1547 C1545 1.387 . S
C1547 C1549 1.390 . S
C1547 H1551 0.950 . S
H1548 C1544 0.950 . S
C1549 C1547 1.390 . S
C1549 C1550 1.387 . S
C1549 H1552 0.950 . S
C1550 C1549 1.387 . S
C1550 C1553 1.387 . S
H1551 C1547 0.950 . S
H1552 C1549 0.950 . S
C1553 C1544 1.390 . S
C1553 H1546 0.950 . S
C1553 C1550 1.387 . S
C1554 C1555 1.387 . S
C1554 H1558 0.950 . S
C1554 C1563 1.390 . S
C1555 C1554 1.387 . S
C1555 C1557 1.387 . S
H1556 C1563 0.950 . S
C1557 C1555 1.387 . S
C1557 C1559 1.390 . S
C1557 H1561 0.950 . S
H1558 C1554 0.950 . S
C1559 C1557 1.390 . S
C1559 C1560 1.387 . S
C1559 H1562 0.950 . S
C1560 C1559 1.387 . S
C1560 C1563 1.387 . S
H1561 C1557 0.950 . S
H1562 C1559 0.950 . S
C1563 C1554 1.390 . S
C1563 H1556 0.950 . S
C1563 C1560 1.387 . S
C1564 C1565 1.387 . S
C1564 H1568 0.950 . S
C1564 C1573 1.390 . S
C1565 C1564 1.387 . S
C1565 C1567 1.387 . S
H1566 C1573 0.950 . S
C1567 C1565 1.387 . S
C1567 C1569 1.390 . S
C1567 H1571 0.950 . S
H1568 C1564 0.950 . S
C1569 C1567 1.390 . S
C1569 C1570 1.387 . S
C1569 H1572 0.950 . S
C1570 C1569 1.387 . S
C1570 C1573 1.387 . S
H1571 C1567 0.950 . S
H1572 C1569 0.950 . S
C1573 C1564 1.390 . S
C1573 H1566 0.950 . S
C1573 C1570 1.387 . S
C1574 C1575 1.387 . S
C1574 H1578 0.950 . S
C1574 C1583 1.390 . S
C1575 C1574 1.387 . S
C1575 C1577 1.387 . S
H1576 C1583 0.950 . S
C1577 C1575 1.387 . S
C1577 C1579 1.390 . S
C1577 H1581 0.950 . S
H1578 C1574 0.950 . S
C1579 C1577 1.390 . S
C1579 C1580 1.387 . S
C1579 H1582 0.950 . S
C1580 C1579 1.387 . S
C1580 C1583 1.387 . S
H1581 C1577 0.950 . S
H1582 C1579 0.950 . S
C1583 C1574 1.390 . S
C1583 H1576 0.950 . S
C1583 C1580 1.387 . S
C1584 C1585 1.387 . S
C1584 H1588 0.950 . S
C1584 C1593 1.390 . S
C1585 C1584 1.387 . S
C1585 C1587 1.387 . S
H1586 C1593 0.950 . S
C1587 C1585 1.387 . S
C1587 C1589 1.390 . S
C1587 H1591 0.950 . S
H1588 C1584 0.950 . S
C1589 C1587 1.390 . S
C1589 C1590 1.387 . S
C1589 H1592 0.950 . S
C1590 C1589 1.387 . S
C1590 C1593 1.387 . S
H1591 C1587 0.950 . S
H1592 C1589 0.950 . S
C1593 C1584 1.390 . S
C1593 H1586 0.950 . S
C1593 C1590 1.387 . S
C1594 C1595 1.387 . S
C1594 H1598 0.950 . S
C1594 C1603 1.390 . S
C1595 C1594 1.387 . S
C1595 C1597 1.387 . S
H1596 C1603 0.950 . S
C1597 C1595 1.387 . S
C1597 C1599 1.390 . S
C1597 H1601 0.950 . S
H1598 C1594 0.950 . S
C1599 C1597 1.390 . S
C1599 C1600 1.387 . S
C1599 H1602 0.950 . S
C1600 C1599 1.387 . S
C1600 C1603 1.387 . S
H1601 C1597 0.950 . S
H1602 C1599 0.950 . S
C1603 C1594 1.390 . S
C1603 H1596 0.950 . S
C1603 C1600 1.387 . S
C1604 C1605 1.387 . S
C1604 H1608 0.950 . S
C1604 C1613 1.390 . S
C1605 C1604 1.387 . S
C1605 C1607 1.387 . S
H1606 C1613 0.950 . S
C1607 C1605 1.387 . S
C1607 C1609 1.390 . S
C1607 H1611 0.950 . S
H1608 C1604 0.950 . S
C1609 C1607 1.390 . S
C1609 C1610 1.387 . S
C1609 H1612 0.950 . S
C1610 C1609 1.387 . S
C1610 C1613 1.387 . S
H1611 C1607 0.950 . S
H1612 C1609 0.950 . S
C1613 C1604 1.390 . S
C1613 H1606 0.950 . S
C1613 C1610 1.387 . S
C1614 C1615 1.387 . S
C1614 H1618 0.950 . S
C1614 C1623 1.390 . S
C1615 C1614 1.387 . S
C1615 C1617 1.387 . S
H1616 C1623 0.950 . S
C1617 C1615 1.387 . S
C1617 C1619 1.390 . S
C1617 H1621 0.950 . S
H1618 C1614 0.950 . S
C1619 C1617 1.390 . S
C1619 C1620 1.387 . S
C1619 H1622 0.950 . S
C1620 C1619 1.387 . S
C1620 C1623 1.387 . S
H1621 C1617 0.950 . S
H1622 C1619 0.950 . S
C1623 C1614 1.390 . S
C1623 H1616 0.950 . S
C1623 C1620 1.387 . S
C1624 C1625 1.387 . S
C1624 H1628 0.950 . S
C1624 C1633 1.390 . S
C1625 C1624 1.387 . S
C1625 C1627 1.387 . S
H1626 C1633 0.950 . S
C1627 C1625 1.387 . S
C1627 C1629 1.390 . S
C1627 H1631 0.950 . S
H1628 C1624 0.950 . S
C1629 C1627 1.390 . S
C1629 C1630 1.387 . S
C1629 H1632 0.950 . S
C1630 C1629 1.387 . S
C1630 C1633 1.387 . S
H1631 C1627 0.950 . S
H1632 C1629 0.950 . S
C1633 C1624 1.390 . S
C1633 H1626 0.950 . S
C1633 C1630 1.387 . S
C1634 C1635 1.387 . S
C1634 H1638 0.950 . S
C1634 C1643 1.390 . S
C1635 C1634 1.387 . S
C1635 C1637 1.387 . S
H1636 C1643 0.950 . S
C1637 C1635 1.387 . S
C1637 C1639 1.390 . S
C1637 H1641 0.950 . S
H1638 C1634 0.950 . S
C1639 C1637 1.390 . S
C1639 C1640 1.387 . S
C1639 H1642 0.950 . S
C1640 C1639 1.387 . S
C1640 C1643 1.387 . S
H1641 C1637 0.950 . S
H1642 C1639 0.950 . S
C1643 C1634 1.390 . S
C1643 H1636 0.950 . S
C1643 C1640 1.387 . S
C1644 C1645 1.387 . S
C1644 H1648 0.950 . S
C1644 C1653 1.390 . S
C1645 C1644 1.387 . S
C1645 C1647 1.387 . S
H1646 C1653 0.950 . S
C1647 C1645 1.387 . S
C1647 C1649 1.390 . S
C1647 H1651 0.950 . S
H1648 C1644 0.950 . S
C1649 C1647 1.390 . S
C1649 C1650 1.387 . S
C1649 H1652 0.950 . S
C1650 C1649 1.387 . S
C1650 C1653 1.387 . S
H1651 C1647 0.950 . S
H1652 C1649 0.950 . S
C1653 C1644 1.390 . S
C1653 H1646 0.950 . S
C1653 C1650 1.387 . S
C1654 C1655 1.387 . S
C1654 H1658 0.950 . S
C1654 C1663 1.390 . S
C1655 C1654 1.387 . S
C1655 C1657 1.387 . S
H1656 C1663 0.950 . S
C1657 C1655 1.387 . S
C1657 C1659 1.390 . S
C1657 H1661 0.950 . S
H1658 C1654 0.950 . S
C1659 C1657 1.390 . S
C1659 C1660 1.387 . S
C1659 H1662 0.950 . S
C1660 C1659 1.387 . S
C1660 C1663 1.387 . S
H1661 C1657 0.950 . S
H1662 C1659 0.950 . S
C1663 C1654 1.390 . S
C1663 H1656 0.950 . S
C1663 C1660 1.387 . S
C1664 C1665 1.387 . S
C1664 H1668 0.950 . S
C1664 C1673 1.390 . S
C1665 C1664 1.387 . S
C1665 C1667 1.387 . S
H1666 C1673 0.950 . S
C1667 C1665 1.387 . S
C1667 C1669 1.390 . S
C1667 H1671 0.950 . S
H1668 C1664 0.950 . S
C1669 C1667 1.390 . S
C1669 C1670 1.387 . S
C1669 H1672 0.950 . S
C1670 C1669 1.387 . S
C1670 C1673 1.387 . S
H1671 C1667 0.950 . S
H1672 C1669 0.950 . S
C1673 C1664 1.390 . S
C1673 H1666 0.950 . S
C1673 C1670 1.387 . S
C1674 C1675 1.387 . S
C1674 H1678 0.950 . S
C1674 C1683 1.390 . S
C1675 C1674 1.387 . S
C1675 C1677 1.387 . S
H1676 C1683 0.950 . S
C1677 C1675 1.387 . S
C1677 C1679 1.390 . S
C1677 H1681 0.950 . S
H1678 C1674 0.950 . S
C1679 C1677 1.390 . S
C1679 C1680 1.387 . S
C1679 H1682 0.950 . S
C1680 C1679 1.387 . S
C1680 C1683 1.387 . S
H1681 C1677 0.950 . S
H1682 C1679 0.950 . S
C1683 C1674 1.390 . S
C1683 H1676 0.950 . S
C1683 C1680 1.387 . S
C1684 C1685 1.387 . S
C1684 H1688 0.950 . S
C1684 C1693 1.390 . S
C1685 C1684 1.387 . S
C1685 C1687 1.387 . S
H1686 C1693 0.950 . S
C1687 C1685 1.387 . S
C1687 C1689 1.390 . S
C1687 H1691 0.950 . S
H1688 C1684 0.950 . S
C1689 C1687 1.390 . S
C1689 C1690 1.387 . S
C1689 H1692 0.950 . S
C1690 C1689 1.387 . S
C1690 C1693 1.387 . S
H1691 C1687 0.950 . S
H1692 C1689 0.950 . S
C1693 C1684 1.390 . S
C1693 H1686 0.950 . S
C1693 C1690 1.387 . S
C1694 C1695 1.387 . S
C1694 H1698 0.950 . S
C1694 C1703 1.390 . S
C1695 C1694 1.387 . S
C1695 C1697 1.387 . S
H1696 C1703 0.950 . S
C1697 C1695 1.387 . S
C1697 C1699 1.390 . S
C1697 H1701 0.950 . S
H1698 C1694 0.950 . S
C1699 C1697 1.390 . S
C1699 C1700 1.387 . S
C1699 H1702 0.950 . S
C1700 C1699 1.387 . S
C1700 C1703 1.387 . S
H1701 C1697 0.950 . S
H1702 C1699 0.950 . S
C1703 C1694 1.390 . S
C1703 H1696 0.950 . S
C1703 C1700 1.387 . S
C1704 C1705 1.387 . S
C1704 H1708 0.950 . S
C1704 C1713 1.390 . S
C1705 C1704 1.387 . S
C1705 C1707 1.387 . S
H1706 C1713 0.950 . S
C1707 C1705 1.387 . S
C1707 C1709 1.390 . S
C1707 H1711 0.950 . S
H1708 C1704 0.950 . S
C1709 C1707 1.390 . S
C1709 C1710 1.387 . S
C1709 H1712 0.950 . S
C1710 C1709 1.387 . S
C1710 C1713 1.387 . S
H1711 C1707 0.950 . S
H1712 C1709 0.950 . S
C1713 C1704 1.390 . S
C1713 H1706 0.950 . S
C1713 C1710 1.387 . S
C1714 C1715 1.387 . S
C1714 H1718 0.950 . S
C1714 C1723 1.390 . S
C1715 C1714 1.387 . S
C1715 C1717 1.387 . S
H1716 C1723 0.950 . S
C1717 C1715 1.387 . S
C1717 C1719 1.390 . S
C1717 H1721 0.950 . S
H1718 C1714 0.950 . S
C1719 C1717 1.390 . S
C1719 C1720 1.387 . S
C1719 H1722 0.950 . S
C1720 C1719 1.387 . S
C1720 C1723 1.387 . S
H1721 C1717 0.950 . S
H1722 C1719 0.950 . S
C1723 C1714 1.390 . S
C1723 H1716 0.950 . S
C1723 C1720 1.387 . S
C1724 C1725 1.387 . S
C1724 H1728 0.950 . S
C1724 C1733 1.390 . S
C1725 C1724 1.387 . S
C1725 C1727 1.387 . S
H1726 C1733 0.950 . S
C1727 C1725 1.387 . S
C1727 C1729 1.390 . S
C1727 H1731 0.950 . S
H1728 C1724 0.950 . S
C1729 C1727 1.390 . S
C1729 C1730 1.387 . S
C1729 H1732 0.950 . S
C1730 C1729 1.387 . S
C1730 C1733 1.387 . S
H1731 C1727 0.950 . S
H1732 C1729 0.950 . S
C1733 C1724 1.390 . S
C1733 H1726 0.950 . S
C1733 C1730 1.387 . S
C1734 C1735 1.387 . S
C1734 H1738 0.950 . S
C1734 C1743 1.390 . S
C1735 C1734 1.387 . S
C1735 C1737 1.387 . S
H1736 C1743 0.950 . S
C1737 C1735 1.387 . S
C1737 C1739 1.390 . S
C1737 H1741 0.950 . S
H1738 C1734 0.950 . S
C1739 C1737 1.390 . S
C1739 C1740 1.387 . S
C1739 H1742 0.950 . S
C1740 C1739 1.387 . S
C1740 C1743 1.387 . S
H1741 C1737 0.950 . S
H1742 C1739 0.950 . S
C1743 C1734 1.390 . S
C1743 H1736 0.950 . S
C1743 C1740 1.387 . S
C1744 C1745 1.387 . S
C1744 H1748 0.950 . S
C1744 C1753 1.390 . S
C1745 C1744 1.387 . S
C1745 C1747 1.387 . S
H1746 C1753 0.950 . S
C1747 C1745 1.387 . S
C1747 C1749 1.390 . S
C1747 H1751 0.950 . S
H1748 C1744 0.950 . S
C1749 C1747 1.390 . S
C1749 C1750 1.387 . S
C1749 H1752 0.950 . S
C1750 C1749 1.387 . S
C1750 C1753 1.387 . S
H1751 C1747 0.950 . S
H1752 C1749 0.950 . S
C1753 C1744 1.390 . S
C1753 H1746 0.950 . S
C1753 C1750 1.387 . S
C1754 C1755 1.387 . S
C1754 H1758 0.950 . S
C1754 C1763 1.390 . S
C1755 C1754 1.387 . S
C1755 C1757 1.387 . S
H1756 C1763 0.950 . S
C1757 C1755 1.387 . S
C1757 C1759 1.390 . S
C1757 H1761 0.950 . S
H1758 C1754 0.950 . S
C1759 C1757 1.390 . S
C1759 C1760 1.387 . S
C1759 H1762 0.950 . S
C1760 C1759 1.387 . S
C1760 C1763 1.387 . S
H1761 C1757 0.950 . S
H1762 C1759 0.950 . S
C1763 C1754 1.390 . S
C1763 H1756 0.950 . S
C1763 C1760 1.387 . S
C1764 C1765 1.387 . S
C1764 H1768 0.950 . S
C1764 C1773 1.390 . S
C1765 C1764 1.387 . S
C1765 C1767 1.387 . S
H1766 C1773 0.950 . S
C1767 C1765 1.387 . S
C1767 C1769 1.390 . S
C1767 H1771 0.950 . S
H1768 C1764 0.950 . S
C1769 C1767 1.390 . S
C1769 C1770 1.387 . S
C1769 H1772 0.950 . S
C1770 C1769 1.387 . S
C1770 C1773 1.387 . S
H1771 C1767 0.950 . S
H1772 C1769 0.950 . S
C1773 C1764 1.390 . S
C1773 H1766 0.950 . S
C1773 C1770 1.387 . S
C1774 C1775 1.387 . S
C1774 H1778 0.950 . S
C1774 C1783 1.390 . S
C1775 C1774 1.387 . S
C1775 C1777 1.387 . S
H1776 C1783 0.950 . S
C1777 C1775 1.387 . S
C1777 C1779 1.390 . S
C1777 H1781 0.950 . S
H1778 C1774 0.950 . S
C1779 C1777 1.390 . S
C1779 C1780 1.387 . S
C1779 H1782 0.950 . S
C1780 C1779 1.387 . S
C1780 C1783 1.387 . S
H1781 C1777 0.950 . S
H1782 C1779 0.950 . S
C1783 C1774 1.390 . S
C1783 H1776 0.950 . S
C1783 C1780 1.387 . S
C1784 C1785 1.387 . S
C1784 H1788 0.950 . S
C1784 C1793 1.390 . S
C1785 C1784 1.387 . S
C1785 C1787 1.387 . S
H1786 C1793 0.950 . S
C1787 C1785 1.387 . S
C1787 C1789 1.390 . S
C1787 H1791 0.950 . S
H1788 C1784 0.950 . S
C1789 C1787 1.390 . S
C1789 C1790 1.387 . S
C1789 H1792 0.950 . S
C1790 C1789 1.387 . S
C1790 C1793 1.387 . S
H1791 C1787 0.950 . S
H1792 C1789 0.950 . S
C1793 C1784 1.390 . S
C1793 H1786 0.950 . S
C1793 C1790 1.387 . S
C1794 C1795 1.387 . S
C1794 H1798 0.950 . S
C1794 C1803 1.390 . S
C1795 C1794 1.387 . S
C1795 C1797 1.387 . S
H1796 C1803 0.950 . S
C1797 C1795 1.387 . S
C1797 C1799 1.390 . S
C1797 H1801 0.950 . S
H1798 C1794 0.950 . S
C1799 C1797 1.390 . S
C1799 C1800 1.387 . S
C1799 H1802 0.950 . S
C1800 C1799 1.387 . S
C1800 C1803 1.387 . S
H1801 C1797 0.950 . S
H1802 C1799 0.950 . S
C1803 C1794 1.390 . S
C1803 H1796 0.950 . S
C1803 C1800 1.387 . S
C1804 C1805 1.387 . S
C1804 H1808 0.950 . S
C1804 C1813 1.390 . S
C1805 C1804 1.387 . S
C1805 C1807 1.387 . S
H1806 C1813 0.950 . S
C1807 C1805 1.387 . S
C1807 C1809 1.390 . S
C1807 H1811 0.950 . S
H1808 C1804 0.950 . S
C1809 C1807 1.390 . S
C1809 C1810 1.387 . S
C1809 H1812 0.950 . S
C1810 C1809 1.387 . S
C1810 C1813 1.387 . S
H1811 C1807 0.950 . S
H1812 C1809 0.950 . S
C1813 C1804 1.390 . S
C1813 H1806 0.950 . S
C1813 C1810 1.387 . S
C1814 C1815 1.387 . S
C1814 H1818 0.950 . S
C1814 C1823 1.390 . S
C1815 C1814 1.387 . S
C1815 C1817 1.387 . S
H1816 C1823 0.950 . S
C1817 C1815 1.387 . S
C1817 C1819 1.390 . S
C1817 H1821 0.950 . S
H1818 C1814 0.950 . S
C1819 C1817 1.390 . S
C1819 C1820 1.387 . S
C1819 H1822 0.950 . S
C1820 C1819 1.387 . S
C1820 C1823 1.387 . S
H1821 C1817 0.950 . S
H1822 C1819 0.950 . S
C1823 C1814 1.390 . S
C1823 H1816 0.950 . S
C1823 C1820 1.387 . S
C1824 C1825 1.387 . S
C1824 H1828 0.950 . S
C1824 C1833 1.390 . S
C1825 C1824 1.387 . S
C1825 C1827 1.387 . S
H1826 C1833 0.950 . S
C1827 C1825 1.387 . S
C1827 C1829 1.390 . S
C1827 H1831 0.950 . S
H1828 C1824 0.950 . S
C1829 C1827 1.390 . S
C1829 C1830 1.387 . S
C1829 H1832 0.950 . S
C1830 C1829 1.387 . S
C1830 C1833 1.387 . S
H1831 C1827 0.950 . S
H1832 C1829 0.950 . S
C1833 C1824 1.390 . S
C1833 H1826 0.950 . S
C1833 C1830 1.387 . S
C1834 C1835 1.387 . S
C1834 H1838 0.950 . S
C1834 C1843 1.390 . S
C1835 C1834 1.387 . S
C1835 C1837 1.387 . S
H1836 C1843 0.950 . S
C1837 C1835 1.387 . S
C1837 C1839 1.390 . S
C1837 H1841 0.950 . S
H1838 C1834 0.950 . S
C1839 C1837 1.390 . S
C1839 C1840 1.387 . S
C1839 H1842 0.950 . S
C1840 C1839 1.387 . S
C1840 C1843 1.387 . S
H1841 C1837 0.950 . S
H1842 C1839 0.950 . S
C1843 C1834 1.390 . S
C1843 H1836 0.950 . S
C1843 C1840 1.387 . S
C1844 C1845 1.387 . S
C1844 H1848 0.950 . S
C1844 C1853 1.390 . S
C1845 C1844 1.387 . S
C1845 C1847 1.387 . S
H1846 C1853 0.950 . S
C1847 C1845 1.387 . S
C1847 C1849 1.390 . S
C1847 H1851 0.950 . S
H1848 C1844 0.950 . S
C1849 C1847 1.390 . S
C1849 C1850 1.387 . S
C1849 H1852 0.950 . S
C1850 C1849 1.387 . S
C1850 C1853 1.387 . S
H1851 C1847 0.950 . S
H1852 C1849 0.950 . S
C1853 C1844 1.390 . S
C1853 H1846 0.950 . S
C1853 C1850 1.387 . S
C1854 C1855 1.387 . S
C1854 H1858 0.950 . S
C1854 C1863 1.390 . S
C1855 C1854 1.387 . S
C1855 C1857 1.387 . S
H1856 C1863 0.950 . S
C1857 C1855 1.387 . S
C1857 C1859 1.390 . S
C1857 H1861 0.950 . S
H1858 C1854 0.950 . S
C1859 C1857 1.390 . S
C1859 C1860 1.387 . S
C1859 H1862 0.950 . S
C1860 C1859 1.387 . S
C1860 C1863 1.387 . S
H1861 C1857 0.950 . S
H1862 C1859 0.950 . S
C1863 C1854 1.390 . S
C1863 H1856 0.950 . S
C1863 C1860 1.387 . S
C1864 C1865 1.387 . S
C1864 H1868 0.950 . S
C1864 C1873 1.390 . S
C1865 C1864 1.387 . S
C1865 C1867 1.387 . S
H1866 C1873 0.950 . S
C1867 C1865 1.387 . S
C1867 C1869 1.390 . S
C1867 H1871 0.950 . S
H1868 C1864 0.950 . S
C1869 C1867 1.390 . S
C1869 C1870 1.387 . S
C1869 H1872 0.950 . S
C1870 C1869 1.387 . S
C1870 C1873 1.387 . S
H1871 C1867 0.950 . S
H1872 C1869 0.950 . S
C1873 C1864 1.390 . S
C1873 H1866 0.950 . S
C1873 C1870 1.387 . S
C1874 C1875 1.387 . S
C1874 H1878 0.950 . S
C1874 C1883 1.390 . S
C1875 C1874 1.387 . S
C1875 C1877 1.387 . S
H1876 C1883 0.950 . S
C1877 C1875 1.387 . S
C1877 C1879 1.390 . S
C1877 H1881 0.950 . S
H1878 C1874 0.950 . S
C1879 C1877 1.390 . S
C1879 C1880 1.387 . S
C1879 H1882 0.950 . S
C1880 C1879 1.387 . S
C1880 C1883 1.387 . S
H1881 C1877 0.950 . S
H1882 C1879 0.950 . S
C1883 C1874 1.390 . S
C1883 H1876 0.950 . S
C1883 C1880 1.387 . S
C1884 C1885 1.387 . S
C1884 H1888 0.950 . S
C1884 C1893 1.390 . S
C1885 C1884 1.387 . S
C1885 C1887 1.387 . S
H1886 C1893 0.950 . S
C1887 C1885 1.387 . S
C1887 C1889 1.390 . S
C1887 H1891 0.950 . S
H1888 C1884 0.950 . S
C1889 C1887 1.390 . S
C1889 C1890 1.387 . S
C1889 H1892 0.950 . S
C1890 C1889 1.387 . S
C1890 C1893 1.387 . S
H1891 C1887 0.950 . S
H1892 C1889 0.950 . S
C1893 C1884 1.390 . S
C1893 H1886 0.950 . S
C1893 C1890 1.387 . S
C1894 C1895 1.387 . S
C1894 H1898 0.950 . S
C1894 C1903 1.390 . S
C1895 C1894 1.387 . S
C1895 C1897 1.387 . S
H1896 C1903 0.950 . S
C1897 C1895 1.387 . S
C1897 C1899 1.390 . S
C1897 H1901 0.950 . S
H1898 C1894 0.950 . S
C1899 C1897 1.390 . S
C1899 C1900 1.387 . S
C1899 H1902 0.950 . S
C1900 C1899 1.387 . S
C1900 C1903 1.387 . S
H1901 C1897 0.950 . S
H1902 C1899 0.950 . S
C1903 C1894 1.390 . S
C1903 H1896 0.950 . S
C1903 C1900 1.387 . S
C1904 C1905 1.387 . S
C1904 H1908 0.950 . S
C1904 C1913 1.390 . S
C1905 C1904 1.387 . S
C1905 C1907 1.387 . S
H1906 C1913 0.950 . S
C1907 C1905 1.387 . S
C1907 C1909 1.390 . S
C1907 H1911 0.950 . S
H1908 C1904 0.950 . S
C1909 C1907 1.390 . S
C1909 C1910 1.387 . S
C1909 H1912 0.950 . S
C1910 C1909 1.387 . S
C1910 C1913 1.387 . S
H1911 C1907 0.950 . S
H1912 C1909 0.950 . S
C1913 C1904 1.390 . S
C1913 H1906 0.950 . S
C1913 C1910 1.387 . S
C1914 C1915 1.387 . S
C1914 H1918 0.950 . S
C1914 C1923 1.390 . S
C1915 C1914 1.387 . S
C1915 C1917 1.387 . S
H1916 C1923 0.950 . S
C1917 C1915 1.387 . S
C1917 C1919 1.390 . S
C1917 H1921 0.950 . S
H1918 C1914 0.950 . S
C1919 C1917 1.390 . S
C1919 C1920 1.387 . S
C1919 H1922 0.950 . S
C1920 C1919 1.387 . S
C1920 C1923 1.387 . S
H1921 C1917 0.950 . S
H1922 C1919 0.950 . S
C1923 C1914 1.390 . S
C1923 H1916 0.950 . S
C1923 C1920 1.387 . S
C1924 C1925 1.387 . S
C1924 H1928 0.950 . S
C1924 C1933 1.390 . S
C1925 C1924 1.387 . S
C1925 C1927 1.387 . S
H1926 C1933 0.950 . S
C1927 C1925 1.387 . S
C1927 C1929 1.390 . S
C1927 H1931 0.950 . S
H1928 C1924 0.950 . S
C1929 C1927 1.390 . S
C1929 C1930 1.387 . S
C1929 H1932 0.950 . S
C1930 C1929 1.387 . S
C1930 C1933 1.387 . S
H1931 C1927 0.950 . S
H1932 C1929 0.950 . S
C1933 C1924 1.390 . S
C1933 H1926 0.950 . S
C1933 C1930 1.387 . S
C1934 C1935 1.387 . S
C1934 H1938 0.950 . S
C1934 C1943 1.390 . S
C1935 C1934 1.387 . S
C1935 C1937 1.387 . S
H1936 C1943 0.950 . S
C1937 C1935 1.387 . S
C1937 C1939 1.390 . S
C1937 H1941 0.950 . S
H1938 C1934 0.950 . S
C1939 C1937 1.390 . S
C1939 C1940 1.387 . S
C1939 H1942 0.950 . S
C1940 C1939 1.387 . S
C1940 C1943 1.387 . S
H1941 C1937 0.950 . S
H1942 C1939 0.950 . S
C1943 C1934 1.390 . S
C1943 H1936 0.950 . S
C1943 C1940 1.387 . S
C1944 C1945 1.387 . S
C1944 H1948 0.950 . S
C1944 C1953 1.390 . S
C1945 C1944 1.387 . S
C1945 C1947 1.387 . S
H1946 C1953 0.950 . S
C1947 C1945 1.387 . S
C1947 C1949 1.390 . S
C1947 H1951 0.950 . S
H1948 C1944 0.950 . S
C1949 C1947 1.390 . S
C1949 C1950 1.387 . S
C1949 H1952 0.950 . S
C1950 C1949 1.387 . S
C1950 C1953 1.387 . S
H1951 C1947 0.950 . S
H1952 C1949 0.950 . S
C1953 C1944 1.390 . S
C1953 H1946 0.950 . S
C1953 C1950 1.387 . S
C1954 C1955 1.387 . S
C1954 H1958 0.950 . S
C1954 C1963 1.390 . S
C1955 C1954 1.387 . S
C1955 C1957 1.387 . S
H1956 C1963 0.950 . S
C1957 C1955 1.387 . S
C1957 C1959 1.390 . S
C1957 H1961 0.950 . S
H1958 C1954 0.950 . S
C1959 C1957 1.390 . S
C1959 C1960 1.387 . S
C1959 H1962 0.950 . S
C1960 C1959 1.387 . S
C1960 C1963 1.387 . S
H1961 C1957 0.950 . S
H1962 C1959 0.950 . S
C1963 C1954 1.390 . S
C1963 H1956 0.950 . S
C1963 C1960 1.387 . S
C1964 C1965 1.387 . S
C1964 H1968 0.950 . S
C1964 C1973 1.390 . S
C1965 C1964 1.387 . S
C1965 C1967 1.387 . S
H1966 C1973 0.950 . S
C1967 C1965 1.387 . S
C1967 C1969 1.390 . S
C1967 H1971 0.950 . S
H1968 C1964 0.950 . S
C1969 C1967 1.390 . S
C1969 C1970 1.387 . S
C1969 H1972 0.950 . S
C1970 C1969 1.387 . S
C1970 C1973 1.387 . S
H1971 C1967 0.950 . S
H1972 C1969 0.950 . S
C1973 C1964 1.390 . S
C1973 H1966 0.950 . S
C1973 C1970 1.387 . S
C1974 C1975 1.387 . S
C1974 H1978 0.950 . S
C1974 C1983 1.390 . S
C1975 C1974 1.387 . S
C1975 C1977 1.387 . S
H1976 C1983 0.950 . S
C1977 C1975 1.387 . S
C1977 C1979 1.390 . S
C1977 H1981 0.950 . S
H1978 C1974 0.950 . S
C1979 C1977 1.390 . S
C1979 C1980 1.387 . S
C1979 H1982 0.950 . S
C1980 C1979 1.387 . S
C1980 C1983 1.387 . S
H1981 C1977 0.950 . S
H1982 C1979 0.950 . S
C1983 C1974 1.390 . S
C1983 H1976 0.950 . S
C1983 C1980 1.387 . S
C1984 C1985 1.387 . S
C1984 H1988 0.950 . S
C1984 C1993 1.390 . S
C1985 C1984 1.387 . S
C1985 C1987 1.387 . S
H1986 C1993 0.950 . S
C1987 C1985 1.387 . S
C1987 C1989 1.390 . S
C1987 H1991 0.950 . S
H1988 C1984 0.950 . S
C1989 C1987 1.390 . S
C1989 C1990 1.387 . S
C1989 H1992 0.950 . S
C1990 C1989 1.387 . S
C1990 C1993 1.387 . S
H1991 C1987 0.950 . S
H1992 C1989 0.950 . S
C1993 C1984 1.390 . S
C1993 H1986 0.950 . S
C1993 C1990 1.387 . S
C1994 C1995 1.387 . S
C1994 H1998 0.950 . S
C1994 C2003 1.390 . S
C1995 C1994 1.387 . S
C1995 C1997 1.387 . S
H1996 C2003 0.950 . S
C1997 C1995 1.387 . S
C1997 C1999 1.390 . S
C1997 H2001 0.950 . S
H1998 C1994 0.950 . S
C1999 C1997 1.390 . S
C1999 C2000 1.387 . S
C1999 H2002 0.950 . S
C2000 C1999 1.387 . S
C2000 C2003 1.387 . S
H2001 C1997 0.950 . S
H2002 C1999 0.950 . S
C2003 C1994 1.390 . S
C2003 H1996 0.950 . S
C2003 C2000 1.387 . S
C2004 C2005 1.387 . S
C2004 H2008 0.950 . S
C2004 C2013 1.390 . S
C2005 C2004 1.387 . S
C2005 C2007 1.387 . S
H2006 C2013 0.950 . S
C2007 C2005 1.387 . S
C2007 C2009 1.390 . S
C2007 H2011 0.950 . S
H2008 C2004 0.950 . S
C2009 C2007 1.390 . S
C2009 C2010 1.387 . S
C2009 H2012 0.950 . S
C2010 C2009 1.387 . S
C2010 C2013 1.387 . S
H2011 C2007 0.950 . S
H2012 C2009 0.950 . S
C2013 C2004 1.390 . S
C2013 H2006 0.950 . S
C2013 C2010 1.387 . S
C2014 C2015 1.387 . S
C2014 H2018 0.950 . S
C2014 C2023 1.390 . S
C2015 C2014 1.387 . S
C2015 C2017 1.387 . S
H2016 C2023 0.950 . S
C2017 C2015 1.387 . S
C2017 C2019 1.390 . S
C2017 H2021 0.950 . S
H2018 C2014 0.950 . S
C2019 C2017 1.390 . S
C2019 C2020 1.387 . S
C2019 H2022 0.950 . S
C2020 C2019 1.387 . S
C2020 C2023 1.387 . S
H2021 C2017 0.950 . S
H2022 C2019 0.950 . S
C2023 C2014 1.390 . S
C2023 H2016 0.950 . S
C2023 C2020 1.387 . S
C2024 C2025 1.387 . S
C2024 H2028 0.950 . S
C2024 C2033 1.390 . S
C2025 C2024 1.387 . S
C2025 C2027 1.387 . S
H2026 C2033 0.950 . S
C2027 C2025 1.387 . S
C2027 C2029 1.390 . S
C2027 H2031 0.950 . S
H2028 C2024 0.950 . S
C2029 C2027 1.390 . S
C2029 C2030 1.387 . S
C2029 H2032 0.950 . S
C2030 C2029 1.387 . S
C2030 C2033 1.387 . S
H2031 C2027 0.950 . S
H2032 C2029 0.950 . S
C2033 C2024 1.390 . S
C2033 H2026 0.950 . S
C2033 C2030 1.387 . S
C2034 C2035 1.387 . S
C2034 H2038 0.950 . S
C2034 C2043 1.390 . S
C2035 C2034 1.387 . S
C2035 C2037 1.387 . S
H2036 C2043 0.950 . S
C2037 C2035 1.387 . S
C2037 C2039 1.390 . S
C2037 H2041 0.950 . S
H2038 C2034 0.950 . S
C2039 C2037 1.390 . S
C2039 C2040 1.387 . S
C2039 H2042 0.950 . S
C2040 C2039 1.387 . S
C2040 C2043 1.387 . S
H2041 C2037 0.950 . S
H2042 C2039 0.950 . S
C2043 C2034 1.390 . S
C2043 H2036 0.950 . S
C2043 C2040 1.387 . S
C2044 C2045 1.387 . S
C2044 H2048 0.950 . S
C2044 C2053 1.390 . S
C2045 C2044 1.387 . S
C2045 C2047 1.387 . S
H2046 C2053 0.950 . S
C2047 C2045 1.387 . S
C2047 C2049 1.390 . S
C2047 H2051 0.950 . S
H2048 C2044 0.950 . S
C2049 C2047 1.390 . S
C2049 C2050 1.387 . S
C2049 H2052 0.950 . S
C2050 C2049 1.387 . S
C2050 C2053 1.387 . S
H2051 C2047 0.950 . S
H2052 C2049 0.950 . S
C2053 C2044 1.390 . S
C2053 H2046 0.950 . S
C2053 C2050 1.387 . S
C2054 C2055 1.387 . S
C2054 H2058 0.950 . S
C2054 C2063 1.390 . S
C2055 C2054 1.387 . S
C2055 C2057 1.387 . S
H2056 C2063 0.950 . S
C2057 C2055 1.387 . S
C2057 C2059 1.390 . S
C2057 H2061 0.950 . S
H2058 C2054 0.950 . S
C2059 C2057 1.390 . S
C2059 C2060 1.387 . S
C2059 H2062 0.950 . S
C2060 C2059 1.387 . S
C2060 C2063 1.387 . S
H2061 C2057 0.950 . S
H2062 C2059 0.950 . S
C2063 C2054 1.390 . S
C2063 H2056 0.950 . S
C2063 C2060 1.387 . S
C2064 C2065 1.387 . S
C2064 H2068 0.950 . S
C2064 C2073 1.390 . S
C2065 C2064 1.387 . S
C2065 C2067 1.387 . S
H2066 C2073 0.950 . S
C2067 C2065 1.387 . S
C2067 C2069 1.390 . S
C2067 H2071 0.950 . S
H2068 C2064 0.950 . S
C2069 C2067 1.390 . S
C2069 C2070 1.387 . S
C2069 H2072 0.950 . S
C2070 C2069 1.387 . S
C2070 C2073 1.387 . S
H2071 C2067 0.950 . S
H2072 C2069 0.950 . S
C2073 C2064 1.390 . S
C2073 H2066 0.950 . S
C2073 C2070 1.387 . S
C2074 C2075 1.387 . S
C2074 H2078 0.950 . S
C2074 C2083 1.390 . S
C2075 C2074 1.387 . S
C2075 C2077 1.387 . S
H2076 C2083 0.950 . S
C2077 C2075 1.387 . S
C2077 C2079 1.390 . S
C2077 H2081 0.950 . S
H2078 C2074 0.950 . S
C2079 C2077 1.390 . S
C2079 C2080 1.387 . S
C2079 H2082 0.950 . S
C2080 C2079 1.387 . S
C2080 C2083 1.387 . S
H2081 C2077 0.950 . S
H2082 C2079 0.950 . S
C2083 C2074 1.390 . S
C2083 H2076 0.950 . S
C2083 C2080 1.387 . S
C2084 C2085 1.387 . S
C2084 H2088 0.950 . S
C2084 C2093 1.390 . S
C2085 C2084 1.387 . S
C2085 C2087 1.387 . S
H2086 C2093 0.950 . S
C2087 C2085 1.387 . S
C2087 C2089 1.390 . S
C2087 H2091 0.950 . S
H2088 C2084 0.950 . S
C2089 C2087 1.390 . S
C2089 C2090 1.387 . S
C2089 H2092 0.950 . S
C2090 C2089 1.387 . S
C2090 C2093 1.387 . S
H2091 C2087 0.950 . S
H2092 C2089 0.950 . S
C2093 C2084 1.390 . S
C2093 H2086 0.950 . S
C2093 C2090 1.387 . S
C2094 C2095 1.387 . S
C2094 H2098 0.950 . S
C2094 C2103 1.390 . S
C2095 C2094 1.387 . S
C2095 C2097 1.387 . S
H2096 C2103 0.950 . S
C2097 C2095 1.387 . S
C2097 C2099 1.390 . S
C2097 H2101 0.950 . S
H2098 C2094 0.950 . S
C2099 C2097 1.390 . S
C2099 C2100 1.387 . S
C2099 H2102 0.950 . S
C2100 C2099 1.387 . S
C2100 C2103 1.387 . S
H2101 C2097 0.950 . S
H2102 C2099 0.950 . S
C2103 C2094 1.390 . S
C2103 H2096 0.950 . S
C2103 C2100 1.387 . S
C2104 C2105 1.387 . S
C2104 H2108 0.950 . S
C2104 C2113 1.390 . S
C2105 C2104 1.387 . S
C2105 C2107 1.387 . S
H2106 C2113 0.950 . S
C2107 C2105 1.387 . S
C2107 C2109 1.390 . S
C2107 H2111 0.950 . S
H2108 C2104 0.950 . S
C2109 C2107 1.390 . S
C2109 C2110 1.387 . S
C2109 H2112 0.950 . S
C2110 C2109 1.387 . S
C2110 C2113 1.387 . S
H2111 C2107 0.950 . S
H2112 C2109 0.950 . S
C2113 C2104 1.390 . S
C2113 H2106 0.950 . S
C2113 C2110 1.387 . S
C2114 C2115 1.387 . S
C2114 H2118 0.950 . S
C2114 C2123 1.390 . S
C2115 C2114 1.387 . S
C2115 C2117 1.387 . S
H2116 C2123 0.950 . S
C2117 C2115 1.387 . S
C2117 C2119 1.390 . S
C2117 H2121 0.950 . S
H2118 C2114 0.950 . S
C2119 C2117 1.390 . S
C2119 C2120 1.387 . S
C2119 H2122 0.950 . S
C2120 C2119 1.387 . S
C2120 C2123 1.387 . S
H2121 C2117 0.950 . S
H2122 C2119 0.950 . S
C2123 C2114 1.390 . S
C2123 H2116 0.950 . S
C2123 C2120 1.387 . S
C2124 C2125 1.387 . S
C2124 H2128 0.950 . S
C2124 C2133 1.390 . S
C2125 C2124 1.387 . S
C2125 C2127 1.387 . S
H2126 C2133 0.950 . S
C2127 C2125 1.387 . S
C2127 C2129 1.390 . S
C2127 H2131 0.950 . S
H2128 C2124 0.950 . S
C2129 C2127 1.390 . S
C2129 C2130 1.387 . S
C2129 H2132 0.950 . S
C2130 C2129 1.387 . S
C2130 C2133 1.387 . S
H2131 C2127 0.950 . S
H2132 C2129 0.950 . S
C2133 C2124 1.390 . S
C2133 H2126 0.950 . S
C2133 C2130 1.387 . S
C2134 C2135 1.387 . S
C2134 H2138 0.950 . S
C2134 C2143 1.390 . S
C2135 C2134 1.387 . S
C2135 C2137 1.387 . S
H2136 C2143 0.950 . S
C2137 C2135 1.387 . S
C2137 C2139 1.390 . S
C2137 H2141 0.950 . S
H2138 C2134 0.950 . S
C2139 C2137 1.390 . S
C2139 C2140 1.387 . S
C2139 H2142 0.950 . S
C2140 C2139 1.387 . S
C2140 C2143 1.387 . S
H2141 C2137 0.950 . S
H2142 C2139 0.950 . S
C2143 C2134 1.390 . S
C2143 H2136 0.950 . S
C2143 C2140 1.387 . S
C2144 C2145 1.387 . S
C2144 H2148 0.950 . S
C2144 C2153 1.390 . S
C2145 C2144 1.387 . S
C2145 C2147 1.387 . S
H2146 C2153 0.950 . S
C2147 C2145 1.387 . S
C2147 C2149 1.390 . S
C2147 H2151 0.950 . S
H2148 C2144 0.950 . S
C2149 C2147 1.390 . S
C2149 C2150 1.387 . S
C2149 H2152 0.950 . S
C2150 C2149 1.387 . S
C2150 C2153 1.387 . S
H2151 C2147 0.950 . S
H2152 C2149 0.950 . S
C2153 C2144 1.390 . S
C2153 H2146 0.950 . S
C2153 C2150 1.387 . S
C2154 C2155 1.387 . S
C2154 H2158 0.950 . S
C2154 C2163 1.390 . S
C2155 C2154 1.387 . S
C2155 C2157 1.387 . S
H2156 C2163 0.950 . S
C2157 C2155 1.387 . S
C2157 C2159 1.390 . S
C2157 H2161 0.950 . S
H2158 C2154 0.950 . S
C2159 C2157 1.390 . S
C2159 C2160 1.387 . S
C2159 H2162 0.950 . S
C2160 C2159 1.387 . S
C2160 C2163 1.387 . S
H2161 C2157 0.950 . S
H2162 C2159 0.950 . S
C2163 C2154 1.390 . S
C2163 H2156 0.950 . S
C2163 C2160 1.387 . S
C2164 C2165 1.387 . S
C2164 H2168 0.950 . S
C2164 C2173 1.390 . S
C2165 C2164 1.387 . S
C2165 C2167 1.387 . S
H2166 C2173 0.950 . S
C2167 C2165 1.387 . S
C2167 C2169 1.390 . S
C2167 H2171 0.950 . S
H2168 C2164 0.950 . S
C2169 C2167 1.390 . S
C2169 C2170 1.387 . S
C2169 H2172 0.950 . S
C2170 C2169 1.387 . S
C2170 C2173 1.387 . S
H2171 C2167 0.950 . S
H2172 C2169 0.950 . S
C2173 C2164 1.390 . S
C2173 H2166 0.950 . S
C2173 C2170 1.387 . S
C2174 C2175 1.387 . S
C2174 H2178 0.950 . S
C2174 C2183 1.390 . S
C2175 C2174 1.387 . S
C2175 C2177 1.387 . S
H2176 C2183 0.950 . S
C2177 C2175 1.387 . S
C2177 C2179 1.390 . S
C2177 H2181 0.950 . S
H2178 C2174 0.950 . S
C2179 C2177 1.390 . S
C2179 C2180 1.387 . S
C2179 H2182 0.950 . S
C2180 C2179 1.387 . S
C2180 C2183 1.387 . S
H2181 C2177 0.950 . S
H2182 C2179 0.950 . S
C2183 C2174 1.390 . S
C2183 H2176 0.950 . S
C2183 C2180 1.387 . S
C2184 C2185 1.387 . S
C2184 H2188 0.950 . S
C2184 C2193 1.390 . S
C2185 C2184 1.387 . S
C2185 C2187 1.387 . S
H2186 C2193 0.950 . S
C2187 C2185 1.387 . S
C2187 C2189 1.390 . S
C2187 H2191 0.950 . S
H2188 C2184 0.950 . S
C2189 C2187 1.390 . S
C2189 C2190 1.387 . S
C2189 H2192 0.950 . S
C2190 C2189 1.387 . S
C2190 C2193 1.387 . S
H2191 C2187 0.950 . S
H2192 C2189 0.950 . S
C2193 C2184 1.390 . S
C2193 H2186 0.950 . S
C2193 C2190 1.387 . S
C2194 C2195 1.387 . S
C2194 H2198 0.950 . S
C2194 C2203 1.390 . S
C2195 C2194 1.387 . S
C2195 C2197 1.387 . S
H2196 C2203 0.950 . S
C2197 C2195 1.387 . S
C2197 C2199 1.390 . S
C2197 H2201 0.950 . S
H2198 C2194 0.950 . S
C2199 C2197 1.390 . S
C2199 C2200 1.387 . S
C2199 H2202 0.950 . S
C2200 C2199 1.387 . S
C2200 C2203 1.387 . S
H2201 C2197 0.950 . S
H2202 C2199 0.950 . S
C2203 C2194 1.390 . S
C2203 H2196 0.950 . S
C2203 C2200 1.387 . S
C2204 C2205 1.387 . S
C2204 H2208 0.950 . S
C2204 C2213 1.390 . S
C2205 C2204 1.387 . S
C2205 C2207 1.387 . S
H2206 C2213 0.950 . S
C2207 C2205 1.387 . S
C2207 C2209 1.390 . S
C2207 H2211 0.950 . S
H2208 C2204 0.950 . S
C2209 C2207 1.390 . S
C2209 C2210 1.387 . S
C2209 H2212 0.950 . S
C2210 C2209 1.387 . S
C2210 C2213 1.387 . S
H2211 C2207 0.950 . S
H2212 C2209 0.950 . S
C2213 C2204 1.390 . S
C2213 H2206 0.950 . S
C2213 C2210 1.387 . S
C2214 C2215 1.387 . S
C2214 H2218 0.950 . S
C2214 C2223 1.390 . S
C2215 C2214 1.387 . S
C2215 C2217 1.387 . S
H2216 C2223 0.950 . S
C2217 C2215 1.387 . S
C2217 C2219 1.390 . S
C2217 H2221 0.950 . S
H2218 C2214 0.950 . S
C2219 C2217 1.390 . S
C2219 C2220 1.387 . S
C2219 H2222 0.950 . S
C2220 C2219 1.387 . S
C2220 C2223 1.387 . S
H2221 C2217 0.950 . S
H2222 C2219 0.950 . S
C2223 C2214 1.390 . S
C2223 H2216 0.950 . S
C2223 C2220 1.387 . S
C2224 C2225 1.387 . S
C2224 H2228 0.950 . S
C2224 C2233 1.390 . S
C2225 C2224 1.387 . S
C2225 C2227 1.387 . S
H2226 C2233 0.950 . S
C2227 C2225 1.387 . S
C2227 C2229 1.390 . S
C2227 H2231 0.950 . S
H2228 C2224 0.950 . S
C2229 C2227 1.390 . S
C2229 C2230 1.387 . S
C2229 H2232 0.950 . S
C2230 C2229 1.387 . S
C2230 C2233 1.387 . S
H2231 C2227 0.950 . S
H2232 C2229 0.950 . S
C2233 C2224 1.390 . S
C2233 H2226 0.950 . S
C2233 C2230 1.387 . S
C2234 C2235 1.387 . S
C2234 H2238 0.950 . S
C2234 C2243 1.390 . S
C2235 C2234 1.387 . S
C2235 C2237 1.387 . S
H2236 C2243 0.950 . S
C2237 C2235 1.387 . S
C2237 C2239 1.390 . S
C2237 H2241 0.950 . S
H2238 C2234 0.950 . S
C2239 C2237 1.390 . S
C2239 C2240 1.387 . S
C2239 H2242 0.950 . S
C2240 C2239 1.387 . S
C2240 C2243 1.387 . S
H2241 C2237 0.950 . S
H2242 C2239 0.950 . S
C2243 C2234 1.390 . S
C2243 H2236 0.950 . S
C2243 C2240 1.387 . S
C2244 C2245 1.387 . S
C2244 H2248 0.950 . S
C2244 C2253 1.390 . S
C2245 C2244 1.387 . S
C2245 C2247 1.387 . S
H2246 C2253 0.950 . S
C2247 C2245 1.387 . S
C2247 C2249 1.390 . S
C2247 H2251 0.950 . S
H2248 C2244 0.950 . S
C2249 C2247 1.390 . S
C2249 C2250 1.387 . S
C2249 H2252 0.950 . S
C2250 C2249 1.387 . S
C2250 C2253 1.387 . S
H2251 C2247 0.950 . S
H2252 C2249 0.950 . S
C2253 C2244 1.390 . S
C2253 H2246 0.950 . S
C2253 C2250 1.387 . S
C2254 C2255 1.387 . S
C2254 H2258 0.950 . S
C2254 C2263 1.390 . S
C2255 C2254 1.387 . S
C2255 C2257 1.387 . S
H2256 C2263 0.950 . S
C2257 C2255 1.387 . S
C2257 C2259 1.390 . S
C2257 H2261 0.950 . S
H2258 C2254 0.950 . S
C2259 C2257 1.390 . S
C2259 C2260 1.387 . S
C2259 H2262 0.950 . S
C2260 C2259 1.387 . S
C2260 C2263 1.387 . S
H2261 C2257 0.950 . S
H2262 C2259 0.950 . S
C2263 C2254 1.390 . S
C2263 H2256 0.950 . S
C2263 C2260 1.387 . S
C2264 C2265 1.387 . S
C2264 H2268 0.950 . S
C2264 C2273 1.390 . S
C2265 C2264 1.387 . S
C2265 C2267 1.387 . S
H2266 C2273 0.950 . S
C2267 C2265 1.387 . S
C2267 C2269 1.390 . S
C2267 H2271 0.950 . S
H2268 C2264 0.950 . S
C2269 C2267 1.390 . S
C2269 C2270 1.387 . S
C2269 H2272 0.950 . S
C2270 C2269 1.387 . S
C2270 C2273 1.387 . S
H2271 C2267 0.950 . S
H2272 C2269 0.950 . S
C2273 C2264 1.390 . S
C2273 H2266 0.950 . S
C2273 C2270 1.387 . S
C2274 C2275 1.387 . S
C2274 H2278 0.950 . S
C2274 C2283 1.390 . S
C2275 C2274 1.387 . S
C2275 C2277 1.387 . S
H2276 C2283 0.950 . S
C2277 C2275 1.387 . S
C2277 C2279 1.390 . S
C2277 H2281 0.950 . S
H2278 C2274 0.950 . S
C2279 C2277 1.390 . S
C2279 C2280 1.387 . S
C2279 H2282 0.950 . S
C2280 C2279 1.387 . S
C2280 C2283 1.387 . S
H2281 C2277 0.950 . S
H2282 C2279 0.950 . S
C2283 C2274 1.390 . S
C2283 H2276 0.950 . S
C2283 C2280 1.387 . S
C2284 C2285 1.387 . S
C2284 H2288 0.950 . S
C2284 C2293 1.390 . S
C2285 C2284 1.387 . S
C2285 C2287 1.387 . S
H2286 C2293 0.950 . S
C2287 C2285 1.387 . S
C2287 C2289 1.390 . S
C2287 H2291 0.950 . S
H2288 C2284 0.950 . S
C2289 C2287 1.390 . S
C2289 C2290 1.387 . S
C2289 H2292 0.950 . S
C2290 C2289 1.387 . S
C2290 C2293 1.387 . S
H2291 C2287 0.950 . S
H2292 C2289 0.950 . S
C2293 C2284 1.390 . S
C2293 H2286 0.950 . S
C2293 C2290 1.387 . S
C2294 C2295 1.387 . S
C2294 H2298 0.950 . S
C2294 C2303 1.390 . S
C2295 C2294 1.387 . S
C2295 C2297 1.387 . S
H2296 C2303 0.950 . S
C2297 C2295 1.387 . S
C2297 C2299 1.390 . S
C2297 H2301 0.950 . S
H2298 C2294 0.950 . S
C2299 C2297 1.390 . S
C2299 C2300 1.387 . S
C2299 H2302 0.950 . S
C2300 C2299 1.387 . S
C2300 C2303 1.387 . S
H2301 C2297 0.950 . S
H2302 C2299 0.950 . S
C2303 C2294 1.390 . S
C2303 H2296 0.950 . S
C2303 C2300 1.387 . S
C2304 C2305 1.387 . S
C2304 H2308 0.950 . S
C2304 C2313 1.390 1_455 S
C2305 C2304 1.387 . S
C2305 C2307 1.387 . S
H2306 C2313 0.950 . S
C2307 C2305 1.387 . S
C2307 C2309 1.390 1_455 S
C2307 H2311 0.950 . S
H2308 C2304 0.950 . S
C2309 C2307 1.390 1_655 S
C2309 C2310 1.387 . S
C2309 H2312 0.950 . S
C2310 C2309 1.387 . S
C2310 C2313 1.387 . S
H2311 C2307 0.950 . S
H2312 C2309 0.950 . S
C2313 C2304 1.390 1_655 S
C2313 H2306 0.950 . S
C2313 C2310 1.387 . S
C2314 C2315 1.387 . S
C2314 H2318 0.950 . S
C2314 C2323 1.390 1_565 S
C2315 C2314 1.387 . S
C2315 C2317 1.387 . S
H2316 C2323 0.950 . S
C2317 C2315 1.387 . S
C2317 C2319 1.390 1_565 S
C2317 H2321 0.950 . S
H2318 C2314 0.950 . S
C2319 C2317 1.390 1_545 S
C2319 C2320 1.387 . S
C2319 H2322 0.950 . S
C2320 C2319 1.387 . S
C2320 C2323 1.387 . S
H2321 C2317 0.950 . S
H2322 C2319 0.950 . S
C2323 C2314 1.390 1_545 S
C2323 H2316 0.950 . S
C2323 C2320 1.387 . S
C2324 C2325 1.387 . S
C2324 H2328 0.950 . S
C2324 C2333 1.390 1_655 S
C2325 C2324 1.387 . S
C2325 C2327 1.387 . S
H2326 C2333 0.950 . S
C2327 C2325 1.387 . S
C2327 C2329 1.390 1_655 S
C2327 H2331 0.950 . S
H2328 C2324 0.950 . S
C2329 C2327 1.390 1_455 S
C2329 C2330 1.387 . S
C2329 H2332 0.950 . S
C2330 C2329 1.387 . S
C2330 C2333 1.387 . S
H2331 C2327 0.950 . S
H2332 C2329 0.950 . S
C2333 C2324 1.390 1_455 S
C2333 H2326 0.950 . S
C2333 C2330 1.387 . S
C2334 C2335 1.387 . S
C2334 H2338 0.950 . S
C2334 C2343 1.390 1_545 S
C2335 C2334 1.387 . S
C2335 C2337 1.387 . S
H2336 C2343 0.950 . S
C2337 C2335 1.387 . S
C2337 C2339 1.390 1_545 S
C2337 H2341 0.950 . S
H2338 C2334 0.950 . S
C2339 C2337 1.390 1_565 S
C2339 C2340 1.387 . S
C2339 H2342 0.950 . S
C2340 C2339 1.387 . S
C2340 C2343 1.387 . S
H2341 C2337 0.950 . S
H2342 C2339 0.950 . S
C2343 C2334 1.390 1_565 S
C2343 H2336 0.950 . S
C2343 C2340 1.387 . S
C2344 C2345 1.387 . S
C2344 H2348 0.950 . S
C2344 C2353 1.390 1_455 S
C2345 C2344 1.387 . S
C2345 C2347 1.387 . S
H2346 C2353 0.950 . S
C2347 C2345 1.387 . S
C2347 C2349 1.390 1_455 S
C2347 H2351 0.950 . S
H2348 C2344 0.950 . S
C2349 C2347 1.390 1_655 S
C2349 C2350 1.387 . S
C2349 H2352 0.950 . S
C2350 C2349 1.387 . S
C2350 C2353 1.387 . S
H2351 C2347 0.950 . S
H2352 C2349 0.950 . S
C2353 C2344 1.390 1_655 S
C2353 H2346 0.950 . S
C2353 C2350 1.387 . S
C2354 C2355 1.387 . S
C2354 H2358 0.950 . S
C2354 C2363 1.390 1_545 S
C2355 C2354 1.387 . S
C2355 C2357 1.387 . S
H2356 C2363 0.950 . S
C2357 C2355 1.387 . S
C2357 C2359 1.390 1_545 S
C2357 H2361 0.950 . S
H2358 C2354 0.950 . S
C2359 C2357 1.390 1_565 S
C2359 C2360 1.387 . S
C2359 H2362 0.950 . S
C2360 C2359 1.387 . S
C2360 C2363 1.387 . S
H2361 C2357 0.950 . S
H2362 C2359 0.950 . S
C2363 C2354 1.390 1_565 S
C2363 H2356 0.950 . S
C2363 C2360 1.387 . S
C2364 C2365 1.387 . S
C2364 H2368 0.950 . S
C2364 C2373 1.390 1_655 S
C2365 C2364 1.387 . S
C2365 C2367 1.387 . S
H2366 C2373 0.950 . S
C2367 C2365 1.387 . S
C2367 C2369 1.390 1_655 S
C2367 H2371 0.950 . S
H2368 C2364 0.950 . S
C2369 C2367 1.390 1_455 S
C2369 C2370 1.387 . S
C2369 H2372 0.950 . S
C2370 C2369 1.387 . S
C2370 C2373 1.387 . S
H2371 C2367 0.950 . S
H2372 C2369 0.950 . S
C2373 C2364 1.390 1_455 S
C2373 H2366 0.950 . S
C2373 C2370 1.387 . S
C2374 C2375 1.387 . S
C2374 H2378 0.950 . S
C2374 C2383 1.390 1_545 S
C2375 C2374 1.387 . S
C2375 C2377 1.387 . S
H2376 C2383 0.950 . S
C2377 C2375 1.387 . S
C2377 C2379 1.390 1_545 S
C2377 H2381 0.950 . S
H2378 C2374 0.950 . S
C2379 C2377 1.390 1_565 S
C2379 C2380 1.387 . S
C2379 H2382 0.950 . S
C2380 C2379 1.387 . S
C2380 C2383 1.387 . S
H2381 C2377 0.950 . S
H2382 C2379 0.950 . S
C2383 C2374 1.390 1_565 S
C2383 H2376 0.950 . S
C2383 C2380 1.387 . S
C2384 C2385 1.387 . S
C2384 H2388 0.950 . S
C2384 C2393 1.390 1_565 S
C2385 C2384 1.387 . S
C2385 C2387 1.387 . S
H2386 C2393 0.950 . S
C2387 C2385 1.387 . S
C2387 C2389 1.390 1_565 S
C2387 H2391 0.950 . S
H2388 C2384 0.950 . S
C2389 C2387 1.390 1_545 S
C2389 C2390 1.387 . S
C2389 H2392 0.950 . S
C2390 C2389 1.387 . S
C2390 C2393 1.387 . S
H2391 C2387 0.950 . S
H2392 C2389 0.950 . S
C2393 C2384 1.390 1_545 S
C2393 H2386 0.950 . S
C2393 C2390 1.387 . S
C2394 C2395 1.387 . S
C2394 H2398 0.950 . S
C2394 C2403 1.390 1_655 S
C2395 C2394 1.387 . S
C2395 C2397 1.387 . S
H2396 C2403 0.950 . S
C2397 C2395 1.387 . S
C2397 C2399 1.390 1_655 S
C2397 H2401 0.950 . S
H2398 C2394 0.950 . S
C2399 C2397 1.390 1_455 S
C2399 C2400 1.387 . S
C2399 H2402 0.950 . S
C2400 C2399 1.387 . S
C2400 C2403 1.387 . S
H2401 C2397 0.950 . S
H2402 C2399 0.950 . S
C2403 C2394 1.390 1_455 S
C2403 H2396 0.950 . S
C2403 C2400 1.387 . S
C2404 C2405 1.387 . S
C2404 H2408 0.950 . S
C2404 C2413 1.390 1_565 S
C2405 C2404 1.387 . S
C2405 C2407 1.387 . S
H2406 C2413 0.950 . S
C2407 C2405 1.387 . S
C2407 C2409 1.390 1_565 S
C2407 H2411 0.950 . S
H2408 C2404 0.950 . S
C2409 C2407 1.390 1_545 S
C2409 C2410 1.387 . S
C2409 H2412 0.950 . S
C2410 C2409 1.387 . S
C2410 C2413 1.387 . S
H2411 C2407 0.950 . S
H2412 C2409 0.950 . S
C2413 C2404 1.390 1_545 S
C2413 H2406 0.950 . S
C2413 C2410 1.387 . S
C2414 C2415 1.387 . S
C2414 H2418 0.950 . S
C2414 C2423 1.390 1_455 S
C2415 C2414 1.387 . S
C2415 C2417 1.387 . S
H2416 C2423 0.950 . S
C2417 C2415 1.387 . S
C2417 C2419 1.390 1_455 S
C2417 H2421 0.950 . S
H2418 C2414 0.950 . S
C2419 C2417 1.390 1_655 S
C2419 C2420 1.387 . S
C2419 H2422 0.950 . S
C2420 C2419 1.387 . S
C2420 C2423 1.387 . S
H2421 C2417 0.950 . S
H2422 C2419 0.950 . S
C2423 C2414 1.390 1_655 S
C2423 H2416 0.950 . S
C2423 C2420 1.387 . S
C2424 C2425 1.387 . S
C2424 H2428 0.950 . S
C2424 C2433 1.390 1_565 S
C2425 C2424 1.387 . S
C2425 C2427 1.387 . S
H2426 C2433 0.950 . S
C2427 C2425 1.387 . S
C2427 C2429 1.390 1_565 S
C2427 H2431 0.950 . S
H2428 C2424 0.950 . S
C2429 C2427 1.390 1_545 S
C2429 C2430 1.387 . S
C2429 H2432 0.950 . S
C2430 C2429 1.387 . S
C2430 C2433 1.387 . S
H2431 C2427 0.950 . S
H2432 C2429 0.950 . S
C2433 C2424 1.390 1_545 S
C2433 H2426 0.950 . S
C2433 C2430 1.387 . S
C2434 C2435 1.387 . S
C2434 H2438 0.950 . S
C2434 C2443 1.390 1_455 S
C2435 C2434 1.387 . S
C2435 C2437 1.387 . S
H2436 C2443 0.950 . S
C2437 C2435 1.387 . S
C2437 C2439 1.390 1_455 S
C2437 H2441 0.950 . S
H2438 C2434 0.950 . S
C2439 C2437 1.390 1_655 S
C2439 C2440 1.387 . S
C2439 H2442 0.950 . S
C2440 C2439 1.387 . S
C2440 C2443 1.387 . S
H2441 C2437 0.950 . S
H2442 C2439 0.950 . S
C2443 C2434 1.390 1_655 S
C2443 H2436 0.950 . S
C2443 C2440 1.387 . S
C2444 C2445 1.387 . S
C2444 H2448 0.950 . S
C2444 C2453 1.390 1_545 S
C2445 C2444 1.387 . S
C2445 C2447 1.387 . S
H2446 C2453 0.950 . S
C2447 C2445 1.387 . S
C2447 C2449 1.390 1_545 S
C2447 H2451 0.950 . S
H2448 C2444 0.950 . S
C2449 C2447 1.390 1_565 S
C2449 C2450 1.387 . S
C2449 H2452 0.950 . S
C2450 C2449 1.387 . S
C2450 C2453 1.387 . S
H2451 C2447 0.950 . S
H2452 C2449 0.950 . S
C2453 C2444 1.390 1_565 S
C2453 H2446 0.950 . S
C2453 C2450 1.387 . S
C2454 C2455 1.387 . S
C2454 H2458 0.950 . S
C2454 C2463 1.390 1_655 S
C2455 C2454 1.387 . S
C2455 C2457 1.387 . S
H2456 C2463 0.950 . S
C2457 C2455 1.387 . S
C2457 C2459 1.390 1_655 S
C2457 H2461 0.950 . S
H2458 C2454 0.950 . S
C2459 C2457 1.390 1_455 S
C2459 C2460 1.387 . S
C2459 H2462 0.950 . S
C2460 C2459 1.387 . S
C2460 C2463 1.387 . S
H2461 C2457 0.950 . S
H2462 C2459 0.950 . S
C2463 C2454 1.390 1_455 S
C2463 H2456 0.950 . S
C2463 C2460 1.387 . S
C2464 C2465 1.387 . S
C2464 H2468 0.950 . S
C2464 C2473 1.390 1_554 S
C2465 C2464 1.387 . S
C2465 C2467 1.387 . S
H2466 C2473 0.950 . S
C2467 C2465 1.387 . S
C2467 C2469 1.390 1_554 S
C2467 H2471 0.950 . S
H2468 C2464 0.950 . S
C2469 C2467 1.390 1_556 S
C2469 C2470 1.387 . S
C2469 H2472 0.950 . S
C2470 C2469 1.387 . S
C2470 C2473 1.387 . S
H2471 C2467 0.950 . S
H2472 C2469 0.950 . S
C2473 C2464 1.390 1_556 S
C2473 H2466 0.950 . S
C2473 C2470 1.387 . S
C2474 C2475 1.387 . S
C2474 H2478 0.950 . S
C2474 C2483 1.390 1_556 S
C2475 C2474 1.387 . S
C2475 C2477 1.387 . S
H2476 C2483 0.950 . S
C2477 C2475 1.387 . S
C2477 C2479 1.390 1_556 S
C2477 H2481 0.950 . S
H2478 C2474 0.950 . S
C2479 C2477 1.390 1_554 S
C2479 C2480 1.387 . S
C2479 H2482 0.950 . S
C2480 C2479 1.387 . S
C2480 C2483 1.387 . S
H2481 C2477 0.950 . S
H2482 C2479 0.950 . S
C2483 C2474 1.390 1_554 S
C2483 H2476 0.950 . S
C2483 C2480 1.387 . S
C2484 C2485 1.387 . S
C2484 H2488 0.950 . S
C2484 C2493 1.390 1_554 S
C2485 C2484 1.387 . S
C2485 C2487 1.387 . S
H2486 C2493 0.950 . S
C2487 C2485 1.387 . S
C2487 C2489 1.390 1_554 S
C2487 H2491 0.950 . S
H2488 C2484 0.950 . S
C2489 C2487 1.390 1_556 S
C2489 C2490 1.387 . S
C2489 H2492 0.950 . S
C2490 C2489 1.387 . S
C2490 C2493 1.387 . S
H2491 C2487 0.950 . S
H2492 C2489 0.950 . S
C2493 C2484 1.390 1_556 S
C2493 H2486 0.950 . S
C2493 C2490 1.387 . S
C2494 C2495 1.387 . S
C2494 H2498 0.950 . S
C2494 C2503 1.390 1_556 S
C2495 C2494 1.387 . S
C2495 C2497 1.387 . S
H2496 C2503 0.950 . S
C2497 C2495 1.387 . S
C2497 C2499 1.390 1_556 S
C2497 H2501 0.950 . S
H2498 C2494 0.950 . S
C2499 C2497 1.390 1_554 S
C2499 C2500 1.387 . S
C2499 H2502 0.950 . S
C2500 C2499 1.387 . S
C2500 C2503 1.387 . S
H2501 C2497 0.950 . S
H2502 C2499 0.950 . S
C2503 C2494 1.390 1_554 S
C2503 H2496 0.950 . S
C2503 C2500 1.387 . S
C2504 C2505 1.387 . S
C2504 H2508 0.950 . S
C2504 C2513 1.390 1_554 S
C2505 C2504 1.387 . S
C2505 C2507 1.387 . S
H2506 C2513 0.950 . S
C2507 C2505 1.387 . S
C2507 C2509 1.390 1_554 S
C2507 H2511 0.950 . S
H2508 C2504 0.950 . S
C2509 C2507 1.390 1_556 S
C2509 C2510 1.387 . S
C2509 H2512 0.950 . S
C2510 C2509 1.387 . S
C2510 C2513 1.387 . S
H2511 C2507 0.950 . S
H2512 C2509 0.950 . S
C2513 C2504 1.390 1_556 S
C2513 H2506 0.950 . S
C2513 C2510 1.387 . S
C2514 C2515 1.387 . S
C2514 H2518 0.950 . S
C2514 C2523 1.390 1_554 S
C2515 C2514 1.387 . S
C2515 C2517 1.387 . S
H2516 C2523 0.950 . S
C2517 C2515 1.387 . S
C2517 C2519 1.390 1_554 S
C2517 H2521 0.950 . S
H2518 C2514 0.950 . S
C2519 C2517 1.390 1_556 S
C2519 C2520 1.387 . S
C2519 H2522 0.950 . S
C2520 C2519 1.387 . S
C2520 C2523 1.387 . S
H2521 C2517 0.950 . S
H2522 C2519 0.950 . S
C2523 C2514 1.390 1_556 S
C2523 H2516 0.950 . S
C2523 C2520 1.387 . S
C2524 C2525 1.387 . S
C2524 H2528 0.950 . S
C2524 C2533 1.390 1_554 S
C2525 C2524 1.387 . S
C2525 C2527 1.387 . S
H2526 C2533 0.950 . S
C2527 C2525 1.387 . S
C2527 C2529 1.390 1_554 S
C2527 H2531 0.950 . S
H2528 C2524 0.950 . S
C2529 C2527 1.390 1_556 S
C2529 C2530 1.387 . S
C2529 H2532 0.950 . S
C2530 C2529 1.387 . S
C2530 C2533 1.387 . S
H2531 C2527 0.950 . S
H2532 C2529 0.950 . S
C2533 C2524 1.390 1_556 S
C2533 H2526 0.950 . S
C2533 C2530 1.387 . S
C2534 C2535 1.387 . S
C2534 H2538 0.950 . S
C2534 C2543 1.390 1_556 S
C2535 C2534 1.387 . S
C2535 C2537 1.387 . S
H2536 C2543 0.950 . S
C2537 C2535 1.387 . S
C2537 C2539 1.390 1_556 S
C2537 H2541 0.950 . S
H2538 C2534 0.950 . S
C2539 C2537 1.390 1_554 S
C2539 C2540 1.387 . S
C2539 H2542 0.950 . S
C2540 C2539 1.387 . S
C2540 C2543 1.387 . S
H2541 C2537 0.950 . S
H2542 C2539 0.950 . S
C2543 C2534 1.390 1_554 S
C2543 H2536 0.950 . S
C2543 C2540 1.387 . S
C2544 C2545 1.387 . S
C2544 H2548 0.950 . S
C2544 C2553 1.390 . S
C2545 C2544 1.387 . S
C2545 C2547 1.387 . S
H2546 C2553 0.950 . S
C2547 C2545 1.387 . S
C2547 C2549 1.390 . S
C2547 H2551 0.950 . S
H2548 C2544 0.950 . S
C2549 C2547 1.390 . S
C2549 C2550 1.387 . S
C2549 H2552 0.950 . S
C2550 C2549 1.387 . S
C2550 C2553 1.387 . S
H2551 C2547 0.950 . S
H2552 C2549 0.950 . S
C2553 C2544 1.390 . S
C2553 H2546 0.950 . S
C2553 C2550 1.387 . S
C2554 C2555 1.387 . S
C2554 H2558 0.950 . S
C2554 C2563 1.390 . S
C2555 C2554 1.387 . S
C2555 C2557 1.387 . S
H2556 C2563 0.950 . S
C2557 C2555 1.387 . S
C2557 C2559 1.390 . S
C2557 H2561 0.950 . S
H2558 C2554 0.950 . S
C2559 C2557 1.390 . S
C2559 C2560 1.387 . S
C2559 H2562 0.950 . S
C2560 C2559 1.387 . S
C2560 C2563 1.387 . S
H2561 C2557 0.950 . S
H2562 C2559 0.950 . S
C2563 C2554 1.390 . S
C2563 H2556 0.950 . S
C2563 C2560 1.387 . S
C2564 C2565 1.387 . S
C2564 H2568 0.950 . S
C2564 C2573 1.390 . S
C2565 C2564 1.387 . S
C2565 C2567 1.387 . S
H2566 C2573 0.950 . S
C2567 C2565 1.387 . S
C2567 C2569 1.390 . S
C2567 H2571 0.950 . S
H2568 C2564 0.950 . S
C2569 C2567 1.390 . S
C2569 C2570 1.387 . S
C2569 H2572 0.950 . S
C2570 C2569 1.387 . S
C2570 C2573 1.387 . S
H2571 C2567 0.950 . S
H2572 C2569 0.950 . S
C2573 C2564 1.390 . S
C2573 H2566 0.950 . S
C2573 C2570 1.387 . S
C2574 C2575 1.387 . S
C2574 H2578 0.950 . S
C2574 C2583 1.390 . S
C2575 C2574 1.387 . S
C2575 C2577 1.387 . S
H2576 C2583 0.950 . S
C2577 C2575 1.387 . S
C2577 C2579 1.390 . S
C2577 H2581 0.950 . S
H2578 C2574 0.950 . S
C2579 C2577 1.390 . S
C2579 C2580 1.387 . S
C2579 H2582 0.950 . S
C2580 C2579 1.387 . S
C2580 C2583 1.387 . S
H2581 C2577 0.950 . S
H2582 C2579 0.950 . S
C2583 C2574 1.390 . S
C2583 H2576 0.950 . S
C2583 C2580 1.387 . S
C2584 C2585 1.387 . S
C2584 H2588 0.950 . S
C2584 C2593 1.390 . S
C2585 C2584 1.387 . S
C2585 C2587 1.387 . S
H2586 C2593 0.950 . S
C2587 C2585 1.387 . S
C2587 C2589 1.390 . S
C2587 H2591 0.950 . S
H2588 C2584 0.950 . S
C2589 C2587 1.390 . S
C2589 C2590 1.387 . S
C2589 H2592 0.950 . S
C2590 C2589 1.387 . S
C2590 C2593 1.387 . S
H2591 C2587 0.950 . S
H2592 C2589 0.950 . S
C2593 C2584 1.390 . S
C2593 H2586 0.950 . S
C2593 C2590 1.387 . S
C2594 C2595 1.387 . S
C2594 H2598 0.950 . S
C2594 C2603 1.390 . S
C2595 C2594 1.387 . S
C2595 C2597 1.387 . S
H2596 C2603 0.950 . S
C2597 C2595 1.387 . S
C2597 C2599 1.390 . S
C2597 H2601 0.950 . S
H2598 C2594 0.950 . S
C2599 C2597 1.390 . S
C2599 C2600 1.387 . S
C2599 H2602 0.950 . S
C2600 C2599 1.387 . S
C2600 C2603 1.387 . S
H2601 C2597 0.950 . S
H2602 C2599 0.950 . S
C2603 C2594 1.390 . S
C2603 H2596 0.950 . S
C2603 C2600 1.387 . S
C2604 C2605 1.387 . S
C2604 H2608 0.950 . S
C2604 C2613 1.390 . S
C2605 C2604 1.387 . S
C2605 C2607 1.387 . S
H2606 C2613 0.950 . S
C2607 C2605 1.387 . S
C2607 C2609 1.390 . S
C2607 H2611 0.950 . S
H2608 C2604 0.950 . S
C2609 C2607 1.390 . S
C2609 C2610 1.387 . S
C2609 H2612 0.950 . S
C2610 C2609 1.387 . S
C2610 C2613 1.387 . S
H2611 C2607 0.950 . S
H2612 C2609 0.950 . S
C2613 C2604 1.390 . S
C2613 H2606 0.950 . S
C2613 C2610 1.387 . S
C2614 C2615 1.387 . S
C2614 H2618 0.950 . S
C2614 C2623 1.390 . S
C2615 C2614 1.387 . S
C2615 C2617 1.387 . S
H2616 C2623 0.950 . S
C2617 C2615 1.387 . S
C2617 C2619 1.390 . S
C2617 H2621 0.950 . S
H2618 C2614 0.950 . S
C2619 C2617 1.390 . S
C2619 C2620 1.387 . S
C2619 H2622 0.950 . S
C2620 C2619 1.387 . S
C2620 C2623 1.387 . S
H2621 C2617 0.950 . S
H2622 C2619 0.950 . S
C2623 C2614 1.390 . S
C2623 H2616 0.950 . S
C2623 C2620 1.387 . S
C2624 C2625 1.387 . S
C2624 H2628 0.950 . S
C2624 C2633 1.390 . S
C2625 C2624 1.387 . S
C2625 C2627 1.387 . S
H2626 C2633 0.950 . S
C2627 C2625 1.387 . S
C2627 C2629 1.390 . S
C2627 H2631 0.950 . S
H2628 C2624 0.950 . S
C2629 C2627 1.390 . S
C2629 C2630 1.387 . S
C2629 H2632 0.950 . S
C2630 C2629 1.387 . S
C2630 C2633 1.387 . S
H2631 C2627 0.950 . S
H2632 C2629 0.950 . S
C2633 C2624 1.390 . S
C2633 H2626 0.950 . S
C2633 C2630 1.387 . S
C2634 C2635 1.387 . S
C2634 H2638 0.950 . S
C2634 C2643 1.390 . S
C2635 C2634 1.387 . S
C2635 C2637 1.387 . S
H2636 C2643 0.950 . S
C2637 C2635 1.387 . S
C2637 C2639 1.390 . S
C2637 H2641 0.950 . S
H2638 C2634 0.950 . S
C2639 C2637 1.390 . S
C2639 C2640 1.387 . S
C2639 H2642 0.950 . S
C2640 C2639 1.387 . S
C2640 C2643 1.387 . S
H2641 C2637 0.950 . S
H2642 C2639 0.950 . S
C2643 C2634 1.390 . S
C2643 H2636 0.950 . S
C2643 C2640 1.387 . S
C2644 C2645 1.387 . S
C2644 H2648 0.950 . S
C2644 C2653 1.390 . S
C2645 C2644 1.387 . S
C2645 C2647 1.387 . S
H2646 C2653 0.950 . S
C2647 C2645 1.387 . S
C2647 C2649 1.390 . S
C2647 H2651 0.950 . S
H2648 C2644 0.950 . S
C2649 C2647 1.390 . S
C2649 C2650 1.387 . S
C2649 H2652 0.950 . S
C2650 C2649 1.387 . S
C2650 C2653 1.387 . S
H2651 C2647 0.950 . S
H2652 C2649 0.950 . S
C2653 C2644 1.390 . S
C2653 H2646 0.950 . S
C2653 C2650 1.387 . S
C2654 C2655 1.387 . S
C2654 H2658 0.950 . S
C2654 C2663 1.390 . S
C2655 C2654 1.387 . S
C2655 C2657 1.387 . S
H2656 C2663 0.950 . S
C2657 C2655 1.387 . S
C2657 C2659 1.390 . S
C2657 H2661 0.950 . S
H2658 C2654 0.950 . S
C2659 C2657 1.390 . S
C2659 C2660 1.387 . S
C2659 H2662 0.950 . S
C2660 C2659 1.387 . S
C2660 C2663 1.387 . S
H2661 C2657 0.950 . S
H2662 C2659 0.950 . S
C2663 C2654 1.390 . S
C2663 H2656 0.950 . S
C2663 C2660 1.387 . S
C2664 C2665 1.387 . S
C2664 H2668 0.950 . S
C2664 C2673 1.390 . S
C2665 C2664 1.387 . S
C2665 C2667 1.387 . S
H2666 C2673 0.950 . S
C2667 C2665 1.387 . S
C2667 C2669 1.390 . S
C2667 H2671 0.950 . S
H2668 C2664 0.950 . S
C2669 C2667 1.390 . S
C2669 C2670 1.387 . S
C2669 H2672 0.950 . S
C2670 C2669 1.387 . S
C2670 C2673 1.387 . S
H2671 C2667 0.950 . S
H2672 C2669 0.950 . S
C2673 C2664 1.390 . S
C2673 H2666 0.950 . S
C2673 C2670 1.387 . S
C2674 C2675 1.387 . S
C2674 H2678 0.950 . S
C2674 C2683 1.390 . S
C2675 C2674 1.387 . S
C2675 C2677 1.387 . S
H2676 C2683 0.950 . S
C2677 C2675 1.387 . S
C2677 C2679 1.390 . S
C2677 H2681 0.950 . S
H2678 C2674 0.950 . S
C2679 C2677 1.390 . S
C2679 C2680 1.387 . S
C2679 H2682 0.950 . S
C2680 C2679 1.387 . S
C2680 C2683 1.387 . S
H2681 C2677 0.950 . S
H2682 C2679 0.950 . S
C2683 C2674 1.390 . S
C2683 H2676 0.950 . S
C2683 C2680 1.387 . S
C2684 C2685 1.387 . S
C2684 H2688 0.950 . S
C2684 C2693 1.390 . S
C2685 C2684 1.387 . S
C2685 C2687 1.387 . S
H2686 C2693 0.950 . S
C2687 C2685 1.387 . S
C2687 C2689 1.390 . S
C2687 H2691 0.950 . S
H2688 C2684 0.950 . S
C2689 C2687 1.390 . S
C2689 C2690 1.387 . S
C2689 H2692 0.950 . S
C2690 C2689 1.387 . S
C2690 C2693 1.387 . S
H2691 C2687 0.950 . S
H2692 C2689 0.950 . S
C2693 C2684 1.390 . S
C2693 H2686 0.950 . S
C2693 C2690 1.387 . S
C2694 C2695 1.387 . S
C2694 H2698 0.950 . S
C2694 C2703 1.390 . S
C2695 C2694 1.387 . S
C2695 C2697 1.387 . S
H2696 C2703 0.950 . S
C2697 C2695 1.387 . S
C2697 C2699 1.390 . S
C2697 H2701 0.950 . S
H2698 C2694 0.950 . S
C2699 C2697 1.390 . S
C2699 C2700 1.387 . S
C2699 H2702 0.950 . S
C2700 C2699 1.387 . S
C2700 C2703 1.387 . S
H2701 C2697 0.950 . S
H2702 C2699 0.950 . S
C2703 C2694 1.390 . S
C2703 H2696 0.950 . S
C2703 C2700 1.387 . S
C2704 C2705 1.387 . S
C2704 H2708 0.950 . S
C2704 C2713 1.390 . S
C2705 C2704 1.387 . S
C2705 C2707 1.387 . S
H2706 C2713 0.950 . S
C2707 C2705 1.387 . S
C2707 C2709 1.390 . S
C2707 H2711 0.950 . S
H2708 C2704 0.950 . S
C2709 C2707 1.390 . S
C2709 C2710 1.387 . S
C2709 H2712 0.950 . S
C2710 C2709 1.387 . S
C2710 C2713 1.387 . S
H2711 C2707 0.950 . S
H2712 C2709 0.950 . S
C2713 C2704 1.390 . S
C2713 H2706 0.950 . S
C2713 C2710 1.387 . S
C2714 C2715 1.387 . S
C2714 H2718 0.950 . S
C2714 C2723 1.390 . S
C2715 C2714 1.387 . S
C2715 C2717 1.387 . S
H2716 C2723 0.950 . S
C2717 C2715 1.387 . S
C2717 C2719 1.390 . S
C2717 H2721 0.950 . S
H2718 C2714 0.950 . S
C2719 C2717 1.390 . S
C2719 C2720 1.387 . S
C2719 H2722 0.950 . S
C2720 C2719 1.387 . S
C2720 C2723 1.387 . S
H2721 C2717 0.950 . S
H2722 C2719 0.950 . S
C2723 C2714 1.390 . S
C2723 H2716 0.950 . S
C2723 C2720 1.387 . S
C2724 C2725 1.387 . S
C2724 H2728 0.950 . S
C2724 C2733 1.390 . S
C2725 C2724 1.387 . S
C2725 C2727 1.387 . S
H2726 C2733 0.950 . S
C2727 C2725 1.387 . S
C2727 C2729 1.390 . S
C2727 H2731 0.950 . S
H2728 C2724 0.950 . S
C2729 C2727 1.390 . S
C2729 C2730 1.387 . S
C2729 H2732 0.950 . S
C2730 C2729 1.387 . S
C2730 C2733 1.387 . S
H2731 C2727 0.950 . S
H2732 C2729 0.950 . S
C2733 C2724 1.390 . S
C2733 H2726 0.950 . S
C2733 C2730 1.387 . S
C2734 C2735 1.387 . S
C2734 H2738 0.950 . S
C2734 C2743 1.390 . S
C2735 C2734 1.387 . S
C2735 C2737 1.387 . S
H2736 C2743 0.950 . S
C2737 C2735 1.387 . S
C2737 C2739 1.390 . S
C2737 H2741 0.950 . S
H2738 C2734 0.950 . S
C2739 C2737 1.390 . S
C2739 C2740 1.387 . S
C2739 H2742 0.950 . S
C2740 C2739 1.387 . S
C2740 C2743 1.387 . S
H2741 C2737 0.950 . S
H2742 C2739 0.950 . S
C2743 C2734 1.390 . S
C2743 H2736 0.950 . S
C2743 C2740 1.387 . S
C2744 C2745 1.387 . S
C2744 H2748 0.950 . S
C2744 C2753 1.390 . S
C2745 C2744 1.387 . S
C2745 C2747 1.387 . S
H2746 C2753 0.950 . S
C2747 C2745 1.387 . S
C2747 C2749 1.390 . S
C2747 H2751 0.950 . S
H2748 C2744 0.950 . S
C2749 C2747 1.390 . S
C2749 C2750 1.387 . S
C2749 H2752 0.950 . S
C2750 C2749 1.387 . S
C2750 C2753 1.387 . S
H2751 C2747 0.950 . S
H2752 C2749 0.950 . S
C2753 C2744 1.390 . S
C2753 H2746 0.950 . S
C2753 C2750 1.387 . S
C2754 C2755 1.387 . S
C2754 H2758 0.950 . S
C2754 C2763 1.390 . S
C2755 C2754 1.387 . S
C2755 C2757 1.387 . S
H2756 C2763 0.950 . S
C2757 C2755 1.387 . S
C2757 C2759 1.390 . S
C2757 H2761 0.950 . S
H2758 C2754 0.950 . S
C2759 C2757 1.390 . S
C2759 C2760 1.387 . S
C2759 H2762 0.950 . S
C2760 C2759 1.387 . S
C2760 C2763 1.387 . S
H2761 C2757 0.950 . S
H2762 C2759 0.950 . S
C2763 C2754 1.390 . S
C2763 H2756 0.950 . S
C2763 C2760 1.387 . S
C2764 C2765 1.387 . S
C2764 H2768 0.950 . S
C2764 C2773 1.390 . S
C2765 C2764 1.387 . S
C2765 C2767 1.387 . S
H2766 C2773 0.950 . S
C2767 C2765 1.387 . S
C2767 C2769 1.390 . S
C2767 H2771 0.950 . S
H2768 C2764 0.950 . S
C2769 C2767 1.390 . S
C2769 C2770 1.387 . S
C2769 H2772 0.950 . S
C2770 C2769 1.387 . S
C2770 C2773 1.387 . S
H2771 C2767 0.950 . S
H2772 C2769 0.950 . S
C2773 C2764 1.390 . S
C2773 H2766 0.950 . S
C2773 C2770 1.387 . S
C2774 C2775 1.387 . S
C2774 H2778 0.950 . S
C2774 C2783 1.390 . S
C2775 C2774 1.387 . S
C2775 C2777 1.387 . S
H2776 C2783 0.950 . S
C2777 C2775 1.387 . S
C2777 C2779 1.390 . S
C2777 H2781 0.950 . S
H2778 C2774 0.950 . S
C2779 C2777 1.390 . S
C2779 C2780 1.387 . S
C2779 H2782 0.950 . S
C2780 C2779 1.387 . S
C2780 C2783 1.387 . S
H2781 C2777 0.950 . S
H2782 C2779 0.950 . S
C2783 C2774 1.390 . S
C2783 H2776 0.950 . S
C2783 C2780 1.387 . S
C2784 C2785 1.387 . S
C2784 H2788 0.950 . S
C2784 C2793 1.390 . S
C2785 C2784 1.387 . S
C2785 C2787 1.387 . S
H2786 C2793 0.950 . S
C2787 C2785 1.387 . S
C2787 C2789 1.390 . S
C2787 H2791 0.950 . S
H2788 C2784 0.950 . S
C2789 C2787 1.390 . S
C2789 C2790 1.387 . S
C2789 H2792 0.950 . S
C2790 C2789 1.387 . S
C2790 C2793 1.387 . S
H2791 C2787 0.950 . S
H2792 C2789 0.950 . S
C2793 C2784 1.390 . S
C2793 H2786 0.950 . S
C2793 C2790 1.387 . S
C2794 C2795 1.387 . S
C2794 H2798 0.950 . S
C2794 C2803 1.390 . S
C2795 C2794 1.387 . S
C2795 C2797 1.387 . S
H2796 C2803 0.950 . S
C2797 C2795 1.387 . S
C2797 C2799 1.390 . S
C2797 H2801 0.950 . S
H2798 C2794 0.950 . S
C2799 C2797 1.390 . S
C2799 C2800 1.387 . S
C2799 H2802 0.950 . S
C2800 C2799 1.387 . S
C2800 C2803 1.387 . S
H2801 C2797 0.950 . S
H2802 C2799 0.950 . S
C2803 C2794 1.390 . S
C2803 H2796 0.950 . S
C2803 C2800 1.387 . S
C2804 C2805 1.387 . S
C2804 H2808 0.950 . S
C2804 C2813 1.390 . S
C2805 C2804 1.387 . S
C2805 C2807 1.387 . S
H2806 C2813 0.950 . S
C2807 C2805 1.387 . S
C2807 C2809 1.390 . S
C2807 H2811 0.950 . S
H2808 C2804 0.950 . S
C2809 C2807 1.390 . S
C2809 C2810 1.387 . S
C2809 H2812 0.950 . S
C2810 C2809 1.387 . S
C2810 C2813 1.387 . S
H2811 C2807 0.950 . S
H2812 C2809 0.950 . S
C2813 C2804 1.390 . S
C2813 H2806 0.950 . S
C2813 C2810 1.387 . S
C2814 C2815 1.387 . S
C2814 H2818 0.950 . S
C2814 C2823 1.390 . S
C2815 C2814 1.387 . S
C2815 C2817 1.387 . S
H2816 C2823 0.950 . S
C2817 C2815 1.387 . S
C2817 C2819 1.390 . S
C2817 H2821 0.950 . S
H2818 C2814 0.950 . S
C2819 C2817 1.390 . S
C2819 C2820 1.387 . S
C2819 H2822 0.950 . S
C2820 C2819 1.387 . S
C2820 C2823 1.387 . S
H2821 C2817 0.950 . S
H2822 C2819 0.950 . S
C2823 C2814 1.390 . S
C2823 H2816 0.950 . S
C2823 C2820 1.387 . S
C2824 C2825 1.387 . S
C2824 H2828 0.950 . S
C2824 C2833 1.390 . S
C2825 C2824 1.387 . S
C2825 C2827 1.387 . S
H2826 C2833 0.950 . S
C2827 C2825 1.387 . S
C2827 C2829 1.390 . S
C2827 H2831 0.950 . S
H2828 C2824 0.950 . S
C2829 C2827 1.390 . S
C2829 C2830 1.387 . S
C2829 H2832 0.950 . S
C2830 C2829 1.387 . S
C2830 C2833 1.387 . S
H2831 C2827 0.950 . S
H2832 C2829 0.950 . S
C2833 C2824 1.390 . S
C2833 H2826 0.950 . S
C2833 C2830 1.387 . S
C2834 C2835 1.387 . S
C2834 H2838 0.950 . S
C2834 C2843 1.390 . S
C2835 C2834 1.387 . S
C2835 C2837 1.387 . S
H2836 C2843 0.950 . S
C2837 C2835 1.387 . S
C2837 C2839 1.390 . S
C2837 H2841 0.950 . S
H2838 C2834 0.950 . S
C2839 C2837 1.390 . S
C2839 C2840 1.387 . S
C2839 H2842 0.950 . S
C2840 C2839 1.387 . S
C2840 C2843 1.387 . S
H2841 C2837 0.950 . S
H2842 C2839 0.950 . S
C2843 C2834 1.390 . S
C2843 H2836 0.950 . S
C2843 C2840 1.387 . S
C2844 C2845 1.387 . S
C2844 H2848 0.950 . S
C2844 C2853 1.390 . S
C2845 C2844 1.387 . S
C2845 C2847 1.387 . S
H2846 C2853 0.950 . S
C2847 C2845 1.387 . S
C2847 C2849 1.390 . S
C2847 H2851 0.950 . S
H2848 C2844 0.950 . S
C2849 C2847 1.390 . S
C2849 C2850 1.387 . S
C2849 H2852 0.950 . S
C2850 C2849 1.387 . S
C2850 C2853 1.387 . S
H2851 C2847 0.950 . S
H2852 C2849 0.950 . S
C2853 C2844 1.390 . S
C2853 H2846 0.950 . S
C2853 C2850 1.387 . S
C2854 C2855 1.387 . S
C2854 H2858 0.950 . S
C2854 C2863 1.390 . S
C2855 C2854 1.387 . S
C2855 C2857 1.387 . S
H2856 C2863 0.950 . S
C2857 C2855 1.387 . S
C2857 C2859 1.390 . S
C2857 H2861 0.950 . S
H2858 C2854 0.950 . S
C2859 C2857 1.390 . S
C2859 C2860 1.387 . S
C2859 H2862 0.950 . S
C2860 C2859 1.387 . S
C2860 C2863 1.387 . S
H2861 C2857 0.950 . S
H2862 C2859 0.950 . S
C2863 C2854 1.390 . S
C2863 H2856 0.950 . S
C2863 C2860 1.387 . S
C2864 C2865 1.387 . S
C2864 H2868 0.950 . S
C2864 C2873 1.390 . S
C2865 C2864 1.387 . S
C2865 C2867 1.387 . S
H2866 C2873 0.950 . S
C2867 C2865 1.387 . S
C2867 C2869 1.390 . S
C2867 H2871 0.950 . S
H2868 C2864 0.950 . S
C2869 C2867 1.390 . S
C2869 C2870 1.387 . S
C2869 H2872 0.950 . S
C2870 C2869 1.387 . S
C2870 C2873 1.387 . S
H2871 C2867 0.950 . S
H2872 C2869 0.950 . S
C2873 C2864 1.390 . S
C2873 H2866 0.950 . S
C2873 C2870 1.387 . S
C2874 C2875 1.387 . S
C2874 H2878 0.950 . S
C2874 C2883 1.390 . S
C2875 C2874 1.387 . S
C2875 C2877 1.387 . S
H2876 C2883 0.950 . S
C2877 C2875 1.387 . S
C2877 C2879 1.390 . S
C2877 H2881 0.950 . S
H2878 C2874 0.950 . S
C2879 C2877 1.390 . S
C2879 C2880 1.387 . S
C2879 H2882 0.950 . S
C2880 C2879 1.387 . S
C2880 C2883 1.387 . S
H2881 C2877 0.950 . S
H2882 C2879 0.950 . S
C2883 C2874 1.390 . S
C2883 H2876 0.950 . S
C2883 C2880 1.387 . S
C2884 C2885 1.387 . S
C2884 H2888 0.950 . S
C2884 C2893 1.390 . S
C2885 C2884 1.387 . S
C2885 C2887 1.387 . S
H2886 C2893 0.950 . S
C2887 C2885 1.387 . S
C2887 C2889 1.390 . S
C2887 H2891 0.950 . S
H2888 C2884 0.950 . S
C2889 C2887 1.390 . S
C2889 C2890 1.387 . S
C2889 H2892 0.950 . S
C2890 C2889 1.387 . S
C2890 C2893 1.387 . S
H2891 C2887 0.950 . S
H2892 C2889 0.950 . S
C2893 C2884 1.390 . S
C2893 H2886 0.950 . S
C2893 C2890 1.387 . S
C2894 C2895 1.387 . S
C2894 H2898 0.950 . S
C2894 C2903 1.390 . S
C2895 C2894 1.387 . S
C2895 C2897 1.387 . S
H2896 C2903 0.950 . S
C2897 C2895 1.387 . S
C2897 C2899 1.390 . S
C2897 H2901 0.950 . S
H2898 C2894 0.950 . S
C2899 C2897 1.390 . S
C2899 C2900 1.387 . S
C2899 H2902 0.950 . S
C2900 C2899 1.387 . S
C2900 C2903 1.387 . S
H2901 C2897 0.950 . S
H2902 C2899 0.950 . S
C2903 C2894 1.390 . S
C2903 H2896 0.950 . S
C2903 C2900 1.387 . S
C2904 C2905 1.387 . S
C2904 H2908 0.950 . S
C2904 C2913 1.390 . S
C2905 C2904 1.387 . S
C2905 C2907 1.387 . S
H2906 C2913 0.950 . S
C2907 C2905 1.387 . S
C2907 C2909 1.390 . S
C2907 H2911 0.950 . S
H2908 C2904 0.950 . S
C2909 C2907 1.390 . S
C2909 C2910 1.387 . S
C2909 H2912 0.950 . S
C2910 C2909 1.387 . S
C2910 C2913 1.387 . S
H2911 C2907 0.950 . S
H2912 C2909 0.950 . S
C2913 C2904 1.390 . S
C2913 H2906 0.950 . S
C2913 C2910 1.387 . S
C2914 C2915 1.387 . S
C2914 H2918 0.950 . S
C2914 C2923 1.390 . S
C2915 C2914 1.387 . S
C2915 C2917 1.387 . S
H2916 C2923 0.950 . S
C2917 C2915 1.387 . S
C2917 C2919 1.390 . S
C2917 H2921 0.950 . S
H2918 C2914 0.950 . S
C2919 C2917 1.390 . S
C2919 C2920 1.387 . S
C2919 H2922 0.950 . S
C2920 C2919 1.387 . S
C2920 C2923 1.387 . S
H2921 C2917 0.950 . S
H2922 C2919 0.950 . S
C2923 C2914 1.390 . S
C2923 H2916 0.950 . S
C2923 C2920 1.387 . S
C2924 C2925 1.387 . S
C2924 H2928 0.950 . S
C2924 C2933 1.390 . S
C2925 C2924 1.387 . S
C2925 C2927 1.387 . S
H2926 C2933 0.950 . S
C2927 C2925 1.387 . S
C2927 C2929 1.390 . S
C2927 H2931 0.950 . S
H2928 C2924 0.950 . S
C2929 C2927 1.390 . S
C2929 C2930 1.387 . S
C2929 H2932 0.950 . S
C2930 C2929 1.387 . S
C2930 C2933 1.387 . S
H2931 C2927 0.950 . S
H2932 C2929 0.950 . S
C2933 C2924 1.390 . S
C2933 H2926 0.950 . S
C2933 C2930 1.387 . S
C2934 C2935 1.387 . S
C2934 H2938 0.950 . S
C2934 C2943 1.390 . S
C2935 C2934 1.387 . S
C2935 C2937 1.387 . S
H2936 C2943 0.950 . S
C2937 C2935 1.387 . S
C2937 C2939 1.390 . S
C2937 H2941 0.950 . S
H2938 C2934 0.950 . S
C2939 C2937 1.390 . S
C2939 C2940 1.387 . S
C2939 H2942 0.950 . S
C2940 C2939 1.387 . S
C2940 C2943 1.387 . S
H2941 C2937 0.950 . S
H2942 C2939 0.950 . S
C2943 C2934 1.390 . S
C2943 H2936 0.950 . S
C2943 C2940 1.387 . S
C2944 C2945 1.387 . S
C2944 H2948 0.950 . S
C2944 C2953 1.390 . S
C2945 C2944 1.387 . S
C2945 C2947 1.387 . S
H2946 C2953 0.950 . S
C2947 C2945 1.387 . S
C2947 C2949 1.390 . S
C2947 H2951 0.950 . S
H2948 C2944 0.950 . S
C2949 C2947 1.390 . S
C2949 C2950 1.387 . S
C2949 H2952 0.950 . S
C2950 C2949 1.387 . S
C2950 C2953 1.387 . S
H2951 C2947 0.950 . S
H2952 C2949 0.950 . S
C2953 C2944 1.390 . S
C2953 H2946 0.950 . S
C2953 C2950 1.387 . S
C2954 C2955 1.387 . S
C2954 H2958 0.950 . S
C2954 C2963 1.390 . S
C2955 C2954 1.387 . S
C2955 C2957 1.387 . S
H2956 C2963 0.950 . S
C2957 C2955 1.387 . S
C2957 C2959 1.390 . S
C2957 H2961 0.950 . S
H2958 C2954 0.950 . S
C2959 C2957 1.390 . S
C2959 C2960 1.387 . S
C2959 H2962 0.950 . S
C2960 C2959 1.387 . S
C2960 C2963 1.387 . S
H2961 C2957 0.950 . S
H2962 C2959 0.950 . S
C2963 C2954 1.390 . S
C2963 H2956 0.950 . S
C2963 C2960 1.387 . S
C2964 C2965 1.387 . S
C2964 H2968 0.950 . S
C2964 C2973 1.390 . S
C2965 C2964 1.387 . S
C2965 C2967 1.387 . S
H2966 C2973 0.950 . S
C2967 C2965 1.387 . S
C2967 C2969 1.390 . S
C2967 H2971 0.950 . S
H2968 C2964 0.950 . S
C2969 C2967 1.390 . S
C2969 C2970 1.387 . S
C2969 H2972 0.950 . S
C2970 C2969 1.387 . S
C2970 C2973 1.387 . S
H2971 C2967 0.950 . S
H2972 C2969 0.950 . S
C2973 C2964 1.390 . S
C2973 H2966 0.950 . S
C2973 C2970 1.387 . S
C2974 C2975 1.387 . S
C2974 H2978 0.950 . S
C2974 C2983 1.390 . S
C2975 C2974 1.387 . S
C2975 C2977 1.387 . S
H2976 C2983 0.950 . S
C2977 C2975 1.387 . S
C2977 C2979 1.390 . S
C2977 H2981 0.950 . S
H2978 C2974 0.950 . S
C2979 C2977 1.390 . S
C2979 C2980 1.387 . S
C2979 H2982 0.950 . S
C2980 C2979 1.387 . S
C2980 C2983 1.387 . S
H2981 C2977 0.950 . S
H2982 C2979 0.950 . S
C2983 C2974 1.390 . S
C2983 H2976 0.950 . S
C2983 C2980 1.387 . S
C2984 C2985 1.387 . S
C2984 H2988 0.950 . S
C2984 C2993 1.390 . S
C2985 C2984 1.387 . S
C2985 C2987 1.387 . S
H2986 C2993 0.950 . S
C2987 C2985 1.387 . S
C2987 C2989 1.390 . S
C2987 H2991 0.950 . S
H2988 C2984 0.950 . S
C2989 C2987 1.390 . S
C2989 C2990 1.387 . S
C2989 H2992 0.950 . S
C2990 C2989 1.387 . S
C2990 C2993 1.387 . S
H2991 C2987 0.950 . S
H2992 C2989 0.950 . S
C2993 C2984 1.390 . S
C2993 H2986 0.950 . S
C2993 C2990 1.387 . S
C2994 C2995 1.387 . S
C2994 H2998 0.950 . S
C2994 C3003 1.390 . S
C2995 C2994 1.387 . S
C2995 C2997 1.387 . S
H2996 C3003 0.950 . S
C2997 C2995 1.387 . S
C2997 C2999 1.390 . S
C2997 H3001 0.950 . S
H2998 C2994 0.950 . S
C2999 C2997 1.390 . S
C2999 C3000 1.387 . S
C2999 H3002 0.950 . S
C3000 C2999 1.387 . S
C3000 C3003 1.387 . S
H3001 C2997 0.950 . S
H3002 C2999 0.950 . S
C3003 C2994 1.390 . S
C3003 H2996 0.950 . S
C3003 C3000 1.387 . S
C3004 C3005 1.387 . S
C3004 H3008 0.950 . S
C3004 C3013 1.390 . S
C3005 C3004 1.387 . S
C3005 C3007 1.387 . S
H3006 C3013 0.950 . S
C3007 C3005 1.387 . S
C3007 C3009 1.390 . S
C3007 H3011 0.950 . S
H3008 C3004 0.950 . S
C3009 C3007 1.390 . S
C3009 C3010 1.387 . S
C3009 H3012 0.950 . S
C3010 C3009 1.387 . S
C3010 C3013 1.387 . S
H3011 C3007 0.950 . S
H3012 C3009 0.950 . S
C3013 C3004 1.390 . S
C3013 H3006 0.950 . S
C3013 C3010 1.387 . S
C3014 C3015 1.387 . S
C3014 H3018 0.950 . S
C3014 C3023 1.390 . S
C3015 C3014 1.387 . S
C3015 C3017 1.387 . S
H3016 C3023 0.950 . S
C3017 C3015 1.387 . S
C3017 C3019 1.390 . S
C3017 H3021 0.950 . S
H3018 C3014 0.950 . S
C3019 C3017 1.390 . S
C3019 C3020 1.387 . S
C3019 H3022 0.950 . S
C3020 C3019 1.387 . S
C3020 C3023 1.387 . S
H3021 C3017 0.950 . S
H3022 C3019 0.950 . S
C3023 C3014 1.390 . S
C3023 H3016 0.950 . S
C3023 C3020 1.387 . S
C3024 C3025 1.387 . S
C3024 H3028 0.950 . S
C3024 C3033 1.390 . S
C3025 C3024 1.387 . S
C3025 C3027 1.387 . S
H3026 C3033 0.950 . S
C3027 C3025 1.387 . S
C3027 C3029 1.390 . S
C3027 H3031 0.950 . S
H3028 C3024 0.950 . S
C3029 C3027 1.390 . S
C3029 C3030 1.387 . S
C3029 H3032 0.950 . S
C3030 C3029 1.387 . S
C3030 C3033 1.387 . S
H3031 C3027 0.950 . S
H3032 C3029 0.950 . S
C3033 C3024 1.390 . S
C3033 H3026 0.950 . S
C3033 C3030 1.387 . S
C3034 C3035 1.387 . S
C3034 H3038 0.950 . S
C3034 C3043 1.390 . S
C3035 C3034 1.387 . S
C3035 C3037 1.387 . S
H3036 C3043 0.950 . S
C3037 C3035 1.387 . S
C3037 C3039 1.390 . S
C3037 H3041 0.950 . S
H3038 C3034 0.950 . S
C3039 C3037 1.390 . S
C3039 C3040 1.387 . S
C3039 H3042 0.950 . S
C3040 C3039 1.387 . S
C3040 C3043 1.387 . S
H3041 C3037 0.950 . S
H3042 C3039 0.950 . S
C3043 C3034 1.390 . S
C3043 H3036 0.950 . S
C3043 C3040 1.387 . S
C3044 C3045 1.387 . S
C3044 H3048 0.950 . S
C3044 C3053 1.390 . S
C3045 C3044 1.387 . S
C3045 C3047 1.387 . S
H3046 C3053 0.950 . S
C3047 C3045 1.387 . S
C3047 C3049 1.390 . S
C3047 H3051 0.950 . S
H3048 C3044 0.950 . S
C3049 C3047 1.390 . S
C3049 C3050 1.387 . S
C3049 H3052 0.950 . S
C3050 C3049 1.387 . S
C3050 C3053 1.387 . S
H3051 C3047 0.950 . S
H3052 C3049 0.950 . S
C3053 C3044 1.390 . S
C3053 H3046 0.950 . S
C3053 C3050 1.387 . S
C3054 C3055 1.387 . S
C3054 H3058 0.950 . S
C3054 C3063 1.390 . S
C3055 C3054 1.387 . S
C3055 C3057 1.387 . S
H3056 C3063 0.950 . S
C3057 C3055 1.387 . S
C3057 C3059 1.390 . S
C3057 H3061 0.950 . S
H3058 C3054 0.950 . S
C3059 C3057 1.390 . S
C3059 C3060 1.387 . S
C3059 H3062 0.950 . S
C3060 C3059 1.387 . S
C3060 C3063 1.387 . S
H3061 C3057 0.950 . S
H3062 C3059 0.950 . S
C3063 C3054 1.390 . S
C3063 H3056 0.950 . S
C3063 C3060 1.387 . S
C3064 C3065 1.387 . S
C3064 H3068 0.950 . S
C3064 C3073 1.390 . S
C3065 C3064 1.387 . S
C3065 C3067 1.387 . S
H3066 C3073 0.950 . S
C3067 C3065 1.387 . S
C3067 C3069 1.390 . S
C3067 H3071 0.950 . S
H3068 C3064 0.950 . S
C3069 C3067 1.390 . S
C3069 C3070 1.387 . S
C3069 H3072 0.950 . S
C3070 C3069 1.387 . S
C3070 C3073 1.387 . S
H3071 C3067 0.950 . S
H3072 C3069 0.950 . S
C3073 C3064 1.390 . S
C3073 H3066 0.950 . S
C3073 C3070 1.387 . S
C3074 C3075 1.387 . S
C3074 H3078 0.950 . S
C3074 C3083 1.390 . S
C3075 C3074 1.387 . S
C3075 C3077 1.387 . S
H3076 C3083 0.950 . S
C3077 C3075 1.387 . S
C3077 C3079 1.390 . S
C3077 H3081 0.950 . S
H3078 C3074 0.950 . S
C3079 C3077 1.390 . S
C3079 C3080 1.387 . S
C3079 H3082 0.950 . S
C3080 C3079 1.387 . S
C3080 C3083 1.387 . S
H3081 C3077 0.950 . S
H3082 C3079 0.950 . S
C3083 C3074 1.390 . S
C3083 H3076 0.950 . S
C3083 C3080 1.387 . S
C3084 C3085 1.387 . S
C3084 H3088 0.950 . S
C3084 C3093 1.390 . S
C3085 C3084 1.387 . S
C3085 C3087 1.387 . S
H3086 C3093 0.950 . S
C3087 C3085 1.387 . S
C3087 C3089 1.390 . S
C3087 H3091 0.950 . S
H3088 C3084 0.950 . S
C3089 C3087 1.390 . S
C3089 C3090 1.387 . S
C3089 H3092 0.950 . S
C3090 C3089 1.387 . S
C3090 C3093 1.387 . S
H3091 C3087 0.950 . S
H3092 C3089 0.950 . S
C3093 C3084 1.390 . S
C3093 H3086 0.950 . S
C3093 C3090 1.387 . S
C3094 C3095 1.387 . S
C3094 H3098 0.950 . S
C3094 C3103 1.390 . S
C3095 C3094 1.387 . S
C3095 C3097 1.387 . S
H3096 C3103 0.950 . S
C3097 C3095 1.387 . S
C3097 C3099 1.390 . S
C3097 H3101 0.950 . S
H3098 C3094 0.950 . S
C3099 C3097 1.390 . S
C3099 C3100 1.387 . S
C3099 H3102 0.950 . S
C3100 C3099 1.387 . S
C3100 C3103 1.387 . S
H3101 C3097 0.950 . S
H3102 C3099 0.950 . S
C3103 C3094 1.390 . S
C3103 H3096 0.950 . S
C3103 C3100 1.387 . S
C3104 C3105 1.387 . S
C3104 H3108 0.950 . S
C3104 C3113 1.390 . S
C3105 C3104 1.387 . S
C3105 C3107 1.387 . S
H3106 C3113 0.950 . S
C3107 C3105 1.387 . S
C3107 C3109 1.390 . S
C3107 H3111 0.950 . S
H3108 C3104 0.950 . S
C3109 C3107 1.390 . S
C3109 C3110 1.387 . S
C3109 H3112 0.950 . S
C3110 C3109 1.387 . S
C3110 C3113 1.387 . S
H3111 C3107 0.950 . S
H3112 C3109 0.950 . S
C3113 C3104 1.390 . S
C3113 H3106 0.950 . S
C3113 C3110 1.387 . S
C3114 C3115 1.387 . S
C3114 H3118 0.950 . S
C3114 C3123 1.390 . S
C3115 C3114 1.387 . S
C3115 C3117 1.387 . S
H3116 C3123 0.950 . S
C3117 C3115 1.387 . S
C3117 C3119 1.390 . S
C3117 H3121 0.950 . S
H3118 C3114 0.950 . S
C3119 C3117 1.390 . S
C3119 C3120 1.387 . S
C3119 H3122 0.950 . S
C3120 C3119 1.387 . S
C3120 C3123 1.387 . S
H3121 C3117 0.950 . S
H3122 C3119 0.950 . S
C3123 C3114 1.390 . S
C3123 H3116 0.950 . S
C3123 C3120 1.387 . S
C3124 C3125 1.387 . S
C3124 H3128 0.950 . S
C3124 C3133 1.390 . S
C3125 C3124 1.387 . S
C3125 C3127 1.387 . S
H3126 C3133 0.950 . S
C3127 C3125 1.387 . S
C3127 C3129 1.390 . S
C3127 H3131 0.950 . S
H3128 C3124 0.950 . S
C3129 C3127 1.390 . S
C3129 C3130 1.387 . S
C3129 H3132 0.950 . S
C3130 C3129 1.387 . S
C3130 C3133 1.387 . S
H3131 C3127 0.950 . S
H3132 C3129 0.950 . S
C3133 C3124 1.390 . S
C3133 H3126 0.950 . S
C3133 C3130 1.387 . S
C3134 C3135 1.387 . S
C3134 H3138 0.950 . S
C3134 C3143 1.390 . S
C3135 C3134 1.387 . S
C3135 C3137 1.387 . S
H3136 C3143 0.950 . S
C3137 C3135 1.387 . S
C3137 C3139 1.390 . S
C3137 H3141 0.950 . S
H3138 C3134 0.950 . S
C3139 C3137 1.390 . S
C3139 C3140 1.387 . S
C3139 H3142 0.950 . S
C3140 C3139 1.387 . S
C3140 C3143 1.387 . S
H3141 C3137 0.950 . S
H3142 C3139 0.950 . S
C3143 C3134 1.390 . S
C3143 H3136 0.950 . S
C3143 C3140 1.387 . S
C3144 C3145 1.387 . S
C3144 H3148 0.950 . S
C3144 C3153 1.390 . S
C3145 C3144 1.387 . S
C3145 C3147 1.387 . S
H3146 C3153 0.950 . S
C3147 C3145 1.387 . S
C3147 C3149 1.390 . S
C3147 H3151 0.950 . S
H3148 C3144 0.950 . S
C3149 C3147 1.390 . S
C3149 C3150 1.387 . S
C3149 H3152 0.950 . S
C3150 C3149 1.387 . S
C3150 C3153 1.387 . S
H3151 C3147 0.950 . S
H3152 C3149 0.950 . S
C3153 C3144 1.390 . S
C3153 H3146 0.950 . S
C3153 C3150 1.387 . S
C3154 C3155 1.387 . S
C3154 H3158 0.950 . S
C3154 C3163 1.390 . S
C3155 C3154 1.387 . S
C3155 C3157 1.387 . S
H3156 C3163 0.950 . S
C3157 C3155 1.387 . S
C3157 C3159 1.390 . S
C3157 H3161 0.950 . S
H3158 C3154 0.950 . S
C3159 C3157 1.390 . S
C3159 C3160 1.387 . S
C3159 H3162 0.950 . S
C3160 C3159 1.387 . S
C3160 C3163 1.387 . S
H3161 C3157 0.950 . S
H3162 C3159 0.950 . S
C3163 C3154 1.390 . S
C3163 H3156 0.950 . S
C3163 C3160 1.387 . S
C3164 C3165 1.387 . S
C3164 H3168 0.950 . S
C3164 C3173 1.390 . S
C3165 C3164 1.387 . S
C3165 C3167 1.387 . S
H3166 C3173 0.950 . S
C3167 C3165 1.387 . S
C3167 C3169 1.390 . S
C3167 H3171 0.950 . S
H3168 C3164 0.950 . S
C3169 C3167 1.390 . S
C3169 C3170 1.387 . S
C3169 H3172 0.950 . S
C3170 C3169 1.387 . S
C3170 C3173 1.387 . S
H3171 C3167 0.950 . S
H3172 C3169 0.950 . S
C3173 C3164 1.390 . S
C3173 H3166 0.950 . S
C3173 C3170 1.387 . S
C3174 C3175 1.387 . S
C3174 H3178 0.950 . S
C3174 C3183 1.390 . S
C3175 C3174 1.387 . S
C3175 C3177 1.387 . S
H3176 C3183 0.950 . S
C3177 C3175 1.387 . S
C3177 C3179 1.390 . S
C3177 H3181 0.950 . S
H3178 C3174 0.950 . S
C3179 C3177 1.390 . S
C3179 C3180 1.387 . S
C3179 H3182 0.950 . S
C3180 C3179 1.387 . S
C3180 C3183 1.387 . S
H3181 C3177 0.950 . S
H3182 C3179 0.950 . S
C3183 C3174 1.390 . S
C3183 H3176 0.950 . S
C3183 C3180 1.387 . S
C3184 C3185 1.387 . S
C3184 H3188 0.950 . S
C3184 C3193 1.390 . S
C3185 C3184 1.387 . S
C3185 C3187 1.387 . S
H3186 C3193 0.950 . S
C3187 C3185 1.387 . S
C3187 C3189 1.390 . S
C3187 H3191 0.950 . S
H3188 C3184 0.950 . S
C3189 C3187 1.390 . S
C3189 C3190 1.387 . S
C3189 H3192 0.950 . S
C3190 C3189 1.387 . S
C3190 C3193 1.387 . S
H3191 C3187 0.950 . S
H3192 C3189 0.950 . S
C3193 C3184 1.390 . S
C3193 H3186 0.950 . S
C3193 C3190 1.387 . S
C3194 C3195 1.387 . S
C3194 H3198 0.950 . S
C3194 C3203 1.390 . S
C3195 C3194 1.387 . S
C3195 C3197 1.387 . S
H3196 C3203 0.950 . S
C3197 C3195 1.387 . S
C3197 C3199 1.390 . S
C3197 H3201 0.950 . S
H3198 C3194 0.950 . S
C3199 C3197 1.390 . S
C3199 C3200 1.387 . S
C3199 H3202 0.950 . S
C3200 C3199 1.387 . S
C3200 C3203 1.387 . S
H3201 C3197 0.950 . S
H3202 C3199 0.950 . S
C3203 C3194 1.390 . S
C3203 H3196 0.950 . S
C3203 C3200 1.387 . S
C3204 C3205 1.387 . S
C3204 H3208 0.950 . S
C3204 C3213 1.390 . S
C3205 C3204 1.387 . S
C3205 C3207 1.387 . S
H3206 C3213 0.950 . S
C3207 C3205 1.387 . S
C3207 C3209 1.390 . S
C3207 H3211 0.950 . S
H3208 C3204 0.950 . S
C3209 C3207 1.390 . S
C3209 C3210 1.387 . S
C3209 H3212 0.950 . S
C3210 C3209 1.387 . S
C3210 C3213 1.387 . S
H3211 C3207 0.950 . S
H3212 C3209 0.950 . S
C3213 C3204 1.390 . S
C3213 H3206 0.950 . S
C3213 C3210 1.387 . S
C3214 C3215 1.387 . S
C3214 H3218 0.950 . S
C3214 C3223 1.390 . S
C3215 C3214 1.387 . S
C3215 C3217 1.387 . S
H3216 C3223 0.950 . S
C3217 C3215 1.387 . S
C3217 C3219 1.390 . S
C3217 H3221 0.950 . S
H3218 C3214 0.950 . S
C3219 C3217 1.390 . S
C3219 C3220 1.387 . S
C3219 H3222 0.950 . S
C3220 C3219 1.387 . S
C3220 C3223 1.387 . S
H3221 C3217 0.950 . S
H3222 C3219 0.950 . S
C3223 C3214 1.390 . S
C3223 H3216 0.950 . S
C3223 C3220 1.387 . S
C3224 C3225 1.387 . S
C3224 H3228 0.950 . S
C3224 C3233 1.390 . S
C3225 C3224 1.387 . S
C3225 C3227 1.387 . S
H3226 C3233 0.950 . S
C3227 C3225 1.387 . S
C3227 C3229 1.390 . S
C3227 H3231 0.950 . S
H3228 C3224 0.950 . S
C3229 C3227 1.390 . S
C3229 C3230 1.387 . S
C3229 H3232 0.950 . S
C3230 C3229 1.387 . S
C3230 C3233 1.387 . S
H3231 C3227 0.950 . S
H3232 C3229 0.950 . S
C3233 C3224 1.390 . S
C3233 H3226 0.950 . S
C3233 C3230 1.387 . S
C3234 C3235 1.387 . S
C3234 H3238 0.950 . S
C3234 C3243 1.390 . S
C3235 C3234 1.387 . S
C3235 C3237 1.387 . S
H3236 C3243 0.950 . S
C3237 C3235 1.387 . S
C3237 C3239 1.390 . S
C3237 H3241 0.950 . S
H3238 C3234 0.950 . S
C3239 C3237 1.390 . S
C3239 C3240 1.387 . S
C3239 H3242 0.950 . S
C3240 C3239 1.387 . S
C3240 C3243 1.387 . S
H3241 C3237 0.950 . S
H3242 C3239 0.950 . S
C3243 C3234 1.390 . S
C3243 H3236 0.950 . S
C3243 C3240 1.387 . S
C3244 C3245 1.387 . S
C3244 H3248 0.950 . S
C3244 C3253 1.390 . S
C3245 C3244 1.387 . S
C3245 C3247 1.387 . S
H3246 C3253 0.950 . S
C3247 C3245 1.387 . S
C3247 C3249 1.390 . S
C3247 H3251 0.950 . S
H3248 C3244 0.950 . S
C3249 C3247 1.390 . S
C3249 C3250 1.387 . S
C3249 H3252 0.950 . S
C3250 C3249 1.387 . S
C3250 C3253 1.387 . S
H3251 C3247 0.950 . S
H3252 C3249 0.950 . S
C3253 C3244 1.390 . S
C3253 H3246 0.950 . S
C3253 C3250 1.387 . S
C3254 C3255 1.387 . S
C3254 H3258 0.950 . S
C3254 C3263 1.390 . S
C3255 C3254 1.387 . S
C3255 C3257 1.387 . S
H3256 C3263 0.950 . S
C3257 C3255 1.387 . S
C3257 C3259 1.390 . S
C3257 H3261 0.950 . S
H3258 C3254 0.950 . S
C3259 C3257 1.390 . S
C3259 C3260 1.387 . S
C3259 H3262 0.950 . S
C3260 C3259 1.387 . S
C3260 C3263 1.387 . S
H3261 C3257 0.950 . S
H3262 C3259 0.950 . S
C3263 C3254 1.390 . S
C3263 H3256 0.950 . S
C3263 C3260 1.387 . S
C1345 C8 1.622 . S
C1350 C960 1.623 . S
C1355 C918 1.622 . S
C1360 C22 1.623 . S
C1365 C932 1.623 . S
C1370 C36 1.624 . S
C1375 C50 1.623 . S
C1380 C946 1.622 . S
C1385 C1002 1.624 . S
C1390 C64 1.622 . S
C1395 C974 1.622 . S
C1400 C78 1.623 . S
C1405 C988 1.623 . S
C1410 C92 1.622 . S
C1415 C106 1.623 . S
C1420 C904 1.622 . S
C1425 C120 1.624 . S
C1430 C890 1.622 . S
C1435 C134 1.622 . S
C1440 C848 1.622 . S
C1445 C148 1.622 . S
C1450 C862 1.623 . S
C1455 C162 1.623 . S
C1460 C876 1.622 . S
C1465 C176 1.622 . S
C1470 C806 1.624 . S
C1475 C820 1.622 . S
C1480 C190 1.623 . S
C1485 C834 1.622 . S
C1490 C204 1.622 . S
C1495 C218 1.624 . S
C1500 C792 1.623 . S
C1505 C232 1.623 . S
C1510 C778 1.622 . S
C1515 C246 1.622 . S
C1520 C694 1.622 . S
C1525 C708 1.622 . S
C1530 C260 1.623 . S
C1535 C722 1.623 . S
C1540 C274 1.622 . S
C1545 C680 1.622 . S
C1550 C288 1.623 . S
C1555 C302 1.623 . S
C1560 C750 1.622 . S
C1565 C316 1.622 . S
C1570 C764 1.623 . S
C1575 C330 1.622 . S
C1580 C736 1.622 . S
C1585 C344 1.624 . S
C1590 C1296 1.622 . S
C1595 C358 1.624 . S
C1600 C1254 1.622 . S
C1605 C372 1.624 . S
C1610 C1268 1.623 . S
C1615 C386 1.623 . S
C1620 C1282 1.622 . S
C1625 C400 1.622 . S
C1630 C1338 1.623 . S
C1635 C414 1.623 . S
C1640 C1310 1.623 . S
C1645 C1324 1.623 . S
C1650 C428 1.622 . S
C1655 C442 1.623 . S
C1660 C1240 1.623 . S
C1665 C456 1.623 . S
C1670 C1226 1.622 . S
C1675 C1184 1.623 . S
C1680 C470 1.622 . S
C1685 C484 1.622 . S
C1690 C1198 1.624 . S
C1695 C498 1.622 . S
C1700 C1212 1.623 . S
C1705 C512 1.622 . S
C1710 C1142 1.624 . S
C1715 C526 1.624 . S
C1720 C1156 1.622 . S
C1725 C540 1.622 . S
C1730 C1170 1.623 . S
C1735 C1128 1.623 . S
C1740 C554 1.622 . S
C1745 C568 1.624 . S
C1750 C1114 1.623 . S
C1755 C582 1.623 . S
C1760 C1030 1.623 . S
C1765 C596 1.622 . S
C1770 C1044 1.622 . S
C1775 C1058 1.624 . S
C1780 C610 1.623 . S
C1785 C624 1.622 . S
C1790 C1016 1.624 . S
C1795 C1086 1.624 . S
C1800 C638 1.622 . S
C1805 C652 1.623 . S
C1810 C1100 1.622 . S
C1815 C666 1.622 . S
C1820 C1072 1.624 . S
C1825 C9 1.799 . S
C1830 C555 1.798 . S
C1835 C23 1.798 . S
C1840 C513 1.799 . S
C1845 C527 1.798 . S
C1850 C37 1.799 . S
C1855 C51 1.798 . S
C1860 C541 1.799 . S
C1865 C471 1.798 . S
C1870 C65 1.799 . S
C1875 C485 1.799 . S
C1880 C79 1.798 . S
C1885 C499 1.799 . S
C1890 C93 1.798 . S
C1895 C457 1.798 . S
C1900 C107 1.799 . S
C1905 C443 1.799 . S
C1910 C121 1.798 . S
C1915 C135 1.798 . S
C1920 C401 1.799 . S
C1925 C415 1.798 . S
C1930 C149 1.799 . S
C1935 C163 1.799 . S
C1940 C429 1.798 . S
C1945 C359 1.799 . S
C1950 C177 1.798 . S
C1955 C373 1.799 . S
C1960 C191 1.798 . S
C1965 C205 1.798 . S
C1970 C387 1.799 . S
C1975 C219 1.798 . S
C1980 C345 1.799 . S
C1985 C233 1.799 . S
C1990 C625 1.798 . S
C1995 C247 1.799 . S
C2000 C667 1.798 . S
C2005 C639 1.798 . S
C2010 C261 1.799 . S
C2015 C653 1.799 . S
C2020 C275 1.798 . S
C2025 C289 1.799 . S
C2030 C569 1.798 . S
C2035 C303 1.799 . S
C2040 C597 1.798 . S
C2045 C611 1.798 . S
C2050 C317 1.799 . S
C2055 C331 1.798 . S
C2060 C583 1.799 . S
C2065 C1227 1.798 . S
C2070 C681 1.799 . S
C2075 C1185 1.799 . S
C2080 C695 1.798 . S
C2085 C1199 1.799 . S
C2090 C709 1.798 . S
C2095 C723 1.799 . S
C2100 C1213 1.798 . S
C2105 C1143 1.798 . S
C2110 C737 1.799 . S
C2115 C1157 1.798 . S
C2120 C751 1.799 . S
C2125 C765 1.799 . S
C2130 C1171 1.798 . S
C2135 C779 1.798 . S
C2140 C1129 1.799 . S
C2145 C1115 1.799 . S
C2150 C793 1.798 . S
C2155 C807 1.798 . S
C2160 C1073 1.799 . S
C2165 C1087 1.799 . S
C2170 C821 1.798 . S
C2175 C1101 1.799 . S
C2180 C835 1.798 . S
C2185 C849 1.798 . S
C2190 C1031 1.799 . S
C2195 C863 1.798 . S
C2200 C1045 1.799 . S
C2205 C1059 1.798 . S
C2210 C877 1.799 . S
C2215 C891 1.799 . S
C2220 C1017 1.798 . S
C2225 C1297 1.799 . S
C2230 C905 1.798 . S
C2235 C1339 1.798 . S
C2240 C919 1.799 . S
C2245 C933 1.798 . S
C2250 C1311 1.799 . S
C2255 C1325 1.798 . S
C2260 C947 1.799 . S
C2265 C1241 1.799 . S
C2270 C961 1.798 . S
C2275 C1269 1.798 . S
C2280 C975 1.799 . S
C2285 C989 1.798 . S
C2290 C1283 1.799 . S
C2295 C1255 1.799 . S
C2300 C1003 1.798 . S
C2305 C7 1.313 . S
C2310 C399 1.315 . S
C2315 C413 1.315 . S
C2320 C21 1.313 . S
C2325 C35 1.313 . S
C2330 C427 1.315 . S
C2335 C441 1.316 . S
C2340 C49 1.312 . S
C2345 C63 1.316 . S
C2350 C343 1.312 . S
C2355 C77 1.315 . S
C2360 C357 1.313 . S
C2365 C91 1.315 . S
C2370 C371 1.313 . S
C2375 C385 1.312 . S
C2380 C105 1.316 . S
C2385 C539 1.313 . S
C2390 C119 1.315 . S
C2395 C133 1.313 . S
C2400 C553 1.315 . S
C2405 C147 1.315 . S
C2410 C511 1.313 . S
C2415 C161 1.314 . S
C2420 C525 1.314 . S
C2425 C175 1.313 . S
C2430 C483 1.315 . S
C2435 C189 1.314 . S
C2440 C497 1.314 . S
C2445 C203 1.314 . S
C2450 C455 1.314 . S
C2455 C217 1.315 . S
C2460 C469 1.313 . S
C2465 C231 1.316 . S
C2470 C637 1.312 . S
C2475 C245 1.312 . S
C2480 C609 1.316 . S
C2485 C623 1.313 . S
C2490 C259 1.315 . S
C2495 C273 1.314 . S
C2500 C581 1.314 . S
C2505 C595 1.314 . S
C2510 C287 1.314 . S
C2515 C301 1.312 . S
C2520 C567 1.316 . S
C2525 C315 1.315 . S
C2530 C665 1.313 . S
C2535 C651 1.312 . S
C2540 C329 1.316 . S
C2545 C1071 1.312 . S
C2550 C679 1.316 . S
C2555 C693 1.312 . S
C2560 C1085 1.316 . S
C2565 C1099 1.315 . S
C2570 C707 1.313 . S
C2575 C721 1.316 . S
C2580 C1113 1.312 . S
C2585 C1015 1.313 . S
C2590 C735 1.316 . S
C2595 C1029 1.312 . S
C2600 C749 1.316 . S
C2605 C1043 1.315 . S
C2610 C763 1.313 . S
C2615 C777 1.313 . S
C2620 C1057 1.315 . S
C2625 C791 1.315 . S
C2630 C1211 1.313 . S
C2635 C1225 1.315 . S
C2640 C805 1.313 . S
C2645 C1183 1.315 . S
C2650 C819 1.313 . S
C2655 C1197 1.313 . S
C2660 C833 1.315 . S
C2665 C847 1.313 . S
C2670 C1155 1.315 . S
C2675 C861 1.314 . S
C2680 C1169 1.314 . S
C2685 C1127 1.315 . S
C2690 C875 1.313 . S
C2695 C1141 1.313 . S
C2700 C889 1.315 . S
C2705 C1309 1.314 . S
C2710 C903 1.314 . S
C2715 C917 1.312 . S
C2720 C1281 1.316 . S
C2725 C1295 1.313 . S
C2730 C931 1.315 . S
C2735 C945 1.312 . S
C2740 C1253 1.316 . S
C2745 C959 1.314 . S
C2750 C1267 1.314 . S
C2755 C973 1.313 . S
C2760 C1239 1.315 . S
C2765 C1337 1.314 . S
C2770 C987 1.314 . S
C2775 C1001 1.313 . S
C2780 C1323 1.315 . S
C2785 C440 1.277 . S
C2790 C6 1.280 . S
C2795 C398 1.277 . S
C2800 C20 1.280 . S
C2805 C34 1.280 . S
C2810 C412 1.277 . S
C2815 C426 1.277 . S
C2820 C48 1.280 . S
C2825 C356 1.280 . S
C2830 C62 1.277 . S
C2835 C76 1.280 . S
C2840 C370 1.277 . S
C2845 C90 1.277 . S
C2850 C384 1.280 . S
C2855 C342 1.277 . S
C2860 C104 1.280 . S
C2865 C622 1.280 . S
C2870 C118 1.277 . S
C2875 C132 1.280 . S
C2880 C580 1.277 . S
C2885 C146 1.280 . S
C2890 C594 1.277 . S
C2895 C608 1.277 . S
C2900 C160 1.280 . S
C2905 C174 1.280 . S
C2910 C664 1.277 . S
C2915 C636 1.277 . S
C2920 C188 1.280 . S
C2925 C650 1.277 . S
C2930 C202 1.280 . S
C2935 C216 1.280 . S
C2940 C566 1.277 . S
C2945 C230 1.280 . S
C2950 C552 1.277 . S
C2955 C244 1.280 . S
C2960 C468 1.277 . S
C2965 C258 1.280 . S
C2970 C482 1.277 . S
C2975 C496 1.277 . S
C2980 C272 1.280 . S
C2985 C454 1.280 . S
C2990 C286 1.277 . S
C2995 C300 1.280 . S
C3000 C524 1.277 . S
C3005 C314 1.277 . S
C3010 C538 1.280 . S
C3015 C328 1.280 . S
C3020 C510 1.277 . S
C3025 C678 1.280 . S
C3030 C1112 1.277 . S
C3035 C692 1.280 . S
C3040 C1070 1.277 . S
C3045 C706 1.280 . S
C3050 C1084 1.277 . S
C3055 C1098 1.280 . S
C3060 C720 1.277 . S
C3065 C1028 1.277 . S
C3070 C734 1.280 . S
C3075 C1042 1.277 . S
C3080 C748 1.280 . S
C3085 C762 1.280 . S
C3090 C1056 1.277 . S
C3095 C1014 1.280 . S
C3100 C776 1.277 . S
C3105 C1294 1.277 . S
C3110 C790 1.280 . S
C3115 C1252 1.277 . S
C3120 C804 1.280 . S
C3125 C1266 1.280 . S
C3130 C818 1.277 . S
C3135 C1280 1.277 . S
C3140 C832 1.280 . S
C3145 C1336 1.280 . S
C3150 C846 1.277 . S
C3155 C1308 1.280 . S
C3160 C860 1.277 . S
C3165 C1322 1.280 . S
C3170 C874 1.277 . S
C3175 C1238 1.277 . S
C3180 C888 1.280 . S
C3185 C902 1.280 . S
C3190 C1224 1.277 . S
C3195 C1140 1.277 . S
C3200 C916 1.280 . S
C3205 C1154 1.280 . S
C3210 C930 1.277 . S
C3215 C1168 1.277 . S
C3220 C944 1.280 . S
C3225 C1126 1.277 . S
C3230 C958 1.280 . S
C3235 C1196 1.277 . S
C3240 C972 1.280 . S
C3245 C1210 1.280 . S
C3250 C986 1.277 . S
C3255 C1182 1.277 . S
C3260 C1000 1.280 . S
