# Generated by pormake.
# Topology uki, (4)-cn, num edge types: 1
# Building blocks:
#     Node 0, Type 0, BuildingBlock: MUDLON_clean_sbu_0, # of connection points: 4
#     Node 1, Type 0, BuildingBlock: MUDLON_clean_sbu_0, # of connection points: 4
#     Node 2, Type 0, BuildingBlock: MUDLON_clean_sbu_0, # of connection points: 4
#     Node 3, Type 0, BuildingBlock: MUDLON_clean_sbu_0, # of connection points: 4
#     Node 4, Type 0, BuildingBlock: MUDLON_clean_sbu_0, # of connection points: 4
#     Node 5, Type 0, BuildingBlock: MUDLON_clean_sbu_0, # of connection points: 4
#     Node 6, Type 0, BuildingBlock: MUDLON_clean_sbu_0, # of connection points: 4
#     Node 7, Type 0, BuildingBlock: MUDLON_clean_sbu_0, # of connection points: 4
#     Node 8, Type 0, BuildingBlock: MUDLON_clean_sbu_0, # of connection points: 4
#     Node 9, Type 0, BuildingBlock: MUDLON_clean_sbu_0, # of connection points: 4
#     Node 10, Type 0, BuildingBlock: MUDLON_clean_sbu_0, # of connection points: 4
#     Node 11, Type 0, BuildingBlock: MUDLON_clean_sbu_0, # of connection points: 4
#     Node 12, Type 0, BuildingBlock: MUDLON_clean_sbu_0, # of connection points: 4
#     Node 13, Type 0, BuildingBlock: MUDLON_clean_sbu_0, # of connection points: 4
#     Node 14, Type 0, BuildingBlock: MUDLON_clean_sbu_0, # of connection points: 4
#     Node 15, Type 0, BuildingBlock: MUDLON_clean_sbu_0, # of connection points: 4
#     Edge 16, Type (0, 0), BuildingBlock: CIFDUS_clean_linker_0, # of connection points: 2
#     Edge 17, Type (0, 0), BuildingBlock: CIFDUS_clean_linker_0, # of connection points: 2
#     Edge 18, Type (0, 0), BuildingBlock: CIFDUS_clean_linker_0, # of connection points: 2
#     Edge 19, Type (0, 0), BuildingBlock: CIFDUS_clean_linker_0, # of connection points: 2
#     Edge 20, Type (0, 0), BuildingBlock: CIFDUS_clean_linker_0, # of connection points: 2
#     Edge 21, Type (0, 0), BuildingBlock: CIFDUS_clean_linker_0, # of connection points: 2
#     Edge 22, Type (0, 0), BuildingBlock: CIFDUS_clean_linker_0, # of connection points: 2
#     Edge 23, Type (0, 0), BuildingBlock: CIFDUS_clean_linker_0, # of connection points: 2
#     Edge 24, Type (0, 0), BuildingBlock: CIFDUS_clean_linker_0, # of connection points: 2
#     Edge 25, Type (0, 0), BuildingBlock: CIFDUS_clean_linker_0, # of connection points: 2
#     Edge 26, Type (0, 0), BuildingBlock: CIFDUS_clean_linker_0, # of connection points: 2
#     Edge 27, Type (0, 0), BuildingBlock: CIFDUS_clean_linker_0, # of connection points: 2
#     Edge 28, Type (0, 0), BuildingBlock: CIFDUS_clean_linker_0, # of connection points: 2
#     Edge 29, Type (0, 0), BuildingBlock: CIFDUS_clean_linker_0, # of connection points: 2
#     Edge 30, Type (0, 0), BuildingBlock: CIFDUS_clean_linker_0, # of connection points: 2
#     Edge 31, Type (0, 0), BuildingBlock: CIFDUS_clean_linker_0, # of connection points: 2
#     Edge 32, Type (0, 0), BuildingBlock: CIFDUS_clean_linker_0, # of connection points: 2
#     Edge 33, Type (0, 0), BuildingBlock: CIFDUS_clean_linker_0, # of connection points: 2
#     Edge 34, Type (0, 0), BuildingBlock: CIFDUS_clean_linker_0, # of connection points: 2
#     Edge 35, Type (0, 0), BuildingBlock: CIFDUS_clean_linker_0, # of connection points: 2
#     Edge 36, Type (0, 0), BuildingBlock: CIFDUS_clean_linker_0, # of connection points: 2
#     Edge 37, Type (0, 0), BuildingBlock: CIFDUS_clean_linker_0, # of connection points: 2
#     Edge 38, Type (0, 0), BuildingBlock: CIFDUS_clean_linker_0, # of connection points: 2
#     Edge 39, Type (0, 0), BuildingBlock: CIFDUS_clean_linker_0, # of connection points: 2
#     Edge 40, Type (0, 0), BuildingBlock: CIFDUS_clean_linker_0, # of connection points: 2
#     Edge 41, Type (0, 0), BuildingBlock: CIFDUS_clean_linker_0, # of connection points: 2
#     Edge 42, Type (0, 0), BuildingBlock: CIFDUS_clean_linker_0, # of connection points: 2
#     Edge 43, Type (0, 0), BuildingBlock: CIFDUS_clean_linker_0, # of connection points: 2
#     Edge 44, Type (0, 0), BuildingBlock: CIFDUS_clean_linker_0, # of connection points: 2
#     Edge 45, Type (0, 0), BuildingBlock: CIFDUS_clean_linker_0, # of connection points: 2
#     Edge 46, Type (0, 0), BuildingBlock: CIFDUS_clean_linker_0, # of connection points: 2
#     Edge 47, Type (0, 0), BuildingBlock: CIFDUS_clean_linker_0, # of connection points: 2
# Relax obj value: 0.065
# Max RMSD: 0.231
# Mean RMSD: 0.231
data_MOF--net-uki--node1-MUDLON_clean_sbu_0--edge1-CIFDUS_clean_linker_0
_symmetry_space_group_name_H-M    P1
_symmetry_Int_Tables_number       1
_symmetry_cell_setting            triclinic
loop_
_symmetry_equiv_pos_as_xyz
'x, y, z'
_cell_length_a     28.76522
_cell_length_b     28.852885
_cell_length_c     64.365283
_cell_angle_alpha  89.855272
_cell_angle_beta   90.556687
_cell_angle_gamma 90.360796
loop_
_atom_site_label
_atom_site_type_symbol
_atom_site_fract_x
_atom_site_fract_y
_atom_site_fract_z
_atom_type_partial_charge
Mg0 Mg 0.10892 0.24091 0.30692 0.0
C1 C 1.00864 0.27017 0.3017 0.0
O2 O 1.00485 0.22673 0.29584 0.0
C3 C 0.18237 0.21359 0.33761 0.0
O4 O 0.18799 0.18253 0.32297 0.0
C5 C 0.13874 0.30037 0.27043 0.0
O6 O 0.09392 0.30879 0.26979 0.0
O7 O 0.15408 0.27062 0.28338 0.0
O8 O 0.04786 0.28507 0.30822 0.0
O9 O 0.08675 0.1698 0.30084 0.0
C10 C 0.06886 0.14845 0.31615 0.0
O11 O 0.06664 0.1699 0.3341 0.0
O12 O 0.14983 0.24298 0.33557 0.0
Mg13 Mg 0.23543 0.90871 0.71677 0.0
C14 C 0.27321 0.98087 0.74236 0.0
O15 O 0.25355 0.95042 0.75475 0.0
C16 C 0.24221 0.83608 0.68438 0.0
O17 O 0.2347 0.8117 0.70129 0.0
C18 C 0.26263 0.83066 0.7502 0.0
O19 O 0.22064 0.81257 0.74933 0.0
O20 O 0.27299 0.86516 0.73882 0.0
O21 O 0.27018 0.97468 0.72282 0.0
O22 O 0.16102 0.91769 0.72179 0.0
C23 C 0.14547 0.95873 0.72358 0.0
O24 O 0.17496 0.99364 0.72359 0.0
O25 O 0.2452 0.88 0.68586 0.0
Mg26 Mg 0.93369 0.80407 0.30647 0.0
C27 C 0.03588 0.77917 0.30289 0.0
O28 O 0.03983 0.82404 0.29989 0.0
C29 C 0.85231 0.78627 0.335 0.0
O30 O 0.83094 0.78131 0.317 0.0
C31 C 0.90778 0.74997 0.26789 0.0
O32 O 0.95281 0.7427 0.26835 0.0
O33 O 0.89038 0.7774 0.28114 0.0
O34 O 0.99621 0.76207 0.30708 0.0
O35 O 0.9528 0.877 0.30403 0.0
C36 C 0.96675 0.89749 0.28769 0.0
O37 O 0.96812 0.87448 0.27012 0.0
O38 O 0.89568 0.79524 0.33531 0.0
Mg39 Mg 0.79824 0.11174 0.71373 0.0
C40 C 0.76778 0.01636 0.72629 0.0
O41 O 0.80415 0.0225 0.7385 0.0
C42 C 0.82343 0.14632 0.67012 0.0
O43 O 0.85676 0.11563 0.67198 0.0
C44 C 0.74059 0.14438 0.75054 0.0
O45 O 0.73518 0.09965 0.75358 0.0
O46 O 0.76729 0.15833 0.73615 0.0
O47 O 0.75666 0.04832 0.71356 0.0
O48 O 0.87062 0.09541 0.72088 0.0
C49 C 0.88823 0.05845 0.7137 0.0
O50 O 0.86245 0.03126 0.7019 0.0
O51 O 0.79397 0.15013 0.68459 0.0
Mg52 Mg 0.10318 0.2929 0.95731 0.0
C53 C 1.00871 0.26666 0.97012 0.0
O54 O 0.02143 0.29767 0.984 0.0
C55 C 0.13458 0.30743 0.91283 0.0
O56 O 0.09559 0.33086 0.91196 0.0
C57 C 0.17997 0.24468 0.98126 0.0
O58 O 0.20374 0.25783 0.96492 0.0
O59 O 0.13798 0.25746 0.98283 0.0
O60 O 0.0364 0.25736 0.95543 0.0
O61 O 0.09261 0.36645 0.96308 0.0
C62 C 0.05489 0.3854 0.95717 0.0
O63 O 0.0228 0.36011 0.94788 0.0
O64 O 0.14543 0.28655 0.92958 0.0
Mg65 Mg 0.30748 0.93511 0.05295 0.0
C66 C 0.30175 0.02418 0.03141 0.0
O67 O 0.33567 1.00187 0.02237 0.0
C68 C 0.3024 0.86384 0.08552 0.0
O69 O 0.31661 0.84137 0.06905 0.0
C70 C 0.24587 0.89948 0.01774 0.0
O71 O 0.2392 0.94408 0.01507 0.0
O72 O 0.27524 0.88612 0.03137 0.0
O73 O 0.28016 1.00413 0.04614 0.0
O74 O 0.38241 0.94398 0.05056 0.0
C75 C 0.39691 0.97807 0.06139 0.0
O76 O 0.36696 0.99999 0.07305 0.0
O77 O 0.29438 0.90707 0.08385 0.0
Mg78 Mg 0.92498 0.74073 0.96348 0.0
C79 C 0.02338 0.76528 0.97527 0.0
O80 O 1.01523 0.73065 0.98805 0.0
C81 C 0.89116 0.72685 0.919 0.0
O82 O 0.92774 0.69986 0.91853 0.0
C83 C 0.90169 0.8015 1.00037 0.0
O84 O 0.94615 0.81142 0.999 0.0
O85 O 0.88415 0.77116 0.98825 0.0
O86 O 0.99166 0.77723 0.96244 0.0
O87 O 0.9363 0.66668 0.9677 0.0
C88 C 0.97307 0.6484 0.96066 0.0
O89 O 1.00373 0.67466 0.95117 0.0
O90 O 0.88294 0.74954 0.93544 0.0
Mg91 Mg 0.74533 0.10925 0.06013 0.0
C92 C 0.77144 1.00925 0.05457 0.0
O93 O 0.72667 1.00665 0.0505 0.0
C94 C 0.73415 0.14022 0.10535 0.0
O95 O 0.71038 0.10133 0.10685 0.0
C96 C 0.79452 0.13871 0.0206 0.0
O97 O 0.79962 0.09372 0.0186 0.0
O98 O 0.77045 0.15404 0.03553 0.0
O99 O 0.7888 0.04794 0.0602 0.0
O100 O 0.67323 0.08811 0.05609 0.0
C101 C 0.64038 0.11289 0.06286 0.0
O102 O 0.65034 0.15328 0.07123 0.0
O103 O 0.75311 0.15051 0.08818 0.0
Mg104 Mg 0.60172 0.74213 0.80854 0.0
C105 C 0.49575 0.75662 0.80872 0.0
O106 O 0.4947 0.71326 0.81496 0.0
C107 C 0.68253 0.73664 0.836 0.0
O108 O 0.69467 0.71559 0.81882 0.0
C109 C 0.6305 0.80053 0.77139 0.0
O110 O 0.58564 0.80865 0.77046 0.0
O111 O 0.64582 0.77155 0.78466 0.0
O112 O 0.53482 0.77694 0.80654 0.0
O113 O 0.59225 0.66789 0.80565 0.0
C114 C 0.56519 0.64806 0.79266 0.0
O115 O 0.5427 0.67319 0.77884 0.0
O116 O 0.64164 0.7531 0.83705 0.0
Mg117 Mg 0.75177 0.43727 0.21006 0.0
C118 C 0.77652 0.54026 0.21288 0.0
O119 O 0.73126 0.54405 0.21457 0.0
C120 C 0.74658 0.35145 0.1855 0.0
O121 O 0.7245 0.34086 0.20267 0.0
C122 C 0.8045 0.41268 0.24946 0.0
O123 O 0.81705 0.45638 0.24787 0.0
O124 O 0.77441 0.39656 0.23674 0.0
O125 O 0.79386 0.50053 0.20954 0.0
O126 O 0.67792 0.45259 0.20935 0.0
C127 C 0.65441 0.47144 0.22363 0.0
O128 O 0.67485 0.48244 0.24129 0.0
O129 O 0.7635 0.39211 0.18362 0.0
Mg130 Mg 0.42338 0.29768 0.80328 0.0
C131 C 0.52251 0.27689 0.79415 0.0
O132 O 0.51368 0.3102 0.78076 0.0
C133 C 0.33899 0.30548 0.82932 0.0
O134 O 0.32347 0.31815 0.8109 0.0
C135 C 0.38813 0.21249 0.78688 0.0
O136 O 0.40795 0.20325 0.80489 0.0
O137 O 0.38784 0.25432 0.78065 0.0
O138 O 0.49104 0.26495 0.80688 0.0
O139 O 0.4341 0.369 0.79357 0.0
C140 C 0.46467 0.39107 0.80404 0.0
O141 O 0.48529 0.3699 0.81968 0.0
O142 O 0.38173 0.29508 0.83135 0.0
Mg143 Mg 0.3032 0.61461 0.21481 0.0
C144 C 0.27732 0.51474 0.22384 0.0
O145 O 0.31843 0.51643 0.23287 0.0
C146 C 0.29616 0.69367 0.1839 0.0
O147 O 0.29016 0.71666 0.20125 0.0
C148 C 0.24352 0.64377 0.2509 0.0
O149 O 0.23755 0.5987 0.25225 0.0
O150 O 0.27091 0.65996 0.23726 0.0
O151 O 0.2625 0.55047 0.21427 0.0
O152 O 0.37456 0.59898 0.22359 0.0
C153 C 0.39744 0.57276 0.21164 0.0
O154 O 0.37732 0.55757 0.19452 0.0
O155 O 0.30218 0.64999 0.18477 0.0
Mg156 Mg 0.59078 0.7834 0.45713 0.0
C157 C 0.4875 0.75957 0.46172 0.0
O158 O 0.48379 0.80459 0.464 0.0
C159 C 0.67236 0.77934 0.42884 0.0
O160 O 0.69228 0.79326 0.44621 0.0
C161 C 0.61777 0.73126 0.49613 0.0
O162 O 0.57295 0.72226 0.49573 0.0
O163 O 0.63452 0.7588 0.48261 0.0
O164 O 0.52698 0.74244 0.45762 0.0
O165 O 0.57655 0.85728 0.45756 0.0
C166 C 0.55908 0.8806 0.47226 0.0
O167 O 0.54904 0.8599 0.48988 0.0
O168 O 0.62883 0.77126 0.42868 0.0
Mg169 Mg 0.78402 0.42904 0.55796 0.0
C170 C 0.75487 0.52923 0.55309 0.0
O171 O 0.79977 0.53409 0.55025 0.0
C172 C 0.80066 0.34852 0.58536 0.0
O173 O 0.82592 0.33941 0.56898 0.0
C174 C 0.73314 0.39968 0.51869 0.0
O175 O 0.72364 0.44414 0.51812 0.0
O176 O 0.76073 0.38463 0.53268 0.0
O177 O 0.7388 0.48944 0.55787 0.0
O178 O 0.85598 0.45144 0.55583 0.0
C179 C 0.87635 0.46303 0.53915 0.0
O180 O 0.85381 0.45983 0.52135 0.0
O181 O 0.7779 0.3862 0.58569 0.0
Mg182 Mg 0.42067 0.23298 0.46699 0.0
C183 C 0.52252 0.25741 0.47126 0.0
O184 O 0.52223 0.21685 0.48057 0.0
C185 C 0.34707 0.26336 0.43621 0.0
O186 O 0.34424 0.29695 0.44987 0.0
C187 C 0.40334 0.29513 0.50388 0.0
O188 O 0.44899 0.2947 0.50456 0.0
O189 O 0.38219 0.26992 0.49058 0.0
O190 O 0.48505 0.27212 0.46297 0.0
O191 O 0.4367 0.16217 0.47614 0.0
C192 C 0.45978 0.1382 0.46334 0.0
O193 O 0.47145 0.15709 0.44552 0.0
O194 O 0.37743 0.23198 0.43897 0.0
Mg195 Mg 0.22384 0.59464 0.55347 0.0
C196 C 0.23585 0.49477 0.54225 0.0
O197 O 0.19345 0.50242 0.53537 0.0
C198 C 0.23643 0.67151 0.5846 0.0
O199 O 0.23255 0.69576 0.56738 0.0
C200 C 0.28166 0.62375 0.51663 0.0
O201 O 0.28881 0.57886 0.51609 0.0
O202 O 0.25388 0.63989 0.53002 0.0
O203 O 0.25767 0.52738 0.55148 0.0
O204 O 0.14976 0.58257 0.54915 0.0
C205 C 0.12828 0.56755 0.56499 0.0
O206 O 0.15119 0.56366 0.58266 0.0
O207 O 0.23482 0.62747 0.58357 0.0
H208 H 0.11769 0.37195 0.24436 0.0
H209 H 0.2338 0.29832 0.27138 0.0
H210 H 0.2874 0.35628 0.25757 0.0
H211 H 0.30054 0.43192 0.24109 0.0
H212 H 0.18449 0.50648 0.21463 0.0
H213 H 0.13181 0.44387 0.2248 0.0
C214 C 0.15477 0.36814 0.24698 0.0
C215 C 0.17154 0.33105 0.25914 0.0
C216 C 0.18544 0.40202 0.23926 0.0
C217 C 0.21979 0.3266 0.26221 0.0
C218 C 0.25052 0.35987 0.25438 0.0
C219 C 0.2638 0.43429 0.23732 0.0
C220 C 0.24646 0.47416 0.22734 0.0
C221 C 0.23361 0.3984 0.24341 0.0
C222 C 0.19881 0.47633 0.22238 0.0
C223 C 0.16859 0.44058 0.22826 0.0
H224 H 0.4095 0.71785 0.80326 0.0
H225 H 0.48579 0.84624 0.79602 0.0
H226 H 0.41915 0.88088 0.77843 0.0
H227 H 0.34208 0.87308 0.76267 0.0
H228 H 0.265 0.74516 0.76913 0.0
H229 H 0.32906 0.71209 0.78962 0.0
C230 C 0.41133 0.75363 0.79812 0.0
C231 C 0.45285 0.77924 0.80085 0.0
C232 C 0.37295 0.77328 0.7877 0.0
C233 C 0.45449 0.82558 0.79406 0.0
C234 C 0.4164 0.84543 0.78392 0.0
C235 C 0.3391 0.83795 0.7686 0.0
C236 C 0.29907 0.81135 0.76411 0.0
C237 C 0.37596 0.81927 0.78023 0.0
C238 C 0.29551 0.76628 0.77227 0.0
C239 C 0.33218 0.74735 0.78394 0.0
H240 H 0.75114 0.62422 0.22814 0.0
H241 H 0.87121 0.5455 0.21 0.0
H242 H 0.92244 0.60648 0.22337 0.0
H243 H 0.93319 0.67801 0.24337 0.0
H244 H 0.81321 0.75482 0.26315 0.0
H245 H 0.76199 0.69899 0.24574 0.0
C246 C 0.7885 0.62065 0.22681 0.0
C247 C 0.80724 0.58007 0.21821 0.0
C248 C 0.81783 0.65541 0.23496 0.0
C249 C 0.85578 0.57617 0.21663 0.0
C250 C 0.88515 0.61102 0.22433 0.0
C251 C 0.89587 0.68303 0.24363 0.0
C252 C 0.87713 0.72042 0.25473 0.0
C253 C 0.86657 0.65019 0.23401 0.0
C254 C 0.82863 0.72627 0.25483 0.0
C255 C 0.79928 0.69425 0.24493 0.0
H256 H 0.60082 0.30173 0.77382 0.0
H257 H 0.54069 0.19038 0.8097 0.0
H258 H 0.60633 0.14065 0.80122 0.0
H259 H 0.67579 0.12614 0.78019 0.0
H260 H 0.735 0.2378 0.74407 0.0
H261 H 0.67507 0.29011 0.75631 0.0
C262 C 0.60237 0.26678 0.78003 0.0
C263 C 0.56561 0.24957 0.79212 0.0
C264 C 0.63992 0.23828 0.77493 0.0
C265 C 0.56846 0.20445 0.8003 0.0
C266 C 0.60588 0.1759 0.79536 0.0
C267 C 0.67607 0.1621 0.77525 0.0
C268 C 0.70949 0.17772 0.76095 0.0
C269 C 0.64108 0.19202 0.78217 0.0
C270 C 0.70954 0.22461 0.75491 0.0
C271 C 0.67513 0.25461 0.76185 0.0
H272 H 0.2221 0.07277 0.03913 0.0
H273 H 0.35089 0.0791 1.0053 0.0
H274 H 0.32649 0.15056 0.98848 0.0
H275 H 0.26623 0.20736 0.98088 0.0
H276 H 0.13618 0.20117 0.01366 0.0
H277 H 0.16372 0.13432 0.03355 0.0
C278 C 0.245 0.09016 0.02829 0.0
C279 C 0.28798 0.07022 0.0233 0.0
C280 C 0.2305 0.13128 0.01837 0.0
C281 C 0.31733 0.09327 1.00924 0.0
C282 C 0.30348 0.13426 0.9996 0.0
C283 C 0.24406 0.19185 0.99256 0.0
C284 C 0.19904 0.20903 0.99557 0.0
C285 C 0.25973 0.15297 1.00366 0.0
C286 C 0.17097 0.18858 0.01092 0.0
C287 C 0.1866 0.15016 0.02225 0.0
H288 H 0.17943 0.91652 0.98835 0.0
H289 H 0.23877 0.80642 0.02542 0.0
H290 H 0.17693 0.75389 0.01397 0.0
H291 H 0.10164 0.74168 0.99651 0.0
H292 H 0.04172 0.85175 0.95969 0.0
H293 H 0.10839 0.90164 0.96784 0.0
C294 C 0.17928 0.88084 0.99369 0.0
C295 C 0.21341 0.86569 1.00796 0.0
C296 C 0.14325 0.8509 0.98725 0.0
C297 C 0.21287 0.81917 0.01453 0.0
C298 C 0.17735 0.7891 1.00807 0.0
C299 C 0.10338 0.77643 0.99008 0.0
C300 C 0.06645 0.79318 0.97775 0.0
C301 C 0.14164 0.805 0.99493 0.0
C302 C 0.06957 0.83803 0.96929 0.0
C303 C 0.10762 0.86666 0.97401 0.0
H304 H 0.92759 0.87371 0.02501 0.0
H305 H 0.80727 0.79517 1.00473 0.0
H306 H 0.75634 0.85037 0.0218 0.0
H307 H 0.7458 0.92512 0.03917 0.0
H308 H 0.86614 1.00505 0.05829 0.0
H309 H 0.91717 0.94478 0.04516 0.0
C310 C 0.89026 0.86823 0.02455 0.0
C311 C 0.87131 0.83062 0.01336 0.0
C312 C 0.86112 0.90057 0.03406 0.0
C313 C 0.82284 0.82396 0.01309 0.0
C314 C 0.79364 0.85562 0.0228 0.0
C315 C 0.78318 0.92914 0.04074 0.0
C316 C 0.80206 0.96986 0.04949 0.0
C317 C 0.81237 0.89473 0.03282 0.0
C318 C 0.85061 0.97425 0.0515 0.0
C319 C 0.87986 0.93984 0.04394 0.0
H320 H 0.85476 0.11799 0.98949 0.0
H321 H 0.8013 0.23259 0.02489 0.0
H322 H 0.86044 0.28369 0.01042 0.0
H323 H 0.93321 0.29341 0.99144 0.0
H324 H 0.98739 0.17965 0.95594 0.0
H325 H 0.92177 0.13083 0.96652 0.0
C326 C 0.85549 0.15433 0.99376 0.0
C327 C 0.82412 0.17113 1.00858 0.0
C328 C 0.89003 0.18359 0.98553 0.0
C329 C 0.82526 0.21849 0.01371 0.0
C330 C 0.85923 0.2478 1.0055 0.0
C331 C 0.93028 0.25812 0.98577 0.0
C332 C 0.96539 0.23988 0.97322 0.0
C333 C 0.89274 0.23031 0.992 0.0
C334 C 0.96082 0.19441 0.96568 0.0
C335 C 0.92346 0.16642 0.97182 0.0
H336 H 0.61018 0.86975 0.74388 0.0
H337 H 0.72529 0.80081 0.77417 0.0
H338 H 0.77864 0.85978 0.76117 0.0
H339 H 0.79129 0.93536 0.74469 0.0
H340 H 0.67679 1.00495 0.71444 0.0
H341 H 0.62465 0.94105 0.72378 0.0
C342 C 0.64704 0.86717 0.74736 0.0
C343 C 0.6635 0.83124 0.76027 0.0
C344 C 0.67761 0.90158 0.74003 0.0
C345 C 0.71149 0.82823 0.76442 0.0
C346 C 0.74209 0.86208 0.75707 0.0
C347 C 0.75502 0.93631 0.73994 0.0
C348 C 0.73776 0.97511 0.72917 0.0
C349 C 0.7253 0.89965 0.74544 0.0
C350 C 0.69089 0.97553 0.72281 0.0
C351 C 0.66102 0.93909 0.72822 0.0
H352 H 0.92191 0.24958 0.28713 0.0
H353 H 1.00881 0.36441 0.30654 0.0
H354 H 0.94993 0.41894 0.29438 0.0
H355 H 0.87831 0.43398 0.27452 0.0
H356 H 0.79276 0.31903 0.25405 0.0
H357 H 0.84626 0.26474 0.27064 0.0
C358 C 0.92775 0.28652 0.28899 0.0
C359 C 0.97006 0.30282 0.29748 0.0
C360 C 0.89408 0.31774 0.28165 0.0
C361 C 0.97675 0.35082 0.29994 0.0
C362 C 0.94312 0.38209 0.29293 0.0
C363 C 0.87087 0.3971 0.27398 0.0
C364 C 0.83185 0.38066 0.26278 0.0
C365 C 0.90231 0.36595 0.28318 0.0
C366 C 0.82267 0.33273 0.2624 0.0
C367 C 0.85339 0.30158 0.27182 0.0
H368 H 0.28551 0.06913 0.72723 0.0
H369 H 0.32038 0.97869 0.77851 0.0
H370 H 0.36022 0.04198 0.79623 0.0
H371 H 0.38213 0.12288 0.79812 0.0
H372 H 0.34596 0.2165 0.74824 0.0
H373 H 0.30954 0.15223 0.72902 0.0
C374 C 0.30231 0.06344 0.74217 0.0
C375 C 0.29993 0.01946 0.75162 0.0
C376 C 0.32449 0.10051 0.75259 0.0
C377 C 0.3214 1.01239 0.77104 0.0
C378 C 0.34422 0.04851 0.78119 0.0
C379 C 0.36645 0.12946 0.78301 0.0
C380 C 0.36664 0.17446 0.77467 0.0
C381 C 0.34538 0.09275 0.77227 0.0
C382 C 0.34613 0.18214 0.75505 0.0
C383 C 0.32536 0.1454 0.74405 0.0
H384 H 0.11941 0.80316 0.28651 0.0
H385 H 0.04039 0.68528 0.30831 0.0
H386 H 0.10055 0.63307 0.29599 0.0
H387 H 0.17147 0.62055 0.27598 0.0
H388 H 0.24852 0.73832 0.25272 0.0
H389 H 0.19343 0.79085 0.26885 0.0
C390 C 0.11561 0.7661 0.28886 0.0
C391 C 0.07522 0.74819 0.29816 0.0
C392 C 0.14983 0.73619 0.28132 0.0
C393 C 0.07097 0.70003 0.30108 0.0
C394 C 0.10532 0.67011 0.29399 0.0
C395 C 0.17664 0.65771 0.27467 0.0
C396 C 0.21386 0.67542 0.26298 0.0
C397 C 0.14429 0.68774 0.28361 0.0
C398 C 0.22001 0.7237 0.2615 0.0
C399 C 0.18846 0.7538 0.27069 0.0
H400 H 0.77773 0.61355 0.53705 0.0
H401 H 0.66003 0.53072 0.55612 0.0
H402 H 0.60706 0.58912 0.5422 0.0
H403 H 0.59427 0.65935 0.52142 0.0
H404 H 0.71206 0.74021 0.50087 0.0
H405 H 0.76479 0.68716 0.51881 0.0
C406 C 0.7405 0.6085 0.53846 0.0
C407 C 0.72294 0.56751 0.54746 0.0
C408 C 0.7102 0.64175 0.53002 0.0
C409 C 0.67456 0.56175 0.54917 0.0
C410 C 0.6442 0.5951 0.54116 0.0
C411 C 0.63143 0.66586 0.52111 0.0
C412 C 0.64915 0.70352 0.50962 0.0
C413 C 0.66164 0.63461 0.53106 0.0
C414 C 0.69744 0.71137 0.50947 0.0
C415 C 0.72766 0.68094 0.51968 0.0
H416 H 0.66236 0.41931 0.49171 0.0
H417 H 0.73951 0.30518 0.51812 0.0
H418 H 0.68349 0.25036 0.50336 0.0
H419 H 0.60752 0.23559 0.48703 0.0
H420 H 0.5289 0.34971 0.46158 0.0
H421 H 0.59089 0.40358 0.47165 0.0
C422 C 0.66746 0.38241 0.49393 0.0
C423 C 0.70474 0.36651 0.50631 0.0
C424 C 0.63455 0.35103 0.48575 0.0
C425 C 0.71093 0.3185 0.50884 0.0
C426 C 0.67878 0.28706 0.50047 0.0
C427 C 0.6042 0.27215 0.48339 0.0
C428 C 0.56326 0.28863 0.47386 0.0
C429 C 0.63961 0.30305 0.48954 0.0
C430 C 0.55986 0.33606 0.46902 0.0
C431 C 0.59525 0.36696 0.47486 0.0
H432 H 0.32623 0.4708 0.5498 0.0
H433 H 0.19794 0.41974 0.5227 0.0
H434 H 0.23766 0.35114 0.51015 0.0
H435 H 0.30988 0.30908 0.50408 0.0
H436 H 0.43868 0.3603 0.53056 0.0
H437 H 0.39755 0.42484 0.54632 0.0
C438 C 0.30683 0.44439 0.54138 0.0
C439 C 0.25927 0.45077 0.53701 0.0
C440 C 0.33001 0.40504 0.53398 0.0
C441 C 0.23466 0.41603 0.52616 0.0
C442 C 0.25735 0.37671 0.51893 0.0
C443 C 0.32892 0.33396 0.51354 0.0
C444 C 0.37739 0.33003 0.51593 0.0
C445 C 0.30519 0.37138 0.52233 0.0
C446 C 0.40139 0.36253 0.52835 0.0
C447 C 0.37792 0.39962 0.53732 0.0
H448 H 0.40485 0.78348 0.47879 0.0
H449 H 0.48211 0.66561 0.45704 0.0
H450 H 0.42231 0.61331 0.47028 0.0
H451 H 0.35234 0.60072 0.49099 0.0
H452 H 0.27684 0.71833 0.51419 0.0
H453 H 0.33145 0.77097 0.49721 0.0
C454 C 0.40831 0.74639 0.47665 0.0
C455 C 0.44815 0.72853 0.46708 0.0
C456 C 0.37425 0.7164 0.4847 0.0
C457 C 0.45198 0.68034 0.46445 0.0
C458 C 0.41782 0.65035 0.47207 0.0
C459 C 0.34738 0.63785 0.49212 0.0
C460 C 0.31075 0.65549 0.50402 0.0
C461 C 0.37945 0.66794 0.48269 0.0
C462 C 0.30487 0.70376 0.50523 0.0
C463 C 0.33617 0.73392 0.49557 0.0
H464 H 0.3391 0.19595 0.40668 0.0
H465 H 0.27934 0.32554 0.42606 0.0
H466 H 0.22251 0.3211 0.39775 0.0
H467 H 0.18954 0.28055 0.3674 0.0
H468 H 0.2497 0.15125 0.3479 0.0
H469 H 0.30617 0.15542 0.37635 0.0
C470 C 0.31376 0.22332 0.40469 0.0
C471 C 0.31365 0.26103 0.41851 0.0
C472 C 0.28096 0.22053 0.38837 0.0
C473 C 0.28038 0.29609 0.41568 0.0
C474 C 0.24773 0.29357 0.39949 0.0
C475 C 0.21484 0.25316 0.36943 0.0
C476 C 0.21524 0.21563 0.35551 0.0
C477 C 0.24759 0.25591 0.38577 0.0
C478 C 0.24851 0.18059 0.35834 0.0
C479 C 0.28094 0.18294 0.37461 0.0
H480 H 0.24414 0.76431 0.59168 0.0
H481 H 0.23738 0.63234 0.62333 0.0
H482 H 0.24007 0.67171 0.65685 0.0
H483 H 0.24171 0.74342 0.67715 0.0
H484 H 0.24842 0.87558 0.6457 0.0
H485 H 0.24859 0.83618 0.6121 0.0
C486 C 0.24342 0.74409 0.60589 0.0
C487 C 0.24035 0.69537 0.60494 0.0
C488 C 0.24489 0.76697 0.62515 0.0
C489 C 0.23968 0.66982 0.62356 0.0
C490 C 0.24115 0.69232 0.64276 0.0
C491 C 0.24338 0.76371 0.66297 0.0
C492 C 0.24481 0.81246 0.66398 0.0
C493 C 0.24335 0.74086 0.64373 0.0
C494 C 0.24723 0.83806 0.64541 0.0
C495 C 0.24725 0.81554 0.62618 0.0
H496 H 0.76556 0.79195 0.4247 0.0
H497 H 0.64117 0.75853 0.38962 0.0
H498 H 0.68615 0.75638 0.35764 0.0
H499 H 0.76025 0.76657 0.33948 0.0
H500 H 0.88452 0.8002 0.37463 0.0
H501 H 0.84004 0.79951 0.40673 0.0
C502 C 0.74824 0.78401 0.41008 0.0
C503 C 0.69997 0.77563 0.40958 0.0
C504 C 0.77427 0.78297 0.39174 0.0
C505 C 0.67824 0.76519 0.39048 0.0
C506 C 0.70394 0.76402 0.37217 0.0
C507 C 0.77771 0.77359 0.35416 0.0
C508 C 0.82568 0.78364 0.35459 0.0
C509 C 0.75189 0.77326 0.37259 0.0
C510 C 0.84766 0.79244 0.3738 0.0
C511 C 0.82223 0.79211 0.39218 0.0
H512 H 0.7712 0.22432 0.6654 0.0
H513 H 0.87386 0.14125 0.63451 0.0
H514 H 0.87536 0.19619 0.60563 0.0
H515 H 0.84895 0.26842 0.58947 0.0
H516 H 0.74768 0.35281 0.6205 0.0
H517 H 0.74439 0.29676 0.64904 0.0
C518 C 0.79368 0.21803 0.65228 0.0
C519 C 0.82233 0.17858 0.65214 0.0
C520 C 0.79485 0.25014 0.63581 0.0
C521 C 0.85147 0.17126 0.63507 0.0
C522 C 0.85241 0.20272 0.61854 0.0
C523 C 0.82608 0.27464 0.60245 0.0
C524 C 0.79863 0.31487 0.60282 0.0
C525 C 0.82451 0.24241 0.61882 0.0
C526 C 0.76928 0.32226 0.61981 0.0
C527 C 0.76732 0.29015 0.63613 0.0
H528 H 0.2248 0.27866 0.91212 0.0
H529 H 0.11713 0.33832 0.87347 0.0
H530 H 0.17075 0.34275 0.84438 0.0
H531 H 0.24827 0.33087 0.83001 0.0
H532 H 0.35688 0.27295 0.86864 0.0
H533 H 0.30285 0.26686 0.89765 0.0
C534 C 0.21296 0.29236 0.8973 0.0
C535 C 0.16688 0.30802 0.895 0.0
C536 C 0.24422 0.29538 0.88065 0.0
C537 C 0.15233 0.32603 0.87571 0.0
C538 C 0.18301 0.32863 0.85905 0.0
C539 C 0.26024 0.31689 0.84476 0.0
C540 C 0.30665 0.3024 0.84711 0.0
C541 C 0.22907 0.31365 0.86137 0.0
C542 C 0.32142 0.28448 0.86639 0.0
C543 C 0.29049 0.28089 0.88298 0.0
H544 H 0.28155 0.78574 0.17694 0.0
H545 H 0.31284 0.6579 0.1454 0.0
H546 H 0.3165 0.69928 0.11233 0.0
H547 H 0.31245 0.77164 0.09247 0.0
H548 H 0.28112 0.89976 0.12371 0.0
H549 H 0.27569 0.85822 0.15681 0.0
C550 C 0.28909 0.76685 0.16284 0.0
C551 C 0.29706 0.7187 0.16372 0.0
C552 C 0.29117 0.79089 0.14382 0.0
C553 C 0.30661 0.69489 0.14524 0.0
C554 C 0.30875 0.71855 0.12629 0.0
C555 C 0.30434 0.79061 0.10649 0.0
C556 C 0.29737 0.83887 0.10558 0.0
C557 C 0.30134 0.76654 0.12543 0.0
C558 C 0.28667 0.86267 0.12393 0.0
C559 C 0.28363 0.83892 0.14288 0.0
H560 H 0.8048 0.76593 0.91735 0.0
H561 H 0.90278 0.68932 0.88062 0.0
H562 H 0.84714 0.68642 0.85184 0.0
H563 H 0.77038 0.70354 0.83739 0.0
H564 H 0.67104 0.77883 0.87386 0.0
H565 H 0.72757 0.78426 0.90247 0.0
C566 C 0.81412 0.7489 0.90299 0.0
C567 C 0.85802 0.72787 0.90119 0.0
C568 C 0.78165 0.74687 0.88651 0.0
C569 C 0.86932 0.70574 0.8825 0.0
C570 C 0.83747 0.70399 0.86601 0.0
C571 C 0.76094 0.72124 0.85157 0.0
C572 C 0.7164 0.74065 0.85346 0.0
C573 C 0.79346 0.72407 0.86791 0.0
C574 C 0.705 0.76348 0.87198 0.0
C575 C 0.73735 0.76662 0.88834 0.0
H576 H 0.77284 0.2268 0.10583 0.0
H577 H 0.6983 0.12898 0.14419 0.0
H578 H 0.69665 0.18535 0.17237 0.0
H579 H 0.71414 0.26292 0.18576 0.0
H580 H 0.78774 0.36148 0.14746 0.0
H581 H 0.79198 0.30416 0.11961 0.0
C582 C 0.75647 0.21764 0.1204 0.0
C583 C 0.73566 0.17362 0.12284 0.0
C584 C 0.75529 0.25041 0.13652 0.0
C585 C 0.71455 0.16252 0.14183 0.0
C586 C 0.71352 0.19479 0.15797 0.0
C587 C 0.73125 0.27196 0.17136 0.0
C588 C 0.75047 0.31658 0.16871 0.0
C589 C 0.73341 0.23894 0.15541 0.0
C590 C 0.77257 0.32748 0.14993 0.0
C591 C 0.77501 0.2947 0.13399 0.0
H592 H 0.97548 0.9506 0.32229 0.0
H593 H 1.00073 0.9522 0.2563 0.0
H594 H 0.03501 0.02977 0.25918 0.0
H595 H 0.05879 0.09695 0.28065 0.0
H596 H 0.03334 0.09377 0.34666 0.0
H597 H 0.99848 0.01703 0.3435 0.0
C598 C 0.98825 0.96788 0.30848 0.0
C599 C 0.98543 0.94548 0.28911 0.0
C600 C 1.0082 1.01223 0.31026 0.0
C601 C 1.00235 0.96856 0.27142 0.0
C602 C 0.02209 1.01292 0.27306 0.0
C603 C 0.04574 0.07939 0.29434 0.0
C604 C 0.04883 0.10121 0.31387 0.0
C605 C 0.02545 0.03502 0.29243 0.0
C606 C 0.03151 0.07797 0.33143 0.0
C607 C 1.01146 0.03399 0.32965 0.0
H608 H 0.92884 0.97436 0.70925 0.0
H609 H 0.95735 0.11481 0.72871 0.0
H610 H 0.03902 0.09543 0.73461 0.0
H611 H 0.10289 0.03973 0.73257 0.0
H612 H 0.07438 0.89884 0.71373 0.0
H613 H 0.99193 0.91715 0.70952 0.0
C614 C 0.95291 1.00072 0.71482 0.0
C615 C 0.93714 0.04611 0.71832 0.0
C616 C 0.99973 0.98923 0.71833 0.0
C617 C 0.9686 0.07967 0.72584 0.0
C618 C 1.01532 0.06862 0.72919 0.0
C619 C 0.07862 1.01288 0.72769 0.0
C620 C 0.09488 0.96806 0.7233 0.0
C621 C 0.03135 0.02367 0.72526 0.0
C622 C 0.06284 0.93361 0.71721 0.0
C623 C 1.01571 0.94412 0.71469 0.0
H624 H 0.97269 0.4299 0.96033 0.0
H625 H 0.12092 0.45339 0.95998 0.0
H626 H 0.10862 0.53715 0.96149 0.0
H627 H 0.05552 0.60369 0.96119 0.0
H628 H 0.90744 0.58011 0.96353 0.0
H629 H 0.91981 0.49628 0.96311 0.0
C630 C 1.00227 0.45341 0.96068 0.0
C631 C 0.04762 0.43565 0.95982 0.0
C632 C 0.99493 0.50139 0.96187 0.0
C633 C 0.08569 0.46632 0.96062 0.0
C634 C 0.07867 0.51417 0.96141 0.0
C635 C 0.026 0.58013 0.9617 0.0
C636 C 0.98063 0.59793 0.96217 0.0
C637 C 0.03343 0.53209 0.96176 0.0
C638 C 0.94269 0.56716 0.96317 0.0
C639 C 0.94974 0.51928 0.96284 0.0
H640 H 0.42953 0.0605 0.07519 0.0
H641 H 0.47211 0.93661 0.04335 0.0
H642 H 0.55119 0.96796 0.04045 0.0
H643 H 0.60825 0.03038 0.04748 0.0
H644 H 0.56386 0.15448 0.07882 0.0
H645 H 0.48523 0.12321 0.08122 0.0
C646 C 0.45608 0.04014 0.06768 0.0
C647 C 0.44503 0.99607 0.05966 0.0
C648 C 0.50107 0.05855 0.06588 0.0
C649 C 0.47977 0.97054 0.04972 0.0
C650 C 0.52494 0.98849 0.04805 0.0
C651 C 0.58132 0.0507 0.05474 0.0
C652 C 0.59208 0.09473 0.06301 0.0
C653 C 0.53599 0.03246 0.05611 0.0
C654 C 0.55669 0.12056 0.07232 0.0
C655 C 0.51167 0.10265 0.07377 0.0
H656 H 0.5379 0.43981 0.81929 0.0
H657 H 0.42271 0.44977 0.77609 0.0
H658 H 0.44531 0.52956 0.76771 0.0
H659 H 0.49623 0.59748 0.77379 0.0
H660 H 0.61104 0.58616 0.81723 0.0
H661 H 0.59031 0.50571 0.82418 0.0
C662 C 0.51765 0.45935 0.80803 0.0
C663 C 0.47843 0.43899 0.79847 0.0
C664 C 0.53088 0.50495 0.80326 0.0
C665 C 0.45296 0.46469 0.78374 0.0
C666 C 0.46588 0.51031 0.77893 0.0
C667 C 0.51701 0.57725 0.7846 0.0
C668 C 0.55501 0.59798 0.79503 0.0
C669 C 0.50461 0.53092 0.78872 0.0
C670 C 0.58148 0.57124 0.80904 0.0
C671 C 0.56962 0.5252 0.81308 0.0
H672 H 0.59848 0.52731 0.24664 0.0
H673 H 0.60012 0.44427 0.19093 0.0
H674 H 0.52111 0.46815 0.18248 0.0
H675 H 0.45227 0.51383 0.19028 0.0
H676 H 0.4498 0.59772 0.24568 0.0
H677 H 0.52838 0.57237 0.2548 0.0
C678 C 0.58142 0.51418 0.23274 0.0
C679 C 0.60533 0.48408 0.21944 0.0
C680 C 0.53592 0.52843 0.22781 0.0
C681 C 0.58271 0.46759 0.20143 0.0
C682 C 0.53747 0.48126 0.19654 0.0
C683 C 0.46883 0.52666 0.20436 0.0
C684 C 0.44517 0.55778 0.21722 0.0
C685 C 0.51391 0.51196 0.20951 0.0
C686 C 0.46723 0.57384 0.23545 0.0
C687 C 0.51217 0.5593 0.2407 0.0
H688 H 0.51549 0.08281 0.44067 0.0
H689 H 0.43878 0.08662 0.49792 0.0
H690 H 0.46422 1.00791 0.50625 0.0
H691 H 0.50705 0.93721 0.49679 0.0
H692 H 0.58314 0.93459 0.43929 0.0
H693 H 0.55936 1.01369 0.43168 0.0
C694 C 0.50424 0.06651 0.45498 0.0
C695 C 0.47506 0.09057 0.46858 0.0
C696 C 0.51902 0.02141 0.45967 0.0
C697 C 0.46114 0.06889 0.48712 0.0
C698 C 0.47571 0.02386 0.49191 0.0
C699 C 0.51871 0.95407 0.48268 0.0
C700 C 0.54676 0.92981 0.46863 0.0
C701 C 0.50456 0.9997 0.47825 0.0
C702 C 0.5614 0.95223 0.45037 0.0
C703 C 0.54778 0.99753 0.44596 0.0
H704 H 0.92746 0.48194 0.57376 0.0
H705 H 0.93192 0.48995 0.50684 0.0
H706 H 1.00957 0.52485 0.50885 0.0
H707 H 0.07666 0.5523 0.52975 0.0
H708 H 0.07111 0.54347 0.59666 0.0
H709 H 0.99324 0.51008 0.59447 0.0
C710 C 0.94535 0.49118 0.55957 0.0
C711 C 0.92388 0.48314 0.54017 0.0
C712 C 0.98976 0.51137 0.56085 0.0
C713 C 0.94763 0.49562 0.52198 0.0
C714 C 0.99202 0.51567 0.52312 0.0
C715 C 0.05823 0.54344 0.54384 0.0
C716 C 0.07975 0.55043 0.56334 0.0
C717 C 1.01344 0.52374 0.54249 0.0
C718 C 0.05548 0.53843 0.58145 0.0
C719 C 1.01093 0.51922 0.58023 0.0
loop_
_geom_bond_atom_site_label_1
_geom_bond_atom_site_label_2
_geom_bond_distance
_geom_bond_site_symmetry_2
_ccdc_geom_bond_type
Mg0 O7 2.141 . S
Mg0 O8 2.048 . S
Mg0 O9 2.048 . S
Mg0 O12 2.141 . S
C1 O2 1.321 . S
C1 O8 1.195 . S
O2 C1 1.321 . S
C3 O4 1.245 . S
C3 O12 1.289 . S
O4 C3 1.245 . S
C5 O6 1.245 . S
C5 O7 1.289 . S
O6 C5 1.245 . S
O7 Mg0 2.141 . S
O7 C5 1.289 . S
O8 Mg0 2.048 . S
O8 C1 1.195 . S
O9 Mg0 2.048 . S
O9 C10 1.195 . S
C10 O9 1.195 . S
C10 O11 1.313 . S
O11 C10 1.313 . S
O12 Mg0 2.141 . S
O12 C3 1.289 . S
Mg13 O20 2.141 . S
Mg13 O21 2.048 . S
Mg13 O22 2.048 . S
Mg13 O25 2.141 . S
C14 O15 1.313 . S
C14 O21 1.195 . S
O15 C14 1.313 . S
C16 O17 1.245 . S
C16 O25 1.289 . S
O17 C16 1.245 . S
C18 O19 1.245 . S
C18 O20 1.289 . S
O19 C18 1.245 . S
O20 Mg13 2.141 . S
O20 C18 1.289 . S
O21 Mg13 2.048 . S
O21 C14 1.195 . S
O22 Mg13 2.048 . S
O22 C23 1.195 . S
C23 O22 1.195 . S
C23 O24 1.313 . S
O24 C23 1.313 . S
O25 Mg13 2.141 . S
O25 C16 1.289 . S
Mg26 O33 2.141 . S
Mg26 O34 2.048 . S
Mg26 O35 2.048 . S
Mg26 O38 2.141 . S
C27 O28 1.321 . S
C27 O34 1.195 . S
O28 C27 1.321 . S
C29 O30 1.245 . S
C29 O38 1.289 . S
O30 C29 1.245 . S
C31 O32 1.245 . S
C31 O33 1.289 . S
O32 C31 1.245 . S
O33 Mg26 2.141 . S
O33 C31 1.289 . S
O34 Mg26 2.048 . S
O34 C27 1.195 . S
O35 Mg26 2.048 . S
O35 C36 1.195 . S
C36 O35 1.195 . S
C36 O37 1.313 . S
O37 C36 1.313 . S
O38 Mg26 2.141 . S
O38 C29 1.289 . S
Mg39 O46 2.141 . S
Mg39 O47 2.048 . S
Mg39 O48 2.048 . S
Mg39 O51 2.141 . S
C40 O41 1.313 . S
C40 O47 1.195 . S
O41 C40 1.313 . S
C42 O43 1.245 . S
C42 O51 1.289 . S
O43 C42 1.245 . S
C44 O45 1.245 . S
C44 O46 1.289 . S
O45 C44 1.245 . S
O46 Mg39 2.141 . S
O46 C44 1.289 . S
O47 Mg39 2.048 . S
O47 C40 1.195 . S
O48 Mg39 2.048 . S
O48 C49 1.195 . S
C49 O48 1.195 . S
C49 O50 1.313 . S
O50 C49 1.313 . S
O51 Mg39 2.141 . S
O51 C42 1.289 . S
Mg52 O59 2.141 . S
Mg52 O60 2.048 . S
Mg52 O61 2.048 . S
Mg52 O64 2.141 . S
C53 O54 1.321 . S
C53 O60 1.195 . S
O54 C53 1.321 . S
C55 O56 1.245 . S
C55 O64 1.289 . S
O56 C55 1.245 . S
C57 O58 1.245 . S
C57 O59 1.289 . S
O58 C57 1.245 . S
O59 Mg52 2.141 . S
O59 C57 1.289 . S
O60 Mg52 2.048 . S
O60 C53 1.195 . S
O61 Mg52 2.048 . S
O61 C62 1.195 . S
C62 O61 1.195 . S
C62 O63 1.313 . S
O63 C62 1.313 . S
O64 Mg52 2.141 . S
O64 C55 1.289 . S
Mg65 O72 2.141 . S
Mg65 O73 2.048 . S
Mg65 O74 2.048 . S
Mg65 O77 2.141 . S
C66 O67 1.313 . S
C66 O73 1.195 . S
O67 C66 1.313 . S
C68 O69 1.245 . S
C68 O77 1.289 . S
O69 C68 1.245 . S
C70 O71 1.245 . S
C70 O72 1.289 . S
O71 C70 1.245 . S
O72 Mg65 2.141 . S
O72 C70 1.289 . S
O73 Mg65 2.048 . S
O73 C66 1.195 . S
O74 Mg65 2.048 . S
O74 C75 1.195 . S
C75 O74 1.195 . S
C75 O76 1.313 . S
O76 C75 1.313 . S
O77 Mg65 2.141 . S
O77 C68 1.289 . S
Mg78 O85 2.141 . S
Mg78 O86 2.048 . S
Mg78 O87 2.048 . S
Mg78 O90 2.141 . S
C79 O80 1.321 . S
C79 O86 1.195 . S
O80 C79 1.321 . S
C81 O82 1.245 . S
C81 O90 1.289 . S
O82 C81 1.245 . S
C83 O84 1.245 . S
C83 O85 1.289 . S
O84 C83 1.245 . S
O85 Mg78 2.141 . S
O85 C83 1.289 . S
O86 Mg78 2.048 . S
O86 C79 1.195 . S
O87 Mg78 2.048 . S
O87 C88 1.195 . S
C88 O87 1.195 . S
C88 O89 1.313 . S
O89 C88 1.313 . S
O90 Mg78 2.141 . S
O90 C81 1.289 . S
Mg91 O98 2.141 . S
Mg91 O99 2.048 . S
Mg91 O100 2.048 . S
Mg91 O103 2.141 . S
C92 O93 1.313 . S
C92 O99 1.195 . S
O93 C92 1.313 . S
C94 O95 1.245 . S
C94 O103 1.289 . S
O95 C94 1.245 . S
C96 O97 1.245 . S
C96 O98 1.289 . S
O97 C96 1.245 . S
O98 Mg91 2.141 . S
O98 C96 1.289 . S
O99 Mg91 2.048 . S
O99 C92 1.195 . S
O100 Mg91 2.048 . S
O100 C101 1.195 . S
C101 O100 1.195 . S
C101 O102 1.313 . S
O102 C101 1.313 . S
O103 Mg91 2.141 . S
O103 C94 1.289 . S
Mg104 O111 2.141 . S
Mg104 O112 2.048 . S
Mg104 O113 2.048 . S
Mg104 O116 2.141 . S
C105 O106 1.313 . S
C105 O112 1.195 . S
O106 C105 1.313 . S
C107 O108 1.245 . S
C107 O116 1.289 . S
O108 C107 1.245 . S
C109 O110 1.245 . S
C109 O111 1.289 . S
O110 C109 1.245 . S
O111 Mg104 2.141 . S
O111 C109 1.289 . S
O112 Mg104 2.048 . S
O112 C105 1.195 . S
O113 Mg104 2.048 . S
O113 C114 1.195 . S
C114 O113 1.195 . S
C114 O115 1.313 . S
O115 C114 1.313 . S
O116 Mg104 2.141 . S
O116 C107 1.289 . S
Mg117 O124 2.141 . S
Mg117 O125 2.048 . S
Mg117 O126 2.048 . S
Mg117 O129 2.141 . S
C118 O119 1.313 . S
C118 O125 1.195 . S
O119 C118 1.313 . S
C120 O121 1.245 . S
C120 O129 1.289 . S
O121 C120 1.245 . S
C122 O123 1.245 . S
C122 O124 1.289 . S
O123 C122 1.245 . S
O124 Mg117 2.141 . S
O124 C122 1.289 . S
O125 Mg117 2.048 . S
O125 C118 1.195 . S
O126 Mg117 2.048 . S
O126 C127 1.195 . S
C127 O126 1.195 . S
C127 O128 1.313 . S
O128 C127 1.313 . S
O129 Mg117 2.141 . S
O129 C120 1.289 . S
Mg130 O137 2.141 . S
Mg130 O138 2.048 . S
Mg130 O139 2.048 . S
Mg130 O142 2.141 . S
C131 O132 1.313 . S
C131 O138 1.195 . S
O132 C131 1.313 . S
C133 O134 1.245 . S
C133 O142 1.289 . S
O134 C133 1.245 . S
C135 O136 1.245 . S
C135 O137 1.289 . S
O136 C135 1.245 . S
O137 Mg130 2.141 . S
O137 C135 1.289 . S
O138 Mg130 2.048 . S
O138 C131 1.195 . S
O139 Mg130 2.048 . S
O139 C140 1.195 . S
C140 O139 1.195 . S
C140 O141 1.313 . S
O141 C140 1.313 . S
O142 Mg130 2.141 . S
O142 C133 1.289 . S
Mg143 O150 2.141 . S
Mg143 O151 2.048 . S
Mg143 O152 2.048 . S
Mg143 O155 2.141 . S
C144 O145 1.313 . S
C144 O151 1.195 . S
O145 C144 1.313 . S
C146 O147 1.245 . S
C146 O155 1.289 . S
O147 C146 1.245 . S
C148 O149 1.245 . S
C148 O150 1.289 . S
O149 C148 1.245 . S
O150 Mg143 2.141 . S
O150 C148 1.289 . S
O151 Mg143 2.048 . S
O151 C144 1.195 . S
O152 Mg143 2.048 . S
O152 C153 1.195 . S
C153 O152 1.195 . S
C153 O154 1.313 . S
O154 C153 1.313 . S
O155 Mg143 2.141 . S
O155 C146 1.289 . S
Mg156 O163 2.141 . S
Mg156 O164 2.048 . S
Mg156 O165 2.048 . S
Mg156 O168 2.141 . S
C157 O158 1.313 . S
C157 O164 1.195 . S
O158 C157 1.313 . S
C159 O160 1.245 . S
C159 O168 1.289 . S
O160 C159 1.245 . S
C161 O162 1.245 . S
C161 O163 1.289 . S
O162 C161 1.245 . S
O163 Mg156 2.141 . S
O163 C161 1.289 . S
O164 Mg156 2.048 . S
O164 C157 1.195 . S
O165 Mg156 2.048 . S
O165 C166 1.195 . S
C166 O165 1.195 . S
C166 O167 1.313 . S
O167 C166 1.313 . S
O168 Mg156 2.141 . S
O168 C159 1.289 . S
Mg169 O176 2.141 . S
Mg169 O177 2.048 . S
Mg169 O178 2.048 . S
Mg169 O181 2.141 . S
C170 O171 1.313 . S
C170 O177 1.195 . S
O171 C170 1.313 . S
C172 O173 1.245 . S
C172 O181 1.289 . S
O173 C172 1.245 . S
C174 O175 1.245 . S
C174 O176 1.289 . S
O175 C174 1.245 . S
O176 Mg169 2.141 . S
O176 C174 1.289 . S
O177 Mg169 2.048 . S
O177 C170 1.195 . S
O178 Mg169 2.048 . S
O178 C179 1.195 . S
C179 O178 1.195 . S
C179 O180 1.313 . S
O180 C179 1.313 . S
O181 Mg169 2.141 . S
O181 C172 1.289 . S
Mg182 O189 2.141 . S
Mg182 O190 2.048 . S
Mg182 O191 2.048 . S
Mg182 O194 2.141 . S
C183 O184 1.313 . S
C183 O190 1.195 . S
O184 C183 1.313 . S
C185 O186 1.245 . S
C185 O194 1.289 . S
O186 C185 1.245 . S
C187 O188 1.245 . S
C187 O189 1.289 . S
O188 C187 1.245 . S
O189 Mg182 2.141 . S
O189 C187 1.289 . S
O190 Mg182 2.048 . S
O190 C183 1.195 . S
O191 Mg182 2.048 . S
O191 C192 1.195 . S
C192 O191 1.195 . S
C192 O193 1.313 . S
O193 C192 1.313 . S
O194 Mg182 2.141 . S
O194 C185 1.289 . S
Mg195 O202 2.141 . S
Mg195 O203 2.048 . S
Mg195 O204 2.048 . S
Mg195 O207 2.141 . S
C196 O197 1.313 . S
C196 O203 1.195 . S
O197 C196 1.313 . S
C198 O199 1.245 . S
C198 O207 1.289 . S
O199 C198 1.245 . S
C200 O201 1.245 . S
C200 O202 1.289 . S
O201 C200 1.245 . S
O202 Mg195 2.141 . S
O202 C200 1.289 . S
O203 Mg195 2.048 . S
O203 C196 1.195 . S
O204 Mg195 2.048 . S
O204 C205 1.195 . S
C205 O204 1.195 . S
C205 O206 1.313 . S
O206 C205 1.313 . S
O207 Mg195 2.141 . S
O207 C198 1.289 . S
H208 C214 0.930 . S
H209 C217 0.930 . S
H210 C218 0.930 . S
H211 C219 0.930 . S
H212 C222 0.930 . S
H213 C223 0.930 . S
C214 H208 0.930 . S
C214 C215 1.355 . S
C214 C216 1.415 . S
C215 C214 1.355 . S
C215 C217 1.419 . S
C216 C214 1.415 . S
C216 C221 1.425 . S
C216 C223 1.409 . S
C217 H209 0.930 . S
C217 C215 1.419 . S
C217 C218 1.362 . S
C218 H210 0.930 . S
C218 C217 1.362 . S
C218 C221 1.409 . S
C219 H211 0.930 . S
C219 C220 1.355 . S
C219 C221 1.415 . S
C220 C219 1.355 . S
C220 C222 1.419 . S
C221 C216 1.425 . S
C221 C218 1.409 . S
C221 C219 1.415 . S
C222 H212 0.930 . S
C222 C220 1.419 . S
C222 C223 1.362 . S
C223 H213 0.930 . S
C223 C216 1.409 . S
C223 C222 1.362 . S
H224 C230 0.930 . S
H225 C233 0.930 . S
H226 C234 0.930 . S
H227 C235 0.930 . S
H228 C238 0.930 . S
H229 C239 0.930 . S
C230 H224 0.930 . S
C230 C231 1.355 . S
C230 C232 1.415 . S
C231 C230 1.355 . S
C231 C233 1.419 . S
C232 C230 1.415 . S
C232 C237 1.425 . S
C232 C239 1.409 . S
C233 H225 0.930 . S
C233 C231 1.419 . S
C233 C234 1.362 . S
C234 H226 0.930 . S
C234 C233 1.362 . S
C234 C237 1.409 . S
C235 H227 0.930 . S
C235 C236 1.355 . S
C235 C237 1.415 . S
C236 C235 1.355 . S
C236 C238 1.419 . S
C237 C232 1.425 . S
C237 C234 1.409 . S
C237 C235 1.415 . S
C238 H228 0.930 . S
C238 C236 1.419 . S
C238 C239 1.362 . S
C239 H229 0.930 . S
C239 C232 1.409 . S
C239 C238 1.362 . S
H240 C246 0.930 . S
H241 C249 0.930 . S
H242 C250 0.930 . S
H243 C251 0.930 . S
H244 C254 0.930 . S
H245 C255 0.930 . S
C246 H240 0.930 . S
C246 C247 1.355 . S
C246 C248 1.415 . S
C247 C246 1.355 . S
C247 C249 1.419 . S
C248 C246 1.415 . S
C248 C253 1.425 . S
C248 C255 1.409 . S
C249 H241 0.930 . S
C249 C247 1.419 . S
C249 C250 1.362 . S
C250 H242 0.930 . S
C250 C249 1.362 . S
C250 C253 1.409 . S
C251 H243 0.930 . S
C251 C252 1.355 . S
C251 C253 1.415 . S
C252 C251 1.355 . S
C252 C254 1.419 . S
C253 C248 1.425 . S
C253 C250 1.409 . S
C253 C251 1.415 . S
C254 H244 0.930 . S
C254 C252 1.419 . S
C254 C255 1.362 . S
C255 H245 0.930 . S
C255 C248 1.409 . S
C255 C254 1.362 . S
H256 C262 0.930 . S
H257 C265 0.930 . S
H258 C266 0.930 . S
H259 C267 0.930 . S
H260 C270 0.930 . S
H261 C271 0.930 . S
C262 H256 0.930 . S
C262 C263 1.355 . S
C262 C264 1.415 . S
C263 C262 1.355 . S
C263 C265 1.419 . S
C264 C262 1.415 . S
C264 C269 1.425 . S
C264 C271 1.409 . S
C265 H257 0.930 . S
C265 C263 1.419 . S
C265 C266 1.362 . S
C266 H258 0.930 . S
C266 C265 1.362 . S
C266 C269 1.409 . S
C267 H259 0.930 . S
C267 C268 1.355 . S
C267 C269 1.415 . S
C268 C267 1.355 . S
C268 C270 1.419 . S
C269 C264 1.425 . S
C269 C266 1.409 . S
C269 C267 1.415 . S
C270 H260 0.930 . S
C270 C268 1.419 . S
C270 C271 1.362 . S
C271 H261 0.930 . S
C271 C264 1.409 . S
C271 C270 1.362 . S
H272 C278 0.930 . S
H273 C281 0.930 . S
H274 C282 0.930 . S
H275 C283 0.930 . S
H276 C286 0.930 . S
H277 C287 0.930 . S
C278 H272 0.930 . S
C278 C279 1.355 . S
C278 C280 1.415 1_554 S
C279 C278 1.355 . S
C279 C281 1.419 1_554 S
C280 C278 1.415 1_556 S
C280 C285 1.425 . S
C280 C287 1.409 1_556 S
C281 H273 0.930 . S
C281 C279 1.419 1_556 S
C281 C282 1.362 . S
C282 H274 0.930 . S
C282 C281 1.362 . S
C282 C285 1.409 . S
C283 H275 0.930 . S
C283 C284 1.355 . S
C283 C285 1.415 . S
C284 C283 1.355 . S
C284 C286 1.419 . S
C285 C280 1.425 . S
C285 C282 1.409 . S
C285 C283 1.415 . S
C286 H276 0.930 . S
C286 C284 1.419 . S
C286 C287 1.362 1_556 S
C287 H277 0.930 . S
C287 C280 1.409 1_554 S
C287 C286 1.362 1_554 S
H288 C294 0.930 . S
H289 C297 0.930 . S
H290 C298 0.930 . S
H291 C299 0.937 . S
H292 C302 0.927 1_656 S
H293 C303 0.930 . S
C294 H288 0.930 . S
C294 C295 1.355 . S
C294 C296 1.415 . S
C295 C294 1.355 . S
C295 C297 1.419 . S
C296 C294 1.415 . S
C296 C301 1.425 . S
C296 C303 1.409 . S
C297 H289 0.930 . S
C297 C295 1.419 . S
C297 C298 1.362 . S
C298 H290 0.930 . S
C298 C297 1.362 . S
C298 C301 1.409 . S
C299 H291 0.937 . S
C299 C300 1.360 . S
C299 C301 1.404 1_556 S
C300 C299 1.360 . S
C300 C302 1.415 1_556 S
C301 C296 1.425 . S
C301 C298 1.409 . S
C301 C299 1.404 1_554 S
C302 H292 0.927 1_454 S
C302 C300 1.415 1_554 S
C302 C303 1.370 . S
C303 H293 0.930 . S
C303 C296 1.409 . S
C303 C302 1.370 . S
H304 C310 0.930 . S
H305 C313 0.930 . S
H306 C314 0.930 1_554 S
H307 C315 0.930 . S
H308 C318 0.930 1_545 S
H309 C319 0.930 . S
C310 H304 0.930 . S
C310 C311 1.355 . S
C310 C312 1.415 . S
C311 C310 1.355 . S
C311 C313 1.419 . S
C312 C310 1.415 . S
C312 C317 1.425 . S
C312 C319 1.409 . S
C313 H305 0.930 . S
C313 C311 1.419 . S
C313 C314 1.362 . S
C314 H306 0.930 1_556 S
C314 C313 1.362 . S
C314 C317 1.409 . S
C315 H307 0.930 . S
C315 C316 1.355 . S
C315 C317 1.415 1_554 S
C316 C315 1.355 . S
C316 C318 1.419 1_554 S
C317 C312 1.425 . S
C317 C314 1.409 . S
C317 C315 1.415 1_556 S
C318 H308 0.930 1_565 S
C318 C316 1.419 1_556 S
C318 C319 1.362 . S
C319 H309 0.930 . S
C319 C312 1.409 . S
C319 C318 1.362 . S
H320 C326 0.930 . S
H321 C329 0.930 . S
H322 C330 0.930 . S
H323 C331 0.927 1_556 S
H324 C334 0.944 1_455 S
H325 C335 0.930 . S
C326 H320 0.930 . S
C326 C327 1.355 . S
C326 C328 1.415 . S
C327 C326 1.355 . S
C327 C329 1.419 . S
C328 C326 1.415 . S
C328 C333 1.425 . S
C328 C335 1.409 . S
C329 H321 0.930 . S
C329 C327 1.419 . S
C329 C330 1.362 . S
C330 H322 0.930 . S
C330 C329 1.362 . S
C330 C333 1.409 . S
C331 H323 0.927 1_554 S
C331 C332 1.352 1_554 S
C331 C333 1.420 . S
C332 C331 1.352 1_556 S
C332 C334 1.428 . S
C333 C328 1.425 . S
C333 C330 1.409 . S
C333 C331 1.420 . S
C334 H324 0.944 1_655 S
C334 C332 1.428 . S
C334 C335 1.343 1_556 S
C335 H325 0.930 . S
C335 C328 1.409 . S
C335 C334 1.343 1_554 S
H336 C342 0.930 . S
H337 C345 0.930 . S
H338 C346 0.930 . S
H339 C347 0.930 . S
H340 C350 0.930 . S
H341 C351 0.930 . S
C342 H336 0.930 . S
C342 C343 1.355 . S
C342 C344 1.415 . S
C343 C342 1.355 . S
C343 C345 1.419 . S
C344 C342 1.415 . S
C344 C349 1.425 . S
C344 C351 1.409 . S
C345 H337 0.930 . S
C345 C343 1.419 . S
C345 C346 1.362 . S
C346 H338 0.930 . S
C346 C345 1.362 . S
C346 C349 1.409 . S
C347 H339 0.930 . S
C347 C348 1.355 . S
C347 C349 1.415 . S
C348 C347 1.355 . S
C348 C350 1.419 . S
C349 C344 1.425 . S
C349 C346 1.409 . S
C349 C347 1.415 . S
C350 H340 0.930 . S
C350 C348 1.419 . S
C350 C351 1.362 . S
C351 H341 0.930 . S
C351 C344 1.409 . S
C351 C350 1.362 . S
H352 C358 0.930 . S
H353 C361 0.930 1_455 S
H354 C362 0.930 . S
H355 C363 0.930 . S
H356 C366 0.930 . S
H357 C367 0.930 . S
C358 H352 0.930 . S
C358 C359 1.355 . S
C358 C360 1.415 . S
C359 C358 1.355 . S
C359 C361 1.419 . S
C360 C358 1.415 . S
C360 C365 1.425 . S
C360 C367 1.409 . S
C361 H353 0.930 1_655 S
C361 C359 1.419 . S
C361 C362 1.362 . S
C362 H354 0.930 . S
C362 C361 1.362 . S
C362 C365 1.409 . S
C363 H355 0.930 . S
C363 C364 1.355 . S
C363 C365 1.415 . S
C364 C363 1.355 . S
C364 C366 1.419 . S
C365 C360 1.425 . S
C365 C362 1.409 . S
C365 C363 1.415 . S
C366 H356 0.930 . S
C366 C364 1.419 . S
C366 C367 1.362 . S
C367 H357 0.930 . S
C367 C360 1.409 . S
C367 C366 1.362 . S
H368 C374 0.930 . S
H369 C377 0.930 1_565 S
H370 C378 0.930 . S
H371 C379 0.930 . S
H372 C382 0.930 . S
H373 C383 0.930 . S
C374 H368 0.930 . S
C374 C375 1.355 . S
C374 C376 1.415 . S
C375 C374 1.355 . S
C375 C377 1.419 . S
C376 C374 1.415 . S
C376 C381 1.425 . S
C376 C383 1.409 . S
C377 H369 0.930 1_545 S
C377 C375 1.419 . S
C377 C378 1.362 . S
C378 H370 0.930 . S
C378 C377 1.362 . S
C378 C381 1.409 . S
C379 H371 0.930 . S
C379 C380 1.355 . S
C379 C381 1.415 . S
C380 C379 1.355 . S
C380 C382 1.419 . S
C381 C376 1.425 . S
C381 C378 1.409 . S
C381 C379 1.415 . S
C382 H372 0.930 . S
C382 C380 1.419 . S
C382 C383 1.362 . S
C383 H373 0.930 . S
C383 C376 1.409 . S
C383 C382 1.362 . S
H384 C390 0.930 . S
H385 C393 0.930 1_655 S
H386 C394 0.930 . S
H387 C395 0.930 . S
H388 C398 0.930 . S
H389 C399 0.930 . S
C390 H384 0.930 . S
C390 C391 1.355 . S
C390 C392 1.415 . S
C391 C390 1.355 . S
C391 C393 1.419 . S
C392 C390 1.415 . S
C392 C397 1.425 . S
C392 C399 1.409 . S
C393 H385 0.930 1_455 S
C393 C391 1.419 . S
C393 C394 1.362 . S
C394 H386 0.930 . S
C394 C393 1.362 . S
C394 C397 1.409 . S
C395 H387 0.930 . S
C395 C396 1.355 . S
C395 C397 1.415 . S
C396 C395 1.355 . S
C396 C398 1.419 . S
C397 C392 1.425 . S
C397 C394 1.409 . S
C397 C395 1.415 . S
C398 H388 0.930 . S
C398 C396 1.419 . S
C398 C399 1.362 . S
C399 H389 0.930 . S
C399 C392 1.409 . S
C399 C398 1.362 . S
H400 C406 0.930 . S
H401 C409 0.930 . S
H402 C410 0.930 . S
H403 C411 0.930 . S
H404 C414 0.930 . S
H405 C415 0.930 . S
C406 H400 0.930 . S
C406 C407 1.355 . S
C406 C408 1.415 . S
C407 C406 1.355 . S
C407 C409 1.419 . S
C408 C406 1.415 . S
C408 C413 1.425 . S
C408 C415 1.409 . S
C409 H401 0.930 . S
C409 C407 1.419 . S
C409 C410 1.362 . S
C410 H402 0.930 . S
C410 C409 1.362 . S
C410 C413 1.409 . S
C411 H403 0.930 . S
C411 C412 1.355 . S
C411 C413 1.415 . S
C412 C411 1.355 . S
C412 C414 1.419 . S
C413 C408 1.425 . S
C413 C410 1.409 . S
C413 C411 1.415 . S
C414 H404 0.930 . S
C414 C412 1.419 . S
C414 C415 1.362 . S
C415 H405 0.930 . S
C415 C408 1.409 . S
C415 C414 1.362 . S
H416 C422 0.930 . S
H417 C425 0.930 . S
H418 C426 0.930 . S
H419 C427 0.930 . S
H420 C430 0.930 . S
H421 C431 0.930 . S
C422 H416 0.930 . S
C422 C423 1.355 . S
C422 C424 1.415 . S
C423 C422 1.355 . S
C423 C425 1.419 . S
C424 C422 1.415 . S
C424 C429 1.425 . S
C424 C431 1.409 . S
C425 H417 0.930 . S
C425 C423 1.419 . S
C425 C426 1.362 . S
C426 H418 0.930 . S
C426 C425 1.362 . S
C426 C429 1.409 . S
C427 H419 0.930 . S
C427 C428 1.355 . S
C427 C429 1.415 . S
C428 C427 1.355 . S
C428 C430 1.419 . S
C429 C424 1.425 . S
C429 C426 1.409 . S
C429 C427 1.415 . S
C430 H420 0.930 . S
C430 C428 1.419 . S
C430 C431 1.362 . S
C431 H421 0.930 . S
C431 C424 1.409 . S
C431 C430 1.362 . S
H432 C438 0.930 . S
H433 C441 0.930 . S
H434 C442 0.930 . S
H435 C443 0.930 . S
H436 C446 0.930 . S
H437 C447 0.930 . S
C438 H432 0.930 . S
C438 C439 1.355 . S
C438 C440 1.415 . S
C439 C438 1.355 . S
C439 C441 1.419 . S
C440 C438 1.415 . S
C440 C445 1.425 . S
C440 C447 1.409 . S
C441 H433 0.930 . S
C441 C439 1.419 . S
C441 C442 1.362 . S
C442 H434 0.930 . S
C442 C441 1.362 . S
C442 C445 1.409 . S
C443 H435 0.930 . S
C443 C444 1.355 . S
C443 C445 1.415 . S
C444 C443 1.355 . S
C444 C446 1.419 . S
C445 C440 1.425 . S
C445 C442 1.409 . S
C445 C443 1.415 . S
C446 H436 0.930 . S
C446 C444 1.419 . S
C446 C447 1.362 . S
C447 H437 0.930 . S
C447 C440 1.409 . S
C447 C446 1.362 . S
H448 C454 0.930 . S
H449 C457 0.930 . S
H450 C458 0.930 . S
H451 C459 0.930 . S
H452 C462 0.930 . S
H453 C463 0.930 . S
C454 H448 0.930 . S
C454 C455 1.355 . S
C454 C456 1.415 . S
C455 C454 1.355 . S
C455 C457 1.419 . S
C456 C454 1.415 . S
C456 C461 1.425 . S
C456 C463 1.409 . S
C457 H449 0.930 . S
C457 C455 1.419 . S
C457 C458 1.362 . S
C458 H450 0.930 . S
C458 C457 1.362 . S
C458 C461 1.409 . S
C459 H451 0.930 . S
C459 C460 1.355 . S
C459 C461 1.415 . S
C460 C459 1.355 . S
C460 C462 1.419 . S
C461 C456 1.425 . S
C461 C458 1.409 . S
C461 C459 1.415 . S
C462 H452 0.930 . S
C462 C460 1.419 . S
C462 C463 1.362 . S
C463 H453 0.930 . S
C463 C456 1.409 . S
C463 C462 1.362 . S
H464 C470 0.930 . S
H465 C473 0.930 . S
H466 C474 0.930 . S
H467 C475 0.930 . S
H468 C478 0.930 . S
H469 C479 0.930 . S
C470 H464 0.930 . S
C470 C471 1.355 . S
C470 C472 1.415 . S
C471 C470 1.355 . S
C471 C473 1.419 . S
C472 C470 1.415 . S
C472 C477 1.425 . S
C472 C479 1.409 . S
C473 H465 0.930 . S
C473 C471 1.419 . S
C473 C474 1.362 . S
C474 H466 0.930 . S
C474 C473 1.362 . S
C474 C477 1.409 . S
C475 H467 0.930 . S
C475 C476 1.355 . S
C475 C477 1.415 . S
C476 C475 1.355 . S
C476 C478 1.419 . S
C477 C472 1.425 . S
C477 C474 1.409 . S
C477 C475 1.415 . S
C478 H468 0.930 . S
C478 C476 1.419 . S
C478 C479 1.362 . S
C479 H469 0.930 . S
C479 C472 1.409 . S
C479 C478 1.362 . S
H480 C486 0.930 . S
H481 C489 0.930 . S
H482 C490 0.930 . S
H483 C491 0.930 . S
H484 C494 0.930 . S
H485 C495 0.930 . S
C486 H480 0.930 . S
C486 C487 1.355 . S
C486 C488 1.415 . S
C487 C486 1.355 . S
C487 C489 1.419 . S
C488 C486 1.415 . S
C488 C493 1.425 . S
C488 C495 1.409 . S
C489 H481 0.930 . S
C489 C487 1.419 . S
C489 C490 1.362 . S
C490 H482 0.930 . S
C490 C489 1.362 . S
C490 C493 1.409 . S
C491 H483 0.930 . S
C491 C492 1.355 . S
C491 C493 1.415 . S
C492 C491 1.355 . S
C492 C494 1.419 . S
C493 C488 1.425 . S
C493 C490 1.409 . S
C493 C491 1.415 . S
C494 H484 0.930 . S
C494 C492 1.419 . S
C494 C495 1.362 . S
C495 H485 0.930 . S
C495 C488 1.409 . S
C495 C494 1.362 . S
H496 C502 0.930 . S
H497 C505 0.930 . S
H498 C506 0.930 . S
H499 C507 0.930 . S
H500 C510 0.930 . S
H501 C511 0.930 . S
C502 H496 0.930 . S
C502 C503 1.355 . S
C502 C504 1.415 . S
C503 C502 1.355 . S
C503 C505 1.419 . S
C504 C502 1.415 . S
C504 C509 1.425 . S
C504 C511 1.409 . S
C505 H497 0.930 . S
C505 C503 1.419 . S
C505 C506 1.362 . S
C506 H498 0.930 . S
C506 C505 1.362 . S
C506 C509 1.409 . S
C507 H499 0.930 . S
C507 C508 1.355 . S
C507 C509 1.415 . S
C508 C507 1.355 . S
C508 C510 1.419 . S
C509 C504 1.425 . S
C509 C506 1.409 . S
C509 C507 1.415 . S
C510 H500 0.930 . S
C510 C508 1.419 . S
C510 C511 1.362 . S
C511 H501 0.930 . S
C511 C504 1.409 . S
C511 C510 1.362 . S
H512 C518 0.930 . S
H513 C521 0.930 . S
H514 C522 0.930 . S
H515 C523 0.930 . S
H516 C526 0.930 . S
H517 C527 0.930 . S
C518 H512 0.930 . S
C518 C519 1.355 . S
C518 C520 1.415 . S
C519 C518 1.355 . S
C519 C521 1.419 . S
C520 C518 1.415 . S
C520 C525 1.425 . S
C520 C527 1.409 . S
C521 H513 0.930 . S
C521 C519 1.419 . S
C521 C522 1.362 . S
C522 H514 0.930 . S
C522 C521 1.362 . S
C522 C525 1.409 . S
C523 H515 0.930 . S
C523 C524 1.355 . S
C523 C525 1.415 . S
C524 C523 1.355 . S
C524 C526 1.419 . S
C525 C520 1.425 . S
C525 C522 1.409 . S
C525 C523 1.415 . S
C526 H516 0.930 . S
C526 C524 1.419 . S
C526 C527 1.362 . S
C527 H517 0.930 . S
C527 C520 1.409 . S
C527 C526 1.362 . S
H528 C534 0.930 . S
H529 C537 0.930 . S
H530 C538 0.930 . S
H531 C539 0.930 . S
H532 C542 0.930 . S
H533 C543 0.930 . S
C534 H528 0.930 . S
C534 C535 1.355 . S
C534 C536 1.415 . S
C535 C534 1.355 . S
C535 C537 1.419 . S
C536 C534 1.415 . S
C536 C541 1.425 . S
C536 C543 1.409 . S
C537 H529 0.930 . S
C537 C535 1.419 . S
C537 C538 1.362 . S
C538 H530 0.930 . S
C538 C537 1.362 . S
C538 C541 1.409 . S
C539 H531 0.930 . S
C539 C540 1.355 . S
C539 C541 1.415 . S
C540 C539 1.355 . S
C540 C542 1.419 . S
C541 C536 1.425 . S
C541 C538 1.409 . S
C541 C539 1.415 . S
C542 H532 0.930 . S
C542 C540 1.419 . S
C542 C543 1.362 . S
C543 H533 0.930 . S
C543 C536 1.409 . S
C543 C542 1.362 . S
H544 C550 0.930 . S
H545 C553 0.930 . S
H546 C554 0.930 . S
H547 C555 0.930 . S
H548 C558 0.930 . S
H549 C559 0.930 . S
C550 H544 0.930 . S
C550 C551 1.355 . S
C550 C552 1.415 . S
C551 C550 1.355 . S
C551 C553 1.419 . S
C552 C550 1.415 . S
C552 C557 1.425 . S
C552 C559 1.409 . S
C553 H545 0.930 . S
C553 C551 1.419 . S
C553 C554 1.362 . S
C554 H546 0.930 . S
C554 C553 1.362 . S
C554 C557 1.409 . S
C555 H547 0.930 . S
C555 C556 1.355 . S
C555 C557 1.415 . S
C556 C555 1.355 . S
C556 C558 1.419 . S
C557 C552 1.425 . S
C557 C554 1.409 . S
C557 C555 1.415 . S
C558 H548 0.930 . S
C558 C556 1.419 . S
C558 C559 1.362 . S
C559 H549 0.930 . S
C559 C552 1.409 . S
C559 C558 1.362 . S
H560 C566 0.930 . S
H561 C569 0.930 . S
H562 C570 0.930 . S
H563 C571 0.930 . S
H564 C574 0.930 . S
H565 C575 0.930 . S
C566 H560 0.930 . S
C566 C567 1.355 . S
C566 C568 1.415 . S
C567 C566 1.355 . S
C567 C569 1.419 . S
C568 C566 1.415 . S
C568 C573 1.425 . S
C568 C575 1.409 . S
C569 H561 0.930 . S
C569 C567 1.419 . S
C569 C570 1.362 . S
C570 H562 0.930 . S
C570 C569 1.362 . S
C570 C573 1.409 . S
C571 H563 0.930 . S
C571 C572 1.355 . S
C571 C573 1.415 . S
C572 C571 1.355 . S
C572 C574 1.419 . S
C573 C568 1.425 . S
C573 C570 1.409 . S
C573 C571 1.415 . S
C574 H564 0.930 . S
C574 C572 1.419 . S
C574 C575 1.362 . S
C575 H565 0.930 . S
C575 C568 1.409 . S
C575 C574 1.362 . S
H576 C582 0.930 . S
H577 C585 0.930 . S
H578 C586 0.930 . S
H579 C587 0.930 . S
H580 C590 0.930 . S
H581 C591 0.930 . S
C582 H576 0.930 . S
C582 C583 1.355 . S
C582 C584 1.415 . S
C583 C582 1.355 . S
C583 C585 1.419 . S
C584 C582 1.415 . S
C584 C589 1.425 . S
C584 C591 1.409 . S
C585 H577 0.930 . S
C585 C583 1.419 . S
C585 C586 1.362 . S
C586 H578 0.930 . S
C586 C585 1.362 . S
C586 C589 1.409 . S
C587 H579 0.930 . S
C587 C588 1.355 . S
C587 C589 1.415 . S
C588 C587 1.355 . S
C588 C590 1.419 . S
C589 C584 1.425 . S
C589 C586 1.409 . S
C589 C587 1.415 . S
C590 H580 0.930 . S
C590 C588 1.419 . S
C590 C591 1.362 . S
C591 H581 0.930 . S
C591 C584 1.409 . S
C591 C590 1.362 . S
H592 C598 0.930 . S
H593 C601 0.930 . S
H594 C602 0.930 . S
H595 C603 0.930 . S
H596 C606 0.930 . S
H597 C607 0.930 . S
C598 H592 0.930 . S
C598 C599 1.355 . S
C598 C600 1.415 1_565 S
C599 C598 1.355 . S
C599 C601 1.419 1_655 S
C600 C598 1.415 1_545 S
C600 C605 1.425 1_645 S
C600 C607 1.409 . S
C601 H593 0.930 . S
C601 C599 1.419 1_455 S
C601 C602 1.362 . S
C602 H594 0.930 . S
C602 C601 1.362 . S
C602 C605 1.409 . S
C603 H595 0.930 . S
C603 C604 1.355 . S
C603 C605 1.415 1_545 S
C604 C603 1.355 . S
C604 C606 1.419 1_455 S
C605 C600 1.425 1_465 S
C605 C602 1.409 . S
C605 C603 1.415 1_565 S
C606 H596 0.930 . S
C606 C604 1.419 1_655 S
C606 C607 1.362 . S
C607 H597 0.930 . S
C607 C600 1.409 . S
C607 C606 1.362 . S
H608 C614 0.930 . S
H609 C617 0.930 . S
H610 C618 0.930 . S
H611 C619 0.930 . S
H612 C622 0.930 . S
H613 C623 0.930 . S
C614 H608 0.930 . S
C614 C615 1.355 1_565 S
C614 C616 1.415 . S
C615 C614 1.355 1_545 S
C615 C617 1.419 . S
C616 C614 1.415 . S
C616 C621 1.425 1_665 S
C616 C623 1.409 . S
C617 H609 0.930 . S
C617 C615 1.419 . S
C617 C618 1.362 1_655 S
C618 H610 0.930 . S
C618 C617 1.362 1_455 S
C618 C621 1.409 . S
C619 H611 0.930 . S
C619 C620 1.355 1_545 S
C619 C621 1.415 . S
C620 C619 1.355 1_565 S
C620 C622 1.419 . S
C621 C616 1.425 1_445 S
C621 C618 1.409 . S
C621 C619 1.415 . S
C622 H612 0.930 . S
C622 C620 1.419 . S
C622 C623 1.362 1_455 S
C623 H613 0.930 . S
C623 C616 1.409 . S
C623 C622 1.362 1_655 S
H624 C630 0.930 . S
H625 C633 0.930 . S
H626 C634 0.930 . S
H627 C635 0.930 . S
H628 C638 0.930 . S
H629 C639 0.930 . S
C630 H624 0.930 . S
C630 C631 1.355 1_655 S
C630 C632 1.415 . S
C631 C630 1.355 1_455 S
C631 C633 1.419 . S
C632 C630 1.415 . S
C632 C637 1.425 1_655 S
C632 C639 1.409 . S
C633 H625 0.930 . S
C633 C631 1.419 . S
C633 C634 1.362 . S
C634 H626 0.930 . S
C634 C633 1.362 . S
C634 C637 1.409 . S
C635 H627 0.930 . S
C635 C636 1.355 1_455 S
C635 C637 1.415 . S
C636 C635 1.355 1_655 S
C636 C638 1.419 . S
C637 C632 1.425 1_455 S
C637 C634 1.409 . S
C637 C635 1.415 . S
C638 H628 0.930 . S
C638 C636 1.419 . S
C638 C639 1.362 . S
C639 H629 0.930 . S
C639 C632 1.409 . S
C639 C638 1.362 . S
H640 C646 0.930 . S
H641 C649 0.930 . S
H642 C650 0.930 . S
H643 C651 0.930 . S
H644 C654 0.930 . S
H645 C655 0.930 . S
C646 H640 0.930 . S
C646 C647 1.355 1_545 S
C646 C648 1.415 . S
C647 C646 1.355 1_565 S
C647 C649 1.419 . S
C648 C646 1.415 . S
C648 C653 1.425 1_545 S
C648 C655 1.409 . S
C649 H641 0.930 . S
C649 C647 1.419 . S
C649 C650 1.362 . S
C650 H642 0.930 . S
C650 C649 1.362 . S
C650 C653 1.409 . S
C651 H643 0.930 . S
C651 C652 1.355 1_565 S
C651 C653 1.415 . S
C652 C651 1.355 1_545 S
C652 C654 1.419 . S
C653 C648 1.425 1_565 S
C653 C650 1.409 . S
C653 C651 1.415 . S
C654 H644 0.930 . S
C654 C652 1.419 . S
C654 C655 1.362 . S
C655 H645 0.930 . S
C655 C648 1.409 . S
C655 C654 1.362 . S
H656 C662 0.930 . S
H657 C665 0.930 . S
H658 C666 0.930 . S
H659 C667 0.930 . S
H660 C670 0.930 . S
H661 C671 0.930 . S
C662 H656 0.930 . S
C662 C663 1.355 . S
C662 C664 1.415 . S
C663 C662 1.355 . S
C663 C665 1.419 . S
C664 C662 1.415 . S
C664 C669 1.425 . S
C664 C671 1.409 . S
C665 H657 0.930 . S
C665 C663 1.419 . S
C665 C666 1.362 . S
C666 H658 0.930 . S
C666 C665 1.362 . S
C666 C669 1.409 . S
C667 H659 0.930 . S
C667 C668 1.355 . S
C667 C669 1.415 . S
C668 C667 1.355 . S
C668 C670 1.419 . S
C669 C664 1.425 . S
C669 C666 1.409 . S
C669 C667 1.415 . S
C670 H660 0.930 . S
C670 C668 1.419 . S
C670 C671 1.362 . S
C671 H661 0.930 . S
C671 C664 1.409 . S
C671 C670 1.362 . S
H672 C678 0.930 . S
H673 C681 0.930 . S
H674 C682 0.930 . S
H675 C683 0.930 . S
H676 C686 0.930 . S
H677 C687 0.930 . S
C678 H672 0.930 . S
C678 C679 1.355 . S
C678 C680 1.415 . S
C679 C678 1.355 . S
C679 C681 1.419 . S
C680 C678 1.415 . S
C680 C685 1.425 . S
C680 C687 1.409 . S
C681 H673 0.930 . S
C681 C679 1.419 . S
C681 C682 1.362 . S
C682 H674 0.930 . S
C682 C681 1.362 . S
C682 C685 1.409 . S
C683 H675 0.930 . S
C683 C684 1.355 . S
C683 C685 1.415 . S
C684 C683 1.355 . S
C684 C686 1.419 . S
C685 C680 1.425 . S
C685 C682 1.409 . S
C685 C683 1.415 . S
C686 H676 0.930 . S
C686 C684 1.419 . S
C686 C687 1.362 . S
C687 H677 0.930 . S
C687 C680 1.409 . S
C687 C686 1.362 . S
H688 C694 0.930 . S
H689 C697 0.930 . S
H690 C698 0.927 1_565 S
H691 C699 0.930 . S
H692 C702 0.930 . S
H693 C703 0.927 1_545 S
C694 H688 0.930 . S
C694 C695 1.355 . S
C694 C696 1.415 . S
C695 C694 1.355 . S
C695 C697 1.419 . S
C696 C694 1.415 . S
C696 C701 1.425 1_545 S
C696 C703 1.407 1_545 S
C697 H689 0.930 . S
C697 C695 1.419 . S
C697 C698 1.367 . S
C698 H690 0.927 1_545 S
C698 C697 1.367 . S
C698 C701 1.407 1_545 S
C699 H691 0.930 . S
C699 C700 1.355 . S
C699 C701 1.415 . S
C700 C699 1.355 . S
C700 C702 1.419 . S
C701 C696 1.425 1_565 S
C701 C698 1.407 1_565 S
C701 C699 1.415 . S
C702 H692 0.930 . S
C702 C700 1.419 . S
C702 C703 1.367 . S
C703 H693 0.927 1_565 S
C703 C696 1.407 1_565 S
C703 C702 1.367 . S
H704 C710 0.930 . S
H705 C713 0.930 . S
H706 C714 0.930 . S
H707 C715 0.930 . S
H708 C718 0.930 . S
H709 C719 0.930 . S
C710 H704 0.930 . S
C710 C711 1.355 . S
C710 C712 1.415 . S
C711 C710 1.355 . S
C711 C713 1.419 . S
C712 C710 1.415 . S
C712 C717 1.425 1_655 S
C712 C719 1.409 . S
C713 H705 0.930 . S
C713 C711 1.419 . S
C713 C714 1.362 1_655 S
C714 H706 0.930 . S
C714 C713 1.362 1_455 S
C714 C717 1.409 . S
C715 H707 0.930 . S
C715 C716 1.355 . S
C715 C717 1.415 . S
C716 C715 1.355 . S
C716 C718 1.419 . S
C717 C712 1.425 1_455 S
C717 C714 1.409 . S
C717 C715 1.415 . S
C718 H708 0.930 . S
C718 C716 1.419 . S
C718 C719 1.362 1_455 S
C719 H709 0.930 . S
C719 C712 1.409 . S
C719 C718 1.362 1_655 S
C215 C5 1.677 . S
C220 C144 1.673 . S
C231 C105 1.651 . S
C236 C18 1.626 . S
C247 C118 1.663 . S
C252 C31 1.678 . S
C263 C131 1.619 . S
C268 C44 1.627 . S
C279 C66 1.686 1_545 S
C284 C57 1.685 . S
C295 C70 1.633 . S
C300 C79 1.608 1_455 S
C311 C83 1.684 . S
C316 C92 1.675 1_565 S
C327 C96 1.635 . S
C332 C53 1.607 1_655 S
C343 C109 1.676 . S
C348 C40 1.664 1_565 S
C359 C1 1.657 1_655 S
C364 C122 1.635 . S
C375 C14 1.673 1_545 S
C380 C135 1.684 . S
C391 C27 1.656 1_455 S
C396 C148 1.633 . S
C407 C170 1.666 . S
C412 C161 1.681 . S
C423 C174 1.648 . S
C428 C183 1.596 . S
C439 C196 1.685 . S
C444 C187 1.683 . S
C455 C157 1.625 . S
C460 C200 1.670 . S
C471 C185 1.758 . S
C476 C3 1.749 . S
C487 C198 1.893 . S
C492 C16 1.875 . S
C503 C159 1.749 . S
C508 C29 1.758 . S
C519 C42 1.887 . S
C524 C172 1.871 . S
C535 C55 1.805 . S
C540 C133 1.764 . S
C551 C146 1.872 . S
C556 C68 1.876 . S
C567 C81 1.795 . S
C572 C107 1.755 . S
C583 C94 1.892 . S
C588 C120 1.874 . S
C599 C36 1.578 . S
C604 C10 1.585 . S
C615 C49 1.548 . S
C620 C23 1.563 . S
C631 C62 1.599 . S
C636 C88 1.588 . S
C647 C75 1.558 . S
C652 C101 1.553 . S
C663 C140 1.598 . S
C668 C114 1.595 . S
C679 C127 1.570 . S
C684 C153 1.542 . S
C695 C192 1.596 . S
C700 C166 1.597 . S
C711 C179 1.547 . S
C716 C205 1.564 . S
