# Generated by pormake.
# Topology acs-a, (4)-cn, num edge types: 1
# Building blocks:
#     Node 0, Type 0, BuildingBlock: QUQFOY_clean_sbu_3, # of connection points: 4
#     Node 1, Type 0, BuildingBlock: QUQFOY_clean_sbu_3, # of connection points: 4
#     Node 2, Type 0, BuildingBlock: QUQFOY_clean_sbu_3, # of connection points: 4
#     Node 3, Type 0, BuildingBlock: QUQFOY_clean_sbu_3, # of connection points: 4
#     Node 4, Type 0, BuildingBlock: QUQFOY_clean_sbu_3, # of connection points: 4
#     Node 5, Type 0, BuildingBlock: QUQFOY_clean_sbu_3, # of connection points: 4
#     Node 6, Type 0, BuildingBlock: QUQFOY_clean_sbu_3, # of connection points: 4
#     Node 7, Type 0, BuildingBlock: QUQFOY_clean_sbu_3, # of connection points: 4
#     Node 8, Type 0, BuildingBlock: QUQFOY_clean_sbu_3, # of connection points: 4
#     Node 9, Type 0, BuildingBlock: QUQFOY_clean_sbu_3, # of connection points: 4
#     Node 10, Type 0, BuildingBlock: QUQFOY_clean_sbu_3, # of connection points: 4
#     Node 11, Type 0, BuildingBlock: QUQFOY_clean_sbu_3, # of connection points: 4
#     Edge 12, Type (0, 0), BuildingBlock: TEMPAE_clean_linker_10, # of connection points: 2
#     Edge 13, Type (0, 0), BuildingBlock: TEMPAE_clean_linker_10, # of connection points: 2
#     Edge 14, Type (0, 0), BuildingBlock: TEMPAE_clean_linker_10, # of connection points: 2
#     Edge 15, Type (0, 0), BuildingBlock: TEMPAE_clean_linker_10, # of connection points: 2
#     Edge 16, Type (0, 0), BuildingBlock: TEMPAE_clean_linker_10, # of connection points: 2
#     Edge 17, Type (0, 0), BuildingBlock: TEMPAE_clean_linker_10, # of connection points: 2
#     Edge 18, Type (0, 0), BuildingBlock: TEMPAE_clean_linker_10, # of connection points: 2
#     Edge 19, Type (0, 0), BuildingBlock: TEMPAE_clean_linker_10, # of connection points: 2
#     Edge 20, Type (0, 0), BuildingBlock: TEMPAE_clean_linker_10, # of connection points: 2
#     Edge 21, Type (0, 0), BuildingBlock: TEMPAE_clean_linker_10, # of connection points: 2
#     Edge 22, Type (0, 0), BuildingBlock: TEMPAE_clean_linker_10, # of connection points: 2
#     Edge 23, Type (0, 0), BuildingBlock: TEMPAE_clean_linker_10, # of connection points: 2
#     Edge 24, Type (0, 0), BuildingBlock: TEMPAE_clean_linker_10, # of connection points: 2
#     Edge 25, Type (0, 0), BuildingBlock: TEMPAE_clean_linker_10, # of connection points: 2
#     Edge 26, Type (0, 0), BuildingBlock: TEMPAE_clean_linker_10, # of connection points: 2
#     Edge 27, Type (0, 0), BuildingBlock: TEMPAE_clean_linker_10, # of connection points: 2
#     Edge 28, Type (0, 0), BuildingBlock: TEMPAE_clean_linker_10, # of connection points: 2
#     Edge 29, Type (0, 0), BuildingBlock: TEMPAE_clean_linker_10, # of connection points: 2
#     Edge 30, Type (0, 0), BuildingBlock: TEMPAE_clean_linker_10, # of connection points: 2
#     Edge 31, Type (0, 0), BuildingBlock: TEMPAE_clean_linker_10, # of connection points: 2
#     Edge 32, Type (0, 0), BuildingBlock: TEMPAE_clean_linker_10, # of connection points: 2
#     Edge 33, Type (0, 0), BuildingBlock: TEMPAE_clean_linker_10, # of connection points: 2
#     Edge 34, Type (0, 0), BuildingBlock: TEMPAE_clean_linker_10, # of connection points: 2
#     Edge 35, Type (0, 0), BuildingBlock: TEMPAE_clean_linker_10, # of connection points: 2
# Relax obj value: 0.494
# Max RMSD: 0.250
# Mean RMSD: 0.229
data_MOF--net-acs-a--node1-QUQFOY_clean_sbu_3--edge1-TEMPAE_clean_linker_10
_symmetry_space_group_name_H-M    P1
_symmetry_Int_Tables_number       1
_symmetry_cell_setting            triclinic
loop_
_symmetry_equiv_pos_as_xyz
'x, y, z'
_cell_length_a     50.25318
_cell_length_b     50.266699
_cell_length_c     39.777715
_cell_angle_alpha  90.047401
_cell_angle_beta   90.184926
_cell_angle_gamma 113.73683
loop_
_atom_site_label
_atom_site_type_symbol
_atom_site_fract_x
_atom_site_fract_y
_atom_site_fract_z
_atom_type_partial_charge
C0 C 0.67164 0.16585 0.95603 0.0
O1 O 0.67018 0.14403 0.97284 0.0
Cd2 Cd 0.61903 0.13184 0.98751 0.0
O3 O 0.64817 0.1692 0.95236 0.0
Cd4 Cd 0.60663 0.1272 0.98295 0.0
C5 C 0.58261 0.17008 0.97614 0.0
O6 O 0.61815 0.12227 0.04457 0.0
O7 O 0.58025 0.13074 0.03468 0.0
O8 O 0.6148 0.08227 0.97273 0.0
C9 C 0.59638 0.1258 0.0561 0.0
O10 O 0.60769 0.17666 0.9887 0.0
C11 C 0.59068 0.06933 0.95773 0.0
O12 O 0.56984 0.14457 0.96455 0.0
O13 O 0.5752 0.08369 0.95306 0.0
C14 C 0.45215 0.67088 0.5918 0.0
O15 O 0.47042 0.67137 0.61399 0.0
Cd16 Cd 0.46143 0.6205 0.60234 0.0
O17 O 0.44155 0.6483 0.57363 0.0
Cd18 Cd 0.45949 0.60766 0.58816 0.0
C19 C 0.39849 0.58078 0.57266 0.0
O20 O 0.46336 0.60112 0.65267 0.0
O21 O 0.43966 0.56292 0.62303 0.0
O22 O 0.51282 0.6295 0.57944 0.0
C23 C 0.44891 0.57386 0.65173 0.0
O24 O 0.4075 0.5962 0.59878 0.0
C25 C 0.51202 0.61063 0.55772 0.0
O26 O 0.41721 0.57909 0.55257 0.0
O27 O 0.48707 0.59213 0.54912 0.0
C28 C 0.788 0.40934 0.04657 0.0
O29 O 0.80926 0.42379 0.06545 0.0
Cd30 Cd 0.84433 0.40777 0.0358 0.0
O31 O 0.79321 0.3957 0.02257 0.0
Cd32 Cd 0.84664 0.40918 0.03038 0.0
C33 C 0.8253 0.34866 0.00601 0.0
O34 O 0.88361 0.41034 0.0719 0.0
O35 O 0.84124 0.39557 0.09372 0.0
O36 O 0.85351 0.46071 0.02812 0.0
C37 C 0.86812 0.40166 0.09784 0.0
O38 O 0.81664 0.35508 0.03336 0.0
C39 C 0.87575 0.46869 0.00944 0.0
O40 O 0.84421 0.36949 0.99003 0.0
O41 O 0.88328 0.44889 -0.00125 0.0
C42 C 0.27475 0.82185 0.54818 0.0
O43 O 0.27449 0.82266 0.58011 0.0
Cd44 Cd 0.31379 0.84464 0.61857 0.0
O45 O 0.29798 0.8358 0.5317 0.0
Cd46 Cd 0.34795 0.87138 0.54779 0.0
C47 C 0.36084 0.81671 0.58599 0.0
O48 O 0.33633 0.89234 0.59754 0.0
O49 O 0.38165 0.9039 0.58974 0.0
O50 O 0.35352 0.906 0.50227 0.0
C51 C 0.36204 0.90598 0.60806 0.0
O52 O 0.34502 0.81783 0.61051 0.0
C53 C 0.37805 0.90656 0.49337 0.0
O54 O 0.36405 0.83276 0.56025 0.0
O55 O 0.38673 0.88901 0.50785 0.0
C56 C 0.50595 0.30021 0.08459 0.0
O57 O 0.49466 0.31691 0.0737 0.0
Cd58 Cd 0.51878 0.35461 0.11841 0.0
O59 O 0.52066 0.30817 0.11128 0.0
Cd60 Cd 0.52047 0.35844 0.11903 0.0
C61 C 0.58138 0.37338 0.10141 0.0
O62 O 0.50643 0.35453 0.17785 0.0
O63 O 0.54716 0.39 0.16624 0.0
O64 O 0.46882 0.35056 0.10687 0.0
C65 C 0.52845 0.37622 0.18823 0.0
O66 O 0.56885 0.35548 0.12439 0.0
C67 C 0.47536 0.37218 0.08732 0.0
O68 O 0.56599 0.38404 0.08589 0.0
O69 O 0.50219 0.38674 0.08177 0.0
C70 C 0.20839 0.57193 0.62222 0.0
O71 O 0.21248 0.58658 0.64923 0.0
Cd72 Cd 0.17818 0.5999 0.67767 0.0
O73 O 0.18351 0.56142 0.60797 0.0
Cd74 Cd 0.13432 0.56099 0.6177 0.0
C75 C 0.16409 0.6341 0.6083 0.0
O76 O 0.13513 0.55719 0.67754 0.0
O77 O 0.09985 0.56687 0.65905 0.0
O78 O 0.11211 0.50973 0.60261 0.0
C79 C 0.11277 0.56181 0.68411 0.0
O80 O 0.17441 0.63475 0.63775 0.0
C81 C 0.09632 0.51294 0.57933 0.0
O82 O 0.14922 0.60997 0.59387 0.0
O83 O 0.0985 0.53863 0.57372 0.0
C84 C 0.8344 0.28397 0.38884 0.0
O85 O 0.83175 0.28834 0.3578 0.0
Cd86 Cd 0.85561 0.33186 0.327 0.0
O87 O 0.85347 0.3033 0.40703 0.0
Cd88 Cd 0.89361 0.35208 0.39602 0.0
C89 C 0.84298 0.37959 0.38058 0.0
O90 O 0.90532 0.34464 0.33929 0.0
O91 O 0.9213 0.38935 0.35394 0.0
O92 O 0.93479 0.34932 0.42709 0.0
C93 C 0.91936 0.37091 0.33126 0.0
O94 O 0.83761 0.36635 0.35236 0.0
C95 C 0.93519 0.368 0.44889 0.0
O96 O 0.86149 0.37712 0.40082 0.0
O97 O 0.91578 0.378 0.44647 0.0
C98 C 0.38029 0.76131 0.8863 0.0
O99 O 0.36283 0.76123 0.86311 0.0
Cd100 Cd 0.35401 0.80186 0.84406 0.0
O101 O 0.39558 0.78469 0.90191 0.0
Cd102 Cd 0.40067 0.836 0.90025 0.0
C103 C 0.33005 0.81636 0.91986 0.0
O104 O 0.40018 0.84093 0.84008 0.0
O105 O 0.39549 0.87564 0.86751 0.0
O106 O 0.45292 0.853 0.90724 0.0
C107 C 0.39852 0.86536 0.83937 0.0
O108 O 0.3251 0.80874 0.88915 0.0
C109 C 0.45444 0.86959 0.9319 0.0
O110 O 0.35578 0.8257 0.93173 0.0
O111 O 0.43057 0.869 0.94317 0.0
C112 C 0.70824 0.46873 0.45838 0.0
O113 O 0.70196 0.4857 0.43965 0.0
Cd114 Cd 0.65245 0.46695 0.46159 0.0
O115 O 0.68952 0.4545 0.48007 0.0
Cd116 Cd 0.64076 0.46179 0.47639 0.0
C117 C 0.62452 0.40096 0.48902 0.0
O118 O 0.62554 0.46806 0.41581 0.0
O119 O 0.59579 0.43225 0.44436 0.0
O120 O 0.65492 0.51425 0.48716 0.0
C121 C 0.60125 0.44653 0.41719 0.0
O122 O 0.63978 0.41336 0.46381 0.0
C123 C 0.63713 0.51019 0.51116 0.0
O124 O 0.61775 0.41667 0.50927 0.0
O125 O 0.62286 0.48405 0.52022 0.0
C126 C 0.15816 0.68973 0.02004 0.0
O127 O 0.13561 0.69059 0.00696 0.0
Cd128 Cd 0.11704 0.63864 0.99148 0.0
O129 O 0.15886 0.66494 0.02217 0.0
Cd130 Cd 0.11076 0.62687 -0.00314 0.0
C131 C 0.14904 0.59635 -0.00056 0.0
O132 O 0.10781 0.63927 0.93489 0.0
O133 O 0.09682 0.59439 0.94671 0.0
O134 O 0.07149 0.64335 0.01015 0.0
C135 C 0.09938 0.61335 0.92448 0.0
O136 O 0.1573 0.62109 0.98574 0.0
C137 C 0.0576 0.62136 0.02822 0.0
O138 O 0.12435 0.58672 0.01333 0.0
O139 O 0.06961 0.60386 0.03365 0.0
C140 C 0.55389 0.21111 0.39408 0.0
O141 O 0.55834 0.21916 0.36366 0.0
Cd142 Cd 0.58102 0.19727 0.32735 0.0
O143 O 0.55588 0.1877 0.4033 0.0
Cd144 Cd 0.56151 0.14615 0.37388 0.0
C145 C 0.63069 0.18717 0.38223 0.0
O146 O 0.54899 0.14881 0.31469 0.0
O147 O 0.5819 0.13251 0.32464 0.0
O148 O 0.51381 0.11411 0.39438 0.0
C149 C 0.56458 0.13619 0.3038 0.0
O150 O 0.62486 0.20024 0.35764 0.0
C151 C 0.52113 0.09331 0.40103 0.0
O152 O 0.61069 0.16549 0.39595 0.0
O153 O 0.5475 0.09747 0.39654 0.0
C154 C 0.27047 0.4955 0.91908 0.0
O155 O 0.27299 0.49881 0.8874 0.0
Cd156 Cd 0.31502 0.50498 0.85406 0.0
O157 O 0.29035 0.49227 0.93641 0.0
Cd158 Cd 0.33814 0.49002 0.92682 0.0
C159 C 0.36243 0.56061 0.90334 0.0
O160 O 0.33368 0.47087 0.8702 0.0
O161 O 0.37721 0.49135 0.88977 0.0
O162 O 0.32979 0.44613 0.95861 0.0
C163 C 0.36074 0.4788 0.86527 0.0
O164 O 0.35013 0.55136 0.87506 0.0
C165 C 0.35017 0.45865 0.9796 0.0
O166 O 0.35986 0.54335 0.92781 0.0
O167 O 0.36358 0.48608 0.97724 0.0
C168 C 0.5447 0.11682 0.24739 0.0
C169 C 0.56834 0.13344 0.26765 0.0
C170 C 0.54844 0.11387 0.21282 0.0
C171 C 0.5762 0.12895 0.19831 0.0
C172 C 0.6 0.1462 0.2188 0.0
C173 C 0.59586 0.14777 0.25343 0.0
C174 C 0.52282 0.09451 0.19192 0.0
C175 C 0.62966 0.16345 0.2041 0.0
C176 C 0.59656 0.10709 0.11406 0.0
C177 C 0.59079 0.12599 0.0923 0.0
C178 C 0.59087 0.10706 0.14859 0.0
C179 C 0.58037 0.12725 0.16158 0.0
C180 C 0.57487 0.14662 0.13961 0.0
C181 C 0.57961 0.14533 0.10508 0.0
C182 C 0.59602 0.08543 0.17112 0.0
C183 C 0.56471 0.16919 0.15262 0.0
H184 H 0.52349 0.10568 0.25872 0.0
H185 H 0.61401 0.16083 0.26934 0.0
H186 H 0.51753 0.10757 0.17264 0.0
H187 H 0.52837 0.07811 0.17839 0.0
H188 H 0.50316 0.08302 0.2074 0.0
H189 H 0.64558 0.17656 0.2234 0.0
H190 H 0.63819 0.14862 0.19199 0.0
H191 H 0.62802 0.17829 0.18434 0.0
H192 H 0.60496 0.09198 0.10396 0.0
H193 H 0.57537 0.16008 0.08812 0.0
H194 H 0.57615 0.07307 0.18586 0.0
H195 H 0.61367 0.097 0.18934 0.0
H196 H 0.60212 0.0698 0.1567 0.0
H197 H 0.54371 0.15852 0.16589 0.0
H198 H 0.56193 0.18292 0.13218 0.0
H199 H 0.58068 0.18349 0.1711 0.0
C200 C 0.42964 0.5259 0.68105 0.0
C201 C 0.44004 0.55628 0.6826 0.0
C202 C 0.41793 0.50881 0.70959 0.0
C203 C 0.41583 0.52248 0.73997 0.0
C204 C 0.4271 0.55321 0.74187 0.0
C205 C 0.43943 0.56975 0.71324 0.0
C206 C 0.40698 0.47617 0.70693 0.0
C207 C 0.42489 0.56864 0.7737 0.0
C208 C 0.35669 0.48596 0.80375 0.0
C209 C 0.373 0.48303 0.83104 0.0
C210 C 0.37011 0.49728 0.77306 0.0
C211 C 0.40034 0.50498 0.7694 0.0
C212 C 0.41624 0.49924 0.79575 0.0
C213 C 0.40243 0.48867 0.82648 0.0
C214 C 0.35245 0.50338 0.74568 0.0
C215 C 0.44826 0.50618 0.79238 0.0
H216 H 0.43024 0.51545 0.65738 0.0
H217 H 0.44729 0.59323 0.71446 0.0
H218 H 0.41517 0.4674 0.72831 0.0
H219 H 0.3829 0.46634 0.70817 0.0
H220 H 0.41369 0.46923 0.68304 0.0
H221 H 0.43508 0.59267 0.7711 0.0
H222 H 0.40169 0.56203 0.78046 0.0
H223 H 0.43556 0.56236 0.79486 0.0
H224 H 0.3339 0.4815 0.80708 0.0
H225 H 0.41502 0.48609 0.84745 0.0
H226 H 0.35609 0.49488 0.72118 0.0
H227 H 0.35951 0.52723 0.74298 0.0
H228 H 0.32879 0.49363 0.75119 0.0
H229 H 0.45295 0.49901 0.76755 0.0
H230 H 0.45611 0.49573 0.81245 0.0
H231 H 0.46079 0.53004 0.79409 0.0
C232 C 0.91024 0.40625 0.13478 0.0
C233 C 0.88037 0.39906 0.13089 0.0
C234 C 0.92194 0.4039 0.16621 0.0
C235 C 0.90327 0.39411 0.19425 0.0
C236 C 0.87313 0.38697 0.19043 0.0
C237 C 0.86207 0.38953 0.15881 0.0
C238 C 0.95415 0.41168 0.1694 0.0
C239 C 0.85247 0.37643 0.21975 0.0
C240 C 0.91787 0.35767 0.27077 0.0
C241 C 0.92277 0.37916 0.29536 0.0
C242 C 0.91381 0.36301 0.23698 0.0
C243 C 0.91469 0.39051 0.22764 0.0
C244 C 0.92237 0.41311 0.25179 0.0
C245 C 0.9264 0.40718 0.28546 0.0
C246 C 0.90602 0.33842 0.21193 0.0
C247 C 0.9238 0.44281 0.24273 0.0
H248 H 0.92449 0.4137 0.11325 0.0
H249 H 0.83899 0.384 0.15598 0.0
H250 H 0.96373 0.42871 0.1889 0.0
H251 H 0.95791 0.39239 0.17765 0.0
H252 H 0.96582 0.41965 0.14536 0.0
H253 H 0.82972 0.37219 0.21264 0.0
H254 H 0.85294 0.35608 0.22994 0.0
H255 H 0.8594 0.3928 0.24027 0.0
H256 H 0.91541 0.33606 0.27822 0.0
H257 H 0.93041 0.42397 0.30429 0.0
H258 H 0.91818 0.34603 0.18816 0.0
H259 H 0.8825 0.33025 0.20582 0.0
H260 H 0.91058 0.32002 0.22187 0.0
H261 H 0.93564 0.45047 0.21878 0.0
H262 H 0.9346 0.45911 0.26269 0.0
H263 H 0.90141 0.44155 0.23912 0.0
C264 C 0.39391 0.90567 0.80603 0.0
C265 C 0.39534 0.87838 0.80716 0.0
C266 C 0.3896 0.91729 0.77535 0.0
C267 C 0.38626 0.90096 0.74545 0.0
C268 C 0.38808 0.87358 0.74651 0.0
C269 C 0.39279 0.86276 0.77728 0.0
C270 C 0.38816 0.9467 0.77503 0.0
C271 C 0.38452 0.85534 0.71519 0.0
C272 C 0.34524 0.90345 0.6673 0.0
C273 C 0.36802 0.9134 0.64401 0.0
C274 C 0.35095 0.90221 0.70164 0.0
C275 C 0.3801 0.91153 0.71276 0.0
C276 C 0.40312 0.92526 0.68996 0.0
C277 C 0.3968 0.9259 0.6557 0.0
C278 C 0.32575 0.8876 0.72516 0.0
C279 C 0.43449 0.93623 0.70101 0.0
H280 H 0.39598 0.91786 0.82909 0.0
H281 H 0.39388 0.84166 0.77797 0.0
H282 H 0.40253 0.96063 0.75521 0.0
H283 H 0.36568 0.94411 0.76902 0.0
H284 H 0.39454 0.95803 0.79962 0.0
H285 H 0.38645 0.83449 0.72046 0.0
H286 H 0.36292 0.85039 0.7036 0.0
H287 H 0.40125 0.86755 0.69642 0.0
H288 H 0.32291 0.8942 0.6585 0.0
H289 H 0.4145 0.93421 0.63784 0.0
H290 H 0.3296 0.89902 0.74971 0.0
H291 H 0.32339 0.865 0.72994 0.0
H292 H 0.30499 0.88672 0.71438 0.0
H293 H 0.43767 0.94709 0.72589 0.0
H294 H 0.44923 0.95171 0.68253 0.0
H295 H 0.44084 0.91758 0.70346 0.0
C296 C 0.56621 0.4061 0.38313 0.0
C297 C 0.58254 0.43599 0.38733 0.0
C298 C 0.55265 0.3949 0.35235 0.0
C299 C 0.55491 0.41422 0.32557 0.0
C300 C 0.56913 0.44461 0.3308 0.0
C301 C 0.58328 0.45514 0.3615 0.0
C302 C 0.53842 0.36235 0.34772 0.0
C303 C 0.57113 0.46594 0.30322 0.0
C304 C 0.56197 0.3915 0.23665 0.0
C305 C 0.5339 0.38398 0.22392 0.0
C306 C 0.56866 0.40033 0.27007 0.0
C307 C 0.54696 0.40277 0.29089 0.0
C308 C 0.51843 0.39506 0.27819 0.0
C309 C 0.51206 0.38519 0.24482 0.0
C310 C 0.59911 0.40738 0.28291 0.0
C311 C 0.49502 0.39811 0.29948 0.0
H312 H 0.56574 0.39122 0.40308 0.0
H313 H 0.59566 0.47829 0.36492 0.0
H314 H 0.51838 0.35579 0.33229 0.0
H315 H 0.55367 0.35507 0.33435 0.0
H316 H 0.53288 0.35084 0.37221 0.0
H317 H 0.57816 0.48846 0.31301 0.0
H318 H 0.58712 0.46573 0.28417 0.0
H319 H 0.54984 0.4597 0.29033 0.0
H320 H 0.57874 0.39027 0.2204 0.0
H321 H 0.4904 0.37952 0.23468 0.0
H322 H 0.59832 0.39507 0.3063 0.0
H323 H 0.60992 0.43084 0.28912 0.0
H324 H 0.61268 0.40214 0.26421 0.0
H325 H 0.49237 0.38578 0.32323 0.0
H326 H 0.47372 0.3903 0.28624 0.0
H327 H 0.50149 0.42128 0.30639 0.0
C328 C 0.08163 0.57246 0.72675 0.0
C329 C 0.10638 0.56735 0.71905 0.0
C330 C 0.07664 0.57941 0.75973 0.0
C331 C 0.09711 0.58164 0.78532 0.0
C332 C 0.12191 0.57614 0.77768 0.0
C333 C 0.12611 0.56886 0.74475 0.0
C334 C 0.04971 0.58465 0.76716 0.0
C335 C 0.14439 0.57851 0.80418 0.0
C336 C 0.10635 0.62724 0.86385 0.0
C337 C 0.09503 0.60569 0.88845 0.0
C338 C 0.10579 0.6198 0.82976 0.0
C339 C 0.09321 0.59016 0.82013 0.0
C340 C 0.08004 0.56848 0.84465 0.0
C341 C 0.08134 0.57649 0.87859 0.0
C342 C 0.12033 0.64353 0.80439 0.0
C343 C 0.066 0.53668 0.8353 0.0
H344 H 0.06628 0.57123 0.70698 0.0
H345 H 0.14533 0.565 0.73901 0.0
H346 H 0.03731 0.57031 0.7879 0.0
H347 H 0.05595 0.6074 0.77565 0.0
H348 H 0.03524 0.58069 0.74485 0.0
H349 H 0.16252 0.57364 0.79404 0.0
H350 H 0.15358 0.60079 0.81493 0.0
H351 H 0.13413 0.56326 0.82508 0.0
H352 H 0.11693 0.64985 0.87138 0.0
H353 H 0.07226 0.55978 0.89751 0.0
H354 H 0.10582 0.6411 0.78249 0.0
H355 H 0.1403 0.64177 0.7949 0.0
H356 H 0.12645 0.66556 0.81533 0.0
H357 H 0.05137 0.53335 0.81329 0.0
H358 H 0.05329 0.52304 0.85641 0.0
H359 H 0.08303 0.52901 0.8281 0.0
C360 C 0.55479 0.02555 0.92935 0.0
C361 C 0.57922 0.03801 0.95013 0.0
C362 C 0.53981 -0.00463 0.92725 0.0
C363 C 0.54939 0.97728 0.9467 0.0
C364 C 0.57535 -0.01035 0.96569 0.0
C365 C 0.59009 0.02002 0.96711 0.0
C366 C 0.51251 0.98299 0.90605 0.0
C367 C 0.58638 0.97112 0.98654 0.0
C368 C 0.48329 0.91093 0.96924 0.0
C369 C 0.48247 0.89242 0.94256 0.0
C370 C 0.50693 0.93771 0.97326 0.0
C371 C 0.53004 0.94607 0.94987 0.0
C372 C 0.53098 0.92592 0.92559 0.0
C373 C 0.50712 0.89916 0.92227 0.0
C374 C 0.50554 0.95831 0.00017 0.0
C375 C 0.55556 0.9338 0.9007 0.0
H376 H 0.54656 0.03944 0.91591 0.0
H377 H 0.60903 0.0296 0.98322 0.0
H378 H 0.51301 0.96541 0.88953 0.0
H379 H 0.49328 0.97338 0.92264 0.0
H380 H 0.50962 -0.00023 0.89009 0.0
H381 H 0.60976 0.98291 0.99301 0.0
H382 H 0.5739 0.96512 0.01031 0.0
H383 H 0.58335 0.95068 0.97325 0.0
H384 H 0.46452 0.90555 0.9854 0.0
H385 H 0.50679 0.88472 0.90185 0.0
H386 H 0.50012 0.97554 0.98844 0.0
H387 H 0.52689 0.96907 0.01292 0.0
H388 H 0.48878 0.94703 0.01937 0.0
H389 H 0.55226 0.94741 0.88052 0.0
H390 H 0.55649 0.91416 0.88888 0.0
H391 H 0.57678 0.9466 0.91291 0.0
C392 C 0.56439 0.61957 0.56532 0.0
C393 C 0.5385 0.60717 0.54671 0.0
C394 C 0.58711 0.61044 0.56042 0.0
C395 C 0.58366 0.58846 0.53644 0.0
C396 C 0.55877 0.57809 0.51536 0.0
C397 C 0.5365 0.58759 0.52078 0.0
C398 C 0.61359 0.62252 0.58283 0.0
C399 C 0.55441 0.55501 0.48904 0.0
C400 C 0.63928 0.56066 0.50715 0.0
C401 C 0.62961 0.5339 0.52398 0.0
C402 C 0.62635 0.58031 0.51317 0.0
C403 C 0.60328 0.57288 0.53647 0.0
C404 C 0.59568 0.54736 0.55605 0.0
C405 C 0.60897 0.52818 0.54957 0.0
C406 C 0.63559 0.60764 0.4924 0.0
C407 C 0.5715 0.53883 0.58159 0.0
H408 H 0.56614 0.63488 0.5853 0.0
H409 H 0.5167 0.57826 0.506 0.0
H410 H 0.61131 0.60702 0.60357 0.0
H411 H 0.6336 0.62545 0.56874 0.0
H412 H 0.61624 0.64368 0.59408 0.0
H413 H 0.53543 0.55154 0.4725 0.0
H414 H 0.57404 0.56098 0.47314 0.0
H415 H 0.55084 0.53412 0.50156 0.0
H416 H 0.65547 0.5654 0.48754 0.0
H417 H 0.60171 0.50774 0.56302 0.0
H418 H 0.63541 0.6261 0.50756 0.0
H419 H 0.62008 0.60408 0.47124 0.0
H420 H 0.65766 0.61368 0.48172 0.0
H421 H 0.57418 0.55748 0.5982 0.0
H422 H 0.57067 0.52034 0.59746 0.0
H423 H 0.55033 0.5324 0.56837 0.0
C424 C 0.00952 0.62172 0.01412 0.0
C425 C 0.02644 0.61239 0.0353 0.0
C426 C 0.97962 0.60492 0.01039 0.0
C427 C 0.96682 0.57855 0.02833 0.0
C428 C 0.98291 0.57194 0.05387 0.0
C429 C 0.01267 0.58903 0.05703 0.0
C430 C 0.96282 0.6135 0.98418 0.0
C431 C 0.96979 0.54456 0.07456 0.0
C432 C 0.89058 0.52066 0.02572 0.0
C433 C 0.89501 0.49971 0.00582 0.0
C434 C 0.91297 0.54825 0.0306 0.0
C435 C 0.9402 0.55472 0.0153 0.0
C436 C 0.94338 0.53499 0.99177 0.0
C437 C 0.92065 0.50768 0.98729 0.0
C438 C 0.90823 0.56908 0.05474 0.0
C439 C 0.97187 0.54133 0.9741 0.0
H440 H 0.02 0.64016 -0.00233 0.0
H441 H 0.02566 0.58224 0.07405 0.0
H442 H 0.96368 0.60297 0.95991 0.0
H443 H 0.93964 0.60635 0.9913 0.0
H444 H 0.97235 0.63739 0.98024 0.0
H445 H 0.98378 0.54478 0.09634 0.0
H446 H 0.94808 0.54167 0.08404 0.0
H447 H 0.96693 0.52547 0.05858 0.0
H448 H 0.87053 0.51483 0.03969 0.0
H449 H 0.92393 0.49177 0.97133 0.0
H450 H 0.92195 0.59203 0.04844 0.0
H451 H 0.91397 0.56483 0.08055 0.0
H452 H 0.88506 0.56598 0.05487 0.0
H453 H 0.98023 0.56327 0.96264 0.0
H454 H 0.96975 0.52518 0.95407 0.0
H455 H -0.01172 0.54096 0.99262 0.0
C456 C 0.49578 0.04022 0.39237 0.0
C457 C 0.49948 0.06493 0.41131 0.0
C458 C 0.4744 0.01299 0.40097 0.0
C459 C 0.4574 0.01043 0.43005 0.0
C460 C 0.46125 0.03547 0.44931 0.0
C461 C 0.48188 0.06263 0.4392 0.0
C462 C 0.47008 0.98699 0.3791 0.0
C463 C 0.44425 0.03346 0.48115 0.0
C464 C 0.38767 0.94554 0.45024 0.0
C465 C 0.39803 0.93 0.47206 0.0
C466 C 0.40701 0.9709 0.43443 0.0
C467 C 0.43711 0.9814 0.44187 0.0
C468 C 0.44768 0.96514 0.46292 0.0
C469 C 0.42804 0.93933 0.47722 0.0
C470 C 0.39515 0.98707 0.41093 0.0
C471 C 0.47949 0.976 0.4723 0.0
H472 H 0.50921 0.04236 0.3704 0.0
H473 H 0.48488 0.08197 0.45361 0.0
H474 H 0.47648 0.97141 0.3931 0.0
H475 H 0.44677 0.97547 0.37231 0.0
H476 H 0.48305 -0.0068 0.35564 0.0
H477 H 0.45012 0.05497 0.49338 0.0
H478 H 0.42061 0.0241 0.47559 0.0
H479 H 0.44833 0.01871 0.49924 0.0
H480 H 0.36447 0.93827 0.44616 0.0
H481 H 0.43613 0.92751 0.49436 0.0
H482 H 0.40852 -0.0064 0.38781 0.0
H483 H 0.39611 0.00721 0.42331 0.0
H484 H 0.37222 0.9738 0.40368 0.0
H485 H 0.49312 0.98047 0.44942 0.0
H486 H 0.48427 0.96023 0.48811 0.0
H487 H 0.48609 -0.00325 0.4864 0.0
C488 C 0.37993 0.45571 0.02859 0.0
C489 C 0.36087 0.44182 0.00218 0.0
C490 C 0.3951 0.44173 0.04567 0.0
C491 C 0.39156 0.4135 0.03551 0.0
C492 C 0.37084 0.39863 0.01044 0.0
C493 C 0.35548 0.4129 0.99429 0.0
C494 C 0.41643 0.45799 0.07295 0.0
C495 C 0.36669 0.36866 -0.00138 0.0
C496 C 0.45941 0.39871 0.04441 0.0
C497 C 0.45302 0.38088 0.07286 0.0
C498 C 0.43916 0.40871 0.03149 0.0
C499 C 0.41214 0.40123 0.04792 0.0
C500 C 0.40541 0.38292 0.07644 0.0
C501 C 0.42587 0.37268 0.08839 0.0
C502 C 0.4469 0.4277 0.00055 0.0
C503 C 0.37706 0.37496 0.09492 0.0
H504 H 0.38395 0.47799 0.03493 0.0
H505 H 0.34082 0.40209 0.9738 0.0
H506 H 0.41414 0.44377 0.09502 0.0
H507 H 0.43893 0.46479 0.06342 0.0
H508 H 0.41344 0.4777 0.08129 0.0
H509 H 0.34718 0.35862 0.9823 0.0
H510 H 0.38606 0.37014 0.98409 0.0
H511 H 0.36462 0.35411 0.02029 0.0
H512 H 0.48033 0.40492 0.03226 0.0
H513 H 0.421 0.35905 0.11058 0.0
H514 H 0.44816 0.44965 0.00696 0.0
H515 H 0.42975 0.41846 0.98107 0.0
H516 H 0.46805 0.43002 0.98964 0.0
H517 H 0.37592 0.39486 0.10563 0.0
H518 H 0.37454 0.35935 0.11566 0.0
H519 H 0.35844 0.36529 0.07733 0.0
C520 C 0.95491 0.39488 0.50188 0.0
C521 C 0.95903 0.38058 0.47342 0.0
C522 C 0.97857 0.41261 0.52153 0.0
C523 C 0.00701 0.4165 0.51205 0.0
C524 C 0.01108 0.40028 0.48492 0.0
C525 C 0.98689 0.38224 0.46599 0.0
C526 C 0.97326 0.42901 0.55078 0.0
C527 C 0.04108 0.40388 0.47403 0.0
C528 C 0.0625 0.49229 0.53112 0.0
C529 C 0.0755 0.48783 0.56053 0.0
C530 C 0.04112 0.46894 0.51425 0.0
C531 C 0.03225 0.4405 0.52744 0.0
C532 C 0.04595 0.43571 0.55654 0.0
C533 C 0.0676 0.45947 0.57267 0.0
C534 C 0.02731 0.47488 0.48295 0.0
C535 C 0.03687 0.40574 0.57145 0.0
H536 H 0.9333 0.39333 0.50786 0.0
H537 H -0.00989 0.37123 0.44392 0.0
H538 H 0.98601 0.4278 0.5731 0.0
H539 H 0.98049 0.45228 0.54404 0.0
H540 H 0.94991 0.42049 0.55773 0.0
H541 H 0.04032 0.38641 0.45644 0.0
H542 H 0.05189 0.4251 0.46114 0.0
H543 H 0.05469 0.40395 0.49606 0.0
H544 H 0.06875 0.51413 0.52148 0.0
H545 H 0.07761 0.45594 0.59546 0.0
H546 H 0.00412 0.47016 0.48787 0.0
H547 H 0.02798 0.46043 0.46217 0.0
H548 H 0.03828 0.4978 0.47453 0.0
H549 H 0.01465 0.39863 0.58197 0.0
H550 H 0.05179 0.40517 0.59183 0.0
H551 H 0.03608 0.38979 0.55177 0.0
C552 C 0.58278 0.21845 0.99016 0.0
C553 C 0.56717 0.18937 0.9809 0.0
C554 C 0.56846 0.23532 0.00239 0.0
C555 C 0.53782 0.22263 0.00589 0.0
C556 C 0.52179 0.19396 0.99422 0.0
C557 C 0.53668 0.17769 0.98162 0.0
C558 C 0.58637 0.26605 0.01388 0.0
C559 C 0.48915 0.17963 -0.00242 0.0
C560 C 0.51471 0.25505 0.08019 0.0
C561 C 0.5068 0.27579 0.06461 0.0
C562 C 0.52277 0.23605 0.06113 0.0
C563 C 0.52338 0.23819 0.02561 0.0
C564 C 0.51333 0.2576 0.00967 0.0
C565 C 0.50492 0.27609 0.02943 0.0
C566 C 0.53271 0.21518 0.07915 0.0
C567 C 0.51372 0.26058 0.97191 0.0
H568 H 0.60634 0.22763 0.98942 0.0
H569 H 0.52447 0.15517 0.97462 0.0
H570 H 0.57704 0.2811 0.004 0.0
H571 H 0.58601 0.26711 0.04173 0.0
H572 H 0.60937 0.27382 0.00566 0.0
H573 H 0.47959 0.1594 0.98238 0.0
H574 H 0.48346 0.17401 0.02433 0.0
H575 H 0.47905 0.19463 0.98976 0.0
H576 H 0.51604 0.25468 0.10739 0.0
H577 H 0.49901 0.29224 0.01726 0.0
H578 H 0.55657 0.22252 0.07632 0.0
H579 H 0.52233 0.19314 0.06796 0.0
H580 H 0.5276 0.21371 0.10642 0.0
H581 H 0.53648 0.27241 0.96342 0.0
H582 H 0.5008 0.27279 0.96331 0.0
H583 H 0.50514 0.23895 0.95957 0.0
C584 C 0.35475 0.57697 0.54079 0.0
C585 C 0.3672 0.56669 0.56641 0.0
C586 C 0.32526 0.57223 0.54226 0.0
C587 C 0.30833 0.55689 0.56993 0.0
C588 C 0.32008 0.54311 0.59311 0.0
C589 C 0.3496 0.54855 0.59131 0.0
C590 C 0.31347 0.58695 0.5168 0.0
C591 C 0.30268 0.52607 0.62259 0.0
C592 C 0.26159 0.58841 0.61462 0.0
C593 C 0.23344 0.56846 0.60666 0.0
C594 C 0.28598 0.58552 0.60137 0.0
C595 C 0.28222 0.56175 0.5799 0.0
C596 C 0.25387 0.542 0.57078 0.0
C597 C 0.22969 0.54568 0.58419 0.0
C598 C 0.31585 0.60751 0.61128 0.0
C599 C 0.24904 0.51645 0.54799 0.0
H600 H 0.3686 0.59121 0.52171 0.0
H601 H 0.35949 0.54069 0.61109 0.0
H602 H 0.29027 0.57357 0.5111 0.0
H603 H 0.31502 0.60802 0.52721 0.0
H604 H 0.32608 0.59137 0.49304 0.0
H605 H 0.31276 0.51221 0.6341 0.0
H606 H 0.30154 0.54141 0.64208 0.0
H607 H 0.28012 0.51211 0.61486 0.0
H608 H 0.26462 0.6064 0.63143 0.0
H609 H 0.20792 0.53029 0.57785 0.0
H610 H 0.32902 0.61685 0.58855 0.0
H611 H 0.32737 0.59671 0.62615 0.0
H612 H 0.31489 0.62562 0.62654 0.0
H613 H 0.26427 0.523 0.52644 0.0
H614 H 0.2264 0.50659 0.53822 0.0
H615 H 0.25331 0.49959 0.56222 0.0
C616 C 0.81566 0.31204 0.95936 0.0
C617 C 0.81139 0.31876 0.9926 0.0
C618 C 0.79826 0.2848 0.94535 0.0
C619 C 0.77585 0.26434 0.96494 0.0
C620 C 0.77306 0.27035 -0.00077 0.0
C621 C 0.79105 0.29731 0.01264 0.0
C622 C 0.80287 0.27883 0.90916 0.0
C623 C 0.74957 0.24923 0.0213 0.0
C624 C 0.70092 0.21616 0.93654 0.0
C625 C 0.69988 0.18908 0.94672 0.0
C626 C 0.72697 0.241 0.93808 0.0
C627 C 0.75255 0.23847 0.94952 0.0
C628 C 0.75249 0.21058 0.95447 0.0
C629 C 0.72597 0.18609 0.95347 0.0
C630 C 0.72615 0.27029 0.93187 0.0
C631 C 0.77977 0.20689 0.96452 0.0
H632 H 0.83163 0.32843 0.94384 0.0
H633 H 0.788 0.30214 0.03856 0.0
H634 H 0.79607 0.25526 0.90428 0.0
H635 H 0.78985 0.28685 0.89269 0.0
H636 H 0.82606 0.29046 0.90201 0.0
H637 H 0.75092 0.25705 0.04764 0.0
H638 H 0.72784 0.24577 0.01108 0.0
H639 H 0.75115 0.22787 0.02163 0.0
H640 H 0.68093 0.21852 0.93049 0.0
H641 H 0.72545 0.16504 0.96045 0.0
H642 H 0.74494 0.28411 0.91643 0.0
H643 H 0.72758 0.28154 0.95628 0.0
H644 H 0.70582 0.26836 0.91895 0.0
H645 H 0.79906 0.22307 0.95165 0.0
H646 H 0.77812 0.18468 0.95855 0.0
H647 H 0.78324 0.21035 0.99202 0.0
C648 C 0.36899 0.77523 0.61231 0.0
C649 C 0.37572 0.79651 0.58721 0.0
C650 C 0.38246 0.75556 0.6131 0.0
C651 C 0.40336 0.7574 0.5884 0.0
C652 C 0.4106 0.77911 0.56334 0.0
C653 C 0.39662 0.7983 0.56295 0.0
C654 C 0.37394 0.7325 0.64004 0.0
C655 C 0.43291 0.78189 0.53671 0.0
C656 C 0.45448 0.72023 0.60707 0.0
C657 C 0.44131 0.69418 0.58901 0.0
C658 C 0.44268 0.74128 0.60663 0.0
C659 C 0.41691 0.73594 0.58807 0.0
C660 C 0.40376 0.70984 0.56947 0.0
C661 C 0.41622 0.6894 0.56998 0.0
C662 C 0.45749 0.76902 0.62647 0.0
C663 C 0.3761 0.70316 0.54964 0.0
H664 H 0.35286 0.77362 0.63112 0.0
H665 H 0.40212 0.81477 0.54356 0.0
H666 H 0.36456 0.71062 0.62826 0.0
H667 H 0.39343 0.73404 0.65448 0.0
H668 H 0.35778 0.73437 0.65782 0.0
H669 H 0.43696 0.8007 0.51981 0.0
H670 H 0.45377 0.78441 0.54867 0.0
H671 H 0.42546 0.76181 0.52124 0.0
H672 H 0.47384 0.72404 0.62185 0.0
H673 H 0.40573 0.66921 0.55618 0.0
H674 H 0.44271 0.77046 0.64637 0.0
H675 H 0.46248 0.7881 0.60981 0.0
H676 H 0.47799 0.77038 0.63848 0.0
H677 H 0.35851 0.70266 0.56674 0.0
H678 H 0.36876 0.68197 0.53629 0.0
H679 H 0.37937 0.7205 0.53088 0.0
C680 C 0.6265 0.4026 0.06939 0.0
C681 C 0.61219 0.38101 0.09314 0.0
C682 C 0.65567 0.40954 0.06113 0.0
C683 C 0.67067 0.39435 0.07686 0.0
C684 C 0.65637 0.3727 0.10103 0.0
C685 C 0.62733 0.36636 0.10895 0.0
C686 C 0.67034 0.43285 0.03535 0.0
C687 C 0.6716 0.35587 0.11813 0.0
C688 C 0.73491 0.38782 0.03404 0.0
C689 C 0.75831 0.40731 0.05283 0.0
C690 C 0.7063 0.38397 0.04104 0.0
C691 C 0.70101 0.40019 0.06728 0.0
C692 C 0.72459 0.42061 0.08564 0.0
C693 C 0.75302 0.42384 0.07828 0.0
C694 C 0.68168 0.36181 0.0211 0.0
C695 C 0.71971 0.43842 0.11365 0.0
H696 H 0.61489 0.41403 0.05718 0.0
H697 H 0.61637 0.34962 0.12731 0.0
H698 H 0.69046 0.44972 0.04611 0.0
H699 H 0.67685 0.42329 0.01335 0.0
H700 H 0.65602 0.44344 0.02646 0.0
H701 H 0.65755 0.34015 0.13688 0.0
H702 H 0.67841 0.34373 0.09909 0.0
H703 H 0.69156 0.37102 0.13103 0.0
H704 H 0.73886 0.37496 0.01433 0.0
H705 H 0.77106 0.43903 0.09277 0.0
H706 H 0.66772 0.37198 0.01017 0.0
H707 H 0.66782 0.34413 0.03797 0.0
H708 H 0.68958 0.35204 0.00041 0.0
H709 H 0.70616 0.44977 0.10456 0.0
H710 H 0.74044 0.45483 0.12382 0.0
H711 H 0.7077 0.42389 0.13444 0.0
C712 C 0.19405 0.68705 0.6035 0.0
C713 C 0.17246 0.66189 0.58983 0.0
C714 C 0.20503 0.71311 0.58564 0.0
C715 C 0.19366 0.71451 0.55331 0.0
C716 C 0.17088 0.68959 0.53982 0.0
C717 C 0.16081 0.66338 0.55808 0.0
C718 C 0.22945 0.73895 0.60133 0.0
C719 C 0.15756 0.69007 0.50592 0.0
C720 C 0.22167 0.79395 0.54346 0.0
C721 C 0.24961 0.79893 0.53197 0.0
C722 C 0.19988 0.76569 0.54409 0.0
C723 C 0.20691 0.74225 0.53435 0.0
C724 C 0.23295 0.74802 0.51641 0.0
C725 C 0.25413 0.77663 0.51517 0.0
C726 C 0.17133 0.76052 0.56075 0.0
C727 C 0.24067 0.72368 0.50406 0.0
H728 H 0.20325 0.68624 0.62797 0.0
H729 H 0.14405 0.64405 0.54731 0.0
H730 H 0.24853 0.747 0.58437 0.0
H731 H 0.22232 0.75692 0.60533 0.0
H732 H 0.23659 0.73367 0.62596 0.0
H733 H 0.13428 0.67482 0.50533 0.0
H734 H 0.1593 0.71211 0.4991 0.0
H735 H 0.16896 0.68279 0.48649 0.0
H736 H 0.21796 0.8114 0.5558 0.0
H737 H 0.27563 0.78056 0.50578 0.0
H738 H 0.17286 0.75634 0.58793 0.0
H739 H 0.15345 0.74128 0.54971 0.0
H740 H 0.16592 0.7798 0.55828 0.0
H741 H 0.2481 0.71439 0.52564 0.0
H742 H 0.2584 0.73145 0.48519 0.0
H743 H 0.22144 0.70605 0.49273 0.0
C744 C 0.79998 0.39259 0.37592 0.0
C745 C 0.82678 0.39719 0.39084 0.0
C746 C 0.78323 0.40726 0.38762 0.0
C747 C 0.79379 0.42739 0.41448 0.0
C748 C 0.82141 0.43307 0.42864 0.0
C749 C 0.83746 0.41771 0.41686 0.0
C750 C 0.75369 0.40034 0.37214 0.0
C751 C 0.83363 0.45474 0.45687 0.0
C752 C 0.75387 0.4768 0.42666 0.0
C753 C 0.7337 0.4618 0.45154 0.0
C754 C 0.77467 0.46672 0.41548 0.0
C755 C 0.77495 0.44084 0.42918 0.0
C756 C 0.75567 0.42653 0.45555 0.0
C757 C 0.73547 0.43733 0.4666 0.0
C758 C 0.79534 0.48293 0.38785 0.0
C759 C 0.75511 0.39876 0.47071 0.0
H760 H 0.79157 0.37671 0.3559 0.0
H761 H 0.85831 0.42159 0.42829 0.0
H762 H 0.73658 0.39048 0.39136 0.0
H763 H 0.75206 0.42056 0.36333 0.0
H764 H 0.74916 0.38505 0.35058 0.0
H765 H 0.85652 0.4587 0.4629 0.0
H766 H 0.83261 0.47574 0.45018 0.0
H767 H 0.82035 0.44662 0.47981 0.0
H768 H 0.75269 0.49576 0.41496 0.0
H769 H 0.71993 0.42554 0.48579 0.0
H770 H 0.78943 0.46993 0.36434 0.0
H771 H 0.81791 0.48618 0.39445 0.0
H772 H 0.79481 0.50445 0.38285 0.0
H773 H 0.74816 0.38135 0.45136 0.0
H774 H 0.74003 0.39129 0.49239 0.0
H775 H 0.77718 0.40179 0.47925 0.0
C776 C 0.3087 0.81665 0.97697 0.0
C777 C 0.30492 0.80972 0.94259 0.0
C778 C 0.28534 0.80483 -0.00052 0.0
C779 C 0.25805 0.78491 0.98734 0.0
C780 C 0.25361 0.78001 0.95227 0.0
C781 C 0.27695 0.79294 0.93038 0.0
C782 C 0.29064 0.81243 0.03627 0.0
C783 C 0.22495 0.7589 0.93786 0.0
C784 C 0.21163 0.71431 0.02666 0.0
C785 C 0.18469 0.71643 0.02533 0.0
C786 C 0.23722 0.73824 0.01873 0.0
C787 C 0.23572 0.76499 0.01038 0.0
C788 C 0.2095 0.76852 0.01555 0.0
C789 C 0.18394 0.74393 0.02222 0.0
C790 C 0.26495 0.73366 0.01462 0.0
C791 C 0.20777 0.79748 0.01029 0.0
H792 H 0.33011 0.83023 0.98659 0.0
H793 H 0.2736 0.78795 0.90378 0.0
H794 H 0.27016 0.80749 0.05031 0.0
H795 H 0.30237 0.80008 0.04764 0.0
H796 H 0.30476 0.83589 0.03933 0.0
H797 H 0.22533 0.75748 0.91001 0.0
H798 H 0.21954 0.73685 0.94826 0.0
H799 H 0.20723 0.76559 0.9449 0.0
H800 H 0.21245 0.69325 0.03005 0.0
H801 H 0.16324 0.74591 0.02239 0.0
H802 H 0.28314 0.75102 0.02784 0.0
H803 H 0.27063 0.73474 0.98756 0.0
H804 H 0.26297 0.7123 0.02458 0.0
H805 H 0.2286 0.81566 0.01717 0.0
H806 H 0.18995 0.79913 0.02542 0.0
H807 H 0.20321 0.7999 0.98344 0.0
C808 C 0.56001 0.23071 0.45284 0.0
C809 C 0.5519 0.23193 0.41926 0.0
C810 C 0.56704 0.25495 0.47413 0.0
C811 C 0.56607 0.2808 0.4613 0.0
C812 C 0.55416 0.28067 0.42894 0.0
C813 C 0.54714 0.25617 0.40835 0.0
C814 C 0.57841 0.25382 0.50899 0.0
C815 C 0.55212 0.30756 0.41441 0.0
C816 C 0.58455 0.35338 0.50426 0.0
C817 C 0.6124 0.36901 0.4912 0.0
C818 C 0.56977 0.32348 0.49762 0.0
C819 C 0.5833 0.30928 0.47746 0.0
C820 C 0.61262 0.32444 0.46753 0.0
C821 C 0.62677 0.35412 0.47455 0.0
C822 C 0.53892 0.30791 0.50963 0.0
C823 C 0.62818 0.31015 0.44648 0.0
H824 H 0.5633 0.21186 0.46169 0.0
H825 H 0.54017 0.25696 0.38268 0.0
H826 H 0.60251 0.26287 0.50844 0.0
H827 H 0.57189 0.26701 0.52693 0.0
H828 H 0.57048 0.23113 0.51837 0.0
H829 H 0.53896 0.30275 0.39094 0.0
H830 H 0.54235 0.31754 0.43281 0.0
H831 H 0.57428 0.32385 0.40855 0.0
H832 H 0.57341 0.36485 0.51729 0.0
H833 H 0.64851 0.36614 0.46494 0.0
H834 H 0.53373 0.28471 0.51506 0.0
H835 H 0.52378 0.30883 0.48974 0.0
H836 H 0.53494 0.31838 0.53257 0.0
H837 H 0.62601 0.28925 0.45785 0.0
H838 H 0.65168 0.32415 0.44367 0.0
H839 H 0.61821 0.30535 0.42104 0.0
C840 C 0.19437 0.59098 0.98264 0.0
C841 C 0.16621 0.57852 0.99589 0.0
C842 C 0.20951 0.5738 0.9743 0.0
C843 C 0.19611 0.54334 0.97917 0.0
C844 C 0.16828 0.53078 0.99414 0.0
C845 C 0.15365 0.54856 0.00241 0.0
C846 C 0.23932 0.58814 0.95875 0.0
C847 C 0.15334 0.49843 -0.00018 0.0
C848 C 0.22482 0.50412 0.91745 0.0
C849 C 0.24693 0.50083 0.93634 0.0
C850 C 0.20657 0.51596 0.93187 0.0
C851 C 0.21054 0.52479 0.96599 0.0
C852 C 0.23108 0.51919 0.98593 0.0
C853 C 0.24899 0.50718 0.97089 0.0
C854 C 0.18461 0.52116 0.90982 0.0
C855 C 0.23582 0.52805 0.02247 0.0
H856 H 0.20429 0.61414 0.97775 0.0
H857 H 0.13186 0.53877 0.0126 0.0
H858 H 0.2551 0.58178 0.97246 0.0
H859 H 0.23853 0.58073 0.93234 0.0
H860 H 0.24751 0.61223 0.95889 0.0
H861 H 0.13361 0.49257 0.01562 0.0
H862 H 0.14682 0.48717 0.97524 0.0
H863 H 0.16837 0.49015 0.01202 0.0
H864 H 0.22281 0.49897 0.89084 0.0
H865 H 0.2659 0.50462 0.9858 0.0
H866 H 0.19199 0.5448 0.90505 0.0
H867 H 0.16325 0.51375 0.92256 0.0
H868 H 0.18164 0.50981 0.88522 0.0
H869 H 0.24759 0.55201 0.02423 0.0
H870 H 0.24882 0.51789 0.03578 0.0
H871 H 0.21476 0.52205 0.03559 0.0
C872 C 0.68189 0.22364 0.38201 0.0
C873 C 0.66116 0.19733 0.39411 0.0
C874 C 0.71128 0.23291 0.39038 0.0
C875 C 0.72038 0.21543 0.41153 0.0
C876 C 0.69944 0.18953 0.4253 0.0
C877 C 0.67 0.1807 0.41632 0.0
C878 C 0.73273 0.26096 0.37535 0.0
C879 C 0.70802 0.17042 0.44827 0.0
C880 C 0.79651 0.23399 0.38471 0.0
C881 C 0.81074 0.25896 0.40423 0.0
C882 C 0.76726 0.21607 0.39044 0.0
C883 C 0.7521 0.22369 0.41603 0.0
C884 C 0.76783 0.24565 0.43949 0.0
C885 C 0.79722 0.26319 0.4333 0.0
C886 C 0.75162 0.19198 0.36574 0.0
C887 C 0.7527 0.25345 0.4681 0.0
H888 H 0.67524 0.23688 0.36528 0.0
H889 H 0.65408 0.16038 0.42598 0.0
H890 H 0.74572 0.27581 0.39552 0.0
H891 H 0.74803 0.25639 0.35864 0.0
H892 H 0.72188 0.27245 0.36044 0.0
H893 H 0.6899 0.15766 0.46531 0.0
H894 H 0.71333 0.15482 0.43287 0.0
H895 H 0.72742 0.18325 0.46367 0.0
H896 H 0.80721 0.23035 0.36261 0.0
H897 H 0.80829 0.28229 0.44876 0.0
H898 H 0.73973 0.19967 0.34723 0.0
H899 H 0.7355 0.1728 0.37876 0.0
H900 H 0.76699 0.1852 0.35181 0.0
H901 H 0.74247 0.26789 0.45865 0.0
H902 H 0.76827 0.26513 0.48841 0.0
H903 H 0.73528 0.23375 0.47876 0.0
C904 C 0.38954 0.61028 0.88109 0.0
C905 C 0.37641 0.59228 0.9084 0.0
C906 C 0.396 0.64007 0.88228 0.0
C907 C 0.38852 0.6519 0.91125 0.0
C908 C 0.37798 0.63436 0.94012 0.0
C909 C 0.37223 0.60464 0.93844 0.0
C910 C 0.40791 0.65815 0.85121 0.0
C911 C 0.36973 0.64613 0.97148 0.0
C912 C 0.40731 0.73315 0.91028 0.0
C913 C 0.38217 0.73366 0.89539 0.0
C914 C 0.40957 0.70663 0.91673 0.0
C915 C 0.38597 0.68023 0.9085 0.0
C916 C 0.36008 0.68073 0.89496 0.0
C917 C 0.35862 0.70741 0.88832 0.0
C918 C 0.43753 0.7069 0.931 0.0
C919 C 0.33413 0.65305 0.88644 0.0
H920 H 0.39312 0.60073 0.85799 0.0
H921 H 0.36203 0.5907 0.95959 0.0
H922 H 0.39011 0.66178 0.83815 0.0
H923 H 0.42487 0.67974 0.85798 0.0
H924 H 0.41732 0.64728 0.83338 0.0
H925 H 0.36797 0.63203 0.99359 0.0
H926 H 0.38578 0.66844 0.97718 0.0
H927 H 0.34833 0.64722 0.96749 0.0
H928 H 0.42554 0.75345 0.91583 0.0
H929 H 0.33896 0.7077 0.87735 0.0
H930 H 0.44908 0.70018 0.91121 0.0
H931 H 0.43303 0.69112 0.95192 0.0
H932 H 0.45218 0.72879 0.94028 0.0
H933 H 0.33984 0.64144 0.86582 0.0
H934 H 0.31499 0.65724 0.87837 0.0
H935 H 0.32785 0.63836 0.90851 0.0
loop_
_geom_bond_atom_site_label_1
_geom_bond_atom_site_label_2
_geom_bond_distance
_geom_bond_site_symmetry_2
_ccdc_geom_bond_type
C0 O1 1.306 . S
C0 O3 1.160 . S
O1 C0 1.306 . S
O1 Cd2 2.228 . S
Cd2 O1 2.228 . S
Cd2 O6 2.273 . S
Cd2 O10 2.277 . S
O3 C0 1.160 . S
O3 Cd4 2.203 . S
Cd4 O3 2.203 . S
Cd4 O6 2.411 . S
Cd4 O7 2.333 . S
Cd4 O8 2.352 . S
Cd4 O12 2.277 . S
Cd4 O13 2.356 . S
C5 O10 1.209 . S
C5 O12 1.226 . S
O6 Cd2 2.273 . S
O6 Cd4 2.411 . S
O6 C9 1.320 . S
O7 Cd4 2.333 . S
O7 C9 1.214 . S
O8 Cd4 2.352 . S
O8 C11 1.258 . S
C9 O6 1.320 . S
C9 O7 1.214 . S
O10 Cd2 2.277 . S
O10 C5 1.209 . S
C11 O8 1.258 . S
C11 O13 1.282 . S
O12 Cd4 2.277 . S
O12 C5 1.226 . S
O13 Cd4 2.356 . S
O13 C11 1.282 . S
C14 O15 1.306 . S
C14 O17 1.160 . S
O15 C14 1.306 . S
O15 Cd16 2.228 . S
Cd16 O15 2.228 . S
Cd16 O20 2.273 . S
Cd16 O24 2.277 . S
O17 C14 1.160 . S
O17 Cd18 2.203 . S
Cd18 O17 2.203 . S
Cd18 O20 2.411 . S
Cd18 O21 2.333 . S
Cd18 O22 2.352 . S
Cd18 O26 2.277 . S
Cd18 O27 2.356 . S
C19 O24 1.209 . S
C19 O26 1.226 . S
O20 Cd16 2.273 . S
O20 Cd18 2.411 . S
O20 C23 1.320 . S
O21 Cd18 2.333 . S
O21 C23 1.214 . S
O22 Cd18 2.352 . S
O22 C25 1.258 . S
C23 O20 1.320 . S
C23 O21 1.214 . S
O24 Cd16 2.277 . S
O24 C19 1.209 . S
C25 O22 1.258 . S
C25 O27 1.282 . S
O26 Cd18 2.277 . S
O26 C19 1.226 . S
O27 Cd18 2.356 . S
O27 C25 1.282 . S
C28 O29 1.306 . S
C28 O31 1.160 . S
O29 C28 1.306 . S
O29 Cd30 2.228 . S
Cd30 O29 2.228 . S
Cd30 O34 2.273 . S
Cd30 O38 2.277 . S
O31 C28 1.160 . S
O31 Cd32 2.203 . S
Cd32 O31 2.203 . S
Cd32 O34 2.411 . S
Cd32 O35 2.333 . S
Cd32 O36 2.352 . S
Cd32 O40 2.277 . S
Cd32 O41 2.356 . S
C33 O38 1.209 . S
C33 O40 1.226 . S
O34 Cd30 2.273 . S
O34 Cd32 2.411 . S
O34 C37 1.320 . S
O35 Cd32 2.333 . S
O35 C37 1.214 . S
O36 Cd32 2.352 . S
O36 C39 1.258 . S
C37 O34 1.320 . S
C37 O35 1.214 . S
O38 Cd30 2.277 . S
O38 C33 1.209 . S
C39 O36 1.258 . S
C39 O41 1.282 . S
O40 Cd32 2.277 . S
O40 C33 1.226 . S
O41 Cd32 2.356 . S
O41 C39 1.282 . S
C42 O43 1.306 . S
C42 O45 1.160 . S
O43 C42 1.306 . S
O43 Cd44 2.228 . S
Cd44 O43 2.228 . S
Cd44 O48 2.273 . S
Cd44 O52 2.277 . S
O45 C42 1.160 . S
O45 Cd46 2.203 . S
Cd46 O45 2.203 . S
Cd46 O48 2.411 . S
Cd46 O49 2.333 . S
Cd46 O50 2.352 . S
Cd46 O54 2.277 . S
Cd46 O55 2.356 . S
C47 O52 1.209 . S
C47 O54 1.226 . S
O48 Cd44 2.273 . S
O48 Cd46 2.411 . S
O48 C51 1.320 . S
O49 Cd46 2.333 . S
O49 C51 1.214 . S
O50 Cd46 2.352 . S
O50 C53 1.258 . S
C51 O48 1.320 . S
C51 O49 1.214 . S
O52 Cd44 2.277 . S
O52 C47 1.209 . S
C53 O50 1.258 . S
C53 O55 1.282 . S
O54 Cd46 2.277 . S
O54 C47 1.226 . S
O55 Cd46 2.356 . S
O55 C53 1.282 . S
C56 O57 1.306 . S
C56 O59 1.160 . S
O57 C56 1.306 . S
O57 Cd58 2.228 . S
Cd58 O57 2.228 . S
Cd58 O62 2.273 . S
Cd58 O66 2.277 . S
O59 C56 1.160 . S
O59 Cd60 2.203 . S
Cd60 O59 2.203 . S
Cd60 O62 2.411 . S
Cd60 O63 2.333 . S
Cd60 O64 2.352 . S
Cd60 O68 2.277 . S
Cd60 O69 2.356 . S
C61 O66 1.209 . S
C61 O68 1.226 . S
O62 Cd58 2.273 . S
O62 Cd60 2.411 . S
O62 C65 1.320 . S
O63 Cd60 2.333 . S
O63 C65 1.214 . S
O64 Cd60 2.352 . S
O64 C67 1.258 . S
C65 O62 1.320 . S
C65 O63 1.214 . S
O66 Cd58 2.277 . S
O66 C61 1.209 . S
C67 O64 1.258 . S
C67 O69 1.282 . S
O68 Cd60 2.277 . S
O68 C61 1.226 . S
O69 Cd60 2.356 . S
O69 C67 1.282 . S
C70 O71 1.306 . S
C70 O73 1.160 . S
O71 C70 1.306 . S
O71 Cd72 2.228 . S
Cd72 O71 2.228 . S
Cd72 O76 2.273 . S
Cd72 O80 2.277 . S
O73 C70 1.160 . S
O73 Cd74 2.203 . S
Cd74 O73 2.203 . S
Cd74 O76 2.411 . S
Cd74 O77 2.333 . S
Cd74 O78 2.352 . S
Cd74 O82 2.277 . S
Cd74 O83 2.356 . S
C75 O80 1.209 . S
C75 O82 1.226 . S
O76 Cd72 2.273 . S
O76 Cd74 2.411 . S
O76 C79 1.320 . S
O77 Cd74 2.333 . S
O77 C79 1.214 . S
O78 Cd74 2.352 . S
O78 C81 1.258 . S
C79 O76 1.320 . S
C79 O77 1.214 . S
O80 Cd72 2.277 . S
O80 C75 1.209 . S
C81 O78 1.258 . S
C81 O83 1.282 . S
O82 Cd74 2.277 . S
O82 C75 1.226 . S
O83 Cd74 2.356 . S
O83 C81 1.282 . S
C84 O85 1.306 . S
C84 O87 1.160 . S
O85 C84 1.306 . S
O85 Cd86 2.228 . S
Cd86 O85 2.228 . S
Cd86 O90 2.273 . S
Cd86 O94 2.277 . S
O87 C84 1.160 . S
O87 Cd88 2.203 . S
Cd88 O87 2.203 . S
Cd88 O90 2.411 . S
Cd88 O91 2.333 . S
Cd88 O92 2.352 . S
Cd88 O96 2.277 . S
Cd88 O97 2.356 . S
C89 O94 1.209 . S
C89 O96 1.226 . S
O90 Cd86 2.273 . S
O90 Cd88 2.411 . S
O90 C93 1.320 . S
O91 Cd88 2.333 . S
O91 C93 1.214 . S
O92 Cd88 2.352 . S
O92 C95 1.258 . S
C93 O90 1.320 . S
C93 O91 1.214 . S
O94 Cd86 2.277 . S
O94 C89 1.209 . S
C95 O92 1.258 . S
C95 O97 1.282 . S
O96 Cd88 2.277 . S
O96 C89 1.226 . S
O97 Cd88 2.356 . S
O97 C95 1.282 . S
C98 O99 1.306 . S
C98 O101 1.160 . S
O99 C98 1.306 . S
O99 Cd100 2.228 . S
Cd100 O99 2.228 . S
Cd100 O104 2.273 . S
Cd100 O108 2.277 . S
O101 C98 1.160 . S
O101 Cd102 2.203 . S
Cd102 O101 2.203 . S
Cd102 O104 2.411 . S
Cd102 O105 2.333 . S
Cd102 O106 2.352 . S
Cd102 O110 2.277 . S
Cd102 O111 2.356 . S
C103 O108 1.209 . S
C103 O110 1.226 . S
O104 Cd100 2.273 . S
O104 Cd102 2.411 . S
O104 C107 1.320 . S
O105 Cd102 2.333 . S
O105 C107 1.214 . S
O106 Cd102 2.352 . S
O106 C109 1.258 . S
C107 O104 1.320 . S
C107 O105 1.214 . S
O108 Cd100 2.277 . S
O108 C103 1.209 . S
C109 O106 1.258 . S
C109 O111 1.282 . S
O110 Cd102 2.277 . S
O110 C103 1.226 . S
O111 Cd102 2.356 . S
O111 C109 1.282 . S
C112 O113 1.306 . S
C112 O115 1.160 . S
O113 C112 1.306 . S
O113 Cd114 2.228 . S
Cd114 O113 2.228 . S
Cd114 O118 2.273 . S
Cd114 O122 2.277 . S
O115 C112 1.160 . S
O115 Cd116 2.203 . S
Cd116 O115 2.203 . S
Cd116 O118 2.411 . S
Cd116 O119 2.333 . S
Cd116 O120 2.352 . S
Cd116 O124 2.277 . S
Cd116 O125 2.356 . S
C117 O122 1.209 . S
C117 O124 1.226 . S
O118 Cd114 2.273 . S
O118 Cd116 2.411 . S
O118 C121 1.320 . S
O119 Cd116 2.333 . S
O119 C121 1.214 . S
O120 Cd116 2.352 . S
O120 C123 1.258 . S
C121 O118 1.320 . S
C121 O119 1.214 . S
O122 Cd114 2.277 . S
O122 C117 1.209 . S
C123 O120 1.258 . S
C123 O125 1.282 . S
O124 Cd116 2.277 . S
O124 C117 1.226 . S
O125 Cd116 2.356 . S
O125 C123 1.282 . S
C126 O127 1.306 . S
C126 O129 1.160 . S
O127 C126 1.306 . S
O127 Cd128 2.228 . S
Cd128 O127 2.228 . S
Cd128 O132 2.273 . S
Cd128 O136 2.277 . S
O129 C126 1.160 . S
O129 Cd130 2.203 . S
Cd130 O129 2.203 . S
Cd130 O132 2.411 . S
Cd130 O133 2.333 . S
Cd130 O134 2.352 . S
Cd130 O138 2.277 . S
Cd130 O139 2.356 . S
C131 O136 1.209 . S
C131 O138 1.226 . S
O132 Cd128 2.273 . S
O132 Cd130 2.411 . S
O132 C135 1.320 . S
O133 Cd130 2.333 . S
O133 C135 1.214 . S
O134 Cd130 2.352 . S
O134 C137 1.258 . S
C135 O132 1.320 . S
C135 O133 1.214 . S
O136 Cd128 2.277 . S
O136 C131 1.209 . S
C137 O134 1.258 . S
C137 O139 1.282 . S
O138 Cd130 2.277 . S
O138 C131 1.226 . S
O139 Cd130 2.356 . S
O139 C137 1.282 . S
C140 O141 1.306 . S
C140 O143 1.160 . S
O141 C140 1.306 . S
O141 Cd142 2.228 . S
Cd142 O141 2.228 . S
Cd142 O146 2.273 . S
Cd142 O150 2.277 . S
O143 C140 1.160 . S
O143 Cd144 2.203 . S
Cd144 O143 2.203 . S
Cd144 O146 2.411 . S
Cd144 O147 2.333 . S
Cd144 O148 2.352 . S
Cd144 O152 2.277 . S
Cd144 O153 2.356 . S
C145 O150 1.209 . S
C145 O152 1.226 . S
O146 Cd142 2.273 . S
O146 Cd144 2.411 . S
O146 C149 1.320 . S
O147 Cd144 2.333 . S
O147 C149 1.214 . S
O148 Cd144 2.352 . S
O148 C151 1.258 . S
C149 O146 1.320 . S
C149 O147 1.214 . S
O150 Cd142 2.277 . S
O150 C145 1.209 . S
C151 O148 1.258 . S
C151 O153 1.282 . S
O152 Cd144 2.277 . S
O152 C145 1.226 . S
O153 Cd144 2.356 . S
O153 C151 1.282 . S
C154 O155 1.306 . S
C154 O157 1.160 . S
O155 C154 1.306 . S
O155 Cd156 2.228 . S
Cd156 O155 2.228 . S
Cd156 O160 2.273 . S
Cd156 O164 2.277 . S
O157 C154 1.160 . S
O157 Cd158 2.203 . S
Cd158 O157 2.203 . S
Cd158 O160 2.411 . S
Cd158 O161 2.333 . S
Cd158 O162 2.352 . S
Cd158 O166 2.277 . S
Cd158 O167 2.356 . S
C159 O164 1.209 . S
C159 O166 1.226 . S
O160 Cd156 2.273 . S
O160 Cd158 2.411 . S
O160 C163 1.320 . S
O161 Cd158 2.333 . S
O161 C163 1.214 . S
O162 Cd158 2.352 . S
O162 C165 1.258 . S
C163 O160 1.320 . S
C163 O161 1.214 . S
O164 Cd156 2.277 . S
O164 C159 1.209 . S
C165 O162 1.258 . S
C165 O167 1.282 . S
O166 Cd158 2.277 . S
O166 C159 1.226 . S
O167 Cd158 2.356 . S
O167 C165 1.282 . S
C168 C169 1.391 . S
C168 C170 1.394 . S
C168 H184 0.931 . S
C169 C168 1.391 . S
C169 C173 1.376 . S
C170 C168 1.394 . S
C170 C171 1.369 . S
C170 C174 1.531 . S
C171 C170 1.369 . S
C171 C172 1.410 . S
C171 C179 1.503 . S
C172 C171 1.410 . S
C172 C173 1.392 . S
C172 C175 1.511 . S
C173 C169 1.376 . S
C173 C172 1.392 . S
C173 H185 0.929 . S
C174 C170 1.531 . S
C174 H186 0.960 . S
C174 H187 0.962 . S
C174 H188 0.960 . S
C175 C172 1.511 . S
C175 H189 0.961 . S
C175 H190 0.961 . S
C175 H191 0.961 . S
C176 C177 1.370 . S
C176 C178 1.363 . S
C176 H192 0.931 . S
C177 C176 1.370 . S
C177 C181 1.408 . S
C178 C176 1.363 . S
C178 C179 1.370 . S
C178 C182 1.524 . S
C179 C171 1.503 . S
C179 C178 1.370 . S
C179 C180 1.403 . S
C180 C179 1.403 . S
C180 C181 1.404 . S
C180 C183 1.539 . S
C181 C177 1.408 . S
C181 C180 1.404 . S
C181 H193 0.930 . S
C182 C178 1.524 . S
C182 H194 0.956 . S
C182 H195 0.961 . S
C182 H196 0.961 . S
C183 C180 1.539 . S
C183 H197 0.958 . S
C183 H198 0.961 . S
C183 H199 0.960 . S
H184 C168 0.931 . S
H185 C173 0.929 . S
H186 C174 0.960 . S
H187 C174 0.962 . S
H188 C174 0.960 . S
H189 C175 0.961 . S
H190 C175 0.961 . S
H191 C175 0.961 . S
H192 C176 0.931 . S
H193 C181 0.930 . S
H194 C182 0.956 . S
H195 C182 0.961 . S
H196 C182 0.961 . S
H197 C183 0.958 . S
H198 C183 0.961 . S
H199 C183 0.960 . S
C200 C201 1.391 . S
C200 C202 1.394 . S
C200 H216 0.931 . S
C201 C200 1.391 . S
C201 C205 1.376 . S
C202 C200 1.394 . S
C202 C203 1.369 . S
C202 C206 1.531 . S
C203 C202 1.369 . S
C203 C204 1.410 . S
C203 C211 1.503 . S
C204 C203 1.410 . S
C204 C205 1.392 . S
C204 C207 1.511 . S
C205 C201 1.376 . S
C205 C204 1.392 . S
C205 H217 0.929 . S
C206 C202 1.531 . S
C206 H218 0.960 . S
C206 H219 0.962 . S
C206 H220 0.960 . S
C207 C204 1.511 . S
C207 H221 0.961 . S
C207 H222 0.961 . S
C207 H223 0.961 . S
C208 C209 1.370 . S
C208 C210 1.363 . S
C208 H224 0.931 . S
C209 C208 1.370 . S
C209 C213 1.408 . S
C210 C208 1.363 . S
C210 C211 1.370 . S
C210 C214 1.524 . S
C211 C203 1.503 . S
C211 C210 1.370 . S
C211 C212 1.403 . S
C212 C211 1.403 . S
C212 C213 1.404 . S
C212 C215 1.539 . S
C213 C209 1.408 . S
C213 C212 1.404 . S
C213 H225 0.930 . S
C214 C210 1.524 . S
C214 H226 0.956 . S
C214 H227 0.961 . S
C214 H228 0.961 . S
C215 C212 1.539 . S
C215 H229 0.958 . S
C215 H230 0.961 . S
C215 H231 0.960 . S
H216 C200 0.931 . S
H217 C205 0.929 . S
H218 C206 0.960 . S
H219 C206 0.962 . S
H220 C206 0.960 . S
H221 C207 0.961 . S
H222 C207 0.961 . S
H223 C207 0.961 . S
H224 C208 0.931 . S
H225 C213 0.930 . S
H226 C214 0.956 . S
H227 C214 0.961 . S
H228 C214 0.961 . S
H229 C215 0.958 . S
H230 C215 0.961 . S
H231 C215 0.960 . S
C232 C233 1.391 . S
C232 C234 1.394 . S
C232 H248 0.931 . S
C233 C232 1.391 . S
C233 C237 1.376 . S
C234 C232 1.394 . S
C234 C235 1.369 . S
C234 C238 1.531 . S
C235 C234 1.369 . S
C235 C236 1.410 . S
C235 C243 1.503 . S
C236 C235 1.410 . S
C236 C237 1.392 . S
C236 C239 1.511 . S
C237 C233 1.376 . S
C237 C236 1.392 . S
C237 H249 0.929 . S
C238 C234 1.531 . S
C238 H250 0.960 . S
C238 H251 0.962 . S
C238 H252 0.960 . S
C239 C236 1.511 . S
C239 H253 0.961 . S
C239 H254 0.961 . S
C239 H255 0.961 . S
C240 C241 1.370 . S
C240 C242 1.363 . S
C240 H256 0.931 . S
C241 C240 1.370 . S
C241 C245 1.408 . S
C242 C240 1.363 . S
C242 C243 1.370 . S
C242 C246 1.524 . S
C243 C235 1.503 . S
C243 C242 1.370 . S
C243 C244 1.403 . S
C244 C243 1.403 . S
C244 C245 1.404 . S
C244 C247 1.539 . S
C245 C241 1.408 . S
C245 C244 1.404 . S
C245 H257 0.930 . S
C246 C242 1.524 . S
C246 H258 0.956 . S
C246 H259 0.961 . S
C246 H260 0.961 . S
C247 C244 1.539 . S
C247 H261 0.958 . S
C247 H262 0.961 . S
C247 H263 0.960 . S
H248 C232 0.931 . S
H249 C237 0.929 . S
H250 C238 0.960 . S
H251 C238 0.962 . S
H252 C238 0.960 . S
H253 C239 0.961 . S
H254 C239 0.961 . S
H255 C239 0.961 . S
H256 C240 0.931 . S
H257 C245 0.930 . S
H258 C246 0.956 . S
H259 C246 0.961 . S
H260 C246 0.961 . S
H261 C247 0.958 . S
H262 C247 0.961 . S
H263 C247 0.960 . S
C264 C265 1.391 . S
C264 C266 1.394 . S
C264 H280 0.931 . S
C265 C264 1.391 . S
C265 C269 1.376 . S
C266 C264 1.394 . S
C266 C267 1.369 . S
C266 C270 1.531 . S
C267 C266 1.369 . S
C267 C268 1.410 . S
C267 C275 1.503 . S
C268 C267 1.410 . S
C268 C269 1.392 . S
C268 C271 1.511 . S
C269 C265 1.376 . S
C269 C268 1.392 . S
C269 H281 0.929 . S
C270 C266 1.531 . S
C270 H282 0.960 . S
C270 H283 0.962 . S
C270 H284 0.960 . S
C271 C268 1.511 . S
C271 H285 0.961 . S
C271 H286 0.961 . S
C271 H287 0.961 . S
C272 C273 1.370 . S
C272 C274 1.363 . S
C272 H288 0.931 . S
C273 C272 1.370 . S
C273 C277 1.408 . S
C274 C272 1.363 . S
C274 C275 1.370 . S
C274 C278 1.524 . S
C275 C267 1.503 . S
C275 C274 1.370 . S
C275 C276 1.403 . S
C276 C275 1.403 . S
C276 C277 1.404 . S
C276 C279 1.539 . S
C277 C273 1.408 . S
C277 C276 1.404 . S
C277 H289 0.930 . S
C278 C274 1.524 . S
C278 H290 0.956 . S
C278 H291 0.961 . S
C278 H292 0.961 . S
C279 C276 1.539 . S
C279 H293 0.958 . S
C279 H294 0.961 . S
C279 H295 0.960 . S
H280 C264 0.931 . S
H281 C269 0.929 . S
H282 C270 0.960 . S
H283 C270 0.962 . S
H284 C270 0.960 . S
H285 C271 0.961 . S
H286 C271 0.961 . S
H287 C271 0.961 . S
H288 C272 0.931 . S
H289 C277 0.930 . S
H290 C278 0.956 . S
H291 C278 0.961 . S
H292 C278 0.961 . S
H293 C279 0.958 . S
H294 C279 0.961 . S
H295 C279 0.960 . S
C296 C297 1.391 . S
C296 C298 1.394 . S
C296 H312 0.931 . S
C297 C296 1.391 . S
C297 C301 1.376 . S
C298 C296 1.394 . S
C298 C299 1.369 . S
C298 C302 1.531 . S
C299 C298 1.369 . S
C299 C300 1.410 . S
C299 C307 1.503 . S
C300 C299 1.410 . S
C300 C301 1.392 . S
C300 C303 1.511 . S
C301 C297 1.376 . S
C301 C300 1.392 . S
C301 H313 0.929 . S
C302 C298 1.531 . S
C302 H314 0.960 . S
C302 H315 0.962 . S
C302 H316 0.960 . S
C303 C300 1.511 . S
C303 H317 0.961 . S
C303 H318 0.961 . S
C303 H319 0.961 . S
C304 C305 1.370 . S
C304 C306 1.363 . S
C304 H320 0.931 . S
C305 C304 1.370 . S
C305 C309 1.408 . S
C306 C304 1.363 . S
C306 C307 1.370 . S
C306 C310 1.524 . S
C307 C299 1.503 . S
C307 C306 1.370 . S
C307 C308 1.403 . S
C308 C307 1.403 . S
C308 C309 1.404 . S
C308 C311 1.539 . S
C309 C305 1.408 . S
C309 C308 1.404 . S
C309 H321 0.930 . S
C310 C306 1.524 . S
C310 H322 0.956 . S
C310 H323 0.961 . S
C310 H324 0.961 . S
C311 C308 1.539 . S
C311 H325 0.958 . S
C311 H326 0.961 . S
C311 H327 0.960 . S
H312 C296 0.931 . S
H313 C301 0.929 . S
H314 C302 0.960 . S
H315 C302 0.962 . S
H316 C302 0.960 . S
H317 C303 0.961 . S
H318 C303 0.961 . S
H319 C303 0.961 . S
H320 C304 0.931 . S
H321 C309 0.930 . S
H322 C310 0.956 . S
H323 C310 0.961 . S
H324 C310 0.961 . S
H325 C311 0.958 . S
H326 C311 0.961 . S
H327 C311 0.960 . S
C328 C329 1.391 . S
C328 C330 1.394 . S
C328 H344 0.931 . S
C329 C328 1.391 . S
C329 C333 1.376 . S
C330 C328 1.394 . S
C330 C331 1.369 . S
C330 C334 1.531 . S
C331 C330 1.369 . S
C331 C332 1.410 . S
C331 C339 1.503 . S
C332 C331 1.410 . S
C332 C333 1.392 . S
C332 C335 1.511 . S
C333 C329 1.376 . S
C333 C332 1.392 . S
C333 H345 0.929 . S
C334 C330 1.531 . S
C334 H346 0.960 . S
C334 H347 0.962 . S
C334 H348 0.960 . S
C335 C332 1.511 . S
C335 H349 0.961 . S
C335 H350 0.961 . S
C335 H351 0.961 . S
C336 C337 1.370 . S
C336 C338 1.363 . S
C336 H352 0.931 . S
C337 C336 1.370 . S
C337 C341 1.408 . S
C338 C336 1.363 . S
C338 C339 1.370 . S
C338 C342 1.524 . S
C339 C331 1.503 . S
C339 C338 1.370 . S
C339 C340 1.403 . S
C340 C339 1.403 . S
C340 C341 1.404 . S
C340 C343 1.539 . S
C341 C337 1.408 . S
C341 C340 1.404 . S
C341 H353 0.930 . S
C342 C338 1.524 . S
C342 H354 0.956 . S
C342 H355 0.961 . S
C342 H356 0.961 . S
C343 C340 1.539 . S
C343 H357 0.958 . S
C343 H358 0.961 . S
C343 H359 0.960 . S
H344 C328 0.931 . S
H345 C333 0.929 . S
H346 C334 0.960 . S
H347 C334 0.962 . S
H348 C334 0.960 . S
H349 C335 0.961 . S
H350 C335 0.961 . S
H351 C335 0.961 . S
H352 C336 0.931 . S
H353 C341 0.930 . S
H354 C342 0.956 . S
H355 C342 0.961 . S
H356 C342 0.961 . S
H357 C343 0.958 . S
H358 C343 0.961 . S
H359 C343 0.960 . S
C360 C361 1.391 1_556 S
C360 C362 1.394 . S
C360 H376 0.931 . S
C361 C360 1.391 1_554 S
C361 C365 1.376 . S
C362 C360 1.394 . S
C362 C363 1.369 . S
C362 C366 1.531 . S
C363 C362 1.369 . S
C363 C364 1.410 1_556 S
C363 C371 1.503 1_545 S
C364 C363 1.410 1_554 S
C364 C365 1.392 . S
C364 C367 1.511 1_545 S
C365 C361 1.376 . S
C365 C364 1.392 . S
C365 H377 0.929 . S
C366 C362 1.531 . S
C366 H378 0.960 . S
C366 H379 0.962 . S
C366 H380 0.960 . S
C367 C364 1.511 1_565 S
C367 H381 0.961 . S
C367 H382 0.961 . S
C367 H383 0.967 . S
C368 C369 1.370 1_554 S
C368 C370 1.363 . S
C368 H384 0.931 . S
C369 C368 1.370 1_556 S
C369 C373 1.408 . S
C370 C368 1.363 . S
C370 C371 1.370 1_554 S
C370 C374 1.524 . S
C371 C363 1.503 1_565 S
C371 C370 1.370 1_556 S
C371 C372 1.403 . S
C372 C371 1.403 . S
C372 C373 1.404 . S
C372 C375 1.539 . S
C373 C369 1.408 . S
C373 C372 1.404 . S
C373 H385 0.930 . S
C374 C370 1.524 . S
C374 H386 0.956 1_565 S
C374 H387 0.961 . S
C374 H388 0.961 . S
C375 C372 1.539 . S
C375 H389 0.958 . S
C375 H390 0.961 . S
C375 H391 0.960 . S
H376 C360 0.931 . S
H377 C365 0.929 . S
H378 C366 0.960 . S
H379 C366 0.962 . S
H380 C366 0.960 . S
H381 C367 0.961 . S
H382 C367 0.961 . S
H383 C367 0.967 . S
H384 C368 0.931 . S
H385 C373 0.930 . S
H386 C374 0.956 1_545 S
H387 C374 0.961 . S
H388 C374 0.961 . S
H389 C375 0.958 . S
H390 C375 0.961 . S
H391 C375 0.960 . S
C392 C393 1.391 . S
C392 C394 1.394 . S
C392 H408 0.931 . S
C393 C392 1.391 . S
C393 C397 1.376 . S
C394 C392 1.394 . S
C394 C395 1.369 . S
C394 C398 1.531 . S
C395 C394 1.369 . S
C395 C396 1.410 . S
C395 C403 1.503 . S
C396 C395 1.410 . S
C396 C397 1.392 . S
C396 C399 1.511 . S
C397 C393 1.376 . S
C397 C396 1.392 . S
C397 H409 0.929 . S
C398 C394 1.531 . S
C398 H410 0.960 . S
C398 H411 0.962 . S
C398 H412 0.960 . S
C399 C396 1.511 . S
C399 H413 0.961 . S
C399 H414 0.961 . S
C399 H415 0.961 . S
C400 C401 1.370 . S
C400 C402 1.363 . S
C400 H416 0.931 . S
C401 C400 1.370 . S
C401 C405 1.408 . S
C402 C400 1.363 . S
C402 C403 1.370 . S
C402 C406 1.524 . S
C403 C395 1.503 . S
C403 C402 1.370 . S
C403 C404 1.403 . S
C404 C403 1.403 . S
C404 C405 1.404 . S
C404 C407 1.539 . S
C405 C401 1.408 . S
C405 C404 1.404 . S
C405 H417 0.930 . S
C406 C402 1.524 . S
C406 H418 0.956 . S
C406 H419 0.961 . S
C406 H420 0.961 . S
C407 C404 1.539 . S
C407 H421 0.958 . S
C407 H422 0.961 . S
C407 H423 0.960 . S
H408 C392 0.931 . S
H409 C397 0.929 . S
H410 C398 0.960 . S
H411 C398 0.962 . S
H412 C398 0.960 . S
H413 C399 0.961 . S
H414 C399 0.961 . S
H415 C399 0.961 . S
H416 C400 0.931 . S
H417 C405 0.930 . S
H418 C406 0.956 . S
H419 C406 0.961 . S
H420 C406 0.961 . S
H421 C407 0.958 . S
H422 C407 0.961 . S
H423 C407 0.960 . S
C424 C425 1.391 . S
C424 C426 1.394 . S
C424 H440 0.931 . S
C425 C424 1.391 . S
C425 C429 1.376 . S
C426 C424 1.394 . S
C426 C427 1.369 . S
C426 C430 1.531 1_455 S
C427 C426 1.369 . S
C427 C428 1.410 . S
C427 C435 1.503 1_455 S
C428 C427 1.410 . S
C428 C429 1.392 . S
C428 C431 1.511 1_556 S
C429 C425 1.376 . S
C429 C428 1.392 . S
C429 H441 0.920 1_556 S
C430 C426 1.531 1_655 S
C430 H442 0.960 . S
C430 H443 0.962 . S
C430 H444 0.960 . S
C431 C428 1.511 1_554 S
C431 H445 0.961 . S
C431 H446 0.961 . S
C431 H447 0.961 1_554 S
C432 C433 1.370 . S
C432 C434 1.363 . S
C432 H448 0.931 . S
C433 C432 1.370 . S
C433 C437 1.408 1_554 S
C434 C432 1.363 . S
C434 C435 1.370 1_554 S
C434 C438 1.524 . S
C435 C427 1.503 1_655 S
C435 C434 1.370 1_556 S
C435 C436 1.403 . S
C436 C435 1.403 . S
C436 C437 1.404 . S
C436 C439 1.539 . S
C437 C433 1.408 1_556 S
C437 C436 1.404 . S
C437 H449 0.930 . S
C438 C434 1.524 . S
C438 H450 0.956 . S
C438 H451 0.961 1_655 S
C438 H452 0.961 . S
C439 C436 1.539 . S
C439 H453 0.958 . S
C439 H454 0.961 . S
C439 H455 0.960 1_655 S
H440 C424 0.931 . S
H441 C429 0.920 1_554 S
H442 C430 0.960 . S
H443 C430 0.962 . S
H444 C430 0.960 . S
H445 C431 0.961 . S
H446 C431 0.961 . S
H447 C431 0.961 1_556 S
H448 C432 0.931 . S
H449 C437 0.930 . S
H450 C438 0.956 . S
H451 C438 0.961 1_455 S
H452 C438 0.961 . S
H453 C439 0.958 . S
H454 C439 0.961 . S
H455 C439 0.960 1_455 S
C456 C457 1.391 . S
C456 C458 1.394 . S
C456 H472 0.931 . S
C457 C456 1.391 . S
C457 C461 1.376 . S
C458 C456 1.394 . S
C458 C459 1.369 . S
C458 C462 1.531 . S
C459 C458 1.369 . S
C459 C460 1.410 . S
C459 C467 1.503 1_545 S
C460 C459 1.410 . S
C460 C461 1.392 . S
C460 C463 1.511 . S
C461 C457 1.376 . S
C461 C460 1.392 . S
C461 H473 0.929 . S
C462 C458 1.531 . S
C462 H474 0.960 1_545 S
C462 H475 0.962 . S
C462 H476 0.960 . S
C463 C460 1.511 . S
C463 H477 0.961 . S
C463 H478 0.961 . S
C463 H479 0.961 . S
C464 C465 1.370 . S
C464 C466 1.363 . S
C464 H480 0.931 . S
C465 C464 1.370 . S
C465 C469 1.408 . S
C466 C464 1.363 . S
C466 C467 1.370 . S
C466 C470 1.524 1_565 S
C467 C459 1.503 1_565 S
C467 C466 1.370 . S
C467 C468 1.403 . S
C468 C467 1.403 . S
C468 C469 1.404 . S
C468 C471 1.539 . S
C469 C465 1.408 . S
C469 C468 1.404 . S
C469 H481 0.930 . S
C470 C466 1.524 1_545 S
C470 H482 0.956 . S
C470 H483 0.961 . S
C470 H484 0.961 . S
C471 C468 1.539 . S
C471 H485 0.958 . S
C471 H486 0.961 . S
C471 H487 0.960 . S
H472 C456 0.931 . S
H473 C461 0.929 . S
H474 C462 0.960 1_565 S
H475 C462 0.962 . S
H476 C462 0.960 . S
H477 C463 0.961 . S
H478 C463 0.961 . S
H479 C463 0.961 . S
H480 C464 0.931 . S
H481 C469 0.930 . S
H482 C470 0.956 . S
H483 C470 0.961 . S
H484 C470 0.961 . S
H485 C471 0.958 . S
H486 C471 0.961 . S
H487 C471 0.960 . S
C488 C489 1.402 . S
C488 C490 1.387 1_556 S
C488 H504 0.926 1_556 S
C489 C488 1.402 . S
C489 C493 1.376 . S
C490 C488 1.387 1_554 S
C490 C491 1.369 . S
C490 C494 1.531 . S
C491 C490 1.369 . S
C491 C492 1.410 1_554 S
C491 C499 1.503 . S
C492 C491 1.410 1_556 S
C492 C493 1.392 . S
C492 C495 1.511 . S
C493 C489 1.376 . S
C493 C492 1.392 . S
C493 H505 0.929 . S
C494 C490 1.531 . S
C494 H506 0.960 . S
C494 H507 0.962 . S
C494 H508 0.960 . S
C495 C492 1.511 . S
C495 H509 0.961 . S
C495 H510 0.961 . S
C495 H511 0.949 1_556 S
C496 C497 1.370 1_556 S
C496 C498 1.363 . S
C496 H512 0.931 . S
C497 C496 1.370 1_554 S
C497 C501 1.408 . S
C498 C496 1.363 . S
C498 C499 1.370 1_556 S
C498 C502 1.524 . S
C499 C491 1.503 . S
C499 C498 1.370 1_554 S
C499 C500 1.403 . S
C500 C499 1.403 . S
C500 C501 1.404 . S
C500 C503 1.539 . S
C501 C497 1.408 . S
C501 C500 1.404 . S
C501 H513 0.930 . S
C502 C498 1.524 . S
C502 H514 0.956 . S
C502 H515 0.961 . S
C502 H516 0.961 . S
C503 C500 1.539 . S
C503 H517 0.958 . S
C503 H518 0.961 . S
C503 H519 0.960 . S
H504 C488 0.926 1_554 S
H505 C493 0.929 . S
H506 C494 0.960 . S
H507 C494 0.962 . S
H508 C494 0.960 . S
H509 C495 0.961 . S
H510 C495 0.961 . S
H511 C495 0.949 1_554 S
H512 C496 0.931 . S
H513 C501 0.930 . S
H514 C502 0.956 . S
H515 C502 0.961 . S
H516 C502 0.961 . S
H517 C503 0.958 . S
H518 C503 0.961 . S
H519 C503 0.960 . S
C520 C521 1.391 . S
C520 C522 1.394 . S
C520 H536 0.931 . S
C521 C520 1.391 . S
C521 C525 1.376 . S
C522 C520 1.394 . S
C522 C523 1.369 . S
C522 C526 1.531 . S
C523 C522 1.369 . S
C523 C524 1.410 . S
C523 C531 1.503 1_655 S
C524 C523 1.410 . S
C524 C525 1.392 . S
C524 C527 1.511 1_655 S
C525 C521 1.376 . S
C525 C524 1.392 . S
C525 H537 0.929 . S
C526 C522 1.531 . S
C526 H538 0.960 . S
C526 H539 0.962 . S
C526 H540 0.960 . S
C527 C524 1.511 1_455 S
C527 H541 0.961 . S
C527 H542 0.961 . S
C527 H543 0.961 . S
C528 C529 1.370 . S
C528 C530 1.363 . S
C528 H544 0.931 . S
C529 C528 1.370 . S
C529 C533 1.408 . S
C530 C528 1.363 . S
C530 C531 1.370 . S
C530 C534 1.524 . S
C531 C523 1.503 1_455 S
C531 C530 1.370 . S
C531 C532 1.403 . S
C532 C531 1.403 . S
C532 C533 1.404 . S
C532 C535 1.539 . S
C533 C529 1.408 . S
C533 C532 1.404 . S
C533 H545 0.930 . S
C534 C530 1.524 . S
C534 H546 0.956 1_455 S
C534 H547 0.961 1_455 S
C534 H548 0.961 . S
C535 C532 1.539 . S
C535 H549 0.958 . S
C535 H550 0.961 . S
C535 H551 0.960 . S
H536 C520 0.931 . S
H537 C525 0.929 . S
H538 C526 0.960 . S
H539 C526 0.962 . S
H540 C526 0.960 . S
H541 C527 0.961 . S
H542 C527 0.961 . S
H543 C527 0.961 . S
H544 C528 0.931 . S
H545 C533 0.930 . S
H546 C534 0.956 1_655 S
H547 C534 0.961 1_655 S
H548 C534 0.961 . S
H549 C535 0.958 . S
H550 C535 0.961 . S
H551 C535 0.960 . S
C552 C553 1.391 . S
C552 C554 1.394 . S
C552 H568 0.931 . S
C553 C552 1.391 . S
C553 C557 1.376 . S
C554 C552 1.394 . S
C554 C555 1.369 . S
C554 C558 1.531 . S
C555 C554 1.369 . S
C555 C556 1.410 . S
C555 C563 1.503 . S
C556 C555 1.410 . S
C556 C557 1.392 . S
C556 C559 1.511 . S
C557 C553 1.376 . S
C557 C556 1.392 . S
C557 H569 0.929 . S
C558 C554 1.531 . S
C558 H570 0.965 . S
C558 H571 0.962 . S
C558 H572 0.963 . S
C559 C556 1.511 . S
C559 H573 0.961 . S
C559 H574 0.961 . S
C559 H575 0.961 . S
C560 C561 1.370 . S
C560 C562 1.363 . S
C560 H576 0.931 . S
C561 C560 1.370 . S
C561 C565 1.410 1_554 S
C562 C560 1.363 . S
C562 C563 1.370 . S
C562 C566 1.524 . S
C563 C555 1.503 . S
C563 C562 1.370 . S
C563 C564 1.403 . S
C564 C563 1.403 . S
C564 C565 1.404 1_554 S
C564 C567 1.539 1_554 S
C565 C561 1.410 1_556 S
C565 C564 1.404 1_556 S
C565 H577 0.928 . S
C566 C562 1.524 . S
C566 H578 0.956 . S
C566 H579 0.961 . S
C566 H580 0.961 . S
C567 C564 1.539 1_556 S
C567 H581 0.958 . S
C567 H582 0.961 . S
C567 H583 0.960 . S
H568 C552 0.931 . S
H569 C557 0.929 . S
H570 C558 0.965 . S
H571 C558 0.962 . S
H572 C558 0.963 . S
H573 C559 0.961 . S
H574 C559 0.961 . S
H575 C559 0.961 . S
H576 C560 0.931 . S
H577 C565 0.928 . S
H578 C566 0.956 . S
H579 C566 0.961 . S
H580 C566 0.961 . S
H581 C567 0.958 . S
H582 C567 0.961 . S
H583 C567 0.960 . S
C584 C585 1.391 . S
C584 C586 1.394 . S
C584 H600 0.931 . S
C585 C584 1.391 . S
C585 C589 1.376 . S
C586 C584 1.394 . S
C586 C587 1.369 . S
C586 C590 1.531 . S
C587 C586 1.369 . S
C587 C588 1.410 . S
C587 C595 1.503 . S
C588 C587 1.410 . S
C588 C589 1.392 . S
C588 C591 1.511 . S
C589 C585 1.376 . S
C589 C588 1.392 . S
C589 H601 0.929 . S
C590 C586 1.531 . S
C590 H602 0.960 . S
C590 H603 0.962 . S
C590 H604 0.960 . S
C591 C588 1.511 . S
C591 H605 0.961 . S
C591 H606 0.961 . S
C591 H607 0.961 . S
C592 C593 1.370 . S
C592 C594 1.363 . S
C592 H608 0.931 . S
C593 C592 1.370 . S
C593 C597 1.408 . S
C594 C592 1.363 . S
C594 C595 1.370 . S
C594 C598 1.524 . S
C595 C587 1.503 . S
C595 C594 1.370 . S
C595 C596 1.403 . S
C596 C595 1.403 . S
C596 C597 1.404 . S
C596 C599 1.539 . S
C597 C593 1.408 . S
C597 C596 1.404 . S
C597 H609 0.930 . S
C598 C594 1.524 . S
C598 H610 0.956 . S
C598 H611 0.961 . S
C598 H612 0.961 . S
C599 C596 1.539 . S
C599 H613 0.958 . S
C599 H614 0.961 . S
C599 H615 0.960 . S
H600 C584 0.931 . S
H601 C589 0.929 . S
H602 C590 0.960 . S
H603 C590 0.962 . S
H604 C590 0.960 . S
H605 C591 0.961 . S
H606 C591 0.961 . S
H607 C591 0.961 . S
H608 C592 0.931 . S
H609 C597 0.930 . S
H610 C598 0.956 . S
H611 C598 0.961 . S
H612 C598 0.961 . S
H613 C599 0.958 . S
H614 C599 0.961 . S
H615 C599 0.960 . S
C616 C617 1.391 . S
C616 C618 1.394 . S
C616 H632 0.931 . S
C617 C616 1.391 . S
C617 C621 1.376 . S
C618 C616 1.394 . S
C618 C619 1.369 . S
C618 C622 1.531 1_554 S
C619 C618 1.369 . S
C619 C620 1.410 . S
C619 C627 1.503 . S
C620 C619 1.410 . S
C620 C621 1.392 . S
C620 C623 1.511 . S
C621 C617 1.376 . S
C621 C620 1.392 . S
C621 H633 0.929 . S
C622 C618 1.531 1_556 S
C622 H634 0.960 . S
C622 H635 0.962 1_556 S
C622 H636 0.960 . S
C623 C620 1.511 . S
C623 H637 0.961 . S
C623 H638 0.961 . S
C623 H639 0.961 . S
C624 C625 1.370 . S
C624 C626 1.363 . S
C624 H640 0.931 . S
C625 C624 1.370 . S
C625 C629 1.408 1_554 S
C626 C624 1.363 . S
C626 C627 1.370 . S
C626 C630 1.524 . S
C627 C619 1.503 . S
C627 C626 1.370 . S
C627 C628 1.381 1_554 S
C628 C627 1.381 1_556 S
C628 C629 1.406 . S
C628 C631 1.558 . S
C629 C625 1.408 1_556 S
C629 C628 1.406 . S
C629 H641 0.930 . S
C630 C626 1.524 . S
C630 H642 0.956 . S
C630 H643 0.961 . S
C630 H644 0.961 . S
C631 C628 1.558 . S
C631 H645 0.958 . S
C631 H646 0.961 . S
C631 H647 0.960 . S
H632 C616 0.931 . S
H633 C621 0.929 . S
H634 C622 0.960 . S
H635 C622 0.962 1_554 S
H636 C622 0.960 . S
H637 C623 0.961 . S
H638 C623 0.961 . S
H639 C623 0.961 . S
H640 C624 0.931 . S
H641 C629 0.930 . S
H642 C630 0.956 . S
H643 C630 0.961 . S
H644 C630 0.961 . S
H645 C631 0.958 . S
H646 C631 0.961 . S
H647 C631 0.960 . S
C648 C649 1.391 . S
C648 C650 1.394 . S
C648 H664 0.931 . S
C649 C648 1.391 . S
C649 C653 1.376 . S
C650 C648 1.394 . S
C650 C651 1.369 . S
C650 C654 1.531 . S
C651 C650 1.369 . S
C651 C652 1.410 . S
C651 C659 1.503 . S
C652 C651 1.410 . S
C652 C653 1.392 . S
C652 C655 1.511 . S
C653 C649 1.376 . S
C653 C652 1.392 . S
C653 H665 0.929 . S
C654 C650 1.531 . S
C654 H666 0.960 . S
C654 H667 0.962 . S
C654 H668 0.960 . S
C655 C652 1.511 . S
C655 H669 0.961 . S
C655 H670 0.961 . S
C655 H671 0.961 . S
C656 C657 1.370 . S
C656 C658 1.363 . S
C656 H672 0.931 . S
C657 C656 1.370 . S
C657 C661 1.408 . S
C658 C656 1.363 . S
C658 C659 1.370 . S
C658 C662 1.524 . S
C659 C651 1.503 . S
C659 C658 1.370 . S
C659 C660 1.403 . S
C660 C659 1.403 . S
C660 C661 1.404 . S
C660 C663 1.539 . S
C661 C657 1.408 . S
C661 C660 1.404 . S
C661 H673 0.930 . S
C662 C658 1.524 . S
C662 H674 0.956 . S
C662 H675 0.961 . S
C662 H676 0.961 . S
C663 C660 1.539 . S
C663 H677 0.958 . S
C663 H678 0.961 . S
C663 H679 0.960 . S
H664 C648 0.931 . S
H665 C653 0.929 . S
H666 C654 0.960 . S
H667 C654 0.962 . S
H668 C654 0.960 . S
H669 C655 0.961 . S
H670 C655 0.961 . S
H671 C655 0.961 . S
H672 C656 0.931 . S
H673 C661 0.930 . S
H674 C662 0.956 . S
H675 C662 0.961 . S
H676 C662 0.961 . S
H677 C663 0.958 . S
H678 C663 0.961 . S
H679 C663 0.960 . S
C680 C681 1.391 . S
C680 C682 1.394 . S
C680 H696 0.931 . S
C681 C680 1.391 . S
C681 C685 1.376 . S
C682 C680 1.394 . S
C682 C683 1.369 . S
C682 C686 1.531 1_554 S
C683 C682 1.369 . S
C683 C684 1.410 . S
C683 C691 1.503 . S
C684 C683 1.410 . S
C684 C685 1.392 . S
C684 C687 1.511 . S
C685 C681 1.376 . S
C685 C684 1.392 . S
C685 H697 0.929 . S
C686 C682 1.531 1_556 S
C686 H698 0.960 . S
C686 H699 0.962 . S
C686 H700 0.960 . S
C687 C684 1.511 . S
C687 H701 0.961 . S
C687 H702 0.961 . S
C687 H703 0.961 . S
C688 C689 1.370 . S
C688 C690 1.363 . S
C688 H704 0.931 . S
C689 C688 1.370 . S
C689 C693 1.408 . S
C690 C688 1.363 . S
C690 C691 1.370 . S
C690 C694 1.524 . S
C691 C683 1.503 . S
C691 C690 1.370 . S
C691 C692 1.403 . S
C692 C691 1.403 . S
C692 C693 1.404 . S
C692 C695 1.539 . S
C693 C689 1.408 . S
C693 C692 1.404 . S
C693 H705 0.930 . S
C694 C690 1.524 . S
C694 H706 0.938 1_554 S
C694 H707 0.961 . S
C694 H708 0.961 . S
C695 C692 1.539 . S
C695 H709 0.958 . S
C695 H710 0.961 . S
C695 H711 0.960 . S
H696 C680 0.931 . S
H697 C685 0.929 . S
H698 C686 0.960 . S
H699 C686 0.962 . S
H700 C686 0.960 . S
H701 C687 0.961 . S
H702 C687 0.961 . S
H703 C687 0.961 . S
H704 C688 0.931 . S
H705 C693 0.930 . S
H706 C694 0.938 1_556 S
H707 C694 0.961 . S
H708 C694 0.961 . S
H709 C695 0.958 . S
H710 C695 0.961 . S
H711 C695 0.960 . S
C712 C713 1.391 . S
C712 C714 1.394 . S
C712 H728 0.931 . S
C713 C712 1.391 . S
C713 C717 1.376 . S
C714 C712 1.394 . S
C714 C715 1.369 . S
C714 C718 1.531 . S
C715 C714 1.369 . S
C715 C716 1.410 . S
C715 C723 1.503 . S
C716 C715 1.410 . S
C716 C717 1.392 . S
C716 C719 1.511 . S
C717 C713 1.376 . S
C717 C716 1.392 . S
C717 H729 0.929 . S
C718 C714 1.531 . S
C718 H730 0.960 . S
C718 H731 0.962 . S
C718 H732 0.960 . S
C719 C716 1.511 . S
C719 H733 0.961 . S
C719 H734 0.961 . S
C719 H735 0.961 . S
C720 C721 1.370 . S
C720 C722 1.363 . S
C720 H736 0.931 . S
C721 C720 1.370 . S
C721 C725 1.408 . S
C722 C720 1.363 . S
C722 C723 1.370 . S
C722 C726 1.524 . S
C723 C715 1.503 . S
C723 C722 1.370 . S
C723 C724 1.403 . S
C724 C723 1.403 . S
C724 C725 1.404 . S
C724 C727 1.539 . S
C725 C721 1.408 . S
C725 C724 1.404 . S
C725 H737 0.930 . S
C726 C722 1.524 . S
C726 H738 0.956 . S
C726 H739 0.961 . S
C726 H740 0.961 . S
C727 C724 1.539 . S
C727 H741 0.958 . S
C727 H742 0.961 . S
C727 H743 0.960 . S
H728 C712 0.931 . S
H729 C717 0.929 . S
H730 C718 0.960 . S
H731 C718 0.962 . S
H732 C718 0.960 . S
H733 C719 0.961 . S
H734 C719 0.961 . S
H735 C719 0.961 . S
H736 C720 0.931 . S
H737 C725 0.930 . S
H738 C726 0.956 . S
H739 C726 0.961 . S
H740 C726 0.961 . S
H741 C727 0.958 . S
H742 C727 0.961 . S
H743 C727 0.960 . S
C744 C745 1.391 . S
C744 C746 1.394 . S
C744 H760 0.931 . S
C745 C744 1.391 . S
C745 C749 1.376 . S
C746 C744 1.394 . S
C746 C747 1.369 . S
C746 C750 1.531 . S
C747 C746 1.369 . S
C747 C748 1.410 . S
C747 C755 1.503 . S
C748 C747 1.410 . S
C748 C749 1.392 . S
C748 C751 1.511 . S
C749 C745 1.376 . S
C749 C748 1.392 . S
C749 H761 0.929 . S
C750 C746 1.531 . S
C750 H762 0.960 . S
C750 H763 0.962 . S
C750 H764 0.960 . S
C751 C748 1.511 . S
C751 H765 0.961 . S
C751 H766 0.961 . S
C751 H767 0.961 . S
C752 C753 1.370 . S
C752 C754 1.363 . S
C752 H768 0.931 . S
C753 C752 1.370 . S
C753 C757 1.408 . S
C754 C752 1.363 . S
C754 C755 1.370 . S
C754 C758 1.524 . S
C755 C747 1.503 . S
C755 C754 1.370 . S
C755 C756 1.403 . S
C756 C755 1.403 . S
C756 C757 1.404 . S
C756 C759 1.539 . S
C757 C753 1.408 . S
C757 C756 1.404 . S
C757 H769 0.930 . S
C758 C754 1.524 . S
C758 H770 0.956 . S
C758 H771 0.961 . S
C758 H772 0.961 . S
C759 C756 1.539 . S
C759 H773 0.958 . S
C759 H774 0.961 . S
C759 H775 0.960 . S
H760 C744 0.931 . S
H761 C749 0.929 . S
H762 C750 0.960 . S
H763 C750 0.962 . S
H764 C750 0.960 . S
H765 C751 0.961 . S
H766 C751 0.961 . S
H767 C751 0.961 . S
H768 C752 0.931 . S
H769 C757 0.930 . S
H770 C758 0.956 . S
H771 C758 0.961 . S
H772 C758 0.961 . S
H773 C759 0.958 . S
H774 C759 0.961 . S
H775 C759 0.960 . S
C776 C777 1.391 . S
C776 C778 1.394 . S
C776 H792 0.931 . S
C777 C776 1.391 . S
C777 C781 1.376 . S
C778 C776 1.394 . S
C778 C779 1.369 . S
C778 C782 1.531 1_556 S
C779 C778 1.369 . S
C779 C780 1.410 . S
C779 C787 1.503 . S
C780 C779 1.410 . S
C780 C781 1.392 . S
C780 C783 1.511 . S
C781 C777 1.376 . S
C781 C780 1.392 . S
C781 H793 0.929 . S
C782 C778 1.531 1_554 S
C782 H794 0.960 . S
C782 H795 0.962 . S
C782 H796 0.960 . S
C783 C780 1.511 . S
C783 H797 0.961 . S
C783 H798 0.961 . S
C783 H799 0.961 . S
C784 C785 1.370 . S
C784 C786 1.363 . S
C784 H800 0.931 . S
C785 C784 1.370 . S
C785 C789 1.408 . S
C786 C784 1.363 . S
C786 C787 1.370 . S
C786 C790 1.524 . S
C787 C779 1.503 . S
C787 C786 1.370 . S
C787 C788 1.403 . S
C788 C787 1.403 . S
C788 C789 1.404 . S
C788 C791 1.539 1_556 S
C789 C785 1.408 . S
C789 C788 1.404 . S
C789 H801 0.930 1_556 S
C790 C786 1.524 . S
C790 H802 0.956 . S
C790 H803 0.961 . S
C790 H804 0.961 . S
C791 C788 1.539 1_554 S
C791 H805 0.958 . S
C791 H806 0.961 . S
C791 H807 0.960 . S
H792 C776 0.931 . S
H793 C781 0.929 . S
H794 C782 0.960 . S
H795 C782 0.962 . S
H796 C782 0.960 . S
H797 C783 0.961 . S
H798 C783 0.961 . S
H799 C783 0.961 . S
H800 C784 0.931 . S
H801 C789 0.930 1_554 S
H802 C790 0.956 . S
H803 C790 0.961 . S
H804 C790 0.961 . S
H805 C791 0.958 . S
H806 C791 0.961 . S
H807 C791 0.960 . S
C808 C809 1.391 . S
C808 C810 1.394 . S
C808 H824 0.931 . S
C809 C808 1.391 . S
C809 C813 1.376 . S
C810 C808 1.394 . S
C810 C811 1.369 . S
C810 C814 1.531 . S
C811 C810 1.369 . S
C811 C812 1.410 . S
C811 C819 1.503 . S
C812 C811 1.410 . S
C812 C813 1.392 . S
C812 C815 1.511 . S
C813 C809 1.376 . S
C813 C812 1.392 . S
C813 H825 0.929 . S
C814 C810 1.531 . S
C814 H826 0.960 . S
C814 H827 0.962 . S
C814 H828 0.960 . S
C815 C812 1.511 . S
C815 H829 0.961 . S
C815 H830 0.961 . S
C815 H831 0.961 . S
C816 C817 1.370 . S
C816 C818 1.363 . S
C816 H832 0.931 . S
C817 C816 1.370 . S
C817 C821 1.408 . S
C818 C816 1.363 . S
C818 C819 1.370 . S
C818 C822 1.524 . S
C819 C811 1.503 . S
C819 C818 1.370 . S
C819 C820 1.403 . S
C820 C819 1.403 . S
C820 C821 1.404 . S
C820 C823 1.539 . S
C821 C817 1.408 . S
C821 C820 1.404 . S
C821 H833 0.930 . S
C822 C818 1.524 . S
C822 H834 0.956 . S
C822 H835 0.961 . S
C822 H836 0.961 . S
C823 C820 1.539 . S
C823 H837 0.958 . S
C823 H838 0.961 . S
C823 H839 0.960 . S
H824 C808 0.931 . S
H825 C813 0.929 . S
H826 C814 0.960 . S
H827 C814 0.962 . S
H828 C814 0.960 . S
H829 C815 0.961 . S
H830 C815 0.961 . S
H831 C815 0.961 . S
H832 C816 0.931 . S
H833 C821 0.930 . S
H834 C822 0.956 . S
H835 C822 0.961 . S
H836 C822 0.961 . S
H837 C823 0.958 . S
H838 C823 0.961 . S
H839 C823 0.960 . S
C840 C841 1.391 . S
C840 C842 1.394 . S
C840 H856 0.931 . S
C841 C840 1.391 . S
C841 C845 1.376 . S
C842 C840 1.394 . S
C842 C843 1.369 . S
C842 C846 1.531 . S
C843 C842 1.369 . S
C843 C844 1.410 . S
C843 C851 1.503 . S
C844 C843 1.410 . S
C844 C845 1.392 . S
C844 C847 1.511 1_556 S
C845 C841 1.376 . S
C845 C844 1.392 . S
C845 H857 0.929 . S
C846 C842 1.531 . S
C846 H858 0.960 . S
C846 H859 0.962 . S
C846 H860 0.960 . S
C847 C844 1.511 1_554 S
C847 H861 0.961 . S
C847 H862 0.961 . S
C847 H863 0.961 . S
C848 C849 1.370 . S
C848 C850 1.363 . S
C848 H864 0.931 . S
C849 C848 1.370 . S
C849 C853 1.408 . S
C850 C848 1.363 . S
C850 C851 1.370 . S
C850 C854 1.524 . S
C851 C843 1.503 . S
C851 C850 1.370 . S
C851 C852 1.403 . S
C852 C851 1.403 . S
C852 C853 1.404 . S
C852 C855 1.539 . S
C853 C849 1.408 . S
C853 C852 1.404 . S
C853 H865 0.930 . S
C854 C850 1.524 . S
C854 H866 0.956 . S
C854 H867 0.961 . S
C854 H868 0.961 . S
C855 C852 1.539 . S
C855 H869 0.958 . S
C855 H870 0.961 . S
C855 H871 0.960 . S
H856 C840 0.931 . S
H857 C845 0.929 . S
H858 C846 0.960 . S
H859 C846 0.962 . S
H860 C846 0.960 . S
H861 C847 0.961 . S
H862 C847 0.961 . S
H863 C847 0.961 . S
H864 C848 0.931 . S
H865 C853 0.930 . S
H866 C854 0.956 . S
H867 C854 0.961 . S
H868 C854 0.961 . S
H869 C855 0.958 . S
H870 C855 0.961 . S
H871 C855 0.960 . S
C872 C873 1.391 . S
C872 C874 1.394 . S
C872 H888 0.931 . S
C873 C872 1.391 . S
C873 C877 1.376 . S
C874 C872 1.394 . S
C874 C875 1.369 . S
C874 C878 1.531 . S
C875 C874 1.369 . S
C875 C876 1.410 . S
C875 C883 1.503 . S
C876 C875 1.410 . S
C876 C877 1.392 . S
C876 C879 1.511 . S
C877 C873 1.376 . S
C877 C876 1.392 . S
C877 H889 0.929 . S
C878 C874 1.531 . S
C878 H890 0.960 . S
C878 H891 0.962 . S
C878 H892 0.960 . S
C879 C876 1.511 . S
C879 H893 0.961 . S
C879 H894 0.961 . S
C879 H895 0.961 . S
C880 C881 1.370 . S
C880 C882 1.363 . S
C880 H896 0.931 . S
C881 C880 1.370 . S
C881 C885 1.408 . S
C882 C880 1.363 . S
C882 C883 1.370 . S
C882 C886 1.524 . S
C883 C875 1.503 . S
C883 C882 1.370 . S
C883 C884 1.403 . S
C884 C883 1.403 . S
C884 C885 1.404 . S
C884 C887 1.539 . S
C885 C881 1.408 . S
C885 C884 1.404 . S
C885 H897 0.930 . S
C886 C882 1.524 . S
C886 H898 0.956 . S
C886 H899 0.961 . S
C886 H900 0.961 . S
C887 C884 1.539 . S
C887 H901 0.958 . S
C887 H902 0.961 . S
C887 H903 0.960 . S
H888 C872 0.931 . S
H889 C877 0.929 . S
H890 C878 0.960 . S
H891 C878 0.962 . S
H892 C878 0.960 . S
H893 C879 0.961 . S
H894 C879 0.961 . S
H895 C879 0.961 . S
H896 C880 0.931 . S
H897 C885 0.930 . S
H898 C886 0.956 . S
H899 C886 0.961 . S
H900 C886 0.961 . S
H901 C887 0.958 . S
H902 C887 0.961 . S
H903 C887 0.960 . S
C904 C905 1.391 . S
C904 C906 1.394 . S
C904 H920 0.931 . S
C905 C904 1.391 . S
C905 C909 1.376 . S
C906 C904 1.394 . S
C906 C907 1.369 . S
C906 C910 1.531 . S
C907 C906 1.369 . S
C907 C908 1.410 . S
C907 C915 1.503 . S
C908 C907 1.410 . S
C908 C909 1.392 . S
C908 C911 1.511 . S
C909 C905 1.376 . S
C909 C908 1.392 . S
C909 H921 0.929 . S
C910 C906 1.531 . S
C910 H922 0.960 . S
C910 H923 0.962 . S
C910 H924 0.960 . S
C911 C908 1.511 . S
C911 H925 0.961 1_556 S
C911 H926 0.961 1_556 S
C911 H927 0.961 . S
C912 C913 1.370 . S
C912 C914 1.363 . S
C912 H928 0.938 . S
C913 C912 1.370 . S
C913 C917 1.408 . S
C914 C912 1.363 . S
C914 C915 1.370 . S
C914 C918 1.524 . S
C915 C907 1.503 . S
C915 C914 1.370 . S
C915 C916 1.403 . S
C916 C915 1.403 . S
C916 C917 1.404 . S
C916 C919 1.539 . S
C917 C913 1.408 . S
C917 C916 1.404 . S
C917 H929 0.930 . S
C918 C914 1.524 . S
C918 H930 0.956 . S
C918 H931 0.961 1_556 S
C918 H932 0.961 1_556 S
C919 C916 1.539 . S
C919 H933 0.958 . S
C919 H934 0.961 . S
C919 H935 0.960 . S
H920 C904 0.931 . S
H921 C909 0.929 . S
H922 C910 0.960 . S
H923 C910 0.962 . S
H924 C910 0.960 . S
H925 C911 0.961 1_554 S
H926 C911 0.961 1_554 S
H927 C911 0.961 . S
H928 C912 0.938 . S
H929 C917 0.930 . S
H930 C918 0.956 . S
H931 C918 0.961 1_554 S
H932 C918 0.961 1_554 S
H933 C919 0.958 . S
H934 C919 0.961 . S
H935 C919 0.960 . S
C169 C149 1.600 . S
C177 C9 1.619 . S
C201 C23 1.542 . S
C209 C163 1.536 . S
C233 C37 1.601 . S
C241 C93 1.623 . S
C265 C107 1.618 . S
C273 C51 1.625 . S
C297 C121 1.542 . S
C305 C65 1.533 . S
C329 C79 1.600 . S
C337 C135 1.619 . S
C361 C11 0.989 . S
C369 C109 0.966 . S
C393 C25 0.784 . S
C401 C123 0.820 . S
C425 C137 0.909 . S
C433 C39 0.979 . S
C457 C151 0.971 . S
C465 C53 0.932 . S
C489 C165 0.848 . S
C497 C67 0.814 . S
C521 C95 0.998 . S
C529 C81 0.969 . S
C553 C5 1.042 . S
C561 C56 0.989 . S
C585 C19 0.952 . S
C593 C70 0.918 . S
C617 C33 0.979 . S
C625 C0 0.931 . S
C649 C47 1.033 . S
C657 C14 0.936 . S
C681 C61 0.957 . S
C689 C28 0.895 . S
C713 C75 0.937 . S
C721 C42 0.865 . S
C745 C89 1.033 . S
C753 C112 0.938 . S
C777 C103 0.986 . S
C785 C126 0.930 . S
C809 C140 0.833 . S
C817 C117 0.932 . S
C841 C131 1.031 . S
C849 C154 0.942 . S
C873 C145 0.938 . S
C881 C84 0.865 . S
C905 C159 0.906 . S
C913 C98 0.866 . S
