# Generated by pormake.
# Topology rob, (6)-cn, num edge types: 1
# Building blocks:
#     Node 0, Type 0, BuildingBlock: KUMBOL_clean_sbu_0, # of connection points: 6
#     Node 1, Type 0, BuildingBlock: KUMBOL_clean_sbu_0, # of connection points: 6
#     Node 2, Type 0, BuildingBlock: KUMBOL_clean_sbu_0, # of connection points: 6
#     Node 3, Type 0, BuildingBlock: KUMBOL_clean_sbu_0, # of connection points: 6
#     Edge 4, Type (0, 0), BuildingBlock: FUNLAD_clean_linker_1, # of connection points: 2
#     Edge 5, Type (0, 0), BuildingBlock: FUNLAD_clean_linker_1, # of connection points: 2
#     Edge 6, Type (0, 0), BuildingBlock: FUNLAD_clean_linker_1, # of connection points: 2
#     Edge 7, Type (0, 0), BuildingBlock: FUNLAD_clean_linker_1, # of connection points: 2
#     Edge 8, Type (0, 0), BuildingBlock: FUNLAD_clean_linker_1, # of connection points: 2
#     Edge 9, Type (0, 0), BuildingBlock: FUNLAD_clean_linker_1, # of connection points: 2
#     Edge 10, Type (0, 0), BuildingBlock: FUNLAD_clean_linker_1, # of connection points: 2
#     Edge 11, Type (0, 0), BuildingBlock: FUNLAD_clean_linker_1, # of connection points: 2
#     Edge 12, Type (0, 0), BuildingBlock: FUNLAD_clean_linker_1, # of connection points: 2
#     Edge 13, Type (0, 0), BuildingBlock: FUNLAD_clean_linker_1, # of connection points: 2
#     Edge 14, Type (0, 0), BuildingBlock: FUNLAD_clean_linker_1, # of connection points: 2
#     Edge 15, Type (0, 0), BuildingBlock: FUNLAD_clean_linker_1, # of connection points: 2
# Relax obj value: 0.035
# Max RMSD: 0.158
# Mean RMSD: 0.158
data_MOF--net-rob--node1-KUMBOL_clean_sbu_0--edge1-FUNLAD_clean_linker_1
_symmetry_space_group_name_H-M    P1
_symmetry_Int_Tables_number       1
_symmetry_cell_setting            triclinic
loop_
_symmetry_equiv_pos_as_xyz
'x, y, z'
_cell_length_a     16.717225
_cell_length_b     26.537709
_cell_length_c     34.974993
_cell_angle_alpha  118.14157
_cell_angle_beta   89.62335
_cell_angle_gamma 90.128783
loop_
_atom_site_label
_atom_site_type_symbol
_atom_site_fract_x
_atom_site_fract_y
_atom_site_fract_z
_atom_type_partial_charge
Gd0 Gd 0.27907 0.2441 0.98519 0.0
Gd1 Gd 0.15522 0.35156 0.07648 0.0
C2 C 0.9684 0.46602 0.06094 0.0
C3 C 0.02646 0.5604 0.10259 0.0
C4 C 0.09594 0.47642 0.09636 0.0
C5 C 0.03521 0.44181 0.07073 0.0
C6 C 0.09157 0.53625 0.11332 0.0
C7 C 0.96491 0.52541 0.07652 0.0
C8 C 0.9062 0.42999 0.03672 0.0
C9 C 0.9104 0.37171 0.02413 0.0
N10 N 0.03959 0.38478 0.05715 0.0
C11 C 0.97726 0.34985 0.03524 0.0
H12 H 0.97932 0.30476 0.0253 0.0
C13 C 0.21441 0.48458 0.13543 0.0
N14 N 0.15739 0.45172 0.10652 0.0
C15 C 0.21294 0.54412 0.15292 0.0
C16 C 0.15163 0.57008 0.14151 0.0
H17 H 0.26181 0.46464 0.14437 0.0
H18 H 0.91435 0.54479 0.06915 0.0
H19 H 0.44796 0.30003 0.04221 0.0
H20 H 0.85406 0.44688 0.02836 0.0
H21 H 0.86202 0.34359 1.00597 0.0
H22 H 0.0226 0.60608 0.1148 0.0
H23 H 0.18447 0.12569 0.91611 0.0
H24 H 0.58195 0.16537 0.04551 0.0
H25 H 0.56627 0.26752 0.06558 0.0
H26 H 0.42471 0.99878 0.9608 0.0
H27 H 0.25885 0.56996 0.17532 0.0
H28 H 0.15024 0.61622 0.15535 0.0
H29 H 0.52822 0.06532 1.00669 0.0
H30 H 0.19276 0.02125 0.88961 0.0
N31 N 0.39463 0.2174 1.00974 0.0
C32 C 0.52952 0.17939 0.03507 0.0
C33 C 0.52084 0.23705 0.04647 0.0
C34 C 0.47089 0.1404 1.00985 0.0
C35 C 0.40341 0.16098 0.99742 0.0
C36 C 0.45317 0.25533 0.03311 0.0
N37 N 0.28487 0.14447 0.95757 0.0
C38 C 0.3463 0.12337 0.9708 0.0
C39 C 0.23622 0.04949 0.91254 0.0
C40 C 0.29688 0.02731 0.92757 0.0
C41 C 0.23179 0.10848 0.92746 0.0
C42 C 0.35383 0.06421 0.95643 0.0
H43 H 0.30024 0.98162 0.91595 0.0
O44 O 0.28011 0.21302 0.91525 0.0
O45 O 0.18329 0.30907 1.00639 0.0
O46 O 0.0943 0.26436 0.04191 0.0
O47 O 0.1951 0.1962 1.00715 0.0
O48 O 0.16842 0.23973 0.94667 0.0
O49 O 0.37604 0.26702 0.95482 0.0
O50 O 0.15859 0.37613 0.14526 0.0
O51 O 0.24778 0.2843 0.05491 0.0
O52 O 0.33607 0.33244 0.01813 0.0
O53 O 0.23342 0.3992 0.05134 0.0
O54 O 0.26921 0.35458 0.11249 0.0
O55 O 0.05521 0.33188 0.10725 0.0
C56 C 0.13848 0.2885 0.97382 0.0
C57 C 0.41873 0.04382 0.97052 0.0
C58 C 0.47757 0.08177 0.99683 0.0
C59 C 0.34847 0.23695 0.91559 0.0
C60 C 0.40719 0.20228 0.88148 0.0
C61 C 0.46333 0.16834 0.88849 0.0
C62 C 0.4092 0.2048 0.84205 0.0
C63 C 0.46849 0.17515 0.81042 0.0
C64 C 0.5213 0.1381 0.857 0.0
C65 C 0.52431 0.14162 0.81836 0.0
C66 C 0.12212 0.21115 0.02375 0.0
C67 C 0.29455 0.30374 0.08658 0.0
C68 C 0.08706 0.35677 0.14577 0.0
C69 C 0.03423 0.39442 0.18199 0.0
C70 C 0.0014 0.44364 0.18314 0.0
C71 C 0.01689 0.38138 0.2159 0.0
C72 C 0.96659 0.4175 0.25087 0.0
C73 C 0.95228 0.4796 0.21759 0.0
C74 C 0.93521 0.46683 0.25123 0.0
C75 C 0.3059 0.38477 0.03398 0.0
H76 H 0.46277 0.16562 0.91842 0.0
H77 H 0.36596 0.23099 0.83646 0.0
H78 H 0.5644 0.11198 0.86265 0.0
H79 H 0.5696 0.1174 0.79444 0.0
H80 H 0.01377 0.4543 0.15745 0.0
H81 H 0.04365 0.34376 0.21504 0.0
H82 H 0.92718 0.51749 0.21814 0.0
H83 H 0.8966 0.49543 0.27749 0.0
Gd84 Gd 0.85781 0.69953 0.96191 0.0
Gd85 Gd 0.71996 0.80224 0.04394 0.0
C86 C 0.49659 0.88124 0.01877 0.0
C87 C 0.53051 0.98217 0.05359 0.0
C88 C 0.62495 0.91257 0.05351 0.0
C89 C 0.57274 0.86883 0.02944 0.0
C90 C 0.60422 0.96985 0.06628 0.0
C91 C 0.47631 0.93803 0.03032 0.0
C92 C 0.44241 0.8364 0.99775 0.0
C93 C 0.46528 0.78079 0.98717 0.0
N94 N 0.59471 0.81446 0.01847 0.0
C95 C 0.54196 0.77052 0.9977 0.0
H96 H 0.55788 0.72722 0.98925 0.0
C97 C 0.74467 0.9416 0.09362 0.0
N98 N 0.69453 0.89933 0.06626 0.0
C99 C 0.72744 0.99896 0.10658 0.0
C100 C 0.65719 1.01317 0.09251 0.0
H101 H 0.79904 0.93101 0.10475 0.0
H102 H 0.41855 0.94835 0.02192 0.0
H103 H 0.02802 0.76227 1.0128 0.0
H104 H 0.38302 0.84419 0.98946 0.0
H105 H 0.4239 0.74575 0.97079 0.0
H106 H 0.51417 0.0258 0.06259 0.0
H107 H 0.77686 0.57297 0.89322 0.0
H108 H 0.1573 0.64287 0.03897 0.0
H109 H 0.1465 0.73818 0.04274 0.0
H110 H 0.99774 0.47289 0.97081 0.0
H111 H 0.76822 0.03214 0.12749 0.0
H112 H 0.64351 0.05767 0.1029 0.0
H113 H 0.09809 0.54498 0.01457 0.0
H114 H 0.78566 0.47213 0.87825 0.0
N115 N 0.97444 0.68045 0.99015 0.0
C116 C 0.10622 0.65273 0.02475 0.0
C117 C 0.10034 0.70655 0.02689 0.0
C118 C 0.04682 0.61194 1.00351 0.0
C119 C 0.98243 0.62674 0.98498 0.0
C120 C 0.0331 0.72004 1.00985 0.0
N121 N 0.87001 0.60113 0.93986 0.0
C122 C 0.92814 0.58575 0.95918 0.0
C123 C 0.82574 0.50379 0.90132 0.0
C124 C 0.88116 0.48826 0.92368 0.0
C125 C 0.82134 0.56073 0.90957 0.0
C126 C 0.93431 0.52923 0.95244 0.0
H127 H 0.88362 0.4444 0.9178 0.0
O128 O 0.85614 0.66961 0.89265 0.0
O129 O 0.7541 0.75679 0.9754 0.0
O130 O 0.67665 0.70949 0.0168 0.0
O131 O 0.789 0.65119 0.98873 0.0
O132 O 0.7452 0.67975 0.92107 0.0
O133 O 0.95936 0.71597 0.93036 0.0
O134 O 0.7221 0.84068 0.11406 0.0
O135 O 0.82644 0.74694 0.03203 0.0
O136 O 0.90318 0.79104 0.98978 0.0
O137 O 0.79011 0.84972 0.01544 0.0
O138 O 0.83448 0.829 0.08179 0.0
O139 O 0.63622 0.77378 0.07732 0.0
C140 C 0.71023 0.72843 0.94336 0.0
C141 C 0.99378 0.51553 0.9742 0.0
C142 C 0.05057 0.55668 0.99933 0.0
C143 C 0.92704 0.68959 0.89204 0.0
C144 C 0.97877 0.653 0.85565 0.0
C145 C 0.01633 0.60456 0.85344 0.0
C146 C 0.98887 0.66672 0.82188 0.0
C147 C 0.03514 0.63188 0.78538 0.0
C148 C 0.06391 0.57025 0.81746 0.0
C149 C 0.07294 0.58343 0.78331 0.0
C150 C 0.71487 0.65998 1.00314 0.0
C151 C 0.87035 0.78037 0.06295 0.0
C152 C 0.66265 0.80984 0.11555 0.0
C153 C 0.60268 0.8385 0.14959 0.0
C154 C 0.56563 0.88954 0.1567 0.0
C155 C 0.58342 0.8138 0.17598 0.0
C156 C 0.52841 0.83978 0.21006 0.0
C157 C 0.50986 0.91563 0.19041 0.0
C158 C 0.49119 0.89105 0.21709 0.0
C159 C 0.86565 0.84032 1.00189 0.0
H160 H 0.00923 0.59358 0.87944 0.0
H161 H 0.95989 0.70443 0.82382 0.0
H162 H 0.09458 0.53383 0.81637 0.0
H163 H 0.11131 0.55704 0.75615 0.0
H164 H 0.57982 0.90906 0.1364 0.0
H165 H 0.61245 0.77443 0.17032 0.0
H166 H 0.48095 0.95494 0.19586 0.0
H167 H 0.44698 0.9117 0.24251 0.0
Gd168 Gd 0.32201 0.81125 0.54734 0.0
Gd169 Gd 0.19234 0.70144 0.46061 0.0
C170 C 0.01484 0.58651 0.48361 0.0
C171 C 0.07339 0.49235 0.44075 0.0
C172 C 0.13644 0.57625 0.44273 0.0
C173 C 0.07741 0.61059 0.47026 0.0
C174 C 0.13439 0.51655 0.42684 0.0
C175 C 0.01379 0.52731 0.4692 0.0
C176 C 0.95469 0.62254 0.51054 0.0
C177 C 0.95669 0.68064 0.52237 0.0
N178 N 0.0802 0.66746 0.48319 0.0
C179 C 0.01954 0.70236 0.50789 0.0
H180 H 0.01982 0.74737 0.51762 0.0
C181 C 0.2508 0.56851 0.40032 0.0
N182 N 0.19475 0.60118 0.43042 0.0
C183 C 0.25086 0.50907 0.38321 0.0
C184 C 0.19294 0.483 0.39691 0.0
H185 H 0.29634 0.58828 0.38986 0.0
H186 H 0.9665 0.50805 0.47927 0.0
H187 H 0.49578 0.77667 0.49366 0.0
H188 H 0.9059 0.60584 0.52178 0.0
H189 H 0.90989 0.7088 0.54276 0.0
H190 H 0.07119 0.44669 0.42934 0.0
H191 H 0.20852 0.91529 0.62083 0.0
H192 H 0.61275 0.92988 0.51166 0.0
H193 H 0.61323 0.82516 0.48288 0.0
H194 H 0.43468 0.07751 0.60679 0.0
H195 H 0.29598 0.48345 0.35979 0.0
H196 H 0.19363 0.43705 0.3839 0.0
H197 H 0.54533 0.02396 0.55782 0.0
H198 H 0.20542 0.02082 0.66066 0.0
N199 N 0.42953 0.8534 0.52902 0.0
C200 C 0.56099 0.90895 0.51664 0.0
C201 C 0.56113 0.84973 0.49997 0.0
C202 C 0.49578 0.94069 0.54147 0.0
C203 C 0.43055 0.91131 0.54761 0.0
C204 C 0.49452 0.82246 0.50633 0.0
N205 N 0.31116 0.91151 0.58336 0.0
C206 C 0.3692 0.94136 0.57564 0.0
C207 C 0.25157 0.99902 0.63661 0.0
C208 C 0.30953 0.03042 0.62808 0.0
C209 C 0.25348 0.93928 0.61401 0.0
C210 C 0.37008 1.00168 0.59774 0.0
H211 H 0.30817 0.07668 0.64583 0.0
O212 O 0.33289 0.8279 0.6142 0.0
O213 O 0.22751 0.7469 0.52855 0.0
O214 O 0.13144 0.78765 0.50001 0.0
O215 O 0.23118 0.85782 0.52748 0.0
O216 O 0.22306 0.80879 0.5916 0.0
O217 O 0.42941 0.7856 0.56806 0.0
O218 O 0.18503 0.67559 0.39163 0.0
O219 O 0.2883 0.76683 0.47753 0.0
O220 O 0.3826 0.72492 0.50832 0.0
O221 O 0.27908 0.65751 0.4848 0.0
O222 O 0.3 0.69321 0.41906 0.0
O223 O 0.09432 0.73087 0.43617 0.0
C224 C 0.19086 0.7617 0.56353 0.0
C225 C 0.43292 0.0312 0.59019 0.0
C226 C 0.49586 1.00072 0.56224 0.0
C227 C 0.4037 0.80466 0.6078 0.0
C228 C 0.46232 0.83205 0.64263 0.0
C229 C 0.51024 0.87741 0.64619 0.0
C230 C 0.47125 0.81092 0.67235 0.0
C231 C 0.52865 0.834 0.70534 0.0
C232 C 0.56685 0.90124 0.67925 0.0
C233 C 0.57624 0.87981 0.70868 0.0
C234 C 0.15674 0.84098 0.51462 0.0
C235 C 0.33139 0.74218 0.44395 0.0
C236 C 0.1181 0.70284 0.39592 0.0
C237 C 0.05597 0.67335 0.36342 0.0
C238 C 0.99384 0.64358 0.37115 0.0
C239 C 0.05602 0.67851 0.32525 0.0
C240 C 0.99287 0.65602 0.29573 0.0
C241 C 0.93115 0.62079 0.34161 0.0
C242 C 0.93 0.62758 0.30432 0.0
C243 C 0.35421 0.67304 0.49686 0.0
H244 H 0.50391 0.89421 0.62351 0.0
H245 H 0.43396 0.77574 0.66939 0.0
H246 H 0.60352 0.93654 0.68216 0.0
H247 H 0.6196 0.89993 0.73433 0.0
H248 H 0.99302 0.63899 0.40033 0.0
H249 H 0.10355 0.70187 0.31931 0.0
H250 H 0.88284 0.59842 0.34789 0.0
H251 H 0.88042 0.61036 0.28205 0.0
Gd252 Gd 0.81729 0.31996 0.55916 0.0
Gd253 Gd 0.68179 0.21468 0.47952 0.0
C254 C 0.47687 0.1224 0.50851 0.0
C255 C 0.51913 0.02327 0.46914 0.0
C256 C 0.60097 0.0984 0.46783 0.0
C257 C 0.5469 0.13899 0.49457 0.0
C258 C 0.58704 0.03997 0.45411 0.0
C259 C 0.46401 0.06447 0.49628 0.0
C260 C 0.4208 0.16429 0.53329 0.0
C261 C 0.43444 0.22079 0.54274 0.0
N262 N 0.56144 0.19455 0.50578 0.0
C263 C 0.50536 0.23532 0.52886 0.0
H264 H 0.51432 0.27943 0.53712 0.0
C265 C 0.71614 0.07674 0.42339 0.0
N266 N 0.6655 0.11585 0.4536 0.0
C267 C 0.70449 0.01826 0.40853 0.0
C268 C 0.64048 0.99993 0.42462 0.0
H269 H 0.76621 0.09069 0.41112 0.0
H270 H 0.41089 0.05099 0.50691 0.0
H271 H 0.98866 0.25943 0.50681 0.0
H272 H 0.36615 0.15331 0.54448 0.0
H273 H 0.39065 0.25343 0.56117 0.0
H274 H 0.50782 0.97856 0.45922 0.0
H275 H 0.72225 0.44188 0.62315 0.0
H276 H 0.1419 0.39026 0.50996 0.0
H277 H 0.11884 0.28933 0.49167 0.0
H278 H 0.98625 0.56065 0.58567 0.0
H279 H 0.74491 0.98738 0.38477 0.0
H280 H 0.6315 0.9549 0.41345 0.0
H281 H 0.09042 0.49097 0.54318 0.0
H282 H 0.73892 0.54506 0.64989 0.0
N283 N 0.93752 0.34286 0.53497 0.0
C284 C 0.0845 0.37753 0.51718 0.0
C285 C 0.07177 0.32057 0.50694 0.0
C286 C 0.02362 0.41758 0.53751 0.0
C287 C 0.95051 0.39887 0.54695 0.0
C288 C 0.99719 0.30372 0.51535 0.0
N289 N 0.82745 0.4191 0.58395 0.0
C290 C 0.89318 0.43821 0.57187 0.0
C291 C 0.7829 0.51566 0.62794 0.0
C292 C 0.84885 0.53595 0.61464 0.0
C293 C 0.77345 0.45695 0.61256 0.0
C294 C 0.90575 0.49719 0.58683 0.0
H295 H 0.85628 0.58154 0.62682 0.0
O296 O 0.81886 0.35246 0.62885 0.0
O297 O 0.71762 0.25853 0.54899 0.0
O298 O 0.63127 0.30465 0.51345 0.0
O299 O 0.74062 0.36584 0.53236 0.0
O300 O 0.70683 0.33918 0.60079 0.0
O301 O 0.91413 0.2967 0.58878 0.0
O302 O 0.67616 0.18276 0.40975 0.0
O303 O 0.78254 0.27465 0.49023 0.0
O304 O 0.8689 0.22979 0.52753 0.0
O305 O 0.76112 0.16642 0.50348 0.0
O306 O 0.79313 0.19532 0.43753 0.0
O307 O 0.58906 0.2446 0.45194 0.0
C308 C 0.67496 0.2892 0.58192 0.0
C309 C 0.97597 0.51564 0.57497 0.0
C310 C 0.03512 0.47593 0.55063 0.0
C311 C 0.88606 0.32719 0.62795 0.0
C312 C 0.94371 0.36066 0.66175 0.0
C313 C 0.98969 0.40386 0.66013 0.0
C314 C 0.95171 0.34922 0.69673 0.0
C315 C 0.00415 0.3814 0.73062 0.0
C316 C 0.04356 0.43519 0.69339 0.0
C317 C 0.0508 0.42413 0.72859 0.0
C318 C 0.66416 0.35431 0.52252 0.0
C319 C 0.82609 0.24487 0.45773 0.0
C320 C 0.61381 0.2135 0.4122 0.0
C321 C 0.55221 0.18663 0.37894 0.0
C322 C 0.50322 0.14304 0.37774 0.0
C323 C 0.54209 0.20579 0.34808 0.0
C324 C 0.48281 0.18214 0.31609 0.0
C325 C 0.44473 0.11874 0.34577 0.0
C326 C 0.43446 0.13793 0.31507 0.0
C327 C 0.8366 0.17896 0.51588 0.0
H328 H 0.98435 0.41302 0.63322 0.0
H329 H 0.91619 0.31567 0.6979 0.0
H330 H 0.08015 0.46772 0.69163 0.0
H331 H 0.09425 0.44757 0.75347 0.0
H332 H 0.51036 0.12785 0.40134 0.0
H333 H 0.58014 0.23965 0.34923 0.0
H334 H 0.40738 0.0847 0.34465 0.0
H335 H 0.38974 0.11728 0.29027 0.0
H336 H 0.70558 0.56933 0.98646 0.0
C337 C 0.67392 0.60997 1.00182 0.0
H338 H 0.56754 0.65173 0.03371 0.0
H339 H 0.37267 0.41833 0.94539 0.0
H340 H 0.34503 0.45261 0.89338 0.0
H341 H 0.40935 0.53998 0.89996 0.0
H342 H 0.5076 0.59077 0.956 0.0
C343 C 0.60147 0.61211 0.01908 0.0
C344 C 0.56288 0.55913 0.01502 0.0
C345 C 0.50021 0.53347 0.98491 0.0
C346 C 0.4596 0.48502 0.9827 0.0
C347 C 0.40318 0.45652 0.94938 0.0
C348 C 0.38676 0.47574 0.9194 0.0
C349 C 0.42336 0.52478 0.92293 0.0
C350 C 0.47931 0.55366 0.95537 0.0
H351 H 0.33028 0.4723 0.04454 0.0
C352 C 0.3554 0.42961 0.03188 0.0
H353 H 0.45624 0.37698 1.00234 0.0
H354 H 0.69573 0.58604 0.06634 0.0
H355 H 0.73709 0.54287 0.11062 0.0
H356 H 0.65795 0.46529 0.11222 0.0
H357 H 0.53869 0.42913 0.06826 0.0
C358 C 0.42926 0.41896 0.01424 0.0
C359 C 0.47816 0.4648 1.01255 0.0
C360 C 0.54534 0.4871 0.03992 0.0
C361 C 0.58914 0.53337 0.0403 0.0
C362 C 0.65868 0.55254 0.06603 0.0
C363 C 0.6833 0.52785 0.09141 0.0
C364 C 0.6389 0.48406 0.0922 0.0
C365 C 0.57055 0.46378 0.06687 0.0
H366 H 0.47439 0.63969 0.49633 0.0
C367 C 0.41094 0.63138 0.49754 0.0
H368 H 0.32465 0.57922 0.506 0.0
H369 H 0.56584 0.36977 0.44254 0.0
H370 H 0.46012 0.3306 0.38944 0.0
H371 H 0.3467 0.39078 0.39067 0.0
H372 H 0.34023 0.49085 0.44425 0.0
C373 C 0.38784 0.58766 0.50416 0.0
C374 C 0.44838 0.54951 0.5084 0.0
C375 C 0.45046 0.4908 0.47754 0.0
C376 C 0.51394 0.45558 0.47805 0.0
C377 C 0.51702 0.39788 0.44509 0.0
C378 C 0.4571 0.37493 0.41406 0.0
C379 C 0.39351 0.40885 0.41463 0.0
C380 C 0.39049 0.46627 0.44556 0.0
H381 H 0.54637 0.39186 0.52595 0.0
C382 C 0.61003 0.39795 0.52292 0.0
H383 H 0.69708 0.44713 0.51137 0.0
H384 H 0.45226 0.65702 0.57834 0.0
H385 H 0.55508 0.69522 0.63342 0.0
H386 H 0.66877 0.6353 0.63213 0.0
H387 H 0.67923 0.53656 0.57611 0.0
C388 C 0.63392 0.44028 0.51487 0.0
C389 C 0.57323 0.47855 0.51084 0.0
C390 C 0.57022 0.53701 0.5422 0.0
C391 C 0.5066 0.57218 0.54175 0.0
C392 C 0.50159 0.62921 0.57569 0.0
C393 C 0.55968 0.65152 0.60785 0.0
C394 C 0.62349 0.61774 0.60725 0.0
C395 C 0.62877 0.5611 0.575 0.0
H396 H 0.00685 0.17872 0.03426 0.0
C397 C 0.06777 0.16652 0.02246 0.0
H398 H 0.15341 0.10011 0.99875 0.0
H399 H 0.9816 0.95783 0.07748 0.0
H400 H 0.1003 0.99085 0.12195 0.0
H401 H 0.19209 0.05962 0.11578 0.0
H402 H 0.16515 0.09627 0.0655 0.0
C403 C 0.09166 0.11227 1.00845 0.0
C404 C 0.03763 0.06882 1.01033 0.0
C405 C 0.05536 0.04674 0.03916 0.0
C406 C 0.00355 1.00593 0.04189 0.0
C407 C 0.02053 0.98699 0.07269 0.0
C408 C 0.08813 1.00606 0.09878 0.0
C409 C 0.13972 0.04486 0.09537 0.0
C410 C 0.12358 0.06541 0.06622 0.0
H411 H 0.97547 0.8782 0.99152 0.0
C412 C 0.91329 0.88712 1.00185 0.0
H413 H 0.82149 0.94918 0.02358 0.0
H414 H 0.99001 0.09852 0.94874 0.0
H415 H 0.87155 0.06529 0.90411 0.0
H416 H 0.78068 0.99559 0.9096 0.0
H417 H 0.80811 0.95839 0.95953 0.0
C418 C 0.88417 0.93989 0.01487 0.0
C419 C 0.9355 0.98578 0.01466 0.0
C420 C 0.91742 1.00826 0.98612 0.0
C421 C 0.96901 0.04933 0.98356 0.0
C422 C 0.95157 0.06883 0.95316 0.0
C423 C 0.88405 0.04972 0.92703 0.0
C424 C 0.83297 1.0104 0.93006 0.0
C425 C 0.84938 0.98951 0.95899 0.0
H426 H 0.95331 0.14652 0.52284 0.0
C427 C 0.89036 0.13534 0.51666 0.0
H428 H 0.80362 0.07195 0.50581 0.0
H429 H 0.07158 0.87702 0.44013 0.0
H430 H 0.99439 0.84918 0.37491 0.0
H431 H 0.88486 0.91023 0.37317 0.0
H432 H 0.85284 0.99979 0.43673 0.0
C433 C 0.8659 0.08474 0.51255 0.0
C434 C 0.92489 0.04441 0.51565 0.0
C435 C 0.94243 0.9916 0.47864 0.0
C436 C 0.00457 0.95578 0.48003 0.0
C437 C 0.02311 0.90481 0.44167 0.0
C438 C 0.97976 0.88855 0.40376 0.0
C439 C 0.91823 0.92294 0.40274 0.0
C440 C 0.90016 0.97414 0.43949 0.0
H441 H 0.0339 0.868 0.5113 0.0
C442 C 0.0957 0.88249 0.51669 0.0
H443 H 0.17376 0.95033 0.52696 0.0
H444 H 0.89794 0.13778 0.59465 0.0
H445 H 0.97274 0.16482 0.66063 0.0
H446 H 0.08268 0.10415 0.66256 0.0
H447 H 0.11751 0.01582 0.59853 0.0
C448 C 0.11269 0.93447 0.52108 0.0
C449 C 0.04795 0.97208 0.51898 0.0
C450 C 0.02891 0.02424 0.55629 0.0
C451 C 0.96667 0.05992 0.55487 0.0
C452 C 0.94669 0.11028 0.59335 0.0
C453 C 0.9886 0.12602 0.63162 0.0
C454 C 0.05037 0.09183 0.63273 0.0
C455 C 0.07008 0.04135 0.59571 0.0
H456 H 0.52626 0.22536 0.27894 0.0
C457 C 0.47507 0.20355 0.28377 0.0
H458 H 0.35469 0.17904 0.2661 0.0
H459 H 0.39118 0.37698 0.20297 0.0
H460 H 0.40635 0.4435 0.27879 0.0
H461 H 0.41975 0.40968 0.33293 0.0
H462 H 0.41616 0.30864 0.31151 0.0
C463 C 0.40754 0.19957 0.26169 0.0
C464 C 0.40323 0.22049 0.22885 0.0
C465 C 0.40598 0.2798 0.24177 0.0
C466 C 0.39928 0.29924 0.21022 0.0
C467 C 0.3987 0.35905 0.22475 0.0
C468 C 0.40662 0.39808 0.26848 0.0
C469 C 0.41394 0.37903 0.299 0.0
C470 C 0.41268 0.32076 0.2861 0.0
H471 H 0.27762 0.23487 0.10349 0.0
C472 C 0.31938 0.26778 0.10614 0.0
H473 H 0.42145 0.31539 0.13573 0.0
H474 H 0.39189 0.10432 0.19356 0.0
H475 H 0.3759 0.03661 0.11757 0.0
H476 H 0.37131 0.0693 0.06236 0.0
H477 H 0.38328 0.16953 0.08282 0.0
C478 C 0.38188 0.28144 0.1332 0.0
C479 C 0.39072 0.25931 0.16545 0.0
C480 C 0.38866 0.19976 0.15265 0.0
C481 C 0.39321 0.18064 0.18446 0.0
C482 C 0.38867 0.12123 0.17087 0.0
C483 C 0.37982 0.08178 0.12732 0.0
C484 C 0.37723 0.1002 0.09625 0.0
C485 C 0.38308 0.15817 0.10853 0.0
H486 H 0.52384 0.76552 0.22252 0.0
C487 C 0.51094 0.81101 0.23663 0.0
H488 H 0.47711 0.88453 0.29434 0.0
H489 H 0.31223 0.69051 0.33626 0.0
H490 H 0.22779 0.66646 0.274 0.0
H491 H 0.2541 0.70679 0.22472 0.0
H492 H 0.36125 0.7753 0.23906 0.0
C493 C 0.48462 0.83846 0.27774 0.0
C494 C 0.47383 0.80741 0.30331 0.0
C495 C 0.40691 0.7711 0.29608 0.0
C496 C 0.39294 0.7466 0.3239 0.0
C497 C 0.32608 0.71009 0.31602 0.0
C498 C 0.27687 0.69602 0.28047 0.0
C499 C 0.2913 0.71922 0.2529 0.0
C500 C 0.35392 0.75772 0.26116 0.0
H501 H 0.38236 0.81558 0.43875 0.0
C502 C 0.38636 0.76965 0.42649 0.0
H503 H 0.42817 0.69065 0.37711 0.0
H504 H 0.61871 0.86154 0.31776 0.0
H505 H 0.72069 0.86441 0.36803 0.0
H506 H 0.69726 0.8194 0.4148 0.0
H507 H 0.57212 0.76958 0.41048 0.0
C508 C 0.4265 0.73673 0.38956 0.0
C509 C 0.44621 0.75813 0.35843 0.0
C510 C 0.51834 0.78766 0.36171 0.0
C511 C 0.53187 0.81308 0.33446 0.0
C512 C 0.60524 0.84157 0.33781 0.0
C513 C 0.66436 0.84325 0.36634 0.0
C514 C 0.65109 0.81807 0.39279 0.0
C515 C 0.5789 0.79049 0.39058 0.0
H516 H 0.6722 0.8014 0.93397 0.0
C517 C 0.66609 0.75549 0.92122 0.0
H518 H 0.62964 0.67777 0.86942 0.0
H519 H 0.50798 0.8842 0.82074 0.0
H520 H 0.43027 0.92391 0.88697 0.0
H521 H 0.43651 0.88226 0.93664 0.0
H522 H 0.52269 0.80051 0.92025 0.0
C523 C 0.63385 0.72372 0.88178 0.0
C524 C 0.62149 0.74645 0.85025 0.0
C525 C 0.56936 0.79318 0.85963 0.0
C526 C 0.56253 0.81571 0.82997 0.0
C527 C 0.5134 0.86413 0.84127 0.0
C528 C 0.46877 0.8877 0.87945 0.0
C529 C 0.47258 0.86424 0.90744 0.0
C530 C 0.52239 0.81766 0.89784 0.0
H531 H 0.48371 0.78724 0.73954 0.0
C532 C 0.53491 0.81038 0.73633 0.0
H533 H 0.65529 0.83337 0.75478 0.0
H534 H 0.72933 0.65735 0.82119 0.0
H535 H 0.7928 0.61064 0.75055 0.0
H536 H 0.76751 0.6434 0.69641 0.0
H537 H 0.68123 0.72435 0.71317 0.0
C538 C 0.60084 0.81464 0.75954 0.0
C539 C 0.60417 0.78963 0.78983 0.0
C540 C 0.65186 0.74072 0.77913 0.0
C541 C 0.66253 0.72008 0.80968 0.0
C542 C 0.7155 0.67348 0.79881 0.0
C543 C 0.75284 0.64628 0.75834 0.0
C544 C 0.73873 0.66467 0.72785 0.0
C545 C 0.68935 0.71147 0.738 0.0
H546 H 0.61788 0.30378 0.6423 0.0
C547 C 0.63083 0.27007 0.60976 0.0
H548 H 0.63249 0.18233 0.56876 0.0
H549 H 0.61544 0.09013 0.70431 0.0
H550 H 0.7077 0.02597 0.64922 0.0
H551 H 0.74701 0.04211 0.5878 0.0
H552 H 0.6929 0.12066 0.58016 0.0
C553 C 0.61473 0.2157 0.60031 0.0
C554 C 0.58274 0.20055 0.63428 0.0
C555 C 0.6175 0.15474 0.63886 0.0
C556 C 0.59766 0.14678 0.67548 0.0
C557 C 0.63055 0.09935 0.67812 0.0
C558 C 0.68331 0.06196 0.6466 0.0
C559 C 0.70523 0.07096 0.61197 0.0
C560 C 0.67323 0.11667 0.60803 0.0
H561 H 0.41449 0.18002 0.75432 0.0
C562 C 0.47093 0.17882 0.7691 0.0
H563 H 0.59641 0.18258 0.7662 0.0
H564 H 0.47807 0.27504 0.62721 0.0
H565 H 0.38683 0.33988 0.6825 0.0
H566 H 0.3753 0.34016 0.75295 0.0
H567 H 0.45062 0.27332 0.76712 0.0
C568 C 0.54038 0.18328 0.75087 0.0
C569 C 0.5467 0.18609 0.70893 0.0
C570 C 0.50845 0.22978 0.70315 0.0
C571 C 0.52214 0.23414 0.66446 0.0
C572 C 0.47472 0.27286 0.65716 0.0
C573 C 0.42167 0.31008 0.68857 0.0
C574 C 0.41477 0.30995 0.72807 0.0
C575 C 0.45779 0.27062 0.73554 0.0
H576 H 0.94215 0.79917 0.11977 0.0
C577 C 0.91545 0.76399 0.09151 0.0
H578 H 0.87338 0.6797 0.0647 0.0
H579 H 0.07009 0.74815 0.25282 0.0
H580 H 0.18051 0.78139 0.22529 0.0
H581 H 0.17643 0.77224 0.15192 0.0
H582 H 0.05749 0.73725 0.10821 0.0
C583 C 0.90513 0.71371 0.09145 0.0
C584 C 0.91514 0.70917 0.13235 0.0
C585 C 0.98866 0.72287 0.15531 0.0
C586 C 0.99444 0.72194 0.19562 0.0
C587 C 0.06455 0.7438 0.22062 0.0
C588 C 0.12851 0.76297 0.20524 0.0
C589 C 0.12574 0.75867 0.1642 0.0
C590 C 0.05692 0.73866 0.13939 0.0
H591 H 0.03828 0.64271 0.232 0.0
C592 C 0.99191 0.66332 0.2564 0.0
H593 H 0.89123 0.71688 0.27658 0.0
H594 H 0.75949 0.69539 0.10411 0.0
H595 H 0.64578 0.67165 0.13553 0.0
H596 H 0.66157 0.65482 0.19853 0.0
H597 H 0.79057 0.66509 0.23225 0.0
C598 C 0.93615 0.69604 0.25132 0.0
C599 C 0.92945 0.70166 0.21087 0.0
C600 C 0.8554 0.68948 0.18869 0.0
C601 C 0.84749 0.69527 0.15041 0.0
C602 C 0.77044 0.68904 0.13198 0.0
C603 C 0.70422 0.67573 0.14986 0.0
C604 C 0.713 0.66647 0.18543 0.0
C605 C 0.7876 0.67274 0.20455 0.0
H606 H 0.90838 0.23431 0.40542 0.0
C607 C 0.87408 0.2662 0.4325 0.0
H608 H 0.82313 0.34824 0.45953 0.0
H609 H 0.09055 0.34353 0.31192 0.0
H610 H 0.19266 0.32457 0.35243 0.0
H611 H 0.15604 0.30811 0.4141 0.0
H612 H 0.01693 0.30956 0.43465 0.0
C613 C 0.86239 0.31766 0.43453 0.0
C614 C 0.88649 0.32891 0.39758 0.0
C615 C 0.96802 0.32758 0.38514 0.0
C616 C 0.98918 0.33721 0.34953 0.0
C617 C 0.07109 0.33601 0.33837 0.0
C618 C 0.13039 0.32535 0.36141 0.0
C619 C 0.10981 0.31614 0.39611 0.0
C620 C 0.02981 0.31722 0.40781 0.0
H621 H 0.92119 0.44214 0.31713 0.0
C622 C 0.94598 0.40667 0.28808 0.0
H623 H 0.97609 0.31879 0.25931 0.0
H624 H 0.72386 0.3317 0.41016 0.0
H625 H 0.62247 0.34685 0.36755 0.0
H626 H 0.65933 0.3627 0.30583 0.0
H627 H 0.79824 0.36302 0.28584 0.0
C628 C 0.95215 0.35567 0.28748 0.0
C629 C 0.92912 0.34809 0.32597 0.0
C630 C 0.84755 0.3489 0.3379 0.0
C631 C 0.82628 0.33969 0.37376 0.0
C632 C 0.74403 0.33933 0.38389 0.0
C633 C 0.6849 0.34779 0.35961 0.0
C634 C 0.70568 0.35662 0.32476 0.0
C635 C 0.78581 0.35702 0.3138 0.0
H636 H 0.01868 0.3229 0.75841 0.0
C637 C 0.01175 0.36763 0.76666 0.0
H638 H 0.99484 0.45179 0.81673 0.0
H639 H 0.94696 0.25761 0.88933 0.0
H640 H 0.83015 0.22562 0.84292 0.0
H641 H 0.79324 0.2707 0.79785 0.0
H642 H 0.87347 0.34769 0.79865 0.0
C643 C 0.00416 0.40729 0.80845 0.0
C644 C 0.0117 0.39098 0.84371 0.0
C645 C 0.96303 0.34723 0.84381 0.0
C646 C 0.98342 0.32211 0.87043 0.0
C647 C 0.93457 0.27778 0.86936 0.0
C648 C 0.86707 0.25933 0.84314 0.0
C649 C 0.84634 0.28466 0.81773 0.0
C650 C 0.89334 0.32829 0.81809 0.0
H651 H 0.07962 0.36776 0.98146 0.0
C652 C 0.09373 0.32378 0.95881 0.0
H653 H 0.09763 0.26135 0.89318 0.0
H654 H 0.09896 0.4869 0.86186 0.0
H655 H 0.20152 0.52921 0.91648 0.0
H656 H 0.23915 0.48487 0.96186 0.0
H657 H 0.18014 0.39645 0.95068 0.0
C658 C 0.08311 0.30534 0.91621 0.0
C659 C 0.05147 0.34147 0.89753 0.0
C660 C 0.09354 0.39053 0.90175 0.0
C661 C 0.07209 0.41603 0.87537 0.0
C662 C 0.11324 0.46559 0.88069 0.0
C663 C 0.17235 0.49031 0.9119 0.0
C664 C 0.19401 0.46512 0.9372 0.0
C665 C 0.15761 0.41474 0.93119 0.0
H666 H 0.14287 0.67766 0.55162 0.0
C667 C 0.1514 0.72172 0.57578 0.0
H668 H 0.14717 0.78053 0.64228 0.0
H669 H 0.91418 0.67189 0.71834 0.0
H670 H 0.83411 0.75059 0.72191 0.0
H671 H 0.87408 0.80139 0.68152 0.0
H672 H 0.99673 0.77642 0.63908 0.0
C673 C 0.13784 0.73657 0.61754 0.0
C674 C 0.1061 0.69608 0.63218 0.0
C675 C 0.03259 0.70926 0.65513 0.0
C676 C 0.00884 0.67916 0.6778 0.0
C677 C 0.93583 0.69423 0.70127 0.0
C678 C 0.88869 0.73854 0.70302 0.0
C679 C 0.91147 0.7675 0.68047 0.0
C680 C 0.98228 0.75302 0.65654 0.0
H681 H 0.05346 0.69532 0.7625 0.0
C682 C 0.04704 0.64976 0.75164 0.0
H683 H 0.03708 0.56798 0.69726 0.0
H684 H 0.25002 0.6569 0.58917 0.0
H685 H 0.32473 0.57504 0.58199 0.0
H686 H 0.27744 0.51831 0.61671 0.0
H687 H 0.15584 0.54432 0.65999 0.0
C688 C 0.04517 0.6135 0.70886 0.0
C689 C 0.05851 0.6354 0.67708 0.0
C690 C 0.12681 0.6174 0.64964 0.0
C691 C 0.15219 0.64879 0.62807 0.0
C692 C 0.22529 0.63331 0.60453 0.0
C693 C 0.26941 0.58651 0.6004 0.0
C694 C 0.24295 0.55469 0.6201 0.0
C695 C 0.17303 0.57011 0.64487 0.0
loop_
_geom_bond_atom_site_label_1
_geom_bond_atom_site_label_2
_geom_bond_distance
_geom_bond_site_symmetry_2
_ccdc_geom_bond_type
Gd0 N31 2.661 . S
Gd0 N37 2.601 . S
Gd0 O44 2.545 . S
Gd0 O45 2.606 . S
Gd0 O47 2.429 . S
Gd0 O48 2.545 . S
Gd0 O49 2.412 . S
Gd0 O51 2.362 1_556 S
Gd0 O52 2.324 . S
Gd0 C59 2.828 . S
Gd1 N10 2.661 . S
Gd1 N14 2.601 . S
Gd1 O45 2.362 1_554 S
Gd1 O46 2.324 . S
Gd1 O50 2.545 . S
Gd1 O51 2.606 . S
Gd1 O53 2.429 . S
Gd1 O54 2.545 . S
Gd1 O55 2.412 . S
Gd1 C68 2.828 . S
C2 C5 1.417 1_556 S
C2 C7 1.431 . S
C2 C8 1.412 . S
C3 C6 1.437 . S
C3 C7 1.317 1_554 S
C3 H22 0.929 . S
C4 C5 1.426 1_455 S
C4 C6 1.413 1_455 S
C4 N14 1.359 . S
C5 C2 1.417 1_554 S
C5 C4 1.426 1_655 S
C5 N10 1.350 1_655 S
C6 C3 1.437 . S
C6 C4 1.413 1_655 S
C6 C16 1.391 1_655 S
C7 C2 1.431 . S
C7 C3 1.317 1_556 S
C7 H18 0.930 . S
C8 C2 1.412 . S
C8 C9 1.355 . S
C8 H20 0.930 . S
C9 C8 1.355 . S
C9 C11 1.405 . S
C9 H21 0.930 . S
N10 Gd1 2.661 . S
N10 C5 1.350 1_455 S
N10 C11 1.306 1_454 S
C11 C9 1.405 . S
C11 N10 1.306 1_656 S
C11 H12 0.928 1_655 S
H12 C11 0.928 1_455 S
C13 N14 1.334 . S
C13 C15 1.394 . S
C13 H17 0.930 . S
N14 Gd1 2.601 . S
N14 C4 1.359 . S
N14 C13 1.334 . S
C15 C13 1.394 . S
C15 C16 1.359 . S
C15 H27 0.930 . S
C16 C6 1.391 1_455 S
C16 C15 1.359 . S
C16 H28 0.929 1_455 S
H17 C13 0.930 . S
H18 C7 0.930 . S
H19 C36 0.930 . S
H20 C8 0.930 . S
H21 C9 0.930 . S
H22 C3 0.929 . S
H23 C41 0.930 . S
H24 C32 0.930 . S
H25 C33 0.930 . S
H26 C57 0.929 . S
H27 C15 0.930 . S
H28 C16 0.929 1_655 S
H29 C58 0.930 . S
H30 C39 0.930 1_565 S
N31 Gd0 2.661 . S
N31 C35 1.350 . S
N31 C36 1.307 1_556 S
C32 H24 0.930 . S
C32 C33 1.355 . S
C32 C34 1.412 . S
C33 H25 0.930 . S
C33 C32 1.355 . S
C33 C36 1.402 . S
C34 C32 1.412 . S
C34 C35 1.417 1_554 S
C34 C58 1.431 . S
C35 N31 1.350 . S
C35 C34 1.417 1_556 S
C35 C38 1.426 . S
C36 H19 0.930 . S
C36 N31 1.307 1_554 S
C36 C33 1.402 . S
N37 Gd0 2.601 . S
N37 C38 1.359 . S
N37 C41 1.334 . S
C38 C35 1.426 . S
C38 N37 1.359 . S
C38 C42 1.413 . S
C39 H30 0.930 1_545 S
C39 C40 1.359 . S
C39 C41 1.394 . S
C40 C39 1.359 . S
C40 C42 1.391 . S
C40 H43 0.929 1_545 S
C41 H23 0.930 . S
C41 N37 1.334 . S
C41 C39 1.394 . S
C42 C38 1.413 . S
C42 C40 1.391 . S
C42 C57 1.437 . S
H43 C40 0.929 1_565 S
O44 Gd0 2.545 . S
O44 C59 1.258 . S
O45 Gd0 2.606 . S
O45 Gd1 2.362 1_556 S
O45 C56 1.284 . S
O46 Gd1 2.324 . S
O46 C66 1.254 1_554 S
O47 Gd0 2.429 . S
O47 C66 1.268 . S
O48 Gd0 2.545 . S
O48 C56 1.250 . S
O49 Gd0 2.412 . S
O49 C59 1.252 . S
O50 Gd1 2.545 . S
O50 C68 1.258 . S
O51 Gd0 2.362 1_554 S
O51 Gd1 2.606 . S
O51 C67 1.284 . S
O52 Gd0 2.324 . S
O52 C75 1.254 1_556 S
O53 Gd1 2.429 . S
O53 C75 1.268 . S
O54 Gd1 2.545 . S
O54 C67 1.250 . S
O55 Gd1 2.412 . S
O55 C68 1.252 . S
C56 O45 1.284 . S
C56 O48 1.250 . S
C57 H26 0.929 . S
C57 C42 1.437 . S
C57 C58 1.317 1_556 S
C58 H29 0.930 . S
C58 C34 1.431 . S
C58 C57 1.317 1_554 S
C59 Gd0 2.828 . S
C59 O44 1.258 . S
C59 O49 1.252 . S
C59 C60 1.497 . S
C60 C59 1.497 . S
C60 C61 1.395 . S
C60 C62 1.380 . S
C61 C60 1.395 . S
C61 C64 1.398 . S
C61 H76 0.930 . S
C62 C60 1.380 . S
C62 C63 1.391 . S
C62 H77 0.930 . S
C63 C62 1.391 . S
C63 C65 1.387 . S
C64 C61 1.398 . S
C64 C65 1.380 . S
C64 H78 0.930 . S
C65 C63 1.387 . S
C65 C64 1.380 . S
C65 H79 0.930 . S
C66 O46 1.254 1_556 S
C66 O47 1.268 . S
C67 O51 1.284 . S
C67 O54 1.250 . S
C68 Gd1 2.828 . S
C68 O50 1.258 . S
C68 O55 1.252 . S
C68 C69 1.497 . S
C69 C68 1.497 . S
C69 C70 1.395 . S
C69 C71 1.380 . S
C70 C69 1.395 . S
C70 C73 1.398 . S
C70 H80 0.930 . S
C71 C69 1.380 . S
C71 C72 1.391 . S
C71 H81 0.930 . S
C72 C71 1.391 . S
C72 C74 1.387 1_455 S
C73 C70 1.398 . S
C73 C74 1.380 1_455 S
C73 H82 0.930 1_455 S
C74 C72 1.387 1_655 S
C74 C73 1.380 1_655 S
C74 H83 0.930 . S
C75 O52 1.254 1_554 S
C75 O53 1.268 . S
H76 C61 0.930 . S
H77 C62 0.930 . S
H78 C64 0.930 . S
H79 C65 0.930 . S
H80 C70 0.930 . S
H81 C71 0.930 . S
H82 C73 0.930 1_655 S
H83 C74 0.930 . S
Gd84 N115 2.661 . S
Gd84 N121 2.601 . S
Gd84 O128 2.545 . S
Gd84 O129 2.606 . S
Gd84 O131 2.429 . S
Gd84 O132 2.545 . S
Gd84 O133 2.412 . S
Gd84 O135 2.362 1_556 S
Gd84 O136 2.324 . S
Gd84 C143 2.828 . S
Gd85 N94 2.661 . S
Gd85 N98 2.601 . S
Gd85 O129 2.362 1_554 S
Gd85 O130 2.324 . S
Gd85 O134 2.545 . S
Gd85 O135 2.606 . S
Gd85 O137 2.429 . S
Gd85 O138 2.545 . S
Gd85 O139 2.412 . S
Gd85 C152 2.828 . S
C86 C89 1.417 1_556 S
C86 C91 1.431 . S
C86 C92 1.412 . S
C87 C90 1.437 . S
C87 C91 1.317 1_554 S
C87 H106 0.929 . S
C88 C89 1.426 . S
C88 C90 1.413 . S
C88 N98 1.359 . S
C89 C86 1.417 1_554 S
C89 C88 1.426 . S
C89 N94 1.350 . S
C90 C87 1.437 . S
C90 C88 1.413 . S
C90 C100 1.391 . S
C91 C86 1.431 . S
C91 C87 1.317 1_556 S
C91 H102 0.930 . S
C92 C86 1.412 . S
C92 C93 1.355 . S
C92 H104 0.930 . S
C93 C92 1.355 . S
C93 C95 1.402 . S
C93 H105 0.930 . S
N94 Gd85 2.661 . S
N94 C89 1.350 . S
N94 C95 1.307 1_554 S
C95 C93 1.402 . S
C95 N94 1.307 1_556 S
C95 H96 0.930 . S
H96 C95 0.930 . S
C97 N98 1.334 . S
C97 C99 1.394 . S
C97 H101 0.930 . S
N98 Gd85 2.601 . S
N98 C88 1.359 . S
N98 C97 1.334 . S
C99 C97 1.394 . S
C99 C100 1.359 . S
C99 H111 0.930 1_565 S
C100 C90 1.391 . S
C100 C99 1.359 . S
C100 H112 0.929 1_565 S
H101 C97 0.930 . S
H102 C91 0.930 . S
H103 C120 0.928 1_655 S
H104 C92 0.930 . S
H105 C93 0.930 . S
H106 C87 0.929 . S
H107 C125 0.930 . S
H108 C116 0.930 . S
H109 C117 0.930 . S
H110 C141 0.929 . S
H111 C99 0.930 1_545 S
H112 C100 0.929 1_545 S
H113 C142 0.930 . S
H114 C123 0.930 . S
N115 Gd84 2.661 . S
N115 C119 1.350 1_655 S
N115 C120 1.306 1_656 S
C116 H108 0.930 . S
C116 C117 1.355 . S
C116 C118 1.412 . S
C117 H109 0.930 . S
C117 C116 1.355 . S
C117 C120 1.405 . S
C118 C116 1.412 . S
C118 C119 1.417 1_554 S
C118 C142 1.431 . S
C119 N115 1.350 1_455 S
C119 C118 1.417 1_556 S
C119 C122 1.426 1_455 S
C120 H103 0.928 1_455 S
C120 N115 1.306 1_454 S
C120 C117 1.405 . S
N121 Gd84 2.601 . S
N121 C122 1.359 . S
N121 C125 1.334 . S
C122 C119 1.426 1_655 S
C122 N121 1.359 . S
C122 C126 1.413 1_655 S
C123 H114 0.930 . S
C123 C124 1.359 . S
C123 C125 1.394 . S
C124 C123 1.359 . S
C124 C126 1.391 1_655 S
C124 H127 0.929 1_655 S
C125 H107 0.930 . S
C125 N121 1.334 . S
C125 C123 1.394 . S
C126 C122 1.413 1_455 S
C126 C124 1.391 1_455 S
C126 C141 1.437 . S
H127 C124 0.929 1_455 S
O128 Gd84 2.545 . S
O128 C143 1.258 . S
O129 Gd84 2.606 . S
O129 Gd85 2.362 1_556 S
O129 C140 1.284 . S
O130 Gd85 2.324 . S
O130 C150 1.254 1_554 S
O131 Gd84 2.429 . S
O131 C150 1.268 . S
O132 Gd84 2.545 . S
O132 C140 1.250 . S
O133 Gd84 2.412 . S
O133 C143 1.252 . S
O134 Gd85 2.545 . S
O134 C152 1.258 . S
O135 Gd84 2.362 1_554 S
O135 Gd85 2.606 . S
O135 C151 1.284 . S
O136 Gd84 2.324 . S
O136 C159 1.254 1_556 S
O137 Gd85 2.429 . S
O137 C159 1.268 . S
O138 Gd85 2.545 . S
O138 C151 1.250 . S
O139 Gd85 2.412 . S
O139 C152 1.252 . S
C140 O129 1.284 . S
C140 O132 1.250 . S
C141 H110 0.929 . S
C141 C126 1.437 . S
C141 C142 1.317 1_556 S
C142 H113 0.930 . S
C142 C118 1.431 . S
C142 C141 1.317 1_554 S
C143 Gd84 2.828 . S
C143 O128 1.258 . S
C143 O133 1.252 . S
C143 C144 1.497 . S
C144 C143 1.497 . S
C144 C145 1.395 . S
C144 C146 1.380 . S
C145 C144 1.395 . S
C145 C148 1.398 . S
C145 H160 0.930 . S
C146 C144 1.380 . S
C146 C147 1.391 . S
C146 H161 0.930 . S
C147 C146 1.391 . S
C147 C149 1.387 1_655 S
C148 C145 1.398 . S
C148 C149 1.380 1_655 S
C148 H162 0.930 1_655 S
C149 C147 1.387 1_455 S
C149 C148 1.380 1_455 S
C149 H163 0.930 . S
C150 O130 1.254 1_556 S
C150 O131 1.268 . S
C151 O135 1.284 . S
C151 O138 1.250 . S
C152 Gd85 2.828 . S
C152 O134 1.258 . S
C152 O139 1.252 . S
C152 C153 1.497 . S
C153 C152 1.497 . S
C153 C154 1.395 . S
C153 C155 1.380 . S
C154 C153 1.395 . S
C154 C157 1.398 . S
C154 H164 0.930 . S
C155 C153 1.380 . S
C155 C156 1.391 . S
C155 H165 0.930 . S
C156 C155 1.391 . S
C156 C158 1.387 . S
C157 C154 1.398 . S
C157 C158 1.380 . S
C157 H166 0.930 . S
C158 C156 1.387 . S
C158 C157 1.380 . S
C158 H167 0.930 . S
C159 O136 1.254 1_554 S
C159 O137 1.268 . S
H160 C145 0.930 . S
H161 C146 0.930 . S
H162 C148 0.930 1_455 S
H163 C149 0.930 . S
H164 C154 0.930 . S
H165 C155 0.930 . S
H166 C157 0.930 . S
H167 C158 0.930 . S
Gd168 N199 2.661 . S
Gd168 N205 2.601 . S
Gd168 O212 2.545 . S
Gd168 O213 2.606 . S
Gd168 O215 2.429 . S
Gd168 O216 2.545 . S
Gd168 O217 2.412 . S
Gd168 O219 2.362 . S
Gd168 O220 2.324 . S
Gd168 C227 2.828 . S
Gd169 N178 2.661 . S
Gd169 N182 2.601 . S
Gd169 O213 2.362 . S
Gd169 O214 2.324 . S
Gd169 O218 2.545 . S
Gd169 O219 2.606 . S
Gd169 O221 2.429 . S
Gd169 O222 2.545 . S
Gd169 O223 2.412 . S
Gd169 C236 2.828 . S
C170 C173 1.417 . S
C170 C175 1.431 . S
C170 C176 1.412 . S
C171 C174 1.437 . S
C171 C175 1.317 . S
C171 H190 0.929 . S
C172 C173 1.426 1_455 S
C172 C174 1.413 1_455 S
C172 N182 1.359 . S
C173 C170 1.417 . S
C173 C172 1.426 1_655 S
C173 N178 1.350 1_655 S
C174 C171 1.437 . S
C174 C172 1.413 1_655 S
C174 C184 1.391 1_655 S
C175 C170 1.431 . S
C175 C171 1.317 . S
C175 H186 0.930 . S
C176 C170 1.412 . S
C176 C177 1.355 . S
C176 H188 0.930 . S
C177 C176 1.355 . S
C177 C179 1.405 . S
C177 H189 0.930 . S
N178 Gd169 2.661 . S
N178 C173 1.350 1_455 S
N178 C179 1.306 1_455 S
C179 C177 1.405 . S
C179 N178 1.306 1_655 S
C179 H180 0.928 1_655 S
H180 C179 0.928 1_455 S
C181 N182 1.334 . S
C181 C183 1.394 . S
C181 H185 0.930 . S
N182 Gd169 2.601 . S
N182 C172 1.359 . S
N182 C181 1.334 . S
C183 C181 1.394 . S
C183 C184 1.359 . S
C183 H195 0.930 . S
C184 C174 1.391 1_455 S
C184 C183 1.359 . S
C184 H196 0.929 1_455 S
H185 C181 0.930 . S
H186 C175 0.930 . S
H187 C204 0.930 . S
H188 C176 0.930 . S
H189 C177 0.930 . S
H190 C171 0.929 . S
H191 C209 0.930 . S
H192 C200 0.930 . S
H193 C201 0.930 . S
H194 C225 0.929 . S
H195 C183 0.930 . S
H196 C184 0.929 1_655 S
H197 C226 0.930 . S
H198 C207 0.930 1_545 S
N199 Gd168 2.661 . S
N199 C203 1.350 . S
N199 C204 1.307 . S
C200 H192 0.930 . S
C200 C201 1.355 . S
C200 C202 1.412 . S
C201 H193 0.930 . S
C201 C200 1.355 . S
C201 C204 1.402 . S
C202 C200 1.412 . S
C202 C203 1.417 . S
C202 C226 1.431 . S
C203 N199 1.350 . S
C203 C202 1.417 . S
C203 C206 1.426 . S
C204 H187 0.930 . S
C204 N199 1.307 . S
C204 C201 1.402 . S
N205 Gd168 2.601 . S
N205 C206 1.359 . S
N205 C209 1.334 . S
C206 C203 1.426 . S
C206 N205 1.359 . S
C206 C210 1.413 . S
C207 H198 0.930 1_565 S
C207 C208 1.359 . S
C207 C209 1.394 . S
C208 C207 1.359 . S
C208 C210 1.391 . S
C208 H211 0.929 1_565 S
C209 H191 0.930 . S
C209 N205 1.334 . S
C209 C207 1.394 . S
C210 C206 1.413 . S
C210 C208 1.391 . S
C210 C225 1.437 . S
H211 C208 0.929 1_545 S
O212 Gd168 2.545 . S
O212 C227 1.258 . S
O213 Gd168 2.606 . S
O213 Gd169 2.362 . S
O213 C224 1.284 . S
O214 Gd169 2.324 . S
O214 C234 1.254 . S
O215 Gd168 2.429 . S
O215 C234 1.268 . S
O216 Gd168 2.545 . S
O216 C224 1.250 . S
O217 Gd168 2.412 . S
O217 C227 1.252 . S
O218 Gd169 2.545 . S
O218 C236 1.258 . S
O219 Gd168 2.362 . S
O219 Gd169 2.606 . S
O219 C235 1.284 . S
O220 Gd168 2.324 . S
O220 C243 1.254 . S
O221 Gd169 2.429 . S
O221 C243 1.268 . S
O222 Gd169 2.545 . S
O222 C235 1.250 . S
O223 Gd169 2.412 . S
O223 C236 1.252 . S
C224 O213 1.284 . S
C224 O216 1.250 . S
C225 H194 0.929 . S
C225 C210 1.437 . S
C225 C226 1.317 . S
C226 H197 0.930 . S
C226 C202 1.431 . S
C226 C225 1.317 . S
C227 Gd168 2.828 . S
C227 O212 1.258 . S
C227 O217 1.252 . S
C227 C228 1.497 . S
C228 C227 1.497 . S
C228 C229 1.395 . S
C228 C230 1.380 . S
C229 C228 1.395 . S
C229 C232 1.398 . S
C229 H244 0.930 . S
C230 C228 1.380 . S
C230 C231 1.391 . S
C230 H245 0.930 . S
C231 C230 1.391 . S
C231 C233 1.387 . S
C232 C229 1.398 . S
C232 C233 1.380 . S
C232 H246 0.930 . S
C233 C231 1.387 . S
C233 C232 1.380 . S
C233 H247 0.930 . S
C234 O214 1.254 . S
C234 O215 1.268 . S
C235 O219 1.284 . S
C235 O222 1.250 . S
C236 Gd169 2.828 . S
C236 O218 1.258 . S
C236 O223 1.252 . S
C236 C237 1.497 . S
C237 C236 1.497 . S
C237 C238 1.395 . S
C237 C239 1.380 . S
C238 C237 1.395 . S
C238 C241 1.398 . S
C238 H248 0.930 . S
C239 C237 1.380 . S
C239 C240 1.391 . S
C239 H249 0.930 . S
C240 C239 1.391 . S
C240 C242 1.387 1_455 S
C241 C238 1.398 . S
C241 C242 1.380 1_455 S
C241 H250 0.930 1_455 S
C242 C240 1.387 1_655 S
C242 C241 1.380 1_655 S
C242 H251 0.930 . S
C243 O220 1.254 . S
C243 O221 1.268 . S
H244 C229 0.930 . S
H245 C230 0.930 . S
H246 C232 0.930 . S
H247 C233 0.930 . S
H248 C238 0.930 . S
H249 C239 0.930 . S
H250 C241 0.930 1_655 S
H251 C242 0.930 . S
Gd252 N283 2.661 . S
Gd252 N289 2.601 . S
Gd252 O296 2.545 . S
Gd252 O297 2.606 . S
Gd252 O299 2.429 . S
Gd252 O300 2.545 . S
Gd252 O301 2.412 . S
Gd252 O303 2.362 . S
Gd252 O304 2.324 . S
Gd252 C311 2.828 . S
Gd253 N262 2.661 . S
Gd253 N266 2.601 . S
Gd253 O297 2.362 . S
Gd253 O298 2.324 . S
Gd253 O302 2.545 . S
Gd253 O303 2.606 . S
Gd253 O305 2.429 . S
Gd253 O306 2.545 . S
Gd253 O307 2.412 . S
Gd253 C320 2.828 . S
C254 C257 1.417 . S
C254 C259 1.431 . S
C254 C260 1.412 . S
C255 C258 1.437 . S
C255 C259 1.317 . S
C255 H274 0.929 . S
C256 C257 1.426 . S
C256 C258 1.413 . S
C256 N266 1.359 . S
C257 C254 1.417 . S
C257 C256 1.426 . S
C257 N262 1.350 . S
C258 C255 1.437 . S
C258 C256 1.413 . S
C258 C268 1.391 . S
C259 C254 1.431 . S
C259 C255 1.317 . S
C259 H270 0.930 . S
C260 C254 1.412 . S
C260 C261 1.355 . S
C260 H272 0.930 . S
C261 C260 1.355 . S
C261 C263 1.402 . S
C261 H273 0.930 . S
N262 Gd253 2.661 . S
N262 C257 1.350 . S
N262 C263 1.307 . S
C263 C261 1.402 . S
C263 N262 1.307 . S
C263 H264 0.930 . S
H264 C263 0.930 . S
C265 N266 1.334 . S
C265 C267 1.394 . S
C265 H269 0.930 . S
N266 Gd253 2.601 . S
N266 C256 1.359 . S
N266 C265 1.334 . S
C267 C265 1.394 . S
C267 C268 1.359 . S
C267 H279 0.930 1_545 S
C268 C258 1.391 . S
C268 C267 1.359 . S
C268 H280 0.929 1_545 S
H269 C265 0.930 . S
H270 C259 0.930 . S
H271 C288 0.928 1_655 S
H272 C260 0.930 . S
H273 C261 0.930 . S
H274 C255 0.929 . S
H275 C293 0.930 . S
H276 C284 0.930 . S
H277 C285 0.930 . S
H278 C309 0.929 . S
H279 C267 0.930 1_565 S
H280 C268 0.929 1_565 S
H281 C310 0.930 . S
H282 C291 0.930 . S
N283 Gd252 2.661 . S
N283 C287 1.350 1_655 S
N283 C288 1.306 1_655 S
C284 H276 0.930 . S
C284 C285 1.355 . S
C284 C286 1.412 . S
C285 H277 0.930 . S
C285 C284 1.355 . S
C285 C288 1.405 . S
C286 C284 1.412 . S
C286 C287 1.417 . S
C286 C310 1.431 . S
C287 N283 1.350 1_455 S
C287 C286 1.417 . S
C287 C290 1.426 1_455 S
C288 H271 0.928 1_455 S
C288 N283 1.306 1_455 S
C288 C285 1.405 . S
N289 Gd252 2.601 . S
N289 C290 1.359 . S
N289 C293 1.334 . S
C290 C287 1.426 1_655 S
C290 N289 1.359 . S
C290 C294 1.413 1_655 S
C291 H282 0.930 . S
C291 C292 1.359 . S
C291 C293 1.394 . S
C292 C291 1.359 . S
C292 C294 1.391 1_655 S
C292 H295 0.929 1_655 S
C293 H275 0.930 . S
C293 N289 1.334 . S
C293 C291 1.394 . S
C294 C290 1.413 1_455 S
C294 C292 1.391 1_455 S
C294 C309 1.437 . S
H295 C292 0.929 1_455 S
O296 Gd252 2.545 . S
O296 C311 1.258 . S
O297 Gd252 2.606 . S
O297 Gd253 2.362 . S
O297 C308 1.284 . S
O298 Gd253 2.324 . S
O298 C318 1.254 . S
O299 Gd252 2.429 . S
O299 C318 1.268 . S
O300 Gd252 2.545 . S
O300 C308 1.250 . S
O301 Gd252 2.412 . S
O301 C311 1.252 . S
O302 Gd253 2.545 . S
O302 C320 1.258 . S
O303 Gd252 2.362 . S
O303 Gd253 2.606 . S
O303 C319 1.284 . S
O304 Gd252 2.324 . S
O304 C327 1.254 . S
O305 Gd253 2.429 . S
O305 C327 1.268 . S
O306 Gd253 2.545 . S
O306 C319 1.250 . S
O307 Gd253 2.412 . S
O307 C320 1.252 . S
C308 O297 1.284 . S
C308 O300 1.250 . S
C309 H278 0.929 . S
C309 C294 1.437 . S
C309 C310 1.317 . S
C310 H281 0.930 . S
C310 C286 1.431 . S
C310 C309 1.317 . S
C311 Gd252 2.828 . S
C311 O296 1.258 . S
C311 O301 1.252 . S
C311 C312 1.497 . S
C312 C311 1.497 . S
C312 C313 1.395 . S
C312 C314 1.380 . S
C313 C312 1.395 . S
C313 C316 1.398 . S
C313 H328 0.930 . S
C314 C312 1.380 . S
C314 C315 1.391 . S
C314 H329 0.930 . S
C315 C314 1.391 . S
C315 C317 1.387 1_655 S
C316 C313 1.398 . S
C316 C317 1.380 1_655 S
C316 H330 0.930 1_655 S
C317 C315 1.387 1_455 S
C317 C316 1.380 1_455 S
C317 H331 0.930 . S
C318 O298 1.254 . S
C318 O299 1.268 . S
C319 O303 1.284 . S
C319 O306 1.250 . S
C320 Gd253 2.828 . S
C320 O302 1.258 . S
C320 O307 1.252 . S
C320 C321 1.497 . S
C321 C320 1.497 . S
C321 C322 1.395 . S
C321 C323 1.380 . S
C322 C321 1.395 . S
C322 C325 1.398 . S
C322 H332 0.930 . S
C323 C321 1.380 . S
C323 C324 1.391 . S
C323 H333 0.930 . S
C324 C323 1.391 . S
C324 C326 1.387 . S
C325 C322 1.398 . S
C325 C326 1.380 . S
C325 H334 0.930 . S
C326 C324 1.387 . S
C326 C325 1.380 . S
C326 H335 0.930 . S
C327 O304 1.254 . S
C327 O305 1.268 . S
H328 C313 0.930 . S
H329 C314 0.930 . S
H330 C316 0.930 1_455 S
H331 C317 0.930 . S
H332 C322 0.930 . S
H333 C323 0.930 . S
H334 C325 0.930 . S
H335 C326 0.930 . S
H336 C337 0.951 . S
C337 H336 0.951 . S
C337 C343 1.265 1_556 S
H338 C343 0.950 . S
H339 C347 0.949 . S
H340 C348 0.950 . S
H341 C349 0.951 . S
H342 C350 0.951 . S
C343 C337 1.265 1_554 S
C343 H338 0.950 . S
C343 C344 1.478 . S
C344 C343 1.478 . S
C344 C345 1.397 1_554 S
C344 C361 1.394 . S
C345 C344 1.397 1_556 S
C345 C346 1.438 . S
C345 C350 1.429 . S
C346 C345 1.438 . S
C346 C347 1.428 . S
C346 C359 1.394 . S
C347 H339 0.949 . S
C347 C346 1.428 . S
C347 C348 1.345 . S
C348 H340 0.950 . S
C348 C347 1.345 . S
C348 C349 1.424 . S
C349 H341 0.951 . S
C349 C348 1.424 . S
C349 C350 1.347 . S
C350 H342 0.951 . S
C350 C345 1.429 . S
C350 C349 1.347 . S
H351 C352 0.951 . S
C352 H351 0.951 . S
C352 C358 1.265 1_554 S
H353 C358 0.950 . S
H354 C362 0.949 . S
H355 C363 0.950 . S
H356 C364 0.951 . S
H357 C365 0.951 . S
C358 C352 1.265 1_556 S
C358 H353 0.950 . S
C358 C359 1.478 . S
C359 C346 1.394 . S
C359 C358 1.478 . S
C359 C360 1.397 1_556 S
C360 C359 1.397 1_554 S
C360 C361 1.438 . S
C360 C365 1.429 . S
C361 C344 1.394 . S
C361 C360 1.438 . S
C361 C362 1.428 . S
C362 H354 0.949 . S
C362 C361 1.428 . S
C362 C363 1.345 . S
C363 H355 0.950 . S
C363 C362 1.345 . S
C363 C364 1.424 . S
C364 H356 0.951 . S
C364 C363 1.424 . S
C364 C365 1.347 . S
C365 H357 0.951 . S
C365 C360 1.429 . S
C365 C364 1.347 . S
H366 C367 0.951 . S
C367 H366 0.951 . S
C367 C373 1.265 . S
H368 C373 0.950 . S
H369 C377 0.949 . S
H370 C378 0.950 . S
H371 C379 0.951 . S
H372 C380 0.951 . S
C373 C367 1.265 . S
C373 H368 0.950 . S
C373 C374 1.478 . S
C374 C373 1.478 . S
C374 C375 1.397 . S
C374 C391 1.394 . S
C375 C374 1.397 . S
C375 C376 1.438 . S
C375 C380 1.429 . S
C376 C375 1.438 . S
C376 C377 1.428 . S
C376 C389 1.394 . S
C377 H369 0.949 . S
C377 C376 1.428 . S
C377 C378 1.345 . S
C378 H370 0.950 . S
C378 C377 1.345 . S
C378 C379 1.424 . S
C379 H371 0.951 . S
C379 C378 1.424 . S
C379 C380 1.347 . S
C380 H372 0.951 . S
C380 C375 1.429 . S
C380 C379 1.347 . S
H381 C382 0.951 . S
C382 H381 0.951 . S
C382 C388 1.265 . S
H383 C388 0.950 . S
H384 C392 0.949 . S
H385 C393 0.950 . S
H386 C394 0.951 . S
H387 C395 0.951 . S
C388 C382 1.265 . S
C388 H383 0.950 . S
C388 C389 1.478 . S
C389 C376 1.394 . S
C389 C388 1.478 . S
C389 C390 1.397 . S
C390 C389 1.397 . S
C390 C391 1.438 . S
C390 C395 1.429 . S
C391 C374 1.394 . S
C391 C390 1.438 . S
C391 C392 1.428 . S
C392 H384 0.949 . S
C392 C391 1.428 . S
C392 C393 1.345 . S
C393 H385 0.950 . S
C393 C392 1.345 . S
C393 C394 1.424 . S
C394 H386 0.951 . S
C394 C393 1.424 . S
C394 C395 1.347 . S
C395 H387 0.951 . S
C395 C390 1.429 . S
C395 C394 1.347 . S
H396 C397 0.953 . S
C397 H396 0.953 . S
C397 C403 1.267 1_554 S
H398 C403 0.950 . S
H399 C407 0.949 1_655 S
H400 C408 0.950 . S
H401 C409 0.951 . S
H402 C410 0.951 . S
C403 C397 1.267 1_556 S
C403 H398 0.950 . S
C403 C404 1.478 . S
C404 C403 1.478 . S
C404 C405 1.397 1_556 S
C404 C421 1.394 1_455 S
C405 C404 1.397 1_554 S
C405 C406 1.438 1_545 S
C405 C410 1.429 . S
C406 C405 1.438 1_565 S
C406 C407 1.428 . S
C406 C419 1.394 1_455 S
C407 H399 0.949 1_455 S
C407 C406 1.428 . S
C407 C408 1.345 . S
C408 H400 0.950 . S
C408 C407 1.345 . S
C408 C409 1.424 . S
C409 H401 0.951 . S
C409 C408 1.424 . S
C409 C410 1.347 1_565 S
C410 H402 0.951 . S
C410 C405 1.429 . S
C410 C409 1.347 1_545 S
H411 C412 0.951 . S
C412 H411 0.951 . S
C412 C418 1.266 1_556 S
H413 C418 0.950 . S
H414 C422 0.949 1_455 S
H415 C423 0.950 . S
H416 C424 0.951 . S
H417 C425 0.951 . S
C418 C412 1.266 1_554 S
C418 H413 0.950 . S
C418 C419 1.478 . S
C419 C406 1.394 1_655 S
C419 C418 1.478 . S
C419 C420 1.397 1_554 S
C420 C419 1.397 1_556 S
C420 C421 1.438 1_565 S
C420 C425 1.429 . S
C421 C404 1.394 1_655 S
C421 C420 1.438 1_545 S
C421 C422 1.428 . S
C422 H414 0.949 1_655 S
C422 C421 1.428 . S
C422 C423 1.345 . S
C423 H415 0.950 . S
C423 C422 1.345 . S
C423 C424 1.424 . S
C424 H416 0.951 . S
C424 C423 1.424 . S
C424 C425 1.347 1_545 S
C425 H417 0.951 . S
C425 C420 1.429 . S
C425 C424 1.347 1_565 S
H426 C427 0.951 . S
C427 H426 0.951 . S
C427 C433 1.265 . S
H428 C433 0.950 . S
H429 C437 0.949 1_455 S
H430 C438 0.950 . S
H431 C439 0.951 . S
H432 C440 0.951 . S
C433 C427 1.265 . S
C433 H428 0.950 . S
C433 C434 1.478 . S
C434 C433 1.478 . S
C434 C435 1.397 1_545 S
C434 C451 1.394 . S
C435 C434 1.397 1_565 S
C435 C436 1.438 1_655 S
C435 C440 1.429 . S
C436 C435 1.438 1_455 S
C436 C437 1.428 1_455 S
C436 C449 1.394 . S
C437 H429 0.949 1_655 S
C437 C436 1.428 1_655 S
C437 C438 1.345 . S
C438 H430 0.950 . S
C438 C437 1.345 . S
C438 C439 1.424 . S
C439 H431 0.951 . S
C439 C438 1.424 . S
C439 C440 1.347 . S
C440 H432 0.951 . S
C440 C435 1.429 . S
C440 C439 1.347 . S
H441 C442 0.951 . S
C442 H441 0.951 . S
C442 C448 1.265 . S
H443 C448 0.950 . S
H444 C452 0.949 1_655 S
H445 C453 0.950 . S
H446 C454 0.951 . S
H447 C455 0.951 . S
C448 C442 1.265 . S
C448 H443 0.950 . S
C448 C449 1.478 . S
C449 C436 1.394 . S
C449 C448 1.478 . S
C449 C450 1.397 1_565 S
C450 C449 1.397 1_545 S
C450 C451 1.438 1_455 S
C450 C455 1.429 . S
C451 C434 1.394 . S
C451 C450 1.438 1_655 S
C451 C452 1.428 1_655 S
C452 H444 0.949 1_455 S
C452 C451 1.428 1_455 S
C452 C453 1.345 . S
C453 H445 0.950 . S
C453 C452 1.345 . S
C453 C454 1.424 . S
C454 H446 0.951 . S
C454 C453 1.424 . S
C454 C455 1.347 . S
C455 H447 0.951 . S
C455 C450 1.429 . S
C455 C454 1.347 . S
H456 C457 0.951 . S
C457 H456 0.951 . S
C457 C463 1.265 . S
H458 C463 0.950 . S
H459 C467 0.949 . S
H460 C468 0.950 . S
H461 C469 0.951 . S
H462 C470 0.951 . S
C463 C457 1.265 . S
C463 H458 0.950 . S
C463 C464 1.478 . S
C464 C463 1.478 . S
C464 C465 1.397 . S
C464 C481 1.394 . S
C465 C464 1.397 . S
C465 C466 1.438 . S
C465 C470 1.429 . S
C466 C465 1.438 . S
C466 C467 1.428 . S
C466 C479 1.394 . S
C467 H459 0.949 . S
C467 C466 1.428 . S
C467 C468 1.345 . S
C468 H460 0.950 . S
C468 C467 1.345 . S
C468 C469 1.424 . S
C469 H461 0.951 . S
C469 C468 1.424 . S
C469 C470 1.347 . S
C470 H462 0.951 . S
C470 C465 1.429 . S
C470 C469 1.347 . S
H471 C472 0.951 . S
C472 H471 0.951 . S
C472 C478 1.265 . S
H473 C478 0.950 . S
H474 C482 0.949 . S
H475 C483 0.950 . S
H476 C484 0.951 . S
H477 C485 0.951 . S
C478 C472 1.265 . S
C478 H473 0.950 . S
C478 C479 1.478 . S
C479 C466 1.394 . S
C479 C478 1.478 . S
C479 C480 1.397 . S
C480 C479 1.397 . S
C480 C481 1.438 . S
C480 C485 1.429 . S
C481 C464 1.394 . S
C481 C480 1.438 . S
C481 C482 1.428 . S
C482 H474 0.949 . S
C482 C481 1.428 . S
C482 C483 1.345 . S
C483 H475 0.950 . S
C483 C482 1.345 . S
C483 C484 1.424 . S
C484 H476 0.951 . S
C484 C483 1.424 . S
C484 C485 1.347 . S
C485 H477 0.951 . S
C485 C480 1.429 . S
C485 C484 1.347 . S
H486 C487 0.951 . S
C487 H486 0.951 . S
C487 C493 1.265 . S
H488 C493 0.950 . S
H489 C497 0.949 . S
H490 C498 0.950 . S
H491 C499 0.951 . S
H492 C500 0.951 . S
C493 C487 1.265 . S
C493 H488 0.950 . S
C493 C494 1.478 . S
C494 C493 1.478 . S
C494 C495 1.397 . S
C494 C511 1.394 . S
C495 C494 1.397 . S
C495 C496 1.438 . S
C495 C500 1.429 . S
C496 C495 1.438 . S
C496 C497 1.428 . S
C496 C509 1.394 . S
C497 H489 0.949 . S
C497 C496 1.428 . S
C497 C498 1.345 . S
C498 H490 0.950 . S
C498 C497 1.345 . S
C498 C499 1.424 . S
C499 H491 0.951 . S
C499 C498 1.424 . S
C499 C500 1.347 . S
C500 H492 0.951 . S
C500 C495 1.429 . S
C500 C499 1.347 . S
H501 C502 0.951 . S
C502 H501 0.951 . S
C502 C508 1.265 . S
H503 C508 0.950 . S
H504 C512 0.949 . S
H505 C513 0.950 . S
H506 C514 0.951 . S
H507 C515 0.951 . S
C508 C502 1.265 . S
C508 H503 0.950 . S
C508 C509 1.478 . S
C509 C496 1.394 . S
C509 C508 1.478 . S
C509 C510 1.397 . S
C510 C509 1.397 . S
C510 C511 1.438 . S
C510 C515 1.429 . S
C511 C494 1.394 . S
C511 C510 1.438 . S
C511 C512 1.428 . S
C512 H504 0.949 . S
C512 C511 1.428 . S
C512 C513 1.345 . S
C513 H505 0.950 . S
C513 C512 1.345 . S
C513 C514 1.424 . S
C514 H506 0.951 . S
C514 C513 1.424 . S
C514 C515 1.347 . S
C515 H507 0.951 . S
C515 C510 1.429 . S
C515 C514 1.347 . S
H516 C517 0.951 . S
C517 H516 0.951 . S
C517 C523 1.265 . S
H518 C523 0.950 . S
H519 C527 0.949 . S
H520 C528 0.950 . S
H521 C529 0.951 . S
H522 C530 0.951 . S
C523 C517 1.265 . S
C523 H518 0.950 . S
C523 C524 1.478 . S
C524 C523 1.478 . S
C524 C525 1.397 . S
C524 C541 1.394 . S
C525 C524 1.397 . S
C525 C526 1.438 . S
C525 C530 1.429 . S
C526 C525 1.438 . S
C526 C527 1.428 . S
C526 C539 1.394 . S
C527 H519 0.949 . S
C527 C526 1.428 . S
C527 C528 1.345 . S
C528 H520 0.950 . S
C528 C527 1.345 . S
C528 C529 1.424 . S
C529 H521 0.951 . S
C529 C528 1.424 . S
C529 C530 1.347 . S
C530 H522 0.951 . S
C530 C525 1.429 . S
C530 C529 1.347 . S
H531 C532 0.951 . S
C532 H531 0.951 . S
C532 C538 1.265 . S
H533 C538 0.950 . S
H534 C542 0.949 . S
H535 C543 0.950 . S
H536 C544 0.951 . S
H537 C545 0.951 . S
C538 C532 1.265 . S
C538 H533 0.950 . S
C538 C539 1.478 . S
C539 C526 1.394 . S
C539 C538 1.478 . S
C539 C540 1.397 . S
C540 C539 1.397 . S
C540 C541 1.438 . S
C540 C545 1.429 . S
C541 C524 1.394 . S
C541 C540 1.438 . S
C541 C542 1.428 . S
C542 H534 0.949 . S
C542 C541 1.428 . S
C542 C543 1.345 . S
C543 H535 0.950 . S
C543 C542 1.345 . S
C543 C544 1.424 . S
C544 H536 0.951 . S
C544 C543 1.424 . S
C544 C545 1.347 . S
C545 H537 0.951 . S
C545 C540 1.429 . S
C545 C544 1.347 . S
H546 C547 0.951 . S
C547 H546 0.951 . S
C547 C553 1.265 . S
H548 C553 0.950 . S
H549 C557 0.949 . S
H550 C558 0.950 . S
H551 C559 0.951 . S
H552 C560 0.951 . S
C553 C547 1.265 . S
C553 H548 0.950 . S
C553 C554 1.478 . S
C554 C553 1.478 . S
C554 C555 1.397 . S
C554 C571 1.394 . S
C555 C554 1.397 . S
C555 C556 1.438 . S
C555 C560 1.429 . S
C556 C555 1.438 . S
C556 C557 1.428 . S
C556 C569 1.394 . S
C557 H549 0.949 . S
C557 C556 1.428 . S
C557 C558 1.345 . S
C558 H550 0.950 . S
C558 C557 1.345 . S
C558 C559 1.424 . S
C559 H551 0.951 . S
C559 C558 1.424 . S
C559 C560 1.347 . S
C560 H552 0.951 . S
C560 C555 1.429 . S
C560 C559 1.347 . S
H561 C562 0.951 . S
C562 H561 0.951 . S
C562 C568 1.265 . S
H563 C568 0.950 . S
H564 C572 0.949 . S
H565 C573 0.950 . S
H566 C574 0.951 . S
H567 C575 0.951 . S
C568 C562 1.265 . S
C568 H563 0.950 . S
C568 C569 1.478 . S
C569 C556 1.394 . S
C569 C568 1.478 . S
C569 C570 1.397 . S
C570 C569 1.397 . S
C570 C571 1.438 . S
C570 C575 1.429 . S
C571 C554 1.394 . S
C571 C570 1.438 . S
C571 C572 1.428 . S
C572 H564 0.949 . S
C572 C571 1.428 . S
C572 C573 1.345 . S
C573 H565 0.950 . S
C573 C572 1.345 . S
C573 C574 1.424 . S
C574 H566 0.951 . S
C574 C573 1.424 . S
C574 C575 1.347 . S
C575 H567 0.951 . S
C575 C570 1.429 . S
C575 C574 1.347 . S
H576 C577 0.951 . S
C577 H576 0.951 . S
C577 C583 1.265 . S
H578 C583 0.950 . S
H579 C587 0.949 . S
H580 C588 0.950 . S
H581 C589 0.951 . S
H582 C590 0.951 . S
C583 C577 1.265 . S
C583 H578 0.950 . S
C583 C584 1.478 . S
C584 C583 1.478 . S
C584 C585 1.397 . S
C584 C601 1.394 . S
C585 C584 1.397 . S
C585 C586 1.438 . S
C585 C590 1.429 1_655 S
C586 C585 1.438 . S
C586 C587 1.428 1_655 S
C586 C599 1.394 . S
C587 H579 0.949 . S
C587 C586 1.428 1_455 S
C587 C588 1.345 . S
C588 H580 0.950 . S
C588 C587 1.345 . S
C588 C589 1.424 . S
C589 H581 0.951 . S
C589 C588 1.424 . S
C589 C590 1.347 . S
C590 H582 0.951 . S
C590 C585 1.429 1_455 S
C590 C589 1.347 . S
H591 C592 0.951 1_455 S
C592 H591 0.951 1_655 S
C592 C598 1.265 . S
H593 C598 0.950 . S
H594 C602 0.949 . S
H595 C603 0.950 . S
H596 C604 0.951 . S
H597 C605 0.951 . S
C598 C592 1.265 . S
C598 H593 0.950 . S
C598 C599 1.478 . S
C599 C586 1.394 . S
C599 C598 1.478 . S
C599 C600 1.397 . S
C600 C599 1.397 . S
C600 C601 1.438 . S
C600 C605 1.429 . S
C601 C584 1.394 . S
C601 C600 1.438 . S
C601 C602 1.428 . S
C602 H594 0.949 . S
C602 C601 1.428 . S
C602 C603 1.345 . S
C603 H595 0.950 . S
C603 C602 1.345 . S
C603 C604 1.424 . S
C604 H596 0.951 . S
C604 C603 1.424 . S
C604 C605 1.347 . S
C605 H597 0.951 . S
C605 C600 1.429 . S
C605 C604 1.347 . S
H606 C607 0.951 . S
C607 H606 0.951 . S
C607 C613 1.265 . S
H608 C613 0.950 . S
H609 C617 0.949 . S
H610 C618 0.950 . S
H611 C619 0.951 . S
H612 C620 0.951 . S
C613 C607 1.265 . S
C613 H608 0.950 . S
C613 C614 1.478 . S
C614 C613 1.478 . S
C614 C615 1.397 . S
C614 C631 1.394 . S
C615 C614 1.397 . S
C615 C616 1.438 . S
C615 C620 1.429 1_655 S
C616 C615 1.438 . S
C616 C617 1.428 1_655 S
C616 C629 1.394 . S
C617 H609 0.949 . S
C617 C616 1.428 1_455 S
C617 C618 1.345 . S
C618 H610 0.950 . S
C618 C617 1.345 . S
C618 C619 1.424 . S
C619 H611 0.951 . S
C619 C618 1.424 . S
C619 C620 1.347 . S
C620 H612 0.951 . S
C620 C615 1.429 1_455 S
C620 C619 1.347 . S
H621 C622 0.951 1_455 S
C622 H621 0.951 1_655 S
C622 C628 1.265 . S
H623 C628 0.950 . S
H624 C632 0.949 . S
H625 C633 0.950 . S
H626 C634 0.951 . S
H627 C635 0.951 . S
C628 C622 1.265 . S
C628 H623 0.950 . S
C628 C629 1.478 . S
C629 C616 1.394 . S
C629 C628 1.478 . S
C629 C630 1.397 . S
C630 C629 1.397 . S
C630 C631 1.438 . S
C630 C635 1.429 . S
C631 C614 1.394 . S
C631 C630 1.438 . S
C631 C632 1.428 . S
C632 H624 0.949 . S
C632 C631 1.428 . S
C632 C633 1.345 . S
C633 H625 0.950 . S
C633 C632 1.345 . S
C633 C634 1.424 . S
C634 H626 0.951 . S
C634 C633 1.424 . S
C634 C635 1.347 . S
C635 H627 0.951 . S
C635 C630 1.429 . S
C635 C634 1.347 . S
H636 C637 0.951 . S
C637 H636 0.951 . S
C637 C643 1.265 1_455 S
H638 C643 0.950 . S
H639 C647 0.949 . S
H640 C648 0.950 . S
H641 C649 0.951 1_655 S
H642 C650 0.951 1_655 S
C643 C637 1.265 1_655 S
C643 H638 0.950 . S
C643 C644 1.478 1_655 S
C644 C643 1.478 1_455 S
C644 C645 1.397 . S
C644 C661 1.394 . S
C645 C644 1.397 . S
C645 C646 1.438 . S
C645 C650 1.429 . S
C646 C645 1.438 . S
C646 C647 1.428 . S
C646 C659 1.394 . S
C647 H639 0.949 . S
C647 C646 1.428 . S
C647 C648 1.345 . S
C648 H640 0.950 . S
C648 C647 1.345 . S
C648 C649 1.424 . S
C649 H641 0.951 1_455 S
C649 C648 1.424 . S
C649 C650 1.347 . S
C650 H642 0.951 1_455 S
C650 C645 1.429 . S
C650 C649 1.347 . S
H651 C652 0.951 . S
C652 H651 0.951 . S
C652 C658 1.265 . S
H653 C658 0.950 . S
H654 C662 0.949 . S
H655 C663 0.950 . S
H656 C664 0.951 . S
H657 C665 0.951 . S
C658 C652 1.265 . S
C658 H653 0.950 . S
C658 C659 1.478 . S
C659 C646 1.394 . S
C659 C658 1.478 . S
C659 C660 1.397 . S
C660 C659 1.397 . S
C660 C661 1.438 . S
C660 C665 1.429 . S
C661 C644 1.394 . S
C661 C660 1.438 . S
C661 C662 1.428 . S
C662 H654 0.949 . S
C662 C661 1.428 . S
C662 C663 1.345 . S
C663 H655 0.950 . S
C663 C662 1.345 . S
C663 C664 1.424 . S
C664 H656 0.951 . S
C664 C663 1.424 . S
C664 C665 1.347 . S
C665 H657 0.951 . S
C665 C660 1.429 . S
C665 C664 1.347 . S
H666 C667 0.951 . S
C667 H666 0.951 . S
C667 C673 1.265 . S
H668 C673 0.950 . S
H669 C677 0.949 . S
H670 C678 0.950 . S
H671 C679 0.951 . S
H672 C680 0.951 . S
C673 C667 1.265 . S
C673 H668 0.950 . S
C673 C674 1.478 . S
C674 C673 1.478 . S
C674 C675 1.397 . S
C674 C691 1.394 . S
C675 C674 1.397 . S
C675 C676 1.438 . S
C675 C680 1.429 . S
C676 C675 1.438 . S
C676 C677 1.428 . S
C676 C689 1.394 . S
C677 H669 0.949 . S
C677 C676 1.428 . S
C677 C678 1.345 . S
C678 H670 0.950 . S
C678 C677 1.345 . S
C678 C679 1.424 . S
C679 H671 0.951 . S
C679 C678 1.424 . S
C679 C680 1.347 . S
C680 H672 0.951 . S
C680 C675 1.429 . S
C680 C679 1.347 . S
H681 C682 0.951 . S
C682 H681 0.951 . S
C682 C688 1.265 1_455 S
H683 C688 0.950 . S
H684 C692 0.949 . S
H685 C693 0.950 . S
H686 C694 0.951 1_655 S
H687 C695 0.951 1_655 S
C688 C682 1.265 1_655 S
C688 H683 0.950 . S
C688 C689 1.478 1_655 S
C689 C676 1.394 . S
C689 C688 1.478 1_455 S
C689 C690 1.397 . S
C690 C689 1.397 . S
C690 C691 1.438 . S
C690 C695 1.429 . S
C691 C674 1.394 . S
C691 C690 1.438 . S
C691 C692 1.428 . S
C692 H684 0.949 . S
C692 C691 1.428 . S
C692 C693 1.345 . S
C693 H685 0.950 . S
C693 C692 1.345 . S
C693 C694 1.424 . S
C694 H686 0.951 1_455 S
C694 C693 1.424 . S
C694 C695 1.347 . S
C695 H687 0.951 1_455 S
C695 C690 1.429 . S
C695 C694 1.347 . S
C337 C150 1.518 . S
C352 C75 1.518 . S
C367 C243 1.467 . S
C382 C318 1.467 . S
C397 C66 1.467 1_554 S
C412 C159 1.471 1_556 S
C427 C327 1.451 . S
C442 C234 1.451 . S
C457 C324 1.171 . S
C472 C67 1.107 . S
C487 C156 1.225 . S
C502 C235 1.145 . S
C517 C140 1.121 . S
C532 C231 1.198 . S
C547 C308 1.106 . S
C562 C63 1.152 . S
C577 C151 1.106 . S
C592 C240 1.153 1_655 S
C607 C319 1.115 . S
C622 C72 1.128 1_655 S
C637 C315 1.173 1_455 S
C652 C56 1.230 . S
C667 C224 1.242 . S
C682 C147 1.195 1_455 S
