# Generated by pormake.
# Topology acs-a, (4)-cn, num edge types: 1
# Building blocks:
#     Node 0, Type 0, BuildingBlock: ICAMEG_clean_sbu_1, # of connection points: 4
#     Node 1, Type 0, BuildingBlock: ICAMEG_clean_sbu_1, # of connection points: 4
#     Node 2, Type 0, BuildingBlock: ICAMEG_clean_sbu_1, # of connection points: 4
#     Node 3, Type 0, BuildingBlock: ICAMEG_clean_sbu_1, # of connection points: 4
#     Node 4, Type 0, BuildingBlock: ICAMEG_clean_sbu_1, # of connection points: 4
#     Node 5, Type 0, BuildingBlock: ICAMEG_clean_sbu_1, # of connection points: 4
#     Node 6, Type 0, BuildingBlock: ICAMEG_clean_sbu_1, # of connection points: 4
#     Node 7, Type 0, BuildingBlock: ICAMEG_clean_sbu_1, # of connection points: 4
#     Node 8, Type 0, BuildingBlock: ICAMEG_clean_sbu_1, # of connection points: 4
#     Node 9, Type 0, BuildingBlock: ICAMEG_clean_sbu_1, # of connection points: 4
#     Node 10, Type 0, BuildingBlock: ICAMEG_clean_sbu_1, # of connection points: 4
#     Node 11, Type 0, BuildingBlock: ICAMEG_clean_sbu_1, # of connection points: 4
#     Edge 12, Type (0, 0), BuildingBlock: CIFDUS_clean_linker_0, # of connection points: 2
#     Edge 13, Type (0, 0), BuildingBlock: CIFDUS_clean_linker_0, # of connection points: 2
#     Edge 14, Type (0, 0), BuildingBlock: CIFDUS_clean_linker_0, # of connection points: 2
#     Edge 15, Type (0, 0), BuildingBlock: CIFDUS_clean_linker_0, # of connection points: 2
#     Edge 16, Type (0, 0), BuildingBlock: CIFDUS_clean_linker_0, # of connection points: 2
#     Edge 17, Type (0, 0), BuildingBlock: CIFDUS_clean_linker_0, # of connection points: 2
#     Edge 18, Type (0, 0), BuildingBlock: CIFDUS_clean_linker_0, # of connection points: 2
#     Edge 19, Type (0, 0), BuildingBlock: CIFDUS_clean_linker_0, # of connection points: 2
#     Edge 20, Type (0, 0), BuildingBlock: CIFDUS_clean_linker_0, # of connection points: 2
#     Edge 21, Type (0, 0), BuildingBlock: CIFDUS_clean_linker_0, # of connection points: 2
#     Edge 22, Type (0, 0), BuildingBlock: CIFDUS_clean_linker_0, # of connection points: 2
#     Edge 23, Type (0, 0), BuildingBlock: CIFDUS_clean_linker_0, # of connection points: 2
#     Edge 24, Type (0, 0), BuildingBlock: CIFDUS_clean_linker_0, # of connection points: 2
#     Edge 25, Type (0, 0), BuildingBlock: CIFDUS_clean_linker_0, # of connection points: 2
#     Edge 26, Type (0, 0), BuildingBlock: CIFDUS_clean_linker_0, # of connection points: 2
#     Edge 27, Type (0, 0), BuildingBlock: CIFDUS_clean_linker_0, # of connection points: 2
#     Edge 28, Type (0, 0), BuildingBlock: CIFDUS_clean_linker_0, # of connection points: 2
#     Edge 29, Type (0, 0), BuildingBlock: CIFDUS_clean_linker_0, # of connection points: 2
#     Edge 30, Type (0, 0), BuildingBlock: CIFDUS_clean_linker_0, # of connection points: 2
#     Edge 31, Type (0, 0), BuildingBlock: CIFDUS_clean_linker_0, # of connection points: 2
#     Edge 32, Type (0, 0), BuildingBlock: CIFDUS_clean_linker_0, # of connection points: 2
#     Edge 33, Type (0, 0), BuildingBlock: CIFDUS_clean_linker_0, # of connection points: 2
#     Edge 34, Type (0, 0), BuildingBlock: CIFDUS_clean_linker_0, # of connection points: 2
#     Edge 35, Type (0, 0), BuildingBlock: CIFDUS_clean_linker_0, # of connection points: 2
# Relax obj value: 0.493
# Max RMSD: 0.321
# Mean RMSD: 0.248
data_MOF--net-acs-a--node1-ICAMEG_clean_sbu_1--edge1-CIFDUS_clean_linker_0
_symmetry_space_group_name_H-M    P1
_symmetry_Int_Tables_number       1
_symmetry_cell_setting            triclinic
loop_
_symmetry_equiv_pos_as_xyz
'x, y, z'
_cell_length_a     47.967545
_cell_length_b     39.458621
_cell_length_c     39.085583
_cell_angle_alpha  90.059351
_cell_angle_beta   89.944768
_cell_angle_gamma 114.42082
loop_
_atom_site_label
_atom_site_type_symbol
_atom_site_fract_x
_atom_site_fract_y
_atom_site_fract_z
_atom_type_partial_charge
Co0 Co 0.61879 0.1668 0.11908 0.0
Co1 Co 0.58428 0.14246 0.04184 0.0
O2 O 0.58695 0.13165 0.09022 0.0
C3 C 0.60264 0.09158 0.15169 0.0
O4 O 0.57991 0.07454 0.1305 0.0
C5 C 0.51593 0.11528 0.03386 0.0
O6 O 0.51978 0.14611 0.01776 0.0
O7 O 0.57861 0.18795 0.05552 0.0
O8 O 0.61698 0.20993 0.0936 0.0
H9 H 0.60459 0.22494 0.93854 0.0
H10 H 0.55507 0.11455 0.14198 0.0
O11 O 0.62134 0.1253 0.14675 0.0
H12 H 0.57632 0.23298 0.20055 0.0
H13 H 0.67992 0.21416 0.22745 0.0
H14 H 0.67388 0.23557 0.10398 0.0
H15 H 0.61415 0.22752 0.16138 0.0
H16 H 0.6359 0.1721 0.1935 0.0
O17 O 0.53901 0.11077 0.04552 0.0
H18 H 0.60915 0.21043 0.99907 0.0
H19 H 0.5507 0.09674 0.98175 0.0
H20 H 0.71838 0.27773 0.13679 0.0
H21 H 0.51712 0.11863 0.18149 0.0
H22 H 0.72159 0.26756 0.19912 0.0
H23 H 0.52743 0.17815 0.21136 0.0
O24 O 0.64977 0.16408 0.08671 0.0
H25 H 0.56549 0.00754 0.05034 0.0
H26 H 0.62477 0.12662 0.99208 0.0
H27 H 0.63348 0.07116 0.9768 0.0
H28 H 0.60362 0.01101 0.0059 0.0
H29 H 0.55774 0.06375 0.06513 0.0
H30 H 0.54552 0.11001 0.92101 0.0
H31 H 0.57258 0.17452 0.89905 0.0
O32 O 0.62992 0.17357 0.03788 0.0
C33 C 0.59708 0.21412 0.07439 0.0
C34 C 0.59268 0.19672 0.9478 0.0
C35 C 0.55953 0.13222 0.93796 0.0
N36 N 0.58021 0.1528 0.99396 0.0
C37 C 0.59516 0.18834 0.98206 0.0
C38 C 0.56256 0.12488 0.97237 0.0
C39 C 0.57472 0.16842 0.92566 0.0
C40 C 0.56066 0.14022 0.15546 0.0
N41 N 0.58808 0.17002 0.15049 0.0
C42 C 0.53862 0.14252 0.17759 0.0
C43 C 0.54434 0.17593 0.19423 0.0
C44 C 0.57176 0.20664 0.18822 0.0
C45 C 0.59327 0.20324 0.166 0.0
C46 C 0.67874 0.21907 0.20036 0.0
C47 C 0.67494 0.23085 0.13107 0.0
C48 C 0.65389 0.19527 0.18095 0.0
N49 N 0.65214 0.20144 0.14673 0.0
C50 C 0.70025 0.25493 0.14957 0.0
C51 C 0.70209 0.24904 0.18448 0.0
C52 C 0.65268 0.17464 0.0556 0.0
C53 C 0.57862 0.03357 0.03745 0.0
C54 C 0.61185 0.10065 0.0051 0.0
C55 C 0.6168 0.06929 0.99622 0.0
C56 C 0.60003 0.03555 0.01253 0.0
N57 N 0.59072 0.09849 0.02949 0.0
C58 C 0.57428 0.06552 0.04567 0.0
Co59 Co 0.35449 0.49276 0.61366 0.0
Co60 Co 0.3807 0.51508 0.53118 0.0
O61 O 0.37583 0.48576 0.57331 0.0
C62 C 0.40923 0.50033 0.65541 0.0
O63 O 0.42646 0.53111 0.63931 0.0
C64 C 0.3753 0.43933 0.50849 0.0
O65 O 0.36611 0.42514 0.53893 0.0
O66 O 0.33525 0.50093 0.52887 0.0
O67 O 0.32579 0.50423 0.58458 0.0
H68 H 0.36272 0.60745 0.45604 0.0
H69 H 0.36368 0.42305 0.60916 0.0
O70 O 0.38217 0.48074 0.64499 0.0
H71 H 0.25179 0.38291 0.61323 0.0
H72 H 0.30896 0.46317 0.73203 0.0
H73 H 0.33092 0.54869 0.63383 0.0
H74 H 0.28657 0.4495 0.61558 0.0
H75 H 0.33268 0.45212 0.67971 0.0
O76 O 0.37709 0.47167 0.50125 0.0
H77 H 0.3576 0.57044 0.50827 0.0
H78 H 0.41385 0.52208 0.46476 0.0
H79 H 0.30658 0.56038 0.68538 0.0
H80 H 0.32975 0.35608 0.60723 0.0
H81 H 0.29568 0.51764 0.7351 0.0
H82 H 0.27335 0.33563 0.60913 0.0
O83 O 0.38198 0.54703 0.61458 0.0
H84 H 0.47688 0.49568 0.5528 0.0
H85 H 0.4355 0.58659 0.52089 0.0
H86 H 0.49127 0.60669 0.52435 0.0
H87 H 0.5124 0.561 0.54 0.0
H88 H 0.42143 0.477 0.54988 0.0
H89 H 0.41922 0.55823 0.4119 0.0
H90 H 0.39369 0.60146 0.40735 0.0
O91 O 0.38578 0.55986 0.55844 0.0
C92 C 0.31848 0.50378 0.55327 0.0
C93 C 0.37396 0.58871 0.45771 0.0
C94 C 0.40561 0.56103 0.43292 0.0
N95 N 0.38533 0.544 0.48964 0.0
C96 C 0.37117 0.56769 0.48726 0.0
C97 C 0.40232 0.54044 0.46286 0.0
C98 C 0.39132 0.58531 0.43039 0.0
C99 C 0.33917 0.41438 0.61015 0.0
N100 N 0.32715 0.44023 0.6122 0.0
C101 C 0.32007 0.37641 0.60898 0.0
C102 C 0.28843 0.36496 0.61001 0.0
C103 C 0.27632 0.39147 0.61225 0.0
C104 C 0.29614 0.42919 0.61334 0.0
C105 C 0.31369 0.48209 0.71059 0.0
C106 C 0.32611 0.52982 0.65525 0.0
C107 C 0.32733 0.4761 0.68096 0.0
N108 N 0.3336 0.49998 0.65384 0.0
C109 C 0.31234 0.53661 0.6844 0.0
C110 C 0.30623 0.51263 0.71229 0.0
C111 C 0.38894 0.56999 0.58966 0.0
C112 C 0.46798 0.51577 0.54552 0.0
C113 C 0.44436 0.56645 0.52773 0.0
C114 C 0.47605 0.57804 0.52965 0.0
C115 C 0.48789 0.55242 0.53844 0.0
N116 N 0.42487 0.53023 0.53398 0.0
C117 C 0.43642 0.50521 0.54343 0.0
Co118 Co 0.86219 0.40568 0.02375 0.0
Co119 Co 0.81462 0.38063 0.09198 0.0
O120 O 0.85561 0.39396 0.07296 0.0
C121 C 0.90595 0.37287 0.00362 0.0
O122 O 0.88659 0.35391 0.97964 0.0
C123 C 0.85878 0.41888 0.15002 0.0
O124 O 0.88286 0.43151 0.12998 0.0
O125 O 0.81673 0.42915 0.07547 0.0
O126 O 0.82764 0.42245 0.02107 0.0
H127 H 0.70744 0.37306 0.08533 0.0
H128 H 0.9146 0.43957 0.07139 0.0
O129 O 0.89792 0.39117 0.0255 0.0
H130 H 0.90513 0.54563 0.01425 0.0
H131 H 0.92533 0.45848 0.91759 0.0
H132 H 0.8214 0.38799 0.96336 0.0
H133 H 0.8701 0.48128 0.99968 0.0
H134 H 0.91721 0.44579 0.97937 0.0
O135 O 0.83182 0.40281 0.13771 0.0
H136 H 0.75817 0.38276 0.06294 0.0
H137 H 0.7827 0.35419 0.15943 0.0
H138 H 0.82852 0.40008 0.90139 0.0
H139 H 0.95042 0.5035 0.08632 0.0
H140 H 0.88079 0.43555 0.87811 0.0
H141 H 0.94576 0.55711 0.05775 0.0
O142 O 0.83237 0.35322 0.01397 0.0
H143 H 0.85714 0.29597 0.14547 0.0
H144 H 0.76583 0.30297 0.09426 0.0
H145 H 0.76217 0.24344 0.1178 0.0
H146 H 0.80811 0.23951 0.14336 0.0
H147 H 0.85955 0.35525 0.12277 0.0
H148 H 0.73271 0.34534 0.18319 0.0
H149 H 0.69469 0.35485 0.1461 0.0
O150 O 0.7955 0.35574 0.04794 0.0
C151 C 0.81714 0.4372 0.04389 0.0
C152 C 0.72392 0.36898 0.10181 0.0
C153 C 0.73815 0.35364 0.15676 0.0
N154 N 0.7738 0.36956 0.10993 0.0
C155 C 0.75273 0.37437 0.08925 0.0
C156 C 0.76662 0.359 0.14324 0.0
C157 C 0.71673 0.35875 0.13587 0.0
C158 C 0.9125 0.4627 0.05867 0.0
N159 N 0.89023 0.45655 0.03469 0.0
C160 C 0.93282 0.49887 0.06731 0.0
C161 C 0.93018 0.52893 0.05129 0.0
C162 C 0.90738 0.52251 0.02691 0.0
C163 C 0.8875 0.48595 0.01889 0.0
C164 C 0.90244 0.44296 0.92741 0.0
C165 C 0.84423 0.40337 0.95345 0.0
C166 C 0.89768 0.43568 0.96239 0.0
N167 N 0.86883 0.416 0.97502 0.0
C168 C 0.84811 0.41017 0.91832 0.0
C169 C 0.87744 0.43009 0.90528 0.0
C170 C 0.80465 0.34004 0.02462 0.0
C171 C 0.83693 0.29734 0.13449 0.0
C172 C 0.78585 0.30177 0.10584 0.0
C173 C 0.78367 0.26783 0.11888 0.0
C174 C 0.80943 0.26567 0.13327 0.0
N175 N 0.81269 0.333 0.10792 0.0
C176 C 0.83814 0.33092 0.1216 0.0
Co177 Co 0.4059 0.8346 0.63054 0.0
Co178 Co 0.42601 0.85281 0.54661 0.0
O179 O 0.4309 0.86747 0.59474 0.0
C180 C 0.41985 0.9132 0.65499 0.0
O181 O 0.43713 0.92914 0.62857 0.0
C182 C 0.49118 0.87398 0.52702 0.0
O183 O 0.4829 0.84054 0.51394 0.0
O184 O 0.43319 0.80798 0.55825 0.0
O185 O 0.4051 0.78973 0.60606 0.0
H186 H 0.3881 0.76301 0.44845 0.0
H187 H 0.46874 0.89503 0.64227 0.0
O188 O 0.40598 0.87794 0.65738 0.0
H189 H 0.46977 0.78341 0.69726 0.0
H190 H 0.37065 0.7974 0.75188 0.0
H191 H 0.35143 0.76228 0.6302 0.0
H192 H 0.42359 0.78052 0.6678 0.0
H193 H 0.40422 0.83772 0.70706 0.0
O194 O 0.47134 0.88308 0.54129 0.0
H195 H 0.39335 0.7821 0.50905 0.0
H196 H 0.45083 0.89329 0.4812 0.0
H197 H 0.31762 0.72089 0.6743 0.0
H198 H 0.5151 0.89929 0.67187 0.0
H199 H 0.32712 0.73833 0.73562 0.0
H200 H 0.51596 0.84324 0.6998 0.0
O201 O 0.36848 0.83075 0.60583 0.0
H202 H 0.44869 0.98913 0.55047 0.0
H203 H 0.37846 0.86616 0.50658 0.0
H204 H 0.36847 0.9212 0.49348 0.0
H205 H 0.40378 0.98328 0.51538 0.0
H206 H 0.45766 0.93331 0.56331 0.0
H207 H 0.44624 0.8754 0.42026 0.0
H208 H 0.41467 0.80984 0.40357 0.0
O209 O 0.38042 0.82267 0.55182 0.0
C210 C 0.41983 0.7838 0.58131 0.0
C211 C 0.4019 0.79167 0.45539 0.0
C212 C 0.43453 0.85475 0.43958 0.0
N213 N 0.4223 0.83877 0.49864 0.0
C214 C 0.40493 0.80265 0.48967 0.0
C215 C 0.43703 0.86472 0.4741 0.0
C216 C 0.41681 0.81796 0.43023 0.0
C217 C 0.4684 0.87064 0.65481 0.0
N218 N 0.44277 0.83789 0.65418 0.0
C219 C 0.495 0.87316 0.67135 0.0
C220 C 0.4955 0.8417 0.68693 0.0
C221 C 0.4696 0.80817 0.68554 0.0
C222 C 0.44343 0.80673 0.6688 0.0
C223 C 0.36631 0.78944 0.72524 0.0
C224 C 0.35589 0.76997 0.65684 0.0
C225 C 0.38517 0.81224 0.6997 0.0
N226 N 0.37997 0.80225 0.66598 0.0
C227 C 0.33658 0.74647 0.6817 0.0
C228 C 0.3419 0.7563 0.7161 0.0
C229 C 0.36086 0.8205 0.57494 0.0
C230 C 0.43313 0.96223 0.54078 0.0
C231 C 0.39378 0.89299 0.51653 0.0
C232 C 0.38808 0.9241 0.50886 0.0
C233 C 0.40792 0.95893 0.52112 0.0
N234 N 0.41857 0.89643 0.53585 0.0
C235 C 0.43812 0.9305 0.54793 0.0
Co236 Co 0.66953 0.50729 0.10428 0.0
Co237 Co 0.62013 0.48215 0.03517 0.0
O238 O 0.63773 0.51292 0.07625 0.0
C239 C 0.62566 0.50673 0.1603 0.0
O240 O 0.60185 0.48235 0.14406 0.0
C241 C 0.62191 0.55833 0.01926 0.0
O242 O 0.63653 0.57241 0.04774 0.0
O243 O 0.662 0.49541 0.01507 0.0
O244 O 0.68886 0.49772 0.06275 0.0
H245 H 0.61002 0.38463 0.94713 0.0
H246 H 0.65806 0.57513 0.11166 0.0
O247 O 0.65226 0.51818 0.14724 0.0
H248 H 0.76738 0.62037 0.08174 0.0
H249 H 0.74733 0.53826 0.19938 0.0
H250 H 0.69827 0.4537 0.10318 0.0
H251 H 0.73549 0.55326 0.08895 0.0
H252 H 0.70831 0.5472 0.16416 0.0
O253 O 0.61647 0.52506 0.01053 0.0
H254 H 0.63149 0.42323 0.9982 0.0
H255 H 0.57041 0.47533 0.9858 0.0
H256 H 0.73771 0.44432 0.13722 0.0
H257 H 0.68913 0.64261 0.10544 0.0
H258 H 0.76241 0.48662 0.18585 0.0
H259 H 0.74418 0.66561 0.0901 0.0
O260 O 0.64376 0.45283 0.10933 0.0
H261 H 0.53671 0.50419 0.0972 0.0
H262 H 0.56509 0.41055 0.04208 0.0
H263 H 0.51365 0.3912 0.06694 0.0
H264 H 0.499 0.43821 0.09452 0.0
H265 H 0.58795 0.52218 0.07269 0.0
H266 H 0.54844 0.43752 0.93443 0.0
H267 H 0.56817 0.39167 0.9148 0.0
O268 O 0.62228 0.43795 0.05744 0.0
C269 C 0.68601 0.49671 0.03036 0.0
C270 C 0.60131 0.40463 0.95533 0.0
C271 C 0.56679 0.43434 0.94818 0.0
N272 N 0.60261 0.45193 0.99482 0.0
C273 C 0.61348 0.42667 0.9842 0.0
C274 C 0.5795 0.45588 0.9772 0.0
C275 C 0.57784 0.40859 0.93721 0.0
C276 C 0.68195 0.58494 0.1048 0.0
N277 N 0.69473 0.56021 0.09949 0.0
C278 C 0.69945 0.62318 0.10139 0.0
C279 C 0.73033 0.63606 0.09278 0.0
C280 C 0.74333 0.6107 0.08797 0.0
C281 C 0.72509 0.57269 0.09158 0.0
C282 C 0.73664 0.51954 0.17834 0.0
C283 C 0.70899 0.4724 0.12418 0.0
C284 C 0.71433 0.52431 0.15847 0.0
N285 N 0.70082 0.50091 0.13173 0.0
C286 C 0.73127 0.46685 0.14343 0.0
C287 C 0.74512 0.4906 0.17071 0.0
C288 C 0.62924 0.42897 0.08641 0.0
C289 C 0.54267 0.4835 0.08487 0.0
C290 C 0.55898 0.4313 0.05389 0.0
C291 C 0.52976 0.42011 0.06798 0.0
C292 C 0.52156 0.44648 0.08345 0.0
N293 N 0.57946 0.46782 0.05479 0.0
C294 C 0.57169 0.49365 0.07053 0.0
Co295 Co 0.14705 0.5994 0.51816 0.0
Co296 Co 0.16208 0.62655 0.60232 0.0
O297 O 0.13346 0.60528 0.56457 0.0
C298 C 0.09697 0.62626 0.50966 0.0
O299 O 0.10715 0.64821 0.53625 0.0
C300 C 0.1263 0.56044 0.64716 0.0
O301 O 0.13799 0.53971 0.63177 0.0
O302 O 0.17993 0.58978 0.59378 0.0
O303 O 0.18125 0.58792 0.53652 0.0
H304 H 0.26597 0.67274 0.65694 0.0
H305 H 0.08261 0.55601 0.54041 0.0
O306 O 0.11217 0.60882 0.49797 0.0
H307 H 0.12025 0.46245 0.50495 0.0
H308 H 0.12974 0.55725 0.39521 0.0
H309 H 0.20708 0.6203 0.48366 0.0
H310 H 0.15389 0.52939 0.50159 0.0
H311 H 0.11401 0.56451 0.4538 0.0
O312 O 0.1316 0.59277 0.63588 0.0
H313 H 0.22859 0.6481 0.61016 0.0
H314 H 0.15779 0.64904 0.67488 0.0
H315 H 0.22387 0.61346 0.42546 0.0
H316 H 0.04814 0.4894 0.54379 0.0
H317 H 0.18503 0.58176 0.3807 0.0
H318 H 0.0669 0.44206 0.52601 0.0
O319 O 0.17593 0.65374 0.51627 0.0
H320 H 0.07569 0.666 0.61696 0.0
H321 H 0.18774 0.7081 0.61709 0.0
H322 H 0.16574 0.75388 0.6264 0.0
H323 H 0.10924 0.73282 0.62652 0.0
H324 H 0.09884 0.62149 0.60685 0.0
H325 H 0.19428 0.67311 0.72257 0.0
H326 H 0.24895 0.68545 0.71369 0.0
O327 O 0.19271 0.66241 0.5707 0.0
C328 C 0.18904 0.5808 0.56589 0.0
C329 C 0.24226 0.66758 0.66115 0.0
C330 C 0.20201 0.66767 0.69799 0.0
N331 N 0.19093 0.64694 0.63975 0.0
C332 C 0.22096 0.65364 0.63471 0.0
C333 C 0.18136 0.65374 0.67094 0.0
C334 C 0.23267 0.67462 0.69298 0.0
C335 C 0.09092 0.53568 0.5323 0.0
N336 N 0.12017 0.54671 0.52043 0.0
C337 C 0.0713 0.49794 0.53442 0.0
C338 C 0.08185 0.47139 0.52448 0.0
C339 C 0.11178 0.48282 0.51267 0.0
C340 C 0.13074 0.52079 0.51088 0.0
C341 C 0.14688 0.57134 0.41442 0.0
C342 C 0.19007 0.60676 0.46432 0.0
C343 C 0.13811 0.57578 0.44762 0.0
N344 N 0.15962 0.59341 0.47209 0.0
C345 C 0.1997 0.60284 0.4314 0.0
C346 C 0.1779 0.58504 0.40631 0.0
C347 C 0.19481 0.67269 0.53951 0.0
C348 C 0.10035 0.67559 0.61673 0.0
C349 C 0.16326 0.69904 0.61603 0.0
C350 C 0.15087 0.72493 0.62184 0.0
C351 C 0.11918 0.71307 0.62204 0.0
N352 N 0.14469 0.66243 0.61034 0.0
C353 C 0.11359 0.65051 0.61105 0.0
Co354 Co 0.83097 0.43964 0.40004 0.0
Co355 Co 0.87033 0.46311 0.47438 0.0
O356 O 0.86972 0.46492 0.42417 0.0
C357 C 0.87993 0.43874 0.35108 0.0
O358 O 0.90238 0.45834 0.37173 0.0
C359 C 0.91543 0.54049 0.49165 0.0
O360 O 0.89509 0.54343 0.51257 0.0
O361 O 0.84279 0.48986 0.47506 0.0
O362 O 0.80835 0.45125 0.43824 0.0
H363 H 0.82354 0.44709 0.59158 0.0
H364 H 0.88349 0.50708 0.37219 0.0
O365 O 0.85203 0.42792 0.36023 0.0
H366 H 0.79187 0.53178 0.35576 0.0
H367 H 0.76073 0.39683 0.29774 0.0
H368 H 0.76905 0.38726 0.42274 0.0
H369 H 0.78778 0.47417 0.38373 0.0
H370 H 0.80953 0.43281 0.32721 0.0
O371 O 0.90812 0.51153 0.47298 0.0
H372 H 0.82345 0.44744 0.52848 0.0
H373 H 0.91946 0.47856 0.52712 0.0
H374 H 0.71978 0.35102 0.39427 0.0
H375 H 0.88855 0.56487 0.34414 0.0
H376 H 0.71539 0.35565 0.33133 0.0
H377 H 0.84253 0.57765 0.33551 0.0
O378 O 0.82663 0.39278 0.42259 0.0
H379 H 0.95975 0.43991 0.43145 0.0
H380 H 0.87051 0.39534 0.50874 0.0
H381 H 0.90299 0.36076 0.50511 0.0
H382 H 0.94808 0.38308 0.46635 0.0
H383 H 0.92643 0.47339 0.43551 0.0
H384 H 0.92058 0.47857 0.59019 0.0
H385 H 0.87237 0.46274 0.62285 0.0
O386 O 0.83328 0.41337 0.47654 0.0
C387 C 0.81669 0.4775 0.46025 0.0
C388 C 0.8447 0.45405 0.57763 0.0
C389 C 0.89916 0.4717 0.57686 0.0
N390 N 0.87139 0.46304 0.5241 0.0
C391 C 0.84479 0.45431 0.5419 0.0
C392 C 0.89837 0.47165 0.54114 0.0
C393 C 0.8721 0.46282 0.59517 0.0
C394 C 0.86319 0.51167 0.36801 0.0
N395 N 0.83517 0.48604 0.37831 0.0
C396 C 0.86627 0.54483 0.35233 0.0
C397 C 0.84046 0.55203 0.34756 0.0
C398 C 0.81205 0.52629 0.35882 0.0
C399 C 0.80988 0.49349 0.37446 0.0
C400 C 0.76237 0.39456 0.32519 0.0
C401 C 0.76734 0.38962 0.39537 0.0
C402 C 0.79 0.41478 0.34203 0.0
N403 N 0.79219 0.41234 0.37676 0.0
C404 C 0.73937 0.36892 0.37937 0.0
C405 C 0.73693 0.37146 0.34404 0.0
C406 C 0.82365 0.3869 0.45468 0.0
C407 C 0.94019 0.42991 0.44845 0.0
C408 C 0.88992 0.40513 0.49159 0.0
C409 C 0.90832 0.38548 0.48975 0.0
C410 C 0.93361 0.39802 0.46802 0.0
N411 N 0.8965 0.43642 0.47231 0.0
C412 C 0.92125 0.44881 0.45091 0.0
Co413 Co 0.35519 0.86211 0.88211 0.0
Co414 Co 0.37666 0.86733 0.96638 0.0
O415 O 0.37548 0.89097 0.92248 0.0
C416 C 0.41482 0.90912 0.84831 0.0
O417 O 0.42975 0.89696 0.86967 0.0
C418 C 0.3684 0.93707 0.98179 0.0
O419 O 0.35131 0.93233 0.9545 0.0
O420 O 0.33068 0.83891 0.96651 0.0
O421 O 0.32338 0.82449 0.91083 0.0
H422 H 0.3494 0.75948 0.04743 0.0
H423 H 0.36908 0.94271 0.88232 0.0
O424 O 0.38616 0.89911 0.85162 0.0
H425 H 0.25685 0.87857 0.87126 0.0
H426 H 0.3164 0.84532 0.76072 0.0
H427 H 0.32732 0.78155 0.86493 0.0
H428 H 0.2883 0.84266 0.87499 0.0
H429 H 0.34077 0.88129 0.8123 0.0
O430 O 0.37496 0.91066 0.99222 0.0
H431 H 0.34854 0.78989 0.99267 0.0
H432 H 0.40758 0.8949 0.03362 0.0
H433 H 0.30237 0.7445 0.81406 0.0
H434 H 0.33856 0.97975 0.878 0.0
H435 H 0.29666 0.77639 0.7615 0.0
H436 H 0.28199 0.94765 0.87262 0.0
O437 O 0.38007 0.83231 0.88556 0.0
H438 H 0.47684 0.97839 0.94823 0.0
H439 H 0.42843 0.84619 0.98141 0.0
H440 H 0.48467 0.87876 0.98053 0.0
H441 H 0.50929 0.94551 0.96417 0.0
H442 H 0.4208 0.94457 0.94869 0.0
H443 H 0.40878 0.86567 0.08895 0.0
H444 H 0.37965 0.79743 0.0961 0.0
O445 O 0.38016 0.82466 0.94245 0.0
C446 C 0.31446 0.8191 0.9418 0.0
C447 C 0.36216 0.78924 0.04466 0.0
C448 C 0.39543 0.84885 0.06797 0.0
N449 N 0.37786 0.84421 0.00991 0.0
C450 C 0.36177 0.80665 0.01368 0.0
C451 C 0.39449 0.8653 0.03662 0.0
C452 C 0.37912 0.81056 0.07195 0.0
C453 C 0.34451 0.92853 0.87961 0.0
N454 N 0.33051 0.89052 0.87907 0.0
C455 C 0.32733 0.94966 0.87734 0.0
C456 C 0.29559 0.93164 0.87439 0.0
C457 C 0.28147 0.89288 0.8737 0.0
C458 C 0.29939 0.87266 0.87606 0.0
C459 C 0.31863 0.8311 0.78352 0.0
C460 C 0.32485 0.79567 0.84222 0.0
C461 C 0.33253 0.85133 0.81279 0.0
N462 N 0.33538 0.83357 0.84173 0.0
C463 C 0.31074 0.77451 0.81346 0.0
C464 C 0.30758 0.79242 0.78396 0.0
C465 C 0.38443 0.81613 0.91203 0.0
C466 C 0.4664 0.94937 0.95562 0.0
C467 C 0.43888 0.87509 0.97402 0.0
C468 C 0.47079 0.89346 0.97367 0.0
C469 C 0.48459 0.9309 0.9645 0.0
N470 N 0.42112 0.89347 0.9657 0.0
C471 C 0.43457 0.93006 0.95617 0.0
Co472 Co 0.58265 0.42401 0.46258 0.0
Co473 Co 0.61916 0.44242 0.38566 0.0
O474 O 0.58569 0.44201 0.41517 0.0
C475 C 0.5166 0.40554 0.44127 0.0
O476 O 0.52442 0.41588 0.40955 0.0
C477 C 0.60202 0.50265 0.35738 0.0
O478 O 0.58002 0.49613 0.37979 0.0
O479 O 0.6495 0.47468 0.4197 0.0
O480 O 0.62822 0.44051 0.46568 0.0
H481 H 0.71968 0.43424 0.36454 0.0
H482 H 0.55606 0.47787 0.44428 0.0
O483 O 0.53668 0.40642 0.46304 0.0
H484 H 0.62772 0.53681 0.53877 0.0
H485 H 0.54239 0.40148 0.58345 0.0
H486 H 0.61006 0.37963 0.49959 0.0
H487 H 0.62078 0.47519 0.51705 0.0
H488 H 0.54727 0.42642 0.52489 0.0
O489 O 0.621 0.48782 0.36059 0.0
H490 H 0.67525 0.42996 0.39873 0.0
H491 H 0.63651 0.45885 0.31182 0.0
H492 H 0.60606 0.35447 0.55796 0.0
H493 H 0.56196 0.53917 0.46549 0.0
H494 H 0.57204 0.36537 0.60039 0.0
H495 H 0.59803 0.56915 0.51312 0.0
O496 O 0.5784 0.37502 0.4443 0.0
H497 H 0.52179 0.39334 0.3152 0.0
H498 H 0.61554 0.37749 0.34409 0.0
H499 H 0.57958 0.33541 0.30237 0.0
H500 H 0.53235 0.34333 0.28725 0.0
H501 H 0.55795 0.43408 0.35714 0.0
H502 H 0.68053 0.46319 0.27663 0.0
H503 H 0.72248 0.45069 0.30294 0.0
O504 O 0.6184 0.39658 0.40844 0.0
C505 C 0.65157 0.46376 0.44989 0.0
C506 C 0.70147 0.43953 0.35272 0.0
C507 C 0.67955 0.45592 0.30343 0.0
N508 N 0.65323 0.44422 0.35743 0.0
C509 C 0.67622 0.43722 0.372 0.0
C510 C 0.65473 0.45358 0.32357 0.0
C511 C 0.70307 0.44887 0.31819 0.0
C512 C 0.57149 0.49035 0.46522 0.0
N513 N 0.58761 0.4725 0.47969 0.0
C514 C 0.57489 0.52526 0.47704 0.0
C515 C 0.59516 0.5421 0.50372 0.0
C516 C 0.61182 0.52397 0.51811 0.0
C517 C 0.60781 0.48907 0.50563 0.0
C518 C 0.55738 0.39665 0.56524 0.0
C519 C 0.5954 0.38476 0.51795 0.0
C520 C 0.56021 0.41066 0.532 0.0
N521 N 0.57924 0.40489 0.5089 0.0
C522 C 0.59314 0.37032 0.55095 0.0
C523 C 0.57402 0.3764 0.57472 0.0
C524 C 0.5981 0.37012 0.42524 0.0
C525 C 0.54249 0.38988 0.32118 0.0
C526 C 0.59522 0.38148 0.33773 0.0
C527 C 0.57485 0.35737 0.31402 0.0
C528 C 0.54837 0.36179 0.30558 0.0
N529 N 0.58976 0.40966 0.35248 0.0
C530 C 0.56339 0.41338 0.34483 0.0
Co531 Co 0.15416 0.54061 0.89176 0.0
Co532 Co 0.13744 0.55412 0.97508 0.0
O533 O 0.1248 0.53492 0.9284 0.0
C534 C 0.12156 0.57375 0.84554 0.0
O535 O 0.13314 0.60568 0.86186 0.0
C536 C 0.08705 0.47709 0.98325 0.0
O537 O 0.09815 0.46519 0.95753 0.0
O538 O 0.16522 0.52747 0.97862 0.0
O539 O 0.18289 0.53349 0.92466 0.0
H540 H 0.21232 0.61494 0.06992 0.0
H541 H 0.08989 0.48526 0.88569 0.0
O542 O 0.12562 0.54588 0.85682 0.0
H543 H 0.15232 0.41368 0.87007 0.0
H544 H 0.1882 0.52314 0.77329 0.0
H545 H 0.22139 0.5822 0.88603 0.0
H546 H 0.17681 0.48159 0.87895 0.0
H547 H 0.15073 0.51324 0.81955 0.0
O548 O 0.10149 0.51018 0.99446 0.0
H549 H 0.19672 0.59144 0.01142 0.0
H550 H 0.10315 0.5571 0.03803 0.0
H551 H 0.25979 0.59211 0.84076 0.0
H552 H 0.06429 0.41751 0.87598 0.0
H553 H 0.24328 0.5626 0.78384 0.0
H554 H 0.09557 0.38118 0.86839 0.0
O555 O 0.17391 0.5954 0.90019 0.0
H556 H 0.04053 0.56779 0.94562 0.0
H557 H 0.14552 0.63172 0.99057 0.0
H558 H 0.11311 0.66628 0.98523 0.0
H559 H 0.06015 0.63426 0.96275 0.0
H560 H 0.0738 0.53437 0.95103 0.0
H561 H 0.1177 0.57999 0.09689 0.0
H562 H 0.17264 0.60925 0.11317 0.0
O563 O 0.17276 0.59941 0.95739 0.0
C564 C 0.18409 0.52583 0.95614 0.0
C565 C 0.1883 0.60213 0.06319 0.0
C566 C 0.1352 0.58247 0.07833 0.0
N567 N 0.14907 0.57252 0.02134 0.0
C568 C 0.17933 0.58869 0.03009 0.0
C569 C 0.12709 0.56935 0.04498 0.0
C570 C 0.16603 0.59893 0.08743 0.0
C571 C 0.10366 0.46966 0.88233 0.0
N572 N 0.13488 0.48723 0.88389 0.0
C573 C 0.08903 0.43129 0.87688 0.0
C574 C 0.10659 0.41091 0.87268 0.0
C575 C 0.13842 0.4291 0.87376 0.0
C576 C 0.15221 0.46749 0.87932 0.0
C577 C 0.19569 0.53624 0.79795 0.0
C578 C 0.214 0.56908 0.8614 0.0
C579 C 0.17449 0.53098 0.82417 0.0
N580 N 0.18374 0.54728 0.85545 0.0
C581 C 0.23587 0.57488 0.83583 0.0
C582 C 0.22658 0.55834 0.8039 0.0
C583 C 0.18217 0.61381 0.92808 0.0
C584 C 0.06353 0.58201 0.95558 0.0
C585 C 0.12254 0.61757 0.98067 0.0
C586 C 0.10427 0.63729 0.97776 0.0
C587 C 0.07456 0.61931 0.96515 0.0
N588 N 0.1115 0.58091 0.97142 0.0
C589 C 0.08245 0.56318 0.95883 0.0
Co590 Co 0.68098 0.15702 0.40128 0.0
Co591 Co 0.62999 0.1367 0.46919 0.0
O592 O 0.64881 0.12151 0.43053 0.0
C593 C 0.6362 0.11308 0.34726 0.0
O594 O 0.6137 0.11642 0.36398 0.0
C595 C 0.63267 0.06455 0.49192 0.0
O596 O 0.64876 0.06364 0.46507 0.0
O597 O 0.67136 0.16961 0.4889 0.0
O598 O 0.70025 0.18821 0.44148 0.0
H599 H 0.61549 0.22941 0.54751 0.0
H600 H 0.66813 0.07696 0.39746 0.0
O601 O 0.66314 0.12662 0.35955 0.0
H602 H 0.7768 0.14026 0.43044 0.0
H603 H 0.75924 0.19603 0.3063 0.0
H604 H 0.71148 0.23939 0.39824 0.0
H605 H 0.74612 0.17623 0.41987 0.0
H606 H 0.71929 0.15094 0.34304 0.0
O607 O 0.62758 0.09324 0.49805 0.0
H608 H 0.63864 0.20935 0.49973 0.0
H609 H 0.58009 0.09627 0.51946 0.0
H610 H 0.75164 0.2854 0.36247 0.0
H611 H 0.69803 0.03981 0.40712 0.0
H612 H 0.77577 0.26381 0.31601 0.0
H613 H 0.75274 0.07147 0.42396 0.0
O614 O 0.65637 0.18673 0.39335 0.0
H615 H 0.55059 0.02351 0.41106 0.0
H616 H 0.57262 0.14744 0.45903 0.0
H617 H 0.52193 0.11056 0.43424 0.0
H618 H 0.51046 0.04789 0.41027 0.0
H619 H 0.60104 0.06148 0.43533 0.0
H620 H 0.55658 0.11506 0.56772 0.0
H621 H 0.57417 0.18209 0.58197 0.0
O622 O 0.6306 0.17959 0.44262 0.0
C623 C 0.69609 0.19044 0.47338 0.0
C624 C 0.60775 0.2001 0.54169 0.0
C625 C 0.57473 0.13594 0.55306 0.0
N626 N 0.61119 0.15164 0.50707 0.0
C627 C 0.62085 0.18856 0.51469 0.0
C628 C 0.58835 0.12544 0.52586 0.0
C629 C 0.58456 0.17355 0.561 0.0
C630 C 0.69194 0.09092 0.40476 0.0
N631 N 0.70522 0.12867 0.40882 0.0
C632 C 0.70874 0.06974 0.41021 0.0
C633 C 0.73942 0.08752 0.41968 0.0
C634 C 0.75291 0.12609 0.42342 0.0
C635 C 0.73536 0.14632 0.41778 0.0
C636 C 0.74885 0.20577 0.3264 0.0
C637 C 0.72191 0.22971 0.37817 0.0
C638 C 0.72607 0.18035 0.34715 0.0
N639 N 0.71291 0.19244 0.37268 0.0
C640 C 0.74463 0.25594 0.35796 0.0
C641 C 0.75814 0.24381 0.33189 0.0
C642 C 0.63948 0.19522 0.41381 0.0
C643 C 0.55516 0.05058 0.42182 0.0
C644 C 0.56795 0.12024 0.44876 0.0
C645 C 0.53912 0.09944 0.43472 0.0
C646 C 0.53269 0.06431 0.42128 0.0
N647 N 0.58981 0.1064 0.44983 0.0
C648 C 0.58375 0.07219 0.43606 0.0
Co649 Co 0.41198 0.5681 0.97211 0.0
Co650 Co 0.40068 0.56494 0.88564 0.0
O651 O 0.42102 0.55619 0.92581 0.0
C652 C 0.48006 0.59939 0.96803 0.0
O653 O 0.47845 0.61142 0.93715 0.0
C654 C 0.38217 0.49367 0.84811 0.0
O655 O 0.35353 0.48714 0.85453 0.0
O656 O 0.36033 0.53311 0.90638 0.0
O657 O 0.36759 0.55361 0.96053 0.0
H658 H 0.31742 0.58816 0.82592 0.0
H659 H 0.44202 0.5165 0.96258 0.0
O660 O 0.45583 0.58244 0.98552 0.0
H661 H 0.34743 0.44503 0.02714 0.0
H662 H 0.42106 0.57236 0.10056 0.0
H663 H 0.37622 0.60751 0.00057 0.0
H664 H 0.36043 0.51006 0.01041 0.0
H665 H 0.4308 0.55602 0.04218 0.0
O666 O 0.40358 0.52097 0.86263 0.0
H667 H 0.34603 0.58091 0.87566 0.0
H668 H 0.41052 0.56625 0.80965 0.0
H669 H 0.36569 0.62414 0.05849 0.0
H670 H 0.43005 0.45163 0.97908 0.0
H671 H 0.38819 0.60653 0.109 0.0
H672 H 0.38244 0.41543 0.01157 0.0
O673 O 0.42186 0.62014 0.95779 0.0
H674 H 0.50962 0.59571 0.85181 0.0
H675 H 0.42775 0.6405 0.85339 0.0
H676 H 0.47819 0.68054 0.8294 0.0
H677 H 0.51953 0.65811 0.8283 0.0
H678 H 0.45902 0.55691 0.87625 0.0
H679 H 0.3824 0.57277 0.75919 0.0
H680 H 0.33546 0.58386 0.76714 0.0
O681 O 0.39841 0.60992 0.90683 0.0
C682 C 0.35007 0.53649 0.93575 0.0
C683 C 0.3378 0.58323 0.82211 0.0
C684 C 0.37424 0.57459 0.78467 0.0
N685 N 0.37975 0.57261 0.84566 0.0
C686 C 0.3541 0.57907 0.8502 0.0
C687 C 0.39001 0.5707 0.81337 0.0
C688 C 0.34792 0.58081 0.78914 0.0
C689 C 0.42136 0.501 0.9769 0.0
N690 N 0.40206 0.51713 0.9857 0.0
C691 C 0.41466 0.46425 0.98609 0.0
C692 C 0.38792 0.44394 0.00429 0.0
C693 C 0.36827 0.46052 0.01302 0.0
C694 C 0.37572 0.49734 0.0034 0.0
C695 C 0.41108 0.58012 0.07876 0.0
C696 C 0.38594 0.59955 0.02242 0.0
C697 C 0.41657 0.57101 0.04564 0.0
N698 N 0.4039 0.58055 0.01801 0.0
C699 C 0.37997 0.60914 0.05516 0.0
C700 C 0.39262 0.59928 0.08348 0.0
C701 C 0.41092 0.63085 0.93235 0.0
C702 C 0.49178 0.60578 0.85208 0.0
C703 C 0.4457 0.63075 0.85351 0.0
C704 C 0.47418 0.65344 0.83964 0.0
C705 C 0.49734 0.64081 0.83896 0.0
N706 N 0.44038 0.5964 0.86634 0.0
C707 C 0.463 0.58384 0.86574 0.0
H708 H 0.58347 0.08379 0.3088 0.0
H709 H 0.68025 0.11 0.30511 0.0
H710 H 0.67729 0.0992 0.24398 0.0
H711 H 0.64929 0.09248 0.19032 0.0
H712 H 0.55244 0.064 0.19268 0.0
H713 H 0.55316 0.06445 0.2553 0.0
C714 C 0.60375 0.08641 0.29473 0.0
C715 C 0.6322 0.09893 0.31156 0.0
C716 C 0.60193 0.07972 0.25918 0.0
C717 C 0.65814 0.10139 0.29293 0.0
C718 C 0.65653 0.0951 0.2578 0.0
C719 C 0.62816 0.08486 0.20463 0.0
C720 C 0.60093 0.07823 0.1871 0.0
C721 C 0.62885 0.08568 0.24049 0.0
C722 C 0.57365 0.06871 0.20573 0.0
C723 C 0.57415 0.06955 0.24155 0.0
H724 H 0.37572 0.44291 0.69732 0.0
H725 H 0.45937 0.5431 0.69417 0.0
H726 H 0.46222 0.54295 0.7566 0.0
H727 H 0.43491 0.52307 0.81097 0.0
H728 H 0.34547 0.43159 0.81244 0.0
H729 H 0.35091 0.41929 0.7521 0.0
C730 C 0.39478 0.46461 0.71016 0.0
C731 C 0.41665 0.49382 0.69103 0.0
C732 C 0.39488 0.46611 0.746 0.0
C733 C 0.4419 0.52063 0.70816 0.0
C734 C 0.44338 0.52074 0.74394 0.0
C735 C 0.41684 0.49987 0.79838 0.0
C736 C 0.38943 0.47885 0.81604 0.0
C737 C 0.41904 0.49495 0.76305 0.0
C738 C 0.36658 0.44852 0.79936 0.0
C739 C 0.36961 0.44167 0.76478 0.0
H740 H 0.9037 0.46628 0.19292 0.0
H741 H 0.82311 0.36267 0.19097 0.0
H742 H 0.82421 0.35793 0.25259 0.0
H743 H 0.84531 0.38519 0.30759 0.0
H744 H 0.92685 0.48747 0.31189 0.0
H745 H 0.92891 0.49008 0.24917 0.0
C746 C 0.88654 0.44269 0.20608 0.0
C747 C 0.86231 0.41594 0.18742 0.0
C748 C 0.88771 0.43961 0.24202 0.0
C749 C 0.84077 0.38493 0.20475 0.0
C750 C 0.84172 0.38175 0.24007 0.0
C751 C 0.86391 0.40767 0.29479 0.0
C752 C 0.88577 0.43611 0.31426 0.0
C753 C 0.8646 0.40931 0.25901 0.0
C754 C 0.90985 0.46501 0.29741 0.0
C755 C 0.91082 0.46675 0.26154 0.0
H756 H 0.39073 0.94048 0.80213 0.0
H757 H 0.46932 0.91601 0.81978 0.0
H758 H 0.48266 0.92607 0.75911 0.0
H759 H 0.46482 0.92678 0.70027 0.0
H760 H 0.38155 0.94056 0.68271 0.0
H761 H 0.37726 0.95039 0.74401 0.0
C762 C 0.4112 0.93814 0.79291 0.0
C763 C 0.42852 0.92644 0.81529 0.0
C764 C 0.41762 0.94177 0.7578 0.0
C765 C 0.45538 0.92452 0.80308 0.0
C766 C 0.46286 0.92998 0.7683 0.0
C767 C 0.44654 0.93359 0.70984 0.0
C768 C 0.4237 0.93348 0.68728 0.0
C769 C 0.44314 0.93646 0.74524 0.0
C770 C 0.39962 0.94131 0.69972 0.0
C771 C 0.39699 0.94636 0.73476 0.0
H772 H 0.64679 0.54703 0.31562 0.0
H773 H 0.54954 0.48075 0.31987 0.0
H774 H 0.54712 0.4781 0.25736 0.0
H775 H 0.57473 0.48555 0.20204 0.0
H776 H 0.67178 0.55545 0.19922 0.0
H777 H 0.67204 0.56592 0.26018 0.0
C778 C 0.62488 0.53338 0.30279 0.0
C779 C 0.59852 0.51385 0.32222 0.0
C780 C 0.62373 0.5317 0.26696 0.0
C781 C 0.57022 0.49614 0.30542 0.0
C782 C 0.56889 0.49415 0.26963 0.0
C783 C 0.59578 0.50362 0.21466 0.0
C784 C 0.62339 0.51834 0.19604 0.0
C785 C 0.59581 0.51031 0.25015 0.0
C786 C 0.65031 0.5425 0.21282 0.0
C787 C 0.65054 0.54882 0.24785 0.0
H788 H 0.11025 0.60362 0.69037 0.0
H789 H 0.11365 0.49617 0.68349 0.0
H790 H 0.10501 0.48773 0.74516 0.0
H791 H 0.10548 0.51526 0.80137 0.0
H792 H 0.11309 0.62797 0.8086 0.0
H793 H 0.10787 0.62979 0.74649 0.0
C794 C 0.10902 0.57822 0.70219 0.0
C795 C 0.11357 0.55104 0.68231 0.0
C796 C 0.10628 0.57474 0.73789 0.0
C797 C 0.11068 0.51778 0.6981 0.0
C798 C 0.10592 0.51305 0.73344 0.0
C799 C 0.10594 0.54029 0.78952 0.0
C800 C 0.11069 0.5719 0.8097 0.0
C801 C 0.10519 0.54211 0.7537 0.0
C802 C 0.10993 0.60343 0.7938 0.0
C803 C 0.10713 0.60455 0.75822 0.0
H804 H 0.46593 0.10292 0.99329 0.0
H805 H 0.49814 0.05378 0.07416 0.0
H806 H 0.4525 0.99582 0.06865 0.0
H807 H 0.40678 0.95677 0.03662 0.0
H808 H 0.37535 0.00388 0.95352 0.0
H809 H 0.4166 0.06496 0.96493 0.0
C810 C 0.46264 0.0798 0.01019 0.0
C811 C 0.48568 0.08273 0.0339 0.0
C812 C 0.43643 0.046 0.00645 0.0
C813 C 0.48102 0.05231 0.05546 0.0
C814 C 0.45487 0.01906 0.05234 0.0
C815 C 0.40852 0.98046 0.02133 0.0
C816 C 0.38806 0.9754 0.99396 0.0
C817 C 0.4329 0.01522 0.02726 0.0
C818 C 0.39065 0.00673 0.97476 0.0
C819 C 0.41449 0.04171 0.98106 0.0
H820 H 0.4033 0.3951 0.52852 0.0
H821 H 0.38995 0.45294 0.44079 0.0
H822 H 0.43044 0.44322 0.41007 0.0
H823 H 0.47456 0.42639 0.41137 0.0
H824 H 0.48964 0.37221 0.50086 0.0
H825 H 0.44359 0.37214 0.52736 0.0
C826 C 0.40855 0.40459 0.5023 0.0
C827 C 0.3936 0.42485 0.48707 0.0
C828 C 0.43267 0.40013 0.48523 0.0
C829 C 0.4011 0.43734 0.45319 0.0
C830 C 0.42444 0.43201 0.43566 0.0
C831 C 0.46739 0.41379 0.43633 0.0
C832 C 0.48575 0.3996 0.45415 0.0
C833 C 0.44118 0.4147 0.45191 0.0
C834 C 0.47614 0.38361 0.48662 0.0
C835 C 0.44978 0.3836 0.50187 0.0
H836 H 0.04174 0.41625 0.9533 0.0
H837 H 0.06033 0.48897 0.04095 0.0
H838 H 0.00646 0.46007 0.05713 0.0
H839 H 0.95337 0.41879 0.04343 0.0
H840 H 0.93385 0.34751 0.9547 0.0
H841 H 0.98859 0.3706 0.94247 0.0
C842 C 0.03414 0.42527 0.97633 0.0
C843 C 0.05524 0.45499 0.99573 0.0
C844 C 1.00279 0.40889 0.98527 0.0
C845 C 0.04475 0.46638 0.02537 0.0
C846 C 0.01384 0.44987 0.03466 0.0
C847 C 0.96098 0.40774 0.02171 0.0
C848 C 0.93923 0.38152 0.99993 0.0
C849 C 0.99252 0.42178 0.01434 0.0
C850 C 0.94986 0.36766 0.97197 0.0
C851 C 0.98126 0.38105 0.96481 0.0
H852 H 0.6154 0.99331 0.46875 0.0
H853 H 0.60267 0.05675 0.55264 0.0
H854 H 0.55882 0.00203 0.57262 0.0
H855 H 0.52005 0.93876 0.56188 0.0
H856 H 0.53243 0.87491 0.47823 0.0
H857 H 0.58049 0.92696 0.46283 0.0
C858 C 0.60363 0.99492 0.49199 0.0
C859 C 0.61214 0.02934 0.50886 0.0
C860 C 0.57797 0.96337 0.50309 0.0
C861 C 0.59646 0.03079 0.53889 0.0
C862 C 0.57123 0.99952 0.55027 0.0
C863 C 0.53349 0.93604 0.54057 0.0
C864 C 0.52244 0.90316 0.52096 0.0
C865 C 0.56107 0.9661 0.53181 0.0
C866 C 0.54033 0.89991 0.49372 0.0
C867 C 0.5678 0.92975 0.4848 0.0
H868 H 0.52593 0.59172 0.93271 0.0
H869 H 0.49927 0.61013 0.03399 0.0
H870 H 0.54464 0.60565 0.05813 0.0
H871 H 0.5884 0.58928 0.05129 0.0
H872 H 0.61105 0.5621 0.95129 0.0
H873 H 0.5713 0.57781 0.9256 0.0
C874 C 0.53049 0.59553 0.95995 0.0
C875 C 0.50948 0.60149 0.98157 0.0
C876 C 0.55592 0.59123 0.97383 0.0
C877 C 0.5152 0.60557 0.0169 0.0
C878 C 0.5411 0.60296 0.0307 0.0
C879 C 0.58523 0.58795 0.02376 0.0
C880 C 0.60296 0.5753 0.00306 0.0
C881 C 0.5612 0.59488 0.00954 0.0
C882 C 0.59794 0.57236 0.96758 0.0
C883 C 0.57506 0.58102 0.95298 0.0
H884 H 0.96309 0.54293 0.452 0.0
H885 H 0.94246 0.59537 0.53946 0.0
H886 H 0.99713 0.62987 0.55074 0.0
H887 H 0.05076 0.63993 0.53949 0.0
H888 H 0.07068 0.58626 0.45238 0.0
H889 H 0.0166 0.55789 0.4373 0.0
C890 C 0.97047 0.56232 0.47325 0.0
C891 C 0.94847 0.56617 0.49498 0.0
C892 C 1.002 0.58174 0.4799 0.0
C893 C 0.9587 0.59169 0.52225 0.0
C894 C 0.99006 0.61135 0.52886 0.0
C895 C 0.04339 0.6227 0.51678 0.0
C896 C 0.06496 0.61512 0.49732 0.0
C897 C 0.01195 0.60589 0.50839 0.0
C898 C 0.05476 0.59248 0.46806 0.0
C899 C 0.02372 0.5761 0.4594 0.0
H900 H 0.62472 0.27088 0.11898 0.0
H901 H 0.57046 0.2427 0.02669 0.0
H902 H 0.57419 0.30645 0.02354 0.0
H903 H 0.59497 0.37045 0.04563 0.0
H904 H 0.64766 0.39725 0.13923 0.0
H905 H 0.64067 0.33252 0.14422 0.0
C906 C 0.61316 0.27823 0.09844 0.0
C907 C 0.59729 0.25182 0.07311 0.0
C908 C 0.61495 0.31455 0.09716 0.0
C909 C 0.5828 0.26234 0.04654 0.0
C910 C 0.58496 0.2988 0.04473 0.0
C911 C 0.6049 0.36229 0.06728 0.0
C912 C 0.62216 0.38901 0.09185 0.0
C913 C 0.6013 0.32521 0.06971 0.0
C914 C 0.63444 0.37752 0.11986 0.0
C915 C 0.63074 0.34059 0.12254 0.0
H916 H 0.27642 0.50273 0.59972 0.0
H917 H 0.29918 0.52401 0.49267 0.0
H918 H 0.25964 0.54807 0.48668 0.0
H919 H 0.22188 0.56809 0.51355 0.0
H920 H 0.20341 0.55012 0.62188 0.0
H921 H 0.23864 0.52023 0.62564 0.0
C922 C 0.27276 0.51219 0.5748 0.0
C923 C 0.29112 0.51169 0.5467 0.0
C924 C 0.25106 0.52722 0.57196 0.0
C925 C 0.28546 0.52388 0.51473 0.0
C926 C 0.26303 0.53799 0.51142 0.0
C927 C 0.22542 0.55747 0.53797 0.0
C928 C 0.21 0.56165 0.56749 0.0
C929 C 0.24624 0.54067 0.54012 0.0
C930 C 0.21498 0.54765 0.59883 0.0
C931 C 0.23508 0.53039 0.60099 0.0
H932 H 0.79356 0.26942 0.04059 0.0
H933 H 0.76051 0.33595 0.97989 0.0
H934 H 0.70921 0.28536 0.97908 0.0
H935 H 0.67202 0.22888 0.00697 0.0
H936 H 0.70434 0.16648 0.07448 0.0
H937 H 0.7573 0.20804 0.06119 0.0
C938 C 0.77539 0.27198 0.02581 0.0
C939 C 0.78077 0.30609 0.01003 0.0
C940 C 0.74545 0.24384 0.02781 0.0
C941 C 0.75699 0.3096 0.9916 0.0
C942 C 0.7275 0.28094 0.9918 0.0
C943 C 0.69065 0.22379 0.01807 0.0
C944 C 0.6842 0.19483 0.042 0.0
C945 C 0.7211 0.24891 0.01158 0.0
C946 C 0.70865 0.1888 0.0563 0.0
C947 C 0.73897 0.21264 0.04876 0.0
H948 H 0.40264 0.73013 0.63033 0.0
H949 H 0.43641 0.75276 0.52656 0.0
H950 H 0.43214 0.68911 0.52133 0.0
H951 H 0.41544 0.62653 0.54473 0.0
H952 H 0.38309 0.60403 0.64899 0.0
H953 H 0.39095 0.66901 0.65577 0.0
C954 C 0.40955 0.72149 0.60669 0.0
C955 C 0.41973 0.7463 0.57881 0.0
C956 C 0.40733 0.68504 0.60399 0.0
C957 C 0.42848 0.73434 0.5484 0.0
C958 C 0.42601 0.69794 0.54539 0.0
C959 C 0.41053 0.63578 0.5692 0.0
C960 C 0.39835 0.6102 0.59621 0.0
C961 C 0.41502 0.67297 0.57284 0.0
C962 C 0.39236 0.62298 0.62774 0.0
C963 C 0.3967 0.66009 0.63155 0.0
H964 H 0.74629 0.53847 0.0371 0.0
H965 H 0.6822 0.44315 0.98316 0.0
H966 H 0.72112 0.41843 0.97759 0.0
H967 H 0.7689 0.41689 0.00051 0.0
H968 H 0.82785 0.50677 0.06468 0.0
H969 H 0.79545 0.54021 0.05516 0.0
C970 C 0.74104 0.51263 0.02362 0.0
C971 C 0.71107 0.49209 0.01171 0.0
C972 C 0.7625 0.49703 0.02356 0.0
C973 C 0.70492 0.45944 0.99289 0.0
C974 C 0.72708 0.44493 0.99031 0.0
C975 C 0.77492 0.44424 0.0116 0.0
C976 C 0.80056 0.45956 0.03328 0.0
C977 C 0.75521 0.4623 0.00752 0.0
C978 C 0.80811 0.49462 0.04804 0.0
C979 C 0.78963 0.51366 0.04255 0.0
H980 H 0.21754 0.73759 0.57394 0.0
H981 H 0.23609 0.6834 0.48691 0.0
H982 H 0.28986 0.7281 0.48786 0.0
H983 H 0.33311 0.77538 0.52023 0.0
H984 H 0.31367 0.82452 0.61091 0.0
H985 H 0.259 0.78855 0.60232 0.0
C986 C 0.2332 0.73575 0.55494 0.0
C987 C 0.22286 0.70641 0.5311 0.0
C988 C 0.26424 0.76022 0.55691 0.0
C989 C 0.2433 0.70539 0.50576 0.0
C990 C 0.27423 0.73075 0.50662 0.0
C991 C 0.3169 0.77872 0.53777 0.0
C992 C 0.32765 0.80237 0.5665 0.0
C993 C 0.28525 0.7571 0.53318 0.0
C994 C 0.30621 0.80628 0.58888 0.0
C995 C 0.27486 0.78575 0.58395 0.0
H996 H 0.76802 0.44588 0.50161 0.0
H997 H 0.81287 0.53905 0.43454 0.0
H998 H 0.7647 0.54565 0.42652 0.0
H999 H 0.70795 0.51705 0.43076 0.0
H1000 H 0.6645 0.42584 0.5011 0.0
H1001 H 0.71383 0.42688 0.51619 0.0
C1002 C 0.76752 0.46883 0.48672 0.0
C1003 C 0.79375 0.49192 0.46864 0.0
C1004 C 0.73974 0.47223 0.48216 0.0
C1005 C 0.79286 0.52112 0.44885 0.0
C1006 C 0.76521 0.52454 0.44391 0.0
C1007 C 0.70936 0.49804 0.45 0.0
C1008 C 0.68229 0.47085 0.46405 0.0
C1009 C 0.73814 0.49901 0.45911 0.0
C1010 C 0.6847 0.44681 0.48938 0.0
C1011 C 0.71303 0.44727 0.4981 0.0
H1012 H 0.27332 0.77846 0.89427 0.0
H1013 H 0.29161 0.78113 0.0026 0.0
H1014 H 0.25088 0.71804 0.00825 0.0
H1015 H 0.21349 0.65999 0.98097 0.0
H1016 H 0.19971 0.6581 0.87156 0.0
H1017 H 0.23592 0.72298 0.86785 0.0
C1018 C 0.26843 0.76569 0.91938 0.0
C1019 C 0.28596 0.78474 0.94794 0.0
C1020 C 0.2461 0.72914 0.92208 0.0
C1021 C 0.27863 0.76742 0.98015 0.0
C1022 C 0.25551 0.73112 0.98328 0.0
C1023 C 0.21828 0.67381 0.95632 0.0
C1024 C 0.20386 0.65383 0.92651 0.0
C1025 C 0.23968 0.71132 0.95421 0.0
C1026 C 0.21046 0.67239 0.89487 0.0
C1027 C 0.23113 0.70965 0.89272 0.0
H1028 H 0.59496 0.21034 0.44352 0.0
H1029 H 0.66701 0.25238 0.36803 0.0
H1030 H 0.65961 0.31006 0.36424 0.0
H1031 H 0.63584 0.35001 0.38624 0.0
H1032 H 0.56397 0.30752 0.46208 0.0
H1033 H 0.56856 0.24815 0.46213 0.0
C1034 C 0.60881 0.23175 0.42577 0.0
C1035 C 0.63167 0.22703 0.40624 0.0
C1036 C 0.60476 0.26483 0.42419 0.0
C1037 C 0.6492 0.25516 0.38328 0.0
C1038 C 0.64514 0.28825 0.38134 0.0
C1039 C 0.62081 0.3277 0.4025 0.0
C1040 C 0.59955 0.33336 0.4242 0.0
C1041 C 0.62348 0.29365 0.4023 0.0
C1042 C 0.58051 0.30405 0.44518 0.0
C1043 C 0.58311 0.27008 0.44519 0.0
H1044 H 0.20833 0.4858 0.92103 0.0
H1045 H 0.2216 0.55104 0.01272 0.0
H1046 H 0.27444 0.55691 0.01662 0.0
H1047 H 0.319 0.55213 0.98815 0.0
H1048 H 0.30505 0.4907 0.89341 0.0
H1049 H 0.25047 0.47524 0.89616 0.0
C1050 C 0.22254 0.5009 0.94212 0.0
C1051 C 0.21115 0.51878 0.96594 0.0
C1052 C 0.2531 0.50552 0.94316 0.0
C1053 C 0.2297 0.5372 0.99383 0.0
C1054 C 0.2601 0.54093 0.9958 0.0
C1055 C 0.30398 0.53486 0.96837 0.0
C1056 C 0.31638 0.52307 0.94029 0.0
C1057 C 0.27245 0.52666 0.96967 0.0
C1058 C 0.2964 0.50058 0.91505 0.0
C1059 C 0.26509 0.49163 0.91662 0.0
H1060 H 0.75694 0.21408 0.46628 0.0
H1061 H 0.68935 0.24205 0.51631 0.0
H1062 H 0.72594 0.30739 0.51936 0.0
H1063 H 0.77332 0.35813 0.4961 0.0
H1064 H 0.83671 0.32886 0.43826 0.0
H1065 H 0.80569 0.26287 0.44901 0.0
C1066 C 0.75045 0.23429 0.47864 0.0
C1067 C 0.72016 0.22323 0.4902 0.0
C1068 C 0.77076 0.272 0.47777 0.0
C1069 C 0.71237 0.24962 0.50701 0.0
C1070 C 0.73321 0.28722 0.50816 0.0
C1071 C 0.78057 0.33719 0.48667 0.0
C1072 C 0.80714 0.34808 0.46634 0.0
C1073 C 0.76182 0.29903 0.49176 0.0
C1074 C 0.81624 0.32092 0.45378 0.0
C1075 C 0.79855 0.28326 0.45998 0.0
H1076 H 0.39684 0.66661 0.87999 0.0
H1077 H 0.42438 0.67942 0.98619 0.0
H1078 H 0.42039 0.73905 0.98824 0.0
H1079 H 0.40609 0.78507 0.96116 0.0
H1080 H 0.38022 0.77401 0.85455 0.0
H1081 H 0.38713 0.71599 0.85129 0.0
C1082 C 0.40244 0.68259 0.90351 0.0
C1083 C 0.41086 0.66837 0.93295 0.0
C1084 C 0.4004 0.71703 0.90443 0.0
C1085 C 0.41787 0.68958 0.96316 0.0
C1086 C 0.41555 0.72367 0.96437 0.0
C1087 C 0.4024 0.77045 0.93697 0.0
C1088 C 0.39247 0.7839 0.90816 0.0
C1089 C 0.40645 0.73735 0.93531 0.0
C1090 C 0.38786 0.76438 0.8771 0.0
C1091 C 0.39167 0.73111 0.87529 0.0
loop_
_geom_bond_atom_site_label_1
_geom_bond_atom_site_label_2
_geom_bond_distance
_geom_bond_site_symmetry_2
_ccdc_geom_bond_type
Co0 O2 2.143 . S
Co0 O8 2.074 . S
Co0 O11 2.093 . S
Co0 O24 2.097 . S
Co0 N41 2.151 . S
Co0 N49 2.214 . S
Co1 O2 2.160 . S
Co1 O7 2.058 . S
Co1 O17 2.057 . S
Co1 O32 2.037 . S
Co1 N36 2.145 1_554 S
Co1 N57 2.257 . S
O2 Co0 2.143 . S
O2 Co1 2.160 . S
C3 O4 1.278 . S
C3 O11 1.224 . S
O4 C3 1.278 . S
C5 O6 1.245 . S
C5 O17 1.232 . S
O6 C5 1.245 . S
O7 Co1 2.058 . S
O7 C33 1.269 . S
O8 Co0 2.074 . S
O8 C33 1.257 . S
H9 C34 0.930 . S
H10 C40 0.930 . S
O11 Co0 2.093 . S
O11 C3 1.224 . S
H12 C44 0.929 . S
H13 C46 0.930 . S
H14 C47 0.930 . S
H15 C45 0.929 . S
H16 C48 0.928 . S
O17 Co1 2.057 . S
O17 C5 1.232 . S
H18 C37 0.929 . S
H19 C38 0.929 . S
H20 C50 0.931 . S
H21 C42 0.929 . S
H22 C51 0.930 . S
H23 C43 0.931 . S
O24 Co0 2.097 . S
O24 C52 1.214 . S
H25 C53 0.929 . S
H26 C54 0.929 . S
H27 C55 0.930 . S
H28 C56 0.929 . S
H29 C58 0.930 . S
H30 C35 0.930 . S
H31 C39 0.930 . S
O32 Co1 2.037 . S
O32 C52 1.234 . S
C33 O7 1.269 . S
C33 O8 1.257 . S
C34 H9 0.930 . S
C34 C37 1.388 . S
C34 C39 1.418 . S
C35 H30 0.930 . S
C35 C38 1.404 . S
C35 C39 1.353 . S
N36 Co1 2.145 1_556 S
N36 C37 1.397 . S
N36 C38 1.334 . S
C37 H18 0.929 . S
C37 C34 1.388 . S
C37 N36 1.397 . S
C38 H19 0.929 . S
C38 C35 1.404 . S
C38 N36 1.334 . S
C39 H31 0.930 . S
C39 C34 1.418 . S
C39 C35 1.353 . S
C40 H10 0.930 . S
C40 N41 1.330 . S
C40 C42 1.446 . S
N41 Co0 2.151 . S
N41 C40 1.330 . S
N41 C45 1.418 . S
C42 H21 0.929 . S
C42 C40 1.446 . S
C42 C43 1.332 . S
C43 H23 0.931 . S
C43 C42 1.332 . S
C43 C44 1.267 . S
C44 H12 0.929 . S
C44 C43 1.267 . S
C44 C45 1.251 . S
C45 H15 0.929 . S
C45 N41 1.418 . S
C45 C44 1.251 . S
C46 H13 0.930 . S
C46 C48 1.406 . S
C46 C51 1.261 . S
C47 H14 0.930 . S
C47 N49 1.325 . S
C47 C50 1.357 . S
C48 H16 0.928 . S
C48 C46 1.406 . S
C48 N49 1.261 . S
N49 Co0 2.214 . S
N49 C47 1.325 . S
N49 C48 1.261 . S
C50 H20 0.931 . S
C50 C47 1.357 . S
C50 C51 1.312 . S
C51 H22 0.930 . S
C51 C46 1.261 . S
C51 C50 1.312 . S
C52 O24 1.214 . S
C52 O32 1.234 . S
C53 H25 0.929 . S
C53 C56 1.391 . S
C53 C58 1.391 . S
C54 H26 0.929 . S
C54 C55 1.390 . S
C54 N57 1.391 . S
C55 H27 0.930 . S
C55 C54 1.390 . S
C55 C56 1.392 . S
C56 H28 0.929 . S
C56 C53 1.391 . S
C56 C55 1.392 . S
N57 Co1 2.257 . S
N57 C54 1.391 . S
N57 C58 1.388 . S
C58 H29 0.930 . S
C58 C53 1.391 . S
C58 N57 1.388 . S
Co59 O61 2.143 . S
Co59 O67 2.074 . S
Co59 O70 2.093 . S
Co59 O83 2.097 . S
Co59 N100 2.151 . S
Co59 N108 2.214 . S
Co60 O61 2.160 . S
Co60 O66 2.058 . S
Co60 O76 2.057 . S
Co60 O91 2.037 . S
Co60 N95 2.145 . S
Co60 N116 2.257 . S
O61 Co59 2.143 . S
O61 Co60 2.160 . S
C62 O63 1.278 . S
C62 O70 1.224 . S
O63 C62 1.278 . S
C64 O65 1.245 . S
C64 O76 1.232 . S
O65 C64 1.245 . S
O66 Co60 2.058 . S
O66 C92 1.269 . S
O67 Co59 2.074 . S
O67 C92 1.257 . S
H68 C93 0.930 . S
H69 C99 0.930 . S
O70 Co59 2.093 . S
O70 C62 1.224 . S
H71 C103 0.929 . S
H72 C105 0.930 . S
H73 C106 0.930 . S
H74 C104 0.929 . S
H75 C107 0.928 . S
O76 Co60 2.057 . S
O76 C64 1.232 . S
H77 C96 0.929 . S
H78 C97 0.929 . S
H79 C109 0.931 . S
H80 C101 0.929 . S
H81 C110 0.930 . S
H82 C102 0.931 . S
O83 Co59 2.097 . S
O83 C111 1.214 . S
H84 C112 0.929 . S
H85 C113 0.929 . S
H86 C114 0.930 . S
H87 C115 0.929 . S
H88 C117 0.930 . S
H89 C94 0.930 . S
H90 C98 0.930 . S
O91 Co60 2.037 . S
O91 C111 1.234 . S
C92 O66 1.269 . S
C92 O67 1.257 . S
C93 H68 0.930 . S
C93 C96 1.388 . S
C93 C98 1.418 . S
C94 H89 0.930 . S
C94 C97 1.404 . S
C94 C98 1.353 . S
N95 Co60 2.145 . S
N95 C96 1.397 . S
N95 C97 1.334 . S
C96 H77 0.929 . S
C96 C93 1.388 . S
C96 N95 1.397 . S
C97 H78 0.929 . S
C97 C94 1.404 . S
C97 N95 1.334 . S
C98 H90 0.930 . S
C98 C93 1.418 . S
C98 C94 1.353 . S
C99 H69 0.930 . S
C99 N100 1.330 . S
C99 C101 1.446 . S
N100 Co59 2.151 . S
N100 C99 1.330 . S
N100 C104 1.418 . S
C101 H80 0.929 . S
C101 C99 1.446 . S
C101 C102 1.332 . S
C102 H82 0.931 . S
C102 C101 1.332 . S
C102 C103 1.267 . S
C103 H71 0.929 . S
C103 C102 1.267 . S
C103 C104 1.251 . S
C104 H74 0.929 . S
C104 N100 1.418 . S
C104 C103 1.251 . S
C105 H72 0.930 . S
C105 C107 1.406 . S
C105 C110 1.261 . S
C106 H73 0.930 . S
C106 N108 1.325 . S
C106 C109 1.357 . S
C107 H75 0.928 . S
C107 C105 1.406 . S
C107 N108 1.261 . S
N108 Co59 2.214 . S
N108 C106 1.325 . S
N108 C107 1.261 . S
C109 H79 0.931 . S
C109 C106 1.357 . S
C109 C110 1.312 . S
C110 H81 0.930 . S
C110 C105 1.261 . S
C110 C109 1.312 . S
C111 O83 1.214 . S
C111 O91 1.234 . S
C112 H84 0.929 . S
C112 C115 1.391 . S
C112 C117 1.391 . S
C113 H85 0.929 . S
C113 C114 1.390 . S
C113 N116 1.391 . S
C114 H86 0.930 . S
C114 C113 1.390 . S
C114 C115 1.392 . S
C115 H87 0.929 . S
C115 C112 1.391 . S
C115 C114 1.392 . S
N116 Co60 2.257 . S
N116 C113 1.391 . S
N116 C117 1.388 . S
C117 H88 0.930 . S
C117 C112 1.391 . S
C117 N116 1.388 . S
Co118 O120 2.143 . S
Co118 O126 2.074 . S
Co118 O129 2.093 1_554 S
Co118 O142 2.097 . S
Co118 N159 2.151 . S
Co118 N167 2.214 1_554 S
Co119 O120 2.160 . S
Co119 O125 2.058 . S
Co119 O135 2.057 . S
Co119 O150 2.037 . S
Co119 N154 2.145 . S
Co119 N175 2.257 . S
O120 Co118 2.143 . S
O120 Co119 2.160 . S
C121 O122 1.278 . S
C121 O129 1.226 1_554 S
O122 C121 1.278 . S
C123 O124 1.245 . S
C123 O135 1.232 . S
O124 C123 1.245 . S
O125 Co119 2.058 . S
O125 C151 1.269 . S
O126 Co118 2.074 . S
O126 C151 1.257 . S
H127 C152 0.930 . S
H128 C158 0.930 . S
O129 Co118 2.093 1_556 S
O129 C121 1.226 1_556 S
H130 C162 0.929 1_556 S
H131 C164 0.930 . S
H132 C165 0.930 . S
H133 C163 0.929 1_556 S
H134 C166 0.928 . S
O135 Co119 2.057 . S
O135 C123 1.232 . S
H136 C155 0.929 . S
H137 C156 0.929 . S
H138 C168 0.931 . S
H139 C160 0.929 . S
H140 C169 0.930 . S
H141 C161 0.931 . S
O142 Co118 2.097 . S
O142 C170 1.214 . S
H143 C171 0.929 . S
H144 C172 0.929 . S
H145 C173 0.930 . S
H146 C174 0.929 . S
H147 C176 0.930 . S
H148 C153 0.930 . S
H149 C157 0.930 . S
O150 Co119 2.037 . S
O150 C170 1.234 . S
C151 O125 1.269 . S
C151 O126 1.257 . S
C152 H127 0.930 . S
C152 C155 1.388 . S
C152 C157 1.418 . S
C153 H148 0.930 . S
C153 C156 1.404 . S
C153 C157 1.353 . S
N154 Co119 2.145 . S
N154 C155 1.397 . S
N154 C156 1.334 . S
C155 H136 0.929 . S
C155 C152 1.388 . S
C155 N154 1.397 . S
C156 H137 0.929 . S
C156 C153 1.404 . S
C156 N154 1.334 . S
C157 H149 0.930 . S
C157 C152 1.418 . S
C157 C153 1.353 . S
C158 H128 0.930 . S
C158 N159 1.330 . S
C158 C160 1.446 . S
N159 Co118 2.151 . S
N159 C158 1.330 . S
N159 C163 1.418 . S
C160 H139 0.929 . S
C160 C158 1.446 . S
C160 C161 1.332 . S
C161 H141 0.931 . S
C161 C160 1.332 . S
C161 C162 1.267 . S
C162 H130 0.929 1_554 S
C162 C161 1.267 . S
C162 C163 1.251 . S
C163 H133 0.929 1_554 S
C163 N159 1.418 . S
C163 C162 1.251 . S
C164 H131 0.930 . S
C164 C166 1.406 . S
C164 C169 1.261 . S
C165 H132 0.930 . S
C165 N167 1.325 . S
C165 C168 1.357 . S
C166 H134 0.928 . S
C166 C164 1.406 . S
C166 N167 1.261 . S
N167 Co118 2.214 1_556 S
N167 C165 1.325 . S
N167 C166 1.261 . S
C168 H138 0.931 . S
C168 C165 1.357 . S
C168 C169 1.312 . S
C169 H140 0.930 . S
C169 C164 1.261 . S
C169 C168 1.312 . S
C170 O142 1.214 . S
C170 O150 1.234 . S
C171 H143 0.929 . S
C171 C174 1.391 . S
C171 C176 1.391 . S
C172 H144 0.929 . S
C172 C173 1.390 . S
C172 N175 1.391 . S
C173 H145 0.930 . S
C173 C172 1.390 . S
C173 C174 1.392 . S
C174 H146 0.929 . S
C174 C171 1.391 . S
C174 C173 1.392 . S
N175 Co119 2.257 . S
N175 C172 1.391 . S
N175 C176 1.388 . S
C176 H147 0.930 . S
C176 C171 1.391 . S
C176 N175 1.388 . S
Co177 O179 2.143 . S
Co177 O185 2.074 . S
Co177 O188 2.093 . S
Co177 O201 2.097 . S
Co177 N218 2.151 . S
Co177 N226 2.214 . S
Co178 O179 2.160 . S
Co178 O184 2.058 . S
Co178 O194 2.057 . S
Co178 O209 2.037 . S
Co178 N213 2.145 . S
Co178 N234 2.257 . S
O179 Co177 2.143 . S
O179 Co178 2.160 . S
C180 O181 1.278 . S
C180 O188 1.224 . S
O181 C180 1.278 . S
C182 O183 1.245 . S
C182 O194 1.232 . S
O183 C182 1.245 . S
O184 Co178 2.058 . S
O184 C210 1.269 . S
O185 Co177 2.074 . S
O185 C210 1.257 . S
H186 C211 0.930 . S
H187 C217 0.930 . S
O188 Co177 2.093 . S
O188 C180 1.224 . S
H189 C221 0.929 . S
H190 C223 0.930 . S
H191 C224 0.930 . S
H192 C222 0.929 . S
H193 C225 0.928 . S
O194 Co178 2.057 . S
O194 C182 1.232 . S
H195 C214 0.929 . S
H196 C215 0.929 . S
H197 C227 0.931 . S
H198 C219 0.929 . S
H199 C228 0.930 . S
H200 C220 0.931 . S
O201 Co177 2.097 . S
O201 C229 1.214 . S
H202 C230 0.929 . S
H203 C231 0.929 . S
H204 C232 0.930 . S
H205 C233 0.929 . S
H206 C235 0.930 . S
H207 C212 0.930 . S
H208 C216 0.930 . S
O209 Co178 2.037 . S
O209 C229 1.234 . S
C210 O184 1.269 . S
C210 O185 1.257 . S
C211 H186 0.930 . S
C211 C214 1.388 . S
C211 C216 1.418 . S
C212 H207 0.930 . S
C212 C215 1.404 . S
C212 C216 1.353 . S
N213 Co178 2.145 . S
N213 C214 1.397 . S
N213 C215 1.334 . S
C214 H195 0.929 . S
C214 C211 1.388 . S
C214 N213 1.397 . S
C215 H196 0.929 . S
C215 C212 1.404 . S
C215 N213 1.334 . S
C216 H208 0.930 . S
C216 C211 1.418 . S
C216 C212 1.353 . S
C217 H187 0.930 . S
C217 N218 1.330 . S
C217 C219 1.446 . S
N218 Co177 2.151 . S
N218 C217 1.330 . S
N218 C222 1.418 . S
C219 H198 0.929 . S
C219 C217 1.446 . S
C219 C220 1.332 . S
C220 H200 0.931 . S
C220 C219 1.332 . S
C220 C221 1.267 . S
C221 H189 0.929 . S
C221 C220 1.267 . S
C221 C222 1.251 . S
C222 H192 0.929 . S
C222 N218 1.418 . S
C222 C221 1.251 . S
C223 H190 0.930 . S
C223 C225 1.406 . S
C223 C228 1.261 . S
C224 H191 0.930 . S
C224 N226 1.325 . S
C224 C227 1.357 . S
C225 H193 0.928 . S
C225 C223 1.406 . S
C225 N226 1.261 . S
N226 Co177 2.214 . S
N226 C224 1.325 . S
N226 C225 1.261 . S
C227 H197 0.931 . S
C227 C224 1.357 . S
C227 C228 1.312 . S
C228 H199 0.930 . S
C228 C223 1.261 . S
C228 C227 1.312 . S
C229 O201 1.214 . S
C229 O209 1.234 . S
C230 H202 0.929 . S
C230 C233 1.391 . S
C230 C235 1.391 . S
C231 H203 0.929 . S
C231 C232 1.390 . S
C231 N234 1.391 . S
C232 H204 0.930 . S
C232 C231 1.390 . S
C232 C233 1.392 . S
C233 H205 0.929 . S
C233 C230 1.391 . S
C233 C232 1.392 . S
N234 Co178 2.257 . S
N234 C231 1.391 . S
N234 C235 1.388 . S
C235 H206 0.930 . S
C235 C230 1.391 . S
C235 N234 1.388 . S
Co236 O238 2.143 . S
Co236 O244 2.074 . S
Co236 O247 2.093 . S
Co236 O260 2.097 . S
Co236 N277 2.151 . S
Co236 N285 2.214 . S
Co237 O238 2.160 . S
Co237 O243 2.058 . S
Co237 O253 2.057 . S
Co237 O268 2.037 . S
Co237 N272 2.145 1_554 S
Co237 N293 2.257 . S
O238 Co236 2.143 . S
O238 Co237 2.160 . S
C239 O240 1.278 . S
C239 O247 1.224 . S
O240 C239 1.278 . S
C241 O242 1.245 . S
C241 O253 1.232 . S
O242 C241 1.245 . S
O243 Co237 2.058 . S
O243 C269 1.269 . S
O244 Co236 2.074 . S
O244 C269 1.257 . S
H245 C270 0.930 . S
H246 C276 0.930 . S
O247 Co236 2.093 . S
O247 C239 1.224 . S
H248 C280 0.929 . S
H249 C282 0.930 . S
H250 C283 0.930 . S
H251 C281 0.929 . S
H252 C284 0.928 . S
O253 Co237 2.057 . S
O253 C241 1.232 . S
H254 C273 0.929 . S
H255 C274 0.929 . S
H256 C286 0.931 . S
H257 C278 0.929 . S
H258 C287 0.930 . S
H259 C279 0.931 . S
O260 Co236 2.097 . S
O260 C288 1.214 . S
H261 C289 0.929 . S
H262 C290 0.929 . S
H263 C291 0.930 . S
H264 C292 0.929 . S
H265 C294 0.930 . S
H266 C271 0.930 . S
H267 C275 0.930 . S
O268 Co237 2.037 . S
O268 C288 1.234 . S
C269 O243 1.269 . S
C269 O244 1.257 . S
C270 H245 0.930 . S
C270 C273 1.388 . S
C270 C275 1.418 . S
C271 H266 0.930 . S
C271 C274 1.404 . S
C271 C275 1.353 . S
N272 Co237 2.145 1_556 S
N272 C273 1.397 . S
N272 C274 1.334 . S
C273 H254 0.929 . S
C273 C270 1.388 . S
C273 N272 1.397 . S
C274 H255 0.929 . S
C274 C271 1.404 . S
C274 N272 1.334 . S
C275 H267 0.930 . S
C275 C270 1.418 . S
C275 C271 1.353 . S
C276 H246 0.930 . S
C276 N277 1.330 . S
C276 C278 1.446 . S
N277 Co236 2.151 . S
N277 C276 1.330 . S
N277 C281 1.418 . S
C278 H257 0.929 . S
C278 C276 1.446 . S
C278 C279 1.332 . S
C279 H259 0.931 . S
C279 C278 1.332 . S
C279 C280 1.267 . S
C280 H248 0.929 . S
C280 C279 1.267 . S
C280 C281 1.251 . S
C281 H251 0.929 . S
C281 N277 1.418 . S
C281 C280 1.251 . S
C282 H249 0.930 . S
C282 C284 1.406 . S
C282 C287 1.261 . S
C283 H250 0.930 . S
C283 N285 1.325 . S
C283 C286 1.357 . S
C284 H252 0.928 . S
C284 C282 1.406 . S
C284 N285 1.261 . S
N285 Co236 2.214 . S
N285 C283 1.325 . S
N285 C284 1.261 . S
C286 H256 0.931 . S
C286 C283 1.357 . S
C286 C287 1.312 . S
C287 H258 0.930 . S
C287 C282 1.261 . S
C287 C286 1.312 . S
C288 O260 1.214 . S
C288 O268 1.234 . S
C289 H261 0.929 . S
C289 C292 1.391 . S
C289 C294 1.391 . S
C290 H262 0.929 . S
C290 C291 1.390 . S
C290 N293 1.391 . S
C291 H263 0.930 . S
C291 C290 1.390 . S
C291 C292 1.392 . S
C292 H264 0.929 . S
C292 C289 1.391 . S
C292 C291 1.392 . S
N293 Co237 2.257 . S
N293 C290 1.391 . S
N293 C294 1.388 . S
C294 H265 0.930 . S
C294 C289 1.391 . S
C294 N293 1.388 . S
Co295 O297 2.143 . S
Co295 O303 2.074 . S
Co295 O306 2.093 . S
Co295 O319 2.097 . S
Co295 N336 2.151 . S
Co295 N344 2.214 . S
Co296 O297 2.160 . S
Co296 O302 2.058 . S
Co296 O312 2.057 . S
Co296 O327 2.037 . S
Co296 N331 2.145 . S
Co296 N352 2.257 . S
O297 Co295 2.143 . S
O297 Co296 2.160 . S
C298 O299 1.278 . S
C298 O306 1.224 . S
O299 C298 1.278 . S
C300 O301 1.245 . S
C300 O312 1.232 . S
O301 C300 1.245 . S
O302 Co296 2.058 . S
O302 C328 1.269 . S
O303 Co295 2.074 . S
O303 C328 1.257 . S
H304 C329 0.930 . S
H305 C335 0.930 . S
O306 Co295 2.093 . S
O306 C298 1.224 . S
H307 C339 0.929 . S
H308 C341 0.930 . S
H309 C342 0.930 . S
H310 C340 0.929 . S
H311 C343 0.928 . S
O312 Co296 2.057 . S
O312 C300 1.232 . S
H313 C332 0.929 . S
H314 C333 0.929 . S
H315 C345 0.931 . S
H316 C337 0.929 . S
H317 C346 0.930 . S
H318 C338 0.931 . S
O319 Co295 2.097 . S
O319 C347 1.214 . S
H320 C348 0.929 . S
H321 C349 0.929 . S
H322 C350 0.930 . S
H323 C351 0.929 . S
H324 C353 0.930 . S
H325 C330 0.930 . S
H326 C334 0.930 . S
O327 Co296 2.037 . S
O327 C347 1.234 . S
C328 O302 1.269 . S
C328 O303 1.257 . S
C329 H304 0.930 . S
C329 C332 1.388 . S
C329 C334 1.418 . S
C330 H325 0.930 . S
C330 C333 1.404 . S
C330 C334 1.353 . S
N331 Co296 2.145 . S
N331 C332 1.397 . S
N331 C333 1.334 . S
C332 H313 0.929 . S
C332 C329 1.388 . S
C332 N331 1.397 . S
C333 H314 0.929 . S
C333 C330 1.404 . S
C333 N331 1.334 . S
C334 H326 0.930 . S
C334 C329 1.418 . S
C334 C330 1.353 . S
C335 H305 0.930 . S
C335 N336 1.330 . S
C335 C337 1.446 . S
N336 Co295 2.151 . S
N336 C335 1.330 . S
N336 C340 1.418 . S
C337 H316 0.929 . S
C337 C335 1.446 . S
C337 C338 1.332 . S
C338 H318 0.931 . S
C338 C337 1.332 . S
C338 C339 1.267 . S
C339 H307 0.929 . S
C339 C338 1.267 . S
C339 C340 1.251 . S
C340 H310 0.929 . S
C340 N336 1.418 . S
C340 C339 1.251 . S
C341 H308 0.930 . S
C341 C343 1.406 . S
C341 C346 1.261 . S
C342 H309 0.930 . S
C342 N344 1.325 . S
C342 C345 1.357 . S
C343 H311 0.928 . S
C343 C341 1.406 . S
C343 N344 1.261 . S
N344 Co295 2.214 . S
N344 C342 1.325 . S
N344 C343 1.261 . S
C345 H315 0.931 . S
C345 C342 1.357 . S
C345 C346 1.312 . S
C346 H317 0.930 . S
C346 C341 1.261 . S
C346 C345 1.312 . S
C347 O319 1.214 . S
C347 O327 1.234 . S
C348 H320 0.929 . S
C348 C351 1.391 . S
C348 C353 1.391 . S
C349 H321 0.929 . S
C349 C350 1.390 . S
C349 N352 1.391 . S
C350 H322 0.930 . S
C350 C349 1.390 . S
C350 C351 1.392 . S
C351 H323 0.929 . S
C351 C348 1.391 . S
C351 C350 1.392 . S
N352 Co296 2.257 . S
N352 C349 1.391 . S
N352 C353 1.388 . S
C353 H324 0.930 . S
C353 C348 1.391 . S
C353 N352 1.388 . S
Co354 O356 2.143 . S
Co354 O362 2.074 . S
Co354 O365 2.093 . S
Co354 O378 2.097 . S
Co354 N395 2.151 . S
Co354 N403 2.214 . S
Co355 O356 2.160 . S
Co355 O361 2.058 . S
Co355 O371 2.057 . S
Co355 O386 2.037 . S
Co355 N390 2.145 . S
Co355 N411 2.257 . S
O356 Co354 2.143 . S
O356 Co355 2.160 . S
C357 O358 1.278 . S
C357 O365 1.224 . S
O358 C357 1.278 . S
C359 O360 1.245 . S
C359 O371 1.232 . S
O360 C359 1.245 . S
O361 Co355 2.058 . S
O361 C387 1.269 . S
O362 Co354 2.074 . S
O362 C387 1.257 . S
H363 C388 0.930 . S
H364 C394 0.930 . S
O365 Co354 2.093 . S
O365 C357 1.224 . S
H366 C398 0.929 . S
H367 C400 0.930 . S
H368 C401 0.930 . S
H369 C399 0.929 . S
H370 C402 0.928 . S
O371 Co355 2.057 . S
O371 C359 1.232 . S
H372 C391 0.929 . S
H373 C392 0.929 . S
H374 C404 0.931 . S
H375 C396 0.929 . S
H376 C405 0.930 . S
H377 C397 0.931 . S
O378 Co354 2.097 . S
O378 C406 1.214 . S
H379 C407 0.929 . S
H380 C408 0.929 . S
H381 C409 0.930 . S
H382 C410 0.929 . S
H383 C412 0.930 . S
H384 C389 0.930 . S
H385 C393 0.930 . S
O386 Co355 2.037 . S
O386 C406 1.234 . S
C387 O361 1.269 . S
C387 O362 1.257 . S
C388 H363 0.930 . S
C388 C391 1.388 . S
C388 C393 1.418 . S
C389 H384 0.930 . S
C389 C392 1.404 . S
C389 C393 1.353 . S
N390 Co355 2.145 . S
N390 C391 1.397 . S
N390 C392 1.334 . S
C391 H372 0.929 . S
C391 C388 1.388 . S
C391 N390 1.397 . S
C392 H373 0.929 . S
C392 C389 1.404 . S
C392 N390 1.334 . S
C393 H385 0.930 . S
C393 C388 1.418 . S
C393 C389 1.353 . S
C394 H364 0.930 . S
C394 N395 1.330 . S
C394 C396 1.446 . S
N395 Co354 2.151 . S
N395 C394 1.330 . S
N395 C399 1.418 . S
C396 H375 0.929 . S
C396 C394 1.446 . S
C396 C397 1.332 . S
C397 H377 0.931 . S
C397 C396 1.332 . S
C397 C398 1.267 . S
C398 H366 0.929 . S
C398 C397 1.267 . S
C398 C399 1.251 . S
C399 H369 0.929 . S
C399 N395 1.418 . S
C399 C398 1.251 . S
C400 H367 0.930 . S
C400 C402 1.406 . S
C400 C405 1.261 . S
C401 H368 0.930 . S
C401 N403 1.325 . S
C401 C404 1.357 . S
C402 H370 0.928 . S
C402 C400 1.406 . S
C402 N403 1.261 . S
N403 Co354 2.214 . S
N403 C401 1.325 . S
N403 C402 1.261 . S
C404 H374 0.931 . S
C404 C401 1.357 . S
C404 C405 1.312 . S
C405 H376 0.930 . S
C405 C400 1.261 . S
C405 C404 1.312 . S
C406 O378 1.214 . S
C406 O386 1.234 . S
C407 H379 0.929 . S
C407 C410 1.391 . S
C407 C412 1.391 . S
C408 H380 0.929 . S
C408 C409 1.390 . S
C408 N411 1.391 . S
C409 H381 0.930 . S
C409 C408 1.390 . S
C409 C410 1.392 . S
C410 H382 0.929 . S
C410 C407 1.391 . S
C410 C409 1.392 . S
N411 Co355 2.257 . S
N411 C408 1.391 . S
N411 C412 1.388 . S
C412 H383 0.930 . S
C412 C407 1.391 . S
C412 N411 1.388 . S
Co413 O415 2.143 . S
Co413 O421 2.074 . S
Co413 O424 2.093 . S
Co413 O437 2.097 . S
Co413 N454 2.151 . S
Co413 N462 2.214 . S
Co414 O415 2.160 . S
Co414 O420 2.058 . S
Co414 O430 2.057 . S
Co414 O445 2.037 . S
Co414 N449 2.145 1_556 S
Co414 N470 2.257 . S
O415 Co413 2.143 . S
O415 Co414 2.160 . S
C416 O417 1.278 . S
C416 O424 1.224 . S
O417 C416 1.278 . S
C418 O419 1.245 . S
C418 O430 1.232 . S
O419 C418 1.245 . S
O420 Co414 2.058 . S
O420 C446 1.269 . S
O421 Co413 2.074 . S
O421 C446 1.257 . S
H422 C447 0.930 . S
H423 C453 0.930 . S
O424 Co413 2.093 . S
O424 C416 1.224 . S
H425 C457 0.929 . S
H426 C459 0.930 . S
H427 C460 0.930 . S
H428 C458 0.929 . S
H429 C461 0.928 . S
O430 Co414 2.057 . S
O430 C418 1.232 . S
H431 C450 0.929 . S
H432 C451 0.929 . S
H433 C463 0.931 . S
H434 C455 0.929 . S
H435 C464 0.930 . S
H436 C456 0.931 . S
O437 Co413 2.097 . S
O437 C465 1.214 . S
H438 C466 0.929 . S
H439 C467 0.929 . S
H440 C468 0.930 . S
H441 C469 0.929 . S
H442 C471 0.930 . S
H443 C448 0.930 . S
H444 C452 0.930 . S
O445 Co414 2.037 . S
O445 C465 1.234 . S
C446 O420 1.269 . S
C446 O421 1.257 . S
C447 H422 0.930 . S
C447 C450 1.388 . S
C447 C452 1.418 . S
C448 H443 0.930 . S
C448 C451 1.404 . S
C448 C452 1.353 . S
N449 Co414 2.145 1_554 S
N449 C450 1.397 . S
N449 C451 1.334 . S
C450 H431 0.929 . S
C450 C447 1.388 . S
C450 N449 1.397 . S
C451 H432 0.929 . S
C451 C448 1.404 . S
C451 N449 1.334 . S
C452 H444 0.930 . S
C452 C447 1.418 . S
C452 C448 1.353 . S
C453 H423 0.930 . S
C453 N454 1.330 . S
C453 C455 1.446 . S
N454 Co413 2.151 . S
N454 C453 1.330 . S
N454 C458 1.418 . S
C455 H434 0.929 . S
C455 C453 1.446 . S
C455 C456 1.332 . S
C456 H436 0.931 . S
C456 C455 1.332 . S
C456 C457 1.267 . S
C457 H425 0.929 . S
C457 C456 1.267 . S
C457 C458 1.251 . S
C458 H428 0.929 . S
C458 N454 1.418 . S
C458 C457 1.251 . S
C459 H426 0.930 . S
C459 C461 1.406 . S
C459 C464 1.261 . S
C460 H427 0.930 . S
C460 N462 1.325 . S
C460 C463 1.357 . S
C461 H429 0.928 . S
C461 C459 1.406 . S
C461 N462 1.261 . S
N462 Co413 2.214 . S
N462 C460 1.325 . S
N462 C461 1.261 . S
C463 H433 0.931 . S
C463 C460 1.357 . S
C463 C464 1.312 . S
C464 H435 0.930 . S
C464 C459 1.261 . S
C464 C463 1.312 . S
C465 O437 1.214 . S
C465 O445 1.234 . S
C466 H438 0.929 . S
C466 C469 1.391 . S
C466 C471 1.391 . S
C467 H439 0.929 . S
C467 C468 1.390 . S
C467 N470 1.391 . S
C468 H440 0.930 . S
C468 C467 1.390 . S
C468 C469 1.392 . S
C469 H441 0.929 . S
C469 C466 1.391 . S
C469 C468 1.392 . S
N470 Co414 2.257 . S
N470 C467 1.391 . S
N470 C471 1.388 . S
C471 H442 0.930 . S
C471 C466 1.391 . S
C471 N470 1.388 . S
Co472 O474 2.143 . S
Co472 O480 2.074 . S
Co472 O483 2.093 . S
Co472 O496 2.097 . S
Co472 N513 2.151 . S
Co472 N521 2.214 . S
Co473 O474 2.160 . S
Co473 O479 2.058 . S
Co473 O489 2.057 . S
Co473 O504 2.037 . S
Co473 N508 2.145 . S
Co473 N529 2.257 . S
O474 Co472 2.143 . S
O474 Co473 2.160 . S
C475 O476 1.278 . S
C475 O483 1.224 . S
O476 C475 1.278 . S
C477 O478 1.245 . S
C477 O489 1.232 . S
O478 C477 1.245 . S
O479 Co473 2.058 . S
O479 C505 1.269 . S
O480 Co472 2.074 . S
O480 C505 1.257 . S
H481 C506 0.930 . S
H482 C512 0.930 . S
O483 Co472 2.093 . S
O483 C475 1.224 . S
H484 C516 0.929 . S
H485 C518 0.930 . S
H486 C519 0.930 . S
H487 C517 0.929 . S
H488 C520 0.928 . S
O489 Co473 2.057 . S
O489 C477 1.232 . S
H490 C509 0.929 . S
H491 C510 0.929 . S
H492 C522 0.931 . S
H493 C514 0.929 . S
H494 C523 0.930 . S
H495 C515 0.931 . S
O496 Co472 2.097 . S
O496 C524 1.214 . S
H497 C525 0.929 . S
H498 C526 0.929 . S
H499 C527 0.930 . S
H500 C528 0.929 . S
H501 C530 0.930 . S
H502 C507 0.930 . S
H503 C511 0.930 . S
O504 Co473 2.037 . S
O504 C524 1.234 . S
C505 O479 1.269 . S
C505 O480 1.257 . S
C506 H481 0.930 . S
C506 C509 1.388 . S
C506 C511 1.418 . S
C507 H502 0.930 . S
C507 C510 1.404 . S
C507 C511 1.353 . S
N508 Co473 2.145 . S
N508 C509 1.397 . S
N508 C510 1.334 . S
C509 H490 0.929 . S
C509 C506 1.388 . S
C509 N508 1.397 . S
C510 H491 0.929 . S
C510 C507 1.404 . S
C510 N508 1.334 . S
C511 H503 0.930 . S
C511 C506 1.418 . S
C511 C507 1.353 . S
C512 H482 0.930 . S
C512 N513 1.330 . S
C512 C514 1.446 . S
N513 Co472 2.151 . S
N513 C512 1.330 . S
N513 C517 1.418 . S
C514 H493 0.929 . S
C514 C512 1.446 . S
C514 C515 1.332 . S
C515 H495 0.931 . S
C515 C514 1.332 . S
C515 C516 1.267 . S
C516 H484 0.929 . S
C516 C515 1.267 . S
C516 C517 1.251 . S
C517 H487 0.929 . S
C517 N513 1.418 . S
C517 C516 1.251 . S
C518 H485 0.930 . S
C518 C520 1.406 . S
C518 C523 1.261 . S
C519 H486 0.930 . S
C519 N521 1.325 . S
C519 C522 1.357 . S
C520 H488 0.928 . S
C520 C518 1.406 . S
C520 N521 1.261 . S
N521 Co472 2.214 . S
N521 C519 1.325 . S
N521 C520 1.261 . S
C522 H492 0.931 . S
C522 C519 1.357 . S
C522 C523 1.312 . S
C523 H494 0.930 . S
C523 C518 1.261 . S
C523 C522 1.312 . S
C524 O496 1.214 . S
C524 O504 1.234 . S
C525 H497 0.929 . S
C525 C528 1.391 . S
C525 C530 1.391 . S
C526 H498 0.929 . S
C526 C527 1.390 . S
C526 N529 1.391 . S
C527 H499 0.930 . S
C527 C526 1.390 . S
C527 C528 1.392 . S
C528 H500 0.929 . S
C528 C525 1.391 . S
C528 C527 1.392 . S
N529 Co473 2.257 . S
N529 C526 1.391 . S
N529 C530 1.388 . S
C530 H501 0.930 . S
C530 C525 1.391 . S
C530 N529 1.388 . S
Co531 O533 2.143 . S
Co531 O539 2.074 . S
Co531 O542 2.093 . S
Co531 O555 2.097 . S
Co531 N572 2.151 . S
Co531 N580 2.214 . S
Co532 O533 2.160 . S
Co532 O538 2.058 . S
Co532 O548 2.057 . S
Co532 O563 2.037 . S
Co532 N567 2.145 1_556 S
Co532 N588 2.257 . S
O533 Co531 2.143 . S
O533 Co532 2.160 . S
C534 O535 1.278 . S
C534 O542 1.224 . S
O535 C534 1.278 . S
C536 O537 1.245 . S
C536 O548 1.232 . S
O537 C536 1.245 . S
O538 Co532 2.058 . S
O538 C564 1.269 . S
O539 Co531 2.074 . S
O539 C564 1.257 . S
H540 C565 0.930 . S
H541 C571 0.930 . S
O542 Co531 2.093 . S
O542 C534 1.224 . S
H543 C575 0.929 . S
H544 C577 0.930 . S
H545 C578 0.930 . S
H546 C576 0.929 . S
H547 C579 0.928 . S
O548 Co532 2.057 . S
O548 C536 1.232 . S
H549 C568 0.929 . S
H550 C569 0.929 . S
H551 C581 0.931 . S
H552 C573 0.929 . S
H553 C582 0.930 . S
H554 C574 0.931 . S
O555 Co531 2.097 . S
O555 C583 1.214 . S
H556 C584 0.929 . S
H557 C585 0.929 . S
H558 C586 0.930 . S
H559 C587 0.929 . S
H560 C589 0.930 . S
H561 C566 0.930 . S
H562 C570 0.930 . S
O563 Co532 2.037 . S
O563 C583 1.234 . S
C564 O538 1.269 . S
C564 O539 1.257 . S
C565 H540 0.930 . S
C565 C568 1.388 . S
C565 C570 1.418 . S
C566 H561 0.930 . S
C566 C569 1.404 . S
C566 C570 1.353 . S
N567 Co532 2.145 1_554 S
N567 C568 1.397 . S
N567 C569 1.334 . S
C568 H549 0.929 . S
C568 C565 1.388 . S
C568 N567 1.397 . S
C569 H550 0.929 . S
C569 C566 1.404 . S
C569 N567 1.334 . S
C570 H562 0.930 . S
C570 C565 1.418 . S
C570 C566 1.353 . S
C571 H541 0.930 . S
C571 N572 1.330 . S
C571 C573 1.446 . S
N572 Co531 2.151 . S
N572 C571 1.330 . S
N572 C576 1.418 . S
C573 H552 0.929 . S
C573 C571 1.446 . S
C573 C574 1.332 . S
C574 H554 0.931 . S
C574 C573 1.332 . S
C574 C575 1.267 . S
C575 H543 0.929 . S
C575 C574 1.267 . S
C575 C576 1.251 . S
C576 H546 0.929 . S
C576 N572 1.418 . S
C576 C575 1.251 . S
C577 H544 0.930 . S
C577 C579 1.406 . S
C577 C582 1.261 . S
C578 H545 0.930 . S
C578 N580 1.325 . S
C578 C581 1.357 . S
C579 H547 0.928 . S
C579 C577 1.406 . S
C579 N580 1.261 . S
N580 Co531 2.214 . S
N580 C578 1.325 . S
N580 C579 1.261 . S
C581 H551 0.931 . S
C581 C578 1.357 . S
C581 C582 1.312 . S
C582 H553 0.930 . S
C582 C577 1.261 . S
C582 C581 1.312 . S
C583 O555 1.214 . S
C583 O563 1.234 . S
C584 H556 0.929 . S
C584 C587 1.391 . S
C584 C589 1.391 . S
C585 H557 0.929 . S
C585 C586 1.390 . S
C585 N588 1.391 . S
C586 H558 0.930 . S
C586 C585 1.390 . S
C586 C587 1.392 . S
C587 H559 0.929 . S
C587 C584 1.391 . S
C587 C586 1.392 . S
N588 Co532 2.257 . S
N588 C585 1.391 . S
N588 C589 1.388 . S
C589 H560 0.930 . S
C589 C584 1.391 . S
C589 N588 1.388 . S
Co590 O592 2.143 . S
Co590 O598 2.074 . S
Co590 O601 2.093 . S
Co590 O614 2.097 . S
Co590 N631 2.151 . S
Co590 N639 2.214 . S
Co591 O592 2.160 . S
Co591 O597 2.058 . S
Co591 O607 2.057 . S
Co591 O622 2.037 . S
Co591 N626 2.145 . S
Co591 N647 2.257 . S
O592 Co590 2.143 . S
O592 Co591 2.160 . S
C593 O594 1.278 . S
C593 O601 1.224 . S
O594 C593 1.278 . S
C595 O596 1.245 . S
C595 O607 1.232 . S
O596 C595 1.245 . S
O597 Co591 2.058 . S
O597 C623 1.269 . S
O598 Co590 2.074 . S
O598 C623 1.257 . S
H599 C624 0.930 . S
H600 C630 0.930 . S
O601 Co590 2.093 . S
O601 C593 1.224 . S
H602 C634 0.929 . S
H603 C636 0.930 . S
H604 C637 0.930 . S
H605 C635 0.929 . S
H606 C638 0.928 . S
O607 Co591 2.057 . S
O607 C595 1.232 . S
H608 C627 0.929 . S
H609 C628 0.929 . S
H610 C640 0.931 . S
H611 C632 0.929 . S
H612 C641 0.930 . S
H613 C633 0.931 . S
O614 Co590 2.097 . S
O614 C642 1.214 . S
H615 C643 0.929 . S
H616 C644 0.929 . S
H617 C645 0.930 . S
H618 C646 0.929 . S
H619 C648 0.930 . S
H620 C625 0.930 . S
H621 C629 0.930 . S
O622 Co591 2.037 . S
O622 C642 1.234 . S
C623 O597 1.269 . S
C623 O598 1.257 . S
C624 H599 0.930 . S
C624 C627 1.388 . S
C624 C629 1.418 . S
C625 H620 0.930 . S
C625 C628 1.404 . S
C625 C629 1.353 . S
N626 Co591 2.145 . S
N626 C627 1.397 . S
N626 C628 1.334 . S
C627 H608 0.929 . S
C627 C624 1.388 . S
C627 N626 1.397 . S
C628 H609 0.929 . S
C628 C625 1.404 . S
C628 N626 1.334 . S
C629 H621 0.930 . S
C629 C624 1.418 . S
C629 C625 1.353 . S
C630 H600 0.930 . S
C630 N631 1.330 . S
C630 C632 1.446 . S
N631 Co590 2.151 . S
N631 C630 1.330 . S
N631 C635 1.418 . S
C632 H611 0.929 . S
C632 C630 1.446 . S
C632 C633 1.332 . S
C633 H613 0.931 . S
C633 C632 1.332 . S
C633 C634 1.267 . S
C634 H602 0.929 . S
C634 C633 1.267 . S
C634 C635 1.251 . S
C635 H605 0.929 . S
C635 N631 1.418 . S
C635 C634 1.251 . S
C636 H603 0.930 . S
C636 C638 1.406 . S
C636 C641 1.261 . S
C637 H604 0.930 . S
C637 N639 1.325 . S
C637 C640 1.357 . S
C638 H606 0.928 . S
C638 C636 1.406 . S
C638 N639 1.261 . S
N639 Co590 2.214 . S
N639 C637 1.325 . S
N639 C638 1.261 . S
C640 H610 0.931 . S
C640 C637 1.357 . S
C640 C641 1.312 . S
C641 H612 0.930 . S
C641 C636 1.261 . S
C641 C640 1.312 . S
C642 O614 1.214 . S
C642 O622 1.234 . S
C643 H615 0.929 . S
C643 C646 1.391 . S
C643 C648 1.391 . S
C644 H616 0.929 . S
C644 C645 1.390 . S
C644 N647 1.391 . S
C645 H617 0.930 . S
C645 C644 1.390 . S
C645 C646 1.392 . S
C646 H618 0.929 . S
C646 C643 1.391 . S
C646 C645 1.392 . S
N647 Co591 2.257 . S
N647 C644 1.391 . S
N647 C648 1.388 . S
C648 H619 0.930 . S
C648 C643 1.391 . S
C648 N647 1.388 . S
Co649 O651 2.143 . S
Co649 O657 2.074 . S
Co649 O660 2.098 . S
Co649 O673 2.097 . S
Co649 N690 2.151 . S
Co649 N698 2.214 1_556 S
Co650 O651 2.160 . S
Co650 O656 2.058 . S
Co650 O666 2.057 . S
Co650 O681 2.037 . S
Co650 N685 2.145 . S
Co650 N706 2.257 . S
O651 Co649 2.143 . S
O651 Co650 2.160 . S
C652 O653 1.278 . S
C652 O660 1.237 . S
O653 C652 1.278 . S
C654 O655 1.245 . S
C654 O666 1.232 . S
O655 C654 1.245 . S
O656 Co650 2.058 . S
O656 C682 1.269 . S
O657 Co649 2.074 . S
O657 C682 1.257 . S
H658 C683 0.930 . S
H659 C689 0.930 . S
O660 Co649 2.098 . S
O660 C652 1.237 . S
H661 C693 0.929 . S
H662 C695 0.930 . S
H663 C696 0.930 . S
H664 C694 0.929 . S
H665 C697 0.928 . S
O666 Co650 2.057 . S
O666 C654 1.232 . S
H667 C686 0.929 . S
H668 C687 0.929 . S
H669 C699 0.931 . S
H670 C691 0.929 . S
H671 C700 0.930 . S
H672 C692 0.933 . S
O673 Co649 2.097 . S
O673 C701 1.214 . S
H674 C702 0.929 . S
H675 C703 0.929 . S
H676 C704 0.930 . S
H677 C705 0.929 . S
H678 C707 0.930 . S
H679 C684 0.930 . S
H680 C688 0.930 . S
O681 Co650 2.037 . S
O681 C701 1.234 . S
C682 O656 1.269 . S
C682 O657 1.257 . S
C683 H658 0.930 . S
C683 C686 1.388 . S
C683 C688 1.418 . S
C684 H679 0.930 . S
C684 C687 1.404 . S
C684 C688 1.353 . S
N685 Co650 2.145 . S
N685 C686 1.397 . S
N685 C687 1.334 . S
C686 H667 0.929 . S
C686 C683 1.388 . S
C686 N685 1.397 . S
C687 H668 0.929 . S
C687 C684 1.404 . S
C687 N685 1.334 . S
C688 H680 0.930 . S
C688 C683 1.418 . S
C688 C684 1.353 . S
C689 H659 0.930 . S
C689 N690 1.330 . S
C689 C691 1.446 . S
N690 Co649 2.151 . S
N690 C689 1.330 . S
N690 C694 1.418 1_556 S
C691 H670 0.929 . S
C691 C689 1.446 . S
C691 C692 1.326 1_556 S
C692 H672 0.933 . S
C692 C691 1.326 1_554 S
C692 C693 1.270 . S
C693 H661 0.929 . S
C693 C692 1.270 . S
C693 C694 1.251 . S
C694 H664 0.929 . S
C694 N690 1.418 1_554 S
C694 C693 1.251 . S
C695 H662 0.930 . S
C695 C697 1.406 . S
C695 C700 1.261 . S
C696 H663 0.930 . S
C696 N698 1.325 . S
C696 C699 1.357 . S
C697 H665 0.928 . S
C697 C695 1.406 . S
C697 N698 1.261 . S
N698 Co649 2.214 1_554 S
N698 C696 1.325 . S
N698 C697 1.261 . S
C699 H669 0.931 . S
C699 C696 1.357 . S
C699 C700 1.312 . S
C700 H671 0.930 . S
C700 C695 1.261 . S
C700 C699 1.312 . S
C701 O673 1.214 . S
C701 O681 1.234 . S
C702 H674 0.929 . S
C702 C705 1.391 . S
C702 C707 1.391 . S
C703 H675 0.929 . S
C703 C704 1.390 . S
C703 N706 1.391 . S
C704 H676 0.930 . S
C704 C703 1.390 . S
C704 C705 1.392 . S
C705 H677 0.929 . S
C705 C702 1.391 . S
C705 C704 1.392 . S
N706 Co650 2.257 . S
N706 C703 1.391 . S
N706 C707 1.388 . S
C707 H678 0.930 . S
C707 C702 1.391 . S
C707 N706 1.388 . S
H708 C714 0.930 . S
H709 C717 0.930 . S
H710 C718 0.930 . S
H711 C719 0.930 . S
H712 C722 0.930 . S
H713 C723 0.930 . S
C714 H708 0.930 . S
C714 C715 1.355 . S
C714 C716 1.415 . S
C715 C714 1.355 . S
C715 C717 1.419 . S
C716 C714 1.415 . S
C716 C721 1.425 . S
C716 C723 1.409 . S
C717 H709 0.930 . S
C717 C715 1.419 . S
C717 C718 1.362 . S
C718 H710 0.930 . S
C718 C717 1.362 . S
C718 C721 1.409 . S
C719 H711 0.930 . S
C719 C720 1.355 . S
C719 C721 1.415 . S
C720 C719 1.355 . S
C720 C722 1.419 . S
C721 C716 1.425 . S
C721 C718 1.409 . S
C721 C719 1.415 . S
C722 H712 0.930 . S
C722 C720 1.419 . S
C722 C723 1.362 . S
C723 H713 0.930 . S
C723 C716 1.409 . S
C723 C722 1.362 . S
H724 C730 0.930 . S
H725 C733 0.930 . S
H726 C734 0.930 . S
H727 C735 0.930 . S
H728 C738 0.930 . S
H729 C739 0.930 . S
C730 H724 0.930 . S
C730 C731 1.355 . S
C730 C732 1.415 . S
C731 C730 1.355 . S
C731 C733 1.419 . S
C732 C730 1.415 . S
C732 C737 1.425 . S
C732 C739 1.409 . S
C733 H725 0.930 . S
C733 C731 1.419 . S
C733 C734 1.362 . S
C734 H726 0.930 . S
C734 C733 1.362 . S
C734 C737 1.409 . S
C735 H727 0.930 . S
C735 C736 1.355 . S
C735 C737 1.415 . S
C736 C735 1.355 . S
C736 C738 1.419 . S
C737 C732 1.425 . S
C737 C734 1.409 . S
C737 C735 1.415 . S
C738 H728 0.930 . S
C738 C736 1.419 . S
C738 C739 1.362 . S
C739 H729 0.930 . S
C739 C732 1.409 . S
C739 C738 1.362 . S
H740 C746 0.930 . S
H741 C749 0.930 . S
H742 C750 0.930 . S
H743 C751 0.930 . S
H744 C754 0.930 . S
H745 C755 0.930 . S
C746 H740 0.930 . S
C746 C747 1.355 . S
C746 C748 1.415 . S
C747 C746 1.355 . S
C747 C749 1.419 . S
C748 C746 1.415 . S
C748 C753 1.425 . S
C748 C755 1.409 . S
C749 H741 0.930 . S
C749 C747 1.419 . S
C749 C750 1.362 . S
C750 H742 0.930 . S
C750 C749 1.362 . S
C750 C753 1.409 . S
C751 H743 0.930 . S
C751 C752 1.355 . S
C751 C753 1.415 . S
C752 C751 1.355 . S
C752 C754 1.419 . S
C753 C748 1.425 . S
C753 C750 1.409 . S
C753 C751 1.415 . S
C754 H744 0.930 . S
C754 C752 1.419 . S
C754 C755 1.362 . S
C755 H745 0.930 . S
C755 C748 1.409 . S
C755 C754 1.362 . S
H756 C762 0.930 . S
H757 C765 0.930 . S
H758 C766 0.930 . S
H759 C767 0.930 . S
H760 C770 0.930 . S
H761 C771 0.930 . S
C762 H756 0.930 . S
C762 C763 1.355 . S
C762 C764 1.415 . S
C763 C762 1.355 . S
C763 C765 1.419 . S
C764 C762 1.415 . S
C764 C769 1.425 . S
C764 C771 1.409 . S
C765 H757 0.930 . S
C765 C763 1.419 . S
C765 C766 1.362 . S
C766 H758 0.930 . S
C766 C765 1.362 . S
C766 C769 1.409 . S
C767 H759 0.930 . S
C767 C768 1.355 . S
C767 C769 1.415 . S
C768 C767 1.355 . S
C768 C770 1.419 . S
C769 C764 1.425 . S
C769 C766 1.409 . S
C769 C767 1.415 . S
C770 H760 0.930 . S
C770 C768 1.419 . S
C770 C771 1.362 . S
C771 H761 0.930 . S
C771 C764 1.409 . S
C771 C770 1.362 . S
H772 C778 0.930 . S
H773 C781 0.930 . S
H774 C782 0.930 . S
H775 C783 0.930 . S
H776 C786 0.930 . S
H777 C787 0.930 . S
C778 H772 0.930 . S
C778 C779 1.355 . S
C778 C780 1.415 . S
C779 C778 1.355 . S
C779 C781 1.419 . S
C780 C778 1.415 . S
C780 C785 1.425 . S
C780 C787 1.409 . S
C781 H773 0.930 . S
C781 C779 1.419 . S
C781 C782 1.362 . S
C782 H774 0.930 . S
C782 C781 1.362 . S
C782 C785 1.409 . S
C783 H775 0.930 . S
C783 C784 1.355 . S
C783 C785 1.415 . S
C784 C783 1.355 . S
C784 C786 1.419 . S
C785 C780 1.425 . S
C785 C782 1.409 . S
C785 C783 1.415 . S
C786 H776 0.930 . S
C786 C784 1.419 . S
C786 C787 1.362 . S
C787 H777 0.930 . S
C787 C780 1.409 . S
C787 C786 1.362 . S
H788 C794 0.930 . S
H789 C797 0.930 . S
H790 C798 0.930 . S
H791 C799 0.930 . S
H792 C802 0.930 . S
H793 C803 0.930 . S
C794 H788 0.930 . S
C794 C795 1.355 . S
C794 C796 1.415 . S
C795 C794 1.355 . S
C795 C797 1.419 . S
C796 C794 1.415 . S
C796 C801 1.425 . S
C796 C803 1.409 . S
C797 H789 0.930 . S
C797 C795 1.419 . S
C797 C798 1.362 . S
C798 H790 0.930 . S
C798 C797 1.362 . S
C798 C801 1.409 . S
C799 H791 0.930 . S
C799 C800 1.355 . S
C799 C801 1.415 . S
C800 C799 1.355 . S
C800 C802 1.419 . S
C801 C796 1.425 . S
C801 C798 1.409 . S
C801 C799 1.415 . S
C802 H792 0.930 . S
C802 C800 1.419 . S
C802 C803 1.362 . S
C803 H793 0.930 . S
C803 C796 1.409 . S
C803 C802 1.362 . S
H804 C810 0.930 . S
H805 C813 0.930 . S
H806 C814 0.930 . S
H807 C815 0.930 . S
H808 C818 0.930 . S
H809 C819 0.930 . S
C810 H804 0.930 . S
C810 C811 1.355 . S
C810 C812 1.415 . S
C811 C810 1.355 . S
C811 C813 1.419 1_554 S
C812 C810 1.415 . S
C812 C817 1.425 1_544 S
C812 C819 1.409 . S
C813 H805 0.930 . S
C813 C811 1.419 1_556 S
C813 C814 1.362 1_545 S
C814 H806 0.930 . S
C814 C813 1.362 1_565 S
C814 C817 1.409 . S
C815 H807 0.930 . S
C815 C816 1.355 . S
C815 C817 1.415 . S
C816 C815 1.355 . S
C816 C818 1.419 1_566 S
C817 C812 1.425 1_566 S
C817 C814 1.409 . S
C817 C815 1.415 . S
C818 H808 0.930 . S
C818 C816 1.419 1_544 S
C818 C819 1.362 . S
C819 H809 0.930 . S
C819 C812 1.409 . S
C819 C818 1.362 . S
H820 C826 0.930 . S
H821 C829 0.930 . S
H822 C830 0.930 . S
H823 C831 0.930 . S
H824 C834 0.930 . S
H825 C835 0.930 . S
C826 H820 0.930 . S
C826 C827 1.355 . S
C826 C828 1.415 . S
C827 C826 1.355 . S
C827 C829 1.419 . S
C828 C826 1.415 . S
C828 C833 1.425 . S
C828 C835 1.409 . S
C829 H821 0.930 . S
C829 C827 1.419 . S
C829 C830 1.362 . S
C830 H822 0.930 . S
C830 C829 1.362 . S
C830 C833 1.409 . S
C831 H823 0.930 . S
C831 C832 1.355 . S
C831 C833 1.415 . S
C832 C831 1.355 . S
C832 C834 1.419 . S
C833 C828 1.425 . S
C833 C830 1.409 . S
C833 C831 1.415 . S
C834 H824 0.930 . S
C834 C832 1.419 . S
C834 C835 1.362 . S
C835 H825 0.930 . S
C835 C828 1.409 . S
C835 C834 1.362 . S
H836 C842 0.930 . S
H837 C845 0.930 . S
H838 C846 0.930 . S
H839 C847 0.930 . S
H840 C850 0.930 . S
H841 C851 0.930 . S
C842 H836 0.930 . S
C842 C843 1.355 . S
C842 C844 1.415 . S
C843 C842 1.355 . S
C843 C845 1.419 1_556 S
C844 C842 1.415 . S
C844 C849 1.425 1_456 S
C844 C851 1.409 1_455 S
C845 H837 0.930 . S
C845 C843 1.419 1_554 S
C845 C846 1.362 . S
C846 H838 0.930 . S
C846 C845 1.362 . S
C846 C849 1.409 1_455 S
C847 H839 0.930 . S
C847 C848 1.355 . S
C847 C849 1.415 . S
C848 C847 1.355 . S
C848 C850 1.419 1_554 S
C849 C844 1.425 1_654 S
C849 C846 1.409 1_655 S
C849 C847 1.415 . S
C850 H840 0.930 . S
C850 C848 1.419 1_556 S
C850 C851 1.362 . S
C851 H841 0.930 . S
C851 C844 1.409 1_655 S
C851 C850 1.362 . S
H852 C858 0.930 1_565 S
H853 C861 0.930 . S
H854 C862 0.930 . S
H855 C863 0.930 . S
H856 C866 0.930 . S
H857 C867 0.930 . S
C858 H852 0.930 1_545 S
C858 C859 1.355 . S
C858 C860 1.415 1_545 S
C859 C858 1.355 . S
C859 C861 1.419 . S
C860 C858 1.415 1_565 S
C860 C865 1.420 1_565 S
C860 C867 1.409 . S
C861 H853 0.930 . S
C861 C859 1.419 . S
C861 C862 1.362 . S
C862 H854 0.930 . S
C862 C861 1.362 . S
C862 C865 1.415 . S
C863 H855 0.930 . S
C863 C864 1.355 . S
C863 C865 1.414 1_565 S
C864 C863 1.355 . S
C864 C866 1.419 . S
C865 C860 1.420 1_545 S
C865 C862 1.415 . S
C865 C863 1.414 1_545 S
C866 H856 0.930 . S
C866 C864 1.419 . S
C866 C867 1.362 . S
C867 H857 0.930 . S
C867 C860 1.409 . S
C867 C866 1.362 . S
H868 C874 0.930 . S
H869 C877 0.930 . S
H870 C878 0.930 . S
H871 C879 0.930 . S
H872 C882 0.930 . S
H873 C883 0.930 . S
C874 H868 0.930 . S
C874 C875 1.355 . S
C874 C876 1.415 . S
C875 C874 1.355 . S
C875 C877 1.419 1_556 S
C876 C874 1.415 . S
C876 C881 1.425 1_556 S
C876 C883 1.409 . S
C877 H869 0.930 . S
C877 C875 1.419 1_554 S
C877 C878 1.362 . S
C878 H870 0.930 . S
C878 C877 1.362 . S
C878 C881 1.409 . S
C879 H871 0.930 . S
C879 C880 1.355 . S
C879 C881 1.415 . S
C880 C879 1.355 . S
C880 C882 1.419 1_554 S
C881 C876 1.425 1_554 S
C881 C878 1.409 . S
C881 C879 1.415 . S
C882 H872 0.930 . S
C882 C880 1.419 1_556 S
C882 C883 1.362 . S
C883 H873 0.930 . S
C883 C876 1.409 . S
C883 C882 1.362 . S
H884 C890 0.930 . S
H885 C893 0.930 . S
H886 C894 0.930 . S
H887 C895 0.930 . S
H888 C898 0.930 . S
H889 C899 0.930 . S
C890 H884 0.930 . S
C890 C891 1.355 . S
C890 C892 1.415 . S
C891 C890 1.355 . S
C891 C893 1.419 . S
C892 C890 1.415 . S
C892 C897 1.425 1_655 S
C892 C899 1.409 1_655 S
C893 H885 0.930 . S
C893 C891 1.419 . S
C893 C894 1.362 . S
C894 H886 0.930 . S
C894 C893 1.362 . S
C894 C897 1.409 1_655 S
C895 H887 0.930 . S
C895 C896 1.355 . S
C895 C897 1.415 . S
C896 C895 1.355 . S
C896 C898 1.419 . S
C897 C892 1.425 1_455 S
C897 C894 1.409 1_455 S
C897 C895 1.415 . S
C898 H888 0.930 . S
C898 C896 1.419 . S
C898 C899 1.362 . S
C899 H889 0.930 . S
C899 C892 1.409 1_455 S
C899 C898 1.362 . S
H900 C906 0.930 . S
H901 C909 0.930 . S
H902 C910 0.930 . S
H903 C911 0.930 . S
H904 C914 0.930 . S
H905 C915 0.930 . S
C906 H900 0.930 . S
C906 C907 1.355 . S
C906 C908 1.415 . S
C907 C906 1.355 . S
C907 C909 1.419 . S
C908 C906 1.415 . S
C908 C913 1.425 . S
C908 C915 1.409 . S
C909 H901 0.930 . S
C909 C907 1.419 . S
C909 C910 1.362 . S
C910 H902 0.930 . S
C910 C909 1.362 . S
C910 C913 1.409 . S
C911 H903 0.930 . S
C911 C912 1.355 . S
C911 C913 1.415 . S
C912 C911 1.355 . S
C912 C914 1.419 . S
C913 C908 1.425 . S
C913 C910 1.409 . S
C913 C911 1.415 . S
C914 H904 0.930 . S
C914 C912 1.419 . S
C914 C915 1.362 . S
C915 H905 0.930 . S
C915 C908 1.409 . S
C915 C914 1.362 . S
H916 C922 0.930 . S
H917 C925 0.930 . S
H918 C926 0.930 . S
H919 C927 0.930 . S
H920 C930 0.930 . S
H921 C931 0.930 . S
C922 H916 0.930 . S
C922 C923 1.355 . S
C922 C924 1.415 . S
C923 C922 1.355 . S
C923 C925 1.419 . S
C924 C922 1.415 . S
C924 C929 1.425 . S
C924 C931 1.409 . S
C925 H917 0.930 . S
C925 C923 1.419 . S
C925 C926 1.362 . S
C926 H918 0.930 . S
C926 C925 1.362 . S
C926 C929 1.409 . S
C927 H919 0.930 . S
C927 C928 1.355 . S
C927 C929 1.415 . S
C928 C927 1.355 . S
C928 C930 1.419 . S
C929 C924 1.425 . S
C929 C926 1.409 . S
C929 C927 1.415 . S
C930 H920 0.930 . S
C930 C928 1.419 . S
C930 C931 1.362 . S
C931 H921 0.930 . S
C931 C924 1.409 . S
C931 C930 1.362 . S
H932 C938 0.930 1_556 S
H933 C941 0.930 . S
H934 C942 0.930 . S
H935 C943 0.930 . S
H936 C946 0.930 . S
H937 C947 0.930 1_556 S
C938 H932 0.930 1_554 S
C938 C939 1.355 . S
C938 C940 1.415 . S
C939 C938 1.355 . S
C939 C941 1.419 . S
C940 C938 1.415 . S
C940 C945 1.425 . S
C940 C947 1.409 . S
C941 H933 0.930 . S
C941 C939 1.419 . S
C941 C942 1.362 . S
C942 H934 0.930 . S
C942 C941 1.362 . S
C942 C945 1.409 . S
C943 H935 0.930 . S
C943 C944 1.355 . S
C943 C945 1.415 . S
C944 C943 1.355 . S
C944 C946 1.419 . S
C945 C940 1.425 . S
C945 C942 1.409 . S
C945 C943 1.415 . S
C946 H936 0.930 . S
C946 C944 1.419 . S
C946 C947 1.362 . S
C947 H937 0.930 1_554 S
C947 C940 1.409 . S
C947 C946 1.362 . S
H948 C954 0.930 . S
H949 C957 0.930 . S
H950 C958 0.930 . S
H951 C959 0.930 . S
H952 C962 0.930 . S
H953 C963 0.930 . S
C954 H948 0.930 . S
C954 C955 1.355 . S
C954 C956 1.415 . S
C955 C954 1.355 . S
C955 C957 1.419 . S
C956 C954 1.415 . S
C956 C961 1.425 . S
C956 C963 1.409 . S
C957 H949 0.930 . S
C957 C955 1.419 . S
C957 C958 1.362 . S
C958 H950 0.930 . S
C958 C957 1.362 . S
C958 C961 1.409 . S
C959 H951 0.930 . S
C959 C960 1.355 . S
C959 C961 1.415 . S
C960 C959 1.355 . S
C960 C962 1.419 . S
C961 C956 1.425 . S
C961 C958 1.409 . S
C961 C959 1.415 . S
C962 H952 0.930 . S
C962 C960 1.419 . S
C962 C963 1.362 . S
C963 H953 0.930 . S
C963 C956 1.409 . S
C963 C962 1.362 . S
H964 C970 0.930 1_556 S
H965 C973 0.930 . S
H966 C974 0.930 . S
H967 C975 0.930 . S
H968 C978 0.930 . S
H969 C979 0.930 1_556 S
C970 H964 0.930 1_554 S
C970 C971 1.355 . S
C970 C972 1.415 . S
C971 C970 1.355 . S
C971 C973 1.419 . S
C972 C970 1.415 . S
C972 C977 1.425 . S
C972 C979 1.409 . S
C973 H965 0.930 . S
C973 C971 1.419 . S
C973 C974 1.362 . S
C974 H966 0.930 . S
C974 C973 1.362 . S
C974 C977 1.409 . S
C975 H967 0.930 . S
C975 C976 1.355 . S
C975 C977 1.415 . S
C976 C975 1.355 . S
C976 C978 1.419 . S
C977 C972 1.425 . S
C977 C974 1.409 . S
C977 C975 1.415 . S
C978 H968 0.930 . S
C978 C976 1.419 . S
C978 C979 1.362 . S
C979 H969 0.930 1_554 S
C979 C972 1.409 . S
C979 C978 1.362 . S
H980 C986 0.930 . S
H981 C989 0.930 . S
H982 C990 0.930 . S
H983 C991 0.930 . S
H984 C994 0.930 . S
H985 C995 0.930 . S
C986 H980 0.930 . S
C986 C987 1.355 . S
C986 C988 1.415 . S
C987 C986 1.355 . S
C987 C989 1.419 . S
C988 C986 1.415 . S
C988 C993 1.425 . S
C988 C995 1.409 . S
C989 H981 0.930 . S
C989 C987 1.419 . S
C989 C990 1.362 . S
C990 H982 0.930 . S
C990 C989 1.362 . S
C990 C993 1.409 . S
C991 H983 0.930 . S
C991 C992 1.355 . S
C991 C993 1.415 . S
C992 C991 1.355 . S
C992 C994 1.419 . S
C993 C988 1.425 . S
C993 C990 1.409 . S
C993 C991 1.415 . S
C994 H984 0.930 . S
C994 C992 1.419 . S
C994 C995 1.362 . S
C995 H985 0.930 . S
C995 C988 1.409 . S
C995 C994 1.362 . S
H996 C1002 0.930 . S
H997 C1005 0.930 . S
H998 C1006 0.930 . S
H999 C1007 0.930 . S
H1000 C1010 0.930 . S
H1001 C1011 0.930 . S
C1002 H996 0.930 . S
C1002 C1003 1.355 . S
C1002 C1004 1.415 . S
C1003 C1002 1.355 . S
C1003 C1005 1.419 . S
C1004 C1002 1.415 . S
C1004 C1009 1.425 . S
C1004 C1011 1.409 . S
C1005 H997 0.930 . S
C1005 C1003 1.419 . S
C1005 C1006 1.362 . S
C1006 H998 0.930 . S
C1006 C1005 1.362 . S
C1006 C1009 1.409 . S
C1007 H999 0.930 . S
C1007 C1008 1.355 . S
C1007 C1009 1.415 . S
C1008 C1007 1.355 . S
C1008 C1010 1.419 . S
C1009 C1004 1.425 . S
C1009 C1006 1.409 . S
C1009 C1007 1.415 . S
C1010 H1000 0.930 . S
C1010 C1008 1.419 . S
C1010 C1011 1.362 . S
C1011 H1001 0.930 . S
C1011 C1004 1.409 . S
C1011 C1010 1.362 . S
H1012 C1018 0.930 . S
H1013 C1021 0.930 . S
H1014 C1022 0.930 . S
H1015 C1023 0.930 . S
H1016 C1026 0.930 . S
H1017 C1027 0.930 . S
C1018 H1012 0.930 . S
C1018 C1019 1.355 . S
C1018 C1020 1.415 . S
C1019 C1018 1.355 . S
C1019 C1021 1.419 1_556 S
C1020 C1018 1.415 . S
C1020 C1025 1.425 . S
C1020 C1027 1.409 . S
C1021 H1013 0.930 . S
C1021 C1019 1.419 1_554 S
C1021 C1022 1.362 . S
C1022 H1014 0.930 . S
C1022 C1021 1.362 . S
C1022 C1025 1.409 1_554 S
C1023 H1015 0.930 . S
C1023 C1024 1.355 . S
C1023 C1025 1.415 . S
C1024 C1023 1.355 . S
C1024 C1026 1.419 . S
C1025 C1020 1.425 . S
C1025 C1022 1.409 1_556 S
C1025 C1023 1.415 . S
C1026 H1016 0.930 . S
C1026 C1024 1.419 . S
C1026 C1027 1.362 . S
C1027 H1017 0.930 . S
C1027 C1020 1.409 . S
C1027 C1026 1.362 . S
H1028 C1034 0.930 . S
H1029 C1037 0.930 . S
H1030 C1038 0.930 . S
H1031 C1039 0.930 . S
H1032 C1042 0.930 . S
H1033 C1043 0.930 . S
C1034 H1028 0.930 . S
C1034 C1035 1.355 . S
C1034 C1036 1.415 . S
C1035 C1034 1.355 . S
C1035 C1037 1.419 . S
C1036 C1034 1.415 . S
C1036 C1041 1.425 . S
C1036 C1043 1.409 . S
C1037 H1029 0.930 . S
C1037 C1035 1.419 . S
C1037 C1038 1.362 . S
C1038 H1030 0.930 . S
C1038 C1037 1.362 . S
C1038 C1041 1.409 . S
C1039 H1031 0.930 . S
C1039 C1040 1.355 . S
C1039 C1041 1.415 . S
C1040 C1039 1.355 . S
C1040 C1042 1.419 . S
C1041 C1036 1.425 . S
C1041 C1038 1.409 . S
C1041 C1039 1.415 . S
C1042 H1032 0.930 . S
C1042 C1040 1.419 . S
C1042 C1043 1.362 . S
C1043 H1033 0.930 . S
C1043 C1036 1.409 . S
C1043 C1042 1.362 . S
H1044 C1050 0.930 . S
H1045 C1053 0.930 1_554 S
H1046 C1054 0.930 . S
H1047 C1055 0.930 . S
H1048 C1058 0.930 . S
H1049 C1059 0.930 . S
C1050 H1044 0.930 . S
C1050 C1051 1.355 . S
C1050 C1052 1.415 . S
C1051 C1050 1.355 . S
C1051 C1053 1.419 . S
C1052 C1050 1.415 . S
C1052 C1057 1.425 . S
C1052 C1059 1.409 . S
C1053 H1045 0.930 1_556 S
C1053 C1051 1.419 . S
C1053 C1054 1.362 . S
C1054 H1046 0.930 . S
C1054 C1053 1.362 . S
C1054 C1057 1.409 . S
C1055 H1047 0.930 . S
C1055 C1056 1.355 . S
C1055 C1057 1.415 . S
C1056 C1055 1.355 . S
C1056 C1058 1.419 . S
C1057 C1052 1.425 . S
C1057 C1054 1.409 . S
C1057 C1055 1.415 . S
C1058 H1048 0.930 . S
C1058 C1056 1.419 . S
C1058 C1059 1.362 . S
C1059 H1049 0.930 . S
C1059 C1052 1.409 . S
C1059 C1058 1.362 . S
H1060 C1066 0.930 . S
H1061 C1069 0.930 . S
H1062 C1070 0.930 . S
H1063 C1071 0.930 . S
H1064 C1074 0.930 . S
H1065 C1075 0.930 . S
C1066 H1060 0.930 . S
C1066 C1067 1.355 . S
C1066 C1068 1.415 . S
C1067 C1066 1.355 . S
C1067 C1069 1.419 . S
C1068 C1066 1.415 . S
C1068 C1073 1.425 . S
C1068 C1075 1.409 . S
C1069 H1061 0.930 . S
C1069 C1067 1.419 . S
C1069 C1070 1.362 . S
C1070 H1062 0.930 . S
C1070 C1069 1.362 . S
C1070 C1073 1.409 . S
C1071 H1063 0.930 . S
C1071 C1072 1.355 . S
C1071 C1073 1.415 . S
C1072 C1071 1.355 . S
C1072 C1074 1.419 . S
C1073 C1068 1.425 . S
C1073 C1070 1.409 . S
C1073 C1071 1.415 . S
C1074 H1064 0.930 . S
C1074 C1072 1.419 . S
C1074 C1075 1.362 . S
C1075 H1065 0.930 . S
C1075 C1068 1.409 . S
C1075 C1074 1.362 . S
H1076 C1082 0.930 . S
H1077 C1085 0.930 . S
H1078 C1086 0.930 . S
H1079 C1087 0.930 . S
H1080 C1090 0.930 . S
H1081 C1091 0.930 . S
C1082 H1076 0.930 . S
C1082 C1083 1.355 . S
C1082 C1084 1.415 . S
C1083 C1082 1.355 . S
C1083 C1085 1.419 1_556 S
C1084 C1082 1.415 . S
C1084 C1089 1.425 . S
C1084 C1091 1.409 . S
C1085 H1077 0.930 . S
C1085 C1083 1.419 1_554 S
C1085 C1086 1.362 . S
C1086 H1078 0.930 . S
C1086 C1085 1.362 . S
C1086 C1089 1.409 1_554 S
C1087 H1079 0.930 . S
C1087 C1088 1.355 . S
C1087 C1089 1.415 . S
C1088 C1087 1.355 . S
C1088 C1090 1.419 . S
C1089 C1084 1.425 . S
C1089 C1086 1.409 1_556 S
C1089 C1087 1.415 . S
C1090 H1080 0.930 . S
C1090 C1088 1.419 . S
C1090 C1091 1.362 . S
C1091 H1081 0.930 . S
C1091 C1084 1.409 . S
C1091 C1090 1.362 . S
C715 C593 1.671 . S
C720 C3 1.694 . S
C731 C62 1.702 . S
C736 C654 1.717 . S
C747 C123 1.688 . S
C752 C357 1.695 . S
C763 C416 1.719 . S
C768 C180 1.684 . S
C779 C477 1.716 . S
C784 C239 1.672 . S
C795 C300 1.691 . S
C800 C534 1.720 . S
C811 C5 1.424 . S
C816 C418 1.390 . S
C827 C64 1.318 . S
C832 C475 1.362 . S
C843 C536 1.137 . S
C848 C121 1.146 . S
C859 C595 1.294 . S
C864 C182 1.357 . S
C875 C652 1.424 . S
C880 C241 1.395 . S
C891 C359 1.151 . S
C896 C298 1.142 . S
C907 C33 1.455 . S
C912 C288 1.532 . S
C923 C92 1.196 . S
C928 C328 1.471 . S
C939 C170 0.983 . S
C944 C52 1.117 . S
C955 C210 1.392 . S
C960 C111 1.508 . S
C971 C269 1.197 . S
C976 C151 1.472 . S
C987 C347 1.037 . S
C992 C229 1.128 . S
C1003 C387 0.972 . S
C1008 C505 1.079 . S
C1019 C446 1.319 . S
C1024 C583 1.487 . S
C1035 C642 1.540 . S
C1040 C524 1.481 . S
C1051 C564 1.057 . S
C1056 C682 1.126 . S
C1067 C623 1.189 . S
C1072 C406 1.462 . S
C1083 C701 1.484 . S
C1088 C465 1.540 . S
