# Generated by pormake.
# Topology ure, (4)-cn, num edge types: 1
# Building blocks:
#     Node 0, Type 0, BuildingBlock: QUQFOY_clean_sbu_3, # of connection points: 4
#     Node 1, Type 0, BuildingBlock: QUQFOY_clean_sbu_3, # of connection points: 4
#     Node 2, Type 0, BuildingBlock: QUQFOY_clean_sbu_3, # of connection points: 4
#     Node 3, Type 0, BuildingBlock: QUQFOY_clean_sbu_3, # of connection points: 4
#     Node 4, Type 0, BuildingBlock: QUQFOY_clean_sbu_3, # of connection points: 4
#     Node 5, Type 0, BuildingBlock: QUQFOY_clean_sbu_3, # of connection points: 4
#     Node 6, Type 0, BuildingBlock: QUQFOY_clean_sbu_3, # of connection points: 4
#     Node 7, Type 0, BuildingBlock: QUQFOY_clean_sbu_3, # of connection points: 4
#     Node 8, Type 0, BuildingBlock: QUQFOY_clean_sbu_3, # of connection points: 4
#     Node 9, Type 0, BuildingBlock: QUQFOY_clean_sbu_3, # of connection points: 4
#     Node 10, Type 0, BuildingBlock: QUQFOY_clean_sbu_3, # of connection points: 4
#     Node 11, Type 0, BuildingBlock: QUQFOY_clean_sbu_3, # of connection points: 4
#     Node 12, Type 0, BuildingBlock: QUQFOY_clean_sbu_3, # of connection points: 4
#     Node 13, Type 0, BuildingBlock: QUQFOY_clean_sbu_3, # of connection points: 4
#     Node 14, Type 0, BuildingBlock: QUQFOY_clean_sbu_3, # of connection points: 4
#     Node 15, Type 0, BuildingBlock: QUQFOY_clean_sbu_3, # of connection points: 4
#     Edge 16, Type (0, 0), BuildingBlock: CIFDUS_clean_linker_0, # of connection points: 2
#     Edge 17, Type (0, 0), BuildingBlock: CIFDUS_clean_linker_0, # of connection points: 2
#     Edge 18, Type (0, 0), BuildingBlock: CIFDUS_clean_linker_0, # of connection points: 2
#     Edge 19, Type (0, 0), BuildingBlock: CIFDUS_clean_linker_0, # of connection points: 2
#     Edge 20, Type (0, 0), BuildingBlock: CIFDUS_clean_linker_0, # of connection points: 2
#     Edge 21, Type (0, 0), BuildingBlock: CIFDUS_clean_linker_0, # of connection points: 2
#     Edge 22, Type (0, 0), BuildingBlock: CIFDUS_clean_linker_0, # of connection points: 2
#     Edge 23, Type (0, 0), BuildingBlock: CIFDUS_clean_linker_0, # of connection points: 2
#     Edge 24, Type (0, 0), BuildingBlock: CIFDUS_clean_linker_0, # of connection points: 2
#     Edge 25, Type (0, 0), BuildingBlock: CIFDUS_clean_linker_0, # of connection points: 2
#     Edge 26, Type (0, 0), BuildingBlock: CIFDUS_clean_linker_0, # of connection points: 2
#     Edge 27, Type (0, 0), BuildingBlock: CIFDUS_clean_linker_0, # of connection points: 2
#     Edge 28, Type (0, 0), BuildingBlock: CIFDUS_clean_linker_0, # of connection points: 2
#     Edge 29, Type (0, 0), BuildingBlock: CIFDUS_clean_linker_0, # of connection points: 2
#     Edge 30, Type (0, 0), BuildingBlock: CIFDUS_clean_linker_0, # of connection points: 2
#     Edge 31, Type (0, 0), BuildingBlock: CIFDUS_clean_linker_0, # of connection points: 2
#     Edge 32, Type (0, 0), BuildingBlock: CIFDUS_clean_linker_0, # of connection points: 2
#     Edge 33, Type (0, 0), BuildingBlock: CIFDUS_clean_linker_0, # of connection points: 2
#     Edge 34, Type (0, 0), BuildingBlock: CIFDUS_clean_linker_0, # of connection points: 2
#     Edge 35, Type (0, 0), BuildingBlock: CIFDUS_clean_linker_0, # of connection points: 2
#     Edge 36, Type (0, 0), BuildingBlock: CIFDUS_clean_linker_0, # of connection points: 2
#     Edge 37, Type (0, 0), BuildingBlock: CIFDUS_clean_linker_0, # of connection points: 2
#     Edge 38, Type (0, 0), BuildingBlock: CIFDUS_clean_linker_0, # of connection points: 2
#     Edge 39, Type (0, 0), BuildingBlock: CIFDUS_clean_linker_0, # of connection points: 2
#     Edge 40, Type (0, 0), BuildingBlock: CIFDUS_clean_linker_0, # of connection points: 2
#     Edge 41, Type (0, 0), BuildingBlock: CIFDUS_clean_linker_0, # of connection points: 2
#     Edge 42, Type (0, 0), BuildingBlock: CIFDUS_clean_linker_0, # of connection points: 2
#     Edge 43, Type (0, 0), BuildingBlock: CIFDUS_clean_linker_0, # of connection points: 2
#     Edge 44, Type (0, 0), BuildingBlock: CIFDUS_clean_linker_0, # of connection points: 2
#     Edge 45, Type (0, 0), BuildingBlock: CIFDUS_clean_linker_0, # of connection points: 2
#     Edge 46, Type (0, 0), BuildingBlock: CIFDUS_clean_linker_0, # of connection points: 2
#     Edge 47, Type (0, 0), BuildingBlock: CIFDUS_clean_linker_0, # of connection points: 2
# Relax obj value: 0.235
# Max RMSD: 0.173
# Mean RMSD: 0.173
data_MOF--net-ure--node1-QUQFOY_clean_sbu_3--edge1-CIFDUS_clean_linker_0
_symmetry_space_group_name_H-M    P1
_symmetry_Int_Tables_number       1
_symmetry_cell_setting            triclinic
loop_
_symmetry_equiv_pos_as_xyz
'x, y, z'
_cell_length_a     29.692317
_cell_length_b     28.198245
_cell_length_c     28.178636
_cell_angle_alpha  90.051533
_cell_angle_beta   90.25017
_cell_angle_gamma 90.291616
loop_
_atom_site_label
_atom_site_type_symbol
_atom_site_fract_x
_atom_site_fract_y
_atom_site_fract_z
_atom_type_partial_charge
C0 C 0.32699 0.30308 0.22558 0.0
O1 O 0.31612 0.31535 0.26737 0.0
Cd2 Cd 0.25929 0.28513 0.31823 0.0
O3 O 0.30368 0.27238 0.20262 0.0
Cd4 Cd 0.22853 0.2355 0.22207 0.0
C5 C 0.17619 0.33779 0.25886 0.0
O6 O 0.25556 0.20411 0.29541 0.0
O7 O 0.18433 0.19625 0.28709 0.0
O8 O 0.22659 0.16378 0.17265 0.0
C9 C 0.21934 0.18719 0.31135 0.0
O10 O 0.19421 0.3334 0.29962 0.0
C11 C 0.19507 0.17868 0.14603 0.0
O12 O 0.186 0.30913 0.22564 0.0
O13 O 0.18121 0.22049 0.15319 0.0
C14 C 0.86816 0.02833 0.49428 0.0
O15 O 0.86368 0.06715 0.51661 0.0
Cd16 Cd 0.91962 0.12504 0.53455 0.0
O17 O 0.90641 0.01482 0.47906 0.0
Cd18 Cd -0.01492 0.04591 0.48836 0.0
C19 C 0.97636 0.05234 0.60922 0.0
O20 O 0.96579 0.12516 0.46557 0.0
O21 O 0.03449 0.11725 0.4886 0.0
O22 O 0.01057 0.01265 0.41306 0.0
C23 C 0.00423 0.14373 0.47117 0.0
O24 O 0.95241 0.08928 0.6045 0.0
C25 C 0.03966 0.98559 0.43187 0.0
O26 O -0.00949 0.02949 0.5734 0.0
O27 O 0.04295 0.98628 0.47678 0.0
C28 C 0.11405 0.69849 0.74482 0.0
O29 O 0.11105 0.67053 0.77997 0.0
Cd30 Cd 0.16632 0.65835 0.84049 0.0
O31 O 0.15108 0.7193 0.73494 0.0
Cd32 Cd 0.22918 0.70775 0.76565 0.0
C33 C 0.23038 0.58639 0.77651 0.0
O34 O 0.20675 0.73137 0.84416 0.0
O35 O 0.27564 0.70892 0.83954 0.0
O36 O 0.26021 0.78256 0.7353 0.0
C37 C 0.2445 0.7269 0.86439 0.0
O38 O 0.21007 0.59078 0.81584 0.0
C39 C 0.28678 0.76299 0.70616 0.0
O40 O 0.23712 0.62217 0.74992 0.0
O41 O 0.28609 0.71807 0.70422 0.0
C42 C 0.59095 0.98179 0.02359 0.0
O43 O 0.59109 0.94444 0.04876 0.0
Cd44 Cd 0.53408 0.88533 0.05247 0.0
O45 O 0.55561 -0.00557 0.0009 0.0
Cd46 Cd 0.47608 0.96347 0.0013 0.0
C47 C 0.46717 0.94973 0.12152 0.0
O48 O 0.50392 0.88849 0.97414 0.0
O49 O 0.433 0.88827 0.98663 0.0
O50 O 0.46051 0.0149 0.93262 0.0
C51 C 0.46712 0.86633 0.9714 0.0
O52 O 0.48654 0.90988 0.11731 0.0
C53 C 0.41977 0.02225 0.94413 0.0
O54 O 0.46319 0.9772 0.08596 0.0
O55 O 0.40632 0.00375 0.98256 0.0
C56 C 0.32543 0.66722 0.26399 0.0
O57 O 0.32247 0.6429 0.22608 0.0
Cd58 Cd 0.2678 0.65088 0.16399 0.0
O59 O 0.29485 0.69686 0.27505 0.0
Cd60 Cd 0.21919 0.71624 0.24219 0.0
C61 C 0.18062 0.60301 0.22339 0.0
O62 O 0.25057 0.73281 0.1657 0.0
O63 O 0.17855 0.73843 0.16767 0.0
O64 O 0.21134 0.79573 0.27662 0.0
C65 C 0.21461 0.7427 0.14397 0.0
O66 O 0.20482 0.60119 0.18632 0.0
C67 C 0.18061 0.78345 0.30536 0.0
O68 O 0.18281 0.63856 0.25115 0.0
O69 O 0.16844 0.74031 0.30495 0.0
C70 C 0.61496 -0.00694 0.48708 0.0
O71 O 0.61186 0.02812 0.45899 0.0
Cd72 Cd 0.55199 0.08356 0.45258 0.0
O73 O 0.58161 0.97999 0.5125 0.0
Cd74 Cd 0.50055 0.00412 0.51291 0.0
C75 C 0.48331 0.01079 0.39248 0.0
O76 O 0.52213 0.08383 0.53049 0.0
O77 O 0.45089 0.07572 0.52104 0.0
O78 O 0.48287 0.97059 0.59128 0.0
C79 C 0.48377 0.1026 0.53182 0.0
O80 O 0.50216 0.05135 0.39275 0.0
C81 C 0.45284 0.94238 0.57552 0.0
O82 O 0.48229 0.98546 0.42981 0.0
O83 O 0.44603 0.94232 0.53106 0.0
C84 C 0.11145 0.23585 0.69594 0.0
O85 O 0.11024 0.25321 0.65439 0.0
Cd86 Cd 0.16728 0.25404 0.59522 0.0
O87 O 0.14736 0.21768 0.71295 0.0
Cd88 Cd 0.22667 0.21562 0.68276 0.0
C89 C 0.22914 0.3343 0.65476 0.0
O90 O 0.20411 0.18015 0.60804 0.0
O91 O 0.27441 0.1961 0.61338 0.0
O92 O 0.24411 0.15477 0.74252 0.0
C93 C 0.24251 0.1783 0.5892 0.0
O94 O 0.20964 0.3252 0.61549 0.0
C95 C 0.28304 0.17157 0.75175 0.0
O96 O 0.23563 0.30171 0.6852 0.0
O97 O 0.29472 0.20885 0.72979 0.0
C98 C 0.84169 0.95815 -0.00919 0.0
O99 O 0.83401 0.91945 0.96913 0.0
Cd100 Cd 0.88639 0.8621 0.94199 0.0
O101 O 0.88172 0.97198 0.0002 0.0
Cd102 Cd 0.95806 0.9412 0.97917 0.0
C103 C 0.93554 0.93357 0.86018 0.0
O104 O 0.9431 0.85982 0.00215 0.0
O105 O 0.00769 0.87255 0.96988 0.0
O106 O -0.00457 0.97039 0.05074 0.0
C107 C -0.01894 0.84376 -0.00994 0.0
O108 O 0.91089 0.89757 0.86854 0.0
C109 C 0.02208 -0.00176 0.02913 0.0
O110 O 0.955 0.95622 0.89361 0.0
O111 O 0.0178 0.00096 0.98438 0.0
C112 C 0.85968 0.188 0.70395 0.0
O113 O 0.85114 0.16199 0.6681 0.0
Cd114 Cd 0.78827 0.16773 0.6147 0.0
O115 O 0.83142 0.21874 0.71841 0.0
Cd116 Cd 0.75186 0.23525 0.6957 0.0
C117 C 0.71733 0.11867 0.69027 0.0
O118 O 0.77393 0.25132 0.61476 0.0
O119 O 0.70373 0.26187 0.62842 0.0
O120 O 0.75167 0.30459 0.74965 0.0
C121 C 0.73604 0.26436 0.59937 0.0
O122 O 0.73203 0.11484 0.64817 0.0
C123 C 0.71216 0.29535 0.76464 0.0
O124 O 0.72413 0.15649 0.71375 0.0
O125 O 0.6926 0.25913 0.74741 0.0
C126 C 0.14107 0.46262 0.95291 0.0
O127 O 0.1387 0.50256 0.93229 0.0
Cd128 Cd 0.07801 0.55778 0.93054 0.0
O129 O 0.10706 0.44469 0.97395 0.0
Cd130 Cd 0.02636 0.46907 0.97501 0.0
C131 C 0.01447 0.49152 0.85707 0.0
O132 O 0.03953 0.54903 0.00323 0.0
O133 O 0.97138 0.53413 0.98206 0.0
O134 O 0.00864 0.42983 0.0496 0.0
C135 C -0.00067 0.5632 -6e-05 0.0
O136 O 0.03166 0.53216 0.86505 0.0
C137 C 0.97604 0.40578 0.03265 0.0
O138 O 0.01313 0.45998 0.88939 0.0
O139 O 0.96934 0.40851 0.98822 0.0
C140 C 0.56164 0.74909 0.28379 0.0
O141 O 0.55322 0.76806 0.24392 0.0
Cd142 Cd 0.60209 0.78818 0.18064 0.0
O143 O 0.60181 0.73968 0.29675 0.0
Cd144 Cd 0.67585 0.76068 0.26014 0.0
C145 C 0.65332 0.87788 0.23946 0.0
O146 O 0.65776 0.72844 0.18266 0.0
O147 O 0.72042 0.76674 0.18623 0.0
O148 O 0.72078 0.69501 0.29026 0.0
C149 C 0.69346 0.74128 0.16203 0.0
O150 O 0.63087 0.86517 0.20304 0.0
C151 C 0.74556 0.72041 0.31699 0.0
O152 O 0.67009 0.84724 0.26754 0.0
O153 O 0.73679 0.76434 0.31905 0.0
C154 C 0.13265 0.5334 0.48261 0.0
O155 O 0.13416 0.49182 0.49985 0.0
Cd156 Cd 0.08009 0.42905 0.50123 0.0
O157 O 0.09667 0.54979 0.464 0.0
Cd158 Cd 0.01742 0.51842 0.46258 0.0
C159 C 0.01196 0.48405 0.57955 0.0
O160 O 0.03714 0.44156 0.43215 0.0
O161 O 0.96732 0.44911 0.44932 0.0
O162 O -0.00922 0.55979 0.39179 0.0
C163 C -0.00152 0.4228 0.43396 0.0
O164 O 0.03479 0.4474 0.56933 0.0
C165 C 0.96027 0.58269 0.41333 0.0
O166 O 0.00476 0.51636 0.54883 0.0
O167 O 0.95834 0.57783 0.45806 0.0
C168 C 0.3847 0.47675 0.02192 0.0
O169 O 0.3794 0.51911 0.03609 0.0
Cd170 Cd 0.43339 0.58098 0.03937 0.0
O171 O 0.42271 0.46192 0.00704 0.0
Cd172 Cd 0.50153 0.49496 0.0011 0.0
C173 C 0.50013 0.51998 0.119 0.0
O174 O 0.47316 0.56688 0.96861 0.0
O175 O 0.5444 0.56834 0.98024 0.0
O176 O 0.5076 0.43876 0.93616 0.0
C177 C 0.50961 0.58972 0.96554 0.0
O178 O 0.47384 0.55397 0.10861 0.0
C179 C 0.5491 0.43014 0.94264 0.0
O180 O 0.51477 0.49184 0.08726 0.0
O181 O 0.56834 0.45056 0.97748 0.0
C182 C 0.87702 0.79193 0.76718 0.0
O183 O 0.87379 0.82047 0.80194 0.0
Cd184 Cd 0.81597 0.82346 0.86096 0.0
O185 O 0.84544 0.76247 0.75758 0.0
Cd186 Cd 0.7677 0.74908 0.78758 0.0
C187 C 0.73469 0.86568 0.78943 0.0
O188 O 0.79405 0.74249 0.86799 0.0
O189 O 0.7223 0.73606 0.86056 0.0
O190 O 0.75475 0.6677 0.75789 0.0
C191 C 0.75652 0.73549 0.88766 0.0
O192 O 0.75762 0.87287 0.827 0.0
C193 C 0.72457 0.68044 0.72844 0.0
O194 O 0.73601 0.82595 0.7682 0.0
O195 O 0.71562 0.72429 0.72642 0.0
C196 C 0.57982 0.29744 0.21908 0.0
O197 O 0.5761 0.28748 0.26285 0.0
Cd198 Cd 0.63013 0.25774 0.31799 0.0
O199 O 0.61731 0.29364 0.19753 0.0
Cd200 Cd 0.69437 0.27039 0.22447 0.0
C201 C 0.65873 0.15961 0.254 0.0
O202 O 0.6942 0.3046 0.30298 0.0
O203 O 0.7482 0.256 0.2901 0.0
O204 O 0.74077 0.32863 0.18404 0.0
C205 C 0.72939 0.28469 0.31835 0.0
O206 O 0.64368 0.17582 0.29302 0.0
C207 C 0.75937 0.29878 0.15671 0.0
O208 O 0.67538 0.18682 0.22257 0.0
O209 O 0.74603 0.25603 0.15904 0.0
C210 C 0.3777 0.50678 0.5077 0.0
O211 O 0.36854 0.46482 0.49421 0.0
Cd212 Cd 0.41652 0.39931 0.47943 0.0
O213 O 0.41803 0.52011 0.51645 0.0
Cd214 Cd 0.49364 0.4813 0.5095 0.0
C215 C 0.47423 0.45807 0.39197 0.0
O216 O 0.47119 0.40529 0.54003 0.0
O217 O 0.53832 0.40773 0.51182 0.0
O218 O 0.52808 0.51658 0.57998 0.0
C219 C 0.5075 0.38371 0.5317 0.0
O220 O 0.44694 0.42543 0.40428 0.0
C221 C 0.55642 0.5415 0.55723 0.0
O222 O 0.4943 0.4841 0.42247 0.0
O223 O 0.55497 0.53929 0.51223 0.0
H224 H 0.16786 0.08982 0.16455 0.0
H225 H 0.16435 0.19836 0.05715 0.0
H226 H 0.11228 0.15011 0.00933 0.0
H227 H 0.06319 0.07979 0.0015 0.0
H228 H 0.06014 0.97624 0.11407 0.0
H229 H 0.11896 0.01982 0.15683 0.0
C230 C 0.15644 0.10225 0.13013 0.0
C231 C 0.17032 0.14692 0.11373 0.0
C232 C 0.12466 0.07562 0.10437 0.0
C233 C 0.15436 0.16365 0.06993 0.0
C234 C 0.1244 0.13629 0.04289 0.0
C235 C 0.07561 0.06676 0.0353 0.0
C236 C 0.05737 0.02503 0.05474 0.0
C237 C 0.10852 0.09271 0.06029 0.0
C238 C 0.07342 0.00858 0.09867 0.0
C239 C 0.1072 0.0333 0.12299 0.0
H240 H 0.07397 0.90087 0.4574 0.0
H241 H 0.0686 0.00052 0.34158 0.0
H242 H 0.11576 0.9484 0.29342 0.0
H243 H 0.15618 0.87293 0.28344 0.0
H244 H 0.15404 0.76976 0.39617 0.0
H245 H 0.1125 0.82481 0.44674 0.0
C246 C 0.08338 0.91118 0.4217 0.0
C247 C 0.06813 0.95436 0.40297 0.0
C248 C 0.10917 0.88043 0.39384 0.0
C249 C 0.0799 0.96723 0.35652 0.0
C250 C 0.10692 0.93756 0.32909 0.0
C251 C 0.14699 0.86293 0.3193 0.0
C252 C 0.15836 0.81784 0.3365 0.0
C253 C 0.12149 0.89392 0.34728 0.0
C254 C 0.14561 0.80451 0.3825 0.0
C255 C 0.12186 0.83587 0.41129 0.0
H256 H 0.41188 0.8593 0.55375 0.0
H257 H 0.43208 0.95893 0.66816 0.0
H258 H 0.38099 0.91294 0.71849 0.0
H259 H 0.32893 0.84531 0.72901 0.0
H260 H 0.31402 0.74235 0.61675 0.0
H261 H 0.36455 0.78876 0.56628 0.0
C262 C 0.40523 0.87074 0.58981 0.0
C263 C 0.42536 0.91249 0.60722 0.0
C264 C 0.37657 0.84372 0.61868 0.0
C265 C 0.41702 0.92675 0.65412 0.0
C266 C 0.38765 0.90064 0.68277 0.0
C267 C 0.33674 0.83326 0.69342 0.0
C268 C 0.31749 0.79098 0.6762 0.0
C269 C 0.36691 0.85932 0.66525 0.0
C270 C 0.32843 0.77498 0.63052 0.0
C271 C 0.35726 0.80145 0.60173 0.0
H272 H 0.44087 0.08396 0.87338 0.0
H273 H 0.32829 0.01983 0.94582 0.0
H274 H 0.27586 0.05981 0.89248 0.0
H275 H 0.2619 0.11174 0.82394 0.0
H276 H 0.3742 0.17963 0.75454 0.0
H277 H 0.42671 0.13959 0.80785 0.0
C278 C 0.40485 0.07892 0.87752 0.0
C279 C 0.3885 0.04885 0.91328 0.0
C280 C 0.37481 0.1026 0.84717 0.0
C281 C 0.34174 0.04293 0.9186 0.0
C282 C 0.3117 0.06564 0.88801 0.0
C283 C 0.29787 0.11772 0.82059 0.0
C284 C 0.31419 0.14828 0.78525 0.0
C285 C 0.32785 0.09531 0.85197 0.0
C286 C 0.36082 0.15626 0.78158 0.0
C287 C 0.39089 0.13332 0.81197 0.0
H288 H 0.62409 0.29249 0.78681 0.0
H289 H 0.7485 0.36397 0.82272 0.0
H290 H 0.70926 0.41041 0.88331 0.0
H291 H 0.63905 0.43097 0.92526 0.0
H292 H 0.51466 0.36157 0.88529 0.0
H293 H 0.55466 0.31348 0.82722 0.0
C294 C 0.64276 0.31816 0.80792 0.0
C295 C 0.68915 0.32471 0.80045 0.0
C296 C 0.62 0.34485 0.84204 0.0
C297 C 0.71272 0.35841 0.82777 0.0
C298 C 0.69033 0.3848 0.86247 0.0
C299 C 0.62088 0.40497 0.9041 0.0
C300 C 0.57407 0.3995 0.90967 0.0
C301 C 0.64395 0.37827 0.8699 0.0
C302 C 0.5507 0.36632 0.88159 0.0
C303 C 0.57352 0.33889 0.84838 0.0
H304 H 0.91063 0.34285 0.00704 0.0
H305 H 0.96693 0.41664 0.128 0.0
H306 H 0.90386 0.39061 0.17677 0.0
H307 H 0.82989 0.35211 0.18346 0.0
H308 H 0.77559 0.27349 0.06503 0.0
H309 H 0.84047 0.29665 0.01637 0.0
C310 C 0.90943 0.35254 0.04428 0.0
C311 C 0.94314 0.38198 0.06377 0.0
C312 C 0.87305 0.33743 0.07217 0.0
C313 C 0.94144 0.39395 0.11215 0.0
C314 C 0.90517 0.37946 0.13997 0.0
C315 C 0.83234 0.34029 0.1469 0.0
C316 C 0.79789 0.31228 0.12717 0.0
C317 C 0.87027 0.3523 0.12001 0.0
C318 C 0.8017 0.29572 0.08043 0.0
C319 C 0.83875 0.30878 0.05282 0.0
H320 H 0.90521 0.65132 0.44759 0.0
H321 H 0.93627 0.57235 0.32073 0.0
H322 H 0.87143 0.60696 0.2803 0.0
H323 H 0.80376 0.65665 0.28223 0.0
H324 H 0.77575 0.74089 0.40617 0.0
H325 H 0.84134 0.70701 0.4469 0.0
C326 C 0.89803 0.64219 0.41092 0.0
C327 C 0.92528 0.60916 0.38725 0.0
C328 C 0.86094 0.66262 0.38771 0.0
C329 C 0.91591 0.59786 0.33964 0.0
C330 C 0.87863 0.61734 0.31661 0.0
C331 C 0.81204 0.66734 0.31824 0.0
C332 C 0.78478 0.70032 0.34172 0.0
C333 C 0.85051 0.64908 0.34057 0.0
C334 C 0.79624 0.71511 0.38779 0.0
C335 C 0.83369 0.69586 0.41093 0.0
H336 H 0.59904 0.52257 0.64006 0.0
H337 H 0.58868 0.62715 0.52907 0.0
H338 H 0.64154 0.67893 0.57165 0.0
H339 H 0.68786 0.69572 0.64216 0.0
H340 H 0.7031 0.58891 0.75036 0.0
H341 H 0.65167 0.53614 0.70685 0.0
C342 C 0.6085 0.55671 0.62532 0.0
C343 C 0.58966 0.57157 0.58202 0.0
C344 C 0.63984 0.58558 0.64931 0.0
C345 C 0.60272 0.61527 0.56254 0.0
C346 C 0.63285 0.6448 0.58684 0.0
C347 C 0.68022 0.66067 0.6559 0.0
C348 C 0.69877 0.64622 0.69946 0.0
C349 C 0.65125 0.63049 0.63045 0.0
C350 C 0.68922 0.60061 0.71675 0.0
C351 C 0.65962 0.57064 0.69208 0.0
H352 H 0.28881 0.18025 0.37302 0.0
H353 H 0.14507 0.15879 0.3619 0.0
H354 H 0.14106 0.14596 0.44769 0.0
H355 H 0.17642 0.1545 0.52644 0.0
H356 H 0.31957 0.18073 0.5369 0.0
H357 H 0.32559 0.17869 0.45059 0.0
C358 C 0.25654 0.17237 0.38921 0.0
C359 C 0.21712 0.17148 0.36129 0.0
C360 C 0.25423 0.16711 0.43852 0.0
C361 C 0.17579 0.1604 0.38273 0.0
C362 C 0.17343 0.15352 0.4318 0.0
C363 C 0.20907 0.15897 0.50987 0.0
C364 C 0.24739 0.16859 0.53798 0.0
C365 C 0.21211 0.15888 0.4602 0.0
C366 C 0.28951 0.17381 0.51604 0.0
C367 C 0.29295 0.17279 0.46669 0.0
H368 H 0.00832 0.97044 0.81458 0.0
H369 H 0.8672 0.93721 0.79711 0.0
H370 H 0.86774 0.97187 0.71782 0.0
H371 H 0.90753 0.01372 0.65463 0.0
H372 H 0.0499 0.04079 0.667 0.0
H373 H 0.05017 0.00625 0.74727 0.0
C374 C 0.97789 0.97076 0.79315 0.0
C375 C 0.9377 0.95185 0.81147 0.0
C376 C 0.97875 -0.01038 0.74702 0.0
C377 C 0.89848 0.95163 0.78348 0.0
C378 C 0.89873 0.97151 0.73831 0.0
C379 C 0.93856 0.01182 0.67506 0.0
C380 C 0.97846 0.03015 0.65602 0.0
C381 C 0.9385 -0.00907 0.71998 0.0
C382 C 0.01884 0.02695 0.68168 0.0
C383 C 0.01889 0.00736 0.72735 0.0
H384 H 0.18029 0.75887 0.92414 0.0
H385 H 0.3179 0.71035 0.92104 0.0
H386 H 0.32162 0.71475 0.00777 0.0
H387 H 0.28394 0.72672 0.08405 0.0
H388 H 0.14519 0.77169 0.08699 0.0
H389 H 0.14426 0.77555 0.00021 0.0
C390 C 0.21129 0.74962 0.94233 0.0
C391 C 0.24871 0.73389 0.91622 0.0
C392 C 0.21289 0.75146 -0.00799 0.0
C393 C 0.28864 0.72236 0.94035 0.0
C394 C 0.29072 0.72477 -0.01012 0.0
C395 C 0.25349 0.73764 0.06577 0.0
C396 C 0.21453 0.74858 0.09188 0.0
C397 C 0.25275 0.73836 0.01603 0.0
C398 C 0.17543 0.76268 0.06768 0.0
C399 C 0.17481 0.76467 0.01813 0.0
H400 H 0.45904 0.05952 0.31378 0.0
H401 H 0.47319 0.91747 0.36858 0.0
H402 H 0.46289 0.88503 0.28885 0.0
H403 H 0.46123 0.89807 0.2027 0.0
H404 H 0.44781 0.04042 0.14815 0.0
H405 H 0.44561 0.07158 0.2288 0.0
C406 C 0.45906 0.02142 0.30836 0.0
C407 C 0.46768 -0.00901 0.34677 0.0
C408 C 0.4536 0.00308 0.26247 0.0
C409 C 0.46682 0.94167 0.3395 0.0
C410 C 0.46122 0.9231 0.29388 0.0
C411 C 0.45695 0.93582 0.20845 0.0
C412 C 0.45561 0.96694 0.16947 0.0
C413 C 0.45631 0.95361 0.25492 0.0
C414 C 0.44929 0.01567 0.17749 0.0
C415 C 0.44829 0.0336 0.22363 0.0
H416 H 0.38431 0.26021 0.16314 0.0
H417 H 0.36806 0.38579 0.24894 0.0
H418 H 0.44826 0.40206 0.24431 0.0
H419 H 0.52364 0.37004 0.23313 0.0
H420 H 0.54159 0.24341 0.15021 0.0
H421 H 0.46044 0.23923 0.13464 0.0
C422 C 0.39808 0.29224 0.17899 0.0
C423 C 0.3706 0.32087 0.20759 0.0
C424 C 0.44474 0.30115 0.17694 0.0
C425 C 0.38876 0.36253 0.22765 0.0
C426 C 0.43469 0.37202 0.22501 0.0
C427 C 0.50988 0.34298 0.2097 0.0
C428 C 0.538 0.30697 0.19303 0.0
C429 C 0.46326 0.34 0.20238 0.0
C430 C 0.52027 0.27171 0.16302 0.0
C431 C 0.47381 0.26894 0.15476 0.0
H432 H 0.06356 0.35687 0.44538 0.0
H433 H 0.92074 0.37253 0.42149 0.0
H434 H 0.91045 0.28665 0.42837 0.0
H435 H 0.94148 0.20826 0.44582 0.0
H436 H 0.08307 0.19384 0.47747 0.0
H437 H 0.09456 0.27846 0.46304 0.0
C438 C 0.03024 0.34147 0.44115 0.0
C439 C -0.00709 0.37086 0.43285 0.0
C440 C 0.02442 0.29248 0.44695 0.0
C441 C 0.94992 0.35049 0.42788 0.0
C442 C 0.94404 0.30151 0.43198 0.0
C443 C 0.97493 0.22354 0.44933 0.0
C444 C 0.01155 0.19473 0.46218 0.0
C445 C -0.01905 0.27233 0.44232 0.0
C446 C 0.05453 0.21515 0.46703 0.0
C447 C 0.06105 0.26354 0.45894 0.0
H448 H 0.91011 0.71607 0.71986 0.0
H449 H 0.94292 0.85941 0.76141 0.0
H450 H 0.02214 0.84564 0.74396 0.0
H451 H 0.08286 0.78722 0.73654 0.0
H452 H 0.04989 0.64138 0.70614 0.0
H453 H 0.97027 0.6621 0.6972 0.0
C454 C 0.93436 0.74476 0.72354 0.0
C455 C 0.92094 0.78827 0.74307 0.0
C456 C 0.98017 0.73582 0.71572 0.0
C457 C 0.95266 0.82525 0.74738 0.0
C458 C -0.00197 0.81733 0.73753 0.0
C459 C 0.05839 0.76047 0.72595 0.0
C460 C 0.07177 0.71298 0.72207 0.0
C461 C 0.01245 0.77189 0.72459 0.0
C462 C 0.04001 0.6782 0.70921 0.0
C463 C -0.00543 0.68986 0.70478 0.0
H464 H 0.4366 0.64622 0.95861 0.0
H465 H 0.58198 0.64912 0.95527 0.0
H466 H 0.58097 0.73579 0.95143 0.0
H467 H 0.53912 0.81005 0.9568 0.0
H468 H 0.39395 0.80709 0.96567 0.0
H469 H 0.39465 0.72055 0.95933 0.0
C470 C 0.46811 0.66573 0.95649 0.0
C471 C 0.50936 0.64139 0.9576 0.0
C472 C 0.46729 0.71536 0.95572 0.0
C473 C 0.54984 0.66714 0.95479 0.0
C474 C 0.54927 0.71661 0.95272 0.0
C475 C 0.50752 0.79058 0.95681 0.0
C476 C 0.46653 0.81486 0.96211 0.0
C477 C 0.50822 0.74101 0.95437 0.0
C478 C 0.42592 0.78915 0.96192 0.0
C479 C 0.4263 0.73976 0.95838 0.0
H480 H 0.52995 0.66068 0.29295 0.0
H481 H 0.50488 0.80565 0.33211 0.0
H482 H 0.42496 0.78791 0.34282 0.0
H483 H 0.36161 0.73771 0.31779 0.0
H484 H 0.38669 0.59605 0.26725 0.0
H485 H 0.46671 0.60492 0.28544 0.0
C486 C 0.50724 0.68751 0.30644 0.0
C487 C 0.52278 0.73421 0.31189 0.0
C488 C 0.46094 0.67775 0.30905 0.0
C489 C 0.49334 0.76931 0.32825 0.0
C490 C 0.44756 0.7593 0.33359 0.0
C491 C 0.38431 0.70816 0.31255 0.0
C492 C 0.36864 0.6667 0.29012 0.0
C493 C 0.43064 0.7146 0.32057 0.0
C494 C 0.39831 0.62856 0.28375 0.0
C495 C 0.44409 0.63375 0.29389 0.0
H496 H 0.55173 0.16623 0.53484 0.0
H497 H 0.40668 0.15565 0.53818 0.0
H498 H 0.40137 0.24235 0.54158 0.0
H499 H 0.4383 0.32089 0.54014 0.0
H500 H 0.58317 0.33016 0.53196 0.0
H501 H 0.58832 0.2437 0.53407 0.0
C502 C 0.51886 0.18275 0.53663 0.0
C503 C 0.4796 0.15459 0.53629 0.0
C504 C 0.51616 0.23225 0.5376 0.0
C505 C 0.43735 0.17662 0.53837 0.0
C506 C 0.43435 0.22611 0.54028 0.0
C507 C 0.471 0.30395 0.53928 0.0
C508 C 0.51042 0.33172 0.53595 0.0
C509 C 0.47356 0.25425 0.53945 0.0
C510 C 0.55249 0.30939 0.53438 0.0
C511 C 0.5554 0.26007 0.53559 0.0
H512 H 0.06526 0.15717 0.71937 0.0
H513 H 0.0613 0.30963 0.72583 0.0
H514 H 0.98032 0.30699 0.74166 0.0
H515 H 0.90959 0.26257 0.73396 0.0
H516 H 0.91304 0.11082 0.71599 0.0
H517 H -0.00515 0.11162 0.72616 0.0
C518 C 0.04686 0.18957 0.7264 0.0
C519 C 0.06877 0.23346 0.72181 0.0
C520 C -6e-05 0.18787 0.73234 0.0
C521 C 0.0448 0.27549 0.72966 0.0
C522 C -0.00147 0.274 0.73814 0.0
C523 C 0.92818 0.22954 0.73388 0.0
C524 C 0.90566 0.18683 0.72369 0.0
C525 C 0.9754 0.23057 0.73662 0.0
C526 C 0.92995 0.14421 0.72325 0.0
C527 C 0.97669 0.14465 0.72864 0.0
H528 H 0.92271 0.77093 0.0042 0.0
H529 H 0.06387 0.8034 0.98674 0.0
H530 H 0.08207 0.71907 -0.00756 0.0
H531 H 0.05781 0.63669 -0.00112 0.0
H532 H 0.91635 0.60307 0.01016 0.0
H533 H 0.89825 0.68775 0.01102 0.0
C534 C 0.9575 0.75955 0.00208 0.0
C535 C -0.00802 0.79316 -0.00485 0.0
C536 C 0.96761 0.71109 0.00439 0.0
C537 C 0.03683 0.77804 -0.00807 0.0
C538 C 0.04726 0.72999 -0.00469 0.0
C539 C 0.02305 0.64787 0.00214 0.0
C540 C -0.01157 0.61386 0.00465 0.0
C541 C 0.01291 0.69626 0.00111 0.0
C542 C 0.94351 0.62877 0.0082 0.0
C543 C 0.93319 0.67707 0.0086 0.0
H544 H 0.15347 0.40964 0.31883 0.0
H545 H 0.1461 0.3667 0.1718 0.0
H546 H 0.13543 0.44873 0.14784 0.0
H547 H 0.14905 0.53235 0.16718 0.0
H548 H 0.16022 0.57559 0.31363 0.0
H549 H 0.14738 0.494 0.33929 0.0
C550 C 0.14806 0.41799 0.28167 0.0
C551 C 0.15258 0.38237 0.24703 0.0
C552 C 0.14345 0.46552 0.26792 0.0
C553 C 0.14402 0.39357 0.19919 0.0
C554 C 0.13819 0.44061 0.18534 0.0
C555 C 0.1472 0.5241 0.20473 0.0
C556 C 0.15706 0.55942 0.23843 0.0
C557 C 0.14118 0.47698 0.21913 0.0
C558 C 0.1534 0.54877 0.28698 0.0
C559 C 0.14645 0.50201 0.30168 0.0
H560 H 0.69595 0.03226 0.65264 0.0
H561 H 0.7015 0.10946 0.78504 0.0
H562 H 0.69864 0.03548 0.82907 0.0
H563 H 0.71193 0.94984 0.82925 0.0
H564 H 0.70717 0.8723 0.69713 0.0
H565 H 0.69067 0.94512 0.65424 0.0
C566 C 0.69528 0.03295 0.69112 0.0
C567 C 0.70071 0.07616 0.71543 0.0
C568 C 0.69446 -0.00985 0.71643 0.0
C569 C 0.69841 0.0766 0.76531 0.0
C570 C 0.69704 0.03424 0.79067 0.0
C571 C 0.70633 0.94874 0.79118 0.0
C572 C 0.71236 0.90615 0.76621 0.0
C573 C 0.69791 -0.00912 0.76651 0.0
C574 C 0.70362 0.90489 0.71713 0.0
C575 C 0.69456 0.94663 0.69242 0.0
H576 H 0.3468 0.44595 0.94121 0.0
H577 H 0.33034 0.44703 0.09284 0.0
H578 H 0.25015 0.42859 0.08387 0.0
H579 H 0.18309 0.4338 0.03271 0.0
H580 H 0.19933 0.4461 0.8814 0.0
H581 H 0.28075 0.43657 0.8898 0.0
C582 C 0.32592 0.43975 0.97214 0.0
C583 C 0.34398 0.4475 0.01751 0.0
C584 C 0.2794 0.43266 0.96648 0.0
C585 C 0.31681 0.44075 0.0576 0.0
C586 C 0.27093 0.43082 0.05241 0.0
C587 C 0.20442 0.43224 0.00158 0.0
C588 C 0.18571 0.44073 0.9566 0.0
C589 C 0.2514 0.42984 0.007 0.0
C590 C 0.21338 0.43963 0.91635 0.0
C591 C 0.25987 0.43454 0.92117 0.0
H592 H 0.67331 0.08762 0.31571 0.0
H593 H 0.63817 0.11783 0.17023 0.0
H594 H 0.63261 0.03313 0.15316 0.0
H595 H 0.63917 0.95079 0.17898 0.0
H596 H 0.67848 0.91967 0.32333 0.0
H597 H 0.68247 0.00457 0.34099 0.0
C598 C 0.66452 0.07542 0.28032 0.0
C599 C 0.65599 0.10853 0.24426 0.0
C600 C 0.66291 0.02667 0.27035 0.0
C601 C 0.64511 0.09271 0.19838 0.0
C602 C 0.64205 0.04438 0.18858 0.0
C603 C 0.64861 0.96248 0.21436 0.0
C604 C 0.65828 0.92898 0.24983 0.0
C605 C 0.65114 0.01108 0.2242 0.0
C606 C 0.67097 0.94476 0.29534 0.0
C607 C 0.67303 -0.00677 0.30557 0.0
H608 H 0.77853 -0.00094 0.93629 0.0
H609 H 0.8167 0.9739 0.08167 0.0
H610 H 0.73982 -0.0089 0.10748 0.0
H611 H 0.65981 -0.00719 0.08528 0.0
H612 H 0.62131 0.01736 0.93977 0.0
H613 H 0.70059 0.02233 0.91721 0.0
C614 C 0.77028 -0.00051 0.97377 0.0
C615 C 0.80261 0.98502 0.00718 0.0
C616 C 0.72598 0.00862 0.98804 0.0
C617 C 0.7921 0.98528 0.05561 0.0
C618 C 0.74811 -0.0054 0.07021 0.0
C619 C 0.66881 0.00165 0.04911 0.0
C620 C 0.63499 0.00404 0.01411 0.0
C621 C 0.71434 0.00345 0.03636 0.0
C622 C 0.64683 0.01535 0.96729 0.0
C623 C 0.69217 0.01758 0.95428 0.0
H624 H 0.23233 0.55508 0.68559 0.0
H625 H 0.25252 0.50996 0.83035 0.0
H626 H 0.26041 0.42782 0.80394 0.0
H627 H 0.25303 0.36841 0.74138 0.0
H628 H 0.22572 0.41251 0.59743 0.0
H629 H 0.22874 0.49527 0.62197 0.0
C630 C 0.23942 0.52736 0.71118 0.0
C631 C 0.24186 0.5384 0.75979 0.0
C632 C 0.2422 0.48004 0.69598 0.0
C633 C 0.25037 0.50216 0.79274 0.0
C634 C 0.25483 0.45527 0.77771 0.0
C635 C 0.2488 0.39612 0.71508 0.0
C636 C 0.23895 0.38417 0.66767 0.0
C637 C 0.24957 0.44367 0.72961 0.0
C638 C 0.23328 0.42063 0.6342 0.0
C639 C 0.23511 0.46811 0.64819 0.0
H640 H 0.18599 0.56104 0.55505 0.0
H641 H 0.17637 0.55862 0.40258 0.0
H642 H 0.25839 0.56268 0.3965 0.0
H643 H 0.33024 0.54254 0.43539 0.0
H644 H 0.33951 0.54153 0.5879 0.0
H645 H 0.26082 0.5666 0.59355 0.0
C646 C 0.20193 0.56412 0.52059 0.0
C647 C 0.17567 0.55895 0.47927 0.0
C648 C 0.24908 0.56502 0.51759 0.0
C649 C 0.19617 0.56271 0.43471 0.0
C650 C 0.24309 0.56429 0.43132 0.0
C651 C 0.31537 0.54985 0.46974 0.0
C652 C 0.33992 0.5398 0.51121 0.0
C653 C 0.26969 0.56179 0.47256 0.0
C654 C 0.32092 0.54913 0.55564 0.0
C655 C 0.27576 0.56253 0.5588 0.0
H656 H 0.68282 0.71322 0.94028 0.0
H657 H 0.82198 0.75701 0.95214 0.0
H658 H 0.8152 0.76156 0.03817 0.0
H659 H 0.7689 0.75634 0.10999 0.0
H660 H 0.63045 0.71023 0.09854 0.0
H661 H 0.63795 0.70298 0.0127 0.0
C662 C 0.71166 0.72354 0.96176 0.0
C663 C 0.75266 0.73509 0.93986 0.0
C664 C 0.70767 0.72582 0.01133 0.0
C665 C 0.78994 0.74799 0.96812 0.0
C666 C 0.78611 0.75074 0.01736 0.0
C667 C 0.74045 0.74458 0.08866 0.0
C668 C 0.69916 0.73424 0.11051 0.0
C669 C 0.74501 0.74026 0.03931 0.0
C670 C 0.66265 0.71852 0.08255 0.0
C671 C 0.66682 0.71451 0.03341 0.0
H672 H 0.54492 0.45824 0.32995 0.0
H673 H 0.40325 0.48831 0.3429 0.0
H674 H 0.39985 0.51225 0.25992 0.0
H675 H 0.43645 0.52513 0.18457 0.0
H676 H 0.57547 0.48667 0.16563 0.0
H677 H 0.58119 0.4662 0.25043 0.0
C678 C 0.51364 0.47051 0.31435 0.0
C679 C 0.47444 0.47214 0.34203 0.0
C680 C 0.5117 0.48335 0.26611 0.0
C681 C 0.43371 0.4871 0.32187 0.0
C682 C 0.43182 0.50109 0.2747 0.0
C683 C 0.46823 0.51284 0.1991 0.0
C684 C 0.50578 0.50834 0.16952 0.0
C685 C 0.47057 0.49962 0.24669 0.0
C686 C 0.54632 0.49084 0.18819 0.0
C687 C 0.54951 0.4792 0.23649 0.0
H688 H 0.67464 0.3104 0.39041 0.0
H689 H 0.80766 0.25721 0.36087 0.0
H690 H 0.8225 0.24937 0.44598 0.0
H691 H 0.79574 0.25272 0.52805 0.0
H692 H 0.66102 0.30111 0.55728 0.0
H693 H 0.6486 0.31566 0.47262 0.0
C694 C 0.7071 0.29764 0.40259 0.0
C695 C 0.74007 0.28439 0.36951 0.0
C696 C 0.71482 0.29194 0.45135 0.0
C697 C 0.78177 0.2675 0.38576 0.0
C698 C 0.7902 0.26293 0.43433 0.0
C699 C 0.76377 0.26684 0.51597 0.0
C700 C 0.72924 0.27575 0.54877 0.0
C701 C 0.75667 0.27425 0.46735 0.0
C702 C 0.68797 0.2938 0.5326 0.0
C703 C 0.6809 0.30215 0.48429 0.0
H704 H 0.00776 0.41741 0.64867 0.0
H705 H -0.01482 0.5663 0.62224 0.0
H706 H 0.97682 0.58008 0.70733 0.0
H707 H -0.01197 0.55252 0.78873 0.0
H708 H 0.0125 0.40415 0.81532 0.0
H709 H 0.00791 0.38772 0.73025 0.0
C710 C 0.00038 0.45284 0.66141 0.0
C711 C -0.00191 0.49095 0.6293 0.0
C712 C -0.00353 0.46079 0.71027 0.0
C713 C -0.01247 0.53641 0.64623 0.0
C714 C -0.01698 0.54444 0.69484 0.0
C715 C -0.0086 0.5164 0.77595 0.0
C716 C 0.00136 0.47974 0.808 0.0
C717 C -0.01074 0.50729 0.72716 0.0
C718 C 0.00492 0.43299 0.79125 0.0
C719 C 0.00255 0.42359 0.74265 0.0
H720 H 0.80954 -0.00308 0.55918 0.0
H721 H 0.83511 -0.00066 0.40888 0.0
H722 H 0.75679 0.97618 0.39282 0.0
H723 H 0.67861 0.97392 0.42197 0.0
H724 H 0.65336 0.97378 0.57242 0.0
H725 H 0.73441 0.9757 0.58834 0.0
C726 C 0.79819 -0.00939 0.52304 0.0
C727 C 0.82733 0.00025 0.48514 0.0
C728 C 0.75322 0.97809 0.51428 0.0
C729 C 0.81293 -0.00805 0.43842 0.0
C730 C 0.76815 0.97915 0.42932 0.0
C731 C 0.69106 0.97235 0.45816 0.0
C732 C 0.66042 0.97454 0.49598 0.0
C733 C 0.73753 0.97476 0.46695 0.0
C734 C 0.67646 0.97198 0.54281 0.0
C735 C 0.72272 0.97372 0.55192 0.0
loop_
_geom_bond_atom_site_label_1
_geom_bond_atom_site_label_2
_geom_bond_distance
_geom_bond_site_symmetry_2
_ccdc_geom_bond_type
C0 O1 1.306 . S
C0 O3 1.160 . S
O1 C0 1.306 . S
O1 Cd2 2.228 . S
Cd2 O1 2.228 . S
Cd2 O6 2.273 . S
Cd2 O10 2.277 . S
O3 C0 1.160 . S
O3 Cd4 2.203 . S
Cd4 O3 2.203 . S
Cd4 O6 2.411 . S
Cd4 O7 2.333 . S
Cd4 O8 2.352 . S
Cd4 O12 2.277 . S
Cd4 O13 2.356 . S
C5 O10 1.209 . S
C5 O12 1.226 . S
O6 Cd2 2.273 . S
O6 Cd4 2.411 . S
O6 C9 1.320 . S
O7 Cd4 2.333 . S
O7 C9 1.214 . S
O8 Cd4 2.352 . S
O8 C11 1.258 . S
C9 O6 1.320 . S
C9 O7 1.214 . S
O10 Cd2 2.277 . S
O10 C5 1.209 . S
C11 O8 1.258 . S
C11 O13 1.282 . S
O12 Cd4 2.277 . S
O12 C5 1.226 . S
O13 Cd4 2.356 . S
O13 C11 1.282 . S
C14 O15 1.306 1_565 S
C14 O17 1.160 . S
O15 C14 1.306 1_545 S
O15 Cd16 2.228 . S
Cd16 O15 2.228 . S
Cd16 O20 2.273 . S
Cd16 O24 2.277 . S
O17 C14 1.160 . S
O17 Cd18 2.203 1_565 S
Cd18 O17 2.203 1_545 S
Cd18 O20 2.411 . S
Cd18 O21 2.333 1_655 S
Cd18 O22 2.352 1_545 S
Cd18 O26 2.277 1_545 S
Cd18 O27 2.356 1_645 S
C19 O24 1.209 . S
C19 O26 1.226 1_545 S
O20 Cd16 2.273 . S
O20 Cd18 2.411 . S
O20 C23 1.320 . S
O21 Cd18 2.333 1_455 S
O21 C23 1.214 1_455 S
O22 Cd18 2.352 1_565 S
O22 C25 1.258 1_655 S
C23 O20 1.320 . S
C23 O21 1.214 1_655 S
O24 Cd16 2.277 . S
O24 C19 1.209 . S
C25 O22 1.258 1_455 S
C25 O27 1.282 . S
O26 Cd18 2.277 1_565 S
O26 C19 1.226 1_565 S
O27 Cd18 2.356 1_465 S
O27 C25 1.282 . S
C28 O29 1.306 . S
C28 O31 1.160 . S
O29 C28 1.306 . S
O29 Cd30 2.228 . S
Cd30 O29 2.228 . S
Cd30 O34 2.273 . S
Cd30 O38 2.277 . S
O31 C28 1.160 . S
O31 Cd32 2.203 . S
Cd32 O31 2.203 . S
Cd32 O34 2.411 . S
Cd32 O35 2.333 . S
Cd32 O36 2.352 . S
Cd32 O40 2.277 . S
Cd32 O41 2.356 . S
C33 O38 1.209 . S
C33 O40 1.226 . S
O34 Cd30 2.273 . S
O34 Cd32 2.411 . S
O34 C37 1.320 . S
O35 Cd32 2.333 . S
O35 C37 1.214 . S
O36 Cd32 2.352 . S
O36 C39 1.258 . S
C37 O34 1.320 . S
C37 O35 1.214 . S
O38 Cd30 2.277 . S
O38 C33 1.209 . S
C39 O36 1.258 . S
C39 O41 1.282 . S
O40 Cd32 2.277 . S
O40 C33 1.226 . S
O41 Cd32 2.356 . S
O41 C39 1.282 . S
C42 O43 1.306 1_546 S
C42 O45 1.160 . S
O43 C42 1.306 1_564 S
O43 Cd44 2.228 . S
Cd44 O43 2.228 . S
Cd44 O48 2.273 1_554 S
Cd44 O52 2.277 . S
O45 C42 1.160 . S
O45 Cd46 2.203 1_546 S
Cd46 O45 2.203 1_564 S
Cd46 O48 2.411 1_554 S
Cd46 O49 2.333 . S
Cd46 O50 2.352 1_564 S
Cd46 O54 2.277 1_565 S
Cd46 O55 2.356 1_564 S
C47 O52 1.209 . S
C47 O54 1.226 1_565 S
O48 Cd44 2.273 1_556 S
O48 Cd46 2.411 1_556 S
O48 C51 1.320 1_556 S
O49 Cd46 2.333 . S
O49 C51 1.214 . S
O50 Cd46 2.352 1_546 S
O50 C53 1.258 . S
C51 O48 1.320 1_554 S
C51 O49 1.214 . S
O52 Cd44 2.277 . S
O52 C47 1.209 . S
C53 O50 1.258 . S
C53 O55 1.282 . S
O54 Cd46 2.277 1_545 S
O54 C47 1.226 1_545 S
O55 Cd46 2.356 1_546 S
O55 C53 1.282 . S
C56 O57 1.306 . S
C56 O59 1.160 . S
O57 C56 1.306 . S
O57 Cd58 2.228 . S
Cd58 O57 2.228 . S
Cd58 O62 2.273 . S
Cd58 O66 2.277 . S
O59 C56 1.160 . S
O59 Cd60 2.203 . S
Cd60 O59 2.203 . S
Cd60 O62 2.411 . S
Cd60 O63 2.333 . S
Cd60 O64 2.352 . S
Cd60 O68 2.277 . S
Cd60 O69 2.356 . S
C61 O66 1.209 . S
C61 O68 1.226 . S
O62 Cd58 2.273 . S
O62 Cd60 2.411 . S
O62 C65 1.320 . S
O63 Cd60 2.333 . S
O63 C65 1.214 . S
O64 Cd60 2.352 . S
O64 C67 1.258 . S
C65 O62 1.320 . S
C65 O63 1.214 . S
O66 Cd58 2.277 . S
O66 C61 1.209 . S
C67 O64 1.258 . S
C67 O69 1.282 . S
O68 Cd60 2.277 . S
O68 C61 1.226 . S
O69 Cd60 2.356 . S
O69 C67 1.282 . S
C70 O71 1.306 1_565 S
C70 O73 1.160 . S
O71 C70 1.306 1_545 S
O71 Cd72 2.228 . S
Cd72 O71 2.228 . S
Cd72 O76 2.273 . S
Cd72 O80 2.277 . S
O73 C70 1.160 . S
O73 Cd74 2.203 1_565 S
Cd74 O73 2.203 1_545 S
Cd74 O76 2.411 . S
Cd74 O77 2.333 . S
Cd74 O78 2.352 1_545 S
Cd74 O82 2.277 1_545 S
Cd74 O83 2.356 1_545 S
C75 O80 1.209 . S
C75 O82 1.226 1_545 S
O76 Cd72 2.273 . S
O76 Cd74 2.411 . S
O76 C79 1.320 . S
O77 Cd74 2.333 . S
O77 C79 1.214 . S
O78 Cd74 2.352 1_565 S
O78 C81 1.258 . S
C79 O76 1.320 . S
C79 O77 1.214 . S
O80 Cd72 2.277 . S
O80 C75 1.209 . S
C81 O78 1.258 . S
C81 O83 1.282 . S
O82 Cd74 2.277 1_565 S
O82 C75 1.226 1_565 S
O83 Cd74 2.356 1_565 S
O83 C81 1.282 . S
C84 O85 1.306 . S
C84 O87 1.160 . S
O85 C84 1.306 . S
O85 Cd86 2.228 . S
Cd86 O85 2.228 . S
Cd86 O90 2.273 . S
Cd86 O94 2.277 . S
O87 C84 1.160 . S
O87 Cd88 2.203 . S
Cd88 O87 2.203 . S
Cd88 O90 2.411 . S
Cd88 O91 2.333 . S
Cd88 O92 2.352 . S
Cd88 O96 2.277 . S
Cd88 O97 2.356 . S
C89 O94 1.209 . S
C89 O96 1.226 . S
O90 Cd86 2.273 . S
O90 Cd88 2.411 . S
O90 C93 1.320 . S
O91 Cd88 2.333 . S
O91 C93 1.214 . S
O92 Cd88 2.352 . S
O92 C95 1.258 . S
C93 O90 1.320 . S
C93 O91 1.214 . S
O94 Cd86 2.277 . S
O94 C89 1.209 . S
C95 O92 1.258 . S
C95 O97 1.282 . S
O96 Cd88 2.277 . S
O96 C89 1.226 . S
O97 Cd88 2.356 . S
O97 C95 1.282 . S
C98 O99 1.306 1_544 S
C98 O101 1.160 . S
O99 C98 1.306 1_566 S
O99 Cd100 2.228 . S
Cd100 O99 2.228 . S
Cd100 O104 2.273 1_556 S
Cd100 O108 2.277 . S
O101 C98 1.160 . S
O101 Cd102 2.203 1_544 S
Cd102 O101 2.203 1_566 S
Cd102 O104 2.411 1_556 S
Cd102 O105 2.333 1_655 S
Cd102 O106 2.352 1_566 S
Cd102 O110 2.277 1_565 S
Cd102 O111 2.356 1_666 S
C103 O108 1.209 . S
C103 O110 1.226 1_565 S
O104 Cd100 2.273 1_554 S
O104 Cd102 2.411 1_554 S
O104 C107 1.320 1_554 S
O105 Cd102 2.333 1_455 S
O105 C107 1.214 1_455 S
O106 Cd102 2.352 1_544 S
O106 C109 1.258 1_655 S
C107 O104 1.320 1_556 S
C107 O105 1.214 1_655 S
O108 Cd100 2.277 . S
O108 C103 1.209 . S
C109 O106 1.258 1_455 S
C109 O111 1.282 . S
O110 Cd102 2.277 1_545 S
O110 C103 1.226 1_545 S
O111 Cd102 2.356 1_444 S
O111 C109 1.282 . S
C112 O113 1.306 . S
C112 O115 1.160 . S
O113 C112 1.306 . S
O113 Cd114 2.228 . S
Cd114 O113 2.228 . S
Cd114 O118 2.273 . S
Cd114 O122 2.277 . S
O115 C112 1.160 . S
O115 Cd116 2.203 . S
Cd116 O115 2.203 . S
Cd116 O118 2.411 . S
Cd116 O119 2.333 . S
Cd116 O120 2.352 . S
Cd116 O124 2.277 . S
Cd116 O125 2.356 . S
C117 O122 1.209 . S
C117 O124 1.226 . S
O118 Cd114 2.273 . S
O118 Cd116 2.411 . S
O118 C121 1.320 . S
O119 Cd116 2.333 . S
O119 C121 1.214 . S
O120 Cd116 2.352 . S
O120 C123 1.258 . S
C121 O118 1.320 . S
C121 O119 1.214 . S
O122 Cd114 2.277 . S
O122 C117 1.209 . S
C123 O120 1.258 . S
C123 O125 1.282 . S
O124 Cd116 2.277 . S
O124 C117 1.226 . S
O125 Cd116 2.356 . S
O125 C123 1.282 . S
C126 O127 1.306 1_554 S
C126 O129 1.160 . S
O127 C126 1.306 1_556 S
O127 Cd128 2.228 . S
Cd128 O127 2.228 . S
Cd128 O132 2.273 1_556 S
Cd128 O136 2.277 . S
O129 C126 1.160 . S
O129 Cd130 2.203 1_554 S
Cd130 O129 2.203 1_556 S
Cd130 O132 2.411 1_556 S
Cd130 O133 2.333 1_455 S
Cd130 O134 2.352 1_556 S
Cd130 O138 2.277 . S
Cd130 O139 2.356 1_456 S
C131 O136 1.209 . S
C131 O138 1.226 . S
O132 Cd128 2.273 1_554 S
O132 Cd130 2.411 1_554 S
O132 C135 1.320 1_554 S
O133 Cd130 2.333 1_655 S
O133 C135 1.214 1_655 S
O134 Cd130 2.352 1_554 S
O134 C137 1.258 1_455 S
C135 O132 1.320 1_556 S
C135 O133 1.214 1_455 S
O136 Cd128 2.277 . S
O136 C131 1.209 . S
C137 O134 1.258 1_655 S
C137 O139 1.282 . S
O138 Cd130 2.277 . S
O138 C131 1.226 . S
O139 Cd130 2.356 1_654 S
O139 C137 1.282 . S
C140 O141 1.306 . S
C140 O143 1.160 . S
O141 C140 1.306 . S
O141 Cd142 2.228 . S
Cd142 O141 2.228 . S
Cd142 O146 2.273 . S
Cd142 O150 2.277 . S
O143 C140 1.160 . S
O143 Cd144 2.203 . S
Cd144 O143 2.203 . S
Cd144 O146 2.411 . S
Cd144 O147 2.333 . S
Cd144 O148 2.352 . S
Cd144 O152 2.277 . S
Cd144 O153 2.356 . S
C145 O150 1.209 . S
C145 O152 1.226 . S
O146 Cd142 2.273 . S
O146 Cd144 2.411 . S
O146 C149 1.320 . S
O147 Cd144 2.333 . S
O147 C149 1.214 . S
O148 Cd144 2.352 . S
O148 C151 1.258 . S
C149 O146 1.320 . S
C149 O147 1.214 . S
O150 Cd142 2.277 . S
O150 C145 1.209 . S
C151 O148 1.258 . S
C151 O153 1.282 . S
O152 Cd144 2.277 . S
O152 C145 1.226 . S
O153 Cd144 2.356 . S
O153 C151 1.282 . S
C154 O155 1.306 . S
C154 O157 1.160 . S
O155 C154 1.306 . S
O155 Cd156 2.228 . S
Cd156 O155 2.228 . S
Cd156 O160 2.273 . S
Cd156 O164 2.277 . S
O157 C154 1.160 . S
O157 Cd158 2.203 . S
Cd158 O157 2.203 . S
Cd158 O160 2.411 . S
Cd158 O161 2.333 1_455 S
Cd158 O162 2.352 . S
Cd158 O166 2.277 . S
Cd158 O167 2.356 1_455 S
C159 O164 1.209 . S
C159 O166 1.226 . S
O160 Cd156 2.273 . S
O160 Cd158 2.411 . S
O160 C163 1.320 . S
O161 Cd158 2.333 1_655 S
O161 C163 1.214 1_655 S
O162 Cd158 2.352 . S
O162 C165 1.258 1_455 S
C163 O160 1.320 . S
C163 O161 1.214 1_455 S
O164 Cd156 2.277 . S
O164 C159 1.209 . S
C165 O162 1.258 1_655 S
C165 O167 1.282 . S
O166 Cd158 2.277 . S
O166 C159 1.226 . S
O167 Cd158 2.356 1_655 S
O167 C165 1.282 . S
C168 O169 1.306 1_556 S
C168 O171 1.160 . S
O169 C168 1.306 1_554 S
O169 Cd170 2.228 . S
Cd170 O169 2.228 . S
Cd170 O174 2.273 1_554 S
Cd170 O178 2.277 . S
O171 C168 1.160 . S
O171 Cd172 2.203 1_556 S
Cd172 O171 2.203 1_554 S
Cd172 O174 2.411 1_554 S
Cd172 O175 2.333 . S
Cd172 O176 2.352 1_554 S
Cd172 O180 2.277 . S
Cd172 O181 2.356 1_554 S
C173 O178 1.209 . S
C173 O180 1.226 . S
O174 Cd170 2.273 1_556 S
O174 Cd172 2.411 1_556 S
O174 C177 1.320 1_556 S
O175 Cd172 2.333 . S
O175 C177 1.214 . S
O176 Cd172 2.352 1_556 S
O176 C179 1.258 . S
C177 O174 1.320 1_554 S
C177 O175 1.214 . S
O178 Cd170 2.277 . S
O178 C173 1.209 . S
C179 O176 1.258 . S
C179 O181 1.282 . S
O180 Cd172 2.277 . S
O180 C173 1.226 . S
O181 Cd172 2.356 1_556 S
O181 C179 1.282 . S
C182 O183 1.306 . S
C182 O185 1.160 . S
O183 C182 1.306 . S
O183 Cd184 2.228 . S
Cd184 O183 2.228 . S
Cd184 O188 2.273 . S
Cd184 O192 2.277 . S
O185 C182 1.160 . S
O185 Cd186 2.203 . S
Cd186 O185 2.203 . S
Cd186 O188 2.411 . S
Cd186 O189 2.333 . S
Cd186 O190 2.352 . S
Cd186 O194 2.277 . S
Cd186 O195 2.356 . S
C187 O192 1.209 . S
C187 O194 1.226 . S
O188 Cd184 2.273 . S
O188 Cd186 2.411 . S
O188 C191 1.320 . S
O189 Cd186 2.333 . S
O189 C191 1.214 . S
O190 Cd186 2.352 . S
O190 C193 1.258 . S
C191 O188 1.320 . S
C191 O189 1.214 . S
O192 Cd184 2.277 . S
O192 C187 1.209 . S
C193 O190 1.258 . S
C193 O195 1.282 . S
O194 Cd186 2.277 . S
O194 C187 1.226 . S
O195 Cd186 2.356 . S
O195 C193 1.282 . S
C196 O197 1.306 . S
C196 O199 1.160 . S
O197 C196 1.306 . S
O197 Cd198 2.228 . S
Cd198 O197 2.228 . S
Cd198 O202 2.273 . S
Cd198 O206 2.277 . S
O199 C196 1.160 . S
O199 Cd200 2.203 . S
Cd200 O199 2.203 . S
Cd200 O202 2.411 . S
Cd200 O203 2.333 . S
Cd200 O204 2.352 . S
Cd200 O208 2.277 . S
Cd200 O209 2.356 . S
C201 O206 1.209 . S
C201 O208 1.226 . S
O202 Cd198 2.273 . S
O202 Cd200 2.411 . S
O202 C205 1.320 . S
O203 Cd200 2.333 . S
O203 C205 1.214 . S
O204 Cd200 2.352 . S
O204 C207 1.258 . S
C205 O202 1.320 . S
C205 O203 1.214 . S
O206 Cd198 2.277 . S
O206 C201 1.209 . S
C207 O204 1.258 . S
C207 O209 1.282 . S
O208 Cd200 2.277 . S
O208 C201 1.226 . S
O209 Cd200 2.356 . S
O209 C207 1.282 . S
C210 O211 1.306 . S
C210 O213 1.160 . S
O211 C210 1.306 . S
O211 Cd212 2.228 . S
Cd212 O211 2.228 . S
Cd212 O216 2.273 . S
Cd212 O220 2.277 . S
O213 C210 1.160 . S
O213 Cd214 2.203 . S
Cd214 O213 2.203 . S
Cd214 O216 2.411 . S
Cd214 O217 2.333 . S
Cd214 O218 2.352 . S
Cd214 O222 2.277 . S
Cd214 O223 2.356 . S
C215 O220 1.209 . S
C215 O222 1.226 . S
O216 Cd212 2.273 . S
O216 Cd214 2.411 . S
O216 C219 1.320 . S
O217 Cd214 2.333 . S
O217 C219 1.214 . S
O218 Cd214 2.352 . S
O218 C221 1.258 . S
C219 O216 1.320 . S
C219 O217 1.214 . S
O220 Cd212 2.277 . S
O220 C215 1.209 . S
C221 O218 1.258 . S
C221 O223 1.282 . S
O222 Cd214 2.277 . S
O222 C215 1.226 . S
O223 Cd214 2.356 . S
O223 C221 1.282 . S
H224 C230 0.930 . S
H225 C233 0.930 . S
H226 C234 0.930 . S
H227 C235 0.930 . S
H228 C238 0.930 1_565 S
H229 C239 0.930 . S
C230 H224 0.930 . S
C230 C231 1.355 . S
C230 C232 1.415 . S
C231 C230 1.355 . S
C231 C233 1.419 . S
C232 C230 1.415 . S
C232 C237 1.425 . S
C232 C239 1.409 . S
C233 H225 0.930 . S
C233 C231 1.419 . S
C233 C234 1.362 . S
C234 H226 0.930 . S
C234 C233 1.362 . S
C234 C237 1.409 . S
C235 H227 0.930 . S
C235 C236 1.355 . S
C235 C237 1.415 . S
C236 C235 1.355 . S
C236 C238 1.419 . S
C237 C232 1.425 . S
C237 C234 1.409 . S
C237 C235 1.415 . S
C238 H228 0.930 1_545 S
C238 C236 1.419 . S
C238 C239 1.362 . S
C239 H229 0.930 . S
C239 C232 1.409 . S
C239 C238 1.362 . S
H240 C246 0.930 . S
H241 C249 0.930 1_545 S
H242 C250 0.930 . S
H243 C251 0.930 . S
H244 C254 0.930 . S
H245 C255 0.930 . S
C246 H240 0.930 . S
C246 C247 1.355 . S
C246 C248 1.415 . S
C247 C246 1.355 . S
C247 C249 1.419 . S
C248 C246 1.415 . S
C248 C253 1.425 . S
C248 C255 1.409 . S
C249 H241 0.930 1_565 S
C249 C247 1.419 . S
C249 C250 1.362 . S
C250 H242 0.930 . S
C250 C249 1.362 . S
C250 C253 1.409 . S
C251 H243 0.930 . S
C251 C252 1.355 . S
C251 C253 1.415 . S
C252 C251 1.355 . S
C252 C254 1.419 . S
C253 C248 1.425 . S
C253 C250 1.409 . S
C253 C251 1.415 . S
C254 H244 0.930 . S
C254 C252 1.419 . S
C254 C255 1.362 . S
C255 H245 0.930 . S
C255 C248 1.409 . S
C255 C254 1.362 . S
H256 C262 0.930 . S
H257 C265 0.930 . S
H258 C266 0.930 . S
H259 C267 0.930 . S
H260 C270 0.930 . S
H261 C271 0.930 . S
C262 H256 0.930 . S
C262 C263 1.355 . S
C262 C264 1.415 . S
C263 C262 1.355 . S
C263 C265 1.419 . S
C264 C262 1.415 . S
C264 C269 1.425 . S
C264 C271 1.409 . S
C265 H257 0.930 . S
C265 C263 1.419 . S
C265 C266 1.362 . S
C266 H258 0.930 . S
C266 C265 1.362 . S
C266 C269 1.409 . S
C267 H259 0.930 . S
C267 C268 1.355 . S
C267 C269 1.415 . S
C268 C267 1.355 . S
C268 C270 1.419 . S
C269 C264 1.425 . S
C269 C266 1.409 . S
C269 C267 1.415 . S
C270 H260 0.930 . S
C270 C268 1.419 . S
C270 C271 1.362 . S
C271 H261 0.930 . S
C271 C264 1.409 . S
C271 C270 1.362 . S
H272 C278 0.930 . S
H273 C281 0.946 . S
H274 C282 0.930 . S
H275 C283 0.930 . S
H276 C286 0.930 . S
H277 C287 0.930 . S
C278 H272 0.930 . S
C278 C279 1.355 . S
C278 C280 1.415 . S
C279 C278 1.355 . S
C279 C281 1.419 . S
C280 C278 1.415 . S
C280 C285 1.425 . S
C280 C287 1.409 . S
C281 H273 0.946 . S
C281 C279 1.419 . S
C281 C282 1.362 . S
C282 H274 0.930 . S
C282 C281 1.362 . S
C282 C285 1.409 . S
C283 H275 0.930 . S
C283 C284 1.355 . S
C283 C285 1.415 . S
C284 C283 1.355 . S
C284 C286 1.419 . S
C285 C280 1.425 . S
C285 C282 1.409 . S
C285 C283 1.415 . S
C286 H276 0.930 . S
C286 C284 1.419 . S
C286 C287 1.362 . S
C287 H277 0.930 . S
C287 C280 1.409 . S
C287 C286 1.362 . S
H288 C294 0.930 . S
H289 C297 0.930 . S
H290 C298 0.930 . S
H291 C299 0.930 . S
H292 C302 0.930 . S
H293 C303 0.930 . S
C294 H288 0.930 . S
C294 C295 1.355 . S
C294 C296 1.415 . S
C295 C294 1.355 . S
C295 C297 1.419 . S
C296 C294 1.415 . S
C296 C301 1.425 . S
C296 C303 1.409 . S
C297 H289 0.930 . S
C297 C295 1.419 . S
C297 C298 1.362 . S
C298 H290 0.930 . S
C298 C297 1.362 . S
C298 C301 1.409 . S
C299 H291 0.930 . S
C299 C300 1.355 . S
C299 C301 1.415 . S
C300 C299 1.355 . S
C300 C302 1.419 . S
C301 C296 1.425 . S
C301 C298 1.409 . S
C301 C299 1.415 . S
C302 H292 0.930 . S
C302 C300 1.419 . S
C302 C303 1.362 . S
C303 H293 0.930 . S
C303 C296 1.409 . S
C303 C302 1.362 . S
H304 C310 0.930 . S
H305 C313 0.930 . S
H306 C314 0.930 . S
H307 C315 0.930 . S
H308 C318 0.930 . S
H309 C319 0.930 . S
C310 H304 0.930 . S
C310 C311 1.355 . S
C310 C312 1.415 . S
C311 C310 1.355 . S
C311 C313 1.419 . S
C312 C310 1.415 . S
C312 C317 1.425 . S
C312 C319 1.409 . S
C313 H305 0.930 . S
C313 C311 1.419 . S
C313 C314 1.362 . S
C314 H306 0.930 . S
C314 C313 1.362 . S
C314 C317 1.409 . S
C315 H307 0.930 . S
C315 C316 1.355 . S
C315 C317 1.415 . S
C316 C315 1.355 . S
C316 C318 1.419 . S
C317 C312 1.425 . S
C317 C314 1.409 . S
C317 C315 1.415 . S
C318 H308 0.930 . S
C318 C316 1.419 . S
C318 C319 1.362 . S
C319 H309 0.930 . S
C319 C312 1.409 . S
C319 C318 1.362 . S
H320 C326 0.930 . S
H321 C329 0.930 . S
H322 C330 0.930 . S
H323 C331 0.930 . S
H324 C334 0.930 . S
H325 C335 0.930 . S
C326 H320 0.930 . S
C326 C327 1.355 . S
C326 C328 1.415 . S
C327 C326 1.355 . S
C327 C329 1.419 . S
C328 C326 1.415 . S
C328 C333 1.425 . S
C328 C335 1.409 . S
C329 H321 0.930 . S
C329 C327 1.419 . S
C329 C330 1.362 . S
C330 H322 0.930 . S
C330 C329 1.362 . S
C330 C333 1.409 . S
C331 H323 0.930 . S
C331 C332 1.355 . S
C331 C333 1.415 . S
C332 C331 1.355 . S
C332 C334 1.419 . S
C333 C328 1.425 . S
C333 C330 1.409 . S
C333 C331 1.415 . S
C334 H324 0.930 . S
C334 C332 1.419 . S
C334 C335 1.362 . S
C335 H325 0.930 . S
C335 C328 1.409 . S
C335 C334 1.362 . S
H336 C342 0.930 . S
H337 C345 0.930 . S
H338 C346 0.930 . S
H339 C347 0.930 . S
H340 C350 0.930 . S
H341 C351 0.930 . S
C342 H336 0.930 . S
C342 C343 1.355 . S
C342 C344 1.415 . S
C343 C342 1.355 . S
C343 C345 1.419 . S
C344 C342 1.415 . S
C344 C349 1.425 . S
C344 C351 1.409 . S
C345 H337 0.930 . S
C345 C343 1.419 . S
C345 C346 1.362 . S
C346 H338 0.930 . S
C346 C345 1.362 . S
C346 C349 1.409 . S
C347 H339 0.930 . S
C347 C348 1.355 . S
C347 C349 1.415 . S
C348 C347 1.355 . S
C348 C350 1.419 . S
C349 C344 1.425 . S
C349 C346 1.409 . S
C349 C347 1.415 . S
C350 H340 0.930 . S
C350 C348 1.419 . S
C350 C351 1.362 . S
C351 H341 0.930 . S
C351 C344 1.409 . S
C351 C350 1.362 . S
H352 C358 0.930 . S
H353 C361 0.930 . S
H354 C362 0.930 . S
H355 C363 0.930 . S
H356 C366 0.930 . S
H357 C367 0.930 . S
C358 H352 0.930 . S
C358 C359 1.355 . S
C358 C360 1.415 . S
C359 C358 1.355 . S
C359 C361 1.419 . S
C360 C358 1.415 . S
C360 C365 1.425 . S
C360 C367 1.409 . S
C361 H353 0.930 . S
C361 C359 1.419 . S
C361 C362 1.362 . S
C362 H354 0.930 . S
C362 C361 1.362 . S
C362 C365 1.409 . S
C363 H355 0.930 . S
C363 C364 1.355 . S
C363 C365 1.415 . S
C364 C363 1.355 . S
C364 C366 1.419 . S
C365 C360 1.425 . S
C365 C362 1.409 . S
C365 C363 1.415 . S
C366 H356 0.930 . S
C366 C364 1.419 . S
C366 C367 1.362 . S
C367 H357 0.930 . S
C367 C360 1.409 . S
C367 C366 1.362 . S
H368 C374 0.930 . S
H369 C377 0.930 . S
H370 C378 0.930 . S
H371 C379 0.930 . S
H372 C382 0.930 1_455 S
H373 C383 0.930 1_455 S
C374 H368 0.930 . S
C374 C375 1.355 1_545 S
C374 C376 1.415 . S
C375 C374 1.355 1_565 S
C375 C377 1.419 . S
C376 C374 1.415 . S
C376 C381 1.425 1_545 S
C376 C383 1.409 . S
C377 H369 0.930 . S
C377 C375 1.419 . S
C377 C378 1.362 . S
C378 H370 0.930 . S
C378 C377 1.362 . S
C378 C381 1.409 . S
C379 H371 0.930 . S
C379 C380 1.355 1_565 S
C379 C381 1.415 . S
C380 C379 1.355 1_545 S
C380 C382 1.419 . S
C381 C376 1.425 1_565 S
C381 C378 1.409 . S
C381 C379 1.415 . S
C382 H372 0.930 1_655 S
C382 C380 1.419 . S
C382 C383 1.362 . S
C383 H373 0.930 1_655 S
C383 C376 1.409 . S
C383 C382 1.362 . S
H384 C390 0.930 . S
H385 C393 0.930 . S
H386 C394 0.930 . S
H387 C395 0.930 . S
H388 C398 0.930 . S
H389 C399 0.930 . S
C390 H384 0.930 . S
C390 C391 1.355 . S
C390 C392 1.415 . S
C391 C390 1.355 . S
C391 C393 1.419 . S
C392 C390 1.415 . S
C392 C397 1.425 1_556 S
C392 C399 1.409 1_556 S
C393 H385 0.930 . S
C393 C391 1.419 . S
C393 C394 1.362 . S
C394 H386 0.930 . S
C394 C393 1.362 . S
C394 C397 1.409 1_556 S
C395 H387 0.930 . S
C395 C396 1.355 . S
C395 C397 1.415 . S
C396 C395 1.355 . S
C396 C398 1.419 . S
C397 C392 1.425 1_554 S
C397 C394 1.409 1_554 S
C397 C395 1.415 . S
C398 H388 0.930 . S
C398 C396 1.419 . S
C398 C399 1.362 . S
C399 H389 0.930 . S
C399 C392 1.409 1_554 S
C399 C398 1.362 . S
H400 C406 0.930 . S
H401 C409 0.930 . S
H402 C410 0.930 . S
H403 C411 0.930 . S
H404 C414 0.930 . S
H405 C415 0.930 . S
C406 H400 0.930 . S
C406 C407 1.368 . S
C406 C408 1.415 . S
C407 C406 1.368 . S
C407 C409 1.401 1_545 S
C408 C406 1.415 . S
C408 C413 1.425 1_545 S
C408 C415 1.409 . S
C409 H401 0.930 . S
C409 C407 1.401 1_565 S
C409 C410 1.362 . S
C410 H402 0.930 . S
C410 C409 1.362 . S
C410 C413 1.409 . S
C411 H403 0.930 . S
C411 C412 1.368 . S
C411 C413 1.415 . S
C412 C411 1.368 . S
C412 C414 1.401 1_565 S
C413 C408 1.425 1_565 S
C413 C410 1.409 . S
C413 C411 1.415 . S
C414 H404 0.930 . S
C414 C412 1.401 1_545 S
C414 C415 1.362 . S
C415 H405 0.930 . S
C415 C408 1.409 . S
C415 C414 1.362 . S
H416 C422 0.930 . S
H417 C425 0.930 . S
H418 C426 0.930 . S
H419 C427 0.930 . S
H420 C430 0.930 . S
H421 C431 0.930 . S
C422 H416 0.930 . S
C422 C423 1.355 . S
C422 C424 1.415 . S
C423 C422 1.355 . S
C423 C425 1.419 . S
C424 C422 1.415 . S
C424 C429 1.425 . S
C424 C431 1.409 . S
C425 H417 0.930 . S
C425 C423 1.419 . S
C425 C426 1.362 . S
C426 H418 0.930 . S
C426 C425 1.362 . S
C426 C429 1.409 . S
C427 H419 0.930 . S
C427 C428 1.355 . S
C427 C429 1.415 . S
C428 C427 1.355 . S
C428 C430 1.419 . S
C429 C424 1.425 . S
C429 C426 1.409 . S
C429 C427 1.415 . S
C430 H420 0.930 . S
C430 C428 1.419 . S
C430 C431 1.362 . S
C431 H421 0.930 . S
C431 C424 1.409 . S
C431 C430 1.362 . S
H432 C438 0.930 . S
H433 C441 0.930 . S
H434 C442 0.930 . S
H435 C443 0.930 . S
H436 C446 0.930 . S
H437 C447 0.930 . S
C438 H432 0.930 . S
C438 C439 1.355 1_655 S
C438 C440 1.415 . S
C439 C438 1.355 1_455 S
C439 C441 1.419 . S
C440 C438 1.415 . S
C440 C445 1.425 1_655 S
C440 C447 1.409 . S
C441 H433 0.930 . S
C441 C439 1.419 . S
C441 C442 1.362 . S
C442 H434 0.930 . S
C442 C441 1.362 . S
C442 C445 1.409 . S
C443 H435 0.930 . S
C443 C444 1.355 1_455 S
C443 C445 1.415 . S
C444 C443 1.355 1_655 S
C444 C446 1.419 . S
C445 C440 1.425 1_455 S
C445 C442 1.409 . S
C445 C443 1.415 . S
C446 H436 0.930 . S
C446 C444 1.419 . S
C446 C447 1.362 . S
C447 H437 0.930 . S
C447 C440 1.409 . S
C447 C446 1.362 . S
H448 C454 0.930 . S
H449 C457 0.930 . S
H450 C458 0.930 . S
H451 C459 0.930 . S
H452 C462 0.930 . S
H453 C463 0.930 . S
C454 H448 0.930 . S
C454 C455 1.355 . S
C454 C456 1.415 . S
C455 C454 1.355 . S
C455 C457 1.419 . S
C456 C454 1.415 . S
C456 C461 1.425 1_655 S
C456 C463 1.409 1_655 S
C457 H449 0.930 . S
C457 C455 1.419 . S
C457 C458 1.362 . S
C458 H450 0.930 . S
C458 C457 1.362 . S
C458 C461 1.409 1_655 S
C459 H451 0.930 . S
C459 C460 1.355 . S
C459 C461 1.415 . S
C460 C459 1.355 . S
C460 C462 1.419 . S
C461 C456 1.425 1_455 S
C461 C458 1.409 1_455 S
C461 C459 1.415 . S
C462 H452 0.930 . S
C462 C460 1.419 . S
C462 C463 1.362 . S
C463 H453 0.930 . S
C463 C456 1.409 1_455 S
C463 C462 1.362 . S
H464 C470 0.930 . S
H465 C473 0.930 . S
H466 C474 0.930 . S
H467 C475 0.930 . S
H468 C478 0.930 . S
H469 C479 0.930 . S
C470 H464 0.930 . S
C470 C471 1.355 1_556 S
C470 C472 1.415 . S
C471 C470 1.355 1_554 S
C471 C473 1.419 . S
C472 C470 1.415 . S
C472 C477 1.425 1_556 S
C472 C479 1.409 . S
C473 H465 0.930 . S
C473 C471 1.419 . S
C473 C474 1.362 . S
C474 H466 0.930 . S
C474 C473 1.362 . S
C474 C477 1.409 . S
C475 H467 0.930 . S
C475 C476 1.355 1_554 S
C475 C477 1.415 . S
C476 C475 1.355 1_556 S
C476 C478 1.419 . S
C477 C472 1.425 1_554 S
C477 C474 1.409 . S
C477 C475 1.415 . S
C478 H468 0.930 . S
C478 C476 1.419 . S
C478 C479 1.362 . S
C479 H469 0.930 . S
C479 C472 1.409 . S
C479 C478 1.362 . S
H480 C486 0.930 . S
H481 C489 0.930 . S
H482 C490 0.930 . S
H483 C491 0.930 . S
H484 C494 0.930 . S
H485 C495 0.930 . S
C486 H480 0.930 . S
C486 C487 1.355 . S
C486 C488 1.415 . S
C487 C486 1.355 . S
C487 C489 1.419 . S
C488 C486 1.415 . S
C488 C493 1.425 . S
C488 C495 1.409 . S
C489 H481 0.930 . S
C489 C487 1.419 . S
C489 C490 1.362 . S
C490 H482 0.930 . S
C490 C489 1.362 . S
C490 C493 1.409 . S
C491 H483 0.930 . S
C491 C492 1.355 . S
C491 C493 1.415 . S
C492 C491 1.355 . S
C492 C494 1.419 . S
C493 C488 1.425 . S
C493 C490 1.409 . S
C493 C491 1.415 . S
C494 H484 0.930 . S
C494 C492 1.419 . S
C494 C495 1.362 . S
C495 H485 0.930 . S
C495 C488 1.409 . S
C495 C494 1.362 . S
H496 C502 0.930 . S
H497 C505 0.930 . S
H498 C506 0.930 . S
H499 C507 0.930 . S
H500 C510 0.930 . S
H501 C511 0.930 . S
C502 H496 0.930 . S
C502 C503 1.355 . S
C502 C504 1.415 . S
C503 C502 1.355 . S
C503 C505 1.419 . S
C504 C502 1.415 . S
C504 C509 1.425 . S
C504 C511 1.409 . S
C505 H497 0.930 . S
C505 C503 1.419 . S
C505 C506 1.362 . S
C506 H498 0.930 . S
C506 C505 1.362 . S
C506 C509 1.409 . S
C507 H499 0.930 . S
C507 C508 1.355 . S
C507 C509 1.415 . S
C508 C507 1.355 . S
C508 C510 1.419 . S
C509 C504 1.425 . S
C509 C506 1.409 . S
C509 C507 1.415 . S
C510 H500 0.930 . S
C510 C508 1.419 . S
C510 C511 1.362 . S
C511 H501 0.930 . S
C511 C504 1.409 . S
C511 C510 1.362 . S
H512 C518 0.930 . S
H513 C521 0.930 . S
H514 C522 0.930 . S
H515 C523 0.930 . S
H516 C526 0.930 . S
H517 C527 0.930 . S
C518 H512 0.930 . S
C518 C519 1.355 . S
C518 C520 1.415 . S
C519 C518 1.355 . S
C519 C521 1.419 . S
C520 C518 1.415 . S
C520 C525 1.425 1_455 S
C520 C527 1.409 1_455 S
C521 H513 0.930 . S
C521 C519 1.419 . S
C521 C522 1.362 . S
C522 H514 0.930 . S
C522 C521 1.362 . S
C522 C525 1.409 1_455 S
C523 H515 0.930 . S
C523 C524 1.355 . S
C523 C525 1.415 . S
C524 C523 1.355 . S
C524 C526 1.419 . S
C525 C520 1.425 1_655 S
C525 C522 1.409 1_655 S
C525 C523 1.415 . S
C526 H516 0.930 . S
C526 C524 1.419 . S
C526 C527 1.362 . S
C527 H517 0.930 . S
C527 C520 1.409 1_655 S
C527 C526 1.362 . S
H528 C534 0.930 . S
H529 C537 0.930 . S
H530 C538 0.930 . S
H531 C539 0.930 . S
H532 C542 0.930 . S
H533 C543 0.930 . S
C534 H528 0.930 . S
C534 C535 1.355 1_554 S
C534 C536 1.414 1_455 S
C535 C534 1.355 1_556 S
C535 C537 1.419 . S
C536 C534 1.414 1_655 S
C536 C541 1.424 1_654 S
C536 C543 1.411 . S
C537 H529 0.930 . S
C537 C535 1.419 . S
C537 C538 1.362 . S
C538 H530 0.930 . S
C538 C537 1.362 . S
C538 C541 1.411 . S
C539 H531 0.930 . S
C539 C540 1.355 1_556 S
C539 C541 1.414 1_655 S
C540 C539 1.355 1_554 S
C540 C542 1.419 . S
C541 C536 1.424 1_456 S
C541 C538 1.411 . S
C541 C539 1.414 1_455 S
C542 H532 0.930 . S
C542 C540 1.419 . S
C542 C543 1.362 . S
C543 H533 0.930 . S
C543 C536 1.411 . S
C543 C542 1.362 . S
H544 C550 0.930 . S
H545 C553 0.930 . S
H546 C554 0.930 . S
H547 C555 0.930 . S
H548 C558 0.930 . S
H549 C559 0.930 . S
C550 H544 0.930 . S
C550 C551 1.355 . S
C550 C552 1.415 . S
C551 C550 1.355 . S
C551 C553 1.419 . S
C552 C550 1.415 . S
C552 C557 1.425 . S
C552 C559 1.409 . S
C553 H545 0.930 . S
C553 C551 1.419 . S
C553 C554 1.362 . S
C554 H546 0.930 . S
C554 C553 1.362 . S
C554 C557 1.409 . S
C555 H547 0.930 . S
C555 C556 1.355 . S
C555 C557 1.415 . S
C556 C555 1.355 . S
C556 C558 1.419 . S
C557 C552 1.425 . S
C557 C554 1.409 . S
C557 C555 1.415 . S
C558 H548 0.930 . S
C558 C556 1.419 . S
C558 C559 1.362 . S
C559 H549 0.930 . S
C559 C552 1.409 . S
C559 C558 1.362 . S
H560 C566 0.930 . S
H561 C569 0.930 . S
H562 C570 0.930 . S
H563 C571 0.930 . S
H564 C574 0.930 . S
H565 C575 0.930 . S
C566 H560 0.930 . S
C566 C567 1.355 . S
C566 C568 1.415 . S
C567 C566 1.355 . S
C567 C569 1.419 . S
C568 C566 1.415 . S
C568 C573 1.425 1_545 S
C568 C575 1.409 1_545 S
C569 H561 0.930 . S
C569 C567 1.419 . S
C569 C570 1.362 . S
C570 H562 0.930 . S
C570 C569 1.362 . S
C570 C573 1.409 1_545 S
C571 H563 0.930 . S
C571 C572 1.355 . S
C571 C573 1.415 . S
C572 C571 1.355 . S
C572 C574 1.419 . S
C573 C568 1.425 1_565 S
C573 C570 1.409 1_565 S
C573 C571 1.415 . S
C574 H564 0.930 . S
C574 C572 1.419 . S
C574 C575 1.362 . S
C575 H565 0.930 . S
C575 C568 1.409 1_565 S
C575 C574 1.362 . S
H576 C582 0.930 . S
H577 C585 0.930 . S
H578 C586 0.930 . S
H579 C587 0.930 . S
H580 C590 0.930 . S
H581 C591 0.930 . S
C582 H576 0.930 . S
C582 C583 1.355 . S
C582 C584 1.415 . S
C583 C582 1.355 . S
C583 C585 1.419 1_556 S
C584 C582 1.415 . S
C584 C589 1.425 1_556 S
C584 C591 1.409 . S
C585 H577 0.930 . S
C585 C583 1.419 1_554 S
C585 C586 1.362 . S
C586 H578 0.930 . S
C586 C585 1.362 . S
C586 C589 1.409 . S
C587 H579 0.930 . S
C587 C588 1.355 . S
C587 C589 1.415 . S
C588 C587 1.355 . S
C588 C590 1.419 1_554 S
C589 C584 1.425 1_554 S
C589 C586 1.409 . S
C589 C587 1.415 . S
C590 H580 0.930 . S
C590 C588 1.419 1_556 S
C590 C591 1.362 . S
C591 H581 0.930 . S
C591 C584 1.409 . S
C591 C590 1.362 . S
H592 C598 0.930 . S
H593 C601 0.930 . S
H594 C602 0.930 . S
H595 C603 0.930 . S
H596 C606 0.930 . S
H597 C607 0.930 . S
C598 H592 0.930 . S
C598 C599 1.355 . S
C598 C600 1.415 . S
C599 C598 1.355 . S
C599 C601 1.419 . S
C600 C598 1.415 . S
C600 C605 1.425 1_545 S
C600 C607 1.409 1_545 S
C601 H593 0.930 . S
C601 C599 1.419 . S
C601 C602 1.362 . S
C602 H594 0.930 . S
C602 C601 1.362 . S
C602 C605 1.409 1_545 S
C603 H595 0.930 . S
C603 C604 1.355 . S
C603 C605 1.415 . S
C604 C603 1.355 . S
C604 C606 1.419 . S
C605 C600 1.425 1_565 S
C605 C602 1.409 1_565 S
C605 C603 1.415 . S
C606 H596 0.930 . S
C606 C604 1.419 . S
C606 C607 1.362 . S
C607 H597 0.930 . S
C607 C600 1.409 1_565 S
C607 C606 1.362 . S
H608 C614 0.930 . S
H609 C617 0.930 . S
H610 C618 0.930 . S
H611 C619 0.930 . S
H612 C622 0.930 . S
H613 C623 0.930 . S
C614 H608 0.930 . S
C614 C615 1.355 1_556 S
C614 C616 1.415 . S
C615 C614 1.355 1_554 S
C615 C617 1.419 . S
C616 C614 1.415 . S
C616 C621 1.425 1_556 S
C616 C623 1.409 . S
C617 H609 0.930 . S
C617 C615 1.419 . S
C617 C618 1.362 . S
C618 H610 0.930 . S
C618 C617 1.362 . S
C618 C621 1.409 . S
C619 H611 0.930 . S
C619 C620 1.355 1_554 S
C619 C621 1.415 . S
C620 C619 1.355 1_556 S
C620 C622 1.419 . S
C621 C616 1.425 1_554 S
C621 C618 1.409 . S
C621 C619 1.415 . S
C622 H612 0.930 . S
C622 C620 1.419 . S
C622 C623 1.362 . S
C623 H613 0.930 . S
C623 C616 1.409 . S
C623 C622 1.362 . S
H624 C630 0.930 . S
H625 C633 0.930 . S
H626 C634 0.930 . S
H627 C635 0.930 . S
H628 C638 0.930 . S
H629 C639 0.930 . S
C630 H624 0.930 . S
C630 C631 1.355 . S
C630 C632 1.415 . S
C631 C630 1.355 . S
C631 C633 1.419 . S
C632 C630 1.415 . S
C632 C637 1.425 . S
C632 C639 1.409 . S
C633 H625 0.930 . S
C633 C631 1.419 . S
C633 C634 1.362 . S
C634 H626 0.930 . S
C634 C633 1.362 . S
C634 C637 1.409 . S
C635 H627 0.930 . S
C635 C636 1.355 . S
C635 C637 1.415 . S
C636 C635 1.355 . S
C636 C638 1.419 . S
C637 C632 1.425 . S
C637 C634 1.409 . S
C637 C635 1.415 . S
C638 H628 0.930 . S
C638 C636 1.419 . S
C638 C639 1.362 . S
C639 H629 0.930 . S
C639 C632 1.409 . S
C639 C638 1.362 . S
H640 C646 0.930 . S
H641 C649 0.930 . S
H642 C650 0.930 . S
H643 C651 0.930 . S
H644 C654 0.930 . S
H645 C655 0.930 . S
C646 H640 0.930 . S
C646 C647 1.355 . S
C646 C648 1.415 . S
C647 C646 1.355 . S
C647 C649 1.419 . S
C648 C646 1.415 . S
C648 C653 1.425 . S
C648 C655 1.409 . S
C649 H641 0.930 . S
C649 C647 1.419 . S
C649 C650 1.362 . S
C650 H642 0.930 . S
C650 C649 1.362 . S
C650 C653 1.409 . S
C651 H643 0.930 . S
C651 C652 1.355 . S
C651 C653 1.415 . S
C652 C651 1.355 . S
C652 C654 1.419 . S
C653 C648 1.425 . S
C653 C650 1.409 . S
C653 C651 1.415 . S
C654 H644 0.930 . S
C654 C652 1.419 . S
C654 C655 1.362 . S
C655 H645 0.930 . S
C655 C648 1.409 . S
C655 C654 1.362 . S
H656 C662 0.930 . S
H657 C665 0.930 . S
H658 C666 0.930 . S
H659 C667 0.930 . S
H660 C670 0.930 . S
H661 C671 0.930 . S
C662 H656 0.930 . S
C662 C663 1.355 . S
C662 C664 1.415 . S
C663 C662 1.355 . S
C663 C665 1.419 . S
C664 C662 1.415 . S
C664 C669 1.425 1_556 S
C664 C671 1.409 1_556 S
C665 H657 0.930 . S
C665 C663 1.419 . S
C665 C666 1.362 . S
C666 H658 0.930 . S
C666 C665 1.362 . S
C666 C669 1.409 1_556 S
C667 H659 0.930 . S
C667 C668 1.355 . S
C667 C669 1.415 . S
C668 C667 1.355 . S
C668 C670 1.419 . S
C669 C664 1.425 1_554 S
C669 C666 1.409 1_554 S
C669 C667 1.415 . S
C670 H660 0.930 . S
C670 C668 1.419 . S
C670 C671 1.362 . S
C671 H661 0.930 . S
C671 C664 1.409 1_554 S
C671 C670 1.362 . S
H672 C678 0.930 . S
H673 C681 0.930 . S
H674 C682 0.930 . S
H675 C683 0.930 . S
H676 C686 0.930 . S
H677 C687 0.930 . S
C678 H672 0.930 . S
C678 C679 1.355 . S
C678 C680 1.415 . S
C679 C678 1.355 . S
C679 C681 1.419 . S
C680 C678 1.415 . S
C680 C685 1.425 . S
C680 C687 1.409 . S
C681 H673 0.930 . S
C681 C679 1.419 . S
C681 C682 1.362 . S
C682 H674 0.930 . S
C682 C681 1.362 . S
C682 C685 1.409 . S
C683 H675 0.930 . S
C683 C684 1.355 . S
C683 C685 1.415 . S
C684 C683 1.355 . S
C684 C686 1.419 . S
C685 C680 1.425 . S
C685 C682 1.409 . S
C685 C683 1.415 . S
C686 H676 0.930 . S
C686 C684 1.419 . S
C686 C687 1.362 . S
C687 H677 0.930 . S
C687 C680 1.409 . S
C687 C686 1.362 . S
H688 C694 0.930 . S
H689 C697 0.930 . S
H690 C698 0.930 . S
H691 C699 0.930 . S
H692 C702 0.930 . S
H693 C703 0.930 . S
C694 H688 0.930 . S
C694 C695 1.355 . S
C694 C696 1.415 . S
C695 C694 1.355 . S
C695 C697 1.419 . S
C696 C694 1.415 . S
C696 C701 1.425 . S
C696 C703 1.409 . S
C697 H689 0.930 . S
C697 C695 1.419 . S
C697 C698 1.362 . S
C698 H690 0.930 . S
C698 C697 1.362 . S
C698 C701 1.409 . S
C699 H691 0.930 . S
C699 C700 1.355 . S
C699 C701 1.415 . S
C700 C699 1.355 . S
C700 C702 1.419 . S
C701 C696 1.425 . S
C701 C698 1.409 . S
C701 C699 1.415 . S
C702 H692 0.930 . S
C702 C700 1.419 . S
C702 C703 1.362 . S
C703 H693 0.930 . S
C703 C696 1.409 . S
C703 C702 1.362 . S
H704 C710 0.930 . S
H705 C713 0.930 . S
H706 C714 0.930 . S
H707 C715 0.930 . S
H708 C718 0.930 . S
H709 C719 0.930 . S
C710 H704 0.930 . S
C710 C711 1.355 . S
C710 C712 1.415 . S
C711 C710 1.355 . S
C711 C713 1.419 . S
C712 C710 1.415 . S
C712 C717 1.425 . S
C712 C719 1.409 . S
C713 H705 0.930 . S
C713 C711 1.419 . S
C713 C714 1.362 . S
C714 H706 0.930 . S
C714 C713 1.362 . S
C714 C717 1.409 . S
C715 H707 0.930 . S
C715 C716 1.355 . S
C715 C717 1.415 . S
C716 C715 1.355 . S
C716 C718 1.419 . S
C717 C712 1.425 . S
C717 C714 1.409 . S
C717 C715 1.415 . S
C718 H708 0.930 . S
C718 C716 1.419 . S
C718 C719 1.362 . S
C719 H709 0.930 . S
C719 C712 1.409 . S
C719 C718 1.362 . S
H720 C726 0.930 . S
H721 C729 0.930 . S
H722 C730 0.930 . S
H723 C731 0.930 . S
H724 C734 0.930 . S
H725 C735 0.930 . S
C726 H720 0.930 . S
C726 C727 1.355 . S
C726 C728 1.415 . S
C727 C726 1.355 . S
C727 C729 1.419 1_565 S
C728 C726 1.415 . S
C728 C733 1.417 1_565 S
C728 C735 1.409 . S
C729 H721 0.930 . S
C729 C727 1.419 1_545 S
C729 C730 1.362 . S
C730 H722 0.930 . S
C730 C729 1.362 . S
C730 C733 1.415 . S
C731 H723 0.930 . S
C731 C732 1.355 1_545 S
C731 C733 1.416 . S
C732 C731 1.355 1_565 S
C732 C734 1.419 . S
C733 C728 1.417 1_545 S
C733 C730 1.415 . S
C733 C731 1.416 . S
C734 H724 0.930 . S
C734 C732 1.419 . S
C734 C735 1.362 . S
C735 H725 0.930 . S
C735 C728 1.409 . S
C735 C734 1.362 . S
C231 C11 1.773 . S
C236 C109 1.794 . S
C247 C25 1.773 . S
C252 C67 1.764 . S
C263 C81 1.805 . S
C268 C39 1.784 . S
C279 C53 1.770 . S
C284 C95 1.765 . S
C295 C123 1.810 . S
C300 C179 1.794 . S
C311 C137 1.797 . S
C316 C207 1.776 . S
C327 C165 1.779 . S
C332 C151 1.764 . S
C343 C221 1.775 . S
C348 C193 1.796 . S
C359 C9 1.616 . S
C364 C93 1.621 . S
C375 C103 1.319 . S
C380 C19 1.317 . S
C391 C37 1.619 . S
C396 C65 1.624 . S
C407 C75 1.327 . S
C412 C47 1.327 . S
C423 C0 0.907 . S
C428 C196 0.994 . S
C439 C163 1.599 . S
C444 C23 1.597 . S
C455 C182 0.894 . S
C460 C28 0.957 . S
C471 C177 1.623 . S
C476 C51 1.627 1_556 S
C487 C140 0.902 . S
C492 C56 0.929 . S
C503 C79 1.613 . S
C508 C219 1.608 . S
C519 C84 0.915 . S
C524 C112 0.911 . S
C535 C107 1.619 1_455 S
C540 C135 1.624 1_654 S
C551 C5 1.320 . S
C556 C61 1.322 . S
C567 C117 1.321 . S
C572 C187 1.323 . S
C583 C168 0.894 . S
C588 C126 0.959 . S
C599 C201 1.323 . S
C604 C145 1.321 . S
C615 C98 1.012 . S
C620 C42 0.986 . S
C631 C33 1.316 . S
C636 C89 1.317 . S
C647 C154 1.006 . S
C652 C210 0.920 . S
C663 C191 1.598 . S
C668 C149 1.597 . S
C679 C215 1.322 . S
C684 C173 1.320 . S
C695 C205 1.613 . S
C700 C121 1.618 . S
C711 C159 1.323 . S
C716 C131 1.323 . S
C727 C14 0.964 . S
C732 C70 1.018 . S
