# Generated by pormake.
# Topology uox, (4)-cn, num edge types: 1
# Building blocks:
#     Node 0, Type 0, BuildingBlock: GALJAG_clean_sbu_0, # of connection points: 4
#     Node 1, Type 0, BuildingBlock: GALJAG_clean_sbu_0, # of connection points: 4
#     Node 2, Type 0, BuildingBlock: GALJAG_clean_sbu_0, # of connection points: 4
#     Node 3, Type 0, BuildingBlock: GALJAG_clean_sbu_0, # of connection points: 4
#     Node 4, Type 0, BuildingBlock: GALJAG_clean_sbu_0, # of connection points: 4
#     Node 5, Type 0, BuildingBlock: GALJAG_clean_sbu_0, # of connection points: 4
#     Node 6, Type 0, BuildingBlock: GALJAG_clean_sbu_0, # of connection points: 4
#     Node 7, Type 0, BuildingBlock: GALJAG_clean_sbu_0, # of connection points: 4
#     Node 8, Type 0, BuildingBlock: GALJAG_clean_sbu_0, # of connection points: 4
#     Node 9, Type 0, BuildingBlock: GALJAG_clean_sbu_0, # of connection points: 4
#     Node 10, Type 0, BuildingBlock: GALJAG_clean_sbu_0, # of connection points: 4
#     Node 11, Type 0, BuildingBlock: GALJAG_clean_sbu_0, # of connection points: 4
#     Node 12, Type 0, BuildingBlock: GALJAG_clean_sbu_0, # of connection points: 4
#     Node 13, Type 0, BuildingBlock: GALJAG_clean_sbu_0, # of connection points: 4
#     Node 14, Type 0, BuildingBlock: GALJAG_clean_sbu_0, # of connection points: 4
#     Node 15, Type 0, BuildingBlock: GALJAG_clean_sbu_0, # of connection points: 4
#     Node 16, Type 0, BuildingBlock: GALJAG_clean_sbu_0, # of connection points: 4
#     Node 17, Type 0, BuildingBlock: GALJAG_clean_sbu_0, # of connection points: 4
#     Node 18, Type 0, BuildingBlock: GALJAG_clean_sbu_0, # of connection points: 4
#     Node 19, Type 0, BuildingBlock: GALJAG_clean_sbu_0, # of connection points: 4
#     Node 20, Type 0, BuildingBlock: GALJAG_clean_sbu_0, # of connection points: 4
#     Node 21, Type 0, BuildingBlock: GALJAG_clean_sbu_0, # of connection points: 4
#     Node 22, Type 0, BuildingBlock: GALJAG_clean_sbu_0, # of connection points: 4
#     Node 23, Type 0, BuildingBlock: GALJAG_clean_sbu_0, # of connection points: 4
#     Node 24, Type 0, BuildingBlock: GALJAG_clean_sbu_0, # of connection points: 4
#     Node 25, Type 0, BuildingBlock: GALJAG_clean_sbu_0, # of connection points: 4
#     Node 26, Type 0, BuildingBlock: GALJAG_clean_sbu_0, # of connection points: 4
#     Node 27, Type 0, BuildingBlock: GALJAG_clean_sbu_0, # of connection points: 4
#     Node 28, Type 0, BuildingBlock: GALJAG_clean_sbu_0, # of connection points: 4
#     Node 29, Type 0, BuildingBlock: GALJAG_clean_sbu_0, # of connection points: 4
#     Node 30, Type 0, BuildingBlock: GALJAG_clean_sbu_0, # of connection points: 4
#     Node 31, Type 0, BuildingBlock: GALJAG_clean_sbu_0, # of connection points: 4
#     Edge 32, Type (0, 0), BuildingBlock: AJUNOK_clean_linker_0, # of connection points: 2
#     Edge 33, Type (0, 0), BuildingBlock: AJUNOK_clean_linker_0, # of connection points: 2
#     Edge 34, Type (0, 0), BuildingBlock: AJUNOK_clean_linker_0, # of connection points: 2
#     Edge 35, Type (0, 0), BuildingBlock: AJUNOK_clean_linker_0, # of connection points: 2
#     Edge 36, Type (0, 0), BuildingBlock: AJUNOK_clean_linker_0, # of connection points: 2
#     Edge 37, Type (0, 0), BuildingBlock: AJUNOK_clean_linker_0, # of connection points: 2
#     Edge 38, Type (0, 0), BuildingBlock: AJUNOK_clean_linker_0, # of connection points: 2
#     Edge 39, Type (0, 0), BuildingBlock: AJUNOK_clean_linker_0, # of connection points: 2
#     Edge 40, Type (0, 0), BuildingBlock: AJUNOK_clean_linker_0, # of connection points: 2
#     Edge 41, Type (0, 0), BuildingBlock: AJUNOK_clean_linker_0, # of connection points: 2
#     Edge 42, Type (0, 0), BuildingBlock: AJUNOK_clean_linker_0, # of connection points: 2
#     Edge 43, Type (0, 0), BuildingBlock: AJUNOK_clean_linker_0, # of connection points: 2
#     Edge 44, Type (0, 0), BuildingBlock: AJUNOK_clean_linker_0, # of connection points: 2
#     Edge 45, Type (0, 0), BuildingBlock: AJUNOK_clean_linker_0, # of connection points: 2
#     Edge 46, Type (0, 0), BuildingBlock: AJUNOK_clean_linker_0, # of connection points: 2
#     Edge 47, Type (0, 0), BuildingBlock: AJUNOK_clean_linker_0, # of connection points: 2
#     Edge 48, Type (0, 0), BuildingBlock: AJUNOK_clean_linker_0, # of connection points: 2
#     Edge 49, Type (0, 0), BuildingBlock: AJUNOK_clean_linker_0, # of connection points: 2
#     Edge 50, Type (0, 0), BuildingBlock: AJUNOK_clean_linker_0, # of connection points: 2
#     Edge 51, Type (0, 0), BuildingBlock: AJUNOK_clean_linker_0, # of connection points: 2
#     Edge 52, Type (0, 0), BuildingBlock: AJUNOK_clean_linker_0, # of connection points: 2
#     Edge 53, Type (0, 0), BuildingBlock: AJUNOK_clean_linker_0, # of connection points: 2
#     Edge 54, Type (0, 0), BuildingBlock: AJUNOK_clean_linker_0, # of connection points: 2
#     Edge 55, Type (0, 0), BuildingBlock: AJUNOK_clean_linker_0, # of connection points: 2
#     Edge 56, Type (0, 0), BuildingBlock: AJUNOK_clean_linker_0, # of connection points: 2
#     Edge 57, Type (0, 0), BuildingBlock: AJUNOK_clean_linker_0, # of connection points: 2
#     Edge 58, Type (0, 0), BuildingBlock: AJUNOK_clean_linker_0, # of connection points: 2
#     Edge 59, Type (0, 0), BuildingBlock: AJUNOK_clean_linker_0, # of connection points: 2
#     Edge 60, Type (0, 0), BuildingBlock: AJUNOK_clean_linker_0, # of connection points: 2
#     Edge 61, Type (0, 0), BuildingBlock: AJUNOK_clean_linker_0, # of connection points: 2
#     Edge 62, Type (0, 0), BuildingBlock: AJUNOK_clean_linker_0, # of connection points: 2
#     Edge 63, Type (0, 0), BuildingBlock: AJUNOK_clean_linker_0, # of connection points: 2
#     Edge 64, Type (0, 0), BuildingBlock: AJUNOK_clean_linker_0, # of connection points: 2
#     Edge 65, Type (0, 0), BuildingBlock: AJUNOK_clean_linker_0, # of connection points: 2
#     Edge 66, Type (0, 0), BuildingBlock: AJUNOK_clean_linker_0, # of connection points: 2
#     Edge 67, Type (0, 0), BuildingBlock: AJUNOK_clean_linker_0, # of connection points: 2
#     Edge 68, Type (0, 0), BuildingBlock: AJUNOK_clean_linker_0, # of connection points: 2
#     Edge 69, Type (0, 0), BuildingBlock: AJUNOK_clean_linker_0, # of connection points: 2
#     Edge 70, Type (0, 0), BuildingBlock: AJUNOK_clean_linker_0, # of connection points: 2
#     Edge 71, Type (0, 0), BuildingBlock: AJUNOK_clean_linker_0, # of connection points: 2
#     Edge 72, Type (0, 0), BuildingBlock: AJUNOK_clean_linker_0, # of connection points: 2
#     Edge 73, Type (0, 0), BuildingBlock: AJUNOK_clean_linker_0, # of connection points: 2
#     Edge 74, Type (0, 0), BuildingBlock: AJUNOK_clean_linker_0, # of connection points: 2
#     Edge 75, Type (0, 0), BuildingBlock: AJUNOK_clean_linker_0, # of connection points: 2
#     Edge 76, Type (0, 0), BuildingBlock: AJUNOK_clean_linker_0, # of connection points: 2
#     Edge 77, Type (0, 0), BuildingBlock: AJUNOK_clean_linker_0, # of connection points: 2
#     Edge 78, Type (0, 0), BuildingBlock: AJUNOK_clean_linker_0, # of connection points: 2
#     Edge 79, Type (0, 0), BuildingBlock: AJUNOK_clean_linker_0, # of connection points: 2
#     Edge 80, Type (0, 0), BuildingBlock: AJUNOK_clean_linker_0, # of connection points: 2
#     Edge 81, Type (0, 0), BuildingBlock: AJUNOK_clean_linker_0, # of connection points: 2
#     Edge 82, Type (0, 0), BuildingBlock: AJUNOK_clean_linker_0, # of connection points: 2
#     Edge 83, Type (0, 0), BuildingBlock: AJUNOK_clean_linker_0, # of connection points: 2
#     Edge 84, Type (0, 0), BuildingBlock: AJUNOK_clean_linker_0, # of connection points: 2
#     Edge 85, Type (0, 0), BuildingBlock: AJUNOK_clean_linker_0, # of connection points: 2
#     Edge 86, Type (0, 0), BuildingBlock: AJUNOK_clean_linker_0, # of connection points: 2
#     Edge 87, Type (0, 0), BuildingBlock: AJUNOK_clean_linker_0, # of connection points: 2
#     Edge 88, Type (0, 0), BuildingBlock: AJUNOK_clean_linker_0, # of connection points: 2
#     Edge 89, Type (0, 0), BuildingBlock: AJUNOK_clean_linker_0, # of connection points: 2
#     Edge 90, Type (0, 0), BuildingBlock: AJUNOK_clean_linker_0, # of connection points: 2
#     Edge 91, Type (0, 0), BuildingBlock: AJUNOK_clean_linker_0, # of connection points: 2
#     Edge 92, Type (0, 0), BuildingBlock: AJUNOK_clean_linker_0, # of connection points: 2
#     Edge 93, Type (0, 0), BuildingBlock: AJUNOK_clean_linker_0, # of connection points: 2
#     Edge 94, Type (0, 0), BuildingBlock: AJUNOK_clean_linker_0, # of connection points: 2
#     Edge 95, Type (0, 0), BuildingBlock: AJUNOK_clean_linker_0, # of connection points: 2
# Relax obj value: 0.005
# Max RMSD: 0.035
# Mean RMSD: 0.035
data_MOF--net-uox--node1-GALJAG_clean_sbu_0--edge1-AJUNOK_clean_linker_0
_symmetry_space_group_name_H-M    P1
_symmetry_Int_Tables_number       1
_symmetry_cell_setting            triclinic
loop_
_symmetry_equiv_pos_as_xyz
'x, y, z'
_cell_length_a     35.719513
_cell_length_b     35.677903
_cell_length_c     53.585325
_cell_angle_alpha  89.977236
_cell_angle_beta   89.985235
_cell_angle_gamma 90.033986
loop_
_atom_site_label
_atom_site_type_symbol
_atom_site_fract_x
_atom_site_fract_y
_atom_site_fract_z
_atom_type_partial_charge
In0 In 0.39835 0.06982 0.15624 0.0
O1 O 0.3815 0.01661 0.13534 0.0
O2 O 0.33836 0.05063 0.15068 0.0
C3 C 0.47055 0.07907 0.14246 0.0
C4 C 0.4026 0.04109 0.20269 0.0
C5 C 0.37194 0.13721 0.14139 0.0
O6 O 0.44696 0.06285 0.12861 0.0
O7 O 0.45776 0.08977 0.16319 0.0
O8 O 0.37287 0.12777 0.16415 0.0
O9 O 0.38369 0.11248 0.12653 0.0
C10 C 0.34684 0.02117 0.13898 0.0
O11 O 0.39255 0.07454 0.19865 0.0
O12 O 0.41093 0.02269 0.18339 0.0
In13 In 0.18753 0.15039 0.40603 0.0
O14 O 0.18438 0.14662 0.44862 0.0
O15 O 0.2361 0.16236 0.43196 0.0
C16 C 0.11945 0.12367 0.39352 0.0
C17 C 0.23425 0.09736 0.38873 0.0
C18 C 0.17924 0.22202 0.39069 0.0
O19 O 0.1303 0.12548 0.41596 0.0
O20 O 0.14301 0.13514 0.37771 0.0
O21 O 0.19454 0.19735 0.37722 0.0
O22 O 0.16903 0.21061 0.4119 0.0
C23 C 0.2184 0.15529 0.45176 0.0
O24 O 0.23977 0.13187 0.38489 0.0
O25 O 0.20473 0.08975 0.4006 0.0
In26 In 0.10534 0.93545 0.65731 0.0
O27 O 0.12223 0.98826 0.63592 0.0
O28 O 0.16529 0.95507 0.65218 0.0
C29 C 0.03473 0.92414 0.64028 0.0
C30 C 0.09999 0.96819 0.70251 0.0
C31 C 0.13588 0.86788 0.64714 0.0
O32 O 0.06 0.93872 0.62697 0.0
O33 O 0.04498 0.91607 0.66214 0.0
O34 O 0.12741 0.87763 0.66911 0.0
O35 O 0.12899 0.89221 0.63067 0.0
C36 C 0.15683 0.98411 0.64 0.0
O37 O 0.10998 0.93442 0.69993 0.0
O38 O 0.0916 0.98464 0.68246 0.0
In39 In 0.31837 0.85565 0.90346 0.0
O40 O 0.32164 0.85931 0.94613 0.0
O41 O 0.27004 0.84324 0.92947 0.0
C42 C 0.38579 0.88413 0.89095 0.0
C43 C 0.26938 0.90681 0.88626 0.0
C44 C 0.32878 0.7841 0.88829 0.0
O45 O 0.37444 0.88322 0.91331 0.0
O46 O 0.36299 0.87107 0.8752 0.0
O47 O 0.31303 0.80836 0.87471 0.0
O48 O 0.3383 0.79581 0.90957 0.0
C49 C 0.28764 0.8505 0.94926 0.0
O50 O 0.26489 0.87205 0.88293 0.0
O51 O 0.29936 0.91575 0.89716 0.0
In52 In 0.39764 0.93799 0.34592 0.0
O53 O 0.39435 0.93561 0.30319 0.0
O54 O 0.40955 0.98711 0.32038 0.0
C55 C 0.37156 0.86956 0.35868 0.0
C56 C 0.34502 0.98485 0.36355 0.0
C57 C 0.46916 0.92993 0.36126 0.0
O58 O 0.37207 0.88073 0.33626 0.0
O59 O 0.38378 0.89301 0.3743 0.0
O60 O 0.44449 0.94537 0.37463 0.0
O61 O 0.45784 0.91945 0.34008 0.0
C62 C 0.40279 0.96981 0.30038 0.0
O63 O 0.37951 0.98992 0.36748 0.0
O64 O 0.33713 0.95557 0.35147 0.0
In65 In 0.31459 0.15002 0.59682 0.0
O66 O 0.26135 0.13192 0.6173 0.0
O67 O 0.29649 0.08961 0.60204 0.0
C68 C 0.32227 0.22257 0.61059 0.0
C69 C 0.28672 0.15412 0.55022 0.0
C70 C 0.38194 0.12313 0.61107 0.0
O71 O 0.30757 0.19843 0.6248 0.0
O72 O 0.33252 0.21007 0.5897 0.0
O73 O 0.37252 0.12533 0.58836 0.0
O74 O 0.35739 0.13443 0.62622 0.0
C75 C 0.26676 0.09734 0.61362 0.0
O76 O 0.32043 0.14536 0.55449 0.0
O77 O 0.26751 0.16107 0.56942 0.0
In78 In 0.10835 0.07058 0.84568 0.0
O79 O 0.12389 0.01741 0.86694 0.0
O80 O 0.16795 0.04966 0.8511 0.0
C81 C 0.0363 0.07975 0.85987 0.0
C82 C 0.1028 0.04116 0.7995 0.0
C83 C 0.13639 0.13834 0.85837 0.0
O84 O 0.06066 0.06593 0.87425 0.0
O85 O 0.04832 0.08852 0.83854 0.0
O86 O 0.13533 0.12713 0.836 0.0
O87 O 0.12373 0.11522 0.87407 0.0
C88 C 0.15858 0.0205 0.86286 0.0
O89 O 0.11244 0.07485 0.80314 0.0
O90 O 0.09559 0.02289 0.81906 0.0
In91 In 0.1894 0.85619 0.09388 0.0
O92 O 0.18449 0.86104 0.05149 0.0
O93 O 0.23679 0.84424 0.06673 0.0
C94 C 0.12178 0.8839 0.10671 0.0
C95 C 0.23709 0.90832 0.1116 0.0
C96 C 0.17984 0.7841 0.10829 0.0
O97 O 0.13277 0.88258 0.08429 0.0
O98 O 0.14497 0.87137 0.12239 0.0
O99 O 0.19536 0.80812 0.12219 0.0
O100 O 0.16994 0.79644 0.08727 0.0
C101 C 0.21807 0.85171 0.04741 0.0
O102 O 0.24274 0.87363 0.11451 0.0
O103 O 0.20722 0.91642 0.10032 0.0
In104 In 0.6072 0.93945 0.84536 0.0
O105 O 0.62712 0.98553 0.87188 0.0
O106 O 0.66183 0.97113 0.841 0.0
C107 C 0.53558 0.92818 0.85995 0.0
C108 C 0.5977 0.9668 0.79908 0.0
C109 C 0.63993 0.87464 0.86007 0.0
O110 O 0.55728 0.9502 0.8714 0.0
O111 O 0.54987 0.91269 0.84108 0.0
O112 O 0.63383 0.88207 0.83739 0.0
O113 O 0.63019 0.90012 0.87496 0.0
C114 C 0.65681 0.99185 0.85974 0.0
O115 O 0.61135 0.93467 0.80313 0.0
O116 O 0.58796 0.9846 0.8184 0.0
In117 In 0.81611 0.85779 0.59441 0.0
O118 O 0.76236 0.8736 0.61546 0.0
O119 O 0.79743 0.91733 0.60212 0.0
C120 C 0.82735 0.78585 0.60801 0.0
C121 C 0.78512 0.85367 0.5486 0.0
C122 C 0.88497 0.88273 0.607 0.0
O123 O 0.80955 0.80862 0.6217 0.0
O124 O 0.83902 0.79953 0.58772 0.0
O125 O 0.87499 0.87875 0.5845 0.0
O126 O 0.86014 0.87435 0.62283 0.0
C127 C 0.76755 0.90846 0.6131 0.0
O128 O 0.81232 0.87521 0.55333 0.0
O129 O 0.77441 0.83386 0.56671 0.0
In130 In 0.89938 0.06827 0.34535 0.0
O131 O 0.89594 0.07414 0.30294 0.0
O132 O 0.91567 0.02261 0.31795 0.0
C133 C 0.86886 0.1347 0.35874 0.0
C134 C 0.84984 0.01592 0.36043 0.0
C135 C 0.97025 0.07963 0.3613 0.0
O136 O 0.87222 0.12483 0.33621 0.0
O137 O 0.88031 0.1108 0.37433 0.0
O138 O 0.94618 0.0627 0.37438 0.0
O139 O 0.95865 0.08999 0.34018 0.0
C140 C 0.90755 0.04128 0.29871 0.0
O141 O 0.88416 0.01428 0.36598 0.0
O142 O 0.8405 0.0447 0.34825 0.0
In143 In 0.68643 0.14884 0.09376 0.0
O144 O 0.74192 0.1344 0.11325 0.0
O145 O 0.70682 0.08994 0.10108 0.0
C146 C 0.67417 0.22023 0.10787 0.0
C147 C 0.71342 0.15295 0.04685 0.0
C148 C 0.61945 0.12245 0.10904 0.0
O149 O 0.69461 0.19835 0.12053 0.0
O150 O 0.66055 0.20597 0.08831 0.0
O151 O 0.62712 0.12692 0.08617 0.0
O152 O 0.6456 0.13103 0.12379 0.0
C153 C 0.73711 0.09941 0.11128 0.0
O154 O 0.68852 0.12957 0.05307 0.0
O155 O 0.72365 0.17486 0.06397 0.0
In156 In 0.60363 0.06832 0.65578 0.0
O157 O 0.60717 0.07078 0.69839 0.0
O158 O 0.59082 0.01946 0.68128 0.0
C159 C 0.63154 0.13616 0.64342 0.0
C160 C 0.65596 0.02035 0.6388 0.0
C161 C 0.53156 0.07848 0.64204 0.0
O162 O 0.62923 0.12521 0.66582 0.0
O163 O 0.62011 0.11273 0.62751 0.0
O164 O 0.55525 0.06346 0.62765 0.0
O165 O 0.5443 0.08769 0.66308 0.0
C166 C 0.5979 0.0368 0.70122 0.0
O167 O 0.62155 0.01618 0.63395 0.0
O168 O 0.66374 0.04918 0.65138 0.0
In169 In 0.68565 0.858 0.4049 0.0
O170 O 0.69972 0.88558 0.44229 0.0
O171 O 0.70275 0.82645 0.44034 0.0
C172 C 0.619 0.88832 0.39309 0.0
C173 C 0.73899 0.90228 0.38465 0.0
C174 C 0.67291 0.78931 0.38561 0.0
O175 O 0.62865 0.88268 0.41553 0.0
O176 O 0.64323 0.87922 0.37704 0.0
O177 O 0.70364 0.80618 0.38218 0.0
O178 O 0.64963 0.80653 0.39902 0.0
C179 C 0.70777 0.85546 0.45328 0.0
O180 O 0.7454 0.86864 0.3906 0.0
O181 O 0.70559 0.91247 0.38771 0.0
In182 In 0.90237 0.94145 0.15485 0.0
O183 O 0.89975 0.93863 0.19747 0.0
O184 O 0.91584 0.99008 0.1805 0.0
C185 C 0.87352 0.87384 0.14292 0.0
C186 C 0.84992 0.9893 0.13792 0.0
C187 C 0.97343 0.9306 0.13909 0.0
O188 O 0.87614 0.88493 0.16526 0.0
O189 O 0.88517 0.89699 0.12687 0.0
O190 O 0.94926 0.94704 0.12583 0.0
O191 O 0.96188 0.92068 0.16033 0.0
C192 C 0.90899 0.97256 0.20042 0.0
O193 O 0.88435 0.99393 0.1334 0.0
O194 O 0.84221 0.9602 0.15026 0.0
In195 In 0.81954 0.15046 0.9056 0.0
O196 O 0.77446 0.13276 0.87739 0.0
O197 O 0.78577 0.09694 0.90821 0.0
C198 C 0.83002 0.22218 0.8911 0.0
C199 C 0.7909 0.15539 0.95189 0.0
C200 C 0.88622 0.12076 0.89181 0.0
O201 O 0.80733 0.20055 0.88011 0.0
O202 O 0.84648 0.20778 0.90963 0.0
O203 O 0.87955 0.13079 0.91396 0.0
O204 O 0.85911 0.12497 0.87708 0.0
C205 C 0.76671 0.10277 0.88886 0.0
O206 O 0.81546 0.13151 0.94601 0.0
O207 O 0.782 0.17803 0.93477 0.0
In208 In 0.89806 0.56986 0.6556 0.0
O209 O 0.89346 0.575 0.69821 0.0
O210 O 0.9162 0.52497 0.68325 0.0
C211 C 0.86838 0.63534 0.64001 0.0
C212 C 0.84678 0.52026 0.63919 0.0
C213 C 0.96827 0.58194 0.63866 0.0
O214 O 0.8716 0.62727 0.66291 0.0
O215 O 0.87909 0.6099 0.62526 0.0
O216 O 0.94859 0.55482 0.63112 0.0
O217 O 0.95299 0.6021 0.65507 0.0
C218 C 0.90646 0.54273 0.70248 0.0
O219 O 0.88092 0.51834 0.6332 0.0
O220 O 0.83834 0.54797 0.65268 0.0
In221 In 0.69272 0.65339 0.90646 0.0
O222 O 0.68658 0.64876 0.94879 0.0
O223 O 0.73959 0.66452 0.93403 0.0
C224 C 0.62518 0.62583 0.89323 0.0
C225 C 0.74213 0.60254 0.88933 0.0
C226 C 0.68437 0.72571 0.89244 0.0
O227 O 0.63607 0.62672 0.91567 0.0
O228 O 0.64848 0.63859 0.87769 0.0
O229 O 0.69833 0.70135 0.8781 0.0
O230 O 0.67518 0.71355 0.91365 0.0
C231 C 0.72026 0.65749 0.95316 0.0
O232 O 0.74661 0.63736 0.88624 0.0
O233 O 0.71211 0.59348 0.90014 0.0
In234 In 0.60811 0.4382 0.1551 0.0
O235 O 0.61351 0.43514 0.19771 0.0
O236 O 0.59535 0.48625 0.1812 0.0
C237 C 0.63384 0.37066 0.1404 0.0
C238 C 0.66064 0.486 0.13836 0.0
C239 C 0.53653 0.42903 0.14008 0.0
O240 O 0.63218 0.37969 0.16322 0.0
O241 O 0.62341 0.39593 0.12549 0.0
O242 O 0.56062 0.44574 0.12688 0.0
O243 O 0.54834 0.41821 0.16107 0.0
C244 C 0.60398 0.46898 0.20089 0.0
O245 O 0.62615 0.49099 0.13431 0.0
O246 O 0.66852 0.45635 0.15007 0.0
In247 In 0.81676 0.35602 0.40646 0.0
O248 O 0.82207 0.36108 0.44891 0.0
O249 O 0.76994 0.34338 0.43382 0.0
C250 C 0.88391 0.38331 0.39188 0.0
C251 C 0.76861 0.40851 0.38984 0.0
C252 C 0.82544 0.2842 0.3912 0.0
O253 O 0.87474 0.38111 0.41465 0.0
O254 O 0.85913 0.37207 0.37687 0.0
O255 O 0.80872 0.30846 0.37816 0.0
O256 O 0.83682 0.29605 0.41204 0.0
C257 C 0.78859 0.35137 0.45308 0.0
O258 O 0.763 0.37389 0.38654 0.0
O259 O 0.79872 0.41644 0.40092 0.0
In260 In 0.90146 0.43932 0.84562 0.0
O261 O 0.88672 0.49187 0.86765 0.0
O262 O 0.84208 0.46006 0.85203 0.0
C263 C 0.97351 0.42823 0.85898 0.0
C264 C 0.90627 0.47126 0.80009 0.0
C265 C 0.87286 0.37205 0.85884 0.0
O266 O 0.9502 0.44399 0.87326 0.0
O267 O 0.96049 0.41875 0.83804 0.0
O268 O 0.87244 0.38351 0.83649 0.0
O269 O 0.88717 0.3947 0.8742 0.0
C270 C 0.85192 0.48893 0.86394 0.0
O271 O 0.89744 0.43714 0.80287 0.0
O272 O 0.91347 0.48842 0.82006 0.0
In273 In 0.81882 0.6522 0.0975 0.0
O274 O 0.82204 0.64855 0.05492 0.0
O275 O 0.77042 0.66466 0.07153 0.0
C276 C 0.88638 0.62462 0.1103 0.0
C277 C 0.77171 0.59926 0.11465 0.0
C278 C 0.82854 0.72392 0.11238 0.0
O279 O 0.8756 0.62617 0.08784 0.0
O280 O 0.86301 0.63678 0.126 0.0
O281 O 0.81213 0.69991 0.12584 0.0
O282 O 0.83905 0.71183 0.09141 0.0
C283 C 0.78811 0.65751 0.05175 0.0
O284 O 0.76635 0.63377 0.1186 0.0
O285 O 0.80121 0.59167 0.10277 0.0
In286 In 0.60741 0.56944 0.34497 0.0
O287 O 0.61627 0.57328 0.30271 0.0
O288 O 0.59638 0.5219 0.31776 0.0
C289 C 0.63229 0.64014 0.3529 0.0
C290 C 0.65856 0.52117 0.36289 0.0
C291 C 0.53651 0.57402 0.36297 0.0
O292 O 0.6103 0.63195 0.33529 0.0
O293 O 0.64212 0.61275 0.36622 0.0
O294 O 0.56446 0.57106 0.37727 0.0
O295 O 0.54456 0.57401 0.34012 0.0
C296 C 0.60601 0.53993 0.29858 0.0
O297 O 0.62407 0.51795 0.36787 0.0
O298 O 0.66697 0.54903 0.34951 0.0
In299 In 0.68624 0.35737 0.59646 0.0
O300 O 0.68386 0.36151 0.55376 0.0
O301 O 0.73493 0.34471 0.57077 0.0
C302 C 0.61852 0.3856 0.60857 0.0
C303 C 0.73527 0.40814 0.6141 0.0
C304 C 0.67578 0.28592 0.61189 0.0
O305 O 0.62964 0.38361 0.58619 0.0
O306 O 0.64174 0.37386 0.6245 0.0
O307 O 0.69109 0.31043 0.62547 0.0
O308 O 0.66666 0.29733 0.59046 0.0
C309 C 0.71779 0.35229 0.55087 0.0
O310 O 0.73956 0.37331 0.6172 0.0
O311 O 0.70545 0.4174 0.60311 0.0
In312 In 0.10577 0.43881 0.34717 0.0
O313 O 0.10724 0.43784 0.3047 0.0
O314 O 0.09019 0.48834 0.32274 0.0
C315 C 0.13627 0.3719 0.35933 0.0
C316 C 0.15836 0.48723 0.36287 0.0
C317 C 0.03348 0.42813 0.36045 0.0
O318 O 0.13221 0.38225 0.33695 0.0
O319 O 0.12545 0.39548 0.37527 0.0
O320 O 0.05573 0.4472 0.3737 0.0
O321 O 0.0477 0.41522 0.34073 0.0
C322 C 0.09715 0.47168 0.30247 0.0
O323 O 0.12798 0.48273 0.37466 0.0
O324 O 0.16244 0.46662 0.34398 0.0
In325 In 0.31845 0.35954 0.09591 0.0
O326 O 0.31316 0.38298 0.05629 0.0
O327 O 0.28152 0.33447 0.06557 0.0
C328 C 0.38725 0.3848 0.10807 0.0
C329 C 0.26901 0.40796 0.11617 0.0
C330 C 0.33023 0.28773 0.10959 0.0
O331 O 0.37693 0.38099 0.08562 0.0
O332 O 0.36289 0.3758 0.12405 0.0
O333 O 0.31159 0.31016 0.12303 0.0
O334 O 0.34232 0.30165 0.08948 0.0
C335 C 0.2895 0.35882 0.04939 0.0
O336 O 0.26255 0.37317 0.11526 0.0
O337 O 0.30033 0.41761 0.10758 0.0
In338 In 0.4058 0.56823 0.84465 0.0
O339 O 0.39028 0.51493 0.8659 0.0
O340 O 0.34645 0.54647 0.84918 0.0
C341 C 0.47659 0.58035 0.86053 0.0
C342 C 0.41283 0.53758 0.79894 0.0
C343 C 0.3754 0.63507 0.85693 0.0
O344 O 0.45257 0.56352 0.87371 0.0
O345 O 0.465 0.59026 0.8393 0.0
O346 O 0.37928 0.62472 0.83451 0.0
O347 O 0.38646 0.61152 0.87288 0.0
C348 C 0.35572 0.51757 0.86125 0.0
O349 O 0.40156 0.57087 0.80201 0.0
O350 O 0.42156 0.52069 0.81875 0.0
In351 In 0.1856 0.65026 0.59482 0.0
O352 O 0.22564 0.62881 0.62518 0.0
O353 O 0.22067 0.5979 0.59134 0.0
C354 C 0.18293 0.71968 0.61511 0.0
C355 C 0.21387 0.65824 0.54849 0.0
C356 C 0.115 0.62339 0.6013 0.0
O357 O 0.18463 0.69053 0.62847 0.0
O358 O 0.18432 0.71353 0.59199 0.0
O359 O 0.12179 0.6554 0.59253 0.0
O360 O 0.14371 0.60416 0.60581 0.0
C361 C 0.23606 0.60086 0.61239 0.0
O362 O 0.18084 0.64661 0.55223 0.0
O363 O 0.23187 0.66637 0.56801 0.0
In364 In 0.10639 0.56983 0.15828 0.0
O365 O 0.11092 0.57544 0.20072 0.0
O366 O 0.08968 0.5245 0.1857 0.0
C367 C 0.13529 0.6357 0.14248 0.0
C368 C 0.15821 0.51976 0.14349 0.0
C369 C 0.03529 0.58025 0.14272 0.0
O370 O 0.13185 0.62797 0.16541 0.0
O371 O 0.12463 0.61007 0.12791 0.0
O372 O 0.05869 0.56149 0.13021 0.0
O373 O 0.04766 0.5928 0.16311 0.0
C374 C 0.0986 0.54279 0.20494 0.0
O375 O 0.12397 0.51621 0.138 0.0
O376 O 0.16605 0.54881 0.15584 0.0
In377 In 0.19079 0.35943 0.90543 0.0
O378 O 0.2486 0.3712 0.88839 0.0
O379 O 0.21189 0.41701 0.89453 0.0
C380 C 0.17972 0.28833 0.89003 0.0
C381 C 0.2159 0.35845 0.95293 0.0
C382 C 0.12313 0.3851 0.89097 0.0
O383 O 0.1995 0.31128 0.87775 0.0
O384 O 0.16641 0.30119 0.91011 0.0
O385 O 0.13118 0.37999 0.91372 0.0
O386 O 0.14927 0.37761 0.87596 0.0
C387 C 0.24366 0.40622 0.88737 0.0
O388 O 0.19469 0.38397 0.94481 0.0
O389 O 0.22305 0.33281 0.9375 0.0
In390 In 0.3971 0.43839 0.65554 0.0
O391 O 0.39598 0.43412 0.69793 0.0
O392 O 0.41585 0.48489 0.68163 0.0
C393 C 0.3651 0.3727 0.64168 0.0
C394 C 0.34609 0.48978 0.6416 0.0
C395 C 0.46841 0.42794 0.63997 0.0
O396 O 0.37097 0.38086 0.66428 0.0
O397 O 0.37468 0.39788 0.62649 0.0
O398 O 0.44558 0.4482 0.62807 0.0
O399 O 0.45539 0.4138 0.65971 0.0
C400 C 0.40844 0.46693 0.70134 0.0
O401 O 0.37616 0.48472 0.62961 0.0
O402 O 0.3414 0.46827 0.66002 0.0
In403 In 0.32039 0.64787 0.40709 0.0
O404 O 0.27707 0.62648 0.3792 0.0
O405 O 0.28984 0.59229 0.41069 0.0
C406 C 0.33121 0.71912 0.39118 0.0
C407 C 0.28747 0.65772 0.45179 0.0
C408 C 0.38681 0.61557 0.39528 0.0
O409 O 0.31075 0.69623 0.3795 0.0
O410 O 0.34547 0.70617 0.41089 0.0
O411 O 0.37897 0.6254 0.41731 0.0
O412 O 0.36111 0.62161 0.37972 0.0
C413 C 0.27069 0.59655 0.39111 0.0
O414 O 0.32028 0.64474 0.44963 0.0
O415 O 0.27202 0.66684 0.43149 0.0
C416 C 0.40473 0.96732 0.25374 0.0
C417 C 0.40357 0.98867 0.27576 0.0
C418 C 0.40497 0.98463 0.23025 0.0
C419 C 0.40345 0.02392 0.22785 0.0
H420 H 0.40559 0.93701 0.25464 0.0
H421 H 0.40581 0.96697 0.21381 0.0
S422 S 0.39981 0.09256 0.27976 0.0
N423 N 0.40101 0.05132 0.29371 0.0
N424 N 0.40086 0.08368 0.24954 0.0
C425 C 0.40222 0.04561 0.24971 0.0
C426 C 0.40246 0.02802 0.27365 0.0
C427 C 0.23113 0.15573 0.52203 0.0
C428 C 0.27031 0.15526 0.52489 0.0
C429 C 0.21456 0.15581 0.49832 0.0
C430 C 0.23655 0.15598 0.47658 0.0
H431 H 0.21299 0.1555 0.53824 0.0
H432 H 0.18429 0.15581 0.49706 0.0
S433 S 0.34047 0.15551 0.47384 0.0
N434 N 0.33069 0.15524 0.50395 0.0
N435 N 0.29967 0.15593 0.45939 0.0
C436 C 0.2758 0.15597 0.47915 0.0
C437 C 0.29266 0.15544 0.50331 0.0
C438 C 0.09965 0.98429 0.77246 0.0
C439 C 0.10117 0.02362 0.77449 0.0
C440 C 0.09919 0.96658 0.74912 0.0
C441 C 0.09959 0.98754 0.72692 0.0
H442 H 0.09938 0.96691 0.78904 0.0
H443 H 0.09841 0.93624 0.74849 0.0
S444 S 0.1032 0.09132 0.72196 0.0
N445 N 0.10305 0.083 0.75227 0.0
N446 N 0.10156 0.04982 0.70838 0.0
C447 C 0.10067 0.02692 0.72866 0.0
C448 C 0.10166 0.04494 0.75244 0.0
C449 C 0.29091 0.84802 0.99586 0.0
C450 C 0.26927 0.85 0.97401 0.0
C451 C 0.274 0.84802 0.01948 0.0
C452 C 0.23485 0.85061 0.02214 0.0
H453 H 0.32114 0.84629 0.99473 0.0
H454 H 0.29186 0.84648 0.03578 0.0
S455 S 0.16565 0.85722 0.97069 0.0
N456 N 0.20659 0.85485 0.95648 0.0
N457 N 0.17493 0.8554 0.00085 0.0
C458 C 0.21289 0.85276 0.00043 0.0
C459 C 0.23007 0.85229 0.97638 0.0
C460 C 0.59257 0.02275 0.77129 0.0
C461 C 0.5958 0.98362 0.77389 0.0
C462 C 0.59323 0.0398 0.74772 0.0
C463 C 0.59647 0.01826 0.72588 0.0
H464 H 0.59037 0.04051 0.78762 0.0
H465 H 0.59116 0.07004 0.74661 0.0
S466 S 0.60505 0.91467 0.72246 0.0
N467 N 0.60207 0.92379 0.7526 0.0
N468 N 0.60263 0.95568 0.70828 0.0
C469 C 0.59907 0.97905 0.72818 0.0
C470 C 0.59893 0.96175 0.75219 0.0
C471 C 0.74553 0.88626 0.48666 0.0
C472 C 0.72577 0.85461 0.47812 0.0
C473 C 0.76545 0.88541 0.5092 0.0
C474 C 0.76567 0.85316 0.52427 0.0
H475 H 0.74631 0.91167 0.4756 0.0
H476 H 0.78031 0.9104 0.51504 0.0
S477 S 0.7181 0.76304 0.5105 0.0
N478 N 0.70783 0.79008 0.48644 0.0
N479 N 0.74434 0.78884 0.52917 0.0
C480 C 0.74569 0.82148 0.51611 0.0
C481 C 0.72599 0.8221 0.49293 0.0
C482 C 0.91187 0.98568 0.27061 0.0
C483 C 0.90962 0.02485 0.2734 0.0
C484 C 0.91186 0.96899 0.24694 0.0
C485 C 0.91025 0.99087 0.22517 0.0
H486 H 0.91286 0.96761 0.28685 0.0
H487 H 0.91308 0.9387 0.24572 0.0
S488 S 0.90501 0.09475 0.22224 0.0
N489 N 0.90621 0.08513 0.25237 0.0
N490 N 0.90685 0.05388 0.20785 0.0
C491 C 0.90871 0.03014 0.22766 0.0
C492 C 0.90819 0.0471 0.25178 0.0
C493 C 0.76311 0.18781 0.98878 0.0
C494 C 0.77122 0.15441 0.97602 0.0
C495 C 0.74413 0.18714 0.01172 0.0
C496 C 0.73142 0.15319 0.02208 0.0
H497 H 0.77211 0.21451 0.98122 0.0
H498 H 0.73917 0.21338 0.02134 0.0
S499 S 0.744 0.05832 0.99516 0.0
N500 N 0.76464 0.08665 0.97501 0.0
N501 N 0.7276 0.08551 0.01757 0.0
C502 C 0.73852 0.11974 0.00912 0.0
C503 C 0.75882 0.12032 0.98621 0.0
C504 C 0.91147 0.48647 0.73006 0.0
C505 C 0.90784 0.52563 0.72766 0.0
C506 C 0.91083 0.46904 0.75353 0.0
C507 C 0.90723 0.49018 0.77551 0.0
H508 H 0.91412 0.46896 0.71364 0.0
H509 H 0.91333 0.43882 0.75444 0.0
S510 S 0.89723 0.59363 0.77953 0.0
N511 N 0.90054 0.58501 0.74933 0.0
N512 N 0.90008 0.55244 0.79345 0.0
C513 C 0.90408 0.52941 0.77342 0.0
C514 C 0.90417 0.5471 0.7495 0.0
C515 C 0.79216 0.65884 0.00521 0.0
C516 C 0.77007 0.65847 0.02691 0.0
C517 C 0.7757 0.65908 0.98148 0.0
C518 C 0.73654 0.65839 0.97854 0.0
H519 H 0.82242 0.65904 0.00654 0.0
H520 H 0.79391 0.65926 0.96531 0.0
S521 S 0.66615 0.65706 0.02945 0.0
N522 N 0.7069 0.65756 0.04398 0.0
N523 N 0.67606 0.65747 0.99935 0.0
C524 C 0.71409 0.658 1.00007 0.0
C525 C 0.73084 0.65821 0.02426 0.0
C526 C 0.60321 0.48349 0.27105 0.0
C527 C 0.60555 0.52274 0.27345 0.0
C528 C 0.60291 0.46624 0.24754 0.0
C529 C 0.60423 0.48764 0.22554 0.0
H530 H 0.60196 0.46584 0.28748 0.0
H531 H 0.60129 0.43595 0.2466 0.0
S532 S 0.61074 0.59139 0.22156 0.0
N533 N 0.60961 0.58248 0.25178 0.0
N534 N 0.60839 0.55021 0.20761 0.0
C535 C 0.60643 0.52694 0.22766 0.0
C536 C 0.60729 0.54445 0.2516 0.0
C537 C 0.71515 0.34926 0.50428 0.0
C538 C 0.73652 0.35139 0.52623 0.0
C539 C 0.73237 0.34865 0.48077 0.0
C540 C 0.77159 0.35077 0.47829 0.0
H541 H 0.68489 0.34784 0.50525 0.0
H542 H 0.71468 0.34702 0.46438 0.0
S543 S 0.84018 0.35756 0.53008 0.0
N544 N 0.79904 0.35587 0.54408 0.0
N545 N 0.83127 0.35532 0.49988 0.0
C546 C 0.79329 0.3531 0.50011 0.0
C547 C 0.77579 0.35323 0.52407 0.0
C548 C 0.09133 0.46976 0.25611 0.0
C549 C 0.09561 0.49086 0.27805 0.0
C550 C 0.09145 0.48705 0.23265 0.0
C551 C 0.09652 0.52602 0.23018 0.0
H552 H 0.08794 0.43962 0.25706 0.0
H553 H 0.08829 0.46952 0.21627 0.0
S554 S 0.10944 0.5938 0.28197 0.0
N555 N 0.10496 0.5528 0.29596 0.0
N556 N 0.10584 0.58524 0.25178 0.0
C557 C 0.10072 0.5475 0.25199 0.0
C558 C 0.10006 0.52992 0.27595 0.0
C559 C 0.26019 0.32579 0.01336 0.0
C560 C 0.27118 0.35956 0.02472 0.0
C561 C 0.2421 0.32571 0.99014 0.0
C562 C 0.23327 0.35943 0.97791 0.0
H563 H 0.2661 0.29921 0.0223 0.0
H564 H 0.23474 0.29905 0.98179 0.0
S565 S 0.25508 0.45539 1.00018 0.0
N566 N 0.27185 0.42756 0.02214 0.0
N567 N 0.23662 0.42747 0.9789 0.0
C568 C 0.24351 0.39341 0.98928 0.0
C569 C 0.26285 0.39345 0.01259 0.0
C570 C 0.41274 0.54052 0.7523 0.0
C571 C 0.41383 0.519 0.77426 0.0
C572 C 0.41209 0.52338 0.72876 0.0
C573 C 0.4118 0.48409 0.72635 0.0
H574 H 0.41223 0.57085 0.75328 0.0
H575 H 0.41083 0.54109 0.71236 0.0
S576 S 0.41489 0.41505 0.77806 0.0
N577 N 0.41535 0.45623 0.79209 0.0
N578 N 0.4134 0.42414 0.74787 0.0
C579 C 0.4132 0.46224 0.74814 0.0
C580 C 0.41444 0.47967 0.77209 0.0
C581 C 0.27079 0.6606 0.5216 0.0
C582 C 0.23148 0.66001 0.52352 0.0
C583 C 0.28866 0.66022 0.49833 0.0
C584 C 0.2679 0.65999 0.47607 0.0
H585 H 0.28804 0.66047 0.53823 0.0
H586 H 0.31898 0.66 0.49779 0.0
S587 S 0.16424 0.65945 0.47082 0.0
N588 N 0.1723 0.65966 0.50116 0.0
N589 N 0.20582 0.65977 0.45734 0.0
C590 C 0.22854 0.66023 0.47768 0.0
C591 C 0.21034 0.65998 0.50142 0.0
C592 C 0.32908 0.95559 0.12766 0.0
C593 C 0.3185 0.99311 0.13158 0.0
C594 C 0.30241 0.92808 0.12186 0.0
C595 C 0.26433 0.93727 0.11929 0.0
H596 H 0.35813 0.94728 0.12945 0.0
H597 H 0.3118 0.89955 0.11893 0.0
S598 S 0.22215 0.03149 0.12751 0.0
N599 N 0.26727 0.03796 0.13263 0.0
N600 N 0.21731 0.98646 0.12118 0.0
C601 C 0.2534 0.9747 0.12302 0.0
C602 C 0.28044 1.00257 0.12932 0.0
C603 C 0.29957 0.07786 0.37883 0.0
C604 C 0.26162 0.06829 0.38167 0.0
C605 C 0.32653 0.05045 0.37364 0.0
C606 C 0.31636 0.01265 0.37062 0.0
H607 H 0.30865 0.10665 0.38107 0.0
H608 H 0.35545 0.05908 0.37155 0.0
S609 S 0.2206 0.97314 0.37587 0.0
N610 N 0.2152 0.01841 0.38115 0.0
N611 N 0.26578 0.96701 0.37075 0.0
C612 C 0.27847 1.00274 0.37319 0.0
C613 C 0.25112 0.03055 0.3789 0.0
C614 C 0.17475 0.05001 0.62971 0.0
C615 C 0.18511 0.01224 0.63264 0.0
C616 C 0.20151 0.07757 0.62417 0.0
C617 C 0.23943 0.06818 0.62086 0.0
H618 H 0.14585 0.05847 0.63216 0.0
H619 H 0.19231 0.10633 0.62206 0.0
S620 S 0.28083 0.97314 0.62617 0.0
N621 N 0.23583 0.96684 0.63185 0.0
N622 N 0.28596 0.01843 0.62084 0.0
C623 C 0.25008 0.03045 0.62353 0.0
C624 C 0.22296 1.00253 0.62958 0.0
C625 C 0.22442 0.99987 0.8702 0.0
C626 C 0.18601 0.99117 0.8696 0.0
C627 C 0.25123 0.97233 0.87546 0.0
C628 C 0.24068 0.93491 0.87972 0.0
H629 H 0.23388 0.02825 0.86669 0.0
H630 H 0.28048 0.98036 0.87599 0.0
S631 S 0.14378 0.89749 0.88045 0.0
N632 N 0.13874 0.94249 0.87405 0.0
N633 N 0.18926 0.89058 0.88341 0.0
C634 C 0.20242 0.92574 0.87908 0.0
C635 C 0.17504 0.95393 0.8742 0.0
C636 C 0.71769 0.05558 0.89888 0.0
C637 C 0.73747 0.07628 0.8808 0.0
C638 C 0.69077 0.02898 0.89194 0.0
C639 C 0.68364 0.0214 0.86669 0.0
H640 H 0.72301 0.06004 0.91857 0.0
H641 H 0.67623 0.01353 0.90641 0.0
S642 S 0.72734 0.06836 0.8122 0.0
N643 N 0.74725 0.0883 0.83666 0.0
N644 N 0.69763 0.03719 0.82353 0.0
C645 C 0.70304 0.04202 0.84843 0.0
C646 C 0.72971 0.06982 0.85551 0.0
C647 C 0.67445 0.95498 0.62728 0.0
C648 C 0.68473 0.99242 0.63191 0.0
C649 C 0.70155 0.92761 0.62203 0.0
C650 C 0.73977 0.9369 0.62077 0.0
H651 H 0.64531 0.94663 0.62805 0.0
H652 H 0.6924 0.89917 0.61841 0.0
S653 S 0.78128 0.03089 0.63149 0.0
N654 N 0.73584 0.03722 0.63519 0.0
N655 N 0.78657 0.98604 0.6248 0.0
C656 C 0.75039 0.97423 0.62533 0.0
C657 C 0.72292 1.00192 0.63104 0.0
C658 C 0.75771 0.96443 0.3676 0.0
C659 C 0.76837 0.92922 0.37704 0.0
C660 C 0.7843 0.99213 0.36235 0.0
C661 C 0.82265 0.98594 0.36655 0.0
H662 H 0.72845 0.97089 0.36445 0.0
H663 H 0.77456 0.01879 0.35517 0.0
S664 S 0.8654 0.89825 0.3906 0.0
N665 N 0.82004 0.88933 0.38995 0.0
N666 N 0.87016 0.94159 0.38022 0.0
C667 C 0.83385 0.95071 0.37573 0.0
C668 C 0.80669 0.92228 0.38088 0.0
C669 C 0.80336 0.0813 0.12052 0.0
C670 C 0.76532 0.0714 0.11893 0.0
C671 C 0.83076 0.05437 0.12609 0.0
C672 C 0.82094 0.0168 0.13072 0.0
H673 H 0.81212 0.10988 0.11697 0.0
H674 H 0.85975 0.06317 0.12714 0.0
S675 S 0.72507 0.97673 0.12936 0.0
N676 N 0.71922 0.02148 0.12259 0.0
N677 N 0.77052 0.97116 0.13351 0.0
C678 C 0.78295 0.00667 0.12945 0.0
C679 C 0.75519 0.0339 0.12345 0.0
C680 C 0.75361 0.47281 0.62687 0.0
C681 C 0.76408 0.43588 0.62102 0.0
C682 C 0.7806 0.49997 0.63269 0.0
C683 C 0.81904 0.49138 0.6322 0.0
H684 H 0.72433 0.4807 0.62716 0.0
H685 H 0.77129 0.52797 0.63741 0.0
S686 S 0.86095 0.39901 0.61702 0.0
N687 N 0.81536 0.39216 0.61469 0.0
N688 N 0.86618 0.4434 0.62501 0.0
C689 C 0.82987 0.45466 0.626 0.0
C690 C 0.80235 0.42683 0.6206 0.0
C691 C 0.78679 0.50908 0.87391 0.0
C692 C 0.82485 0.51824 0.87117 0.0
C693 C 0.76022 0.53662 0.87967 0.0
C694 C 0.77061 0.57443 0.88233 0.0
H695 H 0.77746 0.48037 0.87172 0.0
H696 H 0.73125 0.52821 0.88188 0.0
S697 S 0.86665 0.61313 0.87643 0.0
N698 N 0.87166 0.56776 0.87137 0.0
N699 N 0.82158 0.61966 0.88171 0.0
C700 C 0.80854 0.58404 0.87939 0.0
C701 C 0.83571 0.55588 0.87397 0.0
C702 C 0.7062 0.57953 0.12414 0.0
C703 C 0.74421 0.57011 0.12151 0.0
C704 C 0.67918 0.55194 0.12895 0.0
C705 C 0.68935 0.5141 0.13177 0.0
H706 H 0.69713 0.60832 0.12199 0.0
H707 H 0.65021 0.56044 0.13086 0.0
S708 S 0.7853 0.475 0.12707 0.0
N709 N 0.79071 0.52036 0.12212 0.0
N710 N 0.74005 0.46865 0.13177 0.0
C711 C 0.72732 0.50438 0.12945 0.0
C712 C 0.75472 0.53236 0.12415 0.0
C713 C 0.70296 0.42837 0.38063 0.0
C714 C 0.74116 0.43752 0.38263 0.0
C715 C 0.67619 0.45586 0.37498 0.0
C716 C 0.68682 0.49325 0.37061 0.0
H717 H 0.6936 0.39988 0.3838 0.0
H718 H 0.64708 0.44759 0.37352 0.0
S719 S 0.78331 0.53159 0.37343 0.0
N720 N 0.78822 0.48664 0.37999 0.0
N721 N 0.73808 0.53804 0.36875 0.0
C722 C 0.72493 0.50271 0.37244 0.0
C723 C 0.75206 0.4749 0.37862 0.0
C724 C 0.19499 0.52227 0.39498 0.0
C725 C 0.18652 0.51555 0.36979 0.0
C726 C 0.22274 0.54824 0.40168 0.0
C727 C 0.24202 0.5691 0.38343 0.0
H728 H 0.18064 0.50685 0.40954 0.0
H729 H 0.22878 0.55237 0.4213 0.0
S730 S 0.22862 0.56305 0.31496 0.0
N731 N 0.19892 0.53212 0.32656 0.0
N732 N 0.25004 0.58193 0.33922 0.0
C733 C 0.23314 0.56321 0.35823 0.0
C734 C 0.20564 0.53612 0.35139 0.0
C735 C 0.20285 0.42752 0.12431 0.0
C736 C 0.24131 0.43592 0.12472 0.0
C737 C 0.17605 0.45494 0.1301 0.0
C738 C 0.18683 0.4915 0.13688 0.0
H739 H 0.19332 0.39988 0.11887 0.0
H740 H 0.14669 0.44736 0.12939 0.0
S741 S 0.2842 0.52723 0.14162 0.0
N742 N 0.2889 0.48313 0.13289 0.0
N743 N 0.2387 0.53436 0.14412 0.0
C744 C 0.22526 0.49999 0.1378 0.0
C745 C 0.25245 0.47227 0.13164 0.0
C746 C 0.28984 0.49744 0.86849 0.0
C747 C 0.32815 0.48848 0.86822 0.0
C748 C 0.26283 0.47043 0.87438 0.0
C749 C 0.27298 0.43323 0.87983 0.0
H750 H 0.28059 0.52567 0.86432 0.0
H751 H 0.2337 0.47887 0.87465 0.0
S752 S 0.36954 0.39501 0.88085 0.0
N753 N 0.37497 0.43964 0.87349 0.0
N754 N 0.32403 0.38863 0.88425 0.0
C755 C 0.31116 0.42368 0.87927 0.0
C756 C 0.33879 0.45139 0.8736 0.0
C757 C 0.31348 0.5286 0.60965 0.0
C758 C 0.31859 0.51885 0.6348 0.0
C759 C 0.28664 0.55522 0.60269 0.0
C760 C 0.26471 0.57379 0.62068 0.0
H761 H 0.32977 0.51498 0.59521 0.0
H762 H 0.28318 0.56145 0.58303 0.0
S763 S 0.26878 0.55965 0.68913 0.0
N764 N 0.30024 0.53027 0.67784 0.0
N765 N 0.2506 0.58134 0.66474 0.0
C766 C 0.27024 0.56503 0.64594 0.0
C767 C 0.29695 0.53722 0.653 0.0
C768 C 0.3443 0.20077 0.14969 0.0
C769 C 0.35947 0.17474 0.13273 0.0
C770 C 0.33393 0.23697 0.14198 0.0
C771 C 0.33872 0.2486 0.11708 0.0
H772 H 0.34072 0.19329 0.16914 0.0
H773 H 0.32291 0.25622 0.15577 0.0
S774 S 0.37564 0.19068 0.06504 0.0
N775 N 0.37742 0.16287 0.08962 0.0
N776 N 0.3583 0.23068 0.07528 0.0
C777 C 0.35317 0.22262 0.09985 0.0
C778 C 0.36344 0.18577 0.10763 0.0
C779 C 0.07036 0.11467 0.36104 0.0
C780 C 0.08179 0.11039 0.386 0.0
C781 C 0.03452 0.10401 0.35327 0.0
C782 C 0.00862 0.08835 0.37007 0.0
H783 H 0.08903 0.12695 0.34735 0.0
H784 H 0.027 0.10846 0.3339 0.0
S785 S 0.02507 0.06963 0.43733 0.0
N786 N 0.06467 0.08838 0.42743 0.0
N787 N 0.99722 0.06804 0.41276 0.0
C788 C 0.01987 0.08308 0.395 0.0
C789 C 0.05644 0.0942 0.40298 0.0
C790 C 0.16238 0.82367 0.61582 0.0
C791 C 0.15146 0.83061 0.64061 0.0
C792 C 0.1742 0.78812 0.6082 0.0
C793 C 0.17558 0.75782 0.62499 0.0
H794 H 0.16102 0.8457 0.60193 0.0
H795 H 0.18126 0.78419 0.58871 0.0
S796 S 0.15263 0.76164 0.69249 0.0
N797 N 0.14492 0.8047 0.68239 0.0
N798 N 0.16705 0.7376 0.66797 0.0
C799 C 0.16629 0.76462 0.65011 0.0
C800 C 0.15424 0.80105 0.65793 0.0
C801 C 0.4728 0.90021 0.85195 0.0
C802 C 0.49688 0.91969 0.86816 0.0
C803 C 0.43677 0.88964 0.85941 0.0
C804 C 0.4234 0.8977 0.88351 0.0
H805 H 0.48192 0.89272 0.83332 0.0
H806 H 0.41956 0.87431 0.84626 0.0
S807 S 0.47486 0.94924 0.93292 0.0
N808 N 0.50442 0.9477 0.90924 0.0
N809 N 0.43669 0.92735 0.92341 0.0
C810 C 0.44691 0.91768 0.89985 0.0
C811 C 0.48361 0.92884 0.89213 0.0
C812 C 0.35779 0.7828 0.39845 0.0
C813 C 0.33914 0.75777 0.38244 0.0
C814 C 0.36745 0.81896 0.39063 0.0
C815 C 0.35924 0.83157 0.36636 0.0
H816 H 0.36529 0.77438 0.41723 0.0
H817 H 0.3821 0.83693 0.40367 0.0
S818 S 0.30968 0.77747 0.31732 0.0
N819 N 0.31182 0.74848 0.34132 0.0
N820 N 0.33042 0.81648 0.3265 0.0
C821 C 0.34016 0.80707 0.3502 0.0
C822 C 0.32996 0.77021 0.35827 0.0
C823 C 0.44635 0.0987 0.60173 0.0
C824 C 0.41914 0.1094 0.61936 0.0
C825 C 0.48235 0.08751 0.6092 0.0
C826 C 0.49251 0.08685 0.63456 0.0
H827 H 0.44005 0.09955 0.58196 0.0
H828 H 0.50264 0.08035 0.59495 0.0
S829 S 0.43078 0.10928 0.68826 0.0
N830 N 0.40432 0.11637 0.66347 0.0
N831 N 0.47179 0.09565 0.67739 0.0
C832 C 0.46524 0.09638 0.6524 0.0
C833 C 0.42862 0.10757 0.64483 0.0
C834 C 0.14418 0.18821 0.89056 0.0
C835 C 0.14976 0.17609 0.86586 0.0
C836 C 0.15457 0.22427 0.89817 0.0
C837 C 0.17133 0.24969 0.88149 0.0
H838 H 0.13101 0.16996 0.90413 0.0
H839 H 0.14908 0.23235 0.91732 0.0
S840 S 0.19347 0.23144 0.81492 0.0
N841 N 0.17404 0.19212 0.8248 0.0
N842 N 0.19395 0.25991 0.83921 0.0
C843 C 0.17793 0.23773 0.85685 0.0
C844 C 0.16702 0.20097 0.84901 0.0
C845 C 0.07328 0.8948 0.13939 0.0
C846 C 0.08443 0.89801 0.1143 0.0
C847 C 0.03767 0.90618 0.1472 0.0
C848 C 0.01173 0.9215 0.13031 0.0
H849 H 0.09197 0.8828 0.15315 0.0
H850 H 0.03034 0.90249 0.16667 0.0
S851 S 0.02748 0.93746 0.06265 0.0
N852 N 0.06699 0.91868 0.07262 0.0
N853 N 1.00001 0.94031 0.08737 0.0
C854 C 0.02273 0.92575 0.10524 0.0
C855 C 0.05906 0.91392 0.09722 0.0
C856 C 0.67517 0.77409 0.8591 0.0
C857 C 0.67684 0.76479 0.8846 0.0
C858 C 0.66419 0.81001 0.85129 0.0
C859 C 0.65481 0.83803 0.86869 0.0
H860 H 0.68114 0.75312 0.84504 0.0
H861 H 0.66222 0.81554 0.83145 0.0
S862 S 0.65837 0.82889 0.93772 0.0
N863 N 0.67073 0.78721 0.92724 0.0
N864 N 0.65052 0.85463 0.91267 0.0
C865 C 0.658 0.82951 0.89427 0.0
C866 C 0.66889 0.79292 0.90218 0.0
C867 C 0.9689 0.90374 0.64807 0.0
C868 C 0.99644 0.91574 0.63108 0.0
C869 C 0.93294 0.89378 0.64006 0.0
C870 C 0.92298 0.89506 0.61467 0.0
H871 H 0.97519 0.90175 0.66781 0.0
H872 H 0.91296 0.88444 0.65395 0.0
S873 S 0.98445 0.92535 0.56255 0.0
N874 N 0.01105 0.92915 0.58764 0.0
N875 N 0.94343 0.91009 0.57253 0.0
C876 C 0.95005 0.90745 0.59744 0.0
C877 C 0.98674 0.9179 0.60565 0.0
C878 C 0.84754 0.219 0.39946 0.0
C879 C 0.83324 0.2455 0.38252 0.0
C880 C 0.85793 0.18301 0.39165 0.0
C881 C 0.8548 0.17207 0.36651 0.0
H882 H 0.85126 0.22622 0.41894 0.0
H883 H 0.86934 0.16394 0.40542 0.0
S884 S 0.81758 0.23039 0.31478 0.0
N885 N 0.8152 0.25787 0.33953 0.0
N886 N 0.83508 0.19028 0.32478 0.0
C887 C 0.83974 0.19797 0.34942 0.0
C888 C 0.82886 0.23463 0.35744 0.0
C889 C 0.55495 0.09727 0.10097 0.0
C890 C 0.5824 0.10929 0.11804 0.0
C891 C 0.51918 0.08629 0.10907 0.0
C892 C 0.50943 0.08731 0.13451 0.0
H893 H 0.56095 0.09672 0.08116 0.0
H894 H 0.49874 0.07795 0.09521 0.0
S895 S 0.57164 0.11459 0.18692 0.0
N896 N 0.59773 0.1199 0.16175 0.0
N897 N 0.53061 0.09968 0.17683 0.0
C898 C 0.53685 0.09843 0.15181 0.0
C899 C 0.5733 0.1093 0.14362 0.0
C900 C 0.65461 0.22058 0.60322 0.0
C901 C 0.66726 0.24736 0.62052 0.0
C902 C 0.64393 0.18458 0.61082 0.0
C903 C 0.64519 0.17387 0.63609 0.0
H904 H 0.6525 0.22754 0.58359 0.0
H905 H 0.63398 0.16521 0.59674 0.0
S906 S 0.67715 0.23322 0.68884 0.0
N907 N 0.68136 0.26045 0.66407 0.0
N908 N 0.66103 0.19277 0.67841 0.0
C909 C 0.65844 0.20013 0.65359 0.0
C910 C 0.66955 0.23685 0.6458 0.0
C911 C 0.53467 0.9097 0.35276 0.0
C912 C 0.50785 0.92258 0.36993 0.0
C913 C 0.57074 0.89975 0.36044 0.0
C914 C 0.58144 0.90192 0.38567 0.0
H915 H 0.52765 0.90674 0.33319 0.0
H916 H 0.59007 0.88939 0.34648 0.0
S917 S 0.52226 0.93546 0.438 0.0
N918 N 0.49486 0.93838 0.41325 0.0
N919 N 0.56274 0.91926 0.42775 0.0
C920 C 0.55523 0.91555 0.40301 0.0
C921 C 0.51844 0.92603 0.39513 0.0
C922 C 0.85191 0.7884 0.10345 0.0
C923 C 0.83694 0.76268 0.12067 0.0
C924 C 0.8628 0.82442 0.11081 0.0
C925 C 0.85948 0.83622 0.13576 0.0
H926 H 0.85575 0.78055 0.08409 0.0
H927 H 0.87465 0.84288 0.09683 0.0
S928 S 0.82046 0.78021 0.18806 0.0
N929 N 0.81805 0.75195 0.16371 0.0
N930 N 0.83883 0.81971 0.17762 0.0
C931 C 0.84379 0.81112 0.15314 0.0
C932 C 0.83242 0.77437 0.14558 0.0
C933 C 0.98806 0.08973 0.89316 0.0
C934 C 0.99722 0.0871 0.86768 0.0
C935 C 0.9519 0.09996 0.90087 0.0
C936 C 0.92345 0.1074 0.88338 0.0
H937 H 0.00926 0.08499 0.90726 0.0
H938 H 0.94638 0.10256 0.92067 0.0
S939 S 0.93243 0.10157 0.81441 0.0
N940 N 0.97448 0.09091 0.825 0.0
N941 N 0.90658 0.10954 0.83938 0.0
C942 C 0.93196 0.10351 0.85785 0.0
C943 C 0.96882 0.09353 0.85003 0.0
C944 C 0.83045 0.73502 0.64033 0.0
C945 C 0.83539 0.7466 0.61544 0.0
C946 C 0.8405 0.69876 0.64806 0.0
C947 C 0.85547 0.67258 0.63113 0.0
H948 H 0.8196 0.75438 0.65412 0.0
H949 H 0.83694 0.69139 0.66754 0.0
S950 S 0.87205 0.68831 0.56349 0.0
N951 N 0.85495 0.72845 0.57366 0.0
N952 N 0.87346 0.66048 0.58807 0.0
C953 C 0.85951 0.68349 0.60602 0.0
C954 C 0.84959 0.72044 0.59822 0.0
C955 C 0.57644 0.61632 0.86051 0.0
C956 C 0.58774 0.61215 0.88551 0.0
C957 C 0.54073 0.60534 0.85263 0.0
C958 C 0.51484 0.58948 0.86937 0.0
H959 H 0.59511 0.62875 0.84689 0.0
H960 H 0.53329 0.6097 0.83325 0.0
S961 S 0.53094 0.57108 0.93671 0.0
N962 N 0.57046 0.59009 0.92691 0.0
N963 N 0.5033 0.56919 0.91204 0.0
C964 C 0.52597 0.58435 0.89434 0.0
C965 C 0.56239 0.59576 0.90242 0.0
C966 C 0.66264 0.30744 0.14805 0.0
C967 C 0.64553 0.33301 0.13162 0.0
C968 C 0.67272 0.27127 0.14012 0.0
C969 C 0.6656 0.25922 0.11556 0.0
H970 H 0.66816 0.31534 0.16722 0.0
H971 H 0.68547 0.2524 0.15348 0.0
S972 S 0.62201 0.31562 0.06507 0.0
N973 N 0.62258 0.34383 0.08945 0.0
N974 N 0.64113 0.2761 0.07471 0.0
C975 C 0.64889 0.28468 0.09889 0.0
C976 C 0.63896 0.32149 0.10687 0.0
C977 C 0.94719 0.41125 0.40057 0.0
C978 C 0.9211 0.39686 0.38334 0.0
C979 C 0.98313 0.42257 0.39294 0.0
C980 C 0.99441 0.41953 0.36786 0.0
H981 H 0.94001 0.41337 0.42016 0.0
H982 H 1.00252 0.43276 0.40692 0.0
S983 S 0.93603 0.38589 0.3151 0.0
N984 N 0.90866 0.38201 0.33978 0.0
N985 N 0.97601 0.40286 0.32561 0.0
C986 C 0.9683 0.40608 0.35037 0.0
C987 C 0.93171 0.39487 0.35806 0.0
C988 C 0.86875 0.32111 0.8906 0.0
C989 C 0.85951 0.33445 0.86666 0.0
C990 C 0.85849 0.28507 0.89837 0.0
C991 C 0.83816 0.26094 0.88267 0.0
H992 H 0.88477 0.33834 0.90337 0.0
H993 H 0.86691 0.27598 0.91683 0.0
S994 S 0.80545 0.28283 0.81855 0.0
N995 N 0.82786 0.32104 0.82749 0.0
N996 N 0.8081 0.25333 0.84224 0.0
C997 C 0.82784 0.27418 0.85889 0.0
C998 C 0.83867 0.31088 0.85085 0.0
C999 C 0.97133 0.60537 0.15061 0.0
C1000 C 0.99686 0.58872 0.134 0.0
C1001 C 0.93555 0.61612 0.14279 0.0
C1002 C 0.92385 0.611 0.11796 0.0
H1003 H 0.97911 0.61056 0.16984 0.0
H1004 H 0.91718 0.62922 0.1563 0.0
S1005 S 0.97954 0.56744 0.06719 0.0
N1006 N 0.00759 0.5665 0.09168 0.0
N1007 N 0.94027 0.58706 0.07689 0.0
C1008 C 0.9488 0.59376 0.10119 0.0
C1009 C 0.98529 0.5825 0.10924 0.0
C1010 C 0.67912 0.68615 0.36928 0.0
C1011 C 0.64374 0.67897 0.35872 0.0
C1012 C 0.68936 0.72247 0.37681 0.0
C1013 C 0.66402 0.7524 0.37478 0.0
H1014 H 0.69887 0.66347 0.37196 0.0
H1015 H 0.71657 0.72683 0.38526 0.0
S1016 S 0.56844 0.7486 0.34795 0.0
N1017 N 0.58404 0.70516 0.34572 0.0
N1018 N 0.60265 0.77294 0.36089 0.0
C1019 C 0.62885 0.7457 0.36393 0.0
C1020 C 0.61886 0.70908 0.35561 0.0
C1021 C 0.56893 0.39428 0.64079 0.0
C1022 C 0.58073 0.39888 0.61592 0.0
C1023 C 0.53283 0.4044 0.64835 0.0
C1024 C 0.50707 0.41998 0.63145 0.0
H1025 H 0.58747 0.38203 0.65455 0.0
H1026 H 0.52499 0.39967 0.66763 0.0
S1027 S 0.52426 0.43919 0.56435 0.0
N1028 N 0.56395 0.4209 0.57443 0.0
N1029 N 0.49607 0.44041 0.58877 0.0
C1030 C 0.51868 0.42566 0.60663 0.0
C1031 C 0.55548 0.41495 0.59884 0.0
C1032 C 0.14897 0.32368 0.3919 0.0
C1033 C 0.15036 0.33441 0.36664 0.0
C1034 C 0.15928 0.2876 0.39946 0.0
C1035 C 0.17172 0.26077 0.38213 0.0
H1036 H 0.13898 0.34301 0.40599 0.0
H1037 H 0.15691 0.28056 0.41907 0.0
S1038 S 0.18255 0.27521 0.3139 0.0
N1039 N 0.16657 0.3157 0.32435 0.0
N1040 N 0.1863 0.24782 0.33862 0.0
C1041 C 0.17445 0.2714 0.35689 0.0
C1042 C 0.16366 0.30821 0.34914 0.0
C1043 C 0.43563 0.39624 0.14074 0.0
C1044 C 0.42502 0.39798 0.11548 0.0
C1045 C 0.47145 0.40709 0.14849 0.0
C1046 C 0.4981 0.4205 0.13135 0.0
H1047 H 0.41632 0.38582 0.15471 0.0
H1048 H 0.47838 0.40459 0.16811 0.0
S1049 S 0.48411 0.43181 0.06312 0.0
N1050 N 0.44385 0.41498 0.07334 0.0
N1051 N 0.51119 0.43572 0.08796 0.0
C1052 C 0.48768 0.42321 0.10608 0.0
C1053 C 0.45118 0.41183 0.09813 0.0
C1054 C 0.35127 0.71922 0.89702 0.0
C1055 C 0.33757 0.74555 0.87976 0.0
C1056 C 0.36251 0.68339 0.88946 0.0
C1057 C 0.36082 0.67241 0.86427 0.0
H1058 H 0.35385 0.72645 0.91658 0.0
H1059 H 0.37335 0.66444 0.9035 0.0
S1060 S 0.32567 0.73029 0.81169 0.0
N1061 N 0.32168 0.75773 0.83636 0.0
N1062 N 0.34312 0.69039 0.82209 0.0
C1063 C 0.34641 0.69813 0.84683 0.0
C1064 C 0.33468 0.73466 0.85458 0.0
C1065 C 0.01571 0.62901 0.62554 0.0
C1066 C 0.0053 0.59121 0.62809 0.0
C1067 C 0.05068 0.63904 0.61578 0.0
C1068 C 0.07696 0.61161 0.60885 0.0
H1069 H 0.99658 0.65108 0.63104 0.0
H1070 H 0.05762 0.66854 0.61444 0.0
S1071 S 0.06319 0.50865 0.61169 0.0
N1072 N 0.02345 0.52619 0.62229 0.0
N1073 N 0.09001 0.545 0.60489 0.0
C1074 C 0.06685 0.57367 0.61118 0.0
C1075 C 0.03077 0.56347 0.62053 0.0
C1076 C 0.16164 0.69994 0.15017 0.0
C1077 C 0.14916 0.67244 0.13326 0.0
C1078 C 0.17276 0.73563 0.1419 0.0
C1079 C 0.1715 0.74525 0.11643 0.0
H1080 H 0.16229 0.69411 0.17 0.0
H1081 H 0.18138 0.75614 0.15565 0.0
S1082 S 0.14331 0.6827 0.06436 0.0
N1083 N 0.13806 0.65683 0.08965 0.0
N1084 N 0.15861 0.72374 0.07424 0.0
C1085 C 0.16007 0.71769 0.09928 0.0
C1086 C 0.149 0.68135 0.10765 0.0
C1087 C 0.05858 0.40948 0.89971 0.0
C1088 C 0.08576 0.39781 0.88236 0.0
C1089 C 0.02263 0.42033 0.89195 0.0
C1090 C 0.01242 0.41952 0.86659 0.0
H1091 H 0.06497 0.40997 0.91947 0.0
H1092 H 1.00245 0.42856 0.90601 0.0
S1093 S 0.07368 0.39268 0.81357 0.0
N1094 N 0.10027 0.38739 0.8385 0.0
N1095 N 0.03282 0.40739 0.82406 0.0
C1096 C 0.03953 0.40856 0.84902 0.0
C1097 C 0.07616 0.39782 0.85687 0.0
C1098 C 0.33087 0.27167 0.64358 0.0
C1099 C 0.32933 0.26188 0.61817 0.0
C1100 C 0.34151 0.30788 0.65108 0.0
C1101 C 0.35062 0.3357 0.63344 0.0
H1102 H 0.32511 0.25088 0.65781 0.0
H1103 H 0.34341 0.31382 0.67086 0.0
S1104 S 0.34716 0.32519 0.56448 0.0
N1105 N 0.33524 0.28357 0.57534 0.0
N1106 N 0.35475 0.35148 0.5893 0.0
C1107 C 0.34753 0.32663 0.60794 0.0
C1108 C 0.33703 0.28977 0.60035 0.0
C1109 C 0.49064 0.59141 0.3966 0.0
C1110 C 0.49764 0.58002 0.37189 0.0
C1111 C 0.45444 0.6016 0.40438 0.0
C1112 C 0.42394 0.60069 0.38772 0.0
H1113 H 0.51349 0.59381 0.4098 0.0
H1114 H 0.4506 0.61144 0.42333 0.0
S1115 S 0.42668 0.56852 0.32182 0.0
N1116 N 0.47043 0.56531 0.33145 0.0
N1117 N 0.40274 0.58426 0.34598 0.0
C1118 C 0.43032 0.58753 0.36333 0.0
C1119 C 0.46706 0.57726 0.35544 0.0
loop_
_geom_bond_atom_site_label_1
_geom_bond_atom_site_label_2
_geom_bond_distance
_geom_bond_site_symmetry_2
_ccdc_geom_bond_type
In0 O1 2.294 . S
In0 O2 2.326 . S
In0 O6 2.266 . S
In0 O7 2.326 . S
In0 O8 2.266 . S
In0 O9 2.326 . S
In0 O11 2.294 . S
In0 O12 2.326 . S
O1 In0 2.294 . S
O1 C10 1.240 . S
O2 In0 2.326 . S
O2 C10 1.252 . S
C3 O6 1.252 . S
C3 O7 1.260 . S
C4 O11 1.240 . S
C4 O12 1.252 . S
C5 O8 1.252 . S
C5 O9 1.260 . S
O6 In0 2.266 . S
O6 C3 1.252 . S
O7 In0 2.326 . S
O7 C3 1.260 . S
O8 In0 2.266 . S
O8 C5 1.252 . S
O9 In0 2.326 . S
O9 C5 1.260 . S
C10 O1 1.240 . S
C10 O2 1.252 . S
O11 In0 2.294 . S
O11 C4 1.240 . S
O12 In0 2.326 . S
O12 C4 1.252 . S
In13 O14 2.294 . S
In13 O15 2.326 . S
In13 O19 2.266 . S
In13 O20 2.326 . S
In13 O21 2.266 . S
In13 O22 2.326 . S
In13 O24 2.294 . S
In13 O25 2.326 . S
O14 In13 2.294 . S
O14 C23 1.240 . S
O15 In13 2.326 . S
O15 C23 1.252 . S
C16 O19 1.252 . S
C16 O20 1.260 . S
C17 O24 1.240 . S
C17 O25 1.252 . S
C18 O21 1.252 . S
C18 O22 1.260 . S
O19 In13 2.266 . S
O19 C16 1.252 . S
O20 In13 2.326 . S
O20 C16 1.260 . S
O21 In13 2.266 . S
O21 C18 1.252 . S
O22 In13 2.326 . S
O22 C18 1.260 . S
C23 O14 1.240 . S
C23 O15 1.252 . S
O24 In13 2.294 . S
O24 C17 1.240 . S
O25 In13 2.326 . S
O25 C17 1.252 . S
In26 O27 2.294 . S
In26 O28 2.326 . S
In26 O32 2.266 . S
In26 O33 2.326 . S
In26 O34 2.266 . S
In26 O35 2.326 . S
In26 O37 2.294 . S
In26 O38 2.326 . S
O27 In26 2.294 . S
O27 C36 1.240 . S
O28 In26 2.326 . S
O28 C36 1.252 . S
C29 O32 1.252 . S
C29 O33 1.260 . S
C30 O37 1.240 . S
C30 O38 1.252 . S
C31 O34 1.252 . S
C31 O35 1.260 . S
O32 In26 2.266 . S
O32 C29 1.252 . S
O33 In26 2.326 . S
O33 C29 1.260 . S
O34 In26 2.266 . S
O34 C31 1.252 . S
O35 In26 2.326 . S
O35 C31 1.260 . S
C36 O27 1.240 . S
C36 O28 1.252 . S
O37 In26 2.294 . S
O37 C30 1.240 . S
O38 In26 2.326 . S
O38 C30 1.252 . S
In39 O40 2.294 . S
In39 O41 2.326 . S
In39 O45 2.266 . S
In39 O46 2.326 . S
In39 O47 2.266 . S
In39 O48 2.326 . S
In39 O50 2.294 . S
In39 O51 2.326 . S
O40 In39 2.294 . S
O40 C49 1.240 . S
O41 In39 2.326 . S
O41 C49 1.252 . S
C42 O45 1.252 . S
C42 O46 1.260 . S
C43 O50 1.240 . S
C43 O51 1.252 . S
C44 O47 1.252 . S
C44 O48 1.260 . S
O45 In39 2.266 . S
O45 C42 1.252 . S
O46 In39 2.326 . S
O46 C42 1.260 . S
O47 In39 2.266 . S
O47 C44 1.252 . S
O48 In39 2.326 . S
O48 C44 1.260 . S
C49 O40 1.240 . S
C49 O41 1.252 . S
O50 In39 2.294 . S
O50 C43 1.240 . S
O51 In39 2.326 . S
O51 C43 1.252 . S
In52 O53 2.294 . S
In52 O54 2.326 . S
In52 O58 2.266 . S
In52 O59 2.326 . S
In52 O60 2.266 . S
In52 O61 2.326 . S
In52 O63 2.294 . S
In52 O64 2.326 . S
O53 In52 2.294 . S
O53 C62 1.240 . S
O54 In52 2.326 . S
O54 C62 1.252 . S
C55 O58 1.252 . S
C55 O59 1.260 . S
C56 O63 1.240 . S
C56 O64 1.252 . S
C57 O60 1.252 . S
C57 O61 1.260 . S
O58 In52 2.266 . S
O58 C55 1.252 . S
O59 In52 2.326 . S
O59 C55 1.260 . S
O60 In52 2.266 . S
O60 C57 1.252 . S
O61 In52 2.326 . S
O61 C57 1.260 . S
C62 O53 1.240 . S
C62 O54 1.252 . S
O63 In52 2.294 . S
O63 C56 1.240 . S
O64 In52 2.326 . S
O64 C56 1.252 . S
In65 O66 2.294 . S
In65 O67 2.326 . S
In65 O71 2.266 . S
In65 O72 2.326 . S
In65 O73 2.266 . S
In65 O74 2.326 . S
In65 O76 2.294 . S
In65 O77 2.326 . S
O66 In65 2.294 . S
O66 C75 1.240 . S
O67 In65 2.326 . S
O67 C75 1.252 . S
C68 O71 1.252 . S
C68 O72 1.260 . S
C69 O76 1.240 . S
C69 O77 1.252 . S
C70 O73 1.252 . S
C70 O74 1.260 . S
O71 In65 2.266 . S
O71 C68 1.252 . S
O72 In65 2.326 . S
O72 C68 1.260 . S
O73 In65 2.266 . S
O73 C70 1.252 . S
O74 In65 2.326 . S
O74 C70 1.260 . S
C75 O66 1.240 . S
C75 O67 1.252 . S
O76 In65 2.294 . S
O76 C69 1.240 . S
O77 In65 2.326 . S
O77 C69 1.252 . S
In78 O79 2.294 . S
In78 O80 2.326 . S
In78 O84 2.266 . S
In78 O85 2.326 . S
In78 O86 2.266 . S
In78 O87 2.326 . S
In78 O89 2.294 . S
In78 O90 2.326 . S
O79 In78 2.294 . S
O79 C88 1.240 . S
O80 In78 2.326 . S
O80 C88 1.252 . S
C81 O84 1.252 . S
C81 O85 1.260 . S
C82 O89 1.240 . S
C82 O90 1.252 . S
C83 O86 1.252 . S
C83 O87 1.260 . S
O84 In78 2.266 . S
O84 C81 1.252 . S
O85 In78 2.326 . S
O85 C81 1.260 . S
O86 In78 2.266 . S
O86 C83 1.252 . S
O87 In78 2.326 . S
O87 C83 1.260 . S
C88 O79 1.240 . S
C88 O80 1.252 . S
O89 In78 2.294 . S
O89 C82 1.240 . S
O90 In78 2.326 . S
O90 C82 1.252 . S
In91 O92 2.294 . S
In91 O93 2.326 . S
In91 O97 2.266 . S
In91 O98 2.326 . S
In91 O99 2.266 . S
In91 O100 2.326 . S
In91 O102 2.294 . S
In91 O103 2.326 . S
O92 In91 2.294 . S
O92 C101 1.240 . S
O93 In91 2.326 . S
O93 C101 1.252 . S
C94 O97 1.252 . S
C94 O98 1.260 . S
C95 O102 1.240 . S
C95 O103 1.252 . S
C96 O99 1.252 . S
C96 O100 1.260 . S
O97 In91 2.266 . S
O97 C94 1.252 . S
O98 In91 2.326 . S
O98 C94 1.260 . S
O99 In91 2.266 . S
O99 C96 1.252 . S
O100 In91 2.326 . S
O100 C96 1.260 . S
C101 O92 1.240 . S
C101 O93 1.252 . S
O102 In91 2.294 . S
O102 C95 1.240 . S
O103 In91 2.326 . S
O103 C95 1.252 . S
In104 O105 2.294 . S
In104 O106 2.326 . S
In104 O110 2.266 . S
In104 O111 2.326 . S
In104 O112 2.266 . S
In104 O113 2.326 . S
In104 O115 2.294 . S
In104 O116 2.326 . S
O105 In104 2.294 . S
O105 C114 1.240 . S
O106 In104 2.326 . S
O106 C114 1.252 . S
C107 O110 1.252 . S
C107 O111 1.260 . S
C108 O115 1.240 . S
C108 O116 1.252 . S
C109 O112 1.252 . S
C109 O113 1.260 . S
O110 In104 2.266 . S
O110 C107 1.252 . S
O111 In104 2.326 . S
O111 C107 1.260 . S
O112 In104 2.266 . S
O112 C109 1.252 . S
O113 In104 2.326 . S
O113 C109 1.260 . S
C114 O105 1.240 . S
C114 O106 1.252 . S
O115 In104 2.294 . S
O115 C108 1.240 . S
O116 In104 2.326 . S
O116 C108 1.252 . S
In117 O118 2.294 . S
In117 O119 2.326 . S
In117 O123 2.266 . S
In117 O124 2.326 . S
In117 O125 2.266 . S
In117 O126 2.326 . S
In117 O128 2.294 . S
In117 O129 2.326 . S
O118 In117 2.294 . S
O118 C127 1.240 . S
O119 In117 2.326 . S
O119 C127 1.252 . S
C120 O123 1.252 . S
C120 O124 1.260 . S
C121 O128 1.240 . S
C121 O129 1.252 . S
C122 O125 1.252 . S
C122 O126 1.260 . S
O123 In117 2.266 . S
O123 C120 1.252 . S
O124 In117 2.326 . S
O124 C120 1.260 . S
O125 In117 2.266 . S
O125 C122 1.252 . S
O126 In117 2.326 . S
O126 C122 1.260 . S
C127 O118 1.240 . S
C127 O119 1.252 . S
O128 In117 2.294 . S
O128 C121 1.240 . S
O129 In117 2.326 . S
O129 C121 1.252 . S
In130 O131 2.294 . S
In130 O132 2.326 . S
In130 O136 2.266 . S
In130 O137 2.326 . S
In130 O138 2.266 . S
In130 O139 2.326 . S
In130 O141 2.294 . S
In130 O142 2.326 . S
O131 In130 2.294 . S
O131 C140 1.240 . S
O132 In130 2.326 . S
O132 C140 1.252 . S
C133 O136 1.252 . S
C133 O137 1.260 . S
C134 O141 1.240 . S
C134 O142 1.252 . S
C135 O138 1.252 . S
C135 O139 1.260 . S
O136 In130 2.266 . S
O136 C133 1.252 . S
O137 In130 2.326 . S
O137 C133 1.260 . S
O138 In130 2.266 . S
O138 C135 1.252 . S
O139 In130 2.326 . S
O139 C135 1.260 . S
C140 O131 1.240 . S
C140 O132 1.252 . S
O141 In130 2.294 . S
O141 C134 1.240 . S
O142 In130 2.326 . S
O142 C134 1.252 . S
In143 O144 2.294 . S
In143 O145 2.326 . S
In143 O149 2.266 . S
In143 O150 2.326 . S
In143 O151 2.266 . S
In143 O152 2.326 . S
In143 O154 2.294 . S
In143 O155 2.326 . S
O144 In143 2.294 . S
O144 C153 1.240 . S
O145 In143 2.326 . S
O145 C153 1.252 . S
C146 O149 1.252 . S
C146 O150 1.260 . S
C147 O154 1.240 . S
C147 O155 1.252 . S
C148 O151 1.252 . S
C148 O152 1.260 . S
O149 In143 2.266 . S
O149 C146 1.252 . S
O150 In143 2.326 . S
O150 C146 1.260 . S
O151 In143 2.266 . S
O151 C148 1.252 . S
O152 In143 2.326 . S
O152 C148 1.260 . S
C153 O144 1.240 . S
C153 O145 1.252 . S
O154 In143 2.294 . S
O154 C147 1.240 . S
O155 In143 2.326 . S
O155 C147 1.252 . S
In156 O157 2.294 . S
In156 O158 2.326 . S
In156 O162 2.266 . S
In156 O163 2.326 . S
In156 O164 2.266 . S
In156 O165 2.326 . S
In156 O167 2.294 . S
In156 O168 2.326 . S
O157 In156 2.294 . S
O157 C166 1.240 . S
O158 In156 2.326 . S
O158 C166 1.252 . S
C159 O162 1.252 . S
C159 O163 1.260 . S
C160 O167 1.240 . S
C160 O168 1.252 . S
C161 O164 1.252 . S
C161 O165 1.260 . S
O162 In156 2.266 . S
O162 C159 1.252 . S
O163 In156 2.326 . S
O163 C159 1.260 . S
O164 In156 2.266 . S
O164 C161 1.252 . S
O165 In156 2.326 . S
O165 C161 1.260 . S
C166 O157 1.240 . S
C166 O158 1.252 . S
O167 In156 2.294 . S
O167 C160 1.240 . S
O168 In156 2.326 . S
O168 C160 1.252 . S
In169 O170 2.294 . S
In169 O171 2.326 . S
In169 O175 2.266 . S
In169 O176 2.326 . S
In169 O177 2.266 . S
In169 O178 2.326 . S
In169 O180 2.294 . S
In169 O181 2.326 . S
O170 In169 2.294 . S
O170 C179 1.240 . S
O171 In169 2.326 . S
O171 C179 1.252 . S
C172 O175 1.252 . S
C172 O176 1.260 . S
C173 O180 1.240 . S
C173 O181 1.252 . S
C174 O177 1.252 . S
C174 O178 1.260 . S
O175 In169 2.266 . S
O175 C172 1.252 . S
O176 In169 2.326 . S
O176 C172 1.260 . S
O177 In169 2.266 . S
O177 C174 1.252 . S
O178 In169 2.326 . S
O178 C174 1.260 . S
C179 O170 1.240 . S
C179 O171 1.252 . S
O180 In169 2.294 . S
O180 C173 1.240 . S
O181 In169 2.326 . S
O181 C173 1.252 . S
In182 O183 2.294 . S
In182 O184 2.326 . S
In182 O188 2.266 . S
In182 O189 2.326 . S
In182 O190 2.266 . S
In182 O191 2.326 . S
In182 O193 2.294 . S
In182 O194 2.326 . S
O183 In182 2.294 . S
O183 C192 1.240 . S
O184 In182 2.326 . S
O184 C192 1.252 . S
C185 O188 1.252 . S
C185 O189 1.260 . S
C186 O193 1.240 . S
C186 O194 1.252 . S
C187 O190 1.252 . S
C187 O191 1.260 . S
O188 In182 2.266 . S
O188 C185 1.252 . S
O189 In182 2.326 . S
O189 C185 1.260 . S
O190 In182 2.266 . S
O190 C187 1.252 . S
O191 In182 2.326 . S
O191 C187 1.260 . S
C192 O183 1.240 . S
C192 O184 1.252 . S
O193 In182 2.294 . S
O193 C186 1.240 . S
O194 In182 2.326 . S
O194 C186 1.252 . S
In195 O196 2.294 . S
In195 O197 2.326 . S
In195 O201 2.266 . S
In195 O202 2.326 . S
In195 O203 2.266 . S
In195 O204 2.326 . S
In195 O206 2.294 . S
In195 O207 2.326 . S
O196 In195 2.294 . S
O196 C205 1.240 . S
O197 In195 2.326 . S
O197 C205 1.252 . S
C198 O201 1.252 . S
C198 O202 1.260 . S
C199 O206 1.240 . S
C199 O207 1.252 . S
C200 O203 1.252 . S
C200 O204 1.260 . S
O201 In195 2.266 . S
O201 C198 1.252 . S
O202 In195 2.326 . S
O202 C198 1.260 . S
O203 In195 2.266 . S
O203 C200 1.252 . S
O204 In195 2.326 . S
O204 C200 1.260 . S
C205 O196 1.240 . S
C205 O197 1.252 . S
O206 In195 2.294 . S
O206 C199 1.240 . S
O207 In195 2.326 . S
O207 C199 1.252 . S
In208 O209 2.294 . S
In208 O210 2.326 . S
In208 O214 2.266 . S
In208 O215 2.326 . S
In208 O216 2.266 . S
In208 O217 2.326 . S
In208 O219 2.294 . S
In208 O220 2.326 . S
O209 In208 2.294 . S
O209 C218 1.240 . S
O210 In208 2.326 . S
O210 C218 1.252 . S
C211 O214 1.252 . S
C211 O215 1.260 . S
C212 O219 1.240 . S
C212 O220 1.252 . S
C213 O216 1.252 . S
C213 O217 1.260 . S
O214 In208 2.266 . S
O214 C211 1.252 . S
O215 In208 2.326 . S
O215 C211 1.260 . S
O216 In208 2.266 . S
O216 C213 1.252 . S
O217 In208 2.326 . S
O217 C213 1.260 . S
C218 O209 1.240 . S
C218 O210 1.252 . S
O219 In208 2.294 . S
O219 C212 1.240 . S
O220 In208 2.326 . S
O220 C212 1.252 . S
In221 O222 2.294 . S
In221 O223 2.326 . S
In221 O227 2.266 . S
In221 O228 2.326 . S
In221 O229 2.266 . S
In221 O230 2.326 . S
In221 O232 2.294 . S
In221 O233 2.326 . S
O222 In221 2.294 . S
O222 C231 1.240 . S
O223 In221 2.326 . S
O223 C231 1.252 . S
C224 O227 1.252 . S
C224 O228 1.260 . S
C225 O232 1.240 . S
C225 O233 1.252 . S
C226 O229 1.252 . S
C226 O230 1.260 . S
O227 In221 2.266 . S
O227 C224 1.252 . S
O228 In221 2.326 . S
O228 C224 1.260 . S
O229 In221 2.266 . S
O229 C226 1.252 . S
O230 In221 2.326 . S
O230 C226 1.260 . S
C231 O222 1.240 . S
C231 O223 1.252 . S
O232 In221 2.294 . S
O232 C225 1.240 . S
O233 In221 2.326 . S
O233 C225 1.252 . S
In234 O235 2.294 . S
In234 O236 2.326 . S
In234 O240 2.266 . S
In234 O241 2.326 . S
In234 O242 2.266 . S
In234 O243 2.326 . S
In234 O245 2.294 . S
In234 O246 2.326 . S
O235 In234 2.294 . S
O235 C244 1.240 . S
O236 In234 2.326 . S
O236 C244 1.252 . S
C237 O240 1.252 . S
C237 O241 1.260 . S
C238 O245 1.240 . S
C238 O246 1.252 . S
C239 O242 1.252 . S
C239 O243 1.260 . S
O240 In234 2.266 . S
O240 C237 1.252 . S
O241 In234 2.326 . S
O241 C237 1.260 . S
O242 In234 2.266 . S
O242 C239 1.252 . S
O243 In234 2.326 . S
O243 C239 1.260 . S
C244 O235 1.240 . S
C244 O236 1.252 . S
O245 In234 2.294 . S
O245 C238 1.240 . S
O246 In234 2.326 . S
O246 C238 1.252 . S
In247 O248 2.294 . S
In247 O249 2.326 . S
In247 O253 2.266 . S
In247 O254 2.326 . S
In247 O255 2.266 . S
In247 O256 2.326 . S
In247 O258 2.294 . S
In247 O259 2.326 . S
O248 In247 2.294 . S
O248 C257 1.240 . S
O249 In247 2.326 . S
O249 C257 1.252 . S
C250 O253 1.252 . S
C250 O254 1.260 . S
C251 O258 1.240 . S
C251 O259 1.252 . S
C252 O255 1.252 . S
C252 O256 1.260 . S
O253 In247 2.266 . S
O253 C250 1.252 . S
O254 In247 2.326 . S
O254 C250 1.260 . S
O255 In247 2.266 . S
O255 C252 1.252 . S
O256 In247 2.326 . S
O256 C252 1.260 . S
C257 O248 1.240 . S
C257 O249 1.252 . S
O258 In247 2.294 . S
O258 C251 1.240 . S
O259 In247 2.326 . S
O259 C251 1.252 . S
In260 O261 2.294 . S
In260 O262 2.326 . S
In260 O266 2.266 . S
In260 O267 2.326 . S
In260 O268 2.266 . S
In260 O269 2.326 . S
In260 O271 2.294 . S
In260 O272 2.326 . S
O261 In260 2.294 . S
O261 C270 1.240 . S
O262 In260 2.326 . S
O262 C270 1.252 . S
C263 O266 1.252 . S
C263 O267 1.260 . S
C264 O271 1.240 . S
C264 O272 1.252 . S
C265 O268 1.252 . S
C265 O269 1.260 . S
O266 In260 2.266 . S
O266 C263 1.252 . S
O267 In260 2.326 . S
O267 C263 1.260 . S
O268 In260 2.266 . S
O268 C265 1.252 . S
O269 In260 2.326 . S
O269 C265 1.260 . S
C270 O261 1.240 . S
C270 O262 1.252 . S
O271 In260 2.294 . S
O271 C264 1.240 . S
O272 In260 2.326 . S
O272 C264 1.252 . S
In273 O274 2.294 . S
In273 O275 2.326 . S
In273 O279 2.266 . S
In273 O280 2.326 . S
In273 O281 2.266 . S
In273 O282 2.326 . S
In273 O284 2.294 . S
In273 O285 2.326 . S
O274 In273 2.294 . S
O274 C283 1.240 . S
O275 In273 2.326 . S
O275 C283 1.252 . S
C276 O279 1.252 . S
C276 O280 1.260 . S
C277 O284 1.240 . S
C277 O285 1.252 . S
C278 O281 1.252 . S
C278 O282 1.260 . S
O279 In273 2.266 . S
O279 C276 1.252 . S
O280 In273 2.326 . S
O280 C276 1.260 . S
O281 In273 2.266 . S
O281 C278 1.252 . S
O282 In273 2.326 . S
O282 C278 1.260 . S
C283 O274 1.240 . S
C283 O275 1.252 . S
O284 In273 2.294 . S
O284 C277 1.240 . S
O285 In273 2.326 . S
O285 C277 1.252 . S
In286 O287 2.294 . S
In286 O288 2.326 . S
In286 O292 2.266 . S
In286 O293 2.326 . S
In286 O294 2.266 . S
In286 O295 2.326 . S
In286 O297 2.294 . S
In286 O298 2.326 . S
O287 In286 2.294 . S
O287 C296 1.240 . S
O288 In286 2.326 . S
O288 C296 1.252 . S
C289 O292 1.252 . S
C289 O293 1.260 . S
C290 O297 1.240 . S
C290 O298 1.252 . S
C291 O294 1.252 . S
C291 O295 1.260 . S
O292 In286 2.266 . S
O292 C289 1.252 . S
O293 In286 2.326 . S
O293 C289 1.260 . S
O294 In286 2.266 . S
O294 C291 1.252 . S
O295 In286 2.326 . S
O295 C291 1.260 . S
C296 O287 1.240 . S
C296 O288 1.252 . S
O297 In286 2.294 . S
O297 C290 1.240 . S
O298 In286 2.326 . S
O298 C290 1.252 . S
In299 O300 2.294 . S
In299 O301 2.326 . S
In299 O305 2.266 . S
In299 O306 2.326 . S
In299 O307 2.266 . S
In299 O308 2.326 . S
In299 O310 2.294 . S
In299 O311 2.326 . S
O300 In299 2.294 . S
O300 C309 1.240 . S
O301 In299 2.326 . S
O301 C309 1.252 . S
C302 O305 1.252 . S
C302 O306 1.260 . S
C303 O310 1.240 . S
C303 O311 1.252 . S
C304 O307 1.252 . S
C304 O308 1.260 . S
O305 In299 2.266 . S
O305 C302 1.252 . S
O306 In299 2.326 . S
O306 C302 1.260 . S
O307 In299 2.266 . S
O307 C304 1.252 . S
O308 In299 2.326 . S
O308 C304 1.260 . S
C309 O300 1.240 . S
C309 O301 1.252 . S
O310 In299 2.294 . S
O310 C303 1.240 . S
O311 In299 2.326 . S
O311 C303 1.252 . S
In312 O313 2.294 . S
In312 O314 2.326 . S
In312 O318 2.266 . S
In312 O319 2.326 . S
In312 O320 2.266 . S
In312 O321 2.326 . S
In312 O323 2.294 . S
In312 O324 2.326 . S
O313 In312 2.294 . S
O313 C322 1.240 . S
O314 In312 2.326 . S
O314 C322 1.252 . S
C315 O318 1.252 . S
C315 O319 1.260 . S
C316 O323 1.240 . S
C316 O324 1.252 . S
C317 O320 1.252 . S
C317 O321 1.260 . S
O318 In312 2.266 . S
O318 C315 1.252 . S
O319 In312 2.326 . S
O319 C315 1.260 . S
O320 In312 2.266 . S
O320 C317 1.252 . S
O321 In312 2.326 . S
O321 C317 1.260 . S
C322 O313 1.240 . S
C322 O314 1.252 . S
O323 In312 2.294 . S
O323 C316 1.240 . S
O324 In312 2.326 . S
O324 C316 1.252 . S
In325 O326 2.294 . S
In325 O327 2.326 . S
In325 O331 2.266 . S
In325 O332 2.326 . S
In325 O333 2.266 . S
In325 O334 2.326 . S
In325 O336 2.294 . S
In325 O337 2.326 . S
O326 In325 2.294 . S
O326 C335 1.240 . S
O327 In325 2.326 . S
O327 C335 1.252 . S
C328 O331 1.252 . S
C328 O332 1.260 . S
C329 O336 1.240 . S
C329 O337 1.252 . S
C330 O333 1.252 . S
C330 O334 1.260 . S
O331 In325 2.266 . S
O331 C328 1.252 . S
O332 In325 2.326 . S
O332 C328 1.260 . S
O333 In325 2.266 . S
O333 C330 1.252 . S
O334 In325 2.326 . S
O334 C330 1.260 . S
C335 O326 1.240 . S
C335 O327 1.252 . S
O336 In325 2.294 . S
O336 C329 1.240 . S
O337 In325 2.326 . S
O337 C329 1.252 . S
In338 O339 2.294 . S
In338 O340 2.326 . S
In338 O344 2.266 . S
In338 O345 2.326 . S
In338 O346 2.266 . S
In338 O347 2.326 . S
In338 O349 2.294 . S
In338 O350 2.326 . S
O339 In338 2.294 . S
O339 C348 1.240 . S
O340 In338 2.326 . S
O340 C348 1.252 . S
C341 O344 1.252 . S
C341 O345 1.260 . S
C342 O349 1.240 . S
C342 O350 1.252 . S
C343 O346 1.252 . S
C343 O347 1.260 . S
O344 In338 2.266 . S
O344 C341 1.252 . S
O345 In338 2.326 . S
O345 C341 1.260 . S
O346 In338 2.266 . S
O346 C343 1.252 . S
O347 In338 2.326 . S
O347 C343 1.260 . S
C348 O339 1.240 . S
C348 O340 1.252 . S
O349 In338 2.294 . S
O349 C342 1.240 . S
O350 In338 2.326 . S
O350 C342 1.252 . S
In351 O352 2.294 . S
In351 O353 2.326 . S
In351 O357 2.266 . S
In351 O358 2.326 . S
In351 O359 2.266 . S
In351 O360 2.326 . S
In351 O362 2.294 . S
In351 O363 2.326 . S
O352 In351 2.294 . S
O352 C361 1.240 . S
O353 In351 2.326 . S
O353 C361 1.252 . S
C354 O357 1.252 . S
C354 O358 1.260 . S
C355 O362 1.240 . S
C355 O363 1.252 . S
C356 O359 1.252 . S
C356 O360 1.260 . S
O357 In351 2.266 . S
O357 C354 1.252 . S
O358 In351 2.326 . S
O358 C354 1.260 . S
O359 In351 2.266 . S
O359 C356 1.252 . S
O360 In351 2.326 . S
O360 C356 1.260 . S
C361 O352 1.240 . S
C361 O353 1.252 . S
O362 In351 2.294 . S
O362 C355 1.240 . S
O363 In351 2.326 . S
O363 C355 1.252 . S
In364 O365 2.294 . S
In364 O366 2.326 . S
In364 O370 2.266 . S
In364 O371 2.326 . S
In364 O372 2.266 . S
In364 O373 2.326 . S
In364 O375 2.294 . S
In364 O376 2.326 . S
O365 In364 2.294 . S
O365 C374 1.240 . S
O366 In364 2.326 . S
O366 C374 1.252 . S
C367 O370 1.252 . S
C367 O371 1.260 . S
C368 O375 1.240 . S
C368 O376 1.252 . S
C369 O372 1.252 . S
C369 O373 1.260 . S
O370 In364 2.266 . S
O370 C367 1.252 . S
O371 In364 2.326 . S
O371 C367 1.260 . S
O372 In364 2.266 . S
O372 C369 1.252 . S
O373 In364 2.326 . S
O373 C369 1.260 . S
C374 O365 1.240 . S
C374 O366 1.252 . S
O375 In364 2.294 . S
O375 C368 1.240 . S
O376 In364 2.326 . S
O376 C368 1.252 . S
In377 O378 2.294 . S
In377 O379 2.326 . S
In377 O383 2.266 . S
In377 O384 2.326 . S
In377 O385 2.266 . S
In377 O386 2.326 . S
In377 O388 2.294 . S
In377 O389 2.326 . S
O378 In377 2.294 . S
O378 C387 1.240 . S
O379 In377 2.326 . S
O379 C387 1.252 . S
C380 O383 1.252 . S
C380 O384 1.260 . S
C381 O388 1.240 . S
C381 O389 1.252 . S
C382 O385 1.252 . S
C382 O386 1.260 . S
O383 In377 2.266 . S
O383 C380 1.252 . S
O384 In377 2.326 . S
O384 C380 1.260 . S
O385 In377 2.266 . S
O385 C382 1.252 . S
O386 In377 2.326 . S
O386 C382 1.260 . S
C387 O378 1.240 . S
C387 O379 1.252 . S
O388 In377 2.294 . S
O388 C381 1.240 . S
O389 In377 2.326 . S
O389 C381 1.252 . S
In390 O391 2.294 . S
In390 O392 2.326 . S
In390 O396 2.266 . S
In390 O397 2.326 . S
In390 O398 2.266 . S
In390 O399 2.326 . S
In390 O401 2.294 . S
In390 O402 2.326 . S
O391 In390 2.294 . S
O391 C400 1.240 . S
O392 In390 2.326 . S
O392 C400 1.252 . S
C393 O396 1.252 . S
C393 O397 1.260 . S
C394 O401 1.240 . S
C394 O402 1.252 . S
C395 O398 1.252 . S
C395 O399 1.260 . S
O396 In390 2.266 . S
O396 C393 1.252 . S
O397 In390 2.326 . S
O397 C393 1.260 . S
O398 In390 2.266 . S
O398 C395 1.252 . S
O399 In390 2.326 . S
O399 C395 1.260 . S
C400 O391 1.240 . S
C400 O392 1.252 . S
O401 In390 2.294 . S
O401 C394 1.240 . S
O402 In390 2.326 . S
O402 C394 1.252 . S
In403 O404 2.294 . S
In403 O405 2.326 . S
In403 O409 2.266 . S
In403 O410 2.326 . S
In403 O411 2.266 . S
In403 O412 2.326 . S
In403 O414 2.294 . S
In403 O415 2.326 . S
O404 In403 2.294 . S
O404 C413 1.240 . S
O405 In403 2.326 . S
O405 C413 1.252 . S
C406 O409 1.252 . S
C406 O410 1.260 . S
C407 O414 1.240 . S
C407 O415 1.252 . S
C408 O411 1.252 . S
C408 O412 1.260 . S
O409 In403 2.266 . S
O409 C406 1.252 . S
O410 In403 2.326 . S
O410 C406 1.260 . S
O411 In403 2.266 . S
O411 C408 1.252 . S
O412 In403 2.326 . S
O412 C408 1.260 . S
C413 O404 1.240 . S
C413 O405 1.252 . S
O414 In403 2.294 . S
O414 C407 1.240 . S
O415 In403 2.326 . S
O415 C407 1.252 . S
C416 C417 1.369 . S
C416 C418 1.419 . S
C416 H420 0.930 . S
C417 C416 1.369 . S
C417 C426 1.429 1_565 S
C418 C416 1.419 . S
C418 C419 1.363 1_565 S
C418 H421 0.929 . S
C419 C418 1.363 1_545 S
C419 C425 1.428 . S
H420 C416 0.930 . S
H421 C418 0.929 . S
S422 N423 1.613 . S
S422 N424 1.610 . S
N423 S422 1.613 . S
N423 C426 1.350 . S
N424 S422 1.610 . S
N424 C425 1.351 . S
C425 C419 1.428 . S
C425 N424 1.351 . S
C425 C426 1.434 . S
C426 C417 1.429 1_545 S
C426 N423 1.350 . S
C426 C425 1.434 . S
C427 C428 1.369 . S
C427 C429 1.419 . S
C427 H431 0.930 . S
C428 C427 1.369 . S
C428 C437 1.429 . S
C429 C427 1.419 . S
C429 C430 1.363 . S
C429 H432 0.929 . S
C430 C429 1.363 . S
C430 C436 1.428 . S
H431 C427 0.930 . S
H432 C429 0.929 . S
S433 N434 1.613 . S
S433 N435 1.610 . S
N434 S433 1.613 . S
N434 C437 1.350 . S
N435 S433 1.610 . S
N435 C436 1.351 . S
C436 C430 1.428 . S
C436 N435 1.351 . S
C436 C437 1.434 . S
C437 C428 1.429 . S
C437 N434 1.350 . S
C437 C436 1.434 . S
C438 C439 1.369 1_565 S
C438 C440 1.419 . S
C438 H442 0.930 . S
C439 C438 1.369 1_545 S
C439 C448 1.429 . S
C440 C438 1.419 . S
C440 C441 1.363 . S
C440 H443 0.929 . S
C441 C440 1.363 . S
C441 C447 1.428 1_565 S
H442 C438 0.930 . S
H443 C440 0.929 . S
S444 N445 1.613 . S
S444 N446 1.610 . S
N445 S444 1.613 . S
N445 C448 1.350 . S
N446 S444 1.610 . S
N446 C447 1.351 . S
C447 C441 1.428 1_545 S
C447 N446 1.351 . S
C447 C448 1.434 . S
C448 C439 1.429 . S
C448 N445 1.350 . S
C448 C447 1.434 . S
C449 C450 1.369 . S
C449 C451 1.419 1_556 S
C449 H453 0.930 . S
C450 C449 1.369 . S
C450 C459 1.429 . S
C451 C449 1.419 1_554 S
C451 C452 1.363 . S
C451 H454 0.929 . S
C452 C451 1.363 . S
C452 C458 1.428 . S
H453 C449 0.930 . S
H454 C451 0.929 . S
S455 N456 1.613 . S
S455 N457 1.610 1_556 S
N456 S455 1.613 . S
N456 C459 1.350 . S
N457 S455 1.610 1_554 S
N457 C458 1.351 . S
C458 C452 1.428 . S
C458 N457 1.351 . S
C458 C459 1.434 1_554 S
C459 C450 1.429 . S
C459 N456 1.350 . S
C459 C458 1.434 1_556 S
C460 C461 1.369 1_545 S
C460 C462 1.419 . S
C460 H464 0.930 . S
C461 C460 1.369 1_565 S
C461 C470 1.429 . S
C462 C460 1.419 . S
C462 C463 1.363 . S
C462 H465 0.929 . S
C463 C462 1.363 . S
C463 C469 1.428 1_545 S
H464 C460 0.930 . S
H465 C462 0.929 . S
S466 N467 1.613 . S
S466 N468 1.610 . S
N467 S466 1.613 . S
N467 C470 1.350 . S
N468 S466 1.610 . S
N468 C469 1.351 . S
C469 C463 1.428 1_565 S
C469 N468 1.351 . S
C469 C470 1.434 . S
C470 C461 1.429 . S
C470 N467 1.350 . S
C470 C469 1.434 . S
C471 C472 1.369 . S
C471 C473 1.419 . S
C471 H475 0.930 . S
C472 C471 1.369 . S
C472 C481 1.429 . S
C473 C471 1.419 . S
C473 C474 1.363 . S
C473 H476 0.929 . S
C474 C473 1.363 . S
C474 C480 1.428 . S
H475 C471 0.930 . S
H476 C473 0.929 . S
S477 N478 1.613 . S
S477 N479 1.610 . S
N478 S477 1.613 . S
N478 C481 1.350 . S
N479 S477 1.610 . S
N479 C480 1.351 . S
C480 C474 1.428 . S
C480 N479 1.351 . S
C480 C481 1.434 . S
C481 C472 1.429 . S
C481 N478 1.350 . S
C481 C480 1.434 . S
C482 C483 1.369 1_565 S
C482 C484 1.419 . S
C482 H486 0.930 . S
C483 C482 1.369 1_545 S
C483 C492 1.429 . S
C484 C482 1.419 . S
C484 C485 1.363 . S
C484 H487 0.929 . S
C485 C484 1.363 . S
C485 C491 1.428 1_565 S
H486 C482 0.930 . S
H487 C484 0.929 . S
S488 N489 1.613 . S
S488 N490 1.610 . S
N489 S488 1.613 . S
N489 C492 1.350 . S
N490 S488 1.610 . S
N490 C491 1.351 . S
C491 C485 1.428 1_545 S
C491 N490 1.351 . S
C491 C492 1.434 . S
C492 C483 1.429 . S
C492 N489 1.350 . S
C492 C491 1.434 . S
C493 C494 1.369 . S
C493 C495 1.419 1_556 S
C493 H497 0.930 . S
C494 C493 1.369 . S
C494 C503 1.429 . S
C495 C493 1.419 1_554 S
C495 C496 1.363 . S
C495 H498 0.929 . S
C496 C495 1.363 . S
C496 C502 1.428 . S
H497 C493 0.930 . S
H498 C495 0.929 . S
S499 N500 1.613 . S
S499 N501 1.610 1_556 S
N500 S499 1.613 . S
N500 C503 1.350 . S
N501 S499 1.610 1_554 S
N501 C502 1.351 . S
C502 C496 1.428 . S
C502 N501 1.351 . S
C502 C503 1.434 1_554 S
C503 C494 1.429 . S
C503 N500 1.350 . S
C503 C502 1.434 1_556 S
C504 C505 1.369 . S
C504 C506 1.419 . S
C504 H508 0.930 . S
C505 C504 1.369 . S
C505 C514 1.429 . S
C506 C504 1.419 . S
C506 C507 1.363 . S
C506 H509 0.929 . S
C507 C506 1.363 . S
C507 C513 1.428 . S
H508 C504 0.930 . S
H509 C506 0.929 . S
S510 N511 1.613 . S
S510 N512 1.610 . S
N511 S510 1.613 . S
N511 C514 1.350 . S
N512 S510 1.610 . S
N512 C513 1.351 . S
C513 C507 1.428 . S
C513 N512 1.351 . S
C513 C514 1.434 . S
C514 C505 1.429 . S
C514 N511 1.350 . S
C514 C513 1.434 . S
C515 C516 1.369 . S
C515 C517 1.419 1_554 S
C515 H519 0.930 . S
C516 C515 1.369 . S
C516 C525 1.429 . S
C517 C515 1.419 1_556 S
C517 C518 1.363 . S
C517 H520 0.929 . S
C518 C517 1.363 . S
C518 C524 1.428 . S
H519 C515 0.930 . S
H520 C517 0.929 . S
S521 N522 1.613 . S
S521 N523 1.610 1_554 S
N522 S521 1.613 . S
N522 C525 1.350 . S
N523 S521 1.610 1_556 S
N523 C524 1.351 . S
C524 C518 1.428 . S
C524 N523 1.351 . S
C524 C525 1.434 1_556 S
C525 C516 1.429 . S
C525 N522 1.350 . S
C525 C524 1.434 1_554 S
C526 C527 1.369 . S
C526 C528 1.419 . S
C526 H530 0.930 . S
C527 C526 1.369 . S
C527 C536 1.429 . S
C528 C526 1.419 . S
C528 C529 1.363 . S
C528 H531 0.929 . S
C529 C528 1.363 . S
C529 C535 1.428 . S
H530 C526 0.930 . S
H531 C528 0.929 . S
S532 N533 1.613 . S
S532 N534 1.610 . S
N533 S532 1.613 . S
N533 C536 1.350 . S
N534 S532 1.610 . S
N534 C535 1.351 . S
C535 C529 1.428 . S
C535 N534 1.351 . S
C535 C536 1.434 . S
C536 C527 1.429 . S
C536 N533 1.350 . S
C536 C535 1.434 . S
C537 C538 1.369 . S
C537 C539 1.419 . S
C537 H541 0.930 . S
C538 C537 1.369 . S
C538 C547 1.429 . S
C539 C537 1.419 . S
C539 C540 1.363 . S
C539 H542 0.929 . S
C540 C539 1.363 . S
C540 C546 1.428 . S
H541 C537 0.930 . S
H542 C539 0.929 . S
S543 N544 1.613 . S
S543 N545 1.610 . S
N544 S543 1.613 . S
N544 C547 1.350 . S
N545 S543 1.610 . S
N545 C546 1.351 . S
C546 C540 1.428 . S
C546 N545 1.351 . S
C546 C547 1.434 . S
C547 C538 1.429 . S
C547 N544 1.350 . S
C547 C546 1.434 . S
C548 C549 1.369 . S
C548 C550 1.419 . S
C548 H552 0.930 . S
C549 C548 1.369 . S
C549 C558 1.429 . S
C550 C548 1.419 . S
C550 C551 1.363 . S
C550 H553 0.929 . S
C551 C550 1.363 . S
C551 C557 1.428 . S
H552 C548 0.930 . S
H553 C550 0.929 . S
S554 N555 1.613 . S
S554 N556 1.610 . S
N555 S554 1.613 . S
N555 C558 1.350 . S
N556 S554 1.610 . S
N556 C557 1.351 . S
C557 C551 1.428 . S
C557 N556 1.351 . S
C557 C558 1.434 . S
C558 C549 1.429 . S
C558 N555 1.350 . S
C558 C557 1.434 . S
C559 C560 1.369 . S
C559 C561 1.419 1_554 S
C559 H563 0.930 . S
C560 C559 1.369 . S
C560 C569 1.429 . S
C561 C559 1.419 1_556 S
C561 C562 1.363 . S
C561 H564 0.929 . S
C562 C561 1.363 . S
C562 C568 1.428 . S
H563 C559 0.930 . S
H564 C561 0.929 . S
S565 N566 1.613 . S
S565 N567 1.610 1_554 S
N566 S565 1.613 . S
N566 C569 1.350 . S
N567 S565 1.610 1_556 S
N567 C568 1.351 . S
C568 C562 1.428 . S
C568 N567 1.351 . S
C568 C569 1.434 1_556 S
C569 C560 1.429 . S
C569 N566 1.350 . S
C569 C568 1.434 1_554 S
C570 C571 1.369 . S
C570 C572 1.419 . S
C570 H574 0.930 . S
C571 C570 1.369 . S
C571 C580 1.429 . S
C572 C570 1.419 . S
C572 C573 1.363 . S
C572 H575 0.929 . S
C573 C572 1.363 . S
C573 C579 1.428 . S
H574 C570 0.930 . S
H575 C572 0.929 . S
S576 N577 1.613 . S
S576 N578 1.610 . S
N577 S576 1.613 . S
N577 C580 1.350 . S
N578 S576 1.610 . S
N578 C579 1.351 . S
C579 C573 1.428 . S
C579 N578 1.351 . S
C579 C580 1.434 . S
C580 C571 1.429 . S
C580 N577 1.350 . S
C580 C579 1.434 . S
C581 C582 1.369 . S
C581 C583 1.419 . S
C581 H585 0.930 . S
C582 C581 1.369 . S
C582 C591 1.429 . S
C583 C581 1.419 . S
C583 C584 1.363 . S
C583 H586 0.929 . S
C584 C583 1.363 . S
C584 C590 1.428 . S
H585 C581 0.930 . S
H586 C583 0.929 . S
S587 N588 1.613 . S
S587 N589 1.610 . S
N588 S587 1.613 . S
N588 C591 1.350 . S
N589 S587 1.610 . S
N589 C590 1.351 . S
C590 C584 1.428 . S
C590 N589 1.351 . S
C590 C591 1.434 . S
C591 C582 1.429 . S
C591 N588 1.350 . S
C591 C590 1.434 . S
C592 C593 1.369 . S
C592 C594 1.419 . S
C592 H596 0.930 . S
C593 C592 1.369 . S
C593 C602 1.429 . S
C594 C592 1.419 . S
C594 C595 1.363 . S
C594 H597 0.929 . S
C595 C594 1.363 . S
C595 C601 1.428 . S
H596 C592 0.930 . S
H597 C594 0.929 . S
S598 N599 1.613 1_565 S
S598 N600 1.610 . S
N599 S598 1.613 1_545 S
N599 C602 1.350 1_545 S
N600 S598 1.610 . S
N600 C601 1.351 . S
C601 C595 1.428 . S
C601 N600 1.351 . S
C601 C602 1.434 . S
C602 C593 1.429 . S
C602 N599 1.350 1_565 S
C602 C601 1.434 . S
C603 C604 1.369 . S
C603 C605 1.419 . S
C603 H607 0.930 . S
C604 C603 1.369 . S
C604 C613 1.429 . S
C605 C603 1.419 . S
C605 C606 1.363 . S
C605 H608 0.929 . S
C606 C605 1.363 . S
C606 C612 1.428 1_545 S
H607 C603 0.930 . S
H608 C605 0.929 . S
S609 N610 1.613 1_565 S
S609 N611 1.610 . S
N610 S609 1.613 1_545 S
N610 C613 1.350 . S
N611 S609 1.610 . S
N611 C612 1.351 . S
C612 C606 1.428 1_565 S
C612 N611 1.351 . S
C612 C613 1.434 1_565 S
C613 C604 1.429 . S
C613 N610 1.350 . S
C613 C612 1.434 1_545 S
C614 C615 1.369 . S
C614 C616 1.419 . S
C614 H618 0.930 . S
C615 C614 1.369 . S
C615 C624 1.429 . S
C616 C614 1.419 . S
C616 C617 1.363 . S
C616 H619 0.929 . S
C617 C616 1.363 . S
C617 C623 1.428 . S
H618 C614 0.930 . S
H619 C616 0.929 . S
S620 N621 1.613 . S
S620 N622 1.610 1_565 S
N621 S620 1.613 . S
N621 C624 1.350 1_565 S
N622 S620 1.610 1_545 S
N622 C623 1.351 . S
C623 C617 1.428 . S
C623 N622 1.351 . S
C623 C624 1.434 . S
C624 C615 1.429 . S
C624 N621 1.350 1_545 S
C624 C623 1.434 . S
C625 C626 1.369 . S
C625 C627 1.419 . S
C625 H629 0.930 1_565 S
C626 C625 1.369 . S
C626 C635 1.429 . S
C627 C625 1.419 . S
C627 C628 1.363 . S
C627 H630 0.929 . S
C628 C627 1.363 . S
C628 C634 1.428 . S
H629 C625 0.930 1_545 S
H630 C627 0.929 . S
S631 N632 1.613 . S
S631 N633 1.610 . S
N632 S631 1.613 . S
N632 C635 1.350 . S
N633 S631 1.610 . S
N633 C634 1.351 . S
C634 C628 1.428 . S
C634 N633 1.351 . S
C634 C635 1.434 . S
C635 C626 1.429 . S
C635 N632 1.350 . S
C635 C634 1.434 . S
C636 C637 1.369 . S
C636 C638 1.419 . S
C636 H640 0.930 . S
C637 C636 1.369 . S
C637 C646 1.429 . S
C638 C636 1.419 . S
C638 C639 1.363 . S
C638 H641 0.929 1_545 S
C639 C638 1.363 . S
C639 C645 1.428 . S
H640 C636 0.930 . S
H641 C638 0.929 1_565 S
S642 N643 1.613 . S
S642 N644 1.610 . S
N643 S642 1.613 . S
N643 C646 1.350 . S
N644 S642 1.610 . S
N644 C645 1.351 . S
C645 C639 1.428 . S
C645 N644 1.351 . S
C645 C646 1.434 . S
C646 C637 1.429 . S
C646 N643 1.350 . S
C646 C645 1.434 . S
C647 C648 1.369 . S
C647 C649 1.419 . S
C647 H651 0.930 . S
C648 C647 1.369 . S
C648 C657 1.429 . S
C649 C647 1.419 . S
C649 C650 1.363 . S
C649 H652 0.929 . S
C650 C649 1.363 . S
C650 C656 1.428 . S
H651 C647 0.930 . S
H652 C649 0.929 . S
S653 N654 1.613 . S
S653 N655 1.610 1_545 S
N654 S653 1.613 . S
N654 C657 1.350 1_545 S
N655 S653 1.610 1_565 S
N655 C656 1.351 . S
C656 C650 1.428 . S
C656 N655 1.351 . S
C656 C657 1.434 . S
C657 C648 1.429 . S
C657 N654 1.350 1_565 S
C657 C656 1.434 . S
C658 C659 1.369 . S
C658 C660 1.419 . S
C658 H662 0.930 . S
C659 C658 1.369 . S
C659 C668 1.429 . S
C660 C658 1.419 . S
C660 C661 1.363 . S
C660 H663 0.929 1_565 S
C661 C660 1.363 . S
C661 C667 1.428 . S
H662 C658 0.930 . S
H663 C660 0.929 1_545 S
S664 N665 1.613 . S
S664 N666 1.610 . S
N665 S664 1.613 . S
N665 C668 1.350 . S
N666 S664 1.610 . S
N666 C667 1.351 . S
C667 C661 1.428 . S
C667 N666 1.351 . S
C667 C668 1.434 . S
C668 C659 1.429 . S
C668 N665 1.350 . S
C668 C667 1.434 . S
C669 C670 1.369 . S
C669 C671 1.419 . S
C669 H673 0.930 . S
C670 C669 1.369 . S
C670 C679 1.429 . S
C671 C669 1.419 . S
C671 C672 1.363 . S
C671 H674 0.929 . S
C672 C671 1.363 . S
C672 C678 1.432 . S
H673 C669 0.930 . S
H674 C671 0.929 . S
S675 N676 1.613 1_565 S
S675 N677 1.610 . S
N676 S675 1.613 1_545 S
N676 C679 1.350 . S
N677 S675 1.610 . S
N677 C678 1.334 1_565 S
C678 C672 1.432 . S
C678 N677 1.334 1_545 S
C678 C679 1.448 . S
C679 C670 1.429 . S
C679 N676 1.350 . S
C679 C678 1.448 . S
C680 C681 1.369 . S
C680 C682 1.419 . S
C680 H684 0.930 . S
C681 C680 1.369 . S
C681 C690 1.429 . S
C682 C680 1.419 . S
C682 C683 1.363 . S
C682 H685 0.929 . S
C683 C682 1.363 . S
C683 C689 1.428 . S
H684 C680 0.930 . S
H685 C682 0.929 . S
S686 N687 1.613 . S
S686 N688 1.610 . S
N687 S686 1.613 . S
N687 C690 1.350 . S
N688 S686 1.610 . S
N688 C689 1.351 . S
C689 C683 1.428 . S
C689 N688 1.351 . S
C689 C690 1.434 . S
C690 C681 1.429 . S
C690 N687 1.350 . S
C690 C689 1.434 . S
C691 C692 1.369 . S
C691 C693 1.419 . S
C691 H695 0.930 . S
C692 C691 1.369 . S
C692 C701 1.429 . S
C693 C691 1.419 . S
C693 C694 1.363 . S
C693 H696 0.929 . S
C694 C693 1.363 . S
C694 C700 1.428 . S
H695 C691 0.930 . S
H696 C693 0.929 . S
S697 N698 1.613 . S
S697 N699 1.610 . S
N698 S697 1.613 . S
N698 C701 1.350 . S
N699 S697 1.610 . S
N699 C700 1.351 . S
C700 C694 1.428 . S
C700 N699 1.351 . S
C700 C701 1.434 . S
C701 C692 1.429 . S
C701 N698 1.350 . S
C701 C700 1.434 . S
C702 C703 1.369 . S
C702 C704 1.419 . S
C702 H706 0.930 . S
C703 C702 1.369 . S
C703 C712 1.429 . S
C704 C702 1.419 . S
C704 C705 1.363 . S
C704 H707 0.929 . S
C705 C704 1.363 . S
C705 C711 1.428 . S
H706 C702 0.930 . S
H707 C704 0.929 . S
S708 N709 1.613 . S
S708 N710 1.610 . S
N709 S708 1.613 . S
N709 C712 1.350 . S
N710 S708 1.610 . S
N710 C711 1.351 . S
C711 C705 1.428 . S
C711 N710 1.351 . S
C711 C712 1.434 . S
C712 C703 1.429 . S
C712 N709 1.350 . S
C712 C711 1.434 . S
C713 C714 1.369 . S
C713 C715 1.419 . S
C713 H717 0.930 . S
C714 C713 1.369 . S
C714 C723 1.429 . S
C715 C713 1.419 . S
C715 C716 1.363 . S
C715 H718 0.929 . S
C716 C715 1.363 . S
C716 C722 1.428 . S
H717 C713 0.930 . S
H718 C715 0.929 . S
S719 N720 1.613 . S
S719 N721 1.610 . S
N720 S719 1.613 . S
N720 C723 1.350 . S
N721 S719 1.610 . S
N721 C722 1.351 . S
C722 C716 1.428 . S
C722 N721 1.351 . S
C722 C723 1.434 . S
C723 C714 1.429 . S
C723 N720 1.350 . S
C723 C722 1.434 . S
C724 C725 1.369 . S
C724 C726 1.419 . S
C724 H728 0.930 . S
C725 C724 1.369 . S
C725 C734 1.429 . S
C726 C724 1.419 . S
C726 C727 1.363 . S
C726 H729 0.929 . S
C727 C726 1.363 . S
C727 C733 1.428 . S
H728 C724 0.930 . S
H729 C726 0.929 . S
S730 N731 1.613 . S
S730 N732 1.610 . S
N731 S730 1.613 . S
N731 C734 1.350 . S
N732 S730 1.610 . S
N732 C733 1.351 . S
C733 C727 1.428 . S
C733 N732 1.351 . S
C733 C734 1.434 . S
C734 C725 1.429 . S
C734 N731 1.350 . S
C734 C733 1.434 . S
C735 C736 1.369 . S
C735 C737 1.419 . S
C735 H739 0.930 . S
C736 C735 1.369 . S
C736 C745 1.429 . S
C737 C735 1.419 . S
C737 C738 1.363 . S
C737 H740 0.929 . S
C738 C737 1.363 . S
C738 C744 1.428 . S
H739 C735 0.930 . S
H740 C737 0.929 . S
S741 N742 1.613 . S
S741 N743 1.610 . S
N742 S741 1.613 . S
N742 C745 1.350 . S
N743 S741 1.610 . S
N743 C744 1.351 . S
C744 C738 1.428 . S
C744 N743 1.351 . S
C744 C745 1.434 . S
C745 C736 1.429 . S
C745 N742 1.350 . S
C745 C744 1.434 . S
C746 C747 1.369 . S
C746 C748 1.419 . S
C746 H750 0.930 . S
C747 C746 1.369 . S
C747 C756 1.429 . S
C748 C746 1.419 . S
C748 C749 1.363 . S
C748 H751 0.929 . S
C749 C748 1.363 . S
C749 C755 1.428 . S
H750 C746 0.930 . S
H751 C748 0.929 . S
S752 N753 1.613 . S
S752 N754 1.610 . S
N753 S752 1.613 . S
N753 C756 1.350 . S
N754 S752 1.610 . S
N754 C755 1.351 . S
C755 C749 1.428 . S
C755 N754 1.351 . S
C755 C756 1.434 . S
C756 C747 1.429 . S
C756 N753 1.350 . S
C756 C755 1.434 . S
C757 C758 1.369 . S
C757 C759 1.419 . S
C757 H761 0.930 . S
C758 C757 1.369 . S
C758 C767 1.429 . S
C759 C757 1.419 . S
C759 C760 1.363 . S
C759 H762 0.929 . S
C760 C759 1.363 . S
C760 C766 1.428 . S
H761 C757 0.930 . S
H762 C759 0.929 . S
S763 N764 1.613 . S
S763 N765 1.610 . S
N764 S763 1.613 . S
N764 C767 1.350 . S
N765 S763 1.610 . S
N765 C766 1.351 . S
C766 C760 1.428 . S
C766 N765 1.351 . S
C766 C767 1.434 . S
C767 C758 1.429 . S
C767 N764 1.350 . S
C767 C766 1.434 . S
C768 C769 1.369 . S
C768 C770 1.419 . S
C768 H772 0.930 . S
C769 C768 1.369 . S
C769 C778 1.429 . S
C770 C768 1.419 . S
C770 C771 1.363 . S
C770 H773 0.929 . S
C771 C770 1.363 . S
C771 C777 1.428 . S
H772 C768 0.930 . S
H773 C770 0.929 . S
S774 N775 1.613 . S
S774 N776 1.610 . S
N775 S774 1.613 . S
N775 C778 1.350 . S
N776 S774 1.610 . S
N776 C777 1.351 . S
C777 C771 1.428 . S
C777 N776 1.351 . S
C777 C778 1.434 . S
C778 C769 1.429 . S
C778 N775 1.350 . S
C778 C777 1.434 . S
C779 C780 1.369 . S
C779 C781 1.419 . S
C779 H783 0.930 . S
C780 C779 1.369 . S
C780 C789 1.429 . S
C781 C779 1.419 . S
C781 C782 1.363 . S
C781 H784 0.929 1_455 S
C782 C781 1.363 . S
C782 C788 1.428 . S
H783 C779 0.930 . S
H784 C781 0.929 1_655 S
S785 N786 1.613 . S
S785 N787 1.610 . S
N786 S785 1.613 . S
N786 C789 1.350 . S
N787 S785 1.610 . S
N787 C788 1.351 . S
C788 C782 1.428 . S
C788 N787 1.351 . S
C788 C789 1.434 . S
C789 C780 1.429 . S
C789 N786 1.350 . S
C789 C788 1.434 . S
C790 C791 1.369 . S
C790 C792 1.419 . S
C790 H794 0.930 . S
C791 C790 1.369 . S
C791 C800 1.429 . S
C792 C790 1.419 . S
C792 C793 1.363 . S
C792 H795 0.929 . S
C793 C792 1.363 . S
C793 C799 1.428 . S
H794 C790 0.930 . S
H795 C792 0.929 . S
S796 N797 1.613 . S
S796 N798 1.610 . S
N797 S796 1.613 . S
N797 C800 1.350 . S
N798 S796 1.610 . S
N798 C799 1.351 . S
C799 C793 1.428 . S
C799 N798 1.351 . S
C799 C800 1.434 . S
C800 C791 1.429 . S
C800 N797 1.350 . S
C800 C799 1.434 . S
C801 C802 1.369 . S
C801 C803 1.419 . S
C801 H805 0.930 . S
C802 C801 1.369 . S
C802 C811 1.429 . S
C803 C801 1.419 . S
C803 C804 1.363 . S
C803 H806 0.929 . S
C804 C803 1.363 . S
C804 C810 1.428 . S
H805 C801 0.930 . S
H806 C803 0.929 . S
S807 N808 1.613 . S
S807 N809 1.610 . S
N808 S807 1.613 . S
N808 C811 1.350 . S
N809 S807 1.610 . S
N809 C810 1.351 . S
C810 C804 1.428 . S
C810 N809 1.351 . S
C810 C811 1.434 . S
C811 C802 1.429 . S
C811 N808 1.350 . S
C811 C810 1.434 . S
C812 C813 1.369 . S
C812 C814 1.419 . S
C812 H816 0.930 . S
C813 C812 1.369 . S
C813 C822 1.429 . S
C814 C812 1.419 . S
C814 C815 1.363 . S
C814 H817 0.929 . S
C815 C814 1.363 . S
C815 C821 1.428 . S
H816 C812 0.930 . S
H817 C814 0.929 . S
S818 N819 1.613 . S
S818 N820 1.610 . S
N819 S818 1.613 . S
N819 C822 1.350 . S
N820 S818 1.610 . S
N820 C821 1.351 . S
C821 C815 1.428 . S
C821 N820 1.351 . S
C821 C822 1.434 . S
C822 C813 1.429 . S
C822 N819 1.350 . S
C822 C821 1.434 . S
C823 C824 1.369 . S
C823 C825 1.419 . S
C823 H827 0.930 . S
C824 C823 1.369 . S
C824 C833 1.429 . S
C825 C823 1.419 . S
C825 C826 1.363 . S
C825 H828 0.929 . S
C826 C825 1.363 . S
C826 C832 1.428 . S
H827 C823 0.930 . S
H828 C825 0.929 . S
S829 N830 1.613 . S
S829 N831 1.610 . S
N830 S829 1.613 . S
N830 C833 1.350 . S
N831 S829 1.610 . S
N831 C832 1.351 . S
C832 C826 1.428 . S
C832 N831 1.351 . S
C832 C833 1.434 . S
C833 C824 1.429 . S
C833 N830 1.350 . S
C833 C832 1.434 . S
C834 C835 1.369 . S
C834 C836 1.419 . S
C834 H838 0.930 . S
C835 C834 1.369 . S
C835 C844 1.429 . S
C836 C834 1.419 . S
C836 C837 1.363 . S
C836 H839 0.929 . S
C837 C836 1.363 . S
C837 C843 1.428 . S
H838 C834 0.930 . S
H839 C836 0.929 . S
S840 N841 1.613 . S
S840 N842 1.610 . S
N841 S840 1.613 . S
N841 C844 1.350 . S
N842 S840 1.610 . S
N842 C843 1.351 . S
C843 C837 1.428 . S
C843 N842 1.351 . S
C843 C844 1.434 . S
C844 C835 1.429 . S
C844 N841 1.350 . S
C844 C843 1.434 . S
C845 C846 1.369 . S
C845 C847 1.419 . S
C845 H849 0.930 . S
C846 C845 1.369 . S
C846 C855 1.429 . S
C847 C845 1.419 . S
C847 C848 1.363 . S
C847 H850 0.929 . S
C848 C847 1.363 . S
C848 C854 1.428 . S
H849 C845 0.930 . S
H850 C847 0.929 . S
S851 N852 1.613 . S
S851 N853 1.610 1_455 S
N852 S851 1.613 . S
N852 C855 1.350 . S
N853 S851 1.610 1_655 S
N853 C854 1.351 1_655 S
C854 C848 1.428 . S
C854 N853 1.351 1_455 S
C854 C855 1.434 . S
C855 C846 1.429 . S
C855 N852 1.350 . S
C855 C854 1.434 . S
C856 C857 1.369 . S
C856 C858 1.419 . S
C856 H860 0.930 . S
C857 C856 1.369 . S
C857 C866 1.429 . S
C858 C856 1.419 . S
C858 C859 1.363 . S
C858 H861 0.929 . S
C859 C858 1.363 . S
C859 C865 1.428 . S
H860 C856 0.930 . S
H861 C858 0.929 . S
S862 N863 1.613 . S
S862 N864 1.610 . S
N863 S862 1.613 . S
N863 C866 1.350 . S
N864 S862 1.610 . S
N864 C865 1.351 . S
C865 C859 1.428 . S
C865 N864 1.351 . S
C865 C866 1.434 . S
C866 C857 1.429 . S
C866 N863 1.350 . S
C866 C865 1.434 . S
C867 C868 1.369 . S
C867 C869 1.419 . S
C867 H871 0.930 . S
C868 C867 1.369 . S
C868 C877 1.429 . S
C869 C867 1.419 . S
C869 C870 1.363 . S
C869 H872 0.929 . S
C870 C869 1.363 . S
C870 C876 1.428 . S
H871 C867 0.930 . S
H872 C869 0.929 . S
S873 N874 1.613 1_655 S
S873 N875 1.610 . S
N874 S873 1.613 1_455 S
N874 C877 1.350 1_455 S
N875 S873 1.610 . S
N875 C876 1.351 . S
C876 C870 1.428 . S
C876 N875 1.351 . S
C876 C877 1.434 . S
C877 C868 1.429 . S
C877 N874 1.350 1_655 S
C877 C876 1.434 . S
C878 C879 1.369 . S
C878 C880 1.419 . S
C878 H882 0.930 . S
C879 C878 1.369 . S
C879 C888 1.429 . S
C880 C878 1.419 . S
C880 C881 1.363 . S
C880 H883 0.929 . S
C881 C880 1.363 . S
C881 C887 1.428 . S
H882 C878 0.930 . S
H883 C880 0.929 . S
S884 N885 1.613 . S
S884 N886 1.610 . S
N885 S884 1.613 . S
N885 C888 1.350 . S
N886 S884 1.610 . S
N886 C887 1.351 . S
C887 C881 1.428 . S
C887 N886 1.351 . S
C887 C888 1.434 . S
C888 C879 1.429 . S
C888 N885 1.350 . S
C888 C887 1.434 . S
C889 C890 1.369 . S
C889 C891 1.419 . S
C889 H893 0.930 . S
C890 C889 1.369 . S
C890 C899 1.429 . S
C891 C889 1.419 . S
C891 C892 1.363 . S
C891 H894 0.929 . S
C892 C891 1.363 . S
C892 C898 1.428 . S
H893 C889 0.930 . S
H894 C891 0.929 . S
S895 N896 1.613 . S
S895 N897 1.610 . S
N896 S895 1.613 . S
N896 C899 1.350 . S
N897 S895 1.610 . S
N897 C898 1.351 . S
C898 C892 1.428 . S
C898 N897 1.351 . S
C898 C899 1.434 . S
C899 C890 1.429 . S
C899 N896 1.350 . S
C899 C898 1.434 . S
C900 C901 1.369 . S
C900 C902 1.419 . S
C900 H904 0.930 . S
C901 C900 1.369 . S
C901 C910 1.429 . S
C902 C900 1.419 . S
C902 C903 1.363 . S
C902 H905 0.929 . S
C903 C902 1.363 . S
C903 C909 1.428 . S
H904 C900 0.930 . S
H905 C902 0.929 . S
S906 N907 1.613 . S
S906 N908 1.610 . S
N907 S906 1.613 . S
N907 C910 1.350 . S
N908 S906 1.610 . S
N908 C909 1.351 . S
C909 C903 1.428 . S
C909 N908 1.351 . S
C909 C910 1.434 . S
C910 C901 1.429 . S
C910 N907 1.350 . S
C910 C909 1.434 . S
C911 C912 1.369 . S
C911 C913 1.419 . S
C911 H915 0.930 . S
C912 C911 1.369 . S
C912 C921 1.429 . S
C913 C911 1.419 . S
C913 C914 1.363 . S
C913 H916 0.929 . S
C914 C913 1.363 . S
C914 C920 1.428 . S
H915 C911 0.930 . S
H916 C913 0.929 . S
S917 N918 1.613 . S
S917 N919 1.610 . S
N918 S917 1.613 . S
N918 C921 1.350 . S
N919 S917 1.610 . S
N919 C920 1.351 . S
C920 C914 1.428 . S
C920 N919 1.351 . S
C920 C921 1.434 . S
C921 C912 1.429 . S
C921 N918 1.350 . S
C921 C920 1.434 . S
C922 C923 1.369 . S
C922 C924 1.419 . S
C922 H926 0.930 . S
C923 C922 1.369 . S
C923 C932 1.429 . S
C924 C922 1.419 . S
C924 C925 1.363 . S
C924 H927 0.929 . S
C925 C924 1.363 . S
C925 C931 1.428 . S
H926 C922 0.930 . S
H927 C924 0.929 . S
S928 N929 1.613 . S
S928 N930 1.610 . S
N929 S928 1.613 . S
N929 C932 1.350 . S
N930 S928 1.610 . S
N930 C931 1.351 . S
C931 C925 1.428 . S
C931 N930 1.351 . S
C931 C932 1.434 . S
C932 C923 1.429 . S
C932 N929 1.350 . S
C932 C931 1.434 . S
C933 C934 1.369 . S
C933 C935 1.419 . S
C933 H937 0.930 1_655 S
C934 C933 1.369 . S
C934 C943 1.429 . S
C935 C933 1.419 . S
C935 C936 1.363 . S
C935 H938 0.929 . S
C936 C935 1.363 . S
C936 C942 1.428 . S
H937 C933 0.930 1_455 S
H938 C935 0.929 . S
S939 N940 1.613 . S
S939 N941 1.610 . S
N940 S939 1.613 . S
N940 C943 1.350 . S
N941 S939 1.610 . S
N941 C942 1.351 . S
C942 C936 1.428 . S
C942 N941 1.351 . S
C942 C943 1.434 . S
C943 C934 1.429 . S
C943 N940 1.350 . S
C943 C942 1.434 . S
C944 C945 1.369 . S
C944 C946 1.419 . S
C944 H948 0.930 . S
C945 C944 1.369 . S
C945 C954 1.429 . S
C946 C944 1.419 . S
C946 C947 1.363 . S
C946 H949 0.929 . S
C947 C946 1.363 . S
C947 C953 1.428 . S
H948 C944 0.930 . S
H949 C946 0.929 . S
S950 N951 1.613 . S
S950 N952 1.610 . S
N951 S950 1.613 . S
N951 C954 1.350 . S
N952 S950 1.610 . S
N952 C953 1.351 . S
C953 C947 1.428 . S
C953 N952 1.351 . S
C953 C954 1.434 . S
C954 C945 1.429 . S
C954 N951 1.350 . S
C954 C953 1.434 . S
C955 C956 1.369 . S
C955 C957 1.419 . S
C955 H959 0.930 . S
C956 C955 1.369 . S
C956 C965 1.429 . S
C957 C955 1.419 . S
C957 C958 1.363 . S
C957 H960 0.929 . S
C958 C957 1.363 . S
C958 C964 1.428 . S
H959 C955 0.930 . S
H960 C957 0.929 . S
S961 N962 1.613 . S
S961 N963 1.610 . S
N962 S961 1.613 . S
N962 C965 1.350 . S
N963 S961 1.610 . S
N963 C964 1.351 . S
C964 C958 1.428 . S
C964 N963 1.351 . S
C964 C965 1.434 . S
C965 C956 1.429 . S
C965 N962 1.350 . S
C965 C964 1.434 . S
C966 C967 1.369 . S
C966 C968 1.419 . S
C966 H970 0.930 . S
C967 C966 1.369 . S
C967 C976 1.429 . S
C968 C966 1.419 . S
C968 C969 1.363 . S
C968 H971 0.929 . S
C969 C968 1.363 . S
C969 C975 1.428 . S
H970 C966 0.930 . S
H971 C968 0.929 . S
S972 N973 1.613 . S
S972 N974 1.610 . S
N973 S972 1.613 . S
N973 C976 1.350 . S
N974 S972 1.610 . S
N974 C975 1.351 . S
C975 C969 1.428 . S
C975 N974 1.351 . S
C975 C976 1.434 . S
C976 C967 1.429 . S
C976 N973 1.350 . S
C976 C975 1.434 . S
C977 C978 1.369 . S
C977 C979 1.419 . S
C977 H981 0.930 . S
C978 C977 1.369 . S
C978 C987 1.429 . S
C979 C977 1.419 . S
C979 C980 1.363 . S
C979 H982 0.929 1_655 S
C980 C979 1.363 . S
C980 C986 1.428 . S
H981 C977 0.930 . S
H982 C979 0.929 1_455 S
S983 N984 1.613 . S
S983 N985 1.610 . S
N984 S983 1.613 . S
N984 C987 1.350 . S
N985 S983 1.610 . S
N985 C986 1.351 . S
C986 C980 1.428 . S
C986 N985 1.351 . S
C986 C987 1.434 . S
C987 C978 1.429 . S
C987 N984 1.350 . S
C987 C986 1.434 . S
C988 C989 1.369 . S
C988 C990 1.419 . S
C988 H992 0.930 . S
C989 C988 1.369 . S
C989 C998 1.429 . S
C990 C988 1.419 . S
C990 C991 1.363 . S
C990 H993 0.929 . S
C991 C990 1.363 . S
C991 C997 1.428 . S
H992 C988 0.930 . S
H993 C990 0.929 . S
S994 N995 1.613 . S
S994 N996 1.610 . S
N995 S994 1.613 . S
N995 C998 1.350 . S
N996 S994 1.610 . S
N996 C997 1.351 . S
C997 C991 1.428 . S
C997 N996 1.351 . S
C997 C998 1.434 . S
C998 C989 1.429 . S
C998 N995 1.350 . S
C998 C997 1.434 . S
C999 C1000 1.369 . S
C999 C1001 1.419 . S
C999 H1003 0.937 . S
C1000 C999 1.369 . S
C1000 C1009 1.429 . S
C1001 C999 1.419 . S
C1001 C1002 1.363 . S
C1001 H1004 0.929 . S
C1002 C1001 1.363 . S
C1002 C1008 1.428 . S
H1003 C999 0.937 . S
H1004 C1001 0.929 . S
S1005 N1006 1.613 . S
S1005 N1007 1.610 . S
N1006 S1005 1.613 . S
N1006 C1009 1.350 . S
N1007 S1005 1.610 . S
N1007 C1008 1.351 . S
C1008 C1002 1.428 . S
C1008 N1007 1.351 . S
C1008 C1009 1.434 . S
C1009 C1000 1.429 . S
C1009 N1006 1.350 . S
C1009 C1008 1.434 . S
C1010 C1011 1.369 . S
C1010 C1012 1.419 . S
C1010 H1014 0.930 . S
C1011 C1010 1.369 . S
C1011 C1020 1.429 . S
C1012 C1010 1.419 . S
C1012 C1013 1.363 . S
C1012 H1015 0.929 . S
C1013 C1012 1.363 . S
C1013 C1019 1.428 . S
H1014 C1010 0.930 . S
H1015 C1012 0.929 . S
S1016 N1017 1.613 . S
S1016 N1018 1.610 . S
N1017 S1016 1.613 . S
N1017 C1020 1.350 . S
N1018 S1016 1.610 . S
N1018 C1019 1.351 . S
C1019 C1013 1.428 . S
C1019 N1018 1.351 . S
C1019 C1020 1.434 . S
C1020 C1011 1.429 . S
C1020 N1017 1.350 . S
C1020 C1019 1.434 . S
C1021 C1022 1.369 . S
C1021 C1023 1.419 . S
C1021 H1025 0.930 . S
C1022 C1021 1.369 . S
C1022 C1031 1.429 . S
C1023 C1021 1.419 . S
C1023 C1024 1.363 . S
C1023 H1026 0.929 . S
C1024 C1023 1.363 . S
C1024 C1030 1.428 . S
H1025 C1021 0.930 . S
H1026 C1023 0.929 . S
S1027 N1028 1.613 . S
S1027 N1029 1.610 . S
N1028 S1027 1.613 . S
N1028 C1031 1.350 . S
N1029 S1027 1.610 . S
N1029 C1030 1.351 . S
C1030 C1024 1.428 . S
C1030 N1029 1.351 . S
C1030 C1031 1.434 . S
C1031 C1022 1.429 . S
C1031 N1028 1.350 . S
C1031 C1030 1.434 . S
C1032 C1033 1.369 . S
C1032 C1034 1.419 . S
C1032 H1036 0.930 . S
C1033 C1032 1.369 . S
C1033 C1042 1.429 . S
C1034 C1032 1.419 . S
C1034 C1035 1.363 . S
C1034 H1037 0.929 . S
C1035 C1034 1.363 . S
C1035 C1041 1.428 . S
H1036 C1032 0.930 . S
H1037 C1034 0.929 . S
S1038 N1039 1.613 . S
S1038 N1040 1.610 . S
N1039 S1038 1.613 . S
N1039 C1042 1.350 . S
N1040 S1038 1.610 . S
N1040 C1041 1.351 . S
C1041 C1035 1.428 . S
C1041 N1040 1.351 . S
C1041 C1042 1.434 . S
C1042 C1033 1.429 . S
C1042 N1039 1.350 . S
C1042 C1041 1.434 . S
C1043 C1044 1.369 . S
C1043 C1045 1.419 . S
C1043 H1047 0.930 . S
C1044 C1043 1.369 . S
C1044 C1053 1.429 . S
C1045 C1043 1.419 . S
C1045 C1046 1.363 . S
C1045 H1048 0.929 . S
C1046 C1045 1.363 . S
C1046 C1052 1.428 . S
H1047 C1043 0.930 . S
H1048 C1045 0.929 . S
S1049 N1050 1.613 . S
S1049 N1051 1.610 . S
N1050 S1049 1.613 . S
N1050 C1053 1.350 . S
N1051 S1049 1.610 . S
N1051 C1052 1.351 . S
C1052 C1046 1.428 . S
C1052 N1051 1.351 . S
C1052 C1053 1.434 . S
C1053 C1044 1.429 . S
C1053 N1050 1.350 . S
C1053 C1052 1.434 . S
C1054 C1055 1.369 . S
C1054 C1056 1.419 . S
C1054 H1058 0.930 . S
C1055 C1054 1.369 . S
C1055 C1064 1.429 . S
C1056 C1054 1.419 . S
C1056 C1057 1.363 . S
C1056 H1059 0.929 . S
C1057 C1056 1.363 . S
C1057 C1063 1.428 . S
H1058 C1054 0.930 . S
H1059 C1056 0.929 . S
S1060 N1061 1.613 . S
S1060 N1062 1.610 . S
N1061 S1060 1.613 . S
N1061 C1064 1.350 . S
N1062 S1060 1.610 . S
N1062 C1063 1.351 . S
C1063 C1057 1.428 . S
C1063 N1062 1.351 . S
C1063 C1064 1.434 . S
C1064 C1055 1.429 . S
C1064 N1061 1.350 . S
C1064 C1063 1.434 . S
C1065 C1066 1.369 . S
C1065 C1067 1.419 . S
C1065 H1069 0.930 1_455 S
C1066 C1065 1.369 . S
C1066 C1075 1.429 . S
C1067 C1065 1.419 . S
C1067 C1068 1.363 . S
C1067 H1070 0.929 . S
C1068 C1067 1.363 . S
C1068 C1074 1.428 . S
H1069 C1065 0.930 1_655 S
H1070 C1067 0.929 . S
S1071 N1072 1.613 . S
S1071 N1073 1.610 . S
N1072 S1071 1.613 . S
N1072 C1075 1.350 . S
N1073 S1071 1.610 . S
N1073 C1074 1.351 . S
C1074 C1068 1.428 . S
C1074 N1073 1.351 . S
C1074 C1075 1.434 . S
C1075 C1066 1.429 . S
C1075 N1072 1.350 . S
C1075 C1074 1.434 . S
C1076 C1077 1.369 . S
C1076 C1078 1.419 . S
C1076 H1080 0.930 . S
C1077 C1076 1.369 . S
C1077 C1086 1.429 . S
C1078 C1076 1.419 . S
C1078 C1079 1.363 . S
C1078 H1081 0.929 . S
C1079 C1078 1.363 . S
C1079 C1085 1.428 . S
H1080 C1076 0.930 . S
H1081 C1078 0.929 . S
S1082 N1083 1.613 . S
S1082 N1084 1.610 . S
N1083 S1082 1.613 . S
N1083 C1086 1.350 . S
N1084 S1082 1.610 . S
N1084 C1085 1.351 . S
C1085 C1079 1.428 . S
C1085 N1084 1.351 . S
C1085 C1086 1.434 . S
C1086 C1077 1.429 . S
C1086 N1083 1.350 . S
C1086 C1085 1.434 . S
C1087 C1088 1.369 . S
C1087 C1089 1.419 . S
C1087 H1091 0.930 . S
C1088 C1087 1.369 . S
C1088 C1097 1.429 . S
C1089 C1087 1.419 . S
C1089 C1090 1.363 . S
C1089 H1092 0.929 1_455 S
C1090 C1089 1.363 . S
C1090 C1096 1.428 . S
H1091 C1087 0.930 . S
H1092 C1089 0.929 1_655 S
S1093 N1094 1.613 . S
S1093 N1095 1.610 . S
N1094 S1093 1.613 . S
N1094 C1097 1.350 . S
N1095 S1093 1.610 . S
N1095 C1096 1.351 . S
C1096 C1090 1.428 . S
C1096 N1095 1.351 . S
C1096 C1097 1.434 . S
C1097 C1088 1.429 . S
C1097 N1094 1.350 . S
C1097 C1096 1.434 . S
C1098 C1099 1.369 . S
C1098 C1100 1.419 . S
C1098 H1102 0.930 . S
C1099 C1098 1.369 . S
C1099 C1108 1.429 . S
C1100 C1098 1.419 . S
C1100 C1101 1.363 . S
C1100 H1103 0.929 . S
C1101 C1100 1.363 . S
C1101 C1107 1.428 . S
H1102 C1098 0.930 . S
H1103 C1100 0.929 . S
S1104 N1105 1.613 . S
S1104 N1106 1.610 . S
N1105 S1104 1.613 . S
N1105 C1108 1.350 . S
N1106 S1104 1.610 . S
N1106 C1107 1.351 . S
C1107 C1101 1.428 . S
C1107 N1106 1.351 . S
C1107 C1108 1.434 . S
C1108 C1099 1.429 . S
C1108 N1105 1.350 . S
C1108 C1107 1.434 . S
C1109 C1110 1.369 . S
C1109 C1111 1.419 . S
C1109 H1113 0.930 . S
C1110 C1109 1.369 . S
C1110 C1119 1.429 . S
C1111 C1109 1.419 . S
C1111 C1112 1.363 . S
C1111 H1114 0.929 . S
C1112 C1111 1.363 . S
C1112 C1118 1.428 . S
H1113 C1109 0.930 . S
H1114 C1111 0.929 . S
S1115 N1116 1.613 . S
S1115 N1117 1.610 . S
N1116 S1115 1.613 . S
N1116 C1119 1.350 . S
N1117 S1115 1.610 . S
N1117 C1118 1.351 . S
C1118 C1112 1.428 . S
C1118 N1117 1.351 . S
C1118 C1119 1.434 . S
C1119 C1110 1.429 . S
C1119 N1116 1.350 . S
C1119 C1118 1.434 . S
C417 C62 1.505 . S
C419 C4 1.504 . S
C428 C69 1.505 . S
C430 C23 1.505 . S
C439 C82 1.504 . S
C441 C30 1.504 . S
C450 C49 1.504 . S
C452 C101 1.504 . S
C461 C108 1.504 . S
C463 C166 1.504 . S
C472 C179 1.505 . S
C474 C121 1.505 . S
C483 C140 1.504 . S
C485 C192 1.505 . S
C494 C199 1.504 . S
C496 C147 1.504 . S
C505 C218 1.504 . S
C507 C264 1.505 . S
C516 C283 1.505 . S
C518 C231 1.504 . S
C527 C296 1.504 . S
C529 C244 1.505 . S
C538 C309 1.504 . S
C540 C257 1.504 . S
C549 C322 1.505 . S
C551 C374 1.504 . S
C560 C335 1.504 . S
C562 C381 1.504 . S
C571 C342 1.505 . S
C573 C400 1.505 . S
C582 C355 1.504 . S
C584 C407 1.505 . S
C593 C10 1.510 1_565 S
C595 C95 1.511 . S
C604 C17 1.511 . S
C606 C56 1.511 1_545 S
C615 C36 1.511 1_545 S
C617 C75 1.511 . S
C626 C88 1.511 1_565 S
C628 C43 1.510 . S
C637 C205 1.511 . S
C639 C114 1.510 1_545 S
C648 C160 1.511 1_565 S
C650 C127 1.511 . S
C659 C173 1.510 . S
C661 C134 1.510 1_565 S
C670 C153 1.511 . S
C672 C186 1.511 1_545 S
C681 C303 1.510 . S
C683 C212 1.510 . S
C692 C270 1.511 . S
C694 C225 1.510 . S
C703 C277 1.511 . S
C705 C238 1.511 . S
C714 C251 1.511 . S
C716 C290 1.511 . S
C725 C316 1.511 . S
C727 C413 1.511 . S
C736 C329 1.511 . S
C738 C368 1.511 . S
C747 C348 1.510 . S
C749 C387 1.510 . S
C758 C394 1.510 . S
C760 C361 1.511 . S
C769 C5 1.497 . S
C771 C330 1.497 . S
C780 C16 1.498 . S
C782 C135 1.498 1_455 S
C791 C31 1.497 . S
C793 C354 1.497 . S
C802 C107 1.498 . S
C804 C42 1.497 . S
C813 C406 1.498 . S
C815 C55 1.497 . S
C824 C70 1.497 . S
C826 C161 1.497 . S
C835 C83 1.497 . S
C837 C380 1.498 . S
C846 C94 1.497 . S
C848 C187 1.497 1_455 S
C857 C226 1.497 . S
C859 C109 1.497 . S
C868 C29 1.497 1_655 S
C870 C122 1.497 . S
C879 C252 1.497 . S
C881 C133 1.497 . S
C890 C148 1.497 . S
C892 C3 1.497 . S
C901 C304 1.497 . S
C903 C159 1.497 . S
C912 C57 1.498 . S
C914 C172 1.497 . S
C923 C278 1.498 . S
C925 C185 1.497 . S
C934 C81 1.497 1_655 S
C936 C200 1.497 . S
C945 C120 1.497 . S
C947 C211 1.497 . S
C956 C224 1.497 . S
C958 C341 1.498 . S
C967 C237 1.496 . S
C969 C146 1.497 . S
C978 C250 1.497 . S
C980 C317 1.497 1_655 S
C989 C265 1.498 . S
C991 C198 1.498 . S
C1000 C369 1.498 1_655 S
C1002 C276 1.497 . S
C1011 C289 1.497 . S
C1013 C174 1.497 . S
C1022 C302 1.497 . S
C1024 C395 1.497 . S
C1033 C315 1.496 . S
C1035 C18 1.497 . S
C1044 C328 1.497 . S
C1046 C239 1.497 . S
C1055 C44 1.497 . S
C1057 C343 1.497 . S
C1066 C213 1.498 1_455 S
C1068 C356 1.497 . S
C1077 C367 1.497 . S
C1079 C96 1.497 . S
C1088 C382 1.497 . S
C1090 C263 1.497 1_455 S
C1099 C68 1.497 . S
C1101 C393 1.497 . S
C1110 C291 1.497 . S
C1112 C408 1.497 . S
