# Generated by pormake.
# Topology rob, (6)-cn, num edge types: 1
# Building blocks:
#     Node 0, Type 0, BuildingBlock: JUFBIX_clean_sbu_0, # of connection points: 6
#     Node 1, Type 0, BuildingBlock: JUFBIX_clean_sbu_0, # of connection points: 6
#     Node 2, Type 0, BuildingBlock: JUFBIX_clean_sbu_0, # of connection points: 6
#     Node 3, Type 0, BuildingBlock: JUFBIX_clean_sbu_0, # of connection points: 6
#     Edge 4, Type (0, 0), BuildingBlock: ZUJKAS_clean_linker_0, # of connection points: 2
#     Edge 5, Type (0, 0), BuildingBlock: ZUJKAS_clean_linker_0, # of connection points: 2
#     Edge 6, Type (0, 0), BuildingBlock: ZUJKAS_clean_linker_0, # of connection points: 2
#     Edge 7, Type (0, 0), BuildingBlock: ZUJKAS_clean_linker_0, # of connection points: 2
#     Edge 8, Type (0, 0), BuildingBlock: ZUJKAS_clean_linker_0, # of connection points: 2
#     Edge 9, Type (0, 0), BuildingBlock: ZUJKAS_clean_linker_0, # of connection points: 2
#     Edge 10, Type (0, 0), BuildingBlock: ZUJKAS_clean_linker_0, # of connection points: 2
#     Edge 11, Type (0, 0), BuildingBlock: ZUJKAS_clean_linker_0, # of connection points: 2
#     Edge 12, Type (0, 0), BuildingBlock: ZUJKAS_clean_linker_0, # of connection points: 2
#     Edge 13, Type (0, 0), BuildingBlock: ZUJKAS_clean_linker_0, # of connection points: 2
#     Edge 14, Type (0, 0), BuildingBlock: ZUJKAS_clean_linker_0, # of connection points: 2
#     Edge 15, Type (0, 0), BuildingBlock: ZUJKAS_clean_linker_0, # of connection points: 2
# Relax obj value: 0.336
# Max RMSD: 0.250
# Mean RMSD: 0.250
data_MOF--net-rob--node1-JUFBIX_clean_sbu_0--edge1-ZUJKAS_clean_linker_0
_symmetry_space_group_name_H-M    P1
_symmetry_Int_Tables_number       1
_symmetry_cell_setting            triclinic
loop_
_symmetry_equiv_pos_as_xyz
'x, y, z'
_cell_length_a     21.598429
_cell_length_b     32.346665
_cell_length_c     35.567614
_cell_angle_alpha  94.72303
_cell_angle_beta   89.952975
_cell_angle_gamma 89.970227
loop_
_atom_site_label
_atom_site_type_symbol
_atom_site_fract_x
_atom_site_fract_y
_atom_site_fract_z
_atom_type_partial_charge
Co0 Co 0.21229 0.27465 0.98295 0.0
C1 C 0.18497 0.19341 -0.00077 0.0
Co2 Co 0.28874 0.24183 0.00919 0.0
C3 C 0.13964 0.31156 0.9261 0.0
C4 C 0.08871 0.30621 0.97704 0.0
N5 N 0.14539 0.30014 0.96159 0.0
N6 N 0.08143 0.32378 0.91855 0.0
C7 C 0.04948 0.32078 0.95077 0.0
H8 H 0.17684 0.30929 0.90567 0.0
H9 H 0.07557 0.29821 0.00488 0.0
C10 C 0.31617 0.32301 0.99282 0.0
N11 N 0.35548 0.21632 0.03055 0.0
C12 C 0.36064 0.20409 0.06579 0.0
C13 C 0.41237 0.21061 0.01534 0.0
N14 N 0.4187 0.19166 0.07343 0.0
C15 C 0.45118 0.19543 0.04152 0.0
C16 C 0.28824 0.23104 0.93102 0.0
O17 O 0.26074 0.32323 0.98076 0.0
O18 O 0.33725 0.29046 0.00602 0.0
O19 O 0.31575 0.22118 0.96048 0.0
O20 O 0.24137 0.25475 0.93431 0.0
O21 O 0.23986 0.19361 0.01216 0.0
H22 H 0.42579 0.2191 0.9877 0.0
H23 H 0.32301 0.2058 0.08594 0.0
O24 O 0.16426 0.22564 0.98529 0.0
O25 O 0.18431 0.29424 0.03171 0.0
O26 O 0.26062 0.26258 0.05782 0.0
C27 C 0.21251 0.28514 0.06119 0.0
H28 H 1.0002 0.32579 0.95434 0.0
H29 H 0.50047 0.19038 0.0381 0.0
Co30 Co 0.71353 0.77247 0.9816 0.0
C31 C 0.69088 0.69068 -0.00224 0.0
Co32 Co 0.79243 0.74147 0.00716 0.0
C33 C 0.63699 0.80707 0.9252 0.0
C34 C 0.58847 0.80198 0.97703 0.0
N35 N 0.64471 0.79648 0.96083 0.0
N36 N 0.57804 0.81824 0.91832 0.0
C37 C 0.54758 0.81542 0.95108 0.0
H38 H 0.67337 0.80502 0.90422 0.0
H39 H 0.57681 0.79438 0.00522 0.0
C40 C 0.81492 0.82334 0.99106 0.0
N41 N 0.86098 0.71738 0.02779 0.0
C42 C 0.867 0.70387 0.06248 0.0
C43 C 0.91816 0.714 0.01257 0.0
N44 N 0.92585 0.69286 0.06981 0.0
C45 C 0.95801 0.6989 0.03824 0.0
C46 C 0.79096 0.73109 0.929 0.0
O47 O 0.75954 0.82207 0.97887 0.0
O48 O 0.83786 0.7914 0.00438 0.0
O49 O 0.81994 0.72243 0.95833 0.0
O50 O 0.74208 0.75288 0.9326 0.0
O51 O 0.74636 0.69181 0.00978 0.0
H52 H 0.93089 0.72398 0.98533 0.0
H53 H 0.82931 0.70362 0.08251 0.0
O54 O 0.66802 0.72267 0.9845 0.0
O55 O 0.68618 0.79161 0.03079 0.0
O56 O 0.76416 0.76074 0.05602 0.0
C57 C 0.71541 0.78259 0.05996 0.0
H58 H 0.49831 0.81983 0.95531 0.0
H59 H 0.00758 0.69542 0.0348 0.0
Co60 Co 0.21037 0.73483 0.50629 0.0
C61 C 0.18827 0.81657 0.48969 0.0
Co62 Co 0.29025 0.76598 0.48184 0.0
C63 C 0.13013 0.70064 0.5615 0.0
C64 C 0.08552 0.70468 0.50828 0.0
N65 N 0.14046 0.7108 0.52594 0.0
N66 N 0.07086 0.6891 0.56678 0.0
C67 C 0.04285 0.69132 0.5332 0.0
H68 H 0.16429 0.70415 0.58376 0.0
H69 H 0.07592 0.71151 0.47961 0.0
C70 C 0.3123 0.68424 0.49854 0.0
N71 N 0.35942 0.79002 0.46179 0.0
C72 C 0.36581 0.80335 0.42704 0.0
C73 C 0.41661 0.79282 0.47693 0.0
N74 N 0.42494 0.8135 0.41948 0.0
C75 C 0.4569 0.80725 0.45107 0.0
C76 C 0.28539 0.77647 0.55996 0.0
O77 O 0.25641 0.68535 0.50994 0.0
O78 O 0.33557 0.71617 0.4854 0.0
O79 O 0.3159 0.78519 0.53114 0.0
O80 O 0.23667 0.75465 0.55551 0.0
O81 O 0.24424 0.81556 0.4785 0.0
H82 H 0.42901 0.78272 0.50418 0.0
H83 H 0.32812 0.80395 0.40709 0.0
O84 O 0.16491 0.7845 0.50252 0.0
O85 O 0.18537 0.71538 0.45692 0.0
O86 O 0.2639 0.74644 0.4326 0.0
C87 C 0.2156 0.72431 0.42812 0.0
H88 H 0.99437 0.68528 0.52739 0.0
H89 H 0.50656 0.81006 0.4544 0.0
Co90 Co 0.7111 0.23394 0.50936 0.0
C91 C 0.68313 0.31479 0.49338 0.0
Co92 Co 0.78799 0.26672 0.48331 0.0
C93 C 0.63801 0.20027 0.56792 0.0
C94 C 0.59078 0.19542 0.51498 0.0
N95 N 0.64487 0.20778 0.53134 0.0
N96 N 0.58197 0.18428 0.57501 0.0
C97 C 0.55222 0.18081 0.5417 0.0
H98 H 0.67275 0.20732 0.58937 0.0
H99 H 0.57872 0.19845 0.48585 0.0
C100 C 0.81583 0.18578 0.4992 0.0
N101 N 0.85414 0.29253 0.46161 0.0
C102 C 0.85828 0.30549 0.42658 0.0
C103 C 0.91157 0.2975 0.47611 0.0
N104 N 0.91625 0.31765 0.41835 0.0
C105 C 0.94971 0.31296 0.4497 0.0
C106 C 0.78775 0.27765 0.56122 0.0
O107 O 0.76063 0.18573 0.5117 0.0
O108 O 0.83675 0.21821 0.48575 0.0
O109 O 0.816 0.28688 0.5318 0.0
O110 O 0.74011 0.25471 0.55778 0.0
O111 O 0.73846 0.31494 0.48105 0.0
H112 H 0.9258 0.28826 0.50334 0.0
H113 H 0.81995 0.30443 0.40698 0.0
O114 O 0.66216 0.28232 0.50679 0.0
O115 O 0.68343 0.21384 0.46062 0.0
O116 O 0.75929 0.24631 0.43484 0.0
C117 C 0.71168 0.22335 0.43126 0.0
H118 H 0.50475 0.17077 0.53743 0.0
H119 H 0.99916 0.31754 0.45254 0.0
H120 H 0.57172 0.67886 0.97378 0.0
H121 H 0.50977 0.61574 0.97383 0.0
H122 H 0.66243 0.55286 0.02255 0.0
H123 H 0.7248 0.61612 0.02303 0.0
H124 H 0.53652 0.5376 0.93707 0.0
H125 H 0.51628 0.53037 0.09216 0.0
H126 H 0.54078 0.57661 0.07114 0.0
H127 H 0.59405 0.53448 0.07491 0.0
C128 C 0.59214 0.65171 0.98473 0.0
C129 C 0.65321 0.65256 -0.00148 0.0
C130 C 0.55663 0.61566 0.98467 0.0
C131 C 0.58127 0.57983 -0.00142 0.0
C132 C 0.6422 0.58045 0.01231 0.0
H133 H 0.43566 0.33243 0.01714 0.0
H134 H 0.50045 0.39435 0.01719 0.0
C135 C 0.67786 0.61655 0.01239 0.0
C136 C 0.54351 0.54156 -0.00235 0.0
H137 H 0.47718 0.47308 0.05366 0.0
C138 C 0.52337 0.52351 0.96254 0.0
C139 C 0.52659 0.5233 0.03095 0.0
C140 C 0.54501 0.54229 0.06949 0.0
C141 C 0.48729 0.48732 0.95979 0.0
C142 C 0.47009 0.46918 0.99309 0.0
C143 C 0.49049 0.48711 0.02819 0.0
C144 C 0.43085 0.43158 0.99218 0.0
C145 C 0.46886 0.46838 0.92123 0.0
C146 C 0.37005 0.43213 0.97832 0.0
C147 C 0.33283 0.39677 0.97819 0.0
C148 C 0.35569 0.3603 0.99215 0.0
C149 C 0.41662 0.35996 0.00611 0.0
C150 C 0.45373 0.39532 0.00622 0.0
H151 H 0.49848 0.47968 0.89867 0.0
H152 H 0.47178 0.43401 0.91975 0.0
H153 H 0.42025 0.47701 0.91548 0.0
H154 H 0.35114 0.46008 0.96801 0.0
H155 H 0.28603 0.39813 0.96743 0.0
H156 H 0.27768 0.60981 0.52378 0.0
H157 H 0.34035 0.54669 0.52445 0.0
H158 H 0.49376 0.6092 0.4761 0.0
H159 H 0.43209 0.67238 0.47572 0.0
H160 H 0.39597 0.50124 0.46261 0.0
H161 H 0.57188 0.56011 0.56731 0.0
H162 H 0.49914 0.58627 0.56124 0.0
H163 H 0.56191 0.59216 0.52888 0.0
C164 C 0.3249 0.6102 0.51353 0.0
C165 C 0.34997 0.64617 0.49984 0.0
C166 C 0.36056 0.57412 0.5139 0.0
C167 C 0.42192 0.57351 0.50084 0.0
C168 C 0.44693 0.60929 0.48704 0.0
H169 H 0.71338 0.39001 0.46829 0.0
H170 H 0.64831 0.45209 0.46921 0.0
C171 C 0.41143 0.64531 0.48666 0.0
C172 C 0.4593 0.53509 0.50036 0.0
H173 H 0.59359 0.49545 0.53304 0.0
C174 C 0.43895 0.49981 0.47821 0.0
C175 C 0.51542 0.53347 0.52066 0.0
C176 C 0.53822 0.56988 0.54616 0.0
C177 C 0.474 0.46314 0.47513 0.0
C178 C 0.53034 0.46163 0.49521 0.0
C179 C 0.5505 0.49683 0.51754 0.0
C180 C 0.56888 0.42368 0.49375 0.0
C181 C 0.45123 0.42666 0.44971 0.0
C182 C 0.54582 0.3873 0.50748 0.0
C183 C 0.58276 0.35182 0.50698 0.0
C184 C 0.64366 0.35214 0.49293 0.0
C185 C 0.66666 0.38869 0.47921 0.0
C186 C 0.62961 0.4242 0.47975 0.0
H187 H 0.41617 0.43613 0.42924 0.0
H188 H 0.49018 0.41105 0.43383 0.0
H189 H 0.42935 0.40379 0.46715 0.0
H190 H 0.49948 0.38652 0.51907 0.0
H191 H 0.5637 0.32426 0.51794 0.0
H192 H 0.21501 0.1188 0.02562 0.0
H193 H 0.15119 0.05619 0.02387 0.0
H194 H 0.0035 0.12008 0.97122 0.0
H195 H 0.06653 0.18297 0.97321 0.0
H196 H 0.96448 0.07427 0.0309 0.0
H197 H 0.11207 0.97978 0.92874 0.0
H198 H 0.1524 1.00257 0.96945 0.0
H199 H 0.11919 0.03544 0.93644 0.0
C200 C 0.16893 0.11957 0.01369 0.0
C201 C 0.14599 0.15581 -0.00064 0.0
C202 C 0.13269 0.08369 0.01252 0.0
C203 C 0.07308 0.08335 -0.00317 0.0
C204 C 0.04956 0.11967 0.98322 0.0
H205 H 0.78108 0.89745 0.9649 0.0
H206 H 0.84274 0.96103 0.96571 0.0
C207 C 0.08571 0.15556 0.98437 0.0
C208 C 0.0349 0.04523 0.99489 0.0
H209 H 0.03023 0.94474 0.95723 0.0
C210 C 0.97861 0.04597 0.01467 0.0
C211 C 0.05356 0.00845 0.97363 0.0
C212 C 0.11232 0.00642 0.95056 0.0
C213 C 0.94103 0.01056 0.01445 0.0
C214 C 0.95984 0.97372 0.99332 0.0
C215 C 0.01599 0.97305 0.9734 0.0
C216 C 0.92257 0.93521 0.99214 0.0
C217 C 0.88236 0.01256 0.0376 0.0
C218 C 0.94768 0.89935 0.00575 0.0
C219 C 0.91283 0.86296 0.0051 0.0
C220 C 0.85218 0.86168 0.99064 0.0
C221 C 0.82748 0.89749 0.97642 0.0
C222 C 0.86249 0.93391 0.97707 0.0
H223 H 0.88231 0.03947 0.05913 0.0
H224 H 0.84213 0.01587 0.01869 0.0
H225 H 0.87598 0.98372 0.05207 0.0
H226 H 0.9941 0.89968 0.0173 0.0
H227 H 0.93336 0.83593 0.01618 0.0
H228 H 0.93513 0.17622 0.47445 0.0
H229 H 0.99859 0.11349 0.47202 0.0
H230 H 0.84962 0.04789 0.52171 0.0
H231 H 0.78536 0.1104 0.52391 0.0
H232 H 0.03591 0.06639 0.53119 0.0
H233 H 0.89242 0.97373 0.42566 0.0
H234 H 0.88471 0.02928 0.43432 0.0
H235 H 0.85063 0.99551 0.46627 0.0
C236 C 0.91576 0.14847 0.48488 0.0
C237 C 0.855 0.14823 0.49917 0.0
C238 C 0.95215 0.11268 0.48348 0.0
C239 C 0.92842 0.07594 0.49612 0.0
C240 C 0.86831 0.07575 0.51112 0.0
H241 H 0.06867 0.82843 0.5129 0.0
H242 H 0.00764 0.89206 0.51394 0.0
C243 C 0.83181 0.11156 0.51256 0.0
C244 C 0.96692 0.03793 0.49387 0.0
H245 H 0.97368 0.93826 0.45425 0.0
C246 C 0.02255 0.03841 0.51425 0.0
C247 C 0.94928 1.00158 0.47166 0.0
C248 C 0.8913 0.9999 0.44794 0.0
C249 C 0.06043 0.00308 0.51372 0.0
C250 C 0.04262 0.96665 0.49167 0.0
C251 C 0.98716 0.96628 0.47111 0.0
C252 C 0.08004 0.92818 0.49031 0.0
C253 C 0.1183 0.00472 0.53755 0.0
C254 C 0.14072 0.92726 0.47609 0.0
C255 C 0.17592 0.89089 0.4755 0.0
C256 C 0.1508 0.85479 0.48893 0.0
C257 C 0.08954 0.8557 0.50244 0.0
C258 C 0.05451 0.89202 0.50305 0.0
H259 H 0.11752 0.03122 0.55951 0.0
H260 H 0.12427 0.97556 0.55159 0.0
H261 H 0.15915 0.00848 0.51921 0.0
H262 H 0.16082 0.95464 0.46541 0.0
H263 H 0.22282 0.89115 0.46471 0.0
H264 H 0.60589 0.17952 0.41393 0.0
H265 H 0.55992 0.16435 0.35163 0.0
H266 H 0.71589 0.22152 0.30065 0.0
H267 H 0.76176 0.23756 0.36293 0.0
H268 H 0.60556 0.25272 0.2797 0.0
H269 H 0.59864 0.08088 0.26273 0.0
H270 H 0.5648 0.10243 0.30613 0.0
H271 H 0.64615 0.10926 0.29776 0.0
C272 C 0.63093 0.1883 0.38944 0.0
C273 C 0.68731 0.20997 0.39339 0.0
C274 C 0.60479 0.17929 0.3538 0.0
C275 C 0.63484 0.19137 0.32149 0.0
C276 C 0.69212 0.21176 0.32525 0.0
H277 H 0.52195 0.14756 0.08714 0.0
H278 H 0.57363 0.14429 0.14803 0.0
C279 C 0.71821 0.22092 0.36086 0.0
C280 C 0.60357 0.18677 0.28437 0.0
H281 H 0.53687 0.11651 0.21976 0.0
C282 C 0.59098 0.22289 0.26647 0.0
C283 C 0.58493 0.1478 0.2671 0.0
C284 C 0.59981 0.10783 0.28421 0.0
C285 C 0.55922 0.22127 0.23209 0.0
C286 C 0.53838 0.18252 0.21555 0.0
C287 C 0.55215 0.1462 0.2329 0.0
C288 C 0.50317 0.17952 0.17982 0.0
C289 C 0.54872 0.26106 0.2136 0.0
C290 C 0.44543 0.19905 0.17788 0.0
C291 C 0.41613 0.20136 0.14316 0.0
C292 C 0.44397 0.18395 0.10972 0.0
C293 C 0.49992 0.16201 0.11221 0.0
C294 C 0.52928 0.15982 0.14699 0.0
H295 H 0.58028 0.28615 0.225 0.0
H296 H 0.55557 0.25624 0.1826 0.0
H297 H 0.50041 0.27168 0.21895 0.0
H298 H 0.42418 0.21391 0.20308 0.0
H299 H 0.37332 0.21864 0.14248 0.0
H300 H 0.76461 0.76623 0.128 0.0
H301 H 0.71784 0.78056 0.19037 0.0
H302 H 0.56378 0.84082 0.1405 0.0
H303 H 0.61032 0.82704 0.078 0.0
H304 H 0.60894 0.88183 0.21095 0.0
H305 H 0.56225 0.71351 0.21759 0.0
H306 H 0.64145 0.72665 0.20867 0.0
H307 H 0.58303 0.73551 0.17431 0.0
C308 C 0.72114 0.78297 0.1303 0.0
C309 C 0.69078 0.79507 0.09799 0.0
C310 C 0.69448 0.79105 0.16594 0.0
C311 C 0.63704 0.8112 0.16984 0.0
C312 C 0.6081 0.82513 0.13796 0.0
H313 H 0.37646 0.79096 0.35031 0.0
H314 H 0.42616 0.79634 0.28952 0.0
C315 C 0.63469 0.8171 0.10229 0.0
C316 C 0.60497 0.8151 0.20669 0.0
H317 H 0.53741 0.75761 0.27161 0.0
C318 C 0.59328 0.85476 0.22434 0.0
C319 C 0.58389 0.77967 0.22363 0.0
C320 C 0.5927 0.7364 0.20503 0.0
C321 C 0.56152 0.85987 0.25892 0.0
C322 C 0.54156 0.82435 0.27618 0.0
C323 C 0.55295 0.78477 0.25831 0.0
C324 C 0.50828 0.827 0.31268 0.0
C325 C 0.54856 0.90311 0.27633 0.0
C326 C 0.53746 0.84328 0.34587 0.0
C327 C 0.50881 0.84061 0.38086 0.0
C328 C 0.45073 0.82128 0.38329 0.0
C329 C 0.42071 0.80652 0.34972 0.0
C330 C 0.44928 0.80929 0.31484 0.0
H331 H 0.55325 0.92662 0.25542 0.0
H332 H 0.50125 0.90524 0.28859 0.0
H333 H 0.58219 0.91087 0.2994 0.0
H334 H 0.58341 0.85654 0.34488 0.0
H335 H 0.5329 0.8527 0.40607 0.0
H336 H 0.47341 0.86104 0.90503 0.0
H337 H 0.41852 0.86159 0.84483 0.0
H338 H 0.56512 0.7894 0.78947 0.0
H339 H 0.61926 0.78757 0.84939 0.0
H340 H 0.45372 0.88672 0.77165 0.0
H341 H 0.40678 0.71794 0.77134 0.0
H342 H 0.43283 0.74896 0.81283 0.0
H343 H 0.4871 0.73162 0.77655 0.0
C344 C 0.49408 0.84544 0.88001 0.0
C345 C 0.55037 0.82382 0.88221 0.0
C346 C 0.46287 0.84602 0.84564 0.0
C347 C 0.48735 0.82491 0.81298 0.0
C348 C 0.54513 0.80536 0.81458 0.0
H349 H 0.3915 0.81909 0.57874 0.0
H350 H 0.43439 0.83512 0.64169 0.0
C351 C 0.57633 0.80473 0.84886 0.0
C352 C 0.451 0.82107 0.77768 0.0
H353 H 0.38312 0.74943 0.71515 0.0
C354 C 0.43788 0.85681 0.75932 0.0
C355 C 0.42938 0.78207 0.7622 0.0
C356 C 0.43913 0.74296 0.78187 0.0
C357 C 0.40549 0.85431 0.72497 0.0
C358 C 0.38659 0.815 0.70856 0.0
C359 C 0.39796 0.77951 0.72767 0.0
C360 C 0.3573 0.80938 0.67088 0.0
C361 C 0.3916 0.89371 0.70667 0.0
C362 C 0.2999 0.78924 0.66635 0.0
C363 C 0.27549 0.77961 0.63033 0.0
C364 C 0.30827 0.78979 0.5982 0.0
C365 C 0.36497 0.81095 0.60291 0.0
C366 C 0.38937 0.82046 0.63892 0.0
H367 H 0.39184 0.92115 0.72763 0.0
H368 H 0.42775 0.89855 0.68528 0.0
H369 H 0.34595 0.89194 0.69229 0.0
H370 H 0.27463 0.78019 0.69069 0.0
H371 H 0.23169 0.76334 0.62766 0.0
H372 H 0.60322 0.23136 0.63984 0.0
H373 H 0.5521 0.22611 0.70032 0.0
H374 H 0.44971 0.1195 0.65341 0.0
H375 H 0.49967 0.1257 0.59211 0.0
H376 H 0.37512 0.17054 0.69089 0.0
H377 H 0.5779 0.15095 0.78152 0.0
H378 H 0.58745 0.19663 0.75691 0.0
H379 H 0.58351 0.14648 0.73074 0.0
C380 C 0.5708 0.20628 0.64262 0.0
C381 C 0.55571 0.1787 0.6114 0.0
C382 C 0.54174 0.20317 0.67728 0.0
C383 C 0.49807 0.1718 0.68176 0.0
C384 C 0.48357 0.14378 0.65072 0.0
H385 H 0.36249 0.16416 0.91305 0.0
H386 H 0.40719 0.14213 0.85145 0.0
C387 C 0.51199 0.14732 0.61578 0.0
C388 C 0.46437 0.17059 0.71803 0.0
H389 H 0.48607 0.17956 0.81326 0.0
C390 C 0.39937 0.17172 0.71765 0.0
C391 C 0.49569 0.17107 0.75299 0.0
C392 C 0.56495 0.16571 0.75551 0.0
C393 C 0.36508 0.17578 0.75128 0.0
C394 C 0.39676 0.18044 0.7862 0.0
C395 C 0.46158 0.17683 0.78656 0.0
C396 C 0.36433 0.19111 0.82254 0.0
C397 C 0.29533 0.17505 0.74885 0.0
C398 C 0.32493 0.22578 0.82685 0.0
C399 C 0.29831 0.23787 0.86183 0.0
C400 C 0.31209 0.21625 0.89344 0.0
C401 C 0.35123 0.18147 0.88915 0.0
C402 C 0.37678 0.16887 0.85398 0.0
H403 H 0.27957 0.15592 0.72326 0.0
H404 H 0.27417 0.16254 0.77401 0.0
H405 H 0.27802 0.20707 0.74669 0.0
H406 H 0.31621 0.24436 0.80345 0.0
H407 H 0.26885 0.26508 0.86443 0.0
H408 H 0.03159 0.65087 0.08234 0.0
H409 H 0.08329 0.6465 0.14305 0.0
H410 H 0.93033 0.71091 0.19959 0.0
H411 H 0.87944 0.7167 0.13921 0.0
H412 H 0.045 0.74764 0.2146 0.0
H413 H 0.05173 0.5791 0.23463 0.0
H414 H 0.07922 0.59313 0.18969 0.0
H415 H 0.99923 0.60103 0.20209 0.0
C416 C 0.00866 0.66371 0.10773 0.0
C417 C 0.95158 0.68443 0.10578 0.0
C418 C 0.03796 0.66076 0.14243 0.0
C419 C 0.0104 0.67817 0.17576 0.0
C420 C 0.95216 0.6971 0.17413 0.0
H421 H 0.11074 0.68027 0.40938 0.0
H422 H 0.06622 0.66589 0.34657 0.0
C423 C 0.92292 0.70013 0.13952 0.0
C424 C 0.04491 0.6809 0.21174 0.0
H425 H 0.10969 0.62357 0.27791 0.0
C426 C 0.05914 0.72053 0.22847 0.0
C427 C 0.06309 0.64542 0.22966 0.0
C428 C 0.0472 0.60222 0.21335 0.0
C429 C 0.09083 0.72576 0.26284 0.0
C430 C 0.10983 0.69033 0.28058 0.0
C431 C 0.09565 0.65061 0.2639 0.0
C432 C 0.14111 0.69433 0.31762 0.0
C433 C 0.10224 0.76921 0.28037 0.0
C434 C 0.19889 0.71395 0.32189 0.0
C435 C 0.22434 0.72251 0.35778 0.0
C436 C 0.19248 0.71129 0.3899 0.0
C437 C 0.13623 0.68959 0.38524 0.0
C438 C 0.1108 0.68118 0.34938 0.0
H439 H 0.07305 0.79247 0.26736 0.0
H440 H 0.0928 0.77129 0.31117 0.0
H441 H 0.15147 0.77752 0.27624 0.0
H442 H 0.22338 0.72375 0.29756 0.0
H443 H 0.26804 0.73892 0.36041 0.0
H444 H 0.02077 0.36012 0.40389 0.0
H445 H 0.07024 0.364 0.34251 0.0
H446 H 0.91602 0.29875 0.28848 0.0
H447 H 0.86753 0.29315 0.34962 0.0
H448 H 0.02687 0.26223 0.27064 0.0
H449 H 0.03921 0.43062 0.25197 0.0
H450 H 0.06993 0.41674 0.29612 0.0
H451 H 0.98888 0.40953 0.28618 0.0
C452 C 0.99706 0.34693 0.37894 0.0
C453 C 0.9404 0.32594 0.38189 0.0
C454 C 0.02507 0.34966 0.3438 0.0
C455 C 0.99658 0.33192 0.31092 0.0
C456 C 0.93864 0.31281 0.31354 0.0
H457 H 0.10817 0.3309 0.07754 0.0
H458 H 0.05912 0.34519 0.13918 0.0
C459 C 0.91074 0.30989 0.34862 0.0
C460 C 0.03007 0.329 0.27448 0.0
H461 H 0.09942 0.38588 0.20951 0.0
C462 C 0.04247 0.28928 0.2572 0.0
C463 C 0.05017 0.36435 0.25699 0.0
C464 C 0.03593 0.40775 0.27354 0.0
C465 C 0.07478 0.28387 0.22301 0.0
C466 C 0.09642 0.31913 0.20602 0.0
C467 C 0.08347 0.35893 0.22298 0.0
C468 C 0.13024 0.31493 0.16976 0.0
C469 C 0.08447 0.24042 0.205 0.0
C470 C 0.18745 0.29434 0.16684 0.0
C471 C 0.21555 0.28593 0.13165 0.0
C472 C 0.18692 0.2982 0.09885 0.0
C473 C 0.13123 0.32079 0.10222 0.0
C474 C 0.10318 0.32911 0.13741 0.0
H475 H 0.05303 0.21774 0.21704 0.0
H476 H 0.07682 0.23917 0.17405 0.0
H477 H 0.13285 0.23066 0.20994 0.0
H478 H 0.20946 0.28373 0.19166 0.0
H479 H 0.25868 0.26876 0.13005 0.0
H480 H 0.73616 0.26615 0.62983 0.0
H481 H 0.78085 0.28451 0.69211 0.0
H482 H 0.939 0.33819 0.64025 0.0
H483 H 0.8943 0.32066 0.57798 0.0
H484 H 0.88977 0.25423 0.71585 0.0
H485 H 0.8992 0.42595 0.72525 0.0
H486 H 0.85238 0.39612 0.6908 0.0
H487 H 0.93404 0.40228 0.68298 0.0
C488 C 0.78001 0.28242 0.63169 0.0
C489 C 0.81182 0.29181 0.59897 0.0
C490 C 0.8054 0.29296 0.6673 0.0
C491 C 0.86285 0.31317 0.67081 0.0
C492 C 0.89395 0.32348 0.63824 0.0
H493 H 0.12502 0.29386 0.84991 0.0
H494 H 0.07252 0.29593 0.78951 0.0
C495 C 0.86852 0.31311 0.60264 0.0
C496 C 0.89319 0.31955 0.70813 0.0
H497 H 0.96108 0.3924 0.7698 0.0
C498 C 0.90483 0.28451 0.72778 0.0
C499 C 0.9124 0.35911 0.72375 0.0
C500 C 0.89835 0.39807 0.70479 0.0
C501 C 0.93656 0.28775 0.7622 0.0
C502 C 0.95829 0.32699 0.77697 0.0
C503 C 0.94515 0.3623 0.75799 0.0
C504 C 0.99434 0.33151 0.81234 0.0
C505 C 0.94639 0.24911 0.78255 0.0
C506 C 0.96919 0.35271 0.84476 0.0
C507 C 0.99947 0.35201 0.87941 0.0
C508 C 0.0554 0.3301 0.88215 0.0
C509 C 0.08228 0.31118 0.84901 0.0
C510 C 0.05205 0.31198 0.81443 0.0
H511 H 0.91424 0.22383 0.77235 0.0
H512 H 0.99445 0.23781 0.77755 0.0
H513 H 0.93983 0.2557 0.81344 0.0
H514 H 0.92487 0.36826 0.84356 0.0
H515 H 0.97815 0.36754 0.90425 0.0
H516 H 0.95225 0.70739 0.58649 0.0
H517 H 0.90532 0.70398 0.64847 0.0
H518 H 0.07503 0.65416 0.68995 0.0
H519 H 0.12272 0.65784 0.62774 0.0
H520 H 0.88474 0.64076 0.69454 0.0
H521 H 0.04827 0.75786 0.7608 0.0
H522 H 0.04229 0.74718 0.71037 0.0
H523 H 0.08438 0.71249 0.73798 0.0
C524 C 0.97938 0.69501 0.60853 0.0
C525 C 0.04144 0.68315 0.60227 0.0
C526 C 0.95249 0.69323 0.64402 0.0
C527 C 0.98703 0.67953 0.67394 0.0
C528 C 0.04805 0.66574 0.66741 0.0
H529 H 0.89702 0.68744 0.91271 0.0
H530 H 0.94279 0.66966 0.8507 0.0
C531 C 0.07519 0.66781 0.63191 0.0
C532 C 0.95971 0.68175 0.71222 0.0
H533 H 0.97475 0.73017 0.80067 0.0
C534 C 0.90452 0.66014 0.71783 0.0
C535 C 0.98552 0.70726 0.74245 0.0
C536 C 0.04305 0.73284 0.73768 0.0
C537 C 0.87432 0.66346 0.75291 0.0
C538 C 0.89981 0.68934 0.78289 0.0
C539 C 0.95555 0.71027 0.77753 0.0
C540 C 0.86863 0.69642 0.81986 0.0
C541 C 0.81555 0.63929 0.7577 0.0
C542 C 0.81157 0.7172 0.82293 0.0
C543 C 0.78526 0.72759 0.85838 0.0
C544 C 0.81583 0.71746 0.89129 0.0
C545 C 0.87227 0.69573 0.88794 0.0
C546 C 0.89853 0.68549 0.85255 0.0
H547 H 0.81038 0.61346 0.73532 0.0
H548 H 0.81443 0.62636 0.78567 0.0
H549 H 0.77523 0.66033 0.75604 0.0
H550 H 0.78835 0.72653 0.79801 0.0
H551 H 0.74181 0.74439 0.86003 0.0
loop_
_geom_bond_atom_site_label_1
_geom_bond_atom_site_label_2
_geom_bond_distance
_geom_bond_site_symmetry_2
_ccdc_geom_bond_type
Co0 N5 2.057 . S
Co0 O17 2.021 . S
Co0 O20 2.062 . S
Co0 O24 2.117 . S
Co0 O25 2.020 1_556 S
C1 O21 1.273 . S
C1 O24 1.244 1_554 S
Co2 N11 2.057 . S
Co2 O18 2.117 . S
Co2 O19 2.020 1_554 S
Co2 O21 2.021 . S
Co2 O26 2.062 . S
C3 N5 1.316 . S
C3 N6 1.347 . S
C3 H8 0.931 . S
C4 N5 1.375 . S
C4 C7 1.350 . S
C4 H9 0.930 . S
N5 Co0 2.057 . S
N5 C3 1.316 . S
N5 C4 1.375 . S
N6 C3 1.347 . S
N6 C7 1.373 . S
C7 C4 1.350 . S
C7 N6 1.373 . S
C7 H28 0.931 . S
H8 C3 0.931 . S
H9 C4 0.930 . S
C10 O17 1.269 . S
C10 O18 1.248 1_556 S
N11 Co2 2.057 . S
N11 C12 1.316 . S
N11 C13 1.375 . S
C12 N11 1.316 . S
C12 N14 1.347 . S
C12 H23 0.931 . S
C13 N11 1.375 . S
C13 C15 1.350 . S
C13 H22 0.930 . S
N14 C12 1.347 . S
N14 C15 1.373 . S
C15 C13 1.350 . S
C15 N14 1.373 . S
C15 H29 0.931 . S
C16 O19 1.256 . S
C16 O20 1.255 . S
O17 Co0 2.021 . S
O17 C10 1.269 . S
O18 Co2 2.117 . S
O18 C10 1.248 1_554 S
O19 Co2 2.020 1_556 S
O19 C16 1.256 . S
O20 Co0 2.062 . S
O20 C16 1.255 . S
O21 C1 1.273 . S
O21 Co2 2.021 . S
H22 C13 0.930 . S
H23 C12 0.931 . S
O24 Co0 2.117 . S
O24 C1 1.244 1_556 S
O25 Co0 2.020 1_554 S
O25 C27 1.256 . S
O26 Co2 2.062 . S
O26 C27 1.255 . S
C27 O25 1.256 . S
C27 O26 1.255 . S
H28 C7 0.931 . S
H29 C15 0.931 . S
Co30 N35 2.057 . S
Co30 O47 2.021 . S
Co30 O50 2.062 . S
Co30 O54 2.117 . S
Co30 O55 2.020 1_556 S
C31 O51 1.273 . S
C31 O54 1.244 1_554 S
Co32 N41 2.057 . S
Co32 O48 2.117 . S
Co32 O49 2.020 1_554 S
Co32 O51 2.021 . S
Co32 O56 2.062 . S
C33 N35 1.316 . S
C33 N36 1.347 . S
C33 H38 0.931 . S
C34 N35 1.375 . S
C34 C37 1.350 . S
C34 H39 0.930 . S
N35 Co30 2.057 . S
N35 C33 1.316 . S
N35 C34 1.375 . S
N36 C33 1.347 . S
N36 C37 1.373 . S
C37 C34 1.350 . S
C37 N36 1.373 . S
C37 H58 0.931 . S
H38 C33 0.931 . S
H39 C34 0.930 . S
C40 O47 1.269 . S
C40 O48 1.248 1_556 S
N41 Co32 2.057 . S
N41 C42 1.316 . S
N41 C43 1.375 . S
C42 N41 1.316 . S
C42 N44 1.347 . S
C42 H53 0.931 . S
C43 N41 1.375 . S
C43 C45 1.350 . S
C43 H52 0.930 . S
N44 C42 1.347 . S
N44 C45 1.373 . S
C45 C43 1.350 . S
C45 N44 1.373 . S
C45 H59 0.931 . S
C46 O49 1.256 . S
C46 O50 1.255 . S
O47 Co30 2.021 . S
O47 C40 1.269 . S
O48 Co32 2.117 . S
O48 C40 1.248 1_554 S
O49 Co32 2.020 1_556 S
O49 C46 1.256 . S
O50 Co30 2.062 . S
O50 C46 1.255 . S
O51 C31 1.273 . S
O51 Co32 2.021 . S
H52 C43 0.930 . S
H53 C42 0.931 . S
O54 Co30 2.117 . S
O54 C31 1.244 1_556 S
O55 Co30 2.020 1_554 S
O55 C57 1.256 . S
O56 Co32 2.062 . S
O56 C57 1.255 . S
C57 O55 1.256 . S
C57 O56 1.255 . S
H58 C37 0.931 . S
H59 C45 0.931 . S
Co60 N65 2.057 . S
Co60 O77 2.021 . S
Co60 O80 2.062 . S
Co60 O84 2.117 . S
Co60 O85 2.020 . S
C61 O81 1.259 . S
C61 O84 1.258 . S
Co62 N71 2.057 . S
Co62 O78 2.117 . S
Co62 O79 2.020 . S
Co62 O81 2.021 . S
Co62 O86 2.062 . S
C63 N65 1.316 . S
C63 N66 1.347 . S
C63 H68 0.931 . S
C64 N65 1.375 . S
C64 C67 1.350 . S
C64 H69 0.930 . S
N65 Co60 2.057 . S
N65 C63 1.316 . S
N65 C64 1.375 . S
N66 C63 1.347 . S
N66 C67 1.373 . S
C67 C64 1.350 . S
C67 N66 1.373 . S
C67 H88 0.931 . S
H68 C63 0.931 . S
H69 C64 0.930 . S
C70 O77 1.259 . S
C70 O78 1.258 . S
N71 Co62 2.057 . S
N71 C72 1.316 . S
N71 C73 1.375 . S
C72 N71 1.316 . S
C72 N74 1.347 . S
C72 H83 0.931 . S
C73 N71 1.375 . S
C73 C75 1.350 . S
C73 H82 0.930 . S
N74 C72 1.347 . S
N74 C75 1.373 . S
C75 C73 1.350 . S
C75 N74 1.373 . S
C75 H89 0.931 . S
C76 O79 1.256 . S
C76 O80 1.255 . S
O77 Co60 2.021 . S
O77 C70 1.259 . S
O78 Co62 2.117 . S
O78 C70 1.258 . S
O79 Co62 2.020 . S
O79 C76 1.256 . S
O80 Co60 2.062 . S
O80 C76 1.255 . S
O81 C61 1.259 . S
O81 Co62 2.021 . S
H82 C73 0.930 . S
H83 C72 0.931 . S
O84 Co60 2.117 . S
O84 C61 1.258 . S
O85 Co60 2.020 . S
O85 C87 1.256 . S
O86 Co62 2.062 . S
O86 C87 1.255 . S
C87 O85 1.256 . S
C87 O86 1.255 . S
H88 C67 0.931 . S
H89 C75 0.931 . S
Co90 N95 2.057 . S
Co90 O107 2.021 . S
Co90 O110 2.062 . S
Co90 O114 2.117 . S
Co90 O115 2.020 . S
C91 O111 1.259 . S
C91 O114 1.258 . S
Co92 N101 2.057 . S
Co92 O108 2.117 . S
Co92 O109 2.020 . S
Co92 O111 2.021 . S
Co92 O116 2.062 . S
C93 N95 1.316 . S
C93 N96 1.347 . S
C93 H98 0.931 . S
C94 N95 1.375 . S
C94 C97 1.350 . S
C94 H99 0.930 . S
N95 Co90 2.057 . S
N95 C93 1.316 . S
N95 C94 1.375 . S
N96 C93 1.347 . S
N96 C97 1.373 . S
C97 C94 1.350 . S
C97 N96 1.373 . S
C97 H118 0.931 . S
H98 C93 0.931 . S
H99 C94 0.930 . S
C100 O107 1.259 . S
C100 O108 1.258 . S
N101 Co92 2.057 . S
N101 C102 1.316 . S
N101 C103 1.375 . S
C102 N101 1.316 . S
C102 N104 1.347 . S
C102 H113 0.931 . S
C103 N101 1.375 . S
C103 C105 1.350 . S
C103 H112 0.930 . S
N104 C102 1.347 . S
N104 C105 1.373 . S
C105 C103 1.350 . S
C105 N104 1.373 . S
C105 H119 0.931 . S
C106 O109 1.256 . S
C106 O110 1.255 . S
O107 Co90 2.021 . S
O107 C100 1.259 . S
O108 Co92 2.117 . S
O108 C100 1.258 . S
O109 Co92 2.020 . S
O109 C106 1.256 . S
O110 Co90 2.062 . S
O110 C106 1.255 . S
O111 C91 1.259 . S
O111 Co92 2.021 . S
H112 C103 0.930 . S
H113 C102 0.931 . S
O114 Co90 2.117 . S
O114 C91 1.258 . S
O115 Co90 2.020 . S
O115 C117 1.256 . S
O116 Co92 2.062 . S
O116 C117 1.255 . S
C117 O115 1.256 . S
C117 O116 1.255 . S
H118 C97 0.931 . S
H119 C105 0.931 . S
H120 C128 0.929 . S
H121 C130 0.930 . S
H122 C132 0.930 . S
H123 C135 0.929 . S
H124 C138 0.930 . S
H125 C140 0.960 . S
H126 C140 0.960 . S
H127 C140 0.960 . S
C128 H120 0.929 . S
C128 C129 1.385 . S
C128 C130 1.384 . S
C129 C128 1.385 . S
C129 C135 1.381 1_556 S
C130 H121 0.930 . S
C130 C128 1.384 . S
C130 C131 1.372 . S
C131 C130 1.372 . S
C131 C132 1.400 1_556 S
C131 C136 1.490 . S
C132 H122 0.930 . S
C132 C131 1.400 1_554 S
C132 C135 1.386 . S
H133 C149 0.930 . S
H134 C150 0.931 . S
C135 H123 0.929 . S
C135 C129 1.381 1_554 S
C135 C132 1.386 . S
C136 C131 1.490 . S
C136 C138 1.395 . S
C136 C139 1.403 1_556 S
H137 C143 0.930 . S
C138 H124 0.930 . S
C138 C136 1.395 . S
C138 C141 1.403 . S
C139 C136 1.403 1_554 S
C139 C140 1.524 . S
C139 C143 1.400 . S
C140 H125 0.960 . S
C140 H126 0.960 . S
C140 H127 0.960 . S
C140 C139 1.524 . S
C141 C138 1.403 . S
C141 C142 1.392 . S
C141 C145 1.495 . S
C142 C141 1.392 . S
C142 C143 1.385 1_556 S
C142 C144 1.478 . S
C143 H137 0.930 . S
C143 C139 1.400 . S
C143 C142 1.385 1_554 S
C144 C142 1.478 . S
C144 C146 1.381 . S
C144 C150 1.383 1_556 S
C145 C141 1.495 . S
C145 H151 0.959 . S
C145 H152 0.961 . S
C145 H153 0.960 . S
C146 C144 1.381 . S
C146 C147 1.394 . S
C146 H154 0.930 . S
C147 C146 1.394 . S
C147 C148 1.383 . S
C147 H155 0.929 . S
C148 C147 1.383 . S
C148 C149 1.377 1_556 S
C149 H133 0.930 . S
C149 C148 1.377 1_554 S
C149 C150 1.379 . S
C150 H134 0.931 . S
C150 C144 1.383 1_554 S
C150 C149 1.379 . S
H151 C145 0.959 . S
H152 C145 0.961 . S
H153 C145 0.960 . S
H154 C146 0.930 . S
H155 C147 0.929 . S
H156 C164 0.929 . S
H157 C166 0.930 . S
H158 C168 0.930 . S
H159 C171 0.929 . S
H160 C174 0.930 . S
H161 C176 0.960 . S
H162 C176 0.960 . S
H163 C176 0.960 . S
C164 H156 0.929 . S
C164 C165 1.377 . S
C164 C166 1.384 . S
C165 C164 1.377 . S
C165 C171 1.390 . S
C166 H157 0.930 . S
C166 C164 1.384 . S
C166 C167 1.372 . S
C167 C166 1.372 . S
C167 C168 1.400 . S
C167 C172 1.490 . S
C168 H158 0.930 . S
C168 C167 1.400 . S
C168 C171 1.386 . S
H169 C185 0.930 . S
H170 C186 0.931 . S
C171 H159 0.929 . S
C171 C165 1.390 . S
C171 C168 1.386 . S
C172 C167 1.490 . S
C172 C174 1.395 . S
C172 C175 1.403 . S
H173 C179 0.930 . S
C174 H160 0.930 . S
C174 C172 1.395 . S
C174 C177 1.403 . S
C175 C172 1.403 . S
C175 C176 1.524 . S
C175 C179 1.400 . S
C176 H161 0.960 . S
C176 H162 0.960 . S
C176 H163 0.960 . S
C176 C175 1.524 . S
C177 C174 1.403 . S
C177 C178 1.392 . S
C177 C181 1.495 . S
C178 C177 1.392 . S
C178 C179 1.385 . S
C178 C180 1.478 . S
C179 H173 0.930 . S
C179 C175 1.400 . S
C179 C178 1.385 . S
C180 C178 1.478 . S
C180 C182 1.381 . S
C180 C186 1.383 . S
C181 C177 1.495 . S
C181 H187 0.959 . S
C181 H188 0.961 . S
C181 H189 0.960 . S
C182 C180 1.381 . S
C182 C183 1.394 . S
C182 H190 0.930 . S
C183 C182 1.394 . S
C183 C184 1.383 . S
C183 H191 0.929 . S
C184 C183 1.383 . S
C184 C185 1.377 . S
C185 H169 0.930 . S
C185 C184 1.377 . S
C185 C186 1.379 . S
C186 H170 0.931 . S
C186 C180 1.383 . S
C186 C185 1.379 . S
H187 C181 0.959 . S
H188 C181 0.961 . S
H189 C181 0.960 . S
H190 C182 0.930 . S
H191 C183 0.929 . S
H192 C200 0.929 . S
H193 C202 0.930 . S
H194 C204 0.930 . S
H195 C207 0.929 . S
H196 C210 0.930 . S
H197 C212 0.962 1_556 S
H198 C212 0.983 . S
H199 C212 0.937 1_556 S
C200 H192 0.929 . S
C200 C201 1.380 . S
C200 C202 1.384 . S
C201 C200 1.380 . S
C201 C207 1.387 1_554 S
C202 H193 0.930 . S
C202 C200 1.384 . S
C202 C203 1.372 . S
C203 C202 1.372 . S
C203 C204 1.400 1_554 S
C203 C208 1.490 . S
C204 H194 0.930 . S
C204 C203 1.400 1_556 S
C204 C207 1.386 . S
H205 C221 0.930 . S
H206 C222 0.931 . S
C207 H195 0.929 . S
C207 C201 1.387 1_556 S
C207 C204 1.386 . S
C208 C203 1.490 . S
C208 C210 1.395 1_455 S
C208 C211 1.402 1_545 S
H209 C215 0.930 1_556 S
C210 H196 0.930 . S
C210 C208 1.395 1_655 S
C210 C213 1.403 . S
C211 C208 1.402 1_565 S
C211 C212 1.524 . S
C211 C215 1.401 . S
C212 H197 0.962 1_554 S
C212 H198 0.983 . S
C212 H199 0.937 1_554 S
C212 C211 1.524 . S
C213 C210 1.403 . S
C213 C214 1.392 1_545 S
C213 C217 1.495 . S
C214 C213 1.392 1_565 S
C214 C215 1.385 1_655 S
C214 C216 1.477 . S
C215 H209 0.930 1_554 S
C215 C211 1.401 . S
C215 C214 1.385 1_455 S
C216 C214 1.477 . S
C216 C218 1.401 . S
C216 C222 1.364 1_554 S
C217 C213 1.495 . S
C217 H223 0.959 . S
C217 H224 0.961 1_554 S
C217 H225 0.960 . S
C218 C216 1.401 . S
C218 C219 1.394 . S
C218 H226 0.930 . S
C219 C218 1.394 . S
C219 C220 1.392 . S
C219 H227 0.929 . S
C220 C219 1.392 . S
C220 C221 1.368 1_554 S
C221 H205 0.930 . S
C221 C220 1.368 1_556 S
C221 C222 1.379 . S
C222 H206 0.931 . S
C222 C216 1.364 1_556 S
C222 C221 1.379 . S
H223 C217 0.959 . S
H224 C217 0.961 1_556 S
H225 C217 0.960 . S
H226 C218 0.930 . S
H227 C219 0.929 . S
H228 C236 0.929 . S
H229 C238 0.930 . S
H230 C240 0.930 . S
H231 C243 0.929 . S
H232 C246 0.930 . S
H233 C248 0.960 . S
H234 C248 0.960 . S
H235 C248 0.960 . S
C236 H228 0.929 . S
C236 C237 1.377 . S
C236 C238 1.384 . S
C237 C236 1.377 . S
C237 C243 1.390 . S
C238 H229 0.930 . S
C238 C236 1.384 . S
C238 C239 1.372 . S
C239 C238 1.372 . S
C239 C240 1.400 . S
C239 C244 1.490 . S
C240 H230 0.930 . S
C240 C239 1.400 . S
C240 C243 1.386 . S
H241 C257 0.930 . S
H242 C258 0.931 . S
C243 H231 0.929 . S
C243 C237 1.390 . S
C243 C240 1.386 . S
C244 C239 1.490 . S
C244 C246 1.395 1_655 S
C244 C247 1.403 1_545 S
H245 C251 0.930 . S
C246 H232 0.930 . S
C246 C244 1.395 1_455 S
C246 C249 1.403 . S
C247 C244 1.403 1_565 S
C247 C248 1.524 . S
C247 C251 1.400 . S
C248 H233 0.960 . S
C248 H234 0.960 . S
C248 H235 0.960 . S
C248 C247 1.524 . S
C249 C246 1.403 . S
C249 C250 1.392 1_545 S
C249 C253 1.495 . S
C250 C249 1.392 1_565 S
C250 C251 1.385 1_455 S
C250 C252 1.478 . S
C251 H245 0.930 . S
C251 C247 1.400 . S
C251 C250 1.385 1_655 S
C252 C250 1.478 . S
C252 C254 1.381 . S
C252 C258 1.383 . S
C253 C249 1.495 . S
C253 H259 0.959 . S
C253 H260 0.961 . S
C253 H261 0.960 . S
C254 C252 1.381 . S
C254 C255 1.394 . S
C254 H262 0.930 . S
C255 C254 1.394 . S
C255 C256 1.383 . S
C255 H263 0.929 . S
C256 C255 1.383 . S
C256 C257 1.377 . S
C257 H241 0.930 . S
C257 C256 1.377 . S
C257 C258 1.379 . S
C258 H242 0.931 . S
C258 C252 1.383 . S
C258 C257 1.379 . S
H259 C253 0.959 . S
H260 C253 0.961 . S
H261 C253 0.960 . S
H262 C254 0.930 . S
H263 C255 0.929 . S
H264 C272 0.929 . S
H265 C274 0.930 . S
H266 C276 0.930 . S
H267 C279 0.929 . S
H268 C282 0.930 . S
H269 C284 0.960 . S
H270 C284 0.960 . S
H271 C284 0.960 . S
C272 H264 0.929 . S
C272 C273 1.377 . S
C272 C274 1.384 . S
C273 C272 1.377 . S
C273 C279 1.390 . S
C274 H265 0.930 . S
C274 C272 1.384 . S
C274 C275 1.372 . S
C275 C274 1.372 . S
C275 C276 1.400 . S
C275 C280 1.490 . S
C276 H266 0.930 . S
C276 C275 1.400 . S
C276 C279 1.386 . S
H277 C293 0.930 . S
H278 C294 0.931 . S
C279 H267 0.929 . S
C279 C273 1.390 . S
C279 C276 1.386 . S
C280 C275 1.490 . S
C280 C282 1.395 . S
C280 C283 1.403 . S
H281 C287 0.930 . S
C282 H268 0.930 . S
C282 C280 1.395 . S
C282 C285 1.403 . S
C283 C280 1.403 . S
C283 C284 1.524 . S
C283 C287 1.400 . S
C284 H269 0.960 . S
C284 H270 0.960 . S
C284 H271 0.960 . S
C284 C283 1.524 . S
C285 C282 1.403 . S
C285 C286 1.392 . S
C285 C289 1.495 . S
C286 C285 1.392 . S
C286 C287 1.385 . S
C286 C288 1.478 . S
C287 H281 0.930 . S
C287 C283 1.400 . S
C287 C286 1.385 . S
C288 C286 1.478 . S
C288 C290 1.381 . S
C288 C294 1.383 . S
C289 C285 1.495 . S
C289 H295 0.959 . S
C289 H296 0.961 . S
C289 H297 0.960 . S
C290 C288 1.381 . S
C290 C291 1.394 . S
C290 H298 0.930 . S
C291 C290 1.394 . S
C291 C292 1.383 . S
C291 H299 0.929 . S
C292 C291 1.383 . S
C292 C293 1.377 . S
C293 H277 0.930 . S
C293 C292 1.377 . S
C293 C294 1.379 . S
C294 H278 0.931 . S
C294 C288 1.383 . S
C294 C293 1.379 . S
H295 C289 0.959 . S
H296 C289 0.961 . S
H297 C289 0.960 . S
H298 C290 0.930 . S
H299 C291 0.929 . S
H300 C308 0.929 . S
H301 C310 0.930 . S
H302 C312 0.930 . S
H303 C315 0.929 . S
H304 C318 0.930 . S
H305 C320 0.960 . S
H306 C320 0.960 . S
H307 C320 0.960 . S
C308 H300 0.929 . S
C308 C309 1.377 . S
C308 C310 1.384 . S
C309 C308 1.377 . S
C309 C315 1.390 . S
C310 H301 0.930 . S
C310 C308 1.384 . S
C310 C311 1.372 . S
C311 C310 1.372 . S
C311 C312 1.400 . S
C311 C316 1.490 . S
C312 H302 0.930 . S
C312 C311 1.400 . S
C312 C315 1.386 . S
H313 C329 0.930 . S
H314 C330 0.931 . S
C315 H303 0.929 . S
C315 C309 1.390 . S
C315 C312 1.386 . S
C316 C311 1.490 . S
C316 C318 1.395 . S
C316 C319 1.403 . S
H317 C323 0.930 . S
C318 H304 0.930 . S
C318 C316 1.395 . S
C318 C321 1.403 . S
C319 C316 1.403 . S
C319 C320 1.524 . S
C319 C323 1.400 . S
C320 H305 0.960 . S
C320 H306 0.960 . S
C320 H307 0.960 . S
C320 C319 1.524 . S
C321 C318 1.403 . S
C321 C322 1.392 . S
C321 C325 1.495 . S
C322 C321 1.392 . S
C322 C323 1.385 . S
C322 C324 1.478 . S
C323 H317 0.930 . S
C323 C319 1.400 . S
C323 C322 1.385 . S
C324 C322 1.478 . S
C324 C326 1.381 . S
C324 C330 1.383 . S
C325 C321 1.495 . S
C325 H331 0.959 . S
C325 H332 0.961 . S
C325 H333 0.960 . S
C326 C324 1.381 . S
C326 C327 1.394 . S
C326 H334 0.930 . S
C327 C326 1.394 . S
C327 C328 1.383 . S
C327 H335 0.929 . S
C328 C327 1.383 . S
C328 C329 1.377 . S
C329 H313 0.930 . S
C329 C328 1.377 . S
C329 C330 1.379 . S
C330 H314 0.931 . S
C330 C324 1.383 . S
C330 C329 1.379 . S
H331 C325 0.959 . S
H332 C325 0.961 . S
H333 C325 0.960 . S
H334 C326 0.930 . S
H335 C327 0.929 . S
H336 C344 0.929 . S
H337 C346 0.930 . S
H338 C348 0.930 . S
H339 C351 0.929 . S
H340 C354 0.930 . S
H341 C356 0.960 . S
H342 C356 0.960 . S
H343 C356 0.960 . S
C344 H336 0.929 . S
C344 C345 1.377 . S
C344 C346 1.384 . S
C345 C344 1.377 . S
C345 C351 1.390 . S
C346 H337 0.930 . S
C346 C344 1.384 . S
C346 C347 1.372 . S
C347 C346 1.372 . S
C347 C348 1.400 . S
C347 C352 1.490 . S
C348 H338 0.930 . S
C348 C347 1.400 . S
C348 C351 1.386 . S
H349 C365 0.930 . S
H350 C366 0.931 . S
C351 H339 0.929 . S
C351 C345 1.390 . S
C351 C348 1.386 . S
C352 C347 1.490 . S
C352 C354 1.395 . S
C352 C355 1.403 . S
H353 C359 0.930 . S
C354 H340 0.930 . S
C354 C352 1.395 . S
C354 C357 1.403 . S
C355 C352 1.403 . S
C355 C356 1.524 . S
C355 C359 1.400 . S
C356 H341 0.960 . S
C356 H342 0.960 . S
C356 H343 0.960 . S
C356 C355 1.524 . S
C357 C354 1.403 . S
C357 C358 1.392 . S
C357 C361 1.495 . S
C358 C357 1.392 . S
C358 C359 1.385 . S
C358 C360 1.478 . S
C359 H353 0.930 . S
C359 C355 1.400 . S
C359 C358 1.385 . S
C360 C358 1.478 . S
C360 C362 1.381 . S
C360 C366 1.383 . S
C361 C357 1.495 . S
C361 H367 0.959 . S
C361 H368 0.961 . S
C361 H369 0.960 . S
C362 C360 1.381 . S
C362 C363 1.394 . S
C362 H370 0.930 . S
C363 C362 1.394 . S
C363 C364 1.383 . S
C363 H371 0.929 . S
C364 C363 1.383 . S
C364 C365 1.377 . S
C365 H349 0.930 . S
C365 C364 1.377 . S
C365 C366 1.379 . S
C366 H350 0.931 . S
C366 C360 1.383 . S
C366 C365 1.379 . S
H367 C361 0.959 . S
H368 C361 0.961 . S
H369 C361 0.960 . S
H370 C362 0.930 . S
H371 C363 0.929 . S
H372 C380 0.929 . S
H373 C382 0.930 . S
H374 C384 0.930 . S
H375 C387 0.929 . S
H376 C390 0.930 . S
H377 C392 0.960 . S
H378 C392 0.960 . S
H379 C392 0.960 . S
C380 H372 0.929 . S
C380 C381 1.377 . S
C380 C382 1.384 . S
C381 C380 1.377 . S
C381 C387 1.390 . S
C382 H373 0.930 . S
C382 C380 1.384 . S
C382 C383 1.372 . S
C383 C382 1.372 . S
C383 C384 1.400 . S
C383 C388 1.490 . S
C384 H374 0.930 . S
C384 C383 1.400 . S
C384 C387 1.386 . S
H385 C401 0.930 . S
H386 C402 0.931 . S
C387 H375 0.929 . S
C387 C381 1.390 . S
C387 C384 1.386 . S
C388 C383 1.490 . S
C388 C390 1.395 . S
C388 C391 1.403 . S
H389 C395 0.930 . S
C390 H376 0.930 . S
C390 C388 1.395 . S
C390 C393 1.403 . S
C391 C388 1.403 . S
C391 C392 1.524 . S
C391 C395 1.400 . S
C392 H377 0.960 . S
C392 H378 0.960 . S
C392 H379 0.960 . S
C392 C391 1.524 . S
C393 C390 1.403 . S
C393 C394 1.392 . S
C393 C397 1.495 . S
C394 C393 1.392 . S
C394 C395 1.385 . S
C394 C396 1.478 . S
C395 H389 0.930 . S
C395 C391 1.400 . S
C395 C394 1.385 . S
C396 C394 1.478 . S
C396 C398 1.381 . S
C396 C402 1.383 . S
C397 C393 1.495 . S
C397 H403 0.959 . S
C397 H404 0.961 . S
C397 H405 0.960 . S
C398 C396 1.381 . S
C398 C399 1.394 . S
C398 H406 0.930 . S
C399 C398 1.394 . S
C399 C400 1.383 . S
C399 H407 0.929 . S
C400 C399 1.383 . S
C400 C401 1.377 . S
C401 H385 0.930 . S
C401 C400 1.377 . S
C401 C402 1.379 . S
C402 H386 0.931 . S
C402 C396 1.383 . S
C402 C401 1.379 . S
H403 C397 0.959 . S
H404 C397 0.961 . S
H405 C397 0.960 . S
H406 C398 0.930 . S
H407 C399 0.929 . S
H408 C416 0.929 . S
H409 C418 0.930 . S
H410 C420 0.930 . S
H411 C423 0.929 . S
H412 C426 0.930 . S
H413 C428 0.960 . S
H414 C428 0.960 . S
H415 C428 0.960 . S
C416 H408 0.929 . S
C416 C417 1.377 . S
C416 C418 1.384 1_655 S
C417 C416 1.377 . S
C417 C423 1.390 . S
C418 H409 0.930 . S
C418 C416 1.384 1_455 S
C418 C419 1.372 1_455 S
C419 C418 1.372 1_655 S
C419 C420 1.400 . S
C419 C424 1.490 1_655 S
C420 H410 0.930 . S
C420 C419 1.400 . S
C420 C423 1.386 . S
H421 C437 0.930 . S
H422 C438 0.931 . S
C423 H411 0.929 . S
C423 C417 1.390 . S
C423 C420 1.386 . S
C424 C419 1.490 1_455 S
C424 C426 1.395 . S
C424 C427 1.403 1_455 S
H425 C431 0.930 1_655 S
C426 H412 0.930 . S
C426 C424 1.395 . S
C426 C429 1.403 . S
C427 C424 1.403 1_655 S
C427 C428 1.524 . S
C427 C431 1.400 1_655 S
C428 H413 0.960 . S
C428 H414 0.960 . S
C428 H415 0.960 . S
C428 C427 1.524 . S
C429 C426 1.403 . S
C429 C430 1.392 . S
C429 C433 1.495 . S
C430 C429 1.392 . S
C430 C431 1.385 . S
C430 C432 1.478 . S
C431 H425 0.930 1_455 S
C431 C427 1.400 1_455 S
C431 C430 1.385 . S
C432 C430 1.478 . S
C432 C434 1.381 . S
C432 C438 1.383 . S
C433 C429 1.495 . S
C433 H439 0.959 . S
C433 H440 0.961 . S
C433 H441 0.960 . S
C434 C432 1.381 . S
C434 C435 1.394 . S
C434 H442 0.930 . S
C435 C434 1.394 . S
C435 C436 1.383 . S
C435 H443 0.929 . S
C436 C435 1.383 . S
C436 C437 1.377 . S
C437 H421 0.930 . S
C437 C436 1.377 . S
C437 C438 1.379 . S
C438 H422 0.931 . S
C438 C432 1.383 . S
C438 C437 1.379 . S
H439 C433 0.959 . S
H440 C433 0.961 . S
H441 C433 0.960 . S
H442 C434 0.930 . S
H443 C435 0.929 . S
H444 C452 0.929 . S
H445 C454 0.930 1_455 S
H446 C456 0.930 . S
H447 C459 0.929 . S
H448 C462 0.930 1_655 S
H449 C464 0.960 . S
H450 C464 0.960 . S
H451 C464 0.960 . S
C452 H444 0.929 . S
C452 C453 1.377 . S
C452 C454 1.384 . S
C453 C452 1.377 . S
C453 C459 1.390 . S
C454 H445 0.930 1_655 S
C454 C452 1.384 . S
C454 C455 1.372 . S
C455 C454 1.372 . S
C455 C456 1.400 . S
C455 C460 1.490 1_655 S
C456 H446 0.930 . S
C456 C455 1.400 . S
C456 C459 1.386 . S
H457 C473 0.930 . S
H458 C474 0.931 . S
C459 H447 0.929 . S
C459 C453 1.390 . S
C459 C456 1.386 . S
C460 C455 1.490 1_455 S
C460 C462 1.395 . S
C460 C463 1.403 . S
H461 C467 0.930 . S
C462 H448 0.930 1_455 S
C462 C460 1.395 . S
C462 C465 1.403 . S
C463 C460 1.403 . S
C463 C464 1.524 . S
C463 C467 1.400 . S
C464 H449 0.960 . S
C464 H450 0.960 . S
C464 H451 0.960 . S
C464 C463 1.524 . S
C465 C462 1.403 . S
C465 C466 1.392 . S
C465 C469 1.495 . S
C466 C465 1.392 . S
C466 C467 1.385 . S
C466 C468 1.478 . S
C467 H461 0.930 . S
C467 C463 1.400 . S
C467 C466 1.385 . S
C468 C466 1.478 . S
C468 C470 1.381 . S
C468 C474 1.383 . S
C469 C465 1.495 . S
C469 H475 0.959 1_455 S
C469 H476 0.961 1_455 S
C469 H477 0.960 . S
C470 C468 1.381 . S
C470 C471 1.394 . S
C470 H478 0.930 . S
C471 C470 1.394 . S
C471 C472 1.383 . S
C471 H479 0.929 . S
C472 C471 1.383 . S
C472 C473 1.377 . S
C473 H457 0.930 . S
C473 C472 1.377 . S
C473 C474 1.379 . S
C474 H458 0.931 . S
C474 C468 1.383 . S
C474 C473 1.379 . S
H475 C469 0.959 1_655 S
H476 C469 0.961 1_655 S
H477 C469 0.960 . S
H478 C470 0.930 . S
H479 C471 0.929 . S
H480 C488 0.929 . S
H481 C490 0.930 . S
H482 C492 0.930 . S
H483 C495 0.929 . S
H484 C498 0.930 . S
H485 C500 0.960 . S
H486 C500 0.960 1_655 S
H487 C500 0.960 . S
C488 H480 0.929 . S
C488 C489 1.377 . S
C488 C490 1.384 . S
C489 C488 1.377 . S
C489 C495 1.390 . S
C490 H481 0.930 . S
C490 C488 1.384 . S
C490 C491 1.372 . S
C491 C490 1.372 . S
C491 C492 1.400 . S
C491 C496 1.490 . S
C492 H482 0.930 . S
C492 C491 1.400 . S
C492 C495 1.386 . S
H493 C509 0.930 . S
H494 C510 0.931 . S
C495 H483 0.929 . S
C495 C489 1.390 . S
C495 C492 1.386 . S
C496 C491 1.490 . S
C496 C498 1.395 . S
C496 C499 1.403 . S
H497 C503 0.930 . S
C498 H484 0.930 . S
C498 C496 1.395 . S
C498 C501 1.403 . S
C499 C496 1.403 . S
C499 C500 1.524 1_655 S
C499 C503 1.400 1_655 S
C500 H485 0.960 . S
C500 H486 0.960 1_455 S
C500 H487 0.960 . S
C500 C499 1.524 1_455 S
C501 C498 1.403 . S
C501 C502 1.392 . S
C501 C505 1.495 . S
C502 C501 1.392 . S
C502 C503 1.385 1_655 S
C502 C504 1.478 1_655 S
C503 H497 0.930 . S
C503 C499 1.400 1_455 S
C503 C502 1.385 1_455 S
C504 C502 1.478 1_455 S
C504 C506 1.381 1_455 S
C504 C510 1.383 . S
C505 C501 1.495 . S
C505 H511 0.959 . S
C505 H512 0.961 . S
C505 H513 0.960 . S
C506 C504 1.381 1_655 S
C506 C507 1.394 1_655 S
C506 H514 0.930 . S
C507 C506 1.394 1_455 S
C507 C508 1.383 . S
C507 H515 0.924 1_455 S
C508 C507 1.383 . S
C508 C509 1.377 . S
C509 H493 0.930 . S
C509 C508 1.377 . S
C509 C510 1.379 . S
C510 H494 0.931 . S
C510 C504 1.383 . S
C510 C509 1.379 . S
H511 C505 0.959 . S
H512 C505 0.961 . S
H513 C505 0.960 . S
H514 C506 0.930 . S
H515 C507 0.924 1_655 S
H516 C524 0.929 . S
H517 C526 0.944 . S
H518 C528 0.930 . S
H519 C531 0.929 . S
H520 C534 0.930 . S
H521 C536 0.960 . S
H522 C536 0.960 . S
H523 C536 0.960 . S
C524 H516 0.929 . S
C524 C525 1.377 . S
C524 C526 1.375 1_455 S
C525 C524 1.377 . S
C525 C531 1.390 . S
C526 H517 0.944 . S
C526 C524 1.375 1_655 S
C526 C527 1.367 1_655 S
C527 C526 1.367 1_455 S
C527 C528 1.400 . S
C527 C532 1.490 1_455 S
C528 H518 0.930 . S
C528 C527 1.400 . S
C528 C531 1.386 . S
H529 C545 0.930 . S
H530 C546 0.931 . S
C531 H519 0.929 . S
C531 C525 1.390 . S
C531 C528 1.386 . S
C532 C527 1.490 1_655 S
C532 C534 1.395 . S
C532 C535 1.403 1_655 S
H533 C539 0.930 1_455 S
C534 H520 0.930 . S
C534 C532 1.395 . S
C534 C537 1.403 . S
C535 C532 1.403 1_455 S
C535 C536 1.524 . S
C535 C539 1.400 1_455 S
C536 H521 0.960 . S
C536 H522 0.960 . S
C536 H523 0.960 . S
C536 C535 1.524 . S
C537 C534 1.403 . S
C537 C538 1.392 . S
C537 C541 1.495 . S
C538 C537 1.392 . S
C538 C539 1.385 . S
C538 C540 1.478 . S
C539 H533 0.930 1_655 S
C539 C535 1.400 1_655 S
C539 C538 1.385 . S
C540 C538 1.478 . S
C540 C542 1.381 . S
C540 C546 1.383 . S
C541 C537 1.495 . S
C541 H547 0.959 . S
C541 H548 0.961 . S
C541 H549 0.960 . S
C542 C540 1.381 . S
C542 C543 1.394 . S
C542 H550 0.930 . S
C543 C542 1.394 . S
C543 C544 1.383 . S
C543 H551 0.929 . S
C544 C543 1.383 . S
C544 C545 1.377 . S
C545 H529 0.930 . S
C545 C544 1.377 . S
C545 C546 1.379 . S
C546 H530 0.931 . S
C546 C540 1.383 . S
C546 C545 1.379 . S
H547 C541 0.959 . S
H548 C541 0.961 . S
H549 C541 0.960 . S
H550 C542 0.930 . S
H551 C543 0.929 . S
C129 C31 1.629 1_556 S
C148 C10 1.620 . S
C165 C70 1.628 . S
C184 C91 1.616 . S
C201 C1 1.631 . S
C220 C40 1.637 1_554 S
C237 C100 1.630 . S
C256 C61 1.636 . S
C273 C117 0.800 . S
C292 N14 0.746 . S
C309 C57 0.789 . S
C328 N74 0.836 . S
C345 N36 0.790 . S
C364 C76 0.823 . S
C381 N96 0.783 . S
C400 C16 0.772 . S
C417 N44 0.800 . S
C436 C87 0.766 . S
C453 N104 0.786 . S
C472 C27 0.785 . S
C489 C106 0.797 . S
C508 N6 0.754 . S
C525 N66 0.779 . S
C544 C46 0.783 . S
