# Generated by pormake.
# Topology gme, (4)-cn, num edge types: 1
# Building blocks:
#     Node 0, Type 0, BuildingBlock: QUQFOY_clean_sbu_3, # of connection points: 4
#     Node 1, Type 0, BuildingBlock: QUQFOY_clean_sbu_3, # of connection points: 4
#     Node 2, Type 0, BuildingBlock: QUQFOY_clean_sbu_3, # of connection points: 4
#     Node 3, Type 0, BuildingBlock: QUQFOY_clean_sbu_3, # of connection points: 4
#     Node 4, Type 0, BuildingBlock: QUQFOY_clean_sbu_3, # of connection points: 4
#     Node 5, Type 0, BuildingBlock: QUQFOY_clean_sbu_3, # of connection points: 4
#     Node 6, Type 0, BuildingBlock: QUQFOY_clean_sbu_3, # of connection points: 4
#     Node 7, Type 0, BuildingBlock: QUQFOY_clean_sbu_3, # of connection points: 4
#     Node 8, Type 0, BuildingBlock: QUQFOY_clean_sbu_3, # of connection points: 4
#     Node 9, Type 0, BuildingBlock: QUQFOY_clean_sbu_3, # of connection points: 4
#     Node 10, Type 0, BuildingBlock: QUQFOY_clean_sbu_3, # of connection points: 4
#     Node 11, Type 0, BuildingBlock: QUQFOY_clean_sbu_3, # of connection points: 4
#     Node 12, Type 0, BuildingBlock: QUQFOY_clean_sbu_3, # of connection points: 4
#     Node 13, Type 0, BuildingBlock: QUQFOY_clean_sbu_3, # of connection points: 4
#     Node 14, Type 0, BuildingBlock: QUQFOY_clean_sbu_3, # of connection points: 4
#     Node 15, Type 0, BuildingBlock: QUQFOY_clean_sbu_3, # of connection points: 4
#     Node 16, Type 0, BuildingBlock: QUQFOY_clean_sbu_3, # of connection points: 4
#     Node 17, Type 0, BuildingBlock: QUQFOY_clean_sbu_3, # of connection points: 4
#     Node 18, Type 0, BuildingBlock: QUQFOY_clean_sbu_3, # of connection points: 4
#     Node 19, Type 0, BuildingBlock: QUQFOY_clean_sbu_3, # of connection points: 4
#     Node 20, Type 0, BuildingBlock: QUQFOY_clean_sbu_3, # of connection points: 4
#     Node 21, Type 0, BuildingBlock: QUQFOY_clean_sbu_3, # of connection points: 4
#     Node 22, Type 0, BuildingBlock: QUQFOY_clean_sbu_3, # of connection points: 4
#     Node 23, Type 0, BuildingBlock: QUQFOY_clean_sbu_3, # of connection points: 4
#     Edge 24, Type (0, 0), BuildingBlock: AJUNOK_clean_linker_0, # of connection points: 2
#     Edge 25, Type (0, 0), BuildingBlock: AJUNOK_clean_linker_0, # of connection points: 2
#     Edge 26, Type (0, 0), BuildingBlock: AJUNOK_clean_linker_0, # of connection points: 2
#     Edge 27, Type (0, 0), BuildingBlock: AJUNOK_clean_linker_0, # of connection points: 2
#     Edge 28, Type (0, 0), BuildingBlock: AJUNOK_clean_linker_0, # of connection points: 2
#     Edge 29, Type (0, 0), BuildingBlock: AJUNOK_clean_linker_0, # of connection points: 2
#     Edge 30, Type (0, 0), BuildingBlock: AJUNOK_clean_linker_0, # of connection points: 2
#     Edge 31, Type (0, 0), BuildingBlock: AJUNOK_clean_linker_0, # of connection points: 2
#     Edge 32, Type (0, 0), BuildingBlock: AJUNOK_clean_linker_0, # of connection points: 2
#     Edge 33, Type (0, 0), BuildingBlock: AJUNOK_clean_linker_0, # of connection points: 2
#     Edge 34, Type (0, 0), BuildingBlock: AJUNOK_clean_linker_0, # of connection points: 2
#     Edge 35, Type (0, 0), BuildingBlock: AJUNOK_clean_linker_0, # of connection points: 2
#     Edge 36, Type (0, 0), BuildingBlock: AJUNOK_clean_linker_0, # of connection points: 2
#     Edge 37, Type (0, 0), BuildingBlock: AJUNOK_clean_linker_0, # of connection points: 2
#     Edge 38, Type (0, 0), BuildingBlock: AJUNOK_clean_linker_0, # of connection points: 2
#     Edge 39, Type (0, 0), BuildingBlock: AJUNOK_clean_linker_0, # of connection points: 2
#     Edge 40, Type (0, 0), BuildingBlock: AJUNOK_clean_linker_0, # of connection points: 2
#     Edge 41, Type (0, 0), BuildingBlock: AJUNOK_clean_linker_0, # of connection points: 2
#     Edge 42, Type (0, 0), BuildingBlock: AJUNOK_clean_linker_0, # of connection points: 2
#     Edge 43, Type (0, 0), BuildingBlock: AJUNOK_clean_linker_0, # of connection points: 2
#     Edge 44, Type (0, 0), BuildingBlock: AJUNOK_clean_linker_0, # of connection points: 2
#     Edge 45, Type (0, 0), BuildingBlock: AJUNOK_clean_linker_0, # of connection points: 2
#     Edge 46, Type (0, 0), BuildingBlock: AJUNOK_clean_linker_0, # of connection points: 2
#     Edge 47, Type (0, 0), BuildingBlock: AJUNOK_clean_linker_0, # of connection points: 2
#     Edge 48, Type (0, 0), BuildingBlock: AJUNOK_clean_linker_0, # of connection points: 2
#     Edge 49, Type (0, 0), BuildingBlock: AJUNOK_clean_linker_0, # of connection points: 2
#     Edge 50, Type (0, 0), BuildingBlock: AJUNOK_clean_linker_0, # of connection points: 2
#     Edge 51, Type (0, 0), BuildingBlock: AJUNOK_clean_linker_0, # of connection points: 2
#     Edge 52, Type (0, 0), BuildingBlock: AJUNOK_clean_linker_0, # of connection points: 2
#     Edge 53, Type (0, 0), BuildingBlock: AJUNOK_clean_linker_0, # of connection points: 2
#     Edge 54, Type (0, 0), BuildingBlock: AJUNOK_clean_linker_0, # of connection points: 2
#     Edge 55, Type (0, 0), BuildingBlock: AJUNOK_clean_linker_0, # of connection points: 2
#     Edge 56, Type (0, 0), BuildingBlock: AJUNOK_clean_linker_0, # of connection points: 2
#     Edge 57, Type (0, 0), BuildingBlock: AJUNOK_clean_linker_0, # of connection points: 2
#     Edge 58, Type (0, 0), BuildingBlock: AJUNOK_clean_linker_0, # of connection points: 2
#     Edge 59, Type (0, 0), BuildingBlock: AJUNOK_clean_linker_0, # of connection points: 2
#     Edge 60, Type (0, 0), BuildingBlock: AJUNOK_clean_linker_0, # of connection points: 2
#     Edge 61, Type (0, 0), BuildingBlock: AJUNOK_clean_linker_0, # of connection points: 2
#     Edge 62, Type (0, 0), BuildingBlock: AJUNOK_clean_linker_0, # of connection points: 2
#     Edge 63, Type (0, 0), BuildingBlock: AJUNOK_clean_linker_0, # of connection points: 2
#     Edge 64, Type (0, 0), BuildingBlock: AJUNOK_clean_linker_0, # of connection points: 2
#     Edge 65, Type (0, 0), BuildingBlock: AJUNOK_clean_linker_0, # of connection points: 2
#     Edge 66, Type (0, 0), BuildingBlock: AJUNOK_clean_linker_0, # of connection points: 2
#     Edge 67, Type (0, 0), BuildingBlock: AJUNOK_clean_linker_0, # of connection points: 2
#     Edge 68, Type (0, 0), BuildingBlock: AJUNOK_clean_linker_0, # of connection points: 2
#     Edge 69, Type (0, 0), BuildingBlock: AJUNOK_clean_linker_0, # of connection points: 2
#     Edge 70, Type (0, 0), BuildingBlock: AJUNOK_clean_linker_0, # of connection points: 2
#     Edge 71, Type (0, 0), BuildingBlock: AJUNOK_clean_linker_0, # of connection points: 2
# Relax obj value: 0.072
# Max RMSD: 0.096
# Mean RMSD: 0.096
data_MOF--net-gme--node1-QUQFOY_clean_sbu_3--edge1-AJUNOK_clean_linker_0
_symmetry_space_group_name_H-M    P1
_symmetry_Int_Tables_number       1
_symmetry_cell_setting            triclinic
loop_
_symmetry_equiv_pos_as_xyz
'x, y, z'
_cell_length_a     42.802332
_cell_length_b     42.591505
_cell_length_c     45.793662
_cell_angle_alpha  89.691236
_cell_angle_beta   90.094664
_cell_angle_gamma 120.30428
loop_
_atom_site_label
_atom_site_type_symbol
_atom_site_fract_x
_atom_site_fract_y
_atom_site_fract_z
_atom_type_partial_charge
C0 C 0.39222 0.12635 0.10322 0.0
O1 O 0.42002 0.12907 0.11563 0.0
Cd2 Cd 0.43707 0.08433 0.11981 0.0
O3 O 0.36948 0.09688 0.09053 0.0
Cd4 Cd 0.36423 0.03561 0.08242 0.0
C5 C 0.36038 0.02084 0.15656 0.0
O6 O 0.42769 0.05879 0.07293 0.0
O7 O 0.39785 0.00157 0.08196 0.0
O8 O 0.35007 0.0431 0.03185 0.0
C9 C 0.4274 0.029 0.07385 0.0
O10 O 0.39448 0.042 0.15517 0.0
C11 C 0.32553 0.01039 0.02756 0.0
O12 O 0.34035 0.01482 0.13402 0.0
O13 O 0.31639 -0.01066 0.04972 0.0
C14 C 0.25477 0.41028 0.5964 0.0
O15 O 0.28038 0.43752 0.60916 0.0
Cd16 Cd 0.34013 0.45023 0.61768 0.0
O17 O 0.25947 0.38516 0.58599 0.0
Cd18 Cd 0.31317 0.3755 0.58079 0.0
C19 C 0.32119 0.37153 0.65527 0.0
O20 O 0.3568 0.43879 0.57189 0.0
O21 O 0.38095 0.40639 0.58105 0.0
O22 O 0.29306 0.36218 0.52988 0.0
C23 C 0.38532 0.43703 0.57352 0.0
O24 O 0.3349 0.40584 0.65361 0.0
C25 C 0.29944 0.33648 0.52606 0.0
O26 O 0.30778 0.3514 0.63269 0.0
O27 O 0.30962 0.32636 0.5486 0.0
C28 C 0.8324 0.27026 0.09574 0.0
O29 O 0.83107 0.29628 0.10789 0.0
Cd30 Cd 0.87894 0.35612 0.11645 0.0
O31 O 0.8623 0.27459 0.08595 0.0
Cd32 Cd 0.92645 0.32782 0.08079 0.0
C33 C 0.93625 0.33555 0.15537 0.0
O34 O 0.90845 0.37204 0.07113 0.0
O35 O 0.96482 0.39605 0.08092 0.0
O36 O 0.91918 0.30683 0.03022 0.0
C37 C 0.93898 0.40062 0.07301 0.0
O38 O 0.91649 0.34989 0.15303 0.0
C39 C 0.95107 0.31286 0.02634 0.0
O40 O 0.94313 0.32183 0.13315 0.0
O41 O 0.97149 0.3233 0.04875 0.0
C42 C 0.55288 0.84411 0.6019 0.0
O43 O 0.52535 0.84204 0.61424 0.0
Cd44 Cd 0.51083 0.88847 0.61973 0.0
O45 O 0.57663 0.8738 0.58983 0.0
Cd46 Cd 0.5847 0.93645 0.58219 0.0
C47 C 0.58877 0.94948 0.65651 0.0
O48 O 0.52155 0.91595 0.57335 0.0
O49 O 0.55382 0.97303 0.58188 0.0
O50 O 0.59831 0.92818 0.53181 0.0
C51 C 0.52335 0.94645 0.57457 0.0
O52 O 0.55459 0.9289 0.65513 0.0
C53 C 0.62325 0.96065 0.52706 0.0
O54 O 0.60874 0.95579 0.63388 0.0
O55 O 0.63278 0.98202 0.54886 0.0
C56 C 0.69641 0.55941 0.0959 0.0
O57 O 0.67112 0.5319 0.10885 0.0
Cd58 Cd 0.61146 0.51897 0.11789 0.0
O59 O 0.69128 0.58445 0.08565 0.0
Cd60 Cd 0.63729 0.59373 0.08091 0.0
C61 C 0.63079 0.59721 0.15564 0.0
O62 O 0.59478 0.53041 0.07186 0.0
O63 O 0.56928 0.56147 0.08095 0.0
O64 O 0.65893 0.6088 0.03037 0.0
C65 C 0.56586 0.53141 0.07303 0.0
O66 O 0.61725 0.56294 0.1541 0.0
C67 C 0.65089 0.6333 0.02605 0.0
O68 O 0.64337 0.61743 0.13285 0.0
O69 O 0.63893 0.64203 0.04817 0.0
C70 C 0.11923 0.70473 0.60052 0.0
O71 O 0.12072 0.67825 0.61186 0.0
Cd72 Cd 0.07365 0.61715 0.61674 0.0
O73 O 0.08975 0.69978 0.58923 0.0
Cd74 Cd 0.02699 0.64534 0.58161 0.0
C75 C 0.01468 0.63417 0.65586 0.0
O76 O 0.04657 0.60266 0.57036 0.0
O77 O -0.00968 0.57713 0.58131 0.0
O78 O 0.03425 0.66787 0.53124 0.0
C79 C 0.01627 0.57371 0.57184 0.0
O80 O 0.03425 0.61966 0.65343 0.0
C81 C 0.00201 0.66085 0.52737 0.0
O82 O 0.00882 0.64921 0.63384 0.0
O83 O -0.01851 0.64936 0.54975 0.0
C84 C 0.83045 0.56102 0.33844 0.0
O85 O 0.82838 0.53346 0.32603 0.0
Cd86 Cd 0.87565 0.52136 0.31734 0.0
O87 O 0.86063 0.58643 0.34828 0.0
Cd88 Cd 0.92418 0.59654 0.35312 0.0
C89 C 0.934 0.59969 0.27852 0.0
O90 O 0.90397 0.53355 0.36319 0.0
O91 O 0.96045 0.5649 0.35313 0.0
O92 O 0.91677 0.61142 0.4033 0.0
C93 C 0.93404 0.53488 0.36178 0.0
O94 O 0.91366 0.56536 0.28064 0.0
C95 C 0.94929 0.63604 0.4077 0.0
O96 O 0.94139 0.62014 0.30094 0.0
O97 O 0.97039 0.64494 0.38574 0.0
C98 C 0.25764 0.84518 0.83244 0.0
O99 O 0.2836 0.84345 0.82073 0.0
Cd100 Cd 0.34469 0.89036 0.81588 0.0
O101 O 0.26308 0.87463 0.84427 0.0
Cd102 Cd 0.31712 0.93734 0.85251 0.0
C103 C 0.327 0.95052 0.77822 0.0
O104 O 0.36001 0.91756 0.86212 0.0
O105 O 0.38475 0.97461 0.8531 0.0
O106 O 0.29398 0.92781 0.90257 0.0
C107 C 0.3887 0.94818 0.8608 0.0
O108 O 0.34126 0.93061 0.78011 0.0
C109 C 0.30105 0.96004 0.90734 0.0
O110 O 0.31261 0.95631 0.80056 0.0
O111 O 0.31322 0.98186 0.88565 0.0
C112 C 0.39463 0.26425 0.33122 0.0
O113 O 0.42253 0.29008 0.31916 0.0
Cd114 Cd 0.43846 0.35183 0.31512 0.0
O115 O 0.37133 0.27017 0.34354 0.0
Cd116 Cd 0.36496 0.32551 0.35168 0.0
C117 C 0.36205 0.33694 0.27761 0.0
O118 O 0.42812 0.36719 0.36195 0.0
O119 O 0.39798 0.39363 0.35224 0.0
O120 O 0.34974 0.30212 0.40181 0.0
C121 C 0.42746 0.39648 0.36088 0.0
O122 O 0.39618 0.35082 0.27942 0.0
C123 C 0.32553 0.31034 0.40636 0.0
O124 O 0.34164 0.32211 0.29991 0.0
O125 O 0.31707 0.32319 0.38451 0.0
C126 C 0.11681 0.40304 0.82904 0.0
O127 O 0.11991 0.4314 0.81703 0.0
Cd128 Cd 0.0757 0.44906 0.81381 0.0
O129 O 0.08764 0.38038 0.84217 0.0
Cd130 Cd 0.02708 0.37552 0.85114 0.0
C131 C 0.01299 0.37246 0.77689 0.0
O132 O 0.05018 0.43926 0.86085 0.0
O133 O -0.00674 0.40917 0.85194 0.0
O134 O 0.03526 0.36071 0.90132 0.0
C135 C 0.02044 0.43879 0.86016 0.0
O136 O 0.03385 0.40674 0.77836 0.0
C137 C 0.00261 0.33663 0.90625 0.0
O138 O 0.00687 0.35211 0.79941 0.0
O139 O -0.01887 0.32796 0.88457 0.0
C140 C 0.69365 0.13069 0.33293 0.0
O141 O 0.6678 0.1326 0.3211 0.0
Cd142 Cd 0.60681 0.08596 0.31546 0.0
O143 O 0.68811 0.10097 0.34459 0.0
Cd144 Cd 0.63371 0.03812 0.35225 0.0
C145 C 0.62474 0.02644 0.27778 0.0
O146 O 0.59074 0.05784 0.36156 0.0
O147 O 0.56608 0.00098 0.35233 0.0
O148 O 0.65485 0.04537 0.4029 0.0
C149 C 0.56205 0.02727 0.36003 0.0
O150 O 0.61068 0.04651 0.2795 0.0
C151 C 0.64818 0.01309 0.40695 0.0
O152 O 0.63862 0.02004 0.30026 0.0
O153 O 0.6374 -0.00746 0.38463 0.0
C154 C 0.55032 0.70645 0.83403 0.0
O155 O 0.52264 0.68038 0.82209 0.0
Cd156 Cd 0.50788 0.61933 0.81641 0.0
O157 O 0.57457 0.70117 0.84549 0.0
Cd158 Cd 0.58243 0.6463 0.85248 0.0
C159 C 0.58463 0.63646 0.77807 0.0
O160 O 0.51954 0.60398 0.86284 0.0
O161 O 0.54992 0.57802 0.8529 0.0
O162 O 0.59753 0.66738 0.90312 0.0
C163 C 0.52031 0.5748 0.86156 0.0
O164 O 0.5505 0.62237 0.78015 0.0
C165 C 0.62254 0.66003 0.90673 0.0
O166 O 0.60518 0.65074 0.80032 0.0
O167 O 0.63151 0.64902 0.88416 0.0
C168 C 0.55141 0.84432 0.83407 0.0
O169 O 0.52402 0.84299 0.82205 0.0
Cd170 Cd 0.51085 0.89023 0.81581 0.0
O171 O 0.576 0.87389 0.84549 0.0
Cd172 Cd 0.5853 0.93712 0.85262 0.0
C173 C 0.58901 0.9501 0.77824 0.0
O174 O 0.52252 0.91746 0.86201 0.0
O175 O 0.55502 0.97439 0.85264 0.0
O176 O 0.59903 0.92873 0.90306 0.0
C177 C 0.52458 0.94806 0.86051 0.0
O178 O 0.55478 0.93003 0.77994 0.0
C179 C 0.62412 0.96114 0.90753 0.0
O180 O 0.60911 0.95611 0.80074 0.0
O181 O 0.63375 0.98246 0.88552 0.0
C182 C 0.69452 0.56019 0.33849 0.0
O183 O 0.66906 0.53245 0.32611 0.0
Cd184 Cd 0.60951 0.51975 0.31698 0.0
O185 O 0.6896 0.58548 0.34815 0.0
Cd186 Cd 0.63585 0.5951 0.35263 0.0
C187 C 0.6297 0.59784 0.27781 0.0
O188 O 0.59316 0.53201 0.36264 0.0
O189 O 0.56782 0.56303 0.35242 0.0
O190 O 0.65804 0.61047 0.40291 0.0
C191 C 0.5643 0.53308 0.36108 0.0
O192 O 0.61585 0.56355 0.27995 0.0
C193 C 0.64992 0.63488 0.40706 0.0
O194 O 0.64237 0.61832 0.30028 0.0
O195 O 0.63764 0.64346 0.38493 0.0
C196 C 0.12114 0.70745 0.8322 0.0
O197 O 0.12333 0.68166 0.82051 0.0
Cd198 Cd 0.07752 0.61994 0.8163 0.0
O199 O 0.09166 0.70151 0.84413 0.0
Cd200 Cd 0.02957 0.64645 0.85246 0.0
C201 C 0.01636 0.63522 0.77824 0.0
O202 O 0.05101 0.60493 0.86293 0.0
O203 O -0.00579 0.57834 0.85397 0.0
O204 O 0.03767 0.67002 0.90233 0.0
C205 C 0.02104 0.57555 0.86214 0.0
O206 O 0.03678 0.62161 0.78037 0.0
C207 C 0.00523 0.662 0.9068 0.0
O208 O 0.01024 0.64969 0.80037 0.0
O209 O -0.01605 0.64909 0.88501 0.0
C210 C 0.39423 0.12732 0.33118 0.0
O211 O 0.42196 0.12967 0.31898 0.0
Cd212 Cd 0.43752 0.08383 0.31448 0.0
O213 O 0.37086 0.09773 0.34359 0.0
Cd214 Cd 0.36387 0.03569 0.35202 0.0
C215 C 0.36009 0.02129 0.27802 0.0
O216 O 0.42719 0.05681 0.36103 0.0
O217 O 0.39522 -0.00034 0.35264 0.0
O218 O 0.35019 0.04422 0.40228 0.0
C219 C 0.4256 0.0264 0.35991 0.0
O220 O 0.39422 0.04221 0.27942 0.0
C221 C 0.32534 0.01174 0.40713 0.0
O222 O 0.33997 0.01531 0.30049 0.0
O223 O 0.31591 -0.00978 0.38544 0.0
C224 C 0.25162 0.40254 0.82919 0.0
O225 O 0.27706 0.43078 0.81712 0.0
Cd226 Cd 0.3389 0.44816 0.81381 0.0
O227 O 0.25789 0.37979 0.84239 0.0
Cd228 Cd 0.31349 0.37463 0.85125 0.0
C229 C 0.32382 0.37131 0.77695 0.0
O230 O 0.35469 0.43824 0.86081 0.0
O231 O 0.3812 0.40806 0.85164 0.0
O232 O 0.29194 0.3605 0.90184 0.0
C233 C 0.3839 0.43769 0.85996 0.0
O234 O 0.33768 0.40564 0.77834 0.0
C235 C 0.29954 0.33569 0.90632 0.0
O236 O 0.30957 0.3511 0.79953 0.0
O237 O 0.31098 0.32633 0.88423 0.0
C238 C 0.83146 0.26761 0.33233 0.0
O239 O 0.83014 0.29389 0.32039 0.0
Cd240 Cd 0.8774 0.35487 0.31549 0.0
O241 O 0.86074 0.27271 0.34414 0.0
Cd242 Cd 0.92356 0.32686 0.35189 0.0
C243 C 0.93648 0.3368 0.27764 0.0
O244 O 0.9034 0.36923 0.36229 0.0
O245 O 0.96 0.39516 0.35259 0.0
O246 O 0.915 0.30295 0.40187 0.0
C247 C 0.93362 0.39831 0.36134 0.0
O248 O 0.91701 0.35148 0.27948 0.0
C249 C 0.94734 0.31073 0.40647 0.0
O250 O 0.94213 0.32216 0.30004 0.0
O251 O 0.96874 0.32356 0.38469 0.0
C252 C 0.11905 0.41041 0.59614 0.0
O253 O 0.12083 0.43781 0.60859 0.0
Cd254 Cd 0.07357 0.4502 0.6164 0.0
O255 O 0.08905 0.38515 0.5859 0.0
Cd256 Cd 0.02571 0.37567 0.58066 0.0
C257 C 0.01407 0.37247 0.65502 0.0
O258 O 0.04582 0.43867 0.57027 0.0
O259 O -0.01054 0.40723 0.58084 0.0
O260 O 0.03216 0.36126 0.53006 0.0
C261 C 0.01567 0.43716 0.57178 0.0
O262 O 0.03456 0.40677 0.65298 0.0
C263 C -0.00025 0.33603 0.52622 0.0
O264 O 0.00733 0.35201 0.63268 0.0
O265 O -0.02062 0.32654 0.54867 0.0
C266 C 0.6952 0.13422 0.09635 0.0
O267 O 0.66992 0.13627 0.109 0.0
Cd268 Cd 0.60983 0.08921 0.11759 0.0
O269 O 0.68985 0.10399 0.0862 0.0
Cd270 Cd 0.63542 0.04036 0.08128 0.0
C271 C 0.62737 0.02917 0.15584 0.0
O272 O 0.59336 0.06109 0.0717 0.0
O273 O 0.56738 0.00413 0.08114 0.0
O274 O 0.65641 0.04674 0.03061 0.0
C275 C 0.56426 0.03093 0.07303 0.0
O276 O 0.61423 0.05006 0.15399 0.0
C277 C 0.64909 0.01423 0.02701 0.0
O278 O 0.64034 0.02195 0.13332 0.0
O279 O 0.63788 -0.00617 0.04957 0.0
C280 C 0.55174 0.70665 0.60047 0.0
O281 O 0.52372 0.68054 0.61219 0.0
Cd282 Cd 0.50823 0.61902 0.61743 0.0
O283 O 0.57568 0.70121 0.58875 0.0
Cd284 Cd 0.58317 0.64644 0.5812 0.0
C285 C 0.58505 0.63616 0.65576 0.0
O286 O 0.5203 0.60306 0.57158 0.0
O287 O 0.55215 0.57852 0.58156 0.0
O288 O 0.59689 0.66726 0.53029 0.0
C289 C 0.52193 0.57431 0.57348 0.0
O290 O 0.55089 0.62195 0.65366 0.0
C291 C 0.62252 0.66089 0.5265 0.0
O292 O 0.60568 0.65065 0.63349 0.0
O293 O 0.63242 0.65053 0.54907 0.0
C294 C 0.83266 0.56069 0.0955 0.0
O295 O 0.83091 0.53318 0.108 0.0
Cd296 Cd 0.87849 0.52159 0.11742 0.0
O297 O 0.86278 0.58649 0.08575 0.0
Cd298 Cd 0.92668 0.59744 0.08137 0.0
C299 C 0.9354 0.6 0.15613 0.0
O300 O 0.90826 0.53479 0.07218 0.0
O301 O 0.96452 0.5676 0.08255 0.0
O302 O 0.92017 0.61109 0.03045 0.0
C303 C 0.93873 0.53704 0.07435 0.0
O304 O 0.91556 0.56563 0.15409 0.0
C305 C 0.95235 0.63687 0.02653 0.0
O306 O 0.94277 0.6206 0.1336 0.0
O307 O 0.97256 0.64701 0.04907 0.0
C308 C 0.25622 0.84286 0.6016 0.0
O309 O 0.2822 0.84145 0.61372 0.0
Cd310 Cd 0.34299 0.88854 0.61928 0.0
O311 O 0.26148 0.87242 0.5898 0.0
Cd312 Cd 0.31564 0.93555 0.58213 0.0
C313 C 0.32561 0.94888 0.65631 0.0
O314 O 0.35859 0.91579 0.57286 0.0
O315 O 0.38336 0.97276 0.5816 0.0
O316 O 0.29415 0.92788 0.53158 0.0
C317 C 0.38731 0.94635 0.57409 0.0
O318 O 0.33966 0.92878 0.65472 0.0
C319 C 0.30077 0.96013 0.52739 0.0
O320 O 0.31129 0.95471 0.63384 0.0
O321 O 0.31172 0.98086 0.5496 0.0
C322 C 0.39249 0.26291 0.10291 0.0
O323 O 0.42055 0.28831 0.115 0.0
Cd324 Cd 0.43808 0.35047 0.11867 0.0
O325 O 0.36969 0.26945 0.0903 0.0
Cd326 Cd 0.36438 0.32535 0.08159 0.0
C327 C 0.36169 0.33662 0.1557 0.0
O328 O 0.42779 0.36601 0.07178 0.0
O329 O 0.39845 0.3935 0.08017 0.0
O330 O 0.34931 0.30196 0.03166 0.0
C331 C 0.4279 0.3957 0.07235 0.0
O332 O 0.39574 0.34981 0.15398 0.0
C333 C 0.32538 0.31051 0.02674 0.0
O334 O 0.34126 0.32233 0.13339 0.0
O335 O 0.31702 0.32365 0.04829 0.0
C336 C 0.32807 0.02221 0.23253 0.0
C337 C 0.34525 0.00691 0.24863 0.0
C338 C 0.32814 0.02206 0.20166 0.0
C339 C 0.34539 0.00663 0.18604 0.0
H340 H 0.31817 0.03787 0.24365 0.0
H341 H 0.31828 0.03762 0.19013 0.0
S342 S 0.38882 0.95805 0.21805 0.0
N343 N 0.37554 0.97183 0.24663 0.0
N344 N 0.3757 0.9716 0.18905 0.0
C345 C 0.35903 -0.0121 0.20199 0.0
C346 C 0.35895 -0.01197 0.23319 0.0
C347 C 0.28818 0.34018 0.70116 0.0
C348 C 0.32047 0.35658 0.68478 0.0
C349 C 0.28889 0.34002 0.73202 0.0
C350 C 0.32192 0.35633 0.74738 0.0
H351 H 0.26254 0.33102 0.69026 0.0
H352 H 0.26376 0.33077 0.74378 0.0
S353 S 0.41341 0.39775 0.71457 0.0
N354 N 0.38585 0.38528 0.68622 0.0
N355 N 0.38718 0.3851 0.74379 0.0
C356 C 0.35395 0.36929 0.73114 0.0
C357 C 0.35322 0.36939 0.69994 0.0
C358 C 0.96708 0.3672 0.20089 0.0
C359 C 0.94915 0.33439 0.18526 0.0
C360 C 0.96716 0.36754 0.23154 0.0
C361 C 0.94935 0.3351 0.2479 0.0
H362 H -0.02187 0.39292 0.18936 0.0
H363 H -0.02174 0.39351 0.24248 0.0
S364 S 0.90205 0.24184 0.21762 0.0
N365 N 0.91624 0.26851 0.18845 0.0
N366 N 0.91645 0.26914 0.24618 0.0
C367 C 0.93446 0.30204 0.23264 0.0
C368 C 0.93434 0.30169 0.20126 0.0
C369 C 0.61978 0.94672 0.70202 0.0
C370 C 0.60382 0.96331 0.68597 0.0
C371 C 0.61983 0.94687 0.73289 0.0
C372 C 0.6039 0.96359 0.74859 0.0
H373 H 0.62865 0.93022 0.69085 0.0
H374 H 0.62874 0.93047 0.74438 0.0
S375 S 0.56373 0.01535 0.71675 0.0
N376 N 0.57591 0.0006 0.68811 0.0
N377 N 0.57599 0.00087 0.74569 0.0
C378 C 0.59141 0.98338 0.73269 0.0
C379 C 0.59136 0.98323 0.70148 0.0
C380 C 0.66453 0.62755 0.23216 0.0
C381 C 0.63176 0.61238 0.24788 0.0
C382 C 0.66481 0.62738 0.20129 0.0
C383 C 0.63233 0.61204 0.18522 0.0
H384 H 0.68966 0.63607 0.24368 0.0
H385 H 0.69015 0.63577 0.19014 0.0
S386 S 0.54007 0.57347 0.21599 0.0
N387 N 0.56664 0.58543 0.24494 0.0
N388 N 0.56717 0.58512 0.18735 0.0
C389 C 0.59993 0.60011 0.20072 0.0
C390 C 0.59965 0.60027 0.23194 0.0
C391 C -0.01447 0.60262 0.70216 0.0
C392 C 0.00193 0.63515 0.68584 0.0
C393 C -0.0141 0.60287 0.73281 0.0
C394 C 0.00269 0.63567 0.74849 0.0
H395 H 0.97538 0.57679 0.69116 0.0
H396 H -0.02394 0.57724 0.74427 0.0
S397 S 0.04567 0.72825 0.71628 0.0
N398 N 0.03211 0.70101 0.68768 0.0
N399 N 0.03283 0.70149 0.74541 0.0
C400 C 0.01594 0.6683 0.73255 0.0
C401 C 0.01555 0.66804 0.70117 0.0
C402 C 0.9657 0.60018 0.20231 0.0
C403 C 0.94771 0.61439 0.18601 0.0
C404 C 0.96535 0.6001 0.23298 0.0
C405 C 0.947 0.61423 0.24867 0.0
H406 H -0.0228 0.58587 0.1913 0.0
H407 H -0.02342 0.58572 0.24444 0.0
S408 S 0.89902 0.65818 0.2165 0.0
N409 N 0.91397 0.6461 0.18788 0.0
N410 N 0.9133 0.64594 0.24561 0.0
C411 C 0.93187 0.63165 0.23274 0.0
C412 C 0.93224 0.63174 0.20136 0.0
C413 C 0.35768 0.98125 0.73215 0.0
C414 C 0.32539 0.96359 0.74843 0.0
C415 C 0.35732 0.98078 0.7015 0.0
C416 C 0.32466 0.96265 0.68582 0.0
H417 H 0.38351 -0.00764 0.74319 0.0
H418 H 0.3829 -0.00843 0.69008 0.0
S419 S 0.23258 0.91611 0.71792 0.0
N420 N 0.25977 0.93081 0.74654 0.0
N421 N 0.2591 0.92995 0.68882 0.0
C422 C 0.29214 0.94817 0.7017 0.0
C423 C 0.2925 0.94865 0.73306 0.0
C424 C 0.36358 0.36884 0.23176 0.0
C425 C 0.3476 0.3362 0.24794 0.0
C426 C 0.36343 0.36877 0.20111 0.0
C427 C 0.3473 0.33605 0.18531 0.0
H428 H 0.37946 0.39459 0.24284 0.0
H429 H 0.37923 0.39446 0.18973 0.0
S430 S 0.29777 0.24328 0.21717 0.0
N431 N 0.31173 0.27035 0.24588 0.0
N432 N 0.31148 0.27021 0.18815 0.0
C433 C 0.32793 0.30333 0.20113 0.0
C434 C 0.32807 0.30341 0.23251 0.0
C435 C 0.01584 0.34103 0.70088 0.0
C436 C 0.00027 0.3579 0.6847 0.0
C437 C 0.0154 0.3409 0.73175 0.0
C438 C -0.00058 0.35767 0.74733 0.0
H439 H 0.03175 0.33141 0.6898 0.0
H440 H 0.03105 0.33123 0.74334 0.0
S441 S 0.95035 0.40042 0.71511 0.0
N442 N 0.96464 0.38757 0.68659 0.0
N443 N 0.9639 0.3874 0.74417 0.0
C444 C -0.01936 0.37114 0.7313 0.0
C445 C -0.01894 0.37124 0.70009 0.0
C446 C 0.6596 0.03067 0.23264 0.0
C447 C 0.62658 0.01365 0.24808 0.0
C448 C 0.66028 0.03145 0.20177 0.0
C449 C 0.62796 0.01518 0.18547 0.0
H450 H 0.68476 0.04677 0.24434 0.0
H451 H 0.68594 0.0481 0.1908 0.0
S452 S 0.53502 0.96272 0.2155 0.0
N453 N 0.56128 0.97659 0.24466 0.0
N454 N 0.56255 0.97799 0.18708 0.0
C455 C 0.5952 -0.00495 0.20072 0.0
C456 C 0.59451 -0.00572 0.23192 0.0
C457 C 0.5836 0.60469 0.70183 0.0
C458 C 0.5992 0.6373 0.68563 0.0
C459 C 0.58344 0.60477 0.73249 0.0
C460 C 0.59889 0.63746 0.7483 0.0
H461 H 0.56829 0.57887 0.69074 0.0
H462 H 0.56803 0.579 0.74386 0.0
S463 S 0.64694 0.73028 0.71643 0.0
N464 N 0.63375 0.70321 0.68773 0.0
N465 N 0.63348 0.70335 0.74546 0.0
C466 C 0.61776 0.67025 0.73248 0.0
C467 C 0.61791 0.67017 0.7011 0.0
C468 C 0.40605 0.18512 0.12531 0.0
C469 C 0.38733 0.15848 0.10395 0.0
C470 C 0.4061 0.21788 0.12525 0.0
C471 C 0.38742 0.22575 0.10383 0.0
H472 H 0.42161 0.18106 0.14205 0.0
H473 H 0.4217 0.2376 0.14194 0.0
S474 S 0.33175 0.1642 0.04413 0.0
N475 N 0.34762 0.14116 0.06166 0.0
N476 N 0.34772 0.20322 0.06155 0.0
C477 C 0.36698 0.19872 0.0831 0.0
C478 C 0.36694 0.16501 0.08316 0.0
C479 C 0.15346 0.3766 0.59365 0.0
C480 C 0.15306 0.40948 0.59284 0.0
C481 C 0.18642 0.37656 0.59369 0.0
C482 C 0.21986 0.40941 0.59293 0.0
H483 H 0.1283 0.35091 0.59539 0.0
H484 H 0.18573 0.35085 0.59548 0.0
S485 S 0.23313 0.50223 0.58529 0.0
N486 N 0.18889 0.47524 0.58747 0.0
N487 N 0.25019 0.47517 0.58757 0.0
C488 C 0.21953 0.44216 0.5903 0.0
C489 C 0.18631 0.44219 0.59025 0.0
C490 C 0.79686 0.20159 0.09379 0.0
C491 C 0.79803 0.23523 0.0924 0.0
C492 C 0.76353 0.16853 0.09394 0.0
C493 C 0.73049 0.16824 0.0927 0.0
H494 H 0.82169 0.20085 0.09595 0.0
H495 H 0.76359 0.14323 0.0962 0.0
S496 S 0.71932 0.2487 0.08341 0.0
N497 N 0.76342 0.26579 0.08594 0.0
N498 N 0.70139 0.20426 0.08623 0.0
C499 C 0.73161 0.20165 0.08945 0.0
C500 C 0.76521 0.23498 0.0893 0.0
C501 C 0.53374 0.74936 0.62055 0.0
C502 C 0.55569 0.74341 0.60117 0.0
C503 C 0.53404 0.78225 0.62092 0.0
C504 C 0.55629 0.81103 0.60192 0.0
H505 H 0.51563 0.72823 0.63554 0.0
H506 H 0.51613 0.7848 0.63617 0.0
S507 S 0.62047 0.81046 0.54776 0.0
N508 N 0.60162 0.76975 0.56314 0.0
N509 N 0.60217 0.83201 0.56381 0.0
C510 C 0.57943 0.80614 0.58301 0.0
C511 C 0.57913 0.77229 0.58264 0.0
C512 C 0.76473 0.59376 0.09321 0.0
C513 C 0.73147 0.56077 0.09209 0.0
C514 C 0.79784 0.59406 0.09311 0.0
C515 C 0.79856 0.56138 0.09187 0.0
H516 H 0.76513 0.61927 0.09541 0.0
H517 H 0.82284 0.6198 0.09524 0.0
S518 S 0.71914 0.46858 0.08316 0.0
N519 N 0.70168 0.49524 0.08584 0.0
N520 N 0.76331 0.49579 0.08562 0.0
C521 C 0.76552 0.52859 0.08882 0.0
C522 C 0.73214 0.52829 0.08894 0.0
C523 C 0.21652 0.7775 0.6145 0.0
C524 C 0.22008 0.809 0.60119 0.0
C525 C 0.18388 0.74457 0.61423 0.0
C526 C 0.1528 0.74116 0.60063 0.0
H527 H 0.2393 0.77791 0.62523 0.0
H528 H 0.18334 0.72148 0.62477 0.0
S529 S 0.14677 0.81554 0.56327 0.0
N530 N 0.18919 0.83498 0.57446 0.0
N531 N 0.12735 0.77262 0.57395 0.0
C532 C 0.15553 0.77247 0.58751 0.0
C533 C 0.18918 0.80641 0.58778 0.0
C534 C 0.79592 0.59467 0.34017 0.0
C535 C 0.79655 0.56198 0.34221 0.0
C536 C 0.76285 0.59447 0.34021 0.0
C537 C 0.72959 0.56157 0.34229 0.0
H538 H 0.82091 0.62029 0.33729 0.0
H539 H 0.76327 0.61994 0.33734 0.0
S540 S 0.71724 0.46959 0.35363 0.0
N541 N 0.76136 0.49662 0.35027 0.0
N542 N 0.69981 0.49625 0.35035 0.0
C543 C 0.73024 0.52915 0.34628 0.0
C544 C 0.76356 0.52935 0.34623 0.0
C545 C 0.18252 0.75069 0.81288 0.0
C546 C 0.15392 0.74433 0.83168 0.0
C547 C 0.2152 0.78361 0.81298 0.0
C548 C 0.2211 0.81203 0.83187 0.0
H549 H 0.18 0.72981 0.79804 0.0
H550 H 0.23623 0.78648 0.79819 0.0
S551 S 0.15437 0.81044 0.88445 0.0
N552 N 0.13299 0.76997 0.86897 0.0
N553 N 0.19486 0.83233 0.86913 0.0
C554 C 0.19237 0.80678 0.85014 0.0
C555 C 0.15874 0.77288 0.85005 0.0
C556 C 0.41076 0.18779 0.31033 0.0
C557 C 0.39012 0.15997 0.33058 0.0
C558 C 0.41083 0.22057 0.31033 0.0
C559 C 0.39028 0.22734 0.33058 0.0
H560 H 0.42766 0.18458 0.29444 0.0
H561 H 0.42779 0.24107 0.29444 0.0
S562 S 0.32969 0.16276 0.38729 0.0
N563 N 0.347 0.1406 0.37071 0.0
N564 N 0.34715 0.20267 0.37071 0.0
C565 C 0.36824 0.19929 0.35029 0.0
C566 C 0.36816 0.16556 0.3503 0.0
C567 C 0.19026 0.38214 0.85107 0.0
C568 C 0.21458 0.3969 0.82746 0.0
C569 C 0.15739 0.38226 0.85103 0.0
C570 C 0.14802 0.39715 0.82738 0.0
H571 H 0.19748 0.37219 0.87025 0.0
H572 H 0.1402 0.37241 0.87019 0.0
S573 S 0.19909 0.43235 0.75804 0.0
N574 N 0.22454 0.4219 0.77825 0.0
N575 N 0.16324 0.42214 0.77819 0.0
C576 C 0.17091 0.4094 0.80286 0.0
C577 C 0.20408 0.40927 0.80289 0.0
C578 C 0.73533 0.19399 0.31587 0.0
C579 C 0.73018 0.16397 0.33266 0.0
C580 C 0.76824 0.22665 0.31568 0.0
C581 C 0.79794 0.23121 0.33229 0.0
H582 H 0.71359 0.1926 0.30274 0.0
H583 H 0.7701 0.24868 0.30243 0.0
S584 S 0.79963 0.16068 0.37918 0.0
N585 N 0.75818 0.14042 0.36572 0.0
N586 N 0.82051 0.20229 0.36539 0.0
C587 C 0.79373 0.20122 0.3487 0.0
C588 C 0.75982 0.16757 0.34888 0.0
C589 C 0.52394 0.7456 0.82319 0.0
C590 C 0.5529 0.74268 0.83465 0.0
C591 C 0.52417 0.77843 0.82322 0.0
C592 C 0.5534 0.81037 0.83471 0.0
H593 H 0.50039 0.7222 0.81406 0.0
H594 H 0.50081 0.77844 0.81411 0.0
S595 S 0.6366 0.81814 0.86716 0.0
N596 N 0.61215 0.77495 0.85773 0.0
N597 N 0.61261 0.83717 0.85778 0.0
C598 C 0.58283 0.80819 0.84625 0.0
C599 C 0.58258 0.77433 0.84622 0.0
C600 C 0.31955 0.00972 0.94446 0.0
C601 C 0.30017 0.97244 0.93769 0.0
C602 C 0.32555 0.02176 -0.02642 0.0
C603 C 0.31233 -0.0029 -0.0027 0.0
H604 H 0.33201 0.0298 0.92721 0.0
H605 H 0.34225 0.05068 -0.02254 0.0
S606 S 0.25494 0.89676 -0.0086 0.0
N607 N 0.26405 0.91106 0.95722 0.0
N608 N 0.27528 0.93366 0.01171 0.0
C609 C 0.29054 0.95989 -0.00921 0.0
C610 C 0.28451 0.9476 0.96111 0.0
C611 C 0.29523 0.33018 0.44297 0.0
C612 C 0.31213 0.30997 0.43661 0.0
C613 C 0.28914 0.33658 0.47195 0.0
C614 C 0.29951 0.32294 0.49595 0.0
H615 H 0.28845 0.34296 0.42551 0.0
H616 H 0.27773 0.35389 0.47551 0.0
S617 S 0.33965 0.26357 0.49116 0.0
N618 N 0.33533 0.27276 0.45682 0.0
N619 N 0.32385 0.28473 0.51106 0.0
C620 C 0.31391 0.30038 0.48985 0.0
C621 C 0.32024 0.29395 0.4603 0.0
C622 C 0.95251 0.30697 0.94334 0.0
C623 C -0.01037 0.32371 0.93669 0.0
C624 C 0.94019 0.30145 -0.02758 0.0
C625 C 0.96438 0.31225 -0.00376 0.0
H626 H 0.93286 0.2999 0.92601 0.0
H627 H 0.9115 0.29015 -0.02382 0.0
S628 S 0.06388 0.35216 -0.00923 0.0
N629 N 0.05017 0.3472 0.95651 0.0
N630 N 0.02702 0.33679 0.01094 0.0
C631 C 0.0013 0.32647 -0.0101 0.0
C632 C 0.01389 0.33221 0.96025 0.0
C633 C 0.65942 0.02368 0.46093 0.0
C634 C 0.64843 -0.00053 0.43713 0.0
C635 C 0.65361 0.01114 0.49002 0.0
C636 C 0.63637 0.97377 0.49668 0.0
H637 H 0.6711 0.0526 0.45714 0.0
H638 H 0.66085 0.03084 0.50734 0.0
S639 S 0.60726 0.89925 0.4427 0.0
N640 N 0.62318 0.93645 0.4225 0.0
N641 N 0.6122 0.91291 0.47694 0.0
C642 C 0.62765 0.94944 0.47317 0.0
C643 C 0.6337 0.96225 0.44351 0.0
C644 C 0.6305 0.66398 -0.01019 0.0
C645 C 0.65055 0.64677 -0.00416 0.0
C646 C 0.62358 0.67024 0.96093 0.0
C647 C 0.63651 0.65974 0.93671 0.0
H648 H 0.61828 0.67089 0.00747 0.0
H649 H 0.60645 0.6819 0.95764 0.0
S650 S 0.6951 0.61872 0.94055 0.0
N651 N 0.68676 0.62308 -0.02498 0.0
N652 N 0.67383 0.63488 0.921 0.0
C653 C 0.65886 0.64498 0.94246 0.0
C654 C 0.66582 0.63849 -0.02811 0.0
C655 C 0.01241 0.67211 0.47329 0.0
C656 C -0.01157 0.66133 0.49729 0.0
C657 C -0.0002 0.66631 0.44429 0.0
C658 C 0.9626 0.64932 0.43793 0.0
H659 H 0.04116 0.68354 0.47684 0.0
H660 H 0.01929 0.67332 0.42682 0.0
S661 S 0.88883 0.62099 0.49251 0.0
N662 N 0.92589 0.63666 0.51241 0.0
N663 N 0.90223 0.62574 0.45816 0.0
C664 C 0.93856 0.64089 0.46164 0.0
C665 C 0.95143 0.64691 0.49119 0.0
C666 C 0.65481 0.01173 0.94402 0.0
C667 C 0.63721 0.97431 0.93782 0.0
C668 C 0.66058 0.02443 -0.02704 0.0
C669 C 0.64921 0.00032 -0.00294 0.0
H670 H 0.66235 0.03138 0.92645 0.0
H671 H 0.67256 0.0534 -0.02363 0.0
S672 S 0.60698 0.89997 -0.00724 0.0
N673 N 0.61227 0.91347 0.95834 0.0
N674 N 0.62319 0.9373 0.01249 0.0
C675 C 0.63411 0.96302 -0.00885 0.0
C676 C 0.62809 0.95005 0.96165 0.0
C677 C 0.62915 0.66483 0.44333 0.0
C678 C 0.64982 0.64837 0.43718 0.0
C679 C 0.62245 0.67089 0.47225 0.0
C680 C 0.63623 0.66094 0.49639 0.0
H681 H 0.61628 0.67123 0.42576 0.0
H682 H 0.60482 0.68192 0.47565 0.0
S683 S 0.69668 0.62213 0.49213 0.0
N684 N 0.68752 0.62608 0.45773 0.0
N685 N 0.67501 0.63753 0.51182 0.0
C686 C 0.65919 0.64701 0.49048 0.0
C687 C 0.66592 0.6407 0.46101 0.0
C688 C 0.94223 0.63664 -0.02763 0.0
C689 C 0.96619 0.65031 -0.00368 0.0
C690 C 0.95488 0.64275 0.94337 0.0
C691 C -0.00788 0.66269 0.93694 0.0
H692 H 0.9134 0.6195 -0.02399 0.0
H693 H 0.93533 0.62994 0.92599 0.0
S694 S 0.06603 0.70912 -0.00874 0.0
N695 N 0.02887 0.68831 0.01125 0.0
N696 N 0.05263 0.69974 0.95698 0.0
C697 C 0.01623 0.67878 0.96055 0.0
C698 C 0.0033 0.67265 -0.00989 0.0
C699 C 0.28937 0.94913 0.47348 0.0
C700 C 0.30034 0.97351 0.49717 0.0
C701 C 0.29509 0.96148 0.44434 0.0
C702 C 0.31223 -0.0012 0.43753 0.0
H703 H 0.2778 0.92026 0.47739 0.0
H704 H 0.2879 0.94167 0.42711 0.0
S705 S 0.34112 0.07364 0.49116 0.0
N706 N 0.32536 0.03659 0.51152 0.0
N707 N 0.33619 0.05977 0.45699 0.0
C708 C 0.32088 0.02328 0.46093 0.0
C709 C 0.31491 0.01067 0.49063 0.0
C710 C 0.29529 0.33023 -0.01049 0.0
C711 C 0.31212 0.31001 -0.00362 0.0
C712 C 0.28923 0.33636 0.96035 0.0
C713 C 0.2996 0.32247 0.93669 0.0
H714 H 0.28853 0.34318 0.00668 0.0
H715 H 0.27787 0.35367 0.95639 0.0
S716 S 0.33949 0.26293 0.9429 0.0
N717 N 0.33519 0.27249 -0.02297 0.0
N718 N 0.32381 0.284 0.92249 0.0
C719 C 0.31395 0.29993 0.94333 0.0
C720 C 0.32021 0.29374 -0.02696 0.0
C721 C 0.01003 0.33582 0.47215 0.0
C722 C -0.01404 0.32251 0.49611 0.0
C723 C -0.00251 0.32965 0.44315 0.0
C724 C 0.96026 0.30999 0.43672 0.0
H725 H 0.03887 0.35275 0.47576 0.0
H726 H 0.01713 0.3422 0.42572 0.0
S727 S 0.88605 0.26447 0.49115 0.0
N728 N 0.92315 0.28511 0.51112 0.0
N729 N 0.8996 0.27353 0.45683 0.0
C730 C 0.93602 0.29422 0.46037 0.0
C731 C 0.94883 0.30044 0.48995 0.0
C732 C 0.46387 -0.00176 0.08143 0.0
C733 C 0.46145 0.02807 0.07089 0.0
C734 C 0.49695 -0.00131 0.08123 0.0
C735 C 0.52875 0.02898 0.07048 0.0
H736 H 0.44034 0.97484 0.09073 0.0
H737 H 0.49778 0.97563 0.09039 0.0
S738 S 0.53588 0.11206 0.03711 0.0
N739 N 0.49309 0.08731 0.04704 0.0
N740 N 0.55491 0.08816 0.04664 0.0
C741 C 0.52624 0.0582 0.05863 0.0
C742 C 0.49271 0.05775 0.05885 0.0
C743 C 0.45607 0.53624 0.56295 0.0
C744 C 0.48853 0.53812 0.57158 0.0
C745 C 0.42328 0.50328 0.56298 0.0
C746 C 0.42135 0.47059 0.57162 0.0
H747 H 0.45573 0.56059 0.55657 0.0
H748 H 0.39909 0.50367 0.5566 0.0
S749 S 0.49883 0.46006 0.59448 0.0
N750 N 0.51705 0.504 0.5877 0.0
N751 N 0.45515 0.4418 0.58774 0.0
C752 C 0.45374 0.47171 0.57937 0.0
C753 C 0.48736 0.5055 0.57935 0.0
C754 C 0.91168 0.43882 0.06186 0.0
C755 C 0.94192 0.43682 0.0713 0.0
C756 C 0.91159 0.47155 0.06224 0.0
C757 C 0.94175 0.50392 0.07206 0.0
H758 H 0.88738 0.41467 0.05458 0.0
H759 H 0.88723 0.47119 0.05521 0.0
S760 S 0.0289 0.51421 0.09725 0.0
N761 N 0.00376 0.47059 0.08936 0.0
N762 N 0.0036 0.53244 0.09005 0.0
C763 C 0.9728 0.50279 0.08056 0.0
C764 C 0.97289 0.4692 0.08017 0.0
C765 C 0.42471 0.91786 0.56438 0.0
C766 C 0.42317 0.94895 0.57221 0.0
C767 C 0.45736 0.91786 0.56453 0.0
C768 C 0.49006 0.94896 0.5725 0.0
H769 H 0.40033 0.89289 0.55855 0.0
H770 H 0.45673 0.89291 0.5588 0.0
S771 S 0.5014 0.03833 0.59309 0.0
N772 N 0.45761 0.01241 0.58682 0.0
N773 N 0.51922 0.01242 0.58709 0.0
C774 C 0.48927 0.98073 0.57943 0.0
C775 C 0.4558 0.98072 0.57929 0.0
C776 C 0.49838 0.49608 0.08033 0.0
C777 C 0.53017 0.49766 0.07015 0.0
C778 C 0.46501 0.46328 0.08011 0.0
C779 C 0.46229 0.43093 0.06971 0.0
H780 H 0.49941 0.52004 0.08934 0.0
H781 H 0.44148 0.46309 0.08899 0.0
S782 S 0.53666 0.42156 0.03734 0.0
N783 N 0.55606 0.46465 0.04698 0.0
N784 N 0.49371 0.40337 0.04659 0.0
C785 C 0.49357 0.43261 0.05822 0.0
C786 C 0.5274 0.46586 0.05844 0.0
C787 C -0.01494 0.47329 0.58158 0.0
C788 C 0.01339 0.4706 0.56855 0.0
C789 C -0.0148 0.50638 0.58158 0.0
C790 C 0.01367 0.53786 0.56854 0.0
H791 H 0.96337 0.45011 0.59284 0.0
H792 H 0.96362 0.50762 0.59285 0.0
S793 S 0.0913 0.54365 0.5277 0.0
N794 N 0.0685 0.50123 0.53955 0.0
N795 N 0.06876 0.56309 0.53954 0.0
C796 C 0.04097 0.53487 0.554 0.0
C797 C 0.04083 0.50134 0.554 0.0
C798 C 0.96503 0.49894 0.35262 0.0
C799 C 0.93607 0.50126 0.36479 0.0
C800 C 0.96494 0.46587 0.35254 0.0
C801 C 0.93588 0.43403 0.36461 0.0
H802 H -0.01273 0.52245 0.34215 0.0
H803 H -0.01289 0.46498 0.34199 0.0
S804 S 0.85613 0.42697 0.40287 0.0
N805 N 0.87948 0.46972 0.3919 0.0
N806 N 0.87931 0.40792 0.39172 0.0
C807 C 0.90782 0.43657 0.37825 0.0
C808 C 0.90791 0.47008 0.37834 0.0
C809 C 0.45885 0.91996 0.87141 0.0
C810 C 0.49143 0.95079 0.86264 0.0
C811 C 0.42622 0.91999 0.8715 0.0
C812 C 0.42459 0.95086 0.86281 0.0
H813 H 0.45828 0.89515 0.87781 0.0
H814 H 0.40191 0.8952 0.87795 0.0
S815 S 0.50255 0.03961 0.83966 0.0
N816 N 0.52043 0.01384 0.8464 0.0
N817 N 0.45886 0.01391 0.84656 0.0
C818 C 0.45714 0.98243 0.85497 0.0
C819 C 0.49058 0.9824 0.85488 0.0
C820 C 0.46406 0.464 0.35208 0.0
C821 C 0.46126 0.43209 0.36394 0.0
C822 C 0.49717 0.49706 0.35211 0.0
C823 C 0.5286 0.49933 0.364 0.0
H824 H 0.44086 0.4632 0.3418 0.0
H825 H 0.49839 0.52063 0.34185 0.0
S826 S 0.5344 0.4248 0.40133 0.0
N827 N 0.49195 0.40581 0.39046 0.0
N828 N 0.55385 0.46761 0.39054 0.0
C829 C 0.52562 0.46805 0.37728 0.0
C830 C 0.49205 0.43454 0.37724 0.0
C831 C -0.01059 0.47507 0.85318 0.0
C832 C 0.01919 0.47276 0.86354 0.0
C833 C -0.01049 0.50811 0.85372 0.0
C834 C 0.01938 0.54 0.86464 0.0
H835 H 0.96633 0.4515 0.84373 0.0
H836 H 0.96652 0.50887 0.84464 0.0
S837 S 0.10202 0.5473 0.89784 0.0
N838 N 0.07784 0.50448 0.88754 0.0
N839 N 0.07802 0.56628 0.88857 0.0
C840 C 0.0485 0.53756 0.87638 0.0
C841 C 0.04841 0.50404 0.87582 0.0
C842 C 0.52441 0.0555 0.3699 0.0
C843 C 0.52613 0.02454 0.36193 0.0
C844 C 0.49166 0.0553 0.36986 0.0
C845 C 0.45904 0.02413 0.36188 0.0
H846 H 0.54874 0.08051 0.37576 0.0
H847 H 0.49214 0.08016 0.3757 0.0
S848 S 0.44817 0.93507 0.34085 0.0
N849 N 0.49194 0.96115 0.34711 0.0
N850 N 0.43015 0.96076 0.34706 0.0
C851 C 0.46001 -0.0075 0.35478 0.0
C852 C 0.49358 -0.00729 0.3548 0.0
C853 C 0.48428 0.50737 0.8528 0.0
C854 C 0.48646 0.53908 0.86416 0.0
C855 C 0.45127 0.47423 0.85237 0.0
C856 C 0.4193 0.47166 0.86326 0.0
H857 H 0.50792 0.50838 0.84329 0.0
H858 H 0.4506 0.45081 0.84257 0.0
S859 S 0.41157 0.5456 0.89885 0.0
N860 N 0.45446 0.56486 0.88908 0.0
N861 N 0.39274 0.5029 0.88824 0.0
C862 C 0.42158 0.50274 0.87599 0.0
C863 C 0.45506 0.53634 0.87645 0.0
loop_
_geom_bond_atom_site_label_1
_geom_bond_atom_site_label_2
_geom_bond_distance
_geom_bond_site_symmetry_2
_ccdc_geom_bond_type
C0 O1 1.306 . S
C0 O3 1.160 . S
O1 C0 1.306 . S
O1 Cd2 2.228 . S
Cd2 O1 2.228 . S
Cd2 O6 2.273 . S
Cd2 O10 2.277 . S
O3 C0 1.160 . S
O3 Cd4 2.203 . S
Cd4 O3 2.203 . S
Cd4 O6 2.411 . S
Cd4 O7 2.333 . S
Cd4 O8 2.352 . S
Cd4 O12 2.277 . S
Cd4 O13 2.356 1_545 S
C5 O10 1.209 . S
C5 O12 1.226 . S
O6 Cd2 2.273 . S
O6 Cd4 2.411 . S
O6 C9 1.320 . S
O7 Cd4 2.333 . S
O7 C9 1.214 . S
O8 Cd4 2.352 . S
O8 C11 1.258 . S
C9 O6 1.320 . S
C9 O7 1.214 . S
O10 Cd2 2.277 . S
O10 C5 1.209 . S
C11 O8 1.258 . S
C11 O13 1.282 1_545 S
O12 Cd4 2.277 . S
O12 C5 1.226 . S
O13 Cd4 2.356 1_565 S
O13 C11 1.282 1_565 S
C14 O15 1.306 . S
C14 O17 1.160 . S
O15 C14 1.306 . S
O15 Cd16 2.228 . S
Cd16 O15 2.228 . S
Cd16 O20 2.273 . S
Cd16 O24 2.277 . S
O17 C14 1.160 . S
O17 Cd18 2.203 . S
Cd18 O17 2.203 . S
Cd18 O20 2.411 . S
Cd18 O21 2.333 . S
Cd18 O22 2.352 . S
Cd18 O26 2.277 . S
Cd18 O27 2.356 . S
C19 O24 1.209 . S
C19 O26 1.226 . S
O20 Cd16 2.273 . S
O20 Cd18 2.411 . S
O20 C23 1.320 . S
O21 Cd18 2.333 . S
O21 C23 1.214 . S
O22 Cd18 2.352 . S
O22 C25 1.258 . S
C23 O20 1.320 . S
C23 O21 1.214 . S
O24 Cd16 2.277 . S
O24 C19 1.209 . S
C25 O22 1.258 . S
C25 O27 1.282 . S
O26 Cd18 2.277 . S
O26 C19 1.226 . S
O27 Cd18 2.356 . S
O27 C25 1.282 . S
C28 O29 1.306 . S
C28 O31 1.160 . S
O29 C28 1.306 . S
O29 Cd30 2.228 . S
Cd30 O29 2.228 . S
Cd30 O34 2.273 . S
Cd30 O38 2.277 . S
O31 C28 1.160 . S
O31 Cd32 2.203 . S
Cd32 O31 2.203 . S
Cd32 O34 2.411 . S
Cd32 O35 2.333 . S
Cd32 O36 2.352 . S
Cd32 O40 2.277 . S
Cd32 O41 2.356 1_655 S
C33 O38 1.209 . S
C33 O40 1.226 . S
O34 Cd30 2.273 . S
O34 Cd32 2.411 . S
O34 C37 1.320 . S
O35 Cd32 2.333 . S
O35 C37 1.214 . S
O36 Cd32 2.352 . S
O36 C39 1.258 . S
C37 O34 1.320 . S
C37 O35 1.214 . S
O38 Cd30 2.277 . S
O38 C33 1.209 . S
C39 O36 1.258 . S
C39 O41 1.282 1_655 S
O40 Cd32 2.277 . S
O40 C33 1.226 . S
O41 Cd32 2.356 1_455 S
O41 C39 1.282 1_455 S
C42 O43 1.306 . S
C42 O45 1.160 . S
O43 C42 1.306 . S
O43 Cd44 2.228 . S
Cd44 O43 2.228 . S
Cd44 O48 2.273 . S
Cd44 O52 2.277 . S
O45 C42 1.160 . S
O45 Cd46 2.203 . S
Cd46 O45 2.203 . S
Cd46 O48 2.411 . S
Cd46 O49 2.333 . S
Cd46 O50 2.352 . S
Cd46 O54 2.277 . S
Cd46 O55 2.356 1_565 S
C47 O52 1.209 . S
C47 O54 1.226 . S
O48 Cd44 2.273 . S
O48 Cd46 2.411 . S
O48 C51 1.320 . S
O49 Cd46 2.333 . S
O49 C51 1.214 . S
O50 Cd46 2.352 . S
O50 C53 1.258 . S
C51 O48 1.320 . S
C51 O49 1.214 . S
O52 Cd44 2.277 . S
O52 C47 1.209 . S
C53 O50 1.258 . S
C53 O55 1.282 1_565 S
O54 Cd46 2.277 . S
O54 C47 1.226 . S
O55 Cd46 2.356 1_545 S
O55 C53 1.282 1_545 S
C56 O57 1.306 . S
C56 O59 1.160 . S
O57 C56 1.306 . S
O57 Cd58 2.228 . S
Cd58 O57 2.228 . S
Cd58 O62 2.273 . S
Cd58 O66 2.277 . S
O59 C56 1.160 . S
O59 Cd60 2.203 . S
Cd60 O59 2.203 . S
Cd60 O62 2.411 . S
Cd60 O63 2.333 . S
Cd60 O64 2.352 . S
Cd60 O68 2.277 . S
Cd60 O69 2.356 . S
C61 O66 1.209 . S
C61 O68 1.226 . S
O62 Cd58 2.273 . S
O62 Cd60 2.411 . S
O62 C65 1.320 . S
O63 Cd60 2.333 . S
O63 C65 1.214 . S
O64 Cd60 2.352 . S
O64 C67 1.258 . S
C65 O62 1.320 . S
C65 O63 1.214 . S
O66 Cd58 2.277 . S
O66 C61 1.209 . S
C67 O64 1.258 . S
C67 O69 1.282 . S
O68 Cd60 2.277 . S
O68 C61 1.226 . S
O69 Cd60 2.356 . S
O69 C67 1.282 . S
C70 O71 1.306 . S
C70 O73 1.160 . S
O71 C70 1.306 . S
O71 Cd72 2.228 . S
Cd72 O71 2.228 . S
Cd72 O76 2.273 . S
Cd72 O80 2.277 . S
O73 C70 1.160 . S
O73 Cd74 2.203 . S
Cd74 O73 2.203 . S
Cd74 O76 2.411 . S
Cd74 O77 2.333 . S
Cd74 O78 2.352 . S
Cd74 O82 2.277 . S
Cd74 O83 2.356 1_455 S
C75 O80 1.209 . S
C75 O82 1.226 . S
O76 Cd72 2.273 . S
O76 Cd74 2.411 . S
O76 C79 1.320 . S
O77 Cd74 2.333 . S
O77 C79 1.214 . S
O78 Cd74 2.352 . S
O78 C81 1.258 . S
C79 O76 1.320 . S
C79 O77 1.214 . S
O80 Cd72 2.277 . S
O80 C75 1.209 . S
C81 O78 1.258 . S
C81 O83 1.282 1_455 S
O82 Cd74 2.277 . S
O82 C75 1.226 . S
O83 Cd74 2.356 1_655 S
O83 C81 1.282 1_655 S
C84 O85 1.306 . S
C84 O87 1.160 . S
O85 C84 1.306 . S
O85 Cd86 2.228 . S
Cd86 O85 2.228 . S
Cd86 O90 2.273 . S
Cd86 O94 2.277 . S
O87 C84 1.160 . S
O87 Cd88 2.203 . S
Cd88 O87 2.203 . S
Cd88 O90 2.411 . S
Cd88 O91 2.333 . S
Cd88 O92 2.352 . S
Cd88 O96 2.277 . S
Cd88 O97 2.356 1_655 S
C89 O94 1.209 . S
C89 O96 1.226 . S
O90 Cd86 2.273 . S
O90 Cd88 2.411 . S
O90 C93 1.320 . S
O91 Cd88 2.333 . S
O91 C93 1.214 . S
O92 Cd88 2.352 . S
O92 C95 1.258 . S
C93 O90 1.320 . S
C93 O91 1.214 . S
O94 Cd86 2.277 . S
O94 C89 1.209 . S
C95 O92 1.258 . S
C95 O97 1.282 1_655 S
O96 Cd88 2.277 . S
O96 C89 1.226 . S
O97 Cd88 2.356 1_455 S
O97 C95 1.282 1_455 S
C98 O99 1.306 . S
C98 O101 1.160 . S
O99 C98 1.306 . S
O99 Cd100 2.228 . S
Cd100 O99 2.228 . S
Cd100 O104 2.273 . S
Cd100 O108 2.277 . S
O101 C98 1.160 . S
O101 Cd102 2.203 . S
Cd102 O101 2.203 . S
Cd102 O104 2.411 . S
Cd102 O105 2.333 . S
Cd102 O106 2.352 . S
Cd102 O110 2.277 . S
Cd102 O111 2.356 1_565 S
C103 O108 1.209 . S
C103 O110 1.226 . S
O104 Cd100 2.273 . S
O104 Cd102 2.411 . S
O104 C107 1.320 . S
O105 Cd102 2.333 . S
O105 C107 1.214 . S
O106 Cd102 2.352 . S
O106 C109 1.258 . S
C107 O104 1.320 . S
C107 O105 1.214 . S
O108 Cd100 2.277 . S
O108 C103 1.209 . S
C109 O106 1.258 . S
C109 O111 1.282 1_565 S
O110 Cd102 2.277 . S
O110 C103 1.226 . S
O111 Cd102 2.356 1_545 S
O111 C109 1.282 1_545 S
C112 O113 1.306 . S
C112 O115 1.160 . S
O113 C112 1.306 . S
O113 Cd114 2.228 . S
Cd114 O113 2.228 . S
Cd114 O118 2.273 . S
Cd114 O122 2.277 . S
O115 C112 1.160 . S
O115 Cd116 2.203 . S
Cd116 O115 2.203 . S
Cd116 O118 2.411 . S
Cd116 O119 2.333 . S
Cd116 O120 2.352 . S
Cd116 O124 2.277 . S
Cd116 O125 2.356 . S
C117 O122 1.209 . S
C117 O124 1.226 . S
O118 Cd114 2.273 . S
O118 Cd116 2.411 . S
O118 C121 1.320 . S
O119 Cd116 2.333 . S
O119 C121 1.214 . S
O120 Cd116 2.352 . S
O120 C123 1.258 . S
C121 O118 1.320 . S
C121 O119 1.214 . S
O122 Cd114 2.277 . S
O122 C117 1.209 . S
C123 O120 1.258 . S
C123 O125 1.282 . S
O124 Cd116 2.277 . S
O124 C117 1.226 . S
O125 Cd116 2.356 . S
O125 C123 1.282 . S
C126 O127 1.306 . S
C126 O129 1.160 . S
O127 C126 1.306 . S
O127 Cd128 2.228 . S
Cd128 O127 2.228 . S
Cd128 O132 2.273 . S
Cd128 O136 2.277 . S
O129 C126 1.160 . S
O129 Cd130 2.203 . S
Cd130 O129 2.203 . S
Cd130 O132 2.411 . S
Cd130 O133 2.333 . S
Cd130 O134 2.352 . S
Cd130 O138 2.277 . S
Cd130 O139 2.356 1_455 S
C131 O136 1.209 . S
C131 O138 1.226 . S
O132 Cd128 2.273 . S
O132 Cd130 2.411 . S
O132 C135 1.320 . S
O133 Cd130 2.333 . S
O133 C135 1.214 . S
O134 Cd130 2.352 . S
O134 C137 1.258 . S
C135 O132 1.320 . S
C135 O133 1.214 . S
O136 Cd128 2.277 . S
O136 C131 1.209 . S
C137 O134 1.258 . S
C137 O139 1.282 1_455 S
O138 Cd130 2.277 . S
O138 C131 1.226 . S
O139 Cd130 2.356 1_655 S
O139 C137 1.282 1_655 S
C140 O141 1.306 . S
C140 O143 1.160 . S
O141 C140 1.306 . S
O141 Cd142 2.228 . S
Cd142 O141 2.228 . S
Cd142 O146 2.273 . S
Cd142 O150 2.277 . S
O143 C140 1.160 . S
O143 Cd144 2.203 . S
Cd144 O143 2.203 . S
Cd144 O146 2.411 . S
Cd144 O147 2.333 . S
Cd144 O148 2.352 . S
Cd144 O152 2.277 . S
Cd144 O153 2.356 1_545 S
C145 O150 1.209 . S
C145 O152 1.226 . S
O146 Cd142 2.273 . S
O146 Cd144 2.411 . S
O146 C149 1.320 . S
O147 Cd144 2.333 . S
O147 C149 1.214 . S
O148 Cd144 2.352 . S
O148 C151 1.258 . S
C149 O146 1.320 . S
C149 O147 1.214 . S
O150 Cd142 2.277 . S
O150 C145 1.209 . S
C151 O148 1.258 . S
C151 O153 1.282 1_545 S
O152 Cd144 2.277 . S
O152 C145 1.226 . S
O153 Cd144 2.356 1_565 S
O153 C151 1.282 1_565 S
C154 O155 1.306 . S
C154 O157 1.160 . S
O155 C154 1.306 . S
O155 Cd156 2.228 . S
Cd156 O155 2.228 . S
Cd156 O160 2.273 . S
Cd156 O164 2.277 . S
O157 C154 1.160 . S
O157 Cd158 2.203 . S
Cd158 O157 2.203 . S
Cd158 O160 2.411 . S
Cd158 O161 2.333 . S
Cd158 O162 2.352 . S
Cd158 O166 2.277 . S
Cd158 O167 2.356 . S
C159 O164 1.209 . S
C159 O166 1.226 . S
O160 Cd156 2.273 . S
O160 Cd158 2.411 . S
O160 C163 1.320 . S
O161 Cd158 2.333 . S
O161 C163 1.214 . S
O162 Cd158 2.352 . S
O162 C165 1.258 . S
C163 O160 1.320 . S
C163 O161 1.214 . S
O164 Cd156 2.277 . S
O164 C159 1.209 . S
C165 O162 1.258 . S
C165 O167 1.282 . S
O166 Cd158 2.277 . S
O166 C159 1.226 . S
O167 Cd158 2.356 . S
O167 C165 1.282 . S
C168 O169 1.306 . S
C168 O171 1.160 . S
O169 C168 1.306 . S
O169 Cd170 2.228 . S
Cd170 O169 2.228 . S
Cd170 O174 2.273 . S
Cd170 O178 2.277 . S
O171 C168 1.160 . S
O171 Cd172 2.203 . S
Cd172 O171 2.203 . S
Cd172 O174 2.411 . S
Cd172 O175 2.333 . S
Cd172 O176 2.352 . S
Cd172 O180 2.277 . S
Cd172 O181 2.356 1_565 S
C173 O178 1.209 . S
C173 O180 1.226 . S
O174 Cd170 2.273 . S
O174 Cd172 2.411 . S
O174 C177 1.320 . S
O175 Cd172 2.333 . S
O175 C177 1.214 . S
O176 Cd172 2.352 . S
O176 C179 1.258 . S
C177 O174 1.320 . S
C177 O175 1.214 . S
O178 Cd170 2.277 . S
O178 C173 1.209 . S
C179 O176 1.258 . S
C179 O181 1.282 1_565 S
O180 Cd172 2.277 . S
O180 C173 1.226 . S
O181 Cd172 2.356 1_545 S
O181 C179 1.282 1_545 S
C182 O183 1.306 . S
C182 O185 1.160 . S
O183 C182 1.306 . S
O183 Cd184 2.228 . S
Cd184 O183 2.228 . S
Cd184 O188 2.273 . S
Cd184 O192 2.277 . S
O185 C182 1.160 . S
O185 Cd186 2.203 . S
Cd186 O185 2.203 . S
Cd186 O188 2.411 . S
Cd186 O189 2.333 . S
Cd186 O190 2.352 . S
Cd186 O194 2.277 . S
Cd186 O195 2.356 . S
C187 O192 1.209 . S
C187 O194 1.226 . S
O188 Cd184 2.273 . S
O188 Cd186 2.411 . S
O188 C191 1.320 . S
O189 Cd186 2.333 . S
O189 C191 1.214 . S
O190 Cd186 2.352 . S
O190 C193 1.258 . S
C191 O188 1.320 . S
C191 O189 1.214 . S
O192 Cd184 2.277 . S
O192 C187 1.209 . S
C193 O190 1.258 . S
C193 O195 1.282 . S
O194 Cd186 2.277 . S
O194 C187 1.226 . S
O195 Cd186 2.356 . S
O195 C193 1.282 . S
C196 O197 1.306 . S
C196 O199 1.160 . S
O197 C196 1.306 . S
O197 Cd198 2.228 . S
Cd198 O197 2.228 . S
Cd198 O202 2.273 . S
Cd198 O206 2.277 . S
O199 C196 1.160 . S
O199 Cd200 2.203 . S
Cd200 O199 2.203 . S
Cd200 O202 2.411 . S
Cd200 O203 2.333 . S
Cd200 O204 2.352 . S
Cd200 O208 2.277 . S
Cd200 O209 2.356 1_455 S
C201 O206 1.209 . S
C201 O208 1.226 . S
O202 Cd198 2.273 . S
O202 Cd200 2.411 . S
O202 C205 1.320 . S
O203 Cd200 2.333 . S
O203 C205 1.214 . S
O204 Cd200 2.352 . S
O204 C207 1.258 . S
C205 O202 1.320 . S
C205 O203 1.214 . S
O206 Cd198 2.277 . S
O206 C201 1.209 . S
C207 O204 1.258 . S
C207 O209 1.282 1_455 S
O208 Cd200 2.277 . S
O208 C201 1.226 . S
O209 Cd200 2.356 1_655 S
O209 C207 1.282 1_655 S
C210 O211 1.306 . S
C210 O213 1.160 . S
O211 C210 1.306 . S
O211 Cd212 2.228 . S
Cd212 O211 2.228 . S
Cd212 O216 2.273 . S
Cd212 O220 2.277 . S
O213 C210 1.160 . S
O213 Cd214 2.203 . S
Cd214 O213 2.203 . S
Cd214 O216 2.411 . S
Cd214 O217 2.333 . S
Cd214 O218 2.352 . S
Cd214 O222 2.277 . S
Cd214 O223 2.356 1_545 S
C215 O220 1.209 . S
C215 O222 1.226 . S
O216 Cd212 2.273 . S
O216 Cd214 2.411 . S
O216 C219 1.320 . S
O217 Cd214 2.333 . S
O217 C219 1.214 . S
O218 Cd214 2.352 . S
O218 C221 1.258 . S
C219 O216 1.320 . S
C219 O217 1.214 . S
O220 Cd212 2.277 . S
O220 C215 1.209 . S
C221 O218 1.258 . S
C221 O223 1.282 1_545 S
O222 Cd214 2.277 . S
O222 C215 1.226 . S
O223 Cd214 2.356 1_565 S
O223 C221 1.282 1_565 S
C224 O225 1.306 . S
C224 O227 1.160 . S
O225 C224 1.306 . S
O225 Cd226 2.228 . S
Cd226 O225 2.228 . S
Cd226 O230 2.273 . S
Cd226 O234 2.277 . S
O227 C224 1.160 . S
O227 Cd228 2.203 . S
Cd228 O227 2.203 . S
Cd228 O230 2.411 . S
Cd228 O231 2.333 . S
Cd228 O232 2.352 . S
Cd228 O236 2.277 . S
Cd228 O237 2.356 . S
C229 O234 1.209 . S
C229 O236 1.226 . S
O230 Cd226 2.273 . S
O230 Cd228 2.411 . S
O230 C233 1.320 . S
O231 Cd228 2.333 . S
O231 C233 1.214 . S
O232 Cd228 2.352 . S
O232 C235 1.258 . S
C233 O230 1.320 . S
C233 O231 1.214 . S
O234 Cd226 2.277 . S
O234 C229 1.209 . S
C235 O232 1.258 . S
C235 O237 1.282 . S
O236 Cd228 2.277 . S
O236 C229 1.226 . S
O237 Cd228 2.356 . S
O237 C235 1.282 . S
C238 O239 1.306 . S
C238 O241 1.160 . S
O239 C238 1.306 . S
O239 Cd240 2.228 . S
Cd240 O239 2.228 . S
Cd240 O244 2.273 . S
Cd240 O248 2.277 . S
O241 C238 1.160 . S
O241 Cd242 2.203 . S
Cd242 O241 2.203 . S
Cd242 O244 2.411 . S
Cd242 O245 2.333 . S
Cd242 O246 2.352 . S
Cd242 O250 2.277 . S
Cd242 O251 2.356 1_655 S
C243 O248 1.209 . S
C243 O250 1.226 . S
O244 Cd240 2.273 . S
O244 Cd242 2.411 . S
O244 C247 1.320 . S
O245 Cd242 2.333 . S
O245 C247 1.214 . S
O246 Cd242 2.352 . S
O246 C249 1.258 . S
C247 O244 1.320 . S
C247 O245 1.214 . S
O248 Cd240 2.277 . S
O248 C243 1.209 . S
C249 O246 1.258 . S
C249 O251 1.282 1_655 S
O250 Cd242 2.277 . S
O250 C243 1.226 . S
O251 Cd242 2.356 1_455 S
O251 C249 1.282 1_455 S
C252 O253 1.306 . S
C252 O255 1.160 . S
O253 C252 1.306 . S
O253 Cd254 2.228 . S
Cd254 O253 2.228 . S
Cd254 O258 2.273 . S
Cd254 O262 2.277 . S
O255 C252 1.160 . S
O255 Cd256 2.203 . S
Cd256 O255 2.203 . S
Cd256 O258 2.411 . S
Cd256 O259 2.333 . S
Cd256 O260 2.352 . S
Cd256 O264 2.277 . S
Cd256 O265 2.356 1_455 S
C257 O262 1.209 . S
C257 O264 1.226 . S
O258 Cd254 2.273 . S
O258 Cd256 2.411 . S
O258 C261 1.320 . S
O259 Cd256 2.333 . S
O259 C261 1.214 . S
O260 Cd256 2.352 . S
O260 C263 1.258 . S
C261 O258 1.320 . S
C261 O259 1.214 . S
O262 Cd254 2.277 . S
O262 C257 1.209 . S
C263 O260 1.258 . S
C263 O265 1.282 1_455 S
O264 Cd256 2.277 . S
O264 C257 1.226 . S
O265 Cd256 2.356 1_655 S
O265 C263 1.282 1_655 S
C266 O267 1.306 . S
C266 O269 1.160 . S
O267 C266 1.306 . S
O267 Cd268 2.228 . S
Cd268 O267 2.228 . S
Cd268 O272 2.273 . S
Cd268 O276 2.277 . S
O269 C266 1.160 . S
O269 Cd270 2.203 . S
Cd270 O269 2.203 . S
Cd270 O272 2.411 . S
Cd270 O273 2.333 . S
Cd270 O274 2.352 . S
Cd270 O278 2.277 . S
Cd270 O279 2.356 1_545 S
C271 O276 1.209 . S
C271 O278 1.226 . S
O272 Cd268 2.273 . S
O272 Cd270 2.411 . S
O272 C275 1.320 . S
O273 Cd270 2.333 . S
O273 C275 1.214 . S
O274 Cd270 2.352 . S
O274 C277 1.258 . S
C275 O272 1.320 . S
C275 O273 1.214 . S
O276 Cd268 2.277 . S
O276 C271 1.209 . S
C277 O274 1.258 . S
C277 O279 1.282 1_545 S
O278 Cd270 2.277 . S
O278 C271 1.226 . S
O279 Cd270 2.356 1_565 S
O279 C277 1.282 1_565 S
C280 O281 1.306 . S
C280 O283 1.160 . S
O281 C280 1.306 . S
O281 Cd282 2.228 . S
Cd282 O281 2.228 . S
Cd282 O286 2.273 . S
Cd282 O290 2.277 . S
O283 C280 1.160 . S
O283 Cd284 2.203 . S
Cd284 O283 2.203 . S
Cd284 O286 2.411 . S
Cd284 O287 2.333 . S
Cd284 O288 2.352 . S
Cd284 O292 2.277 . S
Cd284 O293 2.356 . S
C285 O290 1.209 . S
C285 O292 1.226 . S
O286 Cd282 2.273 . S
O286 Cd284 2.411 . S
O286 C289 1.320 . S
O287 Cd284 2.333 . S
O287 C289 1.214 . S
O288 Cd284 2.352 . S
O288 C291 1.258 . S
C289 O286 1.320 . S
C289 O287 1.214 . S
O290 Cd282 2.277 . S
O290 C285 1.209 . S
C291 O288 1.258 . S
C291 O293 1.282 . S
O292 Cd284 2.277 . S
O292 C285 1.226 . S
O293 Cd284 2.356 . S
O293 C291 1.282 . S
C294 O295 1.306 . S
C294 O297 1.160 . S
O295 C294 1.306 . S
O295 Cd296 2.228 . S
Cd296 O295 2.228 . S
Cd296 O300 2.273 . S
Cd296 O304 2.277 . S
O297 C294 1.160 . S
O297 Cd298 2.203 . S
Cd298 O297 2.203 . S
Cd298 O300 2.411 . S
Cd298 O301 2.333 . S
Cd298 O302 2.352 . S
Cd298 O306 2.277 . S
Cd298 O307 2.356 1_655 S
C299 O304 1.209 . S
C299 O306 1.226 . S
O300 Cd296 2.273 . S
O300 Cd298 2.411 . S
O300 C303 1.320 . S
O301 Cd298 2.333 . S
O301 C303 1.214 . S
O302 Cd298 2.352 . S
O302 C305 1.258 . S
C303 O300 1.320 . S
C303 O301 1.214 . S
O304 Cd296 2.277 . S
O304 C299 1.209 . S
C305 O302 1.258 . S
C305 O307 1.282 1_655 S
O306 Cd298 2.277 . S
O306 C299 1.226 . S
O307 Cd298 2.356 1_455 S
O307 C305 1.282 1_455 S
C308 O309 1.306 . S
C308 O311 1.160 . S
O309 C308 1.306 . S
O309 Cd310 2.228 . S
Cd310 O309 2.228 . S
Cd310 O314 2.273 . S
Cd310 O318 2.277 . S
O311 C308 1.160 . S
O311 Cd312 2.203 . S
Cd312 O311 2.203 . S
Cd312 O314 2.411 . S
Cd312 O315 2.333 . S
Cd312 O316 2.352 . S
Cd312 O320 2.277 . S
Cd312 O321 2.356 1_565 S
C313 O318 1.209 . S
C313 O320 1.226 . S
O314 Cd310 2.273 . S
O314 Cd312 2.411 . S
O314 C317 1.320 . S
O315 Cd312 2.333 . S
O315 C317 1.214 . S
O316 Cd312 2.352 . S
O316 C319 1.258 . S
C317 O314 1.320 . S
C317 O315 1.214 . S
O318 Cd310 2.277 . S
O318 C313 1.209 . S
C319 O316 1.258 . S
C319 O321 1.282 1_565 S
O320 Cd312 2.277 . S
O320 C313 1.226 . S
O321 Cd312 2.356 1_545 S
O321 C319 1.282 1_545 S
C322 O323 1.306 . S
C322 O325 1.160 . S
O323 C322 1.306 . S
O323 Cd324 2.228 . S
Cd324 O323 2.228 . S
Cd324 O328 2.273 . S
Cd324 O332 2.277 . S
O325 C322 1.160 . S
O325 Cd326 2.203 . S
Cd326 O325 2.203 . S
Cd326 O328 2.411 . S
Cd326 O329 2.333 . S
Cd326 O330 2.352 . S
Cd326 O334 2.277 . S
Cd326 O335 2.356 . S
C327 O332 1.209 . S
C327 O334 1.226 . S
O328 Cd324 2.273 . S
O328 Cd326 2.411 . S
O328 C331 1.320 . S
O329 Cd326 2.333 . S
O329 C331 1.214 . S
O330 Cd326 2.352 . S
O330 C333 1.258 . S
C331 O328 1.320 . S
C331 O329 1.214 . S
O332 Cd324 2.277 . S
O332 C327 1.209 . S
C333 O330 1.258 . S
C333 O335 1.282 . S
O334 Cd326 2.277 . S
O334 C327 1.226 . S
O335 Cd326 2.356 . S
O335 C333 1.282 . S
C336 C337 1.369 . S
C336 C338 1.419 . S
C336 H340 0.930 . S
C337 C336 1.369 . S
C337 C346 1.429 . S
C338 C336 1.419 . S
C338 C339 1.363 . S
C338 H341 0.929 . S
C339 C338 1.363 . S
C339 C345 1.428 . S
H340 C336 0.930 . S
H341 C338 0.929 . S
S342 N343 1.613 . S
S342 N344 1.610 . S
N343 S342 1.613 . S
N343 C346 1.350 . S
N344 S342 1.610 . S
N344 C345 1.351 . S
C345 C339 1.428 . S
C345 N344 1.351 . S
C345 C346 1.434 . S
C346 C337 1.429 . S
C346 N343 1.350 . S
C346 C345 1.434 . S
C347 C348 1.369 . S
C347 C349 1.419 . S
C347 H351 0.930 . S
C348 C347 1.369 . S
C348 C357 1.429 . S
C349 C347 1.419 . S
C349 C350 1.363 . S
C349 H352 0.929 . S
C350 C349 1.363 . S
C350 C356 1.428 . S
H351 C347 0.930 . S
H352 C349 0.929 . S
S353 N354 1.613 . S
S353 N355 1.610 . S
N354 S353 1.613 . S
N354 C357 1.350 . S
N355 S353 1.610 . S
N355 C356 1.351 . S
C356 C350 1.428 . S
C356 N355 1.351 . S
C356 C357 1.434 . S
C357 C348 1.429 . S
C357 N354 1.350 . S
C357 C356 1.434 . S
C358 C359 1.369 . S
C358 C360 1.419 . S
C358 H362 0.930 . S
C359 C358 1.369 . S
C359 C368 1.429 . S
C360 C358 1.419 . S
C360 C361 1.363 . S
C360 H363 0.929 . S
C361 C360 1.363 . S
C361 C367 1.428 . S
H362 C358 0.930 . S
H363 C360 0.929 . S
S364 N365 1.613 . S
S364 N366 1.610 . S
N365 S364 1.613 . S
N365 C368 1.350 . S
N366 S364 1.610 . S
N366 C367 1.351 . S
C367 C361 1.428 . S
C367 N366 1.351 . S
C367 C368 1.434 . S
C368 C359 1.429 . S
C368 N365 1.350 . S
C368 C367 1.434 . S
C369 C370 1.369 . S
C369 C371 1.419 . S
C369 H373 0.930 1_565 S
C370 C369 1.369 . S
C370 C379 1.429 . S
C371 C369 1.419 . S
C371 C372 1.363 . S
C371 H374 0.929 1_565 S
C372 C371 1.363 . S
C372 C378 1.428 . S
H373 C369 0.930 1_545 S
H374 C371 0.929 1_545 S
S375 N376 1.613 . S
S375 N377 1.610 . S
N376 S375 1.613 . S
N376 C379 1.350 . S
N377 S375 1.610 . S
N377 C378 1.351 . S
C378 C372 1.428 . S
C378 N377 1.351 . S
C378 C379 1.434 . S
C379 C370 1.429 . S
C379 N376 1.350 . S
C379 C378 1.434 . S
C380 C381 1.369 . S
C380 C382 1.419 . S
C380 H384 0.930 . S
C381 C380 1.369 . S
C381 C390 1.429 . S
C382 C380 1.419 . S
C382 C383 1.363 . S
C382 H385 0.929 . S
C383 C382 1.363 . S
C383 C389 1.428 . S
H384 C380 0.930 . S
H385 C382 0.929 . S
S386 N387 1.613 . S
S386 N388 1.610 . S
N387 S386 1.613 . S
N387 C390 1.350 . S
N388 S386 1.610 . S
N388 C389 1.351 . S
C389 C383 1.428 . S
C389 N388 1.351 . S
C389 C390 1.434 . S
C390 C381 1.429 . S
C390 N387 1.350 . S
C390 C389 1.434 . S
C391 C392 1.369 . S
C391 C393 1.419 . S
C391 H395 0.930 1_455 S
C392 C391 1.369 . S
C392 C401 1.429 . S
C393 C391 1.419 . S
C393 C394 1.363 . S
C393 H396 0.929 1_455 S
C394 C393 1.363 . S
C394 C400 1.428 . S
H395 C391 0.930 1_655 S
H396 C393 0.929 1_655 S
S397 N398 1.613 . S
S397 N399 1.610 . S
N398 S397 1.613 . S
N398 C401 1.350 . S
N399 S397 1.610 . S
N399 C400 1.351 . S
C400 C394 1.428 . S
C400 N399 1.351 . S
C400 C401 1.434 . S
C401 C392 1.429 . S
C401 N398 1.350 . S
C401 C400 1.434 . S
C402 C403 1.369 . S
C402 C404 1.419 . S
C402 H406 0.930 . S
C403 C402 1.369 . S
C403 C412 1.429 . S
C404 C402 1.419 . S
C404 C405 1.363 . S
C404 H407 0.929 . S
C405 C404 1.363 . S
C405 C411 1.428 . S
H406 C402 0.930 . S
H407 C404 0.929 . S
S408 N409 1.613 . S
S408 N410 1.610 . S
N409 S408 1.613 . S
N409 C412 1.350 . S
N410 S408 1.610 . S
N410 C411 1.351 . S
C411 C405 1.428 . S
C411 N410 1.351 . S
C411 C412 1.434 . S
C412 C403 1.429 . S
C412 N409 1.350 . S
C412 C411 1.434 . S
C413 C414 1.369 . S
C413 C415 1.419 . S
C413 H417 0.930 1_565 S
C414 C413 1.369 . S
C414 C423 1.429 . S
C415 C413 1.419 . S
C415 C416 1.363 . S
C415 H418 0.924 1_565 S
C416 C415 1.363 . S
C416 C422 1.428 . S
H417 C413 0.930 1_545 S
H418 C415 0.924 1_545 S
S419 N420 1.613 . S
S419 N421 1.610 . S
N420 S419 1.613 . S
N420 C423 1.350 . S
N421 S419 1.610 . S
N421 C422 1.351 . S
C422 C416 1.428 . S
C422 N421 1.351 . S
C422 C423 1.434 . S
C423 C414 1.429 . S
C423 N420 1.350 . S
C423 C422 1.434 . S
C424 C425 1.369 . S
C424 C426 1.419 . S
C424 H428 0.930 . S
C425 C424 1.369 . S
C425 C434 1.429 . S
C426 C424 1.419 . S
C426 C427 1.363 . S
C426 H429 0.929 . S
C427 C426 1.363 . S
C427 C433 1.428 . S
H428 C424 0.930 . S
H429 C426 0.929 . S
S430 N431 1.613 . S
S430 N432 1.610 . S
N431 S430 1.613 . S
N431 C434 1.350 . S
N432 S430 1.610 . S
N432 C433 1.351 . S
C433 C427 1.428 . S
C433 N432 1.351 . S
C433 C434 1.434 . S
C434 C425 1.429 . S
C434 N431 1.350 . S
C434 C433 1.434 . S
C435 C436 1.369 . S
C435 C437 1.419 . S
C435 H439 0.930 . S
C436 C435 1.369 . S
C436 C445 1.429 . S
C437 C435 1.419 . S
C437 C438 1.363 . S
C437 H440 0.929 . S
C438 C437 1.363 . S
C438 C444 1.428 . S
H439 C435 0.930 . S
H440 C437 0.929 . S
S441 N442 1.613 . S
S441 N443 1.610 . S
N442 S441 1.613 . S
N442 C445 1.350 . S
N443 S441 1.610 . S
N443 C444 1.351 . S
C444 C438 1.428 . S
C444 N443 1.351 . S
C444 C445 1.434 . S
C445 C436 1.429 . S
C445 N442 1.350 . S
C445 C444 1.434 . S
C446 C447 1.369 . S
C446 C448 1.419 . S
C446 H450 0.930 . S
C447 C446 1.369 . S
C447 C456 1.429 . S
C448 C446 1.419 . S
C448 C449 1.363 . S
C448 H451 0.929 . S
C449 C448 1.363 . S
C449 C455 1.428 . S
H450 C446 0.930 . S
H451 C448 0.929 . S
S452 N453 1.613 . S
S452 N454 1.610 . S
N453 S452 1.613 . S
N453 C456 1.350 1_565 S
N454 S452 1.610 . S
N454 C455 1.351 1_565 S
C455 C449 1.428 . S
C455 N454 1.351 1_545 S
C455 C456 1.434 . S
C456 C447 1.429 . S
C456 N453 1.350 1_545 S
C456 C455 1.434 . S
C457 C458 1.369 . S
C457 C459 1.419 . S
C457 H461 0.930 . S
C458 C457 1.369 . S
C458 C467 1.429 . S
C459 C457 1.419 . S
C459 C460 1.363 . S
C459 H462 0.929 . S
C460 C459 1.363 . S
C460 C466 1.428 . S
H461 C457 0.930 . S
H462 C459 0.929 . S
S463 N464 1.613 . S
S463 N465 1.610 . S
N464 S463 1.613 . S
N464 C467 1.350 . S
N465 S463 1.610 . S
N465 C466 1.351 . S
C466 C460 1.428 . S
C466 N465 1.351 . S
C466 C467 1.434 . S
C467 C458 1.429 . S
C467 N464 1.350 . S
C467 C466 1.434 . S
C468 C469 1.369 . S
C468 C470 1.419 . S
C468 H472 0.930 . S
C469 C468 1.369 . S
C469 C478 1.429 . S
C470 C468 1.419 . S
C470 C471 1.363 . S
C470 H473 0.929 . S
C471 C470 1.363 . S
C471 C477 1.428 . S
H472 C468 0.930 . S
H473 C470 0.929 . S
S474 N475 1.613 . S
S474 N476 1.610 . S
N475 S474 1.613 . S
N475 C478 1.350 . S
N476 S474 1.610 . S
N476 C477 1.351 . S
C477 C471 1.428 . S
C477 N476 1.351 . S
C477 C478 1.434 . S
C478 C469 1.429 . S
C478 N475 1.350 . S
C478 C477 1.434 . S
C479 C480 1.369 . S
C479 C481 1.419 . S
C479 H483 0.930 . S
C480 C479 1.369 . S
C480 C489 1.429 . S
C481 C479 1.419 . S
C481 C482 1.363 . S
C481 H484 0.929 . S
C482 C481 1.363 . S
C482 C488 1.428 . S
H483 C479 0.930 . S
H484 C481 0.929 . S
S485 N486 1.613 . S
S485 N487 1.610 . S
N486 S485 1.613 . S
N486 C489 1.350 . S
N487 S485 1.610 . S
N487 C488 1.351 . S
C488 C482 1.428 . S
C488 N487 1.351 . S
C488 C489 1.434 . S
C489 C480 1.429 . S
C489 N486 1.350 . S
C489 C488 1.434 . S
C490 C491 1.369 . S
C490 C492 1.419 . S
C490 H494 0.930 . S
C491 C490 1.369 . S
C491 C500 1.429 . S
C492 C490 1.419 . S
C492 C493 1.363 . S
C492 H495 0.929 . S
C493 C492 1.363 . S
C493 C499 1.428 . S
H494 C490 0.930 . S
H495 C492 0.929 . S
S496 N497 1.613 . S
S496 N498 1.610 . S
N497 S496 1.613 . S
N497 C500 1.350 . S
N498 S496 1.610 . S
N498 C499 1.351 . S
C499 C493 1.428 . S
C499 N498 1.351 . S
C499 C500 1.434 . S
C500 C491 1.429 . S
C500 N497 1.350 . S
C500 C499 1.434 . S
C501 C502 1.369 . S
C501 C503 1.419 . S
C501 H505 0.930 . S
C502 C501 1.369 . S
C502 C511 1.429 . S
C503 C501 1.419 . S
C503 C504 1.363 . S
C503 H506 0.929 . S
C504 C503 1.363 . S
C504 C510 1.428 . S
H505 C501 0.930 . S
H506 C503 0.929 . S
S507 N508 1.613 . S
S507 N509 1.610 . S
N508 S507 1.613 . S
N508 C511 1.350 . S
N509 S507 1.610 . S
N509 C510 1.351 . S
C510 C504 1.428 . S
C510 N509 1.351 . S
C510 C511 1.434 . S
C511 C502 1.429 . S
C511 N508 1.350 . S
C511 C510 1.434 . S
C512 C513 1.369 . S
C512 C514 1.419 . S
C512 H516 0.930 . S
C513 C512 1.369 . S
C513 C522 1.429 . S
C514 C512 1.419 . S
C514 C515 1.363 . S
C514 H517 0.929 . S
C515 C514 1.363 . S
C515 C521 1.428 . S
H516 C512 0.930 . S
H517 C514 0.929 . S
S518 N519 1.613 . S
S518 N520 1.610 . S
N519 S518 1.613 . S
N519 C522 1.350 . S
N520 S518 1.610 . S
N520 C521 1.351 . S
C521 C515 1.428 . S
C521 N520 1.351 . S
C521 C522 1.434 . S
C522 C513 1.429 . S
C522 N519 1.350 . S
C522 C521 1.434 . S
C523 C524 1.369 . S
C523 C525 1.419 . S
C523 H527 0.930 . S
C524 C523 1.369 . S
C524 C533 1.429 . S
C525 C523 1.419 . S
C525 C526 1.363 . S
C525 H528 0.929 . S
C526 C525 1.363 . S
C526 C532 1.428 . S
H527 C523 0.930 . S
H528 C525 0.929 . S
S529 N530 1.613 . S
S529 N531 1.610 . S
N530 S529 1.613 . S
N530 C533 1.350 . S
N531 S529 1.610 . S
N531 C532 1.351 . S
C532 C526 1.428 . S
C532 N531 1.351 . S
C532 C533 1.434 . S
C533 C524 1.429 . S
C533 N530 1.350 . S
C533 C532 1.434 . S
C534 C535 1.369 . S
C534 C536 1.419 . S
C534 H538 0.930 . S
C535 C534 1.369 . S
C535 C544 1.429 . S
C536 C534 1.419 . S
C536 C537 1.363 . S
C536 H539 0.929 . S
C537 C536 1.363 . S
C537 C543 1.428 . S
H538 C534 0.930 . S
H539 C536 0.929 . S
S540 N541 1.613 . S
S540 N542 1.610 . S
N541 S540 1.613 . S
N541 C544 1.350 . S
N542 S540 1.610 . S
N542 C543 1.351 . S
C543 C537 1.428 . S
C543 N542 1.351 . S
C543 C544 1.434 . S
C544 C535 1.429 . S
C544 N541 1.350 . S
C544 C543 1.434 . S
C545 C546 1.369 . S
C545 C547 1.419 . S
C545 H549 0.930 . S
C546 C545 1.369 . S
C546 C555 1.429 . S
C547 C545 1.419 . S
C547 C548 1.363 . S
C547 H550 0.929 . S
C548 C547 1.363 . S
C548 C554 1.428 . S
H549 C545 0.930 . S
H550 C547 0.929 . S
S551 N552 1.613 . S
S551 N553 1.610 . S
N552 S551 1.613 . S
N552 C555 1.350 . S
N553 S551 1.610 . S
N553 C554 1.351 . S
C554 C548 1.428 . S
C554 N553 1.351 . S
C554 C555 1.434 . S
C555 C546 1.429 . S
C555 N552 1.350 . S
C555 C554 1.434 . S
C556 C557 1.369 . S
C556 C558 1.419 . S
C556 H560 0.930 . S
C557 C556 1.369 . S
C557 C566 1.429 . S
C558 C556 1.419 . S
C558 C559 1.363 . S
C558 H561 0.929 . S
C559 C558 1.363 . S
C559 C565 1.428 . S
H560 C556 0.930 . S
H561 C558 0.929 . S
S562 N563 1.613 . S
S562 N564 1.610 . S
N563 S562 1.613 . S
N563 C566 1.350 . S
N564 S562 1.610 . S
N564 C565 1.351 . S
C565 C559 1.428 . S
C565 N564 1.351 . S
C565 C566 1.434 . S
C566 C557 1.429 . S
C566 N563 1.350 . S
C566 C565 1.434 . S
C567 C568 1.369 . S
C567 C569 1.419 . S
C567 H571 0.930 . S
C568 C567 1.369 . S
C568 C577 1.429 . S
C569 C567 1.419 . S
C569 C570 1.363 . S
C569 H572 0.929 . S
C570 C569 1.363 . S
C570 C576 1.428 . S
H571 C567 0.930 . S
H572 C569 0.929 . S
S573 N574 1.613 . S
S573 N575 1.610 . S
N574 S573 1.613 . S
N574 C577 1.350 . S
N575 S573 1.610 . S
N575 C576 1.351 . S
C576 C570 1.428 . S
C576 N575 1.351 . S
C576 C577 1.434 . S
C577 C568 1.429 . S
C577 N574 1.350 . S
C577 C576 1.434 . S
C578 C579 1.369 . S
C578 C580 1.419 . S
C578 H582 0.930 . S
C579 C578 1.369 . S
C579 C588 1.429 . S
C580 C578 1.419 . S
C580 C581 1.363 . S
C580 H583 0.929 . S
C581 C580 1.363 . S
C581 C587 1.428 . S
H582 C578 0.930 . S
H583 C580 0.929 . S
S584 N585 1.613 . S
S584 N586 1.610 . S
N585 S584 1.613 . S
N585 C588 1.350 . S
N586 S584 1.610 . S
N586 C587 1.351 . S
C587 C581 1.428 . S
C587 N586 1.351 . S
C587 C588 1.434 . S
C588 C579 1.429 . S
C588 N585 1.350 . S
C588 C587 1.434 . S
C589 C590 1.369 . S
C589 C591 1.419 . S
C589 H593 0.930 . S
C590 C589 1.369 . S
C590 C599 1.429 . S
C591 C589 1.419 . S
C591 C592 1.363 . S
C591 H594 0.929 . S
C592 C591 1.363 . S
C592 C598 1.428 . S
H593 C589 0.930 . S
H594 C591 0.929 . S
S595 N596 1.613 . S
S595 N597 1.610 . S
N596 S595 1.613 . S
N596 C599 1.350 . S
N597 S595 1.610 . S
N597 C598 1.351 . S
C598 C592 1.428 . S
C598 N597 1.351 . S
C598 C599 1.434 . S
C599 C590 1.429 . S
C599 N596 1.350 . S
C599 C598 1.434 . S
C600 C601 1.369 1_545 S
C600 C602 1.419 1_556 S
C600 H604 0.930 . S
C601 C600 1.369 1_565 S
C601 C610 1.429 . S
C602 C600 1.419 1_554 S
C602 C603 1.363 . S
C602 H605 0.929 . S
C603 C602 1.363 . S
C603 C609 1.428 1_545 S
H604 C600 0.930 . S
H605 C602 0.929 . S
S606 N607 1.613 1_554 S
S606 N608 1.610 . S
N607 S606 1.613 1_556 S
N607 C610 1.350 . S
N608 S606 1.610 . S
N608 C609 1.351 . S
C609 C603 1.428 1_565 S
C609 N608 1.351 . S
C609 C610 1.434 1_554 S
C610 C601 1.429 . S
C610 N607 1.350 . S
C610 C609 1.434 1_556 S
C611 C612 1.369 . S
C611 C613 1.419 . S
C611 H615 0.930 . S
C612 C611 1.369 . S
C612 C621 1.429 . S
C613 C611 1.419 . S
C613 C614 1.363 . S
C613 H616 0.929 . S
C614 C613 1.363 . S
C614 C620 1.428 . S
H615 C611 0.930 . S
H616 C613 0.929 . S
S617 N618 1.613 . S
S617 N619 1.610 . S
N618 S617 1.613 . S
N618 C621 1.350 . S
N619 S617 1.610 . S
N619 C620 1.351 . S
C620 C614 1.428 . S
C620 N619 1.351 . S
C620 C621 1.434 . S
C621 C612 1.429 . S
C621 N618 1.350 . S
C621 C620 1.434 . S
C622 C623 1.369 1_655 S
C622 C624 1.419 1_556 S
C622 H626 0.930 . S
C623 C622 1.369 1_455 S
C623 C632 1.429 . S
C624 C622 1.419 1_554 S
C624 C625 1.363 . S
C624 H627 0.929 . S
C625 C624 1.363 . S
C625 C631 1.428 1_655 S
H626 C622 0.930 . S
H627 C624 0.929 . S
S628 N629 1.613 1_554 S
S628 N630 1.610 . S
N629 S628 1.613 1_556 S
N629 C632 1.350 . S
N630 S628 1.610 . S
N630 C631 1.351 . S
C631 C625 1.428 1_455 S
C631 N630 1.351 . S
C631 C632 1.434 1_554 S
C632 C623 1.429 . S
C632 N629 1.350 . S
C632 C631 1.434 1_556 S
C633 C634 1.369 . S
C633 C635 1.419 . S
C633 H637 0.930 . S
C634 C633 1.369 . S
C634 C643 1.429 1_545 S
C635 C633 1.419 . S
C635 C636 1.363 1_545 S
C635 H638 0.929 . S
C636 C635 1.363 1_565 S
C636 C642 1.428 . S
H637 C633 0.930 . S
H638 C635 0.929 . S
S639 N640 1.613 . S
S639 N641 1.610 . S
N640 S639 1.613 . S
N640 C643 1.350 . S
N641 S639 1.610 . S
N641 C642 1.351 . S
C642 C636 1.428 . S
C642 N641 1.351 . S
C642 C643 1.434 . S
C643 C634 1.429 1_565 S
C643 N640 1.350 . S
C643 C642 1.434 . S
C644 C645 1.369 . S
C644 C646 1.419 1_554 S
C644 H648 0.930 . S
C645 C644 1.369 . S
C645 C654 1.429 . S
C646 C644 1.419 1_556 S
C646 C647 1.363 . S
C646 H649 0.929 . S
C647 C646 1.363 . S
C647 C653 1.428 . S
H648 C644 0.930 . S
H649 C646 0.929 . S
S650 N651 1.613 1_556 S
S650 N652 1.610 . S
N651 S650 1.613 1_554 S
N651 C654 1.350 . S
N652 S650 1.610 . S
N652 C653 1.351 . S
C653 C647 1.428 . S
C653 N652 1.351 . S
C653 C654 1.434 1_556 S
C654 C645 1.429 . S
C654 N651 1.350 . S
C654 C653 1.434 1_554 S
C655 C656 1.369 . S
C655 C657 1.420 . S
C655 H659 0.930 . S
C656 C655 1.369 . S
C656 C665 1.424 . S
C657 C655 1.420 . S
C657 C658 1.367 1_455 S
C657 H660 0.924 . S
C658 C657 1.367 1_655 S
C658 C664 1.428 . S
H659 C655 0.930 . S
H660 C657 0.924 . S
S661 N662 1.613 1_655 S
S661 N663 1.610 . S
N662 S661 1.613 1_455 S
N662 C665 1.357 . S
N663 S661 1.610 . S
N663 C664 1.351 . S
C664 C658 1.428 . S
C664 N663 1.351 . S
C664 C665 1.432 1_655 S
C665 C656 1.424 . S
C665 N662 1.357 . S
C665 C664 1.432 1_455 S
C666 C667 1.369 1_545 S
C666 C668 1.419 1_556 S
C666 H670 0.930 . S
C667 C666 1.369 1_565 S
C667 C676 1.429 . S
C668 C666 1.419 1_554 S
C668 C669 1.363 . S
C668 H671 0.929 . S
C669 C668 1.363 . S
C669 C675 1.428 1_545 S
H670 C666 0.930 . S
H671 C668 0.929 . S
S672 N673 1.613 1_554 S
S672 N674 1.610 . S
N673 S672 1.613 1_556 S
N673 C676 1.350 . S
N674 S672 1.610 . S
N674 C675 1.351 . S
C675 C669 1.428 1_565 S
C675 N674 1.351 . S
C675 C676 1.434 1_554 S
C676 C667 1.429 . S
C676 N673 1.350 . S
C676 C675 1.434 1_556 S
C677 C678 1.369 . S
C677 C679 1.419 . S
C677 H681 0.930 . S
C678 C677 1.369 . S
C678 C687 1.429 . S
C679 C677 1.419 . S
C679 C680 1.363 . S
C679 H682 0.929 . S
C680 C679 1.363 . S
C680 C686 1.428 . S
H681 C677 0.930 . S
H682 C679 0.929 . S
S683 N684 1.613 . S
S683 N685 1.610 . S
N684 S683 1.613 . S
N684 C687 1.350 . S
N685 S683 1.610 . S
N685 C686 1.351 . S
C686 C680 1.428 . S
C686 N685 1.351 . S
C686 C687 1.434 . S
C687 C678 1.429 . S
C687 N684 1.350 . S
C687 C686 1.434 . S
C688 C689 1.369 . S
C688 C690 1.419 1_554 S
C688 H692 0.930 . S
C689 C688 1.369 . S
C689 C698 1.429 1_655 S
C690 C688 1.419 1_556 S
C690 C691 1.363 1_655 S
C690 H693 0.929 . S
C691 C690 1.363 1_455 S
C691 C697 1.428 . S
H692 C688 0.930 . S
H693 C690 0.929 . S
S694 N695 1.613 . S
S694 N696 1.610 1_554 S
N695 S694 1.613 . S
N695 C698 1.350 . S
N696 S694 1.610 1_556 S
N696 C697 1.351 . S
C697 C691 1.428 . S
C697 N696 1.351 . S
C697 C698 1.434 1_556 S
C698 C689 1.429 1_455 S
C698 N695 1.350 . S
C698 C697 1.434 1_554 S
C699 C700 1.369 . S
C699 C701 1.419 . S
C699 H703 0.930 . S
C700 C699 1.369 . S
C700 C709 1.429 1_565 S
C701 C699 1.419 . S
C701 C702 1.363 1_565 S
C701 H704 0.929 . S
C702 C701 1.363 1_545 S
C702 C708 1.428 . S
H703 C699 0.930 . S
H704 C701 0.929 . S
S705 N706 1.613 . S
S705 N707 1.610 . S
N706 S705 1.613 . S
N706 C709 1.350 . S
N707 S705 1.610 . S
N707 C708 1.351 . S
C708 C702 1.428 . S
C708 N707 1.351 . S
C708 C709 1.434 . S
C709 C700 1.429 1_545 S
C709 N706 1.350 . S
C709 C708 1.434 . S
C710 C711 1.369 . S
C710 C712 1.419 1_554 S
C710 H714 0.930 . S
C711 C710 1.369 . S
C711 C720 1.429 . S
C712 C710 1.419 1_556 S
C712 C713 1.363 . S
C712 H715 0.929 . S
C713 C712 1.363 . S
C713 C719 1.428 . S
H714 C710 0.930 . S
H715 C712 0.929 . S
S716 N717 1.613 1_556 S
S716 N718 1.610 . S
N717 S716 1.613 1_554 S
N717 C720 1.350 . S
N718 S716 1.610 . S
N718 C719 1.351 . S
C719 C713 1.428 . S
C719 N718 1.351 . S
C719 C720 1.434 1_556 S
C720 C711 1.429 . S
C720 N717 1.350 . S
C720 C719 1.434 1_554 S
C721 C722 1.369 . S
C721 C723 1.419 . S
C721 H725 0.930 . S
C722 C721 1.369 . S
C722 C731 1.429 1_455 S
C723 C721 1.419 . S
C723 C724 1.363 1_455 S
C723 H726 0.929 . S
C724 C723 1.363 1_655 S
C724 C730 1.428 . S
H725 C721 0.930 . S
H726 C723 0.929 . S
S727 N728 1.613 . S
S727 N729 1.610 . S
N728 S727 1.613 . S
N728 C731 1.350 . S
N729 S727 1.610 . S
N729 C730 1.351 . S
C730 C724 1.428 . S
C730 N729 1.351 . S
C730 C731 1.434 . S
C731 C722 1.429 1_655 S
C731 N728 1.350 . S
C731 C730 1.434 . S
C732 C733 1.369 . S
C732 C734 1.419 . S
C732 H736 0.930 . S
C733 C732 1.369 . S
C733 C742 1.429 . S
C734 C732 1.419 . S
C734 C735 1.363 . S
C734 H737 0.929 . S
C735 C734 1.363 . S
C735 C741 1.428 . S
H736 C732 0.930 . S
H737 C734 0.929 . S
S738 N739 1.613 . S
S738 N740 1.610 . S
N739 S738 1.613 . S
N739 C742 1.350 . S
N740 S738 1.610 . S
N740 C741 1.351 . S
C741 C735 1.428 . S
C741 N740 1.351 . S
C741 C742 1.434 . S
C742 C733 1.429 . S
C742 N739 1.350 . S
C742 C741 1.434 . S
C743 C744 1.369 . S
C743 C745 1.419 . S
C743 H747 0.930 . S
C744 C743 1.369 . S
C744 C753 1.429 . S
C745 C743 1.419 . S
C745 C746 1.363 . S
C745 H748 0.929 . S
C746 C745 1.363 . S
C746 C752 1.428 . S
H747 C743 0.930 . S
H748 C745 0.929 . S
S749 N750 1.613 . S
S749 N751 1.610 . S
N750 S749 1.613 . S
N750 C753 1.350 . S
N751 S749 1.610 . S
N751 C752 1.351 . S
C752 C746 1.428 . S
C752 N751 1.351 . S
C752 C753 1.434 . S
C753 C744 1.429 . S
C753 N750 1.350 . S
C753 C752 1.434 . S
C754 C755 1.369 . S
C754 C756 1.419 . S
C754 H758 0.930 . S
C755 C754 1.369 . S
C755 C764 1.429 . S
C756 C754 1.419 . S
C756 C757 1.363 . S
C756 H759 0.929 . S
C757 C756 1.363 . S
C757 C763 1.428 . S
H758 C754 0.930 . S
H759 C756 0.929 . S
S760 N761 1.613 . S
S760 N762 1.610 . S
N761 S760 1.613 . S
N761 C764 1.350 1_455 S
N762 S760 1.610 . S
N762 C763 1.351 1_455 S
C763 C757 1.428 . S
C763 N762 1.351 1_655 S
C763 C764 1.434 . S
C764 C755 1.429 . S
C764 N761 1.350 1_655 S
C764 C763 1.434 . S
C765 C766 1.369 . S
C765 C767 1.419 . S
C765 H769 0.930 . S
C766 C765 1.369 . S
C766 C775 1.429 . S
C767 C765 1.419 . S
C767 C768 1.363 . S
C767 H770 0.929 . S
C768 C767 1.363 . S
C768 C774 1.428 . S
H769 C765 0.930 . S
H770 C767 0.929 . S
S771 N772 1.613 1_545 S
S771 N773 1.610 1_545 S
N772 S771 1.613 1_565 S
N772 C775 1.350 . S
N773 S771 1.610 1_565 S
N773 C774 1.351 . S
C774 C768 1.428 . S
C774 N773 1.351 . S
C774 C775 1.434 . S
C775 C766 1.429 . S
C775 N772 1.350 . S
C775 C774 1.434 . S
C776 C777 1.369 . S
C776 C778 1.419 . S
C776 H780 0.930 . S
C777 C776 1.369 . S
C777 C786 1.429 . S
C778 C776 1.419 . S
C778 C779 1.363 . S
C778 H781 0.929 . S
C779 C778 1.363 . S
C779 C785 1.428 . S
H780 C776 0.930 . S
H781 C778 0.929 . S
S782 N783 1.613 . S
S782 N784 1.610 . S
N783 S782 1.613 . S
N783 C786 1.350 . S
N784 S782 1.610 . S
N784 C785 1.351 . S
C785 C779 1.428 . S
C785 N784 1.351 . S
C785 C786 1.434 . S
C786 C777 1.429 . S
C786 N783 1.350 . S
C786 C785 1.434 . S
C787 C788 1.369 . S
C787 C789 1.419 . S
C787 H791 0.930 . S
C788 C787 1.369 . S
C788 C797 1.429 . S
C789 C787 1.419 . S
C789 C790 1.363 . S
C789 H792 0.929 . S
C790 C789 1.363 . S
C790 C796 1.428 . S
H791 C787 0.930 . S
H792 C789 0.929 . S
S793 N794 1.613 . S
S793 N795 1.610 . S
N794 S793 1.613 . S
N794 C797 1.350 . S
N795 S793 1.610 . S
N795 C796 1.351 . S
C796 C790 1.428 . S
C796 N795 1.351 . S
C796 C797 1.434 . S
C797 C788 1.429 . S
C797 N794 1.350 . S
C797 C796 1.434 . S
C798 C799 1.369 . S
C798 C800 1.419 . S
C798 H802 0.930 . S
C799 C798 1.369 . S
C799 C808 1.429 . S
C800 C798 1.419 . S
C800 C801 1.363 . S
C800 H803 0.929 . S
C801 C800 1.363 . S
C801 C807 1.428 . S
H802 C798 0.930 . S
H803 C800 0.929 . S
S804 N805 1.613 . S
S804 N806 1.610 . S
N805 S804 1.613 . S
N805 C808 1.350 . S
N806 S804 1.610 . S
N806 C807 1.351 . S
C807 C801 1.428 . S
C807 N806 1.351 . S
C807 C808 1.434 . S
C808 C799 1.429 . S
C808 N805 1.350 . S
C808 C807 1.434 . S
C809 C810 1.369 . S
C809 C811 1.419 . S
C809 H813 0.930 . S
C810 C809 1.369 . S
C810 C819 1.429 . S
C811 C809 1.419 . S
C811 C812 1.363 . S
C811 H814 0.929 . S
C812 C811 1.363 . S
C812 C818 1.428 . S
H813 C809 0.930 . S
H814 C811 0.929 . S
S815 N816 1.613 1_545 S
S815 N817 1.610 1_545 S
N816 S815 1.613 1_565 S
N816 C819 1.350 . S
N817 S815 1.610 1_565 S
N817 C818 1.351 . S
C818 C812 1.428 . S
C818 N817 1.351 . S
C818 C819 1.434 . S
C819 C810 1.429 . S
C819 N816 1.350 . S
C819 C818 1.434 . S
C820 C821 1.369 . S
C820 C822 1.419 . S
C820 H824 0.930 . S
C821 C820 1.369 . S
C821 C830 1.429 . S
C822 C820 1.419 . S
C822 C823 1.363 . S
C822 H825 0.929 . S
C823 C822 1.363 . S
C823 C829 1.428 . S
H824 C820 0.930 . S
H825 C822 0.929 . S
S826 N827 1.613 . S
S826 N828 1.610 . S
N827 S826 1.613 . S
N827 C830 1.350 . S
N828 S826 1.610 . S
N828 C829 1.351 . S
C829 C823 1.428 . S
C829 N828 1.351 . S
C829 C830 1.434 . S
C830 C821 1.429 . S
C830 N827 1.350 . S
C830 C829 1.434 . S
C831 C832 1.369 . S
C831 C833 1.419 . S
C831 H835 0.930 . S
C832 C831 1.369 . S
C832 C841 1.429 . S
C833 C831 1.419 . S
C833 C834 1.363 . S
C833 H836 0.929 . S
C834 C833 1.363 . S
C834 C840 1.428 . S
H835 C831 0.930 . S
H836 C833 0.929 . S
S837 N838 1.613 . S
S837 N839 1.610 . S
N838 S837 1.613 . S
N838 C841 1.350 . S
N839 S837 1.610 . S
N839 C840 1.351 . S
C840 C834 1.428 . S
C840 N839 1.351 . S
C840 C841 1.434 . S
C841 C832 1.429 . S
C841 N838 1.350 . S
C841 C840 1.434 . S
C842 C843 1.369 . S
C842 C844 1.419 . S
C842 H846 0.930 . S
C843 C842 1.369 . S
C843 C852 1.429 . S
C844 C842 1.419 . S
C844 C845 1.363 . S
C844 H847 0.929 . S
C845 C844 1.363 . S
C845 C851 1.428 . S
H846 C842 0.930 . S
H847 C844 0.929 . S
S848 N849 1.613 . S
S848 N850 1.610 . S
N849 S848 1.613 . S
N849 C852 1.350 1_565 S
N850 S848 1.610 . S
N850 C851 1.351 1_565 S
C851 C845 1.428 . S
C851 N850 1.351 1_545 S
C851 C852 1.434 . S
C852 C843 1.429 . S
C852 N849 1.350 1_545 S
C852 C851 1.434 . S
C853 C854 1.369 . S
C853 C855 1.419 . S
C853 H857 0.930 . S
C854 C853 1.369 . S
C854 C863 1.429 . S
C855 C853 1.419 . S
C855 C856 1.363 . S
C855 H858 0.929 . S
C856 C855 1.363 . S
C856 C862 1.428 . S
H857 C853 0.930 . S
H858 C855 0.929 . S
S859 N860 1.613 . S
S859 N861 1.610 . S
N860 S859 1.613 . S
N860 C863 1.350 . S
N861 S859 1.610 . S
N861 C862 1.351 . S
C862 C856 1.428 . S
C862 N861 1.351 . S
C862 C863 1.434 . S
C863 C854 1.429 . S
C863 N860 1.350 . S
C863 C862 1.434 . S
C337 C215 1.350 . S
C339 C5 1.351 . S
C348 C19 1.355 . S
C350 C229 1.355 . S
C359 C33 1.351 . S
C361 C243 1.351 . S
C370 C47 1.349 . S
C372 C173 1.350 . S
C381 C187 1.352 . S
C383 C61 1.352 . S
C392 C75 1.350 . S
C394 C201 1.351 . S
C403 C299 1.355 . S
C405 C89 1.354 . S
C414 C103 1.350 . S
C416 C313 1.351 . S
C425 C117 1.352 . S
C427 C327 1.352 . S
C436 C257 1.350 . S
C438 C131 1.351 . S
C447 C145 1.355 . S
C449 C271 1.354 . S
C458 C285 1.352 . S
C460 C159 1.352 . S
C469 C0 1.546 . S
C471 C322 1.546 . S
C480 C252 1.543 . S
C482 C14 1.543 . S
C491 C28 1.543 . S
C493 C266 1.544 . S
C502 C280 1.547 . S
C504 C42 1.547 . S
C513 C56 1.542 . S
C515 C294 1.543 . S
C524 C308 1.543 . S
C526 C70 1.543 . S
C535 C84 1.543 . S
C537 C182 1.544 . S
C546 C196 1.546 . S
C548 C98 1.546 . S
C557 C210 1.547 . S
C559 C112 1.547 . S
C568 C224 1.542 . S
C570 C126 1.543 . S
C579 C140 1.547 . S
C581 C238 1.546 . S
C590 C154 1.545 . S
C592 C168 1.545 . S
C601 C109 1.402 . S
C603 C11 1.407 . S
C612 C123 1.402 . S
C614 C25 1.405 . S
C623 C137 1.402 . S
C625 C39 1.407 . S
C634 C151 1.409 . S
C636 C53 1.404 . S
C645 C67 1.402 . S
C647 C165 1.405 . S
C656 C81 1.403 . S
C658 C95 1.405 . S
C667 C179 1.402 . S
C669 C277 1.407 . S
C678 C193 1.406 . S
C680 C291 1.408 . S
C689 C305 1.408 . S
C691 C207 1.403 . S
C700 C319 1.408 . S
C702 C221 1.406 . S
C711 C333 1.406 . S
C713 C235 1.408 . S
C722 C263 1.405 . S
C724 C249 1.403 . S
C733 C9 1.578 . S
C735 C275 1.578 . S
C744 C289 1.576 . S
C746 C23 1.577 . S
C755 C37 1.577 . S
C757 C303 1.577 . S
C766 C317 1.576 . S
C768 C51 1.577 . S
C777 C65 1.578 . S
C779 C331 1.578 . S
C788 C261 1.577 . S
C790 C79 1.577 . S
C799 C93 1.578 . S
C801 C247 1.578 . S
C810 C177 1.577 . S
C812 C107 1.577 . S
C821 C121 1.577 . S
C823 C191 1.577 . S
C832 C135 1.578 . S
C834 C205 1.578 . S
C843 C149 1.577 . S
C845 C219 1.577 . S
C854 C163 1.578 . S
C856 C233 1.578 . S
