# Generated by pormake.
# Topology smd, (6)-cn, num edge types: 1
# Building blocks:
#     Node 0, Type 0, BuildingBlock: CUKXOW_clean_sbu_0, # of connection points: 6
#     Node 1, Type 0, BuildingBlock: CUKXOW_clean_sbu_0, # of connection points: 6
#     Node 2, Type 0, BuildingBlock: CUKXOW_clean_sbu_0, # of connection points: 6
#     Node 3, Type 0, BuildingBlock: CUKXOW_clean_sbu_0, # of connection points: 6
#     Node 4, Type 0, BuildingBlock: CUKXOW_clean_sbu_0, # of connection points: 6
#     Node 5, Type 0, BuildingBlock: CUKXOW_clean_sbu_0, # of connection points: 6
#     Node 6, Type 0, BuildingBlock: CUKXOW_clean_sbu_0, # of connection points: 6
#     Node 7, Type 0, BuildingBlock: CUKXOW_clean_sbu_0, # of connection points: 6
#     Node 8, Type 0, BuildingBlock: CUKXOW_clean_sbu_0, # of connection points: 6
#     Node 9, Type 0, BuildingBlock: CUKXOW_clean_sbu_0, # of connection points: 6
#     Node 10, Type 0, BuildingBlock: CUKXOW_clean_sbu_0, # of connection points: 6
#     Node 11, Type 0, BuildingBlock: CUKXOW_clean_sbu_0, # of connection points: 6
#     Node 12, Type 0, BuildingBlock: CUKXOW_clean_sbu_0, # of connection points: 6
#     Node 13, Type 0, BuildingBlock: CUKXOW_clean_sbu_0, # of connection points: 6
#     Node 14, Type 0, BuildingBlock: CUKXOW_clean_sbu_0, # of connection points: 6
#     Node 15, Type 0, BuildingBlock: CUKXOW_clean_sbu_0, # of connection points: 6
#     Node 16, Type 0, BuildingBlock: CUKXOW_clean_sbu_0, # of connection points: 6
#     Node 17, Type 0, BuildingBlock: CUKXOW_clean_sbu_0, # of connection points: 6
#     Edge 18, Type (0, 0), BuildingBlock: TEMPAE_clean_linker_10, # of connection points: 2
#     Edge 19, Type (0, 0), BuildingBlock: TEMPAE_clean_linker_10, # of connection points: 2
#     Edge 20, Type (0, 0), BuildingBlock: TEMPAE_clean_linker_10, # of connection points: 2
#     Edge 21, Type (0, 0), BuildingBlock: TEMPAE_clean_linker_10, # of connection points: 2
#     Edge 22, Type (0, 0), BuildingBlock: TEMPAE_clean_linker_10, # of connection points: 2
#     Edge 23, Type (0, 0), BuildingBlock: TEMPAE_clean_linker_10, # of connection points: 2
#     Edge 24, Type (0, 0), BuildingBlock: TEMPAE_clean_linker_10, # of connection points: 2
#     Edge 25, Type (0, 0), BuildingBlock: TEMPAE_clean_linker_10, # of connection points: 2
#     Edge 26, Type (0, 0), BuildingBlock: TEMPAE_clean_linker_10, # of connection points: 2
#     Edge 27, Type (0, 0), BuildingBlock: TEMPAE_clean_linker_10, # of connection points: 2
#     Edge 28, Type (0, 0), BuildingBlock: TEMPAE_clean_linker_10, # of connection points: 2
#     Edge 29, Type (0, 0), BuildingBlock: TEMPAE_clean_linker_10, # of connection points: 2
#     Edge 30, Type (0, 0), BuildingBlock: TEMPAE_clean_linker_10, # of connection points: 2
#     Edge 31, Type (0, 0), BuildingBlock: TEMPAE_clean_linker_10, # of connection points: 2
#     Edge 32, Type (0, 0), BuildingBlock: TEMPAE_clean_linker_10, # of connection points: 2
#     Edge 33, Type (0, 0), BuildingBlock: TEMPAE_clean_linker_10, # of connection points: 2
#     Edge 34, Type (0, 0), BuildingBlock: TEMPAE_clean_linker_10, # of connection points: 2
#     Edge 35, Type (0, 0), BuildingBlock: TEMPAE_clean_linker_10, # of connection points: 2
#     Edge 36, Type (0, 0), BuildingBlock: TEMPAE_clean_linker_10, # of connection points: 2
#     Edge 37, Type (0, 0), BuildingBlock: TEMPAE_clean_linker_10, # of connection points: 2
#     Edge 38, Type (0, 0), BuildingBlock: TEMPAE_clean_linker_10, # of connection points: 2
#     Edge 39, Type (0, 0), BuildingBlock: TEMPAE_clean_linker_10, # of connection points: 2
#     Edge 40, Type (0, 0), BuildingBlock: TEMPAE_clean_linker_10, # of connection points: 2
#     Edge 41, Type (0, 0), BuildingBlock: TEMPAE_clean_linker_10, # of connection points: 2
#     Edge 42, Type (0, 0), BuildingBlock: TEMPAE_clean_linker_10, # of connection points: 2
#     Edge 43, Type (0, 0), BuildingBlock: TEMPAE_clean_linker_10, # of connection points: 2
#     Edge 44, Type (0, 0), BuildingBlock: TEMPAE_clean_linker_10, # of connection points: 2
#     Edge 45, Type (0, 0), BuildingBlock: TEMPAE_clean_linker_10, # of connection points: 2
#     Edge 46, Type (0, 0), BuildingBlock: TEMPAE_clean_linker_10, # of connection points: 2
#     Edge 47, Type (0, 0), BuildingBlock: TEMPAE_clean_linker_10, # of connection points: 2
#     Edge 48, Type (0, 0), BuildingBlock: TEMPAE_clean_linker_10, # of connection points: 2
#     Edge 49, Type (0, 0), BuildingBlock: TEMPAE_clean_linker_10, # of connection points: 2
#     Edge 50, Type (0, 0), BuildingBlock: TEMPAE_clean_linker_10, # of connection points: 2
#     Edge 51, Type (0, 0), BuildingBlock: TEMPAE_clean_linker_10, # of connection points: 2
#     Edge 52, Type (0, 0), BuildingBlock: TEMPAE_clean_linker_10, # of connection points: 2
#     Edge 53, Type (0, 0), BuildingBlock: TEMPAE_clean_linker_10, # of connection points: 2
#     Edge 54, Type (0, 0), BuildingBlock: TEMPAE_clean_linker_10, # of connection points: 2
#     Edge 55, Type (0, 0), BuildingBlock: TEMPAE_clean_linker_10, # of connection points: 2
#     Edge 56, Type (0, 0), BuildingBlock: TEMPAE_clean_linker_10, # of connection points: 2
#     Edge 57, Type (0, 0), BuildingBlock: TEMPAE_clean_linker_10, # of connection points: 2
#     Edge 58, Type (0, 0), BuildingBlock: TEMPAE_clean_linker_10, # of connection points: 2
#     Edge 59, Type (0, 0), BuildingBlock: TEMPAE_clean_linker_10, # of connection points: 2
#     Edge 60, Type (0, 0), BuildingBlock: TEMPAE_clean_linker_10, # of connection points: 2
#     Edge 61, Type (0, 0), BuildingBlock: TEMPAE_clean_linker_10, # of connection points: 2
#     Edge 62, Type (0, 0), BuildingBlock: TEMPAE_clean_linker_10, # of connection points: 2
#     Edge 63, Type (0, 0), BuildingBlock: TEMPAE_clean_linker_10, # of connection points: 2
#     Edge 64, Type (0, 0), BuildingBlock: TEMPAE_clean_linker_10, # of connection points: 2
#     Edge 65, Type (0, 0), BuildingBlock: TEMPAE_clean_linker_10, # of connection points: 2
#     Edge 66, Type (0, 0), BuildingBlock: TEMPAE_clean_linker_10, # of connection points: 2
#     Edge 67, Type (0, 0), BuildingBlock: TEMPAE_clean_linker_10, # of connection points: 2
#     Edge 68, Type (0, 0), BuildingBlock: TEMPAE_clean_linker_10, # of connection points: 2
#     Edge 69, Type (0, 0), BuildingBlock: TEMPAE_clean_linker_10, # of connection points: 2
#     Edge 70, Type (0, 0), BuildingBlock: TEMPAE_clean_linker_10, # of connection points: 2
#     Edge 71, Type (0, 0), BuildingBlock: TEMPAE_clean_linker_10, # of connection points: 2
# Relax obj value: 0.274
# Max RMSD: 0.299
# Mean RMSD: 0.277
data_MOF--net-smd--node1-CUKXOW_clean_sbu_0--edge1-TEMPAE_clean_linker_10
_symmetry_space_group_name_H-M    P1
_symmetry_Int_Tables_number       1
_symmetry_cell_setting            triclinic
loop_
_symmetry_equiv_pos_as_xyz
'x, y, z'
_cell_length_a     75.231873
_cell_length_b     79.131926
_cell_length_c     14.58089
_cell_angle_alpha  92.8012
_cell_angle_beta   92.793797
_cell_angle_gamma 119.97574
loop_
_atom_site_label
_atom_site_type_symbol
_atom_site_fract_x
_atom_site_fract_y
_atom_site_fract_z
_atom_type_partial_charge
Tb0 Tb 0.00783 0.22733 0.6351 0.0
C1 C 0.05482 0.23866 0.64639 0.0
Tb2 Tb 0.04197 0.27086 0.62387 0.0
O3 O 0.01484 0.22019 0.49975 0.0
O4 O 0.0187 0.24773 0.53184 0.0
O5 O 0.03587 0.22571 0.66737 0.0
C6 C 0.0676 0.30516 0.56227 0.0
O7 O 0.05963 0.25594 0.61655 0.0
C8 C 0.03714 0.26227 0.79802 0.0
C9 C 0.99632 0.2612 0.63406 0.0
O10 O 0.05523 0.30243 0.62612 0.0
O11 O 0.06558 0.28847 0.53243 0.0
O12 O 0.05082 0.27914 0.77305 0.0
O13 O 0.02762 0.25173 0.72526 0.0
O14 O 0.0144 0.27286 0.60289 0.0
O15 O 0.99136 0.24362 0.66174 0.0
C16 C 0.9751 0.19221 0.65554 0.0
O17 O 0.97666 0.20359 0.59157 0.0
O18 O 0.99199 0.20083 0.71035 0.0
C19 C 0.02127 0.23739 0.47133 0.0
Tb20 Tb 0.80836 0.82472 0.55194 0.0
C21 C 0.8415 0.81081 0.57384 0.0
Tb22 Tb 0.7937 0.78005 0.56418 0.0
O23 O 0.79373 0.82371 0.67923 0.0
O24 O 0.80614 0.80577 0.65711 0.0
O25 O 0.83793 0.82516 0.55242 0.0
C26 C 0.77923 0.7442 0.62332 0.0
O27 O 0.82681 0.79303 0.59092 0.0
C28 C 0.79567 0.7888 0.39015 0.0
C29 C 0.76131 0.79352 0.51978 0.0
O30 O 0.79576 0.75355 0.58029 0.0
O31 O 0.7712 0.75529 0.63516 0.0
O32 O 0.78948 0.77132 0.41509 0.0
O33 O 0.80029 0.7998 0.46309 0.0
O34 O 0.76509 0.78089 0.56092 0.0
O35 O 0.77622 0.81074 0.49812 0.0
C36 C 0.82123 0.86249 0.52517 0.0
O37 O 0.8229 0.85571 0.60243 0.0
O38 O 0.81308 0.848 0.46124 0.0
C39 C 0.79633 0.81011 0.71206 0.0
Tb40 Tb 0.22035 0.03417 0.58179 0.0
C41 C 0.18719 0.98871 0.56211 0.0
Tb42 Tb 0.23453 0.00339 0.54617 0.0
O43 O 0.20522 0.02635 0.44201 0.0
O44 O 0.23143 0.02435 0.47055 0.0
O45 O 0.1916 0.00654 0.596 0.0
C46 C 0.24901 0.9815 0.47467 0.0
O47 O 0.20108 0.98494 0.52797 0.0
C48 C 0.23013 0.00831 0.72392 0.0
C49 C 0.26818 0.04796 0.58318 0.0
O50 O 0.23319 0.98217 0.43855 0.0
O51 O 0.25635 0.99301 0.54997 0.0
O52 O 0.23455 0.99553 0.68987 0.0
O53 O 0.2286 0.01704 0.65706 0.0
O54 O 0.26326 0.0307 0.54203 0.0
O55 O 0.25407 0.05171 0.615 0.0
C56 C 0.21633 0.06525 0.62772 0.0
O57 O 0.20969 0.04976 0.67376 0.0
O58 O 0.22498 0.06299 0.55711 0.0
C59 C 0.21749 0.02101 0.40856 0.0
Tb60 Tb 0.99307 0.78254 0.64231 0.0
C61 C 0.04008 0.79772 0.62392 0.0
Tb62 Tb 0.02401 0.82783 0.62672 0.0
O63 O 0.99759 0.77564 0.50149 0.0
O64 O 1.00134 0.80303 0.53845 0.0
O65 O 0.02292 0.78454 0.65744 0.0
C66 C 0.05026 0.86396 0.57879 0.0
O67 O 0.04314 0.81488 0.59981 0.0
C68 C 0.02155 0.8182 0.80109 0.0
C69 C 0.97628 0.81225 0.63906 0.0
O70 O 0.04713 0.84762 0.53747 0.0
O71 O 0.03789 0.85978 0.64398 0.0
O72 O 0.03361 0.83558 0.77649 0.0
O73 O 0.01244 0.80784 0.72766 0.0
O74 O 0.99392 0.82596 0.60941 0.0
O75 O 0.97352 0.79531 0.66672 0.0
C76 C 0.97044 0.74605 0.69436 0.0
O77 O 0.96474 0.75353 0.62943 0.0
O78 O 0.98837 0.75945 0.73206 0.0
C79 C 0.00357 0.79295 0.47493 0.0
Tb80 Tb 0.23174 0.2693 0.62402 0.0
C81 C 0.26952 0.26252 0.66044 0.0
Tb82 Tb 0.22369 0.22711 0.65112 0.0
O83 O 0.2366 0.28001 0.77218 0.0
O84 O 0.22975 0.25215 0.73222 0.0
O85 O 0.26246 0.27315 0.62248 0.0
C86 C 0.21405 0.19105 0.69406 0.0
O87 O 0.25711 0.2449 0.68869 0.0
C88 C 0.23036 0.23888 0.48228 0.0
C89 C 0.18632 0.23577 0.63766 0.0
O90 O 0.22802 0.20738 0.73875 0.0
O91 O 0.20519 0.19511 0.62692 0.0
O92 O 0.23537 0.22681 0.51576 0.0
O93 O 0.22073 0.24259 0.54078 0.0
O94 O 0.19336 0.22455 0.67126 0.0
O95 O 0.19842 0.25269 0.60326 0.0
C96 C 0.24082 0.30094 0.53584 0.0
O97 O 0.22927 0.29539 0.60446 0.0
O98 O 0.24708 0.28865 0.5173 0.0
C99 C 0.23328 0.26355 0.80251 0.0
Tb100 Tb 0.79663 0.04726 0.63319 0.0
C101 C 0.76361 0.00366 0.59422 0.0
Tb102 Tb 0.81133 0.01689 0.5974 0.0
O103 O 0.78279 0.04038 0.49153 0.0
O104 O 0.809 0.03839 0.52241 0.0
O105 O 0.76837 0.0201 0.64335 0.0
C106 C 0.81906 0.98926 0.52701 0.0
O107 O 0.77784 1.00052 0.55909 0.0
C108 C 0.80529 0.02031 0.77417 0.0
C109 C 0.84433 0.06189 0.64456 0.0
O110 O 0.80225 0.98983 0.51072 0.0
O111 O 0.83197 0.00486 0.57969 0.0
O112 O 0.81107 0.00857 0.74036 0.0
O113 O 0.80326 0.02886 0.70788 0.0
O114 O 0.8406 0.04495 0.60172 0.0
O115 O 0.82946 0.0648 0.67268 0.0
C116 C 0.7875 0.07494 0.68305 0.0
O117 O 0.79681 0.0745 0.61112 0.0
O118 O 0.78374 0.05993 0.72878 0.0
C119 C 0.79544 0.03546 0.4591 0.0
Tb120 Tb 0.69006 0.55534 0.70832 0.0
C121 C 0.64246 0.52194 0.70695 0.0
Tb122 Tb 0.657 0.56718 0.7382 0.0
O123 O 0.70257 0.56716 0.85091 0.0
O124 O 0.67132 0.55456 0.81562 0.0
O125 O 0.66177 0.52603 0.69591 0.0
C126 C 0.6357 0.57887 0.8365 0.0
O127 O 0.63754 0.53554 0.72832 0.0
C128 C 0.66418 0.56771 0.56177 0.0
C129 C 0.70244 0.59964 0.71298 0.0
O130 O 0.62895 0.56837 0.75779 0.0
O131 O 0.65435 0.58278 0.85898 0.0
O132 O 0.65135 0.57245 0.59496 0.0
O133 O 0.67205 0.56345 0.62858 0.0
O134 O 0.6858 0.5952 0.75668 0.0
O135 O 0.7055 0.58592 0.67298 0.0
C136 C 0.7185 0.54559 0.66976 0.0
O137 O 0.71841 0.55522 0.74374 0.0
O138 O 0.70209 0.54096 0.6159 0.0
C139 C 0.68517 0.56339 0.88063 0.0
Tb140 Tb 0.46911 0.16423 0.69169 0.0
C141 C 0.50631 0.15656 0.70977 0.0
Tb142 Tb 0.46041 0.12187 0.71478 0.0
O143 O 0.48357 0.1727 0.83348 0.0
O144 O 0.45956 0.14436 0.79718 0.0
O145 O 0.49964 0.16781 0.67409 0.0
C146 C 0.45383 0.08983 0.79283 0.0
O147 O 0.49379 0.13944 0.74153 0.0
C148 C 0.46414 0.12971 0.53881 0.0
C149 C 0.42281 0.12866 0.68486 0.0
O150 O 0.46895 0.1074 0.81752 0.0
O151 O 0.44253 0.09032 0.72394 0.0
O152 O 0.46132 0.11338 0.56842 0.0
O153 O 0.46488 0.14006 0.60859 0.0
O154 O 0.42971 0.11771 0.7206 0.0
O155 O 0.43542 0.1464 0.6581 0.0
C156 C 0.47047 0.19746 0.65173 0.0
O157 O 0.46257 0.18772 0.72214 0.0
O158 O 0.47766 0.18841 0.60244 0.0
C159 C 0.47256 0.15543 0.86197 0.0
Tb160 Tb 0.89326 0.35459 0.71293 0.0
C161 C 0.90642 0.39937 0.73217 0.0
Tb162 Tb 0.93926 0.38587 0.76625 0.0
O163 O 0.88614 0.3618 0.84814 0.0
O164 O 0.91451 0.36399 0.833 0.0
O165 O 0.89307 0.38181 0.68934 0.0
C166 C 0.97527 0.40916 0.8622 0.0
O167 O 0.92393 0.40311 0.77792 0.0
C168 C 0.93048 0.38206 0.58484 0.0
C169 C 0.92754 0.34201 0.72178 0.0
O170 O 0.95771 0.40702 0.88352 0.0
O171 O 0.97245 0.39827 0.7873 0.0
O172 O 0.94826 0.39479 0.62647 0.0
O173 O 0.91926 0.37299 0.64678 0.0
O174 O 0.94043 0.35897 0.7691 0.0
O175 O 0.90931 0.33817 0.68329 0.0
C176 C 0.85628 0.32322 0.6617 0.0
O177 O 0.86881 0.32498 0.73051 0.0
O178 O 0.86468 0.33927 0.61962 0.0
C179 C 0.90395 0.36691 0.88942 0.0
Tb180 Tb 0.65541 0.12789 0.74172 0.0
C181 C 0.70179 0.13935 0.73391 0.0
Tb182 Tb 0.6887 0.17212 0.72181 0.0
O183 O 0.65947 0.11928 0.60248 0.0
O184 O 0.66534 0.14768 0.6358 0.0
O185 O 0.68337 0.12655 0.75836 0.0
C186 C 0.71608 0.2054 0.65469 0.0
O187 O 0.70677 0.15719 0.71061 0.0
C188 C 0.68483 0.16364 0.89754 0.0
C189 C 0.64068 0.15893 0.71981 0.0
O190 O 0.71188 0.1879 0.62543 0.0
O191 O 0.70441 0.20405 0.72019 0.0
O192 O 0.69824 0.18058 0.87205 0.0
O193 O 0.67542 0.15338 0.82409 0.0
O194 O 0.65972 0.17293 0.70449 0.0
O195 O 0.63596 0.141 0.74018 0.0
C196 C 0.63171 0.0967 0.83049 0.0
O197 O 0.62866 0.09819 0.74315 0.0
O198 O 0.64779 0.11265 0.86614 0.0
C199 C 0.66671 0.13671 0.57364 0.0
Tb200 Tb 0.93382 0.57252 0.77544 0.0
C201 C 0.91709 0.60161 0.74345 0.0
Tb202 Tb 0.88665 0.5557 0.72115 0.0
O203 O 0.9445 0.57919 0.63536 0.0
O204 O 0.91395 0.56596 0.65725 0.0
O205 O 0.93134 0.59894 0.78674 0.0
C206 C 0.84769 0.54076 0.64955 0.0
O207 O 0.89953 0.58696 0.70245 0.0
C208 C 0.89936 0.56518 0.8987 0.0
C209 C 0.90519 0.52677 0.72524 0.0
O210 O 0.864 0.55409 0.61502 0.0
O211 O 0.85347 0.53544 0.72281 0.0
O212 O 0.88419 0.56634 0.85948 0.0
O213 O 0.9057 0.55774 0.83944 0.0
O214 O 0.88941 0.52926 0.69833 0.0
O215 O 0.92327 0.54128 0.76312 0.0
C216 C 0.96827 0.58665 0.88656 0.0
O217 O 0.96588 0.57968 0.80138 0.0
O218 O 0.95128 0.58557 0.90898 0.0
C219 C 0.92606 0.57194 0.59456 0.0
Tb220 Tb 0.46211 0.38826 0.77307 0.0
C221 C 0.42507 0.34368 0.74975 0.0
Tb222 Tb 0.47128 0.35433 0.72635 0.0
O223 O 0.47147 0.39996 0.63923 0.0
O224 O 0.45983 0.37027 0.65362 0.0
O225 O 0.43166 0.36226 0.7788 0.0
C226 C 0.47691 0.32633 0.64642 0.0
O227 O 0.43758 0.3375 0.72112 0.0
C228 C 0.47171 0.36149 0.90812 0.0
C229 C 0.50752 0.39865 0.74903 0.0
O230 O 0.46044 0.32763 0.63447 0.0
O231 O 0.49036 0.34109 0.70164 0.0
O232 O 0.47524 0.34828 0.87168 0.0
O233 O 0.46843 0.3692 0.84138 0.0
O234 O 0.50027 0.38107 0.70399 0.0
O235 O 0.49557 0.4034 0.7948 0.0
C236 C 0.45232 0.4123 0.86212 0.0
O237 O 0.46593 0.40795 0.89241 0.0
O238 O 0.44439 0.40331 0.78081 0.0
C239 C 0.46816 0.38348 0.59883 0.0
Tb240 Tb 0.35113 0.89601 0.2519 0.0
C241 C 0.39848 0.91118 0.26547 0.0
Tb242 Tb 0.38142 0.94035 0.23744 0.0
O243 O 0.35916 0.89012 0.11631 0.0
O244 O 0.35928 0.9161 0.14781 0.0
O245 O 0.38017 0.89694 0.28558 0.0
C246 C 0.40402 0.9732 0.15829 0.0
O247 O 0.40168 0.92804 0.23575 0.0
C248 C 0.37825 0.93256 0.4125 0.0
C249 C 0.33494 0.92628 0.25719 0.0
O250 O 0.40233 0.9564 0.13415 0.0
O251 O 0.39319 0.97151 0.22759 0.0
O252 O 0.39035 0.94984 0.38571 0.0
O253 O 0.36936 0.92124 0.34075 0.0
O254 O 0.35221 0.9396 0.22508 0.0
O255 O 0.33222 0.90923 0.28167 0.0
C256 C 0.31966 0.86065 0.27488 0.0
O257 O 0.33584 0.87049 0.33322 0.0
O258 O 0.32144 0.87071 0.20497 0.0
C259 C 0.36318 0.90678 0.08709 0.0
Tb260 Tb 0.16376 0.51237 0.20533 0.0
C261 C 0.19858 0.50198 0.22819 0.0
Tb262 Tb 0.15186 0.46905 0.22711 0.0
O263 O 0.17713 0.51998 0.34832 0.0
O264 O 0.1521 0.49219 0.30974 0.0
O265 O 0.19321 0.51393 0.19043 0.0
C266 C 0.13983 0.43451 0.29308 0.0
O267 O 0.18515 0.48507 0.25931 0.0
C268 C 0.15768 0.4775 0.05249 0.0
C269 C 0.11704 0.47869 0.18033 0.0
O270 O 0.15552 0.45103 0.32789 0.0
O271 O 0.13114 0.43756 0.22183 0.0
O272 O 0.15373 0.46081 0.08147 0.0
O273 O 0.1586 0.48788 0.12237 0.0
O274 O 0.12202 0.46709 0.22351 0.0
O275 O 0.13111 0.4961 0.15655 0.0
C276 C 0.16679 0.54614 0.16548 0.0
O277 O 0.15662 0.53554 0.23 0.0
O278 O 0.17549 0.53775 0.12251 0.0
C279 C 0.16513 0.50281 0.37564 0.0
Tb280 Tb 0.56618 0.71897 0.27011 0.0
C281 C 0.53168 0.67565 0.20919 0.0
Tb282 Tb 0.57847 0.68733 0.22396 0.0
O283 O 0.56814 0.7293 0.12904 0.0
O284 O 0.57374 0.70748 0.15677 0.0
O285 O 0.5363 0.69191 0.26051 0.0
C286 C 0.58541 0.66073 0.14169 0.0
O287 O 0.54585 0.67211 0.17762 0.0
C288 C 0.57873 0.6965 0.40134 0.0
C289 C 0.61324 0.73048 0.27843 0.0
O290 O 0.59257 0.67852 0.11911 0.0
O291 O 0.57435 0.65788 0.21131 0.0
O292 O 0.59027 0.69021 0.36785 0.0
O293 O 0.56632 0.69558 0.33685 0.0
O294 O 0.6081 0.71396 0.2287 0.0
O295 O 0.59936 0.73448 0.31052 0.0
C296 C 0.55657 0.74377 0.35321 0.0
O297 O 0.57223 0.74183 0.37837 0.0
O298 O 0.54623 0.73151 0.28227 0.0
C299 C 0.57271 0.71685 0.09197 0.0
Tb300 Tb 0.34305 0.46706 0.23597 0.0
C301 C 0.38793 0.47802 0.20326 0.0
Tb302 Tb 0.37577 0.51106 0.2198 0.0
O303 O 0.34613 0.45875 0.09504 0.0
O304 O 0.35208 0.48715 0.13083 0.0
O305 O 0.37141 0.46615 0.24483 0.0
C306 C 0.40384 0.54568 0.16714 0.0
O307 O 0.39126 0.49515 0.17717 0.0
C308 C 0.37257 0.50231 0.3951 0.0
C309 C 0.32909 0.49889 0.23029 0.0
O310 O 0.40611 0.5306 0.17449 0.0
O311 O 0.38539 0.54112 0.187 0.0
O312 O 0.38523 0.51945 0.36972 0.0
O313 O 0.36333 0.49188 0.32215 0.0
O314 O 0.34749 0.51247 0.20765 0.0
O315 O 0.32474 0.48116 0.25184 0.0
C316 C 0.31656 0.43355 0.3022 0.0
O317 O 0.31331 0.43973 0.22565 0.0
O318 O 0.33466 0.44623 0.34098 0.0
C319 C 0.35299 0.47617 0.06726 0.0
Tb320 Tb 0.58006 0.94901 0.28421 0.0
C321 C 0.61538 0.94105 0.35104 0.0
Tb322 Tb 0.5686 0.90593 0.31023 0.0
O323 O 0.58048 0.95876 0.43022 0.0
O324 O 0.57366 0.93075 0.39121 0.0
O325 O 0.61083 0.95384 0.31687 0.0
C326 C 0.56533 0.8723 0.35454 0.0
O327 O 0.6013 0.9225 0.36029 0.0
C328 C 0.56724 0.91498 0.13798 0.0
C329 C 0.53355 0.91526 0.28202 0.0
O330 O 0.57592 0.88273 0.2904 0.0
O331 O 0.55641 0.8808 0.39453 0.0
O332 O 0.55548 0.89778 0.1656 0.0
O333 O 0.57982 0.92564 0.20476 0.0
O334 O 0.53917 0.90414 0.32574 0.0
O335 O 0.54692 0.93131 0.2445 0.0
C336 C 0.58825 0.98004 0.1917 0.0
O337 O 0.57308 0.97151 0.24318 0.0
O338 O 0.59904 0.97141 0.19429 0.0
C339 C 0.57563 0.94186 0.46049 0.0
Tb340 Tb 0.13573 0.72056 0.2902 0.0
C341 C 0.10455 0.67605 0.23597 0.0
Tb342 Tb 0.15281 0.69228 0.24915 0.0
O343 O 0.12332 0.71589 0.14667 0.0
O344 O 0.14946 0.71378 0.17931 0.0
O345 O 0.10745 0.69237 0.28081 0.0
C346 C 0.1657 0.66997 0.16693 0.0
O347 O 0.11986 0.67356 0.21034 0.0
C348 C 0.14562 0.69386 0.42602 0.0
C349 C 0.18409 0.73757 0.29713 0.0
O350 O 0.14922 0.67045 0.14043 0.0
O351 O 0.17499 0.68226 0.23897 0.0
O352 O 0.15203 0.68269 0.39075 0.0
O353 O 0.14332 0.70243 0.36029 0.0
O354 O 0.1811 0.72068 0.25814 0.0
O355 O 0.16878 0.74025 0.32107 0.0
C356 C 0.12465 0.74417 0.37331 0.0
O357 O 0.13078 0.7456 0.29078 0.0
O358 O 0.12471 0.72947 0.40861 0.0
C359 C 0.13631 0.7113 0.11452 0.0
C360 C 0.14236 0.41297 0.40675 0.0
C361 C 0.13196 0.41535 0.33069 0.0
C362 C 0.13409 0.39487 0.44534 0.0
C363 C 0.11489 0.37902 0.40746 0.0
C364 C 0.10464 0.3813 0.32919 0.0
C365 C 0.11338 0.39941 0.29149 0.0
C366 C 0.14555 0.39287 0.52805 0.0
C367 C 0.08402 0.36486 0.28744 0.0
C368 C 0.09462 0.32625 0.46074 0.0
C369 C 0.08098 0.32426 0.52696 0.0
C370 C 0.10658 0.34431 0.42399 0.0
C371 C 0.10452 0.36053 0.4535 0.0
C372 C 0.0911 0.35863 0.52208 0.0
C373 C 0.07958 0.34053 0.55832 0.0
C374 C 0.12092 0.34588 0.3518 0.0
C375 C 0.08825 0.37549 0.55451 0.0
H376 H 0.15679 0.42529 0.43681 0.0
H377 H 0.10532 0.40124 0.23254 0.0
H378 H 0.13676 0.39094 0.58939 0.0
H379 H 0.14704 0.37968 0.51659 0.0
H380 H 0.16117 0.40589 0.54344 0.0
H381 H 0.07856 0.36875 0.2241 0.0
H382 H 0.08495 0.35153 0.27006 0.0
H383 H 0.07236 0.3611 0.33828 0.0
H384 H 0.09576 0.31367 0.43685 0.0
H385 H 0.06904 0.339 0.60969 0.0
H386 H 0.13647 0.35879 0.3702 0.0
H387 H 0.11515 0.34806 0.28453 0.0
H388 H 0.12233 0.33258 0.34333 0.0
H389 H 0.10334 0.38853 0.57829 0.0
H390 H 0.078 0.37186 0.61159 0.0
H391 H 0.08149 0.37957 0.49634 0.0
C392 C 0.73482 0.79836 0.43228 0.0
C393 C 0.73957 0.78746 0.49162 0.0
C394 C 0.71442 0.79161 0.39754 0.0
C395 C 0.6984 0.77356 0.42286 0.0
C396 C 0.70299 0.76293 0.48582 0.0
C397 C 0.72349 0.76998 0.51929 0.0
C398 C 0.71012 0.80338 0.33076 0.0
C399 C 0.68635 0.74365 0.51502 0.0
C400 C 0.6416 0.75754 0.3839 0.0
C401 C 0.63539 0.74387 0.30702 0.0
C402 C 0.66229 0.76805 0.4202 0.0
C403 C 0.67708 0.76486 0.37835 0.0
C404 C 0.67108 0.75193 0.29765 0.0
C405 C 0.65034 0.74159 0.26312 0.0
C406 C 0.66808 0.78175 0.50618 0.0
C407 C 0.68639 0.74822 0.2504 0.0
H408 H 0.74711 0.81189 0.41042 0.0
H409 H 0.72693 0.7615 0.56563 0.0
H410 H 0.70529 0.79535 0.26135 0.0
H411 H 0.69729 0.80538 0.35204 0.0
H412 H 0.72384 0.81802 0.32547 0.0
H413 H 0.69224 0.73787 0.56921 0.0
H414 H 0.67368 0.74533 0.54146 0.0
H415 H 0.67967 0.73265 0.45458 0.0
H416 H 0.63016 0.75936 0.41851 0.0
H417 H 0.64573 0.73121 0.20316 0.0
H418 H 0.68207 0.79597 0.49787 0.0
H419 H 0.67174 0.77532 0.56505 0.0
H420 H 0.65547 0.78447 0.52359 0.0
H421 H 0.70003 0.76227 0.23671 0.0
H422 H 0.67963 0.73903 0.18417 0.0
H423 H 0.69189 0.74068 0.29619 0.0
C424 C 0.25108 0.95965 0.3499 0.0
C425 C 0.25829 0.9704 0.43601 0.0
C426 C 0.261 0.95018 0.31183 0.0
C427 C 0.2785 0.95165 0.36118 0.0
C428 C 0.28541 0.96209 0.44924 0.0
C429 C 0.27521 0.97129 0.48546 0.0
C430 C 0.25314 0.93909 0.21804 0.0
C431 C 0.30402 0.96408 0.50424 0.0
C432 C 0.30109 0.91887 0.31534 0.0
C433 C 0.31867 0.93132 0.2715 0.0
C434 C 0.28698 0.92473 0.3395 0.0
C435 C 0.29061 0.94349 0.31967 0.0
C436 C 0.30763 0.95559 0.27048 0.0
C437 C 0.32141 0.94935 0.24688 0.0
C438 C 0.2689 0.91133 0.39114 0.0
C439 C 0.31209 0.97571 0.24801 0.0
H440 H 0.23797 0.95894 0.31165 0.0
H441 H 0.28079 0.97955 0.55227 0.0
H442 H 0.26471 0.94661 0.16804 0.0
H443 H 0.25085 0.92414 0.22045 0.0
H444 H 0.23838 0.9379 0.1922 0.0
H445 H 0.30687 0.97202 0.5732 0.0
H446 H 0.30198 0.94941 0.51375 0.0
H447 H 0.3179 0.97211 0.46616 0.0
H448 H 0.2987 0.90484 0.33406 0.0
H449 H 0.33479 0.95903 0.21208 0.0
H450 H 0.25461 0.91063 0.36232 0.0
H451 H 0.27165 0.9172 0.46432 0.0
H452 H 0.26646 0.89625 0.38884 0.0
H453 H 0.29805 0.97502 0.21589 0.0
H454 H 0.32453 0.98237 0.20074 0.0
H455 H 0.31688 0.98549 0.31256 0.0
C456 C 0.30429 0.06091 0.5406 0.0
C457 C 0.29046 0.06325 0.59375 0.0
C458 C 0.32563 0.07385 0.55434 0.0
C459 C 0.33359 0.08962 0.6235 0.0
C460 C 0.3197 0.09263 0.67486 0.0
C461 C 0.29829 0.07944 0.65919 0.0
C462 C 0.33972 0.07006 0.49736 0.0
C463 C 0.3275 0.10923 0.74922 0.0
C464 C 0.3874 0.10413 0.72357 0.0
C465 C 0.40003 0.12032 0.67537 0.0
C466 C 0.36583 0.09472 0.7107 0.0
C467 C 0.35641 0.1015 0.64747 0.0
C468 C 0.369 0.11834 0.6013 0.0
C469 C 0.39067 0.1276 0.616 0.0
C470 C 0.35314 0.07694 0.76206 0.0
C471 C 0.35962 0.12606 0.53336 0.0
H472 H 0.29848 0.04864 0.48886 0.0
H473 H 0.28778 0.08142 0.70057 0.0
H474 H 0.35072 0.08357 0.46644 0.0
H475 H 0.34889 0.06577 0.54225 0.0
H476 H 0.33109 0.05824 0.44117 0.0
H477 H 0.31486 0.11105 0.77513 0.0
H478 H 0.33532 0.10638 0.80788 0.0
H479 H 0.33902 0.12318 0.72316 0.0
H480 H 0.39437 0.0985 0.77071 0.0
H481 H 0.40024 0.1401 0.57853 0.0
H482 H 0.34507 0.06372 0.71259 0.0
H483 H 0.34119 0.07847 0.79702 0.0
H484 H 0.36269 0.07452 0.81445 0.0
H485 H 0.35258 0.11552 0.47138 0.0
H486 H 0.37122 0.14048 0.51139 0.0
H487 H 0.34717 0.12754 0.56366 0.0
C488 C 0.95228 0.33031 0.76159 0.0
C489 C 0.93427 0.32714 0.71149 0.0
C490 C 0.95985 0.31737 0.74959 0.0
C491 C 0.94929 0.30067 0.68554 0.0
C492 C 0.93073 0.29697 0.63679 0.0
C493 C 0.92343 0.3102 0.65039 0.0
C494 C 0.97966 0.322 0.80341 0.0
C495 C 0.91895 0.2794 0.56784 0.0
C496 C 0.9846 0.28423 0.5856 0.0
C497 C 0.98186 0.26896 0.63946 0.0
C498 C 0.97335 0.29389 0.5968 0.0
C499 C 0.9589 0.28835 0.66406 0.0
C500 C 0.95529 0.27232 0.71574 0.0
C501 C 0.96675 0.26277 0.70265 0.0
C502 C 0.97772 0.31073 0.53941 0.0
C503 C 0.94003 0.26586 0.78802 0.0
H504 H 0.96078 0.34318 0.80973 0.0
H505 H 0.90949 0.3075 0.61135 0.0
H506 H 0.97749 0.30913 0.83925 0.0
H507 H 0.9918 0.32534 0.75548 0.0
H508 H 0.98522 0.3347 0.85538 0.0
H509 H 0.9038 0.27742 0.54258 0.0
H510 H 0.92809 0.28114 0.50793 0.0
H511 H 0.9164 0.26591 0.59886 0.0
H512 H 0.99602 0.28904 0.53565 0.0
H513 H 0.96452 0.25106 0.7448 0.0
H514 H 0.98512 0.32462 0.58444 0.0
H515 H 0.96316 0.30883 0.50648 0.0
H516 H 0.98805 0.31215 0.48474 0.0
H517 H 0.94602 0.27726 0.84679 0.0
H518 H 0.93712 0.25184 0.81436 0.0
H519 H 0.92519 0.26412 0.75978 0.0
C520 C 0.74809 0.71221 0.64666 0.0
C521 C 0.76948 0.72333 0.64282 0.0
C522 C 0.73825 0.692 0.65727 0.0
C523 C 0.75015 0.68275 0.66769 0.0
C524 C 0.77185 0.69408 0.6665 0.0
C525 C 0.78121 0.71414 0.6523 0.0
C526 C 0.71506 0.68048 0.65536 0.0
C527 C 0.7852 0.68502 0.68065 0.0
C528 C 0.72299 0.63441 0.77886 0.0
C529 C 0.71684 0.62062 0.70273 0.0
C530 C 0.73476 0.65461 0.76911 0.0
C531 C 0.73977 0.66127 0.68036 0.0
C532 C 0.73377 0.64732 0.60329 0.0
C533 C 0.72268 0.62715 0.61569 0.0
C534 C 0.74138 0.66884 0.85364 0.0
C535 C 0.73813 0.65367 0.50707 0.0
H536 H 0.73894 0.71921 0.63823 0.0
H537 H 0.79776 0.72271 0.64941 0.0
H538 H 0.70872 0.66819 0.60069 0.0
H539 H 0.71037 0.674 0.7219 0.0
H540 H 0.70799 0.68965 0.64252 0.0
H541 H 0.80187 0.69597 0.6821 0.0
H542 H 0.78223 0.67795 0.74645 0.0
H543 H 0.78129 0.67343 0.62459 0.0
H544 H 0.71844 0.62935 0.84622 0.0
H545 H 0.7176 0.61649 0.55653 0.0
H546 H 0.73303 0.67707 0.85102 0.0
H547 H 0.75808 0.67968 0.85573 0.0
H548 H 0.73829 0.66135 0.91835 0.0
H549 H 0.7301 0.66175 0.48865 0.0
H550 H 0.733 0.64108 0.45488 0.0
H551 H 0.75484 0.66383 0.50371 0.0
C552 C 0.93962 0.71192 0.68588 0.0
C553 C 0.9607 0.72485 0.70861 0.0
C554 C 0.93081 0.69161 0.69412 0.0
C555 C 0.94354 0.68394 0.72199 0.0
C556 C 0.96487 0.69702 0.74457 0.0
C557 C 0.97307 0.71727 0.73933 0.0
C558 C 0.90791 0.67837 0.67266 0.0
C559 C 0.97922 0.68959 0.77153 0.0
C560 C 0.92309 0.63365 0.81489 0.0
C561 C 0.92179 0.62203 0.73637 0.0
C562 C 0.92914 0.65355 0.81026 0.0
C563 C 0.93481 0.66226 0.72577 0.0
C564 C 0.93336 0.65043 0.64611 0.0
C565 C 0.92659 0.63041 0.65216 0.0
C566 C 0.92982 0.66534 0.89626 0.0
C567 C 0.93983 0.65909 0.5553 0.0
H568 H 0.93 0.71769 0.66206 0.0
H569 H 0.98943 0.72715 0.75581 0.0
H570 H 0.90487 0.66813 0.61142 0.0
H571 H 0.90116 0.66937 0.73113 0.0
H572 H 0.89993 0.6867 0.65885 0.0
H573 H 0.99548 0.70159 0.78462 0.0
H574 H 0.97449 0.68167 0.83456 0.0
H575 H 0.97832 0.67903 0.71594 0.0
H576 H 0.91944 0.62715 0.88011 0.0
H577 H 0.92584 0.62145 0.59171 0.0
H578 H 0.92156 0.67338 0.8817 0.0
H579 H 0.94602 0.6764 0.91935 0.0
H580 H 0.92285 0.65601 0.95355 0.0
H581 H 0.9311 0.66634 0.53416 0.0
H582 H 0.93737 0.64789 0.49946 0.0
H583 H 0.9564 0.67048 0.563 0.0
C584 C 0.30475 0.28611 0.61646 0.0
C585 C 0.29235 0.27143 0.67261 0.0
C586 C 0.32634 0.29624 0.63083 0.0
C587 C 0.33603 0.29185 0.7041 0.0
C588 C 0.32366 0.27667 0.75969 0.0
C589 C 0.30198 0.26654 0.74289 0.0
C590 C 0.33877 0.31205 0.56879 0.0
C591 C 0.3333 0.27162 0.83895 0.0
C592 C 0.3937 0.31135 0.69253 0.0
C593 C 0.40245 0.32943 0.74529 0.0
C594 C 0.37218 0.29862 0.68121 0.0
C595 C 0.35898 0.30393 0.7244 0.0
C596 C 0.36779 0.32178 0.78088 0.0
C597 C 0.3893 0.33431 0.79017 0.0
C598 C 0.36353 0.27987 0.61973 0.0
C599 C 0.35442 0.32801 0.82911 0.0
H600 H 0.29752 0.28989 0.56129 0.0
H601 H 0.29256 0.25532 0.78696 0.0
H602 H 0.34705 0.32648 0.60951 0.0
H603 H 0.35055 0.3094 0.53908 0.0
H604 H 0.32902 0.31286 0.51145 0.0
H605 H 0.32178 0.25865 0.87184 0.0
H606 H 0.34534 0.26867 0.81501 0.0
H607 H 0.34096 0.28426 0.89179 0.0
H608 H 0.40362 0.30738 0.65729 0.0
H609 H 0.39581 0.34812 0.83183 0.0
H610 H 0.35505 0.28072 0.55736 0.0
H611 H 0.35239 0.26727 0.6557 0.0
H612 H 0.37576 0.27697 0.59764 0.0
H613 H 0.34528 0.33102 0.77725 0.0
H614 H 0.36361 0.34138 0.877 0.0
H615 H 0.34336 0.31606 0.86858 0.0
C616 C 0.73793 0.14495 0.75145 0.0
C617 C 0.7168 0.13247 0.72782 0.0
C618 C 0.75169 0.13771 0.7503 0.0
C619 C 0.74419 0.11769 0.7223 0.0
C620 C 0.72292 0.10523 0.69614 0.0
C621 C 0.70953 0.1127 0.70033 0.0
C622 C 0.77417 0.15135 0.7806 0.0
C623 C 0.71424 0.08395 0.66331 0.0
C624 C 0.77816 0.09911 0.62841 0.0
C625 C 0.77916 0.0882 0.69938 0.0
C626 C 0.76766 0.10957 0.63658 0.0
C627 C 0.75831 0.10951 0.71869 0.0
C628 C 0.76045 0.09953 0.7929 0.0
C629 C 0.77061 0.08877 0.78191 0.0
C630 C 0.76539 0.11956 0.55488 0.0
C631 C 0.75116 0.09946 0.8824 0.0
H632 H 0.74358 0.1602 0.77331 0.0
H633 H 0.69324 0.10302 0.68092 0.0
H634 H 0.77879 0.14574 0.84005 0.0
H635 H 0.78379 0.15191 0.72429 0.0
H636 H 0.77757 0.16646 0.80086 0.0
H637 H 0.69747 0.07642 0.6422 0.0
H638 H 0.72231 0.08273 0.60381 0.0
H639 H 0.71681 0.07613 0.71887 0.0
H640 H 0.78469 0.09867 0.56428 0.0
H641 H 0.77144 0.08043 0.83712 0.0
H642 H 0.76954 0.13482 0.57622 0.0
H643 H 0.74907 0.11172 0.52609 0.0
H644 H 0.77512 0.11982 0.49945 0.0
H645 H 0.75495 0.11451 0.90634 0.0
H646 H 0.75666 0.09352 0.93741 0.0
H647 H 0.73415 0.09034 0.87165 0.0
C648 C 0.65286 0.96672 0.36689 0.0
C649 C 0.63715 0.94796 0.38359 0.0
C650 C 0.67336 0.97378 0.40063 0.0
C651 C 0.67835 0.96186 0.45289 0.0
C652 C 0.66269 0.94277 0.4684 0.0
C653 C 0.6423 0.93603 0.43347 0.0
C654 C 0.68964 0.9942 0.38205 0.0
C655 C 0.66738 0.92964 0.52392 0.0
C656 C 0.73541 0.97828 0.48243 0.0
C657 C 0.74152 0.99 0.56608 0.0
C658 C 0.7147 0.96829 0.4463 0.0
C659 C 0.69977 0.96994 0.49545 0.0
C660 C 0.70568 0.98074 0.58267 0.0
C661 C 0.72647 0.99069 0.61669 0.0
C662 C 0.70904 0.95696 0.35302 0.0
C663 C 0.69024 0.98271 0.63789 0.0
H664 H 0.64914 0.97603 0.32797 0.0
H665 H 0.63033 0.92152 0.44692 0.0
H666 H 0.69616 0.0035 0.44802 0.0
H667 H 0.70248 0.99381 0.3496 0.0
H668 H 0.68345 1.00122 0.33629 0.0
H669 H 0.65374 0.91477 0.52505 0.0
H670 H 0.68002 0.92825 0.49531 0.0
H671 H 0.6727 0.93624 0.5959 0.0
H672 H 0.74697 0.97782 0.44249 0.0
H673 H 0.73106 0.99962 0.68168 0.0
H674 H 0.7052 0.96483 0.30187 0.0
H675 H 0.6952 0.94229 0.35494 0.0
H676 H 0.7218 0.95512 0.32887 0.0
H677 H 0.68467 0.99139 0.60145 0.0
H678 H 0.69692 0.99006 0.70796 0.0
H679 H 0.67666 0.9681 0.64463 0.0
C680 C 0.04853 0.77198 0.58031 0.0
C681 C 0.05528 0.79184 0.60183 0.0
C682 C 0.06186 0.76599 0.54765 0.0
C683 C 0.08266 0.78015 0.53867 0.0
C684 C 0.08985 0.80017 0.56428 0.0
C685 C 0.07595 0.80584 0.59417 0.0
C686 C 0.05343 0.74454 0.51901 0.0
C687 C 0.11207 0.81559 0.55828 0.0
C688 C 0.11596 0.75709 0.51243 0.0
C689 C 0.11659 0.75586 0.41666 0.0
C690 C 0.10628 0.76635 0.55407 0.0
C691 C 0.09639 0.77386 0.49802 0.0
C692 C 0.09765 0.77324 0.40135 0.0
C693 C 0.10807 0.7645 0.36194 0.0
C694 C 0.10583 0.76728 0.65753 0.0
C695 C 0.08683 0.78059 0.33892 0.0
H696 H 0.03249 0.76111 0.58481 0.0
H697 H 0.08122 0.8212 0.61091 0.0
H698 H 0.0552 0.74262 0.44474 0.0
H699 H 0.06222 0.739 0.55787 0.0
H700 H 0.03688 0.73541 0.53073 0.0
H701 H 0.11566 0.83013 0.58984 0.0
H702 H 0.12241 0.81123 0.59324 0.0
H703 H 0.11553 0.81701 0.48506 0.0
H704 H 0.12273 0.75051 0.55469 0.0
H705 H 0.10851 0.76344 0.28775 0.0
H706 H 0.0901 0.75687 0.67599 0.0
H707 H 0.10969 0.78214 0.68517 0.0
H708 H 0.11675 0.76349 0.69175 0.0
H709 H 0.06992 0.77138 0.34167 0.0
H710 H 0.09045 0.78023 0.26613 0.0
H711 H 0.09119 0.7958 0.3625 0.0
C712 C 0.28362 0.40147 0.28889 0.0
C713 C 0.30267 0.41452 0.33689 0.0
C714 C 0.27103 0.38274 0.31827 0.0
C715 C 0.27782 0.377 0.39682 0.0
C716 C 0.29678 0.39041 0.447 0.0
C717 C 0.30893 0.40905 0.41658 0.0
C718 C 0.25079 0.36893 0.26379 0.0
C719 C 0.30463 0.38484 0.53093 0.0
C720 C 0.24279 0.33325 0.52501 0.0
C721 C 0.24794 0.31943 0.49243 0.0
C722 C 0.25161 0.35182 0.49107 0.0
C723 C 0.26595 0.3566 0.42358 0.0
C724 C 0.27035 0.3423 0.3873 0.0
C725 C 0.26125 0.32386 0.4221 0.0
C726 C 0.24631 0.3666 0.53036 0.0
C727 C 0.28552 0.34676 0.3152 0.0
H728 H 0.27872 0.40575 0.22745 0.0
H729 H 0.32363 0.41918 0.45403 0.0
H730 H 0.25155 0.35645 0.2302 0.0
H731 H 0.23817 0.3628 0.31029 0.0
H732 H 0.24687 0.37622 0.20968 0.0
H733 H 0.3192 0.39728 0.56466 0.0
H734 H 0.29293 0.37954 0.582 0.0
H735 H 0.30737 0.37268 0.5108 0.0
H736 H 0.2324 0.32977 0.57912 0.0
H737 H 0.26513 0.31312 0.39633 0.0
H738 H 0.24242 0.37346 0.47413 0.0
H739 H 0.25985 0.37846 0.57297 0.0
H740 H 0.23316 0.35992 0.57402 0.0
H741 H 0.28164 0.35305 0.2564 0.0
H742 H 0.28587 0.33354 0.28858 0.0
H743 H 0.30119 0.35786 0.34531 0.0
C744 C 0.99707 0.43194 0.99856 0.0
C745 C 0.99535 0.42143 0.91526 0.0
C746 C 0.0162 0.44302 0.05036 0.0
C747 C 0.03385 0.44346 1.01775 0.0
C748 C 0.03215 0.43308 0.93283 0.0
C749 C 0.01292 0.4222 0.88269 0.0
C750 C 0.01747 0.45396 0.14044 0.0
C751 C 0.05057 0.43311 0.89567 0.0
C752 C 0.0891 0.48172 0.09542 0.0
C753 C 0.09503 0.47112 0.15126 0.0
C754 C 0.06875 0.47338 0.05628 0.0
C755 C 0.05406 0.45399 0.07321 0.0
C756 C 0.05963 0.44374 0.13436 0.0
C757 C 0.08002 0.45244 0.17276 0.0
C758 C 0.06335 0.48484 0.9921 0.0
C759 C 0.04442 0.42305 0.1543 0.0
H760 H 0.98345 0.43132 1.02372 0.0
H761 H 0.01161 0.41409 0.81816 0.0
H762 H 0.02221 0.44801 0.19804 0.0
H763 H 0.02937 0.46964 0.14036 0.0
H764 H 0.00255 0.45288 0.15393 0.0
H765 H 0.04671 0.42466 0.82742 0.0
H766 H 0.06296 0.44835 0.88879 0.0
H767 H 0.05684 0.42668 0.94454 0.0
H768 H 0.10051 0.49622 0.07893 0.0
H769 H 0.08435 0.44418 0.2166 0.0
H770 H 0.04853 0.48373 1.00757 0.0
H771 H 0.06144 0.47862 0.92005 0.0
H772 H 0.07547 0.50055 0.99679 0.0
H773 H 0.02971 0.42187 0.17234 0.0
H774 H 0.05042 0.418 0.21145 0.0
H775 H 0.04095 0.41301 0.09167 0.0
C776 C 0.63431 0.59821 0.97209 0.0
C777 C 0.62499 0.58697 0.88837 0.0
C778 C 0.62583 0.6082 1.0172 0.0
C779 C 0.60758 0.60686 0.97741 0.0
C780 C 0.59742 0.59455 0.89569 0.0
C781 C 0.60631 0.58474 0.85187 0.0
C782 C 0.63708 0.6211 0.10447 0.0
C783 C 0.57781 0.59259 0.85195 0.0
C784 C 0.58177 0.62756 0.12651 0.0
C785 C 0.58992 0.6464 0.09683 0.0
C786 C 0.58687 0.61421 0.08645 0.0
C787 C 0.60052 0.62 1.0158 0.0
C788 C 0.60839 0.63889 0.98435 0.0
C789 C 0.60292 0.65184 1.02512 0.0
C790 C 0.57806 0.59411 0.12093 0.0
C791 C 0.62304 0.64564 0.90931 0.0
H792 H 0.64868 0.59976 1.00084 0.0
H793 H 0.59904 0.57592 0.78733 0.0
H794 H 0.64347 0.63668 0.09092 0.0
H795 H 0.62634 0.618 0.159 0.0
H796 H 0.64994 0.61907 0.1309 0.0
H797 H 0.57049 0.58062 0.79561 0.0
H798 H 0.56662 0.58976 0.90426 0.0
H799 H 0.58124 0.60652 0.82297 0.0
H800 H 0.57162 0.62334 0.18177 0.0
H801 H 0.60914 0.6664 1.00187 0.0
H802 H 0.59062 0.59248 0.15429 0.0
H803 H 0.57066 0.58268 0.06241 0.0
H804 H 0.56652 0.5914 0.1715 0.0
H805 H 0.63738 0.64575 0.93229 0.0
H806 H 0.62718 0.66054 0.8907 0.0
H807 H 0.61606 0.63533 0.84657 0.0
C808 C 0.43016 0.05507 0.81932 0.0
C809 C 0.44906 0.07233 0.84089 0.0
C810 C 0.42445 0.03879 0.87 0.0
C811 C 0.43814 0.03977 0.94299 0.0
C812 C 0.45764 0.0569 0.96241 0.0
C813 C 0.46281 0.0731 0.91148 0.0
C814 C 0.4034 0.02088 0.8481 0.0
C815 C 0.47275 0.05834 0.03877 0.0
C816 C 0.41286 0.00725 0.13384 0.0
C817 C 0.41457 0.99087 0.10843 0.0
C818 C 0.421 0.02352 0.08183 0.0
C819 C 0.43128 0.02342 1.0032 0.0
C820 C 0.43376 0.0072 0.97932 0.0
C821 C 0.42523 0.991 0.03209 0.0
C822 C 0.41782 0.04045 0.10882 0.0
C823 C 0.44484 0.00669 0.89655 0.0
H824 H 0.41952 0.05451 0.76474 0.0
H825 H 0.47747 0.08646 0.92786 0.0
H826 H 0.40475 0.00763 0.83601 0.0
H827 H 0.39405 0.01864 0.90771 0.0
H828 H 0.395 0.02214 0.78644 0.0
H829 H 0.48804 0.07179 0.03836 0.0
H830 H 0.46667 0.05849 0.10642 0.0
H831 H 0.47477 0.04537 0.03249 0.0
H832 H 0.40457 0.00711 0.19286 0.0
H833 H 0.42653 0.9783 1.01248 0.0
H834 H 0.40823 0.04195 0.05315 0.0
H835 H 0.43281 0.05434 0.11765 0.0
H836 H 0.41014 0.03852 0.17379 0.0
H837 H 0.43574 0.00588 0.83256 0.0
H838 H 0.44726 0.99394 0.89292 0.0
H839 H 0.46001 0.02033 0.89831 0.0
C840 C 0.62549 0.08068 0.97644 0.0
C841 C 0.62078 0.07912 0.88113 0.0
C842 C 0.61789 0.06402 1.02565 0.0
C843 C 0.60531 0.04531 0.97826 0.0
C844 C 0.59955 0.0437 0.88277 0.0
C845 C 0.60738 0.06071 0.83509 0.0
C846 C 0.6244 0.06645 0.12736 0.0
C847 C 0.58598 0.02398 0.83024 0.0
C848 C 0.60938 0.00444 0.08424 0.0
C849 C 0.5921 0.99629 0.13516 0.0
C850 C 0.61349 0.02004 0.03067 0.0
C851 C 0.59989 0.02754 1.02746 0.0
C852 C 0.58209 0.01898 0.07683 0.0
C853 C 0.57845 0.00347 0.13057 0.0
C854 C 0.63271 0.02883 0.97951 0.0
C855 C 0.56718 0.0265 0.07451 0.0
H856 H 0.63579 0.09494 1.01234 0.0
H857 H 0.60374 0.05952 0.76136 0.0
H858 H 0.611 0.05749 0.16664 0.0
H859 H 0.63555 0.06128 0.13849 0.0
H860 H 0.6318 0.08194 0.15606 0.0
H861 H 0.58104 0.02532 0.75923 0.0
H862 H 0.59447 0.01589 0.82569 0.0
H863 H 0.5721 0.01507 0.86699 0.0
H864 H 0.61985 0.99878 0.08715 0.0
H865 H 0.56496 0.99703 0.16929 0.0
H866 H 0.64317 0.04426 1.00696 0.0
H867 H 0.62871 0.02894 0.90539 0.0
H868 H 0.64116 0.02071 0.98574 0.0
H869 H 0.57488 0.04168 0.10758 0.0
H870 H 0.55328 0.01729 0.11077 0.0
H871 H 0.56227 0.02701 1.00219 0.0
C872 C 0.07795 0.64128 0.18603 0.0
C873 C 0.0833 0.66093 0.20235 0.0
C874 C 0.05854 0.6273 0.1431 0.0
C875 C 0.04452 0.63329 0.11294 0.0
C876 C 0.04967 0.65302 0.13162 0.0
C877 C 0.06889 0.66653 0.17726 0.0
C878 C 0.05324 0.60623 0.12791 0.0
C879 C 0.03534 0.66011 0.09918 0.0
C880 C 0.00656 0.60555 0.90489 0.0
C881 C 0.98783 0.59658 0.94519 0.0
C882 C 0.0252 0.61724 0.95908 0.0
C883 C 0.0251 0.61938 0.05614 0.0
C884 C 0.00626 0.60935 0.09746 0.0
C885 C 0.98777 0.59839 0.04121 0.0
C886 C 0.04486 0.6281 0.91202 0.0
C887 C 0.00542 0.6107 0.20063 0.0
H888 H 0.08904 0.63689 0.20577 0.0
H889 H 0.07306 0.68176 0.18869 0.0
H890 H 0.03793 0.59641 0.15249 0.0
H891 H 0.05229 0.60219 0.0532 0.0
H892 H 0.06485 0.60357 0.16402 0.0
H893 H 0.04154 0.67586 0.12027 0.0
H894 H 0.03268 0.65785 1.0229 0.0
H895 H 0.02018 0.65151 0.12727 0.0
H896 H 0.00655 0.60426 0.83051 0.0
H897 H 0.97323 0.59136 0.07237 0.0
H898 H 0.0565 0.62458 0.93978 0.0
H899 H 0.0514 0.64412 0.92616 0.0
H900 H 0.04237 0.62451 0.83619 0.0
H901 H 0.0189 0.61103 0.23713 0.0
H902 H 0.99114 0.59821 0.22231 0.0
H903 H 0.00563 0.62441 0.22284 0.0
C904 C 0.41832 0.48208 0.12253 0.0
C905 C 0.40118 0.47041 0.1707 0.0
C906 C 0.42886 0.47406 0.07765 0.0
C907 C 0.42198 0.45387 0.08039 0.0
C908 C 0.40541 0.44227 0.13297 0.0
C909 C 0.39529 0.4507 0.17789 0.0
C910 C 0.44668 0.48697 1.02346 0.0
C911 C 0.39756 0.42066 0.13736 0.0
C912 C 0.42972 0.42675 0.87859 0.0
C913 C 0.44563 0.42414 0.91547 0.0
C914 C 0.42221 0.4368 0.93102 0.0
C915 C 0.4309 0.44446 1.02236 0.0
C916 C 0.44734 0.44228 0.05907 0.0
C917 C 0.45448 0.43207 1.00516 0.0
C918 C 0.40459 0.43875 0.88954 0.0
C919 C 0.45708 0.45035 0.15584 0.0
H920 H 0.42309 0.49735 0.11688 0.0
H921 H 0.3821 0.44152 0.21491 0.0
H922 H 0.45998 0.48489 0.04007 0.0
H923 H 0.44209 0.48282 0.94868 0.0
H924 H 0.45171 0.50272 0.03734 0.0
H925 H 0.38563 0.41404 0.18703 0.0
H926 H 0.39078 0.4129 0.06815 0.0
H927 H 0.4104 0.41814 0.15743 0.0
H928 H 0.42286 0.42059 0.80927 0.0
H929 H 0.46677 0.43001 0.03386 0.0
H930 H 0.40894 0.4544 0.89218 0.0
H931 H 0.39105 0.4312 0.93022 0.0
H932 H 0.39994 0.43245 0.81678 0.0
H933 H 0.46213 0.46616 0.16556 0.0
H934 H 0.47054 0.44847 0.172 0.0
H935 H 0.44558 0.44282 0.20613 0.0
C936 C 0.06903 0.21567 0.63538 0.0
C937 C 0.07194 0.23438 0.65772 0.0
C938 C 0.08599 0.21255 0.63543 0.0
C939 C 0.10624 0.22841 0.66033 0.0
C940 C 0.10897 0.24704 0.68785 0.0
C941 C 0.09191 0.24981 0.68518 0.0
C942 C 0.08235 0.19253 0.60431 0.0
C943 C 0.1301 0.26435 0.71671 0.0
C944 C 0.15357 0.22337 0.71753 0.0
C945 C 0.16421 0.22991 0.6386 0.0
C946 C 0.13409 0.22173 0.72421 0.0
C947 C 0.12488 0.22637 0.64952 0.0
C948 C 0.13501 0.23157 0.56735 0.0
C949 C 0.15457 0.23351 0.56343 0.0
C950 C 0.12406 0.21639 0.81351 0.0
C951 C 0.12575 0.23627 0.48514 0.0
H952 H 0.05367 0.2037 0.61361 0.0
H953 H 0.09427 0.26428 0.7036 0.0
H954 H 0.08861 0.19305 0.53648 0.0
H955 H 0.09057 0.18798 0.65346 0.0
H956 H 0.06572 0.18128 0.5974 0.0
H957 H 0.1294 0.27729 0.74496 0.0
H958 H 0.13822 0.26045 0.76965 0.0
H959 H 0.13944 0.26855 0.65649 0.0
H960 H 0.16104 0.22078 0.77621 0.0
H961 H 0.16269 0.23849 0.50205 0.0
H962 H 0.10746 0.20534 0.80028 0.0
H963 H 0.12519 0.22959 0.84977 0.0
H964 H 0.13152 0.21056 0.85977 0.0
H965 H 0.10936 0.22481 0.46913 0.0
H966 H 0.13414 0.23751 0.42286 0.0
H967 H 0.12626 0.25036 0.50117 0.0
C968 C 0.84032 0.97278 0.51877 0.0
C969 C 0.82109 0.97163 0.5084 0.0
C970 C 0.84196 0.95575 0.51204 0.0
C971 C 0.8239 0.93702 0.49779 0.0
C972 C 0.8045 0.93587 0.48504 0.0
C973 C 0.80338 0.95315 0.4891 0.0
C974 C 0.86301 0.95779 0.52301 0.0
C975 C 0.78477 0.91634 0.47218 0.0
C976 C 0.82435 0.88969 0.43097 0.0
C977 C 0.82398 0.88235 0.51699 0.0
C978 C 0.82524 0.90785 0.42373 0.0
C979 C 0.82503 0.91863 0.50405 0.0
C980 C 0.82487 0.9113 0.59102 0.0
C981 C 0.82466 0.89348 0.59643 0.0
C982 C 0.82608 0.91534 0.32996 0.0
C983 C 0.82408 0.92188 0.67841 0.0
H984 H 0.85408 0.987 0.53361 0.0
H985 H 0.78844 0.95209 0.4818 0.0
H986 H 0.86499 0.9525 0.58966 0.0
H987 H 0.86461 0.94864 0.46754 0.0
H988 H 0.87554 0.97321 0.52138 0.0
H989 H 0.771 0.9179 0.4596 0.0
H990 H 0.78528 0.90719 0.41344 0.0
H991 H 0.78299 0.90834 0.53467 0.0
H992 H 0.82383 0.88118 0.36928 0.0
H993 H 0.82419 0.88786 0.66313 0.0
H994 H 0.83884 0.93073 0.33136 0.0
H995 H 0.81157 0.91523 0.31086 0.0
H996 H 0.82828 0.90635 0.27573 0.0
H997 H 0.83747 0.93698 0.68731 0.0
H998 H 0.82405 0.91429 0.74059 0.0
H999 H 0.80998 0.92307 0.67379 0.0
C1000 C 0.07534 0.89834 0.64205 0.0
C1001 C 0.0681 0.88376 0.56858 0.0
C1002 C 0.09388 0.91624 0.64006 0.0
C1003 C 0.10526 0.91999 0.56143 0.0
C1004 C 0.09739 0.9057 0.48489 0.0
C1005 C 0.07912 0.88765 0.49001 0.0
C1006 C 0.10187 0.93064 0.7244 0.0
C1007 C 0.1086 0.90923 0.39857 0.0
C1008 C 0.14845 0.97275 0.53976 0.0
C1009 C 0.16606 0.97169 0.56524 0.0
C1010 C 0.12857 0.95603 0.53661 0.0
C1011 C 0.12621 0.93799 0.56268 0.0
C1012 C 0.144 0.93711 0.59101 0.0
C1013 C 0.16363 0.95381 0.59036 0.0
C1014 C 0.11014 0.95752 0.50337 0.0
C1015 C 0.14235 0.9185 0.62242 0.0
H1016 H 0.06703 0.89538 0.70342 0.0
H1017 H 0.07361 0.87646 0.43297 0.0
H1018 H 0.11642 0.93202 0.75464 0.0
H1019 H 0.10546 0.94536 0.70553 0.0
H1020 H 0.0907 0.92609 0.77792 0.0
H1021 H 0.09925 0.89792 0.34129 0.0
H1022 H 0.11276 0.92385 0.37584 0.0
H1023 H 0.12314 0.9091 0.41296 0.0
H1024 H 0.15027 0.98648 0.51934 0.0
H1025 H 0.17719 0.95294 0.61073 0.0
H1026 H 0.09921 0.95359 0.55757 0.0
H1027 H 0.10186 0.94694 0.44238 0.0
H1028 H 0.11453 0.97246 0.48434 0.0
H1029 H 0.13204 0.91333 0.67916 0.0
H1030 H 0.15755 0.9205 0.64686 0.0
H1031 H 0.13545 0.90681 0.56495 0.0
C1032 C 0.19536 0.15481 0.65501 0.0
C1033 C 0.2115 0.17144 0.70522 0.0
C1034 C 0.19447 0.13661 0.65343 0.0
C1035 C 0.21032 0.13505 0.70196 0.0
C1036 C 0.22607 0.1516 0.75668 0.0
C1037 C 0.22639 0.16956 0.75816 0.0
C1038 C 0.17722 0.11933 0.59532 0.0
C1039 C 0.24338 0.15071 0.80876 0.0
C1040 C 0.20435 0.08444 0.72425 0.0
C1041 C 0.2147 0.08292 0.64964 0.0
C1042 C 0.20279 0.10132 0.74275 0.0
C1043 C 0.21188 0.11702 0.68556 0.0
C1044 C 0.22247 0.11552 0.61072 0.0
C1045 C 0.22368 0.09853 0.59369 0.0
C1046 C 0.19129 0.1023 0.82285 0.0
C1047 C 0.23249 0.13185 0.54804 0.0
H1048 H 0.18376 0.15617 0.61428 0.0
H1049 H 0.23894 0.18239 0.79692 0.0
H1050 H 0.18334 0.11605 0.53343 0.0
H1051 H 0.17059 0.10611 0.63432 0.0
H1052 H 0.16471 0.12215 0.57227 0.0
H1053 H 0.25305 0.16403 0.85631 0.0
H1054 H 0.23721 0.1377 0.8491 0.0
H1055 H 0.25334 0.14925 0.75907 0.0
H1056 H 0.19738 0.07241 0.76769 0.0
H1057 H 0.23174 0.09749 0.53597 0.0
H1058 H 0.1782 0.10405 0.79768 0.0
H1059 H 0.20156 0.11528 0.87111 0.0
H1060 H 0.18527 0.08899 0.8613 0.0
H1061 H 0.22069 0.13445 0.51364 0.0
H1062 H 0.24052 0.12857 0.4941 0.0
H1063 H 0.24382 0.14565 0.58897 0.0
C1064 C 0.8815 0.08017 0.60667 0.0
C1065 C 0.86565 0.07908 0.65755 0.0
C1066 C 0.90077 0.09761 0.61079 0.0
C1067 C 0.90424 0.11432 0.66694 0.0
C1068 C 0.88865 0.11291 0.72197 0.0
C1069 C 0.86968 0.09538 0.71679 0.0
C1070 C 0.91705 0.09845 0.55168 0.0
C1071 C 0.89155 0.13027 0.78278 0.0
C1072 C 0.95755 0.15962 0.72348 0.0
C1073 C 0.95729 0.17221 0.65966 0.0
C1074 C 0.94069 0.14047 0.72498 0.0
C1075 C 0.92313 0.13385 0.66166 0.0
C1076 C 0.92297 0.14652 0.59672 0.0
C1077 C 0.94002 0.16546 0.59641 0.0
C1078 C 0.94154 0.1274 0.79491 0.0
C1079 C 0.90456 0.14023 0.52853 0.0
H1080 H 0.87861 0.0677 0.56084 0.0
H1081 H 0.85771 0.0947 0.75761 0.0
H1082 H 0.91886 0.10787 0.49487 0.0
H1083 H 0.93215 0.10507 0.59269 0.0
H1084 H 0.91307 0.08372 0.52115 0.0
H1085 H 0.87863 0.12634 0.82691 0.0
H1086 H 0.9061 0.13662 0.82779 0.0
H1087 H 0.89269 0.14183 0.73926 0.0
H1088 H 0.97094 0.16472 0.77203 0.0
H1089 H 0.93975 0.17508 0.54662 0.0
H1090 H 0.93828 0.11326 0.75993 0.0
H1091 H 0.92949 0.12407 0.8433 0.0
H1092 H 0.95675 0.13422 0.83533 0.0
H1093 H 0.90084 0.1265 0.48774 0.0
H1094 H 0.90717 0.15154 0.48027 0.0
H1095 H 0.8909 0.13718 0.56596 0.0
C1096 C 0.94293 0.80657 0.69577 0.0
C1097 C 0.95831 0.8153 0.63484 0.0
C1098 C 0.92511 0.80816 0.68832 0.0
C1099 C 0.92224 0.81823 0.6164 0.0
C1100 C 0.93793 0.82741 0.55582 0.0
C1101 C 0.95588 0.82606 0.56654 0.0
C1102 C 0.90905 0.79855 0.75587 0.0
C1103 C 0.93532 0.83781 0.47672 0.0
C1104 C 0.86609 0.7996 0.53795 0.0
C1105 C 0.86275 0.81415 0.57782 0.0
C1106 C 0.88555 0.80121 0.54688 0.0
C1107 C 0.90205 0.8175 0.5997 0.0
C1108 C 0.89885 0.83244 0.63908 0.0
C1109 C 0.87927 0.83073 0.6265 0.0
C1110 C 0.8883 0.7852 0.5013 0.0
C1111 C 0.91586 0.84979 0.69769 0.0
H1112 H 0.94478 0.79838 0.74919 0.0
H1113 H 0.96762 0.83271 0.51868 0.0
H1114 H 0.90454 0.80898 0.78458 0.0
H1115 H 0.89502 0.78589 0.71991 0.0
H1116 H 0.91458 0.79326 0.8137 0.0
H1117 H 0.94949 0.84538 0.4398 0.0
H1118 H 0.92253 0.82705 0.42691 0.0
H1119 H 0.93114 0.84872 0.50176 0.0
H1120 H 0.85333 0.78681 0.49983 0.0
H1121 H 0.87665 0.84188 0.65821 0.0
H1122 H 0.89147 0.77731 0.55466 0.0
H1123 H 0.90171 0.7916 0.4592 0.0
H1124 H 0.87446 0.77441 0.45627 0.0
H1125 H 0.92012 0.84469 0.76017 0.0
H1126 H 0.91127 0.86062 0.71954 0.0
H1127 H 0.92982 0.85721 0.65956 0.0
C1128 C 0.81004 0.5225 0.67102 0.0
C1129 C 0.82635 0.53631 0.6249 0.0
C1130 C 0.79061 0.52106 0.66339 0.0
C1131 C 0.78752 0.53395 0.60949 0.0
C1132 C 0.80349 0.54681 0.55695 0.0
C1133 C 0.82269 0.54776 0.5649 0.0
C1134 C 0.77396 0.50687 0.71929 0.0
C1135 C 0.80101 0.56091 0.49905 0.0
C1136 C 0.7343 0.52927 0.57786 0.0
C1137 C 0.73567 0.54216 0.65097 0.0
C1138 C 0.75096 0.52623 0.56322 0.0
C1139 C 0.76943 0.53661 0.62207 0.0
C1140 C 0.77083 0.5498 0.69505 0.0
C1141 C 0.75395 0.55226 0.70891 0.0
C1142 C 0.74877 0.51181 0.48569 0.0
C1143 C 0.79024 0.56143 0.75891 0.0
H1144 H 0.81275 0.51351 0.71701 0.0
H1145 H 0.83524 0.55843 0.52888 0.0
H1146 H 0.7727 0.515 0.7805 0.0
H1147 H 0.7588 0.49947 0.67839 0.0
H1148 H 0.7773 0.49558 0.74354 0.0
H1149 H 0.81333 0.56756 0.45119 0.0
H1150 H 0.78584 0.55349 0.45836 0.0
H1151 H 0.80166 0.57286 0.54495 0.0
H1152 H 0.72017 0.52141 0.53308 0.0
H1153 H 0.75517 0.56234 0.76527 0.0
H1154 H 0.75083 0.50007 0.51386 0.0
H1155 H 0.76097 0.51922 0.43816 0.0
H1156 H 0.73351 0.50501 0.44571 0.0
H1157 H 0.79365 0.55135 0.79615 0.0
H1158 H 0.78901 0.57151 0.81058 0.0
H1159 H 0.80352 0.5702 0.71851 0.0
C1160 C 0.46153 0.29236 0.57138 0.0
C1161 C 0.47827 0.30875 0.62013 0.0
C1162 C 0.461 0.27435 0.5614 0.0
C1163 C 0.47754 0.27271 0.60172 0.0
C1164 C 0.49511 0.28961 0.64523 0.0
C1165 C 0.49528 0.30745 0.6537 0.0
C1166 C 0.44207 0.25676 0.5136 0.0
C1167 C 0.51307 0.28854 0.68926 0.0
C1168 C 0.46457 0.22468 0.69947 0.0
C1169 C 0.47178 0.21631 0.63504 0.0
C1170 C 0.46621 0.24288 0.68859 0.0
C1171 C 0.47518 0.25301 0.61084 0.0
C1172 C 0.48219 0.24449 0.54446 0.0
C1173 C 0.48047 0.22621 0.55753 0.0
C1174 C 0.4586 0.25142 0.76133 0.0
C1175 C 0.49169 0.25477 0.46041 0.0
H1176 H 0.44838 0.29334 0.54496 0.0
H1177 H 0.50829 0.32011 0.69122 0.0
H1178 H 0.44644 0.24831 0.46616 0.0
H1179 H 0.43293 0.24692 0.56573 0.0
H1180 H 0.43212 0.261 0.47389 0.0
H1181 H 0.52658 0.30331 0.70936 0.0
H1182 H 0.50839 0.28048 0.75198 0.0
H1183 H 0.5178 0.28041 0.64172 0.0
H1184 H 0.45784 0.21707 0.75952 0.0
H1185 H 0.48602 0.21973 0.50753 0.0
H1186 H 0.44676 0.25428 0.72961 0.0
H1187 H 0.47151 0.26563 0.79256 0.0
H1188 H 0.45183 0.24157 0.81714 0.0
H1189 H 0.48097 0.25823 0.422 0.0
H1190 H 0.49554 0.24582 0.41328 0.0
H1191 H 0.50596 0.26886 0.48175 0.0
C1192 C 0.74737 0.22336 0.56839 0.0
C1193 C 0.73416 0.22382 0.63178 0.0
C1194 C 0.76646 0.24011 0.55824 0.0
C1195 C 0.77252 0.2577 0.61322 0.0
C1196 C 0.75856 0.25855 0.67263 0.0
C1197 C 0.73954 0.2416 0.68106 0.0
C1198 C 0.78073 0.23858 0.49344 0.0
C1199 C 0.76433 0.27695 0.73251 0.0
C1200 C 0.82905 0.29012 0.69559 0.0
C1201 C 0.83525 0.30609 0.64213 0.0
C1202 C 0.80886 0.27421 0.68519 0.0
C1203 C 0.79435 0.27413 0.61933 0.0
C1204 C 0.80063 0.28998 0.5631 0.0
C1205 C 0.82106 0.30584 0.57526 0.0
C1206 C 0.80294 0.25767 0.74665 0.0
C1207 C 0.78566 0.29038 0.49177 0.0
H1208 H 0.74323 0.20965 0.52977 0.0
H1209 H 0.72935 0.24205 0.72996 0.0
H1210 H 0.78777 0.2515 0.45254 0.0
H1211 H 0.79343 0.23829 0.53399 0.0
H1212 H 0.77263 0.2251 0.44546 0.0
H1213 H 0.75093 0.27603 0.76583 0.0
H1214 H 0.77636 0.27945 0.78731 0.0
H1215 H 0.77086 0.28985 0.69141 0.0
H1216 H 0.83996 0.2902 0.74726 0.0
H1217 H 0.8258 0.31817 0.53387 0.0
H1218 H 0.79654 0.24354 0.70422 0.0
H1219 H 0.79075 0.25658 0.79006 0.0
H1220 H 0.8162 0.25971 0.79262 0.0
H1221 H 0.77814 0.27663 0.44574 0.0
H1222 H 0.79327 0.30299 0.44914 0.0
H1223 H 0.77333 0.29131 0.52635 0.0
C1224 C 0.91969 0.50472 0.6959 0.0
C1225 C 0.90274 0.50682 0.71474 0.0
C1226 C 0.91838 0.4863 0.69243 0.0
C1227 C 0.89984 0.46947 0.71119 0.0
C1228 C 0.88254 0.47144 0.72889 0.0
C1229 C 0.8841 0.49001 0.72908 0.0
C1230 C 0.93709 0.48497 0.67072 0.0
C1231 C 0.86264 0.45409 0.75169 0.0
C1232 C 0.89422 0.41924 0.64705 0.0
C1233 C 0.90227 0.4159 0.72855 0.0
C1234 C 0.8929 0.43636 0.64062 0.0
C1235 C 0.89921 0.45024 0.71832 0.0
C1236 C 0.90636 0.44634 0.802 0.0
C1237 C 0.90811 0.42947 0.80558 0.0
C1238 C 0.88571 0.44007 0.54937 0.0
C1239 C 0.91274 0.46029 0.88745 0.0
H1240 H 0.93411 0.51758 0.684 0.0
H1241 H 0.87098 0.49151 0.74453 0.0
H1242 H 0.94312 0.48117 0.73248 0.0
H1243 H 0.93288 0.47319 0.61517 0.0
H1244 H 0.94961 0.49894 0.64882 0.0
H1245 H 0.85025 0.45771 0.75856 0.0
H1246 H 0.85731 0.44181 0.69768 0.0
H1247 H 0.86523 0.44886 0.81751 0.0
H1248 H 0.88992 0.40895 0.58693 0.0
H1249 H 0.91425 0.42695 0.86897 0.0
H1250 H 0.89862 0.45305 0.5225 0.0
H1251 H 0.87319 0.4434 0.55815 0.0
H1252 H 0.88008 0.42738 0.49726 0.0
H1253 H 0.92688 0.47421 0.87689 0.0
H1254 H 0.91587 0.4542 0.94923 0.0
H1255 H 0.90054 0.46384 0.90113 0.0
C1256 C 0.54063 0.41365 0.67047 0.0
C1257 C 0.5294 0.4142 0.74366 0.0
C1258 C 0.56049 0.42946 0.6599 0.0
C1259 C 0.5695 0.44614 0.72462 0.0
C1260 C 0.55862 0.44627 0.8011 0.0
C1261 C 0.53874 0.43044 0.80924 0.0
C1262 C 0.57137 0.42873 0.57689 0.0
C1263 C 0.5676 0.46355 0.87253 0.0
C1264 C 0.6264 0.48637 0.73921 0.0
C1265 C 0.62503 0.50139 0.69821 0.0
C1266 C 0.6086 0.46791 0.74509 0.0
C1267 C 0.5891 0.46436 0.70786 0.0
C1268 C 0.58802 0.47916 0.6613 0.0
C1269 C 0.60588 0.49745 0.65788 0.0
C1270 C 0.61047 0.45265 0.79582 0.0
C1271 C 0.56777 0.47608 0.61909 0.0
H1272 H 0.53355 0.40124 0.61915 0.0
H1273 H 0.53034 0.43096 0.8666 0.0
H1274 H 0.57183 0.4394 0.52909 0.0
H1275 H 0.58754 0.43296 0.59776 0.0
H1276 H 0.56355 0.41396 0.53908 0.0
H1277 H 0.5582 0.4606 0.93247 0.0
H1278 H 0.58348 0.46751 0.89768 0.0
H1279 H 0.56856 0.47644 0.84103 0.0
H1280 H 0.6411 0.48938 0.77132 0.0
H1281 H 0.60475 0.50897 0.6256 0.0
H1282 H 0.60204 0.43819 0.7554 0.0
H1283 H 0.60338 0.45104 0.86216 0.0
H1284 H 0.62678 0.45659 0.81055 0.0
H1285 H 0.55961 0.46215 0.5744 0.0
H1286 H 0.56983 0.48823 0.57744 0.0
H1287 H 0.55773 0.475 0.67447 0.0
C1288 C 0.60387 0.14725 0.67183 0.0
C1289 C 0.62317 0.1626 0.70853 0.0
C1290 C 0.58637 0.1493 0.66765 0.0
C1291 C 0.58795 0.16704 0.70302 0.0
C1292 C 0.60755 0.18288 0.73745 0.0
C1293 C 0.62501 0.18054 0.73885 0.0
C1294 C 0.56597 0.13212 0.62853 0.0
C1295 C 0.60991 0.20192 0.77706 0.0
C1296 C 0.54047 0.17135 0.64079 0.0
C1297 C 0.52851 0.16268 0.71394 0.0
C1298 C 0.5604 0.1739 0.6382 0.0
C1299 C 0.56867 0.168 0.71135 0.0
C1300 C 0.55713 0.16056 0.78827 0.0
C1301 C 0.53717 0.15778 0.78806 0.0
C1302 C 0.572 0.18166 0.55435 0.0
C1303 C 0.56535 0.15441 0.86872 0.0
H1304 H 0.60237 0.13341 0.64709 0.0
H1305 H 0.63987 0.19243 0.76759 0.0
H1306 H 0.55554 0.12622 0.68441 0.0
H1307 H 0.55842 0.13685 0.57671 0.0
H1308 H 0.56769 0.12012 0.59553 0.0
H1309 H 0.62633 0.21348 0.79153 0.0
H1310 H 0.6022 0.20721 0.72919 0.0
H1311 H 0.60231 0.19954 0.84236 0.0
H1312 H 0.53379 0.17503 0.58304 0.0
H1313 H 0.52805 0.15124 0.84524 0.0
H1314 H 0.57207 0.16952 0.51318 0.0
H1315 H 0.58827 0.19292 0.57482 0.0
H1316 H 0.56492 0.18809 0.50985 0.0
H1317 H 0.56572 0.14096 0.84698 0.0
H1318 H 0.55574 0.15135 0.92796 0.0
H1319 H 0.58136 0.16597 0.89205 0.0
C1320 C 0.49971 0.9019 0.35006 0.0
C1321 C 0.51177 0.91019 0.27677 0.0
C1322 C 0.47992 0.89956 0.35135 0.0
C1323 C 0.47191 0.9052 0.27647 0.0
C1324 C 0.48357 0.9124 0.19969 0.0
C1325 C 0.50348 0.91508 0.20138 0.0
C1326 C 0.46819 0.89223 0.43533 0.0
C1327 C 0.47543 0.91816 0.11747 0.0
C1328 C 0.41532 0.89087 0.24859 0.0
C1329 C 0.41656 0.90863 0.27687 0.0
C1330 C 0.43317 0.88931 0.24975 0.0
C1331 C 0.45248 0.90573 0.2823 0.0
C1332 C 0.45351 0.92336 0.31535 0.0
C1333 C 0.43559 0.92466 0.31094 0.0
C1334 C 0.43152 0.87043 0.21211 0.0
C1335 C 0.47366 0.94107 0.35284 0.0
H1336 H 0.50616 0.89824 0.40872 0.0
H1337 H 0.51272 0.9213 0.14418 0.0
H1338 H 0.46749 0.90439 0.47299 0.0
H1339 H 0.45211 0.88049 0.41496 0.0
H1340 H 0.47551 0.88653 0.48309 0.0
H1341 H 0.48522 0.92112 0.05894 0.0
H1342 H 0.45952 0.90642 0.09388 0.0
H1343 H 0.47482 0.93156 0.1373 0.0
H1344 H 0.4006 0.87853 0.22157 0.0
H1345 H 0.43649 0.93834 0.33366 0.0
H1346 H 0.43921 0.86547 0.26193 0.0
H1347 H 0.43955 0.87289 0.14799 0.0
H1348 H 0.41526 0.85857 0.19625 0.0
H1349 H 0.48155 0.93697 0.40602 0.0
H1350 H 0.4715 0.95297 0.38371 0.0
H1351 H 0.484 0.94686 0.29658 0.0
C1352 C 0.15656 0.63928 0.0716 0.0
C1353 C 0.17031 0.65468 0.13563 0.0
C1354 C 0.15797 0.62231 0.05816 0.0
C1355 C 0.17344 0.62081 0.11029 0.0
C1356 C 0.18859 0.63718 0.1678 0.0
C1357 C 0.18683 0.65396 0.17979 0.0
C1358 C 0.14167 0.6053 0.99523 0.0
C1359 C 0.20543 0.63628 0.22417 0.0
C1360 C 0.15806 0.57187 0.20169 0.0
C1361 C 0.16825 0.56493 0.14711 0.0
C1362 C 0.15945 0.58987 0.18904 0.0
C1363 C 0.17131 0.60128 0.1197 0.0
C1364 C 0.18138 0.59421 0.06301 0.0
C1365 C 0.17975 0.57604 0.07755 0.0
C1366 C 0.14845 0.59682 0.25117 0.0
C1367 C 0.19404 0.60594 0.9882 0.0
H1368 H 0.14387 0.6399 0.03667 0.0
H1369 H 0.19762 0.66596 0.22865 0.0
H1370 H 0.1485 0.59803 0.9551 0.0
H1371 H 0.13022 0.59429 0.03732 0.0
H1372 H 0.13344 0.60998 0.94663 0.0
H1373 H 0.21788 0.65106 0.25228 0.0
H1374 H 0.1988 0.6273 0.28284 0.0
H1375 H 0.21223 0.62921 0.18236 0.0
H1376 H 0.1491 0.56327 0.25538 0.0
H1377 H 0.18759 0.57063 0.03514 0.0
H1378 H 0.13766 0.59966 0.20927 0.0
H1379 H 0.15978 0.61078 0.29087 0.0
H1380 H 0.1396 0.586 0.30067 0.0
H1381 H 0.18474 0.60981 0.94171 0.0
H1382 H 0.19986 0.59788 0.94651 0.0
H1383 H 0.2074 0.61987 1.01934 0.0
C1384 C 0.49712 0.65412 0.26378 0.0
C1385 C 0.51008 0.65985 0.19194 0.0
C1386 C 0.47808 0.63656 0.25343 0.0
C1387 C 0.47172 0.62487 0.16834 0.0
C1388 C 0.48401 0.63159 0.09318 0.0
C1389 C 0.50324 0.64883 0.10643 0.0
C1390 C 0.46567 0.62974 0.33592 0.0
C1391 C 0.47753 0.61992 1.00053 0.0
C1392 C 0.44118 0.56982 0.17745 0.0
C1393 C 0.42092 0.56567 0.15844 0.0
C1394 C 0.45776 0.58903 0.18111 0.0
C1395 C 0.45404 0.60444 0.16222 0.0
C1396 C 0.43364 0.60022 0.13909 0.0
C1397 C 0.41722 0.58086 0.13905 0.0
C1398 C 0.47921 0.59289 0.20793 0.0
C1399 C 0.42918 0.61616 0.11535 0.0
H1400 H 0.50253 0.66259 0.33012 0.0
H1401 H 0.51326 0.65339 0.05063 0.0
H1402 H 0.44922 0.62466 0.31686 0.0
H1403 H 0.46652 0.61712 0.361 0.0
H1404 H 0.47144 0.64144 0.39333 0.0
H1405 H 0.48682 0.62871 0.94571 0.0
H1406 H 0.47951 0.60699 1.0045 0.0
H1407 H 0.46101 0.61446 0.9805 0.0
H1408 H 0.44406 0.5581 0.19327 0.0
H1409 H 0.40151 0.57762 0.12428 0.0
H1410 H 0.48604 0.60352 0.26971 0.0
H1411 H 0.48927 0.59948 0.15149 0.0
H1412 H 0.47936 0.57934 0.2233 0.0
H1413 H 0.43334 0.62676 0.17631 0.0
H1414 H 0.41269 0.61026 0.0923 0.0
H1415 H 0.43872 0.62437 0.05997 0.0
C1416 C 0.53834 0.76256 0.34007 0.0
C1417 C 0.55389 0.76031 0.38425 0.0
C1418 C 0.53839 0.78027 0.35192 0.0
C1419 C 0.55435 0.79601 0.40964 0.0
C1420 C 0.56886 0.79309 0.46156 0.0
C1421 C 0.56849 0.77523 0.44798 0.0
C1422 C 0.52258 0.78272 0.29548 0.0
C1423 C 0.5859 0.80939 0.52494 0.0
C1424 C 0.57292 0.84571 0.3203 0.0
C1425 C 0.56323 0.85332 0.37414 0.0
C1426 C 0.57045 0.82727 0.33292 0.0
C1427 C 0.55806 0.81617 0.40168 0.0
C1428 C 0.54867 0.824 0.45827 0.0
C1429 C 0.55131 0.84254 0.44353 0.0
C1430 C 0.58072 0.81949 0.27079 0.0
C1431 C 0.53555 0.81265 0.53278 0.0
H1432 H 0.52691 0.75095 0.29132 0.0
H1433 H 0.58044 0.77344 0.48286 0.0
H1434 H 0.51648 0.79038 0.3379 0.0
H1435 H 0.52995 0.79182 0.23808 0.0
H1436 H 0.50949 0.76843 0.26565 0.0
H1437 H 0.59328 0.8038 0.57304 0.0
H1438 H 0.59786 0.81997 0.48321 0.0
H1439 H 0.57999 0.81747 0.56562 0.0
H1440 H 0.5822 0.85406 0.26676 0.0
H1441 H 0.54387 0.84848 0.48544 0.0
H1442 H 0.56886 0.8059 0.23012 0.0
H1443 H 0.59074 0.8157 0.31268 0.0
H1444 H 0.59023 0.83019 0.22217 0.0
H1445 H 0.52145 0.7994 0.5011 0.0
H1446 H 0.53087 0.82147 0.57607 0.0
H1447 H 0.54399 0.80761 0.57778 0.0
C1448 C 0.28555 0.833 0.21457 0.0
C1449 C 0.30139 0.8415 0.28582 0.0
C1450 C 0.26741 0.81539 0.22347 0.0
C1451 C 0.26501 0.80599 0.3058 0.0
C1452 C 0.28115 0.81426 0.37747 0.0
C1453 C 0.29923 0.83202 0.36664 0.0
C1454 C 0.25059 0.80709 0.14534 0.0
C1455 C 0.27913 0.80458 0.466 0.0
C1456 C 0.20901 0.77286 0.34652 0.0
C1457 C 0.20536 0.75461 0.30918 0.0
C1458 C 0.22868 0.78954 0.35073 0.0
C1459 C 0.24515 0.78795 0.31699 0.0
C1460 C 0.24185 0.76941 0.28368 0.0
C1461 C 0.22198 0.75296 0.28005 0.0
C1462 C 0.23156 0.80905 0.38666 0.0
C1463 C 0.25905 0.76711 0.24745 0.0
H1464 H 0.2872 0.84028 0.15183 0.0
H1465 H 0.3115 0.83862 0.42176 0.0
H1466 H 0.2465 0.79189 0.12285 0.0
H1467 H 0.23653 0.80651 0.16916 0.0
H1468 H 0.25517 0.81592 0.08486 0.0
H1469 H 0.29351 0.81225 0.51271 0.0
H1470 H 0.26643 0.80436 0.50254 0.0
H1471 H 0.27512 0.78914 0.45094 0.0
H1472 H 0.19636 0.77432 0.37013 0.0
H1473 H 0.21942 0.73892 0.25186 0.0
H1474 H 0.23455 0.81853 0.329 0.0
H1475 H 0.24511 0.81666 0.43802 0.0
H1476 H 0.21782 0.80751 0.41907 0.0
H1477 H 0.2632 0.77407 0.18161 0.0
H1478 H 0.25465 0.75149 0.23489 0.0
H1479 H 0.27301 0.77463 0.29659 0.0
C1480 C 0.31489 0.52132 0.25476 0.0
C1481 C 0.31194 0.50289 0.22562 0.0
C1482 C 0.29806 0.52445 0.2562 0.0
C1483 C 0.27806 0.50893 0.22534 0.0
C1484 C 0.27527 0.49059 0.19184 0.0
C1485 C 0.29219 0.48774 0.19362 0.0
C1486 C 0.30153 0.54404 0.29422 0.0
C1487 C 0.2543 0.47377 0.15622 0.0
C1488 C 0.22845 0.5022 0.30957 0.0
C1489 C 0.22032 0.50712 0.23381 0.0
C1490 C 0.24811 0.50437 0.31098 0.0
C1491 C 0.25964 0.51106 0.23346 0.0
C1492 C 0.25193 0.51704 0.15879 0.0
C1493 C 0.23238 0.51521 0.16039 0.0
C1494 C 0.25596 0.49829 0.39297 0.0
C1495 C 0.26356 0.52391 0.07421 0.0
H1496 H 0.33019 0.53301 0.2797 0.0
H1497 H 0.28996 0.47356 0.16974 0.0
H1498 H 0.29437 0.54971 0.24559 0.0
H1499 H 0.29404 0.5423 0.35955 0.0
H1500 H 0.31816 0.55506 0.3081 0.0
H1501 H 0.25509 0.46109 0.12512 0.0
H1502 H 0.24415 0.46881 0.21354 0.0
H1503 H 0.24699 0.47858 0.10364 0.0
H1504 H 0.21917 0.49617 0.36691 0.0
H1505 H 0.22601 0.51893 0.10163 0.0
H1506 H 0.27226 0.50936 0.41443 0.0
H1507 H 0.25534 0.48425 0.37384 0.0
H1508 H 0.24667 0.49628 0.45272 0.0
H1509 H 0.28003 0.53471 0.0937 0.0
H1510 H 0.25699 0.53061 1.02849 0.0
H1511 H 0.2629 0.51123 0.03461 0.0
C1512 C 0.03 0.23033 0.31663 0.0
C1513 C 0.0246 0.24154 0.37368 0.0
C1514 C 0.03196 0.233 0.22224 0.0
C1515 C 0.02788 0.24689 0.18318 0.0
C1516 C 0.02238 0.25826 0.2407 0.0
C1517 C 0.02109 0.25564 0.33553 0.0
C1518 C 0.03852 0.22105 0.16442 0.0
C1519 C 0.01761 0.27302 0.20182 0.0
C1520 C 0.05108 0.26825 0.96157 0.0
C1521 C 0.0347 0.25705 0.89455 0.0
C1522 C 0.04918 0.2648 0.05508 0.0
C1523 C 0.03019 0.25009 0.08307 0.0
C1524 C 0.01356 0.23861 1.01544 0.0
C1525 C 0.0161 0.24207 0.92161 0.0
C1526 C 0.06751 0.27701 0.124 0.0
C1527 C 0.99295 0.22306 0.04249 0.0
H1528 H 0.03278 0.21945 0.34607 0.0
H1529 H 0.01674 0.26422 0.37929 0.0
H1530 H 0.02645 0.21213 0.10798 0.0
H1531 H 0.05276 0.23091 0.13191 0.0
H1532 H 0.04146 0.2111 0.20552 0.0
H1533 H 0.01262 0.28001 0.25467 0.0
H1534 H 0.03141 0.28464 0.17275 0.0
H1535 H 0.00525 0.26579 0.14468 0.0
H1536 H 0.06553 0.27981 0.94075 0.0
H1537 H 0.00336 0.23352 0.86993 0.0
H1538 H 0.07101 0.26736 0.1645 0.0
H1539 H 0.06393 0.28578 0.17337 0.0
H1540 H 0.08148 0.28714 0.09045 0.0
H1541 H 0.99473 0.21208 0.08012 0.0
H1542 H 0.9816 0.21538 0.98188 0.0
H1543 H 0.98668 0.2298 0.08992 0.0
C1544 C 0.80749 0.81211 0.26524 0.0
C1545 C 0.79482 0.79338 0.29335 0.0
C1546 C 0.80779 0.81549 0.17095 0.0
C1547 C 0.79478 0.79985 0.10403 0.0
C1548 C 0.78141 0.78113 0.13317 0.0
C1549 C 0.7818 0.7781 0.22704 0.0
C1550 C 0.82248 0.83561 0.14268 0.0
C1551 C 0.76689 0.76415 0.06501 0.0
C1552 C 0.78269 0.81073 0.86424 0.0
C1553 C 0.79517 0.80644 0.81091 0.0
C1554 C 0.78245 0.80874 0.95962 0.0
C1555 C 0.79538 0.80273 1.00327 0.0
C1556 C 0.80807 0.79843 0.94955 0.0
C1557 C 0.80762 0.8001 0.85387 0.0
C1558 C 0.76824 0.8129 1.01353 0.0
C1559 C 0.82226 0.7922 0.99329 0.0
H1560 H 0.81768 0.8239 0.31636 0.0
H1561 H 0.77187 0.76359 0.24866 0.0
H1562 H 0.83375 0.83481 0.09894 0.0
H1563 H 0.814 0.84105 0.10076 0.0
H1564 H 0.83103 0.84634 0.20297 0.0
H1565 H 0.75655 0.75087 0.09945 0.0
H1566 H 0.75728 0.76824 1.02193 0.0
H1567 H 0.77582 0.76045 1.01798 0.0
H1568 H 0.77305 0.81565 0.83118 0.0
H1569 H 0.81746 0.79695 0.81308 0.0
H1570 H 0.77725 0.82466 0.06939 0.0
H1571 H 0.75741 0.79965 0.04669 0.0
H1572 H 0.75915 0.81744 0.96942 0.0
H1573 H 0.83248 0.80319 0.05002 0.0
H1574 H 0.83195 0.79042 0.94298 0.0
H1575 H 0.8131 0.77809 1.0239 0.0
C1576 C 0.20139 0.01272 0.2468 0.0
C1577 C 0.2187 0.01824 0.30815 0.0
C1578 C 0.20242 0.01128 0.15084 0.0
C1579 C 0.22137 0.01593 0.11498 0.0
C1580 C 0.23893 0.02156 0.17686 0.0
C1581 C 0.23732 0.0224 0.27268 0.0
C1582 C 0.18317 0.00462 0.08784 0.0
C1583 C 0.25949 0.02688 0.14183 0.0
C1584 C 0.22169 0.99463 0.87572 0.0
C1585 C 0.2262 0.01023 0.82143 0.0
C1586 C 0.21959 0.99617 0.97042 0.0
C1587 C 0.22256 0.01395 1.01302 0.0
C1588 C 0.22687 0.02973 0.95823 0.0
C1589 C 0.22842 0.02761 0.86266 0.0
C1590 C 0.21445 0.97878 1.02509 0.0
C1591 C 0.23046 0.04904 1.00108 0.0
H1592 H 0.18696 0.00947 0.27401 0.0
H1593 H 0.2508 0.02685 0.31982 0.0
H1594 H 0.18562 0.01604 0.04068 0.0
H1595 H 0.17963 0.99122 0.04441 0.0
H1596 H 0.16962 1.00142 0.12655 0.0
H1597 H 0.27188 0.03192 0.1986 0.0
H1598 H 0.25837 0.01403 0.10201 0.0
H1599 H 0.26394 0.03865 0.09439 0.0
H1600 H 0.2199 0.98113 0.844 0.0
H1601 H 0.23211 0.03974 0.82101 0.0
H1602 H 0.20065 0.97504 0.06279 0.0
H1603 H 0.22736 0.98247 0.07725 0.0
H1604 H 0.21145 0.96566 0.98071 0.0
H1605 H 0.217 0.04679 0.03804 0.0
H1606 H 0.23323 0.05972 0.94908 0.0
H1607 H 0.24399 0.05544 0.05272 0.0
C1608 C 0.03485 0.82518 0.96619 0.0
C1609 C 0.01918 0.81294 0.89791 0.0
C1610 C 0.03272 0.82195 0.05999 0.0
C1611 C 0.01421 0.80634 0.08715 0.0
C1612 C 0.99835 0.79377 1.01826 0.0
C1613 C 1.00111 0.79709 0.92427 0.0
C1614 C 0.0503 0.83539 0.13015 0.0
C1615 C 0.97826 0.77713 0.04404 0.0
C1616 C 0.01482 0.78774 0.32349 0.0
C1617 C 0.00752 0.79769 0.37807 0.0
C1618 C 0.01723 0.79054 0.22936 0.0
C1619 C 0.01166 0.80321 0.18757 0.0
C1620 C 0.00432 0.81337 0.24267 0.0
C1621 C 0.00261 0.8107 0.33757 0.0
C1622 C 0.02579 0.77993 0.17469 0.0
C1623 C 0.99793 0.8268 0.20095 0.0
H1624 H 0.04887 0.83746 0.94613 0.0
H1625 H 0.98886 0.78776 0.87183 0.0
H1626 H 0.04533 0.84335 0.1775 0.0
H1627 H 0.05486 0.82671 0.17268 0.0
H1628 H 0.06401 0.84631 0.09753 0.0
H1629 H 0.96747 0.76868 0.98268 0.0
H1630 H 0.98113 0.767 0.08379 0.0
H1631 H 0.97074 0.78295 0.08913 0.0
H1632 H 0.0187 0.77771 0.35472 0.0
H1633 H 0.99677 0.81826 0.37932 0.0
H1634 H 0.03964 0.79061 0.14223 0.0
H1635 H 0.01427 0.77003 0.11833 0.0
H1636 H 0.03007 0.77113 0.21807 0.0
H1637 H 0.01124 0.839 0.17187 0.0
H1638 H 0.99186 0.83308 0.25209 0.0
H1639 H 0.98588 0.81867 0.14332 0.0
C1640 C 0.24607 0.24228 0.33149 0.0
C1641 C 0.23154 0.24349 0.38402 0.0
C1642 C 0.24691 0.24569 0.23729 0.0
C1643 C 0.23244 0.2498 0.19309 0.0
C1644 C 0.21769 0.251 0.24604 0.0
C1645 C 0.21763 0.24815 0.34097 0.0
C1646 C 0.26339 0.24496 0.18511 0.0
C1647 C 0.20168 0.25493 0.202 0.0
C1648 C 0.24402 0.27539 0.96923 0.0
C1649 C 0.23368 0.25964 0.90139 0.0
C1650 C 0.24407 0.27237 0.06374 0.0
C1651 C 0.23295 0.25313 0.09206 0.0
C1652 C 0.22239 0.23715 1.0236 0.0
C1653 C 0.22314 0.24057 0.92918 0.0
C1654 C 0.2561 0.28984 0.13334 0.0
C1655 C 0.20992 0.21645 0.05018 0.0
H1656 H 0.25693 0.23879 0.36443 0.0
H1657 H 0.20628 0.24899 0.38094 0.0
H1658 H 0.25621 0.23311 0.12838 0.0
H1659 H 0.27254 0.25893 0.15329 0.0
H1660 H 0.27401 0.24239 0.23009 0.0
H1661 H 0.19079 0.25465 0.25148 0.0
H1662 H 0.20927 0.26944 0.17367 0.0
H1663 H 0.19279 0.24381 0.14351 0.0
H1664 H 0.25226 0.29017 0.94824 0.0
H1665 H 0.21495 0.22837 0.87719 0.0
H1666 H 0.26721 0.28776 0.17732 0.0
H1667 H 0.24554 0.29125 0.17945 0.0
H1668 H 0.26472 0.30373 0.10014 0.0
H1669 H 0.21996 0.21243 0.09041 0.0
H1670 H 0.2023 0.20568 0.98917 0.0
H1671 H 0.19794 0.21534 0.09502 0.0
C1672 C 0.77869 0.02525 0.29916 0.0
C1673 C 0.79649 0.03219 0.3592 0.0
C1674 C 0.77936 0.02337 0.20323 0.0
C1675 C 0.79842 0.02905 0.16608 0.0
C1676 C 0.81647 0.03607 0.22667 0.0
C1677 C 0.81525 0.03732 0.32266 0.0
C1678 C 0.75964 0.01523 0.14169 0.0
C1679 C 0.83714 0.04251 0.19001 0.0
C1680 C 0.79908 0.0075 0.92827 0.0
C1681 C 0.80205 0.02248 0.87234 0.0
C1682 C 0.79742 0.00931 1.02322 0.0
C1683 C 0.79929 0.02677 0.06418 0.0
C1684 C 0.80209 0.04193 1.00778 0.0
C1685 C 0.80323 0.03951 0.9121 0.0
C1686 C 0.79387 0.99257 0.07983 0.0
C1687 C 0.80443 0.06087 0.0489 0.0
H1688 H 0.76415 0.02122 0.32744 0.0
H1689 H 0.82907 0.04288 0.36896 0.0
H1690 H 0.76087 0.02617 0.09382 0.0
H1691 H 0.75699 0.00206 0.09896 0.0
H1692 H 0.74604 0.01117 0.18152 0.0
H1693 H 0.84983 0.0484 0.24585 0.0
H1694 H 0.83681 0.02998 0.15076 0.0
H1695 H 0.84055 0.05396 0.14164 0.0
H1696 H 0.79809 0.99427 0.89757 0.0
H1697 H 0.80575 0.05118 0.86907 0.0
H1698 H 0.78003 0.98808 0.11831 0.0
H1699 H 0.80715 0.99732 0.13142 0.0
H1700 H 0.79173 0.97962 0.03673 0.0
H1701 H 0.79085 0.05791 0.08658 0.0
H1702 H 0.80619 0.07108 0.99575 0.0
H1703 H 0.81814 0.06819 0.0996 0.0
C1704 C 0.66269 0.55267 1.01254 0.0
C1705 C 0.68185 0.56496 0.97958 0.0
C1706 C 0.66003 0.55297 0.10758 0.0
C1707 C 0.67676 0.56628 0.17105 0.0
C1708 C 0.69594 0.57915 0.13739 0.0
C1709 C 0.69832 0.57812 0.04243 0.0
C1710 C 0.63942 0.53875 0.14025 0.0
C1711 C 0.71397 0.59404 0.20172 0.0
C1712 C 0.66358 0.57879 0.40496 0.0
C1713 C 0.66853 0.5679 0.4634 0.0
C1714 C 0.66654 0.57869 0.31043 0.0
C1715 C 0.67413 0.56695 0.27236 0.0
C1716 C 0.67918 0.55591 0.33127 0.0
C1717 C 0.67658 0.55672 0.42632 0.0
C1718 C 0.66153 0.59116 0.2513 0.0
C1719 C 0.68691 0.54289 0.29351 0.0
H1720 H 0.64995 0.54238 0.96427 0.0
H1721 H 0.71313 0.58772 1.01716 0.0
H1722 H 0.64138 0.52966 0.1909 0.0
H1723 H 0.63289 0.54686 0.17586 0.0
H1724 H 0.62819 0.52891 0.08269 0.0
H1725 H 0.72757 0.60352 0.16435 0.0
H1726 H 0.70954 0.60346 0.24164 0.0
H1727 H 0.71848 0.5865 0.25203 0.0
H1728 H 0.65744 0.58754 0.43342 0.0
H1729 H 0.68025 0.54816 0.47109 0.0
H1730 H 0.64903 0.58175 0.19729 0.0
H1731 H 0.67519 0.60112 0.21557 0.0
H1732 H 0.65662 0.60012 0.29208 0.0
H1733 H 0.67538 0.53189 0.23996 0.0
H1734 H 0.68994 0.53508 0.34793 0.0
H1735 H 0.70132 0.55169 0.25998 0.0
C1736 C 0.46295 0.1491 0.40875 0.0
C1737 C 0.4667 0.13472 0.44152 0.0
C1738 C 0.46387 0.15259 0.3145 0.0
C1739 C 0.46917 0.1418 0.25196 0.0
C1740 C 0.47351 0.12764 0.28575 0.0
C1741 C 0.47194 0.12411 0.37951 0.0
C1742 C 0.45865 0.16749 0.28142 0.0
C1743 C 0.47978 0.11614 0.22278 0.0
C1744 C 0.45398 0.13628 0.99294 0.0
C1745 C 0.47192 0.15124 0.96051 0.0
C1746 C 0.45274 0.13328 0.08757 0.0
C1747 C 0.47007 0.14513 0.15123 0.0
C1748 C 0.48842 0.15988 0.11807 0.0
C1749 C 0.48901 0.16294 1.02356 0.0
C1750 C 0.43275 0.11763 0.1196 0.0
C1751 C 0.50751 0.17238 0.1824 0.0
H1752 H 0.45867 0.15717 0.45619 0.0
H1753 H 0.4749 0.11299 0.40452 0.0
H1754 H 0.47178 0.17895 0.24808 0.0
H1755 H 0.44532 0.16028 0.22873 0.0
H1756 H 0.45481 0.17465 0.33839 0.0
H1757 H 0.48387 0.10655 0.26075 0.0
H1758 H 0.46702 0.10686 0.16958 0.0
H1759 H 0.4932 0.12628 0.18624 0.0
H1760 H 0.44068 0.12726 0.94464 0.0
H1761 H 0.50295 0.17446 0.99875 0.0
H1762 H 0.42745 0.12413 0.1733 0.0
H1763 H 0.43509 0.10636 0.15128 0.0
H1764 H 0.42041 0.11032 0.06233 0.0
H1765 H 0.50435 0.18086 0.23539 0.0
H1766 H 0.52074 0.18278 0.14551 0.0
H1767 H 0.51196 0.16292 0.21913 0.0
C1768 C 0.89722 0.37606 0.04498 0.0
C1769 C 0.90841 0.37016 0.99106 0.0
C1770 C 0.90022 0.37811 0.14183 0.0
C1771 C 0.91437 0.37365 0.18626 0.0
C1772 C 0.92573 0.36767 0.13189 0.0
C1773 C 0.92282 0.36627 0.03497 0.0
C1774 C 0.8883 0.38517 0.19661 0.0
C1775 C 0.94074 0.36248 0.17613 0.0
C1776 C 0.93734 0.39536 0.43122 0.0
C1777 C 0.92508 0.37996 0.48413 0.0
C1778 C 0.93373 0.39363 0.33483 0.0
C1779 C 0.91776 0.37583 0.2894 0.0
C1780 C 0.90522 0.36023 0.34266 0.0
C1781 C 0.90887 0.36257 0.43963 0.0
C1782 C 0.94712 0.41085 0.28158 0.0
C1783 C 0.88831 0.34088 0.29704 0.0
H1784 H 0.88612 0.37915 1.01123 0.0
H1785 H 0.9314 0.36157 0.99357 0.0
H1786 H 0.87855 0.3739 0.24236 0.0
H1787 H 0.89912 0.39857 0.24139 0.0
H1788 H 0.87827 0.38849 0.15171 0.0
H1789 H 0.94771 0.35731 0.12446 0.0
H1790 H 0.95327 0.37542 0.21809 0.0
H1791 H 0.9328 0.35085 0.22342 0.0
H1792 H 0.94987 0.40887 0.46544 0.0
H1793 H 0.89949 0.35059 0.48031 0.0
H1794 H 0.93738 0.41467 0.23775 0.0
H1795 H 0.95599 0.40695 0.23504 0.0
H1796 H 0.95815 0.42399 0.32754 0.0
H1797 H 0.8771 0.3431 0.25477 0.0
H1798 H 0.87994 0.33021 0.34788 0.0
H1799 H 0.89494 0.33449 0.24977 0.0
C1800 C 0.69916 0.16678 0.06013 0.0
C1801 C 0.68207 0.15824 0.99464 0.0
C1802 C 0.69705 0.16312 0.15387 0.0
C1803 C 0.67726 0.15097 0.18416 0.0
C1804 C 0.6599 0.14232 0.11808 0.0
C1805 C 0.66252 0.14604 1.02433 0.0
C1806 C 0.71607 0.17236 0.22067 0.0
C1807 C 0.63848 0.12951 0.14679 0.0
C1808 C 0.67264 0.12809 0.41421 0.0
C1809 C 0.67033 0.141 0.47536 0.0
C1810 C 0.67499 0.13119 0.31996 0.0
C1811 C 0.67477 0.14749 0.28484 0.0
C1812 C 0.67247 0.16061 0.34651 0.0
C1813 C 0.67049 0.15733 0.44089 0.0
C1814 C 0.67796 0.11708 0.25811 0.0
C1815 C 0.67182 0.17802 0.31252 0.0
H1816 H 0.7143 0.17638 0.03784 0.0
H1817 H 0.64916 0.14001 0.97494 0.0
H1818 H 0.7151 0.18237 0.27352 0.0
H1819 H 0.71711 0.16089 0.25733 0.0
H1820 H 0.73041 0.18079 0.18587 0.0
H1821 H 0.62671 0.12315 0.08697 0.0
H1822 H 0.63779 0.11739 0.18451 0.0
H1823 H 0.6345 0.13824 0.19457 0.0
H1824 H 0.67264 0.11549 0.44023 0.0
H1825 H 0.66861 0.16733 0.48737 0.0
H1826 H 0.69369 0.12474 0.2344 0.0
H1827 H 0.66694 0.11183 0.19582 0.0
H1828 H 0.67594 0.10421 0.29365 0.0
H1829 H 0.68641 0.18783 0.28231 0.0
H1830 H 0.66947 0.18659 0.36838 0.0
H1831 H 0.65917 0.17302 0.25718 0.0
C1832 C 0.89864 0.57827 0.05793 0.0
C1833 C 0.90416 0.56718 1.00051 0.0
C1834 C 0.90199 0.57956 0.15473 0.0
C1835 C 0.91057 0.56908 0.1959 0.0
C1836 C 0.9162 0.55786 0.13796 0.0
C1837 C 0.91318 0.55725 0.0412 0.0
C1838 C 0.89639 0.59224 0.21296 0.0
C1839 C 0.92518 0.54626 0.17825 0.0
C1840 C 0.93679 0.58467 0.44117 0.0
C1841 C 0.92125 0.57181 0.49404 0.0
C1842 C 0.93338 0.5842 0.34495 0.0
C1843 C 0.91406 0.57018 0.29925 0.0
C1844 C 0.89824 0.55719 0.35253 0.0
C1845 C 0.90194 0.55832 0.44932 0.0
C1846 C 0.95051 0.59879 0.29217 0.0
C1847 C 0.87757 0.54172 0.30696 0.0
H1848 H 0.89173 0.58604 1.02698 0.0
H1849 H 0.91739 0.54857 0.99738 0.0
H1850 H 0.88441 0.58315 0.2586 0.0
H1851 H 0.91005 0.60327 0.258 0.0
H1852 H 0.89053 0.6 0.17055 0.0
H1853 H 0.94006 0.5563 0.21852 0.0
H1854 H 0.91468 0.53619 0.22639 0.0
H1855 H 0.92784 0.53754 0.12435 0.0
H1856 H 0.95173 0.5952 0.47532 0.0
H1857 H 0.88996 0.5482 0.4896 0.0
H1858 H 0.94547 0.6081 0.25801 0.0
H1859 H 0.9541 0.59107 0.23711 0.0
H1860 H 0.96482 0.60841 0.33728 0.0
H1861 H 0.87033 0.54864 0.26729 0.0
H1862 H 0.86689 0.53275 0.35762 0.0
H1863 H 0.87965 0.53189 0.2573 0.0
C1864 C 0.48298 0.36138 0.07197 0.0
C1865 C 0.47177 0.36602 1.00853 0.0
C1866 C 0.48288 0.36471 0.16768 0.0
C1867 C 0.47077 0.37237 0.20167 0.0
C1868 C 0.45937 0.37709 0.13767 0.0
C1869 C 0.46015 0.37401 0.04195 0.0
C1870 C 0.4958 0.36002 0.2325 0.0
C1871 C 0.44595 0.38496 0.17022 0.0
C1872 C 0.456 0.36209 0.44941 0.0
C1873 C 0.46925 0.38026 0.49824 0.0
C1874 C 0.45596 0.35947 0.35287 0.0
C1875 C 0.46997 0.37521 0.304 0.0
C1876 C 0.48373 0.39345 0.35375 0.0
C1877 C 0.48296 0.39583 0.44972 0.0
C1878 C 0.44069 0.33991 0.30294 0.0
C1879 C 0.49943 0.41045 0.30577 0.0
H1880 H 0.49201 0.35522 0.04656 0.0
H1881 H 0.45112 0.37724 0.99333 0.0
H1882 H 0.50624 0.3731 0.27999 0.0
H1883 H 0.48573 0.34827 0.27545 0.0
H1884 H 0.50523 0.35518 0.19527 0.0
H1885 H 0.43821 0.38808 0.11207 0.0
H1886 H 0.43402 0.3742 0.21149 0.0
H1887 H 0.4553 0.39864 0.21571 0.0
H1888 H 0.44524 0.35005 0.48636 0.0
H1889 H 0.49329 0.40989 0.4872 0.0
H1890 H 0.44897 0.33332 0.26926 0.0
H1891 H 0.43136 0.3419 0.24781 0.0
H1892 H 0.43014 0.32947 0.34992 0.0
H1893 H 0.50931 0.40608 0.2693 0.0
H1894 H 0.50944 0.42346 0.35451 0.0
H1895 H 0.49156 0.41466 0.25309 0.0
C1896 C 0.3587 0.91155 0.53735 0.0
C1897 C 0.37625 0.92783 0.51012 0.0
C1898 C 0.35637 0.90818 0.6314 0.0
C1899 C 0.37222 0.92111 0.6995 0.0
C1900 C 0.39018 0.9373 0.67161 0.0
C1901 C 0.39182 0.94058 0.57767 0.0
C1902 C 0.33676 0.89104 0.65809 0.0
C1903 C 0.40772 0.95118 0.74099 0.0
C1904 C 0.36097 0.9242 0.95112 0.0
C1905 C 0.36651 0.91143 0.98973 0.0
C1906 C 0.3624 0.92723 0.85661 0.0
C1907 C 0.37016 0.91774 0.79982 0.0
C1908 C 0.3764 0.90532 0.83954 0.0
C1909 C 0.3742 0.9021 0.93347 0.0
C1910 C 0.35526 0.94033 0.81718 0.0
C1911 C 0.38548 0.89549 0.78285 0.0
H1912 H 0.34654 0.9018 0.48544 0.0
H1913 H 0.40545 0.95319 0.55691 0.0
H1914 H 0.3403 0.8811 0.69578 0.0
H1915 H 0.32912 0.89634 0.70533 0.0
H1916 H 0.3258 0.88253 0.5973 0.0
H1917 H 0.42105 0.96247 0.7077 0.0
H1918 H 0.40245 0.95871 0.78924 0.0
H1919 H 0.41298 0.9429 0.78272 0.0
H1920 H 0.3549 0.93136 0.99422 0.0
H1921 H 0.37861 0.89229 0.96319 0.0
H1922 H 0.3434 0.93221 0.75882 0.0
H1923 H 0.36832 0.95305 0.78967 0.0
H1924 H 0.34869 0.94586 0.86931 0.0
H1925 H 0.37409 0.88559 0.7261 0.0
H1926 H 0.39025 0.88684 0.82467 0.0
H1927 H 0.3991 0.90666 0.75081 0.0
C1928 C 0.15706 0.49721 0.92304 0.0
C1929 C 0.16028 0.48249 0.95529 0.0
C1930 C 0.15762 0.5005 0.82858 0.0
C1931 C 0.16202 0.48911 0.76528 0.0
C1932 C 0.16586 0.4746 0.79852 0.0
C1933 C 0.16466 0.47131 0.89257 0.0
C1934 C 0.15301 0.51583 0.79615 0.0
C1935 C 0.17119 0.46248 0.73465 0.0
C1936 C 0.1462 0.48393 0.50697 0.0
C1937 C 0.16437 0.49837 0.47378 0.0
C1938 C 0.1451 0.48098 0.60172 0.0
C1939 C 0.16275 0.49235 0.6645 0.0
C1940 C 0.18128 0.50654 0.63045 0.0
C1941 C 0.18177 0.50955 0.536 0.0
C1942 C 0.12493 0.46591 0.63489 0.0
C1943 C 0.20066 0.51854 0.6938 0.0
H1944 H 0.15341 0.50571 0.97109 0.0
H1945 H 0.16718 0.45991 0.91721 0.0
H1946 H 0.16623 0.52696 0.7619 0.0
H1947 H 0.1395 0.50893 0.74435 0.0
H1948 H 0.14975 0.52336 0.85362 0.0
H1949 H 0.1747 0.45244 0.77197 0.0
H1950 H 0.15819 0.45362 0.68185 0.0
H1951 H 0.18473 0.4722 0.69767 0.0
H1952 H 0.13267 0.47534 0.45929 0.0
H1953 H 0.19588 0.52067 0.51059 0.0
H1954 H 0.12013 0.47292 0.68841 0.0
H1955 H 0.1268 0.45444 0.66719 0.0
H1956 H 0.11245 0.45878 0.57813 0.0
H1957 H 0.19812 0.52741 0.74719 0.0
H1958 H 0.21397 0.52853 0.65619 0.0
H1959 H 0.20463 0.50871 0.73009 0.0
C1960 C 0.57916 0.72921 0.93523 0.0
C1961 C 0.57492 0.71405 0.99212 0.0
C1962 C 0.58022 0.72679 0.83958 0.0
C1963 C 0.57636 0.70852 0.79851 0.0
C1964 C 0.57206 0.69312 0.85588 0.0
C1965 C 0.57159 0.69613 0.95195 0.0
C1966 C 0.58548 0.74383 0.7824 0.0
C1967 C 0.56749 0.6733 0.81551 0.0
C1968 C 0.56006 0.69771 0.53865 0.0
C1969 C 0.57811 0.70046 0.50185 0.0
C1970 C 0.55915 0.69993 0.63484 0.0
C1971 C 0.57691 0.70565 0.69585 0.0
C1972 C 0.59533 0.709 0.65832 0.0
C1973 C 0.5956 0.70608 0.56232 0.0
C1974 C 0.53907 0.69581 0.67133 0.0
C1975 C 0.61483 0.71574 0.71957 0.0
H1976 H 0.58174 0.7431 0.96578 0.0
H1977 H 0.56794 0.68424 0.99516 0.0
H1978 H 0.59901 0.74699 0.74379 0.0
H1979 H 0.57245 0.7401 0.73086 0.0
H1980 H 0.58897 0.75732 0.82511 0.0
H1981 H 0.56448 0.66287 0.86904 0.0
H1982 H 0.55382 0.66704 0.76471 0.0
H1983 H 0.5806 0.67474 0.77811 0.0
H1984 H 0.54645 0.69322 0.49242 0.0
H1985 H 0.60965 0.70834 0.53429 0.0
H1986 H 0.541 0.70918 0.70947 0.0
H1987 H 0.53437 0.68436 0.72067 0.0
H1988 H 0.52649 0.69085 0.6155 0.0
H1989 H 0.6188 0.72941 0.76174 0.0
H1990 H 0.62809 0.71849 0.67955 0.0
H1991 H 0.61247 0.70454 0.76794 0.0
C1992 C 0.35392 0.49494 0.93149 0.0
C1993 C 0.35698 0.48064 0.97018 0.0
C1994 C 0.35593 0.49785 0.83698 0.0
C1995 C 0.3617 0.48656 0.78036 0.0
C1996 C 0.36533 0.47246 0.82016 0.0
C1997 C 0.3627 0.46954 0.91411 0.0
C1998 C 0.35153 0.51278 0.79734 0.0
C1999 C 0.3722 0.46057 0.76377 0.0
C2000 C 0.351 0.48223 0.51794 0.0
C2001 C 0.3698 0.49709 0.49187 0.0
C2002 C 0.3481 0.47859 0.61145 0.0
C2003 C 0.36451 0.48989 0.6803 0.0
C2004 C 0.38367 0.50457 0.65349 0.0
C2005 C 0.38597 0.50815 0.56004 0.0
C2006 C 0.32732 0.46298 0.6368 0.0
C2007 C 0.40177 0.51661 0.72365 0.0
H2008 H 0.34934 0.50344 0.97446 0.0
H2009 H 0.36523 0.45855 0.94405 0.0
H2010 H 0.3655 0.5243 0.76893 0.0
H2011 H 0.33932 0.50566 0.73957 0.0
H2012 H 0.34651 0.51986 0.84954 0.0
H2013 H 0.37328 0.44947 0.80366 0.0
H2014 H 0.36135 0.45297 0.70175 0.0
H2015 H 0.38752 0.47045 0.73955 0.0
H2016 H 0.33834 0.47394 0.46572 0.0
H2017 H 0.40055 0.51967 0.54013 0.0
H2018 H 0.32078 0.4697 0.68275 0.0
H2019 H 0.32895 0.45204 0.67545 0.0
H2020 H 0.31627 0.45527 0.57529 0.0
H2021 H 0.39806 0.52534 0.77266 0.0
H2022 H 0.41592 0.52676 0.69117 0.0
H2023 H 0.40504 0.50683 0.76436 0.0
C2024 C 0.5866 0.93421 1.00811 0.0
C2025 C 0.56823 0.91974 0.03993 0.0
C2026 C 0.58802 0.93768 0.91387 0.0
C2027 C 0.57046 0.92688 0.84992 0.0
C2028 C 0.55171 0.91269 0.88264 0.0
C2029 C 0.55093 0.90908 0.9766 0.0
C2030 C 0.60846 0.95264 0.88247 0.0
C2031 C 0.53237 0.90137 0.8184 0.0
C2032 C 0.57003 0.94898 0.62237 0.0
C2033 C 0.5737 0.93738 0.5589 0.0
C2034 C 0.56862 0.94555 0.71645 0.0
C2035 C 0.57162 0.93049 0.74919 0.0
C2036 C 0.57556 0.91884 0.68527 0.0
C2037 C 0.57623 0.92223 0.59083 0.0
C2038 C 0.56376 0.95798 0.7807 0.0
C2039 C 0.57947 0.90303 0.71694 0.0
H2040 H 0.60008 0.94241 0.05651 0.0
H2041 H 0.53665 0.89797 1.00083 0.0
H2042 H 0.6131 0.94571 0.8279 0.0
H2043 H 0.60708 0.96454 0.85207 0.0
H2044 H 0.62084 0.95922 0.9398 0.0
H2045 H 0.5188 0.89159 0.8552 0.0
H2046 H 0.52903 0.91165 0.78255 0.0
H2047 H 0.5346 0.89233 0.76472 0.0
H2048 H 0.568 0.9607 0.59812 0.0
H2049 H 0.57931 0.91336 0.54236 0.0
H2050 H 0.5767 0.96638 0.83434 0.0
H2051 H 0.54994 0.94847 0.81666 0.0
H2052 H 0.56091 0.96847 0.74388 0.0
H2053 H 0.59263 0.90943 0.77053 0.0
H2054 H 0.58291 0.89565 0.65949 0.0
H2055 H 0.56583 0.89185 0.74873 0.0
C2056 C 0.13865 0.68083 0.58091 0.0
C2057 C 0.14279 0.69616 0.52532 0.0
C2058 C 0.13723 0.68283 0.67641 0.0
C2059 C 0.14053 0.70081 0.7185 0.0
C2060 C 0.14474 0.71639 0.66248 0.0
C2061 C 0.14572 0.71384 0.56661 0.0
C2062 C 0.13223 0.66566 0.73234 0.0
C2063 C 0.14862 0.7359 0.70409 0.0
C2064 C 0.12001 0.7016 0.95281 0.0
C2065 C 0.13744 0.70766 1.01433 0.0
C2066 C 0.12073 0.69911 0.85699 0.0
C2067 C 0.13951 0.70322 0.82087 0.0
C2068 C 0.15719 0.70929 0.88292 0.0
C2069 C 0.15588 0.7112 0.97887 0.0
C2070 C 0.10134 0.69206 0.79438 0.0
C2071 C 0.1776 0.7141 0.84781 0.0
H2072 H 0.13648 0.66716 0.54946 0.0
H2073 H 0.14958 0.72594 0.52463 0.0
H2074 H 0.14513 0.66957 0.78494 0.0
H2075 H 0.11838 0.66194 0.76964 0.0
H2076 H 0.12935 0.65247 0.68892 0.0
H2077 H 0.15236 0.74673 0.65197 0.0
H2078 H 0.13483 0.73399 0.7371 0.0
H2079 H 0.16156 0.74193 0.75868 0.0
H2080 H 0.10567 0.69874 0.97981 0.0
H2081 H 0.16944 0.716 1.02596 0.0
H2082 H 0.09794 0.67865 0.7514 0.0
H2083 H 0.10354 0.70335 0.74681 0.0
H2084 H 0.0878 0.68875 0.83337 0.0
H2085 H 0.17617 0.70107 0.80845 0.0
H2086 H 0.19 0.71905 0.90448 0.0
H2087 H 0.18224 0.7258 0.79986 0.0
loop_
_geom_bond_atom_site_label_1
_geom_bond_atom_site_label_2
_geom_bond_distance
_geom_bond_site_symmetry_2
_ccdc_geom_bond_type
Tb0 O3 2.453 1_655 S
Tb0 O4 2.596 1_655 S
Tb0 O5 2.374 1_655 S
Tb0 O13 2.343 1_655 S
Tb0 O15 2.353 . S
Tb0 O17 2.427 . S
Tb0 O18 2.513 . S
C1 O5 1.251 . S
C1 O7 1.263 . S
Tb2 O4 2.343 . S
Tb2 O7 2.353 . S
Tb2 O10 2.427 . S
Tb2 O11 2.513 . S
Tb2 O12 2.453 . S
Tb2 O13 2.596 . S
Tb2 O14 2.374 . S
O3 Tb0 2.453 1_455 S
O3 C19 1.245 . S
O4 Tb0 2.596 1_455 S
O4 Tb2 2.343 . S
O4 C19 1.259 . S
O5 Tb0 2.374 1_455 S
O5 C1 1.251 . S
C6 O10 1.275 . S
C6 O11 1.246 . S
O7 C1 1.263 . S
O7 Tb2 2.353 . S
C8 O12 1.245 . S
C8 O13 1.259 . S
C9 O14 1.250 1_655 S
C9 O15 1.263 . S
O10 Tb2 2.427 . S
O10 C6 1.275 . S
O11 Tb2 2.513 . S
O11 C6 1.246 . S
O12 Tb2 2.453 . S
O12 C8 1.245 . S
O13 Tb0 2.343 1_455 S
O13 Tb2 2.596 . S
O13 C8 1.259 . S
O14 Tb2 2.374 . S
O14 C9 1.250 1_455 S
O15 Tb0 2.353 . S
O15 C9 1.263 . S
C16 O17 1.275 . S
C16 O18 1.246 . S
O17 Tb0 2.427 . S
O17 C16 1.275 . S
O18 Tb0 2.513 . S
O18 C16 1.246 . S
C19 O3 1.245 . S
C19 O4 1.259 . S
Tb20 O23 2.453 . S
Tb20 O24 2.596 . S
Tb20 O25 2.374 . S
Tb20 O33 2.343 . S
Tb20 O35 2.353 . S
Tb20 O37 2.427 . S
Tb20 O38 2.513 . S
C21 O25 1.251 . S
C21 O27 1.263 . S
Tb22 O24 2.343 . S
Tb22 O27 2.353 . S
Tb22 O30 2.427 . S
Tb22 O31 2.513 . S
Tb22 O32 2.453 . S
Tb22 O33 2.596 . S
Tb22 O34 2.374 . S
O23 Tb20 2.453 . S
O23 C39 1.245 . S
O24 Tb20 2.596 . S
O24 Tb22 2.343 . S
O24 C39 1.259 . S
O25 Tb20 2.374 . S
O25 C21 1.251 . S
C26 O30 1.275 . S
C26 O31 1.246 . S
O27 C21 1.263 . S
O27 Tb22 2.353 . S
C28 O32 1.245 . S
C28 O33 1.259 . S
C29 O34 1.250 . S
C29 O35 1.263 . S
O30 Tb22 2.427 . S
O30 C26 1.275 . S
O31 Tb22 2.513 . S
O31 C26 1.246 . S
O32 Tb22 2.453 . S
O32 C28 1.245 . S
O33 Tb20 2.343 . S
O33 Tb22 2.596 . S
O33 C28 1.259 . S
O34 Tb22 2.374 . S
O34 C29 1.250 . S
O35 Tb20 2.353 . S
O35 C29 1.263 . S
C36 O37 1.275 . S
C36 O38 1.246 . S
O37 Tb20 2.427 . S
O37 C36 1.275 . S
O38 Tb20 2.513 . S
O38 C36 1.246 . S
C39 O23 1.245 . S
C39 O24 1.259 . S
Tb40 O43 2.453 . S
Tb40 O44 2.596 . S
Tb40 O45 2.374 . S
Tb40 O53 2.343 . S
Tb40 O55 2.353 . S
Tb40 O57 2.427 . S
Tb40 O58 2.513 . S
C41 O45 1.251 1_565 S
C41 O47 1.263 . S
Tb42 O44 2.343 . S
Tb42 O47 2.353 1_545 S
Tb42 O50 2.427 1_545 S
Tb42 O51 2.495 1_545 S
Tb42 O52 2.453 . S
Tb42 O53 2.596 . S
Tb42 O54 2.374 . S
O43 Tb40 2.453 . S
O43 C59 1.245 . S
O44 Tb40 2.596 . S
O44 Tb42 2.343 . S
O44 C59 1.259 . S
O45 Tb40 2.374 . S
O45 C41 1.251 1_545 S
C46 O50 1.275 . S
C46 O51 1.274 . S
O47 C41 1.263 . S
O47 Tb42 2.353 1_565 S
C48 O52 1.245 . S
C48 O53 1.259 . S
C49 O54 1.250 . S
C49 O55 1.263 . S
O50 Tb42 2.427 1_565 S
O50 C46 1.275 . S
O51 Tb42 2.495 1_565 S
O51 C46 1.274 . S
O52 Tb42 2.453 . S
O52 C48 1.245 . S
O53 Tb40 2.343 . S
O53 Tb42 2.596 . S
O53 C48 1.259 . S
O54 Tb42 2.374 . S
O54 C49 1.250 . S
O55 Tb40 2.353 . S
O55 C49 1.263 . S
C56 O57 1.275 . S
C56 O58 1.246 . S
O57 Tb40 2.427 . S
O57 C56 1.275 . S
O58 Tb40 2.513 . S
O58 C56 1.246 . S
C59 O43 1.245 . S
C59 O44 1.259 . S
Tb60 O63 2.453 . S
Tb60 O64 2.596 1_655 S
Tb60 O65 2.374 1_655 S
Tb60 O73 2.343 1_655 S
Tb60 O75 2.353 . S
Tb60 O77 2.427 . S
Tb60 O78 2.513 . S
C61 O65 1.251 . S
C61 O67 1.263 . S
Tb62 O64 2.343 . S
Tb62 O67 2.353 . S
Tb62 O70 2.427 . S
Tb62 O71 2.513 . S
Tb62 O72 2.453 . S
Tb62 O73 2.596 . S
Tb62 O74 2.374 . S
O63 Tb60 2.453 . S
O63 C79 1.245 1_655 S
O64 Tb60 2.596 1_455 S
O64 Tb62 2.343 . S
O64 C79 1.259 . S
O65 Tb60 2.374 1_455 S
O65 C61 1.251 . S
C66 O70 1.275 . S
C66 O71 1.246 . S
O67 C61 1.263 . S
O67 Tb62 2.353 . S
C68 O72 1.245 . S
C68 O73 1.259 . S
C69 O74 1.250 1_655 S
C69 O75 1.263 . S
O70 Tb62 2.427 . S
O70 C66 1.275 . S
O71 Tb62 2.513 . S
O71 C66 1.246 . S
O72 Tb62 2.453 . S
O72 C68 1.245 . S
O73 Tb60 2.343 1_455 S
O73 Tb62 2.596 . S
O73 C68 1.259 . S
O74 Tb62 2.374 . S
O74 C69 1.250 1_455 S
O75 Tb60 2.353 . S
O75 C69 1.263 . S
C76 O77 1.275 . S
C76 O78 1.246 . S
O77 Tb60 2.427 . S
O77 C76 1.275 . S
O78 Tb60 2.513 . S
O78 C76 1.246 . S
C79 O63 1.245 1_455 S
C79 O64 1.259 . S
Tb80 O83 2.453 . S
Tb80 O84 2.596 . S
Tb80 O85 2.374 . S
Tb80 O93 2.343 . S
Tb80 O95 2.353 . S
Tb80 O97 2.427 . S
Tb80 O98 2.513 . S
C81 O85 1.251 . S
C81 O87 1.263 . S
Tb82 O84 2.343 . S
Tb82 O87 2.353 . S
Tb82 O90 2.427 . S
Tb82 O91 2.513 . S
Tb82 O92 2.453 . S
Tb82 O93 2.596 . S
Tb82 O94 2.374 . S
O83 Tb80 2.453 . S
O83 C99 1.245 . S
O84 Tb80 2.596 . S
O84 Tb82 2.343 . S
O84 C99 1.259 . S
O85 Tb80 2.374 . S
O85 C81 1.251 . S
C86 O90 1.275 . S
C86 O91 1.246 . S
O87 C81 1.263 . S
O87 Tb82 2.353 . S
C88 O92 1.245 . S
C88 O93 1.259 . S
C89 O94 1.250 . S
C89 O95 1.263 . S
O90 Tb82 2.427 . S
O90 C86 1.275 . S
O91 Tb82 2.513 . S
O91 C86 1.246 . S
O92 Tb82 2.453 . S
O92 C88 1.245 . S
O93 Tb80 2.343 . S
O93 Tb82 2.596 . S
O93 C88 1.259 . S
O94 Tb82 2.374 . S
O94 C89 1.250 . S
O95 Tb80 2.353 . S
O95 C89 1.263 . S
C96 O97 1.275 . S
C96 O98 1.246 . S
O97 Tb80 2.427 . S
O97 C96 1.275 . S
O98 Tb80 2.513 . S
O98 C96 1.246 . S
C99 O83 1.245 . S
C99 O84 1.259 . S
Tb100 O103 2.453 . S
Tb100 O104 2.596 . S
Tb100 O105 2.374 . S
Tb100 O113 2.343 . S
Tb100 O115 2.353 . S
Tb100 O117 2.427 . S
Tb100 O118 2.513 . S
C101 O105 1.251 . S
C101 O107 1.263 1_545 S
Tb102 O104 2.343 . S
Tb102 O107 2.353 1_545 S
Tb102 O110 2.427 1_545 S
Tb102 O111 2.513 . S
Tb102 O112 2.453 . S
Tb102 O113 2.596 . S
Tb102 O114 2.374 . S
O103 Tb100 2.453 . S
O103 C119 1.245 . S
O104 Tb100 2.596 . S
O104 Tb102 2.343 . S
O104 C119 1.259 . S
O105 Tb100 2.374 . S
O105 C101 1.251 . S
C106 O110 1.275 . S
C106 O111 1.246 1_565 S
O107 C101 1.263 1_565 S
O107 Tb102 2.353 1_565 S
C108 O112 1.245 . S
C108 O113 1.259 . S
C109 O114 1.250 . S
C109 O115 1.263 . S
O110 Tb102 2.427 1_565 S
O110 C106 1.275 . S
O111 Tb102 2.513 . S
O111 C106 1.246 1_545 S
O112 Tb102 2.453 . S
O112 C108 1.245 . S
O113 Tb100 2.343 . S
O113 Tb102 2.596 . S
O113 C108 1.259 . S
O114 Tb102 2.374 . S
O114 C109 1.250 . S
O115 Tb100 2.353 . S
O115 C109 1.263 . S
C116 O117 1.275 . S
C116 O118 1.246 . S
O117 Tb100 2.427 . S
O117 C116 1.275 . S
O118 Tb100 2.513 . S
O118 C116 1.246 . S
C119 O103 1.245 . S
C119 O104 1.259 . S
Tb120 O123 2.453 . S
Tb120 O124 2.596 . S
Tb120 O125 2.374 . S
Tb120 O133 2.343 . S
Tb120 O135 2.353 . S
Tb120 O137 2.427 . S
Tb120 O138 2.513 . S
C121 O125 1.251 . S
C121 O127 1.263 . S
Tb122 O124 2.343 . S
Tb122 O127 2.353 . S
Tb122 O130 2.427 . S
Tb122 O131 2.513 . S
Tb122 O132 2.453 . S
Tb122 O133 2.596 . S
Tb122 O134 2.374 . S
O123 Tb120 2.453 . S
O123 C139 1.245 . S
O124 Tb120 2.596 . S
O124 Tb122 2.343 . S
O124 C139 1.259 . S
O125 Tb120 2.374 . S
O125 C121 1.251 . S
C126 O130 1.275 . S
C126 O131 1.246 . S
O127 C121 1.263 . S
O127 Tb122 2.353 . S
C128 O132 1.245 . S
C128 O133 1.259 . S
C129 O134 1.250 . S
C129 O135 1.263 . S
O130 Tb122 2.427 . S
O130 C126 1.275 . S
O131 Tb122 2.513 . S
O131 C126 1.246 . S
O132 Tb122 2.453 . S
O132 C128 1.245 . S
O133 Tb120 2.343 . S
O133 Tb122 2.596 . S
O133 C128 1.259 . S
O134 Tb122 2.374 . S
O134 C129 1.250 . S
O135 Tb120 2.353 . S
O135 C129 1.263 . S
C136 O137 1.275 . S
C136 O138 1.246 . S
O137 Tb120 2.427 . S
O137 C136 1.275 . S
O138 Tb120 2.513 . S
O138 C136 1.246 . S
C139 O123 1.245 . S
C139 O124 1.259 . S
Tb140 O143 2.453 . S
Tb140 O144 2.596 . S
Tb140 O145 2.374 . S
Tb140 O153 2.343 . S
Tb140 O155 2.353 . S
Tb140 O157 2.427 . S
Tb140 O158 2.513 . S
C141 O145 1.251 . S
C141 O147 1.263 . S
Tb142 O144 2.343 . S
Tb142 O147 2.353 . S
Tb142 O150 2.427 . S
Tb142 O151 2.513 . S
Tb142 O152 2.453 . S
Tb142 O153 2.596 . S
Tb142 O154 2.374 . S
O143 Tb140 2.453 . S
O143 C159 1.245 . S
O144 Tb140 2.596 . S
O144 Tb142 2.343 . S
O144 C159 1.259 . S
O145 Tb140 2.374 . S
O145 C141 1.251 . S
C146 O150 1.275 . S
C146 O151 1.246 . S
O147 C141 1.263 . S
O147 Tb142 2.353 . S
C148 O152 1.245 . S
C148 O153 1.259 . S
C149 O154 1.250 . S
C149 O155 1.263 . S
O150 Tb142 2.427 . S
O150 C146 1.275 . S
O151 Tb142 2.513 . S
O151 C146 1.246 . S
O152 Tb142 2.453 . S
O152 C148 1.245 . S
O153 Tb140 2.343 . S
O153 Tb142 2.596 . S
O153 C148 1.259 . S
O154 Tb142 2.374 . S
O154 C149 1.250 . S
O155 Tb140 2.353 . S
O155 C149 1.263 . S
C156 O157 1.275 . S
C156 O158 1.246 . S
O157 Tb140 2.427 . S
O157 C156 1.275 . S
O158 Tb140 2.513 . S
O158 C156 1.246 . S
C159 O143 1.245 . S
C159 O144 1.259 . S
Tb160 O163 2.453 . S
Tb160 O164 2.596 . S
Tb160 O165 2.374 . S
Tb160 O173 2.343 . S
Tb160 O175 2.353 . S
Tb160 O177 2.427 . S
Tb160 O178 2.513 . S
C161 O165 1.251 . S
C161 O167 1.263 . S
Tb162 O164 2.343 . S
Tb162 O167 2.353 . S
Tb162 O170 2.427 . S
Tb162 O171 2.513 . S
Tb162 O172 2.453 . S
Tb162 O173 2.596 . S
Tb162 O174 2.374 . S
O163 Tb160 2.453 . S
O163 C179 1.245 . S
O164 Tb160 2.596 . S
O164 Tb162 2.343 . S
O164 C179 1.259 . S
O165 Tb160 2.374 . S
O165 C161 1.251 . S
C166 O170 1.275 . S
C166 O171 1.246 . S
O167 C161 1.263 . S
O167 Tb162 2.353 . S
C168 O172 1.245 . S
C168 O173 1.259 . S
C169 O174 1.250 . S
C169 O175 1.263 . S
O170 Tb162 2.427 . S
O170 C166 1.275 . S
O171 Tb162 2.513 . S
O171 C166 1.246 . S
O172 Tb162 2.453 . S
O172 C168 1.245 . S
O173 Tb160 2.343 . S
O173 Tb162 2.596 . S
O173 C168 1.259 . S
O174 Tb162 2.374 . S
O174 C169 1.250 . S
O175 Tb160 2.353 . S
O175 C169 1.263 . S
C176 O177 1.275 . S
C176 O178 1.246 . S
O177 Tb160 2.427 . S
O177 C176 1.275 . S
O178 Tb160 2.513 . S
O178 C176 1.246 . S
C179 O163 1.245 . S
C179 O164 1.259 . S
Tb180 O183 2.453 . S
Tb180 O184 2.596 . S
Tb180 O185 2.374 . S
Tb180 O193 2.343 . S
Tb180 O195 2.353 . S
Tb180 O197 2.427 . S
Tb180 O198 2.513 . S
C181 O185 1.251 . S
C181 O187 1.263 . S
Tb182 O184 2.343 . S
Tb182 O187 2.353 . S
Tb182 O190 2.427 . S
Tb182 O191 2.513 . S
Tb182 O192 2.453 . S
Tb182 O193 2.596 . S
Tb182 O194 2.374 . S
O183 Tb180 2.453 . S
O183 C199 1.245 . S
O184 Tb180 2.596 . S
O184 Tb182 2.343 . S
O184 C199 1.259 . S
O185 Tb180 2.374 . S
O185 C181 1.251 . S
C186 O190 1.275 . S
C186 O191 1.246 . S
O187 C181 1.263 . S
O187 Tb182 2.353 . S
C188 O192 1.245 . S
C188 O193 1.259 . S
C189 O194 1.250 . S
C189 O195 1.263 . S
O190 Tb182 2.427 . S
O190 C186 1.275 . S
O191 Tb182 2.513 . S
O191 C186 1.246 . S
O192 Tb182 2.453 . S
O192 C188 1.245 . S
O193 Tb180 2.343 . S
O193 Tb182 2.596 . S
O193 C188 1.259 . S
O194 Tb182 2.374 . S
O194 C189 1.250 . S
O195 Tb180 2.353 . S
O195 C189 1.263 . S
C196 O197 1.275 . S
C196 O198 1.246 . S
O197 Tb180 2.427 . S
O197 C196 1.275 . S
O198 Tb180 2.513 . S
O198 C196 1.246 . S
C199 O183 1.245 . S
C199 O184 1.259 . S
Tb200 O203 2.453 . S
Tb200 O204 2.596 . S
Tb200 O205 2.374 . S
Tb200 O213 2.343 . S
Tb200 O215 2.353 . S
Tb200 O217 2.427 . S
Tb200 O218 2.513 . S
C201 O205 1.251 . S
C201 O207 1.263 . S
Tb202 O204 2.343 . S
Tb202 O207 2.353 . S
Tb202 O210 2.427 . S
Tb202 O211 2.513 . S
Tb202 O212 2.453 . S
Tb202 O213 2.596 . S
Tb202 O214 2.374 . S
O203 Tb200 2.453 . S
O203 C219 1.245 . S
O204 Tb200 2.596 . S
O204 Tb202 2.343 . S
O204 C219 1.259 . S
O205 Tb200 2.374 . S
O205 C201 1.251 . S
C206 O210 1.275 . S
C206 O211 1.246 . S
O207 C201 1.263 . S
O207 Tb202 2.353 . S
C208 O212 1.245 . S
C208 O213 1.259 . S
C209 O214 1.250 . S
C209 O215 1.263 . S
O210 Tb202 2.427 . S
O210 C206 1.275 . S
O211 Tb202 2.513 . S
O211 C206 1.246 . S
O212 Tb202 2.453 . S
O212 C208 1.245 . S
O213 Tb200 2.343 . S
O213 Tb202 2.596 . S
O213 C208 1.259 . S
O214 Tb202 2.374 . S
O214 C209 1.250 . S
O215 Tb200 2.353 . S
O215 C209 1.263 . S
C216 O217 1.275 . S
C216 O218 1.246 . S
O217 Tb200 2.427 . S
O217 C216 1.275 . S
O218 Tb200 2.513 . S
O218 C216 1.246 . S
C219 O203 1.245 . S
C219 O204 1.259 . S
Tb220 O223 2.453 . S
Tb220 O224 2.596 . S
Tb220 O225 2.374 . S
Tb220 O233 2.343 . S
Tb220 O235 2.353 . S
Tb220 O237 2.427 . S
Tb220 O238 2.513 . S
C221 O225 1.251 . S
C221 O227 1.263 . S
Tb222 O224 2.343 . S
Tb222 O227 2.353 . S
Tb222 O230 2.427 . S
Tb222 O231 2.513 . S
Tb222 O232 2.453 . S
Tb222 O233 2.596 . S
Tb222 O234 2.374 . S
O223 Tb220 2.453 . S
O223 C239 1.245 . S
O224 Tb220 2.596 . S
O224 Tb222 2.343 . S
O224 C239 1.259 . S
O225 Tb220 2.374 . S
O225 C221 1.251 . S
C226 O230 1.275 . S
C226 O231 1.246 . S
O227 C221 1.263 . S
O227 Tb222 2.353 . S
C228 O232 1.245 . S
C228 O233 1.259 . S
C229 O234 1.250 . S
C229 O235 1.263 . S
O230 Tb222 2.427 . S
O230 C226 1.275 . S
O231 Tb222 2.513 . S
O231 C226 1.246 . S
O232 Tb222 2.453 . S
O232 C228 1.245 . S
O233 Tb220 2.343 . S
O233 Tb222 2.596 . S
O233 C228 1.259 . S
O234 Tb222 2.374 . S
O234 C229 1.250 . S
O235 Tb220 2.353 . S
O235 C229 1.263 . S
C236 O237 1.275 . S
C236 O238 1.246 . S
O237 Tb220 2.427 . S
O237 C236 1.275 . S
O238 Tb220 2.513 . S
O238 C236 1.246 . S
C239 O223 1.245 . S
C239 O224 1.259 . S
Tb240 O243 2.453 1_554 S
Tb240 O244 2.596 . S
Tb240 O245 2.374 . S
Tb240 O253 2.343 . S
Tb240 O255 2.353 . S
Tb240 O257 2.427 . S
Tb240 O258 2.513 . S
C241 O245 1.251 . S
C241 O247 1.263 . S
Tb242 O244 2.343 . S
Tb242 O247 2.353 . S
Tb242 O250 2.427 . S
Tb242 O251 2.513 . S
Tb242 O252 2.453 . S
Tb242 O253 2.596 . S
Tb242 O254 2.374 . S
O243 Tb240 2.453 1_556 S
O243 C259 1.245 1_556 S
O244 Tb240 2.596 . S
O244 Tb242 2.343 . S
O244 C259 1.259 . S
O245 Tb240 2.374 . S
O245 C241 1.251 . S
C246 O250 1.275 . S
C246 O251 1.246 . S
O247 C241 1.263 . S
O247 Tb242 2.353 . S
C248 O252 1.245 . S
C248 O253 1.259 . S
C249 O254 1.250 . S
C249 O255 1.263 . S
O250 Tb242 2.427 . S
O250 C246 1.275 . S
O251 Tb242 2.513 . S
O251 C246 1.246 . S
O252 Tb242 2.453 . S
O252 C248 1.245 . S
O253 Tb240 2.343 . S
O253 Tb242 2.596 . S
O253 C248 1.259 . S
O254 Tb242 2.374 . S
O254 C249 1.250 . S
O255 Tb240 2.353 . S
O255 C249 1.263 . S
C256 O257 1.275 . S
C256 O258 1.246 . S
O257 Tb240 2.427 . S
O257 C256 1.275 . S
O258 Tb240 2.513 . S
O258 C256 1.246 . S
C259 O243 1.245 1_554 S
C259 O244 1.259 . S
Tb260 O263 2.453 . S
Tb260 O264 2.596 . S
Tb260 O265 2.374 . S
Tb260 O273 2.343 . S
Tb260 O275 2.353 . S
Tb260 O277 2.427 . S
Tb260 O278 2.513 . S
C261 O265 1.251 . S
C261 O267 1.263 . S
Tb262 O264 2.343 . S
Tb262 O267 2.353 . S
Tb262 O270 2.427 . S
Tb262 O271 2.513 . S
Tb262 O272 2.453 1_554 S
Tb262 O273 2.596 . S
Tb262 O274 2.374 . S
O263 Tb260 2.453 . S
O263 C279 1.245 . S
O264 Tb260 2.596 . S
O264 Tb262 2.343 . S
O264 C279 1.259 . S
O265 Tb260 2.374 . S
O265 C261 1.251 . S
C266 O270 1.275 . S
C266 O271 1.246 . S
O267 C261 1.263 . S
O267 Tb262 2.353 . S
C268 O272 1.245 . S
C268 O273 1.259 1_556 S
C269 O274 1.250 . S
C269 O275 1.263 . S
O270 Tb262 2.427 . S
O270 C266 1.275 . S
O271 Tb262 2.513 . S
O271 C266 1.246 . S
O272 Tb262 2.453 1_556 S
O272 C268 1.245 . S
O273 Tb260 2.343 . S
O273 Tb262 2.596 . S
O273 C268 1.259 1_554 S
O274 Tb262 2.374 . S
O274 C269 1.250 . S
O275 Tb260 2.353 . S
O275 C269 1.263 . S
C276 O277 1.275 . S
C276 O278 1.246 . S
O277 Tb260 2.427 . S
O277 C276 1.275 . S
O278 Tb260 2.513 . S
O278 C276 1.246 . S
C279 O263 1.245 . S
C279 O264 1.259 . S
Tb280 O283 2.453 . S
Tb280 O284 2.596 . S
Tb280 O285 2.374 . S
Tb280 O293 2.343 . S
Tb280 O295 2.353 . S
Tb280 O297 2.427 . S
Tb280 O298 2.513 . S
C281 O285 1.251 . S
C281 O287 1.263 . S
Tb282 O284 2.343 . S
Tb282 O287 2.353 . S
Tb282 O290 2.427 . S
Tb282 O291 2.513 . S
Tb282 O292 2.453 . S
Tb282 O293 2.596 . S
Tb282 O294 2.374 . S
O283 Tb280 2.453 . S
O283 C299 1.245 . S
O284 Tb280 2.596 . S
O284 Tb282 2.343 . S
O284 C299 1.259 . S
O285 Tb280 2.374 . S
O285 C281 1.251 . S
C286 O290 1.275 . S
C286 O291 1.246 . S
O287 C281 1.263 . S
O287 Tb282 2.353 . S
C288 O292 1.245 . S
C288 O293 1.259 . S
C289 O294 1.250 . S
C289 O295 1.263 . S
O290 Tb282 2.427 . S
O290 C286 1.275 . S
O291 Tb282 2.513 . S
O291 C286 1.246 . S
O292 Tb282 2.453 . S
O292 C288 1.245 . S
O293 Tb280 2.343 . S
O293 Tb282 2.596 . S
O293 C288 1.259 . S
O294 Tb282 2.374 . S
O294 C289 1.250 . S
O295 Tb280 2.353 . S
O295 C289 1.263 . S
C296 O297 1.275 . S
C296 O298 1.246 . S
O297 Tb280 2.427 . S
O297 C296 1.275 . S
O298 Tb280 2.513 . S
O298 C296 1.246 . S
C299 O283 1.245 . S
C299 O284 1.259 . S
Tb300 O303 2.453 1_554 S
Tb300 O304 2.596 . S
Tb300 O305 2.374 . S
Tb300 O313 2.343 . S
Tb300 O315 2.353 . S
Tb300 O317 2.427 . S
Tb300 O318 2.513 . S
C301 O305 1.251 . S
C301 O307 1.263 . S
Tb302 O304 2.343 . S
Tb302 O307 2.353 . S
Tb302 O310 2.427 . S
Tb302 O311 2.513 . S
Tb302 O312 2.453 . S
Tb302 O313 2.596 . S
Tb302 O314 2.374 . S
O303 Tb300 2.453 1_556 S
O303 C319 1.245 1_556 S
O304 Tb300 2.596 . S
O304 Tb302 2.343 . S
O304 C319 1.259 . S
O305 Tb300 2.374 . S
O305 C301 1.251 . S
C306 O310 1.275 . S
C306 O311 1.246 . S
O307 C301 1.263 . S
O307 Tb302 2.353 . S
C308 O312 1.245 . S
C308 O313 1.259 . S
C309 O314 1.250 . S
C309 O315 1.263 . S
O310 Tb302 2.427 . S
O310 C306 1.275 . S
O311 Tb302 2.513 . S
O311 C306 1.246 . S
O312 Tb302 2.453 . S
O312 C308 1.245 . S
O313 Tb300 2.343 . S
O313 Tb302 2.596 . S
O313 C308 1.259 . S
O314 Tb302 2.374 . S
O314 C309 1.250 . S
O315 Tb300 2.353 . S
O315 C309 1.263 . S
C316 O317 1.275 . S
C316 O318 1.246 . S
O317 Tb300 2.427 . S
O317 C316 1.275 . S
O318 Tb300 2.513 . S
O318 C316 1.246 . S
C319 O303 1.245 1_554 S
C319 O304 1.259 . S
Tb320 O323 2.453 . S
Tb320 O324 2.596 . S
Tb320 O325 2.374 . S
Tb320 O333 2.343 . S
Tb320 O335 2.353 . S
Tb320 O337 2.427 . S
Tb320 O338 2.513 . S
C321 O325 1.251 . S
C321 O327 1.263 . S
Tb322 O324 2.343 . S
Tb322 O327 2.353 . S
Tb322 O330 2.427 . S
Tb322 O331 2.513 . S
Tb322 O332 2.453 . S
Tb322 O333 2.596 . S
Tb322 O334 2.374 . S
O323 Tb320 2.453 . S
O323 C339 1.245 . S
O324 Tb320 2.596 . S
O324 Tb322 2.343 . S
O324 C339 1.259 . S
O325 Tb320 2.374 . S
O325 C321 1.251 . S
C326 O330 1.275 . S
C326 O331 1.246 . S
O327 C321 1.263 . S
O327 Tb322 2.353 . S
C328 O332 1.245 . S
C328 O333 1.259 . S
C329 O334 1.250 . S
C329 O335 1.263 . S
O330 Tb322 2.427 . S
O330 C326 1.275 . S
O331 Tb322 2.513 . S
O331 C326 1.246 . S
O332 Tb322 2.453 . S
O332 C328 1.245 . S
O333 Tb320 2.343 . S
O333 Tb322 2.596 . S
O333 C328 1.259 . S
O334 Tb322 2.374 . S
O334 C329 1.250 . S
O335 Tb320 2.353 . S
O335 C329 1.263 . S
C336 O337 1.275 . S
C336 O338 1.246 . S
O337 Tb320 2.427 . S
O337 C336 1.275 . S
O338 Tb320 2.513 . S
O338 C336 1.246 . S
C339 O323 1.245 . S
C339 O324 1.259 . S
Tb340 O343 2.453 . S
Tb340 O344 2.596 . S
Tb340 O345 2.374 . S
Tb340 O353 2.343 . S
Tb340 O355 2.353 . S
Tb340 O357 2.427 . S
Tb340 O358 2.513 . S
C341 O345 1.251 . S
C341 O347 1.263 . S
Tb342 O344 2.343 . S
Tb342 O347 2.353 . S
Tb342 O350 2.427 . S
Tb342 O351 2.513 . S
Tb342 O352 2.453 . S
Tb342 O353 2.596 . S
Tb342 O354 2.374 . S
O343 Tb340 2.453 . S
O343 C359 1.245 . S
O344 Tb340 2.596 . S
O344 Tb342 2.343 . S
O344 C359 1.259 . S
O345 Tb340 2.374 . S
O345 C341 1.251 . S
C346 O350 1.275 . S
C346 O351 1.246 . S
O347 C341 1.263 . S
O347 Tb342 2.353 . S
C348 O352 1.245 . S
C348 O353 1.259 . S
C349 O354 1.250 . S
C349 O355 1.263 . S
O350 Tb342 2.427 . S
O350 C346 1.275 . S
O351 Tb342 2.513 . S
O351 C346 1.246 . S
O352 Tb342 2.453 . S
O352 C348 1.245 . S
O353 Tb340 2.343 . S
O353 Tb342 2.596 . S
O353 C348 1.259 . S
O354 Tb342 2.374 . S
O354 C349 1.250 . S
O355 Tb340 2.353 . S
O355 C349 1.263 . S
C356 O357 1.275 . S
C356 O358 1.246 . S
O357 Tb340 2.427 . S
O357 C356 1.275 . S
O358 Tb340 2.513 . S
O358 C356 1.246 . S
C359 O343 1.245 . S
C359 O344 1.259 . S
C360 C361 1.391 . S
C360 C362 1.394 . S
C360 H376 0.931 . S
C361 C360 1.391 . S
C361 C365 1.376 . S
C362 C360 1.394 . S
C362 C363 1.369 . S
C362 C366 1.531 . S
C363 C362 1.369 . S
C363 C364 1.410 . S
C363 C371 1.503 . S
C364 C363 1.410 . S
C364 C365 1.392 . S
C364 C367 1.511 . S
C365 C361 1.376 . S
C365 C364 1.392 . S
C365 H377 0.929 . S
C366 C362 1.531 . S
C366 H378 0.960 . S
C366 H379 0.962 . S
C366 H380 0.960 . S
C367 C364 1.511 . S
C367 H381 0.961 . S
C367 H382 0.961 . S
C367 H383 0.961 . S
C368 C369 1.370 . S
C368 C370 1.363 . S
C368 H384 0.931 . S
C369 C368 1.370 . S
C369 C373 1.408 . S
C370 C368 1.363 . S
C370 C371 1.370 . S
C370 C374 1.524 . S
C371 C363 1.503 . S
C371 C370 1.370 . S
C371 C372 1.403 . S
C372 C371 1.403 . S
C372 C373 1.404 . S
C372 C375 1.539 . S
C373 C369 1.408 . S
C373 C372 1.404 . S
C373 H385 0.930 . S
C374 C370 1.524 . S
C374 H386 0.956 . S
C374 H387 0.961 . S
C374 H388 0.961 . S
C375 C372 1.539 . S
C375 H389 0.958 . S
C375 H390 0.961 . S
C375 H391 0.960 . S
H376 C360 0.931 . S
H377 C365 0.929 . S
H378 C366 0.960 . S
H379 C366 0.962 . S
H380 C366 0.960 . S
H381 C367 0.961 . S
H382 C367 0.961 . S
H383 C367 0.961 . S
H384 C368 0.931 . S
H385 C373 0.930 . S
H386 C374 0.956 . S
H387 C374 0.961 . S
H388 C374 0.961 . S
H389 C375 0.958 . S
H390 C375 0.961 . S
H391 C375 0.960 . S
C392 C393 1.391 . S
C392 C394 1.394 . S
C392 H408 0.931 . S
C393 C392 1.391 . S
C393 C397 1.376 . S
C394 C392 1.394 . S
C394 C395 1.369 . S
C394 C398 1.531 . S
C395 C394 1.369 . S
C395 C396 1.410 . S
C395 C403 1.503 . S
C396 C395 1.410 . S
C396 C397 1.392 . S
C396 C399 1.511 . S
C397 C393 1.376 . S
C397 C396 1.392 . S
C397 H409 0.929 . S
C398 C394 1.531 . S
C398 H410 0.960 . S
C398 H411 0.962 . S
C398 H412 0.960 . S
C399 C396 1.511 . S
C399 H413 0.961 . S
C399 H414 0.961 . S
C399 H415 0.961 . S
C400 C401 1.370 . S
C400 C402 1.363 . S
C400 H416 0.931 . S
C401 C400 1.370 . S
C401 C405 1.408 . S
C402 C400 1.363 . S
C402 C403 1.370 . S
C402 C406 1.524 . S
C403 C395 1.503 . S
C403 C402 1.370 . S
C403 C404 1.403 . S
C404 C403 1.403 . S
C404 C405 1.404 . S
C404 C407 1.539 . S
C405 C401 1.408 . S
C405 C404 1.404 . S
C405 H417 0.930 . S
C406 C402 1.524 . S
C406 H418 0.956 . S
C406 H419 0.961 . S
C406 H420 0.961 . S
C407 C404 1.539 . S
C407 H421 0.958 . S
C407 H422 0.961 . S
C407 H423 0.960 . S
H408 C392 0.931 . S
H409 C397 0.929 . S
H410 C398 0.960 . S
H411 C398 0.962 . S
H412 C398 0.960 . S
H413 C399 0.961 . S
H414 C399 0.961 . S
H415 C399 0.961 . S
H416 C400 0.931 . S
H417 C405 0.930 . S
H418 C406 0.956 . S
H419 C406 0.961 . S
H420 C406 0.961 . S
H421 C407 0.958 . S
H422 C407 0.961 . S
H423 C407 0.960 . S
C424 C425 1.391 . S
C424 C426 1.394 . S
C424 H440 0.931 . S
C425 C424 1.391 . S
C425 C429 1.376 . S
C426 C424 1.394 . S
C426 C427 1.369 . S
C426 C430 1.531 . S
C427 C426 1.369 . S
C427 C428 1.410 . S
C427 C435 1.503 . S
C428 C427 1.410 . S
C428 C429 1.392 . S
C428 C431 1.511 . S
C429 C425 1.376 . S
C429 C428 1.392 . S
C429 H441 0.929 . S
C430 C426 1.531 . S
C430 H442 0.960 . S
C430 H443 0.962 . S
C430 H444 0.960 . S
C431 C428 1.511 . S
C431 H445 0.961 . S
C431 H446 0.961 . S
C431 H447 0.961 . S
C432 C433 1.370 . S
C432 C434 1.363 . S
C432 H448 0.931 . S
C433 C432 1.370 . S
C433 C437 1.408 . S
C434 C432 1.363 . S
C434 C435 1.370 . S
C434 C438 1.524 . S
C435 C427 1.503 . S
C435 C434 1.370 . S
C435 C436 1.403 . S
C436 C435 1.403 . S
C436 C437 1.404 . S
C436 C439 1.539 . S
C437 C433 1.408 . S
C437 C436 1.404 . S
C437 H449 0.930 . S
C438 C434 1.524 . S
C438 H450 0.956 . S
C438 H451 0.961 . S
C438 H452 0.961 . S
C439 C436 1.539 . S
C439 H453 0.958 . S
C439 H454 0.961 . S
C439 H455 0.960 . S
H440 C424 0.931 . S
H441 C429 0.929 . S
H442 C430 0.960 . S
H443 C430 0.962 . S
H444 C430 0.960 . S
H445 C431 0.961 . S
H446 C431 0.961 . S
H447 C431 0.961 . S
H448 C432 0.931 . S
H449 C437 0.930 . S
H450 C438 0.956 . S
H451 C438 0.961 . S
H452 C438 0.961 . S
H453 C439 0.958 . S
H454 C439 0.961 . S
H455 C439 0.960 . S
C456 C457 1.391 . S
C456 C458 1.394 . S
C456 H472 0.931 . S
C457 C456 1.391 . S
C457 C461 1.376 . S
C458 C456 1.394 . S
C458 C459 1.369 . S
C458 C462 1.531 . S
C459 C458 1.369 . S
C459 C460 1.410 . S
C459 C467 1.503 . S
C460 C459 1.410 . S
C460 C461 1.392 . S
C460 C463 1.511 . S
C461 C457 1.376 . S
C461 C460 1.392 . S
C461 H473 0.929 . S
C462 C458 1.531 . S
C462 H474 0.960 . S
C462 H475 0.962 . S
C462 H476 0.960 . S
C463 C460 1.511 . S
C463 H477 0.961 . S
C463 H478 0.961 . S
C463 H479 0.961 . S
C464 C465 1.370 . S
C464 C466 1.363 . S
C464 H480 0.931 . S
C465 C464 1.370 . S
C465 C469 1.408 . S
C466 C464 1.363 . S
C466 C467 1.370 . S
C466 C470 1.524 . S
C467 C459 1.503 . S
C467 C466 1.370 . S
C467 C468 1.403 . S
C468 C467 1.403 . S
C468 C469 1.404 . S
C468 C471 1.539 . S
C469 C465 1.408 . S
C469 C468 1.404 . S
C469 H481 0.930 . S
C470 C466 1.524 . S
C470 H482 0.956 . S
C470 H483 0.961 . S
C470 H484 0.961 . S
C471 C468 1.539 . S
C471 H485 0.958 . S
C471 H486 0.961 . S
C471 H487 0.960 . S
H472 C456 0.931 . S
H473 C461 0.929 . S
H474 C462 0.960 . S
H475 C462 0.962 . S
H476 C462 0.960 . S
H477 C463 0.961 . S
H478 C463 0.961 . S
H479 C463 0.961 . S
H480 C464 0.931 . S
H481 C469 0.930 . S
H482 C470 0.956 . S
H483 C470 0.961 . S
H484 C470 0.961 . S
H485 C471 0.958 . S
H486 C471 0.961 . S
H487 C471 0.960 . S
C488 C489 1.391 . S
C488 C490 1.394 . S
C488 H504 0.931 . S
C489 C488 1.391 . S
C489 C493 1.376 . S
C490 C488 1.394 . S
C490 C491 1.369 . S
C490 C494 1.531 . S
C491 C490 1.369 . S
C491 C492 1.410 . S
C491 C499 1.503 . S
C492 C491 1.410 . S
C492 C493 1.392 . S
C492 C495 1.511 . S
C493 C489 1.376 . S
C493 C492 1.392 . S
C493 H505 0.929 . S
C494 C490 1.531 . S
C494 H506 0.960 . S
C494 H507 0.962 . S
C494 H508 0.960 . S
C495 C492 1.511 . S
C495 H509 0.961 . S
C495 H510 0.961 . S
C495 H511 0.961 . S
C496 C497 1.370 . S
C496 C498 1.363 . S
C496 H512 0.931 . S
C497 C496 1.370 . S
C497 C501 1.408 . S
C498 C496 1.363 . S
C498 C499 1.370 . S
C498 C502 1.524 . S
C499 C491 1.503 . S
C499 C498 1.370 . S
C499 C500 1.403 . S
C500 C499 1.403 . S
C500 C501 1.404 . S
C500 C503 1.539 . S
C501 C497 1.408 . S
C501 C500 1.404 . S
C501 H513 0.930 . S
C502 C498 1.524 . S
C502 H514 0.956 . S
C502 H515 0.961 . S
C502 H516 0.961 . S
C503 C500 1.539 . S
C503 H517 0.958 . S
C503 H518 0.961 . S
C503 H519 0.960 . S
H504 C488 0.931 . S
H505 C493 0.929 . S
H506 C494 0.960 . S
H507 C494 0.962 . S
H508 C494 0.960 . S
H509 C495 0.961 . S
H510 C495 0.961 . S
H511 C495 0.961 . S
H512 C496 0.931 . S
H513 C501 0.930 . S
H514 C502 0.956 . S
H515 C502 0.961 . S
H516 C502 0.961 . S
H517 C503 0.958 . S
H518 C503 0.961 . S
H519 C503 0.960 . S
C520 C521 1.391 . S
C520 C522 1.394 . S
C520 H536 0.931 . S
C521 C520 1.391 . S
C521 C525 1.376 . S
C522 C520 1.394 . S
C522 C523 1.369 . S
C522 C526 1.531 . S
C523 C522 1.369 . S
C523 C524 1.410 . S
C523 C531 1.503 . S
C524 C523 1.410 . S
C524 C525 1.392 . S
C524 C527 1.511 . S
C525 C521 1.376 . S
C525 C524 1.392 . S
C525 H537 0.929 . S
C526 C522 1.531 . S
C526 H538 0.960 . S
C526 H539 0.962 . S
C526 H540 0.960 . S
C527 C524 1.511 . S
C527 H541 0.961 . S
C527 H542 0.961 . S
C527 H543 0.961 . S
C528 C529 1.370 . S
C528 C530 1.363 . S
C528 H544 0.931 . S
C529 C528 1.370 . S
C529 C533 1.408 . S
C530 C528 1.363 . S
C530 C531 1.370 . S
C530 C534 1.524 . S
C531 C523 1.503 . S
C531 C530 1.370 . S
C531 C532 1.403 . S
C532 C531 1.403 . S
C532 C533 1.404 . S
C532 C535 1.539 . S
C533 C529 1.408 . S
C533 C532 1.404 . S
C533 H545 0.930 . S
C534 C530 1.524 . S
C534 H546 0.956 . S
C534 H547 0.961 . S
C534 H548 0.961 . S
C535 C532 1.539 . S
C535 H549 0.958 . S
C535 H550 0.961 . S
C535 H551 0.960 . S
H536 C520 0.931 . S
H537 C525 0.929 . S
H538 C526 0.960 . S
H539 C526 0.962 . S
H540 C526 0.960 . S
H541 C527 0.961 . S
H542 C527 0.961 . S
H543 C527 0.961 . S
H544 C528 0.931 . S
H545 C533 0.930 . S
H546 C534 0.956 . S
H547 C534 0.961 . S
H548 C534 0.961 . S
H549 C535 0.958 . S
H550 C535 0.961 . S
H551 C535 0.960 . S
C552 C553 1.391 . S
C552 C554 1.394 . S
C552 H568 0.931 . S
C553 C552 1.391 . S
C553 C557 1.376 . S
C554 C552 1.394 . S
C554 C555 1.369 . S
C554 C558 1.531 . S
C555 C554 1.369 . S
C555 C556 1.410 . S
C555 C563 1.503 . S
C556 C555 1.410 . S
C556 C557 1.392 . S
C556 C559 1.511 . S
C557 C553 1.376 . S
C557 C556 1.392 . S
C557 H569 0.929 . S
C558 C554 1.531 . S
C558 H570 0.960 . S
C558 H571 0.962 . S
C558 H572 0.960 . S
C559 C556 1.511 . S
C559 H573 0.961 . S
C559 H574 0.961 . S
C559 H575 0.961 . S
C560 C561 1.370 . S
C560 C562 1.363 . S
C560 H576 0.931 . S
C561 C560 1.370 . S
C561 C565 1.408 . S
C562 C560 1.363 . S
C562 C563 1.370 . S
C562 C566 1.524 . S
C563 C555 1.503 . S
C563 C562 1.370 . S
C563 C564 1.403 . S
C564 C563 1.403 . S
C564 C565 1.404 . S
C564 C567 1.539 . S
C565 C561 1.408 . S
C565 C564 1.404 . S
C565 H577 0.930 . S
C566 C562 1.524 . S
C566 H578 0.956 . S
C566 H579 0.961 . S
C566 H580 0.961 . S
C567 C564 1.539 . S
C567 H581 0.958 . S
C567 H582 0.961 . S
C567 H583 0.960 . S
H568 C552 0.931 . S
H569 C557 0.929 . S
H570 C558 0.960 . S
H571 C558 0.962 . S
H572 C558 0.960 . S
H573 C559 0.961 . S
H574 C559 0.961 . S
H575 C559 0.961 . S
H576 C560 0.931 . S
H577 C565 0.930 . S
H578 C566 0.956 . S
H579 C566 0.961 . S
H580 C566 0.961 . S
H581 C567 0.958 . S
H582 C567 0.961 . S
H583 C567 0.960 . S
C584 C585 1.391 . S
C584 C586 1.394 . S
C584 H600 0.931 . S
C585 C584 1.391 . S
C585 C589 1.376 . S
C586 C584 1.394 . S
C586 C587 1.369 . S
C586 C590 1.531 . S
C587 C586 1.369 . S
C587 C588 1.410 . S
C587 C595 1.503 . S
C588 C587 1.410 . S
C588 C589 1.392 . S
C588 C591 1.511 . S
C589 C585 1.376 . S
C589 C588 1.392 . S
C589 H601 0.929 . S
C590 C586 1.531 . S
C590 H602 0.960 . S
C590 H603 0.962 . S
C590 H604 0.960 . S
C591 C588 1.511 . S
C591 H605 0.961 . S
C591 H606 0.961 . S
C591 H607 0.961 . S
C592 C593 1.370 . S
C592 C594 1.363 . S
C592 H608 0.931 . S
C593 C592 1.370 . S
C593 C597 1.408 . S
C594 C592 1.363 . S
C594 C595 1.370 . S
C594 C598 1.524 . S
C595 C587 1.503 . S
C595 C594 1.370 . S
C595 C596 1.403 . S
C596 C595 1.403 . S
C596 C597 1.404 . S
C596 C599 1.539 . S
C597 C593 1.408 . S
C597 C596 1.404 . S
C597 H609 0.930 . S
C598 C594 1.524 . S
C598 H610 0.956 . S
C598 H611 0.961 . S
C598 H612 0.961 . S
C599 C596 1.539 . S
C599 H613 0.958 . S
C599 H614 0.961 . S
C599 H615 0.960 . S
H600 C584 0.931 . S
H601 C589 0.929 . S
H602 C590 0.960 . S
H603 C590 0.962 . S
H604 C590 0.960 . S
H605 C591 0.961 . S
H606 C591 0.961 . S
H607 C591 0.961 . S
H608 C592 0.931 . S
H609 C597 0.930 . S
H610 C598 0.956 . S
H611 C598 0.961 . S
H612 C598 0.961 . S
H613 C599 0.958 . S
H614 C599 0.961 . S
H615 C599 0.960 . S
C616 C617 1.391 . S
C616 C618 1.394 . S
C616 H632 0.931 . S
C617 C616 1.391 . S
C617 C621 1.376 . S
C618 C616 1.394 . S
C618 C619 1.369 . S
C618 C622 1.531 . S
C619 C618 1.369 . S
C619 C620 1.410 . S
C619 C627 1.503 . S
C620 C619 1.410 . S
C620 C621 1.392 . S
C620 C623 1.511 . S
C621 C617 1.376 . S
C621 C620 1.392 . S
C621 H633 0.929 . S
C622 C618 1.531 . S
C622 H634 0.960 . S
C622 H635 0.962 . S
C622 H636 0.960 . S
C623 C620 1.511 . S
C623 H637 0.961 . S
C623 H638 0.961 . S
C623 H639 0.961 . S
C624 C625 1.370 . S
C624 C626 1.363 . S
C624 H640 0.931 . S
C625 C624 1.370 . S
C625 C629 1.408 . S
C626 C624 1.363 . S
C626 C627 1.370 . S
C626 C630 1.524 . S
C627 C619 1.503 . S
C627 C626 1.370 . S
C627 C628 1.403 . S
C628 C627 1.403 . S
C628 C629 1.404 . S
C628 C631 1.539 . S
C629 C625 1.408 . S
C629 C628 1.404 . S
C629 H641 0.930 . S
C630 C626 1.524 . S
C630 H642 0.956 . S
C630 H643 0.961 . S
C630 H644 0.961 . S
C631 C628 1.539 . S
C631 H645 0.958 . S
C631 H646 0.961 . S
C631 H647 0.960 . S
H632 C616 0.931 . S
H633 C621 0.929 . S
H634 C622 0.960 . S
H635 C622 0.962 . S
H636 C622 0.960 . S
H637 C623 0.961 . S
H638 C623 0.961 . S
H639 C623 0.961 . S
H640 C624 0.931 . S
H641 C629 0.930 . S
H642 C630 0.956 . S
H643 C630 0.961 . S
H644 C630 0.961 . S
H645 C631 0.958 . S
H646 C631 0.961 . S
H647 C631 0.960 . S
C648 C649 1.391 . S
C648 C650 1.394 . S
C648 H664 0.931 . S
C649 C648 1.391 . S
C649 C653 1.376 . S
C650 C648 1.394 . S
C650 C651 1.369 . S
C650 C654 1.531 . S
C651 C650 1.369 . S
C651 C652 1.410 . S
C651 C659 1.503 . S
C652 C651 1.410 . S
C652 C653 1.392 . S
C652 C655 1.511 . S
C653 C649 1.376 . S
C653 C652 1.392 . S
C653 H665 0.929 . S
C654 C650 1.531 . S
C654 H666 0.960 . S
C654 H667 0.962 . S
C654 H668 0.960 . S
C655 C652 1.511 . S
C655 H669 0.961 . S
C655 H670 0.961 . S
C655 H671 0.961 . S
C656 C657 1.370 . S
C656 C658 1.363 . S
C656 H672 0.931 1_565 S
C657 C656 1.370 . S
C657 C661 1.408 . S
C658 C656 1.363 . S
C658 C659 1.370 . S
C658 C662 1.524 . S
C659 C651 1.503 . S
C659 C658 1.370 . S
C659 C660 1.403 . S
C660 C659 1.403 . S
C660 C661 1.404 . S
C660 C663 1.539 . S
C661 C657 1.408 . S
C661 C660 1.404 . S
C661 H673 0.930 . S
C662 C658 1.524 . S
C662 H674 0.956 . S
C662 H675 0.961 . S
C662 H676 0.961 1_565 S
C663 C660 1.539 . S
C663 H677 0.958 . S
C663 H678 0.961 . S
C663 H679 0.960 . S
H664 C648 0.931 . S
H665 C653 0.929 . S
H666 C654 0.960 . S
H667 C654 0.962 . S
H668 C654 0.960 . S
H669 C655 0.961 . S
H670 C655 0.961 . S
H671 C655 0.961 . S
H672 C656 0.931 1_545 S
H673 C661 0.930 . S
H674 C662 0.956 . S
H675 C662 0.961 . S
H676 C662 0.961 1_545 S
H677 C663 0.958 . S
H678 C663 0.961 . S
H679 C663 0.960 . S
C680 C681 1.391 . S
C680 C682 1.394 . S
C680 H696 0.931 . S
C681 C680 1.391 . S
C681 C685 1.376 . S
C682 C680 1.394 . S
C682 C683 1.369 . S
C682 C686 1.531 . S
C683 C682 1.369 . S
C683 C684 1.410 . S
C683 C691 1.503 . S
C684 C683 1.410 . S
C684 C685 1.392 . S
C684 C687 1.511 . S
C685 C681 1.376 . S
C685 C684 1.392 . S
C685 H697 0.929 . S
C686 C682 1.531 . S
C686 H698 0.960 . S
C686 H699 0.962 . S
C686 H700 0.960 . S
C687 C684 1.511 . S
C687 H701 0.961 . S
C687 H702 0.961 . S
C687 H703 0.961 . S
C688 C689 1.370 . S
C688 C690 1.363 . S
C688 H704 0.931 . S
C689 C688 1.370 . S
C689 C693 1.408 . S
C690 C688 1.363 . S
C690 C691 1.370 . S
C690 C694 1.524 . S
C691 C683 1.503 . S
C691 C690 1.370 . S
C691 C692 1.403 . S
C692 C691 1.403 . S
C692 C693 1.404 . S
C692 C695 1.539 . S
C693 C689 1.408 . S
C693 C692 1.404 . S
C693 H705 0.930 . S
C694 C690 1.524 . S
C694 H706 0.956 . S
C694 H707 0.961 . S
C694 H708 0.961 . S
C695 C692 1.539 . S
C695 H709 0.958 . S
C695 H710 0.961 . S
C695 H711 0.960 . S
H696 C680 0.931 . S
H697 C685 0.929 . S
H698 C686 0.960 . S
H699 C686 0.962 . S
H700 C686 0.960 . S
H701 C687 0.961 . S
H702 C687 0.961 . S
H703 C687 0.961 . S
H704 C688 0.931 . S
H705 C693 0.930 . S
H706 C694 0.956 . S
H707 C694 0.961 . S
H708 C694 0.961 . S
H709 C695 0.958 . S
H710 C695 0.961 . S
H711 C695 0.960 . S
C712 C713 1.391 . S
C712 C714 1.394 . S
C712 H728 0.931 . S
C713 C712 1.391 . S
C713 C717 1.376 . S
C714 C712 1.394 . S
C714 C715 1.369 . S
C714 C718 1.531 . S
C715 C714 1.369 . S
C715 C716 1.410 . S
C715 C723 1.503 . S
C716 C715 1.410 . S
C716 C717 1.392 . S
C716 C719 1.511 . S
C717 C713 1.376 . S
C717 C716 1.392 . S
C717 H729 0.929 . S
C718 C714 1.531 . S
C718 H730 0.960 . S
C718 H731 0.962 . S
C718 H732 0.960 . S
C719 C716 1.511 . S
C719 H733 0.961 . S
C719 H734 0.961 . S
C719 H735 0.961 . S
C720 C721 1.370 . S
C720 C722 1.363 . S
C720 H736 0.931 . S
C721 C720 1.370 . S
C721 C725 1.408 . S
C722 C720 1.363 . S
C722 C723 1.370 . S
C722 C726 1.524 . S
C723 C715 1.503 . S
C723 C722 1.370 . S
C723 C724 1.403 . S
C724 C723 1.403 . S
C724 C725 1.404 . S
C724 C727 1.539 . S
C725 C721 1.408 . S
C725 C724 1.404 . S
C725 H737 0.930 . S
C726 C722 1.524 . S
C726 H738 0.956 . S
C726 H739 0.961 . S
C726 H740 0.961 . S
C727 C724 1.539 . S
C727 H741 0.958 . S
C727 H742 0.961 . S
C727 H743 0.960 . S
H728 C712 0.931 . S
H729 C717 0.929 . S
H730 C718 0.960 . S
H731 C718 0.962 . S
H732 C718 0.960 . S
H733 C719 0.961 . S
H734 C719 0.961 . S
H735 C719 0.961 . S
H736 C720 0.931 . S
H737 C725 0.930 . S
H738 C726 0.956 . S
H739 C726 0.961 . S
H740 C726 0.961 . S
H741 C727 0.958 . S
H742 C727 0.961 . S
H743 C727 0.960 . S
C744 C745 1.391 . S
C744 C746 1.394 1_656 S
C744 H760 0.931 1_556 S
C745 C744 1.391 . S
C745 C749 1.376 1_655 S
C746 C744 1.394 1_454 S
C746 C747 1.369 1_554 S
C746 C750 1.531 . S
C747 C746 1.369 1_556 S
C747 C748 1.410 . S
C747 C755 1.503 1_556 S
C748 C747 1.410 . S
C748 C749 1.392 . S
C748 C751 1.511 . S
C749 C745 1.376 1_455 S
C749 C748 1.392 . S
C749 H761 0.929 1_455 S
C750 C746 1.531 . S
C750 H762 0.960 . S
C750 H763 0.962 . S
C750 H764 0.960 . S
C751 C748 1.511 . S
C751 H765 0.961 . S
C751 H766 0.961 . S
C751 H767 0.961 . S
C752 C753 1.370 . S
C752 C754 1.363 1_554 S
C752 H768 0.931 1_554 S
C753 C752 1.370 . S
C753 C757 1.408 . S
C754 C752 1.363 1_556 S
C754 C755 1.370 1_556 S
C754 C758 1.524 . S
C755 C747 1.503 1_554 S
C755 C754 1.370 1_554 S
C755 C756 1.403 . S
C756 C755 1.403 . S
C756 C757 1.404 . S
C756 C759 1.539 . S
C757 C753 1.408 . S
C757 C756 1.404 . S
C757 H769 0.930 . S
C758 C754 1.524 . S
C758 H770 0.956 . S
C758 H771 0.961 . S
C758 H772 0.961 . S
C759 C756 1.539 . S
C759 H773 0.958 . S
C759 H774 0.961 . S
C759 H775 0.960 . S
H760 C744 0.931 1_554 S
H761 C749 0.929 1_655 S
H762 C750 0.960 . S
H763 C750 0.962 . S
H764 C750 0.960 . S
H765 C751 0.961 . S
H766 C751 0.961 . S
H767 C751 0.961 . S
H768 C752 0.931 1_556 S
H769 C757 0.930 . S
H770 C758 0.956 . S
H771 C758 0.961 . S
H772 C758 0.961 . S
H773 C759 0.958 . S
H774 C759 0.961 . S
H775 C759 0.960 . S
C776 C777 1.391 . S
C776 C778 1.394 . S
C776 H792 0.931 . S
C777 C776 1.391 . S
C777 C781 1.376 . S
C778 C776 1.394 . S
C778 C779 1.369 . S
C778 C782 1.531 . S
C779 C778 1.369 . S
C779 C780 1.410 . S
C779 C787 1.503 . S
C780 C779 1.410 . S
C780 C781 1.392 . S
C780 C783 1.511 . S
C781 C777 1.376 . S
C781 C780 1.392 . S
C781 H793 0.929 . S
C782 C778 1.531 . S
C782 H794 0.960 . S
C782 H795 0.962 . S
C782 H796 0.960 . S
C783 C780 1.511 . S
C783 H797 0.961 . S
C783 H798 0.961 1_556 S
C783 H799 0.961 . S
C784 C785 1.370 . S
C784 C786 1.363 . S
C784 H800 0.931 . S
C785 C784 1.370 . S
C785 C789 1.408 1_554 S
C786 C784 1.363 . S
C786 C787 1.370 1_554 S
C786 C790 1.524 . S
C787 C779 1.503 . S
C787 C786 1.370 1_556 S
C787 C788 1.403 . S
C788 C787 1.403 . S
C788 C789 1.404 . S
C788 C791 1.539 . S
C789 C785 1.408 1_556 S
C789 C788 1.404 . S
C789 H801 0.930 . S
C790 C786 1.524 . S
C790 H802 0.956 . S
C790 H803 0.961 . S
C790 H804 0.961 . S
C791 C788 1.539 . S
C791 H805 0.958 . S
C791 H806 0.961 . S
C791 H807 0.960 . S
H792 C776 0.931 . S
H793 C781 0.929 . S
H794 C782 0.960 . S
H795 C782 0.962 . S
H796 C782 0.960 . S
H797 C783 0.961 . S
H798 C783 0.961 1_554 S
H799 C783 0.961 . S
H800 C784 0.931 . S
H801 C789 0.930 . S
H802 C790 0.956 . S
H803 C790 0.961 . S
H804 C790 0.961 . S
H805 C791 0.958 . S
H806 C791 0.961 . S
H807 C791 0.960 . S
C808 C809 1.391 . S
C808 C810 1.394 . S
C808 H824 0.931 . S
C809 C808 1.391 . S
C809 C813 1.376 . S
C810 C808 1.394 . S
C810 C811 1.369 . S
C810 C814 1.531 . S
C811 C810 1.369 . S
C811 C812 1.410 . S
C811 C819 1.503 . S
C812 C811 1.410 . S
C812 C813 1.392 . S
C812 C815 1.511 1_556 S
C813 C809 1.376 . S
C813 C812 1.392 . S
C813 H825 0.929 . S
C814 C810 1.531 . S
C814 H826 0.960 . S
C814 H827 0.962 . S
C814 H828 0.960 . S
C815 C812 1.511 1_554 S
C815 H829 0.961 . S
C815 H830 0.961 . S
C815 H831 0.961 . S
C816 C817 1.370 . S
C816 C818 1.363 1_565 S
C816 H832 0.931 . S
C817 C816 1.370 . S
C817 C821 1.408 1_554 S
C818 C816 1.363 1_545 S
C818 C819 1.370 1_554 S
C818 C822 1.524 . S
C819 C811 1.503 . S
C819 C818 1.370 1_556 S
C819 C820 1.403 . S
C820 C819 1.403 . S
C820 C821 1.404 1_545 S
C820 C823 1.539 . S
C821 C817 1.408 1_556 S
C821 C820 1.404 1_565 S
C821 H833 0.930 . S
C822 C818 1.524 . S
C822 H834 0.956 1_554 S
C822 H835 0.961 . S
C822 H836 0.961 . S
C823 C820 1.539 . S
C823 H837 0.958 . S
C823 H838 0.961 . S
C823 H839 0.960 . S
H824 C808 0.931 . S
H825 C813 0.929 . S
H826 C814 0.960 . S
H827 C814 0.962 . S
H828 C814 0.960 . S
H829 C815 0.961 . S
H830 C815 0.961 . S
H831 C815 0.961 . S
H832 C816 0.931 . S
H833 C821 0.930 . S
H834 C822 0.956 1_556 S
H835 C822 0.961 . S
H836 C822 0.961 . S
H837 C823 0.958 . S
H838 C823 0.961 . S
H839 C823 0.960 . S
C840 C841 1.391 . S
C840 C842 1.394 1_556 S
C840 H856 0.931 1_556 S
C841 C840 1.391 . S
C841 C845 1.376 . S
C842 C840 1.394 1_554 S
C842 C843 1.369 . S
C842 C846 1.531 . S
C843 C842 1.369 . S
C843 C844 1.410 1_554 S
C843 C851 1.503 . S
C844 C843 1.410 1_556 S
C844 C845 1.392 . S
C844 C847 1.511 . S
C845 C841 1.376 . S
C845 C844 1.392 . S
C845 H857 0.929 . S
C846 C842 1.531 . S
C846 H858 0.960 . S
C846 H859 0.962 . S
C846 H860 0.960 . S
C847 C844 1.511 . S
C847 H861 0.961 . S
C847 H862 0.961 . S
C847 H863 0.961 . S
C848 C849 1.370 . S
C848 C850 1.363 1_565 S
C848 H864 0.931 . S
C849 C848 1.370 . S
C849 C853 1.408 1_565 S
C850 C848 1.363 1_545 S
C850 C851 1.370 . S
C850 C854 1.524 1_554 S
C851 C843 1.503 . S
C851 C850 1.370 . S
C851 C852 1.403 . S
C852 C851 1.403 . S
C852 C853 1.404 . S
C852 C855 1.539 . S
C853 C849 1.408 1_545 S
C853 C852 1.404 . S
C853 H865 0.930 . S
C854 C850 1.524 1_556 S
C854 H866 0.956 . S
C854 H867 0.961 . S
C854 H868 0.961 . S
C855 C852 1.539 . S
C855 H869 0.958 . S
C855 H870 0.961 . S
C855 H871 0.960 . S
H856 C840 0.931 1_554 S
H857 C845 0.929 . S
H858 C846 0.960 . S
H859 C846 0.962 . S
H860 C846 0.960 . S
H861 C847 0.961 . S
H862 C847 0.961 . S
H863 C847 0.961 . S
H864 C848 0.931 . S
H865 C853 0.930 . S
H866 C854 0.956 . S
H867 C854 0.961 . S
H868 C854 0.961 . S
H869 C855 0.958 . S
H870 C855 0.961 . S
H871 C855 0.960 . S
C872 C873 1.391 . S
C872 C874 1.394 . S
C872 H888 0.931 . S
C873 C872 1.391 . S
C873 C877 1.376 . S
C874 C872 1.394 . S
C874 C875 1.369 . S
C874 C878 1.531 . S
C875 C874 1.369 . S
C875 C876 1.410 . S
C875 C883 1.503 . S
C876 C875 1.410 . S
C876 C877 1.392 . S
C876 C879 1.511 . S
C877 C873 1.376 . S
C877 C876 1.392 . S
C877 H889 0.929 . S
C878 C874 1.531 . S
C878 H890 0.960 . S
C878 H891 0.962 . S
C878 H892 0.960 . S
C879 C876 1.511 . S
C879 H893 0.961 . S
C879 H894 0.961 . S
C879 H895 0.961 . S
C880 C881 1.370 1_455 S
C880 C882 1.363 . S
C880 H896 0.931 . S
C881 C880 1.370 1_655 S
C881 C885 1.408 1_556 S
C882 C880 1.363 . S
C882 C883 1.370 1_556 S
C882 C886 1.524 . S
C883 C875 1.503 . S
C883 C882 1.370 1_554 S
C883 C884 1.403 . S
C884 C883 1.403 . S
C884 C885 1.404 1_455 S
C884 C887 1.539 . S
C885 C881 1.408 1_554 S
C885 C884 1.404 1_655 S
C885 H897 0.930 . S
C886 C882 1.524 . S
C886 H898 0.956 . S
C886 H899 0.961 . S
C886 H900 0.961 . S
C887 C884 1.539 . S
C887 H901 0.958 . S
C887 H902 0.961 1_455 S
C887 H903 0.960 . S
H888 C872 0.931 . S
H889 C877 0.929 . S
H890 C878 0.960 . S
H891 C878 0.962 . S
H892 C878 0.960 . S
H893 C879 0.961 . S
H894 C879 0.961 . S
H895 C879 0.961 . S
H896 C880 0.931 . S
H897 C885 0.930 . S
H898 C886 0.956 . S
H899 C886 0.961 . S
H900 C886 0.961 . S
H901 C887 0.958 . S
H902 C887 0.961 1_655 S
H903 C887 0.960 . S
C904 C905 1.391 . S
C904 C906 1.394 . S
C904 H920 0.931 . S
C905 C904 1.391 . S
C905 C909 1.376 . S
C906 C904 1.394 . S
C906 C907 1.369 . S
C906 C910 1.531 1_554 S
C907 C906 1.369 . S
C907 C908 1.410 . S
C907 C915 1.503 . S
C908 C907 1.410 . S
C908 C909 1.392 . S
C908 C911 1.511 . S
C909 C905 1.376 . S
C909 C908 1.392 . S
C909 H921 0.929 . S
C910 C906 1.531 1_556 S
C910 H922 0.960 . S
C910 H923 0.962 . S
C910 H924 0.960 . S
C911 C908 1.511 . S
C911 H925 0.961 . S
C911 H926 0.961 . S
C911 H927 0.961 . S
C912 C913 1.370 . S
C912 C914 1.363 . S
C912 H928 0.931 . S
C913 C912 1.370 . S
C913 C917 1.408 1_556 S
C914 C912 1.363 . S
C914 C915 1.370 1_556 S
C914 C918 1.524 . S
C915 C907 1.503 . S
C915 C914 1.370 1_554 S
C915 C916 1.403 . S
C916 C915 1.403 . S
C916 C917 1.404 . S
C916 C919 1.539 . S
C917 C913 1.408 1_554 S
C917 C916 1.404 . S
C917 H929 0.930 . S
C918 C914 1.524 . S
C918 H930 0.956 . S
C918 H931 0.961 . S
C918 H932 0.961 . S
C919 C916 1.539 . S
C919 H933 0.958 . S
C919 H934 0.961 . S
C919 H935 0.960 . S
H920 C904 0.931 . S
H921 C909 0.929 . S
H922 C910 0.960 . S
H923 C910 0.962 . S
H924 C910 0.960 . S
H925 C911 0.961 . S
H926 C911 0.961 . S
H927 C911 0.961 . S
H928 C912 0.931 . S
H929 C917 0.930 . S
H930 C918 0.956 . S
H931 C918 0.961 . S
H932 C918 0.961 . S
H933 C919 0.958 . S
H934 C919 0.961 . S
H935 C919 0.960 . S
C936 C937 1.391 . S
C936 C938 1.394 . S
C936 H952 0.931 . S
C937 C936 1.391 . S
C937 C941 1.376 . S
C938 C936 1.394 . S
C938 C939 1.369 . S
C938 C942 1.531 . S
C939 C938 1.369 . S
C939 C940 1.410 . S
C939 C947 1.503 . S
C940 C939 1.410 . S
C940 C941 1.392 . S
C940 C943 1.511 . S
C941 C937 1.376 . S
C941 C940 1.392 . S
C941 H953 0.929 . S
C942 C938 1.531 . S
C942 H954 0.960 . S
C942 H955 0.962 . S
C942 H956 0.960 . S
C943 C940 1.511 . S
C943 H957 0.961 . S
C943 H958 0.961 . S
C943 H959 0.961 . S
C944 C945 1.370 . S
C944 C946 1.363 . S
C944 H960 0.931 . S
C945 C944 1.370 . S
C945 C949 1.408 . S
C946 C944 1.363 . S
C946 C947 1.370 . S
C946 C950 1.524 . S
C947 C939 1.503 . S
C947 C946 1.370 . S
C947 C948 1.403 . S
C948 C947 1.403 . S
C948 C949 1.404 . S
C948 C951 1.539 . S
C949 C945 1.408 . S
C949 C948 1.404 . S
C949 H961 0.930 . S
C950 C946 1.524 . S
C950 H962 0.956 . S
C950 H963 0.961 . S
C950 H964 0.961 . S
C951 C948 1.539 . S
C951 H965 0.958 . S
C951 H966 0.961 . S
C951 H967 0.960 . S
H952 C936 0.931 . S
H953 C941 0.929 . S
H954 C942 0.960 . S
H955 C942 0.962 . S
H956 C942 0.960 . S
H957 C943 0.961 . S
H958 C943 0.961 . S
H959 C943 0.961 . S
H960 C944 0.931 . S
H961 C949 0.930 . S
H962 C950 0.956 . S
H963 C950 0.961 . S
H964 C950 0.961 . S
H965 C951 0.958 . S
H966 C951 0.961 . S
H967 C951 0.960 . S
C968 C969 1.391 . S
C968 C970 1.394 . S
C968 H984 0.931 . S
C969 C968 1.391 . S
C969 C973 1.376 . S
C970 C968 1.394 . S
C970 C971 1.369 . S
C970 C974 1.531 . S
C971 C970 1.369 . S
C971 C972 1.410 . S
C971 C979 1.503 . S
C972 C971 1.410 . S
C972 C973 1.392 . S
C972 C975 1.511 . S
C973 C969 1.376 . S
C973 C972 1.392 . S
C973 H985 0.929 . S
C974 C970 1.531 . S
C974 H986 0.960 . S
C974 H987 0.962 . S
C974 H988 0.960 . S
C975 C972 1.511 . S
C975 H989 0.961 . S
C975 H990 0.961 . S
C975 H991 0.961 . S
C976 C977 1.370 . S
C976 C978 1.363 . S
C976 H992 0.931 . S
C977 C976 1.370 . S
C977 C981 1.408 . S
C978 C976 1.363 . S
C978 C979 1.370 . S
C978 C982 1.524 . S
C979 C971 1.503 . S
C979 C978 1.370 . S
C979 C980 1.403 . S
C980 C979 1.403 . S
C980 C981 1.404 . S
C980 C983 1.539 . S
C981 C977 1.408 . S
C981 C980 1.404 . S
C981 H993 0.930 . S
C982 C978 1.524 . S
C982 H994 0.956 . S
C982 H995 0.961 . S
C982 H996 0.961 . S
C983 C980 1.539 . S
C983 H997 0.958 . S
C983 H998 0.961 . S
C983 H999 0.960 . S
H984 C968 0.931 . S
H985 C973 0.929 . S
H986 C974 0.960 . S
H987 C974 0.962 . S
H988 C974 0.960 . S
H989 C975 0.961 . S
H990 C975 0.961 . S
H991 C975 0.961 . S
H992 C976 0.931 . S
H993 C981 0.930 . S
H994 C982 0.956 . S
H995 C982 0.961 . S
H996 C982 0.961 . S
H997 C983 0.958 . S
H998 C983 0.961 . S
H999 C983 0.960 . S
C1000 C1001 1.391 . S
C1000 C1002 1.394 . S
C1000 H1016 0.931 . S
C1001 C1000 1.391 . S
C1001 C1005 1.376 . S
C1002 C1000 1.394 . S
C1002 C1003 1.369 . S
C1002 C1006 1.531 . S
C1003 C1002 1.369 . S
C1003 C1004 1.410 . S
C1003 C1011 1.503 . S
C1004 C1003 1.410 . S
C1004 C1005 1.392 . S
C1004 C1007 1.511 . S
C1005 C1001 1.376 . S
C1005 C1004 1.392 . S
C1005 H1017 0.929 . S
C1006 C1002 1.531 . S
C1006 H1018 0.960 . S
C1006 H1019 0.962 . S
C1006 H1020 0.960 . S
C1007 C1004 1.511 . S
C1007 H1021 0.961 . S
C1007 H1022 0.961 . S
C1007 H1023 0.961 . S
C1008 C1009 1.370 . S
C1008 C1010 1.363 . S
C1008 H1024 0.931 . S
C1009 C1008 1.370 . S
C1009 C1013 1.408 . S
C1010 C1008 1.363 . S
C1010 C1011 1.370 . S
C1010 C1014 1.524 . S
C1011 C1003 1.503 . S
C1011 C1010 1.370 . S
C1011 C1012 1.403 . S
C1012 C1011 1.403 . S
C1012 C1013 1.404 . S
C1012 C1015 1.539 . S
C1013 C1009 1.408 . S
C1013 C1012 1.404 . S
C1013 H1025 0.930 . S
C1014 C1010 1.524 . S
C1014 H1026 0.956 . S
C1014 H1027 0.961 . S
C1014 H1028 0.961 . S
C1015 C1012 1.539 . S
C1015 H1029 0.958 . S
C1015 H1030 0.961 . S
C1015 H1031 0.960 . S
H1016 C1000 0.931 . S
H1017 C1005 0.929 . S
H1018 C1006 0.960 . S
H1019 C1006 0.962 . S
H1020 C1006 0.960 . S
H1021 C1007 0.961 . S
H1022 C1007 0.961 . S
H1023 C1007 0.961 . S
H1024 C1008 0.931 . S
H1025 C1013 0.930 . S
H1026 C1014 0.956 . S
H1027 C1014 0.961 . S
H1028 C1014 0.961 . S
H1029 C1015 0.958 . S
H1030 C1015 0.961 . S
H1031 C1015 0.960 . S
C1032 C1033 1.391 . S
C1032 C1034 1.394 . S
C1032 H1048 0.931 . S
C1033 C1032 1.391 . S
C1033 C1037 1.376 . S
C1034 C1032 1.394 . S
C1034 C1035 1.369 . S
C1034 C1038 1.531 . S
C1035 C1034 1.369 . S
C1035 C1036 1.410 . S
C1035 C1043 1.503 . S
C1036 C1035 1.410 . S
C1036 C1037 1.392 . S
C1036 C1039 1.511 . S
C1037 C1033 1.376 . S
C1037 C1036 1.392 . S
C1037 H1049 0.929 . S
C1038 C1034 1.531 . S
C1038 H1050 0.960 . S
C1038 H1051 0.962 . S
C1038 H1052 0.960 . S
C1039 C1036 1.511 . S
C1039 H1053 0.961 . S
C1039 H1054 0.961 . S
C1039 H1055 0.961 . S
C1040 C1041 1.370 . S
C1040 C1042 1.363 . S
C1040 H1056 0.931 . S
C1041 C1040 1.370 . S
C1041 C1045 1.408 . S
C1042 C1040 1.363 . S
C1042 C1043 1.370 . S
C1042 C1046 1.524 . S
C1043 C1035 1.503 . S
C1043 C1042 1.370 . S
C1043 C1044 1.403 . S
C1044 C1043 1.403 . S
C1044 C1045 1.404 . S
C1044 C1047 1.539 . S
C1045 C1041 1.408 . S
C1045 C1044 1.404 . S
C1045 H1057 0.930 . S
C1046 C1042 1.524 . S
C1046 H1058 0.956 . S
C1046 H1059 0.961 . S
C1046 H1060 0.961 . S
C1047 C1044 1.539 . S
C1047 H1061 0.958 . S
C1047 H1062 0.961 . S
C1047 H1063 0.960 . S
H1048 C1032 0.931 . S
H1049 C1037 0.929 . S
H1050 C1038 0.960 . S
H1051 C1038 0.962 . S
H1052 C1038 0.960 . S
H1053 C1039 0.961 . S
H1054 C1039 0.961 . S
H1055 C1039 0.961 . S
H1056 C1040 0.931 . S
H1057 C1045 0.930 . S
H1058 C1046 0.956 . S
H1059 C1046 0.961 . S
H1060 C1046 0.961 . S
H1061 C1047 0.958 . S
H1062 C1047 0.961 . S
H1063 C1047 0.960 . S
C1064 C1065 1.391 . S
C1064 C1066 1.394 . S
C1064 H1080 0.931 . S
C1065 C1064 1.391 . S
C1065 C1069 1.376 . S
C1066 C1064 1.394 . S
C1066 C1067 1.369 . S
C1066 C1070 1.531 . S
C1067 C1066 1.369 . S
C1067 C1068 1.410 . S
C1067 C1075 1.503 . S
C1068 C1067 1.410 . S
C1068 C1069 1.392 . S
C1068 C1071 1.511 . S
C1069 C1065 1.376 . S
C1069 C1068 1.392 . S
C1069 H1081 0.929 . S
C1070 C1066 1.531 . S
C1070 H1082 0.960 . S
C1070 H1083 0.962 . S
C1070 H1084 0.960 . S
C1071 C1068 1.511 . S
C1071 H1085 0.961 . S
C1071 H1086 0.961 . S
C1071 H1087 0.961 . S
C1072 C1073 1.370 . S
C1072 C1074 1.363 . S
C1072 H1088 0.931 . S
C1073 C1072 1.370 . S
C1073 C1077 1.408 . S
C1074 C1072 1.363 . S
C1074 C1075 1.370 . S
C1074 C1078 1.524 . S
C1075 C1067 1.503 . S
C1075 C1074 1.370 . S
C1075 C1076 1.403 . S
C1076 C1075 1.403 . S
C1076 C1077 1.404 . S
C1076 C1079 1.539 . S
C1077 C1073 1.408 . S
C1077 C1076 1.404 . S
C1077 H1089 0.930 . S
C1078 C1074 1.524 . S
C1078 H1090 0.956 . S
C1078 H1091 0.961 . S
C1078 H1092 0.961 . S
C1079 C1076 1.539 . S
C1079 H1093 0.958 . S
C1079 H1094 0.961 . S
C1079 H1095 0.960 . S
H1080 C1064 0.931 . S
H1081 C1069 0.929 . S
H1082 C1070 0.960 . S
H1083 C1070 0.962 . S
H1084 C1070 0.960 . S
H1085 C1071 0.961 . S
H1086 C1071 0.961 . S
H1087 C1071 0.961 . S
H1088 C1072 0.931 . S
H1089 C1077 0.930 . S
H1090 C1078 0.956 . S
H1091 C1078 0.961 . S
H1092 C1078 0.961 . S
H1093 C1079 0.958 . S
H1094 C1079 0.961 . S
H1095 C1079 0.960 . S
C1096 C1097 1.391 . S
C1096 C1098 1.394 . S
C1096 H1112 0.931 . S
C1097 C1096 1.391 . S
C1097 C1101 1.376 . S
C1098 C1096 1.394 . S
C1098 C1099 1.369 . S
C1098 C1102 1.531 . S
C1099 C1098 1.369 . S
C1099 C1100 1.410 . S
C1099 C1107 1.503 . S
C1100 C1099 1.410 . S
C1100 C1101 1.392 . S
C1100 C1103 1.511 . S
C1101 C1097 1.376 . S
C1101 C1100 1.392 . S
C1101 H1113 0.929 . S
C1102 C1098 1.531 . S
C1102 H1114 0.960 . S
C1102 H1115 0.962 . S
C1102 H1116 0.960 . S
C1103 C1100 1.511 . S
C1103 H1117 0.961 . S
C1103 H1118 0.961 . S
C1103 H1119 0.961 . S
C1104 C1105 1.370 . S
C1104 C1106 1.363 . S
C1104 H1120 0.931 . S
C1105 C1104 1.370 . S
C1105 C1109 1.408 . S
C1106 C1104 1.363 . S
C1106 C1107 1.370 . S
C1106 C1110 1.524 . S
C1107 C1099 1.503 . S
C1107 C1106 1.370 . S
C1107 C1108 1.403 . S
C1108 C1107 1.403 . S
C1108 C1109 1.404 . S
C1108 C1111 1.539 . S
C1109 C1105 1.408 . S
C1109 C1108 1.404 . S
C1109 H1121 0.930 . S
C1110 C1106 1.524 . S
C1110 H1122 0.956 . S
C1110 H1123 0.961 . S
C1110 H1124 0.961 . S
C1111 C1108 1.539 . S
C1111 H1125 0.958 . S
C1111 H1126 0.961 . S
C1111 H1127 0.960 . S
H1112 C1096 0.931 . S
H1113 C1101 0.929 . S
H1114 C1102 0.960 . S
H1115 C1102 0.962 . S
H1116 C1102 0.960 . S
H1117 C1103 0.961 . S
H1118 C1103 0.961 . S
H1119 C1103 0.961 . S
H1120 C1104 0.931 . S
H1121 C1109 0.930 . S
H1122 C1110 0.956 . S
H1123 C1110 0.961 . S
H1124 C1110 0.961 . S
H1125 C1111 0.958 . S
H1126 C1111 0.961 . S
H1127 C1111 0.960 . S
C1128 C1129 1.391 . S
C1128 C1130 1.394 . S
C1128 H1144 0.931 . S
C1129 C1128 1.391 . S
C1129 C1133 1.376 . S
C1130 C1128 1.394 . S
C1130 C1131 1.369 . S
C1130 C1134 1.531 . S
C1131 C1130 1.369 . S
C1131 C1132 1.410 . S
C1131 C1139 1.503 . S
C1132 C1131 1.410 . S
C1132 C1133 1.392 . S
C1132 C1135 1.511 . S
C1133 C1129 1.376 . S
C1133 C1132 1.392 . S
C1133 H1145 0.929 . S
C1134 C1130 1.531 . S
C1134 H1146 0.960 . S
C1134 H1147 0.962 . S
C1134 H1148 0.960 . S
C1135 C1132 1.511 . S
C1135 H1149 0.961 . S
C1135 H1150 0.961 . S
C1135 H1151 0.961 . S
C1136 C1137 1.370 . S
C1136 C1138 1.363 . S
C1136 H1152 0.931 . S
C1137 C1136 1.370 . S
C1137 C1141 1.408 . S
C1138 C1136 1.363 . S
C1138 C1139 1.370 . S
C1138 C1142 1.524 . S
C1139 C1131 1.503 . S
C1139 C1138 1.370 . S
C1139 C1140 1.403 . S
C1140 C1139 1.403 . S
C1140 C1141 1.404 . S
C1140 C1143 1.539 . S
C1141 C1137 1.408 . S
C1141 C1140 1.404 . S
C1141 H1153 0.930 . S
C1142 C1138 1.524 . S
C1142 H1154 0.956 . S
C1142 H1155 0.961 . S
C1142 H1156 0.961 . S
C1143 C1140 1.539 . S
C1143 H1157 0.958 . S
C1143 H1158 0.961 . S
C1143 H1159 0.960 . S
H1144 C1128 0.931 . S
H1145 C1133 0.929 . S
H1146 C1134 0.960 . S
H1147 C1134 0.962 . S
H1148 C1134 0.960 . S
H1149 C1135 0.961 . S
H1150 C1135 0.961 . S
H1151 C1135 0.961 . S
H1152 C1136 0.931 . S
H1153 C1141 0.930 . S
H1154 C1142 0.956 . S
H1155 C1142 0.961 . S
H1156 C1142 0.961 . S
H1157 C1143 0.958 . S
H1158 C1143 0.961 . S
H1159 C1143 0.960 . S
C1160 C1161 1.391 . S
C1160 C1162 1.394 . S
C1160 H1176 0.931 . S
C1161 C1160 1.391 . S
C1161 C1165 1.376 . S
C1162 C1160 1.394 . S
C1162 C1163 1.369 . S
C1162 C1166 1.531 . S
C1163 C1162 1.369 . S
C1163 C1164 1.410 . S
C1163 C1171 1.503 . S
C1164 C1163 1.410 . S
C1164 C1165 1.392 . S
C1164 C1167 1.511 . S
C1165 C1161 1.376 . S
C1165 C1164 1.392 . S
C1165 H1177 0.929 . S
C1166 C1162 1.531 . S
C1166 H1178 0.960 . S
C1166 H1179 0.962 . S
C1166 H1180 0.960 . S
C1167 C1164 1.511 . S
C1167 H1181 0.961 . S
C1167 H1182 0.961 . S
C1167 H1183 0.961 . S
C1168 C1169 1.370 . S
C1168 C1170 1.363 . S
C1168 H1184 0.931 . S
C1169 C1168 1.370 . S
C1169 C1173 1.408 . S
C1170 C1168 1.363 . S
C1170 C1171 1.370 . S
C1170 C1174 1.524 . S
C1171 C1163 1.503 . S
C1171 C1170 1.370 . S
C1171 C1172 1.403 . S
C1172 C1171 1.403 . S
C1172 C1173 1.404 . S
C1172 C1175 1.539 . S
C1173 C1169 1.408 . S
C1173 C1172 1.404 . S
C1173 H1185 0.930 . S
C1174 C1170 1.524 . S
C1174 H1186 0.956 . S
C1174 H1187 0.961 . S
C1174 H1188 0.961 . S
C1175 C1172 1.539 . S
C1175 H1189 0.958 . S
C1175 H1190 0.961 . S
C1175 H1191 0.960 . S
H1176 C1160 0.931 . S
H1177 C1165 0.929 . S
H1178 C1166 0.960 . S
H1179 C1166 0.962 . S
H1180 C1166 0.960 . S
H1181 C1167 0.961 . S
H1182 C1167 0.961 . S
H1183 C1167 0.961 . S
H1184 C1168 0.931 . S
H1185 C1173 0.930 . S
H1186 C1174 0.956 . S
H1187 C1174 0.961 . S
H1188 C1174 0.961 . S
H1189 C1175 0.958 . S
H1190 C1175 0.961 . S
H1191 C1175 0.960 . S
C1192 C1193 1.391 . S
C1192 C1194 1.394 . S
C1192 H1208 0.931 . S
C1193 C1192 1.391 . S
C1193 C1197 1.376 . S
C1194 C1192 1.394 . S
C1194 C1195 1.369 . S
C1194 C1198 1.531 . S
C1195 C1194 1.369 . S
C1195 C1196 1.410 . S
C1195 C1203 1.503 . S
C1196 C1195 1.410 . S
C1196 C1197 1.392 . S
C1196 C1199 1.511 . S
C1197 C1193 1.376 . S
C1197 C1196 1.392 . S
C1197 H1209 0.929 . S
C1198 C1194 1.531 . S
C1198 H1210 0.960 . S
C1198 H1211 0.962 . S
C1198 H1212 0.960 . S
C1199 C1196 1.511 . S
C1199 H1213 0.961 . S
C1199 H1214 0.961 . S
C1199 H1215 0.961 . S
C1200 C1201 1.370 . S
C1200 C1202 1.363 . S
C1200 H1216 0.931 . S
C1201 C1200 1.370 . S
C1201 C1205 1.408 . S
C1202 C1200 1.363 . S
C1202 C1203 1.370 . S
C1202 C1206 1.524 . S
C1203 C1195 1.503 . S
C1203 C1202 1.370 . S
C1203 C1204 1.403 . S
C1204 C1203 1.403 . S
C1204 C1205 1.404 . S
C1204 C1207 1.539 . S
C1205 C1201 1.408 . S
C1205 C1204 1.404 . S
C1205 H1217 0.930 . S
C1206 C1202 1.524 . S
C1206 H1218 0.956 . S
C1206 H1219 0.961 . S
C1206 H1220 0.961 . S
C1207 C1204 1.539 . S
C1207 H1221 0.958 . S
C1207 H1222 0.961 . S
C1207 H1223 0.960 . S
H1208 C1192 0.931 . S
H1209 C1197 0.929 . S
H1210 C1198 0.960 . S
H1211 C1198 0.962 . S
H1212 C1198 0.960 . S
H1213 C1199 0.961 . S
H1214 C1199 0.961 . S
H1215 C1199 0.961 . S
H1216 C1200 0.931 . S
H1217 C1205 0.930 . S
H1218 C1206 0.956 . S
H1219 C1206 0.961 . S
H1220 C1206 0.961 . S
H1221 C1207 0.958 . S
H1222 C1207 0.961 . S
H1223 C1207 0.960 . S
C1224 C1225 1.391 . S
C1224 C1226 1.394 . S
C1224 H1240 0.931 . S
C1225 C1224 1.391 . S
C1225 C1229 1.376 . S
C1226 C1224 1.394 . S
C1226 C1227 1.369 . S
C1226 C1230 1.531 . S
C1227 C1226 1.369 . S
C1227 C1228 1.410 . S
C1227 C1235 1.503 . S
C1228 C1227 1.410 . S
C1228 C1229 1.392 . S
C1228 C1231 1.511 . S
C1229 C1225 1.376 . S
C1229 C1228 1.392 . S
C1229 H1241 0.929 . S
C1230 C1226 1.531 . S
C1230 H1242 0.960 . S
C1230 H1243 0.962 . S
C1230 H1244 0.960 . S
C1231 C1228 1.511 . S
C1231 H1245 0.961 . S
C1231 H1246 0.961 . S
C1231 H1247 0.961 1_556 S
C1232 C1233 1.370 . S
C1232 C1234 1.363 . S
C1232 H1248 0.931 . S
C1233 C1232 1.370 . S
C1233 C1237 1.408 . S
C1234 C1232 1.363 . S
C1234 C1235 1.370 . S
C1234 C1238 1.524 . S
C1235 C1227 1.503 . S
C1235 C1234 1.370 . S
C1235 C1236 1.403 . S
C1236 C1235 1.403 . S
C1236 C1237 1.404 . S
C1236 C1239 1.539 . S
C1237 C1233 1.408 . S
C1237 C1236 1.404 . S
C1237 H1249 0.930 . S
C1238 C1234 1.524 . S
C1238 H1250 0.956 . S
C1238 H1251 0.961 . S
C1238 H1252 0.961 . S
C1239 C1236 1.539 . S
C1239 H1253 0.958 . S
C1239 H1254 0.961 . S
C1239 H1255 0.960 . S
H1240 C1224 0.931 . S
H1241 C1229 0.929 . S
H1242 C1230 0.960 . S
H1243 C1230 0.962 . S
H1244 C1230 0.960 . S
H1245 C1231 0.961 . S
H1246 C1231 0.961 . S
H1247 C1231 0.961 1_554 S
H1248 C1232 0.931 . S
H1249 C1237 0.930 . S
H1250 C1238 0.956 . S
H1251 C1238 0.961 . S
H1252 C1238 0.961 . S
H1253 C1239 0.958 . S
H1254 C1239 0.961 . S
H1255 C1239 0.960 . S
C1256 C1257 1.391 . S
C1256 C1258 1.394 . S
C1256 H1272 0.931 . S
C1257 C1256 1.391 . S
C1257 C1261 1.376 . S
C1258 C1256 1.394 . S
C1258 C1259 1.369 . S
C1258 C1262 1.531 . S
C1259 C1258 1.369 . S
C1259 C1260 1.410 . S
C1259 C1267 1.503 . S
C1260 C1259 1.410 . S
C1260 C1261 1.392 . S
C1260 C1263 1.511 . S
C1261 C1257 1.376 . S
C1261 C1260 1.392 . S
C1261 H1273 0.929 . S
C1262 C1258 1.531 . S
C1262 H1274 0.960 . S
C1262 H1275 0.962 . S
C1262 H1276 0.960 . S
C1263 C1260 1.511 . S
C1263 H1277 0.961 . S
C1263 H1278 0.961 . S
C1263 H1279 0.961 . S
C1264 C1265 1.370 . S
C1264 C1266 1.363 . S
C1264 H1280 0.931 . S
C1265 C1264 1.370 . S
C1265 C1269 1.408 . S
C1266 C1264 1.363 . S
C1266 C1267 1.370 . S
C1266 C1270 1.524 . S
C1267 C1259 1.503 . S
C1267 C1266 1.370 . S
C1267 C1268 1.403 . S
C1268 C1267 1.403 . S
C1268 C1269 1.404 . S
C1268 C1271 1.539 . S
C1269 C1265 1.408 . S
C1269 C1268 1.404 . S
C1269 H1281 0.930 . S
C1270 C1266 1.524 . S
C1270 H1282 0.956 . S
C1270 H1283 0.961 . S
C1270 H1284 0.961 . S
C1271 C1268 1.539 . S
C1271 H1285 0.958 . S
C1271 H1286 0.961 . S
C1271 H1287 0.960 . S
H1272 C1256 0.931 . S
H1273 C1261 0.929 . S
H1274 C1262 0.960 . S
H1275 C1262 0.962 . S
H1276 C1262 0.960 . S
H1277 C1263 0.961 . S
H1278 C1263 0.961 . S
H1279 C1263 0.961 . S
H1280 C1264 0.931 . S
H1281 C1269 0.930 . S
H1282 C1270 0.956 . S
H1283 C1270 0.961 . S
H1284 C1270 0.961 . S
H1285 C1271 0.958 . S
H1286 C1271 0.961 . S
H1287 C1271 0.960 . S
C1288 C1289 1.391 . S
C1288 C1290 1.394 . S
C1288 H1304 0.931 . S
C1289 C1288 1.391 . S
C1289 C1293 1.376 . S
C1290 C1288 1.394 . S
C1290 C1291 1.369 . S
C1290 C1294 1.531 . S
C1291 C1290 1.369 . S
C1291 C1292 1.410 . S
C1291 C1299 1.503 . S
C1292 C1291 1.410 . S
C1292 C1293 1.392 . S
C1292 C1295 1.511 . S
C1293 C1289 1.376 . S
C1293 C1292 1.392 . S
C1293 H1305 0.929 . S
C1294 C1290 1.531 . S
C1294 H1306 0.960 . S
C1294 H1307 0.962 . S
C1294 H1308 0.960 . S
C1295 C1292 1.511 . S
C1295 H1309 0.961 . S
C1295 H1310 0.961 . S
C1295 H1311 0.961 . S
C1296 C1297 1.370 . S
C1296 C1298 1.363 . S
C1296 H1312 0.931 . S
C1297 C1296 1.370 . S
C1297 C1301 1.408 . S
C1298 C1296 1.363 . S
C1298 C1299 1.370 . S
C1298 C1302 1.524 . S
C1299 C1291 1.503 . S
C1299 C1298 1.370 . S
C1299 C1300 1.403 . S
C1300 C1299 1.403 . S
C1300 C1301 1.404 . S
C1300 C1303 1.539 . S
C1301 C1297 1.408 . S
C1301 C1300 1.404 . S
C1301 H1313 0.930 . S
C1302 C1298 1.524 . S
C1302 H1314 0.956 . S
C1302 H1315 0.961 . S
C1302 H1316 0.961 . S
C1303 C1300 1.539 . S
C1303 H1317 0.958 . S
C1303 H1318 0.961 . S
C1303 H1319 0.960 . S
H1304 C1288 0.931 . S
H1305 C1293 0.929 . S
H1306 C1294 0.960 . S
H1307 C1294 0.962 . S
H1308 C1294 0.960 . S
H1309 C1295 0.961 . S
H1310 C1295 0.961 . S
H1311 C1295 0.961 . S
H1312 C1296 0.931 . S
H1313 C1301 0.930 . S
H1314 C1302 0.956 . S
H1315 C1302 0.961 . S
H1316 C1302 0.961 . S
H1317 C1303 0.958 . S
H1318 C1303 0.961 . S
H1319 C1303 0.960 . S
C1320 C1321 1.391 . S
C1320 C1322 1.394 . S
C1320 H1336 0.931 . S
C1321 C1320 1.391 . S
C1321 C1325 1.376 . S
C1322 C1320 1.394 . S
C1322 C1323 1.369 . S
C1322 C1326 1.531 . S
C1323 C1322 1.369 . S
C1323 C1324 1.410 . S
C1323 C1331 1.503 . S
C1324 C1323 1.410 . S
C1324 C1325 1.392 . S
C1324 C1327 1.511 . S
C1325 C1321 1.376 . S
C1325 C1324 1.392 . S
C1325 H1337 0.929 . S
C1326 C1322 1.531 . S
C1326 H1338 0.960 . S
C1326 H1339 0.962 . S
C1326 H1340 0.960 . S
C1327 C1324 1.511 . S
C1327 H1341 0.961 1_554 S
C1327 H1342 0.961 . S
C1327 H1343 0.961 1_554 S
C1328 C1329 1.370 . S
C1328 C1330 1.363 . S
C1328 H1344 0.931 . S
C1329 C1328 1.370 . S
C1329 C1333 1.408 . S
C1330 C1328 1.363 . S
C1330 C1331 1.370 . S
C1330 C1334 1.524 . S
C1331 C1323 1.503 . S
C1331 C1330 1.370 . S
C1331 C1332 1.403 . S
C1332 C1331 1.403 . S
C1332 C1333 1.404 . S
C1332 C1335 1.539 . S
C1333 C1329 1.408 . S
C1333 C1332 1.404 . S
C1333 H1345 0.930 . S
C1334 C1330 1.524 . S
C1334 H1346 0.956 . S
C1334 H1347 0.961 . S
C1334 H1348 0.961 . S
C1335 C1332 1.539 . S
C1335 H1349 0.958 . S
C1335 H1350 0.961 . S
C1335 H1351 0.960 . S
H1336 C1320 0.931 . S
H1337 C1325 0.929 . S
H1338 C1326 0.960 . S
H1339 C1326 0.962 . S
H1340 C1326 0.960 . S
H1341 C1327 0.961 1_556 S
H1342 C1327 0.961 . S
H1343 C1327 0.961 1_556 S
H1344 C1328 0.931 . S
H1345 C1333 0.930 . S
H1346 C1334 0.956 . S
H1347 C1334 0.961 . S
H1348 C1334 0.961 . S
H1349 C1335 0.958 . S
H1350 C1335 0.961 . S
H1351 C1335 0.960 . S
C1352 C1353 1.391 . S
C1352 C1354 1.394 . S
C1352 H1368 0.931 1_554 S
C1353 C1352 1.391 . S
C1353 C1357 1.376 . S
C1354 C1352 1.394 . S
C1354 C1355 1.369 . S
C1354 C1358 1.531 1_554 S
C1355 C1354 1.369 . S
C1355 C1356 1.410 . S
C1355 C1363 1.503 . S
C1356 C1355 1.410 . S
C1356 C1357 1.392 . S
C1356 C1359 1.511 . S
C1357 C1353 1.376 . S
C1357 C1356 1.392 . S
C1357 H1369 0.929 . S
C1358 C1354 1.531 1_556 S
C1358 H1370 0.960 . S
C1358 H1371 0.962 . S
C1358 H1372 0.960 . S
C1359 C1356 1.511 . S
C1359 H1373 0.961 . S
C1359 H1374 0.961 . S
C1359 H1375 0.961 . S
C1360 C1361 1.370 . S
C1360 C1362 1.363 . S
C1360 H1376 0.931 . S
C1361 C1360 1.370 . S
C1361 C1365 1.408 1_554 S
C1362 C1360 1.363 . S
C1362 C1363 1.370 . S
C1362 C1366 1.524 . S
C1363 C1355 1.503 . S
C1363 C1362 1.370 . S
C1363 C1364 1.403 1_554 S
C1364 C1363 1.403 1_556 S
C1364 C1365 1.404 . S
C1364 C1367 1.539 . S
C1365 C1361 1.408 1_556 S
C1365 C1364 1.404 . S
C1365 H1377 0.930 . S
C1366 C1362 1.524 . S
C1366 H1378 0.956 . S
C1366 H1379 0.961 . S
C1366 H1380 0.961 . S
C1367 C1364 1.539 . S
C1367 H1381 0.958 . S
C1367 H1382 0.961 . S
C1367 H1383 0.960 . S
H1368 C1352 0.931 1_556 S
H1369 C1357 0.929 . S
H1370 C1358 0.960 . S
H1371 C1358 0.962 . S
H1372 C1358 0.960 . S
H1373 C1359 0.961 . S
H1374 C1359 0.961 . S
H1375 C1359 0.961 . S
H1376 C1360 0.931 . S
H1377 C1365 0.930 . S
H1378 C1366 0.956 . S
H1379 C1366 0.961 . S
H1380 C1366 0.961 . S
H1381 C1367 0.958 . S
H1382 C1367 0.961 . S
H1383 C1367 0.960 . S
C1384 C1385 1.391 . S
C1384 C1386 1.394 . S
C1384 H1400 0.931 . S
C1385 C1384 1.391 . S
C1385 C1389 1.376 . S
C1386 C1384 1.394 . S
C1386 C1387 1.369 . S
C1386 C1390 1.531 . S
C1387 C1386 1.369 . S
C1387 C1388 1.410 . S
C1387 C1395 1.503 . S
C1388 C1387 1.410 . S
C1388 C1389 1.392 . S
C1388 C1391 1.511 . S
C1389 C1385 1.376 . S
C1389 C1388 1.392 . S
C1389 H1401 0.929 . S
C1390 C1386 1.531 . S
C1390 H1402 0.960 . S
C1390 H1403 0.962 . S
C1390 H1404 0.960 . S
C1391 C1388 1.511 . S
C1391 H1405 0.961 . S
C1391 H1406 0.961 . S
C1391 H1407 0.961 1_554 S
C1392 C1393 1.370 . S
C1392 C1394 1.363 . S
C1392 H1408 0.931 . S
C1393 C1392 1.370 . S
C1393 C1397 1.408 . S
C1394 C1392 1.363 . S
C1394 C1395 1.370 . S
C1394 C1398 1.524 . S
C1395 C1387 1.503 . S
C1395 C1394 1.370 . S
C1395 C1396 1.403 . S
C1396 C1395 1.403 . S
C1396 C1397 1.404 . S
C1396 C1399 1.539 1_554 S
C1397 C1393 1.408 . S
C1397 C1396 1.404 . S
C1397 H1409 0.930 1_554 S
C1398 C1394 1.524 . S
C1398 H1410 0.956 . S
C1398 H1411 0.961 . S
C1398 H1412 0.961 . S
C1399 C1396 1.539 1_556 S
C1399 H1413 0.958 . S
C1399 H1414 0.961 . S
C1399 H1415 0.960 . S
H1400 C1384 0.931 . S
H1401 C1389 0.929 . S
H1402 C1390 0.960 . S
H1403 C1390 0.962 . S
H1404 C1390 0.960 . S
H1405 C1391 0.961 . S
H1406 C1391 0.961 . S
H1407 C1391 0.961 1_556 S
H1408 C1392 0.931 . S
H1409 C1397 0.930 1_556 S
H1410 C1398 0.956 . S
H1411 C1398 0.961 . S
H1412 C1398 0.961 . S
H1413 C1399 0.958 . S
H1414 C1399 0.961 . S
H1415 C1399 0.960 . S
C1416 C1417 1.391 . S
C1416 C1418 1.394 . S
C1416 H1432 0.931 . S
C1417 C1416 1.391 . S
C1417 C1421 1.376 . S
C1418 C1416 1.394 . S
C1418 C1419 1.369 . S
C1418 C1422 1.531 . S
C1419 C1418 1.369 . S
C1419 C1420 1.410 . S
C1419 C1427 1.503 . S
C1420 C1419 1.410 . S
C1420 C1421 1.392 . S
C1420 C1423 1.511 . S
C1421 C1417 1.376 . S
C1421 C1420 1.392 . S
C1421 H1433 0.929 . S
C1422 C1418 1.531 . S
C1422 H1434 0.960 . S
C1422 H1435 0.962 . S
C1422 H1436 0.960 . S
C1423 C1420 1.511 . S
C1423 H1437 0.961 . S
C1423 H1438 0.961 . S
C1423 H1439 0.961 . S
C1424 C1425 1.370 . S
C1424 C1426 1.363 . S
C1424 H1440 0.931 . S
C1425 C1424 1.370 . S
C1425 C1429 1.408 . S
C1426 C1424 1.363 . S
C1426 C1427 1.370 . S
C1426 C1430 1.524 . S
C1427 C1419 1.503 . S
C1427 C1426 1.370 . S
C1427 C1428 1.403 . S
C1428 C1427 1.403 . S
C1428 C1429 1.404 . S
C1428 C1431 1.539 . S
C1429 C1425 1.408 . S
C1429 C1428 1.404 . S
C1429 H1441 0.930 . S
C1430 C1426 1.524 . S
C1430 H1442 0.956 . S
C1430 H1443 0.961 . S
C1430 H1444 0.961 . S
C1431 C1428 1.539 . S
C1431 H1445 0.958 . S
C1431 H1446 0.961 . S
C1431 H1447 0.960 . S
H1432 C1416 0.931 . S
H1433 C1421 0.929 . S
H1434 C1422 0.960 . S
H1435 C1422 0.962 . S
H1436 C1422 0.960 . S
H1437 C1423 0.961 . S
H1438 C1423 0.961 . S
H1439 C1423 0.961 . S
H1440 C1424 0.931 . S
H1441 C1429 0.930 . S
H1442 C1430 0.956 . S
H1443 C1430 0.961 . S
H1444 C1430 0.961 . S
H1445 C1431 0.958 . S
H1446 C1431 0.961 . S
H1447 C1431 0.960 . S
C1448 C1449 1.391 . S
C1448 C1450 1.394 . S
C1448 H1464 0.931 . S
C1449 C1448 1.391 . S
C1449 C1453 1.376 . S
C1450 C1448 1.394 . S
C1450 C1451 1.369 . S
C1450 C1454 1.531 . S
C1451 C1450 1.369 . S
C1451 C1452 1.410 . S
C1451 C1459 1.503 . S
C1452 C1451 1.410 . S
C1452 C1453 1.392 . S
C1452 C1455 1.511 . S
C1453 C1449 1.376 . S
C1453 C1452 1.392 . S
C1453 H1465 0.929 . S
C1454 C1450 1.531 . S
C1454 H1466 0.960 . S
C1454 H1467 0.962 . S
C1454 H1468 0.960 . S
C1455 C1452 1.511 . S
C1455 H1469 0.961 . S
C1455 H1470 0.961 . S
C1455 H1471 0.961 . S
C1456 C1457 1.370 . S
C1456 C1458 1.363 . S
C1456 H1472 0.931 . S
C1457 C1456 1.370 . S
C1457 C1461 1.408 . S
C1458 C1456 1.363 . S
C1458 C1459 1.370 . S
C1458 C1462 1.524 . S
C1459 C1451 1.503 . S
C1459 C1458 1.370 . S
C1459 C1460 1.403 . S
C1460 C1459 1.403 . S
C1460 C1461 1.404 . S
C1460 C1463 1.539 . S
C1461 C1457 1.408 . S
C1461 C1460 1.404 . S
C1461 H1473 0.930 . S
C1462 C1458 1.524 . S
C1462 H1474 0.956 . S
C1462 H1475 0.961 . S
C1462 H1476 0.961 . S
C1463 C1460 1.539 . S
C1463 H1477 0.958 . S
C1463 H1478 0.961 . S
C1463 H1479 0.960 . S
H1464 C1448 0.931 . S
H1465 C1453 0.929 . S
H1466 C1454 0.960 . S
H1467 C1454 0.962 . S
H1468 C1454 0.960 . S
H1469 C1455 0.961 . S
H1470 C1455 0.961 . S
H1471 C1455 0.961 . S
H1472 C1456 0.931 . S
H1473 C1461 0.930 . S
H1474 C1462 0.956 . S
H1475 C1462 0.961 . S
H1476 C1462 0.961 . S
H1477 C1463 0.958 . S
H1478 C1463 0.961 . S
H1479 C1463 0.960 . S
C1480 C1481 1.391 . S
C1480 C1482 1.394 . S
C1480 H1496 0.931 . S
C1481 C1480 1.391 . S
C1481 C1485 1.376 . S
C1482 C1480 1.394 . S
C1482 C1483 1.369 . S
C1482 C1486 1.531 . S
C1483 C1482 1.369 . S
C1483 C1484 1.410 . S
C1483 C1491 1.503 . S
C1484 C1483 1.410 . S
C1484 C1485 1.392 . S
C1484 C1487 1.511 . S
C1485 C1481 1.376 . S
C1485 C1484 1.392 . S
C1485 H1497 0.929 . S
C1486 C1482 1.531 . S
C1486 H1498 0.960 . S
C1486 H1499 0.962 . S
C1486 H1500 0.960 . S
C1487 C1484 1.511 . S
C1487 H1501 0.961 . S
C1487 H1502 0.961 . S
C1487 H1503 0.961 . S
C1488 C1489 1.370 . S
C1488 C1490 1.363 . S
C1488 H1504 0.931 . S
C1489 C1488 1.370 . S
C1489 C1493 1.408 . S
C1490 C1488 1.363 . S
C1490 C1491 1.370 . S
C1490 C1494 1.524 . S
C1491 C1483 1.503 . S
C1491 C1490 1.370 . S
C1491 C1492 1.403 . S
C1492 C1491 1.403 . S
C1492 C1493 1.404 . S
C1492 C1495 1.539 . S
C1493 C1489 1.408 . S
C1493 C1492 1.404 . S
C1493 H1505 0.930 . S
C1494 C1490 1.524 . S
C1494 H1506 0.956 . S
C1494 H1507 0.961 . S
C1494 H1508 0.961 . S
C1495 C1492 1.539 . S
C1495 H1509 0.958 . S
C1495 H1510 0.961 1_554 S
C1495 H1511 0.960 . S
H1496 C1480 0.931 . S
H1497 C1485 0.929 . S
H1498 C1486 0.960 . S
H1499 C1486 0.962 . S
H1500 C1486 0.960 . S
H1501 C1487 0.961 . S
H1502 C1487 0.961 . S
H1503 C1487 0.961 . S
H1504 C1488 0.931 . S
H1505 C1493 0.930 . S
H1506 C1494 0.956 . S
H1507 C1494 0.961 . S
H1508 C1494 0.961 . S
H1509 C1495 0.958 . S
H1510 C1495 0.961 1_556 S
H1511 C1495 0.960 . S
C1512 C1513 1.391 . S
C1512 C1514 1.394 . S
C1512 H1528 0.931 . S
C1513 C1512 1.391 . S
C1513 C1517 1.376 . S
C1514 C1512 1.394 . S
C1514 C1515 1.369 . S
C1514 C1518 1.531 . S
C1515 C1514 1.369 . S
C1515 C1516 1.410 . S
C1515 C1523 1.503 1_554 S
C1516 C1515 1.410 . S
C1516 C1517 1.392 . S
C1516 C1519 1.511 1_455 S
C1517 C1513 1.376 . S
C1517 C1516 1.392 . S
C1517 H1529 0.929 . S
C1518 C1514 1.531 . S
C1518 H1530 0.960 . S
C1518 H1531 0.962 . S
C1518 H1532 0.960 . S
C1519 C1516 1.511 1_655 S
C1519 H1533 0.980 1_655 S
C1519 H1534 0.961 1_655 S
C1519 H1535 0.961 . S
C1520 C1521 1.370 . S
C1520 C1522 1.363 . S
C1520 H1536 0.931 . S
C1521 C1520 1.370 . S
C1521 C1525 1.408 1_455 S
C1522 C1520 1.363 . S
C1522 C1523 1.370 . S
C1522 C1526 1.524 1_556 S
C1523 C1515 1.503 1_556 S
C1523 C1522 1.370 . S
C1523 C1524 1.397 1_455 S
C1524 C1523 1.397 1_655 S
C1524 C1525 1.404 . S
C1524 C1527 1.545 . S
C1525 C1521 1.408 1_655 S
C1525 C1524 1.404 . S
C1525 H1537 0.930 . S
C1526 C1522 1.524 1_554 S
C1526 H1538 0.956 . S
C1526 H1539 0.961 . S
C1526 H1540 0.961 1_554 S
C1527 C1524 1.545 . S
C1527 H1541 0.958 . S
C1527 H1542 0.961 . S
C1527 H1543 0.960 1_556 S
H1528 C1512 0.931 . S
H1529 C1517 0.929 . S
H1530 C1518 0.960 . S
H1531 C1518 0.962 . S
H1532 C1518 0.960 . S
H1533 C1519 0.980 1_455 S
H1534 C1519 0.961 1_455 S
H1535 C1519 0.961 . S
H1536 C1520 0.931 . S
H1537 C1525 0.930 . S
H1538 C1526 0.956 . S
H1539 C1526 0.961 . S
H1540 C1526 0.961 1_556 S
H1541 C1527 0.958 . S
H1542 C1527 0.961 . S
H1543 C1527 0.960 1_554 S
C1544 C1545 1.391 . S
C1544 C1546 1.394 . S
C1544 H1560 0.931 . S
C1545 C1544 1.391 . S
C1545 C1549 1.376 . S
C1546 C1544 1.394 . S
C1546 C1547 1.369 . S
C1546 C1550 1.533 . S
C1547 C1546 1.369 . S
C1547 C1548 1.410 . S
C1547 C1555 1.503 1_554 S
C1548 C1547 1.410 . S
C1548 C1549 1.392 . S
C1548 C1551 1.511 . S
C1549 C1545 1.376 . S
C1549 C1548 1.392 . S
C1549 H1561 0.929 . S
C1550 C1546 1.533 . S
C1550 H1562 0.957 1_554 S
C1550 H1563 0.961 1_554 S
C1550 H1564 0.962 . S
C1551 C1548 1.511 . S
C1551 H1565 0.961 . S
C1551 H1566 0.961 1_554 S
C1551 H1567 0.961 . S
C1552 C1553 1.370 . S
C1552 C1554 1.363 . S
C1552 H1568 0.931 . S
C1553 C1552 1.370 . S
C1553 C1557 1.408 . S
C1554 C1552 1.363 . S
C1554 C1555 1.370 . S
C1554 C1558 1.524 . S
C1555 C1547 1.503 1_556 S
C1555 C1554 1.370 . S
C1555 C1556 1.403 . S
C1556 C1555 1.403 . S
C1556 C1557 1.404 . S
C1556 C1559 1.539 . S
C1557 C1553 1.408 . S
C1557 C1556 1.404 . S
C1557 H1569 0.930 . S
C1558 C1554 1.524 . S
C1558 H1570 0.956 . S
C1558 H1571 0.961 . S
C1558 H1572 0.961 . S
C1559 C1556 1.539 . S
C1559 H1573 0.958 . S
C1559 H1574 0.961 . S
C1559 H1575 0.960 . S
H1560 C1544 0.931 . S
H1561 C1549 0.929 . S
H1562 C1550 0.957 1_556 S
H1563 C1550 0.961 1_556 S
H1564 C1550 0.962 . S
H1565 C1551 0.961 . S
H1566 C1551 0.961 1_556 S
H1567 C1551 0.961 . S
H1568 C1552 0.931 . S
H1569 C1557 0.930 . S
H1570 C1558 0.956 . S
H1571 C1558 0.961 . S
H1572 C1558 0.961 . S
H1573 C1559 0.958 . S
H1574 C1559 0.961 . S
H1575 C1559 0.960 . S
C1576 C1577 1.391 . S
C1576 C1578 1.394 . S
C1576 H1592 0.931 . S
C1577 C1576 1.391 . S
C1577 C1581 1.376 . S
C1578 C1576 1.394 . S
C1578 C1579 1.369 . S
C1578 C1582 1.531 . S
C1579 C1578 1.369 . S
C1579 C1580 1.410 . S
C1579 C1587 1.503 1_554 S
C1580 C1579 1.410 . S
C1580 C1581 1.392 . S
C1580 C1583 1.511 . S
C1581 C1577 1.376 . S
C1581 C1580 1.392 . S
C1581 H1593 0.903 1_545 S
C1582 C1578 1.531 . S
C1582 H1594 0.960 . S
C1582 H1595 0.962 . S
C1582 H1596 0.960 . S
C1583 C1580 1.511 . S
C1583 H1597 0.961 1_545 S
C1583 H1598 0.957 1_554 S
C1583 H1599 0.961 . S
C1584 C1585 1.370 . S
C1584 C1586 1.363 . S
C1584 H1600 0.931 . S
C1585 C1584 1.370 . S
C1585 C1589 1.408 . S
C1586 C1584 1.363 . S
C1586 C1587 1.370 . S
C1586 C1590 1.524 1_545 S
C1587 C1579 1.503 1_556 S
C1587 C1586 1.370 . S
C1587 C1588 1.403 . S
C1588 C1587 1.403 . S
C1588 C1589 1.404 . S
C1588 C1591 1.539 . S
C1589 C1585 1.408 . S
C1589 C1588 1.404 . S
C1589 H1601 0.930 . S
C1590 C1586 1.524 1_565 S
C1590 H1602 0.956 1_565 S
C1590 H1603 0.961 . S
C1590 H1604 0.961 . S
C1591 C1588 1.539 . S
C1591 H1605 0.958 1_556 S
C1591 H1606 0.961 . S
C1591 H1607 0.960 1_556 S
H1592 C1576 0.931 . S
H1593 C1581 0.903 1_565 S
H1594 C1582 0.960 . S
H1595 C1582 0.962 . S
H1596 C1582 0.960 . S
H1597 C1583 0.961 1_565 S
H1598 C1583 0.957 1_556 S
H1599 C1583 0.961 . S
H1600 C1584 0.931 . S
H1601 C1589 0.930 . S
H1602 C1590 0.956 1_545 S
H1603 C1590 0.961 . S
H1604 C1590 0.961 . S
H1605 C1591 0.958 1_554 S
H1606 C1591 0.961 . S
H1607 C1591 0.960 1_554 S
C1608 C1609 1.391 . S
C1608 C1610 1.394 . S
C1608 H1624 0.931 . S
C1609 C1608 1.391 . S
C1609 C1613 1.376 1_455 S
C1610 C1608 1.394 . S
C1610 C1611 1.363 1_556 S
C1610 C1614 1.525 1_556 S
C1611 C1610 1.363 1_554 S
C1611 C1612 1.406 1_454 S
C1611 C1619 1.513 . S
C1612 C1611 1.406 1_656 S
C1612 C1613 1.392 . S
C1612 C1615 1.511 1_556 S
C1613 C1609 1.376 1_655 S
C1613 C1612 1.392 . S
C1613 H1625 0.929 . S
C1614 C1610 1.525 1_554 S
C1614 H1626 0.971 . S
C1614 H1627 0.965 . S
C1614 H1628 0.952 1_554 S
C1615 C1612 1.511 1_554 S
C1615 H1629 0.961 1_554 S
C1615 H1630 0.961 . S
C1615 H1631 0.961 . S
C1616 C1617 1.370 . S
C1616 C1618 1.363 . S
C1616 H1632 0.931 . S
C1617 C1616 1.370 . S
C1617 C1621 1.408 . S
C1618 C1616 1.363 . S
C1618 C1619 1.370 . S
C1618 C1622 1.524 . S
C1619 C1611 1.513 . S
C1619 C1618 1.370 . S
C1619 C1620 1.403 . S
C1620 C1619 1.403 . S
C1620 C1621 1.404 . S
C1620 C1623 1.539 . S
C1621 C1617 1.408 . S
C1621 C1620 1.404 . S
C1621 H1633 0.930 . S
C1622 C1618 1.524 . S
C1622 H1634 0.956 . S
C1622 H1635 0.961 1_455 S
C1622 H1636 0.961 . S
C1623 C1620 1.539 . S
C1623 H1637 0.958 . S
C1623 H1638 0.961 . S
C1623 H1639 0.960 . S
H1624 C1608 0.931 . S
H1625 C1613 0.929 . S
H1626 C1614 0.971 . S
H1627 C1614 0.965 . S
H1628 C1614 0.952 1_556 S
H1629 C1615 0.961 1_556 S
H1630 C1615 0.961 . S
H1631 C1615 0.961 . S
H1632 C1616 0.931 . S
H1633 C1621 0.930 . S
H1634 C1622 0.956 . S
H1635 C1622 0.961 1_655 S
H1636 C1622 0.961 . S
H1637 C1623 0.958 . S
H1638 C1623 0.961 . S
H1639 C1623 0.960 . S
C1640 C1641 1.391 . S
C1640 C1642 1.394 . S
C1640 H1656 0.931 . S
C1641 C1640 1.391 . S
C1641 C1645 1.376 . S
C1642 C1640 1.394 . S
C1642 C1643 1.369 . S
C1642 C1646 1.531 . S
C1643 C1642 1.369 . S
C1643 C1644 1.410 . S
C1643 C1651 1.503 . S
C1644 C1643 1.410 . S
C1644 C1645 1.392 . S
C1644 C1647 1.511 . S
C1645 C1641 1.376 . S
C1645 C1644 1.392 . S
C1645 H1657 0.929 . S
C1646 C1642 1.531 . S
C1646 H1658 0.960 . S
C1646 H1659 0.962 . S
C1646 H1660 0.960 . S
C1647 C1644 1.511 . S
C1647 H1661 0.961 . S
C1647 H1662 0.961 . S
C1647 H1663 0.961 . S
C1648 C1649 1.370 . S
C1648 C1650 1.362 1_556 S
C1648 H1664 0.931 . S
C1649 C1648 1.370 . S
C1649 C1653 1.408 . S
C1650 C1648 1.362 1_554 S
C1650 C1651 1.371 . S
C1650 C1654 1.525 . S
C1651 C1643 1.503 . S
C1651 C1650 1.371 . S
C1651 C1652 1.403 1_554 S
C1652 C1651 1.403 1_556 S
C1652 C1653 1.404 . S
C1652 C1655 1.539 1_556 S
C1653 C1649 1.408 . S
C1653 C1652 1.404 . S
C1653 H1665 0.930 . S
C1654 C1650 1.525 . S
C1654 H1666 0.956 . S
C1654 H1667 0.961 . S
C1654 H1668 0.961 . S
C1655 C1652 1.539 1_554 S
C1655 H1669 0.958 . S
C1655 H1670 0.961 1_554 S
C1655 H1671 0.960 . S
H1656 C1640 0.931 . S
H1657 C1645 0.929 . S
H1658 C1646 0.960 . S
H1659 C1646 0.962 . S
H1660 C1646 0.960 . S
H1661 C1647 0.961 . S
H1662 C1647 0.961 . S
H1663 C1647 0.961 . S
H1664 C1648 0.931 . S
H1665 C1653 0.930 . S
H1666 C1654 0.956 . S
H1667 C1654 0.961 . S
H1668 C1654 0.961 . S
H1669 C1655 0.958 . S
H1670 C1655 0.961 1_556 S
H1671 C1655 0.960 . S
C1672 C1673 1.391 . S
C1672 C1674 1.394 . S
C1672 H1688 0.931 . S
C1673 C1672 1.391 . S
C1673 C1677 1.376 . S
C1674 C1672 1.394 . S
C1674 C1675 1.369 . S
C1674 C1678 1.531 . S
C1675 C1674 1.369 . S
C1675 C1676 1.410 . S
C1675 C1683 1.503 1_554 S
C1676 C1675 1.410 . S
C1676 C1677 1.392 . S
C1676 C1679 1.511 . S
C1677 C1673 1.376 . S
C1677 C1676 1.392 . S
C1677 H1689 0.929 . S
C1678 C1674 1.531 . S
C1678 H1690 0.960 . S
C1678 H1691 0.962 . S
C1678 H1692 0.960 . S
C1679 C1676 1.511 . S
C1679 H1693 0.961 1_545 S
C1679 H1694 0.961 1_554 S
C1679 H1695 0.961 . S
C1680 C1681 1.370 . S
C1680 C1682 1.363 . S
C1680 H1696 0.931 . S
C1681 C1680 1.370 . S
C1681 C1685 1.408 . S
C1682 C1680 1.363 . S
C1682 C1683 1.370 . S
C1682 C1686 1.524 . S
C1683 C1675 1.503 1_556 S
C1683 C1682 1.370 . S
C1683 C1684 1.403 . S
C1684 C1683 1.403 . S
C1684 C1685 1.404 . S
C1684 C1687 1.539 . S
C1685 C1681 1.408 . S
C1685 C1684 1.404 . S
C1685 H1697 0.930 . S
C1686 C1682 1.524 . S
C1686 H1698 0.948 1_556 S
C1686 H1699 0.960 1_545 S
C1686 H1700 0.972 . S
C1687 C1684 1.539 . S
C1687 H1701 0.958 1_556 S
C1687 H1702 0.961 . S
C1687 H1703 0.960 1_556 S
H1688 C1672 0.931 . S
H1689 C1677 0.929 . S
H1690 C1678 0.960 . S
H1691 C1678 0.962 . S
H1692 C1678 0.960 . S
H1693 C1679 0.961 1_565 S
H1694 C1679 0.961 1_556 S
H1695 C1679 0.961 . S
H1696 C1680 0.931 . S
H1697 C1685 0.930 . S
H1698 C1686 0.948 1_554 S
H1699 C1686 0.960 1_565 S
H1700 C1686 0.972 . S
H1701 C1687 0.958 1_554 S
H1702 C1687 0.961 . S
H1703 C1687 0.960 1_554 S
C1704 C1705 1.391 . S
C1704 C1706 1.394 . S
C1704 H1720 0.931 . S
C1705 C1704 1.391 . S
C1705 C1709 1.376 . S
C1706 C1704 1.394 . S
C1706 C1707 1.369 . S
C1706 C1710 1.531 . S
C1707 C1706 1.369 . S
C1707 C1708 1.410 . S
C1707 C1715 1.503 . S
C1708 C1707 1.410 . S
C1708 C1709 1.392 . S
C1708 C1711 1.511 . S
C1709 C1705 1.376 . S
C1709 C1708 1.392 . S
C1709 H1721 0.929 . S
C1710 C1706 1.531 . S
C1710 H1722 0.960 . S
C1710 H1723 0.962 . S
C1710 H1724 0.960 . S
C1711 C1708 1.511 . S
C1711 H1725 0.961 . S
C1711 H1726 0.961 . S
C1711 H1727 0.961 . S
C1712 C1713 1.370 . S
C1712 C1714 1.363 . S
C1712 H1728 0.931 . S
C1713 C1712 1.370 . S
C1713 C1717 1.408 . S
C1714 C1712 1.363 . S
C1714 C1715 1.370 . S
C1714 C1718 1.524 . S
C1715 C1707 1.503 . S
C1715 C1714 1.370 . S
C1715 C1716 1.403 . S
C1716 C1715 1.403 . S
C1716 C1717 1.404 . S
C1716 C1719 1.539 . S
C1717 C1713 1.408 . S
C1717 C1716 1.404 . S
C1717 H1729 0.930 . S
C1718 C1714 1.524 . S
C1718 H1730 0.956 . S
C1718 H1731 0.961 . S
C1718 H1732 0.961 . S
C1719 C1716 1.539 . S
C1719 H1733 0.958 . S
C1719 H1734 0.961 . S
C1719 H1735 0.960 . S
H1720 C1704 0.931 . S
H1721 C1709 0.929 . S
H1722 C1710 0.960 . S
H1723 C1710 0.962 . S
H1724 C1710 0.960 . S
H1725 C1711 0.961 . S
H1726 C1711 0.961 . S
H1727 C1711 0.961 . S
H1728 C1712 0.931 . S
H1729 C1717 0.930 . S
H1730 C1718 0.956 . S
H1731 C1718 0.961 . S
H1732 C1718 0.961 . S
H1733 C1719 0.958 . S
H1734 C1719 0.961 . S
H1735 C1719 0.960 . S
C1736 C1737 1.391 . S
C1736 C1738 1.394 . S
C1736 H1752 0.931 . S
C1737 C1736 1.391 . S
C1737 C1741 1.376 . S
C1738 C1736 1.394 . S
C1738 C1739 1.369 . S
C1738 C1742 1.531 . S
C1739 C1738 1.369 . S
C1739 C1740 1.410 . S
C1739 C1747 1.503 . S
C1740 C1739 1.410 . S
C1740 C1741 1.392 . S
C1740 C1743 1.511 . S
C1741 C1737 1.376 . S
C1741 C1740 1.392 . S
C1741 H1753 0.929 . S
C1742 C1738 1.531 . S
C1742 H1754 0.960 . S
C1742 H1755 0.962 . S
C1742 H1756 0.960 . S
C1743 C1740 1.511 . S
C1743 H1757 0.961 . S
C1743 H1758 0.961 . S
C1743 H1759 0.961 . S
C1744 C1745 1.370 . S
C1744 C1746 1.363 . S
C1744 H1760 0.931 . S
C1745 C1744 1.370 . S
C1745 C1749 1.408 . S
C1746 C1744 1.363 . S
C1746 C1747 1.370 . S
C1746 C1750 1.524 . S
C1747 C1739 1.503 . S
C1747 C1746 1.370 . S
C1747 C1748 1.403 . S
C1748 C1747 1.403 . S
C1748 C1749 1.404 . S
C1748 C1751 1.539 . S
C1749 C1745 1.408 . S
C1749 C1748 1.404 . S
C1749 H1761 0.930 . S
C1750 C1746 1.524 . S
C1750 H1762 0.956 . S
C1750 H1763 0.961 . S
C1750 H1764 0.961 . S
C1751 C1748 1.539 . S
C1751 H1765 0.958 . S
C1751 H1766 0.961 . S
C1751 H1767 0.960 . S
H1752 C1736 0.931 . S
H1753 C1741 0.929 . S
H1754 C1742 0.960 . S
H1755 C1742 0.962 . S
H1756 C1742 0.960 . S
H1757 C1743 0.961 . S
H1758 C1743 0.961 . S
H1759 C1743 0.961 . S
H1760 C1744 0.931 . S
H1761 C1749 0.930 . S
H1762 C1750 0.956 . S
H1763 C1750 0.961 . S
H1764 C1750 0.961 . S
H1765 C1751 0.958 . S
H1766 C1751 0.961 . S
H1767 C1751 0.960 . S
C1768 C1769 1.391 . S
C1768 C1770 1.394 . S
C1768 H1784 0.931 . S
C1769 C1768 1.391 . S
C1769 C1773 1.376 . S
C1770 C1768 1.394 . S
C1770 C1771 1.369 . S
C1770 C1774 1.531 . S
C1771 C1770 1.369 . S
C1771 C1772 1.410 . S
C1771 C1779 1.503 . S
C1772 C1771 1.410 . S
C1772 C1773 1.392 . S
C1772 C1775 1.511 . S
C1773 C1769 1.376 . S
C1773 C1772 1.392 . S
C1773 H1785 0.929 . S
C1774 C1770 1.531 . S
C1774 H1786 0.960 . S
C1774 H1787 0.962 . S
C1774 H1788 0.960 . S
C1775 C1772 1.511 . S
C1775 H1789 0.961 . S
C1775 H1790 0.961 . S
C1775 H1791 0.961 . S
C1776 C1777 1.370 . S
C1776 C1778 1.363 . S
C1776 H1792 0.931 . S
C1777 C1776 1.370 . S
C1777 C1781 1.408 . S
C1778 C1776 1.363 . S
C1778 C1779 1.370 . S
C1778 C1782 1.524 . S
C1779 C1771 1.503 . S
C1779 C1778 1.370 . S
C1779 C1780 1.403 . S
C1780 C1779 1.403 . S
C1780 C1781 1.404 . S
C1780 C1783 1.539 . S
C1781 C1777 1.408 . S
C1781 C1780 1.404 . S
C1781 H1793 0.930 . S
C1782 C1778 1.524 . S
C1782 H1794 0.956 . S
C1782 H1795 0.961 . S
C1782 H1796 0.961 . S
C1783 C1780 1.539 . S
C1783 H1797 0.958 . S
C1783 H1798 0.961 . S
C1783 H1799 0.960 . S
H1784 C1768 0.931 . S
H1785 C1773 0.929 . S
H1786 C1774 0.960 . S
H1787 C1774 0.962 . S
H1788 C1774 0.960 . S
H1789 C1775 0.961 . S
H1790 C1775 0.961 . S
H1791 C1775 0.961 . S
H1792 C1776 0.931 . S
H1793 C1781 0.930 . S
H1794 C1782 0.956 . S
H1795 C1782 0.961 . S
H1796 C1782 0.961 . S
H1797 C1783 0.958 . S
H1798 C1783 0.961 . S
H1799 C1783 0.960 . S
C1800 C1801 1.391 . S
C1800 C1802 1.394 . S
C1800 H1816 0.931 . S
C1801 C1800 1.391 . S
C1801 C1805 1.376 . S
C1802 C1800 1.394 . S
C1802 C1803 1.369 . S
C1802 C1806 1.531 . S
C1803 C1802 1.369 . S
C1803 C1804 1.410 . S
C1803 C1811 1.503 . S
C1804 C1803 1.410 . S
C1804 C1805 1.392 . S
C1804 C1807 1.511 . S
C1805 C1801 1.376 . S
C1805 C1804 1.392 . S
C1805 H1817 0.929 . S
C1806 C1802 1.531 . S
C1806 H1818 0.960 . S
C1806 H1819 0.962 . S
C1806 H1820 0.960 . S
C1807 C1804 1.511 . S
C1807 H1821 0.961 . S
C1807 H1822 0.961 . S
C1807 H1823 0.961 . S
C1808 C1809 1.370 . S
C1808 C1810 1.363 . S
C1808 H1824 0.931 . S
C1809 C1808 1.370 . S
C1809 C1813 1.408 . S
C1810 C1808 1.363 . S
C1810 C1811 1.370 . S
C1810 C1814 1.524 . S
C1811 C1803 1.503 . S
C1811 C1810 1.370 . S
C1811 C1812 1.403 . S
C1812 C1811 1.403 . S
C1812 C1813 1.404 . S
C1812 C1815 1.539 . S
C1813 C1809 1.408 . S
C1813 C1812 1.404 . S
C1813 H1825 0.930 . S
C1814 C1810 1.524 . S
C1814 H1826 0.956 . S
C1814 H1827 0.961 . S
C1814 H1828 0.961 . S
C1815 C1812 1.539 . S
C1815 H1829 0.958 . S
C1815 H1830 0.961 . S
C1815 H1831 0.960 . S
H1816 C1800 0.931 . S
H1817 C1805 0.929 . S
H1818 C1806 0.960 . S
H1819 C1806 0.962 . S
H1820 C1806 0.960 . S
H1821 C1807 0.961 . S
H1822 C1807 0.961 . S
H1823 C1807 0.961 . S
H1824 C1808 0.931 . S
H1825 C1813 0.930 . S
H1826 C1814 0.956 . S
H1827 C1814 0.961 . S
H1828 C1814 0.961 . S
H1829 C1815 0.958 . S
H1830 C1815 0.961 . S
H1831 C1815 0.960 . S
C1832 C1833 1.391 . S
C1832 C1834 1.394 . S
C1832 H1848 0.931 . S
C1833 C1832 1.391 . S
C1833 C1837 1.376 . S
C1834 C1832 1.394 . S
C1834 C1835 1.369 . S
C1834 C1838 1.531 . S
C1835 C1834 1.369 . S
C1835 C1836 1.410 . S
C1835 C1843 1.503 . S
C1836 C1835 1.410 . S
C1836 C1837 1.392 . S
C1836 C1839 1.511 . S
C1837 C1833 1.376 . S
C1837 C1836 1.392 . S
C1837 H1849 0.929 . S
C1838 C1834 1.531 . S
C1838 H1850 0.960 . S
C1838 H1851 0.962 . S
C1838 H1852 0.960 . S
C1839 C1836 1.511 . S
C1839 H1853 0.961 . S
C1839 H1854 0.961 . S
C1839 H1855 0.961 . S
C1840 C1841 1.370 . S
C1840 C1842 1.363 . S
C1840 H1856 0.931 . S
C1841 C1840 1.370 . S
C1841 C1845 1.408 . S
C1842 C1840 1.363 . S
C1842 C1843 1.370 . S
C1842 C1846 1.524 . S
C1843 C1835 1.503 . S
C1843 C1842 1.370 . S
C1843 C1844 1.403 . S
C1844 C1843 1.403 . S
C1844 C1845 1.404 . S
C1844 C1847 1.539 . S
C1845 C1841 1.408 . S
C1845 C1844 1.404 . S
C1845 H1857 0.930 . S
C1846 C1842 1.524 . S
C1846 H1858 0.956 . S
C1846 H1859 0.961 . S
C1846 H1860 0.961 . S
C1847 C1844 1.539 . S
C1847 H1861 0.958 . S
C1847 H1862 0.961 . S
C1847 H1863 0.960 . S
H1848 C1832 0.931 . S
H1849 C1837 0.929 . S
H1850 C1838 0.960 . S
H1851 C1838 0.962 . S
H1852 C1838 0.960 . S
H1853 C1839 0.961 . S
H1854 C1839 0.961 . S
H1855 C1839 0.961 . S
H1856 C1840 0.931 . S
H1857 C1845 0.930 . S
H1858 C1846 0.956 . S
H1859 C1846 0.961 . S
H1860 C1846 0.961 . S
H1861 C1847 0.958 . S
H1862 C1847 0.961 . S
H1863 C1847 0.960 . S
C1864 C1865 1.391 . S
C1864 C1866 1.394 . S
C1864 H1880 0.931 . S
C1865 C1864 1.391 . S
C1865 C1869 1.376 . S
C1866 C1864 1.394 . S
C1866 C1867 1.369 . S
C1866 C1870 1.531 . S
C1867 C1866 1.369 . S
C1867 C1868 1.410 . S
C1867 C1875 1.503 . S
C1868 C1867 1.410 . S
C1868 C1869 1.392 . S
C1868 C1871 1.511 . S
C1869 C1865 1.376 . S
C1869 C1868 1.392 . S
C1869 H1881 0.929 . S
C1870 C1866 1.531 . S
C1870 H1882 0.960 . S
C1870 H1883 0.962 . S
C1870 H1884 0.960 . S
C1871 C1868 1.511 . S
C1871 H1885 0.961 . S
C1871 H1886 0.961 . S
C1871 H1887 0.961 . S
C1872 C1873 1.370 . S
C1872 C1874 1.363 . S
C1872 H1888 0.931 . S
C1873 C1872 1.370 . S
C1873 C1877 1.408 . S
C1874 C1872 1.363 . S
C1874 C1875 1.370 . S
C1874 C1878 1.524 . S
C1875 C1867 1.503 . S
C1875 C1874 1.370 . S
C1875 C1876 1.403 . S
C1876 C1875 1.403 . S
C1876 C1877 1.404 . S
C1876 C1879 1.539 . S
C1877 C1873 1.408 . S
C1877 C1876 1.404 . S
C1877 H1889 0.930 . S
C1878 C1874 1.524 . S
C1878 H1890 0.956 . S
C1878 H1891 0.961 . S
C1878 H1892 0.961 . S
C1879 C1876 1.539 . S
C1879 H1893 0.958 . S
C1879 H1894 0.961 . S
C1879 H1895 0.960 . S
H1880 C1864 0.931 . S
H1881 C1869 0.929 . S
H1882 C1870 0.960 . S
H1883 C1870 0.962 . S
H1884 C1870 0.960 . S
H1885 C1871 0.961 . S
H1886 C1871 0.961 . S
H1887 C1871 0.961 . S
H1888 C1872 0.931 . S
H1889 C1877 0.930 . S
H1890 C1878 0.956 . S
H1891 C1878 0.961 . S
H1892 C1878 0.961 . S
H1893 C1879 0.958 . S
H1894 C1879 0.961 . S
H1895 C1879 0.960 . S
C1896 C1897 1.391 . S
C1896 C1898 1.394 . S
C1896 H1912 0.931 . S
C1897 C1896 1.391 . S
C1897 C1901 1.376 . S
C1898 C1896 1.394 . S
C1898 C1899 1.369 . S
C1898 C1902 1.531 . S
C1899 C1898 1.369 . S
C1899 C1900 1.410 . S
C1899 C1907 1.503 . S
C1900 C1899 1.410 . S
C1900 C1901 1.392 . S
C1900 C1903 1.511 . S
C1901 C1897 1.376 . S
C1901 C1900 1.392 . S
C1901 H1913 0.929 . S
C1902 C1898 1.531 . S
C1902 H1914 0.960 . S
C1902 H1915 0.962 . S
C1902 H1916 0.960 . S
C1903 C1900 1.511 . S
C1903 H1917 0.961 . S
C1903 H1918 0.961 . S
C1903 H1919 0.961 . S
C1904 C1905 1.370 . S
C1904 C1906 1.363 . S
C1904 H1920 0.931 . S
C1905 C1904 1.370 . S
C1905 C1909 1.408 . S
C1906 C1904 1.363 . S
C1906 C1907 1.370 . S
C1906 C1910 1.524 . S
C1907 C1899 1.503 . S
C1907 C1906 1.370 . S
C1907 C1908 1.403 . S
C1908 C1907 1.403 . S
C1908 C1909 1.404 . S
C1908 C1911 1.539 . S
C1909 C1905 1.408 . S
C1909 C1908 1.404 . S
C1909 H1921 0.930 . S
C1910 C1906 1.524 . S
C1910 H1922 0.956 . S
C1910 H1923 0.961 . S
C1910 H1924 0.961 . S
C1911 C1908 1.539 . S
C1911 H1925 0.958 . S
C1911 H1926 0.961 . S
C1911 H1927 0.960 . S
H1912 C1896 0.931 . S
H1913 C1901 0.929 . S
H1914 C1902 0.960 . S
H1915 C1902 0.962 . S
H1916 C1902 0.960 . S
H1917 C1903 0.961 . S
H1918 C1903 0.961 . S
H1919 C1903 0.961 . S
H1920 C1904 0.931 . S
H1921 C1909 0.930 . S
H1922 C1910 0.956 . S
H1923 C1910 0.961 . S
H1924 C1910 0.961 . S
H1925 C1911 0.958 . S
H1926 C1911 0.961 . S
H1927 C1911 0.960 . S
C1928 C1929 1.391 . S
C1928 C1930 1.394 . S
C1928 H1944 0.931 . S
C1929 C1928 1.391 . S
C1929 C1933 1.376 . S
C1930 C1928 1.394 . S
C1930 C1931 1.369 . S
C1930 C1934 1.531 . S
C1931 C1930 1.369 . S
C1931 C1932 1.410 . S
C1931 C1939 1.503 . S
C1932 C1931 1.410 . S
C1932 C1933 1.392 . S
C1932 C1935 1.511 . S
C1933 C1929 1.376 . S
C1933 C1932 1.392 . S
C1933 H1945 0.929 . S
C1934 C1930 1.531 . S
C1934 H1946 0.960 . S
C1934 H1947 0.962 . S
C1934 H1948 0.960 . S
C1935 C1932 1.511 . S
C1935 H1949 0.961 . S
C1935 H1950 0.961 . S
C1935 H1951 0.961 . S
C1936 C1937 1.370 . S
C1936 C1938 1.363 . S
C1936 H1952 0.931 . S
C1937 C1936 1.370 . S
C1937 C1941 1.408 . S
C1938 C1936 1.363 . S
C1938 C1939 1.370 . S
C1938 C1942 1.524 . S
C1939 C1931 1.503 . S
C1939 C1938 1.370 . S
C1939 C1940 1.403 . S
C1940 C1939 1.403 . S
C1940 C1941 1.404 . S
C1940 C1943 1.539 . S
C1941 C1937 1.408 . S
C1941 C1940 1.404 . S
C1941 H1953 0.930 . S
C1942 C1938 1.524 . S
C1942 H1954 0.956 . S
C1942 H1955 0.961 . S
C1942 H1956 0.961 . S
C1943 C1940 1.539 . S
C1943 H1957 0.958 . S
C1943 H1958 0.961 . S
C1943 H1959 0.960 . S
H1944 C1928 0.931 . S
H1945 C1933 0.929 . S
H1946 C1934 0.960 . S
H1947 C1934 0.962 . S
H1948 C1934 0.960 . S
H1949 C1935 0.961 . S
H1950 C1935 0.961 . S
H1951 C1935 0.961 . S
H1952 C1936 0.931 . S
H1953 C1941 0.930 . S
H1954 C1942 0.956 . S
H1955 C1942 0.961 . S
H1956 C1942 0.961 . S
H1957 C1943 0.958 . S
H1958 C1943 0.961 . S
H1959 C1943 0.960 . S
C1960 C1961 1.391 . S
C1960 C1962 1.394 . S
C1960 H1976 0.931 . S
C1961 C1960 1.391 . S
C1961 C1965 1.376 . S
C1962 C1960 1.394 . S
C1962 C1963 1.369 . S
C1962 C1966 1.531 . S
C1963 C1962 1.369 . S
C1963 C1964 1.410 . S
C1963 C1971 1.503 . S
C1964 C1963 1.410 . S
C1964 C1965 1.392 . S
C1964 C1967 1.511 . S
C1965 C1961 1.376 . S
C1965 C1964 1.392 . S
C1965 H1977 0.929 . S
C1966 C1962 1.531 . S
C1966 H1978 0.960 . S
C1966 H1979 0.962 . S
C1966 H1980 0.960 . S
C1967 C1964 1.511 . S
C1967 H1981 0.961 . S
C1967 H1982 0.961 . S
C1967 H1983 0.961 . S
C1968 C1969 1.370 . S
C1968 C1970 1.363 . S
C1968 H1984 0.931 . S
C1969 C1968 1.370 . S
C1969 C1973 1.408 . S
C1970 C1968 1.363 . S
C1970 C1971 1.370 . S
C1970 C1974 1.524 . S
C1971 C1963 1.503 . S
C1971 C1970 1.370 . S
C1971 C1972 1.403 . S
C1972 C1971 1.403 . S
C1972 C1973 1.404 . S
C1972 C1975 1.539 . S
C1973 C1969 1.408 . S
C1973 C1972 1.404 . S
C1973 H1985 0.930 . S
C1974 C1970 1.524 . S
C1974 H1986 0.956 . S
C1974 H1987 0.961 . S
C1974 H1988 0.961 . S
C1975 C1972 1.539 . S
C1975 H1989 0.958 . S
C1975 H1990 0.961 . S
C1975 H1991 0.960 . S
H1976 C1960 0.931 . S
H1977 C1965 0.929 . S
H1978 C1966 0.960 . S
H1979 C1966 0.962 . S
H1980 C1966 0.960 . S
H1981 C1967 0.961 . S
H1982 C1967 0.961 . S
H1983 C1967 0.961 . S
H1984 C1968 0.931 . S
H1985 C1973 0.930 . S
H1986 C1974 0.956 . S
H1987 C1974 0.961 . S
H1988 C1974 0.961 . S
H1989 C1975 0.958 . S
H1990 C1975 0.961 . S
H1991 C1975 0.960 . S
C1992 C1993 1.391 . S
C1992 C1994 1.394 . S
C1992 H2008 0.931 . S
C1993 C1992 1.391 . S
C1993 C1997 1.376 . S
C1994 C1992 1.394 . S
C1994 C1995 1.369 . S
C1994 C1998 1.531 . S
C1995 C1994 1.369 . S
C1995 C1996 1.410 . S
C1995 C2003 1.503 . S
C1996 C1995 1.410 . S
C1996 C1997 1.392 . S
C1996 C1999 1.511 . S
C1997 C1993 1.376 . S
C1997 C1996 1.392 . S
C1997 H2009 0.929 . S
C1998 C1994 1.531 . S
C1998 H2010 0.960 . S
C1998 H2011 0.962 . S
C1998 H2012 0.960 . S
C1999 C1996 1.511 . S
C1999 H2013 0.961 . S
C1999 H2014 0.961 . S
C1999 H2015 0.961 . S
C2000 C2001 1.370 . S
C2000 C2002 1.363 . S
C2000 H2016 0.931 . S
C2001 C2000 1.370 . S
C2001 C2005 1.408 . S
C2002 C2000 1.363 . S
C2002 C2003 1.370 . S
C2002 C2006 1.524 . S
C2003 C1995 1.503 . S
C2003 C2002 1.370 . S
C2003 C2004 1.403 . S
C2004 C2003 1.403 . S
C2004 C2005 1.404 . S
C2004 C2007 1.539 . S
C2005 C2001 1.408 . S
C2005 C2004 1.404 . S
C2005 H2017 0.930 . S
C2006 C2002 1.524 . S
C2006 H2018 0.956 . S
C2006 H2019 0.961 . S
C2006 H2020 0.961 . S
C2007 C2004 1.539 . S
C2007 H2021 0.958 . S
C2007 H2022 0.961 . S
C2007 H2023 0.960 . S
H2008 C1992 0.931 . S
H2009 C1997 0.929 . S
H2010 C1998 0.960 . S
H2011 C1998 0.962 . S
H2012 C1998 0.960 . S
H2013 C1999 0.961 . S
H2014 C1999 0.961 . S
H2015 C1999 0.961 . S
H2016 C2000 0.931 . S
H2017 C2005 0.930 . S
H2018 C2006 0.956 . S
H2019 C2006 0.961 . S
H2020 C2006 0.961 . S
H2021 C2007 0.958 . S
H2022 C2007 0.961 . S
H2023 C2007 0.960 . S
C2024 C2025 1.391 . S
C2024 C2026 1.394 . S
C2024 H2040 0.931 . S
C2025 C2024 1.391 . S
C2025 C2029 1.376 . S
C2026 C2024 1.394 . S
C2026 C2027 1.369 . S
C2026 C2030 1.531 . S
C2027 C2026 1.369 . S
C2027 C2028 1.410 . S
C2027 C2035 1.503 . S
C2028 C2027 1.410 . S
C2028 C2029 1.392 . S
C2028 C2031 1.511 . S
C2029 C2025 1.376 . S
C2029 C2028 1.392 . S
C2029 H2041 0.929 . S
C2030 C2026 1.531 . S
C2030 H2042 0.960 . S
C2030 H2043 0.962 . S
C2030 H2044 0.960 . S
C2031 C2028 1.511 . S
C2031 H2045 0.961 . S
C2031 H2046 0.961 . S
C2031 H2047 0.961 . S
C2032 C2033 1.370 . S
C2032 C2034 1.363 . S
C2032 H2048 0.931 . S
C2033 C2032 1.370 . S
C2033 C2037 1.408 . S
C2034 C2032 1.363 . S
C2034 C2035 1.370 . S
C2034 C2038 1.524 . S
C2035 C2027 1.503 . S
C2035 C2034 1.370 . S
C2035 C2036 1.403 . S
C2036 C2035 1.403 . S
C2036 C2037 1.404 . S
C2036 C2039 1.539 . S
C2037 C2033 1.408 . S
C2037 C2036 1.404 . S
C2037 H2049 0.930 . S
C2038 C2034 1.524 . S
C2038 H2050 0.956 . S
C2038 H2051 0.961 . S
C2038 H2052 0.961 . S
C2039 C2036 1.539 . S
C2039 H2053 0.958 . S
C2039 H2054 0.961 . S
C2039 H2055 0.960 . S
H2040 C2024 0.931 . S
H2041 C2029 0.929 . S
H2042 C2030 0.960 . S
H2043 C2030 0.962 . S
H2044 C2030 0.960 . S
H2045 C2031 0.961 . S
H2046 C2031 0.961 . S
H2047 C2031 0.961 . S
H2048 C2032 0.931 . S
H2049 C2037 0.930 . S
H2050 C2038 0.956 . S
H2051 C2038 0.961 . S
H2052 C2038 0.961 . S
H2053 C2039 0.958 . S
H2054 C2039 0.961 . S
H2055 C2039 0.960 . S
C2056 C2057 1.391 . S
C2056 C2058 1.394 . S
C2056 H2072 0.931 . S
C2057 C2056 1.391 . S
C2057 C2061 1.376 . S
C2058 C2056 1.394 . S
C2058 C2059 1.369 . S
C2058 C2062 1.531 . S
C2059 C2058 1.369 . S
C2059 C2060 1.410 . S
C2059 C2067 1.503 . S
C2060 C2059 1.410 . S
C2060 C2061 1.392 . S
C2060 C2063 1.511 . S
C2061 C2057 1.376 . S
C2061 C2060 1.392 . S
C2061 H2073 0.929 . S
C2062 C2058 1.531 . S
C2062 H2074 0.960 . S
C2062 H2075 0.962 . S
C2062 H2076 0.960 . S
C2063 C2060 1.511 . S
C2063 H2077 0.961 . S
C2063 H2078 0.961 . S
C2063 H2079 0.961 . S
C2064 C2065 1.370 . S
C2064 C2066 1.363 . S
C2064 H2080 0.931 . S
C2065 C2064 1.370 . S
C2065 C2069 1.408 . S
C2066 C2064 1.363 . S
C2066 C2067 1.370 . S
C2066 C2070 1.524 . S
C2067 C2059 1.503 . S
C2067 C2066 1.370 . S
C2067 C2068 1.403 . S
C2068 C2067 1.403 . S
C2068 C2069 1.404 . S
C2068 C2071 1.539 . S
C2069 C2065 1.408 . S
C2069 C2068 1.404 . S
C2069 H2081 0.930 . S
C2070 C2066 1.524 . S
C2070 H2082 0.956 . S
C2070 H2083 0.961 . S
C2070 H2084 0.961 . S
C2071 C2068 1.539 . S
C2071 H2085 0.958 . S
C2071 H2086 0.961 . S
C2071 H2087 0.960 . S
H2072 C2056 0.931 . S
H2073 C2061 0.929 . S
H2074 C2062 0.960 . S
H2075 C2062 0.962 . S
H2076 C2062 0.960 . S
H2077 C2063 0.961 . S
H2078 C2063 0.961 . S
H2079 C2063 0.961 . S
H2080 C2064 0.931 . S
H2081 C2069 0.930 . S
H2082 C2070 0.956 . S
H2083 C2070 0.961 . S
H2084 C2070 0.961 . S
H2085 C2071 0.958 . S
H2086 C2071 0.961 . S
H2087 C2071 0.960 . S
C361 C266 1.498 . S
C369 C6 1.471 . S
C393 C29 1.555 . S
C401 C289 1.526 . S
C425 C46 1.502 . S
C433 C249 1.520 . S
C457 C49 1.564 . S
C465 C149 1.576 . S
C489 C169 1.866 . S
C497 C9 1.865 . S
C521 C26 1.688 . S
C529 C129 1.757 . S
C553 C76 1.706 . S
C561 C201 1.802 . S
C585 C81 1.574 . S
C593 C221 1.583 . S
C617 C181 1.472 . S
C625 C116 1.456 . S
C649 C321 1.558 . S
C657 C101 1.535 1_565 S
C681 C61 1.529 . S
C689 C356 1.474 . S
C713 C316 1.451 . S
C721 C96 1.472 . S
C745 C166 1.303 . S
C753 C269 1.322 . S
C777 C126 1.223 . S
C785 C286 1.267 . S
C809 C146 1.474 . S
C817 C246 1.478 . S
C841 C196 1.513 . S
C849 C336 1.502 . S
C873 C341 1.369 . S
C881 C216 1.347 . S
C905 C301 1.599 . S
C913 C236 1.581 . S
C937 C1 1.667 . S
C945 C89 1.670 . S
C969 C106 2.010 . S
C977 C36 2.019 . S
C1001 C66 1.763 . S
C1009 C41 1.863 . S
C1033 C86 1.873 . S
C1041 C56 1.920 . S
C1065 C109 1.885 . S
C1073 C16 1.770 . S
C1097 C69 1.854 . S
C1105 C21 1.873 . S
C1129 C206 1.676 . S
C1137 C136 1.676 . S
C1161 C226 1.914 . S
C1169 C156 1.884 . S
C1193 C186 1.851 . S
C1201 C176 1.767 . S
C1225 C209 1.799 . S
C1233 C161 1.809 . S
C1257 C229 1.614 . S
C1265 C121 1.684 . S
C1289 C189 1.520 . S
C1297 C141 1.528 . S
C1321 C329 1.475 . S
C1329 C241 1.453 . S
C1353 C346 1.683 . S
C1361 C276 1.625 . S
C1385 C281 1.603 . S
C1393 C306 1.484 . S
C1417 C296 1.816 . S
C1425 C326 1.795 . S
C1449 C256 1.511 . S
C1457 C349 1.554 . S
C1481 C309 1.215 . S
C1489 C261 1.241 . S
C1513 C19 1.674 . S
C1521 C8 1.733 . S
C1545 C28 1.743 . S
C1553 C39 1.731 . S
C1577 C59 1.721 . S
C1585 C48 1.753 . S
C1609 C68 1.697 . S
C1617 C79 1.727 . S
C1641 C88 1.712 . S
C1649 C99 1.731 . S
C1673 C119 1.729 . S
C1681 C108 1.755 . S
C1705 C139 1.722 1_554 S
C1713 C128 1.724 . S
C1737 C148 1.709 . S
C1745 C159 1.729 1_554 S
C1769 C179 1.709 1_554 S
C1777 C168 1.770 . S
C1801 C188 1.688 1_554 S
C1809 C199 1.715 . S
C1833 C208 1.749 1_554 S
C1841 C219 1.722 . S
C1865 C228 1.773 1_554 S
C1873 C239 1.733 . S
C1897 C248 1.719 . S
C1905 C259 1.706 1_556 S
C1929 C268 1.736 . S
C1937 C279 1.717 . S
C1961 C299 1.739 1_556 S
C1969 C288 1.722 . S
C1993 C319 1.748 1_556 S
C2001 C308 1.701 . S
C2025 C328 1.677 1_556 S
C2033 C339 1.733 . S
C2057 C348 1.696 . S
C2065 C359 1.747 1_556 S
