# Generated by pormake.
# Topology umx, (4)-cn, num edge types: 1
# Building blocks:
#     Node 0, Type 0, BuildingBlock: QUQFOY_clean_sbu_1, # of connection points: 4
#     Node 1, Type 0, BuildingBlock: QUQFOY_clean_sbu_1, # of connection points: 4
#     Node 2, Type 0, BuildingBlock: QUQFOY_clean_sbu_1, # of connection points: 4
#     Node 3, Type 0, BuildingBlock: QUQFOY_clean_sbu_1, # of connection points: 4
#     Node 4, Type 0, BuildingBlock: QUQFOY_clean_sbu_1, # of connection points: 4
#     Node 5, Type 0, BuildingBlock: QUQFOY_clean_sbu_1, # of connection points: 4
#     Node 6, Type 0, BuildingBlock: QUQFOY_clean_sbu_1, # of connection points: 4
#     Node 7, Type 0, BuildingBlock: QUQFOY_clean_sbu_1, # of connection points: 4
#     Edge 8, Type (0, 0), BuildingBlock: AJUNOK_clean_linker_0, # of connection points: 2
#     Edge 9, Type (0, 0), BuildingBlock: AJUNOK_clean_linker_0, # of connection points: 2
#     Edge 10, Type (0, 0), BuildingBlock: AJUNOK_clean_linker_0, # of connection points: 2
#     Edge 11, Type (0, 0), BuildingBlock: AJUNOK_clean_linker_0, # of connection points: 2
#     Edge 12, Type (0, 0), BuildingBlock: AJUNOK_clean_linker_0, # of connection points: 2
#     Edge 13, Type (0, 0), BuildingBlock: AJUNOK_clean_linker_0, # of connection points: 2
#     Edge 14, Type (0, 0), BuildingBlock: AJUNOK_clean_linker_0, # of connection points: 2
#     Edge 15, Type (0, 0), BuildingBlock: AJUNOK_clean_linker_0, # of connection points: 2
#     Edge 16, Type (0, 0), BuildingBlock: AJUNOK_clean_linker_0, # of connection points: 2
#     Edge 17, Type (0, 0), BuildingBlock: AJUNOK_clean_linker_0, # of connection points: 2
#     Edge 18, Type (0, 0), BuildingBlock: AJUNOK_clean_linker_0, # of connection points: 2
#     Edge 19, Type (0, 0), BuildingBlock: AJUNOK_clean_linker_0, # of connection points: 2
#     Edge 20, Type (0, 0), BuildingBlock: AJUNOK_clean_linker_0, # of connection points: 2
#     Edge 21, Type (0, 0), BuildingBlock: AJUNOK_clean_linker_0, # of connection points: 2
#     Edge 22, Type (0, 0), BuildingBlock: AJUNOK_clean_linker_0, # of connection points: 2
#     Edge 23, Type (0, 0), BuildingBlock: AJUNOK_clean_linker_0, # of connection points: 2
# Relax obj value: 0.082
# Max RMSD: 0.141
# Mean RMSD: 0.141
data_MOF--net-umx--node1-QUQFOY_clean_sbu_1--edge1-AJUNOK_clean_linker_0
_symmetry_space_group_name_H-M    P1
_symmetry_Int_Tables_number       1
_symmetry_cell_setting            triclinic
loop_
_symmetry_equiv_pos_as_xyz
'x, y, z'
_cell_length_a     29.716064
_cell_length_b     29.748724
_cell_length_c     21.126761
_cell_angle_alpha  89.816101
_cell_angle_beta   89.580487
_cell_angle_gamma 90.128762
loop_
_atom_site_label
_atom_site_type_symbol
_atom_site_fract_x
_atom_site_fract_y
_atom_site_fract_z
_atom_type_partial_charge
O0 O 0.21085 0.45949 0.17984 0.0
Cd1 Cd 0.18919 0.43149 0.09669 0.0
Cd2 Cd 0.21544 0.51288 0.05263 0.0
O3 O 0.24781 0.5174 0.13909 0.0
O4 O 0.19646 0.36436 0.10496 0.0
O5 O 0.23934 0.40794 0.04424 0.0
C6 C 0.23152 0.36896 0.06893 0.0
C7 C 0.24804 0.52021 0.95196 0.0
C8 C 0.23737 0.49272 0.18641 0.0
C9 C 0.11649 0.49325 0.05389 0.0
O10 O 0.14701 0.52325 0.05398 0.0
O11 O 0.12678 0.45212 0.06291 0.0
O12 O 0.24093 0.55504 0.98697 0.0
O13 O 0.23958 0.48127 0.97632 0.0
O14 O 0.58231 0.20549 0.67568 0.0
Cd15 Cd 0.6126 0.1849 0.59328 0.0
Cd16 Cd 0.53298 0.21098 0.54638 0.0
O17 O 0.52651 0.2435 0.6326 0.0
O18 O 0.67949 0.19396 0.60249 0.0
O19 O 0.63557 0.23592 0.5421 0.0
C20 C 0.67444 0.22907 0.56704 0.0
C21 C 0.52692 0.24336 0.44569 0.0
C22 C 0.54907 0.23208 0.68109 0.0
C23 C 0.55186 0.11214 0.54905 0.0
O24 O 0.52204 0.14269 0.54817 0.0
O25 O 0.59296 0.12243 0.55858 0.0
O26 O 0.49165 0.23633 0.48046 0.0
O27 O 0.56558 0.23473 0.47013 0.0
O28 O 0.83562 0.58429 0.17433 0.0
Cd29 Cd 0.85731 0.61426 0.09213 0.0
Cd30 Cd 0.82952 0.53506 0.04436 0.0
O31 O 0.79722 0.52862 0.1313 0.0
O32 O 0.84934 0.68138 0.10056 0.0
O33 O 0.80668 0.63751 0.04124 0.0
C34 C 0.81438 0.67658 0.06512 0.0
C35 C 0.79722 0.52997 0.94392 0.0
C36 C 0.80883 0.55109 0.17982 0.0
C37 C 0.92911 0.55211 0.04741 0.0
O38 O 0.89758 0.52328 0.04515 0.0
O39 O 0.91994 0.59331 0.05807 0.0
O40 O 0.80369 0.49439 0.97786 0.0
O41 O 0.80632 0.56828 0.96909 0.0
O42 O 0.45769 0.82577 0.66632 0.0
Cd43 Cd 0.42883 0.85223 0.58649 0.0
Cd44 Cd 0.50782 0.82515 0.53914 0.0
O45 O 0.51685 0.79217 0.6245 0.0
O46 O 0.36323 0.85057 0.60873 0.0
O47 O 0.3937 0.8102 0.53163 0.0
C48 C 0.35912 0.81967 0.56641 0.0
C49 C 0.51111 0.79303 0.43859 0.0
C50 C 0.49193 0.80069 0.67217 0.0
C51 C 0.49178 0.925 0.54611 0.0
O52 O 0.52 0.89325 0.54005 0.0
O53 O 0.45074 0.91606 0.55931 0.0
O54 O 0.54717 0.79995 0.47091 0.0
O55 O 0.47293 0.80147 0.46563 0.0
O56 O 0.21711 0.5828 0.4501 0.0
Cd57 Cd 0.19038 0.61254 0.52953 0.0
Cd58 Cd 0.21764 0.53417 0.57861 0.0
O59 O 0.25072 0.52435 0.49324 0.0
O60 O 0.19306 0.67844 0.50908 0.0
O61 O 0.23207 0.64659 0.58597 0.0
C62 C 0.2231 0.68183 0.55265 0.0
C63 C 0.24936 0.53219 0.6794 0.0
C64 C 0.24188 0.54824 0.44484 0.0
C65 C 0.11762 0.54967 0.57033 0.0
O66 O 0.14951 0.52179 0.57752 0.0
O67 O 0.1264 0.59058 0.55653 0.0
O68 O 0.24267 0.4957 0.6478 0.0
O69 O 0.24099 0.56988 0.65149 0.0
O70 O 0.45732 0.20618 0.94437 0.0
Cd71 Cd 0.42743 0.18366 0.02617 0.0
Cd72 Cd 0.50746 0.21157 0.07346 0.0
O73 O 0.51379 0.2439 0.9867 0.0
O74 O 0.36044 0.19306 1.01784 0.0
O75 O 0.40503 0.23365 0.07892 0.0
C76 C 0.36606 0.22764 0.0539 0.0
C77 C 0.51323 0.24401 0.17394 0.0
C78 C 0.49044 0.23305 0.93872 0.0
C79 C 0.48976 0.11188 0.06929 0.0
O80 O 0.51854 0.14345 0.07204 0.0
O81 O 0.44847 0.12094 0.05894 0.0
O82 O 0.54868 0.23701 0.13962 0.0
O83 O 0.47473 0.23526 0.14921 0.0
O84 O 0.83511 0.45867 0.44291 0.0
Cd85 Cd 0.85652 0.42919 0.52513 0.0
Cd86 Cd 0.83128 0.50976 0.5714 0.0
O87 O 0.79904 0.51626 0.48519 0.0
O88 O 0.84753 0.36233 0.51613 0.0
O89 O 0.80608 0.4062 0.57774 0.0
C90 C 0.81273 0.36735 0.55249 0.0
C91 C 0.79861 0.51635 0.67204 0.0
C92 C 0.80916 0.49234 0.43726 0.0
C93 C 0.93015 0.48976 0.56788 0.0
O94 O 0.89978 0.51976 0.56965 0.0
O95 O 0.9195 0.44881 0.558 0.0
O96 O 0.80624 0.55145 0.63742 0.0
O97 O 0.8068 0.47759 0.64746 0.0
O98 O 0.58013 0.82913 0.9373 0.0
Cd99 Cd 0.60874 0.85071 1.02014 0.0
Cd100 Cd 0.52733 0.82572 0.06538 0.0
O101 O 0.52166 0.79347 0.97888 0.0
O102 O 0.67609 0.84509 1.01053 0.0
O103 O 0.63412 0.80097 0.07167 0.0
C104 C 0.67289 0.8103 0.04705 0.0
C105 C 0.52216 0.79324 0.16605 0.0
C106 C 0.54602 0.80365 0.93103 0.0
C107 C 0.54759 0.92424 0.06354 0.0
O108 O 0.51725 0.89407 0.0645 0.0
O109 O 0.58856 0.91341 0.05365 0.0
O110 O 0.48649 0.80035 0.13288 0.0
O111 O 0.56059 0.80175 0.13987 0.0
C112 C 0.25434 0.5513 0.26707 0.0
C113 C 0.25093 0.50562 0.25111 0.0
C114 C 0.25547 0.5648 0.33054 0.0
C115 C 0.254 0.5331 0.38023 0.0
H116 H 0.25248 0.57696 0.23069 0.0
H117 H 0.25467 0.60045 0.3408 0.0
S118 S 0.25417 0.40907 0.36263 0.0
N119 N 0.25274 0.42846 0.28934 0.0
N120 N 0.25554 0.45382 0.40865 0.0
C121 C 0.25545 0.48722 0.36462 0.0
C122 C 0.25365 0.47349 0.29999 0.0
C123 C 0.56538 0.24425 0.79535 0.0
C124 C 0.53414 0.24485 0.74551 0.0
C125 C 0.55116 0.24515 0.85872 0.0
C126 C 0.50515 0.24587 0.87429 0.0
H127 H 0.60099 0.24043 0.78542 0.0
H128 H 0.57615 0.24146 0.89544 0.0
S129 S 0.41027 0.25556 0.76205 0.0
N130 N 0.45548 0.25268 0.71633 0.0
N131 N 0.42874 0.25344 0.83553 0.0
C132 C 0.47384 0.25056 0.82514 0.0
C133 C 0.48834 0.25037 0.76062 0.0
C134 C 0.7964 0.5528 0.35766 0.0
C135 C 0.79644 0.50681 0.37293 0.0
C136 C 0.79675 0.56708 0.2944 0.0
C137 C 0.79632 0.53592 0.24434 0.0
H138 H 0.79983 0.57782 0.39447 0.0
H139 H 0.80002 0.60273 0.28464 0.0
S140 S 0.78758 0.41198 0.26011 0.0
N141 N 0.78977 0.43038 0.33369 0.0
N142 N 0.78957 0.45725 0.21471 0.0
C143 C 0.79161 0.49006 0.25922 0.0
C144 C 0.79197 0.47549 0.32363 0.0
C145 C 0.56458 0.79205 0.81675 0.0
C146 C 0.53247 0.79063 0.86619 0.0
C147 C 0.55155 0.79047 0.75316 0.0
C148 C 0.50589 0.78808 0.7368 0.0
H149 H 0.59989 0.79704 0.82713 0.0
H150 H 0.57711 0.79494 0.71682 0.0
S151 S 0.40929 0.77534 0.84765 0.0
N152 N 0.45352 0.78006 0.89406 0.0
N153 N 0.42907 0.77786 0.77448 0.0
C154 C 0.47386 0.78243 0.78555 0.0
C155 C 0.48714 0.78345 0.85033 0.0
C156 C 0.78832 0.48149 0.77907 0.0
C157 C 0.78714 0.52016 0.74043 0.0
C158 C 0.78792 0.48471 0.84526 0.0
C159 C 0.78626 0.52673 0.87555 0.0
H160 H 0.79238 0.4485 0.75828 0.0
H161 H 0.7918 0.45413 0.87263 0.0
S162 S 0.77315 0.63754 0.79629 0.0
N163 N 0.77725 0.60131 0.73752 0.0
N164 N 0.77628 0.60738 0.86182 0.0
C165 C 0.78065 0.56533 0.83758 0.0
C166 C 0.78114 0.56204 0.77008 0.0
C167 C 0.47729 0.7856 0.26631 0.0
C168 C 0.51897 0.78212 0.23461 0.0
C169 C 0.47464 0.78558 0.33265 0.0
C170 C 0.51356 0.7821 0.36999 0.0
H171 H 0.44668 0.79121 0.23993 0.0
H172 H 0.44207 0.79114 0.35457 0.0
S173 S 0.6298 0.76305 0.31018 0.0
N174 N 0.59922 0.76826 0.24567 0.0
N175 N 0.59426 0.76829 0.37012 0.0
C176 C 0.5549 0.77441 0.33889 0.0
C177 C 0.5576 0.77441 0.27129 0.0
C178 C 0.26063 0.48567 0.84556 0.0
C179 C 0.25928 0.52452 0.88345 0.0
C180 C 0.26096 0.48854 0.77932 0.0
C181 C 0.25996 0.53039 0.74809 0.0
H182 H 0.25879 0.45258 0.86698 0.0
H183 H 0.2593 0.45756 0.75263 0.0
S184 S 0.26509 0.64231 0.82521 0.0
N185 N 0.26351 0.60621 0.88469 0.0
N186 N 0.2642 0.61164 0.76025 0.0
C187 C 0.26282 0.56951 0.7853 0.0
C188 C 0.26247 0.56657 0.85292 0.0
C189 C 0.56199 0.2525 0.33845 0.0
C190 C 0.52332 0.25465 0.37732 0.0
C191 C 0.55877 0.25272 0.27228 0.0
C192 C 0.51675 0.25517 0.24225 0.0
H193 H 0.59493 0.2478 0.35905 0.0
H194 H 0.58928 0.24806 0.24474 0.0
S195 S 0.40615 0.27108 0.32213 0.0
N196 N 0.44233 0.26636 0.3807 0.0
N197 N 0.43625 0.26702 0.25643 0.0
C198 C 0.47825 0.26178 0.28043 0.0
C199 C 0.48153 0.26146 0.34791 0.0
C200 C 1.01225 0.56743 0.05071 0.0
C201 C 0.97676 0.53667 0.04261 0.0
C202 C 0.05717 0.55311 0.05256 0.0
C203 C 0.0687 0.50732 0.04677 0.0
H204 H 1.00536 0.60287 0.05718 0.0
H205 H 0.08296 0.57823 0.06033 0.0
S206 S 0.989 0.41332 1.01898 0.0
N207 N 0.95672 0.45823 1.02432 0.0
N208 N 0.04099 0.43159 0.02841 0.0
C209 C 0.03376 0.47632 0.03646 0.0
C210 C 0.98794 0.4909 0.03416 0.0
C211 C 0.47712 1.00807 0.55017 0.0
C212 C 0.50764 0.97252 0.54144 0.0
C213 C 0.49169 0.05294 0.55079 0.0
C214 C 0.53752 0.06436 0.54315 0.0
H215 H 0.44166 1.00129 0.55779 0.0
H216 H 0.46676 0.07881 0.55903 0.0
S217 S 0.63097 0.98443 0.5137 0.0
N218 N 0.58591 0.95224 0.52104 0.0
N219 N 0.61302 0.03647 0.52286 0.0
C220 C 0.56829 0.02934 0.5325 0.0
C221 C 0.55345 0.98355 0.53142 0.0
C222 C 0.03441 0.56435 0.57095 0.0
C223 C 0.07013 0.53355 0.57463 0.0
C224 C 0.98948 0.54982 0.5706 0.0
C225 C 0.97814 0.50376 0.5734 0.0
H226 H 0.0411 0.60008 0.5674 0.0
H227 H 0.96347 0.57509 0.56656 0.0
S228 S 0.05876 0.40917 0.58703 0.0
N229 N 0.09081 0.45451 0.58398 0.0
N230 N 1.00649 0.42748 0.58282 0.0
C231 C 1.01341 0.47258 0.57868 0.0
C232 C 0.05926 0.48737 0.57946 0.0
C233 C 0.4881 0.98385 0.07006 0.0
C234 C 0.53411 0.97223 0.07036 0.0
C235 C 0.47405 0.02883 0.07146 0.0
C236 C 0.50533 0.06433 0.07364 0.0
H237 H 0.46245 0.95803 0.06715 0.0
H238 H 0.43831 0.03574 0.06962 0.0
S239 S 0.6299 0.05218 0.07996 0.0
N240 N 0.61093 1.0001 0.07628 0.0
N241 N 0.58483 0.08446 0.07937 0.0
C242 C 0.5515 0.05317 0.07625 0.0
C243 C 0.56579 1.00728 0.07446 0.0
C244 C 0.25255 0.28703 0.06285 0.0
C245 C 0.26527 0.33267 0.06295 0.0
C246 C 0.28515 0.25275 0.05977 0.0
C247 C 0.33139 0.2631 0.05927 0.0
H248 H 0.21728 0.27783 0.06449 0.0
H249 H 0.27415 0.21802 0.0586 0.0
S250 S 0.38204 0.37732 0.06037 0.0
N251 N 0.32726 0.38617 0.06238 0.0
N252 N 0.38806 0.32223 0.05875 0.0
C253 C 0.34434 0.30859 0.06016 0.0
C254 C 0.31139 0.34326 0.06146 0.0
C255 C 0.78943 0.28593 0.55774 0.0
C256 C 0.77799 0.33183 0.5583 0.0
C257 C 0.7559 0.25241 0.56073 0.0
C258 C 0.70996 0.26384 0.56183 0.0
H259 H 0.82443 0.27592 0.55565 0.0
H260 H 0.76594 0.21743 0.56136 0.0
S261 S 0.6625 0.37917 0.56258 0.0
N262 N 0.7175 0.38677 0.56012 0.0
N263 N 0.65494 0.32422 0.5636 0.0
C264 C 0.69827 0.3096 0.5616 0.0
C265 C 0.73217 0.34349 0.56037 0.0
C266 C 0.73457 0.69981 0.05819 0.0
C267 C 0.7802 0.71236 0.05913 0.0
C268 C 0.70045 0.73203 0.0564 0.0
C269 C 0.71049 0.77818 0.05371 0.0
H270 H 0.72496 0.66466 0.06012 0.0
H271 H 0.66583 0.72052 0.05567 0.0
S272 S 0.82458 0.82887 0.05427 0.0
N273 N 0.83382 0.77416 0.05821 0.0
N274 N 0.76935 0.83505 0.0516 0.0
C275 C 0.75596 0.79139 0.05385 0.0
C276 C 0.7909 0.7584 0.05755 0.0
C277 C 0.30069 0.77746 0.50596 0.0
C278 C 0.31851 0.79104 0.56427 0.0
C279 C 0.2669 0.74444 0.50312 0.0
C280 C 0.2511 0.72274 0.55833 0.0
H281 H 0.31391 0.79147 0.46221 0.0
H282 H 0.25522 0.7338 0.45706 0.0
S283 S 0.28619 0.74702 0.72268 0.0
N284 N 0.31639 0.78195 0.67864 0.0
N285 N 0.25458 0.71835 0.67297 0.0
C286 C 0.26777 0.73693 0.61697 0.0
C287 C 0.30106 0.77152 0.62002 0.0
loop_
_geom_bond_atom_site_label_1
_geom_bond_atom_site_label_2
_geom_bond_distance
_geom_bond_site_symmetry_2
_ccdc_geom_bond_type
O0 Cd1 2.223 . S
O0 C8 1.315 . S
Cd1 O0 2.223 . S
Cd1 O4 2.297 . S
Cd1 O5 2.439 . S
Cd1 O11 2.240 . S
Cd2 O3 2.240 . S
Cd2 O10 2.223 . S
Cd2 O12 2.297 1_554 S
Cd2 O13 2.439 1_554 S
O3 Cd2 2.240 . S
O3 C8 1.279 . S
O4 Cd1 2.297 . S
O4 C6 1.247 . S
O5 Cd1 2.439 . S
O5 C6 1.208 . S
C6 O4 1.247 . S
C6 O5 1.208 . S
C7 O12 1.247 . S
C7 O13 1.208 . S
C8 O0 1.315 . S
C8 O3 1.279 . S
C9 O10 1.315 . S
C9 O11 1.279 . S
O10 Cd2 2.223 . S
O10 C9 1.315 . S
O11 Cd1 2.240 . S
O11 C9 1.279 . S
O12 Cd2 2.297 1_556 S
O12 C7 1.247 . S
O13 Cd2 2.439 1_556 S
O13 C7 1.208 . S
O14 Cd15 2.223 . S
O14 C22 1.315 . S
Cd15 O14 2.223 . S
Cd15 O18 2.297 . S
Cd15 O19 2.439 . S
Cd15 O25 2.240 . S
Cd16 O17 2.240 . S
Cd16 O24 2.223 . S
Cd16 O26 2.297 . S
Cd16 O27 2.439 . S
O17 Cd16 2.240 . S
O17 C22 1.279 . S
O18 Cd15 2.297 . S
O18 C20 1.247 . S
O19 Cd15 2.439 . S
O19 C20 1.208 . S
C20 O18 1.247 . S
C20 O19 1.208 . S
C21 O26 1.247 . S
C21 O27 1.208 . S
C22 O14 1.315 . S
C22 O17 1.279 . S
C23 O24 1.315 . S
C23 O25 1.279 . S
O24 Cd16 2.223 . S
O24 C23 1.315 . S
O25 Cd15 2.240 . S
O25 C23 1.279 . S
O26 Cd16 2.297 . S
O26 C21 1.247 . S
O27 Cd16 2.439 . S
O27 C21 1.208 . S
O28 Cd29 2.223 . S
O28 C36 1.315 . S
Cd29 O28 2.223 . S
Cd29 O32 2.297 . S
Cd29 O33 2.439 . S
Cd29 O39 2.240 . S
Cd30 O31 2.240 . S
Cd30 O38 2.223 . S
Cd30 O40 2.297 1_554 S
Cd30 O41 2.439 1_554 S
O31 Cd30 2.240 . S
O31 C36 1.279 . S
O32 Cd29 2.297 . S
O32 C34 1.247 . S
O33 Cd29 2.439 . S
O33 C34 1.208 . S
C34 O32 1.247 . S
C34 O33 1.208 . S
C35 O40 1.247 . S
C35 O41 1.208 . S
C36 O28 1.315 . S
C36 O31 1.279 . S
C37 O38 1.315 . S
C37 O39 1.279 . S
O38 Cd30 2.223 . S
O38 C37 1.315 . S
O39 Cd29 2.240 . S
O39 C37 1.279 . S
O40 Cd30 2.297 1_556 S
O40 C35 1.247 . S
O41 Cd30 2.439 1_556 S
O41 C35 1.208 . S
O42 Cd43 2.223 . S
O42 C50 1.315 . S
Cd43 O42 2.223 . S
Cd43 O46 2.297 . S
Cd43 O47 2.439 . S
Cd43 O53 2.240 . S
Cd44 O45 2.240 . S
Cd44 O52 2.223 . S
Cd44 O54 2.297 . S
Cd44 O55 2.439 . S
O45 Cd44 2.240 . S
O45 C50 1.279 . S
O46 Cd43 2.297 . S
O46 C48 1.247 . S
O47 Cd43 2.439 . S
O47 C48 1.208 . S
C48 O46 1.247 . S
C48 O47 1.208 . S
C49 O54 1.247 . S
C49 O55 1.208 . S
C50 O42 1.315 . S
C50 O45 1.279 . S
C51 O52 1.315 . S
C51 O53 1.279 . S
O52 Cd44 2.223 . S
O52 C51 1.315 . S
O53 Cd43 2.240 . S
O53 C51 1.279 . S
O54 Cd44 2.297 . S
O54 C49 1.247 . S
O55 Cd44 2.439 . S
O55 C49 1.208 . S
O56 Cd57 2.223 . S
O56 C64 1.315 . S
Cd57 O56 2.223 . S
Cd57 O60 2.297 . S
Cd57 O61 2.439 . S
Cd57 O67 2.240 . S
Cd58 O59 2.240 . S
Cd58 O66 2.223 . S
Cd58 O68 2.297 . S
Cd58 O69 2.439 . S
O59 Cd58 2.240 . S
O59 C64 1.279 . S
O60 Cd57 2.297 . S
O60 C62 1.247 . S
O61 Cd57 2.439 . S
O61 C62 1.208 . S
C62 O60 1.247 . S
C62 O61 1.208 . S
C63 O68 1.247 . S
C63 O69 1.208 . S
C64 O56 1.315 . S
C64 O59 1.279 . S
C65 O66 1.315 . S
C65 O67 1.279 . S
O66 Cd58 2.223 . S
O66 C65 1.315 . S
O67 Cd57 2.240 . S
O67 C65 1.279 . S
O68 Cd58 2.297 . S
O68 C63 1.247 . S
O69 Cd58 2.439 . S
O69 C63 1.208 . S
O70 Cd71 2.223 . S
O70 C78 1.315 . S
Cd71 O70 2.223 . S
Cd71 O74 2.297 . S
Cd71 O75 2.439 1_556 S
Cd71 O81 2.240 1_556 S
Cd72 O73 2.240 1_554 S
Cd72 O80 2.223 . S
Cd72 O82 2.297 . S
Cd72 O83 2.439 . S
O73 Cd72 2.240 1_556 S
O73 C78 1.279 . S
O74 Cd71 2.297 . S
O74 C76 1.251 . S
O75 Cd71 2.439 1_554 S
O75 C76 1.206 1_554 S
C76 O74 1.251 . S
C76 O75 1.206 1_556 S
C77 O82 1.247 . S
C77 O83 1.208 . S
C78 O70 1.315 . S
C78 O73 1.279 . S
C79 O80 1.315 . S
C79 O81 1.279 . S
O80 Cd72 2.223 . S
O80 C79 1.315 . S
O81 Cd71 2.240 1_554 S
O81 C79 1.279 . S
O82 Cd72 2.297 . S
O82 C77 1.247 . S
O83 Cd72 2.439 . S
O83 C77 1.208 . S
O84 Cd85 2.223 . S
O84 C92 1.315 . S
Cd85 O84 2.223 . S
Cd85 O88 2.297 . S
Cd85 O89 2.439 . S
Cd85 O95 2.240 . S
Cd86 O87 2.240 . S
Cd86 O94 2.223 . S
Cd86 O96 2.297 . S
Cd86 O97 2.439 . S
O87 Cd86 2.240 . S
O87 C92 1.279 . S
O88 Cd85 2.297 . S
O88 C90 1.247 . S
O89 Cd85 2.439 . S
O89 C90 1.208 . S
C90 O88 1.247 . S
C90 O89 1.208 . S
C91 O96 1.247 . S
C91 O97 1.208 . S
C92 O84 1.315 . S
C92 O87 1.279 . S
C93 O94 1.315 . S
C93 O95 1.279 . S
O94 Cd86 2.223 . S
O94 C93 1.315 . S
O95 Cd85 2.240 . S
O95 C93 1.279 . S
O96 Cd86 2.297 . S
O96 C91 1.247 . S
O97 Cd86 2.439 . S
O97 C91 1.208 . S
O98 Cd99 2.223 . S
O98 C106 1.315 . S
Cd99 O98 2.223 . S
Cd99 O102 2.297 . S
Cd99 O103 2.439 1_556 S
Cd99 O109 2.240 1_556 S
Cd100 O101 2.240 1_554 S
Cd100 O108 2.223 . S
Cd100 O110 2.297 . S
Cd100 O111 2.439 . S
O101 Cd100 2.240 1_556 S
O101 C106 1.279 . S
O102 Cd99 2.297 . S
O102 C104 1.251 . S
O103 Cd99 2.439 1_554 S
O103 C104 1.206 1_554 S
C104 O102 1.251 . S
C104 O103 1.206 1_556 S
C105 O110 1.247 . S
C105 O111 1.208 . S
C106 O98 1.315 . S
C106 O101 1.279 . S
C107 O108 1.315 . S
C107 O109 1.279 . S
O108 Cd100 2.223 . S
O108 C107 1.315 . S
O109 Cd99 2.240 1_554 S
O109 C107 1.279 . S
O110 Cd100 2.297 . S
O110 C105 1.247 . S
O111 Cd100 2.439 . S
O111 C105 1.208 . S
C112 C113 1.369 . S
C112 C114 1.419 . S
C112 H116 0.930 . S
C113 C112 1.369 . S
C113 C122 1.429 . S
C114 C112 1.419 . S
C114 C115 1.363 . S
C114 H117 0.929 . S
C115 C114 1.363 . S
C115 C121 1.428 . S
H116 C112 0.930 . S
H117 C114 0.929 . S
S118 N119 1.613 . S
S118 N120 1.610 . S
N119 S118 1.613 . S
N119 C122 1.350 . S
N120 S118 1.610 . S
N120 C121 1.351 . S
C121 C115 1.428 . S
C121 N120 1.351 . S
C121 C122 1.434 . S
C122 C113 1.429 . S
C122 N119 1.350 . S
C122 C121 1.434 . S
C123 C124 1.369 . S
C123 C125 1.419 . S
C123 H127 0.930 . S
C124 C123 1.369 . S
C124 C133 1.429 . S
C125 C123 1.419 . S
C125 C126 1.363 . S
C125 H128 0.929 . S
C126 C125 1.363 . S
C126 C132 1.428 . S
H127 C123 0.930 . S
H128 C125 0.929 . S
S129 N130 1.613 . S
S129 N131 1.610 . S
N130 S129 1.613 . S
N130 C133 1.350 . S
N131 S129 1.610 . S
N131 C132 1.351 . S
C132 C126 1.428 . S
C132 N131 1.351 . S
C132 C133 1.434 . S
C133 C124 1.429 . S
C133 N130 1.350 . S
C133 C132 1.434 . S
C134 C135 1.369 . S
C134 C136 1.419 . S
C134 H138 0.930 . S
C135 C134 1.369 . S
C135 C144 1.429 . S
C136 C134 1.419 . S
C136 C137 1.363 . S
C136 H139 0.929 . S
C137 C136 1.363 . S
C137 C143 1.428 . S
H138 C134 0.930 . S
H139 C136 0.929 . S
S140 N141 1.613 . S
S140 N142 1.610 . S
N141 S140 1.613 . S
N141 C144 1.350 . S
N142 S140 1.610 . S
N142 C143 1.351 . S
C143 C137 1.428 . S
C143 N142 1.351 . S
C143 C144 1.434 . S
C144 C135 1.429 . S
C144 N141 1.350 . S
C144 C143 1.434 . S
C145 C146 1.369 . S
C145 C147 1.419 . S
C145 H149 0.930 . S
C146 C145 1.369 . S
C146 C155 1.429 . S
C147 C145 1.419 . S
C147 C148 1.363 . S
C147 H150 0.929 . S
C148 C147 1.363 . S
C148 C154 1.428 . S
H149 C145 0.930 . S
H150 C147 0.929 . S
S151 N152 1.613 . S
S151 N153 1.610 . S
N152 S151 1.613 . S
N152 C155 1.350 . S
N153 S151 1.610 . S
N153 C154 1.351 . S
C154 C148 1.428 . S
C154 N153 1.351 . S
C154 C155 1.434 . S
C155 C146 1.429 . S
C155 N152 1.350 . S
C155 C154 1.434 . S
C156 C157 1.369 . S
C156 C158 1.419 . S
C156 H160 0.930 . S
C157 C156 1.369 . S
C157 C166 1.429 . S
C158 C156 1.419 . S
C158 C159 1.363 . S
C158 H161 0.929 . S
C159 C158 1.363 . S
C159 C165 1.428 . S
H160 C156 0.930 . S
H161 C158 0.929 . S
S162 N163 1.613 . S
S162 N164 1.610 . S
N163 S162 1.613 . S
N163 C166 1.350 . S
N164 S162 1.610 . S
N164 C165 1.351 . S
C165 C159 1.428 . S
C165 N164 1.351 . S
C165 C166 1.434 . S
C166 C157 1.429 . S
C166 N163 1.350 . S
C166 C165 1.434 . S
C167 C168 1.369 . S
C167 C169 1.419 . S
C167 H171 0.930 . S
C168 C167 1.369 . S
C168 C177 1.429 . S
C169 C167 1.419 . S
C169 C170 1.363 . S
C169 H172 0.929 . S
C170 C169 1.363 . S
C170 C176 1.428 . S
H171 C167 0.930 . S
H172 C169 0.929 . S
S173 N174 1.613 . S
S173 N175 1.610 . S
N174 S173 1.613 . S
N174 C177 1.350 . S
N175 S173 1.610 . S
N175 C176 1.351 . S
C176 C170 1.428 . S
C176 N175 1.351 . S
C176 C177 1.434 . S
C177 C168 1.429 . S
C177 N174 1.350 . S
C177 C176 1.434 . S
C178 C179 1.369 . S
C178 C180 1.419 . S
C178 H182 0.930 . S
C179 C178 1.369 . S
C179 C188 1.429 . S
C180 C178 1.419 . S
C180 C181 1.363 . S
C180 H183 0.929 . S
C181 C180 1.363 . S
C181 C187 1.428 . S
H182 C178 0.930 . S
H183 C180 0.929 . S
S184 N185 1.613 . S
S184 N186 1.610 . S
N185 S184 1.613 . S
N185 C188 1.350 . S
N186 S184 1.610 . S
N186 C187 1.351 . S
C187 C181 1.428 . S
C187 N186 1.351 . S
C187 C188 1.434 . S
C188 C179 1.429 . S
C188 N185 1.350 . S
C188 C187 1.434 . S
C189 C190 1.369 . S
C189 C191 1.419 . S
C189 H193 0.930 . S
C190 C189 1.369 . S
C190 C199 1.429 . S
C191 C189 1.419 . S
C191 C192 1.363 . S
C191 H194 0.929 . S
C192 C191 1.363 . S
C192 C198 1.428 . S
H193 C189 0.930 . S
H194 C191 0.929 . S
S195 N196 1.613 . S
S195 N197 1.610 . S
N196 S195 1.613 . S
N196 C199 1.350 . S
N197 S195 1.610 . S
N197 C198 1.351 . S
C198 C192 1.428 . S
C198 N197 1.351 . S
C198 C199 1.434 . S
C199 C190 1.429 . S
C199 N196 1.350 . S
C199 C198 1.434 . S
C200 C201 1.369 . S
C200 C202 1.419 1_655 S
C200 H204 0.930 . S
C201 C200 1.369 . S
C201 C210 1.429 . S
C202 C200 1.419 1_455 S
C202 C203 1.363 . S
C202 H205 0.929 . S
C203 C202 1.363 . S
C203 C209 1.428 . S
H204 C200 0.930 . S
H205 C202 0.929 . S
S206 N207 1.613 . S
S206 N208 1.610 1_655 S
N207 S206 1.613 . S
N207 C210 1.350 1_556 S
N208 S206 1.610 1_455 S
N208 C209 1.351 1_556 S
C209 C203 1.428 . S
C209 N208 1.351 1_554 S
C209 C210 1.434 1_455 S
C210 C201 1.429 . S
C210 N207 1.350 1_554 S
C210 C209 1.434 1_655 S
C211 C212 1.369 . S
C211 C213 1.419 1_565 S
C211 H215 0.930 . S
C212 C211 1.369 . S
C212 C221 1.429 . S
C213 C211 1.419 1_545 S
C213 C214 1.363 . S
C213 H216 0.929 . S
C214 C213 1.363 . S
C214 C220 1.428 . S
H215 C211 0.930 . S
H216 C213 0.929 . S
S217 N218 1.613 . S
S217 N219 1.610 1_565 S
N218 S217 1.613 . S
N218 C221 1.350 . S
N219 S217 1.610 1_545 S
N219 C220 1.351 . S
C220 C214 1.428 . S
C220 N219 1.351 . S
C220 C221 1.434 1_545 S
C221 C212 1.429 . S
C221 N218 1.350 . S
C221 C220 1.434 1_565 S
C222 C223 1.378 . S
C222 C224 1.410 1_455 S
C222 H226 0.930 1_455 S
C223 C222 1.378 . S
C223 C232 1.429 . S
C224 C222 1.410 1_655 S
C224 C225 1.363 . S
C224 H227 0.929 . S
C225 C224 1.363 . S
C225 C231 1.428 1_655 S
H226 C222 0.930 1_655 S
H227 C224 0.929 . S
S228 N229 1.613 . S
S228 N230 1.610 . S
N229 S228 1.613 . S
N229 C232 1.350 . S
N230 S228 1.610 . S
N230 C231 1.351 . S
C231 C225 1.428 1_455 S
C231 N230 1.351 . S
C231 C232 1.434 . S
C232 C223 1.429 . S
C232 N229 1.350 . S
C232 C231 1.434 . S
C233 C234 1.369 . S
C233 C235 1.419 1_565 S
C233 H237 0.930 . S
C234 C233 1.369 . S
C234 C243 1.429 1_554 S
C235 C233 1.419 1_545 S
C235 C236 1.363 . S
C235 H238 0.929 . S
C236 C235 1.363 . S
C236 C242 1.428 1_554 S
H237 C233 0.930 . S
H238 C235 0.929 . S
S239 N240 1.613 1_545 S
S239 N241 1.610 . S
N240 S239 1.613 1_565 S
N240 C243 1.350 . S
N241 S239 1.610 . S
N241 C242 1.351 . S
C242 C236 1.428 1_556 S
C242 N241 1.351 . S
C242 C243 1.434 1_545 S
C243 C234 1.429 1_556 S
C243 N240 1.350 . S
C243 C242 1.434 1_565 S
C244 C245 1.369 . S
C244 C246 1.419 . S
C244 H248 0.930 . S
C245 C244 1.369 . S
C245 C254 1.429 . S
C246 C244 1.419 . S
C246 C247 1.363 . S
C246 H249 0.929 . S
C247 C246 1.363 . S
C247 C253 1.428 . S
H248 C244 0.930 . S
H249 C246 0.929 . S
S250 N251 1.613 1_556 S
S250 N252 1.610 . S
N251 S250 1.613 1_554 S
N251 C254 1.350 . S
N252 S250 1.610 . S
N252 C253 1.351 1_556 S
C253 C247 1.428 . S
C253 N252 1.351 1_554 S
C253 C254 1.434 . S
C254 C245 1.429 . S
C254 N251 1.350 . S
C254 C253 1.434 . S
C255 C256 1.369 . S
C255 C257 1.419 . S
C255 H259 0.930 . S
C256 C255 1.369 . S
C256 C265 1.429 . S
C257 C255 1.419 . S
C257 C258 1.363 . S
C257 H260 0.929 . S
C258 C257 1.363 . S
C258 C264 1.428 . S
H259 C255 0.930 . S
H260 C257 0.929 . S
S261 N262 1.613 . S
S261 N263 1.610 . S
N262 S261 1.613 . S
N262 C265 1.350 . S
N263 S261 1.610 . S
N263 C264 1.351 . S
C264 C258 1.428 . S
C264 N263 1.351 . S
C264 C265 1.434 . S
C265 C256 1.429 . S
C265 N262 1.350 . S
C265 C264 1.434 . S
C266 C267 1.369 . S
C266 C268 1.419 . S
C266 H270 0.930 . S
C267 C266 1.369 . S
C267 C276 1.429 . S
C268 C266 1.419 . S
C268 C269 1.363 . S
C268 H271 0.929 . S
C269 C268 1.363 . S
C269 C275 1.428 . S
H270 C266 0.930 . S
H271 C268 0.929 . S
S272 N273 1.613 . S
S272 N274 1.610 . S
N273 S272 1.613 . S
N273 C276 1.350 . S
N274 S272 1.610 . S
N274 C275 1.351 . S
C275 C269 1.428 . S
C275 N274 1.351 . S
C275 C276 1.434 . S
C276 C267 1.429 . S
C276 N273 1.350 . S
C276 C275 1.434 . S
C277 C278 1.369 . S
C277 C279 1.419 . S
C277 H281 0.930 . S
C278 C277 1.369 . S
C278 C287 1.429 . S
C279 C277 1.419 . S
C279 C280 1.363 . S
C279 H282 0.929 . S
C280 C279 1.363 . S
C280 C286 1.428 . S
H281 C277 0.930 . S
H282 C279 0.929 . S
S283 N284 1.613 . S
S283 N285 1.610 . S
N284 S283 1.613 . S
N284 C287 1.350 . S
N285 S283 1.610 . S
N285 C286 1.351 . S
C286 C280 1.428 . S
C286 N285 1.351 . S
C286 C287 1.434 . S
C287 C278 1.429 . S
C287 N284 1.350 . S
C287 C286 1.434 . S
C113 C8 1.679 . S
C115 C64 1.685 . S
C124 C22 1.686 . S
C126 C78 1.681 . S
C135 C92 1.679 . S
C137 C36 1.685 . S
C146 C106 1.684 . S
C148 C50 1.683 . S
C157 C91 1.192 . S
C159 C35 1.192 . S
C168 C105 1.192 . S
C170 C49 1.192 . S
C179 C7 1.191 . S
C181 C63 1.191 . S
C190 C21 1.191 . S
C192 C77 1.191 . S
C201 C37 1.320 . S
C203 C9 1.331 . S
C212 C51 1.321 . S
C214 C23 1.328 . S
C223 C65 1.322 . S
C225 C93 1.332 . S
C234 C107 1.333 . S
C236 C79 1.324 . S
C245 C6 1.557 . S
C247 C76 1.558 1_554 S
C256 C90 1.557 . S
C258 C20 1.559 . S
C267 C34 1.557 . S
C269 C104 1.554 1_554 S
C278 C48 1.560 . S
C280 C62 1.556 . S
