# Generated by pormake.
# Topology rkf, (6)-cn, num edge types: 1
# Building blocks:
#     Node 0, Type 0, BuildingBlock: PAMTOO_clean_sbu_0, # of connection points: 6
#     Node 1, Type 0, BuildingBlock: PAMTOO_clean_sbu_0, # of connection points: 6
#     Node 2, Type 0, BuildingBlock: PAMTOO_clean_sbu_0, # of connection points: 6
#     Node 3, Type 0, BuildingBlock: PAMTOO_clean_sbu_0, # of connection points: 6
#     Node 4, Type 0, BuildingBlock: PAMTOO_clean_sbu_0, # of connection points: 6
#     Node 5, Type 0, BuildingBlock: PAMTOO_clean_sbu_0, # of connection points: 6
#     Edge 6, Type (0, 0), BuildingBlock: XIVTED_clean_linker_0, # of connection points: 2
#     Edge 7, Type (0, 0), BuildingBlock: XIVTED_clean_linker_0, # of connection points: 2
#     Edge 8, Type (0, 0), BuildingBlock: XIVTED_clean_linker_0, # of connection points: 2
#     Edge 9, Type (0, 0), BuildingBlock: XIVTED_clean_linker_0, # of connection points: 2
#     Edge 10, Type (0, 0), BuildingBlock: XIVTED_clean_linker_0, # of connection points: 2
#     Edge 11, Type (0, 0), BuildingBlock: XIVTED_clean_linker_0, # of connection points: 2
#     Edge 12, Type (0, 0), BuildingBlock: XIVTED_clean_linker_0, # of connection points: 2
#     Edge 13, Type (0, 0), BuildingBlock: XIVTED_clean_linker_0, # of connection points: 2
#     Edge 14, Type (0, 0), BuildingBlock: XIVTED_clean_linker_0, # of connection points: 2
#     Edge 15, Type (0, 0), BuildingBlock: XIVTED_clean_linker_0, # of connection points: 2
#     Edge 16, Type (0, 0), BuildingBlock: XIVTED_clean_linker_0, # of connection points: 2
#     Edge 17, Type (0, 0), BuildingBlock: XIVTED_clean_linker_0, # of connection points: 2
#     Edge 18, Type (0, 0), BuildingBlock: XIVTED_clean_linker_0, # of connection points: 2
#     Edge 19, Type (0, 0), BuildingBlock: XIVTED_clean_linker_0, # of connection points: 2
#     Edge 20, Type (0, 0), BuildingBlock: XIVTED_clean_linker_0, # of connection points: 2
#     Edge 21, Type (0, 0), BuildingBlock: XIVTED_clean_linker_0, # of connection points: 2
#     Edge 22, Type (0, 0), BuildingBlock: XIVTED_clean_linker_0, # of connection points: 2
#     Edge 23, Type (0, 0), BuildingBlock: XIVTED_clean_linker_0, # of connection points: 2
# Relax obj value: 0.804
# Max RMSD: 0.267
# Mean RMSD: 0.267
data_MOF--net-rkf--node1-PAMTOO_clean_sbu_0--edge1-XIVTED_clean_linker_0
_symmetry_space_group_name_H-M    P1
_symmetry_Int_Tables_number       1
_symmetry_cell_setting            triclinic
loop_
_symmetry_equiv_pos_as_xyz
'x, y, z'
_cell_length_a     25.919903
_cell_length_b     26.047791
_cell_length_c     44.057337
_cell_angle_alpha  90.303078
_cell_angle_beta   89.274346
_cell_angle_gamma 120.49715
loop_
_atom_site_label
_atom_site_type_symbol
_atom_site_fract_x
_atom_site_fract_y
_atom_site_fract_z
_atom_type_partial_charge
Dy0 Dy 0.19205 -0.01049 0.1723 0.0
Dy1 Dy 0.23717 0.12393 0.14692 0.0
C2 C 0.10085 0.01728 1.13735 0.0
O3 O 0.19828 0.98445 1.12009 0.0
O4 O 0.2093 0.07313 1.10284 0.0
O5 O 0.13401 0.90614 0.19494 0.0
O6 O 0.21566 0.92102 0.17242 0.0
O7 O 0.31116 0.10492 0.14466 0.0
O8 O 0.28522 0.05057 0.1875 0.0
O9 O 0.2337 0.13038 0.19808 0.0
O10 O 0.17801 0.03328 0.2141 0.0
O11 O 0.3132 0.20423 1.1297 0.0
O12 O 0.23286 0.20461 0.14413 0.0
C13 C 0.19756 0.0182 1.09766 0.0
O14 O 0.11016 0.9791 0.15194 0.0
O15 O 0.1402 0.07478 1.13572 0.0
C16 C 0.17964 0.85447 0.21394 0.0
C17 C 0.18727 0.7907 0.26345 0.0
C18 C 0.16671 0.76277 0.23519 0.0
C19 C 0.16291 0.79446 0.21065 0.0
C20 C 0.20312 0.88351 0.24152 0.0
C21 C 0.20692 0.85189 0.26609 0.0
C22 C 0.16907 0.88481 0.18893 0.0
C23 C 0.32652 0.08756 0.16878 0.0
C24 C 0.20454 0.09113 0.21977 0.0
C25 C 0.30089 0.28212 1.11012 0.0
C26 C 0.3341 0.3815 1.07238 0.0
C27 C 0.37614 0.36501 1.07996 0.0
C28 C 0.35974 0.316 1.09875 0.0
C29 C 0.2586 0.29815 1.10233 0.0
C30 C 0.27503 0.34727 1.08356 0.0
C31 C 0.28715 0.23559 1.13294 0.0
H32 H 0.1517 0.71595 0.23232 0.0
H33 H 0.14504 0.77155 0.18937 0.0
H34 H 0.21636 0.92994 0.24437 0.0
H35 H 0.22204 0.87465 0.28762 0.0
H36 H 0.42201 0.39065 1.07185 0.0
H37 H 0.39362 0.30543 1.10498 0.0
H38 H 0.21311 0.27341 1.11106 0.0
H39 H 0.24128 0.35817 1.07762 0.0
Dy40 Dy 0.23195 0.35482 0.48481 0.0
Dy41 Dy 0.20156 0.22339 0.50424 0.0
C42 C 0.09808 0.25365 0.48828 0.0
O43 O 0.18394 0.33554 0.53075 0.0
O44 O 0.21237 0.27172 0.54864 0.0
O45 O 0.24251 0.44002 0.49694 0.0
O46 O 0.26917 0.42727 0.45231 0.0
O47 O 0.3004 0.27726 0.49461 0.0
O48 O 0.31062 0.36513 0.50966 0.0
O49 O 0.17584 0.21412 0.45536 0.0
O50 O 0.24336 0.30963 0.44207 0.0
O51 O 0.20033 0.14265 0.49162 0.0
O52 O 0.17097 0.15121 0.53652 0.0
C53 C 0.18965 0.3063 0.55365 0.0
O54 O 0.1363 0.30127 0.4732 0.0
O55 O 0.11407 0.22125 0.5041 0.0
C56 C 0.22633 0.48761 0.45627 0.0
C57 C 0.16194 0.52814 0.42289 0.0
C58 C 0.13178 0.47433 0.43934 0.0
C59 C 0.16368 0.45425 0.45578 0.0
C60 C 0.2566 0.54317 0.44176 0.0
C61 C 0.22462 0.56346 0.42524 0.0
C62 C 0.25987 0.46224 0.46986 0.0
C63 C 0.33398 0.33194 0.50419 0.0
C64 C 0.20866 0.25286 0.43433 0.0
C65 C 0.21894 0.09536 0.53145 0.0
C66 C 0.28366 0.04819 0.55871 0.0
C67 C 0.30948 0.11018 0.55524 0.0
C68 C 0.27734 0.1336 0.54167 0.0
C69 C 0.19391 0.03368 0.53376 0.0
C70 C 0.22593 0.01023 0.54727 0.0
C71 C 0.18352 0.1191 0.5185 0.0
H72 H 0.08377 0.44523 0.43771 0.0
H73 H 0.13953 0.4112 0.46688 0.0
H74 H 0.30505 0.56963 0.44212 0.0
H75 H 0.24916 0.60527 0.41307 0.0
H76 H 0.35394 0.14056 0.56363 0.0
H77 H 0.29749 0.18148 0.53969 0.0
H78 H 0.14898 0.00364 0.52579 0.0
H79 H 0.20416 0.96238 0.55005 0.0
Dy80 Dy 0.02211 0.35014 0.83241 0.0
Dy81 Dy 0.91675 0.21872 0.81465 0.0
C82 C 0.05105 0.24811 0.82998 0.0
O83 O 0.04757 0.33057 0.78597 0.0
O84 O 0.95357 0.26441 0.76925 0.0
O85 O 0.10612 0.42976 0.82263 0.0
O86 O 0.05088 0.42928 0.85991 0.0
O87 O 0.87614 0.2754 0.82451 0.0
O88 O 0.95499 0.3588 0.8056 0.0
O89 O 0.93346 0.21009 0.86359 0.0
O90 O 0.96768 0.30689 0.87621 0.0
O91 O 0.83203 0.14217 0.82772 0.0
O92 O 0.87397 0.14257 0.78485 0.0
C93 C 0.0113 0.30007 0.7636 0.0
O94 O 0.06177 0.29577 0.84515 0.0
O95 O 0.00168 0.216 0.81442 0.0
C96 C 0.15574 0.48786 0.8653 0.0
C97 C 0.2525 0.53916 0.90568 0.0
C98 C 0.24239 0.49064 0.88732 0.0
C99 C 0.19431 0.46503 0.86747 0.0
C100 C 0.1673 0.53806 0.88244 0.0
C101 C 0.21522 0.56344 0.9026 0.0
C102 C 0.10258 0.45863 0.84599 0.0
C103 C 0.89853 0.32881 0.81313 0.0
C104 C 0.94246 0.25006 0.88432 0.0
C105 C 0.76755 0.08996 0.78742 0.0
C106 C 0.65542 0.03357 0.7586 0.0
C107 C 0.6605 0.01911 0.7887 0.0
C108 C 0.71611 0.04688 0.8029 0.0
C109 C 0.76218 0.10697 0.75801 0.0
C110 C 0.70674 0.07891 0.74372 0.0
C111 C 0.82622 0.11494 0.80205 0.0
H112 H 0.26934 0.46995 0.88964 0.0
H113 H 0.18621 0.42614 0.85457 0.0
H114 H 0.13815 0.55646 0.88091 0.0
H115 H 0.22188 0.60066 0.91654 0.0
H116 H 0.62187 -0.01498 0.80098 0.0
H117 H 0.71923 0.03359 0.82575 0.0
H118 H 0.80107 0.14053 0.74565 0.0
H119 H 0.70499 0.09067 0.72037 0.0
Dy120 Dy 0.70806 -0.01307 0.15085 0.0
Dy121 Dy 0.82789 0.11316 0.17124 0.0
C122 C 0.83134 0.00605 1.14051 0.0
O123 O 0.71192 0.97953 0.20219 0.0
O124 O 0.80924 0.05281 0.21197 0.0
O125 O 0.66945 0.89993 1.1309 0.0
O126 O 0.61169 0.92819 0.15196 0.0
O127 O 0.7469 0.1135 0.18833 0.0
O128 O 0.68822 0.06017 0.14878 0.0
O129 O 0.81328 0.12735 1.12205 0.0
O130 O 0.7495 0.03169 1.10522 0.0
O131 O 0.87525 0.20828 0.16729 0.0
O132 O 0.9129 0.16567 0.19406 0.0
C133 C 0.75844 0.00517 0.22058 0.0
O134 O 0.78491 0.97488 0.15785 0.0
O135 O 0.85663 0.06409 1.14034 0.0
C136 C 0.57254 0.85814 1.11176 0.0
C137 C 0.50737 0.79371 1.06063 0.0
C138 C 0.49353 0.76686 1.08949 0.0
C139 C 0.52605 0.79887 1.11485 0.0
C140 C 0.58338 0.88662 1.08359 0.0
C141 C 0.551 0.85471 1.05823 0.0
C142 C 0.61448 0.88643 1.13676 0.0
C143 C 0.70187 0.09931 0.17042 0.0
C144 C 0.78723 0.08911 1.0996 0.0
C145 C 0.93117 0.26098 0.2094 0.0
C146 C 0.95891 0.35429 0.25068 0.0
C147 C 0.89895 0.31029 0.24548 0.0
C148 C 0.88521 0.26394 0.22505 0.0
C149 C -0.00915 0.30445 0.21455 0.0
C150 C 0.00467 0.35057 0.23507 0.0
C151 C 0.91732 0.21593 0.18585 0.0
H152 H 0.45988 0.72024 1.09219 0.0
H153 H 0.5172 0.7763 1.13653 0.0
H154 H 0.61942 0.93232 1.08082 0.0
H155 H 0.56366 0.87678 1.03636 0.0
H156 H 0.86263 0.31187 0.25699 0.0
H157 H 0.8387 0.23092 0.22113 0.0
H158 H 0.02681 0.30298 0.20253 0.0
H159 H 0.05138 0.38271 0.23907 0.0
Dy160 Dy 0.70115 0.78637 0.49936 0.0
Dy161 Dy 0.82807 0.80279 0.47711 0.0
C162 C 0.81005 0.91286 0.49498 0.0
O163 O 0.71755 0.8313 0.45306 0.0
O164 O 0.78327 0.80524 0.43346 0.0
O165 O 0.62946 0.80476 0.49576 0.0
O166 O 0.61812 0.73215 0.52435 0.0
O167 O 0.7671 0.70722 0.49004 0.0
O168 O 0.68719 0.70852 0.47187 0.0
O169 O 0.83946 0.80743 0.52775 0.0
O170 O 0.74393 0.78009 0.54378 0.0
O171 O 0.92474 0.84389 0.47938 0.0
O172 O 0.8739 0.77807 0.44468 0.0
C173 C 0.74781 0.8273 0.42969 0.0
O174 O 0.76615 0.87796 0.51322 0.0
O175 O 0.83533 0.89219 0.47637 0.0
C176 C 0.56858 0.78367 0.53949 0.0
C177 C 0.51713 0.81917 0.58569 0.0
C178 C 0.56959 0.86146 0.57045 0.0
C179 C 0.59522 0.8439 0.5477 0.0
C180 C 0.51539 0.74145 0.55407 0.0
C181 C 0.48998 0.75898 0.57714 0.0
C182 C 0.59557 0.76451 0.51572 0.0
C183 C 0.71291 0.67861 0.47932 0.0
C184 C 0.79963 0.79347 0.54977 0.0
C185 C 0.964 0.78484 0.45998 0.0
C186 C 0.03351 0.73192 0.44767 0.0
C187 C 0.97357 0.6968 0.45752 0.0
C188 C 0.93894 0.72307 0.46352 0.0
C189 C 0.02532 0.82051 0.45391 0.0
C190 C 0.05988 0.79442 0.44789 0.0
C191 C 0.92616 0.81156 0.457 0.0
H192 H 0.59246 0.90795 0.57702 0.0
H193 H 0.63647 0.87737 0.53692 0.0
H194 H 0.49403 0.69479 0.54792 0.0
H195 H 0.44975 0.72545 0.58863 0.0
H196 H 0.95214 0.6487 0.45822 0.0
H197 H 0.89166 0.69473 0.46863 0.0
H198 H 0.04549 0.86827 0.45123 0.0
H199 H 0.10565 0.82328 0.4403 0.0
Dy200 Dy 0.0337 0.7997 0.81971 0.0
Dy201 Dy 0.92452 0.8215 0.83755 0.0
C202 C 0.05756 0.92942 0.82191 0.0
O203 O 0.05598 0.83816 0.86764 0.0
O204 O 0.96458 0.8237 0.88338 0.0
O205 O 0.12326 0.81616 0.82498 0.0
O206 O 0.06287 0.74713 0.79433 0.0
O207 O 0.88653 0.7233 0.83146 0.0
O208 O 0.96862 0.72249 0.84761 0.0
O209 O 0.94002 0.84321 0.78781 0.0
O210 O -0.02126 0.78406 0.77625 0.0
O211 O 0.84271 0.81661 0.82297 0.0
O212 O 0.87588 0.84721 0.86815 0.0
C213 C 0.02064 0.83936 0.88926 0.0
O214 O 0.06887 0.89344 0.80626 0.0
O215 O 0.00792 0.91068 0.83782 0.0
C216 C 0.16508 0.80256 0.7802 0.0
C217 C 0.25091 0.84695 0.7328 0.0
C218 C 0.23568 0.88472 0.74844 0.0
C219 C 0.19305 0.86273 0.77175 0.0
C220 C 0.18137 0.76496 0.76541 0.0
C221 C 0.22384 0.78691 0.74176 0.0
C222 C 0.11786 0.77878 0.80376 0.0
C223 C 0.91136 0.69443 0.84226 0.0
C224 C 0.95087 0.81244 0.76765 0.0
C225 C 0.77041 0.79429 0.86159 0.0
C226 C 0.65366 0.73416 0.88687 0.0
C227 C 0.66424 0.76003 0.85782 0.0
C228 C 0.72213 0.79004 0.8454 0.0
C229 C 0.7595 0.76532 0.88971 0.0
C230 C 0.70182 0.73577 0.90225 0.0
C231 C 0.83177 0.83145 0.84946 0.0
H232 H 0.25437 0.93077 0.74164 0.0
H233 H 0.18088 0.89257 0.78263 0.0
H234 H 0.16025 0.71838 0.77168 0.0
H235 H 0.23448 0.75674 0.73003 0.0
H236 H 0.62821 0.75895 0.84513 0.0
H237 H 0.7295 0.81158 0.8235 0.0
H238 H 0.79581 0.76735 0.90258 0.0
H239 H 0.69591 0.7173 0.92484 0.0
H240 H 0.8029 0.88961 1.13662 0.0
H241 H 0.01713 0.89969 1.12839 0.0
H242 H 0.86981 0.04884 1.08284 0.0
H243 H 0.07517 0.07626 1.09458 0.0
H244 H 0.93208 0.85965 1.09462 0.0
H245 H 0.84055 0.84905 1.09797 0.0
C246 C 0.82655 0.91648 1.11696 0.0
C247 C 0.84172 0.97618 1.11495 0.0
C248 C 0.9633 0.90718 1.09451 0.0
C249 C 0.88978 0.93323 1.07346 0.0
C250 C 0.0114 0.93033 1.11429 0.0
C251 C 0.04998 -0.00773 1.11654 0.0
C252 C 0.95192 0.94668 1.0783 0.0
C253 C 0.04357 0.02884 1.09567 0.0
C254 C 0.84718 0.89311 1.09454 0.0
C255 C 0.86493 0.0058 1.08724 0.0
N256 N -0.00519 0.0056 1.07781 0.0
N257 N 0.88711 0.98281 1.06669 0.0
H258 H 0.84226 0.97738 0.44308 0.0
H259 H 0.02519 0.22912 0.53706 0.0
H260 H 0.80323 -0.0144 0.53778 0.0
H261 H 0.02823 0.23838 0.43947 0.0
H262 H 0.91712 0.164 0.53626 0.0
H263 H 0.87712 0.08278 0.43806 0.0
C264 C 0.84117 0.00172 0.46286 0.0
C265 C 0.82391 0.9743 0.49135 0.0
C266 C 0.94067 0.18156 0.51491 0.0
C267 C 0.865 0.09508 0.48607 0.0
C268 C 0.00245 0.21851 0.51547 0.0
C269 C 0.03496 0.23545 0.48819 0.0
C270 C 0.91301 0.1583 0.48691 0.0
C271 C 0.00421 0.22337 0.46089 0.0
C272 C 0.86002 0.06176 0.45993 0.0
C273 C 0.81943 0.00636 0.51579 0.0
N274 N 0.9446 0.18338 0.46078 0.0
N275 N 0.84188 0.06583 0.51287 0.0
H276 H 0.12444 0.00342 0.77541 0.0
H277 H 0.11925 0.24402 0.8757 0.0
H278 H 0.09435 -0.00216 0.87206 0.0
H279 H 0.08919 0.2181 0.77945 0.0
H280 H 0.17418 0.1902 0.87323 0.0
H281 H 0.17593 0.11261 0.77727 0.0
C282 C 0.13047 0.02545 0.79711 0.0
C283 C 0.10258 -0.0074 0.82335 0.0
C284 C 0.15758 0.19838 0.85245 0.0
C285 C 0.16063 0.11564 0.82571 0.0
C286 C 0.12591 0.22852 0.85395 0.0
C287 C 0.09719 0.23188 0.82804 0.0
C288 C 0.15923 0.17135 0.82498 0.0
C289 C 0.10832 0.21317 0.80018 0.0
C290 C 0.16016 0.08753 0.79825 0.0
C291 C 0.11284 0.02235 0.8511 0.0
N292 N 0.13748 0.18241 0.79945 0.0
N293 N 0.14001 0.08246 0.85151 0.0
H294 H 0.40305 0.41187 1.02066 0.0
H295 H 0.36688 0.55748 0.90565 0.0
H296 H 0.30334 0.46757 1.07725 0.0
H297 H 0.23317 0.55849 0.9645 0.0
H298 H 0.41716 0.54887 0.95009 0.0
H299 H 0.41353 0.48298 0.9824 0.0
C300 C 0.38474 0.44038 1.02538 0.0
C301 C 0.35068 0.4325 1.05178 0.0
C302 C 0.37705 0.55126 0.95344 0.0
C303 C 0.36233 0.51477 1.00782 0.0
C304 C 0.3488 0.55702 0.92802 0.0
C305 C 0.29439 0.55607 0.93136 0.0
C306 C 0.34964 0.5431 0.98217 0.0
C307 C 0.27424 0.55792 0.96079 0.0
C308 C 0.39093 0.48155 1.00342 0.0
C309 C 0.32812 0.47073 1.0567 0.0
N310 N 0.30095 0.54966 0.98502 0.0
N311 N 0.33328 0.50931 1.03465 0.0
H312 H 0.04763 0.51094 0.42528 0.0
H313 H 0.90476 0.34432 0.30597 0.0
H314 H 0.20089 0.5717 0.36547 0.0
H315 H 0.04864 0.47194 0.24851 0.0
H316 H 0.94408 0.41411 0.34767 0.0
H317 H -0.01571 0.4907 0.38102 0.0
C318 C 0.06821 0.5212 0.40289 0.0
C319 C 0.12912 0.53979 0.39902 0.0
C320 C 0.96611 0.42825 0.32576 0.0
C321 C 0.05693 0.51536 0.34843 0.0
C322 C 0.94358 0.38788 0.30178 0.0
C323 C -0.02556 0.40145 0.27387 0.0
C324 C 0.02041 0.48238 0.32194 0.0
C325 C 0.02469 0.45866 0.27 0.0
C326 C 0.03189 0.50906 0.37761 0.0
C327 C 0.15389 0.55554 0.36966 0.0
N328 N 0.04702 0.49638 0.29399 0.0
N329 N 0.11739 0.54134 0.34541 0.0
H330 H 0.57899 0.91273 0.76234 0.0
H331 H 0.50417 0.91685 0.59275 0.0
H332 H 0.60452 0.06861 0.71476 0.0
H333 H 0.48433 0.76404 0.64093 0.0
H334 H 0.50302 0.96231 0.64124 0.0
H335 H 0.50743 0.85017 0.72431 0.0
C336 C 0.56833 0.93403 0.74444 0.0
C337 C 0.59979 -0.0037 0.74115 0.0
C338 C 0.49724 0.91811 0.64121 0.0
C339 C 0.51915 0.92443 0.69675 0.0
C340 C 0.49798 0.89221 0.61353 0.0
C341 C 0.49657 0.83762 0.61295 0.0
C342 C 0.49635 0.88964 0.66837 0.0
C343 C 0.48671 0.80673 0.64036 0.0
C344 C 0.52752 0.89804 0.7225 0.0
C345 C 0.58337 0.02082 0.71746 0.0
N346 N 0.48868 0.83392 0.66704 0.0
N347 N 0.54545 -0.01513 0.69566 0.0
H348 H 0.49107 0.68242 1.05046 0.0
H349 H 0.58054 0.78184 0.88421 0.0
H350 H 0.47448 0.82103 1.00657 0.0
H351 H 0.59411 0.64054 0.92711 0.0
H352 H 0.50545 0.76892 0.92164 0.0
H353 H 0.49005 0.64007 1.00105 0.0
C354 C 0.48509 0.70295 1.03054 0.0
C355 C 0.48544 0.757 1.03264 0.0
C356 C 0.52371 0.73966 0.92251 0.0
C357 C 0.4864 0.70962 0.97582 0.0
C358 C 0.56657 0.74672 0.90088 0.0
C359 C 0.5958 0.71392 0.90318 0.0
C360 C 0.51107 0.70063 0.94703 0.0
C361 C 0.57493 0.66885 0.9253 0.0
C362 C 0.48499 0.67884 1.00218 0.0
C363 C 0.47701 0.78082 1.00593 0.0
N364 N 0.53518 0.66475 0.94693 0.0
N365 N 0.47963 0.75801 0.97855 0.0
H366 H -0.01756 0.63578 0.40928 0.0
H367 H 0.26386 0.82002 0.31166 0.0
H368 H 0.15377 0.76685 0.44533 0.0
H369 H 0.09399 0.67999 0.27858 0.0
H370 H 0.23663 0.7754 0.36221 0.0
H371 H 0.03296 0.62244 0.36612 0.0
C372 C 0.03091 0.6602 0.40891 0.0
C373 C 0.06368 0.70504 0.43031 0.0
C374 C 0.20598 0.75339 0.34372 0.0
C375 C 0.12186 0.69125 0.37998 0.0
C376 C 0.22141 0.77912 0.31486 0.0
C377 C 0.18019 0.75513 0.29111 0.0
C378 C 0.14846 0.70408 0.34893 0.0
C379 C 0.12682 0.70089 0.29628 0.0
C380 C 0.05992 0.65283 0.38388 0.0
C381 C 0.12647 0.73409 0.42852 0.0
N382 N 0.11182 0.67814 0.3248 0.0
N383 N 0.15352 0.72837 0.40316 0.0
H384 H 0.23072 0.7905 0.67805 0.0
H385 H 0.28881 0.94621 0.54922 0.0
H386 H 0.35422 0.95421 0.72315 0.0
H387 H 0.34431 0.09267 0.61171 0.0
H388 H 0.31151 0.89311 0.58745 0.0
H389 H 0.26844 0.83901 0.62946 0.0
C390 C 0.26767 0.83609 0.67774 0.0
C391 C 0.28786 0.86898 0.70468 0.0
C392 C 0.31915 0.93701 0.59275 0.0
C393 C 0.33116 0.92568 0.64882 0.0
C394 C 0.30649 0.96751 0.57085 0.0
C395 C 0.31248 0.02301 0.57768 0.0
C396 C 0.33681 0.96189 0.62183 0.0
C397 C 0.33794 0.04957 0.60554 0.0
C398 C 0.28943 0.86414 0.64975 0.0
C399 C 0.33587 0.92787 0.70282 0.0
N400 N 0.34786 0.0182 0.62681 0.0
N401 N 0.35462 0.9549 0.67535 0.0
H402 H 0.37496 0.06211 0.21718 0.0
H403 H 0.6665 0.14716 1.12731 0.0
H404 H 0.42244 0.1613 1.13314 0.0
H405 H 0.64954 0.10693 0.22292 0.0
H406 H 0.58393 0.16625 1.13155 0.0
H407 H 0.47934 0.0889 0.22281 0.0
C408 C 0.40745 0.09 0.20008 0.0
C409 C 0.38988 0.10817 0.17423 0.0
C410 C 0.599 0.15473 0.15185 0.0
C411 C 0.50893 0.13911 0.18059 0.0
C412 C 0.64605 0.14387 0.14938 0.0
C413 C 0.66374 0.12493 0.17475 0.0
C414 C 0.56829 0.14439 0.17969 0.0
C415 C 0.63655 0.12136 0.2029 0.0
C416 C 0.46708 0.10572 0.20345 0.0
C417 C 0.43385 0.14518 0.15308 0.0
N418 N 0.58876 0.12944 0.20452 0.0
N419 N 0.49124 0.1586 0.15648 0.0
H420 H 0.40939 0.399 0.54887 0.0
H421 H 0.643 0.6042 0.43503 0.0
H422 H 0.40673 0.33494 0.45824 0.0
H423 H 0.69483 0.60655 0.52776 0.0
H424 H 0.56036 0.50182 0.44215 0.0
H425 H 0.51662 0.47035 0.54287 0.0
C426 C 0.43205 0.39874 0.52808 0.0
C427 C 0.39964 0.36127 0.50402 0.0
C428 C 0.59092 0.5239 0.46068 0.0
C429 C 0.52124 0.4441 0.4965 0.0
C430 C 0.63801 0.58222 0.45659 0.0
C431 C 0.67552 0.61337 0.48083 0.0
C432 C 0.57997 0.49764 0.48956 0.0
C433 C 0.66696 0.58357 0.50848 0.0
C434 C 0.49314 0.4394 0.52464 0.0
C435 C 0.43054 0.36295 0.47737 0.0
N436 N 0.61889 0.52778 0.51241 0.0
N437 N 0.48945 0.40505 0.47394 0.0
H438 H 0.8872 0.39601 0.76988 0.0
H439 H 0.9156 0.6223 0.88522 0.0
H440 H 0.84329 0.34081 0.86321 0.0
H441 H 0.83763 0.6188 0.79887 0.0
H442 H 0.88409 0.51694 0.87893 0.0
H443 H 0.8629 0.47425 0.77906 0.0
C444 C 0.87029 0.39914 0.79201 0.0
C445 C 0.86689 0.36209 0.81581 0.0
C446 C 0.87216 0.53865 0.8618 0.0
C447 C 0.84179 0.45269 0.82683 0.0
C448 C 0.8902 0.59868 0.86537 0.0
C449 C 0.87915 0.62891 0.8425 0.0
C450 C 0.84508 0.50956 0.83464 0.0
C451 C 0.84662 0.59673 0.81706 0.0
C452 C 0.85653 0.44373 0.79727 0.0
C453 C 0.84583 0.36833 0.84425 0.0
N454 N 0.83222 0.53908 0.81334 0.0
N455 N 0.83577 0.41412 0.84927 0.0
H456 H 0.26023 0.20806 0.23925 0.0
H457 H 0.14523 0.1372 0.41347 0.0
H458 H 0.14854 0.02965 0.27363 0.0
H459 H 0.26864 0.31465 0.38112 0.0
H460 H 0.1436 0.09824 0.36267 0.0
H461 H 0.26128 0.24741 0.28993 0.0
C462 C 0.23566 0.17675 0.25733 0.0
C463 C 0.20413 0.1148 0.25149 0.0
C464 C 0.17106 0.14572 0.3665 0.0
C465 C 0.20529 0.16088 0.31083 0.0
C466 C 0.17205 0.16841 0.39576 0.0
C467 C 0.20717 0.22994 0.40222 0.0
C468 C 0.2053 0.1843 0.34271 0.0
C469 C 0.24074 0.26711 0.3777 0.0
C470 C 0.23645 0.19964 0.28653 0.0
C471 C 0.17353 0.07751 0.27651 0.0
N472 N 0.23889 0.24388 0.34933 0.0
N473 N 0.17485 0.10097 0.30475 0.0
H474 H 0.22306 0.28585 0.60977 0.0
H475 H 0.95594 0.27797 0.70747 0.0
H476 H 0.09994 0.32993 0.56936 0.0
H477 H 0.12583 0.3277 0.74747 0.0
H478 H -0.00031 0.28177 0.65685 0.0
H479 H 0.18079 0.28611 0.66013 0.0
C480 C 0.18725 0.29571 0.61138 0.0
C481 C 0.16572 0.30842 0.58494 0.0
C482 C 0.02743 0.29201 0.67671 0.0
C483 C 0.11545 0.3071 0.64309 0.0
C484 C 0.00238 0.28971 0.70573 0.0
C485 C 0.03707 0.30301 0.73212 0.0
C486 C 0.08742 0.30596 0.67376 0.0
C487 C 0.09718 0.3177 0.72801 0.0
C488 C 0.16309 0.2959 0.64026 0.0
C489 C 0.11875 0.32052 0.58889 0.0
N490 N 0.11999 0.31813 0.6997 0.0
N491 N 0.09497 0.31891 0.61712 0.0
H492 H 0.95405 0.31557 0.93712 0.0
H493 H 0.76291 0.02593 1.04517 0.0
H494 H 0.87937 0.13465 0.90601 0.0
H495 H 0.85576 0.2057 1.0794 0.0
H496 H 0.80026 0.06517 0.99382 0.0
H497 H 0.91509 0.27724 0.98854 0.0
C498 C 0.92971 0.2679 0.94092 0.0
C499 C 0.92064 0.22876 0.91666 0.0
C500 C 0.8123 0.09617 1.01252 0.0
C501 C 0.87472 0.18389 0.9762 0.0
C502 C 0.79053 0.07364 1.04202 0.0
C503 C 0.80559 0.1121 1.0672 0.0
C504 C 0.84948 0.15807 1.00758 0.0
C505 C 0.84245 0.17374 1.06109 0.0
C506 C 0.90726 0.24588 0.97047 0.0
C507 C 0.88817 0.16717 0.92359 0.0
N508 N 0.86279 0.19448 1.03227 0.0
N509 N 0.8666 0.14701 0.9523 0.0
H510 H 0.69968 0.88632 0.23723 0.0
H511 H 0.7353 0.92426 0.41664 0.0
H512 H 0.80786 0.06146 0.27528 0.0
H513 H 0.75661 0.78861 0.37198 0.0
H514 H 0.73839 0.96807 0.36665 0.0
H515 H 0.69655 0.84267 0.28728 0.0
C516 C 0.72233 0.91578 0.2561 0.0
C517 C 0.75414 0.97802 0.25165 0.0
C518 C 0.74205 0.92852 0.36778 0.0
C519 C 0.74935 0.92768 0.3098 0.0
C520 C 0.73993 0.90312 0.39639 0.0
C521 C 0.74563 0.85225 0.39892 0.0
C522 C 0.74776 0.90201 0.34096 0.0
C523 C 0.75207 0.82767 0.37148 0.0
C524 C 0.72075 0.89066 0.28472 0.0
C525 C 0.7829 0.0134 0.2773 0.0
N526 N 0.75214 0.85209 0.34389 0.0
N527 N 0.77917 -0.01203 0.30511 0.0
H528 H 0.89778 0.7877 0.56879 0.0
H529 H 0.86835 0.84099 0.74697 0.0
H530 H 0.74917 0.79906 0.60567 0.0
H531 H -0.01984 0.77417 0.71371 0.0
H532 H 0.83027 0.83406 0.69553 0.0
H533 H 0.93322 0.79034 0.62045 0.0
C534 C 0.87227 0.79073 0.58765 0.0
C535 C 0.81983 0.79305 0.58221 0.0
C536 C 0.8631 0.82085 0.69934 0.0
C537 C 0.86174 0.79702 0.64265 0.0
C538 C 0.88536 0.82503 0.72893 0.0
C539 C 0.92819 0.80833 0.73533 0.0
C540 C 0.884 0.80065 0.67507 0.0
C541 C 0.94741 0.78764 0.71039 0.0
C542 C 0.89276 0.79211 0.61739 0.0
C543 C 0.78945 0.79682 0.60822 0.0
N544 N 0.92573 0.7849 0.68167 0.0
N545 N 0.81096 0.79919 0.63695 0.0
H546 H -0.01479 0.89485 0.93134 0.0
H547 H 0.19569 0.92054 1.06955 0.0
H548 H 0.11476 0.83917 0.91935 0.0
H549 H 0.14624 0.05296 1.05384 0.0
H550 H 0.15407 0.87636 1.01952 0.0
H551 H 0.02948 0.93789 0.9808 0.0
C552 C 0.02251 0.89091 0.93914 0.0
C553 C 0.04576 0.86277 0.92069 0.0
C554 C 0.15255 0.91523 1.02701 0.0
C555 C 0.09684 0.91202 0.97841 0.0
C556 C 0.17643 0.94064 1.0557 0.0
C557 C 0.1755 -0.00859 1.0663 0.0
C558 C 0.12531 0.93911 1.00884 0.0
C559 C 0.14899 0.01448 1.04694 0.0
C560 C 0.04812 0.916 0.96746 0.0
C561 C 0.09494 0.8602 0.93244 0.0
N562 N 0.12462 -0.01198 1.0197 0.0
N563 N 0.1182 0.88374 0.96041 0.0
loop_
_geom_bond_atom_site_label_1
_geom_bond_atom_site_label_2
_geom_bond_distance
_geom_bond_site_symmetry_2
_ccdc_geom_bond_type
Dy0 O3 2.307 1_554 S
Dy0 O5 2.395 . S
Dy0 O6 2.379 . S
Dy0 O8 2.339 . S
Dy0 O10 2.298 1_565 S
Dy0 O14 2.275 . S
Dy0 C22 2.738 . S
Dy1 O4 2.306 . S
Dy1 O7 2.271 1_556 S
Dy1 O9 2.293 1_556 S
Dy1 O11 2.406 . S
Dy1 O12 2.391 . S
Dy1 O15 2.337 1_556 S
Dy1 C31 2.751 . S
C2 O14 1.254 1_545 S
C2 O15 1.257 . S
O3 Dy0 2.307 1_556 S
O3 C13 1.266 . S
O4 Dy1 2.306 . S
O4 C13 1.236 1_545 S
O5 Dy0 2.395 . S
O5 C22 1.255 . S
O6 Dy0 2.379 . S
O6 C22 1.249 . S
O7 Dy1 2.271 1_554 S
O7 C23 1.254 . S
O8 Dy0 2.339 . S
O8 C23 1.257 1_565 S
O9 Dy1 2.293 1_554 S
O9 C24 1.266 . S
O10 Dy0 2.298 1_545 S
O10 C24 1.236 . S
O11 Dy1 2.406 . S
O11 C31 1.255 . S
O12 Dy1 2.391 . S
O12 C31 1.249 . S
C13 O3 1.266 . S
C13 O4 1.236 1_565 S
O14 Dy0 2.275 . S
O14 C2 1.254 1_565 S
O15 Dy1 2.337 1_554 S
O15 C2 1.257 . S
C16 C19 1.344 . S
C16 C20 1.328 . S
C16 C22 1.516 . S
C17 C18 1.304 . S
C17 C21 1.323 . S
C18 C17 1.304 . S
C18 C19 1.371 . S
C18 H32 0.930 . S
C19 C16 1.344 . S
C19 C18 1.371 . S
C19 H33 0.931 . S
C20 C16 1.328 . S
C20 C21 1.433 . S
C20 H34 0.931 . S
C21 C17 1.323 . S
C21 C20 1.433 . S
C21 H35 0.933 . S
C22 Dy0 2.738 . S
C22 O5 1.255 . S
C22 O6 1.249 . S
C22 C16 1.516 . S
C23 O7 1.254 . S
C23 O8 1.257 1_545 S
C24 O9 1.266 . S
C24 O10 1.236 . S
C25 C28 1.344 . S
C25 C29 1.328 . S
C25 C31 1.516 . S
C26 C27 1.304 . S
C26 C30 1.323 . S
C27 C26 1.304 . S
C27 C28 1.371 . S
C27 H36 0.930 . S
C28 C25 1.344 . S
C28 C27 1.371 . S
C28 H37 0.931 . S
C29 C25 1.328 . S
C29 C30 1.433 . S
C29 H38 0.931 . S
C30 C26 1.323 . S
C30 C29 1.433 . S
C30 H39 0.933 . S
C31 Dy1 2.751 . S
C31 O11 1.255 . S
C31 O12 1.249 . S
C31 C25 1.516 . S
H32 C18 0.930 . S
H33 C19 0.931 . S
H34 C20 0.931 . S
H35 C21 0.933 . S
H36 C27 0.930 . S
H37 C28 0.931 . S
H38 C29 0.931 . S
H39 C30 0.933 . S
Dy40 O43 2.307 . S
Dy40 O45 2.395 . S
Dy40 O46 2.379 . S
Dy40 O48 2.339 . S
Dy40 O50 2.298 . S
Dy40 O54 2.275 . S
Dy40 C62 2.738 . S
Dy41 O44 2.298 . S
Dy41 O47 2.275 . S
Dy41 O49 2.307 . S
Dy41 O51 2.395 . S
Dy41 O52 2.379 . S
Dy41 O55 2.339 . S
Dy41 C71 2.738 . S
C42 O54 1.254 . S
C42 O55 1.257 . S
O43 Dy40 2.307 . S
O43 C53 1.266 . S
O44 Dy41 2.298 . S
O44 C53 1.236 . S
O45 Dy40 2.395 . S
O45 C62 1.255 . S
O46 Dy40 2.379 . S
O46 C62 1.249 . S
O47 Dy41 2.275 . S
O47 C63 1.254 . S
O48 Dy40 2.339 . S
O48 C63 1.257 . S
O49 Dy41 2.307 . S
O49 C64 1.266 . S
O50 Dy40 2.298 . S
O50 C64 1.236 . S
O51 Dy41 2.395 . S
O51 C71 1.255 . S
O52 Dy41 2.379 . S
O52 C71 1.249 . S
C53 O43 1.266 . S
C53 O44 1.236 . S
O54 Dy40 2.275 . S
O54 C42 1.254 . S
O55 Dy41 2.339 . S
O55 C42 1.257 . S
C56 C59 1.344 . S
C56 C60 1.328 . S
C56 C62 1.516 . S
C57 C58 1.304 . S
C57 C61 1.323 . S
C58 C57 1.304 . S
C58 C59 1.371 . S
C58 H72 0.930 . S
C59 C56 1.344 . S
C59 C58 1.371 . S
C59 H73 0.931 . S
C60 C56 1.328 . S
C60 C61 1.433 . S
C60 H74 0.931 . S
C61 C57 1.323 . S
C61 C60 1.433 . S
C61 H75 0.933 . S
C62 Dy40 2.738 . S
C62 O45 1.255 . S
C62 O46 1.249 . S
C62 C56 1.516 . S
C63 O47 1.254 . S
C63 O48 1.257 . S
C64 O49 1.266 . S
C64 O50 1.236 . S
C65 C68 1.344 . S
C65 C69 1.328 . S
C65 C71 1.516 . S
C66 C67 1.304 . S
C66 C70 1.323 . S
C67 C66 1.304 . S
C67 C68 1.371 . S
C67 H76 0.930 . S
C68 C65 1.344 . S
C68 C67 1.371 . S
C68 H77 0.931 . S
C69 C65 1.328 . S
C69 C70 1.433 . S
C69 H78 0.931 . S
C70 C66 1.323 . S
C70 C69 1.433 . S
C70 H79 0.933 . S
C71 Dy41 2.738 . S
C71 O51 1.255 . S
C71 O52 1.249 . S
C71 C65 1.516 . S
H72 C58 0.930 . S
H73 C59 0.931 . S
H74 C60 0.931 . S
H75 C61 0.933 . S
H76 C67 0.930 . S
H77 C68 0.931 . S
H78 C69 0.931 . S
H79 C70 0.933 . S
Dy80 O83 2.307 . S
Dy80 O85 2.395 . S
Dy80 O86 2.379 . S
Dy80 O88 2.339 . S
Dy80 O90 2.298 . S
Dy80 O94 2.275 . S
Dy80 C102 2.738 . S
Dy81 O84 2.298 1_655 S
Dy81 O87 2.275 1_655 S
Dy81 O89 2.307 . S
Dy81 O91 2.395 . S
Dy81 O92 2.379 . S
Dy81 O95 2.339 1_655 S
Dy81 C111 2.738 . S
C82 O94 1.254 . S
C82 O95 1.257 . S
O83 Dy80 2.307 . S
O83 C93 1.266 . S
O84 Dy81 2.298 1_455 S
O84 C93 1.236 . S
O85 Dy80 2.395 . S
O85 C102 1.255 . S
O86 Dy80 2.379 . S
O86 C102 1.249 . S
O87 Dy81 2.275 1_455 S
O87 C103 1.254 . S
O88 Dy80 2.339 . S
O88 C103 1.257 . S
O89 Dy81 2.307 . S
O89 C104 1.266 . S
O90 Dy80 2.298 . S
O90 C104 1.236 1_455 S
O91 Dy81 2.395 . S
O91 C111 1.255 . S
O92 Dy81 2.379 . S
O92 C111 1.249 . S
C93 O83 1.266 . S
C93 O84 1.236 . S
O94 Dy80 2.275 . S
O94 C82 1.254 . S
O95 Dy81 2.339 1_455 S
O95 C82 1.257 . S
C96 C99 1.344 . S
C96 C100 1.328 . S
C96 C102 1.516 . S
C97 C98 1.304 . S
C97 C101 1.323 . S
C98 C97 1.304 . S
C98 C99 1.371 . S
C98 H112 0.930 . S
C99 C96 1.344 . S
C99 C98 1.371 . S
C99 H113 0.931 . S
C100 C96 1.328 . S
C100 C101 1.433 . S
C100 H114 0.931 . S
C101 C97 1.323 . S
C101 C100 1.433 . S
C101 H115 0.933 . S
C102 Dy80 2.738 . S
C102 O85 1.255 . S
C102 O86 1.249 . S
C102 C96 1.516 . S
C103 O87 1.254 . S
C103 O88 1.257 . S
C104 O89 1.266 . S
C104 O90 1.236 1_655 S
C105 C108 1.344 . S
C105 C109 1.328 . S
C105 C111 1.516 . S
C106 C107 1.304 . S
C106 C110 1.323 . S
C107 C106 1.304 . S
C107 C108 1.371 . S
C107 H116 0.930 . S
C108 C105 1.344 . S
C108 C107 1.371 . S
C108 H117 0.931 . S
C109 C105 1.328 . S
C109 C110 1.433 . S
C109 H118 0.931 . S
C110 C106 1.323 . S
C110 C109 1.433 . S
C110 H119 0.933 . S
C111 Dy81 2.738 . S
C111 O91 1.255 . S
C111 O92 1.249 . S
C111 C105 1.516 . S
H112 C98 0.930 . S
H113 C99 0.931 . S
H114 C100 0.931 . S
H115 C101 0.933 . S
H116 C107 0.930 . S
H117 C108 0.931 . S
H118 C109 0.931 . S
H119 C110 0.933 . S
Dy120 O123 2.307 1_556 S
Dy120 O125 2.395 . S
Dy120 O126 2.379 . S
Dy120 O128 2.339 1_556 S
Dy120 O130 2.298 1_565 S
Dy120 O134 2.275 1_556 S
Dy120 C142 2.738 . S
Dy121 O124 2.298 . S
Dy121 O127 2.275 . S
Dy121 O129 2.307 1_554 S
Dy121 O131 2.395 . S
Dy121 O132 2.379 . S
Dy121 O135 2.339 . S
Dy121 C151 2.738 . S
C122 O134 1.254 1_545 S
C122 O135 1.257 . S
O123 Dy120 2.307 1_554 S
O123 C133 1.266 . S
O124 Dy121 2.298 . S
O124 C133 1.236 1_545 S
O125 Dy120 2.395 . S
O125 C142 1.255 . S
O126 Dy120 2.379 . S
O126 C142 1.249 . S
O127 Dy121 2.275 . S
O127 C143 1.254 . S
O128 Dy120 2.339 1_554 S
O128 C143 1.257 1_565 S
O129 Dy121 2.307 1_556 S
O129 C144 1.266 . S
O130 Dy120 2.298 1_545 S
O130 C144 1.236 . S
O131 Dy121 2.395 . S
O131 C151 1.255 . S
O132 Dy121 2.379 . S
O132 C151 1.249 . S
C133 O123 1.266 . S
C133 O124 1.236 1_565 S
O134 Dy120 2.275 1_554 S
O134 C122 1.254 1_565 S
O135 Dy121 2.339 . S
O135 C122 1.257 . S
C136 C139 1.344 . S
C136 C140 1.328 . S
C136 C142 1.516 . S
C137 C138 1.304 . S
C137 C141 1.323 . S
C138 C137 1.304 . S
C138 C139 1.371 . S
C138 H152 0.930 . S
C139 C136 1.344 . S
C139 C138 1.371 . S
C139 H153 0.931 . S
C140 C136 1.328 . S
C140 C141 1.433 . S
C140 H154 0.931 . S
C141 C137 1.323 . S
C141 C140 1.433 . S
C141 H155 0.933 . S
C142 Dy120 2.738 . S
C142 O125 1.255 . S
C142 O126 1.249 . S
C142 C136 1.516 . S
C143 O127 1.254 . S
C143 O128 1.257 1_545 S
C144 O129 1.266 . S
C144 O130 1.236 . S
C145 C148 1.344 . S
C145 C149 1.328 . S
C145 C151 1.516 . S
C146 C147 1.304 . S
C146 C150 1.323 . S
C147 C146 1.304 . S
C147 C148 1.371 . S
C147 H156 0.930 . S
C148 C145 1.344 . S
C148 C147 1.371 . S
C148 H157 0.931 . S
C149 C145 1.328 . S
C149 C150 1.433 . S
C149 H158 0.931 . S
C150 C146 1.323 . S
C150 C149 1.433 . S
C150 H159 0.933 . S
C151 Dy121 2.738 . S
C151 O131 1.255 . S
C151 O132 1.249 . S
C151 C145 1.516 . S
H152 C138 0.930 . S
H153 C139 0.931 . S
H154 C140 0.931 . S
H155 C141 0.933 . S
H156 C147 0.930 . S
H157 C148 0.931 . S
H158 C149 0.931 . S
H159 C150 0.933 . S
Dy160 O163 2.307 . S
Dy160 O165 2.395 . S
Dy160 O166 2.379 . S
Dy160 O168 2.339 . S
Dy160 O170 2.298 . S
Dy160 O174 2.275 . S
Dy160 C182 2.738 . S
Dy161 O164 2.298 . S
Dy161 O167 2.275 . S
Dy161 O169 2.307 . S
Dy161 O171 2.395 . S
Dy161 O172 2.379 . S
Dy161 O175 2.339 . S
Dy161 C191 2.738 . S
C162 O174 1.254 . S
C162 O175 1.257 . S
O163 Dy160 2.307 . S
O163 C173 1.266 . S
O164 Dy161 2.298 . S
O164 C173 1.236 . S
O165 Dy160 2.395 . S
O165 C182 1.255 . S
O166 Dy160 2.379 . S
O166 C182 1.249 . S
O167 Dy161 2.275 . S
O167 C183 1.254 . S
O168 Dy160 2.339 . S
O168 C183 1.257 . S
O169 Dy161 2.307 . S
O169 C184 1.266 . S
O170 Dy160 2.298 . S
O170 C184 1.236 . S
O171 Dy161 2.395 . S
O171 C191 1.255 . S
O172 Dy161 2.379 . S
O172 C191 1.249 . S
C173 O163 1.266 . S
C173 O164 1.236 . S
O174 Dy160 2.275 . S
O174 C162 1.254 . S
O175 Dy161 2.339 . S
O175 C162 1.257 . S
C176 C179 1.344 . S
C176 C180 1.328 . S
C176 C182 1.516 . S
C177 C178 1.304 . S
C177 C181 1.323 . S
C178 C177 1.304 . S
C178 C179 1.371 . S
C178 H192 0.930 1_565 S
C179 C176 1.344 . S
C179 C178 1.371 . S
C179 H193 0.931 . S
C180 C176 1.328 . S
C180 C181 1.433 . S
C180 H194 0.931 . S
C181 C177 1.323 . S
C181 C180 1.433 . S
C181 H195 0.933 . S
C182 Dy160 2.738 . S
C182 O165 1.255 . S
C182 O166 1.249 . S
C182 C176 1.516 . S
C183 O167 1.254 . S
C183 O168 1.257 . S
C184 O169 1.266 . S
C184 O170 1.236 . S
C185 C188 1.344 . S
C185 C189 1.328 . S
C185 C191 1.516 . S
C186 C187 1.304 . S
C186 C190 1.323 . S
C187 C186 1.304 . S
C187 C188 1.371 . S
C187 H196 0.930 . S
C188 C185 1.344 . S
C188 C187 1.371 . S
C188 H197 0.931 . S
C189 C185 1.328 . S
C189 C190 1.433 . S
C189 H198 0.931 . S
C190 C186 1.323 . S
C190 C189 1.433 . S
C190 H199 0.933 . S
C191 Dy161 2.738 . S
C191 O171 1.255 . S
C191 O172 1.249 . S
C191 C185 1.516 . S
H192 C178 0.930 1_545 S
H193 C179 0.931 . S
H194 C180 0.931 . S
H195 C181 0.933 . S
H196 C187 0.930 . S
H197 C188 0.931 . S
H198 C189 0.931 . S
H199 C190 0.933 . S
Dy200 O203 2.307 . S
Dy200 O205 2.395 . S
Dy200 O206 2.379 . S
Dy200 O208 2.339 . S
Dy200 O210 2.298 . S
Dy200 O214 2.275 . S
Dy200 C222 2.738 . S
Dy201 O204 2.298 1_655 S
Dy201 O207 2.275 1_655 S
Dy201 O209 2.307 . S
Dy201 O211 2.395 . S
Dy201 O212 2.379 . S
Dy201 O215 2.339 1_655 S
Dy201 C231 2.738 . S
C202 O214 1.254 . S
C202 O215 1.257 . S
O203 Dy200 2.307 . S
O203 C213 1.266 . S
O204 Dy201 2.298 1_455 S
O204 C213 1.236 . S
O205 Dy200 2.395 . S
O205 C222 1.255 . S
O206 Dy200 2.379 . S
O206 C222 1.249 . S
O207 Dy201 2.275 1_455 S
O207 C223 1.254 . S
O208 Dy200 2.339 . S
O208 C223 1.257 . S
O209 Dy201 2.307 . S
O209 C224 1.266 . S
O210 Dy200 2.298 . S
O210 C224 1.236 1_455 S
O211 Dy201 2.395 . S
O211 C231 1.255 . S
O212 Dy201 2.379 . S
O212 C231 1.249 . S
C213 O203 1.266 . S
C213 O204 1.236 . S
O214 Dy200 2.275 . S
O214 C202 1.254 . S
O215 Dy201 2.339 1_455 S
O215 C202 1.257 . S
C216 C219 1.344 . S
C216 C220 1.328 . S
C216 C222 1.516 . S
C217 C218 1.304 . S
C217 C221 1.323 . S
C218 C217 1.304 . S
C218 C219 1.371 . S
C218 H232 0.930 1_565 S
C219 C216 1.344 . S
C219 C218 1.371 . S
C219 H233 0.931 . S
C220 C216 1.328 . S
C220 C221 1.433 . S
C220 H234 0.931 . S
C221 C217 1.323 . S
C221 C220 1.433 . S
C221 H235 0.933 . S
C222 Dy200 2.738 . S
C222 O205 1.255 . S
C222 O206 1.249 . S
C222 C216 1.516 . S
C223 O207 1.254 . S
C223 O208 1.257 . S
C224 O209 1.266 . S
C224 O210 1.236 1_655 S
C225 C228 1.344 . S
C225 C229 1.328 . S
C225 C231 1.516 . S
C226 C227 1.304 . S
C226 C230 1.323 . S
C227 C226 1.304 . S
C227 C228 1.371 . S
C227 H236 0.930 . S
C228 C225 1.344 . S
C228 C227 1.371 . S
C228 H237 0.931 . S
C229 C225 1.328 . S
C229 C230 1.433 . S
C229 H238 0.931 . S
C230 C226 1.323 . S
C230 C229 1.433 . S
C230 H239 0.933 . S
C231 Dy201 2.738 . S
C231 O211 1.255 . S
C231 O212 1.249 . S
C231 C225 1.516 . S
H232 C218 0.930 1_545 S
H233 C219 0.931 . S
H234 C220 0.931 . S
H235 C221 0.933 . S
H236 C227 0.930 . S
H237 C228 0.931 . S
H238 C229 0.931 . S
H239 C230 0.933 . S
H240 C246 0.930 . S
H241 C250 0.930 . S
H242 C255 0.929 . S
H243 C253 0.929 . S
H244 C248 0.929 . S
H245 C254 0.929 . S
C246 H240 0.930 . S
C246 C247 1.367 1_565 S
C246 C254 1.378 . S
C247 C246 1.367 1_545 S
C247 C255 1.433 . S
C248 H244 0.929 . S
C248 C250 1.378 . S
C248 C252 1.350 . S
C249 C252 1.463 1_655 S
C249 C254 1.350 1_545 S
C249 N257 1.427 . S
C250 H241 0.930 . S
C250 C248 1.378 . S
C250 C251 1.367 . S
C251 C250 1.367 . S
C251 C253 1.433 1_545 S
C252 C248 1.350 . S
C252 C249 1.463 1_455 S
C252 N256 1.427 1_545 S
C253 H243 0.929 . S
C253 C251 1.433 1_565 S
C253 N256 1.384 . S
C254 H245 0.929 . S
C254 C246 1.378 . S
C254 C249 1.350 1_565 S
C255 H242 0.929 . S
C255 C247 1.433 . S
C255 N257 1.384 . S
N256 C252 1.427 1_565 S
N256 C253 1.384 . S
N257 C249 1.427 . S
N257 C255 1.384 . S
H258 C264 0.930 . S
H259 C268 0.930 . S
H260 C273 0.929 . S
H261 C271 0.929 . S
H262 C266 0.929 . S
H263 C272 0.929 . S
C264 H258 0.930 . S
C264 C265 1.367 . S
C264 C272 1.378 1_565 S
C265 C264 1.367 . S
C265 C273 1.433 . S
C266 H262 0.929 . S
C266 C268 1.378 . S
C266 C270 1.350 . S
C267 C270 1.463 1_655 S
C267 C272 1.350 . S
C267 N275 1.427 . S
C268 H259 0.930 . S
C268 C266 1.378 . S
C268 C269 1.367 . S
C269 C268 1.367 . S
C269 C271 1.433 . S
C270 C266 1.350 . S
C270 C267 1.463 1_455 S
C270 N274 1.427 . S
C271 H261 0.929 . S
C271 C269 1.433 . S
C271 N274 1.384 . S
C272 H263 0.929 . S
C272 C264 1.378 1_545 S
C272 C267 1.350 . S
C273 H260 0.929 . S
C273 C265 1.433 . S
C273 N275 1.384 1_565 S
N274 C270 1.427 . S
N274 C271 1.384 . S
N275 C267 1.427 . S
N275 C273 1.384 1_545 S
H276 C282 0.930 . S
H277 C286 0.930 . S
H278 C291 0.929 . S
H279 C289 0.929 . S
H280 C284 0.929 . S
H281 C290 0.929 . S
C282 H276 0.930 . S
C282 C283 1.367 . S
C282 C290 1.378 1_565 S
C283 C282 1.367 . S
C283 C291 1.433 . S
C284 H280 0.929 . S
C284 C286 1.378 . S
C284 C288 1.350 . S
C285 C288 1.463 . S
C285 C290 1.350 . S
C285 N293 1.427 . S
C286 H277 0.930 . S
C286 C284 1.378 . S
C286 C287 1.367 . S
C287 C286 1.367 . S
C287 C289 1.433 . S
C288 C284 1.350 . S
C288 C285 1.463 . S
C288 N292 1.427 . S
C289 H279 0.929 . S
C289 C287 1.433 . S
C289 N292 1.384 . S
C290 H281 0.929 . S
C290 C282 1.378 1_545 S
C290 C285 1.350 . S
C291 H278 0.929 . S
C291 C283 1.433 . S
C291 N293 1.384 1_565 S
N292 C288 1.427 . S
N292 C289 1.384 . S
N293 C285 1.427 . S
N293 C291 1.384 1_545 S
H294 C300 0.930 . S
H295 C304 0.930 . S
H296 C309 0.929 . S
H297 C307 0.929 . S
H298 C302 0.929 . S
H299 C308 0.929 . S
C300 H294 0.930 . S
C300 C301 1.367 . S
C300 C308 1.378 . S
C301 C300 1.367 . S
C301 C309 1.433 . S
C302 H298 0.929 . S
C302 C304 1.378 . S
C302 C306 1.350 . S
C303 C306 1.463 . S
C303 C308 1.350 . S
C303 N311 1.427 . S
C304 H295 0.930 . S
C304 C302 1.378 . S
C304 C305 1.367 . S
C305 C304 1.367 . S
C305 C307 1.433 . S
C306 C302 1.350 . S
C306 C303 1.463 . S
C306 N310 1.427 . S
C307 H297 0.929 . S
C307 C305 1.433 . S
C307 N310 1.384 . S
C308 H299 0.929 . S
C308 C300 1.378 . S
C308 C303 1.350 . S
C309 H296 0.929 . S
C309 C301 1.433 . S
C309 N311 1.384 . S
N310 C306 1.427 . S
N310 C307 1.384 . S
N311 C303 1.427 . S
N311 C309 1.384 . S
H312 C318 0.930 . S
H313 C322 0.930 . S
H314 C327 0.929 . S
H315 C325 0.929 . S
H316 C320 0.929 . S
H317 C326 0.929 . S
C318 H312 0.930 . S
C318 C319 1.367 . S
C318 C326 1.378 1_455 S
C319 C318 1.367 . S
C319 C327 1.433 . S
C320 H316 0.929 . S
C320 C322 1.378 . S
C320 C324 1.350 . S
C321 C324 1.463 . S
C321 C326 1.350 . S
C321 N329 1.427 1_655 S
C322 H313 0.930 . S
C322 C320 1.378 . S
C322 C323 1.367 . S
C323 C322 1.367 . S
C323 C325 1.433 . S
C324 C320 1.350 . S
C324 C321 1.463 . S
C324 N328 1.427 . S
C325 H315 0.929 . S
C325 C323 1.433 . S
C325 N328 1.384 . S
C326 H317 0.929 . S
C326 C318 1.378 1_655 S
C326 C321 1.350 . S
C327 H314 0.929 . S
C327 C319 1.433 . S
C327 N329 1.384 . S
N328 C324 1.427 . S
N328 C325 1.384 . S
N329 C321 1.427 1_455 S
N329 C327 1.384 . S
H330 C336 0.930 . S
H331 C340 0.930 . S
H332 C345 0.929 . S
H333 C343 0.929 . S
H334 C338 0.929 . S
H335 C344 0.929 . S
C336 H330 0.930 . S
C336 C337 1.367 . S
C336 C344 1.378 . S
C337 C336 1.367 . S
C337 C345 1.433 . S
C338 H334 0.929 . S
C338 C340 1.378 . S
C338 C342 1.350 . S
C339 C342 1.463 . S
C339 C344 1.350 . S
C339 N347 1.427 . S
C340 H331 0.930 . S
C340 C338 1.378 . S
C340 C341 1.367 1_545 S
C341 C340 1.367 1_565 S
C341 C343 1.433 . S
C342 C338 1.350 . S
C342 C339 1.463 . S
C342 N346 1.427 . S
C343 H333 0.929 . S
C343 C341 1.433 . S
C343 N346 1.384 1_565 S
C344 H335 0.929 . S
C344 C336 1.378 . S
C344 C339 1.350 . S
C345 H332 0.929 . S
C345 C337 1.433 . S
C345 N347 1.384 . S
N346 C342 1.427 . S
N346 C343 1.384 1_545 S
N347 C339 1.427 . S
N347 C345 1.384 . S
H348 C354 0.930 . S
H349 C358 0.930 . S
H350 C363 0.929 . S
H351 C361 0.929 . S
H352 C356 0.929 . S
H353 C362 0.929 . S
C354 H348 0.930 . S
C354 C355 1.367 . S
C354 C362 1.378 . S
C355 C354 1.367 . S
C355 C363 1.433 . S
C356 H352 0.929 . S
C356 C358 1.378 . S
C356 C360 1.350 . S
C357 C360 1.463 . S
C357 C362 1.350 . S
C357 N365 1.427 . S
C358 H349 0.930 . S
C358 C356 1.378 . S
C358 C359 1.367 . S
C359 C358 1.367 . S
C359 C361 1.433 . S
C360 C356 1.350 . S
C360 C357 1.463 . S
C360 N364 1.427 . S
C361 H351 0.929 . S
C361 C359 1.433 . S
C361 N364 1.384 . S
C362 H353 0.929 . S
C362 C354 1.378 . S
C362 C357 1.350 . S
C363 H350 0.929 . S
C363 C355 1.433 . S
C363 N365 1.384 . S
N364 C360 1.427 . S
N364 C361 1.384 . S
N365 C357 1.427 . S
N365 C363 1.384 . S
H366 C372 0.930 . S
H367 C376 0.930 . S
H368 C381 0.929 . S
H369 C379 0.929 . S
H370 C374 0.929 . S
H371 C380 0.929 . S
C372 H366 0.930 . S
C372 C373 1.367 . S
C372 C380 1.378 . S
C373 C372 1.367 . S
C373 C381 1.433 . S
C374 H370 0.929 . S
C374 C376 1.378 1_655 S
C374 C378 1.350 . S
C375 C378 1.463 . S
C375 C380 1.350 . S
C375 N383 1.427 . S
C376 H367 0.930 . S
C376 C374 1.378 1_455 S
C376 C377 1.367 . S
C377 C376 1.367 . S
C377 C379 1.433 . S
C378 C374 1.350 . S
C378 C375 1.463 . S
C378 N382 1.427 1_655 S
C379 H369 0.929 . S
C379 C377 1.433 . S
C379 N382 1.384 . S
C380 H371 0.929 . S
C380 C372 1.378 . S
C380 C375 1.350 . S
C381 H368 0.929 . S
C381 C373 1.433 . S
C381 N383 1.384 . S
N382 C378 1.427 1_455 S
N382 C379 1.384 . S
N383 C375 1.427 . S
N383 C381 1.384 . S
H384 C390 0.930 . S
H385 C394 0.930 . S
H386 C399 0.929 . S
H387 C397 0.929 . S
H388 C392 0.929 . S
H389 C398 0.929 . S
C390 H384 0.930 . S
C390 C391 1.367 . S
C390 C398 1.378 1_565 S
C391 C390 1.367 . S
C391 C399 1.433 1_565 S
C392 H388 0.929 . S
C392 C394 1.378 . S
C392 C396 1.350 . S
C393 C396 1.463 . S
C393 C398 1.350 . S
C393 N401 1.427 . S
C394 H385 0.930 . S
C394 C392 1.378 . S
C394 C395 1.367 . S
C395 C394 1.367 . S
C395 C397 1.433 . S
C396 C392 1.350 . S
C396 C393 1.463 . S
C396 N400 1.427 . S
C397 H387 0.929 . S
C397 C395 1.433 . S
C397 N400 1.384 . S
C398 H389 0.929 . S
C398 C390 1.378 1_545 S
C398 C393 1.350 . S
C399 H386 0.929 . S
C399 C391 1.433 1_545 S
C399 N401 1.384 . S
N400 C396 1.427 . S
N400 C397 1.384 . S
N401 C393 1.427 . S
N401 C399 1.384 . S
H402 C408 0.930 . S
H403 C412 0.930 . S
H404 C417 0.929 . S
H405 C415 0.929 . S
H406 C410 0.929 . S
H407 C416 0.929 . S
C408 H402 0.930 . S
C408 C409 1.367 1_565 S
C408 C416 1.378 . S
C409 C408 1.367 1_545 S
C409 C417 1.433 . S
C410 H406 0.929 . S
C410 C412 1.378 . S
C410 C414 1.350 . S
C411 C414 1.463 . S
C411 C416 1.350 1_545 S
C411 N419 1.427 . S
C412 H403 0.930 . S
C412 C410 1.378 . S
C412 C413 1.367 . S
C413 C412 1.367 . S
C413 C415 1.433 1_545 S
C414 C410 1.350 . S
C414 C411 1.463 . S
C414 N418 1.427 1_545 S
C415 H405 0.929 . S
C415 C413 1.433 1_565 S
C415 N418 1.384 . S
C416 H407 0.929 . S
C416 C408 1.378 . S
C416 C411 1.350 1_565 S
C417 H404 0.929 . S
C417 C409 1.433 . S
C417 N419 1.384 . S
N418 C414 1.427 1_565 S
N418 C415 1.384 . S
N419 C411 1.427 . S
N419 C417 1.384 . S
H420 C426 0.930 . S
H421 C430 0.930 . S
H422 C435 0.929 . S
H423 C433 0.929 . S
H424 C428 0.929 . S
H425 C434 0.929 . S
C426 H420 0.930 . S
C426 C427 1.367 . S
C426 C434 1.378 . S
C427 C426 1.367 . S
C427 C435 1.433 . S
C428 H424 0.929 . S
C428 C430 1.378 . S
C428 C432 1.350 . S
C429 C432 1.463 . S
C429 C434 1.350 . S
C429 N437 1.427 . S
C430 H421 0.930 . S
C430 C428 1.378 . S
C430 C431 1.367 . S
C431 C430 1.367 . S
C431 C433 1.433 . S
C432 C428 1.350 . S
C432 C429 1.463 . S
C432 N436 1.427 . S
C433 H423 0.929 . S
C433 C431 1.433 . S
C433 N436 1.384 . S
C434 H425 0.929 . S
C434 C426 1.378 . S
C434 C429 1.350 . S
C435 H422 0.929 . S
C435 C427 1.433 . S
C435 N437 1.384 . S
N436 C432 1.427 . S
N436 C433 1.384 . S
N437 C429 1.427 . S
N437 C435 1.384 . S
H438 C444 0.930 . S
H439 C448 0.930 . S
H440 C453 0.929 . S
H441 C451 0.929 . S
H442 C446 0.929 . S
H443 C452 0.929 . S
C444 H438 0.930 . S
C444 C445 1.367 . S
C444 C452 1.378 . S
C445 C444 1.367 . S
C445 C453 1.433 . S
C446 H442 0.929 . S
C446 C448 1.378 . S
C446 C450 1.350 . S
C447 C450 1.463 . S
C447 C452 1.350 . S
C447 N455 1.427 . S
C448 H439 0.930 . S
C448 C446 1.378 . S
C448 C449 1.367 . S
C449 C448 1.367 . S
C449 C451 1.433 . S
C450 C446 1.350 . S
C450 C447 1.463 . S
C450 N454 1.427 . S
C451 H441 0.929 . S
C451 C449 1.433 . S
C451 N454 1.384 . S
C452 H443 0.929 . S
C452 C444 1.378 . S
C452 C447 1.350 . S
C453 H440 0.929 . S
C453 C445 1.433 . S
C453 N455 1.384 . S
N454 C450 1.427 . S
N454 C451 1.384 . S
N455 C447 1.427 . S
N455 C453 1.384 . S
H456 C462 0.930 . S
H457 C466 0.930 . S
H458 C471 0.929 . S
H459 C469 0.929 . S
H460 C464 0.929 . S
H461 C470 0.929 . S
C462 H456 0.930 . S
C462 C463 1.367 . S
C462 C470 1.378 . S
C463 C462 1.367 . S
C463 C471 1.433 . S
C464 H460 0.929 . S
C464 C466 1.378 . S
C464 C468 1.350 . S
C465 C468 1.463 . S
C465 C470 1.350 . S
C465 N473 1.427 . S
C466 H457 0.930 . S
C466 C464 1.378 . S
C466 C467 1.367 . S
C467 C466 1.367 . S
C467 C469 1.433 . S
C468 C464 1.350 . S
C468 C465 1.463 . S
C468 N472 1.427 . S
C469 H459 0.929 . S
C469 C467 1.433 . S
C469 N472 1.384 . S
C470 H461 0.929 . S
C470 C462 1.378 . S
C470 C465 1.350 . S
C471 H458 0.929 . S
C471 C463 1.433 . S
C471 N473 1.384 . S
N472 C468 1.427 . S
N472 C469 1.384 . S
N473 C465 1.427 . S
N473 C471 1.384 . S
H474 C480 0.930 . S
H475 C484 0.930 . S
H476 C489 0.929 . S
H477 C487 0.929 . S
H478 C482 0.929 . S
H479 C488 0.929 . S
C480 H474 0.930 . S
C480 C481 1.367 . S
C480 C488 1.378 . S
C481 C480 1.367 . S
C481 C489 1.433 . S
C482 H478 0.929 . S
C482 C484 1.378 . S
C482 C486 1.350 . S
C483 C486 1.463 . S
C483 C488 1.350 . S
C483 N491 1.427 . S
C484 H475 0.930 . S
C484 C482 1.378 . S
C484 C485 1.367 . S
C485 C484 1.367 . S
C485 C487 1.433 . S
C486 C482 1.350 . S
C486 C483 1.463 . S
C486 N490 1.427 . S
C487 H477 0.929 . S
C487 C485 1.433 . S
C487 N490 1.384 . S
C488 H479 0.929 . S
C488 C480 1.378 . S
C488 C483 1.350 . S
C489 H476 0.929 . S
C489 C481 1.433 . S
C489 N491 1.384 . S
N490 C486 1.427 . S
N490 C487 1.384 . S
N491 C483 1.427 . S
N491 C489 1.384 . S
H492 C498 0.930 . S
H493 C502 0.930 . S
H494 C507 0.929 . S
H495 C505 0.929 . S
H496 C500 0.929 . S
H497 C506 0.929 . S
C498 H492 0.930 . S
C498 C499 1.367 . S
C498 C506 1.378 . S
C499 C498 1.367 . S
C499 C507 1.433 . S
C500 H496 0.929 . S
C500 C502 1.378 . S
C500 C504 1.350 . S
C501 C504 1.463 . S
C501 C506 1.350 . S
C501 N509 1.427 . S
C502 H493 0.930 . S
C502 C500 1.378 . S
C502 C503 1.367 . S
C503 C502 1.367 . S
C503 C505 1.433 . S
C504 C500 1.350 . S
C504 C501 1.463 . S
C504 N508 1.427 . S
C505 H495 0.929 . S
C505 C503 1.433 . S
C505 N508 1.384 . S
C506 H497 0.929 . S
C506 C498 1.378 . S
C506 C501 1.350 . S
C507 H494 0.929 . S
C507 C499 1.433 . S
C507 N509 1.384 . S
N508 C504 1.427 . S
N508 C505 1.384 . S
N509 C501 1.427 . S
N509 C507 1.384 . S
H510 C516 0.930 . S
H511 C520 0.930 . S
H512 C525 0.929 1_545 S
H513 C523 0.929 . S
H514 C518 0.929 . S
H515 C524 0.929 . S
C516 H510 0.930 . S
C516 C517 1.367 . S
C516 C524 1.378 . S
C517 C516 1.367 . S
C517 C525 1.433 . S
C518 H514 0.929 . S
C518 C520 1.378 . S
C518 C522 1.350 . S
C519 C522 1.463 . S
C519 C524 1.350 . S
C519 N527 1.427 . S
C520 H511 0.930 . S
C520 C518 1.378 . S
C520 C521 1.367 . S
C521 C520 1.367 . S
C521 C523 1.433 . S
C522 C518 1.350 . S
C522 C519 1.463 . S
C522 N526 1.427 . S
C523 H513 0.929 . S
C523 C521 1.433 . S
C523 N526 1.384 . S
C524 H515 0.929 . S
C524 C516 1.378 . S
C524 C519 1.350 . S
C525 H512 0.929 1_565 S
C525 C517 1.433 . S
C525 N527 1.384 . S
N526 C522 1.427 . S
N526 C523 1.384 . S
N527 C519 1.427 . S
N527 C525 1.384 . S
H528 C534 0.930 . S
H529 C538 0.930 . S
H530 C543 0.929 . S
H531 C541 0.929 . S
H532 C536 0.929 . S
H533 C542 0.929 . S
C534 H528 0.930 . S
C534 C535 1.367 . S
C534 C542 1.378 . S
C535 C534 1.367 . S
C535 C543 1.433 . S
C536 H532 0.929 . S
C536 C538 1.378 . S
C536 C540 1.350 . S
C537 C540 1.463 . S
C537 C542 1.350 . S
C537 N545 1.427 . S
C538 H529 0.930 . S
C538 C536 1.378 . S
C538 C539 1.367 . S
C539 C538 1.367 . S
C539 C541 1.433 . S
C540 C536 1.350 . S
C540 C537 1.463 . S
C540 N544 1.427 . S
C541 H531 0.929 . S
C541 C539 1.433 . S
C541 N544 1.384 . S
C542 H533 0.929 . S
C542 C534 1.378 . S
C542 C537 1.350 . S
C543 H530 0.929 . S
C543 C535 1.433 . S
C543 N545 1.384 . S
N544 C540 1.427 . S
N544 C541 1.384 . S
N545 C537 1.427 . S
N545 C543 1.384 . S
H546 C552 0.930 . S
H547 C556 0.930 . S
H548 C561 0.929 . S
H549 C559 0.929 . S
H550 C554 0.929 . S
H551 C560 0.929 . S
C552 H546 0.930 . S
C552 C553 1.367 . S
C552 C560 1.378 . S
C553 C552 1.367 . S
C553 C561 1.433 . S
C554 H550 0.929 . S
C554 C556 1.378 . S
C554 C558 1.350 . S
C555 C558 1.463 . S
C555 C560 1.350 . S
C555 N563 1.427 . S
C556 H547 0.930 . S
C556 C554 1.378 . S
C556 C557 1.367 . S
C557 C556 1.367 . S
C557 C559 1.433 . S
C558 C554 1.350 . S
C558 C555 1.463 . S
C558 N562 1.427 . S
C559 H549 0.929 . S
C559 C557 1.433 . S
C559 N562 1.384 . S
C560 H551 0.929 . S
C560 C552 1.378 . S
C560 C555 1.350 . S
C561 H548 0.929 . S
C561 C553 1.433 . S
C561 N563 1.384 . S
N562 C558 1.427 . S
N562 C559 1.384 . S
N563 C555 1.427 . S
N563 C561 1.384 . S
C247 C122 0.480 . S
C251 C2 0.456 . S
C265 C162 0.450 . S
C269 C42 0.447 . S
C283 C202 0.486 . S
C287 C82 0.492 . S
C301 C26 0.676 . S
C305 C97 0.722 . S
C319 C57 0.699 . S
C323 C146 0.664 . S
C337 C106 0.672 . S
C341 C177 0.685 . S
C355 C137 0.679 . S
C359 C226 0.686 . S
C373 C186 0.673 . S
C377 C17 0.717 . S
C391 C217 0.708 . S
C395 C66 0.709 . S
C409 C23 0.469 . S
C413 C143 0.500 . S
C427 C63 0.490 . S
C431 C183 0.459 . S
C445 C103 0.496 . S
C449 C223 0.496 . S
C463 C24 4.143 . S
C467 C64 4.143 . S
C481 C53 3.874 . S
C485 C93 3.877 . S
C499 C104 4.142 . S
C503 C144 4.141 . S
C517 C133 3.878 . S
C521 C173 3.876 . S
C535 C184 4.143 . S
C539 C224 4.142 . S
C553 C213 3.874 . S
C557 C13 3.877 . S
