# Generated by pormake.
# Topology wmc, (6)-cn, num edge types: 1
# Building blocks:
#     Node 0, Type 0, BuildingBlock: IZENUY_clean_sbu_0, # of connection points: 6
#     Node 1, Type 0, BuildingBlock: IZENUY_clean_sbu_0, # of connection points: 6
#     Node 2, Type 0, BuildingBlock: IZENUY_clean_sbu_0, # of connection points: 6
#     Node 3, Type 0, BuildingBlock: IZENUY_clean_sbu_0, # of connection points: 6
#     Node 4, Type 0, BuildingBlock: IZENUY_clean_sbu_0, # of connection points: 6
#     Node 5, Type 0, BuildingBlock: IZENUY_clean_sbu_0, # of connection points: 6
#     Node 6, Type 0, BuildingBlock: IZENUY_clean_sbu_0, # of connection points: 6
#     Node 7, Type 0, BuildingBlock: IZENUY_clean_sbu_0, # of connection points: 6
#     Node 8, Type 0, BuildingBlock: IZENUY_clean_sbu_0, # of connection points: 6
#     Node 9, Type 0, BuildingBlock: IZENUY_clean_sbu_0, # of connection points: 6
#     Node 10, Type 0, BuildingBlock: IZENUY_clean_sbu_0, # of connection points: 6
#     Node 11, Type 0, BuildingBlock: IZENUY_clean_sbu_0, # of connection points: 6
#     Node 12, Type 0, BuildingBlock: IZENUY_clean_sbu_0, # of connection points: 6
#     Node 13, Type 0, BuildingBlock: IZENUY_clean_sbu_0, # of connection points: 6
#     Node 14, Type 0, BuildingBlock: IZENUY_clean_sbu_0, # of connection points: 6
#     Node 15, Type 0, BuildingBlock: IZENUY_clean_sbu_0, # of connection points: 6
#     Node 16, Type 0, BuildingBlock: IZENUY_clean_sbu_0, # of connection points: 6
#     Node 17, Type 0, BuildingBlock: IZENUY_clean_sbu_0, # of connection points: 6
#     Edge 18, Type (0, 0), BuildingBlock: EZIPEK_clean_linker_0, # of connection points: 2
#     Edge 19, Type (0, 0), BuildingBlock: EZIPEK_clean_linker_0, # of connection points: 2
#     Edge 20, Type (0, 0), BuildingBlock: EZIPEK_clean_linker_0, # of connection points: 2
#     Edge 21, Type (0, 0), BuildingBlock: EZIPEK_clean_linker_0, # of connection points: 2
#     Edge 22, Type (0, 0), BuildingBlock: EZIPEK_clean_linker_0, # of connection points: 2
#     Edge 23, Type (0, 0), BuildingBlock: EZIPEK_clean_linker_0, # of connection points: 2
#     Edge 24, Type (0, 0), BuildingBlock: EZIPEK_clean_linker_0, # of connection points: 2
#     Edge 25, Type (0, 0), BuildingBlock: EZIPEK_clean_linker_0, # of connection points: 2
#     Edge 26, Type (0, 0), BuildingBlock: EZIPEK_clean_linker_0, # of connection points: 2
#     Edge 27, Type (0, 0), BuildingBlock: EZIPEK_clean_linker_0, # of connection points: 2
#     Edge 28, Type (0, 0), BuildingBlock: EZIPEK_clean_linker_0, # of connection points: 2
#     Edge 29, Type (0, 0), BuildingBlock: EZIPEK_clean_linker_0, # of connection points: 2
#     Edge 30, Type (0, 0), BuildingBlock: EZIPEK_clean_linker_0, # of connection points: 2
#     Edge 31, Type (0, 0), BuildingBlock: EZIPEK_clean_linker_0, # of connection points: 2
#     Edge 32, Type (0, 0), BuildingBlock: EZIPEK_clean_linker_0, # of connection points: 2
#     Edge 33, Type (0, 0), BuildingBlock: EZIPEK_clean_linker_0, # of connection points: 2
#     Edge 34, Type (0, 0), BuildingBlock: EZIPEK_clean_linker_0, # of connection points: 2
#     Edge 35, Type (0, 0), BuildingBlock: EZIPEK_clean_linker_0, # of connection points: 2
#     Edge 36, Type (0, 0), BuildingBlock: EZIPEK_clean_linker_0, # of connection points: 2
#     Edge 37, Type (0, 0), BuildingBlock: EZIPEK_clean_linker_0, # of connection points: 2
#     Edge 38, Type (0, 0), BuildingBlock: EZIPEK_clean_linker_0, # of connection points: 2
#     Edge 39, Type (0, 0), BuildingBlock: EZIPEK_clean_linker_0, # of connection points: 2
#     Edge 40, Type (0, 0), BuildingBlock: EZIPEK_clean_linker_0, # of connection points: 2
#     Edge 41, Type (0, 0), BuildingBlock: EZIPEK_clean_linker_0, # of connection points: 2
#     Edge 42, Type (0, 0), BuildingBlock: EZIPEK_clean_linker_0, # of connection points: 2
#     Edge 43, Type (0, 0), BuildingBlock: EZIPEK_clean_linker_0, # of connection points: 2
#     Edge 44, Type (0, 0), BuildingBlock: EZIPEK_clean_linker_0, # of connection points: 2
#     Edge 45, Type (0, 0), BuildingBlock: EZIPEK_clean_linker_0, # of connection points: 2
#     Edge 46, Type (0, 0), BuildingBlock: EZIPEK_clean_linker_0, # of connection points: 2
#     Edge 47, Type (0, 0), BuildingBlock: EZIPEK_clean_linker_0, # of connection points: 2
#     Edge 48, Type (0, 0), BuildingBlock: EZIPEK_clean_linker_0, # of connection points: 2
#     Edge 49, Type (0, 0), BuildingBlock: EZIPEK_clean_linker_0, # of connection points: 2
#     Edge 50, Type (0, 0), BuildingBlock: EZIPEK_clean_linker_0, # of connection points: 2
#     Edge 51, Type (0, 0), BuildingBlock: EZIPEK_clean_linker_0, # of connection points: 2
#     Edge 52, Type (0, 0), BuildingBlock: EZIPEK_clean_linker_0, # of connection points: 2
#     Edge 53, Type (0, 0), BuildingBlock: EZIPEK_clean_linker_0, # of connection points: 2
#     Edge 54, Type (0, 0), BuildingBlock: EZIPEK_clean_linker_0, # of connection points: 2
#     Edge 55, Type (0, 0), BuildingBlock: EZIPEK_clean_linker_0, # of connection points: 2
#     Edge 56, Type (0, 0), BuildingBlock: EZIPEK_clean_linker_0, # of connection points: 2
#     Edge 57, Type (0, 0), BuildingBlock: EZIPEK_clean_linker_0, # of connection points: 2
#     Edge 58, Type (0, 0), BuildingBlock: EZIPEK_clean_linker_0, # of connection points: 2
#     Edge 59, Type (0, 0), BuildingBlock: EZIPEK_clean_linker_0, # of connection points: 2
#     Edge 60, Type (0, 0), BuildingBlock: EZIPEK_clean_linker_0, # of connection points: 2
#     Edge 61, Type (0, 0), BuildingBlock: EZIPEK_clean_linker_0, # of connection points: 2
#     Edge 62, Type (0, 0), BuildingBlock: EZIPEK_clean_linker_0, # of connection points: 2
#     Edge 63, Type (0, 0), BuildingBlock: EZIPEK_clean_linker_0, # of connection points: 2
#     Edge 64, Type (0, 0), BuildingBlock: EZIPEK_clean_linker_0, # of connection points: 2
#     Edge 65, Type (0, 0), BuildingBlock: EZIPEK_clean_linker_0, # of connection points: 2
#     Edge 66, Type (0, 0), BuildingBlock: EZIPEK_clean_linker_0, # of connection points: 2
#     Edge 67, Type (0, 0), BuildingBlock: EZIPEK_clean_linker_0, # of connection points: 2
#     Edge 68, Type (0, 0), BuildingBlock: EZIPEK_clean_linker_0, # of connection points: 2
#     Edge 69, Type (0, 0), BuildingBlock: EZIPEK_clean_linker_0, # of connection points: 2
#     Edge 70, Type (0, 0), BuildingBlock: EZIPEK_clean_linker_0, # of connection points: 2
#     Edge 71, Type (0, 0), BuildingBlock: EZIPEK_clean_linker_0, # of connection points: 2
# Relax obj value: 0.347
# Max RMSD: 0.273
# Mean RMSD: 0.273
data_MOF--net-wmc--node1-IZENUY_clean_sbu_0--edge1-EZIPEK_clean_linker_0
_symmetry_space_group_name_H-M    P1
_symmetry_Int_Tables_number       1
_symmetry_cell_setting            triclinic
loop_
_symmetry_equiv_pos_as_xyz
'x, y, z'
_cell_length_a     34.519623
_cell_length_b     34.557098
_cell_length_c     22.424608
_cell_angle_alpha  89.990976
_cell_angle_beta   90.044145
_cell_angle_gamma 119.69401
loop_
_atom_site_label
_atom_site_type_symbol
_atom_site_fract_x
_atom_site_fract_y
_atom_site_fract_z
_atom_type_partial_charge
Fe0 Fe 0.66697 0.12458 0.96179 0.0
Fe1 Fe 0.57843 0.11994 0.99724 0.0
O2 O 0.63697 0.14414 0.00507 0.0
Fe3 Fe 0.6654 0.18974 0.05383 0.0
O4 O 0.694 0.22436 0.99179 0.0
O5 O 0.71847 0.18135 0.95538 0.0
O6 O 0.64961 0.13876 0.89339 0.0
C7 C 0.61056 0.12634 0.87659 0.0
C8 C 0.72114 0.1477 0.06232 0.0
O9 O 0.57846 0.11027 0.91431 0.0
C10 C 0.59511 0.13366 0.1234 0.0
O11 O 0.61508 0.06345 0.95526 0.0
O12 O 0.57001 0.06673 0.01877 0.0
O13 O 0.71272 0.1794 0.07004 0.0
O14 O 0.69385 0.1143 0.0291 0.0
C15 C 0.59942 0.20614 0.00364 0.0
O16 O 0.56979 0.1268 0.0782 0.0
O17 O 0.63695 0.1559 0.1176 0.0
C18 C 0.57555 0.04424 0.98026 0.0
O19 O 0.58191 0.17089 0.9748 0.0
O20 O 0.62531 0.2112 0.04691 0.0
C21 C 0.72207 0.2199 0.96124 0.0
Fe22 Fe 0.9223 0.54096 0.97429 0.0
Fe23 Fe 0.93392 0.46148 0.01364 0.0
O24 O 0.90576 0.49263 0.0191 0.0
Fe25 Fe 0.85979 0.47403 0.06778 0.0
O26 O 0.82336 0.46484 0.00564 0.0
O27 O 0.86404 0.53116 0.96573 0.0
O28 O 0.91146 0.50911 0.90788 0.0
C29 C 0.9223 0.48085 0.89317 0.0
C30 C 0.89504 0.57038 0.0725 0.0
O31 O 0.94178 0.46879 0.93111 0.0
C32 C 0.91987 0.46664 0.13835 0.0
O33 O 0.9846 0.55494 0.96812 0.0
O34 O 0.98574 0.50932 0.03226 0.0
O35 O 0.86651 0.5299 0.08206 0.0
O36 O 0.92921 0.57828 0.0396 0.0
C37 C 0.84976 0.39225 0.02378 0.0
O38 O 0.92932 0.44899 0.0948 0.0
O39 O 0.89466 0.48294 0.13139 0.0
C40 C 1.00598 0.53658 0.99201 0.0
O41 O 0.88471 0.41102 0.99409 0.0
O42 O 0.84229 0.41362 0.06389 0.0
C43 C 0.82661 0.49533 0.9717 0.0
Fe44 Fe 0.49972 0.38248 0.96653 0.0
Fe45 Fe 0.58339 0.46898 0.00605 0.0
O46 O 0.54852 0.41035 0.0102 0.0
Fe47 Fe 0.56479 0.37978 0.05592 0.0
O48 O 0.57158 0.35302 0.9924 0.0
O49 O 0.50491 0.33083 0.95592 0.0
O50 O 0.53249 0.40262 0.89931 0.0
C51 C 0.55743 0.44262 0.88497 0.0
C52 C 0.46773 0.32573 0.06452 0.0
O53 O 0.57258 0.47276 0.92503 0.0
C54 C 0.58143 0.44716 0.13029 0.0
O55 O 0.49041 0.43446 0.96532 0.0
O56 O 0.53912 0.47818 0.03008 0.0
O57 O 0.50734 0.3324 0.07021 0.0
O58 O 0.46214 0.35405 0.03275 0.0
C59 C 0.64769 0.44646 0.00819 0.0
O60 O 0.6004 0.47412 0.0868 0.0
O61 O 0.55776 0.40622 0.1202 0.0
C62 C 0.51037 0.47321 0.99228 0.0
O63 O 0.62969 0.46422 0.97976 0.0
O64 O 0.62644 0.41961 0.05046 0.0
C65 C 0.53987 0.32688 0.96004 0.0
Fe66 Fe 0.93597 0.47863 0.51427 0.0
Fe67 Fe 0.86306 0.39186 0.56751 0.0
O68 O 0.90985 0.41975 0.51995 0.0
Fe69 Fe 0.9282 0.3886 0.47667 0.0
O70 O 0.92 0.41021 0.40861 0.0
O71 O 0.94429 0.47977 0.43187 0.0
O72 O 0.88535 0.47801 0.49436 0.0
C73 C 0.85114 0.46235 0.52561 0.0
C74 C 1.01008 0.47728 0.494 0.0
O75 O 0.84561 0.43479 0.56626 0.0
C76 C 0.89737 0.33008 0.57404 0.0
O77 O 0.93064 0.48524 0.59579 0.0
O78 O 0.89743 0.41647 0.63151 0.0
O79 O 0.99052 0.43661 0.47337 0.0
O80 O 0.98908 0.48503 0.53266 0.0
C81 C 0.83354 0.34303 0.46598 0.0
O82 O 0.86816 0.34172 0.5808 0.0
O83 O 0.9328 0.35676 0.54338 0.0
C84 C 0.92187 0.45786 0.63895 0.0
O85 O 0.82813 0.36698 0.50374 0.0
O86 O 0.87003 0.3418 0.46449 0.0
C87 C 0.92792 0.44834 0.39367 0.0
Fe88 Fe 0.57467 0.46648 0.50631 0.0
Fe89 Fe 0.66174 0.47651 0.55562 0.0
O90 O 0.63367 0.49648 0.51057 0.0
Fe91 Fe 0.66475 0.54554 0.46679 0.0
O92 O 0.64476 0.51352 0.39921 0.0
O93 O 0.57369 0.47577 0.42379 0.0
O94 O 0.57165 0.41573 0.48377 0.0
C95 C 0.58968 0.39627 0.50768 0.0
C96 C 0.57668 0.54092 0.48824 0.0
O97 O 0.61994 0.4159 0.54687 0.0
C98 C 0.71987 0.57417 0.56627 0.0
O99 O 0.56737 0.45213 0.58675 0.0
O100 O 0.63577 0.48142 0.62262 0.0
O101 O 0.61499 0.55822 0.46092 0.0
O102 O 0.57249 0.51479 0.52868 0.0
C103 C 0.71737 0.50241 0.4625 0.0
O104 O 0.71065 0.53351 0.57236 0.0
O105 O 0.69294 0.58174 0.53402 0.0
C106 C 0.59445 0.46588 0.63065 0.0
O107 O 0.68756 0.46995 0.49057 0.0
O108 O 0.71525 0.53823 0.45888 0.0
C109 C 0.60464 0.48935 0.38461 0.0
Fe110 Fe 0.59632 0.13403 0.49763 0.0
Fe111 Fe 0.57709 0.20454 0.54415 0.0
O112 O 0.55935 0.15471 0.50468 0.0
Fe113 Fe 0.50621 0.12732 0.47029 0.0
O114 O 0.53022 0.13496 0.39703 0.0
O115 O 0.57997 0.11606 0.41801 0.0
O116 O 0.63775 0.18351 0.46282 0.0
C117 C 0.65711 0.22032 0.48738 0.0
C118 C 0.52782 0.05456 0.49702 0.0
O119 O 0.6384 0.22821 0.53081 0.0
C120 C 0.48217 0.15805 0.5702 0.0
O121 O 0.61853 0.15049 0.57625 0.0
O122 O 0.5779 0.17785 0.61225 0.0
O123 O 0.50215 0.06813 0.47264 0.0
O124 O 0.55711 0.08198 0.53041 0.0
C125 C 0.53955 0.22129 0.45142 0.0
O126 O 0.52022 0.19291 0.56559 0.0
O127 O 0.47656 0.12224 0.54339 0.0
C128 C 0.60103 0.15945 0.62103 0.0
O129 O 0.5757 0.23086 0.47649 0.0
O130 O 0.50615 0.18148 0.45584 0.0
C131 C 0.56121 0.12868 0.37977 0.0
Fe132 Fe 0.33206 0.45895 0.29833 0.0
Fe133 Fe 0.24636 0.45694 0.34383 0.0
O134 O 0.30523 0.47995 0.34498 0.0
Fe135 Fe 0.33749 0.52647 0.39066 0.0
O136 O 0.36287 0.56007 0.32625 0.0
O137 O 0.38409 0.5154 0.28779 0.0
O138 O 0.30986 0.47164 0.23253 0.0
C139 C 0.26992 0.4613 0.22161 0.0
C140 C 0.39007 0.48171 0.39553 0.0
O141 O 0.24075 0.44526 0.26253 0.0
C142 C 0.27173 0.47573 0.46745 0.0
O143 O 0.28035 0.39854 0.29661 0.0
O144 O 0.23682 0.40249 0.36299 0.0
O145 O 0.38429 0.51509 0.40184 0.0
O146 O 0.36168 0.44874 0.36278 0.0
C147 C 0.27055 0.54421 0.34931 0.0
O148 O 0.24336 0.46687 0.42548 0.0
O149 O 0.31261 0.49357 0.45586 0.0
C150 C 0.24158 0.37977 0.32314 0.0
O151 O 0.25038 0.50834 0.32195 0.0
O152 O 0.2986 0.54932 0.38939 0.0
C153 C 0.38921 0.55466 0.29371 0.0
Fe154 Fe 0.59222 0.87856 0.31151 0.0
Fe155 Fe 0.59743 0.79582 0.34857 0.0
O156 O 0.57184 0.82918 0.3539 0.0
Fe157 Fe 0.52447 0.81192 0.3995 0.0
O158 O 0.49116 0.80637 0.33533 0.0
O159 O 0.53596 0.87401 0.30252 0.0
O160 O 0.57923 0.84685 0.24338 0.0
C161 C 0.5942 0.82187 0.22785 0.0
C162 C 0.56753 0.90864 0.41129 0.0
O163 O 0.60979 0.80636 0.26694 0.0
C164 C 0.57987 0.79851 0.47258 0.0
O165 O 0.65331 0.88829 0.30715 0.0
O166 O 0.65 0.84094 0.37186 0.0
O167 O 0.53443 0.86922 0.41507 0.0
O168 O 0.60152 0.91416 0.37985 0.0
C169 C 0.51067 0.73088 0.35007 0.0
O170 O 0.58845 0.78026 0.42885 0.0
O171 O 0.55649 0.81691 0.46518 0.0
C172 C 0.67281 0.86881 0.3333 0.0
O173 O 0.54729 0.74829 0.32408 0.0
O174 O 0.50382 0.75111 0.39238 0.0
C175 C 0.49719 0.83945 0.30507 0.0
Fe176 Fe 0.17083 0.71703 0.29818 0.0
Fe177 Fe 0.25094 0.80668 0.33684 0.0
O178 O 0.21915 0.74793 0.34289 0.0
Fe179 Fe 0.23731 0.72022 0.39185 0.0
O180 O 0.24679 0.69359 0.32986 0.0
O181 O 0.17991 0.66777 0.29108 0.0
O182 O 0.20304 0.73688 0.23132 0.0
C183 C 0.23125 0.77573 0.21631 0.0
C184 C 0.14034 0.66168 0.39748 0.0
O185 O 0.24298 0.80715 0.25425 0.0
C186 C 0.24595 0.78838 0.46189 0.0
O187 O 0.15807 0.76634 0.29137 0.0
O188 O 0.20365 0.81177 0.35645 0.0
O189 O 0.1807 0.67107 0.4057 0.0
O190 O 0.13327 0.68839 0.36422 0.0
C191 C 0.31871 0.78914 0.34516 0.0
O192 O 0.26447 0.81458 0.41784 0.0
O193 O 0.22862 0.74677 0.45543 0.0
C194 C 0.17648 0.80557 0.31629 0.0
O195 O 0.30052 0.80637 0.3162 0.0
O196 O 0.29795 0.76226 0.38738 0.0
C197 C 0.21617 0.66635 0.29649 0.0
Fe198 Fe 0.59212 0.71806 0.81066 0.0
Fe199 Fe 0.59909 0.80739 0.84803 0.0
O200 O 0.57288 0.7485 0.85374 0.0
Fe201 Fe 0.52525 0.71973 0.89956 0.0
O202 O 0.49188 0.69372 0.83532 0.0
O203 O 0.53428 0.66805 0.8009 0.0
O204 O 0.58122 0.73797 0.74292 0.0
C205 C 0.58983 0.77634 0.72795 0.0
C206 C 0.56528 0.66206 0.90901 0.0
O207 O 0.60838 0.80803 0.76574 0.0
C208 C 0.58135 0.78734 0.97302 0.0
O209 O 0.65401 0.76783 0.80625 0.0
O210 O 0.65207 0.81418 0.86873 0.0
O211 O 0.53358 0.67086 0.91478 0.0
O212 O 0.59978 0.68947 0.8778 0.0
C213 C 0.51286 0.78869 0.85197 0.0
O214 O 0.59238 0.81439 0.92906 0.0
O215 O 0.55714 0.74585 0.96535 0.0
C216 C 0.67404 0.80741 0.8305 0.0
O217 O 0.5493 0.8069 0.82583 0.0
O218 O 0.50549 0.76092 0.89339 0.0
C219 C 0.49615 0.66603 0.804 0.0
Fe220 Fe 0.24283 0.7988 0.83612 0.0
Fe221 Fe 0.33107 0.81539 0.88994 0.0
O222 O 0.30155 0.83262 0.84252 0.0
Fe223 Fe 0.33102 0.88162 0.79896 0.0
O224 O 0.31198 0.85007 0.73141 0.0
O225 O 0.24188 0.80758 0.75402 0.0
O226 O 0.24605 0.75086 0.81394 0.0
C227 C 0.26464 0.73352 0.84176 0.0
C228 C 0.24025 0.87234 0.81761 0.0
O229 O 0.29085 0.75436 0.88456 0.0
C230 C 0.38629 0.91277 0.89832 0.0
O231 O 0.23581 0.78473 0.91728 0.0
O232 O 0.30394 0.82189 0.95434 0.0
O233 O 0.27997 0.89223 0.79351 0.0
O234 O 0.23387 0.84384 0.85613 0.0
C235 C 0.38588 0.83985 0.79589 0.0
O236 O 0.37878 0.87285 0.90473 0.0
O237 O 0.35845 0.91864 0.86582 0.0
C238 C 0.26226 0.80338 0.96132 0.0
O239 O 0.35842 0.80785 0.82693 0.0
O240 O 0.38224 0.87503 0.79124 0.0
C241 C 0.27347 0.82097 0.7161 0.0
Fe242 Fe 0.17073 0.45904 0.80168 0.0
Fe243 Fe 0.25306 0.45363 0.84418 0.0
O244 O 0.21891 0.47862 0.84739 0.0
Fe245 Fe 0.2347 0.52534 0.89374 0.0
O246 O 0.24282 0.55902 0.82962 0.0
O247 O 0.17622 0.516 0.79262 0.0
O248 O 0.20412 0.47239 0.73551 0.0
C249 C 0.23044 0.45874 0.72172 0.0
C250 C 0.13747 0.48267 0.89917 0.0
O251 O 0.24599 0.44347 0.76141 0.0
C252 C 0.24653 0.47055 0.96817 0.0
O253 O 0.16118 0.3978 0.79714 0.0
O254 O 0.20748 0.40013 0.86343 0.0
O255 O 0.17691 0.51534 0.90594 0.0
O256 O 0.13228 0.44913 0.86703 0.0
C257 C 0.31871 0.53991 0.8525 0.0
O258 O 0.26543 0.46109 0.92594 0.0
O259 O 0.22733 0.49284 0.95898 0.0
C260 C 0.18047 0.378 0.8235 0.0
O261 O 0.30166 0.5044 0.82398 0.0
O262 O 0.29603 0.54647 0.89159 0.0
C263 C 0.21134 0.55438 0.79716 0.0
Fe264 Fe 0.99495 0.79195 0.63582 0.0
Fe265 Fe 0.90481 0.78303 0.67516 0.0
O266 O 0.96414 0.81115 0.67858 0.0
Fe267 Fe 0.99315 0.86032 0.7212 0.0
O268 O 1.01802 0.89157 0.65504 0.0
O269 O 0.04486 0.84957 0.62477 0.0
O270 O 0.97377 0.80162 0.56851 0.0
C271 C 0.93478 0.7918 0.55443 0.0
C272 C 0.05187 0.82088 0.73312 0.0
O273 O 0.90352 0.77283 0.59285 0.0
C274 C 0.92742 0.80657 0.79929 0.0
O275 O 0.94603 0.72997 0.63209 0.0
O276 O 0.90084 0.73137 0.69644 0.0
O277 O 0.04264 0.85251 0.7377 0.0
O278 O 1.02431 0.78568 0.7031 0.0
C279 C 0.91987 0.86811 0.67445 0.0
O280 O 0.89887 0.79164 0.75661 0.0
O281 O 0.96855 0.83107 0.78935 0.0
C282 C 0.90679 0.70959 0.65689 0.0
O283 O 0.90178 0.83053 0.65178 0.0
O284 O 0.95114 0.87943 0.71233 0.0
C285 C 0.04677 0.88756 0.62608 0.0
Fe286 Fe 0.26125 0.21246 0.6375 0.0
Fe287 Fe 0.26092 0.12736 0.68015 0.0
O288 O 0.23787 0.16287 0.68113 0.0
Fe289 Fe 0.18936 0.14721 0.7234 0.0
O290 O 0.15983 0.1407 0.65558 0.0
O291 O 0.20524 0.20834 0.62364 0.0
O292 O 0.25117 0.18187 0.56902 0.0
C293 C 0.26181 0.15294 0.55717 0.0
C294 C 0.23376 0.24407 0.73356 0.0
O295 O 0.27323 0.13507 0.59803 0.0
C296 C 0.24058 0.13375 0.80258 0.0
O297 O 0.32185 0.21977 0.63793 0.0
O298 O 0.31403 0.17139 0.70373 0.0
O299 O 0.19973 0.20511 0.73574 0.0
O300 O 0.26861 0.24907 0.70454 0.0
C301 C 0.1742 0.06312 0.6825 0.0
O302 O 0.25051 0.1144 0.76143 0.0
O303 O 0.21854 0.15301 0.7916 0.0
C304 C 0.33834 0.19756 0.66492 0.0
O305 O 0.2105 0.07996 0.65603 0.0
O306 O 0.16713 0.08574 0.721 0.0
C307 C 0.16666 0.17306 0.62335 0.0
Fe308 Fe 0.84043 0.0561 0.64876 0.0
Fe309 Fe 0.93235 0.13484 0.67663 0.0
O310 O 0.89287 0.07748 0.68477 0.0
Fe311 Fe 0.90897 0.04437 0.72735 0.0
O312 O 0.89974 1.00735 0.66866 0.0
O313 O 0.84208 1.00503 0.62145 0.0
O314 O 0.86817 0.08454 0.57865 0.0
C315 C 0.90875 0.10606 0.5606 0.0
C316 C 0.81264 0.9947 0.74695 0.0
O317 O 0.94162 0.12439 0.59803 0.0
C318 C 0.91918 0.1181 0.79856 0.0
O319 O 0.83284 0.10719 0.67017 0.0
O320 O 0.89973 0.15605 0.64633 0.0
O321 O 0.85287 1.00504 0.75795 0.0
O322 O 0.80574 0.02134 0.71391 0.0
C323 C 0.99432 0.11101 0.69225 0.0
O324 O 0.9205 0.14267 0.75445 0.0
O325 O 0.9206 0.08192 0.79157 0.0
C326 C 0.86208 0.14849 0.65788 0.0
O327 O 0.98181 0.13757 0.70405 0.0
O328 O 0.96666 0.07073 0.69818 0.0
C329 C 0.87014 0.9912 0.62974 0.0
Fe330 Fe 0.25515 0.04973 0.13319 0.0
Fe331 Fe 0.26096 0.13689 0.17941 0.0
O332 O 0.23556 0.07766 0.18092 0.0
Fe333 Fe 0.18882 0.04634 0.22741 0.0
O334 O 0.15456 0.01951 0.16434 0.0
O335 O 0.19856 0.99814 0.12401 0.0
O336 O 0.2416 0.0715 0.06817 0.0
C337 C 0.25173 0.11123 0.05698 0.0
C338 C 0.23275 0.99229 0.23018 0.0
O339 O 0.27016 0.14096 0.0971 0.0
C340 C 0.24269 0.1131 0.3037 0.0
O341 O 0.31597 0.10061 0.12858 0.0
O342 O 0.3145 0.1436 0.19688 0.0
O343 O 0.20054 0.99971 0.23971 0.0
O344 O 0.26564 0.02026 0.19699 0.0
C345 C 0.1738 0.11508 0.1841 0.0
O346 O 0.25382 0.1415 0.2614 0.0
O347 O 0.22067 0.07189 0.29363 0.0
C348 C 0.33596 0.13916 0.15529 0.0
O349 O 0.21076 0.13604 0.15972 0.0
O350 O 0.16638 0.08546 0.2229 0.0
C351 C 0.15963 0.9934 0.13097 0.0
Fe352 Fe 0.99829 0.21278 0.13741 0.0
Fe353 Fe 0.90986 0.13115 0.1768 0.0
O354 O 0.96868 0.1639 0.18164 0.0
Fe355 Fe 0.99844 0.14596 0.2276 0.0
O356 O 1.02375 0.13797 0.16303 0.0
O357 O 0.04883 0.20557 0.12858 0.0
O358 O 0.97852 0.18125 0.07017 0.0
C359 C 0.94015 0.15176 0.05508 0.0
C360 C 0.05442 0.24331 0.23597 0.0
O361 O 0.90856 0.13829 0.09348 0.0
C362 C 0.93165 0.13445 0.3028 0.0
O363 O 0.94792 0.22406 0.13138 0.0
O364 O 0.90283 0.17752 0.19566 0.0
O365 O 0.04691 0.20331 0.2417 0.0
O366 O 1.02644 0.24959 0.20425 0.0
C367 C 0.92963 0.0644 0.18184 0.0
O368 O 0.90394 0.1186 0.25907 0.0
O369 O 0.97307 0.15224 0.29387 0.0
C370 C 0.90827 0.20431 0.15518 0.0
O371 O 0.91071 0.08205 0.15585 0.0
O372 O 0.95772 0.08515 0.22279 0.0
C373 C 0.05091 0.16956 0.13129 0.0
Fe374 Fe 0.92158 0.7925 0.17657 0.0
Fe375 Fe 0.89987 0.85986 0.22987 0.0
O376 O 0.88515 0.81413 0.18207 0.0
Fe377 Fe 0.83543 0.7912 0.13927 0.0
O378 O 0.86574 0.80392 0.06989 0.0
O379 O 0.91242 0.78062 0.09426 0.0
O380 O 0.96705 0.84448 0.15276 0.0
C381 C 0.9833 0.87945 0.18244 0.0
C382 C 0.85282 0.71495 0.1611 0.0
O383 O 0.96145 0.88298 0.2255 0.0
C384 C 0.8032 0.81385 0.23946 0.0
O385 O 0.93651 0.80127 0.25708 0.0
O386 O 0.89437 0.82652 0.29418 0.0
O387 O 0.82953 0.73107 0.13579 0.0
O388 O 0.87874 0.73891 0.20017 0.0
C389 C 0.87283 0.88662 0.13439 0.0
O390 O 0.8419 0.84782 0.24412 0.0
O391 O 0.79878 0.78069 0.20713 0.0
C392 C 0.9145 0.80474 0.30048 0.0
O393 O 0.90537 0.8934 0.16656 0.0
O394 O 0.83859 0.84729 0.13041 0.0
C395 C 0.8938 0.79265 0.05513 0.0
C396 C 0.54489 0.2329 0.01785 0.0
C397 C 0.58341 0.23777 0.98869 0.0
C398 C 0.57812 0.28897 0.91671 0.0
C399 C 0.54087 0.28513 0.94796 0.0
N400 N 0.47709 0.23605 0.0044 0.0
N401 N 0.62727 0.25888 0.89839 0.0
C402 C 0.52059 0.25157 0.9913 0.0
C403 C 0.59716 0.26224 0.93415 0.0
N404 N 0.53114 0.21016 0.07038 0.0
N405 N 0.59577 0.31927 0.87155 0.0
H406 H 0.64102 0.23893 0.90939 0.0
H407 H 0.63566 0.27268 0.85588 0.0
H408 H 0.58062 0.33741 0.85735 0.0
H409 H 0.6255 0.32727 0.84992 0.0
H410 H 0.50493 0.20857 0.0954 0.0
H411 H 0.54861 0.19655 0.09136 0.0
H412 H 0.45886 0.20895 0.03246 0.0
H413 H 0.45883 0.24661 0.97894 0.0
C414 C 0.80454 0.27132 0.97439 0.0
C415 C 0.76362 0.26292 0.94933 0.0
C416 C 0.77735 0.33592 0.97963 0.0
C417 C 0.8176 0.34516 0.00766 0.0
N418 N 0.87045 0.32116 0.03256 0.0
N419 N 0.72696 0.29625 0.89873 0.0
C420 C 0.83202 0.31289 0.00433 0.0
C421 C 0.75634 0.29901 0.94113 0.0
N422 N 0.81817 0.24104 0.96509 0.0
N423 N 0.75672 0.35953 0.9934 0.0
H424 H 0.71251 0.26913 0.8695 0.0
H425 H 0.72095 0.32236 0.88965 0.0
H426 H 0.76874 0.38466 0.0253 0.0
H427 H 0.72406 0.34853 0.98013 0.0
H428 H 0.84949 0.24622 0.9768 0.0
H429 H 0.79941 0.21284 0.93889 0.0
H430 H 0.8815 0.29819 0.03608 0.0
H431 H 0.89003 0.35052 0.05617 0.0
C432 C 0.70563 0.43177 0.96216 0.0
C433 C 0.69528 0.46142 0.99298 0.0
C434 C 0.77146 0.52301 0.9715 0.0
C435 C 0.78313 0.4911 0.95294 0.0
N436 N 0.75885 0.42267 0.90124 0.0
N437 N 0.71567 0.53746 0.01657 0.0
C438 C 0.74894 0.44803 0.93786 0.0
C439 C 0.72735 0.50799 0.99371 0.0
N440 N 0.67463 0.38775 0.95801 0.0
N441 N 0.80277 0.56712 0.96843 0.0
H442 H 0.68578 0.52743 0.0391 0.0
H443 H 0.73537 0.57185 0.01406 0.0
H444 H 0.83335 0.57799 0.94739 0.0
H445 H 0.79811 0.59309 0.98286 0.0
H446 H 0.67831 0.36462 0.93275 0.0
H447 H 0.64622 0.37343 0.98413 0.0
H448 H 0.73485 0.3937 0.88069 0.0
H449 H 0.7913 0.43338 0.88696 0.0
C450 C 0.80085 0.53366 0.47385 0.0
C451 C 0.75892 0.49956 0.4537 0.0
C452 C 0.77542 0.44291 0.48939 0.0
C453 C 0.81731 0.47574 0.51102 0.0
N454 N 0.87001 0.55351 0.52714 0.0
N455 N 0.71962 0.42499 0.41529 0.0
C456 C 0.83049 0.52176 0.50332 0.0
C457 C 0.75159 0.45571 0.45136 0.0
N458 N 0.8131 0.57671 0.46092 0.0
N459 N 0.7569 0.39952 0.50639 0.0
H460 H 0.70308 0.43373 0.38367 0.0
H461 H 0.70308 0.43373 0.38367 0.0
H462 H 0.77099 0.38832 0.53818 0.0
H463 H 0.72455 0.37607 0.49381 0.0
H464 H 0.84428 0.6037 0.47036 0.0
H465 H 0.79316 0.5846 0.43438 0.0
H466 H 0.88089 0.58746 0.5269 0.0
H467 H 0.89087 0.54536 0.55117 0.0
C468 C 0.51323 0.27155 0.48682 0.0
C469 C 0.53517 0.26153 0.44164 0.0
C470 C 0.58704 0.34188 0.43065 0.0
C471 C 0.57344 0.34955 0.48728 0.0
N472 N 0.52195 0.32042 0.56918 0.0
N473 N 0.58907 0.288 0.36291 0.0
C474 C 0.53573 0.31401 0.51512 0.0
C475 C 0.57029 0.29731 0.41028 0.0
N476 N 0.4708 0.24061 0.50187 0.0
N477 N 0.615 0.37707 0.39578 0.0
H478 H 0.57606 0.25563 0.3468 0.0
H479 H 0.61804 0.31156 0.34165 0.0
H480 H 0.6274 0.41006 0.40891 0.0
H481 H 0.62284 0.37371 0.35198 0.0
H482 H 0.45117 0.24756 0.53032 0.0
H483 H 0.45396 0.21008 0.4797 0.0
H484 H 0.49608 0.29479 0.59271 0.0
H485 H 0.53946 0.35025 0.59254 0.0
C486 C 0.71438 0.29229 0.43935 0.0
C487 C 0.70351 0.25108 0.467 0.0
C488 C 0.77841 0.26419 0.44125 0.0
C489 C 0.79205 0.30954 0.43557 0.0
N490 N 0.77298 0.36242 0.3979 0.0
N491 N 0.72358 0.19373 0.48391 0.0
C492 C 0.75957 0.3219 0.4234 0.0
C493 C 0.73472 0.23521 0.46338 0.0
N494 N 0.68178 0.30278 0.42854 0.0
N495 N 0.80783 0.2499 0.42808 0.0
H496 H 0.6943 0.17336 0.50715 0.0
H497 H 0.74457 0.18029 0.48136 0.0
H498 H 0.83918 0.27155 0.41023 0.0
H499 H 0.79989 0.21667 0.42866 0.0
H500 H 0.68683 0.3318 0.40783 0.0
H501 H 0.64863 0.2814 0.43913 0.0
H502 H 0.75156 0.37332 0.38298 0.0
H503 H 0.80652 0.3848 0.38951 0.0
C504 C 0.19169 0.58704 0.31421 0.0
C505 C 0.21994 0.62633 0.28295 0.0
C506 C 0.2828 0.61352 0.29823 0.0
C507 C 0.25603 0.57712 0.33622 0.0
N508 N 0.18526 0.5306 0.3841 0.0
N509 N 0.28421 0.66346 0.22114 0.0
C510 C 0.21028 0.56397 0.3448 0.0
C511 C 0.26287 0.63477 0.26679 0.0
N512 N 0.1469 0.57055 0.31092 0.0
N513 N 0.32761 0.62939 0.29483 0.0
H514 H 0.26886 0.67839 0.19789 0.0
H515 H 0.31416 0.66862 0.20295 0.0
H516 H 0.34362 0.61759 0.32247 0.0
H517 H 0.34938 0.65772 0.27079 0.0
H518 H 0.12358 0.53962 0.32785 0.0
H519 H 0.13372 0.58568 0.28371 0.0
H520 H 0.15293 0.52214 0.39645 0.0
H521 H 0.1985 0.51418 0.4086 0.0
C522 C 0.45748 0.67623 0.27555 0.0
C523 C 0.47857 0.68445 0.33251 0.0
C524 C 0.46272 0.60748 0.33419 0.0
C525 C 0.43282 0.59656 0.28647 0.0
N526 N 0.41154 0.62143 0.20063 0.0
N527 N 0.49918 0.65609 0.41782 0.0
C528 C 0.43328 0.63158 0.25372 0.0
C529 C 0.48036 0.64942 0.36256 0.0
N530 N 0.46185 0.71112 0.24192 0.0
N531 N 0.47707 0.57875 0.34868 0.0
H532 H 0.51164 0.68636 0.44027 0.0
H533 H 0.49831 0.63036 0.44315 0.0
H534 H 0.46791 0.55092 0.32181 0.0
H535 H 0.5024 0.58653 0.37962 0.0
H536 H 0.45032 0.70809 0.19837 0.0
H537 H 0.47882 0.74391 0.2571 0.0
H538 H 0.4052 0.64306 0.17565 0.0
H539 H 0.40185 0.5905 0.18144 0.0
C540 C 0.42162 0.80559 0.26088 0.0
C541 C 0.45569 0.84098 0.29371 0.0
C542 C 0.40019 0.84199 0.36012 0.0
C543 C 0.36597 0.80453 0.3301 0.0
N544 N 0.34286 0.76265 0.23804 0.0
N545 N 0.47437 0.90599 0.35157 0.0
C546 C 0.37622 0.79001 0.27593 0.0
C547 C 0.444 0.86349 0.33613 0.0
N548 N 0.43307 0.78623 0.21645 0.0
N549 N 0.39105 0.85698 0.41153 0.0
H550 H 0.50556 0.92279 0.33108 0.0
H551 H 0.4663 0.92588 0.37779 0.0
H552 H 0.35937 0.84162 0.43058 0.0
H553 H 0.41575 0.88206 0.43746 0.0
H554 H 0.41031 0.75681 0.19521 0.0
H555 H 0.46616 0.79947 0.20268 0.0
H556 H 0.34875 0.75533 0.19507 0.0
H557 H 0.30922 0.75028 0.24764 0.0
C558 C 0.48034 0.83889 0.86273 0.0
C559 C 0.48042 0.80279 0.83325 0.0
C560 C 0.42898 0.80404 0.75836 0.0
C561 C 0.42883 0.83987 0.78871 0.0
N562 N 0.47461 0.9047 0.84584 0.0
N563 N 0.46948 0.76495 0.73882 0.0
C564 C 0.46074 0.86145 0.83382 0.0
C565 C 0.45928 0.78955 0.77649 0.0
N566 N 0.49926 0.85214 0.91767 0.0
N567 N 0.39974 0.78345 0.71288 0.0
H568 H 0.49179 0.75406 0.75015 0.0
H569 H 0.45882 0.75893 0.69457 0.0
H570 H 0.37908 0.79519 0.69715 0.0
H571 H 0.39503 0.75412 0.69311 0.0
H572 H 0.49753 0.87696 0.94204 0.0
H573 H 0.51237 0.83506 0.94078 0.0
H574 H 0.50097 0.92336 0.87488 0.0
H575 H 0.46405 0.92228 0.81886 0.0
C576 C 0.18903 0.60938 0.82527 0.0
C577 C 0.2126 0.59732 0.78525 0.0
C578 C 0.26765 0.67672 0.77425 0.0
C579 C 0.25017 0.68643 0.82619 0.0
N580 N 0.19352 0.66027 0.90239 0.0
N581 N 0.27222 0.61991 0.7152 0.0
C582 C 0.2106 0.65215 0.85216 0.0
C583 C 0.25106 0.63142 0.75707 0.0
N584 N 0.14521 0.5805 0.83495 0.0
N585 N 0.29903 0.71062 0.74055 0.0
H586 H 0.25902 0.58701 0.70074 0.0
H587 H 0.30296 0.64228 0.69664 0.0
H588 H 0.31184 0.74399 0.75186 0.0
H589 H 0.30951 0.70575 0.6991 0.0
H590 H 0.12491 0.58876 0.85993 0.0
H591 H 0.12883 0.55144 0.80975 0.0
H592 H 0.16655 0.63528 0.92561 0.0
H593 H 0.20906 0.69115 0.92362 0.0
C594 C 0.39897 0.55844 0.84311 0.0
C595 C 0.36633 0.57236 0.83897 0.0
C596 C 0.41737 0.6341 0.77578 0.0
C597 C 0.45252 0.62574 0.78924 0.0
N598 N 0.47118 0.56956 0.81045 0.0
N599 N 0.34783 0.62763 0.80473 0.0
C600 C 0.44173 0.58469 0.81577 0.0
C601 C 0.37654 0.61132 0.80633 0.0
N602 N 0.38969 0.52126 0.87529 0.0
N603 N 0.42282 0.66484 0.7342 0.0
H604 H 0.31979 0.61521 0.83174 0.0
H605 H 0.35501 0.65656 0.78133 0.0
H606 H 0.45126 0.68063 0.7076 0.0
H607 H 0.45126 0.68063 0.7076 0.0
H608 H 0.41324 0.51178 0.88537 0.0
H609 H 0.35897 0.50147 0.89583 0.0
H610 H 0.46388 0.53765 0.82268 0.0
H611 H 0.50056 0.58725 0.78605 0.0
C612 C 0.83991 0.91173 0.64118 0.0
C613 C 0.86615 0.94936 0.60579 0.0
C614 C 0.92212 0.92499 0.60203 0.0
C615 C 0.90283 0.89792 0.65321 0.0
N616 N 0.83879 0.86197 0.71821 0.0
N617 N 0.92943 0.98413 0.53958 0.0
C618 C 0.86007 0.88991 0.67162 0.0
C619 C 0.90563 0.95284 0.58128 0.0
N620 N 0.79542 0.89619 0.64371 0.0
N621 N 0.95558 0.92366 0.57171 0.0
H622 H 0.91965 1.00609 0.52278 0.0
H623 H 0.91965 1.00609 0.52278 0.0
H624 H 0.96728 0.90205 0.58309 0.0
H625 H 0.96882 0.9418 0.53255 0.0
H626 H 0.77362 0.86544 0.66258 0.0
H627 H 0.78106 0.91169 0.61944 0.0
H628 H 0.80914 0.85798 0.7361 0.0
H629 H 0.85264 0.84562 0.74157 0.0
C630 C 0.10343 1.00716 0.63283 0.0
C631 C 0.14145 1.01604 0.66699 0.0
C632 C 0.12817 0.94057 0.64265 0.0
C633 C 0.088 0.93112 0.61432 0.0
N634 N 0.05394 0.96273 0.55369 0.0
N635 N 0.19066 0.99076 0.70504 0.0
C636 C 0.0812 0.96704 0.59999 0.0
C637 C 0.15444 0.98274 0.67132 0.0
N638 N 0.08697 0.03578 0.63361 0.0
N639 N 0.14273 0.91067 0.63735 0.0
H640 H 0.21043 0.02101 0.72667 0.0
H641 H 0.19924 0.96659 0.71529 0.0
H642 H 0.12532 0.88194 0.61162 0.0
H643 H 0.17412 0.91699 0.65104 0.0
H644 H 0.05695 0.02848 0.61321 0.0
H645 H 0.09993 0.06364 0.66106 0.0
H646 H 0.05097 0.9893 0.53695 0.0
H647 H 0.0388 0.93375 0.52818 0.0
C648 C 0.07448 0.17047 0.68751 0.0
C649 C 0.03962 0.12922 0.66524 0.0
C650 C 0.09001 0.13348 0.58457 0.0
C651 C 0.12462 0.17302 0.61008 0.0
N652 N 0.13968 0.2397 0.65993 0.0
N653 N 1.01084 0.0804 0.57926 0.0
C654 C 0.11314 0.19519 0.65257 0.0
C655 C 0.04616 0.1132 0.60951 0.0
N656 N 0.07176 0.1854 0.74288 0.0
N657 N 0.1003 0.11443 0.53854 0.0
H658 H 0.97819 0.06588 0.59465 0.0
H659 H 1.01343 0.07043 0.53633 0.0
H660 H 0.13189 0.13072 0.51894 0.0
H661 H 0.07859 0.08286 0.52165 0.0
H662 H 0.098 0.21401 0.76172 0.0
H663 H 0.04566 0.16661 0.77225 0.0
H664 H 0.1307 0.25823 0.68753 0.0
H665 H 0.16704 0.25764 0.63199 0.0
C666 C 0.1119 0.10811 0.11792 0.0
C667 C 0.1411 0.12912 0.16711 0.0
C668 C 0.12887 0.1926 0.1547 0.0
C669 C 0.09167 0.16686 0.1184 0.0
N670 N 0.05223 0.10318 0.05548 0.0
N671 N 0.17721 0.19269 0.23278 0.0
C672 C 0.08522 0.1258 0.09613 0.0
C673 C 0.1495 0.17185 0.1857 0.0
N674 N 0.11086 0.07239 0.09058 0.0
N675 N 0.14607 0.23737 0.15609 0.0
H676 H 0.19256 0.17816 0.25694 0.0
H677 H 0.18155 0.22243 0.25071 0.0
H678 H 0.13352 0.25234 0.12757 0.0
H679 H 0.17594 0.25879 0.17751 0.0
H680 H 0.09433 0.05875 0.05063 0.0
H681 H 0.12957 0.05847 0.10555 0.0
H682 H 0.04137 0.07049 0.04236 0.0
H683 H 0.03488 0.11751 0.03626 0.0
C684 C 0.90579 0.96192 0.09003 0.0
C685 C 0.87119 0.92817 0.1241 0.0
C686 C 0.87798 0.98333 0.19763 0.0
C687 C 0.91392 1.01735 0.16541 0.0
N688 N 0.95058 0.04089 0.06966 0.0
N689 N 0.81058 0.91225 0.18844 0.0
C690 C 0.92436 1.0073 0.10787 0.0
C691 C 0.85289 0.94076 0.17113 0.0
N692 N 0.92143 0.95007 0.04164 0.0
N693 N 0.86741 0.99157 0.25302 0.0
H694 H 0.79146 0.88344 0.16363 0.0
H695 H 0.79377 0.92061 0.21991 0.0
H696 H 0.8859 0.02232 0.27404 0.0
H697 H 0.84318 0.96668 0.27978 0.0
H698 H 0.94987 0.97224 0.01808 0.0
H699 H 0.90587 0.9171 0.02678 0.0
H700 H 0.95535 0.03551 0.02523 0.0
H701 H 0.9647 0.07439 0.08118 0.0
C702 C 0.08344 0.95486 0.09174 0.0
C703 C 0.11741 0.95094 0.12067 0.0
C704 C 0.06326 0.90183 0.19467 0.0
C705 C 1.0309 0.9114 0.17071 0.0
N706 N 1.01198 0.95147 0.09937 0.0
N707 N 0.13265 0.90212 0.17688 0.0
C708 C 0.04154 0.93926 0.11992 0.0
C709 C 0.10518 0.91878 0.16575 0.0
N710 N 0.09052 0.96963 0.03462 0.0
N711 N 0.0542 0.8775 0.2458 0.0
H712 H 0.1605 0.91169 0.14984 0.0
H713 H 0.1245 0.87544 0.20547 0.0
H714 H 1.02443 0.86677 0.26892 0.0
H715 H 0.07765 0.87216 0.26805 0.0
H716 H 0.06647 0.97109 0.00811 0.0
H717 H 0.11862 0.97324 0.0124 0.0
H718 H 1.01953 0.97463 0.06529 0.0
H719 H 0.98168 0.94154 0.12064 0.0
C720 C 0.54514 0.14035 0.27064 0.0
C721 C 0.57024 0.13006 0.31273 0.0
C722 C 0.6027 0.11082 0.22726 0.0
C723 C 0.57782 0.12134 0.18641 0.0
N724 N 0.51141 0.12677 0.17277 0.0
N725 N 0.63709 0.12433 0.32422 0.0
C726 C 0.54461 0.12989 0.20906 0.0
C727 C 0.60258 0.11977 0.28939 0.0
N728 N 0.52619 0.16533 0.28709 0.0
N729 N 0.62559 0.09077 0.20643 0.0
H730 H 0.64419 0.13949 0.36589 0.0
H731 H 0.66332 0.12058 0.30805 0.0
H732 H 0.62478 0.08228 0.16156 0.0
H733 H 0.64063 0.07789 0.23427 0.0
H734 H 0.51102 0.17658 0.25684 0.0
H735 H 0.53247 0.18202 0.32748 0.0
H736 H 0.48405 0.12867 0.18877 0.0
H737 H 0.50738 0.11571 0.1289 0.0
C738 C 0.90555 0.4171 0.28903 0.0
C739 C 0.92437 0.45531 0.32742 0.0
C740 C 0.94863 0.50262 0.23741 0.0
C741 C 0.9326 0.46396 0.20103 0.0
N742 N 0.90967 0.3859 0.19486 0.0
N743 N 0.94907 0.53407 0.33439 0.0
C744 C 0.91603 0.42187 0.2277 0.0
C745 C 0.94239 0.49831 0.30074 0.0
N746 N 0.87324 0.37651 0.30924 0.0
N747 N 0.97048 0.5435 0.21061 0.0
H748 H 0.93728 0.53115 0.37772 0.0
H749 H 0.96036 0.5659 0.3175 0.0
H750 H 0.97636 0.54705 0.16472 0.0
H751 H 0.98628 0.57364 0.23344 0.0
H752 H 0.85589 0.3489 0.2816 0.0
H753 H 0.85836 0.37208 0.3507 0.0
H754 H 0.90129 0.35527 0.21413 0.0
H755 H 0.91846 0.38797 0.1502 0.0
C756 C 0.61173 0.515 0.27634 0.0
C757 C 0.59485 0.47985 0.3195 0.0
C758 C 0.58271 0.42813 0.23873 0.0
C759 C 0.58995 0.46095 0.19479 0.0
N760 N 0.60041 0.53486 0.17719 0.0
N761 N 0.5515 0.40018 0.33546 0.0
C762 C 0.6014 0.50433 0.21487 0.0
C763 C 0.57558 0.4355 0.29869 0.0
N764 N 0.63757 0.5585 0.29292 0.0
N765 N 0.58603 0.39138 0.22484 0.0
H766 H 0.5439 0.40372 0.3792 0.0
H767 H 0.53502 0.36741 0.31986 0.0
H768 H 0.59884 0.38796 0.18431 0.0
H769 H 0.58278 0.368 0.25677 0.0
H770 H 0.6537 0.58402 0.26181 0.0
H771 H 0.64558 0.56896 0.33694 0.0
H772 H 0.60505 0.56546 0.19215 0.0
H773 H 0.5896 0.52794 0.13319 0.0
C774 C 0.90231 0.49071 0.78771 0.0
C775 C 0.91987 0.47063 0.8272 0.0
C776 C 0.94706 0.44849 0.7393 0.0
C777 C 0.93302 0.47256 0.70194 0.0
N778 N 0.91077 0.52848 0.69445 0.0
N779 N 0.94364 0.41592 0.83665 0.0
C780 C 0.91552 0.49785 0.72742 0.0
C781 C 0.93847 0.44562 0.80206 0.0
N782 N 0.86892 0.49846 0.80561 0.0
N783 N 0.96886 0.42867 0.71388 0.0
H784 H 0.93016 0.40694 0.87924 0.0
H785 H 0.95576 0.39559 0.82125 0.0
H786 H 0.97688 0.43212 0.66856 0.0
H787 H 0.98213 0.41199 0.73736 0.0
H788 H 0.85267 0.50942 0.77674 0.0
H789 H 0.85232 0.48703 0.84592 0.0
H790 H 0.90129 0.55013 0.71329 0.0
H791 H 0.92197 0.53666 0.65078 0.0
C792 C 0.60725 0.49792 0.73401 0.0
C793 C 0.57874 0.4638 0.69375 0.0
C794 C 0.52912 0.42614 0.77841 0.0
C795 C 0.56377 0.45342 0.81943 0.0
N796 N 0.64013 0.51329 0.83193 0.0
N797 N 0.51086 0.39254 0.681 0.0
C798 C 0.60394 0.48912 0.79623 0.0
C799 C 0.539 0.42721 0.71663 0.0
N800 N 0.63678 0.53932 0.71302 0.0
N801 N 0.48606 0.40057 0.79741 0.0
H802 H 0.51359 0.39202 0.63506 0.0
H803 H 0.48547 0.36263 0.69817 0.0
H804 H 0.47581 0.40055 0.84105 0.0
H805 H 0.45935 0.38376 0.76815 0.0
H806 H 0.65575 0.56623 0.74116 0.0
H807 H 0.63805 0.54787 0.66812 0.0
H808 H 0.67106 0.53685 0.81489 0.0
H809 H 0.64119 0.50669 0.87693 0.0
C810 C 0.6199 0.11038 0.76737 0.0
C811 C 0.60395 0.12973 0.81057 0.0
C812 C 0.60201 0.17707 0.73081 0.0
C813 C 0.60817 0.15138 0.68576 0.0
N814 N 0.61408 0.0854 0.66542 0.0
N815 N 0.56885 0.17444 0.82629 0.0
C816 C 0.61465 0.11566 0.70503 0.0
C817 C 0.59099 0.16036 0.78993 0.0
N818 N 0.64078 0.08745 0.78487 0.0
N819 N 0.60948 0.21895 0.71858 0.0
H820 H 0.55844 0.1618 0.86893 0.0
H821 H 0.55642 0.19472 0.81111 0.0
H822 H 0.62365 0.23525 0.67858 0.0
H823 H 0.60784 0.2396 0.7512 0.0
H824 H 0.65693 0.0772 0.7548 0.0
H825 H 0.6453 0.08176 0.82923 0.0
H826 H 0.61402 0.05652 0.67903 0.0
H827 H 0.60919 0.08626 0.61988 0.0
C828 C 0.29059 0.50073 0.57459 0.0
C829 C 0.25906 0.4711 0.53206 0.0
C830 C 0.206 0.43746 0.61387 0.0
C831 C 0.24085 0.45959 0.65685 0.0
N832 N 0.31983 0.50815 0.67404 0.0
N833 N 0.18895 0.40287 0.51684 0.0
C834 C 0.28443 0.48928 0.6359 0.0
C835 C 0.21732 0.43693 0.55312 0.0
N836 N 0.32442 0.54159 0.55767 0.0
N837 N 0.16208 0.41792 0.62956 0.0
H838 H 0.19687 0.39888 0.47334 0.0
H839 H 0.15977 0.37564 0.53277 0.0
H840 H 0.15101 0.41739 0.67283 0.0
H841 H 0.13655 0.40533 0.59793 0.0
H842 H 0.34606 0.56518 0.58821 0.0
H843 H 0.32662 0.55456 0.51503 0.0
H844 H 0.35259 0.52752 0.65921 0.0
H845 H 0.31708 0.50069 0.71918 0.0
C846 C 0.60625 0.8325 0.57378 0.0
C847 C 0.5922 0.795 0.53557 0.0
C848 C 0.56887 0.74619 0.62207 0.0
C849 C 0.58543 0.78349 0.66193 0.0
N850 N 0.60324 0.86022 0.672 0.0
N851 N 0.57715 0.71919 0.52672 0.0
C852 C 0.6001 0.82646 0.63692 0.0
C853 C 0.57924 0.75296 0.56066 0.0
N854 N 0.627 0.87418 0.54923 0.0
N855 N 0.53867 0.70426 0.64087 0.0
H856 H 0.58758 0.72323 0.48256 0.0
H857 H 0.57114 0.68895 0.545 0.0
H858 H 0.52309 0.69785 0.68213 0.0
H859 H 0.52319 0.67709 0.61204 0.0
H860 H 0.64221 0.90345 0.5741 0.0
H861 H 0.63325 0.87935 0.50354 0.0
H862 H 0.61077 0.89138 0.65577 0.0
H863 H 0.59166 0.85539 0.71568 0.0
C864 C 0.22215 0.78015 0.62695 0.0
C865 C 0.26537 0.81022 0.65 0.0
C866 C 0.29142 0.83655 0.54779 0.0
C867 C 0.24964 0.80492 0.52455 0.0
N868 N 0.17145 0.75736 0.54215 0.0
N869 N 0.34442 0.84847 0.62411 0.0
C870 C 0.21382 0.78 0.56445 0.0
C871 C 0.30104 0.83353 0.60833 0.0
N872 N 0.19067 0.74817 0.66301 0.0
N873 N 0.32201 0.87027 0.51303 0.0
H874 H 0.35356 0.83955 0.66368 0.0
H875 H 0.37065 0.86263 0.59365 0.0
H876 H 0.315 0.87645 0.47009 0.0
H877 H 0.35183 0.89595 0.5301 0.0
H878 H 0.15968 0.72342 0.64797 0.0
H879 H 0.19769 0.74172 0.7058 0.0
H880 H 0.14297 0.7419 0.56858 0.0
H881 H 0.16469 0.75827 0.49692 0.0
C882 C 0.60159 0.77469 0.07572 0.0
C883 C 0.59484 0.80297 0.03608 0.0
C884 C 0.60458 0.85106 0.12174 0.0
C885 C 0.5983 0.81628 0.16202 0.0
N886 N 0.58365 0.74024 0.17256 0.0
N887 N 0.5873 0.86899 0.02519 0.0
C888 C 0.59521 0.77684 0.13788 0.0
C889 C 0.59585 0.84161 0.05988 0.0
N890 N 0.61508 0.74632 0.05418 0.0
N891 N 0.62106 0.89385 0.14139 0.0
H892 H 0.58301 0.86602 0.97935 0.0
H893 H 0.58171 0.89362 0.04323 0.0
H894 H 0.63179 0.90398 0.18491 0.0
H895 H 0.62982 0.92056 0.11249 0.0
H896 H 0.6236 0.72751 0.08202 0.0
H897 H 0.62294 0.74593 0.00932 0.0
H898 H 0.57758 0.70986 0.15472 0.0
H899 H 0.57487 0.73822 0.21725 0.0
C900 C 0.27125 0.83531 0.06436 0.0
C901 C 0.24639 0.79921 0.02456 0.0
C902 C 0.2201 0.74804 0.10872 0.0
C903 C 0.24231 0.78398 0.15023 0.0
N904 N 0.30266 0.85937 0.1633 0.0
N905 N 0.18284 0.72555 0.01381 0.0
C906 C 0.27143 0.8273 0.12702 0.0
C907 C 0.21612 0.75709 0.0482 0.0
N908 N 0.29359 0.87757 0.04175 0.0
N909 N 0.20727 0.70519 0.12468 0.0
H910 H 0.17586 0.732 0.97101 0.0
H911 H 0.15816 0.69529 0.03115 0.0
H912 H 0.2174 0.6971 0.16417 0.0
H913 H 0.19382 0.67882 0.0944 0.0
H914 H 0.30962 0.9062 0.06774 0.0
H915 H 0.29209 0.88417 0.99662 0.0
H916 H 0.32676 0.89071 0.1486 0.0
H917 H 0.30904 0.85272 0.20634 0.0
C918 C 0.21397 0.43579 0.06663 0.0
C919 C 0.25246 0.46322 0.0318 0.0
C920 C 0.29303 0.49891 0.12272 0.0
C921 C 0.25859 0.46602 0.158 0.0
N922 N 0.17835 0.42068 0.16388 0.0
N923 N 0.33002 0.5201 0.02773 0.0
C924 C 0.21637 0.43895 0.13045 0.0
C925 C 0.29245 0.49419 0.06019 0.0
N926 N 0.17531 0.40654 0.03821 0.0
N927 N 0.32277 0.53829 0.14831 0.0
H928 H 0.33103 0.51874 0.98145 0.0
H929 H 0.361 0.54029 0.0476 0.0
H930 H 0.32152 0.54473 0.19357 0.0
H931 H 0.34288 0.56631 0.12259 0.0
H932 H 0.14615 0.384 0.05984 0.0
H933 H 0.17317 0.40291 0.99191 0.0
H934 H 0.14648 0.40574 0.1456 0.0
H935 H 0.17792 0.4255 0.20951 0.0
C936 C 0.92784 0.83965 0.89902 0.0
C937 C 0.91364 0.8008 0.86359 0.0
C938 C 0.88575 0.75505 0.9547 0.0
C939 C 0.90448 0.79436 0.99019 0.0
N940 N 0.95115 0.87393 0.9963 0.0
N941 N 0.8842 0.7214 0.85888 0.0
C942 C 0.92784 0.83658 0.96226 0.0
C943 C 0.89382 0.75836 0.89174 0.0
N944 N 0.93979 0.8795 0.87214 0.0
N945 N 0.85914 0.71467 0.98078 0.0
H946 H 0.88887 0.72249 0.81291 0.0
H947 H 0.8745 0.69035 0.87763 0.0
H948 H 0.85313 0.7111 0.02648 0.0
H949 H 0.84058 0.68531 0.95679 0.0
H950 H 0.94629 0.9081 0.89566 0.0
H951 H 0.93827 0.88272 0.82611 0.0
H952 H 0.9729 0.90514 0.97843 0.0
H953 H 0.9519 0.8729 0.04275 0.0
C954 C 0.27254 0.16762 0.90224 0.0
C955 C 0.24771 0.12872 0.86671 0.0
C956 C 0.21521 0.08581 0.95699 0.0
C957 C 0.24581 0.12163 0.9931 0.0
N958 N 0.28516 0.20194 0.00034 0.0
N959 N 0.19672 0.04953 0.86143 0.0
C960 C 0.26969 0.16447 0.96612 0.0
C961 C 0.21994 0.08747 0.89444 0.0
N962 N 0.29919 0.20739 0.87444 0.0
N963 N 0.17715 0.05294 0.98174 0.0
H964 H 0.19681 0.04904 0.81507 0.0
H965 H 0.1798 1.01795 0.8808 0.0
H966 H 0.16995 0.05255 0.02689 0.0
H967 H 0.15005 0.03157 0.95535 0.0
H968 H 0.31996 0.23703 0.89649 0.0
H969 H 0.30272 0.21026 0.82816 0.0
H970 H 0.29879 0.23394 0.98295 0.0
H971 H 0.27896 0.20126 0.04574 0.0
C972 C 0.88395 0.1069 0.90025 0.0
C973 C 0.92038 0.13275 0.86162 0.0
C974 C 0.9697 0.16305 0.9476 0.0
C975 C 0.93298 0.14036 0.98842 0.0
N976 N 0.85804 0.07845 0.00011 0.0
N977 N 0.99421 0.19482 0.84946 0.0
C978 C 0.89048 0.10921 0.96383 0.0
C979 C 0.96169 0.16423 0.8858 0.0
N980 N 0.84281 0.0808 0.87552 0.0
N981 N 1.01276 0.1785 0.96562 0.0
H982 H 0.98981 0.19638 0.80371 0.0
H983 H 1.02352 0.2216 0.86587 0.0
H984 H 1.0213 0.17049 0.00627 0.0
H985 H 0.03981 0.1921 0.93646 0.0
H986 H 0.81342 0.06397 0.89983 0.0
H987 H 0.83762 0.07924 0.82949 0.0
H988 H 0.82717 0.05349 0.9852 0.0
H989 H 0.86383 0.07348 0.04419 0.0
C990 C 0.29267 0.14971 0.39365 0.0
C991 C 0.24935 0.12686 0.36787 0.0
C992 C 0.21632 0.11283 0.46819 0.0
C993 C 0.25911 0.13954 0.49351 0.0
N994 N 0.33803 0.18825 0.4801 0.0
N995 N 0.16992 0.09531 0.38049 0.0
C996 C 0.29739 0.15932 0.45616 0.0
C997 C 0.21118 0.11076 0.40523 0.0
N998 N 0.3292 0.16085 0.35894 0.0
N999 N 0.18043 0.08877 0.50446 0.0
H1000 H 0.16493 0.09521 0.33469 0.0
H1001 H 0.14147 0.08736 0.40541 0.0
H1002 H 0.18274 0.09001 0.55084 0.0
H1003 H 0.14933 0.06468 0.48863 0.0
H1004 H 0.36122 0.17304 0.37601 0.0
H1005 H 0.32694 0.1549 0.3132 0.0
H1006 H 0.36643 0.20747 0.45463 0.0
H1007 H 0.34265 0.1952 0.52559 0.0
C1008 C 0.8865 0.08774 0.39158 0.0
C1009 C 0.91753 0.1297 0.36749 0.0
C1010 C 0.93875 0.15884 0.47076 0.0
C1011 C 0.91475 0.11465 0.49394 0.0
N1012 N 0.86684 0.03603 0.47312 0.0
N1013 N 0.96906 0.20747 0.38459 0.0
C1014 C 0.88882 0.079 0.45332 0.0
C1015 C 0.94243 0.16585 0.40747 0.0
N1016 N 0.85332 0.05652 0.35659 0.0
N1017 N 0.9554 0.19447 0.50877 0.0
H1018 H 0.96786 0.21508 0.33981 0.0
H1019 H 0.99306 0.23407 0.40932 0.0
H1020 H 0.95264 0.19151 0.5549 0.0
H1021 H 0.96851 0.22732 0.49482 0.0
H1022 H 0.82708 0.02702 0.37325 0.0
H1023 H 0.84814 0.06225 0.31261 0.0
H1024 H 0.85282 1.00853 0.44477 0.0
H1025 H 0.86625 0.02742 0.51747 0.0
C1026 C 0.95863 0.80322 0.3883 0.0
C1027 C 0.91691 0.79007 0.36239 0.0
C1028 C 0.88369 0.77888 0.46308 0.0
C1029 C 0.92697 0.79579 0.48865 0.0
N1030 N 1.00577 0.84598 0.46827 0.0
N1031 N 0.8374 0.75261 0.37364 0.0
C1032 C 0.9646 0.81404 0.44932 0.0
C1033 C 0.87864 0.77399 0.39961 0.0
N1034 N 0.99272 0.80492 0.35558 0.0
N1035 N 0.84851 0.77227 0.498 0.0
H1036 H 0.83333 0.74739 0.32764 0.0
H1037 H 0.8076 0.73631 0.39723 0.0
H1038 H 0.85207 0.78269 0.54213 0.0
H1039 H 0.81677 0.76248 0.48169 0.0
H1040 H 1.02316 0.81216 0.3747 0.0
H1041 H 0.98842 0.7926 0.31229 0.0
H1042 H 0.03302 0.86199 0.43963 0.0
H1043 H 1.01076 0.8619 0.50915 0.0
C1044 C 0.46568 0.98488 0.88394 0.0
C1045 C 0.4332 0.9508 0.92196 0.0
C1046 C 0.4965 0.97466 0.99646 0.0
C1047 C 0.52973 1.00506 0.95553 0.0
N1048 N 0.54337 0.0244 0.85237 0.0
N1049 N 0.42086 0.91415 0.01699 0.0
C1050 C 0.51331 1.00638 0.89734 0.0
C1051 C 0.44993 0.94615 0.97879 0.0
N1052 N 0.45183 0.99603 0.83311 0.0
N1053 N 0.5095 0.97323 0.05359 0.0
H1054 H 0.38645 0.8972 0.01011 0.0
H1055 H 0.43072 0.90354 0.05457 0.0
H1056 H 0.54294 0.98941 0.06652 0.0
H1057 H 0.48739 0.95753 0.08858 0.0
H1058 H 0.47319 0.02303 0.80659 0.0
H1059 H 0.41848 0.98134 0.8207 0.0
H1060 H 0.5345 0.02327 0.80771 0.0
H1061 H 0.57664 0.03396 0.85956 0.0
C1062 C 0.04427 0.51748 0.90307 0.0
C1063 C 0.04466 0.53079 0.96367 0.0
C1064 C 0.1016 0.50636 0.98326 0.0
C1065 C 0.09921 0.49076 0.92339 0.0
N1066 N 0.05989 0.47436 0.83005 0.0
N1067 N 0.08246 0.54613 0.05777 0.0
C1068 C 0.06762 0.49382 0.88492 0.0
C1069 C 0.07579 0.52714 0.00251 0.0
N1070 N 1.02498 0.53105 0.8611 0.0
N1071 N 0.12715 0.49891 0.0232 0.0
H1072 H 0.06609 0.56307 0.07183 0.0
H1073 H 0.10686 0.54915 0.08762 0.0
H1074 H 0.14444 0.48237 0.01154 0.0
H1075 H 0.12826 0.50503 0.06872 0.0
H1076 H 1.02767 0.52755 0.81542 0.0
H1077 H 1.01132 0.55113 0.87158 0.0
H1078 H 0.03537 0.47231 0.80121 0.0
H1079 H 0.07593 0.45746 0.81496 0.0
C1080 C 0.55231 0.58062 0.89184 0.0
C1081 C 0.55503 0.61445 0.93162 0.0
C1082 C 0.5218 0.55331 0.00961 0.0
C1083 C 0.51589 0.51894 0.96832 0.0
N1084 N 0.51288 0.50207 0.86411 0.0
N1085 N 0.53631 0.62894 0.02941 0.0
C1086 C 0.52779 0.53344 0.90785 0.0
C1087 C 0.53777 0.59924 0.9906 0.0
N1088 N 0.57301 0.59298 0.83781 0.0
N1089 N 0.51218 0.54208 0.0683 0.0
H1090 H 0.55114 0.66289 0.02029 0.0
H1091 H 0.51879 0.61981 0.06946 0.0
H1092 H 0.4959 0.50909 0.08296 0.0
H1093 H 0.52169 0.56532 0.10264 0.0
H1094 H 0.57659 0.57092 0.80972 0.0
H1095 H 0.59001 0.6259 0.82336 0.0
H1096 H 0.51736 0.50963 0.81878 0.0
H1097 H 0.49039 0.46886 0.87322 0.0
C1098 C 0.07957 0.55645 0.50335 0.0
C1099 C 0.04923 0.52099 0.46505 0.0
C1100 C 0.07323 0.57917 0.38361 0.0
C1101 C 0.10355 0.61469 0.42191 0.0
N1102 N 0.12988 0.63602 0.52214 0.0
N1103 N 1.03027 0.49911 0.36296 0.0
C1104 C 0.10525 0.60253 0.48269 0.0
C1105 C 0.04968 0.53271 0.40362 0.0
N1106 N 0.08555 0.54529 0.55974 0.0
N1107 N 0.066 0.58964 0.32759 0.0
H1108 H 1.01624 0.46576 0.37509 0.0
H1109 H 0.03293 0.5041 0.31703 0.0
H1110 H 0.08224 0.62201 0.31102 0.0
H1111 H 0.04171 0.56681 0.29898 0.0
H1112 H 0.1094 0.56713 0.58963 0.0
H1113 H 0.06921 0.51243 0.57495 0.0
H1114 H 0.13015 0.63184 0.56801 0.0
H1115 H 0.14737 0.66942 0.5095 0.0
C1116 C 0.5168 0.51795 0.40175 0.0
C1117 C 0.53026 0.53185 0.46191 0.0
C1118 C 0.44875 0.50641 0.48109 0.0
C1119 C 0.43526 0.48829 0.42213 0.0
N1120 N 0.45923 0.46867 0.33186 0.0
N1121 N 0.50508 0.53736 0.55998 0.0
C1122 C 0.47007 0.4905 0.38512 0.0
C1123 C 0.49476 0.52522 0.50163 0.0
N1124 N 0.54815 0.53585 0.35832 0.0
N1125 N 0.41714 0.50601 0.51812 0.0
H1126 H 0.53788 0.55603 0.57506 0.0
H1127 H 0.48141 0.52804 0.59371 0.0
H1128 H 0.38317 0.48831 0.5081 0.0
H1129 H 0.42442 0.52404 0.55768 0.0
H1130 H 0.54041 0.5311 0.31301 0.0
H1131 H 0.58023 0.56122 0.36818 0.0
H1132 H 0.48277 0.4665 0.30506 0.0
H1133 H 0.42633 0.44941 0.31763 0.0
C1134 C 0.52493 0.93883 0.47827 0.0
C1135 C 0.55978 0.94729 0.43545 0.0
C1136 C 0.57828 0.02629 0.44343 0.0
C1137 C 0.53688 1.01674 0.47238 0.0
N1138 N 0.46993 0.9582 0.51601 0.0
N1139 N 0.60982 1.00289 0.36486 0.0
C1140 C 0.50963 0.97098 0.48837 0.0
C1141 C 0.58289 0.99187 0.41365 0.0
N1142 N 0.50827 0.90157 0.513 0.0
N1143 N 0.61612 0.06641 0.44989 0.0
H1144 H 0.61239 0.97966 0.33823 0.0
H1145 H 0.62525 0.03501 0.34704 0.0
H1146 H 0.61964 0.08982 0.4814 0.0
H1147 H 0.64652 0.07289 0.43144 0.0
H1148 H 0.48546 0.89506 0.54723 0.0
H1149 H 0.5221 0.88076 0.51391 0.0
H1150 H 0.447 0.9251 0.52566 0.0
H1151 H 0.45868 0.9806 0.52515 0.0
C1152 C 0.1614 0.31131 0.33903 0.0
C1153 C 0.19616 0.33976 0.29829 0.0
C1154 C 0.13569 0.31123 0.21912 0.0
C1155 C 0.10145 0.28136 0.25917 0.0
N1156 N 0.08608 0.24972 0.35769 0.0
N1157 N 0.21522 0.35359 0.19429 0.0
C1158 C 0.11593 0.28068 0.31908 0.0
C1159 C 0.1828 0.33585 0.23686 0.0
N1160 N 0.17188 0.31326 0.39812 0.0
N1161 N 0.12351 0.31558 0.16273 0.0
H1162 H 0.249 0.36879 0.20434 0.0
H1163 H 0.20904 0.34833 0.14876 0.0
H1164 H 0.09059 0.29944 0.14811 0.0
H1165 H 0.14571 0.33623 0.13059 0.0
H1166 H 0.14819 0.29991 0.43194 0.0
H1167 H 0.20469 0.32961 0.41364 0.0
H1168 H 0.09483 0.24226 0.39878 0.0
H1169 H 0.05248 0.22957 0.34725 0.0
C1170 C 0.74026 0.85507 0.34651 0.0
C1171 C 0.71113 0.86145 0.30695 0.0
C1172 C 0.73168 0.82194 0.22925 0.0
C1173 C 0.76449 0.82005 0.26626 0.0
N1174 N 0.80054 0.83825 0.36213 0.0
N1175 N 0.69603 0.8652 0.20332 0.0
C1176 C 0.76867 0.8377 0.32543 0.0
C1177 C 0.71119 0.84835 0.24641 0.0
N1178 N 0.74108 0.86592 0.40526 0.0
N1179 N 0.72122 0.80037 0.17576 0.0
H1180 H 0.68704 0.8891 0.21316 0.0
H1181 H 0.69884 0.86068 0.15789 0.0
H1182 H 0.73559 0.78174 0.16116 0.0
H1183 H 0.69528 0.79768 0.14901 0.0
H1184 H 0.75584 0.85664 0.43863 0.0
H1185 H 0.72553 0.88323 0.42101 0.0
H1186 H 0.81053 0.85592 0.40203 0.0
H1187 H 0.81828 0.82204 0.35138 0.0
C1188 C 0.19854 0.86484 0.22962 0.0
C1189 C 0.18296 0.85048 0.28912 0.0
C1190 C 0.20728 0.93106 0.31176 0.0
C1191 C 0.2246 0.94564 0.25287 0.0
N1192 N 0.24429 0.92479 0.16006 0.0
N1193 N 0.16477 0.87073 0.38288 0.0
C1194 C 0.22302 0.91204 0.21368 0.0
C1195 C 0.18556 0.88422 0.32886 0.0
N1196 N 0.18605 0.83324 0.18627 0.0
N1197 N 0.2141 0.96295 0.35304 0.0
H1198 H 0.1474 0.83726 0.39544 0.0
H1199 H 0.1607 0.89139 0.41283 0.0
H1200 H 0.23155 0.99691 0.34317 0.0
H1201 H 0.20673 0.95672 0.39815 0.0
H1202 H 0.19143 0.84062 0.14098 0.0
H1203 H 0.16505 0.79953 0.19502 0.0
H1204 H 0.24808 0.90307 0.1317 0.0
H1205 H 0.26153 0.95784 0.1462 0.0
C1206 C 0.77775 0.93027 0.82763 0.0
C1207 C 0.77439 0.94748 0.77046 0.0
C1208 C 0.71462 0.86812 0.7469 0.0
C1209 C 0.71501 0.85178 0.80542 0.0
N1210 N 0.74742 0.87122 0.90321 0.0
N1211 N 0.72821 0.93031 0.68228 0.0
C1212 C 0.74696 0.88427 0.84583 0.0
C1213 C 0.73921 0.91569 0.73258 0.0
N1214 N 0.81026 0.95837 0.86607 0.0
N1215 N 0.69258 0.83784 0.70294 0.0
H1216 H 0.74433 0.96338 0.66877 0.0
H1217 H 0.70021 0.91002 0.65664 0.0
H1218 H 0.67865 0.80373 0.71004 0.0
H1219 H 0.6936 0.8464 0.65819 0.0
H1220 H 0.82003 0.94771 0.90367 0.0
H1221 H 0.82825 0.99274 0.85974 0.0
H1222 H 0.76424 0.89315 0.93798 0.0
H1223 H 0.72928 0.83798 0.9166 0.0
C1224 C 0.13293 0.83123 0.71657 0.0
C1225 C 0.09992 0.83152 0.75554 0.0
C1226 C 0.16206 0.86616 0.83238 0.0
C1227 C 0.19553 0.86846 0.79205 0.0
N1228 N 0.21156 0.86434 0.68888 0.0
N1229 N 0.08708 0.8542 0.85157 0.0
C1230 C 0.18037 0.85402 0.73233 0.0
C1231 C 0.11608 0.85074 0.81346 0.0
N1232 N 0.11946 0.80907 0.6636 0.0
N1233 N 0.17419 0.87841 0.89033 0.0
H1234 H 0.05288 0.83886 0.84352 0.0
H1235 H 0.09695 0.87347 0.89016 0.0
H1236 H 0.20735 0.894 0.90442 0.0
H1237 H 0.15158 0.87183 0.92479 0.0
H1238 H 0.14037 0.80299 0.6365 0.0
H1239 H 0.0866 0.79362 0.64883 0.0
H1240 H 0.20385 0.85897 0.64364 0.0
H1241 H 0.24557 0.88371 0.69739 0.0
C1242 C 0.20908 0.27966 0.8181 0.0
C1243 C 0.22633 0.28257 0.7589 0.0
C1244 C 0.1992 0.33682 0.73786 0.0
C1245 C 0.18699 0.33852 0.79838 0.0
N1246 N 0.18235 0.30942 0.89723 0.0
N1247 N 0.24507 0.32377 0.66687 0.0
C1248 C 0.19279 0.30927 0.83853 0.0
C1249 C 0.22421 0.31473 0.72081 0.0
N1250 N 0.20791 0.24792 0.85554 0.0
N1251 N 0.18262 0.35209 0.69476 0.0
H1252 H 0.26256 0.30818 0.65222 0.0
H1253 H 0.24813 0.34951 0.63943 0.0
H1254 H 0.15845 0.36056 0.70518 0.0
H1255 H 0.1864 0.34846 0.64935 0.0
H1256 H 0.19051 0.23889 0.89567 0.0
H1257 H 0.22322 0.22924 0.84518 0.0
H1258 H 0.1913 0.29465 0.93094 0.0
H1259 H 0.16562 0.32568 0.91253 0.0
C1260 C 0.80151 0.64342 0.55126 0.0
C1261 C 0.76745 0.6113 0.58993 0.0
C1262 C 0.82766 0.63914 0.66968 0.0
C1263 C 0.86211 0.66962 0.63013 0.0
N1264 N 0.88085 0.688 0.52689 0.0
N1265 N 0.75254 0.57672 0.68677 0.0
C1266 C 0.84855 0.66801 0.56919 0.0
C1267 C 0.78222 0.60879 0.64914 0.0
N1268 N 0.78938 0.65102 0.49649 0.0
N1269 N 0.8384 0.63915 0.72833 0.0
H1270 H 0.71876 0.55734 0.67692 0.0
H1271 H 0.76152 0.56785 0.72664 0.0
H1272 H 0.87127 0.65565 0.74362 0.0
H1273 H 0.81495 0.6241 0.76212 0.0
H1274 H 0.81091 0.67698 0.46877 0.0
H1275 H 0.75688 0.63365 0.48041 0.0
H1276 H 0.8744 0.68545 0.48128 0.0
H1277 H 0.91463 0.70245 0.53691 0.0
C1278 C 0.42195 0.21616 0.65211 0.0
C1279 C 0.37562 0.18782 0.6397 0.0
C1280 C 0.39838 0.13967 0.58246 0.0
C1281 C 0.44423 0.16516 0.59834 0.0
N1282 N 0.49425 0.22093 0.66871 0.0
N1283 N 0.32757 0.10699 0.63027 0.0
C1284 C 0.4545 0.20172 0.639 0.0
C1285 C 0.36552 0.14503 0.61513 0.0
N1286 N 0.4348 0.25592 0.67967 0.0
N1287 N 0.38464 0.10938 0.53728 0.0
H1288 H 0.32082 0.07574 0.61486 0.0
H1289 H 0.30735 0.10537 0.66545 0.0
H1290 H 0.4064 0.10535 0.50936 0.0
H1291 H 0.35126 0.09194 0.52398 0.0
H1292 H 0.4679 0.27939 0.68842 0.0
H1293 H 0.41216 0.26649 0.6907 0.0
H1294 H 0.50271 0.24508 0.70159 0.0
H1295 H 0.51611 0.20833 0.66679 0.0
C1296 C 0.84139 0.24242 0.59159 0.0
C1297 C 0.88507 0.28228 0.59967 0.0
C1298 C 0.89899 0.23378 0.66967 0.0
C1299 C 0.86038 0.19286 0.65077 0.0
N1300 N 0.79351 0.16157 0.59327 0.0
N1301 N 0.95576 0.31084 0.64947 0.0
C1302 C 0.83168 0.19839 0.6112 0.0
C1303 C 0.91396 0.27607 0.63916 0.0
N1304 N 0.80663 0.24436 0.56674 0.0
N1305 N 0.92027 0.23259 0.72025 0.0
H1306 H 0.96703 0.34257 0.63193 0.0
H1307 H 0.98017 0.30725 0.67211 0.0
H1308 H 0.90696 0.20419 0.74686 0.0
H1309 H 0.94628 0.26075 0.74011 0.0
H1310 H 0.80703 0.2735 0.55445 0.0
H1311 H 0.80703 0.2735 0.55445 0.0
H1312 H 0.77074 0.16321 0.5644 0.0
H1313 H 0.7848 0.12965 0.60807 0.0
C1314 C 0.40387 0.2197 0.16863 0.0
C1315 C 0.37429 0.18482 0.12879 0.0
C1316 C 0.39827 0.2452 0.05031 0.0
C1317 C 0.42953 0.27953 0.08913 0.0
N1318 N 0.46319 0.29646 0.18639 0.0
N1319 N 0.35688 0.16579 0.02533 0.0
C1320 C 0.43235 0.26553 0.14851 0.0
C1321 C 0.37524 0.19815 0.06788 0.0
N1322 N 0.40511 0.20882 0.22691 0.0
N1323 N 0.39172 0.25717 0.99485 0.0
H1324 H 0.34326 0.13213 0.0351 0.0
H1325 H 0.36028 0.17214 0.97973 0.0
H1326 H 0.40705 0.29009 0.98044 0.0
H1327 H 0.36962 0.23485 0.96388 0.0
H1328 H 0.41956 0.23205 0.26106 0.0
H1329 H 0.39061 0.17588 0.24145 0.0
H1330 H 0.47266 0.28871 0.22671 0.0
H1331 H 0.48065 0.3304 0.17643 0.0
C1332 C 0.82822 0.19369 0.16551 0.0
C1333 C 0.86307 0.19736 0.12687 0.0
C1334 C 0.80311 0.16042 0.04781 0.0
C1335 C 0.76833 0.15727 0.08619 0.0
N1336 N 0.74888 0.16549 0.18621 0.0
N1337 N 0.88272 0.19604 0.02451 0.0
C1338 C 0.78168 0.17294 0.14614 0.0
C1339 C 0.85002 0.18372 0.06626 0.0
N1340 N 0.84035 0.21269 0.22077 0.0
N1341 N 0.79155 0.14032 0.9933 0.0
H1342 H 0.91626 0.2166 0.03475 0.0
H1343 H 0.87666 0.19099 0.9789 0.0
H1344 H 0.75887 0.12408 0.97767 0.0
H1345 H 0.81363 0.13638 0.96578 0.0
H1346 H 0.81898 0.21597 0.25036 0.0
H1347 H 0.87348 0.22946 0.23506 0.0
H1348 H 0.75391 0.17126 0.2318 0.0
H1349 H 0.7152 0.14931 0.17461 0.0
C1350 C 0.91774 0.65038 0.11145 0.0
C1351 C 0.8834 0.60711 0.09499 0.0
C1352 C 0.82837 0.63383 0.12283 0.0
C1353 C 0.86293 0.67785 0.13562 0.0
N1354 N 0.94408 0.72676 0.13667 0.0
N1355 N 0.80292 0.55592 0.10407 0.0
C1356 C 0.90822 0.6854 0.12843 0.0
C1357 C 0.83797 0.59851 0.10584 0.0
N1358 N 0.96006 0.65718 0.11889 0.0
N1359 N 0.78531 0.62536 0.12614 0.0
H1360 H 0.80292 0.5291 0.08377 0.0
H1361 H 0.77263 0.5462 0.12522 0.0
H1362 H 0.77681 0.64879 0.14081 0.0
H1363 H 0.75781 0.59612 0.1115 0.0
H1364 H 0.98594 0.68557 0.13847 0.0
H1365 H 0.96854 0.63241 0.11322 0.0
H1366 H 0.97435 0.73729 0.11483 0.0
H1367 H 0.94518 0.74993 0.16654 0.0
loop_
_geom_bond_atom_site_label_1
_geom_bond_atom_site_label_2
_geom_bond_distance
_geom_bond_site_symmetry_2
_ccdc_geom_bond_type
Fe0 O2 1.918 1_556 S
Fe0 O5 1.997 . S
Fe0 O6 2.002 . S
Fe0 O11 1.976 . S
Fe0 O14 1.996 1_556 S
Fe1 O2 1.918 . S
Fe1 O9 1.997 1_554 S
Fe1 O12 1.996 1_554 S
Fe1 O16 1.976 . S
Fe1 O19 2.002 . S
O2 Fe0 1.918 1_554 S
O2 Fe1 1.918 . S
O2 Fe3 1.918 . S
Fe3 O2 1.918 . S
Fe3 O4 2.002 . S
Fe3 O13 1.976 . S
Fe3 O17 1.996 . S
Fe3 O20 1.997 . S
O4 Fe3 2.002 . S
O4 C21 1.295 1_554 S
O5 Fe0 1.997 . S
O5 C21 1.235 . S
O6 Fe0 2.002 . S
O6 C7 1.295 . S
C7 O6 1.295 . S
C7 O9 1.235 . S
C8 O13 1.287 . S
C8 O14 1.255 . S
O9 Fe1 1.997 1_556 S
O9 C7 1.235 . S
C10 O16 1.287 . S
C10 O17 1.255 . S
O11 Fe0 1.976 . S
O11 C18 1.287 . S
O12 Fe1 1.996 1_556 S
O12 C18 1.255 . S
O13 Fe3 1.976 . S
O13 C8 1.287 . S
O14 Fe0 1.996 1_554 S
O14 C8 1.255 . S
C15 O19 1.295 . S
C15 O20 1.235 . S
O16 Fe1 1.976 . S
O16 C10 1.287 . S
O17 Fe3 1.996 . S
O17 C10 1.255 . S
C18 O11 1.287 . S
C18 O12 1.255 . S
O19 Fe1 2.002 . S
O19 C15 1.295 . S
O20 Fe3 1.997 . S
O20 C15 1.235 . S
C21 O4 1.295 1_556 S
C21 O5 1.235 . S
Fe22 O24 1.918 1_556 S
Fe22 O27 1.997 . S
Fe22 O28 2.002 . S
Fe22 O33 1.976 . S
Fe22 O36 1.996 1_556 S
Fe23 O24 1.918 . S
Fe23 O31 1.997 1_554 S
Fe23 O34 1.996 1_554 S
Fe23 O38 1.976 . S
Fe23 O41 2.002 . S
O24 Fe22 1.918 1_554 S
O24 Fe23 1.918 . S
O24 Fe25 1.918 . S
Fe25 O24 1.918 . S
Fe25 O26 2.002 . S
Fe25 O35 1.976 . S
Fe25 O39 1.996 . S
Fe25 O42 1.997 . S
O26 Fe25 2.002 . S
O26 C43 1.295 1_554 S
O27 Fe22 1.997 . S
O27 C43 1.235 . S
O28 Fe22 2.002 . S
O28 C29 1.295 . S
C29 O28 1.295 . S
C29 O31 1.235 . S
C30 O35 1.287 . S
C30 O36 1.255 . S
O31 Fe23 1.997 1_556 S
O31 C29 1.235 . S
C32 O38 1.287 . S
C32 O39 1.255 . S
O33 Fe22 1.976 . S
O33 C40 1.287 . S
O34 Fe23 1.996 1_556 S
O34 C40 1.255 . S
O35 Fe25 1.976 . S
O35 C30 1.287 . S
O36 Fe22 1.996 1_554 S
O36 C30 1.255 . S
C37 O41 1.295 . S
C37 O42 1.235 . S
O38 Fe23 1.976 . S
O38 C32 1.287 . S
O39 Fe25 1.996 . S
O39 C32 1.255 . S
C40 O33 1.287 . S
C40 O34 1.255 . S
O41 Fe23 2.002 . S
O41 C37 1.295 . S
O42 Fe25 1.997 . S
O42 C37 1.235 . S
C43 O26 1.295 1_556 S
C43 O27 1.235 . S
Fe44 O46 1.918 1_556 S
Fe44 O49 1.997 . S
Fe44 O50 2.002 . S
Fe44 O55 1.976 . S
Fe44 O58 1.996 1_556 S
Fe45 O46 1.918 . S
Fe45 O53 1.997 1_554 S
Fe45 O56 1.996 1_554 S
Fe45 O60 1.976 . S
Fe45 O63 2.002 . S
O46 Fe44 1.918 1_554 S
O46 Fe45 1.918 . S
O46 Fe47 1.918 . S
Fe47 O46 1.918 . S
Fe47 O48 2.002 . S
Fe47 O57 1.976 . S
Fe47 O61 1.996 . S
Fe47 O64 1.997 . S
O48 Fe47 2.002 . S
O48 C65 1.295 1_554 S
O49 Fe44 1.997 . S
O49 C65 1.235 . S
O50 Fe44 2.002 . S
O50 C51 1.295 . S
C51 O50 1.295 . S
C51 O53 1.235 . S
C52 O57 1.287 . S
C52 O58 1.255 . S
O53 Fe45 1.997 1_556 S
O53 C51 1.235 . S
C54 O60 1.287 . S
C54 O61 1.255 . S
O55 Fe44 1.976 . S
O55 C62 1.287 . S
O56 Fe45 1.996 1_556 S
O56 C62 1.255 . S
O57 Fe47 1.976 . S
O57 C52 1.287 . S
O58 Fe44 1.996 1_554 S
O58 C52 1.255 . S
C59 O63 1.295 . S
C59 O64 1.235 . S
O60 Fe45 1.976 . S
O60 C54 1.287 . S
O61 Fe47 1.996 . S
O61 C54 1.255 . S
C62 O55 1.287 . S
C62 O56 1.255 . S
O63 Fe45 2.002 . S
O63 C59 1.295 . S
O64 Fe47 1.997 . S
O64 C59 1.235 . S
C65 O48 1.295 1_556 S
C65 O49 1.235 . S
Fe66 O68 1.918 . S
Fe66 O71 1.997 . S
Fe66 O72 2.002 . S
Fe66 O77 1.976 . S
Fe66 O80 1.996 . S
Fe67 O68 1.918 . S
Fe67 O75 1.997 . S
Fe67 O78 1.996 . S
Fe67 O82 1.976 . S
Fe67 O85 2.002 . S
O68 Fe66 1.918 . S
O68 Fe67 1.918 . S
O68 Fe69 1.918 . S
Fe69 O68 1.918 . S
Fe69 O70 2.002 . S
Fe69 O79 1.976 . S
Fe69 O83 1.996 . S
Fe69 O86 1.997 . S
O70 Fe69 2.002 . S
O70 C87 1.295 . S
O71 Fe66 1.997 . S
O71 C87 1.235 . S
O72 Fe66 2.002 . S
O72 C73 1.295 . S
C73 O72 1.295 . S
C73 O75 1.235 . S
C74 O79 1.287 . S
C74 O80 1.255 . S
O75 Fe67 1.997 . S
O75 C73 1.235 . S
C76 O82 1.287 . S
C76 O83 1.255 . S
O77 Fe66 1.976 . S
O77 C84 1.287 . S
O78 Fe67 1.996 . S
O78 C84 1.255 . S
O79 Fe69 1.976 . S
O79 C74 1.287 . S
O80 Fe66 1.996 . S
O80 C74 1.255 . S
C81 O85 1.295 . S
C81 O86 1.235 . S
O82 Fe67 1.976 . S
O82 C76 1.287 . S
O83 Fe69 1.996 . S
O83 C76 1.255 . S
C84 O77 1.287 . S
C84 O78 1.255 . S
O85 Fe67 2.002 . S
O85 C81 1.295 . S
O86 Fe69 1.997 . S
O86 C81 1.235 . S
C87 O70 1.295 . S
C87 O71 1.235 . S
Fe88 O90 1.918 . S
Fe88 O93 1.997 . S
Fe88 O94 2.002 . S
Fe88 O99 1.976 . S
Fe88 O102 1.996 . S
Fe89 O90 1.918 . S
Fe89 O97 1.997 . S
Fe89 O100 1.996 . S
Fe89 O104 1.976 . S
Fe89 O107 2.002 . S
O90 Fe88 1.918 . S
O90 Fe89 1.918 . S
O90 Fe91 1.918 . S
Fe91 O90 1.918 . S
Fe91 O92 2.002 . S
Fe91 O101 1.976 . S
Fe91 O105 1.996 . S
Fe91 O108 1.997 . S
O92 Fe91 2.002 . S
O92 C109 1.295 . S
O93 Fe88 1.997 . S
O93 C109 1.235 . S
O94 Fe88 2.002 . S
O94 C95 1.295 . S
C95 O94 1.295 . S
C95 O97 1.235 . S
C96 O101 1.287 . S
C96 O102 1.255 . S
O97 Fe89 1.997 . S
O97 C95 1.235 . S
C98 O104 1.287 . S
C98 O105 1.255 . S
O99 Fe88 1.976 . S
O99 C106 1.287 . S
O100 Fe89 1.996 . S
O100 C106 1.255 . S
O101 Fe91 1.976 . S
O101 C96 1.287 . S
O102 Fe88 1.996 . S
O102 C96 1.255 . S
C103 O107 1.295 . S
C103 O108 1.235 . S
O104 Fe89 1.976 . S
O104 C98 1.287 . S
O105 Fe91 1.996 . S
O105 C98 1.255 . S
C106 O99 1.287 . S
C106 O100 1.255 . S
O107 Fe89 2.002 . S
O107 C103 1.295 . S
O108 Fe91 1.997 . S
O108 C103 1.235 . S
C109 O92 1.295 . S
C109 O93 1.235 . S
Fe110 O112 1.918 . S
Fe110 O115 1.997 . S
Fe110 O116 2.002 . S
Fe110 O121 1.976 . S
Fe110 O124 1.996 . S
Fe111 O112 1.918 . S
Fe111 O119 1.997 . S
Fe111 O122 1.996 . S
Fe111 O126 1.976 . S
Fe111 O129 2.002 . S
O112 Fe110 1.918 . S
O112 Fe111 1.918 . S
O112 Fe113 1.918 . S
Fe113 O112 1.918 . S
Fe113 O114 2.002 . S
Fe113 O123 1.976 . S
Fe113 O127 1.996 . S
Fe113 O130 1.997 . S
O114 Fe113 2.002 . S
O114 C131 1.295 . S
O115 Fe110 1.997 . S
O115 C131 1.235 . S
O116 Fe110 2.002 . S
O116 C117 1.295 . S
C117 O116 1.295 . S
C117 O119 1.235 . S
C118 O123 1.287 . S
C118 O124 1.255 . S
O119 Fe111 1.997 . S
O119 C117 1.235 . S
C120 O126 1.287 . S
C120 O127 1.255 . S
O121 Fe110 1.976 . S
O121 C128 1.287 . S
O122 Fe111 1.996 . S
O122 C128 1.255 . S
O123 Fe113 1.976 . S
O123 C118 1.287 . S
O124 Fe110 1.996 . S
O124 C118 1.255 . S
C125 O129 1.295 . S
C125 O130 1.235 . S
O126 Fe111 1.976 . S
O126 C120 1.287 . S
O127 Fe113 1.996 . S
O127 C120 1.255 . S
C128 O121 1.287 . S
C128 O122 1.255 . S
O129 Fe111 2.002 . S
O129 C125 1.295 . S
O130 Fe113 1.997 . S
O130 C125 1.235 . S
C131 O114 1.295 . S
C131 O115 1.235 . S
Fe132 O134 1.918 . S
Fe132 O137 1.997 . S
Fe132 O138 2.002 . S
Fe132 O143 1.976 . S
Fe132 O146 1.996 . S
Fe133 O134 1.918 . S
Fe133 O141 1.997 . S
Fe133 O144 1.996 . S
Fe133 O148 1.976 . S
Fe133 O151 2.002 . S
O134 Fe132 1.918 . S
O134 Fe133 1.918 . S
O134 Fe135 1.918 . S
Fe135 O134 1.918 . S
Fe135 O136 2.002 . S
Fe135 O145 1.976 . S
Fe135 O149 1.996 . S
Fe135 O152 1.997 . S
O136 Fe135 2.002 . S
O136 C153 1.295 . S
O137 Fe132 1.997 . S
O137 C153 1.235 . S
O138 Fe132 2.002 . S
O138 C139 1.295 . S
C139 O138 1.295 . S
C139 O141 1.235 . S
C140 O145 1.287 . S
C140 O146 1.255 . S
O141 Fe133 1.997 . S
O141 C139 1.235 . S
C142 O148 1.287 . S
C142 O149 1.255 . S
O143 Fe132 1.976 . S
O143 C150 1.287 . S
O144 Fe133 1.996 . S
O144 C150 1.255 . S
O145 Fe135 1.976 . S
O145 C140 1.287 . S
O146 Fe132 1.996 . S
O146 C140 1.255 . S
C147 O151 1.295 . S
C147 O152 1.235 . S
O148 Fe133 1.976 . S
O148 C142 1.287 . S
O149 Fe135 1.996 . S
O149 C142 1.255 . S
C150 O143 1.287 . S
C150 O144 1.255 . S
O151 Fe133 2.002 . S
O151 C147 1.295 . S
O152 Fe135 1.997 . S
O152 C147 1.235 . S
C153 O136 1.295 . S
C153 O137 1.235 . S
Fe154 O156 1.918 . S
Fe154 O159 1.997 . S
Fe154 O160 2.002 . S
Fe154 O165 1.976 . S
Fe154 O168 1.996 . S
Fe155 O156 1.918 . S
Fe155 O163 1.997 . S
Fe155 O166 1.996 . S
Fe155 O170 1.976 . S
Fe155 O173 2.002 . S
O156 Fe154 1.918 . S
O156 Fe155 1.918 . S
O156 Fe157 1.918 . S
Fe157 O156 1.918 . S
Fe157 O158 2.002 . S
Fe157 O167 1.976 . S
Fe157 O171 1.996 . S
Fe157 O174 1.997 . S
O158 Fe157 2.002 . S
O158 C175 1.295 . S
O159 Fe154 1.997 . S
O159 C175 1.235 . S
O160 Fe154 2.002 . S
O160 C161 1.295 . S
C161 O160 1.295 . S
C161 O163 1.235 . S
C162 O167 1.287 . S
C162 O168 1.255 . S
O163 Fe155 1.997 . S
O163 C161 1.235 . S
C164 O170 1.287 . S
C164 O171 1.255 . S
O165 Fe154 1.976 . S
O165 C172 1.287 . S
O166 Fe155 1.996 . S
O166 C172 1.255 . S
O167 Fe157 1.976 . S
O167 C162 1.287 . S
O168 Fe154 1.996 . S
O168 C162 1.255 . S
C169 O173 1.295 . S
C169 O174 1.235 . S
O170 Fe155 1.976 . S
O170 C164 1.287 . S
O171 Fe157 1.996 . S
O171 C164 1.255 . S
C172 O165 1.287 . S
C172 O166 1.255 . S
O173 Fe155 2.002 . S
O173 C169 1.295 . S
O174 Fe157 1.997 . S
O174 C169 1.235 . S
C175 O158 1.295 . S
C175 O159 1.235 . S
Fe176 O178 1.918 . S
Fe176 O181 1.997 . S
Fe176 O182 2.002 . S
Fe176 O187 1.976 . S
Fe176 O190 1.996 . S
Fe177 O178 1.918 . S
Fe177 O185 1.997 . S
Fe177 O188 1.996 . S
Fe177 O192 1.976 . S
Fe177 O195 2.002 . S
O178 Fe176 1.918 . S
O178 Fe177 1.918 . S
O178 Fe179 1.918 . S
Fe179 O178 1.918 . S
Fe179 O180 2.002 . S
Fe179 O189 1.976 . S
Fe179 O193 1.996 . S
Fe179 O196 1.997 . S
O180 Fe179 2.002 . S
O180 C197 1.295 . S
O181 Fe176 1.997 . S
O181 C197 1.235 . S
O182 Fe176 2.002 . S
O182 C183 1.295 . S
C183 O182 1.295 . S
C183 O185 1.235 . S
C184 O189 1.287 . S
C184 O190 1.255 . S
O185 Fe177 1.997 . S
O185 C183 1.235 . S
C186 O192 1.287 . S
C186 O193 1.255 . S
O187 Fe176 1.976 . S
O187 C194 1.287 . S
O188 Fe177 1.996 . S
O188 C194 1.255 . S
O189 Fe179 1.976 . S
O189 C184 1.287 . S
O190 Fe176 1.996 . S
O190 C184 1.255 . S
C191 O195 1.295 . S
C191 O196 1.235 . S
O192 Fe177 1.976 . S
O192 C186 1.287 . S
O193 Fe179 1.996 . S
O193 C186 1.255 . S
C194 O187 1.287 . S
C194 O188 1.255 . S
O195 Fe177 2.002 . S
O195 C191 1.295 . S
O196 Fe179 1.997 . S
O196 C191 1.235 . S
C197 O180 1.295 . S
C197 O181 1.235 . S
Fe198 O200 1.918 . S
Fe198 O203 1.997 . S
Fe198 O204 2.002 . S
Fe198 O209 1.976 . S
Fe198 O212 1.996 . S
Fe199 O200 1.918 . S
Fe199 O207 1.997 . S
Fe199 O210 1.996 . S
Fe199 O214 1.976 . S
Fe199 O217 2.002 . S
O200 Fe198 1.918 . S
O200 Fe199 1.918 . S
O200 Fe201 1.918 . S
Fe201 O200 1.918 . S
Fe201 O202 2.002 . S
Fe201 O211 1.976 . S
Fe201 O215 1.996 . S
Fe201 O218 1.997 . S
O202 Fe201 2.002 . S
O202 C219 1.295 . S
O203 Fe198 1.997 . S
O203 C219 1.235 . S
O204 Fe198 2.002 . S
O204 C205 1.295 . S
C205 O204 1.295 . S
C205 O207 1.235 . S
C206 O211 1.287 . S
C206 O212 1.255 . S
O207 Fe199 1.997 . S
O207 C205 1.235 . S
C208 O214 1.287 . S
C208 O215 1.255 . S
O209 Fe198 1.976 . S
O209 C216 1.287 . S
O210 Fe199 1.996 . S
O210 C216 1.255 . S
O211 Fe201 1.976 . S
O211 C206 1.287 . S
O212 Fe198 1.996 . S
O212 C206 1.255 . S
C213 O217 1.295 . S
C213 O218 1.235 . S
O214 Fe199 1.976 . S
O214 C208 1.287 . S
O215 Fe201 1.996 . S
O215 C208 1.255 . S
C216 O209 1.287 . S
C216 O210 1.255 . S
O217 Fe199 2.002 . S
O217 C213 1.295 . S
O218 Fe201 1.997 . S
O218 C213 1.235 . S
C219 O202 1.295 . S
C219 O203 1.235 . S
Fe220 O222 1.918 . S
Fe220 O225 1.997 . S
Fe220 O226 2.002 . S
Fe220 O231 1.976 . S
Fe220 O234 1.996 . S
Fe221 O222 1.918 . S
Fe221 O229 1.997 . S
Fe221 O232 1.996 . S
Fe221 O236 1.976 . S
Fe221 O239 2.002 . S
O222 Fe220 1.918 . S
O222 Fe221 1.918 . S
O222 Fe223 1.918 . S
Fe223 O222 1.918 . S
Fe223 O224 2.002 . S
Fe223 O233 1.976 . S
Fe223 O237 1.996 . S
Fe223 O240 1.997 . S
O224 Fe223 2.002 . S
O224 C241 1.295 . S
O225 Fe220 1.997 . S
O225 C241 1.235 . S
O226 Fe220 2.002 . S
O226 C227 1.295 . S
C227 O226 1.295 . S
C227 O229 1.235 . S
C228 O233 1.287 . S
C228 O234 1.255 . S
O229 Fe221 1.997 . S
O229 C227 1.235 . S
C230 O236 1.287 . S
C230 O237 1.255 . S
O231 Fe220 1.976 . S
O231 C238 1.287 . S
O232 Fe221 1.996 . S
O232 C238 1.255 . S
O233 Fe223 1.976 . S
O233 C228 1.287 . S
O234 Fe220 1.996 . S
O234 C228 1.255 . S
C235 O239 1.295 . S
C235 O240 1.235 . S
O236 Fe221 1.976 . S
O236 C230 1.287 . S
O237 Fe223 1.996 . S
O237 C230 1.255 . S
C238 O231 1.287 . S
C238 O232 1.255 . S
O239 Fe221 2.002 . S
O239 C235 1.295 . S
O240 Fe223 1.997 . S
O240 C235 1.235 . S
C241 O224 1.295 . S
C241 O225 1.235 . S
Fe242 O244 1.918 . S
Fe242 O247 1.997 . S
Fe242 O248 2.002 . S
Fe242 O253 1.976 . S
Fe242 O256 1.996 . S
Fe243 O244 1.918 . S
Fe243 O251 1.997 . S
Fe243 O254 1.996 . S
Fe243 O258 1.976 . S
Fe243 O261 2.002 . S
O244 Fe242 1.918 . S
O244 Fe243 1.918 . S
O244 Fe245 1.918 . S
Fe245 O244 1.918 . S
Fe245 O246 2.002 . S
Fe245 O255 1.976 . S
Fe245 O259 1.996 . S
Fe245 O262 1.997 . S
O246 Fe245 2.002 . S
O246 C263 1.295 . S
O247 Fe242 1.997 . S
O247 C263 1.235 . S
O248 Fe242 2.002 . S
O248 C249 1.295 . S
C249 O248 1.295 . S
C249 O251 1.235 . S
C250 O255 1.287 . S
C250 O256 1.255 . S
O251 Fe243 1.997 . S
O251 C249 1.235 . S
C252 O258 1.287 . S
C252 O259 1.255 . S
O253 Fe242 1.976 . S
O253 C260 1.287 . S
O254 Fe243 1.996 . S
O254 C260 1.255 . S
O255 Fe245 1.976 . S
O255 C250 1.287 . S
O256 Fe242 1.996 . S
O256 C250 1.255 . S
C257 O261 1.295 . S
C257 O262 1.235 . S
O258 Fe243 1.976 . S
O258 C252 1.287 . S
O259 Fe245 1.996 . S
O259 C252 1.255 . S
C260 O253 1.287 . S
C260 O254 1.255 . S
O261 Fe243 2.002 . S
O261 C257 1.295 . S
O262 Fe245 1.997 . S
O262 C257 1.235 . S
C263 O246 1.295 . S
C263 O247 1.235 . S
Fe264 O266 1.918 . S
Fe264 O269 1.997 1_655 S
Fe264 O270 2.002 . S
Fe264 O275 1.976 . S
Fe264 O278 1.996 1_655 S
Fe265 O266 1.918 . S
Fe265 O273 1.997 . S
Fe265 O276 1.996 . S
Fe265 O280 1.976 . S
Fe265 O283 2.002 . S
O266 Fe264 1.918 . S
O266 Fe265 1.918 . S
O266 Fe267 1.918 . S
Fe267 O266 1.918 . S
Fe267 O268 2.002 1_655 S
Fe267 O277 1.976 1_655 S
Fe267 O281 1.996 . S
Fe267 O284 1.997 . S
O268 Fe267 2.002 1_455 S
O268 C285 1.295 . S
O269 Fe264 1.997 1_455 S
O269 C285 1.235 . S
O270 Fe264 2.002 . S
O270 C271 1.295 . S
C271 O270 1.295 . S
C271 O273 1.235 . S
C272 O277 1.287 . S
C272 O278 1.255 . S
O273 Fe265 1.997 . S
O273 C271 1.235 . S
C274 O280 1.287 . S
C274 O281 1.255 . S
O275 Fe264 1.976 . S
O275 C282 1.287 . S
O276 Fe265 1.996 . S
O276 C282 1.255 . S
O277 Fe267 1.976 1_455 S
O277 C272 1.287 . S
O278 Fe264 1.996 1_455 S
O278 C272 1.255 . S
C279 O283 1.295 . S
C279 O284 1.235 . S
O280 Fe265 1.976 . S
O280 C274 1.287 . S
O281 Fe267 1.996 . S
O281 C274 1.255 . S
C282 O275 1.287 . S
C282 O276 1.255 . S
O283 Fe265 2.002 . S
O283 C279 1.295 . S
O284 Fe267 1.997 . S
O284 C279 1.235 . S
C285 O268 1.295 . S
C285 O269 1.235 . S
Fe286 O288 1.918 . S
Fe286 O291 1.997 . S
Fe286 O292 2.002 . S
Fe286 O297 1.976 . S
Fe286 O300 1.996 . S
Fe287 O288 1.918 . S
Fe287 O295 1.997 . S
Fe287 O298 1.996 . S
Fe287 O302 1.976 . S
Fe287 O305 2.002 . S
O288 Fe286 1.918 . S
O288 Fe287 1.918 . S
O288 Fe289 1.918 . S
Fe289 O288 1.918 . S
Fe289 O290 2.002 . S
Fe289 O299 1.976 . S
Fe289 O303 1.996 . S
Fe289 O306 1.997 . S
O290 Fe289 2.002 . S
O290 C307 1.295 . S
O291 Fe286 1.997 . S
O291 C307 1.235 . S
O292 Fe286 2.002 . S
O292 C293 1.295 . S
C293 O292 1.295 . S
C293 O295 1.235 . S
C294 O299 1.287 . S
C294 O300 1.255 . S
O295 Fe287 1.997 . S
O295 C293 1.235 . S
C296 O302 1.287 . S
C296 O303 1.255 . S
O297 Fe286 1.976 . S
O297 C304 1.287 . S
O298 Fe287 1.996 . S
O298 C304 1.255 . S
O299 Fe289 1.976 . S
O299 C294 1.287 . S
O300 Fe286 1.996 . S
O300 C294 1.255 . S
C301 O305 1.295 . S
C301 O306 1.235 . S
O302 Fe287 1.976 . S
O302 C296 1.287 . S
O303 Fe289 1.996 . S
O303 C296 1.255 . S
C304 O297 1.287 . S
C304 O298 1.255 . S
O305 Fe287 2.002 . S
O305 C301 1.295 . S
O306 Fe289 1.997 . S
O306 C301 1.235 . S
C307 O290 1.295 . S
C307 O291 1.235 . S
Fe308 O310 1.918 . S
Fe308 O313 1.997 1_545 S
Fe308 O314 2.002 . S
Fe308 O319 1.976 . S
Fe308 O322 1.996 1_545 S
Fe309 O310 1.918 . S
Fe309 O317 1.997 . S
Fe309 O320 1.996 . S
Fe309 O324 1.976 . S
Fe309 O327 2.002 . S
O310 Fe308 1.918 . S
O310 Fe309 1.918 . S
O310 Fe311 1.918 . S
Fe311 O310 1.918 . S
Fe311 O312 2.002 1_545 S
Fe311 O321 1.976 1_545 S
Fe311 O325 1.996 . S
Fe311 O328 1.997 . S
O312 Fe311 2.002 1_565 S
O312 C329 1.295 . S
O313 Fe308 1.997 1_565 S
O313 C329 1.235 . S
O314 Fe308 2.002 . S
O314 C315 1.295 . S
C315 O314 1.295 . S
C315 O317 1.235 . S
C316 O321 1.287 . S
C316 O322 1.255 . S
O317 Fe309 1.997 . S
O317 C315 1.235 . S
C318 O324 1.287 . S
C318 O325 1.255 . S
O319 Fe308 1.976 . S
O319 C326 1.287 . S
O320 Fe309 1.996 . S
O320 C326 1.255 . S
O321 Fe311 1.976 1_565 S
O321 C316 1.287 . S
O322 Fe308 1.996 1_565 S
O322 C316 1.255 . S
C323 O327 1.295 . S
C323 O328 1.235 . S
O324 Fe309 1.976 . S
O324 C318 1.287 . S
O325 Fe311 1.996 . S
O325 C318 1.255 . S
C326 O319 1.287 . S
C326 O320 1.255 . S
O327 Fe309 2.002 . S
O327 C323 1.295 . S
O328 Fe311 1.997 . S
O328 C323 1.235 . S
C329 O312 1.295 . S
C329 O313 1.235 . S
Fe330 O332 1.918 . S
Fe330 O335 1.997 1_545 S
Fe330 O336 2.002 . S
Fe330 O341 1.976 . S
Fe330 O344 1.996 1_545 S
Fe331 O332 1.918 . S
Fe331 O339 1.997 . S
Fe331 O342 1.996 . S
Fe331 O346 1.976 . S
Fe331 O349 2.002 . S
O332 Fe330 1.918 . S
O332 Fe331 1.918 . S
O332 Fe333 1.918 . S
Fe333 O332 1.918 . S
Fe333 O334 2.002 1_545 S
Fe333 O343 1.976 1_545 S
Fe333 O347 1.996 . S
Fe333 O350 1.997 . S
O334 Fe333 2.002 1_565 S
O334 C351 1.295 . S
O335 Fe330 1.997 1_565 S
O335 C351 1.235 . S
O336 Fe330 2.002 . S
O336 C337 1.295 . S
C337 O336 1.295 . S
C337 O339 1.235 . S
C338 O343 1.287 . S
C338 O344 1.255 . S
O339 Fe331 1.997 . S
O339 C337 1.235 . S
C340 O346 1.287 . S
C340 O347 1.255 . S
O341 Fe330 1.976 . S
O341 C348 1.287 . S
O342 Fe331 1.996 . S
O342 C348 1.255 . S
O343 Fe333 1.976 1_565 S
O343 C338 1.287 . S
O344 Fe330 1.996 1_565 S
O344 C338 1.255 . S
C345 O349 1.295 . S
C345 O350 1.235 . S
O346 Fe331 1.976 . S
O346 C340 1.287 . S
O347 Fe333 1.996 . S
O347 C340 1.255 . S
C348 O341 1.287 . S
C348 O342 1.255 . S
O349 Fe331 2.002 . S
O349 C345 1.295 . S
O350 Fe333 1.997 . S
O350 C345 1.235 . S
C351 O334 1.295 . S
C351 O335 1.235 . S
Fe352 O354 1.918 . S
Fe352 O357 1.997 1_655 S
Fe352 O358 2.002 . S
Fe352 O363 1.976 . S
Fe352 O366 1.996 1_655 S
Fe353 O354 1.918 . S
Fe353 O361 1.997 . S
Fe353 O364 1.996 . S
Fe353 O368 1.976 . S
Fe353 O371 2.002 . S
O354 Fe352 1.918 . S
O354 Fe353 1.918 . S
O354 Fe355 1.918 . S
Fe355 O354 1.918 . S
Fe355 O356 2.002 1_655 S
Fe355 O365 1.976 1_655 S
Fe355 O369 1.996 . S
Fe355 O372 1.997 . S
O356 Fe355 2.002 1_455 S
O356 C373 1.295 . S
O357 Fe352 1.997 1_455 S
O357 C373 1.235 . S
O358 Fe352 2.002 . S
O358 C359 1.295 . S
C359 O358 1.295 . S
C359 O361 1.235 . S
C360 O365 1.287 . S
C360 O366 1.255 . S
O361 Fe353 1.997 . S
O361 C359 1.235 . S
C362 O368 1.287 . S
C362 O369 1.255 . S
O363 Fe352 1.976 . S
O363 C370 1.287 . S
O364 Fe353 1.996 . S
O364 C370 1.255 . S
O365 Fe355 1.976 1_455 S
O365 C360 1.287 . S
O366 Fe352 1.996 1_455 S
O366 C360 1.255 . S
C367 O371 1.295 . S
C367 O372 1.235 . S
O368 Fe353 1.976 . S
O368 C362 1.287 . S
O369 Fe355 1.996 . S
O369 C362 1.255 . S
C370 O363 1.287 . S
C370 O364 1.255 . S
O371 Fe353 2.002 . S
O371 C367 1.295 . S
O372 Fe355 1.997 . S
O372 C367 1.235 . S
C373 O356 1.295 . S
C373 O357 1.235 . S
Fe374 O376 1.918 . S
Fe374 O379 1.997 . S
Fe374 O380 2.002 . S
Fe374 O385 1.976 . S
Fe374 O388 1.996 . S
Fe375 O376 1.918 . S
Fe375 O383 1.997 . S
Fe375 O386 1.996 . S
Fe375 O390 1.976 . S
Fe375 O393 2.002 . S
O376 Fe374 1.918 . S
O376 Fe375 1.918 . S
O376 Fe377 1.918 . S
Fe377 O376 1.918 . S
Fe377 O378 2.002 . S
Fe377 O387 1.976 . S
Fe377 O391 1.996 . S
Fe377 O394 1.997 . S
O378 Fe377 2.002 . S
O378 C395 1.295 . S
O379 Fe374 1.997 . S
O379 C395 1.235 . S
O380 Fe374 2.002 . S
O380 C381 1.295 . S
C381 O380 1.295 . S
C381 O383 1.235 . S
C382 O387 1.287 . S
C382 O388 1.255 . S
O383 Fe375 1.997 . S
O383 C381 1.235 . S
C384 O390 1.287 . S
C384 O391 1.255 . S
O385 Fe374 1.976 . S
O385 C392 1.287 . S
O386 Fe375 1.996 . S
O386 C392 1.255 . S
O387 Fe377 1.976 . S
O387 C382 1.287 . S
O388 Fe374 1.996 . S
O388 C382 1.255 . S
C389 O393 1.295 . S
C389 O394 1.235 . S
O390 Fe375 1.976 . S
O390 C384 1.287 . S
O391 Fe377 1.996 . S
O391 C384 1.255 . S
C392 O385 1.287 . S
C392 O386 1.255 . S
O393 Fe375 2.002 . S
O393 C389 1.295 . S
O394 Fe377 1.997 . S
O394 C389 1.235 . S
C395 O378 1.295 . S
C395 O379 1.235 . S
C396 C397 1.363 . S
C396 C402 1.379 . S
C396 N404 1.356 . S
C397 C396 1.363 . S
C397 C403 1.363 1_554 S
C398 C399 1.363 . S
C398 C403 1.379 . S
C398 N405 1.356 . S
C399 C398 1.363 . S
C399 C402 1.363 1_556 S
N400 C402 1.356 . S
N400 H412 0.984 . S
N400 H413 0.984 . S
N401 C403 1.356 . S
N401 H406 0.984 . S
N401 H407 0.985 . S
C402 C396 1.379 . S
C402 C399 1.363 1_554 S
C402 N400 1.356 . S
C403 C397 1.363 1_556 S
C403 C398 1.379 . S
C403 N401 1.356 . S
N404 C396 1.356 . S
N404 H410 0.984 . S
N404 H411 0.984 . S
N405 C398 1.356 . S
N405 H408 0.984 . S
N405 H409 0.985 . S
H406 N401 0.984 . S
H407 N401 0.985 . S
H408 N405 0.984 . S
H409 N405 0.985 . S
H410 N404 0.984 . S
H411 N404 0.984 . S
H412 N400 0.984 . S
H413 N400 0.984 . S
C414 C415 1.363 . S
C414 C420 1.379 1_556 S
C414 N422 1.356 . S
C415 C414 1.363 . S
C415 C421 1.363 . S
C416 C417 1.363 . S
C416 C421 1.379 1_554 S
C416 N423 1.356 . S
C417 C416 1.363 . S
C417 C420 1.363 . S
N418 C420 1.356 . S
N418 H430 0.984 . S
N418 H431 0.985 . S
N419 C421 1.356 . S
N419 H424 0.984 . S
N419 H425 0.985 . S
C420 C414 1.379 1_554 S
C420 C417 1.363 . S
C420 N418 1.356 . S
C421 C415 1.363 . S
C421 C416 1.379 1_556 S
C421 N419 1.356 . S
N422 C414 1.356 . S
N422 H428 0.984 . S
N422 H429 0.984 . S
N423 C416 1.356 . S
N423 H426 0.984 . S
N423 H427 0.985 . S
H424 N419 0.984 . S
H425 N419 0.985 . S
H426 N423 0.984 . S
H427 N423 0.985 . S
H428 N422 0.984 . S
H429 N422 0.984 . S
H430 N418 0.984 . S
H431 N418 0.985 . S
C432 C433 1.363 . S
C432 C438 1.379 . S
C432 N440 1.356 . S
C433 C432 1.363 . S
C433 C439 1.363 1_554 S
C434 C435 1.363 . S
C434 C439 1.379 . S
C434 N441 1.356 . S
C435 C434 1.363 . S
C435 C438 1.363 1_556 S
N436 C438 1.356 . S
N436 H448 0.984 . S
N436 H449 0.985 1_554 S
N437 C439 1.356 . S
N437 H442 0.985 1_556 S
N437 H443 0.985 . S
C438 C432 1.379 . S
C438 C435 1.363 1_554 S
C438 N436 1.356 . S
C439 C433 1.363 1_556 S
C439 C434 1.379 . S
C439 N437 1.356 . S
N440 C432 1.356 . S
N440 H446 0.984 . S
N440 H447 0.984 . S
N441 C434 1.356 . S
N441 H444 0.984 . S
N441 H445 0.985 . S
H442 N437 0.985 1_554 S
H443 N437 0.985 . S
H444 N441 0.984 . S
H445 N441 0.985 . S
H446 N440 0.984 . S
H447 N440 0.984 . S
H448 N436 0.984 . S
H449 N436 0.985 1_556 S
C450 C451 1.363 . S
C450 C456 1.379 . S
C450 N458 1.356 . S
C451 C450 1.363 . S
C451 C457 1.363 . S
C452 C453 1.363 . S
C452 C457 1.379 . S
C452 N459 1.356 . S
C453 C452 1.363 . S
C453 C456 1.363 . S
N454 C456 1.356 . S
N454 H466 0.984 . S
N454 H467 0.985 . S
N455 C457 1.356 . S
N455 H460 0.984 . S
N455 H461 0.985 . S
C456 C450 1.379 . S
C456 C453 1.363 . S
C456 N454 1.356 . S
C457 C451 1.363 . S
C457 C452 1.379 . S
C457 N455 1.356 . S
N458 C450 1.356 . S
N458 H464 0.984 . S
N458 H465 0.984 . S
N459 C452 1.356 . S
N459 H462 0.984 . S
N459 H463 0.985 . S
H460 N455 0.984 . S
H461 N455 0.985 . S
H462 N459 0.984 . S
H463 N459 0.985 . S
H464 N458 0.984 . S
H465 N458 0.984 . S
H466 N454 0.984 . S
H467 N454 0.985 . S
C468 C469 1.363 . S
C468 C474 1.379 . S
C468 N476 1.356 . S
C469 C468 1.363 . S
C469 C475 1.363 . S
C470 C471 1.363 . S
C470 C475 1.379 . S
C470 N477 1.356 . S
C471 C470 1.363 . S
C471 C474 1.363 . S
N472 C474 1.356 . S
N472 H484 0.984 . S
N472 H485 0.985 . S
N473 C475 1.356 . S
N473 H478 0.984 . S
N473 H479 0.985 . S
C474 C468 1.379 . S
C474 C471 1.363 . S
C474 N472 1.356 . S
C475 C469 1.363 . S
C475 C470 1.379 . S
C475 N473 1.356 . S
N476 C468 1.356 . S
N476 H482 0.984 . S
N476 H483 0.984 . S
N477 C470 1.356 . S
N477 H480 0.984 . S
N477 H481 0.985 . S
H478 N473 0.984 . S
H479 N473 0.985 . S
H480 N477 0.984 . S
H481 N477 0.985 . S
H482 N476 0.984 . S
H483 N476 0.984 . S
H484 N472 0.984 . S
H485 N472 0.985 . S
C486 C487 1.363 . S
C486 C492 1.379 . S
C486 N494 1.356 . S
C487 C486 1.363 . S
C487 C493 1.363 . S
C488 C489 1.363 . S
C488 C493 1.379 . S
C488 N495 1.356 . S
C489 C488 1.363 . S
C489 C492 1.363 . S
N490 C492 1.356 . S
N490 H502 0.984 . S
N490 H503 0.985 . S
N491 C493 1.356 . S
N491 H496 0.984 . S
N491 H497 0.985 . S
C492 C486 1.379 . S
C492 C489 1.363 . S
C492 N490 1.356 . S
C493 C487 1.363 . S
C493 C488 1.379 . S
C493 N491 1.356 . S
N494 C486 1.356 . S
N494 H500 0.984 . S
N494 H501 0.984 . S
N495 C488 1.356 . S
N495 H498 0.984 . S
N495 H499 0.985 . S
H496 N491 0.984 . S
H497 N491 0.985 . S
H498 N495 0.984 . S
H499 N495 0.985 . S
H500 N494 0.984 . S
H501 N494 0.984 . S
H502 N490 0.984 . S
H503 N490 0.985 . S
C504 C505 1.363 . S
C504 C510 1.379 . S
C504 N512 1.356 . S
C505 C504 1.363 . S
C505 C511 1.363 . S
C506 C507 1.363 . S
C506 C511 1.379 . S
C506 N513 1.356 . S
C507 C506 1.363 . S
C507 C510 1.363 . S
N508 C510 1.356 . S
N508 H520 0.984 . S
N508 H521 0.985 . S
N509 C511 1.356 . S
N509 H514 0.984 . S
N509 H515 0.985 . S
C510 C504 1.379 . S
C510 C507 1.363 . S
C510 N508 1.356 . S
C511 C505 1.363 . S
C511 C506 1.379 . S
C511 N509 1.356 . S
N512 C504 1.356 . S
N512 H518 0.984 . S
N512 H519 0.984 . S
N513 C506 1.356 . S
N513 H516 0.984 . S
N513 H517 0.985 . S
H514 N509 0.984 . S
H515 N509 0.985 . S
H516 N513 0.984 . S
H517 N513 0.985 . S
H518 N512 0.984 . S
H519 N512 0.984 . S
H520 N508 0.984 . S
H521 N508 0.985 . S
C522 C523 1.363 . S
C522 C528 1.379 . S
C522 N530 1.356 . S
C523 C522 1.363 . S
C523 C529 1.363 . S
C524 C525 1.363 . S
C524 C529 1.379 . S
C524 N531 1.356 . S
C525 C524 1.363 . S
C525 C528 1.363 . S
N526 C528 1.356 . S
N526 H538 0.984 . S
N526 H539 0.985 . S
N527 C529 1.356 . S
N527 H532 0.984 . S
N527 H533 0.985 . S
C528 C522 1.379 . S
C528 C525 1.363 . S
C528 N526 1.356 . S
C529 C523 1.363 . S
C529 C524 1.379 . S
C529 N527 1.356 . S
N530 C522 1.356 . S
N530 H536 0.984 . S
N530 H537 0.984 . S
N531 C524 1.356 . S
N531 H534 0.984 . S
N531 H535 0.985 . S
H532 N527 0.984 . S
H533 N527 0.985 . S
H534 N531 0.984 . S
H535 N531 0.985 . S
H536 N530 0.984 . S
H537 N530 0.984 . S
H538 N526 0.984 . S
H539 N526 0.985 . S
C540 C541 1.363 . S
C540 C546 1.379 . S
C540 N548 1.356 . S
C541 C540 1.363 . S
C541 C547 1.363 . S
C542 C543 1.363 . S
C542 C547 1.379 . S
C542 N549 1.356 . S
C543 C542 1.363 . S
C543 C546 1.363 . S
N544 C546 1.356 . S
N544 H556 0.984 . S
N544 H557 0.985 . S
N545 C547 1.356 . S
N545 H550 0.984 . S
N545 H551 0.985 . S
C546 C540 1.379 . S
C546 C543 1.363 . S
C546 N544 1.356 . S
C547 C541 1.363 . S
C547 C542 1.379 . S
C547 N545 1.356 . S
N548 C540 1.356 . S
N548 H554 0.984 . S
N548 H555 0.984 . S
N549 C542 1.356 . S
N549 H552 0.984 . S
N549 H553 0.985 . S
H550 N545 0.984 . S
H551 N545 0.985 . S
H552 N549 0.984 . S
H553 N549 0.985 . S
H554 N548 0.984 . S
H555 N548 0.984 . S
H556 N544 0.984 . S
H557 N544 0.985 . S
C558 C559 1.363 . S
C558 C564 1.379 . S
C558 N566 1.356 . S
C559 C558 1.363 . S
C559 C565 1.363 . S
C560 C561 1.363 . S
C560 C565 1.379 . S
C560 N567 1.356 . S
C561 C560 1.363 . S
C561 C564 1.363 . S
N562 C564 1.356 . S
N562 H574 0.984 . S
N562 H575 0.985 . S
N563 C565 1.356 . S
N563 H568 0.984 . S
N563 H569 0.985 . S
C564 C558 1.379 . S
C564 C561 1.363 . S
C564 N562 1.356 . S
C565 C559 1.363 . S
C565 C560 1.379 . S
C565 N563 1.356 . S
N566 C558 1.356 . S
N566 H572 0.984 . S
N566 H573 0.984 . S
N567 C560 1.356 . S
N567 H570 0.984 . S
N567 H571 0.985 . S
H568 N563 0.984 . S
H569 N563 0.985 . S
H570 N567 0.984 . S
H571 N567 0.985 . S
H572 N566 0.984 . S
H573 N566 0.984 . S
H574 N562 0.984 . S
H575 N562 0.985 . S
C576 C577 1.363 . S
C576 C582 1.379 . S
C576 N584 1.356 . S
C577 C576 1.363 . S
C577 C583 1.363 . S
C578 C579 1.363 . S
C578 C583 1.379 . S
C578 N585 1.356 . S
C579 C578 1.363 . S
C579 C582 1.363 . S
N580 C582 1.356 . S
N580 H592 0.984 . S
N580 H593 0.985 . S
N581 C583 1.356 . S
N581 H586 0.984 . S
N581 H587 0.985 . S
C582 C576 1.379 . S
C582 C579 1.363 . S
C582 N580 1.356 . S
C583 C577 1.363 . S
C583 C578 1.379 . S
C583 N581 1.356 . S
N584 C576 1.356 . S
N584 H590 0.984 . S
N584 H591 0.984 . S
N585 C578 1.356 . S
N585 H588 0.984 . S
N585 H589 0.985 . S
H586 N581 0.984 . S
H587 N581 0.985 . S
H588 N585 0.984 . S
H589 N585 0.985 . S
H590 N584 0.984 . S
H591 N584 0.984 . S
H592 N580 0.984 . S
H593 N580 0.985 . S
C594 C595 1.363 . S
C594 C600 1.379 . S
C594 N602 1.356 . S
C595 C594 1.363 . S
C595 C601 1.363 . S
C596 C597 1.363 . S
C596 C601 1.379 . S
C596 N603 1.356 . S
C597 C596 1.363 . S
C597 C600 1.363 . S
N598 C600 1.356 . S
N598 H610 0.984 . S
N598 H611 0.985 . S
N599 C601 1.356 . S
N599 H604 0.984 . S
N599 H605 0.985 . S
C600 C594 1.379 . S
C600 C597 1.363 . S
C600 N598 1.356 . S
C601 C595 1.363 . S
C601 C596 1.379 . S
C601 N599 1.356 . S
N602 C594 1.356 . S
N602 H608 0.984 . S
N602 H609 0.984 . S
N603 C596 1.356 . S
N603 H606 0.984 . S
N603 H607 0.985 . S
H604 N599 0.984 . S
H605 N599 0.985 . S
H606 N603 0.984 . S
H607 N603 0.985 . S
H608 N602 0.984 . S
H609 N602 0.984 . S
H610 N598 0.984 . S
H611 N598 0.985 . S
C612 C613 1.363 . S
C612 C618 1.379 . S
C612 N620 1.356 . S
C613 C612 1.363 . S
C613 C619 1.363 . S
C614 C615 1.363 . S
C614 C619 1.379 . S
C614 N621 1.356 . S
C615 C614 1.363 . S
C615 C618 1.363 . S
N616 C618 1.356 . S
N616 H628 0.984 . S
N616 H629 0.985 . S
N617 C619 1.356 1_545 S
N617 H622 0.984 . S
N617 H623 0.985 . S
C618 C612 1.379 . S
C618 C615 1.363 . S
C618 N616 1.356 . S
C619 C613 1.363 . S
C619 C614 1.379 . S
C619 N617 1.356 1_565 S
N620 C612 1.356 . S
N620 H626 0.984 . S
N620 H627 0.984 . S
N621 C614 1.356 . S
N621 H624 0.984 . S
N621 H625 0.985 . S
H622 N617 0.984 . S
H623 N617 0.985 . S
H624 N621 0.984 . S
H625 N621 0.985 . S
H626 N620 0.984 . S
H627 N620 0.984 . S
H628 N616 0.984 . S
H629 N616 0.985 . S
C630 C631 1.363 . S
C630 C636 1.379 . S
C630 N638 1.356 1_565 S
C631 C630 1.363 . S
C631 C637 1.363 . S
C632 C633 1.363 . S
C632 C637 1.379 . S
C632 N639 1.356 . S
C633 C632 1.363 . S
C633 C636 1.363 . S
N634 C636 1.356 . S
N634 H646 0.984 1_455 S
N634 H647 0.985 . S
N635 C637 1.356 . S
N635 H640 0.984 1_565 S
N635 H641 0.985 . S
C636 C630 1.379 . S
C636 C633 1.363 . S
C636 N634 1.356 . S
C637 C631 1.363 . S
C637 C632 1.379 . S
C637 N635 1.356 . S
N638 C630 1.356 1_545 S
N638 H644 0.984 . S
N638 H645 0.984 . S
N639 C632 1.356 . S
N639 H642 0.984 . S
N639 H643 0.985 . S
H640 N635 0.984 1_545 S
H641 N635 0.985 . S
H642 N639 0.984 . S
H643 N639 0.985 . S
H644 N638 0.984 . S
H645 N638 0.984 . S
H646 N634 0.984 1_655 S
H647 N634 0.985 . S
C648 C649 1.363 . S
C648 C654 1.379 . S
C648 N656 1.356 . S
C649 C648 1.363 . S
C649 C655 1.363 . S
C650 C651 1.363 . S
C650 C655 1.379 . S
C650 N657 1.356 . S
C651 C650 1.363 . S
C651 C654 1.363 . S
N652 C654 1.356 . S
N652 H664 0.984 . S
N652 H665 0.985 . S
N653 C655 1.356 1_655 S
N653 H658 0.984 . S
N653 H659 0.985 . S
C654 C648 1.379 . S
C654 C651 1.363 . S
C654 N652 1.356 . S
C655 C649 1.363 . S
C655 C650 1.379 . S
C655 N653 1.356 1_455 S
N656 C648 1.356 . S
N656 H662 0.984 . S
N656 H663 0.984 1_455 S
N657 C650 1.356 . S
N657 H660 0.984 . S
N657 H661 0.985 . S
H658 N653 0.984 . S
H659 N653 0.985 . S
H660 N657 0.984 . S
H661 N657 0.985 . S
H662 N656 0.984 . S
H663 N656 0.984 1_655 S
H664 N652 0.984 . S
H665 N652 0.985 . S
C666 C667 1.363 . S
C666 C672 1.379 . S
C666 N674 1.356 . S
C667 C666 1.363 . S
C667 C673 1.363 . S
C668 C669 1.363 . S
C668 C673 1.379 . S
C668 N675 1.356 . S
C669 C668 1.363 . S
C669 C672 1.363 . S
N670 C672 1.356 . S
N670 H682 0.984 . S
N670 H683 0.985 . S
N671 C673 1.356 . S
N671 H676 0.984 . S
N671 H677 0.985 . S
C672 C666 1.379 . S
C672 C669 1.363 . S
C672 N670 1.356 . S
C673 C667 1.363 . S
C673 C668 1.379 . S
C673 N671 1.356 . S
N674 C666 1.356 . S
N674 H680 0.984 . S
N674 H681 0.984 . S
N675 C668 1.356 . S
N675 H678 0.984 . S
N675 H679 0.985 . S
H676 N671 0.984 . S
H677 N671 0.985 . S
H678 N675 0.984 . S
H679 N675 0.985 . S
H680 N674 0.984 . S
H681 N674 0.984 . S
H682 N670 0.984 . S
H683 N670 0.985 . S
C684 C685 1.363 . S
C684 C690 1.379 . S
C684 N692 1.356 . S
C685 C684 1.363 . S
C685 C691 1.363 . S
C686 C687 1.363 . S
C686 C691 1.379 . S
C686 N693 1.356 . S
C687 C686 1.363 . S
C687 C690 1.363 . S
N688 C690 1.356 1_545 S
N688 H700 0.984 . S
N688 H701 0.985 . S
N689 C691 1.356 . S
N689 H694 0.984 . S
N689 H695 0.985 . S
C690 C684 1.379 . S
C690 C687 1.363 . S
C690 N688 1.356 1_565 S
C691 C685 1.363 . S
C691 C686 1.379 . S
C691 N689 1.356 . S
N692 C684 1.356 . S
N692 H698 0.984 . S
N692 H699 0.984 . S
N693 C686 1.356 . S
N693 H696 0.984 1_565 S
N693 H697 0.985 . S
H694 N689 0.984 . S
H695 N689 0.985 . S
H696 N693 0.984 1_545 S
H697 N693 0.985 . S
H698 N692 0.984 . S
H699 N692 0.984 . S
H700 N688 0.984 . S
H701 N688 0.985 . S
C702 C703 1.363 . S
C702 C708 1.379 . S
C702 N710 1.356 . S
C703 C702 1.363 . S
C703 C709 1.363 . S
C704 C705 1.363 . S
C704 C709 1.379 . S
C704 N711 1.356 . S
C705 C704 1.363 . S
C705 C708 1.363 . S
N706 C708 1.356 1_655 S
N706 H718 0.984 . S
N706 H719 0.985 . S
N707 C709 1.356 . S
N707 H712 0.984 . S
N707 H713 0.985 . S
C708 C702 1.379 . S
C708 C705 1.363 . S
C708 N706 1.356 1_455 S
C709 C703 1.363 . S
C709 C704 1.379 . S
C709 N707 1.356 . S
N710 C702 1.356 . S
N710 H716 0.984 . S
N710 H717 0.984 . S
N711 C704 1.356 . S
N711 H714 0.984 1_455 S
N711 H715 0.985 . S
H712 N707 0.984 . S
H713 N707 0.985 . S
H714 N711 0.984 1_655 S
H715 N711 0.985 . S
H716 N710 0.984 . S
H717 N710 0.984 . S
H718 N706 0.984 . S
H719 N706 0.985 . S
C720 C721 1.363 . S
C720 C726 1.379 . S
C720 N728 1.356 . S
C721 C720 1.363 . S
C721 C727 1.363 . S
C722 C723 1.363 . S
C722 C727 1.379 . S
C722 N729 1.356 . S
C723 C722 1.363 . S
C723 C726 1.363 . S
N724 C726 1.356 . S
N724 H736 0.984 . S
N724 H737 0.985 . S
N725 C727 1.356 . S
N725 H730 0.984 . S
N725 H731 0.985 . S
C726 C720 1.379 . S
C726 C723 1.363 . S
C726 N724 1.356 . S
C727 C721 1.363 . S
C727 C722 1.379 . S
C727 N725 1.356 . S
N728 C720 1.356 . S
N728 H734 0.984 . S
N728 H735 0.984 . S
N729 C722 1.356 . S
N729 H732 0.984 . S
N729 H733 0.985 . S
H730 N725 0.984 . S
H731 N725 0.985 . S
H732 N729 0.984 . S
H733 N729 0.985 . S
H734 N728 0.984 . S
H735 N728 0.984 . S
H736 N724 0.984 . S
H737 N724 0.985 . S
C738 C739 1.363 . S
C738 C744 1.379 . S
C738 N746 1.356 . S
C739 C738 1.363 . S
C739 C745 1.363 . S
C740 C741 1.363 . S
C740 C745 1.379 . S
C740 N747 1.356 . S
C741 C740 1.363 . S
C741 C744 1.363 . S
N742 C744 1.356 . S
N742 H754 0.984 . S
N742 H755 0.985 . S
N743 C745 1.356 . S
N743 H748 0.984 . S
N743 H749 0.985 . S
C744 C738 1.379 . S
C744 C741 1.363 . S
C744 N742 1.356 . S
C745 C739 1.363 . S
C745 C740 1.379 . S
C745 N743 1.356 . S
N746 C738 1.356 . S
N746 H752 0.984 . S
N746 H753 0.984 . S
N747 C740 1.356 . S
N747 H750 0.984 . S
N747 H751 0.985 . S
H748 N743 0.984 . S
H749 N743 0.985 . S
H750 N747 0.984 . S
H751 N747 0.985 . S
H752 N746 0.984 . S
H753 N746 0.984 . S
H754 N742 0.984 . S
H755 N742 0.985 . S
C756 C757 1.363 . S
C756 C762 1.379 . S
C756 N764 1.356 . S
C757 C756 1.363 . S
C757 C763 1.363 . S
C758 C759 1.363 . S
C758 C763 1.379 . S
C758 N765 1.356 . S
C759 C758 1.363 . S
C759 C762 1.363 . S
N760 C762 1.356 . S
N760 H772 0.984 . S
N760 H773 0.985 . S
N761 C763 1.356 . S
N761 H766 0.984 . S
N761 H767 0.985 . S
C762 C756 1.379 . S
C762 C759 1.363 . S
C762 N760 1.356 . S
C763 C757 1.363 . S
C763 C758 1.379 . S
C763 N761 1.356 . S
N764 C756 1.356 . S
N764 H770 0.984 . S
N764 H771 0.984 . S
N765 C758 1.356 . S
N765 H768 0.984 . S
N765 H769 0.985 . S
H766 N761 0.984 . S
H767 N761 0.985 . S
H768 N765 0.984 . S
H769 N765 0.985 . S
H770 N764 0.984 . S
H771 N764 0.984 . S
H772 N760 0.984 . S
H773 N760 0.985 . S
C774 C775 1.363 . S
C774 C780 1.379 . S
C774 N782 1.356 . S
C775 C774 1.363 . S
C775 C781 1.363 . S
C776 C777 1.363 . S
C776 C781 1.379 . S
C776 N783 1.356 . S
C777 C776 1.363 . S
C777 C780 1.363 . S
N778 C780 1.356 . S
N778 H790 0.984 . S
N778 H791 0.985 . S
N779 C781 1.356 . S
N779 H784 0.984 . S
N779 H785 0.985 . S
C780 C774 1.379 . S
C780 C777 1.363 . S
C780 N778 1.356 . S
C781 C775 1.363 . S
C781 C776 1.379 . S
C781 N779 1.356 . S
N782 C774 1.356 . S
N782 H788 0.984 . S
N782 H789 0.984 . S
N783 C776 1.356 . S
N783 H786 0.984 . S
N783 H787 0.985 . S
H784 N779 0.984 . S
H785 N779 0.985 . S
H786 N783 0.984 . S
H787 N783 0.985 . S
H788 N782 0.984 . S
H789 N782 0.984 . S
H790 N778 0.984 . S
H791 N778 0.985 . S
C792 C793 1.363 . S
C792 C798 1.379 . S
C792 N800 1.356 . S
C793 C792 1.363 . S
C793 C799 1.363 . S
C794 C795 1.363 . S
C794 C799 1.379 . S
C794 N801 1.356 . S
C795 C794 1.363 . S
C795 C798 1.363 . S
N796 C798 1.356 . S
N796 H808 0.984 . S
N796 H809 0.985 . S
N797 C799 1.356 . S
N797 H802 0.984 . S
N797 H803 0.985 . S
C798 C792 1.379 . S
C798 C795 1.363 . S
C798 N796 1.356 . S
C799 C793 1.363 . S
C799 C794 1.379 . S
C799 N797 1.356 . S
N800 C792 1.356 . S
N800 H806 0.984 . S
N800 H807 0.984 . S
N801 C794 1.356 . S
N801 H804 0.984 . S
N801 H805 0.985 . S
H802 N797 0.984 . S
H803 N797 0.985 . S
H804 N801 0.984 . S
H805 N801 0.985 . S
H806 N800 0.984 . S
H807 N800 0.984 . S
H808 N796 0.984 . S
H809 N796 0.985 . S
C810 C811 1.363 . S
C810 C816 1.379 . S
C810 N818 1.356 . S
C811 C810 1.363 . S
C811 C817 1.363 . S
C812 C813 1.363 . S
C812 C817 1.379 . S
C812 N819 1.356 . S
C813 C812 1.363 . S
C813 C816 1.363 . S
N814 C816 1.356 . S
N814 H826 0.984 . S
N814 H827 0.985 . S
N815 C817 1.356 . S
N815 H820 0.984 . S
N815 H821 0.985 . S
C816 C810 1.379 . S
C816 C813 1.363 . S
C816 N814 1.356 . S
C817 C811 1.363 . S
C817 C812 1.379 . S
C817 N815 1.356 . S
N818 C810 1.356 . S
N818 H824 0.984 . S
N818 H825 0.984 . S
N819 C812 1.356 . S
N819 H822 0.984 . S
N819 H823 0.985 . S
H820 N815 0.984 . S
H821 N815 0.985 . S
H822 N819 0.984 . S
H823 N819 0.985 . S
H824 N818 0.984 . S
H825 N818 0.984 . S
H826 N814 0.984 . S
H827 N814 0.985 . S
C828 C829 1.363 . S
C828 C834 1.379 . S
C828 N836 1.356 . S
C829 C828 1.363 . S
C829 C835 1.363 . S
C830 C831 1.363 . S
C830 C835 1.379 . S
C830 N837 1.356 . S
C831 C830 1.363 . S
C831 C834 1.363 . S
N832 C834 1.356 . S
N832 H844 0.984 . S
N832 H845 0.985 . S
N833 C835 1.356 . S
N833 H838 0.984 . S
N833 H839 0.985 . S
C834 C828 1.379 . S
C834 C831 1.363 . S
C834 N832 1.356 . S
C835 C829 1.363 . S
C835 C830 1.379 . S
C835 N833 1.356 . S
N836 C828 1.356 . S
N836 H842 0.984 . S
N836 H843 0.984 . S
N837 C830 1.356 . S
N837 H840 0.984 . S
N837 H841 0.985 . S
H838 N833 0.984 . S
H839 N833 0.985 . S
H840 N837 0.984 . S
H841 N837 0.985 . S
H842 N836 0.984 . S
H843 N836 0.984 . S
H844 N832 0.984 . S
H845 N832 0.985 . S
C846 C847 1.363 . S
C846 C852 1.379 . S
C846 N854 1.356 . S
C847 C846 1.363 . S
C847 C853 1.363 . S
C848 C849 1.363 . S
C848 C853 1.379 . S
C848 N855 1.356 . S
C849 C848 1.363 . S
C849 C852 1.363 . S
N850 C852 1.356 . S
N850 H862 0.984 . S
N850 H863 0.985 . S
N851 C853 1.356 . S
N851 H856 0.984 . S
N851 H857 0.985 . S
C852 C846 1.379 . S
C852 C849 1.363 . S
C852 N850 1.356 . S
C853 C847 1.363 . S
C853 C848 1.379 . S
C853 N851 1.356 . S
N854 C846 1.356 . S
N854 H860 0.984 . S
N854 H861 0.984 . S
N855 C848 1.356 . S
N855 H858 0.984 . S
N855 H859 0.985 . S
H856 N851 0.984 . S
H857 N851 0.985 . S
H858 N855 0.984 . S
H859 N855 0.985 . S
H860 N854 0.984 . S
H861 N854 0.984 . S
H862 N850 0.984 . S
H863 N850 0.985 . S
C864 C865 1.363 . S
C864 C870 1.379 . S
C864 N872 1.356 . S
C865 C864 1.363 . S
C865 C871 1.363 . S
C866 C867 1.363 . S
C866 C871 1.379 . S
C866 N873 1.356 . S
C867 C866 1.363 . S
C867 C870 1.363 . S
N868 C870 1.356 . S
N868 H880 0.984 . S
N868 H881 0.985 . S
N869 C871 1.356 . S
N869 H874 0.984 . S
N869 H875 0.985 . S
C870 C864 1.379 . S
C870 C867 1.363 . S
C870 N868 1.356 . S
C871 C865 1.363 . S
C871 C866 1.379 . S
C871 N869 1.356 . S
N872 C864 1.356 . S
N872 H878 0.984 . S
N872 H879 0.984 . S
N873 C866 1.356 . S
N873 H876 0.984 . S
N873 H877 0.985 . S
H874 N869 0.984 . S
H875 N869 0.985 . S
H876 N873 0.984 . S
H877 N873 0.985 . S
H878 N872 0.984 . S
H879 N872 0.984 . S
H880 N868 0.984 . S
H881 N868 0.985 . S
C882 C883 1.363 . S
C882 C888 1.379 . S
C882 N890 1.356 1_554 S
C883 C882 1.363 . S
C883 C889 1.363 . S
C884 C885 1.363 . S
C884 C889 1.379 . S
C884 N891 1.356 . S
C885 C884 1.363 . S
C885 C888 1.363 . S
N886 C888 1.356 . S
N886 H898 0.984 . S
N886 H899 0.985 . S
N887 C889 1.356 . S
N887 H892 0.984 1_554 S
N887 H893 0.985 . S
C888 C882 1.379 . S
C888 C885 1.363 . S
C888 N886 1.356 . S
C889 C883 1.363 . S
C889 C884 1.379 . S
C889 N887 1.356 . S
N890 C882 1.356 1_556 S
N890 H896 0.984 . S
N890 H897 0.984 . S
N891 C884 1.356 . S
N891 H894 0.984 . S
N891 H895 0.985 . S
H892 N887 0.984 1_556 S
H893 N887 0.985 . S
H894 N891 0.984 . S
H895 N891 0.985 . S
H896 N890 0.984 . S
H897 N890 0.984 . S
H898 N886 0.984 . S
H899 N886 0.985 . S
C900 C901 1.363 . S
C900 C906 1.379 . S
C900 N908 1.356 . S
C901 C900 1.363 . S
C901 C907 1.363 . S
C902 C903 1.363 . S
C902 C907 1.379 . S
C902 N909 1.356 . S
C903 C902 1.363 . S
C903 C906 1.363 . S
N904 C906 1.356 . S
N904 H916 0.984 . S
N904 H917 0.985 . S
N905 C907 1.356 . S
N905 H910 0.984 1_554 S
N905 H911 0.985 . S
C906 C900 1.379 . S
C906 C903 1.363 . S
C906 N904 1.356 . S
C907 C901 1.363 . S
C907 C902 1.379 . S
C907 N905 1.356 . S
N908 C900 1.356 . S
N908 H914 0.984 . S
N908 H915 0.984 1_554 S
N909 C902 1.356 . S
N909 H912 0.984 . S
N909 H913 0.985 . S
H910 N905 0.984 1_556 S
H911 N905 0.985 . S
H912 N909 0.984 . S
H913 N909 0.985 . S
H914 N908 0.984 . S
H915 N908 0.984 1_556 S
H916 N904 0.984 . S
H917 N904 0.985 . S
C918 C919 1.363 . S
C918 C924 1.379 . S
C918 N926 1.356 . S
C919 C918 1.363 . S
C919 C925 1.363 . S
C920 C921 1.363 . S
C920 C925 1.379 . S
C920 N927 1.356 . S
C921 C920 1.363 . S
C921 C924 1.363 . S
N922 C924 1.356 . S
N922 H934 0.984 . S
N922 H935 0.985 . S
N923 C925 1.356 . S
N923 H928 0.984 1_554 S
N923 H929 0.985 . S
C924 C918 1.379 . S
C924 C921 1.363 . S
C924 N922 1.356 . S
C925 C919 1.363 . S
C925 C920 1.379 . S
C925 N923 1.356 . S
N926 C918 1.356 . S
N926 H932 0.984 . S
N926 H933 0.984 1_554 S
N927 C920 1.356 . S
N927 H930 0.984 . S
N927 H931 0.985 . S
H928 N923 0.984 1_556 S
H929 N923 0.985 . S
H930 N927 0.984 . S
H931 N927 0.985 . S
H932 N926 0.984 . S
H933 N926 0.984 1_556 S
H934 N922 0.984 . S
H935 N922 0.985 . S
C936 C937 1.363 . S
C936 C942 1.379 . S
C936 N944 1.356 . S
C937 C936 1.363 . S
C937 C943 1.363 . S
C938 C939 1.363 . S
C938 C943 1.379 . S
C938 N945 1.356 1_556 S
C939 C938 1.363 . S
C939 C942 1.363 . S
N940 C942 1.356 . S
N940 H952 0.984 . S
N940 H953 0.985 1_556 S
N941 C943 1.356 . S
N941 H946 0.984 . S
N941 H947 0.985 . S
C942 C936 1.379 . S
C942 C939 1.363 . S
C942 N940 1.356 . S
C943 C937 1.363 . S
C943 C938 1.379 . S
C943 N941 1.356 . S
N944 C936 1.356 . S
N944 H950 0.984 . S
N944 H951 0.984 . S
N945 C938 1.356 1_554 S
N945 H948 0.984 . S
N945 H949 0.985 . S
H946 N941 0.984 . S
H947 N941 0.985 . S
H948 N945 0.984 . S
H949 N945 0.985 . S
H950 N944 0.984 . S
H951 N944 0.984 . S
H952 N940 0.984 . S
H953 N940 0.985 1_554 S
C954 C955 1.363 . S
C954 C960 1.379 . S
C954 N962 1.356 . S
C955 C954 1.363 . S
C955 C961 1.363 . S
C956 C957 1.363 . S
C956 C961 1.379 . S
C956 N963 1.356 . S
C957 C956 1.363 . S
C957 C960 1.363 . S
N958 C960 1.356 1_554 S
N958 H970 0.984 . S
N958 H971 0.985 . S
N959 C961 1.356 . S
N959 H964 0.984 . S
N959 H965 0.985 . S
C960 C954 1.379 . S
C960 C957 1.363 . S
C960 N958 1.356 1_556 S
C961 C955 1.363 . S
C961 C956 1.379 . S
C961 N959 1.356 . S
N962 C954 1.356 . S
N962 H968 0.984 . S
N962 H969 0.984 . S
N963 C956 1.356 . S
N963 H966 0.984 1_556 S
N963 H967 0.985 . S
H964 N959 0.984 . S
H965 N959 0.985 . S
H966 N963 0.984 1_554 S
H967 N963 0.985 . S
H968 N962 0.984 . S
H969 N962 0.984 . S
H970 N958 0.984 . S
H971 N958 0.985 . S
C972 C973 1.363 . S
C972 C978 1.379 . S
C972 N980 1.356 . S
C973 C972 1.363 . S
C973 C979 1.363 . S
C974 C975 1.363 . S
C974 C979 1.379 . S
C974 N981 1.356 1_556 S
C975 C974 1.363 . S
C975 C978 1.363 . S
N976 C978 1.356 . S
N976 H988 0.984 . S
N976 H989 0.985 1_556 S
N977 C979 1.356 . S
N977 H982 0.984 . S
N977 H983 0.985 . S
C978 C972 1.379 . S
C978 C975 1.363 . S
C978 N976 1.356 . S
C979 C973 1.363 . S
C979 C974 1.379 . S
C979 N977 1.356 . S
N980 C972 1.356 . S
N980 H986 0.984 . S
N980 H987 0.984 . S
N981 C974 1.356 1_554 S
N981 H984 0.984 . S
N981 H985 0.985 1_554 S
H982 N977 0.984 . S
H983 N977 0.985 . S
H984 N981 0.984 . S
H985 N981 0.985 1_556 S
H986 N980 0.984 . S
H987 N980 0.984 . S
H988 N976 0.984 . S
H989 N976 0.985 1_554 S
C990 C991 1.363 . S
C990 C996 1.379 . S
C990 N998 1.356 . S
C991 C990 1.363 . S
C991 C997 1.363 . S
C992 C993 1.363 . S
C992 C997 1.379 . S
C992 N999 1.356 . S
C993 C992 1.363 . S
C993 C996 1.363 . S
N994 C996 1.356 . S
N994 H1006 0.984 . S
N994 H1007 0.985 . S
N995 C997 1.356 . S
N995 H1000 0.984 . S
N995 H1001 0.985 . S
C996 C990 1.379 . S
C996 C993 1.363 . S
C996 N994 1.356 . S
C997 C991 1.363 . S
C997 C992 1.379 . S
C997 N995 1.356 . S
N998 C990 1.356 . S
N998 H1004 0.984 . S
N998 H1005 0.984 . S
N999 C992 1.356 . S
N999 H1002 0.984 . S
N999 H1003 0.985 . S
H1000 N995 0.984 . S
H1001 N995 0.985 . S
H1002 N999 0.984 . S
H1003 N999 0.985 . S
H1004 N998 0.984 . S
H1005 N998 0.984 . S
H1006 N994 0.984 . S
H1007 N994 0.985 . S
C1008 C1009 1.363 . S
C1008 C1014 1.379 . S
C1008 N1016 1.356 . S
C1009 C1008 1.363 . S
C1009 C1015 1.363 . S
C1010 C1011 1.363 . S
C1010 C1015 1.379 . S
C1010 N1017 1.356 . S
C1011 C1010 1.363 . S
C1011 C1014 1.363 . S
N1012 C1014 1.356 . S
N1012 H1024 0.984 . S
N1012 H1025 0.985 . S
N1013 C1015 1.356 . S
N1013 H1018 0.984 . S
N1013 H1019 0.985 . S
C1014 C1008 1.379 . S
C1014 C1011 1.363 . S
C1014 N1012 1.356 . S
C1015 C1009 1.363 . S
C1015 C1010 1.379 . S
C1015 N1013 1.356 . S
N1016 C1008 1.356 . S
N1016 H1022 0.984 . S
N1016 H1023 0.984 . S
N1017 C1010 1.356 . S
N1017 H1020 0.984 . S
N1017 H1021 0.985 . S
H1018 N1013 0.984 . S
H1019 N1013 0.985 . S
H1020 N1017 0.984 . S
H1021 N1017 0.985 . S
H1022 N1016 0.984 . S
H1023 N1016 0.984 . S
H1024 N1012 0.984 . S
H1025 N1012 0.985 . S
C1026 C1027 1.363 . S
C1026 C1032 1.379 . S
C1026 N1034 1.356 . S
C1027 C1026 1.363 . S
C1027 C1033 1.363 . S
C1028 C1029 1.363 . S
C1028 C1033 1.379 . S
C1028 N1035 1.356 . S
C1029 C1028 1.363 . S
C1029 C1032 1.363 . S
N1030 C1032 1.356 . S
N1030 H1042 0.984 . S
N1030 H1043 0.985 . S
N1031 C1033 1.356 . S
N1031 H1036 0.984 . S
N1031 H1037 0.985 . S
C1032 C1026 1.379 . S
C1032 C1029 1.363 . S
C1032 N1030 1.356 . S
C1033 C1027 1.363 . S
C1033 C1028 1.379 . S
C1033 N1031 1.356 . S
N1034 C1026 1.356 . S
N1034 H1040 0.984 . S
N1034 H1041 0.984 . S
N1035 C1028 1.356 . S
N1035 H1038 0.984 . S
N1035 H1039 0.985 . S
H1036 N1031 0.984 . S
H1037 N1031 0.985 . S
H1038 N1035 0.984 . S
H1039 N1035 0.985 . S
H1040 N1034 0.984 . S
H1041 N1034 0.984 . S
H1042 N1030 0.984 . S
H1043 N1030 0.985 . S
C1044 C1045 1.363 . S
C1044 C1050 1.379 . S
C1044 N1052 1.356 . S
C1045 C1044 1.363 . S
C1045 C1051 1.363 . S
C1046 C1047 1.363 . S
C1046 C1051 1.379 . S
C1046 N1053 1.356 1_556 S
C1047 C1046 1.363 . S
C1047 C1050 1.363 . S
N1048 C1050 1.356 . S
N1048 H1060 0.984 . S
N1048 H1061 0.985 1_565 S
N1049 C1051 1.356 1_554 S
N1049 H1054 0.984 1_554 S
N1049 H1055 0.985 . S
C1050 C1044 1.379 . S
C1050 C1047 1.363 . S
C1050 N1048 1.356 . S
C1051 C1045 1.363 . S
C1051 C1046 1.379 . S
C1051 N1049 1.356 1_556 S
N1052 C1044 1.356 . S
N1052 H1058 0.984 . S
N1052 H1059 0.984 . S
N1053 C1046 1.356 1_554 S
N1053 H1056 0.984 1_565 S
N1053 H1057 0.985 . S
H1054 N1049 0.984 1_556 S
H1055 N1049 0.985 . S
H1056 N1053 0.984 1_545 S
H1057 N1053 0.985 . S
H1058 N1052 0.984 . S
H1059 N1052 0.984 . S
H1060 N1048 0.984 . S
H1061 N1048 0.985 1_545 S
C1062 C1063 1.363 . S
C1062 C1068 1.379 . S
C1062 N1070 1.356 1_455 S
C1063 C1062 1.363 . S
C1063 C1069 1.363 . S
C1064 C1065 1.363 . S
C1064 C1069 1.379 . S
C1064 N1071 1.356 1_556 S
C1065 C1064 1.363 . S
C1065 C1068 1.363 . S
N1066 C1068 1.356 . S
N1066 H1078 0.984 . S
N1066 H1079 0.985 . S
N1067 C1069 1.356 1_554 S
N1067 H1072 0.984 1_455 S
N1067 H1073 0.985 . S
C1068 C1062 1.379 . S
C1068 C1065 1.363 . S
C1068 N1066 1.356 . S
C1069 C1063 1.363 . S
C1069 C1064 1.379 . S
C1069 N1067 1.356 1_556 S
N1070 C1062 1.356 1_655 S
N1070 H1076 0.984 . S
N1070 H1077 0.984 . S
N1071 C1064 1.356 1_554 S
N1071 H1074 0.984 1_554 S
N1071 H1075 0.985 . S
H1072 N1067 0.984 1_655 S
H1073 N1067 0.985 . S
H1074 N1071 0.984 1_556 S
H1075 N1071 0.985 . S
H1076 N1070 0.984 . S
H1077 N1070 0.984 . S
H1078 N1066 0.984 . S
H1079 N1066 0.985 . S
C1080 C1081 1.363 . S
C1080 C1086 1.379 . S
C1080 N1088 1.356 . S
C1081 C1080 1.363 . S
C1081 C1087 1.363 . S
C1082 C1083 1.363 . S
C1082 C1087 1.379 . S
C1082 N1089 1.356 1_556 S
C1083 C1082 1.363 . S
C1083 C1086 1.363 . S
N1084 C1086 1.356 . S
N1084 H1096 0.984 . S
N1084 H1097 0.985 . S
N1085 C1087 1.356 . S
N1085 H1090 0.984 . S
N1085 H1091 0.985 1_556 S
C1086 C1080 1.379 . S
C1086 C1083 1.363 . S
C1086 N1084 1.356 . S
C1087 C1081 1.363 . S
C1087 C1082 1.379 . S
C1087 N1085 1.356 . S
N1088 C1080 1.356 . S
N1088 H1094 0.984 . S
N1088 H1095 0.984 . S
N1089 C1082 1.356 1_554 S
N1089 H1092 0.984 . S
N1089 H1093 0.985 . S
H1090 N1085 0.984 . S
H1091 N1085 0.985 1_554 S
H1092 N1089 0.984 . S
H1093 N1089 0.985 . S
H1094 N1088 0.984 . S
H1095 N1088 0.984 . S
H1096 N1084 0.984 . S
H1097 N1084 0.985 . S
C1098 C1099 1.363 . S
C1098 C1104 1.379 . S
C1098 N1106 1.356 1_455 S
C1099 C1098 1.363 . S
C1099 C1105 1.363 . S
C1100 C1101 1.363 . S
C1100 C1105 1.379 . S
C1100 N1107 1.356 . S
C1101 C1100 1.363 . S
C1101 C1104 1.363 . S
N1102 C1104 1.356 . S
N1102 H1114 0.984 . S
N1102 H1115 0.985 . S
N1103 C1105 1.356 . S
N1103 H1108 0.979 1_455 S
N1103 H1109 0.985 . S
C1104 C1098 1.379 . S
C1104 C1101 1.363 . S
C1104 N1102 1.356 . S
C1105 C1099 1.363 . S
C1105 C1100 1.379 . S
C1105 N1103 1.356 . S
N1106 C1098 1.356 1_655 S
N1106 H1112 0.984 . S
N1106 H1113 0.984 . S
N1107 C1100 1.356 . S
N1107 H1110 0.984 . S
N1107 H1111 0.985 . S
H1108 N1103 0.979 1_655 S
H1109 N1103 0.985 . S
H1110 N1107 0.984 . S
H1111 N1107 0.985 . S
H1112 N1106 0.984 . S
H1113 N1106 0.984 . S
H1114 N1102 0.984 . S
H1115 N1102 0.985 . S
C1116 C1117 1.363 . S
C1116 C1122 1.379 . S
C1116 N1124 1.356 . S
C1117 C1116 1.363 . S
C1117 C1123 1.363 . S
C1118 C1119 1.363 . S
C1118 C1123 1.379 . S
C1118 N1125 1.356 . S
C1119 C1118 1.363 . S
C1119 C1122 1.363 . S
N1120 C1122 1.356 . S
N1120 H1132 0.984 . S
N1120 H1133 0.985 . S
N1121 C1123 1.356 . S
N1121 H1126 0.984 . S
N1121 H1127 0.985 . S
C1122 C1116 1.379 . S
C1122 C1119 1.363 . S
C1122 N1120 1.356 . S
C1123 C1117 1.363 . S
C1123 C1118 1.379 . S
C1123 N1121 1.356 . S
N1124 C1116 1.356 . S
N1124 H1130 0.984 . S
N1124 H1131 0.984 . S
N1125 C1118 1.356 . S
N1125 H1128 0.984 . S
N1125 H1129 0.985 . S
H1126 N1121 0.984 . S
H1127 N1121 0.985 . S
H1128 N1125 0.984 . S
H1129 N1125 0.985 . S
H1130 N1124 0.984 . S
H1131 N1124 0.984 . S
H1132 N1120 0.984 . S
H1133 N1120 0.985 . S
C1134 C1135 1.363 . S
C1134 C1140 1.379 . S
C1134 N1142 1.356 . S
C1135 C1134 1.363 . S
C1135 C1141 1.363 . S
C1136 C1137 1.363 1_545 S
C1136 C1141 1.379 1_545 S
C1136 N1143 1.356 . S
C1137 C1136 1.363 1_565 S
C1137 C1140 1.363 . S
N1138 C1140 1.356 . S
N1138 H1150 0.984 . S
N1138 H1151 0.985 . S
N1139 C1141 1.356 . S
N1139 H1144 0.984 . S
N1139 H1145 0.985 1_565 S
C1140 C1134 1.379 . S
C1140 C1137 1.363 . S
C1140 N1138 1.356 . S
C1141 C1135 1.363 . S
C1141 C1136 1.379 1_565 S
C1141 N1139 1.356 . S
N1142 C1134 1.356 . S
N1142 H1148 0.984 . S
N1142 H1149 0.984 . S
N1143 C1136 1.356 . S
N1143 H1146 0.984 . S
N1143 H1147 0.985 . S
H1144 N1139 0.984 . S
H1145 N1139 0.985 1_545 S
H1146 N1143 0.984 . S
H1147 N1143 0.985 . S
H1148 N1142 0.984 . S
H1149 N1142 0.984 . S
H1150 N1138 0.984 . S
H1151 N1138 0.985 . S
C1152 C1153 1.363 . S
C1152 C1158 1.379 . S
C1152 N1160 1.356 . S
C1153 C1152 1.363 . S
C1153 C1159 1.363 . S
C1154 C1155 1.363 . S
C1154 C1159 1.379 . S
C1154 N1161 1.356 . S
C1155 C1154 1.363 . S
C1155 C1158 1.363 . S
N1156 C1158 1.356 . S
N1156 H1168 0.984 . S
N1156 H1169 0.985 . S
N1157 C1159 1.356 . S
N1157 H1162 0.984 . S
N1157 H1163 0.985 . S
C1158 C1152 1.379 . S
C1158 C1155 1.363 . S
C1158 N1156 1.356 . S
C1159 C1153 1.363 . S
C1159 C1154 1.379 . S
C1159 N1157 1.356 . S
N1160 C1152 1.356 . S
N1160 H1166 0.984 . S
N1160 H1167 0.984 . S
N1161 C1154 1.356 . S
N1161 H1164 0.984 . S
N1161 H1165 0.985 . S
H1162 N1157 0.984 . S
H1163 N1157 0.985 . S
H1164 N1161 0.984 . S
H1165 N1161 0.985 . S
H1166 N1160 0.984 . S
H1167 N1160 0.984 . S
H1168 N1156 0.984 . S
H1169 N1156 0.985 . S
C1170 C1171 1.363 . S
C1170 C1176 1.379 . S
C1170 N1178 1.356 . S
C1171 C1170 1.363 . S
C1171 C1177 1.363 . S
C1172 C1173 1.363 . S
C1172 C1177 1.379 . S
C1172 N1179 1.356 . S
C1173 C1172 1.363 . S
C1173 C1176 1.363 . S
N1174 C1176 1.356 . S
N1174 H1186 0.984 . S
N1174 H1187 0.985 . S
N1175 C1177 1.356 . S
N1175 H1180 0.984 . S
N1175 H1181 0.985 . S
C1176 C1170 1.379 . S
C1176 C1173 1.363 . S
C1176 N1174 1.356 . S
C1177 C1171 1.363 . S
C1177 C1172 1.379 . S
C1177 N1175 1.356 . S
N1178 C1170 1.356 . S
N1178 H1184 0.984 . S
N1178 H1185 0.984 . S
N1179 C1172 1.356 . S
N1179 H1182 0.984 . S
N1179 H1183 0.985 . S
H1180 N1175 0.984 . S
H1181 N1175 0.985 . S
H1182 N1179 0.984 . S
H1183 N1179 0.985 . S
H1184 N1178 0.984 . S
H1185 N1178 0.984 . S
H1186 N1174 0.984 . S
H1187 N1174 0.985 . S
C1188 C1189 1.363 . S
C1188 C1194 1.379 . S
C1188 N1196 1.356 . S
C1189 C1188 1.363 . S
C1189 C1195 1.363 . S
C1190 C1191 1.363 . S
C1190 C1195 1.379 . S
C1190 N1197 1.356 . S
C1191 C1190 1.363 . S
C1191 C1194 1.363 . S
N1192 C1194 1.356 . S
N1192 H1204 0.984 . S
N1192 H1205 0.985 . S
N1193 C1195 1.356 . S
N1193 H1198 0.984 . S
N1193 H1199 0.985 . S
C1194 C1188 1.379 . S
C1194 C1191 1.363 . S
C1194 N1192 1.356 . S
C1195 C1189 1.363 . S
C1195 C1190 1.379 . S
C1195 N1193 1.356 . S
N1196 C1188 1.356 . S
N1196 H1202 0.984 . S
N1196 H1203 0.984 . S
N1197 C1190 1.356 . S
N1197 H1200 0.984 . S
N1197 H1201 0.985 . S
H1198 N1193 0.984 . S
H1199 N1193 0.985 . S
H1200 N1197 0.984 . S
H1201 N1197 0.985 . S
H1202 N1196 0.984 . S
H1203 N1196 0.984 . S
H1204 N1192 0.984 . S
H1205 N1192 0.985 . S
C1206 C1207 1.363 . S
C1206 C1212 1.379 . S
C1206 N1214 1.356 . S
C1207 C1206 1.363 . S
C1207 C1213 1.363 . S
C1208 C1209 1.363 . S
C1208 C1213 1.379 . S
C1208 N1215 1.356 . S
C1209 C1208 1.363 . S
C1209 C1212 1.363 . S
N1210 C1212 1.356 . S
N1210 H1222 0.984 . S
N1210 H1223 0.985 . S
N1211 C1213 1.356 . S
N1211 H1216 0.984 . S
N1211 H1217 0.985 . S
C1212 C1206 1.379 . S
C1212 C1209 1.363 . S
C1212 N1210 1.356 . S
C1213 C1207 1.363 . S
C1213 C1208 1.379 . S
C1213 N1211 1.356 . S
N1214 C1206 1.356 . S
N1214 H1220 0.984 . S
N1214 H1221 0.984 . S
N1215 C1208 1.356 . S
N1215 H1218 0.984 . S
N1215 H1219 0.985 . S
H1216 N1211 0.984 . S
H1217 N1211 0.985 . S
H1218 N1215 0.984 . S
H1219 N1215 0.985 . S
H1220 N1214 0.984 . S
H1221 N1214 0.984 . S
H1222 N1210 0.984 . S
H1223 N1210 0.985 . S
C1224 C1225 1.363 . S
C1224 C1230 1.379 . S
C1224 N1232 1.356 . S
C1225 C1224 1.363 . S
C1225 C1231 1.363 . S
C1226 C1227 1.363 . S
C1226 C1231 1.379 . S
C1226 N1233 1.356 . S
C1227 C1226 1.363 . S
C1227 C1230 1.363 . S
N1228 C1230 1.356 . S
N1228 H1240 0.984 . S
N1228 H1241 0.985 . S
N1229 C1231 1.356 . S
N1229 H1234 0.984 . S
N1229 H1235 0.985 . S
C1230 C1224 1.379 . S
C1230 C1227 1.363 . S
C1230 N1228 1.356 . S
C1231 C1225 1.363 . S
C1231 C1226 1.379 . S
C1231 N1229 1.356 . S
N1232 C1224 1.356 . S
N1232 H1238 0.984 . S
N1232 H1239 0.984 . S
N1233 C1226 1.356 . S
N1233 H1236 0.984 . S
N1233 H1237 0.985 . S
H1234 N1229 0.984 . S
H1235 N1229 0.985 . S
H1236 N1233 0.984 . S
H1237 N1233 0.985 . S
H1238 N1232 0.984 . S
H1239 N1232 0.984 . S
H1240 N1228 0.984 . S
H1241 N1228 0.985 . S
C1242 C1243 1.363 . S
C1242 C1248 1.379 . S
C1242 N1250 1.356 . S
C1243 C1242 1.363 . S
C1243 C1249 1.363 . S
C1244 C1245 1.363 . S
C1244 C1249 1.379 . S
C1244 N1251 1.356 . S
C1245 C1244 1.363 . S
C1245 C1248 1.363 . S
N1246 C1248 1.356 . S
N1246 H1258 0.984 . S
N1246 H1259 0.985 . S
N1247 C1249 1.356 . S
N1247 H1252 0.984 . S
N1247 H1253 0.985 . S
C1248 C1242 1.379 . S
C1248 C1245 1.363 . S
C1248 N1246 1.356 . S
C1249 C1243 1.363 . S
C1249 C1244 1.379 . S
C1249 N1247 1.356 . S
N1250 C1242 1.356 . S
N1250 H1256 0.984 . S
N1250 H1257 0.984 . S
N1251 C1244 1.356 . S
N1251 H1254 0.984 . S
N1251 H1255 0.985 . S
H1252 N1247 0.984 . S
H1253 N1247 0.985 . S
H1254 N1251 0.984 . S
H1255 N1251 0.985 . S
H1256 N1250 0.984 . S
H1257 N1250 0.984 . S
H1258 N1246 0.984 . S
H1259 N1246 0.985 . S
C1260 C1261 1.363 . S
C1260 C1266 1.379 . S
C1260 N1268 1.356 . S
C1261 C1260 1.363 . S
C1261 C1267 1.363 . S
C1262 C1263 1.363 . S
C1262 C1267 1.379 . S
C1262 N1269 1.356 . S
C1263 C1262 1.363 . S
C1263 C1266 1.363 . S
N1264 C1266 1.356 . S
N1264 H1276 0.984 . S
N1264 H1277 0.985 . S
N1265 C1267 1.356 . S
N1265 H1270 0.984 . S
N1265 H1271 0.985 . S
C1266 C1260 1.379 . S
C1266 C1263 1.363 . S
C1266 N1264 1.356 . S
C1267 C1261 1.363 . S
C1267 C1262 1.379 . S
C1267 N1265 1.356 . S
N1268 C1260 1.356 . S
N1268 H1274 0.984 . S
N1268 H1275 0.984 . S
N1269 C1262 1.356 . S
N1269 H1272 0.984 . S
N1269 H1273 0.985 . S
H1270 N1265 0.984 . S
H1271 N1265 0.985 . S
H1272 N1269 0.984 . S
H1273 N1269 0.985 . S
H1274 N1268 0.984 . S
H1275 N1268 0.984 . S
H1276 N1264 0.984 . S
H1277 N1264 0.985 . S
C1278 C1279 1.363 . S
C1278 C1284 1.379 . S
C1278 N1286 1.356 . S
C1279 C1278 1.363 . S
C1279 C1285 1.363 . S
C1280 C1281 1.363 . S
C1280 C1285 1.379 . S
C1280 N1287 1.356 . S
C1281 C1280 1.363 . S
C1281 C1284 1.363 . S
N1282 C1284 1.356 . S
N1282 H1294 0.984 . S
N1282 H1295 0.985 . S
N1283 C1285 1.356 . S
N1283 H1288 0.984 . S
N1283 H1289 0.985 . S
C1284 C1278 1.379 . S
C1284 C1281 1.363 . S
C1284 N1282 1.356 . S
C1285 C1279 1.363 . S
C1285 C1280 1.379 . S
C1285 N1283 1.356 . S
N1286 C1278 1.356 . S
N1286 H1292 0.984 . S
N1286 H1293 0.984 . S
N1287 C1280 1.356 . S
N1287 H1290 0.984 . S
N1287 H1291 0.985 . S
H1288 N1283 0.984 . S
H1289 N1283 0.985 . S
H1290 N1287 0.984 . S
H1291 N1287 0.985 . S
H1292 N1286 0.984 . S
H1293 N1286 0.984 . S
H1294 N1282 0.984 . S
H1295 N1282 0.985 . S
C1296 C1297 1.363 . S
C1296 C1302 1.379 . S
C1296 N1304 1.356 . S
C1297 C1296 1.363 . S
C1297 C1303 1.363 . S
C1298 C1299 1.363 . S
C1298 C1303 1.379 . S
C1298 N1305 1.356 . S
C1299 C1298 1.363 . S
C1299 C1302 1.363 . S
N1300 C1302 1.356 . S
N1300 H1312 0.984 . S
N1300 H1313 0.985 . S
N1301 C1303 1.356 . S
N1301 H1306 0.984 . S
N1301 H1307 0.985 . S
C1302 C1296 1.379 . S
C1302 C1299 1.363 . S
C1302 N1300 1.356 . S
C1303 C1297 1.363 . S
C1303 C1298 1.379 . S
C1303 N1301 1.356 . S
N1304 C1296 1.356 . S
N1304 H1310 0.984 . S
N1304 H1311 0.984 . S
N1305 C1298 1.356 . S
N1305 H1308 0.984 . S
N1305 H1309 0.985 . S
H1306 N1301 0.984 . S
H1307 N1301 0.985 . S
H1308 N1305 0.984 . S
H1309 N1305 0.985 . S
H1310 N1304 0.984 . S
H1311 N1304 0.984 . S
H1312 N1300 0.984 . S
H1313 N1300 0.985 . S
C1314 C1315 1.363 . S
C1314 C1320 1.379 . S
C1314 N1322 1.356 . S
C1315 C1314 1.363 . S
C1315 C1321 1.363 . S
C1316 C1317 1.363 . S
C1316 C1321 1.379 . S
C1316 N1323 1.356 . S
C1317 C1316 1.363 . S
C1317 C1320 1.363 . S
N1318 C1320 1.356 . S
N1318 H1330 0.984 . S
N1318 H1331 0.985 . S
N1319 C1321 1.356 . S
N1319 H1324 0.984 . S
N1319 H1325 0.985 . S
C1320 C1314 1.379 . S
C1320 C1317 1.363 . S
C1320 N1318 1.356 . S
C1321 C1315 1.363 . S
C1321 C1316 1.379 . S
C1321 N1319 1.356 . S
N1322 C1314 1.356 . S
N1322 H1328 0.984 . S
N1322 H1329 0.984 . S
N1323 C1316 1.356 . S
N1323 H1326 0.984 . S
N1323 H1327 0.985 . S
H1324 N1319 0.984 . S
H1325 N1319 0.985 . S
H1326 N1323 0.984 . S
H1327 N1323 0.985 . S
H1328 N1322 0.984 . S
H1329 N1322 0.984 . S
H1330 N1318 0.984 . S
H1331 N1318 0.985 . S
C1332 C1333 1.363 . S
C1332 C1338 1.379 . S
C1332 N1340 1.356 . S
C1333 C1332 1.363 . S
C1333 C1339 1.363 . S
C1334 C1335 1.363 . S
C1334 C1339 1.379 . S
C1334 N1341 1.363 . S
C1335 C1334 1.363 . S
C1335 C1338 1.363 . S
N1336 C1338 1.356 . S
N1336 H1348 0.984 . S
N1336 H1349 0.985 . S
N1337 C1339 1.356 . S
N1337 H1342 0.984 . S
N1337 H1343 0.985 1_554 S
C1338 C1332 1.379 . S
C1338 C1335 1.363 . S
C1338 N1336 1.356 . S
C1339 C1333 1.363 . S
C1339 C1334 1.379 . S
C1339 N1337 1.356 . S
N1340 C1332 1.356 . S
N1340 H1346 0.984 . S
N1340 H1347 0.984 . S
N1341 C1334 1.363 . S
N1341 H1344 0.985 . S
N1341 H1345 0.977 1_554 S
H1342 N1337 0.984 . S
H1343 N1337 0.985 1_556 S
H1344 N1341 0.985 . S
H1345 N1341 0.977 1_556 S
H1346 N1340 0.984 . S
H1347 N1340 0.984 . S
H1348 N1336 0.984 . S
H1349 N1336 0.985 . S
C1350 C1351 1.363 . S
C1350 C1356 1.379 . S
C1350 N1358 1.356 . S
C1351 C1350 1.363 . S
C1351 C1357 1.363 . S
C1352 C1353 1.363 . S
C1352 C1357 1.379 . S
C1352 N1359 1.356 . S
C1353 C1352 1.363 . S
C1353 C1356 1.363 . S
N1354 C1356 1.356 . S
N1354 H1366 0.984 . S
N1354 H1367 0.985 . S
N1355 C1357 1.356 . S
N1355 H1360 0.984 . S
N1355 H1361 0.985 . S
C1356 C1350 1.379 . S
C1356 C1353 1.363 . S
C1356 N1354 1.356 . S
C1357 C1351 1.363 . S
C1357 C1352 1.379 . S
C1357 N1355 1.356 . S
N1358 C1350 1.356 . S
N1358 H1364 0.984 . S
N1358 H1365 0.984 . S
N1359 C1352 1.356 . S
N1359 H1362 0.984 . S
N1359 H1363 0.985 . S
H1360 N1355 0.984 . S
H1361 N1355 0.985 . S
H1362 N1359 0.984 . S
H1363 N1359 0.985 . S
H1364 N1358 0.984 . S
H1365 N1358 0.984 . S
H1366 N1354 0.984 . S
H1367 N1354 0.985 . S
C397 C15 1.186 . S
C399 C65 1.078 . S
C415 C21 1.078 . S
C417 C37 1.186 . S
C433 C59 1.186 . S
C435 C43 1.078 . S
C451 C103 1.078 . S
C453 C73 1.186 . S
C469 C125 1.078 . S
C471 C95 1.186 . S
C487 C117 1.186 . S
C489 C81 1.078 . S
C505 C197 1.078 . S
C507 C147 1.186 . S
C523 C169 1.186 . S
C525 C153 1.078 . S
C541 C175 1.078 . S
C543 C191 1.186 . S
C559 C213 1.186 . S
C561 C235 1.078 . S
C577 C263 1.078 . S
C579 C227 1.186 . S
C595 C257 1.186 . S
C597 C219 1.078 . S
C613 C329 1.078 . S
C615 C279 1.186 . S
C631 C301 1.186 1_565 S
C633 C285 1.078 . S
C649 C323 1.186 1_455 S
C651 C307 1.078 . S
C667 C345 1.186 . S
C669 C373 1.078 . S
C685 C389 1.078 . S
C687 C367 1.186 1_565 S
C703 C351 1.078 . S
C705 C381 1.186 1_455 S
C721 C131 1.307 . S
C723 C10 1.290 . S
C739 C87 1.306 . S
C741 C32 1.290 . S
C757 C109 1.306 . S
C759 C54 1.290 . S
C775 C29 1.306 . S
C777 C84 1.290 . S
C793 C106 1.290 . S
C795 C51 1.307 . S
C811 C7 1.306 . S
C813 C128 1.290 . S
C829 C142 1.290 . S
C831 C249 1.307 . S
C847 C164 1.290 . S
C849 C205 1.306 . S
C865 C241 1.306 . S
C867 C186 1.290 . S
C883 C208 1.290 1_554 S
C885 C161 1.307 . S
C901 C238 1.290 1_554 S
C903 C183 1.306 . S
C919 C252 1.290 1_554 S
C921 C139 1.306 . S
C937 C274 1.290 . S
C939 C395 1.307 1_556 S
C955 C296 1.290 . S
C957 C337 1.306 1_556 S
C973 C318 1.290 . S
C975 C359 1.306 1_556 S
C991 C340 1.290 . S
C993 C293 1.307 . S
C1009 C362 1.290 . S
C1011 C315 1.306 . S
C1027 C392 1.290 . S
C1029 C271 1.306 . S
C1045 C230 2.075 . S
C1047 C18 1.986 1_565 S
C1063 C40 1.986 1_455 S
C1065 C250 2.075 . S
C1081 C206 2.075 . S
C1083 C62 1.986 . S
C1099 C74 1.986 1_455 S
C1101 C184 2.075 . S
C1117 C96 1.986 . S
C1119 C140 2.075 . S
C1135 C162 2.075 . S
C1137 C118 1.986 1_565 S
C1153 C150 1.986 . S
C1155 C360 2.075 . S
C1171 C172 1.986 . S
C1173 C384 2.075 . S
C1189 C194 1.986 . S
C1191 C338 2.075 . S
C1207 C316 2.075 . S
C1209 C216 1.986 . S
C1225 C272 2.075 . S
C1227 C228 1.986 . S
C1243 C294 2.075 . S
C1245 C260 1.986 . S
C1261 C98 2.075 . S
C1263 C282 1.986 . S
C1279 C304 1.986 . S
C1281 C120 2.075 . S
C1297 C76 2.075 . S
C1299 C326 1.986 . S
C1315 C348 1.986 . S
C1317 C52 2.075 . S
C1333 C370 1.986 . S
C1335 C8 2.075 . S
C1351 C30 2.075 . S
C1353 C382 1.986 . S
