# Generated by pormake.
# Topology acs-a, (4)-cn, num edge types: 1
# Building blocks:
#     Node 0, Type 0, BuildingBlock: ICAMEG_clean_sbu_1, # of connection points: 4
#     Node 1, Type 0, BuildingBlock: ICAMEG_clean_sbu_1, # of connection points: 4
#     Node 2, Type 0, BuildingBlock: ICAMEG_clean_sbu_1, # of connection points: 4
#     Node 3, Type 0, BuildingBlock: ICAMEG_clean_sbu_1, # of connection points: 4
#     Node 4, Type 0, BuildingBlock: ICAMEG_clean_sbu_1, # of connection points: 4
#     Node 5, Type 0, BuildingBlock: ICAMEG_clean_sbu_1, # of connection points: 4
#     Node 6, Type 0, BuildingBlock: ICAMEG_clean_sbu_1, # of connection points: 4
#     Node 7, Type 0, BuildingBlock: ICAMEG_clean_sbu_1, # of connection points: 4
#     Node 8, Type 0, BuildingBlock: ICAMEG_clean_sbu_1, # of connection points: 4
#     Node 9, Type 0, BuildingBlock: ICAMEG_clean_sbu_1, # of connection points: 4
#     Node 10, Type 0, BuildingBlock: ICAMEG_clean_sbu_1, # of connection points: 4
#     Node 11, Type 0, BuildingBlock: ICAMEG_clean_sbu_1, # of connection points: 4
#     Edge 12, Type (0, 0), BuildingBlock: KIFKEQ_clean_linker_1, # of connection points: 2
#     Edge 13, Type (0, 0), BuildingBlock: KIFKEQ_clean_linker_1, # of connection points: 2
#     Edge 14, Type (0, 0), BuildingBlock: KIFKEQ_clean_linker_1, # of connection points: 2
#     Edge 15, Type (0, 0), BuildingBlock: KIFKEQ_clean_linker_1, # of connection points: 2
#     Edge 16, Type (0, 0), BuildingBlock: KIFKEQ_clean_linker_1, # of connection points: 2
#     Edge 17, Type (0, 0), BuildingBlock: KIFKEQ_clean_linker_1, # of connection points: 2
#     Edge 18, Type (0, 0), BuildingBlock: KIFKEQ_clean_linker_1, # of connection points: 2
#     Edge 19, Type (0, 0), BuildingBlock: KIFKEQ_clean_linker_1, # of connection points: 2
#     Edge 20, Type (0, 0), BuildingBlock: KIFKEQ_clean_linker_1, # of connection points: 2
#     Edge 21, Type (0, 0), BuildingBlock: KIFKEQ_clean_linker_1, # of connection points: 2
#     Edge 22, Type (0, 0), BuildingBlock: KIFKEQ_clean_linker_1, # of connection points: 2
#     Edge 23, Type (0, 0), BuildingBlock: KIFKEQ_clean_linker_1, # of connection points: 2
#     Edge 24, Type (0, 0), BuildingBlock: KIFKEQ_clean_linker_1, # of connection points: 2
#     Edge 25, Type (0, 0), BuildingBlock: KIFKEQ_clean_linker_1, # of connection points: 2
#     Edge 26, Type (0, 0), BuildingBlock: KIFKEQ_clean_linker_1, # of connection points: 2
#     Edge 27, Type (0, 0), BuildingBlock: KIFKEQ_clean_linker_1, # of connection points: 2
#     Edge 28, Type (0, 0), BuildingBlock: KIFKEQ_clean_linker_1, # of connection points: 2
#     Edge 29, Type (0, 0), BuildingBlock: KIFKEQ_clean_linker_1, # of connection points: 2
#     Edge 30, Type (0, 0), BuildingBlock: KIFKEQ_clean_linker_1, # of connection points: 2
#     Edge 31, Type (0, 0), BuildingBlock: KIFKEQ_clean_linker_1, # of connection points: 2
#     Edge 32, Type (0, 0), BuildingBlock: KIFKEQ_clean_linker_1, # of connection points: 2
#     Edge 33, Type (0, 0), BuildingBlock: KIFKEQ_clean_linker_1, # of connection points: 2
#     Edge 34, Type (0, 0), BuildingBlock: KIFKEQ_clean_linker_1, # of connection points: 2
#     Edge 35, Type (0, 0), BuildingBlock: KIFKEQ_clean_linker_1, # of connection points: 2
# Relax obj value: 0.495
# Max RMSD: 0.318
# Mean RMSD: 0.247
data_MOF--net-acs-a--node1-ICAMEG_clean_sbu_1--edge1-KIFKEQ_clean_linker_1
_symmetry_space_group_name_H-M    P1
_symmetry_Int_Tables_number       1
_symmetry_cell_setting            triclinic
loop_
_symmetry_equiv_pos_as_xyz
'x, y, z'
_cell_length_a     55.365965
_cell_length_b     45.656214
_cell_length_c     44.743631
_cell_angle_alpha  90.00837
_cell_angle_beta   89.973026
_cell_angle_gamma 114.40154
loop_
_atom_site_label
_atom_site_type_symbol
_atom_site_fract_x
_atom_site_fract_y
_atom_site_fract_z
_atom_type_partial_charge
Co0 Co 0.61616 0.15479 0.11062 0.0
Co1 Co 0.59332 0.13743 0.0395 0.0
O2 O 0.59054 0.12566 0.08201 0.0
C3 C 0.59916 0.08791 0.13745 0.0
O4 O 0.58255 0.07376 0.11566 0.0
C5 C 0.53491 0.11418 0.05031 0.0
O6 O 0.53955 0.13116 0.07501 0.0
O7 O 0.58914 0.17743 0.05037 0.0
O8 O 0.61933 0.19329 0.0869 0.0
H9 H 0.62662 0.21367 0.95284 0.0
H10 H 0.56102 0.10914 0.12919 0.0
O11 O 0.61419 0.11787 0.13639 0.0
H12 H 0.57225 0.21541 0.1664 0.0
H13 H 0.65499 0.19326 0.21269 0.0
H14 H 0.66652 0.21331 0.10425 0.0
H15 H 0.60817 0.20927 0.13855 0.0
H16 H 0.62173 0.1577 0.17725 0.0
O17 O 0.55402 0.11396 0.03464 0.0
H18 H 0.62325 0.19751 0.00581 0.0
H19 H 0.56806 0.10313 0.98329 0.0
H20 H 0.70007 0.24963 0.13892 0.0
H21 H 0.52498 0.11409 0.15745 0.0
H22 H 0.69446 0.23972 0.1936 0.0
H23 H 0.53032 0.16756 0.17632 0.0
O24 O 0.64566 0.15185 0.08728 0.0
H25 H 0.56936 0.0188 0.04495 0.0
H26 H 0.63077 0.12187 0.00119 0.0
H27 H 0.63632 0.07229 0.98925 0.0
H28 H 0.60543 0.02025 0.01113 0.0
H29 H 0.56466 0.06904 0.05647 0.0
H30 H 0.57064 0.11835 0.93013 0.0
H31 H 0.60018 0.17394 0.91458 0.0
O32 O 0.63297 0.16093 0.04214 0.0
C33 C 0.60401 0.19867 0.06863 0.0
C34 C 0.61371 0.18936 0.95933 0.0
C35 C 0.58227 0.13588 0.94659 0.0
N36 N 0.59558 0.14938 0.99763 0.0
C37 C 0.61175 0.18005 0.98928 0.0
C38 C 0.58083 0.12743 0.97674 0.0
C39 C 0.59886 0.16706 0.93787 0.0
C40 C 0.56407 0.13229 0.13796 0.0
N41 N 0.58733 0.15856 0.13306 0.0
C42 C 0.54331 0.13505 0.15369 0.0
C43 C 0.54627 0.16506 0.16418 0.0
C44 C 0.56978 0.19189 0.15864 0.0
C45 C 0.59011 0.18819 0.14287 0.0
C46 C 0.65767 0.19782 0.18891 0.0
C47 C 0.66383 0.20883 0.12798 0.0
C48 C 0.63896 0.17766 0.1687 0.0
N49 N 0.64213 0.18334 0.13861 0.0
C50 C 0.68295 0.22949 0.14753 0.0
C51 C 0.6798 0.2239 0.17819 0.0
C52 C 0.65081 0.16076 0.06012 0.0
C53 C 0.58294 0.04132 0.03526 0.0
C54 C 0.61736 0.09937 0.01098 0.0
C55 C 0.62054 0.07135 0.00404 0.0
C56 C 0.60319 0.04215 0.01631 0.0
N57 N 0.59742 0.09835 0.02957 0.0
C58 C 0.58035 0.06983 0.04168 0.0
Co59 Co 0.3549 0.50887 0.59251 0.0
Co60 Co 0.38738 0.52275 0.52401 0.0
O61 O 0.3794 0.50234 0.56409 0.0
C62 C 0.39983 0.51001 0.63355 0.0
O63 O 0.41365 0.50377 0.61262 0.0
C64 C 0.37988 0.45401 0.51389 0.0
O65 O 0.36553 0.4442 0.53818 0.0
O66 O 0.34868 0.50798 0.51419 0.0
O67 O 0.33056 0.50639 0.55942 0.0
H68 H 0.37961 0.5918 0.44023 0.0
H69 H 0.37178 0.45517 0.60242 0.0
O70 O 0.37816 0.5122 0.62765 0.0
H71 H 0.27422 0.40381 0.59882 0.0
H72 H 0.30395 0.49406 0.68891 0.0
H73 H 0.32349 0.548 0.59076 0.0
H74 H 0.29821 0.46244 0.59282 0.0
H75 H 0.33438 0.48484 0.65373 0.0
O76 O 0.38805 0.48312 0.50544 0.0
H77 H 0.36963 0.56603 0.48981 0.0
H78 H 0.42353 0.52324 0.47414 0.0
H79 H 0.29261 0.55746 0.62509 0.0
H80 H 0.34866 0.3967 0.60927 0.0
H81 H 0.2827 0.53045 0.6746 0.0
H82 H 0.29945 0.37048 0.60735 0.0
O83 O 0.37336 0.55643 0.58774 0.0
H84 H 0.46866 0.51103 0.56137 0.0
H85 H 0.43418 0.58592 0.51913 0.0
H86 H 0.48173 0.60563 0.53114 0.0
H87 H 0.49931 0.56804 0.55227 0.0
H88 H 0.42123 0.49245 0.54948 0.0
H89 H 0.43396 0.54835 0.42433 0.0
H90 H 0.41199 0.583 0.40707 0.0
O91 O 0.38776 0.56329 0.54038 0.0
C92 C 0.32916 0.50493 0.53111 0.0
C93 C 0.38926 0.57668 0.44745 0.0
C94 C 0.41974 0.55228 0.43852 0.0
N95 N 0.39575 0.54289 0.48484 0.0
C96 C 0.38363 0.56197 0.4755 0.0
C97 C 0.41363 0.53797 0.46672 0.0
C98 C 0.40743 0.57174 0.42886 0.0
C99 C 0.35046 0.44426 0.60216 0.0
N100 N 0.33649 0.46249 0.59757 0.0
C101 C 0.33741 0.41097 0.60577 0.0
C102 C 0.30982 0.39626 0.6046 0.0
C103 C 0.29566 0.41493 0.59978 0.0
C104 C 0.30939 0.44815 0.59625 0.0
C105 C 0.30808 0.50594 0.66739 0.0
C106 C 0.31913 0.53594 0.61216 0.0
C107 C 0.32538 0.5009 0.6474 0.0
N108 N 0.3306 0.5157 0.6201 0.0
C109 C 0.30169 0.54149 0.63156 0.0
C110 C 0.29616 0.52635 0.65934 0.0
C111 C 0.38359 0.57415 0.56507 0.0
C112 C 0.46127 0.52762 0.55205 0.0
C113 C 0.4416 0.56942 0.52848 0.0
C114 C 0.46859 0.58072 0.53515 0.0
C115 C 0.47844 0.55961 0.54698 0.0
N116 N 0.42489 0.53794 0.53332 0.0
C117 C 0.43441 0.51718 0.5451 0.0
Co118 Co 0.85998 0.40243 0.03042 0.0
Co119 Co 0.83116 0.37332 0.09796 0.0
O120 O 0.86325 0.39561 0.07367 0.0
C121 C 0.90727 0.38551 0.03437 0.0
O122 O 0.89703 0.36674 0.05745 0.0
C123 C 0.87026 0.42151 0.14118 0.0
O124 O 0.88994 0.43138 0.12197 0.0
O125 O 0.8178 0.40564 0.08532 0.0
O126 O 0.82521 0.40593 0.03625 0.0
H127 H 0.73249 0.32382 0.11437 0.0
H128 H 0.90887 0.44419 0.06257 0.0
O129 O 0.89485 0.40028 0.02196 0.0
H130 H 0.87343 0.5181 0.0202 0.0
H131 H 0.89378 0.44878 0.92874 0.0
H132 H 0.81606 0.37679 0.98651 0.0
H133 H 0.85054 0.4597 0.01156 0.0
H134 H 0.89747 0.44121 0.98282 0.0
O135 O 0.84742 0.40041 0.13408 0.0
H136 H 0.77371 0.3516 0.0856 0.0
H137 H 0.8196 0.34939 0.16096 0.0
H138 H 0.81143 0.38389 0.93251 0.0
H139 H 0.93254 0.50249 0.07154 0.0
H140 H 0.85049 0.42011 0.90324 0.0
H141 H 0.91479 0.53989 0.05032 0.0
O142 O 0.84089 0.35501 0.0246 0.0
H143 H 0.89992 0.33518 0.13336 0.0
H144 H 0.80674 0.30196 0.10321 0.0
H145 H 0.82227 0.26083 0.11818 0.0
H146 H 0.86915 0.2773 0.13362 0.0
H147 H 0.88372 0.37535 0.11774 0.0
H148 H 0.77887 0.32201 0.19063 0.0
H149 H 0.7349 0.30876 0.16725 0.0
O150 O 0.81302 0.34487 0.06353 0.0
C151 C 0.81396 0.41238 0.05861 0.0
C152 C 0.75153 0.32938 0.12477 0.0
C153 C 0.77756 0.32841 0.16758 0.0
N154 N 0.79907 0.35193 0.12147 0.0
C155 C 0.77495 0.34504 0.10857 0.0
C156 C 0.80057 0.34406 0.15069 0.0
C157 C 0.7529 0.32097 0.15446 0.0
C158 C 0.9011 0.46031 0.05315 0.0
N159 N 0.87837 0.44852 0.03655 0.0
C160 C 0.91456 0.4933 0.05835 0.0
C161 C 0.90457 0.51427 0.04646 0.0
C162 C 0.88136 0.50206 0.02957 0.0
C163 C 0.86844 0.46893 0.02484 0.0
C164 C 0.87661 0.43295 0.94125 0.0
C165 C 0.83312 0.39267 0.97397 0.0
C166 C 0.87859 0.42848 0.97188 0.0
N167 N 0.85696 0.40864 0.98788 0.0
C168 C 0.83039 0.39656 0.94338 0.0
C169 C 0.85232 0.41687 0.92696 0.0
C170 C 0.82032 0.33676 0.03907 0.0
C171 C 0.87937 0.32771 0.12701 0.0
C172 C 0.82717 0.30948 0.10997 0.0
C173 C 0.83584 0.28599 0.11843 0.0
C174 C 0.86213 0.29524 0.12707 0.0
N175 N 0.8441 0.3414 0.11025 0.0
C176 C 0.86997 0.35052 0.11841 0.0
Co177 Co 0.38653 0.84216 0.61169 0.0
Co178 Co 0.40797 0.86402 0.54051 0.0
O179 O 0.41119 0.87336 0.58362 0.0
C180 C 0.40141 0.90732 0.64192 0.0
O181 O 0.41831 0.92353 0.62103 0.0
C182 C 0.46672 0.8888 0.55001 0.0
O183 O 0.46286 0.87135 0.57432 0.0
O184 O 0.41304 0.82388 0.54819 0.0
O185 O 0.38416 0.80541 0.5859 0.0
H186 H 0.37455 0.79278 0.4505 0.0
H187 H 0.44108 0.88889 0.63084 0.0
O188 O 0.38758 0.87716 0.63944 0.0
H189 H 0.43415 0.78211 0.66113 0.0
H190 H 0.35017 0.79755 0.7132 0.0
H191 H 0.33708 0.78264 0.60436 0.0
H192 H 0.39704 0.7877 0.63541 0.0
H193 H 0.38218 0.83578 0.67827 0.0
O194 O 0.44712 0.88867 0.53508 0.0
H195 H 0.3784 0.80571 0.50427 0.0
H196 H 0.43192 0.90198 0.48548 0.0
H197 H 0.30479 0.74367 0.6385 0.0
H198 H 0.4783 0.88446 0.65701 0.0
H199 H 0.3112 0.751 0.69338 0.0
H200 H 0.47512 0.83073 0.67238 0.0
O201 O 0.35605 0.84467 0.59008 0.0
H202 H 0.42987 0.98159 0.55295 0.0
H203 H 0.36919 0.88038 0.50552 0.0
H204 H 0.36239 0.92986 0.49737 0.0
H205 H 0.39291 0.98096 0.52111 0.0
H206 H 0.43581 0.93147 0.56067 0.0
H207 H 0.42883 0.89 0.43153 0.0
H208 H 0.39989 0.83509 0.4137 0.0
O209 O 0.36847 0.83932 0.54366 0.0
C210 C 0.39865 0.80135 0.56566 0.0
C211 C 0.38719 0.81681 0.45798 0.0
C212 C 0.41767 0.87136 0.44734 0.0
N213 N 0.40526 0.85461 0.49802 0.0
C214 C 0.38941 0.8243 0.48841 0.0
C215 C 0.4194 0.87798 0.47793 0.0
C216 C 0.40142 0.84055 0.43735 0.0
C217 C 0.43899 0.86555 0.6381 0.0
N218 N 0.41628 0.83882 0.63245 0.0
C219 C 0.4604 0.86312 0.65265 0.0
C220 C 0.45865 0.83298 0.66117 0.0
C221 C 0.43568 0.80571 0.65488 0.0
C222 C 0.41467 0.80909 0.64032 0.0
C223 C 0.34715 0.7941 0.68934 0.0
C224 C 0.34012 0.78599 0.62817 0.0
C225 C 0.36516 0.81577 0.66941 0.0
N226 N 0.36156 0.81151 0.63921 0.0
C227 C 0.32171 0.76384 0.64742 0.0
C228 C 0.3253 0.76798 0.6782 0.0
C229 C 0.35063 0.83723 0.56266 0.0
C230 C 0.41645 0.95948 0.54246 0.0
C231 C 0.38246 0.90247 0.51609 0.0
C232 C 0.37856 0.93044 0.51131 0.0
C233 C 0.3957 0.95911 0.52461 0.0
N234 N 0.4029 0.90306 0.53358 0.0
C235 C 0.41975 0.93105 0.54672 0.0
Co236 Co 0.64845 0.48749 0.11443 0.0
Co237 Co 0.61618 0.47787 0.04624 0.0
O238 O 0.62526 0.49736 0.08658 0.0
C239 C 0.60576 0.49182 0.15563 0.0
O240 O 0.59212 0.49718 0.13398 0.0
C241 C 0.62284 0.54686 0.03858 0.0
O242 O 0.63314 0.55496 0.06531 0.0
O243 O 0.65456 0.4907 0.03607 0.0
O244 O 0.67153 0.48697 0.08078 0.0
H245 H 0.62009 0.40829 0.96082 0.0
H246 H 0.63706 0.5452 0.12536 0.0
O247 O 0.62661 0.48747 0.15011 0.0
H248 H 0.73437 0.58649 0.11953 0.0
H249 H 0.69974 0.49671 0.20971 0.0
H250 H 0.67478 0.44266 0.11195 0.0
H251 H 0.70645 0.52858 0.11392 0.0
H252 H 0.67117 0.5102 0.17517 0.0
O253 O 0.61731 0.51879 0.02837 0.0
H254 H 0.63114 0.43287 0.01082 0.0
H255 H 0.58086 0.48102 0.99692 0.0
H256 H 0.7037 0.42881 0.14565 0.0
H257 H 0.66415 0.60309 0.13178 0.0
H258 H 0.71633 0.45588 0.19496 0.0
H259 H 0.71324 0.62422 0.12873 0.0
O260 O 0.62672 0.44041 0.10964 0.0
H261 H 0.53684 0.4928 0.08629 0.0
H262 H 0.56787 0.41664 0.03986 0.0
H263 H 0.52052 0.39871 0.05197 0.0
H264 H 0.50465 0.43697 0.07518 0.0
H265 H 0.58399 0.50952 0.07435 0.0
H266 H 0.56941 0.45716 0.94671 0.0
H267 H 0.58901 0.42042 0.92834 0.0
O268 O 0.61417 0.4362 0.06168 0.0
C269 C 0.67323 0.49017 0.05255 0.0
C270 C 0.61149 0.42435 0.96852 0.0
C271 C 0.58307 0.4518 0.96059 0.0
N272 N 0.60694 0.45865 0.00676 0.0
C273 C 0.61774 0.43841 0.99681 0.0
C274 C 0.58977 0.46539 0.98901 0.0
C275 C 0.59405 0.43116 0.95031 0.0
C276 C 0.65832 0.55395 0.12441 0.0
N277 N 0.67004 0.53331 0.11932 0.0
C278 C 0.67361 0.5869 0.12788 0.0
C279 C 0.70114 0.59875 0.12609 0.0
C280 C 0.713 0.57761 0.12089 0.0
C281 C 0.69706 0.54483 0.11753 0.0
C282 C 0.69439 0.48477 0.18828 0.0
C283 C 0.68031 0.45471 0.13328 0.0
C284 C 0.67812 0.49221 0.16866 0.0
N285 N 0.67136 0.47732 0.14148 0.0
C286 C 0.69664 0.44669 0.15231 0.0
C287 C 0.7037 0.46187 0.17998 0.0
C288 C 0.61675 0.42384 0.08626 0.0
C289 C 0.54347 0.47595 0.07598 0.0
C290 C 0.56122 0.43345 0.05007 0.0
C291 C 0.53433 0.42315 0.05681 0.0
C292 C 0.52543 0.44462 0.06981 0.0
N293 N 0.57882 0.46434 0.05591 0.0
C294 C 0.57022 0.4854 0.06892 0.0
Co295 Co 0.14181 0.59185 0.52801 0.0
Co296 Co 0.17251 0.61498 0.5954 0.0
O297 O 0.13966 0.59561 0.57186 0.0
C298 C 0.09573 0.60999 0.53742 0.0
O299 O 0.10683 0.62646 0.56147 0.0
C300 C 0.13301 0.5659 0.63784 0.0
O301 O 0.11322 0.55728 0.61883 0.0
O302 O 0.1838 0.582 0.57942 0.0
O303 O 0.1761 0.58651 0.53104 0.0
H304 H 0.27135 0.65789 0.60877 0.0
H305 H 0.09318 0.54895 0.55998 0.0
O306 O 0.10734 0.59593 0.52238 0.0
H307 H 0.1251 0.47637 0.50816 0.0
H308 H 0.10539 0.55432 0.42499 0.0
H309 H 0.18502 0.61954 0.48348 0.0
H310 H 0.14911 0.53517 0.5032 0.0
H311 H 0.1029 0.55791 0.47979 0.0
O312 O 0.15608 0.58645 0.63067 0.0
H313 H 0.2293 0.63407 0.58081 0.0
H314 H 0.18618 0.63505 0.65911 0.0
H315 H 0.18844 0.61637 0.42873 0.0
H316 H 0.06842 0.49026 0.56535 0.0
H317 H 0.14842 0.58357 0.3991 0.0
H318 H 0.0844 0.45353 0.53936 0.0
O319 O 0.16171 0.63948 0.52519 0.0
H320 H 0.10798 0.6559 0.63863 0.0
H321 H 0.19959 0.68591 0.60384 0.0
H322 H 0.18656 0.72787 0.6228 0.0
H323 H 0.14048 0.713 0.64058 0.0
H324 H 0.12167 0.6149 0.61901 0.0
H325 H 0.22775 0.65849 0.68797 0.0
H326 H 0.27076 0.67036 0.66273 0.0
O327 O 0.19086 0.64489 0.56182 0.0
C328 C 0.18709 0.57735 0.55192 0.0
C329 C 0.25274 0.65293 0.62 0.0
C330 C 0.22827 0.65322 0.66445 0.0
N331 N 0.20528 0.63335 0.61821 0.0
C332 C 0.22885 0.6395 0.60426 0.0
C333 C 0.20477 0.6398 0.648 0.0
C334 C 0.25239 0.65988 0.65028 0.0
C335 C 0.10018 0.53313 0.54849 0.0
N336 N 0.12254 0.54551 0.53129 0.0
C337 C 0.08611 0.49991 0.55166 0.0
C338 C 0.0951 0.47932 0.53709 0.0
C339 C 0.11794 0.49212 0.5196 0.0
C340 C 0.1315 0.52545 0.51696 0.0
C341 C 0.12298 0.56866 0.43765 0.0
C342 C 0.16754 0.60512 0.47077 0.0
C343 C 0.12168 0.57087 0.4687 0.0
N344 N 0.14384 0.5888 0.48487 0.0
C345 C 0.16959 0.60346 0.43976 0.0
C346 C 0.14713 0.58507 0.42314 0.0
C347 C 0.18307 0.65573 0.53932 0.0
C348 C 0.12819 0.66266 0.63124 0.0
C349 C 0.17949 0.67909 0.61156 0.0
C350 C 0.17224 0.70304 0.6223 0.0
C351 C 0.14641 0.69469 0.63225 0.0
N352 N 0.16159 0.64759 0.61083 0.0
C353 C 0.13617 0.63936 0.62034 0.0
Co354 Co 0.83345 0.45372 0.41045 0.0
Co355 Co 0.86066 0.44721 0.47707 0.0
O356 O 0.86476 0.46155 0.43517 0.0
C357 C 0.85987 0.42944 0.36311 0.0
O358 O 0.85587 0.40329 0.3784 0.0
C359 C 0.9048 0.51348 0.47889 0.0
O360 O 0.8926 0.5233 0.45876 0.0
O361 O 0.83988 0.47308 0.4857 0.0
O362 O 0.81303 0.45796 0.44576 0.0
H363 H 0.80977 0.40464 0.57207 0.0
H364 H 0.88523 0.50524 0.39296 0.0
O365 O 0.85314 0.45081 0.37379 0.0
H366 H 0.8248 0.55916 0.4043 0.0
H367 H 0.78492 0.46435 0.31859 0.0
H368 H 0.77577 0.41424 0.41798 0.0
H369 H 0.80875 0.5008 0.41268 0.0
H370 H 0.82433 0.47484 0.34976 0.0
O371 O 0.89448 0.48458 0.48825 0.0
H372 H 0.81543 0.42192 0.51935 0.0
H373 H 0.89771 0.44371 0.52404 0.0
H374 H 0.73581 0.40348 0.38769 0.0
H375 H 0.90203 0.56362 0.38392 0.0
H376 H 0.74022 0.42867 0.33764 0.0
H377 H 0.87175 0.59099 0.38971 0.0
O378 O 0.82036 0.40667 0.4183 0.0
H379 H 0.93631 0.42868 0.43207 0.0
H380 H 0.85336 0.37981 0.49001 0.0
H381 H 0.87822 0.34735 0.47772 0.0
H382 H 0.92006 0.3718 0.44862 0.0
H383 H 0.9107 0.46021 0.44464 0.0
H384 H 0.89298 0.42694 0.57689 0.0
H385 H 0.84874 0.4071 0.60121 0.0
O386 O 0.82702 0.40854 0.46774 0.0
C387 C 0.81919 0.47076 0.47151 0.0
C388 C 0.82914 0.41318 0.56171 0.0
C389 C 0.87585 0.42573 0.56442 0.0
N390 N 0.85683 0.43366 0.51857 0.0
C391 C 0.83246 0.42294 0.53184 0.0
C392 C 0.87841 0.43529 0.53451 0.0
C393 C 0.85102 0.41459 0.57805 0.0
C394 C 0.87188 0.51694 0.39531 0.0
N395 N 0.84607 0.49963 0.40346 0.0
C396 C 0.88153 0.55002 0.39025 0.0
C397 C 0.86454 0.56537 0.39353 0.0
C398 C 0.83821 0.54754 0.40174 0.0
C399 C 0.82927 0.51451 0.4066 0.0
C400 C 0.78274 0.45325 0.34038 0.0
C401 C 0.77789 0.42536 0.39625 0.0
C402 C 0.80501 0.45897 0.35809 0.0
N403 N 0.8024 0.44526 0.38575 0.0
C404 C 0.75518 0.41912 0.37917 0.0
C405 C 0.75766 0.43324 0.35108 0.0
C406 C 0.81616 0.39329 0.44399 0.0
C407 C 0.91815 0.41778 0.44483 0.0
C408 C 0.8715 0.39061 0.47726 0.0
C409 C 0.88553 0.37212 0.47042 0.0
C410 C 0.909 0.38586 0.4541 0.0
N411 N 0.88065 0.42195 0.46819 0.0
C412 C 0.9036 0.43554 0.45209 0.0
Co413 Co 0.35563 0.84966 0.89882 0.0
Co414 Co 0.38235 0.87134 0.96956 0.0
O415 O 0.37685 0.88249 0.92802 0.0
C416 C 0.40081 0.89726 0.86038 0.0
O417 O 0.41222 0.91752 0.88217 0.0
C418 C 0.37763 0.93513 0.97443 0.0
O419 O 0.36804 0.93268 0.94731 0.0
O420 O 0.34312 0.84782 0.97611 0.0
O421 O 0.32998 0.82602 0.93067 0.0
H422 H 0.36878 0.79714 0.05721 0.0
H423 H 0.3678 0.91912 0.88787 0.0
O424 O 0.38015 0.87151 0.86499 0.0
H425 H 0.27052 0.86247 0.8828 0.0
H426 H 0.31212 0.80797 0.79938 0.0
H427 H 0.3288 0.77849 0.90087 0.0
H428 H 0.2979 0.83257 0.89259 0.0
H429 H 0.33793 0.84991 0.8356 0.0
O430 O 0.38197 0.91219 0.98575 0.0
H431 H 0.36236 0.81135 0.0056 0.0
H432 H 0.41525 0.90856 0.02102 0.0
H433 H 0.30254 0.73583 0.86547 0.0
H434 H 0.34133 0.94984 0.87739 0.0
H435 H 0.2941 0.75046 0.81428 0.0
H436 H 0.29224 0.92157 0.87491 0.0
O437 O 0.37688 0.82436 0.90674 0.0
H438 H 0.46658 0.96241 0.93504 0.0
H439 H 0.42828 0.85496 0.98157 0.0
H440 H 0.47654 0.88201 0.97354 0.0
H441 H 0.49605 0.93624 0.9503 0.0
H442 H 0.41847 0.93435 0.94299 0.0
H443 H 0.42216 0.89551 0.07283 0.0
H444 H 0.39888 0.83943 0.09127 0.0
O445 O 0.38358 0.83051 0.95606 0.0
C446 C 0.32582 0.82837 0.95835 0.0
C447 C 0.37894 0.8217 0.0495 0.0
C448 C 0.40887 0.8769 0.05827 0.0
N449 N 0.38805 0.86078 0.01032 0.0
C450 C 0.37528 0.82988 0.0203 0.0
C451 C 0.40473 0.88417 0.02892 0.0
C452 C 0.39584 0.84543 0.06859 0.0
C453 C 0.34659 0.90646 0.88642 0.0
N454 N 0.33457 0.87396 0.89072 0.0
C455 C 0.33162 0.92408 0.88066 0.0
C456 C 0.30409 0.90822 0.87934 0.0
C457 C 0.2919 0.8751 0.8838 0.0
C458 C 0.30753 0.85831 0.88952 0.0
C459 C 0.31564 0.80129 0.82163 0.0
C460 C 0.32504 0.78509 0.87872 0.0
C461 C 0.33033 0.82494 0.84222 0.0
N462 N 0.33477 0.8167 0.87043 0.0
C463 C 0.31023 0.76081 0.85873 0.0
C464 C 0.30552 0.76903 0.83001 0.0
C465 C 0.38376 0.81649 0.93158 0.0
C466 C 0.45835 0.93887 0.94537 0.0
C467 C 0.43654 0.87851 0.97133 0.0
C468 C 0.46393 0.89373 0.9669 0.0
C469 C 0.47486 0.92416 0.95388 0.0
N470 N 0.42045 0.89321 0.9632 0.0
C471 C 0.43105 0.92291 0.95014 0.0
Co472 Co 0.591 0.44535 0.46741 0.0
Co473 Co 0.61729 0.45517 0.39765 0.0
O474 O 0.59091 0.45801 0.42544 0.0
C475 C 0.53331 0.41493 0.45189 0.0
O476 O 0.53891 0.40417 0.4268 0.0
C477 C 0.60388 0.50871 0.37273 0.0
O478 O 0.58584 0.50509 0.39316 0.0
O479 O 0.64607 0.48443 0.42393 0.0
O480 O 0.63055 0.45932 0.46717 0.0
H481 H 0.70067 0.44181 0.37203 0.0
H482 H 0.56586 0.48922 0.45162 0.0
O483 O 0.55172 0.43154 0.4698 0.0
H484 H 0.63503 0.5487 0.52526 0.0
H485 H 0.56258 0.43442 0.57531 0.0
H486 H 0.617 0.40996 0.50044 0.0
H487 H 0.62777 0.4938 0.51001 0.0
H488 H 0.56358 0.45168 0.52293 0.0
O489 O 0.61832 0.49307 0.37413 0.0
H490 H 0.66585 0.4434 0.40543 0.0
H491 H 0.62667 0.46325 0.33164 0.0
H492 H 0.61677 0.39251 0.55264 0.0
H493 H 0.57232 0.54403 0.4664 0.0
H494 H 0.58942 0.40474 0.59049 0.0
H495 H 0.60714 0.57416 0.50346 0.0
O496 O 0.58563 0.40148 0.45393 0.0
H497 H 0.5287 0.41296 0.34462 0.0
H498 H 0.60883 0.39482 0.36524 0.0
H499 H 0.57385 0.35672 0.33326 0.0
H500 H 0.53349 0.3658 0.32242 0.0
H501 H 0.56369 0.44984 0.37698 0.0
H502 H 0.66123 0.46217 0.2975 0.0
H503 H 0.69852 0.45125 0.31763 0.0
O504 O 0.61749 0.41693 0.4192 0.0
C505 C 0.64962 0.47804 0.45087 0.0
C506 C 0.6845 0.44654 0.36298 0.0
C507 C 0.66239 0.45802 0.32117 0.0
N508 N 0.64417 0.45337 0.37059 0.0
C509 C 0.66467 0.44743 0.3818 0.0
C510 C 0.64293 0.45875 0.34066 0.0
C511 C 0.6833 0.45187 0.33246 0.0
C512 C 0.58099 0.50216 0.46782 0.0
N513 N 0.5964 0.48832 0.47991 0.0
C514 C 0.58458 0.53319 0.47607 0.0
C515 C 0.60414 0.55009 0.49685 0.0
C516 C 0.61981 0.53583 0.50907 0.0
C517 C 0.61565 0.50476 0.50027 0.0
C518 C 0.57461 0.42899 0.55903 0.0
C519 C 0.60514 0.4155 0.5168 0.0
C520 C 0.57519 0.43862 0.52932 0.0
N521 N 0.59046 0.432 0.50867 0.0
C522 C 0.60504 0.4055 0.54632 0.0
C523 C 0.58968 0.41234 0.56754 0.0
C524 C 0.60075 0.3954 0.43579 0.0
C525 C 0.5464 0.40903 0.34873 0.0
C526 C 0.59148 0.39923 0.36056 0.0
C527 C 0.57167 0.37743 0.34244 0.0
C528 C 0.54904 0.38252 0.33639 0.0
N529 N 0.58909 0.42566 0.37217 0.0
C530 C 0.56661 0.43028 0.3668 0.0
Co531 Co 0.17281 0.55613 0.9064 0.0
Co532 Co 0.14153 0.55135 0.97313 0.0
O533 O 0.13977 0.54201 0.92979 0.0
C534 C 0.13212 0.55942 0.86167 0.0
O535 O 0.11217 0.54827 0.88049 0.0
C536 C 0.09633 0.48522 0.96684 0.0
O537 O 0.10599 0.47983 0.9417 0.0
O538 O 0.16376 0.52675 0.97902 0.0
O539 O 0.19224 0.54925 0.94146 0.0
H540 H 0.18816 0.585 0.07182 0.0
H541 H 0.12372 0.50122 0.88449 0.0
O542 O 0.15545 0.56381 0.86966 0.0
H543 H 0.19261 0.45941 0.88828 0.0
H544 H 0.22904 0.56484 0.81526 0.0
H545 H 0.22896 0.59865 0.91991 0.0
H546 H 0.20295 0.51523 0.90301 0.0
H547 H 0.18735 0.54604 0.84397 0.0
O548 O 0.10844 0.5114 0.98105 0.0
H549 H 0.18503 0.57389 0.01771 0.0
H550 H 0.10188 0.54705 0.02026 0.0
H551 H 0.27113 0.61765 0.8921 0.0
H552 H 0.11267 0.44554 0.86907 0.0
H553 H 0.27137 0.60068 0.83941 0.0
H554 H 0.14721 0.42411 0.87096 0.0
O555 O 0.1819 0.60112 0.91907 0.0
H556 H 0.06455 0.56892 0.93068 0.0
H557 H 0.14506 0.6156 0.99286 0.0
H558 H 0.11828 0.64653 0.98419 0.0
H559 H 0.07764 0.62316 0.95298 0.0
H560 H 0.09205 0.53894 0.9397 0.0
H561 H 0.10409 0.55759 0.07444 0.0
H562 H 0.14749 0.57686 0.10057 0.0
O563 O 0.17434 0.59247 0.96797 0.0
C564 C 0.18551 0.53271 0.96536 0.0
C565 C 0.16915 0.57668 0.06068 0.0
C566 C 0.12196 0.56126 0.06216 0.0
N567 N 0.14334 0.55997 0.01576 0.0
C568 C 0.16725 0.57039 0.03002 0.0
C569 C 0.12083 0.55523 0.03147 0.0
C570 C 0.14632 0.57208 0.0768 0.0
C571 C 0.13904 0.49253 0.88488 0.0
N572 N 0.16407 0.51193 0.89419 0.0
C573 C 0.13259 0.46075 0.87633 0.0
C574 C 0.15195 0.44871 0.87746 0.0
C575 C 0.1774 0.46849 0.88717 0.0
C576 C 0.18311 0.50013 0.89552 0.0
C577 C 0.2292 0.57236 0.83823 0.0
C578 C 0.22887 0.59105 0.89702 0.0
C579 C 0.20562 0.5619 0.85458 0.0
N580 N 0.20569 0.57106 0.8837 0.0
C581 C 0.25283 0.60196 0.88137 0.0
C582 C 0.25295 0.59246 0.85179 0.0
C583 C 0.18471 0.61121 0.94593 0.0
C584 C 0.08217 0.57933 0.94439 0.0
C585 C 0.12747 0.60529 0.97914 0.0
C586 C 0.11235 0.6229 0.97437 0.0
C587 C 0.08954 0.60978 0.95687 0.0
N588 N 0.12007 0.57538 0.96689 0.0
C589 C 0.09779 0.56242 0.94964 0.0
Co590 Co 0.63957 0.14703 0.38769 0.0
Co591 Co 0.6149 0.13042 0.46006 0.0
O592 O 0.61941 0.11652 0.41921 0.0
C593 C 0.59277 0.097 0.35319 0.0
O594 O 0.5826 0.078 0.37616 0.0
C595 C 0.62177 0.0684 0.46867 0.0
O596 O 0.63111 0.0697 0.44155 0.0
O597 O 0.65422 0.15604 0.46463 0.0
O598 O 0.66657 0.17265 0.41751 0.0
H599 H 0.62898 0.21119 0.54213 0.0
H600 H 0.62645 0.0766 0.38136 0.0
O601 O 0.61349 0.1231 0.35584 0.0
H602 H 0.72334 0.13163 0.3697 0.0
H603 H 0.67865 0.18067 0.28489 0.0
H604 H 0.66724 0.21815 0.38511 0.0
H605 H 0.69676 0.16273 0.37849 0.0
H606 H 0.65424 0.14175 0.3241 0.0
O607 O 0.61714 0.09161 0.47883 0.0
H608 H 0.6343 0.19324 0.49158 0.0
H609 H 0.58465 0.09664 0.51441 0.0
H610 H 0.69214 0.25783 0.34666 0.0
H611 H 0.65203 0.04464 0.37184 0.0
H612 H 0.69794 0.23917 0.29611 0.0
H613 H 0.70095 0.07209 0.36609 0.0
O614 O 0.61917 0.17359 0.39468 0.0
H615 H 0.53142 0.03431 0.43234 0.0
H616 H 0.56795 0.14485 0.4721 0.0
H617 H 0.5196 0.11524 0.46659 0.0
H618 H 0.50098 0.05944 0.44679 0.0
H619 H 0.57957 0.06494 0.43767 0.0
H620 H 0.57893 0.11349 0.56524 0.0
H621 H 0.60113 0.17115 0.57941 0.0
O622 O 0.61172 0.16912 0.44397 0.0
C623 C 0.67122 0.17348 0.44542 0.0
C624 C 0.6193 0.18597 0.53628 0.0
C625 C 0.59125 0.13115 0.54926 0.0
N626 N 0.61017 0.14389 0.50007 0.0
C627 C 0.62233 0.17565 0.50769 0.0
C628 C 0.59472 0.12172 0.52046 0.0
C629 C 0.60367 0.1635 0.55718 0.0
C630 C 0.64753 0.08891 0.3784 0.0
N631 N 0.65992 0.12165 0.38038 0.0
C632 C 0.66203 0.07059 0.37323 0.0
C633 C 0.68947 0.08598 0.37009 0.0
C634 C 0.70203 0.11935 0.37217 0.0
C635 C 0.68687 0.13685 0.37736 0.0
C636 C 0.67629 0.1891 0.30685 0.0
C637 C 0.66986 0.20979 0.36325 0.0
C638 C 0.66239 0.16717 0.32913 0.0
N639 N 0.65943 0.17763 0.35698 0.0
C640 C 0.6839 0.2324 0.34153 0.0
C641 C 0.68712 0.22191 0.31316 0.0
C642 C 0.61177 0.18214 0.41888 0.0
C643 C 0.53926 0.05854 0.44119 0.0
C644 C 0.56008 0.12066 0.46332 0.0
C645 C 0.53264 0.10396 0.46033 0.0
C646 C 0.52221 0.07266 0.44924 0.0
N647 N 0.57673 0.10656 0.45567 0.0
C648 C 0.5666 0.07598 0.44448 0.0
Co649 Co 0.4155 0.55536 0.95583 0.0
Co650 Co 0.39108 0.56122 0.88703 0.0
O651 O 0.41572 0.55136 0.91215 0.0
C652 C 0.47282 0.59155 0.96837 0.0
O653 O 0.46658 0.61325 0.98145 0.0
C654 C 0.40012 0.50832 0.85397 0.0
O655 O 0.41708 0.50702 0.87383 0.0
O656 O 0.36081 0.53005 0.9103 0.0
O657 O 0.37622 0.5435 0.95679 0.0
H658 H 0.31198 0.58658 0.87023 0.0
H659 H 0.43963 0.51409 0.92957 0.0
O660 O 0.45479 0.5672 0.9558 0.0
H661 H 0.36736 0.44214 0.99426 0.0
H662 H 0.4416 0.54085 0.06089 0.0
H663 H 0.39157 0.58551 0.99842 0.0
H664 H 0.37656 0.49961 0.99007 0.0
H665 H 0.44079 0.53506 0.00604 0.0
O666 O 0.38787 0.52631 0.85794 0.0
H667 H 0.34514 0.57667 0.90028 0.0
H668 H 0.38233 0.56413 0.82119 0.0
H669 H 0.39177 0.59178 0.05318 0.0
H670 H 0.43128 0.45682 0.93335 0.0
H671 H 0.41692 0.56935 0.08481 0.0
H672 H 0.39488 0.4204 0.96585 0.0
O673 O 0.42209 0.60136 0.95134 0.0
H674 H 0.48049 0.60342 0.83595 0.0
H675 H 0.40391 0.6267 0.86284 0.0
H676 H 0.44083 0.66668 0.83439 0.0
H677 H 0.47946 0.65513 0.82052 0.0
H678 H 0.44341 0.56436 0.86457 0.0
H679 H 0.34941 0.57365 0.79032 0.0
H680 H 0.31396 0.58509 0.81483 0.0
O681 O 0.39351 0.59708 0.91423 0.0
C682 C 0.3571 0.53075 0.93836 0.0
C683 C 0.32738 0.58173 0.85929 0.0
C684 C 0.34835 0.5744 0.81445 0.0
N685 N 0.36578 0.56998 0.86257 0.0
C686 C 0.34628 0.57617 0.87619 0.0
C687 C 0.36689 0.56891 0.83207 0.0
C688 C 0.32848 0.58084 0.82821 0.0
C689 C 0.42383 0.49844 0.94385 0.0
N690 N 0.40861 0.51022 0.95953 0.0
C691 C 0.41916 0.46601 0.94586 0.0
C692 C 0.39872 0.44558 0.96407 0.0
C693 C 0.38326 0.45775 0.98 0.0
C694 C 0.38849 0.49031 0.97742 0.0
C695 C 0.43054 0.5507 0.04735 0.0
C696 C 0.40251 0.57564 0.01203 0.0
C697 C 0.43001 0.54749 0.01629 0.0
N698 N 0.41606 0.55984 0.99905 0.0
C699 C 0.40258 0.57928 0.04303 0.0
C700 C 0.41669 0.56669 0.06076 0.0
C701 C 0.40914 0.61275 0.93511 0.0
C702 C 0.46359 0.60855 0.84145 0.0
C703 C 0.42041 0.62114 0.8566 0.0
C704 C 0.44137 0.64404 0.84058 0.0
C705 C 0.46304 0.63758 0.83287 0.0
N706 N 0.42075 0.59234 0.86445 0.0
C707 C 0.44226 0.58622 0.85747 0.0
H708 H 0.59372 0.13491 0.30666 0.0
H709 H 0.57394 0.0358 0.32979 0.0
H710 H 0.59165 0.12139 0.25379 0.0
H711 H 0.57186 0.02227 0.27618 0.0
H712 H 0.55242 0.04816 0.1637 0.0
H713 H 0.54471 0.04154 0.21785 0.0
H714 H 0.62888 0.09025 0.23326 0.0
H715 H 0.63666 0.09706 0.17953 0.0
C716 C 0.58808 0.11001 0.3004 0.0
C717 C 0.58403 0.08642 0.32232 0.0
C718 C 0.587 0.10234 0.27018 0.0
C719 C 0.58183 0.07093 0.26116 0.0
C720 C 0.57578 0.04664 0.2828 0.0
C721 C 0.57679 0.05435 0.31334 0.0
C722 C 0.56935 0.05589 0.17859 0.0
C723 C 0.59517 0.07316 0.16745 0.0
C724 C 0.56488 0.05224 0.20953 0.0
C725 C 0.58622 0.06549 0.22947 0.0
C726 C 0.61216 0.0797 0.2182 0.0
C727 C 0.61661 0.08349 0.18748 0.0
H728 H 0.38927 0.54395 0.67678 0.0
H729 H 0.42455 0.47653 0.66271 0.0
H730 H 0.39033 0.53681 0.73039 0.0
H731 H 0.42563 0.46933 0.71729 0.0
H732 H 0.44157 0.50455 0.82314 0.0
H733 H 0.44499 0.50278 0.76849 0.0
H734 H 0.36263 0.48608 0.76069 0.0
H735 H 0.3593 0.48821 0.81481 0.0
C736 C 0.39771 0.52798 0.68522 0.0
C737 C 0.40659 0.51056 0.66555 0.0
C738 C 0.3981 0.52369 0.71594 0.0
C739 C 0.40735 0.50182 0.7279 0.0
C740 C 0.41817 0.4861 0.70852 0.0
C741 C 0.41774 0.4904 0.67741 0.0
C742 C 0.42396 0.49917 0.80975 0.0
C743 C 0.4002 0.49676 0.82315 0.0
C744 C 0.42598 0.49835 0.7785 0.0
C745 C 0.40425 0.49507 0.76044 0.0
C746 C 0.37984 0.4893 0.7741 0.0
C747 C 0.37786 0.49024 0.80509 0.0
H748 H 0.83762 0.43509 0.17804 0.0
H749 H 0.91205 0.42579 0.1763 0.0
H750 H 0.8406 0.44075 0.23237 0.0
H751 H 0.91464 0.43047 0.23118 0.0
H752 H 0.8723 0.38743 0.32856 0.0
H753 H 0.88023 0.39062 0.27439 0.0
H754 H 0.87459 0.48199 0.27184 0.0
H755 H 0.86742 0.47951 0.32553 0.0
C756 C 0.85489 0.43493 0.1893 0.0
C757 C 0.87479 0.4305 0.17302 0.0
C758 C 0.85655 0.43805 0.22035 0.0
C759 C 0.87782 0.43596 0.23589 0.0
C760 C 0.89806 0.43213 0.21964 0.0
C761 C 0.89673 0.42984 0.18834 0.0
C762 C 0.87335 0.40851 0.31656 0.0
C763 C 0.8688 0.43293 0.33143 0.0
C764 C 0.87796 0.41037 0.2856 0.0
C765 C 0.8778 0.43646 0.26902 0.0
C766 C 0.87464 0.46155 0.2841 0.0
C767 C 0.87046 0.45998 0.31492 0.0
H768 H 0.42586 0.95749 0.83473 0.0
H769 H 0.39175 0.85591 0.8143 0.0
H770 H 0.42846 0.96966 0.78077 0.0
H771 H 0.39407 0.86806 0.76129 0.0
H772 H 0.36123 0.89412 0.68115 0.0
H773 H 0.36555 0.89878 0.73532 0.0
H774 H 0.45011 0.9525 0.72658 0.0
H775 H 0.44582 0.94792 0.67189 0.0
C776 C 0.41961 0.93788 0.81881 0.0
C777 C 0.40834 0.90574 0.82875 0.0
C778 C 0.42095 0.94485 0.78805 0.0
C779 C 0.41091 0.91973 0.7671 0.0
C780 C 0.40147 0.88782 0.77707 0.0
C781 C 0.40027 0.88091 0.80744 0.0
C782 C 0.3806 0.90817 0.69068 0.0
C783 C 0.40318 0.92056 0.67235 0.0
C784 C 0.38309 0.91066 0.72166 0.0
C785 C 0.4082 0.92557 0.73499 0.0
C786 C 0.43054 0.941 0.71674 0.0
C787 C 0.42804 0.93854 0.68549 0.0
H788 H 0.64445 0.54272 0.33586 0.0
H789 H 0.55901 0.49969 0.34145 0.0
H790 H 0.6417 0.5428 0.28151 0.0
H791 H 0.55627 0.49947 0.28673 0.0
H792 H 0.57475 0.52049 0.17975 0.0
H793 H 0.57228 0.53341 0.2329 0.0
H794 H 0.6224 0.4853 0.2558 0.0
H795 H 0.62454 0.47202 0.20378 0.0
C796 C 0.62509 0.53479 0.32548 0.0
C797 C 0.60198 0.52115 0.34282 0.0
C798 C 0.6235 0.53455 0.29439 0.0
C799 C 0.59877 0.52053 0.28003 0.0
C800 C 0.57555 0.51045 0.29731 0.0
C801 C 0.57715 0.51082 0.32863 0.0
C802 C 0.58481 0.51223 0.19627 0.0
C803 C 0.60015 0.49562 0.18746 0.0
C804 C 0.58352 0.5198 0.22656 0.0
C805 C 0.59779 0.51112 0.2482 0.0
C806 C 0.61184 0.49308 0.23946 0.0
C807 C 0.61292 0.48533 0.20959 0.0
H808 H 0.08786 0.5529 0.671 0.0
H809 H 0.16819 0.56105 0.67727 0.0
H810 H 0.08458 0.55126 0.72576 0.0
H811 H 0.16476 0.55851 0.7314 0.0
H812 H 0.16742 0.59878 0.82193 0.0
H813 H 0.16443 0.59699 0.76781 0.0
H814 H 0.08465 0.52293 0.77335 0.0
H815 H 0.08748 0.52541 0.82817 0.0
C816 C 0.10449 0.55334 0.68402 0.0
C817 C 0.12835 0.55733 0.66989 0.0
C818 C 0.10267 0.55256 0.71538 0.0
C819 C 0.12466 0.55564 0.73301 0.0
C820 C 0.14773 0.55715 0.71859 0.0
C821 C 0.14961 0.55821 0.68751 0.0
C822 C 0.14904 0.58249 0.81167 0.0
C823 C 0.12775 0.56212 0.82932 0.0
C824 C 0.14742 0.58117 0.78059 0.0
C825 C 0.12458 0.55913 0.76616 0.0
C826 C 0.10257 0.54006 0.78376 0.0
C827 C 0.10414 0.54158 0.81513 0.0
H828 H 0.5191 0.09095 0.99449 0.0
H829 H 0.48869 0.09219 0.08318 0.0
H830 H 0.47552 0.05354 0.97824 0.0
H831 H 0.44444 0.05449 0.06665 0.0
H832 H 0.39177 0.94784 0.03291 0.0
H833 H 0.42606 0.9971 0.05263 0.0
H834 H 0.42958 0.04421 0.96802 0.0
H835 H 0.39556 0.99454 0.94801 0.0
C836 C 0.50297 0.08354 0.01048 0.0
C837 C 0.50746 0.09425 0.04026 0.0
C838 C 0.47782 0.06233 1.00101 0.0
C839 C 0.45639 0.05103 0.02108 0.0
C840 C 0.46057 0.06267 0.05066 0.0
C841 C 0.48586 0.08429 0.06011 0.0
C842 C 0.39925 0.969 0.01878 0.0
C843 C 0.39129 0.96708 0.98871 0.0
C844 C 0.41887 0.99735 0.03016 0.0
C845 C 0.43098 0.02442 0.01171 0.0
C846 C 0.42098 0.02354 0.98262 0.0
C847 C 0.40127 0.99515 0.97123 0.0
H848 H 0.40061 0.45999 0.45796 0.0
H849 H 0.38993 0.40573 0.53967 0.0
H850 H 0.43323 0.4408 0.44099 0.0
H851 H 0.42247 0.38606 0.52245 0.0
H852 H 0.51378 0.41913 0.50663 0.0
H853 H 0.47063 0.4178 0.51873 0.0
H854 H 0.44686 0.3976 0.42637 0.0
H855 H 0.49058 0.39917 0.4141 0.0
C856 C 0.40457 0.44305 0.47186 0.0
C857 C 0.39297 0.43474 0.50034 0.0
C858 C 0.42323 0.43191 0.46205 0.0
C859 C 0.4308 0.41231 0.48057 0.0
C860 C 0.41733 0.40154 0.50786 0.0
C861 C 0.39849 0.41255 0.51761 0.0
C862 C 0.49927 0.41394 0.4889 0.0
C863 C 0.50573 0.40966 0.45931 0.0
C864 C 0.47435 0.4128 0.49594 0.0
C865 C 0.45523 0.40757 0.47354 0.0
C866 C 0.46122 0.40182 0.44411 0.0
C867 C 0.4862 0.40263 0.43709 0.0
H868 H 0.05616 0.43919 0.93485 0.0
H869 H 0.07569 0.4816 0.02273 0.0
H870 H 0.01021 0.40865 0.95095 0.0
H871 H 0.03 0.45124 0.03869 0.0
H872 H 0.94779 0.37847 0.06464 0.0
H873 H 0.99403 0.39642 0.0484 0.0
H874 H 0.97427 0.42629 0.96375 0.0
H875 H 0.9284 0.40853 0.97984 0.0
C876 C 0.05081 0.44153 0.95773 0.0
C877 C 0.06956 0.46302 0.97742 0.0
C878 C 0.02445 0.42418 0.9669 0.0
C879 C 0.0164 0.42762 0.99608 0.0
C880 C 0.03554 0.44778 0.01618 0.0
C881 C 0.06172 0.46538 0.00693 0.0
C882 C 0.95326 0.38835 0.04239 0.0
C883 C 0.93445 0.39228 0.02363 0.0
C884 C 0.97975 0.39878 0.03314 0.0
C885 C 0.98785 0.41285 0.00479 0.0
C886 C 0.9687 0.41528 0.98558 0.0
C887 C 0.94241 0.4053 0.99493 0.0
H888 H 0.60781 0.05794 0.52748 0.0
H889 H 0.60422 0.00799 0.44449 0.0
H890 H 0.57403 0.00911 0.54874 0.0
H891 H 0.57066 0.9589 0.466 0.0
H892 H 0.48132 0.91147 0.4938 0.0
H893 H 0.52434 0.94962 0.47649 0.0
H894 H 0.55701 0.95158 0.56449 0.0
H895 H 0.51338 0.91299 0.58205 0.0
C896 C 0.60049 0.03621 0.51411 0.0
C897 C 0.60839 0.03702 0.48411 0.0
C898 C 0.58116 0.00814 0.52638 0.0
C899 C 0.56926 0.98027 0.50888 0.0
C900 C 0.57913 0.98018 0.47988 0.0
C901 C 0.59859 0.00825 0.46764 0.0
C902 C 0.49769 0.91969 0.50947 0.0
C903 C 0.49385 0.90945 0.53941 0.0
C904 C 0.5225 0.94133 0.49941 0.0
C905 C 0.5442 0.95359 0.51905 0.0
C906 C 0.54065 0.94259 0.54883 0.0
C907 C 0.51573 0.92047 0.55887 0.0
H908 H 0.49064 0.54671 0.95056 0.0
H909 H 0.51569 0.63789 0.9963 0.0
H910 H 0.5321 0.5439 0.96378 0.0
H911 H 0.55774 0.63552 0.0089 0.0
H912 H 0.60434 0.58795 0.06428 0.0
H913 H 0.57176 0.60494 0.04285 0.0
H914 H 0.57884 0.56431 0.95778 0.0
H915 H 0.61073 0.54638 0.9796 0.0
C916 C 0.50524 0.56655 0.96288 0.0
C917 C 0.49968 0.59238 0.97257 0.0
C918 C 0.52921 0.56507 0.97033 0.0
C919 C 0.54837 0.58947 0.98753 0.0
C920 C 0.54333 0.61609 0.99599 0.0
C921 C 0.51925 0.61753 0.98861 0.0
C922 C 0.59962 0.58362 0.04075 0.0
C923 C 0.60988 0.56553 0.02372 0.0
C924 C 0.58085 0.59332 0.02841 0.0
C925 C 0.57218 0.58538 0.9987 0.0
C926 C 0.58449 0.57006 0.98094 0.0
C927 C 0.603 0.56009 0.99335 0.0
H928 H 0.92854 0.50871 0.53077 0.0
H929 H 0.94232 0.56575 0.45041 0.0
H930 H 0.97465 0.5388 0.54549 0.0
H931 H 0.98881 0.59576 0.46511 0.0
H932 H 0.0731 0.59429 0.48241 0.0
H933 H 0.02652 0.57731 0.46932 0.0
H934 H 0.00923 0.59461 0.56003 0.0
H935 H 0.05614 0.61203 0.57316 0.0
C936 C 0.94135 0.52801 0.51644 0.0
C937 C 0.93182 0.53474 0.48933 0.0
C938 C 0.96774 0.5454 0.525 0.0
C939 C 0.98538 0.56961 0.50645 0.0
C940 C 0.97566 0.57714 0.4798 0.0
C941 C 0.94905 0.56008 0.47146 0.0
C942 C 0.05947 0.59505 0.49947 0.0
C943 C 0.06828 0.60435 0.52888 0.0
C944 C 0.0328 0.58551 0.4919 0.0
C945 C 0.01419 0.58453 0.51365 0.0
C946 C 0.02313 0.595 0.54283 0.0
C947 C 0.04998 0.60512 0.5503 0.0
H948 H 0.6425 0.25286 0.09155 0.0
H949 H 0.56601 0.21785 0.04808 0.0
H950 H 0.64187 0.30518 0.09779 0.0
H951 H 0.56516 0.27069 0.05491 0.0
H952 H 0.59239 0.38086 0.04171 0.0
H953 H 0.58724 0.32571 0.03767 0.0
H954 H 0.61966 0.33149 0.12641 0.0
H955 H 0.62565 0.3874 0.13023 0.0
C956 C 0.62547 0.25633 0.0833 0.0
C957 C 0.60425 0.23114 0.06932 0.0
C958 C 0.62501 0.28632 0.08722 0.0
C959 C 0.60326 0.29198 0.07739 0.0
C960 C 0.58224 0.26707 0.06272 0.0
C961 C 0.58275 0.23689 0.05867 0.0
C962 C 0.59816 0.3704 0.06062 0.0
C963 C 0.60978 0.38882 0.08621 0.0
C964 C 0.59501 0.33857 0.0583 0.0
C965 C 0.60333 0.32429 0.08153 0.0
C966 C 0.61354 0.34205 0.10785 0.0
C967 C 0.61677 0.37401 0.11016 0.0
H968 H 0.27906 0.46307 0.54427 0.0
H969 H 0.32363 0.54839 0.49303 0.0
H970 H 0.24115 0.47726 0.5451 0.0
H971 H 0.28567 0.56258 0.49359 0.0
H972 H 0.20947 0.54738 0.58859 0.0
H973 H 0.24007 0.52361 0.57497 0.0
H974 H 0.23704 0.54949 0.4827 0.0
H975 H 0.20625 0.57326 0.49621 0.0
C976 C 0.28032 0.48408 0.53197 0.0
C977 C 0.30439 0.50474 0.51879 0.0
C978 C 0.25874 0.49243 0.53279 0.0
C979 C 0.26072 0.5215 0.52017 0.0
C980 C 0.28358 0.54007 0.50363 0.0
C981 C 0.30529 0.53174 0.50297 0.0
C982 C 0.21515 0.54788 0.56537 0.0
C983 C 0.20538 0.56231 0.54357 0.0
C984 C 0.23252 0.53397 0.55749 0.0
C985 C 0.24075 0.53437 0.52767 0.0
C986 C 0.23101 0.54876 0.50582 0.0
C987 C 0.21336 0.56235 0.51364 0.0
H988 H 0.82081 0.27883 0.05034 0.0
H989 H 0.7776 0.32491 0.00433 0.0
H990 H 0.78138 0.22779 0.04967 0.0
H991 H 0.73831 0.27426 0.00334 0.0
H992 H 0.69609 0.17746 0.09385 0.0
H993 H 0.74083 0.21433 0.07961 0.0
H994 H 0.71407 0.21769 0.98955 0.0
H995 H 0.66925 0.1813 0.0038 0.0
C996 C 0.80325 0.27756 0.03871 0.0
C997 C 0.80222 0.30554 0.02703 0.0
C998 C 0.78058 0.2485 0.03868 0.0
C999 C 0.75657 0.24702 0.02684 0.0
C1000 C 0.75648 0.27438 0.01239 0.0
C1001 C 0.77907 0.30342 0.01268 0.0
C1002 C 0.69982 0.18539 0.07083 0.0
C1003 C 0.67888 0.17692 0.0502 0.0
C1004 C 0.72557 0.20643 0.06258 0.0
C1005 C 0.73097 0.2193 0.03348 0.0
C1006 C 0.71049 0.20864 0.01224 0.0
C1007 C 0.68477 0.18768 0.02047 0.0
H1008 H 0.43545 0.78271 0.54034 0.0
H1009 H 0.35954 0.74592 0.58526 0.0
H1010 H 0.43494 0.72871 0.54158 0.0
H1011 H 0.35885 0.69264 0.58604 0.0
H1012 H 0.37492 0.60799 0.61147 0.0
H1013 H 0.38111 0.66405 0.61123 0.0
H1014 H 0.41133 0.67473 0.52098 0.0
H1015 H 0.40592 0.61923 0.52139 0.0
C1016 C 0.41857 0.7631 0.55007 0.0
C1017 C 0.39768 0.76864 0.56289 0.0
C1018 C 0.41829 0.73225 0.5509 0.0
C1019 C 0.39707 0.70653 0.56446 0.0
C1020 C 0.37586 0.71205 0.57626 0.0
C1021 C 0.37618 0.74264 0.57554 0.0
C1022 C 0.38323 0.62239 0.59174 0.0
C1023 C 0.38967 0.60892 0.5664 0.0
C1024 C 0.38662 0.65447 0.5915 0.0
C1025 C 0.39641 0.67372 0.56591 0.0
C1026 C 0.40392 0.66066 0.54109 0.0
C1027 C 0.40061 0.62867 0.54133 0.0
H1028 H 0.67626 0.44648 0.01277 0.0
H1029 H 0.7242 0.52923 0.06535 0.0
H1030 H 0.71322 0.43051 0.01001 0.0
H1031 H 0.76105 0.51315 0.06304 0.0
H1032 H 0.79264 0.43985 0.09925 0.0
H1033 H 0.76182 0.46452 0.08988 0.0
H1034 H 0.76159 0.44356 0.99579 0.0
H1035 H 0.79264 0.41897 0.00502 0.0
C1036 C 0.69506 0.46216 0.02243 0.0
C1037 C 0.69727 0.489 0.03945 0.0
C1038 C 0.7162 0.4528 0.02117 0.0
C1039 C 0.73977 0.47011 0.03703 0.0
C1040 C 0.74291 0.49893 0.05118 0.0
C1041 C 0.72191 0.50832 0.05224 0.0
C1042 C 0.78614 0.44056 0.07654 0.0
C1043 C 0.79514 0.42737 0.05294 0.0
C1044 C 0.76866 0.45498 0.07112 0.0
C1045 C 0.75951 0.45629 0.04202 0.0
C1046 C 0.76835 0.44296 0.01841 0.0
C1047 C 0.78614 0.42891 0.02376 0.0
H1048 H 0.22692 0.6705 0.50581 0.0
H1049 H 0.18136 0.71252 0.5533 0.0
H1050 H 0.26532 0.72216 0.50607 0.0
H1051 H 0.21994 0.76451 0.55406 0.0
H1052 H 0.30577 0.81717 0.59764 0.0
H1053 H 0.26137 0.77877 0.58378 0.0
H1054 H 0.28716 0.77975 0.49256 0.0
H1055 H 0.33159 0.81783 0.50632 0.0
C1056 C 0.2248 0.69132 0.5149 0.0
C1057 C 0.20121 0.68782 0.52911 0.0
C1058 C 0.24682 0.72091 0.51529 0.0
C1059 C 0.24578 0.74741 0.53039 0.0
C1060 C 0.22142 0.74448 0.54247 0.0
C1061 C 0.19926 0.7149 0.54171 0.0
C1062 C 0.30186 0.80988 0.57447 0.0
C1063 C 0.32248 0.8201 0.55329 0.0
C1064 C 0.27631 0.78795 0.56646 0.0
C1065 C 0.27083 0.77589 0.53711 0.0
C1066 C 0.29087 0.78821 0.51544 0.0
C1067 C 0.31635 0.81012 0.5234 0.0
H1068 H 0.77456 0.43355 0.50077 0.0
H1069 H 0.81925 0.53 0.46885 0.0
H1070 H 0.73468 0.44362 0.50308 0.0
H1071 H 0.77922 0.5403 0.47073 0.0
H1072 H 0.69655 0.5107 0.42104 0.0
H1073 H 0.74055 0.5167 0.43637 0.0
H1074 H 0.70914 0.47343 0.52165 0.0
H1075 H 0.66506 0.46714 0.50636 0.0
C1076 C 0.7761 0.45751 0.49588 0.0
C1077 C 0.79992 0.48115 0.48503 0.0
C1078 C 0.75321 0.46327 0.49693 0.0
C1079 C 0.75369 0.49265 0.48667 0.0
C1080 C 0.77817 0.51733 0.47848 0.0
C1081 C 0.80115 0.51162 0.47778 0.0
C1082 C 0.69908 0.50316 0.44334 0.0
C1083 C 0.6771 0.48787 0.46219 0.0
C1084 C 0.72439 0.5068 0.45223 0.0
C1085 C 0.7283 0.49526 0.48017 0.0
C1086 C 0.70671 0.48219 0.49986 0.0
C1087 C 0.68143 0.47863 0.49103 0.0
H1088 H 0.27651 0.81827 0.93973 0.0
H1089 H 0.31812 0.78173 1.00008 0.0
H1090 H 0.23844 0.76622 0.94028 0.0
H1091 H 0.28006 0.72976 1.00097 0.0
H1092 H 0.20719 0.66043 0.90581 0.0
H1093 H 0.23708 0.71608 0.91618 0.0
H1094 H 0.23168 0.69552 0.01074 0.0
H1095 H 0.2017 0.63972 1.00049 0.0
C1096 C 0.27712 0.79949 0.95404 0.0
C1097 C 0.30042 0.804 0.9696 0.0
C1098 C 0.25542 0.76959 0.95414 0.0
C1099 C 0.25654 0.74364 0.97001 0.0
C1100 C 0.2786 0.74926 0.98844 0.0
C1101 C 0.3004 0.77923 0.98819 0.0
C1102 C 0.21216 0.66775 0.92884 0.0
C1103 C 0.20206 0.64547 0.95225 0.0
C1104 C 0.22912 0.69976 0.93482 0.0
C1105 C 0.23659 0.71028 0.96434 0.0
C1106 C 0.22631 0.68814 0.98779 0.0
C1107 C 0.20911 0.65616 0.98185 0.0
H1108 H 0.61595 0.22394 0.37291 0.0
H1109 H 0.59174 0.20396 0.46533 0.0
H1110 H 0.60957 0.27369 0.37585 0.0
H1111 H 0.58608 0.25368 0.46834 0.0
H1112 H 0.56358 0.33888 0.45907 0.0
H1113 H 0.56171 0.28472 0.45231 0.0
H1114 H 0.63427 0.32431 0.401 0.0
H1115 H 0.63598 0.37769 0.40725 0.0
C1116 C 0.60894 0.22985 0.39368 0.0
C1117 C 0.60464 0.21004 0.41891 0.0
C1118 C 0.60546 0.25846 0.39544 0.0
C1119 C 0.59761 0.2678 0.42246 0.0
C1120 C 0.59193 0.24712 0.44715 0.0
C1121 C 0.59539 0.21862 0.44541 0.0
C1122 C 0.57913 0.33593 0.44646 0.0
C1123 C 0.59987 0.36263 0.43371 0.0
C1124 C 0.57804 0.30495 0.4425 0.0
C1125 C 0.59766 0.30018 0.42574 0.0
C1126 C 0.61846 0.32698 0.41334 0.0
C1127 C 0.61955 0.35772 0.41725 0.0
H1128 H 0.22961 0.56828 0.99633 0.0
H1129 H 0.18689 0.47471 0.9573 0.0
H1130 H 0.27021 0.55958 0.99628 0.0
H1131 H 0.22762 0.46587 0.95678 0.0
H1132 H 0.31063 0.50217 0.90694 0.0
H1133 H 0.2664 0.49436 0.92311 0.0
H1134 H 0.29658 0.52881 0.01121 0.0
H1135 H 0.34096 0.53673 0.99514 0.0
C1136 C 0.22866 0.5451 0.98933 0.0
C1137 C 0.20515 0.52195 0.97727 0.0
C1138 C 0.25195 0.54016 0.98903 0.0
C1139 C 0.25222 0.51218 0.97614 0.0
C1140 C 0.22807 0.48777 0.96661 0.0
C1141 C 0.20469 0.49259 0.9673 0.0
C1142 C 0.30781 0.50741 0.92997 0.0
C1143 C 0.32951 0.52048 0.94958 0.0
C1144 C 0.28235 0.5027 0.93931 0.0
C1145 C 0.27798 0.51109 0.96844 0.0
C1146 C 0.29935 0.52235 0.98857 0.0
C1147 C 0.32479 0.52682 0.97932 0.0
H1148 H 0.71961 0.18888 0.42058 0.0
H1149 H 0.68032 0.21767 0.49043 0.0
H1150 H 0.75689 0.24135 0.42245 0.0
H1151 H 0.71773 0.27042 0.49243 0.0
H1152 H 0.79094 0.34981 0.39958 0.0
H1153 H 0.75903 0.29403 0.40526 0.0
H1154 H 0.76599 0.30337 0.50124 0.0
H1155 H 0.79779 0.35913 0.49572 0.0
C1156 C 0.71923 0.20615 0.43689 0.0
C1157 C 0.69674 0.19929 0.45493 0.0
C1158 C 0.74051 0.23635 0.43778 0.0
C1159 C 0.73992 0.26041 0.45692 0.0
C1160 C 0.71872 0.25246 0.47727 0.0
C1161 C 0.69731 0.2221 0.4763 0.0
C1162 C 0.78578 0.33999 0.4219 0.0
C1163 C 0.797 0.3591 0.44712 0.0
C1164 C 0.76762 0.30791 0.42517 0.0
C1165 C 0.7601 0.29416 0.45375 0.0
C1166 C 0.77128 0.31324 0.47896 0.0
C1167 C 0.7896 0.34522 0.4757 0.0
H1168 H 0.44051 0.6659 0.90483 0.0
H1169 H 0.38209 0.63224 0.97504 0.0
H1170 H 0.43695 0.71762 0.90427 0.0
H1171 H 0.37879 0.68416 0.97507 0.0
H1172 H 0.39587 0.79062 0.98132 0.0
H1173 H 0.4058 0.74369 0.98462 0.0
H1174 H 0.39891 0.73255 0.88878 0.0
H1175 H 0.3887 0.77971 0.88522 0.0
C1176 C 0.42739 0.67 0.9206 0.0
C1177 C 0.41171 0.64552 0.94013 0.0
C1178 C 0.42521 0.69938 0.92015 0.0
C1179 C 0.40744 0.70473 0.93944 0.0
C1180 C 0.39279 0.68072 0.96012 0.0
C1181 C 0.39477 0.65118 0.96029 0.0
C1182 C 0.39655 0.77839 0.96081 0.0
C1183 C 0.39132 0.78894 0.93294 0.0
C1184 C 0.4022 0.75142 0.96282 0.0
C1185 C 0.40308 0.73451 0.93701 0.0
C1186 C 0.39858 0.7454 0.90903 0.0
C1187 C 0.39263 0.77229 0.90701 0.0
loop_
_geom_bond_atom_site_label_1
_geom_bond_atom_site_label_2
_geom_bond_distance
_geom_bond_site_symmetry_2
_ccdc_geom_bond_type
Co0 O2 2.143 . S
Co0 O8 2.074 . S
Co0 O11 2.093 . S
Co0 O24 2.097 . S
Co0 N41 2.151 . S
Co0 N49 2.214 . S
Co1 O2 2.160 . S
Co1 O7 2.058 . S
Co1 O17 2.057 . S
Co1 O32 2.037 . S
Co1 N36 2.145 1_554 S
Co1 N57 2.257 . S
O2 Co0 2.143 . S
O2 Co1 2.160 . S
C3 O4 1.278 . S
C3 O11 1.224 . S
O4 C3 1.278 . S
C5 O6 1.245 . S
C5 O17 1.232 . S
O6 C5 1.245 . S
O7 Co1 2.058 . S
O7 C33 1.269 . S
O8 Co0 2.074 . S
O8 C33 1.257 . S
H9 C34 0.930 . S
H10 C40 0.930 . S
O11 Co0 2.093 . S
O11 C3 1.224 . S
H12 C44 0.929 . S
H13 C46 0.930 . S
H14 C47 0.930 . S
H15 C45 0.929 . S
H16 C48 0.928 . S
O17 Co1 2.057 . S
O17 C5 1.232 . S
H18 C37 0.929 . S
H19 C38 0.929 . S
H20 C50 0.931 . S
H21 C42 0.929 . S
H22 C51 0.930 . S
H23 C43 0.931 . S
O24 Co0 2.097 . S
O24 C52 1.214 . S
H25 C53 0.929 . S
H26 C54 0.929 . S
H27 C55 0.930 . S
H28 C56 0.929 . S
H29 C58 0.930 . S
H30 C35 0.930 . S
H31 C39 0.930 . S
O32 Co1 2.037 . S
O32 C52 1.234 . S
C33 O7 1.269 . S
C33 O8 1.257 . S
C34 H9 0.930 . S
C34 C37 1.388 . S
C34 C39 1.418 . S
C35 H30 0.930 . S
C35 C38 1.404 . S
C35 C39 1.353 . S
N36 Co1 2.145 1_556 S
N36 C37 1.397 . S
N36 C38 1.334 . S
C37 H18 0.929 . S
C37 C34 1.388 . S
C37 N36 1.397 . S
C38 H19 0.929 . S
C38 C35 1.404 . S
C38 N36 1.334 . S
C39 H31 0.930 . S
C39 C34 1.418 . S
C39 C35 1.353 . S
C40 H10 0.930 . S
C40 N41 1.330 . S
C40 C42 1.446 . S
N41 Co0 2.151 . S
N41 C40 1.330 . S
N41 C45 1.418 . S
C42 H21 0.929 . S
C42 C40 1.446 . S
C42 C43 1.332 . S
C43 H23 0.931 . S
C43 C42 1.332 . S
C43 C44 1.267 . S
C44 H12 0.929 . S
C44 C43 1.267 . S
C44 C45 1.251 . S
C45 H15 0.929 . S
C45 N41 1.418 . S
C45 C44 1.251 . S
C46 H13 0.930 . S
C46 C48 1.406 . S
C46 C51 1.261 . S
C47 H14 0.930 . S
C47 N49 1.325 . S
C47 C50 1.357 . S
C48 H16 0.928 . S
C48 C46 1.406 . S
C48 N49 1.261 . S
N49 Co0 2.214 . S
N49 C47 1.325 . S
N49 C48 1.261 . S
C50 H20 0.931 . S
C50 C47 1.357 . S
C50 C51 1.312 . S
C51 H22 0.930 . S
C51 C46 1.261 . S
C51 C50 1.312 . S
C52 O24 1.214 . S
C52 O32 1.234 . S
C53 H25 0.929 . S
C53 C56 1.391 . S
C53 C58 1.391 . S
C54 H26 0.929 . S
C54 C55 1.390 . S
C54 N57 1.391 . S
C55 H27 0.930 . S
C55 C54 1.390 . S
C55 C56 1.392 . S
C56 H28 0.929 . S
C56 C53 1.391 . S
C56 C55 1.392 . S
N57 Co1 2.257 . S
N57 C54 1.391 . S
N57 C58 1.388 . S
C58 H29 0.930 . S
C58 C53 1.391 . S
C58 N57 1.388 . S
Co59 O61 2.143 . S
Co59 O67 2.074 . S
Co59 O70 2.093 . S
Co59 O83 2.097 . S
Co59 N100 2.151 . S
Co59 N108 2.214 . S
Co60 O61 2.160 . S
Co60 O66 2.058 . S
Co60 O76 2.057 . S
Co60 O91 2.037 . S
Co60 N95 2.145 . S
Co60 N116 2.257 . S
O61 Co59 2.143 . S
O61 Co60 2.160 . S
C62 O63 1.278 . S
C62 O70 1.224 . S
O63 C62 1.278 . S
C64 O65 1.245 . S
C64 O76 1.232 . S
O65 C64 1.245 . S
O66 Co60 2.058 . S
O66 C92 1.269 . S
O67 Co59 2.074 . S
O67 C92 1.257 . S
H68 C93 0.930 . S
H69 C99 0.930 . S
O70 Co59 2.093 . S
O70 C62 1.224 . S
H71 C103 0.929 . S
H72 C105 0.930 . S
H73 C106 0.930 . S
H74 C104 0.929 . S
H75 C107 0.928 . S
O76 Co60 2.057 . S
O76 C64 1.232 . S
H77 C96 0.929 . S
H78 C97 0.929 . S
H79 C109 0.931 . S
H80 C101 0.929 . S
H81 C110 0.930 . S
H82 C102 0.931 . S
O83 Co59 2.097 . S
O83 C111 1.214 . S
H84 C112 0.929 . S
H85 C113 0.929 . S
H86 C114 0.930 . S
H87 C115 0.929 . S
H88 C117 0.930 . S
H89 C94 0.930 . S
H90 C98 0.930 . S
O91 Co60 2.037 . S
O91 C111 1.234 . S
C92 O66 1.269 . S
C92 O67 1.257 . S
C93 H68 0.930 . S
C93 C96 1.388 . S
C93 C98 1.418 . S
C94 H89 0.930 . S
C94 C97 1.404 . S
C94 C98 1.353 . S
N95 Co60 2.145 . S
N95 C96 1.397 . S
N95 C97 1.334 . S
C96 H77 0.929 . S
C96 C93 1.388 . S
C96 N95 1.397 . S
C97 H78 0.929 . S
C97 C94 1.404 . S
C97 N95 1.334 . S
C98 H90 0.930 . S
C98 C93 1.418 . S
C98 C94 1.353 . S
C99 H69 0.930 . S
C99 N100 1.330 . S
C99 C101 1.446 . S
N100 Co59 2.151 . S
N100 C99 1.330 . S
N100 C104 1.418 . S
C101 H80 0.929 . S
C101 C99 1.446 . S
C101 C102 1.332 . S
C102 H82 0.931 . S
C102 C101 1.332 . S
C102 C103 1.267 . S
C103 H71 0.929 . S
C103 C102 1.267 . S
C103 C104 1.251 . S
C104 H74 0.929 . S
C104 N100 1.418 . S
C104 C103 1.251 . S
C105 H72 0.930 . S
C105 C107 1.406 . S
C105 C110 1.261 . S
C106 H73 0.930 . S
C106 N108 1.325 . S
C106 C109 1.357 . S
C107 H75 0.928 . S
C107 C105 1.406 . S
C107 N108 1.261 . S
N108 Co59 2.214 . S
N108 C106 1.325 . S
N108 C107 1.261 . S
C109 H79 0.931 . S
C109 C106 1.357 . S
C109 C110 1.312 . S
C110 H81 0.930 . S
C110 C105 1.261 . S
C110 C109 1.312 . S
C111 O83 1.214 . S
C111 O91 1.234 . S
C112 H84 0.929 . S
C112 C115 1.391 . S
C112 C117 1.391 . S
C113 H85 0.929 . S
C113 C114 1.390 . S
C113 N116 1.391 . S
C114 H86 0.930 . S
C114 C113 1.390 . S
C114 C115 1.392 . S
C115 H87 0.929 . S
C115 C112 1.391 . S
C115 C114 1.392 . S
N116 Co60 2.257 . S
N116 C113 1.391 . S
N116 C117 1.388 . S
C117 H88 0.930 . S
C117 C112 1.391 . S
C117 N116 1.388 . S
Co118 O120 2.143 . S
Co118 O126 2.074 . S
Co118 O129 2.093 . S
Co118 O142 2.097 . S
Co118 N159 2.151 . S
Co118 N167 2.214 1_554 S
Co119 O120 2.160 . S
Co119 O125 2.058 . S
Co119 O135 2.057 . S
Co119 O150 2.037 . S
Co119 N154 2.145 . S
Co119 N175 2.257 . S
O120 Co118 2.143 . S
O120 Co119 2.160 . S
C121 O122 1.278 . S
C121 O129 1.224 . S
O122 C121 1.278 . S
C123 O124 1.245 . S
C123 O135 1.232 . S
O124 C123 1.245 . S
O125 Co119 2.058 . S
O125 C151 1.269 . S
O126 Co118 2.074 . S
O126 C151 1.257 . S
H127 C152 0.930 . S
H128 C158 0.930 . S
O129 Co118 2.093 . S
O129 C121 1.224 . S
H130 C162 0.929 . S
H131 C164 0.930 . S
H132 C165 0.930 . S
H133 C163 0.929 . S
H134 C166 0.928 . S
O135 Co119 2.057 . S
O135 C123 1.232 . S
H136 C155 0.929 . S
H137 C156 0.929 . S
H138 C168 0.931 . S
H139 C160 0.929 . S
H140 C169 0.930 . S
H141 C161 0.931 . S
O142 Co118 2.097 . S
O142 C170 1.214 . S
H143 C171 0.929 . S
H144 C172 0.929 . S
H145 C173 0.930 . S
H146 C174 0.929 . S
H147 C176 0.930 . S
H148 C153 0.930 . S
H149 C157 0.930 . S
O150 Co119 2.037 . S
O150 C170 1.234 . S
C151 O125 1.269 . S
C151 O126 1.257 . S
C152 H127 0.930 . S
C152 C155 1.388 . S
C152 C157 1.418 . S
C153 H148 0.930 . S
C153 C156 1.404 . S
C153 C157 1.353 . S
N154 Co119 2.145 . S
N154 C155 1.397 . S
N154 C156 1.334 . S
C155 H136 0.929 . S
C155 C152 1.388 . S
C155 N154 1.397 . S
C156 H137 0.929 . S
C156 C153 1.404 . S
C156 N154 1.334 . S
C157 H149 0.930 . S
C157 C152 1.418 . S
C157 C153 1.353 . S
C158 H128 0.930 . S
C158 N159 1.330 . S
C158 C160 1.446 . S
N159 Co118 2.151 . S
N159 C158 1.330 . S
N159 C163 1.418 . S
C160 H139 0.929 . S
C160 C158 1.446 . S
C160 C161 1.332 . S
C161 H141 0.931 . S
C161 C160 1.332 . S
C161 C162 1.267 . S
C162 H130 0.929 . S
C162 C161 1.267 . S
C162 C163 1.251 . S
C163 H133 0.929 . S
C163 N159 1.418 . S
C163 C162 1.251 . S
C164 H131 0.930 . S
C164 C166 1.406 . S
C164 C169 1.261 . S
C165 H132 0.930 . S
C165 N167 1.325 . S
C165 C168 1.357 . S
C166 H134 0.928 . S
C166 C164 1.406 . S
C166 N167 1.261 . S
N167 Co118 2.214 1_556 S
N167 C165 1.325 . S
N167 C166 1.261 . S
C168 H138 0.931 . S
C168 C165 1.357 . S
C168 C169 1.312 . S
C169 H140 0.930 . S
C169 C164 1.261 . S
C169 C168 1.312 . S
C170 O142 1.214 . S
C170 O150 1.234 . S
C171 H143 0.929 . S
C171 C174 1.391 . S
C171 C176 1.391 . S
C172 H144 0.929 . S
C172 C173 1.390 . S
C172 N175 1.391 . S
C173 H145 0.930 . S
C173 C172 1.390 . S
C173 C174 1.392 . S
C174 H146 0.929 . S
C174 C171 1.391 . S
C174 C173 1.392 . S
N175 Co119 2.257 . S
N175 C172 1.391 . S
N175 C176 1.388 . S
C176 H147 0.930 . S
C176 C171 1.391 . S
C176 N175 1.388 . S
Co177 O179 2.143 . S
Co177 O185 2.074 . S
Co177 O188 2.093 . S
Co177 O201 2.097 . S
Co177 N218 2.151 . S
Co177 N226 2.214 . S
Co178 O179 2.160 . S
Co178 O184 2.058 . S
Co178 O194 2.057 . S
Co178 O209 2.037 . S
Co178 N213 2.145 . S
Co178 N234 2.257 . S
O179 Co177 2.143 . S
O179 Co178 2.160 . S
C180 O181 1.278 . S
C180 O188 1.224 . S
O181 C180 1.278 . S
C182 O183 1.245 . S
C182 O194 1.232 . S
O183 C182 1.245 . S
O184 Co178 2.058 . S
O184 C210 1.269 . S
O185 Co177 2.074 . S
O185 C210 1.257 . S
H186 C211 0.930 . S
H187 C217 0.930 . S
O188 Co177 2.093 . S
O188 C180 1.224 . S
H189 C221 0.929 . S
H190 C223 0.930 . S
H191 C224 0.930 . S
H192 C222 0.929 . S
H193 C225 0.928 . S
O194 Co178 2.057 . S
O194 C182 1.232 . S
H195 C214 0.929 . S
H196 C215 0.929 . S
H197 C227 0.931 . S
H198 C219 0.929 . S
H199 C228 0.930 . S
H200 C220 0.931 . S
O201 Co177 2.097 . S
O201 C229 1.214 . S
H202 C230 0.929 . S
H203 C231 0.929 . S
H204 C232 0.930 . S
H205 C233 0.929 . S
H206 C235 0.930 . S
H207 C212 0.930 . S
H208 C216 0.930 . S
O209 Co178 2.037 . S
O209 C229 1.234 . S
C210 O184 1.269 . S
C210 O185 1.257 . S
C211 H186 0.930 . S
C211 C214 1.388 . S
C211 C216 1.418 . S
C212 H207 0.930 . S
C212 C215 1.404 . S
C212 C216 1.353 . S
N213 Co178 2.145 . S
N213 C214 1.397 . S
N213 C215 1.334 . S
C214 H195 0.929 . S
C214 C211 1.388 . S
C214 N213 1.397 . S
C215 H196 0.929 . S
C215 C212 1.404 . S
C215 N213 1.334 . S
C216 H208 0.930 . S
C216 C211 1.418 . S
C216 C212 1.353 . S
C217 H187 0.930 . S
C217 N218 1.330 . S
C217 C219 1.446 . S
N218 Co177 2.151 . S
N218 C217 1.330 . S
N218 C222 1.418 . S
C219 H198 0.929 . S
C219 C217 1.446 . S
C219 C220 1.332 . S
C220 H200 0.931 . S
C220 C219 1.332 . S
C220 C221 1.267 . S
C221 H189 0.929 . S
C221 C220 1.267 . S
C221 C222 1.251 . S
C222 H192 0.929 . S
C222 N218 1.418 . S
C222 C221 1.251 . S
C223 H190 0.930 . S
C223 C225 1.406 . S
C223 C228 1.261 . S
C224 H191 0.930 . S
C224 N226 1.325 . S
C224 C227 1.357 . S
C225 H193 0.928 . S
C225 C223 1.406 . S
C225 N226 1.261 . S
N226 Co177 2.214 . S
N226 C224 1.325 . S
N226 C225 1.261 . S
C227 H197 0.931 . S
C227 C224 1.357 . S
C227 C228 1.312 . S
C228 H199 0.930 . S
C228 C223 1.261 . S
C228 C227 1.312 . S
C229 O201 1.214 . S
C229 O209 1.234 . S
C230 H202 0.929 . S
C230 C233 1.391 . S
C230 C235 1.391 . S
C231 H203 0.929 . S
C231 C232 1.390 . S
C231 N234 1.391 . S
C232 H204 0.930 . S
C232 C231 1.390 . S
C232 C233 1.392 . S
C233 H205 0.929 . S
C233 C230 1.391 . S
C233 C232 1.392 . S
N234 Co178 2.257 . S
N234 C231 1.391 . S
N234 C235 1.388 . S
C235 H206 0.930 . S
C235 C230 1.391 . S
C235 N234 1.388 . S
Co236 O238 2.143 . S
Co236 O244 2.074 . S
Co236 O247 2.093 . S
Co236 O260 2.097 . S
Co236 N277 2.151 . S
Co236 N285 2.214 . S
Co237 O238 2.160 . S
Co237 O243 2.058 . S
Co237 O253 2.057 . S
Co237 O268 2.037 . S
Co237 N272 2.145 1_554 S
Co237 N293 2.257 . S
O238 Co236 2.143 . S
O238 Co237 2.160 . S
C239 O240 1.278 . S
C239 O247 1.224 . S
O240 C239 1.278 . S
C241 O242 1.245 . S
C241 O253 1.232 . S
O242 C241 1.245 . S
O243 Co237 2.058 . S
O243 C269 1.269 . S
O244 Co236 2.074 . S
O244 C269 1.257 . S
H245 C270 0.930 . S
H246 C276 0.930 . S
O247 Co236 2.093 . S
O247 C239 1.224 . S
H248 C280 0.929 . S
H249 C282 0.930 . S
H250 C283 0.930 . S
H251 C281 0.929 . S
H252 C284 0.928 . S
O253 Co237 2.057 . S
O253 C241 1.232 . S
H254 C273 0.929 . S
H255 C274 0.929 . S
H256 C286 0.931 . S
H257 C278 0.929 . S
H258 C287 0.930 . S
H259 C279 0.931 . S
O260 Co236 2.097 . S
O260 C288 1.214 . S
H261 C289 0.929 . S
H262 C290 0.929 . S
H263 C291 0.930 . S
H264 C292 0.929 . S
H265 C294 0.930 . S
H266 C271 0.930 . S
H267 C275 0.930 . S
O268 Co237 2.037 . S
O268 C288 1.234 . S
C269 O243 1.269 . S
C269 O244 1.257 . S
C270 H245 0.930 . S
C270 C273 1.388 . S
C270 C275 1.418 . S
C271 H266 0.930 . S
C271 C274 1.404 . S
C271 C275 1.353 . S
N272 Co237 2.145 1_556 S
N272 C273 1.397 . S
N272 C274 1.334 . S
C273 H254 0.929 . S
C273 C270 1.388 . S
C273 N272 1.397 . S
C274 H255 0.929 . S
C274 C271 1.404 . S
C274 N272 1.334 . S
C275 H267 0.930 . S
C275 C270 1.418 . S
C275 C271 1.353 . S
C276 H246 0.930 . S
C276 N277 1.330 . S
C276 C278 1.446 . S
N277 Co236 2.151 . S
N277 C276 1.330 . S
N277 C281 1.418 . S
C278 H257 0.929 . S
C278 C276 1.446 . S
C278 C279 1.332 . S
C279 H259 0.931 . S
C279 C278 1.332 . S
C279 C280 1.267 . S
C280 H248 0.929 . S
C280 C279 1.267 . S
C280 C281 1.251 . S
C281 H251 0.929 . S
C281 N277 1.418 . S
C281 C280 1.251 . S
C282 H249 0.930 . S
C282 C284 1.406 . S
C282 C287 1.261 . S
C283 H250 0.930 . S
C283 N285 1.325 . S
C283 C286 1.357 . S
C284 H252 0.928 . S
C284 C282 1.406 . S
C284 N285 1.261 . S
N285 Co236 2.214 . S
N285 C283 1.325 . S
N285 C284 1.261 . S
C286 H256 0.931 . S
C286 C283 1.357 . S
C286 C287 1.312 . S
C287 H258 0.930 . S
C287 C282 1.261 . S
C287 C286 1.312 . S
C288 O260 1.214 . S
C288 O268 1.234 . S
C289 H261 0.929 . S
C289 C292 1.391 . S
C289 C294 1.391 . S
C290 H262 0.929 . S
C290 C291 1.390 . S
C290 N293 1.391 . S
C291 H263 0.930 . S
C291 C290 1.390 . S
C291 C292 1.392 . S
C292 H264 0.929 . S
C292 C289 1.391 . S
C292 C291 1.392 . S
N293 Co237 2.257 . S
N293 C290 1.391 . S
N293 C294 1.388 . S
C294 H265 0.930 . S
C294 C289 1.391 . S
C294 N293 1.388 . S
Co295 O297 2.143 . S
Co295 O303 2.074 . S
Co295 O306 2.093 . S
Co295 O319 2.097 . S
Co295 N336 2.151 . S
Co295 N344 2.214 . S
Co296 O297 2.160 . S
Co296 O302 2.058 . S
Co296 O312 2.057 . S
Co296 O327 2.037 . S
Co296 N331 2.145 . S
Co296 N352 2.257 . S
O297 Co295 2.143 . S
O297 Co296 2.160 . S
C298 O299 1.278 . S
C298 O306 1.224 . S
O299 C298 1.278 . S
C300 O301 1.245 . S
C300 O312 1.232 . S
O301 C300 1.245 . S
O302 Co296 2.058 . S
O302 C328 1.269 . S
O303 Co295 2.074 . S
O303 C328 1.257 . S
H304 C329 0.930 . S
H305 C335 0.930 . S
O306 Co295 2.093 . S
O306 C298 1.224 . S
H307 C339 0.929 . S
H308 C341 0.930 . S
H309 C342 0.930 . S
H310 C340 0.929 . S
H311 C343 0.928 . S
O312 Co296 2.057 . S
O312 C300 1.232 . S
H313 C332 0.929 . S
H314 C333 0.929 . S
H315 C345 0.931 . S
H316 C337 0.929 . S
H317 C346 0.930 . S
H318 C338 0.931 . S
O319 Co295 2.097 . S
O319 C347 1.214 . S
H320 C348 0.929 . S
H321 C349 0.929 . S
H322 C350 0.930 . S
H323 C351 0.929 . S
H324 C353 0.930 . S
H325 C330 0.930 . S
H326 C334 0.930 . S
O327 Co296 2.037 . S
O327 C347 1.234 . S
C328 O302 1.269 . S
C328 O303 1.257 . S
C329 H304 0.930 . S
C329 C332 1.388 . S
C329 C334 1.418 . S
C330 H325 0.930 . S
C330 C333 1.404 . S
C330 C334 1.353 . S
N331 Co296 2.145 . S
N331 C332 1.397 . S
N331 C333 1.334 . S
C332 H313 0.929 . S
C332 C329 1.388 . S
C332 N331 1.397 . S
C333 H314 0.929 . S
C333 C330 1.404 . S
C333 N331 1.334 . S
C334 H326 0.930 . S
C334 C329 1.418 . S
C334 C330 1.353 . S
C335 H305 0.930 . S
C335 N336 1.330 . S
C335 C337 1.446 . S
N336 Co295 2.151 . S
N336 C335 1.330 . S
N336 C340 1.418 . S
C337 H316 0.929 . S
C337 C335 1.446 . S
C337 C338 1.332 . S
C338 H318 0.931 . S
C338 C337 1.332 . S
C338 C339 1.267 . S
C339 H307 0.929 . S
C339 C338 1.267 . S
C339 C340 1.251 . S
C340 H310 0.929 . S
C340 N336 1.418 . S
C340 C339 1.251 . S
C341 H308 0.930 . S
C341 C343 1.406 . S
C341 C346 1.261 . S
C342 H309 0.930 . S
C342 N344 1.325 . S
C342 C345 1.357 . S
C343 H311 0.928 . S
C343 C341 1.406 . S
C343 N344 1.261 . S
N344 Co295 2.214 . S
N344 C342 1.325 . S
N344 C343 1.261 . S
C345 H315 0.931 . S
C345 C342 1.357 . S
C345 C346 1.312 . S
C346 H317 0.930 . S
C346 C341 1.261 . S
C346 C345 1.312 . S
C347 O319 1.214 . S
C347 O327 1.234 . S
C348 H320 0.929 . S
C348 C351 1.391 . S
C348 C353 1.391 . S
C349 H321 0.929 . S
C349 C350 1.390 . S
C349 N352 1.391 . S
C350 H322 0.930 . S
C350 C349 1.390 . S
C350 C351 1.392 . S
C351 H323 0.929 . S
C351 C348 1.391 . S
C351 C350 1.392 . S
N352 Co296 2.257 . S
N352 C349 1.391 . S
N352 C353 1.388 . S
C353 H324 0.930 . S
C353 C348 1.391 . S
C353 N352 1.388 . S
Co354 O356 2.143 . S
Co354 O362 2.074 . S
Co354 O365 2.093 . S
Co354 O378 2.097 . S
Co354 N395 2.151 . S
Co354 N403 2.214 . S
Co355 O356 2.160 . S
Co355 O361 2.058 . S
Co355 O371 2.057 . S
Co355 O386 2.037 . S
Co355 N390 2.145 . S
Co355 N411 2.257 . S
O356 Co354 2.143 . S
O356 Co355 2.160 . S
C357 O358 1.278 . S
C357 O365 1.224 . S
O358 C357 1.278 . S
C359 O360 1.245 . S
C359 O371 1.232 . S
O360 C359 1.245 . S
O361 Co355 2.058 . S
O361 C387 1.269 . S
O362 Co354 2.074 . S
O362 C387 1.257 . S
H363 C388 0.930 . S
H364 C394 0.930 . S
O365 Co354 2.093 . S
O365 C357 1.224 . S
H366 C398 0.929 . S
H367 C400 0.930 . S
H368 C401 0.930 . S
H369 C399 0.929 . S
H370 C402 0.928 . S
O371 Co355 2.057 . S
O371 C359 1.232 . S
H372 C391 0.929 . S
H373 C392 0.929 . S
H374 C404 0.931 . S
H375 C396 0.929 . S
H376 C405 0.930 . S
H377 C397 0.931 . S
O378 Co354 2.097 . S
O378 C406 1.214 . S
H379 C407 0.929 . S
H380 C408 0.929 . S
H381 C409 0.930 . S
H382 C410 0.929 . S
H383 C412 0.930 . S
H384 C389 0.930 . S
H385 C393 0.930 . S
O386 Co355 2.037 . S
O386 C406 1.234 . S
C387 O361 1.269 . S
C387 O362 1.257 . S
C388 H363 0.930 . S
C388 C391 1.388 . S
C388 C393 1.418 . S
C389 H384 0.930 . S
C389 C392 1.404 . S
C389 C393 1.353 . S
N390 Co355 2.145 . S
N390 C391 1.397 . S
N390 C392 1.334 . S
C391 H372 0.929 . S
C391 C388 1.388 . S
C391 N390 1.397 . S
C392 H373 0.929 . S
C392 C389 1.404 . S
C392 N390 1.334 . S
C393 H385 0.930 . S
C393 C388 1.418 . S
C393 C389 1.353 . S
C394 H364 0.930 . S
C394 N395 1.330 . S
C394 C396 1.446 . S
N395 Co354 2.151 . S
N395 C394 1.330 . S
N395 C399 1.418 . S
C396 H375 0.929 . S
C396 C394 1.446 . S
C396 C397 1.332 . S
C397 H377 0.931 . S
C397 C396 1.332 . S
C397 C398 1.267 . S
C398 H366 0.929 . S
C398 C397 1.267 . S
C398 C399 1.251 . S
C399 H369 0.929 . S
C399 N395 1.418 . S
C399 C398 1.251 . S
C400 H367 0.930 . S
C400 C402 1.406 . S
C400 C405 1.261 . S
C401 H368 0.930 . S
C401 N403 1.325 . S
C401 C404 1.357 . S
C402 H370 0.928 . S
C402 C400 1.406 . S
C402 N403 1.261 . S
N403 Co354 2.214 . S
N403 C401 1.325 . S
N403 C402 1.261 . S
C404 H374 0.931 . S
C404 C401 1.357 . S
C404 C405 1.312 . S
C405 H376 0.930 . S
C405 C400 1.261 . S
C405 C404 1.312 . S
C406 O378 1.214 . S
C406 O386 1.234 . S
C407 H379 0.929 . S
C407 C410 1.391 . S
C407 C412 1.391 . S
C408 H380 0.929 . S
C408 C409 1.390 . S
C408 N411 1.391 . S
C409 H381 0.930 . S
C409 C408 1.390 . S
C409 C410 1.392 . S
C410 H382 0.929 . S
C410 C407 1.391 . S
C410 C409 1.392 . S
N411 Co355 2.257 . S
N411 C408 1.391 . S
N411 C412 1.388 . S
C412 H383 0.930 . S
C412 C407 1.391 . S
C412 N411 1.388 . S
Co413 O415 2.143 . S
Co413 O421 2.074 . S
Co413 O424 2.093 . S
Co413 O437 2.097 . S
Co413 N454 2.151 . S
Co413 N462 2.214 . S
Co414 O415 2.160 . S
Co414 O420 2.058 . S
Co414 O430 2.057 . S
Co414 O445 2.037 . S
Co414 N449 2.145 1_556 S
Co414 N470 2.257 . S
O415 Co413 2.143 . S
O415 Co414 2.160 . S
C416 O417 1.278 . S
C416 O424 1.224 . S
O417 C416 1.278 . S
C418 O419 1.245 . S
C418 O430 1.232 . S
O419 C418 1.245 . S
O420 Co414 2.058 . S
O420 C446 1.269 . S
O421 Co413 2.074 . S
O421 C446 1.257 . S
H422 C447 0.930 . S
H423 C453 0.930 . S
O424 Co413 2.093 . S
O424 C416 1.224 . S
H425 C457 0.929 . S
H426 C459 0.930 . S
H427 C460 0.930 . S
H428 C458 0.929 . S
H429 C461 0.928 . S
O430 Co414 2.057 . S
O430 C418 1.232 . S
H431 C450 0.929 . S
H432 C451 0.929 . S
H433 C463 0.931 . S
H434 C455 0.929 . S
H435 C464 0.930 . S
H436 C456 0.931 . S
O437 Co413 2.097 . S
O437 C465 1.214 . S
H438 C466 0.929 . S
H439 C467 0.929 . S
H440 C468 0.930 . S
H441 C469 0.929 . S
H442 C471 0.930 . S
H443 C448 0.930 . S
H444 C452 0.930 . S
O445 Co414 2.037 . S
O445 C465 1.234 . S
C446 O420 1.269 . S
C446 O421 1.257 . S
C447 H422 0.930 . S
C447 C450 1.388 . S
C447 C452 1.418 . S
C448 H443 0.930 . S
C448 C451 1.404 . S
C448 C452 1.353 . S
N449 Co414 2.145 1_554 S
N449 C450 1.397 . S
N449 C451 1.334 . S
C450 H431 0.929 . S
C450 C447 1.388 . S
C450 N449 1.397 . S
C451 H432 0.929 . S
C451 C448 1.404 . S
C451 N449 1.334 . S
C452 H444 0.930 . S
C452 C447 1.418 . S
C452 C448 1.353 . S
C453 H423 0.930 . S
C453 N454 1.330 . S
C453 C455 1.446 . S
N454 Co413 2.151 . S
N454 C453 1.330 . S
N454 C458 1.418 . S
C455 H434 0.929 . S
C455 C453 1.446 . S
C455 C456 1.332 . S
C456 H436 0.931 . S
C456 C455 1.332 . S
C456 C457 1.267 . S
C457 H425 0.929 . S
C457 C456 1.267 . S
C457 C458 1.251 . S
C458 H428 0.929 . S
C458 N454 1.418 . S
C458 C457 1.251 . S
C459 H426 0.930 . S
C459 C461 1.406 . S
C459 C464 1.261 . S
C460 H427 0.930 . S
C460 N462 1.325 . S
C460 C463 1.357 . S
C461 H429 0.928 . S
C461 C459 1.406 . S
C461 N462 1.261 . S
N462 Co413 2.214 . S
N462 C460 1.325 . S
N462 C461 1.261 . S
C463 H433 0.931 . S
C463 C460 1.357 . S
C463 C464 1.312 . S
C464 H435 0.930 . S
C464 C459 1.261 . S
C464 C463 1.312 . S
C465 O437 1.214 . S
C465 O445 1.234 . S
C466 H438 0.929 . S
C466 C469 1.391 . S
C466 C471 1.391 . S
C467 H439 0.929 . S
C467 C468 1.390 . S
C467 N470 1.391 . S
C468 H440 0.930 . S
C468 C467 1.390 . S
C468 C469 1.392 . S
C469 H441 0.929 . S
C469 C466 1.391 . S
C469 C468 1.392 . S
N470 Co414 2.257 . S
N470 C467 1.391 . S
N470 C471 1.388 . S
C471 H442 0.930 . S
C471 C466 1.391 . S
C471 N470 1.388 . S
Co472 O474 2.143 . S
Co472 O480 2.074 . S
Co472 O483 2.093 . S
Co472 O496 2.097 . S
Co472 N513 2.151 . S
Co472 N521 2.214 . S
Co473 O474 2.160 . S
Co473 O479 2.058 . S
Co473 O489 2.057 . S
Co473 O504 2.037 . S
Co473 N508 2.145 . S
Co473 N529 2.257 . S
O474 Co472 2.143 . S
O474 Co473 2.160 . S
C475 O476 1.278 . S
C475 O483 1.224 . S
O476 C475 1.278 . S
C477 O478 1.245 . S
C477 O489 1.232 . S
O478 C477 1.245 . S
O479 Co473 2.058 . S
O479 C505 1.269 . S
O480 Co472 2.074 . S
O480 C505 1.257 . S
H481 C506 0.930 . S
H482 C512 0.930 . S
O483 Co472 2.093 . S
O483 C475 1.224 . S
H484 C516 0.929 . S
H485 C518 0.930 . S
H486 C519 0.930 . S
H487 C517 0.929 . S
H488 C520 0.928 . S
O489 Co473 2.057 . S
O489 C477 1.232 . S
H490 C509 0.929 . S
H491 C510 0.929 . S
H492 C522 0.931 . S
H493 C514 0.929 . S
H494 C523 0.930 . S
H495 C515 0.931 . S
O496 Co472 2.097 . S
O496 C524 1.214 . S
H497 C525 0.929 . S
H498 C526 0.929 . S
H499 C527 0.930 . S
H500 C528 0.929 . S
H501 C530 0.930 . S
H502 C507 0.930 . S
H503 C511 0.930 . S
O504 Co473 2.037 . S
O504 C524 1.234 . S
C505 O479 1.269 . S
C505 O480 1.257 . S
C506 H481 0.930 . S
C506 C509 1.388 . S
C506 C511 1.418 . S
C507 H502 0.930 . S
C507 C510 1.404 . S
C507 C511 1.353 . S
N508 Co473 2.145 . S
N508 C509 1.397 . S
N508 C510 1.334 . S
C509 H490 0.929 . S
C509 C506 1.388 . S
C509 N508 1.397 . S
C510 H491 0.929 . S
C510 C507 1.404 . S
C510 N508 1.334 . S
C511 H503 0.930 . S
C511 C506 1.418 . S
C511 C507 1.353 . S
C512 H482 0.930 . S
C512 N513 1.330 . S
C512 C514 1.446 . S
N513 Co472 2.151 . S
N513 C512 1.330 . S
N513 C517 1.418 . S
C514 H493 0.929 . S
C514 C512 1.446 . S
C514 C515 1.332 . S
C515 H495 0.931 . S
C515 C514 1.332 . S
C515 C516 1.267 . S
C516 H484 0.929 . S
C516 C515 1.267 . S
C516 C517 1.251 . S
C517 H487 0.929 . S
C517 N513 1.418 . S
C517 C516 1.251 . S
C518 H485 0.930 . S
C518 C520 1.406 . S
C518 C523 1.261 . S
C519 H486 0.930 . S
C519 N521 1.325 . S
C519 C522 1.357 . S
C520 H488 0.928 . S
C520 C518 1.406 . S
C520 N521 1.261 . S
N521 Co472 2.214 . S
N521 C519 1.325 . S
N521 C520 1.261 . S
C522 H492 0.931 . S
C522 C519 1.357 . S
C522 C523 1.312 . S
C523 H494 0.930 . S
C523 C518 1.261 . S
C523 C522 1.312 . S
C524 O496 1.214 . S
C524 O504 1.234 . S
C525 H497 0.929 . S
C525 C528 1.391 . S
C525 C530 1.391 . S
C526 H498 0.929 . S
C526 C527 1.390 . S
C526 N529 1.391 . S
C527 H499 0.930 . S
C527 C526 1.390 . S
C527 C528 1.392 . S
C528 H500 0.929 . S
C528 C525 1.391 . S
C528 C527 1.392 . S
N529 Co473 2.257 . S
N529 C526 1.391 . S
N529 C530 1.388 . S
C530 H501 0.930 . S
C530 C525 1.391 . S
C530 N529 1.388 . S
Co531 O533 2.143 . S
Co531 O539 2.074 . S
Co531 O542 2.093 . S
Co531 O555 2.097 . S
Co531 N572 2.151 . S
Co531 N580 2.214 . S
Co532 O533 2.160 . S
Co532 O538 2.058 . S
Co532 O548 2.057 . S
Co532 O563 2.037 . S
Co532 N567 2.145 1_556 S
Co532 N588 2.257 . S
O533 Co531 2.143 . S
O533 Co532 2.160 . S
C534 O535 1.278 . S
C534 O542 1.224 . S
O535 C534 1.278 . S
C536 O537 1.245 . S
C536 O548 1.232 . S
O537 C536 1.245 . S
O538 Co532 2.058 . S
O538 C564 1.269 . S
O539 Co531 2.074 . S
O539 C564 1.257 . S
H540 C565 0.930 . S
H541 C571 0.930 . S
O542 Co531 2.093 . S
O542 C534 1.224 . S
H543 C575 0.929 . S
H544 C577 0.930 . S
H545 C578 0.930 . S
H546 C576 0.929 . S
H547 C579 0.928 . S
O548 Co532 2.057 . S
O548 C536 1.232 . S
H549 C568 0.929 . S
H550 C569 0.929 . S
H551 C581 0.931 . S
H552 C573 0.929 . S
H553 C582 0.930 . S
H554 C574 0.931 . S
O555 Co531 2.097 . S
O555 C583 1.214 . S
H556 C584 0.929 . S
H557 C585 0.929 . S
H558 C586 0.930 . S
H559 C587 0.929 . S
H560 C589 0.930 . S
H561 C566 0.930 . S
H562 C570 0.930 . S
O563 Co532 2.037 . S
O563 C583 1.234 . S
C564 O538 1.269 . S
C564 O539 1.257 . S
C565 H540 0.930 . S
C565 C568 1.388 . S
C565 C570 1.418 . S
C566 H561 0.930 . S
C566 C569 1.404 . S
C566 C570 1.353 . S
N567 Co532 2.145 1_554 S
N567 C568 1.397 . S
N567 C569 1.334 . S
C568 H549 0.929 . S
C568 C565 1.388 . S
C568 N567 1.397 . S
C569 H550 0.929 . S
C569 C566 1.404 . S
C569 N567 1.334 . S
C570 H562 0.930 . S
C570 C565 1.418 . S
C570 C566 1.353 . S
C571 H541 0.930 . S
C571 N572 1.330 . S
C571 C573 1.446 . S
N572 Co531 2.151 . S
N572 C571 1.330 . S
N572 C576 1.418 . S
C573 H552 0.929 . S
C573 C571 1.446 . S
C573 C574 1.332 . S
C574 H554 0.931 . S
C574 C573 1.332 . S
C574 C575 1.267 . S
C575 H543 0.929 . S
C575 C574 1.267 . S
C575 C576 1.251 . S
C576 H546 0.929 . S
C576 N572 1.418 . S
C576 C575 1.251 . S
C577 H544 0.930 . S
C577 C579 1.406 . S
C577 C582 1.261 . S
C578 H545 0.930 . S
C578 N580 1.325 . S
C578 C581 1.357 . S
C579 H547 0.928 . S
C579 C577 1.406 . S
C579 N580 1.261 . S
N580 Co531 2.214 . S
N580 C578 1.325 . S
N580 C579 1.261 . S
C581 H551 0.931 . S
C581 C578 1.357 . S
C581 C582 1.312 . S
C582 H553 0.930 . S
C582 C577 1.261 . S
C582 C581 1.312 . S
C583 O555 1.214 . S
C583 O563 1.234 . S
C584 H556 0.929 . S
C584 C587 1.391 . S
C584 C589 1.391 . S
C585 H557 0.929 . S
C585 C586 1.390 . S
C585 N588 1.391 . S
C586 H558 0.930 . S
C586 C585 1.390 . S
C586 C587 1.392 . S
C587 H559 0.929 . S
C587 C584 1.391 . S
C587 C586 1.392 . S
N588 Co532 2.257 . S
N588 C585 1.391 . S
N588 C589 1.388 . S
C589 H560 0.930 . S
C589 C584 1.391 . S
C589 N588 1.388 . S
Co590 O592 2.143 . S
Co590 O598 2.074 . S
Co590 O601 2.093 . S
Co590 O614 2.097 . S
Co590 N631 2.151 . S
Co590 N639 2.214 . S
Co591 O592 2.160 . S
Co591 O597 2.058 . S
Co591 O607 2.057 . S
Co591 O622 2.037 . S
Co591 N626 2.145 . S
Co591 N647 2.257 . S
O592 Co590 2.143 . S
O592 Co591 2.160 . S
C593 O594 1.278 . S
C593 O601 1.224 . S
O594 C593 1.278 . S
C595 O596 1.245 . S
C595 O607 1.232 . S
O596 C595 1.245 . S
O597 Co591 2.058 . S
O597 C623 1.269 . S
O598 Co590 2.074 . S
O598 C623 1.257 . S
H599 C624 0.930 . S
H600 C630 0.930 . S
O601 Co590 2.093 . S
O601 C593 1.224 . S
H602 C634 0.929 . S
H603 C636 0.930 . S
H604 C637 0.930 . S
H605 C635 0.929 . S
H606 C638 0.928 . S
O607 Co591 2.057 . S
O607 C595 1.232 . S
H608 C627 0.929 . S
H609 C628 0.929 . S
H610 C640 0.931 . S
H611 C632 0.929 . S
H612 C641 0.930 . S
H613 C633 0.931 . S
O614 Co590 2.097 . S
O614 C642 1.214 . S
H615 C643 0.929 . S
H616 C644 0.929 . S
H617 C645 0.930 . S
H618 C646 0.929 . S
H619 C648 0.930 . S
H620 C625 0.930 . S
H621 C629 0.930 . S
O622 Co591 2.037 . S
O622 C642 1.234 . S
C623 O597 1.269 . S
C623 O598 1.257 . S
C624 H599 0.930 . S
C624 C627 1.388 . S
C624 C629 1.418 . S
C625 H620 0.930 . S
C625 C628 1.404 . S
C625 C629 1.353 . S
N626 Co591 2.145 . S
N626 C627 1.397 . S
N626 C628 1.334 . S
C627 H608 0.929 . S
C627 C624 1.388 . S
C627 N626 1.397 . S
C628 H609 0.929 . S
C628 C625 1.404 . S
C628 N626 1.334 . S
C629 H621 0.930 . S
C629 C624 1.418 . S
C629 C625 1.353 . S
C630 H600 0.930 . S
C630 N631 1.330 . S
C630 C632 1.446 . S
N631 Co590 2.151 . S
N631 C630 1.330 . S
N631 C635 1.418 . S
C632 H611 0.929 . S
C632 C630 1.446 . S
C632 C633 1.332 . S
C633 H613 0.931 . S
C633 C632 1.332 . S
C633 C634 1.267 . S
C634 H602 0.929 . S
C634 C633 1.267 . S
C634 C635 1.251 . S
C635 H605 0.929 . S
C635 N631 1.418 . S
C635 C634 1.251 . S
C636 H603 0.930 . S
C636 C638 1.406 . S
C636 C641 1.261 . S
C637 H604 0.930 . S
C637 N639 1.325 . S
C637 C640 1.357 . S
C638 H606 0.928 . S
C638 C636 1.406 . S
C638 N639 1.261 . S
N639 Co590 2.214 . S
N639 C637 1.325 . S
N639 C638 1.261 . S
C640 H610 0.931 . S
C640 C637 1.357 . S
C640 C641 1.312 . S
C641 H612 0.930 . S
C641 C636 1.261 . S
C641 C640 1.312 . S
C642 O614 1.214 . S
C642 O622 1.234 . S
C643 H615 0.929 . S
C643 C646 1.391 . S
C643 C648 1.391 . S
C644 H616 0.929 . S
C644 C645 1.390 . S
C644 N647 1.391 . S
C645 H617 0.930 . S
C645 C644 1.390 . S
C645 C646 1.392 . S
C646 H618 0.929 . S
C646 C643 1.391 . S
C646 C645 1.392 . S
N647 Co591 2.257 . S
N647 C644 1.391 . S
N647 C648 1.388 . S
C648 H619 0.930 . S
C648 C643 1.391 . S
C648 N647 1.388 . S
Co649 O651 2.143 . S
Co649 O657 2.074 . S
Co649 O660 2.093 . S
Co649 O673 2.097 . S
Co649 N690 2.151 . S
Co649 N698 2.214 1_556 S
Co650 O651 2.160 . S
Co650 O656 2.058 . S
Co650 O666 2.057 . S
Co650 O681 2.037 . S
Co650 N685 2.145 . S
Co650 N706 2.257 . S
O651 Co649 2.143 . S
O651 Co650 2.160 . S
C652 O653 1.278 . S
C652 O660 1.224 . S
O653 C652 1.278 . S
C654 O655 1.245 . S
C654 O666 1.232 . S
O655 C654 1.245 . S
O656 Co650 2.058 . S
O656 C682 1.269 . S
O657 Co649 2.074 . S
O657 C682 1.257 . S
H658 C683 0.930 . S
H659 C689 0.930 . S
O660 Co649 2.093 . S
O660 C652 1.224 . S
H661 C693 0.919 1_554 S
H662 C695 0.930 . S
H663 C696 0.930 . S
H664 C694 0.929 1_554 S
H665 C697 0.928 . S
O666 Co650 2.057 . S
O666 C654 1.232 . S
H667 C686 0.929 . S
H668 C687 0.929 . S
H669 C699 0.931 . S
H670 C691 0.929 . S
H671 C700 0.930 . S
H672 C692 0.931 . S
O673 Co649 2.097 . S
O673 C701 1.214 . S
H674 C702 0.929 . S
H675 C703 0.929 . S
H676 C704 0.930 . S
H677 C705 0.929 . S
H678 C707 0.930 . S
H679 C684 0.930 . S
H680 C688 0.930 . S
O681 Co650 2.037 . S
O681 C701 1.234 . S
C682 O656 1.269 . S
C682 O657 1.257 . S
C683 H658 0.930 . S
C683 C686 1.388 . S
C683 C688 1.418 . S
C684 H679 0.930 . S
C684 C687 1.404 . S
C684 C688 1.353 . S
N685 Co650 2.145 . S
N685 C686 1.397 . S
N685 C687 1.334 . S
C686 H667 0.929 . S
C686 C683 1.388 . S
C686 N685 1.397 . S
C687 H668 0.929 . S
C687 C684 1.404 . S
C687 N685 1.334 . S
C688 H680 0.930 . S
C688 C683 1.418 . S
C688 C684 1.353 . S
C689 H659 0.930 . S
C689 N690 1.330 . S
C689 C691 1.446 . S
N690 Co649 2.151 . S
N690 C689 1.330 . S
N690 C694 1.418 . S
C691 H670 0.929 . S
C691 C689 1.446 . S
C691 C692 1.332 . S
C692 H672 0.931 . S
C692 C691 1.332 . S
C692 C693 1.274 . S
C693 H661 0.919 1_556 S
C693 C692 1.274 . S
C693 C694 1.254 . S
C694 H664 0.929 1_556 S
C694 N690 1.418 . S
C694 C693 1.254 . S
C695 H662 0.930 . S
C695 C697 1.406 . S
C695 C700 1.261 . S
C696 H663 0.930 . S
C696 N698 1.325 . S
C696 C699 1.357 . S
C697 H665 0.928 . S
C697 C695 1.406 . S
C697 N698 1.261 . S
N698 Co649 2.214 1_554 S
N698 C696 1.325 . S
N698 C697 1.261 . S
C699 H669 0.931 . S
C699 C696 1.357 . S
C699 C700 1.312 . S
C700 H671 0.930 . S
C700 C695 1.261 . S
C700 C699 1.312 . S
C701 O673 1.214 . S
C701 O681 1.234 . S
C702 H674 0.929 . S
C702 C705 1.391 . S
C702 C707 1.391 . S
C703 H675 0.929 . S
C703 C704 1.390 . S
C703 N706 1.391 . S
C704 H676 0.930 . S
C704 C703 1.390 . S
C704 C705 1.392 . S
C705 H677 0.929 . S
C705 C702 1.391 . S
C705 C704 1.392 . S
N706 Co650 2.257 . S
N706 C703 1.391 . S
N706 C707 1.388 . S
C707 H678 0.930 . S
C707 C702 1.391 . S
C707 N706 1.388 . S
H708 C716 0.950 . S
H709 C721 0.950 . S
H710 C718 0.950 . S
H711 C720 0.950 . S
H712 C722 0.950 . S
H713 C724 0.950 . S
H714 C726 0.950 . S
H715 C727 0.950 . S
C716 H708 0.950 . S
C716 C717 1.386 . S
C716 C718 1.391 . S
C717 C716 1.386 . S
C717 C721 1.393 . S
C718 H710 0.950 . S
C718 C716 1.391 . S
C718 C719 1.400 . S
C719 C718 1.400 . S
C719 C720 1.398 . S
C719 C725 1.491 . S
C720 H711 0.950 . S
C720 C719 1.398 . S
C720 C721 1.391 . S
C721 H709 0.950 . S
C721 C717 1.393 . S
C721 C720 1.391 . S
C722 H712 0.950 . S
C722 C723 1.386 . S
C722 C724 1.391 . S
C723 C722 1.386 . S
C723 C727 1.393 . S
C724 H713 0.950 . S
C724 C722 1.391 . S
C724 C725 1.400 . S
C725 C719 1.491 . S
C725 C724 1.400 . S
C725 C726 1.398 . S
C726 H714 0.950 . S
C726 C725 1.398 . S
C726 C727 1.391 . S
C727 H715 0.950 . S
C727 C723 1.393 . S
C727 C726 1.391 . S
H728 C736 0.950 . S
H729 C741 0.950 . S
H730 C738 0.950 . S
H731 C740 0.950 . S
H732 C742 0.950 . S
H733 C744 0.950 . S
H734 C746 0.950 . S
H735 C747 0.950 . S
C736 H728 0.950 . S
C736 C737 1.386 . S
C736 C738 1.391 . S
C737 C736 1.386 . S
C737 C741 1.393 . S
C738 H730 0.950 . S
C738 C736 1.391 . S
C738 C739 1.400 . S
C739 C738 1.400 . S
C739 C740 1.398 . S
C739 C745 1.491 . S
C740 H731 0.950 . S
C740 C739 1.398 . S
C740 C741 1.391 . S
C741 H729 0.950 . S
C741 C737 1.393 . S
C741 C740 1.391 . S
C742 H732 0.950 . S
C742 C743 1.386 . S
C742 C744 1.391 . S
C743 C742 1.386 . S
C743 C747 1.393 . S
C744 H733 0.950 . S
C744 C742 1.391 . S
C744 C745 1.400 . S
C745 C739 1.491 . S
C745 C744 1.400 . S
C745 C746 1.398 . S
C746 H734 0.950 . S
C746 C745 1.398 . S
C746 C747 1.391 . S
C747 H735 0.950 . S
C747 C743 1.393 . S
C747 C746 1.391 . S
H748 C756 0.950 . S
H749 C761 0.950 . S
H750 C758 0.950 . S
H751 C760 0.950 . S
H752 C762 0.950 . S
H753 C764 0.950 . S
H754 C766 0.950 . S
H755 C767 0.950 . S
C756 H748 0.950 . S
C756 C757 1.386 . S
C756 C758 1.391 . S
C757 C756 1.386 . S
C757 C761 1.393 . S
C758 H750 0.950 . S
C758 C756 1.391 . S
C758 C759 1.400 . S
C759 C758 1.400 . S
C759 C760 1.398 . S
C759 C765 1.491 . S
C760 H751 0.950 . S
C760 C759 1.398 . S
C760 C761 1.391 . S
C761 H749 0.950 . S
C761 C757 1.393 . S
C761 C760 1.391 . S
C762 H752 0.950 . S
C762 C763 1.386 . S
C762 C764 1.391 . S
C763 C762 1.386 . S
C763 C767 1.393 . S
C764 H753 0.950 . S
C764 C762 1.391 . S
C764 C765 1.400 . S
C765 C759 1.491 . S
C765 C764 1.400 . S
C765 C766 1.398 . S
C766 H754 0.950 . S
C766 C765 1.398 . S
C766 C767 1.391 . S
C767 H755 0.950 . S
C767 C763 1.393 . S
C767 C766 1.391 . S
H768 C776 0.950 . S
H769 C781 0.950 . S
H770 C778 0.950 . S
H771 C780 0.950 . S
H772 C782 0.950 . S
H773 C784 0.950 . S
H774 C786 0.950 . S
H775 C787 0.950 . S
C776 H768 0.950 . S
C776 C777 1.386 . S
C776 C778 1.391 . S
C777 C776 1.386 . S
C777 C781 1.393 . S
C778 H770 0.950 . S
C778 C776 1.391 . S
C778 C779 1.400 . S
C779 C778 1.400 . S
C779 C780 1.398 . S
C779 C785 1.491 . S
C780 H771 0.950 . S
C780 C779 1.398 . S
C780 C781 1.391 . S
C781 H769 0.950 . S
C781 C777 1.393 . S
C781 C780 1.391 . S
C782 H772 0.950 . S
C782 C783 1.386 . S
C782 C784 1.391 . S
C783 C782 1.386 . S
C783 C787 1.393 . S
C784 H773 0.950 . S
C784 C782 1.391 . S
C784 C785 1.400 . S
C785 C779 1.491 . S
C785 C784 1.400 . S
C785 C786 1.398 . S
C786 H774 0.950 . S
C786 C785 1.398 . S
C786 C787 1.391 . S
C787 H775 0.950 . S
C787 C783 1.393 . S
C787 C786 1.391 . S
H788 C796 0.950 . S
H789 C801 0.950 . S
H790 C798 0.950 . S
H791 C800 0.950 . S
H792 C802 0.950 . S
H793 C804 0.950 . S
H794 C806 0.950 . S
H795 C807 0.950 . S
C796 H788 0.950 . S
C796 C797 1.386 . S
C796 C798 1.391 . S
C797 C796 1.386 . S
C797 C801 1.393 . S
C798 H790 0.950 . S
C798 C796 1.391 . S
C798 C799 1.400 . S
C799 C798 1.400 . S
C799 C800 1.398 . S
C799 C805 1.491 . S
C800 H791 0.950 . S
C800 C799 1.398 . S
C800 C801 1.391 . S
C801 H789 0.950 . S
C801 C797 1.393 . S
C801 C800 1.391 . S
C802 H792 0.950 . S
C802 C803 1.386 . S
C802 C804 1.391 . S
C803 C802 1.386 . S
C803 C807 1.393 . S
C804 H793 0.950 . S
C804 C802 1.391 . S
C804 C805 1.400 . S
C805 C799 1.491 . S
C805 C804 1.400 . S
C805 C806 1.398 . S
C806 H794 0.950 . S
C806 C805 1.398 . S
C806 C807 1.391 . S
C807 H795 0.950 . S
C807 C803 1.393 . S
C807 C806 1.391 . S
H808 C816 0.950 . S
H809 C821 0.950 . S
H810 C818 0.950 . S
H811 C820 0.950 . S
H812 C822 0.950 . S
H813 C824 0.950 . S
H814 C826 0.950 . S
H815 C827 0.950 . S
C816 H808 0.950 . S
C816 C817 1.386 . S
C816 C818 1.391 . S
C817 C816 1.386 . S
C817 C821 1.393 . S
C818 H810 0.950 . S
C818 C816 1.391 . S
C818 C819 1.400 . S
C819 C818 1.400 . S
C819 C820 1.398 . S
C819 C825 1.491 . S
C820 H811 0.950 . S
C820 C819 1.398 . S
C820 C821 1.391 . S
C821 H809 0.950 . S
C821 C817 1.393 . S
C821 C820 1.391 . S
C822 H812 0.950 . S
C822 C823 1.386 . S
C822 C824 1.391 . S
C823 C822 1.386 . S
C823 C827 1.393 . S
C824 H813 0.950 . S
C824 C822 1.391 . S
C824 C825 1.400 . S
C825 C819 1.491 . S
C825 C824 1.400 . S
C825 C826 1.398 . S
C826 H814 0.950 . S
C826 C825 1.398 . S
C826 C827 1.391 . S
C827 H815 0.950 . S
C827 C823 1.393 . S
C827 C826 1.391 . S
H828 C836 0.967 . S
H829 C841 0.950 . S
H830 C838 0.949 1_565 S
H831 C840 0.950 . S
H832 C842 0.950 . S
H833 C844 0.950 1_545 S
H834 C846 0.950 . S
H835 C847 0.950 . S
C836 H828 0.967 . S
C836 C837 1.361 1_556 S
C836 C838 1.401 . S
C837 C836 1.361 1_554 S
C837 C841 1.393 . S
C838 H830 0.949 1_545 S
C838 C836 1.401 . S
C838 C839 1.400 1_556 S
C839 C838 1.400 1_554 S
C839 C840 1.398 . S
C839 C845 1.491 1_544 S
C840 H831 0.950 . S
C840 C839 1.398 . S
C840 C841 1.391 . S
C841 H829 0.950 . S
C841 C837 1.393 . S
C841 C840 1.391 . S
C842 H832 0.950 . S
C842 C843 1.386 1_554 S
C842 C844 1.391 . S
C843 C842 1.386 1_556 S
C843 C847 1.393 . S
C844 H833 0.950 1_565 S
C844 C842 1.391 . S
C844 C845 1.400 1_554 S
C845 C839 1.491 1_566 S
C845 C844 1.400 1_556 S
C845 C846 1.398 . S
C846 H834 0.950 . S
C846 C845 1.398 . S
C846 C847 1.391 . S
C847 H835 0.950 . S
C847 C843 1.393 . S
C847 C846 1.391 . S
H848 C856 0.950 . S
H849 C861 0.950 . S
H850 C858 0.950 . S
H851 C860 0.950 . S
H852 C862 0.950 . S
H853 C864 0.950 . S
H854 C866 0.950 . S
H855 C867 0.950 . S
C856 H848 0.950 . S
C856 C857 1.386 . S
C856 C858 1.391 . S
C857 C856 1.386 . S
C857 C861 1.393 . S
C858 H850 0.950 . S
C858 C856 1.391 . S
C858 C859 1.400 . S
C859 C858 1.400 . S
C859 C860 1.398 . S
C859 C865 1.491 . S
C860 H851 0.950 . S
C860 C859 1.398 . S
C860 C861 1.391 . S
C861 H849 0.950 . S
C861 C857 1.393 . S
C861 C860 1.391 . S
C862 H852 0.950 . S
C862 C863 1.386 . S
C862 C864 1.391 . S
C863 C862 1.386 . S
C863 C867 1.393 . S
C864 H853 0.950 . S
C864 C862 1.391 . S
C864 C865 1.400 . S
C865 C859 1.491 . S
C865 C864 1.400 . S
C865 C866 1.398 . S
C866 H854 0.950 . S
C866 C865 1.398 . S
C866 C867 1.391 . S
C867 H855 0.950 . S
C867 C863 1.393 . S
C867 C866 1.391 . S
H868 C876 0.950 . S
H869 C881 0.950 . S
H870 C878 0.950 . S
H871 C880 0.950 . S
H872 C882 0.950 . S
H873 C884 0.950 . S
H874 C886 0.950 . S
H875 C887 0.950 . S
C876 H868 0.950 . S
C876 C877 1.386 . S
C876 C878 1.391 . S
C877 C876 1.386 . S
C877 C881 1.393 1_556 S
C878 H870 0.950 . S
C878 C876 1.391 . S
C878 C879 1.400 . S
C879 C878 1.400 . S
C879 C880 1.398 1_556 S
C879 C885 1.491 1_456 S
C880 H871 0.950 . S
C880 C879 1.398 1_554 S
C880 C881 1.391 . S
C881 H869 0.950 . S
C881 C877 1.393 1_554 S
C881 C880 1.391 . S
C882 H872 0.950 . S
C882 C883 1.386 . S
C882 C884 1.391 . S
C883 C882 1.386 . S
C883 C887 1.393 1_554 S
C884 H873 0.950 . S
C884 C882 1.391 . S
C884 C885 1.400 . S
C885 C879 1.491 1_654 S
C885 C884 1.400 . S
C885 C886 1.398 1_554 S
C886 H874 0.950 . S
C886 C885 1.398 1_556 S
C886 C887 1.391 . S
C887 H875 0.950 . S
C887 C883 1.393 1_556 S
C887 C886 1.391 . S
H888 C896 0.950 . S
H889 C901 0.950 . S
H890 C898 0.950 1_565 S
H891 C900 0.950 . S
H892 C902 0.950 . S
H893 C904 0.950 . S
H894 C906 0.950 . S
H895 C907 0.950 . S
C896 H888 0.950 . S
C896 C897 1.386 . S
C896 C898 1.391 . S
C897 C896 1.386 . S
C897 C901 1.393 . S
C898 H890 0.950 1_545 S
C898 C896 1.391 . S
C898 C899 1.400 . S
C899 C898 1.400 . S
C899 C900 1.398 . S
C899 C905 1.491 1_545 S
C900 H891 0.950 . S
C900 C899 1.398 . S
C900 C901 1.391 . S
C901 H889 0.950 . S
C901 C897 1.393 . S
C901 C900 1.391 . S
C902 H892 0.950 . S
C902 C903 1.386 . S
C902 C904 1.391 . S
C903 C902 1.386 . S
C903 C907 1.393 . S
C904 H893 0.950 . S
C904 C902 1.391 . S
C904 C905 1.400 . S
C905 C899 1.491 1_565 S
C905 C904 1.400 . S
C905 C906 1.398 . S
C906 H894 0.950 . S
C906 C905 1.398 . S
C906 C907 1.391 . S
C907 H895 0.950 . S
C907 C903 1.393 . S
C907 C906 1.391 . S
H908 C916 0.950 . S
H909 C921 0.950 . S
H910 C918 0.950 . S
H911 C920 0.950 . S
H912 C922 0.950 . S
H913 C924 0.950 . S
H914 C926 0.950 . S
H915 C927 0.950 . S
C916 H908 0.950 . S
C916 C917 1.386 . S
C916 C918 1.391 . S
C917 C916 1.386 . S
C917 C921 1.393 1_556 S
C918 H910 0.950 . S
C918 C916 1.391 . S
C918 C919 1.400 . S
C919 C918 1.400 . S
C919 C920 1.398 1_556 S
C919 C925 1.491 1_556 S
C920 H911 0.950 . S
C920 C919 1.398 1_554 S
C920 C921 1.391 . S
C921 H909 0.950 . S
C921 C917 1.393 1_554 S
C921 C920 1.391 . S
C922 H912 0.950 . S
C922 C923 1.386 . S
C922 C924 1.391 . S
C923 C922 1.386 . S
C923 C927 1.393 1_554 S
C924 H913 0.950 . S
C924 C922 1.391 . S
C924 C925 1.400 . S
C925 C919 1.491 1_554 S
C925 C924 1.400 . S
C925 C926 1.398 1_554 S
C926 H914 0.950 . S
C926 C925 1.398 1_556 S
C926 C927 1.391 . S
C927 H915 0.950 . S
C927 C923 1.393 1_556 S
C927 C926 1.391 . S
H928 C936 0.950 . S
H929 C941 0.950 . S
H930 C938 0.950 . S
H931 C940 0.950 . S
H932 C942 0.950 . S
H933 C944 0.950 . S
H934 C946 0.950 . S
H935 C947 0.950 . S
C936 H928 0.950 . S
C936 C937 1.386 . S
C936 C938 1.391 . S
C937 C936 1.386 . S
C937 C941 1.393 . S
C938 H930 0.950 . S
C938 C936 1.391 . S
C938 C939 1.400 . S
C939 C938 1.400 . S
C939 C940 1.398 . S
C939 C945 1.491 1_655 S
C940 H931 0.950 . S
C940 C939 1.398 . S
C940 C941 1.391 . S
C941 H929 0.950 . S
C941 C937 1.393 . S
C941 C940 1.391 . S
C942 H932 0.950 . S
C942 C943 1.386 . S
C942 C944 1.391 . S
C943 C942 1.386 . S
C943 C947 1.393 . S
C944 H933 0.950 . S
C944 C942 1.391 . S
C944 C945 1.400 . S
C945 C939 1.491 1_455 S
C945 C944 1.400 . S
C945 C946 1.398 . S
C946 H934 0.950 . S
C946 C945 1.398 . S
C946 C947 1.391 . S
C947 H935 0.950 . S
C947 C943 1.393 . S
C947 C946 1.391 . S
H948 C956 0.950 . S
H949 C961 0.950 . S
H950 C958 0.950 . S
H951 C960 0.950 . S
H952 C962 0.950 . S
H953 C964 0.950 . S
H954 C966 0.950 . S
H955 C967 0.950 . S
C956 H948 0.950 . S
C956 C957 1.386 . S
C956 C958 1.391 . S
C957 C956 1.386 . S
C957 C961 1.393 . S
C958 H950 0.950 . S
C958 C956 1.391 . S
C958 C959 1.400 . S
C959 C958 1.400 . S
C959 C960 1.398 . S
C959 C965 1.491 . S
C960 H951 0.950 . S
C960 C959 1.398 . S
C960 C961 1.391 . S
C961 H949 0.950 . S
C961 C957 1.393 . S
C961 C960 1.391 . S
C962 H952 0.950 . S
C962 C963 1.386 . S
C962 C964 1.391 . S
C963 C962 1.386 . S
C963 C967 1.393 . S
C964 H953 0.950 . S
C964 C962 1.391 . S
C964 C965 1.400 . S
C965 C959 1.491 . S
C965 C964 1.400 . S
C965 C966 1.398 . S
C966 H954 0.950 . S
C966 C965 1.398 . S
C966 C967 1.391 . S
C967 H955 0.950 . S
C967 C963 1.393 . S
C967 C966 1.391 . S
H968 C976 0.950 . S
H969 C981 0.950 . S
H970 C978 0.950 . S
H971 C980 0.950 . S
H972 C982 0.950 . S
H973 C984 0.950 . S
H974 C986 0.950 . S
H975 C987 0.950 . S
C976 H968 0.950 . S
C976 C977 1.386 . S
C976 C978 1.391 . S
C977 C976 1.386 . S
C977 C981 1.393 . S
C978 H970 0.950 . S
C978 C976 1.391 . S
C978 C979 1.400 . S
C979 C978 1.400 . S
C979 C980 1.398 . S
C979 C985 1.491 . S
C980 H971 0.950 . S
C980 C979 1.398 . S
C980 C981 1.391 . S
C981 H969 0.950 . S
C981 C977 1.393 . S
C981 C980 1.391 . S
C982 H972 0.950 . S
C982 C983 1.386 . S
C982 C984 1.391 . S
C983 C982 1.386 . S
C983 C987 1.393 . S
C984 H973 0.950 . S
C984 C982 1.391 . S
C984 C985 1.400 . S
C985 C979 1.491 . S
C985 C984 1.400 . S
C985 C986 1.398 . S
C986 H974 0.950 . S
C986 C985 1.398 . S
C986 C987 1.391 . S
C987 H975 0.950 . S
C987 C983 1.393 . S
C987 C986 1.391 . S
H988 C996 0.950 . S
H989 C1001 0.950 . S
H990 C998 0.950 . S
H991 C1000 0.950 . S
H992 C1002 0.950 . S
H993 C1004 0.950 . S
H994 C1006 0.950 . S
H995 C1007 0.950 . S
C996 H988 0.950 . S
C996 C997 1.386 . S
C996 C998 1.391 . S
C997 C996 1.386 . S
C997 C1001 1.393 . S
C998 H990 0.950 . S
C998 C996 1.391 . S
C998 C999 1.400 . S
C999 C998 1.400 . S
C999 C1000 1.398 . S
C999 C1005 1.491 . S
C1000 H991 0.950 . S
C1000 C999 1.398 . S
C1000 C1001 1.391 . S
C1001 H989 0.950 . S
C1001 C997 1.393 . S
C1001 C1000 1.391 . S
C1002 H992 0.950 . S
C1002 C1003 1.386 . S
C1002 C1004 1.391 . S
C1003 C1002 1.386 . S
C1003 C1007 1.393 . S
C1004 H993 0.950 . S
C1004 C1002 1.391 . S
C1004 C1005 1.400 . S
C1005 C999 1.491 . S
C1005 C1004 1.400 . S
C1005 C1006 1.398 . S
C1006 H994 0.950 . S
C1006 C1005 1.398 . S
C1006 C1007 1.391 . S
C1007 H995 0.950 . S
C1007 C1003 1.393 . S
C1007 C1006 1.391 . S
H1008 C1016 0.950 . S
H1009 C1021 0.950 . S
H1010 C1018 0.950 . S
H1011 C1020 0.950 . S
H1012 C1022 0.950 . S
H1013 C1024 0.950 . S
H1014 C1026 0.950 . S
H1015 C1027 0.950 . S
C1016 H1008 0.950 . S
C1016 C1017 1.386 . S
C1016 C1018 1.391 . S
C1017 C1016 1.386 . S
C1017 C1021 1.393 . S
C1018 H1010 0.950 . S
C1018 C1016 1.391 . S
C1018 C1019 1.400 . S
C1019 C1018 1.400 . S
C1019 C1020 1.398 . S
C1019 C1025 1.491 . S
C1020 H1011 0.950 . S
C1020 C1019 1.398 . S
C1020 C1021 1.391 . S
C1021 H1009 0.950 . S
C1021 C1017 1.393 . S
C1021 C1020 1.391 . S
C1022 H1012 0.950 . S
C1022 C1023 1.386 . S
C1022 C1024 1.391 . S
C1023 C1022 1.386 . S
C1023 C1027 1.393 . S
C1024 H1013 0.950 . S
C1024 C1022 1.391 . S
C1024 C1025 1.400 . S
C1025 C1019 1.491 . S
C1025 C1024 1.400 . S
C1025 C1026 1.398 . S
C1026 H1014 0.950 . S
C1026 C1025 1.398 . S
C1026 C1027 1.391 . S
C1027 H1015 0.950 . S
C1027 C1023 1.393 . S
C1027 C1026 1.391 . S
H1028 C1036 0.950 . S
H1029 C1041 0.950 . S
H1030 C1038 0.950 1_556 S
H1031 C1040 0.950 . S
H1032 C1042 0.950 . S
H1033 C1044 0.950 . S
H1034 C1046 0.950 1_556 S
H1035 C1047 0.950 . S
C1036 H1028 0.950 . S
C1036 C1037 1.386 1_556 S
C1036 C1038 1.391 1_556 S
C1037 C1036 1.386 1_554 S
C1037 C1041 1.393 . S
C1038 H1030 0.950 1_554 S
C1038 C1036 1.391 1_554 S
C1038 C1039 1.400 . S
C1039 C1038 1.400 . S
C1039 C1040 1.398 . S
C1039 C1045 1.491 . S
C1040 H1031 0.950 . S
C1040 C1039 1.398 . S
C1040 C1041 1.391 . S
C1041 H1029 0.950 . S
C1041 C1037 1.393 . S
C1041 C1040 1.391 . S
C1042 H1032 0.950 . S
C1042 C1043 1.386 . S
C1042 C1044 1.391 . S
C1043 C1042 1.386 . S
C1043 C1047 1.393 . S
C1044 H1033 0.950 . S
C1044 C1042 1.391 . S
C1044 C1045 1.400 . S
C1045 C1039 1.491 . S
C1045 C1044 1.400 . S
C1045 C1046 1.398 . S
C1046 H1034 0.950 1_554 S
C1046 C1045 1.398 . S
C1046 C1047 1.391 . S
C1047 H1035 0.950 . S
C1047 C1043 1.393 . S
C1047 C1046 1.391 . S
H1048 C1056 0.950 . S
H1049 C1061 0.950 . S
H1050 C1058 0.950 . S
H1051 C1060 0.950 . S
H1052 C1062 0.950 . S
H1053 C1064 0.950 . S
H1054 C1066 0.950 . S
H1055 C1067 0.950 . S
C1056 H1048 0.950 . S
C1056 C1057 1.386 . S
C1056 C1058 1.391 . S
C1057 C1056 1.386 . S
C1057 C1061 1.393 . S
C1058 H1050 0.950 . S
C1058 C1056 1.391 . S
C1058 C1059 1.400 . S
C1059 C1058 1.400 . S
C1059 C1060 1.398 . S
C1059 C1065 1.491 . S
C1060 H1051 0.950 . S
C1060 C1059 1.398 . S
C1060 C1061 1.391 . S
C1061 H1049 0.950 . S
C1061 C1057 1.393 . S
C1061 C1060 1.391 . S
C1062 H1052 0.950 . S
C1062 C1063 1.386 . S
C1062 C1064 1.391 . S
C1063 C1062 1.386 . S
C1063 C1067 1.393 . S
C1064 H1053 0.950 . S
C1064 C1062 1.391 . S
C1064 C1065 1.400 . S
C1065 C1059 1.491 . S
C1065 C1064 1.400 . S
C1065 C1066 1.398 . S
C1066 H1054 0.950 . S
C1066 C1065 1.398 . S
C1066 C1067 1.391 . S
C1067 H1055 0.950 . S
C1067 C1063 1.393 . S
C1067 C1066 1.391 . S
H1068 C1076 0.950 . S
H1069 C1081 0.950 . S
H1070 C1078 0.950 . S
H1071 C1080 0.950 . S
H1072 C1082 0.950 . S
H1073 C1084 0.950 . S
H1074 C1086 0.950 . S
H1075 C1087 0.950 . S
C1076 H1068 0.950 . S
C1076 C1077 1.386 . S
C1076 C1078 1.391 . S
C1077 C1076 1.386 . S
C1077 C1081 1.393 . S
C1078 H1070 0.950 . S
C1078 C1076 1.391 . S
C1078 C1079 1.400 . S
C1079 C1078 1.400 . S
C1079 C1080 1.398 . S
C1079 C1085 1.491 . S
C1080 H1071 0.950 . S
C1080 C1079 1.398 . S
C1080 C1081 1.391 . S
C1081 H1069 0.950 . S
C1081 C1077 1.393 . S
C1081 C1080 1.391 . S
C1082 H1072 0.950 . S
C1082 C1083 1.386 . S
C1082 C1084 1.391 . S
C1083 C1082 1.386 . S
C1083 C1087 1.393 . S
C1084 H1073 0.950 . S
C1084 C1082 1.391 . S
C1084 C1085 1.400 . S
C1085 C1079 1.491 . S
C1085 C1084 1.400 . S
C1085 C1086 1.398 . S
C1086 H1074 0.950 . S
C1086 C1085 1.398 . S
C1086 C1087 1.391 . S
C1087 H1075 0.950 . S
C1087 C1083 1.393 . S
C1087 C1086 1.391 . S
H1088 C1096 0.950 . S
H1089 C1101 0.950 . S
H1090 C1098 0.950 . S
H1091 C1100 0.950 . S
H1092 C1102 0.950 . S
H1093 C1104 0.950 . S
H1094 C1106 0.950 . S
H1095 C1107 0.950 . S
C1096 H1088 0.950 . S
C1096 C1097 1.386 . S
C1096 C1098 1.391 . S
C1097 C1096 1.386 . S
C1097 C1101 1.393 . S
C1098 H1090 0.950 . S
C1098 C1096 1.391 . S
C1098 C1099 1.400 . S
C1099 C1098 1.400 . S
C1099 C1100 1.398 . S
C1099 C1105 1.491 . S
C1100 H1091 0.950 . S
C1100 C1099 1.398 . S
C1100 C1101 1.391 . S
C1101 H1089 0.950 . S
C1101 C1097 1.393 . S
C1101 C1100 1.391 . S
C1102 H1092 0.950 . S
C1102 C1103 1.386 . S
C1102 C1104 1.391 . S
C1103 C1102 1.386 . S
C1103 C1107 1.393 . S
C1104 H1093 0.950 . S
C1104 C1102 1.391 . S
C1104 C1105 1.400 . S
C1105 C1099 1.491 . S
C1105 C1104 1.400 . S
C1105 C1106 1.398 . S
C1106 H1094 0.950 . S
C1106 C1105 1.398 . S
C1106 C1107 1.391 . S
C1107 H1095 0.950 . S
C1107 C1103 1.393 . S
C1107 C1106 1.391 . S
H1108 C1116 0.950 . S
H1109 C1121 0.950 . S
H1110 C1118 0.950 . S
H1111 C1120 0.950 . S
H1112 C1122 0.950 . S
H1113 C1124 0.950 . S
H1114 C1126 0.950 . S
H1115 C1127 0.950 . S
C1116 H1108 0.950 . S
C1116 C1117 1.386 . S
C1116 C1118 1.391 . S
C1117 C1116 1.386 . S
C1117 C1121 1.393 . S
C1118 H1110 0.950 . S
C1118 C1116 1.391 . S
C1118 C1119 1.400 . S
C1119 C1118 1.400 . S
C1119 C1120 1.398 . S
C1119 C1125 1.491 . S
C1120 H1111 0.950 . S
C1120 C1119 1.398 . S
C1120 C1121 1.391 . S
C1121 H1109 0.950 . S
C1121 C1117 1.393 . S
C1121 C1120 1.391 . S
C1122 H1112 0.950 . S
C1122 C1123 1.386 . S
C1122 C1124 1.391 . S
C1123 C1122 1.386 . S
C1123 C1127 1.393 . S
C1124 H1113 0.950 . S
C1124 C1122 1.391 . S
C1124 C1125 1.400 . S
C1125 C1119 1.491 . S
C1125 C1124 1.400 . S
C1125 C1126 1.398 . S
C1126 H1114 0.950 . S
C1126 C1125 1.398 . S
C1126 C1127 1.391 . S
C1127 H1115 0.950 . S
C1127 C1123 1.393 . S
C1127 C1126 1.391 . S
H1128 C1136 0.980 . S
H1129 C1141 0.950 . S
H1130 C1138 0.950 1_554 S
H1131 C1140 0.950 . S
H1132 C1142 0.950 . S
H1133 C1144 0.950 . S
H1134 C1146 0.950 1_554 S
H1135 C1147 0.950 . S
C1136 H1128 0.980 . S
C1136 C1137 1.362 1_554 S
C1136 C1138 1.385 1_554 S
C1137 C1136 1.362 1_556 S
C1137 C1141 1.393 . S
C1138 H1130 0.950 1_556 S
C1138 C1136 1.385 1_556 S
C1138 C1139 1.400 . S
C1139 C1138 1.400 . S
C1139 C1140 1.398 . S
C1139 C1145 1.491 . S
C1140 H1131 0.950 . S
C1140 C1139 1.398 . S
C1140 C1141 1.391 . S
C1141 H1129 0.950 . S
C1141 C1137 1.393 . S
C1141 C1140 1.391 . S
C1142 H1132 0.950 . S
C1142 C1143 1.386 . S
C1142 C1144 1.391 . S
C1143 C1142 1.386 . S
C1143 C1147 1.393 . S
C1144 H1133 0.950 . S
C1144 C1142 1.391 . S
C1144 C1145 1.400 . S
C1145 C1139 1.491 . S
C1145 C1144 1.400 . S
C1145 C1146 1.398 . S
C1146 H1134 0.950 1_556 S
C1146 C1145 1.398 . S
C1146 C1147 1.391 . S
C1147 H1135 0.950 . S
C1147 C1143 1.393 . S
C1147 C1146 1.391 . S
H1148 C1156 0.950 . S
H1149 C1161 0.950 . S
H1150 C1158 0.950 . S
H1151 C1160 0.950 . S
H1152 C1162 0.950 . S
H1153 C1164 0.950 . S
H1154 C1166 0.950 . S
H1155 C1167 0.950 . S
C1156 H1148 0.950 . S
C1156 C1157 1.386 . S
C1156 C1158 1.391 . S
C1157 C1156 1.386 . S
C1157 C1161 1.393 . S
C1158 H1150 0.950 . S
C1158 C1156 1.391 . S
C1158 C1159 1.400 . S
C1159 C1158 1.400 . S
C1159 C1160 1.398 . S
C1159 C1165 1.491 . S
C1160 H1151 0.950 . S
C1160 C1159 1.398 . S
C1160 C1161 1.391 . S
C1161 H1149 0.950 . S
C1161 C1157 1.393 . S
C1161 C1160 1.391 . S
C1162 H1152 0.950 . S
C1162 C1163 1.386 . S
C1162 C1164 1.391 . S
C1163 C1162 1.386 . S
C1163 C1167 1.393 . S
C1164 H1153 0.950 . S
C1164 C1162 1.391 . S
C1164 C1165 1.400 . S
C1165 C1159 1.491 . S
C1165 C1164 1.400 . S
C1165 C1166 1.398 . S
C1166 H1154 0.950 . S
C1166 C1165 1.398 . S
C1166 C1167 1.391 . S
C1167 H1155 0.950 . S
C1167 C1163 1.393 . S
C1167 C1166 1.391 . S
H1168 C1176 0.950 . S
H1169 C1181 0.950 1_554 S
H1170 C1178 0.950 . S
H1171 C1180 0.924 1_554 S
H1172 C1182 0.950 . S
H1173 C1184 0.950 . S
H1174 C1186 0.950 . S
H1175 C1187 0.950 . S
C1176 H1168 0.950 . S
C1176 C1177 1.386 . S
C1176 C1178 1.391 . S
C1177 C1176 1.386 . S
C1177 C1181 1.393 . S
C1178 H1170 0.950 . S
C1178 C1176 1.391 . S
C1178 C1179 1.400 . S
C1179 C1178 1.400 . S
C1179 C1180 1.398 . S
C1179 C1185 1.491 . S
C1180 H1171 0.924 1_556 S
C1180 C1179 1.398 . S
C1180 C1181 1.391 . S
C1181 H1169 0.950 1_556 S
C1181 C1177 1.393 . S
C1181 C1180 1.391 . S
C1182 H1172 0.950 . S
C1182 C1183 1.386 . S
C1182 C1184 1.391 . S
C1183 C1182 1.386 . S
C1183 C1187 1.393 . S
C1184 H1173 0.950 . S
C1184 C1182 1.391 . S
C1184 C1185 1.400 . S
C1185 C1179 1.491 . S
C1185 C1184 1.400 . S
C1185 C1186 1.398 . S
C1186 H1174 0.950 . S
C1186 C1185 1.398 . S
C1186 C1187 1.391 . S
C1187 H1175 0.950 . S
C1187 C1183 1.393 . S
C1187 C1186 1.391 . S
C717 C593 1.682 . S
C723 C3 1.652 . S
C737 C62 1.680 . S
C743 C654 1.666 . S
C757 C123 1.698 . S
C763 C357 1.695 . S
C777 C416 1.681 . S
C783 C180 1.667 . S
C797 C477 1.672 . S
C803 C239 1.670 . S
C817 C300 1.708 . S
C823 C534 1.695 . S
C837 C5 1.265 . S
C843 C418 1.229 . S
C857 C64 1.215 . S
C863 C475 1.251 . S
C877 C536 1.032 . S
C883 C121 1.028 . S
C897 C595 1.217 . S
C903 C182 1.260 . S
C917 C652 1.251 . S
C923 C241 1.212 . S
C937 C359 1.023 . S
C943 C298 1.033 . S
C957 C33 1.394 . S
C963 C288 1.459 . S
C977 C92 1.180 . S
C983 C328 1.344 . S
C997 C170 0.905 . S
C1003 C52 0.957 . S
C1017 C210 1.365 . S
C1023 C111 1.450 . S
C1037 C269 1.185 . S
C1043 C151 1.344 . S
C1057 C347 0.950 . S
C1063 C229 0.955 . S
C1077 C387 0.937 . S
C1083 C505 0.944 . S
C1097 C446 1.157 . S
C1103 C583 1.342 . S
C1117 C642 1.455 . S
C1123 C524 1.393 . S
C1137 C564 0.930 . S
C1143 C682 0.944 . S
C1157 C623 1.151 . S
C1163 C406 1.341 . S
C1177 C701 1.382 . S
C1183 C465 1.451 . S
