# Generated by pormake.
# Topology fnd, (5)-cn, num edge types: 1
# Building blocks:
#     Node 0, Type 0, BuildingBlock: BEQFEK_clean_sbu_0, # of connection points: 5
#     Node 1, Type 0, BuildingBlock: BEQFEK_clean_sbu_0, # of connection points: 5
#     Node 2, Type 0, BuildingBlock: BEQFEK_clean_sbu_0, # of connection points: 5
#     Node 3, Type 0, BuildingBlock: BEQFEK_clean_sbu_0, # of connection points: 5
#     Node 4, Type 0, BuildingBlock: BEQFEK_clean_sbu_0, # of connection points: 5
#     Node 5, Type 0, BuildingBlock: BEQFEK_clean_sbu_0, # of connection points: 5
#     Node 6, Type 0, BuildingBlock: BEQFEK_clean_sbu_0, # of connection points: 5
#     Node 7, Type 0, BuildingBlock: BEQFEK_clean_sbu_0, # of connection points: 5
#     Node 8, Type 0, BuildingBlock: BEQFEK_clean_sbu_0, # of connection points: 5
#     Node 9, Type 0, BuildingBlock: BEQFEK_clean_sbu_0, # of connection points: 5
#     Node 10, Type 0, BuildingBlock: BEQFEK_clean_sbu_0, # of connection points: 5
#     Node 11, Type 0, BuildingBlock: BEQFEK_clean_sbu_0, # of connection points: 5
#     Node 12, Type 0, BuildingBlock: BEQFEK_clean_sbu_0, # of connection points: 5
#     Node 13, Type 0, BuildingBlock: BEQFEK_clean_sbu_0, # of connection points: 5
#     Node 14, Type 0, BuildingBlock: BEQFEK_clean_sbu_0, # of connection points: 5
#     Node 15, Type 0, BuildingBlock: BEQFEK_clean_sbu_0, # of connection points: 5
#     Node 16, Type 0, BuildingBlock: BEQFEK_clean_sbu_0, # of connection points: 5
#     Node 17, Type 0, BuildingBlock: BEQFEK_clean_sbu_0, # of connection points: 5
#     Edge 18, Type (0, 0), None
#     Edge 19, Type (0, 0), None
#     Edge 20, Type (0, 0), None
#     Edge 21, Type (0, 0), None
#     Edge 22, Type (0, 0), None
#     Edge 23, Type (0, 0), None
#     Edge 24, Type (0, 0), None
#     Edge 25, Type (0, 0), None
#     Edge 26, Type (0, 0), None
#     Edge 27, Type (0, 0), None
#     Edge 28, Type (0, 0), None
#     Edge 29, Type (0, 0), None
#     Edge 30, Type (0, 0), None
#     Edge 31, Type (0, 0), None
#     Edge 32, Type (0, 0), None
#     Edge 33, Type (0, 0), None
#     Edge 34, Type (0, 0), None
#     Edge 35, Type (0, 0), None
#     Edge 36, Type (0, 0), None
#     Edge 37, Type (0, 0), None
#     Edge 38, Type (0, 0), None
#     Edge 39, Type (0, 0), None
#     Edge 40, Type (0, 0), None
#     Edge 41, Type (0, 0), None
#     Edge 42, Type (0, 0), None
#     Edge 43, Type (0, 0), None
#     Edge 44, Type (0, 0), None
#     Edge 45, Type (0, 0), None
#     Edge 46, Type (0, 0), None
#     Edge 47, Type (0, 0), None
#     Edge 48, Type (0, 0), None
#     Edge 49, Type (0, 0), None
#     Edge 50, Type (0, 0), None
#     Edge 51, Type (0, 0), None
#     Edge 52, Type (0, 0), None
#     Edge 53, Type (0, 0), None
#     Edge 54, Type (0, 0), None
#     Edge 55, Type (0, 0), None
#     Edge 56, Type (0, 0), None
#     Edge 57, Type (0, 0), None
#     Edge 58, Type (0, 0), None
#     Edge 59, Type (0, 0), None
#     Edge 60, Type (0, 0), None
#     Edge 61, Type (0, 0), None
#     Edge 62, Type (0, 0), None
# Relax obj value: 0.148
# Max RMSD: 0.201
# Mean RMSD: 0.200
data_MOF--net-fnd--node1-BEQFEK_clean_sbu_0--edge1-none
_symmetry_space_group_name_H-M    P1
_symmetry_Int_Tables_number       1
_symmetry_cell_setting            triclinic
loop_
_symmetry_equiv_pos_as_xyz
'x, y, z'
_cell_length_a     37.740902
_cell_length_b     37.740848
_cell_length_c     11.148354
_cell_angle_alpha  89.99773
_cell_angle_beta   90.003961
_cell_angle_gamma 119.9918
loop_
_atom_site_label
_atom_site_type_symbol
_atom_site_fract_x
_atom_site_fract_y
_atom_site_fract_z
_atom_type_partial_charge
Co0 Co 0.10259 0.21217 0.58868 0.0
Co1 Co 0.09421 0.18924 0.3198 0.0
C2 C 0.13668 0.15947 0.48079 0.0
O3 O 0.13032 0.1781 0.5666 0.0
O4 O 0.12456 0.16025 0.37368 0.0
C5 C 0.1025 0.20114 0.83297 0.0
O6 O 0.10107 0.16775 0.793 0.0
C7 C 0.10162 0.18738 0.05798 0.0
C8 C 0.06587 0.21599 -0.0004 0.0
C9 C 0.09146 0.20235 0.95828 0.0
N10 N 0.08388 0.19259 0.15435 0.0
N11 N 0.06213 0.2094 0.11894 0.0
C12 C 0.13198 0.17382 0.06535 0.0
H13 H 0.14832 0.18254 0.15239 0.0
H14 H 0.15403 0.18798 0.99072 0.0
H15 H 0.11514 0.14001 0.06086 0.0
C16 C 0.13639 0.29683 0.46764 0.0
N17 N 0.12204 0.25602 0.47119 0.0
N18 N 0.12522 0.24444 0.3629 0.0
C19 C 0.14505 0.27715 0.29045 0.0
C20 C 0.15139 0.31165 0.35131 0.0
C21 C 0.1331 0.32002 0.57165 0.0
H22 H 0.10413 0.30049 0.62074 0.0
H23 H 0.15855 0.32753 0.63508 0.0
H24 H 0.13406 0.34852 0.54161 0.0
O25 O 0.04346 0.17656 0.57762 0.0
O26 O 0.03745 0.1617 0.3848 0.0
H27 H 0.14595 0.27159 0.09918 0.0
H28 H 0.19481 0.30623 0.16362 0.0
C29 C 0.16606 0.27672 0.17696 0.0
H30 H 0.17373 0.25202 0.18055 0.0
H31 H 0.04617 0.2181 0.17717 0.0
O32 O 0.10733 0.22899 0.75912 0.0
C33 C 0.02157 0.15869 0.48728 0.0
Co34 Co 0.78681 0.89054 0.5887 0.0
Co35 Co 0.80972 0.90507 0.31983 0.0
C36 C 0.83951 0.97732 0.48079 0.0
O37 O 0.82088 0.95233 0.5666 0.0
O38 O 0.83872 0.96441 0.37368 0.0
C39 C 0.79782 0.90151 0.83302 0.0
O40 O 0.83118 0.9335 0.79309 0.0
C41 C 0.81157 0.91438 0.05804 0.0
C42 C 0.78302 0.85002 -0.0004 0.0
C43 C 0.79662 0.88926 0.95832 0.0
N44 N 0.80638 0.89141 0.15438 0.0
N45 N 0.78961 0.85286 0.11894 0.0
C46 C 0.82508 0.95828 0.06547 0.0
H47 H 0.81633 0.96586 0.1525 0.0
H48 H 0.81092 0.96616 0.99084 0.0
H49 H 0.85889 0.97527 0.06107 0.0
C50 C 0.70214 0.83967 0.46769 0.0
N51 N 0.74295 0.86614 0.47123 0.0
N52 N 0.75452 0.8809 0.36293 0.0
C53 C 0.72181 0.868 0.29049 0.0
C54 C 0.68732 0.83985 0.35136 0.0
C55 C 0.67898 0.8132 0.57172 0.0
H56 H 0.69852 0.80376 0.62082 0.0
H57 H 0.67145 0.83112 0.63513 0.0
H58 H 0.65048 0.78565 0.54169 0.0
O59 O 0.82242 0.86701 0.57765 0.0
O60 O 0.83726 0.87585 0.38483 0.0
H61 H 0.72738 0.87446 0.09922 0.0
H62 H 0.69268 0.88863 0.16361 0.0
C63 C 0.72222 0.88943 0.17698 0.0
H64 H 0.74689 0.9218 0.18057 0.0
H65 H 0.78094 0.82821 0.17714 0.0
O66 O 0.76999 0.87846 0.75914 0.0
C67 C 0.84028 0.86298 0.4873 0.0
Co68 Co 0.10845 0.89637 0.58873 0.0
Co69 Co 0.0939 0.90476 0.31985 0.0
C70 C 0.02166 0.86229 0.48082 0.0
O71 O 0.04665 0.86865 0.56663 0.0
O72 O 0.03457 0.87442 0.37371 0.0
C73 C 0.09749 0.89645 0.83303 0.0
O74 O 0.06553 0.89787 0.79305 0.0
C75 C 0.08461 0.89734 0.05803 0.0
C76 C 0.14898 0.9331 -0.00034 0.0
C77 C 0.10974 0.90749 0.95834 0.0
N78 N 0.10757 0.91509 0.15441 0.0
N79 N 0.14613 0.93684 0.119 0.0
C80 C 0.04071 0.86698 0.06541 0.0
H81 H 0.0331 0.85065 0.15246 0.0
H82 H 0.03283 0.84492 0.99082 0.0
H83 H 0.02372 0.88381 0.06087 0.0
C84 C 0.15932 0.86257 0.46769 0.0
N85 N 0.13285 0.87692 0.47124 0.0
N86 N 0.11808 0.87373 0.36295 0.0
C87 C 0.13097 0.85391 0.2905 0.0
C88 C 0.15912 0.84757 0.35135 0.0
C89 C 0.18579 0.86586 0.5717 0.0
H90 H 0.19523 0.89483 0.62081 0.0
H91 H 0.16786 0.84041 0.63512 0.0
H92 H 0.21333 0.8649 0.54165 0.0
O93 O 0.13196 0.9555 0.57767 0.0
O94 O 0.12312 0.96151 0.38485 0.0
H95 H 0.12449 0.85301 0.09923 0.0
H96 H 0.11031 0.80415 0.16365 0.0
C97 C 0.10952 0.83289 0.17701 0.0
H98 H 0.07716 0.82522 0.1806 0.0
H99 H 0.17077 0.9528 0.17722 0.0
O100 O 0.12053 0.89163 0.75918 0.0
C101 C 0.13598 0.9774 0.48733 0.0
Co102 Co 0.21176 0.10298 0.39897 0.0
Co103 Co 0.18882 0.0946 0.66784 0.0
C104 C 0.15906 0.13708 0.50685 0.0
O105 O 0.17769 0.13071 0.42104 0.0
O106 O 0.15984 0.12495 0.61396 0.0
C107 C 0.20071 0.10286 0.15469 0.0
O108 O 0.16732 0.1014 0.19467 0.0
C109 C 0.18694 0.10198 0.92969 0.0
C110 C 0.2156 0.06625 0.98802 0.0
C111 C 0.20193 0.09183 0.02937 0.0
N112 N 0.19217 0.08426 0.83329 0.0
N113 N 0.20901 0.06252 0.86868 0.0
C114 C 0.17336 0.13232 0.92236 0.0
H115 H 0.18205 0.14865 0.83531 0.0
H116 H 0.18754 0.15438 -0.00304 0.0
H117 H 0.13955 0.11547 0.92695 0.0
C118 C 0.29642 0.1368 0.52002 0.0
N119 N 0.2556 0.12243 0.51647 0.0
N120 N 0.24402 0.12561 0.62475 0.0
C121 C 0.27672 0.14545 0.69721 0.0
C122 C 0.31123 0.15181 0.63636 0.0
C123 C 0.31961 0.13353 0.41601 0.0
H124 H 0.3001 0.10455 0.36692 0.0
H125 H 0.32711 0.15897 0.35258 0.0
H126 H 0.34813 0.13451 0.44606 0.0
O127 O 0.17614 0.04385 0.41003 0.0
O128 O 0.16128 0.03784 0.60284 0.0
H129 H 0.27116 0.14634 0.88848 0.0
H130 H 0.30578 0.19521 0.82405 0.0
C131 C 0.27628 0.16645 0.8107 0.0
H132 H 0.25156 0.17409 0.80713 0.0
H133 H 0.21772 0.04658 0.81043 0.0
O134 O 0.22858 0.10771 0.22853 0.0
C135 C 0.15827 0.02196 0.50036 0.0
Co136 Co 0.89598 0.10886 0.39892 0.0
Co137 Co 0.90438 0.09432 0.6678 0.0
C138 C 0.8619 0.02208 0.50682 0.0
O139 O 0.86826 0.04707 0.42101 0.0
O140 O 0.87403 0.03499 0.61393 0.0
C141 C 0.89609 0.09793 0.15464 0.0
O142 O 0.89754 0.06598 0.19464 0.0
C143 C 0.89699 0.08504 0.92964 0.0
C144 C 0.93271 0.14941 0.98798 0.0
C145 C 0.90713 0.11017 0.02932 0.0
N146 N 0.91472 0.10799 0.83325 0.0
N147 N 0.93645 0.14656 0.86865 0.0
C148 C 0.86664 0.04113 0.92229 0.0
H149 H 0.85033 0.0335 0.83521 0.0
H150 H 0.84457 0.03326 -0.00316 0.0
H151 H 0.88348 0.02415 0.92697 0.0
C152 C 0.86216 0.15971 0.51998 0.0
N153 N 0.87653 0.13326 0.51642 0.0
N154 N 0.87336 0.1185 0.62471 0.0
C155 C 0.85352 0.13136 0.69717 0.0
C156 C 0.84715 0.15951 0.63632 0.0
C157 C 0.86543 0.18617 0.41597 0.0
H158 H 0.8944 0.19563 0.36687 0.0
H159 H 0.83998 0.16823 0.35255 0.0
H160 H 0.86444 0.21371 0.44602 0.0
O161 O 0.95512 0.13238 0.40998 0.0
O162 O 0.96113 0.12353 0.60279 0.0
H163 H 0.85262 0.1249 0.88844 0.0
H164 H 0.80376 0.11067 0.824 0.0
C165 C 0.83251 0.10991 0.81066 0.0
H166 H 0.82487 0.07756 0.80707 0.0
H167 H 0.95239 0.1712 0.8104 0.0
O168 O 0.89125 0.12095 0.22847 0.0
C169 C 0.97701 0.1364 0.50031 0.0
Co170 Co 0.89012 0.78721 0.39894 0.0
Co171 Co 0.90466 0.81014 0.66781 0.0
C172 C 0.9769 0.83991 0.50685 0.0
O173 O 0.95191 0.82129 0.42104 0.0
O174 O 0.96399 0.83913 0.61396 0.0
C175 C 0.90107 0.79824 0.15464 0.0
O176 O 0.93303 0.83162 0.19461 0.0
C177 C 0.91395 0.81201 0.92963 0.0
C178 C 0.84958 0.78341 0.98801 0.0
C179 C 0.88882 0.79704 0.02933 0.0
N180 N 0.89099 0.8068 0.83326 0.0
N181 N 0.85243 0.79 0.86867 0.0
C182 C 0.95785 0.82555 0.92226 0.0
H183 H 0.96546 0.81683 0.8352 0.0
H184 H 0.96573 0.81136 -0.00315 0.0
H185 H 0.97483 0.85936 0.92678 0.0
C186 C 0.83927 0.70255 0.51997 0.0
N187 N 0.86572 0.74336 0.51642 0.0
N188 N 0.88048 0.75494 0.62472 0.0
C189 C 0.86761 0.72223 0.69717 0.0
C190 C 0.83947 0.68774 0.6363 0.0
C191 C 0.8128 0.67937 0.41595 0.0
H192 H 0.80335 0.69889 0.36684 0.0
H193 H 0.83074 0.67186 0.35253 0.0
H194 H 0.78527 0.65086 0.44598 0.0
O195 O 0.86659 0.82283 0.40999 0.0
O196 O 0.87544 0.83768 0.60281 0.0
H197 H 0.87407 0.7278 0.88844 0.0
H198 H 0.88828 0.69314 0.82403 0.0
C199 C 0.88905 0.72266 0.81067 0.0
H200 H 0.92141 0.74735 0.80709 0.0
H201 H 0.82778 0.78131 0.81044 0.0
O202 O 0.87804 0.7704 0.22849 0.0
C203 C 0.86257 0.8407 0.50033 0.0
Co204 Co 0.76932 0.5455 0.92204 0.0
Co205 Co 0.76094 0.52259 0.65317 0.0
C206 C 0.80339 0.49279 0.81414 0.0
O207 O 0.79703 0.51141 0.89995 0.0
O208 O 0.79127 0.49358 0.70703 0.0
C209 C 0.76928 0.53449 0.16636 0.0
O210 O 0.7679 0.50112 0.12643 0.0
C211 C 0.76839 0.52074 0.39138 0.0
C212 C 0.73259 0.5493 0.33292 0.0
C213 C 0.75822 0.53569 0.29166 0.0
N214 N 0.75061 0.52593 0.48772 0.0
N215 N 0.72884 0.54271 0.45226 0.0
C216 C 0.79878 0.50722 0.39883 0.0
H217 H 0.81512 0.51598 0.48587 0.0
H218 H 0.82082 0.52138 0.3242 0.0
H219 H 0.78197 0.47341 0.39445 0.0
C220 C 0.80311 0.63017 0.80107 0.0
N221 N 0.78877 0.58936 0.80458 0.0
N222 N 0.79196 0.57779 0.69628 0.0
C223 C 0.81178 0.6105 0.62385 0.0
C224 C 0.81814 0.64499 0.68477 0.0
C225 C 0.79981 0.65334 0.9051 0.0
H226 H 0.77085 0.6338 0.9542 0.0
H227 H 0.82527 0.66087 0.96851 0.0
H228 H 0.80075 0.68183 0.87507 0.0
O229 O 0.71018 0.5099 0.91097 0.0
O230 O 0.70417 0.49506 0.71815 0.0
H231 H 0.81266 0.60493 0.43258 0.0
H232 H 0.86151 0.63962 0.49695 0.0
C233 C 0.83279 0.61009 0.51034 0.0
H234 H 0.8405 0.58542 0.51393 0.0
H235 H 0.71285 0.55138 0.51045 0.0
O236 O 0.77406 0.56232 0.09248 0.0
C237 C 0.68829 0.49204 0.82062 0.0
Co238 Co 0.45348 0.22393 0.92207 0.0
Co239 Co 0.47638 0.23845 0.6532 0.0
C240 C 0.50619 0.3107 0.81413 0.0
O241 O 0.48757 0.28572 0.89995 0.0
O242 O 0.50539 0.29779 0.70702 0.0
C243 C 0.46447 0.23494 0.16641 0.0
O244 O 0.49781 0.26695 0.12651 0.0
C245 C 0.47821 0.24778 0.39144 0.0
C246 C 0.44971 0.18344 0.33292 0.0
C247 C 0.46328 0.22268 0.2917 0.0
N248 N 0.47305 0.22481 0.48775 0.0
N249 N 0.4563 0.18627 0.45226 0.0
C250 C 0.49168 0.29167 0.39895 0.0
H251 H 0.48289 0.29922 0.48598 0.0
H252 H 0.47752 0.29957 0.32431 0.0
H253 H 0.52549 0.3087 0.39466 0.0
C254 C 0.36881 0.17306 0.80112 0.0
N255 N 0.40962 0.19953 0.80462 0.0
N256 N 0.42118 0.21428 0.69631 0.0
C257 C 0.38845 0.20138 0.62389 0.0
C258 C 0.35397 0.17324 0.68482 0.0
C259 C 0.34566 0.14659 0.90516 0.0
H260 H 0.36521 0.13718 0.95428 0.0
H261 H 0.33811 0.16451 0.96856 0.0
H262 H 0.31717 0.11903 0.87514 0.0
O263 O 0.48908 0.20039 0.91101 0.0
O264 O 0.5039 0.20921 0.71817 0.0
H265 H 0.39403 0.20783 0.43262 0.0
H266 H 0.3593 0.22195 0.49694 0.0
C267 C 0.38884 0.22279 0.51036 0.0
H268 H 0.41349 0.25517 0.51395 0.0
H269 H 0.44766 0.16161 0.51042 0.0
O270 O 0.43667 0.21187 0.09251 0.0
C271 C 0.50693 0.19635 0.82065 0.0
Co272 Co 0.77505 0.22965 0.92209 0.0
Co273 Co 0.76052 0.23804 0.65321 0.0
C274 C 0.68828 0.19559 0.81416 0.0
O275 O 0.71326 0.20195 0.89997 0.0
O276 O 0.70119 0.20772 0.70705 0.0
C277 C 0.76407 0.22968 0.16641 0.0
O278 O 0.73208 0.23105 0.12647 0.0
C279 C 0.75121 0.23058 0.39143 0.0
C280 C 0.81556 0.26638 0.33298 0.0
C281 C 0.77632 0.24074 0.29171 0.0
N282 N 0.77417 0.24836 0.48777 0.0
N283 N 0.81272 0.27014 0.45231 0.0
C284 C 0.70731 0.20019 0.39888 0.0
H285 H 0.69974 0.18386 0.48593 0.0
H286 H 0.69944 0.17813 0.32428 0.0
H287 H 0.6903 0.21699 0.39444 0.0
C288 C 0.82592 0.19585 0.80111 0.0
N289 N 0.79945 0.21019 0.80463 0.0
N290 N 0.78469 0.20701 0.69633 0.0
C291 C 0.79759 0.18718 0.62389 0.0
C292 C 0.82573 0.18083 0.68481 0.0
C293 C 0.8524 0.19915 0.90514 0.0
H294 H 0.86182 0.22811 0.95426 0.0
H295 H 0.83448 0.17369 0.96853 0.0
H296 H 0.87995 0.19821 0.87511 0.0
O297 O 0.79858 0.28879 0.91103 0.0
O298 O 0.78975 0.2948 0.7182 0.0
H299 H 0.79113 0.1863 0.43263 0.0
H300 H 0.77698 0.13745 0.49698 0.0
C301 C 0.77616 0.16617 0.51038 0.0
H302 H 0.74379 0.15846 0.51397 0.0
H303 H 0.83737 0.28612 0.51051 0.0
O304 O 0.78712 0.22491 0.09254 0.0
C305 C 0.80262 0.31068 0.82068 0.0
Co306 Co 0.87843 0.43626 0.7323 0.0
Co307 Co 0.85549 0.42788 0.00118 0.0
C308 C 0.82575 0.47039 0.84018 0.0
O309 O 0.84437 0.46401 0.75438 0.0
O310 O 0.82652 0.45825 0.9473 0.0
C311 C 0.86738 0.43615 0.48802 0.0
O312 O 0.83399 0.43472 0.528 0.0
C313 C 0.8536 0.43527 0.26302 0.0
C314 C 0.88224 0.39953 0.32136 0.0
C315 C 0.86858 0.42511 0.3627 0.0
N316 N 0.85883 0.41754 0.16662 0.0
N317 N 0.87566 0.3958 0.20202 0.0
C318 C 0.84004 0.46562 0.25568 0.0
H319 H 0.84872 0.48193 0.1686 0.0
H320 H 0.85425 0.48769 0.33023 0.0
H321 H 0.80623 0.44879 0.26035 0.0
C322 C 0.96309 0.47007 0.85336 0.0
N323 N 0.92227 0.4557 0.8498 0.0
N324 N 0.91069 0.45888 0.95809 0.0
C325 C 0.94339 0.47872 0.03054 0.0
C326 C 0.9779 0.48508 0.96969 0.0
C327 C 0.98628 0.4668 0.74934 0.0
H328 H 0.96677 0.43782 0.70024 0.0
H329 H 0.99377 0.49224 0.68591 0.0
H330 H 0.01479 0.46778 0.77938 0.0
O331 O 0.84279 0.37713 0.74337 0.0
O332 O 0.82793 0.37112 0.93618 0.0
H333 H 0.93783 0.47961 0.22182 0.0
H334 H 0.97245 0.52848 0.15739 0.0
C335 C 0.94295 0.49972 0.14404 0.0
H336 H 0.91823 0.50737 0.14046 0.0
H337 H 0.88436 0.37985 0.14378 0.0
O338 O 0.89524 0.44098 0.56186 0.0
C339 C 0.82491 0.35524 0.8337 0.0
Co340 Co 0.5627 0.44225 0.73225 0.0
Co341 Co 0.5711 0.4277 0.00113 0.0
C342 C 0.52859 0.35546 0.84016 0.0
O343 O 0.53497 0.38046 0.75435 0.0
O344 O 0.54074 0.36837 0.94727 0.0
C345 C 0.56281 0.4313 0.48797 0.0
O346 O 0.56423 0.39934 0.52797 0.0
C347 C 0.5637 0.41841 0.26297 0.0
C348 C 0.59944 0.48278 0.32132 0.0
C349 C 0.57385 0.44354 0.36266 0.0
N350 N 0.58144 0.44137 0.16658 0.0
N351 N 0.60318 0.47993 0.20198 0.0
C352 C 0.53335 0.37451 0.25562 0.0
H353 H 0.51705 0.36688 0.16851 0.0
H354 H 0.51126 0.36666 0.33011 0.0
H355 H 0.55017 0.35752 0.26038 0.0
C356 C 0.52889 0.49311 0.85332 0.0
N357 N 0.54326 0.46665 0.84976 0.0
N358 N 0.54009 0.45189 0.95804 0.0
C359 C 0.52025 0.46476 0.0305 0.0
C360 C 0.51388 0.4929 0.96966 0.0
C361 C 0.53216 0.51957 0.7493 0.0
H362 H 0.56113 0.52902 0.70019 0.0
H363 H 0.50671 0.50163 0.68589 0.0
H364 H 0.53118 0.5471 0.77935 0.0
O365 O 0.62184 0.46575 0.74332 0.0
O366 O 0.62785 0.4569 0.93613 0.0
H367 H 0.51936 0.45829 0.22178 0.0
H368 H 0.47049 0.44407 0.15734 0.0
C369 C 0.49924 0.44331 0.14399 0.0
H370 H 0.4916 0.41095 0.1404 0.0
H371 H 0.61912 0.50457 0.14375 0.0
O372 O 0.55798 0.45433 0.5618 0.0
C373 C 0.64373 0.46976 0.83365 0.0
Co374 Co 0.55673 0.12055 0.73227 0.0
Co375 Co 0.57128 0.14348 0.00114 0.0
C376 C 0.64351 0.17322 0.84019 0.0
O377 O 0.61852 0.15461 0.75438 0.0
O378 O 0.63061 0.17245 0.9473 0.0
C379 C 0.5677 0.13158 0.48797 0.0
O380 O 0.59967 0.16495 0.52794 0.0
C381 C 0.58057 0.14535 0.26296 0.0
C382 C 0.51621 0.11676 0.32134 0.0
C383 C 0.55545 0.13039 0.36266 0.0
N384 N 0.55761 0.14015 0.16659 0.0
N385 N 0.51906 0.12335 0.20201 0.0
C386 C 0.62448 0.15887 0.25558 0.0
H387 H 0.63208 0.15017 0.1685 0.0
H388 H 0.63234 0.14466 0.33013 0.0
H389 H 0.64147 0.19268 0.26019 0.0
C390 C 0.50587 0.03589 0.8533 0.0
N391 N 0.53233 0.0767 0.84976 0.0
N392 N 0.54709 0.08828 0.95805 0.0
C393 C 0.53421 0.05557 0.0305 0.0
C394 C 0.50607 0.02107 0.96963 0.0
C395 C 0.47941 0.01271 0.74927 0.0
H396 H 0.46996 0.03223 0.70016 0.0
H397 H 0.49735 0.00519 0.68586 0.0
H398 H 0.45188 0.9842 0.7793 0.0
O399 O 0.53322 0.15618 0.74333 0.0
O400 O 0.54207 0.17103 0.93615 0.0
H401 H 0.54067 0.06114 0.22177 0.0
H402 H 0.55488 0.02648 0.15737 0.0
C403 C 0.55566 0.056 0.144 0.0
H404 H 0.58801 0.08069 0.14042 0.0
H405 H 0.49441 0.11467 0.14378 0.0
O406 O 0.54465 0.10374 0.56182 0.0
C407 C 0.5292 0.17405 0.83367 0.0
Co408 Co 0.43593 0.87883 0.25537 0.0
Co409 Co 0.42755 0.85592 0.9865 0.0
C410 C 0.47002 0.82614 0.14747 0.0
O411 O 0.46365 0.84476 0.23328 0.0
O412 O 0.4579 0.82693 0.04036 0.0
C413 C 0.4359 0.86782 0.4997 0.0
O414 O 0.43453 0.83446 0.45976 0.0
C415 C 0.43501 0.85406 0.72471 0.0
C416 C 0.3992 0.88262 0.66625 0.0
C417 C 0.42484 0.86901 0.62499 0.0
N418 N 0.41723 0.85925 0.82105 0.0
N419 N 0.39544 0.87602 0.78558 0.0
C420 C 0.46541 0.84056 0.73217 0.0
H421 H 0.48173 0.84931 0.81923 0.0
H422 H 0.48747 0.85475 0.65758 0.0
H423 H 0.44861 0.80675 0.72771 0.0
C424 C 0.46972 0.9635 0.1344 0.0
N425 N 0.45537 0.92269 0.13791 0.0
N426 N 0.45856 0.91112 0.0296 0.0
C427 C 0.47838 0.94384 0.95718 0.0
C428 C 0.48474 0.97833 0.0181 0.0
C429 C 0.46642 0.98667 0.23843 0.0
H430 H 0.43745 0.96713 0.28755 0.0
H431 H 0.49188 0.9942 0.30184 0.0
H432 H 0.46736 0.01517 0.20841 0.0
O433 O 0.37679 0.84322 0.2443 0.0
O434 O 0.37079 0.82837 0.05148 0.0
H435 H 0.47926 0.93826 0.76591 0.0
H436 H 0.52811 0.97296 0.83028 0.0
C437 C 0.49939 0.94342 0.84367 0.0
H438 H 0.5071 0.91876 0.84726 0.0
H439 H 0.37946 0.88469 0.84378 0.0
O440 O 0.44066 0.89565 0.42582 0.0
C441 C 0.35491 0.82535 0.15395 0.0
Co442 Co 0.12015 0.55721 0.2554 0.0
Co443 Co 0.14305 0.57174 0.98653 0.0
C444 C 0.17284 0.64398 0.14746 0.0
O445 O 0.15422 0.619 0.23328 0.0
O446 O 0.17205 0.63107 0.04036 0.0
C447 C 0.13114 0.56823 0.49975 0.0
O448 O 0.16448 0.60024 0.45984 0.0
C449 C 0.14489 0.58107 0.72477 0.0
C450 C 0.11639 0.51673 0.66625 0.0
C451 C 0.12996 0.55597 0.62503 0.0
N452 N 0.13973 0.5581 0.82108 0.0
N453 N 0.12299 0.51955 0.78559 0.0
C454 C 0.15834 0.62496 0.73229 0.0
H455 H 0.14956 0.63251 0.81934 0.0
H456 H 0.14415 0.63283 0.65769 0.0
H457 H 0.19215 0.642 0.72791 0.0
C458 C 0.03548 0.50633 0.13445 0.0
N459 N 0.07629 0.5328 0.13795 0.0
N460 N 0.08784 0.54755 0.02964 0.0
C461 C 0.05512 0.53465 0.95722 0.0
C462 C 0.02064 0.50651 0.01815 0.0
C463 C 0.01233 0.47986 0.2385 0.0
H464 H 0.03188 0.47045 0.28762 0.0
H465 H 0.00478 0.49778 0.30189 0.0
H466 H 0.98384 0.4523 0.20848 0.0
O467 O 0.15576 0.53368 0.24433 0.0
O468 O 0.17059 0.54251 0.0515 0.0
H469 H 0.06071 0.5411 0.76595 0.0
H470 H 0.02597 0.55522 0.83027 0.0
C471 C 0.05551 0.55606 0.84369 0.0
H472 H 0.08016 0.58844 0.84728 0.0
H473 H 0.11435 0.4949 0.84376 0.0
O474 O 0.10334 0.54514 0.42584 0.0
C475 C 0.17362 0.52965 0.15398 0.0
Co476 Co 0.44177 0.56304 0.25542 0.0
Co477 Co 0.42723 0.57142 0.98655 0.0
C478 C 0.355 0.52895 0.14749 0.0
O479 O 0.37998 0.53532 0.23331 0.0
O480 O 0.36791 0.54108 0.04039 0.0
C481 C 0.43078 0.56306 0.49975 0.0
O482 O 0.39878 0.56441 0.4598 0.0
C483 C 0.41792 0.56396 0.72476 0.0
C484 C 0.48227 0.59977 0.66631 0.0
C485 C 0.44303 0.57413 0.62504 0.0
N486 N 0.44088 0.58174 0.8211 0.0
N487 N 0.47943 0.60353 0.78564 0.0
C488 C 0.37403 0.53356 0.73222 0.0
H489 H 0.36646 0.51725 0.8193 0.0
H490 H 0.36617 0.51149 0.65767 0.0
H491 H 0.357 0.55034 0.72769 0.0
C492 C 0.49265 0.52925 0.13445 0.0
N493 N 0.46618 0.54359 0.13796 0.0
N494 N 0.45143 0.5404 0.02965 0.0
C495 C 0.46432 0.52058 0.95723 0.0
C496 C 0.49246 0.51423 0.01814 0.0
C497 C 0.51913 0.53254 0.23848 0.0
H498 H 0.52854 0.5615 0.2876 0.0
H499 H 0.5012 0.50708 0.30187 0.0
H500 H 0.54668 0.53161 0.20845 0.0
O501 O 0.46529 0.62217 0.24436 0.0
O502 O 0.45645 0.62818 0.05153 0.0
H503 H 0.45786 0.5197 0.76596 0.0
H504 H 0.44372 0.47085 0.83031 0.0
C505 C 0.4429 0.49957 0.84371 0.0
H506 H 0.41052 0.49186 0.84731 0.0
H507 H 0.50408 0.61952 0.84384 0.0
O508 O 0.45385 0.5583 0.42588 0.0
C509 C 0.46932 0.64406 0.154 0.0
Co510 Co 0.54509 0.76965 0.06561 0.0
Co511 Co 0.52217 0.76127 0.33448 0.0
C512 C 0.4924 0.80375 0.1735 0.0
O513 O 0.51102 0.79738 0.08769 0.0
O514 O 0.49318 0.79162 0.28061 0.0
C515 C 0.53406 0.76959 0.8213 0.0
O516 O 0.50069 0.7682 0.86125 0.0
C517 C 0.5203 0.7687 0.59628 0.0
C518 C 0.54888 0.73292 0.65471 0.0
C519 C 0.53526 0.75854 0.696 0.0
N520 N 0.5255 0.75094 0.49993 0.0
N521 N 0.5423 0.72917 0.53537 0.0
C522 C 0.50677 0.79908 0.58887 0.0
H523 H 0.51549 0.8154 0.50179 0.0
H524 H 0.52097 0.82115 0.66343 0.0
H525 H 0.47296 0.78228 0.59344 0.0
C526 C 0.62975 0.80346 0.18659 0.0
N527 N 0.58894 0.7891 0.18308 0.0
N528 N 0.57737 0.79228 0.29138 0.0
C529 C 0.61008 0.81212 0.36381 0.0
C530 C 0.64458 0.81849 0.3029 0.0
C531 C 0.65293 0.80018 0.08256 0.0
H532 H 0.63341 0.77121 0.03345 0.0
H533 H 0.66044 0.82563 0.01916 0.0
H534 H 0.68144 0.80114 0.11259 0.0
O535 O 0.50947 0.71051 0.07668 0.0
O536 O 0.49462 0.70451 0.2695 0.0
H537 H 0.6045 0.81299 0.55508 0.0
H538 H 0.63917 0.86185 0.49072 0.0
C539 C 0.60965 0.83312 0.47733 0.0
H540 H 0.58496 0.8408 0.47375 0.0
H541 H 0.55098 0.71321 0.47716 0.0
O542 O 0.5619 0.77438 0.89516 0.0
C543 C 0.4916 0.68863 0.16702 0.0
Co544 Co 0.22931 0.77552 0.06556 0.0
Co545 Co 0.23771 0.76098 0.33444 0.0
C546 C 0.19523 0.68874 0.17348 0.0
O547 O 0.20159 0.71373 0.08767 0.0
O548 O 0.20736 0.70165 0.28058 0.0
C549 C 0.22937 0.76454 0.82125 0.0
O550 O 0.23075 0.73256 0.86122 0.0
C551 C 0.23027 0.75167 0.59624 0.0
C552 C 0.26605 0.81603 0.65467 0.0
C553 C 0.24043 0.77679 0.69595 0.0
N554 N 0.24804 0.77464 0.49989 0.0
N555 N 0.2698 0.81319 0.53533 0.0
C556 C 0.19989 0.70778 0.58882 0.0
H557 H 0.18359 0.70018 0.50171 0.0
H558 H 0.1778 0.69993 0.66332 0.0
H559 H 0.21668 0.69076 0.59347 0.0
C560 C 0.1955 0.82638 0.18656 0.0
N561 N 0.20986 0.79992 0.18304 0.0
N562 N 0.20669 0.78517 0.29134 0.0
C563 C 0.18685 0.79805 0.36377 0.0
C564 C 0.18047 0.82617 0.30287 0.0
C565 C 0.19877 0.85284 0.08253 0.0
H566 H 0.22774 0.86227 0.0334 0.0
H567 H 0.17331 0.8349 0.01914 0.0
H568 H 0.19781 0.88038 0.11256 0.0
O569 O 0.28845 0.79904 0.07663 0.0
O570 O 0.29446 0.7902 0.26945 0.0
H571 H 0.18598 0.79159 0.55504 0.0
H572 H 0.13711 0.77741 0.49068 0.0
C573 C 0.16585 0.77661 0.47729 0.0
H574 H 0.15817 0.74425 0.4737 0.0
H575 H 0.28577 0.83784 0.47713 0.0
O576 O 0.22458 0.7876 0.8951 0.0
C577 C 0.31034 0.80306 0.16697 0.0
Co578 Co 0.22346 0.45389 0.06558 0.0
Co579 Co 0.23799 0.4768 0.33445 0.0
C580 C 0.31023 0.50657 0.17351 0.0
O581 O 0.28525 0.48796 0.08769 0.0
O582 O 0.29732 0.50579 0.28061 0.0
C583 C 0.23446 0.4649 0.82124 0.0
O584 O 0.26646 0.49824 0.86118 0.0
C585 C 0.24731 0.47865 0.59623 0.0
C586 C 0.18296 0.45012 0.65469 0.0
C587 C 0.2222 0.46371 0.69595 0.0
N588 N 0.22435 0.47347 0.49989 0.0
N589 N 0.1858 0.45671 0.53536 0.0
C590 C 0.29121 0.49213 0.58877 0.0
H591 H 0.29878 0.48339 0.50169 0.0
H592 H 0.29907 0.47793 0.66333 0.0
H593 H 0.30823 0.52594 0.59326 0.0
C594 C 0.1726 0.36922 0.18654 0.0
N595 N 0.19906 0.41003 0.18304 0.0
N596 N 0.21381 0.4216 0.29135 0.0
C597 C 0.20093 0.38888 0.36377 0.0
C598 C 0.1728 0.35439 0.30284 0.0
C599 C 0.14614 0.34605 0.08249 0.0
H600 H 0.13671 0.36559 0.03337 0.0
H601 H 0.16407 0.33852 0.01911 0.0
H602 H 0.11859 0.31755 0.11251 0.0
O603 O 0.19993 0.4895 0.07664 0.0
O604 O 0.20877 0.50434 0.26947 0.0
H605 H 0.20738 0.39446 0.55504 0.0
H606 H 0.22154 0.35975 0.4907 0.0
C607 C 0.22235 0.38929 0.4773 0.0
H608 H 0.25472 0.41395 0.47371 0.0
H609 H 0.16114 0.44805 0.47716 0.0
O610 O 0.21139 0.43708 0.89513 0.0
C611 C 0.1959 0.50736 0.16699 0.0
loop_
_geom_bond_atom_site_label_1
_geom_bond_atom_site_label_2
_geom_bond_distance
_geom_bond_site_symmetry_2
_ccdc_geom_bond_type
Co0 O3 1.970 . S
Co0 N17 1.989 . S
Co0 O25 1.967 . S
Co0 O32 1.920 . S
Co1 O4 1.966 . S
Co1 N10 2.022 . S
Co1 N18 1.993 . S
Co1 O26 1.941 . S
C2 O3 1.258 . S
C2 O4 1.263 . S
O3 Co0 1.970 . S
O3 C2 1.258 . S
O4 Co1 1.966 . S
O4 C2 1.263 . S
C5 O6 1.235 . S
C5 O32 1.289 . S
O6 C5 1.235 . S
C7 C9 1.400 1_554 S
C7 N10 1.351 . S
C7 C12 1.501 . S
C8 C9 1.387 . S
C8 N11 1.341 1_556 S
C9 C7 1.400 1_556 S
C9 C8 1.387 . S
N10 Co1 2.022 . S
N10 C7 1.351 . S
N10 N11 1.365 . S
N11 C8 1.341 1_554 S
N11 N10 1.365 . S
N11 H31 0.862 . S
C12 C7 1.501 . S
C12 H13 0.961 . S
C12 H14 0.961 . S
C12 H15 0.960 . S
H13 C12 0.961 . S
H14 C12 0.961 . S
H15 C12 0.960 . S
C16 N17 1.342 . S
C16 C20 1.401 . S
C16 C21 1.499 . S
N17 Co0 1.989 . S
N17 C16 1.342 . S
N17 N18 1.388 . S
N18 Co1 1.993 . S
N18 N17 1.388 . S
N18 C19 1.346 . S
C19 N18 1.346 . S
C19 C20 1.396 . S
C19 C29 1.510 . S
C20 C16 1.401 . S
C20 C19 1.396 . S
C21 C16 1.499 . S
C21 H22 0.959 . S
C21 H23 0.960 . S
C21 H24 0.961 . S
H22 C21 0.959 . S
H23 C21 0.960 . S
H24 C21 0.961 . S
O25 Co0 1.967 . S
O25 C33 1.258 . S
O26 Co1 1.941 . S
O26 C33 1.266 . S
H27 C29 0.959 . S
H28 C29 0.961 . S
C29 C19 1.510 . S
C29 H27 0.959 . S
C29 H28 0.961 . S
C29 H30 0.960 . S
H30 C29 0.960 . S
H31 N11 0.862 . S
O32 Co0 1.920 . S
O32 C5 1.289 . S
C33 O25 1.258 . S
C33 O26 1.266 . S
Co34 O37 1.970 . S
Co34 N51 1.989 . S
Co34 O59 1.967 . S
Co34 O66 1.920 . S
Co35 O38 1.966 . S
Co35 N44 2.022 . S
Co35 N52 1.993 . S
Co35 O60 1.941 . S
C36 O37 1.258 . S
C36 O38 1.263 . S
O37 Co34 1.970 . S
O37 C36 1.258 . S
O38 Co35 1.966 . S
O38 C36 1.263 . S
C39 O40 1.235 . S
C39 O66 1.289 . S
O40 C39 1.235 . S
C41 C43 1.400 1_554 S
C41 N44 1.351 . S
C41 C46 1.501 . S
C42 C43 1.387 . S
C42 N45 1.341 1_556 S
C43 C41 1.400 1_556 S
C43 C42 1.387 . S
N44 Co35 2.022 . S
N44 C41 1.351 . S
N44 N45 1.365 . S
N45 C42 1.341 1_554 S
N45 N44 1.365 . S
N45 H65 0.862 . S
C46 C41 1.501 . S
C46 H47 0.961 . S
C46 H48 0.961 . S
C46 H49 0.960 . S
H47 C46 0.961 . S
H48 C46 0.961 . S
H49 C46 0.960 . S
C50 N51 1.342 . S
C50 C54 1.401 . S
C50 C55 1.499 . S
N51 Co34 1.989 . S
N51 C50 1.342 . S
N51 N52 1.388 . S
N52 Co35 1.993 . S
N52 N51 1.388 . S
N52 C53 1.346 . S
C53 N52 1.346 . S
C53 C54 1.396 . S
C53 C63 1.510 . S
C54 C50 1.401 . S
C54 C53 1.396 . S
C55 C50 1.499 . S
C55 H56 0.959 . S
C55 H57 0.960 . S
C55 H58 0.961 . S
H56 C55 0.959 . S
H57 C55 0.960 . S
H58 C55 0.961 . S
O59 Co34 1.967 . S
O59 C67 1.258 . S
O60 Co35 1.941 . S
O60 C67 1.266 . S
H61 C63 0.959 . S
H62 C63 0.961 . S
C63 C53 1.510 . S
C63 H61 0.959 . S
C63 H62 0.961 . S
C63 H64 0.960 . S
H64 C63 0.960 . S
H65 N45 0.862 . S
O66 Co34 1.920 . S
O66 C39 1.289 . S
C67 O59 1.258 . S
C67 O60 1.266 . S
Co68 O71 1.970 . S
Co68 N85 1.989 . S
Co68 O93 1.967 . S
Co68 O100 1.920 . S
Co69 O72 1.966 . S
Co69 N78 2.022 . S
Co69 N86 1.993 . S
Co69 O94 1.941 . S
C70 O71 1.258 . S
C70 O72 1.263 . S
O71 Co68 1.970 . S
O71 C70 1.258 . S
O72 Co69 1.966 . S
O72 C70 1.263 . S
C73 O74 1.235 . S
C73 O100 1.289 . S
O74 C73 1.235 . S
C75 C77 1.400 1_554 S
C75 N78 1.351 . S
C75 C80 1.501 . S
C76 C77 1.387 . S
C76 N79 1.341 1_556 S
C77 C75 1.400 1_556 S
C77 C76 1.387 . S
N78 Co69 2.022 . S
N78 C75 1.351 . S
N78 N79 1.365 . S
N79 C76 1.341 1_554 S
N79 N78 1.365 . S
N79 H99 0.862 . S
C80 C75 1.501 . S
C80 H81 0.961 . S
C80 H82 0.961 . S
C80 H83 0.960 . S
H81 C80 0.961 . S
H82 C80 0.961 . S
H83 C80 0.960 . S
C84 N85 1.342 . S
C84 C88 1.401 . S
C84 C89 1.499 . S
N85 Co68 1.989 . S
N85 C84 1.342 . S
N85 N86 1.388 . S
N86 Co69 1.993 . S
N86 N85 1.388 . S
N86 C87 1.346 . S
C87 N86 1.346 . S
C87 C88 1.396 . S
C87 C97 1.510 . S
C88 C84 1.401 . S
C88 C87 1.396 . S
C89 C84 1.499 . S
C89 H90 0.959 . S
C89 H91 0.960 . S
C89 H92 0.961 . S
H90 C89 0.959 . S
H91 C89 0.960 . S
H92 C89 0.961 . S
O93 Co68 1.967 . S
O93 C101 1.258 . S
O94 Co69 1.941 . S
O94 C101 1.266 . S
H95 C97 0.959 . S
H96 C97 0.961 . S
C97 C87 1.510 . S
C97 H95 0.959 . S
C97 H96 0.961 . S
C97 H98 0.960 . S
H98 C97 0.960 . S
H99 N79 0.862 . S
O100 Co68 1.920 . S
O100 C73 1.289 . S
C101 O93 1.258 . S
C101 O94 1.266 . S
Co102 O105 1.970 . S
Co102 N119 1.989 . S
Co102 O127 1.967 . S
Co102 O134 1.920 . S
Co103 O106 1.966 . S
Co103 N112 2.022 . S
Co103 N120 1.993 . S
Co103 O128 1.941 . S
C104 O105 1.258 . S
C104 O106 1.263 . S
O105 Co102 1.970 . S
O105 C104 1.258 . S
O106 Co103 1.966 . S
O106 C104 1.263 . S
C107 O108 1.235 . S
C107 O134 1.289 . S
O108 C107 1.235 . S
C109 C111 1.400 1_556 S
C109 N112 1.351 . S
C109 C114 1.501 . S
C110 C111 1.387 . S
C110 N113 1.341 1_554 S
C111 C109 1.400 1_554 S
C111 C110 1.387 . S
N112 Co103 2.022 . S
N112 C109 1.351 . S
N112 N113 1.365 . S
N113 C110 1.341 1_556 S
N113 N112 1.365 . S
N113 H133 0.862 . S
C114 C109 1.501 . S
C114 H115 0.961 . S
C114 H116 0.961 . S
C114 H117 0.960 . S
H115 C114 0.961 . S
H116 C114 0.961 . S
H117 C114 0.960 . S
C118 N119 1.342 . S
C118 C122 1.401 . S
C118 C123 1.499 . S
N119 Co102 1.989 . S
N119 C118 1.342 . S
N119 N120 1.388 . S
N120 Co103 1.993 . S
N120 N119 1.388 . S
N120 C121 1.346 . S
C121 N120 1.346 . S
C121 C122 1.396 . S
C121 C131 1.510 . S
C122 C118 1.401 . S
C122 C121 1.396 . S
C123 C118 1.499 . S
C123 H124 0.959 . S
C123 H125 0.960 . S
C123 H126 0.961 . S
H124 C123 0.959 . S
H125 C123 0.960 . S
H126 C123 0.961 . S
O127 Co102 1.967 . S
O127 C135 1.258 . S
O128 Co103 1.941 . S
O128 C135 1.266 . S
H129 C131 0.959 . S
H130 C131 0.961 . S
C131 C121 1.510 . S
C131 H129 0.959 . S
C131 H130 0.961 . S
C131 H132 0.960 . S
H132 C131 0.960 . S
H133 N113 0.862 . S
O134 Co102 1.920 . S
O134 C107 1.289 . S
C135 O127 1.258 . S
C135 O128 1.266 . S
Co136 O139 1.970 . S
Co136 N153 1.989 . S
Co136 O161 1.967 . S
Co136 O168 1.920 . S
Co137 O140 1.966 . S
Co137 N146 2.022 . S
Co137 N154 1.993 . S
Co137 O162 1.941 . S
C138 O139 1.258 . S
C138 O140 1.263 . S
O139 Co136 1.970 . S
O139 C138 1.258 . S
O140 Co137 1.966 . S
O140 C138 1.263 . S
C141 O142 1.235 . S
C141 O168 1.289 . S
O142 C141 1.235 . S
C143 C145 1.400 1_556 S
C143 N146 1.351 . S
C143 C148 1.501 . S
C144 C145 1.387 . S
C144 N147 1.341 1_554 S
C145 C143 1.400 1_554 S
C145 C144 1.387 . S
N146 Co137 2.022 . S
N146 C143 1.351 . S
N146 N147 1.365 . S
N147 C144 1.341 1_556 S
N147 N146 1.365 . S
N147 H167 0.862 . S
C148 C143 1.501 . S
C148 H149 0.961 . S
C148 H150 0.961 . S
C148 H151 0.960 . S
H149 C148 0.961 . S
H150 C148 0.961 . S
H151 C148 0.960 . S
C152 N153 1.342 . S
C152 C156 1.401 . S
C152 C157 1.499 . S
N153 Co136 1.989 . S
N153 C152 1.342 . S
N153 N154 1.388 . S
N154 Co137 1.993 . S
N154 N153 1.388 . S
N154 C155 1.346 . S
C155 N154 1.346 . S
C155 C156 1.396 . S
C155 C165 1.510 . S
C156 C152 1.401 . S
C156 C155 1.396 . S
C157 C152 1.499 . S
C157 H158 0.959 . S
C157 H159 0.960 . S
C157 H160 0.961 . S
H158 C157 0.959 . S
H159 C157 0.960 . S
H160 C157 0.961 . S
O161 Co136 1.967 . S
O161 C169 1.258 . S
O162 Co137 1.941 . S
O162 C169 1.266 . S
H163 C165 0.959 . S
H164 C165 0.961 . S
C165 C155 1.510 . S
C165 H163 0.959 . S
C165 H164 0.961 . S
C165 H166 0.960 . S
H166 C165 0.960 . S
H167 N147 0.862 . S
O168 Co136 1.920 . S
O168 C141 1.289 . S
C169 O161 1.258 . S
C169 O162 1.266 . S
Co170 O173 1.970 . S
Co170 N187 1.989 . S
Co170 O195 1.967 . S
Co170 O202 1.920 . S
Co171 O174 1.966 . S
Co171 N180 2.022 . S
Co171 N188 1.993 . S
Co171 O196 1.941 . S
C172 O173 1.258 . S
C172 O174 1.263 . S
O173 Co170 1.970 . S
O173 C172 1.258 . S
O174 Co171 1.966 . S
O174 C172 1.263 . S
C175 O176 1.235 . S
C175 O202 1.289 . S
O176 C175 1.235 . S
C177 C179 1.400 1_556 S
C177 N180 1.351 . S
C177 C182 1.501 . S
C178 C179 1.387 . S
C178 N181 1.341 1_554 S
C179 C177 1.400 1_554 S
C179 C178 1.387 . S
N180 Co171 2.022 . S
N180 C177 1.351 . S
N180 N181 1.365 . S
N181 C178 1.341 1_556 S
N181 N180 1.365 . S
N181 H201 0.862 . S
C182 C177 1.501 . S
C182 H183 0.961 . S
C182 H184 0.961 . S
C182 H185 0.960 . S
H183 C182 0.961 . S
H184 C182 0.961 . S
H185 C182 0.960 . S
C186 N187 1.342 . S
C186 C190 1.401 . S
C186 C191 1.499 . S
N187 Co170 1.989 . S
N187 C186 1.342 . S
N187 N188 1.388 . S
N188 Co171 1.993 . S
N188 N187 1.388 . S
N188 C189 1.346 . S
C189 N188 1.346 . S
C189 C190 1.396 . S
C189 C199 1.510 . S
C190 C186 1.401 . S
C190 C189 1.396 . S
C191 C186 1.499 . S
C191 H192 0.959 . S
C191 H193 0.960 . S
C191 H194 0.961 . S
H192 C191 0.959 . S
H193 C191 0.960 . S
H194 C191 0.961 . S
O195 Co170 1.967 . S
O195 C203 1.258 . S
O196 Co171 1.941 . S
O196 C203 1.266 . S
H197 C199 0.959 . S
H198 C199 0.961 . S
C199 C189 1.510 . S
C199 H197 0.959 . S
C199 H198 0.961 . S
C199 H200 0.960 . S
H200 C199 0.960 . S
H201 N181 0.862 . S
O202 Co170 1.920 . S
O202 C175 1.289 . S
C203 O195 1.258 . S
C203 O196 1.266 . S
Co204 O207 1.970 . S
Co204 N221 1.989 . S
Co204 O229 1.967 . S
Co204 O236 1.920 1_556 S
Co205 O208 1.966 . S
Co205 N214 2.022 . S
Co205 N222 1.993 . S
Co205 O230 1.941 . S
C206 O207 1.258 . S
C206 O208 1.263 . S
O207 Co204 1.970 . S
O207 C206 1.258 . S
O208 Co205 1.966 . S
O208 C206 1.263 . S
C209 O210 1.235 . S
C209 O236 1.289 . S
O210 C209 1.235 . S
C211 C213 1.400 . S
C211 N214 1.351 . S
C211 C216 1.501 . S
C212 C213 1.387 . S
C212 N215 1.341 . S
C213 C211 1.400 . S
C213 C212 1.387 . S
N214 Co205 2.022 . S
N214 C211 1.351 . S
N214 N215 1.365 . S
N215 C212 1.341 . S
N215 N214 1.365 . S
N215 H235 0.862 . S
C216 C211 1.501 . S
C216 H217 0.961 . S
C216 H218 0.961 . S
C216 H219 0.960 . S
H217 C216 0.961 . S
H218 C216 0.961 . S
H219 C216 0.960 . S
C220 N221 1.342 . S
C220 C224 1.401 . S
C220 C225 1.499 . S
N221 Co204 1.989 . S
N221 C220 1.342 . S
N221 N222 1.388 . S
N222 Co205 1.993 . S
N222 N221 1.388 . S
N222 C223 1.346 . S
C223 N222 1.346 . S
C223 C224 1.396 . S
C223 C233 1.510 . S
C224 C220 1.401 . S
C224 C223 1.396 . S
C225 C220 1.499 . S
C225 H226 0.959 1_556 S
C225 H227 0.960 . S
C225 H228 0.961 . S
H226 C225 0.959 1_554 S
H227 C225 0.960 . S
H228 C225 0.961 . S
O229 Co204 1.967 . S
O229 C237 1.258 . S
O230 Co205 1.941 . S
O230 C237 1.266 . S
H231 C233 0.959 . S
H232 C233 0.961 . S
C233 C223 1.510 . S
C233 H231 0.959 . S
C233 H232 0.961 . S
C233 H234 0.960 . S
H234 C233 0.960 . S
H235 N215 0.862 . S
O236 Co204 1.920 1_554 S
O236 C209 1.289 . S
C237 O229 1.258 . S
C237 O230 1.266 . S
Co238 O241 1.970 . S
Co238 N255 1.989 . S
Co238 O263 1.967 . S
Co238 O270 1.920 1_556 S
Co239 O242 1.966 . S
Co239 N248 2.022 . S
Co239 N256 1.993 . S
Co239 O264 1.941 . S
C240 O241 1.258 . S
C240 O242 1.263 . S
O241 Co238 1.970 . S
O241 C240 1.258 . S
O242 Co239 1.966 . S
O242 C240 1.263 . S
C243 O244 1.235 . S
C243 O270 1.289 . S
O244 C243 1.235 . S
C245 C247 1.400 . S
C245 N248 1.351 . S
C245 C250 1.501 . S
C246 C247 1.387 . S
C246 N249 1.341 . S
C247 C245 1.400 . S
C247 C246 1.387 . S
N248 Co239 2.022 . S
N248 C245 1.351 . S
N248 N249 1.365 . S
N249 C246 1.341 . S
N249 N248 1.365 . S
N249 H269 0.862 . S
C250 C245 1.501 . S
C250 H251 0.961 . S
C250 H252 0.961 . S
C250 H253 0.960 . S
H251 C250 0.961 . S
H252 C250 0.961 . S
H253 C250 0.960 . S
C254 N255 1.342 . S
C254 C258 1.401 . S
C254 C259 1.499 . S
N255 Co238 1.989 . S
N255 C254 1.342 . S
N255 N256 1.388 . S
N256 Co239 1.993 . S
N256 N255 1.388 . S
N256 C257 1.346 . S
C257 N256 1.346 . S
C257 C258 1.396 . S
C257 C267 1.510 . S
C258 C254 1.401 . S
C258 C257 1.396 . S
C259 C254 1.499 . S
C259 H260 0.959 1_556 S
C259 H261 0.960 . S
C259 H262 0.961 . S
H260 C259 0.959 1_554 S
H261 C259 0.960 . S
H262 C259 0.961 . S
O263 Co238 1.967 . S
O263 C271 1.258 . S
O264 Co239 1.941 . S
O264 C271 1.266 . S
H265 C267 0.959 . S
H266 C267 0.961 . S
C267 C257 1.510 . S
C267 H265 0.959 . S
C267 H266 0.961 . S
C267 H268 0.960 . S
H268 C267 0.960 . S
H269 N249 0.862 . S
O270 Co238 1.920 1_554 S
O270 C243 1.289 . S
C271 O263 1.258 . S
C271 O264 1.266 . S
Co272 O275 1.970 . S
Co272 N289 1.989 . S
Co272 O297 1.967 . S
Co272 O304 1.920 1_556 S
Co273 O276 1.966 . S
Co273 N282 2.022 . S
Co273 N290 1.993 . S
Co273 O298 1.941 . S
C274 O275 1.258 . S
C274 O276 1.263 . S
O275 Co272 1.970 . S
O275 C274 1.258 . S
O276 Co273 1.966 . S
O276 C274 1.263 . S
C277 O278 1.235 . S
C277 O304 1.289 . S
O278 C277 1.235 . S
C279 C281 1.400 . S
C279 N282 1.351 . S
C279 C284 1.501 . S
C280 C281 1.387 . S
C280 N283 1.341 . S
C281 C279 1.400 . S
C281 C280 1.387 . S
N282 Co273 2.022 . S
N282 C279 1.351 . S
N282 N283 1.365 . S
N283 C280 1.341 . S
N283 N282 1.365 . S
N283 H303 0.862 . S
C284 C279 1.501 . S
C284 H285 0.961 . S
C284 H286 0.961 . S
C284 H287 0.960 . S
H285 C284 0.961 . S
H286 C284 0.961 . S
H287 C284 0.960 . S
C288 N289 1.342 . S
C288 C292 1.401 . S
C288 C293 1.499 . S
N289 Co272 1.989 . S
N289 C288 1.342 . S
N289 N290 1.388 . S
N290 Co273 1.993 . S
N290 N289 1.388 . S
N290 C291 1.346 . S
C291 N290 1.346 . S
C291 C292 1.396 . S
C291 C301 1.510 . S
C292 C288 1.401 . S
C292 C291 1.396 . S
C293 C288 1.499 . S
C293 H294 0.959 1_556 S
C293 H295 0.960 . S
C293 H296 0.961 . S
H294 C293 0.959 1_554 S
H295 C293 0.960 . S
H296 C293 0.961 . S
O297 Co272 1.967 . S
O297 C305 1.258 . S
O298 Co273 1.941 . S
O298 C305 1.266 . S
H299 C301 0.959 . S
H300 C301 0.961 . S
C301 C291 1.510 . S
C301 H299 0.959 . S
C301 H300 0.961 . S
C301 H302 0.960 . S
H302 C301 0.960 . S
H303 N283 0.862 . S
O304 Co272 1.920 1_554 S
O304 C277 1.289 . S
C305 O297 1.258 . S
C305 O298 1.266 . S
Co306 O309 1.970 . S
Co306 N323 1.989 . S
Co306 O331 1.967 . S
Co306 O338 1.920 . S
Co307 O310 1.966 1_554 S
Co307 N316 2.022 . S
Co307 N324 1.993 1_554 S
Co307 O332 1.941 1_554 S
C308 O309 1.258 . S
C308 O310 1.263 . S
O309 Co306 1.970 . S
O309 C308 1.258 . S
O310 Co307 1.966 1_556 S
O310 C308 1.263 . S
C311 O312 1.235 . S
C311 O338 1.289 . S
O312 C311 1.235 . S
C313 C315 1.400 . S
C313 N316 1.351 . S
C313 C318 1.501 . S
C314 C315 1.387 . S
C314 N317 1.341 . S
C315 C313 1.400 . S
C315 C314 1.387 . S
N316 Co307 2.022 . S
N316 C313 1.351 . S
N316 N317 1.365 . S
N317 C314 1.341 . S
N317 N316 1.365 . S
N317 H337 0.862 . S
C318 C313 1.501 . S
C318 H319 0.961 . S
C318 H320 0.961 . S
C318 H321 0.960 . S
H319 C318 0.961 . S
H320 C318 0.961 . S
H321 C318 0.960 . S
C322 N323 1.342 . S
C322 C326 1.401 . S
C322 C327 1.499 . S
N323 Co306 1.989 . S
N323 C322 1.342 . S
N323 N324 1.388 . S
N324 Co307 1.993 1_556 S
N324 N323 1.388 . S
N324 C325 1.346 1_556 S
C325 N324 1.346 1_554 S
C325 C326 1.396 1_554 S
C325 C335 1.510 . S
C326 C322 1.401 . S
C326 C325 1.396 1_556 S
C327 C322 1.499 . S
C327 H328 0.959 . S
C327 H329 0.960 . S
C327 H330 0.961 . S
H328 C327 0.959 . S
H329 C327 0.960 . S
H330 C327 0.961 . S
O331 Co306 1.967 . S
O331 C339 1.258 . S
O332 Co307 1.941 1_556 S
O332 C339 1.266 . S
H333 C335 0.959 . S
H334 C335 0.961 . S
C335 C325 1.510 . S
C335 H333 0.959 . S
C335 H334 0.961 . S
C335 H336 0.960 . S
H336 C335 0.960 . S
H337 N317 0.862 . S
O338 Co306 1.920 . S
O338 C311 1.289 . S
C339 O331 1.258 . S
C339 O332 1.266 . S
Co340 O343 1.970 . S
Co340 N357 1.989 . S
Co340 O365 1.967 . S
Co340 O372 1.920 . S
Co341 O344 1.966 1_554 S
Co341 N350 2.022 . S
Co341 N358 1.993 1_554 S
Co341 O366 1.941 1_554 S
C342 O343 1.258 . S
C342 O344 1.263 . S
O343 Co340 1.970 . S
O343 C342 1.258 . S
O344 Co341 1.966 1_556 S
O344 C342 1.263 . S
C345 O346 1.235 . S
C345 O372 1.289 . S
O346 C345 1.235 . S
C347 C349 1.400 . S
C347 N350 1.351 . S
C347 C352 1.501 . S
C348 C349 1.387 . S
C348 N351 1.341 . S
C349 C347 1.400 . S
C349 C348 1.387 . S
N350 Co341 2.022 . S
N350 C347 1.351 . S
N350 N351 1.365 . S
N351 C348 1.341 . S
N351 N350 1.365 . S
N351 H371 0.862 . S
C352 C347 1.501 . S
C352 H353 0.961 . S
C352 H354 0.961 . S
C352 H355 0.960 . S
H353 C352 0.961 . S
H354 C352 0.961 . S
H355 C352 0.960 . S
C356 N357 1.342 . S
C356 C360 1.401 . S
C356 C361 1.499 . S
N357 Co340 1.989 . S
N357 C356 1.342 . S
N357 N358 1.388 . S
N358 Co341 1.993 1_556 S
N358 N357 1.388 . S
N358 C359 1.346 1_556 S
C359 N358 1.346 1_554 S
C359 C360 1.396 1_554 S
C359 C369 1.510 . S
C360 C356 1.401 . S
C360 C359 1.396 1_556 S
C361 C356 1.499 . S
C361 H362 0.959 . S
C361 H363 0.960 . S
C361 H364 0.961 . S
H362 C361 0.959 . S
H363 C361 0.960 . S
H364 C361 0.961 . S
O365 Co340 1.967 . S
O365 C373 1.258 . S
O366 Co341 1.941 1_556 S
O366 C373 1.266 . S
H367 C369 0.959 . S
H368 C369 0.961 . S
C369 C359 1.510 . S
C369 H367 0.959 . S
C369 H368 0.961 . S
C369 H370 0.960 . S
H370 C369 0.960 . S
H371 N351 0.862 . S
O372 Co340 1.920 . S
O372 C345 1.289 . S
C373 O365 1.258 . S
C373 O366 1.266 . S
Co374 O377 1.970 . S
Co374 N391 1.989 . S
Co374 O399 1.967 . S
Co374 O406 1.920 . S
Co375 O378 1.966 1_554 S
Co375 N384 2.022 . S
Co375 N392 1.993 1_554 S
Co375 O400 1.941 1_554 S
C376 O377 1.258 . S
C376 O378 1.263 . S
O377 Co374 1.970 . S
O377 C376 1.258 . S
O378 Co375 1.966 1_556 S
O378 C376 1.263 . S
C379 O380 1.235 . S
C379 O406 1.289 . S
O380 C379 1.235 . S
C381 C383 1.400 . S
C381 N384 1.351 . S
C381 C386 1.501 . S
C382 C383 1.387 . S
C382 N385 1.341 . S
C383 C381 1.400 . S
C383 C382 1.387 . S
N384 Co375 2.022 . S
N384 C381 1.351 . S
N384 N385 1.365 . S
N385 C382 1.341 . S
N385 N384 1.365 . S
N385 H405 0.862 . S
C386 C381 1.501 . S
C386 H387 0.961 . S
C386 H388 0.961 . S
C386 H389 0.960 . S
H387 C386 0.961 . S
H388 C386 0.961 . S
H389 C386 0.960 . S
C390 N391 1.342 . S
C390 C394 1.401 . S
C390 C395 1.499 . S
N391 Co374 1.989 . S
N391 C390 1.342 . S
N391 N392 1.388 . S
N392 Co375 1.993 1_556 S
N392 N391 1.388 . S
N392 C393 1.346 1_556 S
C393 N392 1.346 1_554 S
C393 C394 1.396 1_554 S
C393 C403 1.510 . S
C394 C390 1.401 . S
C394 C393 1.396 1_556 S
C395 C390 1.499 . S
C395 H396 0.959 . S
C395 H397 0.960 . S
C395 H398 0.961 . S
H396 C395 0.959 . S
H397 C395 0.960 . S
H398 C395 0.961 . S
O399 Co374 1.967 . S
O399 C407 1.258 . S
O400 Co375 1.941 1_556 S
O400 C407 1.266 . S
H401 C403 0.959 . S
H402 C403 0.961 . S
C403 C393 1.510 . S
C403 H401 0.959 . S
C403 H402 0.961 . S
C403 H404 0.960 . S
H404 C403 0.960 . S
H405 N385 0.862 . S
O406 Co374 1.920 . S
O406 C379 1.289 . S
C407 O399 1.258 . S
C407 O400 1.266 . S
Co408 O411 1.970 . S
Co408 N425 1.989 . S
Co408 O433 1.967 . S
Co408 O440 1.920 . S
Co409 O412 1.966 1_556 S
Co409 N418 2.022 . S
Co409 N426 1.993 1_556 S
Co409 O434 1.941 1_556 S
C410 O411 1.258 . S
C410 O412 1.263 . S
O411 Co408 1.970 . S
O411 C410 1.258 . S
O412 Co409 1.966 1_554 S
O412 C410 1.263 . S
C413 O414 1.235 . S
C413 O440 1.289 . S
O414 C413 1.235 . S
C415 C417 1.400 . S
C415 N418 1.351 . S
C415 C420 1.501 . S
C416 C417 1.387 . S
C416 N419 1.341 . S
C417 C415 1.400 . S
C417 C416 1.387 . S
N418 Co409 2.022 . S
N418 C415 1.351 . S
N418 N419 1.365 . S
N419 C416 1.341 . S
N419 N418 1.365 . S
N419 H439 0.862 . S
C420 C415 1.501 . S
C420 H421 0.961 . S
C420 H422 0.961 . S
C420 H423 0.960 . S
H421 C420 0.961 . S
H422 C420 0.961 . S
H423 C420 0.960 . S
C424 N425 1.342 . S
C424 C428 1.401 . S
C424 C429 1.499 . S
N425 Co408 1.989 . S
N425 C424 1.342 . S
N425 N426 1.388 . S
N426 Co409 1.993 1_554 S
N426 N425 1.388 . S
N426 C427 1.346 1_554 S
C427 N426 1.346 1_556 S
C427 C428 1.396 1_556 S
C427 C437 1.510 . S
C428 C424 1.401 . S
C428 C427 1.396 1_554 S
C429 C424 1.499 . S
C429 H430 0.959 . S
C429 H431 0.960 . S
C429 H432 0.961 . S
H430 C429 0.959 . S
H431 C429 0.960 . S
H432 C429 0.961 . S
O433 Co408 1.967 . S
O433 C441 1.258 . S
O434 Co409 1.941 1_554 S
O434 C441 1.266 . S
H435 C437 0.959 . S
H436 C437 0.961 . S
C437 C427 1.510 . S
C437 H435 0.959 . S
C437 H436 0.961 . S
C437 H438 0.960 . S
H438 C437 0.960 . S
H439 N419 0.862 . S
O440 Co408 1.920 . S
O440 C413 1.289 . S
C441 O433 1.258 . S
C441 O434 1.266 . S
Co442 O445 1.970 . S
Co442 N459 1.989 . S
Co442 O467 1.967 . S
Co442 O474 1.920 . S
Co443 O446 1.966 1_556 S
Co443 N452 2.022 . S
Co443 N460 1.993 1_556 S
Co443 O468 1.941 1_556 S
C444 O445 1.258 . S
C444 O446 1.263 . S
O445 Co442 1.970 . S
O445 C444 1.258 . S
O446 Co443 1.966 1_554 S
O446 C444 1.263 . S
C447 O448 1.235 . S
C447 O474 1.289 . S
O448 C447 1.235 . S
C449 C451 1.400 . S
C449 N452 1.351 . S
C449 C454 1.501 . S
C450 C451 1.387 . S
C450 N453 1.341 . S
C451 C449 1.400 . S
C451 C450 1.387 . S
N452 Co443 2.022 . S
N452 C449 1.351 . S
N452 N453 1.365 . S
N453 C450 1.341 . S
N453 N452 1.365 . S
N453 H473 0.862 . S
C454 C449 1.501 . S
C454 H455 0.961 . S
C454 H456 0.961 . S
C454 H457 0.960 . S
H455 C454 0.961 . S
H456 C454 0.961 . S
H457 C454 0.960 . S
C458 N459 1.342 . S
C458 C462 1.401 . S
C458 C463 1.499 . S
N459 Co442 1.989 . S
N459 C458 1.342 . S
N459 N460 1.388 . S
N460 Co443 1.993 1_554 S
N460 N459 1.388 . S
N460 C461 1.346 1_554 S
C461 N460 1.346 1_556 S
C461 C462 1.396 1_556 S
C461 C471 1.510 . S
C462 C458 1.401 . S
C462 C461 1.396 1_554 S
C463 C458 1.499 . S
C463 H464 0.959 . S
C463 H465 0.960 . S
C463 H466 0.961 . S
H464 C463 0.959 . S
H465 C463 0.960 . S
H466 C463 0.961 . S
O467 Co442 1.967 . S
O467 C475 1.258 . S
O468 Co443 1.941 1_554 S
O468 C475 1.266 . S
H469 C471 0.959 . S
H470 C471 0.961 . S
C471 C461 1.510 . S
C471 H469 0.959 . S
C471 H470 0.961 . S
C471 H472 0.960 . S
H472 C471 0.960 . S
H473 N453 0.862 . S
O474 Co442 1.920 . S
O474 C447 1.289 . S
C475 O467 1.258 . S
C475 O468 1.266 . S
Co476 O479 1.970 . S
Co476 N493 1.989 . S
Co476 O501 1.967 . S
Co476 O508 1.920 . S
Co477 O480 1.966 1_556 S
Co477 N486 2.022 . S
Co477 N494 1.993 1_556 S
Co477 O502 1.941 1_556 S
C478 O479 1.258 . S
C478 O480 1.263 . S
O479 Co476 1.970 . S
O479 C478 1.258 . S
O480 Co477 1.966 1_554 S
O480 C478 1.263 . S
C481 O482 1.235 . S
C481 O508 1.289 . S
O482 C481 1.235 . S
C483 C485 1.400 . S
C483 N486 1.351 . S
C483 C488 1.501 . S
C484 C485 1.387 . S
C484 N487 1.341 . S
C485 C483 1.400 . S
C485 C484 1.387 . S
N486 Co477 2.022 . S
N486 C483 1.351 . S
N486 N487 1.365 . S
N487 C484 1.341 . S
N487 N486 1.365 . S
N487 H507 0.862 . S
C488 C483 1.501 . S
C488 H489 0.961 . S
C488 H490 0.961 . S
C488 H491 0.960 . S
H489 C488 0.961 . S
H490 C488 0.961 . S
H491 C488 0.960 . S
C492 N493 1.342 . S
C492 C496 1.401 . S
C492 C497 1.499 . S
N493 Co476 1.989 . S
N493 C492 1.342 . S
N493 N494 1.388 . S
N494 Co477 1.993 1_554 S
N494 N493 1.388 . S
N494 C495 1.346 1_554 S
C495 N494 1.346 1_556 S
C495 C496 1.396 1_556 S
C495 C505 1.510 . S
C496 C492 1.401 . S
C496 C495 1.396 1_554 S
C497 C492 1.499 . S
C497 H498 0.959 . S
C497 H499 0.960 . S
C497 H500 0.961 . S
H498 C497 0.959 . S
H499 C497 0.960 . S
H500 C497 0.961 . S
O501 Co476 1.967 . S
O501 C509 1.258 . S
O502 Co477 1.941 1_554 S
O502 C509 1.266 . S
H503 C505 0.959 . S
H504 C505 0.961 . S
C505 C495 1.510 . S
C505 H503 0.959 . S
C505 H504 0.961 . S
C505 H506 0.960 . S
H506 C505 0.960 . S
H507 N487 0.862 . S
O508 Co476 1.920 . S
O508 C481 1.289 . S
C509 O501 1.258 . S
C509 O502 1.266 . S
Co510 O513 1.970 . S
Co510 N527 1.989 . S
Co510 O535 1.967 . S
Co510 O542 1.920 1_554 S
Co511 O514 1.966 . S
Co511 N520 2.022 . S
Co511 N528 1.993 . S
Co511 O536 1.941 . S
C512 O513 1.258 . S
C512 O514 1.263 . S
O513 Co510 1.970 . S
O513 C512 1.258 . S
O514 Co511 1.966 . S
O514 C512 1.263 . S
C515 O516 1.235 . S
C515 O542 1.289 . S
O516 C515 1.235 . S
C517 C519 1.400 . S
C517 N520 1.351 . S
C517 C522 1.501 . S
C518 C519 1.387 . S
C518 N521 1.341 . S
C519 C517 1.400 . S
C519 C518 1.387 . S
N520 Co511 2.022 . S
N520 C517 1.351 . S
N520 N521 1.365 . S
N521 C518 1.341 . S
N521 N520 1.365 . S
N521 H541 0.862 . S
C522 C517 1.501 . S
C522 H523 0.961 . S
C522 H524 0.961 . S
C522 H525 0.960 . S
H523 C522 0.961 . S
H524 C522 0.961 . S
H525 C522 0.960 . S
C526 N527 1.342 . S
C526 C530 1.401 . S
C526 C531 1.499 . S
N527 Co510 1.989 . S
N527 C526 1.342 . S
N527 N528 1.388 . S
N528 Co511 1.993 . S
N528 N527 1.388 . S
N528 C529 1.346 . S
C529 N528 1.346 . S
C529 C530 1.396 . S
C529 C539 1.510 . S
C530 C526 1.401 . S
C530 C529 1.396 . S
C531 C526 1.499 . S
C531 H532 0.959 1_554 S
C531 H533 0.960 . S
C531 H534 0.961 . S
H532 C531 0.959 1_556 S
H533 C531 0.960 . S
H534 C531 0.961 . S
O535 Co510 1.967 . S
O535 C543 1.258 . S
O536 Co511 1.941 . S
O536 C543 1.266 . S
H537 C539 0.959 . S
H538 C539 0.961 . S
C539 C529 1.510 . S
C539 H537 0.959 . S
C539 H538 0.961 . S
C539 H540 0.960 . S
H540 C539 0.960 . S
H541 N521 0.862 . S
O542 Co510 1.920 1_556 S
O542 C515 1.289 . S
C543 O535 1.258 . S
C543 O536 1.266 . S
Co544 O547 1.970 . S
Co544 N561 1.989 . S
Co544 O569 1.967 . S
Co544 O576 1.920 1_554 S
Co545 O548 1.966 . S
Co545 N554 2.022 . S
Co545 N562 1.993 . S
Co545 O570 1.941 . S
C546 O547 1.258 . S
C546 O548 1.263 . S
O547 Co544 1.970 . S
O547 C546 1.258 . S
O548 Co545 1.966 . S
O548 C546 1.263 . S
C549 O550 1.235 . S
C549 O576 1.289 . S
O550 C549 1.235 . S
C551 C553 1.400 . S
C551 N554 1.351 . S
C551 C556 1.501 . S
C552 C553 1.387 . S
C552 N555 1.341 . S
C553 C551 1.400 . S
C553 C552 1.387 . S
N554 Co545 2.022 . S
N554 C551 1.351 . S
N554 N555 1.365 . S
N555 C552 1.341 . S
N555 N554 1.365 . S
N555 H575 0.862 . S
C556 C551 1.501 . S
C556 H557 0.961 . S
C556 H558 0.961 . S
C556 H559 0.960 . S
H557 C556 0.961 . S
H558 C556 0.961 . S
H559 C556 0.960 . S
C560 N561 1.342 . S
C560 C564 1.401 . S
C560 C565 1.499 . S
N561 Co544 1.989 . S
N561 C560 1.342 . S
N561 N562 1.388 . S
N562 Co545 1.993 . S
N562 N561 1.388 . S
N562 C563 1.346 . S
C563 N562 1.346 . S
C563 C564 1.396 . S
C563 C573 1.510 . S
C564 C560 1.401 . S
C564 C563 1.396 . S
C565 C560 1.499 . S
C565 H566 0.959 1_554 S
C565 H567 0.960 . S
C565 H568 0.961 . S
H566 C565 0.959 1_556 S
H567 C565 0.960 . S
H568 C565 0.961 . S
O569 Co544 1.967 . S
O569 C577 1.258 . S
O570 Co545 1.941 . S
O570 C577 1.266 . S
H571 C573 0.959 . S
H572 C573 0.961 . S
C573 C563 1.510 . S
C573 H571 0.959 . S
C573 H572 0.961 . S
C573 H574 0.960 . S
H574 C573 0.960 . S
H575 N555 0.862 . S
O576 Co544 1.920 1_556 S
O576 C549 1.289 . S
C577 O569 1.258 . S
C577 O570 1.266 . S
Co578 O581 1.970 . S
Co578 N595 1.989 . S
Co578 O603 1.967 . S
Co578 O610 1.920 1_554 S
Co579 O582 1.966 . S
Co579 N588 2.022 . S
Co579 N596 1.993 . S
Co579 O604 1.941 . S
C580 O581 1.258 . S
C580 O582 1.263 . S
O581 Co578 1.970 . S
O581 C580 1.258 . S
O582 Co579 1.966 . S
O582 C580 1.263 . S
C583 O584 1.235 . S
C583 O610 1.289 . S
O584 C583 1.235 . S
C585 C587 1.400 . S
C585 N588 1.351 . S
C585 C590 1.501 . S
C586 C587 1.387 . S
C586 N589 1.341 . S
C587 C585 1.400 . S
C587 C586 1.387 . S
N588 Co579 2.022 . S
N588 C585 1.351 . S
N588 N589 1.365 . S
N589 C586 1.341 . S
N589 N588 1.365 . S
N589 H609 0.862 . S
C590 C585 1.501 . S
C590 H591 0.961 . S
C590 H592 0.961 . S
C590 H593 0.960 . S
H591 C590 0.961 . S
H592 C590 0.961 . S
H593 C590 0.960 . S
C594 N595 1.342 . S
C594 C598 1.401 . S
C594 C599 1.499 . S
N595 Co578 1.989 . S
N595 C594 1.342 . S
N595 N596 1.388 . S
N596 Co579 1.993 . S
N596 N595 1.388 . S
N596 C597 1.346 . S
C597 N596 1.346 . S
C597 C598 1.396 . S
C597 C607 1.510 . S
C598 C594 1.401 . S
C598 C597 1.396 . S
C599 C594 1.499 . S
C599 H600 0.959 1_554 S
C599 H601 0.960 . S
C599 H602 0.961 . S
H600 C599 0.959 1_556 S
H601 C599 0.960 . S
H602 C599 0.961 . S
O603 Co578 1.967 . S
O603 C611 1.258 . S
O604 Co579 1.941 . S
O604 C611 1.266 . S
H605 C607 0.959 . S
H606 C607 0.961 . S
C607 C597 1.510 . S
C607 H605 0.959 . S
C607 H606 0.961 . S
C607 H608 0.960 . S
H608 C607 0.960 . S
H609 N589 0.862 . S
O610 Co578 1.920 1_556 S
O610 C583 1.289 . S
C611 O603 1.258 . S
C611 O604 1.266 . S
C104 C2 1.869 . S
C138 C36 1.869 1_545 S
C172 C70 1.869 1_655 S
C67 C203 1.328 . S
C135 C101 1.328 1_545 S
C169 C33 1.328 1_655 S
C308 C206 1.868 . S
C240 C342 1.869 . S
C274 C376 1.869 . S
C271 C407 1.328 . S
C305 C339 1.328 . S
C373 C237 1.328 . S
C410 C512 1.868 . S
C546 C444 1.869 . S
C478 C580 1.869 . S
C475 C611 1.328 . S
C543 C509 1.328 . S
C441 C577 1.328 . S
C20 C598 1.949 . S
C530 C54 1.949 . S
C564 C88 1.949 . S
C258 C122 1.949 . S
C292 C156 1.949 . S
C224 C190 1.949 . S
C462 C326 1.949 1_454 S
C496 C360 1.949 1_554 S
C394 C428 1.949 1_546 S
C5 C9 1.752 . S
C39 C43 1.752 . S
C73 C77 1.752 . S
C111 C107 1.752 . S
C145 C141 1.752 . S
C175 C179 1.752 . S
C209 C213 1.752 . S
C247 C243 1.752 . S
C281 C277 1.752 . S
C311 C315 1.752 . S
C345 C349 1.752 . S
C379 C383 1.752 . S
C413 C417 1.752 . S
C447 C451 1.752 . S
C485 C481 1.752 . S
C515 C519 1.752 . S
C553 C549 1.752 . S
C587 C583 1.752 . S
