# Generated by pormake.
# Topology umz, (4)-cn, num edge types: 1
# Building blocks:
#     Node 0, Type 0, BuildingBlock: UXUYUI_clean_sbu_0, # of connection points: 4
#     Node 1, Type 0, BuildingBlock: UXUYUI_clean_sbu_0, # of connection points: 4
#     Node 2, Type 0, BuildingBlock: UXUYUI_clean_sbu_0, # of connection points: 4
#     Node 3, Type 0, BuildingBlock: UXUYUI_clean_sbu_0, # of connection points: 4
#     Node 4, Type 0, BuildingBlock: UXUYUI_clean_sbu_0, # of connection points: 4
#     Node 5, Type 0, BuildingBlock: UXUYUI_clean_sbu_0, # of connection points: 4
#     Node 6, Type 0, BuildingBlock: UXUYUI_clean_sbu_0, # of connection points: 4
#     Node 7, Type 0, BuildingBlock: UXUYUI_clean_sbu_0, # of connection points: 4
#     Node 8, Type 0, BuildingBlock: UXUYUI_clean_sbu_0, # of connection points: 4
#     Node 9, Type 0, BuildingBlock: UXUYUI_clean_sbu_0, # of connection points: 4
#     Node 10, Type 0, BuildingBlock: UXUYUI_clean_sbu_0, # of connection points: 4
#     Node 11, Type 0, BuildingBlock: UXUYUI_clean_sbu_0, # of connection points: 4
#     Node 12, Type 0, BuildingBlock: UXUYUI_clean_sbu_0, # of connection points: 4
#     Node 13, Type 0, BuildingBlock: UXUYUI_clean_sbu_0, # of connection points: 4
#     Node 14, Type 0, BuildingBlock: UXUYUI_clean_sbu_0, # of connection points: 4
#     Node 15, Type 0, BuildingBlock: UXUYUI_clean_sbu_0, # of connection points: 4
#     Edge 16, Type (0, 0), BuildingBlock: EZIPEK_clean_linker_0, # of connection points: 2
#     Edge 17, Type (0, 0), BuildingBlock: EZIPEK_clean_linker_0, # of connection points: 2
#     Edge 18, Type (0, 0), BuildingBlock: EZIPEK_clean_linker_0, # of connection points: 2
#     Edge 19, Type (0, 0), BuildingBlock: EZIPEK_clean_linker_0, # of connection points: 2
#     Edge 20, Type (0, 0), BuildingBlock: EZIPEK_clean_linker_0, # of connection points: 2
#     Edge 21, Type (0, 0), BuildingBlock: EZIPEK_clean_linker_0, # of connection points: 2
#     Edge 22, Type (0, 0), BuildingBlock: EZIPEK_clean_linker_0, # of connection points: 2
#     Edge 23, Type (0, 0), BuildingBlock: EZIPEK_clean_linker_0, # of connection points: 2
#     Edge 24, Type (0, 0), BuildingBlock: EZIPEK_clean_linker_0, # of connection points: 2
#     Edge 25, Type (0, 0), BuildingBlock: EZIPEK_clean_linker_0, # of connection points: 2
#     Edge 26, Type (0, 0), BuildingBlock: EZIPEK_clean_linker_0, # of connection points: 2
#     Edge 27, Type (0, 0), BuildingBlock: EZIPEK_clean_linker_0, # of connection points: 2
#     Edge 28, Type (0, 0), BuildingBlock: EZIPEK_clean_linker_0, # of connection points: 2
#     Edge 29, Type (0, 0), BuildingBlock: EZIPEK_clean_linker_0, # of connection points: 2
#     Edge 30, Type (0, 0), BuildingBlock: EZIPEK_clean_linker_0, # of connection points: 2
#     Edge 31, Type (0, 0), BuildingBlock: EZIPEK_clean_linker_0, # of connection points: 2
#     Edge 32, Type (0, 0), BuildingBlock: EZIPEK_clean_linker_0, # of connection points: 2
#     Edge 33, Type (0, 0), BuildingBlock: EZIPEK_clean_linker_0, # of connection points: 2
#     Edge 34, Type (0, 0), BuildingBlock: EZIPEK_clean_linker_0, # of connection points: 2
#     Edge 35, Type (0, 0), BuildingBlock: EZIPEK_clean_linker_0, # of connection points: 2
#     Edge 36, Type (0, 0), BuildingBlock: EZIPEK_clean_linker_0, # of connection points: 2
#     Edge 37, Type (0, 0), BuildingBlock: EZIPEK_clean_linker_0, # of connection points: 2
#     Edge 38, Type (0, 0), BuildingBlock: EZIPEK_clean_linker_0, # of connection points: 2
#     Edge 39, Type (0, 0), BuildingBlock: EZIPEK_clean_linker_0, # of connection points: 2
#     Edge 40, Type (0, 0), BuildingBlock: EZIPEK_clean_linker_0, # of connection points: 2
#     Edge 41, Type (0, 0), BuildingBlock: EZIPEK_clean_linker_0, # of connection points: 2
#     Edge 42, Type (0, 0), BuildingBlock: EZIPEK_clean_linker_0, # of connection points: 2
#     Edge 43, Type (0, 0), BuildingBlock: EZIPEK_clean_linker_0, # of connection points: 2
#     Edge 44, Type (0, 0), BuildingBlock: EZIPEK_clean_linker_0, # of connection points: 2
#     Edge 45, Type (0, 0), BuildingBlock: EZIPEK_clean_linker_0, # of connection points: 2
#     Edge 46, Type (0, 0), BuildingBlock: EZIPEK_clean_linker_0, # of connection points: 2
#     Edge 47, Type (0, 0), BuildingBlock: EZIPEK_clean_linker_0, # of connection points: 2
# Relax obj value: 0.340
# Max RMSD: 0.205
# Mean RMSD: 0.205
data_MOF--net-umz--node1-UXUYUI_clean_sbu_0--edge1-EZIPEK_clean_linker_0
_symmetry_space_group_name_H-M    P1
_symmetry_Int_Tables_number       1
_symmetry_cell_setting            triclinic
loop_
_symmetry_equiv_pos_as_xyz
'x, y, z'
_cell_length_a     71.759182
_cell_length_b     71.773637
_cell_length_c     26.079791
_cell_angle_alpha  89.996999
_cell_angle_beta   89.972516
_cell_angle_gamma 89.993832
loop_
_atom_site_label
_atom_site_type_symbol
_atom_site_fract_x
_atom_site_fract_y
_atom_site_fract_z
_atom_type_partial_charge
Li0 Li 0.99702 0.62828 0.15965 0.0
Li1 Li 0.02685 0.63334 0.20293 0.0
Li2 Li 0.01507 0.65724 0.14101 0.0
Li3 Li 0.02591 0.62753 0.11343 0.0
C4 C 0.99238 0.65766 0.24053 0.0
N5 N 0.96827 0.67548 0.30721 0.0
C6 C 0.9915 0.65229 0.29205 0.0
C7 C 0.98117 0.67229 0.22322 0.0
C8 C 0.97918 0.66141 0.32506 0.0
C9 C 0.96902 0.68107 0.25743 0.0
C10 C 0.01324 0.59685 0.20311 0.0
C11 C 0.01387 0.56495 0.23217 0.0
N12 N 0.00376 0.56988 0.27417 0.0
C13 C 0.00291 0.60159 0.24663 0.0
C14 C 0.01878 0.57837 0.1958 0.0
C15 C 0.99822 0.58777 0.28205 0.0
C16 C 0.97079 0.5994 0.15976 0.0
N17 N 0.97275 0.61796 0.16878 0.0
C18 C 0.94247 0.61938 0.20674 0.0
C19 C 0.95867 0.62817 0.18956 0.0
C20 C 0.94105 0.59998 0.20261 0.0
C21 C 0.95502 0.59002 0.17707 0.0
H22 H 0.982 0.59167 0.14201 0.0
H23 H 0.96027 0.64295 0.19494 0.0
C24 C 0.04094 0.64135 0.30362 0.0
N25 N 0.04027 0.62879 0.26456 0.0
C26 C 0.04986 0.63671 0.34963 0.0
C27 C 0.05748 0.60662 0.31348 0.0
C28 C 0.04867 0.61187 0.2684 0.0
C29 C 0.05789 0.61898 0.3548 0.0
H30 H 0.03431 0.65479 0.29932 0.0
H31 H 0.04834 0.60223 0.2367 0.0
C32 C 0.00221 0.63538 0.04264 0.0
N33 N 0.0037 0.62504 0.94073 0.0
C34 C 0.00969 0.64754 0.00615 0.0
C35 C 0.99537 0.61803 0.02732 0.0
C36 C 0.01034 0.64203 0.9548 0.0
C37 C 0.99628 0.61304 0.97559 0.0
C38 C 0.05923 0.64289 0.15242 0.0
C39 C 0.07248 0.65715 0.15391 0.0
C40 C 0.0651 0.62433 0.15468 0.0
C41 C 0.09136 0.65261 0.15783 0.0
C42 C 0.0841 0.62035 0.15849 0.0
N43 N 0.09673 0.63445 0.16 0.0
C44 C 0.02786 0.69404 0.12663 0.0
C45 C 0.99827 0.68683 0.091 0.0
C46 C 0.02809 0.71111 0.10102 0.0
N47 N 0.01326 0.68221 0.12021 0.0
C48 C 0.99786 0.70377 0.06501 0.0
C49 C 0.01314 0.71579 0.06893 0.0
H50 H 0.03969 0.68979 0.14943 0.0
H51 H 0.98709 0.6769 0.08578 0.0
C52 C 0.04001 0.59772 0.0533 0.0
N53 N 0.03975 0.61651 0.05951 0.0
C54 C 0.05227 0.58964 0.01819 0.0
C55 C 0.06329 0.62048 0.9958 0.0
C56 C 0.05089 0.62794 0.03137 0.0
C57 C 0.06419 0.60113 0.98968 0.0
H58 H 0.03108 0.58903 0.07661 0.0
H59 H 0.05049 0.64283 0.03775 0.0
O60 O 0.00453 0.64904 0.20764 0.0
O61 O 0.01799 0.61013 0.16768 0.0
O62 O 0.00199 0.64026 0.0933 0.0
O63 O 0.04069 0.64718 0.14801 0.0
H64 H 0.00028 0.64126 0.30665 0.0
H65 H 0.98162 0.67666 0.18364 0.0
H66 H 0.97832 0.65734 0.36493 0.0
H67 H 0.96017 0.69231 0.24437 0.0
H68 H 0.01808 0.5506 0.227 0.0
H69 H 0.99834 0.61572 0.25258 0.0
H70 H 0.02685 0.57445 0.16245 0.0
H71 H 0.99013 0.59126 0.31572 0.0
H72 H 0.93171 0.62741 0.22573 0.0
H73 H 0.95411 0.57503 0.17277 0.0
H74 H 0.05019 0.64659 0.38101 0.0
H75 H 0.06379 0.59294 0.31631 0.0
H76 H 0.0152 0.66096 0.01747 0.0
H77 H 0.98964 0.60844 0.05519 0.0
H78 H 0.0162 0.65124 0.92618 0.0
H79 H 0.99116 0.5996 0.9632 0.0
H80 H 0.06824 0.6716 0.15198 0.0
H81 H 0.05512 0.61308 0.15318 0.0
H82 H 0.10175 0.66352 0.15905 0.0
H83 H 0.08879 0.60604 0.16015 0.0
H84 H 0.04009 0.72018 0.10431 0.0
H85 H 0.98624 0.70705 0.04008 0.0
H86 H 0.0527 0.57464 0.01389 0.0
H87 H 0.07236 0.62962 0.97409 0.0
Li88 Li 0.86969 0.00112 0.66025 0.0
Li89 Li 0.86062 0.02947 0.70661 0.0
Li90 Li 0.8413 0.016 0.63893 0.0
Li91 Li 0.87018 0.03171 0.61754 0.0
C92 C 0.83094 -0.0008 0.72102 0.0
N93 N 0.79511 0.9888 0.74698 0.0
C94 C 0.82032 0.01041 0.75366 0.0
C95 C 0.82342 0.98266 0.7018 0.0
C96 C 0.80221 0.00491 0.76632 0.0
C97 C 0.80525 0.97766 0.71529 0.0
C98 C 0.89881 0.02767 0.71017 0.0
C99 C 0.91764 0.05045 0.75428 0.0
N100 N 0.92626 0.03653 0.78048 0.0
C101 C 0.90785 0.0136 0.73768 0.0
C102 C 0.90363 0.04628 0.71891 0.0
C103 C 0.92165 0.01835 0.77309 0.0
C104 C 0.89941 0.97573 0.6469 0.0
N105 N 0.8827 0.97847 0.67033 0.0
C106 C 0.88728 0.95178 0.72346 0.0
C107 C 0.8763 0.96667 0.70714 0.0
C108 C 0.90488 0.94914 0.70139 0.0
C109 C 0.91077 0.96091 0.66171 0.0
H110 H 0.9044 0.9857 0.61901 0.0
H111 H 0.86316 0.96946 0.7259 0.0
C112 C 0.85639 0.05934 0.77744 0.0
N113 N 0.86232 0.0415 0.77101 0.0
C114 C 0.862 0.06946 0.82051 0.0
C115 C 0.87859 0.04221 0.85059 0.0
C116 C 0.8722 0.0325 0.80788 0.0
C117 C 0.87414 0.06113 0.85592 0.0
H118 H 0.84823 0.06602 0.7479 0.0
H119 H 0.87632 0.01816 0.80211 0.0
C120 C 0.86875 0.99417 0.56161 0.0
N121 N 0.88583 0.96643 0.50512 0.0
C122 C 0.8838 -0.00157 0.52967 0.0
C123 C 0.86232 0.97581 0.56463 0.0
C124 C 0.89225 0.98421 0.50143 0.0
C125 C 0.87118 0.96198 0.53587 0.0
C126 C 0.84585 0.05922 0.62696 0.0
C127 C 0.83305 0.06133 0.58696 0.0
C128 C 0.85721 0.0742 0.64091 0.0
C129 C 0.83186 0.07842 0.56155 0.0
C130 C 0.85558 0.09107 0.6146 0.0
N131 N 0.84305 0.09281 0.57577 0.0
C132 C 0.80285 0.02386 0.63248 0.0
C133 C 0.81389 0.0005 0.57558 0.0
C134 C 0.78536 0.02355 0.6091 0.0
N135 N 0.81672 0.01269 0.6147 0.0
C136 C 0.79663 -0.00034 0.55133 0.0
C137 C 0.78237 0.0116 0.56743 0.0
H138 H 0.80565 0.0336 0.66316 0.0
H139 H 0.82525 0.99202 0.56181 0.0
C140 C 0.89829 0.05583 0.57886 0.0
N141 N 0.88174 0.04745 0.56839 0.0
C142 C 0.90576 0.0688 0.54472 0.0
C143 C 0.8794 0.06363 0.48865 0.0
C144 C 0.87242 0.05081 0.52396 0.0
C145 C 0.89613 0.07288 0.49943 0.0
H146 H 0.90564 0.05259 0.61376 0.0
H147 H 0.85938 0.04376 0.51647 0.0
O148 O 0.84847 0.00461 0.70705 0.0
O149 O 0.88543 0.02322 0.67471 0.0
O150 O 0.86032 0.00788 0.58972 0.0
O151 O 0.8474 0.04252 0.65191 0.0
H152 H 0.82593 0.0233 0.76863 0.0
H153 H 0.83145 0.9739 0.67622 0.0
H154 H 0.79378 0.01348 0.79136 0.0
H155 H 0.79918 0.96497 0.70043 0.0
H156 H 0.92167 0.06476 0.76091 0.0
H157 H 0.90418 -0.00084 0.73226 0.0
H158 H 0.89655 0.05742 0.69892 0.0
H159 H 0.92871 0.00759 0.79466 0.0
H160 H 0.88255 0.94299 0.75461 0.0
H161 H 0.92444 0.9593 0.64464 0.0
H162 H 0.85811 0.08398 0.82418 0.0
H163 H 0.88773 0.03534 0.87769 0.0
H164 H 0.88899 0.01254 0.5269 0.0
H165 H 0.8508 0.97222 0.58955 0.0
H166 H 0.90395 0.9873 0.47667 0.0
H167 H 0.86644 0.94769 0.53811 0.0
H168 H 0.82431 0.04984 0.57514 0.0
H169 H 0.86735 0.07275 0.67133 0.0
H170 H 0.82208 0.08023 0.53038 0.0
H171 H 0.86434 0.10275 0.62487 0.0
H172 H 0.77455 0.033 0.62193 0.0
H173 H 0.79465 0.99041 0.51895 0.0
H174 H 0.91887 0.07558 0.55345 0.0
H175 H 0.87182 0.06643 0.45358 0.0
Li176 Li 0.49221 0.86776 0.16265 0.0
Li177 Li 0.46193 0.85939 0.20566 0.0
Li178 Li 0.47571 0.83869 0.14067 0.0
Li179 Li 0.4621 0.8667 0.11644 0.0
C180 C 0.49406 0.83001 0.22292 0.0
N181 N 0.50901 0.79566 0.24691 0.0
C182 C 0.48332 0.81683 0.24901 0.0
C183 C 0.5124 0.8258 0.20915 0.0
C184 C 0.49114 0.79952 0.26077 0.0
C185 C 0.51971 0.80833 0.22161 0.0
C186 C 0.4638 0.89902 0.19628 0.0
C187 C 0.43917 0.91807 0.23131 0.0
N188 N 0.45198 0.93103 0.24559 0.0
C189 C 0.47668 0.91263 0.21084 0.0
C190 C 0.44486 0.90181 0.2064 0.0
C191 C 0.47045 0.92866 0.23597 0.0
C192 C 0.52836 0.88318 0.14166 0.0
N193 N 0.51506 0.87937 0.1773 0.0
C194 C 0.5327 0.89432 0.24288 0.0
C195 C 0.51717 0.8842 0.2273 0.0
C196 C 0.54626 0.89918 0.20668 0.0
C197 C 0.54433 0.89311 0.15577 0.0
H198 H 0.5264 0.87889 0.1023 0.0
H199 H 0.50638 0.88076 0.25467 0.0
C200 C 0.43206 0.85724 0.27807 0.0
N201 N 0.44971 0.86327 0.26883 0.0
C202 C 0.42216 0.86423 0.32005 0.0
C203 C 0.44914 0.88268 0.34294 0.0
C204 C 0.45862 0.87503 0.30142 0.0
C205 C 0.4305 0.87777 0.35142 0.0
H206 H 0.42537 0.84784 0.25144 0.0
H207 H 0.47267 0.87953 0.2929 0.0
C208 C 0.48892 0.86528 0.04753 0.0
N209 N 0.49126 0.8823 0.95278 0.0
C210 C 0.48787 0.85462 0.00279 0.0
C211 C 0.49131 0.88457 0.04417 0.0
C212 C 0.48906 0.8635 0.95522 0.0
C213 C 0.49241 0.89292 0.99588 0.0
C214 C 0.43287 0.8439 0.12511 0.0
C215 C 0.43089 0.83099 0.08532 0.0
C216 C 0.41785 0.85535 0.13821 0.0
C217 C 0.41401 0.82998 0.05877 0.0
C218 C 0.40121 0.85394 0.11069 0.0
N219 N 0.39966 0.8414 0.07184 0.0
C220 C 0.46759 0.80034 0.12762 0.0
C221 C 0.49512 0.81149 0.08742 0.0
C222 C 0.46908 0.78343 0.10155 0.0
N223 N 0.48018 0.8141 0.11865 0.0
C224 C 0.49721 0.79479 0.06083 0.0
C225 C 0.48372 0.78087 0.06666 0.0
H226 H 0.4558 0.80294 0.15249 0.0
H227 H 0.50485 0.82276 0.0811 0.0
C228 C 0.44102 0.89571 0.06929 0.0
N229 N 0.44757 0.87806 0.06331 0.0
C230 C 0.429 0.90338 0.03297 0.0
C231 C 0.43125 0.87488 0.98391 0.0
C232 C 0.44323 0.86778 0.02113 0.0
C233 C 0.42388 0.89278 0.99019 0.0
H234 H 0.44495 0.90379 0.10234 0.0
H235 H 0.44881 0.85389 0.01683 0.0
O236 O 0.48647 0.84676 0.20956 0.0
O237 O 0.46975 0.8832 0.1718 0.0
O238 O 0.48734 0.85692 0.09442 0.0
O239 O 0.44936 0.8452 0.15133 0.0
H240 H 0.46905 0.81989 0.25956 0.0
H241 H 0.52082 0.83586 0.18862 0.0
H242 H 0.48298 0.78913 0.28076 0.0
H243 H 0.53385 0.80482 0.21102 0.0
H244 H 0.42456 0.92044 0.23913 0.0
H245 H 0.49132 0.91099 0.20235 0.0
H246 H 0.43467 0.89155 0.1951 0.0
H247 H 0.4803 0.93926 0.24754 0.0
H248 H 0.53387 0.89878 0.28244 0.0
H249 H 0.55468 0.89662 0.12713 0.0
H250 H 0.40781 0.8601 0.32605 0.0
H251 H 0.45597 0.89302 0.36667 0.0
H252 H 0.48593 0.83968 0.00478 0.0
H253 H 0.49205 0.89301 0.07851 0.0
H254 H 0.48815 0.85545 0.92025 0.0
H255 H 0.49413 0.90784 0.99265 0.0
H256 H 0.44238 0.82214 0.07416 0.0
H257 H 0.419 0.86527 0.16915 0.0
H258 H 0.41238 0.82019 0.02756 0.0
H259 H 0.38953 0.86282 0.12023 0.0
H260 H 0.45847 0.77284 0.10653 0.0
H261 H 0.50861 0.79312 0.03399 0.0
H262 H 0.42365 0.91736 0.03829 0.0
H263 H 0.42763 0.86648 0.95087 0.0
Li264 Li 0.629 0.48924 0.67177 0.0
Li265 Li 0.63603 0.46021 0.71564 0.0
Li266 Li 0.65563 0.47199 0.6456 0.0
Li267 Li 0.62518 0.45901 0.6278 0.0
C268 C 0.65312 0.49838 0.74423 0.0
N269 N 0.65496 0.52984 0.80502 0.0
C270 C 0.64742 0.49761 0.79544 0.0
C271 C 0.65999 0.51507 0.72412 0.0
C272 C 0.6484 0.51369 0.82551 0.0
C273 C 0.66073 0.53085 0.75541 0.0
C274 C 0.5939 0.46447 0.6768 0.0
C275 C 0.56902 0.44212 0.66768 0.0
N276 N 0.55775 0.45582 0.64929 0.0
C277 C 0.58207 0.47833 0.65788 0.0
C278 C 0.58732 0.44623 0.68196 0.0
C279 C 0.56383 0.47368 0.64424 0.0
C280 C 0.61602 0.52631 0.64966 0.0
N281 N 0.61754 0.51243 0.68491 0.0
C282 C 0.59844 0.529 0.74419 0.0
C283 C 0.60915 0.51354 0.73151 0.0
C284 C 0.59607 0.54323 0.70808 0.0
C285 C 0.60518 0.54203 0.66057 0.0
H286 H 0.62257 0.52484 0.61254 0.0
H287 H 0.61022 0.50202 0.75807 0.0
C288 C 0.64791 0.43993 0.80628 0.0
N289 N 0.63369 0.44825 0.78035 0.0
C290 C 0.64428 0.43019 0.85174 0.0
C291 C 0.61182 0.43889 0.84413 0.0
C292 C 0.61604 0.44831 0.79915 0.0
C293 C 0.62593 0.42941 0.87021 0.0
H294 H 0.66192 0.44048 0.79116 0.0
H295 H 0.60509 0.45549 0.77889 0.0
C296 C 0.64492 0.4885 0.55872 0.0
N297 N 0.66524 0.49943 0.47391 0.0
C298 C 0.64409 0.4781 0.51346 0.0
C299 C 0.65585 0.5046 0.56063 0.0
C300 C 0.65451 0.48384 0.47102 0.0
C301 C 0.6661 0.50984 0.51743 0.0
C302 C 0.65417 0.43086 0.68024 0.0
C303 C 0.67338 0.42955 0.68825 0.0
C304 C 0.64248 0.41652 0.69712 0.0
C305 C 0.68059 0.4139 0.71318 0.0
C306 C 0.65023 0.40113 0.72201 0.0
N307 N 0.66896 0.40014 0.72945 0.0
C308 C 0.69372 0.48352 0.63475 0.0
C309 C 0.6818 0.46198 0.57398 0.0
C310 C 0.71088 0.48387 0.60936 0.0
N311 N 0.67964 0.47276 0.61638 0.0
C312 C 0.69845 0.46229 0.54673 0.0
C313 C 0.71321 0.47332 0.56444 0.0
H314 H 0.69158 0.49185 0.66879 0.0
H315 H 0.67039 0.45336 0.56091 0.0
C316 C 0.59763 0.45217 0.55139 0.0
N317 N 0.61157 0.44456 0.57987 0.0
C318 C 0.58794 0.44121 0.51608 0.0
C319 C 0.60741 0.41502 0.53942 0.0
C320 C 0.61664 0.42643 0.57434 0.0
C321 C 0.59292 0.42245 0.50996 0.0
H322 H 0.59416 0.46674 0.55589 0.0
H323 H 0.62802 0.42085 0.59655 0.0
O324 O 0.65194 0.48288 0.71393 0.0
O325 O 0.6119 0.46864 0.68971 0.0
O326 O 0.63517 0.48286 0.60103 0.0
O327 O 0.64682 0.44607 0.65599 0.0
H328 H 0.64211 0.48479 0.81166 0.0
H329 H 0.66456 0.51586 0.68466 0.0
H330 H 0.64392 0.51333 0.86511 0.0
H331 H 0.66588 0.5439 0.74025 0.0
H332 H 0.56378 0.42805 0.67111 0.0
H333 H 0.58693 0.49249 0.6533 0.0
H334 H 0.59634 0.43532 0.69632 0.0
H335 H 0.55454 0.48425 0.62942 0.0
H336 H 0.59136 0.52948 0.78086 0.0
H337 H 0.60334 0.55274 0.63177 0.0
H338 H 0.65545 0.42306 0.87156 0.0
H339 H 0.59757 0.43864 0.85792 0.0
H340 H 0.63569 0.46561 0.51133 0.0
H341 H 0.65657 0.51284 0.59529 0.0
H342 H 0.65412 0.47586 0.43586 0.0
H343 H 0.67477 0.52216 0.51852 0.0
H344 H 0.68263 0.44052 0.67558 0.0
H345 H 0.62756 0.41739 0.69161 0.0
H346 H 0.69543 0.41271 0.71972 0.0
H347 H 0.64134 0.38999 0.73557 0.0
H348 H 0.72211 0.49241 0.62405 0.0
H349 H 0.69987 0.45394 0.51235 0.0
H350 H 0.57689 0.44731 0.49334 0.0
H351 H 0.61165 0.40062 0.53496 0.0
Li352 Li 0.02736 0.837 0.85457 0.0
Li353 Li 0.04281 0.86559 0.86959 0.0
Li354 Li 0.01275 0.86414 0.82523 0.0
Li355 Li 0.04164 0.85366 0.78232 0.0
C356 C 0.01305 0.84947 0.94135 0.0
N357 N 0.00273 0.83117 0.03018 0.0
C358 C 0.02547 0.84821 0.98248 0.0
C359 C 0.99536 0.84145 0.94548 0.0
C360 C 0.02001 0.83887 0.02702 0.0
C361 C 0.99041 0.83227 0.99069 0.0
C362 C 0.06418 0.82716 0.83103 0.0
C363 C 0.09063 0.80697 0.84396 0.0
N364 N 0.08383 0.79515 0.80774 0.0
C365 C 0.05743 0.8148 0.79399 0.0
C366 C 0.08088 0.82321 0.85631 0.0
C367 C 0.06758 0.7987 0.78274 0.0
C368 C 0.00991 0.8017 0.87282 0.0
N369 N 0.02407 0.81339 0.88563 0.0
C370 C 0.03407 0.79297 0.95234 0.0
C371 C 0.03624 0.80922 0.92389 0.0
C372 C 0.01937 0.78091 0.94073 0.0
C373 C 0.00729 0.78516 0.90018 0.0
H374 H 0.00052 0.80532 0.84205 0.0
H375 H 0.04735 0.81881 0.93314 0.0
C376 C 0.05206 0.88995 0.95138 0.0
N377 N 0.05881 0.87946 0.91221 0.0
C378 C 0.06434 0.89946 0.98354 0.0
C379 C 0.09011 0.88782 0.9328 0.0
C380 C 0.07736 0.87835 0.90206 0.0
C381 C 0.08358 0.89821 0.97457 0.0
H382 H 0.0372 0.89067 0.95804 0.0
H383 H 0.08221 0.87002 0.87018 0.0
C384 C 0.00067 0.83982 0.75816 0.0
N385 N 0.96735 0.83963 0.70498 0.0
C386 C 0.00051 0.84264 0.70514 0.0
C387 C 0.98391 0.8365 0.78393 0.0
C388 C 0.98352 0.84259 0.67898 0.0
C389 C 0.9672 0.83659 0.75645 0.0
C390 C 0.04219 0.89577 0.81275 0.0
C391 C 0.03186 0.90949 0.83797 0.0
C392 C 0.06024 0.8997 0.79587 0.0
C393 C 0.03985 0.927 0.84604 0.0
C394 C 0.06773 0.91738 0.80464 0.0
N395 N 0.05747 0.93055 0.82936 0.0
C396 C 0.9754 0.87794 0.8391 0.0
C397 C 0.99194 0.88758 0.76482 0.0
C398 C 0.95988 0.88837 0.82413 0.0
N399 N 0.99095 0.87776 0.80928 0.0
C400 C 0.9769 0.89833 0.74878 0.0
C401 C 0.96073 0.89881 0.77874 0.0
H402 H 0.97505 0.87005 0.87435 0.0
H403 H 0.0045 0.88709 0.74197 0.0
C404 C 0.07308 0.85136 0.71437 0.0
N405 N 0.05486 0.85621 0.72018 0.0
C406 C 0.08351 0.85888 0.67409 0.0
C407 C 0.05605 0.87558 0.64598 0.0
C408 C 0.04618 0.86776 0.68651 0.0
C409 C 0.07504 0.87161 0.64066 0.0
H410 H 0.07992 0.84291 0.74298 0.0
H411 H 0.032 0.87212 0.69368 0.0
O412 O 0.01815 0.85857 0.8974 0.0
O413 O 0.05435 0.84283 0.84367 0.0
O414 O 0.01712 0.84029 0.78468 0.0
O415 O 0.03485 0.87839 0.80582 0.0
H416 H 0.0393 0.8541 0.97981 0.0
H417 H 0.98559 0.84217 0.91405 0.0
H418 H 0.02953 0.83769 0.059 0.0
H419 H 0.97679 0.82594 0.99432 0.0
H420 H 0.10357 0.80374 0.86324 0.0
H421 H 0.04451 0.81755 0.77409 0.0
H422 H 0.08621 0.83259 0.88534 0.0
H423 H 0.06253 0.78902 0.75416 0.0
H424 H 0.04361 0.78993 0.98341 0.0
H425 H 0.99587 0.77596 0.89045 0.0
H426 H 0.05895 0.90749 0.01542 0.0
H427 H 0.10489 0.88676 0.92487 0.0
H428 H 0.01336 0.84476 0.68432 0.0
H429 H 0.98376 0.83426 0.8249 0.0
H430 H 0.98319 0.84486 0.63799 0.0
H431 H 0.95412 0.8343 0.77606 0.0
H432 H 0.01791 0.90659 0.85157 0.0
H433 H 0.06846 0.8891 0.77691 0.0
H434 H 0.03206 0.93776 0.86568 0.0
H435 H 0.08172 0.9206 0.792 0.0
H436 H 0.94752 0.8886 0.84798 0.0
H437 H 0.97789 0.9063 0.7136 0.0
H438 H 0.09827 0.85589 0.67123 0.0
H439 H 0.04929 0.88563 0.62117 0.0
Li440 Li 0.65834 0.02173 0.36406 0.0
Li441 Li 0.62737 0.03455 0.38353 0.0
Li442 Li 0.6304 0.00479 0.33694 0.0
Li443 Li 0.63895 0.0334 0.29699 0.0
C444 C 0.64436 0.99524 0.43356 0.0
N445 N 0.65734 0.96413 0.4847 0.0
C446 C 0.6396 0.9923 0.48487 0.0
C447 C 0.65574 0.98237 0.40824 0.0
C448 C 0.64629 0.97647 0.51006 0.0
C449 C 0.66216 0.96673 0.43477 0.0
C450 C 0.66095 0.06182 0.34379 0.0
C451 C 0.66734 0.09478 0.33962 0.0
N452 N 0.68457 0.09102 0.32043 0.0
C453 C 0.67875 0.05829 0.3243 0.0
C454 C 0.65522 0.08021 0.35183 0.0
C455 C 0.69047 0.07324 0.31264 0.0
C456 C 0.69604 0.00942 0.37435 0.0
N457 N 0.68182 0.01942 0.39504 0.0
C458 C 0.69974 0.02636 0.46954 0.0
C459 C 0.68331 0.02783 0.44151 0.0
C460 C 0.71463 0.01617 0.4492 0.0
C461 C 0.71282 0.00767 0.40105 0.0
H462 H 0.69427 0.00272 0.33755 0.0
H463 H 0.67161 0.03553 0.45686 0.0
C464 C 0.59537 0.04718 0.43815 0.0
N465 N 0.61413 0.04881 0.43213 0.0
C466 C 0.58597 0.05885 0.47232 0.0
C467 C 0.61544 0.07328 0.49395 0.0
C468 C 0.62424 0.06142 0.45928 0.0
C469 C 0.59611 0.07207 0.50035 0.0
H470 H 0.58773 0.03698 0.41607 0.0
H471 H 0.63915 0.06232 0.45363 0.0
C472 C 0.65832 0.00807 0.24676 0.0
N473 N 0.66779 0.00553 0.14424 0.0
C474 C 0.64615 -0.00035 0.21192 0.0
C475 C 0.67541 0.01499 0.22951 0.0
C476 C 0.65115 -0.00144 0.16024 0.0
C477 C 0.67992 0.01362 0.17752 0.0
C478 C 0.60041 0.03875 0.30922 0.0
C479 C 0.58306 0.03269 0.29156 0.0
C480 C 0.60398 0.05785 0.31336 0.0
C481 C 0.56952 0.04585 0.27848 0.0
C482 C 0.59005 0.07056 0.30016 0.0
N483 N 0.57327 0.06435 0.28306 0.0
C484 C 0.60036 0.98061 0.33537 0.0
C485 C 0.6281 0.96756 0.30103 0.0
C486 C 0.59003 0.96541 0.31826 0.0
N487 N 0.6189 0.9816 0.32528 0.0
C488 C 0.61826 0.95215 0.28275 0.0
C489 C 0.59894 0.9513 0.29029 0.0
H490 H 0.59346 0.99212 0.35429 0.0
H491 H 0.64283 0.96888 0.29311 0.0
C492 C 0.64463 0.06204 0.21873 0.0
N493 N 0.63625 0.04575 0.23227 0.0
C494 C 0.63848 0.07183 0.17557 0.0
C495 C 0.61614 0.0473 0.15947 0.0
C496 C 0.62267 0.03806 0.20269 0.0
C497 C 0.62366 0.06465 0.14671 0.0
H498 H 0.65536 0.068 0.24247 0.0
H499 H 0.61607 0.02522 0.2145 0.0
O500 O 0.63815 0.01085 0.40879 0.0
O501 O 0.6493 0.04741 0.35606 0.0
O502 O 0.65357 0.00941 0.29749 0.0
O503 O 0.61381 0.02597 0.3219 0.0
H504 H 0.63087 0.00218 0.50505 0.0
H505 H 0.6597 0.98448 0.36869 0.0
H506 H 0.64272 0.97401 0.5498 0.0
H507 H 0.671 0.95669 0.41568 0.0
H508 H 0.66307 0.10907 0.34548 0.0
H509 H 0.68346 0.0442 0.31814 0.0
H510 H 0.64154 0.0832 0.36726 0.0
H511 H 0.70426 0.0707 0.29739 0.0
H512 H 0.70085 0.03306 0.50664 0.0
H513 H 0.72418 -0.00029 0.38468 0.0
H514 H 0.57103 0.05759 0.47698 0.0
H515 H 0.62356 0.08331 0.51547 0.0
H516 H 0.6328 0.99433 0.22438 0.0
H517 H 0.68515 0.02128 0.2559 0.0
H518 H 0.64177 0.99224 0.13283 0.0
H519 H 0.69308 0.01898 0.16365 0.0
H520 H 0.58011 0.01796 0.28788 0.0
H521 H 0.61734 0.06281 0.32662 0.0
H522 H 0.55604 0.04135 0.2647 0.0
H523 H 0.59262 0.08537 0.30331 0.0
H524 H 0.57509 0.96512 0.32429 0.0
H525 H 0.62542 0.9415 0.26091 0.0
H526 H 0.64447 0.08528 0.16646 0.0
H527 H 0.6046 0.04151 0.13794 0.0
Li528 Li 0.47479 0.65806 0.85942 0.0
Li529 Li 0.46426 0.62851 0.88909 0.0
Li530 Li 0.4904 0.63149 0.82704 0.0
Li531 Li 0.45887 0.63715 0.79983 0.0
C532 C 0.49771 0.64944 0.93691 0.0
N533 N 0.5146 0.67012 0.01323 0.0
C534 C 0.48893 0.65174 0.98435 0.0
C535 C 0.51517 0.65749 0.92851 0.0
C536 C 0.49765 0.66232 0.02235 0.0
C537 C 0.52345 0.66795 0.9675 0.0
C538 C 0.43588 0.66233 0.84968 0.0
C539 C 0.40556 0.67652 0.85855 0.0
N540 N 0.41035 0.68947 0.82285 0.0
C541 C 0.44048 0.6758 0.81301 0.0
C542 C 0.41828 0.6627 0.87264 0.0
C543 C 0.42739 0.6894 0.80002 0.0
C544 C 0.48933 0.6954 0.86793 0.0
N545 N 0.47713 0.68246 0.88596 0.0
C546 C 0.46814 0.70232 0.95496 0.0
C547 C 0.46646 0.68569 0.92809 0.0
C548 C 0.48084 0.71574 0.93794 0.0
C549 C 0.49139 0.71238 0.89361 0.0
H550 H 0.49768 0.69241 0.83445 0.0
H551 H 0.45702 0.67503 0.94171 0.0
C552 C 0.45865 0.59854 0.95947 0.0
N553 N 0.45415 0.61626 0.94654 0.0
C554 C 0.45095 0.59043 0.00337 0.0
C555 C 0.43357 0.6186 0.01786 0.0
C556 C 0.44152 0.62613 0.97388 0.0
C557 C 0.43926 0.60096 0.03632 0.0
H558 H 0.46804 0.59063 0.93537 0.0
H559 H 0.43765 0.63997 0.9615 0.0
C560 C 0.49459 0.65669 0.75174 0.0
N561 N 0.52258 0.66313 0.68114 0.0
C562 C 0.49107 0.65463 0.69933 0.0
C563 C 0.51223 0.66233 0.76817 0.0
C564 C 0.50543 0.65788 0.66425 0.0
C565 C 0.52623 0.66542 0.73192 0.0
C566 C 0.457 0.59925 0.8222 0.0
C567 C 0.46285 0.58221 0.80191 0.0
C568 C 0.43853 0.60144 0.83816 0.0
C569 C 0.45011 0.56755 0.79828 0.0
C570 C 0.42626 0.58641 0.83428 0.0
N571 N 0.43225 0.56992 0.81454 0.0
C572 C 0.5267 0.61573 0.83575 0.0
C573 C 0.51248 0.61414 0.75371 0.0
C574 C 0.54163 0.60489 0.81857 0.0
N575 N 0.51245 0.61988 0.80338 0.0
C576 C 0.52723 0.60359 0.73474 0.0
C577 C 0.54173 0.59846 0.76777 0.0
H578 H 0.52607 0.62015 0.87536 0.0
H579 H 0.50069 0.61718 0.72935 0.0
C580 C 0.42426 0.63466 0.74345 0.0
N581 N 0.44299 0.63168 0.74391 0.0
C582 C 0.41313 0.62587 0.70669 0.0
C583 C 0.44086 0.61161 0.67125 0.0
C584 C 0.45141 0.62076 0.70821 0.0
C585 C 0.42149 0.61377 0.67128 0.0
H586 H 0.41777 0.64283 0.77326 0.0
H587 H 0.46623 0.61817 0.7107 0.0
O588 O 0.48936 0.63913 0.8992 0.0
O589 O 0.44843 0.64886 0.86344 0.0
O590 O 0.48074 0.65336 0.78664 0.0
O591 O 0.46941 0.61363 0.82651 0.0
H592 H 0.47546 0.64556 0.99166 0.0
H593 H 0.52232 0.65562 0.89239 0.0
H594 H 0.49095 0.66432 0.0591 0.0
H595 H 0.53694 0.67431 0.96145 0.0
H596 H 0.39189 0.67693 0.87597 0.0
H597 H 0.454 0.67586 0.7948 0.0
H598 H 0.41442 0.65234 0.90088 0.0
H599 H 0.43078 0.69991 0.77178 0.0
H600 H 0.45983 0.70462 0.98908 0.0
H601 H 0.50128 0.72261 0.87975 0.0
H602 H 0.454 0.57592 0.00946 0.0
H603 H 0.42279 0.62671 0.03616 0.0
H604 H 0.47741 0.65059 0.68587 0.0
H605 H 0.51514 0.6641 0.80849 0.0
H606 H 0.50294 0.65625 0.6236 0.0
H607 H 0.54001 0.66962 0.74416 0.0
H608 H 0.47709 0.58034 0.78919 0.0
H609 H 0.4337 0.61458 0.85353 0.0
H610 H 0.45443 0.55427 0.78268 0.0
H611 H 0.41195 0.58788 0.84667 0.0
H612 H 0.55258 0.60095 0.84501 0.0
H613 H 0.52686 0.59863 0.69551 0.0
H614 H 0.39814 0.62758 0.70772 0.0
H615 H 0.44761 0.60222 0.64455 0.0
Li616 Li 0.83905 0.47186 0.36358 0.0
Li617 Li 0.8697 0.45976 0.38583 0.0
Li618 Li 0.86529 0.48912 0.33347 0.0
Li619 Li 0.85865 0.45959 0.29646 0.0
C620 C 0.84991 0.49253 0.44549 0.0
N621 N 0.83113 0.50894 0.52618 0.0
C622 C 0.85341 0.48679 0.4958 0.0
C623 C 0.83698 0.50669 0.43622 0.0
C624 C 0.84375 0.49527 0.53608 0.0
C625 C 0.82757 0.51477 0.47753 0.0
C626 C 0.8353 0.43362 0.33976 0.0
C627 C 0.82271 0.40249 0.33575 0.0
N628 N 0.80878 0.40873 0.30487 0.0
C629 C 0.82094 0.43969 0.3076 0.0
C630 C 0.83627 0.41484 0.35366 0.0
C631 C 0.80764 0.42691 0.29054 0.0
C632 C 0.79948 0.47857 0.37009 0.0
N633 N 0.81505 0.47218 0.39403 0.0
C634 C 0.79792 0.46586 0.47049 0.0
C635 C 0.81444 0.46537 0.44263 0.0
C636 C 0.78171 0.47267 0.44721 0.0
C637 C 0.78246 0.47883 0.39614 0.0
H638 H 0.80025 0.48333 0.33085 0.0
H639 H 0.82693 0.4598 0.45999 0.0
C640 C 0.90042 0.45255 0.45162 0.0
N641 N 0.8831 0.44703 0.43699 0.0
C642 C 0.91035 0.44212 0.48764 0.0
C643 C 0.88424 0.42085 0.49325 0.0
C644 C 0.8748 0.43172 0.45744 0.0
C645 C 0.90223 0.42601 0.50824 0.0
H646 H 0.90659 0.46484 0.43463 0.0
H647 H 0.8609 0.42791 0.44561 0.0
C648 C 0.84107 0.49775 0.26422 0.0
N649 N 0.83883 0.52992 0.20627 0.0
C650 C 0.85338 0.50065 0.22342 0.0
C651 C 0.8276 0.51121 0.27548 0.0
C652 C 0.85204 0.51701 0.19464 0.0
C653 C 0.82668 0.52738 0.2457 0.0
C654 C 0.89649 0.45917 0.29502 0.0
C655 C 0.90135 0.46573 0.24628 0.0
C656 C 0.90548 0.44343 0.31471 0.0
C657 C 0.91525 0.45658 0.21847 0.0
C658 C 0.91915 0.43454 0.28543 0.0
N659 N 0.92375 0.44128 0.23838 0.0
C660 C 0.86677 0.5293 0.328 0.0
C661 C 0.89357 0.51275 0.30043 0.0
C662 C 0.87481 0.5462 0.31305 0.0
N663 N 0.87608 0.51299 0.3204 0.0
C664 C 0.90201 0.5292 0.28453 0.0
C665 C 0.89247 0.54607 0.2901 0.0
H666 H 0.85299 0.5292 0.34452 0.0
H667 H 0.90093 0.49977 0.29634 0.0
C668 C 0.85454 0.4511 0.18961 0.0
N669 N 0.86048 0.44491 0.2361 0.0
C670 C 0.86036 0.44207 0.14488 0.0
C671 C 0.87705 0.41983 0.19733 0.0
C672 C 0.87043 0.4289 0.24082 0.0
C673 C 0.87274 0.42698 0.14877 0.0
H674 H 0.84616 0.46356 0.18704 0.0
H675 H 0.87441 0.424 0.27845 0.0
O676 O 0.85896 0.4841 0.40559 0.0
O677 O 0.84863 0.44583 0.35661 0.0
O678 O 0.84235 0.48191 0.29328 0.0
O679 O 0.88326 0.46825 0.32362 0.0
H680 H 0.86337 0.47582 0.50356 0.0
H681 H 0.83387 0.51104 0.39749 0.0
H682 H 0.84626 0.49093 0.5752 0.0
H683 H 0.81736 0.52559 0.47088 0.0
H684 H 0.82329 0.38792 0.3463 0.0
H685 H 0.82005 0.45407 0.29569 0.0
H686 H 0.84745 0.4098 0.37778 0.0
H687 H 0.79643 0.43144 0.26578 0.0
H688 H 0.79772 0.46084 0.50965 0.0
H689 H 0.77007 0.4839 0.37699 0.0
H690 H 0.92423 0.44641 0.49894 0.0
H691 H 0.87763 0.40855 0.50904 0.0
H692 H 0.86405 0.49053 0.21456 0.0
H693 H 0.81813 0.50938 0.30731 0.0
H694 H 0.86157 0.51949 0.16323 0.0
H695 H 0.81638 0.53795 0.25415 0.0
H696 H 0.8945 0.47778 0.23003 0.0
H697 H 0.90179 0.4379 0.35183 0.0
H698 H 0.91932 0.46167 0.1811 0.0
H699 H 0.92612 0.42229 0.30016 0.0
H700 H 0.86727 0.55913 0.31841 0.0
H701 H 0.91583 0.52878 0.26781 0.0
H702 H 0.85647 0.44762 0.10778 0.0
H703 H 0.88627 0.40798 0.20157 0.0
Li704 Li 0.9669 0.36747 0.89397 0.0
Li705 Li 0.98125 0.33931 0.86702 0.0
Li706 Li 0.99789 0.36918 0.85407 0.0
Li707 Li 0.9705 0.3604 0.80302 0.0
C708 C 0.99688 0.36513 0.96438 0.0
N709 N 0.00951 0.38145 0.05389 0.0
C710 C 0.99668 0.35512 0.01039 0.0
C711 C 0.00366 0.38338 0.96391 0.0
C712 C 0.00307 0.36364 0.05524 0.0
C713 C 0.00995 0.3914 0.00953 0.0
C714 C 0.94565 0.33133 0.86289 0.0
C715 C 0.93537 0.30087 0.836 0.0
N716 N 0.92732 0.29824 0.88268 0.0
C717 C 0.93714 0.32839 0.91045 0.0
C718 C 0.94463 0.31753 0.82519 0.0
C719 C 0.92798 0.31155 0.91974 0.0
C720 C 0.93138 0.37813 0.92292 0.0
N721 N 0.94929 0.37833 0.94011 0.0
C722 C 0.93993 0.39389 0.01683 0.0
C723 C 0.95378 0.38604 0.98611 0.0
C724 C 0.92141 0.39385 -0.00023 0.0
C725 C 0.91713 0.38597 0.95217 0.0
H726 H 0.92819 0.37199 0.88611 0.0
H727 H 0.968 0.38627 -0.0009 0.0
C728 C 0.99282 0.30102 0.85958 0.0
N729 N 0.9845 0.31444 0.88844 0.0
C730 C 0.99519 0.28309 0.87959 0.0
C731 C 0.98034 0.29335 0.95806 0.0
C732 C 0.97842 0.31099 0.93682 0.0
C733 C 0.9888 0.27924 0.92933 0.0
H734 H 0.99775 0.30428 0.82144 0.0
H735 H 0.97203 0.32202 0.95886 0.0
C736 C 0.96486 0.39969 0.84511 0.0
N737 N 0.94208 0.43016 0.86213 0.0
C738 C 0.94726 0.40065 0.8223 0.0
C739 C 0.97089 0.41431 0.87642 0.0
C740 C 0.93596 0.41616 0.83136 0.0
C741 C 0.95916 0.42956 0.88464 0.0
C742 C -0.00117 0.34483 0.75528 0.0
C743 C 0.01114 0.35656 0.7291 0.0
C744 C 0.99006 0.33032 0.72898 0.0
C745 C 0.01428 0.35371 0.67682 0.0
C746 C 0.99354 0.32794 0.67668 0.0
N747 N 0.00547 0.3396 0.65189 0.0
C748 C 0.03737 0.37178 0.85068 0.0
C749 C 0.02036 0.3988 0.82666 0.0
C750 C 0.05401 0.37991 0.83395 0.0
N751 N 0.02102 0.38123 0.84589 0.0
C752 C 0.03657 0.40742 0.80971 0.0
C753 C 0.05349 0.39778 0.81225 0.0
H754 H 0.03731 0.35762 0.86492 0.0
H755 H 0.0071 0.40572 0.82201 0.0
C756 C 0.94274 0.35896 0.72525 0.0
N757 N 0.95998 0.36525 0.73818 0.0
C758 C 0.93337 0.36679 0.68352 0.0
C759 C 0.96014 0.38655 0.668 0.0
C760 C 0.96889 0.3785 0.71014 0.0
C761 C 0.94198 0.3811 0.65557 0.0
H762 H 0.93576 0.3489 0.7494 0.0
H763 H 0.98225 0.38373 0.72272 0.0
O764 O 0.99087 0.35688 0.92005 0.0
O765 O 0.95505 0.34755 0.85344 0.0
O766 O 0.97592 0.38434 0.83789 0.0
O767 O 0.99538 0.34753 0.80636 0.0
H768 H 0.99167 0.34093 0.01155 0.0
H769 H 0.00389 0.39136 0.92893 0.0
H770 H 0.00293 0.35607 0.09111 0.0
H771 H 0.01514 0.40555 0.00968 0.0
H772 H 0.93459 0.29002 0.8073 0.0
H773 H 0.93788 0.33887 0.94021 0.0
H774 H 0.95099 0.31963 0.78807 0.0
H775 H 0.92148 0.30903 0.95652 0.0
H776 H 0.94361 0.40005 0.05337 0.0
H777 H 0.90296 0.38592 0.9379 0.0
H778 H 0.00188 0.27239 0.8568 0.0
H779 H 0.97536 0.29073 0.99663 0.0
H780 H 0.94216 0.3894 0.7987 0.0
H781 H 0.98444 0.41391 0.89443 0.0
H782 H 0.92226 0.41699 0.81418 0.0
H783 H 0.96363 0.44092 0.90899 0.0
H784 H 0.01808 0.36787 0.74868 0.0
H785 H 0.98062 0.32102 0.7487 0.0
H786 H 0.02369 0.36275 0.65605 0.0
H787 H 0.98676 0.31682 0.6558 0.0
H788 H 0.06693 0.37214 0.83587 0.0
H789 H 0.03583 0.42119 0.79276 0.0
H790 H 0.91923 0.36255 0.67496 0.0
H791 H 0.96694 0.39777 0.64744 0.0
Li792 Li 0.13155 0.96294 0.37379 0.0
Li793 Li 0.16037 0.97849 0.3507 0.0
Li794 Li 0.12986 0.9919 0.3291 0.0
Li795 Li 0.14049 0.96494 0.28365 0.0
C796 C 0.13637 0.98641 0.44863 0.0
N797 N 0.1276 0.9821 0.55114 0.0
C798 C 0.15052 0.98423 0.48494 0.0
C799 C 0.11777 0.98669 0.46457 0.0
C800 C 0.1458 0.98202 0.53657 0.0
C801 C 0.11361 0.98438 0.51653 0.0
C802 C 0.15658 0.9338 0.33051 0.0
C803 C 0.17698 0.90819 0.30949 0.0
N804 N 0.16215 0.8964 0.31029 0.0
C805 C 0.14157 0.92139 0.33144 0.0
C806 C 0.17446 0.92713 0.31974 0.0
C807 C 0.14465 0.90256 0.32098 0.0
C808 C 0.10367 0.94107 0.42237 0.0
N809 N 0.12182 0.94645 0.4236 0.0
C810 C 0.128 0.92631 0.4944 0.0
C811 C 0.13403 0.93927 0.45822 0.0
C812 C 0.1093 0.92074 0.49433 0.0
C813 C 0.09703 0.92816 0.45791 0.0
H814 H 0.09445 0.94655 0.39337 0.0
H815 H 0.14848 0.94354 0.45734 0.0
C816 C 0.19359 -0.00098 0.37108 0.0
N817 N 0.18447 0.98253 0.37647 0.0
C818 C 0.2103 0.00205 0.39733 0.0
C819 C 0.2078 0.97102 0.43321 0.0
C820 C 0.19133 0.96852 0.40598 0.0
C821 C 0.21722 0.98803 0.42959 0.0
H822 H 0.18759 0.00995 0.34778 0.0
H823 H 0.18353 0.95572 0.41008 0.0
C824 C 0.09921 0.97523 0.29634 0.0
N825 N 0.06568 0.98821 0.25832 0.0
C826 C 0.09694 0.9781 0.24366 0.0
C827 C 0.08446 0.97911 0.32967 0.0
C828 C 0.07989 0.98468 0.22522 0.0
C829 C 0.06759 0.98556 0.30969 0.0
C830 C 0.16709 0.99072 0.25048 0.0
C831 C 0.16812 0.00485 0.21372 0.0
C832 C 0.18123 0.97737 0.25322 0.0
C833 C 0.18328 0.00534 0.18011 0.0
C834 C 0.19618 0.97835 0.219 0.0
N835 N 0.19688 0.99219 0.18343 0.0
C836 C 0.10774 0.02358 0.35684 0.0
C837 C 0.11426 0.01935 0.26835 0.0
C838 C 0.09597 0.03856 0.34567 0.0
N839 N 0.11624 0.01413 0.31815 0.0
C840 C 0.10243 0.034 0.25542 0.0
C841 C 0.09291 0.04348 0.29431 0.0
H842 H 0.10965 0.01915 0.39609 0.0
H843 H 0.12125 0.01156 0.23851 0.0
C844 C 0.12354 0.93906 0.22357 0.0
N845 N 0.1378 0.9515 0.22116 0.0
C846 C 0.11747 0.92994 0.17971 0.0
C847 C 0.14133 0.94596 0.13123 0.0
C848 C 0.14691 0.95494 0.17631 0.0
C849 C 0.12613 0.93368 0.13283 0.0
H850 H 0.11617 0.93698 0.2592 0.0
H851 H 0.15793 0.96513 0.17475 0.0
O852 O 0.14068 0.9881 0.39771 0.0
O853 O 0.15392 0.95231 0.3409 0.0
O854 O 0.11576 0.96861 0.31515 0.0
O855 O 0.15238 0.99022 0.28382 0.0
H856 H 0.16499 0.98419 0.47346 0.0
H857 H 0.10665 0.98833 0.437 0.0
H858 H 0.15661 0.98021 0.56503 0.0
H859 H 0.09927 0.98435 0.5293 0.0
H860 H 0.19075 0.90286 0.30101 0.0
H861 H 0.12764 0.92622 0.33978 0.0
H862 H 0.18631 0.93645 0.31951 0.0
H863 H 0.13313 0.89283 0.32138 0.0
H864 H 0.13774 0.92072 0.52214 0.0
H865 H 0.08253 0.92397 0.45703 0.0
H866 H 0.21739 0.01531 0.39396 0.0
H867 H 0.2129 0.95999 0.45785 0.0
H868 H 0.10827 0.97556 0.21724 0.0
H869 H 0.08598 0.97724 0.37056 0.0
H870 H 0.07798 0.98702 0.18458 0.0
H871 H 0.05605 0.98859 0.33507 0.0
H872 H 0.15731 0.01533 0.2112 0.0
H873 H 0.18066 0.96633 0.28125 0.0
H874 H 0.18425 0.01618 0.15141 0.0
H875 H 0.20721 0.96808 0.22068 0.0
H876 H 0.08872 0.04569 0.37637 0.0
H877 H 0.10029 0.03754 0.21548 0.0
H878 H 0.10566 0.92057 0.18196 0.0
H879 H 0.14823 0.94909 0.09531 0.0
Li880 Li 0.52006 0.15735 0.86638 0.0
Li881 Li 0.53552 0.1297 0.88599 0.0
Li882 Li 0.53136 0.1387 0.7976 0.0
Li883 Li 0.50433 0.12703 0.84784 0.0
C884 C 0.55391 0.1683 0.86063 0.0
N885 N 0.56835 0.20307 0.88269 0.0
C886 C 0.55805 0.17318 0.91126 0.0
C887 C 0.55709 0.18112 0.82125 0.0
C888 C 0.56532 0.19083 0.92163 0.0
C889 C 0.5644 0.19863 0.83319 0.0
C890 C 0.51093 0.12899 0.96204 0.0
C891 C 0.49886 0.10508 0.01799 0.0
N892 N 0.51048 0.11101 0.05581 0.0
C893 C 0.52268 0.13491 0.00163 0.0
C894 C 0.49887 0.11399 0.97035 0.0
C895 C 0.52228 0.1256 0.04868 0.0
C896 C 0.5141 0.197 0.8605 0.0
N897 N 0.51514 0.18176 0.8914 0.0
C898 C 0.51101 0.20049 0.96608 0.0
C899 C 0.51329 0.18318 0.94309 0.0
C900 C 0.51038 0.21646 0.93544 0.0
C901 C 0.51163 0.21469 0.88195 0.0
H902 H 0.51555 0.19547 0.81949 0.0
H903 H 0.51393 0.17088 0.96665 0.0
C904 C 0.5705 0.12455 0.93256 0.0
N905 N 0.55295 0.11744 0.92995 0.0
C906 C 0.58369 0.11656 0.96504 0.0
C907 C 0.5608 0.09351 0.98978 0.0
C908 C 0.54808 0.10189 0.95664 0.0
C909 C 0.5787 0.10105 0.9945 0.0
H910 H 0.57425 0.13649 0.9096 0.0
H911 H 0.53423 0.09616 0.9528 0.0
C912 C 0.50202 0.15361 0.75395 0.0
N913 N 0.49471 0.16045 0.65165 0.0
C914 C 0.48833 0.14336 0.72827 0.0
C915 C 0.51185 0.16746 0.72772 0.0
C916 C 0.48487 0.14701 0.67653 0.0
C917 C 0.508 0.17066 0.67597 0.0
C918 C 0.53861 0.09886 0.82981 0.0
C919 C 0.55722 0.10067 0.81476 0.0
C920 C 0.53217 0.08175 0.84836 0.0
C921 C 0.56909 0.08531 0.81841 0.0
C922 C 0.54448 0.06671 0.85133 0.0
N923 N 0.56253 0.06878 0.83643 0.0
C924 C 0.5588 0.14086 0.71792 0.0
C925 C 0.53213 0.122 0.70329 0.0
C926 C 0.56765 0.13319 0.67509 0.0
N927 N 0.54152 0.13484 0.73157 0.0
C928 C 0.54045 0.11397 0.66047 0.0
C929 C 0.55861 0.11913 0.64721 0.0
H930 H 0.56627 0.15042 0.7424 0.0
H931 H 0.51875 0.11696 0.71636 0.0
C932 C 0.46527 0.12102 0.85388 0.0
N933 N 0.48195 0.11384 0.83891 0.0
C934 C 0.4487 0.1121 0.8399 0.0
C935 C 0.467 0.08855 0.79647 0.0
C936 C 0.48311 0.09795 0.81085 0.0
C937 C 0.44961 0.09575 0.81057 0.0
H938 H 0.46484 0.13397 0.87509 0.0
H939 H 0.49652 0.093 0.79785 0.0
O940 O 0.54667 0.1511 0.84977 0.0
O941 O 0.51105 0.13792 0.91562 0.0
O942 O 0.50582 0.15007 0.80444 0.0
O943 O 0.52692 0.11391 0.82802 0.0
H944 H 0.55549 0.16352 0.9423 0.0
H945 H 0.55384 0.17767 0.78193 0.0
H946 H 0.5685 0.19483 0.96065 0.0
H947 H 0.56689 0.2087 0.80311 0.0
H948 H 0.48964 0.09342 0.02485 0.0
H949 H 0.53232 0.14629 0.99585 0.0
H950 H 0.48966 0.1092 0.94035 0.0
H951 H 0.53143 0.12992 0.07941 0.0
H952 H 0.51 0.20147 0.00745 0.0
H953 H 0.51113 0.22686 0.85742 0.0
H954 H 0.5975 0.12256 0.96786 0.0
H955 H 0.55666 0.08145 0.01203 0.0
H956 H 0.4805 0.13266 0.7479 0.0
H957 H 0.52251 0.17548 0.74693 0.0
H958 H 0.47437 0.13913 0.65614 0.0
H959 H 0.5156 0.18124 0.65511 0.0
H960 H 0.56254 0.11389 0.80128 0.0
H961 H 0.51791 0.08018 0.86113 0.0
H962 H 0.58354 0.08654 0.80711 0.0
H963 H 0.53971 0.05341 0.86577 0.0
H964 H 0.58184 0.13714 0.66605 0.0
H965 H 0.53331 0.10294 0.64 0.0
H966 H 0.4354 0.11804 0.85076 0.0
H967 H 0.46805 0.07606 0.77327 0.0
Li968 Li 0.33448 0.51918 0.355 0.0
Li969 Li 0.36371 0.52828 0.39533 0.0
Li970 Li 0.36016 0.5317 0.30626 0.0
Li971 Li 0.36416 0.50108 0.34049 0.0
C972 C 0.34577 0.56243 0.3455 0.0
N973 N 0.34716 0.59906 0.31276 0.0
C974 C 0.35868 0.57481 0.36683 0.0
C975 C 0.33346 0.56879 0.30782 0.0
C976 C 0.35919 0.59324 0.34972 0.0
C977 C 0.33442 0.58732 0.29167 0.0
C978 C 0.35209 0.50213 0.45597 0.0
C979 C 0.37104 0.49333 0.52832 0.0
N980 N 0.3572 0.49889 0.56053 0.0
C981 C 0.33802 0.50771 0.48973 0.0
C982 C 0.36871 0.49482 0.47529 0.0
C983 C 0.34088 0.50597 0.5425 0.0
C984 C 0.30318 0.49995 0.38773 0.0
N985 N 0.30914 0.5169 0.37126 0.0
C986 C 0.28173 0.53159 0.40335 0.0
C987 C 0.29871 0.53253 0.37745 0.0
C988 C 0.27584 0.51449 0.42363 0.0
C989 C 0.28641 0.49841 0.41442 0.0
H990 H 0.31213 0.48792 0.38355 0.0
H991 H 0.30413 0.54588 0.36536 0.0
C992 C 0.39172 0.54119 0.46226 0.0
N993 N 0.37303 0.53993 0.45478 0.0
C994 C 0.39872 0.55276 0.50065 0.0
C995 C 0.36707 0.56076 0.5242 0.0
C996 C 0.36068 0.54914 0.48516 0.0
C997 C 0.38628 0.56292 0.53118 0.0
H998 H 0.40114 0.53385 0.43708 0.0
H999 H 0.34591 0.54815 0.47737 0.0
C1000 C 0.33589 0.51075 0.24381 0.0
N1001 N 0.31752 0.51369 0.15105 0.0
C1002 C 0.3423 0.50089 0.20101 0.0
C1003 C 0.31996 0.52182 0.2396 0.0
C1004 C 0.33286 0.50264 0.15441 0.0
C1005 C 0.31092 0.52321 0.19233 0.0
C1006 C 0.39651 0.51783 0.30962 0.0
C1007 C 0.39259 0.51052 0.26111 0.0
C1008 C 0.415 0.52135 0.32335 0.0
C1009 C 0.40721 0.5068 0.22727 0.0
C1010 C 0.42925 0.51742 0.28844 0.0
N1011 N 0.42509 0.51029 0.24151 0.0
C1012 C 0.38365 0.55802 0.27062 0.0
C1013 C 0.36451 0.54746 0.2024 0.0
C1014 C 0.39475 0.56802 0.23689 0.0
N1015 N 0.36916 0.54763 0.25302 0.0
C1016 C 0.37531 0.5574 0.167 0.0
C1017 C 0.39088 0.56737 0.18446 0.0
H1018 H 0.38726 0.55766 0.31083 0.0
H1019 H 0.35304 0.53907 0.18904 0.0
C1020 C 0.36518 0.46611 0.29296 0.0
N1021 N 0.37439 0.47746 0.32611 0.0
C1022 C 0.37439 0.45101 0.27067 0.0
C1023 C 0.40192 0.45907 0.31952 0.0
C1024 C 0.39213 0.47384 0.34132 0.0
C1025 C 0.39319 0.44797 0.28246 0.0
H1026 H 0.35112 0.46949 0.28135 0.0
H1027 H 0.39911 0.48323 0.36744 0.0
O1028 O 0.34524 0.54422 0.36123 0.0
O1029 O 0.34977 0.50416 0.40427 0.0
O1030 O 0.34489 0.50913 0.28985 0.0
O1031 O 0.38239 0.52182 0.34337 0.0
H1032 H 0.36847 0.57022 0.39561 0.0
H1033 H 0.32333 0.55952 0.29092 0.0
H1034 H 0.3692 0.6029 0.36567 0.0
H1035 H 0.32504 0.59237 0.26234 0.0
H1036 H 0.38388 0.4878 0.54386 0.0
H1037 H 0.32514 0.51355 0.47541 0.0
H1038 H 0.37976 0.49055 0.44959 0.0
H1039 H 0.33016 0.51032 0.5691 0.0
H1040 H 0.27387 0.54422 0.41032 0.0
H1041 H 0.28222 0.48508 0.4301 0.0
H1042 H 0.41364 0.55423 0.50547 0.0
H1043 H 0.35721 0.56853 0.54729 0.0
H1044 H 0.35444 0.492 0.20362 0.0
H1045 H 0.31457 0.52919 0.27247 0.0
H1046 H 0.33773 0.49518 0.12093 0.0
H1047 H 0.29861 0.53181 0.18851 0.0
H1048 H 0.37843 0.50782 0.24962 0.0
H1049 H 0.41835 0.5271 0.36055 0.0
H1050 H 0.40433 0.5012 0.18959 0.0
H1051 H 0.44362 0.52008 0.29863 0.0
H1052 H 0.40672 0.57557 0.25133 0.0
H1053 H 0.37208 0.5567 0.12649 0.0
H1054 H 0.36737 0.44259 0.24212 0.0
H1055 H 0.41644 0.45696 0.32926 0.0
Li1056 Li 0.95798 0.14323 0.21133 0.0
Li1057 Li 0.98675 0.13096 0.17179 0.0
Li1058 Li 0.97316 0.15804 0.13956 0.0
Li1059 Li 0.95796 0.12917 0.12198 0.0
C1060 C 0.99315 0.1703 0.21434 0.0
N1061 N 0.01295 0.20327 0.2176 0.0
C1062 C 0.01143 0.17096 0.19596 0.0
C1063 C 0.98499 0.18632 0.2349 0.0
C1064 C 0.0212 0.18779 0.19783 0.0
C1065 C 0.99522 0.20288 0.23606 0.0
C1066 C 0.96888 0.09994 0.20203 0.0
C1067 C 0.97884 0.06889 0.17977 0.0
N1068 N 0.98018 0.06462 0.23046 0.0
C1069 C 0.97052 0.0953 0.25387 0.0
C1070 C 0.97316 0.08667 0.16463 0.0
C1071 C 0.97621 0.07736 0.26748 0.0
C1072 C 0.92578 0.13751 0.26774 0.0
N1073 N 0.94413 0.14191 0.27221 0.0
C1074 C 0.94469 0.13164 0.35907 0.0
C1075 C 0.95349 0.13993 0.31714 0.0
C1076 C 0.92622 0.12556 0.35405 0.0
C1077 C 0.91639 0.12941 0.30888 0.0
H1078 H 0.91898 0.13863 0.23086 0.0
H1079 H 0.96825 0.14293 0.31867 0.0
C1080 C 0.01877 0.10831 0.15596 0.0
N1081 N 0.00842 0.11788 0.19077 0.0
C1082 C 0.03371 0.09736 0.1724 0.0
C1083 C 0.02709 0.10663 0.25982 0.0
C1084 C 0.01242 0.1175 0.24169 0.0
C1085 C 0.03771 0.09628 0.22495 0.0
H1086 H 0.01507 0.10877 0.11578 0.0
H1087 H 0.00377 0.12518 0.26832 0.0
C1088 C 0.93413 0.16711 0.14748 0.0
N1089 N 0.90937 0.19661 0.14734 0.0
C1090 C 0.92359 0.17102 0.10371 0.0
C1091 C 0.93184 0.17802 0.19146 0.0
C1092 C 0.91123 0.18606 0.10431 0.0
C1093 C 0.91931 0.19291 0.19055 0.0
C1094 C 0.98204 0.13974 0.04672 0.0
C1095 C 0.96703 0.14968 0.02632 0.0
C1096 C 0.99589 0.13295 0.01398 0.0
C1097 C 0.96614 0.15274 0.9735 0.0
C1098 C 0.99449 0.13627 0.96132 0.0
N1099 N 0.97978 0.14602 0.94234 0.0
C1100 C 0.99511 0.18136 0.07762 0.0
C1101 C 0.9686 0.19673 0.11151 0.0
C1102 C -0.00072 0.19669 0.04684 0.0
N1103 N 0.97956 0.18134 0.10758 0.0
C1104 C 0.97232 0.21242 0.08176 0.0
C1105 C 0.98751 0.2122 0.04807 0.0
H1106 H 0.00401 0.16922 0.07638 0.0
H1107 H 0.95679 0.19685 0.13683 0.0
C1108 C 0.92383 0.11858 0.08171 0.0
N1109 N 0.94248 0.11566 0.077 0.0
C1110 C 0.91144 0.11007 0.04788 0.0
C1111 C 0.93768 0.09527 0.00602 0.0
C1112 C 0.94959 0.10421 0.04037 0.0
C1113 C 0.91841 0.09834 0.0095 0.0
H1114 H 0.91864 0.12777 0.11128 0.0
H1115 H 0.96449 0.10227 0.03736 0.0
O1116 O 0.98319 0.15413 0.2112 0.0
O1117 O 0.96316 0.11738 0.18793 0.0
O1118 O 0.94609 0.15225 0.14788 0.0
O1119 O 0.98329 0.13655 0.09839 0.0
H1120 H 0.0179 0.15867 0.17978 0.0
H1121 H 0.97087 0.18601 0.2494 0.0
H1122 H 0.03531 0.18856 0.18336 0.0
H1123 H 0.98905 0.21543 0.25154 0.0
H1124 H 0.98221 0.05848 0.15124 0.0
H1125 H 0.96746 0.10545 0.28331 0.0
H1126 H 0.97221 0.0901 0.12437 0.0
H1127 H 0.97747 0.07357 0.30747 0.0
H1128 H 0.95263 0.12858 0.39338 0.0
H1129 H 0.90219 0.1246 0.30393 0.0
H1130 H 0.04162 0.0893 0.14483 0.0
H1131 H 0.02981 0.10587 0.30062 0.0
H1132 H 0.92485 0.16251 0.06964 0.0
H1133 H 0.93978 0.17516 0.22576 0.0
H1134 H 0.90306 0.1893 0.07063 0.0
H1135 H 0.9175 0.20154 0.22419 0.0
H1136 H 0.95626 0.15509 0.051 0.0
H1137 H 0.0076 0.12522 0.02912 0.0
H1138 H 0.95462 0.16048 0.95729 0.0
H1139 H 0.00512 0.13111 0.93555 0.0
H1140 H 0.01123 0.19629 0.02149 0.0
H1141 H 0.96315 0.22438 0.08382 0.0
H1142 H 0.89663 0.11275 0.05116 0.0
H1143 H 0.94341 0.08635 0.97645 0.0
Li1144 Li 0.3663 0.99217 0.67065 0.0
Li1145 Li 0.35557 0.96208 0.70725 0.0
Li1146 Li 0.36478 0.96397 0.61961 0.0
Li1147 Li 0.33643 0.97815 0.64486 0.0
C1148 C 0.39621 0.95939 0.66856 0.0
N1149 N 0.42772 0.93963 0.64095 0.0
C1150 C 0.39808 0.94069 0.68252 0.0
C1151 C 0.41043 0.96808 0.64078 0.0
C1152 C 0.4141 0.93093 0.66819 0.0
C1153 C 0.42623 0.95784 0.62709 0.0
C1154 C 0.32859 0.98671 0.74587 0.0
C1155 C 0.30263 0.9702 0.78315 0.0
N1156 N 0.29782 0.98583 0.80954 0.0
C1157 C 0.3234 0.00259 0.77333 0.0
C1158 C 0.31815 0.97036 0.75078 0.0
C1159 C 0.3078 0.00187 0.80534 0.0
C1160 C 0.37022 0.03109 0.68571 0.0
N1161 N 0.37871 0.0142 0.68961 0.0
C1162 C 0.4052 0.02779 0.72996 0.0
C1163 C 0.39581 0.01227 0.71122 0.0
C1164 C 0.39677 0.04535 0.72685 0.0
C1165 C 0.37909 0.04705 0.70442 0.0
H1166 H 0.35645 0.03206 0.66907 0.0
H1167 H 0.40199 -0.0014 0.71487 0.0
C1168 C 0.35614 0.92924 0.76784 0.0
N1169 N 0.35833 0.94806 0.76741 0.0
C1170 C 0.36407 0.91871 0.80728 0.0
C1171 C 0.37509 0.9473 0.84619 0.0
C1172 C 0.36699 0.95725 0.80617 0.0
C1173 C 0.37426 0.92782 0.8457 0.0
H1174 H 0.3497 0.92236 0.7355 0.0
H1175 H 0.3689 0.97217 0.80373 0.0
C1176 C 0.36375 0.99689 0.55807 0.0
N1177 N 0.37921 0.01253 0.47102 0.0
C1178 C 0.35391 0.99677 0.51179 0.0
C1179 C 0.38132 0.00528 0.56021 0.0
C1180 C 0.36201 0.00465 0.46816 0.0
C1181 C 0.38893 0.01303 0.51576 0.0
C1182 C 0.33266 0.94189 0.61106 0.0
C1183 C 0.33194 0.94894 0.56115 0.0
C1184 C 0.3231 0.92549 0.62299 0.0
C1185 C 0.32158 0.93952 0.524 0.0
C1186 C 0.31291 0.91645 0.58474 0.0
N1187 N 0.31235 0.9236 0.53646 0.0
C1188 C 0.37501 0.93012 0.57588 0.0
C1189 C 0.38721 0.95576 0.5294 0.0
C1190 C 0.38312 0.91759 0.54172 0.0
N1191 N 0.37691 0.94882 0.56884 0.0
C1192 C 0.39575 0.9437 0.49459 0.0
C1193 C 0.39361 0.92441 0.5006 0.0
H1194 H 0.36729 0.9249 0.60841 0.0
H1195 H 0.38902 0.97056 0.52504 0.0
C1196 C 0.31076 0.0001 0.59323 0.0
N1197 N 0.31233 0.98423 0.62137 0.0
C1198 C 0.2947 0.00343 0.56459 0.0
C1199 C 0.28187 0.97449 0.59674 0.0
C1200 C 0.29807 0.97184 0.62528 0.0
C1201 C 0.28042 0.99013 0.56484 0.0
H1202 H 0.3224 0.00961 0.59074 0.0
H1203 H 0.29972 0.95936 0.648 0.0
O1204 O 0.38038 0.96903 0.68112 0.0
O1205 O 0.34377 0.98729 0.71419 0.0
O1206 O 0.35586 0.98953 0.60136 0.0
O1207 O 0.34245 0.95102 0.64847 0.0
H1208 H 0.38716 0.93367 0.70353 0.0
H1209 H 0.40924 0.98252 0.62952 0.0
H1210 H 0.41566 0.91642 0.67852 0.0
H1211 H 0.43729 0.96436 0.60535 0.0
H1212 H 0.29441 0.95766 0.78728 0.0
H1213 H 0.33135 0.01536 0.76986 0.0
H1214 H 0.32192 0.95792 0.72983 0.0
H1215 H 0.30361 0.01407 0.82683 0.0
H1216 H 0.41878 0.02611 0.74749 0.0
H1217 H 0.37225 0.06047 0.70195 0.0
H1218 H 0.36346 0.90364 0.80583 0.0
H1219 H 0.38304 0.95461 0.87519 0.0
H1220 H 0.34011 0.99075 0.50953 0.0
H1221 H 0.38908 0.0057 0.59561 0.0
H1222 H 0.35459 0.00456 0.43207 0.0
H1223 H 0.40256 0.01945 0.51684 0.0
H1224 H 0.33928 0.96154 0.55126 0.0
H1225 H 0.32349 0.91988 0.6615 0.0
H1226 H 0.32086 0.94488 0.48527 0.0
H1227 H 0.30541 0.90377 0.59346 0.0
H1228 H 0.38133 0.90275 0.54744 0.0
H1229 H 0.40391 0.94933 0.46324 0.0
H1230 H 0.29387 0.01562 0.54022 0.0
H1231 H 0.27096 0.96406 0.59762 0.0
Li1232 Li 0.50362 0.3707 0.15487 0.0
Li1233 Li 0.53013 0.35868 0.20635 0.0
Li1234 Li 0.53476 0.36758 0.1193 0.0
Li1235 Li 0.5176 0.3402 0.13659 0.0
C1236 C 0.5371 0.3991 0.17053 0.0
N1237 N 0.55931 0.43006 0.15551 0.0
C1238 C 0.55496 0.39981 0.19174 0.0
C1239 C 0.53044 0.41421 0.14216 0.0
C1240 C 0.566 0.41557 0.18362 0.0
C1241 C 0.54191 0.42972 0.13484 0.0
C1242 C 0.50188 0.33305 0.23136 0.0
C1243 C 0.51408 0.3067 0.27788 0.0
N1244 N 0.49654 0.30244 0.29386 0.0
C1245 C 0.48399 0.32843 0.24823 0.0
C1246 C 0.51707 0.32213 0.24629 0.0
C1247 C 0.48157 0.31289 0.27983 0.0
C1248 C 0.46531 0.37959 0.13906 0.0
N1249 N 0.48139 0.38411 0.16372 0.0
C1250 C 0.4658 0.40693 0.21427 0.0
C1251 C 0.48197 0.39751 0.20042 0.0
C1252 C 0.44899 0.40243 0.19007 0.0
C1253 C 0.44875 0.3888 0.15156 0.0
H1254 H 0.46532 0.36863 0.11059 0.0
H1255 H 0.49495 0.40051 0.21982 0.0
C1256 C 0.55816 0.35695 0.28263 0.0
N1257 N 0.5401 0.36125 0.27239 0.0
C1258 C 0.5668 0.3644 0.32601 0.0
C1259 C 0.53773 0.37951 0.34843 0.0
C1260 C 0.52965 0.37174 0.30484 0.0
C1261 C 0.55667 0.37641 0.35807 0.0
H1262 H 0.56621 0.34906 0.25509 0.0
H1263 H 0.51548 0.3753 0.29458 0.0
C1264 C 0.50654 0.36865 0.04229 0.0
N1265 N 0.49806 0.38567 0.9501 0.0
C1266 C 0.50925 0.35914 0.99607 0.0
C1267 C 0.4993 0.38674 0.04157 0.0
C1268 C 0.50495 0.36802 0.94988 0.0
C1269 C 0.49515 0.39511 0.99459 0.0
C1270 C 0.55513 0.33426 0.1221 0.0
C1271 C 0.55159 0.33388 0.06942 0.0
C1272 C 0.56973 0.32364 0.14216 0.0
C1273 C 0.56273 0.32287 0.03762 0.0
C1274 C 0.58056 0.3128 0.1091 0.0
N1275 N 0.57686 0.31263 0.05795 0.0
C1276 C 0.57161 0.37615 0.09422 0.0
C1277 C 0.55014 0.38852 0.03413 0.0
C1278 C 0.5866 0.38334 0.06647 0.0
N1279 N 0.5538 0.37864 0.07745 0.0
C1280 C 0.56469 0.39588 0.00511 0.0
C1281 C 0.5831 0.39317 0.02122 0.0
H1282 H 0.57418 0.36861 0.1294 0.0
H1283 H 0.53602 0.39082 0.02192 0.0
C1284 C 0.49936 0.31574 0.07167 0.0
N1285 N 0.51202 0.31638 0.1104 0.0
C1286 C 0.49717 0.2995 0.04306 0.0
C1287 C 0.52022 0.28456 0.09698 0.0
C1288 C 0.52206 0.30115 0.12437 0.0
C1289 C 0.50801 0.28388 0.05503 0.0
H1290 H 0.49164 0.32812 0.06143 0.0
H1291 H 0.53218 0.30215 0.15494 0.0
O1292 O 0.52628 0.38357 0.17693 0.0
O1293 O 0.50439 0.34817 0.2002 0.0
O1294 O 0.5104 0.36003 0.08789 0.0
O1295 O 0.54425 0.3447 0.15429 0.0
H1296 H 0.56038 0.3882 0.2135 0.0
H1297 H 0.5166 0.41397 0.12585 0.0
H1298 H 0.57991 0.41625 0.19949 0.0
H1299 H 0.53698 0.44147 0.11271 0.0
H1300 H 0.5257 0.29811 0.28965 0.0
H1301 H 0.47209 0.33675 0.23696 0.0
H1302 H 0.53101 0.32545 0.23352 0.0
H1303 H 0.4678 0.30913 0.29318 0.0
H1304 H 0.46631 0.41744 0.24407 0.0
H1305 H 0.43589 0.38512 0.13234 0.0
H1306 H 0.58151 0.36196 0.33245 0.0
H1307 H 0.52967 0.38886 0.37234 0.0
H1308 H 0.51456 0.34503 0.99577 0.0
H1309 H 0.49705 0.39432 0.07674 0.0
H1310 H 0.50705 0.36084 0.91385 0.0
H1311 H 0.48964 0.40914 0.99351 0.0
H1312 H 0.54038 0.34198 0.05328 0.0
H1313 H 0.5726 0.32372 0.18291 0.0
H1314 H 0.56012 0.32244 0.99679 0.0
H1315 H 0.59188 0.30449 0.12412 0.0
H1316 H 0.60072 0.3812 0.07991 0.0
H1317 H 0.56165 0.4036 0.97042 0.0
H1318 H 0.4877 0.29932 0.01072 0.0
H1319 H 0.52881 0.27268 0.10679 0.0
Li1320 Li 0.13494 0.53387 0.70695 0.0
Li1321 Li 0.12625 0.50489 0.66248 0.0
Li1322 Li 0.15446 0.52322 0.63836 0.0
Li1323 Li 0.12446 0.53506 0.61816 0.0
C1324 C 0.1542 0.50742 0.75353 0.0
N1325 N 0.16374 0.50276 0.85536 0.0
C1326 C 0.14315 0.49639 0.7856 0.0
C1327 C 0.17023 0.51588 0.77308 0.0
C1328 C 0.14817 0.49426 0.83701 0.0
C1329 C 0.17478 0.51341 0.82472 0.0
C1330 C 0.09382 0.53543 0.67303 0.0
C1331 C 0.06306 0.53743 0.63612 0.0
N1332 N 0.06097 0.55468 0.65689 0.0
C1333 C 0.09133 0.55316 0.69411 0.0
C1334 C 0.07954 0.52746 0.6439 0.0
C1335 C 0.07464 0.56267 0.68552 0.0
C1336 C 0.13702 0.56315 0.78098 0.0
N1337 N 0.13121 0.54549 0.77095 0.0
C1338 C 0.11001 0.54623 0.84132 0.0
C1339 C 0.1184 0.53677 0.8009 0.0
C1340 C 0.11485 0.5648 0.85054 0.0
C1341 C 0.12902 0.57315 0.82143 0.0
H1342 H 0.14668 0.56997 0.75531 0.0
H1343 H 0.11352 0.52302 0.7906 0.0
C1344 C 0.12604 0.46538 0.67127 0.0
N1345 N 0.11595 0.48131 0.67671 0.0
C1346 C 0.11901 0.44851 0.68995 0.0
C1347 C 0.09135 0.4649 0.71818 0.0
C1348 C 0.09889 0.48135 0.69923 0.0
C1349 C 0.10157 0.44836 0.71423 0.0
H1350 H 0.13977 0.46593 0.65422 0.0
H1351 H 0.09145 0.49431 0.70428 0.0
C1352 C 0.16003 0.55973 0.64003 0.0
N1353 N 0.19098 0.58105 0.61707 0.0
C1354 C 0.16094 0.56951 0.59372 0.0
C1355 C 0.17474 0.561 0.67491 0.0
C1356 C 0.17674 0.58017 0.58276 0.0
C1357 C 0.19031 0.57179 0.66252 0.0
C1358 C 0.12726 0.50454 0.54968 0.0
C1359 C 0.13604 0.50634 0.50207 0.0
C1360 C 0.11011 0.49537 0.55287 0.0
C1361 C 0.1274 0.49914 0.45836 0.0
C1362 C 0.10192 0.48835 0.5083 0.0
N1363 N 0.11066 0.49038 0.46234 0.0
C1364 C 0.19268 0.51167 0.63079 0.0
C1365 C 0.17984 0.52882 0.56146 0.0
C1366 C 0.20944 0.50948 0.60406 0.0
N1367 N 0.17836 0.5212 0.60896 0.0
C1368 C 0.19631 0.52721 0.53383 0.0
C1369 C 0.21125 0.51732 0.55497 0.0
H1370 H 0.19093 0.50545 0.66825 0.0
H1371 H 0.16803 0.53589 0.54469 0.0
C1372 C 0.11036 0.56911 0.58861 0.0
N1373 N 0.11109 0.55105 0.57281 0.0
C1374 C 0.1014 0.58254 0.55892 0.0
C1375 C 0.09416 0.55859 0.49682 0.0
C1376 C 0.10302 0.54555 0.52813 0.0
C1377 C 0.09348 0.57728 0.51214 0.0
H1378 H 0.11685 0.57311 0.62437 0.0
H1379 H 0.10346 0.53119 0.51642 0.0
O1380 O 0.14941 0.50985 0.70321 0.0
O1381 O 0.11032 0.52615 0.67969 0.0
O1382 O 0.14482 0.54896 0.65109 0.0
O1383 O 0.13566 0.51132 0.59292 0.0
H1384 H 0.13071 0.4897 0.77118 0.0
H1385 H 0.17909 0.52421 0.74863 0.0
H1386 H 0.13967 0.48587 0.86233 0.0
H1387 H 0.18711 0.51994 0.84041 0.0
H1388 H 0.05194 0.53146 0.61345 0.0
H1389 H 0.10232 0.5597 0.71591 0.0
H1390 H 0.08117 0.51379 0.62715 0.0
H1391 H 0.0726 0.57646 0.70126 0.0
H1392 H 0.09896 0.53957 0.86291 0.0
H1393 H 0.13279 0.58759 0.8275 0.0
H1394 H 0.12721 0.43589 0.68681 0.0
H1395 H 0.0779 0.46514 0.73709 0.0
H1396 H 0.14971 0.56865 0.56616 0.0
H1397 H 0.17417 0.55368 0.71109 0.0
H1398 H 0.1777 0.58768 0.5469 0.0
H1399 H 0.20185 0.57279 0.68905 0.0
H1400 H 0.14939 0.51321 0.49881 0.0
H1401 H 0.10311 0.49377 0.58921 0.0
H1402 H 0.13402 0.50049 0.42127 0.0
H1403 H 0.08862 0.4813 0.51024 0.0
H1404 H 0.22078 0.50167 0.62107 0.0
H1405 H 0.1973 0.5333 0.4959 0.0
H1406 H 0.10094 0.59688 0.57175 0.0
H1407 H 0.08794 0.55417 0.46098 0.0
C1408 C 0.02337 0.73093 0.98737 0.0
C1409 C 0.01425 0.73238 0.03552 0.0
C1410 C 0.00612 0.76485 0.01765 0.0
C1411 C 0.01671 0.76388 0.97177 0.0
N1412 N 0.03699 0.74698 0.9146 0.0
N1413 N -0.00149 0.75073 0.09961 0.0
C1414 C 0.02574 0.74716 0.95696 0.0
C1415 C 0.006 0.74935 0.05153 0.0
N1416 N 0.02937 0.71393 0.97027 0.0
N1417 N 0.99594 0.78049 0.02822 0.0
H1418 H 0.99784 0.7395 0.12496 0.0
H1419 H 0.9941 0.76322 0.11587 0.0
H1420 H 0.99587 0.79214 0.00435 0.0
H1421 H 0.98645 0.78147 0.05828 0.0
H1422 H 0.03419 0.71155 0.9332 0.0
H1423 H 0.0283 0.70176 0.99195 0.0
H1424 H 0.04574 0.73593 0.90518 0.0
H1425 H 0.03854 0.75843 0.89033 0.0
C1426 C 0.74646 0.02797 0.47048 0.0
C1427 C 0.73218 0.01465 0.47853 0.0
C1428 C 0.75016 0.00021 0.5478 0.0
C1429 C 0.76493 0.01277 0.53747 0.0
N1430 N 0.77857 0.03697 0.48529 0.0
N1431 N 0.72085 0.98677 0.51961 0.0
C1432 C 0.76348 0.02622 0.49775 0.0
C1433 C 0.73415 0.00036 0.51574 0.0
N1434 N 0.74353 0.04259 0.43776 0.0
N1435 N 0.75131 0.98848 0.58903 0.0
H1436 H 0.70876 0.98668 0.49742 0.0
H1437 H 0.72233 0.97488 0.54207 0.0
H1438 H 0.76301 0.98781 0.6127 0.0
H1439 H 0.74028 0.98036 0.60209 0.0
H1440 H 0.75244 0.05397 0.43475 0.0
H1441 H 0.73145 0.04403 0.41585 0.0
H1442 H 0.77915 0.04546 0.45298 0.0
H1443 H 0.79115 0.03648 0.50527 0.0
C1444 C 0.49492 0.74879 0.04445 0.0
C1445 C 0.48384 0.76452 0.0322 0.0
C1446 C 0.47146 0.74862 0.95638 0.0
C1447 C 0.48304 0.73316 0.96759 0.0
N1448 N 0.50802 0.71934 0.01621 0.0
N1449 N 0.46413 0.78106 0.97263 0.0
C1450 C 0.49549 0.73351 0.00982 0.0
C1451 C 0.47287 0.76493 0.98692 0.0
N1452 N 0.5044 0.74827 0.08992 0.0
N1453 N 0.45872 0.74747 0.91751 0.0
H1454 H 0.46452 0.79322 0.99451 0.0
H1455 H 0.45765 0.7829 0.93729 0.0
H1456 H 0.4578 0.73602 0.893 0.0
H1457 H 0.4483 0.75731 0.91135 0.0
H1458 H 0.51109 0.73645 0.10389 0.0
H1459 H 0.50454 0.7594 0.11568 0.0
H1460 H 0.51869 0.71954 0.04321 0.0
H1461 H 0.5087 0.70793 0.99157 0.0
C1462 C 0.74125 0.45668 0.52996 0.0
C1463 C 0.73108 0.4735 0.53579 0.0
C1464 C 0.75516 0.49023 0.48786 0.0
C1465 C 0.76398 0.47301 0.47649 0.0
N1466 N 0.76292 0.43937 0.47742 0.0
N1467 N 0.72637 0.50561 0.51104 0.0
C1468 C 0.7563 0.45607 0.49485 0.0
C1469 C 0.73746 0.49013 0.51216 0.0
N1470 N 0.73692 0.44145 0.55911 0.0
N1471 N 0.76395 0.50669 0.47729 0.0
H1472 H 0.71308 0.50599 0.52716 0.0
H1473 H 0.72964 0.51746 0.48977 0.0
H1474 H 0.77717 0.50739 0.46076 0.0
H1475 H 0.75891 0.51955 0.48955 0.0
H1476 H 0.74507 0.42943 0.55978 0.0
H1477 H 0.72636 0.44152 0.58659 0.0
H1478 H 0.75658 0.42668 0.4859 0.0
H1479 H 0.77353 0.43831 0.45022 0.0
C1480 C 0.97827 0.24625 0.94035 0.0
C1481 C 0.991 0.26061 0.95275 0.0
C1482 C 0.00344 0.24204 0.0239 0.0
C1483 C 0.99029 0.2279 0.01221 0.0
N1484 N 0.96681 0.21552 0.9543 0.0
N1485 N 0.01852 0.2708 0.99746 0.0
C1486 C 0.97846 0.22956 0.96884 0.0
C1487 C 0.00453 0.25803 0.99178 0.0
N1488 N 0.96556 0.24856 0.90185 0.0
N1489 N 0.01414 0.24061 0.06709 0.0
H1490 H 0.01966 0.28259 0.97425 0.0
H1491 H 0.02984 0.26899 0.02189 0.0
H1492 H 0.01395 0.22894 0.09092 0.0
H1493 H 0.02242 0.25136 0.08116 0.0
H1494 H 0.95585 0.23831 0.89226 0.0
H1495 H 0.96463 0.26068 0.87992 0.0
H1496 H 0.96614 0.20255 0.97235 0.0
H1497 H 0.96614 0.20255 0.97235 0.0
C1498 C 0.24742 -0.00107 0.54506 0.0
C1499 C 0.26473 0.99161 0.5283 0.0
C1500 C 0.25138 0.98382 0.44448 0.0
C1501 C 0.23404 0.99107 0.46129 0.0
N1502 N 0.21574 0.00793 0.52343 0.0
N1503 N 0.28437 0.97942 0.46104 0.0
C1504 C 0.23215 -0.00054 0.51033 0.0
C1505 C 0.26709 0.98484 0.47752 0.0
N1506 N 0.2455 0.00481 0.59469 0.0
N1507 N 0.25257 0.97538 0.39752 0.0
H1508 H 0.29605 0.97906 0.48481 0.0
H1509 H 0.28756 0.97626 0.42312 0.0
H1510 H 0.24159 0.97528 0.37129 0.0
H1511 H 0.26403 0.96776 0.38507 0.0
H1512 H 0.23283 0.00833 0.61149 0.0
H1513 H 0.25662 0.00535 0.62041 0.0
H1514 H 0.2139 0.01591 0.55633 0.0
H1515 H 0.20408 0.00803 0.49961 0.0
C1516 C 0.4923 0.23978 0.98654 0.0
C1517 C 0.50896 0.23494 0.96043 0.0
C1518 C 0.52348 0.26398 0.98891 0.0
C1519 C 0.50786 0.26741 0.02092 0.0
N1520 N 0.47808 0.25781 0.05469 0.0
N1521 N 0.54135 0.24112 0.94182 0.0
C1522 C 0.49236 0.25517 0.02076 0.0
C1523 C 0.52479 0.24675 0.96262 0.0
N1524 N 0.47637 0.22982 0.97787 0.0
N1525 N 0.53685 0.27738 0.98275 0.0
H1526 H 0.54295 0.22861 0.9221 0.0
H1527 H 0.55387 0.24815 0.94764 0.0
H1528 H 0.5363 0.29029 0.00108 0.0
H1529 H 0.54753 0.27641 0.95583 0.0
H1530 H 0.46336 0.23373 0.99191 0.0
H1531 H 0.47586 0.21857 0.95257 0.0
H1532 H 0.46739 0.24821 0.06025 0.0
H1533 H 0.47765 0.26895 0.08036 0.0
C1534 C 0.26117 0.52237 0.50794 0.0
C1535 C 0.2597 0.51383 0.459 0.0
C1536 C 0.2279 0.50397 0.47909 0.0
C1537 C 0.22848 0.51491 0.52441 0.0
N1538 N 0.24481 0.53666 0.57889 0.0
N1539 N 0.24111 0.49821 0.39507 0.0
C1540 C 0.24492 0.52463 0.53825 0.0
C1541 C 0.24293 0.50498 0.4438 0.0
N1542 N 0.27819 0.5279 0.52599 0.0
N1543 N 0.21315 0.49236 0.47037 0.0
H1544 H 0.25183 0.49875 0.36807 0.0
H1545 H 0.22853 0.49346 0.38008 0.0
H1546 H 0.20201 0.49108 0.49587 0.0
H1547 H 0.21279 0.48271 0.44056 0.0
H1548 H 0.28034 0.53246 0.56344 0.0
H1549 H 0.29051 0.5262 0.50525 0.0
H1550 H 0.25579 0.54568 0.58704 0.0
H1551 H 0.23315 0.5388 0.60204 0.0
C1552 C 0.09508 0.5861 0.97263 0.0
C1553 C 0.07782 0.59289 0.95372 0.0
C1554 C 0.08682 0.5846 0.86617 0.0
C1555 C 0.10314 0.57597 0.88575 0.0
N1556 N 0.12254 0.56714 0.95703 0.0
N1557 N 0.05615 0.59722 0.88414 0.0
C1558 C 0.10726 0.57641 0.93886 0.0
C1559 C 0.07342 0.59187 0.90085 0.0
N1560 N 0.09993 0.58925 0.0226 0.0
N1561 N 0.08426 0.58602 0.81435 0.0
H1562 H 0.04607 0.60293 0.90831 0.0
H1563 H 0.05125 0.5948 0.84718 0.0
H1564 H 0.09364 0.58061 0.7877 0.0
H1565 H 0.0737 0.59385 0.79753 0.0
H1566 H 0.11307 0.5864 0.03751 0.0
H1567 H 0.09121 0.59606 0.04858 0.0
H1568 H 0.12519 0.56504 0.99583 0.0
H1569 H 0.13214 0.56057 0.93302 0.0
C1570 C 0.92142 0.09286 0.38408 0.0
C1571 C 0.91842 0.11224 0.39169 0.0
C1572 C 0.89979 0.10574 0.46831 0.0
C1573 C 0.90385 0.08649 0.46253 0.0
N1574 N 0.92045 0.06172 0.41998 0.0
N1575 N 0.90677 0.13757 0.443 0.0
C1576 C 0.91521 0.08004 0.4218 0.0
C1577 C 0.90817 0.11883 0.43443 0.0
N1578 N 0.9298 0.0867 0.34009 0.0
N1579 N 0.88757 0.11139 0.50545 0.0
H1580 H 0.91234 0.14749 0.41806 0.0
H1581 H 0.90121 0.14334 0.47627 0.0
H1582 H 0.88156 0.10221 0.53164 0.0
H1583 H 0.88242 0.1249 0.5084 0.0
H1584 H 0.93046 0.07274 0.32941 0.0
H1585 H 0.93499 0.09561 0.31197 0.0
H1586 H 0.93048 0.05655 0.39491 0.0
H1587 H 0.91577 0.05178 0.44619 0.0
C1588 C 0.39148 0.90089 0.96219 0.0
C1589 C 0.41089 0.90056 0.9517 0.0
C1590 C 0.40551 0.9149 0.86792 0.0
C1591 C 0.38642 0.91716 0.88088 0.0
N1592 N 0.36118 0.91384 0.94106 0.0
N1593 N 0.43692 0.90886 0.89778 0.0
C1594 C 0.37935 0.91049 0.92816 0.0
C1595 C 0.41807 0.9079 0.90527 0.0
N1596 N 0.38467 0.89168 0.00409 0.0
N1597 N 0.41156 0.91921 0.81959 0.0
H1598 H 0.44658 0.90367 0.92402 0.0
H1599 H 0.44308 0.91602 0.86749 0.0
H1600 H 0.40283 0.92465 0.79136 0.0
H1601 H 0.42481 0.91597 0.80597 0.0
H1602 H 0.37052 0.88975 0.01114 0.0
H1603 H 0.39321 0.88463 0.03001 0.0
H1604 H 0.35568 0.91126 0.9773 0.0
H1605 H 0.3518 0.92034 0.91627 0.0
C1606 C 0.56357 0.38404 0.45009 0.0
C1607 C 0.56633 0.3878 0.39727 0.0
C1608 C 0.58762 0.41331 0.41852 0.0
C1609 C 0.58353 0.41066 0.4712 0.0
N1610 N 0.56557 0.39554 0.53737 0.0
N1611 N 0.57797 0.4082 0.33083 0.0
C1612 C 0.57093 0.39656 0.48713 0.0
C1613 C 0.57753 0.40305 0.38132 0.0
N1614 N 0.55431 0.36827 0.46474 0.0
N1615 N 0.60155 0.42522 0.40407 0.0
H1616 H 0.57068 0.40117 0.3022 0.0
H1617 H 0.58419 0.42045 0.31792 0.0
H1618 H 0.60929 0.43304 0.43017 0.0
H1619 H 0.60654 0.42612 0.36664 0.0
H1620 H 0.55351 0.36372 0.50258 0.0
H1621 H 0.5487 0.35885 0.43847 0.0
H1622 H 0.55497 0.38685 0.55045 0.0
H1623 H 0.57065 0.40453 0.56552 0.0
C1624 C 0.11995 0.90576 0.07868 0.0
C1625 C 0.1183 0.92525 0.08574 0.0
C1626 C 0.09761 0.92719 0.01134 0.0
C1627 C 0.09681 0.90747 0.0099 0.0
N1628 N 0.10568 0.87769 0.04565 0.0
N1629 N 0.10417 0.95459 0.06227 0.0
C1630 C 0.10774 0.89662 0.04409 0.0
C1631 C 0.10693 0.93607 0.05263 0.0
N1632 N 0.1332 0.89604 0.10516 0.0
N1633 N 0.0896 0.93739 0.97294 0.0
H1634 H 0.11076 0.9617 0.09202 0.0
H1635 H 0.09428 0.96262 0.04312 0.0
H1636 H 0.08273 0.93126 0.94196 0.0
H1637 H 0.09127 0.95174 0.96927 0.0
H1638 H 0.13627 0.88209 0.09818 0.0
H1639 H 0.14237 0.90246 0.13072 0.0
H1640 H 0.11172 0.86932 0.07371 0.0
H1641 H 0.09667 0.8704 0.02153 0.0
C1642 C 0.57824 0.09142 0.62659 0.0
C1643 C 0.56898 0.10776 0.60944 0.0
C1644 C 0.57862 0.10139 0.52104 0.0
C1645 C 0.58661 0.08434 0.53772 0.0
N1646 N 0.5922 0.06173 0.60433 0.0
N1647 N 0.55848 0.12763 0.54092 0.0
C1648 C 0.58595 0.07898 0.58999 0.0
C1649 C 0.56867 0.11259 0.55676 0.0
N1650 N 0.57992 0.08798 0.678 0.0
N1651 N 0.58093 0.107 0.47132 0.0
H1652 H 0.55156 0.13646 0.56637 0.0
H1653 H 0.55592 0.13076 0.5026 0.0
H1654 H 0.58774 0.09891 0.44386 0.0
H1655 H 0.57722 0.12014 0.45789 0.0
H1656 H 0.58828 0.07751 0.69324 0.0
H1657 H 0.57405 0.0965 0.70607 0.0
H1658 H 0.59015 0.05608 0.64064 0.0
H1659 H 0.5983 0.05236 0.57875 0.0
C1660 C 0.4187 0.56524 0.12687 0.0
C1661 C 0.40423 0.57617 0.1487 0.0
C1662 C 0.4198 0.6043 0.11812 0.0
C1663 C 0.43118 0.59317 0.08586 0.0
N1664 N 0.45058 0.56625 0.09809 0.0
N1665 N 0.39116 0.6065 0.16645 0.0
C1666 C 0.43338 0.57428 0.10033 0.0
C1667 C 0.40489 0.59586 0.14506 0.0
N1668 N 0.41865 0.5463 0.13195 0.0
N1669 N 0.42495 0.62217 0.12879 0.0
H1670 H 0.37994 0.6008 0.18652 0.0
H1671 H 0.3902 0.62084 0.16052 0.0
H1672 H 0.43749 0.62768 0.11522 0.0
H1673 H 0.41818 0.63044 0.15588 0.0
H1674 H 0.42801 0.53774 0.1124 0.0
H1675 H 0.40854 0.5391 0.15274 0.0
H1676 H 0.45343 0.553 0.11243 0.0
H1677 H 0.46243 0.57411 0.08953 0.0
C1678 C 0.92088 0.40776 0.63494 0.0
C1679 C 0.93126 0.39211 0.61779 0.0
C1680 C 0.92371 0.3995 0.52851 0.0
C1681 C 0.91245 0.41449 0.54591 0.0
N1682 N 0.89815 0.43169 0.61489 0.0
N1683 N 0.94098 0.37146 0.55014 0.0
C1684 C 0.91041 0.41828 0.59896 0.0
C1685 C 0.93223 0.3875 0.56502 0.0
N1686 N 0.92148 0.41287 0.68548 0.0
N1687 N 0.92655 0.39705 0.47708 0.0
H1688 H 0.94764 0.36257 0.57595 0.0
H1689 H 0.94058 0.36621 0.51297 0.0
H1690 H 0.92015 0.40529 0.44923 0.0
H1691 H 0.93615 0.3877 0.46183 0.0
H1692 H 0.91612 0.42536 0.69943 0.0
H1693 H 0.92845 0.40518 0.71344 0.0
H1694 H 0.89433 0.43366 0.65301 0.0
H1695 H 0.89072 0.44015 0.58958 0.0
C1696 C 0.89354 0.39157 0.05804 0.0
C1697 C 0.90671 0.40269 0.03141 0.0
C1698 C 0.89611 0.43044 0.07723 0.0
C1699 C 0.88258 0.41942 0.10316 0.0
N1700 N 0.86511 0.39084 0.10835 0.0
N1701 N 0.91697 0.43312 0.00454 0.0
C1702 C 0.88021 0.40039 0.09018 0.0
C1703 C 0.90678 0.42229 0.03733 0.0
N1704 N 0.89434 0.37258 0.05472 0.0
N1705 N 0.89968 0.44829 0.09265 0.0
H1706 H 0.92491 0.42757 0.97469 0.0
H1707 H 0.91608 0.44761 0.00372 0.0
H1708 H 0.89245 0.45495 0.12201 0.0
H1709 H 0.91093 0.45604 0.07916 0.0
H1710 H 0.88646 0.36373 0.07779 0.0
H1711 H 0.90392 0.36557 0.03165 0.0
H1712 H 0.86168 0.37741 0.09655 0.0
H1713 H 0.85499 0.39707 0.13142 0.0
C1714 C 0.08954 0.87672 0.55418 0.0
C1715 C 0.08629 0.88298 0.60491 0.0
C1716 C 0.09867 0.91381 0.58361 0.0
C1717 C 0.10238 0.90743 0.53319 0.0
N1718 N 0.10493 0.88219 0.47263 0.0
N1719 N 0.09133 0.90575 0.67151 0.0
C1720 C 0.09893 0.88864 0.51912 0.0
C1721 C 0.09205 0.90099 0.62076 0.0
N1722 N 0.08311 0.85964 0.53921 0.0
N1723 N 0.10066 0.93229 0.59532 0.0
H1724 H 0.08647 0.89672 0.6998 0.0
H1725 H 0.09708 0.91794 0.68628 0.0
H1726 H 0.10561 0.94214 0.56927 0.0
H1727 H 0.09608 0.93818 0.62956 0.0
H1728 H 0.08308 0.85509 0.50131 0.0
H1729 H 0.07677 0.85033 0.56453 0.0
H1730 H 0.1045 0.86822 0.46199 0.0
H1731 H 0.11179 0.89062 0.44603 0.0
C1732 C 0.60065 0.08926 0.12238 0.0
C1733 C 0.61426 0.07602 0.10708 0.0
C1734 C 0.60515 0.07973 0.01717 0.0
C1735 C 0.59185 0.09326 0.03246 0.0
N1736 N 0.5793 0.11376 0.09708 0.0
N1737 N 0.63202 0.06097 0.04064 0.0
C1738 C 0.59038 0.09895 0.08434 0.0
C1739 C 0.61733 0.07201 0.05454 0.0
N1740 N 0.59691 0.0919 0.17331 0.0
N1741 N 0.60562 0.07382 0.96733 0.0
H1742 H 0.6411 0.0551 0.06739 0.0
H1743 H 0.63614 0.05884 0.00283 0.0
H1744 H 0.59717 0.07949 0.93878 0.0
H1745 H 0.61352 0.06255 0.95472 0.0
H1746 H 0.58555 0.09949 0.18677 0.0
H1747 H 0.60444 0.08549 0.20255 0.0
H1748 H 0.57919 0.11988 0.13326 0.0
H1749 H 0.57126 0.12098 0.07033 0.0
C1750 C 0.39725 0.59509 0.55231 0.0
C1751 C 0.39348 0.5766 0.56863 0.0
C1752 C 0.40438 0.58404 0.65512 0.0
C1753 C 0.4101 0.60184 0.63727 0.0
N1754 N 0.41303 0.62438 0.56936 0.0
N1755 N 0.39418 0.55276 0.63361 0.0
C1756 C 0.40669 0.60746 0.58604 0.0
C1757 C 0.39711 0.5709 0.61967 0.0
N1758 N 0.3916 0.60083 0.50476 0.0
N1759 N 0.4058 0.57982 0.7061 0.0
H1760 H 0.38829 0.54291 0.60907 0.0
H1761 H 0.39857 0.54709 0.66828 0.0
H1762 H 0.41136 0.58901 0.73295 0.0
H1763 H 0.40021 0.56787 0.72268 0.0
H1764 H 0.39215 0.6146 0.49238 0.0
H1765 H 0.38506 0.59201 0.47855 0.0
H1766 H 0.41304 0.62848 0.5311 0.0
H1767 H 0.41925 0.63408 0.59372 0.0
C1768 C 0.89695 0.08611 0.88121 0.0
C1769 C 0.88371 0.07236 0.89583 0.0
C1770 C 0.89326 0.07551 0.98557 0.0
C1771 C 0.90567 0.08999 0.97118 0.0
N1772 N 0.91581 0.11231 0.9079 0.0
N1773 N 0.86621 0.05708 0.9626 0.0
C1774 C 0.90639 0.09632 0.91977 0.0
C1775 C 0.8809 0.06804 0.94834 0.0
N1776 N 0.90134 0.08876 0.83071 0.0
N1777 N 0.89384 0.06835 0.03411 0.0
H1778 H 0.85674 0.05164 0.9362 0.0
H1779 H 0.86239 0.05489 0.00066 0.0
H1780 H 0.90279 0.07337 0.0624 0.0
H1781 H 0.88656 0.05645 0.04511 0.0
H1782 H 0.91246 0.09699 0.81864 0.0
H1783 H 0.89504 0.0815 0.80081 0.0
H1784 H 0.91517 0.11862 0.87196 0.0
H1785 H 0.92279 0.1203 0.93525 0.0
C1786 C 0.39526 0.91072 0.41244 0.0
C1787 C 0.40215 0.91136 0.46333 0.0
C1788 C 0.42461 0.88677 0.4429 0.0
C1789 C 0.41955 0.8881 0.39047 0.0
N1790 N 0.402 0.90368 0.32381 0.0
N1791 N 0.42508 0.90192 0.52586 0.0
C1792 C 0.40531 0.90063 0.37475 0.0
C1793 C 0.41725 0.89984 0.47843 0.0
N1794 N 0.3789 0.91942 0.40033 0.0
N1795 N 0.4362 0.87281 0.4588 0.0
H1796 H 0.42025 0.91153 0.55278 0.0
H1797 H 0.43736 0.89531 0.53688 0.0
H1798 H 0.44162 0.86285 0.43374 0.0
H1799 H 0.43898 0.87004 0.49725 0.0
H1800 H 0.37224 0.91778 0.36512 0.0
H1801 H 0.37101 0.92683 0.42708 0.0
H1802 H 0.39334 0.91426 0.31043 0.0
H1803 H 0.40912 0.8968 0.29458 0.0
C1804 C 0.60486 0.41916 0.99854 0.0
C1805 C 0.59854 0.40071 0.98994 0.0
C1806 C 0.61539 0.39932 0.90851 0.0
C1807 C 0.62068 0.41818 0.91551 0.0
N1808 N 0.62511 0.44445 0.97119 0.0
N1809 N 0.60148 0.3715 0.94528 0.0
C1810 C 0.61705 0.42752 0.96225 0.0
C1811 C 0.60517 0.39017 0.94778 0.0
N1812 N 0.59845 0.42892 0.03999 0.0
N1813 N 0.61914 0.3906 0.86304 0.0
H1814 H 0.59379 0.36453 0.9733 0.0
H1815 H 0.60726 0.36263 0.91801 0.0
H1816 H 0.6272 0.39668 0.83428 0.0
H1817 H 0.61367 0.37771 0.85274 0.0
H1818 H 0.60076 0.44309 0.04554 0.0
H1819 H 0.59003 0.42295 0.06816 0.0
H1820 H 0.62427 0.45151 0.00596 0.0
H1821 H 0.63409 0.45073 0.94482 0.0
C1822 C 0.09548 0.60216 0.44508 0.0
C1823 C 0.0844 0.59126 0.47876 0.0
C1824 C 0.05585 0.60404 0.44102 0.0
C1825 C 0.06689 0.6128 0.4029 0.0
N1826 N 0.09677 0.62148 0.36859 0.0
N1827 N 0.05445 0.58221 0.51224 0.0
C1828 C 0.08662 0.61252 0.40554 0.0
C1829 C 0.06466 0.59255 0.47823 0.0
N1830 N 0.11443 0.6024 0.45075 0.0
N1831 N 0.03697 0.60662 0.441 0.0
H1832 H 0.06052 0.57442 0.5416 0.0
H1833 H 0.04005 0.58076 0.51083 0.0
H1834 H 0.03014 0.61471 0.41361 0.0
H1835 H 0.02808 0.6019 0.46968 0.0
H1836 H 0.12328 0.6113 0.43083 0.0
H1837 H 0.12143 0.59437 0.47794 0.0
H1838 H 0.11111 0.62014 0.36401 0.0
H1839 H 0.09065 0.63002 0.34094 0.0
C1840 C 0.89805 0.56997 0.22203 0.0
C1841 C 0.90159 0.56343 0.27241 0.0
C1842 C 0.92782 0.58504 0.28117 0.0
C1843 C 0.92586 0.58965 0.22847 0.0
N1844 N 0.90908 0.58784 0.14879 0.0
N1845 N 0.91846 0.56505 0.35195 0.0
C1846 C 0.91075 0.58272 0.19911 0.0
C1847 C 0.91589 0.57135 0.30292 0.0
N1848 N 0.88265 0.56379 0.19625 0.0
N1849 N 0.94129 0.59356 0.30996 0.0
H1850 H 0.90926 0.55583 0.36974 0.0
H1851 H 0.92981 0.56844 0.37486 0.0
H1852 H 0.95084 0.60303 0.29484 0.0
H1853 H 0.94255 0.59218 0.34949 0.0
H1854 H 0.87831 0.56891 0.16094 0.0
H1855 H 0.87331 0.55422 0.21189 0.0
H1856 H 0.8997 0.58192 0.12316 0.0
H1857 H 0.91764 0.59785 0.13185 0.0
C1858 C 0.9182 0.91689 0.70714 0.0
C1859 C 0.91809 0.93565 0.72416 0.0
C1860 C 0.94382 0.92919 0.78343 0.0
C1861 C 0.94506 0.91092 0.76294 0.0
N1862 N 0.9344 0.88717 0.70464 0.0
N1863 N 0.93092 0.96032 0.7762 0.0
C1864 C 0.93243 0.90466 0.72479 0.0
C1865 C 0.93086 0.94195 0.76199 0.0
N1866 N 0.90455 0.91081 0.67458 0.0
N1867 N 0.95497 0.93424 0.82365 0.0
H1868 H 0.92106 0.96992 0.76339 0.0
H1869 H 0.94126 0.96642 0.79851 0.0
H1870 H 0.96519 0.92555 0.839 0.0
H1871 H 0.95339 0.94654 0.8443 0.0
H1872 H 0.90261 0.89693 0.66451 0.0
H1873 H 0.89426 0.91959 0.65991 0.0
H1874 H 0.92714 0.88238 0.67274 0.0
H1875 H 0.94407 0.87754 0.71848 0.0
C1876 C 0.56177 0.9305 0.20536 0.0
C1877 C 0.5617 0.91169 0.22217 0.0
C1878 C 0.58709 0.91839 0.28225 0.0
C1879 C 0.58754 0.93699 0.264 0.0
N1880 N 0.57913 0.9593 0.19881 0.0
N1881 N 0.57682 0.88663 0.26743 0.0
C1882 C 0.57612 0.94255 0.22239 0.0
C1883 C 0.57522 0.90528 0.25771 0.0
N1884 N 0.54757 0.93719 0.17565 0.0
N1885 N 0.59735 0.91349 0.32427 0.0
H1886 H 0.56841 0.8767 0.24962 0.0
H1887 H 0.58752 0.8809 0.2893 0.0
H1888 H 0.60631 0.92271 0.34289 0.0
H1889 H 0.596 0.90072 0.34285 0.0
H1890 H 0.54586 0.95129 0.16739 0.0
H1891 H 0.53652 0.929 0.16287 0.0
H1892 H 0.57244 0.96325 0.16506 0.0
H1893 H 0.58966 0.96846 0.21 0.0
C1894 C 0.56314 0.55337 0.71975 0.0
C1895 C 0.5823 0.55813 0.71859 0.0
C1896 C 0.57465 0.59019 0.74314 0.0
C1897 C 0.55583 0.58472 0.75056 0.0
N1898 N 0.5328 0.5602 0.75525 0.0
N1899 N 0.60685 0.58033 0.73443 0.0
C1900 C 0.55022 0.56606 0.74129 0.0
C1901 C 0.58825 0.57638 0.73151 0.0
N1902 N 0.55725 0.53684 0.69935 0.0
N1903 N 0.5794 0.6086 0.74595 0.0
H1904 H 0.61716 0.57061 0.72554 0.0
H1905 H 0.61207 0.59276 0.74914 0.0
H1906 H 0.56977 0.61905 0.75438 0.0
H1907 H 0.59249 0.61368 0.73582 0.0
H1908 H 0.54324 0.53349 0.69442 0.0
H1909 H 0.56631 0.52722 0.68261 0.0
H1910 H 0.52871 0.54628 0.75441 0.0
H1911 H 0.52298 0.56889 0.77247 0.0
C1912 C 0.09501 0.42943 0.79217 0.0
C1913 C 0.09394 0.4313 0.73814 0.0
C1914 C 0.07179 0.40547 0.73402 0.0
C1915 C 0.07012 0.40623 0.78814 0.0
N1916 N 0.08039 0.41787 0.86991 0.0
N1917 N 0.08226 0.42095 0.65644 0.0
C1918 C 0.08211 0.41763 0.81771 0.0
C1919 C 0.08291 0.41897 0.70854 0.0
N1920 N 0.10823 0.43918 0.8187 0.0
N1921 N 0.0625 0.39197 0.70731 0.0
H1922 H 0.09073 0.43031 0.63661 0.0
H1923 H 0.07283 0.41398 0.63299 0.0
H1924 H 0.05417 0.38199 0.72528 0.0
H1925 H 0.06423 0.38962 0.66823 0.0
H1926 H 0.11081 0.43742 0.85767 0.0
H1927 H 0.11777 0.44797 0.8006 0.0
H1928 H 0.08711 0.42742 0.89354 0.0
H1929 H 0.07152 0.40885 0.88964 0.0
C1930 C 0.04658 0.06436 0.25435 0.0
C1931 C 0.0519 0.08303 0.2441 0.0
C1932 C 0.08417 0.07601 0.26822 0.0
C1933 C 0.07866 0.05754 0.28039 0.0
N1934 N 0.05445 0.03467 0.29289 0.0
N1935 N 0.07474 0.10761 0.24706 0.0
C1936 C 0.05978 0.0519 0.27587 0.0
C1937 C 0.07043 0.08916 0.25279 0.0
N1938 N 0.029 0.05846 0.24219 0.0
N1939 N 0.1026 0.0808 0.27044 0.0
H1940 H 0.06513 0.11747 0.23418 0.0
H1941 H 0.0874 0.11343 0.25797 0.0
H1942 H 0.11289 0.07177 0.28393 0.0
H1943 H 0.10792 0.0933 0.25655 0.0
H1944 H 0.02484 0.04457 0.24284 0.0
H1945 H 0.01874 0.06732 0.22788 0.0
H1946 H 0.04064 0.03042 0.2961 0.0
H1947 H 0.06379 0.02496 0.30769 0.0
C1948 C 0.40816 0.06302 0.80292 0.0
C1949 C 0.40658 0.06163 0.74888 0.0
C1950 C 0.42832 0.08758 0.7386 0.0
C1951 C 0.43258 0.08641 0.79157 0.0
N1952 N 0.42699 0.07302 0.87497 0.0
N1953 N 0.4152 0.07216 0.66429 0.0
C1954 C 0.42238 0.07437 0.82426 0.0
C1955 C 0.4164 0.07403 0.71635 0.0
N1956 N 0.39606 0.05341 0.83357 0.0
N1957 N 0.43578 0.10164 0.70979 0.0
H1958 H 0.40637 0.06258 0.64656 0.0
H1959 H 0.42374 0.07928 0.63866 0.0
H1960 H 0.44455 0.11178 0.72534 0.0
H1961 H 0.43196 0.10429 0.67199 0.0
H1962 H 0.39537 0.05508 0.87318 0.0
H1963 H 0.38548 0.04502 0.81872 0.0
H1964 H 0.4216 0.06289 0.89941 0.0
H1965 H 0.4371 0.08138 0.89214 0.0
C1966 C 0.42132 0.40494 0.24781 0.0
C1967 C 0.43179 0.41216 0.20617 0.0
C1968 C 0.41306 0.44066 0.20646 0.0
C1969 C 0.40449 0.43457 0.25261 0.0
N1970 N 0.39976 0.41123 0.31759 0.0
N1971 N 0.43801 0.43639 0.14466 0.0
C1972 C 0.40823 0.41666 0.27303 0.0
C1973 C 0.42756 0.42978 0.18459 0.0
N1974 N 0.42402 0.38692 0.2631 0.0
N1975 N 0.40736 0.4569 0.18389 0.0
H1976 H 0.44814 0.42839 0.1262 0.0
H1977 H 0.43735 0.45 0.13108 0.0
H1978 H 0.39716 0.46551 0.19962 0.0
H1979 H 0.41169 0.46128 0.14778 0.0
H1980 H 0.41579 0.38017 0.29019 0.0
H1981 H 0.43372 0.37812 0.24574 0.0
H1982 H 0.40337 0.39932 0.33804 0.0
H1983 H 0.38949 0.41918 0.33558 0.0
loop_
_geom_bond_atom_site_label_1
_geom_bond_atom_site_label_2
_geom_bond_distance
_geom_bond_site_symmetry_2
_ccdc_geom_bond_type
Li0 N17 1.990 1_455 S
Li0 O60 1.956 . S
Li0 O61 1.970 . S
Li0 O62 1.961 . S
Li1 N25 1.990 . S
Li1 O60 1.970 . S
Li1 O61 1.956 . S
Li1 O63 1.961 . S
Li2 N47 1.990 . S
Li2 O60 1.961 . S
Li2 O62 1.956 . S
Li2 O63 1.970 . S
Li3 N53 1.990 . S
Li3 O61 1.961 . S
Li3 O62 1.970 . S
Li3 O63 1.956 . S
C4 C6 1.348 . S
C4 C7 1.356 1_455 S
C4 O60 1.325 . S
N5 C8 1.314 1_655 S
N5 C9 1.279 . S
C6 C4 1.348 . S
C6 C8 1.353 . S
C6 H64 0.929 . S
C7 C4 1.356 1_655 S
C7 C9 1.358 . S
C7 H65 0.930 . S
C8 N5 1.314 1_455 S
C8 C6 1.353 . S
C8 H66 0.930 . S
C9 N5 1.279 . S
C9 C7 1.358 . S
C9 H67 0.930 . S
C10 C13 1.348 . S
C10 C14 1.356 . S
C10 O61 1.325 . S
C11 N12 1.279 . S
C11 C14 1.358 . S
C11 H68 0.930 . S
N12 C11 1.279 . S
N12 C15 1.314 . S
C13 C10 1.348 . S
C13 C15 1.353 . S
C13 H69 0.929 . S
C14 C10 1.356 . S
C14 C11 1.358 . S
C14 H70 0.930 . S
C15 N12 1.314 . S
C15 C13 1.353 . S
C15 H71 0.930 . S
C16 N17 1.314 . S
C16 C21 1.353 . S
C16 H22 0.930 . S
N17 Li0 1.990 1_655 S
N17 C16 1.314 . S
N17 C19 1.279 . S
C18 C19 1.358 . S
C18 C20 1.356 . S
C18 H72 0.930 . S
C19 N17 1.279 . S
C19 C18 1.358 . S
C19 H23 0.930 . S
C20 C18 1.356 . S
C20 C21 1.348 . S
C21 C16 1.353 . S
C21 C20 1.348 . S
C21 H73 0.929 . S
H22 C16 0.930 . S
H23 C19 0.930 . S
C24 N25 1.314 . S
C24 C26 1.353 . S
C24 H30 0.930 . S
N25 Li1 1.990 . S
N25 C24 1.314 . S
N25 C28 1.279 . S
C26 C24 1.353 . S
C26 C29 1.348 . S
C26 H74 0.929 . S
C27 C28 1.358 . S
C27 C29 1.356 . S
C27 H75 0.930 . S
C28 N25 1.279 . S
C28 C27 1.358 . S
C28 H31 0.930 . S
C29 C26 1.348 . S
C29 C27 1.356 . S
H30 C24 0.930 . S
H31 C28 0.930 . S
C32 C34 1.330 1_654 S
C32 C35 1.412 . S
C32 O62 1.290 1_655 S
N33 C36 1.314 . S
N33 C37 1.279 1_556 S
C34 C32 1.330 1_456 S
C34 C36 1.353 1_455 S
C34 H76 0.929 . S
C35 C32 1.412 . S
C35 C37 1.358 . S
C35 H77 0.930 . S
C36 N33 1.314 . S
C36 C34 1.353 1_655 S
C36 H78 0.930 . S
C37 N33 1.279 1_554 S
C37 C35 1.358 . S
C37 H79 0.930 . S
C38 C39 1.348 . S
C38 C40 1.356 . S
C38 O63 1.325 . S
C39 C38 1.348 . S
C39 C41 1.353 . S
C39 H80 0.929 . S
C40 C38 1.356 . S
C40 C42 1.358 . S
C40 H81 0.930 . S
C41 C39 1.353 . S
C41 N43 1.314 . S
C41 H82 0.930 . S
C42 C40 1.358 . S
C42 N43 1.279 . S
C42 H83 0.930 . S
N43 C41 1.314 . S
N43 C42 1.279 . S
C44 C46 1.353 . S
C44 N47 1.314 . S
C44 H50 0.930 . S
C45 N47 1.279 . S
C45 C48 1.358 . S
C45 H51 0.930 . S
C46 C44 1.353 . S
C46 C49 1.348 . S
C46 H84 0.929 . S
N47 Li2 1.990 . S
N47 C44 1.314 . S
N47 C45 1.279 . S
C48 C45 1.358 . S
C48 C49 1.356 . S
C48 H85 0.930 . S
C49 C46 1.348 . S
C49 C48 1.356 . S
H50 C44 0.930 . S
H51 C45 0.930 . S
C52 N53 1.314 . S
C52 C54 1.353 1_554 S
C52 H58 0.930 . S
N53 Li3 1.990 . S
N53 C52 1.314 . S
N53 C56 1.279 1_554 S
C54 C52 1.353 1_556 S
C54 C57 1.348 . S
C54 H86 0.929 . S
C55 C56 1.358 . S
C55 C57 1.356 . S
C55 H87 0.930 . S
C56 N53 1.279 1_556 S
C56 C55 1.358 . S
C56 H59 0.930 1_556 S
C57 C54 1.348 . S
C57 C55 1.356 . S
H58 C52 0.930 . S
H59 C56 0.930 1_554 S
O60 Li0 1.956 . S
O60 Li1 1.970 . S
O60 Li2 1.961 . S
O60 C4 1.325 . S
O61 Li0 1.970 . S
O61 Li1 1.956 . S
O61 Li3 1.961 . S
O61 C10 1.325 . S
O62 Li0 1.961 . S
O62 Li2 1.956 . S
O62 Li3 1.970 . S
O62 C32 1.290 1_455 S
O63 Li1 1.961 . S
O63 Li2 1.970 . S
O63 Li3 1.956 . S
O63 C38 1.325 . S
H64 C6 0.929 . S
H65 C7 0.930 . S
H66 C8 0.930 . S
H67 C9 0.930 . S
H68 C11 0.930 . S
H69 C13 0.929 . S
H70 C14 0.930 . S
H71 C15 0.930 . S
H72 C18 0.930 . S
H73 C21 0.929 . S
H74 C26 0.929 . S
H75 C27 0.930 . S
H76 C34 0.929 . S
H77 C35 0.930 . S
H78 C36 0.930 . S
H79 C37 0.930 . S
H80 C39 0.929 . S
H81 C40 0.930 . S
H82 C41 0.930 . S
H83 C42 0.930 . S
H84 C46 0.929 . S
H85 C48 0.930 . S
H86 C54 0.929 . S
H87 C55 0.930 . S
Li88 N105 1.990 1_545 S
Li88 O148 1.956 . S
Li88 O149 1.970 . S
Li88 O150 1.961 . S
Li89 N113 1.990 . S
Li89 O148 1.970 . S
Li89 O149 1.956 . S
Li89 O151 1.961 . S
Li90 N135 1.990 . S
Li90 O148 1.961 . S
Li90 O150 1.956 . S
Li90 O151 1.970 . S
Li91 N141 1.990 . S
Li91 O149 1.961 . S
Li91 O150 1.970 . S
Li91 O151 1.956 . S
C92 C94 1.348 . S
C92 C95 1.356 1_545 S
C92 O148 1.325 . S
N93 C96 1.314 1_565 S
N93 C97 1.279 . S
C94 C92 1.348 . S
C94 C96 1.353 . S
C94 H152 0.929 . S
C95 C92 1.356 1_565 S
C95 C97 1.358 . S
C95 H153 0.930 . S
C96 N93 1.314 1_545 S
C96 C94 1.353 . S
C96 H154 0.930 . S
C97 N93 1.279 . S
C97 C95 1.358 . S
C97 H155 0.930 . S
C98 C101 1.348 . S
C98 C102 1.356 . S
C98 O149 1.325 . S
C99 N100 1.279 . S
C99 C102 1.358 . S
C99 H156 0.930 . S
N100 C99 1.279 . S
N100 C103 1.314 . S
C101 C98 1.348 . S
C101 C103 1.353 . S
C101 H157 0.929 . S
C102 C98 1.356 . S
C102 C99 1.358 . S
C102 H158 0.930 . S
C103 N100 1.314 . S
C103 C101 1.353 . S
C103 H159 0.930 . S
C104 N105 1.314 . S
C104 C109 1.353 . S
C104 H110 0.930 . S
N105 Li88 1.990 1_565 S
N105 C104 1.314 . S
N105 C107 1.279 . S
C106 C107 1.358 . S
C106 C108 1.356 . S
C106 H160 0.930 . S
C107 N105 1.279 . S
C107 C106 1.358 . S
C107 H111 0.930 . S
C108 C106 1.356 . S
C108 C109 1.348 . S
C109 C104 1.353 . S
C109 C108 1.348 . S
C109 H161 0.929 . S
H110 C104 0.930 . S
H111 C107 0.930 . S
C112 N113 1.314 . S
C112 C114 1.353 . S
C112 H118 0.930 . S
N113 Li89 1.990 . S
N113 C112 1.314 . S
N113 C116 1.279 . S
C114 C112 1.353 . S
C114 C117 1.348 . S
C114 H162 0.929 . S
C115 C116 1.358 . S
C115 C117 1.356 . S
C115 H163 0.930 . S
C116 N113 1.279 . S
C116 C115 1.358 . S
C116 H119 0.930 . S
C117 C114 1.348 . S
C117 C115 1.356 . S
H118 C112 0.930 . S
H119 C116 0.930 . S
C120 C122 1.331 1_565 S
C120 C123 1.409 . S
C120 O150 1.291 1_565 S
N121 C124 1.314 . S
N121 C125 1.279 . S
C122 C120 1.331 1_545 S
C122 C124 1.353 1_545 S
C122 H164 0.929 . S
C123 C120 1.409 . S
C123 C125 1.358 . S
C123 H165 0.930 . S
C124 N121 1.314 . S
C124 C122 1.353 1_565 S
C124 H166 0.930 . S
C125 N121 1.279 . S
C125 C123 1.358 . S
C125 H167 0.930 . S
C126 C127 1.348 . S
C126 C128 1.356 . S
C126 O151 1.325 . S
C127 C126 1.348 . S
C127 C129 1.353 . S
C127 H168 0.929 . S
C128 C126 1.356 . S
C128 C130 1.358 . S
C128 H169 0.930 . S
C129 C127 1.353 . S
C129 N131 1.314 . S
C129 H170 0.930 . S
C130 C128 1.358 . S
C130 N131 1.279 . S
C130 H171 0.930 . S
N131 C129 1.314 . S
N131 C130 1.279 . S
C132 C134 1.353 . S
C132 N135 1.314 . S
C132 H138 0.930 . S
C133 N135 1.279 . S
C133 C136 1.358 . S
C133 H139 0.930 . S
C134 C132 1.353 . S
C134 C137 1.348 . S
C134 H172 0.929 . S
N135 Li90 1.990 . S
N135 C132 1.314 . S
N135 C133 1.279 . S
C136 C133 1.358 . S
C136 C137 1.356 . S
C136 H173 0.930 . S
C137 C134 1.348 . S
C137 C136 1.356 . S
H138 C132 0.930 . S
H139 C133 0.930 . S
C140 N141 1.314 . S
C140 C142 1.353 . S
C140 H146 0.930 . S
N141 Li91 1.990 . S
N141 C140 1.314 . S
N141 C144 1.279 . S
C142 C140 1.353 . S
C142 C145 1.348 . S
C142 H174 0.929 . S
C143 C144 1.358 . S
C143 C145 1.356 . S
C143 H175 0.930 . S
C144 N141 1.279 . S
C144 C143 1.358 . S
C144 H147 0.930 . S
C145 C142 1.348 . S
C145 C143 1.356 . S
H146 C140 0.930 . S
H147 C144 0.930 . S
O148 Li88 1.956 . S
O148 Li89 1.970 . S
O148 Li90 1.961 . S
O148 C92 1.325 . S
O149 Li88 1.970 . S
O149 Li89 1.956 . S
O149 Li91 1.961 . S
O149 C98 1.325 . S
O150 Li88 1.961 . S
O150 Li90 1.956 . S
O150 Li91 1.970 . S
O150 C120 1.291 1_545 S
O151 Li89 1.961 . S
O151 Li90 1.970 . S
O151 Li91 1.956 . S
O151 C126 1.325 . S
H152 C94 0.929 . S
H153 C95 0.930 . S
H154 C96 0.930 . S
H155 C97 0.930 . S
H156 C99 0.930 . S
H157 C101 0.929 . S
H158 C102 0.930 . S
H159 C103 0.930 . S
H160 C106 0.930 . S
H161 C109 0.929 . S
H162 C114 0.929 . S
H163 C115 0.930 . S
H164 C122 0.929 . S
H165 C123 0.930 . S
H166 C124 0.930 . S
H167 C125 0.930 . S
H168 C127 0.929 . S
H169 C128 0.930 . S
H170 C129 0.930 . S
H171 C130 0.930 . S
H172 C134 0.929 . S
H173 C136 0.930 . S
H174 C142 0.929 . S
H175 C143 0.930 . S
Li176 N193 1.990 . S
Li176 O236 1.956 . S
Li176 O237 1.970 . S
Li176 O238 1.961 . S
Li177 N201 1.990 . S
Li177 O236 1.970 . S
Li177 O237 1.956 . S
Li177 O239 1.961 . S
Li178 N223 1.990 . S
Li178 O236 1.961 . S
Li178 O238 1.956 . S
Li178 O239 1.970 . S
Li179 N229 1.990 . S
Li179 O237 1.961 . S
Li179 O238 1.970 . S
Li179 O239 1.956 . S
C180 C182 1.348 . S
C180 C183 1.356 . S
C180 O236 1.325 . S
N181 C184 1.314 . S
N181 C185 1.279 . S
C182 C180 1.348 . S
C182 C184 1.353 . S
C182 H240 0.929 . S
C183 C180 1.356 . S
C183 C185 1.358 . S
C183 H241 0.930 . S
C184 N181 1.314 . S
C184 C182 1.353 . S
C184 H242 0.930 . S
C185 N181 1.279 . S
C185 C183 1.358 . S
C185 H243 0.930 . S
C186 C189 1.348 . S
C186 C190 1.356 . S
C186 O237 1.325 . S
C187 N188 1.279 . S
C187 C190 1.358 . S
C187 H244 0.930 . S
N188 C187 1.279 . S
N188 C191 1.314 . S
C189 C186 1.348 . S
C189 C191 1.353 . S
C189 H245 0.929 . S
C190 C186 1.356 . S
C190 C187 1.358 . S
C190 H246 0.930 . S
C191 N188 1.314 . S
C191 C189 1.353 . S
C191 H247 0.930 . S
C192 N193 1.314 . S
C192 C197 1.353 . S
C192 H198 0.930 . S
N193 Li176 1.990 . S
N193 C192 1.314 . S
N193 C195 1.279 . S
C194 C195 1.358 . S
C194 C196 1.356 . S
C194 H248 0.930 . S
C195 N193 1.279 . S
C195 C194 1.358 . S
C195 H199 0.930 . S
C196 C194 1.356 . S
C196 C197 1.348 . S
C197 C192 1.353 . S
C197 C196 1.348 . S
C197 H249 0.929 . S
H198 C192 0.930 . S
H199 C195 0.930 . S
C200 N201 1.314 . S
C200 C202 1.353 . S
C200 H206 0.930 . S
N201 Li177 1.990 . S
N201 C200 1.314 . S
N201 C204 1.279 . S
C202 C200 1.353 . S
C202 C205 1.348 . S
C202 H250 0.929 . S
C203 C204 1.358 . S
C203 C205 1.356 . S
C203 H251 0.930 . S
C204 N201 1.279 . S
C204 C203 1.358 . S
C204 H207 0.930 . S
C205 C202 1.348 . S
C205 C203 1.356 . S
H206 C200 0.930 . S
H207 C204 0.930 . S
C208 C210 1.348 1_554 S
C208 C211 1.356 . S
C208 O238 1.325 . S
N209 C212 1.314 . S
N209 C213 1.279 1_556 S
C210 C208 1.348 1_556 S
C210 C212 1.353 . S
C210 H252 0.929 . S
C211 C208 1.356 . S
C211 C213 1.358 . S
C211 H253 0.930 . S
C212 N209 1.314 . S
C212 C210 1.353 . S
C212 H254 0.930 . S
C213 N209 1.279 1_554 S
C213 C211 1.358 . S
C213 H255 0.930 . S
C214 C215 1.348 . S
C214 C216 1.356 . S
C214 O239 1.325 . S
C215 C214 1.348 . S
C215 C217 1.353 . S
C215 H256 0.929 . S
C216 C214 1.356 . S
C216 C218 1.358 . S
C216 H257 0.930 . S
C217 C215 1.353 . S
C217 N219 1.314 . S
C217 H258 0.930 . S
C218 C216 1.358 . S
C218 N219 1.279 . S
C218 H259 0.930 . S
N219 C217 1.314 . S
N219 C218 1.279 . S
C220 C222 1.353 . S
C220 N223 1.314 . S
C220 H226 0.930 . S
C221 N223 1.279 . S
C221 C224 1.358 . S
C221 H227 0.930 . S
C222 C220 1.353 . S
C222 C225 1.348 . S
C222 H260 0.929 . S
N223 Li178 1.990 . S
N223 C220 1.314 . S
N223 C221 1.279 . S
C224 C221 1.358 . S
C224 C225 1.356 . S
C224 H261 0.930 . S
C225 C222 1.348 . S
C225 C224 1.356 . S
H226 C220 0.930 . S
H227 C221 0.930 . S
C228 N229 1.314 . S
C228 C230 1.353 1_554 S
C228 H234 0.930 . S
N229 Li179 1.990 . S
N229 C228 1.314 . S
N229 C232 1.268 1_554 S
C230 C228 1.353 1_556 S
C230 C233 1.348 . S
C230 H262 0.929 . S
C231 C232 1.377 . S
C231 C233 1.356 . S
C231 H263 0.930 . S
C232 N229 1.268 1_556 S
C232 C231 1.377 . S
C232 H235 0.923 1_556 S
C233 C230 1.348 . S
C233 C231 1.356 . S
H234 C228 0.930 . S
H235 C232 0.923 1_554 S
O236 Li176 1.956 . S
O236 Li177 1.970 . S
O236 Li178 1.961 . S
O236 C180 1.325 . S
O237 Li176 1.970 . S
O237 Li177 1.956 . S
O237 Li179 1.961 . S
O237 C186 1.325 . S
O238 Li176 1.961 . S
O238 Li178 1.956 . S
O238 Li179 1.970 . S
O238 C208 1.325 . S
O239 Li177 1.961 . S
O239 Li178 1.970 . S
O239 Li179 1.956 . S
O239 C214 1.325 . S
H240 C182 0.929 . S
H241 C183 0.930 . S
H242 C184 0.930 . S
H243 C185 0.930 . S
H244 C187 0.930 . S
H245 C189 0.929 . S
H246 C190 0.930 . S
H247 C191 0.930 . S
H248 C194 0.930 . S
H249 C197 0.929 . S
H250 C202 0.929 . S
H251 C203 0.930 . S
H252 C210 0.929 . S
H253 C211 0.930 . S
H254 C212 0.930 . S
H255 C213 0.930 . S
H256 C215 0.929 . S
H257 C216 0.930 . S
H258 C217 0.930 . S
H259 C218 0.930 . S
H260 C222 0.929 . S
H261 C224 0.930 . S
H262 C230 0.929 . S
H263 C231 0.930 . S
Li264 N281 1.990 . S
Li264 O324 1.956 . S
Li264 O325 1.970 . S
Li264 O326 1.961 . S
Li265 N289 1.990 . S
Li265 O324 1.970 . S
Li265 O325 1.956 . S
Li265 O327 1.961 . S
Li266 N311 1.990 . S
Li266 O324 1.961 . S
Li266 O326 1.956 . S
Li266 O327 1.970 . S
Li267 N317 1.990 . S
Li267 O325 1.961 . S
Li267 O326 1.970 . S
Li267 O327 1.956 . S
C268 C270 1.348 . S
C268 C271 1.356 . S
C268 O324 1.325 . S
N269 C272 1.314 . S
N269 C273 1.279 . S
C270 C268 1.348 . S
C270 C272 1.353 . S
C270 H328 0.929 . S
C271 C268 1.356 . S
C271 C273 1.358 . S
C271 H329 0.930 . S
C272 N269 1.314 . S
C272 C270 1.353 . S
C272 H330 0.930 . S
C273 N269 1.279 . S
C273 C271 1.358 . S
C273 H331 0.930 . S
C274 C277 1.348 . S
C274 C278 1.356 . S
C274 O325 1.325 . S
C275 N276 1.279 . S
C275 C278 1.358 . S
C275 H332 0.930 . S
N276 C275 1.279 . S
N276 C279 1.314 . S
C277 C274 1.348 . S
C277 C279 1.353 . S
C277 H333 0.929 . S
C278 C274 1.356 . S
C278 C275 1.358 . S
C278 H334 0.930 . S
C279 N276 1.314 . S
C279 C277 1.353 . S
C279 H335 0.930 . S
C280 N281 1.314 . S
C280 C285 1.353 . S
C280 H286 0.930 . S
N281 Li264 1.990 . S
N281 C280 1.314 . S
N281 C283 1.279 . S
C282 C283 1.358 . S
C282 C284 1.356 . S
C282 H336 0.930 . S
C283 N281 1.279 . S
C283 C282 1.358 . S
C283 H287 0.930 . S
C284 C282 1.356 . S
C284 C285 1.348 . S
C285 C280 1.353 . S
C285 C284 1.348 . S
C285 H337 0.929 . S
H286 C280 0.930 . S
H287 C283 0.930 . S
C288 N289 1.314 . S
C288 C290 1.353 . S
C288 H294 0.930 . S
N289 Li265 1.990 . S
N289 C288 1.314 . S
N289 C292 1.279 . S
C290 C288 1.353 . S
C290 C293 1.348 . S
C290 H338 0.929 . S
C291 C292 1.358 . S
C291 C293 1.356 . S
C291 H339 0.930 . S
C292 N289 1.279 . S
C292 C291 1.358 . S
C292 H295 0.930 . S
C293 C290 1.348 . S
C293 C291 1.356 . S
H294 C288 0.930 . S
H295 C292 0.930 . S
C296 C298 1.348 . S
C296 C299 1.356 . S
C296 O326 1.325 . S
N297 C300 1.314 . S
N297 C301 1.279 . S
C298 C296 1.348 . S
C298 C300 1.353 . S
C298 H340 0.929 . S
C299 C296 1.356 . S
C299 C301 1.358 . S
C299 H341 0.930 . S
C300 N297 1.314 . S
C300 C298 1.353 . S
C300 H342 0.930 . S
C301 N297 1.279 . S
C301 C299 1.358 . S
C301 H343 0.930 . S
C302 C303 1.348 . S
C302 C304 1.356 . S
C302 O327 1.325 . S
C303 C302 1.348 . S
C303 C305 1.353 . S
C303 H344 0.929 . S
C304 C302 1.356 . S
C304 C306 1.358 . S
C304 H345 0.930 . S
C305 C303 1.353 . S
C305 N307 1.314 . S
C305 H346 0.930 . S
C306 C304 1.358 . S
C306 N307 1.279 . S
C306 H347 0.930 . S
N307 C305 1.314 . S
N307 C306 1.279 . S
C308 C310 1.353 . S
C308 N311 1.314 . S
C308 H314 0.930 . S
C309 N311 1.279 . S
C309 C312 1.358 . S
C309 H315 0.930 . S
C310 C308 1.353 . S
C310 C313 1.348 . S
C310 H348 0.929 . S
N311 Li266 1.990 . S
N311 C308 1.314 . S
N311 C309 1.279 . S
C312 C309 1.358 . S
C312 C313 1.356 . S
C312 H349 0.930 . S
C313 C310 1.348 . S
C313 C312 1.356 . S
H314 C308 0.930 . S
H315 C309 0.930 . S
C316 N317 1.314 . S
C316 C318 1.353 . S
C316 H322 0.930 . S
N317 Li267 1.990 . S
N317 C316 1.314 . S
N317 C320 1.279 . S
C318 C316 1.353 . S
C318 C321 1.348 . S
C318 H350 0.929 . S
C319 C320 1.358 . S
C319 C321 1.356 . S
C319 H351 0.930 . S
C320 N317 1.279 . S
C320 C319 1.358 . S
C320 H323 0.930 . S
C321 C318 1.348 . S
C321 C319 1.356 . S
H322 C316 0.930 . S
H323 C320 0.930 . S
O324 Li264 1.956 . S
O324 Li265 1.970 . S
O324 Li266 1.961 . S
O324 C268 1.325 . S
O325 Li264 1.970 . S
O325 Li265 1.956 . S
O325 Li267 1.961 . S
O325 C274 1.325 . S
O326 Li264 1.961 . S
O326 Li266 1.956 . S
O326 Li267 1.970 . S
O326 C296 1.325 . S
O327 Li265 1.961 . S
O327 Li266 1.970 . S
O327 Li267 1.956 . S
O327 C302 1.325 . S
H328 C270 0.929 . S
H329 C271 0.930 . S
H330 C272 0.930 . S
H331 C273 0.930 . S
H332 C275 0.930 . S
H333 C277 0.929 . S
H334 C278 0.930 . S
H335 C279 0.930 . S
H336 C282 0.930 . S
H337 C285 0.929 . S
H338 C290 0.929 . S
H339 C291 0.930 . S
H340 C298 0.929 . S
H341 C299 0.930 . S
H342 C300 0.930 . S
H343 C301 0.930 . S
H344 C303 0.929 . S
H345 C304 0.930 . S
H346 C305 0.930 . S
H347 C306 0.930 . S
H348 C310 0.929 . S
H349 C312 0.930 . S
H350 C318 0.929 . S
H351 C319 0.930 . S
Li352 N369 1.990 . S
Li352 O412 1.956 . S
Li352 O413 1.970 . S
Li352 O414 1.961 . S
Li353 N377 1.990 . S
Li353 O412 1.970 . S
Li353 O413 1.956 . S
Li353 O415 1.961 . S
Li354 N399 1.990 1_455 S
Li354 O412 1.961 . S
Li354 O414 1.956 . S
Li354 O415 1.970 . S
Li355 N405 1.990 . S
Li355 O413 1.961 . S
Li355 O414 1.970 . S
Li355 O415 1.956 . S
C356 C358 1.331 1_656 S
C356 C359 1.409 . S
C356 O412 1.291 1_655 S
N357 C360 1.314 . S
N357 C361 1.279 1_554 S
C358 C356 1.331 1_454 S
C358 C360 1.353 1_455 S
C358 H416 0.929 . S
C359 C356 1.409 . S
C359 C361 1.358 . S
C359 H417 0.930 . S
C360 N357 1.314 . S
C360 C358 1.353 1_655 S
C360 H418 0.930 . S
C361 N357 1.279 1_556 S
C361 C359 1.358 . S
C361 H419 0.930 . S
C362 C365 1.348 . S
C362 C366 1.356 . S
C362 O413 1.325 . S
C363 N364 1.279 . S
C363 C366 1.358 . S
C363 H420 0.930 . S
N364 C363 1.279 . S
N364 C367 1.314 . S
C365 C362 1.348 . S
C365 C367 1.353 . S
C365 H421 0.929 . S
C366 C362 1.356 . S
C366 C363 1.358 . S
C366 H422 0.930 . S
C367 N364 1.314 . S
C367 C365 1.353 . S
C367 H423 0.930 . S
C368 N369 1.314 . S
C368 C373 1.353 . S
C368 H374 0.930 . S
N369 Li352 1.990 . S
N369 C368 1.314 . S
N369 C371 1.279 . S
C370 C371 1.358 . S
C370 C372 1.356 . S
C370 H424 0.930 . S
C371 N369 1.279 . S
C371 C370 1.358 . S
C371 H375 0.930 . S
C372 C370 1.356 . S
C372 C373 1.348 . S
C373 C368 1.353 . S
C373 C372 1.348 . S
C373 H425 0.929 . S
H374 C368 0.930 . S
H375 C371 0.930 . S
C376 N377 1.314 . S
C376 C378 1.353 1_556 S
C376 H382 0.930 . S
N377 Li353 1.990 . S
N377 C376 1.314 . S
N377 C380 1.279 1_556 S
C378 C376 1.353 1_554 S
C378 C381 1.348 . S
C378 H426 0.929 . S
C379 C380 1.358 . S
C379 C381 1.356 . S
C379 H427 0.930 . S
C380 N377 1.279 1_554 S
C380 C379 1.358 . S
C380 H383 0.930 1_554 S
C381 C378 1.348 . S
C381 C379 1.356 . S
H382 C376 0.930 . S
H383 C380 0.930 1_556 S
C384 C386 1.348 . S
C384 C387 1.356 1_455 S
C384 O414 1.325 . S
N385 C388 1.314 1_655 S
N385 C389 1.279 . S
C386 C384 1.348 . S
C386 C388 1.353 . S
C386 H428 0.929 . S
C387 C384 1.356 1_655 S
C387 C389 1.358 . S
C387 H429 0.930 . S
C388 N385 1.314 1_455 S
C388 C386 1.353 . S
C388 H430 0.930 . S
C389 N385 1.279 . S
C389 C387 1.358 . S
C389 H431 0.930 . S
C390 C391 1.348 . S
C390 C392 1.356 . S
C390 O415 1.325 . S
C391 C390 1.348 . S
C391 C393 1.353 . S
C391 H432 0.929 . S
C392 C390 1.356 . S
C392 C394 1.358 . S
C392 H433 0.930 . S
C393 C391 1.353 . S
C393 N395 1.314 . S
C393 H434 0.930 . S
C394 C392 1.358 . S
C394 N395 1.279 . S
C394 H435 0.930 . S
N395 C393 1.314 . S
N395 C394 1.279 . S
C396 C398 1.353 . S
C396 N399 1.314 . S
C396 H402 0.930 . S
C397 N399 1.279 . S
C397 C400 1.358 . S
C397 H403 0.930 . S
C398 C396 1.353 . S
C398 C401 1.348 . S
C398 H436 0.929 . S
N399 Li354 1.990 1_655 S
N399 C396 1.314 . S
N399 C397 1.279 . S
C400 C397 1.358 . S
C400 C401 1.356 . S
C400 H437 0.930 . S
C401 C398 1.348 . S
C401 C400 1.356 . S
H402 C396 0.930 . S
H403 C397 0.930 . S
C404 N405 1.314 . S
C404 C406 1.353 . S
C404 H410 0.930 . S
N405 Li355 1.990 . S
N405 C404 1.314 . S
N405 C408 1.279 . S
C406 C404 1.353 . S
C406 C409 1.348 . S
C406 H438 0.929 . S
C407 C408 1.358 . S
C407 C409 1.356 . S
C407 H439 0.930 . S
C408 N405 1.279 . S
C408 C407 1.358 . S
C408 H411 0.930 . S
C409 C406 1.348 . S
C409 C407 1.356 . S
H410 C404 0.930 . S
H411 C408 0.930 . S
O412 Li352 1.956 . S
O412 Li353 1.970 . S
O412 Li354 1.961 . S
O412 C356 1.291 1_455 S
O413 Li352 1.970 . S
O413 Li353 1.956 . S
O413 Li355 1.961 . S
O413 C362 1.325 . S
O414 Li352 1.961 . S
O414 Li354 1.956 . S
O414 Li355 1.970 . S
O414 C384 1.325 . S
O415 Li353 1.961 . S
O415 Li354 1.970 . S
O415 Li355 1.956 . S
O415 C390 1.325 . S
H416 C358 0.929 . S
H417 C359 0.930 . S
H418 C360 0.930 . S
H419 C361 0.930 . S
H420 C363 0.930 . S
H421 C365 0.929 . S
H422 C366 0.930 . S
H423 C367 0.930 . S
H424 C370 0.930 . S
H425 C373 0.929 . S
H426 C378 0.929 . S
H427 C379 0.930 . S
H428 C386 0.929 . S
H429 C387 0.930 . S
H430 C388 0.930 . S
H431 C389 0.930 . S
H432 C391 0.929 . S
H433 C392 0.930 . S
H434 C393 0.930 . S
H435 C394 0.930 . S
H436 C398 0.929 . S
H437 C400 0.930 . S
H438 C406 0.929 . S
H439 C407 0.930 . S
Li440 N457 1.990 . S
Li440 O500 1.956 . S
Li440 O501 1.970 . S
Li440 O502 1.961 . S
Li441 N465 1.990 . S
Li441 O500 1.970 . S
Li441 O501 1.956 . S
Li441 O503 1.961 . S
Li442 N487 1.990 1_545 S
Li442 O500 1.961 . S
Li442 O502 1.956 . S
Li442 O503 1.970 . S
Li443 N493 1.990 . S
Li443 O501 1.961 . S
Li443 O502 1.970 . S
Li443 O503 1.956 . S
C444 C446 1.330 1_565 S
C444 C447 1.412 . S
C444 O500 1.290 1_565 S
N445 C448 1.314 . S
N445 C449 1.279 . S
C446 C444 1.330 1_545 S
C446 C448 1.353 1_545 S
C446 H504 0.929 . S
C447 C444 1.412 . S
C447 C449 1.358 . S
C447 H505 0.930 . S
C448 N445 1.314 . S
C448 C446 1.353 1_565 S
C448 H506 0.930 . S
C449 N445 1.279 . S
C449 C447 1.358 . S
C449 H507 0.930 . S
C450 C453 1.348 . S
C450 C454 1.356 . S
C450 O501 1.325 . S
C451 N452 1.279 . S
C451 C454 1.358 . S
C451 H508 0.930 . S
N452 C451 1.279 . S
N452 C455 1.314 . S
C453 C450 1.348 . S
C453 C455 1.353 . S
C453 H509 0.929 . S
C454 C450 1.356 . S
C454 C451 1.358 . S
C454 H510 0.930 . S
C455 N452 1.314 . S
C455 C453 1.353 . S
C455 H511 0.930 . S
C456 N457 1.314 . S
C456 C461 1.353 . S
C456 H462 0.930 . S
N457 Li440 1.990 . S
N457 C456 1.314 . S
N457 C459 1.279 . S
C458 C459 1.358 . S
C458 C460 1.356 . S
C458 H512 0.930 . S
C459 N457 1.279 . S
C459 C458 1.358 . S
C459 H463 0.930 . S
C460 C458 1.356 . S
C460 C461 1.348 . S
C461 C456 1.353 . S
C461 C460 1.348 . S
C461 H513 0.929 . S
H462 C456 0.930 . S
H463 C459 0.930 . S
C464 N465 1.314 . S
C464 C466 1.353 . S
C464 H470 0.930 . S
N465 Li441 1.990 . S
N465 C464 1.314 . S
N465 C468 1.279 . S
C466 C464 1.353 . S
C466 C469 1.348 . S
C466 H514 0.929 . S
C467 C468 1.358 . S
C467 C469 1.356 . S
C467 H515 0.930 . S
C468 N465 1.279 . S
C468 C467 1.358 . S
C468 H471 0.930 . S
C469 C466 1.348 . S
C469 C467 1.356 . S
H470 C464 0.930 . S
H471 C468 0.930 . S
C472 C474 1.348 . S
C472 C475 1.356 1_545 S
C472 O502 1.325 . S
N473 C476 1.314 1_565 S
N473 C477 1.279 . S
C474 C472 1.348 . S
C474 C476 1.353 . S
C474 H516 0.929 . S
C475 C472 1.356 1_565 S
C475 C477 1.358 . S
C475 H517 0.930 . S
C476 N473 1.314 1_545 S
C476 C474 1.353 . S
C476 H518 0.930 . S
C477 N473 1.279 . S
C477 C475 1.358 . S
C477 H519 0.930 . S
C478 C479 1.348 . S
C478 C480 1.356 . S
C478 O503 1.325 . S
C479 C478 1.348 . S
C479 C481 1.353 . S
C479 H520 0.929 . S
C480 C478 1.356 . S
C480 C482 1.358 . S
C480 H521 0.930 . S
C481 C479 1.353 . S
C481 N483 1.314 . S
C481 H522 0.930 . S
C482 C480 1.358 . S
C482 N483 1.279 . S
C482 H523 0.930 . S
N483 C481 1.314 . S
N483 C482 1.279 . S
C484 C486 1.353 . S
C484 N487 1.314 . S
C484 H490 0.930 . S
C485 N487 1.279 . S
C485 C488 1.358 . S
C485 H491 0.930 . S
C486 C484 1.353 . S
C486 C489 1.348 . S
C486 H524 0.929 . S
N487 Li442 1.990 1_565 S
N487 C484 1.314 . S
N487 C485 1.279 . S
C488 C485 1.358 . S
C488 C489 1.356 . S
C488 H525 0.930 . S
C489 C486 1.348 . S
C489 C488 1.356 . S
H490 C484 0.930 . S
H491 C485 0.930 . S
C492 N493 1.314 . S
C492 C494 1.353 . S
C492 H498 0.930 . S
N493 Li443 1.990 . S
N493 C492 1.314 . S
N493 C496 1.279 . S
C494 C492 1.353 . S
C494 C497 1.348 . S
C494 H526 0.929 . S
C495 C496 1.358 . S
C495 C497 1.356 . S
C495 H527 0.930 . S
C496 N493 1.279 . S
C496 C495 1.358 . S
C496 H499 0.930 . S
C497 C494 1.348 . S
C497 C495 1.356 . S
H498 C492 0.930 . S
H499 C496 0.930 . S
O500 Li440 1.956 . S
O500 Li441 1.970 . S
O500 Li442 1.961 . S
O500 C444 1.290 1_545 S
O501 Li440 1.970 . S
O501 Li441 1.956 . S
O501 Li443 1.961 . S
O501 C450 1.325 . S
O502 Li440 1.961 . S
O502 Li442 1.956 . S
O502 Li443 1.970 . S
O502 C472 1.325 . S
O503 Li441 1.961 . S
O503 Li442 1.970 . S
O503 Li443 1.956 . S
O503 C478 1.325 . S
H504 C446 0.929 . S
H505 C447 0.930 . S
H506 C448 0.930 . S
H507 C449 0.930 . S
H508 C451 0.930 . S
H509 C453 0.929 . S
H510 C454 0.930 . S
H511 C455 0.930 . S
H512 C458 0.930 . S
H513 C461 0.929 . S
H514 C466 0.929 . S
H515 C467 0.930 . S
H516 C474 0.929 . S
H517 C475 0.930 . S
H518 C476 0.930 . S
H519 C477 0.930 . S
H520 C479 0.929 . S
H521 C480 0.930 . S
H522 C481 0.930 . S
H523 C482 0.930 . S
H524 C486 0.929 . S
H525 C488 0.930 . S
H526 C494 0.929 . S
H527 C495 0.930 . S
Li528 N545 1.990 . S
Li528 O588 1.956 . S
Li528 O589 1.970 . S
Li528 O590 1.961 . S
Li529 N553 1.990 . S
Li529 O588 1.970 . S
Li529 O589 1.956 . S
Li529 O591 1.961 . S
Li530 N575 1.990 . S
Li530 O588 1.961 . S
Li530 O590 1.956 . S
Li530 O591 1.970 . S
Li531 N581 1.990 . S
Li531 O589 1.961 . S
Li531 O590 1.970 . S
Li531 O591 1.956 . S
C532 C534 1.348 1_556 S
C532 C535 1.356 . S
C532 O588 1.325 . S
N533 C536 1.314 . S
N533 C537 1.279 1_554 S
C534 C532 1.348 1_554 S
C534 C536 1.353 . S
C534 H592 0.929 . S
C535 C532 1.356 . S
C535 C537 1.358 . S
C535 H593 0.930 . S
C536 N533 1.314 . S
C536 C534 1.353 . S
C536 H594 0.930 . S
C537 N533 1.279 1_556 S
C537 C535 1.358 . S
C537 H595 0.930 . S
C538 C541 1.348 . S
C538 C542 1.356 . S
C538 O589 1.325 . S
C539 N540 1.279 . S
C539 C542 1.358 . S
C539 H596 0.930 . S
N540 C539 1.279 . S
N540 C543 1.314 . S
C541 C538 1.348 . S
C541 C543 1.353 . S
C541 H597 0.929 . S
C542 C538 1.356 . S
C542 C539 1.358 . S
C542 H598 0.930 . S
C543 N540 1.314 . S
C543 C541 1.353 . S
C543 H599 0.930 . S
C544 N545 1.314 . S
C544 C549 1.353 . S
C544 H550 0.930 . S
N545 Li528 1.990 . S
N545 C544 1.314 . S
N545 C547 1.279 . S
C546 C547 1.358 . S
C546 C548 1.356 . S
C546 H600 0.930 . S
C547 N545 1.279 . S
C547 C546 1.358 . S
C547 H551 0.930 . S
C548 C546 1.356 . S
C548 C549 1.348 . S
C549 C544 1.353 . S
C549 C548 1.348 . S
C549 H601 0.929 . S
H550 C544 0.930 . S
H551 C547 0.930 . S
C552 N553 1.314 . S
C552 C554 1.353 1_556 S
C552 H558 0.930 . S
N553 Li529 1.990 . S
N553 C552 1.314 . S
N553 C556 1.268 1_556 S
C554 C552 1.353 1_554 S
C554 C557 1.348 . S
C554 H602 0.929 . S
C555 C556 1.377 . S
C555 C557 1.356 . S
C555 H603 0.930 . S
C556 N553 1.268 1_554 S
C556 C555 1.377 . S
C556 H559 0.923 1_554 S
C557 C554 1.348 . S
C557 C555 1.356 . S
H558 C552 0.930 . S
H559 C556 0.923 1_556 S
C560 C562 1.348 . S
C560 C563 1.356 . S
C560 O590 1.325 . S
N561 C564 1.314 . S
N561 C565 1.279 . S
C562 C560 1.348 . S
C562 C564 1.353 . S
C562 H604 0.929 . S
C563 C560 1.356 . S
C563 C565 1.358 . S
C563 H605 0.930 . S
C564 N561 1.314 . S
C564 C562 1.353 . S
C564 H606 0.930 . S
C565 N561 1.279 . S
C565 C563 1.358 . S
C565 H607 0.930 . S
C566 C567 1.348 . S
C566 C568 1.356 . S
C566 O591 1.325 . S
C567 C566 1.348 . S
C567 C569 1.353 . S
C567 H608 0.929 . S
C568 C566 1.356 . S
C568 C570 1.358 . S
C568 H609 0.930 . S
C569 C567 1.353 . S
C569 N571 1.314 . S
C569 H610 0.930 . S
C570 C568 1.358 . S
C570 N571 1.279 . S
C570 H611 0.930 . S
N571 C569 1.314 . S
N571 C570 1.279 . S
C572 C574 1.353 . S
C572 N575 1.314 . S
C572 H578 0.930 . S
C573 N575 1.279 . S
C573 C576 1.358 . S
C573 H579 0.930 . S
C574 C572 1.353 . S
C574 C577 1.348 . S
C574 H612 0.929 . S
N575 Li530 1.990 . S
N575 C572 1.314 . S
N575 C573 1.279 . S
C576 C573 1.358 . S
C576 C577 1.356 . S
C576 H613 0.930 . S
C577 C574 1.348 . S
C577 C576 1.356 . S
H578 C572 0.930 . S
H579 C573 0.930 . S
C580 N581 1.314 . S
C580 C582 1.353 . S
C580 H586 0.930 . S
N581 Li531 1.990 . S
N581 C580 1.314 . S
N581 C584 1.279 . S
C582 C580 1.353 . S
C582 C585 1.348 . S
C582 H614 0.929 . S
C583 C584 1.358 . S
C583 C585 1.356 . S
C583 H615 0.930 . S
C584 N581 1.279 . S
C584 C583 1.358 . S
C584 H587 0.930 . S
C585 C582 1.348 . S
C585 C583 1.356 . S
H586 C580 0.930 . S
H587 C584 0.930 . S
O588 Li528 1.956 . S
O588 Li529 1.970 . S
O588 Li530 1.961 . S
O588 C532 1.325 . S
O589 Li528 1.970 . S
O589 Li529 1.956 . S
O589 Li531 1.961 . S
O589 C538 1.325 . S
O590 Li528 1.961 . S
O590 Li530 1.956 . S
O590 Li531 1.970 . S
O590 C560 1.325 . S
O591 Li529 1.961 . S
O591 Li530 1.970 . S
O591 Li531 1.956 . S
O591 C566 1.325 . S
H592 C534 0.929 . S
H593 C535 0.930 . S
H594 C536 0.930 . S
H595 C537 0.930 . S
H596 C539 0.930 . S
H597 C541 0.929 . S
H598 C542 0.930 . S
H599 C543 0.930 . S
H600 C546 0.930 . S
H601 C549 0.929 . S
H602 C554 0.929 . S
H603 C555 0.930 . S
H604 C562 0.929 . S
H605 C563 0.930 . S
H606 C564 0.930 . S
H607 C565 0.930 . S
H608 C567 0.929 . S
H609 C568 0.930 . S
H610 C569 0.930 . S
H611 C570 0.930 . S
H612 C574 0.929 . S
H613 C576 0.930 . S
H614 C582 0.929 . S
H615 C583 0.930 . S
Li616 N633 1.990 . S
Li616 O676 1.956 . S
Li616 O677 1.970 . S
Li616 O678 1.961 . S
Li617 N641 1.990 . S
Li617 O676 1.970 . S
Li617 O677 1.956 . S
Li617 O679 1.961 . S
Li618 N663 1.990 . S
Li618 O676 1.961 . S
Li618 O678 1.956 . S
Li618 O679 1.970 . S
Li619 N669 1.990 . S
Li619 O677 1.961 . S
Li619 O678 1.970 . S
Li619 O679 1.956 . S
C620 C622 1.348 . S
C620 C623 1.356 . S
C620 O676 1.325 . S
N621 C624 1.314 . S
N621 C625 1.279 . S
C622 C620 1.348 . S
C622 C624 1.353 . S
C622 H680 0.929 . S
C623 C620 1.356 . S
C623 C625 1.358 . S
C623 H681 0.930 . S
C624 N621 1.314 . S
C624 C622 1.353 . S
C624 H682 0.930 . S
C625 N621 1.279 . S
C625 C623 1.358 . S
C625 H683 0.930 . S
C626 C629 1.348 . S
C626 C630 1.356 . S
C626 O677 1.325 . S
C627 N628 1.279 . S
C627 C630 1.358 . S
C627 H684 0.930 . S
N628 C627 1.279 . S
N628 C631 1.314 . S
C629 C626 1.348 . S
C629 C631 1.353 . S
C629 H685 0.929 . S
C630 C626 1.356 . S
C630 C627 1.358 . S
C630 H686 0.930 . S
C631 N628 1.314 . S
C631 C629 1.353 . S
C631 H687 0.930 . S
C632 N633 1.314 . S
C632 C637 1.353 . S
C632 H638 0.930 . S
N633 Li616 1.990 . S
N633 C632 1.314 . S
N633 C635 1.279 . S
C634 C635 1.358 . S
C634 C636 1.356 . S
C634 H688 0.930 . S
C635 N633 1.279 . S
C635 C634 1.358 . S
C635 H639 0.930 . S
C636 C634 1.356 . S
C636 C637 1.348 . S
C637 C632 1.353 . S
C637 C636 1.348 . S
C637 H689 0.929 . S
H638 C632 0.930 . S
H639 C635 0.930 . S
C640 N641 1.314 . S
C640 C642 1.353 . S
C640 H646 0.930 . S
N641 Li617 1.990 . S
N641 C640 1.314 . S
N641 C644 1.279 . S
C642 C640 1.353 . S
C642 C645 1.348 . S
C642 H690 0.929 . S
C643 C644 1.358 . S
C643 C645 1.356 . S
C643 H691 0.930 . S
C644 N641 1.279 . S
C644 C643 1.358 . S
C644 H647 0.930 . S
C645 C642 1.348 . S
C645 C643 1.356 . S
H646 C640 0.930 . S
H647 C644 0.930 . S
C648 C650 1.348 . S
C648 C651 1.356 . S
C648 O678 1.325 . S
N649 C652 1.314 . S
N649 C653 1.279 . S
C650 C648 1.348 . S
C650 C652 1.353 . S
C650 H692 0.929 . S
C651 C648 1.356 . S
C651 C653 1.358 . S
C651 H693 0.930 . S
C652 N649 1.314 . S
C652 C650 1.353 . S
C652 H694 0.930 . S
C653 N649 1.279 . S
C653 C651 1.358 . S
C653 H695 0.930 . S
C654 C655 1.348 . S
C654 C656 1.356 . S
C654 O679 1.325 . S
C655 C654 1.348 . S
C655 C657 1.353 . S
C655 H696 0.929 . S
C656 C654 1.356 . S
C656 C658 1.358 . S
C656 H697 0.930 . S
C657 C655 1.353 . S
C657 N659 1.314 . S
C657 H698 0.930 . S
C658 C656 1.358 . S
C658 N659 1.279 . S
C658 H699 0.930 . S
N659 C657 1.314 . S
N659 C658 1.279 . S
C660 C662 1.353 . S
C660 N663 1.314 . S
C660 H666 0.930 . S
C661 N663 1.279 . S
C661 C664 1.358 . S
C661 H667 0.930 . S
C662 C660 1.353 . S
C662 C665 1.348 . S
C662 H700 0.929 . S
N663 Li618 1.990 . S
N663 C660 1.314 . S
N663 C661 1.279 . S
C664 C661 1.358 . S
C664 C665 1.356 . S
C664 H701 0.930 . S
C665 C662 1.348 . S
C665 C664 1.356 . S
H666 C660 0.930 . S
H667 C661 0.930 . S
C668 N669 1.314 . S
C668 C670 1.353 . S
C668 H674 0.930 . S
N669 Li619 1.990 . S
N669 C668 1.314 . S
N669 C672 1.279 . S
C670 C668 1.353 . S
C670 C673 1.348 . S
C670 H702 0.929 . S
C671 C672 1.358 . S
C671 C673 1.356 . S
C671 H703 0.930 . S
C672 N669 1.279 . S
C672 C671 1.358 . S
C672 H675 0.930 . S
C673 C670 1.348 . S
C673 C671 1.356 . S
H674 C668 0.930 . S
H675 C672 0.930 . S
O676 Li616 1.956 . S
O676 Li617 1.970 . S
O676 Li618 1.961 . S
O676 C620 1.325 . S
O677 Li616 1.970 . S
O677 Li617 1.956 . S
O677 Li619 1.961 . S
O677 C626 1.325 . S
O678 Li616 1.961 . S
O678 Li618 1.956 . S
O678 Li619 1.970 . S
O678 C648 1.325 . S
O679 Li617 1.961 . S
O679 Li618 1.970 . S
O679 Li619 1.956 . S
O679 C654 1.325 . S
H680 C622 0.929 . S
H681 C623 0.930 . S
H682 C624 0.930 . S
H683 C625 0.930 . S
H684 C627 0.930 . S
H685 C629 0.929 . S
H686 C630 0.930 . S
H687 C631 0.930 . S
H688 C634 0.930 . S
H689 C637 0.929 . S
H690 C642 0.929 . S
H691 C643 0.930 . S
H692 C650 0.929 . S
H693 C651 0.930 . S
H694 C652 0.930 . S
H695 C653 0.930 . S
H696 C655 0.929 . S
H697 C656 0.930 . S
H698 C657 0.930 . S
H699 C658 0.930 . S
H700 C662 0.929 . S
H701 C664 0.930 . S
H702 C670 0.929 . S
H703 C671 0.930 . S
Li704 N721 1.990 . S
Li704 O764 1.956 . S
Li704 O765 1.970 . S
Li704 O766 1.961 . S
Li705 N729 1.990 . S
Li705 O764 1.970 . S
Li705 O765 1.956 . S
Li705 O767 1.961 . S
Li706 N751 1.990 1_655 S
Li706 O764 1.961 . S
Li706 O766 1.956 . S
Li706 O767 1.970 . S
Li707 N757 1.990 . S
Li707 O765 1.961 . S
Li707 O766 1.970 . S
Li707 O767 1.956 . S
C708 C710 1.349 . S
C708 C711 1.372 . S
C708 O764 1.308 1_455 S
N709 C712 1.314 . S
N709 C713 1.279 . S
C710 C708 1.349 . S
C710 C712 1.353 1_556 S
C710 H768 0.929 1_455 S
C711 C708 1.372 . S
C711 C713 1.358 1_556 S
C711 H769 0.930 . S
C712 N709 1.314 . S
C712 C710 1.353 1_554 S
C712 H770 0.930 . S
C713 N709 1.279 . S
C713 C711 1.358 1_554 S
C713 H771 0.930 . S
C714 C717 1.348 . S
C714 C718 1.356 . S
C714 O765 1.325 . S
C715 N716 1.279 . S
C715 C718 1.358 . S
C715 H772 0.930 . S
N716 C715 1.279 . S
N716 C719 1.314 . S
C717 C714 1.348 . S
C717 C719 1.353 . S
C717 H773 0.929 . S
C718 C714 1.356 . S
C718 C715 1.358 . S
C718 H774 0.930 . S
C719 N716 1.314 . S
C719 C717 1.353 . S
C719 H775 0.930 . S
C720 N721 1.314 . S
C720 C725 1.353 1_556 S
C720 H726 0.930 . S
N721 Li704 1.990 . S
N721 C720 1.314 . S
N721 C723 1.279 1_556 S
C722 C723 1.358 . S
C722 C724 1.356 . S
C722 H776 0.930 . S
C723 N721 1.279 1_554 S
C723 C722 1.358 . S
C723 H727 0.930 . S
C724 C722 1.356 . S
C724 C725 1.348 . S
C725 C720 1.353 1_554 S
C725 C724 1.348 . S
C725 H777 0.929 . S
H726 C720 0.930 . S
H727 C723 0.930 . S
C728 N729 1.314 . S
C728 C730 1.353 . S
C728 H734 0.930 1_655 S
N729 Li705 1.990 . S
N729 C728 1.314 . S
N729 C732 1.279 . S
C730 C728 1.353 . S
C730 C733 1.348 . S
C730 H778 0.929 1_655 S
C731 C732 1.358 . S
C731 C733 1.356 . S
C731 H779 0.930 . S
C732 N729 1.279 . S
C732 C731 1.358 . S
C732 H735 0.930 . S
C733 C730 1.348 . S
C733 C731 1.356 . S
H734 C728 0.930 1_455 S
H735 C732 0.930 . S
C736 C738 1.348 . S
C736 C739 1.356 . S
C736 O766 1.325 . S
N737 C740 1.314 . S
N737 C741 1.279 . S
C738 C736 1.348 . S
C738 C740 1.353 . S
C738 H780 0.929 . S
C739 C736 1.356 . S
C739 C741 1.358 . S
C739 H781 0.930 . S
C740 N737 1.314 . S
C740 C738 1.353 . S
C740 H782 0.930 . S
C741 N737 1.279 . S
C741 C739 1.358 . S
C741 H783 0.930 . S
C742 C743 1.348 1_655 S
C742 C744 1.356 . S
C742 O767 1.325 . S
C743 C742 1.348 1_455 S
C743 C745 1.353 . S
C743 H784 0.929 . S
C744 C742 1.356 . S
C744 C746 1.358 . S
C744 H785 0.930 . S
C745 C743 1.353 . S
C745 N747 1.314 . S
C745 H786 0.930 . S
C746 C744 1.358 . S
C746 N747 1.279 1_655 S
C746 H787 0.930 . S
N747 C745 1.314 . S
N747 C746 1.279 1_455 S
C748 C750 1.353 . S
C748 N751 1.314 . S
C748 H754 0.930 . S
C749 N751 1.279 . S
C749 C752 1.358 . S
C749 H755 0.930 . S
C750 C748 1.353 . S
C750 C753 1.348 . S
C750 H788 0.929 . S
N751 Li706 1.990 1_455 S
N751 C748 1.314 . S
N751 C749 1.279 . S
C752 C749 1.358 . S
C752 C753 1.356 . S
C752 H789 0.930 . S
C753 C750 1.348 . S
C753 C752 1.356 . S
H754 C748 0.930 . S
H755 C749 0.930 . S
C756 N757 1.314 . S
C756 C758 1.353 . S
C756 H762 0.930 . S
N757 Li707 1.990 . S
N757 C756 1.314 . S
N757 C760 1.279 . S
C758 C756 1.353 . S
C758 C761 1.348 . S
C758 H790 0.929 . S
C759 C760 1.358 . S
C759 C761 1.356 . S
C759 H791 0.930 . S
C760 N757 1.279 . S
C760 C759 1.358 . S
C760 H763 0.930 . S
C761 C758 1.348 . S
C761 C759 1.356 . S
H762 C756 0.930 . S
H763 C760 0.930 . S
O764 Li704 1.956 . S
O764 Li705 1.970 . S
O764 Li706 1.961 . S
O764 C708 1.308 1_655 S
O765 Li704 1.970 . S
O765 Li705 1.956 . S
O765 Li707 1.961 . S
O765 C714 1.325 . S
O766 Li704 1.961 . S
O766 Li706 1.956 . S
O766 Li707 1.970 . S
O766 C736 1.325 . S
O767 Li705 1.961 . S
O767 Li706 1.970 . S
O767 Li707 1.956 . S
O767 C742 1.325 . S
H768 C710 0.929 1_655 S
H769 C711 0.930 . S
H770 C712 0.930 . S
H771 C713 0.930 . S
H772 C715 0.930 . S
H773 C717 0.929 . S
H774 C718 0.930 . S
H775 C719 0.930 . S
H776 C722 0.930 . S
H777 C725 0.929 . S
H778 C730 0.929 1_455 S
H779 C731 0.930 . S
H780 C738 0.929 . S
H781 C739 0.930 . S
H782 C740 0.930 . S
H783 C741 0.930 . S
H784 C743 0.929 . S
H785 C744 0.930 . S
H786 C745 0.930 . S
H787 C746 0.930 . S
H788 C750 0.929 . S
H789 C752 0.930 . S
H790 C758 0.929 . S
H791 C759 0.930 . S
Li792 N809 1.990 . S
Li792 O852 1.956 . S
Li792 O853 1.970 . S
Li792 O854 1.961 . S
Li793 N817 1.990 . S
Li793 O852 1.970 . S
Li793 O853 1.956 . S
Li793 O855 1.961 . S
Li794 N839 1.990 1_565 S
Li794 O852 1.961 . S
Li794 O854 1.956 . S
Li794 O855 1.970 . S
Li795 N845 1.990 . S
Li795 O853 1.961 . S
Li795 O854 1.970 . S
Li795 O855 1.956 . S
C796 C798 1.349 . S
C796 C799 1.372 . S
C796 O852 1.308 1_545 S
N797 C800 1.314 . S
N797 C801 1.279 . S
C798 C796 1.349 . S
C798 C800 1.353 . S
C798 H856 0.929 1_545 S
C799 C796 1.372 . S
C799 C801 1.358 . S
C799 H857 0.930 . S
C800 N797 1.314 . S
C800 C798 1.353 . S
C800 H858 0.930 . S
C801 N797 1.279 . S
C801 C799 1.358 . S
C801 H859 0.930 . S
C802 C805 1.348 . S
C802 C806 1.356 . S
C802 O853 1.325 . S
C803 N804 1.279 . S
C803 C806 1.358 . S
C803 H860 0.930 . S
N804 C803 1.279 . S
N804 C807 1.314 . S
C805 C802 1.348 . S
C805 C807 1.353 . S
C805 H861 0.929 . S
C806 C802 1.356 . S
C806 C803 1.358 . S
C806 H862 0.930 . S
C807 N804 1.314 . S
C807 C805 1.353 . S
C807 H863 0.930 . S
C808 N809 1.314 . S
C808 C813 1.353 . S
C808 H814 0.930 . S
N809 Li792 1.990 . S
N809 C808 1.314 . S
N809 C811 1.279 . S
C810 C811 1.358 . S
C810 C812 1.356 . S
C810 H864 0.930 . S
C811 N809 1.279 . S
C811 C810 1.358 . S
C811 H815 0.930 . S
C812 C810 1.356 . S
C812 C813 1.348 . S
C813 C808 1.353 . S
C813 C812 1.348 . S
C813 H865 0.929 . S
H814 C808 0.930 . S
H815 C811 0.930 . S
C816 N817 1.314 . S
C816 C818 1.353 . S
C816 H822 0.930 1_565 S
N817 Li793 1.990 . S
N817 C816 1.314 . S
N817 C820 1.279 . S
C818 C816 1.353 . S
C818 C821 1.348 . S
C818 H866 0.929 1_565 S
C819 C820 1.358 . S
C819 C821 1.356 . S
C819 H867 0.930 . S
C820 N817 1.279 . S
C820 C819 1.358 . S
C820 H823 0.930 . S
C821 C818 1.348 . S
C821 C819 1.356 . S
H822 C816 0.930 1_545 S
H823 C820 0.930 . S
C824 C826 1.348 . S
C824 C827 1.356 . S
C824 O854 1.325 . S
N825 C828 1.314 . S
N825 C829 1.279 . S
C826 C824 1.348 . S
C826 C828 1.353 . S
C826 H868 0.929 . S
C827 C824 1.356 . S
C827 C829 1.358 . S
C827 H869 0.930 . S
C828 N825 1.314 . S
C828 C826 1.353 . S
C828 H870 0.930 . S
C829 N825 1.279 . S
C829 C827 1.358 . S
C829 H871 0.930 . S
C830 C831 1.348 1_565 S
C830 C832 1.356 . S
C830 O855 1.325 . S
C831 C830 1.348 1_545 S
C831 C833 1.353 . S
C831 H872 0.929 . S
C832 C830 1.356 . S
C832 C834 1.358 . S
C832 H873 0.930 . S
C833 C831 1.353 . S
C833 N835 1.314 . S
C833 H874 0.930 . S
C834 C832 1.358 . S
C834 N835 1.279 1_565 S
C834 H875 0.930 . S
N835 C833 1.314 . S
N835 C834 1.279 1_545 S
C836 C838 1.353 . S
C836 N839 1.314 . S
C836 H842 0.930 . S
C837 N839 1.279 . S
C837 C840 1.358 . S
C837 H843 0.930 . S
C838 C836 1.353 . S
C838 C841 1.348 . S
C838 H876 0.929 . S
N839 Li794 1.990 1_545 S
N839 C836 1.314 . S
N839 C837 1.279 . S
C840 C837 1.358 . S
C840 C841 1.356 . S
C840 H877 0.930 . S
C841 C838 1.348 . S
C841 C840 1.356 . S
H842 C836 0.930 . S
H843 C837 0.930 . S
C844 N845 1.314 . S
C844 C846 1.353 . S
C844 H850 0.930 . S
N845 Li795 1.990 . S
N845 C844 1.314 . S
N845 C848 1.279 . S
C846 C844 1.353 . S
C846 C849 1.348 . S
C846 H878 0.929 . S
C847 C848 1.358 . S
C847 C849 1.356 . S
C847 H879 0.930 . S
C848 N845 1.279 . S
C848 C847 1.358 . S
C848 H851 0.930 . S
C849 C846 1.348 . S
C849 C847 1.356 . S
H850 C844 0.930 . S
H851 C848 0.930 . S
O852 Li792 1.956 . S
O852 Li793 1.970 . S
O852 Li794 1.961 . S
O852 C796 1.308 1_565 S
O853 Li792 1.970 . S
O853 Li793 1.956 . S
O853 Li795 1.961 . S
O853 C802 1.325 . S
O854 Li792 1.961 . S
O854 Li794 1.956 . S
O854 Li795 1.970 . S
O854 C824 1.325 . S
O855 Li793 1.961 . S
O855 Li794 1.970 . S
O855 Li795 1.956 . S
O855 C830 1.325 . S
H856 C798 0.929 1_565 S
H857 C799 0.930 . S
H858 C800 0.930 . S
H859 C801 0.930 . S
H860 C803 0.930 . S
H861 C805 0.929 . S
H862 C806 0.930 . S
H863 C807 0.930 . S
H864 C810 0.930 . S
H865 C813 0.929 . S
H866 C818 0.929 1_545 S
H867 C819 0.930 . S
H868 C826 0.929 . S
H869 C827 0.930 . S
H870 C828 0.930 . S
H871 C829 0.930 . S
H872 C831 0.929 . S
H873 C832 0.930 . S
H874 C833 0.930 . S
H875 C834 0.930 . S
H876 C838 0.929 . S
H877 C840 0.930 . S
H878 C846 0.929 . S
H879 C847 0.930 . S
Li880 N897 1.990 . S
Li880 O940 1.956 . S
Li880 O941 1.970 . S
Li880 O942 1.961 . S
Li881 N905 1.990 . S
Li881 O940 1.970 . S
Li881 O941 1.956 . S
Li881 O943 1.961 . S
Li882 N927 1.990 . S
Li882 O940 1.961 . S
Li882 O942 1.956 . S
Li882 O943 1.970 . S
Li883 N933 1.990 . S
Li883 O941 1.961 . S
Li883 O942 1.970 . S
Li883 O943 1.956 . S
C884 C886 1.348 . S
C884 C887 1.356 . S
C884 O940 1.325 . S
N885 C888 1.314 . S
N885 C889 1.279 . S
C886 C884 1.348 . S
C886 C888 1.353 . S
C886 H944 0.929 . S
C887 C884 1.356 . S
C887 C889 1.358 . S
C887 H945 0.930 . S
C888 N885 1.314 . S
C888 C886 1.353 . S
C888 H946 0.930 . S
C889 N885 1.279 . S
C889 C887 1.358 . S
C889 H947 0.930 . S
C890 C893 1.348 . S
C890 C894 1.356 . S
C890 O941 1.325 . S
C891 N892 1.279 . S
C891 C894 1.358 1_554 S
C891 H948 0.930 . S
N892 C891 1.279 . S
N892 C895 1.314 . S
C893 C890 1.348 . S
C893 C895 1.353 1_556 S
C893 H949 0.929 . S
C894 C890 1.356 . S
C894 C891 1.358 1_556 S
C894 H950 0.930 . S
C895 N892 1.314 . S
C895 C893 1.353 1_554 S
C895 H951 0.930 . S
C896 N897 1.314 . S
C896 C901 1.353 . S
C896 H902 0.930 . S
N897 Li880 1.990 . S
N897 C896 1.314 . S
N897 C899 1.279 . S
C898 C899 1.358 . S
C898 C900 1.356 . S
C898 H952 0.930 . S
C899 N897 1.279 . S
C899 C898 1.358 . S
C899 H903 0.930 . S
C900 C898 1.356 . S
C900 C901 1.348 . S
C901 C896 1.353 . S
C901 C900 1.348 . S
C901 H953 0.929 . S
H902 C896 0.930 . S
H903 C899 0.930 . S
C904 N905 1.314 . S
C904 C906 1.353 1_556 S
C904 H910 0.930 . S
N905 Li881 1.990 . S
N905 C904 1.314 . S
N905 C908 1.279 1_556 S
C906 C904 1.353 1_554 S
C906 C909 1.348 . S
C906 H954 0.929 . S
C907 C908 1.358 . S
C907 C909 1.356 . S
C907 H955 0.930 . S
C908 N905 1.279 1_554 S
C908 C907 1.358 . S
C908 H911 0.930 . S
C909 C906 1.348 . S
C909 C907 1.356 . S
H910 C904 0.930 . S
H911 C908 0.930 . S
C912 C914 1.348 . S
C912 C915 1.356 . S
C912 O942 1.325 . S
N913 C916 1.314 . S
N913 C917 1.279 . S
C914 C912 1.348 . S
C914 C916 1.353 . S
C914 H956 0.929 . S
C915 C912 1.356 . S
C915 C917 1.358 . S
C915 H957 0.930 . S
C916 N913 1.314 . S
C916 C914 1.353 . S
C916 H958 0.930 . S
C917 N913 1.279 . S
C917 C915 1.358 . S
C917 H959 0.930 . S
C918 C919 1.348 . S
C918 C920 1.356 . S
C918 O943 1.325 . S
C919 C918 1.348 . S
C919 C921 1.353 . S
C919 H960 0.929 . S
C920 C918 1.356 . S
C920 C922 1.358 . S
C920 H961 0.930 . S
C921 C919 1.353 . S
C921 N923 1.314 . S
C921 H962 0.930 . S
C922 C920 1.358 . S
C922 N923 1.279 . S
C922 H963 0.930 . S
N923 C921 1.314 . S
N923 C922 1.279 . S
C924 C926 1.353 . S
C924 N927 1.314 . S
C924 H930 0.930 . S
C925 N927 1.279 . S
C925 C928 1.358 . S
C925 H931 0.930 . S
C926 C924 1.353 . S
C926 C929 1.348 . S
C926 H964 0.929 . S
N927 Li882 1.990 . S
N927 C924 1.314 . S
N927 C925 1.279 . S
C928 C925 1.358 . S
C928 C929 1.356 . S
C928 H965 0.930 . S
C929 C926 1.348 . S
C929 C928 1.356 . S
H930 C924 0.930 . S
H931 C925 0.930 . S
C932 N933 1.314 . S
C932 C934 1.353 . S
C932 H938 0.930 . S
N933 Li883 1.990 . S
N933 C932 1.314 . S
N933 C936 1.279 . S
C934 C932 1.353 . S
C934 C937 1.348 . S
C934 H966 0.929 . S
C935 C936 1.358 . S
C935 C937 1.356 . S
C935 H967 0.930 . S
C936 N933 1.279 . S
C936 C935 1.358 . S
C936 H939 0.930 . S
C937 C934 1.348 . S
C937 C935 1.356 . S
H938 C932 0.930 . S
H939 C936 0.930 . S
O940 Li880 1.956 . S
O940 Li881 1.970 . S
O940 Li882 1.961 . S
O940 C884 1.325 . S
O941 Li880 1.970 . S
O941 Li881 1.956 . S
O941 Li883 1.961 . S
O941 C890 1.325 . S
O942 Li880 1.961 . S
O942 Li882 1.956 . S
O942 Li883 1.970 . S
O942 C912 1.325 . S
O943 Li881 1.961 . S
O943 Li882 1.970 . S
O943 Li883 1.956 . S
O943 C918 1.325 . S
H944 C886 0.929 . S
H945 C887 0.930 . S
H946 C888 0.930 . S
H947 C889 0.930 . S
H948 C891 0.930 . S
H949 C893 0.929 . S
H950 C894 0.930 . S
H951 C895 0.930 . S
H952 C898 0.930 . S
H953 C901 0.929 . S
H954 C906 0.929 . S
H955 C907 0.930 . S
H956 C914 0.929 . S
H957 C915 0.930 . S
H958 C916 0.930 . S
H959 C917 0.930 . S
H960 C919 0.929 . S
H961 C920 0.930 . S
H962 C921 0.930 . S
H963 C922 0.930 . S
H964 C926 0.929 . S
H965 C928 0.930 . S
H966 C934 0.929 . S
H967 C935 0.930 . S
Li968 N985 1.990 . S
Li968 O1028 1.956 . S
Li968 O1029 1.970 . S
Li968 O1030 1.961 . S
Li969 N993 1.990 . S
Li969 O1028 1.970 . S
Li969 O1029 1.956 . S
Li969 O1031 1.961 . S
Li970 N1015 1.990 . S
Li970 O1028 1.961 . S
Li970 O1030 1.956 . S
Li970 O1031 1.970 . S
Li971 N1021 1.990 . S
Li971 O1029 1.961 . S
Li971 O1030 1.970 . S
Li971 O1031 1.956 . S
C972 C974 1.348 . S
C972 C975 1.356 . S
C972 O1028 1.325 . S
N973 C976 1.314 . S
N973 C977 1.279 . S
C974 C972 1.348 . S
C974 C976 1.353 . S
C974 H1032 0.929 . S
C975 C972 1.356 . S
C975 C977 1.358 . S
C975 H1033 0.930 . S
C976 N973 1.314 . S
C976 C974 1.353 . S
C976 H1034 0.930 . S
C977 N973 1.279 . S
C977 C975 1.358 . S
C977 H1035 0.930 . S
C978 C981 1.348 . S
C978 C982 1.356 . S
C978 O1029 1.325 . S
C979 N980 1.279 . S
C979 C982 1.358 . S
C979 H1036 0.930 . S
N980 C979 1.279 . S
N980 C983 1.314 . S
C981 C978 1.348 . S
C981 C983 1.353 . S
C981 H1037 0.929 . S
C982 C978 1.356 . S
C982 C979 1.358 . S
C982 H1038 0.930 . S
C983 N980 1.314 . S
C983 C981 1.353 . S
C983 H1039 0.930 . S
C984 N985 1.314 . S
C984 C989 1.353 . S
C984 H990 0.930 . S
N985 Li968 1.990 . S
N985 C984 1.314 . S
N985 C987 1.279 . S
C986 C987 1.358 . S
C986 C988 1.356 . S
C986 H1040 0.930 . S
C987 N985 1.279 . S
C987 C986 1.358 . S
C987 H991 0.930 . S
C988 C986 1.356 . S
C988 C989 1.348 . S
C989 C984 1.353 . S
C989 C988 1.348 . S
C989 H1041 0.929 . S
H990 C984 0.930 . S
H991 C987 0.930 . S
C992 N993 1.314 . S
C992 C994 1.353 . S
C992 H998 0.930 . S
N993 Li969 1.990 . S
N993 C992 1.314 . S
N993 C996 1.279 . S
C994 C992 1.353 . S
C994 C997 1.348 . S
C994 H1042 0.929 . S
C995 C996 1.358 . S
C995 C997 1.356 . S
C995 H1043 0.930 . S
C996 N993 1.279 . S
C996 C995 1.358 . S
C996 H999 0.930 . S
C997 C994 1.348 . S
C997 C995 1.356 . S
H998 C992 0.930 . S
H999 C996 0.930 . S
C1000 C1002 1.348 . S
C1000 C1003 1.356 . S
C1000 O1030 1.325 . S
N1001 C1004 1.314 . S
N1001 C1005 1.279 . S
C1002 C1000 1.348 . S
C1002 C1004 1.353 . S
C1002 H1044 0.929 . S
C1003 C1000 1.356 . S
C1003 C1005 1.358 . S
C1003 H1045 0.930 . S
C1004 N1001 1.314 . S
C1004 C1002 1.353 . S
C1004 H1046 0.930 . S
C1005 N1001 1.279 . S
C1005 C1003 1.358 . S
C1005 H1047 0.930 . S
C1006 C1007 1.348 . S
C1006 C1008 1.356 . S
C1006 O1031 1.325 . S
C1007 C1006 1.348 . S
C1007 C1009 1.353 . S
C1007 H1048 0.929 . S
C1008 C1006 1.356 . S
C1008 C1010 1.358 . S
C1008 H1049 0.930 . S
C1009 C1007 1.353 . S
C1009 N1011 1.314 . S
C1009 H1050 0.930 . S
C1010 C1008 1.358 . S
C1010 N1011 1.279 . S
C1010 H1051 0.930 . S
N1011 C1009 1.314 . S
N1011 C1010 1.279 . S
C1012 C1014 1.353 . S
C1012 N1015 1.314 . S
C1012 H1018 0.930 . S
C1013 N1015 1.279 . S
C1013 C1016 1.358 . S
C1013 H1019 0.930 . S
C1014 C1012 1.353 . S
C1014 C1017 1.348 . S
C1014 H1052 0.929 . S
N1015 Li970 1.990 . S
N1015 C1012 1.314 . S
N1015 C1013 1.279 . S
C1016 C1013 1.358 . S
C1016 C1017 1.356 . S
C1016 H1053 0.930 . S
C1017 C1014 1.348 . S
C1017 C1016 1.356 . S
H1018 C1012 0.930 . S
H1019 C1013 0.930 . S
C1020 N1021 1.314 . S
C1020 C1022 1.353 . S
C1020 H1026 0.930 . S
N1021 Li971 1.990 . S
N1021 C1020 1.314 . S
N1021 C1024 1.279 . S
C1022 C1020 1.353 . S
C1022 C1025 1.348 . S
C1022 H1054 0.929 . S
C1023 C1024 1.358 . S
C1023 C1025 1.356 . S
C1023 H1055 0.930 . S
C1024 N1021 1.279 . S
C1024 C1023 1.358 . S
C1024 H1027 0.930 . S
C1025 C1022 1.348 . S
C1025 C1023 1.356 . S
H1026 C1020 0.930 . S
H1027 C1024 0.930 . S
O1028 Li968 1.956 . S
O1028 Li969 1.970 . S
O1028 Li970 1.961 . S
O1028 C972 1.325 . S
O1029 Li968 1.970 . S
O1029 Li969 1.956 . S
O1029 Li971 1.961 . S
O1029 C978 1.325 . S
O1030 Li968 1.961 . S
O1030 Li970 1.956 . S
O1030 Li971 1.970 . S
O1030 C1000 1.325 . S
O1031 Li969 1.961 . S
O1031 Li970 1.970 . S
O1031 Li971 1.956 . S
O1031 C1006 1.325 . S
H1032 C974 0.929 . S
H1033 C975 0.930 . S
H1034 C976 0.930 . S
H1035 C977 0.930 . S
H1036 C979 0.930 . S
H1037 C981 0.929 . S
H1038 C982 0.930 . S
H1039 C983 0.930 . S
H1040 C986 0.930 . S
H1041 C989 0.929 . S
H1042 C994 0.929 . S
H1043 C995 0.930 . S
H1044 C1002 0.929 . S
H1045 C1003 0.930 . S
H1046 C1004 0.930 . S
H1047 C1005 0.930 . S
H1048 C1007 0.929 . S
H1049 C1008 0.930 . S
H1050 C1009 0.930 . S
H1051 C1010 0.930 . S
H1052 C1014 0.929 . S
H1053 C1016 0.930 . S
H1054 C1022 0.929 . S
H1055 C1023 0.930 . S
Li1056 N1073 1.990 . S
Li1056 O1116 1.956 . S
Li1056 O1117 1.970 . S
Li1056 O1118 1.961 . S
Li1057 N1081 1.990 1_655 S
Li1057 O1116 1.970 . S
Li1057 O1117 1.956 . S
Li1057 O1119 1.961 . S
Li1058 N1103 1.990 . S
Li1058 O1116 1.961 . S
Li1058 O1118 1.956 . S
Li1058 O1119 1.970 . S
Li1059 N1109 1.990 . S
Li1059 O1117 1.961 . S
Li1059 O1118 1.970 . S
Li1059 O1119 1.956 . S
C1060 C1062 1.348 1_655 S
C1060 C1063 1.356 . S
C1060 O1116 1.325 . S
N1061 C1064 1.314 . S
N1061 C1065 1.279 1_455 S
C1062 C1060 1.348 1_455 S
C1062 C1064 1.353 . S
C1062 H1120 0.929 . S
C1063 C1060 1.356 . S
C1063 C1065 1.358 . S
C1063 H1121 0.930 . S
C1064 N1061 1.314 . S
C1064 C1062 1.353 . S
C1064 H1122 0.930 . S
C1065 N1061 1.279 1_655 S
C1065 C1063 1.358 . S
C1065 H1123 0.930 . S
C1066 C1069 1.348 . S
C1066 C1070 1.356 . S
C1066 O1117 1.325 . S
C1067 N1068 1.279 . S
C1067 C1070 1.358 . S
C1067 H1124 0.930 . S
N1068 C1067 1.279 . S
N1068 C1071 1.314 . S
C1069 C1066 1.348 . S
C1069 C1071 1.353 . S
C1069 H1125 0.929 . S
C1070 C1066 1.356 . S
C1070 C1067 1.358 . S
C1070 H1126 0.930 . S
C1071 N1068 1.314 . S
C1071 C1069 1.353 . S
C1071 H1127 0.930 . S
C1072 N1073 1.314 . S
C1072 C1077 1.353 . S
C1072 H1078 0.930 . S
N1073 Li1056 1.990 . S
N1073 C1072 1.314 . S
N1073 C1075 1.279 . S
C1074 C1075 1.358 . S
C1074 C1076 1.356 . S
C1074 H1128 0.930 . S
C1075 N1073 1.279 . S
C1075 C1074 1.358 . S
C1075 H1079 0.930 . S
C1076 C1074 1.356 . S
C1076 C1077 1.348 . S
C1077 C1072 1.353 . S
C1077 C1076 1.348 . S
C1077 H1129 0.929 . S
H1078 C1072 0.930 . S
H1079 C1075 0.930 . S
C1080 N1081 1.314 . S
C1080 C1082 1.353 . S
C1080 H1086 0.930 . S
N1081 Li1057 1.990 1_455 S
N1081 C1080 1.314 . S
N1081 C1084 1.279 . S
C1082 C1080 1.353 . S
C1082 C1085 1.348 . S
C1082 H1130 0.929 . S
C1083 C1084 1.358 . S
C1083 C1085 1.356 . S
C1083 H1131 0.930 . S
C1084 N1081 1.279 . S
C1084 C1083 1.358 . S
C1084 H1087 0.930 . S
C1085 C1082 1.348 . S
C1085 C1083 1.356 . S
H1086 C1080 0.930 . S
H1087 C1084 0.930 . S
C1088 C1090 1.348 . S
C1088 C1091 1.356 . S
C1088 O1118 1.325 . S
N1089 C1092 1.314 . S
N1089 C1093 1.279 . S
C1090 C1088 1.348 . S
C1090 C1092 1.353 . S
C1090 H1132 0.929 . S
C1091 C1088 1.356 . S
C1091 C1093 1.358 . S
C1091 H1133 0.930 . S
C1092 N1089 1.314 . S
C1092 C1090 1.353 . S
C1092 H1134 0.930 . S
C1093 N1089 1.279 . S
C1093 C1091 1.358 . S
C1093 H1135 0.930 . S
C1094 C1095 1.349 . S
C1094 C1096 1.372 . S
C1094 O1119 1.308 1_455 S
C1095 C1094 1.349 . S
C1095 C1097 1.353 1_554 S
C1095 H1136 0.929 1_455 S
C1096 C1094 1.372 . S
C1096 C1098 1.358 1_554 S
C1096 H1137 0.930 . S
C1097 C1095 1.353 1_556 S
C1097 N1099 1.314 . S
C1097 H1138 0.930 . S
C1098 C1096 1.358 1_556 S
C1098 N1099 1.279 . S
C1098 H1139 0.930 . S
N1099 C1097 1.314 . S
N1099 C1098 1.279 . S
C1100 C1102 1.353 . S
C1100 N1103 1.314 . S
C1100 H1106 0.930 1_655 S
C1101 N1103 1.279 . S
C1101 C1104 1.358 . S
C1101 H1107 0.930 . S
C1102 C1100 1.353 . S
C1102 C1105 1.348 . S
C1102 H1140 0.929 1_655 S
N1103 Li1058 1.990 . S
N1103 C1100 1.314 . S
N1103 C1101 1.279 . S
C1104 C1101 1.358 . S
C1104 C1105 1.356 . S
C1104 H1141 0.930 . S
C1105 C1102 1.348 . S
C1105 C1104 1.356 . S
H1106 C1100 0.930 1_455 S
H1107 C1101 0.930 . S
C1108 N1109 1.314 . S
C1108 C1110 1.353 1_554 S
C1108 H1114 0.930 . S
N1109 Li1059 1.990 . S
N1109 C1108 1.314 . S
N1109 C1112 1.279 1_554 S
C1110 C1108 1.353 1_556 S
C1110 C1113 1.348 . S
C1110 H1142 0.929 . S
C1111 C1112 1.358 . S
C1111 C1113 1.356 . S
C1111 H1143 0.930 . S
C1112 N1109 1.279 1_556 S
C1112 C1111 1.358 . S
C1112 H1115 0.930 . S
C1113 C1110 1.348 . S
C1113 C1111 1.356 . S
H1114 C1108 0.930 . S
H1115 C1112 0.930 . S
O1116 Li1056 1.956 . S
O1116 Li1057 1.970 . S
O1116 Li1058 1.961 . S
O1116 C1060 1.325 . S
O1117 Li1056 1.970 . S
O1117 Li1057 1.956 . S
O1117 Li1059 1.961 . S
O1117 C1066 1.325 . S
O1118 Li1056 1.961 . S
O1118 Li1058 1.956 . S
O1118 Li1059 1.970 . S
O1118 C1088 1.325 . S
O1119 Li1057 1.961 . S
O1119 Li1058 1.970 . S
O1119 Li1059 1.956 . S
O1119 C1094 1.308 1_655 S
H1120 C1062 0.929 . S
H1121 C1063 0.930 . S
H1122 C1064 0.930 . S
H1123 C1065 0.930 . S
H1124 C1067 0.930 . S
H1125 C1069 0.929 . S
H1126 C1070 0.930 . S
H1127 C1071 0.930 . S
H1128 C1074 0.930 . S
H1129 C1077 0.929 . S
H1130 C1082 0.929 . S
H1131 C1083 0.930 . S
H1132 C1090 0.929 . S
H1133 C1091 0.930 . S
H1134 C1092 0.930 . S
H1135 C1093 0.930 . S
H1136 C1095 0.929 1_655 S
H1137 C1096 0.930 . S
H1138 C1097 0.930 . S
H1139 C1098 0.930 . S
H1140 C1102 0.929 1_455 S
H1141 C1104 0.930 . S
H1142 C1110 0.929 . S
H1143 C1111 0.930 . S
Li1144 N1161 1.990 1_565 S
Li1144 O1204 1.956 . S
Li1144 O1205 1.970 . S
Li1144 O1206 1.961 . S
Li1145 N1169 1.990 . S
Li1145 O1204 1.970 . S
Li1145 O1205 1.956 . S
Li1145 O1207 1.961 . S
Li1146 N1191 1.990 . S
Li1146 O1204 1.961 . S
Li1146 O1206 1.956 . S
Li1146 O1207 1.970 . S
Li1147 N1197 1.990 . S
Li1147 O1205 1.961 . S
Li1147 O1206 1.970 . S
Li1147 O1207 1.956 . S
C1148 C1150 1.348 . S
C1148 C1151 1.356 . S
C1148 O1204 1.325 . S
N1149 C1152 1.314 . S
N1149 C1153 1.279 . S
C1150 C1148 1.348 . S
C1150 C1152 1.353 . S
C1150 H1208 0.929 . S
C1151 C1148 1.356 . S
C1151 C1153 1.358 . S
C1151 H1209 0.930 . S
C1152 N1149 1.314 . S
C1152 C1150 1.353 . S
C1152 H1210 0.930 . S
C1153 N1149 1.279 . S
C1153 C1151 1.358 . S
C1153 H1211 0.930 . S
C1154 C1157 1.348 1_565 S
C1154 C1158 1.356 . S
C1154 O1205 1.325 . S
C1155 N1156 1.279 1_565 S
C1155 C1158 1.358 . S
C1155 H1212 0.930 . S
N1156 C1155 1.279 1_545 S
N1156 C1159 1.314 . S
C1157 C1154 1.348 1_545 S
C1157 C1159 1.353 . S
C1157 H1213 0.929 . S
C1158 C1154 1.356 . S
C1158 C1155 1.358 . S
C1158 H1214 0.930 . S
C1159 N1156 1.314 . S
C1159 C1157 1.353 . S
C1159 H1215 0.930 . S
C1160 N1161 1.314 . S
C1160 C1165 1.353 . S
C1160 H1166 0.930 . S
N1161 Li1144 1.990 1_545 S
N1161 C1160 1.314 . S
N1161 C1163 1.279 . S
C1162 C1163 1.358 . S
C1162 C1164 1.356 . S
C1162 H1216 0.930 . S
C1163 N1161 1.279 . S
C1163 C1162 1.358 . S
C1163 H1167 0.930 . S
C1164 C1162 1.356 . S
C1164 C1165 1.348 . S
C1165 C1160 1.353 . S
C1165 C1164 1.348 . S
C1165 H1217 0.929 . S
H1166 C1160 0.930 . S
H1167 C1163 0.930 . S
C1168 N1169 1.314 . S
C1168 C1170 1.353 . S
C1168 H1174 0.930 . S
N1169 Li1145 1.990 . S
N1169 C1168 1.314 . S
N1169 C1172 1.279 . S
C1170 C1168 1.353 . S
C1170 C1173 1.348 . S
C1170 H1218 0.929 . S
C1171 C1172 1.358 . S
C1171 C1173 1.356 . S
C1171 H1219 0.930 . S
C1172 N1169 1.279 . S
C1172 C1171 1.358 . S
C1172 H1175 0.930 . S
C1173 C1170 1.348 . S
C1173 C1171 1.356 . S
H1174 C1168 0.930 . S
H1175 C1172 0.930 . S
C1176 C1178 1.349 . S
C1176 C1179 1.372 . S
C1176 O1206 1.308 1_545 S
N1177 C1180 1.314 . S
N1177 C1181 1.279 . S
C1178 C1176 1.349 . S
C1178 C1180 1.353 . S
C1178 H1220 0.929 1_545 S
C1179 C1176 1.372 . S
C1179 C1181 1.358 . S
C1179 H1221 0.930 . S
C1180 N1177 1.314 . S
C1180 C1178 1.353 . S
C1180 H1222 0.930 . S
C1181 N1177 1.279 . S
C1181 C1179 1.358 . S
C1181 H1223 0.930 . S
C1182 C1183 1.348 . S
C1182 C1184 1.356 . S
C1182 O1207 1.325 . S
C1183 C1182 1.348 . S
C1183 C1185 1.353 . S
C1183 H1224 0.929 . S
C1184 C1182 1.356 . S
C1184 C1186 1.358 . S
C1184 H1225 0.930 . S
C1185 C1183 1.353 . S
C1185 N1187 1.314 . S
C1185 H1226 0.930 . S
C1186 C1184 1.358 . S
C1186 N1187 1.279 . S
C1186 H1227 0.930 . S
N1187 C1185 1.314 . S
N1187 C1186 1.279 . S
C1188 C1190 1.353 . S
C1188 N1191 1.314 . S
C1188 H1194 0.930 . S
C1189 N1191 1.279 . S
C1189 C1192 1.358 . S
C1189 H1195 0.930 . S
C1190 C1188 1.353 . S
C1190 C1193 1.348 . S
C1190 H1228 0.929 . S
N1191 Li1146 1.990 . S
N1191 C1188 1.314 . S
N1191 C1189 1.279 . S
C1192 C1189 1.358 . S
C1192 C1193 1.356 . S
C1192 H1229 0.930 . S
C1193 C1190 1.348 . S
C1193 C1192 1.356 . S
H1194 C1188 0.930 . S
H1195 C1189 0.930 . S
C1196 N1197 1.314 . S
C1196 C1198 1.353 . S
C1196 H1202 0.930 1_565 S
N1197 Li1147 1.990 . S
N1197 C1196 1.314 . S
N1197 C1200 1.279 . S
C1198 C1196 1.353 . S
C1198 C1201 1.348 . S
C1198 H1230 0.929 1_565 S
C1199 C1200 1.358 . S
C1199 C1201 1.356 . S
C1199 H1231 0.930 . S
C1200 N1197 1.279 . S
C1200 C1199 1.358 . S
C1200 H1203 0.930 . S
C1201 C1198 1.348 . S
C1201 C1199 1.356 . S
H1202 C1196 0.930 1_545 S
H1203 C1200 0.930 . S
O1204 Li1144 1.956 . S
O1204 Li1145 1.970 . S
O1204 Li1146 1.961 . S
O1204 C1148 1.325 . S
O1205 Li1144 1.970 . S
O1205 Li1145 1.956 . S
O1205 Li1147 1.961 . S
O1205 C1154 1.325 . S
O1206 Li1144 1.961 . S
O1206 Li1146 1.956 . S
O1206 Li1147 1.970 . S
O1206 C1176 1.308 1_565 S
O1207 Li1145 1.961 . S
O1207 Li1146 1.970 . S
O1207 Li1147 1.956 . S
O1207 C1182 1.325 . S
H1208 C1150 0.929 . S
H1209 C1151 0.930 . S
H1210 C1152 0.930 . S
H1211 C1153 0.930 . S
H1212 C1155 0.930 . S
H1213 C1157 0.929 . S
H1214 C1158 0.930 . S
H1215 C1159 0.930 . S
H1216 C1162 0.930 . S
H1217 C1165 0.929 . S
H1218 C1170 0.929 . S
H1219 C1171 0.930 . S
H1220 C1178 0.929 1_565 S
H1221 C1179 0.930 . S
H1222 C1180 0.930 . S
H1223 C1181 0.930 . S
H1224 C1183 0.929 . S
H1225 C1184 0.930 . S
H1226 C1185 0.930 . S
H1227 C1186 0.930 . S
H1228 C1190 0.929 . S
H1229 C1192 0.930 . S
H1230 C1198 0.929 1_545 S
H1231 C1199 0.930 . S
Li1232 N1249 1.990 . S
Li1232 O1292 1.956 . S
Li1232 O1293 1.970 . S
Li1232 O1294 1.961 . S
Li1233 N1257 1.990 . S
Li1233 O1292 1.970 . S
Li1233 O1293 1.956 . S
Li1233 O1295 1.961 . S
Li1234 N1279 1.990 . S
Li1234 O1292 1.961 . S
Li1234 O1294 1.956 . S
Li1234 O1295 1.970 . S
Li1235 N1285 1.990 . S
Li1235 O1293 1.961 . S
Li1235 O1294 1.970 . S
Li1235 O1295 1.956 . S
C1236 C1238 1.348 . S
C1236 C1239 1.356 . S
C1236 O1292 1.325 . S
N1237 C1240 1.314 . S
N1237 C1241 1.279 . S
C1238 C1236 1.348 . S
C1238 C1240 1.353 . S
C1238 H1296 0.929 . S
C1239 C1236 1.356 . S
C1239 C1241 1.358 . S
C1239 H1297 0.930 . S
C1240 N1237 1.314 . S
C1240 C1238 1.353 . S
C1240 H1298 0.930 . S
C1241 N1237 1.279 . S
C1241 C1239 1.358 . S
C1241 H1299 0.930 . S
C1242 C1245 1.348 . S
C1242 C1246 1.356 . S
C1242 O1293 1.325 . S
C1243 N1244 1.279 . S
C1243 C1246 1.358 . S
C1243 H1300 0.930 . S
N1244 C1243 1.279 . S
N1244 C1247 1.314 . S
C1245 C1242 1.348 . S
C1245 C1247 1.353 . S
C1245 H1301 0.929 . S
C1246 C1242 1.356 . S
C1246 C1243 1.358 . S
C1246 H1302 0.930 . S
C1247 N1244 1.314 . S
C1247 C1245 1.353 . S
C1247 H1303 0.930 . S
C1248 N1249 1.314 . S
C1248 C1253 1.353 . S
C1248 H1254 0.930 . S
N1249 Li1232 1.990 . S
N1249 C1248 1.314 . S
N1249 C1251 1.279 . S
C1250 C1251 1.358 . S
C1250 C1252 1.356 . S
C1250 H1304 0.930 . S
C1251 N1249 1.279 . S
C1251 C1250 1.358 . S
C1251 H1255 0.930 . S
C1252 C1250 1.356 . S
C1252 C1253 1.348 . S
C1253 C1248 1.353 . S
C1253 C1252 1.348 . S
C1253 H1305 0.929 . S
H1254 C1248 0.930 . S
H1255 C1251 0.930 . S
C1256 N1257 1.314 . S
C1256 C1258 1.353 . S
C1256 H1262 0.930 . S
N1257 Li1233 1.990 . S
N1257 C1256 1.314 . S
N1257 C1260 1.279 . S
C1258 C1256 1.353 . S
C1258 C1261 1.348 . S
C1258 H1306 0.929 . S
C1259 C1260 1.358 . S
C1259 C1261 1.356 . S
C1259 H1307 0.930 . S
C1260 N1257 1.279 . S
C1260 C1259 1.358 . S
C1260 H1263 0.930 . S
C1261 C1258 1.348 . S
C1261 C1259 1.356 . S
H1262 C1256 0.930 . S
H1263 C1260 0.930 . S
C1264 C1266 1.348 . S
C1264 C1267 1.356 . S
C1264 O1294 1.325 . S
N1265 C1268 1.314 . S
N1265 C1269 1.279 . S
C1266 C1264 1.348 . S
C1266 C1268 1.353 1_554 S
C1266 H1308 0.929 . S
C1267 C1264 1.356 . S
C1267 C1269 1.358 1_554 S
C1267 H1309 0.930 . S
C1268 N1265 1.314 . S
C1268 C1266 1.353 1_556 S
C1268 H1310 0.930 . S
C1269 N1265 1.279 . S
C1269 C1267 1.358 1_556 S
C1269 H1311 0.930 . S
C1270 C1271 1.348 . S
C1270 C1272 1.356 . S
C1270 O1295 1.325 . S
C1271 C1270 1.348 . S
C1271 C1273 1.353 . S
C1271 H1312 0.929 . S
C1272 C1270 1.356 . S
C1272 C1274 1.358 . S
C1272 H1313 0.930 . S
C1273 C1271 1.353 . S
C1273 N1275 1.314 . S
C1273 H1314 0.930 . S
C1274 C1272 1.358 . S
C1274 N1275 1.279 . S
C1274 H1315 0.930 . S
N1275 C1273 1.314 . S
N1275 C1274 1.279 . S
C1276 C1278 1.353 1_554 S
C1276 N1279 1.314 . S
C1276 H1282 0.930 . S
C1277 N1279 1.279 1_556 S
C1277 C1280 1.358 . S
C1277 H1283 0.930 . S
C1278 C1276 1.353 1_556 S
C1278 C1281 1.348 . S
C1278 H1316 0.929 . S
N1279 Li1234 1.990 . S
N1279 C1276 1.314 . S
N1279 C1277 1.279 1_554 S
C1280 C1277 1.358 . S
C1280 C1281 1.356 . S
C1280 H1317 0.930 . S
C1281 C1278 1.348 . S
C1281 C1280 1.356 . S
H1282 C1276 0.930 . S
H1283 C1277 0.930 . S
C1284 N1285 1.314 . S
C1284 C1286 1.353 . S
C1284 H1290 0.930 . S
N1285 Li1235 1.990 . S
N1285 C1284 1.314 . S
N1285 C1288 1.279 . S
C1286 C1284 1.353 . S
C1286 C1289 1.348 . S
C1286 H1318 0.929 . S
C1287 C1288 1.358 . S
C1287 C1289 1.356 . S
C1287 H1319 0.930 . S
C1288 N1285 1.279 . S
C1288 C1287 1.358 . S
C1288 H1291 0.930 . S
C1289 C1286 1.348 . S
C1289 C1287 1.356 . S
H1290 C1284 0.930 . S
H1291 C1288 0.930 . S
O1292 Li1232 1.956 . S
O1292 Li1233 1.970 . S
O1292 Li1234 1.961 . S
O1292 C1236 1.325 . S
O1293 Li1232 1.970 . S
O1293 Li1233 1.956 . S
O1293 Li1235 1.961 . S
O1293 C1242 1.325 . S
O1294 Li1232 1.961 . S
O1294 Li1234 1.956 . S
O1294 Li1235 1.970 . S
O1294 C1264 1.325 . S
O1295 Li1233 1.961 . S
O1295 Li1234 1.970 . S
O1295 Li1235 1.956 . S
O1295 C1270 1.325 . S
H1296 C1238 0.929 . S
H1297 C1239 0.930 . S
H1298 C1240 0.930 . S
H1299 C1241 0.930 . S
H1300 C1243 0.930 . S
H1301 C1245 0.929 . S
H1302 C1246 0.930 . S
H1303 C1247 0.930 . S
H1304 C1250 0.930 . S
H1305 C1253 0.929 . S
H1306 C1258 0.929 . S
H1307 C1259 0.930 . S
H1308 C1266 0.929 . S
H1309 C1267 0.930 . S
H1310 C1268 0.930 . S
H1311 C1269 0.930 . S
H1312 C1271 0.929 . S
H1313 C1272 0.930 . S
H1314 C1273 0.930 . S
H1315 C1274 0.930 . S
H1316 C1278 0.929 . S
H1317 C1280 0.930 . S
H1318 C1286 0.929 . S
H1319 C1287 0.930 . S
Li1320 N1337 1.990 . S
Li1320 O1380 1.956 . S
Li1320 O1381 1.970 . S
Li1320 O1382 1.961 . S
Li1321 N1345 1.990 . S
Li1321 O1380 1.970 . S
Li1321 O1381 1.956 . S
Li1321 O1383 1.961 . S
Li1322 N1367 1.990 . S
Li1322 O1380 1.961 . S
Li1322 O1382 1.956 . S
Li1322 O1383 1.970 . S
Li1323 N1373 1.990 . S
Li1323 O1381 1.961 . S
Li1323 O1382 1.970 . S
Li1323 O1383 1.956 . S
C1324 C1326 1.348 . S
C1324 C1327 1.356 . S
C1324 O1380 1.325 . S
N1325 C1328 1.314 . S
N1325 C1329 1.279 . S
C1326 C1324 1.348 . S
C1326 C1328 1.353 . S
C1326 H1384 0.929 . S
C1327 C1324 1.356 . S
C1327 C1329 1.358 . S
C1327 H1385 0.930 . S
C1328 N1325 1.314 . S
C1328 C1326 1.353 . S
C1328 H1386 0.930 . S
C1329 N1325 1.279 . S
C1329 C1327 1.358 . S
C1329 H1387 0.930 . S
C1330 C1333 1.348 . S
C1330 C1334 1.356 . S
C1330 O1381 1.325 . S
C1331 N1332 1.279 . S
C1331 C1334 1.358 . S
C1331 H1388 0.930 . S
N1332 C1331 1.279 . S
N1332 C1335 1.314 . S
C1333 C1330 1.348 . S
C1333 C1335 1.353 . S
C1333 H1389 0.929 . S
C1334 C1330 1.356 . S
C1334 C1331 1.358 . S
C1334 H1390 0.930 . S
C1335 N1332 1.314 . S
C1335 C1333 1.353 . S
C1335 H1391 0.930 . S
C1336 N1337 1.314 . S
C1336 C1341 1.353 . S
C1336 H1342 0.930 . S
N1337 Li1320 1.990 . S
N1337 C1336 1.314 . S
N1337 C1339 1.279 . S
C1338 C1339 1.358 . S
C1338 C1340 1.356 . S
C1338 H1392 0.930 . S
C1339 N1337 1.279 . S
C1339 C1338 1.358 . S
C1339 H1343 0.930 . S
C1340 C1338 1.356 . S
C1340 C1341 1.348 . S
C1341 C1336 1.353 . S
C1341 C1340 1.348 . S
C1341 H1393 0.929 . S
H1342 C1336 0.930 . S
H1343 C1339 0.930 . S
C1344 N1345 1.314 . S
C1344 C1346 1.353 . S
C1344 H1350 0.930 . S
N1345 Li1321 1.990 . S
N1345 C1344 1.314 . S
N1345 C1348 1.279 . S
C1346 C1344 1.353 . S
C1346 C1349 1.348 . S
C1346 H1394 0.929 . S
C1347 C1348 1.358 . S
C1347 C1349 1.356 . S
C1347 H1395 0.930 . S
C1348 N1345 1.279 . S
C1348 C1347 1.358 . S
C1348 H1351 0.930 . S
C1349 C1346 1.348 . S
C1349 C1347 1.356 . S
H1350 C1344 0.930 . S
H1351 C1348 0.930 . S
C1352 C1354 1.348 . S
C1352 C1355 1.356 . S
C1352 O1382 1.325 . S
N1353 C1356 1.314 . S
N1353 C1357 1.279 . S
C1354 C1352 1.348 . S
C1354 C1356 1.353 . S
C1354 H1396 0.929 . S
C1355 C1352 1.356 . S
C1355 C1357 1.358 . S
C1355 H1397 0.930 . S
C1356 N1353 1.314 . S
C1356 C1354 1.353 . S
C1356 H1398 0.930 . S
C1357 N1353 1.279 . S
C1357 C1355 1.358 . S
C1357 H1399 0.930 . S
C1358 C1359 1.348 . S
C1358 C1360 1.356 . S
C1358 O1383 1.325 . S
C1359 C1358 1.348 . S
C1359 C1361 1.353 . S
C1359 H1400 0.929 . S
C1360 C1358 1.356 . S
C1360 C1362 1.358 . S
C1360 H1401 0.930 . S
C1361 C1359 1.353 . S
C1361 N1363 1.314 . S
C1361 H1402 0.930 . S
C1362 C1360 1.358 . S
C1362 N1363 1.279 . S
C1362 H1403 0.930 . S
N1363 C1361 1.314 . S
N1363 C1362 1.279 . S
C1364 C1366 1.353 . S
C1364 N1367 1.314 . S
C1364 H1370 0.930 . S
C1365 N1367 1.279 . S
C1365 C1368 1.358 . S
C1365 H1371 0.930 . S
C1366 C1364 1.353 . S
C1366 C1369 1.348 . S
C1366 H1404 0.929 . S
N1367 Li1322 1.990 . S
N1367 C1364 1.314 . S
N1367 C1365 1.279 . S
C1368 C1365 1.358 . S
C1368 C1369 1.356 . S
C1368 H1405 0.930 . S
C1369 C1366 1.348 . S
C1369 C1368 1.356 . S
H1370 C1364 0.930 . S
H1371 C1365 0.930 . S
C1372 N1373 1.314 . S
C1372 C1374 1.353 . S
C1372 H1378 0.930 . S
N1373 Li1323 1.990 . S
N1373 C1372 1.314 . S
N1373 C1376 1.279 . S
C1374 C1372 1.353 . S
C1374 C1377 1.348 . S
C1374 H1406 0.929 . S
C1375 C1376 1.358 . S
C1375 C1377 1.356 . S
C1375 H1407 0.930 . S
C1376 N1373 1.279 . S
C1376 C1375 1.358 . S
C1376 H1379 0.930 . S
C1377 C1374 1.348 . S
C1377 C1375 1.356 . S
H1378 C1372 0.930 . S
H1379 C1376 0.930 . S
O1380 Li1320 1.956 . S
O1380 Li1321 1.970 . S
O1380 Li1322 1.961 . S
O1380 C1324 1.325 . S
O1381 Li1320 1.970 . S
O1381 Li1321 1.956 . S
O1381 Li1323 1.961 . S
O1381 C1330 1.325 . S
O1382 Li1320 1.961 . S
O1382 Li1322 1.956 . S
O1382 Li1323 1.970 . S
O1382 C1352 1.325 . S
O1383 Li1321 1.961 . S
O1383 Li1322 1.970 . S
O1383 Li1323 1.956 . S
O1383 C1358 1.325 . S
H1384 C1326 0.929 . S
H1385 C1327 0.930 . S
H1386 C1328 0.930 . S
H1387 C1329 0.930 . S
H1388 C1331 0.930 . S
H1389 C1333 0.929 . S
H1390 C1334 0.930 . S
H1391 C1335 0.930 . S
H1392 C1338 0.930 . S
H1393 C1341 0.929 . S
H1394 C1346 0.929 . S
H1395 C1347 0.930 . S
H1396 C1354 0.929 . S
H1397 C1355 0.930 . S
H1398 C1356 0.930 . S
H1399 C1357 0.930 . S
H1400 C1359 0.929 . S
H1401 C1360 0.930 . S
H1402 C1361 0.930 . S
H1403 C1362 0.930 . S
H1404 C1366 0.929 . S
H1405 C1368 0.930 . S
H1406 C1374 0.929 . S
H1407 C1375 0.930 . S
C1408 C1409 1.363 . S
C1408 C1414 1.379 1_554 S
C1408 N1416 1.356 . S
C1409 C1408 1.363 . S
C1409 C1415 1.363 . S
C1410 C1411 1.363 . S
C1410 C1415 1.379 1_556 S
C1410 N1417 1.356 . S
C1411 C1410 1.363 . S
C1411 C1414 1.363 . S
N1412 C1414 1.356 . S
N1412 H1424 0.984 . S
N1412 H1425 0.985 . S
N1413 C1415 1.356 . S
N1413 H1418 0.984 . S
N1413 H1419 0.985 1_455 S
C1414 C1408 1.379 1_556 S
C1414 C1411 1.363 . S
C1414 N1412 1.356 . S
C1415 C1409 1.363 . S
C1415 C1410 1.379 1_554 S
C1415 N1413 1.356 . S
N1416 C1408 1.356 . S
N1416 H1422 0.984 . S
N1416 H1423 0.984 . S
N1417 C1410 1.356 . S
N1417 H1420 0.984 . S
N1417 H1421 0.985 1_455 S
H1418 N1413 0.984 . S
H1419 N1413 0.985 1_655 S
H1420 N1417 0.984 . S
H1421 N1417 0.985 1_655 S
H1422 N1416 0.984 . S
H1423 N1416 0.984 . S
H1424 N1412 0.984 . S
H1425 N1412 0.985 . S
C1426 C1427 1.363 . S
C1426 C1432 1.379 . S
C1426 N1434 1.356 . S
C1427 C1426 1.363 . S
C1427 C1433 1.354 1_545 S
C1428 C1429 1.354 1_565 S
C1428 C1433 1.379 . S
C1428 N1435 1.363 . S
C1429 C1428 1.354 1_545 S
C1429 C1432 1.363 . S
N1430 C1432 1.356 . S
N1430 H1442 0.984 . S
N1430 H1443 0.985 . S
N1431 C1433 1.364 . S
N1431 H1436 0.984 . S
N1431 H1437 0.985 . S
C1432 C1426 1.379 . S
C1432 C1429 1.363 . S
C1432 N1430 1.356 . S
C1433 C1427 1.354 1_565 S
C1433 C1428 1.379 . S
C1433 N1431 1.364 . S
N1434 C1426 1.356 . S
N1434 H1440 0.984 . S
N1434 H1441 0.984 . S
N1435 C1428 1.363 . S
N1435 H1438 0.984 . S
N1435 H1439 0.985 . S
H1436 N1431 0.984 . S
H1437 N1431 0.985 . S
H1438 N1435 0.984 . S
H1439 N1435 0.985 . S
H1440 N1434 0.984 . S
H1441 N1434 0.984 . S
H1442 N1430 0.984 . S
H1443 N1430 0.985 . S
C1444 C1445 1.363 . S
C1444 C1450 1.379 1_554 S
C1444 N1452 1.356 . S
C1445 C1444 1.363 . S
C1445 C1451 1.363 . S
C1446 C1447 1.363 . S
C1446 C1451 1.379 1_556 S
C1446 N1453 1.356 . S
C1447 C1446 1.363 . S
C1447 C1450 1.363 . S
N1448 C1450 1.356 . S
N1448 H1460 0.984 . S
N1448 H1461 0.985 . S
N1449 C1451 1.356 . S
N1449 H1454 0.984 . S
N1449 H1455 0.985 . S
C1450 C1444 1.379 1_556 S
C1450 C1447 1.363 . S
C1450 N1448 1.356 . S
C1451 C1445 1.363 . S
C1451 C1446 1.379 1_554 S
C1451 N1449 1.356 . S
N1452 C1444 1.356 . S
N1452 H1458 0.984 . S
N1452 H1459 0.984 . S
N1453 C1446 1.356 . S
N1453 H1456 0.984 . S
N1453 H1457 0.985 . S
H1454 N1449 0.984 . S
H1455 N1449 0.985 . S
H1456 N1453 0.984 . S
H1457 N1453 0.985 . S
H1458 N1452 0.984 . S
H1459 N1452 0.984 . S
H1460 N1448 0.984 . S
H1461 N1448 0.985 . S
C1462 C1463 1.363 . S
C1462 C1468 1.379 . S
C1462 N1470 1.356 . S
C1463 C1462 1.363 . S
C1463 C1469 1.363 . S
C1464 C1465 1.363 . S
C1464 C1469 1.379 . S
C1464 N1471 1.356 . S
C1465 C1464 1.363 . S
C1465 C1468 1.363 . S
N1466 C1468 1.356 . S
N1466 H1478 0.984 . S
N1466 H1479 0.985 . S
N1467 C1469 1.356 . S
N1467 H1472 0.984 . S
N1467 H1473 0.985 . S
C1468 C1462 1.379 . S
C1468 C1465 1.363 . S
C1468 N1466 1.356 . S
C1469 C1463 1.363 . S
C1469 C1464 1.379 . S
C1469 N1467 1.356 . S
N1470 C1462 1.356 . S
N1470 H1476 0.984 . S
N1470 H1477 0.984 . S
N1471 C1464 1.356 . S
N1471 H1474 0.984 . S
N1471 H1475 0.985 . S
H1472 N1467 0.984 . S
H1473 N1467 0.985 . S
H1474 N1471 0.984 . S
H1475 N1471 0.985 . S
H1476 N1470 0.984 . S
H1477 N1470 0.984 . S
H1478 N1466 0.984 . S
H1479 N1466 0.985 . S
C1480 C1481 1.363 . S
C1480 C1486 1.379 1_556 S
C1480 N1488 1.356 . S
C1481 C1480 1.363 . S
C1481 C1487 1.402 . S
C1482 C1483 1.402 . S
C1482 C1487 1.379 1_554 S
C1482 N1489 1.327 1_655 S
C1483 C1482 1.402 . S
C1483 C1486 1.363 . S
N1484 C1486 1.356 . S
N1484 H1496 0.984 . S
N1484 H1497 0.985 . S
N1485 C1487 1.327 1_455 S
N1485 H1490 0.984 . S
N1485 H1491 0.985 . S
C1486 C1480 1.379 1_554 S
C1486 C1483 1.363 . S
C1486 N1484 1.356 . S
C1487 C1481 1.402 . S
C1487 C1482 1.379 1_556 S
C1487 N1485 1.327 1_655 S
N1488 C1480 1.356 . S
N1488 H1494 0.984 . S
N1488 H1495 0.984 . S
N1489 C1482 1.327 1_455 S
N1489 H1492 0.984 . S
N1489 H1493 0.985 . S
H1490 N1485 0.984 . S
H1491 N1485 0.985 . S
H1492 N1489 0.984 . S
H1493 N1489 0.985 . S
H1494 N1488 0.984 . S
H1495 N1488 0.984 . S
H1496 N1484 0.984 . S
H1497 N1484 0.985 . S
C1498 C1499 1.335 1_545 S
C1498 C1504 1.379 . S
C1498 N1506 1.379 . S
C1499 C1498 1.335 1_565 S
C1499 C1505 1.363 . S
C1500 C1501 1.363 . S
C1500 C1505 1.379 . S
C1500 N1507 1.356 . S
C1501 C1500 1.363 . S
C1501 C1504 1.335 1_565 S
N1502 C1504 1.379 . S
N1502 H1514 0.984 . S
N1502 H1515 0.985 . S
N1503 C1505 1.356 . S
N1503 H1508 0.984 . S
N1503 H1509 0.985 . S
C1504 C1498 1.379 . S
C1504 C1501 1.335 1_545 S
C1504 N1502 1.379 . S
C1505 C1499 1.363 . S
C1505 C1500 1.379 . S
C1505 N1503 1.356 . S
N1506 C1498 1.379 . S
N1506 H1512 0.984 . S
N1506 H1513 0.984 . S
N1507 C1500 1.356 . S
N1507 H1510 0.984 . S
N1507 H1511 0.985 . S
H1508 N1503 0.984 . S
H1509 N1503 0.985 . S
H1510 N1507 0.984 . S
H1511 N1507 0.985 . S
H1512 N1506 0.984 . S
H1513 N1506 0.984 . S
H1514 N1502 0.984 . S
H1515 N1502 0.985 . S
C1516 C1517 1.363 . S
C1516 C1522 1.379 1_556 S
C1516 N1524 1.356 . S
C1517 C1516 1.363 . S
C1517 C1523 1.363 . S
C1518 C1519 1.363 . S
C1518 C1523 1.379 1_554 S
C1518 N1525 1.356 . S
C1519 C1518 1.363 . S
C1519 C1522 1.363 . S
N1520 C1522 1.356 . S
N1520 H1532 0.984 . S
N1520 H1533 0.985 . S
N1521 C1523 1.356 . S
N1521 H1526 0.984 . S
N1521 H1527 0.985 . S
C1522 C1516 1.379 1_554 S
C1522 C1519 1.363 . S
C1522 N1520 1.356 . S
C1523 C1517 1.363 . S
C1523 C1518 1.379 1_556 S
C1523 N1521 1.356 . S
N1524 C1516 1.356 . S
N1524 H1530 0.984 . S
N1524 H1531 0.984 . S
N1525 C1518 1.356 . S
N1525 H1528 0.984 . S
N1525 H1529 0.985 . S
H1526 N1521 0.984 . S
H1527 N1521 0.985 . S
H1528 N1525 0.984 . S
H1529 N1525 0.985 . S
H1530 N1524 0.984 . S
H1531 N1524 0.984 . S
H1532 N1520 0.984 . S
H1533 N1520 0.985 . S
C1534 C1535 1.363 . S
C1534 C1540 1.379 . S
C1534 N1542 1.356 . S
C1535 C1534 1.363 . S
C1535 C1541 1.363 . S
C1536 C1537 1.363 . S
C1536 C1541 1.379 . S
C1536 N1543 1.356 . S
C1537 C1536 1.363 . S
C1537 C1540 1.363 . S
N1538 C1540 1.356 . S
N1538 H1550 0.984 . S
N1538 H1551 0.985 . S
N1539 C1541 1.356 . S
N1539 H1544 0.984 . S
N1539 H1545 0.985 . S
C1540 C1534 1.379 . S
C1540 C1537 1.363 . S
C1540 N1538 1.356 . S
C1541 C1535 1.363 . S
C1541 C1536 1.379 . S
C1541 N1539 1.356 . S
N1542 C1534 1.356 . S
N1542 H1548 0.984 . S
N1542 H1549 0.984 . S
N1543 C1536 1.356 . S
N1543 H1546 0.984 . S
N1543 H1547 0.985 . S
H1544 N1539 0.984 . S
H1545 N1539 0.985 . S
H1546 N1543 0.984 . S
H1547 N1543 0.985 . S
H1548 N1542 0.984 . S
H1549 N1542 0.984 . S
H1550 N1538 0.984 . S
H1551 N1538 0.985 . S
C1552 C1553 1.363 . S
C1552 C1558 1.379 . S
C1552 N1560 1.356 . S
C1553 C1552 1.363 . S
C1553 C1559 1.363 . S
C1554 C1555 1.363 . S
C1554 C1559 1.379 . S
C1554 N1561 1.356 . S
C1555 C1554 1.363 . S
C1555 C1558 1.363 . S
N1556 C1558 1.356 . S
N1556 H1568 0.984 . S
N1556 H1569 0.985 . S
N1557 C1559 1.356 . S
N1557 H1562 0.984 . S
N1557 H1563 0.985 . S
C1558 C1552 1.379 . S
C1558 C1555 1.363 . S
C1558 N1556 1.356 . S
C1559 C1553 1.363 . S
C1559 C1554 1.379 . S
C1559 N1557 1.356 . S
N1560 C1552 1.356 . S
N1560 H1566 0.984 1_556 S
N1560 H1567 0.984 . S
N1561 C1554 1.356 . S
N1561 H1564 0.984 . S
N1561 H1565 0.985 . S
H1562 N1557 0.984 . S
H1563 N1557 0.985 . S
H1564 N1561 0.984 . S
H1565 N1561 0.985 . S
H1566 N1560 0.984 1_554 S
H1567 N1560 0.984 . S
H1568 N1556 0.984 . S
H1569 N1556 0.985 . S
C1570 C1571 1.363 . S
C1570 C1576 1.379 . S
C1570 N1578 1.356 . S
C1571 C1570 1.363 . S
C1571 C1577 1.363 . S
C1572 C1573 1.363 . S
C1572 C1577 1.379 . S
C1572 N1579 1.356 . S
C1573 C1572 1.363 . S
C1573 C1576 1.363 . S
N1574 C1576 1.356 . S
N1574 H1586 0.984 . S
N1574 H1587 0.985 . S
N1575 C1577 1.356 . S
N1575 H1580 0.984 . S
N1575 H1581 0.985 . S
C1576 C1570 1.379 . S
C1576 C1573 1.363 . S
C1576 N1574 1.356 . S
C1577 C1571 1.363 . S
C1577 C1572 1.379 . S
C1577 N1575 1.356 . S
N1578 C1570 1.356 . S
N1578 H1584 0.984 . S
N1578 H1585 0.984 . S
N1579 C1572 1.356 . S
N1579 H1582 0.984 . S
N1579 H1583 0.985 . S
H1580 N1575 0.984 . S
H1581 N1575 0.985 . S
H1582 N1579 0.984 . S
H1583 N1579 0.985 . S
H1584 N1578 0.984 . S
H1585 N1578 0.984 . S
H1586 N1574 0.984 . S
H1587 N1574 0.985 . S
C1588 C1589 1.363 . S
C1588 C1594 1.379 . S
C1588 N1596 1.356 . S
C1589 C1588 1.363 . S
C1589 C1595 1.363 . S
C1590 C1591 1.363 . S
C1590 C1595 1.379 . S
C1590 N1597 1.356 . S
C1591 C1590 1.363 . S
C1591 C1594 1.363 . S
N1592 C1594 1.356 . S
N1592 H1604 0.984 . S
N1592 H1605 0.985 . S
N1593 C1595 1.356 . S
N1593 H1598 0.984 . S
N1593 H1599 0.985 . S
C1594 C1588 1.379 . S
C1594 C1591 1.363 . S
C1594 N1592 1.356 . S
C1595 C1589 1.363 . S
C1595 C1590 1.379 . S
C1595 N1593 1.356 . S
N1596 C1588 1.356 . S
N1596 H1602 0.984 1_556 S
N1596 H1603 0.984 . S
N1597 C1590 1.356 . S
N1597 H1600 0.984 . S
N1597 H1601 0.985 . S
H1598 N1593 0.984 . S
H1599 N1593 0.985 . S
H1600 N1597 0.984 . S
H1601 N1597 0.985 . S
H1602 N1596 0.984 1_554 S
H1603 N1596 0.984 . S
H1604 N1592 0.984 . S
H1605 N1592 0.985 . S
C1606 C1607 1.363 . S
C1606 C1612 1.379 . S
C1606 N1614 1.356 . S
C1607 C1606 1.363 . S
C1607 C1613 1.363 . S
C1608 C1609 1.363 . S
C1608 C1613 1.379 . S
C1608 N1615 1.356 . S
C1609 C1608 1.363 . S
C1609 C1612 1.363 . S
N1610 C1612 1.356 . S
N1610 H1622 0.984 . S
N1610 H1623 0.985 . S
N1611 C1613 1.356 . S
N1611 H1616 0.984 . S
N1611 H1617 0.985 . S
C1612 C1606 1.379 . S
C1612 C1609 1.363 . S
C1612 N1610 1.356 . S
C1613 C1607 1.363 . S
C1613 C1608 1.379 . S
C1613 N1611 1.356 . S
N1614 C1606 1.356 . S
N1614 H1620 0.984 . S
N1614 H1621 0.984 . S
N1615 C1608 1.356 . S
N1615 H1618 0.984 . S
N1615 H1619 0.985 . S
H1616 N1611 0.984 . S
H1617 N1611 0.985 . S
H1618 N1615 0.984 . S
H1619 N1615 0.985 . S
H1620 N1614 0.984 . S
H1621 N1614 0.984 . S
H1622 N1610 0.984 . S
H1623 N1610 0.985 . S
C1624 C1625 1.363 . S
C1624 C1630 1.379 . S
C1624 N1632 1.356 . S
C1625 C1624 1.363 . S
C1625 C1631 1.363 . S
C1626 C1627 1.363 . S
C1626 C1631 1.379 . S
C1626 N1633 1.356 . S
C1627 C1626 1.363 . S
C1627 C1630 1.363 . S
N1628 C1630 1.356 . S
N1628 H1640 0.984 . S
N1628 H1641 0.985 . S
N1629 C1631 1.356 . S
N1629 H1634 0.984 . S
N1629 H1635 0.985 . S
C1630 C1624 1.379 . S
C1630 C1627 1.363 . S
C1630 N1628 1.356 . S
C1631 C1625 1.363 . S
C1631 C1626 1.379 . S
C1631 N1629 1.356 . S
N1632 C1624 1.356 . S
N1632 H1638 0.984 . S
N1632 H1639 0.984 . S
N1633 C1626 1.356 . S
N1633 H1636 0.984 . S
N1633 H1637 0.985 . S
H1634 N1629 0.984 . S
H1635 N1629 0.985 . S
H1636 N1633 0.984 . S
H1637 N1633 0.985 . S
H1638 N1632 0.984 . S
H1639 N1632 0.984 . S
H1640 N1628 0.984 . S
H1641 N1628 0.985 . S
C1642 C1643 1.363 . S
C1642 C1648 1.379 . S
C1642 N1650 1.356 . S
C1643 C1642 1.363 . S
C1643 C1649 1.363 . S
C1644 C1645 1.363 . S
C1644 C1649 1.379 . S
C1644 N1651 1.356 . S
C1645 C1644 1.363 . S
C1645 C1648 1.363 . S
N1646 C1648 1.356 . S
N1646 H1658 0.984 . S
N1646 H1659 0.985 . S
N1647 C1649 1.356 . S
N1647 H1652 0.984 . S
N1647 H1653 0.985 . S
C1648 C1642 1.379 . S
C1648 C1645 1.363 . S
C1648 N1646 1.356 . S
C1649 C1643 1.363 . S
C1649 C1644 1.379 . S
C1649 N1647 1.356 . S
N1650 C1642 1.356 . S
N1650 H1656 0.984 . S
N1650 H1657 0.984 . S
N1651 C1644 1.356 . S
N1651 H1654 0.984 . S
N1651 H1655 0.985 . S
H1652 N1647 0.984 . S
H1653 N1647 0.985 . S
H1654 N1651 0.984 . S
H1655 N1651 0.985 . S
H1656 N1650 0.984 . S
H1657 N1650 0.984 . S
H1658 N1646 0.984 . S
H1659 N1646 0.985 . S
C1660 C1661 1.363 . S
C1660 C1666 1.379 . S
C1660 N1668 1.356 . S
C1661 C1660 1.363 . S
C1661 C1667 1.363 . S
C1662 C1663 1.363 . S
C1662 C1667 1.379 . S
C1662 N1669 1.356 . S
C1663 C1662 1.363 . S
C1663 C1666 1.363 . S
N1664 C1666 1.356 . S
N1664 H1676 0.984 . S
N1664 H1677 0.985 . S
N1665 C1667 1.356 . S
N1665 H1670 0.984 . S
N1665 H1671 0.985 . S
C1666 C1660 1.379 . S
C1666 C1663 1.363 . S
C1666 N1664 1.356 . S
C1667 C1661 1.363 . S
C1667 C1662 1.379 . S
C1667 N1665 1.356 . S
N1668 C1660 1.356 . S
N1668 H1674 0.984 . S
N1668 H1675 0.984 . S
N1669 C1662 1.356 . S
N1669 H1672 0.984 . S
N1669 H1673 0.985 . S
H1670 N1665 0.984 . S
H1671 N1665 0.985 . S
H1672 N1669 0.984 . S
H1673 N1669 0.985 . S
H1674 N1668 0.984 . S
H1675 N1668 0.984 . S
H1676 N1664 0.984 . S
H1677 N1664 0.985 . S
C1678 C1679 1.363 . S
C1678 C1684 1.379 . S
C1678 N1686 1.356 . S
C1679 C1678 1.363 . S
C1679 C1685 1.363 . S
C1680 C1681 1.363 . S
C1680 C1685 1.379 . S
C1680 N1687 1.356 . S
C1681 C1680 1.363 . S
C1681 C1684 1.363 . S
N1682 C1684 1.356 . S
N1682 H1694 0.984 . S
N1682 H1695 0.985 . S
N1683 C1685 1.356 . S
N1683 H1688 0.984 . S
N1683 H1689 0.985 . S
C1684 C1678 1.379 . S
C1684 C1681 1.363 . S
C1684 N1682 1.356 . S
C1685 C1679 1.363 . S
C1685 C1680 1.379 . S
C1685 N1683 1.356 . S
N1686 C1678 1.356 . S
N1686 H1692 0.984 . S
N1686 H1693 0.984 . S
N1687 C1680 1.356 . S
N1687 H1690 0.984 . S
N1687 H1691 0.985 . S
H1688 N1683 0.984 . S
H1689 N1683 0.985 . S
H1690 N1687 0.984 . S
H1691 N1687 0.985 . S
H1692 N1686 0.984 . S
H1693 N1686 0.984 . S
H1694 N1682 0.984 . S
H1695 N1682 0.985 . S
C1696 C1697 1.363 . S
C1696 C1702 1.379 . S
C1696 N1704 1.356 . S
C1697 C1696 1.363 . S
C1697 C1703 1.363 . S
C1698 C1699 1.363 . S
C1698 C1703 1.379 . S
C1698 N1705 1.356 . S
C1699 C1698 1.363 . S
C1699 C1702 1.363 . S
N1700 C1702 1.356 . S
N1700 H1712 0.984 . S
N1700 H1713 0.985 . S
N1701 C1703 1.356 . S
N1701 H1706 0.984 . S
N1701 H1707 0.985 . S
C1702 C1696 1.379 . S
C1702 C1699 1.363 . S
C1702 N1700 1.356 . S
C1703 C1697 1.363 . S
C1703 C1698 1.379 . S
C1703 N1701 1.356 . S
N1704 C1696 1.356 . S
N1704 H1710 0.984 . S
N1704 H1711 0.984 . S
N1705 C1698 1.356 . S
N1705 H1708 0.984 . S
N1705 H1709 0.985 . S
H1706 N1701 0.984 . S
H1707 N1701 0.985 . S
H1708 N1705 0.984 . S
H1709 N1705 0.985 . S
H1710 N1704 0.984 . S
H1711 N1704 0.984 . S
H1712 N1700 0.984 . S
H1713 N1700 0.985 . S
C1714 C1715 1.363 . S
C1714 C1720 1.379 . S
C1714 N1722 1.356 . S
C1715 C1714 1.363 . S
C1715 C1721 1.363 . S
C1716 C1717 1.363 . S
C1716 C1721 1.379 . S
C1716 N1723 1.356 . S
C1717 C1716 1.363 . S
C1717 C1720 1.363 . S
N1718 C1720 1.356 . S
N1718 H1730 0.984 . S
N1718 H1731 0.985 . S
N1719 C1721 1.356 . S
N1719 H1724 0.984 . S
N1719 H1725 0.985 . S
C1720 C1714 1.379 . S
C1720 C1717 1.363 . S
C1720 N1718 1.356 . S
C1721 C1715 1.363 . S
C1721 C1716 1.379 . S
C1721 N1719 1.356 . S
N1722 C1714 1.356 . S
N1722 H1728 0.984 . S
N1722 H1729 0.984 . S
N1723 C1716 1.356 . S
N1723 H1726 0.984 . S
N1723 H1727 0.985 . S
H1724 N1719 0.984 . S
H1725 N1719 0.985 . S
H1726 N1723 0.984 . S
H1727 N1723 0.985 . S
H1728 N1722 0.984 . S
H1729 N1722 0.984 . S
H1730 N1718 0.984 . S
H1731 N1718 0.985 . S
C1732 C1733 1.363 . S
C1732 C1738 1.379 . S
C1732 N1740 1.356 . S
C1733 C1732 1.363 . S
C1733 C1739 1.363 . S
C1734 C1735 1.363 . S
C1734 C1739 1.379 . S
C1734 N1741 1.356 . S
C1735 C1734 1.363 . S
C1735 C1738 1.363 . S
N1736 C1738 1.356 . S
N1736 H1748 0.984 . S
N1736 H1749 0.985 . S
N1737 C1739 1.356 . S
N1737 H1742 0.984 . S
N1737 H1743 0.985 . S
C1738 C1732 1.379 . S
C1738 C1735 1.363 . S
C1738 N1736 1.356 . S
C1739 C1733 1.363 . S
C1739 C1734 1.379 . S
C1739 N1737 1.356 . S
N1740 C1732 1.356 . S
N1740 H1746 0.984 . S
N1740 H1747 0.984 . S
N1741 C1734 1.356 . S
N1741 H1744 0.984 . S
N1741 H1745 0.985 . S
H1742 N1737 0.984 . S
H1743 N1737 0.985 . S
H1744 N1741 0.984 . S
H1745 N1741 0.985 . S
H1746 N1740 0.984 . S
H1747 N1740 0.984 . S
H1748 N1736 0.984 . S
H1749 N1736 0.985 . S
C1750 C1751 1.363 . S
C1750 C1756 1.379 . S
C1750 N1758 1.356 . S
C1751 C1750 1.363 . S
C1751 C1757 1.363 . S
C1752 C1753 1.363 . S
C1752 C1757 1.379 . S
C1752 N1759 1.356 . S
C1753 C1752 1.363 . S
C1753 C1756 1.363 . S
N1754 C1756 1.356 . S
N1754 H1766 0.984 . S
N1754 H1767 0.985 . S
N1755 C1757 1.356 . S
N1755 H1760 0.984 . S
N1755 H1761 0.985 . S
C1756 C1750 1.379 . S
C1756 C1753 1.363 . S
C1756 N1754 1.356 . S
C1757 C1751 1.363 . S
C1757 C1752 1.379 . S
C1757 N1755 1.356 . S
N1758 C1750 1.356 . S
N1758 H1764 0.984 . S
N1758 H1765 0.984 . S
N1759 C1752 1.356 . S
N1759 H1762 0.984 . S
N1759 H1763 0.985 . S
H1760 N1755 0.984 . S
H1761 N1755 0.985 . S
H1762 N1759 0.984 . S
H1763 N1759 0.985 . S
H1764 N1758 0.984 . S
H1765 N1758 0.984 . S
H1766 N1754 0.984 . S
H1767 N1754 0.985 . S
C1768 C1769 1.363 . S
C1768 C1774 1.379 . S
C1768 N1776 1.356 . S
C1769 C1768 1.363 . S
C1769 C1775 1.363 . S
C1770 C1771 1.363 . S
C1770 C1775 1.379 . S
C1770 N1777 1.356 . S
C1771 C1770 1.363 . S
C1771 C1774 1.363 . S
N1772 C1774 1.356 . S
N1772 H1784 0.984 . S
N1772 H1785 0.985 . S
N1773 C1775 1.356 . S
N1773 H1778 0.984 . S
N1773 H1779 0.985 . S
C1774 C1768 1.379 . S
C1774 C1771 1.363 . S
C1774 N1772 1.356 . S
C1775 C1769 1.363 . S
C1775 C1770 1.379 . S
C1775 N1773 1.356 . S
N1776 C1768 1.356 . S
N1776 H1782 0.984 . S
N1776 H1783 0.984 . S
N1777 C1770 1.356 . S
N1777 H1780 0.984 . S
N1777 H1781 0.985 1_556 S
H1778 N1773 0.984 . S
H1779 N1773 0.985 . S
H1780 N1777 0.984 . S
H1781 N1777 0.985 1_554 S
H1782 N1776 0.984 . S
H1783 N1776 0.984 . S
H1784 N1772 0.984 . S
H1785 N1772 0.985 . S
C1786 C1787 1.363 . S
C1786 C1792 1.379 . S
C1786 N1794 1.356 . S
C1787 C1786 1.363 . S
C1787 C1793 1.363 . S
C1788 C1789 1.363 . S
C1788 C1793 1.379 . S
C1788 N1795 1.356 . S
C1789 C1788 1.363 . S
C1789 C1792 1.363 . S
N1790 C1792 1.356 . S
N1790 H1802 0.984 . S
N1790 H1803 0.985 . S
N1791 C1793 1.356 . S
N1791 H1796 0.984 . S
N1791 H1797 0.985 . S
C1792 C1786 1.379 . S
C1792 C1789 1.363 . S
C1792 N1790 1.356 . S
C1793 C1787 1.363 . S
C1793 C1788 1.379 . S
C1793 N1791 1.356 . S
N1794 C1786 1.356 . S
N1794 H1800 0.984 . S
N1794 H1801 0.984 . S
N1795 C1788 1.356 . S
N1795 H1798 0.984 . S
N1795 H1799 0.985 . S
H1796 N1791 0.984 . S
H1797 N1791 0.985 . S
H1798 N1795 0.984 . S
H1799 N1795 0.985 . S
H1800 N1794 0.984 . S
H1801 N1794 0.984 . S
H1802 N1790 0.984 . S
H1803 N1790 0.985 . S
C1804 C1805 1.363 . S
C1804 C1810 1.379 . S
C1804 N1812 1.356 . S
C1805 C1804 1.363 . S
C1805 C1811 1.363 . S
C1806 C1807 1.363 . S
C1806 C1811 1.379 . S
C1806 N1813 1.356 . S
C1807 C1806 1.363 . S
C1807 C1810 1.363 . S
N1808 C1810 1.356 . S
N1808 H1820 0.984 . S
N1808 H1821 0.985 . S
N1809 C1811 1.356 . S
N1809 H1814 0.984 . S
N1809 H1815 0.985 . S
C1810 C1804 1.379 . S
C1810 C1807 1.363 . S
C1810 N1808 1.356 . S
C1811 C1805 1.363 . S
C1811 C1806 1.379 . S
C1811 N1809 1.356 . S
N1812 C1804 1.356 . S
N1812 H1818 0.984 . S
N1812 H1819 0.984 . S
N1813 C1806 1.356 . S
N1813 H1816 0.984 . S
N1813 H1817 0.985 . S
H1814 N1809 0.984 . S
H1815 N1809 0.985 . S
H1816 N1813 0.984 . S
H1817 N1813 0.985 . S
H1818 N1812 0.984 . S
H1819 N1812 0.984 . S
H1820 N1808 0.984 . S
H1821 N1808 0.985 . S
C1822 C1823 1.363 . S
C1822 C1828 1.379 . S
C1822 N1830 1.356 . S
C1823 C1822 1.363 . S
C1823 C1829 1.363 . S
C1824 C1825 1.363 . S
C1824 C1829 1.379 . S
C1824 N1831 1.356 . S
C1825 C1824 1.363 . S
C1825 C1828 1.363 . S
N1826 C1828 1.356 . S
N1826 H1838 0.984 . S
N1826 H1839 0.985 . S
N1827 C1829 1.356 . S
N1827 H1832 0.984 . S
N1827 H1833 0.985 . S
C1828 C1822 1.379 . S
C1828 C1825 1.363 . S
C1828 N1826 1.356 . S
C1829 C1823 1.363 . S
C1829 C1824 1.379 . S
C1829 N1827 1.356 . S
N1830 C1822 1.356 . S
N1830 H1836 0.984 . S
N1830 H1837 0.984 . S
N1831 C1824 1.356 . S
N1831 H1834 0.984 . S
N1831 H1835 0.985 . S
H1832 N1827 0.984 . S
H1833 N1827 0.985 . S
H1834 N1831 0.984 . S
H1835 N1831 0.985 . S
H1836 N1830 0.984 . S
H1837 N1830 0.984 . S
H1838 N1826 0.984 . S
H1839 N1826 0.985 . S
C1840 C1841 1.363 . S
C1840 C1846 1.379 . S
C1840 N1848 1.356 . S
C1841 C1840 1.363 . S
C1841 C1847 1.363 . S
C1842 C1843 1.363 . S
C1842 C1847 1.379 . S
C1842 N1849 1.356 . S
C1843 C1842 1.363 . S
C1843 C1846 1.363 . S
N1844 C1846 1.356 . S
N1844 H1856 0.984 . S
N1844 H1857 0.985 . S
N1845 C1847 1.356 . S
N1845 H1850 0.984 . S
N1845 H1851 0.985 . S
C1846 C1840 1.379 . S
C1846 C1843 1.363 . S
C1846 N1844 1.356 . S
C1847 C1841 1.363 . S
C1847 C1842 1.379 . S
C1847 N1845 1.356 . S
N1848 C1840 1.356 . S
N1848 H1854 0.984 . S
N1848 H1855 0.984 . S
N1849 C1842 1.356 . S
N1849 H1852 0.984 . S
N1849 H1853 0.985 . S
H1850 N1845 0.984 . S
H1851 N1845 0.985 . S
H1852 N1849 0.984 . S
H1853 N1849 0.985 . S
H1854 N1848 0.984 . S
H1855 N1848 0.984 . S
H1856 N1844 0.984 . S
H1857 N1844 0.985 . S
C1858 C1859 1.363 . S
C1858 C1864 1.379 . S
C1858 N1866 1.356 . S
C1859 C1858 1.363 . S
C1859 C1865 1.363 . S
C1860 C1861 1.363 . S
C1860 C1865 1.379 . S
C1860 N1867 1.356 . S
C1861 C1860 1.363 . S
C1861 C1864 1.363 . S
N1862 C1864 1.356 . S
N1862 H1874 0.984 . S
N1862 H1875 0.985 . S
N1863 C1865 1.356 . S
N1863 H1868 0.984 . S
N1863 H1869 0.985 . S
C1864 C1858 1.379 . S
C1864 C1861 1.363 . S
C1864 N1862 1.356 . S
C1865 C1859 1.363 . S
C1865 C1860 1.379 . S
C1865 N1863 1.356 . S
N1866 C1858 1.356 . S
N1866 H1872 0.984 . S
N1866 H1873 0.984 . S
N1867 C1860 1.356 . S
N1867 H1870 0.984 . S
N1867 H1871 0.985 . S
H1868 N1863 0.984 . S
H1869 N1863 0.985 . S
H1870 N1867 0.984 . S
H1871 N1867 0.985 . S
H1872 N1866 0.984 . S
H1873 N1866 0.984 . S
H1874 N1862 0.984 . S
H1875 N1862 0.985 . S
C1876 C1877 1.363 . S
C1876 C1882 1.379 . S
C1876 N1884 1.356 . S
C1877 C1876 1.363 . S
C1877 C1883 1.363 . S
C1878 C1879 1.363 . S
C1878 C1883 1.379 . S
C1878 N1885 1.356 . S
C1879 C1878 1.363 . S
C1879 C1882 1.363 . S
N1880 C1882 1.356 . S
N1880 H1892 0.984 . S
N1880 H1893 0.985 . S
N1881 C1883 1.356 . S
N1881 H1886 0.984 . S
N1881 H1887 0.985 . S
C1882 C1876 1.379 . S
C1882 C1879 1.363 . S
C1882 N1880 1.356 . S
C1883 C1877 1.363 . S
C1883 C1878 1.379 . S
C1883 N1881 1.356 . S
N1884 C1876 1.356 . S
N1884 H1890 0.984 . S
N1884 H1891 0.984 . S
N1885 C1878 1.356 . S
N1885 H1888 0.984 . S
N1885 H1889 0.985 . S
H1886 N1881 0.984 . S
H1887 N1881 0.985 . S
H1888 N1885 0.984 . S
H1889 N1885 0.985 . S
H1890 N1884 0.984 . S
H1891 N1884 0.984 . S
H1892 N1880 0.984 . S
H1893 N1880 0.985 . S
C1894 C1895 1.363 . S
C1894 C1900 1.379 . S
C1894 N1902 1.356 . S
C1895 C1894 1.363 . S
C1895 C1901 1.363 . S
C1896 C1897 1.363 . S
C1896 C1901 1.379 . S
C1896 N1903 1.356 . S
C1897 C1896 1.363 . S
C1897 C1900 1.363 . S
N1898 C1900 1.356 . S
N1898 H1910 0.984 . S
N1898 H1911 0.985 . S
N1899 C1901 1.356 . S
N1899 H1904 0.984 . S
N1899 H1905 0.985 . S
C1900 C1894 1.379 . S
C1900 C1897 1.363 . S
C1900 N1898 1.356 . S
C1901 C1895 1.363 . S
C1901 C1896 1.379 . S
C1901 N1899 1.356 . S
N1902 C1894 1.356 . S
N1902 H1908 0.984 . S
N1902 H1909 0.984 . S
N1903 C1896 1.356 . S
N1903 H1906 0.984 . S
N1903 H1907 0.985 . S
H1904 N1899 0.984 . S
H1905 N1899 0.985 . S
H1906 N1903 0.984 . S
H1907 N1903 0.985 . S
H1908 N1902 0.984 . S
H1909 N1902 0.984 . S
H1910 N1898 0.984 . S
H1911 N1898 0.985 . S
C1912 C1913 1.363 . S
C1912 C1918 1.379 . S
C1912 N1920 1.356 . S
C1913 C1912 1.363 . S
C1913 C1919 1.363 . S
C1914 C1915 1.363 . S
C1914 C1919 1.379 . S
C1914 N1921 1.356 . S
C1915 C1914 1.363 . S
C1915 C1918 1.363 . S
N1916 C1918 1.356 . S
N1916 H1928 0.984 . S
N1916 H1929 0.985 . S
N1917 C1919 1.356 . S
N1917 H1922 0.984 . S
N1917 H1923 0.985 . S
C1918 C1912 1.379 . S
C1918 C1915 1.363 . S
C1918 N1916 1.356 . S
C1919 C1913 1.363 . S
C1919 C1914 1.379 . S
C1919 N1917 1.356 . S
N1920 C1912 1.356 . S
N1920 H1926 0.984 . S
N1920 H1927 0.984 . S
N1921 C1914 1.356 . S
N1921 H1924 0.984 . S
N1921 H1925 0.985 . S
H1922 N1917 0.984 . S
H1923 N1917 0.985 . S
H1924 N1921 0.984 . S
H1925 N1921 0.985 . S
H1926 N1920 0.984 . S
H1927 N1920 0.984 . S
H1928 N1916 0.984 . S
H1929 N1916 0.985 . S
C1930 C1931 1.363 . S
C1930 C1936 1.379 . S
C1930 N1938 1.356 . S
C1931 C1930 1.363 . S
C1931 C1937 1.363 . S
C1932 C1933 1.363 . S
C1932 C1937 1.379 . S
C1932 N1939 1.356 . S
C1933 C1932 1.363 . S
C1933 C1936 1.363 . S
N1934 C1936 1.356 . S
N1934 H1946 0.984 . S
N1934 H1947 0.985 . S
N1935 C1937 1.356 . S
N1935 H1940 0.984 . S
N1935 H1941 0.985 . S
C1936 C1930 1.379 . S
C1936 C1933 1.363 . S
C1936 N1934 1.356 . S
C1937 C1931 1.363 . S
C1937 C1932 1.379 . S
C1937 N1935 1.356 . S
N1938 C1930 1.356 . S
N1938 H1944 0.984 . S
N1938 H1945 0.984 . S
N1939 C1932 1.356 . S
N1939 H1942 0.984 . S
N1939 H1943 0.985 . S
H1940 N1935 0.984 . S
H1941 N1935 0.985 . S
H1942 N1939 0.984 . S
H1943 N1939 0.985 . S
H1944 N1938 0.984 . S
H1945 N1938 0.984 . S
H1946 N1934 0.984 . S
H1947 N1934 0.985 . S
C1948 C1949 1.363 . S
C1948 C1954 1.379 . S
C1948 N1956 1.356 . S
C1949 C1948 1.363 . S
C1949 C1955 1.363 . S
C1950 C1951 1.363 . S
C1950 C1955 1.379 . S
C1950 N1957 1.356 . S
C1951 C1950 1.363 . S
C1951 C1954 1.363 . S
N1952 C1954 1.356 . S
N1952 H1964 0.984 . S
N1952 H1965 0.985 . S
N1953 C1955 1.356 . S
N1953 H1958 0.984 . S
N1953 H1959 0.985 . S
C1954 C1948 1.379 . S
C1954 C1951 1.363 . S
C1954 N1952 1.356 . S
C1955 C1949 1.363 . S
C1955 C1950 1.379 . S
C1955 N1953 1.356 . S
N1956 C1948 1.356 . S
N1956 H1962 0.984 . S
N1956 H1963 0.984 . S
N1957 C1950 1.356 . S
N1957 H1960 0.984 . S
N1957 H1961 0.985 . S
H1958 N1953 0.984 . S
H1959 N1953 0.985 . S
H1960 N1957 0.984 . S
H1961 N1957 0.985 . S
H1962 N1956 0.984 . S
H1963 N1956 0.984 . S
H1964 N1952 0.984 . S
H1965 N1952 0.985 . S
C1966 C1967 1.363 . S
C1966 C1972 1.379 . S
C1966 N1974 1.356 . S
C1967 C1966 1.363 . S
C1967 C1973 1.363 . S
C1968 C1969 1.363 . S
C1968 C1973 1.379 . S
C1968 N1975 1.356 . S
C1969 C1968 1.363 . S
C1969 C1972 1.363 . S
N1970 C1972 1.356 . S
N1970 H1982 0.984 . S
N1970 H1983 0.985 . S
N1971 C1973 1.356 . S
N1971 H1976 0.984 . S
N1971 H1977 0.985 . S
C1972 C1966 1.379 . S
C1972 C1969 1.363 . S
C1972 N1970 1.356 . S
C1973 C1967 1.363 . S
C1973 C1968 1.379 . S
C1973 N1971 1.356 . S
N1974 C1966 1.356 . S
N1974 H1980 0.984 . S
N1974 H1981 0.984 . S
N1975 C1968 1.356 . S
N1975 H1978 0.984 . S
N1975 H1979 0.985 . S
H1976 N1971 0.984 . S
H1977 N1971 0.985 . S
H1978 N1975 0.984 . S
H1979 N1975 0.985 . S
H1980 N1974 0.984 . S
H1981 N1974 0.984 . S
H1982 N1970 0.984 . S
H1983 N1970 0.985 . S
C1409 C49 1.574 . S
C1411 C372 1.574 . S
C1427 C460 1.574 . S
C1429 C137 1.574 . S
C1445 C225 1.574 . S
C1447 C548 1.575 . S
C1463 C313 1.575 . S
C1465 C636 1.575 . S
C1481 C733 1.569 . S
C1483 C1105 1.569 . S
C1499 C1201 1.569 . S
C1501 C821 1.569 . S
C1517 C900 1.569 . S
C1519 C1289 1.569 . S
C1535 C988 1.569 . S
C1537 C1369 1.569 . S
C1553 C57 1.499 . S
C1555 C1340 1.419 . S
C1571 C1076 1.418 . S
C1573 C145 1.498 . S
C1589 C233 1.498 . S
C1591 C1173 1.419 . S
C1607 C1261 1.418 . S
C1609 C321 1.498 . S
C1625 C849 1.419 . S
C1627 C381 1.499 . S
C1643 C929 1.419 . S
C1645 C469 1.498 . S
C1661 C1017 1.419 . S
C1663 C557 1.498 . S
C1679 C761 1.418 . S
C1681 C645 1.498 . S
C1697 C724 1.530 . S
C1699 C673 1.398 . S
C1715 C409 1.399 . S
C1717 C812 1.530 . S
C1733 C497 1.398 . S
C1735 C909 1.529 . S
C1751 C997 1.530 . S
C1753 C585 1.399 . S
C1769 C117 1.398 . S
C1771 C1113 1.530 . S
C1787 C1193 1.530 . S
C1789 C205 1.399 . S
C1805 C1281 1.530 . S
C1807 C293 1.398 . S
C1823 C1377 1.529 . S
C1825 C29 1.398 . S
C1841 C665 1.627 . S
C1843 C20 1.627 . S
C1859 C108 1.626 . S
C1861 C401 1.626 . S
C1877 C196 1.627 . S
C1879 C489 1.627 . S
C1895 C284 1.626 . S
C1897 C577 1.626 . S
C1913 C1349 1.619 . S
C1915 C753 1.619 . S
C1931 C1085 1.619 . S
C1933 C841 1.619 . S
C1949 C1164 1.619 . S
C1951 C937 1.619 . S
C1967 C1252 1.619 . S
C1969 C1025 1.619 . S
