# Generated by pormake.
# Topology ukv, (4)-cn, num edge types: 1
# Building blocks:
#     Node 0, Type 0, BuildingBlock: CEKHIL_clean_sbu_0, # of connection points: 4
#     Node 1, Type 0, BuildingBlock: CEKHIL_clean_sbu_0, # of connection points: 4
#     Node 2, Type 0, BuildingBlock: CEKHIL_clean_sbu_0, # of connection points: 4
#     Node 3, Type 0, BuildingBlock: CEKHIL_clean_sbu_0, # of connection points: 4
#     Node 4, Type 0, BuildingBlock: CEKHIL_clean_sbu_0, # of connection points: 4
#     Node 5, Type 0, BuildingBlock: CEKHIL_clean_sbu_0, # of connection points: 4
#     Node 6, Type 0, BuildingBlock: CEKHIL_clean_sbu_0, # of connection points: 4
#     Node 7, Type 0, BuildingBlock: CEKHIL_clean_sbu_0, # of connection points: 4
#     Node 8, Type 0, BuildingBlock: CEKHIL_clean_sbu_0, # of connection points: 4
#     Node 9, Type 0, BuildingBlock: CEKHIL_clean_sbu_0, # of connection points: 4
#     Node 10, Type 0, BuildingBlock: CEKHIL_clean_sbu_0, # of connection points: 4
#     Node 11, Type 0, BuildingBlock: CEKHIL_clean_sbu_0, # of connection points: 4
#     Node 12, Type 0, BuildingBlock: CEKHIL_clean_sbu_0, # of connection points: 4
#     Node 13, Type 0, BuildingBlock: CEKHIL_clean_sbu_0, # of connection points: 4
#     Node 14, Type 0, BuildingBlock: CEKHIL_clean_sbu_0, # of connection points: 4
#     Node 15, Type 0, BuildingBlock: CEKHIL_clean_sbu_0, # of connection points: 4
#     Node 16, Type 0, BuildingBlock: CEKHIL_clean_sbu_0, # of connection points: 4
#     Node 17, Type 0, BuildingBlock: CEKHIL_clean_sbu_0, # of connection points: 4
#     Node 18, Type 0, BuildingBlock: CEKHIL_clean_sbu_0, # of connection points: 4
#     Node 19, Type 0, BuildingBlock: CEKHIL_clean_sbu_0, # of connection points: 4
#     Node 20, Type 0, BuildingBlock: CEKHIL_clean_sbu_0, # of connection points: 4
#     Node 21, Type 0, BuildingBlock: CEKHIL_clean_sbu_0, # of connection points: 4
#     Node 22, Type 0, BuildingBlock: CEKHIL_clean_sbu_0, # of connection points: 4
#     Node 23, Type 0, BuildingBlock: CEKHIL_clean_sbu_0, # of connection points: 4
#     Node 24, Type 0, BuildingBlock: CEKHIL_clean_sbu_0, # of connection points: 4
#     Node 25, Type 0, BuildingBlock: CEKHIL_clean_sbu_0, # of connection points: 4
#     Node 26, Type 0, BuildingBlock: CEKHIL_clean_sbu_0, # of connection points: 4
#     Node 27, Type 0, BuildingBlock: CEKHIL_clean_sbu_0, # of connection points: 4
#     Node 28, Type 0, BuildingBlock: CEKHIL_clean_sbu_0, # of connection points: 4
#     Node 29, Type 0, BuildingBlock: CEKHIL_clean_sbu_0, # of connection points: 4
#     Node 30, Type 0, BuildingBlock: CEKHIL_clean_sbu_0, # of connection points: 4
#     Node 31, Type 0, BuildingBlock: CEKHIL_clean_sbu_0, # of connection points: 4
#     Node 32, Type 0, BuildingBlock: CEKHIL_clean_sbu_0, # of connection points: 4
#     Node 33, Type 0, BuildingBlock: CEKHIL_clean_sbu_0, # of connection points: 4
#     Node 34, Type 0, BuildingBlock: CEKHIL_clean_sbu_0, # of connection points: 4
#     Node 35, Type 0, BuildingBlock: CEKHIL_clean_sbu_0, # of connection points: 4
#     Edge 36, Type (0, 0), BuildingBlock: XIVTED_clean_linker_0, # of connection points: 2
#     Edge 37, Type (0, 0), BuildingBlock: XIVTED_clean_linker_0, # of connection points: 2
#     Edge 38, Type (0, 0), BuildingBlock: XIVTED_clean_linker_0, # of connection points: 2
#     Edge 39, Type (0, 0), BuildingBlock: XIVTED_clean_linker_0, # of connection points: 2
#     Edge 40, Type (0, 0), BuildingBlock: XIVTED_clean_linker_0, # of connection points: 2
#     Edge 41, Type (0, 0), BuildingBlock: XIVTED_clean_linker_0, # of connection points: 2
#     Edge 42, Type (0, 0), BuildingBlock: XIVTED_clean_linker_0, # of connection points: 2
#     Edge 43, Type (0, 0), BuildingBlock: XIVTED_clean_linker_0, # of connection points: 2
#     Edge 44, Type (0, 0), BuildingBlock: XIVTED_clean_linker_0, # of connection points: 2
#     Edge 45, Type (0, 0), BuildingBlock: XIVTED_clean_linker_0, # of connection points: 2
#     Edge 46, Type (0, 0), BuildingBlock: XIVTED_clean_linker_0, # of connection points: 2
#     Edge 47, Type (0, 0), BuildingBlock: XIVTED_clean_linker_0, # of connection points: 2
#     Edge 48, Type (0, 0), BuildingBlock: XIVTED_clean_linker_0, # of connection points: 2
#     Edge 49, Type (0, 0), BuildingBlock: XIVTED_clean_linker_0, # of connection points: 2
#     Edge 50, Type (0, 0), BuildingBlock: XIVTED_clean_linker_0, # of connection points: 2
#     Edge 51, Type (0, 0), BuildingBlock: XIVTED_clean_linker_0, # of connection points: 2
#     Edge 52, Type (0, 0), BuildingBlock: XIVTED_clean_linker_0, # of connection points: 2
#     Edge 53, Type (0, 0), BuildingBlock: XIVTED_clean_linker_0, # of connection points: 2
#     Edge 54, Type (0, 0), BuildingBlock: XIVTED_clean_linker_0, # of connection points: 2
#     Edge 55, Type (0, 0), BuildingBlock: XIVTED_clean_linker_0, # of connection points: 2
#     Edge 56, Type (0, 0), BuildingBlock: XIVTED_clean_linker_0, # of connection points: 2
#     Edge 57, Type (0, 0), BuildingBlock: XIVTED_clean_linker_0, # of connection points: 2
#     Edge 58, Type (0, 0), BuildingBlock: XIVTED_clean_linker_0, # of connection points: 2
#     Edge 59, Type (0, 0), BuildingBlock: XIVTED_clean_linker_0, # of connection points: 2
#     Edge 60, Type (0, 0), BuildingBlock: XIVTED_clean_linker_0, # of connection points: 2
#     Edge 61, Type (0, 0), BuildingBlock: XIVTED_clean_linker_0, # of connection points: 2
#     Edge 62, Type (0, 0), BuildingBlock: XIVTED_clean_linker_0, # of connection points: 2
#     Edge 63, Type (0, 0), BuildingBlock: XIVTED_clean_linker_0, # of connection points: 2
#     Edge 64, Type (0, 0), BuildingBlock: XIVTED_clean_linker_0, # of connection points: 2
#     Edge 65, Type (0, 0), BuildingBlock: XIVTED_clean_linker_0, # of connection points: 2
#     Edge 66, Type (0, 0), BuildingBlock: XIVTED_clean_linker_0, # of connection points: 2
#     Edge 67, Type (0, 0), BuildingBlock: XIVTED_clean_linker_0, # of connection points: 2
#     Edge 68, Type (0, 0), BuildingBlock: XIVTED_clean_linker_0, # of connection points: 2
#     Edge 69, Type (0, 0), BuildingBlock: XIVTED_clean_linker_0, # of connection points: 2
#     Edge 70, Type (0, 0), BuildingBlock: XIVTED_clean_linker_0, # of connection points: 2
#     Edge 71, Type (0, 0), BuildingBlock: XIVTED_clean_linker_0, # of connection points: 2
#     Edge 72, Type (0, 0), BuildingBlock: XIVTED_clean_linker_0, # of connection points: 2
#     Edge 73, Type (0, 0), BuildingBlock: XIVTED_clean_linker_0, # of connection points: 2
#     Edge 74, Type (0, 0), BuildingBlock: XIVTED_clean_linker_0, # of connection points: 2
#     Edge 75, Type (0, 0), BuildingBlock: XIVTED_clean_linker_0, # of connection points: 2
#     Edge 76, Type (0, 0), BuildingBlock: XIVTED_clean_linker_0, # of connection points: 2
#     Edge 77, Type (0, 0), BuildingBlock: XIVTED_clean_linker_0, # of connection points: 2
#     Edge 78, Type (0, 0), BuildingBlock: XIVTED_clean_linker_0, # of connection points: 2
#     Edge 79, Type (0, 0), BuildingBlock: XIVTED_clean_linker_0, # of connection points: 2
#     Edge 80, Type (0, 0), BuildingBlock: XIVTED_clean_linker_0, # of connection points: 2
#     Edge 81, Type (0, 0), BuildingBlock: XIVTED_clean_linker_0, # of connection points: 2
#     Edge 82, Type (0, 0), BuildingBlock: XIVTED_clean_linker_0, # of connection points: 2
#     Edge 83, Type (0, 0), BuildingBlock: XIVTED_clean_linker_0, # of connection points: 2
#     Edge 84, Type (0, 0), BuildingBlock: XIVTED_clean_linker_0, # of connection points: 2
#     Edge 85, Type (0, 0), BuildingBlock: XIVTED_clean_linker_0, # of connection points: 2
#     Edge 86, Type (0, 0), BuildingBlock: XIVTED_clean_linker_0, # of connection points: 2
#     Edge 87, Type (0, 0), BuildingBlock: XIVTED_clean_linker_0, # of connection points: 2
#     Edge 88, Type (0, 0), BuildingBlock: XIVTED_clean_linker_0, # of connection points: 2
#     Edge 89, Type (0, 0), BuildingBlock: XIVTED_clean_linker_0, # of connection points: 2
#     Edge 90, Type (0, 0), BuildingBlock: XIVTED_clean_linker_0, # of connection points: 2
#     Edge 91, Type (0, 0), BuildingBlock: XIVTED_clean_linker_0, # of connection points: 2
#     Edge 92, Type (0, 0), BuildingBlock: XIVTED_clean_linker_0, # of connection points: 2
#     Edge 93, Type (0, 0), BuildingBlock: XIVTED_clean_linker_0, # of connection points: 2
#     Edge 94, Type (0, 0), BuildingBlock: XIVTED_clean_linker_0, # of connection points: 2
#     Edge 95, Type (0, 0), BuildingBlock: XIVTED_clean_linker_0, # of connection points: 2
#     Edge 96, Type (0, 0), BuildingBlock: XIVTED_clean_linker_0, # of connection points: 2
#     Edge 97, Type (0, 0), BuildingBlock: XIVTED_clean_linker_0, # of connection points: 2
#     Edge 98, Type (0, 0), BuildingBlock: XIVTED_clean_linker_0, # of connection points: 2
#     Edge 99, Type (0, 0), BuildingBlock: XIVTED_clean_linker_0, # of connection points: 2
#     Edge 100, Type (0, 0), BuildingBlock: XIVTED_clean_linker_0, # of connection points: 2
#     Edge 101, Type (0, 0), BuildingBlock: XIVTED_clean_linker_0, # of connection points: 2
#     Edge 102, Type (0, 0), BuildingBlock: XIVTED_clean_linker_0, # of connection points: 2
#     Edge 103, Type (0, 0), BuildingBlock: XIVTED_clean_linker_0, # of connection points: 2
#     Edge 104, Type (0, 0), BuildingBlock: XIVTED_clean_linker_0, # of connection points: 2
#     Edge 105, Type (0, 0), BuildingBlock: XIVTED_clean_linker_0, # of connection points: 2
#     Edge 106, Type (0, 0), BuildingBlock: XIVTED_clean_linker_0, # of connection points: 2
#     Edge 107, Type (0, 0), BuildingBlock: XIVTED_clean_linker_0, # of connection points: 2
# Relax obj value: 0.234
# Max RMSD: 0.137
# Mean RMSD: 0.137
data_MOF--net-ukv--node1-CEKHIL_clean_sbu_0--edge1-XIVTED_clean_linker_0
_symmetry_space_group_name_H-M    P1
_symmetry_Int_Tables_number       1
_symmetry_cell_setting            triclinic
loop_
_symmetry_equiv_pos_as_xyz
'x, y, z'
_cell_length_a     94.159179
_cell_length_b     94.178987
_cell_length_c     21.335967
_cell_angle_alpha  90.003611
_cell_angle_beta   90.036291
_cell_angle_gamma 119.99205
loop_
_atom_site_label
_atom_site_type_symbol
_atom_site_fract_x
_atom_site_fract_y
_atom_site_fract_z
_atom_type_partial_charge
Co0 Co 0.26616 0.07426 0.10144 0.0
O1 O 0.26142 0.06019 0.17315 0.0
O2 O 0.24298 0.0585 0.10434 0.0
C3 C 0.28809 0.07278 0.06673 0.0
O4 O 0.26628 0.08609 0.02141 0.0
Co5 Co 0.29958 0.10676 0.08574 0.0
O6 O 0.29236 0.10458 -0.00273 0.0
C7 C 0.27284 0.1061 0.16249 0.0
C8 C 0.2463 0.0527 0.15403 0.0
C9 C 0.27718 0.09635 0.98344 0.0
O10 O 0.26318 0.09066 0.15264 0.0
O11 O 0.28758 0.11416 0.14204 0.0
O12 O 0.27331 0.06122 0.05337 0.0
O13 O 0.28905 0.08376 0.10522 0.0
Co14 Co 0.92724 0.19434 0.10241 0.0
O15 O 0.94173 0.20285 0.17334 0.0
O16 O 0.93991 0.18335 0.11001 0.0
C17 C 0.93325 0.21891 0.06162 0.0
O18 O 0.91414 0.18274 0.02399 0.0
Co19 Co 0.89863 0.20162 0.08329 0.0
O20 O 0.8989 0.19406 -0.00316 0.0
C21 C 0.8945 0.17489 0.16909 0.0
C22 C 0.94695 0.19295 0.15771 0.0
C23 C 0.90481 0.18477 0.98527 0.0
O24 O 0.90902 0.17745 0.15693 0.0
O25 O 0.88879 0.18369 0.14706 0.0
O26 O 0.94271 0.21283 0.05058 0.0
O27 O 0.92159 0.21082 0.10111 0.0
Co28 Co 0.80904 0.73485 0.1021 0.0
O29 O 0.80041 0.74133 0.17104 0.0
O30 O 0.81982 0.75854 0.10629 0.0
C31 C 0.7846 0.71569 0.06221 0.0
O32 O 0.82071 0.73271 0.02525 0.0
Co33 Co 0.80217 0.69891 0.09029 0.0
O34 O 0.81047 0.70595 0.00397 0.0
C35 C 0.82879 0.72266 0.17378 0.0
C36 C 0.81025 0.75633 0.15372 0.0
C37 C 0.81937 0.72104 0.98974 0.0
O38 O 0.82609 0.73435 0.15843 0.0
O39 O 0.82006 0.70787 0.15444 0.0
O40 O 0.79048 0.73109 0.04902 0.0
O41 O 0.79274 0.71266 0.10345 0.0
Co42 Co 0.07567 0.27012 0.38947 0.0
O43 O 0.06042 0.26364 0.32091 0.0
O44 O 0.06349 0.24643 0.38269 0.0
C45 C 0.0695 0.28828 0.43321 0.0
O46 O 0.08978 0.2723 0.46553 0.0
Co47 Co 0.10378 0.30646 0.40388 0.0
O48 O 0.10478 0.29909 0.48995 0.0
C49 C 0.10765 0.28402 0.31655 0.0
C50 C 0.0558 0.24862 0.33637 0.0
C51 C 0.09934 0.28401 0.50259 0.0
O52 O 0.09353 0.27183 0.33164 0.0
O53 O 0.11318 0.2986 0.33747 0.0
O54 O 0.06045 0.27271 0.4445 0.0
O55 O 0.08067 0.29206 0.39124 0.0
Co56 Co 0.73404 0.80899 0.38306 0.0
O57 O 0.74036 0.80065 0.31268 0.0
O58 O 0.75771 0.81992 0.37763 0.0
C59 C 0.71512 0.78437 0.42219 0.0
O60 O 0.73214 0.82039 0.46126 0.0
Co61 Co 0.6981 0.80189 0.39868 0.0
O62 O 0.70545 0.80949 0.48551 0.0
C63 C 0.72133 0.82873 0.31477 0.0
C64 C 0.75541 0.8105 0.32959 0.0
C65 C 0.72061 0.81856 0.49858 0.0
O66 O 0.73316 0.8261 0.32845 0.0
O67 O 0.70666 0.8199 0.3352 0.0
O68 O 0.73057 0.7903 0.43462 0.0
O69 O 0.71187 0.79262 0.38228 0.0
Co70 Co 0.19626 0.92405 0.40033 0.0
O71 O 0.20507 0.93859 0.32975 0.0
O72 O 0.18599 0.93738 0.39401 0.0
C73 C 0.22059 0.92903 0.44039 0.0
O74 O 0.18448 0.91105 0.47851 0.0
Co75 Co 0.20209 0.89444 0.41752 0.0
O76 O 0.19457 0.89464 0.50407 0.0
C77 C 0.17555 0.89155 0.33336 0.0
C78 C 0.19556 0.94424 0.34615 0.0
C79 C 0.18586 0.90117 0.51636 0.0
O80 O 0.17885 0.90629 0.34576 0.0
O81 O 0.18386 0.88522 0.35474 0.0
O82 O 0.21508 0.93894 0.45204 0.0
O83 O 0.21213 0.91754 0.40064 0.0
Co84 Co 0.73284 0.92675 0.8838 0.0
O85 O 0.73912 0.94152 0.81371 0.0
O86 O 0.75649 0.93954 0.87836 0.0
C87 C 0.71388 0.93229 0.9239 0.0
O88 O 0.73108 0.91347 0.96174 0.0
Co89 Co 0.69702 0.89778 0.8998 0.0
O90 O 0.70443 0.89787 0.98685 0.0
C91 C 0.72031 0.89423 0.816 0.0
C92 C 0.75417 0.94675 0.83069 0.0
C93 C 0.7196 0.90396 -0.00041 0.0
O94 O 0.73203 0.90882 0.82882 0.0
O95 O 0.70568 0.88824 0.83704 0.0
O96 O 0.72935 0.94187 0.93589 0.0
O97 O 0.71063 0.92086 0.88359 0.0
Co98 Co 0.07626 0.8071 0.90021 0.0
O99 O 0.06168 0.79855 0.82955 0.0
O100 O 0.0635 0.818 0.89319 0.0
C101 C 0.07054 0.78263 0.94114 0.0
O102 O 0.08945 0.81871 0.97836 0.0
Co103 Co 0.10508 0.80004 0.91774 0.0
O104 O 0.105 0.80764 0.00427 0.0
C105 C 0.10892 0.82687 0.83324 0.0
C106 C 0.05647 0.80845 0.84538 0.0
C107 C 0.09897 0.81681 0.01647 0.0
O108 O 0.09433 0.82409 0.84545 0.0
O109 O 0.1148 0.81818 0.85483 0.0
O110 O 0.06098 0.78858 0.95235 0.0
O111 O 0.08204 0.79072 0.90107 0.0
Co112 Co 0.19678 0.27379 0.88955 0.0
O113 O 0.20595 0.26771 0.82122 0.0
O114 O 0.18609 0.25016 0.88359 0.0
C115 C 0.22094 0.29273 0.93206 0.0
O116 O 0.18454 0.27542 0.96558 0.0
Co117 Co 0.2034 0.30957 0.90408 0.0
O118 O 0.19518 0.30206 0.99019 0.0
C119 C 0.17756 0.28639 0.81655 0.0
C120 C 0.19608 0.25262 0.83742 0.0
C121 C 0.18606 0.28688 0.00266 0.0
O122 O 0.18013 0.27461 0.83181 0.0
O123 O 0.18612 0.30105 0.83747 0.0
O124 O 0.21497 0.27727 0.94418 0.0
O125 O 0.21304 0.29601 0.89054 0.0
Co126 Co 0.92858 0.73517 0.60084 0.0
O127 O 0.94322 0.74066 0.67101 0.0
O128 O 0.94156 0.75876 0.60957 0.0
C129 C 0.93398 0.71645 0.5574 0.0
O130 O 0.91533 0.73412 0.52351 0.0
Co131 Co 0.89939 0.69956 0.58232 0.0
O132 O 0.8996 0.70762 0.49631 0.0
C133 C 0.89634 0.72216 0.67139 0.0
C134 C 0.94857 0.75588 0.65655 0.0
C135 C 0.90576 0.72286 0.48494 0.0
O136 O 0.91072 0.73402 0.65708 0.0
O137 O 0.89032 0.70761 0.64942 0.0
O138 O 0.94367 0.73199 0.54729 0.0
O139 O 0.92253 0.71295 0.59787 0.0
Co140 Co 0.26585 0.19146 0.6001 0.0
O141 O 0.26196 0.2012 0.67264 0.0
O142 O 0.24268 0.18378 0.60788 0.0
C143 C 0.28704 0.21486 0.5616 0.0
O144 O 0.26492 0.1792 0.52025 0.0
Co145 Co 0.29923 0.19287 0.57613 0.0
O146 O 0.29061 0.18695 0.48954 0.0
C147 C 0.27424 0.16746 0.66067 0.0
C148 C 0.2466 0.1933 0.65662 0.0
C149 C 0.27521 0.17967 0.47961 0.0
O150 O 0.26403 0.17264 0.65201 0.0
O151 O 0.28867 0.17433 0.63706 0.0
O152 O 0.27203 0.21126 0.55057 0.0
O153 O 0.28869 0.20509 0.59924 0.0
Co154 Co 0.80826 0.076 0.60132 0.0
O155 O 0.79966 0.06091 0.67033 0.0
O156 O 0.81904 0.06311 0.60546 0.0
C157 C 0.78379 0.07066 0.56153 0.0
O158 O 0.81989 0.08972 0.52428 0.0
Co159 Co 0.8014 0.10505 0.58856 0.0
O160 O 0.8092 0.10579 0.50172 0.0
C161 C 0.82802 0.10803 0.67247 0.0
C162 C 0.80945 0.05571 0.65275 0.0
C163 C 0.81821 0.09969 0.48792 0.0
O164 O 0.82532 0.09362 0.65751 0.0
O165 O 0.81929 0.11406 0.65269 0.0
O166 O 0.78968 0.06116 0.54843 0.0
O167 O 0.79194 0.08189 0.60254 0.0
Co168 Co 0.93646 0.40855 0.43415 0.0
O169 O 0.93074 0.39424 0.50547 0.0
O170 O 0.91286 0.39501 0.43986 0.0
C171 C 0.95605 0.4037 0.39591 0.0
O172 O 0.93771 0.42125 0.35499 0.0
Co173 Co 0.9718 0.43831 0.41706 0.0
O174 O 0.96425 0.43755 0.32978 0.0
C175 C 0.9478 0.44124 0.49892 0.0
C176 C 0.91559 0.38836 0.48843 0.0
C177 C 0.94903 0.43093 0.31693 0.0
O178 O 0.9365 0.42638 0.48734 0.0
O179 O 0.96247 0.44765 0.47783 0.0
O180 O 0.94069 0.39364 0.3839 0.0
O181 O 0.95889 0.41526 0.43499 0.0
Co182 Co 0.60008 0.52893 0.42969 0.0
O183 O 0.61428 0.5374 0.50143 0.0
O184 O 0.61494 0.52035 0.43136 0.0
C185 C 0.60304 0.55313 0.39693 0.0
O186 O 0.58775 0.51792 0.34926 0.0
Co187 Co 0.56864 0.53188 0.41726 0.0
O188 O 0.5702 0.52694 0.32813 0.0
C189 C 0.56788 0.50478 0.49166 0.0
C190 C 0.62108 0.52918 0.48157 0.0
C191 C 0.57768 0.51935 0.31253 0.0
O192 O 0.58311 0.5098 0.48037 0.0
O193 O 0.56039 0.5122 0.47276 0.0
O194 O 0.61395 0.54907 0.3827 0.0
O195 O 0.59177 0.54334 0.43514 0.0
Co196 Co 0.47817 0.06714 0.44065 0.0
O197 O 0.46843 0.07065 0.51352 0.0
O198 O 0.48766 0.0905 0.45585 0.0
C199 C 0.45435 0.04821 0.39601 0.0
O200 O 0.49076 0.06805 0.36152 0.0
Co201 Co 0.47353 0.03256 0.41217 0.0
O202 O 0.48101 0.04218 0.32772 0.0
C203 C 0.49867 0.05455 0.50427 0.0
C204 C 0.47767 0.08623 0.5033 0.0
C205 C 0.48957 0.05763 0.31979 0.0
O206 O 0.49542 0.06613 0.49404 0.0
O207 O 0.4907 0.04032 0.47909 0.0
O208 O 0.4595 0.06373 0.38873 0.0
O209 O 0.46287 0.04476 0.43376 0.0
Co210 Co 0.74894 0.6064 0.7268 0.0
O211 O 0.73502 0.60073 0.65424 0.0
O212 O 0.73597 0.5828 0.71896 0.0
C213 C 0.74318 0.62533 0.76531 0.0
O214 O 0.76129 0.60752 0.80687 0.0
Co215 Co 0.77799 0.64192 0.74802 0.0
O216 O 0.77709 0.63395 0.83469 0.0
C217 C 0.78201 0.61903 0.66354 0.0
C218 C 0.72944 0.58555 0.67006 0.0
C219 C 0.77064 0.61868 0.84616 0.0
O220 O 0.76732 0.6073 0.67472 0.0
O221 O 0.7879 0.63356 0.68557 0.0
O222 O 0.73338 0.60985 0.77619 0.0
O223 O 0.75511 0.62866 0.72743 0.0
Co224 Co 0.39966 0.14335 0.70109 0.0
O225 O 0.40586 0.12858 0.66571 0.0
O226 O 0.42346 0.1538 0.69766 0.0
C227 C 0.38055 0.1248 0.76688 0.0
O228 O 0.39736 0.16159 0.74287 0.0
Co229 Co 0.36368 0.1358 0.68188 0.0
O230 O 0.37073 0.15471 0.73939 0.0
C231 C 0.38738 0.15002 0.5785 0.0
C232 C 0.42094 0.13994 0.67439 0.0
C233 C 0.38555 0.16428 0.75613 0.0
O234 O 0.39919 0.15236 0.61542 0.0
O235 O 0.37226 0.14198 0.59434 0.0
O236 O 0.39594 0.1324 0.78254 0.0
O237 O 0.37753 0.12747 0.71052 0.0
Co238 Co 0.8648 0.25988 0.72487 0.0
O239 O 0.87333 0.27453 0.65453 0.0
O240 O 0.85387 0.2726 0.7184 0.0
C241 C 0.88931 0.26558 0.76547 0.0
O242 O 0.85321 0.24661 0.80283 0.0
Co243 Co 0.87183 0.23103 0.74155 0.0
O244 O 0.86404 0.23082 0.82801 0.0
C245 C 0.84529 0.22746 0.65592 0.0
C246 C 0.86342 0.27971 0.67069 0.0
C247 C 0.85497 0.23693 0.84052 0.0
O248 O 0.84783 0.24187 0.66977 0.0
O249 O 0.85409 0.22163 0.67683 0.0
O250 O 0.88335 0.27511 0.77709 0.0
O251 O 0.88118 0.25409 0.72534 0.0
Co252 Co 0.39938 0.25841 0.20061 0.0
O253 O 0.40559 0.2793 0.16427 0.0
O254 O 0.42317 0.27188 0.19855 0.0
C255 C 0.3799 0.25782 0.26439 0.0
O256 O 0.39709 0.23802 0.24375 0.0
Co257 Co 0.3636 0.2297 0.18053 0.0
O258 O 0.3705 0.21823 0.24062 0.0
C259 C 0.38768 0.23928 0.07836 0.0
C260 C 0.42065 0.2831 0.17411 0.0
C261 C 0.3853 0.22359 0.25789 0.0
O262 O 0.39934 0.24886 0.11561 0.0
O263 O 0.37251 0.23206 0.09357 0.0
O264 O 0.39523 0.26574 0.28106 0.0
O265 O 0.37717 0.252 0.20824 0.0
Co266 Co 0.74607 0.14204 0.22484 0.0
O267 O 0.73139 0.13401 0.15435 0.0
O268 O 0.7336 0.15326 0.22002 0.0
C269 C 0.74 0.11724 0.26327 0.0
O270 O 0.75939 0.15314 0.30332 0.0
Co271 Co 0.77457 0.13446 0.2401 0.0
O272 O 0.77465 0.14164 0.32747 0.0
C273 C 0.77869 0.16175 0.15767 0.0
C274 C 0.72638 0.14397 0.1718 0.0
C275 C 0.76881 0.1509 0.3408 0.0
O276 O 0.7642 0.15914 0.17066 0.0
O277 O 0.78443 0.15283 0.17813 0.0
O278 O 0.73065 0.12335 0.27587 0.0
O279 O 0.75156 0.12544 0.22351 0.0
Co280 Co 0.86575 0.60481 0.22672 0.0
O281 O 0.87408 0.59827 0.15684 0.0
O282 O 0.85596 0.58121 0.22568 0.0
C283 C 0.89024 0.62519 0.26143 0.0
O284 O 0.85466 0.60692 0.30539 0.0
Co285 Co 0.87069 0.64005 0.23683 0.0
O286 O 0.86465 0.63369 0.32552 0.0
C287 C 0.84329 0.61457 0.16091 0.0
C288 C 0.86504 0.58334 0.17673 0.0
C289 C 0.85636 0.61866 0.34127 0.0
O290 O 0.84747 0.60376 0.17337 0.0
O291 O 0.8512 0.62945 0.17994 0.0
O292 O 0.88529 0.61005 0.2763 0.0
O293 O 0.88114 0.62728 0.2216 0.0
Co294 Co 0.59751 0.06929 0.93999 0.0
O295 O 0.61239 0.07592 0.00982 0.0
O296 O 0.61086 0.09295 0.94204 0.0
C297 C 0.60227 0.04949 0.90344 0.0
O298 O 0.58411 0.06701 0.86165 0.0
Co299 Co 0.56781 0.03369 0.92968 0.0
O300 O 0.56787 0.04014 0.84126 0.0
C301 C 0.56526 0.05854 0.00744 0.0
C302 C 0.61795 0.09085 0.99066 0.0
C303 C 0.57424 0.05517 0.82573 0.0
O304 O 0.58004 0.06969 0.99397 0.0
O305 O 0.55871 0.04365 0.98865 0.0
O306 O 0.61216 0.06476 0.88958 0.0
O307 O 0.59104 0.04694 0.9438 0.0
Co308 Co 0.93703 0.52687 0.9346 0.0
O309 O 0.93188 0.53562 0.00692 0.0
O310 O 0.91349 0.51694 0.94281 0.0
C311 C 0.95644 0.55125 0.89536 0.0
O312 O 0.93766 0.51525 0.85489 0.0
Co313 Co 0.97217 0.53226 0.91336 0.0
O314 O 0.964 0.52535 0.82677 0.0
C315 C 0.94875 0.50564 -0.00229 0.0
C316 C 0.91661 0.52638 0.99146 0.0
C317 C 0.94869 0.51677 0.81552 0.0
O318 O 0.93736 0.50915 0.98712 0.0
O319 O 0.96328 0.51385 0.9753 0.0
O320 O 0.94102 0.54598 0.88463 0.0
O321 O 0.95946 0.54248 0.93353 0.0
Co322 Co 0.48147 0.41272 0.92785 0.0
O323 O 0.47148 0.40023 0.00216 0.0
O324 O 0.48954 0.3977 0.94389 0.0
C325 C 0.45793 0.40923 0.88515 0.0
O326 O 0.49405 0.42318 0.84738 0.0
Co327 Co 0.47936 0.44389 0.89509 0.0
O328 O 0.48561 0.44012 0.81067 0.0
C329 C 0.50422 0.44593 0.98659 0.0
C330 C 0.47974 0.39282 0.99201 0.0
C331 C 0.49332 0.4323 0.80406 0.0
O332 O 0.49975 0.43067 0.979 0.0
O333 O 0.49707 0.45288 0.96007 0.0
O334 O 0.46201 0.39804 0.87809 0.0
O335 O 0.4674 0.42132 0.92089 0.0
Co336 Co 0.60566 0.74436 0.76664 0.0
O337 O 0.60163 0.73005 0.83673 0.0
O338 O 0.58224 0.73009 0.77825 0.0
C339 C 0.6251 0.7402 0.72213 0.0
O340 O 0.60519 0.75693 0.68942 0.0
Co341 Co 0.64026 0.77477 0.74336 0.0
O342 O 0.63124 0.77331 0.65814 0.0
C343 C 0.61731 0.77675 0.83423 0.0
C344 C 0.58615 0.72355 0.824 0.0
C345 C 0.61583 0.76649 0.64901 0.0
O346 O 0.60601 0.76186 0.82295 0.0
O347 O 0.63165 0.78343 0.80987 0.0
O348 O 0.60967 0.72988 0.71251 0.0
O349 O 0.62816 0.75171 0.76172 0.0
Co350 Co 0.26249 0.86082 0.77796 0.0
O351 O 0.27724 0.86983 0.84794 0.0
O352 O 0.27558 0.85027 0.78534 0.0
C353 C 0.26786 0.88507 0.73594 0.0
O354 O 0.24915 0.84879 0.70052 0.0
Co355 Co 0.23338 0.86744 0.76034 0.0
O356 O 0.23337 0.85958 0.6742 0.0
C357 C 0.23002 0.84099 0.84602 0.0
C358 C 0.28269 0.86011 0.83238 0.0
C359 C 0.23947 0.85046 0.66242 0.0
O360 O 0.24465 0.84389 0.83377 0.0
O361 O 0.22396 0.84947 0.82399 0.0
O362 O 0.2775 0.87922 0.72477 0.0
O363 O 0.25646 0.87702 0.77641 0.0
Co364 Co 0.13926 0.39652 0.78055 0.0
O365 O 0.13045 0.40291 0.84923 0.0
O366 O 0.15022 0.42018 0.78582 0.0
C367 C 0.11497 0.37766 0.73854 0.0
O368 O 0.15115 0.39456 0.7041 0.0
Co369 Co 0.13229 0.36059 0.76722 0.0
O370 O 0.14026 0.36782 0.68064 0.0
C371 C 0.15851 0.38384 0.85317 0.0
C372 C 0.14046 0.41794 0.8326 0.0
C373 C 0.14939 0.38295 0.66738 0.0
O374 O 0.15599 0.39564 0.8377 0.0
O375 O 0.1498 0.36914 0.83292 0.0
O376 O 0.12099 0.39314 0.72652 0.0
O377 O 0.12282 0.37435 0.78016 0.0
Co378 Co 0.41298 0.93828 0.05906 0.0
O379 O 0.39825 0.93192 0.98874 0.0
O380 O 0.39945 0.91464 0.05614 0.0
C381 C 0.40834 0.95817 0.09553 0.0
O382 O 0.42617 0.94022 0.13782 0.0
Co383 Co 0.44285 0.97372 0.07178 0.0
O384 O 0.44238 0.96697 0.16003 0.0
C385 C 0.44542 0.94896 0.99359 0.0
C386 C 0.39251 0.91692 0.00745 0.0
C387 C 0.43594 0.95188 0.17461 0.0
O388 O 0.4305 0.93788 0.00543 0.0
O389 O 0.45211 0.96372 0.01375 0.0
O390 O 0.39834 0.94289 0.10914 0.0
O391 O 0.41968 0.9607 0.05581 0.0
Co392 Co 0.06796 0.47453 0.06767 0.0
O393 O 0.07376 0.46578 -0.00292 0.0
O394 O 0.09157 0.48479 0.06169 0.0
C395 C 0.04863 0.45014 0.10722 0.0
O396 O 0.06666 0.48622 0.14606 0.0
Co397 Co 0.03249 0.46858 0.08501 0.0
O398 O 0.04012 0.47563 0.17206 0.0
C399 C 0.05609 0.49524 0.00121 0.0
C400 C 0.0889 0.47521 0.01387 0.0
C401 C 0.05534 0.48447 0.18437 0.0
O402 O 0.06758 0.49196 0.01325 0.0
O403 O 0.04148 0.4869 0.02275 0.0
O404 O 0.06404 0.45569 0.11916 0.0
O405 O 0.0456 0.45862 0.06759 0.0
Co406 Co 0.53059 0.59208 0.05869 0.0
O407 O 0.54096 0.60607 0.98787 0.0
O408 O 0.52135 0.60617 0.04465 0.0
C409 C 0.55413 0.59653 0.10482 0.0
O410 O 0.5174 0.57989 0.136 0.0
Co411 Co 0.53485 0.56189 0.08645 0.0
O412 O 0.52686 0.56359 0.17049 0.0
C413 C 0.51005 0.5593 0.99339 0.0
C414 C 0.53185 0.61252 -0.00101 0.0
C415 C 0.51826 0.57047 0.17766 0.0
O416 O 0.5136 0.57425 0.00291 0.0
O417 O 0.51769 0.5528 0.01946 0.0
O418 O 0.54894 0.60684 0.11296 0.0
O419 O 0.54578 0.58482 0.06586 0.0
Co420 Co 0.06825 0.59336 0.56744 0.0
O421 O 0.07406 0.60805 0.49727 0.0
O422 O 0.09187 0.60674 0.56164 0.0
C423 C 0.04888 0.59834 0.60723 0.0
O424 O 0.06691 0.5802 0.64539 0.0
Co425 Co 0.03273 0.56382 0.58379 0.0
O426 O 0.04035 0.56392 0.67048 0.0
C427 C 0.05637 0.56102 0.49924 0.0
C428 C 0.0892 0.61373 0.51404 0.0
C429 C 0.05557 0.57035 0.68305 0.0
O430 O 0.0679 0.57567 0.5124 0.0
O431 O 0.04171 0.55477 0.52025 0.0
O432 O 0.06428 0.60818 0.61947 0.0
O433 O 0.0459 0.58691 0.56727 0.0
Co434 Co 0.41023 0.47454 0.55845 0.0
O435 O 0.3951 0.46574 0.48945 0.0
O436 O 0.39629 0.48421 0.55692 0.0
C437 C 0.40642 0.45034 0.59556 0.0
O438 O 0.42383 0.48618 0.63594 0.0
Co439 Co 0.44068 0.46973 0.56726 0.0
O440 O 0.44099 0.47656 0.65527 0.0
C441 C 0.44205 0.49659 0.48949 0.0
C442 C 0.38922 0.47485 0.50871 0.0
C443 C 0.43426 0.48487 0.671 0.0
O444 O 0.42718 0.49255 0.50342 0.0
O445 O 0.44907 0.48869 0.50808 0.0
O446 O 0.3962 0.4553 0.60975 0.0
O447 O 0.41736 0.45916 0.55454 0.0
Co448 Co 0.53223 0.94021 0.56102 0.0
O449 O 0.54098 0.93422 0.4909 0.0
O450 O 0.52151 0.91657 0.55435 0.0
C451 C 0.55657 0.95912 0.60237 0.0
O452 O 0.52048 0.94172 0.63879 0.0
Co453 Co 0.53885 0.97594 0.57743 0.0
O454 O 0.53112 0.96833 0.66391 0.0
C455 C 0.51255 0.95286 0.49133 0.0
C456 C 0.53116 0.9191 0.50689 0.0
C457 C 0.52218 0.95314 0.67651 0.0
O458 O 0.51523 0.94108 0.50546 0.0
O459 O 0.52121 0.9675 0.51228 0.0
O460 O 0.55074 0.94364 0.61377 0.0
O461 O 0.54847 0.96243 0.56189 0.0
Co462 Co 0.25961 0.39938 0.28167 0.0
O463 O 0.27444 0.40559 0.35149 0.0
O464 O 0.27201 0.42306 0.28901 0.0
C465 C 0.26583 0.3811 0.23956 0.0
O466 O 0.24599 0.39748 0.20431 0.0
Co467 Co 0.23136 0.3632 0.26496 0.0
O468 O 0.23098 0.37078 0.17867 0.0
C469 C 0.22728 0.38561 0.35184 0.0
C470 C 0.27937 0.42066 0.33602 0.0
C471 C 0.23657 0.38591 0.16645 0.0
O472 O 0.24153 0.39776 0.33781 0.0
O473 O 0.22176 0.37107 0.33054 0.0
O474 O 0.27502 0.39665 0.22829 0.0
O475 O 0.25438 0.37739 0.28023 0.0
Co476 Co 0.60393 0.86288 0.2662 0.0
O477 O 0.59815 0.87205 0.33547 0.0
O478 O 0.58032 0.85301 0.271 0.0
C479 C 0.62369 0.88698 0.22598 0.0
O480 O 0.60533 0.85083 0.18902 0.0
Co481 Co 0.63927 0.86817 0.25306 0.0
O482 O 0.63199 0.86095 0.16586 0.0
C483 C 0.61496 0.84194 0.33639 0.0
C484 C 0.58302 0.86273 0.3184 0.0
C485 C 0.61683 0.8523 0.15223 0.0
O486 O 0.60373 0.84543 0.32229 0.0
O487 O 0.62972 0.85004 0.31614 0.0
O488 O 0.60835 0.88166 0.21332 0.0
O489 O 0.62638 0.87853 0.26694 0.0
Co490 Co 0.14201 0.74323 0.27747 0.0
O491 O 0.13292 0.72834 0.34703 0.0
O492 O 0.15218 0.7298 0.28325 0.0
C493 C 0.11783 0.73851 0.23654 0.0
O494 O 0.15409 0.75656 0.20028 0.0
Co495 Co 0.13633 0.77298 0.26165 0.0
O496 O 0.1442 0.77318 0.17534 0.0
C497 C 0.16261 0.77544 0.34641 0.0
C498 C 0.14243 0.72271 0.33046 0.0
C499 C 0.1529 0.76665 0.16295 0.0
O500 O 0.15929 0.76072 0.33339 0.0
O501 O 0.1544 0.78189 0.32512 0.0
O502 O 0.12334 0.72862 0.22451 0.0
O503 O 0.12618 0.7498 0.27711 0.0
H504 H 0.19388 0.96943 0.40165 0.0
H505 H 0.22097 0.02615 0.09747 0.0
H506 H 0.20178 0.95298 0.22329 0.0
H507 H 0.24417 0.04401 0.27704 0.0
H508 H 0.20405 0.99879 0.14373 0.0
H509 H 0.2025 0.99645 0.35511 0.0
C510 C 0.19693 0.97136 0.35228 0.0
C511 C 0.19722 0.95908 0.31612 0.0
C512 C 0.21259 0.00884 0.17309 0.0
C513 C 0.20677 0.98961 0.26298 0.0
C514 C 0.22216 0.02442 0.14699 0.0
C515 C 0.23401 0.03725 0.18358 0.0
C516 C 0.21463 0.0063 0.23645 0.0
C517 C 0.23522 0.03436 0.2473 0.0
C518 C 0.20193 0.98675 0.32603 0.0
C519 C 0.20149 0.96222 0.25264 0.0
N520 N 0.22566 0.01915 0.27181 0.0
N521 N 0.20614 0.97722 0.22798 0.0
H522 H 0.95562 0.19892 0.28068 0.0
H523 H 0.047 0.24504 0.21352 0.0
H524 H 0.97214 0.19129 0.10209 0.0
H525 H 0.03089 0.22199 0.39408 0.0
H526 H 0.0199 0.22587 0.17021 0.0
H527 H 0.9828 0.20751 0.32485 0.0
C528 C 0.96488 0.19867 0.25128 0.0
C529 C 0.96171 0.19441 0.18779 0.0
C530 C 0.02244 0.22472 0.2189 0.0
C531 C 0.99283 0.20473 0.23717 0.0
C532 C 0.03785 0.23565 0.24357 0.0
C533 C 0.04111 0.23501 0.30728 0.0
C534 C 0.01006 0.21355 0.25886 0.0
C535 C 0.02885 0.22275 0.34455 0.0
C536 C 0.98033 0.20353 0.27645 0.0
C537 C 0.97411 0.19439 0.1514 0.0
N538 N 0.01366 0.21275 0.32019 0.0
N539 N 0.98931 0.19994 0.17616 0.0
H540 H 0.75849 0.80474 0.2068 0.0
H541 H 0.80516 0.76009 0.27647 0.0
H542 H 0.78233 0.81255 0.38626 0.0
H543 H 0.81134 0.78257 0.09505 0.0
H544 H 0.79683 0.77899 0.31917 0.0
H545 H 0.7775 0.79666 0.1633 0.0
C546 C 0.768 0.80513 0.23656 0.0
C547 C 0.76889 0.80927 0.30008 0.0
C548 C 0.80043 0.78008 0.27041 0.0
C549 C 0.7902 0.79955 0.25143 0.0
C550 C 0.80514 0.7693 0.24608 0.0
C551 C 0.80891 0.76983 0.18231 0.0
C552 C 0.79889 0.791 0.23006 0.0
C553 C 0.80861 0.78188 0.14462 0.0
C554 C 0.77885 0.80056 0.21176 0.0
C555 C 0.78134 0.8095 0.33692 0.0
N556 N 0.80321 0.79173 0.16868 0.0
N557 N 0.79126 0.80425 0.31248 0.0
H558 H 0.78116 0.97118 0.88858 0.0
H559 H 0.8105 0.03078 0.5922 0.0
H560 H 0.75729 0.95636 0.70863 0.0
H561 H 0.80399 0.0462 0.77496 0.0
H562 H 0.80126 0.00321 0.63455 0.0
H563 H 0.79984 0.99852 0.84526 0.0
C564 C 0.78022 0.97352 0.83946 0.0
C565 C 0.76765 0.96162 0.80204 0.0
C566 C 0.80233 0.01281 0.66555 0.0
C567 C 0.78899 0.99253 0.75251 0.0
C568 C 0.80768 0.02851 0.64167 0.0
C569 C 0.8079 0.04066 0.68029 0.0
C570 C 0.79764 0.00949 0.72866 0.0
C571 C 0.80389 0.03708 0.74378 0.0
C572 C 0.79079 0.98909 0.81504 0.0
C573 C 0.76679 0.96529 0.73896 0.0
N574 N 0.79886 0.02177 0.76606 0.0
N575 N 0.77728 0.98048 0.71612 0.0
H576 H 0.04839 0.8032 0.72179 0.0
H577 H 0.95656 0.75813 0.78005 0.0
H578 H 0.03111 0.80999 0.90012 0.0
H579 H 0.97426 0.78266 0.60279 0.0
H580 H 0.9835 0.77645 0.82655 0.0
H581 H 0.02158 0.79534 0.67568 0.0
C582 C 0.03905 0.8034 0.75078 0.0
C583 C 0.04188 0.80723 0.81469 0.0
C584 C 0.98134 0.77809 0.7779 0.0
C585 C 0.01118 0.79775 0.76305 0.0
C586 C 0.96603 0.76765 0.75141 0.0
C587 C 0.96327 0.76895 0.68767 0.0
C588 C 0.99411 0.78944 0.7397 0.0
C589 C 0.97593 0.78138 0.65227 0.0
C590 C 0.02381 0.79896 0.7245 0.0
C591 C 0.02939 0.80721 0.85051 0.0
N592 N 0.99099 0.79089 0.67835 0.0
N593 N 0.01438 0.80208 0.82459 0.0
H594 H 0.24608 0.201 0.77943 0.0
H595 H 0.19166 0.22475 0.89449 0.0
H596 H 0.22064 0.19412 0.60406 0.0
H597 H 0.20519 0.25056 0.71817 0.0
H598 H 0.2004 0.20587 0.8538 0.0
H599 H 0.22911 0.21127 0.82607 0.0
C600 C 0.23666 0.20132 0.75125 0.0
C601 C 0.23466 0.19667 0.68802 0.0
C602 C 0.20113 0.2155 0.82385 0.0
C603 C 0.21558 0.20867 0.74037 0.0
C604 C 0.19603 0.22615 0.84669 0.0
C605 C 0.19785 0.23926 0.80963 0.0
C606 C 0.20772 0.21785 0.76325 0.0
C607 C 0.20373 0.24066 0.74825 0.0
C608 C 0.22696 0.20709 0.77789 0.0
C609 C 0.22243 0.19745 0.65319 0.0
N610 N 0.20849 0.23009 0.72691 0.0
N611 N 0.21362 0.20379 0.67938 0.0
H612 H 0.86916 0.28829 0.54768 0.0
H613 H 0.91278 0.37996 0.61169 0.0
H614 H 0.86136 0.30468 0.72627 0.0
H615 H 0.88938 0.36258 0.43221 0.0
H616 H 0.8946 0.35276 0.65623 0.0
H617 H 0.87692 0.3152 0.50294 0.0
C618 C 0.86872 0.29746 0.577 0.0
C619 C 0.86464 0.29435 0.64061 0.0
C620 C 0.89316 0.35503 0.6075 0.0
C621 C 0.87399 0.32516 0.59055 0.0
C622 C 0.90353 0.3705 0.58212 0.0
C623 C 0.90253 0.37343 0.51833 0.0
C624 C 0.88218 0.34231 0.56819 0.0
C625 C 0.89044 0.36078 0.48175 0.0
C626 C 0.87311 0.31276 0.5515 0.0
C627 C 0.86435 0.30663 0.67688 0.0
N628 N 0.881 0.34559 0.50681 0.0
N629 N 0.86941 0.32169 0.65175 0.0
H630 H 0.62918 0.53389 0.60526 0.0
H631 H 0.72138 0.58368 0.54661 0.0
H632 H 0.64759 0.53049 0.42428 0.0
H633 H 0.70424 0.55805 0.72222 0.0
H634 H 0.69469 0.56488 0.49942 0.0
H635 H 0.65636 0.54308 0.65047 0.0
C636 C 0.63888 0.53475 0.5754 0.0
C637 C 0.63623 0.53147 0.51108 0.0
C638 C 0.69692 0.56313 0.54785 0.0
C639 C 0.66732 0.54241 0.56184 0.0
C640 C 0.7121 0.57385 0.57475 0.0
C641 C 0.71493 0.57237 0.63828 0.0
C642 C 0.68436 0.55128 0.58542 0.0
C643 C 0.70252 0.55951 0.67295 0.0
C644 C 0.65434 0.53994 0.60117 0.0
C645 C 0.64918 0.53283 0.4742 0.0
N646 N 0.68757 0.54968 0.6465 0.0
N647 N 0.66433 0.53862 0.4998 0.0
H648 H 0.4492 0.1574 0.60489 0.0
H649 H 0.46576 0.08205 0.62146 0.0
H650 H 0.42214 0.11372 0.71599 0.0
H651 H 0.48407 0.11718 0.47053 0.0
H652 H 0.45638 0.09866 0.67519 0.0
H653 H 0.46795 0.14747 0.57248 0.0
C654 C 0.4475 0.14596 0.6236 0.0
C655 C 0.43415 0.13626 0.66272 0.0
C656 C 0.46265 0.10291 0.63072 0.0
C657 C 0.45531 0.12498 0.62665 0.0
C658 C 0.46805 0.09344 0.6001 0.0
C659 C 0.47544 0.09812 0.54101 0.0
C660 C 0.46438 0.11707 0.6017 0.0
C661 C 0.47831 0.11311 0.51592 0.0
C662 C 0.45809 0.14027 0.60493 0.0
C663 C 0.43226 0.12147 0.68535 0.0
N664 N 0.47247 0.12195 0.54587 0.0
N665 N 0.44266 0.11627 0.66685 0.0
H666 H 0.42235 0.31053 0.21841 0.0
H667 H 0.48648 0.36822 0.96406 0.0
H668 H 0.4483 0.29383 0.10119 0.0
H669 H 0.46545 0.38456 0.1067 0.0
H670 H 0.47589 0.34201 0.01994 0.0
H671 H 0.44103 0.3386 0.18576 0.0
C672 C 0.43224 0.3129 0.18643 0.0
C673 C 0.43385 0.29998 0.1623 0.0
C674 C 0.4739 0.35148 0.03956 0.0
C675 C 0.45504 0.33206 0.12273 0.0
C676 C 0.47998 0.36644 0.00781 0.0
C677 C 0.47659 0.37845 0.03029 0.0
C678 C 0.46438 0.34861 0.0939 0.0
C679 C 0.46811 0.37554 0.0871 0.0
C680 C 0.44291 0.32892 0.16764 0.0
C681 C 0.44679 0.30358 0.12094 0.0
N682 N 0.46215 0.36088 0.1164 0.0
N683 N 0.45676 0.31932 0.10137 0.0
H684 H 0.70189 0.14642 0.22965 0.0
H685 H 0.64306 0.11676 0.93048 0.0
H686 H 0.7172 0.13833 0.04919 0.0
H687 H 0.62717 0.09502 0.11327 0.0
H688 H 0.6705 0.13517 0.97379 0.0
H689 H 0.67468 0.13804 0.18546 0.0
C690 C 0.69969 0.14343 0.18026 0.0
C691 C 0.71168 0.14293 0.14291 0.0
C692 C 0.66083 0.12666 0.00456 0.0
C693 C 0.68091 0.13364 0.09243 0.0
C694 C 0.6452 0.11626 0.98011 0.0
C695 C 0.63296 0.10435 0.01847 0.0
C696 C 0.66399 0.12535 0.06794 0.0
C697 C 0.63637 0.10401 0.08224 0.0
C698 C 0.68419 0.13858 0.15533 0.0
C699 C 0.70819 0.13876 0.07946 0.0
N700 N 0.65162 0.11431 0.10504 0.0
N701 N 0.69307 0.13419 0.05616 0.0
H702 H 0.86124 0.55576 0.23455 0.0
H703 H 0.91469 0.53181 0.11551 0.0
H704 H 0.87298 0.58065 0.05628 0.0
H705 H 0.89025 0.52642 0.9389 0.0
H706 H 0.89702 0.54098 0.16358 0.0
H707 H 0.8695 0.53664 0.19264 0.0
C708 C 0.86515 0.55693 0.18617 0.0
C709 C 0.86664 0.56988 0.14891 0.0
C710 C 0.89517 0.53729 0.11481 0.0
C711 C 0.87601 0.54819 0.1011 0.0
C712 C 0.90528 0.53214 0.08738 0.0
C713 C 0.90382 0.52832 0.02338 0.0
C714 C 0.88391 0.53912 0.07738 0.0
C715 C 0.8916 0.52912 0.9886 0.0
C716 C 0.86996 0.54613 0.16257 0.0
C717 C 0.87185 0.57093 0.08665 0.0
N718 N 0.8824 0.5349 0.01566 0.0
N719 N 0.87641 0.56025 0.06469 0.0
H720 H 0.55404 0.70231 0.79068 0.0
H721 H 0.55023 0.62575 0.89413 0.0
H722 H 0.59101 0.70933 0.92654 0.0
H723 H 0.5212 0.63405 0.03013 0.0
H724 H 0.55984 0.65325 0.85199 0.0
H725 H 0.53657 0.67423 0.83102 0.0
C726 C 0.5583 0.69815 0.82992 0.0
C727 C 0.57406 0.70812 0.85498 0.0
C728 C 0.55104 0.64881 0.89003 0.0
C729 C 0.55427 0.67637 0.90066 0.0
C730 C 0.54557 0.63318 0.91423 0.0
C731 C 0.53497 0.62764 0.96602 0.0
C732 C 0.54591 0.65895 0.91775 0.0
C733 C 0.52937 0.63786 0.99016 0.0
C734 C 0.54836 0.68219 0.85264 0.0
C735 C 0.57901 0.70205 0.9055 0.0
N736 N 0.53518 0.65324 0.96656 0.0
N737 N 0.56926 0.68647 0.92603 0.0
H738 H 0.38326 0.91345 0.88492 0.0
H739 H 0.29164 0.86636 0.95498 0.0
H740 H 0.36742 0.89057 0.06597 0.0
H741 H 0.30816 0.85922 0.77557 0.0
H742 H 0.31905 0.8756 -0.00186 0.0
H743 H 0.35603 0.89433 0.84245 0.0
C744 C 0.37413 0.90415 0.91531 0.0
C745 C 0.37751 0.90354 0.97893 0.0
C746 C 0.31655 0.87161 0.94977 0.0
C747 C 0.34634 0.88209 0.93136 0.0
C748 C 0.30096 0.86636 0.92518 0.0
C749 C 0.29771 0.86202 0.8618 0.0
C750 C 0.32909 0.8731 0.91001 0.0
C751 C 0.31019 0.86236 0.82485 0.0
C752 C 0.35865 0.89324 0.89109 0.0
C753 C 0.36528 0.89134 0.01655 0.0
N754 N 0.32551 0.86826 0.84907 0.0
N755 N 0.35005 0.88135 0.99258 0.0
H756 H 0.14288 0.44478 0.77404 0.0
H757 H 0.11505 0.47598 0.07195 0.0
H758 H 0.13433 0.42139 0.95467 0.0
H759 H 0.0919 0.46901 0.89136 0.0
H760 H 0.13268 0.46606 0.02814 0.0
H761 H 0.13462 0.46378 0.81751 0.0
C762 C 0.13979 0.44401 0.8233 0.0
C763 C 0.13918 0.43151 0.86095 0.0
C764 C 0.12404 0.46717 -0.00209 0.0
C765 C 0.13007 0.45319 0.91064 0.0
C766 C 0.11409 0.47291 0.0226 0.0
C767 C 0.102 0.47321 0.98509 0.0
C768 C 0.12213 0.46217 0.93505 0.0
C769 C 0.10104 0.46886 0.92173 0.0
C770 C 0.13501 0.45475 0.84781 0.0
C771 C 0.13486 0.43084 0.9242 0.0
N772 N 0.11095 0.46345 0.89862 0.0
N773 N 0.13041 0.44151 0.94714 0.0
H774 H 0.11528 0.63917 0.57222 0.0
H775 H 0.14419 0.69777 0.27312 0.0
H776 H 0.09228 0.62286 0.39146 0.0
H777 H 0.1357 0.71324 0.45256 0.0
H778 H 0.13528 0.67045 0.31738 0.0
H779 H 0.13303 0.66665 0.5281 0.0
C780 C 0.11437 0.64124 0.5228 0.0
C781 C 0.10231 0.62883 0.48529 0.0
C782 C 0.1358 0.68001 0.34724 0.0
C783 C 0.12257 0.65992 0.43489 0.0
C784 C 0.14096 0.69556 0.32229 0.0
C785 C 0.14058 0.70767 0.35936 0.0
C786 C 0.13072 0.67679 0.40997 0.0
C787 C 0.13607 0.70416 0.42252 0.0
C788 C 0.12438 0.65689 0.49793 0.0
C789 C 0.10141 0.63217 0.42182 0.0
N790 N 0.13127 0.689 0.44592 0.0
N791 N 0.11139 0.64744 0.39853 0.0
H792 H 0.37974 0.46911 0.38648 0.0
H793 H 0.2883 0.4237 0.45869 0.0
H794 H 0.36404 0.47567 0.56857 0.0
H795 H 0.30441 0.44734 0.27909 0.0
H796 H 0.31563 0.44223 0.50163 0.0
H797 H 0.3524 0.46084 0.34488 0.0
C798 C 0.37061 0.46913 0.41731 0.0
C799 C 0.37407 0.47304 0.48093 0.0
C800 C 0.31305 0.44365 0.45328 0.0
C801 C 0.34277 0.46315 0.43433 0.0
C802 C 0.2975 0.4331 0.42882 0.0
C803 C 0.29417 0.43407 0.36541 0.0
C804 C 0.32548 0.45478 0.41336 0.0
C805 C 0.30651 0.44633 0.32838 0.0
C806 C 0.35507 0.46448 0.39357 0.0
C807 C 0.36184 0.47282 0.51912 0.0
N808 N 0.3218 0.45594 0.35245 0.0
N809 N 0.34655 0.46751 0.49561 0.0
H810 H 0.52873 0.89188 0.5623 0.0
H811 H 0.55735 0.8629 0.25998 0.0
H812 H 0.53751 0.91651 0.38421 0.0
H813 H 0.57966 0.86815 0.44135 0.0
H814 H 0.53972 0.8727 0.30498 0.0
H815 H 0.53713 0.87325 0.51626 0.0
C816 C 0.53191 0.89301 0.51305 0.0
C817 C 0.53255 0.90575 0.4769 0.0
C818 C 0.54818 0.87125 0.33505 0.0
C819 C 0.54184 0.88449 0.42428 0.0
C820 C 0.55813 0.86558 0.30966 0.0
C821 C 0.56996 0.86481 0.34716 0.0
C822 C 0.54984 0.8757 0.39854 0.0
C823 C 0.57071 0.86866 0.411 0.0
C824 C 0.53677 0.88248 0.48707 0.0
C825 C 0.53697 0.90687 0.41358 0.0
N826 N 0.56081 0.874 0.43476 0.0
N827 N 0.5415 0.8964 0.3892 0.0
H828 H 0.25264 0.15516 0.76035 0.0
H829 H 0.29235 0.10306 0.87051 0.0
H830 H 0.2849 0.14583 0.64604 0.0
H831 H 0.2506 0.10021 0.96547 0.0
H832 H 0.28724 0.11618 0.78177 0.0
H833 H 0.24896 0.13285 0.83074 0.0
C834 C 0.25869 0.14825 0.74953 0.0
C835 C 0.26945 0.15262 0.69848 0.0
C836 C 0.27895 0.11243 0.82136 0.0
C837 C 0.26533 0.12728 0.77796 0.0
C838 C 0.28189 0.10492 0.8719 0.0
C839 C 0.27195 0.1007 0.92518 0.0
C840 C 0.26629 0.1162 0.82494 0.0
C841 C 0.25852 0.1033 0.92491 0.0
C842 C 0.25659 0.13554 0.78954 0.0
C843 C 0.27688 0.1432 0.68603 0.0
N844 N 0.25627 0.11126 0.87605 0.0
N845 N 0.27486 0.13115 0.72587 0.0
H846 H 0.84482 0.09984 0.75852 0.0
H847 H 0.89717 0.19285 0.8732 0.0
H848 H 0.8442 0.1412 0.6742 0.0
H849 H 0.89819 0.15312 0.96964 0.0
H850 H 0.88164 0.17416 0.78856 0.0
H851 H 0.86753 0.11899 0.82666 0.0
C852 C 0.84952 0.1129 0.75402 0.0
C853 C 0.84236 0.11891 0.71167 0.0
C854 C 0.88539 0.16948 0.82773 0.0
C855 C 0.86831 0.14075 0.78824 0.0
C856 C 0.89433 0.1802 0.87593 0.0
C857 C 0.89877 0.17445 0.92866 0.0
C858 C 0.88051 0.15277 0.83279 0.0
C859 C 0.89494 0.158 0.92966 0.0
C860 C 0.86247 0.1238 0.79274 0.0
C861 C 0.84903 0.13594 0.70722 0.0
N862 N 0.88572 0.1476 0.88292 0.0
N863 N 0.8615 0.14618 0.74514 0.0
H864 H 0.90469 0.74823 0.75191 0.0
H865 H 0.84818 0.74948 0.96374 0.0
H866 H 0.86336 0.70317 0.68551 0.0
H867 H 0.81492 0.70147 0.88914 0.0
H868 H 0.8678 0.75338 0.88132 0.0
H869 H 0.88638 0.7517 0.82353 0.0
C870 C 0.89176 0.73915 0.75208 0.0
C871 C 0.88564 0.72524 0.71342 0.0
C872 C 0.85624 0.742 0.8826 0.0
C873 C 0.86444 0.72921 0.79439 0.0
C874 C 0.84491 0.73986 0.92939 0.0
C875 C 0.83001 0.725 0.93399 0.0
C876 C 0.85256 0.72915 0.84026 0.0
C877 C 0.82638 0.713 0.88817 0.0
C878 C 0.88122 0.74116 0.79287 0.0
C879 C 0.86876 0.71393 0.71524 0.0
N880 N 0.83761 0.71529 0.84379 0.0
N881 N 0.85886 0.71613 0.75512 0.0
H882 H 0.16039 0.26078 0.73327 0.0
H883 H 0.10756 0.30054 0.61278 0.0
H884 H 0.16237 0.30432 0.80827 0.0
H885 H 0.10677 0.25954 0.51939 0.0
H886 H 0.12386 0.29835 0.69667 0.0
H887 H 0.13772 0.25694 0.66431 0.0
C888 C 0.15603 0.26945 0.73547 0.0
C889 C 0.16351 0.28307 0.77571 0.0
C890 C 0.12001 0.28967 0.65832 0.0
C891 C 0.13758 0.27863 0.69824 0.0
C892 C 0.11064 0.2909 0.61055 0.0
C893 C 0.10602 0.28035 0.55887 0.0
C894 C 0.12512 0.278 0.65396 0.0
C895 C 0.11015 0.26793 0.55855 0.0
C896 C 0.1431 0.26724 0.69629 0.0
C897 C 0.15728 0.29384 0.77713 0.0
N898 N 0.11976 0.26727 0.60491 0.0
N899 N 0.14479 0.29142 0.73894 0.0
H900 H 0.74695 0.84932 0.51839 0.0
H901 H 0.70434 0.86111 0.82148 0.0
H902 H 0.70325 0.8113 0.60702 0.0
H903 H 0.74398 0.9019 0.72471 0.0
H904 H 0.70777 0.8423 0.75439 0.0
H905 H 0.74997 0.86804 0.60424 0.0
C906 C 0.73824 0.8448 0.55668 0.0
C907 C 0.7247 0.82882 0.55535 0.0
C908 C 0.7158 0.85534 0.74765 0.0
C909 C 0.72801 0.85009 0.65286 0.0
C910 C 0.71379 0.86613 0.78586 0.0
C911 C 0.72363 0.88313 0.77766 0.0
C912 C 0.72762 0.86147 0.69997 0.0
C913 C 0.736 0.88888 0.73198 0.0
C914 C 0.7399 0.85552 0.6053 0.0
C915 C 0.71373 0.8236 0.6058 0.0
N916 N 0.7375 0.87804 0.69402 0.0
N917 N 0.71555 0.83423 0.6521 0.0
H918 H 0.15531 0.89746 0.5339 0.0
H919 H 0.14195 0.84429 0.84222 0.0
H920 H 0.19256 0.89113 0.62618 0.0
H921 H 0.10163 0.84244 0.73889 0.0
H922 H 0.1611 0.8663 0.77501 0.0
H923 H 0.13625 0.8823 0.61956 0.0
C924 C 0.1596 0.89325 0.57296 0.0
C925 C 0.17546 0.89535 0.57278 0.0
C926 C 0.14808 0.86118 0.76687 0.0
C927 C 0.1538 0.87803 0.67008 0.0
C928 C 0.13711 0.84853 0.80515 0.0
C929 C 0.12016 0.84124 0.7951 0.0
C930 C 0.14218 0.86656 0.71728 0.0
C931 C 0.11462 0.8476 0.7476 0.0
C932 C 0.14868 0.88451 0.62146 0.0
C933 C 0.18037 0.88958 0.62413 0.0
N934 N 0.12565 0.85978 0.7096 0.0
N935 N 0.16955 0.88109 0.67034 0.0
H936 H 0.70308 0.89544 0.10995 0.0
H937 H 0.74605 0.8457 0.22822 0.0
H938 H 0.74536 0.8986 0.0181 0.0
H939 H 0.70402 0.8446 0.31424 0.0
H940 H 0.74905 0.86811 0.15982 0.0
H941 H 0.70662 0.88043 0.19563 0.0
C942 C 0.71327 0.89316 0.10842 0.0
C943 C 0.7238 0.89804 0.05667 0.0
C944 C 0.73929 0.86302 0.1942 0.0
C945 C 0.72773 0.88045 0.15377 0.0
C946 C 0.73757 0.85025 0.23306 0.0
C947 C 0.72453 0.84302 0.27588 0.0
C948 C 0.72797 0.8686 0.1989 0.0
C949 C 0.71399 0.84948 0.2808 0.0
C950 C 0.71529 0.88455 0.15725 0.0
C951 C 0.73695 0.89498 0.05725 0.0
N952 N 0.71589 0.86177 0.24259 0.0
N953 N 0.73836 0.88606 0.10454 0.0
H954 H 0.10439 0.84799 0.03416 0.0
H955 H 0.15742 0.8585 0.34024 0.0
H956 H 0.10785 0.80912 0.1268 0.0
H957 H 0.16025 0.89978 0.24103 0.0
H958 H 0.13486 0.84004 0.27344 0.0
H959 H 0.12019 0.86663 0.12012 0.0
C960 C 0.1081 0.84328 0.07338 0.0
C961 C 0.10503 0.82708 0.07318 0.0
C962 C 0.14031 0.85311 0.26611 0.0
C963 C 0.1231 0.84823 0.17076 0.0
C964 C 0.15329 0.8637 0.30414 0.0
C965 C 0.161 0.88071 0.29517 0.0
C966 C 0.13503 0.85948 0.2178 0.0
C967 C 0.15477 0.88672 0.2489 0.0
C968 C 0.11721 0.85394 0.12206 0.0
C969 C 0.11017 0.82159 0.12475 0.0
N970 N 0.14226 0.87608 0.21109 0.0
N971 N 0.11906 0.83218 0.17107 0.0
H972 H 0.19342 0.30325 0.11325 0.0
H973 H 0.10031 0.25927 0.23012 0.0
H974 H 0.15467 0.26131 0.01832 0.0
H975 H 0.14074 0.30254 0.31219 0.0
H976 H 0.11993 0.2568 0.16088 0.0
H977 H 0.17443 0.29972 0.1971 0.0
C978 C 0.18092 0.29313 0.11063 0.0
C979 C 0.17553 0.28268 0.0586 0.0
C980 C 0.12444 0.26673 0.1945 0.0
C981 C 0.15349 0.27878 0.15364 0.0
C982 C 0.11326 0.26815 0.23384 0.0
C983 C 0.11885 0.28133 0.27602 0.0
C984 C 0.14124 0.27846 0.19821 0.0
C985 C 0.13577 0.2924 0.27941 0.0
C986 C 0.17003 0.29113 0.15839 0.0
C987 C 0.15926 0.26965 0.05777 0.0
N988 N 0.14627 0.29075 0.24097 0.0
N989 N 0.14868 0.26823 0.10412 0.0
H990 H 0.84554 0.74769 0.25967 0.0
H991 H 0.89864 0.70767 0.37199 0.0
H992 H 0.84519 0.70589 0.17491 0.0
H993 H 0.89891 0.74776 0.47069 0.0
H994 H 0.88316 0.71094 0.28743 0.0
H995 H 0.86842 0.75146 0.32725 0.0
C996 C 0.85033 0.73942 0.25497 0.0
C997 C 0.8432 0.72624 0.2127 0.0
C998 C 0.88674 0.7192 0.32708 0.0
C999 C 0.86935 0.73058 0.28854 0.0
C1000 C 0.89565 0.71736 0.37521 0.0
C1001 C 0.89984 0.72732 0.42853 0.0
C1002 C 0.88163 0.73085 0.33283 0.0
C1003 C 0.89584 0.73981 0.43022 0.0
C1004 C 0.86338 0.74158 0.29335 0.0
C1005 C 0.84999 0.71598 0.20792 0.0
N1006 N 0.88663 0.74103 0.38354 0.0
N1007 N 0.86255 0.71832 0.2455 0.0
H1008 H 0.27974 0.13695 0.13752 0.0
H1009 H 0.24835 0.14911 0.46868 0.0
H1010 H 0.25266 0.09704 0.26627 0.0
H1011 H 0.28853 0.18686 0.36306 0.0
H1012 H 0.24238 0.13002 0.38084 0.0
H1013 H 0.27489 0.15494 0.20494 0.0
C1014 C 0.27258 0.13193 0.17983 0.0
C1015 C 0.26696 0.11564 0.19745 0.0
C1016 C 0.25223 0.1426 0.3765 0.0
C1017 C 0.26154 0.13622 0.27515 0.0
C1018 C 0.25557 0.1535 0.42622 0.0
C1019 C 0.26906 0.16947 0.423 0.0
C1020 C 0.26232 0.14789 0.32326 0.0
C1021 C 0.27814 0.17457 0.36746 0.0
C1022 C 0.2698 0.1422 0.21817 0.0
C1023 C 0.25738 0.10962 0.25169 0.0
N1024 N 0.27468 0.16377 0.31995 0.0
N1025 N 0.25524 0.12005 0.28961 0.0
H1026 H 0.84864 0.10339 0.46662 0.0
H1027 H 0.86133 0.15877 0.16553 0.0
H1028 H 0.81131 0.11082 0.38121 0.0
H1029 H 0.90172 0.15841 0.25992 0.0
H1030 H 0.84228 0.1369 0.23334 0.0
H1031 H 0.8674 0.11901 0.38082 0.0
C1032 C 0.84428 0.10797 0.42908 0.0
C1033 C 0.82848 0.10601 0.43129 0.0
C1034 C 0.85529 0.14151 0.23941 0.0
C1035 C 0.8498 0.12387 0.33382 0.0
C1036 C 0.86622 0.15409 0.20078 0.0
C1037 C 0.88319 0.16072 0.20804 0.0
C1038 C 0.86125 0.13549 0.28654 0.0
C1039 C 0.88873 0.15378 0.25332 0.0
C1040 C 0.85502 0.11698 0.38049 0.0
C1041 C 0.82346 0.11225 0.38178 0.0
N1042 N 0.87777 0.14166 0.29166 0.0
N1043 N 0.83411 0.12099 0.33546 0.0
H1044 H 0.92251 0.43504 0.29758 0.0
H1045 H 0.9635 0.48736 0.98881 0.0
H1046 H 0.96574 0.4401 0.20694 0.0
H1047 H 0.92567 0.49049 0.0914 0.0
H1048 H 0.95987 0.46504 0.05609 0.0
H1049 H 0.91903 0.45016 0.21066 0.0
C1050 C 0.931 0.43895 0.25859 0.0
C1051 C 0.94456 0.43653 0.25962 0.0
C1052 C 0.95227 0.47051 0.06398 0.0
C1053 C 0.94073 0.45382 0.16091 0.0
C1054 C 0.95439 0.48333 0.02568 0.0
C1055 C 0.94515 0.49108 0.03555 0.0
C1056 C 0.94097 0.46541 0.11338 0.0
C1057 C 0.93319 0.48498 0.08281 0.0
C1058 C 0.92908 0.44767 0.20936 0.0
C1059 C 0.95525 0.44191 0.20832 0.0
N1060 N 0.9316 0.47263 0.12082 0.0
N1061 N 0.95319 0.45041 0.16141 0.0
H1062 H 0.57009 0.52851 0.20278 0.0
H1063 H 0.51872 0.43686 0.07922 0.0
H1064 H 0.57292 0.48868 0.2898 0.0
H1065 H 0.52258 0.47914 0.98423 0.0
H1066 H 0.54093 0.4554 0.1501 0.0
H1067 H 0.55562 0.51075 0.11437 0.0
C1068 C 0.56793 0.51607 0.20249 0.0
C1069 C 0.57256 0.50998 0.25361 0.0
C1070 C 0.537 0.46056 0.11317 0.0
C1071 C 0.5555 0.48933 0.15362 0.0
C1072 C 0.52432 0.44999 0.07287 0.0
C1073 C 0.51851 0.45645 0.02671 0.0
C1074 C 0.54387 0.47762 0.10685 0.0
C1075 C 0.52632 0.47356 0.02011 0.0
C1076 C 0.55961 0.50588 0.15216 0.0
C1077 C 0.56954 0.49381 0.25102 0.0
N1078 N 0.53844 0.48349 0.05997 0.0
N1079 N 0.56087 0.48389 0.20237 0.0
H1080 H 0.53271 0.04606 0.99219 0.0
H1081 H 0.52103 0.08336 0.30993 0.0
H1082 H 0.57354 0.081 0.10369 0.0
H1083 H 0.48222 0.04433 0.20338 0.0
H1084 H 0.54021 0.08776 0.22408 0.0
H1085 H 0.51418 0.05046 0.05755 0.0
C1086 C 0.53778 0.05472 0.03059 0.0
C1087 C 0.55463 0.06288 0.04361 0.0
C1088 C 0.52742 0.07849 0.21902 0.0
C1089 C 0.53336 0.06789 0.11946 0.0
C1090 C 0.51646 0.07608 0.26766 0.0
C1091 C 0.50011 0.06332 0.2638 0.0
C1092 C 0.52186 0.06814 0.16637 0.0
C1093 C 0.4948 0.05414 0.20845 0.0
C1094 C 0.52718 0.05729 0.06781 0.0
C1095 C 0.56058 0.07432 0.09274 0.0
N1096 N 0.50567 0.05661 0.16228 0.0
N1097 N 0.54988 0.07628 0.12984 0.0
H1098 H 0.77957 0.63509 0.95688 0.0
H1099 H 0.81941 0.62096 0.19294 0.0
H1100 H 0.77449 0.592 0.86496 0.0
H1101 H 0.8328 0.59756 0.04965 0.0
H1102 H 0.79676 0.61781 0.12778 0.0
H1103 H 0.79351 0.63049 0.0434 0.0
C1104 C 0.78103 0.62439 0.95581 0.0
C1105 C 0.77593 0.61395 0.90371 0.0
C1106 C 0.80466 0.61343 0.11014 0.0
C1107 C 0.79185 0.60841 0.0032 0.0
C1108 C 0.81748 0.61508 0.14759 0.0
C1109 C 0.82813 0.60984 0.12576 0.0
C1110 C 0.80278 0.60696 0.04949 0.0
C1111 C 0.82491 0.60192 0.06759 0.0
C1112 C 0.78889 0.62164 0.00563 0.0
C1113 C 0.77818 0.60029 0.90455 0.0
N1114 N 0.81264 0.60098 0.0307 0.0
N1115 N 0.78631 0.5981 0.95299 0.0
H1116 H 0.36764 0.17965 0.75734 0.0
H1117 H 0.41466 0.2366 0.04952 0.0
H1118 H 0.4113 0.18276 0.83654 0.0
H1119 H 0.36946 0.22998 0.97157 0.0
H1120 H 0.41712 0.22155 0.96013 0.0
H1121 H 0.37148 0.20227 0.82359 0.0
C1122 C 0.3781 0.18515 0.78864 0.0
C1123 C 0.38899 0.17909 0.79223 0.0
C1124 C 0.40686 0.2237 0.96199 0.0
C1125 C 0.39344 0.20509 0.86904 0.0
C1126 C 0.40552 0.23242 0.01267 0.0
C1127 C 0.39171 0.23433 0.01827 0.0
C1128 C 0.39432 0.21698 0.91677 0.0
C1129 C 0.38018 0.22858 0.96951 0.0
C1130 C 0.38034 0.19814 0.82639 0.0
C1131 C 0.40253 0.18696 0.83271 0.0
N1132 N 0.38165 0.22001 0.92132 0.0
N1133 N 0.40424 0.19942 0.87037 0.0
H1134 H 0.82433 0.23289 0.85983 0.0
H1135 H 0.81182 0.17853 0.16367 0.0
H1136 H 0.86202 0.22676 0.9493 0.0
H1137 H 0.77135 0.17804 0.06655 0.0
H1138 H 0.83086 0.20066 0.09666 0.0
H1139 H 0.80554 0.21749 0.9458 0.0
C1140 C 0.82877 0.22866 0.89831 0.0
C1141 C 0.84467 0.23088 0.89718 0.0
C1142 C 0.81784 0.19582 0.08985 0.0
C1143 C 0.82332 0.21327 0.99486 0.0
C1144 C 0.80692 0.18309 0.12801 0.0
C1145 C 0.78995 0.17615 0.11966 0.0
C1146 C 0.81184 0.20163 0.04205 0.0
C1147 C 0.78435 0.18292 0.07394 0.0
C1148 C 0.81801 0.21978 0.94702 0.0
C1149 C 0.84979 0.2251 0.9479 0.0
N1150 N 0.7953 0.19516 0.036 0.0
N1151 N 0.83911 0.21645 0.99428 0.0
H1152 H 0.41205 0.23116 0.33326 0.0
H1153 H 0.36928 0.14031 0.47146 0.0
H1154 H 0.36644 0.19043 0.26763 0.0
H1155 H 0.41356 0.18016 0.5496 0.0
H1156 H 0.37154 0.15767 0.38308 0.0
H1157 H 0.41582 0.21218 0.40105 0.0
C1158 C 0.40294 0.21824 0.33258 0.0
C1159 C 0.38877 0.21243 0.29548 0.0
C1160 C 0.38095 0.16261 0.41892 0.0
C1161 C 0.39306 0.19071 0.37223 0.0
C1162 C 0.3797 0.15264 0.46922 0.0
C1163 C 0.39114 0.15887 0.51818 0.0
C1164 C 0.39357 0.17908 0.418 0.0
C1165 C 0.40447 0.1749 0.51275 0.0
C1166 C 0.4051 0.20742 0.37121 0.0
C1167 C 0.3774 0.19556 0.29623 0.0
N1168 N 0.40514 0.1846 0.46416 0.0
N1169 N 0.37976 0.18537 0.33417 0.0
H1170 H 0.82777 0.23522 0.57184 0.0
H1171 H 0.77774 0.14272 0.44998 0.0
H1172 H 0.83017 0.19429 0.65121 0.0
H1173 H 0.77448 0.18209 0.3607 0.0
H1174 H 0.79332 0.16118 0.53513 0.0
H1175 H 0.80527 0.21594 0.50342 0.0
C1176 C 0.82352 0.22223 0.57517 0.0
C1177 C 0.83111 0.21641 0.61629 0.0
C1178 C 0.78906 0.16581 0.49743 0.0
C1179 C 0.80538 0.19439 0.53929 0.0
C1180 C 0.78011 0.15523 0.44892 0.0
C1181 C 0.77503 0.16096 0.39798 0.0
C1182 C 0.79328 0.18238 0.49451 0.0
C1183 C 0.77824 0.17722 0.3992 0.0
C1184 C 0.81068 0.21124 0.5363 0.0
C1185 C 0.825 0.19943 0.61922 0.0
N1186 N 0.78747 0.1875 0.44618 0.0
N1187 N 0.81262 0.18911 0.58113 0.0
H1188 H 0.81524 0.63579 0.66662 0.0
H1189 H 0.82643 0.59172 0.36682 0.0
H1190 H 0.77446 0.59494 0.57438 0.0
H1191 H 0.86406 0.63713 0.44703 0.0
H1192 H 0.80829 0.58884 0.45455 0.0
H1193 H 0.83403 0.63248 0.59886 0.0
C1194 C 0.81021 0.62609 0.63193 0.0
C1195 C 0.7932 0.61586 0.62514 0.0
C1196 C 0.82062 0.59927 0.45339 0.0
C1197 C 0.81482 0.61202 0.5468 0.0
C1198 C 0.83101 0.60086 0.40371 0.0
C1199 C 0.84668 0.6148 0.39943 0.0
C1200 C 0.82606 0.61165 0.49904 0.0
C1201 C 0.85199 0.62631 0.44812 0.0
C1202 C 0.82099 0.62416 0.59335 0.0
C1203 C 0.78747 0.60321 0.58057 0.0
N1204 N 0.84166 0.62454 0.49552 0.0
N1205 N 0.79828 0.60179 0.54229 0.0
H1206 H 0.56515 0.03738 0.71826 0.0
H1207 H 0.51538 0.07947 0.59045 0.0
H1208 H 0.56898 0.0808 0.80248 0.0
H1209 H 0.51409 0.03673 0.51017 0.0
H1210 H 0.53759 0.08275 0.66049 0.0
H1211 H 0.54966 0.03992 0.63193 0.0
C1212 C 0.56294 0.04763 0.7179 0.0
C1213 C 0.56816 0.05879 0.76773 0.0
C1214 C 0.53249 0.07276 0.62707 0.0
C1215 C 0.55 0.06156 0.66992 0.0
C1216 C 0.5198 0.07086 0.58727 0.0
C1217 C 0.51262 0.05762 0.54524 0.0
C1218 C 0.53803 0.06139 0.62429 0.0
C1219 C 0.51895 0.04693 0.54266 0.0
C1220 C 0.55403 0.04906 0.66873 0.0
C1221 C 0.56512 0.07193 0.76481 0.0
N1222 N 0.53116 0.049 0.58177 0.0
N1223 N 0.55594 0.07279 0.71722 0.0
H1224 H 0.96157 0.47407 0.48684 0.0
H1225 H 0.92229 0.4859 0.79945 0.0
H1226 H 0.9251 0.43327 0.59414 0.0
H1227 H 0.96433 0.52412 0.70324 0.0
H1228 H 0.91838 0.46704 0.71298 0.0
H1229 H 0.95779 0.49279 0.55343 0.0
C1230 C 0.95272 0.46904 0.52458 0.0
C1231 C 0.94393 0.45211 0.53603 0.0
C1232 C 0.92825 0.47964 0.71035 0.0
C1233 C 0.93959 0.47361 0.61313 0.0
C1234 C 0.93041 0.49044 0.75932 0.0
C1235 C 0.94378 0.50651 0.75863 0.0
C1236 C 0.93947 0.48509 0.66044 0.0
C1237 C 0.954 0.51175 0.70593 0.0
C1238 C 0.95051 0.47976 0.5625 0.0
C1239 C 0.93227 0.44627 0.58436 0.0
N1240 N 0.95171 0.50104 0.65931 0.0
N1241 N 0.93062 0.45706 0.62203 0.0
H1242 H 0.53643 0.48197 0.46839 0.0
H1243 H 0.52449 0.43727 0.79654 0.0
H1244 H 0.57666 0.49248 0.59263 0.0
H1245 H 0.48596 0.4367 0.68535 0.0
H1246 H 0.54374 0.45082 0.70967 0.0
H1247 H 0.51828 0.45878 0.53385 0.0
C1248 C 0.54146 0.47927 0.5094 0.0
C1249 C 0.55793 0.48936 0.5262 0.0
C1250 C 0.53098 0.44734 0.70383 0.0
C1251 C 0.53715 0.46293 0.60204 0.0
C1252 C 0.51998 0.4395 0.75305 0.0
C1253 C 0.5037 0.43609 0.74805 0.0
C1254 C 0.52553 0.45157 0.64944 0.0
C1255 C 0.49847 0.43933 0.69118 0.0
C1256 C 0.5311 0.466 0.54668 0.0
C1257 C 0.56395 0.48508 0.57872 0.0
N1258 N 0.50939 0.44705 0.64438 0.0
N1259 N 0.55344 0.47233 0.61577 0.0
H1260 H 0.59128 0.8273 0.42866 0.0
H1261 H 0.62849 0.77114 0.53201 0.0
H1262 H 0.62915 0.82315 0.33084 0.0
H1263 H 0.59154 0.77433 0.64017 0.0
H1264 H 0.62433 0.78592 0.447 0.0
H1265 H 0.58719 0.80446 0.49718 0.0
C1266 C 0.59858 0.82149 0.42122 0.0
C1267 C 0.61085 0.82737 0.3751 0.0
C1268 C 0.61691 0.78323 0.48881 0.0
C1269 C 0.60613 0.80129 0.45207 0.0
C1270 C 0.61924 0.77471 0.53717 0.0
C1271 C 0.61045 0.77169 0.59312 0.0
C1272 C 0.606 0.7892 0.49702 0.0
C1273 C 0.59855 0.77646 0.59752 0.0
C1274 C 0.59624 0.80848 0.46016 0.0
C1275 C 0.61986 0.81932 0.36689 0.0
N1276 N 0.59689 0.78532 0.55053 0.0
N1277 N 0.61739 0.80684 0.40514 0.0
H1278 H 0.23351 0.81901 0.64696 0.0
H1279 H 0.18116 0.80842 0.33865 0.0
H1280 H 0.23091 0.85796 0.55113 0.0
H1281 H 0.17745 0.76707 0.44022 0.0
H1282 H 0.20369 0.8268 0.40562 0.0
H1283 H 0.21754 0.80017 0.56167 0.0
C1284 C 0.22996 0.82368 0.60717 0.0
C1285 C 0.23333 0.83999 0.60622 0.0
C1286 C 0.19806 0.81373 0.41347 0.0
C1287 C 0.21507 0.81862 0.50943 0.0
C1288 C 0.18509 0.80319 0.37533 0.0
C1289 C 0.17714 0.78618 0.38487 0.0
C1290 C 0.2031 0.80734 0.46249 0.0
C1291 C 0.18313 0.78012 0.43189 0.0
C1292 C 0.22075 0.81291 0.55888 0.0
C1293 C 0.22837 0.84543 0.55401 0.0
N1294 N 0.19563 0.79074 0.4698 0.0
N1295 N 0.21939 0.83474 0.50809 0.0
H1296 H 0.14186 0.36575 0.5586 0.0
H1297 H 0.23449 0.41052 0.43721 0.0
H1298 H 0.18041 0.40889 0.64842 0.0
H1299 H 0.19418 0.36691 0.35647 0.0
H1300 H 0.21486 0.41294 0.50639 0.0
H1301 H 0.16058 0.36914 0.47394 0.0
C1302 C 0.15425 0.37609 0.55993 0.0
C1303 C 0.15968 0.38693 0.61082 0.0
C1304 C 0.21038 0.40294 0.47306 0.0
C1305 C 0.18142 0.39071 0.51477 0.0
C1306 C 0.22156 0.40155 0.43375 0.0
C1307 C 0.21603 0.38829 0.392 0.0
C1308 C 0.19362 0.39108 0.46985 0.0
C1309 C 0.19912 0.37711 0.38892 0.0
C1310 C 0.16499 0.37803 0.51167 0.0
C1311 C 0.17579 0.40025 0.60994 0.0
N1312 N 0.18861 0.37872 0.42743 0.0
N1313 N 0.18624 0.40161 0.56315 0.0
H1314 H 0.49513 0.92735 0.40795 0.0
H1315 H 0.44447 0.96897 0.2837 0.0
H1316 H 0.49732 0.9708 0.48505 0.0
H1317 H 0.44165 0.92643 0.19549 0.0
H1318 H 0.46012 0.96636 0.36926 0.0
H1319 H 0.47254 0.92381 0.33927 0.0
C1320 C 0.49082 0.93605 0.41073 0.0
C1321 C 0.49837 0.94958 0.45135 0.0
C1322 C 0.45594 0.95742 0.33175 0.0
C1323 C 0.47254 0.9455 0.37405 0.0
C1324 C 0.44693 0.95889 0.28305 0.0
C1325 C 0.44194 0.94801 0.2323 0.0
C1326 C 0.46033 0.94519 0.32918 0.0
C1327 C 0.4453 0.93507 0.23391 0.0
C1328 C 0.47793 0.93401 0.3717 0.0
C1329 C 0.49219 0.96039 0.45352 0.0
N1330 N 0.45459 0.93419 0.28105 0.0
N1331 N 0.47976 0.95816 0.41532 0.0
H1332 H 0.08064 0.56929 0.41004 0.0
H1333 H 0.03961 0.47637 0.29633 0.0
H1334 H 0.04032 0.52786 0.50138 0.0
H1335 H 0.08076 0.51584 0.20082 0.0
H1336 H 0.04319 0.49498 0.38184 0.0
H1337 H 0.08404 0.55013 0.34152 0.0
C1338 C 0.07264 0.55621 0.41604 0.0
C1339 C 0.05993 0.55017 0.46037 0.0
C1340 C 0.05163 0.49961 0.34272 0.0
C1341 C 0.06383 0.52831 0.38326 0.0
C1342 C 0.0496 0.48894 0.29401 0.0
C1343 C 0.05978 0.49465 0.24133 0.0
C1344 C 0.06371 0.51626 0.33815 0.0
C1345 C 0.07263 0.511 0.24078 0.0
C1346 C 0.07458 0.5453 0.3771 0.0
C1347 C 0.05001 0.53312 0.46674 0.0
N1348 N 0.07405 0.52137 0.28797 0.0
N1349 N 0.0521 0.52286 0.42844 0.0
H1350 H 0.47389 0.51841 0.51004 0.0
H1351 H 0.48669 0.56454 0.18401 0.0
H1352 H 0.43363 0.50912 0.38794 0.0
H1353 H 0.52494 0.56454 0.29523 0.0
H1354 H 0.4671 0.55011 0.2692 0.0
H1355 H 0.49235 0.5412 0.44375 0.0
C1356 C 0.46894 0.52127 0.4692 0.0
C1357 C 0.45232 0.51166 0.45342 0.0
C1358 C 0.47985 0.5536 0.27535 0.0
C1359 C 0.47348 0.53767 0.37653 0.0
C1360 C 0.49104 0.56193 0.22709 0.0
C1361 C 0.50737 0.56552 0.23261 0.0
C1362 C 0.48517 0.54907 0.32935 0.0
C1363 C 0.5124 0.56179 0.28894 0.0
C1364 C 0.47948 0.53432 0.43142 0.0
C1365 C 0.44643 0.51616 0.40109 0.0
N1366 N 0.50132 0.55365 0.33482 0.0
N1367 N 0.45711 0.5287 0.36355 0.0
H1368 H 0.08193 0.56585 0.7008 0.0
H1369 H 0.04142 0.51355 0.01028 0.0
H1370 H 0.03893 0.56088 0.79311 0.0
H1371 H 0.07902 0.51025 0.90676 0.0
H1372 H 0.0449 0.53577 0.94276 0.0
H1373 H 0.08542 0.5505 0.78689 0.0
C1374 C 0.07349 0.56191 0.73996 0.0
C1375 C 0.06 0.56444 0.73967 0.0
C1376 C 0.05248 0.53029 0.93467 0.0
C1377 C 0.06385 0.54691 0.83746 0.0
C1378 C 0.05045 0.51752 0.97313 0.0
C1379 C 0.05967 0.50976 0.96311 0.0
C1380 C 0.06368 0.53531 0.88491 0.0
C1381 C 0.07153 0.51579 0.91548 0.0
C1382 C 0.07541 0.55305 0.7887 0.0
C1383 C 0.04936 0.559 0.79115 0.0
N1384 N 0.07303 0.52808 0.87729 0.0
N1385 N 0.05144 0.55039 0.8376 0.0
H1386 H 0.49272 0.5261 -0.00366 0.0
H1387 H 0.43861 0.51551 0.69298 0.0
H1388 H 0.49491 0.56745 0.89979 0.0
H1389 H 0.44467 0.4773 0.7778 0.0
H1390 H 0.45461 0.53402 0.77906 0.0
H1391 H 0.47077 0.50769 0.92749 0.0
C1392 C 0.48862 0.53136 0.96037 0.0
C1393 C 0.49598 0.54841 0.95294 0.0
C1394 C 0.45217 0.5215 0.77925 0.0
C1395 C 0.47059 0.52714 0.87326 0.0
C1396 C 0.44293 0.5109 0.73058 0.0
C1397 C 0.44048 0.49492 0.72819 0.0
C1398 C 0.45878 0.51594 0.8258 0.0
C1399 C 0.44644 0.48958 0.77757 0.0
C1400 C 0.47597 0.52077 0.92114 0.0
C1401 C 0.48973 0.55439 0.9066 0.0
N1402 N 0.4554 0.50009 0.82398 0.0
N1403 N 0.47749 0.54375 0.86778 0.0
H1404 H 0.5296 0.97043 0.78507 0.0
H1405 H 0.47626 0.95667 0.0232 0.0
H1406 H 0.49175 0.92642 0.69731 0.0
H1407 H 0.43887 0.93158 0.88314 0.0
H1408 H 0.49583 0.95389 0.95728 0.0
H1409 H 0.51121 0.96619 0.87163 0.0
C1410 C 0.51749 0.95963 0.7849 0.0
C1411 C 0.51216 0.9488 0.73395 0.0
C1412 C 0.48342 0.9491 0.94043 0.0
C1413 C 0.49091 0.94365 0.83368 0.0
C1414 C 0.47221 0.95054 0.97833 0.0
C1415 C 0.4561 0.94469 0.95766 0.0
C1416 C 0.47863 0.9422 0.88043 0.0
C1417 C 0.45128 0.93642 0.90016 0.0
C1418 C 0.50699 0.95708 0.83478 0.0
C1419 C 0.49634 0.93501 0.73599 0.0
N1420 N 0.46263 0.93568 0.86278 0.0
N1421 N 0.48611 0.933 0.78454 0.0
H1422 H 0.17591 0.40957 0.93576 0.0
H1423 H 0.2287 0.36968 0.05552 0.0
H1424 H 0.1737 0.36589 0.861 0.0
H1425 H 0.22932 0.4105 0.14978 0.0
H1426 H 0.21254 0.37205 0.97141 0.0
H1427 H 0.19868 0.41343 0.00419 0.0
C1428 C 0.18024 0.40087 0.93349 0.0
C1429 C 0.17266 0.38721 0.89352 0.0
C1430 C 0.21633 0.38066 0.01 0.0
C1431 C 0.19872 0.39168 0.97038 0.0
C1432 C 0.22563 0.37934 0.05788 0.0
C1433 C 0.23014 0.38977 0.10991 0.0
C1434 C 0.21119 0.3923 0.01459 0.0
C1435 C 0.22602 0.40219 0.11038 0.0
C1436 C 0.19323 0.4031 0.97237 0.0
C1437 C 0.17886 0.37641 0.89198 0.0
N1438 N 0.21648 0.40293 0.06392 0.0
N1439 N 0.19142 0.37885 0.92988 0.0
H1440 H 0.59333 0.76794 0.9253 0.0
H1441 H 0.63284 0.86063 0.04105 0.0
H1442 H 0.6331 0.80995 0.83426 0.0
H1443 H 0.59183 0.82072 0.13539 0.0
H1444 H 0.62985 0.84216 0.95583 0.0
H1445 H 0.5897 0.78671 0.99524 0.0
C1446 C 0.60119 0.78105 0.91973 0.0
C1447 C 0.61378 0.78736 0.87485 0.0
C1448 C 0.62131 0.83739 0.99461 0.0
C1449 C 0.60959 0.80879 0.95362 0.0
C1450 C 0.623 0.84799 0.04312 0.0
C1451 C 0.61266 0.84213 0.09534 0.0
C1452 C 0.60943 0.82067 -0.00111 0.0
C1453 C 0.60004 0.82568 0.0957 0.0
C1454 C 0.5991 0.79175 0.95946 0.0
C1455 C 0.6235 0.80446 0.86914 0.0
N1456 N 0.59896 0.81539 0.04868 0.0
N1457 N 0.62126 0.81449 0.90817 0.0
H1458 H 0.19708 0.82297 0.83569 0.0
H1459 H 0.1836 0.77063 0.14666 0.0
H1460 H 0.23747 0.82606 0.94248 0.0
H1461 H 0.14644 0.77683 0.05303 0.0
H1462 H 0.20281 0.78587 0.06145 0.0
H1463 H 0.178 0.80107 0.90344 0.0
C1464 C 0.20195 0.81902 0.87364 0.0
C1465 C 0.21889 0.82664 0.88448 0.0
C1466 C 0.19037 0.78362 0.05919 0.0
C1467 C 0.19694 0.80144 0.96293 0.0
C1468 C 0.17937 0.77483 0.10741 0.0
C1469 C 0.16348 0.77265 0.10701 0.0
C1470 C 0.18529 0.79004 0.01023 0.0
C1471 C 0.15864 0.77843 0.05549 0.0
C1472 C 0.19101 0.80644 0.91224 0.0
C1473 C 0.22448 0.82064 0.93312 0.0
N1474 N 0.16953 0.78694 0.0095 0.0
N1475 N 0.21349 0.80851 0.9714 0.0
H1476 H 0.34814 0.1045 0.74078 0.0
H1477 H 0.32033 0.09171 0.09602 0.0
H1478 H 0.38276 0.12193 0.89382 0.0
H1479 H 0.2881 0.06261 0.9463 0.0
H1480 H 0.34352 0.10222 0.02369 0.0
H1481 H 0.32603 0.08876 0.81526 0.0
C1482 C 0.3511 0.10495 0.79009 0.0
C1483 C 0.36728 0.11461 0.81127 0.0
C1484 C 0.33144 0.0933 0.00684 0.0
C1485 C 0.34203 0.09667 0.89677 0.0
C1486 C 0.31821 0.08727 0.04815 0.0
C1487 C 0.3023 0.0763 0.02702 0.0
C1488 C 0.32869 0.08858 0.94359 0.0
C1489 C 0.30019 0.07099 0.96455 0.0
C1490 C 0.33848 0.09588 0.83252 0.0
C1491 C 0.37043 0.11467 0.87556 0.0
N1492 N 0.31321 0.0774 0.92469 0.0
N1493 N 0.35789 0.10597 0.91616 0.0
H1494 H 0.94511 0.22743 0.94201 0.0
H1495 H 0.89765 0.27699 0.88576 0.0
H1496 H 0.91971 0.23787 0.08687 0.0
H1497 H 0.90789 0.25161 0.7401 0.0
H1498 H 0.91323 0.27008 0.95979 0.0
H1499 H 0.93899 0.24364 0.86825 0.0
C1500 C 0.93864 0.2335 0.95868 0.0
C1501 C 0.93276 0.23122 0.02036 0.0
C1502 C 0.91233 0.26633 0.91129 0.0
C1503 C 0.9257 0.24965 0.93657 0.0
C1504 C 0.90355 0.27036 0.86899 0.0
C1505 C 0.90139 0.26471 0.80697 0.0
C1506 C 0.91908 0.25676 0.8911 0.0
C1507 C 0.90917 0.25606 0.78775 0.0
C1508 C 0.93505 0.24264 0.91653 0.0
C1509 C 0.92431 0.23922 0.03947 0.0
N1510 N 0.91756 0.25221 0.82979 0.0
N1511 N 0.92091 0.24798 -0.0024 0.0
H1512 H 0.75688 0.65767 0.73741 0.0
H1513 H 0.76614 0.6833 0.09014 0.0
H1514 H 0.73085 0.6226 0.88382 0.0
H1515 H 0.77657 0.71796 0.94062 0.0
H1516 H 0.75108 0.66084 0.0162 0.0
H1517 H 0.76222 0.67989 0.80989 0.0
C1518 C 0.752 0.65466 0.78457 0.0
C1519 C 0.74351 0.63832 0.80489 0.0
C1520 C 0.75633 0.67335 -0.00026 0.0
C1521 C 0.74987 0.66365 0.88847 0.0
C1522 C 0.76493 0.68616 0.04193 0.0
C1523 C 0.77269 0.70247 0.02126 0.0
C1524 C 0.75582 0.67687 0.93614 0.0
C1525 C 0.77076 0.70554 0.95843 0.0
C1526 C 0.75503 0.66733 0.82591 0.0
C1527 C 0.73744 0.63505 0.86634 0.0
N1528 N 0.76279 0.69284 0.91772 0.0
N1529 N 0.74102 0.64764 0.90644 0.0
H1530 H 0.1062 0.38104 0.61933 0.0
H1531 H 0.05903 0.28435 0.55511 0.0
H1532 H 0.09728 0.34482 0.76095 0.0
H1533 H 0.0828 0.32094 0.41127 0.0
H1534 H 0.06599 0.30627 0.6318 0.0
H1535 H 0.09065 0.3589 0.54412 0.0
C1536 C 0.10064 0.36844 0.63499 0.0
C1537 C 0.10314 0.36472 0.69625 0.0
C1538 C 0.0694 0.30946 0.58319 0.0
C1539 C 0.08543 0.33943 0.61065 0.0
C1540 C 0.06532 0.29697 0.53936 0.0
C1541 C 0.07046 0.30088 0.47693 0.0
C1542 C 0.0785 0.32593 0.56416 0.0
C1543 C 0.07872 0.31744 0.45912 0.0
C1544 C 0.09187 0.35582 0.59198 0.0
C1545 C 0.09575 0.34819 0.71396 0.0
N1546 N 0.0826 0.32936 0.50261 0.0
N1547 N 0.08733 0.33614 0.67124 0.0
H1548 H 0.68272 0.76569 0.39463 0.0
H1549 H 0.65758 0.75464 0.74835 0.0
H1550 H 0.71771 0.77601 0.54293 0.0
H1551 H 0.62237 0.72877 0.60196 0.0
H1552 H 0.67977 0.76081 0.67464 0.0
H1553 H 0.66042 0.7502 0.46864 0.0
C1554 C 0.68569 0.76437 0.44256 0.0
C1555 C 0.70204 0.77221 0.46291 0.0
C1556 C 0.6672 0.75349 0.65884 0.0
C1557 C 0.67662 0.75484 0.54811 0.0
C1558 C 0.65454 0.75 0.70086 0.0
C1559 C 0.63817 0.74127 0.68099 0.0
C1560 C 0.66346 0.74856 0.59605 0.0
C1561 C 0.63486 0.73552 0.6191 0.0
C1562 C 0.67296 0.75552 0.48477 0.0
C1563 C 0.70525 0.77013 0.52538 0.0
N1564 N 0.64743 0.73954 0.57838 0.0
N1565 N 0.69263 0.76191 0.56616 0.0
H1566 H 0.23032 0.94147 0.55872 0.0
H1567 H 0.27825 0.89233 0.61419 0.0
H1568 H 0.23808 0.91387 0.41494 0.0
H1569 H 0.25433 0.90405 0.76102 0.0
H1570 H 0.27097 0.9075 0.53962 0.0
H1571 H 0.2465 0.93505 0.63152 0.0
C1572 C 0.23576 0.93441 0.54206 0.0
C1573 C 0.23276 0.92805 0.48099 0.0
C1574 C 0.26762 0.90702 0.58845 0.0
C1575 C 0.25119 0.92068 0.5637 0.0
C1576 C 0.27187 0.89848 0.63105 0.0
C1577 C 0.26676 0.89687 0.69365 0.0
C1578 C 0.2584 0.91412 0.60895 0.0
C1579 C 0.25838 0.90493 0.71296 0.0
C1580 C 0.2449 0.93067 0.58367 0.0
C1581 C 0.24001 0.91887 0.46188 0.0
N1582 N 0.25434 0.91311 0.67068 0.0
N1583 N 0.24879 0.91535 0.50323 0.0
H1584 H 0.68141 0.9187 0.89774 0.0
H1585 H 0.65634 0.90395 0.25215 0.0
H1586 H 0.71672 0.94258 0.04574 0.0
H1587 H 0.62146 0.89633 0.10643 0.0
H1588 H 0.6787 0.9195 0.17835 0.0
H1589 H 0.65928 0.91181 0.97274 0.0
C1590 C 0.68449 0.9228 0.94584 0.0
C1591 C 0.70088 0.93117 0.9657 0.0
C1592 C 0.66617 0.91472 0.16279 0.0
C1593 C 0.67565 0.92299 0.05207 0.0
C1594 C 0.65341 0.90583 0.20486 0.0
C1595 C 0.63705 0.89879 0.1852 0.0
C1596 C 0.66253 0.91628 0.10021 0.0
C1597 C 0.63391 0.90158 0.12349 0.0
C1598 C 0.67187 0.91886 0.98863 0.0
C1599 C 0.70423 0.93616 0.0285 0.0
N1600 N 0.64654 0.90986 0.08279 0.0
N1601 N 0.6917 0.93172 0.0698 0.0
H1602 H 0.10805 0.72616 0.11808 0.0
H1603 H 0.06037 0.7756 0.06322 0.0
H1604 H 0.10057 0.75394 0.26194 0.0
H1605 H 0.08374 0.76337 0.91582 0.0
H1606 H 0.06774 0.7605 0.1378 0.0
H1607 H 0.09189 0.73265 0.04546 0.0
C1608 C 0.10269 0.73329 0.13479 0.0
C1609 C 0.10575 0.73966 0.19585 0.0
C1610 C 0.07095 0.76085 0.08885 0.0
C1611 C 0.08733 0.74711 0.11333 0.0
C1612 C 0.06663 0.76934 0.04624 0.0
C1613 C 0.07156 0.77078 0.98345 0.0
C1614 C 0.08006 0.75364 0.06819 0.0
C1615 C 0.07982 0.76261 0.96401 0.0
C1616 C 0.09356 0.73707 0.09329 0.0
C1617 C 0.0986 0.74892 0.21501 0.0
N1618 N 0.08393 0.75449 0.0063 0.0
N1619 N 0.08982 0.75247 0.17377 0.0
H1620 H 0.25291 0.34865 0.2639 0.0
H1621 H 0.23888 0.3254 0.90757 0.0
H1622 H 0.27641 0.38464 0.11795 0.0
H1623 H 0.2298 0.28969 0.05153 0.0
H1624 H 0.25466 0.34732 0.98269 0.0
H1625 H 0.24642 0.32691 0.18751 0.0
C1626 C 0.25702 0.35197 0.21594 0.0
C1627 C 0.26511 0.36842 0.19703 0.0
C1628 C 0.24952 0.3347 -0.00239 0.0
C1629 C 0.2574 0.34364 0.10907 0.0
C1630 C 0.24049 0.32219 0.95477 0.0
C1631 C 0.23293 0.30574 0.97358 0.0
C1632 C 0.25071 0.33073 0.06009 0.0
C1633 C 0.23542 0.30223 0.03516 0.0
C1634 C 0.25331 0.33956 0.17234 0.0
C1635 C 0.27016 0.37209 0.13443 0.0
N1636 N 0.24385 0.31464 0.07661 0.0
N1637 N 0.26593 0.35977 0.09233 0.0
H1638 H 0.90647 0.65745 0.22979 0.0
H1639 H 0.94827 0.72047 0.44176 0.0
H1640 H 0.9007 0.62455 0.38078 0.0
H1641 H 0.91753 0.68343 0.57554 0.0
H1642 H 0.94253 0.69884 0.36526 0.0
H1643 H 0.92185 0.68068 0.29979 0.0
C1644 C 0.90886 0.65516 0.27733 0.0
C1645 C 0.90231 0.63908 0.29959 0.0
C1646 C 0.93708 0.69545 0.4114 0.0
C1647 C 0.91992 0.66562 0.38028 0.0
C1648 C 0.94052 0.70778 0.45531 0.0
C1649 C 0.93315 0.70372 0.51467 0.0
C1650 C 0.92621 0.67899 0.4272 0.0
C1651 C 0.92327 0.68709 0.52992 0.0
C1652 C 0.91775 0.66845 0.31727 0.0
C1653 C 0.90562 0.63676 0.36168 0.0
N1654 N 0.91999 0.67533 0.48631 0.0
N1655 N 0.9139 0.6499 0.40029 0.0
H1656 H 0.31931 0.2304 0.59144 0.0
H1657 H 0.34742 0.24461 0.23661 0.0
H1658 H 0.28626 0.22378 0.4398 0.0
H1659 H 0.38164 0.26366 0.3907 0.0
H1660 H 0.32493 0.23775 0.30982 0.0
H1661 H 0.34243 0.24393 0.5193 0.0
C1662 C 0.31698 0.23214 0.5431 0.0
C1663 C 0.3009 0.226 0.52142 0.0
C1664 C 0.33737 0.2436 0.32756 0.0
C1665 C 0.32723 0.24104 0.43817 0.0
C1666 C 0.35021 0.24744 0.28586 0.0
C1667 C 0.3664 0.25459 0.30777 0.0
C1668 C 0.34072 0.24673 0.39179 0.0
C1669 C 0.36933 0.25809 0.37191 0.0
C1670 C 0.33017 0.23982 0.50189 0.0
C1671 C 0.2985 0.22847 0.4584 0.0
N1672 N 0.35659 0.25396 0.41179 0.0
N1673 N 0.31153 0.23557 0.41863 0.0
H1674 H 0.76544 0.08475 0.58918 0.0
H1675 H 0.75343 0.09832 0.23545 0.0
H1676 H 0.77529 0.05981 0.44069 0.0
H1677 H 0.72866 0.10856 0.38341 0.0
H1678 H 0.75953 0.08216 0.30884 0.0
H1679 H 0.74989 0.0916 0.51551 0.0
C1680 C 0.76402 0.08043 0.54128 0.0
C1681 C 0.77174 0.07181 0.5208 0.0
C1682 C 0.75245 0.08763 0.32504 0.0
C1683 C 0.75428 0.07989 0.43594 0.0
C1684 C 0.74898 0.09686 0.28316 0.0
C1685 C 0.74063 0.10485 0.30359 0.0
C1686 C 0.74787 0.0867 0.38817 0.0
C1687 C 0.73512 0.10257 0.36579 0.0
C1688 C 0.75514 0.08433 0.49924 0.0
C1689 C 0.76952 0.06648 0.45835 0.0
N1690 N 0.73912 0.09397 0.40629 0.0
N1691 N 0.76126 0.07089 0.41774 0.0
H1692 H 0.95381 0.39213 0.27635 0.0
H1693 H 0.05111 0.44146 0.22757 0.0
H1694 H 0.98855 0.41845 0.42366 0.0
H1695 H 0.01618 0.43181 0.07966 0.0
H1696 H 0.02829 0.42557 0.29982 0.0
H1697 H 0.97672 0.39918 0.20447 0.0
C1698 C 0.96624 0.39901 0.29397 0.0
C1699 C 0.96934 0.40484 0.3558 0.0
C1700 C 0.02567 0.42668 0.25121 0.0
C1701 C 0.99548 0.41293 0.27416 0.0
C1702 C 0.03866 0.43563 0.20993 0.0
C1703 C 0.03547 0.43802 0.14778 0.0
C1704 C 0.00944 0.41993 0.22982 0.0
C1705 C 0.01912 0.43034 0.12742 0.0
C1706 C 0.97929 0.40312 0.25288 0.0
C1707 C 0.98567 0.41384 0.37613 0.0
N1708 N 0.00669 0.42173 0.16844 0.0
N1709 N 0.99815 0.41772 0.3353 0.0
H1710 H 0.57416 0.5845 0.07716 0.0
H1711 H 0.58504 0.5675 0.42715 0.0
H1712 H 0.56074 0.60595 0.22793 0.0
H1713 H 0.61527 0.56516 0.28033 0.0
H1714 H 0.57697 0.58276 0.35681 0.0
H1715 H 0.5903 0.57841 0.15078 0.0
C1716 C 0.5749 0.58821 0.12568 0.0
C1717 C 0.56614 0.59571 0.14668 0.0
C1718 C 0.58565 0.57923 0.3404 0.0
C1719 C 0.58421 0.58843 0.23146 0.0
C1720 C 0.59024 0.57051 0.38047 0.0
C1721 C 0.60075 0.56499 0.35932 0.0
C1722 C 0.59133 0.58213 0.27831 0.0
C1723 C 0.60714 0.5692 0.29848 0.0
C1724 C 0.58412 0.58476 0.16765 0.0
C1725 C 0.56743 0.60024 0.20993 0.0
N1726 N 0.60207 0.57724 0.25965 0.0
N1727 N 0.57603 0.59622 0.25049 0.0
H1728 H 0.42442 0.99076 0.06813 0.0
H1729 H 0.43484 0.01592 0.42144 0.0
H1730 H 0.3961 0.95637 0.21353 0.0
H1731 H 0.44716 0.05155 0.27427 0.0
H1732 H 0.41905 0.99401 0.34629 0.0
H1733 H 0.43139 0.01334 0.14113 0.0
C1734 C 0.41939 0.98799 0.11511 0.0
C1735 C 0.40978 0.97169 0.13504 0.0
C1736 C 0.42489 0.00662 0.33055 0.0
C1737 C 0.41795 0.99741 0.21908 0.0
C1738 C 0.43391 0.01912 0.37343 0.0
C1739 C 0.4423 0.03551 0.35383 0.0
C1740 C 0.42464 0.01053 0.26723 0.0
C1741 C 0.44077 0.03904 0.2912 0.0
C1742 C 0.42336 1.00088 0.15672 0.0
C1743 C 0.40356 0.96876 0.1963 0.0
N1744 N 0.43238 0.02661 0.24969 0.0
N1745 N 0.40803 0.9815 0.23658 0.0
H1746 H 0.58634 0.01687 0.93045 0.0
H1747 H 0.57564 0.99155 0.57647 0.0
H1748 H 0.61408 0.0514 0.78461 0.0
H1749 H 0.56392 0.95618 0.72427 0.0
H1750 H 0.59113 0.01362 0.65149 0.0
H1751 H 0.57929 0.99436 0.857 0.0
C1752 C 0.59122 0.01969 0.88326 0.0
C1753 C 0.60072 0.036 0.86341 0.0
C1754 C 0.58548 1.00103 0.66734 0.0
C1755 C 0.59244 0.01036 0.77883 0.0
C1756 C 0.57663 0.98844 0.62454 0.0
C1757 C 0.56847 0.97206 0.64434 0.0
C1758 C 0.58583 0.99722 0.73073 0.0
C1759 C 0.5701 0.96866 0.7071 0.0
C1760 C 0.5872 0.00684 0.84138 0.0
C1761 C 0.60673 0.03899 0.80182 0.0
N1762 N 0.57833 0.98117 0.74843 0.0
N1763 N 0.60223 0.02629 0.76132 0.0
H1764 H 0.05123 0.60955 0.72743 0.0
H1765 H 0.95392 0.56049 0.77597 0.0
H1766 H 0.01643 0.58405 0.57935 0.0
H1767 H 0.98886 0.56944 0.92308 0.0
H1768 H 0.97675 0.5767 0.70409 0.0
H1769 H 0.02834 0.60248 0.79948 0.0
C1770 C 0.03879 0.60285 0.70971 0.0
C1771 C 0.03566 0.59723 0.64761 0.0
C1772 C 0.97937 0.57538 0.75248 0.0
C1773 C 0.00955 0.58912 0.7294 0.0
C1774 C 0.96638 0.56624 0.79354 0.0
C1775 C 0.96958 0.56355 0.85527 0.0
C1776 C 0.9956 0.582 0.77373 0.0
C1777 C 0.98592 0.57113 0.87559 0.0
C1778 C 0.02576 0.59873 0.75087 0.0
C1779 C 0.01933 0.58848 0.62711 0.0
N1780 N 0.99834 0.57991 0.8348 0.0
N1781 N 0.00686 0.58457 0.66803 0.0
H1782 H 0.39253 0.43799 0.71013 0.0
H1783 H 0.44033 0.42374 0.91572 0.0
H1784 H 0.42553 0.43666 0.57312 0.0
H1785 H 0.44782 0.39748 0.76593 0.0
H1786 H 0.42327 0.42953 0.84639 0.0
H1787 H 0.40062 0.42339 0.78388 0.0
C1788 C 0.40128 0.4344 0.69521 0.0
C1789 C 0.4086 0.4388 0.63586 0.0
C1790 C 0.42815 0.42204 0.82901 0.0
C1791 C 0.41821 0.4225 0.72034 0.0
C1792 C 0.43801 0.41884 0.86851 0.0
C1793 C 0.44541 0.41008 0.84646 0.0
C1794 C 0.4259 0.41667 0.76649 0.0
C1795 C 0.44218 0.40414 0.78478 0.0
C1796 C 0.40603 0.42624 0.73757 0.0
C1797 C 0.41978 0.43372 0.61884 0.0
N1798 N 0.43293 0.40786 0.74639 0.0
N1799 N 0.42437 0.42598 0.66111 0.0
loop_
_geom_bond_atom_site_label_1
_geom_bond_atom_site_label_2
_geom_bond_distance
_geom_bond_site_symmetry_2
_ccdc_geom_bond_type
Co0 O1 2.216 . S
Co0 O2 2.091 . S
Co0 O4 2.004 1_554 S
Co0 O10 2.021 . S
Co0 O12 2.137 1_554 S
Co0 O13 2.244 . S
O1 Co0 2.216 . S
O1 C8 1.247 . S
O2 Co0 2.091 . S
O2 C8 1.261 . S
C3 O12 1.247 1_554 S
C3 O13 1.272 . S
O4 Co0 2.004 1_556 S
O4 C9 1.259 . S
Co5 O6 2.061 1_554 S
Co5 O11 2.052 . S
Co5 O13 2.135 . S
O6 Co5 2.061 1_556 S
O6 C9 1.235 . S
C7 O10 1.238 . S
C7 O11 1.241 . S
C8 O1 1.247 . S
C8 O2 1.261 . S
C9 O4 1.259 . S
C9 O6 1.235 . S
O10 Co0 2.021 . S
O10 C7 1.238 . S
O11 Co5 2.052 . S
O11 C7 1.241 . S
O12 Co0 2.137 1_556 S
O12 C3 1.247 1_556 S
O13 Co0 2.244 . S
O13 C3 1.272 . S
O13 Co5 2.135 . S
Co14 O15 2.216 . S
Co14 O16 2.091 . S
Co14 O18 2.004 1_554 S
Co14 O24 2.021 . S
Co14 O26 2.137 1_554 S
Co14 O27 2.244 . S
O15 Co14 2.216 . S
O15 C22 1.247 . S
O16 Co14 2.091 . S
O16 C22 1.261 . S
C17 O26 1.247 1_554 S
C17 O27 1.272 . S
O18 Co14 2.004 1_556 S
O18 C23 1.259 . S
Co19 O20 2.061 1_554 S
Co19 O25 2.052 . S
Co19 O27 2.135 . S
O20 Co19 2.061 1_556 S
O20 C23 1.235 . S
C21 O24 1.238 . S
C21 O25 1.241 . S
C22 O15 1.247 . S
C22 O16 1.261 . S
C23 O18 1.259 . S
C23 O20 1.235 . S
O24 Co14 2.021 . S
O24 C21 1.238 . S
O25 Co19 2.052 . S
O25 C21 1.241 . S
O26 Co14 2.137 1_556 S
O26 C17 1.247 1_556 S
O27 Co14 2.244 . S
O27 C17 1.272 . S
O27 Co19 2.135 . S
Co28 O29 2.216 . S
Co28 O30 2.091 . S
Co28 O32 2.004 1_554 S
Co28 O38 2.021 . S
Co28 O40 2.137 1_554 S
Co28 O41 2.244 . S
O29 Co28 2.216 . S
O29 C36 1.247 . S
O30 Co28 2.091 . S
O30 C36 1.261 . S
C31 O40 1.247 1_554 S
C31 O41 1.272 . S
O32 Co28 2.004 1_556 S
O32 C37 1.259 . S
Co33 O34 2.061 1_554 S
Co33 O39 2.052 . S
Co33 O41 2.135 . S
O34 Co33 2.061 1_556 S
O34 C37 1.235 . S
C35 O38 1.238 . S
C35 O39 1.241 . S
C36 O29 1.247 . S
C36 O30 1.261 . S
C37 O32 1.259 . S
C37 O34 1.235 . S
O38 Co28 2.021 . S
O38 C35 1.238 . S
O39 Co33 2.052 . S
O39 C35 1.241 . S
O40 Co28 2.137 1_556 S
O40 C31 1.247 1_556 S
O41 Co28 2.244 . S
O41 C31 1.272 . S
O41 Co33 2.135 . S
Co42 O43 2.216 . S
Co42 O44 2.091 . S
Co42 O46 2.004 . S
Co42 O52 2.021 . S
Co42 O54 2.137 . S
Co42 O55 2.244 . S
O43 Co42 2.216 . S
O43 C50 1.247 . S
O44 Co42 2.091 . S
O44 C50 1.261 . S
C45 O54 1.247 . S
C45 O55 1.272 . S
O46 Co42 2.004 . S
O46 C51 1.259 . S
Co47 O48 2.061 . S
Co47 O53 2.052 . S
Co47 O55 2.135 . S
O48 Co47 2.061 . S
O48 C51 1.235 . S
C49 O52 1.238 . S
C49 O53 1.241 . S
C50 O43 1.247 . S
C50 O44 1.261 . S
C51 O46 1.259 . S
C51 O48 1.235 . S
O52 Co42 2.021 . S
O52 C49 1.238 . S
O53 Co47 2.052 . S
O53 C49 1.241 . S
O54 Co42 2.137 . S
O54 C45 1.247 . S
O55 Co42 2.244 . S
O55 C45 1.272 . S
O55 Co47 2.135 . S
Co56 O57 2.216 . S
Co56 O58 2.091 . S
Co56 O60 2.004 . S
Co56 O66 2.021 . S
Co56 O68 2.137 . S
Co56 O69 2.244 . S
O57 Co56 2.216 . S
O57 C64 1.247 . S
O58 Co56 2.091 . S
O58 C64 1.261 . S
C59 O68 1.247 . S
C59 O69 1.272 . S
O60 Co56 2.004 . S
O60 C65 1.259 . S
Co61 O62 2.061 . S
Co61 O67 2.052 . S
Co61 O69 2.135 . S
O62 Co61 2.061 . S
O62 C65 1.235 . S
C63 O66 1.238 . S
C63 O67 1.241 . S
C64 O57 1.247 . S
C64 O58 1.261 . S
C65 O60 1.259 . S
C65 O62 1.235 . S
O66 Co56 2.021 . S
O66 C63 1.238 . S
O67 Co61 2.052 . S
O67 C63 1.241 . S
O68 Co56 2.137 . S
O68 C59 1.247 . S
O69 Co56 2.244 . S
O69 C59 1.272 . S
O69 Co61 2.135 . S
Co70 O71 2.216 . S
Co70 O72 2.091 . S
Co70 O74 2.004 . S
Co70 O80 2.021 . S
Co70 O82 2.137 . S
Co70 O83 2.244 . S
O71 Co70 2.216 . S
O71 C78 1.247 . S
O72 Co70 2.091 . S
O72 C78 1.261 . S
C73 O82 1.247 . S
C73 O83 1.272 . S
O74 Co70 2.004 . S
O74 C79 1.259 . S
Co75 O76 2.061 . S
Co75 O81 2.052 . S
Co75 O83 2.135 . S
O76 Co75 2.061 . S
O76 C79 1.235 . S
C77 O80 1.238 . S
C77 O81 1.241 . S
C78 O71 1.247 . S
C78 O72 1.261 . S
C79 O74 1.259 . S
C79 O76 1.235 . S
O80 Co70 2.021 . S
O80 C77 1.238 . S
O81 Co75 2.052 . S
O81 C77 1.241 . S
O82 Co70 2.137 . S
O82 C73 1.247 . S
O83 Co70 2.244 . S
O83 C73 1.272 . S
O83 Co75 2.135 . S
Co84 O85 2.216 . S
Co84 O86 2.091 . S
Co84 O88 2.004 1_556 S
Co84 O94 2.021 . S
Co84 O96 2.137 1_556 S
Co84 O97 2.244 . S
O85 Co84 2.216 . S
O85 C92 1.247 . S
O86 Co84 2.091 . S
O86 C92 1.261 . S
C87 O96 1.247 1_556 S
C87 O97 1.272 . S
O88 Co84 2.004 1_554 S
O88 C93 1.259 . S
Co89 O90 2.061 1_556 S
Co89 O95 2.052 . S
Co89 O97 2.135 . S
O90 Co89 2.061 1_554 S
O90 C93 1.235 . S
C91 O94 1.238 . S
C91 O95 1.241 . S
C92 O85 1.247 . S
C92 O86 1.261 . S
C93 O88 1.259 . S
C93 O90 1.235 . S
O94 Co84 2.021 . S
O94 C91 1.238 . S
O95 Co89 2.052 . S
O95 C91 1.241 . S
O96 Co84 2.137 1_554 S
O96 C87 1.247 1_554 S
O97 Co84 2.244 . S
O97 C87 1.272 . S
O97 Co89 2.135 . S
Co98 O99 2.216 . S
Co98 O100 2.091 . S
Co98 O102 2.004 1_556 S
Co98 O108 2.021 . S
Co98 O110 2.137 1_556 S
Co98 O111 2.244 . S
O99 Co98 2.216 . S
O99 C106 1.247 . S
O100 Co98 2.091 . S
O100 C106 1.261 . S
C101 O110 1.247 1_556 S
C101 O111 1.272 . S
O102 Co98 2.004 1_554 S
O102 C107 1.259 . S
Co103 O104 2.061 1_556 S
Co103 O109 2.052 . S
Co103 O111 2.135 . S
O104 Co103 2.061 1_554 S
O104 C107 1.235 . S
C105 O108 1.238 . S
C105 O109 1.241 . S
C106 O99 1.247 . S
C106 O100 1.261 . S
C107 O102 1.259 . S
C107 O104 1.235 . S
O108 Co98 2.021 . S
O108 C105 1.238 . S
O109 Co103 2.052 . S
O109 C105 1.241 . S
O110 Co98 2.137 1_554 S
O110 C101 1.247 1_554 S
O111 Co98 2.244 . S
O111 C101 1.272 . S
O111 Co103 2.135 . S
Co112 O113 2.216 . S
Co112 O114 2.091 . S
Co112 O116 2.004 1_556 S
Co112 O122 2.021 . S
Co112 O124 2.137 1_556 S
Co112 O125 2.244 . S
O113 Co112 2.216 . S
O113 C120 1.247 . S
O114 Co112 2.091 . S
O114 C120 1.261 . S
C115 O124 1.247 1_556 S
C115 O125 1.272 . S
O116 Co112 2.004 1_554 S
O116 C121 1.259 . S
Co117 O118 2.061 1_556 S
Co117 O123 2.052 . S
Co117 O125 2.135 . S
O118 Co117 2.061 1_554 S
O118 C121 1.235 . S
C119 O122 1.238 . S
C119 O123 1.241 . S
C120 O113 1.247 . S
C120 O114 1.261 . S
C121 O116 1.259 . S
C121 O118 1.235 . S
O122 Co112 2.021 . S
O122 C119 1.238 . S
O123 Co117 2.052 . S
O123 C119 1.241 . S
O124 Co112 2.137 1_554 S
O124 C115 1.247 1_554 S
O125 Co112 2.244 . S
O125 C115 1.272 . S
O125 Co117 2.135 . S
Co126 O127 2.216 . S
Co126 O128 2.091 . S
Co126 O130 2.004 . S
Co126 O136 2.021 . S
Co126 O138 2.137 . S
Co126 O139 2.244 . S
O127 Co126 2.216 . S
O127 C134 1.247 . S
O128 Co126 2.091 . S
O128 C134 1.261 . S
C129 O138 1.247 . S
C129 O139 1.272 . S
O130 Co126 2.004 . S
O130 C135 1.259 . S
Co131 O132 2.061 . S
Co131 O137 2.052 . S
Co131 O139 2.135 . S
O132 Co131 2.061 . S
O132 C135 1.235 . S
C133 O136 1.238 . S
C133 O137 1.241 . S
C134 O127 1.247 . S
C134 O128 1.261 . S
C135 O130 1.259 . S
C135 O132 1.235 . S
O136 Co126 2.021 . S
O136 C133 1.238 . S
O137 Co131 2.052 . S
O137 C133 1.241 . S
O138 Co126 2.137 . S
O138 C129 1.247 . S
O139 Co126 2.244 . S
O139 C129 1.272 . S
O139 Co131 2.135 . S
Co140 O141 2.216 . S
Co140 O142 2.091 . S
Co140 O144 2.004 . S
Co140 O150 2.021 . S
Co140 O152 2.137 . S
Co140 O153 2.244 . S
O141 Co140 2.216 . S
O141 C148 1.247 . S
O142 Co140 2.091 . S
O142 C148 1.261 . S
C143 O152 1.247 . S
C143 O153 1.272 . S
O144 Co140 2.004 . S
O144 C149 1.259 . S
Co145 O146 2.061 . S
Co145 O151 2.052 . S
Co145 O153 2.135 . S
O146 Co145 2.061 . S
O146 C149 1.235 . S
C147 O150 1.238 . S
C147 O151 1.241 . S
C148 O141 1.247 . S
C148 O142 1.261 . S
C149 O144 1.259 . S
C149 O146 1.235 . S
O150 Co140 2.021 . S
O150 C147 1.238 . S
O151 Co145 2.052 . S
O151 C147 1.241 . S
O152 Co140 2.137 . S
O152 C143 1.247 . S
O153 Co140 2.244 . S
O153 C143 1.272 . S
O153 Co145 2.135 . S
Co154 O155 2.216 . S
Co154 O156 2.091 . S
Co154 O158 2.004 . S
Co154 O164 2.021 . S
Co154 O166 2.137 . S
Co154 O167 2.244 . S
O155 Co154 2.216 . S
O155 C162 1.247 . S
O156 Co154 2.091 . S
O156 C162 1.261 . S
C157 O166 1.247 . S
C157 O167 1.272 . S
O158 Co154 2.004 . S
O158 C163 1.259 . S
Co159 O160 2.061 . S
Co159 O165 2.052 . S
Co159 O167 2.135 . S
O160 Co159 2.061 . S
O160 C163 1.235 . S
C161 O164 1.238 . S
C161 O165 1.241 . S
C162 O155 1.247 . S
C162 O156 1.261 . S
C163 O158 1.259 . S
C163 O160 1.235 . S
O164 Co154 2.021 . S
O164 C161 1.238 . S
O165 Co159 2.052 . S
O165 C161 1.241 . S
O166 Co154 2.137 . S
O166 C157 1.247 . S
O167 Co154 2.244 . S
O167 C157 1.272 . S
O167 Co159 2.135 . S
Co168 O169 2.216 . S
Co168 O170 2.091 . S
Co168 O172 2.004 . S
Co168 O178 2.021 . S
Co168 O180 2.137 . S
Co168 O181 2.244 . S
O169 Co168 2.216 . S
O169 C176 1.247 . S
O170 Co168 2.091 . S
O170 C176 1.261 . S
C171 O180 1.247 . S
C171 O181 1.272 . S
O172 Co168 2.004 . S
O172 C177 1.259 . S
Co173 O174 2.061 . S
Co173 O179 2.052 . S
Co173 O181 2.135 . S
O174 Co173 2.061 . S
O174 C177 1.235 . S
C175 O178 1.238 . S
C175 O179 1.241 . S
C176 O169 1.247 . S
C176 O170 1.261 . S
C177 O172 1.259 . S
C177 O174 1.235 . S
O178 Co168 2.021 . S
O178 C175 1.238 . S
O179 Co173 2.052 . S
O179 C175 1.241 . S
O180 Co168 2.137 . S
O180 C171 1.247 . S
O181 Co168 2.244 . S
O181 C171 1.272 . S
O181 Co173 2.135 . S
Co182 O183 2.216 . S
Co182 O184 2.091 . S
Co182 O186 2.004 . S
Co182 O192 2.021 . S
Co182 O194 2.137 . S
Co182 O195 2.244 . S
O183 Co182 2.216 . S
O183 C190 1.247 . S
O184 Co182 2.091 . S
O184 C190 1.261 . S
C185 O194 1.247 . S
C185 O195 1.272 . S
O186 Co182 2.004 . S
O186 C191 1.259 . S
Co187 O188 2.061 . S
Co187 O193 2.052 . S
Co187 O195 2.135 . S
O188 Co187 2.061 . S
O188 C191 1.235 . S
C189 O192 1.238 . S
C189 O193 1.241 . S
C190 O183 1.247 . S
C190 O184 1.261 . S
C191 O186 1.259 . S
C191 O188 1.235 . S
O192 Co182 2.021 . S
O192 C189 1.238 . S
O193 Co187 2.052 . S
O193 C189 1.241 . S
O194 Co182 2.137 . S
O194 C185 1.247 . S
O195 Co182 2.244 . S
O195 C185 1.272 . S
O195 Co187 2.135 . S
Co196 O197 2.216 . S
Co196 O198 2.091 . S
Co196 O200 2.004 . S
Co196 O206 2.021 . S
Co196 O208 2.137 . S
Co196 O209 2.244 . S
O197 Co196 2.216 . S
O197 C204 1.247 . S
O198 Co196 2.091 . S
O198 C204 1.261 . S
C199 O208 1.247 . S
C199 O209 1.272 . S
O200 Co196 2.004 . S
O200 C205 1.259 . S
Co201 O202 2.061 . S
Co201 O207 2.052 . S
Co201 O209 2.135 . S
O202 Co201 2.061 . S
O202 C205 1.235 . S
C203 O206 1.238 . S
C203 O207 1.241 . S
C204 O197 1.247 . S
C204 O198 1.261 . S
C205 O200 1.259 . S
C205 O202 1.235 . S
O206 Co196 2.021 . S
O206 C203 1.238 . S
O207 Co201 2.052 . S
O207 C203 1.241 . S
O208 Co196 2.137 . S
O208 C199 1.247 . S
O209 Co196 2.244 . S
O209 C199 1.272 . S
O209 Co201 2.135 . S
Co210 O211 2.216 . S
Co210 O212 2.091 . S
Co210 O214 2.004 . S
Co210 O220 2.021 . S
Co210 O222 2.137 . S
Co210 O223 2.244 . S
O211 Co210 2.216 . S
O211 C218 1.247 . S
O212 Co210 2.091 . S
O212 C218 1.261 . S
C213 O222 1.247 . S
C213 O223 1.272 . S
O214 Co210 2.004 . S
O214 C219 1.259 . S
Co215 O216 2.061 . S
Co215 O221 2.052 . S
Co215 O223 2.135 . S
O216 Co215 2.061 . S
O216 C219 1.235 . S
C217 O220 1.238 . S
C217 O221 1.241 . S
C218 O211 1.247 . S
C218 O212 1.261 . S
C219 O214 1.259 . S
C219 O216 1.235 . S
O220 Co210 2.021 . S
O220 C217 1.238 . S
O221 Co215 2.052 . S
O221 C217 1.241 . S
O222 Co210 2.137 . S
O222 C213 1.247 . S
O223 Co210 2.244 . S
O223 C213 1.272 . S
O223 Co215 2.135 . S
Co224 O225 2.216 . S
Co224 O226 2.091 . S
Co224 O228 2.004 . S
Co224 O234 2.021 . S
Co224 O236 2.137 . S
Co224 O237 2.244 . S
O225 Co224 2.216 . S
O225 C232 1.247 . S
O226 Co224 2.091 . S
O226 C232 1.261 . S
C227 O236 1.247 . S
C227 O237 1.272 . S
O228 Co224 2.004 . S
O228 C233 1.259 . S
Co229 O230 2.061 . S
Co229 O235 2.052 . S
Co229 O237 2.135 . S
O230 Co229 2.061 . S
O230 C233 1.235 . S
C231 O234 1.238 . S
C231 O235 1.241 . S
C232 O225 1.247 . S
C232 O226 1.261 . S
C233 O228 1.259 . S
C233 O230 1.235 . S
O234 Co224 2.021 . S
O234 C231 1.238 . S
O235 Co229 2.052 . S
O235 C231 1.241 . S
O236 Co224 2.137 . S
O236 C227 1.247 . S
O237 Co224 2.244 . S
O237 C227 1.272 . S
O237 Co229 2.135 . S
Co238 O239 2.216 . S
Co238 O240 2.091 . S
Co238 O242 2.004 . S
Co238 O248 2.021 . S
Co238 O250 2.137 . S
Co238 O251 2.244 . S
O239 Co238 2.216 . S
O239 C246 1.247 . S
O240 Co238 2.091 . S
O240 C246 1.261 . S
C241 O250 1.247 . S
C241 O251 1.272 . S
O242 Co238 2.004 . S
O242 C247 1.259 . S
Co243 O244 2.061 . S
Co243 O249 2.052 . S
Co243 O251 2.135 . S
O244 Co243 2.061 . S
O244 C247 1.235 . S
C245 O248 1.238 . S
C245 O249 1.241 . S
C246 O239 1.247 . S
C246 O240 1.261 . S
C247 O242 1.259 . S
C247 O244 1.235 . S
O248 Co238 2.021 . S
O248 C245 1.238 . S
O249 Co243 2.052 . S
O249 C245 1.241 . S
O250 Co238 2.137 . S
O250 C241 1.247 . S
O251 Co238 2.244 . S
O251 C241 1.272 . S
O251 Co243 2.135 . S
Co252 O253 2.216 . S
Co252 O254 2.091 . S
Co252 O256 2.004 . S
Co252 O262 2.021 . S
Co252 O264 2.137 . S
Co252 O265 2.244 . S
O253 Co252 2.216 . S
O253 C260 1.247 . S
O254 Co252 2.091 . S
O254 C260 1.261 . S
C255 O264 1.247 . S
C255 O265 1.272 . S
O256 Co252 2.004 . S
O256 C261 1.259 . S
Co257 O258 2.061 . S
Co257 O263 2.052 . S
Co257 O265 2.135 . S
O258 Co257 2.061 . S
O258 C261 1.235 . S
C259 O262 1.238 . S
C259 O263 1.241 . S
C260 O253 1.247 . S
C260 O254 1.261 . S
C261 O256 1.259 . S
C261 O258 1.235 . S
O262 Co252 2.021 . S
O262 C259 1.238 . S
O263 Co257 2.052 . S
O263 C259 1.241 . S
O264 Co252 2.137 . S
O264 C255 1.247 . S
O265 Co252 2.244 . S
O265 C255 1.272 . S
O265 Co257 2.135 . S
Co266 O267 2.216 . S
Co266 O268 2.091 . S
Co266 O270 2.004 . S
Co266 O276 2.021 . S
Co266 O278 2.137 . S
Co266 O279 2.244 . S
O267 Co266 2.216 . S
O267 C274 1.247 . S
O268 Co266 2.091 . S
O268 C274 1.261 . S
C269 O278 1.247 . S
C269 O279 1.272 . S
O270 Co266 2.004 . S
O270 C275 1.259 . S
Co271 O272 2.061 . S
Co271 O277 2.052 . S
Co271 O279 2.135 . S
O272 Co271 2.061 . S
O272 C275 1.235 . S
C273 O276 1.238 . S
C273 O277 1.241 . S
C274 O267 1.247 . S
C274 O268 1.261 . S
C275 O270 1.259 . S
C275 O272 1.235 . S
O276 Co266 2.021 . S
O276 C273 1.238 . S
O277 Co271 2.052 . S
O277 C273 1.241 . S
O278 Co266 2.137 . S
O278 C269 1.247 . S
O279 Co266 2.244 . S
O279 C269 1.272 . S
O279 Co271 2.135 . S
Co280 O281 2.216 . S
Co280 O282 2.091 . S
Co280 O284 2.004 . S
Co280 O290 2.021 . S
Co280 O292 2.137 . S
Co280 O293 2.244 . S
O281 Co280 2.216 . S
O281 C288 1.247 . S
O282 Co280 2.091 . S
O282 C288 1.261 . S
C283 O292 1.247 . S
C283 O293 1.272 . S
O284 Co280 2.004 . S
O284 C289 1.259 . S
Co285 O286 2.061 . S
Co285 O291 2.052 . S
Co285 O293 2.135 . S
O286 Co285 2.061 . S
O286 C289 1.235 . S
C287 O290 1.238 . S
C287 O291 1.241 . S
C288 O281 1.247 . S
C288 O282 1.261 . S
C289 O284 1.259 . S
C289 O286 1.235 . S
O290 Co280 2.021 . S
O290 C287 1.238 . S
O291 Co285 2.052 . S
O291 C287 1.241 . S
O292 Co280 2.137 . S
O292 C283 1.247 . S
O293 Co280 2.244 . S
O293 C283 1.272 . S
O293 Co285 2.135 . S
Co294 O295 2.216 . S
Co294 O296 2.091 . S
Co294 O298 2.004 . S
Co294 O304 2.021 . S
Co294 O306 2.137 . S
Co294 O307 2.244 . S
O295 Co294 2.216 . S
O295 C302 1.247 . S
O296 Co294 2.091 . S
O296 C302 1.261 . S
C297 O306 1.247 . S
C297 O307 1.272 . S
O298 Co294 2.004 . S
O298 C303 1.259 . S
Co299 O300 2.061 . S
Co299 O305 2.052 . S
Co299 O307 2.135 . S
O300 Co299 2.061 . S
O300 C303 1.235 . S
C301 O304 1.238 . S
C301 O305 1.241 . S
C302 O295 1.247 . S
C302 O296 1.261 . S
C303 O298 1.259 . S
C303 O300 1.235 . S
O304 Co294 2.021 . S
O304 C301 1.238 . S
O305 Co299 2.052 . S
O305 C301 1.241 . S
O306 Co294 2.137 . S
O306 C297 1.247 . S
O307 Co294 2.244 . S
O307 C297 1.272 . S
O307 Co299 2.135 . S
Co308 O309 2.216 . S
Co308 O310 2.091 . S
Co308 O312 2.004 . S
Co308 O318 2.021 . S
Co308 O320 2.137 . S
Co308 O321 2.244 . S
O309 Co308 2.216 . S
O309 C316 1.247 . S
O310 Co308 2.091 . S
O310 C316 1.261 . S
C311 O320 1.247 . S
C311 O321 1.272 . S
O312 Co308 2.004 . S
O312 C317 1.259 . S
Co313 O314 2.061 . S
Co313 O319 2.052 . S
Co313 O321 2.135 . S
O314 Co313 2.061 . S
O314 C317 1.235 . S
C315 O318 1.238 . S
C315 O319 1.241 . S
C316 O309 1.247 . S
C316 O310 1.261 . S
C317 O312 1.259 . S
C317 O314 1.235 . S
O318 Co308 2.021 . S
O318 C315 1.238 . S
O319 Co313 2.052 . S
O319 C315 1.241 . S
O320 Co308 2.137 . S
O320 C311 1.247 . S
O321 Co308 2.244 . S
O321 C311 1.272 . S
O321 Co313 2.135 . S
Co322 O323 2.216 . S
Co322 O324 2.091 . S
Co322 O326 2.004 . S
Co322 O332 2.021 . S
Co322 O334 2.137 . S
Co322 O335 2.244 . S
O323 Co322 2.216 . S
O323 C330 1.247 . S
O324 Co322 2.091 . S
O324 C330 1.261 . S
C325 O334 1.247 . S
C325 O335 1.272 . S
O326 Co322 2.004 . S
O326 C331 1.259 . S
Co327 O328 2.061 . S
Co327 O333 2.052 . S
Co327 O335 2.135 . S
O328 Co327 2.061 . S
O328 C331 1.235 . S
C329 O332 1.238 . S
C329 O333 1.241 . S
C330 O323 1.247 . S
C330 O324 1.261 . S
C331 O326 1.259 . S
C331 O328 1.235 . S
O332 Co322 2.021 . S
O332 C329 1.238 . S
O333 Co327 2.052 . S
O333 C329 1.241 . S
O334 Co322 2.137 . S
O334 C325 1.247 . S
O335 Co322 2.244 . S
O335 C325 1.272 . S
O335 Co327 2.135 . S
Co336 O337 2.216 . S
Co336 O338 2.091 . S
Co336 O340 2.004 . S
Co336 O346 2.021 . S
Co336 O348 2.137 . S
Co336 O349 2.244 . S
O337 Co336 2.216 . S
O337 C344 1.247 . S
O338 Co336 2.091 . S
O338 C344 1.261 . S
C339 O348 1.247 . S
C339 O349 1.272 . S
O340 Co336 2.004 . S
O340 C345 1.259 . S
Co341 O342 2.061 . S
Co341 O347 2.052 . S
Co341 O349 2.135 . S
O342 Co341 2.061 . S
O342 C345 1.235 . S
C343 O346 1.238 . S
C343 O347 1.241 . S
C344 O337 1.247 . S
C344 O338 1.261 . S
C345 O340 1.259 . S
C345 O342 1.235 . S
O346 Co336 2.021 . S
O346 C343 1.238 . S
O347 Co341 2.052 . S
O347 C343 1.241 . S
O348 Co336 2.137 . S
O348 C339 1.247 . S
O349 Co336 2.244 . S
O349 C339 1.272 . S
O349 Co341 2.135 . S
Co350 O351 2.216 . S
Co350 O352 2.091 . S
Co350 O354 2.004 . S
Co350 O360 2.021 . S
Co350 O362 2.137 . S
Co350 O363 2.244 . S
O351 Co350 2.216 . S
O351 C358 1.247 . S
O352 Co350 2.091 . S
O352 C358 1.261 . S
C353 O362 1.247 . S
C353 O363 1.272 . S
O354 Co350 2.004 . S
O354 C359 1.259 . S
Co355 O356 2.061 . S
Co355 O361 2.052 . S
Co355 O363 2.135 . S
O356 Co355 2.061 . S
O356 C359 1.235 . S
C357 O360 1.238 . S
C357 O361 1.241 . S
C358 O351 1.247 . S
C358 O352 1.261 . S
C359 O354 1.259 . S
C359 O356 1.235 . S
O360 Co350 2.021 . S
O360 C357 1.238 . S
O361 Co355 2.052 . S
O361 C357 1.241 . S
O362 Co350 2.137 . S
O362 C353 1.247 . S
O363 Co350 2.244 . S
O363 C353 1.272 . S
O363 Co355 2.135 . S
Co364 O365 2.216 . S
Co364 O366 2.091 . S
Co364 O368 2.004 . S
Co364 O374 2.021 . S
Co364 O376 2.137 . S
Co364 O377 2.244 . S
O365 Co364 2.216 . S
O365 C372 1.247 . S
O366 Co364 2.091 . S
O366 C372 1.261 . S
C367 O376 1.247 . S
C367 O377 1.272 . S
O368 Co364 2.004 . S
O368 C373 1.259 . S
Co369 O370 2.061 . S
Co369 O375 2.052 . S
Co369 O377 2.135 . S
O370 Co369 2.061 . S
O370 C373 1.235 . S
C371 O374 1.238 . S
C371 O375 1.241 . S
C372 O365 1.247 . S
C372 O366 1.261 . S
C373 O368 1.259 . S
C373 O370 1.235 . S
O374 Co364 2.021 . S
O374 C371 1.238 . S
O375 Co369 2.052 . S
O375 C371 1.241 . S
O376 Co364 2.137 . S
O376 C367 1.247 . S
O377 Co364 2.244 . S
O377 C367 1.272 . S
O377 Co369 2.135 . S
Co378 O379 2.216 . S
Co378 O380 2.091 . S
Co378 O382 2.004 . S
Co378 O388 2.021 . S
Co378 O390 2.137 . S
Co378 O391 2.244 . S
O379 Co378 2.216 . S
O379 C386 1.247 . S
O380 Co378 2.091 . S
O380 C386 1.261 . S
C381 O390 1.247 . S
C381 O391 1.272 . S
O382 Co378 2.004 . S
O382 C387 1.259 . S
Co383 O384 2.061 . S
Co383 O389 2.052 . S
Co383 O391 2.135 . S
O384 Co383 2.061 . S
O384 C387 1.235 . S
C385 O388 1.238 . S
C385 O389 1.241 . S
C386 O379 1.247 . S
C386 O380 1.261 . S
C387 O382 1.259 . S
C387 O384 1.235 . S
O388 Co378 2.021 . S
O388 C385 1.238 . S
O389 Co383 2.052 . S
O389 C385 1.241 . S
O390 Co378 2.137 . S
O390 C381 1.247 . S
O391 Co378 2.244 . S
O391 C381 1.272 . S
O391 Co383 2.135 . S
Co392 O393 2.216 . S
Co392 O394 2.091 . S
Co392 O396 2.004 . S
Co392 O402 2.021 . S
Co392 O404 2.137 . S
Co392 O405 2.244 . S
O393 Co392 2.216 . S
O393 C400 1.247 . S
O394 Co392 2.091 . S
O394 C400 1.261 . S
C395 O404 1.247 . S
C395 O405 1.272 . S
O396 Co392 2.004 . S
O396 C401 1.259 . S
Co397 O398 2.061 . S
Co397 O403 2.052 . S
Co397 O405 2.135 . S
O398 Co397 2.061 . S
O398 C401 1.235 . S
C399 O402 1.238 . S
C399 O403 1.241 . S
C400 O393 1.247 . S
C400 O394 1.261 . S
C401 O396 1.259 . S
C401 O398 1.235 . S
O402 Co392 2.021 . S
O402 C399 1.238 . S
O403 Co397 2.052 . S
O403 C399 1.241 . S
O404 Co392 2.137 . S
O404 C395 1.247 . S
O405 Co392 2.244 . S
O405 C395 1.272 . S
O405 Co397 2.135 . S
Co406 O407 2.216 . S
Co406 O408 2.091 . S
Co406 O410 2.004 . S
Co406 O416 2.021 . S
Co406 O418 2.137 . S
Co406 O419 2.244 . S
O407 Co406 2.216 . S
O407 C414 1.247 . S
O408 Co406 2.091 . S
O408 C414 1.261 . S
C409 O418 1.247 . S
C409 O419 1.272 . S
O410 Co406 2.004 . S
O410 C415 1.259 . S
Co411 O412 2.061 . S
Co411 O417 2.052 . S
Co411 O419 2.135 . S
O412 Co411 2.061 . S
O412 C415 1.235 . S
C413 O416 1.238 . S
C413 O417 1.241 . S
C414 O407 1.247 . S
C414 O408 1.261 . S
C415 O410 1.259 . S
C415 O412 1.235 . S
O416 Co406 2.021 . S
O416 C413 1.238 . S
O417 Co411 2.052 . S
O417 C413 1.241 . S
O418 Co406 2.137 . S
O418 C409 1.247 . S
O419 Co406 2.244 . S
O419 C409 1.272 . S
O419 Co411 2.135 . S
Co420 O421 2.216 . S
Co420 O422 2.091 . S
Co420 O424 2.004 . S
Co420 O430 2.021 . S
Co420 O432 2.137 . S
Co420 O433 2.244 . S
O421 Co420 2.216 . S
O421 C428 1.247 . S
O422 Co420 2.091 . S
O422 C428 1.261 . S
C423 O432 1.247 . S
C423 O433 1.272 . S
O424 Co420 2.004 . S
O424 C429 1.259 . S
Co425 O426 2.061 . S
Co425 O431 2.052 . S
Co425 O433 2.135 . S
O426 Co425 2.061 . S
O426 C429 1.235 . S
C427 O430 1.238 . S
C427 O431 1.241 . S
C428 O421 1.247 . S
C428 O422 1.261 . S
C429 O424 1.259 . S
C429 O426 1.235 . S
O430 Co420 2.021 . S
O430 C427 1.238 . S
O431 Co425 2.052 . S
O431 C427 1.241 . S
O432 Co420 2.137 . S
O432 C423 1.247 . S
O433 Co420 2.244 . S
O433 C423 1.272 . S
O433 Co425 2.135 . S
Co434 O435 2.216 . S
Co434 O436 2.091 . S
Co434 O438 2.004 . S
Co434 O444 2.021 . S
Co434 O446 2.137 . S
Co434 O447 2.244 . S
O435 Co434 2.216 . S
O435 C442 1.247 . S
O436 Co434 2.091 . S
O436 C442 1.261 . S
C437 O446 1.247 . S
C437 O447 1.272 . S
O438 Co434 2.004 . S
O438 C443 1.259 . S
Co439 O440 2.061 . S
Co439 O445 2.052 . S
Co439 O447 2.135 . S
O440 Co439 2.061 . S
O440 C443 1.235 . S
C441 O444 1.238 . S
C441 O445 1.241 . S
C442 O435 1.247 . S
C442 O436 1.261 . S
C443 O438 1.259 . S
C443 O440 1.235 . S
O444 Co434 2.021 . S
O444 C441 1.238 . S
O445 Co439 2.052 . S
O445 C441 1.241 . S
O446 Co434 2.137 . S
O446 C437 1.247 . S
O447 Co434 2.244 . S
O447 C437 1.272 . S
O447 Co439 2.135 . S
Co448 O449 2.216 . S
Co448 O450 2.091 . S
Co448 O452 2.004 . S
Co448 O458 2.021 . S
Co448 O460 2.137 . S
Co448 O461 2.244 . S
O449 Co448 2.216 . S
O449 C456 1.247 . S
O450 Co448 2.091 . S
O450 C456 1.261 . S
C451 O460 1.247 . S
C451 O461 1.272 . S
O452 Co448 2.004 . S
O452 C457 1.259 . S
Co453 O454 2.061 . S
Co453 O459 2.052 . S
Co453 O461 2.135 . S
O454 Co453 2.061 . S
O454 C457 1.235 . S
C455 O458 1.238 . S
C455 O459 1.241 . S
C456 O449 1.247 . S
C456 O450 1.261 . S
C457 O452 1.259 . S
C457 O454 1.235 . S
O458 Co448 2.021 . S
O458 C455 1.238 . S
O459 Co453 2.052 . S
O459 C455 1.241 . S
O460 Co448 2.137 . S
O460 C451 1.247 . S
O461 Co448 2.244 . S
O461 C451 1.272 . S
O461 Co453 2.135 . S
Co462 O463 2.216 . S
Co462 O464 2.091 . S
Co462 O466 2.004 . S
Co462 O472 2.021 . S
Co462 O474 2.137 . S
Co462 O475 2.244 . S
O463 Co462 2.216 . S
O463 C470 1.247 . S
O464 Co462 2.091 . S
O464 C470 1.261 . S
C465 O474 1.247 . S
C465 O475 1.272 . S
O466 Co462 2.004 . S
O466 C471 1.259 . S
Co467 O468 2.061 . S
Co467 O473 2.052 . S
Co467 O475 2.135 . S
O468 Co467 2.061 . S
O468 C471 1.235 . S
C469 O472 1.238 . S
C469 O473 1.241 . S
C470 O463 1.247 . S
C470 O464 1.261 . S
C471 O466 1.259 . S
C471 O468 1.235 . S
O472 Co462 2.021 . S
O472 C469 1.238 . S
O473 Co467 2.052 . S
O473 C469 1.241 . S
O474 Co462 2.137 . S
O474 C465 1.247 . S
O475 Co462 2.244 . S
O475 C465 1.272 . S
O475 Co467 2.135 . S
Co476 O477 2.216 . S
Co476 O478 2.091 . S
Co476 O480 2.004 . S
Co476 O486 2.021 . S
Co476 O488 2.137 . S
Co476 O489 2.244 . S
O477 Co476 2.216 . S
O477 C484 1.247 . S
O478 Co476 2.091 . S
O478 C484 1.261 . S
C479 O488 1.247 . S
C479 O489 1.272 . S
O480 Co476 2.004 . S
O480 C485 1.259 . S
Co481 O482 2.061 . S
Co481 O487 2.052 . S
Co481 O489 2.135 . S
O482 Co481 2.061 . S
O482 C485 1.235 . S
C483 O486 1.238 . S
C483 O487 1.241 . S
C484 O477 1.247 . S
C484 O478 1.261 . S
C485 O480 1.259 . S
C485 O482 1.235 . S
O486 Co476 2.021 . S
O486 C483 1.238 . S
O487 Co481 2.052 . S
O487 C483 1.241 . S
O488 Co476 2.137 . S
O488 C479 1.247 . S
O489 Co476 2.244 . S
O489 C479 1.272 . S
O489 Co481 2.135 . S
Co490 O491 2.216 . S
Co490 O492 2.091 . S
Co490 O494 2.004 . S
Co490 O500 2.021 . S
Co490 O502 2.137 . S
Co490 O503 2.244 . S
O491 Co490 2.216 . S
O491 C498 1.247 . S
O492 Co490 2.091 . S
O492 C498 1.261 . S
C493 O502 1.247 . S
C493 O503 1.272 . S
O494 Co490 2.004 . S
O494 C499 1.259 . S
Co495 O496 2.061 . S
Co495 O501 2.052 . S
Co495 O503 2.135 . S
O496 Co495 2.061 . S
O496 C499 1.235 . S
C497 O500 1.238 . S
C497 O501 1.241 . S
C498 O491 1.247 . S
C498 O492 1.261 . S
C499 O494 1.259 . S
C499 O496 1.235 . S
O500 Co490 2.021 . S
O500 C497 1.238 . S
O501 Co495 2.052 . S
O501 C497 1.241 . S
O502 Co490 2.137 . S
O502 C493 1.247 . S
O503 Co490 2.244 . S
O503 C493 1.272 . S
O503 Co495 2.135 . S
H504 C510 0.930 . S
H505 C514 0.930 . S
H506 C519 0.929 . S
H507 C517 0.929 . S
H508 C512 0.929 1_565 S
H509 C518 0.929 1_545 S
C510 H504 0.930 . S
C510 C511 1.367 . S
C510 C518 1.378 . S
C511 C510 1.367 . S
C511 C519 1.433 . S
C512 H508 0.929 1_545 S
C512 C514 1.378 . S
C512 C516 1.350 . S
C513 C516 1.463 1_565 S
C513 C518 1.350 . S
C513 N521 1.427 . S
C514 H505 0.930 . S
C514 C512 1.378 . S
C514 C515 1.367 . S
C515 C514 1.367 . S
C515 C517 1.433 . S
C516 C512 1.350 . S
C516 C513 1.463 1_545 S
C516 N520 1.427 . S
C517 H507 0.929 . S
C517 C515 1.433 . S
C517 N520 1.384 . S
C518 H509 0.929 1_565 S
C518 C510 1.378 . S
C518 C513 1.350 . S
C519 H506 0.929 . S
C519 C511 1.433 . S
C519 N521 1.384 . S
N520 C516 1.427 . S
N520 C517 1.384 . S
N521 C513 1.427 . S
N521 C519 1.384 . S
H522 C528 0.930 . S
H523 C532 0.930 . S
H524 C537 0.929 . S
H525 C535 0.929 . S
H526 C530 0.929 . S
H527 C536 0.929 . S
C528 H522 0.930 . S
C528 C529 1.367 . S
C528 C536 1.378 . S
C529 C528 1.367 . S
C529 C537 1.433 . S
C530 H526 0.929 . S
C530 C532 1.378 . S
C530 C534 1.350 . S
C531 C534 1.463 1_655 S
C531 C536 1.350 . S
C531 N539 1.427 . S
C532 H523 0.930 . S
C532 C530 1.378 . S
C532 C533 1.367 . S
C533 C532 1.367 . S
C533 C535 1.433 . S
C534 C530 1.350 . S
C534 C531 1.463 1_455 S
C534 N538 1.427 . S
C535 H525 0.929 . S
C535 C533 1.433 . S
C535 N538 1.384 . S
C536 H527 0.929 . S
C536 C528 1.378 . S
C536 C531 1.350 . S
C537 H524 0.929 . S
C537 C529 1.433 . S
C537 N539 1.384 . S
N538 C534 1.427 . S
N538 C535 1.384 . S
N539 C531 1.427 . S
N539 C537 1.384 . S
H540 C546 0.930 . S
H541 C550 0.930 . S
H542 C555 0.929 . S
H543 C553 0.929 . S
H544 C548 0.929 . S
H545 C554 0.929 . S
C546 H540 0.930 . S
C546 C547 1.367 . S
C546 C554 1.378 . S
C547 C546 1.367 . S
C547 C555 1.433 . S
C548 H544 0.929 . S
C548 C550 1.378 . S
C548 C552 1.350 . S
C549 C552 1.463 . S
C549 C554 1.350 . S
C549 N557 1.427 . S
C550 H541 0.930 . S
C550 C548 1.378 . S
C550 C551 1.367 . S
C551 C550 1.367 . S
C551 C553 1.433 . S
C552 C548 1.350 . S
C552 C549 1.463 . S
C552 N556 1.427 . S
C553 H543 0.929 . S
C553 C551 1.433 . S
C553 N556 1.384 . S
C554 H545 0.929 . S
C554 C546 1.378 . S
C554 C549 1.350 . S
C555 H542 0.929 . S
C555 C547 1.433 . S
C555 N557 1.384 . S
N556 C552 1.427 . S
N556 C553 1.384 . S
N557 C549 1.427 . S
N557 C555 1.384 . S
H558 C564 0.930 . S
H559 C568 0.930 . S
H560 C573 0.929 . S
H561 C571 0.929 . S
H562 C566 0.929 1_565 S
H563 C572 0.929 1_545 S
C564 H558 0.930 . S
C564 C565 1.367 . S
C564 C572 1.378 . S
C565 C564 1.367 . S
C565 C573 1.433 . S
C566 H562 0.929 1_545 S
C566 C568 1.378 . S
C566 C570 1.350 . S
C567 C570 1.463 1_565 S
C567 C572 1.350 . S
C567 N575 1.427 . S
C568 H559 0.930 . S
C568 C566 1.378 . S
C568 C569 1.367 . S
C569 C568 1.367 . S
C569 C571 1.433 . S
C570 C566 1.350 . S
C570 C567 1.463 1_545 S
C570 N574 1.427 . S
C571 H561 0.929 . S
C571 C569 1.433 . S
C571 N574 1.384 . S
C572 H563 0.929 1_565 S
C572 C564 1.378 . S
C572 C567 1.350 . S
C573 H560 0.929 . S
C573 C565 1.433 . S
C573 N575 1.384 . S
N574 C570 1.427 . S
N574 C571 1.384 . S
N575 C567 1.427 . S
N575 C573 1.384 . S
H576 C582 0.930 . S
H577 C586 0.930 . S
H578 C591 0.929 . S
H579 C589 0.929 . S
H580 C584 0.929 . S
H581 C590 0.929 . S
C582 H576 0.930 . S
C582 C583 1.367 . S
C582 C590 1.378 . S
C583 C582 1.367 . S
C583 C591 1.433 . S
C584 H580 0.929 . S
C584 C586 1.378 . S
C584 C588 1.350 . S
C585 C588 1.463 1_455 S
C585 C590 1.350 . S
C585 N593 1.427 . S
C586 H577 0.930 . S
C586 C584 1.378 . S
C586 C587 1.367 . S
C587 C586 1.367 . S
C587 C589 1.433 . S
C588 C584 1.350 . S
C588 C585 1.463 1_655 S
C588 N592 1.427 . S
C589 H579 0.929 . S
C589 C587 1.433 . S
C589 N592 1.384 . S
C590 H581 0.929 . S
C590 C582 1.378 . S
C590 C585 1.350 . S
C591 H578 0.929 . S
C591 C583 1.433 . S
C591 N593 1.384 . S
N592 C588 1.427 . S
N592 C589 1.384 . S
N593 C585 1.427 . S
N593 C591 1.384 . S
H594 C600 0.930 . S
H595 C604 0.930 . S
H596 C609 0.929 . S
H597 C607 0.929 . S
H598 C602 0.929 . S
H599 C608 0.929 . S
C600 H594 0.930 . S
C600 C601 1.367 . S
C600 C608 1.378 . S
C601 C600 1.367 . S
C601 C609 1.433 . S
C602 H598 0.929 . S
C602 C604 1.378 . S
C602 C606 1.350 . S
C603 C606 1.463 . S
C603 C608 1.350 . S
C603 N611 1.427 . S
C604 H595 0.930 . S
C604 C602 1.378 . S
C604 C605 1.367 . S
C605 C604 1.367 . S
C605 C607 1.433 . S
C606 C602 1.350 . S
C606 C603 1.463 . S
C606 N610 1.427 . S
C607 H597 0.929 . S
C607 C605 1.433 . S
C607 N610 1.384 . S
C608 H599 0.929 . S
C608 C600 1.378 . S
C608 C603 1.350 . S
C609 H596 0.929 . S
C609 C601 1.433 . S
C609 N611 1.384 . S
N610 C606 1.427 . S
N610 C607 1.384 . S
N611 C603 1.427 . S
N611 C609 1.384 . S
H612 C618 0.930 . S
H613 C622 0.930 . S
H614 C627 0.929 . S
H615 C625 0.929 . S
H616 C620 0.929 . S
H617 C626 0.929 . S
C618 H612 0.930 . S
C618 C619 1.367 . S
C618 C626 1.378 . S
C619 C618 1.367 . S
C619 C627 1.433 . S
C620 H616 0.929 . S
C620 C622 1.378 . S
C620 C624 1.350 . S
C621 C624 1.463 . S
C621 C626 1.350 . S
C621 N629 1.427 . S
C622 H613 0.930 . S
C622 C620 1.378 . S
C622 C623 1.367 . S
C623 C622 1.367 . S
C623 C625 1.433 . S
C624 C620 1.350 . S
C624 C621 1.463 . S
C624 N628 1.427 . S
C625 H615 0.929 . S
C625 C623 1.433 . S
C625 N628 1.384 . S
C626 H617 0.929 . S
C626 C618 1.378 . S
C626 C621 1.350 . S
C627 H614 0.929 . S
C627 C619 1.433 . S
C627 N629 1.384 . S
N628 C624 1.427 . S
N628 C625 1.384 . S
N629 C621 1.427 . S
N629 C627 1.384 . S
H630 C636 0.930 . S
H631 C640 0.930 . S
H632 C645 0.929 . S
H633 C643 0.929 . S
H634 C638 0.929 . S
H635 C644 0.929 . S
C636 H630 0.930 . S
C636 C637 1.367 . S
C636 C644 1.378 . S
C637 C636 1.367 . S
C637 C645 1.433 . S
C638 H634 0.929 . S
C638 C640 1.378 . S
C638 C642 1.350 . S
C639 C642 1.463 . S
C639 C644 1.350 . S
C639 N647 1.427 . S
C640 H631 0.930 . S
C640 C638 1.378 . S
C640 C641 1.367 . S
C641 C640 1.367 . S
C641 C643 1.433 . S
C642 C638 1.350 . S
C642 C639 1.463 . S
C642 N646 1.427 . S
C643 H633 0.929 . S
C643 C641 1.433 . S
C643 N646 1.384 . S
C644 H635 0.929 . S
C644 C636 1.378 . S
C644 C639 1.350 . S
C645 H632 0.929 . S
C645 C637 1.433 . S
C645 N647 1.384 . S
N646 C642 1.427 . S
N646 C643 1.384 . S
N647 C639 1.427 . S
N647 C645 1.384 . S
H648 C654 0.930 . S
H649 C658 0.930 . S
H650 C663 0.929 . S
H651 C661 0.929 . S
H652 C656 0.929 . S
H653 C662 0.929 . S
C654 H648 0.930 . S
C654 C655 1.367 . S
C654 C662 1.378 . S
C655 C654 1.367 . S
C655 C663 1.433 . S
C656 H652 0.929 . S
C656 C658 1.378 . S
C656 C660 1.350 . S
C657 C660 1.463 . S
C657 C662 1.350 . S
C657 N665 1.427 . S
C658 H649 0.930 . S
C658 C656 1.378 . S
C658 C659 1.367 . S
C659 C658 1.367 . S
C659 C661 1.433 . S
C660 C656 1.350 . S
C660 C657 1.463 . S
C660 N664 1.427 . S
C661 H651 0.929 . S
C661 C659 1.433 . S
C661 N664 1.384 . S
C662 H653 0.929 . S
C662 C654 1.378 . S
C662 C657 1.350 . S
C663 H650 0.929 . S
C663 C655 1.433 . S
C663 N665 1.384 . S
N664 C660 1.427 . S
N664 C661 1.384 . S
N665 C657 1.427 . S
N665 C663 1.384 . S
H666 C672 0.930 . S
H667 C676 0.930 . S
H668 C681 0.929 . S
H669 C679 0.929 . S
H670 C674 0.929 . S
H671 C680 0.929 . S
C672 H666 0.930 . S
C672 C673 1.367 . S
C672 C680 1.378 . S
C673 C672 1.367 . S
C673 C681 1.433 . S
C674 H670 0.929 . S
C674 C676 1.378 1_554 S
C674 C678 1.350 . S
C675 C678 1.463 . S
C675 C680 1.350 . S
C675 N683 1.427 . S
C676 H667 0.930 . S
C676 C674 1.378 1_556 S
C676 C677 1.367 . S
C677 C676 1.367 . S
C677 C679 1.433 . S
C678 C674 1.350 . S
C678 C675 1.463 . S
C678 N682 1.427 . S
C679 H669 0.929 . S
C679 C677 1.433 . S
C679 N682 1.384 1_556 S
C680 H671 0.929 . S
C680 C672 1.378 . S
C680 C675 1.350 . S
C681 H668 0.929 . S
C681 C673 1.433 . S
C681 N683 1.384 . S
N682 C678 1.427 . S
N682 C679 1.384 1_554 S
N683 C675 1.427 . S
N683 C681 1.384 . S
H684 C690 0.930 . S
H685 C694 0.930 . S
H686 C699 0.929 . S
H687 C697 0.929 . S
H688 C692 0.929 . S
H689 C698 0.929 . S
C690 H684 0.930 . S
C690 C691 1.367 . S
C690 C698 1.378 . S
C691 C690 1.367 . S
C691 C699 1.433 . S
C692 H688 0.929 . S
C692 C694 1.378 . S
C692 C696 1.350 1_556 S
C693 C696 1.463 . S
C693 C698 1.350 . S
C693 N701 1.427 . S
C694 H685 0.930 . S
C694 C692 1.378 . S
C694 C695 1.367 . S
C695 C694 1.367 . S
C695 C697 1.433 1_556 S
C696 C692 1.350 1_554 S
C696 C693 1.463 . S
C696 N700 1.427 . S
C697 H687 0.929 . S
C697 C695 1.433 1_554 S
C697 N700 1.384 . S
C698 H689 0.929 . S
C698 C690 1.378 . S
C698 C693 1.350 . S
C699 H686 0.929 . S
C699 C691 1.433 . S
C699 N701 1.384 . S
N700 C696 1.427 . S
N700 C697 1.384 . S
N701 C693 1.427 . S
N701 C699 1.384 . S
H702 C708 0.930 . S
H703 C712 0.930 . S
H704 C717 0.929 . S
H705 C715 0.929 . S
H706 C710 0.929 . S
H707 C716 0.929 . S
C708 H702 0.930 . S
C708 C709 1.367 . S
C708 C716 1.378 . S
C709 C708 1.367 . S
C709 C717 1.433 . S
C710 H706 0.929 . S
C710 C712 1.378 . S
C710 C714 1.350 . S
C711 C714 1.463 . S
C711 C716 1.350 . S
C711 N719 1.427 . S
C712 H703 0.930 . S
C712 C710 1.378 . S
C712 C713 1.367 1_554 S
C713 C712 1.367 1_556 S
C713 C715 1.433 . S
C714 C710 1.350 . S
C714 C711 1.463 . S
C714 N718 1.427 . S
C715 H705 0.929 . S
C715 C713 1.433 . S
C715 N718 1.384 1_556 S
C716 H707 0.929 . S
C716 C708 1.378 . S
C716 C711 1.350 . S
C717 H704 0.929 . S
C717 C709 1.433 . S
C717 N719 1.384 . S
N718 C714 1.427 . S
N718 C715 1.384 1_554 S
N719 C711 1.427 . S
N719 C717 1.384 . S
H720 C726 0.930 . S
H721 C730 0.930 . S
H722 C735 0.929 . S
H723 C733 0.929 . S
H724 C728 0.929 . S
H725 C734 0.929 . S
C726 H720 0.930 . S
C726 C727 1.367 . S
C726 C734 1.378 . S
C727 C726 1.367 . S
C727 C735 1.433 . S
C728 H724 0.929 . S
C728 C730 1.378 . S
C728 C732 1.350 . S
C729 C732 1.463 . S
C729 C734 1.350 . S
C729 N737 1.427 . S
C730 H721 0.930 . S
C730 C728 1.378 . S
C730 C731 1.367 1_556 S
C731 C730 1.367 1_554 S
C731 C733 1.433 . S
C732 C728 1.350 . S
C732 C729 1.463 . S
C732 N736 1.427 . S
C733 H723 0.929 . S
C733 C731 1.433 . S
C733 N736 1.384 1_554 S
C734 H725 0.929 . S
C734 C726 1.378 . S
C734 C729 1.350 . S
C735 H722 0.929 . S
C735 C727 1.433 . S
C735 N737 1.384 . S
N736 C732 1.427 . S
N736 C733 1.384 1_556 S
N737 C729 1.427 . S
N737 C735 1.384 . S
H738 C744 0.930 . S
H739 C748 0.930 . S
H740 C753 0.929 . S
H741 C751 0.929 . S
H742 C746 0.929 . S
H743 C752 0.929 . S
C744 H738 0.930 . S
C744 C745 1.367 1_556 S
C744 C752 1.378 . S
C745 C744 1.367 1_554 S
C745 C753 1.433 . S
C746 H742 0.929 . S
C746 C748 1.378 . S
C746 C750 1.350 . S
C747 C750 1.463 . S
C747 C752 1.350 . S
C747 N755 1.427 . S
C748 H739 0.930 . S
C748 C746 1.378 . S
C748 C749 1.367 . S
C749 C748 1.367 . S
C749 C751 1.433 . S
C750 C746 1.350 . S
C750 C747 1.463 . S
C750 N754 1.427 . S
C751 H741 0.929 . S
C751 C749 1.433 . S
C751 N754 1.384 . S
C752 H743 0.929 . S
C752 C744 1.378 . S
C752 C747 1.350 . S
C753 H740 0.929 . S
C753 C745 1.433 . S
C753 N755 1.384 1_554 S
N754 C750 1.427 . S
N754 C751 1.384 . S
N755 C747 1.427 . S
N755 C753 1.384 1_556 S
H756 C762 0.930 . S
H757 C766 0.930 . S
H758 C771 0.929 . S
H759 C769 0.929 . S
H760 C764 0.929 . S
H761 C770 0.929 . S
C762 H756 0.930 . S
C762 C763 1.367 . S
C762 C770 1.378 . S
C763 C762 1.367 . S
C763 C771 1.433 . S
C764 H760 0.929 . S
C764 C766 1.378 . S
C764 C768 1.350 . S
C765 C768 1.463 . S
C765 C770 1.350 . S
C765 N773 1.427 . S
C766 H757 0.930 . S
C766 C764 1.378 . S
C766 C767 1.367 1_556 S
C767 C766 1.367 1_554 S
C767 C769 1.433 . S
C768 C764 1.350 . S
C768 C765 1.463 . S
C768 N772 1.427 . S
C769 H759 0.929 . S
C769 C767 1.433 . S
C769 N772 1.384 1_554 S
C770 H761 0.929 . S
C770 C762 1.378 . S
C770 C765 1.350 . S
C771 H758 0.929 . S
C771 C763 1.433 . S
C771 N773 1.384 . S
N772 C768 1.427 . S
N772 C769 1.384 1_556 S
N773 C765 1.427 . S
N773 C771 1.384 . S
H774 C780 0.930 . S
H775 C784 0.930 . S
H776 C789 0.929 . S
H777 C787 0.929 . S
H778 C782 0.929 . S
H779 C788 0.929 . S
C780 H774 0.930 . S
C780 C781 1.367 . S
C780 C788 1.378 . S
C781 C780 1.367 . S
C781 C789 1.433 . S
C782 H778 0.929 . S
C782 C784 1.378 . S
C782 C786 1.350 . S
C783 C786 1.463 . S
C783 C788 1.350 . S
C783 N791 1.427 . S
C784 H775 0.930 . S
C784 C782 1.378 . S
C784 C785 1.367 . S
C785 C784 1.367 . S
C785 C787 1.433 . S
C786 C782 1.350 . S
C786 C783 1.463 . S
C786 N790 1.427 . S
C787 H777 0.929 . S
C787 C785 1.433 . S
C787 N790 1.384 . S
C788 H779 0.929 . S
C788 C780 1.378 . S
C788 C783 1.350 . S
C789 H776 0.929 . S
C789 C781 1.433 . S
C789 N791 1.384 . S
N790 C786 1.427 . S
N790 C787 1.384 . S
N791 C783 1.427 . S
N791 C789 1.384 . S
H792 C798 0.930 . S
H793 C802 0.930 . S
H794 C807 0.929 . S
H795 C805 0.929 . S
H796 C800 0.929 . S
H797 C806 0.929 . S
C798 H792 0.930 . S
C798 C799 1.367 . S
C798 C806 1.378 . S
C799 C798 1.367 . S
C799 C807 1.433 . S
C800 H796 0.929 . S
C800 C802 1.378 . S
C800 C804 1.350 . S
C801 C804 1.463 . S
C801 C806 1.350 . S
C801 N809 1.427 . S
C802 H793 0.930 . S
C802 C800 1.378 . S
C802 C803 1.367 . S
C803 C802 1.367 . S
C803 C805 1.433 . S
C804 C800 1.350 . S
C804 C801 1.463 . S
C804 N808 1.427 . S
C805 H795 0.929 . S
C805 C803 1.433 . S
C805 N808 1.384 . S
C806 H797 0.929 . S
C806 C798 1.378 . S
C806 C801 1.350 . S
C807 H794 0.929 . S
C807 C799 1.433 . S
C807 N809 1.384 . S
N808 C804 1.427 . S
N808 C805 1.384 . S
N809 C801 1.427 . S
N809 C807 1.384 . S
H810 C816 0.930 . S
H811 C820 0.930 . S
H812 C825 0.929 . S
H813 C823 0.929 . S
H814 C818 0.929 . S
H815 C824 0.929 . S
C816 H810 0.930 . S
C816 C817 1.367 . S
C816 C824 1.378 . S
C817 C816 1.367 . S
C817 C825 1.433 . S
C818 H814 0.929 . S
C818 C820 1.378 . S
C818 C822 1.350 . S
C819 C822 1.463 . S
C819 C824 1.350 . S
C819 N827 1.427 . S
C820 H811 0.930 . S
C820 C818 1.378 . S
C820 C821 1.367 . S
C821 C820 1.367 . S
C821 C823 1.433 . S
C822 C818 1.350 . S
C822 C819 1.463 . S
C822 N826 1.427 . S
C823 H813 0.929 . S
C823 C821 1.433 . S
C823 N826 1.384 . S
C824 H815 0.929 . S
C824 C816 1.378 . S
C824 C819 1.350 . S
C825 H812 0.929 . S
C825 C817 1.433 . S
C825 N827 1.384 . S
N826 C822 1.427 . S
N826 C823 1.384 . S
N827 C819 1.427 . S
N827 C825 1.384 . S
H828 C834 0.930 . S
H829 C838 0.930 . S
H830 C843 0.929 . S
H831 C841 0.929 . S
H832 C836 0.929 . S
H833 C842 0.929 . S
C834 H828 0.930 . S
C834 C835 1.367 . S
C834 C842 1.378 . S
C835 C834 1.367 . S
C835 C843 1.433 . S
C836 H832 0.929 . S
C836 C838 1.378 . S
C836 C840 1.350 . S
C837 C840 1.463 . S
C837 C842 1.350 . S
C837 N845 1.427 . S
C838 H829 0.930 . S
C838 C836 1.378 . S
C838 C839 1.367 . S
C839 C838 1.367 . S
C839 C841 1.433 . S
C840 C836 1.350 . S
C840 C837 1.463 . S
C840 N844 1.427 . S
C841 H831 0.929 . S
C841 C839 1.433 . S
C841 N844 1.384 . S
C842 H833 0.929 . S
C842 C834 1.378 . S
C842 C837 1.350 . S
C843 H830 0.929 . S
C843 C835 1.433 . S
C843 N845 1.384 . S
N844 C840 1.427 . S
N844 C841 1.384 . S
N845 C837 1.427 . S
N845 C843 1.384 . S
H846 C852 0.930 . S
H847 C856 0.930 . S
H848 C861 0.929 . S
H849 C859 0.929 . S
H850 C854 0.929 . S
H851 C860 0.929 . S
C852 H846 0.930 . S
C852 C853 1.367 . S
C852 C860 1.378 . S
C853 C852 1.367 . S
C853 C861 1.433 . S
C854 H850 0.929 . S
C854 C856 1.378 . S
C854 C858 1.350 . S
C855 C858 1.463 . S
C855 C860 1.350 . S
C855 N863 1.427 . S
C856 H847 0.930 . S
C856 C854 1.378 . S
C856 C857 1.367 . S
C857 C856 1.367 . S
C857 C859 1.433 . S
C858 C854 1.350 . S
C858 C855 1.463 . S
C858 N862 1.427 . S
C859 H849 0.929 . S
C859 C857 1.433 . S
C859 N862 1.384 . S
C860 H851 0.929 . S
C860 C852 1.378 . S
C860 C855 1.350 . S
C861 H848 0.929 . S
C861 C853 1.433 . S
C861 N863 1.384 . S
N862 C858 1.427 . S
N862 C859 1.384 . S
N863 C855 1.427 . S
N863 C861 1.384 . S
H864 C870 0.930 . S
H865 C874 0.930 . S
H866 C879 0.929 . S
H867 C877 0.929 . S
H868 C872 0.929 . S
H869 C878 0.929 . S
C870 H864 0.930 . S
C870 C871 1.367 . S
C870 C878 1.378 . S
C871 C870 1.367 . S
C871 C879 1.433 . S
C872 H868 0.929 . S
C872 C874 1.378 . S
C872 C876 1.350 . S
C873 C876 1.463 . S
C873 C878 1.350 . S
C873 N881 1.427 . S
C874 H865 0.930 . S
C874 C872 1.378 . S
C874 C875 1.367 . S
C875 C874 1.367 . S
C875 C877 1.433 . S
C876 C872 1.350 . S
C876 C873 1.463 . S
C876 N880 1.427 . S
C877 H867 0.929 . S
C877 C875 1.433 . S
C877 N880 1.384 . S
C878 H869 0.929 . S
C878 C870 1.378 . S
C878 C873 1.350 . S
C879 H866 0.929 . S
C879 C871 1.433 . S
C879 N881 1.384 . S
N880 C876 1.427 . S
N880 C877 1.384 . S
N881 C873 1.427 . S
N881 C879 1.384 . S
H882 C888 0.930 . S
H883 C892 0.930 . S
H884 C897 0.929 . S
H885 C895 0.929 . S
H886 C890 0.929 . S
H887 C896 0.929 . S
C888 H882 0.930 . S
C888 C889 1.367 . S
C888 C896 1.378 . S
C889 C888 1.367 . S
C889 C897 1.433 . S
C890 H886 0.929 . S
C890 C892 1.378 . S
C890 C894 1.350 . S
C891 C894 1.463 . S
C891 C896 1.350 . S
C891 N899 1.427 . S
C892 H883 0.930 . S
C892 C890 1.378 . S
C892 C893 1.367 . S
C893 C892 1.367 . S
C893 C895 1.433 . S
C894 C890 1.350 . S
C894 C891 1.463 . S
C894 N898 1.427 . S
C895 H885 0.929 . S
C895 C893 1.433 . S
C895 N898 1.384 . S
C896 H887 0.929 . S
C896 C888 1.378 . S
C896 C891 1.350 . S
C897 H884 0.929 . S
C897 C889 1.433 . S
C897 N899 1.384 . S
N898 C894 1.427 . S
N898 C895 1.384 . S
N899 C891 1.427 . S
N899 C897 1.384 . S
H900 C906 0.930 . S
H901 C910 0.930 . S
H902 C915 0.929 . S
H903 C913 0.929 . S
H904 C908 0.929 . S
H905 C914 0.929 . S
C906 H900 0.930 . S
C906 C907 1.367 . S
C906 C914 1.378 . S
C907 C906 1.367 . S
C907 C915 1.433 . S
C908 H904 0.929 . S
C908 C910 1.378 . S
C908 C912 1.350 . S
C909 C912 1.463 . S
C909 C914 1.350 . S
C909 N917 1.427 . S
C910 H901 0.930 . S
C910 C908 1.378 . S
C910 C911 1.367 . S
C911 C910 1.367 . S
C911 C913 1.433 . S
C912 C908 1.350 . S
C912 C909 1.463 . S
C912 N916 1.427 . S
C913 H903 0.929 . S
C913 C911 1.433 . S
C913 N916 1.384 . S
C914 H905 0.929 . S
C914 C906 1.378 . S
C914 C909 1.350 . S
C915 H902 0.929 . S
C915 C907 1.433 . S
C915 N917 1.384 . S
N916 C912 1.427 . S
N916 C913 1.384 . S
N917 C909 1.427 . S
N917 C915 1.384 . S
H918 C924 0.930 . S
H919 C928 0.930 . S
H920 C933 0.929 . S
H921 C931 0.929 . S
H922 C926 0.929 . S
H923 C932 0.929 . S
C924 H918 0.930 . S
C924 C925 1.367 . S
C924 C932 1.378 . S
C925 C924 1.367 . S
C925 C933 1.433 . S
C926 H922 0.929 . S
C926 C928 1.378 . S
C926 C930 1.350 . S
C927 C930 1.463 . S
C927 C932 1.350 . S
C927 N935 1.427 . S
C928 H919 0.930 . S
C928 C926 1.378 . S
C928 C929 1.367 . S
C929 C928 1.367 . S
C929 C931 1.433 . S
C930 C926 1.350 . S
C930 C927 1.463 . S
C930 N934 1.427 . S
C931 H921 0.929 . S
C931 C929 1.433 . S
C931 N934 1.384 . S
C932 H923 0.929 . S
C932 C924 1.378 . S
C932 C927 1.350 . S
C933 H920 0.929 . S
C933 C925 1.433 . S
C933 N935 1.384 . S
N934 C930 1.427 . S
N934 C931 1.384 . S
N935 C927 1.427 . S
N935 C933 1.384 . S
H936 C942 0.930 . S
H937 C946 0.930 . S
H938 C951 0.929 . S
H939 C949 0.929 . S
H940 C944 0.929 . S
H941 C950 0.929 . S
C942 H936 0.930 . S
C942 C943 1.367 . S
C942 C950 1.378 . S
C943 C942 1.367 . S
C943 C951 1.433 . S
C944 H940 0.929 . S
C944 C946 1.378 . S
C944 C948 1.350 . S
C945 C948 1.463 . S
C945 C950 1.350 . S
C945 N953 1.427 . S
C946 H937 0.930 . S
C946 C944 1.378 . S
C946 C947 1.367 . S
C947 C946 1.367 . S
C947 C949 1.433 . S
C948 C944 1.350 . S
C948 C945 1.463 . S
C948 N952 1.427 . S
C949 H939 0.929 . S
C949 C947 1.433 . S
C949 N952 1.384 . S
C950 H941 0.929 . S
C950 C942 1.378 . S
C950 C945 1.350 . S
C951 H938 0.929 . S
C951 C943 1.433 . S
C951 N953 1.384 . S
N952 C948 1.427 . S
N952 C949 1.384 . S
N953 C945 1.427 . S
N953 C951 1.384 . S
H954 C960 0.930 . S
H955 C964 0.930 . S
H956 C969 0.929 . S
H957 C967 0.929 . S
H958 C962 0.929 . S
H959 C968 0.929 . S
C960 H954 0.930 . S
C960 C961 1.367 . S
C960 C968 1.378 . S
C961 C960 1.367 . S
C961 C969 1.433 . S
C962 H958 0.929 . S
C962 C964 1.378 . S
C962 C966 1.350 . S
C963 C966 1.463 . S
C963 C968 1.350 . S
C963 N971 1.427 . S
C964 H955 0.930 . S
C964 C962 1.378 . S
C964 C965 1.367 . S
C965 C964 1.367 . S
C965 C967 1.433 . S
C966 C962 1.350 . S
C966 C963 1.463 . S
C966 N970 1.427 . S
C967 H957 0.929 . S
C967 C965 1.433 . S
C967 N970 1.384 . S
C968 H959 0.929 . S
C968 C960 1.378 . S
C968 C963 1.350 . S
C969 H956 0.929 . S
C969 C961 1.433 . S
C969 N971 1.384 . S
N970 C966 1.427 . S
N970 C967 1.384 . S
N971 C963 1.427 . S
N971 C969 1.384 . S
H972 C978 0.930 . S
H973 C982 0.930 . S
H974 C987 0.929 . S
H975 C985 0.929 . S
H976 C980 0.929 . S
H977 C986 0.929 . S
C978 H972 0.930 . S
C978 C979 1.367 . S
C978 C986 1.378 . S
C979 C978 1.367 . S
C979 C987 1.433 . S
C980 H976 0.929 . S
C980 C982 1.378 . S
C980 C984 1.350 . S
C981 C984 1.463 . S
C981 C986 1.350 . S
C981 N989 1.427 . S
C982 H973 0.930 . S
C982 C980 1.378 . S
C982 C983 1.367 . S
C983 C982 1.367 . S
C983 C985 1.433 . S
C984 C980 1.350 . S
C984 C981 1.463 . S
C984 N988 1.427 . S
C985 H975 0.929 . S
C985 C983 1.433 . S
C985 N988 1.384 . S
C986 H977 0.929 . S
C986 C978 1.378 . S
C986 C981 1.350 . S
C987 H974 0.929 . S
C987 C979 1.433 . S
C987 N989 1.384 . S
N988 C984 1.427 . S
N988 C985 1.384 . S
N989 C981 1.427 . S
N989 C987 1.384 . S
H990 C996 0.930 . S
H991 C1000 0.930 . S
H992 C1005 0.929 . S
H993 C1003 0.929 . S
H994 C998 0.929 . S
H995 C1004 0.929 . S
C996 H990 0.930 . S
C996 C997 1.367 . S
C996 C1004 1.378 . S
C997 C996 1.367 . S
C997 C1005 1.433 . S
C998 H994 0.929 . S
C998 C1000 1.378 . S
C998 C1002 1.350 . S
C999 C1002 1.463 . S
C999 C1004 1.350 . S
C999 N1007 1.427 . S
C1000 H991 0.930 . S
C1000 C998 1.378 . S
C1000 C1001 1.367 . S
C1001 C1000 1.367 . S
C1001 C1003 1.433 . S
C1002 C998 1.350 . S
C1002 C999 1.463 . S
C1002 N1006 1.427 . S
C1003 H993 0.929 . S
C1003 C1001 1.433 . S
C1003 N1006 1.384 . S
C1004 H995 0.929 . S
C1004 C996 1.378 . S
C1004 C999 1.350 . S
C1005 H992 0.929 . S
C1005 C997 1.433 . S
C1005 N1007 1.384 . S
N1006 C1002 1.427 . S
N1006 C1003 1.384 . S
N1007 C999 1.427 . S
N1007 C1005 1.384 . S
H1008 C1014 0.930 . S
H1009 C1018 0.930 . S
H1010 C1023 0.929 . S
H1011 C1021 0.929 . S
H1012 C1016 0.929 . S
H1013 C1022 0.929 . S
C1014 H1008 0.930 . S
C1014 C1015 1.367 . S
C1014 C1022 1.378 . S
C1015 C1014 1.367 . S
C1015 C1023 1.433 . S
C1016 H1012 0.929 . S
C1016 C1018 1.378 . S
C1016 C1020 1.350 . S
C1017 C1020 1.463 . S
C1017 C1022 1.350 . S
C1017 N1025 1.427 . S
C1018 H1009 0.930 . S
C1018 C1016 1.378 . S
C1018 C1019 1.367 . S
C1019 C1018 1.367 . S
C1019 C1021 1.433 . S
C1020 C1016 1.350 . S
C1020 C1017 1.463 . S
C1020 N1024 1.427 . S
C1021 H1011 0.929 . S
C1021 C1019 1.433 . S
C1021 N1024 1.384 . S
C1022 H1013 0.929 . S
C1022 C1014 1.378 . S
C1022 C1017 1.350 . S
C1023 H1010 0.929 . S
C1023 C1015 1.433 . S
C1023 N1025 1.384 . S
N1024 C1020 1.427 . S
N1024 C1021 1.384 . S
N1025 C1017 1.427 . S
N1025 C1023 1.384 . S
H1026 C1032 0.930 . S
H1027 C1036 0.930 . S
H1028 C1041 0.929 . S
H1029 C1039 0.929 . S
H1030 C1034 0.929 . S
H1031 C1040 0.929 . S
C1032 H1026 0.930 . S
C1032 C1033 1.367 . S
C1032 C1040 1.378 . S
C1033 C1032 1.367 . S
C1033 C1041 1.433 . S
C1034 H1030 0.929 . S
C1034 C1036 1.378 . S
C1034 C1038 1.350 . S
C1035 C1038 1.463 . S
C1035 C1040 1.350 . S
C1035 N1043 1.427 . S
C1036 H1027 0.930 . S
C1036 C1034 1.378 . S
C1036 C1037 1.367 . S
C1037 C1036 1.367 . S
C1037 C1039 1.433 . S
C1038 C1034 1.350 . S
C1038 C1035 1.463 . S
C1038 N1042 1.427 . S
C1039 H1029 0.929 . S
C1039 C1037 1.433 . S
C1039 N1042 1.384 . S
C1040 H1031 0.929 . S
C1040 C1032 1.378 . S
C1040 C1035 1.350 . S
C1041 H1028 0.929 . S
C1041 C1033 1.433 . S
C1041 N1043 1.384 . S
N1042 C1038 1.427 . S
N1042 C1039 1.384 . S
N1043 C1035 1.427 . S
N1043 C1041 1.384 . S
H1044 C1050 0.930 . S
H1045 C1054 0.930 1_556 S
H1046 C1059 0.929 . S
H1047 C1057 0.929 . S
H1048 C1052 0.929 . S
H1049 C1058 0.929 . S
C1050 H1044 0.930 . S
C1050 C1051 1.367 . S
C1050 C1058 1.378 . S
C1051 C1050 1.367 . S
C1051 C1059 1.433 . S
C1052 H1048 0.929 . S
C1052 C1054 1.378 . S
C1052 C1056 1.350 . S
C1053 C1056 1.463 . S
C1053 C1058 1.350 . S
C1053 N1061 1.427 . S
C1054 H1045 0.930 1_554 S
C1054 C1052 1.378 . S
C1054 C1055 1.367 . S
C1055 C1054 1.367 . S
C1055 C1057 1.433 . S
C1056 C1052 1.350 . S
C1056 C1053 1.463 . S
C1056 N1060 1.427 . S
C1057 H1047 0.929 . S
C1057 C1055 1.433 . S
C1057 N1060 1.384 . S
C1058 H1049 0.929 . S
C1058 C1050 1.378 . S
C1058 C1053 1.350 . S
C1059 H1046 0.929 . S
C1059 C1051 1.433 . S
C1059 N1061 1.384 . S
N1060 C1056 1.427 . S
N1060 C1057 1.384 . S
N1061 C1053 1.427 . S
N1061 C1059 1.384 . S
H1062 C1068 0.930 . S
H1063 C1072 0.930 . S
H1064 C1077 0.929 . S
H1065 C1075 0.929 1_556 S
H1066 C1070 0.929 . S
H1067 C1076 0.929 . S
C1068 H1062 0.930 . S
C1068 C1069 1.367 . S
C1068 C1076 1.378 . S
C1069 C1068 1.367 . S
C1069 C1077 1.433 . S
C1070 H1066 0.929 . S
C1070 C1072 1.378 . S
C1070 C1074 1.350 . S
C1071 C1074 1.463 . S
C1071 C1076 1.350 . S
C1071 N1079 1.427 . S
C1072 H1063 0.930 . S
C1072 C1070 1.378 . S
C1072 C1073 1.367 . S
C1073 C1072 1.367 . S
C1073 C1075 1.433 . S
C1074 C1070 1.350 . S
C1074 C1071 1.463 . S
C1074 N1078 1.427 . S
C1075 H1065 0.929 1_554 S
C1075 C1073 1.433 . S
C1075 N1078 1.384 . S
C1076 H1067 0.929 . S
C1076 C1068 1.378 . S
C1076 C1071 1.350 . S
C1077 H1064 0.929 . S
C1077 C1069 1.433 . S
C1077 N1079 1.384 . S
N1078 C1074 1.427 . S
N1078 C1075 1.384 . S
N1079 C1071 1.427 . S
N1079 C1077 1.384 . S
H1080 C1086 0.930 1_556 S
H1081 C1090 0.930 . S
H1082 C1095 0.929 . S
H1083 C1093 0.929 . S
H1084 C1088 0.929 . S
H1085 C1094 0.929 . S
C1086 H1080 0.930 1_554 S
C1086 C1087 1.367 . S
C1086 C1094 1.378 . S
C1087 C1086 1.367 . S
C1087 C1095 1.433 . S
C1088 H1084 0.929 . S
C1088 C1090 1.378 . S
C1088 C1092 1.350 . S
C1089 C1092 1.463 . S
C1089 C1094 1.350 . S
C1089 N1097 1.427 . S
C1090 H1081 0.930 . S
C1090 C1088 1.378 . S
C1090 C1091 1.367 . S
C1091 C1090 1.367 . S
C1091 C1093 1.433 . S
C1092 C1088 1.350 . S
C1092 C1089 1.463 . S
C1092 N1096 1.427 . S
C1093 H1083 0.929 . S
C1093 C1091 1.433 . S
C1093 N1096 1.384 . S
C1094 H1085 0.929 . S
C1094 C1086 1.378 . S
C1094 C1089 1.350 . S
C1095 H1082 0.929 . S
C1095 C1087 1.433 . S
C1095 N1097 1.384 . S
N1096 C1092 1.427 . S
N1096 C1093 1.384 . S
N1097 C1089 1.427 . S
N1097 C1095 1.384 . S
H1098 C1104 0.930 . S
H1099 C1108 0.930 . S
H1100 C1113 0.929 . S
H1101 C1111 0.929 . S
H1102 C1106 0.929 . S
H1103 C1112 0.929 . S
C1104 H1098 0.930 . S
C1104 C1105 1.367 . S
C1104 C1112 1.378 . S
C1105 C1104 1.367 . S
C1105 C1113 1.433 . S
C1106 H1102 0.929 . S
C1106 C1108 1.378 . S
C1106 C1110 1.350 . S
C1107 C1110 1.463 . S
C1107 C1112 1.350 1_554 S
C1107 N1115 1.427 1_554 S
C1108 H1099 0.930 . S
C1108 C1106 1.378 . S
C1108 C1109 1.367 . S
C1109 C1108 1.367 . S
C1109 C1111 1.433 . S
C1110 C1106 1.350 . S
C1110 C1107 1.463 . S
C1110 N1114 1.427 . S
C1111 H1101 0.929 . S
C1111 C1109 1.433 . S
C1111 N1114 1.384 . S
C1112 H1103 0.929 . S
C1112 C1104 1.378 . S
C1112 C1107 1.350 1_556 S
C1113 H1100 0.929 . S
C1113 C1105 1.433 . S
C1113 N1115 1.384 . S
N1114 C1110 1.427 . S
N1114 C1111 1.384 . S
N1115 C1107 1.427 1_556 S
N1115 C1113 1.384 . S
H1116 C1122 0.930 . S
H1117 C1126 0.930 . S
H1118 C1131 0.929 . S
H1119 C1129 0.929 . S
H1120 C1124 0.929 . S
H1121 C1130 0.929 . S
C1122 H1116 0.930 . S
C1122 C1123 1.367 . S
C1122 C1130 1.378 . S
C1123 C1122 1.367 . S
C1123 C1131 1.433 . S
C1124 H1120 0.929 . S
C1124 C1126 1.378 . S
C1124 C1128 1.350 . S
C1125 C1128 1.463 . S
C1125 C1130 1.350 1_554 S
C1125 N1133 1.427 . S
C1126 H1117 0.930 . S
C1126 C1124 1.378 . S
C1126 C1127 1.367 . S
C1127 C1126 1.367 . S
C1127 C1129 1.433 . S
C1128 C1124 1.350 . S
C1128 C1125 1.463 . S
C1128 N1132 1.427 . S
C1129 H1119 0.929 . S
C1129 C1127 1.433 . S
C1129 N1132 1.384 . S
C1130 H1121 0.929 . S
C1130 C1122 1.378 . S
C1130 C1125 1.350 1_556 S
C1131 H1118 0.929 . S
C1131 C1123 1.433 . S
C1131 N1133 1.384 1_556 S
N1132 C1128 1.427 . S
N1132 C1129 1.384 . S
N1133 C1125 1.427 . S
N1133 C1131 1.384 1_554 S
H1134 C1140 0.930 . S
H1135 C1144 0.930 . S
H1136 C1149 0.929 . S
H1137 C1147 0.929 . S
H1138 C1142 0.929 . S
H1139 C1148 0.929 . S
C1140 H1134 0.930 . S
C1140 C1141 1.367 . S
C1140 C1148 1.378 . S
C1141 C1140 1.367 . S
C1141 C1149 1.433 . S
C1142 H1138 0.929 . S
C1142 C1144 1.378 . S
C1142 C1146 1.350 . S
C1143 C1146 1.463 . S
C1143 C1148 1.350 1_554 S
C1143 N1151 1.427 . S
C1144 H1135 0.930 . S
C1144 C1142 1.378 . S
C1144 C1145 1.367 . S
C1145 C1144 1.367 . S
C1145 C1147 1.433 . S
C1146 C1142 1.350 . S
C1146 C1143 1.463 . S
C1146 N1150 1.427 . S
C1147 H1137 0.929 . S
C1147 C1145 1.433 . S
C1147 N1150 1.384 . S
C1148 H1139 0.929 . S
C1148 C1140 1.378 . S
C1148 C1143 1.350 1_556 S
C1149 H1136 0.929 . S
C1149 C1141 1.433 . S
C1149 N1151 1.384 1_556 S
N1150 C1146 1.427 . S
N1150 C1147 1.384 . S
N1151 C1143 1.427 . S
N1151 C1149 1.384 1_554 S
H1152 C1158 0.930 . S
H1153 C1162 0.930 . S
H1154 C1167 0.929 . S
H1155 C1165 0.929 . S
H1156 C1160 0.929 . S
H1157 C1166 0.929 . S
C1158 H1152 0.930 . S
C1158 C1159 1.367 . S
C1158 C1166 1.378 . S
C1159 C1158 1.367 . S
C1159 C1167 1.433 . S
C1160 H1156 0.929 . S
C1160 C1162 1.378 . S
C1160 C1164 1.350 . S
C1161 C1164 1.463 . S
C1161 C1166 1.350 . S
C1161 N1169 1.427 . S
C1162 H1153 0.930 . S
C1162 C1160 1.378 . S
C1162 C1163 1.367 . S
C1163 C1162 1.367 . S
C1163 C1165 1.433 . S
C1164 C1160 1.350 . S
C1164 C1161 1.463 . S
C1164 N1168 1.427 . S
C1165 H1155 0.929 . S
C1165 C1163 1.433 . S
C1165 N1168 1.384 . S
C1166 H1157 0.929 . S
C1166 C1158 1.378 . S
C1166 C1161 1.350 . S
C1167 H1154 0.929 . S
C1167 C1159 1.433 . S
C1167 N1169 1.384 . S
N1168 C1164 1.427 . S
N1168 C1165 1.384 . S
N1169 C1161 1.427 . S
N1169 C1167 1.384 . S
H1170 C1176 0.930 . S
H1171 C1180 0.930 . S
H1172 C1185 0.929 . S
H1173 C1183 0.929 . S
H1174 C1178 0.929 . S
H1175 C1184 0.929 . S
C1176 H1170 0.930 . S
C1176 C1177 1.367 . S
C1176 C1184 1.378 . S
C1177 C1176 1.367 . S
C1177 C1185 1.433 . S
C1178 H1174 0.929 . S
C1178 C1180 1.378 . S
C1178 C1182 1.350 . S
C1179 C1182 1.463 . S
C1179 C1184 1.350 . S
C1179 N1187 1.427 . S
C1180 H1171 0.930 . S
C1180 C1178 1.378 . S
C1180 C1181 1.367 . S
C1181 C1180 1.367 . S
C1181 C1183 1.433 . S
C1182 C1178 1.350 . S
C1182 C1179 1.463 . S
C1182 N1186 1.427 . S
C1183 H1173 0.929 . S
C1183 C1181 1.433 . S
C1183 N1186 1.384 . S
C1184 H1175 0.929 . S
C1184 C1176 1.378 . S
C1184 C1179 1.350 . S
C1185 H1172 0.929 . S
C1185 C1177 1.433 . S
C1185 N1187 1.384 . S
N1186 C1182 1.427 . S
N1186 C1183 1.384 . S
N1187 C1179 1.427 . S
N1187 C1185 1.384 . S
H1188 C1194 0.930 . S
H1189 C1198 0.930 . S
H1190 C1203 0.929 . S
H1191 C1201 0.929 . S
H1192 C1196 0.929 . S
H1193 C1202 0.929 . S
C1194 H1188 0.930 . S
C1194 C1195 1.367 . S
C1194 C1202 1.378 . S
C1195 C1194 1.367 . S
C1195 C1203 1.433 . S
C1196 H1192 0.929 . S
C1196 C1198 1.378 . S
C1196 C1200 1.350 . S
C1197 C1200 1.463 . S
C1197 C1202 1.350 . S
C1197 N1205 1.427 . S
C1198 H1189 0.930 . S
C1198 C1196 1.378 . S
C1198 C1199 1.367 . S
C1199 C1198 1.367 . S
C1199 C1201 1.433 . S
C1200 C1196 1.350 . S
C1200 C1197 1.463 . S
C1200 N1204 1.427 . S
C1201 H1191 0.929 . S
C1201 C1199 1.433 . S
C1201 N1204 1.384 . S
C1202 H1193 0.929 . S
C1202 C1194 1.378 . S
C1202 C1197 1.350 . S
C1203 H1190 0.929 . S
C1203 C1195 1.433 . S
C1203 N1205 1.384 . S
N1204 C1200 1.427 . S
N1204 C1201 1.384 . S
N1205 C1197 1.427 . S
N1205 C1203 1.384 . S
H1206 C1212 0.930 . S
H1207 C1216 0.930 . S
H1208 C1221 0.929 . S
H1209 C1219 0.929 . S
H1210 C1214 0.929 . S
H1211 C1220 0.929 . S
C1212 H1206 0.930 . S
C1212 C1213 1.367 . S
C1212 C1220 1.378 . S
C1213 C1212 1.367 . S
C1213 C1221 1.433 . S
C1214 H1210 0.929 . S
C1214 C1216 1.378 . S
C1214 C1218 1.350 . S
C1215 C1218 1.463 . S
C1215 C1220 1.350 . S
C1215 N1223 1.427 . S
C1216 H1207 0.930 . S
C1216 C1214 1.378 . S
C1216 C1217 1.367 . S
C1217 C1216 1.367 . S
C1217 C1219 1.433 . S
C1218 C1214 1.350 . S
C1218 C1215 1.463 . S
C1218 N1222 1.427 . S
C1219 H1209 0.929 . S
C1219 C1217 1.433 . S
C1219 N1222 1.384 . S
C1220 H1211 0.929 . S
C1220 C1212 1.378 . S
C1220 C1215 1.350 . S
C1221 H1208 0.929 . S
C1221 C1213 1.433 . S
C1221 N1223 1.384 . S
N1222 C1218 1.427 . S
N1222 C1219 1.384 . S
N1223 C1215 1.427 . S
N1223 C1221 1.384 . S
H1224 C1230 0.930 . S
H1225 C1234 0.930 . S
H1226 C1239 0.929 . S
H1227 C1237 0.929 . S
H1228 C1232 0.929 . S
H1229 C1238 0.929 . S
C1230 H1224 0.930 . S
C1230 C1231 1.367 . S
C1230 C1238 1.378 . S
C1231 C1230 1.367 . S
C1231 C1239 1.433 . S
C1232 H1228 0.929 . S
C1232 C1234 1.378 . S
C1232 C1236 1.350 . S
C1233 C1236 1.463 . S
C1233 C1238 1.350 . S
C1233 N1241 1.427 . S
C1234 H1225 0.930 . S
C1234 C1232 1.378 . S
C1234 C1235 1.367 . S
C1235 C1234 1.367 . S
C1235 C1237 1.433 . S
C1236 C1232 1.350 . S
C1236 C1233 1.463 . S
C1236 N1240 1.427 . S
C1237 H1227 0.929 . S
C1237 C1235 1.433 . S
C1237 N1240 1.384 . S
C1238 H1229 0.929 . S
C1238 C1230 1.378 . S
C1238 C1233 1.350 . S
C1239 H1226 0.929 . S
C1239 C1231 1.433 . S
C1239 N1241 1.384 . S
N1240 C1236 1.427 . S
N1240 C1237 1.384 . S
N1241 C1233 1.427 . S
N1241 C1239 1.384 . S
H1242 C1248 0.930 . S
H1243 C1252 0.930 . S
H1244 C1257 0.929 . S
H1245 C1255 0.929 . S
H1246 C1250 0.929 . S
H1247 C1256 0.929 . S
C1248 H1242 0.930 . S
C1248 C1249 1.367 . S
C1248 C1256 1.378 . S
C1249 C1248 1.367 . S
C1249 C1257 1.433 . S
C1250 H1246 0.929 . S
C1250 C1252 1.378 . S
C1250 C1254 1.350 . S
C1251 C1254 1.463 . S
C1251 C1256 1.350 . S
C1251 N1259 1.427 . S
C1252 H1243 0.930 . S
C1252 C1250 1.378 . S
C1252 C1253 1.367 . S
C1253 C1252 1.367 . S
C1253 C1255 1.433 . S
C1254 C1250 1.350 . S
C1254 C1251 1.463 . S
C1254 N1258 1.427 . S
C1255 H1245 0.929 . S
C1255 C1253 1.433 . S
C1255 N1258 1.384 . S
C1256 H1247 0.929 . S
C1256 C1248 1.378 . S
C1256 C1251 1.350 . S
C1257 H1244 0.929 . S
C1257 C1249 1.433 . S
C1257 N1259 1.384 . S
N1258 C1254 1.427 . S
N1258 C1255 1.384 . S
N1259 C1251 1.427 . S
N1259 C1257 1.384 . S
H1260 C1266 0.930 . S
H1261 C1270 0.930 . S
H1262 C1275 0.929 . S
H1263 C1273 0.929 . S
H1264 C1268 0.929 . S
H1265 C1274 0.929 . S
C1266 H1260 0.930 . S
C1266 C1267 1.367 . S
C1266 C1274 1.378 . S
C1267 C1266 1.367 . S
C1267 C1275 1.433 . S
C1268 H1264 0.929 . S
C1268 C1270 1.378 . S
C1268 C1272 1.350 . S
C1269 C1272 1.463 . S
C1269 C1274 1.350 . S
C1269 N1277 1.427 . S
C1270 H1261 0.930 . S
C1270 C1268 1.378 . S
C1270 C1271 1.367 . S
C1271 C1270 1.367 . S
C1271 C1273 1.433 . S
C1272 C1268 1.350 . S
C1272 C1269 1.463 . S
C1272 N1276 1.427 . S
C1273 H1263 0.929 . S
C1273 C1271 1.433 . S
C1273 N1276 1.384 . S
C1274 H1265 0.929 . S
C1274 C1266 1.378 . S
C1274 C1269 1.350 . S
C1275 H1262 0.929 . S
C1275 C1267 1.433 . S
C1275 N1277 1.384 . S
N1276 C1272 1.427 . S
N1276 C1273 1.384 . S
N1277 C1269 1.427 . S
N1277 C1275 1.384 . S
H1278 C1284 0.930 . S
H1279 C1288 0.930 . S
H1280 C1293 0.929 . S
H1281 C1291 0.929 . S
H1282 C1286 0.929 . S
H1283 C1292 0.929 . S
C1284 H1278 0.930 . S
C1284 C1285 1.367 . S
C1284 C1292 1.378 . S
C1285 C1284 1.367 . S
C1285 C1293 1.433 . S
C1286 H1282 0.929 . S
C1286 C1288 1.378 . S
C1286 C1290 1.350 . S
C1287 C1290 1.463 . S
C1287 C1292 1.350 . S
C1287 N1295 1.427 . S
C1288 H1279 0.930 . S
C1288 C1286 1.378 . S
C1288 C1289 1.367 . S
C1289 C1288 1.367 . S
C1289 C1291 1.433 . S
C1290 C1286 1.350 . S
C1290 C1287 1.463 . S
C1290 N1294 1.427 . S
C1291 H1281 0.929 . S
C1291 C1289 1.433 . S
C1291 N1294 1.384 . S
C1292 H1283 0.929 . S
C1292 C1284 1.378 . S
C1292 C1287 1.350 . S
C1293 H1280 0.929 . S
C1293 C1285 1.433 . S
C1293 N1295 1.384 . S
N1294 C1290 1.427 . S
N1294 C1291 1.384 . S
N1295 C1287 1.427 . S
N1295 C1293 1.384 . S
H1296 C1302 0.930 . S
H1297 C1306 0.930 . S
H1298 C1311 0.929 . S
H1299 C1309 0.929 . S
H1300 C1304 0.929 . S
H1301 C1310 0.929 . S
C1302 H1296 0.930 . S
C1302 C1303 1.367 . S
C1302 C1310 1.378 . S
C1303 C1302 1.367 . S
C1303 C1311 1.433 . S
C1304 H1300 0.929 . S
C1304 C1306 1.378 . S
C1304 C1308 1.350 . S
C1305 C1308 1.463 . S
C1305 C1310 1.350 . S
C1305 N1313 1.427 . S
C1306 H1297 0.930 . S
C1306 C1304 1.378 . S
C1306 C1307 1.367 . S
C1307 C1306 1.367 . S
C1307 C1309 1.433 . S
C1308 C1304 1.350 . S
C1308 C1305 1.463 . S
C1308 N1312 1.427 . S
C1309 H1299 0.929 . S
C1309 C1307 1.433 . S
C1309 N1312 1.384 . S
C1310 H1301 0.929 . S
C1310 C1302 1.378 . S
C1310 C1305 1.350 . S
C1311 H1298 0.929 . S
C1311 C1303 1.433 . S
C1311 N1313 1.384 . S
N1312 C1308 1.427 . S
N1312 C1309 1.384 . S
N1313 C1305 1.427 . S
N1313 C1311 1.384 . S
H1314 C1320 0.930 . S
H1315 C1324 0.930 . S
H1316 C1329 0.929 . S
H1317 C1327 0.929 . S
H1318 C1322 0.929 . S
H1319 C1328 0.929 . S
C1320 H1314 0.930 . S
C1320 C1321 1.367 . S
C1320 C1328 1.378 . S
C1321 C1320 1.367 . S
C1321 C1329 1.433 . S
C1322 H1318 0.929 . S
C1322 C1324 1.378 . S
C1322 C1326 1.350 . S
C1323 C1326 1.463 . S
C1323 C1328 1.350 . S
C1323 N1331 1.427 . S
C1324 H1315 0.930 . S
C1324 C1322 1.378 . S
C1324 C1325 1.367 . S
C1325 C1324 1.367 . S
C1325 C1327 1.433 . S
C1326 C1322 1.350 . S
C1326 C1323 1.463 . S
C1326 N1330 1.427 . S
C1327 H1317 0.929 . S
C1327 C1325 1.433 . S
C1327 N1330 1.384 . S
C1328 H1319 0.929 . S
C1328 C1320 1.378 . S
C1328 C1323 1.350 . S
C1329 H1316 0.929 . S
C1329 C1321 1.433 . S
C1329 N1331 1.384 . S
N1330 C1326 1.427 . S
N1330 C1327 1.384 . S
N1331 C1323 1.427 . S
N1331 C1329 1.384 . S
H1332 C1338 0.930 . S
H1333 C1342 0.930 . S
H1334 C1347 0.929 . S
H1335 C1345 0.929 . S
H1336 C1340 0.929 . S
H1337 C1346 0.929 . S
C1338 H1332 0.930 . S
C1338 C1339 1.367 . S
C1338 C1346 1.378 . S
C1339 C1338 1.367 . S
C1339 C1347 1.433 . S
C1340 H1336 0.929 . S
C1340 C1342 1.378 . S
C1340 C1344 1.350 . S
C1341 C1344 1.463 . S
C1341 C1346 1.350 . S
C1341 N1349 1.427 . S
C1342 H1333 0.930 . S
C1342 C1340 1.378 . S
C1342 C1343 1.367 . S
C1343 C1342 1.367 . S
C1343 C1345 1.433 . S
C1344 C1340 1.350 . S
C1344 C1341 1.463 . S
C1344 N1348 1.427 . S
C1345 H1335 0.929 . S
C1345 C1343 1.433 . S
C1345 N1348 1.384 . S
C1346 H1337 0.929 . S
C1346 C1338 1.378 . S
C1346 C1341 1.350 . S
C1347 H1334 0.929 . S
C1347 C1339 1.433 . S
C1347 N1349 1.384 . S
N1348 C1344 1.427 . S
N1348 C1345 1.384 . S
N1349 C1341 1.427 . S
N1349 C1347 1.384 . S
H1350 C1356 0.930 . S
H1351 C1360 0.930 . S
H1352 C1365 0.929 . S
H1353 C1363 0.929 . S
H1354 C1358 0.929 . S
H1355 C1364 0.929 . S
C1356 H1350 0.930 . S
C1356 C1357 1.367 . S
C1356 C1364 1.378 . S
C1357 C1356 1.367 . S
C1357 C1365 1.433 . S
C1358 H1354 0.929 . S
C1358 C1360 1.378 . S
C1358 C1362 1.350 . S
C1359 C1362 1.463 . S
C1359 C1364 1.350 . S
C1359 N1367 1.427 . S
C1360 H1351 0.930 . S
C1360 C1358 1.378 . S
C1360 C1361 1.367 . S
C1361 C1360 1.367 . S
C1361 C1363 1.433 . S
C1362 C1358 1.350 . S
C1362 C1359 1.463 . S
C1362 N1366 1.427 . S
C1363 H1353 0.929 . S
C1363 C1361 1.433 . S
C1363 N1366 1.384 . S
C1364 H1355 0.929 . S
C1364 C1356 1.378 . S
C1364 C1359 1.350 . S
C1365 H1352 0.929 . S
C1365 C1357 1.433 . S
C1365 N1367 1.384 . S
N1366 C1362 1.427 . S
N1366 C1363 1.384 . S
N1367 C1359 1.427 . S
N1367 C1365 1.384 . S
H1368 C1374 0.930 . S
H1369 C1378 0.930 1_554 S
H1370 C1383 0.929 . S
H1371 C1381 0.929 . S
H1372 C1376 0.929 . S
H1373 C1382 0.929 . S
C1374 H1368 0.930 . S
C1374 C1375 1.367 . S
C1374 C1382 1.378 . S
C1375 C1374 1.367 . S
C1375 C1383 1.433 . S
C1376 H1372 0.929 . S
C1376 C1378 1.378 . S
C1376 C1380 1.350 . S
C1377 C1380 1.463 . S
C1377 C1382 1.350 . S
C1377 N1385 1.427 . S
C1378 H1369 0.930 1_556 S
C1378 C1376 1.378 . S
C1378 C1379 1.367 . S
C1379 C1378 1.367 . S
C1379 C1381 1.433 . S
C1380 C1376 1.350 . S
C1380 C1377 1.463 . S
C1380 N1384 1.427 . S
C1381 H1371 0.929 . S
C1381 C1379 1.433 . S
C1381 N1384 1.384 . S
C1382 H1373 0.929 . S
C1382 C1374 1.378 . S
C1382 C1377 1.350 . S
C1383 H1370 0.929 . S
C1383 C1375 1.433 . S
C1383 N1385 1.384 . S
N1384 C1380 1.427 . S
N1384 C1381 1.384 . S
N1385 C1377 1.427 . S
N1385 C1383 1.384 . S
H1386 C1392 0.930 . S
H1387 C1396 0.930 . S
H1388 C1401 0.929 1_554 S
H1389 C1399 0.929 . S
H1390 C1394 0.929 . S
H1391 C1400 0.929 . S
C1392 H1386 0.930 . S
C1392 C1393 1.367 . S
C1392 C1400 1.378 . S
C1393 C1392 1.367 . S
C1393 C1401 1.433 . S
C1394 H1390 0.929 . S
C1394 C1396 1.378 . S
C1394 C1398 1.350 . S
C1395 C1398 1.463 . S
C1395 C1400 1.350 . S
C1395 N1403 1.427 . S
C1396 H1387 0.930 . S
C1396 C1394 1.378 . S
C1396 C1397 1.367 . S
C1397 C1396 1.367 . S
C1397 C1399 1.433 . S
C1398 C1394 1.350 . S
C1398 C1395 1.463 . S
C1398 N1402 1.427 . S
C1399 H1389 0.929 . S
C1399 C1397 1.433 . S
C1399 N1402 1.384 . S
C1400 H1391 0.929 . S
C1400 C1392 1.378 . S
C1400 C1395 1.350 . S
C1401 H1388 0.929 1_556 S
C1401 C1393 1.433 . S
C1401 N1403 1.384 . S
N1402 C1398 1.427 . S
N1402 C1399 1.384 . S
N1403 C1395 1.427 . S
N1403 C1401 1.384 . S
H1404 C1410 0.930 . S
H1405 C1414 0.930 . S
H1406 C1419 0.929 . S
H1407 C1417 0.929 . S
H1408 C1412 0.929 . S
H1409 C1418 0.929 . S
C1410 H1404 0.930 . S
C1410 C1411 1.367 . S
C1410 C1418 1.378 . S
C1411 C1410 1.367 . S
C1411 C1419 1.433 . S
C1412 H1408 0.929 . S
C1412 C1414 1.378 . S
C1412 C1416 1.350 . S
C1413 C1416 1.463 . S
C1413 C1418 1.350 . S
C1413 N1421 1.427 . S
C1414 H1405 0.930 . S
C1414 C1412 1.378 . S
C1414 C1415 1.367 . S
C1415 C1414 1.367 . S
C1415 C1417 1.433 . S
C1416 C1412 1.350 . S
C1416 C1413 1.463 . S
C1416 N1420 1.427 . S
C1417 H1407 0.929 . S
C1417 C1415 1.433 . S
C1417 N1420 1.384 . S
C1418 H1409 0.929 . S
C1418 C1410 1.378 . S
C1418 C1413 1.350 . S
C1419 H1406 0.929 . S
C1419 C1411 1.433 . S
C1419 N1421 1.384 . S
N1420 C1416 1.427 . S
N1420 C1417 1.384 . S
N1421 C1413 1.427 . S
N1421 C1419 1.384 . S
H1422 C1428 0.930 . S
H1423 C1432 0.930 . S
H1424 C1437 0.929 . S
H1425 C1435 0.929 . S
H1426 C1430 0.919 1_556 S
H1427 C1436 0.929 . S
C1428 H1422 0.930 . S
C1428 C1429 1.367 . S
C1428 C1436 1.378 . S
C1429 C1428 1.367 . S
C1429 C1437 1.433 . S
C1430 H1426 0.919 1_554 S
C1430 C1432 1.390 . S
C1430 C1434 1.348 1_554 S
C1431 C1434 1.463 . S
C1431 C1436 1.350 . S
C1431 N1439 1.427 . S
C1432 H1423 0.930 . S
C1432 C1430 1.390 . S
C1432 C1433 1.367 . S
C1433 C1432 1.367 . S
C1433 C1435 1.433 . S
C1434 C1430 1.348 1_556 S
C1434 C1431 1.463 . S
C1434 N1438 1.427 1_556 S
C1435 H1425 0.929 . S
C1435 C1433 1.433 . S
C1435 N1438 1.384 . S
C1436 H1427 0.929 . S
C1436 C1428 1.378 . S
C1436 C1431 1.350 . S
C1437 H1424 0.929 . S
C1437 C1429 1.433 . S
C1437 N1439 1.384 . S
N1438 C1434 1.427 1_554 S
N1438 C1435 1.384 . S
N1439 C1431 1.427 . S
N1439 C1437 1.384 . S
H1440 C1446 0.930 . S
H1441 C1450 0.930 . S
H1442 C1455 0.929 . S
H1443 C1453 0.929 . S
H1444 C1448 0.929 . S
H1445 C1454 0.929 . S
C1446 H1440 0.930 . S
C1446 C1447 1.367 . S
C1446 C1454 1.378 . S
C1447 C1446 1.367 . S
C1447 C1455 1.433 . S
C1448 H1444 0.929 . S
C1448 C1450 1.378 1_556 S
C1448 C1452 1.350 . S
C1449 C1452 1.463 . S
C1449 C1454 1.350 . S
C1449 N1457 1.427 . S
C1450 H1441 0.930 . S
C1450 C1448 1.378 1_554 S
C1450 C1451 1.367 . S
C1451 C1450 1.367 . S
C1451 C1453 1.433 . S
C1452 C1448 1.350 . S
C1452 C1449 1.463 . S
C1452 N1456 1.427 1_556 S
C1453 H1443 0.929 . S
C1453 C1451 1.433 . S
C1453 N1456 1.384 . S
C1454 H1445 0.929 . S
C1454 C1446 1.378 . S
C1454 C1449 1.350 . S
C1455 H1442 0.929 . S
C1455 C1447 1.433 . S
C1455 N1457 1.384 . S
N1456 C1452 1.427 1_554 S
N1456 C1453 1.384 . S
N1457 C1449 1.427 . S
N1457 C1455 1.384 . S
H1458 C1464 0.930 . S
H1459 C1468 0.930 . S
H1460 C1473 0.929 . S
H1461 C1471 0.929 . S
H1462 C1466 0.929 . S
H1463 C1472 0.929 . S
C1464 H1458 0.930 . S
C1464 C1465 1.367 . S
C1464 C1472 1.378 . S
C1465 C1464 1.367 . S
C1465 C1473 1.433 . S
C1466 H1462 0.929 . S
C1466 C1468 1.378 . S
C1466 C1470 1.350 1_554 S
C1467 C1470 1.463 . S
C1467 C1472 1.350 . S
C1467 N1475 1.427 . S
C1468 H1459 0.930 . S
C1468 C1466 1.378 . S
C1468 C1469 1.367 . S
C1469 C1468 1.367 . S
C1469 C1471 1.433 . S
C1470 C1466 1.350 1_556 S
C1470 C1467 1.463 . S
C1470 N1474 1.427 . S
C1471 H1461 0.929 . S
C1471 C1469 1.433 . S
C1471 N1474 1.384 1_554 S
C1472 H1463 0.929 . S
C1472 C1464 1.378 . S
C1472 C1467 1.350 . S
C1473 H1460 0.929 . S
C1473 C1465 1.433 . S
C1473 N1475 1.384 . S
N1474 C1470 1.427 . S
N1474 C1471 1.384 1_556 S
N1475 C1467 1.427 . S
N1475 C1473 1.384 . S
H1476 C1482 0.930 . S
H1477 C1486 0.930 1_554 S
H1478 C1491 0.929 . S
H1479 C1489 0.929 . S
H1480 C1484 0.929 . S
H1481 C1490 0.929 . S
C1482 H1476 0.930 . S
C1482 C1483 1.367 . S
C1482 C1490 1.378 . S
C1483 C1482 1.367 . S
C1483 C1491 1.433 . S
C1484 H1480 0.929 . S
C1484 C1486 1.378 . S
C1484 C1488 1.350 . S
C1485 C1488 1.463 . S
C1485 C1490 1.350 . S
C1485 N1493 1.427 . S
C1486 H1477 0.930 1_556 S
C1486 C1484 1.378 . S
C1486 C1487 1.367 . S
C1487 C1486 1.367 . S
C1487 C1489 1.433 . S
C1488 C1484 1.350 . S
C1488 C1485 1.463 . S
C1488 N1492 1.427 . S
C1489 H1479 0.929 . S
C1489 C1487 1.433 . S
C1489 N1492 1.384 . S
C1490 H1481 0.929 . S
C1490 C1482 1.378 . S
C1490 C1485 1.350 . S
C1491 H1478 0.929 . S
C1491 C1483 1.433 . S
C1491 N1493 1.384 . S
N1492 C1488 1.427 . S
N1492 C1489 1.384 . S
N1493 C1485 1.427 . S
N1493 C1491 1.384 . S
H1494 C1500 0.930 . S
H1495 C1504 0.930 . S
H1496 C1509 0.929 1_554 S
H1497 C1507 0.929 . S
H1498 C1502 0.929 . S
H1499 C1508 0.929 . S
C1500 H1494 0.930 . S
C1500 C1501 1.367 . S
C1500 C1508 1.378 . S
C1501 C1500 1.367 . S
C1501 C1509 1.433 . S
C1502 H1498 0.929 . S
C1502 C1504 1.378 . S
C1502 C1506 1.350 . S
C1503 C1506 1.463 . S
C1503 C1508 1.350 . S
C1503 N1511 1.427 . S
C1504 H1495 0.930 . S
C1504 C1502 1.378 . S
C1504 C1505 1.367 . S
C1505 C1504 1.367 . S
C1505 C1507 1.433 . S
C1506 C1502 1.350 . S
C1506 C1503 1.463 . S
C1506 N1510 1.427 . S
C1507 H1497 0.929 . S
C1507 C1505 1.433 . S
C1507 N1510 1.384 . S
C1508 H1499 0.929 . S
C1508 C1500 1.378 . S
C1508 C1503 1.350 . S
C1509 H1496 0.929 1_556 S
C1509 C1501 1.433 . S
C1509 N1511 1.384 . S
N1510 C1506 1.427 . S
N1510 C1507 1.384 . S
N1511 C1503 1.427 . S
N1511 C1509 1.384 . S
H1512 C1518 0.930 . S
H1513 C1522 0.930 . S
H1514 C1527 0.929 . S
H1515 C1525 0.929 . S
H1516 C1520 0.929 1_554 S
H1517 C1526 0.929 . S
C1518 H1512 0.930 . S
C1518 C1519 1.367 . S
C1518 C1526 1.378 . S
C1519 C1518 1.367 . S
C1519 C1527 1.433 . S
C1520 H1516 0.929 1_556 S
C1520 C1522 1.378 1_556 S
C1520 C1524 1.350 . S
C1521 C1524 1.463 . S
C1521 C1526 1.350 . S
C1521 N1529 1.427 . S
C1522 H1513 0.930 . S
C1522 C1520 1.378 1_554 S
C1522 C1523 1.367 1_554 S
C1523 C1522 1.367 1_556 S
C1523 C1525 1.433 . S
C1524 C1520 1.350 . S
C1524 C1521 1.463 . S
C1524 N1528 1.427 . S
C1525 H1515 0.929 . S
C1525 C1523 1.433 . S
C1525 N1528 1.384 . S
C1526 H1517 0.929 . S
C1526 C1518 1.378 . S
C1526 C1521 1.350 . S
C1527 H1514 0.929 . S
C1527 C1519 1.433 . S
C1527 N1529 1.384 . S
N1528 C1524 1.427 . S
N1528 C1525 1.384 . S
N1529 C1521 1.427 . S
N1529 C1527 1.384 . S
H1530 C1536 0.930 . S
H1531 C1540 0.930 . S
H1532 C1545 0.929 . S
H1533 C1543 0.929 . S
H1534 C1538 0.929 . S
H1535 C1544 0.929 . S
C1536 H1530 0.930 . S
C1536 C1537 1.367 . S
C1536 C1544 1.378 . S
C1537 C1536 1.367 . S
C1537 C1545 1.433 . S
C1538 H1534 0.929 . S
C1538 C1540 1.378 . S
C1538 C1542 1.350 . S
C1539 C1542 1.463 . S
C1539 C1544 1.350 . S
C1539 N1547 1.427 . S
C1540 H1531 0.930 . S
C1540 C1538 1.378 . S
C1540 C1541 1.367 . S
C1541 C1540 1.367 . S
C1541 C1543 1.433 . S
C1542 C1538 1.350 . S
C1542 C1539 1.463 . S
C1542 N1546 1.427 . S
C1543 H1533 0.929 . S
C1543 C1541 1.433 . S
C1543 N1546 1.384 . S
C1544 H1535 0.929 . S
C1544 C1536 1.378 . S
C1544 C1539 1.350 . S
C1545 H1532 0.929 . S
C1545 C1537 1.433 . S
C1545 N1547 1.384 . S
N1546 C1542 1.427 . S
N1546 C1543 1.384 . S
N1547 C1539 1.427 . S
N1547 C1545 1.384 . S
H1548 C1554 0.930 . S
H1549 C1558 0.930 . S
H1550 C1563 0.929 . S
H1551 C1561 0.929 . S
H1552 C1556 0.929 . S
H1553 C1562 0.929 . S
C1554 H1548 0.930 . S
C1554 C1555 1.367 . S
C1554 C1562 1.378 . S
C1555 C1554 1.367 . S
C1555 C1563 1.433 . S
C1556 H1552 0.929 . S
C1556 C1558 1.378 . S
C1556 C1560 1.350 . S
C1557 C1560 1.463 . S
C1557 C1562 1.350 . S
C1557 N1565 1.427 . S
C1558 H1549 0.930 . S
C1558 C1556 1.378 . S
C1558 C1559 1.367 . S
C1559 C1558 1.367 . S
C1559 C1561 1.433 . S
C1560 C1556 1.350 . S
C1560 C1557 1.463 . S
C1560 N1564 1.427 . S
C1561 H1551 0.929 . S
C1561 C1559 1.433 . S
C1561 N1564 1.384 . S
C1562 H1553 0.929 . S
C1562 C1554 1.378 . S
C1562 C1557 1.350 . S
C1563 H1550 0.929 . S
C1563 C1555 1.433 . S
C1563 N1565 1.384 . S
N1564 C1560 1.427 . S
N1564 C1561 1.384 . S
N1565 C1557 1.427 . S
N1565 C1563 1.384 . S
H1566 C1572 0.930 . S
H1567 C1576 0.930 . S
H1568 C1581 0.929 . S
H1569 C1579 0.929 . S
H1570 C1574 0.929 . S
H1571 C1580 0.929 . S
C1572 H1566 0.930 . S
C1572 C1573 1.367 . S
C1572 C1580 1.378 . S
C1573 C1572 1.367 . S
C1573 C1581 1.433 . S
C1574 H1570 0.929 . S
C1574 C1576 1.378 . S
C1574 C1578 1.350 . S
C1575 C1578 1.463 . S
C1575 C1580 1.350 . S
C1575 N1583 1.427 . S
C1576 H1567 0.930 . S
C1576 C1574 1.378 . S
C1576 C1577 1.367 . S
C1577 C1576 1.367 . S
C1577 C1579 1.433 . S
C1578 C1574 1.350 . S
C1578 C1575 1.463 . S
C1578 N1582 1.427 . S
C1579 H1569 0.929 . S
C1579 C1577 1.433 . S
C1579 N1582 1.384 . S
C1580 H1571 0.929 . S
C1580 C1572 1.378 . S
C1580 C1575 1.350 . S
C1581 H1568 0.929 . S
C1581 C1573 1.433 . S
C1581 N1583 1.384 . S
N1582 C1578 1.427 . S
N1582 C1579 1.384 . S
N1583 C1575 1.427 . S
N1583 C1581 1.384 . S
H1584 C1590 0.930 . S
H1585 C1594 0.930 . S
H1586 C1599 0.929 . S
H1587 C1597 0.929 . S
H1588 C1592 0.929 . S
H1589 C1598 0.929 1_556 S
C1590 H1584 0.930 . S
C1590 C1591 1.367 1_556 S
C1590 C1598 1.378 1_556 S
C1591 C1590 1.367 1_554 S
C1591 C1599 1.433 . S
C1592 H1588 0.929 . S
C1592 C1594 1.378 . S
C1592 C1596 1.350 . S
C1593 C1596 1.463 . S
C1593 C1598 1.350 . S
C1593 N1601 1.427 . S
C1594 H1585 0.930 . S
C1594 C1592 1.378 . S
C1594 C1595 1.367 . S
C1595 C1594 1.367 . S
C1595 C1597 1.433 . S
C1596 C1592 1.350 . S
C1596 C1593 1.463 . S
C1596 N1600 1.427 . S
C1597 H1587 0.929 . S
C1597 C1595 1.433 . S
C1597 N1600 1.384 . S
C1598 H1589 0.929 1_554 S
C1598 C1590 1.378 1_554 S
C1598 C1593 1.350 . S
C1599 H1586 0.929 . S
C1599 C1591 1.433 . S
C1599 N1601 1.384 . S
N1600 C1596 1.427 . S
N1600 C1597 1.384 . S
N1601 C1593 1.427 . S
N1601 C1599 1.384 . S
H1602 C1608 0.930 . S
H1603 C1612 0.930 . S
H1604 C1617 0.929 . S
H1605 C1615 0.929 . S
H1606 C1610 0.929 . S
H1607 C1616 0.929 . S
C1608 H1602 0.930 . S
C1608 C1609 1.367 . S
C1608 C1616 1.378 . S
C1609 C1608 1.367 . S
C1609 C1617 1.433 . S
C1610 H1606 0.929 . S
C1610 C1612 1.378 . S
C1610 C1614 1.350 . S
C1611 C1614 1.463 . S
C1611 C1616 1.350 . S
C1611 N1619 1.427 . S
C1612 H1603 0.930 . S
C1612 C1610 1.378 . S
C1612 C1613 1.367 . S
C1613 C1612 1.367 . S
C1613 C1615 1.433 1_554 S
C1614 C1610 1.350 . S
C1614 C1611 1.463 . S
C1614 N1618 1.427 . S
C1615 H1605 0.929 . S
C1615 C1613 1.433 1_556 S
C1615 N1618 1.384 1_556 S
C1616 H1607 0.929 . S
C1616 C1608 1.378 . S
C1616 C1611 1.350 . S
C1617 H1604 0.929 . S
C1617 C1609 1.433 . S
C1617 N1619 1.384 . S
N1618 C1614 1.427 . S
N1618 C1615 1.384 1_554 S
N1619 C1611 1.427 . S
N1619 C1617 1.384 . S
H1620 C1626 0.930 . S
H1621 C1630 0.930 . S
H1622 C1635 0.929 . S
H1623 C1633 0.929 . S
H1624 C1628 0.929 1_556 S
H1625 C1634 0.929 . S
C1626 H1620 0.930 . S
C1626 C1627 1.367 . S
C1626 C1634 1.378 . S
C1627 C1626 1.367 . S
C1627 C1635 1.433 . S
C1628 H1624 0.929 1_554 S
C1628 C1630 1.378 1_554 S
C1628 C1632 1.350 . S
C1629 C1632 1.463 . S
C1629 C1634 1.350 . S
C1629 N1637 1.427 . S
C1630 H1621 0.930 . S
C1630 C1628 1.378 1_556 S
C1630 C1631 1.367 1_556 S
C1631 C1630 1.367 1_554 S
C1631 C1633 1.433 . S
C1632 C1628 1.350 . S
C1632 C1629 1.463 . S
C1632 N1636 1.427 . S
C1633 H1623 0.929 . S
C1633 C1631 1.433 . S
C1633 N1636 1.384 . S
C1634 H1625 0.929 . S
C1634 C1626 1.378 . S
C1634 C1629 1.350 . S
C1635 H1622 0.929 . S
C1635 C1627 1.433 . S
C1635 N1637 1.384 . S
N1636 C1632 1.427 . S
N1636 C1633 1.384 . S
N1637 C1629 1.427 . S
N1637 C1635 1.384 . S
H1638 C1644 0.930 . S
H1639 C1648 0.930 . S
H1640 C1653 0.929 . S
H1641 C1651 0.929 . S
H1642 C1646 0.929 . S
H1643 C1652 0.929 . S
C1644 H1638 0.930 . S
C1644 C1645 1.367 . S
C1644 C1652 1.378 . S
C1645 C1644 1.367 . S
C1645 C1653 1.433 . S
C1646 H1642 0.929 . S
C1646 C1648 1.378 . S
C1646 C1650 1.350 . S
C1647 C1650 1.463 . S
C1647 C1652 1.350 . S
C1647 N1655 1.427 . S
C1648 H1639 0.930 . S
C1648 C1646 1.378 . S
C1648 C1649 1.367 . S
C1649 C1648 1.367 . S
C1649 C1651 1.433 . S
C1650 C1646 1.350 . S
C1650 C1647 1.463 . S
C1650 N1654 1.427 . S
C1651 H1641 0.929 . S
C1651 C1649 1.433 . S
C1651 N1654 1.384 . S
C1652 H1643 0.929 . S
C1652 C1644 1.378 . S
C1652 C1647 1.350 . S
C1653 H1640 0.929 . S
C1653 C1645 1.433 . S
C1653 N1655 1.384 . S
N1654 C1650 1.427 . S
N1654 C1651 1.384 . S
N1655 C1647 1.427 . S
N1655 C1653 1.384 . S
H1656 C1662 0.930 . S
H1657 C1666 0.930 . S
H1658 C1671 0.929 . S
H1659 C1669 0.929 . S
H1660 C1664 0.929 . S
H1661 C1670 0.929 . S
C1662 H1656 0.930 . S
C1662 C1663 1.367 . S
C1662 C1670 1.378 . S
C1663 C1662 1.367 . S
C1663 C1671 1.433 . S
C1664 H1660 0.929 . S
C1664 C1666 1.378 . S
C1664 C1668 1.350 . S
C1665 C1668 1.463 . S
C1665 C1670 1.350 . S
C1665 N1673 1.427 . S
C1666 H1657 0.930 . S
C1666 C1664 1.378 . S
C1666 C1667 1.367 . S
C1667 C1666 1.367 . S
C1667 C1669 1.433 . S
C1668 C1664 1.350 . S
C1668 C1665 1.463 . S
C1668 N1672 1.427 . S
C1669 H1659 0.929 . S
C1669 C1667 1.433 . S
C1669 N1672 1.384 . S
C1670 H1661 0.929 . S
C1670 C1662 1.378 . S
C1670 C1665 1.350 . S
C1671 H1658 0.929 . S
C1671 C1663 1.433 . S
C1671 N1673 1.384 . S
N1672 C1668 1.427 . S
N1672 C1669 1.384 . S
N1673 C1665 1.427 . S
N1673 C1671 1.384 . S
H1674 C1680 0.930 . S
H1675 C1684 0.930 . S
H1676 C1689 0.929 . S
H1677 C1687 0.929 . S
H1678 C1682 0.929 . S
H1679 C1688 0.929 . S
C1680 H1674 0.930 . S
C1680 C1681 1.367 . S
C1680 C1688 1.378 . S
C1681 C1680 1.367 . S
C1681 C1689 1.433 . S
C1682 H1678 0.929 . S
C1682 C1684 1.378 . S
C1682 C1686 1.350 . S
C1683 C1686 1.463 . S
C1683 C1688 1.350 . S
C1683 N1691 1.427 . S
C1684 H1675 0.930 . S
C1684 C1682 1.378 . S
C1684 C1685 1.367 . S
C1685 C1684 1.367 . S
C1685 C1687 1.433 . S
C1686 C1682 1.350 . S
C1686 C1683 1.463 . S
C1686 N1690 1.427 . S
C1687 H1677 0.929 . S
C1687 C1685 1.433 . S
C1687 N1690 1.384 . S
C1688 H1679 0.929 . S
C1688 C1680 1.378 . S
C1688 C1683 1.350 . S
C1689 H1676 0.929 . S
C1689 C1681 1.433 . S
C1689 N1691 1.384 . S
N1690 C1686 1.427 . S
N1690 C1687 1.384 . S
N1691 C1683 1.427 . S
N1691 C1689 1.384 . S
H1692 C1698 0.930 . S
H1693 C1702 0.930 . S
H1694 C1707 0.929 . S
H1695 C1705 0.929 . S
H1696 C1700 0.929 . S
H1697 C1706 0.929 . S
C1698 H1692 0.930 . S
C1698 C1699 1.367 . S
C1698 C1706 1.378 . S
C1699 C1698 1.367 . S
C1699 C1707 1.433 . S
C1700 H1696 0.929 . S
C1700 C1702 1.378 . S
C1700 C1704 1.350 . S
C1701 C1704 1.463 1_655 S
C1701 C1706 1.350 . S
C1701 N1709 1.427 . S
C1702 H1693 0.930 . S
C1702 C1700 1.378 . S
C1702 C1703 1.367 . S
C1703 C1702 1.367 . S
C1703 C1705 1.433 . S
C1704 C1700 1.350 . S
C1704 C1701 1.463 1_455 S
C1704 N1708 1.427 . S
C1705 H1695 0.929 . S
C1705 C1703 1.433 . S
C1705 N1708 1.384 . S
C1706 H1697 0.929 . S
C1706 C1698 1.378 . S
C1706 C1701 1.350 . S
C1707 H1694 0.929 . S
C1707 C1699 1.433 . S
C1707 N1709 1.384 . S
N1708 C1704 1.427 . S
N1708 C1705 1.384 . S
N1709 C1701 1.427 . S
N1709 C1707 1.384 . S
H1710 C1716 0.930 . S
H1711 C1720 0.930 . S
H1712 C1725 0.929 . S
H1713 C1723 0.929 . S
H1714 C1718 0.929 . S
H1715 C1724 0.929 . S
C1716 H1710 0.930 . S
C1716 C1717 1.367 . S
C1716 C1724 1.378 . S
C1717 C1716 1.367 . S
C1717 C1725 1.433 . S
C1718 H1714 0.929 . S
C1718 C1720 1.378 . S
C1718 C1722 1.350 . S
C1719 C1722 1.463 . S
C1719 C1724 1.350 . S
C1719 N1727 1.427 . S
C1720 H1711 0.930 . S
C1720 C1718 1.378 . S
C1720 C1721 1.367 . S
C1721 C1720 1.367 . S
C1721 C1723 1.433 . S
C1722 C1718 1.350 . S
C1722 C1719 1.463 . S
C1722 N1726 1.427 . S
C1723 H1713 0.929 . S
C1723 C1721 1.433 . S
C1723 N1726 1.384 . S
C1724 H1715 0.929 . S
C1724 C1716 1.378 . S
C1724 C1719 1.350 . S
C1725 H1712 0.929 . S
C1725 C1717 1.433 . S
C1725 N1727 1.384 . S
N1726 C1722 1.427 . S
N1726 C1723 1.384 . S
N1727 C1719 1.427 . S
N1727 C1725 1.384 . S
H1728 C1734 0.930 . S
H1729 C1738 0.930 . S
H1730 C1743 0.929 . S
H1731 C1741 0.929 . S
H1732 C1736 0.939 . S
H1733 C1742 0.939 . S
C1734 H1728 0.930 . S
C1734 C1735 1.367 . S
C1734 C1742 1.378 . S
C1735 C1734 1.367 . S
C1735 C1743 1.433 . S
C1736 H1732 0.939 . S
C1736 C1738 1.378 . S
C1736 C1740 1.350 . S
C1737 C1740 1.463 1_565 S
C1737 C1742 1.350 . S
C1737 N1745 1.427 . S
C1738 H1729 0.930 . S
C1738 C1736 1.378 . S
C1738 C1739 1.367 . S
C1739 C1738 1.367 . S
C1739 C1741 1.433 . S
C1740 C1736 1.350 . S
C1740 C1737 1.463 1_545 S
C1740 N1744 1.427 . S
C1741 H1731 0.929 . S
C1741 C1739 1.433 . S
C1741 N1744 1.384 . S
C1742 H1733 0.939 . S
C1742 C1734 1.378 . S
C1742 C1737 1.350 . S
C1743 H1730 0.929 . S
C1743 C1735 1.433 . S
C1743 N1745 1.384 . S
N1744 C1740 1.427 . S
N1744 C1741 1.384 . S
N1745 C1737 1.427 . S
N1745 C1743 1.384 . S
H1746 C1752 0.930 . S
H1747 C1756 0.930 . S
H1748 C1761 0.929 . S
H1749 C1759 0.929 . S
H1750 C1754 0.951 . S
H1751 C1760 0.951 . S
C1752 H1746 0.930 . S
C1752 C1753 1.367 . S
C1752 C1760 1.378 . S
C1753 C1752 1.367 . S
C1753 C1761 1.433 . S
C1754 H1750 0.951 . S
C1754 C1756 1.378 . S
C1754 C1758 1.350 . S
C1755 C1758 1.463 1_545 S
C1755 C1760 1.350 . S
C1755 N1763 1.427 . S
C1756 H1747 0.930 . S
C1756 C1754 1.378 . S
C1756 C1757 1.367 . S
C1757 C1756 1.367 . S
C1757 C1759 1.433 . S
C1758 C1754 1.350 . S
C1758 C1755 1.463 1_565 S
C1758 N1762 1.427 . S
C1759 H1749 0.929 . S
C1759 C1757 1.433 . S
C1759 N1762 1.384 . S
C1760 H1751 0.951 . S
C1760 C1752 1.378 . S
C1760 C1755 1.350 . S
C1761 H1748 0.929 . S
C1761 C1753 1.433 . S
C1761 N1763 1.384 . S
N1762 C1758 1.427 . S
N1762 C1759 1.384 . S
N1763 C1755 1.427 . S
N1763 C1761 1.384 . S
H1764 C1770 0.930 . S
H1765 C1774 0.930 . S
H1766 C1779 0.929 . S
H1767 C1777 0.929 . S
H1768 C1772 0.929 . S
H1769 C1778 0.929 . S
C1770 H1764 0.930 . S
C1770 C1771 1.367 . S
C1770 C1778 1.378 . S
C1771 C1770 1.367 . S
C1771 C1779 1.433 . S
C1772 H1768 0.929 . S
C1772 C1774 1.378 . S
C1772 C1776 1.350 . S
C1773 C1776 1.463 1_455 S
C1773 C1778 1.350 . S
C1773 N1781 1.427 . S
C1774 H1765 0.930 . S
C1774 C1772 1.378 . S
C1774 C1775 1.367 . S
C1775 C1774 1.367 . S
C1775 C1777 1.433 . S
C1776 C1772 1.350 . S
C1776 C1773 1.463 1_655 S
C1776 N1780 1.427 . S
C1777 H1767 0.929 . S
C1777 C1775 1.433 . S
C1777 N1780 1.384 . S
C1778 H1769 0.929 . S
C1778 C1770 1.378 . S
C1778 C1773 1.350 . S
C1779 H1766 0.929 . S
C1779 C1771 1.433 . S
C1779 N1781 1.384 . S
N1780 C1776 1.427 . S
N1780 C1777 1.384 . S
N1781 C1773 1.427 . S
N1781 C1779 1.384 . S
H1782 C1788 0.930 . S
H1783 C1792 0.930 . S
H1784 C1797 0.929 . S
H1785 C1795 0.929 . S
H1786 C1790 0.929 . S
H1787 C1796 0.929 . S
C1788 H1782 0.930 . S
C1788 C1789 1.367 . S
C1788 C1796 1.378 . S
C1789 C1788 1.367 . S
C1789 C1797 1.433 . S
C1790 H1786 0.929 . S
C1790 C1792 1.378 . S
C1790 C1794 1.350 . S
C1791 C1794 1.463 . S
C1791 C1796 1.350 . S
C1791 N1799 1.427 . S
C1792 H1783 0.930 . S
C1792 C1790 1.378 . S
C1792 C1793 1.367 . S
C1793 C1792 1.367 . S
C1793 C1795 1.433 . S
C1794 C1790 1.350 . S
C1794 C1791 1.463 . S
C1794 N1798 1.427 . S
C1795 H1785 0.929 . S
C1795 C1793 1.433 . S
C1795 N1798 1.384 . S
C1796 H1787 0.929 . S
C1796 C1788 1.378 . S
C1796 C1791 1.350 . S
C1797 H1784 0.929 . S
C1797 C1789 1.433 . S
C1797 N1799 1.384 . S
N1798 C1794 1.427 . S
N1798 C1795 1.384 . S
N1799 C1791 1.427 . S
N1799 C1797 1.384 . S
C511 C78 1.206 . S
C515 C8 1.205 . S
C529 C22 1.196 . S
C533 C50 1.197 . S
C547 C64 1.196 . S
C551 C36 1.196 . S
C565 C92 1.205 . S
C569 C162 1.206 . S
C583 C106 1.196 . S
C587 C134 1.196 . S
C601 C148 1.202 . S
C605 C120 1.200 . S
C619 C246 1.196 . S
C623 C176 1.197 . S
C637 C190 1.196 . S
C641 C218 1.197 . S
C655 C232 1.199 . S
C659 C204 1.201 . S
C673 C260 1.202 . S
C677 C330 1.200 . S
C691 C274 1.205 . S
C695 C302 1.206 . S
C709 C288 1.198 . S
C713 C316 1.200 . S
C727 C344 1.196 . S
C731 C414 1.198 . S
C745 C386 1.197 . S
C749 C358 1.196 . S
C763 C372 1.199 . S
C767 C400 1.197 . S
C781 C428 1.204 . S
C785 C498 1.205 . S
C799 C442 1.196 . S
C803 C470 1.197 . S
C817 C456 1.201 . S
C821 C484 1.203 . S
C835 C147 1.276 . S
C839 C9 1.253 . S
C853 C161 1.270 . S
C857 C23 1.261 . S
C871 C133 1.265 . S
C875 C37 1.262 . S
C889 C119 1.274 . S
C893 C51 1.257 . S
C907 C65 1.246 . S
C911 C91 1.263 . S
C925 C79 1.242 . S
C929 C105 1.270 . S
C943 C93 1.258 . S
C947 C63 1.273 . S
C961 C107 1.257 . S
C965 C77 1.260 . S
C979 C121 1.242 . S
C983 C49 1.272 . S
C997 C35 1.276 . S
C1001 C135 1.245 . S
C1015 C7 1.262 . S
C1019 C149 1.247 . S
C1033 C163 1.248 . S
C1037 C21 1.261 . S
C1051 C177 1.245 . S
C1055 C315 1.264 1_554 S
C1069 C191 1.258 . S
C1073 C329 1.273 1_554 S
C1087 C301 1.260 1_554 S
C1091 C205 1.250 . S
C1105 C219 1.242 . S
C1109 C287 1.273 . S
C1123 C233 1.244 . S
C1127 C259 1.264 . S
C1141 C247 1.256 . S
C1145 C273 1.260 . S
C1159 C261 1.261 . S
C1163 C231 1.269 . S
C1177 C245 1.268 . S
C1181 C275 1.262 . S
C1195 C217 1.262 . S
C1199 C289 1.260 . S
C1213 C303 1.256 . S
C1217 C203 1.275 . S
C1231 C175 1.262 . S
C1235 C317 1.247 . S
C1249 C189 1.264 . S
C1253 C331 1.245 . S
C1267 C483 1.276 . S
C1271 C345 1.246 . S
C1285 C359 1.254 . S
C1289 C497 1.260 . S
C1303 C373 1.262 . S
C1307 C469 1.267 . S
C1321 C455 1.276 . S
C1325 C387 1.244 . S
C1339 C427 1.277 . S
C1343 C401 1.249 . S
C1357 C441 1.261 . S
C1361 C415 1.249 . S
C1375 C429 1.243 . S
C1379 C399 1.266 1_556 S
C1393 C413 1.266 1_556 S
C1397 C443 1.262 . S
C1411 C457 1.243 . S
C1415 C385 1.274 1_556 S
C1429 C371 1.276 . S
C1433 C471 1.245 . S
C1447 C343 1.277 . S
C1451 C485 1.247 . S
C1465 C357 1.267 . S
C1469 C499 1.242 . S
C1483 C227 1.370 . S
C1487 C3 1.363 1_556 S
C1501 C17 1.361 1_556 S
C1505 C241 1.369 . S
C1519 C213 1.368 . S
C1523 C31 1.366 1_556 S
C1537 C367 1.362 . S
C1541 C45 1.367 . S
C1555 C59 1.365 . S
C1559 C339 1.369 . S
C1573 C73 1.365 . S
C1577 C353 1.363 . S
C1591 C87 1.367 1_554 S
C1595 C479 1.368 . S
C1609 C493 1.364 . S
C1613 C101 1.364 1_554 S
C1627 C465 1.369 . S
C1631 C115 1.365 1_554 S
C1645 C283 1.363 . S
C1649 C129 1.370 . S
C1663 C143 1.367 . S
C1667 C255 1.368 . S
C1681 C157 1.365 . S
C1685 C269 1.369 . S
C1699 C171 1.364 . S
C1703 C395 1.364 . S
C1717 C409 1.367 . S
C1721 C185 1.367 . S
C1735 C381 1.366 . S
C1739 C199 1.368 . S
C1753 C297 1.366 . S
C1757 C451 1.369 . S
C1771 C423 1.368 . S
C1775 C311 1.361 . S
C1789 C437 1.369 . S
C1793 C325 1.361 . S
