# Generated by pormake.
# Topology pem, (4)-cn, num edge types: 1
# Building blocks:
#     Node 0, Type 0, BuildingBlock: ICAMEG_clean_sbu_1, # of connection points: 4
#     Node 1, Type 0, BuildingBlock: ICAMEG_clean_sbu_1, # of connection points: 4
#     Node 2, Type 0, BuildingBlock: ICAMEG_clean_sbu_1, # of connection points: 4
#     Node 3, Type 0, BuildingBlock: ICAMEG_clean_sbu_1, # of connection points: 4
#     Node 4, Type 0, BuildingBlock: ICAMEG_clean_sbu_1, # of connection points: 4
#     Node 5, Type 0, BuildingBlock: ICAMEG_clean_sbu_1, # of connection points: 4
#     Node 6, Type 0, BuildingBlock: ICAMEG_clean_sbu_1, # of connection points: 4
#     Node 7, Type 0, BuildingBlock: ICAMEG_clean_sbu_1, # of connection points: 4
#     Node 8, Type 0, BuildingBlock: ICAMEG_clean_sbu_1, # of connection points: 4
#     Node 9, Type 0, BuildingBlock: ICAMEG_clean_sbu_1, # of connection points: 4
#     Node 10, Type 0, BuildingBlock: ICAMEG_clean_sbu_1, # of connection points: 4
#     Node 11, Type 0, BuildingBlock: ICAMEG_clean_sbu_1, # of connection points: 4
#     Node 12, Type 0, BuildingBlock: ICAMEG_clean_sbu_1, # of connection points: 4
#     Node 13, Type 0, BuildingBlock: ICAMEG_clean_sbu_1, # of connection points: 4
#     Node 14, Type 0, BuildingBlock: ICAMEG_clean_sbu_1, # of connection points: 4
#     Node 15, Type 0, BuildingBlock: ICAMEG_clean_sbu_1, # of connection points: 4
#     Node 16, Type 0, BuildingBlock: ICAMEG_clean_sbu_1, # of connection points: 4
#     Node 17, Type 0, BuildingBlock: ICAMEG_clean_sbu_1, # of connection points: 4
#     Node 18, Type 0, BuildingBlock: ICAMEG_clean_sbu_1, # of connection points: 4
#     Node 19, Type 0, BuildingBlock: ICAMEG_clean_sbu_1, # of connection points: 4
#     Node 20, Type 0, BuildingBlock: ICAMEG_clean_sbu_1, # of connection points: 4
#     Node 21, Type 0, BuildingBlock: ICAMEG_clean_sbu_1, # of connection points: 4
#     Node 22, Type 0, BuildingBlock: ICAMEG_clean_sbu_1, # of connection points: 4
#     Node 23, Type 0, BuildingBlock: ICAMEG_clean_sbu_1, # of connection points: 4
#     Node 24, Type 0, BuildingBlock: ICAMEG_clean_sbu_1, # of connection points: 4
#     Node 25, Type 0, BuildingBlock: ICAMEG_clean_sbu_1, # of connection points: 4
#     Node 26, Type 0, BuildingBlock: ICAMEG_clean_sbu_1, # of connection points: 4
#     Node 27, Type 0, BuildingBlock: ICAMEG_clean_sbu_1, # of connection points: 4
#     Node 28, Type 0, BuildingBlock: ICAMEG_clean_sbu_1, # of connection points: 4
#     Node 29, Type 0, BuildingBlock: ICAMEG_clean_sbu_1, # of connection points: 4
#     Node 30, Type 0, BuildingBlock: ICAMEG_clean_sbu_1, # of connection points: 4
#     Node 31, Type 0, BuildingBlock: ICAMEG_clean_sbu_1, # of connection points: 4
#     Edge 32, Type (0, 0), BuildingBlock: ZUJKAS_clean_linker_0, # of connection points: 2
#     Edge 33, Type (0, 0), BuildingBlock: ZUJKAS_clean_linker_0, # of connection points: 2
#     Edge 34, Type (0, 0), BuildingBlock: ZUJKAS_clean_linker_0, # of connection points: 2
#     Edge 35, Type (0, 0), BuildingBlock: ZUJKAS_clean_linker_0, # of connection points: 2
#     Edge 36, Type (0, 0), BuildingBlock: ZUJKAS_clean_linker_0, # of connection points: 2
#     Edge 37, Type (0, 0), BuildingBlock: ZUJKAS_clean_linker_0, # of connection points: 2
#     Edge 38, Type (0, 0), BuildingBlock: ZUJKAS_clean_linker_0, # of connection points: 2
#     Edge 39, Type (0, 0), BuildingBlock: ZUJKAS_clean_linker_0, # of connection points: 2
#     Edge 40, Type (0, 0), BuildingBlock: ZUJKAS_clean_linker_0, # of connection points: 2
#     Edge 41, Type (0, 0), BuildingBlock: ZUJKAS_clean_linker_0, # of connection points: 2
#     Edge 42, Type (0, 0), BuildingBlock: ZUJKAS_clean_linker_0, # of connection points: 2
#     Edge 43, Type (0, 0), BuildingBlock: ZUJKAS_clean_linker_0, # of connection points: 2
#     Edge 44, Type (0, 0), BuildingBlock: ZUJKAS_clean_linker_0, # of connection points: 2
#     Edge 45, Type (0, 0), BuildingBlock: ZUJKAS_clean_linker_0, # of connection points: 2
#     Edge 46, Type (0, 0), BuildingBlock: ZUJKAS_clean_linker_0, # of connection points: 2
#     Edge 47, Type (0, 0), BuildingBlock: ZUJKAS_clean_linker_0, # of connection points: 2
#     Edge 48, Type (0, 0), BuildingBlock: ZUJKAS_clean_linker_0, # of connection points: 2
#     Edge 49, Type (0, 0), BuildingBlock: ZUJKAS_clean_linker_0, # of connection points: 2
#     Edge 50, Type (0, 0), BuildingBlock: ZUJKAS_clean_linker_0, # of connection points: 2
#     Edge 51, Type (0, 0), BuildingBlock: ZUJKAS_clean_linker_0, # of connection points: 2
#     Edge 52, Type (0, 0), BuildingBlock: ZUJKAS_clean_linker_0, # of connection points: 2
#     Edge 53, Type (0, 0), BuildingBlock: ZUJKAS_clean_linker_0, # of connection points: 2
#     Edge 54, Type (0, 0), BuildingBlock: ZUJKAS_clean_linker_0, # of connection points: 2
#     Edge 55, Type (0, 0), BuildingBlock: ZUJKAS_clean_linker_0, # of connection points: 2
#     Edge 56, Type (0, 0), BuildingBlock: ZUJKAS_clean_linker_0, # of connection points: 2
#     Edge 57, Type (0, 0), BuildingBlock: ZUJKAS_clean_linker_0, # of connection points: 2
#     Edge 58, Type (0, 0), BuildingBlock: ZUJKAS_clean_linker_0, # of connection points: 2
#     Edge 59, Type (0, 0), BuildingBlock: ZUJKAS_clean_linker_0, # of connection points: 2
#     Edge 60, Type (0, 0), BuildingBlock: ZUJKAS_clean_linker_0, # of connection points: 2
#     Edge 61, Type (0, 0), BuildingBlock: ZUJKAS_clean_linker_0, # of connection points: 2
#     Edge 62, Type (0, 0), BuildingBlock: ZUJKAS_clean_linker_0, # of connection points: 2
#     Edge 63, Type (0, 0), BuildingBlock: ZUJKAS_clean_linker_0, # of connection points: 2
#     Edge 64, Type (0, 0), BuildingBlock: ZUJKAS_clean_linker_0, # of connection points: 2
#     Edge 65, Type (0, 0), BuildingBlock: ZUJKAS_clean_linker_0, # of connection points: 2
#     Edge 66, Type (0, 0), BuildingBlock: ZUJKAS_clean_linker_0, # of connection points: 2
#     Edge 67, Type (0, 0), BuildingBlock: ZUJKAS_clean_linker_0, # of connection points: 2
#     Edge 68, Type (0, 0), BuildingBlock: ZUJKAS_clean_linker_0, # of connection points: 2
#     Edge 69, Type (0, 0), BuildingBlock: ZUJKAS_clean_linker_0, # of connection points: 2
#     Edge 70, Type (0, 0), BuildingBlock: ZUJKAS_clean_linker_0, # of connection points: 2
#     Edge 71, Type (0, 0), BuildingBlock: ZUJKAS_clean_linker_0, # of connection points: 2
#     Edge 72, Type (0, 0), BuildingBlock: ZUJKAS_clean_linker_0, # of connection points: 2
#     Edge 73, Type (0, 0), BuildingBlock: ZUJKAS_clean_linker_0, # of connection points: 2
#     Edge 74, Type (0, 0), BuildingBlock: ZUJKAS_clean_linker_0, # of connection points: 2
#     Edge 75, Type (0, 0), BuildingBlock: ZUJKAS_clean_linker_0, # of connection points: 2
#     Edge 76, Type (0, 0), BuildingBlock: ZUJKAS_clean_linker_0, # of connection points: 2
#     Edge 77, Type (0, 0), BuildingBlock: ZUJKAS_clean_linker_0, # of connection points: 2
#     Edge 78, Type (0, 0), BuildingBlock: ZUJKAS_clean_linker_0, # of connection points: 2
#     Edge 79, Type (0, 0), BuildingBlock: ZUJKAS_clean_linker_0, # of connection points: 2
#     Edge 80, Type (0, 0), BuildingBlock: ZUJKAS_clean_linker_0, # of connection points: 2
#     Edge 81, Type (0, 0), BuildingBlock: ZUJKAS_clean_linker_0, # of connection points: 2
#     Edge 82, Type (0, 0), BuildingBlock: ZUJKAS_clean_linker_0, # of connection points: 2
#     Edge 83, Type (0, 0), BuildingBlock: ZUJKAS_clean_linker_0, # of connection points: 2
#     Edge 84, Type (0, 0), BuildingBlock: ZUJKAS_clean_linker_0, # of connection points: 2
#     Edge 85, Type (0, 0), BuildingBlock: ZUJKAS_clean_linker_0, # of connection points: 2
#     Edge 86, Type (0, 0), BuildingBlock: ZUJKAS_clean_linker_0, # of connection points: 2
#     Edge 87, Type (0, 0), BuildingBlock: ZUJKAS_clean_linker_0, # of connection points: 2
#     Edge 88, Type (0, 0), BuildingBlock: ZUJKAS_clean_linker_0, # of connection points: 2
#     Edge 89, Type (0, 0), BuildingBlock: ZUJKAS_clean_linker_0, # of connection points: 2
#     Edge 90, Type (0, 0), BuildingBlock: ZUJKAS_clean_linker_0, # of connection points: 2
#     Edge 91, Type (0, 0), BuildingBlock: ZUJKAS_clean_linker_0, # of connection points: 2
#     Edge 92, Type (0, 0), BuildingBlock: ZUJKAS_clean_linker_0, # of connection points: 2
#     Edge 93, Type (0, 0), BuildingBlock: ZUJKAS_clean_linker_0, # of connection points: 2
#     Edge 94, Type (0, 0), BuildingBlock: ZUJKAS_clean_linker_0, # of connection points: 2
#     Edge 95, Type (0, 0), BuildingBlock: ZUJKAS_clean_linker_0, # of connection points: 2
# Relax obj value: 0.210
# Max RMSD: 0.275
# Mean RMSD: 0.153
data_MOF--net-pem--node1-ICAMEG_clean_sbu_1--edge1-ZUJKAS_clean_linker_0
_symmetry_space_group_name_H-M    P1
_symmetry_Int_Tables_number       1
_symmetry_cell_setting            triclinic
loop_
_symmetry_equiv_pos_as_xyz
'x, y, z'
_cell_length_a     41.666862
_cell_length_b     63.80273
_cell_length_c     63.193826
_cell_angle_alpha  89.802778
_cell_angle_beta   90.061048
_cell_angle_gamma 95.64735
loop_
_atom_site_label
_atom_site_type_symbol
_atom_site_fract_x
_atom_site_fract_y
_atom_site_fract_z
_atom_type_partial_charge
Co0 Co 0.22832 0.0727 0.10992 0.0
Co1 Co 0.1575 0.09183 0.09381 0.0
O2 O 0.18897 0.08634 0.11585 0.0
C3 C 0.19133 0.04606 0.13981 0.0
O4 O 0.16797 0.04672 0.12602 0.0
C5 C 0.15658 0.13667 0.10894 0.0
O6 O 0.1445 0.11737 0.11136 0.0
O7 O 0.19293 0.10937 0.07834 0.0
O8 O 0.23622 0.09097 0.08418 0.0
H9 H 0.10777 0.08038 0.02307 0.0
H10 H 0.22239 0.09022 0.15335 0.0
O11 O 0.21937 0.05487 0.13565 0.0
H12 H 0.32428 0.12443 0.1242 0.0
H13 H 0.32474 0.03514 0.12988 0.0
H14 H 0.25852 0.05796 0.071 0.0
H15 H 0.28865 0.10017 0.10241 0.0
H16 H 0.27978 0.05665 0.13671 0.0
O17 O 0.14532 0.11732 0.1108 0.0
H18 H 0.15405 0.0868 0.04684 0.0
H19 H 0.09164 0.10716 0.09408 0.0
H20 H 0.30345 0.03671 0.06344 0.0
H21 H 0.2587 0.11336 0.17617 0.0
H22 H 0.33663 0.02489 0.09303 0.0
H23 H 0.30954 0.13094 0.1615 0.0
O24 O 0.20486 0.05026 0.09285 0.0
H25 H 0.09099 0.0673 0.15753 0.0
H26 H 0.10817 0.05677 0.08129 0.0
H27 H 0.06469 0.03507 0.09962 0.0
H28 H 0.05553 0.0404 0.13797 0.0
H29 H 0.13503 0.08814 0.1388 0.0
H30 H 0.04805 0.10766 0.06822 0.0
H31 H 0.05541 0.09328 0.03228 0.0
O32 O 0.16716 0.06702 0.07692 0.0
C33 C 0.22242 0.10576 0.0752 0.0
C34 C 0.10509 0.08849 0.03774 0.0
C35 C 0.07127 0.10307 0.06342 0.0
N36 N 0.12606 0.09749 0.07212 0.0
C37 C 0.1309 0.09131 0.0518 0.0
C38 C 0.09665 0.10354 0.07788 0.0
C39 C 0.07539 0.09503 0.0433 0.0
C40 C 0.2446 0.09779 0.14687 0.0
N41 N 0.25331 0.09392 0.12655 0.0
C42 C 0.26486 0.111 0.15981 0.0
C43 C 0.29359 0.12076 0.15161 0.0
C44 C 0.30187 0.11714 0.1307 0.0
C45 C 0.28138 0.10354 0.11836 0.0
C46 C 0.31055 0.04029 0.11684 0.0
C47 C 0.27338 0.05336 0.08392 0.0
C48 C 0.28508 0.05248 0.12062 0.0
N49 N 0.26673 0.05873 0.10426 0.0
C50 C 0.29865 0.04119 0.07955 0.0
C51 C 0.31723 0.03455 0.09616 0.0
C52 C 0.18344 0.05145 0.07892 0.0
C53 C 0.0946 0.06491 0.14078 0.0
C54 C 0.10476 0.05908 0.09803 0.0
C55 C 0.07993 0.04676 0.10832 0.0
C56 C 0.0748 0.04977 0.12982 0.0
N57 N 0.12398 0.07407 0.10882 0.0
C58 C 0.11936 0.07684 0.13002 0.0
Co59 Co 0.07839 0.84509 0.29496 0.0
Co60 Co 0.13642 0.82942 0.32967 0.0
O61 O 0.1117 0.85137 0.31704 0.0
C62 C 0.12543 0.87545 0.27386 0.0
O63 O 0.14778 0.86273 0.27724 0.0
C64 C 0.16075 0.85345 0.36907 0.0
O65 O 0.18614 0.86277 0.3595 0.0
O66 O 0.09446 0.81368 0.3381 0.0
O67 O 0.05965 0.82042 0.31206 0.0
H68 H 0.15174 0.75397 0.34614 0.0
H69 H 0.08729 0.8876 0.31426 0.0
O70 O 0.09627 0.86999 0.27868 0.0
H71 H 0.97065 0.86555 0.31792 0.0
H72 H 0.00097 0.86202 0.2372 0.0
H73 H 0.05103 0.80575 0.27473 0.0
H74 H 0.00861 0.84079 0.3058 0.0
H75 H 0.03865 0.87056 0.2668 0.0
O76 O 0.13773 0.84353 0.35851 0.0
H77 H 0.12503 0.78308 0.3306 0.0
H78 H 0.19921 0.82707 0.35464 0.0
H79 H 0.01312 0.79647 0.24555 0.0
H80 H 0.0504 0.91241 0.32779 0.0
H81 H 0.98793 0.82473 0.22645 0.0
H82 H 0.99152 0.90156 0.3292 0.0
O83 O 0.10606 0.82756 0.27885 0.0
H84 H 0.20673 0.89539 0.3094 0.0
H85 H 0.19791 0.81779 0.3104 0.0
H86 H 0.24655 0.83746 0.2956 0.0
H87 H 0.25135 0.87656 0.29512 0.0
H88 H 0.15891 0.87524 0.32454 0.0
H89 H 0.22547 0.79868 0.37122 0.0
H90 H 0.20202 0.76165 0.36697 0.0
O91 O 0.1356 0.81317 0.30329 0.0
C92 C 0.06653 0.8112 0.3293 0.0
C93 C 0.16197 0.77007 0.34835 0.0
C94 C 0.20324 0.79513 0.36249 0.0
N95 N 0.15959 0.80715 0.34221 0.0
C96 C 0.14691 0.78671 0.33961 0.0
C97 C 0.18771 0.81134 0.35333 0.0
C98 C 0.19017 0.77437 0.36003 0.0
C99 C 0.06181 0.88257 0.31546 0.0
N100 N 0.05009 0.8628 0.30923 0.0
C101 C 0.04103 0.89673 0.32299 0.0
C102 C 0.008 0.89064 0.32379 0.0
C103 C 0.99627 0.87042 0.31749 0.0
C104 C 0.01788 0.85645 0.31071 0.0
C105 C 0.01159 0.84955 0.24553 0.0
C106 C 0.03949 0.81808 0.26692 0.0
C107 C 0.03295 0.85429 0.2623 0.0
N108 N 0.04644 0.83861 0.27288 0.0
C109 C 0.0183 0.81275 0.25024 0.0
C110 C 0.00426 0.82863 0.2395 0.0
C111 C 0.12507 0.81447 0.28468 0.0
C112 C 0.20525 0.87836 0.30989 0.0
C113 C 0.20012 0.8348 0.31095 0.0
C114 C 0.22761 0.84586 0.30224 0.0
C115 C 0.23023 0.86779 0.30186 0.0
N116 N 0.17624 0.84523 0.31972 0.0
C117 C 0.17809 0.86677 0.3184 0.0
Co118 Co 0.27172 0.92575 0.6107 0.0
Co119 Co 0.34486 0.90952 0.59599 0.0
O120 O 0.31176 0.91266 0.61711 0.0
C121 C 0.30738 0.9516 0.64122 0.0
O122 O 0.33008 0.95176 0.62692 0.0
C123 C 0.34026 0.86539 0.61527 0.0
O124 O 0.30981 0.86357 0.60969 0.0
O125 O 0.31105 0.89262 0.57877 0.0
O126 O 0.26586 0.90908 0.58366 0.0
H127 H 0.39144 0.91863 0.52247 0.0
H128 H 0.27879 0.90573 0.65292 0.0
O129 O 0.27941 0.94241 0.63733 0.0
H130 H 0.17952 0.87013 0.62163 0.0
H131 H 0.17096 0.95835 0.63092 0.0
H132 H 0.24132 0.94138 0.57202 0.0
H133 H 0.21314 0.89717 0.6015 0.0
H134 H 0.21836 0.93885 0.63751 0.0
O135 O 0.35737 0.88298 0.61176 0.0
H136 H 0.34799 0.91614 0.54885 0.0
H137 H 0.41266 0.89899 0.59594 0.0
H138 H 0.1941 0.96063 0.56471 0.0
H139 H 0.24545 0.87905 0.67383 0.0
H140 H 0.15872 0.96947 0.59432 0.0
H141 H 0.19522 0.86127 0.65827 0.0
O142 O 0.29375 0.94964 0.59455 0.0
H143 H 0.41328 0.9285 0.66034 0.0
H144 H 0.3898 0.94798 0.58701 0.0
H145 H 0.43216 0.96895 0.60678 0.0
H146 H 0.44449 0.95901 0.64369 0.0
H147 H 0.36865 0.90868 0.64068 0.0
H148 H 0.45671 0.89973 0.56978 0.0
H149 H 0.44606 0.90969 0.5326 0.0
O150 O 0.33428 0.9347 0.58016 0.0
C151 C 0.28211 0.89608 0.57385 0.0
C152 C 0.3963 0.91399 0.53854 0.0
C153 C 0.43298 0.90356 0.56509 0.0
N154 N 0.37779 0.90733 0.57422 0.0
C155 C 0.37184 0.91282 0.55371 0.0
C156 C 0.40813 0.90318 0.57993 0.0
C157 C 0.42698 0.90911 0.54426 0.0
C158 C 0.25708 0.89793 0.64602 0.0
N159 N 0.24781 0.90305 0.62608 0.0
C160 C 0.23829 0.88287 0.65792 0.0
C161 C 0.2101 0.87289 0.64918 0.0
C162 C 0.20129 0.87782 0.62862 0.0
C163 C 0.22057 0.89302 0.61723 0.0
C164 C 0.18612 0.95451 0.61789 0.0
C165 C 0.22565 0.94471 0.58495 0.0
C166 C 0.21297 0.94347 0.62153 0.0
N167 N 0.2324 0.93879 0.60517 0.0
C168 C 0.19905 0.95576 0.58072 0.0
C169 C 0.17925 0.96074 0.59734 0.0
C170 C 0.31617 0.94935 0.58123 0.0
C171 C 0.40742 0.93308 0.64448 0.0
C172 C 0.39396 0.94387 0.60331 0.0
C173 C 0.41835 0.95576 0.61436 0.0
C174 C 0.42524 0.95018 0.63504 0.0
N175 N 0.37661 0.92693 0.6126 0.0
C176 C 0.38262 0.92177 0.63313 0.0
Co177 Co 0.41612 0.14937 0.80387 0.0
Co178 Co 0.35207 0.16162 0.83663 0.0
O179 O 0.38194 0.14135 0.82573 0.0
C180 C 0.37359 0.11678 0.78301 0.0
O181 O 0.34936 0.12688 0.78919 0.0
C182 C 0.33713 0.14109 0.87981 0.0
O183 O 0.31234 0.12925 0.87218 0.0
O184 O 0.38963 0.18139 0.84251 0.0
O185 O 0.42973 0.17543 0.81987 0.0
H186 H 0.32347 0.23572 0.84337 0.0
H187 H 0.41629 0.10532 0.81945 0.0
O188 O 0.40237 0.12374 0.7873 0.0
H189 H 0.52674 0.13904 0.8298 0.0
H190 H 0.501 0.13548 0.75013 0.0
H191 H 0.4414 0.18963 0.78345 0.0
H192 H 0.48287 0.16013 0.81943 0.0
H193 H 0.46072 0.12575 0.77786 0.0
O194 O 0.35657 0.15191 0.86731 0.0
H195 H 0.35256 0.20706 0.82952 0.0
H196 H 0.29171 0.16239 0.86465 0.0
H197 H 0.48182 0.20008 0.75597 0.0
H198 H 0.45945 0.08361 0.82983 0.0
H199 H 0.51188 0.17288 0.73904 0.0
H200 H 0.51537 0.10036 0.83455 0.0
O201 O 0.38703 0.16494 0.7868 0.0
H202 H 0.2956 0.09011 0.82152 0.0
H203 H 0.2867 0.16615 0.81934 0.0
H204 H 0.24197 0.14193 0.80612 0.0
H205 H 0.24622 0.1034 0.80698 0.0
H206 H 0.3388 0.11462 0.8364 0.0
H207 H 0.26265 0.19053 0.87923 0.0
H208 H 0.27835 0.22764 0.86868 0.0
O209 O 0.34744 0.17353 0.80785 0.0
C210 C 0.41736 0.18565 0.83454 0.0
C211 C 0.31659 0.21965 0.84832 0.0
C212 C 0.28261 0.1943 0.86849 0.0
N213 N 0.32506 0.18289 0.84688 0.0
C214 C 0.33308 0.20328 0.84058 0.0
C215 C 0.29971 0.17834 0.86043 0.0
C216 C 0.29133 0.21511 0.8625 0.0
C217 C 0.44031 0.11287 0.82211 0.0
N218 N 0.44682 0.13406 0.81917 0.0
C219 C 0.46475 0.10044 0.8278 0.0
C220 C 0.49612 0.10983 0.83039 0.0
C221 C 0.50246 0.13155 0.82787 0.0
C222 C 0.47731 0.14351 0.82249 0.0
C223 C 0.48812 0.14748 0.75744 0.0
C224 C 0.4547 0.17775 0.77642 0.0
C225 C 0.46518 0.14207 0.77313 0.0
N226 N 0.44886 0.15715 0.78251 0.0
C227 C 0.47743 0.18374 0.76075 0.0
C228 C 0.49424 0.16847 0.75123 0.0
C229 C 0.36178 0.17385 0.79015 0.0
C230 C 0.2928 0.10665 0.82198 0.0
C231 C 0.28816 0.14943 0.82105 0.0
C232 C 0.26285 0.13577 0.81311 0.0
C233 C 0.26528 0.1142 0.81355 0.0
N234 N 0.31479 0.14191 0.82993 0.0
C235 C 0.3174 0.12073 0.83017 0.0
Co236 Co 0.17355 0.96019 0.41492 0.0
Co237 Co 0.11722 0.92382 0.43619 0.0
O238 O 0.13881 0.93754 0.41134 0.0
C239 C 0.13121 0.97737 0.38063 0.0
O240 O 0.10576 0.97009 0.39158 0.0
C241 C 0.11369 0.89168 0.40181 0.0
O242 O 0.133 0.90368 0.38945 0.0
O243 O 0.15944 0.91504 0.44581 0.0
O244 O 0.19029 0.94568 0.44178 0.0
H245 H 0.10232 0.90799 0.51393 0.0
H246 H 0.16742 0.93838 0.37374 0.0
O247 O 0.15943 0.97486 0.38782 0.0
H248 H 0.27619 0.92743 0.39963 0.0
H249 H 0.25996 0.01599 0.3911 0.0
H250 H 0.19841 0.98462 0.45192 0.0
H251 H 0.24098 0.94867 0.42016 0.0
H252 H 0.21961 0.98537 0.38621 0.0
O253 O 0.10829 0.89695 0.42068 0.0
H254 H 0.1302 0.92421 0.4826 0.0
H255 H 0.05893 0.89316 0.44238 0.0
H256 H 0.23871 0.01509 0.4576 0.0
H257 H 0.20184 0.91705 0.35264 0.0
H258 H 0.26971 0.03104 0.42702 0.0
H259 H 0.25662 0.91138 0.36563 0.0
O260 O 0.14333 0.97604 0.43149 0.0
H261 H 0.03063 0.93284 0.38204 0.0
H262 H 0.06141 0.94182 0.45707 0.0
H263 H 0.00747 0.9499 0.44539 0.0
H264 H 0.99159 0.9451 0.40774 0.0
H265 H 0.08418 0.92533 0.39415 0.0
H266 H 0.03109 0.87612 0.47312 0.0
H267 H 0.05239 0.88378 0.50928 0.0
O268 O 0.1247 0.95002 0.45321 0.0
C269 C 0.18563 0.92673 0.44925 0.0
C270 C 0.09272 0.90464 0.49826 0.0
C271 C 0.05277 0.8867 0.47537 0.0
N272 N 0.09619 0.90981 0.46064 0.0
C273 C 0.10837 0.91381 0.48046 0.0
C274 C 0.06889 0.89627 0.45798 0.0
C275 C 0.06471 0.89103 0.49565 0.0
C276 C 0.19129 0.93606 0.37942 0.0
N277 N 0.20208 0.94462 0.39821 0.0
C278 C 0.21065 0.92395 0.36743 0.0
C279 C 0.24136 0.92076 0.37474 0.0
C280 C 0.25234 0.92974 0.39382 0.0
C281 C 0.23226 0.94171 0.40541 0.0
C282 C 0.24671 0.00912 0.40456 0.0
C283 C 0.21215 0.99132 0.4386 0.0
C284 C 0.22384 0.9918 0.40188 0.0
N285 N 0.20696 0.98315 0.41881 0.0
C286 C 0.23482 0.00861 0.44189 0.0
C287 C 0.25217 0.01756 0.42472 0.0
C288 C 0.12743 0.96923 0.44766 0.0
C289 C 0.03713 0.9348 0.39856 0.0
C290 C 0.05487 0.93985 0.44059 0.0
C291 C 0.02424 0.94444 0.4341 0.0
C292 C 0.0153 0.94174 0.41297 0.0
N293 N 0.07596 0.93249 0.42648 0.0
C294 C 0.0675 0.93034 0.40562 0.0
Co295 Co 0.4311 0.85407 0.65556 0.0
Co296 Co 0.36018 0.8167 0.62765 0.0
O297 O 0.41205 0.84387 0.62279 0.0
C298 C 0.38877 0.88271 0.68023 0.0
O299 O 0.37095 0.86669 0.68837 0.0
C300 C 0.41681 0.84254 0.58552 0.0
O301 O 0.4469 0.84922 0.58112 0.0
O302 O 0.42631 0.82995 0.62027 0.0
O303 O 0.45752 0.83146 0.64946 0.0
H304 H 0.27778 0.76089 0.66585 0.0
H305 H 0.42496 0.89044 0.62815 0.0
O306 O 0.40665 0.88027 0.66365 0.0
H307 H 0.54134 0.88256 0.62919 0.0
H308 H 0.49842 0.90204 0.70571 0.0
H309 H 0.45569 0.82894 0.69018 0.0
H310 H 0.50314 0.85798 0.64882 0.0
H311 H 0.46379 0.89409 0.67457 0.0
O312 O 0.40951 0.83814 0.60724 0.0
H313 H 0.31387 0.79169 0.66487 0.0
H314 H 0.32741 0.78319 0.59817 0.0
H315 H 0.48947 0.83631 0.72175 0.0
H316 H 0.46283 0.91662 0.60925 0.0
H317 H 0.51118 0.87308 0.72971 0.0
H318 H 0.52129 0.91231 0.60934 0.0
O319 O 0.40027 0.83553 0.67895 0.0
H320 H 0.25772 0.83921 0.66515 0.0
H321 H 0.29611 0.81246 0.59786 0.0
H322 H 0.23946 0.81741 0.60201 0.0
H323 H 0.2191 0.82967 0.63613 0.0
H324 H 0.31411 0.8361 0.66035 0.0
H325 H 0.29028 0.75218 0.59958 0.0
H326 H 0.26419 0.74055 0.63331 0.0
O327 O 0.35383 0.8156 0.66742 0.0
C328 C 0.45451 0.82494 0.63059 0.0
C329 C 0.28922 0.76574 0.65101 0.0
C330 C 0.29635 0.76077 0.61402 0.0
N331 N 0.32597 0.79092 0.63132 0.0
C332 C 0.31129 0.7837 0.65012 0.0
C333 C 0.31857 0.77864 0.6136 0.0
C334 C 0.28162 0.75429 0.63284 0.0
C335 C 0.45038 0.88871 0.6281 0.0
N336 N 0.4615 0.87248 0.63897 0.0
C337 C 0.47168 0.90343 0.61744 0.0
C338 C 0.50455 0.90109 0.61758 0.0
C339 C 0.5158 0.88438 0.62866 0.0
C340 C 0.49388 0.87028 0.6395 0.0
C341 C 0.48889 0.88597 0.7025 0.0
C342 C 0.46437 0.84506 0.69374 0.0
C343 C 0.46912 0.88135 0.6849 0.0
N344 N 0.45674 0.8611 0.68083 0.0
C345 C 0.48378 0.84911 0.71156 0.0
C346 C 0.49604 0.86973 0.71597 0.0
C347 C 0.37284 0.82364 0.68259 0.0
C348 C 0.26598 0.83282 0.6505 0.0
C349 C 0.28857 0.81793 0.61299 0.0
C350 C 0.25586 0.8207 0.61513 0.0
C351 C 0.24443 0.8277 0.63419 0.0
N352 N 0.30997 0.82108 0.62979 0.0
C353 C 0.29854 0.83015 0.64779 0.0
Co354 Co 0.34233 0.0346 0.90092 0.0
Co355 Co 0.39268 0.07832 0.91508 0.0
O356 O 0.37106 0.05991 0.89267 0.0
C357 C 0.37448 0.02207 0.85968 0.0
O358 O 0.38836 0.04126 0.85753 0.0
C359 C 0.4168 0.10918 0.88116 0.0
O360 O 0.41108 0.10337 0.86157 0.0
O361 O 0.34833 0.08426 0.92464 0.0
O362 O 0.32591 0.05066 0.92597 0.0
H363 H 0.4539 0.09753 0.98374 0.0
H364 H 0.33394 0.05159 0.85684 0.0
O365 O 0.35661 0.01723 0.87583 0.0
H366 H 0.22691 0.04875 0.89017 0.0
H367 H 0.26573 0.96913 0.89076 0.0
H368 H 0.32769 0.01448 0.94249 0.0
H369 H 0.27326 0.0381 0.91009 0.0
H370 H 0.29934 0.00103 0.879 0.0
O371 O 0.39481 0.10348 0.89474 0.0
H372 H 0.422 0.07374 0.9603 0.0
H373 H 0.39777 0.12508 0.92339 0.0
H374 H 0.29423 0.98285 0.95493 0.0
H375 H 0.2873 0.059 0.83554 0.0
H376 H 0.26291 0.95992 0.92898 0.0
H377 H 0.23361 0.05925 0.85241 0.0
O378 O 0.37832 0.02488 0.91765 0.0
H379 H 0.47367 0.06005 0.86011 0.0
H380 H 0.45501 0.0654 0.93622 0.0
H381 H 0.5071 0.0571 0.92398 0.0
H382 H 0.51744 0.0544 0.8855 0.0
H383 H 0.42182 0.06931 0.87326 0.0
H384 H 0.43068 0.14963 0.9458 0.0
H385 H 0.45999 0.13593 0.97629 0.0
O386 O 0.39055 0.05451 0.93565 0.0
C387 C 0.32497 0.07038 0.92961 0.0
C388 C 0.44306 0.10367 0.96974 0.0
C389 C 0.43035 0.13283 0.9484 0.0
N390 N 0.41257 0.09732 0.93743 0.0
C391 C 0.42498 0.09008 0.95593 0.0
C392 C 0.41291 0.11866 0.93486 0.0
C393 C 0.44639 0.12518 0.96562 0.0
C394 C 0.31062 0.05039 0.86415 0.0
N395 N 0.30662 0.0439 0.88464 0.0
C396 C 0.2843 0.05535 0.85212 0.0
C397 C 0.25407 0.05508 0.86152 0.0
C398 C 0.25029 0.04917 0.88264 0.0
C399 C 0.27683 0.04334 0.89391 0.0
C400 C 0.27925 0.97901 0.90221 0.0
C401 C 0.31406 0.00464 0.9311 0.0
C402 C 0.29841 -0.00295 0.89564 0.0
N403 N 0.31537 0.00967 0.91005 0.0
C404 C 0.29519 0.98672 0.93824 0.0
C405 C 0.27766 0.97385 0.92367 0.0
C406 C 0.39157 0.03485 0.9332 0.0
C407 C 0.47004 0.06206 0.8769 0.0
C408 C 0.45896 0.06607 0.91959 0.0
C409 C 0.4888 0.06052 0.91265 0.0
C410 C 0.49451 0.05881 0.89111 0.0
N411 N 0.43543 0.07073 0.9056 0.0
C412 C 0.44055 0.0676 0.88451 0.0
Co413 Co 0.05311 0.14251 0.17401 0.0
Co414 Co 0.11509 0.17439 0.1389 0.0
O415 O 0.08604 0.14722 0.15076 0.0
C416 C 0.09659 0.11529 0.19888 0.0
O417 O 0.11796 0.13168 0.20065 0.0
C418 C 0.10646 0.16134 0.07059 0.0
O419 O 0.07586 0.15418 0.07208 0.0
O420 O 0.06955 0.18826 0.144 0.0
O421 O 0.03276 0.16718 0.1628 0.0
H422 H 0.11951 0.24675 0.17749 0.0
H423 H 0.06478 0.10665 0.14663 0.0
O424 O 0.07205 0.11641 0.18669 0.0
H425 H 0.94973 0.11673 0.13725 0.0
H426 H 0.97455 0.10169 0.22326 0.0
H427 H 0.02382 0.1721 0.20229 0.0
H428 H 0.98424 0.13999 0.16082 0.0
H429 H 0.01278 0.10582 0.19338 0.0
O430 O 0.12148 0.17014 0.08692 0.0
H431 H 0.09556 0.21374 0.16413 0.0
H432 H 0.18714 0.20149 0.13861 0.0
H433 H 0.98552 0.16871 0.23205 0.0
H434 H 0.03113 0.08301 0.12268 0.0
H435 H 0.96079 0.13329 0.24286 0.0
H436 H 0.97312 0.08788 0.11811 0.0
O437 O 0.07943 0.16091 0.19347 0.0
H438 H 0.16709 0.10846 0.1666 0.0
H439 H 0.17546 0.18463 0.17125 0.0
H440 H 0.21695 0.16655 0.18651 0.0
H441 H 0.21258 0.12772 0.18563 0.0
H442 H 0.12812 0.12735 0.14858 0.0
H443 H 0.20992 0.23532 0.1505 0.0
H444 H 0.17682 0.25853 0.17051 0.0
O445 O 0.11302 0.17788 0.1703 0.0
C446 C 0.04118 0.18372 0.15205 0.0
C447 C 0.1341 0.23694 0.16837 0.0
C448 C 0.18458 0.23061 0.15323 0.0
N449 N 0.13822 0.2042 0.14906 0.0
C450 C 0.12054 0.21766 0.1604 0.0
C451 C 0.17066 0.21114 0.14601 0.0
C452 C 0.16616 0.24357 0.16451 0.0
C453 C 0.03955 0.10881 0.14459 0.0
N454 N 0.02637 0.12448 0.15516 0.0
C455 C 0.02065 0.09543 0.13105 0.0
C456 C 0.9881 0.09821 0.12844 0.0
C457 C 0.97495 0.11439 0.13916 0.0
C458 C 0.99461 0.12753 0.15245 0.0
C459 C 0.98518 0.11721 0.2187 0.0
C460 C 0.01289 0.15663 0.20671 0.0
C461 C 0.00692 0.11963 0.20184 0.0
N462 N 0.02064 0.13916 0.19613 0.0
C463 C 0.99128 0.15482 0.22363 0.0
C464 C 0.97744 0.13494 0.22969 0.0
C465 C 0.1026 0.17439 0.189 0.0
C466 C 0.17035 0.1255 0.16614 0.0
C467 C 0.17563 0.16873 0.16636 0.0
C468 C 0.19858 0.15799 0.1769 0.0
C469 C 0.19599 0.13622 0.17664 0.0
N470 N 0.15157 0.15861 0.15397 0.0
C471 C 0.14803 0.1368 0.15567 0.0
Co472 Co 0.66405 0.45368 0.91601 0.0
Co473 Co 0.6019 0.41766 0.9313 0.0
O474 O 0.62747 0.43283 0.90839 0.0
C475 C 0.62685 0.47874 0.8845 0.0
O476 O 0.6014 0.47556 0.8967 0.0
C477 C 0.58088 0.39292 0.89239 0.0
O478 O 0.59467 0.40644 0.87871 0.0
O479 O 0.64185 0.40609 0.94029 0.0
O480 O 0.67764 0.4344 0.94091 0.0
H481 H 0.58175 0.39604 0.0076 0.0
H482 H 0.66107 0.43751 0.87203 0.0
O483 O 0.65349 0.472 0.8904 0.0
H484 H 0.76993 0.42666 0.89796 0.0
H485 H 0.75376 0.51125 0.9031 0.0
H486 H 0.68731 0.4711 0.95679 0.0
H487 H 0.73037 0.44079 0.92154 0.0
H488 H 0.71316 0.48239 0.89249 0.0
O489 O 0.5887 0.39342 0.91193 0.0
H490 H 0.61107 0.41465 0.97837 0.0
H491 H 0.54507 0.38416 0.93451 0.0
H492 H 0.72779 0.49967 0.96814 0.0
H493 H 0.7 0.42326 0.84782 0.0
H494 H 0.76121 0.52007 0.94117 0.0
H495 H 0.75497 0.41798 0.86071 0.0
O496 O 0.63379 0.46857 0.93362 0.0
H497 H 0.5262 0.44876 0.87974 0.0
H498 H 0.54054 0.42753 0.95376 0.0
H499 H 0.48876 0.43856 0.94245 0.0
H500 H 0.48074 0.44888 0.90505 0.0
H501 H 0.57751 0.43771 0.89153 0.0
H502 H 0.51764 0.36362 0.96283 0.0
H503 H 0.5352 0.36985 1.0 0.0
O504 O 0.6133 0.44064 0.9513 0.0
C505 C 0.66971 0.41475 0.94569 0.0
C506 C 0.5737 0.39332 0.99147 0.0
C507 C 0.53778 0.37511 0.96643 0.0
N508 N 0.57934 0.4014 0.95432 0.0
C509 C 0.58992 0.40413 0.97474 0.0
C510 C 0.55385 0.38674 0.95021 0.0
C511 C 0.54761 0.37861 0.98723 0.0
C512 C 0.6849 0.43512 0.87775 0.0
N513 N 0.69344 0.44001 0.89813 0.0
C514 C 0.70685 0.42708 0.86398 0.0
C515 C 0.73769 0.42412 0.87122 0.0
C516 C 0.7461 0.42897 0.89211 0.0
C517 C 0.72345 0.43676 0.90547 0.0
C518 C 0.73945 0.50241 0.915 0.0
C519 C 0.7022 0.47967 0.94501 0.0
C520 C 0.71642 0.48607 0.90908 0.0
N521 N 0.69821 0.47494 0.92405 0.0
C522 C 0.72494 0.4959 0.95151 0.0
C523 C 0.74363 0.50735 0.93637 0.0
C524 C 0.61544 0.46017 0.9479 0.0
C525 C 0.52903 0.44377 0.89597 0.0
C526 C 0.53779 0.43162 0.93738 0.0
C527 C 0.50814 0.43812 0.93111 0.0
C528 C 0.50364 0.44395 0.91018 0.0
N529 N 0.56224 0.43022 0.9231 0.0
C530 C 0.55825 0.4371 0.9028 0.0
Co531 Co 0.95546 0.34663 0.17496 0.0
Co532 Co 0.88615 0.31875 0.14473 0.0
O533 O 0.91885 0.34491 0.15415 0.0
C534 C 0.91986 0.38457 0.19159 0.0
O535 O 0.90632 0.38812 0.17349 0.0
C536 C 0.90817 0.32075 0.07708 0.0
O537 O 0.93886 0.32579 0.08118 0.0
O538 O 0.92916 0.30104 0.1525 0.0
O539 O 0.97326 0.32376 0.15897 0.0
H540 H 0.86336 0.25158 0.19105 0.0
H541 H 0.94012 0.3816 0.14523 0.0
O542 O 0.93815 0.36963 0.19335 0.0
H543 H 0.05725 0.3784 0.14 0.0
H544 H 0.03838 0.38083 0.22552 0.0
H545 H 0.98906 0.31364 0.19638 0.0
H546 H 0.02417 0.35298 0.1621 0.0
H547 H 0.99691 0.38052 0.19762 0.0
O548 O 0.88697 0.31757 0.09218 0.0
H549 H 0.89467 0.28152 0.17526 0.0
H550 H 0.80996 0.29769 0.14332 0.0
H551 H 0.03074 0.31326 0.22401 0.0
H552 H 0.97226 0.40738 0.12309 0.0
H553 H 0.05552 0.34702 0.23892 0.0
H554 H 0.03142 0.40618 0.12057 0.0
O555 O 0.93171 0.32598 0.19355 0.0
H556 H 0.84283 0.39085 0.15989 0.0
H557 H 0.8242 0.31633 0.17564 0.0
H558 H 0.78619 0.33883 0.18758 0.0
H559 H 0.79585 0.37709 0.18108 0.0
H560 H 0.87855 0.36698 0.14496 0.0
H561 H 0.78009 0.26684 0.15728 0.0
H562 H 0.80601 0.24322 0.18166 0.0
O563 O 0.88467 0.31978 0.17672 0.0
C564 C 0.96037 0.30557 0.15388 0.0
C565 C 0.85193 0.26164 0.18015 0.0
C566 C 0.8055 0.26989 0.16098 0.0
N567 N 0.85641 0.29214 0.15655 0.0
C568 C 0.86963 0.27917 0.17106 0.0
C569 C 0.82361 0.28745 0.15243 0.0
C570 C 0.81988 0.25678 0.17477 0.0
C571 C 0.96582 0.38142 0.14513 0.0
N572 N 0.98038 0.36689 0.1567 0.0
C573 C 0.98392 0.39586 0.13212 0.0
C574 C 0.0171 0.39508 0.13056 0.0
C575 C 0.03161 0.37956 0.1415 0.0
C576 C 0.01271 0.36533 0.15424 0.0
C577 C 0.02785 0.36602 0.21908 0.0
C578 C 0.00019 0.32842 0.20243 0.0
C579 C 0.00431 0.36574 0.2033 0.0
N580 N 0.99077 0.34708 0.19517 0.0
C581 C 0.02364 0.3281 0.2182 0.0
C582 C 0.03748 0.34704 0.22658 0.0
C583 C 0.90179 0.32065 0.19348 0.0
C584 C 0.83742 0.37402 0.16184 0.0
C585 C 0.82619 0.33146 0.1683 0.0
C586 C 0.80533 0.34494 0.17702 0.0
C587 C 0.81098 0.36638 0.17368 0.0
N588 N 0.85125 0.33835 0.15479 0.0
C589 C 0.85768 0.36 0.15328 0.0
Co590 Co 0.83176 0.528 0.4137 0.0
Co591 Co 0.88581 0.56563 0.43497 0.0
O592 O 0.86613 0.55106 0.40999 0.0
C593 C 0.86931 0.5168 0.3741 0.0
O594 O 0.88881 0.53412 0.37573 0.0
C595 C 0.89245 0.59674 0.39918 0.0
O596 O 0.87831 0.58309 0.38583 0.0
O597 O 0.84233 0.57394 0.44276 0.0
O598 O 0.81474 0.54212 0.44009 0.0
H599 H 0.89284 0.58417 0.51234 0.0
H600 H 0.83671 0.55174 0.37283 0.0
O601 O 0.84634 0.51266 0.38742 0.0
H602 H 0.72716 0.55869 0.39928 0.0
H603 H 0.74529 0.47179 0.39103 0.0
H604 H 0.80795 0.50346 0.45111 0.0
H605 H 0.76352 0.53733 0.41876 0.0
H606 H 0.78585 0.50222 0.38549 0.0
O607 O 0.89483 0.59237 0.41871 0.0
H608 H 0.86865 0.56643 0.48065 0.0
H609 H 0.94271 0.59718 0.44222 0.0
H610 H 0.76757 0.47317 0.4574 0.0
H611 H 0.80118 0.57317 0.35282 0.0
H612 H 0.73593 0.45711 0.42721 0.0
H613 H 0.74594 0.57688 0.36607 0.0
O614 O 0.86257 0.51303 0.43053 0.0
H615 H 0.97807 0.55525 0.38528 0.0
H616 H 0.94017 0.54959 0.45909 0.0
H617 H 0.9952 0.54147 0.45057 0.0
H618 H 0.01466 0.54443 0.41344 0.0
H619 H 0.92362 0.56322 0.39444 0.0
H620 H 0.9674 0.61532 0.47339 0.0
H621 H 0.94272 0.60866 0.50883 0.0
O622 O 0.878 0.53947 0.45251 0.0
C623 C 0.81717 0.56134 0.44642 0.0
C624 C 0.90391 0.58709 0.49699 0.0
C625 C 0.94577 0.60458 0.47515 0.0
N626 N 0.90435 0.58054 0.45961 0.0
C627 C 0.89033 0.57707 0.479 0.0
C628 C 0.9315 0.59434 0.45752 0.0
C629 C 0.93191 0.60083 0.49502 0.0
C630 C 0.81269 0.55296 0.37859 0.0
N631 N 0.80231 0.5431 0.3969 0.0
C632 C 0.79264 0.56523 0.36721 0.0
C633 C 0.76168 0.56734 0.37466 0.0
C634 C 0.75113 0.55714 0.39328 0.0
C635 C 0.77187 0.54503 0.40424 0.0
C636 C 0.75886 0.4787 0.40431 0.0
C637 C 0.79407 0.49666 0.43793 0.0
C638 C 0.78185 0.49589 0.40127 0.0
N639 N 0.79898 0.50469 0.418 0.0
C640 C 0.77132 0.47948 0.44158 0.0
C641 C 0.75361 0.47046 0.42462 0.0
C642 C 0.87712 0.52026 0.44702 0.0
C643 C 0.96996 0.554 0.40155 0.0
C644 C 0.94827 0.55093 0.44286 0.0
C645 C 0.97956 0.54628 0.43815 0.0
C646 C 0.99046 0.54791 0.41734 0.0
N647 N 0.92836 0.55733 0.42737 0.0
C648 C 0.9389 0.55859 0.40689 0.0
Co649 Co 0.93034 0.64988 0.29303 0.0
Co650 Co 0.86352 0.66351 0.32101 0.0
O651 O 0.89262 0.64286 0.31144 0.0
C652 C 0.88907 0.61988 0.26758 0.0
O653 O 0.86588 0.63218 0.2699 0.0
C654 C 0.84136 0.63907 0.36087 0.0
O655 O 0.81699 0.6279 0.35194 0.0
O656 O 0.90181 0.6822 0.33093 0.0
O657 O 0.94417 0.6744 0.31134 0.0
H658 H 0.83375 0.73725 0.33119 0.0
H659 H 0.91849 0.60687 0.31141 0.0
O660 O 0.91691 0.62505 0.2752 0.0
H661 H 0.02961 0.63263 0.33196 0.0
H662 H 0.0227 0.63391 0.24612 0.0
H663 H 0.96036 0.6894 0.27409 0.0
H664 H 0.99573 0.65554 0.31223 0.0
H665 H 0.97787 0.62507 0.27113 0.0
O666 O 0.86164 0.65109 0.3502 0.0
H667 H 0.86685 0.7099 0.3186 0.0
H668 H 0.79916 0.66238 0.34405 0.0
H669 H 0.00517 0.69901 0.24943 0.0
H670 H 0.95116 0.58367 0.33191 0.0
H671 H 0.03663 0.67113 0.23516 0.0
H672 H 0.00726 0.59648 0.34211 0.0
O673 O 0.90628 0.66774 0.2743 0.0
H674 H 0.80436 0.59332 0.30166 0.0
H675 H 0.80252 0.67035 0.29831 0.0
H676 H 0.75804 0.64745 0.28246 0.0
H677 H 0.75868 0.6086 0.28407 0.0
H678 H 0.84782 0.61668 0.31796 0.0
H679 H 0.76655 0.6891 0.35782 0.0
H680 H 0.78352 0.72696 0.35133 0.0
O681 O 0.86554 0.67794 0.29353 0.0
C682 C 0.9318 0.68461 0.3261 0.0
C683 C 0.8262 0.7208 0.33424 0.0
C684 C 0.78859 0.69382 0.34926 0.0
N685 N 0.83557 0.68436 0.33084 0.0
C686 C 0.84483 0.7052 0.3271 0.0
C687 C 0.8076 0.67866 0.34167 0.0
C688 C 0.79805 0.71504 0.34556 0.0
C689 C 0.94277 0.61259 0.31601 0.0
N690 N 0.95526 0.63247 0.31056 0.0
C691 C 0.96117 0.59939 0.32756 0.0
C692 C 0.99264 0.60658 0.3333 0.0
C693 C 0.0052 0.62686 0.32762 0.0
C694 C 0.98587 0.63979 0.3165 0.0
C695 C 0.00936 0.64623 0.25239 0.0
C696 C 0.97448 0.67727 0.26843 0.0
C697 C 0.984 0.64131 0.26657 0.0
N698 N 0.96711 0.65681 0.27456 0.0
C699 C 0.99962 0.68277 0.25428 0.0
C700 C 0.01718 0.66711 0.24624 0.0
C701 C 0.8825 0.67834 0.27694 0.0
C702 C 0.80348 0.61021 0.30118 0.0
C703 C 0.80255 0.65348 0.29981 0.0
C704 C 0.77745 0.64057 0.29049 0.0
C705 C 0.77789 0.61879 0.2913 0.0
N706 N 0.82699 0.64499 0.3103 0.0
C707 C 0.82812 0.62361 0.31037 0.0
Co708 Co 0.57533 0.33616 0.79152 0.0
Co709 Co 0.64553 0.32339 0.81643 0.0
O710 O 0.61609 0.34381 0.8068 0.0
C711 C 0.61317 0.3681 0.76628 0.0
O712 O 0.63772 0.35706 0.76936 0.0
C713 C 0.64327 0.35536 0.85004 0.0
O714 O 0.63036 0.36833 0.83722 0.0
O715 O 0.60926 0.30672 0.83031 0.0
O716 O 0.565 0.31085 0.81069 0.0
H717 H 0.67536 0.25036 0.83146 0.0
H718 H 0.59082 0.37862 0.80949 0.0
O719 O 0.58521 0.36122 0.77271 0.0
H720 H 0.47772 0.35849 0.82877 0.0
H721 H 0.47773 0.34983 0.74811 0.0
H722 H 0.5421 0.29566 0.77721 0.0
H723 H 0.51041 0.33242 0.81236 0.0
H724 H 0.52525 0.35996 0.77049 0.0
O725 O 0.65292 0.33831 0.84362 0.0
H726 H 0.64228 0.27669 0.81624 0.0
H727 H 0.70831 0.32628 0.83948 0.0
H728 H 0.49466 0.28488 0.75516 0.0
H729 H 0.56063 0.40374 0.82881 0.0
H730 H 0.46217 0.31206 0.74031 0.0
H731 H 0.50327 0.39381 0.8381 0.0
O732 O 0.59731 0.31891 0.77164 0.0
H733 H 0.71868 0.38875 0.79612 0.0
H734 H 0.69865 0.31169 0.78942 0.0
H735 H 0.74628 0.33026 0.77236 0.0
H736 H 0.75685 0.36908 0.77581 0.0
H737 H 0.67126 0.36977 0.8124 0.0
H738 H 0.74192 0.3005 0.85509 0.0
H739 H 0.72545 0.26223 0.85118 0.0
O740 O 0.63784 0.30691 0.79022 0.0
C741 C 0.57993 0.30188 0.82544 0.0
C742 C 0.68289 0.26699 0.83315 0.0
C743 C 0.72023 0.29513 0.84645 0.0
N744 N 0.67354 0.30299 0.82674 0.0
C745 C 0.66435 0.28196 0.82447 0.0
C746 C 0.70109 0.30965 0.83757 0.0
C747 C 0.71097 0.27366 0.84424 0.0
C748 C 0.56666 0.37361 0.81479 0.0
N749 N 0.55279 0.35381 0.8103 0.0
C750 C 0.54941 0.38811 0.8253 0.0
C751 C 0.51726 0.38256 0.8305 0.0
C752 C 0.50306 0.36253 0.82554 0.0
C753 C 0.5216 0.34798 0.8161 0.0
C754 C 0.49159 0.33784 0.75459 0.0
C755 C 0.52772 0.30759 0.77124 0.0
C756 C 0.51856 0.34348 0.76726 0.0
N757 N 0.53614 0.3284 0.77552 0.0
C758 C 0.501 0.30138 0.7586 0.0
C759 C 0.48284 0.31664 0.75024 0.0
C760 C 0.62004 0.30737 0.77394 0.0
C761 C 0.71459 0.37179 0.79473 0.0
C762 C 0.70285 0.32859 0.79104 0.0
C763 C 0.72998 0.33902 0.78131 0.0
C764 C 0.73592 0.36077 0.78327 0.0
N765 N 0.68223 0.3394 0.80268 0.0
C766 C 0.68771 0.36081 0.80427 0.0
Co767 Co 0.9542 0.89679 0.91814 0.0
Co768 Co 0.94538 0.94754 0.90498 0.0
O769 O 0.94507 0.91765 0.89637 0.0
C770 C 0.00323 0.88544 0.88692 0.0
O771 O 0.01598 0.90505 0.88595 0.0
C772 C 0.90729 0.94582 0.86323 0.0
O773 O 0.90849 0.92558 0.86012 0.0
O774 O 0.908 0.93903 0.92423 0.0
O775 O 0.93051 0.91225 0.93971 0.0
H776 H 0.93646 0.00509 0.95828 0.0
H777 H 0.91822 0.88379 0.87898 0.0
O778 O 0.97734 0.88038 0.8972 0.0
H779 H 0.85543 0.84917 0.93764 0.0
H780 H 0.97232 0.82486 0.94646 0.0
H781 H 0.97443 0.90042 0.96312 0.0
H782 H 0.90275 0.87424 0.94462 0.0
H783 H 0.95658 0.84999 0.91959 0.0
O784 O 0.91648 0.95437 0.88072 0.0
H785 H 0.93912 0.96858 0.94646 0.0
H786 H 0.94919 0.98937 0.88273 0.0
H787 H 0.98996 0.87578 0.9905 0.0
H788 H 0.87117 0.85801 0.87111 0.0
H789 H 0.98913 0.8377 0.98224 0.0
H790 H 0.84041 0.84002 0.90067 0.0
O791 O 0.99544 0.9135 0.92492 0.0
H792 H 0.01563 0.94158 0.84066 0.0
H793 H 0.00622 0.97615 0.90969 0.0
H794 H 0.05468 0.98498 0.88795 0.0
H795 H 0.05959 0.96775 0.85309 0.0
H796 H 0.96786 0.93319 0.86278 0.0
H797 H 0.94622 0.02599 0.89377 0.0
H798 H 0.93996 0.03414 0.93185 0.0
O799 O 0.97495 0.94393 0.9292 0.0
C800 C 0.90979 0.92579 0.93945 0.0
C801 C 0.93924 0.00176 0.94164 0.0
C802 C 0.94465 0.01349 0.90545 0.0
N803 N 0.94435 0.97669 0.91385 0.0
C804 C 0.94082 0.98108 0.93483 0.0
C805 C 0.94614 0.99264 0.89925 0.0
C806 C 0.94117 0.01804 0.92681 0.0
C807 C 0.90475 0.87591 0.89173 0.0
N808 N 0.91395 0.8799 0.91211 0.0
C809 C 0.87828 0.8614 0.88726 0.0
C810 C 0.86079 0.8514 0.90384 0.0
C811 C 0.86916 0.85653 0.92461 0.0
C812 C 0.89584 0.87096 0.92845 0.0
C813 C 0.97275 0.84142 0.95026 0.0
C814 C 0.97373 0.88387 0.95941 0.0
C815 C 0.96397 0.85576 0.93508 0.0
N816 N 0.96456 0.87672 0.93974 0.0
C817 C 0.98263 0.86998 0.97499 0.0
C818 C 0.98218 0.84863 0.97033 0.0
C819 C 0.99687 0.93188 0.93246 0.0
C820 C 0.01351 0.94953 0.85563 0.0
C821 C 0.00774 0.96887 0.89436 0.0
C822 C 0.03543 0.97383 0.88218 0.0
C823 C 0.03821 0.96414 0.86264 0.0
N824 N 0.9831 0.95494 0.88715 0.0
C825 C 0.98617 0.945 0.86822 0.0
Co826 Co 0.81422 0.15058 0.64162 0.0
Co827 Co 0.84364 0.13013 0.68792 0.0
O828 O 0.8281 0.12519 0.65724 0.0
C829 C 0.74792 0.13119 0.62682 0.0
O830 O 0.73277 0.1412 0.64127 0.0
C831 C 0.86182 0.08469 0.68718 0.0
O832 O 0.84446 0.07667 0.67136 0.0
O833 O 0.88088 0.14676 0.67563 0.0
O834 O 0.85302 0.16795 0.65552 0.0
H835 H 0.89421 0.17661 0.74559 0.0
H836 H 0.82387 0.11753 0.6086 0.0
O837 O 0.77875 0.13262 0.62632 0.0
H838 H 0.87935 0.18336 0.58152 0.0
H839 H 0.76494 0.19347 0.58467 0.0
H840 H 0.81488 0.1949 0.65537 0.0
H841 H 0.85693 0.18172 0.61741 0.0
H842 H 0.7824 0.16127 0.60036 0.0
O843 O 0.86956 0.10455 0.68832 0.0
H844 H 0.87309 0.16851 0.7098 0.0
H845 H 0.85139 0.10429 0.7271 0.0
H846 H 0.79894 0.22778 0.6399 0.0
H847 H 0.85418 0.11701 0.57533 0.0
H848 H 0.77371 0.22722 0.60425 0.0
H849 H 0.87937 0.15058 0.56043 0.0
O850 O 0.78486 0.15335 0.6654 0.0
H851 H 0.75139 0.07231 0.69161 0.0
H852 H 0.80179 0.13659 0.72555 0.0
H853 H 0.75388 0.11754 0.74169 0.0
H854 H 0.72847 0.08486 0.72491 0.0
H855 H 0.79887 0.09264 0.67602 0.0
H856 H 0.87311 0.11157 0.76277 0.0
H857 H 0.89425 0.14806 0.7724 0.0
O858 O 0.82143 0.15622 0.69053 0.0
C859 C 0.87988 0.16257 0.66336 0.0
C860 C 0.88507 0.16065 0.74158 0.0
C861 C 0.87333 0.12416 0.75123 0.0
N862 N 0.86103 0.1359 0.71621 0.0
C863 C 0.87302 0.15596 0.72133 0.0
C864 C 0.86141 0.12007 0.73085 0.0
C865 C 0.88514 0.14462 0.75661 0.0
C866 C 0.83847 0.13138 0.60385 0.0
N867 N 0.84099 0.14887 0.61634 0.0
C868 C 0.85402 0.1314 0.58427 0.0
C869 C 0.86835 0.15022 0.57594 0.0
C870 C 0.86833 0.16855 0.58774 0.0
C871 C 0.85559 0.16741 0.60823 0.0
C872 C 0.77552 0.19389 0.60033 0.0
C873 C 0.80348 0.19441 0.64007 0.0
C874 C 0.78495 0.17553 0.60953 0.0
N875 N 0.79881 0.17589 0.6292 0.0
C876 C 0.79461 0.21313 0.63131 0.0
C877 C 0.7805 0.21282 0.61131 0.0
C878 C 0.79359 0.15867 0.68379 0.0
C879 C 0.76264 0.08624 0.69936 0.0
C880 C 0.79152 0.12218 0.71824 0.0
C881 C 0.76405 0.11156 0.72743 0.0
C882 C 0.74974 0.0933 0.718 0.0
N883 N 0.80501 0.11466 0.70034 0.0
C884 C 0.78999 0.09745 0.69064 0.0
Co885 Co 0.54962 0.09384 0.41727 0.0
Co886 Co 0.5563 0.04378 0.39886 0.0
O887 O 0.55644 0.07441 0.39373 0.0
C888 C 0.49748 0.10702 0.3894 0.0
O889 O 0.48479 0.08746 0.3876 0.0
C890 C 0.59103 0.04847 0.3562 0.0
O891 O 0.58446 0.06792 0.35293 0.0
O892 O 0.59285 0.04995 0.41965 0.0
O893 O 0.57457 0.07717 0.43701 0.0
H894 H 0.56127 0.9806 0.44601 0.0
H895 H 0.58115 0.10851 0.37722 0.0
O896 O 0.52459 0.1115 0.3985 0.0
H897 H 0.6521 0.13906 0.43398 0.0
H898 H 0.53775 0.16444 0.45049 0.0
H899 H 0.53233 0.08778 0.46261 0.0
H900 H 0.60424 0.11469 0.44236 0.0
H901 H 0.54984 0.14057 0.42162 0.0
O902 O 0.58775 0.04022 0.37468 0.0
H903 H 0.5582 0.01814 0.43791 0.0
H904 H 0.55764 0.00503 0.37204 0.0
H905 H 0.52049 0.11114 0.492 0.0
H906 H 0.62882 0.13299 0.36804 0.0
H907 H 0.52299 0.14976 0.48601 0.0
H908 H 0.66369 0.14918 0.3967 0.0
O909 O 0.50921 0.07698 0.42489 0.0
H910 H 0.48426 0.05844 0.33682 0.0
H911 H 0.49873 0.01165 0.39739 0.0
H912 H 0.45237 0.00396 0.37386 0.0
H913 H 0.44498 0.0272 0.34302 0.0
H914 H 0.52966 0.06578 0.36081 0.0
H915 H 0.56155 0.96747 0.37943 0.0
H916 H 0.5631 0.95496 0.41665 0.0
O917 O 0.52428 0.04451 0.42237 0.0
C918 C 0.59319 0.06257 0.43545 0.0
C919 C 0.56058 0.98585 0.42972 0.0
C920 C 0.56084 0.97849 0.39237 0.0
N921 N 0.55776 0.01388 0.40453 0.0
C922 C 0.55874 0.0071 0.42503 0.0
C923 C 0.55894 -0.00015 0.38828 0.0
C924 C 0.56165 0.97148 0.41325 0.0
C925 C 0.5965 0.11538 0.38961 0.0
N926 N 0.58936 0.11077 0.41023 0.0
C927 C 0.62342 0.1292 0.38437 0.0
C928 C 0.64315 0.13813 0.40043 0.0
C929 C 0.63659 0.13253 0.42139 0.0
C930 C 0.60952 0.11865 0.426 0.0
C931 C 0.53662 0.14764 0.45332 0.0
C932 C 0.53379 0.10458 0.45991 0.0
C933 C 0.54335 0.13402 0.43701 0.0
N934 N 0.54184 0.11276 0.4404 0.0
C935 C 0.52696 0.11773 0.47661 0.0
C936 C 0.52835 0.13939 0.47323 0.0
C937 C 0.50462 0.05736 0.42832 0.0
C938 C 0.48782 0.04771 0.34973 0.0
C939 C 0.49664 0.02158 0.38372 0.0
C940 C 0.46988 0.01724 0.37054 0.0
C941 C 0.46568 0.03029 0.3533 0.0
N942 N 0.51942 0.03807 0.37957 0.0
C943 C 0.5143 0.05151 0.36323 0.0
Co944 Co 0.68074 0.83779 0.14193 0.0
Co945 Co 0.65651 0.84947 0.19283 0.0
O946 O 0.66392 0.85902 0.16217 0.0
C947 C 0.73887 0.86033 0.12136 0.0
O948 O 0.75413 0.84464 0.1283 0.0
C949 C 0.61767 0.88926 0.19338 0.0
O950 O 0.62488 0.89563 0.17407 0.0
O951 O 0.62248 0.82808 0.18173 0.0
O952 O 0.6535 0.81414 0.15742 0.0
H953 H 0.63886 0.79079 0.24628 0.0
H954 H 0.65801 0.8702 0.11295 0.0
O955 O 0.7088 0.8609 0.12583 0.0
H956 H 0.59348 0.80453 0.09416 0.0
H957 H 0.71553 0.8072 0.07287 0.0
H958 H 0.7028 0.79566 0.1497 0.0
H959 H 0.6318 0.80549 0.12347 0.0
H960 H 0.695 0.83427 0.09537 0.0
O961 O 0.62388 0.87086 0.19962 0.0
H962 H 0.64903 0.80627 0.21106 0.0
H963 H 0.64485 0.86736 0.23621 0.0
H964 H 0.72338 0.76815 0.12771 0.0
H965 H 0.62162 0.86992 0.08238 0.0
H966 H 0.72983 0.77379 0.08898 0.0
H967 H 0.58854 0.8368 0.0729 0.0
O968 O 0.71713 0.83638 0.16132 0.0
H969 H 0.7191 0.92119 0.20036 0.0
H970 H 0.70933 0.84755 0.22467 0.0
H971 H 0.75138 0.87272 0.23987 0.0
H972 H 0.75626 0.91004 0.22796 0.0
H973 H 0.67881 0.89516 0.18491 0.0
H974 H 0.63415 0.85269 0.27161 0.0
H975 H 0.63137 0.81399 0.27699 0.0
O976 O 0.68903 0.82853 0.19024 0.0
C977 C 0.6287 0.81288 0.16965 0.0
C978 C 0.64008 0.80769 0.24419 0.0
C979 C 0.63741 0.84237 0.25838 0.0
N980 N 0.64787 0.83801 0.22129 0.0
C981 C 0.64592 0.81664 0.22419 0.0
C982 C 0.64335 0.85072 0.23815 0.0
C983 C 0.63586 0.82069 0.26139 0.0
C984 C 0.64325 0.85616 0.10944 0.0
N985 N 0.64562 0.8386 0.12141 0.0
C986 C 0.62281 0.85588 0.09188 0.0
C987 C 0.60432 0.83732 0.08653 0.0
C988 C 0.60701 0.81925 0.09848 0.0
C989 C 0.62833 0.82007 0.11559 0.0
C990 C 0.71288 0.80455 0.08973 0.0
C991 C 0.70566 0.79833 0.1329 0.0
C992 C 0.70127 0.81986 0.10261 0.0
N993 N 0.69784 0.81669 0.12397 0.0
C994 C 0.7173 0.78266 0.12051 0.0
C995 C 0.7209 0.78583 0.09878 0.0
C996 C 0.71506 0.8291 0.17983 0.0
C997 C 0.71743 0.90494 0.20558 0.0
C998 C 0.71166 0.86351 0.21889 0.0
C999 C 0.73546 0.8778 0.22775 0.0
C1000 C 0.7382 0.89871 0.2211 0.0
N1001 N 0.69107 0.8697 0.20371 0.0
C1002 C 0.69432 0.89009 0.19687 0.0
Co1003 Co 0.84822 0.05564 0.60563 0.0
Co1004 Co 0.92111 0.0768 0.62564 0.0
O1005 O 0.87622 0.08102 0.61539 0.0
C1006 C 0.80607 0.08179 0.57779 0.0
O1007 O 0.78385 0.08275 0.59225 0.0
C1008 C 0.91065 0.12108 0.64076 0.0
O1009 O 0.88157 0.1188 0.63299 0.0
O1010 O 0.89981 0.06016 0.64957 0.0
O1011 O 0.86569 0.03894 0.62924 0.0
H1012 H 0.00231 0.03245 0.65727 0.0
H1013 H 0.82482 0.09248 0.62917 0.0
O1014 O 0.83118 0.07225 0.58125 0.0
H1015 H 0.748 0.03188 0.64717 0.0
H1016 H 0.75233 0.01167 0.57328 0.0
H1017 H 0.86283 0.0115 0.60107 0.0
H1018 H 0.79872 0.02712 0.62942 0.0
H1019 H 0.78104 0.04396 0.58721 0.0
O1020 O 0.92638 0.10491 0.64215 0.0
H1021 H 0.9495 0.03942 0.64289 0.0
H1022 H 0.98361 0.10367 0.63269 0.0
H1023 H 0.83436 0.97854 0.58788 0.0
H1024 H 0.77185 0.09837 0.64491 0.0
H1025 H 0.77868 0.97842 0.57381 0.0
H1026 H 0.7327 0.06801 0.65328 0.0
O1027 O 0.88275 0.05022 0.58607 0.0
H1028 H 0.93181 0.13257 0.56838 0.0
H1029 H 0.97614 0.06966 0.59718 0.0
H1030 H 0.00094 0.08711 0.56569 0.0
H1031 H 0.97912 0.11905 0.5512 0.0
H1032 H 0.90705 0.11412 0.59927 0.0
H1033 H 0.03671 0.09734 0.64715 0.0
H1034 H 0.04645 0.0615 0.65943 0.0
O1035 O 0.92179 0.04967 0.60957 0.0
C1036 C 0.88063 0.04327 0.64671 0.0
C1037 C 0.99839 0.04813 0.65193 0.0
C1038 C 0.01766 0.08455 0.64629 0.0
N1039 N 0.96331 0.07192 0.63685 0.0
C1040 C 0.96849 0.05219 0.64374 0.0
C1041 C 0.98742 0.08805 0.63822 0.0
C1042 C 0.02313 0.06444 0.65317 0.0
C1043 C 0.80694 0.07953 0.63155 0.0
N1044 N 0.8127 0.06001 0.62499 0.0
C1045 C 0.77725 0.08281 0.64065 0.0
C1046 C 0.75544 0.06567 0.64581 0.0
C1047 C 0.76394 0.04548 0.64236 0.0
C1048 C 0.79299 0.04296 0.63219 0.0
C1049 C 0.77671 0.01153 0.57918 0.0
C1050 C 0.83867 0.01173 0.59495 0.0
C1051 C 0.79347 0.03002 0.58677 0.0
N1052 N 0.82409 0.03003 0.5947 0.0
C1053 C 0.82265 0.99295 0.58747 0.0
C1054 C 0.79145 0.99289 0.57955 0.0
C1055 C 0.90969 0.04468 0.59164 0.0
C1056 C 0.94188 0.11889 0.57475 0.0
C1057 C 0.96652 0.08363 0.5912 0.0
C1058 C 0.98067 0.09341 0.57324 0.0
C1059 C 0.96838 0.11127 0.56509 0.0
N1060 N 0.9409 0.09144 0.60097 0.0
C1061 C 0.92817 0.10854 0.59257 0.0
Co1062 Co 0.62487 0.15233 0.30905 0.0
Co1063 Co 0.69624 0.13979 0.32917 0.0
O1064 O 0.65294 0.14895 0.33329 0.0
C1065 C 0.61633 0.18779 0.33926 0.0
O1066 O 0.63164 0.17861 0.35426 0.0
C1067 C 0.6955 0.11041 0.36602 0.0
O1068 O 0.69506 0.09424 0.35319 0.0
O1069 O 0.67548 0.11291 0.31767 0.0
O1070 O 0.64142 0.12705 0.29531 0.0
H1071 H 0.78211 0.10591 0.28966 0.0
H1072 H 0.58504 0.15243 0.34916 0.0
O1073 O 0.60953 0.17863 0.32163 0.0
H1074 H 0.54052 0.09012 0.3094 0.0
H1075 H 0.52363 0.16887 0.27178 0.0
H1076 H 0.6345 0.14954 0.26274 0.0
H1077 H 0.58667 0.11266 0.29543 0.0
H1078 H 0.55791 0.16374 0.30284 0.0
O1079 O 0.69391 0.12889 0.35879 0.0
H1080 H 0.72836 0.11815 0.29476 0.0
H1081 H 0.75493 0.13979 0.35642 0.0
H1082 H 0.60101 0.15439 0.23121 0.0
H1083 H 0.53689 0.13213 0.36199 0.0
H1084 H 0.54514 0.16414 0.23564 0.0
H1085 H 0.5145 0.09991 0.34271 0.0
O1086 O 0.6595 0.17119 0.29617 0.0
H1087 H 0.70848 0.20077 0.3798 0.0
H1088 H 0.75055 0.17081 0.31487 0.0
H1089 H 0.77433 0.2054 0.32741 0.0
H1090 H 0.75332 0.22064 0.36013 0.0
H1091 H 0.68514 0.16634 0.36646 0.0
H1092 H 0.80886 0.12761 0.35206 0.0
H1093 H 0.82284 0.11068 0.31841 0.0
O1094 O 0.70018 0.15132 0.29957 0.0
C1095 C 0.65726 0.11189 0.3014 0.0
C1096 C 0.77632 0.11328 0.30439 0.0
C1097 C 0.79132 0.12544 0.33941 0.0
N1098 N 0.73849 0.12974 0.32584 0.0
C1099 C 0.74591 0.12026 0.30736 0.0
C1100 C 0.76069 0.13224 0.34181 0.0
C1101 C 0.79915 0.11595 0.32053 0.0
C1102 C 0.57564 0.13907 0.34011 0.0
N1103 N 0.58974 0.13387 0.32163 0.0
C1104 C 0.54804 0.12732 0.34766 0.0
C1105 C 0.53555 0.10939 0.33682 0.0
C1106 C 0.55023 0.10385 0.31819 0.0
C1107 C 0.57702 0.11652 0.3106 0.0
C1108 C 0.5479 0.16457 0.26964 0.0
C1109 C 0.61014 0.15362 0.26477 0.0
C1110 C 0.56743 0.16165 0.28716 0.0
N1111 N 0.59805 0.15614 0.28457 0.0
C1112 C 0.59132 0.15641 0.24687 0.0
C1113 C 0.55998 0.16191 0.24937 0.0
C1114 C 0.6877 0.16694 0.2916 0.0
C1115 C 0.71776 0.19435 0.36547 0.0
C1116 C 0.74096 0.17739 0.32898 0.0
C1117 C 0.75469 0.19696 0.33608 0.0
C1118 C 0.74292 0.20549 0.35444 0.0
N1119 N 0.71598 0.16666 0.33974 0.0
C1120 C 0.70458 0.17485 0.35785 0.0
Co1121 Co 0.64352 0.93501 0.10542 0.0
Co1122 Co 0.56931 0.91944 0.12608 0.0
O1123 O 0.61188 0.91161 0.11559 0.0
C1124 C 0.67793 0.903 0.07953 0.0
O1125 O 0.6936 0.89676 0.09584 0.0
C1126 C 0.57364 0.87567 0.14524 0.0
O1127 O 0.60282 0.87505 0.13782 0.0
O1128 O 0.59403 0.93458 0.14929 0.0
O1129 O 0.62876 0.95408 0.12797 0.0
H1130 H 0.49842 0.97048 0.15768 0.0
H1131 H 0.65859 0.89727 0.13155 0.0
O1132 O 0.65791 0.91675 0.08164 0.0
H1133 H 0.73938 0.95454 0.1526 0.0
H1134 H 0.74656 0.96925 0.07286 0.0
H1135 H 0.63786 0.98046 0.09851 0.0
H1136 H 0.69471 0.96128 0.12934 0.0
H1137 H 0.71104 0.93983 0.08766 0.0
O1138 O 0.56019 0.8927 0.14378 0.0
H1139 H 0.54864 0.95939 0.14277 0.0
H1140 H 0.50347 0.89737 0.13392 0.0
H1141 H 0.67313 0.01051 0.08439 0.0
H1142 H 0.70515 0.88923 0.15338 0.0
H1143 H 0.72791 0.00502 0.07142 0.0
H1144 H 0.74586 0.91797 0.16406 0.0
O1145 O 0.6108 0.94221 0.08525 0.0
H1146 H 0.54616 0.86098 0.07312 0.0
H1147 H 0.51667 0.93001 0.0968 0.0
H1148 H 0.48895 0.91289 0.06611 0.0
H1149 H 0.50347 0.878 0.05414 0.0
H1150 H 0.57384 0.87896 0.10335 0.0
H1151 H 0.45292 0.90778 0.14889 0.0
H1152 H 0.45006 0.9446 0.16082 0.0
O1153 O 0.57296 0.94617 0.10893 0.0
C1154 C 0.61525 0.9502 0.14594 0.0
C1155 C 0.49934 0.9544 0.15251 0.0
C1156 C 0.47382 0.91921 0.14762 0.0
N1157 N 0.5291 0.92776 0.1374 0.0
C1158 C 0.52773 0.94802 0.14402 0.0
C1159 C 0.50261 0.91339 0.13923 0.0
C1160 C 0.47223 0.93987 0.15429 0.0
C1161 C 0.67736 0.90943 0.13487 0.0
N1162 N 0.67672 0.92883 0.12597 0.0
C1163 C 0.70298 0.90502 0.1479 0.0
C1164 C 0.72592 0.9212 0.15396 0.0
C1165 C 0.7226 0.94159 0.14729 0.0
C1166 C 0.69744 0.94517 0.13359 0.0
C1167 C 0.72268 0.97183 0.07837 0.0
C1168 C 0.66166 0.9779 0.09295 0.0
C1169 C 0.7022 0.95512 0.08653 0.0
N1170 N 0.67215 0.95828 0.09389 0.0
C1171 C 0.68152 0.99499 0.08492 0.0
C1172 C 0.71223 0.9919 0.07761 0.0
C1173 C 0.58473 0.94919 0.09054 0.0
C1174 C 0.53948 0.8761 0.07829 0.0
C1175 C 0.52317 0.91481 0.0918 0.0
C1176 C 0.50735 0.9052 0.07435 0.0
C1177 C 0.51553 0.88566 0.06763 0.0
N1178 N 0.54654 0.90527 0.10233 0.0
C1179 C 0.55494 0.88627 0.09557 0.0
Co1180 Co 0.86654 0.83735 0.81179 0.0
Co1181 Co 0.79619 0.8513 0.83227 0.0
O1182 O 0.83983 0.8424 0.83653 0.0
C1183 C 0.86666 0.79905 0.83716 0.0
O1184 O 0.83545 0.79992 0.83837 0.0
C1185 C 0.81153 0.87918 0.87217 0.0
O1186 O 0.8333 0.89302 0.86377 0.0
O1187 O 0.8164 0.87738 0.81817 0.0
O1188 O 0.84865 0.86118 0.79627 0.0
H1189 H 0.70948 0.88254 0.79077 0.0
H1190 H 0.90862 0.83884 0.85034 0.0
O1191 O 0.88395 0.8131 0.82679 0.0
H1192 H 0.94835 0.90106 0.80807 0.0
H1193 H 0.96758 0.82059 0.77455 0.0
H1194 H 0.85487 0.83639 0.7655 0.0
H1195 H 0.90258 0.87724 0.79558 0.0
H1196 H 0.93392 0.82655 0.80557 0.0
O1197 O 0.79796 0.86414 0.86121 0.0
H1198 H 0.76303 0.87016 0.79638 0.0
H1199 H 0.73822 0.85347 0.85983 0.0
H1200 H 0.88779 0.8307 0.73398 0.0
H1201 H 0.95707 0.86055 0.86164 0.0
H1202 H 0.94461 0.82277 0.73841 0.0
H1203 H 0.97634 0.89285 0.84126 0.0
O1204 O 0.83138 0.81718 0.80068 0.0
H1205 H 0.78776 0.79512 0.88844 0.0
H1206 H 0.74093 0.81914 0.82199 0.0
H1207 H 0.718 0.78592 0.83844 0.0
H1208 H 0.74138 0.77372 0.87195 0.0
H1209 H 0.81052 0.82786 0.87106 0.0
H1210 H 0.68456 0.86582 0.85496 0.0
H1211 H 0.66976 0.88037 0.82017 0.0
O1212 O 0.79103 0.83734 0.80374 0.0
C1213 C 0.83339 0.87691 0.8013 0.0
C1214 C 0.71562 0.8762 0.806 0.0
C1215 C 0.70165 0.86686 0.84202 0.0
N1216 N 0.75383 0.86103 0.82841 0.0
C1217 C 0.74593 0.86914 0.80927 0.0
C1218 C 0.73218 0.85997 0.84472 0.0
C1219 C 0.69336 0.875 0.8225 0.0
C1220 C 0.91716 0.8523 0.84081 0.0
N1221 N 0.90171 0.85688 0.82254 0.0
C1222 C 0.94474 0.86472 0.84743 0.0
C1223 C 0.9556 0.88269 0.83594 0.0
C1224 C 0.93974 0.8874 0.81741 0.0
C1225 C 0.91316 0.87403 0.81069 0.0
C1226 C 0.94288 0.82408 0.7724 0.0
C1227 C 0.8796 0.83305 0.76753 0.0
C1228 C 0.92367 0.82745 0.78992 0.0
N1229 N 0.89254 0.83205 0.78733 0.0
C1230 C 0.8981 0.82978 0.74964 0.0
C1231 C 0.92998 0.82531 0.75213 0.0
C1232 C 0.80253 0.82085 0.79705 0.0
C1233 C 0.77729 0.80027 0.87386 0.0
C1234 C 0.75144 0.81386 0.83646 0.0
C1235 C 0.73822 0.79509 0.84578 0.0
C1236 C 0.75132 0.78826 0.86459 0.0
N1237 N 0.77721 0.82543 0.8455 0.0
C1238 C 0.78994 0.8189 0.86405 0.0
Co1239 Co 0.35046 0.55825 0.10802 0.0
Co1240 Co 0.42589 0.57304 0.12842 0.0
O1241 O 0.38276 0.58092 0.11859 0.0
C1242 C 0.31972 0.59006 0.07934 0.0
O1243 O 0.29905 0.59517 0.09347 0.0
C1244 C 0.42173 0.61703 0.14688 0.0
O1245 O 0.3932 0.61817 0.13851 0.0
O1246 O 0.40225 0.55673 0.15136 0.0
O1247 O 0.36284 0.53918 0.13153 0.0
H1248 H 0.5009 0.5223 0.15653 0.0
H1249 H 0.3364 0.59632 0.13395 0.0
O1250 O 0.33963 0.57677 0.08365 0.0
H1251 H 0.25077 0.54093 0.1523 0.0
H1252 H 0.24928 0.52563 0.07173 0.0
H1253 H 0.35465 0.51274 0.10205 0.0
H1254 H 0.29542 0.53337 0.12976 0.0
H1255 H 0.28414 0.55449 0.08786 0.0
O1256 O 0.43431 0.59958 0.1465 0.0
H1257 H 0.44978 0.53276 0.14227 0.0
H1258 H 0.49057 0.59625 0.13729 0.0
H1259 H 0.31998 0.48322 0.08653 0.0
H1260 H 0.28997 0.60506 0.15564 0.0
H1261 H 0.26688 0.48956 0.0712 0.0
H1262 H 0.2473 0.57731 0.16513 0.0
O1263 O 0.38303 0.55041 0.08861 0.0
H1264 H 0.45018 0.6329 0.07632 0.0
H1265 H 0.4781 0.56309 0.09899 0.0
H1266 H 0.50709 0.58098 0.06917 0.0
H1267 H 0.49353 0.61636 0.05781 0.0
H1268 H 0.42071 0.61397 0.10535 0.0
H1269 H 0.54197 0.58651 0.1516 0.0
H1270 H 0.54751 0.54928 0.16128 0.0
O1271 O 0.42231 0.54656 0.11124 0.0
C1272 C 0.37924 0.54199 0.14868 0.0
C1273 C 0.49875 0.53859 0.15246 0.0
C1274 C 0.52179 0.57462 0.14972 0.0
N1275 N 0.46681 0.56512 0.13923 0.0
C1276 C 0.46977 0.54461 0.14445 0.0
C1277 C 0.49245 0.58006 0.14177 0.0
C1278 C 0.52489 0.55373 0.15513 0.0
C1279 C 0.31643 0.58473 0.13636 0.0
N1280 N 0.31626 0.56538 0.12733 0.0
C1281 C 0.29105 0.58946 0.14945 0.0
C1282 C 0.2669 0.57381 0.15492 0.0
C1283 C 0.26858 0.55355 0.1475 0.0
C1284 C 0.29375 0.54956 0.13405 0.0
C1285 C 0.27242 0.52267 0.07828 0.0
C1286 C 0.33151 0.51564 0.09553 0.0
C1287 C 0.29256 0.53908 0.08723 0.0
N1288 N 0.32164 0.53544 0.0959 0.0
C1289 C 0.31202 0.49886 0.08669 0.0
C1290 C 0.28227 0.50243 0.07804 0.0
C1291 C 0.40922 0.54349 0.09332 0.0
C1292 C 0.45638 0.61757 0.08123 0.0
C1293 C 0.47181 0.57843 0.09421 0.0
C1294 C 0.4884 0.58849 0.07724 0.0
C1295 C 0.48075 0.60829 0.07084 0.0
N1296 N 0.44818 0.58776 0.10463 0.0
C1297 C 0.44 0.60689 0.09796 0.0
Co1298 Co 0.13078 0.65284 0.80897 0.0
Co1299 Co 0.19943 0.64003 0.83302 0.0
O1300 O 0.15567 0.64906 0.83471 0.0
C1301 C 0.11685 0.68721 0.83931 0.0
O1302 O 0.13341 0.67861 0.85403 0.0
C1303 C 0.19603 0.61153 0.87135 0.0
O1304 O 0.19754 0.59477 0.85953 0.0
O1305 O 0.1798 0.61317 0.82047 0.0
O1306 O 0.14894 0.62765 0.79607 0.0
H1307 H 0.28937 0.60603 0.79815 0.0
H1308 H 0.09032 0.64896 0.84878 0.0
O1309 O 0.11249 0.67845 0.82122 0.0
H1310 H 0.04584 0.59161 0.80213 0.0
H1311 H 0.03522 0.67069 0.76613 0.0
H1312 H 0.14668 0.65101 0.76337 0.0
H1313 H 0.09185 0.61596 0.79061 0.0
H1314 H 0.06482 0.6644 0.79899 0.0
O1315 O 0.19374 0.62943 0.86284 0.0
H1316 H 0.23555 0.61877 0.80045 0.0
H1317 H 0.2549 0.63978 0.86322 0.0
H1318 H 0.11789 0.65701 0.73008 0.0
H1319 H 0.04354 0.62562 0.86023 0.0
H1320 H 0.06175 0.66694 0.73135 0.0
H1321 H 0.0209 0.59649 0.83724 0.0
O1322 O 0.16715 0.67204 0.79826 0.0
H1323 H 0.20578 0.70126 0.88344 0.0
H1324 H 0.25637 0.67042 0.82205 0.0
H1325 H 0.279 0.70493 0.83546 0.0
H1326 H 0.25372 0.72061 0.86645 0.0
H1327 H 0.18377 0.66694 0.86912 0.0
H1328 H 0.30879 0.62706 0.86176 0.0
H1329 H 0.32646 0.61016 0.82898 0.0
O1330 O 0.20688 0.65175 0.80365 0.0
C1331 C 0.16267 0.61212 0.80359 0.0
C1332 C 0.28194 0.61333 0.81254 0.0
C1333 C 0.29283 0.62511 0.84823 0.0
N1334 N 0.24192 0.62991 0.83195 0.0
C1335 C 0.25145 0.62055 0.81392 0.0
C1336 C 0.26218 0.63219 0.84901 0.0
C1337 C 0.30273 0.61565 0.82984 0.0
C1338 C 0.0808 0.63662 0.83837 0.0
N1339 N 0.09449 0.63387 0.81913 0.0
C1340 C 0.05403 0.62337 0.845 0.0
C1341 C 0.04145 0.60696 0.83209 0.0
C1342 C 0.05546 0.60419 0.81247 0.0
C1343 C 0.08187 0.61796 0.80616 0.0
C1344 C 0.05965 0.66634 0.76536 0.0
C1345 C 0.1222 0.6552 0.76402 0.0
C1346 C 0.07656 0.66281 0.78391 0.0
N1347 N 0.10738 0.65723 0.78306 0.0
C1348 C 0.10604 0.65863 0.74513 0.0
C1349 C 0.07455 0.66422 0.74585 0.0
C1350 C 0.19585 0.6677 0.79515 0.0
C1351 C 0.21688 0.69471 0.86981 0.0
C1352 C 0.24479 0.67729 0.83522 0.0
C1353 C 0.25793 0.69677 0.8429 0.0
C1354 C 0.24377 0.70554 0.86029 0.0
N1355 N 0.21805 0.66688 0.8444 0.0
C1356 C 0.20439 0.67529 0.86162 0.0
Co1357 Co 0.14529 0.43289 0.60844 0.0
Co1358 Co 0.07358 0.412 0.62976 0.0
O1359 O 0.11846 0.40786 0.61977 0.0
C1360 C 0.18575 0.40574 0.58128 0.0
O1361 O 0.20896 0.40674 0.5953 0.0
C1362 C 0.08359 0.36684 0.64433 0.0
O1363 O 0.11294 0.36874 0.63685 0.0
O1364 O 0.09517 0.42928 0.65323 0.0
O1365 O 0.12889 0.45027 0.63211 0.0
H1366 H 0.99233 0.45616 0.66121 0.0
H1367 H 0.1713 0.39724 0.63316 0.0
O1368 O 0.16045 0.41505 0.58454 0.0
H1369 H 0.24409 0.46051 0.6495 0.0
H1370 H 0.23683 0.47564 0.56976 0.0
H1371 H 0.13086 0.47714 0.6039 0.0
H1372 H 0.19574 0.46299 0.62864 0.0
H1373 H 0.20995 0.44389 0.5859 0.0
O1374 O 0.06889 0.38353 0.64628 0.0
H1375 H 0.0449 0.44934 0.64652 0.0
H1376 H 0.01146 0.38483 0.63769 0.0
H1377 H 0.15771 0.50961 0.58845 0.0
H1378 H 0.22254 0.39407 0.65305 0.0
H1379 H 0.2111 0.50907 0.57116 0.0
H1380 H 0.25863 0.42557 0.66112 0.0
O1381 O 0.10975 0.43717 0.58942 0.0
H1382 H 0.0661 0.35807 0.57118 0.0
H1383 H 0.01676 0.41786 0.60215 0.0
H1384 H 0.99222 0.40033 0.57076 0.0
H1385 H 0.0166 0.36995 0.55514 0.0
H1386 H 0.09016 0.37637 0.60232 0.0
H1387 H 0.95858 0.39102 0.65249 0.0
H1388 H 0.94862 0.42691 0.66423 0.0
O1389 O 0.07202 0.43909 0.61339 0.0
C1390 C 0.11443 0.44615 0.64989 0.0
C1391 C 0.99634 0.44045 0.6561 0.0
C1392 C 0.97745 0.40389 0.65126 0.0
N1393 N 0.03143 0.41671 0.64113 0.0
C1394 C 0.02612 0.43647 0.64773 0.0
C1395 C 0.00758 0.40047 0.643 0.0
C1396 C 0.97185 0.42403 0.65783 0.0
C1397 C 0.18802 0.41085 0.63571 0.0
N1398 N 0.18206 0.42975 0.62729 0.0
C1399 C 0.21625 0.40903 0.64738 0.0
C1400 C 0.23681 0.42687 0.65211 0.0
C1401 C 0.22888 0.44636 0.64543 0.0
C1402 C 0.20127 0.44751 0.63324 0.0
C1403 C 0.21341 0.47605 0.57708 0.0
C1404 C 0.15403 0.47658 0.59642 0.0
C1405 C 0.19761 0.45783 0.58601 0.0
N1406 N 0.16823 0.45815 0.59566 0.0
C1407 C 0.16913 0.49512 0.58765 0.0
C1408 C 0.19903 0.49481 0.57792 0.0
C1409 C 0.08405 0.44402 0.59542 0.0
C1410 C 0.05479 0.37094 0.57815 0.0
C1411 C 0.02726 0.40437 0.59589 0.0
C1412 C 0.01334 0.39462 0.5779 0.0
C1413 C 0.02708 0.37765 0.5691 0.0
N1414 N 0.05384 0.39724 0.60523 0.0
C1415 C 0.0681 0.38117 0.59609 0.0
Co1416 Co 0.19638 0.34424 0.64464 0.0
Co1417 Co 0.17342 0.36176 0.69379 0.0
O1418 O 0.18081 0.36767 0.66242 0.0
C1419 C 0.25599 0.36409 0.62286 0.0
O1420 O 0.27067 0.34833 0.63031 0.0
C1421 C 0.13172 0.39928 0.68878 0.0
O1422 O 0.14035 0.40392 0.66928 0.0
O1423 O 0.138 0.34132 0.68497 0.0
O1424 O 0.16663 0.32335 0.6622 0.0
H1425 H 0.14684 0.31186 0.7545 0.0
H1426 H 0.17802 0.37391 0.61026 0.0
O1427 O 0.22606 0.36528 0.62718 0.0
H1428 H 0.11398 0.30656 0.59741 0.0
H1429 H 0.23104 0.30692 0.57925 0.0
H1430 H 0.21231 0.30124 0.65612 0.0
H1431 H 0.14535 0.31192 0.62963 0.0
H1432 H 0.21307 0.33667 0.59903 0.0
O1433 O 0.14202 0.38356 0.69799 0.0
H1434 H 0.15969 0.32157 0.71758 0.0
H1435 H 0.16785 0.38651 0.73371 0.0
H1436 H 0.23045 0.2711 0.63688 0.0
H1437 H 0.14353 0.3698 0.5786 0.0
H1438 H 0.23986 0.27376 0.59812 0.0
H1439 H 0.11304 0.33556 0.5713 0.0
O1440 O 0.23233 0.34321 0.66474 0.0
H1441 H 0.23635 0.43345 0.69976 0.0
H1442 H 0.23084 0.3591 0.72165 0.0
H1443 H 0.27544 0.38384 0.73425 0.0
H1444 H 0.27834 0.42147 0.72357 0.0
H1445 H 0.19351 0.40787 0.6864 0.0
H1446 H 0.15497 0.37742 0.77082 0.0
H1447 H 0.14434 0.33987 0.78147 0.0
O1448 O 0.20279 0.33902 0.69354 0.0
C1449 C 0.14239 0.32472 0.67472 0.0
C1450 C 0.15149 0.32828 0.75007 0.0
C1451 C 0.15603 0.36507 0.75923 0.0
N1452 N 0.16467 0.35459 0.72335 0.0
C1453 C 0.15884 0.3339 0.72914 0.0
C1454 C 0.16329 0.3701 0.73813 0.0
C1455 C 0.15008 0.344 0.76519 0.0
C1456 C 0.1623 0.35982 0.60852 0.0
N1457 N 0.16211 0.34411 0.62328 0.0
C1458 C 0.14389 0.35722 0.59 0.0
C1459 C 0.1266 0.33796 0.58585 0.0
C1460 C 0.12695 0.32177 0.60054 0.0
C1461 C 0.14413 0.32529 0.61937 0.0
C1462 C 0.22722 0.30559 0.59616 0.0
C1463 C 0.2168 0.30273 0.63937 0.0
C1464 C 0.2171 0.32246 0.60753 0.0
N1465 N 0.21212 0.32098 0.62895 0.0
C1466 C 0.22691 0.28552 0.6285 0.0
C1467 C 0.23215 0.287 0.60675 0.0
C1468 C 0.22792 0.33614 0.6832 0.0
C1469 C 0.23563 0.41705 0.70433 0.0
C1470 C 0.23242 0.37518 0.71605 0.0
C1471 C 0.25759 0.38924 0.72361 0.0
C1472 C 0.25914 0.41034 0.71769 0.0
N1473 N 0.20962 0.38174 0.70256 0.0
C1474 C 0.21114 0.40243 0.69681 0.0
Co1475 Co 0.3161 0.65352 0.14072 0.0
Co1476 Co 0.34216 0.64185 0.19144 0.0
O1477 O 0.33377 0.63244 0.16083 0.0
C1478 C 0.25479 0.63221 0.1227 0.0
O1479 O 0.24167 0.64844 0.13043 0.0
C1480 C 0.38124 0.60228 0.19251 0.0
O1481 O 0.37176 0.59511 0.17385 0.0
O1482 O 0.37663 0.66287 0.18007 0.0
O1483 O 0.34592 0.67671 0.15513 0.0
H1484 H 0.36669 0.69774 0.24683 0.0
H1485 H 0.3359 0.62024 0.1116 0.0
O1486 O 0.28522 0.63076 0.12573 0.0
H1487 H 0.40088 0.68498 0.09022 0.0
H1488 H 0.27719 0.6835 0.07227 0.0
H1489 H 0.29733 0.69652 0.14818 0.0
H1490 H 0.36418 0.68481 0.12027 0.0
H1491 H 0.29838 0.65645 0.0947 0.0
O1492 O 0.3745 0.6205 0.19842 0.0
H1493 H 0.35585 0.68435 0.21079 0.0
H1494 H 0.34706 0.62143 0.23396 0.0
H1495 H 0.27617 0.72405 0.12628 0.0
H1496 H 0.37228 0.61945 0.08094 0.0
H1497 H 0.26595 0.71764 0.088 0.0
H1498 H 0.4045 0.6522 0.06979 0.0
O1499 O 0.28124 0.65597 0.16119 0.0
H1500 H 0.27796 0.57076 0.20274 0.0
H1501 H 0.28637 0.64622 0.22017 0.0
H1502 H 0.24228 0.62255 0.23525 0.0
H1503 H 0.23803 0.58437 0.2269 0.0
H1504 H 0.31992 0.59511 0.18689 0.0
H1505 H 0.35808 0.63418 0.27016 0.0
H1506 H 0.36781 0.67261 0.27686 0.0
O1507 O 0.31197 0.66395 0.18887 0.0
C1508 C 0.37077 0.67789 0.16744 0.0
C1509 C 0.36259 0.68096 0.2441 0.0
C1510 C 0.35779 0.64531 0.2572 0.0
N1511 N 0.35109 0.65208 0.22008 0.0
C1512 C 0.35649 0.67325 0.22368 0.0
C1513 C 0.35176 0.63818 0.23659 0.0
C1514 C 0.36321 0.66686 0.26095 0.0
C1515 C 0.35114 0.63397 0.1077 0.0
N1516 N 0.34966 0.65179 0.11927 0.0
C1517 C 0.37112 0.63371 0.08996 0.0
C1518 C 0.3894 0.65208 0.08372 0.0
C1519 C 0.38742 0.67042 0.09518 0.0
C1520 C 0.36703 0.67005 0.11271 0.0
C1521 C 0.28143 0.68647 0.08894 0.0
C1522 C 0.29272 0.69352 0.13162 0.0
C1523 C 0.29339 0.67118 0.10178 0.0
N1524 N 0.29877 0.67475 0.12291 0.0
C1525 C 0.28083 0.7092 0.11925 0.0
C1526 C 0.27513 0.70561 0.09778 0.0
C1527 C 0.2856 0.66416 0.17911 0.0
C1528 C 0.27952 0.58737 0.20654 0.0
C1529 C 0.2844 0.62981 0.21577 0.0
C1530 C 0.25945 0.61639 0.22466 0.0
C1531 C 0.25711 0.595 0.22005 0.0
N1532 N 0.30646 0.6223 0.20237 0.0
C1533 C 0.30383 0.60133 0.19772 0.0
Co1534 Co 0.73487 0.57025 0.61093 0.0
Co1535 Co 0.66315 0.58857 0.5961 0.0
O1536 O 0.69676 0.58512 0.61665 0.0
C1537 C 0.69656 0.54367 0.64045 0.0
O1538 O 0.67555 0.54369 0.62513 0.0
C1539 C 0.67034 0.63711 0.61315 0.0
O1540 O 0.65384 0.61877 0.61094 0.0
O1541 O 0.69641 0.60373 0.57729 0.0
O1542 O 0.7416 0.58698 0.58352 0.0
H1543 H 0.61348 0.56804 0.5273 0.0
H1544 H 0.72732 0.59038 0.65281 0.0
O1545 O 0.72473 0.5533 0.63781 0.0
H1546 H 0.82961 0.62356 0.62332 0.0
H1547 H 0.83018 0.53317 0.6337 0.0
H1548 H 0.76569 0.55363 0.57297 0.0
H1549 H 0.79558 0.59702 0.60281 0.0
H1550 H 0.78525 0.55513 0.6389 0.0
O1551 O 0.65403 0.61825 0.6107 0.0
H1552 H 0.65859 0.58195 0.5497 0.0
H1553 H 0.59301 0.59558 0.59801 0.0
H1554 H 0.81069 0.53202 0.56696 0.0
H1555 H 0.76051 0.61686 0.67388 0.0
H1556 H 0.84298 0.52136 0.59753 0.0
H1557 H 0.81223 0.63347 0.65921 0.0
O1558 O 0.71217 0.547 0.59421 0.0
H1559 H 0.60913 0.56498 0.66491 0.0
H1560 H 0.61403 0.55103 0.58869 0.0
H1561 H 0.57318 0.53089 0.61036 0.0
H1562 H 0.56945 0.53859 0.64872 0.0
H1563 H 0.65125 0.58455 0.64158 0.0
H1564 H 0.54709 0.58528 0.57441 0.0
H1565 H 0.55716 0.57082 0.53884 0.0
O1566 O 0.67116 0.56236 0.58117 0.0
C1567 C 0.72509 0.59938 0.57263 0.0
C1568 C 0.60871 0.57538 0.5422 0.0
C1569 C 0.57151 0.58458 0.56885 0.0
N1570 N 0.62877 0.5899 0.57525 0.0
C1571 C 0.63424 0.58301 0.5552 0.0
C1572 C 0.59769 0.59093 0.58197 0.0
C1573 C 0.57715 0.57649 0.54892 0.0
C1574 C 0.74967 0.59768 0.64628 0.0
N1575 N 0.75965 0.59218 0.62667 0.0
C1576 C 0.76836 0.61265 0.65827 0.0
C1577 C 0.79736 0.62199 0.65002 0.0
C1578 C 0.80712 0.61645 0.62988 0.0
C1579 C 0.78774 0.60149 0.61831 0.0
C1580 C 0.8164 0.53782 0.62024 0.0
C1581 C 0.78024 0.54962 0.58624 0.0
C1582 C 0.79096 0.55025 0.62309 0.0
N1583 N 0.77311 0.55586 0.60622 0.0
C1584 C 0.80552 0.5372 0.58278 0.0
C1585 C 0.82358 0.5312 0.59994 0.0
C1586 C 0.68893 0.54752 0.58153 0.0
C1587 C 0.60937 0.56268 0.64798 0.0
C1588 C 0.61261 0.55486 0.60529 0.0
C1589 C 0.58933 0.54321 0.61751 0.0
C1590 C 0.58725 0.54753 0.63897 0.0
N1591 N 0.63213 0.57133 0.61384 0.0
C1592 C 0.63217 0.57416 0.63504 0.0
Co1593 Co 0.77612 0.42074 0.11041 0.0
Co1594 Co 0.8414 0.40129 0.0874 0.0
O1595 O 0.81319 0.40361 0.11221 0.0
C1596 C 0.81528 0.43914 0.14458 0.0
O1597 O 0.8387 0.43829 0.13099 0.0
C1598 C 0.84475 0.35581 0.10792 0.0
O1599 O 0.85904 0.37321 0.10038 0.0
O1600 O 0.80243 0.38666 0.07161 0.0
O1601 O 0.76604 0.40921 0.08113 0.0
H1602 H 0.87051 0.41234 0.0107 0.0
H1603 H 0.77883 0.39406 0.1486 0.0
O1604 O 0.78659 0.43253 0.13928 0.0
H1605 H 0.67437 0.37178 0.11486 0.0
H1606 H 0.68334 0.45701 0.13917 0.0
H1607 H 0.74946 0.44594 0.07632 0.0
H1608 H 0.71264 0.39881 0.09826 0.0
H1609 H 0.72627 0.43301 0.14078 0.0
O1610 O 0.85806 0.37349 0.10024 0.0
H1611 H 0.83373 0.40906 0.04117 0.0
H1612 H 0.90942 0.39107 0.08047 0.0
H1613 H 0.70657 0.46978 0.07393 0.0
H1614 H 0.7409 0.36701 0.16609 0.0
H1615 H 0.67333 0.47562 0.10557 0.0
H1616 H 0.6883 0.35587 0.14918 0.0
O1617 O 0.80331 0.44511 0.09841 0.0
H1618 H 0.91769 0.42012 0.14841 0.0
H1619 H 0.8868 0.43907 0.07615 0.0
H1620 H 0.93036 0.46064 0.09425 0.0
H1621 H 0.94628 0.45117 0.13067 0.0
H1622 H 0.87337 0.39923 0.12994 0.0
H1623 H 0.94643 0.39326 0.05008 0.0
H1624 H 0.92713 0.4041 0.01488 0.0
O1625 O 0.82871 0.42774 0.07445 0.0
C1626 C 0.77556 0.39514 0.06872 0.0
C1627 C 0.87909 0.40741 0.02591 0.0
C1628 C 0.9217 0.39669 0.048 0.0
N1629 N 0.86908 0.39954 0.0627 0.0
C1630 C 0.8584 0.40562 0.04332 0.0
C1631 C 0.90045 0.39527 0.06513 0.0
C1632 C 0.91089 0.40283 0.02828 0.0
C1633 C 0.75617 0.38892 0.14112 0.0
N1634 N 0.74815 0.39772 0.1224 0.0
C1635 C 0.7348 0.37371 0.15105 0.0
C1636 C 0.70521 0.36747 0.14156 0.0
C1637 C 0.69739 0.37635 0.1223 0.0
C1638 C 0.7193 0.39153 0.11288 0.0
C1639 C 0.69758 0.45451 0.12525 0.0
C1640 C 0.73471 0.44802 0.09004 0.0
C1641 C 0.72193 0.44095 0.12607 0.0
N1642 N 0.74018 0.43788 0.1086 0.0
C1643 C 0.71056 0.46167 0.08863 0.0
C1644 C 0.69196 0.46496 0.1064 0.0
C1645 C 0.81925 0.44456 0.08153 0.0
C1646 C 0.91108 0.42422 0.13249 0.0
C1647 C 0.89306 0.43483 0.09208 0.0
C1648 C 0.91807 0.4471 0.1022 0.0
C1649 C 0.92703 0.44176 0.12258 0.0
N1650 N 0.87718 0.41766 0.10194 0.0
C1651 C 0.88625 0.41224 0.12185 0.0
Co1652 Co 0.55386 0.63741 0.66974 0.0
Co1653 Co 0.61168 0.66345 0.62998 0.0
O1654 O 0.58289 0.64016 0.6445 0.0
C1655 C 0.58537 0.61406 0.70416 0.0
O1656 O 0.58487 0.63155 0.71496 0.0
C1657 C 0.58378 0.63653 0.58682 0.0
O1658 O 0.55777 0.64646 0.58508 0.0
O1659 O 0.56183 0.66782 0.62598 0.0
O1660 O 0.53297 0.65992 0.65599 0.0
H1661 H 0.66777 0.74395 0.57905 0.0
H1662 H 0.56356 0.59789 0.6473 0.0
O1663 O 0.57568 0.6135 0.68469 0.0
H1664 H 0.44825 0.60744 0.6386 0.0
H1665 H 0.48005 0.60212 0.72542 0.0
H1666 H 0.52636 0.66981 0.69548 0.0
H1667 H 0.48414 0.63309 0.65883 0.0
H1668 H 0.51586 0.60297 0.69428 0.0
O1669 O 0.59796 0.6361 0.60579 0.0
H1670 H 0.62924 0.71968 0.59517 0.0
H1671 H 0.70419 0.67845 0.60642 0.0
H1672 H 0.49082 0.66972 0.72657 0.0
H1673 H 0.52859 0.57179 0.6268 0.0
H1674 H 0.46755 0.63567 0.74189 0.0
H1675 H 0.47044 0.57648 0.62244 0.0
O1676 O 0.58167 0.65869 0.68569 0.0
H1677 H 0.64007 0.59434 0.67226 0.0
H1678 H 0.65163 0.67042 0.67252 0.0
H1679 H 0.67588 0.6518 0.69971 0.0
H1680 H 0.67182 0.61299 0.69929 0.0
H1681 H 0.61759 0.61328 0.64191 0.0
H1682 H 0.7408 0.70288 0.58877 0.0
H1683 H 0.72437 0.73647 0.57519 0.0
O1684 O 0.59858 0.68055 0.65965 0.0
C1685 C 0.53642 0.66816 0.63763 0.0
C1686 C 0.6755 0.72949 0.58542 0.0
C1687 C 0.71619 0.70661 0.59083 0.0
N1688 N 0.66133 0.69601 0.60491 0.0
C1689 C 0.65333 0.71493 0.59554 0.0
C1690 C 0.6938 0.69245 0.60124 0.0
C1691 C 0.70712 0.72536 0.58316 0.0
C1692 C 0.53831 0.59994 0.64544 0.0
N1693 N 0.52585 0.61686 0.65427 0.0
C1694 C 0.51862 0.58516 0.63383 0.0
C1695 C 0.486 0.58782 0.63136 0.0
C1696 C 0.47352 0.60518 0.64041 0.0
C1697 C 0.49395 0.61966 0.65182 0.0
C1698 C 0.49008 0.61705 0.71891 0.0
C1699 C 0.5162 0.65494 0.70192 0.0
C1700 C 0.51036 0.61763 0.70128 0.0
N1701 N 0.52348 0.63644 0.69316 0.0
C1702 C 0.49608 0.65498 0.71956 0.0
C1703 C 0.48306 0.63588 0.72814 0.0
C1704 C 0.59313 0.67672 0.67943 0.0
C1705 C 0.64404 0.61111 0.67071 0.0
C1706 C 0.64809 0.65377 0.67117 0.0
C1707 C 0.66306 0.64315 0.68706 0.0
C1708 C 0.6611 0.6216 0.68677 0.0
N1709 N 0.63227 0.64404 0.65386 0.0
C1710 C 0.63117 0.62226 0.65389 0.0
Co1711 Co 0.45363 0.39957 0.41892 0.0
Co1712 Co 0.44664 0.44981 0.40106 0.0
O1713 O 0.44624 0.41914 0.39534 0.0
C1714 C 0.50655 0.38506 0.39187 0.0
O1715 O 0.52196 0.40403 0.39169 0.0
C1716 C 0.41111 0.44597 0.35785 0.0
O1717 O 0.41404 0.42586 0.35513 0.0
O1718 O 0.40886 0.44326 0.42073 0.0
O1719 O 0.42777 0.41617 0.43837 0.0
H1720 H 0.43916 0.51163 0.44929 0.0
H1721 H 0.41806 0.38776 0.3792 0.0
O1722 O 0.47849 0.38176 0.40006 0.0
H1723 H 0.3561 0.34925 0.43597 0.0
H1724 H 0.47099 0.33007 0.45359 0.0
H1725 H 0.47079 0.40659 0.46404 0.0
H1726 H 0.40307 0.37401 0.44434 0.0
H1727 H 0.45519 0.35287 0.42459 0.0
O1728 O 0.41781 0.45477 0.37572 0.0
H1729 H 0.44235 0.47436 0.44054 0.0
H1730 H 0.44895 0.48965 0.37515 0.0
H1731 H 0.48583 0.38435 0.49367 0.0
H1732 H 0.37087 0.36308 0.37015 0.0
H1733 H 0.48631 0.34581 0.4885 0.0
H1734 H 0.34058 0.34279 0.39855 0.0
O1735 O 0.49407 0.41671 0.42622 0.0
H1736 H 0.5192 0.43693 0.3394 0.0
H1737 H 0.50641 0.47986 0.4029 0.0
H1738 H 0.55475 0.48708 0.38081 0.0
H1739 H 0.56137 0.46567 0.34865 0.0
H1740 H 0.47145 0.43027 0.36176 0.0
H1741 H 0.44534 0.527 0.38315 0.0
H1742 H 0.44051 0.53829 0.42049 0.0
O1743 O 0.47629 0.44831 0.42575 0.0
C1744 C 0.40836 0.43047 0.43654 0.0
C1745 C 0.44123 0.50693 0.43295 0.0
C1746 C 0.44464 0.51554 0.39585 0.0
N1747 N 0.44567 0.47964 0.4073 0.0
C1748 C 0.44308 0.4858 0.42788 0.0
C1749 C 0.44645 0.49427 0.39139 0.0
C1750 C 0.44197 0.52187 0.4168 0.0
C1751 C 0.4047 0.3793 0.39166 0.0
N1752 N 0.41402 0.38207 0.41221 0.0
C1753 C 0.37812 0.36521 0.38644 0.0
C1754 C 0.36093 0.35396 0.40238 0.0
C1755 C 0.3696 0.35759 0.42337 0.0
C1756 C 0.39615 0.37187 0.428 0.0
C1757 C 0.47113 0.34687 0.456 0.0
C1758 C 0.47065 0.38983 0.46167 0.0
C1759 C 0.46269 0.35989 0.43951 0.0
N1760 N 0.46265 0.38112 0.4424 0.0
C1761 C 0.47929 0.37731 0.47851 0.0
C1762 C 0.47962 0.3557 0.4756 0.0
C1763 C 0.49691 0.43596 0.43122 0.0
C1764 C 0.51628 0.44672 0.35309 0.0
C1765 C 0.50851 0.47076 0.38869 0.0
C1766 C 0.53622 0.47481 0.37633 0.0
C1767 C 0.53997 0.46277 0.35833 0.0
N1768 N 0.48465 0.45551 0.38304 0.0
C1769 C 0.48885 0.44319 0.36577 0.0
Co1770 Co 0.04916 0.59265 0.91766 0.0
Co1771 Co 0.05701 0.542 0.90177 0.0
O1772 O 0.05753 0.57246 0.89514 0.0
C1773 C 0.99637 0.60697 0.8904 0.0
O1774 O 0.9788 0.58889 0.8929 0.0
C1775 C 0.09441 0.54629 0.85961 0.0
O1776 O 0.09201 0.56652 0.85722 0.0
O1777 O 0.09361 0.54904 0.92229 0.0
O1778 O 0.07426 0.57681 0.93835 0.0
H1779 H 0.06147 0.48089 0.95184 0.0
H1780 H 0.08364 0.60553 0.8779 0.0
O1781 O 0.02526 0.60955 0.89728 0.0
H1782 H 0.14605 0.64262 0.9352 0.0
H1783 H 0.0278 0.66315 0.94786 0.0
H1784 H 0.03235 0.58767 0.96311 0.0
H1785 H 0.09989 0.61686 0.94327 0.0
H1786 H 0.04469 0.63933 0.92034 0.0
O1787 O 0.08705 0.53706 0.87722 0.0
H1788 H 0.05799 0.51792 0.94196 0.0
H1789 H 0.0578 0.50179 0.87693 0.0
H1790 H 0.01619 0.61106 0.99126 0.0
H1791 H 0.12985 0.63132 0.86904 0.0
H1792 H 0.01346 0.64906 0.98367 0.0
H1793 H 0.1602 0.65083 0.89793 0.0
O1794 O 0.00881 0.57562 0.92515 0.0
H1795 H 0.98692 0.55348 0.83823 0.0
H1796 H 0.9978 0.51147 0.9029 0.0
H1797 H 0.95052 0.50362 0.88001 0.0
H1798 H 0.94482 0.52458 0.84728 0.0
H1799 H 0.0337 0.56077 0.86137 0.0
H1800 H 0.06161 0.46469 0.88599 0.0
H1801 H 0.06344 0.45392 0.92374 0.0
O1802 O 0.02608 0.54384 0.9256 0.0
C1803 C 0.09326 0.56223 0.93765 0.0
C1804 C 0.06078 0.48537 0.93532 0.0
C1805 C 0.06091 0.47628 0.8984 0.0
N1806 N 0.05802 0.51226 0.90883 0.0
C1807 C 0.05885 0.50637 0.92962 0.0
C1808 C 0.05898 0.49744 0.89332 0.0
C1809 C 0.06189 0.47025 0.91956 0.0
C1810 C 0.09727 0.61366 0.89041 0.0
N1811 N 0.08864 0.61003 0.91098 0.0
C1812 C 0.12327 0.6283 0.88535 0.0
C1813 C 0.1405 0.63911 0.90152 0.0
C1814 C 0.13252 0.63456 0.92249 0.0
C1815 C 0.10648 0.61981 0.92694 0.0
C1816 C 0.02881 0.6466 0.95135 0.0
C1817 C 0.03173 0.60423 0.95971 0.0
C1818 C 0.03807 0.63297 0.93574 0.0
N1819 N 0.03926 0.61202 0.93997 0.0
C1820 C 0.02239 0.61739 0.97572 0.0
C1821 C 0.02082 0.6387 0.97145 0.0
C1822 C 0.00574 0.55648 0.93066 0.0
C1823 C 0.98945 0.5439 0.85219 0.0
C1824 C 0.99616 0.52038 0.88845 0.0
C1825 C 0.96902 0.51597 0.87564 0.0
C1826 C 0.9658 0.52775 0.85731 0.0
N1827 N 0.01998 0.53576 0.88299 0.0
C1828 C 0.01631 0.5478 0.86535 0.0
Co1829 Co 0.37374 0.34142 0.31404 0.0
Co1830 Co 0.30087 0.35296 0.3331 0.0
O1831 O 0.34462 0.34427 0.33805 0.0
C1832 C 0.38083 0.30462 0.34294 0.0
O1833 O 0.36111 0.31201 0.35651 0.0
C1834 C 0.30818 0.37933 0.37362 0.0
O1835 O 0.32419 0.39577 0.36467 0.0
O1836 O 0.32138 0.38035 0.32242 0.0
O1837 O 0.35772 0.36735 0.30091 0.0
H1838 H 0.21643 0.38684 0.29182 0.0
H1839 H 0.41123 0.33984 0.35462 0.0
O1840 O 0.38945 0.31499 0.32623 0.0
H1841 H 0.46139 0.40151 0.31577 0.0
H1842 H 0.47508 0.32483 0.27695 0.0
H1843 H 0.36517 0.34595 0.26783 0.0
H1844 H 0.4138 0.38074 0.30148 0.0
H1845 H 0.44085 0.32979 0.30797 0.0
O1846 O 0.29994 0.36274 0.36308 0.0
H1847 H 0.26997 0.3747 0.298 0.0
H1848 H 0.2404 0.35174 0.35879 0.0
H1849 H 0.39866 0.34127 0.23635 0.0
H1850 H 0.46044 0.35832 0.36794 0.0
H1851 H 0.45401 0.33057 0.24081 0.0
H1852 H 0.48628 0.38999 0.34891 0.0
O1853 O 0.33975 0.32275 0.30033 0.0
H1854 H 0.28657 0.29155 0.38348 0.0
H1855 H 0.24819 0.32153 0.3172 0.0
H1856 H 0.22388 0.28685 0.32943 0.0
H1857 H 0.2431 0.27158 0.36277 0.0
H1858 H 0.3103 0.32607 0.37058 0.0
H1859 H 0.18666 0.36381 0.35335 0.0
H1860 H 0.17427 0.3814 0.3196 0.0
O1861 O 0.29896 0.34237 0.30325 0.0
C1862 C 0.34101 0.38218 0.30679 0.0
C1863 C 0.22152 0.3792 0.3066 0.0
C1864 C 0.20484 0.36631 0.34113 0.0
N1865 N 0.25846 0.36253 0.32877 0.0
C1866 C 0.25184 0.37228 0.3102 0.0
C1867 C 0.23542 0.3596 0.34418 0.0
C1868 C 0.19789 0.37616 0.32219 0.0
C1869 C 0.42199 0.3531 0.34578 0.0
N1870 N 0.40862 0.35925 0.32737 0.0
C1871 C 0.45029 0.36374 0.35354 0.0
C1872 C 0.46447 0.38144 0.34293 0.0
C1873 C 0.45044 0.38798 0.3244 0.0
C1874 C 0.42275 0.37643 0.31665 0.0
C1875 C 0.45103 0.32954 0.2748 0.0
C1876 C 0.38934 0.34149 0.26989 0.0
C1877 C 0.43151 0.33236 0.29231 0.0
N1878 N 0.40112 0.33832 0.2897 0.0
C1879 C 0.40816 0.3388 0.25202 0.0
C1880 C 0.4392 0.33277 0.25453 0.0
C1881 C 0.31169 0.3269 0.29537 0.0
C1882 C 0.27817 0.29792 0.36881 0.0
C1883 C 0.25713 0.31487 0.33152 0.0
C1884 C 0.24308 0.29527 0.33845 0.0
C1885 C 0.25379 0.28674 0.35719 0.0
N1886 N 0.28138 0.32564 0.34285 0.0
C1887 C 0.29163 0.31747 0.36139 0.0
H1888 H 0.20549 0.04698 0.03927 0.0
H1889 H 0.18331 0.02107 0.01309 0.0
H1890 H 0.11936 0.99163 0.06059 0.0
H1891 H 0.14202 0.01726 0.08682 0.0
H1892 H 0.14503 0.96273 0.03073 0.0
H1893 H 0.09037 0.03019 0.9937 0.0
H1894 H 0.13345 0.03351 0.99673 0.0
H1895 H 0.10808 0.03166 0.01975 0.0
C1896 C 0.18751 0.03447 0.04416 0.0
C1897 C 0.1755 0.03371 0.06486 0.0
C1898 C 0.17483 0.01982 0.02929 0.0
C1899 C 0.14967 0.00461 0.03498 0.0
C1900 C 0.139 0.00316 0.05603 0.0
H1901 H 0.98731 0.95261 0.96841 0.0
H1902 H 0.028 0.96755 0.99323 0.0
C1903 C 0.15185 0.01771 0.07093 0.0
C1904 C 0.13146 0.99218 0.01859 0.0
H1905 H 0.07847 -0.00298 0.97822 0.0
C1906 C 0.13078 0.97014 0.01902 0.0
C1907 C 0.11249 0.00206 0.00372 0.0
C1908 C 0.11079 0.02563 0.00345 0.0
C1909 C 0.11108 0.95763 0.00501 0.0
C1910 C 0.09213 0.96756 0.99023 0.0
C1911 C 0.09344 0.98958 0.9895 0.0
C1912 C 0.06798 0.95564 0.97682 0.0
C1913 C 0.10941 0.93397 0.00667 0.0
C1914 C 0.07709 0.94351 0.95975 0.0
C1915 C 0.0537 0.93473 0.94559 0.0
C1916 C 0.02134 0.93845 0.9483 0.0
C1917 C 0.01228 0.94986 0.96587 0.0
C1918 C 0.0354 0.9583 0.98007 0.0
H1919 H 0.12285 0.92875 0.02061 0.0
H1920 H 0.0839 0.92714 0.00781 0.0
H1921 H 0.11982 0.92757 0.99218 0.0
H1922 H 0.10226 0.94158 0.95693 0.0
H1923 H 0.06102 0.92601 0.93204 0.0
H1924 H 0.30124 0.70403 0.19101 0.0
H1925 H 0.26495 0.72851 0.20481 0.0
H1926 H 0.18413 0.68134 0.1972 0.0
H1927 H 0.22056 0.65682 0.18259 0.0
H1928 H 0.17836 0.72881 0.18456 0.0
H1929 H 0.22378 0.71286 0.26543 0.0
H1930 H 0.25352 0.71703 0.24485 0.0
H1931 H 0.2247 0.69422 0.24402 0.0
C1932 C 0.27567 0.69901 0.19217 0.0
C1933 C 0.26334 0.6787 0.18615 0.0
C1934 C 0.2551 0.71294 0.19984 0.0
C1935 C 0.22223 0.70648 0.20203 0.0
C1936 C 0.20957 0.68642 0.19539 0.0
H1937 H 0.11292 0.77294 0.28986 0.0
H1938 H 0.13088 0.74537 0.2673 0.0
C1939 C 0.23018 0.67253 0.18723 0.0
C1940 C 0.20208 0.72024 0.21313 0.0
H1941 H 0.19332 0.74197 0.26147 0.0
C1942 C 0.181 0.73154 0.20143 0.0
C1943 C 0.206 0.72351 0.23506 0.0
C1944 C 0.22804 0.71119 0.24819 0.0
C1945 C 0.16414 0.74676 0.21121 0.0
C1946 C 0.1691 0.75067 0.23302 0.0
C1947 C 0.1896 0.73886 0.24473 0.0
C1948 C 0.15387 0.76713 0.24426 0.0
C1949 C 0.14149 0.75857 0.19816 0.0
C1950 C 0.16048 0.78838 0.23844 0.0
C1951 C 0.14969 0.8041 0.25112 0.0
C1952 C 0.13307 0.79854 0.26985 0.0
C1953 C 0.12583 0.77735 0.27538 0.0
C1954 C 0.13594 0.7617 0.26254 0.0
H1955 H 0.13341 0.74968 0.1837 0.0
H1956 H 0.11997 0.76184 0.20747 0.0
H1957 H 0.15423 0.77385 0.19306 0.0
H1958 H 0.17516 0.79282 0.22471 0.0
H1959 H 0.15571 0.82049 0.24693 0.0
H1960 H 0.30619 0.94539 0.53955 0.0
H1961 H 0.32933 0.96947 0.51213 0.0
H1962 H 0.36378 0.01404 0.56021 0.0
H1963 H 0.34062 0.98978 0.58778 0.0
H1964 H 0.32768 0.01375 0.50057 0.0
H1965 H 0.44497 0.99211 0.53198 0.0
H1966 H 0.40686 0.9782 0.53941 0.0
H1967 H 0.41951 0.00338 0.5509 0.0
C1968 C 0.31759 0.96072 0.54412 0.0
C1969 C 0.32153 0.96605 0.56554 0.0
C1970 C 0.33076 0.9744 0.52853 0.0
C1971 C 0.34832 0.99339 0.53426 0.0
C1972 C 0.35019 -0.00058 0.55561 0.0
H1973 H 0.46704 0.07977 0.45351 0.0
H1974 H 0.42445 0.06551 0.4777 0.0
C1975 C 0.33684 0.98573 0.57126 0.0
C1976 C 0.36859 0.00504 0.51825 0.0
H1977 H 0.44694 0.0151 0.50282 0.0
C1978 C 0.35377 0.01436 0.50115 0.0
C1979 C 0.40253 0.00509 0.51886 0.0
C1980 C 0.41952 0.99402 0.53614 0.0
C1981 C 0.37228 0.02398 0.4846 0.0
C1982 C 0.40612 0.02422 0.48543 0.0
C1983 C 0.42088 0.01497 0.50252 0.0
C1984 C 0.4271 0.03315 0.46838 0.0
C1985 C 0.35578 0.03315 0.46598 0.0
C1986 C 0.44226 0.01957 0.45519 0.0
C1987 C 0.46687 0.02754 0.44167 0.0
C1988 C 0.47656 0.04926 0.4411 0.0
C1989 C 0.46011 0.06296 0.45359 0.0
C1990 C 0.43566 0.0549 0.46729 0.0
H1991 H 0.32908 0.03099 0.46737 0.0
H1992 H 0.36365 0.05024 0.46465 0.0
H1993 H 0.36298 0.02557 0.45115 0.0
H1994 H 0.43593 0.0027 0.45601 0.0
H1995 H 0.47887 0.01661 0.43216 0.0
H1996 H 0.30086 0.1847 0.78447 0.0
H1997 H 0.2842 0.21129 0.76003 0.0
H1998 H 0.38036 0.21973 0.73401 0.0
H1999 H 0.39677 0.19251 0.75766 0.0
H2000 H 0.31339 0.25121 0.76394 0.0
H2001 H 0.32535 0.22298 0.68132 0.0
H2002 H 0.32469 0.20547 0.70387 0.0
H2003 H 0.36053 0.22236 0.69767 0.0
C2004 C 0.31816 0.19182 0.77315 0.0
C2005 C 0.35015 0.18679 0.77312 0.0
C2006 C 0.30866 0.20692 0.75919 0.0
C2007 C 0.33112 0.21738 0.74527 0.0
C2008 C 0.36257 0.21153 0.74435 0.0
H2009 H 0.29207 0.33284 0.67629 0.0
H2010 H 0.32344 0.30483 0.68994 0.0
C2011 C 0.37193 0.19609 0.75802 0.0
C2012 C 0.32274 0.23637 0.73426 0.0
H2013 H 0.31097 0.25773 0.68569 0.0
C2014 C 0.3131 0.25269 0.74683 0.0
C2015 C 0.32324 0.23838 0.71198 0.0
C2016 C 0.33379 0.22132 0.69787 0.0
C2017 C 0.30211 0.27053 0.73769 0.0
C2018 C 0.30065 0.27196 0.71544 0.0
C2019 C 0.31223 0.25637 0.70278 0.0
C2020 C 0.28251 0.28781 0.70549 0.0
C2021 C 0.29068 0.28725 0.75194 0.0
C2022 C 0.24939 0.28691 0.70942 0.0
C2023 C 0.23195 0.30285 0.70224 0.0
C2024 C 0.24725 0.31973 0.69061 0.0
C2025 C 0.2801 0.32008 0.68559 0.0
C2026 C 0.29784 0.30416 0.69318 0.0
H2027 H 0.30224 0.2871 0.76778 0.0
H2028 H 0.29573 0.30319 0.74487 0.0
H2029 H 0.26423 0.28411 0.75423 0.0
H2030 H 0.23718 0.27406 0.71849 0.0
H2031 H 0.20636 0.30182 0.70563 0.0
H2032 H 0.13366 0.97837 0.48909 0.0
H2033 H 0.09162 0.99088 0.51158 0.0
H2034 H 0.03376 0.00017 0.45636 0.0
H2035 H 0.07635 0.98828 0.43371 0.0
H2036 H 0.05014 0.03374 0.50074 0.0
H2037 H 0.99142 0.95144 0.507 0.0
H2038 H 0.03429 0.95648 0.50246 0.0
H2039 H 0.00657 0.96179 0.48193 0.0
C2040 C 0.11264 0.98406 0.48176 0.0
C2041 C 0.10843 0.98301 0.45977 0.0
C2042 C 0.08855 0.99085 0.49455 0.0
C2043 C 0.05976 -0.00379 0.48551 0.0
C2044 C 0.05607 -0.0038 0.46347 0.0
H2045 H 0.89215 0.03312 0.55143 0.0
H2046 H 0.92552 0.01789 0.52496 0.0
C2047 C 0.08052 0.98979 0.4506 0.0
C2048 C 0.0332 0.00083 0.49942 0.0
H2049 H 0.97036 0.97719 0.52824 0.0
C2050 C 0.03246 0.02148 0.5066 0.0
C2051 C 0.01041 0.98464 0.50693 0.0
C2052 C 0.01047 0.96227 0.4993 0.0
C2053 C 0.00978 0.02633 0.52164 0.0
C2054 C 0.98769 0.01005 0.52968 0.0
C2055 C 0.98769 0.98948 0.52205 0.0
C2056 C 0.96508 0.01449 0.54644 0.0
C2057 C 0.00979 0.04875 0.52924 0.0
C2058 C 0.97609 0.01676 0.56733 0.0
C2059 C 0.95729 0.02559 0.58248 0.0
C2060 C 0.92734 0.0323 0.57681 0.0
C2061 C 0.91536 0.0284 0.55621 0.0
C2062 C 0.93421 0.01957 0.54109 0.0
H2063 H 0.02647 0.05988 0.51995 0.0
H2064 H 0.98509 0.05383 0.5282 0.0
H2065 H 0.01722 0.04967 0.54611 0.0
H2066 H -3e-05 0.01282 0.57159 0.0
H2067 H 0.96688 0.02807 0.59831 0.0
H2068 H 0.41133 0.80368 0.70906 0.0
H2069 H 0.39083 0.77745 0.73556 0.0
H2070 H 0.29553 0.79755 0.72871 0.0
H2071 H 0.31579 0.8235 0.70227 0.0
H2072 H 0.31606 0.78202 0.77252 0.0
H2073 H 0.32966 0.72954 0.70321 0.0
H2074 H 0.36348 0.74739 0.71147 0.0
H2075 H 0.32887 0.75759 0.69995 0.0
C2076 C 0.38647 0.80328 0.71418 0.0
C2077 C 0.36502 0.8155 0.7038 0.0
C2078 C 0.37474 0.78818 0.7291 0.0
C2079 C 0.34166 0.78548 0.73376 0.0
C2080 C 0.32114 0.79949 0.72531 0.0
H2081 H 0.18402 0.70632 0.78009 0.0
H2082 H 0.22317 0.73348 0.76562 0.0
C2083 C 0.33274 0.81437 0.71032 0.0
C2084 C 0.32697 0.76603 0.74388 0.0
H2085 H 0.29832 0.71556 0.73161 0.0
C2086 C 0.31275 0.76733 0.76384 0.0
C2087 C 0.32257 0.747 0.73232 0.0
C2088 C 0.33678 0.74512 0.71051 0.0
C2089 C 0.29322 0.75019 0.7723 0.0
C2090 C 0.28727 0.73159 0.76019 0.0
C2091 C 0.30286 0.72992 0.74073 0.0
C2092 C 0.2632 0.71433 0.76688 0.0
C2093 C 0.27852 0.75228 0.79392 0.0
C2094 C 0.27238 0.69416 0.77097 0.0
C2095 C 0.24991 0.67843 0.77894 0.0
C2096 C 0.21801 0.68273 0.78303 0.0
C2097 C 0.20847 0.70254 0.77743 0.0
C2098 C 0.23088 0.71817 0.76937 0.0
H2099 H 0.29265 0.76451 0.8035 0.0
H2100 H 0.25375 0.75703 0.7921 0.0
H2101 H 0.27698 0.7371 0.80269 0.0
H2102 H 0.29715 0.69083 0.76873 0.0
H2103 H 0.25788 0.6632 0.78275 0.0
H2104 H 0.39107 0.0425 0.97518 0.0
H2105 H 0.42501 0.02831 0.00215 0.0
H2106 H 0.46229 0.98775 0.9556 0.0
H2107 H 0.42862 0.00229 0.92826 0.0
H2108 H 0.4289 0.98535 0.01512 0.0
H2109 H 0.54281 0.02391 0.98071 0.0
H2110 H 0.50363 0.0316 0.97359 0.0
H2111 H 0.51709 0.00792 0.96298 0.0
C2112 C 0.40636 0.03045 0.97074 0.0
C2113 C 0.40768 0.0236 0.94969 0.0
C2114 C 0.42559 0.02236 0.98612 0.0
C2115 C 0.4464 0.00734 0.98066 0.0
C2116 C 0.44661 -0.00038 0.95989 0.0
H2117 H 0.5885 0.94607 0.04798 0.0
H2118 H 0.55551 0.96212 0.02179 0.0
C2119 C 0.42721 0.0077 0.94443 0.0
C2120 C 0.4683 0.0002 0.99677 0.0
H2121 H 0.54755 0.00224 0.01069 0.0
C2122 C 0.45485 0.98898 0.01422 0.0
C2123 C 0.502 0.00528 0.99545 0.0
C2124 C 0.51737 0.01798 0.97728 0.0
C2125 C 0.47443 0.98208 0.03029 0.0
C2126 C 0.50819 0.98712 0.02898 0.0
C2127 C 0.5216 -0.00144 0.0116 0.0
C2128 C 0.53013 0.9794 0.04478 0.0
C2129 C 0.45883 0.96897 0.04813 0.0
C2130 C 0.52738 0.9844 0.06627 0.0
C2131 C 0.54574 0.97492 0.08131 0.0
C2132 C 0.56762 0.96083 0.07489 0.0
C2133 C 0.57177 0.95692 0.05329 0.0
C2134 C 0.553 0.96606 0.03833 0.0
H2135 H 0.43399 0.96228 0.04403 0.0
H2136 H 0.47325 0.95582 0.05235 0.0
H2137 H 0.45725 0.97903 0.06231 0.0
H2138 H 0.51046 0.99517 0.07142 0.0
H2139 H 0.54254 0.97836 0.09791 0.0
H2140 H 0.25844 0.33429 0.27239 0.0
H2141 H 0.22131 0.30788 0.25446 0.0
H2142 H 0.28257 0.25963 0.27102 0.0
H2143 H 0.31995 0.28582 0.28862 0.0
H2144 H 0.25711 0.25868 0.22782 0.0
H2145 H 0.16382 0.26342 0.29032 0.0
H2146 H 0.18169 0.28782 0.27918 0.0
H2147 H 0.20596 0.27184 0.29469 0.0
C2148 C 0.26419 0.31811 0.27187 0.0
C2149 C 0.29196 0.31205 0.28187 0.0
C2150 C 0.24296 0.30309 0.26179 0.0
C2151 C 0.24914 0.2819 0.26182 0.0
C2152 C 0.27754 0.27598 0.27091 0.0
H2153 H 0.15531 0.1659 0.21129 0.0
H2154 H 0.19043 0.19153 0.23153 0.0
C2155 C 0.29889 0.29097 0.28084 0.0
C2156 C 0.22543 0.26562 0.25316 0.0
H2157 H 0.15097 0.24005 0.26216 0.0
C2158 C 0.23385 0.25458 0.23523 0.0
C2159 C 0.19536 0.26039 0.2631 0.0
C2160 C 0.18603 0.27134 0.28298 0.0
C2161 C 0.21259 0.23847 0.22668 0.0
C2162 C 0.18251 0.23309 0.23671 0.0
C2163 C 0.1741 0.24422 0.25462 0.0
C2164 C 0.15898 0.21644 0.22834 0.0
C2165 C 0.22256 0.22763 0.20687 0.0
C2166 C 0.12869 0.22153 0.22144 0.0
C2167 C 0.10841 0.20677 0.21031 0.0
C2168 C 0.11849 0.18697 0.20587 0.0
C2169 C 0.14736 0.18121 0.21445 0.0
C2170 C 0.16747 0.19586 0.2258 0.0
H2171 H 0.24029 0.23798 0.1975 0.0
H2172 H 0.23417 0.21335 0.2114 0.0
H2173 H 0.20157 0.2227 0.19664 0.0
H2174 H 0.12165 0.23731 0.22345 0.0
H2175 H 0.08609 0.21138 0.20376 0.0
H2176 H 0.44286 0.50916 0.09576 0.0
H2177 H 0.47491 0.49552 0.06715 0.0
H2178 H 0.44716 0.54437 0.02539 0.0
H2179 H 0.41421 0.55729 0.05339 0.0
H2180 H 0.44826 0.50522 0.00591 0.0
H2181 H 0.56019 0.52901 0.05179 0.0
H2182 H 0.53092 0.51089 0.0648 0.0
H2183 H 0.52149 0.53723 0.05916 0.0
C2184 C 0.44352 0.51669 0.08035 0.0
C2185 C 0.42658 0.53418 0.07653 0.0
C2186 C 0.46165 0.509 0.06416 0.0
C2187 C 0.46361 0.5193 0.04447 0.0
C2188 C 0.4457 0.53629 0.04052 0.0
H2189 H 0.6083 0.50267 0.94564 0.0
H2190 H 0.56954 0.52132 0.96617 0.0
C2191 C 0.42706 0.54362 0.05646 0.0
C2192 C 0.48627 0.51366 0.02839 0.0
H2193 H 0.56629 0.51199 0.01905 0.0
C2194 C 0.47411 0.50691 0.00861 0.0
C2195 C 0.51983 0.51623 0.03213 0.0
C2196 C 0.534 0.52391 0.05305 0.0
C2197 C 0.49493 0.50175 0.99257 0.0
C2198 C 0.52836 0.50374 0.99657 0.0
C2199 C 0.54055 0.51118 0.01605 0.0
C2200 C 0.55018 0.4934 0.98313 0.0
C2201 C 0.48118 0.49313 0.97192 0.0
C2202 C 0.55228 0.47206 0.98675 0.0
C2203 C 0.57487 0.46182 0.97604 0.0
C2204 C 0.59508 0.47252 0.96086 0.0
C2205 C 0.59304 0.49409 0.95725 0.0
C2206 C 0.57078 0.50461 0.96864 0.0
H2207 H 0.45579 0.49662 0.96965 0.0
H2208 H 0.49592 0.49975 0.9584 0.0
H2209 H 0.4818 0.47577 0.97178 0.0
H2210 H 0.53672 0.46337 0.99818 0.0
H2211 H 0.57582 0.4453 0.97948 0.0
H2212 H 0.92057 0.2857 0.21166 0.0
H2213 H 0.88468 0.2598 0.2305 0.0
H2214 H 0.81613 0.30581 0.23835 0.0
H2215 H 0.8501 0.33062 0.2163 0.0
H2216 H 0.85543 0.2486 0.26115 0.0
H2217 H 0.7583 0.26799 0.20659 0.0
H2218 H 0.79729 0.28261 0.20577 0.0
H2219 H 0.76772 0.28897 0.22491 0.0
C2220 C 0.89812 0.2904 0.21787 0.0
C2221 C 0.88733 0.30968 0.21199 0.0
C2222 C 0.87746 0.27556 0.22867 0.0
C2223 C 0.84645 0.2803 0.2346 0.0
C2224 C 0.8387 0.30116 0.23241 0.0
H2225 H 0.68626 0.20904 0.29163 0.0
H2226 H 0.72534 0.23524 0.27554 0.0
C2227 C 0.8584 0.31553 0.2203 0.0
C2228 C 0.82178 0.26301 0.24105 0.0
H2229 H 0.74366 0.24265 0.23326 0.0
C2230 C 0.83115 0.24729 0.25478 0.0
C2231 C 0.78994 0.26091 0.23259 0.0
C2232 C 0.77792 0.2759 0.2165 0.0
C2233 C 0.8097 0.22994 0.26059 0.0
C2234 C 0.77778 0.22853 0.25287 0.0
C2235 C 0.7683 0.24395 0.23908 0.0
C2236 C 0.75293 0.21236 0.26061 0.0
C2237 C 0.82114 0.21348 0.27526 0.0
C2238 C 0.75516 0.19086 0.25699 0.0
C2239 C 0.73308 0.17581 0.26645 0.0
C2240 C 0.70818 0.18222 0.27909 0.0
C2241 C 0.70498 0.20375 0.28165 0.0
C2242 C 0.72733 0.2187 0.27257 0.0
H2243 H 0.84504 0.21856 0.28233 0.0
H2244 H 0.80348 0.20968 0.28819 0.0
H2245 H 0.82338 0.19881 0.26622 0.0
H2246 H 0.77437 0.18576 0.24734 0.0
H2247 H 0.73577 0.15924 0.26425 0.0
H2248 H 0.10982 0.4628 0.55981 0.0
H2249 H 0.08208 0.48187 0.53315 0.0
H2250 H 0.99627 0.47661 0.57172 0.0
H2251 H 0.02408 0.45779 0.59885 0.0
H2252 H 0.02941 0.46028 0.51426 0.0
H2253 H 0.99812 0.53614 0.54635 0.0
H2254 H 0.02984 0.52205 0.55738 0.0
H2255 H 0.98842 0.51468 0.56441 0.0
C2256 C 0.08522 0.46605 0.56288 0.0
C2257 C 0.06874 0.45833 0.58117 0.0
C2258 C 0.06957 0.47709 0.54767 0.0
C2259 C 0.03726 0.4806 0.55053 0.0
C2260 C 0.02143 0.47428 0.56943 0.0
H2261 H 0.86937 0.50888 0.48792 0.0
H2262 H 0.9117 0.49774 0.51099 0.0
C2263 C 0.03718 0.46332 0.58478 0.0
C2264 C 0.01846 0.48717 0.53242 0.0
H2265 H 0.96443 0.52116 0.51807 0.0
C2266 C 0.01541 0.47374 0.51485 0.0
C2267 C 0.00084 0.50487 0.53328 0.0
C2268 C 0.00471 0.52038 0.55128 0.0
C2269 C 0.99291 0.47646 0.49888 0.0
C2270 C 0.97354 0.49339 0.50043 0.0
C2271 C 0.97861 0.50781 0.5172 0.0
C2272 C 0.94654 0.49597 0.48575 0.0
C2273 C 0.98913 0.46047 0.48127 0.0
C2274 C 0.95136 0.49731 0.46378 0.0
C2275 C 0.92639 0.50229 0.45052 0.0
C2276 C 0.89708 0.50713 0.45922 0.0
C2277 C 0.89168 0.50481 0.48097 0.0
C2278 C 0.91605 0.49886 0.4941 0.0
H2279 H 0.99924 0.44558 0.48568 0.0
H2280 H 0.96342 0.45673 0.47687 0.0
H2281 H 0.00252 0.46697 0.46715 0.0
H2282 H 0.97485 0.49585 0.45698 0.0
H2283 H 0.93122 0.50466 0.43378 0.0
H2284 H 0.88719 0.71985 0.28246 0.0
H2285 H 0.86675 0.74588 0.25892 0.0
H2286 H 0.84118 0.69735 0.21274 0.0
H2287 H 0.8618 0.67104 0.23656 0.0
H2288 H 0.87889 0.75767 0.21455 0.0
H2289 H 0.75535 0.72076 0.23388 0.0
H2290 H 0.79028 0.71557 0.24915 0.0
H2291 H 0.78372 0.70388 0.22353 0.0
C2292 C 0.8779 0.71491 0.26705 0.0
C2293 C 0.8758 0.69372 0.26107 0.0
C2294 C 0.86648 0.72971 0.25364 0.0
C2295 C 0.85261 0.72337 0.23424 0.0
C2296 C 0.85205 0.70235 0.2277 0.0
H2297 H 0.76462 0.81554 0.15699 0.0
H2298 H 0.80155 0.79054 0.16846 0.0
C2299 C 0.86379 0.68747 0.24114 0.0
C2300 C 0.83518 0.73845 0.22252 0.0
H2301 H 0.75931 0.75228 0.21486 0.0
C2302 C 0.85274 0.75646 0.21418 0.0
C2303 C 0.80116 0.73679 0.22278 0.0
C2304 C 0.78135 0.71832 0.23291 0.0
C2305 C 0.83699 0.77335 0.20661 0.0
C2306 C 0.80298 0.77174 0.20709 0.0
C2307 C 0.78547 0.75335 0.21464 0.0
C2308 C 0.78458 0.78917 0.20083 0.0
C2309 C 0.85677 0.79312 0.19926 0.0
C2310 C 0.76292 0.79659 0.2153 0.0
C2311 C 0.74092 0.81018 0.20863 0.0
C2312 C 0.7409 0.81703 0.18752 0.0
C2313 C 0.76414 0.81067 0.17341 0.0
C2314 C 0.78551 0.79652 0.17995 0.0
H2315 H 0.88238 0.79344 0.20428 0.0
H2316 H 0.85618 0.7939 0.18173 0.0
H2317 H 0.84671 0.80734 0.20551 0.0
H2318 H 0.76196 0.79099 0.23152 0.0
H2319 H 0.72317 0.81454 0.21983 0.0
H2320 H 0.73492 0.14807 0.70042 0.0
H2321 H 0.69793 0.1727 0.71379 0.0
H2322 H 0.77087 0.22457 0.70314 0.0
H2323 H 0.80853 0.19988 0.69141 0.0
H2324 H 0.73653 0.22301 0.74342 0.0
H2325 H 0.6552 0.21387 0.673 0.0
H2326 H 0.67103 0.191 0.68414 0.0
H2327 H 0.6977 0.21064 0.67104 0.0
C2328 C 0.74299 0.16472 0.70143 0.0
C2329 C 0.77402 0.17241 0.69492 0.0
C2330 C 0.72195 0.17865 0.70872 0.0
C2331 C 0.73171 0.20028 0.70875 0.0
C2332 C 0.76317 0.20784 0.703 0.0
H2333 H 0.65482 0.31454 0.73838 0.0
H2334 H 0.67661 0.28696 0.71729 0.0
C2335 C 0.7845 0.19385 0.69637 0.0
C2336 C 0.70934 0.2152 0.71507 0.0
H2337 H 0.6429 0.23812 0.69906 0.0
C2338 C 0.71598 0.22631 0.73383 0.0
C2339 C 0.68293 0.21931 0.7022 0.0
C2340 C 0.67614 0.20819 0.68141 0.0
C2341 C 0.69662 0.24168 0.7402 0.0
C2342 C 0.67011 0.24572 0.7274 0.0
C2343 C 0.66333 0.23464 0.70865 0.0
C2344 C 0.64924 0.26141 0.73391 0.0
C2345 C 0.70456 0.25354 0.76051 0.0
C2346 C 0.62573 0.25576 0.74921 0.0
C2347 C 0.61361 0.27132 0.76119 0.0
C2348 C 0.62482 0.29241 0.75762 0.0
C2349 C 0.64579 0.29821 0.7409 0.0
C2350 C 0.65802 0.2826 0.72892 0.0
H2351 H 0.72725 0.24923 0.76787 0.0
H2352 H 0.70705 0.27077 0.75745 0.0
H2353 H 0.68462 0.25011 0.77203 0.0
H2354 H 0.61934 0.23937 0.75332 0.0
H2355 H 0.59771 0.26686 0.77436 0.0
H2356 H 0.79176 0.7802 0.80912 0.0
H2357 H 0.74968 0.75392 0.79639 0.0
H2358 H 0.72185 0.7981 0.74947 0.0
H2359 H 0.76212 0.82508 0.76373 0.0
H2360 H 0.67065 0.77893 0.76488 0.0
H2361 H 0.7515 0.71725 0.74725 0.0
H2362 H 0.75284 0.72446 0.7746 0.0
H2363 H 0.76685 0.74352 0.75471 0.0
C2364 C 0.77693 0.78412 0.79586 0.0
C2365 C 0.7804 0.80444 0.78707 0.0
C2366 C 0.75291 0.76907 0.78854 0.0
C2367 C 0.73291 0.77372 0.77157 0.0
C2368 C 0.73686 0.79404 0.76258 0.0
H2369 H 0.64956 0.70346 0.67838 0.0
H2370 H 0.6749 0.72546 0.70411 0.0
C2371 C 0.76005 0.80938 0.7705 0.0
C2372 C 0.70764 0.75761 0.76331 0.0
H2373 H 0.69588 0.70787 0.74306 0.0
C2374 C 0.67614 0.76331 0.7603 0.0
C2375 C 0.71466 0.73716 0.7573 0.0
C2376 C 0.74834 0.7303 0.75842 0.0
C2377 C 0.65213 0.74962 0.75047 0.0
C2378 C 0.65934 0.72942 0.74419 0.0
C2379 C 0.69015 0.72321 0.74843 0.0
C2380 C 0.63939 0.71709 0.72821 0.0
C2381 C 0.62001 0.75737 0.74529 0.0
C2382 C 0.60989 0.70513 0.7326 0.0
C2383 C 0.59388 0.6926 0.71659 0.0
C2384 C 0.60703 0.69202 0.696 0.0
C2385 C 0.63633 0.70432 0.69241 0.0
C2386 C 0.65194 0.71671 0.70788 0.0
H2387 H 0.61788 0.77342 0.75156 0.0
H2388 H 0.61673 0.75768 0.72785 0.0
H2389 H 0.60028 0.74637 0.75197 0.0
H2390 H 0.59978 0.70505 0.74838 0.0
H2391 H 0.57175 0.68306 0.72047 0.0
H2392 H 0.53792 0.41306 0.45365 0.0
H2393 H 0.57604 0.42616 0.48122 0.0
H2394 H 0.5528 0.48955 0.46938 0.0
H2395 H 0.51426 0.4767 0.4423 0.0
H2396 H 0.63027 0.45715 0.48037 0.0
H2397 H 0.53295 0.48041 0.53253 0.0
H2398 H 0.52504 0.46322 0.51008 0.0
H2399 H 0.53161 0.49128 0.50636 0.0
C2400 C 0.54107 0.42981 0.45683 0.0
C2401 C 0.52266 0.44381 0.44604 0.0
C2402 C 0.56283 0.43723 0.47257 0.0
C2403 C 0.56652 0.45871 0.47762 0.0
C2404 C 0.54958 0.47283 0.46605 0.0
H2405 H 0.68685 0.54994 0.53914 0.0
H2406 H 0.66097 0.52346 0.51506 0.0
C2407 C 0.5277 0.46545 0.4505 0.0
C2408 C 0.5875 0.46656 0.49525 0.0
H2409 H 0.5868 0.49513 0.54071 0.0
C2410 C 0.6208 0.46512 0.49378 0.0
C2411 C 0.57488 0.47667 0.51284 0.0
C2412 C 0.53912 0.47782 0.5157 0.0
C2413 C 0.64209 0.47482 0.50882 0.0
C2414 C 0.62959 0.48606 0.5256 0.0
C2415 C 0.59619 0.48641 0.52777 0.0
C2416 C 0.65064 0.49989 0.53946 0.0
C2417 C 0.67785 0.4737 0.50639 0.0
C2418 C 0.65382 0.49512 0.56101 0.0
C2419 C 0.66903 0.51014 0.57474 0.0
C2420 C 0.68051 0.53009 0.56699 0.0
C2421 C 0.67845 0.53449 0.5453 0.0
C2422 C 0.66378 0.51943 0.53159 0.0
H2423 H 0.68328 0.46126 0.49504 0.0
H2424 H 0.68918 0.48909 0.50049 0.0
H2425 H 0.68892 0.47057 0.52194 0.0
H2426 H 0.64328 0.48019 0.56731 0.0
H2427 H 0.66982 0.50672 0.59153 0.0
H2428 H 0.98501 0.51597 0.94089 0.0
H2429 H 0.94733 0.50384 0.96876 0.0
H2430 H 0.93252 0.56821 0.98341 0.0
H2431 H 0.96884 0.58047 0.95469 0.0
H2432 H 0.95625 0.51215 0.00985 0.0
H2433 H 0.84129 0.54099 0.98293 0.0
H2434 H 0.87581 0.54057 0.96579 0.0
H2435 H 0.87454 0.561 0.9852 0.0
C2436 C 0.97326 0.52755 0.94973 0.0
C2437 C 0.9801 0.54918 0.94571 0.0
C2438 C 0.95184 0.5206 0.96571 0.0
C2439 C 0.93716 0.53514 0.97812 0.0
C2440 C 0.94318 0.55673 0.97378 0.0
H2441 H 0.84802 0.48219 0.09528 0.0
H2442 H 0.87511 0.50989 0.07248 0.0
C2443 C 0.96413 0.5637 0.95746 0.0
C2444 C 0.91719 0.5275 0.99634 0.0
H2445 H 0.84065 0.52374 0.01605 0.0
C2446 C 0.93108 0.5149 0.01138 0.0
C2447 C 0.88439 0.53117 0.99819 0.0
C2448 C 0.86798 0.54402 0.98209 0.0
C2449 C 0.91263 0.50499 0.02769 0.0
C2450 C 0.87971 0.50833 0.02929 0.0
C2451 C 0.86611 0.52165 0.01487 0.0
C2452 C 0.85813 0.49503 0.04327 0.0
C2453 C 0.92782 0.48984 0.04216 0.0
C2454 C 0.83879 0.47822 0.03424 0.0
C2455 C 0.8237 0.46253 0.04708 0.0
C2456 C 0.8274 0.46364 0.0691 0.0
C2457 C 0.84449 0.48134 0.0783 0.0
C2458 C 0.86005 0.497 0.06536 0.0
H2459 H 0.95317 0.48792 0.03773 0.0
H2460 H 0.92755 0.49562 0.05869 0.0
H2461 H 0.91374 0.47413 0.04172 0.0
H2462 H 0.83732 0.47643 0.0172 0.0
H2463 H 0.8108 0.44885 0.03974 0.0
H2464 H 0.23492 0.0331 0.1681 0.0
H2465 H 0.22279 0.00982 0.19858 0.0
H2466 H 0.12093 0.01163 0.18753 0.0
H2467 H 0.13268 0.03419 0.15682 0.0
H2468 H 0.17914 0.0087 0.23707 0.0
H2469 H 0.14433 0.95066 0.17328 0.0
H2470 H 0.16663 0.97579 0.16792 0.0
H2471 H 0.12401 0.97421 0.17289 0.0
C2472 C 0.20998 0.02885 0.17245 0.0
C2473 C 0.18471 0.03496 0.15988 0.0
C2474 C 0.20313 0.01579 0.18993 0.0
C2475 C 0.17105 0.00903 0.195 0.0
C2476 C 0.14583 0.01672 0.18367 0.0
H2477 H 0.08362 0.90408 0.26434 0.0
H2478 H 0.09603 0.93911 0.24952 0.0
C2479 C 0.15261 0.02945 0.16607 0.0
C2480 C 0.16407 0.99101 0.20919 0.0
H2481 H 0.13853 0.93871 0.20836 0.0
C2482 C 0.17019 0.99338 0.23091 0.0
C2483 C 0.15269 0.97113 0.20084 0.0
C2484 C 0.14674 0.96765 0.17745 0.0
C2485 C 0.1649 0.97611 0.24467 0.0
C2486 C 0.15365 0.95632 0.23621 0.0
C2487 C 0.14735 0.95405 0.21457 0.0
C2488 C 0.14756 0.93742 0.24923 0.0
C2489 C 0.1718 0.97901 0.26795 0.0
C2490 C 0.17271 0.92511 0.25392 0.0
C2491 C 0.16577 0.90485 0.26216 0.0
C2492 C 0.13359 0.89684 0.26565 0.0
C2493 C 0.10867 0.9097 0.26165 0.0
C2494 C 0.11564 0.92981 0.25345 0.0
H2495 H 0.17088 0.99566 0.27281 0.0
H2496 H 0.15451 0.96878 0.27772 0.0
H2497 H 0.19636 0.9745 0.27131 0.0
H2498 H 0.19746 0.93083 0.25033 0.0
H2499 H 0.18541 0.89537 0.26535 0.0
H2500 H 0.27432 0.84795 0.56887 0.0
H2501 H 0.23436 0.82451 0.53853 0.0
H2502 H 0.20145 0.89127 0.50899 0.0
H2503 H 0.24381 0.91463 0.53816 0.0
H2504 H 0.15688 0.8627 0.50469 0.0
H2505 H 0.24775 0.80888 0.4799 0.0
H2506 H 0.23616 0.80986 0.50703 0.0
H2507 H 0.26109 0.83158 0.49516 0.0
C2508 C 0.26203 0.85617 0.55677 0.0
C2509 C 0.26567 0.88417 0.55625 0.0
C2510 C 0.23674 0.84149 0.53773 0.0
C2511 C 0.215 0.855 0.51846 0.0
C2512 C 0.21714 0.88301 0.51903 0.0
H2513 H 0.20991 0.86777 0.39543 0.0
H2514 H 0.21676 0.85894 0.43244 0.0
C2515 C 0.24324 0.89766 0.53757 0.0
C2516 C 0.19693 0.84417 0.50059 0.0
H2517 H 0.21193 0.81843 0.45481 0.0
C2518 C 0.16846 0.85245 0.49407 0.0
C2519 C 0.21104 0.83005 0.48684 0.0
C2520 C 0.24063 0.81952 0.49258 0.0
C2521 C 0.15662 0.84959 0.47333 0.0
C2522 C 0.17377 0.83822 0.45879 0.0
C2523 C 0.19935 0.82749 0.46605 0.0
C2524 C 0.17012 0.84104 0.43567 0.0
C2525 C 0.12784 0.86047 0.4665 0.0
C2526 C 0.14261 0.83262 0.42472 0.0
C2527 C 0.13954 0.83667 0.40306 0.0
C2528 C 0.16296 0.84996 0.39222 0.0
C2529 C 0.19072 0.85802 0.40328 0.0
C2530 C 0.19463 0.85306 0.42455 0.0
H2531 H 0.11668 0.86804 0.48 0.0
H2532 H 0.13521 0.8726 0.45436 0.0
H2533 H 0.10939 0.84893 0.45929 0.0
H2534 H 0.12376 0.82281 0.43281 0.0
H2535 H 0.11878 0.82951 0.39479 0.0
H2536 H 0.32198 0.08777 0.78714 0.0
H2537 H 0.31329 0.05368 0.76957 0.0
H2538 H 0.40263 0.06738 0.73536 0.0
H2539 H 0.4125 0.1008 0.75414 0.0
H2540 H 0.30537 0.04917 0.72865 0.0
H2541 H 0.41218 0.00868 0.75143 0.0
H2542 H 0.40389 0.03325 0.76346 0.0
H2543 H 0.42195 0.0329 0.73767 0.0
C2544 C 0.33989 0.08333 0.77611 0.0
C2545 C 0.36783 0.09673 0.77196 0.0
C2546 C 0.33504 0.06387 0.76618 0.0
C2547 C 0.35768 0.05783 0.75156 0.0
C2548 C 0.38547 0.07138 0.74718 0.0
H2549 H 0.36365 0.97401 0.65144 0.0
H2550 H 0.37503 0.99569 0.68234 0.0
C2551 C 0.39082 0.09056 0.75764 0.0
C2552 C 0.35016 0.03849 0.73921 0.0
H2553 H 0.3789 0.99281 0.72366 0.0
C2554 C 0.32113 0.03662 0.72786 0.0
C2555 C 0.37142 0.02261 0.73772 0.0
C2556 C 0.40398 0.02441 0.74838 0.0
C2557 C 0.31311 0.01963 0.71442 0.0
C2558 C 0.33389 0.00343 0.71332 0.0
C2559 C 0.3626 0.00499 0.7251 0.0
C2560 C 0.32891 0.98681 0.69729 0.0
C2561 C 0.28375 0.02009 0.70041 0.0
C2562 C 0.2997 0.97389 0.69594 0.0
C2563 C 0.29261 0.96184 0.67784 0.0
C2564 C 0.31507 0.96232 0.66129 0.0
C2565 C 0.34548 0.9737 0.66372 0.0
C2566 C 0.35225 0.98593 0.68152 0.0
H2567 H 0.27473 0.03591 0.69998 0.0
H2568 H 0.28923 0.01562 0.68393 0.0
H2569 H 0.26404 0.00874 0.70652 0.0
H2570 H 0.28179 0.974 0.70833 0.0
H2571 H 0.26934 0.95273 0.67653 0.0
H2572 H 0.36619 0.17467 0.90369 0.0
H2573 H 0.36804 0.17745 0.94271 0.0
H2574 H 0.3106 0.11802 0.94752 0.0
H2575 H 0.31139 0.11429 0.90908 0.0
H2576 H 0.3217 0.17916 0.97186 0.0
H2577 H 0.38488 0.11327 0.98605 0.0
H2578 H 0.36516 0.11219 0.96068 0.0
H2579 H 0.34779 0.09737 0.98259 0.0
C2580 C 0.35478 0.16187 0.91319 0.0
C2581 C 0.33955 0.14367 0.90331 0.0
C2582 C 0.35574 0.16353 0.93551 0.0
C2583 C 0.34071 0.14729 0.9483 0.0
C2584 C 0.32385 0.13006 0.93817 0.0
H2585 H 0.23106 0.09356 0.03528 0.0
H2586 H 0.26904 0.10987 0.00944 0.0
C2587 C 0.32385 0.12809 0.9162 0.0
C2588 C 0.33911 0.14846 0.97204 0.0
H2589 H 0.33289 0.11504 0.01457 0.0
C2590 C 0.32503 0.16538 0.98139 0.0
C2591 C 0.34405 0.13081 0.98505 0.0
C2592 C 0.36131 0.1125 0.97783 0.0
C2593 C 0.31048 0.1633 0.00167 0.0
C2594 C 0.31108 0.1441 0.01292 0.0
C2595 C 0.33086 0.12928 0.00541 0.0
C2596 C 0.28609 0.13639 0.02886 0.0
C2597 C 0.29137 0.18047 0.00969 0.0
C2598 C 0.28244 0.14608 0.04856 0.0
C2599 C 0.26024 0.13676 0.06348 0.0
C2600 C 0.24149 0.11775 0.05881 0.0
C2601 C 0.24475 0.10841 0.03908 0.0
C2602 C 0.26661 0.11768 0.02435 0.0
H2603 H 0.30218 0.18678 0.0247 0.0
H2604 H 0.291 0.19366 0.9982 0.0
H2605 H 0.26616 0.17406 0.01308 0.0
H2606 H 0.29749 0.16026 0.05272 0.0
H2607 H 0.25859 0.14393 0.0789 0.0
H2608 H 0.04957 0.0836 0.21164 0.0
H2609 H 0.05336 0.05781 0.24039 0.0
H2610 H 0.15398 0.07909 0.24828 0.0
H2611 H 0.15017 0.10505 0.22017 0.0
H2612 H 0.08851 0.02425 0.25012 0.0
H2613 H 0.12094 0.08829 0.30707 0.0
H2614 H 0.10654 0.09325 0.28079 0.0
H2615 H 0.14834 0.08948 0.28514 0.0
C2616 C 0.07262 0.08264 0.21929 0.0
C2617 C 0.09943 0.0968 0.21357 0.0
C2618 C 0.07477 0.06783 0.23587 0.0
C2619 C 0.10378 0.06672 0.24721 0.0
C2620 C 0.13098 0.07989 0.24048 0.0
H2621 H 0.17669 0.00165 0.35691 0.0
H2622 H 0.16872 0.02145 0.32426 0.0
C2623 C 0.12881 0.09473 0.22414 0.0
C2624 C 0.10573 0.05268 0.26653 0.0
H2625 H 0.1292 0.05372 0.31868 0.0
C2626 C 0.09725 0.03077 0.26511 0.0
C2627 C 0.11657 0.06089 0.28646 0.0
C2628 C 0.12327 0.08428 0.29008 0.0
C2629 C 0.10055 0.01703 0.28258 0.0
C2630 C 0.11273 0.02526 0.30222 0.0
C2631 C 0.12049 0.04716 0.30369 0.0
C2632 C 0.11766 0.01176 0.32153 0.0
C2633 C 0.09124 0.99378 0.27963 0.0
C2634 C 0.09177 -0.00049 0.33127 0.0
C2635 C 0.09625 0.98829 0.35018 0.0
C2636 C 0.12683 0.98881 0.35998 0.0
C2637 C 0.15282 0.00075 0.34999 0.0
C2638 C 0.14824 0.01215 0.33121 0.0
H2639 H 0.09369 0.9891 0.26283 0.0
H2640 H 0.10604 0.98412 0.28962 0.0
H2641 H 0.0656 0.99011 0.28424 0.0
H2642 H 0.06781 -0.00102 0.32451 0.0
H2643 H 0.07556 0.97926 0.3572 0.0
H2644 H 0.40914 0.82042 0.54592 0.0
H2645 H 0.37154 0.82801 0.51642 0.0
H2646 H 0.3372 0.87655 0.55346 0.0
H2647 H 0.37368 0.8691 0.5817 0.0
H2648 H 0.29193 0.8401 0.53034 0.0
H2649 H 0.37262 0.87138 0.48295 0.0
H2650 H 0.38641 0.88041 0.50843 0.0
H2651 H 0.37198 0.89872 0.48958 0.0
C2652 C 0.39321 0.83269 0.54781 0.0
C2653 C 0.39353 0.84421 0.56705 0.0
C2654 C 0.37182 0.83709 0.53086 0.0
C2655 C 0.35114 0.85334 0.53297 0.0
C2656 C 0.35253 0.86428 0.55176 0.0
H2657 H 0.23182 0.94591 0.47743 0.0
H2658 H 0.26953 0.92838 0.50028 0.0
C2659 C 0.37348 0.86016 0.56789 0.0
C2660 C 0.32659 0.8602 0.51734 0.0
H2661 H 0.31574 0.89996 0.48398 0.0
C2662 C 0.29399 0.85538 0.52262 0.0
C2663 C 0.33431 0.87724 0.50396 0.0
C2664 C 0.36824 0.88241 0.49594 0.0
C2665 C 0.2675 0.87013 0.52238 0.0
C2666 C 0.27721 0.88518 0.50368 0.0
C2667 C 0.30954 0.88838 0.49633 0.0
C2668 C 0.25578 0.89686 0.48859 0.0
C2669 C 0.21295 0.86909 0.55229 0.0
C2670 C 0.23635 0.88559 0.47341 0.0
C2671 C 0.21375 0.89546 0.46123 0.0
C2672 C 0.2113 0.91728 0.46227 0.0
C2673 C 0.23268 0.92905 0.47614 0.0
C2674 C 0.25438 0.91897 0.48924 0.0
H2675 H 0.21623 0.86837 0.57005 0.0
H2676 H 0.19628 0.88207 0.55314 0.0
H2677 H 0.1926 0.85596 0.55219 0.0
H2678 H 0.23773 0.86889 0.47162 0.0
H2679 H 0.19772 0.88596 0.45092 0.0
H2680 H 0.38037 0.03158 0.81784 0.0
H2681 H 0.38362 0.00782 0.788 0.0
H2682 H 0.37873 0.95477 0.83056 0.0
H2683 H 0.37319 0.97856 0.86069 0.0
H2684 H 0.42847 0.98315 0.77743 0.0
H2685 H 0.31343 0.93244 0.78807 0.0
H2686 H 0.32264 0.95637 0.80296 0.0
H2687 H 0.34042 0.93279 0.81022 0.0
C2688 C 0.37986 0.01484 0.82094 0.0
C2689 C 0.3765 0.00702 0.84174 0.0
C2690 C 0.38193 0.00123 0.80375 0.0
C2691 C 0.38143 0.97937 0.80668 0.0
C2692 C 0.37843 0.97145 0.82756 0.0
H2693 H 0.4236 0.88325 0.71605 0.0
H2694 H 0.42425 0.9079 0.7455 0.0
C2695 C 0.37548 0.9851 0.84486 0.0
C2696 C 0.38461 0.96538 0.78775 0.0
H2697 H 0.34746 0.9235 0.76018 0.0
C2698 C 0.41051 0.97023 0.77365 0.0
C2699 C 0.36153 0.94826 0.78267 0.0
C2700 C 0.33278 0.9422 0.79665 0.0
C2701 C 0.41359 0.95886 0.75473 0.0
C2702 C 0.39048 0.94191 0.74968 0.0
C2703 C 0.36495 0.9367 0.76387 0.0
C2704 C 0.39337 0.92869 0.73032 0.0
C2705 C 0.44141 0.96508 0.74005 0.0
C2706 C 0.37619 0.9322 0.71162 0.0
C2707 C 0.37658 0.91826 0.69432 0.0
C2708 C 0.39488 0.90083 0.69511 0.0
C2709 C 0.41182 0.89749 0.71396 0.0
C2710 C 0.41151 0.91134 0.73113 0.0
H2711 H 0.457 0.979 0.74587 0.0
H2712 H 0.45631 0.95169 0.73826 0.0
H2713 H 0.43206 0.96873 0.72414 0.0
H2714 H 0.3615 0.94527 0.71072 0.0
H2715 H 0.3614 0.92056 0.68076 0.0
H2716 H 0.27268 0.08659 0.91169 0.0
H2717 H 0.22824 0.10198 0.92967 0.0
H2718 H 0.26283 0.08099 0.98958 0.0
H2719 H 0.30891 0.06739 0.97178 0.0
H2720 H 0.1794 0.0811 0.9701 0.0
H2721 H 0.25524 0.13858 0.9529 0.0
H2722 H 0.27698 0.13108 0.97553 0.0
H2723 H 0.25769 0.15553 0.97563 0.0
C2724 C 0.27119 0.08569 0.92877 0.0
C2725 C 0.29562 0.07705 0.94043 0.0
C2726 C 0.24541 0.09423 0.93902 0.0
C2727 C 0.24255 0.09349 0.96119 0.0
C2728 C 0.26512 0.08283 0.97263 0.0
H2729 H 0.17065 0.15421 0.06742 0.0
H2730 H 0.19795 0.13906 0.03781 0.0
C2731 C 0.29143 0.07485 0.96242 0.0
C2732 C 0.21833 0.10553 0.97258 0.0
H2733 H 0.21398 0.15167 0.99941 0.0
C2734 C 0.18696 0.09646 0.97671 0.0
C2735 C 0.22623 0.12655 0.97903 0.0
C2736 C 0.25576 0.13887 0.97046 0.0
C2737 C 0.16468 0.10731 0.98842 0.0
C2738 C 0.17528 0.12668 0.99883 0.0
C2739 C 0.20596 0.13625 0.99311 0.0
C2740 C 0.15717 0.1368 0.01651 0.0
C2741 C 0.13 0.09836 0.98726 0.0
C2742 C 0.12529 0.14227 0.01453 0.0
C2743 C 0.1092 0.15067 0.03181 0.0
C2744 C 0.1249 0.15507 0.05136 0.0
C2745 C 0.15746 0.15108 0.05282 0.0
C2746 C 0.17312 0.14209 0.0358 0.0
H2747 H 0.12077 0.10146 0.97118 0.0
H2748 H 0.12801 0.08096 0.98919 0.0
H2749 H 0.11417 0.10527 0.99861 0.0
H2750 H 0.11261 0.14007 0.99963 0.0
H2751 H 0.08425 0.1537 0.02984 0.0
H2752 H 0.9954 0.27778 0.17541 0.0
H2753 H 0.03541 0.25563 0.16103 0.0
H2754 H 0.01943 0.27914 0.09846 0.0
H2755 H 0.98372 0.30346 0.11329 0.0
H2756 H 0.01355 0.23293 0.09894 0.0
H2757 H 0.12679 0.26864 0.13339 0.0
H2758 H 0.09326 0.26865 0.1514 0.0
H2759 H 0.09281 0.28305 0.12707 0.0
C2760 C 5e-05 0.27803 0.15854 0.0
C2761 C 0.98329 0.29086 0.14519 0.0
C2762 C 0.02311 0.26539 0.15027 0.0
C2763 C 0.02884 0.26433 0.12829 0.0
C2764 C 0.0144 0.27859 0.11527 0.0
H2765 H 0.18082 0.17689 0.11405 0.0
H2766 H 0.1513 0.20865 0.1075 0.0
C2767 C 0.99308 0.29222 0.12379 0.0
C2768 C 0.04989 0.24848 0.11925 0.0
H2769 H 0.1258 0.23363 0.12208 0.0
C2770 C 0.03723 0.23231 0.10552 0.0
C2771 C 0.083 0.24932 0.12396 0.0
C2772 C 0.10016 0.26844 0.13446 0.0
C2773 C 0.05473 0.21501 0.10024 0.0
C2774 C 0.08544 0.21343 0.10941 0.0
C2775 C 0.10046 0.23225 0.11838 0.0
C2776 C 0.10168 0.19281 0.11124 0.0
C2777 C 0.04215 0.20031 0.08283 0.0
C2778 C 0.0836 0.17074 0.1128 0.0
C2779 C 0.10166 0.15153 0.11521 0.0
C2780 C 0.13771 0.15385 0.1161 0.0
C2781 C 0.15484 0.17532 0.11584 0.0
C2782 C 0.13729 0.19412 0.11197 0.0
H2783 H 0.02607 0.20815 0.07196 0.0
H2784 H 0.06237 0.195 0.07351 0.0
H2785 H 0.0279 0.18626 0.08929 0.0
H2786 H 0.05766 0.16838 0.11139 0.0
H2787 H 0.08844 0.13614 0.11388 0.0
H2788 H 0.51819 0.38594 0.90527 0.0
H2789 H 0.48252 0.35324 0.90026 0.0
H2790 H 0.5508 0.33173 0.8561 0.0
H2791 H 0.58562 0.36424 0.86144 0.0
H2792 H 0.47867 0.32818 0.84583 0.0
H2793 H 0.51009 0.29263 0.9225 0.0
H2794 H 0.50173 0.31984 0.92073 0.0
H2795 H 0.53845 0.31198 0.90995 0.0
C2796 C 0.52598 0.37377 0.89517 0.0
C2797 C 0.55641 0.37625 0.88542 0.0
C2798 C 0.50543 0.35538 0.89207 0.0
C2799 C 0.51501 0.33971 0.87871 0.0
C2800 C 0.54375 0.34329 0.86723 0.0
H2801 H 0.46223 0.2164 0.80809 0.0
H2802 H 0.48682 0.2573 0.82091 0.0
C2803 C 0.56395 0.36166 0.87037 0.0
C2804 C 0.49552 0.31947 0.87616 0.0
H2805 H 0.48581 0.26995 0.89661 0.0
C2806 C 0.4807 0.31541 0.85667 0.0
C2807 C 0.4963 0.30316 0.89115 0.0
C2808 C 0.51242 0.30694 0.91234 0.0
C2809 C 0.46999 0.29502 0.85042 0.0
C2810 C 0.47364 0.27818 0.86463 0.0
C2811 C 0.48413 0.28271 0.88541 0.0
C2812 C 0.46688 0.25587 0.85867 0.0
C2813 C 0.45516 0.29253 0.82866 0.0
C2814 C 0.44451 0.23849 0.8768 0.0
C2815 C 0.42833 0.21313 0.8685 0.0
C2816 C 0.43461 0.20469 0.84193 0.0
C2817 C 0.45866 0.22129 0.82419 0.0
C2818 C 0.47442 0.24691 0.8324 0.0
H2819 H 0.4433 0.30673 0.82406 0.0
H2820 H 0.47446 0.29097 0.81685 0.0
H2821 H 0.4368 0.27893 0.82764 0.0
H2822 H 0.43884 0.2439 0.89242 0.0
H2823 H 0.41239 0.20357 0.87892 0.0
H2824 H 0.90697 0.60835 0.35855 0.0
H2825 H 0.92868 0.64337 0.34626 0.0
H2826 H 0.93178 0.66637 0.41002 0.0
H2827 H 0.91173 0.63122 0.42288 0.0
H2828 H 0.93048 0.68898 0.36784 0.0
H2829 H 0.02663 0.66542 0.35913 0.0
H2830 H 0.99012 0.64794 0.36307 0.0
H2831 H 0.00672 0.66353 0.38453 0.0
C2832 C 0.9126 0.62076 0.37 0.0
C2833 C 0.90704 0.61725 0.39163 0.0
C2834 C 0.92494 0.64059 0.36293 0.0
C2835 C 0.93119 0.65709 0.37725 0.0
C2836 C 0.92664 0.65364 0.39887 0.0
H2837 H 0.01874 0.79364 0.39195 0.0
H2838 H 0.9933 0.77714 0.3753 0.0
C2839 C 0.91516 0.63366 0.40609 0.0
C2840 C 0.94298 0.67955 0.36872 0.0
H2841 H 0.02864 0.70307 0.34874 0.0
C2842 C 0.91693 0.70011 0.36663 0.0
C2843 C 0.98301 0.68092 0.36149 0.0
C2844 C 0.00285 0.6634 0.36716 0.0
C2845 C 0.92595 0.7246 0.35675 0.0
C2846 C 0.96353 0.73338 0.34761 0.0
C2847 C 0.00257 0.70305 0.35103 0.0
C2848 C 0.96896 0.75757 0.34542 0.0
C2849 C 0.90035 0.7394 0.35744 0.0
C2850 C 0.98647 0.7657 0.32218 0.0
C2851 C 0.01977 0.78216 0.31815 0.0
C2852 C 0.03958 0.7958 0.33818 0.0
C2853 C 0.01063 0.78605 0.37476 0.0
C2854 C 0.9766 0.76733 0.37003 0.0
H2855 H 0.89635 0.74542 0.34125 0.0
H2856 H 0.87756 0.73146 0.3639 0.0
H2857 H 0.9084 0.7531 0.36754 0.0
H2858 H 0.97655 0.75785 0.30811 0.0
H2859 H 0.02833 0.78433 0.3021 0.0
H2860 H 0.91401 0.355 0.11644 0.0
H2861 H 0.94388 0.32189 0.11991 0.0
H2862 H 0.84842 0.28281 0.1155 0.0
H2863 H 0.82111 0.31585 0.11456 0.0
H2864 H 0.87421 0.25986 0.13891 0.0
H2865 H 0.94666 0.26573 0.07188 0.0
H2866 H 0.95645 0.29106 0.08303 0.0
H2867 H 0.91459 0.28153 0.07694 0.0
C2868 C 0.90012 0.33992 0.1189 0.0
C2869 C 0.8642 0.3383 0.11625 0.0
C2870 C 0.91804 0.31985 0.12081 0.0
C2871 C 0.89828 0.29748 0.12021 0.0
C2872 C 0.86292 0.29756 0.1185 0.0
H2873 H -6e-05 0.17941 0.11877 0.0
H2874 H 0.95948 0.20303 0.10779 0.0
C2875 C 0.84672 0.31723 0.11795 0.0
C2876 C 0.91152 0.27557 0.11958 0.0
H2877 H 0.9674 0.24548 0.09877 0.0
C2878 C 0.89847 0.25968 0.13356 0.0
C2879 C 0.93398 0.2685 0.10493 0.0
C2880 C 0.93806 0.2774 0.08303 0.0
C2881 C 0.91534 0.24253 0.13964 0.0
C2882 C 0.94325 0.23864 0.12842 0.0
C2883 C 0.94972 0.25028 0.10969 0.0
C2884 C 0.96523 0.22265 0.13564 0.0
C2885 C 0.9025 0.22844 0.15754 0.0
C2886 C 0.98074 0.2247 0.15547 0.0
C2887 C 0.00606 0.21253 0.16068 0.0
C2888 C 0.01491 0.19705 0.14674 0.0
C2889 C 0.99593 0.19274 0.12857 0.0
C2890 C 0.97214 0.20585 0.12264 0.0
H2891 H 0.87576 0.22732 0.15812 0.0
H2892 H 0.91006 0.2123 0.15622 0.0
H2893 H 0.91186 0.23533 0.17271 0.0
H2894 H 0.97448 0.23656 0.16652 0.0
H2895 H 0.01881 0.2153 0.17551 0.0
H2896 H 0.5006 0.68194 0.59521 0.0
H2897 H 0.46863 0.71987 0.59202 0.0
H2898 H 0.4896 0.7331 0.66856 0.0
H2899 H 0.5245 0.69805 0.67104 0.0
H2900 H 0.42128 0.73319 0.65085 0.0
H2901 H 0.53024 0.8154 0.62312 0.0
H2902 H 0.55104 0.79449 0.62242 0.0
H2903 H 0.53695 0.80231 0.64501 0.0
C2904 C 0.49864 0.69184 0.60892 0.0
C2905 C 0.51595 0.68493 0.63411 0.0
C2906 C 0.47934 0.71566 0.60684 0.0
C2907 C 0.47598 0.73176 0.62982 0.0
C2908 C 0.49366 0.7247 0.65419 0.0
H2909 H 0.36947 0.85193 0.65494 0.0
H2910 H 0.40895 0.80943 0.65782 0.0
C2911 C 0.51365 0.70178 0.65613 0.0
C2912 C 0.45639 0.75 0.62998 0.0
H2913 H 0.43632 0.78652 0.5977 0.0
C2914 C 0.42719 0.74735 0.64153 0.0
C2915 C 0.46746 0.77119 0.62175 0.0
C2916 C 0.52692 0.79843 0.62868 0.0
C2917 C 0.40613 0.76335 0.64131 0.0
C2918 C 0.41067 0.7789 0.62532 0.0
C2919 C 0.43693 0.77698 0.61188 0.0
C2920 C 0.39364 0.7988 0.6242 0.0
C2921 C 0.37781 0.76161 0.65606 0.0
C2922 C 0.37682 0.80618 0.60198 0.0
C2923 C 0.35635 0.82756 0.6 0.0
C2924 C 0.3564 0.84559 0.61937 0.0
C2925 C 0.37202 0.84034 0.64336 0.0
C2926 C 0.39484 0.81533 0.64508 0.0
H2927 H 0.38147 0.75089 0.66955 0.0
H2928 H 0.37338 0.77714 0.66246 0.0
H2929 H 0.35624 0.75493 0.6472 0.0
H2930 H 0.37758 0.79612 0.58829 0.0
H2931 H 0.34212 0.82932 0.58595 0.0
H2932 H 0.97782 0.70996 0.3022 0.0
H2933 H 0.02644 0.73761 0.3131 0.0
H2934 H 0.01266 0.73937 0.38865 0.0
H2935 H 0.96173 0.70978 0.39073 0.0
H2936 H 0.964 0.79495 0.33938 0.0
H2937 H 0.10648 0.76798 0.37707 0.0
H2938 H 0.09051 0.74994 0.35651 0.0
H2939 H 0.07375 0.74807 0.38263 0.0
C2940 C 0.98081 0.71344 0.31881 0.0
C2941 C 0.95494 0.70103 0.33693 0.0
C2942 C 0.01197 0.73066 0.32603 0.0
C2943 C 0.02096 0.74048 0.35059 0.0
C2944 C 0.00443 0.73175 0.37408 0.0
H2945 H 0.07857 0.86079 0.42391 0.0
H2946 H 0.04646 0.83003 0.40951 0.0
C2947 C 0.97136 0.71396 0.375 0.0
C2948 C 0.02621 0.7646 0.35101 0.0
H2949 H 0.08834 0.80325 0.38078 0.0
C2950 C 0.98866 0.79497 0.34541 0.0
C2951 C 0.0602 0.77397 0.36432 0.0
C2952 C 0.0844 0.75925 0.37048 0.0
C2953 C 0.00568 0.81782 0.35606 0.0
C2954 C 0.04207 0.81909 0.36836 0.0
C2955 C 0.06629 0.79927 0.37216 0.0
C2956 C 0.05498 0.83927 0.37693 0.0
C2957 C 0.98591 0.83607 0.35694 0.0
C2958 C 0.0693 0.85465 0.36326 0.0
C2959 C 0.08813 0.87203 0.37125 0.0
C2960 C 0.09273 0.87404 0.39314 0.0
C2961 C 0.07594 0.85941 0.40691 0.0
C2962 C 0.05743 0.84194 0.39879 0.0
H2963 H 0.96809 0.83517 0.34384 0.0
H2964 H 0.97252 0.83537 0.37212 0.0
H2965 H 0.00138 0.8512 0.35648 0.0
H2966 H 0.06751 0.85248 0.34643 0.0
H2967 H 0.09992 0.88342 0.36032 0.0
H2968 H 0.48105 0.1161 0.87155 0.0
H2969 H 0.51419 0.1505 0.86946 0.0
H2970 H 0.43673 0.18013 0.89805 0.0
H2971 H 0.40285 0.14696 0.8964 0.0
H2972 H 0.48169 0.18772 0.84623 0.0
H2973 H 0.53165 0.20599 0.92504 0.0
H2974 H 0.5305 0.17997 0.91349 0.0
H2975 H 0.49434 0.18899 0.92383 0.0
C2976 C 0.47107 0.13015 0.87695 0.0
C2977 C 0.43888 0.12889 0.88397 0.0
C2978 C 0.49015 0.14968 0.87609 0.0
C2979 C 0.47766 0.16812 0.88309 0.0
C2980 C 0.44667 0.16639 0.89187 0.0
H2981 H 0.56035 0.26366 0.80894 0.0
H2982 H 0.53537 0.23252 0.82783 0.0
C2983 C 0.42734 0.14725 0.89157 0.0
C2984 C 0.49373 0.18959 0.87843 0.0
H2985 H 0.53944 0.23169 0.89723 0.0
C2986 C 0.48791 0.19888 0.8588 0.0
C2987 C 0.50932 0.20256 0.89389 0.0
C2988 C 0.5171 0.19407 0.91533 0.0
C2989 C 0.48123 0.22129 0.85762 0.0
C2990 C 0.51078 0.23142 0.86831 0.0
C2991 C 0.52102 0.22302 0.88773 0.0
C2992 C 0.53356 0.24824 0.85809 0.0
C2993 C 0.42192 0.23872 0.84329 0.0
C2994 C 0.54608 0.26616 0.86943 0.0
C2995 C 0.56086 0.28377 0.85875 0.0
C2996 C 0.56384 0.28356 0.83664 0.0
C2997 C 0.5559 0.26465 0.82578 0.0
C2998 C 0.54208 0.24683 0.83663 0.0
H2999 H 0.39742 0.22939 0.84385 0.0
H3000 H 0.41281 0.25316 0.85063 0.0
H3001 H 0.41858 0.24388 0.82636 0.0
H3002 H 0.54279 0.26712 0.88636 0.0
H3003 H 0.56921 0.29771 0.86769 0.0
H3004 H 0.82724 0.04969 0.70278 0.0
H3005 H 0.83909 0.02895 0.7341 0.0
H3006 H 0.92941 0.06683 0.74227 0.0
H3007 H 0.91691 0.08859 0.71163 0.0
H3008 H 0.89507 0.00532 0.74003 0.0
H3009 H 0.88655 0.0663 0.80194 0.0
H3010 H 0.8691 0.06887 0.77595 0.0
H3011 H 0.91197 0.07288 0.77941 0.0
C3012 C 0.84985 0.05347 0.71105 0.0
C3013 C 0.87134 0.07065 0.70453 0.0
C3014 C 0.85654 0.04156 0.72893 0.0
C3015 C 0.8851 0.04614 0.7405 0.0
C3016 C 0.90699 0.06307 0.73381 0.0
H3017 H 0.95215 0.97646 0.84964 0.0
H3018 H 0.94792 0.00224 0.82141 0.0
C3019 C 0.9 0.07535 0.71615 0.0
C3020 C 0.89173 0.03274 0.75921 0.0
H3021 H 0.89542 0.03203 0.81341 0.0
C3022 C 0.89558 0.01138 0.7559 0.0
C3023 C 0.89267 0.04044 0.78023 0.0
C3024 C 0.88974 0.06335 0.78479 0.0
C3025 C 0.9004 -0.00234 0.77277 0.0
C3026 C 0.8985 0.00484 0.79374 0.0
C3027 C 0.89564 0.02633 0.79728 0.0
C3028 C 0.89993 0.98999 0.81192 0.0
C3029 C 0.90873 0.97571 0.76816 0.0
C3030 C 0.87453 0.97418 0.81583 0.0
C3031 C 0.87683 0.95933 0.83216 0.0
C3032 C 0.90449 0.96024 0.84495 0.0
C3033 C 0.93001 0.97583 0.84065 0.0
C3034 C 0.92771 0.9906 0.82445 0.0
H3035 H 0.91726 0.9743 0.75166 0.0
H3036 H 0.92797 0.97125 0.77897 0.0
H3037 H 0.88719 0.96446 0.77083 0.0
H3038 H 0.8529 0.97343 0.80627 0.0
H3039 H 0.85687 0.94747 0.83503 0.0
H3040 H 0.64664 0.08858 0.4437 0.0
H3041 H 0.66966 0.09583 0.47877 0.0
H3042 H 0.61201 0.04198 0.50408 0.0
H3043 H 0.58702 0.03546 0.4691 0.0
H3044 H 0.63024 0.10412 0.51443 0.0
H3045 H 0.70553 0.0382 0.52944 0.0
H3046 H 0.69532 0.04624 0.50302 0.0
H3047 H 0.66544 0.03172 0.51913 0.0
C3048 C 0.63974 0.07779 0.45652 0.0
C3049 C 0.61554 0.06115 0.45348 0.0
C3050 C 0.65299 0.08199 0.47659 0.0
C3051 C 0.64316 0.06933 0.49403 0.0
C3052 C 0.62048 0.05179 0.49082 0.0
H3053 H 0.68687 0.10968 0.62715 0.0
H3054 H 0.65755 0.09253 0.59678 0.0
C3055 C 0.60654 0.04786 0.47073 0.0
C3056 C 0.6545 0.07587 0.51569 0.0
H3057 H 0.70389 0.06361 0.55629 0.0
C3058 C 0.64579 0.09503 0.52377 0.0
C3059 C 0.67529 0.06424 0.52773 0.0
C3060 C 0.68624 0.04399 0.51947 0.0
C3061 C 0.65763 0.10295 0.54335 0.0
C3062 C 0.67865 0.09144 0.55529 0.0
C3063 C 0.68711 0.07216 0.54737 0.0
C3064 C 0.69581 0.10079 0.57425 0.0
C3065 C 0.64933 0.12424 0.55062 0.0
C3066 C 0.72675 0.11106 0.57171 0.0
C3067 C 0.7437 0.12034 0.58889 0.0
C3068 C 0.72971 0.12016 0.60913 0.0
C3069 C 0.69832 0.1101 0.61175 0.0
C3070 C 0.68159 0.10029 0.59446 0.0
H3071 H 0.63127 0.13076 0.54017 0.0
H3072 H 0.63976 0.12312 0.56701 0.0
H3073 H 0.67155 0.13539 0.55081 0.0
H3074 H 0.73753 0.11219 0.55621 0.0
H3075 H 0.76765 0.12803 0.58616 0.0
H3076 H 0.57181 0.91822 0.19389 0.0
H3077 H 0.56764 0.94709 0.21924 0.0
H3078 H 0.64426 0.92448 0.25627 0.0
H3079 H 0.65269 0.89944 0.22905 0.0
H3080 H 0.55311 0.95454 0.25536 0.0
H3081 H 0.67695 0.95409 0.26961 0.0
H3082 H 0.68329 0.97986 0.25845 0.0
H3083 H 0.66905 0.95807 0.24195 0.0
C3084 C 0.58781 0.91956 0.20744 0.0
C3085 C 0.61165 0.90551 0.2098 0.0
C3086 C 0.58538 0.9361 0.22211 0.0
C3087 C 0.6064 0.93888 0.23977 0.0
C3088 C 0.62867 0.92392 0.24256 0.0
H3089 H 0.61786 0.01083 0.3563 0.0
H3090 H 0.62037 0.98585 0.32713 0.0
C3091 C 0.63231 0.9084 0.22738 0.0
C3092 C 0.60513 0.95706 0.25521 0.0
H3093 H 0.65159 0.9922 0.28651 0.0
C3094 C 0.57485 0.96289 0.26177 0.0
C3095 C 0.63325 0.96845 0.2641 0.0
C3096 C 0.66729 0.96487 0.25792 0.0
C3097 C 0.57192 0.97872 0.27714 0.0
C3098 C 0.59994 0.9893 0.28638 0.0
C3099 C 0.63007 0.98401 0.27957 0.0
C3100 C 0.59873 0.0051 0.30391 0.0
C3101 C 0.53876 0.98353 0.28395 0.0
C3102 C 0.58659 0.02467 0.30062 0.0
C3103 C 0.58567 0.03923 0.31728 0.0
C3104 C 0.59654 0.0345 0.33775 0.0
C3105 C 0.60933 0.01509 0.34082 0.0
C3106 C 0.61063 0.0007 0.32413 0.0
H3107 H 0.51956 0.97167 0.27804 0.0
H3108 H 0.53725 0.98416 0.30148 0.0
H3109 H 0.53402 -0.0008 0.27768 0.0
H3110 H 0.57779 0.0287 0.28515 0.0
H3111 H 0.57542 0.05391 0.31427 0.0
H3112 H 0.90595 0.89778 0.97192 0.0
H3113 H 0.87569 0.89798 0.00406 0.0
H3114 H 0.84053 0.95687 0.98589 0.0
H3115 H 0.86969 0.95596 0.95207 0.0
H3116 H 0.88054 0.92266 0.03605 0.0
H3117 H 0.75739 0.92772 0.00293 0.0
H3118 H 0.79074 0.92345 0.98584 0.0
H3119 H 0.78793 0.94875 0.99766 0.0
C3120 C 0.8913 0.91065 0.97422 0.0
C3121 C 0.8898 0.92662 0.9589 0.0
C3122 C 0.87423 0.9109 0.99302 0.0
C3123 C 0.85533 0.92728 0.99759 0.0
C3124 C 0.85408 0.94365 0.98262 0.0
H3125 H 0.75021 0.90377 0.11957 0.0
H3126 H 0.77659 0.92532 0.09109 0.0
C3127 C 0.87091 0.94319 0.96329 0.0
C3128 C 0.83735 0.9262 0.01808 0.0
H3129 H 0.76123 0.91655 0.03831 0.0
C3130 C 0.85441 0.92165 0.03652 0.0
C3131 C 0.8033 0.92554 0.0191 0.0
C3132 C 0.78361 0.93153 0.00038 0.0
C3133 C 0.83837 0.91413 0.05497 0.0
C3134 C 0.80439 0.91122 0.05514 0.0
C3135 C 0.78727 0.91807 0.03771 0.0
C3136 C 0.78678 0.89867 0.07209 0.0
C3137 C 0.85781 0.90812 0.07378 0.0
C3138 C 0.78378 0.87661 0.0709 0.0
C3139 C 0.76807 0.86437 0.08693 0.0
C3140 C 0.75487 0.87391 0.10449 0.0
C3141 C 0.75886 0.896 0.10596 0.0
C3142 C 0.77416 0.90832 0.08973 0.0
H3143 H 0.88347 0.91467 0.07262 0.0
H3144 H 0.84745 0.91379 0.08864 0.0
H3145 H 0.85688 0.89069 0.07476 0.0
H3146 H 0.79371 0.86884 0.05753 0.0
H3147 H 0.76603 0.84737 0.08552 0.0
H3148 H 0.83381 0.01052 0.64859 0.0
H3149 H 0.82552 0.98306 0.67497 0.0
H3150 H 0.91191 0.00844 0.7072 0.0
H3151 H 0.91901 0.03732 0.68152 0.0
H3152 H 0.90522 0.96454 0.70377 0.0
H3153 H 0.79592 0.9939 0.73539 0.0
H3154 H 0.78516 0.98184 0.71054 0.0
H3155 H 0.81359 0.00487 0.71131 0.0
C3156 C 0.85056 0.01086 0.66164 0.0
C3157 C 0.87637 0.02679 0.66335 0.0
C3158 C 0.84583 0.99491 0.67668 0.0
C3159 C 0.86697 0.99423 0.69379 0.0
C3160 C 0.89406 0.00927 0.69491 0.0
H3161 H 0.82696 0.91901 0.80793 0.0
H3162 H 0.83336 0.94736 0.78134 0.0
C3163 C 0.89834 0.02572 0.68008 0.0
C3164 C 0.86054 0.97754 0.7101 0.0
H3165 H 0.80403 0.95702 0.74565 0.0
C3166 C 0.88319 0.96294 0.713 0.0
C3167 C 0.83157 0.97534 0.72204 0.0
C3168 C 0.80548 0.99 0.71962 0.0
C3169 C 0.87776 0.9462 0.72749 0.0
C3170 C 0.84878 0.944 0.73942 0.0
C3171 C 0.82625 0.9587 0.7366 0.0
C3172 C 0.84176 0.92678 0.75517 0.0
C3173 C 0.90384 0.93161 0.73048 0.0
C3174 C 0.84236 0.90574 0.74908 0.0
C3175 C 0.83885 0.88968 0.76413 0.0
C3176 C 0.83394 0.89419 0.78561 0.0
C3177 C 0.83105 0.9151 0.79155 0.0
C3178 C 0.83489 0.93127 0.7764 0.0
H3179 H 0.92768 0.93898 0.72503 0.0
H3180 H 0.906 0.92699 0.74734 0.0
H3181 H 0.89785 0.91714 0.721 0.0
H3182 H 0.84608 0.90172 0.73269 0.0
H3183 H 0.84024 0.87365 0.7589 0.0
H3184 H 0.80687 0.12001 0.55764 0.0
H3185 H 0.79042 0.12654 0.52143 0.0
H3186 H 0.76347 0.06 0.51322 0.0
H3187 H 0.78318 0.05329 0.54879 0.0
H3188 H 0.79411 0.07636 0.47936 0.0
H3189 H 0.69975 0.12793 0.50173 0.0
H3190 H 0.73926 0.13687 0.51133 0.0
H3191 H 0.71925 0.11236 0.52074 0.0
C3192 C 0.79888 0.10671 0.54787 0.0
C3193 C 0.79735 0.08608 0.55579 0.0
C3194 C 0.78848 0.11052 0.52732 0.0
C3195 C 0.77506 0.0938 0.51474 0.0
C3196 C 0.77367 0.07315 0.52267 0.0
H3197 H 0.68706 0.07513 0.39122 0.0
H3198 H 0.70576 0.07176 0.42789 0.0
C3199 C 0.78495 0.06932 0.54296 0.0
C3200 C 0.76296 0.0976 0.49317 0.0
H3201 H 0.70974 0.12427 0.46514 0.0
C3202 C 0.77537 0.08664 0.47631 0.0
C3203 C 0.73892 0.11134 0.48916 0.0
C3204 C 0.72328 0.12269 0.50669 0.0
C3205 C 0.76408 0.08876 0.45561 0.0
C3206 C 0.73954 0.10206 0.45172 0.0
C3207 C 0.72816 0.11378 0.46834 0.0
C3208 C 0.72586 0.10426 0.43036 0.0
C3209 C 0.77903 0.07717 0.43797 0.0
C3210 C 0.7298 0.12381 0.42012 0.0
C3211 C 0.71908 0.12577 0.39941 0.0
C3212 C 0.70398 0.10823 0.38856 0.0
C3213 C 0.69896 0.0888 0.39911 0.0
C3214 C 0.70969 0.08687 0.41996 0.0
H3215 H 0.8025 0.0717 0.44275 0.0
H3216 H 0.76252 0.06315 0.43356 0.0
H3217 H 0.78291 0.08737 0.42374 0.0
H3218 H 0.74205 0.13742 0.42794 0.0
H3219 H 0.72344 0.14099 0.39173 0.0
H3220 H 0.6143 0.99242 0.14204 0.0
H3221 H 0.62638 0.01911 0.16958 0.0
H3222 H 0.64363 0.97023 0.21407 0.0
H3223 H 0.63375 0.94372 0.18623 0.0
H3224 H 0.59381 0.02212 0.20719 0.0
H3225 H 0.72267 0.0118 0.22308 0.0
H3226 H 0.70304 0.00478 0.19824 0.0
H3227 H 0.69638 0.98788 0.22077 0.0
C3228 C 0.6208 0.98747 0.15777 0.0
C3229 C 0.6219 0.96604 0.16249 0.0
C3230 C 0.6277 0.00266 0.17341 0.0
C3231 C 0.63614 -0.00341 0.19388 0.0
C3232 C 0.63768 0.97519 0.19839 0.0
H3233 H 0.65607 0.06986 0.31133 0.0
H3234 H 0.65311 0.04031 0.28604 0.0
C3235 C 0.63106 0.96004 0.18272 0.0
C3236 C 0.64161 0.01249 0.2108 0.0
H3237 H 0.69716 0.03364 0.24657 0.0
C3238 C 0.61638 0.02459 0.21582 0.0
C3239 C 0.67123 0.01579 0.22187 0.0
C3240 C 0.70005 0.00457 0.2157 0.0
C3241 C 0.61989 0.03992 0.23167 0.0
C3242 C 0.64928 0.04304 0.24291 0.0
C3243 C 0.67447 0.03082 0.23814 0.0
C3244 C 0.65487 0.06035 0.25828 0.0
C3245 C 0.59237 0.053 0.23604 0.0
C3246 C 0.65776 0.08115 0.25089 0.0
C3247 C 0.65904 0.09779 0.2651 0.0
C3248 C 0.65794 0.09393 0.28698 0.0
C3249 C 0.65684 0.07313 0.2945 0.0
C3250 C 0.65517 0.05635 0.28014 0.0
H3251 H 0.56937 0.046 0.22897 0.0
H3252 H 0.58897 0.05486 0.25334 0.0
H3253 H 0.59808 0.06895 0.22912 0.0
H3254 H 0.65811 0.08448 0.23406 0.0
H3255 H 0.66068 0.11374 0.25896 0.0
H3256 H 0.67548 0.92589 0.04327 0.0
H3257 H 0.69846 0.9188 0.00903 0.0
H3258 H 0.72681 0.85976 0.03263 0.0
H3259 H 0.70455 0.8673 0.06741 0.0
H3260 H 0.77375 0.87674 0.01149 0.0
H3261 H 0.668 0.88477 0.96109 0.0
H3262 H 0.67629 0.90858 0.97578 0.0
H3263 H 0.66481 0.88408 0.98951 0.0
C3264 C 0.68592 0.91115 0.04106 0.0
C3265 C 0.68806 0.89711 0.05803 0.0
C3266 C 0.69895 0.907 0.02132 0.0
C3267 C 0.71388 0.88845 0.01781 0.0
C3268 C 0.7154 0.87415 0.03472 0.0
H3269 H 0.76754 0.85205 0.89267 0.0
H3270 H 0.74821 0.85337 0.92863 0.0
C3271 C 0.70266 0.87845 0.05462 0.0
C3272 C 0.72969 0.88493 0.997 0.0
H3273 H 0.71959 0.89013 0.94359 0.0
C3274 C 0.76171 0.8795 0.99667 0.0
C3275 C 0.71409 0.88804 0.97743 0.0
C3276 C 0.6788 0.89143 0.976 0.0
C3277 C 0.77876 0.87818 0.97751 0.0
C3278 C 0.76372 0.88275 0.95822 0.0
C3279 C 0.73149 0.88735 0.95847 0.0
C3280 C 0.77952 0.881 0.93727 0.0
C3281 C 0.81234 0.87132 0.97783 0.0
C3282 C 0.80416 0.89603 0.93006 0.0
C3283 C 0.8153 0.89553 0.90901 0.0
C3284 C 0.80183 0.88001 0.8949 0.0
C3285 C 0.77817 0.86458 0.9027 0.0
C3286 C 0.76714 0.86514 0.92346 0.0
H3287 H 0.82108 0.86878 0.99417 0.0
H3288 H 0.81265 0.85644 0.9688 0.0
H3289 H 0.82927 0.8833 0.96985 0.0
H3290 H 0.81405 0.90848 0.94049 0.0
H3291 H 0.83399 0.90739 0.90375 0.0
H3292 H 0.02496 0.85702 0.91322 0.0
H3293 H 0.04804 0.82459 0.90391 0.0
H3294 H 0.0459 0.84191 0.83785 0.0
H3295 H 0.02403 0.87502 0.84739 0.0
H3296 H 0.01641 0.79427 0.88124 0.0
H3297 H 0.13298 0.81964 0.84209 0.0
H3298 H 0.11118 0.83745 0.85735 0.0
H3299 H 0.0994 0.83111 0.83055 0.0
C3300 C 0.02999 0.85405 0.89674 0.0
C3301 C 0.02227 0.86821 0.88095 0.0
C3302 C 0.04315 0.83555 0.89144 0.0
C3303 C 0.04856 0.83074 0.87018 0.0
C3304 C 0.04235 0.84541 0.85439 0.0
H3305 H 0.08431 0.71137 0.81228 0.0
H3306 H 0.06599 0.74603 0.81946 0.0
C3307 C 0.02967 0.86424 0.85979 0.0
C3308 C 0.05764 0.80952 0.86472 0.0
H3309 H 0.11396 0.78331 0.83939 0.0
C3310 C 0.0378 0.79191 0.87212 0.0
C3311 C 0.08557 0.80645 0.85286 0.0
C3312 C 0.10869 0.82465 0.84542 0.0
C3313 C 0.04511 0.77135 0.86797 0.0
C3314 C 0.0728 0.76835 0.856 0.0
C3315 C 0.09255 0.78582 0.84842 0.0
C3316 C 0.08239 0.7471 0.85194 0.0
C3317 C 0.02332 0.75292 0.87641 0.0
C3318 C 0.09736 0.73634 0.86794 0.0
C3319 C 0.10792 0.71666 0.86391 0.0
C3320 C 0.10365 0.70741 0.84379 0.0
C3321 C 0.08799 0.71809 0.82791 0.0
C3322 C 0.07758 0.73786 0.83195 0.0
H3323 H 0.00075 0.75787 0.88334 0.0
H3324 H 0.01694 0.74138 0.8636 0.0
H3325 H 0.03625 0.74477 0.88888 0.0
H3326 H 0.10132 0.74334 0.88344 0.0
H3327 H 0.11986 0.70888 0.87652 0.0
H3328 H 0.41208 0.65689 0.13573 0.0
H3329 H 0.44664 0.68937 0.14091 0.0
H3330 H 0.51321 0.65527 0.1763 0.0
H3331 H 0.47822 0.62232 0.17059 0.0
H3332 H 0.50637 0.69237 0.1952 0.0
H3333 H 0.52644 0.7085 0.11006 0.0
H3334 H 0.48441 0.70669 0.11648 0.0
H3335 H 0.50647 0.68389 0.11942 0.0
C3336 C 0.43381 0.65626 0.14472 0.0
C3337 C 0.44198 0.63693 0.15268 0.0
C3338 C 0.45395 0.67492 0.14755 0.0
C3339 C 0.48304 0.675 0.15877 0.0
C3340 C 0.49101 0.65579 0.16748 0.0
H3341 H 0.6363 0.77661 0.14785 0.0
H3342 H 0.60089 0.74403 0.14692 0.0
C3343 C 0.47092 0.63692 0.16425 0.0
C3344 C 0.50476 0.69513 0.16128 0.0
H3345 H 0.54191 0.73687 0.13349 0.0
C3346 C 0.51446 0.70196 0.18167 0.0
C3347 C 0.51538 0.7079 0.14372 0.0
C3348 C 0.50789 0.70126 0.1212 0.0
C3349 C 0.53396 0.7211 0.18497 0.0
C3350 C 0.54404 0.73402 0.1674 0.0
C3351 C 0.53432 0.72715 0.14705 0.0
C3352 C 0.56627 0.75399 0.16934 0.0
C3353 C 0.54399 0.72703 0.20726 0.0
C3354 C 0.55925 0.77072 0.18251 0.0
C3355 C 0.5799 0.78958 0.18326 0.0
C3356 C 0.60766 0.7924 0.17041 0.0
C3357 C 0.61491 0.77541 0.15766 0.0
C3358 C 0.59454 0.75661 0.1571 0.0
H3359 H 0.54189 0.71313 0.21798 0.0
H3360 H 0.56921 0.73446 0.20778 0.0
H3361 H 0.52792 0.73847 0.21343 0.0
H3362 H 0.53742 0.76945 0.19187 0.0
H3363 H 0.57346 0.80221 0.19333 0.0
H3364 H 0.07472 0.33945 0.61168 0.0
H3365 H 0.05089 0.30281 0.61102 0.0
H3366 H 0.02162 0.30846 0.67579 0.0
H3367 H 0.04846 0.34485 0.6769 0.0
H3368 H 0.05666 0.26214 0.64598 0.0
H3369 H 0.94245 0.29145 0.62393 0.0
H3370 H 0.98022 0.30463 0.61465 0.0
H3371 H 0.9683 0.30761 0.64163 0.0
C3372 C 0.06475 0.33259 0.62611 0.0
C3373 C 0.0653 0.345 0.64454 0.0
C3374 C 0.05071 0.31154 0.62568 0.0
C3375 C 0.03563 0.30206 0.64364 0.0
C3376 C 0.03437 0.31478 0.6619 0.0
H3377 H 0.87942 0.20603 0.66214 0.0
H3378 H 0.919 0.23603 0.64642 0.0
C3379 C 0.04927 0.33584 0.66245 0.0
C3380 C 0.0171 0.28027 0.64228 0.0
H3381 H 0.95047 0.25512 0.62083 0.0
C3382 C 0.03089 0.26125 0.64685 0.0
C3383 C 0.98566 0.27773 0.63447 0.0
C3384 C 0.96793 0.2963 0.62829 0.0
C3385 C 0.0115 0.24243 0.65628 0.0
C3386 C 0.98503 0.2394 0.63966 0.0
C3387 C 0.97208 0.25721 0.6305 0.0
C3388 C 0.96474 0.21917 0.63493 0.0
C3389 C 0.01803 0.22433 0.69864 0.0
C3390 C 0.98518 0.1974 0.63185 0.0
C3391 C 0.96841 0.1721 0.64197 0.0
C3392 C 0.91101 0.17644 0.65829 0.0
C3393 C 0.90237 0.20177 0.65642 0.0
C3394 C 0.92745 0.22059 0.64536 0.0
H3395 H 0.04184 0.22502 0.70739 0.0
H3396 H 0.00453 0.22985 0.71278 0.0
H3397 H 0.01123 0.20709 0.70236 0.0
H3398 H 0.98032 0.183 0.636 0.0
H3399 H 0.98048 0.15555 0.6405 0.0
H3400 H 0.93359 0.60976 0.87785 0.0
H3401 H 0.90843 0.6421 0.8695 0.0
H3402 H -0.00014 0.67885 0.87819 0.0
H3403 H 0.02507 0.64718 0.8866 0.0
H3404 H 0.93088 0.6877 0.90266 0.0
H3405 H 0.94151 0.68678 0.81469 0.0
H3406 H 0.93198 0.66273 0.82956 0.0
H3407 H 0.97173 0.67618 0.83098 0.0
C3408 C 0.94842 0.62469 0.87769 0.0
C3409 C 0.98143 0.62576 0.88281 0.0
C3410 C 0.93398 0.64309 0.87303 0.0
C3411 C 0.95243 0.66269 0.87337 0.0
C3412 C 0.98534 0.66379 0.87794 0.0
H3413 H 0.92921 0.78953 0.83426 0.0
H3414 H 0.95045 0.75682 0.84561 0.0
C3415 C 0.99969 0.64556 0.88266 0.0
C3416 C 0.93778 0.68239 0.86943 0.0
H3417 H 0.92402 0.71714 0.8302 0.0
C3418 C 0.92894 0.69411 0.88684 0.0
C3419 C 0.93598 0.69066 0.8488 0.0
C3420 C 0.94573 0.67854 0.82981 0.0
C3421 C 0.91857 0.71421 0.88411 0.0
C3422 C 0.9169 0.72255 0.86343 0.0
C3423 C 0.92553 0.71069 0.84603 0.0
C3424 C 0.90543 0.74331 0.85926 0.0
C3425 C 0.91035 0.72659 0.90332 0.0
C3426 C 0.87338 0.74662 0.86364 0.0
C3427 C 0.86123 0.76521 0.85723 0.0
C3428 C 0.88088 0.78072 0.84615 0.0
C3429 C 0.91344 0.77779 0.84263 0.0
C3430 C 0.92558 0.75915 0.84908 0.0
H3431 H 0.92028 0.72022 0.91807 0.0
H3432 H 0.91971 0.74343 0.90166 0.0
H3433 H 0.88374 0.72576 0.90498 0.0
H3434 H 0.85737 0.73447 0.87125 0.0
H3435 H 0.8361 0.76707 0.86034 0.0
H3436 H 0.37384 0.28102 0.37903 0.0
H3437 H 0.39202 0.2463 0.38537 0.0
H3438 H 0.43314 0.24697 0.32271 0.0
H3439 H 0.41582 0.28195 0.31641 0.0
H3440 H 0.37483 0.20988 0.36413 0.0
H3441 H 0.50712 0.2309 0.35881 0.0
H3442 H 0.4789 0.25048 0.36117 0.0
H3443 H 0.48543 0.2386 0.33598 0.0
C3444 C 0.38703 0.27388 0.36666 0.0
C3445 C 0.39342 0.28421 0.34721 0.0
C3446 C 0.39731 0.25402 0.37029 0.0
C3447 C 0.41412 0.24415 0.35456 0.0
C3448 C 0.42073 0.25449 0.3352 0.0
H3449 H 0.46278 0.11294 0.35311 0.0
H3450 H 0.43857 0.14536 0.34306 0.0
C3451 C 0.4107 0.27443 0.3316 0.0
C3452 C 0.42381 0.22277 0.35825 0.0
H3453 H 0.48911 0.19451 0.36068 0.0
C3454 C 0.39979 0.20648 0.36325 0.0
C3455 C 0.45645 0.21848 0.35734 0.0
C3456 C 0.48351 0.23556 0.35325 0.0
C3457 C 0.40761 0.18597 0.3674 0.0
C3458 C 0.44011 0.18171 0.36623 0.0
C3459 C 0.4641 0.1979 0.36111 0.0
C3460 C 0.45043 0.16121 0.37268 0.0
C3461 C 0.38144 0.16912 0.37376 0.0
C3462 C 0.46428 0.15947 0.39269 0.0
C3463 C 0.47826 0.14133 0.39824 0.0
C3464 C 0.47866 0.1246 0.3839 0.0
C3465 C 0.46299 0.12575 0.36431 0.0
C3466 C 0.4492 0.14415 0.35861 0.0
H3467 H 0.35716 0.17493 0.37365 0.0
H3468 H 0.38134 0.15552 0.36284 0.0
H3469 H 0.38644 0.16335 0.38992 0.0
H3470 H 0.46511 0.17243 0.40378 0.0
H3471 H 0.48922 0.14054 0.41369 0.0
H3472 H 0.94554 0.13544 0.67905 0.0
H3473 H 0.96963 0.17302 0.6939 0.0
H3474 H 0.92672 0.1972 0.61379 0.0
H3475 H 0.91228 0.15427 0.60997 0.0
H3476 H 0.02816 0.19351 0.66053 0.0
H3477 H 0.94266 0.24985 0.70621 0.0
H3478 H 0.92497 0.22764 0.69088 0.0
H3479 H 0.93182 0.25383 0.67924 0.0
C3480 C 0.94358 0.14876 0.66866 0.0
C3481 C 0.92614 0.14311 0.64457 0.0
C3482 C 0.95767 0.17255 0.67869 0.0
C3483 C 0.95623 0.19552 0.66476 0.0
C3484 C 0.9294 0.18739 0.62779 0.0
H3485 H 0.14404 0.28612 0.65753 0.0
H3486 H 0.10555 0.25694 0.66063 0.0
C3487 C 0.91963 0.16066 0.62509 0.0
C3488 C 0.98209 0.21325 0.67235 0.0
H3489 H 0.00268 0.27289 0.69555 0.0
C3490 C 0.02275 0.2088 0.66607 0.0
C3491 C 0.97431 0.23826 0.68355 0.0
C3492 C 0.9413 0.24243 0.69034 0.0
C3493 C 0.05523 0.22776 0.67143 0.0
C3494 C 0.04846 0.25252 0.68348 0.0
C3495 C 0.00756 0.2579 0.68902 0.0
C3496 C 0.07577 0.26964 0.68501 0.0
C3497 C 0.08787 0.21987 0.67007 0.0
C3498 C 0.07297 0.28787 0.69695 0.0
C3499 C 0.09502 0.30577 0.69409 0.0
C3500 C 0.1204 0.30565 0.67931 0.0
C3501 C 0.12461 0.28701 0.66877 0.0
C3502 C 0.10266 0.26948 0.67143 0.0
H3503 H 0.08583 0.20265 0.6731 0.0
H3504 H 0.09749 0.22235 0.65379 0.0
H3505 H 0.10467 0.22776 0.68185 0.0
H3506 H 0.053 0.28875 0.70772 0.0
H3507 H 0.09148 0.31987 0.70292 0.0
H3508 H 0.42341 0.68973 0.19322 0.0
H3509 H 0.45882 0.72286 0.19223 0.0
H3510 H 0.402 0.74541 0.14155 0.0
H3511 H 0.36616 0.71304 0.14286 0.0
H3512 H 0.46612 0.75107 0.13237 0.0
H3513 H 0.44507 0.78139 0.21288 0.0
H3514 H 0.4591 0.75567 0.21203 0.0
H3515 H 0.41998 0.75958 0.20159 0.0
C3516 C 0.41831 0.70178 0.18193 0.0
C3517 C 0.39216 0.69826 0.16775 0.0
C3518 C 0.43865 0.72079 0.18139 0.0
C3519 C 0.4334 0.73673 0.16668 0.0
C3520 C 0.40697 0.73337 0.15289 0.0
H3521 H 0.5122 0.86974 0.16289 0.0
H3522 H 0.47871 0.83615 0.16818 0.0
C3523 C 0.38648 0.71462 0.15359 0.0
C3524 C 0.45544 0.75677 0.16501 0.0
H3525 H 0.48373 0.80148 0.19175 0.0
C3526 C 0.46991 0.76208 0.14538 0.0
C3527 C 0.46048 0.77129 0.1819 0.0
C3528 C 0.44518 0.76685 0.20326 0.0
C3529 C 0.4887 0.78142 0.14204 0.0
C3530 C 0.49395 0.79597 0.15896 0.0
C3531 C 0.47969 0.79057 0.17868 0.0
C3532 C 0.51454 0.81661 0.15659 0.0
C3533 C 0.50182 0.78619 0.12011 0.0
C3534 C 0.54619 0.81713 0.14893 0.0
C3535 C 0.56561 0.83619 0.14676 0.0
C3536 C 0.55389 0.85556 0.15119 0.0
C3537 C 0.52225 0.85518 0.15918 0.0
C3538 C 0.50298 0.83591 0.16213 0.0
H3539 H 0.48693 0.77735 0.10787 0.0
H3540 H 0.50282 0.80325 0.11635 0.0
H3541 H 0.52655 0.78121 0.11906 0.0
H3542 H 0.55608 0.80271 0.14458 0.0
H3543 H 0.58978 0.83585 0.14114 0.0
H3544 H 0.57273 0.38964 0.74233 0.0
H3545 H 0.58409 0.42539 0.72776 0.0
H3546 H 0.67563 0.43174 0.7603 0.0
H3547 H 0.66523 0.39579 0.77372 0.0
H3548 H 0.59895 0.46558 0.74205 0.0
H3549 H 0.7024 0.43764 0.69927 0.0
H3550 H 0.67314 0.42003 0.7131 0.0
H3551 H 0.70599 0.43412 0.7273 0.0
C3552 C 0.59532 0.39872 0.7462 0.0
C3553 C 0.61875 0.3898 0.75836 0.0
C3554 C 0.60161 0.41914 0.73811 0.0
C3555 C 0.6311 0.43094 0.74252 0.0
C3556 C 0.65321 0.42261 0.75616 0.0
H3557 H 0.73079 0.53857 0.67736 0.0
H3558 H 0.71287 0.51589 0.70758 0.0
C3559 C 0.64737 0.40207 0.76369 0.0
C3560 C 0.64043 0.45094 0.73123 0.0
H3561 H 0.69825 0.47411 0.69836 0.0
C3562 C 0.62079 0.46756 0.73262 0.0
C3563 C 0.66844 0.45327 0.71847 0.0
C3564 C 0.68848 0.43524 0.71422 0.0
C3565 C 0.62866 0.48656 0.72163 0.0
C3566 C 0.6574 0.48906 0.70951 0.0
C3567 C 0.67702 0.4725 0.70839 0.0
C3568 C 0.66527 0.50684 0.6948 0.0
C3569 C 0.60548 0.50328 0.72263 0.0
C3570 C 0.64436 0.50936 0.67791 0.0
C3571 C 0.65469 0.52177 0.6607 0.0
C3572 C 0.68613 0.53216 0.65997 0.0
C3573 C 0.70657 0.53067 0.67743 0.0
C3574 C 0.69621 0.51795 0.69474 0.0
H3575 H 0.59575 0.50441 0.73891 0.0
H3576 H 0.6166 0.51901 0.71765 0.0
H3577 H 0.5847 0.49872 0.71204 0.0
H3578 H 0.6208 0.50052 0.67728 0.0
H3579 H 0.63826 0.52232 0.64749 0.0
H3580 H 0.75556 0.42553 0.04317 0.0
H3581 H 0.72453 0.42224 0.01043 0.0
H3582 H 0.71547 0.35485 0.01701 0.0
H3583 H 0.74776 0.35808 0.04991 0.0
H3584 H 0.76264 0.38866 0.94439 0.0
H3585 H 0.623 0.36802 0.99794 0.0
H3586 H 0.64313 0.39257 0.00787 0.0
H3587 H 0.65793 0.36804 0.01481 0.0
C3588 C 0.74765 0.40988 0.03747 0.0
C3589 C 0.75638 0.392 0.04852 0.0
C3590 C 0.72961 0.408 0.0186 0.0
C3591 C 0.72049 0.38811 0.00959 0.0
C3592 C 0.72484 0.37036 0.02234 0.0
H3593 H 0.63455 0.32746 0.88271 0.0
H3594 H 0.64298 0.33552 0.92048 0.0
C3595 C 0.74349 0.37216 0.04117 0.0
C3596 C 0.70888 0.3855 0.98611 0.0
H3597 H 0.62597 0.36813 0.95829 0.0
C3598 C 0.73732 0.38576 0.94916 0.0
C3599 C 0.66806 0.37864 0.98298 0.0
C3600 C 0.64663 0.37661 0.00196 0.0
C3601 C 0.71118 0.37912 0.92963 0.0
C3602 C 0.67129 0.37308 0.93454 0.0
C3603 C 0.65168 0.37268 0.95868 0.0
C3604 C 0.65282 0.36902 0.91523 0.0
C3605 C 0.72518 0.37564 0.9082 0.0
C3606 C 0.65514 0.38522 0.9001 0.0
C3607 C 0.65138 0.38071 0.87886 0.0
C3608 C 0.64515 0.35992 0.87247 0.0
C3609 C 0.64022 0.34367 0.88757 0.0
C3610 C 0.64398 0.34826 0.90905 0.0
H3611 H 0.75179 0.37572 0.90904 0.0
H3612 H 0.71466 0.36038 0.90166 0.0
H3613 H 0.7194 0.38823 0.89723 0.0
H3614 H 0.66353 0.40114 0.90436 0.0
H3615 H 0.65493 0.39335 0.86737 0.0
H3616 H 0.83634 0.60542 0.24425 0.0
H3617 H 0.82659 0.57099 0.22704 0.0
H3618 H 0.91748 0.55363 0.25061 0.0
H3619 H 0.9277 0.58792 0.26769 0.0
H3620 H 0.87896 0.55346 0.19684 0.0
H3621 H 0.8385 0.50588 0.26777 0.0
H3622 H 0.83449 0.53379 0.26626 0.0
H3623 H 0.87359 0.52483 0.26968 0.0
C3624 C 0.85422 0.59427 0.24576 0.0
C3625 C 0.88283 0.59936 0.25716 0.0
C3626 C 0.84861 0.57469 0.23598 0.0
C3627 C 0.87132 0.55998 0.23777 0.0
C3628 C 0.89975 0.5649 0.24923 0.0
H3629 H 0.87211 0.44471 0.16542 0.0
H3630 H 0.88791 0.47214 0.19136 0.0
C3631 C 0.90553 0.58449 0.25884 0.0
C3632 C 0.86562 0.53964 0.22706 0.0
H3633 H 0.83841 0.48808 0.23521 0.0
C3634 C 0.87027 0.53911 0.20516 0.0
C3635 C 0.85468 0.52111 0.23821 0.0
C3636 C 0.84986 0.52124 0.26181 0.0
C3637 C 0.86329 0.5204 0.19391 0.0
C3638 C 0.85116 0.50202 0.20496 0.0
C3639 C 0.84748 0.50238 0.22695 0.0
C3640 C 0.84034 0.48275 0.19344 0.0
C3641 C 0.86799 0.52043 0.17023 0.0
C3642 C 0.80806 0.47923 0.187 0.0
C3643 C 0.79887 0.46349 0.17233 0.0
C3644 C 0.82209 0.45139 0.1639 0.0
C3645 C 0.85384 0.45392 0.17169 0.0
C3646 C 0.86292 0.46952 0.18645 0.0
H3647 H 0.87828 0.53602 0.16415 0.0
H3648 H 0.88443 0.50848 0.16582 0.0
H3649 H 0.84451 0.51608 0.16229 0.0
H3650 H 0.79053 0.48955 0.19225 0.0
H3651 H 0.77437 0.46198 0.16636 0.0
H3652 H 0.85313 0.67555 0.38282 0.0
H3653 H 0.84791 0.6803 0.42121 0.0
H3654 H 0.82939 0.61317 0.42881 0.0
H3655 H 0.8283 0.60865 0.39043 0.0
H3656 H 0.78613 0.66392 0.44141 0.0
H3657 H 0.89361 0.64635 0.45425 0.0
H3658 H 0.87729 0.61918 0.454 0.0
H3659 H 0.89096 0.63133 0.47855 0.0
C3660 C 0.84762 0.66183 0.3928 0.0
C3661 C 0.84129 0.64165 0.38387 0.0
C3662 C 0.84499 0.66457 0.41464 0.0
C3663 C 0.83776 0.64703 0.42777 0.0
C3664 C 0.83351 0.62687 0.41886 0.0
H3665 H 0.75905 0.57504 0.54229 0.0
H3666 H 0.77395 0.59563 0.52416 0.0
C3667 C 0.83349 0.62428 0.39701 0.0
C3668 C 0.82869 0.64944 0.45009 0.0
H3669 H 0.84205 0.62798 0.49826 0.0
C3670 C 0.79874 0.65681 0.45418 0.0
C3671 C 0.8454 0.64029 0.46654 0.0
C3672 C 0.87881 0.63396 0.46327 0.0
C3673 C 0.78331 0.65299 0.47372 0.0
C3674 C 0.79863 0.64164 0.48944 0.0
C3675 C 0.83002 0.63625 0.48601 0.0
C3676 C 0.78128 0.63231 0.50798 0.0
C3677 C 0.74953 0.65916 0.47632 0.0
C3678 C 0.75978 0.64769 0.52535 0.0
C3679 C 0.73948 0.63591 0.54794 0.0
C3680 C 0.73958 0.6085 0.55293 0.0
C3681 C 0.76141 0.59253 0.5361 0.0
C3682 C 0.78394 0.60514 0.51315 0.0
H3683 H 0.73965 0.66499 0.46131 0.0
H3684 H 0.73314 0.64554 0.48185 0.0
H3685 H 0.74953 0.67195 0.48814 0.0
H3686 H 0.76013 0.66448 0.52293 0.0
H3687 H 0.72872 0.64587 0.55921 0.0
H3688 H 0.67341 0.50323 0.86164 0.0
H3689 H 0.66667 0.52253 0.82846 0.0
H3690 H 0.56732 0.49639 0.82538 0.0
H3691 H 0.57342 0.47857 0.85918 0.0
H3692 H 0.65548 0.51572 0.78999 0.0
H3693 H 0.54885 0.55386 0.81594 0.0
H3694 H 0.5708 0.53863 0.8339 0.0
H3695 H 0.54064 0.52582 0.81646 0.0
C3696 C 0.65004 0.50178 0.85398 0.0
C3697 C 0.62383 0.48965 0.86348 0.0
C3698 C 0.64613 0.51283 0.83484 0.0
C3699 C 0.61604 0.51181 0.82432 0.0
C3700 C 0.59041 0.49863 0.83331 0.0
H3701 H 0.55355 0.57382 0.70627 0.0
H3702 H 0.5614 0.54665 0.73321 0.0
C3703 C 0.59404 0.48815 0.85271 0.0
C3704 C 0.61162 0.5244 0.80415 0.0
H3705 H 0.56214 0.55717 0.7796 0.0
C3706 C 0.63502 0.5248 0.78795 0.0
C3707 C 0.58507 0.53655 0.80088 0.0
C3708 C 0.56015 0.53889 0.81781 0.0
C3709 C 0.63284 0.53682 0.76916 0.0
C3710 C 0.6061 0.54862 0.7659 0.0
C3711 C 0.58237 0.5479 0.78175 0.0
C3712 C 0.60366 0.56348 0.74739 0.0
C3713 C 0.65974 0.53682 0.7532 0.0
C3714 C 0.62492 0.58194 0.7459 0.0
C3715 C 0.62007 0.59758 0.73081 0.0
C3716 C 0.59438 0.59511 0.71619 0.0
C3717 C 0.57408 0.57609 0.71683 0.0
C3718 C 0.57841 0.5606 0.73242 0.0
H3719 H 0.66753 0.52074 0.75159 0.0
H3720 H 0.65295 0.54247 0.73736 0.0
H3721 H 0.6808 0.54724 0.75897 0.0
H3722 H 0.64438 0.5848 0.75722 0.0
H3723 H 0.63575 0.61215 0.73119 0.0
H3724 H 0.88005 0.35422 0.07182 0.0
H3725 H 0.85235 0.36574 0.04127 0.0
H3726 H 0.88663 0.31614 0.00449 0.0
H3727 H 0.91212 0.30289 0.03698 0.0
H3728 H 0.87659 0.3729 0.98986 0.0
H3729 H 0.78009 0.31474 0.0214 0.0
H3730 H 0.80815 0.32642 0.04053 0.0
H3731 H 0.82169 0.3092 0.02064 0.0
C3732 C 0.88188 0.34604 0.0573 0.0
C3733 C 0.89671 0.32765 0.05682 0.0
C3734 C 0.868 0.35343 0.03952 0.0
C3735 C 0.86982 0.3431 0.02033 0.0
C3736 C 0.88639 0.32495 0.0191 0.0
H3737 H 0.68938 0.34645 0.95757 0.0
H3738 H 0.74469 0.34185 0.97519 0.0
C3739 C 0.90022 0.31722 0.03754 0.0
C3740 C 0.84562 0.34832 0.00499 0.0
H3741 H 0.76512 0.34617 0.00794 0.0
C3742 C 0.8518 0.3666 0.99256 0.0
C3743 C 0.81367 0.34063 0.0096 0.0
C3744 C 0.80541 0.3216 0.02369 0.0
C3745 C 0.82638 0.37749 0.98471 0.0
C3746 C 0.79432 0.3705 0.99062 0.0
C3747 C 0.78905 0.35225 0.00326 0.0
C3748 C 0.76504 0.3784 0.98114 0.0
C3749 C 0.83433 0.39617 0.97037 0.0
C3750 C 0.76039 0.405 0.9785 0.0
C3751 C 0.72821 0.41635 0.96766 0.0
C3752 C 0.69486 0.40121 0.9573 0.0
C3753 C 0.70365 0.36108 0.9622 0.0
C3754 C 0.73869 0.35789 0.9737 0.0
H3755 H 0.85908 0.39643 0.96379 0.0
H3756 H 0.81702 0.39608 0.95704 0.0
H3757 H 0.83311 0.41086 0.97953 0.0
H3758 H 0.77956 0.41592 0.98464 0.0
H3759 H 0.72917 0.43334 0.967 0.0
H3760 H 0.85725 0.52538 0.33279 0.0
H3761 H 0.86359 0.5031 0.30187 0.0
H3762 H 0.8987 0.45574 0.34221 0.0
H3763 H 0.89012 0.47746 0.37328 0.0
H3764 H 0.90956 0.48958 0.28235 0.0
H3765 H 0.83745 0.41784 0.31032 0.0
H3766 H 0.83833 0.4424 0.32436 0.0
H3767 H 0.86942 0.42502 0.32863 0.0
C3768 C 0.86574 0.51001 0.33503 0.0
C3769 C 0.87249 0.50294 0.35548 0.0
C3770 C 0.86959 0.49728 0.31727 0.0
C3771 C 0.88087 0.47726 0.31936 0.0
C3772 C 0.88861 0.47056 0.33991 0.0
H3773 H 0.94411 0.38312 0.23229 0.0
H3774 H 0.93446 0.40607 0.26226 0.0
C3775 C 0.88396 0.48308 0.35775 0.0
C3776 C 0.88532 0.46379 0.30011 0.0
H3777 H 0.87253 0.41333 0.28103 0.0
C3778 C 0.90117 0.47295 0.28212 0.0
C3779 C 0.874 0.44204 0.29923 0.0
C3780 C 0.85353 0.43134 0.31657 0.0
C3781 C 0.90694 0.46099 0.26394 0.0
C3782 C 0.89708 0.43908 0.26361 0.0
C3783 C 0.88077 0.42999 0.28135 0.0
C3784 C 0.90327 0.4253 0.24505 0.0
C3785 C 0.92406 0.47186 0.2453 0.0
C3786 C 0.88869 0.42812 0.2253 0.0
C3787 C 0.89401 0.4149 0.20814 0.0
C3788 C 0.91413 0.39844 0.21015 0.0
C3789 C 0.92855 0.39557 0.23 0.0
C3790 C 0.92305 0.40874 0.24722 0.0
H3791 H 0.93568 0.48773 0.24949 0.0
H3792 H 0.9427 0.46227 0.23899 0.0
H3793 H 0.90633 0.4738 0.2325 0.0
H3794 H 0.87279 0.44041 0.22322 0.0
H3795 H 0.88216 0.41755 0.19326 0.0
H3796 H 0.78571 0.59643 0.4397 0.0
H3797 H 0.748 0.6122 0.46286 0.0
H3798 H 0.7454 0.5581 0.50398 0.0
H3799 H 0.78567 0.54305 0.4814 0.0
H3800 H 0.68591 0.57902 0.48268 0.0
H3801 H 0.78862 0.62836 0.56092 0.0
H3802 H 0.80783 0.6389 0.54011 0.0
H3803 H 0.80878 0.61351 0.54544 0.0
C3804 C 0.77849 0.58837 0.45415 0.0
C3805 C 0.79058 0.56918 0.45933 0.0
C3806 C 0.7562 0.59721 0.46723 0.0
C3807 C 0.74479 0.58696 0.48585 0.0
C3808 C 0.75449 0.56674 0.49011 0.0
H3809 H 0.64874 0.63518 0.57936 0.0
H3810 H 0.67984 0.63022 0.55285 0.0
C3811 C 0.77747 0.55809 0.47714 0.0
C3812 C 0.72263 0.59777 0.50073 0.0
H3813 H 0.70212 0.64358 0.52141 0.0
C3814 C 0.69038 0.59163 0.49417 0.0
C3815 C 0.73151 0.6153 0.51717 0.0
C3816 C 0.78972 0.62486 0.5434 0.0
C3817 C 0.6637 0.60144 0.5008 0.0
C3818 C 0.66897 0.61896 0.51375 0.0
C3819 C 0.7018 0.62725 0.51666 0.0
C3820 C 0.64342 0.62611 0.52906 0.0
C3821 C 0.6314 0.59533 0.4906 0.0
C3822 C 0.60926 0.62675 0.52677 0.0
C3823 C 0.58909 0.63049 0.54485 0.0
C3824 C 0.60234 0.63292 0.56568 0.0
C3825 C 0.63557 0.63265 0.56602 0.0
C3826 C 0.65502 0.63038 0.54911 0.0
H3827 H 0.62497 0.60859 0.48053 0.0
H3828 H 0.63153 0.58112 0.48051 0.0
H3829 H 0.61209 0.59232 0.50242 0.0
H3830 H 0.59802 0.6246 0.51143 0.0
H3831 H 0.56342 0.63086 0.54256 0.0
H3832 H 0.63515 0.66541 0.58244 0.0
H3833 H 0.59226 0.68609 0.59045 0.0
H3834 H 0.65016 0.70387 0.64733 0.0
H3835 H 0.68246 0.67217 0.64257 0.0
H3836 H 0.55382 0.69981 0.60423 0.0
H3837 H 0.63074 0.75786 0.64764 0.0
H3838 H 0.64696 0.73658 0.63419 0.0
H3839 H 0.62998 0.73295 0.66047 0.0
C3840 C 0.63028 0.6659 0.59895 0.0
C3841 C 0.65363 0.65815 0.61516 0.0
C3842 C 0.60707 0.68189 0.60353 0.0
C3843 C 0.61072 0.69558 0.62329 0.0
C3844 C 0.64006 0.69159 0.63753 0.0
H3845 H 0.47228 0.79804 0.66503 0.0
H3846 H 0.51078 0.76492 0.66482 0.0
C3847 C 0.66043 0.67315 0.63362 0.0
C3848 C 0.5876 0.71364 0.62596 0.0
H3849 H 0.57904 0.76451 0.63958 0.0
C3850 C 0.55654 0.71159 0.61625 0.0
C3851 C 0.59485 0.73345 0.63589 0.0
C3852 C 0.62749 0.74059 0.64491 0.0
C3853 C 0.52729 0.72041 0.62537 0.0
C3854 C 0.53963 0.74322 0.62771 0.0
C3855 C 0.57181 0.74841 0.63482 0.0
C3856 C 0.52024 0.76218 0.62575 0.0
C3857 C 0.4657 0.69654 0.63724 0.0
C3858 C 0.51307 0.77564 0.6011 0.0
C3859 C 0.49093 0.79882 0.60129 0.0
C3860 C 0.47465 0.80747 0.6264 0.0
C3861 C 0.48153 0.79321 0.65002 0.0
C3862 C 0.50432 0.77139 0.64981 0.0
H3863 H 0.46016 0.67914 0.63382 0.0
H3864 H 0.45716 0.69508 0.65423 0.0
H3865 H 0.44161 0.70086 0.63121 0.0
H3866 H 0.52257 0.77018 0.58642 0.0
H3867 H 0.487 0.8072 0.58674 0.0
H3868 H 0.3867 0.56043 0.1885 0.0
H3869 H 0.39627 0.53443 0.21541 0.0
H3870 H 0.40966 0.58373 0.26177 0.0
H3871 H 0.40124 0.60989 0.23426 0.0
H3872 H 0.43827 0.52363 0.24097 0.0
H3873 H 0.33967 0.54824 0.29093 0.0
H3874 H 0.34777 0.55889 0.26484 0.0
H3875 H 0.3715 0.56894 0.28712 0.0
C3876 C 0.3923 0.56578 0.20419 0.0
C3877 C 0.39247 0.58727 0.20887 0.0
C3878 C 0.39743 0.55081 0.21984 0.0
C3879 C 0.40215 0.55664 0.24111 0.0
C3880 C 0.40457 0.57838 0.24578 0.0
H3881 H 0.45824 0.47418 0.34237 0.0
H3882 H 0.45556 0.4995 0.3135 0.0
C3883 C 0.39987 0.59346 0.2299 0.0
C3884 C 0.40343 0.53984 0.25804 0.0
H3885 H 0.36943 0.52171 0.30502 0.0
C3886 C 0.42322 0.52338 0.25497 0.0
C3887 C 0.38326 0.53878 0.27625 0.0
C3888 C 0.35909 0.55451 0.27992 0.0
C3889 C 0.42383 0.50649 0.26951 0.0
C3890 C 0.40458 0.50596 0.28802 0.0
C3891 C 0.38445 0.52212 0.291 0.0
C3892 C 0.40624 0.48937 0.30492 0.0
C3893 C 0.44464 0.48904 0.26479 0.0
C3894 C 0.37945 0.47491 0.30996 0.0
C3895 C 0.38099 0.46022 0.32665 0.0
C3896 C 0.40912 0.46004 0.33898 0.0
C3897 C 0.43597 0.47417 0.33356 0.0
C3898 C 0.43457 0.48859 0.31684 0.0
H3899 H 0.4528 0.48939 0.24805 0.0
H3900 H 0.46629 0.49073 0.27511 0.0
H3901 H 0.43129 0.47344 0.26814 0.0
H3902 H 0.35727 0.47508 0.30107 0.0
H3903 H 0.35999 0.44942 0.33025 0.0
H3904 H 0.24878 0.58854 0.11777 0.0
H3905 H 0.21687 0.56759 0.09139 0.0
H3906 H 0.18158 0.62408 0.06693 0.0
H3907 H 0.21387 0.64504 0.09308 0.0
H3908 H 0.13393 0.57775 0.07104 0.0
H3909 H 0.24839 0.58105 0.02645 0.0
H3910 H 0.24806 0.57852 0.05481 0.0
H3911 H 0.24112 0.60333 0.04293 0.0
C3912 C 0.23429 0.59653 0.10693 0.0
C3913 C 0.23487 0.61859 0.10732 0.0
C3914 C 0.21549 0.58445 0.092 0.0
C3915 C 0.19637 0.59418 0.07727 0.0
C3916 C 0.19567 0.6161 0.07829 0.0
H3917 H 0.13573 0.59315 0.95289 0.0
H3918 H 0.1573 0.59618 0.98866 0.0
C3919 C 0.21451 0.6281 0.09314 0.0
C3920 C 0.1821 0.5825 0.05847 0.0
H3921 H 0.20215 0.57215 0.00743 0.0
C3922 C 0.14887 0.57606 0.05724 0.0
C3923 C 0.20141 0.57987 0.04057 0.0
C3924 C 0.23692 0.586 0.04113 0.0
C3925 C 0.13463 0.56819 0.0381 0.0
C3926 C 0.154 0.56737 0.01973 0.0
C3927 C 0.18725 0.57272 0.02146 0.0
C3928 C 0.14036 0.56444 0.99796 0.0
C3929 C 0.09891 0.56167 0.03732 0.0
C3930 C 0.12432 0.54529 0.99091 0.0
C3931 C 0.11133 0.54363 0.97029 0.0
C3932 C 0.11445 0.56105 0.95643 0.0
C3933 C 0.13235 0.5796 0.9632 0.0
C3934 C 0.14483 0.58134 0.98368 0.0
H3935 H 0.08686 0.56436 0.05261 0.0
H3936 H 0.0875 0.57044 0.02461 0.0
H3937 H 0.0948 0.54465 0.0335 0.0
H3938 H 0.12134 0.5318 0.0014 0.0
H3939 H 0.09759 0.52913 0.96569 0.0
H3940 H 0.05015 0.5158 0.84481 0.0
H3941 H 0.05482 0.49144 0.81568 0.0
H3942 H 0.14787 0.52336 0.79994 0.0
H3943 H 0.14388 0.5471 0.83027 0.0
H3944 H 0.05719 0.49309 0.77608 0.0
H3945 H 0.17326 0.46565 0.80065 0.0
H3946 H 0.15175 0.48249 0.81712 0.0
H3947 H 0.17721 0.4935 0.79597 0.0
C3948 C 0.0721 0.51725 0.8356 0.0
C3949 C 0.09731 0.53278 0.84056 0.0
C3950 C 0.07453 0.50347 0.81858 0.0
C3951 C 0.10216 0.50488 0.8057 0.0
C3952 C 0.12678 0.52118 0.80998 0.0
H3953 H 0.16462 0.43693 0.69717 0.0
H3954 H 0.15556 0.46065 0.72611 0.0
C3955 C 0.12439 0.53496 0.82722 0.0
C3956 C 0.10477 0.48928 0.788 0.0
H3957 H 0.15431 0.45521 0.76656 0.0
C3958 C 0.07849 0.4848 0.7741 0.0
C3959 C 0.13208 0.47789 0.78539 0.0
C3960 C 0.15999 0.47993 0.80072 0.0
C3961 C 0.07897 0.46983 0.75767 0.0
C3962 C 0.10694 0.45917 0.75453 0.0
C3963 C 0.13303 0.46352 0.76854 0.0
C3964 C 0.1108 0.4442 0.73651 0.0
C3965 C 0.04913 0.46578 0.74415 0.0
C3966 C 0.08909 0.42619 0.73286 0.0
C3967 C 0.09469 0.41204 0.71647 0.0
C3968 C 0.12165 0.41585 0.70308 0.0
C3969 C 0.14309 0.43382 0.7067 0.0
C3970 C 0.13801 0.44746 0.72338 0.0
H3971 H 0.03137 0.45473 0.75269 0.0
H3972 H 0.03772 0.4806 0.74146 0.0
H3973 H 0.05382 0.4588 0.72859 0.0
H3974 H 0.06838 0.42272 0.74307 0.0
H3975 H 0.07842 0.39785 0.71457 0.0
H3976 H 0.2659 0.40738 0.6215 0.0
H3977 H 0.2911 0.42974 0.59327 0.0
H3978 H 0.31141 0.37418 0.55918 0.0
H3979 H 0.28592 0.35191 0.58744 0.0
H3980 H 0.3652 0.40925 0.56422 0.0
H3981 H 0.25922 0.44632 0.54009 0.0
H3982 H 0.25529 0.42668 0.56069 0.0
H3983 H 0.24972 0.41945 0.53341 0.0
C3984 C 0.27512 0.39998 0.60787 0.0
C3985 C 0.27272 0.37792 0.60641 0.0
C3986 C 0.28983 0.41277 0.59177 0.0
C3987 C 0.30242 0.40368 0.57377 0.0
C3988 C 0.30144 0.38161 0.57275 0.0
H3989 H 0.37624 0.39839 0.45805 0.0
H3990 H 0.35204 0.39903 0.49272 0.0
C3991 C 0.28694 0.36888 0.58893 0.0
C3992 C 0.31746 0.41677 0.55608 0.0
H3993 H 0.29835 0.44016 0.50953 0.0
C3994 C 0.35069 0.41653 0.55256 0.0
C3995 C 0.29906 0.42725 0.54119 0.0
C3996 C 0.26397 0.43002 0.5444 0.0
C3997 C 0.36518 0.42458 0.53374 0.0
C3998 C 0.34576 0.43206 0.51756 0.0
C3999 C 0.31324 0.4342 0.52183 0.0
C4000 C 0.3572 0.43293 0.49526 0.0
C4001 C 0.40095 0.42392 0.53071 0.0
C4002 C 0.36689 0.45189 0.48455 0.0
C4003 C 0.38124 0.4515 0.46432 0.0
C4004 C 0.38607 0.43215 0.45475 0.0
C4005 C 0.37386 0.41349 0.46503 0.0
C4006 C 0.35981 0.41384 0.48495 0.0
H4007 H 0.41373 0.42376 0.54615 0.0
H4008 H 0.4053 0.40941 0.52197 0.0
H4009 H 0.41134 0.4377 0.52133 0.0
H4010 H 0.36467 0.46686 0.49215 0.0
H4011 H 0.39014 0.4662 0.45683 0.0
H4012 H 0.29864 0.41278 0.30557 0.0
H4013 H 0.29643 0.44044 0.27872 0.0
H4014 H 0.3844 0.42269 0.25106 0.0
H4015 H 0.38494 0.39409 0.27601 0.0
H4016 H 0.32965 0.47382 0.26683 0.0
H4017 H 0.33121 0.41954 0.19983 0.0
H4018 H 0.32674 0.41009 0.22667 0.0
H4019 H 0.36635 0.4166 0.2154 0.0
C4020 C 0.31748 0.41479 0.29373 0.0
C4021 C 0.34188 0.40103 0.29297 0.0
C4022 C 0.31617 0.4306 0.27839 0.0
C4023 C 0.33956 0.43311 0.26231 0.0
C4024 C 0.36521 0.42048 0.26264 0.0
H4025 H 0.418 0.51514 0.16726 0.0
H4026 H 0.4031 0.48911 0.19496 0.0
C4027 C 0.36591 0.40432 0.27737 0.0
C4028 C 0.33783 0.44891 0.24516 0.0
H4029 H 0.35179 0.45593 0.19228 0.0
C4030 C 0.33405 0.46986 0.2505 0.0
C4031 C 0.34206 0.44366 0.22362 0.0
C4032 C 0.34136 0.42118 0.21608 0.0
C4033 C 0.33708 0.4859 0.23517 0.0
C4034 C 0.34526 0.4809 0.21419 0.0
C4035 C 0.3468 0.45981 0.20858 0.0
C4036 C 0.35403 0.4972 0.19797 0.0
C4037 C 0.33184 0.50801 0.24163 0.0
C4038 C 0.33135 0.51025 0.19044 0.0
C4039 C 0.33985 0.525 0.17453 0.0
C4040 C 0.37107 0.52691 0.16593 0.0
C4041 C 0.39384 0.51401 0.17362 0.0
C4042 C 0.38528 0.49911 0.18937 0.0
H4043 H 0.33197 0.5099 0.25908 0.0
H4044 H 0.35038 0.51953 0.23461 0.0
H4045 H 0.30803 0.5118 0.23566 0.0
H4046 H 0.30703 0.50885 0.19665 0.0
H4047 H 0.32214 0.53507 0.16914 0.0
H4048 H 0.32575 0.56629 0.04454 0.0
H4049 H 0.31036 0.57389 0.00865 0.0
H4050 H 0.29331 0.63704 0.02706 0.0
H4051 H 0.30574 0.62843 0.06386 0.0
H4052 H 0.24565 0.62421 0.00796 0.0
H4053 H 0.33958 0.59818 0.95643 0.0
H4054 H 0.32714 0.57641 0.9733 0.0
H4055 H 0.34607 0.60065 0.98452 0.0
C4056 C 0.31954 0.58199 0.04084 0.0
C4057 C 0.31648 0.59667 0.05703 0.0
C4058 C 0.31134 0.58656 0.02001 0.0
C4059 C 0.30088 0.60623 0.0146 0.0
C4060 C 0.30088 0.62165 0.03059 0.0
H4061 H 0.22047 0.64453 0.89558 0.0
H4062 H 0.24183 0.64372 0.93134 0.0
C4063 C 0.30795 0.61676 0.05168 0.0
C4064 C 0.28452 0.60906 0.99371 0.0
H4065 H 0.28527 0.59484 0.94152 0.0
C4066 C 0.25487 0.61806 0.99346 0.0
C4067 C 0.29605 0.60131 0.97438 0.0
C4068 C 0.32914 0.59386 0.97221 0.0
C4069 C 0.23631 0.61881 0.9749 0.0
C4070 C 0.24691 0.60966 0.95619 0.0
C4071 C 0.27664 0.60113 0.95615 0.0
C4072 C 0.22912 0.61037 0.93588 0.0
C4073 C 0.20572 0.62963 0.97534 0.0
C4074 C 0.21413 0.59189 0.92667 0.0
C4075 C 0.2018 0.59224 0.90597 0.0
C4076 C 0.20437 0.61108 0.89423 0.0
C4077 C 0.21792 0.6297 0.90407 0.0
C4078 C 0.23017 0.62933 0.92461 0.0
H4079 H 0.19639 0.63093 0.9917 0.0
H4080 H 0.21086 0.6458 0.96883 0.0
H4081 H 0.1867 0.62127 0.96532 0.0
H4082 H 0.21283 0.57711 0.93526 0.0
H4083 H 0.19109 0.57772 0.89899 0.0
H4084 H 0.16531 0.47617 0.65344 0.0
H4085 H 0.17527 0.50355 0.67977 0.0
H4086 H 0.08451 0.48348 0.70923 0.0
H4087 H 0.07469 0.4549 0.6832 0.0
H4088 H 0.09483 0.52578 0.70461 0.0
H4089 H 0.21518 0.50752 0.72642 0.0
H4090 H 0.1897 0.48744 0.71313 0.0
H4091 H 0.18995 0.489 0.74156 0.0
C4092 C 0.14768 0.47702 0.66576 0.0
C4093 C 0.11971 0.46267 0.6665 0.0
C4094 C 0.15349 0.49282 0.68089 0.0
C4095 C 0.13151 0.49477 0.69731 0.0
C4096 C 0.10254 0.48143 0.69738 0.0
H4097 H 0.11577 0.5795 0.80401 0.0
H4098 H 0.10754 0.55114 0.77779 0.0
C4099 C 0.0969 0.46523 0.68241 0.0
C4100 C 0.13767 0.51157 0.71356 0.0
H4101 H 0.18888 0.53016 0.75311 0.0
C4102 C 0.11533 0.52662 0.71527 0.0
C4103 C 0.16509 0.51322 0.72713 0.0
C4104 C 0.1911 0.49835 0.72668 0.0
C4105 C 0.1195 0.54309 0.73003 0.0
C4106 C 0.14597 0.54407 0.7441 0.0
C4107 C 0.16843 0.52923 0.74238 0.0
C4108 C 0.15129 0.56071 0.7604 0.0
C4109 C 0.09627 0.5598 0.72995 0.0
C4110 C 0.17894 0.57516 0.75957 0.0
C4111 C 0.1835 0.59137 0.77441 0.0
C4112 C 0.16089 0.59305 0.79059 0.0
C4113 C 0.13371 0.57828 0.79181 0.0
C4114 C 0.12889 0.56224 0.77676 0.0
H4115 H 0.0815 0.55933 0.71527 0.0
H4116 H 0.07971 0.55733 0.74366 0.0
H4117 H 0.10949 0.57572 0.73141 0.0
H4118 H 0.19645 0.5743 0.74702 0.0
H4119 H 0.20402 0.60304 0.77274 0.0
H4120 H 0.23085 0.37956 0.57109 0.0
H4121 H 0.24851 0.37069 0.53586 0.0
H4122 H 0.16679 0.398 0.509 0.0
H4123 H 0.15122 0.40882 0.54435 0.0
H4124 H 0.23572 0.35135 0.50324 0.0
H4125 H 0.23065 0.43483 0.47931 0.0
H4126 H 0.21849 0.42604 0.50529 0.0
H4127 H 0.19145 0.42125 0.48326 0.0
C4128 C 0.217 0.38391 0.55765 0.0
C4129 C 0.19112 0.39612 0.56039 0.0
C4130 C 0.22669 0.37848 0.53741 0.0
C4131 C 0.21023 0.38487 0.51942 0.0
C4132 C 0.18132 0.39419 0.52242 0.0
H4133 H 0.26492 0.35097 0.39307 0.0
H4134 H 0.24421 0.35153 0.42872 0.0
C4135 C 0.17217 0.40016 0.5427 0.0
C4136 C 0.22523 0.38341 0.49803 0.0
H4137 H 0.24845 0.41204 0.45378 0.0
C4138 C 0.23861 0.36474 0.49256 0.0
C4139 C 0.22946 0.40087 0.48388 0.0
C4140 C 0.21703 0.42188 0.48833 0.0
C4141 C 0.25616 0.3631 0.47373 0.0
C4142 C 0.25959 0.38036 0.45949 0.0
C4143 C 0.24614 0.39892 0.46481 0.0
C4144 C 0.2749 0.3792 0.4383 0.0
C4145 C 0.27143 0.343 0.46961 0.0
C4146 C 0.29878 0.39491 0.43137 0.0
C4147 C 0.31015 0.39508 0.41044 0.0
C4148 C 0.29787 0.37946 0.39614 0.0
C4149 C 0.27481 0.36343 0.40345 0.0
C4150 C 0.26321 0.36347 0.4241 0.0
H4151 H 0.27653 0.33485 0.48464 0.0
H4152 H 0.25448 0.33212 0.46031 0.0
H4153 H 0.29428 0.34605 0.46059 0.0
H4154 H 0.30818 0.40726 0.44207 0.0
H4155 H 0.32833 0.4074 0.40546 0.0
H4156 H 0.559 0.38468 0.36512 0.0
H4157 H 0.58303 0.35342 0.35183 0.0
H4158 H 0.51367 0.31321 0.38765 0.0
H4159 H 0.48993 0.34368 0.40067 0.0
H4160 H 0.60777 0.31874 0.37715 0.0
H4161 H 0.50391 0.2912 0.32596 0.0
H4162 H 0.51062 0.31801 0.33537 0.0
H4163 H 0.49254 0.29747 0.35239 0.0
C4164 C 0.54898 0.36916 0.37013 0.0
C4165 C 0.5222 0.36674 0.3838 0.0
C4166 C 0.56266 0.35137 0.36253 0.0
C4167 C 0.54962 0.33105 0.36847 0.0
C4168 C 0.52364 0.32873 0.38253 0.0
H4169 H 0.59022 0.2034 0.37461 0.0
H4170 H 0.57695 0.2397 0.38024 0.0
C4171 C 0.51016 0.3463 0.39007 0.0
C4172 C 0.5628 0.31189 0.36054 0.0
H4173 H 0.53971 0.26548 0.33555 0.0
C4174 C 0.59323 0.30725 0.36769 0.0
C4175 C 0.5436 0.2969 0.34832 0.0
C4176 C 0.51096 0.3012 0.3399 0.0
C4177 C 0.60421 0.28749 0.36381 0.0
C4178 C 0.58432 0.27227 0.35243 0.0
C4179 C 0.55467 0.27724 0.34442 0.0
C4180 C 0.59329 0.25074 0.34929 0.0
C4181 C 0.63652 0.28267 0.3723 0.0
C4182 C 0.60623 0.24507 0.32993 0.0
C4183 C 0.61318 0.22438 0.32657 0.0
C4184 C 0.60754 0.20921 0.34262 0.0
C4185 C 0.59483 0.21494 0.36208 0.0
C4186 C 0.58742 0.23557 0.36532 0.0
H4187 H 0.64999 0.29662 0.37977 0.0
H4188 H 0.63299 0.26985 0.38425 0.0
H4189 H 0.65132 0.27699 0.3593 0.0
H4190 H 0.61095 0.25665 0.31746 0.0
H4191 H 0.62358 0.22031 0.3116 0.0
loop_
_geom_bond_atom_site_label_1
_geom_bond_atom_site_label_2
_geom_bond_distance
_geom_bond_site_symmetry_2
_ccdc_geom_bond_type
Co0 O2 2.143 . S
Co0 O8 2.074 . S
Co0 O11 2.093 . S
Co0 O24 2.097 . S
Co0 N41 2.151 . S
Co0 N49 2.214 . S
Co1 O2 2.160 . S
Co1 O7 2.058 . S
Co1 O17 2.057 . S
Co1 O32 2.037 . S
Co1 N36 2.145 . S
Co1 N57 2.257 . S
O2 Co0 2.143 . S
O2 Co1 2.160 . S
C3 O4 1.278 . S
C3 O11 1.224 . S
O4 C3 1.278 . S
C5 O6 1.245 . S
C5 O17 1.232 . S
O6 C5 1.245 . S
O7 Co1 2.058 . S
O7 C33 1.269 . S
O8 Co0 2.074 . S
O8 C33 1.257 . S
H9 C34 0.930 . S
H10 C40 0.930 . S
O11 Co0 2.093 . S
O11 C3 1.224 . S
H12 C44 0.929 . S
H13 C46 0.930 . S
H14 C47 0.930 . S
H15 C45 0.929 . S
H16 C48 0.928 . S
O17 Co1 2.057 . S
O17 C5 1.232 . S
H18 C37 0.929 . S
H19 C38 0.929 . S
H20 C50 0.931 . S
H21 C42 0.929 . S
H22 C51 0.930 . S
H23 C43 0.931 . S
O24 Co0 2.097 . S
O24 C52 1.214 . S
H25 C53 0.929 . S
H26 C54 0.929 . S
H27 C55 0.930 . S
H28 C56 0.929 . S
H29 C58 0.930 . S
H30 C35 0.930 . S
H31 C39 0.930 . S
O32 Co1 2.037 . S
O32 C52 1.234 . S
C33 O7 1.269 . S
C33 O8 1.257 . S
C34 H9 0.930 . S
C34 C37 1.388 . S
C34 C39 1.418 . S
C35 H30 0.930 . S
C35 C38 1.404 . S
C35 C39 1.353 . S
N36 Co1 2.145 . S
N36 C37 1.397 . S
N36 C38 1.334 . S
C37 H18 0.929 . S
C37 C34 1.388 . S
C37 N36 1.397 . S
C38 H19 0.929 . S
C38 C35 1.404 . S
C38 N36 1.334 . S
C39 H31 0.930 . S
C39 C34 1.418 . S
C39 C35 1.353 . S
C40 H10 0.930 . S
C40 N41 1.330 . S
C40 C42 1.446 . S
N41 Co0 2.151 . S
N41 C40 1.330 . S
N41 C45 1.418 . S
C42 H21 0.929 . S
C42 C40 1.446 . S
C42 C43 1.332 . S
C43 H23 0.931 . S
C43 C42 1.332 . S
C43 C44 1.267 . S
C44 H12 0.929 . S
C44 C43 1.267 . S
C44 C45 1.251 . S
C45 H15 0.929 . S
C45 N41 1.418 . S
C45 C44 1.251 . S
C46 H13 0.930 . S
C46 C48 1.406 . S
C46 C51 1.261 . S
C47 H14 0.930 . S
C47 N49 1.325 . S
C47 C50 1.357 . S
C48 H16 0.928 . S
C48 C46 1.406 . S
C48 N49 1.261 . S
N49 Co0 2.214 . S
N49 C47 1.325 . S
N49 C48 1.261 . S
C50 H20 0.931 . S
C50 C47 1.357 . S
C50 C51 1.312 . S
C51 H22 0.930 . S
C51 C46 1.261 . S
C51 C50 1.312 . S
C52 O24 1.214 . S
C52 O32 1.234 . S
C53 H25 0.929 . S
C53 C56 1.391 . S
C53 C58 1.391 . S
C54 H26 0.929 . S
C54 C55 1.390 . S
C54 N57 1.391 . S
C55 H27 0.930 . S
C55 C54 1.390 . S
C55 C56 1.392 . S
C56 H28 0.929 . S
C56 C53 1.391 . S
C56 C55 1.392 . S
N57 Co1 2.257 . S
N57 C54 1.391 . S
N57 C58 1.388 . S
C58 H29 0.930 . S
C58 C53 1.391 . S
C58 N57 1.388 . S
Co59 O61 2.143 . S
Co59 O67 2.074 . S
Co59 O70 2.093 . S
Co59 O83 2.097 . S
Co59 N100 2.151 . S
Co59 N108 2.214 . S
Co60 O61 2.160 . S
Co60 O66 2.058 . S
Co60 O76 2.057 . S
Co60 O91 2.037 . S
Co60 N95 2.145 . S
Co60 N116 2.257 . S
O61 Co59 2.143 . S
O61 Co60 2.160 . S
C62 O63 1.278 . S
C62 O70 1.224 . S
O63 C62 1.278 . S
C64 O65 1.245 . S
C64 O76 1.232 . S
O65 C64 1.245 . S
O66 Co60 2.058 . S
O66 C92 1.269 . S
O67 Co59 2.074 . S
O67 C92 1.257 . S
H68 C93 0.930 . S
H69 C99 0.930 . S
O70 Co59 2.093 . S
O70 C62 1.224 . S
H71 C103 0.929 . S
H72 C105 0.930 . S
H73 C106 0.930 . S
H74 C104 0.929 . S
H75 C107 0.928 . S
O76 Co60 2.057 . S
O76 C64 1.232 . S
H77 C96 0.929 . S
H78 C97 0.929 . S
H79 C109 0.931 . S
H80 C101 0.930 1_455 S
H81 C110 0.930 . S
H82 C102 0.931 . S
O83 Co59 2.097 . S
O83 C111 1.214 . S
H84 C112 0.929 . S
H85 C113 0.929 . S
H86 C114 0.930 . S
H87 C115 0.929 . S
H88 C117 0.930 . S
H89 C94 0.930 . S
H90 C98 0.930 . S
O91 Co60 2.037 . S
O91 C111 1.234 . S
C92 O66 1.269 . S
C92 O67 1.257 . S
C93 H68 0.930 . S
C93 C96 1.388 . S
C93 C98 1.418 . S
C94 H89 0.930 . S
C94 C97 1.404 . S
C94 C98 1.353 . S
N95 Co60 2.145 . S
N95 C96 1.397 . S
N95 C97 1.334 . S
C96 H77 0.929 . S
C96 C93 1.388 . S
C96 N95 1.397 . S
C97 H78 0.929 . S
C97 C94 1.404 . S
C97 N95 1.334 . S
C98 H90 0.930 . S
C98 C93 1.418 . S
C98 C94 1.353 . S
C99 H69 0.930 . S
C99 N100 1.330 . S
C99 C101 1.433 1_455 S
N100 Co59 2.151 . S
N100 C99 1.330 . S
N100 C104 1.418 1_455 S
C101 H80 0.930 1_655 S
C101 C99 1.433 1_655 S
C101 C102 1.344 . S
C102 H82 0.931 . S
C102 C101 1.344 . S
C102 C103 1.267 . S
C103 H71 0.929 . S
C103 C102 1.267 . S
C103 C104 1.251 . S
C104 H74 0.929 . S
C104 N100 1.418 1_655 S
C104 C103 1.251 . S
C105 H72 0.930 . S
C105 C107 1.406 1_655 S
C105 C110 1.261 . S
C106 H73 0.930 . S
C106 N108 1.325 . S
C106 C109 1.357 . S
C107 H75 0.928 . S
C107 C105 1.406 1_455 S
C107 N108 1.261 . S
N108 Co59 2.214 . S
N108 C106 1.325 . S
N108 C107 1.261 . S
C109 H79 0.931 . S
C109 C106 1.357 . S
C109 C110 1.312 1_455 S
C110 H81 0.930 . S
C110 C105 1.261 . S
C110 C109 1.312 1_655 S
C111 O83 1.214 . S
C111 O91 1.234 . S
C112 H84 0.929 . S
C112 C115 1.391 . S
C112 C117 1.391 . S
C113 H85 0.929 . S
C113 C114 1.390 . S
C113 N116 1.391 . S
C114 H86 0.930 . S
C114 C113 1.390 . S
C114 C115 1.392 . S
C115 H87 0.929 . S
C115 C112 1.391 . S
C115 C114 1.392 . S
N116 Co60 2.257 . S
N116 C113 1.391 . S
N116 C117 1.388 . S
C117 H88 0.930 . S
C117 C112 1.391 . S
C117 N116 1.388 . S
Co118 O120 2.143 . S
Co118 O126 2.074 . S
Co118 O129 2.093 . S
Co118 O142 2.097 . S
Co118 N159 2.151 . S
Co118 N167 2.214 . S
Co119 O120 2.160 . S
Co119 O125 2.058 . S
Co119 O135 2.057 . S
Co119 O150 2.037 . S
Co119 N154 2.145 . S
Co119 N175 2.257 . S
O120 Co118 2.143 . S
O120 Co119 2.160 . S
C121 O122 1.278 . S
C121 O129 1.224 . S
O122 C121 1.278 . S
C123 O124 1.245 . S
C123 O135 1.232 . S
O124 C123 1.245 . S
O125 Co119 2.058 . S
O125 C151 1.269 . S
O126 Co118 2.074 . S
O126 C151 1.257 . S
H127 C152 0.930 . S
H128 C158 0.930 . S
O129 Co118 2.093 . S
O129 C121 1.224 . S
H130 C162 0.929 . S
H131 C164 0.930 . S
H132 C165 0.930 . S
H133 C163 0.929 . S
H134 C166 0.928 . S
O135 Co119 2.057 . S
O135 C123 1.232 . S
H136 C155 0.929 . S
H137 C156 0.929 . S
H138 C168 0.931 . S
H139 C160 0.929 . S
H140 C169 0.930 . S
H141 C161 0.931 . S
O142 Co118 2.097 . S
O142 C170 1.214 . S
H143 C171 0.929 . S
H144 C172 0.929 . S
H145 C173 0.930 . S
H146 C174 0.929 . S
H147 C176 0.930 . S
H148 C153 0.930 . S
H149 C157 0.930 . S
O150 Co119 2.037 . S
O150 C170 1.234 . S
C151 O125 1.269 . S
C151 O126 1.257 . S
C152 H127 0.930 . S
C152 C155 1.388 . S
C152 C157 1.418 . S
C153 H148 0.930 . S
C153 C156 1.404 . S
C153 C157 1.353 . S
N154 Co119 2.145 . S
N154 C155 1.397 . S
N154 C156 1.334 . S
C155 H136 0.929 . S
C155 C152 1.388 . S
C155 N154 1.397 . S
C156 H137 0.929 . S
C156 C153 1.404 . S
C156 N154 1.334 . S
C157 H149 0.930 . S
C157 C152 1.418 . S
C157 C153 1.353 . S
C158 H128 0.930 . S
C158 N159 1.330 . S
C158 C160 1.446 . S
N159 Co118 2.151 . S
N159 C158 1.330 . S
N159 C163 1.418 . S
C160 H139 0.929 . S
C160 C158 1.446 . S
C160 C161 1.332 . S
C161 H141 0.931 . S
C161 C160 1.332 . S
C161 C162 1.267 . S
C162 H130 0.929 . S
C162 C161 1.267 . S
C162 C163 1.251 . S
C163 H133 0.929 . S
C163 N159 1.418 . S
C163 C162 1.251 . S
C164 H131 0.930 . S
C164 C166 1.406 . S
C164 C169 1.261 . S
C165 H132 0.930 . S
C165 N167 1.325 . S
C165 C168 1.357 . S
C166 H134 0.928 . S
C166 C164 1.406 . S
C166 N167 1.261 . S
N167 Co118 2.214 . S
N167 C165 1.325 . S
N167 C166 1.261 . S
C168 H138 0.931 . S
C168 C165 1.357 . S
C168 C169 1.312 . S
C169 H140 0.930 . S
C169 C164 1.261 . S
C169 C168 1.312 . S
C170 O142 1.214 . S
C170 O150 1.234 . S
C171 H143 0.929 . S
C171 C174 1.391 . S
C171 C176 1.391 . S
C172 H144 0.929 . S
C172 C173 1.390 . S
C172 N175 1.391 . S
C173 H145 0.930 . S
C173 C172 1.390 . S
C173 C174 1.392 . S
C174 H146 0.929 . S
C174 C171 1.391 . S
C174 C173 1.392 . S
N175 Co119 2.257 . S
N175 C172 1.391 . S
N175 C176 1.388 . S
C176 H147 0.930 . S
C176 C171 1.391 . S
C176 N175 1.388 . S
Co177 O179 2.143 . S
Co177 O185 2.074 . S
Co177 O188 2.093 . S
Co177 O201 2.097 . S
Co177 N218 2.151 . S
Co177 N226 2.214 . S
Co178 O179 2.160 . S
Co178 O184 2.058 . S
Co178 O194 2.057 . S
Co178 O209 2.037 . S
Co178 N213 2.145 . S
Co178 N234 2.257 . S
O179 Co177 2.143 . S
O179 Co178 2.160 . S
C180 O181 1.278 . S
C180 O188 1.224 . S
O181 C180 1.278 . S
C182 O183 1.245 . S
C182 O194 1.232 . S
O183 C182 1.245 . S
O184 Co178 2.058 . S
O184 C210 1.269 . S
O185 Co177 2.074 . S
O185 C210 1.257 . S
H186 C211 0.930 . S
H187 C217 0.930 . S
O188 Co177 2.093 . S
O188 C180 1.224 . S
H189 C221 0.929 . S
H190 C223 0.930 . S
H191 C224 0.930 . S
H192 C222 0.929 . S
H193 C225 0.928 . S
O194 Co178 2.057 . S
O194 C182 1.232 . S
H195 C214 0.929 . S
H196 C215 0.929 . S
H197 C227 0.931 . S
H198 C219 0.929 . S
H199 C228 0.930 . S
H200 C220 0.931 . S
O201 Co177 2.097 . S
O201 C229 1.214 . S
H202 C230 0.929 . S
H203 C231 0.929 . S
H204 C232 0.930 . S
H205 C233 0.929 . S
H206 C235 0.930 . S
H207 C212 0.930 . S
H208 C216 0.930 . S
O209 Co178 2.037 . S
O209 C229 1.234 . S
C210 O184 1.269 . S
C210 O185 1.257 . S
C211 H186 0.930 . S
C211 C214 1.388 . S
C211 C216 1.418 . S
C212 H207 0.930 . S
C212 C215 1.404 . S
C212 C216 1.353 . S
N213 Co178 2.145 . S
N213 C214 1.397 . S
N213 C215 1.334 . S
C214 H195 0.929 . S
C214 C211 1.388 . S
C214 N213 1.397 . S
C215 H196 0.929 . S
C215 C212 1.404 . S
C215 N213 1.334 . S
C216 H208 0.930 . S
C216 C211 1.418 . S
C216 C212 1.353 . S
C217 H187 0.930 . S
C217 N218 1.330 . S
C217 C219 1.446 . S
N218 Co177 2.151 . S
N218 C217 1.330 . S
N218 C222 1.418 . S
C219 H198 0.929 . S
C219 C217 1.446 . S
C219 C220 1.332 . S
C220 H200 0.931 . S
C220 C219 1.332 . S
C220 C221 1.267 . S
C221 H189 0.929 . S
C221 C220 1.267 . S
C221 C222 1.251 . S
C222 H192 0.929 . S
C222 N218 1.418 . S
C222 C221 1.251 . S
C223 H190 0.930 . S
C223 C225 1.406 . S
C223 C228 1.261 . S
C224 H191 0.930 . S
C224 N226 1.325 . S
C224 C227 1.357 . S
C225 H193 0.928 . S
C225 C223 1.406 . S
C225 N226 1.261 . S
N226 Co177 2.214 . S
N226 C224 1.325 . S
N226 C225 1.261 . S
C227 H197 0.931 . S
C227 C224 1.357 . S
C227 C228 1.312 . S
C228 H199 0.930 . S
C228 C223 1.261 . S
C228 C227 1.312 . S
C229 O201 1.214 . S
C229 O209 1.234 . S
C230 H202 0.929 . S
C230 C233 1.391 . S
C230 C235 1.391 . S
C231 H203 0.929 . S
C231 C232 1.390 . S
C231 N234 1.391 . S
C232 H204 0.930 . S
C232 C231 1.390 . S
C232 C233 1.392 . S
C233 H205 0.929 . S
C233 C230 1.391 . S
C233 C232 1.392 . S
N234 Co178 2.257 . S
N234 C231 1.391 . S
N234 C235 1.388 . S
C235 H206 0.930 . S
C235 C230 1.391 . S
C235 N234 1.388 . S
Co236 O238 2.143 . S
Co236 O244 2.074 . S
Co236 O247 2.093 . S
Co236 O260 2.097 . S
Co236 N277 2.151 . S
Co236 N285 2.214 . S
Co237 O238 2.160 . S
Co237 O243 2.058 . S
Co237 O253 2.057 . S
Co237 O268 2.037 . S
Co237 N272 2.145 . S
Co237 N293 2.257 . S
O238 Co236 2.143 . S
O238 Co237 2.160 . S
C239 O240 1.278 . S
C239 O247 1.224 . S
O240 C239 1.278 . S
C241 O242 1.245 . S
C241 O253 1.232 . S
O242 C241 1.245 . S
O243 Co237 2.058 . S
O243 C269 1.269 . S
O244 Co236 2.074 . S
O244 C269 1.257 . S
H245 C270 0.930 . S
H246 C276 0.930 . S
O247 Co236 2.093 . S
O247 C239 1.224 . S
H248 C280 0.929 . S
H249 C282 0.930 . S
H250 C283 0.930 . S
H251 C281 0.929 . S
H252 C284 0.928 . S
O253 Co237 2.057 . S
O253 C241 1.232 . S
H254 C273 0.929 . S
H255 C274 0.929 . S
H256 C286 0.931 . S
H257 C278 0.929 . S
H258 C287 0.930 . S
H259 C279 0.931 . S
O260 Co236 2.097 . S
O260 C288 1.214 . S
H261 C289 0.929 . S
H262 C290 0.929 . S
H263 C291 0.930 . S
H264 C292 0.929 . S
H265 C294 0.930 . S
H266 C271 0.930 . S
H267 C275 0.930 . S
O268 Co237 2.037 . S
O268 C288 1.234 . S
C269 O243 1.269 . S
C269 O244 1.257 . S
C270 H245 0.930 . S
C270 C273 1.388 . S
C270 C275 1.418 . S
C271 H266 0.930 . S
C271 C274 1.404 . S
C271 C275 1.353 . S
N272 Co237 2.145 . S
N272 C273 1.397 . S
N272 C274 1.334 . S
C273 H254 0.929 . S
C273 C270 1.388 . S
C273 N272 1.397 . S
C274 H255 0.929 . S
C274 C271 1.404 . S
C274 N272 1.334 . S
C275 H267 0.930 . S
C275 C270 1.418 . S
C275 C271 1.353 . S
C276 H246 0.930 . S
C276 N277 1.330 . S
C276 C278 1.446 . S
N277 Co236 2.151 . S
N277 C276 1.330 . S
N277 C281 1.418 . S
C278 H257 0.929 . S
C278 C276 1.446 . S
C278 C279 1.332 . S
C279 H259 0.931 . S
C279 C278 1.332 . S
C279 C280 1.267 . S
C280 H248 0.929 . S
C280 C279 1.267 . S
C280 C281 1.251 . S
C281 H251 0.929 . S
C281 N277 1.418 . S
C281 C280 1.251 . S
C282 H249 0.930 . S
C282 C284 1.406 1_545 S
C282 C287 1.261 . S
C283 H250 0.930 . S
C283 N285 1.325 . S
C283 C286 1.357 . S
C284 H252 0.928 . S
C284 C282 1.406 1_565 S
C284 N285 1.261 . S
N285 Co236 2.214 . S
N285 C283 1.325 . S
N285 C284 1.261 . S
C286 H256 0.931 . S
C286 C283 1.357 . S
C286 C287 1.312 1_565 S
C287 H258 0.930 . S
C287 C282 1.261 . S
C287 C286 1.312 1_545 S
C288 O260 1.214 . S
C288 O268 1.234 . S
C289 H261 0.929 . S
C289 C292 1.391 1_455 S
C289 C294 1.391 . S
C290 H262 0.929 . S
C290 C291 1.390 1_455 S
C290 N293 1.391 . S
C291 H263 0.930 . S
C291 C290 1.390 1_655 S
C291 C292 1.392 . S
C292 H264 0.929 . S
C292 C289 1.391 1_655 S
C292 C291 1.392 . S
N293 Co237 2.257 . S
N293 C290 1.391 . S
N293 C294 1.388 . S
C294 H265 0.930 . S
C294 C289 1.391 . S
C294 N293 1.388 . S
Co295 O297 2.143 . S
Co295 O303 2.074 . S
Co295 O306 2.093 . S
Co295 O319 2.097 . S
Co295 N336 2.151 . S
Co295 N344 2.214 . S
Co296 O297 2.160 . S
Co296 O302 2.058 . S
Co296 O312 2.057 . S
Co296 O327 2.037 . S
Co296 N331 2.145 . S
Co296 N352 2.257 . S
O297 Co295 2.143 . S
O297 Co296 2.160 . S
C298 O299 1.278 . S
C298 O306 1.224 . S
O299 C298 1.278 . S
C300 O301 1.245 . S
C300 O312 1.232 . S
O301 C300 1.245 . S
O302 Co296 2.058 . S
O302 C328 1.269 . S
O303 Co295 2.074 . S
O303 C328 1.257 . S
H304 C329 0.930 . S
H305 C335 0.930 . S
O306 Co295 2.093 . S
O306 C298 1.224 . S
H307 C339 0.929 . S
H308 C341 0.930 . S
H309 C342 0.930 . S
H310 C340 0.929 . S
H311 C343 0.928 . S
O312 Co296 2.057 . S
O312 C300 1.232 . S
H313 C332 0.929 . S
H314 C333 0.929 . S
H315 C345 0.931 . S
H316 C337 0.929 . S
H317 C346 0.930 . S
H318 C338 0.931 . S
O319 Co295 2.097 . S
O319 C347 1.214 . S
H320 C348 0.929 . S
H321 C349 0.929 . S
H322 C350 0.930 . S
H323 C351 0.929 . S
H324 C353 0.930 . S
H325 C330 0.930 . S
H326 C334 0.930 . S
O327 Co296 2.037 . S
O327 C347 1.234 . S
C328 O302 1.269 . S
C328 O303 1.257 . S
C329 H304 0.930 . S
C329 C332 1.388 . S
C329 C334 1.418 . S
C330 H325 0.930 . S
C330 C333 1.404 . S
C330 C334 1.353 . S
N331 Co296 2.145 . S
N331 C332 1.397 . S
N331 C333 1.334 . S
C332 H313 0.929 . S
C332 C329 1.388 . S
C332 N331 1.397 . S
C333 H314 0.929 . S
C333 C330 1.404 . S
C333 N331 1.334 . S
C334 H326 0.930 . S
C334 C329 1.418 . S
C334 C330 1.353 . S
C335 H305 0.930 . S
C335 N336 1.330 . S
C335 C337 1.446 . S
N336 Co295 2.151 . S
N336 C335 1.330 . S
N336 C340 1.418 . S
C337 H316 0.929 . S
C337 C335 1.446 . S
C337 C338 1.332 . S
C338 H318 0.931 . S
C338 C337 1.332 . S
C338 C339 1.267 . S
C339 H307 0.929 . S
C339 C338 1.267 . S
C339 C340 1.251 . S
C340 H310 0.929 . S
C340 N336 1.418 . S
C340 C339 1.251 . S
C341 H308 0.930 . S
C341 C343 1.406 . S
C341 C346 1.261 . S
C342 H309 0.930 . S
C342 N344 1.325 . S
C342 C345 1.357 . S
C343 H311 0.928 . S
C343 C341 1.406 . S
C343 N344 1.261 . S
N344 Co295 2.214 . S
N344 C342 1.325 . S
N344 C343 1.261 . S
C345 H315 0.931 . S
C345 C342 1.357 . S
C345 C346 1.312 . S
C346 H317 0.930 . S
C346 C341 1.261 . S
C346 C345 1.312 . S
C347 O319 1.214 . S
C347 O327 1.234 . S
C348 H320 0.929 . S
C348 C351 1.391 . S
C348 C353 1.391 . S
C349 H321 0.929 . S
C349 C350 1.390 . S
C349 N352 1.391 . S
C350 H322 0.930 . S
C350 C349 1.390 . S
C350 C351 1.392 . S
C351 H323 0.929 . S
C351 C348 1.391 . S
C351 C350 1.392 . S
N352 Co296 2.257 . S
N352 C349 1.391 . S
N352 C353 1.388 . S
C353 H324 0.930 . S
C353 C348 1.391 . S
C353 N352 1.388 . S
Co354 O356 2.143 . S
Co354 O362 2.074 . S
Co354 O365 2.093 . S
Co354 O378 2.097 . S
Co354 N395 2.151 . S
Co354 N403 2.214 . S
Co355 O356 2.160 . S
Co355 O361 2.058 . S
Co355 O371 2.057 . S
Co355 O386 2.037 . S
Co355 N390 2.145 . S
Co355 N411 2.257 . S
O356 Co354 2.143 . S
O356 Co355 2.160 . S
C357 O358 1.278 . S
C357 O365 1.224 . S
O358 C357 1.278 . S
C359 O360 1.245 . S
C359 O371 1.232 . S
O360 C359 1.245 . S
O361 Co355 2.058 . S
O361 C387 1.269 . S
O362 Co354 2.074 . S
O362 C387 1.257 . S
H363 C388 0.930 . S
H364 C394 0.930 . S
O365 Co354 2.093 . S
O365 C357 1.224 . S
H366 C398 0.929 . S
H367 C400 0.930 . S
H368 C401 0.930 . S
H369 C399 0.929 . S
H370 C402 0.928 . S
O371 Co355 2.057 . S
O371 C359 1.232 . S
H372 C391 0.929 . S
H373 C392 0.929 . S
H374 C404 0.931 . S
H375 C396 0.929 . S
H376 C405 0.930 . S
H377 C397 0.931 . S
O378 Co354 2.097 . S
O378 C406 1.214 . S
H379 C407 0.929 . S
H380 C408 0.929 . S
H381 C409 0.930 . S
H382 C410 0.929 . S
H383 C412 0.930 . S
H384 C389 0.930 . S
H385 C393 0.930 . S
O386 Co355 2.037 . S
O386 C406 1.234 . S
C387 O361 1.269 . S
C387 O362 1.257 . S
C388 H363 0.930 . S
C388 C391 1.388 . S
C388 C393 1.418 . S
C389 H384 0.930 . S
C389 C392 1.404 . S
C389 C393 1.353 . S
N390 Co355 2.145 . S
N390 C391 1.397 . S
N390 C392 1.334 . S
C391 H372 0.929 . S
C391 C388 1.388 . S
C391 N390 1.397 . S
C392 H373 0.929 . S
C392 C389 1.404 . S
C392 N390 1.334 . S
C393 H385 0.930 . S
C393 C388 1.418 . S
C393 C389 1.353 . S
C394 H364 0.930 . S
C394 N395 1.330 . S
C394 C396 1.446 . S
N395 Co354 2.151 . S
N395 C394 1.330 . S
N395 C399 1.418 . S
C396 H375 0.929 . S
C396 C394 1.446 . S
C396 C397 1.332 . S
C397 H377 0.931 . S
C397 C396 1.332 . S
C397 C398 1.267 . S
C398 H366 0.929 . S
C398 C397 1.267 . S
C398 C399 1.251 . S
C399 H369 0.929 . S
C399 N395 1.418 . S
C399 C398 1.251 . S
C400 H367 0.930 . S
C400 C402 1.406 1_565 S
C400 C405 1.261 . S
C401 H368 0.930 . S
C401 N403 1.325 . S
C401 C404 1.357 . S
C402 H370 0.928 . S
C402 C400 1.406 1_545 S
C402 N403 1.261 . S
N403 Co354 2.214 . S
N403 C401 1.325 . S
N403 C402 1.261 . S
C404 H374 0.931 . S
C404 C401 1.357 . S
C404 C405 1.312 1_545 S
C405 H376 0.930 . S
C405 C400 1.261 . S
C405 C404 1.312 1_565 S
C406 O378 1.214 . S
C406 O386 1.234 . S
C407 H379 0.929 . S
C407 C410 1.391 . S
C407 C412 1.391 . S
C408 H380 0.929 . S
C408 C409 1.390 . S
C408 N411 1.391 . S
C409 H381 0.930 . S
C409 C408 1.390 . S
C409 C410 1.392 . S
C410 H382 0.929 . S
C410 C407 1.391 . S
C410 C409 1.392 . S
N411 Co355 2.257 . S
N411 C408 1.391 . S
N411 C412 1.388 . S
C412 H383 0.930 . S
C412 C407 1.391 . S
C412 N411 1.388 . S
Co413 O415 2.143 . S
Co413 O421 2.074 . S
Co413 O424 2.093 . S
Co413 O437 2.097 . S
Co413 N454 2.151 . S
Co413 N462 2.214 . S
Co414 O415 2.160 . S
Co414 O420 2.058 . S
Co414 O430 2.057 . S
Co414 O445 2.037 . S
Co414 N449 2.145 . S
Co414 N470 2.257 . S
O415 Co413 2.143 . S
O415 Co414 2.160 . S
C416 O417 1.278 . S
C416 O424 1.224 . S
O417 C416 1.278 . S
C418 O419 1.245 . S
C418 O430 1.232 . S
O419 C418 1.245 . S
O420 Co414 2.058 . S
O420 C446 1.269 . S
O421 Co413 2.074 . S
O421 C446 1.257 . S
H422 C447 0.930 . S
H423 C453 0.930 . S
O424 Co413 2.093 . S
O424 C416 1.224 . S
H425 C457 0.929 . S
H426 C459 0.930 . S
H427 C460 0.930 . S
H428 C458 0.929 . S
H429 C461 0.928 . S
O430 Co414 2.057 . S
O430 C418 1.232 . S
H431 C450 0.929 . S
H432 C451 0.929 . S
H433 C463 0.931 . S
H434 C455 0.929 . S
H435 C464 0.930 . S
H436 C456 0.931 . S
O437 Co413 2.097 . S
O437 C465 1.214 . S
H438 C466 0.929 . S
H439 C467 0.929 . S
H440 C468 0.930 . S
H441 C469 0.929 . S
H442 C471 0.930 . S
H443 C448 0.930 . S
H444 C452 0.930 . S
O445 Co414 2.037 . S
O445 C465 1.234 . S
C446 O420 1.269 . S
C446 O421 1.257 . S
C447 H422 0.930 . S
C447 C450 1.388 . S
C447 C452 1.418 . S
C448 H443 0.930 . S
C448 C451 1.404 . S
C448 C452 1.353 . S
N449 Co414 2.145 . S
N449 C450 1.397 . S
N449 C451 1.334 . S
C450 H431 0.929 . S
C450 C447 1.388 . S
C450 N449 1.397 . S
C451 H432 0.929 . S
C451 C448 1.404 . S
C451 N449 1.334 . S
C452 H444 0.930 . S
C452 C447 1.418 . S
C452 C448 1.353 . S
C453 H423 0.930 . S
C453 N454 1.330 . S
C453 C455 1.446 1_455 S
N454 Co413 2.151 . S
N454 C453 1.330 . S
N454 C458 1.418 1_455 S
C455 H434 0.929 . S
C455 C453 1.446 1_655 S
C455 C456 1.332 . S
C456 H436 0.931 . S
C456 C455 1.332 . S
C456 C457 1.267 . S
C457 H425 0.929 . S
C457 C456 1.267 . S
C457 C458 1.251 . S
C458 H428 0.929 . S
C458 N454 1.418 1_655 S
C458 C457 1.251 . S
C459 H426 0.930 . S
C459 C461 1.406 1_655 S
C459 C464 1.261 . S
C460 H427 0.930 . S
C460 N462 1.325 . S
C460 C463 1.357 . S
C461 H429 0.928 . S
C461 C459 1.406 1_455 S
C461 N462 1.261 . S
N462 Co413 2.214 . S
N462 C460 1.325 . S
N462 C461 1.261 . S
C463 H433 0.931 . S
C463 C460 1.357 . S
C463 C464 1.312 1_455 S
C464 H435 0.930 . S
C464 C459 1.261 . S
C464 C463 1.312 1_655 S
C465 O437 1.214 . S
C465 O445 1.234 . S
C466 H438 0.929 . S
C466 C469 1.391 . S
C466 C471 1.391 . S
C467 H439 0.929 . S
C467 C468 1.390 . S
C467 N470 1.391 . S
C468 H440 0.930 . S
C468 C467 1.390 . S
C468 C469 1.392 . S
C469 H441 0.929 . S
C469 C466 1.391 . S
C469 C468 1.392 . S
N470 Co414 2.257 . S
N470 C467 1.391 . S
N470 C471 1.388 . S
C471 H442 0.930 . S
C471 C466 1.391 . S
C471 N470 1.388 . S
Co472 O474 2.143 . S
Co472 O480 2.074 . S
Co472 O483 2.093 . S
Co472 O496 2.097 . S
Co472 N513 2.151 . S
Co472 N521 2.214 . S
Co473 O474 2.160 . S
Co473 O479 2.058 . S
Co473 O489 2.057 . S
Co473 O504 2.037 . S
Co473 N508 2.145 . S
Co473 N529 2.257 . S
O474 Co472 2.143 . S
O474 Co473 2.160 . S
C475 O476 1.278 . S
C475 O483 1.224 . S
O476 C475 1.278 . S
C477 O478 1.245 . S
C477 O489 1.232 . S
O478 C477 1.245 . S
O479 Co473 2.058 . S
O479 C505 1.269 . S
O480 Co472 2.074 . S
O480 C505 1.257 . S
H481 C506 0.930 . S
H482 C512 0.930 . S
O483 Co472 2.093 . S
O483 C475 1.224 . S
H484 C516 0.929 . S
H485 C518 0.930 . S
H486 C519 0.930 . S
H487 C517 0.929 . S
H488 C520 0.928 . S
O489 Co473 2.057 . S
O489 C477 1.232 . S
H490 C509 0.929 . S
H491 C510 0.929 . S
H492 C522 0.931 . S
H493 C514 0.929 . S
H494 C523 0.930 . S
H495 C515 0.931 . S
O496 Co472 2.097 . S
O496 C524 1.214 . S
H497 C525 0.929 . S
H498 C526 0.929 . S
H499 C527 0.930 . S
H500 C528 0.929 . S
H501 C530 0.930 . S
H502 C507 0.930 . S
H503 C511 0.930 . S
O504 Co473 2.037 . S
O504 C524 1.234 . S
C505 O479 1.269 . S
C505 O480 1.257 . S
C506 H481 0.930 . S
C506 C509 1.388 . S
C506 C511 1.418 . S
C507 H502 0.930 . S
C507 C510 1.404 . S
C507 C511 1.353 . S
N508 Co473 2.145 . S
N508 C509 1.397 . S
N508 C510 1.334 . S
C509 H490 0.929 . S
C509 C506 1.388 . S
C509 N508 1.397 . S
C510 H491 0.929 . S
C510 C507 1.404 . S
C510 N508 1.334 . S
C511 H503 0.930 . S
C511 C506 1.418 . S
C511 C507 1.353 . S
C512 H482 0.930 . S
C512 N513 1.330 . S
C512 C514 1.446 . S
N513 Co472 2.151 . S
N513 C512 1.330 . S
N513 C517 1.418 . S
C514 H493 0.929 . S
C514 C512 1.446 . S
C514 C515 1.332 . S
C515 H495 0.931 . S
C515 C514 1.332 . S
C515 C516 1.267 . S
C516 H484 0.929 . S
C516 C515 1.267 . S
C516 C517 1.251 . S
C517 H487 0.929 . S
C517 N513 1.418 . S
C517 C516 1.251 . S
C518 H485 0.930 . S
C518 C520 1.406 . S
C518 C523 1.261 . S
C519 H486 0.930 . S
C519 N521 1.325 . S
C519 C522 1.357 . S
C520 H488 0.928 . S
C520 C518 1.406 . S
C520 N521 1.261 . S
N521 Co472 2.214 . S
N521 C519 1.325 . S
N521 C520 1.261 . S
C522 H492 0.931 . S
C522 C519 1.357 . S
C522 C523 1.312 . S
C523 H494 0.930 . S
C523 C518 1.261 . S
C523 C522 1.312 . S
C524 O496 1.214 . S
C524 O504 1.234 . S
C525 H497 0.929 . S
C525 C528 1.391 . S
C525 C530 1.391 . S
C526 H498 0.929 . S
C526 C527 1.390 . S
C526 N529 1.391 . S
C527 H499 0.930 . S
C527 C526 1.390 . S
C527 C528 1.392 . S
C528 H500 0.929 . S
C528 C525 1.391 . S
C528 C527 1.392 . S
N529 Co473 2.257 . S
N529 C526 1.391 . S
N529 C530 1.388 . S
C530 H501 0.930 . S
C530 C525 1.391 . S
C530 N529 1.388 . S
Co531 O533 2.143 . S
Co531 O539 2.074 . S
Co531 O542 2.093 . S
Co531 O555 2.097 . S
Co531 N572 2.151 . S
Co531 N580 2.214 . S
Co532 O533 2.160 . S
Co532 O538 2.058 . S
Co532 O548 2.057 . S
Co532 O563 2.037 . S
Co532 N567 2.145 . S
Co532 N588 2.257 . S
O533 Co531 2.143 . S
O533 Co532 2.160 . S
C534 O535 1.278 . S
C534 O542 1.224 . S
O535 C534 1.278 . S
C536 O537 1.245 . S
C536 O548 1.232 . S
O537 C536 1.245 . S
O538 Co532 2.058 . S
O538 C564 1.269 . S
O539 Co531 2.074 . S
O539 C564 1.257 . S
H540 C565 0.930 . S
H541 C571 0.930 . S
O542 Co531 2.093 . S
O542 C534 1.224 . S
H543 C575 0.929 . S
H544 C577 0.930 . S
H545 C578 0.930 . S
H546 C576 0.929 . S
H547 C579 0.928 . S
O548 Co532 2.057 . S
O548 C536 1.232 . S
H549 C568 0.929 . S
H550 C569 0.929 . S
H551 C581 0.931 . S
H552 C573 0.929 . S
H553 C582 0.930 . S
H554 C574 0.931 . S
O555 Co531 2.097 . S
O555 C583 1.214 . S
H556 C584 0.929 . S
H557 C585 0.929 . S
H558 C586 0.930 . S
H559 C587 0.929 . S
H560 C589 0.930 . S
H561 C566 0.930 . S
H562 C570 0.930 . S
O563 Co532 2.037 . S
O563 C583 1.234 . S
C564 O538 1.269 . S
C564 O539 1.257 . S
C565 H540 0.930 . S
C565 C568 1.388 . S
C565 C570 1.418 . S
C566 H561 0.930 . S
C566 C569 1.404 . S
C566 C570 1.353 . S
N567 Co532 2.145 . S
N567 C568 1.397 . S
N567 C569 1.334 . S
C568 H549 0.929 . S
C568 C565 1.388 . S
C568 N567 1.397 . S
C569 H550 0.929 . S
C569 C566 1.404 . S
C569 N567 1.334 . S
C570 H562 0.930 . S
C570 C565 1.418 . S
C570 C566 1.353 . S
C571 H541 0.930 . S
C571 N572 1.330 . S
C571 C573 1.446 1_655 S
N572 Co531 2.151 . S
N572 C571 1.330 . S
N572 C576 1.418 1_655 S
C573 H552 0.929 . S
C573 C571 1.446 1_455 S
C573 C574 1.332 . S
C574 H554 0.931 . S
C574 C573 1.332 . S
C574 C575 1.267 . S
C575 H543 0.929 . S
C575 C574 1.267 . S
C575 C576 1.251 . S
C576 H546 0.929 . S
C576 N572 1.418 1_455 S
C576 C575 1.251 . S
C577 H544 0.930 . S
C577 C579 1.406 1_455 S
C577 C582 1.261 . S
C578 H545 0.930 . S
C578 N580 1.325 . S
C578 C581 1.357 . S
C579 H547 0.928 . S
C579 C577 1.406 1_655 S
C579 N580 1.261 . S
N580 Co531 2.214 . S
N580 C578 1.325 . S
N580 C579 1.261 . S
C581 H551 0.931 . S
C581 C578 1.357 . S
C581 C582 1.312 1_655 S
C582 H553 0.930 . S
C582 C577 1.261 . S
C582 C581 1.312 1_455 S
C583 O555 1.214 . S
C583 O563 1.234 . S
C584 H556 0.929 . S
C584 C587 1.391 . S
C584 C589 1.391 . S
C585 H557 0.929 . S
C585 C586 1.390 . S
C585 N588 1.391 . S
C586 H558 0.930 . S
C586 C585 1.390 . S
C586 C587 1.392 . S
C587 H559 0.929 . S
C587 C584 1.391 . S
C587 C586 1.392 . S
N588 Co532 2.257 . S
N588 C585 1.391 . S
N588 C589 1.388 . S
C589 H560 0.930 . S
C589 C584 1.391 . S
C589 N588 1.388 . S
Co590 O592 2.143 . S
Co590 O598 2.074 . S
Co590 O601 2.093 . S
Co590 O614 2.097 . S
Co590 N631 2.151 . S
Co590 N639 2.214 . S
Co591 O592 2.160 . S
Co591 O597 2.058 . S
Co591 O607 2.057 . S
Co591 O622 2.037 . S
Co591 N626 2.145 . S
Co591 N647 2.257 . S
O592 Co590 2.143 . S
O592 Co591 2.160 . S
C593 O594 1.278 . S
C593 O601 1.224 . S
O594 C593 1.278 . S
C595 O596 1.245 . S
C595 O607 1.232 . S
O596 C595 1.245 . S
O597 Co591 2.058 . S
O597 C623 1.269 . S
O598 Co590 2.074 . S
O598 C623 1.257 . S
H599 C624 0.930 . S
H600 C630 0.930 . S
O601 Co590 2.093 . S
O601 C593 1.224 . S
H602 C634 0.929 . S
H603 C636 0.930 . S
H604 C637 0.930 . S
H605 C635 0.929 . S
H606 C638 0.928 . S
O607 Co591 2.057 . S
O607 C595 1.232 . S
H608 C627 0.929 . S
H609 C628 0.929 . S
H610 C640 0.931 . S
H611 C632 0.929 . S
H612 C641 0.930 . S
H613 C633 0.931 . S
O614 Co590 2.097 . S
O614 C642 1.214 . S
H615 C643 0.929 . S
H616 C644 0.929 . S
H617 C645 0.930 . S
H618 C646 0.929 . S
H619 C648 0.930 . S
H620 C625 0.930 . S
H621 C629 0.930 . S
O622 Co591 2.037 . S
O622 C642 1.234 . S
C623 O597 1.269 . S
C623 O598 1.257 . S
C624 H599 0.930 . S
C624 C627 1.388 . S
C624 C629 1.418 . S
C625 H620 0.930 . S
C625 C628 1.404 . S
C625 C629 1.353 . S
N626 Co591 2.145 . S
N626 C627 1.397 . S
N626 C628 1.334 . S
C627 H608 0.929 . S
C627 C624 1.388 . S
C627 N626 1.397 . S
C628 H609 0.929 . S
C628 C625 1.404 . S
C628 N626 1.334 . S
C629 H621 0.930 . S
C629 C624 1.418 . S
C629 C625 1.353 . S
C630 H600 0.930 . S
C630 N631 1.330 . S
C630 C632 1.446 . S
N631 Co590 2.151 . S
N631 C630 1.330 . S
N631 C635 1.418 . S
C632 H611 0.929 . S
C632 C630 1.446 . S
C632 C633 1.332 . S
C633 H613 0.931 . S
C633 C632 1.332 . S
C633 C634 1.267 . S
C634 H602 0.929 . S
C634 C633 1.267 . S
C634 C635 1.251 . S
C635 H605 0.929 . S
C635 N631 1.418 . S
C635 C634 1.251 . S
C636 H603 0.930 . S
C636 C638 1.406 . S
C636 C641 1.261 . S
C637 H604 0.930 . S
C637 N639 1.325 . S
C637 C640 1.357 . S
C638 H606 0.928 . S
C638 C636 1.406 . S
C638 N639 1.261 . S
N639 Co590 2.214 . S
N639 C637 1.325 . S
N639 C638 1.261 . S
C640 H610 0.931 . S
C640 C637 1.357 . S
C640 C641 1.312 . S
C641 H612 0.930 . S
C641 C636 1.261 . S
C641 C640 1.312 . S
C642 O614 1.214 . S
C642 O622 1.234 . S
C643 H615 0.929 . S
C643 C646 1.391 1_655 S
C643 C648 1.391 . S
C644 H616 0.929 . S
C644 C645 1.390 1_655 S
C644 N647 1.391 . S
C645 H617 0.930 . S
C645 C644 1.390 1_455 S
C645 C646 1.392 . S
C646 H618 0.929 . S
C646 C643 1.391 1_455 S
C646 C645 1.392 . S
N647 Co591 2.257 . S
N647 C644 1.391 . S
N647 C648 1.388 . S
C648 H619 0.930 . S
C648 C643 1.391 . S
C648 N647 1.388 . S
Co649 O651 2.143 . S
Co649 O657 2.074 . S
Co649 O660 2.093 . S
Co649 O673 2.097 . S
Co649 N690 2.151 . S
Co649 N698 2.214 . S
Co650 O651 2.160 . S
Co650 O656 2.058 . S
Co650 O666 2.057 . S
Co650 O681 2.037 . S
Co650 N685 2.145 . S
Co650 N706 2.257 . S
O651 Co649 2.143 . S
O651 Co650 2.160 . S
C652 O653 1.278 . S
C652 O660 1.224 . S
O653 C652 1.278 . S
C654 O655 1.245 . S
C654 O666 1.232 . S
O655 C654 1.245 . S
O656 Co650 2.058 . S
O656 C682 1.269 . S
O657 Co649 2.074 . S
O657 C682 1.257 . S
H658 C683 0.930 . S
H659 C689 0.930 . S
O660 Co649 2.093 . S
O660 C652 1.224 . S
H661 C693 0.929 . S
H662 C695 0.930 . S
H663 C696 0.930 . S
H664 C694 0.929 . S
H665 C697 0.928 . S
O666 Co650 2.057 . S
O666 C654 1.232 . S
H667 C686 0.929 . S
H668 C687 0.929 . S
H669 C699 0.931 . S
H670 C691 0.930 1_655 S
H671 C700 0.930 . S
H672 C692 0.931 . S
O673 Co649 2.097 . S
O673 C701 1.214 . S
H674 C702 0.929 . S
H675 C703 0.929 . S
H676 C704 0.930 . S
H677 C705 0.929 . S
H678 C707 0.930 . S
H679 C684 0.930 . S
H680 C688 0.930 . S
O681 Co650 2.037 . S
O681 C701 1.234 . S
C682 O656 1.269 . S
C682 O657 1.257 . S
C683 H658 0.930 . S
C683 C686 1.388 . S
C683 C688 1.418 . S
C684 H679 0.930 . S
C684 C687 1.404 . S
C684 C688 1.353 . S
N685 Co650 2.145 . S
N685 C686 1.397 . S
N685 C687 1.334 . S
C686 H667 0.929 . S
C686 C683 1.388 . S
C686 N685 1.397 . S
C687 H668 0.929 . S
C687 C684 1.404 . S
C687 N685 1.334 . S
C688 H680 0.930 . S
C688 C683 1.418 . S
C688 C684 1.353 . S
C689 H659 0.930 . S
C689 N690 1.330 . S
C689 C691 1.433 1_655 S
N690 Co649 2.151 . S
N690 C689 1.330 . S
N690 C694 1.418 1_655 S
C691 H670 0.930 1_455 S
C691 C689 1.433 1_455 S
C691 C692 1.344 . S
C692 H672 0.931 . S
C692 C691 1.344 . S
C692 C693 1.267 . S
C693 H661 0.929 . S
C693 C692 1.267 . S
C693 C694 1.251 . S
C694 H664 0.929 . S
C694 N690 1.418 1_455 S
C694 C693 1.251 . S
C695 H662 0.930 . S
C695 C697 1.406 1_455 S
C695 C700 1.261 . S
C696 H663 0.930 . S
C696 N698 1.325 . S
C696 C699 1.357 . S
C697 H665 0.928 . S
C697 C695 1.406 1_655 S
C697 N698 1.261 . S
N698 Co649 2.214 . S
N698 C696 1.325 . S
N698 C697 1.261 . S
C699 H669 0.931 . S
C699 C696 1.357 . S
C699 C700 1.312 1_655 S
C700 H671 0.930 . S
C700 C695 1.261 . S
C700 C699 1.312 1_455 S
C701 O673 1.214 . S
C701 O681 1.234 . S
C702 H674 0.929 . S
C702 C705 1.391 . S
C702 C707 1.391 . S
C703 H675 0.929 . S
C703 C704 1.390 . S
C703 N706 1.391 . S
C704 H676 0.930 . S
C704 C703 1.390 . S
C704 C705 1.392 . S
C705 H677 0.929 . S
C705 C702 1.391 . S
C705 C704 1.392 . S
N706 Co650 2.257 . S
N706 C703 1.391 . S
N706 C707 1.388 . S
C707 H678 0.930 . S
C707 C702 1.391 . S
C707 N706 1.388 . S
Co708 O710 2.143 . S
Co708 O716 2.074 . S
Co708 O719 2.093 . S
Co708 O732 2.097 . S
Co708 N749 2.151 . S
Co708 N757 2.214 . S
Co709 O710 2.160 . S
Co709 O715 2.058 . S
Co709 O725 2.057 . S
Co709 O740 2.037 . S
Co709 N744 2.145 . S
Co709 N765 2.257 . S
O710 Co708 2.143 . S
O710 Co709 2.160 . S
C711 O712 1.278 . S
C711 O719 1.224 . S
O712 C711 1.278 . S
C713 O714 1.245 . S
C713 O725 1.232 . S
O714 C713 1.245 . S
O715 Co709 2.058 . S
O715 C741 1.269 . S
O716 Co708 2.074 . S
O716 C741 1.257 . S
H717 C742 0.930 . S
H718 C748 0.930 . S
O719 Co708 2.093 . S
O719 C711 1.224 . S
H720 C752 0.929 . S
H721 C754 0.930 . S
H722 C755 0.930 . S
H723 C753 0.929 . S
H724 C756 0.928 . S
O725 Co709 2.057 . S
O725 C713 1.232 . S
H726 C745 0.929 . S
H727 C746 0.929 . S
H728 C758 0.931 . S
H729 C750 0.929 . S
H730 C759 0.930 . S
H731 C751 0.931 . S
O732 Co708 2.097 . S
O732 C760 1.214 . S
H733 C761 0.929 . S
H734 C762 0.929 . S
H735 C763 0.930 . S
H736 C764 0.929 . S
H737 C766 0.930 . S
H738 C743 0.930 . S
H739 C747 0.930 . S
O740 Co709 2.037 . S
O740 C760 1.234 . S
C741 O715 1.269 . S
C741 O716 1.257 . S
C742 H717 0.930 . S
C742 C745 1.388 . S
C742 C747 1.418 . S
C743 H738 0.930 . S
C743 C746 1.404 . S
C743 C747 1.353 . S
N744 Co709 2.145 . S
N744 C745 1.397 . S
N744 C746 1.334 . S
C745 H726 0.929 . S
C745 C742 1.388 . S
C745 N744 1.397 . S
C746 H727 0.929 . S
C746 C743 1.404 . S
C746 N744 1.334 . S
C747 H739 0.930 . S
C747 C742 1.418 . S
C747 C743 1.353 . S
C748 H718 0.930 . S
C748 N749 1.330 . S
C748 C750 1.446 . S
N749 Co708 2.151 . S
N749 C748 1.330 . S
N749 C753 1.418 . S
C750 H729 0.929 . S
C750 C748 1.446 . S
C750 C751 1.332 . S
C751 H731 0.931 . S
C751 C750 1.332 . S
C751 C752 1.267 . S
C752 H720 0.929 . S
C752 C751 1.267 . S
C752 C753 1.251 . S
C753 H723 0.929 . S
C753 N749 1.418 . S
C753 C752 1.251 . S
C754 H721 0.930 . S
C754 C756 1.406 . S
C754 C759 1.261 . S
C755 H722 0.930 . S
C755 N757 1.325 . S
C755 C758 1.357 . S
C756 H724 0.928 . S
C756 C754 1.406 . S
C756 N757 1.261 . S
N757 Co708 2.214 . S
N757 C755 1.325 . S
N757 C756 1.261 . S
C758 H728 0.931 . S
C758 C755 1.357 . S
C758 C759 1.312 . S
C759 H730 0.930 . S
C759 C754 1.261 . S
C759 C758 1.312 . S
C760 O732 1.214 . S
C760 O740 1.234 . S
C761 H733 0.929 . S
C761 C764 1.391 . S
C761 C766 1.391 . S
C762 H734 0.929 . S
C762 C763 1.390 . S
C762 N765 1.391 . S
C763 H735 0.930 . S
C763 C762 1.390 . S
C763 C764 1.392 . S
C764 H736 0.929 . S
C764 C761 1.391 . S
C764 C763 1.392 . S
N765 Co709 2.257 . S
N765 C762 1.391 . S
N765 C766 1.388 . S
C766 H737 0.930 . S
C766 C761 1.391 . S
C766 N765 1.388 . S
Co767 O769 2.143 . S
Co767 O775 2.074 . S
Co767 O778 2.093 1_655 S
Co767 O791 2.097 1_655 S
Co767 N808 2.151 . S
Co767 N816 2.214 . S
Co768 O769 2.160 . S
Co768 O774 2.058 . S
Co768 O784 2.057 . S
Co768 O799 2.037 . S
Co768 N803 2.145 . S
Co768 N824 2.257 1_655 S
O769 Co767 2.143 . S
O769 Co768 2.160 . S
C770 O771 1.278 . S
C770 O778 1.224 . S
O771 C770 1.278 . S
C772 O773 1.245 . S
C772 O784 1.232 . S
O773 C772 1.245 . S
O774 Co768 2.058 . S
O774 C800 1.269 . S
O775 Co767 2.074 . S
O775 C800 1.257 . S
H776 C801 0.930 . S
H777 C807 0.930 . S
O778 Co767 2.093 1_455 S
O778 C770 1.224 . S
H779 C811 0.929 . S
H780 C813 0.930 . S
H781 C814 0.930 . S
H782 C812 0.929 . S
H783 C815 0.928 . S
O784 Co768 2.057 . S
O784 C772 1.232 . S
H785 C804 0.929 . S
H786 C805 0.937 . S
H787 C817 0.931 . S
H788 C809 0.929 . S
H789 C818 0.930 . S
H790 C810 0.931 . S
O791 Co767 2.097 1_455 S
O791 C819 1.214 . S
H792 C820 0.929 . S
H793 C821 0.929 . S
H794 C822 0.930 . S
H795 C823 0.929 . S
H796 C825 0.930 1_655 S
H797 C802 0.930 . S
H798 C806 0.930 . S
O799 Co768 2.037 . S
O799 C819 1.234 1_655 S
C800 O774 1.269 . S
C800 O775 1.257 . S
C801 H776 0.930 . S
C801 C804 1.388 1_545 S
C801 C806 1.418 . S
C802 H797 0.930 . S
C802 C805 1.380 1_545 S
C802 C806 1.353 . S
N803 Co768 2.145 . S
N803 C804 1.397 . S
N803 C805 1.350 . S
C804 H785 0.929 . S
C804 C801 1.388 1_565 S
C804 N803 1.397 . S
C805 H786 0.937 . S
C805 C802 1.380 1_565 S
C805 N803 1.350 . S
C806 H798 0.930 . S
C806 C801 1.418 . S
C806 C802 1.353 . S
C807 H777 0.930 . S
C807 N808 1.330 . S
C807 C809 1.446 . S
N808 Co767 2.151 . S
N808 C807 1.330 . S
N808 C812 1.418 . S
C809 H788 0.929 . S
C809 C807 1.446 . S
C809 C810 1.332 . S
C810 H790 0.931 . S
C810 C809 1.332 . S
C810 C811 1.267 . S
C811 H779 0.929 . S
C811 C810 1.267 . S
C811 C812 1.251 . S
C812 H782 0.929 . S
C812 N808 1.418 . S
C812 C811 1.251 . S
C813 H780 0.930 . S
C813 C815 1.406 . S
C813 C818 1.261 . S
C814 H781 0.930 . S
C814 N816 1.325 . S
C814 C817 1.357 . S
C815 H783 0.928 . S
C815 C813 1.406 . S
C815 N816 1.261 . S
N816 Co767 2.214 . S
N816 C814 1.325 . S
N816 C815 1.261 . S
C817 H787 0.931 . S
C817 C814 1.357 . S
C817 C818 1.312 . S
C818 H789 0.930 . S
C818 C813 1.261 . S
C818 C817 1.312 . S
C819 O791 1.214 . S
C819 O799 1.234 1_455 S
C820 H792 0.929 . S
C820 C823 1.391 . S
C820 C825 1.391 . S
C821 H793 0.929 . S
C821 C822 1.390 . S
C821 N824 1.391 . S
C822 H794 0.930 . S
C822 C821 1.390 . S
C822 C823 1.392 . S
C823 H795 0.929 . S
C823 C820 1.391 . S
C823 C822 1.392 . S
N824 Co768 2.257 1_455 S
N824 C821 1.391 . S
N824 C825 1.388 . S
C825 H796 0.930 1_455 S
C825 C820 1.391 . S
C825 N824 1.388 . S
Co826 O828 2.143 . S
Co826 O834 2.074 . S
Co826 O837 2.093 . S
Co826 O850 2.097 . S
Co826 N867 2.151 . S
Co826 N875 2.214 . S
Co827 O828 2.160 . S
Co827 O833 2.058 . S
Co827 O843 2.057 . S
Co827 O858 2.037 . S
Co827 N862 2.145 . S
Co827 N883 2.257 . S
O828 Co826 2.143 . S
O828 Co827 2.160 . S
C829 O830 1.278 . S
C829 O837 1.224 . S
O830 C829 1.278 . S
C831 O832 1.245 . S
C831 O843 1.232 . S
O832 C831 1.245 . S
O833 Co827 2.058 . S
O833 C859 1.269 . S
O834 Co826 2.074 . S
O834 C859 1.257 . S
H835 C860 0.930 . S
H836 C866 0.930 . S
O837 Co826 2.093 . S
O837 C829 1.224 . S
H838 C870 0.929 . S
H839 C872 0.930 . S
H840 C873 0.930 . S
H841 C871 0.929 . S
H842 C874 0.928 . S
O843 Co827 2.057 . S
O843 C831 1.232 . S
H844 C863 0.929 . S
H845 C864 0.929 . S
H846 C876 0.931 . S
H847 C868 0.929 . S
H848 C877 0.930 . S
H849 C869 0.931 . S
O850 Co826 2.097 . S
O850 C878 1.214 . S
H851 C879 0.929 . S
H852 C880 0.929 . S
H853 C881 0.930 . S
H854 C882 0.929 . S
H855 C884 0.930 . S
H856 C861 0.930 . S
H857 C865 0.930 . S
O858 Co827 2.037 . S
O858 C878 1.234 . S
C859 O833 1.269 . S
C859 O834 1.257 . S
C860 H835 0.930 . S
C860 C863 1.388 . S
C860 C865 1.418 . S
C861 H856 0.930 . S
C861 C864 1.404 . S
C861 C865 1.353 . S
N862 Co827 2.145 . S
N862 C863 1.397 . S
N862 C864 1.334 . S
C863 H844 0.929 . S
C863 C860 1.388 . S
C863 N862 1.397 . S
C864 H845 0.929 . S
C864 C861 1.404 . S
C864 N862 1.334 . S
C865 H857 0.930 . S
C865 C860 1.418 . S
C865 C861 1.353 . S
C866 H836 0.930 . S
C866 N867 1.330 . S
C866 C868 1.446 . S
N867 Co826 2.151 . S
N867 C866 1.330 . S
N867 C871 1.418 . S
C868 H847 0.929 . S
C868 C866 1.446 . S
C868 C869 1.332 . S
C869 H849 0.931 . S
C869 C868 1.332 . S
C869 C870 1.267 . S
C870 H838 0.929 . S
C870 C869 1.267 . S
C870 C871 1.251 . S
C871 H841 0.929 . S
C871 N867 1.418 . S
C871 C870 1.251 . S
C872 H839 0.930 . S
C872 C874 1.406 . S
C872 C877 1.261 . S
C873 H840 0.930 . S
C873 N875 1.325 . S
C873 C876 1.357 . S
C874 H842 0.928 . S
C874 C872 1.406 . S
C874 N875 1.261 . S
N875 Co826 2.214 . S
N875 C873 1.325 . S
N875 C874 1.261 . S
C876 H846 0.931 . S
C876 C873 1.357 . S
C876 C877 1.312 . S
C877 H848 0.930 . S
C877 C872 1.261 . S
C877 C876 1.312 . S
C878 O850 1.214 . S
C878 O858 1.234 . S
C879 H851 0.929 . S
C879 C882 1.391 . S
C879 C884 1.391 . S
C880 H852 0.929 . S
C880 C881 1.390 . S
C880 N883 1.391 . S
C881 H853 0.930 . S
C881 C880 1.390 . S
C881 C882 1.392 . S
C882 H854 0.929 . S
C882 C879 1.391 . S
C882 C881 1.392 . S
N883 Co827 2.257 . S
N883 C880 1.391 . S
N883 C884 1.388 . S
C884 H855 0.930 . S
C884 C879 1.391 . S
C884 N883 1.388 . S
Co885 O887 2.143 . S
Co885 O893 2.074 . S
Co885 O896 2.093 . S
Co885 O909 2.097 . S
Co885 N926 2.151 . S
Co885 N934 2.214 . S
Co886 O887 2.160 . S
Co886 O892 2.058 . S
Co886 O902 2.057 . S
Co886 O917 2.037 . S
Co886 N921 2.145 . S
Co886 N942 2.257 . S
O887 Co885 2.143 . S
O887 Co886 2.160 . S
C888 O889 1.278 . S
C888 O896 1.224 . S
O889 C888 1.278 . S
C890 O891 1.245 . S
C890 O902 1.232 . S
O891 C890 1.245 . S
O892 Co886 2.058 . S
O892 C918 1.269 . S
O893 Co885 2.074 . S
O893 C918 1.257 . S
H894 C919 0.930 . S
H895 C925 0.930 . S
O896 Co885 2.093 . S
O896 C888 1.224 . S
H897 C929 0.929 . S
H898 C931 0.930 . S
H899 C932 0.930 . S
H900 C930 0.929 . S
H901 C933 0.928 . S
O902 Co886 2.057 . S
O902 C890 1.232 . S
H903 C922 0.929 . S
H904 C923 0.937 . S
H905 C935 0.931 . S
H906 C927 0.929 . S
H907 C936 0.930 . S
H908 C928 0.931 . S
O909 Co885 2.097 . S
O909 C937 1.214 . S
H910 C938 0.929 . S
H911 C939 0.929 . S
H912 C940 0.930 . S
H913 C941 0.929 . S
H914 C943 0.930 . S
H915 C920 0.930 . S
H916 C924 0.930 . S
O917 Co886 2.037 . S
O917 C937 1.234 . S
C918 O892 1.269 . S
C918 O893 1.257 . S
C919 H894 0.930 . S
C919 C922 1.388 1_565 S
C919 C924 1.418 . S
C920 H915 0.930 . S
C920 C923 1.380 1_565 S
C920 C924 1.353 . S
N921 Co886 2.145 . S
N921 C922 1.397 . S
N921 C923 1.350 . S
C922 H903 0.929 . S
C922 C919 1.388 1_545 S
C922 N921 1.397 . S
C923 H904 0.937 . S
C923 C920 1.380 1_545 S
C923 N921 1.350 . S
C924 H916 0.930 . S
C924 C919 1.418 . S
C924 C920 1.353 . S
C925 H895 0.930 . S
C925 N926 1.330 . S
C925 C927 1.446 . S
N926 Co885 2.151 . S
N926 C925 1.330 . S
N926 C930 1.418 . S
C927 H906 0.929 . S
C927 C925 1.446 . S
C927 C928 1.332 . S
C928 H908 0.931 . S
C928 C927 1.332 . S
C928 C929 1.267 . S
C929 H897 0.929 . S
C929 C928 1.267 . S
C929 C930 1.251 . S
C930 H900 0.929 . S
C930 N926 1.418 . S
C930 C929 1.251 . S
C931 H898 0.930 . S
C931 C933 1.406 . S
C931 C936 1.261 . S
C932 H899 0.930 . S
C932 N934 1.325 . S
C932 C935 1.357 . S
C933 H901 0.928 . S
C933 C931 1.406 . S
C933 N934 1.261 . S
N934 Co885 2.214 . S
N934 C932 1.325 . S
N934 C933 1.261 . S
C935 H905 0.931 . S
C935 C932 1.357 . S
C935 C936 1.312 . S
C936 H907 0.930 . S
C936 C931 1.261 . S
C936 C935 1.312 . S
C937 O909 1.214 . S
C937 O917 1.234 . S
C938 H910 0.929 . S
C938 C941 1.391 . S
C938 C943 1.391 . S
C939 H911 0.929 . S
C939 C940 1.390 . S
C939 N942 1.391 . S
C940 H912 0.930 . S
C940 C939 1.390 . S
C940 C941 1.392 . S
C941 H913 0.929 . S
C941 C938 1.391 . S
C941 C940 1.392 . S
N942 Co886 2.257 . S
N942 C939 1.391 . S
N942 C943 1.388 . S
C943 H914 0.930 . S
C943 C938 1.391 . S
C943 N942 1.388 . S
Co944 O946 2.143 . S
Co944 O952 2.074 . S
Co944 O955 2.093 . S
Co944 O968 2.097 . S
Co944 N985 2.151 . S
Co944 N993 2.214 . S
Co945 O946 2.160 . S
Co945 O951 2.058 . S
Co945 O961 2.057 . S
Co945 O976 2.037 . S
Co945 N980 2.145 . S
Co945 N1001 2.257 . S
O946 Co944 2.143 . S
O946 Co945 2.160 . S
C947 O948 1.278 . S
C947 O955 1.224 . S
O948 C947 1.278 . S
C949 O950 1.245 . S
C949 O961 1.232 . S
O950 C949 1.245 . S
O951 Co945 2.058 . S
O951 C977 1.269 . S
O952 Co944 2.074 . S
O952 C977 1.257 . S
H953 C978 0.930 . S
H954 C984 0.930 . S
O955 Co944 2.093 . S
O955 C947 1.224 . S
H956 C988 0.929 . S
H957 C990 0.930 . S
H958 C991 0.930 . S
H959 C989 0.929 . S
H960 C992 0.928 . S
O961 Co945 2.057 . S
O961 C949 1.232 . S
H962 C981 0.929 . S
H963 C982 0.929 . S
H964 C994 0.931 . S
H965 C986 0.929 . S
H966 C995 0.930 . S
H967 C987 0.931 . S
O968 Co944 2.097 . S
O968 C996 1.214 . S
H969 C997 0.929 . S
H970 C998 0.929 . S
H971 C999 0.930 . S
H972 C1000 0.929 . S
H973 C1002 0.930 . S
H974 C979 0.930 . S
H975 C983 0.930 . S
O976 Co945 2.037 . S
O976 C996 1.234 . S
C977 O951 1.269 . S
C977 O952 1.257 . S
C978 H953 0.930 . S
C978 C981 1.388 . S
C978 C983 1.418 . S
C979 H974 0.930 . S
C979 C982 1.404 . S
C979 C983 1.353 . S
N980 Co945 2.145 . S
N980 C981 1.397 . S
N980 C982 1.334 . S
C981 H962 0.929 . S
C981 C978 1.388 . S
C981 N980 1.397 . S
C982 H963 0.929 . S
C982 C979 1.404 . S
C982 N980 1.334 . S
C983 H975 0.930 . S
C983 C978 1.418 . S
C983 C979 1.353 . S
C984 H954 0.930 . S
C984 N985 1.330 . S
C984 C986 1.446 . S
N985 Co944 2.151 . S
N985 C984 1.330 . S
N985 C989 1.418 . S
C986 H965 0.929 . S
C986 C984 1.446 . S
C986 C987 1.332 . S
C987 H967 0.931 . S
C987 C986 1.332 . S
C987 C988 1.267 . S
C988 H956 0.929 . S
C988 C987 1.267 . S
C988 C989 1.251 . S
C989 H959 0.929 . S
C989 N985 1.418 . S
C989 C988 1.251 . S
C990 H957 0.930 . S
C990 C992 1.406 . S
C990 C995 1.261 . S
C991 H958 0.930 . S
C991 N993 1.325 . S
C991 C994 1.357 . S
C992 H960 0.928 . S
C992 C990 1.406 . S
C992 N993 1.261 . S
N993 Co944 2.214 . S
N993 C991 1.325 . S
N993 C992 1.261 . S
C994 H964 0.931 . S
C994 C991 1.357 . S
C994 C995 1.312 . S
C995 H966 0.930 . S
C995 C990 1.261 . S
C995 C994 1.312 . S
C996 O968 1.214 . S
C996 O976 1.234 . S
C997 H969 0.929 . S
C997 C1000 1.391 . S
C997 C1002 1.391 . S
C998 H970 0.929 . S
C998 C999 1.390 . S
C998 N1001 1.391 . S
C999 H971 0.930 . S
C999 C998 1.390 . S
C999 C1000 1.392 . S
C1000 H972 0.929 . S
C1000 C997 1.391 . S
C1000 C999 1.392 . S
N1001 Co945 2.257 . S
N1001 C998 1.391 . S
N1001 C1002 1.388 . S
C1002 H973 0.930 . S
C1002 C997 1.391 . S
C1002 N1001 1.388 . S
Co1003 O1005 2.143 . S
Co1003 O1011 2.074 . S
Co1003 O1014 2.093 . S
Co1003 O1027 2.097 . S
Co1003 N1044 2.151 . S
Co1003 N1052 2.214 . S
Co1004 O1005 2.160 . S
Co1004 O1010 2.058 . S
Co1004 O1020 2.057 . S
Co1004 O1035 2.037 . S
Co1004 N1039 2.145 . S
Co1004 N1060 2.257 . S
O1005 Co1003 2.143 . S
O1005 Co1004 2.160 . S
C1006 O1007 1.278 . S
C1006 O1014 1.224 . S
O1007 C1006 1.278 . S
C1008 O1009 1.245 . S
C1008 O1020 1.232 . S
O1009 C1008 1.245 . S
O1010 Co1004 2.058 . S
O1010 C1036 1.269 . S
O1011 Co1003 2.074 . S
O1011 C1036 1.257 . S
H1012 C1037 0.931 . S
H1013 C1043 0.930 . S
O1014 Co1003 2.093 . S
O1014 C1006 1.224 . S
H1015 C1047 0.929 . S
H1016 C1049 0.930 . S
H1017 C1050 0.930 . S
H1018 C1048 0.929 . S
H1019 C1051 0.928 . S
O1020 Co1004 2.057 . S
O1020 C1008 1.232 . S
H1021 C1040 0.929 . S
H1022 C1041 0.929 . S
H1023 C1053 0.931 1_565 S
H1024 C1045 0.929 . S
H1025 C1054 0.930 1_565 S
H1026 C1046 0.931 . S
O1027 Co1003 2.097 . S
O1027 C1055 1.214 . S
H1028 C1056 0.929 . S
H1029 C1057 0.929 . S
H1030 C1058 0.930 . S
H1031 C1059 0.929 . S
H1032 C1061 0.930 . S
H1033 C1038 0.930 . S
H1034 C1042 0.930 . S
O1035 Co1004 2.037 . S
O1035 C1055 1.234 . S
C1036 O1010 1.269 . S
C1036 O1011 1.257 . S
C1037 H1012 0.931 . S
C1037 C1040 1.386 1_455 S
C1037 C1042 1.419 . S
C1038 H1033 0.930 . S
C1038 C1041 1.404 1_455 S
C1038 C1042 1.353 . S
N1039 Co1004 2.145 . S
N1039 C1040 1.397 . S
N1039 C1041 1.334 . S
C1040 H1021 0.929 . S
C1040 C1037 1.386 1_655 S
C1040 N1039 1.397 . S
C1041 H1022 0.929 . S
C1041 C1038 1.404 1_655 S
C1041 N1039 1.334 . S
C1042 H1034 0.930 . S
C1042 C1037 1.419 . S
C1042 C1038 1.353 . S
C1043 H1013 0.930 . S
C1043 N1044 1.330 . S
C1043 C1045 1.446 . S
N1044 Co1003 2.151 . S
N1044 C1043 1.330 . S
N1044 C1048 1.418 . S
C1045 H1024 0.929 . S
C1045 C1043 1.446 . S
C1045 C1046 1.332 . S
C1046 H1026 0.931 . S
C1046 C1045 1.332 . S
C1046 C1047 1.267 . S
C1047 H1015 0.929 . S
C1047 C1046 1.267 . S
C1047 C1048 1.251 . S
C1048 H1018 0.929 . S
C1048 N1044 1.418 . S
C1048 C1047 1.251 . S
C1049 H1016 0.930 . S
C1049 C1051 1.406 . S
C1049 C1054 1.261 . S
C1050 H1017 0.930 . S
C1050 N1052 1.325 . S
C1050 C1053 1.357 . S
C1051 H1019 0.928 . S
C1051 C1049 1.406 . S
C1051 N1052 1.261 . S
N1052 Co1003 2.214 . S
N1052 C1050 1.325 . S
N1052 C1051 1.261 . S
C1053 H1023 0.931 1_545 S
C1053 C1050 1.357 . S
C1053 C1054 1.312 . S
C1054 H1025 0.930 1_545 S
C1054 C1049 1.261 . S
C1054 C1053 1.312 . S
C1055 O1027 1.214 . S
C1055 O1035 1.234 . S
C1056 H1028 0.929 . S
C1056 C1059 1.391 . S
C1056 C1061 1.391 . S
C1057 H1029 0.929 . S
C1057 C1058 1.390 . S
C1057 N1060 1.391 . S
C1058 H1030 0.930 . S
C1058 C1057 1.390 . S
C1058 C1059 1.392 . S
C1059 H1031 0.929 . S
C1059 C1056 1.391 . S
C1059 C1058 1.392 . S
N1060 Co1004 2.257 . S
N1060 C1057 1.391 . S
N1060 C1061 1.388 . S
C1061 H1032 0.930 . S
C1061 C1056 1.391 . S
C1061 N1060 1.388 . S
Co1062 O1064 2.143 . S
Co1062 O1070 2.074 . S
Co1062 O1073 2.093 . S
Co1062 O1086 2.097 . S
Co1062 N1103 2.151 . S
Co1062 N1111 2.214 . S
Co1063 O1064 2.160 . S
Co1063 O1069 2.058 . S
Co1063 O1079 2.057 . S
Co1063 O1094 2.037 . S
Co1063 N1098 2.145 . S
Co1063 N1119 2.257 . S
O1064 Co1062 2.143 . S
O1064 Co1063 2.160 . S
C1065 O1066 1.278 . S
C1065 O1073 1.224 . S
O1066 C1065 1.278 . S
C1067 O1068 1.245 . S
C1067 O1079 1.232 . S
O1068 C1067 1.245 . S
O1069 Co1063 2.058 . S
O1069 C1095 1.269 . S
O1070 Co1062 2.074 . S
O1070 C1095 1.257 . S
H1071 C1096 0.930 . S
H1072 C1102 0.930 . S
O1073 Co1062 2.093 . S
O1073 C1065 1.224 . S
H1074 C1106 0.929 . S
H1075 C1108 0.930 . S
H1076 C1109 0.930 . S
H1077 C1107 0.929 . S
H1078 C1110 0.928 . S
O1079 Co1063 2.057 . S
O1079 C1067 1.232 . S
H1080 C1099 0.929 . S
H1081 C1100 0.929 . S
H1082 C1112 0.931 . S
H1083 C1104 0.929 . S
H1084 C1113 0.930 . S
H1085 C1105 0.931 . S
O1086 Co1062 2.097 . S
O1086 C1114 1.214 . S
H1087 C1115 0.929 . S
H1088 C1116 0.929 . S
H1089 C1117 0.930 . S
H1090 C1118 0.929 . S
H1091 C1120 0.930 . S
H1092 C1097 0.930 . S
H1093 C1101 0.930 . S
O1094 Co1063 2.037 . S
O1094 C1114 1.234 . S
C1095 O1069 1.269 . S
C1095 O1070 1.257 . S
C1096 H1071 0.930 . S
C1096 C1099 1.388 . S
C1096 C1101 1.418 . S
C1097 H1092 0.930 . S
C1097 C1100 1.404 . S
C1097 C1101 1.353 . S
N1098 Co1063 2.145 . S
N1098 C1099 1.397 . S
N1098 C1100 1.334 . S
C1099 H1080 0.929 . S
C1099 C1096 1.388 . S
C1099 N1098 1.397 . S
C1100 H1081 0.929 . S
C1100 C1097 1.404 . S
C1100 N1098 1.334 . S
C1101 H1093 0.930 . S
C1101 C1096 1.418 . S
C1101 C1097 1.353 . S
C1102 H1072 0.930 . S
C1102 N1103 1.330 . S
C1102 C1104 1.446 . S
N1103 Co1062 2.151 . S
N1103 C1102 1.330 . S
N1103 C1107 1.418 . S
C1104 H1083 0.929 . S
C1104 C1102 1.446 . S
C1104 C1105 1.332 . S
C1105 H1085 0.931 . S
C1105 C1104 1.332 . S
C1105 C1106 1.267 . S
C1106 H1074 0.929 . S
C1106 C1105 1.267 . S
C1106 C1107 1.251 . S
C1107 H1077 0.929 . S
C1107 N1103 1.418 . S
C1107 C1106 1.251 . S
C1108 H1075 0.930 . S
C1108 C1110 1.406 . S
C1108 C1113 1.261 . S
C1109 H1076 0.930 . S
C1109 N1111 1.325 . S
C1109 C1112 1.357 . S
C1110 H1078 0.928 . S
C1110 C1108 1.406 . S
C1110 N1111 1.261 . S
N1111 Co1062 2.214 . S
N1111 C1109 1.325 . S
N1111 C1110 1.261 . S
C1112 H1082 0.931 . S
C1112 C1109 1.357 . S
C1112 C1113 1.312 . S
C1113 H1084 0.930 . S
C1113 C1108 1.261 . S
C1113 C1112 1.312 . S
C1114 O1086 1.214 . S
C1114 O1094 1.234 . S
C1115 H1087 0.929 . S
C1115 C1118 1.391 . S
C1115 C1120 1.391 . S
C1116 H1088 0.929 . S
C1116 C1117 1.390 . S
C1116 N1119 1.391 . S
C1117 H1089 0.930 . S
C1117 C1116 1.390 . S
C1117 C1118 1.392 . S
C1118 H1090 0.929 . S
C1118 C1115 1.391 . S
C1118 C1117 1.392 . S
N1119 Co1063 2.257 . S
N1119 C1116 1.391 . S
N1119 C1120 1.388 . S
C1120 H1091 0.930 . S
C1120 C1115 1.391 . S
C1120 N1119 1.388 . S
Co1121 O1123 2.143 . S
Co1121 O1129 2.074 . S
Co1121 O1132 2.093 . S
Co1121 O1145 2.097 . S
Co1121 N1162 2.151 . S
Co1121 N1170 2.214 . S
Co1122 O1123 2.160 . S
Co1122 O1128 2.058 . S
Co1122 O1138 2.057 . S
Co1122 O1153 2.037 . S
Co1122 N1157 2.145 . S
Co1122 N1178 2.257 . S
O1123 Co1121 2.143 . S
O1123 Co1122 2.160 . S
C1124 O1125 1.278 . S
C1124 O1132 1.224 . S
O1125 C1124 1.278 . S
C1126 O1127 1.245 . S
C1126 O1138 1.232 . S
O1127 C1126 1.245 . S
O1128 Co1122 2.058 . S
O1128 C1154 1.269 . S
O1129 Co1121 2.074 . S
O1129 C1154 1.257 . S
H1130 C1155 0.930 . S
H1131 C1161 0.930 . S
O1132 Co1121 2.093 . S
O1132 C1124 1.224 . S
H1133 C1165 0.929 . S
H1134 C1167 0.930 . S
H1135 C1168 0.930 . S
H1136 C1166 0.929 . S
H1137 C1169 0.928 . S
O1138 Co1122 2.057 . S
O1138 C1126 1.232 . S
H1139 C1158 0.929 . S
H1140 C1159 0.929 . S
H1141 C1171 0.931 1_545 S
H1142 C1163 0.929 . S
H1143 C1172 0.930 1_545 S
H1144 C1164 0.931 . S
O1145 Co1121 2.097 . S
O1145 C1173 1.214 . S
H1146 C1174 0.929 . S
H1147 C1175 0.929 . S
H1148 C1176 0.930 . S
H1149 C1177 0.929 . S
H1150 C1179 0.930 . S
H1151 C1156 0.930 . S
H1152 C1160 0.930 . S
O1153 Co1122 2.037 . S
O1153 C1173 1.234 . S
C1154 O1128 1.269 . S
C1154 O1129 1.257 . S
C1155 H1130 0.930 . S
C1155 C1158 1.388 . S
C1155 C1160 1.418 . S
C1156 H1151 0.930 . S
C1156 C1159 1.404 . S
C1156 C1160 1.353 . S
N1157 Co1122 2.145 . S
N1157 C1158 1.397 . S
N1157 C1159 1.334 . S
C1158 H1139 0.929 . S
C1158 C1155 1.388 . S
C1158 N1157 1.397 . S
C1159 H1140 0.929 . S
C1159 C1156 1.404 . S
C1159 N1157 1.334 . S
C1160 H1152 0.930 . S
C1160 C1155 1.418 . S
C1160 C1156 1.353 . S
C1161 H1131 0.930 . S
C1161 N1162 1.330 . S
C1161 C1163 1.446 . S
N1162 Co1121 2.151 . S
N1162 C1161 1.330 . S
N1162 C1166 1.418 . S
C1163 H1142 0.929 . S
C1163 C1161 1.446 . S
C1163 C1164 1.332 . S
C1164 H1144 0.931 . S
C1164 C1163 1.332 . S
C1164 C1165 1.267 . S
C1165 H1133 0.929 . S
C1165 C1164 1.267 . S
C1165 C1166 1.251 . S
C1166 H1136 0.929 . S
C1166 N1162 1.418 . S
C1166 C1165 1.251 . S
C1167 H1134 0.930 . S
C1167 C1169 1.406 . S
C1167 C1172 1.261 . S
C1168 H1135 0.930 . S
C1168 N1170 1.325 . S
C1168 C1171 1.357 . S
C1169 H1137 0.928 . S
C1169 C1167 1.406 . S
C1169 N1170 1.261 . S
N1170 Co1121 2.214 . S
N1170 C1168 1.325 . S
N1170 C1169 1.261 . S
C1171 H1141 0.931 1_565 S
C1171 C1168 1.357 . S
C1171 C1172 1.312 . S
C1172 H1143 0.930 1_565 S
C1172 C1167 1.261 . S
C1172 C1171 1.312 . S
C1173 O1145 1.214 . S
C1173 O1153 1.234 . S
C1174 H1146 0.929 . S
C1174 C1177 1.391 . S
C1174 C1179 1.391 . S
C1175 H1147 0.929 . S
C1175 C1176 1.390 . S
C1175 N1178 1.391 . S
C1176 H1148 0.930 . S
C1176 C1175 1.390 . S
C1176 C1177 1.392 . S
C1177 H1149 0.929 . S
C1177 C1174 1.391 . S
C1177 C1176 1.392 . S
N1178 Co1122 2.257 . S
N1178 C1175 1.391 . S
N1178 C1179 1.388 . S
C1179 H1150 0.930 . S
C1179 C1174 1.391 . S
C1179 N1178 1.388 . S
Co1180 O1182 2.143 . S
Co1180 O1188 2.074 . S
Co1180 O1191 2.093 . S
Co1180 O1204 2.097 . S
Co1180 N1221 2.151 . S
Co1180 N1229 2.214 . S
Co1181 O1182 2.160 . S
Co1181 O1187 2.058 . S
Co1181 O1197 2.057 . S
Co1181 O1212 2.037 . S
Co1181 N1216 2.145 . S
Co1181 N1237 2.257 . S
O1182 Co1180 2.143 . S
O1182 Co1181 2.160 . S
C1183 O1184 1.278 . S
C1183 O1191 1.224 . S
O1184 C1183 1.278 . S
C1185 O1186 1.245 . S
C1185 O1197 1.232 . S
O1186 C1185 1.245 . S
O1187 Co1181 2.058 . S
O1187 C1213 1.269 . S
O1188 Co1180 2.074 . S
O1188 C1213 1.257 . S
H1189 C1214 0.930 . S
H1190 C1220 0.930 . S
O1191 Co1180 2.093 . S
O1191 C1183 1.224 . S
H1192 C1224 0.929 . S
H1193 C1226 0.930 . S
H1194 C1227 0.930 . S
H1195 C1225 0.929 . S
H1196 C1228 0.928 . S
O1197 Co1181 2.057 . S
O1197 C1185 1.232 . S
H1198 C1217 0.929 . S
H1199 C1218 0.929 . S
H1200 C1230 0.931 . S
H1201 C1222 0.929 . S
H1202 C1231 0.930 . S
H1203 C1223 0.931 . S
O1204 Co1180 2.097 . S
O1204 C1232 1.214 . S
H1205 C1233 0.929 . S
H1206 C1234 0.929 . S
H1207 C1235 0.930 . S
H1208 C1236 0.929 . S
H1209 C1238 0.930 . S
H1210 C1215 0.930 . S
H1211 C1219 0.930 . S
O1212 Co1181 2.037 . S
O1212 C1232 1.234 . S
C1213 O1187 1.269 . S
C1213 O1188 1.257 . S
C1214 H1189 0.930 . S
C1214 C1217 1.388 . S
C1214 C1219 1.418 . S
C1215 H1210 0.930 . S
C1215 C1218 1.404 . S
C1215 C1219 1.353 . S
N1216 Co1181 2.145 . S
N1216 C1217 1.397 . S
N1216 C1218 1.334 . S
C1217 H1198 0.929 . S
C1217 C1214 1.388 . S
C1217 N1216 1.397 . S
C1218 H1199 0.929 . S
C1218 C1215 1.404 . S
C1218 N1216 1.334 . S
C1219 H1211 0.930 . S
C1219 C1214 1.418 . S
C1219 C1215 1.353 . S
C1220 H1190 0.930 . S
C1220 N1221 1.330 . S
C1220 C1222 1.446 . S
N1221 Co1180 2.151 . S
N1221 C1220 1.330 . S
N1221 C1225 1.418 . S
C1222 H1201 0.929 . S
C1222 C1220 1.446 . S
C1222 C1223 1.332 . S
C1223 H1203 0.931 . S
C1223 C1222 1.332 . S
C1223 C1224 1.267 . S
C1224 H1192 0.929 . S
C1224 C1223 1.267 . S
C1224 C1225 1.251 . S
C1225 H1195 0.929 . S
C1225 N1221 1.418 . S
C1225 C1224 1.251 . S
C1226 H1193 0.930 . S
C1226 C1228 1.406 . S
C1226 C1231 1.261 . S
C1227 H1194 0.930 . S
C1227 N1229 1.325 . S
C1227 C1230 1.357 . S
C1228 H1196 0.928 . S
C1228 C1226 1.406 . S
C1228 N1229 1.261 . S
N1229 Co1180 2.214 . S
N1229 C1227 1.325 . S
N1229 C1228 1.261 . S
C1230 H1200 0.931 . S
C1230 C1227 1.357 . S
C1230 C1231 1.312 . S
C1231 H1202 0.930 . S
C1231 C1226 1.261 . S
C1231 C1230 1.312 . S
C1232 O1204 1.214 . S
C1232 O1212 1.234 . S
C1233 H1205 0.929 . S
C1233 C1236 1.391 . S
C1233 C1238 1.391 . S
C1234 H1206 0.929 . S
C1234 C1235 1.390 . S
C1234 N1237 1.391 . S
C1235 H1207 0.930 . S
C1235 C1234 1.390 . S
C1235 C1236 1.392 . S
C1236 H1208 0.929 . S
C1236 C1233 1.391 . S
C1236 C1235 1.392 . S
N1237 Co1181 2.257 . S
N1237 C1234 1.391 . S
N1237 C1238 1.388 . S
C1238 H1209 0.930 . S
C1238 C1233 1.391 . S
C1238 N1237 1.388 . S
Co1239 O1241 2.143 . S
Co1239 O1247 2.074 . S
Co1239 O1250 2.093 . S
Co1239 O1263 2.097 . S
Co1239 N1280 2.151 . S
Co1239 N1288 2.214 . S
Co1240 O1241 2.160 . S
Co1240 O1246 2.058 . S
Co1240 O1256 2.057 . S
Co1240 O1271 2.037 . S
Co1240 N1275 2.145 . S
Co1240 N1296 2.257 . S
O1241 Co1239 2.143 . S
O1241 Co1240 2.160 . S
C1242 O1243 1.278 . S
C1242 O1250 1.224 . S
O1243 C1242 1.278 . S
C1244 O1245 1.245 . S
C1244 O1256 1.232 . S
O1245 C1244 1.245 . S
O1246 Co1240 2.058 . S
O1246 C1272 1.269 . S
O1247 Co1239 2.074 . S
O1247 C1272 1.257 . S
H1248 C1273 0.930 . S
H1249 C1279 0.930 . S
O1250 Co1239 2.093 . S
O1250 C1242 1.224 . S
H1251 C1283 0.929 . S
H1252 C1285 0.930 . S
H1253 C1286 0.930 . S
H1254 C1284 0.929 . S
H1255 C1287 0.928 . S
O1256 Co1240 2.057 . S
O1256 C1244 1.232 . S
H1257 C1276 0.929 . S
H1258 C1277 0.929 . S
H1259 C1289 0.931 . S
H1260 C1281 0.929 . S
H1261 C1290 0.930 . S
H1262 C1282 0.931 . S
O1263 Co1239 2.097 . S
O1263 C1291 1.214 . S
H1264 C1292 0.929 . S
H1265 C1293 0.929 . S
H1266 C1294 0.930 . S
H1267 C1295 0.929 . S
H1268 C1297 0.930 . S
H1269 C1274 0.930 . S
H1270 C1278 0.930 . S
O1271 Co1240 2.037 . S
O1271 C1291 1.234 . S
C1272 O1246 1.269 . S
C1272 O1247 1.257 . S
C1273 H1248 0.930 . S
C1273 C1276 1.388 . S
C1273 C1278 1.418 . S
C1274 H1269 0.930 . S
C1274 C1277 1.404 . S
C1274 C1278 1.353 . S
N1275 Co1240 2.145 . S
N1275 C1276 1.397 . S
N1275 C1277 1.334 . S
C1276 H1257 0.929 . S
C1276 C1273 1.388 . S
C1276 N1275 1.397 . S
C1277 H1258 0.929 . S
C1277 C1274 1.404 . S
C1277 N1275 1.334 . S
C1278 H1270 0.930 . S
C1278 C1273 1.418 . S
C1278 C1274 1.353 . S
C1279 H1249 0.930 . S
C1279 N1280 1.330 . S
C1279 C1281 1.446 . S
N1280 Co1239 2.151 . S
N1280 C1279 1.330 . S
N1280 C1284 1.418 . S
C1281 H1260 0.929 . S
C1281 C1279 1.446 . S
C1281 C1282 1.332 . S
C1282 H1262 0.931 . S
C1282 C1281 1.332 . S
C1282 C1283 1.267 . S
C1283 H1251 0.929 . S
C1283 C1282 1.267 . S
C1283 C1284 1.251 . S
C1284 H1254 0.929 . S
C1284 N1280 1.418 . S
C1284 C1283 1.251 . S
C1285 H1252 0.930 . S
C1285 C1287 1.406 . S
C1285 C1290 1.261 . S
C1286 H1253 0.930 . S
C1286 N1288 1.325 . S
C1286 C1289 1.357 . S
C1287 H1255 0.928 . S
C1287 C1285 1.406 . S
C1287 N1288 1.261 . S
N1288 Co1239 2.214 . S
N1288 C1286 1.325 . S
N1288 C1287 1.261 . S
C1289 H1259 0.931 . S
C1289 C1286 1.357 . S
C1289 C1290 1.312 . S
C1290 H1261 0.930 . S
C1290 C1285 1.261 . S
C1290 C1289 1.312 . S
C1291 O1263 1.214 . S
C1291 O1271 1.234 . S
C1292 H1264 0.929 . S
C1292 C1295 1.391 . S
C1292 C1297 1.391 . S
C1293 H1265 0.929 . S
C1293 C1294 1.390 . S
C1293 N1296 1.391 . S
C1294 H1266 0.930 . S
C1294 C1293 1.390 . S
C1294 C1295 1.392 . S
C1295 H1267 0.929 . S
C1295 C1292 1.391 . S
C1295 C1294 1.392 . S
N1296 Co1240 2.257 . S
N1296 C1293 1.391 . S
N1296 C1297 1.388 . S
C1297 H1268 0.930 . S
C1297 C1292 1.391 . S
C1297 N1296 1.388 . S
Co1298 O1300 2.143 . S
Co1298 O1306 2.074 . S
Co1298 O1309 2.093 . S
Co1298 O1322 2.097 . S
Co1298 N1339 2.151 . S
Co1298 N1347 2.214 . S
Co1299 O1300 2.160 . S
Co1299 O1305 2.058 . S
Co1299 O1315 2.057 . S
Co1299 O1330 2.037 . S
Co1299 N1334 2.145 . S
Co1299 N1355 2.257 . S
O1300 Co1298 2.143 . S
O1300 Co1299 2.160 . S
C1301 O1302 1.278 . S
C1301 O1309 1.224 . S
O1302 C1301 1.278 . S
C1303 O1304 1.245 . S
C1303 O1315 1.232 . S
O1304 C1303 1.245 . S
O1305 Co1299 2.058 . S
O1305 C1331 1.269 . S
O1306 Co1298 2.074 . S
O1306 C1331 1.257 . S
H1307 C1332 0.930 . S
H1308 C1338 0.930 . S
O1309 Co1298 2.093 . S
O1309 C1301 1.224 . S
H1310 C1342 0.929 . S
H1311 C1344 0.930 . S
H1312 C1345 0.930 . S
H1313 C1343 0.929 . S
H1314 C1346 0.928 . S
O1315 Co1299 2.057 . S
O1315 C1303 1.232 . S
H1316 C1335 0.929 . S
H1317 C1336 0.929 . S
H1318 C1348 0.931 . S
H1319 C1340 0.929 . S
H1320 C1349 0.930 . S
H1321 C1341 0.931 . S
O1322 Co1298 2.097 . S
O1322 C1350 1.214 . S
H1323 C1351 0.929 . S
H1324 C1352 0.929 . S
H1325 C1353 0.930 . S
H1326 C1354 0.929 . S
H1327 C1356 0.930 . S
H1328 C1333 0.930 . S
H1329 C1337 0.930 . S
O1330 Co1299 2.037 . S
O1330 C1350 1.234 . S
C1331 O1305 1.269 . S
C1331 O1306 1.257 . S
C1332 H1307 0.930 . S
C1332 C1335 1.388 . S
C1332 C1337 1.418 . S
C1333 H1328 0.930 . S
C1333 C1336 1.404 . S
C1333 C1337 1.353 . S
N1334 Co1299 2.145 . S
N1334 C1335 1.397 . S
N1334 C1336 1.334 . S
C1335 H1316 0.929 . S
C1335 C1332 1.388 . S
C1335 N1334 1.397 . S
C1336 H1317 0.929 . S
C1336 C1333 1.404 . S
C1336 N1334 1.334 . S
C1337 H1329 0.930 . S
C1337 C1332 1.418 . S
C1337 C1333 1.353 . S
C1338 H1308 0.930 . S
C1338 N1339 1.330 . S
C1338 C1340 1.446 . S
N1339 Co1298 2.151 . S
N1339 C1338 1.330 . S
N1339 C1343 1.418 . S
C1340 H1319 0.929 . S
C1340 C1338 1.446 . S
C1340 C1341 1.332 . S
C1341 H1321 0.931 . S
C1341 C1340 1.332 . S
C1341 C1342 1.267 . S
C1342 H1310 0.929 . S
C1342 C1341 1.267 . S
C1342 C1343 1.251 . S
C1343 H1313 0.929 . S
C1343 N1339 1.418 . S
C1343 C1342 1.251 . S
C1344 H1311 0.930 . S
C1344 C1346 1.406 . S
C1344 C1349 1.261 . S
C1345 H1312 0.930 . S
C1345 N1347 1.325 . S
C1345 C1348 1.357 . S
C1346 H1314 0.928 . S
C1346 C1344 1.406 . S
C1346 N1347 1.261 . S
N1347 Co1298 2.214 . S
N1347 C1345 1.325 . S
N1347 C1346 1.261 . S
C1348 H1318 0.931 . S
C1348 C1345 1.357 . S
C1348 C1349 1.312 . S
C1349 H1320 0.930 . S
C1349 C1344 1.261 . S
C1349 C1348 1.312 . S
C1350 O1322 1.214 . S
C1350 O1330 1.234 . S
C1351 H1323 0.929 . S
C1351 C1354 1.391 . S
C1351 C1356 1.391 . S
C1352 H1324 0.929 . S
C1352 C1353 1.390 . S
C1352 N1355 1.391 . S
C1353 H1325 0.930 . S
C1353 C1352 1.390 . S
C1353 C1354 1.392 . S
C1354 H1326 0.929 . S
C1354 C1351 1.391 . S
C1354 C1353 1.392 . S
N1355 Co1299 2.257 . S
N1355 C1352 1.391 . S
N1355 C1356 1.388 . S
C1356 H1327 0.930 . S
C1356 C1351 1.391 . S
C1356 N1355 1.388 . S
Co1357 O1359 2.143 . S
Co1357 O1365 2.074 . S
Co1357 O1368 2.093 . S
Co1357 O1381 2.097 . S
Co1357 N1398 2.151 . S
Co1357 N1406 2.214 . S
Co1358 O1359 2.160 . S
Co1358 O1364 2.058 . S
Co1358 O1374 2.057 . S
Co1358 O1389 2.037 . S
Co1358 N1393 2.145 . S
Co1358 N1414 2.257 . S
O1359 Co1357 2.143 . S
O1359 Co1358 2.160 . S
C1360 O1361 1.278 . S
C1360 O1368 1.224 . S
O1361 C1360 1.278 . S
C1362 O1363 1.245 . S
C1362 O1374 1.232 . S
O1363 C1362 1.245 . S
O1364 Co1358 2.058 . S
O1364 C1390 1.269 . S
O1365 Co1357 2.074 . S
O1365 C1390 1.257 . S
H1366 C1391 0.931 . S
H1367 C1397 0.930 . S
O1368 Co1357 2.093 . S
O1368 C1360 1.224 . S
H1369 C1401 0.929 . S
H1370 C1403 0.930 . S
H1371 C1404 0.930 . S
H1372 C1402 0.929 . S
H1373 C1405 0.928 . S
O1374 Co1358 2.057 . S
O1374 C1362 1.232 . S
H1375 C1394 0.929 . S
H1376 C1395 0.929 . S
H1377 C1407 0.931 . S
H1378 C1399 0.929 . S
H1379 C1408 0.930 . S
H1380 C1400 0.931 . S
O1381 Co1357 2.097 . S
O1381 C1409 1.214 . S
H1382 C1410 0.929 . S
H1383 C1411 0.929 . S
H1384 C1412 0.930 . S
H1385 C1413 0.929 . S
H1386 C1415 0.930 . S
H1387 C1392 0.930 . S
H1388 C1396 0.930 . S
O1389 Co1358 2.037 . S
O1389 C1409 1.234 . S
C1390 O1364 1.269 . S
C1390 O1365 1.257 . S
C1391 H1366 0.931 . S
C1391 C1394 1.386 1_655 S
C1391 C1396 1.419 . S
C1392 H1387 0.930 . S
C1392 C1395 1.404 1_655 S
C1392 C1396 1.353 . S
N1393 Co1358 2.145 . S
N1393 C1394 1.397 . S
N1393 C1395 1.334 . S
C1394 H1375 0.929 . S
C1394 C1391 1.386 1_455 S
C1394 N1393 1.397 . S
C1395 H1376 0.929 . S
C1395 C1392 1.404 1_455 S
C1395 N1393 1.334 . S
C1396 H1388 0.930 . S
C1396 C1391 1.419 . S
C1396 C1392 1.353 . S
C1397 H1367 0.930 . S
C1397 N1398 1.330 . S
C1397 C1399 1.446 . S
N1398 Co1357 2.151 . S
N1398 C1397 1.330 . S
N1398 C1402 1.418 . S
C1399 H1378 0.929 . S
C1399 C1397 1.446 . S
C1399 C1400 1.332 . S
C1400 H1380 0.931 . S
C1400 C1399 1.332 . S
C1400 C1401 1.267 . S
C1401 H1369 0.929 . S
C1401 C1400 1.267 . S
C1401 C1402 1.251 . S
C1402 H1372 0.929 . S
C1402 N1398 1.418 . S
C1402 C1401 1.251 . S
C1403 H1370 0.930 . S
C1403 C1405 1.406 . S
C1403 C1408 1.261 . S
C1404 H1371 0.930 . S
C1404 N1406 1.325 . S
C1404 C1407 1.357 . S
C1405 H1373 0.928 . S
C1405 C1403 1.406 . S
C1405 N1406 1.261 . S
N1406 Co1357 2.214 . S
N1406 C1404 1.325 . S
N1406 C1405 1.261 . S
C1407 H1377 0.931 . S
C1407 C1404 1.357 . S
C1407 C1408 1.312 . S
C1408 H1379 0.930 . S
C1408 C1403 1.261 . S
C1408 C1407 1.312 . S
C1409 O1381 1.214 . S
C1409 O1389 1.234 . S
C1410 H1382 0.929 . S
C1410 C1413 1.391 . S
C1410 C1415 1.391 . S
C1411 H1383 0.929 . S
C1411 C1412 1.390 . S
C1411 N1414 1.391 . S
C1412 H1384 0.930 . S
C1412 C1411 1.390 . S
C1412 C1413 1.392 . S
C1413 H1385 0.929 . S
C1413 C1410 1.391 . S
C1413 C1412 1.392 . S
N1414 Co1358 2.257 . S
N1414 C1411 1.391 . S
N1414 C1415 1.388 . S
C1415 H1386 0.930 . S
C1415 C1410 1.391 . S
C1415 N1414 1.388 . S
Co1416 O1418 2.143 . S
Co1416 O1424 2.074 . S
Co1416 O1427 2.093 . S
Co1416 O1440 2.097 . S
Co1416 N1457 2.151 . S
Co1416 N1465 2.214 . S
Co1417 O1418 2.160 . S
Co1417 O1423 2.058 . S
Co1417 O1433 2.057 . S
Co1417 O1448 2.037 . S
Co1417 N1452 2.145 . S
Co1417 N1473 2.257 . S
O1418 Co1416 2.143 . S
O1418 Co1417 2.160 . S
C1419 O1420 1.278 . S
C1419 O1427 1.224 . S
O1420 C1419 1.278 . S
C1421 O1422 1.245 . S
C1421 O1433 1.232 . S
O1422 C1421 1.245 . S
O1423 Co1417 2.058 . S
O1423 C1449 1.269 . S
O1424 Co1416 2.074 . S
O1424 C1449 1.257 . S
H1425 C1450 0.930 . S
H1426 C1456 0.930 . S
O1427 Co1416 2.093 . S
O1427 C1419 1.224 . S
H1428 C1460 0.929 . S
H1429 C1462 0.930 . S
H1430 C1463 0.930 . S
H1431 C1461 0.929 . S
H1432 C1464 0.928 . S
O1433 Co1417 2.057 . S
O1433 C1421 1.232 . S
H1434 C1453 0.929 . S
H1435 C1454 0.929 . S
H1436 C1466 0.931 . S
H1437 C1458 0.929 . S
H1438 C1467 0.930 . S
H1439 C1459 0.931 . S
O1440 Co1416 2.097 . S
O1440 C1468 1.214 . S
H1441 C1469 0.929 . S
H1442 C1470 0.929 . S
H1443 C1471 0.930 . S
H1444 C1472 0.929 . S
H1445 C1474 0.930 . S
H1446 C1451 0.930 . S
H1447 C1455 0.930 . S
O1448 Co1417 2.037 . S
O1448 C1468 1.234 . S
C1449 O1423 1.269 . S
C1449 O1424 1.257 . S
C1450 H1425 0.930 . S
C1450 C1453 1.388 . S
C1450 C1455 1.418 . S
C1451 H1446 0.930 . S
C1451 C1454 1.404 . S
C1451 C1455 1.353 . S
N1452 Co1417 2.145 . S
N1452 C1453 1.397 . S
N1452 C1454 1.334 . S
C1453 H1434 0.929 . S
C1453 C1450 1.388 . S
C1453 N1452 1.397 . S
C1454 H1435 0.929 . S
C1454 C1451 1.404 . S
C1454 N1452 1.334 . S
C1455 H1447 0.930 . S
C1455 C1450 1.418 . S
C1455 C1451 1.353 . S
C1456 H1426 0.930 . S
C1456 N1457 1.330 . S
C1456 C1458 1.446 . S
N1457 Co1416 2.151 . S
N1457 C1456 1.330 . S
N1457 C1461 1.418 . S
C1458 H1437 0.929 . S
C1458 C1456 1.446 . S
C1458 C1459 1.332 . S
C1459 H1439 0.931 . S
C1459 C1458 1.332 . S
C1459 C1460 1.267 . S
C1460 H1428 0.929 . S
C1460 C1459 1.267 . S
C1460 C1461 1.251 . S
C1461 H1431 0.929 . S
C1461 N1457 1.418 . S
C1461 C1460 1.251 . S
C1462 H1429 0.930 . S
C1462 C1464 1.406 . S
C1462 C1467 1.261 . S
C1463 H1430 0.930 . S
C1463 N1465 1.325 . S
C1463 C1466 1.357 . S
C1464 H1432 0.928 . S
C1464 C1462 1.406 . S
C1464 N1465 1.261 . S
N1465 Co1416 2.214 . S
N1465 C1463 1.325 . S
N1465 C1464 1.261 . S
C1466 H1436 0.931 . S
C1466 C1463 1.357 . S
C1466 C1467 1.312 . S
C1467 H1438 0.930 . S
C1467 C1462 1.261 . S
C1467 C1466 1.312 . S
C1468 O1440 1.214 . S
C1468 O1448 1.234 . S
C1469 H1441 0.929 . S
C1469 C1472 1.391 . S
C1469 C1474 1.391 . S
C1470 H1442 0.929 . S
C1470 C1471 1.390 . S
C1470 N1473 1.391 . S
C1471 H1443 0.930 . S
C1471 C1470 1.390 . S
C1471 C1472 1.392 . S
C1472 H1444 0.929 . S
C1472 C1469 1.391 . S
C1472 C1471 1.392 . S
N1473 Co1417 2.257 . S
N1473 C1470 1.391 . S
N1473 C1474 1.388 . S
C1474 H1445 0.930 . S
C1474 C1469 1.391 . S
C1474 N1473 1.388 . S
Co1475 O1477 2.143 . S
Co1475 O1483 2.074 . S
Co1475 O1486 2.093 . S
Co1475 O1499 2.097 . S
Co1475 N1516 2.151 . S
Co1475 N1524 2.214 . S
Co1476 O1477 2.160 . S
Co1476 O1482 2.058 . S
Co1476 O1492 2.057 . S
Co1476 O1507 2.037 . S
Co1476 N1511 2.145 . S
Co1476 N1532 2.257 . S
O1477 Co1475 2.143 . S
O1477 Co1476 2.160 . S
C1478 O1479 1.278 . S
C1478 O1486 1.224 . S
O1479 C1478 1.278 . S
C1480 O1481 1.245 . S
C1480 O1492 1.232 . S
O1481 C1480 1.245 . S
O1482 Co1476 2.058 . S
O1482 C1508 1.269 . S
O1483 Co1475 2.074 . S
O1483 C1508 1.257 . S
H1484 C1509 0.930 . S
H1485 C1515 0.930 . S
O1486 Co1475 2.093 . S
O1486 C1478 1.224 . S
H1487 C1519 0.929 . S
H1488 C1521 0.930 . S
H1489 C1522 0.930 . S
H1490 C1520 0.929 . S
H1491 C1523 0.928 . S
O1492 Co1476 2.057 . S
O1492 C1480 1.232 . S
H1493 C1512 0.929 . S
H1494 C1513 0.929 . S
H1495 C1525 0.931 . S
H1496 C1517 0.929 . S
H1497 C1526 0.930 . S
H1498 C1518 0.931 . S
O1499 Co1475 2.097 . S
O1499 C1527 1.214 . S
H1500 C1528 0.929 . S
H1501 C1529 0.929 . S
H1502 C1530 0.930 . S
H1503 C1531 0.929 . S
H1504 C1533 0.930 . S
H1505 C1510 0.930 . S
H1506 C1514 0.930 . S
O1507 Co1476 2.037 . S
O1507 C1527 1.234 . S
C1508 O1482 1.269 . S
C1508 O1483 1.257 . S
C1509 H1484 0.930 . S
C1509 C1512 1.388 . S
C1509 C1514 1.418 . S
C1510 H1505 0.930 . S
C1510 C1513 1.404 . S
C1510 C1514 1.353 . S
N1511 Co1476 2.145 . S
N1511 C1512 1.397 . S
N1511 C1513 1.334 . S
C1512 H1493 0.929 . S
C1512 C1509 1.388 . S
C1512 N1511 1.397 . S
C1513 H1494 0.929 . S
C1513 C1510 1.404 . S
C1513 N1511 1.334 . S
C1514 H1506 0.930 . S
C1514 C1509 1.418 . S
C1514 C1510 1.353 . S
C1515 H1485 0.930 . S
C1515 N1516 1.330 . S
C1515 C1517 1.446 . S
N1516 Co1475 2.151 . S
N1516 C1515 1.330 . S
N1516 C1520 1.418 . S
C1517 H1496 0.929 . S
C1517 C1515 1.446 . S
C1517 C1518 1.332 . S
C1518 H1498 0.931 . S
C1518 C1517 1.332 . S
C1518 C1519 1.267 . S
C1519 H1487 0.929 . S
C1519 C1518 1.267 . S
C1519 C1520 1.251 . S
C1520 H1490 0.929 . S
C1520 N1516 1.418 . S
C1520 C1519 1.251 . S
C1521 H1488 0.930 . S
C1521 C1523 1.406 . S
C1521 C1526 1.261 . S
C1522 H1489 0.930 . S
C1522 N1524 1.325 . S
C1522 C1525 1.357 . S
C1523 H1491 0.928 . S
C1523 C1521 1.406 . S
C1523 N1524 1.261 . S
N1524 Co1475 2.214 . S
N1524 C1522 1.325 . S
N1524 C1523 1.261 . S
C1525 H1495 0.931 . S
C1525 C1522 1.357 . S
C1525 C1526 1.312 . S
C1526 H1497 0.930 . S
C1526 C1521 1.261 . S
C1526 C1525 1.312 . S
C1527 O1499 1.214 . S
C1527 O1507 1.234 . S
C1528 H1500 0.929 . S
C1528 C1531 1.391 . S
C1528 C1533 1.391 . S
C1529 H1501 0.929 . S
C1529 C1530 1.390 . S
C1529 N1532 1.391 . S
C1530 H1502 0.930 . S
C1530 C1529 1.390 . S
C1530 C1531 1.392 . S
C1531 H1503 0.929 . S
C1531 C1528 1.391 . S
C1531 C1530 1.392 . S
N1532 Co1476 2.257 . S
N1532 C1529 1.391 . S
N1532 C1533 1.388 . S
C1533 H1504 0.930 . S
C1533 C1528 1.391 . S
C1533 N1532 1.388 . S
Co1534 O1536 2.143 . S
Co1534 O1542 2.074 . S
Co1534 O1545 2.093 . S
Co1534 O1558 2.097 . S
Co1534 N1575 2.151 . S
Co1534 N1583 2.214 . S
Co1535 O1536 2.160 . S
Co1535 O1541 2.058 . S
Co1535 O1551 2.057 . S
Co1535 O1566 2.037 . S
Co1535 N1570 2.145 . S
Co1535 N1591 2.257 . S
O1536 Co1534 2.143 . S
O1536 Co1535 2.160 . S
C1537 O1538 1.278 . S
C1537 O1545 1.224 . S
O1538 C1537 1.278 . S
C1539 O1540 1.245 . S
C1539 O1551 1.232 . S
O1540 C1539 1.245 . S
O1541 Co1535 2.058 . S
O1541 C1567 1.269 . S
O1542 Co1534 2.074 . S
O1542 C1567 1.257 . S
H1543 C1568 0.930 . S
H1544 C1574 0.930 . S
O1545 Co1534 2.093 . S
O1545 C1537 1.224 . S
H1546 C1578 0.929 . S
H1547 C1580 0.930 . S
H1548 C1581 0.930 . S
H1549 C1579 0.929 . S
H1550 C1582 0.928 . S
O1551 Co1535 2.057 . S
O1551 C1539 1.232 . S
H1552 C1571 0.929 . S
H1553 C1572 0.929 . S
H1554 C1584 0.931 . S
H1555 C1576 0.929 . S
H1556 C1585 0.930 . S
H1557 C1577 0.931 . S
O1558 Co1534 2.097 . S
O1558 C1586 1.214 . S
H1559 C1587 0.929 . S
H1560 C1588 0.929 . S
H1561 C1589 0.930 . S
H1562 C1590 0.929 . S
H1563 C1592 0.930 . S
H1564 C1569 0.930 . S
H1565 C1573 0.930 . S
O1566 Co1535 2.037 . S
O1566 C1586 1.234 . S
C1567 O1541 1.269 . S
C1567 O1542 1.257 . S
C1568 H1543 0.930 . S
C1568 C1571 1.388 . S
C1568 C1573 1.418 . S
C1569 H1564 0.930 . S
C1569 C1572 1.404 . S
C1569 C1573 1.353 . S
N1570 Co1535 2.145 . S
N1570 C1571 1.397 . S
N1570 C1572 1.334 . S
C1571 H1552 0.929 . S
C1571 C1568 1.388 . S
C1571 N1570 1.397 . S
C1572 H1553 0.929 . S
C1572 C1569 1.404 . S
C1572 N1570 1.334 . S
C1573 H1565 0.930 . S
C1573 C1568 1.418 . S
C1573 C1569 1.353 . S
C1574 H1544 0.930 . S
C1574 N1575 1.330 . S
C1574 C1576 1.446 . S
N1575 Co1534 2.151 . S
N1575 C1574 1.330 . S
N1575 C1579 1.418 . S
C1576 H1555 0.929 . S
C1576 C1574 1.446 . S
C1576 C1577 1.332 . S
C1577 H1557 0.931 . S
C1577 C1576 1.332 . S
C1577 C1578 1.267 . S
C1578 H1546 0.929 . S
C1578 C1577 1.267 . S
C1578 C1579 1.251 . S
C1579 H1549 0.929 . S
C1579 N1575 1.418 . S
C1579 C1578 1.251 . S
C1580 H1547 0.930 . S
C1580 C1582 1.406 . S
C1580 C1585 1.261 . S
C1581 H1548 0.930 . S
C1581 N1583 1.325 . S
C1581 C1584 1.357 . S
C1582 H1550 0.928 . S
C1582 C1580 1.406 . S
C1582 N1583 1.261 . S
N1583 Co1534 2.214 . S
N1583 C1581 1.325 . S
N1583 C1582 1.261 . S
C1584 H1554 0.931 . S
C1584 C1581 1.357 . S
C1584 C1585 1.312 . S
C1585 H1556 0.930 . S
C1585 C1580 1.261 . S
C1585 C1584 1.312 . S
C1586 O1558 1.214 . S
C1586 O1566 1.234 . S
C1587 H1559 0.929 . S
C1587 C1590 1.391 . S
C1587 C1592 1.391 . S
C1588 H1560 0.929 . S
C1588 C1589 1.390 . S
C1588 N1591 1.391 . S
C1589 H1561 0.930 . S
C1589 C1588 1.390 . S
C1589 C1590 1.392 . S
C1590 H1562 0.929 . S
C1590 C1587 1.391 . S
C1590 C1589 1.392 . S
N1591 Co1535 2.257 . S
N1591 C1588 1.391 . S
N1591 C1592 1.388 . S
C1592 H1563 0.930 . S
C1592 C1587 1.391 . S
C1592 N1591 1.388 . S
Co1593 O1595 2.143 . S
Co1593 O1601 2.074 . S
Co1593 O1604 2.093 . S
Co1593 O1617 2.097 . S
Co1593 N1634 2.151 . S
Co1593 N1642 2.214 . S
Co1594 O1595 2.160 . S
Co1594 O1600 2.058 . S
Co1594 O1610 2.057 . S
Co1594 O1625 2.037 . S
Co1594 N1629 2.145 . S
Co1594 N1650 2.257 . S
O1595 Co1593 2.143 . S
O1595 Co1594 2.160 . S
C1596 O1597 1.278 . S
C1596 O1604 1.224 . S
O1597 C1596 1.278 . S
C1598 O1599 1.245 . S
C1598 O1610 1.232 . S
O1599 C1598 1.245 . S
O1600 Co1594 2.058 . S
O1600 C1626 1.269 . S
O1601 Co1593 2.074 . S
O1601 C1626 1.257 . S
H1602 C1627 0.930 . S
H1603 C1633 0.930 . S
O1604 Co1593 2.093 . S
O1604 C1596 1.224 . S
H1605 C1637 0.929 . S
H1606 C1639 0.930 . S
H1607 C1640 0.930 . S
H1608 C1638 0.929 . S
H1609 C1641 0.928 . S
O1610 Co1594 2.057 . S
O1610 C1598 1.232 . S
H1611 C1630 0.929 . S
H1612 C1631 0.929 . S
H1613 C1643 0.931 . S
H1614 C1635 0.929 . S
H1615 C1644 0.930 . S
H1616 C1636 0.931 . S
O1617 Co1593 2.097 . S
O1617 C1645 1.214 . S
H1618 C1646 0.929 . S
H1619 C1647 0.929 . S
H1620 C1648 0.930 . S
H1621 C1649 0.929 . S
H1622 C1651 0.930 . S
H1623 C1628 0.930 . S
H1624 C1632 0.930 . S
O1625 Co1594 2.037 . S
O1625 C1645 1.234 . S
C1626 O1600 1.269 . S
C1626 O1601 1.257 . S
C1627 H1602 0.930 . S
C1627 C1630 1.388 . S
C1627 C1632 1.418 . S
C1628 H1623 0.930 . S
C1628 C1631 1.404 . S
C1628 C1632 1.353 . S
N1629 Co1594 2.145 . S
N1629 C1630 1.397 . S
N1629 C1631 1.334 . S
C1630 H1611 0.929 . S
C1630 C1627 1.388 . S
C1630 N1629 1.397 . S
C1631 H1612 0.929 . S
C1631 C1628 1.404 . S
C1631 N1629 1.334 . S
C1632 H1624 0.930 . S
C1632 C1627 1.418 . S
C1632 C1628 1.353 . S
C1633 H1603 0.930 . S
C1633 N1634 1.330 . S
C1633 C1635 1.446 . S
N1634 Co1593 2.151 . S
N1634 C1633 1.330 . S
N1634 C1638 1.418 . S
C1635 H1614 0.929 . S
C1635 C1633 1.446 . S
C1635 C1636 1.332 . S
C1636 H1616 0.931 . S
C1636 C1635 1.332 . S
C1636 C1637 1.267 . S
C1637 H1605 0.929 . S
C1637 C1636 1.267 . S
C1637 C1638 1.251 . S
C1638 H1608 0.929 . S
C1638 N1634 1.418 . S
C1638 C1637 1.251 . S
C1639 H1606 0.930 . S
C1639 C1641 1.406 . S
C1639 C1644 1.261 . S
C1640 H1607 0.930 . S
C1640 N1642 1.325 . S
C1640 C1643 1.357 . S
C1641 H1609 0.928 . S
C1641 C1639 1.406 . S
C1641 N1642 1.261 . S
N1642 Co1593 2.214 . S
N1642 C1640 1.325 . S
N1642 C1641 1.261 . S
C1643 H1613 0.931 . S
C1643 C1640 1.357 . S
C1643 C1644 1.312 . S
C1644 H1615 0.930 . S
C1644 C1639 1.261 . S
C1644 C1643 1.312 . S
C1645 O1617 1.214 . S
C1645 O1625 1.234 . S
C1646 H1618 0.929 . S
C1646 C1649 1.391 . S
C1646 C1651 1.391 . S
C1647 H1619 0.929 . S
C1647 C1648 1.390 . S
C1647 N1650 1.391 . S
C1648 H1620 0.930 . S
C1648 C1647 1.390 . S
C1648 C1649 1.392 . S
C1649 H1621 0.929 . S
C1649 C1646 1.391 . S
C1649 C1648 1.392 . S
N1650 Co1594 2.257 . S
N1650 C1647 1.391 . S
N1650 C1651 1.388 . S
C1651 H1622 0.930 . S
C1651 C1646 1.391 . S
C1651 N1650 1.388 . S
Co1652 O1654 2.143 . S
Co1652 O1660 2.074 . S
Co1652 O1663 2.093 . S
Co1652 O1676 2.097 . S
Co1652 N1693 2.151 . S
Co1652 N1701 2.214 . S
Co1653 O1654 2.160 . S
Co1653 O1659 2.058 . S
Co1653 O1669 2.057 . S
Co1653 O1684 2.037 . S
Co1653 N1688 2.145 . S
Co1653 N1709 2.257 . S
O1654 Co1652 2.143 . S
O1654 Co1653 2.160 . S
C1655 O1656 1.278 . S
C1655 O1663 1.224 . S
O1656 C1655 1.278 . S
C1657 O1658 1.245 . S
C1657 O1669 1.232 . S
O1658 C1657 1.245 . S
O1659 Co1653 2.058 . S
O1659 C1685 1.269 . S
O1660 Co1652 2.074 . S
O1660 C1685 1.257 . S
H1661 C1686 0.930 . S
H1662 C1692 0.930 . S
O1663 Co1652 2.093 . S
O1663 C1655 1.224 . S
H1664 C1696 0.929 . S
H1665 C1698 0.930 . S
H1666 C1699 0.930 . S
H1667 C1697 0.929 . S
H1668 C1700 0.928 . S
O1669 Co1653 2.057 . S
O1669 C1657 1.232 . S
H1670 C1689 0.929 . S
H1671 C1690 0.929 . S
H1672 C1702 0.931 . S
H1673 C1694 0.929 . S
H1674 C1703 0.930 . S
H1675 C1695 0.931 . S
O1676 Co1652 2.097 . S
O1676 C1704 1.214 . S
H1677 C1705 0.929 . S
H1678 C1706 0.929 . S
H1679 C1707 0.930 . S
H1680 C1708 0.929 . S
H1681 C1710 0.930 . S
H1682 C1687 0.930 . S
H1683 C1691 0.930 . S
O1684 Co1653 2.037 . S
O1684 C1704 1.234 . S
C1685 O1659 1.269 . S
C1685 O1660 1.257 . S
C1686 H1661 0.930 . S
C1686 C1689 1.388 . S
C1686 C1691 1.418 . S
C1687 H1682 0.930 . S
C1687 C1690 1.404 . S
C1687 C1691 1.353 . S
N1688 Co1653 2.145 . S
N1688 C1689 1.397 . S
N1688 C1690 1.334 . S
C1689 H1670 0.929 . S
C1689 C1686 1.388 . S
C1689 N1688 1.397 . S
C1690 H1671 0.929 . S
C1690 C1687 1.404 . S
C1690 N1688 1.334 . S
C1691 H1683 0.930 . S
C1691 C1686 1.418 . S
C1691 C1687 1.353 . S
C1692 H1662 0.930 . S
C1692 N1693 1.330 . S
C1692 C1694 1.446 . S
N1693 Co1652 2.151 . S
N1693 C1692 1.330 . S
N1693 C1697 1.418 . S
C1694 H1673 0.929 . S
C1694 C1692 1.446 . S
C1694 C1695 1.332 . S
C1695 H1675 0.931 . S
C1695 C1694 1.332 . S
C1695 C1696 1.267 . S
C1696 H1664 0.929 . S
C1696 C1695 1.267 . S
C1696 C1697 1.251 . S
C1697 H1667 0.929 . S
C1697 N1693 1.418 . S
C1697 C1696 1.251 . S
C1698 H1665 0.930 . S
C1698 C1700 1.406 . S
C1698 C1703 1.261 . S
C1699 H1666 0.930 . S
C1699 N1701 1.325 . S
C1699 C1702 1.357 . S
C1700 H1668 0.928 . S
C1700 C1698 1.406 . S
C1700 N1701 1.261 . S
N1701 Co1652 2.214 . S
N1701 C1699 1.325 . S
N1701 C1700 1.261 . S
C1702 H1672 0.931 . S
C1702 C1699 1.357 . S
C1702 C1703 1.312 . S
C1703 H1674 0.930 . S
C1703 C1698 1.261 . S
C1703 C1702 1.312 . S
C1704 O1676 1.214 . S
C1704 O1684 1.234 . S
C1705 H1677 0.929 . S
C1705 C1708 1.391 . S
C1705 C1710 1.391 . S
C1706 H1678 0.929 . S
C1706 C1707 1.390 . S
C1706 N1709 1.391 . S
C1707 H1679 0.930 . S
C1707 C1706 1.390 . S
C1707 C1708 1.392 . S
C1708 H1680 0.929 . S
C1708 C1705 1.391 . S
C1708 C1707 1.392 . S
N1709 Co1653 2.257 . S
N1709 C1706 1.391 . S
N1709 C1710 1.388 . S
C1710 H1681 0.930 . S
C1710 C1705 1.391 . S
C1710 N1709 1.388 . S
Co1711 O1713 2.143 . S
Co1711 O1719 2.074 . S
Co1711 O1722 2.093 . S
Co1711 O1735 2.097 . S
Co1711 N1752 2.151 . S
Co1711 N1760 2.214 . S
Co1712 O1713 2.160 . S
Co1712 O1718 2.058 . S
Co1712 O1728 2.057 . S
Co1712 O1743 2.037 . S
Co1712 N1747 2.145 . S
Co1712 N1768 2.257 . S
O1713 Co1711 2.143 . S
O1713 Co1712 2.160 . S
C1714 O1715 1.278 . S
C1714 O1722 1.224 . S
O1715 C1714 1.278 . S
C1716 O1717 1.245 . S
C1716 O1728 1.232 . S
O1717 C1716 1.245 . S
O1718 Co1712 2.058 . S
O1718 C1744 1.269 . S
O1719 Co1711 2.074 . S
O1719 C1744 1.257 . S
H1720 C1745 0.930 . S
H1721 C1751 0.930 . S
O1722 Co1711 2.093 . S
O1722 C1714 1.224 . S
H1723 C1755 0.929 . S
H1724 C1757 0.930 . S
H1725 C1758 0.930 . S
H1726 C1756 0.929 . S
H1727 C1759 0.928 . S
O1728 Co1712 2.057 . S
O1728 C1716 1.232 . S
H1729 C1748 0.929 . S
H1730 C1749 0.929 . S
H1731 C1761 0.931 . S
H1732 C1753 0.929 . S
H1733 C1762 0.930 . S
H1734 C1754 0.931 . S
O1735 Co1711 2.097 . S
O1735 C1763 1.214 . S
H1736 C1764 0.929 . S
H1737 C1765 0.929 . S
H1738 C1766 0.930 . S
H1739 C1767 0.929 . S
H1740 C1769 0.930 . S
H1741 C1746 0.930 . S
H1742 C1750 0.930 . S
O1743 Co1712 2.037 . S
O1743 C1763 1.234 . S
C1744 O1718 1.269 . S
C1744 O1719 1.257 . S
C1745 H1720 0.930 . S
C1745 C1748 1.388 . S
C1745 C1750 1.418 . S
C1746 H1741 0.930 . S
C1746 C1749 1.404 . S
C1746 C1750 1.353 . S
N1747 Co1712 2.145 . S
N1747 C1748 1.397 . S
N1747 C1749 1.334 . S
C1748 H1729 0.929 . S
C1748 C1745 1.388 . S
C1748 N1747 1.397 . S
C1749 H1730 0.929 . S
C1749 C1746 1.404 . S
C1749 N1747 1.334 . S
C1750 H1742 0.930 . S
C1750 C1745 1.418 . S
C1750 C1746 1.353 . S
C1751 H1721 0.930 . S
C1751 N1752 1.330 . S
C1751 C1753 1.446 . S
N1752 Co1711 2.151 . S
N1752 C1751 1.330 . S
N1752 C1756 1.418 . S
C1753 H1732 0.929 . S
C1753 C1751 1.446 . S
C1753 C1754 1.332 . S
C1754 H1734 0.931 . S
C1754 C1753 1.332 . S
C1754 C1755 1.267 . S
C1755 H1723 0.929 . S
C1755 C1754 1.267 . S
C1755 C1756 1.251 . S
C1756 H1726 0.929 . S
C1756 N1752 1.418 . S
C1756 C1755 1.251 . S
C1757 H1724 0.930 . S
C1757 C1759 1.406 . S
C1757 C1762 1.261 . S
C1758 H1725 0.930 . S
C1758 N1760 1.325 . S
C1758 C1761 1.357 . S
C1759 H1727 0.928 . S
C1759 C1757 1.406 . S
C1759 N1760 1.261 . S
N1760 Co1711 2.214 . S
N1760 C1758 1.325 . S
N1760 C1759 1.261 . S
C1761 H1731 0.931 . S
C1761 C1758 1.357 . S
C1761 C1762 1.312 . S
C1762 H1733 0.930 . S
C1762 C1757 1.261 . S
C1762 C1761 1.312 . S
C1763 O1735 1.214 . S
C1763 O1743 1.234 . S
C1764 H1736 0.929 . S
C1764 C1767 1.391 . S
C1764 C1769 1.391 . S
C1765 H1737 0.929 . S
C1765 C1766 1.390 . S
C1765 N1768 1.391 . S
C1766 H1738 0.930 . S
C1766 C1765 1.390 . S
C1766 C1767 1.392 . S
C1767 H1739 0.929 . S
C1767 C1764 1.391 . S
C1767 C1766 1.392 . S
N1768 Co1712 2.257 . S
N1768 C1765 1.391 . S
N1768 C1769 1.388 . S
C1769 H1740 0.930 . S
C1769 C1764 1.391 . S
C1769 N1768 1.388 . S
Co1770 O1772 2.143 . S
Co1770 O1778 2.074 . S
Co1770 O1781 2.093 1_455 S
Co1770 O1794 2.097 1_455 S
Co1770 N1811 2.151 . S
Co1770 N1819 2.214 . S
Co1771 O1772 2.160 . S
Co1771 O1777 2.058 . S
Co1771 O1787 2.057 . S
Co1771 O1802 2.037 . S
Co1771 N1806 2.145 . S
Co1771 N1827 2.257 1_455 S
O1772 Co1770 2.143 . S
O1772 Co1771 2.160 . S
C1773 O1774 1.278 . S
C1773 O1781 1.224 . S
O1774 C1773 1.278 . S
C1775 O1776 1.245 . S
C1775 O1787 1.232 . S
O1776 C1775 1.245 . S
O1777 Co1771 2.058 . S
O1777 C1803 1.269 . S
O1778 Co1770 2.074 . S
O1778 C1803 1.257 . S
H1779 C1804 0.930 . S
H1780 C1810 0.930 . S
O1781 Co1770 2.093 1_655 S
O1781 C1773 1.224 . S
H1782 C1814 0.929 . S
H1783 C1816 0.930 . S
H1784 C1817 0.930 . S
H1785 C1815 0.929 . S
H1786 C1818 0.928 . S
O1787 Co1771 2.057 . S
O1787 C1775 1.232 . S
H1788 C1807 0.929 . S
H1789 C1808 0.929 . S
H1790 C1820 0.931 . S
H1791 C1812 0.929 . S
H1792 C1821 0.930 . S
H1793 C1813 0.931 . S
O1794 Co1770 2.097 1_655 S
O1794 C1822 1.214 . S
H1795 C1823 0.929 . S
H1796 C1824 0.929 . S
H1797 C1825 0.930 . S
H1798 C1826 0.929 . S
H1799 C1828 0.930 1_455 S
H1800 C1805 0.930 . S
H1801 C1809 0.930 . S
O1802 Co1771 2.037 . S
O1802 C1822 1.234 1_455 S
C1803 O1777 1.269 . S
C1803 O1778 1.257 . S
C1804 H1779 0.930 . S
C1804 C1807 1.388 . S
C1804 C1809 1.418 . S
C1805 H1800 0.930 . S
C1805 C1808 1.404 . S
C1805 C1809 1.353 . S
N1806 Co1771 2.145 . S
N1806 C1807 1.397 . S
N1806 C1808 1.334 . S
C1807 H1788 0.929 . S
C1807 C1804 1.388 . S
C1807 N1806 1.397 . S
C1808 H1789 0.929 . S
C1808 C1805 1.404 . S
C1808 N1806 1.334 . S
C1809 H1801 0.930 . S
C1809 C1804 1.418 . S
C1809 C1805 1.353 . S
C1810 H1780 0.930 . S
C1810 N1811 1.330 . S
C1810 C1812 1.446 . S
N1811 Co1770 2.151 . S
N1811 C1810 1.330 . S
N1811 C1815 1.418 . S
C1812 H1791 0.929 . S
C1812 C1810 1.446 . S
C1812 C1813 1.332 . S
C1813 H1793 0.931 . S
C1813 C1812 1.332 . S
C1813 C1814 1.267 . S
C1814 H1782 0.929 . S
C1814 C1813 1.267 . S
C1814 C1815 1.251 . S
C1815 H1785 0.929 . S
C1815 N1811 1.418 . S
C1815 C1814 1.251 . S
C1816 H1783 0.930 . S
C1816 C1818 1.406 . S
C1816 C1821 1.261 . S
C1817 H1784 0.930 . S
C1817 N1819 1.325 . S
C1817 C1820 1.357 . S
C1818 H1786 0.928 . S
C1818 C1816 1.406 . S
C1818 N1819 1.261 . S
N1819 Co1770 2.214 . S
N1819 C1817 1.325 . S
N1819 C1818 1.261 . S
C1820 H1790 0.931 . S
C1820 C1817 1.357 . S
C1820 C1821 1.312 . S
C1821 H1792 0.930 . S
C1821 C1816 1.261 . S
C1821 C1820 1.312 . S
C1822 O1794 1.214 . S
C1822 O1802 1.234 1_655 S
C1823 H1795 0.929 . S
C1823 C1826 1.391 . S
C1823 C1828 1.391 . S
C1824 H1796 0.929 . S
C1824 C1825 1.390 . S
C1824 N1827 1.391 . S
C1825 H1797 0.930 . S
C1825 C1824 1.390 . S
C1825 C1826 1.392 . S
C1826 H1798 0.929 . S
C1826 C1823 1.391 . S
C1826 C1825 1.392 . S
N1827 Co1771 2.257 1_655 S
N1827 C1824 1.391 . S
N1827 C1828 1.388 . S
C1828 H1799 0.930 1_655 S
C1828 C1823 1.391 . S
C1828 N1827 1.388 . S
Co1829 O1831 2.143 . S
Co1829 O1837 2.074 . S
Co1829 O1840 2.093 . S
Co1829 O1853 2.097 . S
Co1829 N1870 2.151 . S
Co1829 N1878 2.214 . S
Co1830 O1831 2.160 . S
Co1830 O1836 2.058 . S
Co1830 O1846 2.057 . S
Co1830 O1861 2.037 . S
Co1830 N1865 2.145 . S
Co1830 N1886 2.257 . S
O1831 Co1829 2.143 . S
O1831 Co1830 2.160 . S
C1832 O1833 1.278 . S
C1832 O1840 1.224 . S
O1833 C1832 1.278 . S
C1834 O1835 1.245 . S
C1834 O1846 1.232 . S
O1835 C1834 1.245 . S
O1836 Co1830 2.058 . S
O1836 C1862 1.269 . S
O1837 Co1829 2.074 . S
O1837 C1862 1.257 . S
H1838 C1863 0.930 . S
H1839 C1869 0.930 . S
O1840 Co1829 2.093 . S
O1840 C1832 1.224 . S
H1841 C1873 0.929 . S
H1842 C1875 0.930 . S
H1843 C1876 0.930 . S
H1844 C1874 0.929 . S
H1845 C1877 0.928 . S
O1846 Co1830 2.057 . S
O1846 C1834 1.232 . S
H1847 C1866 0.929 . S
H1848 C1867 0.929 . S
H1849 C1879 0.931 . S
H1850 C1871 0.929 . S
H1851 C1880 0.930 . S
H1852 C1872 0.931 . S
O1853 Co1829 2.097 . S
O1853 C1881 1.214 . S
H1854 C1882 0.929 . S
H1855 C1883 0.929 . S
H1856 C1884 0.930 . S
H1857 C1885 0.929 . S
H1858 C1887 0.930 . S
H1859 C1864 0.930 . S
H1860 C1868 0.930 . S
O1861 Co1830 2.037 . S
O1861 C1881 1.234 . S
C1862 O1836 1.269 . S
C1862 O1837 1.257 . S
C1863 H1838 0.930 . S
C1863 C1866 1.388 . S
C1863 C1868 1.418 . S
C1864 H1859 0.930 . S
C1864 C1867 1.404 . S
C1864 C1868 1.353 . S
N1865 Co1830 2.145 . S
N1865 C1866 1.397 . S
N1865 C1867 1.334 . S
C1866 H1847 0.929 . S
C1866 C1863 1.388 . S
C1866 N1865 1.397 . S
C1867 H1848 0.929 . S
C1867 C1864 1.404 . S
C1867 N1865 1.334 . S
C1868 H1860 0.930 . S
C1868 C1863 1.418 . S
C1868 C1864 1.353 . S
C1869 H1839 0.930 . S
C1869 N1870 1.330 . S
C1869 C1871 1.446 . S
N1870 Co1829 2.151 . S
N1870 C1869 1.330 . S
N1870 C1874 1.418 . S
C1871 H1850 0.929 . S
C1871 C1869 1.446 . S
C1871 C1872 1.332 . S
C1872 H1852 0.931 . S
C1872 C1871 1.332 . S
C1872 C1873 1.267 . S
C1873 H1841 0.929 . S
C1873 C1872 1.267 . S
C1873 C1874 1.251 . S
C1874 H1844 0.929 . S
C1874 N1870 1.418 . S
C1874 C1873 1.251 . S
C1875 H1842 0.930 . S
C1875 C1877 1.406 . S
C1875 C1880 1.261 . S
C1876 H1843 0.930 . S
C1876 N1878 1.325 . S
C1876 C1879 1.357 . S
C1877 H1845 0.928 . S
C1877 C1875 1.406 . S
C1877 N1878 1.261 . S
N1878 Co1829 2.214 . S
N1878 C1876 1.325 . S
N1878 C1877 1.261 . S
C1879 H1849 0.931 . S
C1879 C1876 1.357 . S
C1879 C1880 1.312 . S
C1880 H1851 0.930 . S
C1880 C1875 1.261 . S
C1880 C1879 1.312 . S
C1881 O1853 1.214 . S
C1881 O1861 1.234 . S
C1882 H1854 0.929 . S
C1882 C1885 1.391 . S
C1882 C1887 1.391 . S
C1883 H1855 0.929 . S
C1883 C1884 1.390 . S
C1883 N1886 1.391 . S
C1884 H1856 0.930 . S
C1884 C1883 1.390 . S
C1884 C1885 1.392 . S
C1885 H1857 0.929 . S
C1885 C1882 1.391 . S
C1885 C1884 1.392 . S
N1886 Co1830 2.257 . S
N1886 C1883 1.391 . S
N1886 C1887 1.388 . S
C1887 H1858 0.930 . S
C1887 C1882 1.391 . S
C1887 N1886 1.388 . S
H1888 C1896 0.929 . S
H1889 C1898 0.930 . S
H1890 C1900 0.930 . S
H1891 C1903 0.929 . S
H1892 C1906 0.930 . S
H1893 C1908 0.958 1_556 S
H1894 C1908 0.959 1_556 S
H1895 C1908 0.962 . S
C1896 H1888 0.929 . S
C1896 C1897 1.377 . S
C1896 C1898 1.384 . S
C1897 C1896 1.377 . S
C1897 C1903 1.390 . S
C1898 H1889 0.930 . S
C1898 C1896 1.384 . S
C1898 C1899 1.372 . S
C1899 C1898 1.372 . S
C1899 C1900 1.400 . S
C1899 C1904 1.490 . S
C1900 H1890 0.930 . S
C1900 C1899 1.400 . S
C1900 C1903 1.386 . S
H1901 C1917 0.897 1_655 S
H1902 C1918 0.931 . S
C1903 H1891 0.929 . S
C1903 C1897 1.390 . S
C1903 C1900 1.386 . S
C1904 C1899 1.490 . S
C1904 C1906 1.395 1_545 S
C1904 C1907 1.403 . S
H1905 C1911 0.930 1_545 S
C1906 H1892 0.930 . S
C1906 C1904 1.395 1_565 S
C1906 C1909 1.403 . S
C1907 C1904 1.403 . S
C1907 C1908 1.524 . S
C1907 C1911 1.400 1_544 S
C1908 H1893 0.958 1_554 S
C1908 H1894 0.959 1_554 S
C1908 H1895 0.962 . S
C1908 C1907 1.524 . S
C1909 C1906 1.403 . S
C1909 C1910 1.392 1_554 S
C1909 C1913 1.495 . S
C1910 C1909 1.392 1_556 S
C1910 C1911 1.385 . S
C1910 C1912 1.478 . S
C1911 H1905 0.930 1_565 S
C1911 C1907 1.400 1_566 S
C1911 C1910 1.385 . S
C1912 C1910 1.478 . S
C1912 C1914 1.381 . S
C1912 C1918 1.383 . S
C1913 C1909 1.495 . S
C1913 H1919 0.959 . S
C1913 H1920 0.961 . S
C1913 H1921 0.960 1_554 S
C1914 C1912 1.381 . S
C1914 C1915 1.394 . S
C1914 H1922 0.930 . S
C1915 C1914 1.394 . S
C1915 C1916 1.383 . S
C1915 H1923 0.929 . S
C1916 C1915 1.383 . S
C1916 C1917 1.393 . S
C1917 H1901 0.897 1_455 S
C1917 C1916 1.393 . S
C1917 C1918 1.396 . S
C1918 H1902 0.931 . S
C1918 C1912 1.383 . S
C1918 C1917 1.396 . S
H1919 C1913 0.959 . S
H1920 C1913 0.961 . S
H1921 C1913 0.960 1_556 S
H1922 C1914 0.930 . S
H1923 C1915 0.929 . S
H1924 C1932 0.929 . S
H1925 C1934 0.930 . S
H1926 C1936 0.930 . S
H1927 C1939 0.929 . S
H1928 C1942 0.930 . S
H1929 C1944 0.960 . S
H1930 C1944 0.960 . S
H1931 C1944 0.960 . S
C1932 H1924 0.929 . S
C1932 C1933 1.377 . S
C1932 C1934 1.384 . S
C1933 C1932 1.377 . S
C1933 C1939 1.390 . S
C1934 H1925 0.930 . S
C1934 C1932 1.384 . S
C1934 C1935 1.372 . S
C1935 C1934 1.372 . S
C1935 C1936 1.400 . S
C1935 C1940 1.490 . S
C1936 H1926 0.930 . S
C1936 C1935 1.400 . S
C1936 C1939 1.386 . S
H1937 C1953 0.930 . S
H1938 C1954 0.931 . S
C1939 H1927 0.929 . S
C1939 C1933 1.390 . S
C1939 C1936 1.386 . S
C1940 C1935 1.490 . S
C1940 C1942 1.395 . S
C1940 C1943 1.403 . S
H1941 C1947 0.930 . S
C1942 H1928 0.930 . S
C1942 C1940 1.395 . S
C1942 C1945 1.403 . S
C1943 C1940 1.403 . S
C1943 C1944 1.524 . S
C1943 C1947 1.400 . S
C1944 H1929 0.960 . S
C1944 H1930 0.960 . S
C1944 H1931 0.960 . S
C1944 C1943 1.524 . S
C1945 C1942 1.403 . S
C1945 C1946 1.392 . S
C1945 C1949 1.495 . S
C1946 C1945 1.392 . S
C1946 C1947 1.385 . S
C1946 C1948 1.478 . S
C1947 H1941 0.930 . S
C1947 C1943 1.400 . S
C1947 C1946 1.385 . S
C1948 C1946 1.478 . S
C1948 C1950 1.381 . S
C1948 C1954 1.383 . S
C1949 C1945 1.495 . S
C1949 H1955 0.959 . S
C1949 H1956 0.961 . S
C1949 H1957 0.960 . S
C1950 C1948 1.381 . S
C1950 C1951 1.394 . S
C1950 H1958 0.930 . S
C1951 C1950 1.394 . S
C1951 C1952 1.383 . S
C1951 H1959 0.929 . S
C1952 C1951 1.383 . S
C1952 C1953 1.377 . S
C1953 H1937 0.930 . S
C1953 C1952 1.377 . S
C1953 C1954 1.379 . S
C1954 H1938 0.931 . S
C1954 C1948 1.383 . S
C1954 C1953 1.379 . S
H1955 C1949 0.959 . S
H1956 C1949 0.961 . S
H1957 C1949 0.960 . S
H1958 C1950 0.930 . S
H1959 C1951 0.929 . S
H1960 C1968 0.929 . S
H1961 C1970 0.930 . S
H1962 C1972 0.945 . S
H1963 C1975 0.929 . S
H1964 C1978 0.939 . S
H1965 C1980 0.960 . S
H1966 C1980 0.960 . S
H1967 C1980 0.960 . S
C1968 H1960 0.929 . S
C1968 C1969 1.377 . S
C1968 C1970 1.384 . S
C1969 C1968 1.377 . S
C1969 C1975 1.390 . S
C1970 H1961 0.930 . S
C1970 C1968 1.384 . S
C1970 C1971 1.372 . S
C1971 C1970 1.372 . S
C1971 C1972 1.400 . S
C1971 C1976 1.490 . S
C1972 H1962 0.945 . S
C1972 C1971 1.400 . S
C1972 C1975 1.386 . S
H1973 C1989 0.930 . S
H1974 C1990 0.931 . S
C1975 H1963 0.929 . S
C1975 C1969 1.390 . S
C1975 C1972 1.386 . S
C1976 C1971 1.490 . S
C1976 C1978 1.408 . S
C1976 C1979 1.407 . S
H1977 C1983 0.930 . S
C1978 H1964 0.939 . S
C1978 C1976 1.408 . S
C1978 C1981 1.383 1_565 S
C1979 C1976 1.407 . S
C1979 C1980 1.532 . S
C1979 C1983 1.387 1_565 S
C1980 H1965 0.960 . S
C1980 H1966 0.960 . S
C1980 H1967 0.960 . S
C1980 C1979 1.532 . S
C1981 C1978 1.383 1_545 S
C1981 C1982 1.392 . S
C1981 C1985 1.495 . S
C1982 C1981 1.392 . S
C1982 C1983 1.385 . S
C1982 C1984 1.478 . S
C1983 H1977 0.930 . S
C1983 C1979 1.387 1_545 S
C1983 C1982 1.385 . S
C1984 C1982 1.478 . S
C1984 C1986 1.381 . S
C1984 C1990 1.383 . S
C1985 C1981 1.495 . S
C1985 H1991 0.959 . S
C1985 H1992 0.961 . S
C1985 H1993 0.960 . S
C1986 C1984 1.381 . S
C1986 C1987 1.394 . S
C1986 H1994 0.930 . S
C1987 C1986 1.394 . S
C1987 C1988 1.383 . S
C1987 H1995 0.929 . S
C1988 C1987 1.383 . S
C1988 C1989 1.377 . S
C1989 H1973 0.930 . S
C1989 C1988 1.377 . S
C1989 C1990 1.379 . S
C1990 H1974 0.931 . S
C1990 C1984 1.383 . S
C1990 C1989 1.379 . S
H1991 C1985 0.959 . S
H1992 C1985 0.961 . S
H1993 C1985 0.960 . S
H1994 C1986 0.930 . S
H1995 C1987 0.929 . S
H1996 C2004 0.929 . S
H1997 C2006 0.930 . S
H1998 C2008 0.930 . S
H1999 C2011 0.929 . S
H2000 C2014 0.930 . S
H2001 C2016 0.960 . S
H2002 C2016 0.960 . S
H2003 C2016 0.960 . S
C2004 H1996 0.929 . S
C2004 C2005 1.377 . S
C2004 C2006 1.384 . S
C2005 C2004 1.377 . S
C2005 C2011 1.390 . S
C2006 H1997 0.930 . S
C2006 C2004 1.384 . S
C2006 C2007 1.372 . S
C2007 C2006 1.372 . S
C2007 C2008 1.400 . S
C2007 C2012 1.490 . S
C2008 H1998 0.930 . S
C2008 C2007 1.400 . S
C2008 C2011 1.386 . S
H2009 C2025 0.930 . S
H2010 C2026 0.931 . S
C2011 H1999 0.929 . S
C2011 C2005 1.390 . S
C2011 C2008 1.386 . S
C2012 C2007 1.490 . S
C2012 C2014 1.395 . S
C2012 C2015 1.403 . S
H2013 C2019 0.930 . S
C2014 H2000 0.930 . S
C2014 C2012 1.395 . S
C2014 C2017 1.403 . S
C2015 C2012 1.403 . S
C2015 C2016 1.524 . S
C2015 C2019 1.400 . S
C2016 H2001 0.960 . S
C2016 H2002 0.960 . S
C2016 H2003 0.960 . S
C2016 C2015 1.524 . S
C2017 C2014 1.403 . S
C2017 C2018 1.392 . S
C2017 C2021 1.495 . S
C2018 C2017 1.392 . S
C2018 C2019 1.385 . S
C2018 C2020 1.478 . S
C2019 H2013 0.930 . S
C2019 C2015 1.400 . S
C2019 C2018 1.385 . S
C2020 C2018 1.478 . S
C2020 C2022 1.381 . S
C2020 C2026 1.383 . S
C2021 C2017 1.495 . S
C2021 H2027 0.959 . S
C2021 H2028 0.961 . S
C2021 H2029 0.960 . S
C2022 C2020 1.381 . S
C2022 C2023 1.394 . S
C2022 H2030 0.930 . S
C2023 C2022 1.394 . S
C2023 C2024 1.383 . S
C2023 H2031 0.929 . S
C2024 C2023 1.383 . S
C2024 C2025 1.377 . S
C2025 H2009 0.930 . S
C2025 C2024 1.377 . S
C2025 C2026 1.379 . S
C2026 H2010 0.931 . S
C2026 C2020 1.383 . S
C2026 C2025 1.379 . S
H2027 C2021 0.959 . S
H2028 C2021 0.961 . S
H2029 C2021 0.960 . S
H2030 C2022 0.930 . S
H2031 C2023 0.929 . S
H2032 C2040 0.929 . S
H2033 C2042 0.930 . S
H2034 C2044 0.930 . S
H2035 C2047 0.929 . S
H2036 C2050 0.930 . S
H2037 C2052 0.960 . S
H2038 C2052 0.960 1_455 S
H2039 C2052 0.960 . S
C2040 H2032 0.929 . S
C2040 C2041 1.377 . S
C2040 C2042 1.384 . S
C2041 C2040 1.377 . S
C2041 C2047 1.390 . S
C2042 H2033 0.930 . S
C2042 C2040 1.384 . S
C2042 C2043 1.372 . S
C2043 C2042 1.372 . S
C2043 C2044 1.400 . S
C2043 C2048 1.490 . S
C2044 H2034 0.930 . S
C2044 C2043 1.400 . S
C2044 C2047 1.386 . S
H2045 C2061 0.930 . S
H2046 C2062 0.931 . S
C2047 H2035 0.929 . S
C2047 C2041 1.390 . S
C2047 C2044 1.386 . S
C2048 C2043 1.490 . S
C2048 C2050 1.395 1_565 S
C2048 C2051 1.403 1_455 S
H2049 C2055 0.930 . S
C2050 H2036 0.930 . S
C2050 C2048 1.395 1_545 S
C2050 C2053 1.403 . S
C2051 C2048 1.403 1_655 S
C2051 C2052 1.524 . S
C2051 C2055 1.400 . S
C2052 H2037 0.960 . S
C2052 H2038 0.960 1_655 S
C2052 H2039 0.960 . S
C2052 C2051 1.524 . S
C2053 C2050 1.403 . S
C2053 C2054 1.392 1_455 S
C2053 C2057 1.495 . S
C2054 C2053 1.392 1_655 S
C2054 C2055 1.385 1_545 S
C2054 C2056 1.478 . S
C2055 H2049 0.930 . S
C2055 C2051 1.400 . S
C2055 C2054 1.385 1_565 S
C2056 C2054 1.478 . S
C2056 C2058 1.381 . S
C2056 C2062 1.383 . S
C2057 C2053 1.495 . S
C2057 H2063 0.959 . S
C2057 H2064 0.961 1_455 S
C2057 H2065 0.960 . S
C2058 C2056 1.381 . S
C2058 C2059 1.394 . S
C2058 H2066 0.930 . S
C2059 C2058 1.394 . S
C2059 C2060 1.383 . S
C2059 H2067 0.929 . S
C2060 C2059 1.383 . S
C2060 C2061 1.377 . S
C2061 H2045 0.930 . S
C2061 C2060 1.377 . S
C2061 C2062 1.379 . S
C2062 H2046 0.931 . S
C2062 C2056 1.383 . S
C2062 C2061 1.379 . S
H2063 C2057 0.959 . S
H2064 C2057 0.961 1_655 S
H2065 C2057 0.960 . S
H2066 C2058 0.930 . S
H2067 C2059 0.929 . S
H2068 C2076 0.929 . S
H2069 C2078 0.930 . S
H2070 C2080 0.930 . S
H2071 C2083 0.929 . S
H2072 C2086 0.930 . S
H2073 C2088 0.960 . S
H2074 C2088 0.960 . S
H2075 C2088 0.960 . S
C2076 H2068 0.929 . S
C2076 C2077 1.377 . S
C2076 C2078 1.384 . S
C2077 C2076 1.377 . S
C2077 C2083 1.390 . S
C2078 H2069 0.930 . S
C2078 C2076 1.384 . S
C2078 C2079 1.372 . S
C2079 C2078 1.372 . S
C2079 C2080 1.400 . S
C2079 C2084 1.490 . S
C2080 H2070 0.930 . S
C2080 C2079 1.400 . S
C2080 C2083 1.386 . S
H2081 C2097 0.930 . S
H2082 C2098 0.931 . S
C2083 H2071 0.929 . S
C2083 C2077 1.390 . S
C2083 C2080 1.386 . S
C2084 C2079 1.490 . S
C2084 C2086 1.395 . S
C2084 C2087 1.403 . S
H2085 C2091 0.930 . S
C2086 H2072 0.930 . S
C2086 C2084 1.395 . S
C2086 C2089 1.403 . S
C2087 C2084 1.403 . S
C2087 C2088 1.524 . S
C2087 C2091 1.400 . S
C2088 H2073 0.960 . S
C2088 H2074 0.960 . S
C2088 H2075 0.960 . S
C2088 C2087 1.524 . S
C2089 C2086 1.403 . S
C2089 C2090 1.392 . S
C2089 C2093 1.495 . S
C2090 C2089 1.392 . S
C2090 C2091 1.385 . S
C2090 C2092 1.478 . S
C2091 H2085 0.930 . S
C2091 C2087 1.400 . S
C2091 C2090 1.385 . S
C2092 C2090 1.478 . S
C2092 C2094 1.381 . S
C2092 C2098 1.383 . S
C2093 C2089 1.495 . S
C2093 H2099 0.959 . S
C2093 H2100 0.961 . S
C2093 H2101 0.960 . S
C2094 C2092 1.381 . S
C2094 C2095 1.394 . S
C2094 H2102 0.930 . S
C2095 C2094 1.394 . S
C2095 C2096 1.383 . S
C2095 H2103 0.929 . S
C2096 C2095 1.383 . S
C2096 C2097 1.377 . S
C2097 H2081 0.930 . S
C2097 C2096 1.377 . S
C2097 C2098 1.379 . S
C2098 H2082 0.931 . S
C2098 C2092 1.383 . S
C2098 C2097 1.379 . S
H2099 C2093 0.959 . S
H2100 C2093 0.961 . S
H2101 C2093 0.960 . S
H2102 C2094 0.930 . S
H2103 C2095 0.929 . S
H2104 C2112 0.929 . S
H2105 C2114 0.930 1_554 S
H2106 C2116 0.930 . S
H2107 C2119 0.929 . S
H2108 C2122 0.926 . S
H2109 C2124 0.960 . S
H2110 C2124 0.960 . S
H2111 C2124 0.960 . S
C2112 H2104 0.929 . S
C2112 C2113 1.377 . S
C2112 C2114 1.384 . S
C2113 C2112 1.377 . S
C2113 C2119 1.390 . S
C2114 H2105 0.930 1_556 S
C2114 C2112 1.384 . S
C2114 C2115 1.372 . S
C2115 C2114 1.372 . S
C2115 C2116 1.400 . S
C2115 C2120 1.490 1_556 S
C2116 H2106 0.930 . S
C2116 C2115 1.400 . S
C2116 C2119 1.386 . S
H2117 C2133 0.930 . S
H2118 C2134 0.931 . S
C2119 H2107 0.929 . S
C2119 C2113 1.390 . S
C2119 C2116 1.386 . S
C2120 C2115 1.490 1_554 S
C2120 C2122 1.375 1_545 S
C2120 C2123 1.403 . S
H2121 C2127 0.931 . S
C2122 H2108 0.926 . S
C2122 C2120 1.375 1_565 S
C2122 C2125 1.429 . S
C2123 C2120 1.403 . S
C2123 C2124 1.524 1_554 S
C2123 C2127 1.396 1_545 S
C2124 H2109 0.960 . S
C2124 H2110 0.960 . S
C2124 H2111 0.960 . S
C2124 C2123 1.524 1_556 S
C2125 C2122 1.429 . S
C2125 C2126 1.392 . S
C2125 C2129 1.495 . S
C2126 C2125 1.392 . S
C2126 C2127 1.388 . S
C2126 C2128 1.478 . S
C2127 H2121 0.931 . S
C2127 C2123 1.396 1_565 S
C2127 C2126 1.388 . S
C2128 C2126 1.478 . S
C2128 C2130 1.381 . S
C2128 C2134 1.383 . S
C2129 C2125 1.495 . S
C2129 H2135 0.959 . S
C2129 H2136 0.961 . S
C2129 H2137 0.960 . S
C2130 C2128 1.381 . S
C2130 C2131 1.394 . S
C2130 H2138 0.930 . S
C2131 C2130 1.394 . S
C2131 C2132 1.383 . S
C2131 H2139 0.929 . S
C2132 C2131 1.383 . S
C2132 C2133 1.377 . S
C2133 H2117 0.930 . S
C2133 C2132 1.377 . S
C2133 C2134 1.379 . S
C2134 H2118 0.931 . S
C2134 C2128 1.383 . S
C2134 C2133 1.379 . S
H2135 C2129 0.959 . S
H2136 C2129 0.961 . S
H2137 C2129 0.960 . S
H2138 C2130 0.930 . S
H2139 C2131 0.929 . S
H2140 C2148 0.929 . S
H2141 C2150 0.930 . S
H2142 C2152 0.930 . S
H2143 C2155 0.929 . S
H2144 C2158 0.930 . S
H2145 C2160 0.960 . S
H2146 C2160 0.960 . S
H2147 C2160 0.960 . S
C2148 H2140 0.929 . S
C2148 C2149 1.377 . S
C2148 C2150 1.384 . S
C2149 C2148 1.377 . S
C2149 C2155 1.390 . S
C2150 H2141 0.930 . S
C2150 C2148 1.384 . S
C2150 C2151 1.372 . S
C2151 C2150 1.372 . S
C2151 C2152 1.400 . S
C2151 C2156 1.490 . S
C2152 H2142 0.930 . S
C2152 C2151 1.400 . S
C2152 C2155 1.386 . S
H2153 C2169 0.930 . S
H2154 C2170 0.931 . S
C2155 H2143 0.929 . S
C2155 C2149 1.390 . S
C2155 C2152 1.386 . S
C2156 C2151 1.490 . S
C2156 C2158 1.395 . S
C2156 C2159 1.403 . S
H2157 C2163 0.930 . S
C2158 H2144 0.930 . S
C2158 C2156 1.395 . S
C2158 C2161 1.403 . S
C2159 C2156 1.403 . S
C2159 C2160 1.524 . S
C2159 C2163 1.400 . S
C2160 H2145 0.960 . S
C2160 H2146 0.960 . S
C2160 H2147 0.960 . S
C2160 C2159 1.524 . S
C2161 C2158 1.403 . S
C2161 C2162 1.392 . S
C2161 C2165 1.495 . S
C2162 C2161 1.392 . S
C2162 C2163 1.385 . S
C2162 C2164 1.478 . S
C2163 H2157 0.930 . S
C2163 C2159 1.400 . S
C2163 C2162 1.385 . S
C2164 C2162 1.478 . S
C2164 C2166 1.381 . S
C2164 C2170 1.383 . S
C2165 C2161 1.495 . S
C2165 H2171 0.959 . S
C2165 H2172 0.961 . S
C2165 H2173 0.960 . S
C2166 C2164 1.381 . S
C2166 C2167 1.394 . S
C2166 H2174 0.930 . S
C2167 C2166 1.394 . S
C2167 C2168 1.383 . S
C2167 H2175 0.929 . S
C2168 C2167 1.383 . S
C2168 C2169 1.377 . S
C2169 H2153 0.930 . S
C2169 C2168 1.377 . S
C2169 C2170 1.379 . S
C2170 H2154 0.931 . S
C2170 C2164 1.383 . S
C2170 C2169 1.379 . S
H2171 C2165 0.959 . S
H2172 C2165 0.961 . S
H2173 C2165 0.960 . S
H2174 C2166 0.930 . S
H2175 C2167 0.929 . S
H2176 C2184 0.929 . S
H2177 C2186 0.930 . S
H2178 C2188 0.930 . S
H2179 C2191 0.929 . S
H2180 C2194 0.930 . S
H2181 C2196 0.960 . S
H2182 C2196 0.960 . S
H2183 C2196 0.960 . S
C2184 H2176 0.929 . S
C2184 C2185 1.377 . S
C2184 C2186 1.384 . S
C2185 C2184 1.377 . S
C2185 C2191 1.390 . S
C2186 H2177 0.930 . S
C2186 C2184 1.384 . S
C2186 C2187 1.372 . S
C2187 C2186 1.372 . S
C2187 C2188 1.400 . S
C2187 C2192 1.490 . S
C2188 H2178 0.930 . S
C2188 C2187 1.400 . S
C2188 C2191 1.386 . S
H2189 C2205 0.930 . S
H2190 C2206 0.931 . S
C2191 H2179 0.929 . S
C2191 C2185 1.390 . S
C2191 C2188 1.386 . S
C2192 C2187 1.490 . S
C2192 C2194 1.395 . S
C2192 C2195 1.403 . S
H2193 C2199 0.930 . S
C2194 H2180 0.930 . S
C2194 C2192 1.395 . S
C2194 C2197 1.403 1_554 S
C2195 C2192 1.403 . S
C2195 C2196 1.524 . S
C2195 C2199 1.400 . S
C2196 H2181 0.960 . S
C2196 H2182 0.960 . S
C2196 H2183 0.960 . S
C2196 C2195 1.524 . S
C2197 C2194 1.403 1_556 S
C2197 C2198 1.392 1_556 S
C2197 C2201 1.495 . S
C2198 C2197 1.392 1_554 S
C2198 C2199 1.385 . S
C2198 C2200 1.478 1_554 S
C2199 H2193 0.930 . S
C2199 C2195 1.400 . S
C2199 C2198 1.385 . S
C2200 C2198 1.478 1_556 S
C2200 C2202 1.381 . S
C2200 C2206 1.383 . S
C2201 C2197 1.495 . S
C2201 H2207 0.959 . S
C2201 H2208 0.961 . S
C2201 H2209 0.960 . S
C2202 C2200 1.381 . S
C2202 C2203 1.394 . S
C2202 H2210 0.930 . S
C2203 C2202 1.394 . S
C2203 C2204 1.383 . S
C2203 H2211 0.929 . S
C2204 C2203 1.383 . S
C2204 C2205 1.377 . S
C2205 H2189 0.930 . S
C2205 C2204 1.377 . S
C2205 C2206 1.379 . S
C2206 H2190 0.931 . S
C2206 C2200 1.383 . S
C2206 C2205 1.379 . S
H2207 C2201 0.959 . S
H2208 C2201 0.961 . S
H2209 C2201 0.960 . S
H2210 C2202 0.930 . S
H2211 C2203 0.929 . S
H2212 C2220 0.929 . S
H2213 C2222 0.930 . S
H2214 C2224 0.930 . S
H2215 C2227 0.929 . S
H2216 C2230 0.930 . S
H2217 C2232 0.960 . S
H2218 C2232 0.960 . S
H2219 C2232 0.960 . S
C2220 H2212 0.929 . S
C2220 C2221 1.377 . S
C2220 C2222 1.384 . S
C2221 C2220 1.377 . S
C2221 C2227 1.390 . S
C2222 H2213 0.930 . S
C2222 C2220 1.384 . S
C2222 C2223 1.372 . S
C2223 C2222 1.372 . S
C2223 C2224 1.400 . S
C2223 C2228 1.490 . S
C2224 H2214 0.930 . S
C2224 C2223 1.400 . S
C2224 C2227 1.386 . S
H2225 C2241 0.930 . S
H2226 C2242 0.931 . S
C2227 H2215 0.929 . S
C2227 C2221 1.390 . S
C2227 C2224 1.386 . S
C2228 C2223 1.490 . S
C2228 C2230 1.395 . S
C2228 C2231 1.403 . S
H2229 C2235 0.930 . S
C2230 H2216 0.930 . S
C2230 C2228 1.395 . S
C2230 C2233 1.403 . S
C2231 C2228 1.403 . S
C2231 C2232 1.524 . S
C2231 C2235 1.400 . S
C2232 H2217 0.960 . S
C2232 H2218 0.960 . S
C2232 H2219 0.960 . S
C2232 C2231 1.524 . S
C2233 C2230 1.403 . S
C2233 C2234 1.392 . S
C2233 C2237 1.495 . S
C2234 C2233 1.392 . S
C2234 C2235 1.385 . S
C2234 C2236 1.478 . S
C2235 H2229 0.930 . S
C2235 C2231 1.400 . S
C2235 C2234 1.385 . S
C2236 C2234 1.478 . S
C2236 C2238 1.381 . S
C2236 C2242 1.383 . S
C2237 C2233 1.495 . S
C2237 H2243 0.959 . S
C2237 H2244 0.961 . S
C2237 H2245 0.960 . S
C2238 C2236 1.381 . S
C2238 C2239 1.394 . S
C2238 H2246 0.930 . S
C2239 C2238 1.394 . S
C2239 C2240 1.383 . S
C2239 H2247 0.929 . S
C2240 C2239 1.383 . S
C2240 C2241 1.377 . S
C2241 H2225 0.930 . S
C2241 C2240 1.377 . S
C2241 C2242 1.379 . S
C2242 H2226 0.931 . S
C2242 C2236 1.383 . S
C2242 C2241 1.379 . S
H2243 C2237 0.959 . S
H2244 C2237 0.961 . S
H2245 C2237 0.960 . S
H2246 C2238 0.930 . S
H2247 C2239 0.929 . S
H2248 C2256 0.929 . S
H2249 C2258 0.930 . S
H2250 C2260 0.930 . S
H2251 C2263 0.929 . S
H2252 C2266 0.930 . S
H2253 C2268 0.960 1_655 S
H2254 C2268 0.960 . S
H2255 C2268 0.960 . S
C2256 H2248 0.929 . S
C2256 C2257 1.377 . S
C2256 C2258 1.384 . S
C2257 C2256 1.377 . S
C2257 C2263 1.390 . S
C2258 H2249 0.930 . S
C2258 C2256 1.384 . S
C2258 C2259 1.372 . S
C2259 C2258 1.372 . S
C2259 C2260 1.400 . S
C2259 C2264 1.490 . S
C2260 H2250 0.930 . S
C2260 C2259 1.400 . S
C2260 C2263 1.386 . S
H2261 C2277 0.930 . S
H2262 C2278 0.931 . S
C2263 H2251 0.929 . S
C2263 C2257 1.390 . S
C2263 C2260 1.386 . S
C2264 C2259 1.490 . S
C2264 C2266 1.395 . S
C2264 C2267 1.403 . S
H2265 C2271 0.930 . S
C2266 H2252 0.930 . S
C2266 C2264 1.395 . S
C2266 C2269 1.403 . S
C2267 C2264 1.403 . S
C2267 C2268 1.524 . S
C2267 C2271 1.400 1_455 S
C2268 H2253 0.960 1_455 S
C2268 H2254 0.960 . S
C2268 H2255 0.960 . S
C2268 C2267 1.524 . S
C2269 C2266 1.403 . S
C2269 C2270 1.392 1_455 S
C2269 C2273 1.495 . S
C2270 C2269 1.392 1_655 S
C2270 C2271 1.385 . S
C2270 C2272 1.478 . S
C2271 H2265 0.930 . S
C2271 C2267 1.400 1_655 S
C2271 C2270 1.385 . S
C2272 C2270 1.478 . S
C2272 C2274 1.381 . S
C2272 C2278 1.383 . S
C2273 C2269 1.495 . S
C2273 H2279 0.959 . S
C2273 H2280 0.961 1_455 S
C2273 H2281 0.960 . S
C2274 C2272 1.381 . S
C2274 C2275 1.394 . S
C2274 H2282 0.953 . S
C2275 C2274 1.394 . S
C2275 C2276 1.383 . S
C2275 H2283 0.929 . S
C2276 C2275 1.383 . S
C2276 C2277 1.377 . S
C2277 H2261 0.930 . S
C2277 C2276 1.377 . S
C2277 C2278 1.379 . S
C2278 H2262 0.931 . S
C2278 C2272 1.383 . S
C2278 C2277 1.379 . S
H2279 C2273 0.959 . S
H2280 C2273 0.961 1_655 S
H2281 C2273 0.960 . S
H2282 C2274 0.953 . S
H2283 C2275 0.929 . S
H2284 C2292 0.929 . S
H2285 C2294 0.930 . S
H2286 C2296 0.930 . S
H2287 C2299 0.929 . S
H2288 C2302 0.930 . S
H2289 C2304 0.960 . S
H2290 C2304 0.960 . S
H2291 C2304 0.960 . S
C2292 H2284 0.929 . S
C2292 C2293 1.377 . S
C2292 C2294 1.384 . S
C2293 C2292 1.377 . S
C2293 C2299 1.390 . S
C2294 H2285 0.930 . S
C2294 C2292 1.384 . S
C2294 C2295 1.372 . S
C2295 C2294 1.372 . S
C2295 C2296 1.400 . S
C2295 C2300 1.490 . S
C2296 H2286 0.930 . S
C2296 C2295 1.400 . S
C2296 C2299 1.386 . S
H2297 C2313 0.930 . S
H2298 C2314 0.931 . S
C2299 H2287 0.929 . S
C2299 C2293 1.390 . S
C2299 C2296 1.386 . S
C2300 C2295 1.490 . S
C2300 C2302 1.395 . S
C2300 C2303 1.403 . S
H2301 C2307 0.930 . S
C2302 H2288 0.930 . S
C2302 C2300 1.395 . S
C2302 C2305 1.403 . S
C2303 C2300 1.403 . S
C2303 C2304 1.524 . S
C2303 C2307 1.400 . S
C2304 H2289 0.960 . S
C2304 H2290 0.960 . S
C2304 H2291 0.960 . S
C2304 C2303 1.524 . S
C2305 C2302 1.403 . S
C2305 C2306 1.392 . S
C2305 C2309 1.495 . S
C2306 C2305 1.392 . S
C2306 C2307 1.385 . S
C2306 C2308 1.478 . S
C2307 H2301 0.930 . S
C2307 C2303 1.400 . S
C2307 C2306 1.385 . S
C2308 C2306 1.478 . S
C2308 C2310 1.381 . S
C2308 C2314 1.383 . S
C2309 C2305 1.495 . S
C2309 H2315 0.959 . S
C2309 H2316 0.961 . S
C2309 H2317 0.960 . S
C2310 C2308 1.381 . S
C2310 C2311 1.394 . S
C2310 H2318 0.930 . S
C2311 C2310 1.394 . S
C2311 C2312 1.383 . S
C2311 H2319 0.929 . S
C2312 C2311 1.383 . S
C2312 C2313 1.377 . S
C2313 H2297 0.930 . S
C2313 C2312 1.377 . S
C2313 C2314 1.379 . S
C2314 H2298 0.931 . S
C2314 C2308 1.383 . S
C2314 C2313 1.379 . S
H2315 C2309 0.959 . S
H2316 C2309 0.961 . S
H2317 C2309 0.960 . S
H2318 C2310 0.930 . S
H2319 C2311 0.929 . S
H2320 C2328 0.929 . S
H2321 C2330 0.930 . S
H2322 C2332 0.930 . S
H2323 C2335 0.929 . S
H2324 C2338 0.930 . S
H2325 C2340 0.960 . S
H2326 C2340 0.960 . S
H2327 C2340 0.960 . S
C2328 H2320 0.929 . S
C2328 C2329 1.377 . S
C2328 C2330 1.384 . S
C2329 C2328 1.377 . S
C2329 C2335 1.390 . S
C2330 H2321 0.930 . S
C2330 C2328 1.384 . S
C2330 C2331 1.372 . S
C2331 C2330 1.372 . S
C2331 C2332 1.400 . S
C2331 C2336 1.490 . S
C2332 H2322 0.930 . S
C2332 C2331 1.400 . S
C2332 C2335 1.386 . S
H2333 C2349 0.930 . S
H2334 C2350 0.931 . S
C2335 H2323 0.929 . S
C2335 C2329 1.390 . S
C2335 C2332 1.386 . S
C2336 C2331 1.490 . S
C2336 C2338 1.395 . S
C2336 C2339 1.403 . S
H2337 C2343 0.930 . S
C2338 H2324 0.930 . S
C2338 C2336 1.395 . S
C2338 C2341 1.403 . S
C2339 C2336 1.403 . S
C2339 C2340 1.524 . S
C2339 C2343 1.400 . S
C2340 H2325 0.960 . S
C2340 H2326 0.960 . S
C2340 H2327 0.960 . S
C2340 C2339 1.524 . S
C2341 C2338 1.403 . S
C2341 C2342 1.392 . S
C2341 C2345 1.495 . S
C2342 C2341 1.392 . S
C2342 C2343 1.385 . S
C2342 C2344 1.478 . S
C2343 H2337 0.930 . S
C2343 C2339 1.400 . S
C2343 C2342 1.385 . S
C2344 C2342 1.478 . S
C2344 C2346 1.381 . S
C2344 C2350 1.383 . S
C2345 C2341 1.495 . S
C2345 H2351 0.959 . S
C2345 H2352 0.961 . S
C2345 H2353 0.960 . S
C2346 C2344 1.381 . S
C2346 C2347 1.394 . S
C2346 H2354 0.930 . S
C2347 C2346 1.394 . S
C2347 C2348 1.383 . S
C2347 H2355 0.929 . S
C2348 C2347 1.383 . S
C2348 C2349 1.377 . S
C2349 H2333 0.930 . S
C2349 C2348 1.377 . S
C2349 C2350 1.379 . S
C2350 H2334 0.931 . S
C2350 C2344 1.383 . S
C2350 C2349 1.379 . S
H2351 C2345 0.959 . S
H2352 C2345 0.961 . S
H2353 C2345 0.960 . S
H2354 C2346 0.930 . S
H2355 C2347 0.929 . S
H2356 C2364 0.929 . S
H2357 C2366 0.930 . S
H2358 C2368 0.930 . S
H2359 C2371 0.929 . S
H2360 C2374 0.930 . S
H2361 C2376 0.960 . S
H2362 C2376 0.960 . S
H2363 C2376 0.960 . S
C2364 H2356 0.929 . S
C2364 C2365 1.377 . S
C2364 C2366 1.384 . S
C2365 C2364 1.377 . S
C2365 C2371 1.390 . S
C2366 H2357 0.930 . S
C2366 C2364 1.384 . S
C2366 C2367 1.372 . S
C2367 C2366 1.372 . S
C2367 C2368 1.400 . S
C2367 C2372 1.490 . S
C2368 H2358 0.930 . S
C2368 C2367 1.400 . S
C2368 C2371 1.386 . S
H2369 C2385 0.930 . S
H2370 C2386 0.931 . S
C2371 H2359 0.929 . S
C2371 C2365 1.390 . S
C2371 C2368 1.386 . S
C2372 C2367 1.490 . S
C2372 C2374 1.395 . S
C2372 C2375 1.403 . S
H2373 C2379 0.930 . S
C2374 H2360 0.930 . S
C2374 C2372 1.395 . S
C2374 C2377 1.403 . S
C2375 C2372 1.403 . S
C2375 C2376 1.524 . S
C2375 C2379 1.400 . S
C2376 H2361 0.960 . S
C2376 H2362 0.960 . S
C2376 H2363 0.960 . S
C2376 C2375 1.524 . S
C2377 C2374 1.403 . S
C2377 C2378 1.392 . S
C2377 C2381 1.495 . S
C2378 C2377 1.392 . S
C2378 C2379 1.385 . S
C2378 C2380 1.478 . S
C2379 H2373 0.930 . S
C2379 C2375 1.400 . S
C2379 C2378 1.385 . S
C2380 C2378 1.478 . S
C2380 C2382 1.381 . S
C2380 C2386 1.383 . S
C2381 C2377 1.495 . S
C2381 H2387 0.959 . S
C2381 H2388 0.961 . S
C2381 H2389 0.960 . S
C2382 C2380 1.381 . S
C2382 C2383 1.394 . S
C2382 H2390 0.930 . S
C2383 C2382 1.394 . S
C2383 C2384 1.383 . S
C2383 H2391 0.929 . S
C2384 C2383 1.383 . S
C2384 C2385 1.377 . S
C2385 H2369 0.930 . S
C2385 C2384 1.377 . S
C2385 C2386 1.379 . S
C2386 H2370 0.931 . S
C2386 C2380 1.383 . S
C2386 C2385 1.379 . S
H2387 C2381 0.959 . S
H2388 C2381 0.961 . S
H2389 C2381 0.960 . S
H2390 C2382 0.930 . S
H2391 C2383 0.929 . S
H2392 C2400 0.929 . S
H2393 C2402 0.930 . S
H2394 C2404 0.930 . S
H2395 C2407 0.929 . S
H2396 C2410 0.930 . S
H2397 C2412 0.960 . S
H2398 C2412 0.960 . S
H2399 C2412 0.960 . S
C2400 H2392 0.929 . S
C2400 C2401 1.377 . S
C2400 C2402 1.384 . S
C2401 C2400 1.377 . S
C2401 C2407 1.390 . S
C2402 H2393 0.930 . S
C2402 C2400 1.384 . S
C2402 C2403 1.372 . S
C2403 C2402 1.372 . S
C2403 C2404 1.400 . S
C2403 C2408 1.490 . S
C2404 H2394 0.930 . S
C2404 C2403 1.400 . S
C2404 C2407 1.386 . S
H2405 C2421 0.930 . S
H2406 C2422 0.931 . S
C2407 H2395 0.929 . S
C2407 C2401 1.390 . S
C2407 C2404 1.386 . S
C2408 C2403 1.490 . S
C2408 C2410 1.395 . S
C2408 C2411 1.403 . S
H2409 C2415 0.930 . S
C2410 H2396 0.930 . S
C2410 C2408 1.395 . S
C2410 C2413 1.403 . S
C2411 C2408 1.403 . S
C2411 C2412 1.524 . S
C2411 C2415 1.400 . S
C2412 H2397 0.960 . S
C2412 H2398 0.960 . S
C2412 H2399 0.960 . S
C2412 C2411 1.524 . S
C2413 C2410 1.403 . S
C2413 C2414 1.392 . S
C2413 C2417 1.495 . S
C2414 C2413 1.392 . S
C2414 C2415 1.385 . S
C2414 C2416 1.478 . S
C2415 H2409 0.930 . S
C2415 C2411 1.400 . S
C2415 C2414 1.385 . S
C2416 C2414 1.478 . S
C2416 C2418 1.381 . S
C2416 C2422 1.383 . S
C2417 C2413 1.495 . S
C2417 H2423 0.959 . S
C2417 H2424 0.961 . S
C2417 H2425 0.960 . S
C2418 C2416 1.381 . S
C2418 C2419 1.394 . S
C2418 H2426 0.930 . S
C2419 C2418 1.394 . S
C2419 C2420 1.383 . S
C2419 H2427 0.929 . S
C2420 C2419 1.383 . S
C2420 C2421 1.377 . S
C2421 H2405 0.930 . S
C2421 C2420 1.377 . S
C2421 C2422 1.379 . S
C2422 H2406 0.931 . S
C2422 C2416 1.383 . S
C2422 C2421 1.379 . S
H2423 C2417 0.959 . S
H2424 C2417 0.961 . S
H2425 C2417 0.960 . S
H2426 C2418 0.930 . S
H2427 C2419 0.929 . S
H2428 C2436 0.929 . S
H2429 C2438 0.930 . S
H2430 C2440 0.930 . S
H2431 C2443 0.929 . S
H2432 C2446 0.933 . S
H2433 C2448 0.960 . S
H2434 C2448 0.960 . S
H2435 C2448 0.960 . S
C2436 H2428 0.929 . S
C2436 C2437 1.377 . S
C2436 C2438 1.384 . S
C2437 C2436 1.377 . S
C2437 C2443 1.390 . S
C2438 H2429 0.930 . S
C2438 C2436 1.384 . S
C2438 C2439 1.372 . S
C2439 C2438 1.372 . S
C2439 C2440 1.400 . S
C2439 C2444 1.490 . S
C2440 H2430 0.930 . S
C2440 C2439 1.400 . S
C2440 C2443 1.386 . S
H2441 C2457 0.930 . S
H2442 C2458 0.931 . S
C2443 H2431 0.929 . S
C2443 C2437 1.390 . S
C2443 C2440 1.386 . S
C2444 C2439 1.490 . S
C2444 C2446 1.402 . S
C2444 C2447 1.403 . S
H2445 C2451 0.930 . S
C2446 H2432 0.933 . S
C2446 C2444 1.402 . S
C2446 C2449 1.393 1_556 S
C2447 C2444 1.403 . S
C2447 C2448 1.524 . S
C2447 C2451 1.400 1_556 S
C2448 H2433 0.960 . S
C2448 H2434 0.960 . S
C2448 H2435 0.960 . S
C2448 C2447 1.524 . S
C2449 C2446 1.393 1_554 S
C2449 C2450 1.392 . S
C2449 C2453 1.495 . S
C2450 C2449 1.392 . S
C2450 C2451 1.385 . S
C2450 C2452 1.478 . S
C2451 H2445 0.930 . S
C2451 C2447 1.400 1_554 S
C2451 C2450 1.385 . S
C2452 C2450 1.478 . S
C2452 C2454 1.381 . S
C2452 C2458 1.383 . S
C2453 C2449 1.495 . S
C2453 H2459 0.959 . S
C2453 H2460 0.961 . S
C2453 H2461 0.960 . S
C2454 C2452 1.381 . S
C2454 C2455 1.394 . S
C2454 H2462 0.930 . S
C2455 C2454 1.394 . S
C2455 C2456 1.383 . S
C2455 H2463 0.929 . S
C2456 C2455 1.383 . S
C2456 C2457 1.377 . S
C2457 H2441 0.930 . S
C2457 C2456 1.377 . S
C2457 C2458 1.379 . S
C2458 H2442 0.931 . S
C2458 C2452 1.383 . S
C2458 C2457 1.379 . S
H2459 C2453 0.959 . S
H2460 C2453 0.961 . S
H2461 C2453 0.960 . S
H2462 C2454 0.930 . S
H2463 C2455 0.929 . S
H2464 C2472 0.929 . S
H2465 C2474 0.930 . S
H2466 C2476 0.953 . S
H2467 C2479 0.929 . S
H2468 C2482 0.930 1_545 S
H2469 C2484 0.960 . S
H2470 C2484 0.960 . S
H2471 C2484 0.960 . S
C2472 H2464 0.929 . S
C2472 C2473 1.377 . S
C2472 C2474 1.384 . S
C2473 C2472 1.377 . S
C2473 C2479 1.390 . S
C2474 H2465 0.930 . S
C2474 C2472 1.384 . S
C2474 C2475 1.372 . S
C2475 C2474 1.372 . S
C2475 C2476 1.400 . S
C2475 C2480 1.490 1_545 S
C2476 H2466 0.953 . S
C2476 C2475 1.400 . S
C2476 C2479 1.386 . S
H2477 C2493 0.930 . S
H2478 C2494 0.931 . S
C2479 H2467 0.929 . S
C2479 C2473 1.390 . S
C2479 C2476 1.386 . S
C2480 C2475 1.490 1_565 S
C2480 C2482 1.395 . S
C2480 C2483 1.403 . S
H2481 C2487 0.930 . S
C2482 H2468 0.930 1_565 S
C2482 C2480 1.395 . S
C2482 C2485 1.403 . S
C2483 C2480 1.403 . S
C2483 C2484 1.524 . S
C2483 C2487 1.400 . S
C2484 H2469 0.960 . S
C2484 H2470 0.960 . S
C2484 H2471 0.960 . S
C2484 C2483 1.524 . S
C2485 C2482 1.403 . S
C2485 C2486 1.392 . S
C2485 C2489 1.495 . S
C2486 C2485 1.392 . S
C2486 C2487 1.385 . S
C2486 C2488 1.478 . S
C2487 H2481 0.930 . S
C2487 C2483 1.400 . S
C2487 C2486 1.385 . S
C2488 C2486 1.478 . S
C2488 C2490 1.381 . S
C2488 C2494 1.383 . S
C2489 C2485 1.495 . S
C2489 H2495 0.959 . S
C2489 H2496 0.961 . S
C2489 H2497 0.960 . S
C2490 C2488 1.381 . S
C2490 C2491 1.394 . S
C2490 H2498 0.930 . S
C2491 C2490 1.394 . S
C2491 C2492 1.383 . S
C2491 H2499 0.929 . S
C2492 C2491 1.383 . S
C2492 C2493 1.377 . S
C2493 H2477 0.930 . S
C2493 C2492 1.377 . S
C2493 C2494 1.379 . S
C2494 H2478 0.931 . S
C2494 C2488 1.383 . S
C2494 C2493 1.379 . S
H2495 C2489 0.959 . S
H2496 C2489 0.961 . S
H2497 C2489 0.960 . S
H2498 C2490 0.930 . S
H2499 C2491 0.929 . S
H2500 C2508 0.929 . S
H2501 C2510 0.930 . S
H2502 C2512 0.930 . S
H2503 C2515 0.929 . S
H2504 C2518 0.930 . S
H2505 C2520 0.960 . S
H2506 C2520 0.960 . S
H2507 C2520 0.960 . S
C2508 H2500 0.929 . S
C2508 C2509 1.377 . S
C2508 C2510 1.384 . S
C2509 C2508 1.377 . S
C2509 C2515 1.390 . S
C2510 H2501 0.930 . S
C2510 C2508 1.384 . S
C2510 C2511 1.372 . S
C2511 C2510 1.372 . S
C2511 C2512 1.400 . S
C2511 C2516 1.490 . S
C2512 H2502 0.930 . S
C2512 C2511 1.400 . S
C2512 C2515 1.386 . S
H2513 C2529 0.930 . S
H2514 C2530 0.931 . S
C2515 H2503 0.929 . S
C2515 C2509 1.390 . S
C2515 C2512 1.386 . S
C2516 C2511 1.490 . S
C2516 C2518 1.395 . S
C2516 C2519 1.403 . S
H2517 C2523 0.930 . S
C2518 H2504 0.930 . S
C2518 C2516 1.395 . S
C2518 C2521 1.403 . S
C2519 C2516 1.403 . S
C2519 C2520 1.524 . S
C2519 C2523 1.400 . S
C2520 H2505 0.960 . S
C2520 H2506 0.960 . S
C2520 H2507 0.960 . S
C2520 C2519 1.524 . S
C2521 C2518 1.403 . S
C2521 C2522 1.392 . S
C2521 C2525 1.495 . S
C2522 C2521 1.392 . S
C2522 C2523 1.385 . S
C2522 C2524 1.478 . S
C2523 H2517 0.930 . S
C2523 C2519 1.400 . S
C2523 C2522 1.385 . S
C2524 C2522 1.478 . S
C2524 C2526 1.381 . S
C2524 C2530 1.383 . S
C2525 C2521 1.495 . S
C2525 H2531 0.959 . S
C2525 H2532 0.961 . S
C2525 H2533 0.960 . S
C2526 C2524 1.381 . S
C2526 C2527 1.394 . S
C2526 H2534 0.930 . S
C2527 C2526 1.394 . S
C2527 C2528 1.383 . S
C2527 H2535 0.929 . S
C2528 C2527 1.383 . S
C2528 C2529 1.377 . S
C2529 H2513 0.930 . S
C2529 C2528 1.377 . S
C2529 C2530 1.379 . S
C2530 H2514 0.931 . S
C2530 C2524 1.383 . S
C2530 C2529 1.379 . S
H2531 C2525 0.959 . S
H2532 C2525 0.961 . S
H2533 C2525 0.960 . S
H2534 C2526 0.930 . S
H2535 C2527 0.929 . S
H2536 C2544 0.929 . S
H2537 C2546 0.930 . S
H2538 C2548 0.930 . S
H2539 C2551 0.929 . S
H2540 C2554 0.930 . S
H2541 C2556 0.960 . S
H2542 C2556 0.960 . S
H2543 C2556 0.960 . S
C2544 H2536 0.929 . S
C2544 C2545 1.377 . S
C2544 C2546 1.384 . S
C2545 C2544 1.377 . S
C2545 C2551 1.390 . S
C2546 H2537 0.930 . S
C2546 C2544 1.384 . S
C2546 C2547 1.372 . S
C2547 C2546 1.372 . S
C2547 C2548 1.400 . S
C2547 C2552 1.490 . S
C2548 H2538 0.930 . S
C2548 C2547 1.400 . S
C2548 C2551 1.386 . S
H2549 C2565 0.930 . S
H2550 C2566 0.931 1_545 S
C2551 H2539 0.929 . S
C2551 C2545 1.390 . S
C2551 C2548 1.386 . S
C2552 C2547 1.490 . S
C2552 C2554 1.395 . S
C2552 C2555 1.403 . S
H2553 C2559 0.930 . S
C2554 H2540 0.930 . S
C2554 C2552 1.395 . S
C2554 C2557 1.403 . S
C2555 C2552 1.403 . S
C2555 C2556 1.524 . S
C2555 C2559 1.400 . S
C2556 H2541 0.960 . S
C2556 H2542 0.960 . S
C2556 H2543 0.960 . S
C2556 C2555 1.524 . S
C2557 C2554 1.403 . S
C2557 C2558 1.392 . S
C2557 C2561 1.495 . S
C2558 C2557 1.392 . S
C2558 C2559 1.385 . S
C2558 C2560 1.478 1_545 S
C2559 H2553 0.930 . S
C2559 C2555 1.400 . S
C2559 C2558 1.385 . S
C2560 C2558 1.478 1_565 S
C2560 C2562 1.381 . S
C2560 C2566 1.383 . S
C2561 C2557 1.495 . S
C2561 H2567 0.959 . S
C2561 H2568 0.961 . S
C2561 H2569 0.960 . S
C2562 C2560 1.381 . S
C2562 C2563 1.394 . S
C2562 H2570 0.930 . S
C2563 C2562 1.394 . S
C2563 C2564 1.383 . S
C2563 H2571 0.929 . S
C2564 C2563 1.383 . S
C2564 C2565 1.377 . S
C2565 H2549 0.930 . S
C2565 C2564 1.377 . S
C2565 C2566 1.379 . S
C2566 H2550 0.931 1_565 S
C2566 C2560 1.383 . S
C2566 C2565 1.379 . S
H2567 C2561 0.959 . S
H2568 C2561 0.961 . S
H2569 C2561 0.960 . S
H2570 C2562 0.930 . S
H2571 C2563 0.929 . S
H2572 C2580 0.929 . S
H2573 C2582 0.930 . S
H2574 C2584 0.930 . S
H2575 C2587 0.929 . S
H2576 C2590 0.930 . S
H2577 C2592 0.960 . S
H2578 C2592 0.960 . S
H2579 C2592 0.960 . S
C2580 H2572 0.929 . S
C2580 C2581 1.377 . S
C2580 C2582 1.384 . S
C2581 C2580 1.377 . S
C2581 C2587 1.390 . S
C2582 H2573 0.930 . S
C2582 C2580 1.384 . S
C2582 C2583 1.372 . S
C2583 C2582 1.372 . S
C2583 C2584 1.400 . S
C2583 C2588 1.490 . S
C2584 H2574 0.930 . S
C2584 C2583 1.400 . S
C2584 C2587 1.386 . S
H2585 C2601 0.930 . S
H2586 C2602 0.931 1_556 S
C2587 H2575 0.929 . S
C2587 C2581 1.390 . S
C2587 C2584 1.386 . S
C2588 C2583 1.490 . S
C2588 C2590 1.395 . S
C2588 C2591 1.403 . S
H2589 C2595 0.930 . S
C2590 H2576 0.930 . S
C2590 C2588 1.395 . S
C2590 C2593 1.403 . S
C2591 C2588 1.403 . S
C2591 C2592 1.524 . S
C2591 C2595 1.400 . S
C2592 H2577 0.960 . S
C2592 H2578 0.960 . S
C2592 H2579 0.960 . S
C2592 C2591 1.524 . S
C2593 C2590 1.403 . S
C2593 C2594 1.392 . S
C2593 C2597 1.495 . S
C2594 C2593 1.392 . S
C2594 C2595 1.385 . S
C2594 C2596 1.478 1_556 S
C2595 H2589 0.930 . S
C2595 C2591 1.400 . S
C2595 C2594 1.385 . S
C2596 C2594 1.478 1_554 S
C2596 C2598 1.381 . S
C2596 C2602 1.383 . S
C2597 C2593 1.495 . S
C2597 H2603 0.959 . S
C2597 H2604 0.961 . S
C2597 H2605 0.960 . S
C2598 C2596 1.381 . S
C2598 C2599 1.394 . S
C2598 H2606 0.930 . S
C2599 C2598 1.394 . S
C2599 C2600 1.383 . S
C2599 H2607 0.929 . S
C2600 C2599 1.383 . S
C2600 C2601 1.377 . S
C2601 H2585 0.930 . S
C2601 C2600 1.377 . S
C2601 C2602 1.379 . S
C2602 H2586 0.931 1_554 S
C2602 C2596 1.383 . S
C2602 C2601 1.379 . S
H2603 C2597 0.959 . S
H2604 C2597 0.961 . S
H2605 C2597 0.960 . S
H2606 C2598 0.930 . S
H2607 C2599 0.929 . S
H2608 C2616 0.929 . S
H2609 C2618 0.930 . S
H2610 C2620 0.930 . S
H2611 C2623 0.929 . S
H2612 C2626 0.930 . S
H2613 C2628 0.960 . S
H2614 C2628 0.960 . S
H2615 C2628 0.960 . S
C2616 H2608 0.929 . S
C2616 C2617 1.377 . S
C2616 C2618 1.384 . S
C2617 C2616 1.377 . S
C2617 C2623 1.390 . S
C2618 H2609 0.930 . S
C2618 C2616 1.384 . S
C2618 C2619 1.372 . S
C2619 C2618 1.372 . S
C2619 C2620 1.400 . S
C2619 C2624 1.490 . S
C2620 H2610 0.930 . S
C2620 C2619 1.400 . S
C2620 C2623 1.386 . S
H2621 C2637 0.930 . S
H2622 C2638 0.931 . S
C2623 H2611 0.929 . S
C2623 C2617 1.390 . S
C2623 C2620 1.386 . S
C2624 C2619 1.490 . S
C2624 C2626 1.395 . S
C2624 C2627 1.403 . S
H2625 C2631 0.930 . S
C2626 H2612 0.930 . S
C2626 C2624 1.395 . S
C2626 C2629 1.403 . S
C2627 C2624 1.403 . S
C2627 C2628 1.524 . S
C2627 C2631 1.400 . S
C2628 H2613 0.960 . S
C2628 H2614 0.960 . S
C2628 H2615 0.960 . S
C2628 C2627 1.524 . S
C2629 C2626 1.403 . S
C2629 C2630 1.392 . S
C2629 C2633 1.495 1_545 S
C2630 C2629 1.392 . S
C2630 C2631 1.385 . S
C2630 C2632 1.470 1_545 S
C2631 H2625 0.930 . S
C2631 C2627 1.400 . S
C2631 C2630 1.385 . S
C2632 C2630 1.470 1_565 S
C2632 C2634 1.389 . S
C2632 C2638 1.383 1_565 S
C2633 C2629 1.495 1_565 S
C2633 H2639 0.959 . S
C2633 H2640 0.961 . S
C2633 H2641 0.960 . S
C2634 C2632 1.389 . S
C2634 C2635 1.394 . S
C2634 H2642 0.930 . S
C2635 C2634 1.394 . S
C2635 C2636 1.383 . S
C2635 H2643 0.929 . S
C2636 C2635 1.383 . S
C2636 C2637 1.377 . S
C2637 H2621 0.930 . S
C2637 C2636 1.377 . S
C2637 C2638 1.379 1_565 S
C2638 H2622 0.931 . S
C2638 C2632 1.383 1_545 S
C2638 C2637 1.379 1_545 S
H2639 C2633 0.959 . S
H2640 C2633 0.961 . S
H2641 C2633 0.960 . S
H2642 C2634 0.930 . S
H2643 C2635 0.929 . S
H2644 C2652 0.929 . S
H2645 C2654 0.930 . S
H2646 C2656 0.930 . S
H2647 C2659 0.929 . S
H2648 C2662 0.930 . S
H2649 C2664 0.960 . S
H2650 C2664 0.960 . S
H2651 C2664 0.960 . S
C2652 H2644 0.929 . S
C2652 C2653 1.377 . S
C2652 C2654 1.384 . S
C2653 C2652 1.377 . S
C2653 C2659 1.390 . S
C2654 H2645 0.930 . S
C2654 C2652 1.384 . S
C2654 C2655 1.372 . S
C2655 C2654 1.372 . S
C2655 C2656 1.400 . S
C2655 C2660 1.490 . S
C2656 H2646 0.930 . S
C2656 C2655 1.400 . S
C2656 C2659 1.386 . S
H2657 C2673 0.930 . S
H2658 C2674 0.931 . S
C2659 H2647 0.929 . S
C2659 C2653 1.390 . S
C2659 C2656 1.386 . S
C2660 C2655 1.490 . S
C2660 C2662 1.395 . S
C2660 C2663 1.403 . S
H2661 C2667 0.930 . S
C2662 H2648 0.930 . S
C2662 C2660 1.395 . S
C2662 C2665 1.403 . S
C2663 C2660 1.403 . S
C2663 C2664 1.524 . S
C2663 C2667 1.400 . S
C2664 H2649 0.960 . S
C2664 H2650 0.960 . S
C2664 H2651 0.960 . S
C2664 C2663 1.524 . S
C2665 C2662 1.403 . S
C2665 C2666 1.392 . S
C2665 C2669 1.495 . S
C2666 C2665 1.392 . S
C2666 C2667 1.385 . S
C2666 C2668 1.478 . S
C2667 H2661 0.930 . S
C2667 C2663 1.400 . S
C2667 C2666 1.385 . S
C2668 C2666 1.478 . S
C2668 C2670 1.381 . S
C2668 C2674 1.383 . S
C2669 C2665 1.495 . S
C2669 H2675 0.959 . S
C2669 H2676 0.961 . S
C2669 H2677 0.960 . S
C2670 C2668 1.381 . S
C2670 C2671 1.394 . S
C2670 H2678 0.930 . S
C2671 C2670 1.394 . S
C2671 C2672 1.383 . S
C2671 H2679 0.929 . S
C2672 C2671 1.383 . S
C2672 C2673 1.377 . S
C2673 H2657 0.930 . S
C2673 C2672 1.377 . S
C2673 C2674 1.379 . S
C2674 H2658 0.931 . S
C2674 C2668 1.383 . S
C2674 C2673 1.379 . S
H2675 C2669 0.959 . S
H2676 C2669 0.961 . S
H2677 C2669 0.960 . S
H2678 C2670 0.930 . S
H2679 C2671 0.929 . S
H2680 C2688 0.929 . S
H2681 C2690 0.930 . S
H2682 C2692 0.930 . S
H2683 C2695 0.929 . S
H2684 C2698 0.930 1_545 S
H2685 C2700 0.960 . S
H2686 C2700 0.960 . S
H2687 C2700 0.960 . S
C2688 H2680 0.929 . S
C2688 C2689 1.377 . S
C2688 C2690 1.384 . S
C2689 C2688 1.377 . S
C2689 C2695 1.390 . S
C2690 H2681 0.930 . S
C2690 C2688 1.384 . S
C2690 C2691 1.372 1_545 S
C2691 C2690 1.372 1_565 S
C2691 C2692 1.400 . S
C2691 C2696 1.490 . S
C2692 H2682 0.930 . S
C2692 C2691 1.400 . S
C2692 C2695 1.386 1_565 S
H2693 C2709 0.930 . S
H2694 C2710 0.931 . S
C2695 H2683 0.929 . S
C2695 C2689 1.390 . S
C2695 C2692 1.386 1_545 S
C2696 C2691 1.490 . S
C2696 C2698 1.395 . S
C2696 C2699 1.403 . S
H2697 C2703 0.930 . S
C2698 H2684 0.930 1_565 S
C2698 C2696 1.395 . S
C2698 C2701 1.403 . S
C2699 C2696 1.403 . S
C2699 C2700 1.524 . S
C2699 C2703 1.400 . S
C2700 H2685 0.960 . S
C2700 H2686 0.960 . S
C2700 H2687 0.960 . S
C2700 C2699 1.524 . S
C2701 C2698 1.403 . S
C2701 C2702 1.392 . S
C2701 C2705 1.495 . S
C2702 C2701 1.392 . S
C2702 C2703 1.385 . S
C2702 C2704 1.478 . S
C2703 H2697 0.930 . S
C2703 C2699 1.400 . S
C2703 C2702 1.385 . S
C2704 C2702 1.478 . S
C2704 C2706 1.381 . S
C2704 C2710 1.383 . S
C2705 C2701 1.495 . S
C2705 H2711 0.987 . S
C2705 H2712 0.961 . S
C2705 H2713 0.960 . S
C2706 C2704 1.381 . S
C2706 C2707 1.394 . S
C2706 H2714 0.930 . S
C2707 C2706 1.394 . S
C2707 C2708 1.383 . S
C2707 H2715 0.929 . S
C2708 C2707 1.383 . S
C2708 C2709 1.377 . S
C2709 H2693 0.930 . S
C2709 C2708 1.377 . S
C2709 C2710 1.379 . S
C2710 H2694 0.931 . S
C2710 C2704 1.383 . S
C2710 C2709 1.379 . S
H2711 C2705 0.987 . S
H2712 C2705 0.961 . S
H2713 C2705 0.960 . S
H2714 C2706 0.930 . S
H2715 C2707 0.929 . S
H2716 C2724 0.929 . S
H2717 C2726 0.930 . S
H2718 C2728 0.930 1_554 S
H2719 C2731 0.929 . S
H2720 C2734 0.930 1_556 S
H2721 C2736 0.960 . S
H2722 C2736 0.960 . S
H2723 C2736 0.960 . S
C2724 H2716 0.929 . S
C2724 C2725 1.377 . S
C2724 C2726 1.384 . S
C2725 C2724 1.377 . S
C2725 C2731 1.390 . S
C2726 H2717 0.930 . S
C2726 C2724 1.384 . S
C2726 C2727 1.372 . S
C2727 C2726 1.372 . S
C2727 C2728 1.400 . S
C2727 C2732 1.490 1_556 S
C2728 H2718 0.930 1_556 S
C2728 C2727 1.400 . S
C2728 C2731 1.386 . S
H2729 C2745 0.930 . S
H2730 C2746 0.931 . S
C2731 H2719 0.929 . S
C2731 C2725 1.390 . S
C2731 C2728 1.386 . S
C2732 C2727 1.490 1_554 S
C2732 C2734 1.395 . S
C2732 C2735 1.403 . S
H2733 C2739 0.930 . S
C2734 H2720 0.930 1_554 S
C2734 C2732 1.395 . S
C2734 C2737 1.403 . S
C2735 C2732 1.403 . S
C2735 C2736 1.524 . S
C2735 C2739 1.400 . S
C2736 H2721 0.960 . S
C2736 H2722 0.960 . S
C2736 H2723 0.960 . S
C2736 C2735 1.524 . S
C2737 C2734 1.403 . S
C2737 C2738 1.392 . S
C2737 C2741 1.495 . S
C2738 C2737 1.392 . S
C2738 C2739 1.385 . S
C2738 C2740 1.478 . S
C2739 H2733 0.930 . S
C2739 C2735 1.400 . S
C2739 C2738 1.385 . S
C2740 C2738 1.478 . S
C2740 C2742 1.381 . S
C2740 C2746 1.383 . S
C2741 C2737 1.495 . S
C2741 H2747 0.959 1_554 S
C2741 H2748 0.961 . S
C2741 H2749 0.960 . S
C2742 C2740 1.381 . S
C2742 C2743 1.394 . S
C2742 H2750 0.930 . S
C2743 C2742 1.394 . S
C2743 C2744 1.383 . S
C2743 H2751 0.929 . S
C2744 C2743 1.383 . S
C2744 C2745 1.377 . S
C2745 H2729 0.930 . S
C2745 C2744 1.377 . S
C2745 C2746 1.379 . S
C2746 H2730 0.931 . S
C2746 C2740 1.383 . S
C2746 C2745 1.379 . S
H2747 C2741 0.959 1_556 S
H2748 C2741 0.961 . S
H2749 C2741 0.960 . S
H2750 C2742 0.930 . S
H2751 C2743 0.929 . S
H2752 C2760 0.929 . S
H2753 C2762 0.931 . S
H2754 C2764 0.930 . S
H2755 C2767 0.929 . S
H2756 C2770 0.930 1_655 S
H2757 C2772 0.960 . S
H2758 C2772 0.960 . S
H2759 C2772 0.960 . S
C2760 H2752 0.929 . S
C2760 C2761 1.377 . S
C2760 C2762 1.384 . S
C2761 C2760 1.377 . S
C2761 C2767 1.390 . S
C2762 H2753 0.931 . S
C2762 C2760 1.384 . S
C2762 C2763 1.372 1_655 S
C2763 C2762 1.372 1_455 S
C2763 C2764 1.400 . S
C2763 C2768 1.490 . S
C2764 H2754 0.930 . S
C2764 C2763 1.400 . S
C2764 C2767 1.386 1_455 S
H2765 C2781 0.930 . S
H2766 C2782 0.931 . S
C2767 H2755 0.929 . S
C2767 C2761 1.390 . S
C2767 C2764 1.386 1_655 S
C2768 C2763 1.490 . S
C2768 C2770 1.395 . S
C2768 C2771 1.403 . S
H2769 C2775 0.930 . S
C2770 H2756 0.930 1_455 S
C2770 C2768 1.395 . S
C2770 C2773 1.403 . S
C2771 C2768 1.403 . S
C2771 C2772 1.524 . S
C2771 C2775 1.400 . S
C2772 H2757 0.960 . S
C2772 H2758 0.960 . S
C2772 H2759 0.960 . S
C2772 C2771 1.524 . S
C2773 C2770 1.403 . S
C2773 C2774 1.392 . S
C2773 C2777 1.495 . S
C2774 C2773 1.392 . S
C2774 C2775 1.385 . S
C2774 C2776 1.478 . S
C2775 H2769 0.930 . S
C2775 C2771 1.400 . S
C2775 C2774 1.385 . S
C2776 C2774 1.478 . S
C2776 C2778 1.381 . S
C2776 C2782 1.383 . S
C2777 C2773 1.495 . S
C2777 H2783 0.948 1_455 S
C2777 H2784 0.961 . S
C2777 H2785 0.960 . S
C2778 C2776 1.381 . S
C2778 C2779 1.394 . S
C2778 H2786 0.930 . S
C2779 C2778 1.394 . S
C2779 C2780 1.383 . S
C2779 H2787 0.929 . S
C2780 C2779 1.383 . S
C2780 C2781 1.377 . S
C2781 H2765 0.930 . S
C2781 C2780 1.377 . S
C2781 C2782 1.379 . S
C2782 H2766 0.931 . S
C2782 C2776 1.383 . S
C2782 C2781 1.379 . S
H2783 C2777 0.948 1_655 S
H2784 C2777 0.961 . S
H2785 C2777 0.960 . S
H2786 C2778 0.930 . S
H2787 C2779 0.929 . S
H2788 C2796 0.929 . S
H2789 C2798 0.930 . S
H2790 C2800 0.930 . S
H2791 C2803 0.929 . S
H2792 C2806 0.930 . S
H2793 C2808 0.960 . S
H2794 C2808 0.960 . S
H2795 C2808 0.960 . S
C2796 H2788 0.929 . S
C2796 C2797 1.377 . S
C2796 C2798 1.384 . S
C2797 C2796 1.377 . S
C2797 C2803 1.390 . S
C2798 H2789 0.930 . S
C2798 C2796 1.384 . S
C2798 C2799 1.372 . S
C2799 C2798 1.372 . S
C2799 C2800 1.400 . S
C2799 C2804 1.490 . S
C2800 H2790 0.930 . S
C2800 C2799 1.400 . S
C2800 C2803 1.386 . S
H2801 C2817 0.930 . S
H2802 C2818 0.931 . S
C2803 H2791 0.929 . S
C2803 C2797 1.390 . S
C2803 C2800 1.386 . S
C2804 C2799 1.490 . S
C2804 C2806 1.395 . S
C2804 C2807 1.403 . S
H2805 C2811 0.930 . S
C2806 H2792 0.930 . S
C2806 C2804 1.395 . S
C2806 C2809 1.403 . S
C2807 C2804 1.403 . S
C2807 C2808 1.524 . S
C2807 C2811 1.400 . S
C2808 H2793 0.960 . S
C2808 H2794 0.960 . S
C2808 H2795 0.960 . S
C2808 C2807 1.524 . S
C2809 C2806 1.403 . S
C2809 C2810 1.392 . S
C2809 C2813 1.495 . S
C2810 C2809 1.392 . S
C2810 C2811 1.385 . S
C2810 C2812 1.478 . S
C2811 H2805 0.930 . S
C2811 C2807 1.400 . S
C2811 C2810 1.385 . S
C2812 C2810 1.478 . S
C2812 C2814 1.381 . S
C2812 C2818 1.383 . S
C2813 C2809 1.495 . S
C2813 H2819 0.959 . S
C2813 H2820 0.961 . S
C2813 H2821 0.960 . S
C2814 C2812 1.381 . S
C2814 C2815 1.394 . S
C2814 H2822 0.930 . S
C2815 C2814 1.394 . S
C2815 C2816 1.383 . S
C2815 H2823 0.929 . S
C2816 C2815 1.383 . S
C2816 C2817 1.377 . S
C2817 H2801 0.930 . S
C2817 C2816 1.377 . S
C2817 C2818 1.379 . S
C2818 H2802 0.931 . S
C2818 C2812 1.383 . S
C2818 C2817 1.379 . S
H2819 C2813 0.959 . S
H2820 C2813 0.961 . S
H2821 C2813 0.960 . S
H2822 C2814 0.930 . S
H2823 C2815 0.929 . S
H2824 C2832 0.929 . S
H2825 C2834 0.930 . S
H2826 C2836 0.930 . S
H2827 C2839 0.929 . S
H2828 C2842 0.930 . S
H2829 C2844 0.960 1_455 S
H2830 C2844 0.960 . S
H2831 C2844 0.960 . S
C2832 H2824 0.929 . S
C2832 C2833 1.377 . S
C2832 C2834 1.384 . S
C2833 C2832 1.377 . S
C2833 C2839 1.390 . S
C2834 H2825 0.930 . S
C2834 C2832 1.384 . S
C2834 C2835 1.372 . S
C2835 C2834 1.372 . S
C2835 C2836 1.400 . S
C2835 C2840 1.490 . S
C2836 H2826 0.930 . S
C2836 C2835 1.400 . S
C2836 C2839 1.386 . S
H2837 C2853 0.930 . S
H2838 C2854 0.931 . S
C2839 H2827 0.929 . S
C2839 C2833 1.390 . S
C2839 C2836 1.386 . S
C2840 C2835 1.490 . S
C2840 C2842 1.395 . S
C2840 C2843 1.403 . S
H2841 C2847 0.930 1_455 S
C2842 H2828 0.930 . S
C2842 C2840 1.395 . S
C2842 C2845 1.403 . S
C2843 C2840 1.403 . S
C2843 C2844 1.524 . S
C2843 C2847 1.400 . S
C2844 H2829 0.960 1_655 S
C2844 H2830 0.960 . S
C2844 H2831 0.960 . S
C2844 C2843 1.524 . S
C2845 C2842 1.403 . S
C2845 C2846 1.392 . S
C2845 C2849 1.495 . S
C2846 C2845 1.392 . S
C2846 C2847 1.385 . S
C2846 C2848 1.478 1_655 S
C2847 H2841 0.930 1_655 S
C2847 C2843 1.400 . S
C2847 C2846 1.385 . S
C2848 C2846 1.478 1_455 S
C2848 C2850 1.381 . S
C2848 C2854 1.383 1_455 S
C2849 C2845 1.495 . S
C2849 H2855 0.959 . S
C2849 H2856 0.961 . S
C2849 H2857 0.960 . S
C2850 C2848 1.381 . S
C2850 C2851 1.394 . S
C2850 H2858 0.930 . S
C2851 C2850 1.394 . S
C2851 C2852 1.383 . S
C2851 H2859 0.929 . S
C2852 C2851 1.383 . S
C2852 C2853 1.377 . S
C2853 H2837 0.930 . S
C2853 C2852 1.377 . S
C2853 C2854 1.379 1_455 S
C2854 H2838 0.931 . S
C2854 C2848 1.383 1_655 S
C2854 C2853 1.379 1_655 S
H2855 C2849 0.959 . S
H2856 C2849 0.961 . S
H2857 C2849 0.960 . S
H2858 C2850 0.930 . S
H2859 C2851 0.929 . S
H2860 C2868 0.929 . S
H2861 C2870 0.930 . S
H2862 C2872 0.930 . S
H2863 C2875 0.929 . S
H2864 C2878 0.930 . S
H2865 C2880 0.960 . S
H2866 C2880 0.960 . S
H2867 C2880 0.960 . S
C2868 H2860 0.929 . S
C2868 C2869 1.377 . S
C2868 C2870 1.384 . S
C2869 C2868 1.377 . S
C2869 C2875 1.390 . S
C2870 H2861 0.930 . S
C2870 C2868 1.384 . S
C2870 C2871 1.372 . S
C2871 C2870 1.372 . S
C2871 C2872 1.400 . S
C2871 C2876 1.490 . S
C2872 H2862 0.930 . S
C2872 C2871 1.400 . S
C2872 C2875 1.386 . S
H2873 C2889 0.930 . S
H2874 C2890 0.931 . S
C2875 H2863 0.929 . S
C2875 C2869 1.390 . S
C2875 C2872 1.386 . S
C2876 C2871 1.490 . S
C2876 C2878 1.395 . S
C2876 C2879 1.403 . S
H2877 C2883 0.930 . S
C2878 H2864 0.930 . S
C2878 C2876 1.395 . S
C2878 C2881 1.403 . S
C2879 C2876 1.403 . S
C2879 C2880 1.524 . S
C2879 C2883 1.400 . S
C2880 H2865 0.960 . S
C2880 H2866 0.960 . S
C2880 H2867 0.960 . S
C2880 C2879 1.524 . S
C2881 C2878 1.403 . S
C2881 C2882 1.392 . S
C2881 C2885 1.495 . S
C2882 C2881 1.392 . S
C2882 C2883 1.385 . S
C2882 C2884 1.478 . S
C2883 H2877 0.930 . S
C2883 C2879 1.400 . S
C2883 C2882 1.385 . S
C2884 C2882 1.478 . S
C2884 C2886 1.381 1_655 S
C2884 C2890 1.383 . S
C2885 C2881 1.495 . S
C2885 H2891 0.959 . S
C2885 H2892 0.961 . S
C2885 H2893 0.960 . S
C2886 C2884 1.381 1_455 S
C2886 C2887 1.394 . S
C2886 H2894 0.930 . S
C2887 C2886 1.394 . S
C2887 C2888 1.383 . S
C2887 H2895 0.929 . S
C2888 C2887 1.383 . S
C2888 C2889 1.377 1_455 S
C2889 H2873 0.930 . S
C2889 C2888 1.377 1_655 S
C2889 C2890 1.379 . S
C2890 H2874 0.931 . S
C2890 C2884 1.383 . S
C2890 C2889 1.379 . S
H2891 C2885 0.959 . S
H2892 C2885 0.961 . S
H2893 C2885 0.960 . S
H2894 C2886 0.930 . S
H2895 C2887 0.929 . S
H2896 C2904 0.929 . S
H2897 C2906 0.930 . S
H2898 C2908 0.930 . S
H2899 C2911 0.929 . S
H2900 C2914 0.930 . S
H2901 C2916 0.960 . S
H2902 C2916 0.960 . S
H2903 C2916 0.960 . S
C2904 H2896 0.929 . S
C2904 C2905 1.377 . S
C2904 C2906 1.384 . S
C2905 C2904 1.377 . S
C2905 C2911 1.390 . S
C2906 H2897 0.930 . S
C2906 C2904 1.384 . S
C2906 C2907 1.372 . S
C2907 C2906 1.372 . S
C2907 C2908 1.400 . S
C2907 C2912 1.490 . S
C2908 H2898 0.930 . S
C2908 C2907 1.400 . S
C2908 C2911 1.386 . S
H2909 C2925 0.930 . S
H2910 C2926 0.931 . S
C2911 H2899 0.929 . S
C2911 C2905 1.390 . S
C2911 C2908 1.386 . S
C2912 C2907 1.490 . S
C2912 C2914 1.395 . S
C2912 C2915 1.403 . S
H2913 C2919 0.930 . S
C2914 H2900 0.930 . S
C2914 C2912 1.395 . S
C2914 C2917 1.403 . S
C2915 C2912 1.403 . S
C2915 C2916 1.524 . S
C2915 C2919 1.400 . S
C2916 H2901 0.960 . S
C2916 H2902 0.960 . S
C2916 H2903 0.960 . S
C2916 C2915 1.524 . S
C2917 C2914 1.403 . S
C2917 C2918 1.392 . S
C2917 C2921 1.495 . S
C2918 C2917 1.392 . S
C2918 C2919 1.385 . S
C2918 C2920 1.478 . S
C2919 H2913 0.930 . S
C2919 C2915 1.400 . S
C2919 C2918 1.385 . S
C2920 C2918 1.478 . S
C2920 C2922 1.381 . S
C2920 C2926 1.383 . S
C2921 C2917 1.495 . S
C2921 H2927 0.959 . S
C2921 H2928 0.961 . S
C2921 H2929 0.960 . S
C2922 C2920 1.381 . S
C2922 C2923 1.394 . S
C2922 H2930 0.930 . S
C2923 C2922 1.394 . S
C2923 C2924 1.383 . S
C2923 H2931 0.929 . S
C2924 C2923 1.383 . S
C2924 C2925 1.377 . S
C2925 H2909 0.930 . S
C2925 C2924 1.377 . S
C2925 C2926 1.379 . S
C2926 H2910 0.931 . S
C2926 C2920 1.383 . S
C2926 C2925 1.379 . S
H2927 C2921 0.959 . S
H2928 C2921 0.961 . S
H2929 C2921 0.960 . S
H2930 C2922 0.930 . S
H2931 C2923 0.929 . S
H2932 C2940 0.929 . S
H2933 C2942 0.930 . S
H2934 C2944 0.930 . S
H2935 C2947 0.929 . S
H2936 C2950 0.930 1_655 S
H2937 C2952 0.960 . S
H2938 C2952 0.960 . S
H2939 C2952 0.960 . S
C2940 H2932 0.929 . S
C2940 C2941 1.377 . S
C2940 C2942 1.384 1_655 S
C2941 C2940 1.377 . S
C2941 C2947 1.390 . S
C2942 H2933 0.930 . S
C2942 C2940 1.384 1_455 S
C2942 C2943 1.372 1_455 S
C2943 C2942 1.372 1_655 S
C2943 C2944 1.400 . S
C2943 C2948 1.490 1_655 S
C2944 H2934 0.930 . S
C2944 C2943 1.400 . S
C2944 C2947 1.386 . S
H2945 C2961 0.930 . S
H2946 C2962 0.931 . S
C2947 H2935 0.929 . S
C2947 C2941 1.390 . S
C2947 C2944 1.386 . S
C2948 C2943 1.490 1_455 S
C2948 C2950 1.395 . S
C2948 C2951 1.403 . S
H2949 C2955 0.930 . S
C2950 H2936 0.930 1_455 S
C2950 C2948 1.395 . S
C2950 C2953 1.403 . S
C2951 C2948 1.403 . S
C2951 C2952 1.524 . S
C2951 C2955 1.400 . S
C2952 H2937 0.960 . S
C2952 H2938 0.960 . S
C2952 H2939 0.960 . S
C2952 C2951 1.524 . S
C2953 C2950 1.403 . S
C2953 C2954 1.392 . S
C2953 C2957 1.495 . S
C2954 C2953 1.392 . S
C2954 C2955 1.385 . S
C2954 C2956 1.478 . S
C2955 H2949 0.930 . S
C2955 C2951 1.400 . S
C2955 C2954 1.385 . S
C2956 C2954 1.478 . S
C2956 C2958 1.381 . S
C2956 C2962 1.383 . S
C2957 C2953 1.495 . S
C2957 H2963 0.959 . S
C2957 H2964 0.961 . S
C2957 H2965 0.960 . S
C2958 C2956 1.381 . S
C2958 C2959 1.394 . S
C2958 H2966 0.930 . S
C2959 C2958 1.394 . S
C2959 C2960 1.383 . S
C2959 H2967 0.929 . S
C2960 C2959 1.383 . S
C2960 C2961 1.377 . S
C2961 H2945 0.930 . S
C2961 C2960 1.377 . S
C2961 C2962 1.379 . S
C2962 H2946 0.931 . S
C2962 C2956 1.383 . S
C2962 C2961 1.379 . S
H2963 C2957 0.959 . S
H2964 C2957 0.961 . S
H2965 C2957 0.960 . S
H2966 C2958 0.930 . S
H2967 C2959 0.929 . S
H2968 C2976 0.929 . S
H2969 C2978 0.930 . S
H2970 C2980 0.930 . S
H2971 C2983 0.929 . S
H2972 C2986 0.930 . S
H2973 C2988 0.960 . S
H2974 C2988 0.960 . S
H2975 C2988 0.960 . S
C2976 H2968 0.929 . S
C2976 C2977 1.377 . S
C2976 C2978 1.384 . S
C2977 C2976 1.377 . S
C2977 C2983 1.390 . S
C2978 H2969 0.930 . S
C2978 C2976 1.384 . S
C2978 C2979 1.372 . S
C2979 C2978 1.372 . S
C2979 C2980 1.400 . S
C2979 C2984 1.490 . S
C2980 H2970 0.930 . S
C2980 C2979 1.400 . S
C2980 C2983 1.386 . S
H2981 C2997 0.930 . S
H2982 C2998 0.931 . S
C2983 H2971 0.929 . S
C2983 C2977 1.390 . S
C2983 C2980 1.386 . S
C2984 C2979 1.490 . S
C2984 C2986 1.395 . S
C2984 C2987 1.403 . S
H2985 C2991 0.930 . S
C2986 H2972 0.930 . S
C2986 C2984 1.395 . S
C2986 C2989 1.403 . S
C2987 C2984 1.403 . S
C2987 C2988 1.524 . S
C2987 C2991 1.400 . S
C2988 H2973 0.960 . S
C2988 H2974 0.960 . S
C2988 H2975 0.960 . S
C2988 C2987 1.524 . S
C2989 C2986 1.403 . S
C2989 C2990 1.392 . S
C2989 C2993 1.495 . S
C2990 C2989 1.392 . S
C2990 C2991 1.385 . S
C2990 C2992 1.478 . S
C2991 H2985 0.930 . S
C2991 C2987 1.400 . S
C2991 C2990 1.385 . S
C2992 C2990 1.478 . S
C2992 C2994 1.381 . S
C2992 C2998 1.383 . S
C2993 C2989 1.495 . S
C2993 H2999 0.959 . S
C2993 H3000 0.961 . S
C2993 H3001 0.960 . S
C2994 C2992 1.381 . S
C2994 C2995 1.394 . S
C2994 H3002 0.930 . S
C2995 C2994 1.394 . S
C2995 C2996 1.383 . S
C2995 H3003 0.929 . S
C2996 C2995 1.383 . S
C2996 C2997 1.377 . S
C2997 H2981 0.930 . S
C2997 C2996 1.377 . S
C2997 C2998 1.379 . S
C2998 H2982 0.931 . S
C2998 C2992 1.383 . S
C2998 C2997 1.379 . S
H2999 C2993 0.959 . S
H3000 C2993 0.961 . S
H3001 C2993 0.960 . S
H3002 C2994 0.930 . S
H3003 C2995 0.929 . S
H3004 C3012 0.929 . S
H3005 C3014 0.930 . S
H3006 C3016 0.930 . S
H3007 C3019 0.929 . S
H3008 C3022 0.936 . S
H3009 C3024 0.960 . S
H3010 C3024 0.960 . S
H3011 C3024 0.960 . S
C3012 H3004 0.929 . S
C3012 C3013 1.377 . S
C3012 C3014 1.384 . S
C3013 C3012 1.377 . S
C3013 C3019 1.390 . S
C3014 H3005 0.930 . S
C3014 C3012 1.384 . S
C3014 C3015 1.372 . S
C3015 C3014 1.372 . S
C3015 C3016 1.400 . S
C3015 C3020 1.490 . S
C3016 H3006 0.930 . S
C3016 C3015 1.400 . S
C3016 C3019 1.386 . S
H3017 C3033 0.930 . S
H3018 C3034 0.931 . S
C3019 H3007 0.929 . S
C3019 C3013 1.390 . S
C3019 C3016 1.386 . S
C3020 C3015 1.490 . S
C3020 C3022 1.395 . S
C3020 C3023 1.403 . S
H3021 C3027 0.930 . S
C3022 H3008 0.936 . S
C3022 C3020 1.395 . S
C3022 C3025 1.403 1_545 S
C3023 C3020 1.403 . S
C3023 C3024 1.524 . S
C3023 C3027 1.400 . S
C3024 H3009 0.960 . S
C3024 H3010 0.960 . S
C3024 H3011 0.960 . S
C3024 C3023 1.524 . S
C3025 C3022 1.403 1_565 S
C3025 C3026 1.392 . S
C3025 C3029 1.495 . S
C3026 C3025 1.392 . S
C3026 C3027 1.385 1_565 S
C3026 C3028 1.478 . S
C3027 H3021 0.930 . S
C3027 C3023 1.400 . S
C3027 C3026 1.385 1_545 S
C3028 C3026 1.478 . S
C3028 C3030 1.381 . S
C3028 C3034 1.383 . S
C3029 C3025 1.495 . S
C3029 H3035 0.959 . S
C3029 H3036 0.961 . S
C3029 H3037 0.960 . S
C3030 C3028 1.381 . S
C3030 C3031 1.394 . S
C3030 H3038 0.930 . S
C3031 C3030 1.394 . S
C3031 C3032 1.383 . S
C3031 H3039 0.929 . S
C3032 C3031 1.383 . S
C3032 C3033 1.377 . S
C3033 H3017 0.930 . S
C3033 C3032 1.377 . S
C3033 C3034 1.379 . S
C3034 H3018 0.931 . S
C3034 C3028 1.383 . S
C3034 C3033 1.379 . S
H3035 C3029 0.959 . S
H3036 C3029 0.961 . S
H3037 C3029 0.960 . S
H3038 C3030 0.930 . S
H3039 C3031 0.929 . S
H3040 C3048 0.929 . S
H3041 C3050 0.930 . S
H3042 C3052 0.930 . S
H3043 C3055 0.929 . S
H3044 C3058 0.930 . S
H3045 C3060 0.960 . S
H3046 C3060 0.960 . S
H3047 C3060 0.960 . S
C3048 H3040 0.929 . S
C3048 C3049 1.377 . S
C3048 C3050 1.384 . S
C3049 C3048 1.377 . S
C3049 C3055 1.390 . S
C3050 H3041 0.930 . S
C3050 C3048 1.384 . S
C3050 C3051 1.372 . S
C3051 C3050 1.372 . S
C3051 C3052 1.400 . S
C3051 C3056 1.490 . S
C3052 H3042 0.930 . S
C3052 C3051 1.400 . S
C3052 C3055 1.386 . S
H3053 C3069 0.930 . S
H3054 C3070 0.931 . S
C3055 H3043 0.929 . S
C3055 C3049 1.390 . S
C3055 C3052 1.386 . S
C3056 C3051 1.490 . S
C3056 C3058 1.395 . S
C3056 C3059 1.403 . S
H3057 C3063 0.930 . S
C3058 H3044 0.930 . S
C3058 C3056 1.395 . S
C3058 C3061 1.403 . S
C3059 C3056 1.403 . S
C3059 C3060 1.524 . S
C3059 C3063 1.400 . S
C3060 H3045 0.960 . S
C3060 H3046 0.960 . S
C3060 H3047 0.960 . S
C3060 C3059 1.524 . S
C3061 C3058 1.403 . S
C3061 C3062 1.392 . S
C3061 C3065 1.495 . S
C3062 C3061 1.392 . S
C3062 C3063 1.385 . S
C3062 C3064 1.478 . S
C3063 H3057 0.930 . S
C3063 C3059 1.400 . S
C3063 C3062 1.385 . S
C3064 C3062 1.478 . S
C3064 C3066 1.381 . S
C3064 C3070 1.383 . S
C3065 C3061 1.495 . S
C3065 H3071 0.959 . S
C3065 H3072 0.961 . S
C3065 H3073 0.960 . S
C3066 C3064 1.381 . S
C3066 C3067 1.394 . S
C3066 H3074 0.930 . S
C3067 C3066 1.394 . S
C3067 C3068 1.383 . S
C3067 H3075 0.929 . S
C3068 C3067 1.383 . S
C3068 C3069 1.377 . S
C3069 H3053 0.930 . S
C3069 C3068 1.377 . S
C3069 C3070 1.379 . S
C3070 H3054 0.931 . S
C3070 C3064 1.383 . S
C3070 C3069 1.379 . S
H3071 C3065 0.959 . S
H3072 C3065 0.961 . S
H3073 C3065 0.960 . S
H3074 C3066 0.930 . S
H3075 C3067 0.929 . S
H3076 C3084 0.929 . S
H3077 C3086 0.930 . S
H3078 C3088 0.930 . S
H3079 C3091 0.929 . S
H3080 C3094 0.930 . S
H3081 C3096 0.960 . S
H3082 C3096 0.960 . S
H3083 C3096 0.960 . S
C3084 H3076 0.929 . S
C3084 C3085 1.377 . S
C3084 C3086 1.384 . S
C3085 C3084 1.377 . S
C3085 C3091 1.390 . S
C3086 H3077 0.930 . S
C3086 C3084 1.384 . S
C3086 C3087 1.372 . S
C3087 C3086 1.372 . S
C3087 C3088 1.400 . S
C3087 C3092 1.490 . S
C3088 H3078 0.930 . S
C3088 C3087 1.400 . S
C3088 C3091 1.386 . S
H3089 C3105 0.930 . S
H3090 C3106 0.931 1_565 S
C3091 H3079 0.929 . S
C3091 C3085 1.390 . S
C3091 C3088 1.386 . S
C3092 C3087 1.490 . S
C3092 C3094 1.395 . S
C3092 C3095 1.403 . S
H3093 C3099 0.930 1_545 S
C3094 H3080 0.930 . S
C3094 C3092 1.395 . S
C3094 C3097 1.403 . S
C3095 C3092 1.403 . S
C3095 C3096 1.524 . S
C3095 C3099 1.400 . S
C3096 H3081 0.960 . S
C3096 H3082 0.960 . S
C3096 H3083 0.960 . S
C3096 C3095 1.524 . S
C3097 C3094 1.403 . S
C3097 C3098 1.405 . S
C3097 C3101 1.495 . S
C3098 C3097 1.405 . S
C3098 C3099 1.391 . S
C3098 C3100 1.460 1_565 S
C3099 H3093 0.930 1_565 S
C3099 C3095 1.400 . S
C3099 C3098 1.391 . S
C3100 C3098 1.460 1_545 S
C3100 C3102 1.381 . S
C3100 C3106 1.383 . S
C3101 C3097 1.495 . S
C3101 H3107 0.959 . S
C3101 H3108 0.961 . S
C3101 H3109 0.960 1_565 S
C3102 C3100 1.381 . S
C3102 C3103 1.394 . S
C3102 H3110 0.930 . S
C3103 C3102 1.394 . S
C3103 C3104 1.383 . S
C3103 H3111 0.929 . S
C3104 C3103 1.383 . S
C3104 C3105 1.377 . S
C3105 H3089 0.930 . S
C3105 C3104 1.377 . S
C3105 C3106 1.379 . S
C3106 H3090 0.931 1_545 S
C3106 C3100 1.383 . S
C3106 C3105 1.379 . S
H3107 C3101 0.959 . S
H3108 C3101 0.961 . S
H3109 C3101 0.960 1_545 S
H3110 C3102 0.930 . S
H3111 C3103 0.929 . S
H3112 C3120 0.929 . S
H3113 C3122 0.927 . S
H3114 C3124 0.930 . S
H3115 C3127 0.929 . S
H3116 C3130 0.930 . S
H3117 C3132 0.960 . S
H3118 C3132 0.960 . S
H3119 C3132 0.960 . S
C3120 H3112 0.929 . S
C3120 C3121 1.377 . S
C3120 C3122 1.384 . S
C3121 C3120 1.377 . S
C3121 C3127 1.390 . S
C3122 H3113 0.927 . S
C3122 C3120 1.384 . S
C3122 C3123 1.372 . S
C3123 C3122 1.372 . S
C3123 C3124 1.400 . S
C3123 C3128 1.490 1_556 S
C3124 H3114 0.930 . S
C3124 C3123 1.400 . S
C3124 C3127 1.386 . S
H3125 C3141 0.930 . S
H3126 C3142 0.931 . S
C3127 H3115 0.929 . S
C3127 C3121 1.390 . S
C3127 C3124 1.386 . S
C3128 C3123 1.490 1_554 S
C3128 C3130 1.395 . S
C3128 C3131 1.403 . S
H3129 C3135 0.930 . S
C3130 H3116 0.930 . S
C3130 C3128 1.395 . S
C3130 C3133 1.403 . S
C3131 C3128 1.403 . S
C3131 C3132 1.524 1_554 S
C3131 C3135 1.400 . S
C3132 H3117 0.960 . S
C3132 H3118 0.960 . S
C3132 H3119 0.960 . S
C3132 C3131 1.524 1_556 S
C3133 C3130 1.403 . S
C3133 C3134 1.392 . S
C3133 C3137 1.495 . S
C3134 C3133 1.392 . S
C3134 C3135 1.385 . S
C3134 C3136 1.478 . S
C3135 H3129 0.930 . S
C3135 C3131 1.400 . S
C3135 C3134 1.385 . S
C3136 C3134 1.478 . S
C3136 C3138 1.381 . S
C3136 C3142 1.383 . S
C3137 C3133 1.495 . S
C3137 H3143 0.959 . S
C3137 H3144 0.961 . S
C3137 H3145 0.960 . S
C3138 C3136 1.381 . S
C3138 C3139 1.394 . S
C3138 H3146 0.930 . S
C3139 C3138 1.394 . S
C3139 C3140 1.383 . S
C3139 H3147 0.929 . S
C3140 C3139 1.383 . S
C3140 C3141 1.377 . S
C3141 H3125 0.930 . S
C3141 C3140 1.377 . S
C3141 C3142 1.379 . S
C3142 H3126 0.931 . S
C3142 C3136 1.383 . S
C3142 C3141 1.379 . S
H3143 C3137 0.959 . S
H3144 C3137 0.961 . S
H3145 C3137 0.960 . S
H3146 C3138 0.930 . S
H3147 C3139 0.929 . S
H3148 C3156 0.929 . S
H3149 C3158 0.930 1_565 S
H3150 C3160 0.930 . S
H3151 C3163 0.929 . S
H3152 C3166 0.930 . S
H3153 C3168 0.951 1_565 S
H3154 C3168 0.966 . S
H3155 C3168 1.002 . S
C3156 H3148 0.929 . S
C3156 C3157 1.377 . S
C3156 C3158 1.384 . S
C3157 C3156 1.377 . S
C3157 C3163 1.390 . S
C3158 H3149 0.930 1_545 S
C3158 C3156 1.384 . S
C3158 C3159 1.372 . S
C3159 C3158 1.372 . S
C3159 C3160 1.400 . S
C3159 C3164 1.490 1_545 S
C3160 H3150 0.930 . S
C3160 C3159 1.400 . S
C3160 C3163 1.386 . S
H3161 C3177 0.930 . S
H3162 C3178 0.931 . S
C3163 H3151 0.929 . S
C3163 C3157 1.390 . S
C3163 C3160 1.386 . S
C3164 C3159 1.490 1_565 S
C3164 C3166 1.395 . S
C3164 C3167 1.403 . S
H3165 C3171 0.930 . S
C3166 H3152 0.930 . S
C3166 C3164 1.395 . S
C3166 C3169 1.403 . S
C3167 C3164 1.403 . S
C3167 C3168 1.488 1_565 S
C3167 C3171 1.400 . S
C3168 H3153 0.951 1_545 S
C3168 H3154 0.966 . S
C3168 H3155 1.002 . S
C3168 C3167 1.488 1_545 S
C3169 C3166 1.403 . S
C3169 C3170 1.392 . S
C3169 C3173 1.495 . S
C3170 C3169 1.392 . S
C3170 C3171 1.385 . S
C3170 C3172 1.478 . S
C3171 H3165 0.930 . S
C3171 C3167 1.400 . S
C3171 C3170 1.385 . S
C3172 C3170 1.478 . S
C3172 C3174 1.381 . S
C3172 C3178 1.383 . S
C3173 C3169 1.495 . S
C3173 H3179 0.959 . S
C3173 H3180 0.961 . S
C3173 H3181 0.960 . S
C3174 C3172 1.381 . S
C3174 C3175 1.394 . S
C3174 H3182 0.930 . S
C3175 C3174 1.394 . S
C3175 C3176 1.383 . S
C3175 H3183 0.929 . S
C3176 C3175 1.383 . S
C3176 C3177 1.377 . S
C3177 H3161 0.930 . S
C3177 C3176 1.377 . S
C3177 C3178 1.379 . S
C3178 H3162 0.931 . S
C3178 C3172 1.383 . S
C3178 C3177 1.379 . S
H3179 C3173 0.959 . S
H3180 C3173 0.961 . S
H3181 C3173 0.960 . S
H3182 C3174 0.930 . S
H3183 C3175 0.929 . S
H3184 C3192 0.929 . S
H3185 C3194 0.930 . S
H3186 C3196 0.930 . S
H3187 C3199 0.929 . S
H3188 C3202 0.930 . S
H3189 C3204 0.960 . S
H3190 C3204 0.960 . S
H3191 C3204 0.960 . S
C3192 H3184 0.929 . S
C3192 C3193 1.377 . S
C3192 C3194 1.384 . S
C3193 C3192 1.377 . S
C3193 C3199 1.390 . S
C3194 H3185 0.930 . S
C3194 C3192 1.384 . S
C3194 C3195 1.372 . S
C3195 C3194 1.372 . S
C3195 C3196 1.400 . S
C3195 C3200 1.490 . S
C3196 H3186 0.930 . S
C3196 C3195 1.400 . S
C3196 C3199 1.386 . S
H3197 C3213 0.930 . S
H3198 C3214 0.931 . S
C3199 H3187 0.929 . S
C3199 C3193 1.390 . S
C3199 C3196 1.386 . S
C3200 C3195 1.490 . S
C3200 C3202 1.395 . S
C3200 C3203 1.403 . S
H3201 C3207 0.930 . S
C3202 H3188 0.930 . S
C3202 C3200 1.395 . S
C3202 C3205 1.403 . S
C3203 C3200 1.403 . S
C3203 C3204 1.524 . S
C3203 C3207 1.400 . S
C3204 H3189 0.960 . S
C3204 H3190 0.960 . S
C3204 H3191 0.960 . S
C3204 C3203 1.524 . S
C3205 C3202 1.403 . S
C3205 C3206 1.392 . S
C3205 C3209 1.495 . S
C3206 C3205 1.392 . S
C3206 C3207 1.385 . S
C3206 C3208 1.478 . S
C3207 H3201 0.930 . S
C3207 C3203 1.400 . S
C3207 C3206 1.385 . S
C3208 C3206 1.478 . S
C3208 C3210 1.381 . S
C3208 C3214 1.383 . S
C3209 C3205 1.495 . S
C3209 H3215 0.959 . S
C3209 H3216 0.961 . S
C3209 H3217 0.960 . S
C3210 C3208 1.381 . S
C3210 C3211 1.394 . S
C3210 H3218 0.930 . S
C3211 C3210 1.394 . S
C3211 C3212 1.383 . S
C3211 H3219 0.929 . S
C3212 C3211 1.383 . S
C3212 C3213 1.377 . S
C3213 H3197 0.930 . S
C3213 C3212 1.377 . S
C3213 C3214 1.379 . S
C3214 H3198 0.931 . S
C3214 C3208 1.383 . S
C3214 C3213 1.379 . S
H3215 C3209 0.959 . S
H3216 C3209 0.961 . S
H3217 C3209 0.960 . S
H3218 C3210 0.930 . S
H3219 C3211 0.929 . S
H3220 C3228 0.929 . S
H3221 C3230 0.930 1_545 S
H3222 C3232 0.930 . S
H3223 C3235 0.929 . S
H3224 C3238 0.930 . S
H3225 C3240 0.960 . S
H3226 C3240 0.960 . S
H3227 C3240 0.960 . S
C3228 H3220 0.929 . S
C3228 C3229 1.377 . S
C3228 C3230 1.384 . S
C3229 C3228 1.377 . S
C3229 C3235 1.390 . S
C3230 H3221 0.930 1_565 S
C3230 C3228 1.384 . S
C3230 C3231 1.372 . S
C3231 C3230 1.372 . S
C3231 C3232 1.400 . S
C3231 C3236 1.490 1_565 S
C3232 H3222 0.930 . S
C3232 C3231 1.400 . S
C3232 C3235 1.386 . S
H3233 C3249 0.930 . S
H3234 C3250 0.931 . S
C3235 H3223 0.929 . S
C3235 C3229 1.390 . S
C3235 C3232 1.386 . S
C3236 C3231 1.490 1_545 S
C3236 C3238 1.395 . S
C3236 C3239 1.403 . S
H3237 C3243 0.930 . S
C3238 H3224 0.930 . S
C3238 C3236 1.395 . S
C3238 C3241 1.403 . S
C3239 C3236 1.403 . S
C3239 C3240 1.524 1_545 S
C3239 C3243 1.400 . S
C3240 H3225 0.960 . S
C3240 H3226 0.960 . S
C3240 H3227 0.960 . S
C3240 C3239 1.524 1_565 S
C3241 C3238 1.403 . S
C3241 C3242 1.392 . S
C3241 C3245 1.495 . S
C3242 C3241 1.392 . S
C3242 C3243 1.385 . S
C3242 C3244 1.478 . S
C3243 H3237 0.930 . S
C3243 C3239 1.400 . S
C3243 C3242 1.385 . S
C3244 C3242 1.478 . S
C3244 C3246 1.381 . S
C3244 C3250 1.383 . S
C3245 C3241 1.495 . S
C3245 H3251 0.959 . S
C3245 H3252 0.961 . S
C3245 H3253 0.960 . S
C3246 C3244 1.381 . S
C3246 C3247 1.394 . S
C3246 H3254 0.930 . S
C3247 C3246 1.394 . S
C3247 C3248 1.383 . S
C3247 H3255 0.929 . S
C3248 C3247 1.383 . S
C3248 C3249 1.377 . S
C3249 H3233 0.930 . S
C3249 C3248 1.377 . S
C3249 C3250 1.379 . S
C3250 H3234 0.931 . S
C3250 C3244 1.383 . S
C3250 C3249 1.379 . S
H3251 C3245 0.959 . S
H3252 C3245 0.961 . S
H3253 C3245 0.960 . S
H3254 C3246 0.930 . S
H3255 C3247 0.929 . S
H3256 C3264 0.929 . S
H3257 C3266 0.930 . S
H3258 C3268 0.930 . S
H3259 C3271 0.929 . S
H3260 C3274 0.930 1_554 S
H3261 C3276 0.960 . S
H3262 C3276 0.960 . S
H3263 C3276 0.960 . S
C3264 H3256 0.929 . S
C3264 C3265 1.377 . S
C3264 C3266 1.384 . S
C3265 C3264 1.377 . S
C3265 C3271 1.390 . S
C3266 H3257 0.930 . S
C3266 C3264 1.384 . S
C3266 C3267 1.372 . S
C3267 C3266 1.372 . S
C3267 C3268 1.400 . S
C3267 C3272 1.442 1_554 S
C3268 H3258 0.930 . S
C3268 C3267 1.400 . S
C3268 C3271 1.386 . S
H3269 C3285 0.930 . S
H3270 C3286 0.931 . S
C3271 H3259 0.929 . S
C3271 C3265 1.390 . S
C3271 C3268 1.386 . S
C3272 C3267 1.442 1_556 S
C3272 C3274 1.397 . S
C3272 C3275 1.449 . S
H3273 C3279 0.930 . S
C3274 H3260 0.930 1_556 S
C3274 C3272 1.397 . S
C3274 C3277 1.403 . S
C3275 C3272 1.449 . S
C3275 C3276 1.524 . S
C3275 C3279 1.400 . S
C3276 H3261 0.960 . S
C3276 H3262 0.960 . S
C3276 H3263 0.960 . S
C3276 C3275 1.524 . S
C3277 C3274 1.403 . S
C3277 C3278 1.392 . S
C3277 C3281 1.495 . S
C3278 C3277 1.392 . S
C3278 C3279 1.385 . S
C3278 C3280 1.478 . S
C3279 H3273 0.930 . S
C3279 C3275 1.400 . S
C3279 C3278 1.385 . S
C3280 C3278 1.478 . S
C3280 C3282 1.381 . S
C3280 C3286 1.383 . S
C3281 C3277 1.495 . S
C3281 H3287 0.959 . S
C3281 H3288 0.961 . S
C3281 H3289 0.960 . S
C3282 C3280 1.381 . S
C3282 C3283 1.394 . S
C3282 H3290 0.930 . S
C3283 C3282 1.394 . S
C3283 C3284 1.383 . S
C3283 H3291 0.929 . S
C3284 C3283 1.383 . S
C3284 C3285 1.377 . S
C3285 H3269 0.930 . S
C3285 C3284 1.377 . S
C3285 C3286 1.379 . S
C3286 H3270 0.931 . S
C3286 C3280 1.383 . S
C3286 C3285 1.379 . S
H3287 C3281 0.959 . S
H3288 C3281 0.961 . S
H3289 C3281 0.960 . S
H3290 C3282 0.930 . S
H3291 C3283 0.929 . S
H3292 C3300 0.929 . S
H3293 C3302 0.930 . S
H3294 C3304 0.930 . S
H3295 C3307 0.929 . S
H3296 C3310 0.930 . S
H3297 C3312 0.960 . S
H3298 C3312 0.960 . S
H3299 C3312 0.960 . S
C3300 H3292 0.929 . S
C3300 C3301 1.377 . S
C3300 C3302 1.384 . S
C3301 C3300 1.377 . S
C3301 C3307 1.390 . S
C3302 H3293 0.930 . S
C3302 C3300 1.384 . S
C3302 C3303 1.372 . S
C3303 C3302 1.372 . S
C3303 C3304 1.400 . S
C3303 C3308 1.490 . S
C3304 H3294 0.930 . S
C3304 C3303 1.400 . S
C3304 C3307 1.386 . S
H3305 C3321 0.930 . S
H3306 C3322 0.931 . S
C3307 H3295 0.929 . S
C3307 C3301 1.390 . S
C3307 C3304 1.386 . S
C3308 C3303 1.490 . S
C3308 C3310 1.395 . S
C3308 C3311 1.403 . S
H3309 C3315 0.930 . S
C3310 H3296 0.930 . S
C3310 C3308 1.395 . S
C3310 C3313 1.403 . S
C3311 C3308 1.403 . S
C3311 C3312 1.524 . S
C3311 C3315 1.400 . S
C3312 H3297 0.960 . S
C3312 H3298 0.960 . S
C3312 H3299 0.960 . S
C3312 C3311 1.524 . S
C3313 C3310 1.403 . S
C3313 C3314 1.392 . S
C3313 C3317 1.495 . S
C3314 C3313 1.392 . S
C3314 C3315 1.385 . S
C3314 C3316 1.478 . S
C3315 H3309 0.930 . S
C3315 C3311 1.400 . S
C3315 C3314 1.385 . S
C3316 C3314 1.478 . S
C3316 C3318 1.381 . S
C3316 C3322 1.383 . S
C3317 C3313 1.495 . S
C3317 H3323 0.959 . S
C3317 H3324 0.961 . S
C3317 H3325 0.960 . S
C3318 C3316 1.381 . S
C3318 C3319 1.394 . S
C3318 H3326 0.930 . S
C3319 C3318 1.394 . S
C3319 C3320 1.383 . S
C3319 H3327 0.929 . S
C3320 C3319 1.383 . S
C3320 C3321 1.377 . S
C3321 H3305 0.930 . S
C3321 C3320 1.377 . S
C3321 C3322 1.379 . S
C3322 H3306 0.931 . S
C3322 C3316 1.383 . S
C3322 C3321 1.379 . S
H3323 C3317 0.959 . S
H3324 C3317 0.961 . S
H3325 C3317 0.960 . S
H3326 C3318 0.930 . S
H3327 C3319 0.929 . S
H3328 C3336 0.929 . S
H3329 C3338 0.930 . S
H3330 C3340 0.930 . S
H3331 C3343 0.929 . S
H3332 C3346 0.930 . S
H3333 C3348 0.960 . S
H3334 C3348 0.960 . S
H3335 C3348 0.960 . S
C3336 H3328 0.929 . S
C3336 C3337 1.377 . S
C3336 C3338 1.384 . S
C3337 C3336 1.377 . S
C3337 C3343 1.390 . S
C3338 H3329 0.930 . S
C3338 C3336 1.384 . S
C3338 C3339 1.372 . S
C3339 C3338 1.372 . S
C3339 C3340 1.400 . S
C3339 C3344 1.490 . S
C3340 H3330 0.930 . S
C3340 C3339 1.400 . S
C3340 C3343 1.386 . S
H3341 C3357 0.930 . S
H3342 C3358 0.931 . S
C3343 H3331 0.929 . S
C3343 C3337 1.390 . S
C3343 C3340 1.386 . S
C3344 C3339 1.490 . S
C3344 C3346 1.395 . S
C3344 C3347 1.403 . S
H3345 C3351 0.930 . S
C3346 H3332 0.930 . S
C3346 C3344 1.395 . S
C3346 C3349 1.403 . S
C3347 C3344 1.403 . S
C3347 C3348 1.524 . S
C3347 C3351 1.400 . S
C3348 H3333 0.960 . S
C3348 H3334 0.960 . S
C3348 H3335 0.960 . S
C3348 C3347 1.524 . S
C3349 C3346 1.403 . S
C3349 C3350 1.392 . S
C3349 C3353 1.495 . S
C3350 C3349 1.392 . S
C3350 C3351 1.385 . S
C3350 C3352 1.478 . S
C3351 H3345 0.930 . S
C3351 C3347 1.400 . S
C3351 C3350 1.385 . S
C3352 C3350 1.478 . S
C3352 C3354 1.381 . S
C3352 C3358 1.383 . S
C3353 C3349 1.495 . S
C3353 H3359 0.959 . S
C3353 H3360 0.961 . S
C3353 H3361 0.960 . S
C3354 C3352 1.381 . S
C3354 C3355 1.394 . S
C3354 H3362 0.930 . S
C3355 C3354 1.394 . S
C3355 C3356 1.383 . S
C3355 H3363 0.929 . S
C3356 C3355 1.383 . S
C3356 C3357 1.377 . S
C3357 H3341 0.930 . S
C3357 C3356 1.377 . S
C3357 C3358 1.379 . S
C3358 H3342 0.931 . S
C3358 C3352 1.383 . S
C3358 C3357 1.379 . S
H3359 C3353 0.959 . S
H3360 C3353 0.961 . S
H3361 C3353 0.960 . S
H3362 C3354 0.930 . S
H3363 C3355 0.929 . S
H3364 C3372 0.929 . S
H3365 C3374 0.930 . S
H3366 C3376 0.930 . S
H3367 C3379 0.929 . S
H3368 C3382 0.930 . S
H3369 C3384 0.960 . S
H3370 C3384 0.960 . S
H3371 C3384 0.960 . S
C3372 H3364 0.929 . S
C3372 C3373 1.377 . S
C3372 C3374 1.384 . S
C3373 C3372 1.377 . S
C3373 C3379 1.390 . S
C3374 H3365 0.930 . S
C3374 C3372 1.384 . S
C3374 C3375 1.372 . S
C3375 C3374 1.372 . S
C3375 C3376 1.400 . S
C3375 C3380 1.490 . S
C3376 H3366 0.930 . S
C3376 C3375 1.400 . S
C3376 C3379 1.386 . S
H3377 C3393 0.930 . S
H3378 C3394 0.931 . S
C3379 H3367 0.929 . S
C3379 C3373 1.390 . S
C3379 C3376 1.386 . S
C3380 C3375 1.490 . S
C3380 C3382 1.395 . S
C3380 C3383 1.403 1_455 S
H3381 C3387 0.930 . S
C3382 H3368 0.930 . S
C3382 C3380 1.395 . S
C3382 C3385 1.403 . S
C3383 C3380 1.403 1_655 S
C3383 C3384 1.524 . S
C3383 C3387 1.400 . S
C3384 H3369 0.960 . S
C3384 H3370 0.960 . S
C3384 H3371 0.960 . S
C3384 C3383 1.524 . S
C3385 C3382 1.403 . S
C3385 C3386 1.392 1_455 S
C3385 C3389 1.495 . S
C3386 C3385 1.392 1_655 S
C3386 C3387 1.385 . S
C3386 C3388 1.478 . S
C3387 H3381 0.930 . S
C3387 C3383 1.400 . S
C3387 C3386 1.385 . S
C3388 C3386 1.478 . S
C3388 C3390 1.381 . S
C3388 C3394 1.383 . S
C3389 C3385 1.495 . S
C3389 H3395 0.959 . S
C3389 H3396 0.961 . S
C3389 H3397 0.960 . S
C3390 C3388 1.381 . S
C3390 C3391 1.394 . S
C3390 H3398 0.930 . S
C3391 C3390 1.394 . S
C3391 C3392 1.383 . S
C3391 H3399 0.929 . S
C3392 C3391 1.383 . S
C3392 C3393 1.377 . S
C3393 H3377 0.930 . S
C3393 C3392 1.377 . S
C3393 C3394 1.379 . S
C3394 H3378 0.931 . S
C3394 C3388 1.383 . S
C3394 C3393 1.379 . S
H3395 C3389 0.959 . S
H3396 C3389 0.961 . S
H3397 C3389 0.960 . S
H3398 C3390 0.930 . S
H3399 C3391 0.929 . S
H3400 C3408 0.929 . S
H3401 C3410 0.930 . S
H3402 C3412 0.930 . S
H3403 C3415 0.929 1_455 S
H3404 C3418 0.930 . S
H3405 C3420 0.960 . S
H3406 C3420 0.960 . S
H3407 C3420 0.960 . S
C3408 H3400 0.929 . S
C3408 C3409 1.377 . S
C3408 C3410 1.384 . S
C3409 C3408 1.377 . S
C3409 C3415 1.390 . S
C3410 H3401 0.930 . S
C3410 C3408 1.384 . S
C3410 C3411 1.372 . S
C3411 C3410 1.372 . S
C3411 C3412 1.400 . S
C3411 C3416 1.490 . S
C3412 H3402 0.930 . S
C3412 C3411 1.400 . S
C3412 C3415 1.386 . S
H3413 C3429 0.930 . S
H3414 C3430 0.931 . S
C3415 H3403 0.929 1_655 S
C3415 C3409 1.390 . S
C3415 C3412 1.386 . S
C3416 C3411 1.490 . S
C3416 C3418 1.395 . S
C3416 C3419 1.403 . S
H3417 C3423 0.930 . S
C3418 H3404 0.930 . S
C3418 C3416 1.395 . S
C3418 C3421 1.403 . S
C3419 C3416 1.403 . S
C3419 C3420 1.524 . S
C3419 C3423 1.400 . S
C3420 H3405 0.960 . S
C3420 H3406 0.960 . S
C3420 H3407 0.960 . S
C3420 C3419 1.524 . S
C3421 C3418 1.403 . S
C3421 C3422 1.392 . S
C3421 C3425 1.495 . S
C3422 C3421 1.392 . S
C3422 C3423 1.385 . S
C3422 C3424 1.478 . S
C3423 H3417 0.930 . S
C3423 C3419 1.400 . S
C3423 C3422 1.385 . S
C3424 C3422 1.478 . S
C3424 C3426 1.381 . S
C3424 C3430 1.383 . S
C3425 C3421 1.495 . S
C3425 H3431 0.959 . S
C3425 H3432 0.961 . S
C3425 H3433 0.960 . S
C3426 C3424 1.381 . S
C3426 C3427 1.394 . S
C3426 H3434 0.930 . S
C3427 C3426 1.394 . S
C3427 C3428 1.383 . S
C3427 H3435 0.929 . S
C3428 C3427 1.383 . S
C3428 C3429 1.377 . S
C3429 H3413 0.930 . S
C3429 C3428 1.377 . S
C3429 C3430 1.379 . S
C3430 H3414 0.931 . S
C3430 C3424 1.383 . S
C3430 C3429 1.379 . S
H3431 C3425 0.959 . S
H3432 C3425 0.961 . S
H3433 C3425 0.960 . S
H3434 C3426 0.930 . S
H3435 C3427 0.929 . S
H3436 C3444 0.929 . S
H3437 C3446 0.930 . S
H3438 C3448 0.930 . S
H3439 C3451 0.929 . S
H3440 C3454 0.930 . S
H3441 C3456 0.960 . S
H3442 C3456 0.960 . S
H3443 C3456 0.960 . S
C3444 H3436 0.929 . S
C3444 C3445 1.377 . S
C3444 C3446 1.384 . S
C3445 C3444 1.377 . S
C3445 C3451 1.390 . S
C3446 H3437 0.930 . S
C3446 C3444 1.384 . S
C3446 C3447 1.372 . S
C3447 C3446 1.372 . S
C3447 C3448 1.400 . S
C3447 C3452 1.490 . S
C3448 H3438 0.930 . S
C3448 C3447 1.400 . S
C3448 C3451 1.386 . S
H3449 C3465 0.930 . S
H3450 C3466 0.931 . S
C3451 H3439 0.929 . S
C3451 C3445 1.390 . S
C3451 C3448 1.386 . S
C3452 C3447 1.490 . S
C3452 C3454 1.395 . S
C3452 C3455 1.403 . S
H3453 C3459 0.930 . S
C3454 H3440 0.930 . S
C3454 C3452 1.395 . S
C3454 C3457 1.403 . S
C3455 C3452 1.403 . S
C3455 C3456 1.524 . S
C3455 C3459 1.400 . S
C3456 H3441 0.960 . S
C3456 H3442 0.960 . S
C3456 H3443 0.960 . S
C3456 C3455 1.524 . S
C3457 C3454 1.403 . S
C3457 C3458 1.392 . S
C3457 C3461 1.495 . S
C3458 C3457 1.392 . S
C3458 C3459 1.385 . S
C3458 C3460 1.478 . S
C3459 H3453 0.930 . S
C3459 C3455 1.400 . S
C3459 C3458 1.385 . S
C3460 C3458 1.478 . S
C3460 C3462 1.381 . S
C3460 C3466 1.383 . S
C3461 C3457 1.495 . S
C3461 H3467 0.959 . S
C3461 H3468 0.961 . S
C3461 H3469 0.960 . S
C3462 C3460 1.381 . S
C3462 C3463 1.394 . S
C3462 H3470 0.930 . S
C3463 C3462 1.394 . S
C3463 C3464 1.383 . S
C3463 H3471 0.929 . S
C3464 C3463 1.383 . S
C3464 C3465 1.377 . S
C3465 H3449 0.930 . S
C3465 C3464 1.377 . S
C3465 C3466 1.379 . S
C3466 H3450 0.931 . S
C3466 C3460 1.383 . S
C3466 C3465 1.379 . S
H3467 C3461 0.959 . S
H3468 C3461 0.961 . S
H3469 C3461 0.960 . S
H3470 C3462 0.930 . S
H3471 C3463 0.929 . S
H3472 C3480 0.929 . S
H3473 C3482 0.930 . S
H3474 C3484 0.930 . S
H3475 C3487 0.929 . S
H3476 C3490 0.930 . S
H3477 C3492 0.960 . S
H3478 C3492 0.960 . S
H3479 C3492 0.960 . S
C3480 H3472 0.929 . S
C3480 C3481 1.377 . S
C3480 C3482 1.384 . S
C3481 C3480 1.377 . S
C3481 C3487 1.390 . S
C3482 H3473 0.930 . S
C3482 C3480 1.384 . S
C3482 C3483 1.372 . S
C3483 C3482 1.372 . S
C3483 C3484 1.400 . S
C3483 C3488 1.490 . S
C3484 H3474 0.930 . S
C3484 C3483 1.400 . S
C3484 C3487 1.386 . S
H3485 C3501 0.930 . S
H3486 C3502 0.931 . S
C3487 H3475 0.929 . S
C3487 C3481 1.390 . S
C3487 C3484 1.386 . S
C3488 C3483 1.490 . S
C3488 C3490 1.395 1_655 S
C3488 C3491 1.403 . S
H3489 C3495 0.923 1_655 S
C3490 H3476 0.930 . S
C3490 C3488 1.395 1_455 S
C3490 C3493 1.403 . S
C3491 C3488 1.403 . S
C3491 C3492 1.524 . S
C3491 C3495 1.385 1_655 S
C3492 H3477 0.960 . S
C3492 H3478 0.960 . S
C3492 H3479 0.960 . S
C3492 C3491 1.524 . S
C3493 C3490 1.403 . S
C3493 C3494 1.392 . S
C3493 C3497 1.495 . S
C3494 C3493 1.392 . S
C3494 C3495 1.408 . S
C3494 C3496 1.478 . S
C3495 H3489 0.923 1_455 S
C3495 C3491 1.385 1_455 S
C3495 C3494 1.408 . S
C3496 C3494 1.478 . S
C3496 C3498 1.381 . S
C3496 C3502 1.383 . S
C3497 C3493 1.495 . S
C3497 H3503 0.959 . S
C3497 H3504 0.961 . S
C3497 H3505 0.960 . S
C3498 C3496 1.381 . S
C3498 C3499 1.394 . S
C3498 H3506 0.930 . S
C3499 C3498 1.394 . S
C3499 C3500 1.383 . S
C3499 H3507 0.929 . S
C3500 C3499 1.383 . S
C3500 C3501 1.377 . S
C3501 H3485 0.930 . S
C3501 C3500 1.377 . S
C3501 C3502 1.379 . S
C3502 H3486 0.931 . S
C3502 C3496 1.383 . S
C3502 C3501 1.379 . S
H3503 C3497 0.959 . S
H3504 C3497 0.961 . S
H3505 C3497 0.960 . S
H3506 C3498 0.930 . S
H3507 C3499 0.929 . S
H3508 C3516 0.929 . S
H3509 C3518 0.930 . S
H3510 C3520 0.930 . S
H3511 C3523 0.929 . S
H3512 C3526 0.930 . S
H3513 C3528 0.960 . S
H3514 C3528 0.960 . S
H3515 C3528 0.960 . S
C3516 H3508 0.929 . S
C3516 C3517 1.377 . S
C3516 C3518 1.384 . S
C3517 C3516 1.377 . S
C3517 C3523 1.390 . S
C3518 H3509 0.930 . S
C3518 C3516 1.384 . S
C3518 C3519 1.372 . S
C3519 C3518 1.372 . S
C3519 C3520 1.400 . S
C3519 C3524 1.490 . S
C3520 H3510 0.930 . S
C3520 C3519 1.400 . S
C3520 C3523 1.386 . S
H3521 C3537 0.930 . S
H3522 C3538 0.931 . S
C3523 H3511 0.929 . S
C3523 C3517 1.390 . S
C3523 C3520 1.386 . S
C3524 C3519 1.490 . S
C3524 C3526 1.395 . S
C3524 C3527 1.403 . S
H3525 C3531 0.930 . S
C3526 H3512 0.930 . S
C3526 C3524 1.395 . S
C3526 C3529 1.403 . S
C3527 C3524 1.403 . S
C3527 C3528 1.524 . S
C3527 C3531 1.400 . S
C3528 H3513 0.960 . S
C3528 H3514 0.960 . S
C3528 H3515 0.960 . S
C3528 C3527 1.524 . S
C3529 C3526 1.403 . S
C3529 C3530 1.392 . S
C3529 C3533 1.495 . S
C3530 C3529 1.392 . S
C3530 C3531 1.385 . S
C3530 C3532 1.478 . S
C3531 H3525 0.930 . S
C3531 C3527 1.400 . S
C3531 C3530 1.385 . S
C3532 C3530 1.478 . S
C3532 C3534 1.381 . S
C3532 C3538 1.383 . S
C3533 C3529 1.495 . S
C3533 H3539 0.959 . S
C3533 H3540 0.961 . S
C3533 H3541 0.960 . S
C3534 C3532 1.381 . S
C3534 C3535 1.394 . S
C3534 H3542 0.930 . S
C3535 C3534 1.394 . S
C3535 C3536 1.383 . S
C3535 H3543 0.929 . S
C3536 C3535 1.383 . S
C3536 C3537 1.377 . S
C3537 H3521 0.930 . S
C3537 C3536 1.377 . S
C3537 C3538 1.379 . S
C3538 H3522 0.931 . S
C3538 C3532 1.383 . S
C3538 C3537 1.379 . S
H3539 C3533 0.959 . S
H3540 C3533 0.961 . S
H3541 C3533 0.960 . S
H3542 C3534 0.930 . S
H3543 C3535 0.929 . S
H3544 C3552 0.929 . S
H3545 C3554 0.930 . S
H3546 C3556 0.930 . S
H3547 C3559 0.929 . S
H3548 C3562 0.930 . S
H3549 C3564 0.960 . S
H3550 C3564 0.960 . S
H3551 C3564 0.960 . S
C3552 H3544 0.929 . S
C3552 C3553 1.377 . S
C3552 C3554 1.384 . S
C3553 C3552 1.377 . S
C3553 C3559 1.390 . S
C3554 H3545 0.930 . S
C3554 C3552 1.384 . S
C3554 C3555 1.372 . S
C3555 C3554 1.372 . S
C3555 C3556 1.400 . S
C3555 C3560 1.490 . S
C3556 H3546 0.930 . S
C3556 C3555 1.400 . S
C3556 C3559 1.386 . S
H3557 C3573 0.930 . S
H3558 C3574 0.931 . S
C3559 H3547 0.929 . S
C3559 C3553 1.390 . S
C3559 C3556 1.386 . S
C3560 C3555 1.490 . S
C3560 C3562 1.395 . S
C3560 C3563 1.403 . S
H3561 C3567 0.930 . S
C3562 H3548 0.930 . S
C3562 C3560 1.395 . S
C3562 C3565 1.403 . S
C3563 C3560 1.403 . S
C3563 C3564 1.524 . S
C3563 C3567 1.400 . S
C3564 H3549 0.960 . S
C3564 H3550 0.960 . S
C3564 H3551 0.960 . S
C3564 C3563 1.524 . S
C3565 C3562 1.403 . S
C3565 C3566 1.392 . S
C3565 C3569 1.495 . S
C3566 C3565 1.392 . S
C3566 C3567 1.385 . S
C3566 C3568 1.478 . S
C3567 H3561 0.930 . S
C3567 C3563 1.400 . S
C3567 C3566 1.385 . S
C3568 C3566 1.478 . S
C3568 C3570 1.381 . S
C3568 C3574 1.383 . S
C3569 C3565 1.495 . S
C3569 H3575 0.959 . S
C3569 H3576 0.961 . S
C3569 H3577 0.960 . S
C3570 C3568 1.381 . S
C3570 C3571 1.394 . S
C3570 H3578 0.930 . S
C3571 C3570 1.394 . S
C3571 C3572 1.383 . S
C3571 H3579 0.929 . S
C3572 C3571 1.383 . S
C3572 C3573 1.377 . S
C3573 H3557 0.930 . S
C3573 C3572 1.377 . S
C3573 C3574 1.379 . S
C3574 H3558 0.931 . S
C3574 C3568 1.383 . S
C3574 C3573 1.379 . S
H3575 C3569 0.959 . S
H3576 C3569 0.961 . S
H3577 C3569 0.960 . S
H3578 C3570 0.930 . S
H3579 C3571 0.929 . S
H3580 C3588 0.929 . S
H3581 C3590 0.930 1_556 S
H3582 C3592 0.930 . S
H3583 C3595 0.929 . S
H3584 C3598 0.930 . S
H3585 C3600 0.960 . S
H3586 C3600 0.960 1_554 S
H3587 C3600 0.960 1_554 S
C3588 H3580 0.929 . S
C3588 C3589 1.377 . S
C3588 C3590 1.384 . S
C3589 C3588 1.377 . S
C3589 C3595 1.390 . S
C3590 H3581 0.930 1_554 S
C3590 C3588 1.384 . S
C3590 C3591 1.372 . S
C3591 C3590 1.372 . S
C3591 C3592 1.400 . S
C3591 C3596 1.490 1_554 S
C3592 H3582 0.930 . S
C3592 C3591 1.400 . S
C3592 C3595 1.386 . S
H3593 C3609 0.930 . S
H3594 C3610 0.931 . S
C3595 H3583 0.929 . S
C3595 C3589 1.390 . S
C3595 C3592 1.386 . S
C3596 C3591 1.490 1_556 S
C3596 C3598 1.395 . S
C3596 C3599 1.403 . S
H3597 C3603 0.930 . S
C3598 H3584 0.930 . S
C3598 C3596 1.395 . S
C3598 C3601 1.403 . S
C3599 C3596 1.403 . S
C3599 C3600 1.524 . S
C3599 C3603 1.400 . S
C3600 H3585 0.960 . S
C3600 H3586 0.960 1_556 S
C3600 H3587 0.960 1_556 S
C3600 C3599 1.524 . S
C3601 C3598 1.403 . S
C3601 C3602 1.392 . S
C3601 C3605 1.495 . S
C3602 C3601 1.392 . S
C3602 C3603 1.385 . S
C3602 C3604 1.478 . S
C3603 H3597 0.930 . S
C3603 C3599 1.400 . S
C3603 C3602 1.385 . S
C3604 C3602 1.478 . S
C3604 C3606 1.381 . S
C3604 C3610 1.383 . S
C3605 C3601 1.495 . S
C3605 H3611 0.959 . S
C3605 H3612 0.961 . S
C3605 H3613 0.960 . S
C3606 C3604 1.381 . S
C3606 C3607 1.394 . S
C3606 H3614 0.930 . S
C3607 C3606 1.394 . S
C3607 C3608 1.383 . S
C3607 H3615 0.929 . S
C3608 C3607 1.383 . S
C3608 C3609 1.377 . S
C3609 H3593 0.930 . S
C3609 C3608 1.377 . S
C3609 C3610 1.379 . S
C3610 H3594 0.931 . S
C3610 C3604 1.383 . S
C3610 C3609 1.379 . S
H3611 C3605 0.959 . S
H3612 C3605 0.961 . S
H3613 C3605 0.960 . S
H3614 C3606 0.930 . S
H3615 C3607 0.929 . S
H3616 C3624 0.929 . S
H3617 C3626 0.930 . S
H3618 C3628 0.930 . S
H3619 C3631 0.929 . S
H3620 C3634 0.930 . S
H3621 C3636 0.960 . S
H3622 C3636 0.960 . S
H3623 C3636 0.960 . S
C3624 H3616 0.929 . S
C3624 C3625 1.377 . S
C3624 C3626 1.384 . S
C3625 C3624 1.377 . S
C3625 C3631 1.390 . S
C3626 H3617 0.930 . S
C3626 C3624 1.384 . S
C3626 C3627 1.372 . S
C3627 C3626 1.372 . S
C3627 C3628 1.400 . S
C3627 C3632 1.490 . S
C3628 H3618 0.930 . S
C3628 C3627 1.400 . S
C3628 C3631 1.386 . S
H3629 C3645 0.930 . S
H3630 C3646 0.931 . S
C3631 H3619 0.929 . S
C3631 C3625 1.390 . S
C3631 C3628 1.386 . S
C3632 C3627 1.490 . S
C3632 C3634 1.395 . S
C3632 C3635 1.403 . S
H3633 C3639 0.930 . S
C3634 H3620 0.930 . S
C3634 C3632 1.395 . S
C3634 C3637 1.403 . S
C3635 C3632 1.403 . S
C3635 C3636 1.524 . S
C3635 C3639 1.400 . S
C3636 H3621 0.960 . S
C3636 H3622 0.960 . S
C3636 H3623 0.960 . S
C3636 C3635 1.524 . S
C3637 C3634 1.403 . S
C3637 C3638 1.392 . S
C3637 C3641 1.495 . S
C3638 C3637 1.392 . S
C3638 C3639 1.385 . S
C3638 C3640 1.478 . S
C3639 H3633 0.930 . S
C3639 C3635 1.400 . S
C3639 C3638 1.385 . S
C3640 C3638 1.478 . S
C3640 C3642 1.381 . S
C3640 C3646 1.383 . S
C3641 C3637 1.495 . S
C3641 H3647 0.959 . S
C3641 H3648 0.961 . S
C3641 H3649 0.960 . S
C3642 C3640 1.381 . S
C3642 C3643 1.394 . S
C3642 H3650 0.930 . S
C3643 C3642 1.394 . S
C3643 C3644 1.383 . S
C3643 H3651 0.929 . S
C3644 C3643 1.383 . S
C3644 C3645 1.377 . S
C3645 H3629 0.930 . S
C3645 C3644 1.377 . S
C3645 C3646 1.379 . S
C3646 H3630 0.931 . S
C3646 C3640 1.383 . S
C3646 C3645 1.379 . S
H3647 C3641 0.959 . S
H3648 C3641 0.961 . S
H3649 C3641 0.960 . S
H3650 C3642 0.930 . S
H3651 C3643 0.929 . S
H3652 C3660 0.929 . S
H3653 C3662 0.930 . S
H3654 C3664 0.930 . S
H3655 C3667 0.929 . S
H3656 C3670 0.930 . S
H3657 C3672 0.960 . S
H3658 C3672 0.960 . S
H3659 C3672 0.960 . S
C3660 H3652 0.929 . S
C3660 C3661 1.377 . S
C3660 C3662 1.384 . S
C3661 C3660 1.377 . S
C3661 C3667 1.390 . S
C3662 H3653 0.930 . S
C3662 C3660 1.384 . S
C3662 C3663 1.372 . S
C3663 C3662 1.372 . S
C3663 C3664 1.400 . S
C3663 C3668 1.490 . S
C3664 H3654 0.930 . S
C3664 C3663 1.400 . S
C3664 C3667 1.386 . S
H3665 C3681 0.930 . S
H3666 C3682 0.931 . S
C3667 H3655 0.929 . S
C3667 C3661 1.390 . S
C3667 C3664 1.386 . S
C3668 C3663 1.490 . S
C3668 C3670 1.395 . S
C3668 C3671 1.403 . S
H3669 C3675 0.930 . S
C3670 H3656 0.930 . S
C3670 C3668 1.395 . S
C3670 C3673 1.403 . S
C3671 C3668 1.403 . S
C3671 C3672 1.524 . S
C3671 C3675 1.400 . S
C3672 H3657 0.960 . S
C3672 H3658 0.960 . S
C3672 H3659 0.960 . S
C3672 C3671 1.524 . S
C3673 C3670 1.403 . S
C3673 C3674 1.392 . S
C3673 C3677 1.495 . S
C3674 C3673 1.392 . S
C3674 C3675 1.385 . S
C3674 C3676 1.478 . S
C3675 H3669 0.930 . S
C3675 C3671 1.400 . S
C3675 C3674 1.385 . S
C3676 C3674 1.478 . S
C3676 C3678 1.381 . S
C3676 C3682 1.383 . S
C3677 C3673 1.495 . S
C3677 H3683 0.959 . S
C3677 H3684 0.961 . S
C3677 H3685 0.960 . S
C3678 C3676 1.381 . S
C3678 C3679 1.394 . S
C3678 H3686 0.930 . S
C3679 C3678 1.394 . S
C3679 C3680 1.383 . S
C3679 H3687 0.929 . S
C3680 C3679 1.383 . S
C3680 C3681 1.377 . S
C3681 H3665 0.930 . S
C3681 C3680 1.377 . S
C3681 C3682 1.379 . S
C3682 H3666 0.931 . S
C3682 C3676 1.383 . S
C3682 C3681 1.379 . S
H3683 C3677 0.959 . S
H3684 C3677 0.961 . S
H3685 C3677 0.960 . S
H3686 C3678 0.930 . S
H3687 C3679 0.929 . S
H3688 C3696 0.929 . S
H3689 C3698 0.930 . S
H3690 C3700 0.930 . S
H3691 C3703 0.929 . S
H3692 C3706 0.930 . S
H3693 C3708 0.960 . S
H3694 C3708 0.960 . S
H3695 C3708 0.960 . S
C3696 H3688 0.929 . S
C3696 C3697 1.377 . S
C3696 C3698 1.384 . S
C3697 C3696 1.377 . S
C3697 C3703 1.390 . S
C3698 H3689 0.930 . S
C3698 C3696 1.384 . S
C3698 C3699 1.372 . S
C3699 C3698 1.372 . S
C3699 C3700 1.400 . S
C3699 C3704 1.490 . S
C3700 H3690 0.930 . S
C3700 C3699 1.400 . S
C3700 C3703 1.386 . S
H3701 C3717 0.930 . S
H3702 C3718 0.931 . S
C3703 H3691 0.929 . S
C3703 C3697 1.390 . S
C3703 C3700 1.386 . S
C3704 C3699 1.490 . S
C3704 C3706 1.395 . S
C3704 C3707 1.403 . S
H3705 C3711 0.930 . S
C3706 H3692 0.930 . S
C3706 C3704 1.395 . S
C3706 C3709 1.403 . S
C3707 C3704 1.403 . S
C3707 C3708 1.524 . S
C3707 C3711 1.400 . S
C3708 H3693 0.960 . S
C3708 H3694 0.960 . S
C3708 H3695 0.960 . S
C3708 C3707 1.524 . S
C3709 C3706 1.403 . S
C3709 C3710 1.392 . S
C3709 C3713 1.495 . S
C3710 C3709 1.392 . S
C3710 C3711 1.385 . S
C3710 C3712 1.478 . S
C3711 H3705 0.930 . S
C3711 C3707 1.400 . S
C3711 C3710 1.385 . S
C3712 C3710 1.478 . S
C3712 C3714 1.381 . S
C3712 C3718 1.383 . S
C3713 C3709 1.495 . S
C3713 H3719 0.959 . S
C3713 H3720 0.961 . S
C3713 H3721 0.960 . S
C3714 C3712 1.381 . S
C3714 C3715 1.394 . S
C3714 H3722 0.930 . S
C3715 C3714 1.394 . S
C3715 C3716 1.383 . S
C3715 H3723 0.929 . S
C3716 C3715 1.383 . S
C3716 C3717 1.377 . S
C3717 H3701 0.930 . S
C3717 C3716 1.377 . S
C3717 C3718 1.379 . S
C3718 H3702 0.931 . S
C3718 C3712 1.383 . S
C3718 C3717 1.379 . S
H3719 C3713 0.959 . S
H3720 C3713 0.961 . S
H3721 C3713 0.960 . S
H3722 C3714 0.930 . S
H3723 C3715 0.929 . S
H3724 C3732 0.929 . S
H3725 C3734 0.930 . S
H3726 C3736 0.930 . S
H3727 C3739 0.929 . S
H3728 C3742 0.930 . S
H3729 C3744 0.960 . S
H3730 C3744 0.960 . S
H3731 C3744 0.960 . S
C3732 H3724 0.929 . S
C3732 C3733 1.377 . S
C3732 C3734 1.384 . S
C3733 C3732 1.377 . S
C3733 C3739 1.390 . S
C3734 H3725 0.930 . S
C3734 C3732 1.384 . S
C3734 C3735 1.372 . S
C3735 C3734 1.372 . S
C3735 C3736 1.400 . S
C3735 C3740 1.490 . S
C3736 H3726 0.930 . S
C3736 C3735 1.400 . S
C3736 C3739 1.386 . S
H3737 C3753 0.930 . S
H3738 C3754 0.931 . S
C3739 H3727 0.929 . S
C3739 C3733 1.390 . S
C3739 C3736 1.386 . S
C3740 C3735 1.490 . S
C3740 C3742 1.395 . S
C3740 C3743 1.403 . S
H3741 C3747 0.930 . S
C3742 H3728 0.930 . S
C3742 C3740 1.395 . S
C3742 C3745 1.403 . S
C3743 C3740 1.403 . S
C3743 C3744 1.524 . S
C3743 C3747 1.400 . S
C3744 H3729 0.960 . S
C3744 H3730 0.960 . S
C3744 H3731 0.960 . S
C3744 C3743 1.524 . S
C3745 C3742 1.403 . S
C3745 C3746 1.392 . S
C3745 C3749 1.495 1_554 S
C3746 C3745 1.392 . S
C3746 C3747 1.385 . S
C3746 C3748 1.478 1_554 S
C3747 H3741 0.930 . S
C3747 C3743 1.400 . S
C3747 C3746 1.385 . S
C3748 C3746 1.478 1_556 S
C3748 C3750 1.381 . S
C3748 C3754 1.383 . S
C3749 C3745 1.495 1_556 S
C3749 H3755 0.959 . S
C3749 H3756 0.961 . S
C3749 H3757 0.960 . S
C3750 C3748 1.381 . S
C3750 C3751 1.394 . S
C3750 H3758 0.930 . S
C3751 C3750 1.394 . S
C3751 C3752 1.383 . S
C3751 H3759 0.929 . S
C3752 C3751 1.383 . S
C3752 C3753 1.377 . S
C3753 H3737 0.930 . S
C3753 C3752 1.377 . S
C3753 C3754 1.379 . S
C3754 H3738 0.931 . S
C3754 C3748 1.383 . S
C3754 C3753 1.379 . S
H3755 C3749 0.959 . S
H3756 C3749 0.961 . S
H3757 C3749 0.960 . S
H3758 C3750 0.930 . S
H3759 C3751 0.929 . S
H3760 C3768 0.929 . S
H3761 C3770 0.930 . S
H3762 C3772 0.930 . S
H3763 C3775 0.929 . S
H3764 C3778 0.930 . S
H3765 C3780 0.960 . S
H3766 C3780 0.960 . S
H3767 C3780 0.960 . S
C3768 H3760 0.929 . S
C3768 C3769 1.377 . S
C3768 C3770 1.384 . S
C3769 C3768 1.377 . S
C3769 C3775 1.390 . S
C3770 H3761 0.930 . S
C3770 C3768 1.384 . S
C3770 C3771 1.372 . S
C3771 C3770 1.372 . S
C3771 C3772 1.400 . S
C3771 C3776 1.490 . S
C3772 H3762 0.930 . S
C3772 C3771 1.400 . S
C3772 C3775 1.386 . S
H3773 C3789 0.930 . S
H3774 C3790 0.931 . S
C3775 H3763 0.929 . S
C3775 C3769 1.390 . S
C3775 C3772 1.386 . S
C3776 C3771 1.490 . S
C3776 C3778 1.395 . S
C3776 C3779 1.403 . S
H3777 C3783 0.930 . S
C3778 H3764 0.930 . S
C3778 C3776 1.395 . S
C3778 C3781 1.403 . S
C3779 C3776 1.403 . S
C3779 C3780 1.524 . S
C3779 C3783 1.400 . S
C3780 H3765 0.960 . S
C3780 H3766 0.960 . S
C3780 H3767 0.960 . S
C3780 C3779 1.524 . S
C3781 C3778 1.403 . S
C3781 C3782 1.392 . S
C3781 C3785 1.495 . S
C3782 C3781 1.392 . S
C3782 C3783 1.385 . S
C3782 C3784 1.478 . S
C3783 H3777 0.930 . S
C3783 C3779 1.400 . S
C3783 C3782 1.385 . S
C3784 C3782 1.478 . S
C3784 C3786 1.381 . S
C3784 C3790 1.383 . S
C3785 C3781 1.495 . S
C3785 H3791 0.959 . S
C3785 H3792 0.961 . S
C3785 H3793 0.960 . S
C3786 C3784 1.381 . S
C3786 C3787 1.394 . S
C3786 H3794 0.930 . S
C3787 C3786 1.394 . S
C3787 C3788 1.383 . S
C3787 H3795 0.929 . S
C3788 C3787 1.383 . S
C3788 C3789 1.377 . S
C3789 H3773 0.930 . S
C3789 C3788 1.377 . S
C3789 C3790 1.379 . S
C3790 H3774 0.931 . S
C3790 C3784 1.383 . S
C3790 C3789 1.379 . S
H3791 C3785 0.959 . S
H3792 C3785 0.961 . S
H3793 C3785 0.960 . S
H3794 C3786 0.930 . S
H3795 C3787 0.929 . S
H3796 C3804 0.929 . S
H3797 C3806 0.930 . S
H3798 C3808 0.930 . S
H3799 C3811 0.929 . S
H3800 C3814 0.930 . S
H3801 C3816 0.960 . S
H3802 C3816 0.960 . S
H3803 C3816 0.960 . S
C3804 H3796 0.929 . S
C3804 C3805 1.377 . S
C3804 C3806 1.384 . S
C3805 C3804 1.377 . S
C3805 C3811 1.390 . S
C3806 H3797 0.930 . S
C3806 C3804 1.384 . S
C3806 C3807 1.372 . S
C3807 C3806 1.372 . S
C3807 C3808 1.400 . S
C3807 C3812 1.490 . S
C3808 H3798 0.930 . S
C3808 C3807 1.400 . S
C3808 C3811 1.386 . S
H3809 C3825 0.930 . S
H3810 C3826 0.931 . S
C3811 H3799 0.929 . S
C3811 C3805 1.390 . S
C3811 C3808 1.386 . S
C3812 C3807 1.490 . S
C3812 C3814 1.395 . S
C3812 C3815 1.403 . S
H3813 C3819 0.930 . S
C3814 H3800 0.930 . S
C3814 C3812 1.395 . S
C3814 C3817 1.403 . S
C3815 C3812 1.403 . S
C3815 C3816 1.524 . S
C3815 C3819 1.400 . S
C3816 H3801 0.960 . S
C3816 H3802 0.960 . S
C3816 H3803 0.960 . S
C3816 C3815 1.524 . S
C3817 C3814 1.403 . S
C3817 C3818 1.392 . S
C3817 C3821 1.495 . S
C3818 C3817 1.392 . S
C3818 C3819 1.385 . S
C3818 C3820 1.478 . S
C3819 H3813 0.930 . S
C3819 C3815 1.400 . S
C3819 C3818 1.385 . S
C3820 C3818 1.478 . S
C3820 C3822 1.381 . S
C3820 C3826 1.383 . S
C3821 C3817 1.495 . S
C3821 H3827 0.959 . S
C3821 H3828 0.961 . S
C3821 H3829 0.960 . S
C3822 C3820 1.381 . S
C3822 C3823 1.394 . S
C3822 H3830 0.930 . S
C3823 C3822 1.394 . S
C3823 C3824 1.383 . S
C3823 H3831 0.929 . S
C3824 C3823 1.383 . S
C3824 C3825 1.377 . S
C3825 H3809 0.930 . S
C3825 C3824 1.377 . S
C3825 C3826 1.379 . S
C3826 H3810 0.931 . S
C3826 C3820 1.383 . S
C3826 C3825 1.379 . S
H3827 C3821 0.959 . S
H3828 C3821 0.961 . S
H3829 C3821 0.960 . S
H3830 C3822 0.930 . S
H3831 C3823 0.929 . S
H3832 C3840 0.929 . S
H3833 C3842 0.930 . S
H3834 C3844 0.930 . S
H3835 C3847 0.929 . S
H3836 C3850 0.930 . S
H3837 C3852 0.960 . S
H3838 C3852 0.960 . S
H3839 C3852 0.960 . S
C3840 H3832 0.929 . S
C3840 C3841 1.377 . S
C3840 C3842 1.384 . S
C3841 C3840 1.377 . S
C3841 C3847 1.390 . S
C3842 H3833 0.930 . S
C3842 C3840 1.384 . S
C3842 C3843 1.372 . S
C3843 C3842 1.372 . S
C3843 C3844 1.400 . S
C3843 C3848 1.490 . S
C3844 H3834 0.930 . S
C3844 C3843 1.400 . S
C3844 C3847 1.386 . S
H3845 C3861 0.930 . S
H3846 C3862 0.931 . S
C3847 H3835 0.929 . S
C3847 C3841 1.390 . S
C3847 C3844 1.386 . S
C3848 C3843 1.490 . S
C3848 C3850 1.395 . S
C3848 C3851 1.403 . S
H3849 C3855 0.930 . S
C3850 H3836 0.930 . S
C3850 C3848 1.395 . S
C3850 C3853 1.403 . S
C3851 C3848 1.403 . S
C3851 C3852 1.524 . S
C3851 C3855 1.400 . S
C3852 H3837 0.960 . S
C3852 H3838 0.960 . S
C3852 H3839 0.960 . S
C3852 C3851 1.524 . S
C3853 C3850 1.403 . S
C3853 C3854 1.392 . S
C3853 C3857 1.495 . S
C3854 C3853 1.392 . S
C3854 C3855 1.385 . S
C3854 C3856 1.478 . S
C3855 H3849 0.930 . S
C3855 C3851 1.400 . S
C3855 C3854 1.385 . S
C3856 C3854 1.478 . S
C3856 C3858 1.381 . S
C3856 C3862 1.383 . S
C3857 C3853 1.495 . S
C3857 H3863 0.959 . S
C3857 H3864 0.961 . S
C3857 H3865 0.960 . S
C3858 C3856 1.381 . S
C3858 C3859 1.394 . S
C3858 H3866 0.930 . S
C3859 C3858 1.394 . S
C3859 C3860 1.383 . S
C3859 H3867 0.929 . S
C3860 C3859 1.383 . S
C3860 C3861 1.377 . S
C3861 H3845 0.930 . S
C3861 C3860 1.377 . S
C3861 C3862 1.379 . S
C3862 H3846 0.931 . S
C3862 C3856 1.383 . S
C3862 C3861 1.379 . S
H3863 C3857 0.959 . S
H3864 C3857 0.961 . S
H3865 C3857 0.960 . S
H3866 C3858 0.930 . S
H3867 C3859 0.929 . S
H3868 C3876 0.929 . S
H3869 C3878 0.930 . S
H3870 C3880 0.930 . S
H3871 C3883 0.929 . S
H3872 C3886 0.930 . S
H3873 C3888 0.960 . S
H3874 C3888 0.960 . S
H3875 C3888 0.960 . S
C3876 H3868 0.929 . S
C3876 C3877 1.377 . S
C3876 C3878 1.384 . S
C3877 C3876 1.377 . S
C3877 C3883 1.390 . S
C3878 H3869 0.930 . S
C3878 C3876 1.384 . S
C3878 C3879 1.372 . S
C3879 C3878 1.372 . S
C3879 C3880 1.400 . S
C3879 C3884 1.490 . S
C3880 H3870 0.930 . S
C3880 C3879 1.400 . S
C3880 C3883 1.386 . S
H3881 C3897 0.930 . S
H3882 C3898 0.931 . S
C3883 H3871 0.929 . S
C3883 C3877 1.390 . S
C3883 C3880 1.386 . S
C3884 C3879 1.490 . S
C3884 C3886 1.395 . S
C3884 C3887 1.403 . S
H3885 C3891 0.930 . S
C3886 H3872 0.930 . S
C3886 C3884 1.395 . S
C3886 C3889 1.403 . S
C3887 C3884 1.403 . S
C3887 C3888 1.524 . S
C3887 C3891 1.400 . S
C3888 H3873 0.960 . S
C3888 H3874 0.960 . S
C3888 H3875 0.960 . S
C3888 C3887 1.524 . S
C3889 C3886 1.403 . S
C3889 C3890 1.392 . S
C3889 C3893 1.495 . S
C3890 C3889 1.392 . S
C3890 C3891 1.385 . S
C3890 C3892 1.478 . S
C3891 H3885 0.930 . S
C3891 C3887 1.400 . S
C3891 C3890 1.385 . S
C3892 C3890 1.478 . S
C3892 C3894 1.381 . S
C3892 C3898 1.383 . S
C3893 C3889 1.495 . S
C3893 H3899 0.959 . S
C3893 H3900 0.961 . S
C3893 H3901 0.960 . S
C3894 C3892 1.381 . S
C3894 C3895 1.394 . S
C3894 H3902 0.930 . S
C3895 C3894 1.394 . S
C3895 C3896 1.383 . S
C3895 H3903 0.929 . S
C3896 C3895 1.383 . S
C3896 C3897 1.377 . S
C3897 H3881 0.930 . S
C3897 C3896 1.377 . S
C3897 C3898 1.379 . S
C3898 H3882 0.931 . S
C3898 C3892 1.383 . S
C3898 C3897 1.379 . S
H3899 C3893 0.959 . S
H3900 C3893 0.961 . S
H3901 C3893 0.960 . S
H3902 C3894 0.930 . S
H3903 C3895 0.929 . S
H3904 C3912 0.929 . S
H3905 C3914 0.930 . S
H3906 C3916 0.930 . S
H3907 C3919 0.929 . S
H3908 C3922 0.930 . S
H3909 C3924 0.960 . S
H3910 C3924 0.960 . S
H3911 C3924 0.960 . S
C3912 H3904 0.929 . S
C3912 C3913 1.377 . S
C3912 C3914 1.384 . S
C3913 C3912 1.377 . S
C3913 C3919 1.390 . S
C3914 H3905 0.930 . S
C3914 C3912 1.384 . S
C3914 C3915 1.372 . S
C3915 C3914 1.372 . S
C3915 C3916 1.400 . S
C3915 C3920 1.490 . S
C3916 H3906 0.930 . S
C3916 C3915 1.400 . S
C3916 C3919 1.386 . S
H3917 C3933 0.930 . S
H3918 C3934 0.931 . S
C3919 H3907 0.929 . S
C3919 C3913 1.390 . S
C3919 C3916 1.386 . S
C3920 C3915 1.490 . S
C3920 C3922 1.395 . S
C3920 C3923 1.403 . S
H3921 C3927 0.938 . S
C3922 H3908 0.930 . S
C3922 C3920 1.395 . S
C3922 C3925 1.403 . S
C3923 C3920 1.403 . S
C3923 C3924 1.524 . S
C3923 C3927 1.400 . S
C3924 H3909 0.960 . S
C3924 H3910 0.960 . S
C3924 H3911 0.960 . S
C3924 C3923 1.524 . S
C3925 C3922 1.403 . S
C3925 C3926 1.392 . S
C3925 C3929 1.495 . S
C3926 C3925 1.392 . S
C3926 C3927 1.385 . S
C3926 C3928 1.478 1_554 S
C3927 H3921 0.938 . S
C3927 C3923 1.400 . S
C3927 C3926 1.385 . S
C3928 C3926 1.478 1_556 S
C3928 C3930 1.381 . S
C3928 C3934 1.383 . S
C3929 C3925 1.495 . S
C3929 H3935 0.959 . S
C3929 H3936 0.961 . S
C3929 H3937 0.960 . S
C3930 C3928 1.381 . S
C3930 C3931 1.394 . S
C3930 H3938 0.930 . S
C3931 C3930 1.394 . S
C3931 C3932 1.383 . S
C3931 H3939 0.929 . S
C3932 C3931 1.383 . S
C3932 C3933 1.377 . S
C3933 H3917 0.930 . S
C3933 C3932 1.377 . S
C3933 C3934 1.379 . S
C3934 H3918 0.931 . S
C3934 C3928 1.383 . S
C3934 C3933 1.379 . S
H3935 C3929 0.959 . S
H3936 C3929 0.961 . S
H3937 C3929 0.960 . S
H3938 C3930 0.930 . S
H3939 C3931 0.929 . S
H3940 C3948 0.929 . S
H3941 C3950 0.930 . S
H3942 C3952 0.930 . S
H3943 C3955 0.929 . S
H3944 C3958 0.930 . S
H3945 C3960 0.960 . S
H3946 C3960 0.960 . S
H3947 C3960 0.960 . S
C3948 H3940 0.929 . S
C3948 C3949 1.377 . S
C3948 C3950 1.384 . S
C3949 C3948 1.377 . S
C3949 C3955 1.390 . S
C3950 H3941 0.930 . S
C3950 C3948 1.384 . S
C3950 C3951 1.372 . S
C3951 C3950 1.372 . S
C3951 C3952 1.400 . S
C3951 C3956 1.490 . S
C3952 H3942 0.930 . S
C3952 C3951 1.400 . S
C3952 C3955 1.386 . S
H3953 C3969 0.930 . S
H3954 C3970 0.931 . S
C3955 H3943 0.929 . S
C3955 C3949 1.390 . S
C3955 C3952 1.386 . S
C3956 C3951 1.490 . S
C3956 C3958 1.395 . S
C3956 C3959 1.403 . S
H3957 C3963 0.930 . S
C3958 H3944 0.930 . S
C3958 C3956 1.395 . S
C3958 C3961 1.403 . S
C3959 C3956 1.403 . S
C3959 C3960 1.524 . S
C3959 C3963 1.400 . S
C3960 H3945 0.960 . S
C3960 H3946 0.960 . S
C3960 H3947 0.960 . S
C3960 C3959 1.524 . S
C3961 C3958 1.403 . S
C3961 C3962 1.392 . S
C3961 C3965 1.495 . S
C3962 C3961 1.392 . S
C3962 C3963 1.385 . S
C3962 C3964 1.478 . S
C3963 H3957 0.930 . S
C3963 C3959 1.400 . S
C3963 C3962 1.385 . S
C3964 C3962 1.478 . S
C3964 C3966 1.381 . S
C3964 C3970 1.383 . S
C3965 C3961 1.495 . S
C3965 H3971 0.959 . S
C3965 H3972 0.961 . S
C3965 H3973 0.960 . S
C3966 C3964 1.381 . S
C3966 C3967 1.394 . S
C3966 H3974 0.930 . S
C3967 C3966 1.394 . S
C3967 C3968 1.383 . S
C3967 H3975 0.929 . S
C3968 C3967 1.383 . S
C3968 C3969 1.377 . S
C3969 H3953 0.930 . S
C3969 C3968 1.377 . S
C3969 C3970 1.379 . S
C3970 H3954 0.931 . S
C3970 C3964 1.383 . S
C3970 C3969 1.379 . S
H3971 C3965 0.959 . S
H3972 C3965 0.961 . S
H3973 C3965 0.960 . S
H3974 C3966 0.930 . S
H3975 C3967 0.929 . S
H3976 C3984 0.929 . S
H3977 C3986 0.930 . S
H3978 C3988 0.930 . S
H3979 C3991 0.929 . S
H3980 C3994 0.930 . S
H3981 C3996 0.960 . S
H3982 C3996 0.960 . S
H3983 C3996 0.960 . S
C3984 H3976 0.929 . S
C3984 C3985 1.377 . S
C3984 C3986 1.384 . S
C3985 C3984 1.377 . S
C3985 C3991 1.390 . S
C3986 H3977 0.930 . S
C3986 C3984 1.384 . S
C3986 C3987 1.372 . S
C3987 C3986 1.372 . S
C3987 C3988 1.400 . S
C3987 C3992 1.490 . S
C3988 H3978 0.930 . S
C3988 C3987 1.400 . S
C3988 C3991 1.386 . S
H3989 C4005 0.930 . S
H3990 C4006 0.931 . S
C3991 H3979 0.929 . S
C3991 C3985 1.390 . S
C3991 C3988 1.386 . S
C3992 C3987 1.490 . S
C3992 C3994 1.395 . S
C3992 C3995 1.403 . S
H3993 C3999 0.930 . S
C3994 H3980 0.930 . S
C3994 C3992 1.395 . S
C3994 C3997 1.403 . S
C3995 C3992 1.403 . S
C3995 C3996 1.524 . S
C3995 C3999 1.400 . S
C3996 H3981 0.960 . S
C3996 H3982 0.960 . S
C3996 H3983 0.960 . S
C3996 C3995 1.524 . S
C3997 C3994 1.403 . S
C3997 C3998 1.392 . S
C3997 C4001 1.495 . S
C3998 C3997 1.392 . S
C3998 C3999 1.385 . S
C3998 C4000 1.478 . S
C3999 H3993 0.930 . S
C3999 C3995 1.400 . S
C3999 C3998 1.385 . S
C4000 C3998 1.478 . S
C4000 C4002 1.381 . S
C4000 C4006 1.383 . S
C4001 C3997 1.495 . S
C4001 H4007 0.959 . S
C4001 H4008 0.961 . S
C4001 H4009 0.960 . S
C4002 C4000 1.381 . S
C4002 C4003 1.394 . S
C4002 H4010 0.930 . S
C4003 C4002 1.394 . S
C4003 C4004 1.383 . S
C4003 H4011 0.929 . S
C4004 C4003 1.383 . S
C4004 C4005 1.377 . S
C4005 H3989 0.930 . S
C4005 C4004 1.377 . S
C4005 C4006 1.379 . S
C4006 H3990 0.931 . S
C4006 C4000 1.383 . S
C4006 C4005 1.379 . S
H4007 C4001 0.959 . S
H4008 C4001 0.961 . S
H4009 C4001 0.960 . S
H4010 C4002 0.930 . S
H4011 C4003 0.929 . S
H4012 C4020 0.929 . S
H4013 C4022 0.930 . S
H4014 C4024 0.930 . S
H4015 C4027 0.929 . S
H4016 C4030 0.930 . S
H4017 C4032 0.960 . S
H4018 C4032 0.960 . S
H4019 C4032 0.960 . S
C4020 H4012 0.929 . S
C4020 C4021 1.377 . S
C4020 C4022 1.384 . S
C4021 C4020 1.377 . S
C4021 C4027 1.390 . S
C4022 H4013 0.930 . S
C4022 C4020 1.384 . S
C4022 C4023 1.372 . S
C4023 C4022 1.372 . S
C4023 C4024 1.400 . S
C4023 C4028 1.490 . S
C4024 H4014 0.930 . S
C4024 C4023 1.400 . S
C4024 C4027 1.386 . S
H4025 C4041 0.930 . S
H4026 C4042 0.931 . S
C4027 H4015 0.929 . S
C4027 C4021 1.390 . S
C4027 C4024 1.386 . S
C4028 C4023 1.490 . S
C4028 C4030 1.395 . S
C4028 C4031 1.403 . S
H4029 C4035 0.930 . S
C4030 H4016 0.930 . S
C4030 C4028 1.395 . S
C4030 C4033 1.403 . S
C4031 C4028 1.403 . S
C4031 C4032 1.524 . S
C4031 C4035 1.400 . S
C4032 H4017 0.960 . S
C4032 H4018 0.960 . S
C4032 H4019 0.960 . S
C4032 C4031 1.524 . S
C4033 C4030 1.403 . S
C4033 C4034 1.392 . S
C4033 C4037 1.495 . S
C4034 C4033 1.392 . S
C4034 C4035 1.385 . S
C4034 C4036 1.478 . S
C4035 H4029 0.930 . S
C4035 C4031 1.400 . S
C4035 C4034 1.385 . S
C4036 C4034 1.478 . S
C4036 C4038 1.381 . S
C4036 C4042 1.383 . S
C4037 C4033 1.495 . S
C4037 H4043 0.959 . S
C4037 H4044 0.961 . S
C4037 H4045 0.960 . S
C4038 C4036 1.381 . S
C4038 C4039 1.394 . S
C4038 H4046 0.930 . S
C4039 C4038 1.394 . S
C4039 C4040 1.383 . S
C4039 H4047 0.929 . S
C4040 C4039 1.383 . S
C4040 C4041 1.377 . S
C4041 H4025 0.930 . S
C4041 C4040 1.377 . S
C4041 C4042 1.379 . S
C4042 H4026 0.931 . S
C4042 C4036 1.383 . S
C4042 C4041 1.379 . S
H4043 C4037 0.959 . S
H4044 C4037 0.961 . S
H4045 C4037 0.960 . S
H4046 C4038 0.930 . S
H4047 C4039 0.929 . S
H4048 C4056 0.929 . S
H4049 C4058 0.930 . S
H4050 C4060 0.930 . S
H4051 C4063 0.929 . S
H4052 C4066 0.930 1_554 S
H4053 C4068 0.960 . S
H4054 C4068 0.960 . S
H4055 C4068 0.960 . S
C4056 H4048 0.929 . S
C4056 C4057 1.377 . S
C4056 C4058 1.384 . S
C4057 C4056 1.377 . S
C4057 C4063 1.390 . S
C4058 H4049 0.930 . S
C4058 C4056 1.384 . S
C4058 C4059 1.372 . S
C4059 C4058 1.372 . S
C4059 C4060 1.400 . S
C4059 C4064 1.443 1_554 S
C4060 H4050 0.930 . S
C4060 C4059 1.400 . S
C4060 C4063 1.386 . S
H4061 C4077 0.930 . S
H4062 C4078 0.931 . S
C4063 H4051 0.929 . S
C4063 C4057 1.390 . S
C4063 C4060 1.386 . S
C4064 C4059 1.443 1_556 S
C4064 C4066 1.397 . S
C4064 C4067 1.448 . S
H4065 C4071 0.930 . S
C4066 H4052 0.930 1_556 S
C4066 C4064 1.397 . S
C4066 C4069 1.403 . S
C4067 C4064 1.448 . S
C4067 C4068 1.524 . S
C4067 C4071 1.400 . S
C4068 H4053 0.960 . S
C4068 H4054 0.960 . S
C4068 H4055 0.960 . S
C4068 C4067 1.524 . S
C4069 C4066 1.403 . S
C4069 C4070 1.392 . S
C4069 C4073 1.495 . S
C4070 C4069 1.392 . S
C4070 C4071 1.385 . S
C4070 C4072 1.478 . S
C4071 H4065 0.930 . S
C4071 C4067 1.400 . S
C4071 C4070 1.385 . S
C4072 C4070 1.478 . S
C4072 C4074 1.381 . S
C4072 C4078 1.383 . S
C4073 C4069 1.495 . S
C4073 H4079 0.959 . S
C4073 H4080 0.961 . S
C4073 H4081 0.960 . S
C4074 C4072 1.381 . S
C4074 C4075 1.394 . S
C4074 H4082 0.930 . S
C4075 C4074 1.394 . S
C4075 C4076 1.383 . S
C4075 H4083 0.929 . S
C4076 C4075 1.383 . S
C4076 C4077 1.377 . S
C4077 H4061 0.930 . S
C4077 C4076 1.377 . S
C4077 C4078 1.379 . S
C4078 H4062 0.931 . S
C4078 C4072 1.383 . S
C4078 C4077 1.379 . S
H4079 C4073 0.959 . S
H4080 C4073 0.961 . S
H4081 C4073 0.960 . S
H4082 C4074 0.930 . S
H4083 C4075 0.929 . S
H4084 C4092 0.929 . S
H4085 C4094 0.930 . S
H4086 C4096 0.930 . S
H4087 C4099 0.929 . S
H4088 C4102 0.930 . S
H4089 C4104 0.960 . S
H4090 C4104 0.960 . S
H4091 C4104 0.960 . S
C4092 H4084 0.929 . S
C4092 C4093 1.377 . S
C4092 C4094 1.384 . S
C4093 C4092 1.377 . S
C4093 C4099 1.390 . S
C4094 H4085 0.930 . S
C4094 C4092 1.384 . S
C4094 C4095 1.372 . S
C4095 C4094 1.372 . S
C4095 C4096 1.400 . S
C4095 C4100 1.490 . S
C4096 H4086 0.930 . S
C4096 C4095 1.400 . S
C4096 C4099 1.386 . S
H4097 C4113 0.930 . S
H4098 C4114 0.931 . S
C4099 H4087 0.929 . S
C4099 C4093 1.390 . S
C4099 C4096 1.386 . S
C4100 C4095 1.490 . S
C4100 C4102 1.395 . S
C4100 C4103 1.403 . S
H4101 C4107 0.930 . S
C4102 H4088 0.930 . S
C4102 C4100 1.395 . S
C4102 C4105 1.403 . S
C4103 C4100 1.403 . S
C4103 C4104 1.524 . S
C4103 C4107 1.400 . S
C4104 H4089 0.960 . S
C4104 H4090 0.960 . S
C4104 H4091 0.960 . S
C4104 C4103 1.524 . S
C4105 C4102 1.403 . S
C4105 C4106 1.392 . S
C4105 C4109 1.495 . S
C4106 C4105 1.392 . S
C4106 C4107 1.385 . S
C4106 C4108 1.478 . S
C4107 H4101 0.930 . S
C4107 C4103 1.400 . S
C4107 C4106 1.385 . S
C4108 C4106 1.478 . S
C4108 C4110 1.381 . S
C4108 C4114 1.383 . S
C4109 C4105 1.495 . S
C4109 H4115 0.959 . S
C4109 H4116 0.961 . S
C4109 H4117 0.960 . S
C4110 C4108 1.381 . S
C4110 C4111 1.394 . S
C4110 H4118 0.930 . S
C4111 C4110 1.394 . S
C4111 C4112 1.383 . S
C4111 H4119 0.929 . S
C4112 C4111 1.383 . S
C4112 C4113 1.377 . S
C4113 H4097 0.930 . S
C4113 C4112 1.377 . S
C4113 C4114 1.379 . S
C4114 H4098 0.931 . S
C4114 C4108 1.383 . S
C4114 C4113 1.379 . S
H4115 C4109 0.959 . S
H4116 C4109 0.961 . S
H4117 C4109 0.960 . S
H4118 C4110 0.930 . S
H4119 C4111 0.929 . S
H4120 C4128 0.929 . S
H4121 C4130 0.930 . S
H4122 C4132 0.930 . S
H4123 C4135 0.929 . S
H4124 C4138 0.930 . S
H4125 C4140 0.960 . S
H4126 C4140 0.960 . S
H4127 C4140 0.960 . S
C4128 H4120 0.929 . S
C4128 C4129 1.377 . S
C4128 C4130 1.384 . S
C4129 C4128 1.377 . S
C4129 C4135 1.390 . S
C4130 H4121 0.930 . S
C4130 C4128 1.384 . S
C4130 C4131 1.372 . S
C4131 C4130 1.372 . S
C4131 C4132 1.400 . S
C4131 C4136 1.490 . S
C4132 H4122 0.930 . S
C4132 C4131 1.400 . S
C4132 C4135 1.386 . S
H4133 C4149 0.930 . S
H4134 C4150 0.931 . S
C4135 H4123 0.929 . S
C4135 C4129 1.390 . S
C4135 C4132 1.386 . S
C4136 C4131 1.490 . S
C4136 C4138 1.395 . S
C4136 C4139 1.403 . S
H4137 C4143 0.930 . S
C4138 H4124 0.930 . S
C4138 C4136 1.395 . S
C4138 C4141 1.403 . S
C4139 C4136 1.403 . S
C4139 C4140 1.524 . S
C4139 C4143 1.400 . S
C4140 H4125 0.960 . S
C4140 H4126 0.960 . S
C4140 H4127 0.960 . S
C4140 C4139 1.524 . S
C4141 C4138 1.403 . S
C4141 C4142 1.392 . S
C4141 C4145 1.495 . S
C4142 C4141 1.392 . S
C4142 C4143 1.385 . S
C4142 C4144 1.478 . S
C4143 H4137 0.930 . S
C4143 C4139 1.400 . S
C4143 C4142 1.385 . S
C4144 C4142 1.478 . S
C4144 C4146 1.381 . S
C4144 C4150 1.383 . S
C4145 C4141 1.495 . S
C4145 H4151 0.959 . S
C4145 H4152 0.961 . S
C4145 H4153 0.960 . S
C4146 C4144 1.381 . S
C4146 C4147 1.394 . S
C4146 H4154 0.930 . S
C4147 C4146 1.394 . S
C4147 C4148 1.383 . S
C4147 H4155 0.929 . S
C4148 C4147 1.383 . S
C4148 C4149 1.377 . S
C4149 H4133 0.930 . S
C4149 C4148 1.377 . S
C4149 C4150 1.379 . S
C4150 H4134 0.931 . S
C4150 C4144 1.383 . S
C4150 C4149 1.379 . S
H4151 C4145 0.959 . S
H4152 C4145 0.961 . S
H4153 C4145 0.960 . S
H4154 C4146 0.930 . S
H4155 C4147 0.929 . S
H4156 C4164 0.929 . S
H4157 C4166 0.930 . S
H4158 C4168 0.930 . S
H4159 C4171 0.929 . S
H4160 C4174 0.930 . S
H4161 C4176 0.960 . S
H4162 C4176 0.960 . S
H4163 C4176 0.960 . S
C4164 H4156 0.929 . S
C4164 C4165 1.377 . S
C4164 C4166 1.384 . S
C4165 C4164 1.377 . S
C4165 C4171 1.390 . S
C4166 H4157 0.930 . S
C4166 C4164 1.384 . S
C4166 C4167 1.372 . S
C4167 C4166 1.372 . S
C4167 C4168 1.400 . S
C4167 C4172 1.490 . S
C4168 H4158 0.930 . S
C4168 C4167 1.400 . S
C4168 C4171 1.386 . S
H4169 C4185 0.930 . S
H4170 C4186 0.931 . S
C4171 H4159 0.929 . S
C4171 C4165 1.390 . S
C4171 C4168 1.386 . S
C4172 C4167 1.490 . S
C4172 C4174 1.395 . S
C4172 C4175 1.403 . S
H4173 C4179 0.930 . S
C4174 H4160 0.930 . S
C4174 C4172 1.395 . S
C4174 C4177 1.403 . S
C4175 C4172 1.403 . S
C4175 C4176 1.524 . S
C4175 C4179 1.400 . S
C4176 H4161 0.960 . S
C4176 H4162 0.960 . S
C4176 H4163 0.960 . S
C4176 C4175 1.524 . S
C4177 C4174 1.403 . S
C4177 C4178 1.392 . S
C4177 C4181 1.495 . S
C4178 C4177 1.392 . S
C4178 C4179 1.385 . S
C4178 C4180 1.478 . S
C4179 H4173 0.930 . S
C4179 C4175 1.400 . S
C4179 C4178 1.385 . S
C4180 C4178 1.478 . S
C4180 C4182 1.381 . S
C4180 C4186 1.383 . S
C4181 C4177 1.495 . S
C4181 H4187 0.959 . S
C4181 H4188 0.961 . S
C4181 H4189 0.960 . S
C4182 C4180 1.381 . S
C4182 C4183 1.394 . S
C4182 H4190 0.930 . S
C4183 C4182 1.394 . S
C4183 C4184 1.383 . S
C4183 H4191 0.929 . S
C4184 C4183 1.383 . S
C4184 C4185 1.377 . S
C4185 H4169 0.930 . S
C4185 C4184 1.377 . S
C4185 C4186 1.379 . S
C4186 H4170 0.931 . S
C4186 C4180 1.383 . S
C4186 C4185 1.379 . S
H4187 C4181 0.959 . S
H4188 C4181 0.961 . S
H4189 C4181 0.960 . S
H4190 C4182 0.930 . S
H4191 C4183 0.929 . S
C1897 C52 0.576 . S
C1916 C819 0.609 . S
C1933 C1527 1.615 . S
C1952 C111 1.617 . S
C1969 C170 0.568 . S
C1988 C937 0.582 . S
C2005 C229 1.611 . S
C2024 C1468 1.603 . S
C2041 C288 1.885 . S
C2060 C1055 1.836 . S
C2077 C347 0.928 . S
C2096 C1350 0.890 . S
C2113 C406 1.883 . S
C2132 C1173 1.847 . S
C2149 C1881 0.922 . S
C2168 C465 0.897 . S
C2185 C1291 1.861 . S
C2204 C524 1.871 . S
C2221 C583 0.919 . S
C2240 C1114 0.922 . S
C2257 C1409 1.861 . S
C2276 C642 1.881 . S
C2293 C701 1.609 . S
C2312 C996 1.612 . S
C2329 C878 1.615 . S
C2348 C760 1.597 . S
C2365 C1232 0.914 . S
C2384 C1704 0.946 . S
C2401 C1763 0.578 . S
C2420 C1586 0.608 . S
C2437 C1822 0.570 . S
C2456 C1645 0.542 . S
C2473 C3 1.161 . S
C2492 C62 1.198 . S
C2509 C151 1.713 . S
C2528 C64 1.716 . S
C2545 C180 1.185 . S
C2564 C121 1.154 . S
C2581 C182 1.713 . S
C2600 C33 1.716 . S
C2617 C416 1.801 . S
C2636 C239 1.838 . S
C2653 C300 1.676 . S
C2672 C269 1.708 . S
C2689 C357 1.832 . S
C2708 C298 1.816 . S
C2725 C387 1.714 . S
C2744 C418 1.692 . S
C2761 C564 2.219 . S
C2780 C5 2.178 . S
C2797 C477 0.960 . S
C2816 C210 0.946 . S
C2833 C595 0.960 . S
C2852 C92 0.967 . S
C2869 C1598 2.189 . S
C2888 C446 2.209 . S
C2905 C1685 2.222 . S
C2924 C123 2.196 . S
C2941 C682 0.967 . S
C2960 C241 0.966 . S
C2977 C359 0.960 . S
C2996 C741 0.951 . S
C3013 C831 1.722 . S
C3032 C772 1.758 . S
C3049 C918 1.710 . S
C3068 C829 1.642 . S
C3085 C949 1.729 . S
C3104 C890 1.734 . S
C3121 C800 1.705 . S
C3140 C947 1.676 . S
C3157 C1036 1.879 . S
C3176 C1213 1.886 . S
C3193 C1006 1.361 . S
C3212 C1067 1.395 . S
C3229 C1154 1.879 . S
C3248 C1095 1.885 . S
C3265 C1124 1.350 . S
C3284 C1185 1.395 . S
C3301 C770 1.164 . S
C3320 C1301 1.189 . S
C3337 C1244 1.979 . S
C3356 C977 2.003 . S
C3373 C1362 1.977 . S
C3392 C859 2.009 . S
C3409 C1773 1.170 . S
C3428 C1183 1.180 . S
C3445 C1832 1.165 . S
C3464 C888 1.168 . S
C3481 C1008 1.982 . S
C3500 C1449 1.989 . S
C3517 C1508 2.004 . S
C3536 C1126 1.964 . S
C3553 C711 1.181 . S
C3572 C1537 1.170 . S
C3589 C1626 1.709 . S
C3608 C713 1.696 . S
C3625 C652 1.179 . S
C3644 C1596 1.123 . S
C3661 C654 1.710 . S
C3680 C1567 1.699 . S
C3697 C475 1.829 . S
C3716 C1655 1.808 . S
C3733 C536 1.677 . S
C3752 C505 1.709 . S
C3769 C593 1.832 . S
C3788 C534 1.817 . S
C3805 C623 1.714 . S
C3824 C1657 1.688 . S
C3841 C1539 2.189 . S
C3860 C328 2.212 . S
C3877 C1480 1.725 . S
C3896 C1716 1.747 . S
C3913 C1478 1.671 . S
C3932 C1803 1.693 . S
C3949 C1775 1.747 . S
C3968 C1421 1.741 . S
C3985 C1419 1.671 . S
C4004 C1744 1.692 . S
C4021 C1862 1.890 . S
C4040 C1272 1.884 . S
C4057 C1242 1.350 . S
C4076 C1303 1.394 . S
C4093 C1390 1.880 . S
C4112 C1331 1.884 . S
C4129 C1360 1.353 . S
C4148 C1834 1.386 . S
C4165 C1714 1.171 . S
C4184 C1065 1.149 . S
