# Generated by pormake.
# Topology wga, (5)-cn, num edge types: 1
# Building blocks:
#     Node 0, Type 0, BuildingBlock: BEQFEK_clean_sbu_0, # of connection points: 5
#     Node 1, Type 0, BuildingBlock: BEQFEK_clean_sbu_0, # of connection points: 5
#     Node 2, Type 0, BuildingBlock: BEQFEK_clean_sbu_0, # of connection points: 5
#     Node 3, Type 0, BuildingBlock: BEQFEK_clean_sbu_0, # of connection points: 5
#     Node 4, Type 0, BuildingBlock: BEQFEK_clean_sbu_0, # of connection points: 5
#     Node 5, Type 0, BuildingBlock: BEQFEK_clean_sbu_0, # of connection points: 5
#     Node 6, Type 0, BuildingBlock: BEQFEK_clean_sbu_0, # of connection points: 5
#     Node 7, Type 0, BuildingBlock: BEQFEK_clean_sbu_0, # of connection points: 5
#     Node 8, Type 0, BuildingBlock: BEQFEK_clean_sbu_0, # of connection points: 5
#     Node 9, Type 0, BuildingBlock: BEQFEK_clean_sbu_0, # of connection points: 5
#     Node 10, Type 0, BuildingBlock: BEQFEK_clean_sbu_0, # of connection points: 5
#     Node 11, Type 0, BuildingBlock: BEQFEK_clean_sbu_0, # of connection points: 5
#     Node 12, Type 0, BuildingBlock: BEQFEK_clean_sbu_0, # of connection points: 5
#     Node 13, Type 0, BuildingBlock: BEQFEK_clean_sbu_0, # of connection points: 5
#     Node 14, Type 0, BuildingBlock: BEQFEK_clean_sbu_0, # of connection points: 5
#     Node 15, Type 0, BuildingBlock: BEQFEK_clean_sbu_0, # of connection points: 5
#     Node 16, Type 0, BuildingBlock: BEQFEK_clean_sbu_0, # of connection points: 5
#     Node 17, Type 0, BuildingBlock: BEQFEK_clean_sbu_0, # of connection points: 5
#     Node 18, Type 0, BuildingBlock: BEQFEK_clean_sbu_0, # of connection points: 5
#     Node 19, Type 0, BuildingBlock: BEQFEK_clean_sbu_0, # of connection points: 5
#     Node 20, Type 0, BuildingBlock: BEQFEK_clean_sbu_0, # of connection points: 5
#     Node 21, Type 0, BuildingBlock: BEQFEK_clean_sbu_0, # of connection points: 5
#     Node 22, Type 0, BuildingBlock: BEQFEK_clean_sbu_0, # of connection points: 5
#     Node 23, Type 0, BuildingBlock: BEQFEK_clean_sbu_0, # of connection points: 5
#     Node 24, Type 0, BuildingBlock: BEQFEK_clean_sbu_0, # of connection points: 5
#     Node 25, Type 0, BuildingBlock: BEQFEK_clean_sbu_0, # of connection points: 5
#     Node 26, Type 0, BuildingBlock: BEQFEK_clean_sbu_0, # of connection points: 5
#     Node 27, Type 0, BuildingBlock: BEQFEK_clean_sbu_0, # of connection points: 5
#     Node 28, Type 0, BuildingBlock: BEQFEK_clean_sbu_0, # of connection points: 5
#     Node 29, Type 0, BuildingBlock: BEQFEK_clean_sbu_0, # of connection points: 5
#     Node 30, Type 0, BuildingBlock: BEQFEK_clean_sbu_0, # of connection points: 5
#     Node 31, Type 0, BuildingBlock: BEQFEK_clean_sbu_0, # of connection points: 5
#     Edge 32, Type (0, 0), BuildingBlock: TEMPAE_clean_linker_10, # of connection points: 2
#     Edge 33, Type (0, 0), BuildingBlock: TEMPAE_clean_linker_10, # of connection points: 2
#     Edge 34, Type (0, 0), BuildingBlock: TEMPAE_clean_linker_10, # of connection points: 2
#     Edge 35, Type (0, 0), BuildingBlock: TEMPAE_clean_linker_10, # of connection points: 2
#     Edge 36, Type (0, 0), BuildingBlock: TEMPAE_clean_linker_10, # of connection points: 2
#     Edge 37, Type (0, 0), BuildingBlock: TEMPAE_clean_linker_10, # of connection points: 2
#     Edge 38, Type (0, 0), BuildingBlock: TEMPAE_clean_linker_10, # of connection points: 2
#     Edge 39, Type (0, 0), BuildingBlock: TEMPAE_clean_linker_10, # of connection points: 2
#     Edge 40, Type (0, 0), BuildingBlock: TEMPAE_clean_linker_10, # of connection points: 2
#     Edge 41, Type (0, 0), BuildingBlock: TEMPAE_clean_linker_10, # of connection points: 2
#     Edge 42, Type (0, 0), BuildingBlock: TEMPAE_clean_linker_10, # of connection points: 2
#     Edge 43, Type (0, 0), BuildingBlock: TEMPAE_clean_linker_10, # of connection points: 2
#     Edge 44, Type (0, 0), BuildingBlock: TEMPAE_clean_linker_10, # of connection points: 2
#     Edge 45, Type (0, 0), BuildingBlock: TEMPAE_clean_linker_10, # of connection points: 2
#     Edge 46, Type (0, 0), BuildingBlock: TEMPAE_clean_linker_10, # of connection points: 2
#     Edge 47, Type (0, 0), BuildingBlock: TEMPAE_clean_linker_10, # of connection points: 2
#     Edge 48, Type (0, 0), BuildingBlock: TEMPAE_clean_linker_10, # of connection points: 2
#     Edge 49, Type (0, 0), BuildingBlock: TEMPAE_clean_linker_10, # of connection points: 2
#     Edge 50, Type (0, 0), BuildingBlock: TEMPAE_clean_linker_10, # of connection points: 2
#     Edge 51, Type (0, 0), BuildingBlock: TEMPAE_clean_linker_10, # of connection points: 2
#     Edge 52, Type (0, 0), BuildingBlock: TEMPAE_clean_linker_10, # of connection points: 2
#     Edge 53, Type (0, 0), BuildingBlock: TEMPAE_clean_linker_10, # of connection points: 2
#     Edge 54, Type (0, 0), BuildingBlock: TEMPAE_clean_linker_10, # of connection points: 2
#     Edge 55, Type (0, 0), BuildingBlock: TEMPAE_clean_linker_10, # of connection points: 2
#     Edge 56, Type (0, 0), BuildingBlock: TEMPAE_clean_linker_10, # of connection points: 2
#     Edge 57, Type (0, 0), BuildingBlock: TEMPAE_clean_linker_10, # of connection points: 2
#     Edge 58, Type (0, 0), BuildingBlock: TEMPAE_clean_linker_10, # of connection points: 2
#     Edge 59, Type (0, 0), BuildingBlock: TEMPAE_clean_linker_10, # of connection points: 2
#     Edge 60, Type (0, 0), BuildingBlock: TEMPAE_clean_linker_10, # of connection points: 2
#     Edge 61, Type (0, 0), BuildingBlock: TEMPAE_clean_linker_10, # of connection points: 2
#     Edge 62, Type (0, 0), BuildingBlock: TEMPAE_clean_linker_10, # of connection points: 2
#     Edge 63, Type (0, 0), BuildingBlock: TEMPAE_clean_linker_10, # of connection points: 2
#     Edge 64, Type (0, 0), BuildingBlock: TEMPAE_clean_linker_10, # of connection points: 2
#     Edge 65, Type (0, 0), BuildingBlock: TEMPAE_clean_linker_10, # of connection points: 2
#     Edge 66, Type (0, 0), BuildingBlock: TEMPAE_clean_linker_10, # of connection points: 2
#     Edge 67, Type (0, 0), BuildingBlock: TEMPAE_clean_linker_10, # of connection points: 2
#     Edge 68, Type (0, 0), BuildingBlock: TEMPAE_clean_linker_10, # of connection points: 2
#     Edge 69, Type (0, 0), BuildingBlock: TEMPAE_clean_linker_10, # of connection points: 2
#     Edge 70, Type (0, 0), BuildingBlock: TEMPAE_clean_linker_10, # of connection points: 2
#     Edge 71, Type (0, 0), BuildingBlock: TEMPAE_clean_linker_10, # of connection points: 2
#     Edge 72, Type (0, 0), BuildingBlock: TEMPAE_clean_linker_10, # of connection points: 2
#     Edge 73, Type (0, 0), BuildingBlock: TEMPAE_clean_linker_10, # of connection points: 2
#     Edge 74, Type (0, 0), BuildingBlock: TEMPAE_clean_linker_10, # of connection points: 2
#     Edge 75, Type (0, 0), BuildingBlock: TEMPAE_clean_linker_10, # of connection points: 2
#     Edge 76, Type (0, 0), BuildingBlock: TEMPAE_clean_linker_10, # of connection points: 2
#     Edge 77, Type (0, 0), BuildingBlock: TEMPAE_clean_linker_10, # of connection points: 2
#     Edge 78, Type (0, 0), BuildingBlock: TEMPAE_clean_linker_10, # of connection points: 2
#     Edge 79, Type (0, 0), BuildingBlock: TEMPAE_clean_linker_10, # of connection points: 2
#     Edge 80, Type (0, 0), BuildingBlock: TEMPAE_clean_linker_10, # of connection points: 2
#     Edge 81, Type (0, 0), BuildingBlock: TEMPAE_clean_linker_10, # of connection points: 2
#     Edge 82, Type (0, 0), BuildingBlock: TEMPAE_clean_linker_10, # of connection points: 2
#     Edge 83, Type (0, 0), BuildingBlock: TEMPAE_clean_linker_10, # of connection points: 2
#     Edge 84, Type (0, 0), BuildingBlock: TEMPAE_clean_linker_10, # of connection points: 2
#     Edge 85, Type (0, 0), BuildingBlock: TEMPAE_clean_linker_10, # of connection points: 2
#     Edge 86, Type (0, 0), BuildingBlock: TEMPAE_clean_linker_10, # of connection points: 2
#     Edge 87, Type (0, 0), BuildingBlock: TEMPAE_clean_linker_10, # of connection points: 2
#     Edge 88, Type (0, 0), BuildingBlock: TEMPAE_clean_linker_10, # of connection points: 2
#     Edge 89, Type (0, 0), BuildingBlock: TEMPAE_clean_linker_10, # of connection points: 2
#     Edge 90, Type (0, 0), BuildingBlock: TEMPAE_clean_linker_10, # of connection points: 2
#     Edge 91, Type (0, 0), BuildingBlock: TEMPAE_clean_linker_10, # of connection points: 2
#     Edge 92, Type (0, 0), BuildingBlock: TEMPAE_clean_linker_10, # of connection points: 2
#     Edge 93, Type (0, 0), BuildingBlock: TEMPAE_clean_linker_10, # of connection points: 2
#     Edge 94, Type (0, 0), BuildingBlock: TEMPAE_clean_linker_10, # of connection points: 2
#     Edge 95, Type (0, 0), BuildingBlock: TEMPAE_clean_linker_10, # of connection points: 2
#     Edge 96, Type (0, 0), BuildingBlock: TEMPAE_clean_linker_10, # of connection points: 2
#     Edge 97, Type (0, 0), BuildingBlock: TEMPAE_clean_linker_10, # of connection points: 2
#     Edge 98, Type (0, 0), BuildingBlock: TEMPAE_clean_linker_10, # of connection points: 2
#     Edge 99, Type (0, 0), BuildingBlock: TEMPAE_clean_linker_10, # of connection points: 2
#     Edge 100, Type (0, 0), BuildingBlock: TEMPAE_clean_linker_10, # of connection points: 2
#     Edge 101, Type (0, 0), BuildingBlock: TEMPAE_clean_linker_10, # of connection points: 2
#     Edge 102, Type (0, 0), BuildingBlock: TEMPAE_clean_linker_10, # of connection points: 2
#     Edge 103, Type (0, 0), BuildingBlock: TEMPAE_clean_linker_10, # of connection points: 2
#     Edge 104, Type (0, 0), BuildingBlock: TEMPAE_clean_linker_10, # of connection points: 2
#     Edge 105, Type (0, 0), BuildingBlock: TEMPAE_clean_linker_10, # of connection points: 2
#     Edge 106, Type (0, 0), BuildingBlock: TEMPAE_clean_linker_10, # of connection points: 2
#     Edge 107, Type (0, 0), BuildingBlock: TEMPAE_clean_linker_10, # of connection points: 2
#     Edge 108, Type (0, 0), BuildingBlock: TEMPAE_clean_linker_10, # of connection points: 2
#     Edge 109, Type (0, 0), BuildingBlock: TEMPAE_clean_linker_10, # of connection points: 2
#     Edge 110, Type (0, 0), BuildingBlock: TEMPAE_clean_linker_10, # of connection points: 2
#     Edge 111, Type (0, 0), BuildingBlock: TEMPAE_clean_linker_10, # of connection points: 2
# Relax obj value: 0.052
# Max RMSD: 0.132
# Mean RMSD: 0.132
data_MOF--net-wga--node1-BEQFEK_clean_sbu_0--edge1-TEMPAE_clean_linker_10
_symmetry_space_group_name_H-M    P1
_symmetry_Int_Tables_number       1
_symmetry_cell_setting            triclinic
loop_
_symmetry_equiv_pos_as_xyz
'x, y, z'
_cell_length_a     108.64412
_cell_length_b     108.64164
_cell_length_c     19.594028
_cell_angle_alpha  90.025016
_cell_angle_beta   89.989332
_cell_angle_gamma 89.997828
loop_
_atom_site_label
_atom_site_type_symbol
_atom_site_fract_x
_atom_site_fract_y
_atom_site_fract_z
_atom_type_partial_charge
Co0 Co 0.06453 0.56728 0.00584 0.0
Co1 Co 0.06722 0.56287 0.16283 0.0
C2 C 0.04342 0.57109 0.09925 0.0
O3 O 0.04822 0.57219 0.04027 0.0
O4 O 0.04956 0.56712 0.15012 0.0
C5 C 0.06119 0.57885 0.87136 0.0
O6 O 0.05612 0.58834 0.90199 0.0
C7 C 0.06534 0.5678 0.31011 0.0
C8 C 0.0815 0.55768 0.34949 0.0
C9 C 0.07184 0.5652 0.3693 0.0
N10 N 0.07095 0.56211 0.2577 0.0
N11 N 0.08053 0.55599 0.28168 0.0
C12 C 0.05475 0.57649 0.30203 0.0
H13 H 0.05554 0.58152 0.25295 0.0
H14 H 0.05437 0.5832 0.34468 0.0
H15 H 0.04605 0.57113 0.30117 0.0
C16 C 0.08574 0.5838 0.03213 0.0
N17 N 0.07707 0.57577 0.05278 0.0
N18 N 0.07765 0.57457 0.11951 0.0
C19 C 0.08646 0.58211 0.14379 0.0
C20 C 0.09198 0.58813 0.08919 0.0
C21 C 0.08832 0.58678 0.95894 0.0
H22 H 0.08721 0.57842 0.9271 0.0
H23 H 0.08165 0.5938 0.94114 0.0
H24 H 0.09779 0.59041 0.95221 0.0
O25 O 0.06645 0.54939 0.01586 0.0
O26 O 0.07023 0.54613 0.12563 0.0
H27 H 0.09411 0.5765 0.23938 0.0
H28 H 0.09394 0.59297 0.22705 0.0
C29 C 0.08879 0.58432 0.21815 0.0
H30 H 0.07991 0.58497 0.24562 0.0
H31 H 0.08657 0.55089 0.25143 0.0
O32 O 0.06525 0.56992 0.90654 0.0
C33 C 0.06902 0.54219 0.06486 0.0
Co34 Co 0.67868 0.81567 0.28156 0.0
Co35 Co 0.68241 0.81686 0.44061 0.0
C36 C 0.67571 0.79346 0.37315 0.0
O37 O 0.67533 0.79871 0.31504 0.0
O38 O 0.67847 0.79933 0.42724 0.0
C39 C 0.66557 0.81387 0.15012 0.0
O40 O 0.65521 0.8123 0.18348 0.0
C41 C 0.68014 0.81476 0.59149 0.0
C42 C 0.68547 0.83361 0.62196 0.0
C43 C 0.68113 0.82256 0.64782 0.0
N44 N 0.68335 0.82112 0.53525 0.0
N45 N 0.68674 0.83229 0.55415 0.0
C46 C 0.67705 0.80134 0.59089 0.0
H47 H 0.68261 0.79653 0.55166 0.0
H48 H 0.66717 0.80017 0.57803 0.0
H49 H 0.67897 0.79701 0.64102 0.0
C50 C 0.66133 0.83616 0.31266 0.0
N51 N 0.66938 0.82731 0.33098 0.0
N52 N 0.67018 0.82698 0.39801 0.0
C53 C 0.6621 0.83509 0.42447 0.0
C54 C 0.6564 0.84135 0.37141 0.0
C55 C 0.65928 0.84032 0.24077 0.0
H56 H 0.66743 0.83822 0.20884 0.0
H57 H 0.65115 0.8355 0.21943 0.0
H58 H 0.65743 0.85037 0.23915 0.0
O59 O 0.69619 0.81962 0.29053 0.0
O60 O 0.69915 0.81996 0.40264 0.0
H61 H 0.66505 0.84275 0.5237 0.0
H62 H 0.64926 0.83908 0.50567 0.0
C63 C 0.65891 0.83597 0.49869 0.0
H64 H 0.66002 0.82689 0.52365 0.0
H65 H 0.68958 0.83914 0.52031 0.0
O66 O 0.67556 0.81567 0.18221 0.0
C67 C 0.70318 0.82095 0.3419 0.0
Co68 Co 0.4314 0.4303 0.5017 0.0
Co69 Co 0.429 0.43294 0.66012 0.0
C70 C 0.45283 0.42604 0.59456 0.0
O71 O 0.44809 0.42635 0.53513 0.0
O72 O 0.44653 0.42838 0.64781 0.0
C73 C 0.43505 0.41875 0.36868 0.0
O74 O 0.4399 0.40935 0.40106 0.0
C75 C 0.43067 0.42747 0.80683 0.0
C76 C 0.41429 0.43724 0.84626 0.0
C77 C 0.42406 0.42986 0.86592 0.0
N78 N 0.42502 0.43317 0.75461 0.0
N79 N 0.4153 0.43906 0.77859 0.0
C80 C 0.44146 0.41903 0.79865 0.0
H81 H 0.44076 0.41397 0.74962 0.0
H82 H 0.442 0.41233 0.84126 0.0
H83 H 0.45003 0.42458 0.79765 0.0
C84 C 0.41052 0.41304 0.52473 0.0
N85 N 0.41917 0.42097 0.54702 0.0
N86 N 0.41866 0.4216 0.61401 0.0
C87 C 0.40999 0.41375 0.63673 0.0
C88 C 0.40441 0.40818 0.58092 0.0
C89 C 0.40774 0.41072 0.45103 0.0
H90 H 0.4089 0.41933 0.4213 0.0
H91 H 0.41428 0.40375 0.43097 0.0
H92 H 0.39822 0.40726 0.44413 0.0
O93 O 0.42868 0.44793 0.5147 0.0
O94 O 0.42621 0.45006 0.62648 0.0
H95 H 0.40235 0.41829 0.73414 0.0
H96 H 0.403 0.40196 0.71727 0.0
C97 C 0.40788 0.41084 0.71053 0.0
H98 H 0.41682 0.41021 0.73735 0.0
H99 H 0.40923 0.44415 0.74847 0.0
O100 O 0.43094 0.42786 0.40234 0.0
C101 C 0.42665 0.45461 0.56666 0.0
Co102 Co 0.81762 0.18013 0.77176 0.0
Co103 Co 0.81293 0.17789 0.92879 0.0
C104 C 0.82119 0.20153 0.86374 0.0
O105 O 0.82237 0.1966 0.80511 0.0
O106 O 0.81723 0.19548 0.91493 0.0
C107 C 0.82934 0.18326 0.63731 0.0
O108 O 0.83876 0.18845 0.66785 0.0
C109 C 0.8177 0.17999 0.07616 0.0
C110 C 0.80743 0.16394 0.11577 0.0
C111 C 0.81504 0.17354 0.13542 0.0
N112 N 0.81198 0.17439 0.02382 0.0
N113 N 0.80575 0.1649 0.04797 0.0
C114 C 0.8265 0.19048 0.06791 0.0
H115 H 0.8315 0.18963 0.01873 0.0
H116 H 0.83324 0.19079 0.11046 0.0
H117 H 0.82125 0.19924 0.06717 0.0
C118 C 0.83414 0.15898 0.801 0.0
N119 N 0.82608 0.16773 0.82029 0.0
N120 N 0.8247 0.16733 0.88697 0.0
C121 C 0.83214 0.15856 0.91255 0.0
C122 C 0.83826 0.15286 0.85892 0.0
C123 C 0.83734 0.15622 0.72829 0.0
H124 H 0.82908 0.15726 0.69562 0.0
H125 H 0.84441 0.16288 0.71067 0.0
H126 H 0.84101 0.14675 0.72259 0.0
O127 O 0.7997 0.17815 0.78104 0.0
O128 O 0.79626 0.17483 0.89107 0.0
H129 H 0.82626 0.15128 0.00857 0.0
H130 H 0.84276 0.15124 0.99719 0.0
C131 C 0.83417 0.15645 0.98725 0.0
H132 H 0.83489 0.16541 0.01384 0.0
H133 H 0.80061 0.15887 0.0178 0.0
O134 O 0.82042 0.17918 0.67254 0.0
C135 C 0.79241 0.17579 0.83001 0.0
Co136 Co 0.06547 0.4264 0.99696 0.0
Co137 Co 0.06853 0.43313 0.84174 0.0
C138 C 0.04434 0.42466 0.90343 0.0
O139 O 0.04891 0.42259 0.96217 0.0
O140 O 0.05079 0.42901 0.85468 0.0
C141 C 0.06168 0.41503 0.13389 0.0
O142 O 0.05502 0.40626 0.10626 0.0
C143 C 0.06679 0.42811 0.69465 0.0
C144 C 0.0808 0.44074 0.65251 0.0
C145 C 0.07241 0.43172 0.63431 0.0
N146 N 0.07171 0.43465 0.74621 0.0
N147 N 0.07997 0.44228 0.72055 0.0
C148 C 0.05763 0.41798 0.70421 0.0
H149 H 0.05898 0.41354 0.75466 0.0
H150 H 0.05844 0.41101 0.66303 0.0
H151 H 0.04822 0.42195 0.70285 0.0
C152 C 0.08525 0.40874 0.96134 0.0
N153 N 0.07747 0.41794 0.94541 0.0
N154 N 0.07878 0.42077 0.88045 0.0
C155 C 0.08753 0.41349 0.85311 0.0
C156 C 0.09184 0.40559 0.90323 0.0
C157 C 0.08562 0.40259 0.02961 0.0
H158 H 0.07627 0.39927 0.0427 0.0
H159 H 0.09207 0.39468 0.03043 0.0
H160 H 0.08839 0.4094 0.06893 0.0
O161 O 0.06805 0.44435 0.99211 0.0
O162 O 0.07184 0.44929 0.88439 0.0
H163 H 0.10059 0.40905 0.77296 0.0
H164 H 0.08482 0.41103 0.74592 0.0
C165 C 0.09205 0.41444 0.78111 0.0
H166 H 0.09398 0.4242 0.7688 0.0
H167 H 0.08526 0.44833 0.74975 0.0
O168 O 0.06665 0.42317 0.09632 0.0
C169 C 0.07074 0.45228 0.94685 0.0
Co170 Co 0.81763 0.81724 0.25121 0.0
Co171 Co 0.81082 0.81828 0.09569 0.0
C172 C 0.81946 0.79507 0.15963 0.0
O173 O 0.82099 0.80029 0.21723 0.0
O174 O 0.81539 0.8009 0.10809 0.0
C175 C 0.81978 0.80941 0.38603 0.0
O176 O 0.81417 0.79986 0.35908 0.0
C177 C 0.81203 0.81572 0.94596 0.0
C178 C 0.80206 0.83243 0.91283 0.0
C179 C 0.80849 0.82233 0.88855 0.0
N180 N 0.80808 0.82181 0.00158 0.0
N181 N 0.80204 0.83172 0.98138 0.0
C182 C 0.81849 0.80355 0.9486 0.0
H183 H 0.81313 0.79711 0.98086 0.0
H184 H 0.82767 0.80477 0.97251 0.0
H185 H 0.81953 0.79937 0.89734 0.0
C186 C 0.83421 0.83745 0.21015 0.0
N187 N 0.82561 0.82891 0.19613 0.0
N188 N 0.82339 0.82882 0.13017 0.0
C189 C 0.83094 0.83696 0.09948 0.0
C190 C 0.83796 0.84283 0.14921 0.0
C191 C 0.83819 0.84071 0.28104 0.0
H192 H 0.83024 0.84013 0.31638 0.0
H193 H 0.84526 0.83402 0.29826 0.0
H194 H 0.84208 0.85014 0.2833 0.0
O195 O 0.79984 0.82051 0.25263 0.0
O196 O 0.79485 0.82099 0.14277 0.0
H197 H 0.82474 0.84396 0.00348 0.0
H198 H 0.84125 0.84225 0.00937 0.0
C199 C 0.83228 0.83812 0.02368 0.0
H200 H 0.83166 0.82891 -0.00028 0.0
H201 H 0.79809 0.83811 0.01452 0.0
O202 O 0.82291 0.81827 0.34738 0.0
C203 C 0.7919 0.82171 0.20551 0.0
Co204 Co 0.43113 0.57092 0.50462 0.0
Co205 Co 0.42759 0.56298 0.35153 0.0
C206 C 0.45213 0.57122 0.40995 0.0
O207 O 0.44772 0.57414 0.46793 0.0
O208 O 0.44548 0.56647 0.36329 0.0
C209 C 0.43893 0.57453 0.6421 0.0
O210 O 0.4495 0.57063 0.61769 0.0
C211 C 0.42834 0.56714 0.2025 0.0
C212 C 0.41728 0.55149 0.16494 0.0
C213 C 0.42397 0.56162 0.14311 0.0
N214 N 0.42435 0.56058 0.25645 0.0
N215 N 0.41771 0.55127 0.23353 0.0
C216 C 0.43668 0.57807 0.20813 0.0
H217 H 0.44099 0.57857 0.25917 0.0
H218 H 0.43124 0.58661 0.20081 0.0
H219 H 0.44391 0.57771 0.16817 0.0
C220 C 0.41127 0.58811 0.46713 0.0
N221 N 0.41921 0.57905 0.45144 0.0
N222 N 0.41771 0.57586 0.38715 0.0
C223 C 0.40864 0.58277 0.35998 0.0
C224 C 0.40432 0.59076 0.40971 0.0
C225 C 0.41072 0.59433 0.53522 0.0
H226 H 0.42018 0.5966 0.55245 0.0
H227 H 0.40513 0.60287 0.5334 0.0
H228 H 0.40666 0.5879 0.57301 0.0
O229 O 0.42815 0.55295 0.50606 0.0
O230 O 0.42382 0.54745 0.39956 0.0
H231 H 0.40258 0.57128 0.27761 0.0
H232 H 0.39463 0.58584 0.28327 0.0
C233 C 0.40366 0.58121 0.2893 0.0
H234 H 0.41023 0.58522 0.25224 0.0
H235 H 0.41357 0.54467 0.26477 0.0
O236 O 0.42993 0.57599 0.60151 0.0
C237 C 0.42501 0.54484 0.46253 0.0
Co238 Co 0.67661 0.18133 0.75079 0.0
Co239 Co 0.68481 0.17849 0.59745 0.0
C240 C 0.67654 0.20275 0.65872 0.0
O241 O 0.67365 0.19809 0.71611 0.0
O242 O 0.68124 0.19628 0.61108 0.0
C243 C 0.67355 0.18884 0.88783 0.0
O244 O 0.67816 0.19909 0.86301 0.0
C245 C 0.68182 0.1803 0.44762 0.0
C246 C 0.69548 0.16666 0.41196 0.0
C247 C 0.6866 0.17484 0.38912 0.0
N248 N 0.68747 0.17537 0.50235 0.0
N249 N 0.69566 0.16728 0.48054 0.0
C250 C 0.67257 0.1905 0.45182 0.0
H251 H 0.67562 0.19747 0.48932 0.0
H252 H 0.66364 0.18672 0.46953 0.0
H253 H 0.67129 0.19515 0.402 0.0
C254 C 0.659 0.16213 0.70836 0.0
N255 N 0.66844 0.16978 0.69523 0.0
N256 N 0.67173 0.16861 0.63088 0.0
C257 C 0.66449 0.1601 0.60102 0.0
C258 C 0.65617 0.15576 0.64906 0.0
C259 C 0.65248 0.16148 0.77554 0.0
H260 H 0.65855 0.15688 0.81327 0.0
H261 H 0.65061 0.17094 0.79435 0.0
H262 H 0.64369 0.15633 0.77163 0.0
O263 O 0.69455 0.17821 0.75294 0.0
O264 O 0.70024 0.17449 0.64607 0.0
H265 H 0.67568 0.15364 0.51858 0.0
H266 H 0.6603 0.14745 0.51854 0.0
C267 C 0.66589 0.15579 0.52887 0.0
H268 H 0.66297 0.16323 0.4937 0.0
H269 H 0.70133 0.16211 0.5126 0.0
O270 O 0.67138 0.17996 0.84738 0.0
C271 C 0.70273 0.17532 0.70935 0.0
Co272 Co 0.93019 0.43066 -0.0006 0.0
Co273 Co 0.92883 0.43211 0.83993 0.0
C274 C 0.95237 0.42691 0.90673 0.0
O275 O 0.94726 0.42808 0.96495 0.0
O276 O 0.94628 0.42786 0.85158 0.0
C277 C 0.93304 0.418 0.12959 0.0
O278 O 0.93487 0.40785 0.09469 0.0
C279 C 0.93066 0.42964 0.68939 0.0
C280 C 0.91129 0.43297 0.66024 0.0
C281 C 0.92268 0.4298 0.63364 0.0
N282 N 0.92412 0.43218 0.74602 0.0
N283 N 0.91262 0.43439 0.72795 0.0
C284 C 0.94436 0.42816 0.689 0.0
H285 H 0.94855 0.43405 0.72887 0.0
H286 H 0.94671 0.41843 0.70024 0.0
H287 H 0.94833 0.4308 0.63895 0.0
C288 C 0.91018 0.41234 0.97599 0.0
N289 N 0.91879 0.42037 0.95427 0.0
N290 N 0.91903 0.42033 0.88712 0.0
C291 C 0.91118 0.41168 0.86413 0.0
C292 C 0.9051 0.40653 0.91947 0.0
C293 C 0.90609 0.41109 0.0486 0.0
H294 H 0.90806 0.41966 0.07739 0.0
H295 H 0.91105 0.40333 0.07282 0.0
H296 H 0.89608 0.40909 0.05113 0.0
O297 O 0.92538 0.44775 0.98645 0.0
O298 O 0.92588 0.4493 0.87345 0.0
H299 H 0.90325 0.41261 0.76425 0.0
H300 H 0.90809 0.39747 0.78911 0.0
C301 C 0.9105 0.40739 0.79154 0.0
H302 H 0.91945 0.4088 0.76557 0.0
H303 H 0.9056 0.43659 0.76223 0.0
O304 O 0.9307 0.42802 0.09887 0.0
C305 C 0.92435 0.45406 0.93229 0.0
Co306 Co 0.32021 0.18074 0.73424 0.0
Co307 Co 0.31425 0.1784 0.57829 0.0
C308 C 0.3232 0.20205 0.64169 0.0
O309 O 0.32491 0.19719 0.70008 0.0
O310 O 0.31876 0.19595 0.59186 0.0
C311 C 0.33211 0.18339 0.87008 0.0
O312 O 0.34179 0.18845 0.84129 0.0
C313 C 0.31855 0.18045 0.43038 0.0
C314 C 0.30747 0.16492 0.39119 0.0
C315 C 0.31545 0.17418 0.37112 0.0
N316 N 0.31272 0.17506 0.48308 0.0
N317 N 0.306 0.16589 0.45917 0.0
C318 C 0.32787 0.1905 0.4382 0.0
H319 H 0.33276 0.18952 0.48759 0.0
H320 H 0.33464 0.19035 0.39581 0.0
H321 H 0.32307 0.19951 0.43808 0.0
C322 C 0.3363 0.15941 0.70142 0.0
N323 N 0.32818 0.16823 0.68387 0.0
N324 N 0.32619 0.16771 0.61766 0.0
C325 C 0.33325 0.15874 0.59064 0.0
C326 C 0.33979 0.15309 0.64285 0.0
C327 C 0.34015 0.1568 0.77329 0.0
H328 H 0.33216 0.15783 0.80804 0.0
H329 H 0.34729 0.16354 0.78878 0.0
H330 H 0.34393 0.14736 0.77847 0.0
O331 O 0.30224 0.17897 0.7282 0.0
O332 O 0.29781 0.17549 0.61946 0.0
H333 H 0.32609 0.15161 0.49695 0.0
H334 H 0.34265 0.15064 0.50364 0.0
C335 C 0.33448 0.15635 0.51566 0.0
H336 H 0.33546 0.16519 0.48827 0.0
H337 H 0.3007 0.16006 0.48961 0.0
O338 O 0.32324 0.17964 0.83338 0.0
C339 C 0.2945 0.17661 0.68143 0.0
Co340 Co 0.56615 0.56841 0.49757 0.0
Co341 Co 0.56789 0.56147 0.34201 0.0
C342 C 0.5441 0.56928 0.40852 0.0
O343 O 0.54916 0.57082 0.46641 0.0
O344 O 0.5502 0.56574 0.35656 0.0
C345 C 0.55856 0.57443 0.63347 0.0
O346 O 0.54747 0.57288 0.60816 0.0
C347 C 0.56683 0.56584 0.19334 0.0
C348 C 0.57735 0.54988 0.15468 0.0
C349 C 0.571 0.56027 0.13374 0.0
N350 N 0.57066 0.55907 0.24679 0.0
N351 N 0.57696 0.54957 0.22324 0.0
C352 C 0.55881 0.577 0.19947 0.0
H353 H 0.55448 0.57751 0.25044 0.0
H354 H 0.56448 0.58539 0.19265 0.0
H355 H 0.55161 0.57692 0.15929 0.0
C356 C 0.58505 0.58641 0.45497 0.0
N357 N 0.5773 0.57707 0.44128 0.0
N358 N 0.57835 0.57398 0.37657 0.0
C359 C 0.58704 0.58109 0.34735 0.0
C360 C 0.59148 0.58928 0.39585 0.0
C361 C 0.58573 0.59281 0.52253 0.0
H362 H 0.59088 0.58692 0.55895 0.0
H363 H 0.57631 0.59416 0.54309 0.0
H364 H 0.59038 0.60187 0.51836 0.0
O365 O 0.56954 0.55059 0.49705 0.0
O366 O 0.57147 0.54558 0.3877 0.0
H367 H 0.5922 0.56962 0.26288 0.0
H368 H 0.60089 0.5837 0.26933 0.0
C369 C 0.59165 0.57953 0.27586 0.0
H370 H 0.58519 0.58407 0.24008 0.0
H371 H 0.58094 0.54281 0.25404 0.0
O372 O 0.56782 0.57347 0.59421 0.0
C373 C 0.57154 0.54266 0.45059 0.0
Co374 Co 0.17479 0.81546 0.23426 0.0
Co375 Co 0.18255 0.8166 0.07951 0.0
C376 C 0.17372 0.79328 0.14328 0.0
O377 O 0.17173 0.79846 0.20058 0.0
O378 O 0.17806 0.7992 0.0927 0.0
C379 C 0.17192 0.80778 0.36976 0.0
O380 O 0.17701 0.79788 0.34352 0.0
C381 C 0.18096 0.814 0.92984 0.0
C382 C 0.1926 0.82949 0.89541 0.0
C383 C 0.18511 0.82009 0.87187 0.0
N384 N 0.18558 0.81975 0.98502 0.0
N385 N 0.19262 0.82891 0.96402 0.0
C386 C 0.17323 0.80261 0.93348 0.0
H387 H 0.16442 0.80475 0.95963 0.0
H388 H 0.17137 0.79865 0.88238 0.0
H389 H 0.17809 0.79556 0.96425 0.0
C390 C 0.15831 0.83555 0.18985 0.0
N391 N 0.16698 0.82701 0.1773 0.0
N392 N 0.16982 0.82718 0.112 0.0
C393 C 0.16276 0.83564 0.08045 0.0
C394 C 0.1553 0.84131 0.12878 0.0
C395 C 0.15358 0.83851 0.25974 0.0
H396 H 0.16127 0.8383 0.29693 0.0
H397 H 0.14678 0.83141 0.27507 0.0
H398 H 0.14916 0.8477 0.26143 0.0
O399 O 0.19257 0.81888 0.23747 0.0
O400 O 0.19824 0.8196 0.12862 0.0
H401 H 0.17098 0.84248 0.98884 0.0
H402 H 0.15434 0.84294 0.98845 0.0
C403 C 0.1625 0.83757 0.00479 0.0
H404 H 0.16223 0.82854 0.97868 0.0
H405 H 0.19728 0.83491 0.99665 0.0
O406 O 0.1693 0.81671 0.33045 0.0
C407 C 0.20078 0.82027 0.19194 0.0
Co408 Co 0.92995 0.56844 0.97815 0.0
Co409 Co 0.92799 0.5646 0.13636 0.0
C410 C 0.95182 0.57104 0.07039 0.0
O411 O 0.94704 0.5709 0.01102 0.0
O412 O 0.94548 0.56899 0.12381 0.0
C413 C 0.93453 0.5799 0.84456 0.0
O414 O 0.9408 0.58857 0.87584 0.0
C415 C 0.92964 0.57019 0.28275 0.0
C416 C 0.91486 0.55845 0.32484 0.0
C417 C 0.92371 0.56703 0.34289 0.0
N418 N 0.92448 0.5638 0.23142 0.0
N419 N 0.91573 0.55672 0.25701 0.0
C420 C 0.9394 0.57975 0.2731 0.0
H421 H 0.93826 0.58432 0.22286 0.0
H422 H 0.93907 0.58673 0.31441 0.0
H423 H 0.94856 0.57522 0.27393 0.0
C424 C 0.91082 0.58721 0.00829 0.0
N425 N 0.91867 0.57826 0.02739 0.0
N426 N 0.91779 0.57657 0.09378 0.0
C427 C 0.90943 0.58451 0.11912 0.0
C428 C 0.90479 0.59151 0.06593 0.0
C429 C 0.9096 0.59188 0.9368 0.0
H430 H 0.9183 0.59647 0.92176 0.0
H431 H 0.90195 0.59858 0.93168 0.0
H432 H 0.90807 0.58403 0.9016 0.0
O433 O 0.92544 0.55104 0.98695 0.0
O434 O 0.92507 0.54784 0.09878 0.0
H435 H 0.90281 0.57579 0.20976 0.0
H436 H 0.89779 0.59147 0.20062 0.0
C437 C 0.90562 0.58508 0.19248 0.0
H438 H 0.91352 0.58815 0.2239 0.0
H439 H 0.9102 0.55088 0.2279 0.0
O440 O 0.92933 0.57147 0.879 0.0
C441 C 0.92404 0.54394 0.03779 0.0
Co442 Co 0.17919 0.18188 0.74239 0.0
Co443 Co 0.18402 0.1787 0.89888 0.0
C444 C 0.17559 0.20269 0.8381 0.0
O445 O 0.17427 0.19814 0.77861 0.0
O446 O 0.1797 0.19631 0.88766 0.0
C447 C 0.16744 0.18493 0.60725 0.0
O448 O 0.1576 0.18942 0.63734 0.0
C449 C 0.17913 0.18037 0.04623 0.0
C450 C 0.18965 0.16447 0.08551 0.0
C451 C 0.18193 0.17396 0.10548 0.0
N452 N 0.18491 0.17488 0.99371 0.0
N453 N 0.19126 0.16545 0.01763 0.0
C454 C 0.17017 0.19074 0.03817 0.0
H455 H 0.16526 0.1899 0.98874 0.0
H456 H 0.16336 0.19084 0.08039 0.0
H457 H 0.17528 0.19958 0.03822 0.0
C458 C 0.16308 0.16025 0.76782 0.0
N459 N 0.17095 0.16906 0.78873 0.0
N460 N 0.17228 0.16834 0.85534 0.0
C461 C 0.16493 0.15935 0.87938 0.0
C462 C 0.15897 0.15379 0.82465 0.0
C463 C 0.16017 0.15769 0.69453 0.0
H464 H 0.16846 0.1592 0.66261 0.0
H465 H 0.15286 0.1641 0.67725 0.0
H466 H 0.15693 0.14809 0.68735 0.0
O467 O 0.1971 0.18007 0.75141 0.0
O468 O 0.20071 0.1759 0.86039 0.0
H469 H 0.1707 0.15161 0.9745 0.0
H470 H 0.1542 0.15174 0.96282 0.0
C471 C 0.16284 0.15693 0.95374 0.0
H472 H 0.16217 0.16576 0.98155 0.0
H473 H 0.19649 0.15952 0.98733 0.0
O474 O 0.17651 0.18135 0.64292 0.0
C475 C 0.20448 0.17739 0.79944 0.0
Co476 Co 0.56581 0.42717 0.52433 0.0
Co477 Co 0.56827 0.43386 0.67922 0.0
C478 C 0.54448 0.42508 0.61854 0.0
O479 O 0.54931 0.42317 0.56031 0.0
O480 O 0.55063 0.42958 0.6679 0.0
C481 C 0.55792 0.42561 0.38865 0.0
O482 O 0.5484 0.43131 0.41536 0.0
C483 C 0.56584 0.43238 0.82883 0.0
C484 C 0.58279 0.4419 0.86236 0.0
C485 C 0.57251 0.43572 0.8864 0.0
N486 N 0.57205 0.4362 0.77337 0.0
N487 N 0.58211 0.44196 0.7938 0.0
C488 C 0.55343 0.42639 0.82589 0.0
H489 H 0.54715 0.43217 0.79495 0.0
H490 H 0.55426 0.41731 0.80034 0.0
H491 H 0.54928 0.42524 0.87712 0.0
C492 C 0.58637 0.41056 0.5599 0.0
N493 N 0.578 0.41918 0.57637 0.0
N494 N 0.57847 0.4213 0.6424 0.0
C495 C 0.58689 0.41376 0.67063 0.0
C496 C 0.59228 0.40677 0.61921 0.0
C497 C 0.58896 0.40654 0.48821 0.0
H498 H 0.58854 0.41458 0.45346 0.0
H499 H 0.5818 0.39987 0.472 0.0
H500 H 0.59815 0.40219 0.48368 0.0
O501 O 0.56821 0.44514 0.52471 0.0
O502 O 0.57158 0.4498 0.63343 0.0
H503 H 0.59489 0.42012 0.76386 0.0
H504 H 0.59331 0.4036 0.75888 0.0
C505 C 0.58891 0.4125 0.74591 0.0
H506 H 0.57998 0.41306 0.77303 0.0
H507 H 0.58859 0.44581 0.7608 0.0
O508 O 0.56664 0.42227 0.42759 0.0
C509 C 0.57076 0.45293 0.57104 0.0
Co510 Co 0.31304 0.8177 0.25501 0.0
Co511 Co 0.31152 0.81822 0.414 0.0
C512 C 0.31717 0.79509 0.34243 0.0
O513 O 0.31601 0.80045 0.28494 0.0
O514 O 0.31597 0.80089 0.39847 0.0
C515 C 0.32463 0.8138 0.12362 0.0
O516 O 0.33359 0.80846 0.15747 0.0
C517 C 0.31692 0.81608 0.561 0.0
C518 C 0.30809 0.83303 0.59996 0.0
C519 C 0.31497 0.82292 0.6198 0.0
N520 N 0.31148 0.82196 0.50871 0.0
N521 N 0.30613 0.83201 0.53246 0.0
C522 C 0.32475 0.80483 0.55309 0.0
H523 H 0.32997 0.8053 0.5045 0.0
H524 H 0.33129 0.80385 0.59622 0.0
H525 H 0.31872 0.7966 0.55115 0.0
C526 C 0.33123 0.83753 0.28083 0.0
N527 N 0.32317 0.82891 0.30192 0.0
N528 N 0.32294 0.82872 0.369 0.0
C529 C 0.33126 0.83684 0.39288 0.0
C530 C 0.33666 0.84284 0.33787 0.0
C531 C 0.33302 0.8411 0.20774 0.0
H532 H 0.32422 0.84026 0.17951 0.0
H533 H 0.33984 0.8348 0.18404 0.0
H534 H 0.33645 0.85068 0.20333 0.0
O535 O 0.29582 0.82203 0.26948 0.0
O536 O 0.29423 0.821 0.38229 0.0
H537 H 0.32789 0.84377 0.49334 0.0
H538 H 0.344 0.84221 0.47265 0.0
C539 C 0.33477 0.83799 0.46652 0.0
H540 H 0.33496 0.82877 0.4905 0.0
H541 H 0.30138 0.83832 0.50218 0.0
O542 O 0.3156 0.81841 0.15591 0.0
C543 C 0.28946 0.82268 0.32369 0.0
Co544 Co 0.56479 0.06964 0.49617 0.0
Co545 Co 0.56863 0.06361 0.65154 0.0
C546 C 0.54425 0.07217 0.59336 0.0
O547 O 0.54851 0.07398 0.5336 0.0
O548 O 0.55089 0.06781 0.64123 0.0
C549 C 0.56084 0.08094 0.35926 0.0
O550 O 0.55482 0.09012 0.38744 0.0
C551 C 0.56721 0.06881 0.79841 0.0
C552 C 0.58171 0.05669 0.83999 0.0
C553 C 0.57301 0.0654 0.85856 0.0
N554 N 0.57228 0.06245 0.74668 0.0
N555 N 0.58087 0.05515 0.77197 0.0
C556 C 0.55767 0.0786 0.78916 0.0
H557 H 0.55894 0.08323 0.73917 0.0
H558 H 0.55813 0.08551 0.83085 0.0
H559 H 0.54841 0.07427 0.78963 0.0
C560 C 0.5851 0.0871 0.52561 0.0
N561 N 0.57727 0.0781 0.54421 0.0
N562 N 0.57871 0.07576 0.60969 0.0
C563 C 0.58748 0.08325 0.63485 0.0
C564 C 0.59177 0.09068 0.58256 0.0
C565 C 0.58551 0.09269 0.4559 0.0
H566 H 0.57657 0.09722 0.44533 0.0
H567 H 0.59296 0.09961 0.45113 0.0
H568 H 0.58685 0.08533 0.41732 0.0
O569 O 0.56712 0.05166 0.50268 0.0
O570 O 0.57168 0.04726 0.61025 0.0
H571 H 0.59445 0.07365 0.72187 0.0
H572 H 0.59994 0.08923 0.71482 0.0
C573 C 0.59185 0.08315 0.70729 0.0
H574 H 0.58429 0.08625 0.7412 0.0
H575 H 0.58631 0.04925 0.74257 0.0
O576 O 0.56547 0.07256 0.39645 0.0
C577 C 0.57011 0.04396 0.54856 0.0
Co578 Co 0.18065 0.31686 0.74807 0.0
Co579 Co 0.18401 0.31771 0.90664 0.0
C580 C 0.17735 0.29446 0.83621 0.0
O581 O 0.1779 0.29969 0.77808 0.0
O582 O 0.17921 0.30037 0.8914 0.0
C583 C 0.16921 0.31247 0.61537 0.0
O584 O 0.16077 0.30602 0.64748 0.0
C585 C 0.17835 0.31582 0.05305 0.0
C586 C 0.19016 0.33053 0.09547 0.0
C587 C 0.18149 0.32176 0.11321 0.0
N588 N 0.18482 0.32093 0.00192 0.0
N589 N 0.19196 0.32962 0.02774 0.0
C590 C 0.16872 0.30614 0.04316 0.0
H591 H 0.16414 0.30737 0.993 0.0
H592 H 0.16176 0.30646 0.08458 0.0
H593 H 0.1732 0.29696 0.04356 0.0
C594 C 0.16193 0.33591 0.78 0.0
N595 N 0.17084 0.32796 0.79838 0.0
N596 N 0.17235 0.32842 0.86502 0.0
C597 C 0.16435 0.33665 0.89123 0.0
C598 C 0.15748 0.3416 0.83836 0.0
C599 C 0.15733 0.33739 0.7085 0.0
H600 H 0.16521 0.33913 0.6738 0.0
H601 H 0.15284 0.32871 0.69218 0.0
H602 H 0.15056 0.34498 0.70401 0.0
O603 O 0.1981 0.32108 0.75848 0.0
O604 O 0.20093 0.32035 0.87055 0.0
H605 H 0.17277 0.34259 0.98415 0.0
H606 H 0.15719 0.3478 0.97429 0.0
C607 C 0.16354 0.33997 0.96526 0.0
H608 H 0.16029 0.33189 0.99467 0.0
H609 H 0.19785 0.33512 0.99879 0.0
O610 O 0.17763 0.31784 0.64906 0.0
C611 C 0.20507 0.32182 0.81034 0.0
Co612 Co 0.93123 0.92626 0.98539 0.0
Co613 Co 0.92853 0.93325 0.13999 0.0
C614 C 0.95246 0.92446 0.08061 0.0
O615 O 0.94777 0.92237 0.02215 0.0
O616 O 0.94611 0.92897 0.12919 0.0
C617 C 0.93915 0.92436 0.84929 0.0
O618 O 0.94886 0.92983 0.87548 0.0
C619 C 0.93087 0.93161 0.2896 0.0
C620 C 0.91436 0.94181 0.3236 0.0
C621 C 0.92439 0.9352 0.34737 0.0
N622 N 0.9248 0.93571 0.23428 0.0
N623 N 0.91499 0.94186 0.25501 0.0
C624 C 0.943 0.92509 0.28629 0.0
H625 H 0.94186 0.91625 0.25853 0.0
H626 H 0.94696 0.92337 0.33749 0.0
H627 H 0.94962 0.93081 0.2572 0.0
C628 C 0.91024 0.9101 0.02092 0.0
N629 N 0.91886 0.91848 0.03743 0.0
N630 N 0.91835 0.92069 0.10335 0.0
C631 C 0.90971 0.9134 0.13156 0.0
C632 C 0.90415 0.90653 0.08017 0.0
C633 C 0.90752 0.90622 0.94916 0.0
H634 H 0.90833 0.91423 0.91444 0.0
H635 H 0.91435 0.8992 0.93306 0.0
H636 H 0.89812 0.90232 0.94446 0.0
O637 O 0.92893 0.94424 0.98485 0.0
O638 O 0.92537 0.94913 0.0931 0.0
H639 H 0.90183 0.92002 0.22461 0.0
H640 H 0.9031 0.90345 0.22019 0.0
C641 C 0.90766 0.91226 0.20689 0.0
H642 H 0.91659 0.91267 0.23399 0.0
H643 H 0.90865 0.94599 0.2222 0.0
O644 O 0.93039 0.92127 0.88865 0.0
C645 C 0.92634 0.95213 0.03054 0.0
Co646 Co 0.31841 0.68095 0.26069 0.0
Co647 Co 0.31152 0.67944 0.41629 0.0
C648 C 0.3196 0.70305 0.3507 0.0
O649 O 0.32142 0.69794 0.2931 0.0
O650 O 0.3156 0.69701 0.40177 0.0
C651 C 0.32381 0.68867 0.1249 0.0
O652 O 0.32151 0.69963 0.15017 0.0
C653 C 0.31565 0.68048 0.56524 0.0
C654 C 0.30008 0.66926 0.60263 0.0
C655 C 0.3102 0.67596 0.62434 0.0
N656 N 0.30909 0.67651 0.5113 0.0
N657 N 0.29982 0.6698 0.53409 0.0
C658 C 0.32651 0.68892 0.56011 0.0
H659 H 0.32676 0.69362 0.51011 0.0
H660 H 0.33511 0.6835 0.5652 0.0
H661 H 0.32628 0.69586 0.60172 0.0
C662 C 0.33568 0.66144 0.30119 0.0
N663 N 0.32679 0.66962 0.31599 0.0
N664 N 0.32395 0.66883 0.38117 0.0
C665 C 0.33096 0.65999 0.4099 0.0
C666 C 0.33862 0.65508 0.36021 0.0
C667 C 0.34149 0.66015 0.23231 0.0
H668 H 0.34409 0.66937 0.21279 0.0
H669 H 0.34978 0.65419 0.23389 0.0
H670 H 0.33468 0.65614 0.1964 0.0
O671 O 0.30056 0.67733 0.26088 0.0
O672 O 0.2956 0.67638 0.37078 0.0
H673 H 0.32007 0.65476 0.49634 0.0
H674 H 0.33467 0.64691 0.49068 0.0
C675 C 0.3299 0.65581 0.48242 0.0
H676 H 0.33407 0.66282 0.51633 0.0
H677 H 0.29326 0.66563 0.50279 0.0
O678 O 0.32353 0.67938 0.16426 0.0
C679 C 0.29266 0.67581 0.30804 0.0
Co680 Co 0.56503 0.92877 0.50417 0.0
Co681 Co 0.567 0.93232 0.34605 0.0
C682 C 0.54342 0.92472 0.4127 0.0
O683 O 0.54833 0.92476 0.47172 0.0
O684 O 0.54954 0.92745 0.35932 0.0
C685 C 0.56168 0.91703 0.63745 0.0
O686 O 0.55659 0.90766 0.60577 0.0
C687 C 0.56516 0.9272 0.19893 0.0
C688 C 0.58118 0.93753 0.15939 0.0
C689 C 0.57164 0.92985 0.13975 0.0
N690 N 0.57068 0.93301 0.25122 0.0
N691 N 0.58017 0.93926 0.22713 0.0
C692 C 0.55468 0.91838 0.2071 0.0
H693 H 0.55555 0.91336 0.25615 0.0
H694 H 0.55438 0.91166 0.16446 0.0
H695 H 0.54591 0.92362 0.20805 0.0
C696 C 0.58586 0.9117 0.4766 0.0
N697 N 0.57721 0.91979 0.4563 0.0
N698 N 0.57764 0.92088 0.38946 0.0
C699 C 0.58635 0.91324 0.36486 0.0
C700 C 0.59194 0.90726 0.41926 0.0
C701 C 0.58859 0.90875 0.54963 0.0
H702 H 0.58768 0.91715 0.58134 0.0
H703 H 0.58186 0.90184 0.56815 0.0
H704 H 0.59802 0.90497 0.55562 0.0
O705 O 0.56748 0.94648 0.49357 0.0
O706 O 0.56966 0.94931 0.38213 0.0
H707 H 0.59362 0.91876 0.26819 0.0
H708 H 0.59377 0.90232 0.28164 0.0
C709 C 0.58849 0.9109 0.29046 0.0
H710 H 0.57955 0.91003 0.2639 0.0
H711 H 0.58612 0.94448 0.25728 0.0
O712 O 0.56582 0.92605 0.60325 0.0
C713 C 0.5693 0.9535 0.44279 0.0
Co714 Co 0.31991 0.31658 0.73878 0.0
Co715 Co 0.31425 0.31665 0.58249 0.0
C716 C 0.32252 0.29391 0.64965 0.0
O717 O 0.32265 0.29937 0.70716 0.0
O718 O 0.31973 0.29953 0.59491 0.0
C719 C 0.32217 0.30871 0.87318 0.0
O720 O 0.31656 0.29916 0.84626 0.0
C721 C 0.31549 0.31418 0.43293 0.0
C722 C 0.30522 0.33076 0.4005 0.0
C723 C 0.31179 0.32078 0.37587 0.0
N724 N 0.31149 0.32017 0.48874 0.0
N725 N 0.30527 0.32999 0.46898 0.0
C726 C 0.32212 0.3021 0.43509 0.0
H727 H 0.31698 0.29561 0.46814 0.0
H728 H 0.33138 0.30346 0.45781 0.0
H729 H 0.32301 0.29789 0.38379 0.0
C730 C 0.33671 0.3367 0.69729 0.0
N731 N 0.32833 0.32794 0.68328 0.0
N732 N 0.32636 0.32761 0.61711 0.0
C733 C 0.33381 0.33583 0.58641 0.0
C734 C 0.34051 0.342 0.63621 0.0
C735 C 0.3404 0.34029 0.76816 0.0
H736 H 0.33236 0.33965 0.80286 0.0
H737 H 0.34756 0.33382 0.7867 0.0
H738 H 0.3441 0.3498 0.76972 0.0
O739 O 0.3023 0.32031 0.7387 0.0
O740 O 0.29799 0.31898 0.62823 0.0
H741 H 0.32765 0.34248 0.48958 0.0
H742 H 0.34417 0.34128 0.49687 0.0
C743 C 0.3353 0.33689 0.51065 0.0
H744 H 0.33501 0.32763 0.48714 0.0
H745 H 0.30124 0.33629 0.50242 0.0
O746 O 0.32516 0.31764 0.83477 0.0
C747 C 0.29463 0.3206 0.68986 0.0
Co748 Co 0.93093 0.06725 0.99889 0.0
Co749 Co 0.92999 0.06446 0.84018 0.0
C750 C 0.95295 0.07221 0.91098 0.0
O751 O 0.9477 0.07164 0.969 0.0
O752 O 0.94724 0.06973 0.85592 0.0
C753 C 0.93392 0.07905 0.13111 0.0
O754 O 0.9391 0.08825 0.09845 0.0
C755 C 0.93209 0.0696 0.69301 0.0
C756 C 0.91579 0.05967 0.65367 0.0
C757 C 0.92546 0.06717 0.63405 0.0
N758 N 0.92649 0.06386 0.74526 0.0
N759 N 0.91685 0.05784 0.72126 0.0
C760 C 0.94278 0.07817 0.70108 0.0
H761 H 0.94186 0.08345 0.7493 0.0
H762 H 0.94345 0.08466 0.65754 0.0
H763 H 0.95138 0.07269 0.704 0.0
C764 C 0.90972 0.08379 0.97016 0.0
N765 N 0.9188 0.07614 0.95029 0.0
N766 N 0.91892 0.0755 0.88327 0.0
C767 C 0.91022 0.08307 0.85815 0.0
C768 C 0.90396 0.08845 0.9123 0.0
C769 C 0.90629 0.08606 0.04305 0.0
H770 H 0.90749 0.07752 0.07324 0.0
H771 H 0.91246 0.09323 0.0645 0.0
H772 H 0.89662 0.08924 0.04758 0.0
O773 O 0.92883 0.04953 0.98655 0.0
O774 O 0.92756 0.04731 0.87421 0.0
H775 H 0.90349 0.07852 0.75873 0.0
H776 H 0.90379 0.09483 0.7761 0.0
C777 C 0.90873 0.08601 0.78392 0.0
H778 H 0.91788 0.08677 0.75953 0.0
H779 H 0.9108 0.05274 0.75146 0.0
O780 O 0.92976 0.06993 0.09778 0.0
C781 C 0.92753 0.04279 0.93413 0.0
Co782 Co 0.17866 0.67858 0.235 0.0
Co783 Co 0.18296 0.67859 0.07797 0.0
C784 C 0.17533 0.70129 0.14655 0.0
O785 O 0.17579 0.69576 0.20376 0.0
O786 O 0.17751 0.69571 0.0908 0.0
C787 C 0.17637 0.68678 0.36928 0.0
O788 O 0.1817 0.69647 0.34221 0.0
C789 C 0.18134 0.68096 0.92873 0.0
C790 C 0.19095 0.66399 0.89603 0.0
C791 C 0.18475 0.67422 0.87166 0.0
N792 N 0.18517 0.67484 0.98436 0.0
N793 N 0.19097 0.66477 0.96449 0.0
C794 C 0.17524 0.69332 0.93106 0.0
H795 H 0.18069 0.69958 0.96395 0.0
H796 H 0.16596 0.69236 0.95409 0.0
H797 H 0.17447 0.69754 0.87978 0.0
C798 C 0.16152 0.65852 0.19806 0.0
N799 N 0.16979 0.66725 0.18188 0.0
N800 N 0.17116 0.66763 0.11529 0.0
C801 C 0.1634 0.65948 0.08651 0.0
C802 C 0.15713 0.6533 0.13802 0.0
C803 C 0.15848 0.65489 0.26982 0.0
H804 H 0.16685 0.65545 0.30212 0.0
H805 H 0.15156 0.66139 0.29064 0.0
H806 H 0.15474 0.6454 0.2722 0.0
O807 O 0.19624 0.67474 0.23133 0.0
O808 O 0.19955 0.67641 0.11993 0.0
H809 H 0.16843 0.65262 0.9881 0.0
H810 H 0.15206 0.65442 1e-05 0.0
C811 C 0.1612 0.6585 0.01125 0.0
H812 H 0.16163 0.66775 0.98762 0.0
H813 H 0.19483 0.65835 0.99784 0.0
O814 O 0.17378 0.67767 0.3313 0.0
C815 C 0.20345 0.67464 0.18037 0.0
Co816 Co 0.43036 0.92523 0.49067 0.0
Co817 Co 0.42809 0.93316 0.33686 0.0
C818 C 0.45173 0.92359 0.39657 0.0
O819 O 0.44687 0.92125 0.45428 0.0
O820 O 0.44561 0.92855 0.34841 0.0
C821 C 0.4379 0.92357 0.62656 0.0
O822 O 0.4474 0.92932 0.59996 0.0
C823 C 0.4306 0.93191 0.18687 0.0
C824 C 0.41431 0.9425 0.15341 0.0
C825 C 0.42417 0.93569 0.12922 0.0
N826 N 0.42462 0.93607 0.24245 0.0
N827 N 0.41497 0.94249 0.222 0.0
C828 C 0.44255 0.92505 0.18981 0.0
H829 H 0.44919 0.93032 0.22125 0.0
H830 H 0.44106 0.91601 0.2148 0.0
H831 H 0.44666 0.92371 0.13862 0.0
C832 C 0.40948 0.90932 0.45057 0.0
N833 N 0.41807 0.91785 0.43635 0.0
N834 N 0.41765 0.92054 0.37092 0.0
C835 C 0.40904 0.91346 0.34081 0.0
C836 C 0.40347 0.90619 0.39037 0.0
C837 C 0.4068 0.90476 0.52113 0.0
H838 H 0.40746 0.91248 0.558 0.0
H839 H 0.41376 0.89775 0.53541 0.0
H840 H 0.39748 0.90065 0.52459 0.0
O841 O 0.42824 0.9432 0.49344 0.0
O842 O 0.42504 0.94886 0.3861 0.0
H843 H 0.4015 0.92096 0.24902 0.0
H844 H 0.40213 0.90434 0.25005 0.0
C845 C 0.40701 0.91287 0.26528 0.0
H846 H 0.41598 0.9131 0.23851 0.0
H847 H 0.40871 0.94669 0.25501 0.0
O848 O 0.42929 0.92004 0.58727 0.0
C849 C 0.42588 0.95143 0.44933 0.0
Co850 Co 0.81878 0.67998 0.24969 0.0
Co851 Co 0.81249 0.68024 0.09278 0.0
C852 C 0.8201 0.70306 0.16616 0.0
O853 O 0.82067 0.69744 0.22305 0.0
O854 O 0.81735 0.6975 0.11104 0.0
C855 C 0.82772 0.68665 0.38323 0.0
O856 O 0.82943 0.69751 0.35542 0.0
C857 C 0.81705 0.68191 0.94416 0.0
C858 C 0.80065 0.67235 0.90364 0.0
C859 C 0.81138 0.67824 0.88394 0.0
N860 N 0.81002 0.67821 0.99693 0.0
N861 N 0.80024 0.67252 0.97223 0.0
C862 C 0.82855 0.6894 0.95137 0.0
H863 H 0.82927 0.69342 0.00312 0.0
H864 H 0.83671 0.68347 0.94299 0.0
H865 H 0.82873 0.69682 0.91244 0.0
C866 C 0.83695 0.66163 0.20226 0.0
N867 N 0.82772 0.66959 0.19045 0.0
N868 N 0.8247 0.66918 0.1254 0.0
C869 C 0.83175 0.66068 0.09405 0.0
C870 C 0.83983 0.65574 0.14147 0.0
C871 C 0.84317 0.66017 0.26993 0.0
H872 H 0.84462 0.66935 0.29343 0.0
H873 H 0.85216 0.65541 0.26495 0.0
H874 H 0.83711 0.65477 0.30432 0.0
O875 O 0.80117 0.67561 0.24752 0.0
O876 O 0.79641 0.6771 0.13758 0.0
H877 H 0.8203 0.65659 0.00763 0.0
H878 H 0.83398 0.64726 0.01349 0.0
C879 C 0.83018 0.65663 0.02153 0.0
H880 H 0.83514 0.66308 0.98747 0.0
H881 H 0.79326 0.66875 0.00227 0.0
O882 O 0.82385 0.67782 0.34635 0.0
C883 C 0.79335 0.67516 0.19936 0.0
Co884 Co 0.06668 0.07078 0.99093 0.0
Co885 Co 0.06761 0.06351 0.8357 0.0
C886 C 0.04466 0.07313 0.89901 0.0
O887 O 0.04986 0.07467 0.95668 0.0
O888 O 0.05043 0.06871 0.84812 0.0
C889 C 0.05898 0.07363 0.12618 0.0
O890 O 0.04902 0.06869 0.09967 0.0
C891 C 0.0651 0.06497 0.68604 0.0
C892 C 0.08088 0.05367 0.65219 0.0
C893 C 0.07133 0.06093 0.62833 0.0
N894 N 0.07089 0.06051 0.74142 0.0
N895 N 0.08024 0.05367 0.72077 0.0
C896 C 0.05353 0.07244 0.68923 0.0
H897 H 0.05545 0.08133 0.71509 0.0
H898 H 0.04957 0.07415 0.638 0.0
H899 H 0.04658 0.06745 0.72004 0.0
C900 C 0.08763 0.08638 0.9488 0.0
N901 N 0.07869 0.07818 0.93523 0.0
N902 N 0.0786 0.07574 0.86947 0.0
C903 C 0.08718 0.08275 0.83847 0.0
C904 C 0.0933 0.08963 0.88778 0.0
C905 C 0.09099 0.09043 0.01943 0.0
H906 H 0.09007 0.0826 0.05538 0.0
H907 H 0.08457 0.09779 0.03596 0.0
H908 H 0.10056 0.09395 0.02163 0.0
O909 O 0.06931 0.05288 0.99329 0.0
O910 O 0.06987 0.04758 0.88386 0.0
H911 H 0.09385 0.07564 0.74364 0.0
H912 H 0.09343 0.09225 0.74748 0.0
C913 C 0.08859 0.08369 0.76262 0.0
H914 H 0.07941 0.0837 0.7382 0.0
H915 H 0.08632 0.04918 0.75364 0.0
O916 O 0.06798 0.07612 0.08714 0.0
C917 C 0.07036 0.04478 0.94689 0.0
Co918 Co 0.68232 0.3175 0.74095 0.0
Co919 Co 0.68415 0.31822 0.58204 0.0
C920 C 0.67907 0.29485 0.65283 0.0
O921 O 0.67989 0.30023 0.71049 0.0
O922 O 0.68023 0.30072 0.59701 0.0
C923 C 0.67077 0.3133 0.87254 0.0
O924 O 0.66188 0.30778 0.839 0.0
C925 C 0.67887 0.316 0.435 0.0
C926 C 0.68755 0.33302 0.39602 0.0
C927 C 0.68078 0.32283 0.37615 0.0
N928 N 0.68422 0.32196 0.48733 0.0
N929 N 0.68948 0.33205 0.46357 0.0
C930 C 0.67114 0.30469 0.44291 0.0
H931 H 0.666 0.30506 0.4918 0.0
H932 H 0.66453 0.30371 0.40007 0.0
H933 H 0.67723 0.2965 0.44415 0.0
C934 C 0.66367 0.33685 0.71483 0.0
N935 N 0.67196 0.32845 0.69378 0.0
N936 N 0.67233 0.32837 0.62671 0.0
C937 C 0.6639 0.33636 0.60275 0.0
C938 C 0.65824 0.34213 0.65775 0.0
C939 C 0.66171 0.34031 0.78797 0.0
H940 H 0.6705 0.33965 0.81649 0.0
H941 H 0.65501 0.33384 0.81121 0.0
H942 H 0.65806 0.34981 0.7926 0.0
O943 O 0.69942 0.32231 0.7275 0.0
O944 O 0.70129 0.32151 0.61478 0.0
H945 H 0.66758 0.34353 0.5032 0.0
H946 H 0.6514 0.3419 0.52217 0.0
C947 C 0.66062 0.33768 0.52888 0.0
H948 H 0.66054 0.32852 0.50418 0.0
H949 H 0.69416 0.33842 0.49386 0.0
O950 O 0.67967 0.31809 0.83999 0.0
C951 C 0.70588 0.32324 0.67382 0.0
Co952 Co 0.43107 0.06572 0.50214 0.0
Co953 Co 0.4293 0.06291 0.66149 0.0
C954 C 0.45262 0.07055 0.59533 0.0
O955 O 0.44761 0.06997 0.53664 0.0
O956 O 0.44663 0.06818 0.64962 0.0
C957 C 0.43263 0.07863 0.37118 0.0
O958 O 0.43375 0.08898 0.40526 0.0
C959 C 0.43109 0.06541 0.81213 0.0
C960 C 0.41217 0.06024 0.84198 0.0
C961 C 0.42322 0.06451 0.86816 0.0
N962 N 0.42477 0.06223 0.75573 0.0
N963 N 0.41356 0.05893 0.77424 0.0
C964 C 0.44457 0.06828 0.81203 0.0
H965 H 0.44931 0.06268 0.77273 0.0
H966 H 0.44592 0.07815 0.79959 0.0
H967 H 0.44881 0.06623 0.86223 0.0
C968 C 0.40941 0.08205 0.52831 0.0
N969 N 0.41855 0.07451 0.54886 0.0
N970 N 0.41873 0.0742 0.61601 0.0
C971 C 0.41026 0.08213 0.64026 0.0
C972 C 0.40388 0.08716 0.58567 0.0
C973 C 0.40546 0.08361 0.45568 0.0
H974 H 0.40797 0.07537 0.42526 0.0
H975 H 0.41007 0.09179 0.43362 0.0
H976 H 0.39536 0.0851 0.4527 0.0
O977 O 0.42888 0.04807 0.51348 0.0
O978 O 0.42708 0.04577 0.62564 0.0
H979 H 0.40253 0.08013 0.74013 0.0
H980 H 0.40621 0.09571 0.7175 0.0
C981 C 0.40934 0.08601 0.71347 0.0
H982 H 0.4184 0.08517 0.73898 0.0
H983 H 0.40673 0.05608 0.74019 0.0
O984 O 0.43114 0.06853 0.40267 0.0
C985 C 0.42735 0.0413 0.56553 0.0
Co986 Co 0.67999 0.67937 0.25468 0.0
Co987 Co 0.68258 0.67779 0.41345 0.0
C988 C 0.67692 0.70151 0.3454 0.0
O989 O 0.67759 0.69655 0.28659 0.0
O990 O 0.67836 0.6953 0.39989 0.0
C991 C 0.66882 0.68428 0.12208 0.0
O992 O 0.66033 0.69055 0.15475 0.0
C993 C 0.67666 0.67957 0.55952 0.0
C994 C 0.68769 0.66426 0.60169 0.0
C995 C 0.67946 0.67344 0.61958 0.0
N996 N 0.68291 0.67419 0.50836 0.0
N997 N 0.68956 0.66512 0.534 0.0
C998 C 0.66758 0.68977 0.54974 0.0
H999 H 0.66288 0.68874 0.49977 0.0
H1000 H 0.66064 0.68986 0.59135 0.0
H1001 H 0.67255 0.69869 0.54972 0.0
C1002 C 0.66091 0.66039 0.28136 0.0
N1003 N 0.66971 0.66828 0.30215 0.0
N1004 N 0.67082 0.6676 0.36896 0.0
C1005 C 0.66262 0.65936 0.39292 0.0
C1006 C 0.65608 0.65455 0.3383 0.0
C1007 C 0.65692 0.6589 0.20875 0.0
H1008 H 0.65223 0.66744 0.19197 0.0
H1009 H 0.65047 0.65108 0.2023 0.0
H1010 H 0.6651 0.65751 0.17579 0.0
O1011 O 0.69728 0.67463 0.2667 0.0
O1012 O 0.69958 0.67479 0.37924 0.0
H1013 H 0.65451 0.64839 0.47404 0.0
H1014 H 0.65859 0.66399 0.49662 0.0
C1015 C 0.66137 0.65582 0.46643 0.0
H1016 H 0.67038 0.65254 0.48567 0.0
H1017 H 0.69522 0.65938 0.50501 0.0
O1018 O 0.67726 0.67885 0.15535 0.0
C1019 C 0.70396 0.67345 0.31946 0.0
Co1020 Co 0.0667 0.93197 0.99521 0.0
Co1021 Co 0.06756 0.93288 0.15463 0.0
C1022 C 0.04439 0.92717 0.08581 0.0
O1023 O 0.04968 0.92876 0.02839 0.0
O1024 O 0.05027 0.92803 0.14177 0.0
C1025 C 0.06416 0.91938 0.86541 0.0
O1026 O 0.06245 0.90926 0.90073 0.0
C1027 C 0.06577 0.93024 0.30514 0.0
C1028 C 0.08509 0.9339 0.33405 0.0
C1029 C 0.07377 0.93056 0.36079 0.0
N1030 N 0.07225 0.93288 0.24846 0.0
N1031 N 0.08372 0.93527 0.26638 0.0
C1032 C 0.0521 0.92852 0.30564 0.0
H1033 H 0.04781 0.93416 0.265 0.0
H1034 H 0.04993 0.9187 0.29564 0.0
H1035 H 0.04809 0.93129 0.35538 0.0
C1036 C 0.08714 0.91412 0.01792 0.0
N1037 N 0.0783 0.92189 0.03991 0.0
N1038 N 0.07788 0.92158 0.10699 0.0
C1039 C 0.08585 0.91301 0.12958 0.0
C1040 C 0.09218 0.90819 0.07413 0.0
C1041 C 0.09135 0.91318 0.94539 0.0
H1042 H 0.0893 0.92181 0.91744 0.0
H1043 H 0.08652 0.90543 0.92007 0.0
H1044 H 0.10139 0.91132 0.94314 0.0
O1045 O 0.07092 0.94917 0.00999 0.0
O1046 O 0.06988 0.95029 0.12302 0.0
H1047 H 0.09348 0.91356 0.23028 0.0
H1048 H 0.08884 0.8985 0.20288 0.0
C1049 C 0.08635 0.90841 0.20161 0.0
H1050 H 0.07732 0.90964 0.22698 0.0
H1051 H 0.09068 0.93759 0.23201 0.0
O1052 O 0.06638 0.92947 0.89572 0.0
C1053 C 0.07147 0.95532 0.06495 0.0
Co1054 Co 0.81999 0.31593 0.75847 0.0
Co1055 Co 0.81344 0.31647 0.91438 0.0
C1056 C 0.8213 0.29336 0.84812 0.0
O1057 O 0.82198 0.29866 0.79031 0.0
O1058 O 0.81836 0.29917 0.90202 0.0
C1059 C 0.82273 0.30805 0.62348 0.0
O1060 O 0.81731 0.29832 0.64968 0.0
C1061 C 0.81484 0.31397 0.06395 0.0
C1062 C 0.80393 0.33007 0.09737 0.0
C1063 C 0.81094 0.32035 0.12144 0.0
N1064 N 0.81055 0.31985 0.00845 0.0
N1065 N 0.80394 0.32938 0.02883 0.0
C1066 C 0.822 0.3022 0.06107 0.0
H1067 H 0.81687 0.29538 0.0301 0.0
H1068 H 0.83096 0.30388 0.03551 0.0
H1069 H 0.82355 0.29821 0.11238 0.0
C1070 C 0.83737 0.33534 0.80247 0.0
N1071 N 0.82854 0.32698 0.8154 0.0
N1072 N 0.82607 0.32697 0.88114 0.0
C1073 C 0.83355 0.33508 0.91259 0.0
C1074 C 0.84088 0.34074 0.86375 0.0
C1075 C 0.84178 0.33848 0.73222 0.0
H1076 H 0.83392 0.33848 0.69616 0.0
H1077 H 0.84843 0.33136 0.71515 0.0
H1078 H 0.84631 0.34763 0.73092 0.0
O1079 O 0.80253 0.32025 0.75678 0.0
O1080 O 0.79749 0.31944 0.8665 0.0
H1081 H 0.82629 0.34187 0.0068 0.0
H1082 H 0.84291 0.34141 0.00394 0.0
C1083 C 0.83437 0.33657 0.98844 0.0
H1084 H 0.8343 0.32741 0.01308 0.0
H1085 H 0.79961 0.33554 0.99579 0.0
O1086 O 0.82548 0.31697 0.66255 0.0
C1087 C 0.79459 0.32104 0.80413 0.0
C1088 C 0.06467 0.56686 0.7649 0.0
C1089 C 0.06201 0.57818 0.79612 0.0
C1090 C 0.06562 0.56584 0.69395 0.0
C1091 C 0.06403 0.57643 0.65293 0.0
C1092 C 0.06127 0.58789 0.68385 0.0
C1093 C 0.06021 0.58862 0.75529 0.0
C1094 C 0.06845 0.55341 0.66297 0.0
C1095 C 0.05965 0.59939 0.64157 0.0
C1096 C 0.07941 0.57309 0.48073 0.0
C1097 C 0.06951 0.56951 0.43954 0.0
C1098 C 0.07761 0.57618 0.54947 0.0
C1099 C 0.06566 0.57539 0.57788 0.0
C1100 C 0.05556 0.57216 0.53586 0.0
C1101 C 0.05761 0.56928 0.46695 0.0
C1102 C 0.0886 0.57971 0.59242 0.0
C1103 C 0.04271 0.57104 0.56454 0.0
H1104 H 0.06596 0.55871 0.796 0.0
H1105 H 0.05817 0.59739 0.77917 0.0
H1106 H 0.06129 0.55094 0.62499 0.0
H1107 H 0.07739 0.55377 0.63564 0.0
H1108 H 0.06893 0.546 0.70192 0.0
H1109 H 0.05719 0.60751 0.67321 0.0
H1110 H 0.06829 0.60142 0.61359 0.0
H1111 H 0.05234 0.59796 0.60283 0.0
H1112 H 0.08861 0.57332 0.45932 0.0
H1113 H 0.04998 0.56629 0.43539 0.0
H1114 H 0.09061 0.57226 0.62948 0.0
H1115 H 0.08661 0.58817 0.62216 0.0
H1116 H 0.09696 0.5813 0.56099 0.0
H1117 H 0.04227 0.563 0.59943 0.0
H1118 H 0.0357 0.56979 0.52385 0.0
H1119 H 0.04031 0.57932 0.59485 0.0
C1120 C 0.68371 0.82742 0.77131 0.0
C1121 C 0.67787 0.82043 0.72051 0.0
C1122 C 0.68057 0.82608 0.84028 0.0
C1123 C 0.67155 0.81734 0.85933 0.0
C1124 C 0.66553 0.81031 0.80847 0.0
C1125 C 0.66856 0.81216 0.73952 0.0
C1126 C 0.68699 0.83398 0.89283 0.0
C1127 C 0.656 0.80077 0.82695 0.0
C1128 C 0.67502 0.80674 0.0422 0.0
C1129 C 0.66589 0.81362 0.0752 0.0
C1130 C 0.67643 0.8073 0.97122 0.0
C1131 C 0.66884 0.81529 0.93282 0.0
C1132 C 0.65938 0.82204 0.96587 0.0
C1133 C 0.65789 0.82096 0.03689 0.0
C1134 C 0.68636 0.79966 0.93771 0.0
C1135 C 0.65134 0.83093 0.92698 0.0
H1136 H 0.69078 0.83398 0.75715 0.0
H1137 H 0.66345 0.80724 0.70081 0.0
H1138 H 0.6801 0.8388 0.92501 0.0
H1139 H 0.6926 0.82811 0.9271 0.0
H1140 H 0.69312 0.84096 0.86916 0.0
H1141 H 0.65236 0.79588 0.78141 0.0
H1142 H 0.66007 0.79389 0.8622 0.0
H1143 H 0.6482 0.80517 0.85412 0.0
H1144 H 0.68115 0.80102 0.07219 0.0
H1145 H 0.65093 0.82636 0.06291 0.0
H1146 H 0.69378 0.80578 0.91861 0.0
H1147 H 0.68257 0.79463 0.89314 0.0
H1148 H 0.69049 0.7929 0.97352 0.0
H1149 H 0.65704 0.83871 0.90829 0.0
H1150 H 0.64379 0.8347 0.95904 0.0
H1151 H 0.64726 0.8264 0.88161 0.0
C1152 C 0.4167 0.42216 0.97809 0.0
C1153 C 0.42652 0.4257 0.93621 0.0
C1154 C 0.4186 0.41938 0.04711 0.0
C1155 C 0.43057 0.42043 0.075 0.0
C1156 C 0.44061 0.42355 0.03223 0.0
C1157 C 0.43845 0.42615 0.96314 0.0
C1158 C 0.40768 0.41598 0.09093 0.0
C1159 C 0.45348 0.4249 0.06028 0.0
C1160 C 0.43162 0.43012 0.26019 0.0
C1161 C 0.43432 0.41901 0.29339 0.0
C1162 C 0.43063 0.43069 0.18912 0.0
C1163 C 0.43226 0.41986 0.15008 0.0
C1164 C 0.4351 0.40861 0.183 0.0
C1165 C 0.43617 0.40833 0.2545 0.0
C1166 C 0.42771 0.4429 0.1559 0.0
C1167 C 0.4368 0.39688 0.14281 0.0
H1168 H 0.40748 0.42177 0.95707 0.0
H1169 H 0.44601 0.42913 0.93109 0.0
H1170 H 0.40979 0.40773 0.12214 0.0
H1171 H 0.40561 0.42363 0.12667 0.0
H1172 H 0.39932 0.41411 0.05999 0.0
H1173 H 0.46045 0.42586 0.01913 0.0
H1174 H 0.45393 0.43318 0.09335 0.0
H1175 H 0.45592 0.41685 0.09231 0.0
H1176 H 0.43028 0.43844 0.28982 0.0
H1177 H 0.43824 0.39971 0.27994 0.0
H1178 H 0.41876 0.44231 0.12879 0.0
H1179 H 0.43483 0.4452 0.11739 0.0
H1180 H 0.42719 0.45055 0.19347 0.0
H1181 H 0.42814 0.39458 0.11565 0.0
H1182 H 0.43938 0.38898 0.17584 0.0
H1183 H 0.44403 0.39814 0.10348 0.0
C1184 C 0.82315 0.16577 0.24583 0.0
C1185 C 0.81951 0.17575 0.20543 0.0
C1186 C 0.82638 0.16743 0.31445 0.0
C1187 C 0.82567 0.17934 0.3436 0.0
C1188 C 0.8224 0.18952 0.3023 0.0
C1189 C 0.81939 0.1876 0.23343 0.0
C1190 C 0.82996 0.15636 0.35655 0.0
C1191 C 0.82136 0.20232 0.33175 0.0
C1192 C 0.81729 0.17992 0.53093 0.0
C1193 C 0.82862 0.18251 0.56203 0.0
C1194 C 0.81621 0.17913 0.45994 0.0
C1195 C 0.82677 0.18081 0.41873 0.0
C1196 C 0.83826 0.18348 0.44954 0.0
C1197 C 0.83904 0.18439 0.52104 0.0
C1198 C 0.80375 0.17639 0.42909 0.0
C1199 C 0.84972 0.18519 0.40706 0.0
H1200 H 0.82331 0.1566 0.22391 0.0
H1201 H 0.81638 0.19529 0.20242 0.0
H1202 H 0.83844 0.15829 0.3862 0.0
H1203 H 0.82254 0.15426 0.39366 0.0
H1204 H 0.83154 0.14807 0.3245 0.0
H1205 H 0.82012 0.20942 0.29149 0.0
H1206 H 0.81334 0.20273 0.3668 0.0
H1207 H 0.82966 0.20463 0.36205 0.0
H1208 H 0.80916 0.17857 0.56215 0.0
H1209 H 0.84782 0.18639 0.54482 0.0
H1210 H 0.80408 0.16751 0.40115 0.0
H1211 H 0.80126 0.18364 0.39167 0.0
H1212 H 0.79637 0.17584 0.4682 0.0
H1213 H 0.85171 0.1766 0.37838 0.0
H1214 H 0.85787 0.18755 0.43866 0.0
H1215 H 0.84827 0.19259 0.36891 0.0
C1216 C 0.08044 0.42432 0.5227 0.0
C1217 C 0.07035 0.42708 0.56442 0.0
C1218 C 0.07878 0.42086 0.45433 0.0
C1219 C 0.06675 0.42054 0.42655 0.0
C1220 C 0.05649 0.42303 0.4691 0.0
C1221 C 0.05842 0.42616 0.53787 0.0
C1222 C 0.08994 0.41803 0.41115 0.0
C1223 C 0.04355 0.42308 0.44111 0.0
C1224 C 0.06488 0.42782 0.2377 0.0
C1225 C 0.06276 0.4162 0.20888 0.0
C1226 C 0.06588 0.42935 0.30845 0.0
C1227 C 0.06505 0.41895 0.35165 0.0
C1228 C 0.06295 0.40715 0.32297 0.0
C1229 C 0.06166 0.40594 0.25178 0.0
C1230 C 0.06786 0.44213 0.3369 0.0
C1231 C 0.06229 0.39582 0.36735 0.0
H1232 H 0.08966 0.42498 0.5435 0.0
H1233 H 0.05063 0.42847 0.57 0.0
H1234 H 0.08856 0.40932 0.38257 0.0
H1235 H 0.0913 0.42546 0.37306 0.0
H1236 H 0.09845 0.41722 0.44226 0.0
H1237 H 0.03653 0.42412 0.48196 0.0
H1238 H 0.04251 0.43081 0.40454 0.0
H1239 H 0.04167 0.41445 0.41272 0.0
H1240 H 0.06559 0.43582 0.20483 0.0
H1241 H 0.06006 0.39693 0.2296 0.0
H1242 H 0.0769 0.44262 0.36308 0.0
H1243 H 0.06068 0.44428 0.37539 0.0
H1244 H 0.06762 0.44932 0.29663 0.0
H1245 H 0.0711 0.39465 0.39522 0.0
H1246 H 0.06045 0.38735 0.33729 0.0
H1247 H 0.05494 0.39689 0.4062 0.0
C1248 C 0.82302 0.81608 0.79561 0.0
C1249 C 0.81125 0.81987 0.81605 0.0
C1250 C 0.82572 0.81402 0.72651 0.0
C1251 C 0.81647 0.816 0.67688 0.0
C1252 C 0.80463 0.82005 0.69727 0.0
C1253 C 0.80218 0.82197 0.76668 0.0
C1254 C 0.83845 0.80977 0.70657 0.0
C1255 C 0.79454 0.82232 0.64577 0.0
C1256 C 0.82402 0.82186 0.49084 0.0
C1257 C 0.82071 0.8106 0.46103 0.0
C1258 C 0.8232 0.8236 0.56165 0.0
C1259 C 0.81904 0.81382 0.60345 0.0
C1260 C 0.81638 0.80223 0.57407 0.0
C1261 C 0.81722 0.80076 0.50314 0.0
C1262 C 0.82614 0.8361 0.59121 0.0
C1263 C 0.81206 0.79155 0.61714 0.0
H1264 H 0.83019 0.81493 0.83353 0.0
H1265 H 0.79312 0.82505 0.78249 0.0
H1266 H 0.83787 0.80095 0.67824 0.0
H1267 H 0.84276 0.8166 0.67191 0.0
H1268 H 0.84454 0.80847 0.75154 0.0
H1269 H 0.78588 0.82556 0.67004 0.0
H1270 H 0.79757 0.82932 0.60812 0.0
H1271 H 0.79256 0.81373 0.61715 0.0
H1272 H 0.82676 0.8295 0.45865 0.0
H1273 H 0.81476 0.79199 0.48053 0.0
H1274 H 0.83248 0.8352 0.63528 0.0
H1275 H 0.81755 0.84045 0.61028 0.0
H1276 H 0.83039 0.84234 0.55297 0.0
H1277 H 0.81836 0.79011 0.66094 0.0
H1278 H 0.81148 0.78285 0.58743 0.0
H1279 H 0.80281 0.79362 0.63832 0.0
C1280 C 0.42503 0.57619 0.74351 0.0
C1281 C 0.43698 0.57533 0.71682 0.0
C1282 C 0.42287 0.57514 0.8139 0.0
C1283 C 0.43293 0.57334 0.85872 0.0
C1284 C 0.44507 0.5732 0.83251 0.0
C1285 C 0.44695 0.57413 0.7618 0.0
C1286 C 0.40978 0.57527 0.83976 0.0
C1287 C 0.45605 0.5715 0.87882 0.0
C1288 C 0.42759 0.57714 0.04954 0.0
C1289 C 0.42634 0.56487 0.07069 0.0
C1290 C 0.42989 0.58007 0.98084 0.0
C1291 C 0.43068 0.57051 0.93196 0.0
C1292 C 0.42919 0.55812 0.95278 0.0
C1293 C 0.42706 0.55546 0.02179 0.0
C1294 C 0.43141 0.59338 0.96051 0.0
C1295 C 0.42984 0.54765 0.90212 0.0
H1296 H 0.41726 0.57714 0.70917 0.0
H1297 H 0.45623 0.57356 0.74165 0.0
H1298 H 0.40731 0.56599 0.859 0.0
H1299 H 0.40882 0.58179 0.88303 0.0
H1300 H 0.4031 0.57788 0.79935 0.0
H1301 H 0.4649 0.57286 0.85149 0.0
H1302 H 0.4556 0.57804 0.92224 0.0
H1303 H 0.45594 0.56206 0.90047 0.0
H1304 H 0.42653 0.58451 0.08608 0.0
H1305 H 0.42604 0.54596 0.03759 0.0
H1306 H 0.42408 0.59603 0.92394 0.0
H1307 H 0.44036 0.5947 0.93421 0.0
H1308 H 0.43101 0.5997 0.00507 0.0
H1309 H 0.42279 0.54894 0.86176 0.0
H1310 H 0.42834 0.53855 0.92651 0.0
H1311 H 0.43896 0.54759 0.87672 0.0
C1312 C 0.67469 0.19701 0.00698 0.0
C1313 C 0.67276 0.18706 0.96265 0.0
C1314 C 0.67568 0.19521 0.07768 0.0
C1315 C 0.67481 0.18315 0.10462 0.0
C1316 C 0.67225 0.17315 0.06053 0.0
C1317 C 0.67119 0.17523 0.99006 0.0
C1318 C 0.67822 0.20614 0.12318 0.0
C1319 C 0.67132 0.16015 0.08725 0.0
C1320 C 0.6927 0.1768 0.26713 0.0
C1321 C 0.68341 0.17703 0.31665 0.0
C1322 C 0.68999 0.17871 0.19798 0.0
C1323 C 0.67767 0.1809 0.17781 0.0
C1324 C 0.6682 0.18096 0.22746 0.0
C1325 C 0.67117 0.17887 0.29628 0.0
C1326 C 0.70035 0.17844 0.14651 0.0
C1327 C 0.65496 0.18323 0.20788 0.0
H1328 H 0.67581 0.20619 0.98627 0.0
H1329 H 0.66967 0.16748 0.9562 0.0
H1330 H 0.67175 0.20624 0.16698 0.0
H1331 H 0.68767 0.20543 0.1443 0.0
H1332 H 0.67741 0.21501 0.09536 0.0
H1333 H 0.66814 0.15358 0.0475 0.0
H1334 H 0.68047 0.1571 0.1058 0.0
H1335 H 0.66489 0.15972 0.13116 0.0
H1336 H 0.70216 0.17525 0.28261 0.0
H1337 H 0.66388 0.17852 0.33395 0.0
H1338 H 0.70099 0.18746 0.12023 0.0
H1339 H 0.69845 0.17139 0.10693 0.0
H1340 H 0.70939 0.17638 0.1704 0.0
H1341 H 0.65412 0.19224 0.1816 0.0
H1342 H 0.64872 0.18321 0.25281 0.0
H1343 H 0.65182 0.17606 0.17149 0.0
C1344 C 0.93898 0.42762 0.23929 0.0
C1345 C 0.93323 0.41795 0.20451 0.0
C1346 C 0.93826 0.42853 0.31046 0.0
C1347 C 0.93124 0.41979 0.34725 0.0
C1348 C 0.92568 0.4098 0.31238 0.0
C1349 C 0.92691 0.40889 0.24118 0.0
C1350 C 0.94464 0.4391 0.34594 0.0
C1351 C 0.91782 0.40052 0.34959 0.0
C1352 C 0.93438 0.41888 0.54032 0.0
C1353 C 0.92506 0.42705 0.56061 0.0
C1354 C 0.93655 0.41642 0.47099 0.0
C1355 C 0.92886 0.42181 0.42103 0.0
C1356 C 0.91908 0.42961 0.44131 0.0
C1357 C 0.91739 0.43223 0.51069 0.0
C1358 C 0.94718 0.40821 0.45115 0.0
C1359 C 0.91046 0.43529 0.38966 0.0
H1360 H 0.94394 0.43457 0.21058 0.0
H1361 H 0.92238 0.40149 0.21382 0.0
H1362 H 0.93767 0.44561 0.36622 0.0
H1363 H 0.95009 0.43568 0.38992 0.0
H1364 H 0.95087 0.44422 0.31108 0.0
H1365 H 0.91504 0.39274 0.31616 0.0
H1366 H 0.92278 0.39679 0.39447 0.0
H1367 H 0.90938 0.40511 0.36888 0.0
H1368 H 0.9399 0.41424 0.57831 0.0
H1369 H 0.91004 0.4384 0.52582 0.0
H1370 H 0.95358 0.4133 0.4172 0.0
H1371 H 0.94377 0.40014 0.42208 0.0
H1372 H 0.9524 0.40486 0.4962 0.0
H1373 H 0.91562 0.44178 0.35659 0.0
H1374 H 0.90277 0.44038 0.41419 0.0
H1375 H 0.90655 0.42805 0.35614 0.0
C1376 C 0.31937 0.18047 0.9744 0.0
C1377 C 0.33098 0.18257 0.94523 0.0
C1378 C 0.31787 0.17967 0.04518 0.0
C1379 C 0.32826 0.18081 0.08819 0.0
C1380 C 0.34002 0.18296 0.05933 0.0
C1381 C 0.34124 0.18391 0.988 0.0
C1382 C 0.30513 0.17753 0.07387 0.0
C1383 C 0.35132 0.18406 0.10371 0.0
C1384 C 0.32052 0.18797 0.2729 0.0
C1385 C 0.32 0.17613 0.30096 0.0
C1386 C 0.32378 0.18973 0.20422 0.0
C1387 C 0.32668 0.17939 0.16315 0.0
C1388 C 0.32668 0.16746 0.19231 0.0
C1389 C 0.3232 0.16597 0.2607 0.0
C1390 C 0.32346 0.20256 0.17472 0.0
C1391 C 0.32985 0.15622 0.15051 0.0
H1392 H 0.31136 0.17954 0.94182 0.0
H1393 H 0.35023 0.18551 0.96573 0.0
H1394 H 0.30486 0.16864 0.10161 0.0
H1395 H 0.30279 0.18487 0.11106 0.0
H1396 H 0.29794 0.17736 0.03353 0.0
H1397 H 0.35976 0.18596 0.07351 0.0
H1398 H 0.35006 0.19155 0.14158 0.0
H1399 H 0.35269 0.1754 0.13274 0.0
H1400 H 0.31785 0.19581 0.30377 0.0
H1401 H 0.32286 0.15682 0.28263 0.0
H1402 H 0.31571 0.2033 0.13807 0.0
H1403 H 0.33205 0.2045 0.14613 0.0
H1404 H 0.32227 0.2097 0.21476 0.0
H1405 H 0.32253 0.15456 0.11215 0.0
H1406 H 0.3308 0.14784 0.18256 0.0
H1407 H 0.33858 0.1577 0.12227 0.0
C1408 C 0.55016 0.57545 0.75216 0.0
C1409 C 0.56035 0.57535 0.70818 0.0
C1410 C 0.55169 0.57447 0.82304 0.0
C1411 C 0.56369 0.57332 0.85043 0.0
C1412 C 0.57403 0.57396 0.80667 0.0
C1413 C 0.57224 0.575 0.73603 0.0
C1414 C 0.54044 0.57397 0.86822 0.0
C1415 C 0.58698 0.57279 0.83397 0.0
C1416 C 0.56876 0.57624 0.04171 0.0
C1417 C 0.56886 0.56386 0.06184 0.0
C1418 C 0.56694 0.57952 0.97312 0.0
C1419 C 0.56536 0.57017 0.92359 0.0
C1420 C 0.56557 0.55765 0.9436 0.0
C1421 C 0.56733 0.55466 0.01243 0.0
C1422 C 0.56683 0.59295 0.95352 0.0
C1423 C 0.56398 0.54739 0.89223 0.0
H1424 H 0.54094 0.57583 0.73113 0.0
H1425 H 0.58017 0.57501 0.70247 0.0
H1426 H 0.53941 0.56455 0.88932 0.0
H1427 H 0.54147 0.58036 0.91205 0.0
H1428 H 0.53189 0.57637 0.8401 0.0
H1429 H 0.59402 0.5748 0.79441 0.0
H1430 H 0.5884 0.57911 0.8777 0.0
H1431 H 0.58847 0.56328 0.85289 0.0
H1432 H 0.57042 0.58339 0.079 0.0
H1433 H 0.56745 0.54507 0.02771 0.0
H1434 H 0.55819 0.59521 0.92606 0.0
H1435 H 0.57457 0.59491 0.91818 0.0
H1436 H 0.56766 0.59911 0.99858 0.0
H1437 H 0.55503 0.5484 0.86558 0.0
H1438 H 0.56433 0.53814 0.91626 0.0
H1439 H 0.57132 0.54794 0.85295 0.0
C1440 C 0.19119 0.8188 0.7497 0.0
C1441 C 0.18201 0.81784 0.7995 0.0
C1442 C 0.18846 0.81708 0.68041 0.0
C1443 C 0.17622 0.81442 0.6605 0.0
C1444 C 0.16686 0.81359 0.71056 0.0
C1445 C 0.16986 0.81542 0.77954 0.0
C1446 C 0.1987 0.8181 0.62852 0.0
C1447 C 0.15369 0.81084 0.69122 0.0
C1448 C 0.16915 0.8208 0.47414 0.0
C1449 C 0.17113 0.80918 0.44479 0.0
C1450 C 0.17026 0.82255 0.54487 0.0
C1451 C 0.17332 0.81244 0.58714 0.0
C1452 C 0.1746 0.80057 0.55824 0.0
C1453 C 0.17353 0.79909 0.48738 0.0
C1454 C 0.16883 0.83536 0.57381 0.0
C1455 C 0.1777 0.78952 0.60175 0.0
H1456 H 0.20057 0.82083 0.76509 0.0
H1457 H 0.16264 0.81516 0.81773 0.0
H1458 H 0.19964 0.80929 0.60028 0.0
H1459 H 0.19646 0.82534 0.5906 0.0
H1460 H 0.2077 0.82035 0.65238 0.0
H1461 H 0.14755 0.81032 0.73644 0.0
H1462 H 0.15018 0.81808 0.65641 0.0
H1463 H 0.1532 0.80197 0.66326 0.0
H1464 H 0.16728 0.82864 0.4416 0.0
H1465 H 0.17496 0.79006 0.46515 0.0
H1466 H 0.17789 0.83871 0.5923 0.0
H1467 H 0.16249 0.83527 0.61817 0.0
H1468 H 0.16528 0.84198 0.53537 0.0
H1469 H 0.18715 0.79054 0.62255 0.0
H1470 H 0.17724 0.78077 0.5725 0.0
H1471 H 0.17132 0.7889 0.64582 0.0
C1472 C 0.93163 0.56813 0.73708 0.0
C1473 C 0.93384 0.57943 0.76936 0.0
C1474 C 0.93073 0.56731 0.66601 0.0
C1475 C 0.93179 0.57811 0.62611 0.0
C1476 C 0.9341 0.58956 0.65823 0.0
C1477 C 0.93524 0.59007 0.7297 0.0
C1478 C 0.92849 0.55487 0.63373 0.0
C1479 C 0.93508 0.60128 0.61727 0.0
C1480 C 0.93802 0.57199 0.43874 0.0
C1481 C 0.92603 0.57151 0.41273 0.0
C1482 C 0.94013 0.57478 0.50772 0.0
C1483 C 0.93 0.57728 0.55108 0.0
C1484 C 0.91793 0.57748 0.52389 0.0
C1485 C 0.91608 0.57442 0.45516 0.0
C1486 C 0.95311 0.57425 0.53504 0.0
C1487 C 0.90691 0.5803 0.56816 0.0
H1488 H 0.93069 0.55985 0.76749 0.0
H1489 H 0.93691 0.59883 0.75461 0.0
H1490 H 0.91943 0.55483 0.60759 0.0
H1491 H 0.93562 0.55296 0.59456 0.0
H1492 H 0.92859 0.54729 0.67176 0.0
H1493 H 0.93733 0.60937 0.64966 0.0
H1494 H 0.94225 0.60033 0.57734 0.0
H1495 H 0.92623 0.60307 0.5908 0.0
H1496 H 0.9457 0.56954 0.4061 0.0
H1497 H 0.9068 0.5741 0.43476 0.0
H1498 H 0.95411 0.56608 0.56856 0.0
H1499 H 0.95515 0.58249 0.56647 0.0
H1500 H 0.96005 0.57361 0.49353 0.0
H1501 H 0.90534 0.57259 0.60424 0.0
H1502 H 0.8984 0.58165 0.53758 0.0
H1503 H 0.90858 0.5887 0.59899 0.0
C1504 C 0.17978 0.18206 0.50142 0.0
C1505 C 0.16828 0.1841 0.53202 0.0
C1506 C 0.18095 0.181 0.43056 0.0
C1507 C 0.17035 0.18187 0.38899 0.0
C1508 C 0.1587 0.18404 0.41927 0.0
C1509 C 0.15781 0.18521 0.49062 0.0
C1510 C 0.19356 0.17881 0.40029 0.0
C1511 C 0.1472 0.18491 0.37641 0.0
C1512 C 0.17728 0.18819 0.20256 0.0
C1513 C 0.17763 0.17623 0.17588 0.0
C1514 C 0.17429 0.19026 0.27132 0.0
C1515 C 0.17158 0.1801 0.31408 0.0
C1516 C 0.17144 0.16806 0.28654 0.0
C1517 C 0.17459 0.16626 0.21787 0.0
C1518 C 0.17469 0.20322 0.29901 0.0
C1519 C 0.16851 0.157 0.33033 0.0
H1520 H 0.18794 0.1813 0.53295 0.0
H1521 H 0.1489 0.18677 0.514 0.0
H1522 H 0.19375 0.16981 0.37363 0.0
H1523 H 0.19568 0.18601 0.36187 0.0
H1524 H 0.20094 0.17885 0.43957 0.0
H1525 H 0.13891 0.18701 0.40752 0.0
H1526 H 0.14828 0.19217 0.33705 0.0
H1527 H 0.14567 0.17609 0.34916 0.0
H1528 H 0.17988 0.19589 0.17053 0.0
H1529 H 0.17482 0.15701 0.19712 0.0
H1530 H 0.18264 0.20418 0.33415 0.0
H1531 H 0.16625 0.20525 0.32883 0.0
H1532 H 0.1756 0.21018 0.25782 0.0
H1533 H 0.17601 0.15556 0.36794 0.0
H1534 H 0.16748 0.14846 0.29962 0.0
H1535 H 0.1599 0.15857 0.35948 0.0
C1536 C 0.57208 0.44234 0.00781 0.0
C1537 C 0.56981 0.43322 0.95892 0.0
C1538 C 0.56985 0.44015 0.0772 0.0
C1539 C 0.56532 0.42852 0.09805 0.0
C1540 C 0.56316 0.41921 0.04893 0.0
C1541 C 0.56556 0.42165 0.97986 0.0
C1542 C 0.57236 0.45027 0.12818 0.0
C1543 C 0.55838 0.4067 0.06936 0.0
C1544 C 0.57046 0.421 0.28474 0.0
C1545 C 0.55925 0.42473 0.31369 0.0
C1546 C 0.57241 0.42172 0.21409 0.0
C1547 C 0.56289 0.42619 0.17148 0.0
C1548 C 0.55134 0.42932 0.19998 0.0
C1549 C 0.54966 0.42858 0.27083 0.0
C1550 C 0.58486 0.41829 0.18552 0.0
C1551 C 0.54092 0.43398 0.15599 0.0
H1552 H 0.57551 0.45125 0.99164 0.0
H1553 H 0.56428 0.41442 0.94239 0.0
H1554 H 0.56377 0.45263 0.15593 0.0
H1555 H 0.57914 0.44709 0.16663 0.0
H1556 H 0.57597 0.45875 0.10359 0.0
H1557 H 0.55694 0.40057 0.02469 0.0
H1558 H 0.56495 0.40221 0.10476 0.0
H1559 H 0.54952 0.40768 0.09703 0.0
H1560 H 0.57791 0.41797 0.31749 0.0
H1561 H 0.54094 0.43138 0.29276 0.0
H1562 H 0.58951 0.42667 0.16594 0.0
H1563 H 0.58383 0.41185 0.14197 0.0
H1564 H 0.59089 0.41396 0.22447 0.0
H1565 H 0.5434 0.44309 0.1344 0.0
H1566 H 0.5322 0.43497 0.1851 0.0
H1567 H 0.53933 0.42765 0.11246 0.0
C1568 C 0.31391 0.81759 0.01351 0.0
C1569 C 0.32469 0.81428 0.04828 0.0
C1570 C 0.31361 0.81817 0.94226 0.0
C1571 C 0.32441 0.81552 0.90466 0.0
C1572 C 0.33533 0.8121 0.9392 0.0
C1573 C 0.33533 0.81145 0.01085 0.0
C1574 C 0.30174 0.82176 0.90729 0.0
C1575 C 0.34702 0.80933 0.90055 0.0
C1576 C 0.31795 0.80873 0.71861 0.0
C1577 C 0.31917 0.82047 0.68997 0.0
C1578 C 0.3204 0.80676 0.78806 0.0
C1579 C 0.32417 0.81679 0.82929 0.0
C1580 C 0.32608 0.8285 0.79952 0.0
C1581 C 0.32343 0.83022 0.73024 0.0
C1582 C 0.31813 0.79418 0.81815 0.0
C1583 C 0.33021 0.83939 0.84163 0.0
H1584 H 0.30562 0.81968 0.04201 0.0
H1585 H 0.34369 0.80891 0.03752 0.0
H1586 H 0.30305 0.83046 0.8786 0.0
H1587 H 0.29904 0.81457 0.86991 0.0
H1588 H 0.29404 0.82306 0.94397 0.0
H1589 H 0.35462 0.80642 0.93484 0.0
H1590 H 0.34536 0.80195 0.8625 0.0
H1591 H 0.35 0.81763 0.87196 0.0
H1592 H 0.31445 0.80123 0.68768 0.0
H1593 H 0.32443 0.83929 0.70782 0.0
H1594 H 0.30973 0.79446 0.8503 0.0
H1595 H 0.3259 0.7914 0.8515 0.0
H1596 H 0.31685 0.78705 0.77809 0.0
H1597 H 0.32264 0.84227 0.87614 0.0
H1598 H 0.33282 0.84737 0.80933 0.0
H1599 H 0.33819 0.83685 0.87407 0.0
C1600 C 0.55867 0.07056 0.95424 0.0
C1601 C 0.57069 0.06979 0.92875 0.0
C1602 C 0.5565 0.07352 0.02299 0.0
C1603 C 0.56659 0.07593 0.06677 0.0
C1604 C 0.57872 0.07569 0.04028 0.0
C1605 C 0.58063 0.07245 0.97177 0.0
C1606 C 0.54345 0.07342 0.04955 0.0
C1607 C 0.58972 0.0784 0.08494 0.0
C1608 C 0.56103 0.09022 0.24181 0.0
C1609 C 0.56193 0.07987 0.28422 0.0
C1610 C 0.56249 0.08913 0.17068 0.0
C1611 C 0.56462 0.07738 0.14153 0.0
C1612 C 0.56523 0.06688 0.18415 0.0
C1613 C 0.56401 0.06828 0.25487 0.0
C1614 C 0.562 0.10054 0.12689 0.0
C1615 C 0.56727 0.05415 0.15513 0.0
H1616 H 0.551 0.06828 0.92125 0.0
H1617 H 0.58993 0.0719 0.95188 0.0
H1618 H 0.54227 0.0656 0.08543 0.0
H1619 H 0.54148 0.08198 0.07836 0.0
H1620 H 0.53659 0.07247 0.00788 0.0
H1621 H 0.59836 0.07921 0.05492 0.0
H1622 H 0.58827 0.08708 0.11373 0.0
H1623 H 0.59089 0.07091 0.12286 0.0
H1624 H 0.55947 0.0992 0.26435 0.0
H1625 H 0.56458 0.06022 0.28731 0.0
H1626 H 0.55484 0.09953 0.08698 0.0
H1627 H 0.57094 0.10178 0.10032 0.0
H1628 H 0.56001 0.10895 0.15718 0.0
H1629 H 0.56021 0.05211 0.11581 0.0
H1630 H 0.56687 0.04688 0.19495 0.0
H1631 H 0.57639 0.05369 0.12984 0.0
C1632 C 0.17372 0.32966 0.22398 0.0
C1633 C 0.17683 0.31961 0.18278 0.0
C1634 C 0.17066 0.32802 0.29282 0.0
C1635 C 0.17107 0.31606 0.32139 0.0
C1636 C 0.17371 0.3058 0.27917 0.0
C1637 C 0.17648 0.3077 0.20999 0.0
C1638 C 0.16765 0.33916 0.3358 0.0
C1639 C 0.17447 0.29294 0.30798 0.0
C1640 C 0.18065 0.31537 0.50687 0.0
C1641 C 0.16947 0.31304 0.54013 0.0
C1642 C 0.1813 0.31602 0.43567 0.0
C1643 C 0.17043 0.31457 0.39665 0.0
C1644 C 0.1591 0.31217 0.42979 0.0
C1645 C 0.15877 0.3113 0.50139 0.0
C1646 C 0.19362 0.31836 0.40229 0.0
C1647 C 0.14731 0.31082 0.38977 0.0
H1648 H 0.17393 0.33887 0.20257 0.0
H1649 H 0.17905 0.29995 0.17817 0.0
H1650 H 0.15936 0.33743 0.36744 0.0
H1651 H 0.17541 0.34109 0.37107 0.0
H1652 H 0.16603 0.34749 0.30415 0.0
H1653 H 0.1751 0.28585 0.26724 0.0
H1654 H 0.18273 0.29218 0.34097 0.0
H1655 H 0.16633 0.29093 0.34027 0.0
H1656 H 0.18898 0.31658 0.5366 0.0
H1657 H 0.15011 0.30953 0.52709 0.0
H1658 H 0.19343 0.3273 0.37503 0.0
H1659 H 0.19558 0.31111 0.36389 0.0
H1660 H 0.20128 0.31856 0.4398 0.0
H1661 H 0.14531 0.31952 0.36229 0.0
H1662 H 0.13933 0.30856 0.42299 0.0
H1663 H 0.1483 0.3035 0.35071 0.0
C1664 C 0.92542 0.94183 0.46872 0.0
C1665 C 0.92705 0.93258 0.41983 0.0
C1666 C 0.92763 0.93954 0.53804 0.0
C1667 C 0.9315 0.92767 0.55886 0.0
C1668 C 0.93301 0.91824 0.50975 0.0
C1669 C 0.93065 0.92078 0.44075 0.0
C1670 C 0.92584 0.94982 0.58898 0.0
C1671 C 0.93706 0.90546 0.53011 0.0
C1672 C 0.9474 0.92683 0.731 0.0
C1673 C 0.93767 0.92354 0.77436 0.0
C1674 C 0.94566 0.92766 0.6602 0.0
C1675 C 0.9339 0.92522 0.63226 0.0
C1676 C 0.9242 0.92133 0.67538 0.0
C1677 C 0.92621 0.92048 0.74594 0.0
C1678 C 0.95628 0.93167 0.61568 0.0
C1679 C 0.91152 0.91867 0.64747 0.0
H1680 H 0.92249 0.95092 0.45258 0.0
H1681 H 0.93144 0.91348 0.40329 0.0
H1682 H 0.91894 0.94707 0.62783 0.0
H1683 H 0.93459 0.95166 0.61626 0.0
H1684 H 0.92271 0.95849 0.56444 0.0
H1685 H 0.93806 0.89924 0.48545 0.0
H1686 H 0.94601 0.90592 0.5573 0.0
H1687 H 0.93029 0.90139 0.56592 0.0
H1688 H 0.9563 0.92911 0.75251 0.0
H1689 H 0.91865 0.9179 0.77907 0.0
H1690 H 0.95432 0.94091 0.59415 0.0
H1691 H 0.95741 0.92524 0.57212 0.0
H1692 H 0.96508 0.93213 0.64436 0.0
H1693 H 0.90736 0.92731 0.62802 0.0
H1694 H 0.90529 0.91472 0.68676 0.0
H1695 H 0.91209 0.91216 0.60394 0.0
C1696 C 0.32603 0.67866 0.71673 0.0
C1697 C 0.31366 0.67805 0.69647 0.0
C1698 C 0.32921 0.68054 0.78541 0.0
C1699 C 0.31979 0.68162 0.83491 0.0
C1700 C 0.3073 0.68083 0.81483 0.0
C1701 C 0.3044 0.67904 0.74589 0.0
C1702 C 0.34262 0.68128 0.80508 0.0
C1703 C 0.29697 0.68186 0.86621 0.0
C1704 C 0.32503 0.67502 0.02239 0.0
C1705 C 0.32478 0.68692 0.05021 0.0
C1706 C 0.32404 0.67316 0.95178 0.0
C1707 C 0.32285 0.68346 0.90804 0.0
C1708 C 0.3234 0.6955 0.93539 0.0
C1709 C 0.32434 0.69709 0.00625 0.0
C1710 C 0.3235 0.66017 0.9245 0.0
C1711 C 0.32232 0.70671 0.89021 0.0
H1712 H 0.33325 0.67739 0.67941 0.0
H1713 H 0.29483 0.67851 0.73053 0.0
H1714 H 0.34447 0.69005 0.83224 0.0
H1715 H 0.34493 0.67369 0.84071 0.0
H1716 H 0.34882 0.68069 0.7601 0.0
H1717 H 0.28775 0.681 0.84219 0.0
H1718 H 0.29792 0.67457 0.9055 0.0
H1719 H 0.29749 0.69086 0.89285 0.0
H1720 H 0.32545 0.6671 0.05596 0.0
H1721 H 0.32426 0.70632 0.02727 0.0
H1722 H 0.32986 0.65906 0.88065 0.0
H1723 H 0.31406 0.6582 0.90576 0.0
H1724 H 0.32589 0.65324 0.96403 0.0
H1725 H 0.32876 0.70601 0.84642 0.0
H1726 H 0.32426 0.71537 0.91833 0.0
H1727 H 0.31286 0.70724 0.86905 0.0
C1728 C 0.57936 0.922 0.02863 0.0
C1729 C 0.56939 0.92547 0.06964 0.0
C1730 C 0.57765 0.91895 0.95982 0.0
C1731 C 0.56571 0.91964 0.93118 0.0
C1732 C 0.55553 0.92269 0.9731 0.0
C1733 C 0.5575 0.92556 0.04209 0.0
C1734 C 0.58871 0.9156 0.91698 0.0
C1735 C 0.54269 0.9237 0.9442 0.0
C1736 C 0.56487 0.92873 0.74507 0.0
C1737 C 0.56238 0.91748 0.71272 0.0
C1738 C 0.56571 0.92954 0.81612 0.0
C1739 C 0.56418 0.91881 0.85605 0.0
C1740 C 0.56159 0.90741 0.82398 0.0
C1741 C 0.56063 0.90689 0.75245 0.0
C1742 C 0.56835 0.9419 0.84838 0.0
C1743 C 0.56003 0.89577 0.86511 0.0
H1744 H 0.58855 0.92188 0.05019 0.0
H1745 H 0.54982 0.92845 0.07354 0.0
H1746 H 0.58682 0.90722 0.88641 0.0
H1747 H 0.59071 0.92318 0.88067 0.0
H1748 H 0.59704 0.91398 0.94859 0.0
H1749 H 0.53563 0.92469 0.98484 0.0
H1750 H 0.54215 0.93185 0.91019 0.0
H1751 H 0.54045 0.91549 0.91294 0.0
H1752 H 0.56611 0.93698 0.71478 0.0
H1753 H 0.55873 0.89818 0.72765 0.0
H1754 H 0.57725 0.94156 0.87599 0.0
H1755 H 0.56111 0.94418 0.88631 0.0
H1756 H 0.56879 0.94944 0.81015 0.0
H1757 H 0.56867 0.89373 0.89311 0.0
H1758 H 0.55769 0.88772 0.83263 0.0
H1759 H 0.55268 0.89701 0.9038 0.0
C1760 C 0.32628 0.31476 0.28246 0.0
C1761 C 0.31449 0.31842 0.30333 0.0
C1762 C 0.32892 0.31279 0.21325 0.0
C1763 C 0.31959 0.31475 0.16406 0.0
C1764 C 0.30774 0.31865 0.1849 0.0
C1765 C 0.30535 0.32048 0.25439 0.0
C1766 C 0.34167 0.30868 0.19274 0.0
C1767 C 0.29757 0.3209 0.13381 0.0
C1768 C 0.32668 0.32098 0.97813 0.0
C1769 C 0.32335 0.30975 0.94803 0.0
C1770 C 0.32607 0.32258 0.04905 0.0
C1771 C 0.3221 0.31269 0.09058 0.0
C1772 C 0.31945 0.30112 0.06086 0.0
C1773 C 0.32009 0.2998 0.98983 0.0
C1774 C 0.32898 0.33505 0.07905 0.0
C1775 C 0.31533 0.29033 0.1037 0.0
H1776 H 0.3335 0.31365 0.32011 0.0
H1777 H 0.29627 0.32344 0.27061 0.0
H1778 H 0.34114 0.2999 0.164 0.0
H1779 H 0.34588 0.3156 0.1583 0.0
H1780 H 0.34781 0.30736 0.23747 0.0
H1781 H 0.28891 0.32402 0.15847 0.0
H1782 H 0.30049 0.32797 0.09632 0.0
H1783 H 0.29564 0.31232 0.10494 0.0
H1784 H 0.32926 0.3287 0.94613 0.0
H1785 H 0.31762 0.29105 0.96694 0.0
H1786 H 0.33537 0.33412 0.12288 0.0
H1787 H 0.32039 0.33932 0.09856 0.0
H1788 H 0.33316 0.34136 0.04093 0.0
H1789 H 0.3217 0.28893 0.14722 0.0
H1790 H 0.31482 0.28167 0.07368 0.0
H1791 H 0.30608 0.29226 0.12528 0.0
C1792 C 0.91768 0.07573 0.52494 0.0
C1793 C 0.92764 0.07165 0.56418 0.0
C1794 C 0.91921 0.07874 0.45597 0.0
C1795 C 0.93093 0.07734 0.42539 0.0
C1796 C 0.94114 0.07373 0.46565 0.0
C1797 C 0.93937 0.07097 0.5349 0.0
C1798 C 0.90813 0.08272 0.41499 0.0
C1799 C 0.95373 0.07197 0.43463 0.0
C1800 C 0.93026 0.06785 0.23989 0.0
C1801 C 0.9333 0.07885 0.20644 0.0
C1802 C 0.92969 0.06725 0.31108 0.0
C1803 C 0.93207 0.07795 0.35002 0.0
C1804 C 0.93516 0.08911 0.31683 0.0
C1805 C 0.93581 0.08941 0.24518 0.0
C1806 C 0.92647 0.05513 0.34456 0.0
C1807 C 0.93761 0.10071 0.35693 0.0
H1808 H 0.90862 0.07632 0.54794 0.0
H1809 H 0.94703 0.06764 0.56517 0.0
H1810 H 0.91038 0.0909 0.38347 0.0
H1811 H 0.90541 0.07522 0.37966 0.0
H1812 H 0.90013 0.08496 0.44806 0.0
H1813 H 0.96095 0.07067 0.47413 0.0
H1814 H 0.95364 0.06375 0.40106 0.0
H1815 H 0.95625 0.07999 0.40251 0.0
H1816 H 0.9284 0.05961 0.21039 0.0
H1817 H 0.93815 0.09794 0.21955 0.0
H1818 H 0.91777 0.05608 0.37371 0.0
H1819 H 0.93377 0.05248 0.38133 0.0
H1820 H 0.92534 0.04757 0.30692 0.0
H1821 H 0.9293 0.10326 0.38669 0.0
H1822 H 0.94015 0.10857 0.32352 0.0
H1823 H 0.94515 0.09914 0.39406 0.0
C1824 C 0.17821 0.69579 0.48585 0.0
C1825 C 0.17492 0.68586 0.44394 0.0
C1826 C 0.1785 0.69452 0.55695 0.0
C1827 C 0.17545 0.68304 0.58651 0.0
C1828 C 0.1714 0.67321 0.54477 0.0
C1829 C 0.17116 0.67475 0.47381 0.0
C1830 C 0.18273 0.70523 0.60009 0.0
C1831 C 0.16804 0.66085 0.57465 0.0
C1832 C 0.19155 0.67461 0.75098 0.0
C1833 C 0.18232 0.67682 0.79924 0.0
C1834 C 0.18941 0.67666 0.68151 0.0
C1835 C 0.17772 0.68093 0.66004 0.0
C1836 C 0.16832 0.68308 0.70855 0.0
C1837 C 0.17071 0.68089 0.7778 0.0
C1838 C 0.19965 0.67422 0.63109 0.0
C1839 C 0.15575 0.68757 0.68726 0.0
H1840 H 0.181 0.70444 0.46309 0.0
H1841 H 0.16851 0.66707 0.4417 0.0
H1842 H 0.17629 0.70677 0.64321 0.0
H1843 H 0.19189 0.70313 0.62226 0.0
H1844 H 0.18347 0.71388 0.5701 0.0
H1845 H 0.1638 0.65464 0.53621 0.0
H1846 H 0.17644 0.65634 0.59496 0.0
H1847 H 0.16155 0.66198 0.61787 0.0
H1848 H 0.20048 0.67134 0.76773 0.0
H1849 H 0.16344 0.68216 0.815 0.0
H1850 H 0.20182 0.68275 0.60243 0.0
H1851 H 0.19667 0.66721 0.59335 0.0
H1852 H 0.20819 0.67091 0.65631 0.0
H1853 H 0.1566 0.69631 0.65843 0.0
H1854 H 0.14956 0.6891 0.73162 0.0
H1855 H 0.15139 0.68076 0.65267 0.0
C1856 C 0.42476 0.94202 0.00717 0.0
C1857 C 0.4266 0.9329 0.05657 0.0
C1858 C 0.42671 0.93956 0.93773 0.0
C1859 C 0.43055 0.92766 0.91725 0.0
C1860 C 0.43225 0.91835 0.96686 0.0
C1861 C 0.43013 0.92105 0.03596 0.0
C1862 C 0.42469 0.94971 0.8863 0.0
C1863 C 0.4363 0.90555 0.94694 0.0
C1864 C 0.42505 0.91992 0.73072 0.0
C1865 C 0.43646 0.92294 0.70163 0.0
C1866 C 0.42311 0.92098 0.80133 0.0
C1867 C 0.43283 0.92506 0.84379 0.0
C1868 C 0.44454 0.9275 0.81515 0.0
C1869 C 0.4462 0.92645 0.74438 0.0
C1870 C 0.41048 0.91833 0.82995 0.0
C1871 C 0.45518 0.93172 0.85888 0.0
H1872 H 0.42187 0.95114 0.02299 0.0
H1873 H 0.43105 0.91383 0.07374 0.0
H1874 H 0.43337 0.95159 0.85836 0.0
H1875 H 0.41774 0.9468 0.84806 0.0
H1876 H 0.42151 0.9584 0.91052 0.0
H1877 H 0.43739 0.89941 0.99187 0.0
H1878 H 0.42947 0.90139 0.91174 0.0
H1879 H 0.44519 0.90598 0.91923 0.0
H1880 H 0.41747 0.9172 0.69805 0.0
H1881 H 0.45507 0.92871 0.72237 0.0
H1882 H 0.4063 0.927 0.84896 0.0
H1883 H 0.41114 0.91194 0.87394 0.0
H1884 H 0.40422 0.91425 0.79122 0.0
H1885 H 0.45316 0.94097 0.88004 0.0
H1886 H 0.46394 0.93221 0.82973 0.0
H1887 H 0.45646 0.92538 0.90271 0.0
C1888 C 0.80655 0.68276 0.76256 0.0
C1889 C 0.81537 0.68012 0.81256 0.0
C1890 C 0.80988 0.68396 0.6938 0.0
C1891 C 0.82234 0.68234 0.67444 0.0
C1892 C 0.83132 0.67973 0.72474 0.0
C1893 C 0.82771 0.67862 0.79334 0.0
C1894 C 0.80003 0.68681 0.64174 0.0
C1895 C 0.84465 0.67782 0.70588 0.0
C1896 C 0.8261 0.67367 0.48831 0.0
C1897 C 0.82836 0.68517 0.4583 0.0
C1898 C 0.8248 0.67249 0.55924 0.0
C1899 C 0.82576 0.68307 0.6011 0.0
C1900 C 0.82879 0.69457 0.57154 0.0
C1901 C 0.83008 0.69547 0.50045 0.0
C1902 C 0.8217 0.66005 0.58892 0.0
C1903 C 0.82994 0.70605 0.61454 0.0
H1904 H 0.797 0.68389 0.77731 0.0
H1905 H 0.8345 0.67615 0.83135 0.0
H1906 H 0.80247 0.69526 0.61304 0.0
H1907 H 0.79938 0.67918 0.60425 0.0
H1908 H 0.79084 0.68814 0.6655 0.0
H1909 H 0.8506 0.67654 0.75146 0.0
H1910 H 0.84553 0.66959 0.67274 0.0
H1911 H 0.84811 0.68581 0.67631 0.0
H1912 H 0.82487 0.66564 0.45619 0.0
H1913 H 0.8319 0.70439 0.47779 0.0
H1914 H 0.81208 0.66011 0.60786 0.0
H1915 H 0.82775 0.65798 0.63305 0.0
H1916 H 0.82265 0.65254 0.55075 0.0
H1917 H 0.82076 0.70862 0.63481 0.0
H1918 H 0.83364 0.71395 0.58498 0.0
H1919 H 0.83604 0.70435 0.65896 0.0
C1920 C 0.07018 0.05472 0.50637 0.0
C1921 C 0.06905 0.06393 0.55594 0.0
C1922 C 0.06841 0.05737 0.43705 0.0
C1923 C 0.06554 0.06956 0.41692 0.0
C1924 C 0.06455 0.07894 0.46676 0.0
C1925 C 0.06642 0.07602 0.53577 0.0
C1926 C 0.0696 0.04712 0.38536 0.0
C1927 C 0.06158 0.09205 0.44715 0.0
C1928 C 0.0719 0.0766 0.23063 0.0
C1929 C 0.06033 0.07444 0.20119 0.0
C1930 C 0.07364 0.07556 0.30137 0.0
C1931 C 0.06355 0.07237 0.34354 0.0
C1932 C 0.05171 0.0709 0.31457 0.0
C1933 C 0.05025 0.07191 0.24369 0.0
C1934 C 0.0864 0.07721 0.33044 0.0
C1935 C 0.0407 0.06764 0.35801 0.0
H1936 H 0.07237 0.0454 0.52196 0.0
H1937 H 0.06603 0.08325 0.57383 0.0
H1938 H 0.06083 0.04603 0.35706 0.0
H1939 H 0.07683 0.04944 0.34746 0.0
H1940 H 0.07198 0.03817 0.40941 0.0
H1941 H 0.06094 0.09821 0.49224 0.0
H1942 H 0.06876 0.09566 0.41229 0.0
H1943 H 0.05271 0.09237 0.41914 0.0
H1944 H 0.07973 0.07858 0.19816 0.0
H1945 H 0.04125 0.07034 0.22139 0.0
H1946 H 0.08988 0.06823 0.34922 0.0
H1947 H 0.08619 0.08359 0.37462 0.0
H1948 H 0.09299 0.08083 0.292 0.0
H1949 H 0.04186 0.05823 0.379 0.0
H1950 H 0.03195 0.06795 0.32866 0.0
H1951 H 0.03995 0.07404 0.40195 0.0
C1952 C 0.66022 0.31093 0.98573 0.0
C1953 C 0.6708 0.31378 0.94788 0.0
C1954 C 0.6603 0.31163 0.05738 0.0
C1955 C 0.67125 0.31512 0.09147 0.0
C1956 C 0.68199 0.31778 0.05343 0.0
C1957 C 0.68161 0.31715 0.98221 0.0
C1958 C 0.64867 0.30885 0.0965 0.0
C1959 C 0.6939 0.32143 0.0879 0.0
C1960 C 0.67231 0.33001 0.26549 0.0
C1961 C 0.67662 0.32031 0.30597 0.0
C1962 C 0.66963 0.3282 0.1963 0.0
C1963 C 0.67157 0.31647 0.16679 0.0
C1964 C 0.67541 0.3065 0.2082 0.0
C1965 C 0.67788 0.30855 0.27757 0.0
C1966 C 0.66543 0.33903 0.15398 0.0
C1967 C 0.67771 0.2939 0.17839 0.0
H1968 H 0.65184 0.30834 0.9594 0.0
H1969 H 0.68986 0.31926 0.95337 0.0
H1970 H 0.65041 0.30153 0.13476 0.0
H1971 H 0.64567 0.31716 0.12487 0.0
H1972 H 0.64105 0.30585 0.06255 0.0
H1973 H 0.70154 0.32271 0.05093 0.0
H1974 H 0.69259 0.33016 0.11637 0.0
H1975 H 0.69665 0.3143 0.12541 0.0
H1976 H 0.67128 0.33909 0.28771 0.0
H1977 H 0.68143 0.3011 0.30862 0.0
H1978 H 0.65742 0.33644 0.12192 0.0
H1979 H 0.67295 0.34189 0.11909 0.0
H1980 H 0.66285 0.34706 0.18611 0.0
H1981 H 0.66992 0.29104 0.14541 0.0
H1982 H 0.67908 0.28682 0.2186 0.0
H1983 H 0.68607 0.29418 0.14591 0.0
C1984 C 0.42549 0.08674 0.25903 0.0
C1985 C 0.43275 0.0785 0.29625 0.0
C1986 C 0.42429 0.0855 0.18794 0.0
C1987 C 0.43084 0.07603 0.15373 0.0
C1988 C 0.43876 0.06819 0.19104 0.0
C1989 C 0.43944 0.06937 0.2621 0.0
C1990 C 0.41548 0.0938 0.15022 0.0
C1991 C 0.44618 0.05824 0.15625 0.0
C1992 C 0.4183 0.06181 0.99146 0.0
C1993 C 0.42536 0.06764 0.94098 0.0
C1994 C 0.41974 0.06476 0.06062 0.0
C1995 C 0.42865 0.07358 0.08012 0.0
C1996 C 0.43572 0.07963 0.02959 0.0
C1997 C 0.43378 0.07679 0.96048 0.0
C1998 C 0.41178 0.05833 0.11288 0.0
C1999 C 0.44543 0.08896 0.04857 0.0
H2000 H 0.42024 0.09371 0.28592 0.0
H2001 H 0.44511 0.06306 0.29124 0.0
H2002 H 0.42001 0.09792 0.10495 0.0
H2003 H 0.40757 0.0883 0.13147 0.0
H2004 H 0.41191 0.10133 0.18311 0.0
H2005 H 0.45292 0.05388 0.19137 0.0
H2006 H 0.43992 0.05099 0.13666 0.0
H2007 H 0.45122 0.06209 0.11187 0.0
H2008 H 0.41163 0.05487 0.97693 0.0
H2009 H 0.43876 0.0819 0.92203 0.0
H2010 H 0.40714 0.06521 0.14591 0.0
H2011 H 0.4176 0.05251 0.14635 0.0
H2012 H 0.40466 0.05241 0.0889 0.0
H2013 H 0.44121 0.09671 0.07693 0.0
H2014 H 0.45029 0.09269 0.00317 0.0
H2015 H 0.45233 0.08466 0.08291 0.0
C2016 C 0.67999 0.68103 0.01291 0.0
C2017 C 0.66895 0.68368 0.04682 0.0
C2018 C 0.68044 0.68019 0.94172 0.0
C2019 C 0.66952 0.6818 0.90341 0.0
C2020 C 0.65833 0.68458 0.93718 0.0
C2021 C 0.6582 0.68561 0.00872 0.0
C2022 C 0.69261 0.67742 0.90761 0.0
C2023 C 0.64649 0.68615 0.89791 0.0
C2024 C 0.67524 0.68792 0.7157 0.0
C2025 C 0.6751 0.67594 0.68942 0.0
C2026 C 0.67274 0.69011 0.78494 0.0
C2027 C 0.66992 0.68006 0.82827 0.0
C2028 C 0.66905 0.66804 0.8008 0.0
C2029 C 0.67181 0.6661 0.73178 0.0
C2030 C 0.67397 0.70302 0.81253 0.0
C2031 C 0.66587 0.65712 0.84506 0.0
H2032 H 0.68836 0.67967 0.04212 0.0
H2033 H 0.64964 0.68763 0.03489 0.0
H2034 H 0.69211 0.66841 0.8811 0.0
H2035 H 0.69468 0.68451 0.86848 0.0
H2036 H 0.70036 0.67711 0.94456 0.0
H2037 H 0.63868 0.68877 0.93148 0.0
H2038 H 0.64761 0.69331 0.85802 0.0
H2039 H 0.64416 0.67742 0.87149 0.0
H2040 H 0.67798 0.6955 0.68308 0.0
H2041 H 0.67166 0.65684 0.71116 0.0
H2042 H 0.68235 0.70364 0.84468 0.0
H2043 H 0.66599 0.70538 0.84537 0.0
H2044 H 0.67468 0.70997 0.77112 0.0
H2045 H 0.67365 0.65511 0.87997 0.0
H2046 H 0.66395 0.64873 0.81436 0.0
H2047 H 0.6577 0.65917 0.87713 0.0
C2048 C 0.06225 0.91964 0.45476 0.0
C2049 C 0.07147 0.92788 0.43395 0.0
C2050 C 0.06017 0.91725 0.52423 0.0
C2051 C 0.06786 0.92279 0.57376 0.0
C2052 C 0.07752 0.93067 0.55296 0.0
C2053 C 0.07911 0.93321 0.48347 0.0
C2054 C 0.04967 0.90893 0.54468 0.0
C2055 C 0.08611 0.93653 0.60416 0.0
C2056 C 0.05794 0.92875 0.75563 0.0
C2057 C 0.06387 0.91922 0.79054 0.0
C2058 C 0.05851 0.92954 0.6844 0.0
C2059 C 0.06558 0.92083 0.64767 0.0
C2060 C 0.07133 0.91097 0.68268 0.0
C2061 C 0.07024 0.91017 0.75398 0.0
C2062 C 0.05194 0.93997 0.64876 0.0
C2063 C 0.07924 0.90172 0.64549 0.0
H2064 H 0.05674 0.9149 0.41709 0.0
H2065 H 0.08638 0.93945 0.46795 0.0
H2066 H 0.0532 0.90094 0.57392 0.0
H2067 H 0.04324 0.91399 0.57866 0.0
H2068 H 0.04444 0.90546 0.49991 0.0
H2069 H 0.09372 0.94168 0.57924 0.0
H2070 H 0.08092 0.94299 0.63719 0.0
H2071 H 0.09016 0.92937 0.63779 0.0
H2072 H 0.05294 0.93569 0.78428 0.0
H2073 H 0.07491 0.90288 0.78144 0.0
H2074 H 0.04649 0.93641 0.60512 0.0
H2075 H 0.05879 0.94655 0.62797 0.0
H2076 H 0.04569 0.94506 0.68368 0.0
H2077 H 0.07426 0.89788 0.60096 0.0
H2078 H 0.08215 0.89402 0.67909 0.0
H2079 H 0.08761 0.90638 0.62571 0.0
C2080 C 0.82108 0.29926 0.50619 0.0
C2081 C 0.82379 0.30931 0.5486 0.0
C2082 C 0.82024 0.3007 0.43526 0.0
C2083 C 0.8221 0.31247 0.40621 0.0
C2084 C 0.82551 0.3225 0.44832 0.0
C2085 C 0.82636 0.32078 0.51913 0.0
C2086 C 0.81675 0.28976 0.39185 0.0
C2087 C 0.82756 0.33519 0.41912 0.0
C2088 C 0.82588 0.31512 0.21411 0.0
C2089 C 0.81387 0.31805 0.19383 0.0
C2090 C 0.82874 0.31323 0.28316 0.0
C2091 C 0.81937 0.31451 0.33285 0.0
C2092 C 0.80727 0.31769 0.31261 0.0
C2093 C 0.80468 0.31947 0.24327 0.0
C2094 C 0.84175 0.30992 0.30295 0.0
C2095 C 0.79704 0.3192 0.3642 0.0
H2096 H 0.8192 0.29034 0.52858 0.0
H2097 H 0.82849 0.32858 0.55157 0.0
H2098 H 0.80737 0.29114 0.37075 0.0
H2099 H 0.82314 0.28884 0.34799 0.0
H2100 H 0.81683 0.28102 0.42129 0.0
H2101 H 0.8314 0.34167 0.4575 0.0
H2102 H 0.83393 0.33477 0.3749 0.0
H2103 H 0.81869 0.33895 0.40037 0.0
H2104 H 0.83311 0.3145 0.1761 0.0
H2105 H 0.79542 0.32189 0.22755 0.0
H2106 H 0.84183 0.30106 0.33106 0.0
H2107 H 0.84555 0.31702 0.33777 0.0
H2108 H 0.84791 0.3091 0.25793 0.0
H2109 H 0.7957 0.31047 0.3926 0.0
H2110 H 0.78817 0.32182 0.34004 0.0
H2111 H 0.79956 0.32637 0.40202 0.0
C2112 C 0.14971 0.63397 0.08285 0.0
C2113 C 0.14784 0.64346 0.13017 0.0
C2114 C 0.14081 0.62482 0.07293 0.0
C2115 C 0.12998 0.62496 0.11303 0.0
C2116 C 0.12816 0.63437 0.16197 0.0
C2117 C 0.13704 0.64363 0.16919 0.0
C2118 C 0.14294 0.61507 0.01925 0.0
C2119 C 0.11684 0.63466 0.20671 0.0
C2120 C 0.10124 0.60822 0.05474 0.0
C2121 C 0.10205 0.59726 0.09198 0.0
C2122 C 0.11048 0.61718 0.05947 0.0
C2123 C 0.12055 0.61524 0.10403 0.0
C2124 C 0.12145 0.60412 0.1413 0.0
C2125 C 0.11228 0.59517 0.13386 0.0
C2126 C 0.10938 0.6288 0.01764 0.0
C2127 C 0.13193 0.60182 0.1903 0.0
H2128 H 0.15815 0.63372 0.05341 0.0
H2129 H 0.13549 0.65107 0.20502 0.0
H2130 H 0.14328 0.60584 0.04336 0.0
H2131 H 0.13517 0.615 0.98245 0.0
H2132 H 0.15164 0.61656 0.99062 0.0
H2133 H 0.1171 0.6423 0.24435 0.0
H2134 H 0.10849 0.63571 0.17474 0.0
H2135 H 0.11594 0.62583 0.23474 0.0
H2136 H 0.09326 0.6099 0.02288 0.0
H2137 H 0.113 0.58658 0.16172 0.0
H2138 H 0.11794 0.63033 0.98791 0.0
H2139 H 0.10819 0.63684 0.0519 0.0
H2140 H 0.10147 0.62848 0.98174 0.0
H2141 H 0.14086 0.60231 0.16298 0.0
H2142 H 0.13123 0.59271 0.21567 0.0
H2143 H 0.13204 0.60908 0.23017 0.0
C2144 C 0.601 0.88698 0.45184 0.0
C2145 C 0.60194 0.89807 0.41588 0.0
C2146 C 0.61012 0.87791 0.44586 0.0
C2147 C 0.62026 0.87994 0.40184 0.0
C2148 C 0.62131 0.8912 0.36605 0.0
C2149 C 0.6122 0.9002 0.37427 0.0
C2150 C 0.60883 0.8661 0.48583 0.0
C2151 C 0.63191 0.89363 0.31804 0.0
C2152 C 0.64908 0.86079 0.42551 0.0
C2153 C 0.64735 0.85146 0.37709 0.0
C2154 C 0.6403 0.87009 0.43444 0.0
C2155 C 0.62969 0.87022 0.39261 0.0
C2156 C 0.62806 0.86101 0.34224 0.0
C2157 C 0.63687 0.85165 0.33556 0.0
C2158 C 0.64229 0.87968 0.48917 0.0
C2159 C 0.61696 0.86098 0.2959 0.0
H2160 H 0.593 0.88529 0.48355 0.0
H2161 H 0.613 0.90887 0.34727 0.0
H2162 H 0.60785 0.85822 0.45025 0.0
H2163 H 0.61723 0.86446 0.51668 0.0
H2164 H 0.60073 0.86624 0.5205 0.0
H2165 H 0.63134 0.90286 0.29394 0.0
H2166 H 0.64077 0.89293 0.34585 0.0
H2167 H 0.63205 0.88656 0.27715 0.0
H2168 H 0.65732 0.86081 0.45668 0.0
H2169 H 0.63544 0.84436 0.29867 0.0
H2170 H 0.63447 0.87957 0.52561 0.0
H2171 H 0.6426 0.88899 0.46602 0.0
H2172 H 0.65096 0.87816 0.51805 0.0
H2173 H 0.60846 0.85983 0.3266 0.0
H2174 H 0.61736 0.8535 0.2573 0.0
H2175 H 0.61622 0.86993 0.26896 0.0
C2176 C 0.34716 0.36149 0.57971 0.0
C2177 C 0.34961 0.35196 0.62594 0.0
C2178 C 0.35584 0.37078 0.56759 0.0
C2179 C 0.36703 0.37074 0.60442 0.0
C2180 C 0.36946 0.36126 0.65211 0.0
C2181 C 0.36078 0.35187 0.66153 0.0
C2182 C 0.35304 0.38059 0.51529 0.0
C2183 C 0.38119 0.36107 0.69345 0.0
C2184 C 0.39502 0.38834 0.54246 0.0
C2185 C 0.39433 0.39904 0.58217 0.0
C2186 C 0.38592 0.37922 0.54725 0.0
C2187 C 0.37613 0.38075 0.5942 0.0
C2188 C 0.37527 0.39166 0.63335 0.0
C2189 C 0.38428 0.40077 0.6259 0.0
C2190 C 0.38694 0.36785 0.50331 0.0
C2191 C 0.36508 0.39352 0.6848 0.0
H2192 H 0.33844 0.36167 0.55292 0.0
H2193 H 0.36277 0.3444 0.69649 0.0
H2194 H 0.35261 0.38974 0.54031 0.0
H2195 H 0.36053 0.38099 0.4768 0.0
H2196 H 0.34418 0.37892 0.48851 0.0
H2197 H 0.38147 0.35327 0.73003 0.0
H2198 H 0.38926 0.36038 0.65898 0.0
H2199 H 0.38213 0.3698 0.72244 0.0
H2200 H 0.40284 0.38695 0.50897 0.0
H2201 H 0.38363 0.40917 0.65558 0.0
H2202 H 0.37815 0.36618 0.47603 0.0
H2203 H 0.38872 0.3597 0.53592 0.0
H2204 H 0.39447 0.36859 0.46515 0.0
H2205 H 0.35598 0.39282 0.6595 0.0
H2206 H 0.3657 0.4026 0.71074 0.0
H2207 H 0.3655 0.38618 0.72408 0.0
C2208 C 0.89347 0.10789 0.94798 0.0
C2209 C 0.89357 0.0972 0.90807 0.0
C2210 C 0.88403 0.1166 0.94093 0.0
C2211 C 0.87471 0.11469 0.89153 0.0
C2212 C 0.8747 0.10383 0.85176 0.0
C2213 C 0.88403 0.0951 0.86143 0.0
C2214 C 0.88416 0.12795 0.98546 0.0
C2215 C 0.86505 0.10157 0.79772 0.0
C2216 C 0.84494 0.13264 0.90626 0.0
C2217 C 0.84728 0.14271 0.86356 0.0
C2218 C 0.85381 0.12346 0.91616 0.0
C2219 C 0.86511 0.12418 0.88052 0.0
C2220 C 0.86732 0.13406 0.83504 0.0
C2221 C 0.85842 0.14332 0.82781 0.0
C2222 C 0.85122 0.11318 0.96599 0.0
C2223 C 0.87914 0.13495 0.79482 0.0
H2224 H 0.90091 0.10957 0.98359 0.0
H2225 H 0.88399 0.08672 0.83146 0.0
H2226 H 0.88557 0.13625 0.95347 0.0
H2227 H 0.87515 0.12902 0.01159 0.0
H2228 H 0.89154 0.12761 0.02465 0.0
H2229 H 0.86638 0.09264 0.7711 0.0
H2230 H 0.85573 0.10167 0.82087 0.0
H2231 H 0.86533 0.10907 0.75928 0.0
H2232 H 0.83622 0.13207 0.93297 0.0
H2233 H 0.86029 0.15117 0.79527 0.0
H2234 H 0.85828 0.11319 0.00693 0.0
H2235 H 0.8518 0.10415 0.9398 0.0
H2236 H 0.84199 0.11402 0.9899 0.0
H2237 H 0.88703 0.13616 0.83014 0.0
H2238 H 0.87906 0.14277 0.75827 0.0
H2239 H 0.88073 0.1263 0.76598 0.0
C2240 C 0.14793 0.36179 0.80991 0.0
C2241 C 0.14733 0.35052 0.84421 0.0
C2242 C 0.13867 0.37064 0.81852 0.0
C2243 C 0.12866 0.3681 0.86269 0.0
C2244 C 0.12795 0.35662 0.89658 0.0
C2245 C 0.13732 0.34794 0.88676 0.0
C2246 C 0.13968 0.38277 0.78137 0.0
C2247 C 0.11742 0.35359 0.94399 0.0
C2248 C 0.11137 0.39527 0.93723 0.0
C2249 C 0.10101 0.39571 0.89496 0.0
C2250 C 0.12042 0.38624 0.92766 0.0
C2251 C 0.11904 0.37753 0.87436 0.0
C2252 C 0.1085 0.37789 0.83201 0.0
C2253 C 0.09957 0.38698 0.84302 0.0
C2254 C 0.13153 0.38609 0.97394 0.0
C2255 C 0.10671 0.36876 0.77474 0.0
H2256 H 0.15578 0.36375 0.77749 0.0
H2257 H 0.13691 0.33916 0.91296 0.0
H2258 H 0.13129 0.3844 0.75042 0.0
H2259 H 0.14037 0.3904 0.81881 0.0
H2260 H 0.14784 0.38312 0.74719 0.0
H2261 H 0.11814 0.34415 0.96531 0.0
H2262 H 0.11722 0.36026 0.98691 0.0
H2263 H 0.10853 0.35444 0.91652 0.0
H2264 H 0.11247 0.40213 0.977 0.0
H2265 H 0.09147 0.38734 0.81073 0.0
H2266 H 0.14002 0.38749 0.94341 0.0
H2267 H 0.13235 0.377 0.99927 0.0
H2268 H 0.13108 0.39334 0.01386 0.0
H2269 H 0.11444 0.36946 0.73795 0.0
H2270 H 0.09794 0.37026 0.74681 0.0
H2271 H 0.10676 0.35924 0.79526 0.0
C2272 C 0.88413 0.89993 0.13097 0.0
C2273 C 0.89408 0.89746 0.08752 0.0
C2274 C 0.8749 0.89115 0.14188 0.0
C2275 C 0.87534 0.87987 0.10594 0.0
C2276 C 0.8851 0.8775 0.05994 0.0
C2277 C 0.89451 0.88623 0.05239 0.0
C2278 C 0.86483 0.89385 0.19289 0.0
C2279 C 0.88566 0.86573 0.01903 0.0
C2280 C 0.85857 0.85195 0.1752 0.0
C2281 C 0.84746 0.85243 0.13903 0.0
C2282 C 0.86761 0.861 0.1661 0.0
C2283 C 0.8657 0.87043 0.11746 0.0
C2284 C 0.85458 0.87085 0.07993 0.0
C2285 C 0.84548 0.862 0.09237 0.0
C2286 C 0.87919 0.86048 0.20865 0.0
C2287 C 0.85237 0.88055 0.02612 0.0
H2288 H 0.88365 0.90871 0.15713 0.0
H2289 H 0.90227 0.88421 0.01954 0.0
H2290 H 0.85573 0.89377 0.16724 0.0
H2291 H 0.86464 0.88658 0.23263 0.0
H2292 H 0.86607 0.90292 0.21828 0.0
H2293 H 0.89332 0.86577 0.98144 0.0
H2294 H 0.88692 0.85777 0.05373 0.0
H2295 H 0.87687 0.86431 0.9913 0.0
H2296 H 0.86024 0.84444 0.21037 0.0
H2297 H 0.8368 0.86252 0.06521 0.0
H2298 H 0.8806 0.86938 0.23532 0.0
H2299 H 0.88729 0.85897 0.17527 0.0
H2300 H 0.87889 0.85301 0.24732 0.0
H2301 H 0.85233 0.88982 0.04978 0.0
H2302 H 0.84349 0.87919 0.99899 0.0
H2303 H 0.85994 0.8804 0.98809 0.0
C2304 C 0.34737 0.63467 0.32971 0.0
C2305 C 0.34799 0.64544 0.36864 0.0
C2306 C 0.35632 0.62547 0.33684 0.0
C2307 C 0.36615 0.62725 0.38319 0.0
C2308 C 0.36678 0.63816 0.42261 0.0
C2309 C 0.35759 0.64711 0.41521 0.0
C2310 C 0.35526 0.61386 0.29481 0.0
C2311 C 0.37724 0.64045 0.47177 0.0
C2312 C 0.3843 0.59969 0.44602 0.0
C2313 C 0.39454 0.60003 0.40285 0.0
C2314 C 0.37488 0.60844 0.43971 0.0
C2315 C 0.37591 0.61779 0.38972 0.0
C2316 C 0.38631 0.61816 0.3462 0.0
C2317 C 0.39548 0.60918 0.35299 0.0
C2318 C 0.36382 0.60765 0.48622 0.0
C2319 C 0.3878 0.6281 0.293 0.0
H2320 H 0.33984 0.63344 0.29407 0.0
H2321 H 0.35801 0.65552 0.44491 0.0
H2322 H 0.36339 0.61293 0.26101 0.0
H2323 H 0.35512 0.6057 0.3288 0.0
H2324 H 0.34682 0.61376 0.26274 0.0
H2325 H 0.37634 0.64942 0.49857 0.0
H2326 H 0.3776 0.63301 0.51047 0.0
H2327 H 0.38613 0.64032 0.4439 0.0
H2328 H 0.38361 0.5925 0.48419 0.0
H2329 H 0.40349 0.60939 0.31997 0.0
H2330 H 0.35529 0.60688 0.45539 0.0
H2331 H 0.36305 0.61617 0.51707 0.0
H2332 H 0.36433 0.59964 0.52139 0.0
H2333 H 0.37997 0.62784 0.25672 0.0
H2334 H 0.3965 0.62713 0.26369 0.0
H2335 H 0.3877 0.63729 0.31782 0.0
C2336 C 0.61173 0.10029 0.55086 0.0
C2337 C 0.60078 0.10072 0.58816 0.0
C2338 C 0.62072 0.10944 0.55919 0.0
C2339 C 0.61856 0.11921 0.60553 0.0
C2340 C 0.60734 0.11979 0.64215 0.0
C2341 C 0.59858 0.11047 0.63318 0.0
C2342 C 0.63261 0.1085 0.51966 0.0
C2343 C 0.60468 0.13014 0.69147 0.0
C2344 C 0.64602 0.13603 0.67988 0.0
C2345 C 0.64643 0.14654 0.63882 0.0
C2346 C 0.63699 0.12701 0.6694 0.0
C2347 C 0.62816 0.12868 0.61705 0.0
C2348 C 0.62849 0.13938 0.57597 0.0
C2349 C 0.63769 0.14819 0.58724 0.0
C2350 C 0.63697 0.11566 0.71388 0.0
C2351 C 0.61913 0.14153 0.52027 0.0
H2352 H 0.61337 0.09265 0.51642 0.0
H2353 H 0.59003 0.11073 0.66169 0.0
H2354 H 0.63412 0.117 0.48946 0.0
H2355 H 0.64046 0.10762 0.5556 0.0
H2356 H 0.63271 0.10048 0.48445 0.0
H2357 H 0.59531 0.12946 0.7139 0.0
H2358 H 0.61151 0.13003 0.73355 0.0
H2359 H 0.60556 0.13914 0.66522 0.0
H2360 H 0.65288 0.1348 0.71947 0.0
H2361 H 0.63803 0.15642 0.55597 0.0
H2362 H 0.63795 0.10731 0.68172 0.0
H2363 H 0.62806 0.11489 0.74123 0.0
H2364 H 0.64452 0.11576 0.75211 0.0
H2365 H 0.61956 0.13396 0.48235 0.0
H2366 H 0.62061 0.1504 0.49334 0.0
H2367 H 0.60971 0.1415 0.5422 0.0
C2368 C 0.84752 0.36051 0.91681 0.0
C2369 C 0.85021 0.35042 0.8749 0.0
C2370 C 0.85633 0.36966 0.92901 0.0
C2371 C 0.86796 0.36883 0.89692 0.0
C2372 C 0.87069 0.35869 0.8541 0.0
C2373 C 0.8618 0.34951 0.84419 0.0
C2374 C 0.85316 0.38026 0.97577 0.0
C2375 C 0.88294 0.35761 0.81807 0.0
C2376 C 0.88588 0.39822 0.86813 0.0
C2377 C 0.89519 0.39724 0.91727 0.0
C2378 C 0.87693 0.38905 0.86114 0.0
C2379 C 0.87711 0.37882 0.90576 0.0
C2380 C 0.88619 0.37802 0.95741 0.0
C2381 C 0.89522 0.38721 0.96213 0.0
C2382 C 0.86747 0.39016 0.805 0.0
C2383 C 0.88649 0.36735 0.00675 0.0
H2384 H 0.83848 0.36128 0.93985 0.0
H2385 H 0.86392 0.34161 0.8125 0.0
H2386 H 0.86021 0.38112 0.01646 0.0
H2387 H 0.85318 0.389 0.9466 0.0
H2388 H 0.844 0.37911 8e-05 0.0
H2389 H 0.88358 0.34915 0.78641 0.0
H2390 H 0.88438 0.36573 0.78465 0.0
H2391 H 0.89052 0.35753 0.85593 0.0
H2392 H 0.88566 0.40614 0.83455 0.0
H2393 H 0.90248 0.38639 -0.00022 0.0
H2394 H 0.85806 0.3901 0.82698 0.0
H2395 H 0.86816 0.38214 0.77014 0.0
H2396 H 0.86864 0.39871 0.77456 0.0
H2397 H 0.87739 0.36628 0.03175 0.0
H2398 H 0.89362 0.36855 0.04686 0.0
H2399 H 0.88841 0.35869 0.9787 0.0
C2400 C 0.39328 0.10632 0.54614 0.0
C2401 C 0.3936 0.09606 0.5893 0.0
C2402 C 0.38405 0.11527 0.55306 0.0
C2403 C 0.37515 0.11402 0.60544 0.0
C2404 C 0.3753 0.10355 0.64825 0.0
C2405 C 0.38442 0.09459 0.63887 0.0
C2406 C 0.38399 0.12619 0.50542 0.0
C2407 C 0.36608 0.10198 0.70528 0.0
C2408 C 0.36013 0.14343 0.66817 0.0
C2409 C 0.34861 0.1428 0.63645 0.0
C2410 C 0.36879 0.13398 0.65957 0.0
C2411 C 0.36591 0.12385 0.61688 0.0
C2412 C 0.35424 0.12315 0.58513 0.0
C2413 C 0.34565 0.13255 0.59627 0.0
C2414 C 0.38104 0.13489 0.69557 0.0
C2415 C 0.35093 0.1126 0.53839 0.0
H2416 H 0.40044 0.10756 0.50828 0.0
H2417 H 0.38449 0.08651 0.67124 0.0
H2418 H 0.37475 0.12728 0.48197 0.0
H2419 H 0.38596 0.13472 0.53454 0.0
H2420 H 0.39093 0.12528 0.46407 0.0
H2421 H 0.36741 0.09323 0.73363 0.0
H2422 H 0.3669 0.10975 0.74176 0.0
H2423 H 0.35658 0.10216 0.68463 0.0
H2424 H 0.36246 0.15141 0.69875 0.0
H2425 H 0.33665 0.13199 0.57264 0.0
H2426 H 0.38857 0.1355 0.65746 0.0
H2427 H 0.38269 0.12648 0.72639 0.0
H2428 H 0.38158 0.14304 0.7297 0.0
H2429 H 0.3576 0.11211 0.49559 0.0
H2430 H 0.34151 0.11354 0.51691 0.0
H2431 H 0.3515 0.10375 0.56642 0.0
C2432 C 0.59962 0.60723 0.33118 0.0
C2433 C 0.60075 0.59902 0.38584 0.0
C2434 C 0.60842 0.61646 0.32032 0.0
C2435 C 0.61854 0.61745 0.3654 0.0
C2436 C 0.61971 0.60916 0.42079 0.0
C2437 C 0.61077 0.60001 0.43034 0.0
C2438 C 0.60686 0.62516 0.26089 0.0
C2439 C 0.6304 0.60994 0.46982 0.0
C2440 C 0.64745 0.63405 0.30797 0.0
C2441 C 0.64613 0.64537 0.34115 0.0
C2442 C 0.63841 0.62491 0.31445 0.0
C2443 C 0.62788 0.62723 0.35511 0.0
C2444 C 0.62643 0.63879 0.38751 0.0
C2445 C 0.63561 0.64774 0.3801 0.0
C2446 C 0.64026 0.61269 0.27916 0.0
C2447 C 0.61531 0.6416 0.43105 0.0
H2448 H 0.59178 0.60648 0.29719 0.0
H2449 H 0.61167 0.59355 0.47218 0.0
H2450 H 0.60618 0.63477 0.27974 0.0
H2451 H 0.61503 0.62468 0.22705 0.0
H2452 H 0.59852 0.62305 0.23021 0.0
H2453 H 0.62994 0.60278 0.51023 0.0
H2454 H 0.6392 0.60887 0.44166 0.0
H2455 H 0.63058 0.61912 0.49456 0.0
H2456 H 0.65569 0.63227 0.27834 0.0
H2457 H 0.63466 0.65656 0.4055 0.0
H2458 H 0.63223 0.61058 0.24622 0.0
H2459 H 0.64092 0.60525 0.31774 0.0
H2460 H 0.64872 0.61255 0.24729 0.0
H2461 H 0.60675 0.64019 0.40112 0.0
H2462 H 0.61539 0.65119 0.45077 0.0
H2463 H 0.61497 0.63519 0.47507 0.0
C2464 C 0.13447 0.85044 0.14616 0.0
C2465 C 0.14625 0.85124 0.11753 0.0
C2466 C 0.12584 0.85987 0.1365 0.0
C2467 C 0.12901 0.87017 0.09588 0.0
C2468 C 0.14083 0.87091 0.06586 0.0
C2469 C 0.14938 0.8615 0.07791 0.0
C2470 C 0.1134 0.85888 0.17041 0.0
C2471 C 0.14446 0.88166 0.02134 0.0
C2472 C 0.10225 0.88911 0.02945 0.0
C2473 C 0.10212 0.89891 0.07587 0.0
C2474 C 0.11123 0.87986 0.03385 0.0
C2475 C 0.12007 0.88035 0.08685 0.0
C2476 C 0.12011 0.89036 0.13299 0.0
C2477 C 0.11124 0.89962 0.12625 0.0
C2478 C 0.11109 0.86944 0.98285 0.0
C2479 C 0.12931 0.89113 0.19067 0.0
H2480 H 0.13201 0.84243 0.17609 0.0
H2481 H 0.15856 0.86219 0.05651 0.0
H2482 H 0.1119 0.8669 0.20449 0.0
H2483 H 0.10602 0.85905 0.13131 0.0
H2484 H 0.11245 0.85032 0.20098 0.0
H2485 H 0.15375 0.88047 0.99859 0.0
H2486 H 0.13768 0.88284 0.97951 0.0
H2487 H 0.14441 0.89027 0.05178 0.0
H2488 H 0.09514 0.88847 0.99087 0.0
H2489 H 0.11133 0.90736 0.16112 0.0
H2490 H 0.10882 0.86069 0.00914 0.0
H2491 H 0.12033 0.86831 0.95959 0.0
H2492 H 0.10426 0.87096 0.9415 0.0
H2493 H 0.12829 0.88301 0.22454 0.0
H2494 H 0.12813 0.8996 0.22183 0.0
H2495 H 0.13882 0.89097 0.1702 0.0
C2496 C 0.89802 0.61156 0.11352 0.0
C2497 C 0.89569 0.60149 0.07093 0.0
C2498 C 0.88909 0.62068 0.12344 0.0
C2499 C 0.8776 0.61963 0.08992 0.0
C2500 C 0.87533 0.60958 0.04554 0.0
C2501 C 0.88445 0.6006 0.03654 0.0
C2502 C 0.89185 0.63129 0.17087 0.0
C2503 C 0.86318 0.60818 0.00901 0.0
C2504 C 0.85039 0.63603 0.16987 0.0
C2505 C 0.84953 0.64653 0.12887 0.0
C2506 C 0.85947 0.62714 0.1575 0.0
C2507 C 0.86783 0.62886 0.10289 0.0
C2508 C 0.86698 0.63948 0.06136 0.0
C2509 C 0.85781 0.6482 0.07492 0.0
C2510 C 0.8601 0.61591 0.20271 0.0
C2511 C 0.87578 0.64164 0.00293 0.0
H2512 H 0.90677 0.61217 0.13986 0.0
H2513 H 0.8827 0.5927 0.00408 0.0
H2514 H 0.89049 0.64016 0.1439 0.0
H2515 H 0.88537 0.63114 0.21464 0.0
H2516 H 0.9014 0.63097 0.19096 0.0
H2517 H 0.86308 0.6001 0.9742 0.0
H2518 H 0.85566 0.60709 0.04688 0.0
H2519 H 0.86113 0.61657 0.97887 0.0
H2520 H 0.84386 0.63473 0.21111 0.0
H2521 H 0.85715 0.65641 0.04365 0.0
H2522 H 0.86923 0.61542 0.22792 0.0
H2523 H 0.85906 0.60745 0.17144 0.0
H2524 H 0.85285 0.61593 0.24273 0.0
H2525 H 0.88536 0.64208 0.02241 0.0
H2526 H 0.87375 0.6503 0.975 0.0
H2527 H 0.87533 0.63385 0.9664 0.0
C2528 C 0.15217 0.13349 0.87057 0.0
C2529 C 0.15004 0.14353 0.82734 0.0
C2530 C 0.14323 0.12435 0.87962 0.0
C2531 C 0.13215 0.12498 0.84193 0.0
C2532 C 0.13026 0.13471 0.79503 0.0
C2533 C 0.13914 0.14401 0.78929 0.0
C2534 C 0.14544 0.11431 0.93151 0.0
C2535 C 0.11873 0.13545 0.75217 0.0
C2536 C 0.11298 0.09589 0.83158 0.0
C2537 C 0.1034 0.09857 0.87713 0.0
C2538 C 0.12228 0.10451 0.81841 0.0
C2539 C 0.12228 0.11582 0.85411 0.0
C2540 C 0.11283 0.11843 0.90174 0.0
C2541 C 0.10335 0.10986 0.91157 0.0
C2542 C 0.13199 0.10157 0.7657 0.0
C2543 C 0.11273 0.13025 0.94234 0.0
H2544 H 0.16073 0.13295 0.89882 0.0
H2545 H 0.1374 0.15182 0.75627 0.0
H2546 H 0.13825 0.11474 0.97171 0.0
H2547 H 0.14474 0.10513 0.90705 0.0
H2548 H 0.15461 0.1151 0.95621 0.0
H2549 H 0.11932 0.14278 0.71278 0.0
H2550 H 0.117 0.12651 0.72642 0.0
H2551 H 0.11069 0.13738 0.78533 0.0
H2552 H 0.11316 0.08707 0.80579 0.0
H2553 H 0.09585 0.11206 0.94591 0.0
H2554 H 0.14121 0.10134 0.7899 0.0
H2555 H 0.1322 0.1089 0.72624 0.0
H2556 H 0.13034 0.09259 0.74021 0.0
H2557 H 0.12163 0.13142 0.96936 0.0
H2558 H 0.10517 0.13048 0.98054 0.0
H2559 H 0.11163 0.13822 0.90752 0.0
C2560 C 0.60101 0.38608 0.5921 0.0
C2561 C 0.602 0.39734 0.62644 0.0
C2562 C 0.61024 0.37713 0.59786 0.0
C2563 C 0.62048 0.37938 0.64073 0.0
C2564 C 0.6214 0.39065 0.67661 0.0
C2565 C 0.61223 0.39958 0.66809 0.0
C2566 C 0.60909 0.36532 0.5576 0.0
C2567 C 0.63205 0.39326 0.72393 0.0
C2568 C 0.63851 0.35139 0.69863 0.0
C2569 C 0.64877 0.35189 0.65545 0.0
C2570 C 0.62935 0.36047 0.69563 0.0
C2571 C 0.63035 0.37003 0.64692 0.0
C2572 C 0.64071 0.37058 0.60326 0.0
C2573 C 0.64991 0.36161 0.60895 0.0
C2574 C 0.61858 0.35978 0.74416 0.0
C2575 C 0.64198 0.38051 0.54978 0.0
H2576 H 0.59299 0.38425 0.56081 0.0
H2577 H 0.61308 0.40836 0.69395 0.0
H2578 H 0.61728 0.36411 0.52444 0.0
H2579 H 0.60877 0.35734 0.5928 0.0
H2580 H 0.60072 0.36517 0.52509 0.0
H2581 H 0.63102 0.40219 0.75097 0.0
H2582 H 0.63287 0.38581 0.76245 0.0
H2583 H 0.64078 0.39343 0.69461 0.0
H2584 H 0.63756 0.3438 0.73415 0.0
H2585 H 0.65797 0.36215 0.5765 0.0
H2586 H 0.60994 0.35832 0.71509 0.0
H2587 H 0.6176 0.3686 0.77222 0.0
H2588 H 0.61958 0.3522 0.7818 0.0
H2589 H 0.63392 0.3803 0.51499 0.0
H2590 H 0.65049 0.37945 0.51885 0.0
H2591 H 0.64212 0.3897 0.57437 0.0
C2592 C 0.38335 0.89997 0.33955 0.0
C2593 C 0.3935 0.8971 0.38066 0.0
C2594 C 0.37399 0.89133 0.3282 0.0
C2595 C 0.37462 0.87974 0.36087 0.0
C2596 C 0.38475 0.87687 0.40338 0.0
C2597 C 0.39419 0.88553 0.41184 0.0
C2598 C 0.36347 0.8946 0.28122 0.0
C2599 C 0.38557 0.8647 0.44037 0.0
C2600 C 0.34492 0.86221 0.38835 0.0
C2601 C 0.34602 0.85271 0.34039 0.0
C2602 C 0.35418 0.87108 0.39558 0.0
C2603 C 0.36454 0.87069 0.35191 0.0
C2604 C 0.36543 0.86145 0.30119 0.0
C2605 C 0.35623 0.85243 0.29674 0.0
C2606 C 0.35303 0.88065 0.45119 0.0
C2607 C 0.37618 0.86097 0.25246 0.0
H2608 H 0.38273 0.90899 0.31619 0.0
H2609 H 0.40213 0.88322 0.44273 0.0
H2610 H 0.36254 0.88751 0.24072 0.0
H2611 H 0.3547 0.89473 0.31019 0.0
H2612 H 0.36476 0.90372 0.25666 0.0
H2613 H 0.39388 0.86408 0.47328 0.0
H2614 H 0.37729 0.86337 0.47269 0.0
H2615 H 0.38581 0.85704 0.40302 0.0
H2616 H 0.33689 0.86258 0.42111 0.0
H2617 H 0.35715 0.84503 0.26002 0.0
H2618 H 0.35321 0.89001 0.42881 0.0
H2619 H 0.36098 0.87994 0.48653 0.0
H2620 H 0.34441 0.87959 0.48118 0.0
H2621 H 0.37744 0.87004 0.22738 0.0
H2622 H 0.37496 0.85383 0.21238 0.0
H2623 H 0.38476 0.85893 0.28098 0.0
C2624 C 0.07885 0.4736 0.92851 0.0
C2625 C 0.07192 0.4653 0.96749 0.0
C2626 C 0.07954 0.48608 0.94685 0.0
C2627 C 0.07285 0.49036 0.00424 0.0
C2628 C 0.066 0.48196 0.04426 0.0
C2629 C 0.06575 0.46951 0.02588 0.0
C2630 C 0.0872 0.49473 0.90404 0.0
C2631 C 0.05848 0.48621 0.10471 0.0
C2632 C 0.07896 0.52171 0.08351 0.0
C2633 C 0.07014 0.52895 0.0503 0.0
C2634 C 0.08022 0.50916 0.06762 0.0
C2635 C 0.07218 0.50373 0.01934 0.0
C2636 C 0.06313 0.51101 0.98663 0.0
C2637 C 0.06236 0.52357 0.0017 0.0
C2638 C 0.0902 0.50174 0.10198 0.0
C2639 C 0.05411 0.50548 0.93653 0.0
H2640 H 0.08372 0.47034 0.88372 0.0
H2641 H 0.06033 0.46313 0.05596 0.0
H2642 H 0.0811 0.50128 0.87683 0.0
H2643 H 0.0934 0.50023 0.93713 0.0
H2644 H 0.09284 0.48975 0.86566 0.0
H2645 H 0.05405 0.47843 0.13209 0.0
H2646 H 0.06435 0.49133 0.14127 0.0
H2647 H 0.05118 0.49262 0.08717 0.0
H2648 H 0.08504 0.52593 0.12065 0.0
H2649 H 0.05547 0.52918 0.97645 0.0
H2650 H 0.09614 0.49733 0.06289 0.0
H2651 H 0.08604 0.49426 0.13279 0.0
H2652 H 0.09606 0.50747 0.13587 0.0
H2653 H 0.05912 0.50144 0.8926 0.0
H2654 H 0.04744 0.51238 0.91684 0.0
H2655 H 0.04889 0.49793 0.96134 0.0
C2656 C 0.72013 0.83129 0.27913 0.0
C2657 C 0.71636 0.82301 0.32972 0.0
C2658 C 0.73258 0.83238 0.2614 0.0
C2659 C 0.74134 0.82462 0.29311 0.0
C2660 C 0.73759 0.81643 0.34536 0.0
C2661 C 0.72513 0.81588 0.36395 0.0
C2662 C 0.7363 0.84157 0.20736 0.0
C2663 C 0.7466 0.80774 0.3789 0.0
C2664 C 0.76979 0.81658 0.19017 0.0
C2665 C 0.7789 0.82322 0.22467 0.0
C2666 C 0.75752 0.81692 0.2122 0.0
C2667 C 0.75426 0.82447 0.2684 0.0
C2668 C 0.76338 0.83159 0.30159 0.0
C2669 C 0.77567 0.83068 0.28017 0.0
C2670 C 0.74813 0.80891 0.17677 0.0
C2671 C 0.76017 0.8401 0.3599 0.0
H2672 H 0.71329 0.83683 0.25298 0.0
H2673 H 0.72213 0.80939 0.40254 0.0
H2674 H 0.74428 0.84709 0.22504 0.0
H2675 H 0.73918 0.83663 0.16045 0.0
H2676 H 0.72865 0.84792 0.19398 0.0
H2677 H 0.74227 0.80223 0.42016 0.0
H2678 H 0.75041 0.80135 0.34007 0.0
H2679 H 0.75445 0.81294 0.40074 0.0
H2680 H 0.77236 0.8107 0.14775 0.0
H2681 H 0.78276 0.83585 0.30655 0.0
H2682 H 0.74067 0.81467 0.15513 0.0
H2683 H 0.74383 0.80256 0.2142 0.0
H2684 H 0.75223 0.80336 0.13492 0.0
H2685 H 0.75261 0.84639 0.34459 0.0
H2686 H 0.76817 0.84571 0.37664 0.0
H2687 H 0.75683 0.83467 0.40408 0.0
C2688 C 0.41563 0.52396 0.45028 0.0
C2689 C 0.42351 0.53199 0.48522 0.0
C2690 C 0.41484 0.51151 0.46882 0.0
C2691 C 0.42242 0.50695 0.52191 0.0
C2692 C 0.43015 0.51511 0.55847 0.0
C2693 C 0.43046 0.52758 0.54029 0.0
C2694 C 0.40623 0.50315 0.42999 0.0
C2695 C 0.43864 0.51055 0.61402 0.0
C2696 C 0.41744 0.47503 0.59686 0.0
C2697 C 0.42545 0.46799 0.55666 0.0
C2698 C 0.41613 0.48774 0.58534 0.0
C2699 C 0.42331 0.49349 0.53409 0.0
C2700 C 0.43158 0.48641 0.49443 0.0
C2701 C 0.43239 0.47372 0.5055 0.0
C2702 C 0.40697 0.49496 0.6272 0.0
C2703 C 0.43967 0.49225 0.44067 0.0
H2704 H 0.41015 0.5274 0.40816 0.0
H2705 H 0.43661 0.53377 0.56715 0.0
H2706 H 0.41164 0.49678 0.39742 0.0
H2707 H 0.40077 0.49743 0.46589 0.0
H2708 H 0.39981 0.50839 0.39679 0.0
H2709 H 0.44342 0.5182 0.64072 0.0
H2710 H 0.43345 0.5051 0.65221 0.0
H2711 H 0.44569 0.50437 0.59146 0.0
H2712 H 0.41201 0.47056 0.6361 0.0
H2713 H 0.43869 0.46828 0.47486 0.0
H2714 H 0.40025 0.49954 0.59295 0.0
H2715 H 0.41175 0.50232 0.65615 0.0
H2716 H 0.40187 0.48905 0.66381 0.0
H2717 H 0.4339 0.49651 0.40043 0.0
H2718 H 0.44595 0.48549 0.4162 0.0
H2719 H 0.4453 0.49968 0.4638 0.0
C2720 C 0.77399 0.18175 0.76286 0.0
C2721 C 0.77916 0.17467 0.81523 0.0
C2722 C 0.7614 0.18111 0.74829 0.0
C2723 C 0.75387 0.17288 0.78561 0.0
C2724 C 0.75909 0.16549 0.83765 0.0
C2725 C 0.77168 0.16663 0.85271 0.0
C2726 C 0.75612 0.18941 0.69378 0.0
C2727 C 0.75139 0.15637 0.87704 0.0
C2728 C 0.71988 0.18056 0.7882 0.0
C2729 C 0.71554 0.17373 0.73248 0.0
C2730 C 0.7323 0.18012 0.80727 0.0
C2731 C 0.74047 0.17237 0.77098 0.0
C2732 C 0.736 0.16496 0.71691 0.0
C2733 C 0.7236 0.16589 0.69747 0.0
C2734 C 0.73678 0.18844 0.86384 0.0
C2735 C 0.74437 0.15631 0.67842 0.0
H2736 H 0.77977 0.18805 0.73425 0.0
H2737 H 0.77572 0.16109 0.89285 0.0
H2738 H 0.75191 0.18381 0.65262 0.0
H2739 H 0.74873 0.19524 0.71582 0.0
H2740 H 0.7632 0.19551 0.67072 0.0
H2741 H 0.75698 0.15088 0.91348 0.0
H2742 H 0.74411 0.16126 0.90595 0.0
H2743 H 0.74672 0.14998 0.84119 0.0
H2744 H 0.71366 0.1867 0.81504 0.0
H2745 H 0.72021 0.16052 0.65477 0.0
H2746 H 0.74335 0.19527 0.84274 0.0
H2747 H 0.74178 0.18304 0.90299 0.0
H2748 H 0.72913 0.19347 0.8891 0.0
H2749 H 0.75103 0.16169 0.64761 0.0
H2750 H 0.73918 0.15012 0.64362 0.0
H2751 H 0.74976 0.15059 0.71462 0.0
C2752 C 0.9295 0.47575 0.90428 0.0
C2753 C 0.92208 0.46732 0.93918 0.0
C2754 C 0.92885 0.48836 0.91922 0.0
C2755 C 0.92026 0.49259 0.96841 0.0
C2756 C 0.91219 0.48416 0.0004 0.0
C2757 C 0.91338 0.47156 0.98641 0.0
C2758 C 0.93782 0.49704 0.88537 0.0
C2759 C 0.9026 0.48837 0.05106 0.0
C2760 C 0.92812 0.52193 0.06391 0.0
C2761 C 0.92198 0.53077 0.02476 0.0
C2762 C 0.92756 0.50942 0.04632 0.0
C2763 C 0.92033 0.50571 0.98974 0.0
C2764 C 0.9136 0.51457 0.95229 0.0
C2765 C 0.9147 0.52705 0.96947 0.0
C2766 C 0.93512 0.50028 0.08646 0.0
C2767 C 0.90543 0.51089 0.89337 0.0
H2768 H 0.93631 0.47239 0.86836 0.0
H2769 H 0.90762 0.46498 0.01312 0.0
H2770 H 0.93283 0.50469 0.8602 0.0
H2771 H 0.94393 0.50117 0.9246 0.0
H2772 H 0.94364 0.49233 0.84669 0.0
H2773 H 0.89606 0.4809 0.06452 0.0
H2774 H 0.90717 0.49157 0.09849 0.0
H2775 H 0.89733 0.49627 0.03016 0.0
H2776 H 0.93386 0.52485 0.10619 0.0
H2777 H 0.9099 0.53393 0.93948 0.0
H2778 H 0.94181 0.49566 0.05209 0.0
H2779 H 0.92909 0.49302 0.10805 0.0
H2780 H 0.94027 0.50469 0.12891 0.0
H2781 H 0.91113 0.5073 0.85086 0.0
H2782 H 0.89988 0.51874 0.87402 0.0
H2783 H 0.89909 0.5034 0.90915 0.0
C2784 C 0.22268 0.18387 0.73195 0.0
C2785 C 0.2177 0.17646 0.7835 0.0
C2786 C 0.23522 0.18334 0.71585 0.0
C2787 C 0.24289 0.17492 0.75078 0.0
C2788 C 0.23786 0.1672 0.80198 0.0
C2789 C 0.22532 0.16821 0.81859 0.0
C2790 C 0.2403 0.192 0.66247 0.0
C2791 C 0.24572 0.15789 0.839 0.0
C2792 C 0.2733 0.16824 0.66261 0.0
C2793 C 0.28138 0.1757 0.70001 0.0
C2794 C 0.2608 0.16747 0.68043 0.0
C2795 C 0.25627 0.17463 0.73541 0.0
C2796 C 0.26441 0.18216 0.77327 0.0
C2797 C 0.2769 0.18246 0.75568 0.0
C2798 C 0.25243 0.1591 0.64009 0.0
C2799 C 0.25987 0.19022 0.83089 0.0
H2800 H 0.2168 0.19033 0.70516 0.0
H2801 H 0.22142 0.1624 0.85805 0.0
H2802 H 0.24761 0.19784 0.68523 0.0
H2803 H 0.24458 0.18669 0.62035 0.0
H2804 H 0.2331 0.19809 0.6406 0.0
H2805 H 0.24025 0.15209 0.8745 0.0
H2806 H 0.25041 0.15182 0.80162 0.0
H2807 H 0.25299 0.16267 0.86864 0.0
H2808 H 0.27679 0.16292 0.61996 0.0
H2809 H 0.28312 0.1883 0.78439 0.0
H2810 H 0.24555 0.16466 0.6119 0.0
H2811 H 0.24728 0.15294 0.67509 0.0
H2812 H 0.25758 0.15337 0.6028 0.0
H2813 H 0.25304 0.19692 0.81108 0.0
H2814 H 0.26745 0.19539 0.8559 0.0
H2815 H 0.25515 0.18456 0.87002 0.0
C2816 C 0.58056 0.47354 0.58674 0.0
C2817 C 0.57222 0.46596 0.55197 0.0
C2818 C 0.58177 0.48602 0.56945 0.0
C2819 C 0.57411 0.49107 0.51807 0.0
C2820 C 0.5657 0.48341 0.48281 0.0
C2821 C 0.56502 0.47089 0.49942 0.0
C2822 C 0.59112 0.49382 0.60651 0.0
C2823 C 0.55711 0.48852 0.42924 0.0
C2824 C 0.56642 0.52504 0.52606 0.0
C2825 C 0.57301 0.52966 0.47019 0.0
C2826 C 0.56681 0.51251 0.54262 0.0
C2827 C 0.57432 0.50449 0.50375 0.0
C2828 C 0.58142 0.5092 0.44902 0.0
C2829 C 0.58049 0.52173 0.43201 0.0
C2830 C 0.55881 0.50778 0.59995 0.0
C2831 C 0.58984 0.501 0.40793 0.0
H2832 H 0.58621 0.46967 0.62697 0.0
H2833 H 0.5585 0.46503 0.47288 0.0
H2834 H 0.59699 0.4988 0.56925 0.0
H2835 H 0.58636 0.50086 0.6379 0.0
H2836 H 0.59713 0.48825 0.64046 0.0
H2837 H 0.55114 0.48131 0.40646 0.0
H2838 H 0.55114 0.49571 0.45225 0.0
H2839 H 0.56245 0.49296 0.38778 0.0
H2840 H 0.56053 0.53116 0.5552 0.0
H2841 H 0.58565 0.52534 0.38908 0.0
H2842 H 0.56451 0.50302 0.63873 0.0
H2843 H 0.55216 0.50093 0.57969 0.0
H2844 H 0.55358 0.51526 0.62552 0.0
H2845 H 0.59593 0.49567 0.44245 0.0
H2846 H 0.59564 0.50631 0.3717 0.0
H2847 H 0.5843 0.49427 0.37843 0.0
C2848 C 0.26796 0.8165 0.34955 0.0
C2849 C 0.27613 0.82452 0.31688 0.0
C2850 C 0.25538 0.81661 0.3332 0.0
C2851 C 0.25092 0.82522 0.28485 0.0
C2852 C 0.25905 0.83393 0.25569 0.0
C2853 C 0.27163 0.8333 0.27101 0.0
C2854 C 0.24706 0.80695 0.36398 0.0
C2855 C 0.25456 0.84355 0.20594 0.0
C2856 C 0.22321 0.8165 0.17762 0.0
C2857 C 0.21362 0.82214 0.21361 0.0
C2858 C 0.23538 0.81735 0.20081 0.0
C2859 C 0.23804 0.82437 0.25997 0.0
C2860 C 0.22841 0.83043 0.29519 0.0
C2861 C 0.21625 0.82904 0.27226 0.0
C2862 C 0.24536 0.81048 0.16289 0.0
C2863 C 0.23095 0.83835 0.35691 0.0
H2864 H 0.27152 0.80962 0.3844 0.0
H2865 H 0.27801 0.83952 0.24602 0.0
H2866 H 0.23876 0.81128 0.38648 0.0
H2867 H 0.24389 0.80058 0.32332 0.0
H2868 H 0.25178 0.80149 0.40412 0.0
H2869 H 0.26166 0.85067 0.19569 0.0
H2870 H 0.25209 0.83909 0.15687 0.0
H2871 H 0.24616 0.84813 0.22578 0.0
H2872 H 0.22112 0.81106 0.1327 0.0
H2873 H 0.20881 0.83345 0.29983 0.0
H2874 H 0.25018 0.80411 0.19819 0.0
H2875 H 0.25231 0.81705 0.14314 0.0
H2876 H 0.24168 0.80507 0.1193 0.0
H2877 H 0.23487 0.83266 0.39856 0.0
H2878 H 0.22252 0.84297 0.37619 0.0
H2879 H 0.23789 0.84549 0.3441 0.0
C2880 C 0.56334 0.97214 0.50785 0.0
C2881 C 0.57031 0.96683 0.45534 0.0
C2882 C 0.56392 0.98478 0.52106 0.0
C2883 C 0.57197 0.99224 0.48219 0.0
C2884 C 0.57922 0.9869 0.42982 0.0
C2885 C 0.57813 0.97424 0.41615 0.0
C2886 C 0.55575 0.99018 0.57584 0.0
C2887 C 0.58814 0.99453 0.38869 0.0
C2888 C 0.56411 0.02618 0.4758 0.0
C2889 C 0.57122 0.03086 0.52957 0.0
C2890 C 0.56447 0.01366 0.45886 0.0
C2891 C 0.5724 0.0057 0.49534 0.0
C2892 C 0.57998 0.01047 0.54792 0.0
C2893 C 0.57915 0.02299 0.56523 0.0
C2894 C 0.55597 0.00887 0.40394 0.0
C2895 C 0.58879 0.0023 0.58666 0.0
H2896 H 0.5572 0.96642 0.53775 0.0
H2897 H 0.58358 0.97009 0.3759 0.0
H2898 H 0.56144 0.99461 0.61591 0.0
H2899 H 0.54977 0.99742 0.55358 0.0
H2900 H 0.5498 0.98313 0.60032 0.0
H2901 H 0.59354 0.98886 0.35217 0.0
H2902 H 0.5831 0.00168 0.35964 0.0
H2903 H 0.59462 -0.00063 0.42336 0.0
H2904 H 0.55792 0.03225 0.44841 0.0
H2905 H 0.58474 0.02663 0.60635 0.0
H2906 H 0.54936 0.00222 0.42651 0.0
H2907 H 0.56128 0.00387 0.36437 0.0
H2908 H 0.55067 0.01635 0.37884 0.0
H2909 H 0.58354 0.99562 0.61804 0.0
H2910 H 0.59493 0.00766 0.62091 0.0
H2911 H 0.59453 0.99693 0.55055 0.0
C2912 C 0.22249 0.33141 0.74749 0.0
C2913 C 0.21834 0.32355 0.79926 0.0
C2914 C 0.23504 0.33219 0.73135 0.0
C2915 C 0.24352 0.32454 0.76604 0.0
C2916 C 0.23939 0.31676 0.81937 0.0
C2917 C 0.22684 0.31653 0.83617 0.0
C2918 C 0.23916 0.34093 0.67599 0.0
C2919 C 0.24811 0.30822 0.85625 0.0
C2920 C 0.27257 0.3155 0.671 0.0
C2921 C 0.28151 0.32231 0.70588 0.0
C2922 C 0.26015 0.31613 0.69022 0.0
C2923 C 0.25659 0.32412 0.7439 0.0
C2924 C 0.26554 0.33141 0.77735 0.0
C2925 C 0.27796 0.33023 0.75878 0.0
C2926 C 0.25092 0.30796 0.6546 0.0
C2927 C 0.26202 0.34035 0.83305 0.0
H2928 H 0.21588 0.33689 0.71925 0.0
H2929 H 0.22358 0.31035 0.8757 0.0
H2930 H 0.24705 0.34655 0.694 0.0
H2931 H 0.24233 0.33563 0.63091 0.0
H2932 H 0.23165 0.34721 0.65959 0.0
H2933 H 0.24348 0.30299 0.89764 0.0
H2934 H 0.25212 0.30157 0.81942 0.0
H2935 H 0.25585 0.3135 0.87865 0.0
H2936 H 0.27537 0.30928 0.63057 0.0
H2937 H 0.2849 0.33556 0.78543 0.0
H2938 H 0.24363 0.31362 0.63055 0.0
H2939 H 0.24637 0.30186 0.69242 0.0
H2940 H 0.25524 0.30213 0.61461 0.0
H2941 H 0.25462 0.34657 0.81487 0.0
H2942 H 0.26995 0.34602 0.85014 0.0
H2943 H 0.25836 0.33526 0.8777 0.0
C2944 C 0.91727 0.97307 0.04656 0.0
C2945 C 0.92514 0.96516 0.0107 0.0
C2946 C 0.91655 0.9856 0.02973 0.0
C2947 C 0.92422 0.99036 0.97754 0.0
C2948 C 0.93204 0.98236 0.94055 0.0
C2949 C 0.93226 0.9698 0.95691 0.0
C2950 C 0.90783 0.9938 0.0689 0.0
C2951 C 0.94065 0.98714 0.88609 0.0
C2952 C 0.91883 0.02223 0.90297 0.0
C2953 C 0.92661 0.02939 0.94382 0.0
C2954 C 0.91772 0.0095 0.91424 0.0
C2955 C 0.9249 0.00384 0.96581 0.0
C2956 C 0.93296 0.01105 0.0061 0.0
C2957 C 0.93355 0.02377 0.99535 0.0
C2958 C 0.90876 0.00214 0.87175 0.0
C2959 C 0.94106 0.00532 0.0601 0.0
H2960 H 0.91167 0.96944 0.08773 0.0
H2961 H 0.93841 0.9637 0.92944 0.0
H2962 H 0.91315 0.00024 0.10148 0.0
H2963 H 0.90228 -0.00055 0.03313 0.0
H2964 H 0.9015 0.98845 0.10206 0.0
H2965 H 0.94572 0.97961 0.85992 0.0
H2966 H 0.93546 0.99246 0.84732 0.0
H2967 H 0.94744 0.99349 0.90946 0.0
H2968 H 0.9134 0.02663 0.86347 0.0
H2969 H 0.93966 0.02932 0.02649 0.0
H2970 H 0.9021 0.99737 0.90556 0.0
H2971 H 0.91374 0.99493 0.84264 0.0
H2972 H 0.90358 0.00799 0.83521 0.0
H2973 H 0.93531 0.00092 0.09995 0.0
H2974 H 0.94718 0.01218 0.08503 0.0
H2975 H 0.94687 0.99801 0.03706 0.0
C2976 C 0.27641 0.66699 0.23268 0.0
C2977 C 0.27965 0.67414 0.28939 0.0
C2978 C 0.26406 0.66582 0.21282 0.0
C2979 C 0.25487 0.67238 0.24895 0.0
C2980 C 0.25814 0.67962 0.30627 0.0
C2981 C 0.27049 0.68022 0.32659 0.0
C2982 C 0.26084 0.65764 0.15311 0.0
C2983 C 0.24866 0.68706 0.34483 0.0
C2984 C 0.22514 0.68078 0.15908 0.0
C2985 C 0.21671 0.67312 0.19248 0.0
C2986 C 0.23767 0.68049 0.17618 0.0
C2987 C 0.24186 0.67202 0.22596 0.0
C2988 C 0.23345 0.66379 0.25698 0.0
C2989 C 0.2209 0.66463 0.24088 0.0
C2990 C 0.24628 0.68968 0.14361 0.0
C2991 C 0.23765 0.65433 0.30835 0.0
H2992 H 0.28354 0.66224 0.20426 0.0
H2993 H 0.27305 0.68585 0.37003 0.0
H2994 H 0.25356 0.651 0.16806 0.0
H2995 H 0.25712 0.66328 0.11069 0.0
H2996 H 0.26894 0.65243 0.13399 0.0
H2997 H 0.25279 0.69242 0.38735 0.0
H2998 H 0.244 0.69354 0.30951 0.0
H2999 H 0.24149 0.6809 0.36614 0.0
H3000 H 0.22182 0.68742 0.12211 0.0
H3001 H 0.21434 0.65866 0.26628 0.0
H3002 H 0.25413 0.68488 0.11917 0.0
H3003 H 0.25014 0.69584 0.18347 0.0
H3004 H 0.24161 0.69544 0.10456 0.0
H3005 H 0.24567 0.64914 0.28825 0.0
H3006 H 0.23024 0.64769 0.32143 0.0
H3007 H 0.24065 0.65899 0.35588 0.0
C3008 C 0.43415 0.02242 0.50584 0.0
C3009 C 0.42657 0.02791 0.55497 0.0
C3010 C 0.43349 0.00978 0.49269 0.0
C3011 C 0.42475 0.00254 0.528 0.0
C3012 C 0.41701 0.00805 0.57761 0.0
C3013 C 0.41816 0.0207 0.59143 0.0
C3014 C 0.44219 0.0042 0.44104 0.0
C3015 C 0.40736 0.00065 0.61483 0.0
C3016 C 0.41748 0.97272 0.4359 0.0
C3017 C 0.42473 0.96431 0.47224 0.0
C3018 C 0.4168 0.9851 0.45613 0.0
C3019 C 0.42385 0.98919 0.51258 0.0
C3020 C 0.431 0.98067 0.55014 0.0
C3021 C 0.43121 0.9683 0.53005 0.0
C3022 C 0.40881 0.99386 0.41598 0.0
C3023 C 0.43894 0.98473 0.6093 0.0
H3024 H 0.44073 0.02802 0.47814 0.0
H3025 H 0.41225 0.02502 0.62904 0.0
H3026 H 0.44741 0.99651 0.46461 0.0
H3027 H 0.4369 0.00032 0.39768 0.0
H3028 H 0.44886 0.01102 0.42068 0.0
H3029 H 0.40203 0.00633 0.65155 0.0
H3030 H 0.40088 0.99652 0.57747 0.0
H3031 H 0.41173 0.99295 0.64298 0.0
H3032 H 0.41235 0.96962 0.39165 0.0
H3033 H 0.43687 0.96181 0.55806 0.0
H3034 H 0.4147 0.00041 0.38736 0.0
H3035 H 0.40295 -0.00065 0.45099 0.0
H3036 H 0.4028 0.98898 0.37899 0.0
H3037 H 0.44628 0.99098 0.59048 0.0
H3038 H 0.44335 0.97684 0.63578 0.0
H3039 H 0.4334 0.98997 0.64692 0.0
C3040 C 0.72143 0.66347 0.25891 0.0
C3041 C 0.71724 0.67144 0.31008 0.0
C3042 C 0.73401 0.66259 0.24367 0.0
C3043 C 0.74247 0.67024 0.27855 0.0
C3044 C 0.73829 0.67805 0.33164 0.0
C3045 C 0.72571 0.67839 0.34762 0.0
C3046 C 0.73817 0.6538 0.18858 0.0
C3047 C 0.74697 0.68661 0.36866 0.0
C3048 C 0.77701 0.66516 0.26944 0.0
C3049 C 0.78031 0.67315 0.21639 0.0
C3050 C 0.76464 0.66374 0.28865 0.0
C3051 C 0.75549 0.67086 0.25574 0.0
C3052 C 0.75881 0.67891 0.20192 0.0
C3053 C 0.77117 0.67978 0.18206 0.0
C3054 C 0.76139 0.65472 0.3444 0.0
C3055 C 0.74936 0.68691 0.16683 0.0
H3056 H 0.71483 0.65805 0.23021 0.0
H3057 H 0.7224 0.68464 0.38671 0.0
H3058 H 0.74111 0.65906 0.14291 0.0
H3059 H 0.74622 0.64838 0.20626 0.0
H3060 H 0.73075 0.64734 0.17317 0.0
H3061 H 0.74235 0.6917 0.41068 0.0
H3062 H 0.75483 0.6814 0.39023 0.0
H3063 H 0.75081 0.6934 0.33207 0.0
H3064 H 0.78411 0.65997 0.29566 0.0
H3065 H 0.77376 0.68605 0.14149 0.0
H3066 H 0.75404 0.64839 0.3266 0.0
H3067 H 0.75774 0.65973 0.38938 0.0
H3068 H 0.76945 0.64917 0.36085 0.0
H3069 H 0.74217 0.68111 0.14283 0.0
H3070 H 0.75351 0.69286 0.12684 0.0
H3071 H 0.74472 0.69289 0.20494 0.0
C3072 C 0.08205 0.97341 0.01493 0.0
C3073 C 0.07321 0.96868 0.0598 0.0
C3074 C 0.0827 0.98606 0.00165 0.0
C3075 C 0.07398 0.99406 0.03188 0.0
C3076 C 0.06527 0.98935 0.07903 0.0
C3077 C 0.06513 0.97669 0.09334 0.0
C3078 C 0.0924 0.99079 0.95307 0.0
C3079 C 0.05561 0.99752 0.11084 0.0
C3080 C 0.07841 0.0287 0.02584 0.0
C3081 C 0.07174 0.0318 0.96711 0.0
C3082 C 0.07946 0.01641 0.04693 0.0
C3083 C 0.07329 0.0071 0.00967 0.0
C3084 C 0.06645 0.01023 0.95061 0.0
C3085 C 0.06594 0.02253 0.92934 0.0
C3086 C 0.08719 0.01336 0.10868 0.0
C3087 C 0.05948 0.0006 0.91056 0.0
H3088 H 0.0883 0.96716 0.98927 0.0
H3089 H 0.05821 0.97295 0.1274 0.0
H3090 H 0.08801 0.99369 0.90457 0.0
H3091 H 0.09707 -0.00101 0.97491 0.0
H3092 H 0.09945 0.9837 0.94128 0.0
H3093 H 0.05003 0.99259 0.14972 0.0
H3094 H 0.05994 0.00565 0.13521 0.0
H3095 H 0.04934 0.00099 0.07047 0.0
H3096 H 0.08295 0.0359 0.05481 0.0
H3097 H 0.06066 0.02497 0.88435 0.0
H3098 H 0.09435 0.00652 0.09477 0.0
H3099 H 0.08137 0.00913 0.14884 0.0
H3100 H 0.09177 0.02163 0.1304 0.0
H3101 H 0.06597 0.99369 0.88955 0.0
H3102 H 0.05416 0.00464 0.86763 0.0
H3103 H 0.05301 0.99564 0.9447 0.0
C3104 C 0.7276 0.31791 0.64736 0.0
C3105 C 0.71915 0.32538 0.68184 0.0
C3106 C 0.74013 0.31818 0.66462 0.0
C3107 C 0.74427 0.3264 0.7159 0.0
C3108 C 0.73586 0.33461 0.7471 0.0
C3109 C 0.72333 0.33382 0.73064 0.0
C3110 C 0.74877 0.30908 0.63137 0.0
C3111 C 0.73999 0.34382 0.80006 0.0
C3112 C 0.77221 0.31711 0.81982 0.0
C3113 C 0.78166 0.32323 0.78523 0.0
C3114 C 0.75998 0.31807 0.79762 0.0
C3115 C 0.75714 0.32568 0.74099 0.0
C3116 C 0.76662 0.3323 0.70778 0.0
C3117 C 0.77882 0.33081 0.72956 0.0
C3118 C 0.75015 0.31064 0.83336 0.0
C3119 C 0.76388 0.34084 0.64893 0.0
H3120 H 0.72429 0.31129 0.61021 0.0
H3121 H 0.71675 0.33962 0.75704 0.0
H3122 H 0.75692 0.31388 0.61016 0.0
H3123 H 0.75216 0.30248 0.67027 0.0
H3124 H 0.74425 0.30382 0.58971 0.0
H3125 H 0.73268 0.35064 0.81208 0.0
H3126 H 0.7425 0.33895 0.84781 0.0
H3127 H 0.7483 0.34881 0.78221 0.0
H3128 H 0.77445 0.31115 0.86244 0.0
H3129 H 0.78617 0.3356 0.70311 0.0
H3130 H 0.74559 0.30441 0.79627 0.0
H3131 H 0.74298 0.31683 0.85432 0.0
H3132 H 0.75394 0.305 0.87576 0.0
H3133 H 0.76037 0.33548 0.60486 0.0
H3134 H 0.77215 0.34605 0.63229 0.0
H3135 H 0.75658 0.34749 0.66355 0.0
C3136 C 0.023 0.56536 0.14638 0.0
C3137 C 0.03015 0.57335 0.1068 0.0
C3138 C 0.01011 0.56603 0.14496 0.0
C3139 C 0.00433 0.57521 0.10488 0.0
C3140 C 0.01157 0.5839 0.06906 0.0
C3141 C 0.02442 0.58271 0.06929 0.0
C3142 C 0.00272 0.55637 0.18229 0.0
C3143 C 0.00574 0.59411 0.02798 0.0
C3144 C 0.97316 0.56759 0.02949 0.0
C3145 C 0.96517 0.57287 0.07727 0.0
C3146 C 0.98593 0.56829 0.03807 0.0
C3147 C 0.99081 0.57484 0.09447 0.0
C3148 C 0.98277 0.58062 0.14145 0.0
C3149 C 0.97 0.57935 0.13302 0.0
C3150 C 0.9942 0.56169 0.98795 0.0
C3151 C 0.98764 0.58806 0.20065 0.0
H3152 H 0.02745 0.55806 0.17498 0.0
H3153 H 0.03 0.58895 0.03917 0.0
H3154 H 0.99561 0.56074 0.21481 0.0
H3155 H 0.99787 0.55047 0.14467 0.0
H3156 H 0.00859 0.55041 0.21487 0.0
H3157 H 0.01258 0.60116 0.01226 0.0
H3158 H 0.00146 0.59022 0.98134 0.0
H3159 H -0.00165 0.59866 0.05783 0.0
H3160 H 0.96939 0.56247 0.98679 0.0
H3161 H 0.96378 0.5835 0.16967 0.0
H3162 H 4e-05 0.55493 0.01536 0.0
H3163 H 0.00045 0.56836 0.96273 0.0
H3164 H 0.98891 0.55676 0.94787 0.0
H3165 H 0.99274 0.58199 0.23628 0.0
H3166 H 0.98017 0.59274 0.22942 0.0
H3167 H 0.99422 0.59511 0.182 0.0
C3168 C 0.6811 0.72269 0.30396 0.0
C3169 C 0.67516 0.71491 0.35039 0.0
C3170 C 0.68033 0.7355 0.31069 0.0
C3171 C 0.67307 0.74062 0.36361 0.0
C3172 C 0.66667 0.73278 0.40911 0.0
C3173 C 0.668 0.71997 0.40281 0.0
C3174 C 0.68763 0.74355 0.26252 0.0
C3175 C 0.65847 0.7379 0.46447 0.0
C3176 C 0.68154 0.77295 0.41886 0.0
C3177 C 0.67393 0.78005 0.37669 0.0
C3178 C 0.68115 0.76007 0.41634 0.0
C3179 C 0.67262 0.75419 0.37245 0.0
C3180 C 0.66439 0.76135 0.33295 0.0
C3181 C 0.66532 0.77422 0.33443 0.0
C3182 C 0.69036 0.75277 0.45756 0.0
C3183 C 0.65485 0.75541 0.28758 0.0
H3184 H 0.68673 0.71874 0.26385 0.0
H3185 H 0.66336 0.71391 0.43841 0.0
H3186 H 0.68136 0.74975 0.23406 0.0
H3187 H 0.69406 0.74944 0.29201 0.0
H3188 H 0.69304 0.73809 0.2251 0.0
H3189 H 0.65339 0.73056 0.49206 0.0
H3190 H 0.66406 0.74312 0.50193 0.0
H3191 H 0.65172 0.74443 0.44217 0.0
H3192 H 0.68827 0.77749 0.4511 0.0
H3193 H 0.65938 0.77975 0.30223 0.0
H3194 H 0.69658 0.74768 0.42256 0.0
H3195 H 0.68559 0.74586 0.48966 0.0
H3196 H 0.69605 0.75874 0.49115 0.0
H3197 H 0.65944 0.75089 0.24364 0.0
H3198 H 0.64812 0.7622 0.26756 0.0
H3199 H 0.64979 0.74816 0.31599 0.0
C3200 C 0.47099 0.41778 0.65801 0.0
C3201 C 0.46616 0.42394 0.60122 0.0
C3202 C 0.48376 0.41636 0.66596 0.0
C3203 C 0.4918 0.42168 0.61733 0.0
C3204 C 0.48692 0.42788 0.55982 0.0
C3205 C 0.47414 0.42874 0.55188 0.0
C3206 C 0.48864 0.40929 0.72647 0.0
C3207 C 0.49518 0.43398 0.5078 0.0
C3208 C 0.52414 0.43134 0.66504 0.0
C3209 C 0.53117 0.42302 0.62684 0.0
C3210 C 0.51125 0.43072 0.66471 0.0
C3211 C 0.50534 0.42127 0.62721 0.0
C3212 C 0.51246 0.41228 0.59285 0.0
C3213 C 0.52532 0.41342 0.5919 0.0
C3214 C 0.50399 0.44069 0.70033 0.0
C3215 C 0.50649 0.40181 0.55451 0.0
H3216 H 0.46477 0.414 0.69592 0.0
H3217 H 0.4704 0.43362 0.50832 0.0
H3218 H 0.49516 0.40208 0.70909 0.0
H3219 H 0.4938 0.41556 0.76072 0.0
H3220 H 0.48116 0.40486 0.75633 0.0
H3221 H 0.48989 0.43866 0.46682 0.0
H3222 H 0.50114 0.44089 0.53332 0.0
H3223 H 0.50132 0.42706 0.4839 0.0
H3224 H 0.52869 0.43882 0.69172 0.0
H3225 H 0.53079 0.40691 0.56292 0.0
H3226 H 0.49693 0.4366 0.73429 0.0
H3227 H 0.49908 0.44632 0.66174 0.0
H3228 H 0.50996 0.44686 0.73113 0.0
H3229 H 0.49911 0.39756 0.58571 0.0
H3230 H 0.51325 0.39458 0.5402 0.0
H3231 H 0.50218 0.40536 0.50715 0.0
C3232 C 0.82992 0.27476 0.90508 0.0
C3233 C 0.8231 0.27998 0.85187 0.0
C3234 C 0.8312 0.26193 0.91026 0.0
C3235 C 0.82502 0.25425 0.86296 0.0
C3236 C 0.8181 0.25955 0.80924 0.0
C3237 C 0.81744 0.27238 0.80354 0.0
C3238 C 0.83909 0.25661 0.96641 0.0
C3239 C 0.81102 0.25169 0.75919 0.0
C3240 C 0.83241 0.22067 0.83114 0.0
C3241 C 0.8234 0.21484 0.87073 0.0
C3242 C 0.83362 0.23353 0.83177 0.0
C3243 C 0.82529 0.24067 0.87078 0.0
C3244 C 0.81643 0.23478 0.91249 0.0
C3245 C 0.81574 0.2219 0.91287 0.0
C3246 C 0.8435 0.23947 0.78875 0.0
C3247 C 0.80714 0.24207 0.9532 0.0
H3248 H 0.83433 0.28071 0.94217 0.0
H3249 H 0.81206 0.27649 0.76286 0.0
H3250 H 0.83326 0.2514 0.0028 0.0
H3251 H 0.84586 0.25004 0.94467 0.0
H3252 H 0.84413 0.26385 0.99509 0.0
H3253 H 0.80584 0.25729 0.7214 0.0
H3254 H 0.81739 0.24552 0.7312 0.0
H3255 H 0.80439 0.24576 0.78708 0.0
H3256 H 0.8384 0.21518 0.79901 0.0
H3257 H 0.80871 0.21738 0.94311 0.0
H3258 H 0.84843 0.24662 0.81856 0.0
H3259 H 0.83924 0.24408 0.74415 0.0
H3260 H 0.8503 0.23265 0.76971 0.0
H3261 H 0.81184 0.24887 0.98636 0.0
H3262 H 0.80126 0.23609 0.98567 0.0
H3263 H 0.80111 0.2473 0.91784 0.0
C3264 C 0.97107 0.41836 0.84964 0.0
C3265 C 0.96579 0.42508 0.90326 0.0
C3266 C 0.98389 0.4169 0.84522 0.0
C3267 C 0.99154 0.42267 0.89417 0.0
C3268 C 0.98621 0.4295 0.94823 0.0
C3269 C 0.97338 0.43044 0.95273 0.0
C3270 C 0.98924 0.40921 0.78827 0.0
C3271 C 0.99406 0.43609 0.00034 0.0
C3272 C 0.02463 0.41391 0.93004 0.0
C3273 C 0.031 0.42298 0.89357 0.0
C3274 C 0.01176 0.41315 0.92689 0.0
C3275 C 0.00514 0.42196 0.88838 0.0
C3276 C 0.01157 0.43088 0.84959 0.0
C3277 C 0.02446 0.43115 0.8518 0.0
C3278 C 0.00523 0.40324 0.96697 0.0
C3279 C 0.00484 0.44064 0.80938 0.0
H3280 H 0.96517 0.41415 0.81159 0.0
H3281 H 0.96929 0.43574 0.99381 0.0
H3282 H 0.99495 0.41506 0.75438 0.0
H3283 H 0.99535 0.402 0.80967 0.0
H3284 H 0.98199 0.40471 0.75698 0.0
H3285 H 0.98846 0.44125 0.0382 0.0
H3286 H -0.0001 0.42939 0.02812 0.0
H3287 H 0.00033 0.44266 0.97428 0.0
H3288 H 0.02971 0.40751 0.96183 0.0
H3289 H 0.02939 0.43822 0.82391 0.0
H3290 H 0.99811 0.39872 0.93497 0.0
H3291 H 0.00047 0.40741 0.01139 0.0
H3292 H 0.0117 0.39611 0.98608 0.0
H3293 H 0.99798 0.43638 0.77479 0.0
H3294 H 0.0112 0.4464 0.77848 0.0
H3295 H -0.00027 0.44673 0.84499 0.0
C3296 C 0.83093 0.77595 0.19002 0.0
C3297 C 0.82141 0.78171 0.15404 0.0
C3298 C 0.83224 0.76309 0.18869 0.0
C3299 C 0.82348 0.7559 0.15303 0.0
C3300 C 0.81396 0.76173 0.11572 0.0
C3301 C 0.81319 0.7746 0.11563 0.0
C3302 C 0.84279 0.75721 0.22675 0.0
C3303 C 0.8042 0.75438 0.07892 0.0
C3304 C 0.82797 0.72212 0.11032 0.0
C3305 C 0.82187 0.71647 0.1649 0.0
C3306 C 0.82915 0.73498 0.1075 0.0
C3307 C 0.82361 0.74228 0.15893 0.0
C3308 C 0.81751 0.73656 0.21435 0.0
C3309 C 0.81692 0.72369 0.21731 0.0
C3310 C 0.83615 0.74074 0.04914 0.0
C3311 C 0.81113 0.74402 0.26899 0.0
H3312 H 0.83734 0.78149 0.21925 0.0
H3313 H 0.80577 0.77908 0.08826 0.0
H3314 H 0.83924 0.75226 0.27213 0.0
H3315 H 0.84748 0.75034 0.19386 0.0
H3316 H 0.84966 0.76411 0.24411 0.0
H3317 H 0.79757 0.76034 0.05117 0.0
H3318 H 0.8085 0.74798 0.04184 0.0
H3319 H 0.79902 0.7487 0.11623 0.0
H3320 H 0.83187 0.71648 0.07011 0.0
H3321 H 0.81212 0.71928 0.2592 0.0
H3322 H 0.84297 0.74746 0.06892 0.0
H3323 H 0.82972 0.74587 0.01567 0.0
H3324 H 0.84104 0.73377 0.01774 0.0
H3325 H 0.81778 0.75026 0.29435 0.0
H3326 H 0.80677 0.73813 0.30854 0.0
H3327 H 0.8039 0.74987 0.24547 0.0
C3328 C 0.47192 0.58246 0.42601 0.0
C3329 C 0.46545 0.57249 0.39839 0.0
C3330 C 0.48478 0.58315 0.4204 0.0
C3331 C 0.49128 0.57337 0.38902 0.0
C3332 C 0.48473 0.56345 0.35939 0.0
C3333 C 0.47185 0.56325 0.36337 0.0
C3334 C 0.49142 0.59409 0.45036 0.0
C3335 C 0.49133 0.55264 0.32752 0.0
C3336 C 0.52527 0.57574 0.34454 0.0
C3337 C 0.53067 0.57079 0.40329 0.0
C3338 C 0.51242 0.57704 0.33981 0.0
C3339 C 0.5049 0.5728 0.39399 0.0
C3340 C 0.51037 0.56767 0.45306 0.0
C3341 C 0.52321 0.56694 0.45746 0.0
C3342 C 0.50691 0.58296 0.2772 0.0
C3343 C 0.50268 0.56268 0.51105 0.0
H3344 H 0.46693 0.58967 0.45249 0.0
H3345 H 0.46682 0.5555 0.34243 0.0
H3346 H 0.49633 0.59128 0.49744 0.0
H3347 H 0.49842 0.59761 0.41398 0.0
H3348 H 0.485 0.60169 0.46348 0.0
H3349 H 0.48487 0.54607 0.30292 0.0
H3350 H 0.49804 0.55584 0.28877 0.0
H3351 H 0.49659 0.54766 0.36743 0.0
H3352 H 0.53109 0.57879 0.30288 0.0
H3353 H 0.52741 0.56298 0.5026 0.0
H3354 H 0.50093 0.59077 0.29241 0.0
H3355 H 0.50104 0.57624 0.24974 0.0
H3356 H 0.51407 0.5864 0.24146 0.0
H3357 H 0.49699 0.57013 0.5334 0.0
H3358 H 0.50839 0.55859 0.55224 0.0
H3359 H 0.49628 0.55552 0.49165 0.0
C3360 C 0.68374 0.22251 0.6085 0.0
C3361 C 0.67523 0.21613 0.64895 0.0
C3362 C 0.68359 0.23539 0.60524 0.0
C3363 C 0.67446 0.24199 0.64159 0.0
C3364 C 0.66539 0.23554 0.67912 0.0
C3365 C 0.66601 0.22267 0.68335 0.0
C3366 C 0.69363 0.24195 0.56617 0.0
C3367 C 0.65527 0.24226 0.71666 0.0
C3368 C 0.68246 0.27409 0.70245 0.0
C3369 C 0.67735 0.28141 0.65094 0.0
C3370 C 0.6816 0.26124 0.69977 0.0
C3371 C 0.67511 0.25562 0.6454 0.0
C3372 C 0.6696 0.26299 0.59427 0.0
C3373 C 0.67097 0.27583 0.59701 0.0
C3374 C 0.6879 0.25368 0.75423 0.0
C3375 C 0.66229 0.25732 0.53679 0.0
H3376 H 0.69092 0.21745 0.58218 0.0
H3377 H 0.65935 0.21772 0.71408 0.0
H3378 H 0.68959 0.24858 0.52947 0.0
H3379 H 0.69942 0.24729 0.60221 0.0
H3380 H 0.69964 0.23546 0.5377 0.0
H3381 H 0.64807 0.23588 0.7359 0.0
H3382 H 0.65922 0.2473 0.76075 0.0
H3383 H 0.65088 0.24916 0.68276 0.0
H3384 H 0.6875 0.27841 0.74381 0.0
H3385 H 0.66695 0.28152 0.55741 0.0
H3386 H 0.69465 0.24734 0.73034 0.0
H3387 H 0.68106 0.24794 0.78159 0.0
H3388 H 0.6928 0.25949 0.79218 0.0
H3389 H 0.66835 0.25143 0.50505 0.0
H3390 H 0.65799 0.26438 0.50342 0.0
H3391 H 0.65494 0.25132 0.55781 0.0
C3392 C 0.32012 0.27306 0.6995 0.0
C3393 C 0.32471 0.28055 0.64726 0.0
C3394 C 0.32098 0.26022 0.69529 0.0
C3395 C 0.32701 0.2548 0.63869 0.0
C3396 C 0.33221 0.26236 0.5874 0.0
C3397 C 0.33075 0.27519 0.59155 0.0
C3398 C 0.31496 0.25247 0.74994 0.0
C3399 C 0.33912 0.25692 0.52776 0.0
C3400 C 0.33491 0.22123 0.66802 0.0
C3401 C 0.32526 0.21536 0.63364 0.0
C3402 C 0.33612 0.23409 0.66616 0.0
C3403 C 0.32714 0.24119 0.63162 0.0
C3404 C 0.31756 0.23524 0.59532 0.0
C3405 C 0.31688 0.22237 0.59572 0.0
C3406 C 0.34674 0.24009 0.70307 0.0
C3407 C 0.30757 0.24248 0.5597 0.0
H3408 H 0.31533 0.27724 0.74224 0.0
H3409 H 0.33437 0.28102 0.5514 0.0
H3410 H 0.30781 0.24651 0.72668 0.0
H3411 H 0.32186 0.24634 0.7741 0.0
H3412 H 0.3106 0.25816 0.79041 0.0
H3413 H 0.34377 0.26409 0.4966 0.0
H3414 H 0.34614 0.25028 0.54615 0.0
H3415 H 0.33268 0.25177 0.49442 0.0
H3416 H 0.34144 0.21577 0.69688 0.0
H3417 H 0.30935 0.21781 0.5696 0.0
H3418 H 0.34332 0.24478 0.74966 0.0
H3419 H 0.35109 0.24719 0.6703 0.0
H3420 H 0.35385 0.23328 0.71843 0.0
H3421 H 0.30232 0.2479 0.59788 0.0
H3422 H 0.30105 0.23645 0.53164 0.0
H3423 H 0.31166 0.24911 0.52314 0.0
C3424 C 0.16669 0.72016 0.09183 0.0
C3425 C 0.17314 0.71465 0.14562 0.0
C3426 C 0.16514 0.73298 0.08937 0.0
C3427 C 0.17064 0.74041 0.14035 0.0
C3428 C 0.1771 0.73484 0.19499 0.0
C3429 C 0.17807 0.722 0.19759 0.0
C3430 C 0.1578 0.73859 0.03182 0.0
C3431 C 0.18344 0.74245 0.24914 0.0
C3432 C 0.18023 0.77299 0.09748 0.0
C3433 C 0.17199 0.77989 0.137 0.0
C3434 C 0.17971 0.76011 0.09683 0.0
C3435 C 0.17042 0.75403 0.13466 0.0
C3436 C 0.16161 0.761 0.17143 0.0
C3437 C 0.16266 0.77387 0.17333 0.0
C3438 C 0.18951 0.75302 0.05878 0.0
C3439 C 0.15131 0.75484 0.21023 0.0
H3440 H 0.16281 0.71443 0.05192 0.0
H3441 H 0.18316 0.71773 0.23884 0.0
H3442 H 0.15087 0.74511 0.0524 0.0
H3443 H 0.16399 0.7439 0.9978 0.0
H3444 H 0.15301 0.73149 0.0008 0.0
H3445 H 0.18806 0.73666 0.28823 0.0
H3446 H 0.19044 0.74849 0.22504 0.0
H3447 H 0.1767 0.74851 0.27515 0.0
H3448 H 0.18751 0.77766 0.06977 0.0
H3449 H 0.15622 0.77923 0.20341 0.0
H3450 H 0.18523 0.74652 0.02217 0.0
H3451 H 0.19498 0.74747 0.09543 0.0
H3452 H 0.19587 0.75916 0.03031 0.0
H3453 H 0.1467 0.74787 0.17764 0.0
H3454 H 0.14432 0.76156 0.22825 0.0
H3455 H 0.1551 0.74996 0.25525 0.0
C3456 C 0.16838 0.27587 0.8922 0.0
C3457 C 0.17527 0.2811 0.83918 0.0
C3458 C 0.16675 0.26307 0.8961 0.0
C3459 C 0.17258 0.25538 0.84745 0.0
C3460 C 0.17955 0.26067 0.79388 0.0
C3461 C 0.18061 0.27349 0.7897 0.0
C3462 C 0.15887 0.25776 0.95232 0.0
C3463 C 0.18623 0.25279 0.74222 0.0
C3464 C 0.18137 0.22263 0.89104 0.0
C3465 C 0.17352 0.21596 0.8481 0.0
C3466 C 0.18085 0.23551 0.8934 0.0
C3467 C 0.17196 0.24179 0.85369 0.0
C3468 C 0.1634 0.23501 0.81421 0.0
C3469 C 0.16445 0.22215 0.81075 0.0
C3470 C 0.19039 0.24239 0.93452 0.0
C3471 C 0.15348 0.24137 0.77335 0.0
H3472 H 0.16418 0.2818 0.93014 0.0
H3473 H 0.18603 0.27756 0.74907 0.0
H3474 H 0.15184 0.25148 0.93045 0.0
H3475 H 0.16463 0.25224 0.98756 0.0
H3476 H 0.15412 0.26503 0.98231 0.0
H3477 H 0.19147 0.25837 0.70463 0.0
H3478 H 0.19274 0.24654 0.76875 0.0
H3479 H 0.17958 0.24695 0.71408 0.0
H3480 H 0.18844 0.21783 0.91962 0.0
H3481 H 0.15829 0.21696 0.77807 0.0
H3482 H 0.18592 0.24919 0.9687 0.0
H3483 H 0.19651 0.24759 0.89946 0.0
H3484 H 0.19615 0.23614 0.96597 0.0
H3485 H 0.14888 0.24853 0.80462 0.0
H3486 H 0.14643 0.23479 0.75455 0.0
H3487 H 0.15766 0.24603 0.72865 0.0
C3488 C 0.3131 0.72326 0.39786 0.0
C3489 C 0.32116 0.71647 0.35673 0.0
C3490 C 0.31339 0.73616 0.39782 0.0
C3491 C 0.32225 0.74235 0.35745 0.0
C3492 C 0.3309 0.73549 0.31897 0.0
C3493 C 0.33009 0.7226 0.31801 0.0
C3494 C 0.30378 0.74313 0.43796 0.0
C3495 C 0.34075 0.74177 0.27726 0.0
C3496 C 0.31383 0.77419 0.29435 0.0
C3497 C 0.31924 0.7817 0.34407 0.0
C3498 C 0.31482 0.76136 0.29794 0.0
C3499 C 0.32177 0.75595 0.35124 0.0
C3500 C 0.32769 0.76353 0.4 0.0
C3501 C 0.32616 0.77634 0.39659 0.0
C3502 C 0.30806 0.75358 0.24614 0.0
C3503 C 0.33551 0.7581 0.45609 0.0
H3504 H 0.30612 0.71851 0.42738 0.0
H3505 H 0.3364 0.71732 0.28663 0.0
H3506 H 0.30823 0.74983 0.47282 0.0
H3507 H 0.29787 0.74846 0.40242 0.0
H3508 H 0.29782 0.73694 0.46862 0.0
H3509 H 0.34768 0.73515 0.25752 0.0
H3510 H 0.33648 0.74656 0.23322 0.0
H3511 H 0.34553 0.74885 0.30839 0.0
H3512 H 0.30838 0.77835 0.25409 0.0
H3513 H 0.33042 0.78218 0.43475 0.0
H3514 H 0.30138 0.7475 0.27255 0.0
H3515 H 0.31463 0.74756 0.21852 0.0
H3516 H 0.30301 0.75924 0.20815 0.0
H3517 H 0.32967 0.75266 0.49135 0.0
H3518 H 0.34037 0.76529 0.48609 0.0
H3519 H 0.34244 0.75172 0.43411 0.0
C3520 C 0.52447 0.06586 0.64625 0.0
C3521 C 0.53105 0.0742 0.60583 0.0
C3522 C 0.51161 0.0665 0.65051 0.0
C3523 C 0.50528 0.07598 0.61547 0.0
C3524 C 0.51201 0.08501 0.57908 0.0
C3525 C 0.52483 0.08386 0.57344 0.0
C3526 C 0.50477 0.05646 0.68805 0.0
C3527 C 0.50562 0.09552 0.54334 0.0
C3528 C 0.47362 0.0682 0.54789 0.0
C3529 C 0.46596 0.07281 0.59938 0.0
C3530 C 0.48642 0.06923 0.55265 0.0
C3531 C 0.49168 0.07543 0.60915 0.0
C3532 C 0.48396 0.08054 0.66008 0.0
C3533 C 0.47115 0.07894 0.65533 0.0
C3534 C 0.49433 0.06331 0.49828 0.0
C3535 C 0.48923 0.0876 0.71963 0.0
H3536 H 0.5293 0.05836 0.67104 0.0
H3537 H 0.52997 0.09039 0.54286 0.0
H3538 H 0.49798 0.06048 0.72397 0.0
H3539 H 0.49957 0.05078 0.65082 0.0
H3540 H 0.51106 0.05034 0.71709 0.0
H3541 H 0.5122 0.10283 0.52775 0.0
H3542 H 0.50091 0.09206 0.49694 0.0
H3543 H 0.4985 0.09965 0.5769 0.0
H3544 H 0.46961 0.06332 0.50501 0.0
H3545 H 0.46519 0.08255 0.69499 0.0
H3546 H 0.50062 0.05649 0.52193 0.0
H3547 H 0.50012 0.07036 0.47295 0.0
H3548 H 0.48877 0.05856 0.45862 0.0
H3549 H 0.49469 0.08134 0.75252 0.0
H3550 H 0.48195 0.09196 0.75128 0.0
H3551 H 0.49558 0.09487 0.70102 0.0
C3552 C 0.02561 0.918 0.13923 0.0
C3553 C 0.03101 0.92503 0.08725 0.0
C3554 C 0.0128 0.91631 0.14169 0.0
C3555 C 0.00526 0.92218 0.09253 0.0
C3556 C 0.01071 0.92927 0.03995 0.0
C3557 C 0.02353 0.93043 0.03732 0.0
C3558 C 0.00733 0.90835 0.19704 0.0
C3559 C 0.00298 0.93597 0.98772 0.0
C3560 C 0.97219 0.91373 0.05321 0.0
C3561 C 0.96579 0.9227 0.09041 0.0
C3562 C 0.98506 0.91287 0.0572 0.0
C3563 C 0.99164 0.92149 0.0973 0.0
C3564 C 0.98518 0.9303 0.13667 0.0
C3565 C 0.9723 0.93066 0.13357 0.0
C3566 C 0.99162 0.90307 0.01645 0.0
C3567 C 0.99187 0.93987 0.17856 0.0
H3568 H 0.03141 0.91376 0.17759 0.0
H3569 H 0.0277 0.93596 0.99747 0.0
H3570 H 0.00165 0.91406 0.23185 0.0
H3571 H 0.00116 0.90132 0.17424 0.0
H3572 H 0.0145 0.9036 0.22765 0.0
H3573 H 0.00867 0.94123 0.9507 0.0
H3574 H 0.99722 0.92933 0.95899 0.0
H3575 H 0.99666 0.94247 0.01382 0.0
H3576 H 0.96714 0.90748 0.02034 0.0
H3577 H 0.96737 0.93765 0.16207 0.0
H3578 H -0.00133 0.89842 0.04834 0.0
H3579 H 0.99646 0.90736 0.9727 0.0
H3580 H 0.98516 0.89603 0.99631 0.0
H3581 H -0.00144 0.93542 0.21341 0.0
H3582 H 0.98547 0.94559 0.2094 0.0
H3583 H 0.99716 0.94602 0.14412 0.0
C3584 C 0.52225 0.92696 0.4581 0.0
C3585 C 0.5301 0.92253 0.40703 0.0
C3586 C 0.50946 0.92602 0.45147 0.0
C3587 C 0.50442 0.9201 0.39346 0.0
C3588 C 0.51233 0.91511 0.34306 0.0
C3589 C 0.52512 0.91662 0.34977 0.0
C3590 C 0.50134 0.93178 0.50537 0.0
C3591 C 0.50729 0.90834 0.28189 0.0
C3592 C 0.47094 0.91177 0.42038 0.0
C3593 C 0.46503 0.92157 0.38752 0.0
C3594 C 0.4838 0.91061 0.41812 0.0
C3595 C 0.49086 0.91975 0.38466 0.0
C3596 C 0.48487 0.92942 0.34933 0.0
C3597 C 0.47199 0.93008 0.35019 0.0
C3598 C 0.48984 0.89991 0.45407 0.0
C3599 C 0.49206 0.93956 0.31481 0.0
H3600 H 0.52611 0.93164 0.50205 0.0
H3601 H 0.53123 0.91312 0.31053 0.0
H3602 H 0.4953 0.93884 0.48171 0.0
H3603 H 0.49528 0.92471 0.52846 0.0
H3604 H 0.50674 0.93622 0.54675 0.0
H3605 H 0.51469 0.904 0.25097 0.0
H3606 H 0.50076 0.90108 0.29862 0.0
H3607 H 0.50211 0.91479 0.24883 0.0
H3608 H 0.46552 0.90512 0.44864 0.0
H3609 H 0.4674 0.9377 0.32509 0.0
H3610 H 0.49429 0.90318 0.50166 0.0
H3611 H 0.49713 0.89582 0.42149 0.0
H3612 H 0.4831 0.89262 0.46764 0.0
H3613 H 0.49714 0.94493 0.35387 0.0
H3614 H 0.48602 0.94594 0.28586 0.0
H3615 H 0.49897 0.93564 0.2793 0.0
C3616 C 0.0256 0.08467 0.93074 0.0
C3617 C 0.03134 0.07538 0.89267 0.0
C3618 C 0.01275 0.08605 0.92946 0.0
C3619 C 0.00554 0.07761 0.89158 0.0
C3620 C 0.01135 0.06845 0.85152 0.0
C3621 C 0.02421 0.0676 0.8516 0.0
C3622 C 0.00689 0.09623 0.97059 0.0
C3623 C 0.004 0.05902 0.81216 0.0
C3624 C 0.9739 0.06952 0.95843 0.0
C3625 C 0.96626 0.07465 0.90846 0.0
C3626 C 0.98671 0.0706 0.95398 0.0
C3627 C 0.99196 0.07739 0.89963 0.0
C3628 C 0.98423 0.08315 0.85092 0.0
C3629 C 0.97144 0.08146 0.85503 0.0
C3630 C 0.99462 0.06397 0.00567 0.0
C3631 C 0.98949 0.09087 0.79393 0.0
H3632 H 0.03114 0.09077 0.96195 0.0
H3633 H 0.02866 0.06037 0.82246 0.0
H3634 H -0.0003 0.10097 0.94011 0.0
H3635 H 0.00234 0.0923 0.0163 0.0
H3636 H 0.01376 0.10314 0.98783 0.0
H3637 H 0.00994 0.05286 0.78114 0.0
H3638 H -0.00139 0.05329 0.8483 0.0
H3639 H 0.99734 0.06362 0.77772 0.0
H3640 H 0.96987 0.06415 0.99938 0.0
H3641 H 0.96547 0.0855 0.8167 0.0
H3642 H 0.00076 0.07058 0.03208 0.0
H3643 H 0.00058 0.05716 0.97931 0.0
H3644 H 0.98906 0.05906 0.04471 0.0
H3645 H 0.99623 0.09759 0.81456 0.0
H3646 H 0.98223 0.09596 0.76574 0.0
H3647 H 0.99448 0.0849 0.75728 0.0
loop_
_geom_bond_atom_site_label_1
_geom_bond_atom_site_label_2
_geom_bond_distance
_geom_bond_site_symmetry_2
_ccdc_geom_bond_type
Co0 O3 1.970 . S
Co0 N17 1.989 . S
Co0 O25 1.967 . S
Co0 O32 1.920 1_554 S
Co1 O4 1.966 . S
Co1 N10 2.022 . S
Co1 N18 1.993 . S
Co1 O26 1.941 . S
C2 O3 1.258 . S
C2 O4 1.263 . S
O3 Co0 1.970 . S
O3 C2 1.258 . S
O4 Co1 1.966 . S
O4 C2 1.263 . S
C5 O6 1.235 . S
C5 O32 1.289 . S
O6 C5 1.235 . S
C7 C9 1.400 . S
C7 N10 1.351 . S
C7 C12 1.501 . S
C8 C9 1.387 . S
C8 N11 1.341 . S
C9 C7 1.400 . S
C9 C8 1.387 . S
N10 Co1 2.022 . S
N10 C7 1.351 . S
N10 N11 1.365 . S
N11 C8 1.341 . S
N11 N10 1.365 . S
N11 H31 0.862 . S
C12 C7 1.501 . S
C12 H13 0.961 . S
C12 H14 0.961 . S
C12 H15 0.960 . S
H13 C12 0.961 . S
H14 C12 0.961 . S
H15 C12 0.960 . S
C16 N17 1.342 . S
C16 C20 1.401 . S
C16 C21 1.499 1_554 S
N17 Co0 1.989 . S
N17 C16 1.342 . S
N17 N18 1.388 . S
N18 Co1 1.993 . S
N18 N17 1.388 . S
N18 C19 1.346 . S
C19 N18 1.346 . S
C19 C20 1.396 . S
C19 C29 1.510 . S
C20 C16 1.401 . S
C20 C19 1.396 . S
C21 C16 1.499 1_556 S
C21 H22 0.959 . S
C21 H23 0.960 . S
C21 H24 0.961 . S
H22 C21 0.959 . S
H23 C21 0.960 . S
H24 C21 0.961 . S
O25 Co0 1.967 . S
O25 C33 1.258 . S
O26 Co1 1.941 . S
O26 C33 1.266 . S
H27 C29 0.959 . S
H28 C29 0.961 . S
C29 C19 1.510 . S
C29 H27 0.959 . S
C29 H28 0.961 . S
C29 H30 0.960 . S
H30 C29 0.960 . S
H31 N11 0.862 . S
O32 Co0 1.920 1_556 S
O32 C5 1.289 . S
C33 O25 1.258 . S
C33 O26 1.266 . S
Co34 O37 1.970 . S
Co34 N51 1.989 . S
Co34 O59 1.967 . S
Co34 O66 1.920 . S
Co35 O38 1.966 . S
Co35 N44 2.022 . S
Co35 N52 1.993 . S
Co35 O60 1.941 . S
C36 O37 1.258 . S
C36 O38 1.263 . S
O37 Co34 1.970 . S
O37 C36 1.258 . S
O38 Co35 1.966 . S
O38 C36 1.263 . S
C39 O40 1.235 . S
C39 O66 1.289 . S
O40 C39 1.235 . S
C41 C43 1.400 . S
C41 N44 1.351 . S
C41 C46 1.501 . S
C42 C43 1.387 . S
C42 N45 1.341 . S
C43 C41 1.400 . S
C43 C42 1.387 . S
N44 Co35 2.022 . S
N44 C41 1.351 . S
N44 N45 1.365 . S
N45 C42 1.341 . S
N45 N44 1.365 . S
N45 H65 0.862 . S
C46 C41 1.501 . S
C46 H47 0.961 . S
C46 H48 0.961 . S
C46 H49 0.960 . S
H47 C46 0.961 . S
H48 C46 0.961 . S
H49 C46 0.960 . S
C50 N51 1.342 . S
C50 C54 1.401 . S
C50 C55 1.499 . S
N51 Co34 1.989 . S
N51 C50 1.342 . S
N51 N52 1.388 . S
N52 Co35 1.993 . S
N52 N51 1.388 . S
N52 C53 1.346 . S
C53 N52 1.346 . S
C53 C54 1.396 . S
C53 C63 1.510 . S
C54 C50 1.401 . S
C54 C53 1.396 . S
C55 C50 1.499 . S
C55 H56 0.959 . S
C55 H57 0.960 . S
C55 H58 0.961 . S
H56 C55 0.959 . S
H57 C55 0.960 . S
H58 C55 0.961 . S
O59 Co34 1.967 . S
O59 C67 1.258 . S
O60 Co35 1.941 . S
O60 C67 1.266 . S
H61 C63 0.959 . S
H62 C63 0.961 . S
C63 C53 1.510 . S
C63 H61 0.959 . S
C63 H62 0.961 . S
C63 H64 0.960 . S
H64 C63 0.960 . S
H65 N45 0.862 . S
O66 Co34 1.920 . S
O66 C39 1.289 . S
C67 O59 1.258 . S
C67 O60 1.266 . S
Co68 O71 1.970 . S
Co68 N85 1.989 . S
Co68 O93 1.967 . S
Co68 O100 1.920 . S
Co69 O72 1.966 . S
Co69 N78 2.022 . S
Co69 N86 1.993 . S
Co69 O94 1.941 . S
C70 O71 1.258 . S
C70 O72 1.263 . S
O71 Co68 1.970 . S
O71 C70 1.258 . S
O72 Co69 1.966 . S
O72 C70 1.263 . S
C73 O74 1.235 . S
C73 O100 1.289 . S
O74 C73 1.235 . S
C75 C77 1.400 . S
C75 N78 1.351 . S
C75 C80 1.501 . S
C76 C77 1.387 . S
C76 N79 1.341 . S
C77 C75 1.400 . S
C77 C76 1.387 . S
N78 Co69 2.022 . S
N78 C75 1.351 . S
N78 N79 1.365 . S
N79 C76 1.341 . S
N79 N78 1.365 . S
N79 H99 0.862 . S
C80 C75 1.501 . S
C80 H81 0.961 . S
C80 H82 0.961 . S
C80 H83 0.960 . S
H81 C80 0.961 . S
H82 C80 0.961 . S
H83 C80 0.960 . S
C84 N85 1.342 . S
C84 C88 1.401 . S
C84 C89 1.499 . S
N85 Co68 1.989 . S
N85 C84 1.342 . S
N85 N86 1.388 . S
N86 Co69 1.993 . S
N86 N85 1.388 . S
N86 C87 1.346 . S
C87 N86 1.346 . S
C87 C88 1.396 . S
C87 C97 1.510 . S
C88 C84 1.401 . S
C88 C87 1.396 . S
C89 C84 1.499 . S
C89 H90 0.959 . S
C89 H91 0.960 . S
C89 H92 0.961 . S
H90 C89 0.959 . S
H91 C89 0.960 . S
H92 C89 0.961 . S
O93 Co68 1.967 . S
O93 C101 1.258 . S
O94 Co69 1.941 . S
O94 C101 1.266 . S
H95 C97 0.959 . S
H96 C97 0.961 . S
C97 C87 1.510 . S
C97 H95 0.959 . S
C97 H96 0.961 . S
C97 H98 0.960 . S
H98 C97 0.960 . S
H99 N79 0.862 . S
O100 Co68 1.920 . S
O100 C73 1.289 . S
C101 O93 1.258 . S
C101 O94 1.266 . S
Co102 O105 1.970 . S
Co102 N119 1.989 . S
Co102 O127 1.967 . S
Co102 O134 1.920 . S
Co103 O106 1.966 . S
Co103 N112 2.022 1_556 S
Co103 N120 1.993 . S
Co103 O128 1.941 . S
C104 O105 1.258 . S
C104 O106 1.263 . S
O105 Co102 1.970 . S
O105 C104 1.258 . S
O106 Co103 1.966 . S
O106 C104 1.263 . S
C107 O108 1.235 . S
C107 O134 1.289 . S
O108 C107 1.235 . S
C109 C111 1.400 . S
C109 N112 1.351 . S
C109 C114 1.501 . S
C110 C111 1.387 . S
C110 N113 1.341 . S
C111 C109 1.400 . S
C111 C110 1.387 . S
N112 Co103 2.022 1_554 S
N112 C109 1.351 . S
N112 N113 1.365 . S
N113 C110 1.341 . S
N113 N112 1.365 . S
N113 H133 0.862 . S
C114 C109 1.501 . S
C114 H115 0.944 1_554 S
C114 H116 0.961 . S
C114 H117 0.960 . S
H115 C114 0.944 1_556 S
H116 C114 0.961 . S
H117 C114 0.960 . S
C118 N119 1.342 . S
C118 C122 1.401 . S
C118 C123 1.499 . S
N119 Co102 1.989 . S
N119 C118 1.342 . S
N119 N120 1.388 . S
N120 Co103 1.993 . S
N120 N119 1.388 . S
N120 C121 1.346 . S
C121 N120 1.346 . S
C121 C122 1.396 . S
C121 C131 1.510 . S
C122 C118 1.401 . S
C122 C121 1.396 . S
C123 C118 1.499 . S
C123 H124 0.959 . S
C123 H125 0.960 . S
C123 H126 0.961 . S
H124 C123 0.959 . S
H125 C123 0.960 . S
H126 C123 0.961 . S
O127 Co102 1.967 . S
O127 C135 1.258 . S
O128 Co103 1.941 . S
O128 C135 1.266 . S
H129 C131 0.959 . S
H130 C131 0.961 . S
C131 C121 1.510 . S
C131 H129 0.959 . S
C131 H130 0.961 . S
C131 H132 0.960 1_556 S
H132 C131 0.960 1_554 S
H133 N113 0.862 . S
O134 Co102 1.920 . S
O134 C107 1.289 . S
C135 O127 1.258 . S
C135 O128 1.266 . S
Co136 O139 1.970 . S
Co136 N153 1.989 . S
Co136 O161 1.967 . S
Co136 O168 1.920 1_556 S
Co137 O140 1.966 . S
Co137 N146 2.022 . S
Co137 N154 1.993 . S
Co137 O162 1.941 . S
C138 O139 1.258 . S
C138 O140 1.263 . S
O139 Co136 1.970 . S
O139 C138 1.258 . S
O140 Co137 1.966 . S
O140 C138 1.263 . S
C141 O142 1.235 . S
C141 O168 1.289 . S
O142 C141 1.235 . S
C143 C145 1.400 . S
C143 N146 1.351 . S
C143 C148 1.501 . S
C144 C145 1.387 . S
C144 N147 1.341 . S
C145 C143 1.400 . S
C145 C144 1.387 . S
N146 Co137 2.022 . S
N146 C143 1.351 . S
N146 N147 1.365 . S
N147 C144 1.341 . S
N147 N146 1.365 . S
N147 H167 0.862 . S
C148 C143 1.501 . S
C148 H149 0.961 . S
C148 H150 0.961 . S
C148 H151 0.960 . S
H149 C148 0.961 . S
H150 C148 0.961 . S
H151 C148 0.960 . S
C152 N153 1.342 . S
C152 C156 1.401 . S
C152 C157 1.499 1_556 S
N153 Co136 1.989 . S
N153 C152 1.342 . S
N153 N154 1.388 . S
N154 Co137 1.993 . S
N154 N153 1.388 . S
N154 C155 1.346 . S
C155 N154 1.346 . S
C155 C156 1.396 . S
C155 C165 1.510 . S
C156 C152 1.401 . S
C156 C155 1.396 . S
C157 C152 1.499 1_554 S
C157 H158 0.959 . S
C157 H159 0.960 . S
C157 H160 0.961 . S
H158 C157 0.959 . S
H159 C157 0.960 . S
H160 C157 0.961 . S
O161 Co136 1.967 . S
O161 C169 1.258 . S
O162 Co137 1.941 . S
O162 C169 1.266 . S
H163 C165 0.959 . S
H164 C165 0.961 . S
C165 C155 1.510 . S
C165 H163 0.959 . S
C165 H164 0.961 . S
C165 H166 0.960 . S
H166 C165 0.960 . S
H167 N147 0.862 . S
O168 Co136 1.920 1_554 S
O168 C141 1.289 . S
C169 O161 1.258 . S
C169 O162 1.266 . S
Co170 O173 1.970 . S
Co170 N187 1.989 . S
Co170 O195 1.967 . S
Co170 O202 1.920 . S
Co171 O174 1.966 . S
Co171 N180 2.022 1_554 S
Co171 N188 1.993 . S
Co171 O196 1.941 . S
C172 O173 1.258 . S
C172 O174 1.263 . S
O173 Co170 1.970 . S
O173 C172 1.258 . S
O174 Co171 1.966 . S
O174 C172 1.263 . S
C175 O176 1.235 . S
C175 O202 1.289 . S
O176 C175 1.235 . S
C177 C179 1.400 . S
C177 N180 1.351 . S
C177 C182 1.501 . S
C178 C179 1.387 . S
C178 N181 1.341 . S
C179 C177 1.400 . S
C179 C178 1.387 . S
N180 Co171 2.022 1_556 S
N180 C177 1.351 . S
N180 N181 1.365 . S
N181 C178 1.341 . S
N181 N180 1.365 . S
N181 H201 0.862 . S
C182 C177 1.501 . S
C182 H183 0.944 1_556 S
C182 H184 0.961 . S
C182 H185 0.960 . S
H183 C182 0.944 1_554 S
H184 C182 0.961 . S
H185 C182 0.960 . S
C186 N187 1.342 . S
C186 C190 1.401 . S
C186 C191 1.499 . S
N187 Co170 1.989 . S
N187 C186 1.342 . S
N187 N188 1.388 . S
N188 Co171 1.993 . S
N188 N187 1.388 . S
N188 C189 1.346 . S
C189 N188 1.346 . S
C189 C190 1.396 . S
C189 C199 1.510 . S
C190 C186 1.401 . S
C190 C189 1.396 . S
C191 C186 1.499 . S
C191 H192 0.959 . S
C191 H193 0.960 . S
C191 H194 0.961 . S
H192 C191 0.959 . S
H193 C191 0.960 . S
H194 C191 0.961 . S
O195 Co170 1.967 . S
O195 C203 1.258 . S
O196 Co171 1.941 . S
O196 C203 1.266 . S
H197 C199 0.959 . S
H198 C199 0.961 . S
C199 C189 1.510 . S
C199 H197 0.959 . S
C199 H198 0.961 . S
C199 H200 0.960 1_554 S
H200 C199 0.960 1_556 S
H201 N181 0.862 . S
O202 Co170 1.920 . S
O202 C175 1.289 . S
C203 O195 1.258 . S
C203 O196 1.266 . S
Co204 O207 1.970 . S
Co204 N221 1.989 . S
Co204 O229 1.967 . S
Co204 O236 1.920 . S
Co205 O208 1.966 . S
Co205 N214 2.022 . S
Co205 N222 1.993 . S
Co205 O230 1.941 . S
C206 O207 1.258 . S
C206 O208 1.263 . S
O207 Co204 1.970 . S
O207 C206 1.258 . S
O208 Co205 1.966 . S
O208 C206 1.263 . S
C209 O210 1.235 . S
C209 O236 1.289 . S
O210 C209 1.235 . S
C211 C213 1.400 . S
C211 N214 1.351 . S
C211 C216 1.501 . S
C212 C213 1.387 . S
C212 N215 1.341 . S
C213 C211 1.400 . S
C213 C212 1.387 . S
N214 Co205 2.022 . S
N214 C211 1.351 . S
N214 N215 1.365 . S
N215 C212 1.341 . S
N215 N214 1.365 . S
N215 H235 0.862 . S
C216 C211 1.501 . S
C216 H217 0.961 . S
C216 H218 0.961 . S
C216 H219 0.960 . S
H217 C216 0.961 . S
H218 C216 0.961 . S
H219 C216 0.960 . S
C220 N221 1.342 . S
C220 C224 1.401 . S
C220 C225 1.499 . S
N221 Co204 1.989 . S
N221 C220 1.342 . S
N221 N222 1.388 . S
N222 Co205 1.993 . S
N222 N221 1.388 . S
N222 C223 1.346 . S
C223 N222 1.346 . S
C223 C224 1.396 . S
C223 C233 1.510 . S
C224 C220 1.401 . S
C224 C223 1.396 . S
C225 C220 1.499 . S
C225 H226 0.959 . S
C225 H227 0.960 . S
C225 H228 0.961 . S
H226 C225 0.959 . S
H227 C225 0.960 . S
H228 C225 0.961 . S
O229 Co204 1.967 . S
O229 C237 1.258 . S
O230 Co205 1.941 . S
O230 C237 1.266 . S
H231 C233 0.959 . S
H232 C233 0.961 . S
C233 C223 1.510 . S
C233 H231 0.959 . S
C233 H232 0.961 . S
C233 H234 0.960 . S
H234 C233 0.960 . S
H235 N215 0.862 . S
O236 Co204 1.920 . S
O236 C209 1.289 . S
C237 O229 1.258 . S
C237 O230 1.266 . S
Co238 O241 1.970 . S
Co238 N255 1.989 . S
Co238 O263 1.967 . S
Co238 O270 1.920 . S
Co239 O242 1.966 . S
Co239 N248 2.022 . S
Co239 N256 1.993 . S
Co239 O264 1.941 . S
C240 O241 1.258 . S
C240 O242 1.263 . S
O241 Co238 1.970 . S
O241 C240 1.258 . S
O242 Co239 1.966 . S
O242 C240 1.263 . S
C243 O244 1.235 . S
C243 O270 1.289 . S
O244 C243 1.235 . S
C245 C247 1.400 . S
C245 N248 1.351 . S
C245 C250 1.501 . S
C246 C247 1.387 . S
C246 N249 1.341 . S
C247 C245 1.400 . S
C247 C246 1.387 . S
N248 Co239 2.022 . S
N248 C245 1.351 . S
N248 N249 1.365 . S
N249 C246 1.341 . S
N249 N248 1.365 . S
N249 H269 0.862 . S
C250 C245 1.501 . S
C250 H251 0.961 . S
C250 H252 0.961 . S
C250 H253 0.960 . S
H251 C250 0.961 . S
H252 C250 0.961 . S
H253 C250 0.960 . S
C254 N255 1.342 . S
C254 C258 1.401 . S
C254 C259 1.499 . S
N255 Co238 1.989 . S
N255 C254 1.342 . S
N255 N256 1.388 . S
N256 Co239 1.993 . S
N256 N255 1.388 . S
N256 C257 1.346 . S
C257 N256 1.346 . S
C257 C258 1.396 . S
C257 C267 1.510 . S
C258 C254 1.401 . S
C258 C257 1.396 . S
C259 C254 1.499 . S
C259 H260 0.959 . S
C259 H261 0.960 . S
C259 H262 0.961 . S
H260 C259 0.959 . S
H261 C259 0.960 . S
H262 C259 0.961 . S
O263 Co238 1.967 . S
O263 C271 1.258 . S
O264 Co239 1.941 . S
O264 C271 1.266 . S
H265 C267 0.959 . S
H266 C267 0.961 . S
C267 C257 1.510 . S
C267 H265 0.959 . S
C267 H266 0.961 . S
C267 H268 0.960 . S
H268 C267 0.960 . S
H269 N249 0.862 . S
O270 Co238 1.920 . S
O270 C243 1.289 . S
C271 O263 1.258 . S
C271 O264 1.266 . S
Co272 O275 1.970 . S
Co272 N289 1.989 . S
Co272 O297 1.967 . S
Co272 O304 1.920 1_556 S
Co273 O276 1.966 . S
Co273 N282 2.022 . S
Co273 N290 1.993 . S
Co273 O298 1.941 . S
C274 O275 1.258 . S
C274 O276 1.263 . S
O275 Co272 1.970 . S
O275 C274 1.258 . S
O276 Co273 1.966 . S
O276 C274 1.263 . S
C277 O278 1.235 . S
C277 O304 1.289 . S
O278 C277 1.235 . S
C279 C281 1.400 . S
C279 N282 1.351 . S
C279 C284 1.501 . S
C280 C281 1.387 . S
C280 N283 1.341 . S
C281 C279 1.400 . S
C281 C280 1.387 . S
N282 Co273 2.022 . S
N282 C279 1.351 . S
N282 N283 1.365 . S
N283 C280 1.341 . S
N283 N282 1.365 . S
N283 H303 0.862 . S
C284 C279 1.501 . S
C284 H285 0.961 . S
C284 H286 0.961 . S
C284 H287 0.960 . S
H285 C284 0.961 . S
H286 C284 0.961 . S
H287 C284 0.960 . S
C288 N289 1.342 . S
C288 C292 1.401 . S
C288 C293 1.499 1_556 S
N289 Co272 1.989 . S
N289 C288 1.342 . S
N289 N290 1.388 . S
N290 Co273 1.993 . S
N290 N289 1.388 . S
N290 C291 1.346 . S
C291 N290 1.346 . S
C291 C292 1.396 . S
C291 C301 1.510 . S
C292 C288 1.401 . S
C292 C291 1.396 . S
C293 C288 1.499 1_554 S
C293 H294 0.959 . S
C293 H295 0.960 . S
C293 H296 0.961 . S
H294 C293 0.959 . S
H295 C293 0.960 . S
H296 C293 0.961 . S
O297 Co272 1.967 . S
O297 C305 1.258 . S
O298 Co273 1.941 . S
O298 C305 1.266 . S
H299 C301 0.959 . S
H300 C301 0.961 . S
C301 C291 1.510 . S
C301 H299 0.959 . S
C301 H300 0.961 . S
C301 H302 0.960 . S
H302 C301 0.960 . S
H303 N283 0.862 . S
O304 Co272 1.920 1_554 S
O304 C277 1.289 . S
C305 O297 1.258 . S
C305 O298 1.266 . S
Co306 O309 1.970 . S
Co306 N323 1.989 . S
Co306 O331 1.967 . S
Co306 O338 1.920 . S
Co307 O310 1.966 . S
Co307 N316 2.022 . S
Co307 N324 1.993 . S
Co307 O332 1.941 . S
C308 O309 1.258 . S
C308 O310 1.263 . S
O309 Co306 1.970 . S
O309 C308 1.258 . S
O310 Co307 1.966 . S
O310 C308 1.263 . S
C311 O312 1.235 . S
C311 O338 1.289 . S
O312 C311 1.235 . S
C313 C315 1.400 . S
C313 N316 1.351 . S
C313 C318 1.501 . S
C314 C315 1.387 . S
C314 N317 1.341 . S
C315 C313 1.400 . S
C315 C314 1.387 . S
N316 Co307 2.022 . S
N316 C313 1.351 . S
N316 N317 1.365 . S
N317 C314 1.341 . S
N317 N316 1.365 . S
N317 H337 0.862 . S
C318 C313 1.501 . S
C318 H319 0.961 . S
C318 H320 0.961 . S
C318 H321 0.960 . S
H319 C318 0.961 . S
H320 C318 0.961 . S
H321 C318 0.960 . S
C322 N323 1.342 . S
C322 C326 1.401 . S
C322 C327 1.499 . S
N323 Co306 1.989 . S
N323 C322 1.342 . S
N323 N324 1.388 . S
N324 Co307 1.993 . S
N324 N323 1.388 . S
N324 C325 1.346 . S
C325 N324 1.346 . S
C325 C326 1.396 . S
C325 C335 1.510 . S
C326 C322 1.401 . S
C326 C325 1.396 . S
C327 C322 1.499 . S
C327 H328 0.959 . S
C327 H329 0.960 . S
C327 H330 0.961 . S
H328 C327 0.959 . S
H329 C327 0.960 . S
H330 C327 0.961 . S
O331 Co306 1.967 . S
O331 C339 1.258 . S
O332 Co307 1.941 . S
O332 C339 1.266 . S
H333 C335 0.959 . S
H334 C335 0.961 . S
C335 C325 1.510 . S
C335 H333 0.959 . S
C335 H334 0.961 . S
C335 H336 0.960 . S
H336 C335 0.960 . S
H337 N317 0.862 . S
O338 Co306 1.920 . S
O338 C311 1.289 . S
C339 O331 1.258 . S
C339 O332 1.266 . S
Co340 O343 1.970 . S
Co340 N357 1.989 . S
Co340 O365 1.967 . S
Co340 O372 1.920 . S
Co341 O344 1.966 . S
Co341 N350 2.022 . S
Co341 N358 1.993 . S
Co341 O366 1.941 . S
C342 O343 1.258 . S
C342 O344 1.263 . S
O343 Co340 1.970 . S
O343 C342 1.258 . S
O344 Co341 1.966 . S
O344 C342 1.263 . S
C345 O346 1.235 . S
C345 O372 1.289 . S
O346 C345 1.235 . S
C347 C349 1.400 . S
C347 N350 1.351 . S
C347 C352 1.501 . S
C348 C349 1.387 . S
C348 N351 1.341 . S
C349 C347 1.400 . S
C349 C348 1.387 . S
N350 Co341 2.022 . S
N350 C347 1.351 . S
N350 N351 1.365 . S
N351 C348 1.341 . S
N351 N350 1.365 . S
N351 H371 0.862 . S
C352 C347 1.501 . S
C352 H353 0.961 . S
C352 H354 0.961 . S
C352 H355 0.960 . S
H353 C352 0.961 . S
H354 C352 0.961 . S
H355 C352 0.960 . S
C356 N357 1.342 . S
C356 C360 1.401 . S
C356 C361 1.499 . S
N357 Co340 1.989 . S
N357 C356 1.342 . S
N357 N358 1.388 . S
N358 Co341 1.993 . S
N358 N357 1.388 . S
N358 C359 1.346 . S
C359 N358 1.346 . S
C359 C360 1.396 . S
C359 C369 1.510 . S
C360 C356 1.401 . S
C360 C359 1.396 . S
C361 C356 1.499 . S
C361 H362 0.959 . S
C361 H363 0.960 . S
C361 H364 0.961 . S
H362 C361 0.959 . S
H363 C361 0.960 . S
H364 C361 0.961 . S
O365 Co340 1.967 . S
O365 C373 1.258 . S
O366 Co341 1.941 . S
O366 C373 1.266 . S
H367 C369 0.959 . S
H368 C369 0.961 . S
C369 C359 1.510 . S
C369 H367 0.959 . S
C369 H368 0.961 . S
C369 H370 0.960 . S
H370 C369 0.960 . S
H371 N351 0.862 . S
O372 Co340 1.920 . S
O372 C345 1.289 . S
C373 O365 1.258 . S
C373 O366 1.266 . S
Co374 O377 1.970 . S
Co374 N391 1.989 . S
Co374 O399 1.967 . S
Co374 O406 1.920 . S
Co375 O378 1.966 . S
Co375 N384 2.022 1_554 S
Co375 N392 1.993 . S
Co375 O400 1.941 . S
C376 O377 1.258 . S
C376 O378 1.263 . S
O377 Co374 1.970 . S
O377 C376 1.258 . S
O378 Co375 1.966 . S
O378 C376 1.263 . S
C379 O380 1.235 . S
C379 O406 1.289 . S
O380 C379 1.235 . S
C381 C383 1.400 . S
C381 N384 1.351 . S
C381 C386 1.501 . S
C382 C383 1.387 . S
C382 N385 1.341 . S
C383 C381 1.400 . S
C383 C382 1.387 . S
N384 Co375 2.022 1_556 S
N384 C381 1.351 . S
N384 N385 1.365 . S
N385 C382 1.341 . S
N385 N384 1.365 . S
N385 H405 0.862 . S
C386 C381 1.501 . S
C386 H387 0.944 1_556 S
C386 H388 0.961 . S
C386 H389 0.960 . S
H387 C386 0.944 1_554 S
H388 C386 0.961 . S
H389 C386 0.960 . S
C390 N391 1.342 . S
C390 C394 1.401 . S
C390 C395 1.499 . S
N391 Co374 1.989 . S
N391 C390 1.342 . S
N391 N392 1.388 . S
N392 Co375 1.993 . S
N392 N391 1.388 . S
N392 C393 1.346 . S
C393 N392 1.346 . S
C393 C394 1.396 . S
C393 C403 1.510 . S
C394 C390 1.401 . S
C394 C393 1.396 . S
C395 C390 1.499 . S
C395 H396 0.959 . S
C395 H397 0.960 . S
C395 H398 0.961 . S
H396 C395 0.959 . S
H397 C395 0.960 . S
H398 C395 0.961 . S
O399 Co374 1.967 . S
O399 C407 1.258 . S
O400 Co375 1.941 . S
O400 C407 1.266 . S
H401 C403 0.959 . S
H402 C403 0.961 . S
C403 C393 1.510 . S
C403 H401 0.959 . S
C403 H402 0.961 . S
C403 H404 0.960 1_554 S
H404 C403 0.960 1_556 S
H405 N385 0.862 . S
O406 Co374 1.920 . S
O406 C379 1.289 . S
C407 O399 1.258 . S
C407 O400 1.266 . S
Co408 O411 1.970 . S
Co408 N425 1.989 . S
Co408 O433 1.967 . S
Co408 O440 1.920 1_554 S
Co409 O412 1.966 . S
Co409 N418 2.022 . S
Co409 N426 1.993 . S
Co409 O434 1.941 . S
C410 O411 1.258 . S
C410 O412 1.263 . S
O411 Co408 1.970 . S
O411 C410 1.258 . S
O412 Co409 1.966 . S
O412 C410 1.263 . S
C413 O414 1.235 . S
C413 O440 1.289 . S
O414 C413 1.235 . S
C415 C417 1.400 . S
C415 N418 1.351 . S
C415 C420 1.501 . S
C416 C417 1.387 . S
C416 N419 1.341 . S
C417 C415 1.400 . S
C417 C416 1.387 . S
N418 Co409 2.022 . S
N418 C415 1.351 . S
N418 N419 1.365 . S
N419 C416 1.341 . S
N419 N418 1.365 . S
N419 H439 0.862 . S
C420 C415 1.501 . S
C420 H421 0.961 . S
C420 H422 0.961 . S
C420 H423 0.960 . S
H421 C420 0.961 . S
H422 C420 0.961 . S
H423 C420 0.960 . S
C424 N425 1.342 . S
C424 C428 1.401 . S
C424 C429 1.499 1_554 S
N425 Co408 1.989 . S
N425 C424 1.342 . S
N425 N426 1.388 . S
N426 Co409 1.993 . S
N426 N425 1.388 . S
N426 C427 1.346 . S
C427 N426 1.346 . S
C427 C428 1.396 . S
C427 C437 1.510 . S
C428 C424 1.401 . S
C428 C427 1.396 . S
C429 C424 1.499 1_556 S
C429 H430 0.959 . S
C429 H431 0.960 . S
C429 H432 0.961 . S
H430 C429 0.959 . S
H431 C429 0.960 . S
H432 C429 0.961 . S
O433 Co408 1.967 . S
O433 C441 1.258 . S
O434 Co409 1.941 . S
O434 C441 1.266 . S
H435 C437 0.959 . S
H436 C437 0.961 . S
C437 C427 1.510 . S
C437 H435 0.959 . S
C437 H436 0.961 . S
C437 H438 0.960 . S
H438 C437 0.960 . S
H439 N419 0.862 . S
O440 Co408 1.920 1_556 S
O440 C413 1.289 . S
C441 O433 1.258 . S
C441 O434 1.266 . S
Co442 O445 1.970 . S
Co442 N459 1.989 . S
Co442 O467 1.967 . S
Co442 O474 1.920 . S
Co443 O446 1.966 . S
Co443 N452 2.022 1_556 S
Co443 N460 1.993 . S
Co443 O468 1.941 . S
C444 O445 1.258 . S
C444 O446 1.263 . S
O445 Co442 1.970 . S
O445 C444 1.258 . S
O446 Co443 1.966 . S
O446 C444 1.263 . S
C447 O448 1.235 . S
C447 O474 1.289 . S
O448 C447 1.235 . S
C449 C451 1.400 . S
C449 N452 1.351 . S
C449 C454 1.501 . S
C450 C451 1.387 . S
C450 N453 1.341 . S
C451 C449 1.400 . S
C451 C450 1.387 . S
N452 Co443 2.022 1_554 S
N452 C449 1.351 . S
N452 N453 1.365 . S
N453 C450 1.341 . S
N453 N452 1.365 . S
N453 H473 0.862 . S
C454 C449 1.501 . S
C454 H455 0.944 1_554 S
C454 H456 0.961 . S
C454 H457 0.960 . S
H455 C454 0.944 1_556 S
H456 C454 0.961 . S
H457 C454 0.960 . S
C458 N459 1.342 . S
C458 C462 1.401 . S
C458 C463 1.499 . S
N459 Co442 1.989 . S
N459 C458 1.342 . S
N459 N460 1.388 . S
N460 Co443 1.993 . S
N460 N459 1.388 . S
N460 C461 1.346 . S
C461 N460 1.346 . S
C461 C462 1.396 . S
C461 C471 1.510 . S
C462 C458 1.401 . S
C462 C461 1.396 . S
C463 C458 1.499 . S
C463 H464 0.959 . S
C463 H465 0.960 . S
C463 H466 0.961 . S
H464 C463 0.959 . S
H465 C463 0.960 . S
H466 C463 0.961 . S
O467 Co442 1.967 . S
O467 C475 1.258 . S
O468 Co443 1.941 . S
O468 C475 1.266 . S
H469 C471 0.959 . S
H470 C471 0.961 . S
C471 C461 1.510 . S
C471 H469 0.959 . S
C471 H470 0.961 . S
C471 H472 0.960 1_556 S
H472 C471 0.960 1_554 S
H473 N453 0.862 . S
O474 Co442 1.920 . S
O474 C447 1.289 . S
C475 O467 1.258 . S
C475 O468 1.266 . S
Co476 O479 1.970 . S
Co476 N493 1.989 . S
Co476 O501 1.967 . S
Co476 O508 1.920 . S
Co477 O480 1.966 . S
Co477 N486 2.022 . S
Co477 N494 1.993 . S
Co477 O502 1.941 . S
C478 O479 1.258 . S
C478 O480 1.263 . S
O479 Co476 1.970 . S
O479 C478 1.258 . S
O480 Co477 1.966 . S
O480 C478 1.263 . S
C481 O482 1.235 . S
C481 O508 1.289 . S
O482 C481 1.235 . S
C483 C485 1.400 . S
C483 N486 1.351 . S
C483 C488 1.501 . S
C484 C485 1.387 . S
C484 N487 1.341 . S
C485 C483 1.400 . S
C485 C484 1.387 . S
N486 Co477 2.022 . S
N486 C483 1.351 . S
N486 N487 1.365 . S
N487 C484 1.341 . S
N487 N486 1.365 . S
N487 H507 0.862 . S
C488 C483 1.501 . S
C488 H489 0.961 . S
C488 H490 0.961 . S
C488 H491 0.960 . S
H489 C488 0.961 . S
H490 C488 0.961 . S
H491 C488 0.960 . S
C492 N493 1.342 . S
C492 C496 1.401 . S
C492 C497 1.499 . S
N493 Co476 1.989 . S
N493 C492 1.342 . S
N493 N494 1.388 . S
N494 Co477 1.993 . S
N494 N493 1.388 . S
N494 C495 1.346 . S
C495 N494 1.346 . S
C495 C496 1.396 . S
C495 C505 1.510 . S
C496 C492 1.401 . S
C496 C495 1.396 . S
C497 C492 1.499 . S
C497 H498 0.959 . S
C497 H499 0.960 . S
C497 H500 0.961 . S
H498 C497 0.959 . S
H499 C497 0.960 . S
H500 C497 0.961 . S
O501 Co476 1.967 . S
O501 C509 1.258 . S
O502 Co477 1.941 . S
O502 C509 1.266 . S
H503 C505 0.959 . S
H504 C505 0.961 . S
C505 C495 1.510 . S
C505 H503 0.959 . S
C505 H504 0.961 . S
C505 H506 0.960 . S
H506 C505 0.960 . S
H507 N487 0.862 . S
O508 Co476 1.920 . S
O508 C481 1.289 . S
C509 O501 1.258 . S
C509 O502 1.266 . S
Co510 O513 1.970 . S
Co510 N527 1.989 . S
Co510 O535 1.967 . S
Co510 O542 1.920 . S
Co511 O514 1.966 . S
Co511 N520 2.022 . S
Co511 N528 1.993 . S
Co511 O536 1.941 . S
C512 O513 1.258 . S
C512 O514 1.263 . S
O513 Co510 1.970 . S
O513 C512 1.258 . S
O514 Co511 1.966 . S
O514 C512 1.263 . S
C515 O516 1.235 . S
C515 O542 1.289 . S
O516 C515 1.235 . S
C517 C519 1.400 . S
C517 N520 1.351 . S
C517 C522 1.501 . S
C518 C519 1.387 . S
C518 N521 1.341 . S
C519 C517 1.400 . S
C519 C518 1.387 . S
N520 Co511 2.022 . S
N520 C517 1.351 . S
N520 N521 1.365 . S
N521 C518 1.341 . S
N521 N520 1.365 . S
N521 H541 0.862 . S
C522 C517 1.501 . S
C522 H523 0.961 . S
C522 H524 0.961 . S
C522 H525 0.960 . S
H523 C522 0.961 . S
H524 C522 0.961 . S
H525 C522 0.960 . S
C526 N527 1.342 . S
C526 C530 1.401 . S
C526 C531 1.499 . S
N527 Co510 1.989 . S
N527 C526 1.342 . S
N527 N528 1.388 . S
N528 Co511 1.993 . S
N528 N527 1.388 . S
N528 C529 1.346 . S
C529 N528 1.346 . S
C529 C530 1.396 . S
C529 C539 1.510 . S
C530 C526 1.401 . S
C530 C529 1.396 . S
C531 C526 1.499 . S
C531 H532 0.959 . S
C531 H533 0.960 . S
C531 H534 0.961 . S
H532 C531 0.959 . S
H533 C531 0.960 . S
H534 C531 0.961 . S
O535 Co510 1.967 . S
O535 C543 1.258 . S
O536 Co511 1.941 . S
O536 C543 1.266 . S
H537 C539 0.959 . S
H538 C539 0.961 . S
C539 C529 1.510 . S
C539 H537 0.959 . S
C539 H538 0.961 . S
C539 H540 0.960 . S
H540 C539 0.960 . S
H541 N521 0.862 . S
O542 Co510 1.920 . S
O542 C515 1.289 . S
C543 O535 1.258 . S
C543 O536 1.266 . S
Co544 O547 1.970 . S
Co544 N561 1.989 . S
Co544 O569 1.967 . S
Co544 O576 1.920 . S
Co545 O548 1.966 . S
Co545 N554 2.022 . S
Co545 N562 1.993 . S
Co545 O570 1.941 . S
C546 O547 1.258 . S
C546 O548 1.263 . S
O547 Co544 1.970 . S
O547 C546 1.258 . S
O548 Co545 1.966 . S
O548 C546 1.263 . S
C549 O550 1.235 . S
C549 O576 1.289 . S
O550 C549 1.235 . S
C551 C553 1.400 . S
C551 N554 1.351 . S
C551 C556 1.501 . S
C552 C553 1.387 . S
C552 N555 1.341 . S
C553 C551 1.400 . S
C553 C552 1.387 . S
N554 Co545 2.022 . S
N554 C551 1.351 . S
N554 N555 1.365 . S
N555 C552 1.341 . S
N555 N554 1.365 . S
N555 H575 0.862 . S
C556 C551 1.501 . S
C556 H557 0.961 . S
C556 H558 0.961 . S
C556 H559 0.960 . S
H557 C556 0.961 . S
H558 C556 0.961 . S
H559 C556 0.960 . S
C560 N561 1.342 . S
C560 C564 1.401 . S
C560 C565 1.499 . S
N561 Co544 1.989 . S
N561 C560 1.342 . S
N561 N562 1.388 . S
N562 Co545 1.993 . S
N562 N561 1.388 . S
N562 C563 1.346 . S
C563 N562 1.346 . S
C563 C564 1.396 . S
C563 C573 1.510 . S
C564 C560 1.401 . S
C564 C563 1.396 . S
C565 C560 1.499 . S
C565 H566 0.959 . S
C565 H567 0.960 . S
C565 H568 0.961 . S
H566 C565 0.959 . S
H567 C565 0.960 . S
H568 C565 0.961 . S
O569 Co544 1.967 . S
O569 C577 1.258 . S
O570 Co545 1.941 . S
O570 C577 1.266 . S
H571 C573 0.959 . S
H572 C573 0.961 . S
C573 C563 1.510 . S
C573 H571 0.959 . S
C573 H572 0.961 . S
C573 H574 0.960 . S
H574 C573 0.960 . S
H575 N555 0.862 . S
O576 Co544 1.920 . S
O576 C549 1.289 . S
C577 O569 1.258 . S
C577 O570 1.266 . S
Co578 O581 1.970 . S
Co578 N595 1.989 . S
Co578 O603 1.967 . S
Co578 O610 1.920 . S
Co579 O582 1.966 . S
Co579 N588 2.022 1_556 S
Co579 N596 1.993 . S
Co579 O604 1.941 . S
C580 O581 1.258 . S
C580 O582 1.263 . S
O581 Co578 1.970 . S
O581 C580 1.258 . S
O582 Co579 1.966 . S
O582 C580 1.263 . S
C583 O584 1.235 . S
C583 O610 1.289 . S
O584 C583 1.235 . S
C585 C587 1.400 . S
C585 N588 1.351 . S
C585 C590 1.501 . S
C586 C587 1.387 . S
C586 N589 1.341 . S
C587 C585 1.400 . S
C587 C586 1.387 . S
N588 Co579 2.022 1_554 S
N588 C585 1.351 . S
N588 N589 1.365 . S
N589 C586 1.341 . S
N589 N588 1.365 . S
N589 H609 0.862 . S
C590 C585 1.501 . S
C590 H591 0.944 1_554 S
C590 H592 0.961 . S
C590 H593 0.960 . S
H591 C590 0.944 1_556 S
H592 C590 0.961 . S
H593 C590 0.960 . S
C594 N595 1.342 . S
C594 C598 1.401 . S
C594 C599 1.499 . S
N595 Co578 1.989 . S
N595 C594 1.342 . S
N595 N596 1.388 . S
N596 Co579 1.993 . S
N596 N595 1.388 . S
N596 C597 1.346 . S
C597 N596 1.346 . S
C597 C598 1.396 . S
C597 C607 1.510 . S
C598 C594 1.401 . S
C598 C597 1.396 . S
C599 C594 1.499 . S
C599 H600 0.959 . S
C599 H601 0.960 . S
C599 H602 0.961 . S
H600 C599 0.959 . S
H601 C599 0.960 . S
H602 C599 0.961 . S
O603 Co578 1.967 . S
O603 C611 1.258 . S
O604 Co579 1.941 . S
O604 C611 1.266 . S
H605 C607 0.959 . S
H606 C607 0.961 . S
C607 C597 1.510 . S
C607 H605 0.959 . S
C607 H606 0.961 . S
C607 H608 0.960 1_556 S
H608 C607 0.960 1_554 S
H609 N589 0.862 . S
O610 Co578 1.920 . S
O610 C583 1.289 . S
C611 O603 1.258 . S
C611 O604 1.266 . S
Co612 O615 1.970 . S
Co612 N629 1.989 . S
Co612 O637 1.967 . S
Co612 O644 1.920 1_554 S
Co613 O616 1.966 . S
Co613 N622 2.022 . S
Co613 N630 1.993 . S
Co613 O638 1.941 . S
C614 O615 1.258 . S
C614 O616 1.263 . S
O615 Co612 1.970 . S
O615 C614 1.258 . S
O616 Co613 1.966 . S
O616 C614 1.263 . S
C617 O618 1.235 . S
C617 O644 1.289 . S
O618 C617 1.235 . S
C619 C621 1.400 . S
C619 N622 1.351 . S
C619 C624 1.501 . S
C620 C621 1.387 . S
C620 N623 1.341 . S
C621 C619 1.400 . S
C621 C620 1.387 . S
N622 Co613 2.022 . S
N622 C619 1.351 . S
N622 N623 1.365 . S
N623 C620 1.341 . S
N623 N622 1.365 . S
N623 H643 0.862 . S
C624 C619 1.501 . S
C624 H625 0.961 . S
C624 H626 0.961 . S
C624 H627 0.960 . S
H625 C624 0.961 . S
H626 C624 0.961 . S
H627 C624 0.960 . S
C628 N629 1.342 . S
C628 C632 1.401 . S
C628 C633 1.499 1_554 S
N629 Co612 1.989 . S
N629 C628 1.342 . S
N629 N630 1.388 . S
N630 Co613 1.993 . S
N630 N629 1.388 . S
N630 C631 1.346 . S
C631 N630 1.346 . S
C631 C632 1.396 . S
C631 C641 1.510 . S
C632 C628 1.401 . S
C632 C631 1.396 . S
C633 C628 1.499 1_556 S
C633 H634 0.959 . S
C633 H635 0.960 . S
C633 H636 0.961 . S
H634 C633 0.959 . S
H635 C633 0.960 . S
H636 C633 0.961 . S
O637 Co612 1.967 . S
O637 C645 1.258 . S
O638 Co613 1.941 . S
O638 C645 1.266 . S
H639 C641 0.959 . S
H640 C641 0.961 . S
C641 C631 1.510 . S
C641 H639 0.959 . S
C641 H640 0.961 . S
C641 H642 0.960 . S
H642 C641 0.960 . S
H643 N623 0.862 . S
O644 Co612 1.920 1_556 S
O644 C617 1.289 . S
C645 O637 1.258 . S
C645 O638 1.266 . S
Co646 O649 1.970 . S
Co646 N663 1.989 . S
Co646 O671 1.967 . S
Co646 O678 1.920 . S
Co647 O650 1.966 . S
Co647 N656 2.022 . S
Co647 N664 1.993 . S
Co647 O672 1.941 . S
C648 O649 1.258 . S
C648 O650 1.263 . S
O649 Co646 1.970 . S
O649 C648 1.258 . S
O650 Co647 1.966 . S
O650 C648 1.263 . S
C651 O652 1.235 . S
C651 O678 1.289 . S
O652 C651 1.235 . S
C653 C655 1.400 . S
C653 N656 1.351 . S
C653 C658 1.501 . S
C654 C655 1.387 . S
C654 N657 1.341 . S
C655 C653 1.400 . S
C655 C654 1.387 . S
N656 Co647 2.022 . S
N656 C653 1.351 . S
N656 N657 1.365 . S
N657 C654 1.341 . S
N657 N656 1.365 . S
N657 H677 0.862 . S
C658 C653 1.501 . S
C658 H659 0.961 . S
C658 H660 0.961 . S
C658 H661 0.960 . S
H659 C658 0.961 . S
H660 C658 0.961 . S
H661 C658 0.960 . S
C662 N663 1.342 . S
C662 C666 1.401 . S
C662 C667 1.499 . S
N663 Co646 1.989 . S
N663 C662 1.342 . S
N663 N664 1.388 . S
N664 Co647 1.993 . S
N664 N663 1.388 . S
N664 C665 1.346 . S
C665 N664 1.346 . S
C665 C666 1.396 . S
C665 C675 1.510 . S
C666 C662 1.401 . S
C666 C665 1.396 . S
C667 C662 1.499 . S
C667 H668 0.959 . S
C667 H669 0.960 . S
C667 H670 0.961 . S
H668 C667 0.959 . S
H669 C667 0.960 . S
H670 C667 0.961 . S
O671 Co646 1.967 . S
O671 C679 1.258 . S
O672 Co647 1.941 . S
O672 C679 1.266 . S
H673 C675 0.959 . S
H674 C675 0.961 . S
C675 C665 1.510 . S
C675 H673 0.959 . S
C675 H674 0.961 . S
C675 H676 0.960 . S
H676 C675 0.960 . S
H677 N657 0.862 . S
O678 Co646 1.920 . S
O678 C651 1.289 . S
C679 O671 1.258 . S
C679 O672 1.266 . S
Co680 O683 1.970 . S
Co680 N697 1.989 . S
Co680 O705 1.967 . S
Co680 O712 1.920 . S
Co681 O684 1.966 . S
Co681 N690 2.022 . S
Co681 N698 1.993 . S
Co681 O706 1.941 . S
C682 O683 1.258 . S
C682 O684 1.263 . S
O683 Co680 1.970 . S
O683 C682 1.258 . S
O684 Co681 1.966 . S
O684 C682 1.263 . S
C685 O686 1.235 . S
C685 O712 1.289 . S
O686 C685 1.235 . S
C687 C689 1.400 . S
C687 N690 1.351 . S
C687 C692 1.501 . S
C688 C689 1.387 . S
C688 N691 1.341 . S
C689 C687 1.400 . S
C689 C688 1.387 . S
N690 Co681 2.022 . S
N690 C687 1.351 . S
N690 N691 1.365 . S
N691 C688 1.341 . S
N691 N690 1.365 . S
N691 H711 0.862 . S
C692 C687 1.501 . S
C692 H693 0.961 . S
C692 H694 0.961 . S
C692 H695 0.960 . S
H693 C692 0.961 . S
H694 C692 0.961 . S
H695 C692 0.960 . S
C696 N697 1.342 . S
C696 C700 1.401 . S
C696 C701 1.499 . S
N697 Co680 1.989 . S
N697 C696 1.342 . S
N697 N698 1.388 . S
N698 Co681 1.993 . S
N698 N697 1.388 . S
N698 C699 1.346 . S
C699 N698 1.346 . S
C699 C700 1.396 . S
C699 C709 1.510 . S
C700 C696 1.401 . S
C700 C699 1.396 . S
C701 C696 1.499 . S
C701 H702 0.959 . S
C701 H703 0.960 . S
C701 H704 0.961 . S
H702 C701 0.959 . S
H703 C701 0.960 . S
H704 C701 0.961 . S
O705 Co680 1.967 . S
O705 C713 1.258 . S
O706 Co681 1.941 . S
O706 C713 1.266 . S
H707 C709 0.959 . S
H708 C709 0.961 . S
C709 C699 1.510 . S
C709 H707 0.959 . S
C709 H708 0.961 . S
C709 H710 0.960 . S
H710 C709 0.960 . S
H711 N691 0.862 . S
O712 Co680 1.920 . S
O712 C685 1.289 . S
C713 O705 1.258 . S
C713 O706 1.266 . S
Co714 O717 1.970 . S
Co714 N731 1.989 . S
Co714 O739 1.967 . S
Co714 O746 1.920 . S
Co715 O718 1.966 . S
Co715 N724 2.022 . S
Co715 N732 1.993 . S
Co715 O740 1.941 . S
C716 O717 1.258 . S
C716 O718 1.263 . S
O717 Co714 1.970 . S
O717 C716 1.258 . S
O718 Co715 1.966 . S
O718 C716 1.263 . S
C719 O720 1.235 . S
C719 O746 1.289 . S
O720 C719 1.235 . S
C721 C723 1.400 . S
C721 N724 1.351 . S
C721 C726 1.501 . S
C722 C723 1.387 . S
C722 N725 1.341 . S
C723 C721 1.400 . S
C723 C722 1.387 . S
N724 Co715 2.022 . S
N724 C721 1.351 . S
N724 N725 1.365 . S
N725 C722 1.341 . S
N725 N724 1.365 . S
N725 H745 0.862 . S
C726 C721 1.501 . S
C726 H727 0.961 . S
C726 H728 0.961 . S
C726 H729 0.960 . S
H727 C726 0.961 . S
H728 C726 0.961 . S
H729 C726 0.960 . S
C730 N731 1.342 . S
C730 C734 1.401 . S
C730 C735 1.499 . S
N731 Co714 1.989 . S
N731 C730 1.342 . S
N731 N732 1.388 . S
N732 Co715 1.993 . S
N732 N731 1.388 . S
N732 C733 1.346 . S
C733 N732 1.346 . S
C733 C734 1.396 . S
C733 C743 1.510 . S
C734 C730 1.401 . S
C734 C733 1.396 . S
C735 C730 1.499 . S
C735 H736 0.959 . S
C735 H737 0.960 . S
C735 H738 0.961 . S
H736 C735 0.959 . S
H737 C735 0.960 . S
H738 C735 0.961 . S
O739 Co714 1.967 . S
O739 C747 1.258 . S
O740 Co715 1.941 . S
O740 C747 1.266 . S
H741 C743 0.959 . S
H742 C743 0.961 . S
C743 C733 1.510 . S
C743 H741 0.959 . S
C743 H742 0.961 . S
C743 H744 0.960 . S
H744 C743 0.960 . S
H745 N725 0.862 . S
O746 Co714 1.920 . S
O746 C719 1.289 . S
C747 O739 1.258 . S
C747 O740 1.266 . S
Co748 O751 1.970 . S
Co748 N765 1.989 . S
Co748 O773 1.967 . S
Co748 O780 1.920 1_556 S
Co749 O752 1.966 . S
Co749 N758 2.022 . S
Co749 N766 1.993 . S
Co749 O774 1.941 . S
C750 O751 1.258 . S
C750 O752 1.263 . S
O751 Co748 1.970 . S
O751 C750 1.258 . S
O752 Co749 1.966 . S
O752 C750 1.263 . S
C753 O754 1.235 . S
C753 O780 1.289 . S
O754 C753 1.235 . S
C755 C757 1.400 . S
C755 N758 1.351 . S
C755 C760 1.501 . S
C756 C757 1.387 . S
C756 N759 1.341 . S
C757 C755 1.400 . S
C757 C756 1.387 . S
N758 Co749 2.022 . S
N758 C755 1.351 . S
N758 N759 1.365 . S
N759 C756 1.341 . S
N759 N758 1.365 . S
N759 H779 0.862 . S
C760 C755 1.501 . S
C760 H761 0.961 . S
C760 H762 0.961 . S
C760 H763 0.960 . S
H761 C760 0.961 . S
H762 C760 0.961 . S
H763 C760 0.960 . S
C764 N765 1.342 . S
C764 C768 1.401 . S
C764 C769 1.499 1_556 S
N765 Co748 1.989 . S
N765 C764 1.342 . S
N765 N766 1.388 . S
N766 Co749 1.993 . S
N766 N765 1.388 . S
N766 C767 1.346 . S
C767 N766 1.346 . S
C767 C768 1.396 . S
C767 C777 1.510 . S
C768 C764 1.401 . S
C768 C767 1.396 . S
C769 C764 1.499 1_554 S
C769 H770 0.959 . S
C769 H771 0.960 . S
C769 H772 0.961 . S
H770 C769 0.959 . S
H771 C769 0.960 . S
H772 C769 0.961 . S
O773 Co748 1.967 . S
O773 C781 1.258 . S
O774 Co749 1.941 . S
O774 C781 1.266 . S
H775 C777 0.959 . S
H776 C777 0.961 . S
C777 C767 1.510 . S
C777 H775 0.959 . S
C777 H776 0.961 . S
C777 H778 0.960 . S
H778 C777 0.960 . S
H779 N759 0.862 . S
O780 Co748 1.920 1_554 S
O780 C753 1.289 . S
C781 O773 1.258 . S
C781 O774 1.266 . S
Co782 O785 1.970 . S
Co782 N799 1.989 . S
Co782 O807 1.967 . S
Co782 O814 1.920 . S
Co783 O786 1.966 . S
Co783 N792 2.022 1_554 S
Co783 N800 1.993 . S
Co783 O808 1.941 . S
C784 O785 1.258 . S
C784 O786 1.263 . S
O785 Co782 1.970 . S
O785 C784 1.258 . S
O786 Co783 1.966 . S
O786 C784 1.263 . S
C787 O788 1.235 . S
C787 O814 1.289 . S
O788 C787 1.235 . S
C789 C791 1.400 . S
C789 N792 1.351 . S
C789 C794 1.501 . S
C790 C791 1.387 . S
C790 N793 1.341 . S
C791 C789 1.400 . S
C791 C790 1.387 . S
N792 Co783 2.022 1_556 S
N792 C789 1.351 . S
N792 N793 1.365 . S
N793 C790 1.341 . S
N793 N792 1.365 . S
N793 H813 0.862 . S
C794 C789 1.501 . S
C794 H795 0.944 1_556 S
C794 H796 0.961 . S
C794 H797 0.960 . S
H795 C794 0.944 1_554 S
H796 C794 0.961 . S
H797 C794 0.960 . S
C798 N799 1.342 . S
C798 C802 1.401 . S
C798 C803 1.499 . S
N799 Co782 1.989 . S
N799 C798 1.342 . S
N799 N800 1.388 . S
N800 Co783 1.993 . S
N800 N799 1.388 . S
N800 C801 1.346 . S
C801 N800 1.346 . S
C801 C802 1.396 . S
C801 C811 1.510 . S
C802 C798 1.401 . S
C802 C801 1.396 . S
C803 C798 1.499 . S
C803 H804 0.959 . S
C803 H805 0.960 . S
C803 H806 0.961 . S
H804 C803 0.959 . S
H805 C803 0.960 . S
H806 C803 0.961 . S
O807 Co782 1.967 . S
O807 C815 1.258 . S
O808 Co783 1.941 . S
O808 C815 1.266 . S
H809 C811 0.959 . S
H810 C811 0.961 . S
C811 C801 1.510 . S
C811 H809 0.959 . S
C811 H810 0.961 . S
C811 H812 0.960 1_554 S
H812 C811 0.960 1_556 S
H813 N793 0.862 . S
O814 Co782 1.920 . S
O814 C787 1.289 . S
C815 O807 1.258 . S
C815 O808 1.266 . S
Co816 O819 1.970 . S
Co816 N833 1.989 . S
Co816 O841 1.967 . S
Co816 O848 1.920 . S
Co817 O820 1.966 . S
Co817 N826 2.022 . S
Co817 N834 1.993 . S
Co817 O842 1.941 . S
C818 O819 1.258 . S
C818 O820 1.263 . S
O819 Co816 1.970 . S
O819 C818 1.258 . S
O820 Co817 1.966 . S
O820 C818 1.263 . S
C821 O822 1.235 . S
C821 O848 1.289 . S
O822 C821 1.235 . S
C823 C825 1.400 . S
C823 N826 1.351 . S
C823 C828 1.501 . S
C824 C825 1.387 . S
C824 N827 1.341 . S
C825 C823 1.400 . S
C825 C824 1.387 . S
N826 Co817 2.022 . S
N826 C823 1.351 . S
N826 N827 1.365 . S
N827 C824 1.341 . S
N827 N826 1.365 . S
N827 H847 0.862 . S
C828 C823 1.501 . S
C828 H829 0.961 . S
C828 H830 0.961 . S
C828 H831 0.960 . S
H829 C828 0.961 . S
H830 C828 0.961 . S
H831 C828 0.960 . S
C832 N833 1.342 . S
C832 C836 1.401 . S
C832 C837 1.499 . S
N833 Co816 1.989 . S
N833 C832 1.342 . S
N833 N834 1.388 . S
N834 Co817 1.993 . S
N834 N833 1.388 . S
N834 C835 1.346 . S
C835 N834 1.346 . S
C835 C836 1.396 . S
C835 C845 1.510 . S
C836 C832 1.401 . S
C836 C835 1.396 . S
C837 C832 1.499 . S
C837 H838 0.959 . S
C837 H839 0.960 . S
C837 H840 0.961 . S
H838 C837 0.959 . S
H839 C837 0.960 . S
H840 C837 0.961 . S
O841 Co816 1.967 . S
O841 C849 1.258 . S
O842 Co817 1.941 . S
O842 C849 1.266 . S
H843 C845 0.959 . S
H844 C845 0.961 . S
C845 C835 1.510 . S
C845 H843 0.959 . S
C845 H844 0.961 . S
C845 H846 0.960 . S
H846 C845 0.960 . S
H847 N827 0.862 . S
O848 Co816 1.920 . S
O848 C821 1.289 . S
C849 O841 1.258 . S
C849 O842 1.266 . S
Co850 O853 1.970 . S
Co850 N867 1.989 . S
Co850 O875 1.967 . S
Co850 O882 1.920 . S
Co851 O854 1.966 . S
Co851 N860 2.022 1_554 S
Co851 N868 1.993 . S
Co851 O876 1.941 . S
C852 O853 1.258 . S
C852 O854 1.263 . S
O853 Co850 1.970 . S
O853 C852 1.258 . S
O854 Co851 1.966 . S
O854 C852 1.263 . S
C855 O856 1.235 . S
C855 O882 1.289 . S
O856 C855 1.235 . S
C857 C859 1.400 . S
C857 N860 1.351 . S
C857 C862 1.501 . S
C858 C859 1.387 . S
C858 N861 1.341 . S
C859 C857 1.400 . S
C859 C858 1.387 . S
N860 Co851 2.022 1_556 S
N860 C857 1.351 . S
N860 N861 1.365 . S
N861 C858 1.341 . S
N861 N860 1.365 . S
N861 H881 0.862 . S
C862 C857 1.501 . S
C862 H863 0.944 1_556 S
C862 H864 0.961 . S
C862 H865 0.960 . S
H863 C862 0.944 1_554 S
H864 C862 0.961 . S
H865 C862 0.960 . S
C866 N867 1.342 . S
C866 C870 1.401 . S
C866 C871 1.499 . S
N867 Co850 1.989 . S
N867 C866 1.342 . S
N867 N868 1.388 . S
N868 Co851 1.993 . S
N868 N867 1.388 . S
N868 C869 1.346 . S
C869 N868 1.346 . S
C869 C870 1.396 . S
C869 C879 1.510 . S
C870 C866 1.401 . S
C870 C869 1.396 . S
C871 C866 1.499 . S
C871 H872 0.959 . S
C871 H873 0.960 . S
C871 H874 0.961 . S
H872 C871 0.959 . S
H873 C871 0.960 . S
H874 C871 0.961 . S
O875 Co850 1.967 . S
O875 C883 1.258 . S
O876 Co851 1.941 . S
O876 C883 1.266 . S
H877 C879 0.959 . S
H878 C879 0.961 . S
C879 C869 1.510 . S
C879 H877 0.959 . S
C879 H878 0.961 . S
C879 H880 0.960 1_554 S
H880 C879 0.960 1_556 S
H881 N861 0.862 . S
O882 Co850 1.920 . S
O882 C855 1.289 . S
C883 O875 1.258 . S
C883 O876 1.266 . S
Co884 O887 1.970 . S
Co884 N901 1.989 . S
Co884 O909 1.967 . S
Co884 O916 1.920 1_556 S
Co885 O888 1.966 . S
Co885 N894 2.022 . S
Co885 N902 1.993 . S
Co885 O910 1.941 . S
C886 O887 1.258 . S
C886 O888 1.263 . S
O887 Co884 1.970 . S
O887 C886 1.258 . S
O888 Co885 1.966 . S
O888 C886 1.263 . S
C889 O890 1.235 . S
C889 O916 1.289 . S
O890 C889 1.235 . S
C891 C893 1.400 . S
C891 N894 1.351 . S
C891 C896 1.501 . S
C892 C893 1.387 . S
C892 N895 1.341 . S
C893 C891 1.400 . S
C893 C892 1.387 . S
N894 Co885 2.022 . S
N894 C891 1.351 . S
N894 N895 1.365 . S
N895 C892 1.341 . S
N895 N894 1.365 . S
N895 H915 0.862 . S
C896 C891 1.501 . S
C896 H897 0.961 . S
C896 H898 0.961 . S
C896 H899 0.960 . S
H897 C896 0.961 . S
H898 C896 0.961 . S
H899 C896 0.960 . S
C900 N901 1.342 . S
C900 C904 1.401 . S
C900 C905 1.499 1_556 S
N901 Co884 1.989 . S
N901 C900 1.342 . S
N901 N902 1.388 . S
N902 Co885 1.993 . S
N902 N901 1.388 . S
N902 C903 1.346 . S
C903 N902 1.346 . S
C903 C904 1.396 . S
C903 C913 1.510 . S
C904 C900 1.401 . S
C904 C903 1.396 . S
C905 C900 1.499 1_554 S
C905 H906 0.959 . S
C905 H907 0.960 . S
C905 H908 0.961 . S
H906 C905 0.959 . S
H907 C905 0.960 . S
H908 C905 0.961 . S
O909 Co884 1.967 . S
O909 C917 1.258 . S
O910 Co885 1.941 . S
O910 C917 1.266 . S
H911 C913 0.959 . S
H912 C913 0.961 . S
C913 C903 1.510 . S
C913 H911 0.959 . S
C913 H912 0.961 . S
C913 H914 0.960 . S
H914 C913 0.960 . S
H915 N895 0.862 . S
O916 Co884 1.920 1_554 S
O916 C889 1.289 . S
C917 O909 1.258 . S
C917 O910 1.266 . S
Co918 O921 1.970 . S
Co918 N935 1.989 . S
Co918 O943 1.967 . S
Co918 O950 1.920 . S
Co919 O922 1.966 . S
Co919 N928 2.022 . S
Co919 N936 1.993 . S
Co919 O944 1.941 . S
C920 O921 1.258 . S
C920 O922 1.263 . S
O921 Co918 1.970 . S
O921 C920 1.258 . S
O922 Co919 1.966 . S
O922 C920 1.263 . S
C923 O924 1.235 . S
C923 O950 1.289 . S
O924 C923 1.235 . S
C925 C927 1.400 . S
C925 N928 1.351 . S
C925 C930 1.501 . S
C926 C927 1.387 . S
C926 N929 1.341 . S
C927 C925 1.400 . S
C927 C926 1.387 . S
N928 Co919 2.022 . S
N928 C925 1.351 . S
N928 N929 1.365 . S
N929 C926 1.341 . S
N929 N928 1.365 . S
N929 H949 0.862 . S
C930 C925 1.501 . S
C930 H931 0.961 . S
C930 H932 0.961 . S
C930 H933 0.960 . S
H931 C930 0.961 . S
H932 C930 0.961 . S
H933 C930 0.960 . S
C934 N935 1.342 . S
C934 C938 1.401 . S
C934 C939 1.499 . S
N935 Co918 1.989 . S
N935 C934 1.342 . S
N935 N936 1.388 . S
N936 Co919 1.993 . S
N936 N935 1.388 . S
N936 C937 1.346 . S
C937 N936 1.346 . S
C937 C938 1.396 . S
C937 C947 1.510 . S
C938 C934 1.401 . S
C938 C937 1.396 . S
C939 C934 1.499 . S
C939 H940 0.959 . S
C939 H941 0.960 . S
C939 H942 0.961 . S
H940 C939 0.959 . S
H941 C939 0.960 . S
H942 C939 0.961 . S
O943 Co918 1.967 . S
O943 C951 1.258 . S
O944 Co919 1.941 . S
O944 C951 1.266 . S
H945 C947 0.959 . S
H946 C947 0.961 . S
C947 C937 1.510 . S
C947 H945 0.959 . S
C947 H946 0.961 . S
C947 H948 0.960 . S
H948 C947 0.960 . S
H949 N929 0.862 . S
O950 Co918 1.920 . S
O950 C923 1.289 . S
C951 O943 1.258 . S
C951 O944 1.266 . S
Co952 O955 1.970 . S
Co952 N969 1.989 . S
Co952 O977 1.967 . S
Co952 O984 1.920 . S
Co953 O956 1.966 . S
Co953 N962 2.022 . S
Co953 N970 1.993 . S
Co953 O978 1.941 . S
C954 O955 1.258 . S
C954 O956 1.263 . S
O955 Co952 1.970 . S
O955 C954 1.258 . S
O956 Co953 1.966 . S
O956 C954 1.263 . S
C957 O958 1.235 . S
C957 O984 1.289 . S
O958 C957 1.235 . S
C959 C961 1.400 . S
C959 N962 1.351 . S
C959 C964 1.501 . S
C960 C961 1.387 . S
C960 N963 1.341 . S
C961 C959 1.400 . S
C961 C960 1.387 . S
N962 Co953 2.022 . S
N962 C959 1.351 . S
N962 N963 1.365 . S
N963 C960 1.341 . S
N963 N962 1.365 . S
N963 H983 0.862 . S
C964 C959 1.501 . S
C964 H965 0.961 . S
C964 H966 0.961 . S
C964 H967 0.960 . S
H965 C964 0.961 . S
H966 C964 0.961 . S
H967 C964 0.960 . S
C968 N969 1.342 . S
C968 C972 1.401 . S
C968 C973 1.499 . S
N969 Co952 1.989 . S
N969 C968 1.342 . S
N969 N970 1.388 . S
N970 Co953 1.993 . S
N970 N969 1.388 . S
N970 C971 1.346 . S
C971 N970 1.346 . S
C971 C972 1.396 . S
C971 C981 1.510 . S
C972 C968 1.401 . S
C972 C971 1.396 . S
C973 C968 1.499 . S
C973 H974 0.959 . S
C973 H975 0.960 . S
C973 H976 0.961 . S
H974 C973 0.959 . S
H975 C973 0.960 . S
H976 C973 0.961 . S
O977 Co952 1.967 . S
O977 C985 1.258 . S
O978 Co953 1.941 . S
O978 C985 1.266 . S
H979 C981 0.959 . S
H980 C981 0.961 . S
C981 C971 1.510 . S
C981 H979 0.959 . S
C981 H980 0.961 . S
C981 H982 0.960 . S
H982 C981 0.960 . S
H983 N963 0.862 . S
O984 Co952 1.920 . S
O984 C957 1.289 . S
C985 O977 1.258 . S
C985 O978 1.266 . S
Co986 O989 1.970 . S
Co986 N1003 1.989 . S
Co986 O1011 1.967 . S
Co986 O1018 1.920 . S
Co987 O990 1.966 . S
Co987 N996 2.022 . S
Co987 N1004 1.993 . S
Co987 O1012 1.941 . S
C988 O989 1.258 . S
C988 O990 1.263 . S
O989 Co986 1.970 . S
O989 C988 1.258 . S
O990 Co987 1.966 . S
O990 C988 1.263 . S
C991 O992 1.235 . S
C991 O1018 1.289 . S
O992 C991 1.235 . S
C993 C995 1.400 . S
C993 N996 1.351 . S
C993 C998 1.501 . S
C994 C995 1.387 . S
C994 N997 1.341 . S
C995 C993 1.400 . S
C995 C994 1.387 . S
N996 Co987 2.022 . S
N996 C993 1.351 . S
N996 N997 1.365 . S
N997 C994 1.341 . S
N997 N996 1.365 . S
N997 H1017 0.862 . S
C998 C993 1.501 . S
C998 H999 0.961 . S
C998 H1000 0.961 . S
C998 H1001 0.960 . S
H999 C998 0.961 . S
H1000 C998 0.961 . S
H1001 C998 0.960 . S
C1002 N1003 1.342 . S
C1002 C1006 1.401 . S
C1002 C1007 1.499 . S
N1003 Co986 1.989 . S
N1003 C1002 1.342 . S
N1003 N1004 1.388 . S
N1004 Co987 1.993 . S
N1004 N1003 1.388 . S
N1004 C1005 1.346 . S
C1005 N1004 1.346 . S
C1005 C1006 1.396 . S
C1005 C1015 1.510 . S
C1006 C1002 1.401 . S
C1006 C1005 1.396 . S
C1007 C1002 1.499 . S
C1007 H1008 0.959 . S
C1007 H1009 0.960 . S
C1007 H1010 0.961 . S
H1008 C1007 0.959 . S
H1009 C1007 0.960 . S
H1010 C1007 0.961 . S
O1011 Co986 1.967 . S
O1011 C1019 1.258 . S
O1012 Co987 1.941 . S
O1012 C1019 1.266 . S
H1013 C1015 0.959 . S
H1014 C1015 0.961 . S
C1015 C1005 1.510 . S
C1015 H1013 0.959 . S
C1015 H1014 0.961 . S
C1015 H1016 0.960 . S
H1016 C1015 0.960 . S
H1017 N997 0.862 . S
O1018 Co986 1.920 . S
O1018 C991 1.289 . S
C1019 O1011 1.258 . S
C1019 O1012 1.266 . S
Co1020 O1023 1.970 . S
Co1020 N1037 1.989 . S
Co1020 O1045 1.967 . S
Co1020 O1052 1.920 1_554 S
Co1021 O1024 1.966 . S
Co1021 N1030 2.022 . S
Co1021 N1038 1.993 . S
Co1021 O1046 1.941 . S
C1022 O1023 1.258 . S
C1022 O1024 1.263 . S
O1023 Co1020 1.970 . S
O1023 C1022 1.258 . S
O1024 Co1021 1.966 . S
O1024 C1022 1.263 . S
C1025 O1026 1.235 . S
C1025 O1052 1.289 . S
O1026 C1025 1.235 . S
C1027 C1029 1.400 . S
C1027 N1030 1.351 . S
C1027 C1032 1.501 . S
C1028 C1029 1.387 . S
C1028 N1031 1.341 . S
C1029 C1027 1.400 . S
C1029 C1028 1.387 . S
N1030 Co1021 2.022 . S
N1030 C1027 1.351 . S
N1030 N1031 1.365 . S
N1031 C1028 1.341 . S
N1031 N1030 1.365 . S
N1031 H1051 0.862 . S
C1032 C1027 1.501 . S
C1032 H1033 0.961 . S
C1032 H1034 0.961 . S
C1032 H1035 0.960 . S
H1033 C1032 0.961 . S
H1034 C1032 0.961 . S
H1035 C1032 0.960 . S
C1036 N1037 1.342 . S
C1036 C1040 1.401 . S
C1036 C1041 1.499 1_554 S
N1037 Co1020 1.989 . S
N1037 C1036 1.342 . S
N1037 N1038 1.388 . S
N1038 Co1021 1.993 . S
N1038 N1037 1.388 . S
N1038 C1039 1.346 . S
C1039 N1038 1.346 . S
C1039 C1040 1.396 . S
C1039 C1049 1.510 . S
C1040 C1036 1.401 . S
C1040 C1039 1.396 . S
C1041 C1036 1.499 1_556 S
C1041 H1042 0.959 . S
C1041 H1043 0.960 . S
C1041 H1044 0.961 . S
H1042 C1041 0.959 . S
H1043 C1041 0.960 . S
H1044 C1041 0.961 . S
O1045 Co1020 1.967 . S
O1045 C1053 1.258 . S
O1046 Co1021 1.941 . S
O1046 C1053 1.266 . S
H1047 C1049 0.959 . S
H1048 C1049 0.961 . S
C1049 C1039 1.510 . S
C1049 H1047 0.959 . S
C1049 H1048 0.961 . S
C1049 H1050 0.960 . S
H1050 C1049 0.960 . S
H1051 N1031 0.862 . S
O1052 Co1020 1.920 1_556 S
O1052 C1025 1.289 . S
C1053 O1045 1.258 . S
C1053 O1046 1.266 . S
Co1054 O1057 1.970 . S
Co1054 N1071 1.989 . S
Co1054 O1079 1.967 . S
Co1054 O1086 1.920 . S
Co1055 O1058 1.966 . S
Co1055 N1064 2.022 1_556 S
Co1055 N1072 1.993 . S
Co1055 O1080 1.941 . S
C1056 O1057 1.258 . S
C1056 O1058 1.263 . S
O1057 Co1054 1.970 . S
O1057 C1056 1.258 . S
O1058 Co1055 1.966 . S
O1058 C1056 1.263 . S
C1059 O1060 1.235 . S
C1059 O1086 1.289 . S
O1060 C1059 1.235 . S
C1061 C1063 1.400 . S
C1061 N1064 1.351 . S
C1061 C1066 1.501 . S
C1062 C1063 1.387 . S
C1062 N1065 1.341 . S
C1063 C1061 1.400 . S
C1063 C1062 1.387 . S
N1064 Co1055 2.022 1_554 S
N1064 C1061 1.351 . S
N1064 N1065 1.365 . S
N1065 C1062 1.341 . S
N1065 N1064 1.365 . S
N1065 H1085 0.862 . S
C1066 C1061 1.501 . S
C1066 H1067 0.944 1_554 S
C1066 H1068 0.961 . S
C1066 H1069 0.960 . S
H1067 C1066 0.944 1_556 S
H1068 C1066 0.961 . S
H1069 C1066 0.960 . S
C1070 N1071 1.342 . S
C1070 C1074 1.401 . S
C1070 C1075 1.499 . S
N1071 Co1054 1.989 . S
N1071 C1070 1.342 . S
N1071 N1072 1.388 . S
N1072 Co1055 1.993 . S
N1072 N1071 1.388 . S
N1072 C1073 1.346 . S
C1073 N1072 1.346 . S
C1073 C1074 1.396 . S
C1073 C1083 1.510 . S
C1074 C1070 1.401 . S
C1074 C1073 1.396 . S
C1075 C1070 1.499 . S
C1075 H1076 0.959 . S
C1075 H1077 0.960 . S
C1075 H1078 0.961 . S
H1076 C1075 0.959 . S
H1077 C1075 0.960 . S
H1078 C1075 0.961 . S
O1079 Co1054 1.967 . S
O1079 C1087 1.258 . S
O1080 Co1055 1.941 . S
O1080 C1087 1.266 . S
H1081 C1083 0.959 . S
H1082 C1083 0.961 . S
C1083 C1073 1.510 . S
C1083 H1081 0.959 . S
C1083 H1082 0.961 . S
C1083 H1084 0.960 1_556 S
H1084 C1083 0.960 1_554 S
H1085 N1065 0.862 . S
O1086 Co1054 1.920 . S
O1086 C1059 1.289 . S
C1087 O1079 1.258 . S
C1087 O1080 1.266 . S
C1088 C1089 1.391 . S
C1088 C1090 1.394 . S
C1088 H1104 0.931 . S
C1089 C1088 1.391 . S
C1089 C1093 1.376 . S
C1090 C1088 1.394 . S
C1090 C1091 1.369 . S
C1090 C1094 1.531 . S
C1091 C1090 1.369 . S
C1091 C1092 1.410 . S
C1091 C1099 1.503 . S
C1092 C1091 1.410 . S
C1092 C1093 1.392 . S
C1092 C1095 1.511 . S
C1093 C1089 1.376 . S
C1093 C1092 1.392 . S
C1093 H1105 0.929 . S
C1094 C1090 1.531 . S
C1094 H1106 0.960 . S
C1094 H1107 0.962 . S
C1094 H1108 0.960 . S
C1095 C1092 1.511 . S
C1095 H1109 0.961 . S
C1095 H1110 0.961 . S
C1095 H1111 0.961 . S
C1096 C1097 1.370 . S
C1096 C1098 1.363 . S
C1096 H1112 0.931 . S
C1097 C1096 1.370 . S
C1097 C1101 1.408 . S
C1098 C1096 1.363 . S
C1098 C1099 1.370 . S
C1098 C1102 1.524 . S
C1099 C1091 1.503 . S
C1099 C1098 1.370 . S
C1099 C1100 1.403 . S
C1100 C1099 1.403 . S
C1100 C1101 1.404 . S
C1100 C1103 1.539 . S
C1101 C1097 1.408 . S
C1101 C1100 1.404 . S
C1101 H1113 0.930 . S
C1102 C1098 1.524 . S
C1102 H1114 0.956 . S
C1102 H1115 0.961 . S
C1102 H1116 0.961 . S
C1103 C1100 1.539 . S
C1103 H1117 0.958 . S
C1103 H1118 0.961 . S
C1103 H1119 0.960 . S
H1104 C1088 0.931 . S
H1105 C1093 0.929 . S
H1106 C1094 0.960 . S
H1107 C1094 0.962 . S
H1108 C1094 0.960 . S
H1109 C1095 0.961 . S
H1110 C1095 0.961 . S
H1111 C1095 0.961 . S
H1112 C1096 0.931 . S
H1113 C1101 0.930 . S
H1114 C1102 0.956 . S
H1115 C1102 0.961 . S
H1116 C1102 0.961 . S
H1117 C1103 0.958 . S
H1118 C1103 0.961 . S
H1119 C1103 0.960 . S
C1120 C1121 1.391 . S
C1120 C1122 1.394 . S
C1120 H1136 0.931 . S
C1121 C1120 1.391 . S
C1121 C1125 1.376 . S
C1122 C1120 1.394 . S
C1122 C1123 1.369 . S
C1122 C1126 1.531 . S
C1123 C1122 1.369 . S
C1123 C1124 1.410 . S
C1123 C1131 1.503 . S
C1124 C1123 1.410 . S
C1124 C1125 1.392 . S
C1124 C1127 1.511 . S
C1125 C1121 1.376 . S
C1125 C1124 1.392 . S
C1125 H1137 0.929 . S
C1126 C1122 1.531 . S
C1126 H1138 0.960 . S
C1126 H1139 0.962 . S
C1126 H1140 0.960 . S
C1127 C1124 1.511 . S
C1127 H1141 0.961 . S
C1127 H1142 0.961 . S
C1127 H1143 0.961 . S
C1128 C1129 1.370 . S
C1128 C1130 1.363 1_554 S
C1128 H1144 0.931 . S
C1129 C1128 1.370 . S
C1129 C1133 1.408 . S
C1130 C1128 1.363 1_556 S
C1130 C1131 1.370 . S
C1130 C1134 1.524 . S
C1131 C1123 1.503 . S
C1131 C1130 1.370 . S
C1131 C1132 1.403 . S
C1132 C1131 1.403 . S
C1132 C1133 1.404 1_556 S
C1132 C1135 1.539 . S
C1133 C1129 1.408 . S
C1133 C1132 1.404 1_554 S
C1133 H1145 0.930 . S
C1134 C1130 1.524 . S
C1134 H1146 0.956 . S
C1134 H1147 0.961 . S
C1134 H1148 0.961 . S
C1135 C1132 1.539 . S
C1135 H1149 0.958 . S
C1135 H1150 0.961 . S
C1135 H1151 0.960 . S
H1136 C1120 0.931 . S
H1137 C1125 0.929 . S
H1138 C1126 0.960 . S
H1139 C1126 0.962 . S
H1140 C1126 0.960 . S
H1141 C1127 0.961 . S
H1142 C1127 0.961 . S
H1143 C1127 0.961 . S
H1144 C1128 0.931 . S
H1145 C1133 0.930 . S
H1146 C1134 0.956 . S
H1147 C1134 0.961 . S
H1148 C1134 0.961 . S
H1149 C1135 0.958 . S
H1150 C1135 0.961 . S
H1151 C1135 0.960 . S
C1152 C1153 1.391 . S
C1152 C1154 1.394 1_556 S
C1152 H1168 0.931 . S
C1153 C1152 1.391 . S
C1153 C1157 1.376 . S
C1154 C1152 1.394 1_554 S
C1154 C1155 1.369 . S
C1154 C1158 1.531 . S
C1155 C1154 1.369 . S
C1155 C1156 1.410 . S
C1155 C1163 1.503 . S
C1156 C1155 1.410 . S
C1156 C1157 1.392 1_554 S
C1156 C1159 1.511 . S
C1157 C1153 1.376 . S
C1157 C1156 1.392 1_556 S
C1157 H1169 0.929 . S
C1158 C1154 1.531 . S
C1158 H1170 0.960 . S
C1158 H1171 0.962 . S
C1158 H1172 0.960 . S
C1159 C1156 1.511 . S
C1159 H1173 0.961 . S
C1159 H1174 0.961 . S
C1159 H1175 0.961 . S
C1160 C1161 1.370 . S
C1160 C1162 1.363 . S
C1160 H1176 0.931 . S
C1161 C1160 1.370 . S
C1161 C1165 1.408 . S
C1162 C1160 1.363 . S
C1162 C1163 1.370 . S
C1162 C1166 1.524 . S
C1163 C1155 1.503 . S
C1163 C1162 1.370 . S
C1163 C1164 1.403 . S
C1164 C1163 1.403 . S
C1164 C1165 1.404 . S
C1164 C1167 1.539 . S
C1165 C1161 1.408 . S
C1165 C1164 1.404 . S
C1165 H1177 0.930 . S
C1166 C1162 1.524 . S
C1166 H1178 0.956 . S
C1166 H1179 0.961 . S
C1166 H1180 0.961 . S
C1167 C1164 1.539 . S
C1167 H1181 0.958 . S
C1167 H1182 0.961 . S
C1167 H1183 0.960 . S
H1168 C1152 0.931 . S
H1169 C1157 0.929 . S
H1170 C1158 0.960 . S
H1171 C1158 0.962 . S
H1172 C1158 0.960 . S
H1173 C1159 0.961 . S
H1174 C1159 0.961 . S
H1175 C1159 0.961 . S
H1176 C1160 0.931 . S
H1177 C1165 0.930 . S
H1178 C1166 0.956 . S
H1179 C1166 0.961 . S
H1180 C1166 0.961 . S
H1181 C1167 0.958 . S
H1182 C1167 0.961 . S
H1183 C1167 0.960 . S
C1184 C1185 1.391 . S
C1184 C1186 1.394 . S
C1184 H1200 0.931 . S
C1185 C1184 1.391 . S
C1185 C1189 1.376 . S
C1186 C1184 1.394 . S
C1186 C1187 1.369 . S
C1186 C1190 1.531 . S
C1187 C1186 1.369 . S
C1187 C1188 1.410 . S
C1187 C1195 1.503 . S
C1188 C1187 1.410 . S
C1188 C1189 1.392 . S
C1188 C1191 1.511 . S
C1189 C1185 1.376 . S
C1189 C1188 1.392 . S
C1189 H1201 0.929 . S
C1190 C1186 1.531 . S
C1190 H1202 0.960 . S
C1190 H1203 0.962 . S
C1190 H1204 0.960 . S
C1191 C1188 1.511 . S
C1191 H1205 0.961 . S
C1191 H1206 0.961 . S
C1191 H1207 0.961 . S
C1192 C1193 1.370 . S
C1192 C1194 1.363 . S
C1192 H1208 0.931 . S
C1193 C1192 1.370 . S
C1193 C1197 1.408 . S
C1194 C1192 1.363 . S
C1194 C1195 1.370 . S
C1194 C1198 1.524 . S
C1195 C1187 1.503 . S
C1195 C1194 1.370 . S
C1195 C1196 1.403 . S
C1196 C1195 1.403 . S
C1196 C1197 1.404 . S
C1196 C1199 1.539 . S
C1197 C1193 1.408 . S
C1197 C1196 1.404 . S
C1197 H1209 0.930 . S
C1198 C1194 1.524 . S
C1198 H1210 0.956 . S
C1198 H1211 0.961 . S
C1198 H1212 0.961 . S
C1199 C1196 1.539 . S
C1199 H1213 0.958 . S
C1199 H1214 0.961 . S
C1199 H1215 0.960 . S
H1200 C1184 0.931 . S
H1201 C1189 0.929 . S
H1202 C1190 0.960 . S
H1203 C1190 0.962 . S
H1204 C1190 0.960 . S
H1205 C1191 0.961 . S
H1206 C1191 0.961 . S
H1207 C1191 0.961 . S
H1208 C1192 0.931 . S
H1209 C1197 0.930 . S
H1210 C1198 0.956 . S
H1211 C1198 0.961 . S
H1212 C1198 0.961 . S
H1213 C1199 0.958 . S
H1214 C1199 0.961 . S
H1215 C1199 0.960 . S
C1216 C1217 1.391 . S
C1216 C1218 1.394 . S
C1216 H1232 0.931 . S
C1217 C1216 1.391 . S
C1217 C1221 1.376 . S
C1218 C1216 1.394 . S
C1218 C1219 1.369 . S
C1218 C1222 1.531 . S
C1219 C1218 1.369 . S
C1219 C1220 1.410 . S
C1219 C1227 1.503 . S
C1220 C1219 1.410 . S
C1220 C1221 1.392 . S
C1220 C1223 1.511 . S
C1221 C1217 1.376 . S
C1221 C1220 1.392 . S
C1221 H1233 0.929 . S
C1222 C1218 1.531 . S
C1222 H1234 0.960 . S
C1222 H1235 0.962 . S
C1222 H1236 0.960 . S
C1223 C1220 1.511 . S
C1223 H1237 0.961 . S
C1223 H1238 0.961 . S
C1223 H1239 0.961 . S
C1224 C1225 1.370 . S
C1224 C1226 1.363 . S
C1224 H1240 0.931 . S
C1225 C1224 1.370 . S
C1225 C1229 1.408 . S
C1226 C1224 1.363 . S
C1226 C1227 1.370 . S
C1226 C1230 1.524 . S
C1227 C1219 1.503 . S
C1227 C1226 1.370 . S
C1227 C1228 1.403 . S
C1228 C1227 1.403 . S
C1228 C1229 1.404 . S
C1228 C1231 1.539 . S
C1229 C1225 1.408 . S
C1229 C1228 1.404 . S
C1229 H1241 0.930 . S
C1230 C1226 1.524 . S
C1230 H1242 0.956 . S
C1230 H1243 0.961 . S
C1230 H1244 0.961 . S
C1231 C1228 1.539 . S
C1231 H1245 0.958 . S
C1231 H1246 0.961 . S
C1231 H1247 0.960 . S
H1232 C1216 0.931 . S
H1233 C1221 0.929 . S
H1234 C1222 0.960 . S
H1235 C1222 0.962 . S
H1236 C1222 0.960 . S
H1237 C1223 0.961 . S
H1238 C1223 0.961 . S
H1239 C1223 0.961 . S
H1240 C1224 0.931 . S
H1241 C1229 0.930 . S
H1242 C1230 0.956 . S
H1243 C1230 0.961 . S
H1244 C1230 0.961 . S
H1245 C1231 0.958 . S
H1246 C1231 0.961 . S
H1247 C1231 0.960 . S
C1248 C1249 1.391 . S
C1248 C1250 1.394 . S
C1248 H1264 0.931 . S
C1249 C1248 1.391 . S
C1249 C1253 1.376 . S
C1250 C1248 1.394 . S
C1250 C1251 1.369 . S
C1250 C1254 1.531 . S
C1251 C1250 1.369 . S
C1251 C1252 1.410 . S
C1251 C1259 1.503 . S
C1252 C1251 1.410 . S
C1252 C1253 1.392 . S
C1252 C1255 1.511 . S
C1253 C1249 1.376 . S
C1253 C1252 1.392 . S
C1253 H1265 0.929 . S
C1254 C1250 1.531 . S
C1254 H1266 0.960 . S
C1254 H1267 0.962 . S
C1254 H1268 0.960 . S
C1255 C1252 1.511 . S
C1255 H1269 0.961 . S
C1255 H1270 0.961 . S
C1255 H1271 0.961 . S
C1256 C1257 1.370 . S
C1256 C1258 1.363 . S
C1256 H1272 0.931 . S
C1257 C1256 1.370 . S
C1257 C1261 1.408 . S
C1258 C1256 1.363 . S
C1258 C1259 1.370 . S
C1258 C1262 1.524 . S
C1259 C1251 1.503 . S
C1259 C1258 1.370 . S
C1259 C1260 1.403 . S
C1260 C1259 1.403 . S
C1260 C1261 1.404 . S
C1260 C1263 1.539 . S
C1261 C1257 1.408 . S
C1261 C1260 1.404 . S
C1261 H1273 0.930 . S
C1262 C1258 1.524 . S
C1262 H1274 0.956 . S
C1262 H1275 0.961 . S
C1262 H1276 0.961 . S
C1263 C1260 1.539 . S
C1263 H1277 0.958 . S
C1263 H1278 0.961 . S
C1263 H1279 0.960 . S
H1264 C1248 0.931 . S
H1265 C1253 0.929 . S
H1266 C1254 0.960 . S
H1267 C1254 0.962 . S
H1268 C1254 0.960 . S
H1269 C1255 0.961 . S
H1270 C1255 0.961 . S
H1271 C1255 0.961 . S
H1272 C1256 0.931 . S
H1273 C1261 0.930 . S
H1274 C1262 0.956 . S
H1275 C1262 0.961 . S
H1276 C1262 0.961 . S
H1277 C1263 0.958 . S
H1278 C1263 0.961 . S
H1279 C1263 0.960 . S
C1280 C1281 1.391 . S
C1280 C1282 1.394 . S
C1280 H1296 0.931 . S
C1281 C1280 1.391 . S
C1281 C1285 1.376 . S
C1282 C1280 1.394 . S
C1282 C1283 1.369 . S
C1282 C1286 1.531 . S
C1283 C1282 1.369 . S
C1283 C1284 1.410 . S
C1283 C1291 1.503 . S
C1284 C1283 1.410 . S
C1284 C1285 1.392 . S
C1284 C1287 1.511 . S
C1285 C1281 1.376 . S
C1285 C1284 1.392 . S
C1285 H1297 0.929 . S
C1286 C1282 1.531 . S
C1286 H1298 0.960 . S
C1286 H1299 0.962 . S
C1286 H1300 0.960 . S
C1287 C1284 1.511 . S
C1287 H1301 0.961 . S
C1287 H1302 0.961 . S
C1287 H1303 0.961 . S
C1288 C1289 1.370 . S
C1288 C1290 1.363 1_554 S
C1288 H1304 0.931 . S
C1289 C1288 1.370 . S
C1289 C1293 1.408 . S
C1290 C1288 1.363 1_556 S
C1290 C1291 1.370 . S
C1290 C1294 1.524 . S
C1291 C1283 1.503 . S
C1291 C1290 1.370 . S
C1291 C1292 1.403 . S
C1292 C1291 1.403 . S
C1292 C1293 1.404 1_556 S
C1292 C1295 1.539 . S
C1293 C1289 1.408 . S
C1293 C1292 1.404 1_554 S
C1293 H1305 0.930 . S
C1294 C1290 1.524 . S
C1294 H1306 0.956 . S
C1294 H1307 0.961 . S
C1294 H1308 0.961 . S
C1295 C1292 1.539 . S
C1295 H1309 0.958 . S
C1295 H1310 0.961 . S
C1295 H1311 0.960 . S
H1296 C1280 0.931 . S
H1297 C1285 0.929 . S
H1298 C1286 0.960 . S
H1299 C1286 0.962 . S
H1300 C1286 0.960 . S
H1301 C1287 0.961 . S
H1302 C1287 0.961 . S
H1303 C1287 0.961 . S
H1304 C1288 0.931 . S
H1305 C1293 0.930 . S
H1306 C1294 0.956 . S
H1307 C1294 0.961 . S
H1308 C1294 0.961 . S
H1309 C1295 0.958 . S
H1310 C1295 0.961 . S
H1311 C1295 0.960 . S
C1312 C1313 1.391 . S
C1312 C1314 1.394 1_556 S
C1312 H1328 0.931 . S
C1313 C1312 1.391 . S
C1313 C1317 1.376 . S
C1314 C1312 1.394 1_554 S
C1314 C1315 1.369 . S
C1314 C1318 1.531 . S
C1315 C1314 1.369 . S
C1315 C1316 1.410 . S
C1315 C1323 1.503 . S
C1316 C1315 1.410 . S
C1316 C1317 1.392 1_554 S
C1316 C1319 1.511 . S
C1317 C1313 1.376 . S
C1317 C1316 1.392 1_556 S
C1317 H1329 0.929 . S
C1318 C1314 1.531 . S
C1318 H1330 0.960 . S
C1318 H1331 0.962 . S
C1318 H1332 0.960 . S
C1319 C1316 1.511 . S
C1319 H1333 0.961 . S
C1319 H1334 0.961 . S
C1319 H1335 0.961 . S
C1320 C1321 1.370 . S
C1320 C1322 1.363 . S
C1320 H1336 0.931 . S
C1321 C1320 1.370 . S
C1321 C1325 1.408 . S
C1322 C1320 1.363 . S
C1322 C1323 1.370 . S
C1322 C1326 1.524 . S
C1323 C1315 1.503 . S
C1323 C1322 1.370 . S
C1323 C1324 1.403 . S
C1324 C1323 1.403 . S
C1324 C1325 1.404 . S
C1324 C1327 1.539 . S
C1325 C1321 1.408 . S
C1325 C1324 1.404 . S
C1325 H1337 0.930 . S
C1326 C1322 1.524 . S
C1326 H1338 0.956 . S
C1326 H1339 0.961 . S
C1326 H1340 0.961 . S
C1327 C1324 1.539 . S
C1327 H1341 0.958 . S
C1327 H1342 0.961 . S
C1327 H1343 0.960 . S
H1328 C1312 0.931 . S
H1329 C1317 0.929 . S
H1330 C1318 0.960 . S
H1331 C1318 0.962 . S
H1332 C1318 0.960 . S
H1333 C1319 0.961 . S
H1334 C1319 0.961 . S
H1335 C1319 0.961 . S
H1336 C1320 0.931 . S
H1337 C1325 0.930 . S
H1338 C1326 0.956 . S
H1339 C1326 0.961 . S
H1340 C1326 0.961 . S
H1341 C1327 0.958 . S
H1342 C1327 0.961 . S
H1343 C1327 0.960 . S
C1344 C1345 1.391 . S
C1344 C1346 1.394 . S
C1344 H1360 0.931 . S
C1345 C1344 1.391 . S
C1345 C1349 1.376 . S
C1346 C1344 1.394 . S
C1346 C1347 1.369 . S
C1346 C1350 1.531 . S
C1347 C1346 1.369 . S
C1347 C1348 1.410 . S
C1347 C1355 1.503 . S
C1348 C1347 1.410 . S
C1348 C1349 1.392 . S
C1348 C1351 1.511 . S
C1349 C1345 1.376 . S
C1349 C1348 1.392 . S
C1349 H1361 0.929 . S
C1350 C1346 1.531 . S
C1350 H1362 0.960 . S
C1350 H1363 0.962 . S
C1350 H1364 0.960 . S
C1351 C1348 1.511 . S
C1351 H1365 0.961 . S
C1351 H1366 0.961 . S
C1351 H1367 0.961 . S
C1352 C1353 1.370 . S
C1352 C1354 1.363 . S
C1352 H1368 0.931 . S
C1353 C1352 1.370 . S
C1353 C1357 1.408 . S
C1354 C1352 1.363 . S
C1354 C1355 1.370 . S
C1354 C1358 1.524 . S
C1355 C1347 1.503 . S
C1355 C1354 1.370 . S
C1355 C1356 1.403 . S
C1356 C1355 1.403 . S
C1356 C1357 1.404 . S
C1356 C1359 1.539 . S
C1357 C1353 1.408 . S
C1357 C1356 1.404 . S
C1357 H1369 0.930 . S
C1358 C1354 1.524 . S
C1358 H1370 0.956 . S
C1358 H1371 0.961 . S
C1358 H1372 0.961 . S
C1359 C1356 1.539 . S
C1359 H1373 0.958 . S
C1359 H1374 0.961 . S
C1359 H1375 0.960 . S
H1360 C1344 0.931 . S
H1361 C1349 0.929 . S
H1362 C1350 0.960 . S
H1363 C1350 0.962 . S
H1364 C1350 0.960 . S
H1365 C1351 0.961 . S
H1366 C1351 0.961 . S
H1367 C1351 0.961 . S
H1368 C1352 0.931 . S
H1369 C1357 0.930 . S
H1370 C1358 0.956 . S
H1371 C1358 0.961 . S
H1372 C1358 0.961 . S
H1373 C1359 0.958 . S
H1374 C1359 0.961 . S
H1375 C1359 0.960 . S
C1376 C1377 1.391 . S
C1376 C1378 1.394 1_556 S
C1376 H1392 0.931 . S
C1377 C1376 1.391 . S
C1377 C1381 1.376 . S
C1378 C1376 1.394 1_554 S
C1378 C1379 1.369 . S
C1378 C1382 1.531 . S
C1379 C1378 1.369 . S
C1379 C1380 1.410 . S
C1379 C1387 1.503 . S
C1380 C1379 1.410 . S
C1380 C1381 1.392 1_554 S
C1380 C1383 1.511 . S
C1381 C1377 1.376 . S
C1381 C1380 1.392 1_556 S
C1381 H1393 0.929 . S
C1382 C1378 1.531 . S
C1382 H1394 0.960 . S
C1382 H1395 0.962 . S
C1382 H1396 0.960 . S
C1383 C1380 1.511 . S
C1383 H1397 0.961 . S
C1383 H1398 0.961 . S
C1383 H1399 0.961 . S
C1384 C1385 1.370 . S
C1384 C1386 1.363 . S
C1384 H1400 0.931 . S
C1385 C1384 1.370 . S
C1385 C1389 1.408 . S
C1386 C1384 1.363 . S
C1386 C1387 1.370 . S
C1386 C1390 1.524 . S
C1387 C1379 1.503 . S
C1387 C1386 1.370 . S
C1387 C1388 1.403 . S
C1388 C1387 1.403 . S
C1388 C1389 1.404 . S
C1388 C1391 1.539 . S
C1389 C1385 1.408 . S
C1389 C1388 1.404 . S
C1389 H1401 0.930 . S
C1390 C1386 1.524 . S
C1390 H1402 0.956 . S
C1390 H1403 0.961 . S
C1390 H1404 0.961 . S
C1391 C1388 1.539 . S
C1391 H1405 0.958 . S
C1391 H1406 0.961 . S
C1391 H1407 0.960 . S
H1392 C1376 0.931 . S
H1393 C1381 0.929 . S
H1394 C1382 0.960 . S
H1395 C1382 0.962 . S
H1396 C1382 0.960 . S
H1397 C1383 0.961 . S
H1398 C1383 0.961 . S
H1399 C1383 0.961 . S
H1400 C1384 0.931 . S
H1401 C1389 0.930 . S
H1402 C1390 0.956 . S
H1403 C1390 0.961 . S
H1404 C1390 0.961 . S
H1405 C1391 0.958 . S
H1406 C1391 0.961 . S
H1407 C1391 0.960 . S
C1408 C1409 1.391 . S
C1408 C1410 1.394 . S
C1408 H1424 0.931 . S
C1409 C1408 1.391 . S
C1409 C1413 1.376 . S
C1410 C1408 1.394 . S
C1410 C1411 1.369 . S
C1410 C1414 1.531 . S
C1411 C1410 1.369 . S
C1411 C1412 1.410 . S
C1411 C1419 1.503 . S
C1412 C1411 1.410 . S
C1412 C1413 1.392 . S
C1412 C1415 1.511 . S
C1413 C1409 1.376 . S
C1413 C1412 1.392 . S
C1413 H1425 0.929 . S
C1414 C1410 1.531 . S
C1414 H1426 0.960 . S
C1414 H1427 0.962 . S
C1414 H1428 0.960 . S
C1415 C1412 1.511 . S
C1415 H1429 0.961 . S
C1415 H1430 0.961 . S
C1415 H1431 0.961 . S
C1416 C1417 1.370 . S
C1416 C1418 1.363 1_554 S
C1416 H1432 0.931 . S
C1417 C1416 1.370 . S
C1417 C1421 1.408 . S
C1418 C1416 1.363 1_556 S
C1418 C1419 1.370 . S
C1418 C1422 1.524 . S
C1419 C1411 1.503 . S
C1419 C1418 1.370 . S
C1419 C1420 1.403 . S
C1420 C1419 1.403 . S
C1420 C1421 1.404 1_556 S
C1420 C1423 1.539 . S
C1421 C1417 1.408 . S
C1421 C1420 1.404 1_554 S
C1421 H1433 0.930 . S
C1422 C1418 1.524 . S
C1422 H1434 0.956 . S
C1422 H1435 0.961 . S
C1422 H1436 0.961 . S
C1423 C1420 1.539 . S
C1423 H1437 0.958 . S
C1423 H1438 0.961 . S
C1423 H1439 0.960 . S
H1424 C1408 0.931 . S
H1425 C1413 0.929 . S
H1426 C1414 0.960 . S
H1427 C1414 0.962 . S
H1428 C1414 0.960 . S
H1429 C1415 0.961 . S
H1430 C1415 0.961 . S
H1431 C1415 0.961 . S
H1432 C1416 0.931 . S
H1433 C1421 0.930 . S
H1434 C1422 0.956 . S
H1435 C1422 0.961 . S
H1436 C1422 0.961 . S
H1437 C1423 0.958 . S
H1438 C1423 0.961 . S
H1439 C1423 0.960 . S
C1440 C1441 1.391 . S
C1440 C1442 1.394 . S
C1440 H1456 0.931 . S
C1441 C1440 1.391 . S
C1441 C1445 1.376 . S
C1442 C1440 1.394 . S
C1442 C1443 1.369 . S
C1442 C1446 1.531 . S
C1443 C1442 1.369 . S
C1443 C1444 1.410 . S
C1443 C1451 1.503 . S
C1444 C1443 1.410 . S
C1444 C1445 1.392 . S
C1444 C1447 1.511 . S
C1445 C1441 1.376 . S
C1445 C1444 1.392 . S
C1445 H1457 0.929 . S
C1446 C1442 1.531 . S
C1446 H1458 0.960 . S
C1446 H1459 0.962 . S
C1446 H1460 0.960 . S
C1447 C1444 1.511 . S
C1447 H1461 0.961 . S
C1447 H1462 0.961 . S
C1447 H1463 0.961 . S
C1448 C1449 1.370 . S
C1448 C1450 1.363 . S
C1448 H1464 0.931 . S
C1449 C1448 1.370 . S
C1449 C1453 1.408 . S
C1450 C1448 1.363 . S
C1450 C1451 1.370 . S
C1450 C1454 1.524 . S
C1451 C1443 1.503 . S
C1451 C1450 1.370 . S
C1451 C1452 1.403 . S
C1452 C1451 1.403 . S
C1452 C1453 1.404 . S
C1452 C1455 1.539 . S
C1453 C1449 1.408 . S
C1453 C1452 1.404 . S
C1453 H1465 0.930 . S
C1454 C1450 1.524 . S
C1454 H1466 0.956 . S
C1454 H1467 0.961 . S
C1454 H1468 0.961 . S
C1455 C1452 1.539 . S
C1455 H1469 0.958 . S
C1455 H1470 0.961 . S
C1455 H1471 0.960 . S
H1456 C1440 0.931 . S
H1457 C1445 0.929 . S
H1458 C1446 0.960 . S
H1459 C1446 0.962 . S
H1460 C1446 0.960 . S
H1461 C1447 0.961 . S
H1462 C1447 0.961 . S
H1463 C1447 0.961 . S
H1464 C1448 0.931 . S
H1465 C1453 0.930 . S
H1466 C1454 0.956 . S
H1467 C1454 0.961 . S
H1468 C1454 0.961 . S
H1469 C1455 0.958 . S
H1470 C1455 0.961 . S
H1471 C1455 0.960 . S
C1472 C1473 1.391 . S
C1472 C1474 1.394 . S
C1472 H1488 0.931 . S
C1473 C1472 1.391 . S
C1473 C1477 1.376 . S
C1474 C1472 1.394 . S
C1474 C1475 1.369 . S
C1474 C1478 1.531 . S
C1475 C1474 1.369 . S
C1475 C1476 1.410 . S
C1475 C1483 1.503 . S
C1476 C1475 1.410 . S
C1476 C1477 1.392 . S
C1476 C1479 1.511 . S
C1477 C1473 1.376 . S
C1477 C1476 1.392 . S
C1477 H1489 0.929 . S
C1478 C1474 1.531 . S
C1478 H1490 0.960 . S
C1478 H1491 0.962 . S
C1478 H1492 0.960 . S
C1479 C1476 1.511 . S
C1479 H1493 0.961 . S
C1479 H1494 0.961 . S
C1479 H1495 0.961 . S
C1480 C1481 1.370 . S
C1480 C1482 1.363 . S
C1480 H1496 0.931 . S
C1481 C1480 1.370 . S
C1481 C1485 1.408 . S
C1482 C1480 1.363 . S
C1482 C1483 1.370 . S
C1482 C1486 1.524 . S
C1483 C1475 1.503 . S
C1483 C1482 1.370 . S
C1483 C1484 1.403 . S
C1484 C1483 1.403 . S
C1484 C1485 1.404 . S
C1484 C1487 1.539 . S
C1485 C1481 1.408 . S
C1485 C1484 1.404 . S
C1485 H1497 0.930 . S
C1486 C1482 1.524 . S
C1486 H1498 0.956 . S
C1486 H1499 0.961 . S
C1486 H1500 0.961 . S
C1487 C1484 1.539 . S
C1487 H1501 0.958 . S
C1487 H1502 0.961 . S
C1487 H1503 0.960 . S
H1488 C1472 0.931 . S
H1489 C1477 0.929 . S
H1490 C1478 0.960 . S
H1491 C1478 0.962 . S
H1492 C1478 0.960 . S
H1493 C1479 0.961 . S
H1494 C1479 0.961 . S
H1495 C1479 0.961 . S
H1496 C1480 0.931 . S
H1497 C1485 0.930 . S
H1498 C1486 0.956 . S
H1499 C1486 0.961 . S
H1500 C1486 0.961 . S
H1501 C1487 0.958 . S
H1502 C1487 0.961 . S
H1503 C1487 0.960 . S
C1504 C1505 1.391 . S
C1504 C1506 1.394 . S
C1504 H1520 0.931 . S
C1505 C1504 1.391 . S
C1505 C1509 1.376 . S
C1506 C1504 1.394 . S
C1506 C1507 1.369 . S
C1506 C1510 1.531 . S
C1507 C1506 1.369 . S
C1507 C1508 1.410 . S
C1507 C1515 1.503 . S
C1508 C1507 1.410 . S
C1508 C1509 1.392 . S
C1508 C1511 1.511 . S
C1509 C1505 1.376 . S
C1509 C1508 1.392 . S
C1509 H1521 0.929 . S
C1510 C1506 1.531 . S
C1510 H1522 0.960 . S
C1510 H1523 0.962 . S
C1510 H1524 0.960 . S
C1511 C1508 1.511 . S
C1511 H1525 0.961 . S
C1511 H1526 0.961 . S
C1511 H1527 0.961 . S
C1512 C1513 1.370 . S
C1512 C1514 1.363 . S
C1512 H1528 0.931 . S
C1513 C1512 1.370 . S
C1513 C1517 1.408 . S
C1514 C1512 1.363 . S
C1514 C1515 1.370 . S
C1514 C1518 1.524 . S
C1515 C1507 1.503 . S
C1515 C1514 1.370 . S
C1515 C1516 1.403 . S
C1516 C1515 1.403 . S
C1516 C1517 1.404 . S
C1516 C1519 1.539 . S
C1517 C1513 1.408 . S
C1517 C1516 1.404 . S
C1517 H1529 0.930 . S
C1518 C1514 1.524 . S
C1518 H1530 0.956 . S
C1518 H1531 0.961 . S
C1518 H1532 0.961 . S
C1519 C1516 1.539 . S
C1519 H1533 0.958 . S
C1519 H1534 0.961 . S
C1519 H1535 0.960 . S
H1520 C1504 0.931 . S
H1521 C1509 0.929 . S
H1522 C1510 0.960 . S
H1523 C1510 0.962 . S
H1524 C1510 0.960 . S
H1525 C1511 0.961 . S
H1526 C1511 0.961 . S
H1527 C1511 0.961 . S
H1528 C1512 0.931 . S
H1529 C1517 0.930 . S
H1530 C1518 0.956 . S
H1531 C1518 0.961 . S
H1532 C1518 0.961 . S
H1533 C1519 0.958 . S
H1534 C1519 0.961 . S
H1535 C1519 0.960 . S
C1536 C1537 1.391 . S
C1536 C1538 1.394 1_556 S
C1536 H1552 0.931 . S
C1537 C1536 1.391 . S
C1537 C1541 1.376 . S
C1538 C1536 1.394 1_554 S
C1538 C1539 1.369 . S
C1538 C1542 1.531 . S
C1539 C1538 1.369 . S
C1539 C1540 1.410 . S
C1539 C1547 1.503 . S
C1540 C1539 1.410 . S
C1540 C1541 1.392 1_554 S
C1540 C1543 1.511 . S
C1541 C1537 1.376 . S
C1541 C1540 1.392 1_556 S
C1541 H1553 0.929 . S
C1542 C1538 1.531 . S
C1542 H1554 0.960 . S
C1542 H1555 0.962 . S
C1542 H1556 0.960 . S
C1543 C1540 1.511 . S
C1543 H1557 0.961 . S
C1543 H1558 0.961 . S
C1543 H1559 0.961 . S
C1544 C1545 1.370 . S
C1544 C1546 1.363 . S
C1544 H1560 0.931 . S
C1545 C1544 1.370 . S
C1545 C1549 1.408 . S
C1546 C1544 1.363 . S
C1546 C1547 1.370 . S
C1546 C1550 1.524 . S
C1547 C1539 1.503 . S
C1547 C1546 1.370 . S
C1547 C1548 1.403 . S
C1548 C1547 1.403 . S
C1548 C1549 1.404 . S
C1548 C1551 1.539 . S
C1549 C1545 1.408 . S
C1549 C1548 1.404 . S
C1549 H1561 0.930 . S
C1550 C1546 1.524 . S
C1550 H1562 0.956 . S
C1550 H1563 0.961 . S
C1550 H1564 0.961 . S
C1551 C1548 1.539 . S
C1551 H1565 0.958 . S
C1551 H1566 0.961 . S
C1551 H1567 0.960 . S
H1552 C1536 0.931 . S
H1553 C1541 0.929 . S
H1554 C1542 0.960 . S
H1555 C1542 0.962 . S
H1556 C1542 0.960 . S
H1557 C1543 0.961 . S
H1558 C1543 0.961 . S
H1559 C1543 0.961 . S
H1560 C1544 0.931 . S
H1561 C1549 0.930 . S
H1562 C1550 0.956 . S
H1563 C1550 0.961 . S
H1564 C1550 0.961 . S
H1565 C1551 0.958 . S
H1566 C1551 0.961 . S
H1567 C1551 0.960 . S
C1568 C1569 1.391 . S
C1568 C1570 1.394 1_554 S
C1568 H1584 0.931 . S
C1569 C1568 1.391 . S
C1569 C1573 1.376 . S
C1570 C1568 1.394 1_556 S
C1570 C1571 1.369 . S
C1570 C1574 1.531 . S
C1571 C1570 1.369 . S
C1571 C1572 1.410 . S
C1571 C1579 1.503 . S
C1572 C1571 1.410 . S
C1572 C1573 1.392 1_556 S
C1572 C1575 1.511 . S
C1573 C1569 1.376 . S
C1573 C1572 1.392 1_554 S
C1573 H1585 0.929 . S
C1574 C1570 1.531 . S
C1574 H1586 0.960 . S
C1574 H1587 0.962 . S
C1574 H1588 0.960 . S
C1575 C1572 1.511 . S
C1575 H1589 0.961 . S
C1575 H1590 0.961 . S
C1575 H1591 0.961 . S
C1576 C1577 1.370 . S
C1576 C1578 1.363 . S
C1576 H1592 0.931 . S
C1577 C1576 1.370 . S
C1577 C1581 1.408 . S
C1578 C1576 1.363 . S
C1578 C1579 1.370 . S
C1578 C1582 1.524 . S
C1579 C1571 1.503 . S
C1579 C1578 1.370 . S
C1579 C1580 1.403 . S
C1580 C1579 1.403 . S
C1580 C1581 1.404 . S
C1580 C1583 1.539 . S
C1581 C1577 1.408 . S
C1581 C1580 1.404 . S
C1581 H1593 0.930 . S
C1582 C1578 1.524 . S
C1582 H1594 0.956 . S
C1582 H1595 0.961 . S
C1582 H1596 0.961 . S
C1583 C1580 1.539 . S
C1583 H1597 0.958 . S
C1583 H1598 0.961 . S
C1583 H1599 0.960 . S
H1584 C1568 0.931 . S
H1585 C1573 0.929 . S
H1586 C1574 0.960 . S
H1587 C1574 0.962 . S
H1588 C1574 0.960 . S
H1589 C1575 0.961 . S
H1590 C1575 0.961 . S
H1591 C1575 0.961 . S
H1592 C1576 0.931 . S
H1593 C1581 0.930 . S
H1594 C1582 0.956 . S
H1595 C1582 0.961 . S
H1596 C1582 0.961 . S
H1597 C1583 0.958 . S
H1598 C1583 0.961 . S
H1599 C1583 0.960 . S
C1600 C1601 1.391 . S
C1600 C1602 1.394 1_556 S
C1600 H1616 0.931 . S
C1601 C1600 1.391 . S
C1601 C1605 1.376 . S
C1602 C1600 1.394 1_554 S
C1602 C1603 1.369 . S
C1602 C1606 1.531 . S
C1603 C1602 1.369 . S
C1603 C1604 1.410 . S
C1603 C1611 1.503 . S
C1604 C1603 1.410 . S
C1604 C1605 1.392 1_554 S
C1604 C1607 1.511 . S
C1605 C1601 1.376 . S
C1605 C1604 1.392 1_556 S
C1605 H1617 0.929 . S
C1606 C1602 1.531 . S
C1606 H1618 0.960 . S
C1606 H1619 0.962 . S
C1606 H1620 0.960 . S
C1607 C1604 1.511 . S
C1607 H1621 0.961 . S
C1607 H1622 0.961 . S
C1607 H1623 0.961 . S
C1608 C1609 1.370 . S
C1608 C1610 1.363 . S
C1608 H1624 0.931 . S
C1609 C1608 1.370 . S
C1609 C1613 1.408 . S
C1610 C1608 1.363 . S
C1610 C1611 1.370 . S
C1610 C1614 1.524 . S
C1611 C1603 1.503 . S
C1611 C1610 1.370 . S
C1611 C1612 1.403 . S
C1612 C1611 1.403 . S
C1612 C1613 1.404 . S
C1612 C1615 1.539 . S
C1613 C1609 1.408 . S
C1613 C1612 1.404 . S
C1613 H1625 0.930 . S
C1614 C1610 1.524 . S
C1614 H1626 0.956 . S
C1614 H1627 0.961 . S
C1614 H1628 0.961 . S
C1615 C1612 1.539 . S
C1615 H1629 0.958 . S
C1615 H1630 0.961 . S
C1615 H1631 0.960 . S
H1616 C1600 0.931 . S
H1617 C1605 0.929 . S
H1618 C1606 0.960 . S
H1619 C1606 0.962 . S
H1620 C1606 0.960 . S
H1621 C1607 0.961 . S
H1622 C1607 0.961 . S
H1623 C1607 0.961 . S
H1624 C1608 0.931 . S
H1625 C1613 0.930 . S
H1626 C1614 0.956 . S
H1627 C1614 0.961 . S
H1628 C1614 0.961 . S
H1629 C1615 0.958 . S
H1630 C1615 0.961 . S
H1631 C1615 0.960 . S
C1632 C1633 1.391 . S
C1632 C1634 1.394 . S
C1632 H1648 0.931 . S
C1633 C1632 1.391 . S
C1633 C1637 1.376 . S
C1634 C1632 1.394 . S
C1634 C1635 1.369 . S
C1634 C1638 1.531 . S
C1635 C1634 1.369 . S
C1635 C1636 1.410 . S
C1635 C1643 1.503 . S
C1636 C1635 1.410 . S
C1636 C1637 1.392 . S
C1636 C1639 1.511 . S
C1637 C1633 1.376 . S
C1637 C1636 1.392 . S
C1637 H1649 0.929 . S
C1638 C1634 1.531 . S
C1638 H1650 0.960 . S
C1638 H1651 0.962 . S
C1638 H1652 0.960 . S
C1639 C1636 1.511 . S
C1639 H1653 0.961 . S
C1639 H1654 0.961 . S
C1639 H1655 0.961 . S
C1640 C1641 1.370 . S
C1640 C1642 1.363 . S
C1640 H1656 0.931 . S
C1641 C1640 1.370 . S
C1641 C1645 1.408 . S
C1642 C1640 1.363 . S
C1642 C1643 1.370 . S
C1642 C1646 1.524 . S
C1643 C1635 1.503 . S
C1643 C1642 1.370 . S
C1643 C1644 1.403 . S
C1644 C1643 1.403 . S
C1644 C1645 1.404 . S
C1644 C1647 1.539 . S
C1645 C1641 1.408 . S
C1645 C1644 1.404 . S
C1645 H1657 0.930 . S
C1646 C1642 1.524 . S
C1646 H1658 0.956 . S
C1646 H1659 0.961 . S
C1646 H1660 0.961 . S
C1647 C1644 1.539 . S
C1647 H1661 0.958 . S
C1647 H1662 0.961 . S
C1647 H1663 0.960 . S
H1648 C1632 0.931 . S
H1649 C1637 0.929 . S
H1650 C1638 0.960 . S
H1651 C1638 0.962 . S
H1652 C1638 0.960 . S
H1653 C1639 0.961 . S
H1654 C1639 0.961 . S
H1655 C1639 0.961 . S
H1656 C1640 0.931 . S
H1657 C1645 0.930 . S
H1658 C1646 0.956 . S
H1659 C1646 0.961 . S
H1660 C1646 0.961 . S
H1661 C1647 0.958 . S
H1662 C1647 0.961 . S
H1663 C1647 0.960 . S
C1664 C1665 1.391 . S
C1664 C1666 1.394 . S
C1664 H1680 0.931 . S
C1665 C1664 1.391 . S
C1665 C1669 1.376 . S
C1666 C1664 1.394 . S
C1666 C1667 1.369 . S
C1666 C1670 1.531 . S
C1667 C1666 1.369 . S
C1667 C1668 1.410 . S
C1667 C1675 1.503 . S
C1668 C1667 1.410 . S
C1668 C1669 1.392 . S
C1668 C1671 1.511 . S
C1669 C1665 1.376 . S
C1669 C1668 1.392 . S
C1669 H1681 0.929 . S
C1670 C1666 1.531 . S
C1670 H1682 0.960 . S
C1670 H1683 0.962 . S
C1670 H1684 0.960 . S
C1671 C1668 1.511 . S
C1671 H1685 0.961 . S
C1671 H1686 0.961 . S
C1671 H1687 0.961 . S
C1672 C1673 1.370 . S
C1672 C1674 1.363 . S
C1672 H1688 0.931 . S
C1673 C1672 1.370 . S
C1673 C1677 1.408 . S
C1674 C1672 1.363 . S
C1674 C1675 1.370 . S
C1674 C1678 1.524 . S
C1675 C1667 1.503 . S
C1675 C1674 1.370 . S
C1675 C1676 1.403 . S
C1676 C1675 1.403 . S
C1676 C1677 1.404 . S
C1676 C1679 1.539 . S
C1677 C1673 1.408 . S
C1677 C1676 1.404 . S
C1677 H1689 0.930 . S
C1678 C1674 1.524 . S
C1678 H1690 0.956 . S
C1678 H1691 0.961 . S
C1678 H1692 0.961 . S
C1679 C1676 1.539 . S
C1679 H1693 0.958 . S
C1679 H1694 0.961 . S
C1679 H1695 0.960 . S
H1680 C1664 0.931 . S
H1681 C1669 0.929 . S
H1682 C1670 0.960 . S
H1683 C1670 0.962 . S
H1684 C1670 0.960 . S
H1685 C1671 0.961 . S
H1686 C1671 0.961 . S
H1687 C1671 0.961 . S
H1688 C1672 0.931 . S
H1689 C1677 0.930 . S
H1690 C1678 0.956 . S
H1691 C1678 0.961 . S
H1692 C1678 0.961 . S
H1693 C1679 0.958 . S
H1694 C1679 0.961 . S
H1695 C1679 0.960 . S
C1696 C1697 1.391 . S
C1696 C1698 1.394 . S
C1696 H1712 0.931 . S
C1697 C1696 1.391 . S
C1697 C1701 1.376 . S
C1698 C1696 1.394 . S
C1698 C1699 1.369 . S
C1698 C1702 1.531 . S
C1699 C1698 1.369 . S
C1699 C1700 1.410 . S
C1699 C1707 1.503 . S
C1700 C1699 1.410 . S
C1700 C1701 1.392 . S
C1700 C1703 1.511 . S
C1701 C1697 1.376 . S
C1701 C1700 1.392 . S
C1701 H1713 0.929 . S
C1702 C1698 1.531 . S
C1702 H1714 0.960 . S
C1702 H1715 0.962 . S
C1702 H1716 0.960 . S
C1703 C1700 1.511 . S
C1703 H1717 0.961 . S
C1703 H1718 0.961 . S
C1703 H1719 0.961 . S
C1704 C1705 1.370 . S
C1704 C1706 1.363 1_554 S
C1704 H1720 0.931 . S
C1705 C1704 1.370 . S
C1705 C1709 1.408 . S
C1706 C1704 1.363 1_556 S
C1706 C1707 1.370 . S
C1706 C1710 1.524 . S
C1707 C1699 1.503 . S
C1707 C1706 1.370 . S
C1707 C1708 1.403 . S
C1708 C1707 1.403 . S
C1708 C1709 1.404 1_556 S
C1708 C1711 1.539 . S
C1709 C1705 1.408 . S
C1709 C1708 1.404 1_554 S
C1709 H1721 0.930 . S
C1710 C1706 1.524 . S
C1710 H1722 0.956 . S
C1710 H1723 0.961 . S
C1710 H1724 0.961 . S
C1711 C1708 1.539 . S
C1711 H1725 0.958 . S
C1711 H1726 0.961 . S
C1711 H1727 0.960 . S
H1712 C1696 0.931 . S
H1713 C1701 0.929 . S
H1714 C1702 0.960 . S
H1715 C1702 0.962 . S
H1716 C1702 0.960 . S
H1717 C1703 0.961 . S
H1718 C1703 0.961 . S
H1719 C1703 0.961 . S
H1720 C1704 0.931 . S
H1721 C1709 0.930 . S
H1722 C1710 0.956 . S
H1723 C1710 0.961 . S
H1724 C1710 0.961 . S
H1725 C1711 0.958 . S
H1726 C1711 0.961 . S
H1727 C1711 0.960 . S
C1728 C1729 1.391 . S
C1728 C1730 1.394 1_554 S
C1728 H1744 0.931 . S
C1729 C1728 1.391 . S
C1729 C1733 1.376 . S
C1730 C1728 1.394 1_556 S
C1730 C1731 1.369 . S
C1730 C1734 1.531 . S
C1731 C1730 1.369 . S
C1731 C1732 1.410 . S
C1731 C1739 1.503 . S
C1732 C1731 1.410 . S
C1732 C1733 1.392 1_556 S
C1732 C1735 1.511 . S
C1733 C1729 1.376 . S
C1733 C1732 1.392 1_554 S
C1733 H1745 0.929 . S
C1734 C1730 1.531 . S
C1734 H1746 0.960 . S
C1734 H1747 0.962 . S
C1734 H1748 0.960 . S
C1735 C1732 1.511 . S
C1735 H1749 0.961 . S
C1735 H1750 0.961 . S
C1735 H1751 0.961 . S
C1736 C1737 1.370 . S
C1736 C1738 1.363 . S
C1736 H1752 0.931 . S
C1737 C1736 1.370 . S
C1737 C1741 1.408 . S
C1738 C1736 1.363 . S
C1738 C1739 1.370 . S
C1738 C1742 1.524 . S
C1739 C1731 1.503 . S
C1739 C1738 1.370 . S
C1739 C1740 1.403 . S
C1740 C1739 1.403 . S
C1740 C1741 1.404 . S
C1740 C1743 1.539 . S
C1741 C1737 1.408 . S
C1741 C1740 1.404 . S
C1741 H1753 0.930 . S
C1742 C1738 1.524 . S
C1742 H1754 0.956 . S
C1742 H1755 0.961 . S
C1742 H1756 0.961 . S
C1743 C1740 1.539 . S
C1743 H1757 0.958 . S
C1743 H1758 0.961 . S
C1743 H1759 0.960 . S
H1744 C1728 0.931 . S
H1745 C1733 0.929 . S
H1746 C1734 0.960 . S
H1747 C1734 0.962 . S
H1748 C1734 0.960 . S
H1749 C1735 0.961 . S
H1750 C1735 0.961 . S
H1751 C1735 0.961 . S
H1752 C1736 0.931 . S
H1753 C1741 0.930 . S
H1754 C1742 0.956 . S
H1755 C1742 0.961 . S
H1756 C1742 0.961 . S
H1757 C1743 0.958 . S
H1758 C1743 0.961 . S
H1759 C1743 0.960 . S
C1760 C1761 1.391 . S
C1760 C1762 1.394 . S
C1760 H1776 0.931 . S
C1761 C1760 1.391 . S
C1761 C1765 1.376 . S
C1762 C1760 1.394 . S
C1762 C1763 1.369 . S
C1762 C1766 1.531 . S
C1763 C1762 1.369 . S
C1763 C1764 1.410 . S
C1763 C1771 1.503 . S
C1764 C1763 1.410 . S
C1764 C1765 1.392 . S
C1764 C1767 1.511 . S
C1765 C1761 1.376 . S
C1765 C1764 1.392 . S
C1765 H1777 0.929 . S
C1766 C1762 1.531 . S
C1766 H1778 0.960 . S
C1766 H1779 0.962 . S
C1766 H1780 0.960 . S
C1767 C1764 1.511 . S
C1767 H1781 0.961 . S
C1767 H1782 0.961 . S
C1767 H1783 0.961 . S
C1768 C1769 1.370 . S
C1768 C1770 1.363 1_556 S
C1768 H1784 0.931 . S
C1769 C1768 1.370 . S
C1769 C1773 1.408 . S
C1770 C1768 1.363 1_554 S
C1770 C1771 1.370 . S
C1770 C1774 1.524 . S
C1771 C1763 1.503 . S
C1771 C1770 1.370 . S
C1771 C1772 1.403 . S
C1772 C1771 1.403 . S
C1772 C1773 1.404 1_554 S
C1772 C1775 1.539 . S
C1773 C1769 1.408 . S
C1773 C1772 1.404 1_556 S
C1773 H1785 0.930 . S
C1774 C1770 1.524 . S
C1774 H1786 0.956 . S
C1774 H1787 0.961 . S
C1774 H1788 0.961 . S
C1775 C1772 1.539 . S
C1775 H1789 0.958 . S
C1775 H1790 0.961 . S
C1775 H1791 0.960 . S
H1776 C1760 0.931 . S
H1777 C1765 0.929 . S
H1778 C1766 0.960 . S
H1779 C1766 0.962 . S
H1780 C1766 0.960 . S
H1781 C1767 0.961 . S
H1782 C1767 0.961 . S
H1783 C1767 0.961 . S
H1784 C1768 0.931 . S
H1785 C1773 0.930 . S
H1786 C1774 0.956 . S
H1787 C1774 0.961 . S
H1788 C1774 0.961 . S
H1789 C1775 0.958 . S
H1790 C1775 0.961 . S
H1791 C1775 0.960 . S
C1792 C1793 1.391 . S
C1792 C1794 1.394 . S
C1792 H1808 0.931 . S
C1793 C1792 1.391 . S
C1793 C1797 1.376 . S
C1794 C1792 1.394 . S
C1794 C1795 1.369 . S
C1794 C1798 1.531 . S
C1795 C1794 1.369 . S
C1795 C1796 1.410 . S
C1795 C1803 1.503 . S
C1796 C1795 1.410 . S
C1796 C1797 1.392 . S
C1796 C1799 1.511 . S
C1797 C1793 1.376 . S
C1797 C1796 1.392 . S
C1797 H1809 0.929 . S
C1798 C1794 1.531 . S
C1798 H1810 0.960 . S
C1798 H1811 0.962 . S
C1798 H1812 0.960 . S
C1799 C1796 1.511 . S
C1799 H1813 0.961 . S
C1799 H1814 0.961 . S
C1799 H1815 0.961 . S
C1800 C1801 1.370 . S
C1800 C1802 1.363 . S
C1800 H1816 0.931 . S
C1801 C1800 1.370 . S
C1801 C1805 1.408 . S
C1802 C1800 1.363 . S
C1802 C1803 1.370 . S
C1802 C1806 1.524 . S
C1803 C1795 1.503 . S
C1803 C1802 1.370 . S
C1803 C1804 1.403 . S
C1804 C1803 1.403 . S
C1804 C1805 1.404 . S
C1804 C1807 1.539 . S
C1805 C1801 1.408 . S
C1805 C1804 1.404 . S
C1805 H1817 0.930 . S
C1806 C1802 1.524 . S
C1806 H1818 0.956 . S
C1806 H1819 0.961 . S
C1806 H1820 0.961 . S
C1807 C1804 1.539 . S
C1807 H1821 0.958 . S
C1807 H1822 0.961 . S
C1807 H1823 0.960 . S
H1808 C1792 0.931 . S
H1809 C1797 0.929 . S
H1810 C1798 0.960 . S
H1811 C1798 0.962 . S
H1812 C1798 0.960 . S
H1813 C1799 0.961 . S
H1814 C1799 0.961 . S
H1815 C1799 0.961 . S
H1816 C1800 0.931 . S
H1817 C1805 0.930 . S
H1818 C1806 0.956 . S
H1819 C1806 0.961 . S
H1820 C1806 0.961 . S
H1821 C1807 0.958 . S
H1822 C1807 0.961 . S
H1823 C1807 0.960 . S
C1824 C1825 1.391 . S
C1824 C1826 1.394 . S
C1824 H1840 0.931 . S
C1825 C1824 1.391 . S
C1825 C1829 1.376 . S
C1826 C1824 1.394 . S
C1826 C1827 1.369 . S
C1826 C1830 1.531 . S
C1827 C1826 1.369 . S
C1827 C1828 1.410 . S
C1827 C1835 1.503 . S
C1828 C1827 1.410 . S
C1828 C1829 1.392 . S
C1828 C1831 1.511 . S
C1829 C1825 1.376 . S
C1829 C1828 1.392 . S
C1829 H1841 0.929 . S
C1830 C1826 1.531 . S
C1830 H1842 0.960 . S
C1830 H1843 0.962 . S
C1830 H1844 0.960 . S
C1831 C1828 1.511 . S
C1831 H1845 0.961 . S
C1831 H1846 0.961 . S
C1831 H1847 0.961 . S
C1832 C1833 1.370 . S
C1832 C1834 1.363 . S
C1832 H1848 0.931 . S
C1833 C1832 1.370 . S
C1833 C1837 1.408 . S
C1834 C1832 1.363 . S
C1834 C1835 1.370 . S
C1834 C1838 1.524 . S
C1835 C1827 1.503 . S
C1835 C1834 1.370 . S
C1835 C1836 1.403 . S
C1836 C1835 1.403 . S
C1836 C1837 1.404 . S
C1836 C1839 1.539 . S
C1837 C1833 1.408 . S
C1837 C1836 1.404 . S
C1837 H1849 0.930 . S
C1838 C1834 1.524 . S
C1838 H1850 0.956 . S
C1838 H1851 0.961 . S
C1838 H1852 0.961 . S
C1839 C1836 1.539 . S
C1839 H1853 0.958 . S
C1839 H1854 0.961 . S
C1839 H1855 0.960 . S
H1840 C1824 0.931 . S
H1841 C1829 0.929 . S
H1842 C1830 0.960 . S
H1843 C1830 0.962 . S
H1844 C1830 0.960 . S
H1845 C1831 0.961 . S
H1846 C1831 0.961 . S
H1847 C1831 0.961 . S
H1848 C1832 0.931 . S
H1849 C1837 0.930 . S
H1850 C1838 0.956 . S
H1851 C1838 0.961 . S
H1852 C1838 0.961 . S
H1853 C1839 0.958 . S
H1854 C1839 0.961 . S
H1855 C1839 0.960 . S
C1856 C1857 1.391 . S
C1856 C1858 1.394 1_554 S
C1856 H1872 0.931 . S
C1857 C1856 1.391 . S
C1857 C1861 1.376 . S
C1858 C1856 1.394 1_556 S
C1858 C1859 1.369 . S
C1858 C1862 1.531 . S
C1859 C1858 1.369 . S
C1859 C1860 1.410 . S
C1859 C1867 1.503 . S
C1860 C1859 1.410 . S
C1860 C1861 1.392 1_556 S
C1860 C1863 1.511 . S
C1861 C1857 1.376 . S
C1861 C1860 1.392 1_554 S
C1861 H1873 0.929 . S
C1862 C1858 1.531 . S
C1862 H1874 0.960 . S
C1862 H1875 0.962 . S
C1862 H1876 0.960 . S
C1863 C1860 1.511 . S
C1863 H1877 0.961 . S
C1863 H1878 0.961 . S
C1863 H1879 0.961 . S
C1864 C1865 1.370 . S
C1864 C1866 1.363 . S
C1864 H1880 0.931 . S
C1865 C1864 1.370 . S
C1865 C1869 1.408 . S
C1866 C1864 1.363 . S
C1866 C1867 1.370 . S
C1866 C1870 1.524 . S
C1867 C1859 1.503 . S
C1867 C1866 1.370 . S
C1867 C1868 1.403 . S
C1868 C1867 1.403 . S
C1868 C1869 1.404 . S
C1868 C1871 1.539 . S
C1869 C1865 1.408 . S
C1869 C1868 1.404 . S
C1869 H1881 0.930 . S
C1870 C1866 1.524 . S
C1870 H1882 0.956 . S
C1870 H1883 0.961 . S
C1870 H1884 0.961 . S
C1871 C1868 1.539 . S
C1871 H1885 0.958 . S
C1871 H1886 0.961 . S
C1871 H1887 0.960 . S
H1872 C1856 0.931 . S
H1873 C1861 0.929 . S
H1874 C1862 0.960 . S
H1875 C1862 0.962 . S
H1876 C1862 0.960 . S
H1877 C1863 0.961 . S
H1878 C1863 0.961 . S
H1879 C1863 0.961 . S
H1880 C1864 0.931 . S
H1881 C1869 0.930 . S
H1882 C1870 0.956 . S
H1883 C1870 0.961 . S
H1884 C1870 0.961 . S
H1885 C1871 0.958 . S
H1886 C1871 0.961 . S
H1887 C1871 0.960 . S
C1888 C1889 1.391 . S
C1888 C1890 1.394 . S
C1888 H1904 0.931 . S
C1889 C1888 1.391 . S
C1889 C1893 1.376 . S
C1890 C1888 1.394 . S
C1890 C1891 1.369 . S
C1890 C1894 1.531 . S
C1891 C1890 1.369 . S
C1891 C1892 1.410 . S
C1891 C1899 1.503 . S
C1892 C1891 1.410 . S
C1892 C1893 1.392 . S
C1892 C1895 1.511 . S
C1893 C1889 1.376 . S
C1893 C1892 1.392 . S
C1893 H1905 0.929 . S
C1894 C1890 1.531 . S
C1894 H1906 0.960 . S
C1894 H1907 0.962 . S
C1894 H1908 0.960 . S
C1895 C1892 1.511 . S
C1895 H1909 0.961 . S
C1895 H1910 0.961 . S
C1895 H1911 0.961 . S
C1896 C1897 1.370 . S
C1896 C1898 1.363 . S
C1896 H1912 0.931 . S
C1897 C1896 1.370 . S
C1897 C1901 1.408 . S
C1898 C1896 1.363 . S
C1898 C1899 1.370 . S
C1898 C1902 1.524 . S
C1899 C1891 1.503 . S
C1899 C1898 1.370 . S
C1899 C1900 1.403 . S
C1900 C1899 1.403 . S
C1900 C1901 1.404 . S
C1900 C1903 1.539 . S
C1901 C1897 1.408 . S
C1901 C1900 1.404 . S
C1901 H1913 0.930 . S
C1902 C1898 1.524 . S
C1902 H1914 0.956 . S
C1902 H1915 0.961 . S
C1902 H1916 0.961 . S
C1903 C1900 1.539 . S
C1903 H1917 0.958 . S
C1903 H1918 0.961 . S
C1903 H1919 0.960 . S
H1904 C1888 0.931 . S
H1905 C1893 0.929 . S
H1906 C1894 0.960 . S
H1907 C1894 0.962 . S
H1908 C1894 0.960 . S
H1909 C1895 0.961 . S
H1910 C1895 0.961 . S
H1911 C1895 0.961 . S
H1912 C1896 0.931 . S
H1913 C1901 0.930 . S
H1914 C1902 0.956 . S
H1915 C1902 0.961 . S
H1916 C1902 0.961 . S
H1917 C1903 0.958 . S
H1918 C1903 0.961 . S
H1919 C1903 0.960 . S
C1920 C1921 1.391 . S
C1920 C1922 1.394 . S
C1920 H1936 0.931 . S
C1921 C1920 1.391 . S
C1921 C1925 1.376 . S
C1922 C1920 1.394 . S
C1922 C1923 1.369 . S
C1922 C1926 1.531 . S
C1923 C1922 1.369 . S
C1923 C1924 1.410 . S
C1923 C1931 1.503 . S
C1924 C1923 1.410 . S
C1924 C1925 1.392 . S
C1924 C1927 1.511 . S
C1925 C1921 1.376 . S
C1925 C1924 1.392 . S
C1925 H1937 0.929 . S
C1926 C1922 1.531 . S
C1926 H1938 0.960 . S
C1926 H1939 0.962 . S
C1926 H1940 0.960 . S
C1927 C1924 1.511 . S
C1927 H1941 0.961 . S
C1927 H1942 0.961 . S
C1927 H1943 0.961 . S
C1928 C1929 1.370 . S
C1928 C1930 1.363 . S
C1928 H1944 0.931 . S
C1929 C1928 1.370 . S
C1929 C1933 1.408 . S
C1930 C1928 1.363 . S
C1930 C1931 1.370 . S
C1930 C1934 1.524 . S
C1931 C1923 1.503 . S
C1931 C1930 1.370 . S
C1931 C1932 1.403 . S
C1932 C1931 1.403 . S
C1932 C1933 1.404 . S
C1932 C1935 1.539 . S
C1933 C1929 1.408 . S
C1933 C1932 1.404 . S
C1933 H1945 0.930 . S
C1934 C1930 1.524 . S
C1934 H1946 0.956 . S
C1934 H1947 0.961 . S
C1934 H1948 0.961 . S
C1935 C1932 1.539 . S
C1935 H1949 0.958 . S
C1935 H1950 0.961 . S
C1935 H1951 0.960 . S
H1936 C1920 0.931 . S
H1937 C1925 0.929 . S
H1938 C1926 0.960 . S
H1939 C1926 0.962 . S
H1940 C1926 0.960 . S
H1941 C1927 0.961 . S
H1942 C1927 0.961 . S
H1943 C1927 0.961 . S
H1944 C1928 0.931 . S
H1945 C1933 0.930 . S
H1946 C1934 0.956 . S
H1947 C1934 0.961 . S
H1948 C1934 0.961 . S
H1949 C1935 0.958 . S
H1950 C1935 0.961 . S
H1951 C1935 0.960 . S
C1952 C1953 1.391 . S
C1952 C1954 1.394 1_556 S
C1952 H1968 0.931 . S
C1953 C1952 1.391 . S
C1953 C1957 1.376 . S
C1954 C1952 1.394 1_554 S
C1954 C1955 1.369 . S
C1954 C1958 1.531 . S
C1955 C1954 1.369 . S
C1955 C1956 1.410 . S
C1955 C1963 1.503 . S
C1956 C1955 1.410 . S
C1956 C1957 1.392 1_554 S
C1956 C1959 1.511 . S
C1957 C1953 1.376 . S
C1957 C1956 1.392 1_556 S
C1957 H1969 0.929 . S
C1958 C1954 1.531 . S
C1958 H1970 0.960 . S
C1958 H1971 0.962 . S
C1958 H1972 0.960 . S
C1959 C1956 1.511 . S
C1959 H1973 0.961 . S
C1959 H1974 0.961 . S
C1959 H1975 0.961 . S
C1960 C1961 1.370 . S
C1960 C1962 1.363 . S
C1960 H1976 0.931 . S
C1961 C1960 1.370 . S
C1961 C1965 1.408 . S
C1962 C1960 1.363 . S
C1962 C1963 1.370 . S
C1962 C1966 1.524 . S
C1963 C1955 1.503 . S
C1963 C1962 1.370 . S
C1963 C1964 1.403 . S
C1964 C1963 1.403 . S
C1964 C1965 1.404 . S
C1964 C1967 1.539 . S
C1965 C1961 1.408 . S
C1965 C1964 1.404 . S
C1965 H1977 0.930 . S
C1966 C1962 1.524 . S
C1966 H1978 0.956 . S
C1966 H1979 0.961 . S
C1966 H1980 0.961 . S
C1967 C1964 1.539 . S
C1967 H1981 0.958 . S
C1967 H1982 0.961 . S
C1967 H1983 0.960 . S
H1968 C1952 0.931 . S
H1969 C1957 0.929 . S
H1970 C1958 0.960 . S
H1971 C1958 0.962 . S
H1972 C1958 0.960 . S
H1973 C1959 0.961 . S
H1974 C1959 0.961 . S
H1975 C1959 0.961 . S
H1976 C1960 0.931 . S
H1977 C1965 0.930 . S
H1978 C1966 0.956 . S
H1979 C1966 0.961 . S
H1980 C1966 0.961 . S
H1981 C1967 0.958 . S
H1982 C1967 0.961 . S
H1983 C1967 0.960 . S
C1984 C1985 1.391 . S
C1984 C1986 1.394 . S
C1984 H2000 0.931 . S
C1985 C1984 1.391 . S
C1985 C1989 1.376 . S
C1986 C1984 1.394 . S
C1986 C1987 1.369 . S
C1986 C1990 1.531 . S
C1987 C1986 1.369 . S
C1987 C1988 1.410 . S
C1987 C1995 1.503 . S
C1988 C1987 1.410 . S
C1988 C1989 1.392 . S
C1988 C1991 1.511 . S
C1989 C1985 1.376 . S
C1989 C1988 1.392 . S
C1989 H2001 0.929 . S
C1990 C1986 1.531 . S
C1990 H2002 0.960 . S
C1990 H2003 0.962 . S
C1990 H2004 0.960 . S
C1991 C1988 1.511 . S
C1991 H2005 0.961 . S
C1991 H2006 0.961 . S
C1991 H2007 0.961 . S
C1992 C1993 1.370 . S
C1992 C1994 1.363 1_556 S
C1992 H2008 0.931 . S
C1993 C1992 1.370 . S
C1993 C1997 1.408 . S
C1994 C1992 1.363 1_554 S
C1994 C1995 1.370 . S
C1994 C1998 1.524 . S
C1995 C1987 1.503 . S
C1995 C1994 1.370 . S
C1995 C1996 1.403 . S
C1996 C1995 1.403 . S
C1996 C1997 1.404 1_554 S
C1996 C1999 1.539 . S
C1997 C1993 1.408 . S
C1997 C1996 1.404 1_556 S
C1997 H2009 0.930 . S
C1998 C1994 1.524 . S
C1998 H2010 0.956 . S
C1998 H2011 0.961 . S
C1998 H2012 0.961 . S
C1999 C1996 1.539 . S
C1999 H2013 0.958 . S
C1999 H2014 0.961 . S
C1999 H2015 0.960 . S
H2000 C1984 0.931 . S
H2001 C1989 0.929 . S
H2002 C1990 0.960 . S
H2003 C1990 0.962 . S
H2004 C1990 0.960 . S
H2005 C1991 0.961 . S
H2006 C1991 0.961 . S
H2007 C1991 0.961 . S
H2008 C1992 0.931 . S
H2009 C1997 0.930 . S
H2010 C1998 0.956 . S
H2011 C1998 0.961 . S
H2012 C1998 0.961 . S
H2013 C1999 0.958 . S
H2014 C1999 0.961 . S
H2015 C1999 0.960 . S
C2016 C2017 1.391 . S
C2016 C2018 1.394 1_554 S
C2016 H2032 0.931 . S
C2017 C2016 1.391 . S
C2017 C2021 1.376 . S
C2018 C2016 1.394 1_556 S
C2018 C2019 1.369 . S
C2018 C2022 1.531 . S
C2019 C2018 1.369 . S
C2019 C2020 1.410 . S
C2019 C2027 1.503 . S
C2020 C2019 1.410 . S
C2020 C2021 1.392 1_556 S
C2020 C2023 1.511 . S
C2021 C2017 1.376 . S
C2021 C2020 1.392 1_554 S
C2021 H2033 0.929 . S
C2022 C2018 1.531 . S
C2022 H2034 0.960 . S
C2022 H2035 0.962 . S
C2022 H2036 0.960 . S
C2023 C2020 1.511 . S
C2023 H2037 0.961 . S
C2023 H2038 0.961 . S
C2023 H2039 0.961 . S
C2024 C2025 1.370 . S
C2024 C2026 1.363 . S
C2024 H2040 0.931 . S
C2025 C2024 1.370 . S
C2025 C2029 1.408 . S
C2026 C2024 1.363 . S
C2026 C2027 1.370 . S
C2026 C2030 1.524 . S
C2027 C2019 1.503 . S
C2027 C2026 1.370 . S
C2027 C2028 1.403 . S
C2028 C2027 1.403 . S
C2028 C2029 1.404 . S
C2028 C2031 1.539 . S
C2029 C2025 1.408 . S
C2029 C2028 1.404 . S
C2029 H2041 0.930 . S
C2030 C2026 1.524 . S
C2030 H2042 0.956 . S
C2030 H2043 0.961 . S
C2030 H2044 0.961 . S
C2031 C2028 1.539 . S
C2031 H2045 0.958 . S
C2031 H2046 0.961 . S
C2031 H2047 0.960 . S
H2032 C2016 0.931 . S
H2033 C2021 0.929 . S
H2034 C2022 0.960 . S
H2035 C2022 0.962 . S
H2036 C2022 0.960 . S
H2037 C2023 0.961 . S
H2038 C2023 0.961 . S
H2039 C2023 0.961 . S
H2040 C2024 0.931 . S
H2041 C2029 0.930 . S
H2042 C2030 0.956 . S
H2043 C2030 0.961 . S
H2044 C2030 0.961 . S
H2045 C2031 0.958 . S
H2046 C2031 0.961 . S
H2047 C2031 0.960 . S
C2048 C2049 1.391 . S
C2048 C2050 1.394 . S
C2048 H2064 0.931 . S
C2049 C2048 1.391 . S
C2049 C2053 1.376 . S
C2050 C2048 1.394 . S
C2050 C2051 1.369 . S
C2050 C2054 1.531 . S
C2051 C2050 1.369 . S
C2051 C2052 1.410 . S
C2051 C2059 1.503 . S
C2052 C2051 1.410 . S
C2052 C2053 1.392 . S
C2052 C2055 1.511 . S
C2053 C2049 1.376 . S
C2053 C2052 1.392 . S
C2053 H2065 0.929 . S
C2054 C2050 1.531 . S
C2054 H2066 0.960 . S
C2054 H2067 0.962 . S
C2054 H2068 0.960 . S
C2055 C2052 1.511 . S
C2055 H2069 0.961 . S
C2055 H2070 0.961 . S
C2055 H2071 0.961 . S
C2056 C2057 1.370 . S
C2056 C2058 1.363 . S
C2056 H2072 0.931 . S
C2057 C2056 1.370 . S
C2057 C2061 1.408 . S
C2058 C2056 1.363 . S
C2058 C2059 1.370 . S
C2058 C2062 1.524 . S
C2059 C2051 1.503 . S
C2059 C2058 1.370 . S
C2059 C2060 1.403 . S
C2060 C2059 1.403 . S
C2060 C2061 1.404 . S
C2060 C2063 1.539 . S
C2061 C2057 1.408 . S
C2061 C2060 1.404 . S
C2061 H2073 0.930 . S
C2062 C2058 1.524 . S
C2062 H2074 0.956 . S
C2062 H2075 0.961 . S
C2062 H2076 0.961 . S
C2063 C2060 1.539 . S
C2063 H2077 0.958 . S
C2063 H2078 0.961 . S
C2063 H2079 0.960 . S
H2064 C2048 0.931 . S
H2065 C2053 0.929 . S
H2066 C2054 0.960 . S
H2067 C2054 0.962 . S
H2068 C2054 0.960 . S
H2069 C2055 0.961 . S
H2070 C2055 0.961 . S
H2071 C2055 0.961 . S
H2072 C2056 0.931 . S
H2073 C2061 0.930 . S
H2074 C2062 0.956 . S
H2075 C2062 0.961 . S
H2076 C2062 0.961 . S
H2077 C2063 0.958 . S
H2078 C2063 0.961 . S
H2079 C2063 0.960 . S
C2080 C2081 1.391 . S
C2080 C2082 1.394 . S
C2080 H2096 0.931 . S
C2081 C2080 1.391 . S
C2081 C2085 1.376 . S
C2082 C2080 1.394 . S
C2082 C2083 1.369 . S
C2082 C2086 1.531 . S
C2083 C2082 1.369 . S
C2083 C2084 1.410 . S
C2083 C2091 1.503 . S
C2084 C2083 1.410 . S
C2084 C2085 1.392 . S
C2084 C2087 1.511 . S
C2085 C2081 1.376 . S
C2085 C2084 1.392 . S
C2085 H2097 0.929 . S
C2086 C2082 1.531 . S
C2086 H2098 0.960 . S
C2086 H2099 0.962 . S
C2086 H2100 0.960 . S
C2087 C2084 1.511 . S
C2087 H2101 0.961 . S
C2087 H2102 0.961 . S
C2087 H2103 0.961 . S
C2088 C2089 1.370 . S
C2088 C2090 1.363 . S
C2088 H2104 0.931 . S
C2089 C2088 1.370 . S
C2089 C2093 1.408 . S
C2090 C2088 1.363 . S
C2090 C2091 1.370 . S
C2090 C2094 1.524 . S
C2091 C2083 1.503 . S
C2091 C2090 1.370 . S
C2091 C2092 1.403 . S
C2092 C2091 1.403 . S
C2092 C2093 1.404 . S
C2092 C2095 1.539 . S
C2093 C2089 1.408 . S
C2093 C2092 1.404 . S
C2093 H2105 0.930 . S
C2094 C2090 1.524 . S
C2094 H2106 0.956 . S
C2094 H2107 0.961 . S
C2094 H2108 0.961 . S
C2095 C2092 1.539 . S
C2095 H2109 0.958 . S
C2095 H2110 0.961 . S
C2095 H2111 0.960 . S
H2096 C2080 0.931 . S
H2097 C2085 0.929 . S
H2098 C2086 0.960 . S
H2099 C2086 0.962 . S
H2100 C2086 0.960 . S
H2101 C2087 0.961 . S
H2102 C2087 0.961 . S
H2103 C2087 0.961 . S
H2104 C2088 0.931 . S
H2105 C2093 0.930 . S
H2106 C2094 0.956 . S
H2107 C2094 0.961 . S
H2108 C2094 0.961 . S
H2109 C2095 0.958 . S
H2110 C2095 0.961 . S
H2111 C2095 0.960 . S
C2112 C2113 1.391 . S
C2112 C2114 1.394 . S
C2112 H2128 0.931 . S
C2113 C2112 1.391 . S
C2113 C2117 1.376 . S
C2114 C2112 1.394 . S
C2114 C2115 1.369 . S
C2114 C2118 1.527 1_554 S
C2115 C2114 1.369 . S
C2115 C2116 1.410 . S
C2115 C2123 1.503 . S
C2116 C2115 1.410 . S
C2116 C2117 1.392 . S
C2116 C2119 1.511 . S
C2117 C2113 1.376 . S
C2117 C2116 1.392 . S
C2117 H2129 0.929 . S
C2118 C2114 1.527 1_556 S
C2118 H2130 0.960 . S
C2118 H2131 0.963 . S
C2118 H2132 0.963 . S
C2119 C2116 1.511 . S
C2119 H2133 0.961 . S
C2119 H2134 0.961 . S
C2119 H2135 0.961 . S
C2120 C2121 1.370 . S
C2120 C2122 1.363 . S
C2120 H2136 0.931 . S
C2121 C2120 1.370 . S
C2121 C2125 1.408 . S
C2122 C2120 1.363 . S
C2122 C2123 1.370 . S
C2122 C2126 1.524 . S
C2123 C2115 1.503 . S
C2123 C2122 1.370 . S
C2123 C2124 1.403 . S
C2124 C2123 1.403 . S
C2124 C2125 1.404 . S
C2124 C2127 1.539 . S
C2125 C2121 1.408 . S
C2125 C2124 1.404 . S
C2125 H2137 0.930 . S
C2126 C2122 1.524 . S
C2126 H2138 0.956 . S
C2126 H2139 0.961 . S
C2126 H2140 0.961 . S
C2127 C2124 1.539 . S
C2127 H2141 0.958 . S
C2127 H2142 0.961 . S
C2127 H2143 0.960 . S
H2128 C2112 0.931 . S
H2129 C2117 0.929 . S
H2130 C2118 0.960 . S
H2131 C2118 0.963 . S
H2132 C2118 0.963 . S
H2133 C2119 0.961 . S
H2134 C2119 0.961 . S
H2135 C2119 0.961 . S
H2136 C2120 0.931 . S
H2137 C2125 0.930 . S
H2138 C2126 0.956 . S
H2139 C2126 0.961 . S
H2140 C2126 0.961 . S
H2141 C2127 0.958 . S
H2142 C2127 0.961 . S
H2143 C2127 0.960 . S
C2144 C2145 1.391 . S
C2144 C2146 1.394 . S
C2144 H2160 0.931 . S
C2145 C2144 1.391 . S
C2145 C2149 1.376 . S
C2146 C2144 1.394 . S
C2146 C2147 1.369 . S
C2146 C2150 1.531 . S
C2147 C2146 1.369 . S
C2147 C2148 1.410 . S
C2147 C2155 1.503 . S
C2148 C2147 1.410 . S
C2148 C2149 1.392 . S
C2148 C2151 1.511 . S
C2149 C2145 1.376 . S
C2149 C2148 1.392 . S
C2149 H2161 0.929 . S
C2150 C2146 1.531 . S
C2150 H2162 0.960 . S
C2150 H2163 0.962 . S
C2150 H2164 0.960 . S
C2151 C2148 1.511 . S
C2151 H2165 0.961 . S
C2151 H2166 0.961 . S
C2151 H2167 0.961 . S
C2152 C2153 1.370 . S
C2152 C2154 1.363 . S
C2152 H2168 0.931 . S
C2153 C2152 1.370 . S
C2153 C2157 1.408 . S
C2154 C2152 1.363 . S
C2154 C2155 1.370 . S
C2154 C2158 1.524 . S
C2155 C2147 1.503 . S
C2155 C2154 1.370 . S
C2155 C2156 1.403 . S
C2156 C2155 1.403 . S
C2156 C2157 1.404 . S
C2156 C2159 1.539 . S
C2157 C2153 1.408 . S
C2157 C2156 1.404 . S
C2157 H2169 0.930 . S
C2158 C2154 1.524 . S
C2158 H2170 0.956 . S
C2158 H2171 0.961 . S
C2158 H2172 0.961 . S
C2159 C2156 1.539 . S
C2159 H2173 0.958 . S
C2159 H2174 0.961 . S
C2159 H2175 0.960 . S
H2160 C2144 0.931 . S
H2161 C2149 0.929 . S
H2162 C2150 0.960 . S
H2163 C2150 0.962 . S
H2164 C2150 0.960 . S
H2165 C2151 0.961 . S
H2166 C2151 0.961 . S
H2167 C2151 0.961 . S
H2168 C2152 0.931 . S
H2169 C2157 0.930 . S
H2170 C2158 0.956 . S
H2171 C2158 0.961 . S
H2172 C2158 0.961 . S
H2173 C2159 0.958 . S
H2174 C2159 0.961 . S
H2175 C2159 0.960 . S
C2176 C2177 1.391 . S
C2176 C2178 1.394 . S
C2176 H2192 0.931 . S
C2177 C2176 1.391 . S
C2177 C2181 1.376 . S
C2178 C2176 1.394 . S
C2178 C2179 1.369 . S
C2178 C2182 1.531 . S
C2179 C2178 1.369 . S
C2179 C2180 1.410 . S
C2179 C2187 1.503 . S
C2180 C2179 1.410 . S
C2180 C2181 1.392 . S
C2180 C2183 1.511 . S
C2181 C2177 1.376 . S
C2181 C2180 1.392 . S
C2181 H2193 0.929 . S
C2182 C2178 1.531 . S
C2182 H2194 0.960 . S
C2182 H2195 0.962 . S
C2182 H2196 0.960 . S
C2183 C2180 1.511 . S
C2183 H2197 0.961 . S
C2183 H2198 0.961 . S
C2183 H2199 0.961 . S
C2184 C2185 1.370 . S
C2184 C2186 1.363 . S
C2184 H2200 0.931 . S
C2185 C2184 1.370 . S
C2185 C2189 1.408 . S
C2186 C2184 1.363 . S
C2186 C2187 1.370 . S
C2186 C2190 1.524 . S
C2187 C2179 1.503 . S
C2187 C2186 1.370 . S
C2187 C2188 1.403 . S
C2188 C2187 1.403 . S
C2188 C2189 1.404 . S
C2188 C2191 1.539 . S
C2189 C2185 1.408 . S
C2189 C2188 1.404 . S
C2189 H2201 0.930 . S
C2190 C2186 1.524 . S
C2190 H2202 0.956 . S
C2190 H2203 0.961 . S
C2190 H2204 0.961 . S
C2191 C2188 1.539 . S
C2191 H2205 0.958 . S
C2191 H2206 0.961 . S
C2191 H2207 0.960 . S
H2192 C2176 0.931 . S
H2193 C2181 0.929 . S
H2194 C2182 0.960 . S
H2195 C2182 0.962 . S
H2196 C2182 0.960 . S
H2197 C2183 0.961 . S
H2198 C2183 0.961 . S
H2199 C2183 0.961 . S
H2200 C2184 0.931 . S
H2201 C2189 0.930 . S
H2202 C2190 0.956 . S
H2203 C2190 0.961 . S
H2204 C2190 0.961 . S
H2205 C2191 0.958 . S
H2206 C2191 0.961 . S
H2207 C2191 0.960 . S
C2208 C2209 1.391 . S
C2208 C2210 1.394 . S
C2208 H2224 0.931 . S
C2209 C2208 1.391 . S
C2209 C2213 1.376 . S
C2210 C2208 1.394 . S
C2210 C2211 1.369 . S
C2210 C2214 1.531 . S
C2211 C2210 1.369 . S
C2211 C2212 1.410 . S
C2211 C2219 1.503 . S
C2212 C2211 1.410 . S
C2212 C2213 1.392 . S
C2212 C2215 1.511 . S
C2213 C2209 1.376 . S
C2213 C2212 1.392 . S
C2213 H2225 0.929 . S
C2214 C2210 1.531 . S
C2214 H2226 0.960 . S
C2214 H2227 0.962 . S
C2214 H2228 0.960 . S
C2215 C2212 1.511 . S
C2215 H2229 0.961 . S
C2215 H2230 0.961 . S
C2215 H2231 0.961 . S
C2216 C2217 1.370 . S
C2216 C2218 1.363 . S
C2216 H2232 0.931 . S
C2217 C2216 1.370 . S
C2217 C2221 1.408 . S
C2218 C2216 1.363 . S
C2218 C2219 1.370 . S
C2218 C2222 1.524 . S
C2219 C2211 1.503 . S
C2219 C2218 1.370 . S
C2219 C2220 1.403 . S
C2220 C2219 1.403 . S
C2220 C2221 1.404 . S
C2220 C2223 1.539 . S
C2221 C2217 1.408 . S
C2221 C2220 1.404 . S
C2221 H2233 0.930 . S
C2222 C2218 1.524 . S
C2222 H2234 0.956 . S
C2222 H2235 0.961 . S
C2222 H2236 0.961 . S
C2223 C2220 1.539 . S
C2223 H2237 0.958 . S
C2223 H2238 0.961 . S
C2223 H2239 0.960 . S
H2224 C2208 0.931 . S
H2225 C2213 0.929 . S
H2226 C2214 0.960 . S
H2227 C2214 0.962 . S
H2228 C2214 0.960 . S
H2229 C2215 0.961 . S
H2230 C2215 0.961 . S
H2231 C2215 0.961 . S
H2232 C2216 0.931 . S
H2233 C2221 0.930 . S
H2234 C2222 0.956 . S
H2235 C2222 0.961 . S
H2236 C2222 0.961 . S
H2237 C2223 0.958 . S
H2238 C2223 0.961 . S
H2239 C2223 0.960 . S
C2240 C2241 1.391 . S
C2240 C2242 1.394 . S
C2240 H2256 0.931 . S
C2241 C2240 1.391 . S
C2241 C2245 1.376 . S
C2242 C2240 1.394 . S
C2242 C2243 1.369 . S
C2242 C2246 1.531 . S
C2243 C2242 1.369 . S
C2243 C2244 1.410 . S
C2243 C2251 1.503 . S
C2244 C2243 1.410 . S
C2244 C2245 1.392 . S
C2244 C2247 1.511 . S
C2245 C2241 1.376 . S
C2245 C2244 1.392 . S
C2245 H2257 0.929 . S
C2246 C2242 1.531 . S
C2246 H2258 0.960 . S
C2246 H2259 0.962 . S
C2246 H2260 0.960 . S
C2247 C2244 1.511 . S
C2247 H2261 0.961 . S
C2247 H2262 0.961 . S
C2247 H2263 0.961 . S
C2248 C2249 1.370 . S
C2248 C2250 1.363 . S
C2248 H2264 0.931 . S
C2249 C2248 1.370 . S
C2249 C2253 1.408 . S
C2250 C2248 1.363 . S
C2250 C2251 1.370 . S
C2250 C2254 1.524 . S
C2251 C2243 1.503 . S
C2251 C2250 1.370 . S
C2251 C2252 1.403 . S
C2252 C2251 1.403 . S
C2252 C2253 1.404 . S
C2252 C2255 1.539 . S
C2253 C2249 1.408 . S
C2253 C2252 1.404 . S
C2253 H2265 0.930 . S
C2254 C2250 1.524 . S
C2254 H2266 0.956 . S
C2254 H2267 0.961 . S
C2254 H2268 0.961 1_556 S
C2255 C2252 1.539 . S
C2255 H2269 0.958 . S
C2255 H2270 0.961 . S
C2255 H2271 0.960 . S
H2256 C2240 0.931 . S
H2257 C2245 0.929 . S
H2258 C2246 0.960 . S
H2259 C2246 0.962 . S
H2260 C2246 0.960 . S
H2261 C2247 0.961 . S
H2262 C2247 0.961 . S
H2263 C2247 0.961 . S
H2264 C2248 0.931 . S
H2265 C2253 0.930 . S
H2266 C2254 0.956 . S
H2267 C2254 0.961 . S
H2268 C2254 0.961 1_554 S
H2269 C2255 0.958 . S
H2270 C2255 0.961 . S
H2271 C2255 0.960 . S
C2272 C2273 1.391 . S
C2272 C2274 1.394 . S
C2272 H2288 0.931 . S
C2273 C2272 1.391 . S
C2273 C2277 1.376 . S
C2274 C2272 1.394 . S
C2274 C2275 1.369 . S
C2274 C2278 1.531 . S
C2275 C2274 1.369 . S
C2275 C2276 1.410 . S
C2275 C2283 1.503 . S
C2276 C2275 1.410 . S
C2276 C2277 1.392 . S
C2276 C2279 1.511 . S
C2277 C2273 1.376 . S
C2277 C2276 1.392 . S
C2277 H2289 0.929 . S
C2278 C2274 1.531 . S
C2278 H2290 0.960 . S
C2278 H2291 0.962 . S
C2278 H2292 0.960 . S
C2279 C2276 1.511 . S
C2279 H2293 0.961 . S
C2279 H2294 0.961 . S
C2279 H2295 0.961 1_554 S
C2280 C2281 1.370 . S
C2280 C2282 1.363 . S
C2280 H2296 0.931 . S
C2281 C2280 1.370 . S
C2281 C2285 1.408 . S
C2282 C2280 1.363 . S
C2282 C2283 1.370 . S
C2282 C2286 1.524 . S
C2283 C2275 1.503 . S
C2283 C2282 1.370 . S
C2283 C2284 1.403 . S
C2284 C2283 1.403 . S
C2284 C2285 1.404 . S
C2284 C2287 1.539 . S
C2285 C2281 1.408 . S
C2285 C2284 1.404 . S
C2285 H2297 0.930 . S
C2286 C2282 1.524 . S
C2286 H2298 0.956 . S
C2286 H2299 0.961 . S
C2286 H2300 0.961 . S
C2287 C2284 1.539 . S
C2287 H2301 0.958 . S
C2287 H2302 0.961 1_554 S
C2287 H2303 0.960 . S
H2288 C2272 0.931 . S
H2289 C2277 0.929 . S
H2290 C2278 0.960 . S
H2291 C2278 0.962 . S
H2292 C2278 0.960 . S
H2293 C2279 0.961 . S
H2294 C2279 0.961 . S
H2295 C2279 0.961 1_556 S
H2296 C2280 0.931 . S
H2297 C2285 0.930 . S
H2298 C2286 0.956 . S
H2299 C2286 0.961 . S
H2300 C2286 0.961 . S
H2301 C2287 0.958 . S
H2302 C2287 0.961 1_556 S
H2303 C2287 0.960 . S
C2304 C2305 1.391 . S
C2304 C2306 1.394 . S
C2304 H2320 0.931 . S
C2305 C2304 1.391 . S
C2305 C2309 1.376 . S
C2306 C2304 1.394 . S
C2306 C2307 1.369 . S
C2306 C2310 1.531 . S
C2307 C2306 1.369 . S
C2307 C2308 1.410 . S
C2307 C2315 1.503 . S
C2308 C2307 1.410 . S
C2308 C2309 1.392 . S
C2308 C2311 1.511 . S
C2309 C2305 1.376 . S
C2309 C2308 1.392 . S
C2309 H2321 0.929 . S
C2310 C2306 1.531 . S
C2310 H2322 0.960 . S
C2310 H2323 0.962 . S
C2310 H2324 0.960 . S
C2311 C2308 1.511 . S
C2311 H2325 0.961 . S
C2311 H2326 0.961 . S
C2311 H2327 0.961 . S
C2312 C2313 1.370 . S
C2312 C2314 1.363 . S
C2312 H2328 0.931 . S
C2313 C2312 1.370 . S
C2313 C2317 1.408 . S
C2314 C2312 1.363 . S
C2314 C2315 1.370 . S
C2314 C2318 1.524 . S
C2315 C2307 1.503 . S
C2315 C2314 1.370 . S
C2315 C2316 1.403 . S
C2316 C2315 1.403 . S
C2316 C2317 1.404 . S
C2316 C2319 1.539 . S
C2317 C2313 1.408 . S
C2317 C2316 1.404 . S
C2317 H2329 0.930 . S
C2318 C2314 1.524 . S
C2318 H2330 0.956 . S
C2318 H2331 0.961 . S
C2318 H2332 0.961 . S
C2319 C2316 1.539 . S
C2319 H2333 0.958 . S
C2319 H2334 0.961 . S
C2319 H2335 0.960 . S
H2320 C2304 0.931 . S
H2321 C2309 0.929 . S
H2322 C2310 0.960 . S
H2323 C2310 0.962 . S
H2324 C2310 0.960 . S
H2325 C2311 0.961 . S
H2326 C2311 0.961 . S
H2327 C2311 0.961 . S
H2328 C2312 0.931 . S
H2329 C2317 0.930 . S
H2330 C2318 0.956 . S
H2331 C2318 0.961 . S
H2332 C2318 0.961 . S
H2333 C2319 0.958 . S
H2334 C2319 0.961 . S
H2335 C2319 0.960 . S
C2336 C2337 1.391 . S
C2336 C2338 1.394 . S
C2336 H2352 0.931 . S
C2337 C2336 1.391 . S
C2337 C2341 1.376 . S
C2338 C2336 1.394 . S
C2338 C2339 1.369 . S
C2338 C2342 1.531 . S
C2339 C2338 1.369 . S
C2339 C2340 1.410 . S
C2339 C2347 1.503 . S
C2340 C2339 1.410 . S
C2340 C2341 1.392 . S
C2340 C2343 1.511 . S
C2341 C2337 1.376 . S
C2341 C2340 1.392 . S
C2341 H2353 0.929 . S
C2342 C2338 1.531 . S
C2342 H2354 0.960 . S
C2342 H2355 0.962 . S
C2342 H2356 0.960 . S
C2343 C2340 1.511 . S
C2343 H2357 0.961 . S
C2343 H2358 0.961 . S
C2343 H2359 0.961 . S
C2344 C2345 1.370 . S
C2344 C2346 1.363 . S
C2344 H2360 0.931 . S
C2345 C2344 1.370 . S
C2345 C2349 1.408 . S
C2346 C2344 1.363 . S
C2346 C2347 1.370 . S
C2346 C2350 1.524 . S
C2347 C2339 1.503 . S
C2347 C2346 1.370 . S
C2347 C2348 1.403 . S
C2348 C2347 1.403 . S
C2348 C2349 1.404 . S
C2348 C2351 1.539 . S
C2349 C2345 1.408 . S
C2349 C2348 1.404 . S
C2349 H2361 0.930 . S
C2350 C2346 1.524 . S
C2350 H2362 0.956 . S
C2350 H2363 0.961 . S
C2350 H2364 0.961 . S
C2351 C2348 1.539 . S
C2351 H2365 0.958 . S
C2351 H2366 0.961 . S
C2351 H2367 0.960 . S
H2352 C2336 0.931 . S
H2353 C2341 0.929 . S
H2354 C2342 0.960 . S
H2355 C2342 0.962 . S
H2356 C2342 0.960 . S
H2357 C2343 0.961 . S
H2358 C2343 0.961 . S
H2359 C2343 0.961 . S
H2360 C2344 0.931 . S
H2361 C2349 0.930 . S
H2362 C2350 0.956 . S
H2363 C2350 0.961 . S
H2364 C2350 0.961 . S
H2365 C2351 0.958 . S
H2366 C2351 0.961 . S
H2367 C2351 0.960 . S
C2368 C2369 1.391 . S
C2368 C2370 1.394 . S
C2368 H2384 0.931 . S
C2369 C2368 1.391 . S
C2369 C2373 1.376 . S
C2370 C2368 1.394 . S
C2370 C2371 1.369 . S
C2370 C2374 1.531 . S
C2371 C2370 1.369 . S
C2371 C2372 1.410 . S
C2371 C2379 1.503 . S
C2372 C2371 1.410 . S
C2372 C2373 1.392 . S
C2372 C2375 1.511 . S
C2373 C2369 1.376 . S
C2373 C2372 1.392 . S
C2373 H2385 0.929 . S
C2374 C2370 1.531 . S
C2374 H2386 0.960 . S
C2374 H2387 0.962 . S
C2374 H2388 0.960 . S
C2375 C2372 1.511 . S
C2375 H2389 0.961 . S
C2375 H2390 0.961 . S
C2375 H2391 0.961 . S
C2376 C2377 1.370 . S
C2376 C2378 1.363 . S
C2376 H2392 0.931 . S
C2377 C2376 1.370 . S
C2377 C2381 1.408 . S
C2378 C2376 1.363 . S
C2378 C2379 1.370 . S
C2378 C2382 1.524 . S
C2379 C2371 1.503 . S
C2379 C2378 1.370 . S
C2379 C2380 1.403 . S
C2380 C2379 1.403 . S
C2380 C2381 1.404 . S
C2380 C2383 1.539 1_556 S
C2381 C2377 1.408 . S
C2381 C2380 1.404 . S
C2381 H2393 0.930 1_556 S
C2382 C2378 1.524 . S
C2382 H2394 0.956 . S
C2382 H2395 0.961 . S
C2382 H2396 0.961 . S
C2383 C2380 1.539 1_554 S
C2383 H2397 0.958 . S
C2383 H2398 0.961 . S
C2383 H2399 0.960 . S
H2384 C2368 0.931 . S
H2385 C2373 0.929 . S
H2386 C2374 0.960 . S
H2387 C2374 0.962 . S
H2388 C2374 0.960 . S
H2389 C2375 0.961 . S
H2390 C2375 0.961 . S
H2391 C2375 0.961 . S
H2392 C2376 0.931 . S
H2393 C2381 0.930 1_554 S
H2394 C2382 0.956 . S
H2395 C2382 0.961 . S
H2396 C2382 0.961 . S
H2397 C2383 0.958 . S
H2398 C2383 0.961 . S
H2399 C2383 0.960 . S
C2400 C2401 1.391 . S
C2400 C2402 1.394 . S
C2400 H2416 0.931 . S
C2401 C2400 1.391 . S
C2401 C2405 1.376 . S
C2402 C2400 1.394 . S
C2402 C2403 1.369 . S
C2402 C2406 1.531 . S
C2403 C2402 1.369 . S
C2403 C2404 1.410 . S
C2403 C2411 1.503 . S
C2404 C2403 1.410 . S
C2404 C2405 1.392 . S
C2404 C2407 1.511 . S
C2405 C2401 1.376 . S
C2405 C2404 1.392 . S
C2405 H2417 0.929 . S
C2406 C2402 1.531 . S
C2406 H2418 0.960 . S
C2406 H2419 0.962 . S
C2406 H2420 0.960 . S
C2407 C2404 1.511 . S
C2407 H2421 0.961 . S
C2407 H2422 0.961 . S
C2407 H2423 0.961 . S
C2408 C2409 1.370 . S
C2408 C2410 1.363 . S
C2408 H2424 0.931 . S
C2409 C2408 1.370 . S
C2409 C2413 1.408 . S
C2410 C2408 1.363 . S
C2410 C2411 1.370 . S
C2410 C2414 1.524 . S
C2411 C2403 1.503 . S
C2411 C2410 1.370 . S
C2411 C2412 1.403 . S
C2412 C2411 1.403 . S
C2412 C2413 1.404 . S
C2412 C2415 1.539 . S
C2413 C2409 1.408 . S
C2413 C2412 1.404 . S
C2413 H2425 0.930 . S
C2414 C2410 1.524 . S
C2414 H2426 0.956 . S
C2414 H2427 0.961 . S
C2414 H2428 0.961 . S
C2415 C2412 1.539 . S
C2415 H2429 0.958 . S
C2415 H2430 0.961 . S
C2415 H2431 0.960 . S
H2416 C2400 0.931 . S
H2417 C2405 0.929 . S
H2418 C2406 0.960 . S
H2419 C2406 0.962 . S
H2420 C2406 0.960 . S
H2421 C2407 0.961 . S
H2422 C2407 0.961 . S
H2423 C2407 0.961 . S
H2424 C2408 0.931 . S
H2425 C2413 0.930 . S
H2426 C2414 0.956 . S
H2427 C2414 0.961 . S
H2428 C2414 0.961 . S
H2429 C2415 0.958 . S
H2430 C2415 0.961 . S
H2431 C2415 0.960 . S
C2432 C2433 1.391 . S
C2432 C2434 1.394 . S
C2432 H2448 0.931 . S
C2433 C2432 1.391 . S
C2433 C2437 1.376 . S
C2434 C2432 1.394 . S
C2434 C2435 1.369 . S
C2434 C2438 1.531 . S
C2435 C2434 1.369 . S
C2435 C2436 1.410 . S
C2435 C2443 1.503 . S
C2436 C2435 1.410 . S
C2436 C2437 1.392 . S
C2436 C2439 1.511 . S
C2437 C2433 1.376 . S
C2437 C2436 1.392 . S
C2437 H2449 0.929 . S
C2438 C2434 1.531 . S
C2438 H2450 0.960 . S
C2438 H2451 0.962 . S
C2438 H2452 0.960 . S
C2439 C2436 1.511 . S
C2439 H2453 0.961 . S
C2439 H2454 0.961 . S
C2439 H2455 0.961 . S
C2440 C2441 1.370 . S
C2440 C2442 1.363 . S
C2440 H2456 0.931 . S
C2441 C2440 1.370 . S
C2441 C2445 1.408 . S
C2442 C2440 1.363 . S
C2442 C2443 1.370 . S
C2442 C2446 1.524 . S
C2443 C2435 1.503 . S
C2443 C2442 1.370 . S
C2443 C2444 1.403 . S
C2444 C2443 1.403 . S
C2444 C2445 1.404 . S
C2444 C2447 1.539 . S
C2445 C2441 1.408 . S
C2445 C2444 1.404 . S
C2445 H2457 0.930 . S
C2446 C2442 1.524 . S
C2446 H2458 0.956 . S
C2446 H2459 0.961 . S
C2446 H2460 0.961 . S
C2447 C2444 1.539 . S
C2447 H2461 0.958 . S
C2447 H2462 0.961 . S
C2447 H2463 0.960 . S
H2448 C2432 0.931 . S
H2449 C2437 0.929 . S
H2450 C2438 0.960 . S
H2451 C2438 0.962 . S
H2452 C2438 0.960 . S
H2453 C2439 0.961 . S
H2454 C2439 0.961 . S
H2455 C2439 0.961 . S
H2456 C2440 0.931 . S
H2457 C2445 0.930 . S
H2458 C2446 0.956 . S
H2459 C2446 0.961 . S
H2460 C2446 0.961 . S
H2461 C2447 0.958 . S
H2462 C2447 0.961 . S
H2463 C2447 0.960 . S
C2464 C2465 1.391 . S
C2464 C2466 1.394 . S
C2464 H2480 0.931 . S
C2465 C2464 1.391 . S
C2465 C2469 1.376 . S
C2466 C2464 1.394 . S
C2466 C2467 1.369 . S
C2466 C2470 1.531 . S
C2467 C2466 1.369 . S
C2467 C2468 1.410 . S
C2467 C2475 1.503 . S
C2468 C2467 1.410 . S
C2468 C2469 1.392 . S
C2468 C2471 1.511 . S
C2469 C2465 1.376 . S
C2469 C2468 1.392 . S
C2469 H2481 0.929 . S
C2470 C2466 1.531 . S
C2470 H2482 0.960 . S
C2470 H2483 0.962 . S
C2470 H2484 0.960 . S
C2471 C2468 1.511 . S
C2471 H2485 0.961 . S
C2471 H2486 0.961 . S
C2471 H2487 0.961 . S
C2472 C2473 1.370 . S
C2472 C2474 1.363 . S
C2472 H2488 0.931 . S
C2473 C2472 1.370 . S
C2473 C2477 1.408 . S
C2474 C2472 1.363 . S
C2474 C2475 1.370 . S
C2474 C2478 1.524 . S
C2475 C2467 1.503 . S
C2475 C2474 1.370 . S
C2475 C2476 1.403 . S
C2476 C2475 1.403 . S
C2476 C2477 1.404 . S
C2476 C2479 1.539 . S
C2477 C2473 1.408 . S
C2477 C2476 1.404 . S
C2477 H2489 0.930 . S
C2478 C2474 1.524 . S
C2478 H2490 0.956 . S
C2478 H2491 0.961 . S
C2478 H2492 0.961 1_554 S
C2479 C2476 1.539 . S
C2479 H2493 0.958 . S
C2479 H2494 0.961 . S
C2479 H2495 0.960 . S
H2480 C2464 0.931 . S
H2481 C2469 0.929 . S
H2482 C2470 0.960 . S
H2483 C2470 0.962 . S
H2484 C2470 0.960 . S
H2485 C2471 0.961 . S
H2486 C2471 0.961 . S
H2487 C2471 0.961 . S
H2488 C2472 0.931 . S
H2489 C2477 0.930 . S
H2490 C2478 0.956 . S
H2491 C2478 0.961 . S
H2492 C2478 0.961 1_556 S
H2493 C2479 0.958 . S
H2494 C2479 0.961 . S
H2495 C2479 0.960 . S
C2496 C2497 1.391 . S
C2496 C2498 1.394 . S
C2496 H2512 0.931 . S
C2497 C2496 1.391 . S
C2497 C2501 1.376 . S
C2498 C2496 1.394 . S
C2498 C2499 1.369 . S
C2498 C2502 1.531 . S
C2499 C2498 1.369 . S
C2499 C2500 1.410 . S
C2499 C2507 1.503 . S
C2500 C2499 1.410 . S
C2500 C2501 1.392 . S
C2500 C2503 1.511 . S
C2501 C2497 1.376 . S
C2501 C2500 1.392 . S
C2501 H2513 0.929 . S
C2502 C2498 1.531 . S
C2502 H2514 0.960 . S
C2502 H2515 0.962 . S
C2502 H2516 0.960 . S
C2503 C2500 1.511 . S
C2503 H2517 0.961 1_554 S
C2503 H2518 0.961 . S
C2503 H2519 0.961 1_554 S
C2504 C2505 1.370 . S
C2504 C2506 1.363 . S
C2504 H2520 0.931 . S
C2505 C2504 1.370 . S
C2505 C2509 1.408 . S
C2506 C2504 1.363 . S
C2506 C2507 1.370 . S
C2506 C2510 1.524 . S
C2507 C2499 1.503 . S
C2507 C2506 1.370 . S
C2507 C2508 1.403 . S
C2508 C2507 1.403 . S
C2508 C2509 1.404 . S
C2508 C2511 1.539 . S
C2509 C2505 1.408 . S
C2509 C2508 1.404 . S
C2509 H2521 0.930 . S
C2510 C2506 1.524 . S
C2510 H2522 0.956 . S
C2510 H2523 0.961 . S
C2510 H2524 0.961 . S
C2511 C2508 1.539 . S
C2511 H2525 0.958 . S
C2511 H2526 0.961 . S
C2511 H2527 0.960 . S
H2512 C2496 0.931 . S
H2513 C2501 0.929 . S
H2514 C2502 0.960 . S
H2515 C2502 0.962 . S
H2516 C2502 0.960 . S
H2517 C2503 0.961 1_556 S
H2518 C2503 0.961 . S
H2519 C2503 0.961 1_556 S
H2520 C2504 0.931 . S
H2521 C2509 0.930 . S
H2522 C2510 0.956 . S
H2523 C2510 0.961 . S
H2524 C2510 0.961 . S
H2525 C2511 0.958 . S
H2526 C2511 0.961 . S
H2527 C2511 0.960 . S
C2528 C2529 1.391 . S
C2528 C2530 1.394 . S
C2528 H2544 0.931 . S
C2529 C2528 1.391 . S
C2529 C2533 1.376 . S
C2530 C2528 1.394 . S
C2530 C2531 1.369 . S
C2530 C2534 1.531 . S
C2531 C2530 1.369 . S
C2531 C2532 1.410 . S
C2531 C2539 1.503 . S
C2532 C2531 1.410 . S
C2532 C2533 1.392 . S
C2532 C2535 1.511 . S
C2533 C2529 1.376 . S
C2533 C2532 1.392 . S
C2533 H2545 0.929 . S
C2534 C2530 1.531 . S
C2534 H2546 0.960 1_556 S
C2534 H2547 0.962 . S
C2534 H2548 0.960 1_556 S
C2535 C2532 1.511 . S
C2535 H2549 0.961 . S
C2535 H2550 0.961 . S
C2535 H2551 0.961 . S
C2536 C2537 1.370 . S
C2536 C2538 1.363 . S
C2536 H2552 0.931 . S
C2537 C2536 1.370 . S
C2537 C2541 1.408 . S
C2538 C2536 1.363 . S
C2538 C2539 1.370 . S
C2538 C2542 1.524 . S
C2539 C2531 1.503 . S
C2539 C2538 1.370 . S
C2539 C2540 1.403 . S
C2540 C2539 1.403 . S
C2540 C2541 1.404 . S
C2540 C2543 1.539 . S
C2541 C2537 1.408 . S
C2541 C2540 1.404 . S
C2541 H2553 0.930 . S
C2542 C2538 1.524 . S
C2542 H2554 0.956 . S
C2542 H2555 0.961 . S
C2542 H2556 0.961 . S
C2543 C2540 1.539 . S
C2543 H2557 0.958 . S
C2543 H2558 0.961 . S
C2543 H2559 0.960 . S
H2544 C2528 0.931 . S
H2545 C2533 0.929 . S
H2546 C2534 0.960 1_554 S
H2547 C2534 0.962 . S
H2548 C2534 0.960 1_554 S
H2549 C2535 0.961 . S
H2550 C2535 0.961 . S
H2551 C2535 0.961 . S
H2552 C2536 0.931 . S
H2553 C2541 0.930 . S
H2554 C2542 0.956 . S
H2555 C2542 0.961 . S
H2556 C2542 0.961 . S
H2557 C2543 0.958 . S
H2558 C2543 0.961 . S
H2559 C2543 0.960 . S
C2560 C2561 1.391 . S
C2560 C2562 1.394 . S
C2560 H2576 0.931 . S
C2561 C2560 1.391 . S
C2561 C2565 1.376 . S
C2562 C2560 1.394 . S
C2562 C2563 1.369 . S
C2562 C2566 1.531 . S
C2563 C2562 1.369 . S
C2563 C2564 1.410 . S
C2563 C2571 1.503 . S
C2564 C2563 1.410 . S
C2564 C2565 1.392 . S
C2564 C2567 1.511 . S
C2565 C2561 1.376 . S
C2565 C2564 1.392 . S
C2565 H2577 0.929 . S
C2566 C2562 1.531 . S
C2566 H2578 0.960 . S
C2566 H2579 0.962 . S
C2566 H2580 0.960 . S
C2567 C2564 1.511 . S
C2567 H2581 0.961 . S
C2567 H2582 0.961 . S
C2567 H2583 0.961 . S
C2568 C2569 1.370 . S
C2568 C2570 1.363 . S
C2568 H2584 0.931 . S
C2569 C2568 1.370 . S
C2569 C2573 1.408 . S
C2570 C2568 1.363 . S
C2570 C2571 1.370 . S
C2570 C2574 1.524 . S
C2571 C2563 1.503 . S
C2571 C2570 1.370 . S
C2571 C2572 1.403 . S
C2572 C2571 1.403 . S
C2572 C2573 1.404 . S
C2572 C2575 1.539 . S
C2573 C2569 1.408 . S
C2573 C2572 1.404 . S
C2573 H2585 0.930 . S
C2574 C2570 1.524 . S
C2574 H2586 0.956 . S
C2574 H2587 0.961 . S
C2574 H2588 0.961 . S
C2575 C2572 1.539 . S
C2575 H2589 0.958 . S
C2575 H2590 0.961 . S
C2575 H2591 0.960 . S
H2576 C2560 0.931 . S
H2577 C2565 0.929 . S
H2578 C2566 0.960 . S
H2579 C2566 0.962 . S
H2580 C2566 0.960 . S
H2581 C2567 0.961 . S
H2582 C2567 0.961 . S
H2583 C2567 0.961 . S
H2584 C2568 0.931 . S
H2585 C2573 0.930 . S
H2586 C2574 0.956 . S
H2587 C2574 0.961 . S
H2588 C2574 0.961 . S
H2589 C2575 0.958 . S
H2590 C2575 0.961 . S
H2591 C2575 0.960 . S
C2592 C2593 1.391 . S
C2592 C2594 1.394 . S
C2592 H2608 0.931 . S
C2593 C2592 1.391 . S
C2593 C2597 1.376 . S
C2594 C2592 1.394 . S
C2594 C2595 1.369 . S
C2594 C2598 1.531 . S
C2595 C2594 1.369 . S
C2595 C2596 1.410 . S
C2595 C2603 1.503 . S
C2596 C2595 1.410 . S
C2596 C2597 1.392 . S
C2596 C2599 1.511 . S
C2597 C2593 1.376 . S
C2597 C2596 1.392 . S
C2597 H2609 0.929 . S
C2598 C2594 1.531 . S
C2598 H2610 0.960 . S
C2598 H2611 0.962 . S
C2598 H2612 0.960 . S
C2599 C2596 1.511 . S
C2599 H2613 0.961 . S
C2599 H2614 0.961 . S
C2599 H2615 0.961 . S
C2600 C2601 1.370 . S
C2600 C2602 1.363 . S
C2600 H2616 0.931 . S
C2601 C2600 1.370 . S
C2601 C2605 1.408 . S
C2602 C2600 1.363 . S
C2602 C2603 1.370 . S
C2602 C2606 1.524 . S
C2603 C2595 1.503 . S
C2603 C2602 1.370 . S
C2603 C2604 1.403 . S
C2604 C2603 1.403 . S
C2604 C2605 1.404 . S
C2604 C2607 1.539 . S
C2605 C2601 1.408 . S
C2605 C2604 1.404 . S
C2605 H2617 0.930 . S
C2606 C2602 1.524 . S
C2606 H2618 0.956 . S
C2606 H2619 0.961 . S
C2606 H2620 0.961 . S
C2607 C2604 1.539 . S
C2607 H2621 0.958 . S
C2607 H2622 0.961 . S
C2607 H2623 0.960 . S
H2608 C2592 0.931 . S
H2609 C2597 0.929 . S
H2610 C2598 0.960 . S
H2611 C2598 0.962 . S
H2612 C2598 0.960 . S
H2613 C2599 0.961 . S
H2614 C2599 0.961 . S
H2615 C2599 0.961 . S
H2616 C2600 0.931 . S
H2617 C2605 0.930 . S
H2618 C2606 0.956 . S
H2619 C2606 0.961 . S
H2620 C2606 0.961 . S
H2621 C2607 0.958 . S
H2622 C2607 0.961 . S
H2623 C2607 0.960 . S
C2624 C2625 1.391 . S
C2624 C2626 1.394 . S
C2624 H2640 0.931 . S
C2625 C2624 1.391 . S
C2625 C2629 1.376 1_556 S
C2626 C2624 1.394 . S
C2626 C2627 1.369 . S
C2626 C2630 1.531 . S
C2627 C2626 1.369 . S
C2627 C2628 1.410 1_556 S
C2627 C2635 1.503 1_556 S
C2628 C2627 1.410 1_554 S
C2628 C2629 1.392 . S
C2628 C2631 1.511 . S
C2629 C2625 1.376 1_554 S
C2629 C2628 1.392 . S
C2629 H2641 0.929 . S
C2630 C2626 1.531 . S
C2630 H2642 0.960 . S
C2630 H2643 0.962 . S
C2630 H2644 0.960 . S
C2631 C2628 1.511 . S
C2631 H2645 0.961 . S
C2631 H2646 0.961 . S
C2631 H2647 0.961 . S
C2632 C2633 1.370 . S
C2632 C2634 1.363 . S
C2632 H2648 0.931 . S
C2633 C2632 1.370 . S
C2633 C2637 1.408 . S
C2634 C2632 1.363 . S
C2634 C2635 1.370 . S
C2634 C2638 1.524 . S
C2635 C2627 1.503 1_554 S
C2635 C2634 1.370 . S
C2635 C2636 1.403 . S
C2636 C2635 1.403 . S
C2636 C2637 1.404 . S
C2636 C2639 1.539 . S
C2637 C2633 1.408 . S
C2637 C2636 1.404 . S
C2637 H2649 0.930 . S
C2638 C2634 1.524 . S
C2638 H2650 0.956 1_554 S
C2638 H2651 0.961 . S
C2638 H2652 0.961 . S
C2639 C2636 1.539 . S
C2639 H2653 0.958 1_554 S
C2639 H2654 0.961 . S
C2639 H2655 0.960 . S
H2640 C2624 0.931 . S
H2641 C2629 0.929 . S
H2642 C2630 0.960 . S
H2643 C2630 0.962 . S
H2644 C2630 0.960 . S
H2645 C2631 0.961 . S
H2646 C2631 0.961 . S
H2647 C2631 0.961 . S
H2648 C2632 0.931 . S
H2649 C2637 0.930 . S
H2650 C2638 0.956 1_556 S
H2651 C2638 0.961 . S
H2652 C2638 0.961 . S
H2653 C2639 0.958 1_556 S
H2654 C2639 0.961 . S
H2655 C2639 0.960 . S
C2656 C2657 1.391 . S
C2656 C2658 1.394 . S
C2656 H2672 0.931 . S
C2657 C2656 1.391 . S
C2657 C2661 1.376 . S
C2658 C2656 1.394 . S
C2658 C2659 1.369 . S
C2658 C2662 1.531 . S
C2659 C2658 1.369 . S
C2659 C2660 1.410 . S
C2659 C2667 1.503 . S
C2660 C2659 1.410 . S
C2660 C2661 1.392 . S
C2660 C2663 1.511 . S
C2661 C2657 1.376 . S
C2661 C2660 1.392 . S
C2661 H2673 0.929 . S
C2662 C2658 1.531 . S
C2662 H2674 0.960 . S
C2662 H2675 0.962 . S
C2662 H2676 0.960 . S
C2663 C2660 1.511 . S
C2663 H2677 0.961 . S
C2663 H2678 0.961 . S
C2663 H2679 0.961 . S
C2664 C2665 1.370 . S
C2664 C2666 1.363 . S
C2664 H2680 0.931 . S
C2665 C2664 1.370 . S
C2665 C2669 1.408 . S
C2666 C2664 1.363 . S
C2666 C2667 1.370 . S
C2666 C2670 1.524 . S
C2667 C2659 1.503 . S
C2667 C2666 1.370 . S
C2667 C2668 1.403 . S
C2668 C2667 1.403 . S
C2668 C2669 1.404 . S
C2668 C2671 1.539 . S
C2669 C2665 1.408 . S
C2669 C2668 1.404 . S
C2669 H2681 0.930 . S
C2670 C2666 1.524 . S
C2670 H2682 0.956 . S
C2670 H2683 0.961 . S
C2670 H2684 0.961 . S
C2671 C2668 1.539 . S
C2671 H2685 0.958 . S
C2671 H2686 0.961 . S
C2671 H2687 0.960 . S
H2672 C2656 0.931 . S
H2673 C2661 0.929 . S
H2674 C2662 0.960 . S
H2675 C2662 0.962 . S
H2676 C2662 0.960 . S
H2677 C2663 0.961 . S
H2678 C2663 0.961 . S
H2679 C2663 0.961 . S
H2680 C2664 0.931 . S
H2681 C2669 0.930 . S
H2682 C2670 0.956 . S
H2683 C2670 0.961 . S
H2684 C2670 0.961 . S
H2685 C2671 0.958 . S
H2686 C2671 0.961 . S
H2687 C2671 0.960 . S
C2688 C2689 1.391 . S
C2688 C2690 1.394 . S
C2688 H2704 0.931 . S
C2689 C2688 1.391 . S
C2689 C2693 1.376 . S
C2690 C2688 1.394 . S
C2690 C2691 1.369 . S
C2690 C2694 1.531 . S
C2691 C2690 1.369 . S
C2691 C2692 1.410 . S
C2691 C2699 1.503 . S
C2692 C2691 1.410 . S
C2692 C2693 1.392 . S
C2692 C2695 1.511 . S
C2693 C2689 1.376 . S
C2693 C2692 1.392 . S
C2693 H2705 0.929 . S
C2694 C2690 1.531 . S
C2694 H2706 0.960 . S
C2694 H2707 0.962 . S
C2694 H2708 0.960 . S
C2695 C2692 1.511 . S
C2695 H2709 0.961 . S
C2695 H2710 0.961 . S
C2695 H2711 0.961 . S
C2696 C2697 1.370 . S
C2696 C2698 1.363 . S
C2696 H2712 0.931 . S
C2697 C2696 1.370 . S
C2697 C2701 1.408 . S
C2698 C2696 1.363 . S
C2698 C2699 1.370 . S
C2698 C2702 1.524 . S
C2699 C2691 1.503 . S
C2699 C2698 1.370 . S
C2699 C2700 1.403 . S
C2700 C2699 1.403 . S
C2700 C2701 1.404 . S
C2700 C2703 1.539 . S
C2701 C2697 1.408 . S
C2701 C2700 1.404 . S
C2701 H2713 0.930 . S
C2702 C2698 1.524 . S
C2702 H2714 0.956 . S
C2702 H2715 0.961 . S
C2702 H2716 0.961 . S
C2703 C2700 1.539 . S
C2703 H2717 0.958 . S
C2703 H2718 0.961 . S
C2703 H2719 0.960 . S
H2704 C2688 0.931 . S
H2705 C2693 0.929 . S
H2706 C2694 0.960 . S
H2707 C2694 0.962 . S
H2708 C2694 0.960 . S
H2709 C2695 0.961 . S
H2710 C2695 0.961 . S
H2711 C2695 0.961 . S
H2712 C2696 0.931 . S
H2713 C2701 0.930 . S
H2714 C2702 0.956 . S
H2715 C2702 0.961 . S
H2716 C2702 0.961 . S
H2717 C2703 0.958 . S
H2718 C2703 0.961 . S
H2719 C2703 0.960 . S
C2720 C2721 1.391 . S
C2720 C2722 1.394 . S
C2720 H2736 0.931 . S
C2721 C2720 1.391 . S
C2721 C2725 1.376 . S
C2722 C2720 1.394 . S
C2722 C2723 1.369 . S
C2722 C2726 1.531 . S
C2723 C2722 1.369 . S
C2723 C2724 1.410 . S
C2723 C2731 1.503 . S
C2724 C2723 1.410 . S
C2724 C2725 1.392 . S
C2724 C2727 1.511 . S
C2725 C2721 1.376 . S
C2725 C2724 1.392 . S
C2725 H2737 0.929 . S
C2726 C2722 1.531 . S
C2726 H2738 0.960 . S
C2726 H2739 0.962 . S
C2726 H2740 0.960 . S
C2727 C2724 1.511 . S
C2727 H2741 0.961 . S
C2727 H2742 0.961 . S
C2727 H2743 0.961 . S
C2728 C2729 1.370 . S
C2728 C2730 1.363 . S
C2728 H2744 0.931 . S
C2729 C2728 1.370 . S
C2729 C2733 1.408 . S
C2730 C2728 1.363 . S
C2730 C2731 1.370 . S
C2730 C2734 1.524 . S
C2731 C2723 1.503 . S
C2731 C2730 1.370 . S
C2731 C2732 1.403 . S
C2732 C2731 1.403 . S
C2732 C2733 1.404 . S
C2732 C2735 1.539 . S
C2733 C2729 1.408 . S
C2733 C2732 1.404 . S
C2733 H2745 0.930 . S
C2734 C2730 1.524 . S
C2734 H2746 0.956 . S
C2734 H2747 0.961 . S
C2734 H2748 0.961 . S
C2735 C2732 1.539 . S
C2735 H2749 0.958 . S
C2735 H2750 0.961 . S
C2735 H2751 0.960 . S
H2736 C2720 0.931 . S
H2737 C2725 0.929 . S
H2738 C2726 0.960 . S
H2739 C2726 0.962 . S
H2740 C2726 0.960 . S
H2741 C2727 0.961 . S
H2742 C2727 0.961 . S
H2743 C2727 0.961 . S
H2744 C2728 0.931 . S
H2745 C2733 0.930 . S
H2746 C2734 0.956 . S
H2747 C2734 0.961 . S
H2748 C2734 0.961 . S
H2749 C2735 0.958 . S
H2750 C2735 0.961 . S
H2751 C2735 0.960 . S
C2752 C2753 1.391 . S
C2752 C2754 1.394 . S
C2752 H2768 0.931 . S
C2753 C2752 1.391 . S
C2753 C2757 1.376 . S
C2754 C2752 1.394 . S
C2754 C2755 1.369 . S
C2754 C2758 1.531 . S
C2755 C2754 1.369 . S
C2755 C2756 1.410 . S
C2755 C2763 1.503 1_556 S
C2756 C2755 1.410 . S
C2756 C2757 1.392 . S
C2756 C2759 1.511 1_556 S
C2757 C2753 1.376 . S
C2757 C2756 1.392 . S
C2757 H2769 0.929 . S
C2758 C2754 1.531 . S
C2758 H2770 0.960 . S
C2758 H2771 0.962 . S
C2758 H2772 0.960 . S
C2759 C2756 1.511 1_554 S
C2759 H2773 0.961 . S
C2759 H2774 0.961 . S
C2759 H2775 0.961 1_554 S
C2760 C2761 1.370 . S
C2760 C2762 1.363 . S
C2760 H2776 0.931 . S
C2761 C2760 1.370 . S
C2761 C2765 1.408 1_554 S
C2762 C2760 1.363 . S
C2762 C2763 1.370 . S
C2762 C2766 1.524 . S
C2763 C2755 1.503 1_554 S
C2763 C2762 1.370 . S
C2763 C2764 1.403 1_554 S
C2764 C2763 1.403 1_556 S
C2764 C2765 1.404 . S
C2764 C2767 1.539 . S
C2765 C2761 1.408 1_556 S
C2765 C2764 1.404 . S
C2765 H2777 0.930 . S
C2766 C2762 1.524 . S
C2766 H2778 0.956 . S
C2766 H2779 0.961 . S
C2766 H2780 0.961 . S
C2767 C2764 1.539 . S
C2767 H2781 0.958 . S
C2767 H2782 0.961 . S
C2767 H2783 0.960 . S
H2768 C2752 0.931 . S
H2769 C2757 0.929 . S
H2770 C2758 0.960 . S
H2771 C2758 0.962 . S
H2772 C2758 0.960 . S
H2773 C2759 0.961 . S
H2774 C2759 0.961 . S
H2775 C2759 0.961 1_556 S
H2776 C2760 0.931 . S
H2777 C2765 0.930 . S
H2778 C2766 0.956 . S
H2779 C2766 0.961 . S
H2780 C2766 0.961 . S
H2781 C2767 0.958 . S
H2782 C2767 0.961 . S
H2783 C2767 0.960 . S
C2784 C2785 1.391 . S
C2784 C2786 1.394 . S
C2784 H2800 0.931 . S
C2785 C2784 1.391 . S
C2785 C2789 1.376 . S
C2786 C2784 1.394 . S
C2786 C2787 1.369 . S
C2786 C2790 1.531 . S
C2787 C2786 1.369 . S
C2787 C2788 1.410 . S
C2787 C2795 1.503 . S
C2788 C2787 1.410 . S
C2788 C2789 1.392 . S
C2788 C2791 1.511 . S
C2789 C2785 1.376 . S
C2789 C2788 1.392 . S
C2789 H2801 0.929 . S
C2790 C2786 1.531 . S
C2790 H2802 0.960 . S
C2790 H2803 0.962 . S
C2790 H2804 0.960 . S
C2791 C2788 1.511 . S
C2791 H2805 0.961 . S
C2791 H2806 0.961 . S
C2791 H2807 0.961 . S
C2792 C2793 1.370 . S
C2792 C2794 1.363 . S
C2792 H2808 0.931 . S
C2793 C2792 1.370 . S
C2793 C2797 1.408 . S
C2794 C2792 1.363 . S
C2794 C2795 1.370 . S
C2794 C2798 1.524 . S
C2795 C2787 1.503 . S
C2795 C2794 1.370 . S
C2795 C2796 1.403 . S
C2796 C2795 1.403 . S
C2796 C2797 1.404 . S
C2796 C2799 1.539 . S
C2797 C2793 1.408 . S
C2797 C2796 1.404 . S
C2797 H2809 0.930 . S
C2798 C2794 1.524 . S
C2798 H2810 0.956 . S
C2798 H2811 0.961 . S
C2798 H2812 0.961 . S
C2799 C2796 1.539 . S
C2799 H2813 0.958 . S
C2799 H2814 0.961 . S
C2799 H2815 0.960 . S
H2800 C2784 0.931 . S
H2801 C2789 0.929 . S
H2802 C2790 0.960 . S
H2803 C2790 0.962 . S
H2804 C2790 0.960 . S
H2805 C2791 0.961 . S
H2806 C2791 0.961 . S
H2807 C2791 0.961 . S
H2808 C2792 0.931 . S
H2809 C2797 0.930 . S
H2810 C2798 0.956 . S
H2811 C2798 0.961 . S
H2812 C2798 0.961 . S
H2813 C2799 0.958 . S
H2814 C2799 0.961 . S
H2815 C2799 0.960 . S
C2816 C2817 1.391 . S
C2816 C2818 1.394 . S
C2816 H2832 0.931 . S
C2817 C2816 1.391 . S
C2817 C2821 1.376 . S
C2818 C2816 1.394 . S
C2818 C2819 1.369 . S
C2818 C2822 1.531 . S
C2819 C2818 1.369 . S
C2819 C2820 1.410 . S
C2819 C2827 1.503 . S
C2820 C2819 1.410 . S
C2820 C2821 1.392 . S
C2820 C2823 1.511 . S
C2821 C2817 1.376 . S
C2821 C2820 1.392 . S
C2821 H2833 0.929 . S
C2822 C2818 1.531 . S
C2822 H2834 0.960 . S
C2822 H2835 0.962 . S
C2822 H2836 0.960 . S
C2823 C2820 1.511 . S
C2823 H2837 0.961 . S
C2823 H2838 0.961 . S
C2823 H2839 0.961 . S
C2824 C2825 1.370 . S
C2824 C2826 1.363 . S
C2824 H2840 0.931 . S
C2825 C2824 1.370 . S
C2825 C2829 1.408 . S
C2826 C2824 1.363 . S
C2826 C2827 1.370 . S
C2826 C2830 1.524 . S
C2827 C2819 1.503 . S
C2827 C2826 1.370 . S
C2827 C2828 1.403 . S
C2828 C2827 1.403 . S
C2828 C2829 1.404 . S
C2828 C2831 1.539 . S
C2829 C2825 1.408 . S
C2829 C2828 1.404 . S
C2829 H2841 0.930 . S
C2830 C2826 1.524 . S
C2830 H2842 0.956 . S
C2830 H2843 0.961 . S
C2830 H2844 0.961 . S
C2831 C2828 1.539 . S
C2831 H2845 0.958 . S
C2831 H2846 0.961 . S
C2831 H2847 0.960 . S
H2832 C2816 0.931 . S
H2833 C2821 0.929 . S
H2834 C2822 0.960 . S
H2835 C2822 0.962 . S
H2836 C2822 0.960 . S
H2837 C2823 0.961 . S
H2838 C2823 0.961 . S
H2839 C2823 0.961 . S
H2840 C2824 0.931 . S
H2841 C2829 0.930 . S
H2842 C2830 0.956 . S
H2843 C2830 0.961 . S
H2844 C2830 0.961 . S
H2845 C2831 0.958 . S
H2846 C2831 0.961 . S
H2847 C2831 0.960 . S
C2848 C2849 1.391 . S
C2848 C2850 1.394 . S
C2848 H2864 0.931 . S
C2849 C2848 1.391 . S
C2849 C2853 1.376 . S
C2850 C2848 1.394 . S
C2850 C2851 1.369 . S
C2850 C2854 1.531 . S
C2851 C2850 1.369 . S
C2851 C2852 1.410 . S
C2851 C2859 1.503 . S
C2852 C2851 1.410 . S
C2852 C2853 1.392 . S
C2852 C2855 1.511 . S
C2853 C2849 1.376 . S
C2853 C2852 1.392 . S
C2853 H2865 0.929 . S
C2854 C2850 1.531 . S
C2854 H2866 0.960 . S
C2854 H2867 0.962 . S
C2854 H2868 0.960 . S
C2855 C2852 1.511 . S
C2855 H2869 0.961 . S
C2855 H2870 0.961 . S
C2855 H2871 0.961 . S
C2856 C2857 1.370 . S
C2856 C2858 1.363 . S
C2856 H2872 0.931 . S
C2857 C2856 1.370 . S
C2857 C2861 1.408 . S
C2858 C2856 1.363 . S
C2858 C2859 1.370 . S
C2858 C2862 1.524 . S
C2859 C2851 1.503 . S
C2859 C2858 1.370 . S
C2859 C2860 1.403 . S
C2860 C2859 1.403 . S
C2860 C2861 1.404 . S
C2860 C2863 1.539 . S
C2861 C2857 1.408 . S
C2861 C2860 1.404 . S
C2861 H2873 0.930 . S
C2862 C2858 1.524 . S
C2862 H2874 0.956 . S
C2862 H2875 0.961 . S
C2862 H2876 0.961 . S
C2863 C2860 1.539 . S
C2863 H2877 0.958 . S
C2863 H2878 0.961 . S
C2863 H2879 0.960 . S
H2864 C2848 0.931 . S
H2865 C2853 0.929 . S
H2866 C2854 0.960 . S
H2867 C2854 0.962 . S
H2868 C2854 0.960 . S
H2869 C2855 0.961 . S
H2870 C2855 0.961 . S
H2871 C2855 0.961 . S
H2872 C2856 0.931 . S
H2873 C2861 0.930 . S
H2874 C2862 0.956 . S
H2875 C2862 0.961 . S
H2876 C2862 0.961 . S
H2877 C2863 0.958 . S
H2878 C2863 0.961 . S
H2879 C2863 0.960 . S
C2880 C2881 1.391 . S
C2880 C2882 1.394 . S
C2880 H2896 0.931 . S
C2881 C2880 1.391 . S
C2881 C2885 1.376 . S
C2882 C2880 1.394 . S
C2882 C2883 1.369 . S
C2882 C2886 1.531 . S
C2883 C2882 1.369 . S
C2883 C2884 1.410 . S
C2883 C2891 1.503 1_565 S
C2884 C2883 1.410 . S
C2884 C2885 1.392 . S
C2884 C2887 1.511 . S
C2885 C2881 1.376 . S
C2885 C2884 1.392 . S
C2885 H2897 0.929 . S
C2886 C2882 1.531 . S
C2886 H2898 0.960 . S
C2886 H2899 0.962 . S
C2886 H2900 0.960 . S
C2887 C2884 1.511 . S
C2887 H2901 0.961 . S
C2887 H2902 0.961 1_565 S
C2887 H2903 0.961 . S
C2888 C2889 1.370 . S
C2888 C2890 1.363 . S
C2888 H2904 0.931 . S
C2889 C2888 1.370 . S
C2889 C2893 1.408 . S
C2890 C2888 1.363 . S
C2890 C2891 1.370 . S
C2890 C2894 1.524 . S
C2891 C2883 1.503 1_545 S
C2891 C2890 1.370 . S
C2891 C2892 1.403 . S
C2892 C2891 1.403 . S
C2892 C2893 1.404 . S
C2892 C2895 1.534 . S
C2893 C2889 1.408 . S
C2893 C2892 1.404 . S
C2893 H2905 0.930 . S
C2894 C2890 1.524 . S
C2894 H2906 0.956 . S
C2894 H2907 0.961 . S
C2894 H2908 0.961 . S
C2895 C2892 1.534 . S
C2895 H2909 0.961 1_545 S
C2895 H2910 0.958 . S
C2895 H2911 0.966 1_545 S
H2896 C2880 0.931 . S
H2897 C2885 0.929 . S
H2898 C2886 0.960 . S
H2899 C2886 0.962 . S
H2900 C2886 0.960 . S
H2901 C2887 0.961 . S
H2902 C2887 0.961 1_545 S
H2903 C2887 0.961 . S
H2904 C2888 0.931 . S
H2905 C2893 0.930 . S
H2906 C2894 0.956 . S
H2907 C2894 0.961 . S
H2908 C2894 0.961 . S
H2909 C2895 0.961 1_565 S
H2910 C2895 0.958 . S
H2911 C2895 0.966 1_565 S
C2912 C2913 1.391 . S
C2912 C2914 1.394 . S
C2912 H2928 0.931 . S
C2913 C2912 1.391 . S
C2913 C2917 1.376 . S
C2914 C2912 1.394 . S
C2914 C2915 1.369 . S
C2914 C2918 1.531 . S
C2915 C2914 1.369 . S
C2915 C2916 1.410 . S
C2915 C2923 1.503 . S
C2916 C2915 1.410 . S
C2916 C2917 1.392 . S
C2916 C2919 1.511 . S
C2917 C2913 1.376 . S
C2917 C2916 1.392 . S
C2917 H2929 0.929 . S
C2918 C2914 1.531 . S
C2918 H2930 0.960 . S
C2918 H2931 0.962 . S
C2918 H2932 0.960 . S
C2919 C2916 1.511 . S
C2919 H2933 0.961 . S
C2919 H2934 0.961 . S
C2919 H2935 0.961 . S
C2920 C2921 1.370 . S
C2920 C2922 1.363 . S
C2920 H2936 0.931 . S
C2921 C2920 1.370 . S
C2921 C2925 1.408 . S
C2922 C2920 1.363 . S
C2922 C2923 1.370 . S
C2922 C2926 1.524 . S
C2923 C2915 1.503 . S
C2923 C2922 1.370 . S
C2923 C2924 1.403 . S
C2924 C2923 1.403 . S
C2924 C2925 1.404 . S
C2924 C2927 1.539 . S
C2925 C2921 1.408 . S
C2925 C2924 1.404 . S
C2925 H2937 0.930 . S
C2926 C2922 1.524 . S
C2926 H2938 0.956 . S
C2926 H2939 0.961 . S
C2926 H2940 0.961 . S
C2927 C2924 1.539 . S
C2927 H2941 0.958 . S
C2927 H2942 0.961 . S
C2927 H2943 0.960 . S
H2928 C2912 0.931 . S
H2929 C2917 0.929 . S
H2930 C2918 0.960 . S
H2931 C2918 0.962 . S
H2932 C2918 0.960 . S
H2933 C2919 0.961 . S
H2934 C2919 0.961 . S
H2935 C2919 0.961 . S
H2936 C2920 0.931 . S
H2937 C2925 0.930 . S
H2938 C2926 0.956 . S
H2939 C2926 0.961 . S
H2940 C2926 0.961 . S
H2941 C2927 0.958 . S
H2942 C2927 0.961 . S
H2943 C2927 0.960 . S
C2944 C2945 1.391 . S
C2944 C2946 1.394 . S
C2944 H2960 0.931 . S
C2945 C2944 1.391 . S
C2945 C2949 1.376 . S
C2946 C2944 1.394 . S
C2946 C2947 1.369 . S
C2946 C2950 1.521 1_565 S
C2947 C2946 1.369 . S
C2947 C2948 1.410 1_554 S
C2947 C2955 1.503 1_564 S
C2948 C2947 1.410 1_556 S
C2948 C2949 1.392 1_556 S
C2948 C2951 1.511 . S
C2949 C2945 1.376 . S
C2949 C2948 1.392 1_554 S
C2949 H2961 0.929 1_554 S
C2950 C2946 1.521 1_545 S
C2950 H2962 0.973 . S
C2950 H2963 0.963 . S
C2950 H2964 0.956 1_545 S
C2951 C2948 1.511 . S
C2951 H2965 0.961 . S
C2951 H2966 0.961 . S
C2951 H2967 0.961 . S
C2952 C2953 1.370 . S
C2952 C2954 1.363 . S
C2952 H2968 0.931 . S
C2953 C2952 1.370 . S
C2953 C2957 1.408 . S
C2954 C2952 1.363 . S
C2954 C2955 1.370 . S
C2954 C2958 1.573 . S
C2955 C2947 1.503 1_546 S
C2955 C2954 1.370 . S
C2955 C2956 1.403 1_556 S
C2956 C2955 1.403 1_554 S
C2956 C2957 1.404 1_554 S
C2956 C2959 1.539 . S
C2957 C2953 1.408 . S
C2957 C2956 1.404 1_556 S
C2957 H2969 0.930 1_556 S
C2958 C2954 1.573 . S
C2958 H2970 0.938 1_545 S
C2958 H2971 0.906 1_545 S
C2958 H2972 0.991 . S
C2959 C2956 1.539 . S
C2959 H2973 0.958 . S
C2959 H2974 0.961 . S
C2959 H2975 0.960 . S
H2960 C2944 0.931 . S
H2961 C2949 0.929 1_556 S
H2962 C2950 0.973 . S
H2963 C2950 0.963 . S
H2964 C2950 0.956 1_565 S
H2965 C2951 0.961 . S
H2966 C2951 0.961 . S
H2967 C2951 0.961 . S
H2968 C2952 0.931 . S
H2969 C2957 0.930 1_554 S
H2970 C2958 0.938 1_565 S
H2971 C2958 0.906 1_565 S
H2972 C2958 0.991 . S
H2973 C2959 0.958 . S
H2974 C2959 0.961 . S
H2975 C2959 0.960 . S
C2976 C2977 1.391 . S
C2976 C2978 1.394 . S
C2976 H2992 0.931 . S
C2977 C2976 1.391 . S
C2977 C2981 1.376 . S
C2978 C2976 1.394 . S
C2978 C2979 1.369 . S
C2978 C2982 1.531 . S
C2979 C2978 1.369 . S
C2979 C2980 1.410 . S
C2979 C2987 1.503 . S
C2980 C2979 1.410 . S
C2980 C2981 1.392 . S
C2980 C2983 1.511 . S
C2981 C2977 1.376 . S
C2981 C2980 1.392 . S
C2981 H2993 0.929 . S
C2982 C2978 1.531 . S
C2982 H2994 0.960 . S
C2982 H2995 0.962 . S
C2982 H2996 0.960 . S
C2983 C2980 1.511 . S
C2983 H2997 0.961 . S
C2983 H2998 0.961 . S
C2983 H2999 0.961 . S
C2984 C2985 1.370 . S
C2984 C2986 1.363 . S
C2984 H3000 0.931 . S
C2985 C2984 1.370 . S
C2985 C2989 1.408 . S
C2986 C2984 1.363 . S
C2986 C2987 1.370 . S
C2986 C2990 1.524 . S
C2987 C2979 1.503 . S
C2987 C2986 1.370 . S
C2987 C2988 1.403 . S
C2988 C2987 1.403 . S
C2988 C2989 1.404 . S
C2988 C2991 1.539 . S
C2989 C2985 1.408 . S
C2989 C2988 1.404 . S
C2989 H3001 0.930 . S
C2990 C2986 1.524 . S
C2990 H3002 0.956 . S
C2990 H3003 0.961 . S
C2990 H3004 0.961 . S
C2991 C2988 1.539 . S
C2991 H3005 0.958 . S
C2991 H3006 0.961 . S
C2991 H3007 0.960 . S
H2992 C2976 0.931 . S
H2993 C2981 0.929 . S
H2994 C2982 0.960 . S
H2995 C2982 0.962 . S
H2996 C2982 0.960 . S
H2997 C2983 0.961 . S
H2998 C2983 0.961 . S
H2999 C2983 0.961 . S
H3000 C2984 0.931 . S
H3001 C2989 0.930 . S
H3002 C2990 0.956 . S
H3003 C2990 0.961 . S
H3004 C2990 0.961 . S
H3005 C2991 0.958 . S
H3006 C2991 0.961 . S
H3007 C2991 0.960 . S
C3008 C3009 1.391 . S
C3008 C3010 1.394 . S
C3008 H3024 0.931 . S
C3009 C3008 1.391 . S
C3009 C3013 1.376 . S
C3010 C3008 1.394 . S
C3010 C3011 1.369 . S
C3010 C3014 1.531 . S
C3011 C3010 1.369 . S
C3011 C3012 1.410 . S
C3011 C3019 1.503 1_545 S
C3012 C3011 1.410 . S
C3012 C3013 1.392 . S
C3012 C3015 1.573 . S
C3013 C3009 1.376 . S
C3013 C3012 1.392 . S
C3013 H3025 0.929 . S
C3014 C3010 1.531 . S
C3014 H3026 0.960 . S
C3014 H3027 0.962 . S
C3014 H3028 0.960 . S
C3015 C3012 1.573 . S
C3015 H3029 1.011 . S
C3015 H3030 0.895 1_545 S
C3015 H3031 0.926 1_545 S
C3016 C3017 1.370 . S
C3016 C3018 1.363 . S
C3016 H3032 0.931 . S
C3017 C3016 1.370 . S
C3017 C3021 1.408 . S
C3018 C3016 1.363 . S
C3018 C3019 1.370 . S
C3018 C3022 1.502 1_565 S
C3019 C3011 1.503 1_565 S
C3019 C3018 1.370 . S
C3019 C3020 1.403 . S
C3020 C3019 1.403 . S
C3020 C3021 1.404 . S
C3020 C3023 1.539 . S
C3021 C3017 1.408 . S
C3021 C3020 1.404 . S
C3021 H3033 0.930 . S
C3022 C3018 1.502 1_545 S
C3022 H3034 0.977 . S
C3022 H3035 0.976 . S
C3022 H3036 0.948 1_545 S
C3023 C3020 1.539 . S
C3023 H3037 0.958 . S
C3023 H3038 0.961 . S
C3023 H3039 0.960 . S
H3024 C3008 0.931 . S
H3025 C3013 0.929 . S
H3026 C3014 0.960 . S
H3027 C3014 0.962 . S
H3028 C3014 0.960 . S
H3029 C3015 1.011 . S
H3030 C3015 0.895 1_565 S
H3031 C3015 0.926 1_565 S
H3032 C3016 0.931 . S
H3033 C3021 0.930 . S
H3034 C3022 0.977 . S
H3035 C3022 0.976 . S
H3036 C3022 0.948 1_565 S
H3037 C3023 0.958 . S
H3038 C3023 0.961 . S
H3039 C3023 0.960 . S
C3040 C3041 1.391 . S
C3040 C3042 1.394 . S
C3040 H3056 0.931 . S
C3041 C3040 1.391 . S
C3041 C3045 1.376 . S
C3042 C3040 1.394 . S
C3042 C3043 1.369 . S
C3042 C3046 1.531 . S
C3043 C3042 1.369 . S
C3043 C3044 1.410 . S
C3043 C3051 1.503 . S
C3044 C3043 1.410 . S
C3044 C3045 1.392 . S
C3044 C3047 1.511 . S
C3045 C3041 1.376 . S
C3045 C3044 1.392 . S
C3045 H3057 0.929 . S
C3046 C3042 1.531 . S
C3046 H3058 0.960 . S
C3046 H3059 0.962 . S
C3046 H3060 0.960 . S
C3047 C3044 1.511 . S
C3047 H3061 0.961 . S
C3047 H3062 0.961 . S
C3047 H3063 0.961 . S
C3048 C3049 1.370 . S
C3048 C3050 1.363 . S
C3048 H3064 0.931 . S
C3049 C3048 1.370 . S
C3049 C3053 1.408 . S
C3050 C3048 1.363 . S
C3050 C3051 1.370 . S
C3050 C3054 1.524 . S
C3051 C3043 1.503 . S
C3051 C3050 1.370 . S
C3051 C3052 1.403 . S
C3052 C3051 1.403 . S
C3052 C3053 1.404 . S
C3052 C3055 1.539 . S
C3053 C3049 1.408 . S
C3053 C3052 1.404 . S
C3053 H3065 0.930 . S
C3054 C3050 1.524 . S
C3054 H3066 0.956 . S
C3054 H3067 0.961 . S
C3054 H3068 0.961 . S
C3055 C3052 1.539 . S
C3055 H3069 0.958 . S
C3055 H3070 0.961 . S
C3055 H3071 0.960 . S
H3056 C3040 0.931 . S
H3057 C3045 0.929 . S
H3058 C3046 0.960 . S
H3059 C3046 0.962 . S
H3060 C3046 0.960 . S
H3061 C3047 0.961 . S
H3062 C3047 0.961 . S
H3063 C3047 0.961 . S
H3064 C3048 0.931 . S
H3065 C3053 0.930 . S
H3066 C3054 0.956 . S
H3067 C3054 0.961 . S
H3068 C3054 0.961 . S
H3069 C3055 0.958 . S
H3070 C3055 0.961 . S
H3071 C3055 0.960 . S
C3072 C3073 1.391 . S
C3072 C3074 1.394 1_554 S
C3072 H3088 0.931 1_554 S
C3073 C3072 1.391 . S
C3073 C3077 1.376 . S
C3074 C3072 1.394 1_556 S
C3074 C3075 1.369 . S
C3074 C3078 1.531 . S
C3075 C3074 1.369 . S
C3075 C3076 1.410 1_556 S
C3075 C3083 1.503 1_565 S
C3076 C3075 1.410 1_554 S
C3076 C3077 1.392 . S
C3076 C3079 1.511 . S
C3077 C3073 1.376 . S
C3077 C3076 1.392 . S
C3077 H3089 0.929 . S
C3078 C3074 1.531 . S
C3078 H3090 0.960 . S
C3078 H3091 0.962 . S
C3078 H3092 0.960 . S
C3079 C3076 1.511 . S
C3079 H3093 0.961 . S
C3079 H3094 0.961 1_565 S
C3079 H3095 0.961 . S
C3080 C3081 1.373 . S
C3080 C3082 1.362 1_556 S
C3080 H3096 0.929 1_556 S
C3081 C3080 1.373 . S
C3081 C3085 1.408 . S
C3082 C3080 1.362 1_554 S
C3082 C3083 1.370 1_554 S
C3082 C3086 1.524 . S
C3083 C3075 1.503 1_545 S
C3083 C3082 1.370 1_556 S
C3083 C3084 1.403 . S
C3084 C3083 1.403 . S
C3084 C3085 1.404 . S
C3084 C3087 1.539 . S
C3085 C3081 1.408 . S
C3085 C3084 1.404 . S
C3085 H3097 0.930 . S
C3086 C3082 1.524 . S
C3086 H3098 0.956 . S
C3086 H3099 0.961 . S
C3086 H3100 0.961 . S
C3087 C3084 1.539 . S
C3087 H3101 0.958 1_545 S
C3087 H3102 0.961 . S
C3087 H3103 0.960 1_545 S
H3088 C3072 0.931 1_556 S
H3089 C3077 0.929 . S
H3090 C3078 0.960 . S
H3091 C3078 0.962 . S
H3092 C3078 0.960 . S
H3093 C3079 0.961 . S
H3094 C3079 0.961 1_545 S
H3095 C3079 0.961 . S
H3096 C3080 0.929 1_554 S
H3097 C3085 0.930 . S
H3098 C3086 0.956 . S
H3099 C3086 0.961 . S
H3100 C3086 0.961 . S
H3101 C3087 0.958 1_565 S
H3102 C3087 0.961 . S
H3103 C3087 0.960 1_565 S
C3104 C3105 1.391 . S
C3104 C3106 1.394 . S
C3104 H3120 0.931 . S
C3105 C3104 1.391 . S
C3105 C3109 1.376 . S
C3106 C3104 1.394 . S
C3106 C3107 1.369 . S
C3106 C3110 1.531 . S
C3107 C3106 1.369 . S
C3107 C3108 1.410 . S
C3107 C3115 1.503 . S
C3108 C3107 1.410 . S
C3108 C3109 1.392 . S
C3108 C3111 1.511 . S
C3109 C3105 1.376 . S
C3109 C3108 1.392 . S
C3109 H3121 0.929 . S
C3110 C3106 1.531 . S
C3110 H3122 0.960 . S
C3110 H3123 0.962 . S
C3110 H3124 0.960 . S
C3111 C3108 1.511 . S
C3111 H3125 0.961 . S
C3111 H3126 0.961 . S
C3111 H3127 0.961 . S
C3112 C3113 1.370 . S
C3112 C3114 1.363 . S
C3112 H3128 0.931 . S
C3113 C3112 1.370 . S
C3113 C3117 1.408 . S
C3114 C3112 1.363 . S
C3114 C3115 1.370 . S
C3114 C3118 1.524 . S
C3115 C3107 1.503 . S
C3115 C3114 1.370 . S
C3115 C3116 1.403 . S
C3116 C3115 1.403 . S
C3116 C3117 1.404 . S
C3116 C3119 1.539 . S
C3117 C3113 1.408 . S
C3117 C3116 1.404 . S
C3117 H3129 0.930 . S
C3118 C3114 1.524 . S
C3118 H3130 0.956 . S
C3118 H3131 0.961 . S
C3118 H3132 0.961 . S
C3119 C3116 1.539 . S
C3119 H3133 0.958 . S
C3119 H3134 0.961 . S
C3119 H3135 0.960 . S
H3120 C3104 0.931 . S
H3121 C3109 0.929 . S
H3122 C3110 0.960 . S
H3123 C3110 0.962 . S
H3124 C3110 0.960 . S
H3125 C3111 0.961 . S
H3126 C3111 0.961 . S
H3127 C3111 0.961 . S
H3128 C3112 0.931 . S
H3129 C3117 0.930 . S
H3130 C3118 0.956 . S
H3131 C3118 0.961 . S
H3132 C3118 0.961 . S
H3133 C3119 0.958 . S
H3134 C3119 0.961 . S
H3135 C3119 0.960 . S
C3136 C3137 1.391 . S
C3136 C3138 1.394 . S
C3136 H3152 0.931 . S
C3137 C3136 1.391 . S
C3137 C3141 1.376 . S
C3138 C3136 1.394 . S
C3138 C3139 1.369 . S
C3138 C3142 1.531 . S
C3139 C3138 1.369 . S
C3139 C3140 1.410 . S
C3139 C3147 1.503 1_455 S
C3140 C3139 1.410 . S
C3140 C3141 1.392 . S
C3140 C3143 1.511 1_554 S
C3141 C3137 1.376 . S
C3141 C3140 1.392 . S
C3141 H3153 0.929 . S
C3142 C3138 1.531 . S
C3142 H3154 0.960 1_455 S
C3142 H3155 0.962 . S
C3142 H3156 0.960 . S
C3143 C3140 1.511 1_556 S
C3143 H3157 0.961 . S
C3143 H3158 0.961 1_455 S
C3143 H3159 0.961 1_556 S
C3144 C3145 1.370 . S
C3144 C3146 1.363 . S
C3144 H3160 0.931 . S
C3145 C3144 1.370 . S
C3145 C3149 1.408 . S
C3146 C3144 1.363 . S
C3146 C3147 1.370 . S
C3146 C3150 1.524 . S
C3147 C3139 1.503 1_655 S
C3147 C3146 1.370 . S
C3147 C3148 1.403 . S
C3148 C3147 1.403 . S
C3148 C3149 1.404 . S
C3148 C3151 1.539 . S
C3149 C3145 1.408 . S
C3149 C3148 1.404 . S
C3149 H3161 0.930 . S
C3150 C3146 1.524 . S
C3150 H3162 0.981 . S
C3150 H3163 0.920 1_654 S
C3150 H3164 0.958 1_554 S
C3151 C3148 1.539 . S
C3151 H3165 0.958 . S
C3151 H3166 0.961 . S
C3151 H3167 0.966 . S
H3152 C3136 0.931 . S
H3153 C3141 0.929 . S
H3154 C3142 0.960 1_655 S
H3155 C3142 0.962 . S
H3156 C3142 0.960 . S
H3157 C3143 0.961 . S
H3158 C3143 0.961 1_655 S
H3159 C3143 0.961 1_554 S
H3160 C3144 0.931 . S
H3161 C3149 0.930 . S
H3162 C3150 0.981 . S
H3163 C3150 0.920 1_456 S
H3164 C3150 0.958 1_556 S
H3165 C3151 0.958 . S
H3166 C3151 0.961 . S
H3167 C3151 0.966 . S
C3168 C3169 1.391 . S
C3168 C3170 1.394 . S
C3168 H3184 0.931 . S
C3169 C3168 1.391 . S
C3169 C3173 1.376 . S
C3170 C3168 1.394 . S
C3170 C3171 1.369 . S
C3170 C3174 1.531 . S
C3171 C3170 1.369 . S
C3171 C3172 1.410 . S
C3171 C3179 1.503 . S
C3172 C3171 1.410 . S
C3172 C3173 1.392 . S
C3172 C3175 1.511 . S
C3173 C3169 1.376 . S
C3173 C3172 1.392 . S
C3173 H3185 0.929 . S
C3174 C3170 1.531 . S
C3174 H3186 0.960 . S
C3174 H3187 0.962 . S
C3174 H3188 0.960 . S
C3175 C3172 1.511 . S
C3175 H3189 0.961 . S
C3175 H3190 0.961 . S
C3175 H3191 0.961 . S
C3176 C3177 1.370 . S
C3176 C3178 1.363 . S
C3176 H3192 0.931 . S
C3177 C3176 1.370 . S
C3177 C3181 1.408 . S
C3178 C3176 1.363 . S
C3178 C3179 1.370 . S
C3178 C3182 1.524 . S
C3179 C3171 1.503 . S
C3179 C3178 1.370 . S
C3179 C3180 1.403 . S
C3180 C3179 1.403 . S
C3180 C3181 1.404 . S
C3180 C3183 1.539 . S
C3181 C3177 1.408 . S
C3181 C3180 1.404 . S
C3181 H3193 0.930 . S
C3182 C3178 1.524 . S
C3182 H3194 0.956 . S
C3182 H3195 0.961 . S
C3182 H3196 0.961 . S
C3183 C3180 1.539 . S
C3183 H3197 0.958 . S
C3183 H3198 0.961 . S
C3183 H3199 0.960 . S
H3184 C3168 0.931 . S
H3185 C3173 0.929 . S
H3186 C3174 0.960 . S
H3187 C3174 0.962 . S
H3188 C3174 0.960 . S
H3189 C3175 0.961 . S
H3190 C3175 0.961 . S
H3191 C3175 0.961 . S
H3192 C3176 0.931 . S
H3193 C3181 0.930 . S
H3194 C3182 0.956 . S
H3195 C3182 0.961 . S
H3196 C3182 0.961 . S
H3197 C3183 0.958 . S
H3198 C3183 0.961 . S
H3199 C3183 0.960 . S
C3200 C3201 1.391 . S
C3200 C3202 1.394 . S
C3200 H3216 0.931 . S
C3201 C3200 1.391 . S
C3201 C3205 1.376 . S
C3202 C3200 1.394 . S
C3202 C3203 1.369 . S
C3202 C3206 1.531 . S
C3203 C3202 1.369 . S
C3203 C3204 1.410 . S
C3203 C3211 1.503 . S
C3204 C3203 1.410 . S
C3204 C3205 1.392 . S
C3204 C3207 1.511 . S
C3205 C3201 1.376 . S
C3205 C3204 1.392 . S
C3205 H3217 0.929 . S
C3206 C3202 1.531 . S
C3206 H3218 0.960 . S
C3206 H3219 0.962 . S
C3206 H3220 0.960 . S
C3207 C3204 1.511 . S
C3207 H3221 0.961 . S
C3207 H3222 0.961 . S
C3207 H3223 0.961 . S
C3208 C3209 1.370 . S
C3208 C3210 1.363 . S
C3208 H3224 0.931 . S
C3209 C3208 1.370 . S
C3209 C3213 1.408 . S
C3210 C3208 1.363 . S
C3210 C3211 1.370 . S
C3210 C3214 1.524 . S
C3211 C3203 1.503 . S
C3211 C3210 1.370 . S
C3211 C3212 1.403 . S
C3212 C3211 1.403 . S
C3212 C3213 1.404 . S
C3212 C3215 1.539 . S
C3213 C3209 1.408 . S
C3213 C3212 1.404 . S
C3213 H3225 0.930 . S
C3214 C3210 1.524 . S
C3214 H3226 0.956 . S
C3214 H3227 0.961 . S
C3214 H3228 0.961 . S
C3215 C3212 1.539 . S
C3215 H3229 0.958 . S
C3215 H3230 0.961 . S
C3215 H3231 0.960 . S
H3216 C3200 0.931 . S
H3217 C3205 0.929 . S
H3218 C3206 0.960 . S
H3219 C3206 0.962 . S
H3220 C3206 0.960 . S
H3221 C3207 0.961 . S
H3222 C3207 0.961 . S
H3223 C3207 0.961 . S
H3224 C3208 0.931 . S
H3225 C3213 0.930 . S
H3226 C3214 0.956 . S
H3227 C3214 0.961 . S
H3228 C3214 0.961 . S
H3229 C3215 0.958 . S
H3230 C3215 0.961 . S
H3231 C3215 0.960 . S
C3232 C3233 1.391 . S
C3232 C3234 1.394 . S
C3232 H3248 0.931 . S
C3233 C3232 1.391 . S
C3233 C3237 1.376 . S
C3234 C3232 1.394 . S
C3234 C3235 1.369 . S
C3234 C3238 1.531 . S
C3235 C3234 1.369 . S
C3235 C3236 1.410 . S
C3235 C3243 1.503 . S
C3236 C3235 1.410 . S
C3236 C3237 1.392 . S
C3236 C3239 1.511 . S
C3237 C3233 1.376 . S
C3237 C3236 1.392 . S
C3237 H3249 0.929 . S
C3238 C3234 1.531 . S
C3238 H3250 0.960 . S
C3238 H3251 0.962 . S
C3238 H3252 0.960 . S
C3239 C3236 1.511 . S
C3239 H3253 0.961 . S
C3239 H3254 0.961 . S
C3239 H3255 0.961 . S
C3240 C3241 1.370 . S
C3240 C3242 1.363 . S
C3240 H3256 0.931 . S
C3241 C3240 1.370 . S
C3241 C3245 1.408 . S
C3242 C3240 1.363 . S
C3242 C3243 1.370 . S
C3242 C3246 1.524 . S
C3243 C3235 1.503 . S
C3243 C3242 1.370 . S
C3243 C3244 1.403 . S
C3244 C3243 1.403 . S
C3244 C3245 1.404 . S
C3244 C3247 1.539 . S
C3245 C3241 1.408 . S
C3245 C3244 1.404 . S
C3245 H3257 0.930 . S
C3246 C3242 1.524 . S
C3246 H3258 0.956 . S
C3246 H3259 0.961 . S
C3246 H3260 0.961 . S
C3247 C3244 1.539 . S
C3247 H3261 0.958 1_556 S
C3247 H3262 0.961 1_556 S
C3247 H3263 0.960 . S
H3248 C3232 0.931 . S
H3249 C3237 0.929 . S
H3250 C3238 0.960 . S
H3251 C3238 0.962 . S
H3252 C3238 0.960 . S
H3253 C3239 0.961 . S
H3254 C3239 0.961 . S
H3255 C3239 0.961 . S
H3256 C3240 0.931 . S
H3257 C3245 0.930 . S
H3258 C3246 0.956 . S
H3259 C3246 0.961 . S
H3260 C3246 0.961 . S
H3261 C3247 0.958 1_554 S
H3262 C3247 0.961 1_554 S
H3263 C3247 0.960 . S
C3264 C3265 1.391 . S
C3264 C3266 1.394 . S
C3264 H3280 0.931 . S
C3265 C3264 1.391 . S
C3265 C3269 1.376 . S
C3266 C3264 1.394 . S
C3266 C3267 1.369 . S
C3266 C3270 1.531 . S
C3267 C3266 1.369 . S
C3267 C3268 1.410 . S
C3267 C3275 1.503 1_655 S
C3268 C3267 1.410 . S
C3268 C3269 1.392 . S
C3268 C3271 1.511 . S
C3269 C3265 1.376 . S
C3269 C3268 1.392 . S
C3269 H3281 0.929 . S
C3270 C3266 1.531 . S
C3270 H3282 0.960 1_655 S
C3270 H3283 0.962 . S
C3270 H3284 0.960 . S
C3271 C3268 1.511 . S
C3271 H3285 0.961 . S
C3271 H3286 0.961 1_655 S
C3271 H3287 0.961 . S
C3272 C3273 1.370 . S
C3272 C3274 1.363 . S
C3272 H3288 0.931 1_556 S
C3273 C3272 1.370 . S
C3273 C3277 1.408 . S
C3274 C3272 1.363 . S
C3274 C3275 1.370 . S
C3274 C3278 1.524 1_556 S
C3275 C3267 1.503 1_455 S
C3275 C3274 1.370 . S
C3275 C3276 1.403 . S
C3276 C3275 1.403 . S
C3276 C3277 1.404 . S
C3276 C3279 1.539 . S
C3277 C3273 1.408 . S
C3277 C3276 1.404 . S
C3277 H3289 0.930 . S
C3278 C3274 1.524 1_554 S
C3278 H3290 0.981 . S
C3278 H3291 0.920 1_455 S
C3278 H3292 0.961 . S
C3279 C3276 1.539 . S
C3279 H3293 0.958 . S
C3279 H3294 0.961 . S
C3279 H3295 0.966 . S
H3280 C3264 0.931 . S
H3281 C3269 0.929 . S
H3282 C3270 0.960 1_455 S
H3283 C3270 0.962 . S
H3284 C3270 0.960 . S
H3285 C3271 0.961 . S
H3286 C3271 0.961 1_455 S
H3287 C3271 0.961 . S
H3288 C3272 0.931 1_554 S
H3289 C3277 0.930 . S
H3290 C3278 0.981 . S
H3291 C3278 0.920 1_655 S
H3292 C3278 0.961 . S
H3293 C3279 0.958 . S
H3294 C3279 0.961 . S
H3295 C3279 0.966 . S
C3296 C3297 1.391 . S
C3296 C3298 1.394 . S
C3296 H3312 0.931 . S
C3297 C3296 1.391 . S
C3297 C3301 1.376 . S
C3298 C3296 1.394 . S
C3298 C3299 1.369 . S
C3298 C3302 1.531 . S
C3299 C3298 1.369 . S
C3299 C3300 1.410 . S
C3299 C3307 1.503 . S
C3300 C3299 1.410 . S
C3300 C3301 1.392 . S
C3300 C3303 1.511 . S
C3301 C3297 1.376 . S
C3301 C3300 1.392 . S
C3301 H3313 0.929 . S
C3302 C3298 1.531 . S
C3302 H3314 0.960 . S
C3302 H3315 0.962 . S
C3302 H3316 0.960 . S
C3303 C3300 1.511 . S
C3303 H3317 0.961 . S
C3303 H3318 0.961 . S
C3303 H3319 0.961 . S
C3304 C3305 1.370 . S
C3304 C3306 1.363 . S
C3304 H3320 0.931 . S
C3305 C3304 1.370 . S
C3305 C3309 1.408 . S
C3306 C3304 1.363 . S
C3306 C3307 1.370 . S
C3306 C3310 1.524 . S
C3307 C3299 1.503 . S
C3307 C3306 1.370 . S
C3307 C3308 1.403 . S
C3308 C3307 1.403 . S
C3308 C3309 1.404 . S
C3308 C3311 1.539 . S
C3309 C3305 1.408 . S
C3309 C3308 1.404 . S
C3309 H3321 0.930 . S
C3310 C3306 1.524 . S
C3310 H3322 0.956 . S
C3310 H3323 0.961 . S
C3310 H3324 0.961 . S
C3311 C3308 1.539 . S
C3311 H3325 0.958 . S
C3311 H3326 0.961 . S
C3311 H3327 0.960 . S
H3312 C3296 0.931 . S
H3313 C3301 0.929 . S
H3314 C3302 0.960 . S
H3315 C3302 0.962 . S
H3316 C3302 0.960 . S
H3317 C3303 0.961 . S
H3318 C3303 0.961 . S
H3319 C3303 0.961 . S
H3320 C3304 0.931 . S
H3321 C3309 0.930 . S
H3322 C3310 0.956 . S
H3323 C3310 0.961 . S
H3324 C3310 0.961 . S
H3325 C3311 0.958 . S
H3326 C3311 0.961 . S
H3327 C3311 0.960 . S
C3328 C3329 1.391 . S
C3328 C3330 1.394 . S
C3328 H3344 0.931 . S
C3329 C3328 1.391 . S
C3329 C3333 1.376 . S
C3330 C3328 1.394 . S
C3330 C3331 1.369 . S
C3330 C3334 1.531 . S
C3331 C3330 1.369 . S
C3331 C3332 1.410 . S
C3331 C3339 1.503 . S
C3332 C3331 1.410 . S
C3332 C3333 1.392 . S
C3332 C3335 1.511 . S
C3333 C3329 1.376 . S
C3333 C3332 1.392 . S
C3333 H3345 0.929 . S
C3334 C3330 1.531 . S
C3334 H3346 0.960 . S
C3334 H3347 0.962 . S
C3334 H3348 0.960 . S
C3335 C3332 1.511 . S
C3335 H3349 0.961 . S
C3335 H3350 0.961 . S
C3335 H3351 0.961 . S
C3336 C3337 1.370 . S
C3336 C3338 1.363 . S
C3336 H3352 0.931 . S
C3337 C3336 1.370 . S
C3337 C3341 1.408 . S
C3338 C3336 1.363 . S
C3338 C3339 1.370 . S
C3338 C3342 1.524 . S
C3339 C3331 1.503 . S
C3339 C3338 1.370 . S
C3339 C3340 1.403 . S
C3340 C3339 1.403 . S
C3340 C3341 1.404 . S
C3340 C3343 1.539 . S
C3341 C3337 1.408 . S
C3341 C3340 1.404 . S
C3341 H3353 0.930 . S
C3342 C3338 1.524 . S
C3342 H3354 0.956 . S
C3342 H3355 0.961 . S
C3342 H3356 0.961 . S
C3343 C3340 1.539 . S
C3343 H3357 0.958 . S
C3343 H3358 0.961 . S
C3343 H3359 0.960 . S
H3344 C3328 0.931 . S
H3345 C3333 0.929 . S
H3346 C3334 0.960 . S
H3347 C3334 0.962 . S
H3348 C3334 0.960 . S
H3349 C3335 0.961 . S
H3350 C3335 0.961 . S
H3351 C3335 0.961 . S
H3352 C3336 0.931 . S
H3353 C3341 0.930 . S
H3354 C3342 0.956 . S
H3355 C3342 0.961 . S
H3356 C3342 0.961 . S
H3357 C3343 0.958 . S
H3358 C3343 0.961 . S
H3359 C3343 0.960 . S
C3360 C3361 1.391 . S
C3360 C3362 1.394 . S
C3360 H3376 0.931 . S
C3361 C3360 1.391 . S
C3361 C3365 1.376 . S
C3362 C3360 1.394 . S
C3362 C3363 1.369 . S
C3362 C3366 1.531 . S
C3363 C3362 1.369 . S
C3363 C3364 1.410 . S
C3363 C3371 1.503 . S
C3364 C3363 1.410 . S
C3364 C3365 1.392 . S
C3364 C3367 1.511 . S
C3365 C3361 1.376 . S
C3365 C3364 1.392 . S
C3365 H3377 0.929 . S
C3366 C3362 1.531 . S
C3366 H3378 0.960 . S
C3366 H3379 0.962 . S
C3366 H3380 0.960 . S
C3367 C3364 1.511 . S
C3367 H3381 0.961 . S
C3367 H3382 0.961 . S
C3367 H3383 0.961 . S
C3368 C3369 1.370 . S
C3368 C3370 1.363 . S
C3368 H3384 0.931 . S
C3369 C3368 1.370 . S
C3369 C3373 1.408 . S
C3370 C3368 1.363 . S
C3370 C3371 1.370 . S
C3370 C3374 1.524 . S
C3371 C3363 1.503 . S
C3371 C3370 1.370 . S
C3371 C3372 1.403 . S
C3372 C3371 1.403 . S
C3372 C3373 1.404 . S
C3372 C3375 1.539 . S
C3373 C3369 1.408 . S
C3373 C3372 1.404 . S
C3373 H3385 0.930 . S
C3374 C3370 1.524 . S
C3374 H3386 0.956 . S
C3374 H3387 0.961 . S
C3374 H3388 0.961 . S
C3375 C3372 1.539 . S
C3375 H3389 0.958 . S
C3375 H3390 0.961 . S
C3375 H3391 0.960 . S
H3376 C3360 0.931 . S
H3377 C3365 0.929 . S
H3378 C3366 0.960 . S
H3379 C3366 0.962 . S
H3380 C3366 0.960 . S
H3381 C3367 0.961 . S
H3382 C3367 0.961 . S
H3383 C3367 0.961 . S
H3384 C3368 0.931 . S
H3385 C3373 0.930 . S
H3386 C3374 0.956 . S
H3387 C3374 0.961 . S
H3388 C3374 0.961 . S
H3389 C3375 0.958 . S
H3390 C3375 0.961 . S
H3391 C3375 0.960 . S
C3392 C3393 1.391 . S
C3392 C3394 1.394 . S
C3392 H3408 0.931 . S
C3393 C3392 1.391 . S
C3393 C3397 1.376 . S
C3394 C3392 1.394 . S
C3394 C3395 1.369 . S
C3394 C3398 1.531 . S
C3395 C3394 1.369 . S
C3395 C3396 1.410 . S
C3395 C3403 1.503 . S
C3396 C3395 1.410 . S
C3396 C3397 1.392 . S
C3396 C3399 1.511 . S
C3397 C3393 1.376 . S
C3397 C3396 1.392 . S
C3397 H3409 0.929 . S
C3398 C3394 1.531 . S
C3398 H3410 0.960 . S
C3398 H3411 0.962 . S
C3398 H3412 0.960 . S
C3399 C3396 1.511 . S
C3399 H3413 0.961 . S
C3399 H3414 0.961 . S
C3399 H3415 0.961 . S
C3400 C3401 1.370 . S
C3400 C3402 1.363 . S
C3400 H3416 0.931 . S
C3401 C3400 1.370 . S
C3401 C3405 1.408 . S
C3402 C3400 1.363 . S
C3402 C3403 1.370 . S
C3402 C3406 1.524 . S
C3403 C3395 1.503 . S
C3403 C3402 1.370 . S
C3403 C3404 1.403 . S
C3404 C3403 1.403 . S
C3404 C3405 1.404 . S
C3404 C3407 1.539 . S
C3405 C3401 1.408 . S
C3405 C3404 1.404 . S
C3405 H3417 0.930 . S
C3406 C3402 1.524 . S
C3406 H3418 0.956 . S
C3406 H3419 0.961 . S
C3406 H3420 0.961 . S
C3407 C3404 1.539 . S
C3407 H3421 0.958 . S
C3407 H3422 0.961 . S
C3407 H3423 0.960 . S
H3408 C3392 0.931 . S
H3409 C3397 0.929 . S
H3410 C3398 0.960 . S
H3411 C3398 0.962 . S
H3412 C3398 0.960 . S
H3413 C3399 0.961 . S
H3414 C3399 0.961 . S
H3415 C3399 0.961 . S
H3416 C3400 0.931 . S
H3417 C3405 0.930 . S
H3418 C3406 0.956 . S
H3419 C3406 0.961 . S
H3420 C3406 0.961 . S
H3421 C3407 0.958 . S
H3422 C3407 0.961 . S
H3423 C3407 0.960 . S
C3424 C3425 1.391 . S
C3424 C3426 1.394 . S
C3424 H3440 0.931 . S
C3425 C3424 1.391 . S
C3425 C3429 1.376 . S
C3426 C3424 1.394 . S
C3426 C3427 1.369 . S
C3426 C3430 1.531 . S
C3427 C3426 1.369 . S
C3427 C3428 1.410 . S
C3427 C3435 1.503 . S
C3428 C3427 1.410 . S
C3428 C3429 1.392 . S
C3428 C3431 1.511 . S
C3429 C3425 1.376 . S
C3429 C3428 1.392 . S
C3429 H3441 0.929 . S
C3430 C3426 1.531 . S
C3430 H3442 0.960 . S
C3430 H3443 0.962 . S
C3430 H3444 0.960 . S
C3431 C3428 1.511 . S
C3431 H3445 0.961 . S
C3431 H3446 0.961 . S
C3431 H3447 0.961 . S
C3432 C3433 1.370 . S
C3432 C3434 1.363 . S
C3432 H3448 0.931 . S
C3433 C3432 1.370 . S
C3433 C3437 1.408 . S
C3434 C3432 1.363 . S
C3434 C3435 1.370 . S
C3434 C3438 1.524 . S
C3435 C3427 1.503 . S
C3435 C3434 1.370 . S
C3435 C3436 1.403 . S
C3436 C3435 1.403 . S
C3436 C3437 1.404 . S
C3436 C3439 1.539 . S
C3437 C3433 1.408 . S
C3437 C3436 1.404 . S
C3437 H3449 0.930 . S
C3438 C3434 1.524 . S
C3438 H3450 0.956 . S
C3438 H3451 0.961 . S
C3438 H3452 0.961 . S
C3439 C3436 1.539 . S
C3439 H3453 0.958 . S
C3439 H3454 0.961 . S
C3439 H3455 0.960 . S
H3440 C3424 0.931 . S
H3441 C3429 0.929 . S
H3442 C3430 0.960 . S
H3443 C3430 0.962 . S
H3444 C3430 0.960 . S
H3445 C3431 0.961 . S
H3446 C3431 0.961 . S
H3447 C3431 0.961 . S
H3448 C3432 0.931 . S
H3449 C3437 0.930 . S
H3450 C3438 0.956 . S
H3451 C3438 0.961 . S
H3452 C3438 0.961 . S
H3453 C3439 0.958 . S
H3454 C3439 0.961 . S
H3455 C3439 0.960 . S
C3456 C3457 1.391 . S
C3456 C3458 1.394 . S
C3456 H3472 0.931 . S
C3457 C3456 1.391 . S
C3457 C3461 1.376 . S
C3458 C3456 1.394 . S
C3458 C3459 1.369 . S
C3458 C3462 1.531 . S
C3459 C3458 1.369 . S
C3459 C3460 1.410 . S
C3459 C3467 1.503 . S
C3460 C3459 1.410 . S
C3460 C3461 1.392 . S
C3460 C3463 1.511 . S
C3461 C3457 1.376 . S
C3461 C3460 1.392 . S
C3461 H3473 0.929 . S
C3462 C3458 1.531 . S
C3462 H3474 0.960 . S
C3462 H3475 0.962 . S
C3462 H3476 0.960 . S
C3463 C3460 1.511 . S
C3463 H3477 0.961 . S
C3463 H3478 0.961 . S
C3463 H3479 0.961 . S
C3464 C3465 1.370 . S
C3464 C3466 1.363 . S
C3464 H3480 0.931 . S
C3465 C3464 1.370 . S
C3465 C3469 1.408 . S
C3466 C3464 1.363 . S
C3466 C3467 1.370 . S
C3466 C3470 1.524 . S
C3467 C3459 1.503 . S
C3467 C3466 1.370 . S
C3467 C3468 1.403 . S
C3468 C3467 1.403 . S
C3468 C3469 1.404 . S
C3468 C3471 1.539 . S
C3469 C3465 1.408 . S
C3469 C3468 1.404 . S
C3469 H3481 0.930 . S
C3470 C3466 1.524 . S
C3470 H3482 0.956 . S
C3470 H3483 0.961 . S
C3470 H3484 0.961 . S
C3471 C3468 1.539 . S
C3471 H3485 0.958 . S
C3471 H3486 0.961 . S
C3471 H3487 0.960 . S
H3472 C3456 0.931 . S
H3473 C3461 0.929 . S
H3474 C3462 0.960 . S
H3475 C3462 0.962 . S
H3476 C3462 0.960 . S
H3477 C3463 0.961 . S
H3478 C3463 0.961 . S
H3479 C3463 0.961 . S
H3480 C3464 0.931 . S
H3481 C3469 0.930 . S
H3482 C3470 0.956 . S
H3483 C3470 0.961 . S
H3484 C3470 0.961 . S
H3485 C3471 0.958 . S
H3486 C3471 0.961 . S
H3487 C3471 0.960 . S
C3488 C3489 1.391 . S
C3488 C3490 1.394 . S
C3488 H3504 0.931 . S
C3489 C3488 1.391 . S
C3489 C3493 1.376 . S
C3490 C3488 1.394 . S
C3490 C3491 1.369 . S
C3490 C3494 1.531 . S
C3491 C3490 1.369 . S
C3491 C3492 1.410 . S
C3491 C3499 1.503 . S
C3492 C3491 1.410 . S
C3492 C3493 1.392 . S
C3492 C3495 1.511 . S
C3493 C3489 1.376 . S
C3493 C3492 1.392 . S
C3493 H3505 0.929 . S
C3494 C3490 1.531 . S
C3494 H3506 0.960 . S
C3494 H3507 0.962 . S
C3494 H3508 0.960 . S
C3495 C3492 1.511 . S
C3495 H3509 0.961 . S
C3495 H3510 0.961 . S
C3495 H3511 0.961 . S
C3496 C3497 1.370 . S
C3496 C3498 1.363 . S
C3496 H3512 0.931 . S
C3497 C3496 1.370 . S
C3497 C3501 1.408 . S
C3498 C3496 1.363 . S
C3498 C3499 1.370 . S
C3498 C3502 1.524 . S
C3499 C3491 1.503 . S
C3499 C3498 1.370 . S
C3499 C3500 1.403 . S
C3500 C3499 1.403 . S
C3500 C3501 1.404 . S
C3500 C3503 1.539 . S
C3501 C3497 1.408 . S
C3501 C3500 1.404 . S
C3501 H3513 0.930 . S
C3502 C3498 1.524 . S
C3502 H3514 0.956 . S
C3502 H3515 0.961 . S
C3502 H3516 0.961 . S
C3503 C3500 1.539 . S
C3503 H3517 0.958 . S
C3503 H3518 0.961 . S
C3503 H3519 0.960 . S
H3504 C3488 0.931 . S
H3505 C3493 0.929 . S
H3506 C3494 0.960 . S
H3507 C3494 0.962 . S
H3508 C3494 0.960 . S
H3509 C3495 0.961 . S
H3510 C3495 0.961 . S
H3511 C3495 0.961 . S
H3512 C3496 0.931 . S
H3513 C3501 0.930 . S
H3514 C3502 0.956 . S
H3515 C3502 0.961 . S
H3516 C3502 0.961 . S
H3517 C3503 0.958 . S
H3518 C3503 0.961 . S
H3519 C3503 0.960 . S
C3520 C3521 1.391 . S
C3520 C3522 1.394 . S
C3520 H3536 0.931 . S
C3521 C3520 1.391 . S
C3521 C3525 1.376 . S
C3522 C3520 1.394 . S
C3522 C3523 1.369 . S
C3522 C3526 1.531 . S
C3523 C3522 1.369 . S
C3523 C3524 1.410 . S
C3523 C3531 1.503 . S
C3524 C3523 1.410 . S
C3524 C3525 1.392 . S
C3524 C3527 1.511 . S
C3525 C3521 1.376 . S
C3525 C3524 1.392 . S
C3525 H3537 0.929 . S
C3526 C3522 1.531 . S
C3526 H3538 0.960 . S
C3526 H3539 0.962 . S
C3526 H3540 0.960 . S
C3527 C3524 1.511 . S
C3527 H3541 0.961 . S
C3527 H3542 0.961 . S
C3527 H3543 0.961 . S
C3528 C3529 1.370 . S
C3528 C3530 1.363 . S
C3528 H3544 0.931 . S
C3529 C3528 1.370 . S
C3529 C3533 1.408 . S
C3530 C3528 1.363 . S
C3530 C3531 1.370 . S
C3530 C3534 1.524 . S
C3531 C3523 1.503 . S
C3531 C3530 1.370 . S
C3531 C3532 1.403 . S
C3532 C3531 1.403 . S
C3532 C3533 1.404 . S
C3532 C3535 1.539 . S
C3533 C3529 1.408 . S
C3533 C3532 1.404 . S
C3533 H3545 0.930 . S
C3534 C3530 1.524 . S
C3534 H3546 0.956 . S
C3534 H3547 0.961 . S
C3534 H3548 0.961 . S
C3535 C3532 1.539 . S
C3535 H3549 0.958 . S
C3535 H3550 0.961 . S
C3535 H3551 0.960 . S
H3536 C3520 0.931 . S
H3537 C3525 0.929 . S
H3538 C3526 0.960 . S
H3539 C3526 0.962 . S
H3540 C3526 0.960 . S
H3541 C3527 0.961 . S
H3542 C3527 0.961 . S
H3543 C3527 0.961 . S
H3544 C3528 0.931 . S
H3545 C3533 0.930 . S
H3546 C3534 0.956 . S
H3547 C3534 0.961 . S
H3548 C3534 0.961 . S
H3549 C3535 0.958 . S
H3550 C3535 0.961 . S
H3551 C3535 0.960 . S
C3552 C3553 1.391 . S
C3552 C3554 1.394 . S
C3552 H3568 0.931 . S
C3553 C3552 1.391 . S
C3553 C3557 1.376 . S
C3554 C3552 1.394 . S
C3554 C3555 1.369 . S
C3554 C3558 1.531 . S
C3555 C3554 1.369 . S
C3555 C3556 1.410 . S
C3555 C3563 1.503 1_455 S
C3556 C3555 1.410 . S
C3556 C3557 1.392 . S
C3556 C3559 1.511 . S
C3557 C3553 1.376 . S
C3557 C3556 1.392 . S
C3557 H3569 0.929 . S
C3558 C3554 1.531 . S
C3558 H3570 0.960 1_455 S
C3558 H3571 0.962 . S
C3558 H3572 0.960 . S
C3559 C3556 1.511 . S
C3559 H3573 0.961 . S
C3559 H3574 0.961 1_455 S
C3559 H3575 0.961 . S
C3560 C3561 1.370 . S
C3560 C3562 1.363 . S
C3560 H3576 0.931 . S
C3561 C3560 1.370 . S
C3561 C3565 1.408 . S
C3562 C3560 1.363 . S
C3562 C3563 1.370 . S
C3562 C3566 1.524 1_554 S
C3563 C3555 1.503 1_655 S
C3563 C3562 1.370 . S
C3563 C3564 1.403 . S
C3564 C3563 1.403 . S
C3564 C3565 1.404 . S
C3564 C3567 1.539 . S
C3565 C3561 1.408 . S
C3565 C3564 1.404 . S
C3565 H3577 0.930 . S
C3566 C3562 1.524 1_556 S
C3566 H3578 0.981 1_556 S
C3566 H3579 0.920 1_655 S
C3566 H3580 0.961 . S
C3567 C3564 1.539 . S
C3567 H3581 0.958 . S
C3567 H3582 0.961 . S
C3567 H3583 0.966 . S
H3568 C3552 0.931 . S
H3569 C3557 0.929 . S
H3570 C3558 0.960 1_655 S
H3571 C3558 0.962 . S
H3572 C3558 0.960 . S
H3573 C3559 0.961 . S
H3574 C3559 0.961 1_655 S
H3575 C3559 0.961 . S
H3576 C3560 0.931 . S
H3577 C3565 0.930 . S
H3578 C3566 0.981 1_554 S
H3579 C3566 0.920 1_455 S
H3580 C3566 0.961 . S
H3581 C3567 0.958 . S
H3582 C3567 0.961 . S
H3583 C3567 0.966 . S
C3584 C3585 1.391 . S
C3584 C3586 1.394 . S
C3584 H3600 0.931 . S
C3585 C3584 1.391 . S
C3585 C3589 1.376 . S
C3586 C3584 1.394 . S
C3586 C3587 1.369 . S
C3586 C3590 1.531 . S
C3587 C3586 1.369 . S
C3587 C3588 1.410 . S
C3587 C3595 1.503 . S
C3588 C3587 1.410 . S
C3588 C3589 1.392 . S
C3588 C3591 1.511 . S
C3589 C3585 1.376 . S
C3589 C3588 1.392 . S
C3589 H3601 0.929 . S
C3590 C3586 1.531 . S
C3590 H3602 0.960 . S
C3590 H3603 0.962 . S
C3590 H3604 0.960 . S
C3591 C3588 1.511 . S
C3591 H3605 0.961 . S
C3591 H3606 0.961 . S
C3591 H3607 0.961 . S
C3592 C3593 1.370 . S
C3592 C3594 1.363 . S
C3592 H3608 0.931 . S
C3593 C3592 1.370 . S
C3593 C3597 1.408 . S
C3594 C3592 1.363 . S
C3594 C3595 1.370 . S
C3594 C3598 1.524 . S
C3595 C3587 1.503 . S
C3595 C3594 1.370 . S
C3595 C3596 1.403 . S
C3596 C3595 1.403 . S
C3596 C3597 1.404 . S
C3596 C3599 1.539 . S
C3597 C3593 1.408 . S
C3597 C3596 1.404 . S
C3597 H3609 0.930 . S
C3598 C3594 1.524 . S
C3598 H3610 0.956 . S
C3598 H3611 0.961 . S
C3598 H3612 0.961 . S
C3599 C3596 1.539 . S
C3599 H3613 0.958 . S
C3599 H3614 0.961 . S
C3599 H3615 0.960 . S
H3600 C3584 0.931 . S
H3601 C3589 0.929 . S
H3602 C3590 0.960 . S
H3603 C3590 0.962 . S
H3604 C3590 0.960 . S
H3605 C3591 0.961 . S
H3606 C3591 0.961 . S
H3607 C3591 0.961 . S
H3608 C3592 0.931 . S
H3609 C3597 0.930 . S
H3610 C3598 0.956 . S
H3611 C3598 0.961 . S
H3612 C3598 0.961 . S
H3613 C3599 0.958 . S
H3614 C3599 0.961 . S
H3615 C3599 0.960 . S
C3616 C3617 1.391 . S
C3616 C3618 1.394 . S
C3616 H3632 0.931 1_556 S
C3617 C3616 1.391 . S
C3617 C3621 1.376 . S
C3618 C3616 1.394 . S
C3618 C3619 1.369 . S
C3618 C3622 1.531 1_556 S
C3619 C3618 1.369 . S
C3619 C3620 1.410 . S
C3619 C3627 1.503 1_455 S
C3620 C3619 1.410 . S
C3620 C3621 1.392 . S
C3620 C3623 1.511 . S
C3621 C3617 1.376 . S
C3621 C3620 1.392 . S
C3621 H3633 0.929 . S
C3622 C3618 1.531 1_554 S
C3622 H3634 0.960 1_455 S
C3622 H3635 0.962 . S
C3622 H3636 0.960 . S
C3623 C3620 1.511 . S
C3623 H3637 0.961 . S
C3623 H3638 0.961 1_455 S
C3623 H3639 0.961 . S
C3624 C3625 1.370 . S
C3624 C3626 1.363 . S
C3624 H3640 0.931 . S
C3625 C3624 1.370 . S
C3625 C3629 1.408 . S
C3626 C3624 1.363 . S
C3626 C3627 1.370 . S
C3626 C3630 1.524 . S
C3627 C3619 1.503 1_655 S
C3627 C3626 1.370 . S
C3627 C3628 1.403 . S
C3628 C3627 1.403 . S
C3628 C3629 1.404 . S
C3628 C3631 1.539 . S
C3629 C3625 1.408 . S
C3629 C3628 1.404 . S
C3629 H3641 0.930 . S
C3630 C3626 1.524 . S
C3630 H3642 0.981 . S
C3630 H3643 0.920 1_655 S
C3630 H3644 0.961 . S
C3631 C3628 1.539 . S
C3631 H3645 0.958 . S
C3631 H3646 0.961 . S
C3631 H3647 0.966 . S
H3632 C3616 0.931 1_554 S
H3633 C3621 0.929 . S
H3634 C3622 0.960 1_655 S
H3635 C3622 0.962 . S
H3636 C3622 0.960 . S
H3637 C3623 0.961 . S
H3638 C3623 0.961 1_655 S
H3639 C3623 0.961 . S
H3640 C3624 0.931 . S
H3641 C3629 0.930 . S
H3642 C3630 0.981 . S
H3643 C3630 0.920 1_455 S
H3644 C3630 0.961 . S
H3645 C3631 0.958 . S
H3646 C3631 0.961 . S
H3647 C3631 0.966 . S
C1089 C5 1.433 . S
C1097 C9 1.379 . S
C1121 C43 1.376 . S
C1129 C39 1.440 . S
C1153 C77 1.411 . S
C1161 C73 1.437 . S
C1185 C111 1.411 . S
C1193 C107 1.437 . S
C1217 C145 1.409 . S
C1225 C141 1.437 . S
C1249 C179 1.381 . S
C1257 C175 1.438 . S
C1281 C209 1.434 . S
C1289 C213 1.375 . S
C1313 C243 1.431 . S
C1321 C247 1.394 . S
C1345 C277 1.438 . S
C1353 C281 1.364 . S
C1377 C311 1.438 . S
C1385 C315 1.379 . S
C1409 C345 1.436 . S
C1417 C349 1.365 . S
C1441 C383 1.404 . S
C1449 C379 1.437 . S
C1473 C413 1.439 . S
C1481 C417 1.366 . S
C1505 C447 1.439 . S
C1513 C451 1.376 . S
C1537 C485 1.373 . S
C1545 C481 1.437 . S
C1569 C515 1.438 . S
C1577 C519 1.377 . S
C1601 C553 1.341 . S
C1609 C549 1.440 . S
C1633 C587 1.395 . S
C1641 C583 1.439 . S
C1665 C621 1.345 . S
C1673 C617 1.440 . S
C1697 C655 1.381 . S
C1705 C651 1.438 . S
C1729 C689 1.411 . S
C1737 C685 1.437 . S
C1761 C723 1.377 . S
C1769 C719 1.438 . S
C1793 C757 1.410 . S
C1801 C753 1.437 . S
C1825 C787 1.432 . S
C1833 C791 1.393 . S
C1857 C825 1.387 . S
C1865 C821 1.437 . S
C1889 C859 1.401 . S
C1897 C855 1.437 . S
C1921 C893 1.405 . S
C1929 C889 1.437 . S
C1953 C923 1.431 . S
C1961 C927 1.384 . S
C1985 C957 1.431 . S
C1993 C961 1.392 . S
C2017 C991 1.439 . S
C2025 C995 1.372 . S
C2049 C1029 1.379 . S
C2057 C1025 1.440 . S
C2081 C1059 1.435 . S
C2089 C1063 1.368 . S
C2113 C802 1.502 . S
C2121 C20 1.498 . S
C2145 C700 1.483 . S
C2153 C54 1.492 . S
C2177 C734 1.494 . S
C2185 C88 1.492 . S
C2209 C768 1.479 . S
C2217 C122 1.491 . S
C2241 C598 1.485 . S
C2249 C156 1.488 . S
C2273 C632 1.499 . S
C2281 C190 1.494 . S
C2305 C666 1.481 . S
C2313 C224 1.487 . S
C2337 C564 1.480 . S
C2345 C258 1.487 . S
C2369 C1074 1.485 . S
C2377 C292 1.492 . S
C2401 C972 1.492 . S
C2409 C326 1.493 . S
C2433 C360 1.487 . S
C2441 C1006 1.490 . S
C2465 C394 1.493 . S
C2473 C1040 1.493 . S
C2497 C428 1.479 . S
C2505 C870 1.488 . S
C2529 C462 1.475 . S
C2537 C904 1.487 . S
C2561 C496 1.491 . S
C2569 C938 1.492 . S
C2593 C836 1.482 . S
C2601 C530 1.491 . S
C2625 C169 1.197 . S
C2633 C33 1.208 . S
C2657 C67 1.224 . S
C2665 C203 1.217 . S
C2689 C237 1.214 . S
C2697 C101 1.208 . S
C2721 C135 1.221 . S
C2729 C271 1.218 . S
C2753 C305 1.220 . S
C2761 C441 1.212 . S
C2785 C475 1.207 . S
C2793 C339 1.208 . S
C2817 C509 1.218 . S
C2825 C373 1.219 . S
C2849 C543 1.224 . S
C2857 C407 1.216 . S
C2881 C713 1.207 . S
C2889 C577 1.218 . S
C2913 C611 1.224 . S
C2921 C747 1.214 . S
C2945 C645 1.204 . S
C2953 C781 1.207 . S
C2977 C679 1.222 . S
C2985 C815 1.212 . S
C3009 C985 1.208 . S
C3017 C849 1.208 . S
C3041 C1019 1.196 . S
C3049 C883 1.210 . S
C3073 C1053 1.197 . S
C3081 C917 1.211 . S
C3105 C951 1.224 . S
C3113 C1087 1.217 . S
C3137 C2 1.704 . S
C3145 C410 1.707 . S
C3169 C988 1.700 . S
C3177 C36 1.706 . S
C3201 C70 1.700 . S
C3209 C478 1.705 . S
C3233 C1056 1.706 . S
C3241 C104 1.708 . S
C3265 C274 1.706 . S
C3273 C138 1.708 . S
C3297 C172 1.699 . S
C3305 C852 1.706 . S
C3329 C206 1.699 . S
C3337 C342 1.705 . S
C3361 C240 1.705 . S
C3369 C920 1.708 . S
C3393 C716 1.706 . S
C3401 C308 1.708 . S
C3425 C784 1.698 . S
C3433 C376 1.705 . S
C3457 C580 1.701 . S
C3465 C444 1.706 . S
C3489 C648 1.706 . S
C3497 C512 1.708 . S
C3521 C546 1.705 . S
C3529 C954 1.707 . S
C3553 C1022 1.706 . S
C3561 C614 1.708 . S
C3585 C682 1.705 . S
C3593 C818 1.708 . S
C3617 C886 1.703 . S
C3625 C750 1.707 . S
