# Generated by pormake.
# Topology bcu-j, (5)-cn, num edge types: 1
# Building blocks:
#     Node 0, Type 0, BuildingBlock: XOMCOT_clean_sbu_0, # of connection points: 5
#     Node 1, Type 0, BuildingBlock: XOMCOT_clean_sbu_0, # of connection points: 5
#     Node 2, Type 0, BuildingBlock: XOMCOT_clean_sbu_0, # of connection points: 5
#     Node 3, Type 0, BuildingBlock: XOMCOT_clean_sbu_0, # of connection points: 5
#     Node 4, Type 0, BuildingBlock: XOMCOT_clean_sbu_0, # of connection points: 5
#     Node 5, Type 0, BuildingBlock: XOMCOT_clean_sbu_0, # of connection points: 5
#     Node 6, Type 0, BuildingBlock: XOMCOT_clean_sbu_0, # of connection points: 5
#     Node 7, Type 0, BuildingBlock: XOMCOT_clean_sbu_0, # of connection points: 5
#     Node 8, Type 0, BuildingBlock: XOMCOT_clean_sbu_0, # of connection points: 5
#     Node 9, Type 0, BuildingBlock: XOMCOT_clean_sbu_0, # of connection points: 5
#     Node 10, Type 0, BuildingBlock: XOMCOT_clean_sbu_0, # of connection points: 5
#     Node 11, Type 0, BuildingBlock: XOMCOT_clean_sbu_0, # of connection points: 5
#     Node 12, Type 0, BuildingBlock: XOMCOT_clean_sbu_0, # of connection points: 5
#     Node 13, Type 0, BuildingBlock: XOMCOT_clean_sbu_0, # of connection points: 5
#     Node 14, Type 0, BuildingBlock: XOMCOT_clean_sbu_0, # of connection points: 5
#     Node 15, Type 0, BuildingBlock: XOMCOT_clean_sbu_0, # of connection points: 5
#     Edge 16, Type (0, 0), BuildingBlock: AJUNOK_clean_linker_0, # of connection points: 2
#     Edge 17, Type (0, 0), BuildingBlock: AJUNOK_clean_linker_0, # of connection points: 2
#     Edge 18, Type (0, 0), BuildingBlock: AJUNOK_clean_linker_0, # of connection points: 2
#     Edge 19, Type (0, 0), BuildingBlock: AJUNOK_clean_linker_0, # of connection points: 2
#     Edge 20, Type (0, 0), BuildingBlock: AJUNOK_clean_linker_0, # of connection points: 2
#     Edge 21, Type (0, 0), BuildingBlock: AJUNOK_clean_linker_0, # of connection points: 2
#     Edge 22, Type (0, 0), BuildingBlock: AJUNOK_clean_linker_0, # of connection points: 2
#     Edge 23, Type (0, 0), BuildingBlock: AJUNOK_clean_linker_0, # of connection points: 2
#     Edge 24, Type (0, 0), BuildingBlock: AJUNOK_clean_linker_0, # of connection points: 2
#     Edge 25, Type (0, 0), BuildingBlock: AJUNOK_clean_linker_0, # of connection points: 2
#     Edge 26, Type (0, 0), BuildingBlock: AJUNOK_clean_linker_0, # of connection points: 2
#     Edge 27, Type (0, 0), BuildingBlock: AJUNOK_clean_linker_0, # of connection points: 2
#     Edge 28, Type (0, 0), BuildingBlock: AJUNOK_clean_linker_0, # of connection points: 2
#     Edge 29, Type (0, 0), BuildingBlock: AJUNOK_clean_linker_0, # of connection points: 2
#     Edge 30, Type (0, 0), BuildingBlock: AJUNOK_clean_linker_0, # of connection points: 2
#     Edge 31, Type (0, 0), BuildingBlock: AJUNOK_clean_linker_0, # of connection points: 2
#     Edge 32, Type (0, 0), BuildingBlock: AJUNOK_clean_linker_0, # of connection points: 2
#     Edge 33, Type (0, 0), BuildingBlock: AJUNOK_clean_linker_0, # of connection points: 2
#     Edge 34, Type (0, 0), BuildingBlock: AJUNOK_clean_linker_0, # of connection points: 2
#     Edge 35, Type (0, 0), BuildingBlock: AJUNOK_clean_linker_0, # of connection points: 2
#     Edge 36, Type (0, 0), BuildingBlock: AJUNOK_clean_linker_0, # of connection points: 2
#     Edge 37, Type (0, 0), BuildingBlock: AJUNOK_clean_linker_0, # of connection points: 2
#     Edge 38, Type (0, 0), BuildingBlock: AJUNOK_clean_linker_0, # of connection points: 2
#     Edge 39, Type (0, 0), BuildingBlock: AJUNOK_clean_linker_0, # of connection points: 2
#     Edge 40, Type (0, 0), BuildingBlock: AJUNOK_clean_linker_0, # of connection points: 2
#     Edge 41, Type (0, 0), BuildingBlock: AJUNOK_clean_linker_0, # of connection points: 2
#     Edge 42, Type (0, 0), BuildingBlock: AJUNOK_clean_linker_0, # of connection points: 2
#     Edge 43, Type (0, 0), BuildingBlock: AJUNOK_clean_linker_0, # of connection points: 2
#     Edge 44, Type (0, 0), BuildingBlock: AJUNOK_clean_linker_0, # of connection points: 2
#     Edge 45, Type (0, 0), BuildingBlock: AJUNOK_clean_linker_0, # of connection points: 2
#     Edge 46, Type (0, 0), BuildingBlock: AJUNOK_clean_linker_0, # of connection points: 2
#     Edge 47, Type (0, 0), BuildingBlock: AJUNOK_clean_linker_0, # of connection points: 2
#     Edge 48, Type (0, 0), BuildingBlock: AJUNOK_clean_linker_0, # of connection points: 2
#     Edge 49, Type (0, 0), BuildingBlock: AJUNOK_clean_linker_0, # of connection points: 2
#     Edge 50, Type (0, 0), BuildingBlock: AJUNOK_clean_linker_0, # of connection points: 2
#     Edge 51, Type (0, 0), BuildingBlock: AJUNOK_clean_linker_0, # of connection points: 2
#     Edge 52, Type (0, 0), BuildingBlock: AJUNOK_clean_linker_0, # of connection points: 2
#     Edge 53, Type (0, 0), BuildingBlock: AJUNOK_clean_linker_0, # of connection points: 2
#     Edge 54, Type (0, 0), BuildingBlock: AJUNOK_clean_linker_0, # of connection points: 2
#     Edge 55, Type (0, 0), BuildingBlock: AJUNOK_clean_linker_0, # of connection points: 2
# Relax obj value: 0.627
# Max RMSD: 0.322
# Mean RMSD: 0.321
data_MOF--net-bcu-j--node1-XOMCOT_clean_sbu_0--edge1-AJUNOK_clean_linker_0
_symmetry_space_group_name_H-M    P1
_symmetry_Int_Tables_number       1
_symmetry_cell_setting            triclinic
loop_
_symmetry_equiv_pos_as_xyz
'x, y, z'
_cell_length_a     31.760063
_cell_length_b     31.843249
_cell_length_c     39.179022
_cell_angle_alpha  89.901052
_cell_angle_beta   89.972348
_cell_angle_gamma 90.089243
loop_
_atom_site_label
_atom_site_type_symbol
_atom_site_fract_x
_atom_site_fract_y
_atom_site_fract_z
_atom_type_partial_charge
Co0 Co 0.06907 0.15129 0.62843 0.0
C1 C 0.13691 0.11303 0.58711 0.0
C2 C 0.15289 0.17514 0.60389 0.0
C3 C 0.18728 0.1581 0.58783 0.0
N4 N 0.12113 0.14705 0.60308 0.0
N5 N 0.17735 0.11889 0.57757 0.0
H6 H 0.11993 0.08394 0.58404 0.0
H7 H 0.15165 0.20524 0.6166 0.0
C8 C 0.06926 0.2242 0.57884 0.0
O9 O 0.09263 0.20396 0.55666 0.0
N10 N 0.01776 0.15699 0.65458 0.0
C11 C 0.98642 0.12971 0.66187 0.0
C12 C 0.95809 0.1492 0.68342 0.0
C13 C 0.00788 0.19237 0.67148 0.0
N14 N 0.97189 0.18858 0.6894 0.0
C15 C 0.03902 0.07254 0.60624 0.0
C16 C 0.03347 0.09247 0.53796 0.0
C17 C 0.03732 0.05028 0.54782 0.0
C18 C 0.03703 0.04037 0.58246 0.0
C19 C 0.03501 0.1239 0.56282 0.0
N20 N 0.0416 0.11365 0.59623 0.0
H21 H 0.04251 0.06367 0.63263 0.0
H22 H 0.03337 0.15602 0.55469 0.0
H23 H 0.98402 0.09782 0.65294 0.0
H24 H 0.02777 0.22002 0.67173 0.0
O25 O 0.09012 0.10901 0.65897 0.0
O26 O 0.0997 0.17737 0.66592 0.0
O27 O 0.05258 0.20464 0.60397 0.0
C28 C 0.10629 0.13925 0.67665 0.0
H29 H 0.21826 0.17221 0.58626 0.0
H30 H 0.9298 0.13534 0.69396 0.0
H31 H 0.03144 0.10111 0.51126 0.0
H32 H 0.03898 0.0081 0.59112 0.0
Co33 Co 0.37533 0.0124 0.63555 0.0
C34 C 0.42693 0.0872 0.61518 0.0
C35 C 0.3606 0.0965 0.60886 0.0
C36 C 0.3807 0.13338 0.6012 0.0
N37 N 0.3895 0.06694 0.61656 0.0
N38 N 0.42231 0.12739 0.605 0.0
H39 H 0.45628 0.07465 0.62452 0.0
H40 H 0.32692 0.09245 0.6112 0.0
C41 C 0.32274 0.02087 0.57222 0.0
O42 O 0.3561 0.03325 0.55503 0.0
N43 N 0.35923 0.9594 0.65533 0.0
C44 C 0.3845 0.93112 0.67059 0.0
C45 C 0.36046 0.9073 0.69279 0.0
C46 C 0.32043 0.95202 0.66788 0.0
N47 N 0.32019 0.92068 0.69105 0.0
C48 C 0.45663 0.99134 0.61084 0.0
C49 C 0.43152 0.95333 0.55097 0.0
C50 C 0.47323 0.96728 0.55436 0.0
C51 C 0.48626 0.98384 0.58554 0.0
C52 C 0.40272 0.96143 0.57732 0.0
N53 N 0.41482 0.98447 0.60504 0.0
H54 H 0.46731 0.00575 0.63412 0.0
H55 H 0.37038 0.9517 0.57424 0.0
H56 H 0.41848 0.93112 0.66883 0.0
H57 H 0.29422 0.97319 0.66385 0.0
O58 O 0.41291 0.02208 0.67313 0.0
O59 O 0.34585 0.04155 0.67201 0.0
O60 O 0.32665 0.00758 0.60286 0.0
C61 C 0.38155 0.04024 0.68823 0.0
H62 H 0.3658 0.16341 0.5965 0.0
H63 H 0.37235 0.88489 0.71121 0.0
H64 H 0.42071 0.93904 0.52748 0.0
H65 H 0.51865 0.99338 0.58953 0.0
Co66 Co 0.48417 0.37251 0.62826 0.0
C67 C 0.40984 0.41818 0.59981 0.0
C68 C 0.41358 0.35506 0.58127 0.0
C69 C 0.37667 0.37248 0.56989 0.0
N70 N 0.43447 0.38352 0.60035 0.0
N71 N 0.37415 0.41213 0.58167 0.0
H72 H 0.41653 0.44662 0.61381 0.0
H73 H 0.42295 0.32286 0.57725 0.0
C74 C 0.507 0.28346 0.61156 0.0
O75 O 0.54647 0.29367 0.60598 0.0
N76 N 0.5326 0.35985 0.65667 0.0
C77 C 0.57406 0.36867 0.65315 0.0
C78 C 0.59646 0.3454 0.67686 0.0
C79 C 0.53061 0.33182 0.68237 0.0
N80 N 0.5688 0.32219 0.69482 0.0
C81 C 0.53679 0.42401 0.58858 0.0
C82 C 0.51403 0.38681 0.52777 0.0
C83 C 0.52493 0.42944 0.52814 0.0
C84 C 0.54007 0.44693 0.55844 0.0
C85 C 0.51102 0.36502 0.55859 0.0
N86 N 0.5187 0.38508 0.58876 0.0
H87 H 0.5433 0.44006 0.61225 0.0
H88 H 0.49652 0.33442 0.55812 0.0
H89 H 0.58789 0.3881 0.63357 0.0
H90 H 0.50181 0.31672 0.69053 0.0
O91 O 0.4813 0.42832 0.64721 0.0
O92 O 0.44858 0.37219 0.66806 0.0
O93 O 0.4793 0.31121 0.61802 0.0
C94 C 0.45577 0.41234 0.66966 0.0
H95 H 0.352 0.35583 0.55649 0.0
H96 H 0.63037 0.3435 0.67913 0.0
H97 H 0.5033 0.37191 0.50449 0.0
H98 H 0.54934 0.47964 0.55969 0.0
Co99 Co 0.14491 0.5075 0.64909 0.0
C100 C 0.10727 0.42655 0.62226 0.0
C101 C 0.1649 0.41888 0.65028 0.0
C102 C 0.15278 0.38037 0.6383 0.0
N103 N 0.13676 0.44807 0.6401 0.0
N104 N 0.11681 0.38537 0.62076 0.0
H105 H 0.08041 0.44016 0.60963 0.0
H106 H 0.1934 0.42547 0.6644 0.0
C107 C 0.20984 0.48237 0.59802 0.0
O108 O 0.18007 0.46245 0.5813 0.0
N109 N 0.15497 0.56567 0.65938 0.0
C110 C 0.12604 0.59574 0.66515 0.0
C111 C 0.1444 0.6269 0.68468 0.0
C112 C 0.19035 0.57914 0.67473 0.0
N113 N 0.18478 0.61611 0.69074 0.0
C114 C 0.0695 0.52014 0.61184 0.0
C115 C 0.10462 0.5388 0.54916 0.0
C116 C 0.06146 0.53023 0.55161 0.0
C117 C 0.04366 0.52316 0.58352 0.0
C118 C 0.12945 0.53686 0.57877 0.0
N119 N 0.11227 0.5235 0.60894 0.0
H120 H 0.05472 0.51154 0.63554 0.0
H121 H 0.16248 0.5444 0.57693 0.0
H122 H 0.09291 0.59288 0.65922 0.0
H123 H 0.21769 0.55934 0.6784 0.0
O124 O 0.09934 0.50644 0.68127 0.0
O125 O 0.16544 0.49201 0.69424 0.0
O126 O 0.2005 0.50482 0.624 0.0
C127 C 0.12631 0.49445 0.70395 0.0
H128 H 0.16947 0.35099 0.64148 0.0
H129 H 0.12821 0.65304 0.69644 0.0
H130 H 0.11898 0.54583 0.52474 0.0
H131 H 0.01021 0.51718 0.58625 0.0
Co132 Co 0.01256 0.37529 0.85896 0.0
C133 C 0.09832 0.39567 0.88233 0.0
C134 C 0.05327 0.42442 0.91539 0.0
C135 C 0.09277 0.43809 0.92461 0.0
N136 N 0.05656 0.39794 0.88853 0.0
N137 N 0.12076 0.41999 0.90365 0.0
H138 H 0.1122 0.37878 0.86125 0.0
H139 H 0.02462 0.4352 0.92686 0.0
C140 C 0.04011 0.30465 0.90494 0.0
O141 O 0.0496 0.33144 0.92919 0.0
N142 N 0.96976 0.35332 0.82914 0.0
C143 C 0.93571 0.3733 0.81656 0.0
C144 C 0.91791 0.3485 0.79149 0.0
C145 C 0.97224 0.31701 0.81181 0.0
N146 N 0.94072 0.31301 0.78912 0.0
C147 C 0.9549 0.43025 0.8917 0.0
C148 C 0.94526 0.38142 0.94941 0.0
C149 C 0.94155 0.42517 0.95194 0.0
C150 C 0.94088 0.44882 0.92176 0.0
C151 C 0.95884 0.36411 0.91862 0.0
N152 N 0.96933 0.38988 0.89206 0.0
H153 H 0.95986 0.45022 0.86983 0.0
H154 H 0.96441 0.33083 0.91755 0.0
H155 H 0.92609 0.4047 0.82346 0.0
H156 H 0.99862 0.29571 0.81352 0.0
O157 O 0.01445 0.427 0.83297 0.0
O158 O 0.05296 0.37062 0.82246 0.0
O159 O 0.02154 0.31707 0.87781 0.0
C160 C 0.04392 0.40931 0.81502 0.0
H161 H 0.10007 0.46189 0.94341 0.0
H162 H 0.89179 0.35676 0.77507 0.0
H163 H 0.94283 0.3616 0.97182 0.0
H164 H 0.93646 0.48253 0.9222 0.0
Co165 Co 0.1572 0.03484 0.8531 0.0
C166 C 0.11922 0.11028 0.88545 0.0
C167 C 0.18657 0.11352 0.88314 0.0
C168 C 0.1718 0.15103 0.89554 0.0
N169 N 0.15365 0.08767 0.87732 0.0
N170 N 0.12947 0.14903 0.89663 0.0
H171 H 0.08732 0.0998 0.88159 0.0
H172 H 0.21898 0.10638 0.87702 0.0
C173 C 0.21378 0.02776 0.91384 0.0
O174 O 0.1842 0.04379 0.93334 0.0
N175 N 0.16272 0.9831 0.82821 0.0
C176 C 0.13266 0.95739 0.81594 0.0
C177 C 0.15126 0.92969 0.79335 0.0
C178 C 0.19879 0.97076 0.81331 0.0
N179 N 0.19283 0.93859 0.79154 0.0
C180 C 0.07218 0.02041 0.87355 0.0
C181 C 0.08892 0.97862 0.93362 0.0
C182 C 0.04833 0.99439 0.92777 0.0
C183 C 0.03955 0.01322 0.89648 0.0
C184 C 0.12064 0.98575 0.90943 0.0
N185 N 0.11288 0.01031 0.88153 0.0
H186 H 0.06462 0.03726 0.85053 0.0
H187 H 0.15151 0.97302 0.91409 0.0
H188 H 0.09938 0.96016 0.82128 0.0
H189 H 0.22824 0.98761 0.81604 0.0
O190 O 0.1219 0.05772 0.81792 0.0
O191 O 0.19152 0.06274 0.81865 0.0
O192 O 0.20486 0.01627 0.88347 0.0
C193 C 0.15604 0.07155 0.80376 0.0
H194 H 0.19048 0.17872 0.90088 0.0
H195 H 0.13504 0.90618 0.77838 0.0
H196 H 0.09636 0.96238 0.95717 0.0
H197 H 0.00841 0.02521 0.89081 0.0
Co198 Co 0.47248 0.15142 0.85561 0.0
C199 C 0.40498 0.11123 0.89617 0.0
C200 C 0.38624 0.17107 0.87601 0.0
C201 C 0.35225 0.15324 0.89206 0.0
N202 N 0.41968 0.14544 0.87956 0.0
N203 N 0.36404 0.11564 0.90458 0.0
H204 H 0.42296 0.08279 0.90002 0.0
H205 H 0.38611 0.19984 0.86127 0.0
C206 C 0.46156 0.23644 0.8912 0.0
O207 O 0.43685 0.22184 0.91534 0.0
N208 N 0.52503 0.15889 0.83072 0.0
C209 C 0.56405 0.1624 0.84427 0.0
C210 C 0.58998 0.18283 0.82138 0.0
C211 C 0.52815 0.1775 0.7998 0.0
N212 N 0.56708 0.19261 0.79361 0.0
C213 C 0.5192 0.08874 0.88808 0.0
C214 C 0.49502 0.10998 0.95346 0.0
C215 C 0.5046 0.06812 0.94591 0.0
C216 C 0.52036 0.05837 0.91359 0.0
C217 C 0.49458 0.13953 0.92706 0.0
N218 N 0.50223 0.12736 0.89426 0.0
H219 H 0.52694 0.07949 0.86231 0.0
H220 H 0.48374 0.17047 0.93271 0.0
H221 H 0.57246 0.15491 0.87028 0.0
H222 H 0.5015 0.18468 0.78368 0.0
O223 O 0.46099 0.09929 0.83287 0.0
O224 O 0.44025 0.16138 0.81411 0.0
O225 O 0.47976 0.21163 0.87032 0.0
C226 C 0.44068 0.12074 0.81012 0.0
H227 H 0.32037 0.16527 0.89203 0.0
H228 H 0.6221 0.19269 0.82597 0.0
H229 H 0.48398 0.11889 0.97859 0.0
H230 H 0.52969 0.02661 0.90726 0.0
Co231 Co 0.35465 0.51094 0.82931 0.0
C232 C 0.40321 0.43332 0.84853 0.0
C233 C 0.35097 0.42116 0.81515 0.0
C234 C 0.37126 0.38399 0.82119 0.0
N235 N 0.37101 0.4523 0.83203 0.0
N236 N 0.40389 0.39182 0.84203 0.0
H237 H 0.42524 0.44873 0.86528 0.0
H238 H 0.32278 0.425 0.80003 0.0
C239 C 0.29132 0.46714 0.87388 0.0
O240 O 0.32106 0.44275 0.88607 0.0
N241 N 0.33732 0.56855 0.82501 0.0
C242 C 0.36215 0.60231 0.8198 0.0
C243 C 0.33871 0.63295 0.80357 0.0
C244 C 0.29935 0.57935 0.81266 0.0
N245 N 0.29923 0.61825 0.79909 0.0
C246 C 0.42812 0.5315 0.86726 0.0
C247 C 0.39556 0.51301 0.93085 0.0
C248 C 0.43927 0.51316 0.92612 0.0
C249 C 0.45545 0.52585 0.8946 0.0
C250 C 0.36924 0.52001 0.90281 0.0
N251 N 0.38594 0.52405 0.87083 0.0
H252 H 0.44182 0.53775 0.84264 0.0
H253 H 0.33578 0.51998 0.90693 0.0
H254 H 0.3959 0.6027 0.82339 0.0
H255 H 0.27437 0.55676 0.80859 0.0
O256 O 0.3991 0.51973 0.79665 0.0
O257 O 0.33434 0.50031 0.78355 0.0
O258 O 0.3004 0.4978 0.85401 0.0
C259 C 0.37275 0.50726 0.77351 0.0
H260 H 0.36202 0.35326 0.81204 0.0
H261 H 0.35092 0.66168 0.79251 0.0
H262 H 0.38198 0.50581 0.95554 0.0
H263 H 0.4891 0.52771 0.89026 0.0
Co264 Co 0.99046 0.84541 0.3579 0.0
C265 C 0.92248 0.90026 0.38425 0.0
C266 C 0.90651 0.83504 0.38801 0.0
C267 C 0.87218 0.85821 0.39774 0.0
N268 N 0.93863 0.86131 0.38057 0.0
N269 N 0.88229 0.89914 0.39527 0.0
H270 H 0.93802 0.92869 0.37596 0.0
H271 H 0.90672 0.80149 0.38389 0.0
C272 C 0.98048 0.78215 0.41474 0.0
O273 O 0.97182 0.8127 0.43615 0.0
N274 N 0.04121 0.82918 0.33468 0.0
C275 C 0.07284 0.85435 0.32423 0.0
C276 C 0.09841 0.83185 0.30244 0.0
C277 C 0.04795 0.79194 0.31953 0.0
N278 N 0.08276 0.7926 0.29982 0.0
C279 C 0.0235 0.919 0.38832 0.0
C280 C 0.06046 0.8821 0.44454 0.0
C281 C 0.05518 0.92576 0.44349 0.0
C282 C 0.03896 0.94427 0.41412 0.0
C283 C 0.04604 0.85784 0.41708 0.0
N284 N 0.02377 0.87626 0.39124 0.0
H285 H 0.00918 0.9345 0.3669 0.0
H286 H 0.05103 0.82437 0.41761 0.0
H287 H 0.07542 0.88745 0.33001 0.0
H288 H 0.02569 0.76617 0.32035 0.0
O289 O 0.98276 0.89009 0.32567 0.0
O290 O 0.95657 0.82615 0.31949 0.0
O291 O 0.9917 0.79075 0.38416 0.0
C292 C 0.95999 0.8644 0.30799 0.0
H293 H 0.84084 0.84611 0.40256 0.0
H294 H 0.12481 0.84403 0.28799 0.0
H295 H 0.07405 0.86697 0.46672 0.0
H296 H 0.03495 0.978 0.41227 0.0
Co297 Co 0.65531 0.96459 0.3362 0.0
C298 C 0.61581 0.88519 0.35911 0.0
C299 C 0.68328 0.88083 0.35763 0.0
C300 C 0.66741 0.84271 0.36779 0.0
N301 N 0.65094 0.90747 0.35238 0.0
N302 N 0.62514 0.84551 0.36847 0.0
H303 H 0.58417 0.89727 0.35628 0.0
H304 H 0.71614 0.88793 0.35333 0.0
C305 C 0.73518 0.99096 0.3708 0.0
O306 O 0.71622 0.02352 0.38438 0.0
N307 N 0.66193 0.02134 0.31849 0.0
C308 C 0.63269 0.04799 0.30588 0.0
C309 C 0.65259 0.07811 0.28612 0.0
C310 C 0.69865 0.03529 0.3054 0.0
N311 N 0.69422 0.07008 0.28621 0.0
C312 C 0.59852 0.00578 0.38165 0.0
C313 C 0.62688 0.96464 0.43944 0.0
C314 C 0.58788 0.98482 0.4402 0.0
C315 C 0.57459 0.00726 0.41149 0.0
C316 C 0.6502 0.96454 0.40929 0.0
N317 N 0.63519 0.98355 0.38039 0.0
H318 H 0.58528 0.01908 0.35885 0.0
H319 H 0.67833 0.9456 0.40839 0.0
H320 H 0.59904 0.04341 0.30721 0.0
H321 H 0.72732 0.01705 0.30568 0.0
O322 O 0.6016 0.95935 0.31414 0.0
O323 O 0.66285 0.9429 0.29037 0.0
O324 O 0.7155 0.96533 0.35156 0.0
C325 C 0.6219 0.94448 0.28807 0.0
H326 H 0.68533 0.81433 0.37229 0.0
H327 H 0.63728 0.10146 0.27033 0.0
H328 H 0.63809 0.94712 0.46136 0.0
H329 H 0.54436 0.02298 0.41127 0.0
Co330 Co 0.48907 0.62734 0.32454 0.0
C331 C 0.56255 0.57638 0.35023 0.0
C332 C 0.57856 0.61655 0.30812 0.0
C333 C 0.61393 0.59508 0.31774 0.0
N334 N 0.54599 0.6048 0.32822 0.0
N335 N 0.60388 0.57012 0.34422 0.0
H336 H 0.54582 0.562 0.37119 0.0
H337 H 0.57743 0.64037 0.28848 0.0
C338 C 0.5386 0.68848 0.367 0.0
O339 O 0.55989 0.65777 0.38115 0.0
N340 N 0.43356 0.65045 0.31974 0.0
C341 C 0.39684 0.63013 0.31486 0.0
C342 C 0.36865 0.65787 0.30014 0.0
C343 C 0.42709 0.6898 0.30861 0.0
N344 N 0.38799 0.69539 0.29623 0.0
C345 C 0.46126 0.55748 0.36354 0.0
C346 C 0.47941 0.59073 0.42689 0.0
C347 C 0.4742 0.5473 0.42339 0.0
C348 C 0.46227 0.53106 0.39179 0.0
C349 C 0.47689 0.61634 0.39796 0.0
N350 N 0.4723 0.59884 0.36636 0.0
H351 H 0.45523 0.54347 0.33905 0.0
H352 H 0.48088 0.64964 0.40111 0.0
H353 H 0.39237 0.59668 0.31804 0.0
H354 H 0.45245 0.71194 0.30468 0.0
O355 O 0.47631 0.58348 0.29216 0.0
O356 O 0.50185 0.64587 0.27883 0.0
O357 O 0.50707 0.68077 0.34782 0.0
C358 C 0.49133 0.60842 0.26888 0.0
H359 H 0.64532 0.59933 0.30748 0.0
H360 H 0.33802 0.64988 0.28991 0.0
H361 H 0.48706 0.60443 0.45141 0.0
H362 H 0.45729 0.49766 0.38832 0.0
Co363 Co 0.84465 0.52875 0.37134 0.0
C364 C 0.88736 0.59299 0.41266 0.0
C365 C 0.82381 0.61028 0.40096 0.0
C366 C 0.8436 0.64422 0.41535 0.0
N367 N 0.85088 0.57778 0.39997 0.0
N368 N 0.88373 0.63356 0.42223 0.0
H369 H 0.91692 0.57616 0.41157 0.0
H370 H 0.79326 0.61072 0.38878 0.0
C371 C 0.7575 0.53187 0.40714 0.0
O372 O 0.76949 0.55401 0.43363 0.0
N373 N 0.83661 0.48052 0.34142 0.0
C374 C 0.83173 0.43987 0.35069 0.0
C375 C 0.81117 0.4185 0.32493 0.0
C376 C 0.81851 0.48294 0.31025 0.0
N377 N 0.80252 0.44595 0.29975 0.0
C378 C 0.90588 0.47613 0.39915 0.0
C379 C 0.88906 0.49913 0.46555 0.0
C380 C 0.93056 0.48978 0.45606 0.0
C381 C 0.9381 0.47447 0.42324 0.0
C382 C 0.85781 0.50042 0.44053 0.0
N383 N 0.86787 0.49361 0.40717 0.0
H384 H 0.91371 0.46966 0.37283 0.0
H385 H 0.82763 0.5125 0.44751 0.0
H386 H 0.8381 0.42732 0.3758 0.0
H387 H 0.81289 0.51197 0.29673 0.0
O388 O 0.89749 0.5419 0.35034 0.0
O389 O 0.83616 0.56671 0.33297 0.0
O390 O 0.78407 0.51983 0.38473 0.0
C391 C 0.87693 0.56516 0.32903 0.0
H392 H 0.83106 0.67579 0.41667 0.0
H393 H 0.79935 0.38663 0.32632 0.0
H394 H 0.88173 0.50931 0.49124 0.0
H395 H 0.96957 0.46594 0.41515 0.0
Co396 Co 0.9751 0.62722 0.15091 0.0
C397 C 0.89646 0.58234 0.12873 0.0
C398 C 0.88671 0.64757 0.13981 0.0
C399 C 0.849 0.63049 0.12985 0.0
N400 N 0.91674 0.61767 0.13847 0.0
N401 N 0.85525 0.58956 0.123 0.0
H402 H 0.91086 0.55198 0.12589 0.0
H403 H 0.89203 0.67981 0.14733 0.0
C404 C 0.95616 0.68338 0.09179 0.0
O405 O 0.93697 0.65199 0.07656 0.0
N406 N 0.03225 0.6382 0.16427 0.0
C407 C 0.06185 0.61002 0.17326 0.0
C408 C 0.09184 0.63022 0.1928 0.0
C409 C 0.04481 0.67489 0.17778 0.0
N410 N 0.08063 0.67091 0.19587 0.0
C411 C 0.99064 0.54529 0.12469 0.0
C412 C 0.0057 0.56999 0.05829 0.0
C413 C 0.99355 0.52855 0.0651 0.0
C414 C 0.98937 0.51541 0.09888 0.0
C415 C 0.00785 0.59862 0.08521 0.0
N416 N 0.99463 0.587 0.11701 0.0
H417 H 0.9834 0.53504 0.15025 0.0
H418 H 0.01709 0.63051 0.0798 0.0
H419 H 0.05946 0.57652 0.16921 0.0
H420 H 0.02502 0.70255 0.17839 0.0
O421 O 0.96881 0.58946 0.18884 0.0
O422 O 0.95493 0.65774 0.19045 0.0
O423 O 0.97748 0.67673 0.11893 0.0
C424 C 0.95568 0.62169 0.20598 0.0
H425 H 0.81908 0.64664 0.12836 0.0
H426 H 0.11752 0.61534 0.20633 0.0
H427 H 0.01127 0.58052 0.03237 0.0
H428 H 0.98124 0.4832 0.10502 0.0
Co429 Co 0.8543 0.95927 0.13876 0.0
C430 C 0.88828 0.88022 0.1074 0.0
C431 C 0.82477 0.87462 0.12554 0.0
C432 C 0.83657 0.83679 0.11203 0.0
N433 N 0.8567 0.90225 0.12192 0.0
N434 N 0.87633 0.84048 0.10048 0.0
H435 H 0.9197 0.89192 0.10305 0.0
H436 H 0.79508 0.88141 0.13789 0.0
C437 C 0.78092 0.94995 0.09115 0.0
O438 O 0.80566 0.93263 0.06826 0.0
N439 N 0.84951 0.01531 0.15648 0.0
C440 C 0.87977 0.04314 0.16485 0.0
C441 C 0.86166 0.07451 0.18442 0.0
C442 C 0.81392 0.03003 0.17053 0.0
N443 N 0.82019 0.06596 0.18778 0.0
C444 C 0.92656 0.97345 0.09813 0.0
C445 C 0.88889 0.01083 0.04248 0.0
C446 C 0.93166 -0.00019 0.04085 0.0
C447 C 0.95054 0.98228 0.06959 0.0
C448 C 0.86579 0.00186 0.07229 0.0
N449 N 0.88415 0.98053 0.09871 0.0
H450 H 0.94255 0.95869 0.1191 0.0
H451 H 0.83329 0.01147 0.07368 0.0
H452 H 0.91293 0.03925 0.15941 0.0
H453 H 0.78483 0.01235 0.1713 0.0
O454 O 0.90257 0.94937 0.16685 0.0
O455 O 0.83713 0.93657 0.18304 0.0
O456 O 0.79655 0.96555 0.11829 0.0
C457 C 0.87721 0.93539 0.19002 0.0
H458 H 0.81828 0.80807 0.11246 0.0
H459 H 0.87811 0.09994 0.19698 0.0
H460 H 0.87357 0.02591 0.02104 0.0
H461 H 0.98354 0.97364 0.0696 0.0
Co462 Co 0.49817 0.84678 0.12759 0.0
C463 C 0.57817 0.88976 0.1077 0.0
C464 C 0.5696 0.8319 0.08075 0.0
C465 C 0.6073 0.84908 0.07095 0.0
N466 N 0.55132 0.85706 0.10415 0.0
N467 N 0.61289 0.88529 0.08804 0.0
H468 H 0.57257 0.91621 0.12432 0.0
H469 H 0.55687 0.80281 0.07115 0.0
C470 C 0.49379 0.75587 0.12146 0.0
O471 O 0.49025 0.75606 0.15481 0.0
N472 N 0.44466 0.83584 0.15012 0.0
C473 C 0.40785 0.82798 0.13414 0.0
C474 C 0.37937 0.81249 0.15747 0.0
C475 C 0.43781 0.82519 0.18305 0.0
N476 N 0.39831 0.81069 0.18818 0.0
C477 C 0.45147 0.91238 0.09808 0.0
C478 C 0.47285 0.89334 0.03148 0.0
C479 C 0.46054 0.93435 0.03974 0.0
C480 C 0.44707 0.94298 0.07297 0.0
C481 C 0.4768 0.86357 0.05748 0.0
N482 N 0.46942 0.87465 0.09057 0.0
H483 H 0.44454 0.92052 0.12425 0.0
H484 H 0.49009 0.83333 0.05141 0.0
H485 H 0.40292 0.82997 0.10688 0.0
H486 H 0.4623 0.82361 0.20218 0.0
O487 O 0.5071 0.89524 0.15602 0.0
O488 O 0.52989 0.83121 0.16814 0.0
O489 O 0.49457 0.79045 0.10505 0.0
C490 C 0.52792 0.87078 0.1764 0.0
H491 H 0.62969 0.83509 0.05353 0.0
H492 H 0.34829 0.80037 0.1518 0.0
H493 H 0.4833 0.88553 0.00595 0.0
H494 H 0.43661 0.97415 0.08003 0.0
Co495 Co 0.61997 0.50095 0.11717 0.0
C496 C 0.56545 0.57025 0.09142 0.0
C497 C 0.61949 0.56132 0.05968 0.0
C498 C 0.59988 0.59793 0.05005 0.0
N499 N 0.59839 0.54409 0.0862 0.0
N500 N 0.56631 0.60377 0.07044 0.0
H501 H 0.54355 0.56775 0.1124 0.0
H502 H 0.64935 0.55055 0.04989 0.0
C503 C 0.71045 0.4885 0.09874 0.0
O504 O 0.7065 0.44775 0.10289 0.0
N505 N 0.64239 0.45946 0.14852 0.0
C506 C 0.63606 0.41764 0.15108 0.0
C507 C 0.66096 0.40228 0.17729 0.0
C508 C 0.67051 0.46879 0.1731 0.0
N509 N 0.68248 0.4347 0.19095 0.0
C510 C 0.56944 0.44055 0.08516 0.0
C511 C 0.60216 0.45817 0.02155 0.0
C512 C 0.5592 0.44891 0.02467 0.0
C513 C 0.54389 0.43599 0.05651 0.0
C514 C 0.62638 0.46283 0.05098 0.0
N515 N 0.608 0.45926 0.08239 0.0
H516 H 0.55537 0.43552 0.10992 0.0
H517 H 0.65737 0.47601 0.04802 0.0
H518 H 0.61538 0.39932 0.13509 0.0
H519 H 0.68294 0.50004 0.17728 0.0
O520 O 0.56693 0.49923 0.14134 0.0
O521 O 0.62026 0.54169 0.15352 0.0
O522 O 0.67848 0.51258 0.10044 0.0
C523 C 0.58224 0.529 0.1603 0.0
H524 H 0.61202 0.62082 0.03208 0.0
H525 H 0.66255 0.37002 0.18593 0.0
H526 H 0.61549 0.46703 -0.0029 0.0
H527 H 0.51105 0.42794 0.06011 0.0
C528 C 0.11454 0.14768 0.73903 0.0
C529 C 0.12852 0.12968 0.70842 0.0
C530 C 0.12638 0.13036 0.77045 0.0
C531 C 0.15343 0.0955 0.772 0.0
H532 H 0.09155 0.1728 0.73864 0.0
H533 H 0.11245 0.14275 0.7936 0.0
S534 S 0.20266 0.04057 0.69909 0.0
N535 N 0.17337 0.07756 0.68141 0.0
N536 N 0.19686 0.04607 0.74077 0.0
C537 C 0.17047 0.07961 0.74172 0.0
C538 C 0.15763 0.09651 0.70973 0.0
C539 C 0.3852 0.10325 0.72541 0.0
C540 C 0.3878 0.05952 0.7217 0.0
C541 C 0.40116 0.12304 0.75471 0.0
C542 C 0.41972 0.09947 0.78116 0.0
H543 H 0.37303 0.12237 0.70478 0.0
H544 H 0.40035 0.157 0.75603 0.0
S545 S 0.42682 0.98298 0.78529 0.0
N546 N 0.40567 0.99284 0.74765 0.0
N547 N 0.43436 0.02925 0.80325 0.0
C548 C 0.41932 0.05529 0.77857 0.0
C549 C 0.40369 0.03547 0.74863 0.0
C550 C 0.43082 0.49926 0.73164 0.0
C551 C 0.38903 0.49018 0.74117 0.0
C552 C 0.45197 0.47455 0.70766 0.0
C553 C 0.43229 0.43947 0.69308 0.0
H554 H 0.4481 0.52424 0.74415 0.0
H555 H 0.48453 0.48173 0.70176 0.0
S556 S 0.32106 0.40683 0.70431 0.0
N557 N 0.32681 0.4475 0.72998 0.0
N558 N 0.36732 0.40008 0.68589 0.0
C559 C 0.38971 0.43178 0.7004 0.0
C560 C 0.36778 0.45759 0.7241 0.0
C561 C 0.05095 0.46984 0.77516 0.0
C562 C 0.06791 0.4329 0.78906 0.0
C563 C 0.0719 0.49155 0.74915 0.0
C564 C 0.11089 0.47752 0.73656 0.0
H565 H 0.02051 0.48123 0.78348 0.0
H566 H 0.05663 0.51862 0.73785 0.0
S567 S 0.17158 0.38588 0.76769 0.0
N568 N 0.12798 0.38542 0.79065 0.0
N569 N 0.16757 0.42681 0.74199 0.0
C570 C 0.12958 0.44228 0.75177 0.0
C571 C 0.10794 0.41971 0.77791 0.0
C572 C 0.95513 0.91446 0.26007 0.0
C573 C 0.9378 0.88001 0.27755 0.0
C574 C 0.93426 0.93276 0.23256 0.0
C575 C 0.89488 0.91781 0.22166 0.0
H576 H 0.98533 0.92737 0.26757 0.0
H577 H 0.94933 0.95885 0.21958 0.0
S578 S 0.83501 0.82933 0.25964 0.0
N579 N 0.87845 0.83208 0.28276 0.0
N580 N 0.83876 0.86698 0.23068 0.0
C581 C 0.87662 0.88384 0.2392 0.0
C582 C 0.8983 0.86468 0.26717 0.0
C583 C 0.61419 0.89193 0.24104 0.0
C584 C 0.59859 0.92701 0.25876 0.0
C585 C 0.59038 0.87264 0.21521 0.0
C586 C 0.55066 0.88838 0.2059 0.0
H587 H 0.64458 0.87881 0.24762 0.0
H588 H 0.60358 0.84592 0.2019 0.0
S589 S 0.49589 0.97946 0.24442 0.0
N590 N 0.54086 0.97638 0.26538 0.0
N591 N 0.49673 0.94081 0.21641 0.0
C592 C 0.5349 0.92349 0.22331 0.0
C593 C 0.55872 0.94264 0.24988 0.0
C594 C 0.50177 0.54826 0.22936 0.0
C595 C 0.50692 0.59136 0.23625 0.0
C596 C 0.52557 0.52841 0.20404 0.0
C597 C 0.55571 0.55087 0.18523 0.0
H598 H 0.48087 0.52917 0.24481 0.0
H599 H 0.52172 0.49492 0.20025 0.0
S600 S 0.57549 0.66556 0.18846 0.0
N601 N 0.53983 0.657 0.21835 0.0
N602 N 0.58531 0.61924 0.17138 0.0
C603 C 0.55902 0.59442 0.18999 0.0
C604 C 0.53424 0.61484 0.21528 0.0
C605 C 0.87652 0.60992 0.27646 0.0
C606 C 0.8991 0.58613 0.30057 0.0
C607 C 0.89616 0.62481 0.24673 0.0
C608 C 0.93869 0.61591 0.24027 0.0
H609 H 0.84314 0.61548 0.27979 0.0
H610 H 0.87733 0.64085 0.2277 0.0
S611 S 0.01324 0.56032 0.29685 0.0
N612 N 0.9679 0.55885 0.31743 0.0
N613 N 0.00383 0.58593 0.26101 0.0
C614 C 0.96221 0.59464 0.26491 0.0
C615 C 0.94263 0.58 0.29531 0.0
C616 C 0.02834 0.94752 0.49982 0.0
C617 C 0.05872 0.95219 0.47403 0.0
C618 C 0.02169 0.97934 0.52381 0.0
C619 C 0.04516 0.01679 0.52262 0.0
H620 H 0.00771 0.92038 0.50006 0.0
H621 H 0.99698 0.97527 0.54261 0.0
S622 S 0.13279 0.0411 0.46317 0.0
N623 N 0.11514 0.99483 0.45054 0.0
N624 N 0.10354 0.05437 0.4963 0.0
C625 C 0.07748 0.02056 0.49829 0.0
C626 C 0.08409 0.98825 0.47383 0.0
C627 C 0.54548 0.01451 0.48786 0.0
C628 C 0.55928 0.97934 0.46954 0.0
C629 C 0.51754 0.00998 0.51524 0.0
C630 C 0.50189 0.97025 0.52478 0.0
H631 H 0.5566 0.04562 0.48111 0.0
H632 H 0.50781 0.03786 0.52896 0.0
S633 S 0.52708 0.86869 0.48379 0.0
N634 N 0.55472 0.90368 0.46203 0.0
N635 N 0.50146 0.89534 0.5134 0.0
C636 C 0.51485 0.93493 0.50628 0.0
C637 C 0.54384 0.93945 0.47869 0.0
C638 C 0.5403 0.48869 0.48791 0.0
C639 C 0.51244 0.45761 0.49987 0.0
C640 C 0.52719 0.51852 0.46386 0.0
C641 C 0.48582 0.51826 0.45111 0.0
H642 H 0.57236 0.49 0.49731 0.0
H643 H 0.54975 0.54149 0.45471 0.0
S644 S 0.39987 0.44583 0.476 0.0
N645 N 0.44079 0.43017 0.49863 0.0
N646 N 0.41674 0.48577 0.45278 0.0
C647 C 0.4576 0.48772 0.46298 0.0
C648 C 0.47077 0.4575 0.48753 0.0
C649 C 0.999 0.47324 0.48496 0.0
C650 C 0.96632 0.5018 0.47821 0.0
C651 C 0.03242 0.48419 0.50658 0.0
C652 C 0.03439 0.52418 0.52165 0.0
H653 H 0.99788 0.44178 0.47451 0.0
H654 H 0.05557 0.46054 0.51309 0.0
S655 S 0.96012 0.61208 0.50847 0.0
N656 N 0.94064 0.5733 0.48539 0.0
N657 N 0.00317 0.59329 0.52651 0.0
C658 C 0.00332 0.55369 0.51365 0.0
C659 C 0.96933 0.54264 0.49176 0.0
C660 C 0.92897 0.48406 -0.00717 0.0
C661 C 0.95073 0.44704 0.98445 0.0
C662 C 0.94338 0.51043 0.01889 0.0
C663 C 0.97988 0.50057 0.03747 0.0
H664 H 0.90144 0.49338 0.97837 0.0
H665 H 0.92602 0.53889 0.02446 0.0
S666 S 0.04829 0.40782 0.02618 0.0
N667 N 0.011 0.40219 -0.00279 0.0
N668 N 0.03689 0.45149 0.04684 0.0
C669 C 0.00116 0.46322 0.03033 0.0
C670 C 0.98682 0.43646 0.00367 0.0
C671 C 0.02732 0.01761 0.98571 0.0
C672 C 0.01689 0.99643 0.95548 0.0
C673 C 0.99812 0.02156 0.01219 0.0
C674 C 0.95752 0.00406 0.0096 0.0
H675 H 0.05836 0.03124 0.98891 0.0
H676 H 0.00789 0.03714 0.03545 0.0
S677 S 0.91437 0.94672 0.93513 0.0
N678 N 0.96281 0.95939 0.92359 0.0
N679 N 0.90803 0.96571 0.97402 0.0
C680 C 0.94619 0.98402 0.97903 0.0
C681 C 0.97591 0.98036 0.95183 0.0
C682 C 0.50639 0.03475 0.00366 0.0
C683 C 0.49261 0.03411 0.96967 0.0
C684 C 0.49483 0.00274 0.02634 0.0
C685 C 0.46888 0.96925 0.01581 0.0
H686 H 0.52675 0.05976 0.01258 0.0
H687 H 0.50713 0.00366 0.05212 0.0
S688 S 0.42051 0.95591 0.93056 0.0
N689 N 0.44884 0.99927 0.92723 0.0
N690 N 0.42751 0.93886 0.96999 0.0
C691 C 0.45397 0.96887 0.98218 0.0
C692 C 0.46568 0.00144 0.95908 0.0
C693 C 0.50351 0.52031 0.96212 0.0
C694 C 0.46819 0.49668 0.95241 0.0
C695 C 0.53338 0.50383 0.98461 0.0
C696 C 0.52935 0.46287 -0.00207 0.0
H697 H 0.50797 0.55186 0.95234 0.0
H698 H 0.55935 0.52382 -0.00773 0.0
S699 S 0.44375 0.38736 0.97869 0.0
N700 N 0.4314 0.42984 0.95663 0.0
N701 N 0.48796 0.39865 -0.00111 0.0
C702 C 0.49436 0.43874 0.98813 0.0
C703 C 0.46371 0.45568 0.96536 0.0
C704 C 0.95962 0.26248 0.70483 0.0
C705 C 0.95559 0.21947 0.71272 0.0
C706 C 0.95152 0.2934 0.72935 0.0
C707 C 0.93937 0.28228 0.76255 0.0
H708 H 0.97083 0.27217 0.67992 0.0
H709 H 0.95725 0.32604 0.72302 0.0
S710 S 0.91939 0.17512 0.79533 0.0
N711 N 0.93491 0.16789 0.75552 0.0
N712 N 0.91996 0.22644 0.80153 0.0
C713 C 0.93274 0.23984 0.77027 0.0
C714 C 0.94062 0.20827 0.7453 0.0
C715 C 0.29796 0.91816 0.75133 0.0
C716 C 0.28786 0.91516 0.71648 0.0
C717 C 0.26637 0.92286 0.77603 0.0
C718 C 0.22351 0.92454 0.76688 0.0
H719 H 0.33055 0.91983 0.75932 0.0
H720 H 0.2756 0.92732 0.80238 0.0
S721 S 0.18072 0.91264 0.67933 0.0
N722 N 0.23228 0.90989 0.67432 0.0
N723 N 0.17275 0.9191 0.72062 0.0
C724 C 0.21296 0.91855 0.73235 0.0
C725 C 0.2452 0.9139 0.7072 0.0
C726 C 0.562 0.21556 0.73395 0.0
C727 C 0.57684 0.2226 0.76724 0.0
C728 C 0.56241 0.24764 0.70951 0.0
C729 C 0.57734 0.28795 0.71757 0.0
H730 H 0.5481 0.18558 0.72736 0.0
H731 H 0.54929 0.24158 0.68452 0.0
S732 S 0.62107 0.32251 0.80028 0.0
N733 N 0.60862 0.27267 0.80646 0.0
N734 N 0.60913 0.33296 0.76011 0.0
C735 C 0.59455 0.29488 0.74994 0.0
C736 C 0.59433 0.26216 0.77494 0.0
C737 C 0.25438 0.63618 0.71246 0.0
C738 C 0.21116 0.62999 0.7183 0.0
C739 C 0.28312 0.63719 0.73963 0.0
C740 C 0.26953 0.63122 0.77349 0.0
H741 H 0.26624 0.63712 0.68654 0.0
H742 H 0.31644 0.63863 0.73388 0.0
S743 S 0.15944 0.61776 0.80254 0.0
N744 N 0.15584 0.62144 0.76058 0.0
N745 N 0.21 0.62272 0.81159 0.0
C746 C 0.22615 0.6282 0.77978 0.0
C747 C 0.19687 0.62772 0.7522 0.0
C748 C 0.09515 0.74319 0.21405 0.0
C749 C 0.09308 0.70014 0.22192 0.0
C750 C 0.09542 0.77358 0.23989 0.0
C751 C 0.09293 0.76182 0.27441 0.0
H752 H 0.09378 0.75336 0.18768 0.0
H753 H 0.09423 0.80644 0.23278 0.0
S754 S 0.09219 0.65349 0.30872 0.0
N755 N 0.09269 0.64736 0.26687 0.0
N756 N 0.09283 0.7047 0.31536 0.0
C757 C 0.09391 0.71899 0.28269 0.0
C758 C 0.09416 0.68803 0.25645 0.0
C759 C 0.74775 0.0853 0.20262 0.0
C760 C 0.79043 0.08232 0.21202 0.0
C761 C 0.71579 0.08637 0.2273 0.0
C762 C 0.72556 0.08422 0.26223 0.0
H763 H 0.73897 0.08293 0.17598 0.0
H764 H 0.68337 0.0845 0.21893 0.0
S765 S 0.83233 0.08345 0.30026 0.0
N766 N 0.84078 0.08284 0.25866 0.0
N767 N 0.7807 0.08543 0.30507 0.0
C768 C 0.76814 0.08605 0.27192 0.0
C769 C 0.80066 0.08498 0.24681 0.0
C770 C 0.36405 0.71729 0.23918 0.0
C771 C 0.37791 0.728 0.27213 0.0
C772 C 0.3675 0.7459 0.21208 0.0
C773 C 0.38502 0.78606 0.21707 0.0
H774 H 0.35416 0.68548 0.23362 0.0
H775 H 0.35976 0.73525 0.18662 0.0
S776 S 0.41719 0.83218 0.29972 0.0
N777 N 0.40313 0.78357 0.30926 0.0
N778 N 0.4099 0.83729 0.25816 0.0
C779 C 0.39495 0.79847 0.25043 0.0
C780 C 0.39119 0.76948 0.27801 0.0
C781 C 0.71065 0.46847 0.24247 0.0
C782 C 0.71132 0.43479 0.21933 0.0
C783 C 0.74018 0.4715 0.26879 0.0
C784 C 0.77169 0.44096 0.2731 0.0
H785 H 0.68709 0.49284 0.24012 0.0
H786 H 0.73829 0.49802 0.28596 0.0
S787 S 0.78778 0.34692 0.21923 0.0
N788 N 0.74638 0.37036 0.20224 0.0
N789 N 0.80192 0.37597 0.25223 0.0
C790 C 0.77238 0.40667 0.25063 0.0
C791 C 0.74221 0.4036 0.22361 0.0
C792 C 0.27807 0.07505 0.54439 0.0
C793 C 0.28079 0.03692 0.56243 0.0
C794 C 0.24203 0.10015 0.54673 0.0
C795 C 0.20745 0.0878 0.56683 0.0
H796 H 0.30537 0.08785 0.53144 0.0
H797 H 0.24251 0.13097 0.53501 0.0
S798 S 0.19506 0.98545 0.61116 0.0
N799 N 0.24296 0.98391 0.59489 0.0
N800 N 0.17532 0.0312 0.59966 0.0
C801 C 0.20766 0.04716 0.581 0.0
C802 C 0.24437 0.02162 0.57862 0.0
C803 C 0.4766 0.17477 0.58202 0.0
C804 C 0.4518 0.1608 0.6095 0.0
C805 C 0.49776 0.21355 0.58366 0.0
C806 C 0.49358 0.23938 0.61251 0.0
H807 H 0.47757 0.15676 0.55862 0.0
H808 H 0.51485 0.22465 0.56146 0.0
S809 S 0.43509 0.21443 0.69196 0.0
N810 N 0.42735 0.17335 0.66707 0.0
N811 N 0.46521 0.24684 0.66983 0.0
C812 C 0.47059 0.22446 0.64066 0.0
C813 C 0.45014 0.18488 0.63923 0.0
C814 C 0.32543 0.45953 0.61217 0.0
C815 C 0.33651 0.43743 0.5824 0.0
C816 C 0.28514 0.47682 0.61612 0.0
C817 C 0.25446 0.47264 0.59042 0.0
H818 H 0.34697 0.46119 0.6335 0.0
H819 H 0.27728 0.49113 0.64037 0.0
S820 S 0.27068 0.42552 0.50485 0.0
N821 N 0.31584 0.41821 0.52482 0.0
N822 N 0.24005 0.45037 0.53221 0.0
C823 C 0.26638 0.45389 0.5594 0.0
C824 C 0.3074 0.43638 0.5554 0.0
C825 C 0.0616 0.33195 0.61796 0.0
C826 C 0.0957 0.3526 0.60269 0.0
C827 C 0.04966 0.29169 0.60721 0.0
C828 C 0.07194 0.2707 0.58111 0.0
H829 H 0.04662 0.34544 0.64023 0.0
H830 H 0.02521 0.27563 0.62146 0.0
S831 S 0.15852 0.31632 0.52904 0.0
N832 N 0.14746 0.35295 0.55743 0.0
N833 N 0.12531 0.27742 0.53661 0.0
C834 C 0.10297 0.29347 0.56314 0.0
C835 C 0.11497 0.33436 0.57424 0.0
C836 C 0.23744 0.43259 0.91112 0.0
C837 C 0.24696 0.45833 0.8828 0.0
C838 C 0.19582 0.42092 0.91849 0.0
C839 C 0.16274 0.43423 0.89755 0.0
H840 H 0.2623 0.42097 0.9275 0.0
H841 H 0.18947 0.40063 0.9401 0.0
S842 S 0.16983 0.50234 0.8212 0.0
N843 N 0.21898 0.49732 0.83427 0.0
N844 N 0.14101 0.47497 0.84839 0.0
C845 C 0.17144 0.46043 0.8697 0.0
C846 C 0.21355 0.47264 0.86226 0.0
C847 C 0.1109 0.21342 0.92773 0.0
C848 C 0.10185 0.1841 0.90201 0.0
C849 C 0.08852 0.25117 0.93013 0.0
C850 C 0.0565 0.26113 0.90663 0.0
H851 H 0.13655 0.2077 0.94533 0.0
H852 H 0.09808 0.27359 0.94939 0.0
S853 S 0.01866 0.19309 0.8361 0.0
N854 N 0.05745 0.16637 0.85367 0.0
N855 N 0.01434 0.23648 0.85877 0.0
C856 C 0.04539 0.23073 0.88213 0.0
C857 C 0.06835 0.19242 0.87964 0.0
C858 C 0.30479 0.09449 0.94048 0.0
C859 C 0.33497 0.08403 0.91577 0.0
C860 C 0.26729 0.07166 0.94342 0.0
C861 C 0.2584 0.03825 0.92102 0.0
H862 H 0.30858 0.12284 0.9554 0.0
H863 H 0.24338 0.08345 0.96062 0.0
S864 S 0.33192 0.99284 0.85734 0.0
N865 N 0.35731 0.03384 0.87294 0.0
N866 N 0.28671 0.99068 0.87814 0.0
C867 C 0.29094 0.02406 0.89945 0.0
C868 C 0.3293 0.04718 0.89678 0.0
C869 C 0.42174 0.34795 0.89113 0.0
C870 C 0.42956 0.36028 0.85738 0.0
C871 C 0.43625 0.3092 0.90336 0.0
C872 C 0.45885 0.28161 0.88203 0.0
H873 H 0.40114 0.36664 0.90702 0.0
H874 H 0.42677 0.29948 0.92874 0.0
S875 S 0.49283 0.30411 0.79293 0.0
N876 N 0.46495 0.34555 0.80416 0.0
N877 N 0.49354 0.27309 0.82674 0.0
C878 C 0.47061 0.2961 0.84926 0.0
C879 C 0.45538 0.33532 0.83694 0.0
C880 C 0.8453 0.95182 0.361 0.0
C881 C 0.85192 0.93214 0.39266 0.0
C882 C 0.80856 0.97487 0.35492 0.0
C883 C 0.7781 0.97972 0.3806 0.0
H884 H 0.86673 0.94614 0.33999 0.0
H885 H 0.80256 0.98644 0.32934 0.0
S886 S 0.78332 0.93834 0.46879 0.0
N887 N 0.82711 0.92159 0.45056 0.0
N888 N 0.7585 0.96632 0.43951 0.0
C889 C 0.78615 0.96334 0.41316 0.0
C890 C 0.82307 0.93911 0.41911 0.0
C891 C 0.60309 0.78086 0.39748 0.0
C892 C 0.59702 0.81051 0.37141 0.0
C893 C 0.58191 0.74229 0.39705 0.0
C894 C 0.55415 0.73203 0.37036 0.0
H895 H 0.62576 0.78695 0.41752 0.0
H896 H 0.58872 0.71969 0.417 0.0
S897 S 0.52801 0.79951 0.29581 0.0
N898 N 0.56123 0.82783 0.31858 0.0
N899 N 0.52142 0.75539 0.31735 0.0
C900 C 0.54649 0.76238 0.34486 0.0
C901 C 0.56797 0.80167 0.34548 0.0
C902 C 0.70137 0.51233 0.36562 0.0
C903 C 0.71232 0.53034 0.3973 0.0
C904 C 0.66331 0.52214 0.34963 0.0
C905 C 0.63426 0.54912 0.36514 0.0
H906 H 0.72381 0.49354 0.3515 0.0
H907 H 0.65792 0.5113 0.3238 0.0
S908 S 0.64238 0.59597 0.45125 0.0
N909 N 0.68716 0.57037 0.44621 0.0
N910 N 0.61511 0.5879 0.41599 0.0
C911 C 0.64204 0.56272 0.39857 0.0
C912 C 0.68121 0.55338 0.41479 0.0
C913 C 0.91248 0.69566 0.45088 0.0
C914 C 0.91689 0.66384 0.4264 0.0
C915 C 0.93676 0.73239 0.44918 0.0
C916 C 0.96578 0.73887 0.42247 0.0
H917 H 0.88794 0.69332 0.46999 0.0
H918 H 0.93 0.7572 0.46724 0.0
S919 S 0.99324 0.662 0.3549 0.0
N920 N 0.95565 0.63878 0.37709 0.0
N921 N 0.00164 0.70752 0.37383 0.0
C922 C 0.97336 0.70536 0.39983 0.0
C923 C 0.94875 0.6679 0.40176 0.0
C924 C 0.79256 0.57265 0.08914 0.0
C925 C 0.82348 0.56011 0.11263 0.0
C926 C 0.75751 0.54737 0.08254 0.0
C927 C 0.75222 0.50856 0.09914 0.0
H928 H 0.79475 0.60304 0.0768 0.0
H929 H 0.73329 0.55925 0.06561 0.0
S930 S 0.82499 0.46083 0.16218 0.0
N931 N 0.8475 0.50584 0.15168 0.0
N932 N 0.78156 0.45795 0.13913 0.0
C933 C 0.78412 0.49447 0.12122 0.0
C934 C 0.81983 0.52039 0.12804 0.0
C935 C 0.96126 0.76022 0.10328 0.0
C936 C 0.94306 0.72709 0.0845 0.0
C937 C 0.94116 0.79918 0.10592 0.0
C938 C 0.90232 0.80615 0.08988 0.0
H939 H 0.98939 0.75507 0.11833 0.0
H940 H 0.95415 0.82255 0.12299 0.0
S941 S 0.84673 0.73415 0.03107 0.0
N942 N 0.8879 0.70708 0.04437 0.0
N943 N 0.8503 0.78043 0.04979 0.0
C944 C 0.88644 0.77533 0.06787 0.0
C945 C 0.9069 0.73575 0.06493 0.0
C946 C 0.7168 0.92802 0.05887 0.0
C947 C 0.73483 0.94258 0.0894 0.0
C948 C 0.67568 0.91213 0.05818 0.0
C949 C 0.65103 0.90988 0.088 0.0
H950 H 0.73522 0.92701 0.03561 0.0
H951 H 0.6637 0.89972 0.03437 0.0
S952 S 0.68179 0.94777 0.174 0.0
N953 N 0.72318 0.95742 0.14975 0.0
N954 N 0.64649 0.92647 0.14844 0.0
C955 C 0.66752 0.927 0.11822 0.0
C956 C 0.70929 0.94361 0.11891 0.0
C957 C 0.50403 0.64801 0.08147 0.0
C958 C 0.54799 0.64357 0.079 0.0
C959 C 0.48605 0.68516 0.09427 0.0
C960 C 0.51173 0.71843 0.1053 0.0
H961 H 0.48368 0.62227 0.0741 0.0
H962 H 0.45212 0.68752 0.09629 0.0
S963 S 0.62828 0.72028 0.10782 0.0
N964 N 0.61644 0.67451 0.09053 0.0
N965 N 0.5828 0.74348 0.11541 0.0
C966 C 0.55556 0.71402 0.10343 0.0
C967 C 0.57372 0.67676 0.09003 0.0
loop_
_geom_bond_atom_site_label_1
_geom_bond_atom_site_label_2
_geom_bond_distance
_geom_bond_site_symmetry_2
_ccdc_geom_bond_type
Co0 N4 2.148 . S
Co0 N10 2.128 1_455 S
Co0 N20 2.194 1_455 S
Co0 O25 2.351 1_455 S
Co0 O26 2.155 . S
Co0 O27 2.096 . S
C1 N4 1.301 . S
C1 N5 1.328 . S
C1 H6 0.930 . S
C2 C3 1.333 . S
C2 N4 1.317 . S
C2 H7 0.930 . S
C3 C2 1.333 . S
C3 N5 1.350 . S
C3 H29 0.931 . S
N4 Co0 2.148 . S
N4 C1 1.301 . S
N4 C2 1.317 . S
N5 C1 1.328 . S
N5 C3 1.350 . S
H6 C1 0.930 . S
H7 C2 0.930 . S
C8 O9 1.224 . S
C8 O27 1.247 . S
O9 C8 1.224 . S
N10 Co0 2.128 1_655 S
N10 C11 1.355 . S
N10 C13 1.311 . S
C11 N10 1.355 . S
C11 C12 1.363 . S
C11 H23 0.929 . S
C12 C11 1.363 . S
C12 N14 1.375 . S
C12 H30 0.931 . S
C13 N10 1.311 . S
C13 N14 1.347 . S
C13 H24 0.929 . S
N14 C12 1.375 . S
N14 C13 1.347 . S
C15 C18 1.365 . S
C15 N20 1.328 . S
C15 H21 0.929 . S
C16 C17 1.362 . S
C16 C19 1.378 . S
C16 H31 0.929 . S
C17 C16 1.362 . S
C17 C18 1.366 . S
C18 C15 1.365 . S
C18 C17 1.366 . S
C18 H32 0.930 . S
C19 C16 1.378 . S
C19 N20 1.315 . S
C19 H22 0.930 . S
N20 Co0 2.194 1_655 S
N20 C15 1.328 . S
N20 C19 1.315 . S
H21 C15 0.929 . S
H22 C19 0.930 . S
H23 C11 0.929 . S
H24 C13 0.929 . S
O25 Co0 2.351 1_655 S
O25 C28 1.244 1_655 S
O26 Co0 2.155 . S
O26 C28 1.240 . S
O27 Co0 2.096 . S
O27 C8 1.247 . S
C28 O25 1.244 1_455 S
C28 O26 1.240 . S
H29 C3 0.931 . S
H30 C12 0.931 . S
H31 C16 0.929 . S
H32 C18 0.930 . S
Co33 N37 2.148 . S
Co33 N43 2.128 1_545 S
Co33 N53 2.194 1_545 S
Co33 O58 2.351 1_545 S
Co33 O59 2.155 . S
Co33 O60 2.096 . S
C34 N37 1.301 . S
C34 N38 1.328 . S
C34 H39 0.930 . S
C35 C36 1.333 . S
C35 N37 1.317 . S
C35 H40 0.930 . S
C36 C35 1.333 . S
C36 N38 1.350 . S
C36 H62 0.931 . S
N37 Co33 2.148 . S
N37 C34 1.301 . S
N37 C35 1.317 . S
N38 C34 1.328 . S
N38 C36 1.350 . S
H39 C34 0.930 . S
H40 C35 0.930 . S
C41 O42 1.224 . S
C41 O60 1.247 . S
O42 C41 1.224 . S
N43 Co33 2.128 1_565 S
N43 C44 1.355 . S
N43 C46 1.311 . S
C44 N43 1.355 . S
C44 C45 1.363 . S
C44 H56 0.929 . S
C45 C44 1.363 . S
C45 N47 1.375 . S
C45 H63 0.931 . S
C46 N43 1.311 . S
C46 N47 1.347 . S
C46 H57 0.929 . S
N47 C45 1.375 . S
N47 C46 1.347 . S
C48 C51 1.365 . S
C48 N53 1.328 . S
C48 H54 0.929 . S
C49 C50 1.362 . S
C49 C52 1.378 . S
C49 H64 0.929 . S
C50 C49 1.362 . S
C50 C51 1.366 . S
C51 C48 1.365 . S
C51 C50 1.366 . S
C51 H65 0.930 . S
C52 C49 1.378 . S
C52 N53 1.315 . S
C52 H55 0.930 . S
N53 Co33 2.194 1_565 S
N53 C48 1.328 . S
N53 C52 1.315 . S
H54 C48 0.929 . S
H55 C52 0.930 . S
H56 C44 0.929 . S
H57 C46 0.929 . S
O58 Co33 2.351 1_565 S
O58 C61 1.244 1_565 S
O59 Co33 2.155 . S
O59 C61 1.240 . S
O60 Co33 2.096 . S
O60 C41 1.247 . S
C61 O58 1.244 1_545 S
C61 O59 1.240 . S
H62 C36 0.931 . S
H63 C45 0.931 . S
H64 C49 0.929 . S
H65 C51 0.930 . S
Co66 N70 2.148 . S
Co66 N76 2.128 . S
Co66 N86 2.194 . S
Co66 O91 2.351 . S
Co66 O92 2.155 . S
Co66 O93 2.096 . S
C67 N70 1.301 . S
C67 N71 1.328 . S
C67 H72 0.930 . S
C68 C69 1.333 . S
C68 N70 1.317 . S
C68 H73 0.930 . S
C69 C68 1.333 . S
C69 N71 1.350 . S
C69 H95 0.931 . S
N70 Co66 2.148 . S
N70 C67 1.301 . S
N70 C68 1.317 . S
N71 C67 1.328 . S
N71 C69 1.350 . S
H72 C67 0.930 . S
H73 C68 0.930 . S
C74 O75 1.224 . S
C74 O93 1.247 . S
O75 C74 1.224 . S
N76 Co66 2.128 . S
N76 C77 1.355 . S
N76 C79 1.311 . S
C77 N76 1.355 . S
C77 C78 1.363 . S
C77 H89 0.929 . S
C78 C77 1.363 . S
C78 N80 1.375 . S
C78 H96 0.931 . S
C79 N76 1.311 . S
C79 N80 1.347 . S
C79 H90 0.929 . S
N80 C78 1.375 . S
N80 C79 1.347 . S
C81 C84 1.365 . S
C81 N86 1.328 . S
C81 H87 0.929 . S
C82 C83 1.362 . S
C82 C85 1.378 . S
C82 H97 0.929 . S
C83 C82 1.362 . S
C83 C84 1.366 . S
C84 C81 1.365 . S
C84 C83 1.366 . S
C84 H98 0.930 . S
C85 C82 1.378 . S
C85 N86 1.315 . S
C85 H88 0.930 . S
N86 Co66 2.194 . S
N86 C81 1.328 . S
N86 C85 1.315 . S
H87 C81 0.929 . S
H88 C85 0.930 . S
H89 C77 0.929 . S
H90 C79 0.929 . S
O91 Co66 2.351 . S
O91 C94 1.244 . S
O92 Co66 2.155 . S
O92 C94 1.240 . S
O93 Co66 2.096 . S
O93 C74 1.247 . S
C94 O91 1.244 . S
C94 O92 1.240 . S
H95 C69 0.931 . S
H96 C78 0.931 . S
H97 C82 0.929 . S
H98 C84 0.930 . S
Co99 N103 2.148 . S
Co99 N109 2.128 . S
Co99 N119 2.194 . S
Co99 O124 2.351 . S
Co99 O125 2.155 . S
Co99 O126 2.096 . S
C100 N103 1.301 . S
C100 N104 1.328 . S
C100 H105 0.930 . S
C101 C102 1.333 . S
C101 N103 1.317 . S
C101 H106 0.930 . S
C102 C101 1.333 . S
C102 N104 1.350 . S
C102 H128 0.931 . S
N103 Co99 2.148 . S
N103 C100 1.301 . S
N103 C101 1.317 . S
N104 C100 1.328 . S
N104 C102 1.350 . S
H105 C100 0.930 . S
H106 C101 0.930 . S
C107 O108 1.224 . S
C107 O126 1.247 . S
O108 C107 1.224 . S
N109 Co99 2.128 . S
N109 C110 1.355 . S
N109 C112 1.311 . S
C110 N109 1.355 . S
C110 C111 1.363 . S
C110 H122 0.929 . S
C111 C110 1.363 . S
C111 N113 1.375 . S
C111 H129 0.931 . S
C112 N109 1.311 . S
C112 N113 1.347 . S
C112 H123 0.929 . S
N113 C111 1.375 . S
N113 C112 1.347 . S
C114 C117 1.365 . S
C114 N119 1.328 . S
C114 H120 0.929 . S
C115 C116 1.362 . S
C115 C118 1.378 . S
C115 H130 0.929 . S
C116 C115 1.362 . S
C116 C117 1.366 . S
C117 C114 1.365 . S
C117 C116 1.366 . S
C117 H131 0.930 . S
C118 C115 1.378 . S
C118 N119 1.315 . S
C118 H121 0.930 . S
N119 Co99 2.194 . S
N119 C114 1.328 . S
N119 C118 1.315 . S
H120 C114 0.929 . S
H121 C118 0.930 . S
H122 C110 0.929 . S
H123 C112 0.929 . S
O124 Co99 2.351 . S
O124 C127 1.244 . S
O125 Co99 2.155 . S
O125 C127 1.240 . S
O126 Co99 2.096 . S
O126 C107 1.247 . S
C127 O124 1.244 . S
C127 O125 1.240 . S
H128 C102 0.931 . S
H129 C111 0.931 . S
H130 C115 0.929 . S
H131 C117 0.930 . S
Co132 N136 2.148 . S
Co132 N142 2.128 1_455 S
Co132 N152 2.194 1_455 S
Co132 O157 2.351 1_455 S
Co132 O158 2.155 . S
Co132 O159 2.096 . S
C133 N136 1.301 . S
C133 N137 1.328 . S
C133 H138 0.930 . S
C134 C135 1.333 . S
C134 N136 1.317 . S
C134 H139 0.930 . S
C135 C134 1.333 . S
C135 N137 1.350 . S
C135 H161 0.931 . S
N136 Co132 2.148 . S
N136 C133 1.301 . S
N136 C134 1.317 . S
N137 C133 1.328 . S
N137 C135 1.350 . S
H138 C133 0.930 . S
H139 C134 0.930 . S
C140 O141 1.224 . S
C140 O159 1.247 . S
O141 C140 1.224 . S
N142 Co132 2.128 1_655 S
N142 C143 1.355 . S
N142 C145 1.311 . S
C143 N142 1.355 . S
C143 C144 1.363 . S
C143 H155 0.929 . S
C144 C143 1.363 . S
C144 N146 1.375 . S
C144 H162 0.931 . S
C145 N142 1.311 . S
C145 N146 1.347 . S
C145 H156 0.929 . S
N146 C144 1.375 . S
N146 C145 1.347 . S
C147 C150 1.365 . S
C147 N152 1.328 . S
C147 H153 0.929 . S
C148 C149 1.362 . S
C148 C151 1.378 . S
C148 H163 0.929 . S
C149 C148 1.362 . S
C149 C150 1.366 . S
C150 C147 1.365 . S
C150 C149 1.366 . S
C150 H164 0.930 . S
C151 C148 1.378 . S
C151 N152 1.315 . S
C151 H154 0.930 . S
N152 Co132 2.194 1_655 S
N152 C147 1.328 . S
N152 C151 1.315 . S
H153 C147 0.929 . S
H154 C151 0.930 . S
H155 C143 0.929 . S
H156 C145 0.929 . S
O157 Co132 2.351 1_655 S
O157 C160 1.244 1_655 S
O158 Co132 2.155 . S
O158 C160 1.240 . S
O159 Co132 2.096 . S
O159 C140 1.247 . S
C160 O157 1.244 1_455 S
C160 O158 1.240 . S
H161 C135 0.931 . S
H162 C144 0.931 . S
H163 C148 0.929 . S
H164 C150 0.930 . S
Co165 N169 2.148 . S
Co165 N175 2.128 1_545 S
Co165 N185 2.194 1_545 S
Co165 O190 2.351 1_545 S
Co165 O191 2.155 . S
Co165 O192 2.096 . S
C166 N169 1.301 . S
C166 N170 1.328 . S
C166 H171 0.930 . S
C167 C168 1.333 . S
C167 N169 1.317 . S
C167 H172 0.930 . S
C168 C167 1.333 . S
C168 N170 1.350 . S
C168 H194 0.931 . S
N169 Co165 2.148 . S
N169 C166 1.301 . S
N169 C167 1.317 . S
N170 C166 1.328 . S
N170 C168 1.350 . S
H171 C166 0.930 . S
H172 C167 0.930 . S
C173 O174 1.224 . S
C173 O192 1.247 . S
O174 C173 1.224 . S
N175 Co165 2.128 1_565 S
N175 C176 1.355 . S
N175 C178 1.311 . S
C176 N175 1.355 . S
C176 C177 1.363 . S
C176 H188 0.929 . S
C177 C176 1.363 . S
C177 N179 1.375 . S
C177 H195 0.931 . S
C178 N175 1.311 . S
C178 N179 1.347 . S
C178 H189 0.929 . S
N179 C177 1.375 . S
N179 C178 1.347 . S
C180 C183 1.365 . S
C180 N185 1.328 . S
C180 H186 0.929 . S
C181 C182 1.362 . S
C181 C184 1.378 . S
C181 H196 0.929 . S
C182 C181 1.362 . S
C182 C183 1.366 . S
C183 C180 1.365 . S
C183 C182 1.366 . S
C183 H197 0.930 . S
C184 C181 1.378 . S
C184 N185 1.315 . S
C184 H187 0.930 . S
N185 Co165 2.194 1_565 S
N185 C180 1.328 . S
N185 C184 1.315 . S
H186 C180 0.929 . S
H187 C184 0.930 . S
H188 C176 0.929 . S
H189 C178 0.929 . S
O190 Co165 2.351 1_565 S
O190 C193 1.244 1_565 S
O191 Co165 2.155 . S
O191 C193 1.240 . S
O192 Co165 2.096 . S
O192 C173 1.247 . S
C193 O190 1.244 1_545 S
C193 O191 1.240 . S
H194 C168 0.931 . S
H195 C177 0.931 . S
H196 C181 0.929 . S
H197 C183 0.930 . S
Co198 N202 2.148 . S
Co198 N208 2.128 . S
Co198 N218 2.194 . S
Co198 O223 2.351 . S
Co198 O224 2.155 . S
Co198 O225 2.096 . S
C199 N202 1.301 . S
C199 N203 1.328 . S
C199 H204 0.930 . S
C200 C201 1.333 . S
C200 N202 1.317 . S
C200 H205 0.930 . S
C201 C200 1.333 . S
C201 N203 1.350 . S
C201 H227 0.931 . S
N202 Co198 2.148 . S
N202 C199 1.301 . S
N202 C200 1.317 . S
N203 C199 1.328 . S
N203 C201 1.350 . S
H204 C199 0.930 . S
H205 C200 0.930 . S
C206 O207 1.224 . S
C206 O225 1.247 . S
O207 C206 1.224 . S
N208 Co198 2.128 . S
N208 C209 1.355 . S
N208 C211 1.311 . S
C209 N208 1.355 . S
C209 C210 1.363 . S
C209 H221 0.929 . S
C210 C209 1.363 . S
C210 N212 1.375 . S
C210 H228 0.931 . S
C211 N208 1.311 . S
C211 N212 1.347 . S
C211 H222 0.929 . S
N212 C210 1.375 . S
N212 C211 1.347 . S
C213 C216 1.365 . S
C213 N218 1.328 . S
C213 H219 0.929 . S
C214 C215 1.362 . S
C214 C217 1.378 . S
C214 H229 0.929 . S
C215 C214 1.362 . S
C215 C216 1.366 . S
C216 C213 1.365 . S
C216 C215 1.366 . S
C216 H230 0.930 . S
C217 C214 1.378 . S
C217 N218 1.315 . S
C217 H220 0.930 . S
N218 Co198 2.194 . S
N218 C213 1.328 . S
N218 C217 1.315 . S
H219 C213 0.929 . S
H220 C217 0.930 . S
H221 C209 0.929 . S
H222 C211 0.929 . S
O223 Co198 2.351 . S
O223 C226 1.244 . S
O224 Co198 2.155 . S
O224 C226 1.240 . S
O225 Co198 2.096 . S
O225 C206 1.247 . S
C226 O223 1.244 . S
C226 O224 1.240 . S
H227 C201 0.931 . S
H228 C210 0.931 . S
H229 C214 0.929 . S
H230 C216 0.930 . S
Co231 N235 2.148 . S
Co231 N241 2.128 . S
Co231 N251 2.194 . S
Co231 O256 2.351 . S
Co231 O257 2.155 . S
Co231 O258 2.096 . S
C232 N235 1.301 . S
C232 N236 1.328 . S
C232 H237 0.930 . S
C233 C234 1.333 . S
C233 N235 1.317 . S
C233 H238 0.930 . S
C234 C233 1.333 . S
C234 N236 1.350 . S
C234 H260 0.931 . S
N235 Co231 2.148 . S
N235 C232 1.301 . S
N235 C233 1.317 . S
N236 C232 1.328 . S
N236 C234 1.350 . S
H237 C232 0.930 . S
H238 C233 0.930 . S
C239 O240 1.224 . S
C239 O258 1.247 . S
O240 C239 1.224 . S
N241 Co231 2.128 . S
N241 C242 1.355 . S
N241 C244 1.311 . S
C242 N241 1.355 . S
C242 C243 1.363 . S
C242 H254 0.929 . S
C243 C242 1.363 . S
C243 N245 1.375 . S
C243 H261 0.931 . S
C244 N241 1.311 . S
C244 N245 1.347 . S
C244 H255 0.929 . S
N245 C243 1.375 . S
N245 C244 1.347 . S
C246 C249 1.365 . S
C246 N251 1.328 . S
C246 H252 0.929 . S
C247 C248 1.362 . S
C247 C250 1.378 . S
C247 H262 0.929 . S
C248 C247 1.362 . S
C248 C249 1.366 . S
C249 C246 1.365 . S
C249 C248 1.366 . S
C249 H263 0.930 . S
C250 C247 1.378 . S
C250 N251 1.315 . S
C250 H253 0.930 . S
N251 Co231 2.194 . S
N251 C246 1.328 . S
N251 C250 1.315 . S
H252 C246 0.929 . S
H253 C250 0.930 . S
H254 C242 0.929 . S
H255 C244 0.929 . S
O256 Co231 2.351 . S
O256 C259 1.244 . S
O257 Co231 2.155 . S
O257 C259 1.240 . S
O258 Co231 2.096 . S
O258 C239 1.247 . S
C259 O256 1.244 . S
C259 O257 1.240 . S
H260 C234 0.931 . S
H261 C243 0.931 . S
H262 C247 0.929 . S
H263 C249 0.930 . S
Co264 N268 2.148 . S
Co264 N274 2.128 1_655 S
Co264 N284 2.194 1_655 S
Co264 O289 2.351 1_655 S
Co264 O290 2.155 . S
Co264 O291 2.096 . S
C265 N268 1.301 . S
C265 N269 1.328 . S
C265 H270 0.930 . S
C266 C267 1.333 . S
C266 N268 1.317 . S
C266 H271 0.930 . S
C267 C266 1.333 . S
C267 N269 1.350 . S
C267 H293 0.931 . S
N268 Co264 2.148 . S
N268 C265 1.301 . S
N268 C266 1.317 . S
N269 C265 1.328 . S
N269 C267 1.350 . S
H270 C265 0.930 . S
H271 C266 0.930 . S
C272 O273 1.224 . S
C272 O291 1.247 . S
O273 C272 1.224 . S
N274 Co264 2.128 1_455 S
N274 C275 1.355 . S
N274 C277 1.311 . S
C275 N274 1.355 . S
C275 C276 1.363 . S
C275 H287 0.929 . S
C276 C275 1.363 . S
C276 N278 1.375 . S
C276 H294 0.931 . S
C277 N274 1.311 . S
C277 N278 1.347 . S
C277 H288 0.929 . S
N278 C276 1.375 . S
N278 C277 1.347 . S
C279 C282 1.365 . S
C279 N284 1.328 . S
C279 H285 0.929 . S
C280 C281 1.362 . S
C280 C283 1.378 . S
C280 H295 0.929 . S
C281 C280 1.362 . S
C281 C282 1.366 . S
C282 C279 1.365 . S
C282 C281 1.366 . S
C282 H296 0.930 . S
C283 C280 1.378 . S
C283 N284 1.315 . S
C283 H286 0.930 . S
N284 Co264 2.194 1_455 S
N284 C279 1.328 . S
N284 C283 1.315 . S
H285 C279 0.929 . S
H286 C283 0.930 . S
H287 C275 0.929 . S
H288 C277 0.929 . S
O289 Co264 2.351 1_455 S
O289 C292 1.244 1_455 S
O290 Co264 2.155 . S
O290 C292 1.240 . S
O291 Co264 2.096 . S
O291 C272 1.247 . S
C292 O289 1.244 1_655 S
C292 O290 1.240 . S
H293 C267 0.931 . S
H294 C276 0.931 . S
H295 C280 0.929 . S
H296 C282 0.930 . S
Co297 N301 2.148 . S
Co297 N307 2.128 1_565 S
Co297 N317 2.194 1_565 S
Co297 O322 2.351 1_565 S
Co297 O323 2.155 . S
Co297 O324 2.096 . S
C298 N301 1.301 . S
C298 N302 1.328 . S
C298 H303 0.930 . S
C299 C300 1.333 . S
C299 N301 1.317 . S
C299 H304 0.930 . S
C300 C299 1.333 . S
C300 N302 1.350 . S
C300 H326 0.931 . S
N301 Co297 2.148 . S
N301 C298 1.301 . S
N301 C299 1.317 . S
N302 C298 1.328 . S
N302 C300 1.350 . S
H303 C298 0.930 . S
H304 C299 0.930 . S
C305 O306 1.224 . S
C305 O324 1.247 . S
O306 C305 1.224 . S
N307 Co297 2.128 1_545 S
N307 C308 1.355 . S
N307 C310 1.311 . S
C308 N307 1.355 . S
C308 C309 1.363 . S
C308 H320 0.929 . S
C309 C308 1.363 . S
C309 N311 1.375 . S
C309 H327 0.931 . S
C310 N307 1.311 . S
C310 N311 1.347 . S
C310 H321 0.929 . S
N311 C309 1.375 . S
N311 C310 1.347 . S
C312 C315 1.365 . S
C312 N317 1.328 . S
C312 H318 0.929 . S
C313 C314 1.362 . S
C313 C316 1.378 . S
C313 H328 0.929 . S
C314 C313 1.362 . S
C314 C315 1.366 . S
C315 C312 1.365 . S
C315 C314 1.366 . S
C315 H329 0.930 . S
C316 C313 1.378 . S
C316 N317 1.315 . S
C316 H319 0.930 . S
N317 Co297 2.194 1_545 S
N317 C312 1.328 . S
N317 C316 1.315 . S
H318 C312 0.929 . S
H319 C316 0.930 . S
H320 C308 0.929 . S
H321 C310 0.929 . S
O322 Co297 2.351 1_545 S
O322 C325 1.244 1_545 S
O323 Co297 2.155 . S
O323 C325 1.240 . S
O324 Co297 2.096 . S
O324 C305 1.247 . S
C325 O322 1.244 1_565 S
C325 O323 1.240 . S
H326 C300 0.931 . S
H327 C309 0.931 . S
H328 C313 0.929 . S
H329 C315 0.930 . S
Co330 N334 2.148 . S
Co330 N340 2.128 . S
Co330 N350 2.194 . S
Co330 O355 2.351 . S
Co330 O356 2.155 . S
Co330 O357 2.096 . S
C331 N334 1.301 . S
C331 N335 1.328 . S
C331 H336 0.930 . S
C332 C333 1.333 . S
C332 N334 1.317 . S
C332 H337 0.930 . S
C333 C332 1.333 . S
C333 N335 1.350 . S
C333 H359 0.931 . S
N334 Co330 2.148 . S
N334 C331 1.301 . S
N334 C332 1.317 . S
N335 C331 1.328 . S
N335 C333 1.350 . S
H336 C331 0.930 . S
H337 C332 0.930 . S
C338 O339 1.224 . S
C338 O357 1.247 . S
O339 C338 1.224 . S
N340 Co330 2.128 . S
N340 C341 1.355 . S
N340 C343 1.311 . S
C341 N340 1.355 . S
C341 C342 1.363 . S
C341 H353 0.929 . S
C342 C341 1.363 . S
C342 N344 1.375 . S
C342 H360 0.931 . S
C343 N340 1.311 . S
C343 N344 1.347 . S
C343 H354 0.929 . S
N344 C342 1.375 . S
N344 C343 1.347 . S
C345 C348 1.365 . S
C345 N350 1.328 . S
C345 H351 0.929 . S
C346 C347 1.362 . S
C346 C349 1.378 . S
C346 H361 0.929 . S
C347 C346 1.362 . S
C347 C348 1.366 . S
C348 C345 1.365 . S
C348 C347 1.366 . S
C348 H362 0.930 . S
C349 C346 1.378 . S
C349 N350 1.315 . S
C349 H352 0.930 . S
N350 Co330 2.194 . S
N350 C345 1.328 . S
N350 C349 1.315 . S
H351 C345 0.929 . S
H352 C349 0.930 . S
H353 C341 0.929 . S
H354 C343 0.929 . S
O355 Co330 2.351 . S
O355 C358 1.244 . S
O356 Co330 2.155 . S
O356 C358 1.240 . S
O357 Co330 2.096 . S
O357 C338 1.247 . S
C358 O355 1.244 . S
C358 O356 1.240 . S
H359 C333 0.931 . S
H360 C342 0.931 . S
H361 C346 0.929 . S
H362 C348 0.930 . S
Co363 N367 2.148 . S
Co363 N373 2.128 . S
Co363 N383 2.194 . S
Co363 O388 2.351 . S
Co363 O389 2.155 . S
Co363 O390 2.096 . S
C364 N367 1.301 . S
C364 N368 1.328 . S
C364 H369 0.930 . S
C365 C366 1.333 . S
C365 N367 1.317 . S
C365 H370 0.930 . S
C366 C365 1.333 . S
C366 N368 1.350 . S
C366 H392 0.931 . S
N367 Co363 2.148 . S
N367 C364 1.301 . S
N367 C365 1.317 . S
N368 C364 1.328 . S
N368 C366 1.350 . S
H369 C364 0.930 . S
H370 C365 0.930 . S
C371 O372 1.224 . S
C371 O390 1.247 . S
O372 C371 1.224 . S
N373 Co363 2.128 . S
N373 C374 1.355 . S
N373 C376 1.311 . S
C374 N373 1.355 . S
C374 C375 1.363 . S
C374 H386 0.929 . S
C375 C374 1.363 . S
C375 N377 1.375 . S
C375 H393 0.931 . S
C376 N373 1.311 . S
C376 N377 1.347 . S
C376 H387 0.929 . S
N377 C375 1.375 . S
N377 C376 1.347 . S
C378 C381 1.365 . S
C378 N383 1.328 . S
C378 H384 0.929 . S
C379 C380 1.362 . S
C379 C382 1.378 . S
C379 H394 0.929 . S
C380 C379 1.362 . S
C380 C381 1.366 . S
C381 C378 1.365 . S
C381 C380 1.366 . S
C381 H395 0.930 . S
C382 C379 1.378 . S
C382 N383 1.315 . S
C382 H385 0.930 . S
N383 Co363 2.194 . S
N383 C378 1.328 . S
N383 C382 1.315 . S
H384 C378 0.929 . S
H385 C382 0.930 . S
H386 C374 0.929 . S
H387 C376 0.929 . S
O388 Co363 2.351 . S
O388 C391 1.244 . S
O389 Co363 2.155 . S
O389 C391 1.240 . S
O390 Co363 2.096 . S
O390 C371 1.247 . S
C391 O388 1.244 . S
C391 O389 1.240 . S
H392 C366 0.931 . S
H393 C375 0.931 . S
H394 C379 0.929 . S
H395 C381 0.930 . S
Co396 N400 2.148 . S
Co396 N406 2.128 1_655 S
Co396 N416 2.194 1_655 S
Co396 O421 2.351 1_655 S
Co396 O422 2.155 . S
Co396 O423 2.096 . S
C397 N400 1.301 . S
C397 N401 1.328 . S
C397 H402 0.930 . S
C398 C399 1.333 . S
C398 N400 1.317 . S
C398 H403 0.930 . S
C399 C398 1.333 . S
C399 N401 1.350 . S
C399 H425 0.931 . S
N400 Co396 2.148 . S
N400 C397 1.301 . S
N400 C398 1.317 . S
N401 C397 1.328 . S
N401 C399 1.350 . S
H402 C397 0.930 . S
H403 C398 0.930 . S
C404 O405 1.224 . S
C404 O423 1.247 . S
O405 C404 1.224 . S
N406 Co396 2.128 1_455 S
N406 C407 1.355 . S
N406 C409 1.311 . S
C407 N406 1.355 . S
C407 C408 1.363 . S
C407 H419 0.929 . S
C408 C407 1.363 . S
C408 N410 1.375 . S
C408 H426 0.931 . S
C409 N406 1.311 . S
C409 N410 1.347 . S
C409 H420 0.929 . S
N410 C408 1.375 . S
N410 C409 1.347 . S
C411 C414 1.365 . S
C411 N416 1.328 . S
C411 H417 0.929 . S
C412 C413 1.362 . S
C412 C415 1.378 . S
C412 H427 0.929 . S
C413 C412 1.362 . S
C413 C414 1.366 . S
C414 C411 1.365 . S
C414 C413 1.366 . S
C414 H428 0.930 . S
C415 C412 1.378 . S
C415 N416 1.315 . S
C415 H418 0.930 . S
N416 Co396 2.194 1_455 S
N416 C411 1.328 . S
N416 C415 1.315 . S
H417 C411 0.929 . S
H418 C415 0.930 . S
H419 C407 0.929 . S
H420 C409 0.929 . S
O421 Co396 2.351 1_455 S
O421 C424 1.244 1_455 S
O422 Co396 2.155 . S
O422 C424 1.240 . S
O423 Co396 2.096 . S
O423 C404 1.247 . S
C424 O421 1.244 1_655 S
C424 O422 1.240 . S
H425 C399 0.931 . S
H426 C408 0.931 . S
H427 C412 0.929 . S
H428 C414 0.930 . S
Co429 N433 2.148 . S
Co429 N439 2.128 1_565 S
Co429 N449 2.194 1_565 S
Co429 O454 2.351 1_565 S
Co429 O455 2.155 . S
Co429 O456 2.096 . S
C430 N433 1.301 . S
C430 N434 1.328 . S
C430 H435 0.930 . S
C431 C432 1.333 . S
C431 N433 1.317 . S
C431 H436 0.930 . S
C432 C431 1.333 . S
C432 N434 1.350 . S
C432 H458 0.931 . S
N433 Co429 2.148 . S
N433 C430 1.301 . S
N433 C431 1.317 . S
N434 C430 1.328 . S
N434 C432 1.350 . S
H435 C430 0.930 . S
H436 C431 0.930 . S
C437 O438 1.224 . S
C437 O456 1.247 . S
O438 C437 1.224 . S
N439 Co429 2.128 1_545 S
N439 C440 1.355 . S
N439 C442 1.311 . S
C440 N439 1.355 . S
C440 C441 1.363 . S
C440 H452 0.929 . S
C441 C440 1.363 . S
C441 N443 1.375 . S
C441 H459 0.931 . S
C442 N439 1.311 . S
C442 N443 1.347 . S
C442 H453 0.929 . S
N443 C441 1.375 . S
N443 C442 1.347 . S
C444 C447 1.365 . S
C444 N449 1.328 . S
C444 H450 0.929 . S
C445 C446 1.362 . S
C445 C448 1.378 . S
C445 H460 0.929 . S
C446 C445 1.362 . S
C446 C447 1.366 . S
C447 C444 1.365 . S
C447 C446 1.366 . S
C447 H461 0.930 . S
C448 C445 1.378 . S
C448 N449 1.315 . S
C448 H451 0.930 . S
N449 Co429 2.194 1_545 S
N449 C444 1.328 . S
N449 C448 1.315 . S
H450 C444 0.929 . S
H451 C448 0.930 . S
H452 C440 0.929 . S
H453 C442 0.929 . S
O454 Co429 2.351 1_545 S
O454 C457 1.244 1_545 S
O455 Co429 2.155 . S
O455 C457 1.240 . S
O456 Co429 2.096 . S
O456 C437 1.247 . S
C457 O454 1.244 1_565 S
C457 O455 1.240 . S
H458 C432 0.931 . S
H459 C441 0.931 . S
H460 C445 0.929 . S
H461 C447 0.930 . S
Co462 N466 2.148 . S
Co462 N472 2.128 . S
Co462 N482 2.194 . S
Co462 O487 2.351 . S
Co462 O488 2.155 . S
Co462 O489 2.096 . S
C463 N466 1.301 . S
C463 N467 1.328 . S
C463 H468 0.930 . S
C464 C465 1.333 . S
C464 N466 1.317 . S
C464 H469 0.930 . S
C465 C464 1.333 . S
C465 N467 1.350 . S
C465 H491 0.931 . S
N466 Co462 2.148 . S
N466 C463 1.301 . S
N466 C464 1.317 . S
N467 C463 1.328 . S
N467 C465 1.350 . S
H468 C463 0.930 . S
H469 C464 0.930 . S
C470 O471 1.224 . S
C470 O489 1.247 . S
O471 C470 1.224 . S
N472 Co462 2.128 . S
N472 C473 1.355 . S
N472 C475 1.311 . S
C473 N472 1.355 . S
C473 C474 1.363 . S
C473 H485 0.929 . S
C474 C473 1.363 . S
C474 N476 1.375 . S
C474 H492 0.931 . S
C475 N472 1.311 . S
C475 N476 1.347 . S
C475 H486 0.929 . S
N476 C474 1.375 . S
N476 C475 1.347 . S
C477 C480 1.365 . S
C477 N482 1.328 . S
C477 H483 0.929 . S
C478 C479 1.362 . S
C478 C481 1.378 . S
C478 H493 0.929 . S
C479 C478 1.362 . S
C479 C480 1.366 . S
C480 C477 1.365 . S
C480 C479 1.366 . S
C480 H494 0.930 . S
C481 C478 1.378 . S
C481 N482 1.315 . S
C481 H484 0.930 . S
N482 Co462 2.194 . S
N482 C477 1.328 . S
N482 C481 1.315 . S
H483 C477 0.929 . S
H484 C481 0.930 . S
H485 C473 0.929 . S
H486 C475 0.929 . S
O487 Co462 2.351 . S
O487 C490 1.244 . S
O488 Co462 2.155 . S
O488 C490 1.240 . S
O489 Co462 2.096 . S
O489 C470 1.247 . S
C490 O487 1.244 . S
C490 O488 1.240 . S
H491 C465 0.931 . S
H492 C474 0.931 . S
H493 C478 0.929 . S
H494 C480 0.930 . S
Co495 N499 2.148 . S
Co495 N505 2.128 . S
Co495 N515 2.194 . S
Co495 O520 2.351 . S
Co495 O521 2.155 . S
Co495 O522 2.096 . S
C496 N499 1.301 . S
C496 N500 1.328 . S
C496 H501 0.930 . S
C497 C498 1.333 . S
C497 N499 1.317 . S
C497 H502 0.930 . S
C498 C497 1.333 . S
C498 N500 1.350 . S
C498 H524 0.931 . S
N499 Co495 2.148 . S
N499 C496 1.301 . S
N499 C497 1.317 . S
N500 C496 1.328 . S
N500 C498 1.350 . S
H501 C496 0.930 . S
H502 C497 0.930 . S
C503 O504 1.224 . S
C503 O522 1.247 . S
O504 C503 1.224 . S
N505 Co495 2.128 . S
N505 C506 1.355 . S
N505 C508 1.311 . S
C506 N505 1.355 . S
C506 C507 1.363 . S
C506 H518 0.929 . S
C507 C506 1.363 . S
C507 N509 1.375 . S
C507 H525 0.931 . S
C508 N505 1.311 . S
C508 N509 1.347 . S
C508 H519 0.929 . S
N509 C507 1.375 . S
N509 C508 1.347 . S
C510 C513 1.365 . S
C510 N515 1.328 . S
C510 H516 0.929 . S
C511 C512 1.362 . S
C511 C514 1.378 . S
C511 H526 0.929 . S
C512 C511 1.362 . S
C512 C513 1.366 . S
C513 C510 1.365 . S
C513 C512 1.366 . S
C513 H527 0.930 . S
C514 C511 1.378 . S
C514 N515 1.315 . S
C514 H517 0.930 . S
N515 Co495 2.194 . S
N515 C510 1.328 . S
N515 C514 1.315 . S
H516 C510 0.929 . S
H517 C514 0.930 . S
H518 C506 0.929 . S
H519 C508 0.929 . S
O520 Co495 2.351 . S
O520 C523 1.244 . S
O521 Co495 2.155 . S
O521 C523 1.240 . S
O522 Co495 2.096 . S
O522 C503 1.247 . S
C523 O520 1.244 . S
C523 O521 1.240 . S
H524 C498 0.931 . S
H525 C507 0.931 . S
H526 C511 0.929 . S
H527 C513 0.930 . S
C528 C529 1.369 1_655 S
C528 C530 1.419 1_655 S
C528 H532 0.930 . S
C529 C528 1.369 1_455 S
C529 C538 1.429 . S
C530 C528 1.419 1_455 S
C530 C531 1.363 . S
C530 H533 0.929 . S
C531 C530 1.363 . S
C531 C537 1.428 . S
H532 C528 0.930 . S
H533 C530 0.929 . S
S534 N535 1.613 . S
S534 N536 1.610 . S
N535 S534 1.613 . S
N535 C538 1.350 . S
N536 S534 1.610 . S
N536 C537 1.351 . S
C537 C531 1.428 . S
C537 N536 1.351 . S
C537 C538 1.434 . S
C538 C529 1.429 . S
C538 N535 1.350 . S
C538 C537 1.434 . S
C539 C540 1.369 . S
C539 C541 1.419 . S
C539 H543 0.930 . S
C540 C539 1.369 . S
C540 C549 1.429 . S
C541 C539 1.419 . S
C541 C542 1.363 . S
C541 H544 0.929 . S
C542 C541 1.363 . S
C542 C548 1.428 . S
H543 C539 0.930 . S
H544 C541 0.929 . S
S545 N546 1.613 . S
S545 N547 1.610 . S
N546 S545 1.613 . S
N546 C549 1.350 . S
N547 S545 1.610 . S
N547 C548 1.351 . S
C548 C542 1.428 . S
C548 N547 1.351 . S
C548 C549 1.434 . S
C549 C540 1.429 . S
C549 N546 1.350 . S
C549 C548 1.434 . S
C550 C551 1.369 . S
C550 C552 1.419 . S
C550 H554 0.930 . S
C551 C550 1.369 . S
C551 C560 1.429 . S
C552 C550 1.419 . S
C552 C553 1.363 . S
C552 H555 0.929 . S
C553 C552 1.363 . S
C553 C559 1.428 . S
H554 C550 0.930 . S
H555 C552 0.929 . S
S556 N557 1.613 . S
S556 N558 1.610 . S
N557 S556 1.613 . S
N557 C560 1.350 . S
N558 S556 1.610 . S
N558 C559 1.351 . S
C559 C553 1.428 . S
C559 N558 1.351 . S
C559 C560 1.434 . S
C560 C551 1.429 . S
C560 N557 1.350 . S
C560 C559 1.434 . S
C561 C562 1.369 . S
C561 C563 1.419 . S
C561 H565 0.930 1_455 S
C562 C561 1.369 . S
C562 C571 1.429 . S
C563 C561 1.419 . S
C563 C564 1.363 . S
C563 H566 0.929 . S
C564 C563 1.363 . S
C564 C570 1.428 . S
H565 C561 0.930 1_655 S
H566 C563 0.929 . S
S567 N568 1.613 . S
S567 N569 1.610 . S
N568 S567 1.613 . S
N568 C571 1.350 . S
N569 S567 1.610 . S
N569 C570 1.351 . S
C570 C564 1.428 . S
C570 N569 1.351 . S
C570 C571 1.434 . S
C571 C562 1.429 . S
C571 N568 1.350 . S
C571 C570 1.434 . S
C572 C573 1.369 1_455 S
C572 C574 1.419 1_455 S
C572 H576 0.930 . S
C573 C572 1.369 1_655 S
C573 C582 1.429 . S
C574 C572 1.419 1_655 S
C574 C575 1.363 . S
C574 H577 0.929 . S
C575 C574 1.363 . S
C575 C581 1.428 . S
H576 C572 0.930 . S
H577 C574 0.929 . S
S578 N579 1.613 . S
S578 N580 1.610 . S
N579 S578 1.613 . S
N579 C582 1.350 . S
N580 S578 1.610 . S
N580 C581 1.351 . S
C581 C575 1.428 . S
C581 N580 1.351 . S
C581 C582 1.434 . S
C582 C573 1.429 . S
C582 N579 1.350 . S
C582 C581 1.434 . S
C583 C584 1.369 . S
C583 C585 1.419 . S
C583 H587 0.930 . S
C584 C583 1.369 . S
C584 C593 1.429 1_565 S
C585 C583 1.419 . S
C585 C586 1.363 . S
C585 H588 0.929 . S
C586 C585 1.363 . S
C586 C592 1.428 . S
H587 C583 0.930 . S
H588 C585 0.929 . S
S589 N590 1.613 . S
S589 N591 1.610 . S
N590 S589 1.613 . S
N590 C593 1.350 . S
N591 S589 1.610 . S
N591 C592 1.351 1_545 S
C592 C586 1.428 . S
C592 N591 1.351 1_565 S
C592 C593 1.434 1_565 S
C593 C584 1.429 1_545 S
C593 N590 1.350 . S
C593 C592 1.434 1_545 S
C594 C595 1.369 . S
C594 C596 1.419 . S
C594 H598 0.930 . S
C595 C594 1.369 . S
C595 C604 1.429 . S
C596 C594 1.419 . S
C596 C597 1.363 . S
C596 H599 0.929 . S
C597 C596 1.363 . S
C597 C603 1.428 . S
H598 C594 0.930 . S
H599 C596 0.929 . S
S600 N601 1.613 . S
S600 N602 1.610 . S
N601 S600 1.613 . S
N601 C604 1.350 . S
N602 S600 1.610 . S
N602 C603 1.351 . S
C603 C597 1.428 . S
C603 N602 1.351 . S
C603 C604 1.434 . S
C604 C595 1.429 . S
C604 N601 1.350 . S
C604 C603 1.434 . S
C605 C606 1.369 . S
C605 C607 1.419 . S
C605 H609 0.930 . S
C606 C605 1.369 . S
C606 C615 1.429 . S
C607 C605 1.419 . S
C607 C608 1.363 . S
C607 H610 0.929 . S
C608 C607 1.363 . S
C608 C614 1.428 1_655 S
H609 C605 0.930 . S
H610 C607 0.929 . S
S611 N612 1.613 . S
S611 N613 1.610 . S
N612 S611 1.613 . S
N612 C615 1.350 1_455 S
N613 S611 1.610 . S
N613 C614 1.351 . S
C614 C608 1.428 1_455 S
C614 N613 1.351 . S
C614 C615 1.434 1_455 S
C615 C606 1.429 . S
C615 N612 1.350 1_655 S
C615 C614 1.434 1_655 S
C616 C617 1.369 1_655 S
C616 C618 1.419 . S
C616 H620 0.930 . S
C617 C616 1.369 1_455 S
C617 C626 1.429 1_565 S
C618 C616 1.419 . S
C618 C619 1.363 1_565 S
C618 H621 0.929 . S
C619 C618 1.363 1_545 S
C619 C625 1.428 1_655 S
H620 C616 0.930 . S
H621 C618 0.929 . S
S622 N623 1.613 . S
S622 N624 1.610 . S
N623 S622 1.613 . S
N623 C626 1.350 . S
N624 S622 1.610 . S
N624 C625 1.351 . S
C625 C619 1.428 1_455 S
C625 N624 1.351 . S
C625 C626 1.434 . S
C626 C617 1.429 1_545 S
C626 N623 1.350 . S
C626 C625 1.434 . S
C627 C628 1.369 . S
C627 C629 1.419 . S
C627 H631 0.930 . S
C628 C627 1.369 . S
C628 C637 1.429 1_545 S
C629 C627 1.419 . S
C629 C630 1.363 1_545 S
C629 H632 0.929 . S
C630 C629 1.363 1_565 S
C630 C636 1.428 . S
H631 C627 0.930 . S
H632 C629 0.929 . S
S633 N634 1.613 . S
S633 N635 1.610 . S
N634 S633 1.613 . S
N634 C637 1.350 . S
N635 S633 1.610 . S
N635 C636 1.351 . S
C636 C630 1.428 . S
C636 N635 1.351 . S
C636 C637 1.434 . S
C637 C628 1.429 1_565 S
C637 N634 1.350 . S
C637 C636 1.434 . S
C638 C639 1.369 . S
C638 C640 1.419 . S
C638 H642 0.930 . S
C639 C638 1.369 . S
C639 C648 1.429 . S
C640 C638 1.419 . S
C640 C641 1.363 . S
C640 H643 0.929 . S
C641 C640 1.363 . S
C641 C647 1.428 . S
H642 C638 0.930 . S
H643 C640 0.929 . S
S644 N645 1.613 . S
S644 N646 1.610 . S
N645 S644 1.613 . S
N645 C648 1.350 . S
N646 S644 1.610 . S
N646 C647 1.351 . S
C647 C641 1.428 . S
C647 N646 1.351 . S
C647 C648 1.434 . S
C648 C639 1.429 . S
C648 N645 1.350 . S
C648 C647 1.434 . S
C649 C650 1.369 1_455 S
C649 C651 1.419 . S
C649 H653 0.930 . S
C650 C649 1.369 1_655 S
C650 C659 1.429 . S
C651 C649 1.419 . S
C651 C652 1.363 . S
C651 H654 0.929 . S
C652 C651 1.363 . S
C652 C658 1.428 1_455 S
H653 C649 0.930 . S
H654 C651 0.929 . S
S655 N656 1.613 . S
S655 N657 1.610 . S
N656 S655 1.613 . S
N656 C659 1.350 . S
N657 S655 1.610 . S
N657 C658 1.351 . S
C658 C652 1.428 1_655 S
C658 N657 1.351 . S
C658 C659 1.434 . S
C659 C650 1.429 . S
C659 N656 1.350 . S
C659 C658 1.434 . S
C660 C661 1.369 . S
C660 C662 1.419 1_656 S
C660 H664 0.930 . S
C661 C660 1.369 . S
C661 C670 1.429 . S
C662 C660 1.419 1_454 S
C662 C663 1.363 . S
C662 H665 0.929 . S
C663 C662 1.363 . S
C663 C669 1.428 . S
H664 C660 0.930 . S
H665 C662 0.929 . S
S666 N667 1.607 1_454 S
S666 N668 1.610 . S
N667 S666 1.607 1_656 S
N667 C670 1.350 . S
N668 S666 1.610 . S
N668 C669 1.351 . S
C669 C663 1.428 . S
C669 N668 1.351 . S
C669 C670 1.434 1_454 S
C670 C661 1.429 . S
C670 N667 1.350 . S
C670 C669 1.434 1_656 S
C671 C672 1.369 1_554 S
C671 C673 1.419 1_565 S
C671 H675 0.930 . S
C672 C671 1.369 1_556 S
C672 C681 1.429 1_455 S
C673 C671 1.419 1_545 S
C673 C674 1.363 1_455 S
C673 H676 0.929 . S
C674 C673 1.363 1_655 S
C674 C680 1.428 1_554 S
H675 C671 0.930 . S
H676 C673 0.929 . S
S677 N678 1.613 . S
S677 N679 1.610 1_565 S
N678 S677 1.613 . S
N678 C681 1.350 . S
N679 S677 1.610 1_545 S
N679 C680 1.351 . S
C680 C674 1.428 1_556 S
C680 N679 1.351 . S
C680 C681 1.434 1_545 S
C681 C672 1.429 1_655 S
C681 N678 1.350 . S
C681 C680 1.434 1_565 S
C682 C683 1.369 1_554 S
C682 C684 1.419 . S
C682 H686 0.930 . S
C683 C682 1.369 1_556 S
C683 C692 1.429 1_545 S
C684 C682 1.419 . S
C684 C685 1.363 1_545 S
C684 H687 0.929 . S
C685 C684 1.363 1_565 S
C685 C691 1.428 1_554 S
H686 C682 0.930 . S
H687 C684 0.929 . S
S688 N689 1.613 . S
S688 N690 1.610 . S
N689 S688 1.613 . S
N689 C692 1.350 . S
N690 S688 1.610 . S
N690 C691 1.351 . S
C691 C685 1.428 1_556 S
C691 N690 1.351 . S
C691 C692 1.434 . S
C692 C683 1.429 1_565 S
C692 N689 1.350 . S
C692 C691 1.434 . S
C693 C694 1.375 . S
C693 C695 1.413 1_556 S
C693 H697 0.930 . S
C694 C693 1.375 . S
C694 C703 1.429 . S
C695 C693 1.413 1_554 S
C695 C696 1.363 . S
C695 H698 0.929 . S
C696 C695 1.363 . S
C696 C702 1.430 . S
H697 C693 0.930 . S
H698 C695 0.929 . S
S699 N700 1.613 . S
S699 N701 1.610 . S
N700 S699 1.613 . S
N700 C703 1.350 . S
N701 S699 1.610 . S
N701 C702 1.351 1_556 S
C702 C696 1.430 . S
C702 N701 1.351 1_554 S
C702 C703 1.432 1_554 S
C703 C694 1.429 . S
C703 N700 1.350 . S
C703 C702 1.432 1_556 S
C704 C705 1.369 . S
C704 C706 1.419 . S
C704 H708 0.930 . S
C705 C704 1.369 . S
C705 C714 1.429 . S
C706 C704 1.419 . S
C706 C707 1.363 . S
C706 H709 0.929 . S
C707 C706 1.363 . S
C707 C713 1.428 . S
H708 C704 0.930 . S
H709 C706 0.929 . S
S710 N711 1.613 . S
S710 N712 1.610 . S
N711 S710 1.613 . S
N711 C714 1.350 . S
N712 S710 1.610 . S
N712 C713 1.351 . S
C713 C707 1.428 . S
C713 N712 1.351 . S
C713 C714 1.434 . S
C714 C705 1.429 . S
C714 N711 1.350 . S
C714 C713 1.434 . S
C715 C716 1.369 . S
C715 C717 1.419 . S
C715 H719 0.930 . S
C716 C715 1.369 . S
C716 C725 1.429 . S
C717 C715 1.419 . S
C717 C718 1.363 . S
C717 H720 0.929 . S
C718 C717 1.363 . S
C718 C724 1.428 . S
H719 C715 0.930 . S
H720 C717 0.929 . S
S721 N722 1.613 . S
S721 N723 1.610 . S
N722 S721 1.613 . S
N722 C725 1.350 . S
N723 S721 1.610 . S
N723 C724 1.351 . S
C724 C718 1.428 . S
C724 N723 1.351 . S
C724 C725 1.434 . S
C725 C716 1.429 . S
C725 N722 1.350 . S
C725 C724 1.434 . S
C726 C727 1.369 . S
C726 C728 1.419 . S
C726 H730 0.930 . S
C727 C726 1.369 . S
C727 C736 1.429 . S
C728 C726 1.419 . S
C728 C729 1.363 . S
C728 H731 0.929 . S
C729 C728 1.363 . S
C729 C735 1.428 . S
H730 C726 0.930 . S
H731 C728 0.929 . S
S732 N733 1.613 . S
S732 N734 1.610 . S
N733 S732 1.613 . S
N733 C736 1.350 . S
N734 S732 1.610 . S
N734 C735 1.351 . S
C735 C729 1.428 . S
C735 N734 1.351 . S
C735 C736 1.434 . S
C736 C727 1.429 . S
C736 N733 1.350 . S
C736 C735 1.434 . S
C737 C738 1.369 . S
C737 C739 1.419 . S
C737 H741 0.930 . S
C738 C737 1.369 . S
C738 C747 1.429 . S
C739 C737 1.419 . S
C739 C740 1.363 . S
C739 H742 0.929 . S
C740 C739 1.363 . S
C740 C746 1.428 . S
H741 C737 0.930 . S
H742 C739 0.929 . S
S743 N744 1.613 . S
S743 N745 1.610 . S
N744 S743 1.613 . S
N744 C747 1.350 . S
N745 S743 1.610 . S
N745 C746 1.351 . S
C746 C740 1.428 . S
C746 N745 1.351 . S
C746 C747 1.434 . S
C747 C738 1.429 . S
C747 N744 1.350 . S
C747 C746 1.434 . S
C748 C749 1.369 . S
C748 C750 1.419 . S
C748 H752 0.930 . S
C749 C748 1.369 . S
C749 C758 1.429 . S
C750 C748 1.419 . S
C750 C751 1.363 . S
C750 H753 0.929 . S
C751 C750 1.363 . S
C751 C757 1.428 . S
H752 C748 0.930 . S
H753 C750 0.929 . S
S754 N755 1.613 . S
S754 N756 1.610 . S
N755 S754 1.613 . S
N755 C758 1.350 . S
N756 S754 1.610 . S
N756 C757 1.351 . S
C757 C751 1.428 . S
C757 N756 1.351 . S
C757 C758 1.434 . S
C758 C749 1.429 . S
C758 N755 1.350 . S
C758 C757 1.434 . S
C759 C760 1.369 . S
C759 C761 1.419 . S
C759 H763 0.930 . S
C760 C759 1.369 . S
C760 C769 1.429 . S
C761 C759 1.419 . S
C761 C762 1.363 . S
C761 H764 0.929 . S
C762 C761 1.363 . S
C762 C768 1.428 . S
H763 C759 0.930 . S
H764 C761 0.929 . S
S765 N766 1.613 . S
S765 N767 1.610 . S
N766 S765 1.613 . S
N766 C769 1.350 . S
N767 S765 1.610 . S
N767 C768 1.351 . S
C768 C762 1.428 . S
C768 N767 1.351 . S
C768 C769 1.434 . S
C769 C760 1.429 . S
C769 N766 1.350 . S
C769 C768 1.434 . S
C770 C771 1.369 . S
C770 C772 1.419 . S
C770 H774 0.930 . S
C771 C770 1.369 . S
C771 C780 1.429 . S
C772 C770 1.419 . S
C772 C773 1.363 . S
C772 H775 0.929 . S
C773 C772 1.363 . S
C773 C779 1.428 . S
H774 C770 0.930 . S
H775 C772 0.929 . S
S776 N777 1.613 . S
S776 N778 1.610 . S
N777 S776 1.613 . S
N777 C780 1.350 . S
N778 S776 1.610 . S
N778 C779 1.351 . S
C779 C773 1.428 . S
C779 N778 1.351 . S
C779 C780 1.434 . S
C780 C771 1.429 . S
C780 N777 1.350 . S
C780 C779 1.434 . S
C781 C782 1.369 . S
C781 C783 1.419 . S
C781 H785 0.930 . S
C782 C781 1.369 . S
C782 C791 1.429 . S
C783 C781 1.419 . S
C783 C784 1.363 . S
C783 H786 0.929 . S
C784 C783 1.363 . S
C784 C790 1.428 . S
H785 C781 0.930 . S
H786 C783 0.929 . S
S787 N788 1.613 . S
S787 N789 1.610 . S
N788 S787 1.613 . S
N788 C791 1.350 . S
N789 S787 1.610 . S
N789 C790 1.351 . S
C790 C784 1.428 . S
C790 N789 1.351 . S
C790 C791 1.434 . S
C791 C782 1.429 . S
C791 N788 1.350 . S
C791 C790 1.434 . S
C792 C793 1.369 . S
C792 C794 1.419 . S
C792 H796 0.930 . S
C793 C792 1.369 . S
C793 C802 1.429 . S
C794 C792 1.419 . S
C794 C795 1.363 . S
C794 H797 0.929 . S
C795 C794 1.363 . S
C795 C801 1.428 . S
H796 C792 0.930 . S
H797 C794 0.929 . S
S798 N799 1.613 . S
S798 N800 1.610 . S
N799 S798 1.613 . S
N799 C802 1.350 1_565 S
N800 S798 1.610 . S
N800 C801 1.351 1_565 S
C801 C795 1.428 . S
C801 N800 1.351 1_545 S
C801 C802 1.434 . S
C802 C793 1.429 . S
C802 N799 1.350 1_545 S
C802 C801 1.434 . S
C803 C804 1.369 . S
C803 C805 1.419 . S
C803 H807 0.930 . S
C804 C803 1.369 . S
C804 C813 1.429 . S
C805 C803 1.419 . S
C805 C806 1.363 . S
C805 H808 0.929 . S
C806 C805 1.363 . S
C806 C812 1.428 . S
H807 C803 0.930 . S
H808 C805 0.929 . S
S809 N810 1.613 . S
S809 N811 1.610 . S
N810 S809 1.613 . S
N810 C813 1.350 . S
N811 S809 1.610 . S
N811 C812 1.351 . S
C812 C806 1.428 . S
C812 N811 1.351 . S
C812 C813 1.434 . S
C813 C804 1.429 . S
C813 N810 1.350 . S
C813 C812 1.434 . S
C814 C815 1.369 . S
C814 C816 1.419 . S
C814 H818 0.930 . S
C815 C814 1.369 . S
C815 C824 1.429 . S
C816 C814 1.419 . S
C816 C817 1.363 . S
C816 H819 0.929 . S
C817 C816 1.363 . S
C817 C823 1.428 . S
H818 C814 0.930 . S
H819 C816 0.929 . S
S820 N821 1.613 . S
S820 N822 1.610 . S
N821 S820 1.613 . S
N821 C824 1.350 . S
N822 S820 1.610 . S
N822 C823 1.351 . S
C823 C817 1.428 . S
C823 N822 1.351 . S
C823 C824 1.434 . S
C824 C815 1.429 . S
C824 N821 1.350 . S
C824 C823 1.434 . S
C825 C826 1.369 . S
C825 C827 1.419 . S
C825 H829 0.930 1_455 S
C826 C825 1.369 . S
C826 C835 1.429 . S
C827 C825 1.419 . S
C827 C828 1.363 . S
C827 H830 0.929 1_455 S
C828 C827 1.363 . S
C828 C834 1.428 . S
H829 C825 0.930 1_655 S
H830 C827 0.929 1_655 S
S831 N832 1.613 . S
S831 N833 1.610 . S
N832 S831 1.613 . S
N832 C835 1.350 . S
N833 S831 1.610 . S
N833 C834 1.351 . S
C834 C828 1.428 . S
C834 N833 1.351 . S
C834 C835 1.434 . S
C835 C826 1.429 . S
C835 N832 1.350 . S
C835 C834 1.434 . S
C836 C837 1.369 . S
C836 C838 1.419 . S
C836 H840 0.930 . S
C837 C836 1.369 . S
C837 C846 1.429 . S
C838 C836 1.419 . S
C838 C839 1.363 . S
C838 H841 0.929 . S
C839 C838 1.363 . S
C839 C845 1.428 . S
H840 C836 0.930 . S
H841 C838 0.929 . S
S842 N843 1.613 . S
S842 N844 1.610 . S
N843 S842 1.613 . S
N843 C846 1.350 . S
N844 S842 1.610 . S
N844 C845 1.351 . S
C845 C839 1.428 . S
C845 N844 1.351 . S
C845 C846 1.434 . S
C846 C837 1.429 . S
C846 N843 1.350 . S
C846 C845 1.434 . S
C847 C848 1.369 . S
C847 C849 1.419 . S
C847 H851 0.930 . S
C848 C847 1.369 . S
C848 C857 1.429 . S
C849 C847 1.419 . S
C849 C850 1.363 . S
C849 H852 0.929 . S
C850 C849 1.363 . S
C850 C856 1.428 . S
H851 C847 0.930 . S
H852 C849 0.929 . S
S853 N854 1.613 . S
S853 N855 1.610 . S
N854 S853 1.613 . S
N854 C857 1.350 1_655 S
N855 S853 1.610 . S
N855 C856 1.351 1_655 S
C856 C850 1.428 . S
C856 N855 1.351 1_455 S
C856 C857 1.434 . S
C857 C848 1.429 . S
C857 N854 1.350 1_455 S
C857 C856 1.434 . S
C858 C859 1.369 . S
C858 C860 1.419 . S
C858 H862 0.930 . S
C859 C858 1.369 . S
C859 C868 1.429 . S
C860 C858 1.419 . S
C860 C861 1.363 . S
C860 H863 0.929 . S
C861 C860 1.363 . S
C861 C867 1.428 . S
H862 C858 0.930 . S
H863 C860 0.929 . S
S864 N865 1.613 . S
S864 N866 1.610 . S
N865 S864 1.613 . S
N865 C868 1.350 . S
N866 S864 1.610 . S
N866 C867 1.351 . S
C867 C861 1.428 . S
C867 N866 1.351 . S
C867 C868 1.434 . S
C868 C859 1.429 . S
C868 N865 1.350 . S
C868 C867 1.434 . S
C869 C870 1.369 . S
C869 C871 1.419 . S
C869 H873 0.930 . S
C870 C869 1.369 . S
C870 C879 1.429 . S
C871 C869 1.419 . S
C871 C872 1.363 . S
C871 H874 0.929 . S
C872 C871 1.363 . S
C872 C878 1.428 . S
H873 C869 0.930 . S
H874 C871 0.929 . S
S875 N876 1.613 . S
S875 N877 1.610 . S
N876 S875 1.613 . S
N876 C879 1.350 . S
N877 S875 1.610 . S
N877 C878 1.351 . S
C878 C872 1.428 . S
C878 N877 1.351 . S
C878 C879 1.434 . S
C879 C870 1.429 . S
C879 N876 1.350 . S
C879 C878 1.434 . S
C880 C881 1.369 . S
C880 C882 1.419 . S
C880 H884 0.930 . S
C881 C880 1.369 . S
C881 C890 1.429 . S
C882 C880 1.419 . S
C882 C883 1.363 . S
C882 H885 0.929 . S
C883 C882 1.363 . S
C883 C889 1.428 . S
H884 C880 0.930 . S
H885 C882 0.929 . S
S886 N887 1.613 . S
S886 N888 1.610 . S
N887 S886 1.613 . S
N887 C890 1.350 . S
N888 S886 1.610 . S
N888 C889 1.351 . S
C889 C883 1.428 . S
C889 N888 1.351 . S
C889 C890 1.434 . S
C890 C881 1.429 . S
C890 N887 1.350 . S
C890 C889 1.434 . S
C891 C892 1.369 . S
C891 C893 1.419 . S
C891 H895 0.930 . S
C892 C891 1.369 . S
C892 C901 1.429 . S
C893 C891 1.419 . S
C893 C894 1.363 . S
C893 H896 0.929 . S
C894 C893 1.363 . S
C894 C900 1.428 . S
H895 C891 0.930 . S
H896 C893 0.929 . S
S897 N898 1.613 . S
S897 N899 1.610 . S
N898 S897 1.613 . S
N898 C901 1.350 . S
N899 S897 1.610 . S
N899 C900 1.351 . S
C900 C894 1.428 . S
C900 N899 1.351 . S
C900 C901 1.434 . S
C901 C892 1.429 . S
C901 N898 1.350 . S
C901 C900 1.434 . S
C902 C903 1.369 . S
C902 C904 1.419 . S
C902 H906 0.930 . S
C903 C902 1.369 . S
C903 C912 1.429 . S
C904 C902 1.419 . S
C904 C905 1.363 . S
C904 H907 0.929 . S
C905 C904 1.363 . S
C905 C911 1.428 . S
H906 C902 0.930 . S
H907 C904 0.929 . S
S908 N909 1.613 . S
S908 N910 1.610 . S
N909 S908 1.613 . S
N909 C912 1.350 . S
N910 S908 1.610 . S
N910 C911 1.351 . S
C911 C905 1.428 . S
C911 N910 1.351 . S
C911 C912 1.434 . S
C912 C903 1.429 . S
C912 N909 1.350 . S
C912 C911 1.434 . S
C913 C914 1.369 . S
C913 C915 1.419 . S
C913 H917 0.930 . S
C914 C913 1.369 . S
C914 C923 1.429 . S
C915 C913 1.419 . S
C915 C916 1.363 . S
C915 H918 0.929 . S
C916 C915 1.363 . S
C916 C922 1.428 . S
H917 C913 0.930 . S
H918 C915 0.929 . S
S919 N920 1.613 . S
S919 N921 1.610 . S
N920 S919 1.613 . S
N920 C923 1.350 . S
N921 S919 1.610 . S
N921 C922 1.351 . S
C922 C916 1.428 . S
C922 N921 1.351 . S
C922 C923 1.434 . S
C923 C914 1.429 . S
C923 N920 1.350 . S
C923 C922 1.434 . S
C924 C925 1.369 . S
C924 C926 1.419 . S
C924 H928 0.930 . S
C925 C924 1.369 . S
C925 C934 1.429 . S
C926 C924 1.419 . S
C926 C927 1.363 . S
C926 H929 0.929 . S
C927 C926 1.363 . S
C927 C933 1.428 . S
H928 C924 0.930 . S
H929 C926 0.929 . S
S930 N931 1.613 . S
S930 N932 1.610 . S
N931 S930 1.613 . S
N931 C934 1.350 . S
N932 S930 1.610 . S
N932 C933 1.351 . S
C933 C927 1.428 . S
C933 N932 1.351 . S
C933 C934 1.434 . S
C934 C925 1.429 . S
C934 N931 1.350 . S
C934 C933 1.434 . S
C935 C936 1.369 . S
C935 C937 1.419 . S
C935 H939 0.930 1_655 S
C936 C935 1.369 . S
C936 C945 1.429 . S
C937 C935 1.419 . S
C937 C938 1.363 . S
C937 H940 0.929 1_655 S
C938 C937 1.363 . S
C938 C944 1.428 . S
H939 C935 0.930 1_455 S
H940 C937 0.929 1_455 S
S941 N942 1.613 . S
S941 N943 1.610 . S
N942 S941 1.613 . S
N942 C945 1.350 . S
N943 S941 1.610 . S
N943 C944 1.351 . S
C944 C938 1.428 . S
C944 N943 1.351 . S
C944 C945 1.434 . S
C945 C936 1.429 . S
C945 N942 1.350 . S
C945 C944 1.434 . S
C946 C947 1.369 . S
C946 C948 1.419 . S
C946 H950 0.930 . S
C947 C946 1.369 . S
C947 C956 1.429 . S
C948 C946 1.419 . S
C948 C949 1.363 . S
C948 H951 0.929 . S
C949 C948 1.363 . S
C949 C955 1.428 . S
H950 C946 0.930 . S
H951 C948 0.929 . S
S952 N953 1.613 . S
S952 N954 1.610 . S
N953 S952 1.613 . S
N953 C956 1.350 . S
N954 S952 1.610 . S
N954 C955 1.351 . S
C955 C949 1.428 . S
C955 N954 1.351 . S
C955 C956 1.434 . S
C956 C947 1.429 . S
C956 N953 1.350 . S
C956 C955 1.434 . S
C957 C958 1.369 . S
C957 C959 1.419 . S
C957 H961 0.930 . S
C958 C957 1.369 . S
C958 C967 1.429 . S
C959 C957 1.419 . S
C959 C960 1.363 . S
C959 H962 0.929 . S
C960 C959 1.363 . S
C960 C966 1.428 . S
H961 C957 0.930 . S
H962 C959 0.929 . S
S963 N964 1.613 . S
S963 N965 1.610 . S
N964 S963 1.613 . S
N964 C967 1.350 . S
N965 S963 1.610 . S
N965 C966 1.351 . S
C966 C960 1.428 . S
C966 N965 1.351 . S
C966 C967 1.434 . S
C967 C958 1.429 . S
C967 N964 1.350 . S
C967 C966 1.434 . S
C529 C28 0.442 . S
C531 C193 0.449 . S
C540 C61 0.463 . S
C542 C226 0.458 . S
C551 C259 0.480 . S
C553 C94 0.488 . S
C562 C160 0.458 . S
C564 C127 0.458 . S
C573 C292 0.441 . S
C575 C457 0.445 . S
C584 C325 0.474 . S
C586 C490 0.473 . S
C595 C358 0.491 . S
C597 C523 0.483 . S
C606 C391 0.472 . S
C608 C424 0.474 . S
C617 C281 2.062 . S
C619 C17 2.049 . S
C628 C314 2.019 . S
C630 C50 2.025 . S
C639 C83 2.084 . S
C641 C347 2.095 . S
C650 C380 2.110 . S
C652 C116 2.120 . S
C661 C149 2.024 . S
C663 C413 2.022 . S
C672 C182 2.055 . S
C674 C446 2.054 . S
C683 C215 2.110 . S
C685 C479 2.120 . S
C694 C248 2.087 . S
C696 C512 2.093 . S
C705 N14 1.964 . S
C707 N146 1.973 . S
C716 N47 1.975 . S
C718 N179 1.967 . S
C727 N212 2.015 . S
C729 N80 2.011 . S
C738 N113 2.013 . S
C740 N245 2.017 . S
C749 N410 1.967 . S
C751 N278 1.970 . S
C760 N443 1.962 . S
C762 N311 1.968 . S
C771 N344 2.014 . S
C773 N476 2.007 . S
C782 N509 2.017 . S
C784 N377 2.013 . S
C793 C41 1.586 . S
C795 N5 1.437 . S
C804 N38 1.440 . S
C806 C74 1.590 . S
C815 N71 1.466 . S
C817 C107 1.607 . S
C826 N104 1.449 . S
C828 C8 1.599 . S
C837 C239 1.595 . S
C839 N137 1.432 . S
C848 N170 1.440 . S
C850 C140 1.584 . S
C859 N203 1.445 . S
C861 C173 1.601 . S
C870 N236 1.454 . S
C872 C206 1.610 . S
C881 N269 1.437 . S
C883 C305 1.585 . S
C892 N302 1.443 . S
C894 C338 1.589 . S
C903 C371 1.609 . S
C905 N335 1.458 . S
C914 N368 1.452 . S
C916 C272 1.599 . S
C925 N401 1.435 . S
C927 C503 1.591 . S
C936 C404 1.590 . S
C938 N434 1.428 . S
C947 C437 1.602 . S
C949 N467 1.444 . S
C958 N500 1.453 . S
C960 C470 1.610 . S
