# Generated by pormake.
# Topology fnu, (5)-cn, num edge types: 1
# Building blocks:
#     Node 0, Type 0, BuildingBlock: BEQFEK_clean_sbu_0, # of connection points: 5
#     Node 1, Type 0, BuildingBlock: BEQFEK_clean_sbu_0, # of connection points: 5
#     Node 2, Type 0, BuildingBlock: BEQFEK_clean_sbu_0, # of connection points: 5
#     Node 3, Type 0, BuildingBlock: BEQFEK_clean_sbu_0, # of connection points: 5
#     Node 4, Type 0, BuildingBlock: BEQFEK_clean_sbu_0, # of connection points: 5
#     Node 5, Type 0, BuildingBlock: BEQFEK_clean_sbu_0, # of connection points: 5
#     Edge 6, Type (0, 0), BuildingBlock: CIFDUS_clean_linker_0, # of connection points: 2
#     Edge 7, Type (0, 0), BuildingBlock: CIFDUS_clean_linker_0, # of connection points: 2
#     Edge 8, Type (0, 0), BuildingBlock: CIFDUS_clean_linker_0, # of connection points: 2
#     Edge 9, Type (0, 0), BuildingBlock: CIFDUS_clean_linker_0, # of connection points: 2
#     Edge 10, Type (0, 0), BuildingBlock: CIFDUS_clean_linker_0, # of connection points: 2
#     Edge 11, Type (0, 0), BuildingBlock: CIFDUS_clean_linker_0, # of connection points: 2
#     Edge 12, Type (0, 0), BuildingBlock: CIFDUS_clean_linker_0, # of connection points: 2
#     Edge 13, Type (0, 0), BuildingBlock: CIFDUS_clean_linker_0, # of connection points: 2
#     Edge 14, Type (0, 0), BuildingBlock: CIFDUS_clean_linker_0, # of connection points: 2
#     Edge 15, Type (0, 0), BuildingBlock: CIFDUS_clean_linker_0, # of connection points: 2
#     Edge 16, Type (0, 0), BuildingBlock: CIFDUS_clean_linker_0, # of connection points: 2
#     Edge 17, Type (0, 0), BuildingBlock: CIFDUS_clean_linker_0, # of connection points: 2
#     Edge 18, Type (0, 0), BuildingBlock: CIFDUS_clean_linker_0, # of connection points: 2
#     Edge 19, Type (0, 0), BuildingBlock: CIFDUS_clean_linker_0, # of connection points: 2
#     Edge 20, Type (0, 0), BuildingBlock: CIFDUS_clean_linker_0, # of connection points: 2
# Relax obj value: 0.176
# Max RMSD: 0.166
# Mean RMSD: 0.166
data_MOF--net-fnu--node1-BEQFEK_clean_sbu_0--edge1-CIFDUS_clean_linker_0
_symmetry_space_group_name_H-M    P1
_symmetry_Int_Tables_number       1
_symmetry_cell_setting            triclinic
loop_
_symmetry_equiv_pos_as_xyz
'x, y, z'
_cell_length_a     21.840945
_cell_length_b     25.859155
_cell_length_c     33.129507
_cell_angle_alpha  90.088249
_cell_angle_beta   97.217079
_cell_angle_gamma 126.29682
loop_
_atom_site_label
_atom_site_type_symbol
_atom_site_fract_x
_atom_site_fract_y
_atom_site_fract_z
_atom_type_partial_charge
Co0 Co 0.06399 1.00377 0.17786 0.0
Co1 Co 0.08012 0.01834 0.27285 0.0
C2 C 1.00438 0.8895 0.22298 0.0
O3 O 1.01562 0.9184 0.19097 0.0
O4 O 0.02524 0.92009 0.2585 0.0
C5 C 0.10219 0.99026 0.10635 0.0
O6 O 0.12394 0.96056 0.12906 0.0
C7 C 0.04419 1.0093 0.35984 0.0
C8 C 0.14233 0.10724 0.38628 0.0
C9 C 0.07764 0.05052 0.39619 0.0
N10 N 0.08741 0.04091 0.33037 0.0
N11 N 0.14579 0.09933 0.34674 0.0
C12 C 0.97429 0.94069 0.35333 0.0
H13 H 0.97489 0.91536 0.32655 0.0
H14 H 0.92228 0.93945 0.3473 0.0
H15 H 0.97109 0.91539 0.38092 0.0
C16 C 0.99593 0.07072 0.18009 0.0
N17 N 0.02368 0.04127 0.19909 0.0
N18 N 0.02847 0.04848 0.23894 0.0
C19 C 1.00145 0.08252 0.24646 0.0
C20 C 0.97966 0.09756 0.20925 0.0
C21 C 0.99773 0.0814 0.13563 0.0
H22 H 0.95293 0.03511 0.11698 0.0
H23 H 0.989 0.11821 0.1271 0.0
H24 H 0.05442 0.0979 0.12819 0.0
O25 O 0.17121 0.05421 0.19652 0.0
O26 O 0.19347 0.06988 0.26361 0.0
H27 H 0.05729 0.14164 0.3031 0.0
H28 H 0.96059 0.11715 0.28728 0.0
C29 C 0.99834 0.10153 0.28837 0.0
H30 H 0.97661 0.06027 0.30719 0.0
H31 H 0.18826 0.13421 0.33075 0.0
O32 O 0.06166 1.00482 0.11971 0.0
C33 C 0.21803 0.0785 0.22941 0.0
Co34 Co 0.07796 0.109 0.8519 0.0
Co35 Co 0.0381 0.08042 0.75695 0.0
C36 C 0.10527 0.0246 0.80909 0.0
O37 O 0.10704 0.05408 0.8401 0.0
O38 O 0.07986 0.0291 0.77339 0.0
C39 C 0.19818 0.16476 0.91636 0.0
O40 O 0.23528 0.16786 0.88709 0.0
C41 C 0.06337 0.08146 0.66998 0.0
C42 C 0.95354 0.05551 0.63637 0.0
C43 C 0.02352 0.06954 0.63045 0.0
N44 N 1.01897 0.07495 0.69745 0.0
N45 N 0.95348 0.05955 0.67694 0.0
C46 C 0.14065 0.09557 0.68174 0.0
H47 H 0.14788 0.0847 0.71353 0.0
H48 H 0.18602 0.14758 0.68006 0.0
H49 H 0.14843 0.06726 0.66056 0.0
C50 C 0.14595 0.23835 0.83398 0.0
N51 N 0.11521 0.17757 0.82065 0.0
N52 N 0.1044 0.17018 0.78055 0.0
C53 C 0.132 0.22876 0.76703 0.0
C54 C 0.16064 0.27426 0.80083 0.0
C55 C 0.14425 0.25741 0.87648 0.0
H56 H 0.09538 0.21569 0.88909 0.0
H57 H 0.19877 0.27436 0.89643 0.0
H58 H 0.13701 0.29637 0.87696 0.0
O59 O 0.96648 0.05756 0.84592 0.0
O60 O 0.93524 0.03553 0.77823 0.0
H61 H 0.06628 0.22236 0.71131 0.0
H62 H 0.16626 0.29175 0.71855 0.0
C63 C 0.12605 0.23982 0.72291 0.0
H64 H 0.13886 0.21197 0.70502 0.0
H65 H 0.90813 0.0509 0.69066 0.0
O66 O 0.12757 0.14178 0.90798 0.0
C67 C 0.91602 0.03051 0.81391 0.0
Co68 Co 0.61451 0.25145 0.50342 0.0
Co69 Co 0.66648 0.28752 0.59749 0.0
C70 C 0.58061 0.1505 0.55676 0.0
O71 O 0.57483 0.16931 0.52226 0.0
O72 O 0.61575 0.19001 0.58914 0.0
C73 C 0.62256 0.22334 0.42909 0.0
O74 O 0.64051 0.19002 0.45042 0.0
C75 C 0.65036 0.29197 0.68612 0.0
C76 C 0.77022 0.37009 0.71274 0.0
C77 C 0.69817 0.32568 0.72354 0.0
N78 N 0.69299 0.31529 0.65564 0.0
N79 N 0.76443 0.36222 0.67197 0.0
C80 C 0.5655 0.24028 0.67843 0.0
H81 H 0.54232 0.23505 0.64566 0.0
H82 H 0.5361 0.25179 0.69759 0.0
H83 H 0.55369 0.19371 0.68608 0.0
C84 C 0.54419 0.31501 0.51175 0.0
N85 N 0.58102 0.29178 0.529 0.0
N86 N 0.60485 0.31177 0.56815 0.0
C87 C 0.58534 0.35108 0.57672 0.0
C88 C 0.54703 0.35497 0.54087 0.0
C89 C 0.50569 0.29754 0.4681 0.0
H90 H 0.54932 0.3277 0.44817 0.0
H91 H 0.47906 0.24622 0.45909 0.0
H92 H 0.46025 0.3049 0.46331 0.0
O93 O 0.72737 0.30726 0.50982 0.0
O94 O 0.76731 0.33501 0.57619 0.0
H95 H 0.66689 0.40344 0.63129 0.0
H96 H 0.61023 0.4318 0.61414 0.0
C97 C 0.60922 0.38858 0.61724 0.0
H98 H 0.56771 0.35731 0.63784 0.0
H99 H 0.80977 0.38846 0.6553 0.0
O100 O 0.58681 0.24082 0.44479 0.0
C101 C 0.78158 0.33792 0.53974 0.0
Co102 Co 0.79792 0.37257 0.18613 0.0
Co103 Co 0.73749 0.34597 0.09231 0.0
C104 C 0.82721 0.29964 0.13396 0.0
O105 O 0.83335 0.32606 0.16786 0.0
O106 O 0.79163 0.30237 0.10118 0.0
C107 C 0.88518 0.3931 0.26514 0.0
O108 O 0.9221 0.37648 0.24705 0.0
C109 C 0.74398 0.35971 1.00246 0.0
C110 C 0.62063 0.30702 0.97802 0.0
C111 C 0.69235 0.33919 0.96598 0.0
N112 N 0.70418 0.34035 0.03414 0.0
N113 N 0.63055 0.30924 0.01909 0.0
C114 C 0.82879 0.39308 1.00726 0.0
H115 H 0.84988 0.38562 0.03733 0.0
H116 H 0.85844 0.44558 1.00592 0.0
H117 H 0.84304 0.37527 0.98219 0.0
C118 C 0.86304 0.50341 0.17189 0.0
N119 N 0.82748 0.44242 0.15679 0.0
N120 N 0.79802 0.43389 0.1181 0.0
C121 C 0.81141 0.49016 0.10792 0.0
C122 C 0.85213 0.53575 0.14217 0.0
C123 C 0.90827 0.53012 0.21406 0.0
H124 H 0.86838 0.51661 0.2364 0.0
H125 H 0.94023 0.50962 0.22197 0.0
H126 H 0.95044 0.58337 0.21637 0.0
O127 O 0.68498 0.31458 0.18409 0.0
O128 O 0.6415 0.29371 0.11757 0.0
H129 H 0.72219 0.45203 0.05599 0.0
H130 H 0.77262 0.53718 0.0709 0.0
C131 C 0.77886 0.49783 0.06788 0.0
H132 H 0.81825 0.50967 0.04552 0.0
H133 H 0.58658 0.28824 0.03685 0.0
O134 O 0.83823 0.39968 0.24364 0.0
C135 C 0.62937 0.28627 0.15456 0.0
Co136 Co 0.33563 0.73744 0.83957 0.0
Co137 Co 0.37202 0.74731 0.93491 0.0
C138 C 0.3063 0.62504 0.88187 0.0
O139 O 0.30539 0.65304 0.85091 0.0
O140 O 0.33103 0.65463 0.91768 0.0
C141 C 0.22199 0.6733 0.77201 0.0
O142 O 0.18201 0.63795 0.80008 0.0
C143 C 0.34294 0.71906 0.02124 0.0
C144 C 0.45168 0.80191 0.05643 0.0
C145 C 0.38166 0.74506 0.06125 0.0
N146 N 0.38811 0.75879 0.99461 0.0
N147 N 0.45286 0.80829 0.01609 0.0
C148 C 0.26611 0.65597 1.00818 0.0
H149 H 0.25927 0.64033 0.97578 0.0
H150 H 0.22027 0.66161 1.01108 0.0
H151 H 0.25872 0.61849 0.02784 0.0
C152 C 0.26547 0.79744 0.85662 0.0
N153 N 0.29637 0.7677 0.87025 0.0
N154 N 0.30619 0.77089 0.91038 0.0
C155 C 0.2778 0.80146 0.92355 0.0
C156 C 0.2498 0.8184 0.88956 0.0
C157 C 0.26767 0.81793 0.81409 0.0
H158 H 0.31776 0.82636 0.80213 0.0
H159 H 0.21415 0.77951 0.79381 0.0
H160 H 0.27328 0.8634 0.81319 0.0
O161 O 0.44705 0.79732 0.84756 0.0
O162 O 0.47659 0.8062 0.91532 0.0
H163 H 0.34119 0.86101 0.97951 0.0
H164 H 0.24041 0.82795 0.9716 0.0
C165 C 0.28217 0.8178 0.9676 0.0
H166 H 0.2705 0.77746 0.98547 0.0
H167 H 0.49872 0.84598 1.00318 0.0
O168 O 0.29113 0.72259 0.78246 0.0
C169 C 0.49678 0.82066 0.87986 0.0
Co170 Co 0.34805 0.61973 0.51153 0.0
Co171 Co 0.32526 0.61772 0.41619 0.0
C172 C 0.39585 0.55815 0.46268 0.0
O173 O 0.3887 0.57701 0.49579 0.0
O174 O 0.3755 0.57022 0.42798 0.0
C175 C 0.31253 0.57225 0.58506 0.0
O176 O 0.28335 0.518 0.56311 0.0
C177 C 0.35998 0.6484 0.32938 0.0
C178 C 0.25734 0.6418 0.30314 0.0
C179 C 0.32478 0.65496 0.29323 0.0
N180 N 0.31519 0.63267 0.35868 0.0
N181 N 0.25405 0.62882 0.34242 0.0
C182 C 0.43343 0.65511 0.33604 0.0
H183 H 0.43557 0.63043 0.36292 0.0
H184 H 0.48256 0.70697 0.34206 0.0
H185 H 0.43928 0.63476 0.30852 0.0
C186 C 0.42142 0.75566 0.50962 0.0
N187 N 0.39121 0.69801 0.49017 0.0
N188 N 0.3823 0.69996 0.45033 0.0
C189 C 0.40841 0.76091 0.44322 0.0
C190 C 0.43419 0.79834 0.48069 0.0
C191 C 0.42349 0.76483 0.55462 0.0
H192 H 0.36543 0.72838 0.56221 0.0
H193 H 0.46375 0.75675 0.57173 0.0
H194 H 0.44019 0.8128 0.56497 0.0
O195 O 0.23963 0.56665 0.49524 0.0
O196 O 0.2137 0.55939 0.42818 0.0
H197 H 0.34482 0.76013 0.38841 0.0
H198 H 0.43994 0.83529 0.40234 0.0
C199 C 0.4055 0.78203 0.40148 0.0
H200 H 0.42795 0.76475 0.38129 0.0
H201 H 0.20995 0.61773 0.35832 0.0
O202 O 0.35593 0.62557 0.57021 0.0
C203 C 0.19122 0.54512 0.46296 0.0
H204 H 0.27495 0.09559 0.15919 0.0
H205 H 0.34866 0.1519 0.28898 0.0
H206 H 0.48359 0.22079 0.27734 0.0
H207 H 0.57936 0.26667 0.22919 0.0
H208 H 0.4983 0.20949 0.09966 0.0
H209 H 0.36641 0.13934 0.11265 0.0
C210 C 0.3199 0.12261 0.18538 0.0
C211 C 0.30108 0.11839 0.22511 0.0
C212 C 0.39602 0.16228 0.17836 0.0
C213 C 0.36115 0.15397 0.25816 0.0
C214 C 0.43821 0.19349 0.25141 0.0
C215 C 0.53283 0.23876 0.20382 0.0
C216 C 0.54916 0.24361 0.16336 0.0
C217 C 0.45624 0.19836 0.21149 0.0
C218 C 0.48794 0.20711 0.13096 0.0
C219 C 0.41233 0.16679 0.13837 0.0
H220 H 0.86576 0.07786 0.15163 0.0
H221 H 0.04567 0.21627 0.24798 0.0
H222 H 1.01954 0.29366 0.22951 0.0
H223 H 0.94712 0.32223 0.18578 0.0
H224 H 0.76818 0.18601 0.0884 0.0
H225 H 0.79629 0.10885 0.10539 0.0
C226 C 0.89907 0.12502 0.16857 0.0
C227 C 0.95719 0.14119 0.20139 0.0
C228 C 0.88583 0.17021 0.15661 0.0
C229 C 0.99968 0.20217 0.22323 0.0
C230 C 0.98565 0.24679 0.21219 0.0
C231 C 0.91481 0.27592 0.16786 0.0
C232 C 0.85551 0.25978 0.13588 0.0
C233 C 0.92945 0.23148 0.17875 0.0
C234 C 0.81476 0.19995 0.11272 0.0
C235 C 0.82995 0.15549 0.12297 0.0
H236 H 0.83246 0.58728 0.20666 0.0
H237 H 0.92173 0.63268 0.09258 0.0
H238 H 0.97625 0.74598 0.10856 0.0
H239 H 1.00635 0.83161 0.15642 0.0
H240 H 0.92525 0.79062 0.27291 0.0
H241 H 0.86291 0.67521 0.25549 0.0
C242 C 0.86416 0.62212 0.18537 0.0
C243 C 0.87406 0.60189 0.14862 0.0
C244 C 0.89823 0.68753 0.19572 0.0
C245 C 0.91304 0.64697 0.1208 0.0
C246 C 0.94501 0.71176 0.13025 0.0
C247 C 0.97475 0.79779 0.17825 0.0
C248 C 0.97016 0.81994 0.21603 0.0
C249 C 0.9393 0.73251 0.16792 0.0
C250 C 0.93005 0.77508 0.24386 0.0
C251 C 0.89397 0.70919 0.23367 0.0
H252 H 0.27856 0.37013 0.85501 0.0
H253 H 0.10544 0.33185 0.75539 0.0
H254 H 0.13548 0.43763 0.77247 0.0
H255 H 0.20252 0.53616 0.81974 0.0
H256 H 0.36324 0.5675 0.92458 0.0
H257 H 0.34207 0.46642 0.90342 0.0
C258 C 0.24763 0.38511 0.83686 0.0
C259 C 0.18968 0.34298 0.80398 0.0
C260 C 0.26054 0.44324 0.84904 0.0
C261 C 0.15104 0.36346 0.78036 0.0
C262 C 0.16707 0.42338 0.79074 0.0
C263 C 0.23254 0.52062 0.83814 0.0
C264 C 0.28429 0.55921 0.87382 0.0
C265 C 0.21996 0.46264 0.82575 0.0
C266 C 0.32232 0.53827 0.89746 0.0
C267 C 0.31108 0.48104 0.88498 0.0
H268 H 0.55559 0.85281 0.80871 0.0
H269 H 0.62435 0.88567 0.93975 0.0
H270 H 0.75965 0.95439 0.93055 0.0
H271 H 0.85774 1.00331 0.88541 0.0
H272 H 0.78838 0.96865 0.75439 0.0
H273 H 0.65331 0.90218 0.7637 0.0
C274 C 0.59991 0.87504 0.83544 0.0
C275 C 0.57939 0.8639 0.875 0.0
C276 C 0.67739 0.91405 0.82991 0.0
C277 C 0.63813 0.89323 0.90903 0.0
C278 C 0.71556 0.93253 0.90375 0.0
C279 C 0.81329 0.98151 0.85875 0.0
C280 C 0.83361 0.9912 0.81913 0.0
C281 C 0.73576 0.94302 0.86433 0.0
C282 C 0.77477 0.96216 0.78515 0.0
C283 C 0.69745 0.92411 0.79049 0.0
H284 H 0.20719 0.0382 0.87186 0.0
H285 H 0.04975 0.91091 0.76543 0.0
H286 H 0.07087 0.83085 0.78601 0.0
H287 H 0.13343 0.79731 0.83437 0.0
H288 H 0.30336 0.93032 0.9357 0.0
H289 H 0.2733 1.00606 0.91904 0.0
C290 C 0.17789 0.9931 0.85296 0.0
C291 C 0.12707 0.98059 0.817 0.0
C292 C 0.19047 0.94761 0.86499 0.0
C293 C 0.08994 0.92214 0.79278 0.0
C294 C 0.10117 0.87606 0.80492 0.0
C295 C 0.16371 0.84284 0.85296 0.0
C296 C 0.22077 0.85812 0.88622 0.0
C297 C 0.15082 0.88816 0.8411 0.0
C298 C 0.25848 0.91673 0.91041 0.0
C299 C 0.24244 0.96064 0.90029 0.0
H300 H 0.83103 0.36528 0.46531 0.0
H301 H 0.9137 0.4018 0.59526 0.0
H302 H 0.046 0.46822 0.58197 0.0
H303 H 0.13699 0.5152 0.53465 0.0
H304 H 0.05932 0.48228 0.40433 0.0
H305 H 0.92524 0.41521 0.41688 0.0
C306 C 0.87793 0.38759 0.49078 0.0
C307 C 0.86212 0.37818 0.53139 0.0
C308 C 0.9543 0.42619 0.48291 0.0
C309 C 0.92383 0.40797 0.56385 0.0
C310 C 0.99956 0.44596 0.55626 0.0
C311 C 0.09124 0.49341 0.50858 0.0
C312 C 0.10876 0.50382 0.46839 0.0
C313 C 1.01524 0.45525 0.51602 0.0
C314 C 0.04785 0.47508 0.43549 0.0
C315 C 0.97121 0.4366 0.44271 0.0
H316 H 0.56828 0.42881 0.47775 0.0
H317 H 0.46159 0.36917 0.58634 0.0
H318 H 0.4023 0.42394 0.56952 0.0
H319 H 0.37766 0.48462 0.52347 0.0
H320 H 0.48053 0.54408 0.41365 0.0
H321 H 0.54124 0.48952 0.43014 0.0
C322 C 0.53165 0.42755 0.4976 0.0
C323 C 0.51884 0.39463 0.53323 0.0
C324 C 0.49587 0.45743 0.48695 0.0
C325 C 0.47289 0.39465 0.55912 0.0
C326 C 0.43828 0.42521 0.54919 0.0
C327 C 0.41337 0.48588 0.50289 0.0
C328 C 0.42505 0.51889 0.4674 0.0
C329 C 0.44875 0.45595 0.51303 0.0
C330 C 0.47024 0.51876 0.44091 0.0
C331 C 0.50553 0.48824 0.45066 0.0
H332 H 0.55211 0.89575 0.53554 0.0
H333 H 0.35865 0.84569 0.44657 0.0
H334 H 0.38157 0.94751 0.46649 0.0
H335 H 0.45631 0.05028 0.50887 0.0
H336 H 0.64702 0.10027 0.59994 0.0
H337 H 0.62195 0.99647 0.58176 0.0
C338 C 0.51507 0.90732 0.52056 0.0
C339 C 0.4542 0.86352 0.4893 0.0
C340 C 0.52631 0.96456 0.53364 0.0
C341 C 0.40684 0.87908 0.47 0.0
C342 C 0.41907 0.93674 0.48193 0.0
C343 C 0.49134 0.03781 0.52545 0.0
C344 C 0.55322 0.08269 0.55587 0.0
C345 C 0.47813 0.97945 0.51388 0.0
C346 C 0.59824 0.06609 0.577 0.0
C347 C 0.58482 1.00735 0.56598 0.0
H348 H 0.93056 0.99836 0.55913 0.0
H349 H 0.16865 0.14556 0.60868 0.0
H350 H 0.20522 0.14807 0.54199 0.0
H351 H 0.17004 0.11198 0.46882 0.0
H352 H 0.93122 0.971 0.4175 0.0
H353 H 0.89514 0.96239 0.48522 0.0
C354 C 0.99059 0.0308 0.55544 0.0
C355 C 0.04683 0.07033 0.58967 0.0
C356 C 1.01131 0.03311 0.51641 0.0
C357 C 0.12413 0.11249 0.58386 0.0
C358 C 0.14514 0.11466 0.54533 0.0
C359 C 0.10995 0.07895 0.4723 0.0
C360 C 0.0539 0.04112 0.43769 0.0
C361 C 0.08926 0.07542 0.51136 0.0
C362 C 0.97639 0.9991 0.44323 0.0
C363 C 0.95543 0.99481 0.48213 0.0
H364 H 0.59987 0.25338 0.8997 0.0
H365 H 0.81397 0.44204 0.93412 0.0
H366 H 0.83266 0.4542 0.86263 0.0
H367 H 0.78773 0.41198 0.79021 0.0
H368 H 0.5765 0.22071 0.75647 0.0
H369 H 0.55651 0.21005 0.82722 0.0
C370 C 0.65081 0.29717 0.8916 0.0
C371 C 0.70611 0.34625 0.92261 0.0
C372 C 0.66111 0.30394 0.85025 0.0
C373 C 0.77155 0.40263 0.91137 0.0
C374 C 0.78182 0.40993 0.87028 0.0
C375 C 0.73698 0.3678 0.79805 0.0
C376 C 0.68273 0.31811 0.76693 0.0
C377 C 0.72694 0.36091 0.83944 0.0
C378 C 0.61805 0.26125 0.77851 0.0
C379 C 0.60701 0.25454 0.8195 0.0
H380 H 0.23307 0.62614 0.22054 0.0
H381 H 0.47233 0.72854 0.27261 0.0
H382 H 0.50925 0.76163 0.20573 0.0
H383 H 0.47439 0.7656 0.13239 0.0
H384 H 0.23558 0.6703 0.08228 0.0
H385 H 0.19846 0.6309 0.14798 0.0
C386 C 0.29347 0.65543 0.21743 0.0
C387 C 0.34937 0.67316 0.25205 0.0
C388 C 0.31465 0.67593 0.17885 0.0
C389 C 0.42726 0.71165 0.2469 0.0
C390 C 0.4487 0.73158 0.20846 0.0
C391 C 0.41408 0.73594 0.1357 0.0
C392 C 0.35793 0.71961 0.10151 0.0
C393 C 0.39295 0.71441 0.17423 0.0
C394 C 0.28025 0.68169 0.10694 0.0
C395 C 0.25885 0.65973 0.14496 0.0
H396 H 0.15465 0.10983 0.09074 0.0
H397 H 0.14572 0.9472 0.04896 0.0
H398 H 0.20332 1.00161 0.9891 0.0
H399 H 0.22874 0.08436 0.94307 0.0
H400 H 0.22033 0.23867 0.98221 0.0
H401 H 0.20131 0.20092 0.05027 0.0
C402 C 0.16542 0.08638 0.0685 0.0
C403 C 0.14292 0.02369 0.07266 0.0
C404 C 0.19706 0.11734 0.03447 0.0
C405 C 0.16066 0.99483 0.04521 0.0
C406 C 0.19386 0.02602 1.01135 0.0
C407 C 0.22664 0.11133 0.96728 0.0
C408 C 0.22554 0.16375 0.95832 0.0
C409 C 0.20891 0.08596 1.00482 0.0
C410 C 0.22174 0.1984 0.98912 0.0
C411 C 0.20939 0.17607 0.02758 0.0
H412 H 0.81749 0.42618 0.31006 0.0
H413 H 0.9206 0.32604 0.31447 0.0
H414 H 0.84656 0.26339 0.36776 0.0
H415 H 0.73577 0.22388 0.40289 0.0
H416 H 0.62084 0.31466 0.38944 0.0
H417 H 0.71283 0.39124 0.34735 0.0
C418 C 0.82504 0.39156 0.32332 0.0
C419 C 0.87198 0.37889 0.30741 0.0
C420 C 0.77696 0.35154 0.35047 0.0
C421 C 0.88371 0.3359 0.32579 0.0
C422 C 0.84004 0.299 0.35551 0.0
C423 C 0.73032 0.25997 0.39043 0.0
C424 C 0.67095 0.26301 0.39888 0.0
C425 C 0.78306 0.30367 0.366 0.0
C426 C 0.66536 0.31067 0.38295 0.0
C427 C 0.71855 0.35509 0.35939 0.0
H428 H 0.27062 0.64801 0.59849 0.0
H429 H 0.26708 0.49129 0.64586 0.0
H430 H 0.21422 0.49754 0.7054 0.0
H431 H 0.19268 0.56121 0.74851 0.0
H432 H 0.21264 0.72601 0.70346 0.0
H433 H 0.23235 0.70164 0.63704 0.0
C434 C 0.25875 0.61552 0.622 0.0
C435 C 0.27594 0.57143 0.61928 0.0
C436 C 0.22985 0.62019 0.6558 0.0
C437 C 0.25623 0.52689 0.64839 0.0
C438 C 0.22576 0.53028 0.68209 0.0
C439 C 0.1979 0.58982 0.72344 0.0
C440 C 0.20112 0.645 0.73018 0.0
C441 C 0.21522 0.57843 0.68677 0.0
C442 C 0.20937 0.68299 0.69825 0.0
C443 C 0.22187 0.66966 0.66073 0.0
loop_
_geom_bond_atom_site_label_1
_geom_bond_atom_site_label_2
_geom_bond_distance
_geom_bond_site_symmetry_2
_ccdc_geom_bond_type
Co0 O3 1.991 1_455 S
Co0 N17 1.971 1_465 S
Co0 O25 1.970 1_565 S
Co0 O32 1.918 1_565 S
Co1 O4 1.971 1_445 S
Co1 N10 2.022 . S
Co1 N18 1.993 1_455 S
Co1 O26 1.941 . S
C2 O3 1.258 . S
C2 O4 1.262 . S
O3 Co0 1.991 1_655 S
O3 C2 1.258 . S
O4 Co1 1.971 1_665 S
O4 C2 1.262 . S
C5 O6 1.235 . S
C5 O32 1.289 1_665 S
O6 C5 1.235 . S
C7 C9 1.400 1_565 S
C7 N10 1.351 1_665 S
C7 C12 1.501 . S
C8 C9 1.387 1_455 S
C8 N11 1.341 . S
C9 C7 1.400 1_545 S
C9 C8 1.387 1_655 S
N10 Co1 2.022 . S
N10 C7 1.351 1_445 S
N10 N11 1.365 . S
N11 C8 1.341 . S
N11 N10 1.365 . S
N11 H31 0.862 . S
C12 C7 1.501 . S
C12 H13 0.961 . S
C12 H14 0.961 . S
C12 H15 0.960 . S
H13 C12 0.961 . S
H14 C12 0.961 . S
H15 C12 0.960 . S
C16 N17 1.342 . S
C16 C20 1.401 . S
C16 C21 1.499 . S
N17 Co0 1.971 1_645 S
N17 C16 1.342 . S
N17 N18 1.388 . S
N18 Co1 1.993 1_655 S
N18 N17 1.388 . S
N18 C19 1.346 . S
C19 N18 1.346 . S
C19 C20 1.396 . S
C19 C29 1.510 . S
C20 C16 1.401 . S
C20 C19 1.396 . S
C21 C16 1.499 . S
C21 H22 0.959 . S
C21 H23 0.960 . S
C21 H24 0.961 . S
H22 C21 0.959 . S
H23 C21 0.960 . S
H24 C21 0.961 . S
O25 Co0 1.970 1_545 S
O25 C33 1.258 . S
O26 Co1 1.941 . S
O26 C33 1.266 . S
H27 C29 0.959 . S
H28 C29 0.961 . S
C29 C19 1.510 . S
C29 H27 0.959 . S
C29 H28 0.961 . S
C29 H30 0.960 . S
H30 C29 0.960 . S
H31 N11 0.862 . S
O32 Co0 1.918 1_545 S
O32 C5 1.289 1_445 S
C33 O25 1.258 . S
C33 O26 1.266 . S
Co34 O37 1.970 1_545 S
Co34 N51 1.989 . S
Co34 O59 1.967 1_445 S
Co34 O66 1.920 . S
Co35 O38 1.966 1_655 S
Co35 N44 2.022 . S
Co35 N52 1.993 1_665 S
Co35 O60 1.941 . S
C36 O37 1.258 . S
C36 O38 1.263 . S
O37 Co34 1.970 1_565 S
O37 C36 1.258 . S
O38 Co35 1.966 1_455 S
O38 C36 1.263 . S
C39 O40 1.235 . S
C39 O66 1.289 . S
O40 C39 1.235 . S
C41 C43 1.400 . S
C41 N44 1.351 1_445 S
C41 C46 1.501 1_545 S
C42 C43 1.387 1_655 S
C42 N45 1.341 . S
C43 C41 1.400 . S
C43 C42 1.387 1_455 S
N44 Co35 2.022 . S
N44 C41 1.351 1_665 S
N44 N45 1.365 1_565 S
N45 C42 1.341 . S
N45 N44 1.365 1_545 S
N45 H65 0.862 . S
C46 C41 1.501 1_565 S
C46 H47 0.961 . S
C46 H48 0.961 1_565 S
C46 H49 0.960 . S
H47 C46 0.961 . S
H48 C46 0.961 1_545 S
H49 C46 0.960 . S
C50 N51 1.342 . S
C50 C54 1.401 . S
C50 C55 1.499 . S
N51 Co34 1.989 . S
N51 C50 1.342 . S
N51 N52 1.388 . S
N52 Co35 1.993 1_445 S
N52 N51 1.388 . S
N52 C53 1.346 . S
C53 N52 1.346 . S
C53 C54 1.396 . S
C53 C63 1.510 . S
C54 C50 1.401 . S
C54 C53 1.396 . S
C55 C50 1.499 . S
C55 H56 0.959 . S
C55 H57 0.960 . S
C55 H58 0.961 . S
H56 C55 0.959 . S
H57 C55 0.960 . S
H58 C55 0.961 . S
O59 Co34 1.967 1_665 S
O59 C67 1.258 . S
O60 Co35 1.941 . S
O60 C67 1.266 . S
H61 C63 0.959 . S
H62 C63 0.961 . S
C63 C53 1.510 . S
C63 H61 0.959 . S
C63 H62 0.961 . S
C63 H64 0.960 . S
H64 C63 0.960 . S
H65 N45 0.862 . S
O66 Co34 1.920 . S
O66 C39 1.289 . S
C67 O59 1.258 . S
C67 O60 1.266 . S
Co68 O71 1.970 . S
Co68 N85 1.989 . S
Co68 O93 1.967 . S
Co68 O100 1.920 . S
Co69 O72 1.966 . S
Co69 N78 2.022 . S
Co69 N86 1.993 . S
Co69 O94 1.941 . S
C70 O71 1.258 . S
C70 O72 1.263 . S
O71 Co68 1.970 . S
O71 C70 1.258 . S
O72 Co69 1.966 . S
O72 C70 1.263 . S
C73 O74 1.235 . S
C73 O100 1.289 . S
O74 C73 1.235 . S
C75 C77 1.400 . S
C75 N78 1.351 . S
C75 C80 1.501 . S
C76 C77 1.387 . S
C76 N79 1.341 . S
C77 C75 1.400 . S
C77 C76 1.387 . S
N78 Co69 2.022 . S
N78 C75 1.351 . S
N78 N79 1.365 . S
N79 C76 1.341 . S
N79 N78 1.365 . S
N79 H99 0.862 . S
C80 C75 1.501 . S
C80 H81 0.961 . S
C80 H82 0.961 . S
C80 H83 0.960 . S
H81 C80 0.961 . S
H82 C80 0.961 . S
H83 C80 0.960 . S
C84 N85 1.342 . S
C84 C88 1.401 . S
C84 C89 1.499 . S
N85 Co68 1.989 . S
N85 C84 1.342 . S
N85 N86 1.388 . S
N86 Co69 1.993 . S
N86 N85 1.388 . S
N86 C87 1.346 . S
C87 N86 1.346 . S
C87 C88 1.396 . S
C87 C97 1.510 . S
C88 C84 1.401 . S
C88 C87 1.396 . S
C89 C84 1.499 . S
C89 H90 0.959 . S
C89 H91 0.960 . S
C89 H92 0.961 . S
H90 C89 0.959 . S
H91 C89 0.960 . S
H92 C89 0.961 . S
O93 Co68 1.967 . S
O93 C101 1.258 . S
O94 Co69 1.941 . S
O94 C101 1.266 . S
H95 C97 0.959 . S
H96 C97 0.961 . S
C97 C87 1.510 . S
C97 H95 0.959 . S
C97 H96 0.961 . S
C97 H98 0.960 . S
H98 C97 0.960 . S
H99 N79 0.862 . S
O100 Co68 1.920 . S
O100 C73 1.289 . S
C101 O93 1.258 . S
C101 O94 1.266 . S
Co102 O105 1.970 . S
Co102 N119 1.989 . S
Co102 O127 1.967 . S
Co102 O134 1.920 . S
Co103 O106 1.966 . S
Co103 N112 2.022 . S
Co103 N120 1.993 . S
Co103 O128 1.941 . S
C104 O105 1.258 . S
C104 O106 1.263 . S
O105 Co102 1.970 . S
O105 C104 1.258 . S
O106 Co103 1.966 . S
O106 C104 1.263 . S
C107 O108 1.235 . S
C107 O134 1.289 . S
O108 C107 1.235 . S
C109 C111 1.400 . S
C109 N112 1.351 1_556 S
C109 C114 1.501 1_556 S
C110 C111 1.387 . S
C110 N113 1.341 . S
C111 C109 1.400 . S
C111 C110 1.387 . S
N112 Co103 2.022 . S
N112 C109 1.351 1_554 S
N112 N113 1.365 1_554 S
N113 C110 1.341 . S
N113 N112 1.365 1_556 S
N113 H133 0.862 1_556 S
C114 C109 1.501 1_554 S
C114 H115 0.961 . S
C114 H116 0.961 . S
C114 H117 0.960 1_554 S
H115 C114 0.961 . S
H116 C114 0.961 . S
H117 C114 0.960 1_556 S
C118 N119 1.342 . S
C118 C122 1.401 . S
C118 C123 1.499 . S
N119 Co102 1.989 . S
N119 C118 1.342 . S
N119 N120 1.388 . S
N120 Co103 1.993 . S
N120 N119 1.388 . S
N120 C121 1.346 . S
C121 N120 1.346 . S
C121 C122 1.396 . S
C121 C131 1.510 . S
C122 C118 1.401 . S
C122 C121 1.396 . S
C123 C118 1.499 . S
C123 H124 0.959 . S
C123 H125 0.960 . S
C123 H126 0.961 . S
H124 C123 0.959 . S
H125 C123 0.960 . S
H126 C123 0.961 . S
O127 Co102 1.967 . S
O127 C135 1.258 . S
O128 Co103 1.941 . S
O128 C135 1.266 . S
H129 C131 0.959 . S
H130 C131 0.961 . S
C131 C121 1.510 . S
C131 H129 0.959 . S
C131 H130 0.961 . S
C131 H132 0.960 . S
H132 C131 0.960 . S
H133 N113 0.862 1_554 S
O134 Co102 1.920 . S
O134 C107 1.289 . S
C135 O127 1.258 . S
C135 O128 1.266 . S
Co136 O139 1.970 . S
Co136 N153 1.989 . S
Co136 O161 1.967 . S
Co136 O168 1.920 . S
Co137 O140 1.966 . S
Co137 N146 2.022 . S
Co137 N154 1.993 . S
Co137 O162 1.941 . S
C138 O139 1.258 . S
C138 O140 1.263 . S
O139 Co136 1.970 . S
O139 C138 1.258 . S
O140 Co137 1.966 . S
O140 C138 1.263 . S
C141 O142 1.235 . S
C141 O168 1.289 . S
O142 C141 1.235 . S
C143 C145 1.400 . S
C143 N146 1.351 1_554 S
C143 C148 1.501 1_554 S
C144 C145 1.387 . S
C144 N147 1.341 . S
C145 C143 1.400 . S
C145 C144 1.387 . S
N146 Co137 2.022 . S
N146 C143 1.351 1_556 S
N146 N147 1.365 1_556 S
N147 C144 1.341 . S
N147 N146 1.365 1_554 S
N147 H167 0.862 1_554 S
C148 C143 1.501 1_556 S
C148 H149 0.961 . S
C148 H150 0.961 . S
C148 H151 0.960 1_556 S
H149 C148 0.961 . S
H150 C148 0.961 . S
H151 C148 0.960 1_554 S
C152 N153 1.342 . S
C152 C156 1.401 . S
C152 C157 1.499 . S
N153 Co136 1.989 . S
N153 C152 1.342 . S
N153 N154 1.388 . S
N154 Co137 1.993 . S
N154 N153 1.388 . S
N154 C155 1.346 . S
C155 N154 1.346 . S
C155 C156 1.396 . S
C155 C165 1.510 . S
C156 C152 1.401 . S
C156 C155 1.396 . S
C157 C152 1.499 . S
C157 H158 0.959 . S
C157 H159 0.960 . S
C157 H160 0.961 . S
H158 C157 0.959 . S
H159 C157 0.960 . S
H160 C157 0.961 . S
O161 Co136 1.967 . S
O161 C169 1.258 . S
O162 Co137 1.941 . S
O162 C169 1.266 . S
H163 C165 0.959 . S
H164 C165 0.961 . S
C165 C155 1.510 . S
C165 H163 0.959 . S
C165 H164 0.961 . S
C165 H166 0.960 . S
H166 C165 0.960 . S
H167 N147 0.862 1_556 S
O168 Co136 1.920 . S
O168 C141 1.289 . S
C169 O161 1.258 . S
C169 O162 1.266 . S
Co170 O173 1.970 . S
Co170 N187 1.989 . S
Co170 O195 1.967 . S
Co170 O202 1.920 . S
Co171 O174 1.966 . S
Co171 N180 2.022 . S
Co171 N188 1.993 . S
Co171 O196 1.941 . S
C172 O173 1.258 . S
C172 O174 1.263 . S
O173 Co170 1.970 . S
O173 C172 1.258 . S
O174 Co171 1.966 . S
O174 C172 1.263 . S
C175 O176 1.235 . S
C175 O202 1.289 . S
O176 C175 1.235 . S
C177 C179 1.400 . S
C177 N180 1.351 . S
C177 C182 1.501 . S
C178 C179 1.387 . S
C178 N181 1.341 . S
C179 C177 1.400 . S
C179 C178 1.387 . S
N180 Co171 2.022 . S
N180 C177 1.351 . S
N180 N181 1.365 . S
N181 C178 1.341 . S
N181 N180 1.365 . S
N181 H201 0.862 . S
C182 C177 1.501 . S
C182 H183 0.961 . S
C182 H184 0.961 . S
C182 H185 0.960 . S
H183 C182 0.961 . S
H184 C182 0.961 . S
H185 C182 0.960 . S
C186 N187 1.342 . S
C186 C190 1.401 . S
C186 C191 1.499 . S
N187 Co170 1.989 . S
N187 C186 1.342 . S
N187 N188 1.388 . S
N188 Co171 1.993 . S
N188 N187 1.388 . S
N188 C189 1.346 . S
C189 N188 1.346 . S
C189 C190 1.396 . S
C189 C199 1.510 . S
C190 C186 1.401 . S
C190 C189 1.396 . S
C191 C186 1.499 . S
C191 H192 0.959 . S
C191 H193 0.960 . S
C191 H194 0.961 . S
H192 C191 0.959 . S
H193 C191 0.960 . S
H194 C191 0.961 . S
O195 Co170 1.967 . S
O195 C203 1.258 . S
O196 Co171 1.941 . S
O196 C203 1.266 . S
H197 C199 0.959 . S
H198 C199 0.961 . S
C199 C189 1.510 . S
C199 H197 0.959 . S
C199 H198 0.961 . S
C199 H200 0.960 . S
H200 C199 0.960 . S
H201 N181 0.862 . S
O202 Co170 1.920 . S
O202 C175 1.289 . S
C203 O195 1.258 . S
C203 O196 1.266 . S
H204 C210 0.930 . S
H205 C213 0.930 . S
H206 C214 0.930 . S
H207 C215 0.930 . S
H208 C218 0.930 . S
H209 C219 0.930 . S
C210 H204 0.930 . S
C210 C211 1.355 . S
C210 C212 1.415 . S
C211 C210 1.355 . S
C211 C213 1.419 . S
C212 C210 1.415 . S
C212 C217 1.425 . S
C212 C219 1.409 . S
C213 H205 0.930 . S
C213 C211 1.419 . S
C213 C214 1.362 . S
C214 H206 0.930 . S
C214 C213 1.362 . S
C214 C217 1.409 . S
C215 H207 0.930 . S
C215 C216 1.355 . S
C215 C217 1.415 . S
C216 C215 1.355 . S
C216 C218 1.419 . S
C217 C212 1.425 . S
C217 C214 1.409 . S
C217 C215 1.415 . S
C218 H208 0.930 . S
C218 C216 1.419 . S
C218 C219 1.362 . S
C219 H209 0.930 . S
C219 C212 1.409 . S
C219 C218 1.362 . S
H220 C226 0.930 . S
H221 C229 0.930 . S
H222 C230 0.930 . S
H223 C231 0.930 . S
H224 C234 0.930 . S
H225 C235 0.930 . S
C226 H220 0.930 . S
C226 C227 1.355 . S
C226 C228 1.415 . S
C227 C226 1.355 . S
C227 C229 1.419 . S
C228 C226 1.415 . S
C228 C233 1.425 . S
C228 C235 1.409 . S
C229 H221 0.930 . S
C229 C227 1.419 . S
C229 C230 1.362 . S
C230 H222 0.930 . S
C230 C229 1.362 . S
C230 C233 1.409 . S
C231 H223 0.930 . S
C231 C232 1.355 . S
C231 C233 1.415 . S
C232 C231 1.355 . S
C232 C234 1.419 . S
C233 C228 1.425 . S
C233 C230 1.409 . S
C233 C231 1.415 . S
C234 H224 0.930 . S
C234 C232 1.419 . S
C234 C235 1.362 . S
C235 H225 0.930 . S
C235 C228 1.409 . S
C235 C234 1.362 . S
H236 C242 0.930 . S
H237 C245 0.930 . S
H238 C246 0.930 . S
H239 C247 0.930 . S
H240 C250 0.930 . S
H241 C251 0.930 . S
C242 H236 0.930 . S
C242 C243 1.355 . S
C242 C244 1.415 . S
C243 C242 1.355 . S
C243 C245 1.419 . S
C244 C242 1.415 . S
C244 C249 1.425 . S
C244 C251 1.409 . S
C245 H237 0.930 . S
C245 C243 1.419 . S
C245 C246 1.362 . S
C246 H238 0.930 . S
C246 C245 1.362 . S
C246 C249 1.409 . S
C247 H239 0.930 . S
C247 C248 1.355 . S
C247 C249 1.415 . S
C248 C247 1.355 . S
C248 C250 1.419 . S
C249 C244 1.425 . S
C249 C246 1.409 . S
C249 C247 1.415 . S
C250 H240 0.930 . S
C250 C248 1.419 . S
C250 C251 1.362 . S
C251 H241 0.930 . S
C251 C244 1.409 . S
C251 C250 1.362 . S
H252 C258 0.930 . S
H253 C261 0.930 . S
H254 C262 0.930 . S
H255 C263 0.930 . S
H256 C266 0.930 . S
H257 C267 0.930 . S
C258 H252 0.930 . S
C258 C259 1.355 . S
C258 C260 1.415 . S
C259 C258 1.355 . S
C259 C261 1.419 . S
C260 C258 1.415 . S
C260 C265 1.425 . S
C260 C267 1.409 . S
C261 H253 0.930 . S
C261 C259 1.419 . S
C261 C262 1.362 . S
C262 H254 0.930 . S
C262 C261 1.362 . S
C262 C265 1.409 . S
C263 H255 0.930 . S
C263 C264 1.355 . S
C263 C265 1.415 . S
C264 C263 1.355 . S
C264 C266 1.419 . S
C265 C260 1.425 . S
C265 C262 1.409 . S
C265 C263 1.415 . S
C266 H256 0.930 . S
C266 C264 1.419 . S
C266 C267 1.362 . S
C267 H257 0.930 . S
C267 C260 1.409 . S
C267 C266 1.362 . S
H268 C274 0.930 . S
H269 C277 0.930 . S
H270 C278 0.930 . S
H271 C279 0.930 . S
H272 C282 0.930 . S
H273 C283 0.930 . S
C274 H268 0.930 . S
C274 C275 1.355 . S
C274 C276 1.415 . S
C275 C274 1.355 . S
C275 C277 1.419 . S
C276 C274 1.415 . S
C276 C281 1.425 . S
C276 C283 1.409 . S
C277 H269 0.930 . S
C277 C275 1.419 . S
C277 C278 1.362 . S
C278 H270 0.930 . S
C278 C277 1.362 . S
C278 C281 1.409 . S
C279 H271 0.930 . S
C279 C280 1.355 . S
C279 C281 1.415 . S
C280 C279 1.355 . S
C280 C282 1.419 . S
C281 C276 1.425 . S
C281 C278 1.409 . S
C281 C279 1.415 . S
C282 H272 0.930 . S
C282 C280 1.419 . S
C282 C283 1.362 . S
C283 H273 0.930 . S
C283 C276 1.409 . S
C283 C282 1.362 . S
H284 C290 0.930 . S
H285 C293 0.930 1_655 S
H286 C294 0.930 . S
H287 C295 0.930 . S
H288 C298 0.930 . S
H289 C299 0.930 . S
C290 H284 0.930 . S
C290 C291 1.355 . S
C290 C292 1.415 . S
C291 C290 1.355 . S
C291 C293 1.419 . S
C292 C290 1.415 . S
C292 C297 1.425 . S
C292 C299 1.409 . S
C293 H285 0.930 1_455 S
C293 C291 1.419 . S
C293 C294 1.362 . S
C294 H286 0.930 . S
C294 C293 1.362 . S
C294 C297 1.409 . S
C295 H287 0.930 . S
C295 C296 1.355 . S
C295 C297 1.415 . S
C296 C295 1.355 . S
C296 C298 1.419 . S
C297 C292 1.425 . S
C297 C294 1.409 . S
C297 C295 1.415 . S
C298 H288 0.930 . S
C298 C296 1.419 . S
C298 C299 1.362 . S
C299 H289 0.930 . S
C299 C292 1.409 . S
C299 C298 1.362 . S
H300 C306 0.930 . S
H301 C309 0.930 . S
H302 C310 0.930 1_455 S
H303 C311 0.930 . S
H304 C314 0.930 . S
H305 C315 0.930 . S
C306 H300 0.930 . S
C306 C307 1.355 . S
C306 C308 1.415 1_655 S
C307 C306 1.355 . S
C307 C309 1.419 . S
C308 C306 1.415 1_455 S
C308 C313 1.425 . S
C308 C315 1.409 . S
C309 H301 0.930 . S
C309 C307 1.419 . S
C309 C310 1.362 . S
C310 H302 0.930 1_655 S
C310 C309 1.362 . S
C310 C313 1.409 1_655 S
C311 H303 0.930 . S
C311 C312 1.355 . S
C311 C313 1.415 . S
C312 C311 1.355 . S
C312 C314 1.419 . S
C313 C308 1.425 . S
C313 C310 1.409 1_455 S
C313 C311 1.415 . S
C314 H304 0.930 . S
C314 C312 1.419 . S
C314 C315 1.362 . S
C315 H305 0.930 . S
C315 C308 1.409 . S
C315 C314 1.362 . S
H316 C322 0.930 . S
H317 C325 0.930 . S
H318 C326 0.930 . S
H319 C327 0.930 . S
H320 C330 0.930 . S
H321 C331 0.930 . S
C322 H316 0.930 . S
C322 C323 1.355 . S
C322 C324 1.415 . S
C323 C322 1.355 . S
C323 C325 1.419 . S
C324 C322 1.415 . S
C324 C329 1.425 . S
C324 C331 1.409 . S
C325 H317 0.930 . S
C325 C323 1.419 . S
C325 C326 1.362 . S
C326 H318 0.930 . S
C326 C325 1.362 . S
C326 C329 1.409 . S
C327 H319 0.930 . S
C327 C328 1.355 . S
C327 C329 1.415 . S
C328 C327 1.355 . S
C328 C330 1.419 . S
C329 C324 1.425 . S
C329 C326 1.409 . S
C329 C327 1.415 . S
C330 H320 0.930 . S
C330 C328 1.419 . S
C330 C331 1.362 . S
C331 H321 0.930 . S
C331 C324 1.409 . S
C331 C330 1.362 . S
H332 C338 0.930 . S
H333 C341 0.930 . S
H334 C342 0.930 1_545 S
H335 C343 0.930 . S
H336 C346 0.930 . S
H337 C347 0.930 . S
C338 H332 0.930 . S
C338 C339 1.355 . S
C338 C340 1.415 1_565 S
C339 C338 1.355 . S
C339 C341 1.419 . S
C340 C338 1.415 1_545 S
C340 C345 1.425 . S
C340 C347 1.409 . S
C341 H333 0.930 . S
C341 C339 1.419 . S
C341 C342 1.362 . S
C342 H334 0.930 1_565 S
C342 C341 1.362 . S
C342 C345 1.409 1_565 S
C343 H335 0.930 . S
C343 C344 1.355 . S
C343 C345 1.415 . S
C344 C343 1.355 . S
C344 C346 1.419 . S
C345 C340 1.425 . S
C345 C342 1.409 1_545 S
C345 C343 1.415 . S
C346 H336 0.930 . S
C346 C344 1.419 . S
C346 C347 1.362 . S
C347 H337 0.930 . S
C347 C340 1.409 . S
C347 C346 1.362 . S
H348 C354 0.930 . S
H349 C357 0.930 . S
H350 C358 0.930 . S
H351 C359 0.930 . S
H352 C362 0.930 . S
H353 C363 0.930 . S
C354 H348 0.930 . S
C354 C355 1.355 1_665 S
C354 C356 1.415 . S
C355 C354 1.355 1_445 S
C355 C357 1.419 . S
C356 C354 1.415 . S
C356 C361 1.425 1_665 S
C356 C363 1.409 . S
C357 H349 0.930 . S
C357 C355 1.419 . S
C357 C358 1.362 . S
C358 H350 0.930 . S
C358 C357 1.362 . S
C358 C361 1.409 . S
C359 H351 0.930 . S
C359 C360 1.355 1_445 S
C359 C361 1.415 . S
C360 C359 1.355 1_665 S
C360 C362 1.419 . S
C361 C356 1.425 1_445 S
C361 C358 1.409 . S
C361 C359 1.415 . S
C362 H352 0.930 . S
C362 C360 1.419 . S
C362 C363 1.362 . S
C363 H353 0.930 . S
C363 C356 1.409 . S
C363 C362 1.362 . S
H364 C370 0.930 . S
H365 C373 0.930 . S
H366 C374 0.930 . S
H367 C375 0.930 . S
H368 C378 0.930 . S
H369 C379 0.930 . S
C370 H364 0.930 . S
C370 C371 1.355 . S
C370 C372 1.415 . S
C371 C370 1.355 . S
C371 C373 1.419 . S
C372 C370 1.415 . S
C372 C377 1.425 . S
C372 C379 1.409 . S
C373 H365 0.930 . S
C373 C371 1.419 . S
C373 C374 1.362 . S
C374 H366 0.930 . S
C374 C373 1.362 . S
C374 C377 1.409 . S
C375 H367 0.930 . S
C375 C376 1.355 . S
C375 C377 1.415 . S
C376 C375 1.355 . S
C376 C378 1.419 . S
C377 C372 1.425 . S
C377 C374 1.409 . S
C377 C375 1.415 . S
C378 H368 0.930 . S
C378 C376 1.419 . S
C378 C379 1.362 . S
C379 H369 0.930 . S
C379 C372 1.409 . S
C379 C378 1.362 . S
H380 C386 0.930 . S
H381 C389 0.930 . S
H382 C390 0.930 . S
H383 C391 0.930 . S
H384 C394 0.930 . S
H385 C395 0.930 . S
C386 H380 0.930 . S
C386 C387 1.355 . S
C386 C388 1.415 . S
C387 C386 1.355 . S
C387 C389 1.419 . S
C388 C386 1.415 . S
C388 C393 1.425 . S
C388 C395 1.409 . S
C389 H381 0.930 . S
C389 C387 1.419 . S
C389 C390 1.362 . S
C390 H382 0.930 . S
C390 C389 1.362 . S
C390 C393 1.409 . S
C391 H383 0.930 . S
C391 C392 1.355 . S
C391 C393 1.415 . S
C392 C391 1.355 . S
C392 C394 1.419 . S
C393 C388 1.425 . S
C393 C390 1.409 . S
C393 C391 1.415 . S
C394 H384 0.930 . S
C394 C392 1.419 . S
C394 C395 1.362 . S
C395 H385 0.930 . S
C395 C388 1.409 . S
C395 C394 1.362 . S
H396 C402 0.930 . S
H397 C405 0.930 . S
H398 C406 0.929 . S
H399 C407 0.932 . S
H400 C410 0.930 . S
H401 C411 0.930 . S
C402 H396 0.930 . S
C402 C403 1.355 1_545 S
C402 C404 1.415 1_655 S
C403 C402 1.355 1_565 S
C403 C405 1.419 . S
C404 C402 1.415 1_455 S
C404 C409 1.425 1_544 S
C404 C411 1.409 1_554 S
C405 H397 0.930 . S
C405 C403 1.419 . S
C405 C406 1.362 . S
C406 H398 0.929 . S
C406 C405 1.362 . S
C406 C409 1.409 1_654 S
C407 H399 0.932 . S
C407 C408 1.353 1_565 S
C407 C409 1.414 . S
C408 C407 1.353 1_545 S
C408 C410 1.419 . S
C409 C404 1.425 1_566 S
C409 C406 1.409 1_456 S
C409 C407 1.414 . S
C410 H400 0.930 . S
C410 C408 1.419 . S
C410 C411 1.362 . S
C411 H401 0.930 . S
C411 C404 1.409 1_556 S
C411 C410 1.362 . S
H412 C418 0.930 . S
H413 C421 0.930 . S
H414 C422 0.930 . S
H415 C423 0.930 . S
H416 C426 0.930 . S
H417 C427 0.930 . S
C418 H412 0.930 . S
C418 C419 1.355 . S
C418 C420 1.415 . S
C419 C418 1.355 . S
C419 C421 1.419 . S
C420 C418 1.415 . S
C420 C425 1.425 . S
C420 C427 1.409 . S
C421 H413 0.930 . S
C421 C419 1.419 . S
C421 C422 1.362 . S
C422 H414 0.930 . S
C422 C421 1.362 . S
C422 C425 1.409 . S
C423 H415 0.930 . S
C423 C424 1.355 . S
C423 C425 1.415 . S
C424 C423 1.355 . S
C424 C426 1.419 . S
C425 C420 1.425 . S
C425 C422 1.409 . S
C425 C423 1.415 . S
C426 H416 0.930 . S
C426 C424 1.419 . S
C426 C427 1.362 . S
C427 H417 0.930 . S
C427 C420 1.409 . S
C427 C426 1.362 . S
H428 C434 0.930 . S
H429 C437 0.930 . S
H430 C438 0.930 . S
H431 C439 0.930 . S
H432 C442 0.930 . S
H433 C443 0.930 . S
C434 H428 0.930 . S
C434 C435 1.355 . S
C434 C436 1.415 . S
C435 C434 1.355 . S
C435 C437 1.419 . S
C436 C434 1.415 . S
C436 C441 1.425 . S
C436 C443 1.409 . S
C437 H429 0.930 . S
C437 C435 1.419 . S
C437 C438 1.362 . S
C438 H430 0.930 . S
C438 C437 1.362 . S
C438 C441 1.409 . S
C439 H431 0.930 . S
C439 C440 1.355 . S
C439 C441 1.415 . S
C440 C439 1.355 . S
C440 C442 1.419 . S
C441 C436 1.425 . S
C441 C438 1.409 . S
C441 C439 1.415 . S
C442 H432 0.930 . S
C442 C440 1.419 . S
C442 C443 1.362 . S
C443 H433 0.930 . S
C443 C436 1.409 . S
C443 C442 1.362 . S
C211 C33 1.351 . S
C216 C135 1.361 . S
C227 C20 1.771 . S
C232 C104 1.770 . S
C243 C122 1.776 . S
C248 C2 1.771 . S
C259 C54 1.800 . S
C264 C138 1.801 . S
C275 C169 1.357 . S
C280 C67 1.365 . S
C291 C36 1.809 . S
C296 C156 1.809 . S
C307 C101 1.340 . S
C312 C203 1.327 . S
C323 C88 1.779 . S
C328 C172 1.774 . S
C339 C190 1.798 . S
C344 C70 1.798 . S
C355 C43 1.897 . S
C360 C9 1.903 1_565 S
C371 C111 1.853 . S
C376 C77 1.875 . S
C387 C179 1.874 . S
C392 C145 1.892 . S
C403 C5 0.638 . S
C408 C39 0.656 . S
C419 C107 0.690 . S
C424 C73 0.687 . S
C435 C175 0.645 . S
C440 C141 0.663 . S
