# Generated by pormake.
# Topology unm, (4)-cn, num edge types: 1
# Building blocks:
#     Node 0, Type 0, BuildingBlock: AZAVOO_clean_sbu_0, # of connection points: 4
#     Node 1, Type 0, BuildingBlock: AZAVOO_clean_sbu_0, # of connection points: 4
#     Node 2, Type 0, BuildingBlock: AZAVOO_clean_sbu_0, # of connection points: 4
#     Node 3, Type 0, BuildingBlock: AZAVOO_clean_sbu_0, # of connection points: 4
#     Node 4, Type 0, BuildingBlock: AZAVOO_clean_sbu_0, # of connection points: 4
#     Node 5, Type 0, BuildingBlock: AZAVOO_clean_sbu_0, # of connection points: 4
#     Node 6, Type 0, BuildingBlock: AZAVOO_clean_sbu_0, # of connection points: 4
#     Node 7, Type 0, BuildingBlock: AZAVOO_clean_sbu_0, # of connection points: 4
#     Edge 8, Type (0, 0), BuildingBlock: TEMPAE_clean_linker_10, # of connection points: 2
#     Edge 9, Type (0, 0), BuildingBlock: TEMPAE_clean_linker_10, # of connection points: 2
#     Edge 10, Type (0, 0), BuildingBlock: TEMPAE_clean_linker_10, # of connection points: 2
#     Edge 11, Type (0, 0), BuildingBlock: TEMPAE_clean_linker_10, # of connection points: 2
#     Edge 12, Type (0, 0), BuildingBlock: TEMPAE_clean_linker_10, # of connection points: 2
#     Edge 13, Type (0, 0), BuildingBlock: TEMPAE_clean_linker_10, # of connection points: 2
#     Edge 14, Type (0, 0), BuildingBlock: TEMPAE_clean_linker_10, # of connection points: 2
#     Edge 15, Type (0, 0), BuildingBlock: TEMPAE_clean_linker_10, # of connection points: 2
#     Edge 16, Type (0, 0), BuildingBlock: TEMPAE_clean_linker_10, # of connection points: 2
#     Edge 17, Type (0, 0), BuildingBlock: TEMPAE_clean_linker_10, # of connection points: 2
#     Edge 18, Type (0, 0), BuildingBlock: TEMPAE_clean_linker_10, # of connection points: 2
#     Edge 19, Type (0, 0), BuildingBlock: TEMPAE_clean_linker_10, # of connection points: 2
#     Edge 20, Type (0, 0), BuildingBlock: TEMPAE_clean_linker_10, # of connection points: 2
#     Edge 21, Type (0, 0), BuildingBlock: TEMPAE_clean_linker_10, # of connection points: 2
#     Edge 22, Type (0, 0), BuildingBlock: TEMPAE_clean_linker_10, # of connection points: 2
#     Edge 23, Type (0, 0), BuildingBlock: TEMPAE_clean_linker_10, # of connection points: 2
# Relax obj value: 0.171
# Max RMSD: 0.156
# Mean RMSD: 0.156
data_MOF--net-unm--node1-AZAVOO_clean_sbu_0--edge1-TEMPAE_clean_linker_10
_symmetry_space_group_name_H-M    P1
_symmetry_Int_Tables_number       1
_symmetry_cell_setting            triclinic
loop_
_symmetry_equiv_pos_as_xyz
'x, y, z'
_cell_length_a     25.841112
_cell_length_b     25.733844
_cell_length_c     45.350191
_cell_angle_alpha  89.551838
_cell_angle_beta   90.646434
_cell_angle_gamma 90.189068
loop_
_atom_site_label
_atom_site_type_symbol
_atom_site_fract_x
_atom_site_fract_y
_atom_site_fract_z
_atom_type_partial_charge
Mg0 Mg 0.04986 0.21033 0.1204 0.0
O1 O 0.03863 0.2927 0.10175 0.0
O2 O 0.10167 0.3102 0.06997 0.0
Mg3 Mg 0.15351 0.23807 0.06832 0.0
C4 C 0.06105 0.32353 0.08374 0.0
C5 C 0.95331 0.18937 0.15529 0.0
O6 O 0.9585 0.14831 0.13856 0.0
O7 O 0.1159 0.23989 0.15005 0.0
O8 O 0.17753 0.25267 0.11639 0.0
O9 O 0.0059 0.17588 0.08236 0.0
O10 O 0.09086 0.18757 0.084 0.0
C11 C 0.16209 0.25283 0.14309 0.0
C12 C 0.05045 0.17194 0.06989 0.0
O13 O 0.98748 0.22497 0.15408 0.0
Mg14 Mg 0.29148 0.57894 0.6259 0.0
O15 O 0.2103 0.56315 0.60643 0.0
O16 O 0.19297 0.62479 0.5729 0.0
Mg17 Mg 0.26309 0.6793 0.57058 0.0
C18 C 0.18001 0.58406 0.58732 0.0
C19 C 0.31655 0.48717 0.66432 0.0
O20 O 0.35806 0.49549 0.64848 0.0
O21 O 0.25924 0.64545 0.65303 0.0
O22 O 0.24706 0.70585 0.61786 0.0
O23 O 0.3287 0.53355 0.59038 0.0
O24 O 0.31378 0.61798 0.58813 0.0
C25 C 0.24621 0.69132 0.64489 0.0
C26 C 0.33114 0.57685 0.57577 0.0
O27 O 0.27851 0.51807 0.6614 0.0
Mg28 Mg 0.95048 0.80645 0.12417 0.0
O29 O 0.96239 0.726 0.10389 0.0
O30 O 0.89792 0.70911 0.07226 0.0
Mg31 Mg 0.84415 0.77978 0.0723 0.0
C32 C 0.93973 0.69593 0.08554 0.0
C33 C 0.05392 0.81951 0.15658 0.0
O34 O 0.05264 0.86019 0.13891 0.0
O35 O 0.88731 0.77248 0.1536 0.0
O36 O 0.82392 0.76023 0.12026 0.0
O37 O 0.99113 0.84516 0.08673 0.0
O38 O 0.90691 0.83066 0.08799 0.0
C39 C 0.84121 0.75839 0.14678 0.0
C40 C 0.94626 0.84819 0.0739 0.0
O41 O 0.01525 0.78883 0.15695 0.0
Mg42 Mg 0.69873 0.47003 0.61738 0.0
O43 O 0.77948 0.48028 0.59811 0.0
O44 O 0.79622 0.41622 0.56691 0.0
Mg45 Mg 0.7238 0.36407 0.56629 0.0
C46 C 0.80977 0.45755 0.58038 0.0
C47 C 0.68808 0.57336 0.64962 0.0
O48 O 0.64746 0.5734 0.63194 0.0
O49 O 0.73007 0.40506 0.64756 0.0
O50 O 0.74174 0.34221 0.61441 0.0
O51 O 0.66265 0.51211 0.57879 0.0
O52 O 0.67364 0.42695 0.58169 0.0
C53 C 0.74331 0.35872 0.64093 0.0
C54 C 0.65752 0.46673 0.56703 0.0
O55 O 0.7178 0.53408 0.64991 0.0
Mg56 Mg 0.55697 0.28174 0.32188 0.0
O57 O 0.5413 0.20131 0.34259 0.0
O58 O 0.60645 0.18204 0.37345 0.0
Mg59 Mg 0.66252 0.251 0.37382 0.0
C60 C 0.56377 0.17023 0.3607 0.0
C61 C 0.45693 0.30234 0.28712 0.0
O62 O 0.46155 0.34367 0.30378 0.0
O63 O 0.61904 0.24625 0.29278 0.0
O64 O 0.68268 0.23353 0.32593 0.0
O65 O 0.51806 0.32369 0.35844 0.0
O66 O 0.60108 0.30378 0.35832 0.0
C67 C 0.66517 0.23226 0.29948 0.0
C68 C 0.56275 0.32465 0.37159 0.0
O69 O 0.49208 0.26788 0.28844 0.0
Mg70 Mg 0.23257 0.07759 0.82643 0.0
O71 O 0.31317 0.05829 0.8455 0.0
O72 O 0.33516 0.11996 0.87769 0.0
Mg73 Mg 0.26761 0.17685 0.88077 0.0
C74 C 0.34542 0.07845 0.86371 0.0
C75 C 0.20554 0.9848 0.78801 0.0
O76 O 0.16409 0.9908 0.80414 0.0
O77 O 0.26782 0.14278 0.79874 0.0
O78 O 0.2828 0.20285 0.83326 0.0
O79 O 0.19177 0.03436 0.86225 0.0
O80 O 0.21394 0.1173 0.8643 0.0
C81 C 0.2826 0.18824 0.80639 0.0
C82 C 0.19313 0.07747 0.87674 0.0
O83 O 0.2428 0.01679 0.79099 0.0
Mg84 Mg 0.45318 0.68878 0.32131 0.0
O85 O 0.46478 0.76826 0.34301 0.0
O86 O 0.3996 0.7842 0.3734 0.0
Mg87 Mg 0.3455 0.71352 0.37126 0.0
C88 C 0.44179 0.7978 0.36113 0.0
C89 C 0.55794 0.67812 0.29037 0.0
O90 O 0.55767 0.63685 0.30761 0.0
O91 O 0.39112 0.72474 0.29097 0.0
O92 O 0.32739 0.73593 0.32341 0.0
O93 O 0.4911 0.64725 0.35978 0.0
O94 O 0.40753 0.66329 0.35547 0.0
C95 C 0.34519 0.73911 0.29727 0.0
C96 C 0.44507 0.64395 0.37063 0.0
O97 O 0.51892 0.70809 0.29017 0.0
Mg98 Mg 0.82136 0.96583 0.81706 0.0
O99 O 0.74239 0.97517 0.83885 0.0
O100 O 0.72748 0.90845 0.86929 0.0
Mg101 Mg 0.79817 0.8552 0.86679 0.0
C102 C 0.71348 0.95108 0.85708 0.0
C103 C 0.82985 0.07244 0.78557 0.0
O104 O 0.87159 0.07283 0.80237 0.0
O105 O 0.78621 0.904 0.78661 0.0
O106 O 0.77568 0.83855 0.81888 0.0
O107 O 0.86188 1.00346 0.85563 0.0
O108 O 0.8474 0.9193 0.85141 0.0
C109 C 0.7723 0.85742 0.79278 0.0
C110 C 0.86549 0.95708 0.86671 0.0
O111 O 0.80068 0.03256 0.78588 0.0
C112 C 0.0379 0.1726 0.01546 0.0
C113 C 0.05644 0.14807 0.04103 0.0
C114 C 0.05346 0.15536 -0.01237 0.0
C115 C 0.08762 0.11253 -0.01421 0.0
C116 C 0.10228 0.08493 0.01162 0.0
C117 C 0.08712 0.10364 0.03904 0.0
C118 C 0.03685 0.18548 0.96049 0.0
C119 C 0.13734 0.03819 0.01049 0.0
C120 C 0.12248 0.0558 0.91156 0.0
C121 C 0.16871 0.08229 0.90567 0.0
C122 C 0.09502 0.06549 0.93745 0.0
C123 C 0.11488 0.10187 0.95792 0.0
C124 C 0.16237 0.12756 0.95236 0.0
C125 C 0.18857 0.11754 0.92621 0.0
C126 C 0.04402 0.0383 0.94229 0.0
C127 C 0.18529 0.16612 -0.02614 0.0
H128 H 0.01428 0.20714 0.0173 0.0
H129 H 0.10103 0.08476 0.05907 0.0
H130 H 0.07032 0.20787 0.95191 0.0
H131 H 0.02387 0.15866 0.94286 0.0
H132 H 1.00509 0.2131 0.96519 0.0
H133 H 0.13835 0.01652 0.03178 0.0
H134 H 0.12457 0.01134 -0.0072 0.0
H135 H 0.17728 0.05107 0.00534 0.0
H136 H 0.10669 0.02913 0.89537 0.0
H137 H 0.22462 0.13747 0.92185 0.0
H138 H 0.01205 0.06612 0.93808 0.0
H139 H 0.04085 0.0246 0.96543 0.0
H140 H 0.03859 1.00479 0.92726 0.0
H141 H 0.1575 0.1981 -0.02237 0.0
H142 H 0.22219 0.18323 0.96595 0.0
H143 H 0.19274 0.1468 -0.00455 0.0
C144 C 0.36608 0.53402 0.53094 0.0
C145 C 0.35289 0.57942 0.54591 0.0
C146 C 0.38634 0.53643 0.50241 0.0
C147 C 0.39452 0.58557 0.4889 0.0
C148 C 0.3825 0.63152 0.50432 0.0
C149 C 0.36177 0.62785 0.5326 0.0
C150 C 0.39815 0.48595 0.48723 0.0
C151 C 0.38974 0.68471 0.49055 0.0
C152 C 0.47425 0.61486 0.42116 0.0
C153 C 0.43481 0.6216 0.40002 0.0
C154 C 0.46233 0.599 0.45005 0.0
C155 C 0.41 0.59008 0.45763 0.0
C156 C 0.37087 0.59265 0.43568 0.0
C157 C 0.38375 0.60849 0.40718 0.0
C158 C 0.50519 0.59451 0.47277 0.0
C159 C 0.3149 0.58142 0.44269 0.0
H160 H 0.35987 0.49641 0.54129 0.0
H161 H 0.35241 0.66314 0.54425 0.0
H162 H 0.40357 0.4904 0.46315 0.0
H163 H 0.43387 0.46921 0.49718 0.0
H164 H 0.36651 0.45742 0.49103 0.0
H165 H 0.38067 0.71657 0.50603 0.0
H166 H 0.43021 0.68962 0.48311 0.0
H167 H 0.36417 0.68868 0.47084 0.0
H168 H 0.51393 0.62395 0.41552 0.0
H169 H 0.35331 0.61197 0.39064 0.0
H170 H 0.49921 0.55992 0.48713 0.0
H171 H 0.50497 0.62931 0.48706 0.0
H172 H 0.54381 0.59174 0.46238 0.0
H173 H 0.31145 0.54301 0.4538 0.0
H174 H 0.28979 0.58147 0.42264 0.0
H175 H 0.30028 0.61117 0.45808 0.0
C176 C 0.98317 0.88188 0.02667 0.0
C177 C 0.94 0.8696 0.04382 0.0
C178 C 0.97715 0.90109 -0.00219 0.0
C179 C 0.92664 0.90864 -0.01396 0.0
C180 C 0.88299 0.89749 0.0036 0.0
C181 C 0.89023 0.87822 0.03226 0.0
C182 C 0.02539 0.91113 -0.01981 0.0
C183 C 0.82848 0.90381 -0.0083 0.0
C184 C 0.8936 0.98676 0.91707 0.0
C185 C 0.88656 0.94683 0.89656 0.0
C186 C 0.90955 0.97538 0.94615 0.0
C187 C 0.9184 0.92302 0.95463 0.0
C188 C 0.91438 0.88316 0.93348 0.0
C189 C 0.8985 0.89555 0.90474 0.0
C190 C 0.91466 0.01895 0.96807 0.0
C191 C 0.92493 0.82707 0.94151 0.0
H192 H 0.02182 0.87559 0.03553 0.0
H193 H 0.85666 0.86952 0.04555 0.0
H194 H 0.04707 0.87422 -0.02209 0.0
H195 H 0.01761 0.92723 0.95788 0.0
H196 H 0.05106 0.93838 -0.0076 0.0
H197 H 0.79879 0.8953 0.00861 0.0
H198 H 0.82258 0.944 -0.01663 0.0
H199 H 0.82216 0.87716 -0.02714 0.0
H200 H 0.88508 0.02655 0.91072 0.0
H201 H 0.89454 0.86466 0.88876 0.0
H202 H 0.94945 0.01349 -0.01768 0.0
H203 H 0.88043 0.01887 -0.01739 0.0
H204 H 0.91705 0.05752 0.95698 0.0
H205 H 0.96443 0.82335 0.95114 0.0
H206 H 0.92165 0.80094 0.92219 0.0
H207 H 0.89713 0.81373 0.95847 0.0
C208 C 0.61258 0.33797 0.41823 0.0
C209 C 0.57036 0.35094 0.40008 0.0
C210 C 0.62246 0.36473 0.44442 0.0
C211 C 0.58941 0.4058 0.45264 0.0
C212 C 0.547 0.41963 0.43421 0.0
C213 C 0.5378 0.39176 0.40816 0.0
C214 C 0.66808 0.34854 0.4635 0.0
C215 C 0.51209 0.46455 0.44127 0.0
C216 C 0.59605 0.42001 0.53491 0.0
C217 C 0.63325 0.45924 0.53802 0.0
C218 C 0.57721 0.40604 0.50707 0.0
C219 C 0.59772 0.43056 0.48175 0.0
C220 C 0.63242 0.47297 0.4849 0.0
C221 C 0.64955 0.48729 0.51325 0.0
C222 C 0.53785 0.36274 0.50465 0.0
C223 C 0.65394 0.50075 0.45832 0.0
H224 H 0.63787 0.3066 0.41216 0.0
H225 H 0.50583 0.40282 0.39377 0.0
H226 H 0.69332 0.38257 0.46808 0.0
H227 H 0.65415 0.33347 0.48499 0.0
H228 H 0.69173 0.3179 0.45307 0.0
H229 H 0.47319 0.45962 0.43098 0.0
H230 H 0.50776 0.46951 0.46535 0.0
H231 H 0.52924 0.50076 0.43218 0.0
H232 H 0.58275 0.3992 0.55431 0.0
H233 H 0.67805 0.51797 0.51588 0.0
H234 H 0.55645 0.32769 0.49544 0.0
H235 H 0.50597 0.37427 0.48937 0.0
H236 H 0.5211 0.35229 0.52636 0.0
H237 H 0.67903 0.47387 0.44592 0.0
H238 H 0.67704 0.53557 0.46449 0.0
H239 H 0.62197 0.51291 0.44329 0.0
C240 C 0.24745 0.28964 0.15859 0.0
C241 C 0.20061 0.2657 0.16638 0.0
C242 C 0.28709 0.29724 0.17943 0.0
C243 C 0.27992 0.28035 0.20885 0.0
C244 C 0.2321 0.25788 0.2172 0.0
C245 C 0.19284 0.25096 0.19585 0.0
C246 C 0.33729 0.32191 0.1697 0.0
C247 C 0.2231 0.23952 0.24843 0.0
C248 C 0.40373 0.25032 0.2514 0.0
C249 C 0.41093 0.2959 0.2677 0.0
C250 C 0.36037 0.24413 0.23282 0.0
C251 C 0.32346 0.28457 0.23041 0.0
C252 C 0.33007 0.33031 0.24716 0.0
C253 C 0.37369 0.3354 0.26562 0.0
C254 C 0.35457 0.19473 0.21532 0.0
C255 C 0.29168 0.37435 0.24506 0.0
H256 H 0.25365 0.3017 0.13594 0.0
H257 H 0.15683 0.23235 0.20204 0.0
H258 H 0.34691 0.35566 0.18384 0.0
H259 H 0.3693 0.29353 0.17222 0.0
H260 H 0.33568 0.33527 0.14636 0.0
H261 H 0.18273 0.22595 0.2518 0.0
H262 H 0.24982 0.20707 0.25384 0.0
H263 H 0.23164 0.27126 0.26418 0.0
H264 H 0.43212 0.21949 0.25303 0.0
H265 H 0.37882 0.3707 0.27822 0.0
H266 H 0.35655 0.2038 0.19139 0.0
H267 H 0.31618 0.1768 0.21939 0.0
H268 H 0.38509 0.16588 0.2209 0.0
H269 H 0.2914 0.39079 0.22237 0.0
H270 H 0.30087 0.40605 0.26078 0.0
H271 H 0.25205 0.35981 0.2495 0.0
C272 C 0.24491 0.72195 0.69727 0.0
C273 C 0.23326 0.73057 0.66734 0.0
C274 C 0.23838 0.76149 0.71807 0.0
C275 C 0.21952 0.81058 0.70868 0.0
C276 C 0.20562 0.81876 0.67876 0.0
C277 C 0.21269 0.77872 0.65847 0.0
C278 C 0.25346 0.75138 0.74985 0.0
C279 C 0.18489 0.87042 0.66796 0.0
C280 C 0.16733 0.90592 0.7643 0.0
C281 C 0.20926 0.94024 0.76773 0.0
C282 C 0.17035 0.86306 0.74549 0.0
C283 C 0.21642 0.8543 0.72977 0.0
C284 C 0.25904 0.88853 0.73328 0.0
C285 C 0.25492 0.93117 0.75219 0.0
C286 C 0.12408 0.82748 0.7422 0.0
C287 C 0.30885 0.88035 0.71687 0.0
H288 H 0.26085 0.68492 0.70433 0.0
H289 H 0.2031 0.78566 0.63545 0.0
H290 H 0.28686 0.77641 0.756 0.0
H291 H 0.22112 0.76156 0.76459 0.0
H292 H 0.26425 0.71017 0.75394 0.0
H293 H 0.17314 0.8695 0.64433 0.0
H294 H 0.151 0.882 0.68117 0.0
H295 H 0.21494 0.90092 0.67086 0.0
H296 H 0.13193 0.91257 0.77628 0.0
H297 H 0.28756 0.95734 0.75483 0.0
H298 H 0.13525 0.78688 0.74759 0.0
H299 H 0.11009 0.82801 0.71898 0.0
H300 H 0.09166 0.83881 0.75666 0.0
H301 H 0.32433 0.84101 0.72174 0.0
H302 H 0.33891 0.90957 0.72275 0.0
H303 H 0.30137 0.88268 0.69276 0.0
C304 C 0.60613 0.73631 0.2557 0.0
C305 C 0.60313 0.68945 0.27159 0.0
C306 C 0.64825 0.74698 0.23735 0.0
C307 C 0.68811 0.70974 0.23466 0.0
C308 C 0.68588 0.66286 0.25111 0.0
C309 C 0.64346 0.65333 0.26945 0.0
C310 C 0.64944 0.79758 0.22026 0.0
C311 C 0.72751 0.62212 0.24867 0.0
C312 C 0.75978 0.71449 0.16238 0.0
C313 C 0.8051 0.74155 0.17012 0.0
C314 C 0.72224 0.70253 0.18341 0.0
C315 C 0.72996 0.7183 0.21294 0.0
C316 C 0.77636 0.74407 0.2212 0.0
C317 C 0.81361 0.7552 0.19967 0.0
C318 C 0.67356 0.67441 0.17378 0.0
C319 C 0.78579 0.76153 0.25251 0.0
H320 H 0.57537 0.76461 0.25744 0.0
H321 H 0.64153 0.61709 0.28173 0.0
H322 H 0.68671 0.81802 0.22422 0.0
H323 H 0.64656 0.78964 0.19629 0.0
H324 H 0.6173 0.82386 0.22632 0.0
H325 H 0.72179 0.5893 0.26437 0.0
H326 H 0.72769 0.60649 0.22594 0.0
H327 H 0.76616 0.63961 0.25289 0.0
H328 H 0.75314 0.70327 0.13965 0.0
H329 H 0.84847 0.77623 0.2058 0.0
H330 H 0.63958 0.70007 0.17663 0.0
H331 H 0.6674 0.63941 0.18776 0.0
H332 H 0.67487 0.66225 0.15035 0.0
H333 H 0.75706 0.79163 0.25829 0.0
H334 H 0.82524 0.77793 0.25577 0.0
H335 H 0.78052 0.72852 0.26807 0.0
C336 C 0.74755 0.32984 0.69402 0.0
C337 C 0.75968 0.32159 0.66435 0.0
C338 C 0.75917 0.29209 0.71568 0.0
C339 C 0.78386 0.24539 0.70745 0.0
C340 C 0.79773 0.23774 0.67772 0.0
C341 C 0.78538 0.27578 0.65659 0.0
C342 C 0.74371 0.30144 0.74719 0.0
C343 C 0.8246 0.18876 0.66807 0.0
C344 C 0.85269 0.15874 0.76339 0.0
C345 C 0.81703 0.11791 0.76667 0.0
C346 C 0.84175 0.2014 0.7449 0.0
C347 C 0.79388 0.20342 0.72948 0.0
C348 C 0.75712 0.16308 0.73336 0.0
C349 C 0.76922 0.12069 0.75181 0.0
C350 C 0.88209 0.24346 0.74114 0.0
C351 C 0.7055 0.164 0.71741 0.0
H352 H 0.72759 0.36504 0.70018 0.0
H353 H 0.79544 0.26924 0.63378 0.0
H354 H 0.7145 0.27211 0.75394 0.0
H355 H 0.77767 0.29682 0.76215 0.0
H356 H 0.72719 0.3408 0.75028 0.0
H357 H 0.83479 0.18987 0.64434 0.0
H358 H 0.86052 0.1827 0.68126 0.0
H359 H 0.79914 0.15466 0.672 0.0
H360 H 0.88968 0.15698 0.77486 0.0
H361 H 0.74127 0.08955 0.75443 0.0
H362 H 0.86499 0.28216 0.74529 0.0
H363 H 0.89601 0.2437 0.71808 0.0
H364 H 0.91587 0.23792 0.75619 0.0
H365 H 0.68557 0.20139 0.72132 0.0
H366 H 0.67975 0.13169 0.72449 0.0
H367 H 0.71159 0.16092 0.69331 0.0
C368 C 0.69239 0.23305 0.24656 0.0
C369 C 0.70164 0.21812 0.27596 0.0
C370 C 0.73054 0.22654 0.22509 0.0
C371 C 0.77874 0.20434 0.23327 0.0
C372 C 0.78718 0.18674 0.26253 0.0
C373 C 0.74858 0.19387 0.2835 0.0
C374 C 0.72019 0.24553 0.19401 0.0
C375 C 0.83786 0.16234 0.27204 0.0
C376 C 0.8714 0.15361 0.17612 0.0
C377 C 0.90788 0.19405 0.17462 0.0
C378 C 0.82833 0.15698 0.19452 0.0
C379 C 0.8216 0.20188 0.21181 0.0
C380 C 0.85772 0.24327 0.21 0.0
C381 C 0.90051 0.23883 0.19144 0.0
C382 C 0.79067 0.11204 0.19595 0.0
C383 C 0.85173 0.29182 0.22813 0.0
H384 H 0.65627 0.25189 0.24058 0.0
H385 H 0.75584 0.18166 0.3061 0.0
H386 H 0.74576 0.27914 0.18908 0.0
H387 H 0.72925 0.21468 0.17793 0.0
H388 H 0.67934 0.25773 0.19061 0.0
H389 H 0.83697 0.14772 0.29515 0.0
H390 H 0.84748 0.12956 0.25737 0.0
H391 H 0.8695 0.1914 0.27019 0.0
H392 H 0.87668 0.11893 0.16309 0.0
H393 H 0.92835 0.27035 0.19026 0.0
H394 H 0.75067 0.12589 0.19162 0.0
H395 H 0.79138 0.09467 0.21842 0.0
H396 H 0.7998 0.0812 0.17983 0.0
H397 H 0.813 0.30913 0.22412 0.0
H398 H 0.8817 0.32151 0.22305 0.0
H399 H 0.85448 0.28183 0.25194 0.0
C400 C 0.26934 0.4312 0.70057 0.0
C401 C 0.31384 0.4413 0.68407 0.0
C402 C 0.26644 0.38742 0.71911 0.0
C403 C 0.30904 0.35304 0.72114 0.0
C404 C 0.35382 0.36271 0.70432 0.0
C405 C 0.35571 0.40678 0.68601 0.0
C406 C 0.21804 0.37832 0.73681 0.0
C407 C 0.39997 0.32688 0.70596 0.0
C408 C 0.31809 0.27484 0.79193 0.0
C409 C 0.29571 0.22735 0.78355 0.0
C410 C 0.3242 0.31546 0.77155 0.0
C411 C 0.30757 0.30845 0.74204 0.0
C412 C 0.28732 0.25984 0.73303 0.0
C413 C 0.2817 0.21971 0.75392 0.0
C414 C 0.34646 0.36661 0.78193 0.0
C415 C 0.26954 0.25097 0.70164 0.0
H416 H 0.23678 0.45756 0.69908 0.0
H417 H 0.39018 0.41417 0.67322 0.0
H418 H 0.20199 0.33917 0.73213 0.0
H419 H 0.22757 0.37955 0.76072 0.0
H420 H 0.18769 0.40773 0.73195 0.0
H421 H 0.43098 0.33872 0.69049 0.0
H422 H 0.41628 0.3265 0.72869 0.0
H423 H 0.38792 0.28651 0.70081 0.0
H424 H 0.32957 0.28094 0.81471 0.0
H425 H 0.26438 0.18316 0.74726 0.0
H426 H 0.31647 0.39727 0.78015 0.0
H427 H 0.3791 0.3787 0.76773 0.0
H428 H 0.36048 0.36463 0.80516 0.0
H429 H 0.23546 0.27577 0.69663 0.0
H430 H 0.25868 0.2098 0.69763 0.0
H431 H 0.30041 0.2623 0.68603 0.0
C432 C 0.26623 0.78727 0.28156 0.0
C433 C 0.30951 0.75779 0.27383 0.0
C434 C 0.22774 0.79968 0.26078 0.0
C435 C 0.23246 0.78197 0.2315 0.0
C436 C 0.27724 0.75437 0.22311 0.0
C437 C 0.31551 0.74274 0.24442 0.0
C438 C 0.18091 0.82979 0.27053 0.0
C439 C 0.28353 0.73503 0.19203 0.0
C440 C 0.10409 0.76313 0.19173 0.0
C441 C 0.10039 0.80901 0.17499 0.0
C442 C 0.14786 0.75299 0.20939 0.0
C443 C 0.18874 0.78974 0.21042 0.0
C444 C 0.18573 0.83563 0.19313 0.0
C445 C 0.14158 0.84469 0.17558 0.0
C446 C 0.14976 0.70353 0.22751 0.0
C447 C 0.22847 0.87578 0.19379 0.0
H448 H 0.26171 0.79965 0.30418 0.0
H449 H 0.34884 0.71987 0.23836 0.0
H450 H 0.17431 0.86375 0.25577 0.0
H451 H 0.14597 0.80471 0.26906 0.0
H452 H 0.18494 0.84382 0.29355 0.0
H453 H 0.32258 0.71852 0.18838 0.0
H454 H 0.2542 0.70448 0.18744 0.0
H455 H 0.27683 0.76703 0.17592 0.0
H456 H 0.07263 0.73517 0.19119 0.0
H457 H 0.13914 0.88016 0.1626 0.0
H458 H 0.14966 0.7131 0.25133 0.0
H459 H 0.18609 0.68217 0.22318 0.0
H460 H 0.11642 0.67743 0.22275 0.0
H461 H 0.23124 0.89309 0.21609 0.0
H462 H 0.22192 0.90753 0.17745 0.0
H463 H 0.26627 0.85733 0.18929 0.0
C464 C 0.7458 0.62169 0.68461 0.0
C465 C 0.69941 0.61887 0.66837 0.0
C466 C 0.75667 0.6644 0.7027 0.0
C467 C 0.72012 0.70506 0.70473 0.0
C468 C 0.67371 0.70298 0.68794 0.0
C469 C 0.66395 0.65993 0.6699 0.0
C470 C 0.80672 0.66535 0.72022 0.0
C471 C 0.63371 0.74546 0.6897 0.0
C472 C 0.7252 0.77787 0.77677 0.0
C473 C 0.75374 0.82239 0.7692 0.0
C474 C 0.71239 0.74041 0.7557 0.0
C475 C 0.72874 0.74744 0.72629 0.0
C476 C 0.7556 0.79334 0.71813 0.0
C477 C 0.76763 0.83054 0.73972 0.0
C478 C 0.68311 0.69232 0.76523 0.0
C479 C 0.77358 0.80205 0.68692 0.0
H480 H 0.77359 0.59035 0.68334 0.0
H481 H 0.62808 0.65814 0.65732 0.0
H482 H 0.82769 0.70237 0.71618 0.0
H483 H 0.79826 0.66326 0.74414 0.0
H484 H 0.83255 0.63253 0.71464 0.0
H485 H 0.60137 0.73983 0.67368 0.0
H486 H 0.61751 0.7464 0.71224 0.0
H487 H 0.65182 0.78391 0.68548 0.0
H488 H 0.71373 0.77163 0.79945 0.0
H489 H 0.78976 0.86482 0.73376 0.0
H490 H 0.70813 0.65765 0.76294 0.0
H491 H 0.64861 0.68642 0.75086 0.0
H492 H 0.67026 0.69446 0.78848 0.0
H493 H 0.80362 0.77301 0.68156 0.0
H494 H 0.79007 0.84156 0.6836 0.0
H495 H 0.741 0.79647 0.67111 0.0
C496 C 0.93678 0.60848 0.06122 0.0
C497 C 0.96049 0.64269 0.08127 0.0
C498 C 0.95311 0.55662 0.05898 0.0
C499 C 0.99399 0.53836 0.0773 0.0
C500 C 0.01915 0.57306 0.0969 0.0
C501 C 1.00224 0.62474 0.09858 0.0
C502 C 0.9256 0.52097 0.03762 0.0
C503 C 0.06287 0.55514 0.11685 0.0
C504 C 1.00062 0.39505 0.09788 0.0
C505 C 0.04123 0.37749 0.08025 0.0
C506 C 0.98422 0.447 0.09666 0.0
C507 C 0.00875 0.4824 0.07722 0.0
C508 C 0.04863 0.46468 0.05869 0.0
C509 C 0.06448 0.41252 0.06047 0.0
C510 C 0.94158 0.46433 0.11682 0.0
C511 C 0.07544 0.50114 0.03751 0.0
H512 H 0.90466 0.62188 0.04763 0.0
H513 H 0.02096 0.65069 0.11413 0.0
H514 H 0.95401 0.50146 0.0233 0.0
H515 H 0.90485 0.4901 0.05001 0.0
H516 H 0.89717 0.54201 0.02342 0.0
H517 H 0.08003 0.58749 0.12981 0.0
H518 H 0.04845 0.52508 0.13243 0.0
H519 H 0.09381 0.53705 0.10368 0.0
H520 H 0.98228 0.36849 0.11323 0.0
H521 H 0.09574 0.39945 0.04666 0.0
H522 H 0.90992 0.48273 0.10378 0.0
H523 H 0.95677 0.49399 0.13232 0.0
H524 H 0.92513 0.43161 0.12985 0.0
H525 H 0.04653 0.52108 0.02317 0.0
H526 H 0.10345 0.48066 0.02332 0.0
H527 H 0.0965 0.53163 0.05001 0.0
C528 C 0.8802 0.52043 0.59405 0.0
C529 C 0.86357 0.4776 0.57738 0.0
C530 C 0.93196 0.53707 0.59378 0.0
C531 C 0.96822 0.51051 0.57628 0.0
C532 C 0.95153 0.46831 0.55868 0.0
C533 C 0.89945 0.45229 0.55947 0.0
C534 C 0.94812 0.58228 0.61288 0.0
C535 C 0.98895 0.43929 0.53955 0.0
C536 C 0.09383 0.58294 0.5611 0.0
C537 C 0.12715 0.56215 0.58283 0.0
C538 C 0.04252 0.56532 0.55807 0.0
C539 C 0.02385 0.52612 0.57729 0.0
C540 C 0.05764 0.50388 0.59869 0.0
C541 C 0.10884 0.52204 0.60115 0.0
C542 C 0.00785 0.58976 0.53484 0.0
C543 C 0.03922 0.46204 0.61965 0.0
H544 H 0.85298 0.54042 0.60797 0.0
H545 H 0.88714 0.41923 0.54646 0.0
H546 H 0.97702 0.56914 0.62959 0.0
H547 H 0.96687 0.61282 0.59926 0.0
H548 H 0.91491 0.5998 0.6245 0.0
H549 H 0.96934 0.4093 0.52588 0.0
H550 H 0.00949 0.46677 0.52475 0.0
H551 H 0.01868 0.41998 0.55362 0.0
H552 H 0.10751 0.61371 0.54669 0.0
H553 H 0.13412 0.50559 0.61799 0.0
H554 H 0.97624 0.61137 0.5456 0.0
H555 H 0.98952 0.55926 0.52104 0.0
H556 H 0.02921 0.61707 0.52025 0.0
H557 H 0.00849 0.47781 0.63392 0.0
H558 H 0.07096 0.44682 0.63398 0.0
H559 H 0.02202 0.42925 0.60715 0.0
C560 C 0.56429 0.08314 0.38612 0.0
C561 C 0.54205 0.11719 0.36522 0.0
C562 C 0.54773 0.03122 0.38851 0.0
C563 C 0.5082 0.01268 0.36943 0.0
C564 C 0.4843 0.04725 0.34903 0.0
C565 C 0.50135 0.09907 0.34725 0.0
C566 C 0.57379 0.99575 0.41077 0.0
C567 C 0.44205 0.02901 0.32825 0.0
C568 C 0.50415 0.86966 0.34927 0.0
C569 C 0.46211 0.85132 0.36577 0.0
C570 C 0.52021 0.92175 0.35081 0.0
C571 C 0.49392 0.95649 0.36946 0.0
C572 C 0.45282 0.93788 0.38706 0.0
C573 C 0.43731 0.8856 0.38496 0.0
C574 C 0.56426 0.94 0.33166 0.0
C575 C 0.42419 0.97358 0.40745 0.0
H576 H 0.59552 0.0967 0.40027 0.0
H577 H 0.48383 0.1249 0.33103 0.0
H578 H 0.54442 0.97552 0.42438 0.0
H579 H 0.59595 0.96546 0.39913 0.0
H580 H 0.60075 0.01711 0.42563 0.0
H581 H 0.42549 0.06132 0.31482 0.0
H582 H 0.45776 0.99943 0.31312 0.0
H583 H 0.41041 0.01022 0.34082 0.0
H584 H 0.5237 0.8437 0.33438 0.0
H585 H 0.40492 0.87193 0.3979 0.0
H586 H 0.5947 0.95877 0.34538 0.0
H587 H 0.54999 0.96957 0.31562 0.0
H588 H 0.58203 0.90769 0.31925 0.0
H589 H 0.45189 0.99418 0.42216 0.0
H590 H 0.39572 0.95234 0.42126 0.0
H591 H 0.4033 1.00358 0.39431 0.0
C592 C 0.43361 0.07568 0.88749 0.0
C593 C 0.39787 0.05539 0.867 0.0
C594 C 0.48494 0.05791 0.88876 0.0
C595 C 0.5011 0.01909 0.86898 0.0
C596 C 0.46483 0.99706 0.849 0.0
C597 C 0.41367 0.01534 0.84831 0.0
C598 C 0.52232 0.08202 0.91056 0.0
C599 C 0.48055 0.95558 0.82753 0.0
C600 C 0.64204 0.01434 0.84631 0.0
C601 C 0.66049 0.97113 0.86229 0.0
C602 C 0.59058 0.03086 0.84875 0.0
C603 C 0.55661 1.00381 0.86779 0.0
C604 C 0.5753 0.96129 0.88475 0.0
C605 C 0.62696 0.94538 0.88176 0.0
C606 C 0.57219 0.07642 0.83027 0.0
C607 C 0.54037 0.93178 0.90549 0.0
H608 H 0.42185 0.10639 0.90217 0.0
H609 H 0.3865 0.99928 0.83241 0.0
H610 H 0.54255 0.05133 0.92352 0.0
H611 H 0.5523 0.10441 0.89854 0.0
H612 H 0.50274 0.10856 0.92606 0.0
H613 H 0.44709 0.94027 0.81464 0.0
H614 H 0.50929 0.97176 0.81192 0.0
H615 H 0.49935 0.92277 0.83945 0.0
H616 H 0.66745 0.03462 0.83121 0.0
H617 H 0.64073 0.91206 0.89429 0.0
H618 H 0.55524 0.10656 0.84457 0.0
H619 H 0.54129 0.06349 0.81477 0.0
H620 H 0.60388 0.09437 0.8173 0.0
H621 H 0.52168 0.95894 0.92095 0.0
H622 H 0.56161 0.90178 0.9185 0.0
H623 H 0.50903 0.91241 0.89272 0.0
loop_
_geom_bond_atom_site_label_1
_geom_bond_atom_site_label_2
_geom_bond_distance
_geom_bond_site_symmetry_2
_ccdc_geom_bond_type
Mg0 O1 2.028 . S
Mg0 O7 1.986 . S
Mg0 O9 2.114 . S
Mg0 O10 2.251 . S
Mg0 O13 2.026 . S
O1 Mg0 2.028 . S
O1 C4 1.250 . S
O2 Mg3 2.028 . S
O2 C4 1.248 . S
Mg3 O2 2.028 . S
Mg3 O8 2.032 . S
Mg3 O10 2.079 . S
C4 O1 1.250 . S
C4 O2 1.248 . S
C5 O6 1.264 . S
C5 O13 1.230 1_655 S
O6 C5 1.264 . S
O7 Mg0 1.986 . S
O7 C11 1.246 . S
O8 Mg3 2.032 . S
O8 C11 1.259 . S
O9 Mg0 2.114 . S
O9 C12 1.252 . S
O10 Mg0 2.251 . S
O10 Mg3 2.079 . S
O10 C12 1.273 . S
C11 O7 1.246 . S
C11 O8 1.259 . S
C12 O9 1.252 . S
C12 O10 1.273 . S
O13 Mg0 2.026 . S
O13 C5 1.230 1_455 S
Mg14 O15 2.028 . S
Mg14 O21 1.986 . S
Mg14 O23 2.114 . S
Mg14 O24 2.251 . S
Mg14 O27 2.010 . S
O15 Mg14 2.028 . S
O15 C18 1.250 . S
O16 Mg17 2.028 . S
O16 C18 1.248 . S
Mg17 O16 2.028 . S
Mg17 O22 2.032 . S
Mg17 O24 2.079 . S
C18 O15 1.250 . S
C18 O16 1.248 . S
C19 O20 1.264 . S
C19 O27 1.249 . S
O20 C19 1.264 . S
O21 Mg14 1.986 . S
O21 C25 1.246 . S
O22 Mg17 2.032 . S
O22 C25 1.259 . S
O23 Mg14 2.114 . S
O23 C26 1.252 . S
O24 Mg14 2.251 . S
O24 Mg17 2.079 . S
O24 C26 1.273 . S
C25 O21 1.246 . S
C25 O22 1.259 . S
C26 O23 1.252 . S
C26 O24 1.273 . S
O27 Mg14 2.010 . S
O27 C19 1.249 . S
Mg28 O29 2.028 . S
Mg28 O35 1.986 . S
Mg28 O37 2.114 . S
Mg28 O38 2.251 . S
Mg28 O41 2.026 . S
O29 Mg28 2.028 . S
O29 C32 1.250 . S
O30 Mg31 2.028 . S
O30 C32 1.248 . S
Mg31 O30 2.028 . S
Mg31 O36 2.032 . S
Mg31 O38 2.079 . S
C32 O29 1.250 . S
C32 O30 1.248 . S
C33 O34 1.264 . S
C33 O41 1.230 1_455 S
O34 C33 1.264 . S
O35 Mg28 1.986 . S
O35 C39 1.246 . S
O36 Mg31 2.032 . S
O36 C39 1.259 . S
O37 Mg28 2.114 . S
O37 C40 1.252 . S
O38 Mg28 2.251 . S
O38 Mg31 2.079 . S
O38 C40 1.273 . S
C39 O35 1.246 . S
C39 O36 1.259 . S
C40 O37 1.252 . S
C40 O38 1.273 . S
O41 Mg28 2.026 . S
O41 C33 1.230 1_655 S
Mg42 O43 2.028 . S
Mg42 O49 1.986 . S
Mg42 O51 2.114 . S
Mg42 O52 2.251 . S
Mg42 O55 2.010 . S
O43 Mg42 2.028 . S
O43 C46 1.250 . S
O44 Mg45 2.028 . S
O44 C46 1.248 . S
Mg45 O44 2.028 . S
Mg45 O50 2.032 . S
Mg45 O52 2.079 . S
C46 O43 1.250 . S
C46 O44 1.248 . S
C47 O48 1.264 . S
C47 O55 1.249 . S
O48 C47 1.264 . S
O49 Mg42 1.986 . S
O49 C53 1.246 . S
O50 Mg45 2.032 . S
O50 C53 1.259 . S
O51 Mg42 2.114 . S
O51 C54 1.252 . S
O52 Mg42 2.251 . S
O52 Mg45 2.079 . S
O52 C54 1.273 . S
C53 O49 1.246 . S
C53 O50 1.259 . S
C54 O51 1.252 . S
C54 O52 1.273 . S
O55 Mg42 2.010 . S
O55 C47 1.249 . S
Mg56 O57 2.028 . S
Mg56 O63 1.986 . S
Mg56 O65 2.114 . S
Mg56 O66 2.251 . S
Mg56 O69 2.010 . S
O57 Mg56 2.028 . S
O57 C60 1.250 . S
O58 Mg59 2.028 . S
O58 C60 1.248 . S
Mg59 O58 2.028 . S
Mg59 O64 2.032 . S
Mg59 O66 2.079 . S
C60 O57 1.250 . S
C60 O58 1.248 . S
C61 O62 1.264 . S
C61 O69 1.249 . S
O62 C61 1.264 . S
O63 Mg56 1.986 . S
O63 C67 1.246 . S
O64 Mg59 2.032 . S
O64 C67 1.259 . S
O65 Mg56 2.114 . S
O65 C68 1.252 . S
O66 Mg56 2.251 . S
O66 Mg59 2.079 . S
O66 C68 1.273 . S
C67 O63 1.246 . S
C67 O64 1.259 . S
C68 O65 1.252 . S
C68 O66 1.273 . S
O69 Mg56 2.010 . S
O69 C61 1.249 . S
Mg70 O71 2.028 . S
Mg70 O77 1.986 . S
Mg70 O79 2.114 . S
Mg70 O80 2.251 . S
Mg70 O83 2.026 . S
O71 Mg70 2.028 . S
O71 C74 1.250 . S
O72 Mg73 2.028 . S
O72 C74 1.248 . S
Mg73 O72 2.028 . S
Mg73 O78 2.032 . S
Mg73 O80 2.079 . S
C74 O71 1.250 . S
C74 O72 1.248 . S
C75 O76 1.264 . S
C75 O83 1.230 1_565 S
O76 C75 1.264 . S
O77 Mg70 1.986 . S
O77 C81 1.246 . S
O78 Mg73 2.032 . S
O78 C81 1.259 . S
O79 Mg70 2.114 . S
O79 C82 1.252 . S
O80 Mg70 2.251 . S
O80 Mg73 2.079 . S
O80 C82 1.273 . S
C81 O77 1.246 . S
C81 O78 1.259 . S
C82 O79 1.252 . S
C82 O80 1.273 . S
O83 Mg70 2.026 . S
O83 C75 1.230 1_545 S
Mg84 O85 2.028 . S
Mg84 O91 1.986 . S
Mg84 O93 2.114 . S
Mg84 O94 2.251 . S
Mg84 O97 2.010 . S
O85 Mg84 2.028 . S
O85 C88 1.250 . S
O86 Mg87 2.028 . S
O86 C88 1.248 . S
Mg87 O86 2.028 . S
Mg87 O92 2.032 . S
Mg87 O94 2.079 . S
C88 O85 1.250 . S
C88 O86 1.248 . S
C89 O90 1.264 . S
C89 O97 1.249 . S
O90 C89 1.264 . S
O91 Mg84 1.986 . S
O91 C95 1.246 . S
O92 Mg87 2.032 . S
O92 C95 1.259 . S
O93 Mg84 2.114 . S
O93 C96 1.252 . S
O94 Mg84 2.251 . S
O94 Mg87 2.079 . S
O94 C96 1.273 . S
C95 O91 1.246 . S
C95 O92 1.259 . S
C96 O93 1.252 . S
C96 O94 1.273 . S
O97 Mg84 2.010 . S
O97 C89 1.249 . S
Mg98 O99 2.028 . S
Mg98 O105 1.986 . S
Mg98 O107 2.114 . S
Mg98 O108 2.251 . S
Mg98 O111 2.026 . S
O99 Mg98 2.028 . S
O99 C102 1.250 . S
O100 Mg101 2.028 . S
O100 C102 1.248 . S
Mg101 O100 2.028 . S
Mg101 O106 2.032 . S
Mg101 O108 2.079 . S
C102 O99 1.250 . S
C102 O100 1.248 . S
C103 O104 1.264 . S
C103 O111 1.230 1_545 S
O104 C103 1.264 . S
O105 Mg98 1.986 . S
O105 C109 1.246 . S
O106 Mg101 2.032 . S
O106 C109 1.259 . S
O107 Mg98 2.114 . S
O107 C110 1.252 . S
O108 Mg98 2.251 . S
O108 Mg101 2.079 . S
O108 C110 1.273 . S
C109 O105 1.246 . S
C109 O106 1.259 . S
C110 O107 1.252 . S
C110 O108 1.273 . S
O111 Mg98 2.026 . S
O111 C103 1.230 1_565 S
C112 C113 1.391 . S
C112 C114 1.394 . S
C112 H128 0.931 . S
C113 C112 1.391 . S
C113 C117 1.376 . S
C114 C112 1.394 . S
C114 C115 1.369 . S
C114 C118 1.531 1_554 S
C115 C114 1.369 . S
C115 C116 1.410 . S
C115 C123 1.503 1_554 S
C116 C115 1.410 . S
C116 C117 1.392 . S
C116 C119 1.511 . S
C117 C113 1.376 . S
C117 C116 1.392 . S
C117 H129 0.929 . S
C118 C114 1.531 1_556 S
C118 H130 0.960 . S
C118 H131 0.962 . S
C118 H132 0.960 . S
C119 C116 1.511 . S
C119 H133 0.961 . S
C119 H134 0.961 . S
C119 H135 0.961 . S
C120 C121 1.370 . S
C120 C122 1.363 . S
C120 H136 0.931 . S
C121 C120 1.370 . S
C121 C125 1.408 . S
C122 C120 1.363 . S
C122 C123 1.370 . S
C122 C126 1.524 . S
C123 C115 1.503 1_556 S
C123 C122 1.370 . S
C123 C124 1.403 . S
C124 C123 1.403 . S
C124 C125 1.404 . S
C124 C127 1.539 . S
C125 C121 1.408 . S
C125 C124 1.404 . S
C125 H137 0.930 . S
C126 C122 1.524 . S
C126 H138 0.956 . S
C126 H139 0.961 1_556 S
C126 H140 0.961 . S
C127 C124 1.539 . S
C127 H141 0.958 . S
C127 H142 0.961 . S
C127 H143 0.960 1_556 S
H128 C112 0.931 . S
H129 C117 0.929 . S
H130 C118 0.960 . S
H131 C118 0.962 . S
H132 C118 0.960 . S
H133 C119 0.961 . S
H134 C119 0.961 . S
H135 C119 0.961 . S
H136 C120 0.931 . S
H137 C125 0.930 . S
H138 C126 0.956 . S
H139 C126 0.961 1_554 S
H140 C126 0.961 . S
H141 C127 0.958 . S
H142 C127 0.961 . S
H143 C127 0.960 1_554 S
C144 C145 1.391 . S
C144 C146 1.394 . S
C144 H160 0.931 . S
C145 C144 1.391 . S
C145 C149 1.376 . S
C146 C144 1.394 . S
C146 C147 1.369 . S
C146 C150 1.531 . S
C147 C146 1.369 . S
C147 C148 1.410 . S
C147 C155 1.503 . S
C148 C147 1.410 . S
C148 C149 1.392 . S
C148 C151 1.511 . S
C149 C145 1.376 . S
C149 C148 1.392 . S
C149 H161 0.929 . S
C150 C146 1.531 . S
C150 H162 0.960 . S
C150 H163 0.962 . S
C150 H164 0.960 . S
C151 C148 1.511 . S
C151 H165 0.961 . S
C151 H166 0.961 . S
C151 H167 0.961 . S
C152 C153 1.370 . S
C152 C154 1.363 . S
C152 H168 0.931 . S
C153 C152 1.370 . S
C153 C157 1.408 . S
C154 C152 1.363 . S
C154 C155 1.370 . S
C154 C158 1.524 . S
C155 C147 1.503 . S
C155 C154 1.370 . S
C155 C156 1.403 . S
C156 C155 1.403 . S
C156 C157 1.404 . S
C156 C159 1.539 . S
C157 C153 1.408 . S
C157 C156 1.404 . S
C157 H169 0.930 . S
C158 C154 1.524 . S
C158 H170 0.956 . S
C158 H171 0.961 . S
C158 H172 0.961 . S
C159 C156 1.539 . S
C159 H173 0.958 . S
C159 H174 0.961 . S
C159 H175 0.960 . S
H160 C144 0.931 . S
H161 C149 0.929 . S
H162 C150 0.960 . S
H163 C150 0.962 . S
H164 C150 0.960 . S
H165 C151 0.961 . S
H166 C151 0.961 . S
H167 C151 0.961 . S
H168 C152 0.931 . S
H169 C157 0.930 . S
H170 C158 0.956 . S
H171 C158 0.961 . S
H172 C158 0.961 . S
H173 C159 0.958 . S
H174 C159 0.961 . S
H175 C159 0.960 . S
C176 C177 1.391 . S
C176 C178 1.394 . S
C176 H192 0.931 . S
C177 C176 1.391 . S
C177 C181 1.376 . S
C178 C176 1.394 . S
C178 C179 1.369 . S
C178 C182 1.531 1_554 S
C179 C178 1.369 . S
C179 C180 1.410 . S
C179 C187 1.503 1_554 S
C180 C179 1.410 . S
C180 C181 1.392 . S
C180 C183 1.511 . S
C181 C177 1.376 . S
C181 C180 1.392 . S
C181 H193 0.929 . S
C182 C178 1.531 1_556 S
C182 H194 0.960 . S
C182 H195 0.962 . S
C182 H196 0.960 . S
C183 C180 1.511 . S
C183 H197 0.961 . S
C183 H198 0.961 . S
C183 H199 0.961 . S
C184 C185 1.370 . S
C184 C186 1.363 . S
C184 H200 0.931 . S
C185 C184 1.370 . S
C185 C189 1.408 . S
C186 C184 1.363 . S
C186 C187 1.370 . S
C186 C190 1.524 1_556 S
C187 C179 1.503 1_556 S
C187 C186 1.370 . S
C187 C188 1.403 . S
C188 C187 1.403 . S
C188 C189 1.404 . S
C188 C191 1.539 . S
C189 C185 1.408 . S
C189 C188 1.404 . S
C189 H201 0.930 . S
C190 C186 1.524 1_554 S
C190 H202 0.956 . S
C190 H203 0.961 . S
C190 H204 0.961 . S
C191 C188 1.539 . S
C191 H205 0.958 . S
C191 H206 0.961 . S
C191 H207 0.960 . S
H192 C176 0.931 . S
H193 C181 0.929 . S
H194 C182 0.960 . S
H195 C182 0.962 . S
H196 C182 0.960 . S
H197 C183 0.961 . S
H198 C183 0.961 . S
H199 C183 0.961 . S
H200 C184 0.931 . S
H201 C189 0.930 . S
H202 C190 0.956 . S
H203 C190 0.961 . S
H204 C190 0.961 . S
H205 C191 0.958 . S
H206 C191 0.961 . S
H207 C191 0.960 . S
C208 C209 1.391 . S
C208 C210 1.394 . S
C208 H224 0.931 . S
C209 C208 1.391 . S
C209 C213 1.376 . S
C210 C208 1.394 . S
C210 C211 1.369 . S
C210 C214 1.531 . S
C211 C210 1.369 . S
C211 C212 1.410 . S
C211 C219 1.503 . S
C212 C211 1.410 . S
C212 C213 1.392 . S
C212 C215 1.511 . S
C213 C209 1.376 . S
C213 C212 1.392 . S
C213 H225 0.929 . S
C214 C210 1.531 . S
C214 H226 0.960 . S
C214 H227 0.962 . S
C214 H228 0.960 . S
C215 C212 1.511 . S
C215 H229 0.961 . S
C215 H230 0.961 . S
C215 H231 0.961 . S
C216 C217 1.370 . S
C216 C218 1.363 . S
C216 H232 0.931 . S
C217 C216 1.370 . S
C217 C221 1.408 . S
C218 C216 1.363 . S
C218 C219 1.370 . S
C218 C222 1.524 . S
C219 C211 1.503 . S
C219 C218 1.370 . S
C219 C220 1.403 . S
C220 C219 1.403 . S
C220 C221 1.404 . S
C220 C223 1.539 . S
C221 C217 1.408 . S
C221 C220 1.404 . S
C221 H233 0.930 . S
C222 C218 1.524 . S
C222 H234 0.956 . S
C222 H235 0.961 . S
C222 H236 0.961 . S
C223 C220 1.539 . S
C223 H237 0.958 . S
C223 H238 0.961 . S
C223 H239 0.960 . S
H224 C208 0.931 . S
H225 C213 0.929 . S
H226 C214 0.960 . S
H227 C214 0.962 . S
H228 C214 0.960 . S
H229 C215 0.961 . S
H230 C215 0.961 . S
H231 C215 0.961 . S
H232 C216 0.931 . S
H233 C221 0.930 . S
H234 C222 0.956 . S
H235 C222 0.961 . S
H236 C222 0.961 . S
H237 C223 0.958 . S
H238 C223 0.961 . S
H239 C223 0.960 . S
C240 C241 1.391 . S
C240 C242 1.394 . S
C240 H256 0.931 . S
C241 C240 1.391 . S
C241 C245 1.376 . S
C242 C240 1.394 . S
C242 C243 1.369 . S
C242 C246 1.531 . S
C243 C242 1.369 . S
C243 C244 1.410 . S
C243 C251 1.503 . S
C244 C243 1.410 . S
C244 C245 1.392 . S
C244 C247 1.511 . S
C245 C241 1.376 . S
C245 C244 1.392 . S
C245 H257 0.929 . S
C246 C242 1.531 . S
C246 H258 0.960 . S
C246 H259 0.962 . S
C246 H260 0.960 . S
C247 C244 1.511 . S
C247 H261 0.961 . S
C247 H262 0.961 . S
C247 H263 0.961 . S
C248 C249 1.370 . S
C248 C250 1.363 . S
C248 H264 0.931 . S
C249 C248 1.370 . S
C249 C253 1.408 . S
C250 C248 1.363 . S
C250 C251 1.370 . S
C250 C254 1.524 . S
C251 C243 1.503 . S
C251 C250 1.370 . S
C251 C252 1.403 . S
C252 C251 1.403 . S
C252 C253 1.404 . S
C252 C255 1.539 . S
C253 C249 1.408 . S
C253 C252 1.404 . S
C253 H265 0.930 . S
C254 C250 1.524 . S
C254 H266 0.956 . S
C254 H267 0.961 . S
C254 H268 0.961 . S
C255 C252 1.539 . S
C255 H269 0.958 . S
C255 H270 0.961 . S
C255 H271 0.960 . S
H256 C240 0.931 . S
H257 C245 0.929 . S
H258 C246 0.960 . S
H259 C246 0.962 . S
H260 C246 0.960 . S
H261 C247 0.961 . S
H262 C247 0.961 . S
H263 C247 0.961 . S
H264 C248 0.931 . S
H265 C253 0.930 . S
H266 C254 0.956 . S
H267 C254 0.961 . S
H268 C254 0.961 . S
H269 C255 0.958 . S
H270 C255 0.961 . S
H271 C255 0.960 . S
C272 C273 1.391 . S
C272 C274 1.394 . S
C272 H288 0.931 . S
C273 C272 1.391 . S
C273 C277 1.376 . S
C274 C272 1.394 . S
C274 C275 1.369 . S
C274 C278 1.531 . S
C275 C274 1.369 . S
C275 C276 1.410 . S
C275 C283 1.503 . S
C276 C275 1.410 . S
C276 C277 1.392 . S
C276 C279 1.511 . S
C277 C273 1.376 . S
C277 C276 1.392 . S
C277 H289 0.929 . S
C278 C274 1.531 . S
C278 H290 0.960 . S
C278 H291 0.962 . S
C278 H292 0.960 . S
C279 C276 1.511 . S
C279 H293 0.961 . S
C279 H294 0.961 . S
C279 H295 0.961 . S
C280 C281 1.370 . S
C280 C282 1.363 . S
C280 H296 0.931 . S
C281 C280 1.370 . S
C281 C285 1.408 . S
C282 C280 1.363 . S
C282 C283 1.370 . S
C282 C286 1.524 . S
C283 C275 1.503 . S
C283 C282 1.370 . S
C283 C284 1.403 . S
C284 C283 1.403 . S
C284 C285 1.404 . S
C284 C287 1.539 . S
C285 C281 1.408 . S
C285 C284 1.404 . S
C285 H297 0.930 . S
C286 C282 1.524 . S
C286 H298 0.956 . S
C286 H299 0.961 . S
C286 H300 0.961 . S
C287 C284 1.539 . S
C287 H301 0.958 . S
C287 H302 0.961 . S
C287 H303 0.960 . S
H288 C272 0.931 . S
H289 C277 0.929 . S
H290 C278 0.960 . S
H291 C278 0.962 . S
H292 C278 0.960 . S
H293 C279 0.961 . S
H294 C279 0.961 . S
H295 C279 0.961 . S
H296 C280 0.931 . S
H297 C285 0.930 . S
H298 C286 0.956 . S
H299 C286 0.961 . S
H300 C286 0.961 . S
H301 C287 0.958 . S
H302 C287 0.961 . S
H303 C287 0.960 . S
C304 C305 1.391 . S
C304 C306 1.394 . S
C304 H320 0.931 . S
C305 C304 1.391 . S
C305 C309 1.376 . S
C306 C304 1.394 . S
C306 C307 1.369 . S
C306 C310 1.531 . S
C307 C306 1.369 . S
C307 C308 1.410 . S
C307 C315 1.503 . S
C308 C307 1.410 . S
C308 C309 1.392 . S
C308 C311 1.511 . S
C309 C305 1.376 . S
C309 C308 1.392 . S
C309 H321 0.929 . S
C310 C306 1.531 . S
C310 H322 0.960 . S
C310 H323 0.962 . S
C310 H324 0.960 . S
C311 C308 1.511 . S
C311 H325 0.961 . S
C311 H326 0.961 . S
C311 H327 0.961 . S
C312 C313 1.370 . S
C312 C314 1.363 . S
C312 H328 0.931 . S
C313 C312 1.370 . S
C313 C317 1.408 . S
C314 C312 1.363 . S
C314 C315 1.370 . S
C314 C318 1.524 . S
C315 C307 1.503 . S
C315 C314 1.370 . S
C315 C316 1.403 . S
C316 C315 1.403 . S
C316 C317 1.404 . S
C316 C319 1.539 . S
C317 C313 1.408 . S
C317 C316 1.404 . S
C317 H329 0.930 . S
C318 C314 1.524 . S
C318 H330 0.956 . S
C318 H331 0.961 . S
C318 H332 0.961 . S
C319 C316 1.539 . S
C319 H333 0.958 . S
C319 H334 0.961 . S
C319 H335 0.960 . S
H320 C304 0.931 . S
H321 C309 0.929 . S
H322 C310 0.960 . S
H323 C310 0.962 . S
H324 C310 0.960 . S
H325 C311 0.961 . S
H326 C311 0.961 . S
H327 C311 0.961 . S
H328 C312 0.931 . S
H329 C317 0.930 . S
H330 C318 0.956 . S
H331 C318 0.961 . S
H332 C318 0.961 . S
H333 C319 0.958 . S
H334 C319 0.961 . S
H335 C319 0.960 . S
C336 C337 1.391 . S
C336 C338 1.394 . S
C336 H352 0.931 . S
C337 C336 1.391 . S
C337 C341 1.376 . S
C338 C336 1.394 . S
C338 C339 1.369 . S
C338 C342 1.531 . S
C339 C338 1.369 . S
C339 C340 1.410 . S
C339 C347 1.503 . S
C340 C339 1.410 . S
C340 C341 1.392 . S
C340 C343 1.511 . S
C341 C337 1.376 . S
C341 C340 1.392 . S
C341 H353 0.929 . S
C342 C338 1.531 . S
C342 H354 0.960 . S
C342 H355 0.962 . S
C342 H356 0.960 . S
C343 C340 1.511 . S
C343 H357 0.961 . S
C343 H358 0.961 . S
C343 H359 0.961 . S
C344 C345 1.370 . S
C344 C346 1.363 . S
C344 H360 0.931 . S
C345 C344 1.370 . S
C345 C349 1.408 . S
C346 C344 1.363 . S
C346 C347 1.370 . S
C346 C350 1.524 . S
C347 C339 1.503 . S
C347 C346 1.370 . S
C347 C348 1.403 . S
C348 C347 1.403 . S
C348 C349 1.404 . S
C348 C351 1.539 . S
C349 C345 1.408 . S
C349 C348 1.404 . S
C349 H361 0.930 . S
C350 C346 1.524 . S
C350 H362 0.956 . S
C350 H363 0.961 . S
C350 H364 0.961 . S
C351 C348 1.539 . S
C351 H365 0.958 . S
C351 H366 0.961 . S
C351 H367 0.960 . S
H352 C336 0.931 . S
H353 C341 0.929 . S
H354 C342 0.960 . S
H355 C342 0.962 . S
H356 C342 0.960 . S
H357 C343 0.961 . S
H358 C343 0.961 . S
H359 C343 0.961 . S
H360 C344 0.931 . S
H361 C349 0.930 . S
H362 C350 0.956 . S
H363 C350 0.961 . S
H364 C350 0.961 . S
H365 C351 0.958 . S
H366 C351 0.961 . S
H367 C351 0.960 . S
C368 C369 1.391 . S
C368 C370 1.394 . S
C368 H384 0.931 . S
C369 C368 1.391 . S
C369 C373 1.376 . S
C370 C368 1.394 . S
C370 C371 1.369 . S
C370 C374 1.531 . S
C371 C370 1.369 . S
C371 C372 1.410 . S
C371 C379 1.503 . S
C372 C371 1.410 . S
C372 C373 1.392 . S
C372 C375 1.511 . S
C373 C369 1.376 . S
C373 C372 1.392 . S
C373 H385 0.929 . S
C374 C370 1.531 . S
C374 H386 0.960 . S
C374 H387 0.962 . S
C374 H388 0.960 . S
C375 C372 1.511 . S
C375 H389 0.961 . S
C375 H390 0.961 . S
C375 H391 0.961 . S
C376 C377 1.370 . S
C376 C378 1.363 . S
C376 H392 0.931 . S
C377 C376 1.370 . S
C377 C381 1.408 . S
C378 C376 1.363 . S
C378 C379 1.370 . S
C378 C382 1.524 . S
C379 C371 1.503 . S
C379 C378 1.370 . S
C379 C380 1.403 . S
C380 C379 1.403 . S
C380 C381 1.404 . S
C380 C383 1.539 . S
C381 C377 1.408 . S
C381 C380 1.404 . S
C381 H393 0.930 . S
C382 C378 1.524 . S
C382 H394 0.956 . S
C382 H395 0.961 . S
C382 H396 0.961 . S
C383 C380 1.539 . S
C383 H397 0.958 . S
C383 H398 0.961 . S
C383 H399 0.960 . S
H384 C368 0.931 . S
H385 C373 0.929 . S
H386 C374 0.960 . S
H387 C374 0.962 . S
H388 C374 0.960 . S
H389 C375 0.961 . S
H390 C375 0.961 . S
H391 C375 0.961 . S
H392 C376 0.931 . S
H393 C381 0.930 . S
H394 C382 0.956 . S
H395 C382 0.961 . S
H396 C382 0.961 . S
H397 C383 0.958 . S
H398 C383 0.961 . S
H399 C383 0.960 . S
C400 C401 1.391 . S
C400 C402 1.394 . S
C400 H416 0.931 . S
C401 C400 1.391 . S
C401 C405 1.376 . S
C402 C400 1.394 . S
C402 C403 1.369 . S
C402 C406 1.531 . S
C403 C402 1.369 . S
C403 C404 1.410 . S
C403 C411 1.503 . S
C404 C403 1.410 . S
C404 C405 1.392 . S
C404 C407 1.511 . S
C405 C401 1.376 . S
C405 C404 1.392 . S
C405 H417 0.929 . S
C406 C402 1.531 . S
C406 H418 0.960 . S
C406 H419 0.962 . S
C406 H420 0.960 . S
C407 C404 1.511 . S
C407 H421 0.961 . S
C407 H422 0.961 . S
C407 H423 0.961 . S
C408 C409 1.370 . S
C408 C410 1.363 . S
C408 H424 0.931 . S
C409 C408 1.370 . S
C409 C413 1.408 . S
C410 C408 1.363 . S
C410 C411 1.370 . S
C410 C414 1.524 . S
C411 C403 1.503 . S
C411 C410 1.370 . S
C411 C412 1.403 . S
C412 C411 1.403 . S
C412 C413 1.404 . S
C412 C415 1.539 . S
C413 C409 1.408 . S
C413 C412 1.404 . S
C413 H425 0.930 . S
C414 C410 1.524 . S
C414 H426 0.956 . S
C414 H427 0.961 . S
C414 H428 0.961 . S
C415 C412 1.539 . S
C415 H429 0.958 . S
C415 H430 0.961 . S
C415 H431 0.960 . S
H416 C400 0.931 . S
H417 C405 0.929 . S
H418 C406 0.960 . S
H419 C406 0.962 . S
H420 C406 0.960 . S
H421 C407 0.961 . S
H422 C407 0.961 . S
H423 C407 0.961 . S
H424 C408 0.931 . S
H425 C413 0.930 . S
H426 C414 0.956 . S
H427 C414 0.961 . S
H428 C414 0.961 . S
H429 C415 0.958 . S
H430 C415 0.961 . S
H431 C415 0.960 . S
C432 C433 1.391 . S
C432 C434 1.394 . S
C432 H448 0.931 . S
C433 C432 1.391 . S
C433 C437 1.376 . S
C434 C432 1.394 . S
C434 C435 1.369 . S
C434 C438 1.531 . S
C435 C434 1.369 . S
C435 C436 1.410 . S
C435 C443 1.503 . S
C436 C435 1.410 . S
C436 C437 1.392 . S
C436 C439 1.511 . S
C437 C433 1.376 . S
C437 C436 1.392 . S
C437 H449 0.929 . S
C438 C434 1.531 . S
C438 H450 0.960 . S
C438 H451 0.962 . S
C438 H452 0.960 . S
C439 C436 1.511 . S
C439 H453 0.961 . S
C439 H454 0.961 . S
C439 H455 0.961 . S
C440 C441 1.370 . S
C440 C442 1.363 . S
C440 H456 0.931 . S
C441 C440 1.370 . S
C441 C445 1.408 . S
C442 C440 1.363 . S
C442 C443 1.370 . S
C442 C446 1.524 . S
C443 C435 1.503 . S
C443 C442 1.370 . S
C443 C444 1.403 . S
C444 C443 1.403 . S
C444 C445 1.404 . S
C444 C447 1.539 . S
C445 C441 1.408 . S
C445 C444 1.404 . S
C445 H457 0.930 . S
C446 C442 1.524 . S
C446 H458 0.956 . S
C446 H459 0.961 . S
C446 H460 0.961 . S
C447 C444 1.539 . S
C447 H461 0.958 . S
C447 H462 0.961 . S
C447 H463 0.960 . S
H448 C432 0.931 . S
H449 C437 0.929 . S
H450 C438 0.960 . S
H451 C438 0.962 . S
H452 C438 0.960 . S
H453 C439 0.961 . S
H454 C439 0.961 . S
H455 C439 0.961 . S
H456 C440 0.931 . S
H457 C445 0.930 . S
H458 C446 0.956 . S
H459 C446 0.961 . S
H460 C446 0.961 . S
H461 C447 0.958 . S
H462 C447 0.961 . S
H463 C447 0.960 . S
C464 C465 1.391 . S
C464 C466 1.394 . S
C464 H480 0.931 . S
C465 C464 1.391 . S
C465 C469 1.376 . S
C466 C464 1.394 . S
C466 C467 1.369 . S
C466 C470 1.531 . S
C467 C466 1.369 . S
C467 C468 1.410 . S
C467 C475 1.503 . S
C468 C467 1.410 . S
C468 C469 1.392 . S
C468 C471 1.511 . S
C469 C465 1.376 . S
C469 C468 1.392 . S
C469 H481 0.929 . S
C470 C466 1.531 . S
C470 H482 0.960 . S
C470 H483 0.962 . S
C470 H484 0.960 . S
C471 C468 1.511 . S
C471 H485 0.961 . S
C471 H486 0.961 . S
C471 H487 0.961 . S
C472 C473 1.370 . S
C472 C474 1.363 . S
C472 H488 0.931 . S
C473 C472 1.370 . S
C473 C477 1.408 . S
C474 C472 1.363 . S
C474 C475 1.370 . S
C474 C478 1.524 . S
C475 C467 1.503 . S
C475 C474 1.370 . S
C475 C476 1.403 . S
C476 C475 1.403 . S
C476 C477 1.404 . S
C476 C479 1.539 . S
C477 C473 1.408 . S
C477 C476 1.404 . S
C477 H489 0.930 . S
C478 C474 1.524 . S
C478 H490 0.956 . S
C478 H491 0.961 . S
C478 H492 0.961 . S
C479 C476 1.539 . S
C479 H493 0.958 . S
C479 H494 0.961 . S
C479 H495 0.960 . S
H480 C464 0.931 . S
H481 C469 0.929 . S
H482 C470 0.960 . S
H483 C470 0.962 . S
H484 C470 0.960 . S
H485 C471 0.961 . S
H486 C471 0.961 . S
H487 C471 0.961 . S
H488 C472 0.931 . S
H489 C477 0.930 . S
H490 C478 0.956 . S
H491 C478 0.961 . S
H492 C478 0.961 . S
H493 C479 0.958 . S
H494 C479 0.961 . S
H495 C479 0.960 . S
C496 C497 1.391 . S
C496 C498 1.394 . S
C496 H512 0.931 . S
C497 C496 1.391 . S
C497 C501 1.376 . S
C498 C496 1.394 . S
C498 C499 1.369 1_655 S
C498 C502 1.531 . S
C499 C498 1.369 1_455 S
C499 C500 1.410 . S
C499 C507 1.503 . S
C500 C499 1.410 . S
C500 C501 1.392 1_455 S
C500 C503 1.511 . S
C501 C497 1.376 . S
C501 C500 1.392 1_655 S
C501 H513 0.929 . S
C502 C498 1.531 . S
C502 H514 0.960 1_655 S
C502 H515 0.962 . S
C502 H516 0.960 . S
C503 C500 1.511 . S
C503 H517 0.961 . S
C503 H518 0.961 . S
C503 H519 0.961 . S
C504 C505 1.370 1_655 S
C504 C506 1.363 . S
C504 H520 0.931 . S
C505 C504 1.370 1_455 S
C505 C509 1.408 . S
C506 C504 1.363 . S
C506 C507 1.370 1_655 S
C506 C510 1.524 . S
C507 C499 1.503 . S
C507 C506 1.370 1_455 S
C507 C508 1.403 . S
C508 C507 1.403 . S
C508 C509 1.404 . S
C508 C511 1.539 . S
C509 C505 1.408 . S
C509 C508 1.404 . S
C509 H521 0.930 . S
C510 C506 1.524 . S
C510 H522 0.956 . S
C510 H523 0.961 . S
C510 H524 0.961 . S
C511 C508 1.539 . S
C511 H525 0.958 . S
C511 H526 0.961 . S
C511 H527 0.960 . S
H512 C496 0.931 . S
H513 C501 0.929 . S
H514 C502 0.960 1_455 S
H515 C502 0.962 . S
H516 C502 0.960 . S
H517 C503 0.961 . S
H518 C503 0.961 . S
H519 C503 0.961 . S
H520 C504 0.931 . S
H521 C509 0.930 . S
H522 C510 0.956 . S
H523 C510 0.961 . S
H524 C510 0.961 . S
H525 C511 0.958 . S
H526 C511 0.961 . S
H527 C511 0.960 . S
C528 C529 1.391 . S
C528 C530 1.394 . S
C528 H544 0.931 . S
C529 C528 1.391 . S
C529 C533 1.376 . S
C530 C528 1.394 . S
C530 C531 1.369 . S
C530 C534 1.531 . S
C531 C530 1.369 . S
C531 C532 1.410 . S
C531 C539 1.503 1_655 S
C532 C531 1.410 . S
C532 C533 1.392 . S
C532 C535 1.511 . S
C533 C529 1.376 . S
C533 C532 1.392 . S
C533 H545 0.929 . S
C534 C530 1.531 . S
C534 H546 0.938 1_655 S
C534 H547 0.962 . S
C534 H548 0.960 . S
C535 C532 1.511 . S
C535 H549 0.961 . S
C535 H550 0.961 1_655 S
C535 H551 0.961 1_655 S
C536 C537 1.370 . S
C536 C538 1.363 . S
C536 H552 0.931 . S
C537 C536 1.370 . S
C537 C541 1.408 . S
C538 C536 1.363 . S
C538 C539 1.370 . S
C538 C542 1.524 1_455 S
C539 C531 1.503 1_455 S
C539 C538 1.370 . S
C539 C540 1.403 . S
C540 C539 1.403 . S
C540 C541 1.404 . S
C540 C543 1.539 . S
C541 C537 1.408 . S
C541 C540 1.404 . S
C541 H553 0.930 . S
C542 C538 1.524 1_655 S
C542 H554 0.956 . S
C542 H555 0.961 . S
C542 H556 0.961 1_655 S
C543 C540 1.539 . S
C543 H557 0.958 . S
C543 H558 0.961 . S
C543 H559 0.960 . S
H544 C528 0.931 . S
H545 C533 0.929 . S
H546 C534 0.938 1_455 S
H547 C534 0.962 . S
H548 C534 0.960 . S
H549 C535 0.961 . S
H550 C535 0.961 1_455 S
H551 C535 0.961 1_455 S
H552 C536 0.931 . S
H553 C541 0.930 . S
H554 C542 0.956 . S
H555 C542 0.961 . S
H556 C542 0.961 1_455 S
H557 C543 0.958 . S
H558 C543 0.961 . S
H559 C543 0.960 . S
C560 C561 1.391 . S
C560 C562 1.394 . S
C560 H576 0.931 . S
C561 C560 1.391 . S
C561 C565 1.376 . S
C562 C560 1.394 . S
C562 C563 1.369 . S
C562 C566 1.531 1_545 S
C563 C562 1.369 . S
C563 C564 1.410 . S
C563 C571 1.503 1_545 S
C564 C563 1.410 . S
C564 C565 1.392 . S
C564 C567 1.511 . S
C565 C561 1.376 . S
C565 C564 1.392 . S
C565 H577 0.929 . S
C566 C562 1.531 1_565 S
C566 H578 0.960 . S
C566 H579 0.962 . S
C566 H580 0.960 1_565 S
C567 C564 1.511 . S
C567 H581 0.961 . S
C567 H582 0.961 . S
C567 H583 0.961 . S
C568 C569 1.370 . S
C568 C570 1.363 . S
C568 H584 0.931 . S
C569 C568 1.370 . S
C569 C573 1.408 . S
C570 C568 1.363 . S
C570 C571 1.370 . S
C570 C574 1.524 . S
C571 C563 1.503 1_565 S
C571 C570 1.370 . S
C571 C572 1.403 . S
C572 C571 1.403 . S
C572 C573 1.404 . S
C572 C575 1.539 . S
C573 C569 1.408 . S
C573 C572 1.404 . S
C573 H585 0.930 . S
C574 C570 1.524 . S
C574 H586 0.956 . S
C574 H587 0.961 1_565 S
C574 H588 0.961 . S
C575 C572 1.539 . S
C575 H589 0.958 . S
C575 H590 0.961 . S
C575 H591 0.960 1_565 S
H576 C560 0.931 . S
H577 C565 0.929 . S
H578 C566 0.960 . S
H579 C566 0.962 . S
H580 C566 0.960 1_545 S
H581 C567 0.961 . S
H582 C567 0.961 . S
H583 C567 0.961 . S
H584 C568 0.931 . S
H585 C573 0.930 . S
H586 C574 0.956 . S
H587 C574 0.961 1_545 S
H588 C574 0.961 . S
H589 C575 0.958 . S
H590 C575 0.961 . S
H591 C575 0.960 1_545 S
C592 C593 1.391 . S
C592 C594 1.394 . S
C592 H608 0.931 . S
C593 C592 1.391 . S
C593 C597 1.376 1_545 S
C594 C592 1.394 . S
C594 C595 1.369 . S
C594 C598 1.531 . S
C595 C594 1.369 . S
C595 C596 1.410 1_545 S
C595 C603 1.503 1_545 S
C596 C595 1.410 1_565 S
C596 C597 1.392 . S
C596 C599 1.511 . S
C597 C593 1.376 1_565 S
C597 C596 1.392 . S
C597 H609 0.929 . S
C598 C594 1.531 . S
C598 H610 0.960 . S
C598 H611 0.962 . S
C598 H612 0.960 . S
C599 C596 1.511 . S
C599 H613 0.961 . S
C599 H614 0.961 . S
C599 H615 0.961 . S
C600 C601 1.370 . S
C600 C602 1.363 . S
C600 H616 0.931 . S
C601 C600 1.370 . S
C601 C605 1.408 . S
C602 C600 1.363 . S
C602 C603 1.370 . S
C602 C606 1.524 . S
C603 C595 1.503 1_565 S
C603 C602 1.370 . S
C603 C604 1.403 . S
C604 C603 1.403 . S
C604 C605 1.404 . S
C604 C607 1.539 1_565 S
C605 C601 1.408 . S
C605 C604 1.404 . S
C605 H617 0.930 . S
C606 C602 1.524 . S
C606 H618 0.972 . S
C606 H619 0.961 . S
C606 H620 0.961 . S
C607 C604 1.539 1_545 S
C607 H621 0.958 . S
C607 H622 0.961 . S
C607 H623 0.960 . S
H608 C592 0.931 . S
H609 C597 0.929 . S
H610 C598 0.960 . S
H611 C598 0.962 . S
H612 C598 0.960 . S
H613 C599 0.961 . S
H614 C599 0.961 . S
H615 C599 0.961 . S
H616 C600 0.931 . S
H617 C605 0.930 . S
H618 C606 0.972 . S
H619 C606 0.961 . S
H620 C606 0.961 . S
H621 C607 0.958 . S
H622 C607 0.961 . S
H623 C607 0.960 . S
C113 C12 1.389 . S
C121 C82 1.403 . S
C145 C26 1.411 . S
C153 C96 1.399 . S
C177 C40 1.400 . S
C185 C110 1.399 . S
C209 C68 1.387 . S
C217 C54 1.408 . S
C241 C11 1.375 . S
C249 C61 1.331 . S
C273 C25 1.407 . S
C281 C75 1.352 . S
C305 C89 1.366 . S
C313 C39 1.391 . S
C337 C53 1.407 . S
C345 C103 1.353 . S
C369 C67 1.368 . S
C377 C5 1.334 . S
C401 C19 1.359 . S
C409 C81 1.389 . S
C433 C95 1.346 . S
C441 C33 1.317 . S
C465 C47 1.364 . S
C473 C109 1.390 . S
C497 C32 0.900 . S
C505 C4 0.868 . S
C529 C46 0.857 . S
C537 C18 0.889 . S
C561 C60 0.877 . S
C569 C88 0.874 . S
C593 C74 0.866 . S
C601 C102 0.878 . S
