# Generated by pormake.
# Topology unh, (4)-cn, num edge types: 1
# Building blocks:
#     Node 0, Type 0, BuildingBlock: NAWXER_clean_sbu_0, # of connection points: 4
#     Node 1, Type 0, BuildingBlock: NAWXER_clean_sbu_0, # of connection points: 4
#     Node 2, Type 0, BuildingBlock: NAWXER_clean_sbu_0, # of connection points: 4
#     Node 3, Type 0, BuildingBlock: NAWXER_clean_sbu_0, # of connection points: 4
#     Node 4, Type 0, BuildingBlock: NAWXER_clean_sbu_0, # of connection points: 4
#     Node 5, Type 0, BuildingBlock: NAWXER_clean_sbu_0, # of connection points: 4
#     Edge 6, Type (0, 0), BuildingBlock: KIFKEQ_clean_linker_1, # of connection points: 2
#     Edge 7, Type (0, 0), BuildingBlock: KIFKEQ_clean_linker_1, # of connection points: 2
#     Edge 8, Type (0, 0), BuildingBlock: KIFKEQ_clean_linker_1, # of connection points: 2
#     Edge 9, Type (0, 0), BuildingBlock: KIFKEQ_clean_linker_1, # of connection points: 2
#     Edge 10, Type (0, 0), BuildingBlock: KIFKEQ_clean_linker_1, # of connection points: 2
#     Edge 11, Type (0, 0), BuildingBlock: KIFKEQ_clean_linker_1, # of connection points: 2
#     Edge 12, Type (0, 0), BuildingBlock: KIFKEQ_clean_linker_1, # of connection points: 2
#     Edge 13, Type (0, 0), BuildingBlock: KIFKEQ_clean_linker_1, # of connection points: 2
#     Edge 14, Type (0, 0), BuildingBlock: KIFKEQ_clean_linker_1, # of connection points: 2
#     Edge 15, Type (0, 0), BuildingBlock: KIFKEQ_clean_linker_1, # of connection points: 2
#     Edge 16, Type (0, 0), BuildingBlock: KIFKEQ_clean_linker_1, # of connection points: 2
#     Edge 17, Type (0, 0), BuildingBlock: KIFKEQ_clean_linker_1, # of connection points: 2
# Relax obj value: 0.020
# Max RMSD: 0.247
# Mean RMSD: 0.247
data_MOF--net-unh--node1-NAWXER_clean_sbu_0--edge1-KIFKEQ_clean_linker_1
_symmetry_space_group_name_H-M    P1
_symmetry_Int_Tables_number       1
_symmetry_cell_setting            triclinic
loop_
_symmetry_equiv_pos_as_xyz
'x, y, z'
_cell_length_a     45.327484
_cell_length_b     45.282549
_cell_length_c     21.980548
_cell_angle_alpha  89.809701
_cell_angle_beta   90.20944
_cell_angle_gamma 119.9343
loop_
_atom_site_label
_atom_site_type_symbol
_atom_site_fract_x
_atom_site_fract_y
_atom_site_fract_z
_atom_type_partial_charge
C0 C 0.10697 0.56747 0.17255 0.0
C1 C 0.19426 0.63289 0.02386 0.0
O2 O 0.12229 0.59911 0.161 0.0
Zn3 Zn 0.15015 0.59914 0.09564 0.0
O4 O 0.11427 0.54799 0.14167 0.0
Zn5 Zn 0.14896 0.55471 0.06881 0.0
O6 O 0.17644 0.53856 0.10518 0.0
O7 O 0.18736 0.58876 0.14001 0.0
O8 O 0.18661 0.60146 0.0226 0.0
O9 O 0.17823 0.64221 0.05877 0.0
O10 O 0.11424 0.5718 0.02315 0.0
O11 O 0.11916 0.52659 0.00566 0.0
C12 C 0.19382 0.56417 0.13898 0.0
C13 C 0.10516 0.54415 0.99365 0.0
C14 C 0.57053 0.18899 0.1929 0.0
C15 C 0.54818 0.10035 0.34017 0.0
O16 O 0.54461 0.172 0.22621 0.0
Zn17 Zn 0.55983 0.14415 0.26392 0.0
O18 O 0.59484 0.1821 0.19312 0.0
Zn19 Zn 0.6043 0.14467 0.23979 0.0
O20 O 0.60453 0.11568 0.17674 0.0
O21 O 0.55377 0.10968 0.19099 0.0
O22 O 0.57616 0.10937 0.31203 0.0
O23 O 0.53076 0.11427 0.32646 0.0
O24 O 0.60613 0.18165 0.31141 0.0
O25 O 0.64696 0.17266 0.27799 0.0
C26 C 0.57326 0.10138 0.16274 0.0
C27 C 0.63745 0.18901 0.31173 0.0
C28 C 0.47885 0.56573 0.32939 0.0
C29 C 0.45772 0.63563 0.46877 0.0
O30 O 0.49567 0.59752 0.33908 0.0
Zn31 Zn 0.46778 0.59948 0.40189 0.0
O32 O 0.45179 0.54711 0.3603 0.0
Zn33 Zn 0.42468 0.55617 0.43245 0.0
O34 O 0.38074 0.53968 0.39706 0.0
O35 O 0.4203 0.58799 0.35652 0.0
O36 O 0.43482 0.60409 0.47469 0.0
O37 O 0.48212 0.64393 0.43197 0.0
O38 O 0.47664 0.57381 0.47768 0.0
O39 O 0.42638 0.52989 0.49899 0.0
C40 C 0.38912 0.56403 0.35984 0.0
C41 C 0.45802 0.54721 0.50995 0.0
C42 C 0.83421 0.45662 0.63654 0.0
C43 C 0.92106 0.47544 0.48934 0.0
O44 O 0.85008 0.4808 0.59907 0.0
Zn45 Zn 0.87788 0.46494 0.56528 0.0
O46 O 0.84184 0.43284 0.64065 0.0
Zn47 Zn 0.87843 0.4219 0.59486 0.0
O48 O 0.90787 0.42323 0.65809 0.0
O49 O 0.9138 0.4737 0.63874 0.0
O50 O 0.91357 0.44889 0.52145 0.0
O51 O 0.90579 0.49193 0.49942 0.0
O52 O 0.84016 0.41729 0.52272 0.0
O53 O 0.85022 0.37796 0.56065 0.0
C54 C 0.92243 0.45488 0.66908 0.0
C55 C 0.83313 0.38611 0.5257 0.0
C56 C 0.39102 0.82932 0.81101 0.0
C57 C 0.4581 0.91664 0.66336 0.0
O58 O 0.38245 0.84593 0.77567 0.0
Zn59 Zn 0.42595 0.87362 0.73974 0.0
O60 O 0.42219 0.83631 0.81297 0.0
Zn61 Zn 0.46924 0.87288 0.76725 0.0
O62 O 0.49809 0.9023 0.83014 0.0
O63 O 0.45386 0.90884 0.81245 0.0
O64 O 0.47706 0.90773 0.69245 0.0
O65 O 0.42679 0.90286 0.67651 0.0
O66 O 0.43567 0.83629 0.69371 0.0
O67 O 0.48331 0.84325 0.73469 0.0
C68 C 0.48136 0.91712 0.84198 0.0
C69 C 0.45866 0.82761 0.69802 0.0
C70 C 0.55224 0.45394 0.82691 0.0
C71 C 0.57096 0.38562 0.97571 0.0
O72 O 0.53567 0.42216 0.8371 0.0
Zn73 Zn 0.56225 0.42091 0.90383 0.0
O74 O 0.57853 0.47286 0.85957 0.0
Zn75 Zn 0.60481 0.46446 0.93453 0.0
O76 O 0.64912 0.48053 0.90317 0.0
O77 O 0.61063 0.43205 0.86195 0.0
O78 O 0.59458 0.41699 0.9793 0.0
O79 O 0.5465 0.37703 0.93871 0.0
O80 O 0.55241 0.44741 0.97642 0.0
O81 O 0.60243 0.49185 0.99767 0.0
C82 C 0.64178 0.45607 0.86697 0.0
C83 C 0.57071 0.47459 0.0074 0.0
H84 H 0.08644 0.58236 0.92396 0.0
H85 H 0.06263 0.47892 0.95853 0.0
H86 H 0.04314 0.56225 0.84404 0.0
H87 H 0.01804 0.45846 0.88217 0.0
H88 H 0.96448 0.43138 0.70313 0.0
H89 H 1.00913 0.45444 0.77935 0.0
H90 H 0.98553 0.53396 0.81882 0.0
H91 H 0.94213 0.51181 0.73893 0.0
C92 C 0.07163 0.55528 0.91487 0.0
C93 C 0.07812 0.53223 0.94692 0.0
C94 C 0.04661 0.54366 0.86933 0.0
C95 C 0.02707 0.50864 0.85579 0.0
C96 C 0.03311 0.48566 0.88954 0.0
C97 C 0.05857 0.49735 0.93385 0.0
C98 C 0.96889 0.45384 0.72804 0.0
C99 C 0.9497 0.46968 0.7154 0.0
C100 C 0.99438 0.46699 0.7723 0.0
C101 C 1.00082 0.49588 0.80644 0.0
C102 C 0.98171 0.51194 0.79324 0.0
C103 C 0.95666 0.49917 0.74771 0.0
H104 H 0.54701 0.95854 0.87625 0.0
H105 H 0.44465 0.93728 0.91147 0.0
H106 H 0.56889 1.00389 0.95107 0.0
H107 H 0.4661 0.98122 0.98987 0.0
H108 H 0.51735 0.08241 0.09078 0.0
H109 H 0.49511 0.03886 0.01173 0.0
H110 H 0.5743 0.01493 0.05314 0.0
H111 H 0.59756 0.05992 0.12872 0.0
C112 C 0.52913 0.96332 0.90079 0.0
C113 C 0.49414 0.94433 0.88826 0.0
C114 C 0.54162 0.98922 0.9442 0.0
C115 C 0.51935 0.99625 0.97749 0.0
C116 C 0.48421 0.97709 0.96475 0.0
C117 C 0.4718 0.95167 0.92011 0.0
C118 C 0.52999 0.06785 0.08254 0.0
C119 C 0.55932 0.0747 0.11546 0.0
C120 C 0.51711 0.04266 0.03753 0.0
C121 C 0.53286 0.0232 0.02543 0.0
C122 C 0.5619 0.02983 0.05956 0.0
C123 C 0.57518 0.05552 0.10339 0.0
H124 H 0.54408 0.58878 0.29493 0.0
H125 H 0.44118 0.5083 0.26114 0.0
H126 H 0.56502 0.56504 0.21914 0.0
H127 H 0.46175 0.48547 0.18163 0.0
H128 H 0.51383 0.43648 0.07671 0.0
H129 H 0.4909 0.45694 0.15626 0.0
H130 H 0.56884 0.56061 0.11626 0.0
H131 H 0.5927 0.53983 0.04049 0.0
C132 C 0.52588 0.56616 0.27056 0.0
C133 C 0.49101 0.55051 0.28359 0.0
C134 C 0.53782 0.55262 0.22655 0.0
C135 C 0.51513 0.52355 0.19302 0.0
C136 C 0.48013 0.50764 0.20672 0.0
C137 C 0.46825 0.5208 0.25202 0.0
C138 C 0.52594 0.4636 0.0853 0.0
C139 C 0.55525 0.48654 0.05308 0.0
C140 C 0.51273 0.47542 0.13063 0.0
C141 C 0.52818 0.51052 0.14365 0.0
C142 C 0.5568 0.53336 0.1094 0.0
C143 C 0.5704 0.52149 0.0654 0.0
H144 H 0.96378 0.45065 0.46297 0.0
H145 H 0.93872 0.52731 0.40836 0.0
H146 H 1.00933 0.47237 0.38747 0.0
H147 H 0.98345 0.54835 0.33229 0.0
H148 H 0.089 0.60234 0.25108 0.0
H149 H 0.04454 0.57918 0.32783 0.0
H150 H 0.01979 0.47705 0.27837 0.0
H151 H 0.065 0.50033 0.20233 0.0
C152 C 0.9678 0.47193 0.43458 0.0
C153 C 0.94773 0.48735 0.44193 0.0
C154 C 0.9938 0.48429 0.39114 0.0
C155 C 1.00022 0.51227 0.35411 0.0
C156 C 0.97969 0.52721 0.36085 0.0
C157 C 0.95385 0.51497 0.40427 0.0
C158 C 0.07417 0.57494 0.25661 0.0
C159 C 0.08048 0.55319 0.22036 0.0
C160 C 0.04851 0.56163 0.30042 0.0
C161 C 0.02837 0.52623 0.30894 0.0
C162 C 0.03502 0.50445 0.27336 0.0
C163 C 0.06082 0.5178 0.22956 0.0
H164 H 0.48275 0.05846 0.37524 0.0
H165 H 0.58569 0.08113 0.41046 0.0
H166 H 0.46174 0.01341 0.45094 0.0
H167 H 0.56506 0.03742 0.48954 0.0
H168 H 0.5144 0.93594 0.59215 0.0
H169 H 0.53646 0.97957 0.51268 0.0
H170 H 0.45732 1.00341 0.55354 0.0
H171 H 0.43435 0.95856 0.62941 0.0
C172 C 0.50095 0.05407 0.39994 0.0
C173 C 0.53585 0.07339 0.38716 0.0
C174 C 0.48895 0.02834 0.44383 0.0
C175 C 0.51163 0.02178 0.47734 0.0
C176 C 0.54667 0.04123 0.46432 0.0
C177 C 0.55859 0.06651 0.41928 0.0
C178 C 0.50178 0.95053 0.58371 0.0
C179 C 0.47248 0.94364 0.61644 0.0
C180 C 0.51452 0.97574 0.53845 0.0
C181 C 0.49861 0.99508 0.52592 0.0
C182 C 0.46978 0.98854 0.56017 0.0
C183 C 0.45668 0.96292 0.6042 0.0
H184 H 0.57762 0.52156 0.79911 0.0
H185 H 0.50032 0.42015 0.746 0.0
H186 H 0.55591 0.5457 0.72343 0.0
H187 H 0.47926 0.44414 0.66993 0.0
H188 H 0.52566 0.57307 0.53793 0.0
H189 H 0.54995 0.55157 0.61381 0.0
H190 H 0.4486 0.47477 0.66764 0.0
H191 H 0.42449 0.4956 0.59144 0.0
C192 C 0.55621 0.50442 0.771 0.0
C193 C 0.54057 0.46891 0.77895 0.0
C194 C 0.54386 0.51826 0.72746 0.0
C195 C 0.51562 0.49688 0.69098 0.0
C196 C 0.50058 0.46139 0.69809 0.0
C197 C 0.51283 0.44761 0.74154 0.0
C198 C 0.50861 0.55169 0.5662 0.0
C199 C 0.47313 0.53591 0.55827 0.0
C200 C 0.52252 0.53945 0.60982 0.0
C201 C 0.50124 0.5112 0.64639 0.0
C202 C 0.46578 0.49608 0.63938 0.0
C203 C 0.45193 0.50821 0.59585 0.0
H204 H 0.19375 0.51363 0.20513 0.0
H205 H 0.25769 0.61846 0.15162 0.0
H206 H 0.2412 0.51487 0.25916 0.0
H207 H 0.30639 0.61929 0.20084 0.0
H208 H 0.38271 0.61955 0.33648 0.0
H209 H 0.33523 0.62076 0.28657 0.0
H210 H 0.28961 0.51296 0.24778 0.0
H211 H 0.33561 0.51168 0.30256 0.0
C212 C 0.21822 0.53691 0.20478 0.0
C213 C 0.22218 0.56597 0.17465 0.0
C214 C 0.24569 0.5376 0.235 0.0
C215 C 0.27821 0.56702 0.23387 0.0
C216 C 0.28187 0.59626 0.2039 0.0
C217 C 0.25401 0.59586 0.17536 0.0
C218 C 0.36247 0.59626 0.31685 0.0
C219 C 0.3626 0.56551 0.32337 0.0
C220 C 0.33523 0.59688 0.28791 0.0
C221 C 0.30798 0.56687 0.26328 0.0
C222 C 0.30922 0.53643 0.26777 0.0
C223 C 0.33586 0.53566 0.29845 0.0
H224 H 0.64585 0.25257 0.32368 0.0
H225 H 0.68698 0.18924 0.38091 0.0
H226 H 0.69334 0.30174 0.37254 0.0
H227 H 0.73282 0.23718 0.43424 0.0
H228 H 0.83102 0.3321 0.4692 0.0
H229 H 0.783 0.28547 0.41764 0.0
H230 H 0.72143 0.33151 0.45805 0.0
H231 H 0.77081 0.3796 0.50518 0.0
C232 C 0.66467 0.24911 0.34828 0.0
C233 C 0.66302 0.21735 0.34856 0.0
C234 C 0.69191 0.27723 0.3765 0.0
C235 C 0.71756 0.27389 0.40688 0.0
C236 C 0.71452 0.24137 0.40958 0.0
C237 C 0.68795 0.21364 0.3798 0.0
C238 C 0.80726 0.33232 0.46625 0.0
C239 C 0.80451 0.35932 0.49092 0.0
C240 C 0.77945 0.30533 0.43743 0.0
C241 C 0.74774 0.30402 0.43446 0.0
C242 C 0.74532 0.33156 0.45855 0.0
C243 C 0.77357 0.35914 0.4858 0.0
H244 H 0.42783 0.80303 0.58761 0.0
H245 H 0.48264 0.78584 0.73168 0.0
H246 H 0.42478 0.75482 0.53088 0.0
H247 H 0.47858 0.73734 0.67603 0.0
H248 H 0.42662 0.63031 0.578 0.0
H249 H 0.42391 0.67592 0.63348 0.0
H250 H 0.47887 0.74646 0.48857 0.0
H251 H 0.48257 0.70145 0.434 0.0
C252 C 0.43892 0.78881 0.60726 0.0
C253 C 0.45571 0.79829 0.66369 0.0
C254 C 0.43718 0.76136 0.57495 0.0
C255 C 0.4513 0.74246 0.59953 0.0
C256 C 0.46731 0.75143 0.65651 0.0
C257 C 0.46983 0.7793 0.68799 0.0
C258 C 0.43802 0.65554 0.55805 0.0
C259 C 0.45506 0.66246 0.50205 0.0
C260 C 0.43644 0.6815 0.58966 0.0
C261 C 0.45102 0.71446 0.56486 0.0
C262 C 0.46722 0.72114 0.50821 0.0
C263 C 0.46956 0.69548 0.47739 0.0
H264 H 0.7084 0.50554 0.86159 0.0
H265 H 0.63791 0.40427 0.79623 0.0
H266 H 0.75459 0.50415 0.80865 0.0
H267 H 0.68456 0.40314 0.74224 0.0
H268 H 0.7868 0.40422 0.70717 0.0
H269 H 0.73941 0.40279 0.76324 0.0
H270 H 0.77097 0.50503 0.7021 0.0
H271 H 0.8181 0.5067 0.64716 0.0
C272 C 0.70269 0.48299 0.83568 0.0
C273 C 0.66938 0.45508 0.83286 0.0
C274 C 0.72921 0.48226 0.80518 0.0
C275 C 0.7232 0.4536 0.77111 0.0
C276 C 0.68998 0.42547 0.76857 0.0
C277 C 0.66326 0.42625 0.799 0.0
C278 C 0.78369 0.42643 0.70617 0.0
C279 C 0.80631 0.45562 0.67294 0.0
C280 C 0.75643 0.42549 0.73778 0.0
C281 C 0.75154 0.45383 0.73713 0.0
C282 C 0.77429 0.48295 0.70413 0.0
C283 C 0.80127 0.48383 0.67242 0.0
H284 H 0.38458 0.76701 0.83128 0.0
H285 H 0.33774 0.8276 0.86951 0.0
H286 H 0.33667 0.71762 0.87858 0.0
H287 H 0.29128 0.77953 0.92136 0.0
H288 H 0.19481 0.6833 0.95683 0.0
H289 H 0.24284 0.72957 0.90452 0.0
H290 H 0.30692 0.68902 0.96349 0.0
H291 H 0.25764 0.64115 0.01123 0.0
C292 C 0.36434 0.76986 0.85132 0.0
C293 C 0.36462 0.80091 0.8467 0.0
C294 C 0.33684 0.7416 0.87865 0.0
C295 C 0.30949 0.74409 0.90335 0.0
C296 C 0.31098 0.77593 0.90108 0.0
C297 C 0.33788 0.80376 0.87214 0.0
C298 C 0.21912 0.68415 0.95753 0.0
C299 C 0.22266 0.65878 0.98761 0.0
C300 C 0.24691 0.71096 0.92837 0.0
C301 C 0.27932 0.7138 0.93057 0.0
C302 C 0.2825 0.68776 0.9599 0.0
C303 C 0.25431 0.66029 0.98746 0.0
H304 H 0.62688 0.37982 0.9995 0.0
H305 H 0.51887 0.33143 0.03168 0.0
H306 H 0.62831 0.33202 0.04803 0.0
H307 H 0.52032 0.28507 0.08481 0.0
H308 H 0.52112 0.18914 0.12379 0.0
H309 H 0.52284 0.23703 0.07044 0.0
H310 H 0.6263 0.30207 0.13323 0.0
H311 H 0.62504 0.25296 0.182 0.0
C312 C 0.6036 0.35924 0.01845 0.0
C313 C 0.57275 0.3591 0.0118 0.0
C314 C 0.60434 0.3318 0.04651 0.0
C315 C 0.57433 0.30406 0.07 0.0
C316 C 0.5438 0.30507 0.06557 0.0
C317 C 0.54294 0.33192 0.03587 0.0
C318 C 0.54433 0.21365 0.12519 0.0
C319 C 0.57296 0.21748 0.15661 0.0
C320 C 0.54527 0.24137 0.09539 0.0
C321 C 0.57449 0.274 0.09822 0.0
C322 C 0.60342 0.2775 0.12905 0.0
C323 C 0.60278 0.24939 0.15725 0.0
loop_
_geom_bond_atom_site_label_1
_geom_bond_atom_site_label_2
_geom_bond_distance
_geom_bond_site_symmetry_2
_ccdc_geom_bond_type
C0 O2 1.247 . S
C0 O4 1.258 . S
C1 O8 1.247 . S
C1 O9 1.258 . S
O2 C0 1.247 . S
O2 Zn3 2.028 . S
Zn3 O2 2.028 . S
Zn3 O7 2.035 . S
Zn3 O9 2.035 . S
Zn3 O10 2.028 . S
O4 C0 1.258 . S
O4 Zn5 2.035 . S
Zn5 O4 2.035 . S
Zn5 O6 2.028 . S
Zn5 O8 2.028 . S
Zn5 O11 2.035 . S
O6 Zn5 2.028 . S
O6 C12 1.247 . S
O7 Zn3 2.035 . S
O7 C12 1.258 . S
O8 C1 1.247 . S
O8 Zn5 2.028 . S
O9 C1 1.258 . S
O9 Zn3 2.035 . S
O10 Zn3 2.028 . S
O10 C13 1.247 . S
O11 Zn5 2.035 . S
O11 C13 1.258 . S
C12 O6 1.247 . S
C12 O7 1.258 . S
C13 O10 1.247 . S
C13 O11 1.258 . S
C14 O16 1.247 . S
C14 O18 1.258 . S
C15 O22 1.247 . S
C15 O23 1.258 . S
O16 C14 1.247 . S
O16 Zn17 2.028 . S
Zn17 O16 2.028 . S
Zn17 O21 2.035 . S
Zn17 O23 2.035 . S
Zn17 O24 2.028 . S
O18 C14 1.258 . S
O18 Zn19 2.035 . S
Zn19 O18 2.035 . S
Zn19 O20 2.028 . S
Zn19 O22 2.028 . S
Zn19 O25 2.035 . S
O20 Zn19 2.028 . S
O20 C26 1.247 . S
O21 Zn17 2.035 . S
O21 C26 1.258 . S
O22 C15 1.247 . S
O22 Zn19 2.028 . S
O23 C15 1.258 . S
O23 Zn17 2.035 . S
O24 Zn17 2.028 . S
O24 C27 1.247 . S
O25 Zn19 2.035 . S
O25 C27 1.258 . S
C26 O20 1.247 . S
C26 O21 1.258 . S
C27 O24 1.247 . S
C27 O25 1.258 . S
C28 O30 1.247 . S
C28 O32 1.258 . S
C29 O36 1.247 . S
C29 O37 1.258 . S
O30 C28 1.247 . S
O30 Zn31 2.028 . S
Zn31 O30 2.028 . S
Zn31 O35 2.035 . S
Zn31 O37 2.035 . S
Zn31 O38 2.028 . S
O32 C28 1.258 . S
O32 Zn33 2.035 . S
Zn33 O32 2.035 . S
Zn33 O34 2.028 . S
Zn33 O36 2.028 . S
Zn33 O39 2.035 . S
O34 Zn33 2.028 . S
O34 C40 1.247 . S
O35 Zn31 2.035 . S
O35 C40 1.258 . S
O36 C29 1.247 . S
O36 Zn33 2.028 . S
O37 C29 1.258 . S
O37 Zn31 2.035 . S
O38 Zn31 2.028 . S
O38 C41 1.247 . S
O39 Zn33 2.035 . S
O39 C41 1.258 . S
C40 O34 1.247 . S
C40 O35 1.258 . S
C41 O38 1.247 . S
C41 O39 1.258 . S
C42 O44 1.247 . S
C42 O46 1.258 . S
C43 O50 1.247 . S
C43 O51 1.258 . S
O44 C42 1.247 . S
O44 Zn45 2.028 . S
Zn45 O44 2.028 . S
Zn45 O49 2.035 . S
Zn45 O51 2.035 . S
Zn45 O52 2.028 . S
O46 C42 1.258 . S
O46 Zn47 2.035 . S
Zn47 O46 2.035 . S
Zn47 O48 2.028 . S
Zn47 O50 2.028 . S
Zn47 O53 2.035 . S
O48 Zn47 2.028 . S
O48 C54 1.247 . S
O49 Zn45 2.035 . S
O49 C54 1.258 . S
O50 C43 1.247 . S
O50 Zn47 2.028 . S
O51 C43 1.258 . S
O51 Zn45 2.035 . S
O52 Zn45 2.028 . S
O52 C55 1.247 . S
O53 Zn47 2.035 . S
O53 C55 1.258 . S
C54 O48 1.247 . S
C54 O49 1.258 . S
C55 O52 1.247 . S
C55 O53 1.258 . S
C56 O58 1.247 . S
C56 O60 1.258 . S
C57 O64 1.247 . S
C57 O65 1.258 . S
O58 C56 1.247 . S
O58 Zn59 2.028 . S
Zn59 O58 2.028 . S
Zn59 O63 2.035 . S
Zn59 O65 2.035 . S
Zn59 O66 2.028 . S
O60 C56 1.258 . S
O60 Zn61 2.035 . S
Zn61 O60 2.035 . S
Zn61 O62 2.028 . S
Zn61 O64 2.028 . S
Zn61 O67 2.035 . S
O62 Zn61 2.028 . S
O62 C68 1.247 . S
O63 Zn59 2.035 . S
O63 C68 1.258 . S
O64 C57 1.247 . S
O64 Zn61 2.028 . S
O65 C57 1.258 . S
O65 Zn59 2.035 . S
O66 Zn59 2.028 . S
O66 C69 1.247 . S
O67 Zn61 2.035 . S
O67 C69 1.258 . S
C68 O62 1.247 . S
C68 O63 1.258 . S
C69 O66 1.247 . S
C69 O67 1.258 . S
C70 O72 1.247 . S
C70 O74 1.258 . S
C71 O78 1.247 . S
C71 O79 1.258 . S
O72 C70 1.247 . S
O72 Zn73 2.028 . S
Zn73 O72 2.028 . S
Zn73 O77 2.035 . S
Zn73 O79 2.035 . S
Zn73 O80 2.028 . S
O74 C70 1.258 . S
O74 Zn75 2.035 . S
Zn75 O74 2.035 . S
Zn75 O76 2.028 . S
Zn75 O78 2.028 . S
Zn75 O81 2.035 . S
O76 Zn75 2.028 . S
O76 C82 1.247 . S
O77 Zn73 2.035 . S
O77 C82 1.258 . S
O78 C71 1.247 . S
O78 Zn75 2.028 . S
O79 C71 1.258 . S
O79 Zn73 2.035 . S
O80 Zn73 2.028 . S
O80 C83 1.247 . S
O81 Zn75 2.035 . S
O81 C83 1.258 . S
C82 O76 1.247 . S
C82 O77 1.258 . S
C83 O80 1.247 . S
C83 O81 1.258 . S
H84 C92 0.950 . S
H85 C97 0.950 . S
H86 C94 0.950 . S
H87 C96 0.950 . S
H88 C98 0.950 . S
H89 C100 0.950 . S
H90 C102 0.950 . S
H91 C103 0.950 . S
C92 H84 0.950 . S
C92 C93 1.386 . S
C92 C94 1.391 . S
C93 C92 1.386 . S
C93 C97 1.393 . S
C94 H86 0.950 . S
C94 C92 1.391 . S
C94 C95 1.400 . S
C95 C94 1.400 . S
C95 C96 1.398 . S
C95 C101 1.491 1_455 S
C96 H87 0.950 . S
C96 C95 1.398 . S
C96 C97 1.391 . S
C97 H85 0.950 . S
C97 C93 1.393 . S
C97 C96 1.391 . S
C98 H88 0.950 . S
C98 C99 1.386 . S
C98 C100 1.391 . S
C99 C98 1.386 . S
C99 C103 1.393 . S
C100 H89 0.950 . S
C100 C98 1.391 . S
C100 C101 1.400 . S
C101 C95 1.491 1_655 S
C101 C100 1.400 . S
C101 C102 1.398 . S
C102 H90 0.950 . S
C102 C101 1.398 . S
C102 C103 1.391 . S
C103 H91 0.950 . S
C103 C99 1.393 . S
C103 C102 1.391 . S
H104 C112 0.950 . S
H105 C117 0.950 . S
H106 C114 0.950 . S
H107 C116 0.950 . S
H108 C118 0.950 . S
H109 C120 0.950 . S
H110 C122 0.950 . S
H111 C123 0.950 . S
C112 H104 0.950 . S
C112 C113 1.386 . S
C112 C114 1.391 . S
C113 C112 1.386 . S
C113 C117 1.393 . S
C114 H106 0.950 . S
C114 C112 1.391 . S
C114 C115 1.400 . S
C115 C114 1.400 . S
C115 C116 1.398 . S
C115 C121 1.491 1_566 S
C116 H107 0.950 . S
C116 C115 1.398 . S
C116 C117 1.391 . S
C117 H105 0.950 . S
C117 C113 1.393 . S
C117 C116 1.391 . S
C118 H108 0.950 . S
C118 C119 1.386 . S
C118 C120 1.391 . S
C119 C118 1.386 . S
C119 C123 1.393 . S
C120 H109 0.950 . S
C120 C118 1.391 . S
C120 C121 1.400 . S
C121 C115 1.491 1_544 S
C121 C120 1.400 . S
C121 C122 1.398 . S
C122 H110 0.950 . S
C122 C121 1.398 . S
C122 C123 1.391 . S
C123 H111 0.950 . S
C123 C119 1.393 . S
C123 C122 1.391 . S
H124 C132 0.950 . S
H125 C137 0.950 . S
H126 C134 0.950 . S
H127 C136 0.950 . S
H128 C138 0.950 . S
H129 C140 0.950 . S
H130 C142 0.950 . S
H131 C143 0.950 . S
C132 H124 0.950 . S
C132 C133 1.386 . S
C132 C134 1.391 . S
C133 C132 1.386 . S
C133 C137 1.393 . S
C134 H126 0.950 . S
C134 C132 1.391 . S
C134 C135 1.400 . S
C135 C134 1.400 . S
C135 C136 1.398 . S
C135 C141 1.491 . S
C136 H127 0.950 . S
C136 C135 1.398 . S
C136 C137 1.391 . S
C137 H125 0.950 . S
C137 C133 1.393 . S
C137 C136 1.391 . S
C138 H128 0.950 . S
C138 C139 1.386 . S
C138 C140 1.391 . S
C139 C138 1.386 . S
C139 C143 1.393 . S
C140 H129 0.950 . S
C140 C138 1.391 . S
C140 C141 1.400 . S
C141 C135 1.491 . S
C141 C140 1.400 . S
C141 C142 1.398 . S
C142 H130 0.950 . S
C142 C141 1.398 . S
C142 C143 1.391 . S
C143 H131 0.950 . S
C143 C139 1.393 . S
C143 C142 1.391 . S
H144 C152 0.950 . S
H145 C157 0.950 . S
H146 C154 0.950 1_455 S
H147 C156 0.950 . S
H148 C158 0.950 . S
H149 C160 0.950 1_655 S
H150 C162 0.950 . S
H151 C163 0.950 . S
C152 H144 0.950 . S
C152 C153 1.386 . S
C152 C154 1.391 . S
C153 C152 1.386 . S
C153 C157 1.393 . S
C154 H146 0.950 1_655 S
C154 C152 1.391 . S
C154 C155 1.400 . S
C155 C154 1.400 . S
C155 C156 1.398 . S
C155 C161 1.491 1_655 S
C156 H147 0.950 . S
C156 C155 1.398 . S
C156 C157 1.391 . S
C157 H145 0.950 . S
C157 C153 1.393 . S
C157 C156 1.391 . S
C158 H148 0.950 . S
C158 C159 1.386 . S
C158 C160 1.391 . S
C159 C158 1.386 . S
C159 C163 1.393 . S
C160 H149 0.950 1_455 S
C160 C158 1.391 . S
C160 C161 1.400 . S
C161 C155 1.491 1_455 S
C161 C160 1.400 . S
C161 C162 1.398 . S
C162 H150 0.950 . S
C162 C161 1.398 . S
C162 C163 1.391 . S
C163 H151 0.950 . S
C163 C159 1.393 . S
C163 C162 1.391 . S
H164 C172 0.950 . S
H165 C177 0.950 . S
H166 C174 0.950 . S
H167 C176 0.950 . S
H168 C178 0.950 . S
H169 C180 0.950 . S
H170 C182 0.950 . S
H171 C183 0.950 . S
C172 H164 0.950 . S
C172 C173 1.386 . S
C172 C174 1.391 . S
C173 C172 1.386 . S
C173 C177 1.393 . S
C174 H166 0.950 . S
C174 C172 1.391 . S
C174 C175 1.400 . S
C175 C174 1.400 . S
C175 C176 1.398 . S
C175 C181 1.491 1_545 S
C176 H167 0.950 . S
C176 C175 1.398 . S
C176 C177 1.391 . S
C177 H165 0.950 . S
C177 C173 1.393 . S
C177 C176 1.391 . S
C178 H168 0.950 . S
C178 C179 1.386 . S
C178 C180 1.391 . S
C179 C178 1.386 . S
C179 C183 1.393 . S
C180 H169 0.950 . S
C180 C178 1.391 . S
C180 C181 1.400 . S
C181 C175 1.491 1_565 S
C181 C180 1.400 . S
C181 C182 1.398 . S
C182 H170 0.950 . S
C182 C181 1.398 . S
C182 C183 1.391 . S
C183 H171 0.950 . S
C183 C179 1.393 . S
C183 C182 1.391 . S
H184 C192 0.950 . S
H185 C197 0.950 . S
H186 C194 0.950 . S
H187 C196 0.950 . S
H188 C198 0.950 . S
H189 C200 0.950 . S
H190 C202 0.950 . S
H191 C203 0.950 . S
C192 H184 0.950 . S
C192 C193 1.386 . S
C192 C194 1.391 . S
C193 C192 1.386 . S
C193 C197 1.393 . S
C194 H186 0.950 . S
C194 C192 1.391 . S
C194 C195 1.400 . S
C195 C194 1.400 . S
C195 C196 1.398 . S
C195 C201 1.491 . S
C196 H187 0.950 . S
C196 C195 1.398 . S
C196 C197 1.391 . S
C197 H185 0.950 . S
C197 C193 1.393 . S
C197 C196 1.391 . S
C198 H188 0.950 . S
C198 C199 1.386 . S
C198 C200 1.391 . S
C199 C198 1.386 . S
C199 C203 1.393 . S
C200 H189 0.950 . S
C200 C198 1.391 . S
C200 C201 1.400 . S
C201 C195 1.491 . S
C201 C200 1.400 . S
C201 C202 1.398 . S
C202 H190 0.950 . S
C202 C201 1.398 . S
C202 C203 1.391 . S
C203 H191 0.950 . S
C203 C199 1.393 . S
C203 C202 1.391 . S
H204 C212 0.950 . S
H205 C217 0.950 . S
H206 C214 0.950 . S
H207 C216 0.950 . S
H208 C218 0.950 . S
H209 C220 0.950 . S
H210 C222 0.950 . S
H211 C223 0.950 . S
C212 H204 0.950 . S
C212 C213 1.386 . S
C212 C214 1.391 . S
C213 C212 1.386 . S
C213 C217 1.393 . S
C214 H206 0.950 . S
C214 C212 1.391 . S
C214 C215 1.400 . S
C215 C214 1.400 . S
C215 C216 1.398 . S
C215 C221 1.491 . S
C216 H207 0.950 . S
C216 C215 1.398 . S
C216 C217 1.391 . S
C217 H205 0.950 . S
C217 C213 1.393 . S
C217 C216 1.391 . S
C218 H208 0.950 . S
C218 C219 1.386 . S
C218 C220 1.391 . S
C219 C218 1.386 . S
C219 C223 1.393 . S
C220 H209 0.950 . S
C220 C218 1.391 . S
C220 C221 1.400 . S
C221 C215 1.491 . S
C221 C220 1.400 . S
C221 C222 1.398 . S
C222 H210 0.950 . S
C222 C221 1.398 . S
C222 C223 1.391 . S
C223 H211 0.950 . S
C223 C219 1.393 . S
C223 C222 1.391 . S
H224 C232 0.950 . S
H225 C237 0.950 . S
H226 C234 0.950 . S
H227 C236 0.950 . S
H228 C238 0.950 . S
H229 C240 0.950 . S
H230 C242 0.950 . S
H231 C243 0.950 . S
C232 H224 0.950 . S
C232 C233 1.386 . S
C232 C234 1.391 . S
C233 C232 1.386 . S
C233 C237 1.393 . S
C234 H226 0.950 . S
C234 C232 1.391 . S
C234 C235 1.400 . S
C235 C234 1.400 . S
C235 C236 1.398 . S
C235 C241 1.491 . S
C236 H227 0.950 . S
C236 C235 1.398 . S
C236 C237 1.391 . S
C237 H225 0.950 . S
C237 C233 1.393 . S
C237 C236 1.391 . S
C238 H228 0.950 . S
C238 C239 1.386 . S
C238 C240 1.391 . S
C239 C238 1.386 . S
C239 C243 1.393 . S
C240 H229 0.950 . S
C240 C238 1.391 . S
C240 C241 1.400 . S
C241 C235 1.491 . S
C241 C240 1.400 . S
C241 C242 1.398 . S
C242 H230 0.950 . S
C242 C241 1.398 . S
C242 C243 1.391 . S
C243 H231 0.950 . S
C243 C239 1.393 . S
C243 C242 1.391 . S
H244 C252 0.950 . S
H245 C257 0.950 . S
H246 C254 0.950 . S
H247 C256 0.950 . S
H248 C258 0.950 . S
H249 C260 0.950 . S
H250 C262 0.950 . S
H251 C263 0.950 . S
C252 H244 0.950 . S
C252 C253 1.386 . S
C252 C254 1.391 . S
C253 C252 1.386 . S
C253 C257 1.393 . S
C254 H246 0.950 . S
C254 C252 1.391 . S
C254 C255 1.400 . S
C255 C254 1.400 . S
C255 C256 1.398 . S
C255 C261 1.491 . S
C256 H247 0.950 . S
C256 C255 1.398 . S
C256 C257 1.391 . S
C257 H245 0.950 . S
C257 C253 1.393 . S
C257 C256 1.391 . S
C258 H248 0.950 . S
C258 C259 1.386 . S
C258 C260 1.391 . S
C259 C258 1.386 . S
C259 C263 1.393 . S
C260 H249 0.950 . S
C260 C258 1.391 . S
C260 C261 1.400 . S
C261 C255 1.491 . S
C261 C260 1.400 . S
C261 C262 1.398 . S
C262 H250 0.950 . S
C262 C261 1.398 . S
C262 C263 1.391 . S
C263 H251 0.950 . S
C263 C259 1.393 . S
C263 C262 1.391 . S
H264 C272 0.950 . S
H265 C277 0.950 . S
H266 C274 0.950 . S
H267 C276 0.950 . S
H268 C278 0.950 . S
H269 C280 0.950 . S
H270 C282 0.950 . S
H271 C283 0.950 . S
C272 H264 0.950 . S
C272 C273 1.386 . S
C272 C274 1.391 . S
C273 C272 1.386 . S
C273 C277 1.393 . S
C274 H266 0.950 . S
C274 C272 1.391 . S
C274 C275 1.400 . S
C275 C274 1.400 . S
C275 C276 1.398 . S
C275 C281 1.491 . S
C276 H267 0.950 . S
C276 C275 1.398 . S
C276 C277 1.391 . S
C277 H265 0.950 . S
C277 C273 1.393 . S
C277 C276 1.391 . S
C278 H268 0.950 . S
C278 C279 1.386 . S
C278 C280 1.391 . S
C279 C278 1.386 . S
C279 C283 1.393 . S
C280 H269 0.950 . S
C280 C278 1.391 . S
C280 C281 1.400 . S
C281 C275 1.491 . S
C281 C280 1.400 . S
C281 C282 1.398 . S
C282 H270 0.950 . S
C282 C281 1.398 . S
C282 C283 1.391 . S
C283 H271 0.950 . S
C283 C279 1.393 . S
C283 C282 1.391 . S
H284 C292 0.950 . S
H285 C297 0.950 . S
H286 C294 0.950 . S
H287 C296 0.950 . S
H288 C298 0.950 . S
H289 C300 0.950 . S
H290 C302 0.950 . S
H291 C303 0.947 1_554 S
C292 H284 0.950 . S
C292 C293 1.386 . S
C292 C294 1.391 . S
C293 C292 1.386 . S
C293 C297 1.393 . S
C294 H286 0.950 . S
C294 C292 1.391 . S
C294 C295 1.400 . S
C295 C294 1.400 . S
C295 C296 1.398 . S
C295 C301 1.491 . S
C296 H287 0.950 . S
C296 C295 1.398 . S
C296 C297 1.391 . S
C297 H285 0.950 . S
C297 C293 1.393 . S
C297 C296 1.391 . S
C298 H288 0.950 . S
C298 C299 1.386 . S
C298 C300 1.391 . S
C299 C298 1.386 . S
C299 C303 1.393 . S
C300 H289 0.950 . S
C300 C298 1.391 . S
C300 C301 1.400 . S
C301 C295 1.491 . S
C301 C300 1.400 . S
C301 C302 1.398 . S
C302 H290 0.950 . S
C302 C301 1.398 . S
C302 C303 1.391 . S
C303 H291 0.947 1_556 S
C303 C299 1.393 . S
C303 C302 1.391 . S
H304 C312 0.950 . S
H305 C317 0.950 1_556 S
H306 C314 0.950 . S
H307 C316 0.950 . S
H308 C318 0.950 . S
H309 C320 0.950 . S
H310 C322 0.950 . S
H311 C323 0.950 . S
C312 H304 0.950 . S
C312 C313 1.386 . S
C312 C314 1.391 . S
C313 C312 1.386 . S
C313 C317 1.393 . S
C314 H306 0.950 . S
C314 C312 1.391 . S
C314 C315 1.400 . S
C315 C314 1.400 . S
C315 C316 1.398 . S
C315 C321 1.491 . S
C316 H307 0.950 . S
C316 C315 1.398 . S
C316 C317 1.391 . S
C317 H305 0.950 1_554 S
C317 C313 1.393 . S
C317 C316 1.391 . S
C318 H308 0.950 . S
C318 C319 1.386 . S
C318 C320 1.391 . S
C319 C318 1.386 . S
C319 C323 1.393 . S
C320 H309 0.950 . S
C320 C318 1.391 . S
C320 C321 1.400 . S
C321 C315 1.491 . S
C321 C320 1.400 . S
C321 C322 1.398 . S
C322 H310 0.950 . S
C322 C321 1.398 . S
C322 C323 1.391 . S
C323 H311 0.950 . S
C323 C319 1.393 . S
C323 C322 1.391 . S
C93 C13 1.822 1_556 S
C99 C54 1.820 . S
C113 C68 1.831 . S
C119 C26 1.829 . S
C133 C28 1.831 . S
C139 C83 1.829 1_554 S
C153 C43 1.827 . S
C159 C0 1.819 . S
C173 C15 1.832 . S
C179 C57 1.830 . S
C193 C70 1.827 . S
C199 C41 1.821 . S
C213 C12 1.614 . S
C219 C40 1.610 . S
C233 C27 1.623 . S
C239 C55 1.623 . S
C253 C69 1.612 . S
C259 C29 1.621 . S
C273 C82 1.610 . S
C279 C42 1.618 . S
C293 C56 1.619 . S
C299 C1 1.625 1_556 S
C313 C71 1.620 1_554 S
C319 C14 1.624 . S
