# Generated by pormake.
# Topology sxc, (6)-cn, num edge types: 1
# Building blocks:
#     Node 0, Type 0, BuildingBlock: BETDEL_clean_sbu_0, # of connection points: 6
#     Node 1, Type 0, BuildingBlock: BETDEL_clean_sbu_0, # of connection points: 6
#     Node 2, Type 0, BuildingBlock: BETDEL_clean_sbu_0, # of connection points: 6
#     Edge 3, Type (0, 0), BuildingBlock: FUNLAD_clean_linker_0, # of connection points: 2
#     Edge 4, Type (0, 0), BuildingBlock: FUNLAD_clean_linker_0, # of connection points: 2
#     Edge 5, Type (0, 0), BuildingBlock: FUNLAD_clean_linker_0, # of connection points: 2
#     Edge 6, Type (0, 0), BuildingBlock: FUNLAD_clean_linker_0, # of connection points: 2
#     Edge 7, Type (0, 0), BuildingBlock: FUNLAD_clean_linker_0, # of connection points: 2
#     Edge 8, Type (0, 0), BuildingBlock: FUNLAD_clean_linker_0, # of connection points: 2
#     Edge 9, Type (0, 0), BuildingBlock: FUNLAD_clean_linker_0, # of connection points: 2
#     Edge 10, Type (0, 0), BuildingBlock: FUNLAD_clean_linker_0, # of connection points: 2
#     Edge 11, Type (0, 0), BuildingBlock: FUNLAD_clean_linker_0, # of connection points: 2
# Relax obj value: 0.035
# Max RMSD: 0.044
# Mean RMSD: 0.034
data_MOF--net-sxc--node1-BETDEL_clean_sbu_0--edge1-FUNLAD_clean_linker_0
_symmetry_space_group_name_H-M    P1
_symmetry_Int_Tables_number       1
_symmetry_cell_setting            triclinic
loop_
_symmetry_equiv_pos_as_xyz
'x, y, z'
_cell_length_a     18.572785
_cell_length_b     18.094179
_cell_length_c     51.220815
_cell_angle_alpha  90.896716
_cell_angle_beta   94.137902
_cell_angle_gamma 114.59276
loop_
_atom_site_label
_atom_site_type_symbol
_atom_site_fract_x
_atom_site_fract_y
_atom_site_fract_z
_atom_type_partial_charge
Dy0 Dy 0.14397 0.0623 0.00394 0.0
C1 C 0.81839 0.86811 0.00936 0.0
C2 C 0.29434 0.17292 0.9964 0.0
Dy3 Dy 0.96933 0.97813 1.00224 0.0
O4 O 0.27511 0.12641 0.01611 0.0
O5 O 0.23192 0.15606 0.98023 0.0
O6 O 0.15642 0.02411 0.04473 0.0
O7 O 0.05896 0.04989 0.03318 0.0
C8 C 0.09031 0.02391 0.0514 0.0
C9 C 1.02308 0.01816 0.95488 0.0
O10 O 0.97768 0.10276 0.01178 0.0
O11 O 0.10631 0.16523 1.00002 0.0
O12 O 0.83873 0.91338 0.98941 0.0
O13 O 0.88003 0.88579 0.02597 0.0
O14 O 0.9584 0.02015 0.96209 0.0
O15 O 0.05404 0.9904 0.97274 0.0
O16 O 0.13578 0.93767 0.99463 0.0
O17 O 1.00694 0.87521 0.00618 0.0
C18 C 0.03972 0.16893 0.00609 0.0
C19 C 0.07362 0.87154 1.00023 0.0
Dy20 Dy 0.9593 0.01363 0.33883 0.0
C21 C 0.27737 0.14789 0.31654 0.0
C22 C 0.80917 0.96275 0.35379 0.0
Dy23 Dy 0.12851 0.09937 0.3324 0.0
O24 O 0.82891 0.93317 0.33372 0.0
O25 O 0.87208 0.01941 0.36593 0.0
O26 O 0.93661 0.95604 0.29811 0.0
O27 O 1.02466 0.07446 0.30562 0.0
C28 C 0.99341 0.01655 0.28863 0.0
C29 C 0.09615 0.09946 0.38268 0.0
O30 O 0.0961 0.20236 0.32336 0.0
O31 O 0.97644 0.14469 0.3417 0.0
O32 O 0.25933 0.17816 0.33685 0.0
O33 O 0.21344 0.09204 0.30463 0.0
O34 O 0.15255 0.15861 0.3725 0.0
O35 O 0.06364 0.0399 0.36616 0.0
O36 O 0.9915 0.91077 0.34815 0.0
O37 O 0.11124 0.96823 0.32991 0.0
C38 C 0.03387 0.20844 0.33248 0.0
C39 C 0.05383 0.90464 0.33918 0.0
Dy40 Dy 1.00679 0.94754 0.66807 0.0
C41 C 0.19106 0.28242 0.66251 0.0
C42 C 0.89513 0.79223 0.67471 0.0
Dy43 Dy 0.07972 0.12679 0.66893 0.0
O44 O 0.93632 0.81547 0.65457 0.0
O45 O 0.91987 0.85249 0.6921 0.0
O46 O 0.0466 0.94205 0.62841 0.0
O47 O 1.01113 0.03488 0.63798 0.0
C48 C 0.03941 1.00669 0.62062 0.0
C49 C 0.04438 0.0674 0.71607 0.0
O50 O 0.95304 0.11457 0.6605 0.0
O51 O 0.90123 0.97957 0.67073 0.0
O52 O 0.15064 0.25842 0.68279 0.0
O53 O 0.16575 0.22273 0.6449 0.0
O54 O 0.03772 0.13215 0.70814 0.0
O55 O 0.07434 0.03945 0.69918 0.0
O56 O 0.13345 0.95975 0.67642 0.0
O57 O 0.18523 0.09477 0.66627 0.0
C58 C 0.89106 0.04646 0.66547 0.0
C59 C 0.19542 0.02791 0.67151 0.0
C60 C 0.10519 0.32005 1.00224 0.0
C61 C 0.03708 0.24992 0.00685 0.0
C62 C 0.1041 0.39682 1.00271 0.0
C63 C 0.03444 0.4057 0.00759 0.0
C64 C 0.9666 0.33569 0.01249 0.0
C65 C 0.96774 0.25866 0.01207 0.0
C66 C 0.03064 0.48661 0.00853 0.0
C67 C 0.08278 0.55391 0.99789 0.0
C68 C 0.07896 0.63481 0.99883 0.0
C69 C 0.14683 0.70483 0.99395 0.0
C70 C 0.14567 0.78184 0.99435 0.0
C71 C 0.07628 0.79056 0.99951 0.0
H72 H 0.95468 0.59174 0.00664 0.0
C73 C 1.00814 0.72042 0.00409 0.0
C74 C 1.00925 0.64366 1.00365 0.0
H75 H 0.95321 0.72443 0.00789 0.0
H76 H 0.16008 0.31603 0.9984 0.0
H77 H 0.15865 0.44872 0.99969 0.0
H78 H 0.9122 0.34049 0.01654 0.0
H79 H 0.91429 0.20611 0.01578 0.0
H80 H 0.98216 0.48977 0.01836 0.0
H81 H 0.13127 0.55077 0.98806 0.0
H82 H 0.20127 0.70004 0.98994 0.0
H83 H 0.19915 0.8344 0.99067 0.0
C84 C 0.36541 0.09219 0.29858 0.0
C85 C 0.35699 0.15248 0.31394 0.0
C86 C 0.43189 0.07577 0.3034 0.0
C87 C 0.49067 0.12018 0.32342 0.0
C88 C 0.48756 0.18787 0.33605 0.0
C89 C 0.42057 0.20372 0.33146 0.0
C90 C 0.551 0.09232 0.33326 0.0
C91 C 0.53303 0.01284 0.33592 0.0
C92 C 0.5935 0.98548 0.346 0.0
C93 C 0.59872 0.9192 0.33317 0.0
C94 C 0.66647 0.90479 0.33803 0.0
C95 C 0.72867 0.9561 0.356 0.0
H96 H 0.64605 0.07896 0.37736 0.0
C97 C 0.71798 0.01465 0.37152 0.0
C98 C 0.65074 0.02959 0.36646 0.0
H99 H 0.76475 0.05417 0.38578 0.0
H100 H 0.3175 0.05261 0.28467 0.0
H101 H 0.43487 0.02527 0.29262 0.0
H102 H 0.53341 0.22389 0.35114 0.0
H103 H 0.41554 0.25118 0.34332 0.0
H104 H 0.60961 0.13826 0.34011 0.0
H105 H 0.47452 0.96674 0.32906 0.0
H106 H 0.55406 0.88341 0.31774 0.0
H107 H 0.67323 0.8586 0.32604 0.0
C108 C 0.76397 0.71407 0.693 0.0
C109 C 0.8174 0.72016 0.67416 0.0
C110 C 0.68546 0.65406 0.69003 0.0
C111 C 0.65844 0.59855 0.66806 0.0
C112 C 0.71329 0.60251 0.64996 0.0
C113 C 0.79151 0.66282 0.65284 0.0
C114 C 0.57444 0.53535 0.66333 0.0
C115 C 0.51138 0.53994 0.67377 0.0
C116 C 0.42743 0.47664 0.66906 0.0
C117 C 0.37276 0.47221 0.68728 0.0
C118 C 0.29463 0.41172 0.68444 0.0
C119 C 0.26863 0.35468 0.66304 0.0
H120 H 0.43919 0.42405 0.63199 0.0
C121 C 0.32184 0.3613 0.64407 0.0
C122 C 0.40028 0.42147 0.64701 0.0
H123 H 0.30376 0.31808 0.62739 0.0
H124 H 0.78196 0.75754 0.70961 0.0
H125 H 0.64644 0.65189 0.70496 0.0
H126 H 0.69492 0.56022 0.63302 0.0
H127 H 0.831 0.66608 0.6379 0.0
H128 H 0.56465 0.48379 0.6502 0.0
H129 H 0.52112 0.59145 0.68691 0.0
H130 H 0.39123 0.51425 0.70429 0.0
H131 H 0.25531 0.40807 0.69948 0.0
C132 C 0.7877 0.1083 0.66246 0.0
C133 C 0.80708 0.04108 0.66567 0.0
C134 C 0.70829 0.09999 0.66353 0.0
C135 C 0.64542 0.02393 0.66783 0.0
C136 C 0.6655 0.95741 0.67084 0.0
C137 C 0.74397 0.96564 0.66982 0.0
C138 C 0.55851 0.00895 0.66939 0.0
C139 C 0.52805 0.06562 0.66765 0.0
C140 C 0.44114 0.05061 0.66921 0.0
C141 C 0.42107 0.11718 0.6663 0.0
C142 C 0.34258 0.10889 0.66731 0.0
C143 C 0.27943 0.03336 0.67135 0.0
H144 H 0.38954 0.92093 0.67586 0.0
C145 C 0.2988 0.96611 0.67446 0.0
C146 C 0.37823 0.97447 0.6734 0.0
H147 H 0.25255 0.90681 0.67756 0.0
H148 H 0.83393 0.16754 0.65928 0.0
H149 H 0.69697 0.15349 0.661 0.0
H150 H 0.6199 0.89783 0.67413 0.0
H151 H 0.75486 0.91177 0.67241 0.0
H152 H 0.51761 0.94671 0.67222 0.0
H153 H 0.56896 0.12787 0.66482 0.0
H154 H 0.46669 0.17681 0.66309 0.0
H155 H 0.3317 0.1628 0.66479 0.0
C156 C 0.73728 0.73577 0.02819 0.0
C157 C 0.74411 0.79369 0.00948 0.0
C158 C 0.67414 0.65852 0.02546 0.0
C159 C 0.61663 0.63789 0.00393 0.0
C160 C 0.62076 0.6978 0.98626 0.0
C161 C 0.68426 0.77483 0.98888 0.0
C162 C 0.55211 0.55467 0.99915 0.0
C163 C 0.55981 0.48706 0.00673 0.0
C164 C 0.49541 0.40376 1.00191 0.0
C165 C 0.49194 0.34355 0.01938 0.0
C166 C 0.4287 0.26635 0.01672 0.0
C167 C 0.36837 0.24763 0.99628 0.0
H168 H 0.43978 0.42694 0.96604 0.0
C169 C 0.37449 0.30592 0.97777 0.0
C170 C 0.43742 0.38329 0.98052 0.0
H171 H 0.32889 0.29294 0.96175 0.0
H172 H 0.78252 0.74887 0.04433 0.0
H173 H 0.67123 0.61505 0.04008 0.0
H174 H 0.57655 0.68392 0.96975 0.0
H175 H 0.68813 0.81844 0.97418 0.0
H176 H 0.49764 0.5493 0.98827 0.0
H177 H 0.61433 0.49251 0.0176 0.0
H178 H 0.53652 0.35729 0.03577 0.0
H179 H 0.42539 0.22248 0.03127 0.0
C180 C 0.09021 0.35754 0.32409 0.0
C181 C 0.02815 0.28785 0.33239 0.0
C182 C 0.08606 0.43303 0.32485 0.0
C183 C 1.01972 0.44069 0.33409 0.0
C184 C 0.95707 0.37062 0.34184 0.0
C185 C 0.9613 0.29522 0.34114 0.0
C186 C 1.01242 0.51969 0.33534 0.0
C187 C 0.07498 0.5932 0.33648 0.0
C188 C 0.06774 0.67224 0.33772 0.0
C189 C 0.13055 0.74228 0.33003 0.0
C190 C 0.12641 0.81773 0.3307 0.0
C191 C 0.0595 0.82519 0.33936 0.0
H192 H 0.9527 0.62841 0.35383 0.0
C193 C 0.99728 0.75551 0.3476 0.0
C194 C 1.00133 0.67996 0.34686 0.0
H195 H 0.94505 0.75906 0.35456 0.0
H196 H 0.14236 0.35402 0.31705 0.0
H197 H 0.13455 0.48459 0.31783 0.0
H198 H 0.90485 0.37433 0.34878 0.0
H199 H 0.91219 0.24283 0.34759 0.0
H200 H 0.9528 0.51631 0.33569 0.0
H201 H 0.1346 0.59654 0.33615 0.0
H202 H 0.18282 0.73853 0.32316 0.0
H203 H 0.17563 0.87009 0.32429 0.0
C204 C 0.96027 0.96073 0.24212 0.0
C205 C 1.01004 0.02179 0.26074 0.0
C206 C 0.97585 0.96549 0.2157 0.0
C207 C 0.04205 0.03123 0.2074 0.0
C208 C 0.09228 0.09165 0.22614 0.0
C209 C 0.07603 0.08748 0.25248 0.0
C210 C 0.06269 0.03637 0.17972 0.0
C211 C 1.00827 1.00513 0.15896 0.0
C212 C 0.03008 0.00977 0.13142 0.0
C213 C 0.97698 0.01354 0.11103 0.0
C214 C 0.99618 0.01799 0.08496 0.0
C215 C 0.06823 0.01706 0.07873 0.0
H216 H 0.14298 1.00233 0.14013 0.0
C217 C 0.12035 0.01105 0.09902 0.0
C218 C 0.1017 1.00774 0.12507 0.0
H219 H 0.17609 0.0096 0.09481 0.0
H220 H 0.90923 0.90912 0.24796 0.0
H221 H 0.93704 0.91664 0.20198 0.0
H222 H 0.14411 0.14252 0.22035 0.0
H223 H 0.11557 0.13527 0.26642 0.0
H224 H 0.12483 0.0702 0.17635 0.0
H225 H 0.94544 0.97854 0.16205 0.0
H226 H 0.92098 0.01422 0.11533 0.0
H227 H 0.9547 0.02214 0.06969 0.0
C228 C 1.02444 0.03592 0.42206 0.0
C229 C 0.09122 0.09402 0.41135 0.0
C230 C 1.02222 0.0312 0.44938 0.0
C231 C 0.08758 0.08341 0.46629 0.0
C232 C 0.154 0.14108 0.45546 0.0
C233 C 0.15534 0.14724 0.42836 0.0
C234 C 0.09144 0.07526 0.4951 0.0
C235 C 0.02916 0.05904 0.50948 0.0
C236 C 0.03561 0.05018 0.5383 0.0
C237 C 0.99245 0.07674 0.55463 0.0
C238 C 0.99613 0.06622 0.58172 0.0
C239 C 0.04136 0.02688 0.59276 0.0
H240 H 0.11479 0.98962 0.53753 0.0
C241 C 0.0846 1.00062 0.57645 0.0
C242 C 0.08214 0.01244 0.54957 0.0
H243 H 0.11959 0.96969 0.58443 0.0
H244 H 0.97427 0.99416 0.40936 0.0
H245 H 0.97074 0.98508 0.4572 0.0
H246 H 0.20529 0.18151 0.46804 0.0
H247 H 0.20776 0.19254 0.42072 0.0
H248 H 0.14928 0.08731 0.50499 0.0
H249 H 0.97322 0.05525 0.50013 0.0
H250 H 0.95581 0.10556 0.54641 0.0
H251 H 0.96162 0.08635 0.59383 0.0
C252 C 0.0806 0.01061 0.75713 0.0
C253 C 0.03263 0.04244 0.7433 0.0
C254 C 0.07434 0.99795 0.78407 0.0
C255 C 1.01885 0.01555 0.79729 0.0
C256 C 0.96866 0.04345 0.78293 0.0
C257 C 0.97614 0.05772 0.7564 0.0
C258 C 1.01055 1.00687 0.8259 0.0
C259 C 0.06997 0.01537 0.84418 0.0
C260 C 0.0607 0.01922 0.87283 0.0
C261 C 0.10479 0.99302 0.89091 0.0
C262 C 0.09478 0.99443 0.91783 0.0
C263 C 0.04089 0.02274 0.92709 0.0
H264 H 0.97769 0.07579 0.86947 0.0
C265 C 0.99974 0.05235 0.90916 0.0
C266 C 1.00977 0.0511 0.88246 0.0
H267 H 0.9589 0.07596 0.91575 0.0
H268 H 0.12475 0.99852 0.7474 0.0
H269 H 0.1128 0.97468 0.79441 0.0
H270 H 0.92498 0.05689 0.79249 0.0
H271 H 0.93822 0.08195 0.74615 0.0
H272 H 0.95337 0.9989 0.83228 0.0
H273 H 0.127 0.02141 0.83822 0.0
H274 H 0.14565 0.96972 0.88414 0.0
H275 H 0.1277 0.97172 0.93127 0.0
loop_
_geom_bond_atom_site_label_1
_geom_bond_atom_site_label_2
_geom_bond_distance
_geom_bond_site_symmetry_2
_ccdc_geom_bond_type
Dy0 O4 2.398 . S
Dy0 O5 2.491 1_554 S
Dy0 O6 2.403 . S
Dy0 O7 2.664 1_545 S
Dy0 O11 2.326 . S
Dy0 O15 2.310 1_554 S
Dy0 O16 2.351 1_545 S
C1 O12 1.200 . S
C1 O13 1.342 1_556 S
C2 O4 1.185 . S
C2 O5 1.355 1_554 S
Dy3 O7 2.310 1_656 S
Dy3 O10 2.351 1_565 S
Dy3 O12 2.398 . S
Dy3 O13 2.491 1_556 S
Dy3 O14 2.403 . S
Dy3 O15 2.664 1_665 S
Dy3 O17 2.326 . S
O4 Dy0 2.398 . S
O4 C2 1.185 . S
O5 Dy0 2.491 1_556 S
O5 C2 1.355 1_556 S
O6 Dy0 2.403 . S
O6 C8 1.254 . S
O7 Dy0 2.664 1_565 S
O7 Dy3 2.310 1_454 S
O7 C8 1.268 1_565 S
C8 O6 1.254 . S
C8 O7 1.268 1_545 S
C9 O14 1.254 1_445 S
C9 O15 1.268 . S
O10 Dy3 2.351 1_545 S
O10 C18 1.249 1_656 S
O11 Dy0 2.326 . S
O11 C18 1.267 . S
O12 C1 1.200 . S
O12 Dy3 2.398 . S
O13 C1 1.342 1_554 S
O13 Dy3 2.491 1_554 S
O14 Dy3 2.403 . S
O14 C9 1.254 1_665 S
O15 Dy0 2.310 1_556 S
O15 Dy3 2.664 1_445 S
O15 C9 1.268 . S
O16 Dy0 2.351 1_565 S
O16 C19 1.245 1_554 S
O17 Dy3 2.326 . S
O17 C19 1.278 1_655 S
C18 O10 1.249 1_454 S
C18 O11 1.267 . S
C19 O16 1.245 1_556 S
C19 O17 1.278 1_455 S
Dy20 O24 2.398 . S
Dy20 O25 2.491 1_565 S
Dy20 O26 2.403 . S
Dy20 O27 2.664 1_665 S
Dy20 O31 2.326 1_565 S
Dy20 O35 2.310 1_565 S
Dy20 O36 2.351 . S
C21 O32 1.185 . S
C21 O33 1.355 . S
C22 O24 1.185 1_545 S
C22 O25 1.355 . S
Dy23 O27 2.310 . S
Dy23 O30 2.351 . S
Dy23 O32 2.398 . S
Dy23 O33 2.491 . S
Dy23 O34 2.403 . S
Dy23 O35 2.664 1_455 S
Dy23 O37 2.326 1_545 S
O24 Dy20 2.398 . S
O24 C22 1.185 1_565 S
O25 Dy20 2.491 1_545 S
O25 C22 1.355 . S
O26 Dy20 2.403 . S
O26 C28 1.254 1_565 S
O27 Dy20 2.664 1_445 S
O27 Dy23 2.310 . S
O27 C28 1.268 1_455 S
C28 O26 1.254 1_545 S
C28 O27 1.268 1_655 S
C29 O34 1.254 . S
C29 O35 1.268 1_455 S
O30 Dy23 2.351 . S
O30 C38 1.249 . S
O31 Dy20 2.326 1_545 S
O31 C38 1.267 1_655 S
O32 C21 1.185 . S
O32 Dy23 2.398 . S
O33 C21 1.355 . S
O33 Dy23 2.491 . S
O34 Dy23 2.403 . S
O34 C29 1.254 . S
O35 Dy20 2.310 1_545 S
O35 Dy23 2.664 1_655 S
O35 C29 1.268 1_655 S
O36 Dy20 2.351 . S
O36 C39 1.249 1_655 S
O37 Dy23 2.326 1_565 S
O37 C39 1.267 . S
C38 O30 1.249 . S
C38 O31 1.267 1_455 S
C39 O36 1.249 1_455 S
C39 O37 1.267 . S
Dy40 O44 2.398 . S
Dy40 O45 2.491 . S
Dy40 O46 2.403 . S
Dy40 O47 2.664 1_665 S
Dy40 O51 2.326 . S
Dy40 O55 2.310 1_565 S
Dy40 O56 2.351 1_655 S
C41 O52 1.185 . S
C41 O53 1.355 . S
C42 O44 1.185 . S
C42 O45 1.355 . S
Dy43 O47 2.310 . S
Dy43 O50 2.351 1_455 S
Dy43 O52 2.398 . S
Dy43 O53 2.491 . S
Dy43 O54 2.403 . S
Dy43 O55 2.664 1_455 S
Dy43 O57 2.326 . S
O44 Dy40 2.398 . S
O44 C42 1.185 . S
O45 Dy40 2.491 . S
O45 C42 1.355 . S
O46 Dy40 2.403 . S
O46 C48 1.254 1_665 S
O47 Dy40 2.664 1_445 S
O47 Dy43 2.310 . S
O47 C48 1.268 . S
C48 O46 1.254 1_445 S
C48 O47 1.268 . S
C49 O54 1.254 . S
C49 O55 1.268 1_455 S
O50 Dy43 2.351 1_655 S
O50 C58 1.249 . S
O51 Dy40 2.326 . S
O51 C58 1.267 1_565 S
O52 C41 1.185 . S
O52 Dy43 2.398 . S
O53 C41 1.355 . S
O53 Dy43 2.491 . S
O54 Dy43 2.403 . S
O54 C49 1.254 . S
O55 Dy40 2.310 1_545 S
O55 Dy43 2.664 1_655 S
O55 C49 1.268 1_655 S
O56 Dy40 2.351 1_455 S
O56 C59 1.249 1_565 S
O57 Dy43 2.326 . S
O57 C59 1.267 . S
C58 O50 1.249 . S
C58 O51 1.267 1_545 S
C59 O56 1.249 1_545 S
C59 O57 1.267 . S
C60 C61 1.386 1_554 S
C60 C62 1.383 . S
C60 H76 0.951 . S
C61 C60 1.386 1_556 S
C61 C65 1.383 1_455 S
C62 C60 1.383 . S
C62 C63 1.402 1_554 S
C62 H77 0.951 . S
C63 C62 1.402 1_556 S
C63 C64 1.375 1_455 S
C63 C66 1.487 . S
C64 C63 1.375 1_655 S
C64 C65 1.367 . S
C64 H78 0.951 . S
C65 C61 1.383 1_655 S
C65 C64 1.367 . S
C65 H79 0.950 . S
C66 C63 1.487 . S
C66 C67 1.302 . S
C66 H80 0.938 1_455 S
C67 C66 1.302 . S
C67 C68 1.479 . S
C67 H81 0.950 . S
C68 C67 1.479 . S
C68 C69 1.375 1_556 S
C68 C74 1.404 1_455 S
C69 C68 1.375 1_554 S
C69 C70 1.369 . S
C69 H82 0.950 . S
C70 C69 1.369 . S
C70 C71 1.382 1_554 S
C70 H83 0.951 . S
C71 C70 1.382 1_556 S
C71 C73 1.402 1_455 S
H72 C74 0.949 . S
C73 C71 1.402 1_655 S
C73 C74 1.385 . S
C73 H75 0.950 . S
C74 C68 1.404 1_655 S
C74 H72 0.949 . S
C74 C73 1.385 . S
H75 C73 0.950 . S
H76 C60 0.951 . S
H77 C62 0.951 . S
H78 C64 0.951 . S
H79 C65 0.950 . S
H80 C66 0.938 1_655 S
H81 C67 0.950 . S
H82 C69 0.950 . S
H83 C70 0.951 . S
C84 C85 1.386 1_565 S
C84 C86 1.383 . S
C84 H100 0.951 . S
C85 C84 1.386 1_545 S
C85 C89 1.383 . S
C86 C84 1.383 . S
C86 C87 1.402 1_565 S
C86 H101 0.951 . S
C87 C86 1.402 1_545 S
C87 C88 1.375 . S
C87 C90 1.481 . S
C88 C87 1.375 . S
C88 C89 1.367 . S
C88 H102 0.951 . S
C89 C85 1.383 . S
C89 C88 1.367 . S
C89 H103 0.950 . S
C90 C87 1.481 . S
C90 C91 1.297 1_545 S
C90 H104 0.950 . S
C91 C90 1.297 1_565 S
C91 C92 1.479 1_565 S
C91 H105 0.950 . S
C92 C91 1.479 1_545 S
C92 C93 1.375 1_545 S
C92 C98 1.404 . S
C93 C92 1.375 1_565 S
C93 C94 1.369 . S
C93 H106 0.950 . S
C94 C93 1.369 . S
C94 C95 1.392 1_565 S
C94 H107 0.951 . S
C95 C94 1.392 1_545 S
C95 C97 1.384 . S
H96 C98 0.949 . S
C97 C95 1.384 . S
C97 C98 1.385 . S
C97 H99 0.950 . S
C98 C92 1.404 . S
C98 H96 0.949 . S
C98 C97 1.385 . S
H99 C97 0.950 . S
H100 C84 0.951 . S
H101 C86 0.951 . S
H102 C88 0.951 . S
H103 C89 0.950 . S
H104 C90 0.950 . S
H105 C91 0.950 . S
H106 C93 0.950 . S
H107 C94 0.951 . S
C108 C109 1.386 . S
C108 C110 1.383 . S
C108 H124 0.951 . S
C109 C108 1.386 . S
C109 C113 1.383 . S
C110 C108 1.383 . S
C110 C111 1.402 . S
C110 H125 0.951 . S
C111 C110 1.402 . S
C111 C112 1.375 . S
C111 C114 1.481 . S
C112 C111 1.375 . S
C112 C113 1.367 . S
C112 H126 0.951 . S
C113 C109 1.383 . S
C113 C112 1.367 . S
C113 H127 0.950 . S
C114 C111 1.481 . S
C114 C115 1.297 . S
C114 H128 0.950 . S
C115 C114 1.297 . S
C115 C116 1.479 . S
C115 H129 0.950 . S
C116 C115 1.479 . S
C116 C117 1.375 . S
C116 C122 1.404 . S
C117 C116 1.375 . S
C117 C118 1.369 . S
C117 H130 0.950 . S
C118 C117 1.369 . S
C118 C119 1.392 . S
C118 H131 0.951 . S
C119 C118 1.392 . S
C119 C121 1.384 . S
H120 C122 0.949 . S
C121 C119 1.384 . S
C121 C122 1.385 . S
C121 H123 0.950 . S
C122 C116 1.404 . S
C122 H120 0.949 . S
C122 C121 1.385 . S
H123 C121 0.950 . S
H124 C108 0.951 . S
H125 C110 0.951 . S
H126 C112 0.951 . S
H127 C113 0.950 . S
H128 C114 0.950 . S
H129 C115 0.950 . S
H130 C117 0.950 . S
H131 C118 0.951 . S
C132 C133 1.386 . S
C132 C134 1.383 . S
C132 H148 0.951 . S
C133 C132 1.386 . S
C133 C137 1.383 . S
C134 C132 1.383 . S
C134 C135 1.402 . S
C134 H149 0.951 . S
C135 C134 1.402 . S
C135 C136 1.375 1_545 S
C135 C138 1.481 . S
C136 C135 1.375 1_565 S
C136 C137 1.367 1_565 S
C136 H150 0.951 . S
C137 C133 1.383 . S
C137 C136 1.367 1_545 S
C137 H151 0.950 1_545 S
C138 C135 1.481 . S
C138 C139 1.297 . S
C138 H152 0.950 1_545 S
C139 C138 1.297 . S
C139 C140 1.479 . S
C139 H153 0.950 . S
C140 C139 1.479 . S
C140 C141 1.375 . S
C140 C146 1.404 1_545 S
C141 C140 1.375 . S
C141 C142 1.369 . S
C141 H154 0.950 . S
C142 C141 1.369 . S
C142 C143 1.392 . S
C142 H155 0.951 . S
C143 C142 1.392 . S
C143 C145 1.384 1_545 S
H144 C146 0.949 . S
C145 C143 1.384 1_565 S
C145 C146 1.385 . S
C145 H147 0.950 . S
C146 C140 1.404 1_565 S
C146 H144 0.949 . S
C146 C145 1.385 . S
H147 C145 0.950 . S
H148 C132 0.951 . S
H149 C134 0.951 . S
H150 C136 0.951 . S
H151 C137 0.950 1_565 S
H152 C138 0.950 1_565 S
H153 C139 0.950 . S
H154 C141 0.950 . S
H155 C142 0.951 . S
C156 C157 1.386 1_554 S
C156 C158 1.383 . S
C156 H172 0.951 . S
C157 C156 1.386 1_556 S
C157 C161 1.383 . S
C158 C156 1.383 . S
C158 C159 1.402 1_554 S
C158 H173 0.951 . S
C159 C158 1.402 1_556 S
C159 C160 1.375 . S
C159 C162 1.481 . S
C160 C159 1.375 . S
C160 C161 1.367 . S
C160 H174 0.951 . S
C161 C157 1.383 . S
C161 C160 1.367 . S
C161 H175 0.950 . S
C162 C159 1.481 . S
C162 C163 1.292 1_556 S
C162 H176 0.950 . S
C163 C162 1.292 1_554 S
C163 C164 1.480 1_554 S
C163 H177 0.956 . S
C164 C163 1.480 1_556 S
C164 C165 1.375 1_556 S
C164 C170 1.404 . S
C165 C164 1.375 1_554 S
C165 C166 1.369 . S
C165 H178 0.950 . S
C166 C165 1.369 . S
C166 C167 1.400 . S
C166 H179 0.951 . S
C167 C166 1.400 . S
C167 C169 1.375 1_554 S
H168 C170 0.949 . S
C169 C167 1.375 1_556 S
C169 C170 1.385 . S
C169 H171 0.950 . S
C170 C164 1.404 . S
C170 H168 0.949 . S
C170 C169 1.385 . S
H171 C169 0.950 . S
H172 C156 0.951 . S
H173 C158 0.951 . S
H174 C160 0.951 . S
H175 C161 0.950 . S
H176 C162 0.950 . S
H177 C163 0.956 . S
H178 C165 0.950 . S
H179 C166 0.951 . S
C180 C181 1.388 . S
C180 C182 1.383 . S
C180 H196 0.951 . S
C181 C180 1.388 . S
C181 C185 1.378 1_455 S
C182 C180 1.383 . S
C182 C183 1.402 1_455 S
C182 H197 0.951 . S
C183 C182 1.402 1_655 S
C183 C184 1.375 . S
C183 C186 1.481 . S
C184 C183 1.375 . S
C184 C185 1.367 . S
C184 H198 0.951 . S
C185 C181 1.378 1_655 S
C185 C184 1.367 . S
C185 H199 0.950 . S
C186 C183 1.481 . S
C186 C187 1.297 1_655 S
C186 H200 0.950 . S
C187 C186 1.297 1_455 S
C187 C188 1.479 . S
C187 H201 0.950 . S
C188 C187 1.479 . S
C188 C189 1.375 . S
C188 C194 1.404 1_455 S
C189 C188 1.375 . S
C189 C190 1.369 . S
C189 H202 0.950 . S
C190 C189 1.369 . S
C190 C191 1.392 . S
C190 H203 0.951 . S
C191 C190 1.392 . S
C191 C193 1.384 1_455 S
H192 C194 0.949 . S
C193 C191 1.384 1_655 S
C193 C194 1.385 . S
C193 H195 0.950 . S
C194 C188 1.404 1_655 S
C194 H192 0.949 . S
C194 C193 1.385 . S
H195 C193 0.950 . S
H196 C180 0.951 . S
H197 C182 0.951 . S
H198 C184 0.951 . S
H199 C185 0.950 . S
H200 C186 0.950 . S
H201 C187 0.950 . S
H202 C189 0.950 . S
H203 C190 0.951 . S
C204 C205 1.386 1_655 S
C204 C206 1.383 . S
C204 H220 0.951 . S
C205 C204 1.386 1_455 S
C205 C209 1.383 . S
C206 C204 1.383 . S
C206 C207 1.402 1_655 S
C206 H221 0.951 . S
C207 C206 1.402 1_455 S
C207 C208 1.375 . S
C207 C210 1.481 . S
C208 C207 1.375 . S
C208 C209 1.367 . S
C208 H222 0.951 . S
C209 C205 1.383 . S
C209 C208 1.367 . S
C209 H223 0.950 . S
C210 C207 1.481 . S
C210 C211 1.297 . S
C210 H224 0.950 . S
C211 C210 1.297 . S
C211 C212 1.479 . S
C211 H225 0.950 1_455 S
C212 C211 1.479 . S
C212 C213 1.375 1_455 S
C212 C218 1.404 . S
C213 C212 1.375 1_655 S
C213 C214 1.369 . S
C213 H226 0.950 . S
C214 C213 1.369 . S
C214 C215 1.392 1_655 S
C214 H227 0.951 . S
C215 C214 1.392 1_455 S
C215 C217 1.384 . S
H216 C218 0.949 . S
C217 C215 1.384 . S
C217 C218 1.385 . S
C217 H219 0.950 . S
C218 C212 1.404 . S
C218 H216 0.949 . S
C218 C217 1.385 . S
H219 C217 0.950 . S
H220 C204 0.951 . S
H221 C206 0.951 . S
H222 C208 0.951 . S
H223 C209 0.950 . S
H224 C210 0.950 . S
H225 C211 0.950 1_655 S
H226 C213 0.950 . S
H227 C214 0.951 . S
C228 C229 1.386 1_665 S
C228 C230 1.383 . S
C228 H244 0.951 . S
C229 C228 1.386 1_445 S
C229 C233 1.383 . S
C230 C228 1.383 . S
C230 C231 1.402 1_665 S
C230 H245 0.951 . S
C231 C230 1.402 1_445 S
C231 C232 1.375 . S
C231 C234 1.481 . S
C232 C231 1.375 . S
C232 C233 1.367 . S
C232 H246 0.951 . S
C233 C229 1.383 . S
C233 C232 1.367 . S
C233 H247 0.950 . S
C234 C231 1.481 . S
C234 C235 1.297 1_445 S
C234 H248 0.950 . S
C235 C234 1.297 1_665 S
C235 C236 1.479 1_665 S
C235 H249 0.950 . S
C236 C235 1.479 1_445 S
C236 C237 1.375 1_445 S
C236 C242 1.404 . S
C237 C236 1.375 1_665 S
C237 C238 1.369 1_565 S
C237 H250 0.950 . S
C238 C237 1.369 1_545 S
C238 C239 1.392 1_655 S
C238 H251 0.951 1_545 S
C239 C238 1.392 1_455 S
C239 C241 1.384 . S
H240 C242 0.949 . S
C241 C239 1.384 . S
C241 C242 1.385 . S
C241 H243 0.950 . S
C242 C236 1.404 . S
C242 H240 0.949 . S
C242 C241 1.385 . S
H243 C241 0.950 . S
H244 C228 0.951 . S
H245 C230 0.951 . S
H246 C232 0.951 . S
H247 C233 0.950 . S
H248 C234 0.950 . S
H249 C235 0.950 . S
H250 C237 0.950 . S
H251 C238 0.951 1_565 S
C252 C253 1.386 1_565 S
C252 C254 1.382 1_565 S
C252 H268 0.951 . S
C253 C252 1.386 1_545 S
C253 C257 1.383 . S
C254 C252 1.382 1_545 S
C254 C255 1.415 . S
C254 H269 0.938 1_545 S
C255 C254 1.415 . S
C255 C256 1.375 . S
C255 C258 1.481 . S
C256 C255 1.375 . S
C256 C257 1.367 . S
C256 H270 0.951 . S
C257 C253 1.383 . S
C257 C256 1.367 . S
C257 H271 0.950 . S
C258 C255 1.481 . S
C258 C259 1.297 . S
C258 H272 0.950 . S
C259 C258 1.297 . S
C259 C260 1.479 . S
C259 H273 0.950 1_545 S
C260 C259 1.479 . S
C260 C261 1.375 1_545 S
C260 C266 1.404 . S
C261 C260 1.375 1_565 S
C261 C262 1.369 . S
C261 H274 0.950 . S
C262 C261 1.369 . S
C262 C263 1.392 1_565 S
C262 H275 0.951 . S
C263 C262 1.392 1_545 S
C263 C265 1.384 . S
H264 C266 0.949 . S
C265 C263 1.384 . S
C265 C266 1.385 . S
C265 H267 0.950 . S
C266 C260 1.404 . S
C266 H264 0.949 . S
C266 C265 1.385 . S
H267 C265 0.950 . S
H268 C252 0.951 . S
H269 C254 0.938 1_565 S
H270 C256 0.951 . S
H271 C257 0.950 . S
H272 C258 0.950 . S
H273 C259 0.950 1_565 S
H274 C261 0.950 . S
H275 C262 0.951 . S
C61 C18 1.863 1_556 S
C71 C19 1.829 . S
C85 C21 0.634 . S
C95 C22 0.631 . S
C109 C42 1.145 . S
C119 C41 1.158 . S
C133 C58 2.416 . S
C143 C59 2.409 . S
C157 C1 1.135 . S
C167 C2 1.175 . S
C181 C38 1.863 . S
C191 C39 1.864 . S
C205 C28 1.485 1_455 S
C215 C8 1.435 . S
C229 C29 1.439 . S
C239 C48 1.394 . S
C253 C49 1.439 . S
C263 C9 1.493 . S
