# Generated by pormake.
# Topology bcu-g, (3)-cn, num edge types: 1
# Building blocks:
#     Node 0, Type 0, BuildingBlock: WUSLED_clean_sbu_0, # of connection points: 3
#     Node 1, Type 0, BuildingBlock: WUSLED_clean_sbu_0, # of connection points: 3
#     Node 2, Type 0, BuildingBlock: WUSLED_clean_sbu_0, # of connection points: 3
#     Node 3, Type 0, BuildingBlock: WUSLED_clean_sbu_0, # of connection points: 3
#     Node 4, Type 0, BuildingBlock: WUSLED_clean_sbu_0, # of connection points: 3
#     Node 5, Type 0, BuildingBlock: WUSLED_clean_sbu_0, # of connection points: 3
#     Node 6, Type 0, BuildingBlock: WUSLED_clean_sbu_0, # of connection points: 3
#     Node 7, Type 0, BuildingBlock: WUSLED_clean_sbu_0, # of connection points: 3
#     Node 8, Type 0, BuildingBlock: WUSLED_clean_sbu_0, # of connection points: 3
#     Node 9, Type 0, BuildingBlock: WUSLED_clean_sbu_0, # of connection points: 3
#     Node 10, Type 0, BuildingBlock: WUSLED_clean_sbu_0, # of connection points: 3
#     Node 11, Type 0, BuildingBlock: WUSLED_clean_sbu_0, # of connection points: 3
#     Node 12, Type 0, BuildingBlock: WUSLED_clean_sbu_0, # of connection points: 3
#     Node 13, Type 0, BuildingBlock: WUSLED_clean_sbu_0, # of connection points: 3
#     Node 14, Type 0, BuildingBlock: WUSLED_clean_sbu_0, # of connection points: 3
#     Node 15, Type 0, BuildingBlock: WUSLED_clean_sbu_0, # of connection points: 3
#     Edge 16, Type (0, 0), BuildingBlock: EZIPEK_clean_linker_0, # of connection points: 2
#     Edge 17, Type (0, 0), BuildingBlock: EZIPEK_clean_linker_0, # of connection points: 2
#     Edge 18, Type (0, 0), BuildingBlock: EZIPEK_clean_linker_0, # of connection points: 2
#     Edge 19, Type (0, 0), BuildingBlock: EZIPEK_clean_linker_0, # of connection points: 2
#     Edge 20, Type (0, 0), BuildingBlock: EZIPEK_clean_linker_0, # of connection points: 2
#     Edge 21, Type (0, 0), BuildingBlock: EZIPEK_clean_linker_0, # of connection points: 2
#     Edge 22, Type (0, 0), BuildingBlock: EZIPEK_clean_linker_0, # of connection points: 2
#     Edge 23, Type (0, 0), BuildingBlock: EZIPEK_clean_linker_0, # of connection points: 2
#     Edge 24, Type (0, 0), BuildingBlock: EZIPEK_clean_linker_0, # of connection points: 2
#     Edge 25, Type (0, 0), BuildingBlock: EZIPEK_clean_linker_0, # of connection points: 2
#     Edge 26, Type (0, 0), BuildingBlock: EZIPEK_clean_linker_0, # of connection points: 2
#     Edge 27, Type (0, 0), BuildingBlock: EZIPEK_clean_linker_0, # of connection points: 2
#     Edge 28, Type (0, 0), BuildingBlock: EZIPEK_clean_linker_0, # of connection points: 2
#     Edge 29, Type (0, 0), BuildingBlock: EZIPEK_clean_linker_0, # of connection points: 2
#     Edge 30, Type (0, 0), BuildingBlock: EZIPEK_clean_linker_0, # of connection points: 2
#     Edge 31, Type (0, 0), BuildingBlock: EZIPEK_clean_linker_0, # of connection points: 2
#     Edge 32, Type (0, 0), BuildingBlock: EZIPEK_clean_linker_0, # of connection points: 2
#     Edge 33, Type (0, 0), BuildingBlock: EZIPEK_clean_linker_0, # of connection points: 2
#     Edge 34, Type (0, 0), BuildingBlock: EZIPEK_clean_linker_0, # of connection points: 2
#     Edge 35, Type (0, 0), BuildingBlock: EZIPEK_clean_linker_0, # of connection points: 2
#     Edge 36, Type (0, 0), BuildingBlock: EZIPEK_clean_linker_0, # of connection points: 2
#     Edge 37, Type (0, 0), BuildingBlock: EZIPEK_clean_linker_0, # of connection points: 2
#     Edge 38, Type (0, 0), BuildingBlock: EZIPEK_clean_linker_0, # of connection points: 2
#     Edge 39, Type (0, 0), BuildingBlock: EZIPEK_clean_linker_0, # of connection points: 2
# Relax obj value: 0.201
# Max RMSD: 0.160
# Mean RMSD: 0.116
data_MOF--net-bcu-g--node1-WUSLED_clean_sbu_0--edge1-EZIPEK_clean_linker_0
_symmetry_space_group_name_H-M    P1
_symmetry_Int_Tables_number       1
_symmetry_cell_setting            triclinic
loop_
_symmetry_equiv_pos_as_xyz
'x, y, z'
_cell_length_a     44.936783
_cell_length_b     44.899735
_cell_length_c     52.465698
_cell_angle_alpha  89.775339
_cell_angle_beta   90.270328
_cell_angle_gamma 90.29167
loop_
_atom_site_label
_atom_site_type_symbol
_atom_site_fract_x
_atom_site_fract_y
_atom_site_fract_z
_atom_type_partial_charge
C0 C 0.58962 0.18913 0.11878 0.0
C1 C 0.56771 0.16816 0.12528 0.0
C2 C 0.55334 0.16257 0.07997 0.0
C3 C 0.55032 0.15453 0.10612 0.0
C4 C 0.57796 0.1812 0.07413 0.0
C5 C 0.59494 0.19492 0.09308 0.0
U6 U 0.62494 0.20659 0.18594 0.0
O7 O 0.64289 0.25004 0.19935 0.0
O8 O 0.67305 0.21289 0.19123 0.0
C9 C 0.67061 0.24099 0.19771 0.0
C10 C 0.60939 0.20369 0.13757 0.0
C11 C 0.6938 0.25337 0.21481 0.0
C12 C 0.74039 0.28119 0.21753 0.0
C13 C 0.71414 0.27389 0.20447 0.0
C14 C 0.72565 0.24882 0.25231 0.0
C15 C 0.74707 0.26761 0.24099 0.0
C16 C 0.69898 0.24208 0.23934 0.0
C17 C 0.58592 0.15539 0.24038 0.0
C18 C 0.59601 0.12286 0.27634 0.0
C19 C 0.54571 0.12758 0.26051 0.0
C20 C 0.55579 0.14761 0.24192 0.0
C21 C 0.56571 0.11408 0.27784 0.0
C22 C 0.6059 0.14345 0.25812 0.0
C23 C 0.59625 0.17268 0.21819 0.0
O24 O 0.59757 0.22261 0.15363 0.0
O25 O 0.63007 0.18698 0.14792 0.0
O26 O 0.62045 0.16421 0.20631 0.0
O27 O 0.58827 0.20044 0.21395 0.0
H28 H 0.56447 0.16187 0.14504 0.0
H29 H 0.53547 0.13706 0.11229 0.0
H30 H 0.58513 0.18506 0.0548 0.0
H31 H 0.61294 0.2097 0.08751 0.0
H32 H 0.75649 0.29576 0.20848 0.0
H33 H 0.71058 0.28295 0.18554 0.0
H34 H 0.73018 0.23833 0.27054 0.0
H35 H 0.68292 0.2272 0.24774 0.0
H36 H 0.61255 0.11314 0.28889 0.0
H37 H 0.52222 0.12361 0.26077 0.0
H38 H 0.54 0.15649 0.22821 0.0
H39 H 0.62934 0.14912 0.2573 0.0
C40 C 0.66496 0.53568 0.07301 0.0
C41 C 0.66304 0.50521 0.06713 0.0
C42 C 0.69367 0.51357 0.02933 0.0
C43 C 0.6772 0.49422 0.04521 0.0
C44 C 0.6951 0.54393 0.03533 0.0
C45 C 0.68078 0.55484 0.05682 0.0
U46 U 0.62514 0.54639 0.1403 0.0
O47 O 0.64199 0.58012 0.16717 0.0
O48 O 0.59803 0.58604 0.14895 0.0
C49 C 0.61882 0.59743 0.16374 0.0
C50 C 0.65202 0.549 0.09601 0.0
C51 C 0.61078 0.61841 0.18403 0.0
C52 C 0.61366 0.66939 0.19927 0.0
C53 C 0.61807 0.64847 0.18011 0.0
C54 C 0.5933 0.6307 0.22652 0.0
C55 C 0.60161 0.6607 0.22273 0.0
C56 C 0.59803 0.60954 0.20725 0.0
C57 C 0.59724 0.46817 0.17172 0.0
C58 C 0.57149 0.44245 0.206 0.0
C59 C 0.59619 0.41416 0.17304 0.0
C60 C 0.60487 0.44066 0.16114 0.0
C61 C 0.57981 0.41487 0.19572 0.0
C62 C 0.58025 0.46902 0.19407 0.0
C63 C 0.60786 0.49568 0.15956 0.0
O64 O 0.62293 0.54988 0.09833 0.0
O65 O 0.66625 0.54543 0.1177 0.0
O66 O 0.63462 0.50657 0.16391 0.0
O67 O 0.59016 0.51225 0.14546 0.0
H68 H 0.65102 0.49006 0.07951 0.0
H69 H 0.67596 0.47066 0.04096 0.0
H70 H 0.70767 0.55922 0.02346 0.0
H71 H 0.68251 0.57839 0.06106 0.0
H72 H 0.62033 0.69231 0.19601 0.0
H73 H 0.62802 0.65569 0.16233 0.0
H74 H 0.58412 0.62358 0.24461 0.0
H75 H 0.59239 0.58638 0.21065 0.0
H76 H 0.55901 0.44334 0.22359 0.0
H77 H 0.60283 0.39308 0.16491 0.0
H78 H 0.61792 0.43968 0.14385 0.0
H79 H 0.57429 0.49014 0.20249 0.0
C80 C 0.91466 0.16499 0.20574 0.0
C81 C 0.91757 0.15242 0.23022 0.0
C82 C 0.86325 0.14924 0.23407 0.0
C83 C 0.89201 0.1442 0.24415 0.0
C84 C 0.86074 0.16026 0.2091 0.0
C85 C 0.88604 0.1679 0.19515 0.0
U86 U 0.9893 0.20302 0.17776 0.0
O87 O 0.98621 0.21929 0.13843 0.0
O88 O 0.0176 0.1836 0.14761 0.0
C89 C 0.00697 0.20156 0.12995 0.0
C90 C 0.94024 0.17371 0.18948 0.0
C91 C 0.02773 0.21527 0.11149 0.0
C92 C 0.03956 0.22334 0.06676 0.0
C93 C 0.02436 0.20762 0.08575 0.0
C94 C 0.06321 0.25389 0.09904 0.0
C95 C 0.05861 0.24703 0.07312 0.0
C96 C 0.04765 0.23825 0.11814 0.0
C97 C 0.02168 0.25372 0.234 0.0
C98 C 0.05649 0.27882 0.26269 0.0
C99 C 1.0043 0.29193 0.26294 0.0
C100 C 0.99834 0.27024 0.24453 0.0
C101 C 0.0336 0.29744 0.27121 0.0
C102 C 0.05057 0.25728 0.24404 0.0
C103 C 0.01809 0.23837 0.20928 0.0
O104 O 0.94057 0.20097 0.18032 0.0
O105 O 0.96697 0.1627 0.19349 0.0
O106 O 0.02407 0.2098 0.20746 0.0
O107 O 0.99624 0.24715 0.19433 0.0
H108 H 0.93938 0.1492 0.23862 0.0
H109 H 0.89459 0.13507 0.26316 0.0
H110 H 0.83901 0.16367 0.20057 0.0
H111 H 0.88319 0.17646 0.17595 0.0
H112 H 0.03566 0.21766 0.04697 0.0
H113 H 0.00887 0.19022 0.08018 0.0
H114 H 0.07789 0.27206 0.10436 0.0
H115 H 0.05033 0.24475 0.13789 0.0
H116 H 0.07915 0.28229 0.26919 0.0
H117 H 0.98621 0.3056 0.26972 0.0
H118 H 0.97584 0.26787 0.23731 0.0
H119 H 0.06897 0.24488 0.23615 0.0
C120 C 0.94056 0.89565 0.07898 0.0
C121 C 0.92434 0.92237 0.07962 0.0
C122 C 0.91075 0.91654 0.03467 0.0
C123 C 0.90964 0.93277 0.05757 0.0
C124 C 0.92776 0.89045 0.03393 0.0
C125 C 0.94241 0.88013 0.05584 0.0
U126 U 0.9801 0.88121 0.14675 0.0
O127 O 0.96349 0.84705 0.17363 0.0
O128 O 1.00678 0.84078 0.15465 0.0
C129 C 0.98633 0.82952 0.16977 0.0
C130 C 0.95259 0.88095 0.10223 0.0
C131 C 0.99378 0.80587 0.1885 0.0
C132 C 0.99251 0.75298 0.19869 0.0
C133 C 0.98715 0.77652 0.18181 0.0
C134 C 0.01074 0.78761 0.22993 0.0
C135 C 0.00697 0.75732 0.22249 0.0
C136 C 1.00487 0.81146 0.21302 0.0
C137 C 0.01065 0.95867 0.17861 0.0
C138 C 0.00988 0.99436 0.21339 0.0
C139 C 0.03949 1.00467 0.17588 0.0
C140 C 0.03042 0.97744 0.16536 0.0
C141 C 0.0289 0.01351 0.19981 0.0
C142 C 1.00073 0.96723 0.20284 0.0
C143 C 0.99971 0.93071 0.16697 0.0
O144 O 0.98153 0.87792 0.10468 0.0
O145 O 0.93886 0.88478 0.12404 0.0
O146 O 0.97301 0.91997 0.17174 0.0
O147 O 0.01595 0.91484 0.1513 0.0
H148 H 0.92241 0.93474 0.09721 0.0
H149 H 0.89689 0.95314 0.05849 0.0
H150 H 0.92908 0.87765 0.01651 0.0
H151 H 0.95445 0.85932 0.0549 0.0
H152 H 0.98401 0.73166 0.19274 0.0
H153 H 0.97689 0.77173 0.16352 0.0
H154 H 0.01739 0.79346 0.24906 0.0
H155 H 0.00854 0.83416 0.21926 0.0
H156 H 1.0017 1.00068 0.23199 0.0
H157 H 0.05422 0.01915 0.16517 0.0
H158 H 0.03831 0.97138 0.14661 0.0
H159 H 0.98575 0.95301 0.21357 0.0
C160 C 0.58544 0.21944 0.39941 0.0
C161 C 0.56412 0.24134 0.39407 0.0
C162 C 0.55038 0.24395 0.43969 0.0
C163 C 0.54728 0.25385 0.41397 0.0
C164 C 0.57453 0.22449 0.44444 0.0
C165 C 0.59078 0.21171 0.42476 0.0
U166 U 0.61932 0.20409 0.33145 0.0
O167 O 0.63957 0.16192 0.31799 0.0
O168 O 0.66755 0.20147 0.32515 0.0
C169 C 0.66667 0.17308 0.31918 0.0
C170 C 0.60511 0.2062 0.38003 0.0
C171 C 0.69081 0.1612 0.3031 0.0
C172 C 0.73789 0.13451 0.30218 0.0
C173 C 0.7111 0.14134 0.3143 0.0
C174 C 0.72392 0.16609 0.26665 0.0
C175 C 0.7452 0.14794 0.27881 0.0
C176 C 0.6967 0.17233 0.27866 0.0
C177 C 0.57962 0.25153 0.276 0.0
C178 C 0.59598 0.28346 0.24139 0.0
C179 C 0.54601 0.28838 0.25799 0.0
C180 C 0.55133 0.26463 0.27465 0.0
C181 C 0.56892 0.29899 0.24232 0.0
C182 C 0.6014 0.25986 0.25826 0.0
C183 C 0.58761 0.23641 0.29993 0.0
O184 O 0.59376 0.18651 0.36419 0.0
O185 O 0.62461 0.22408 0.36937 0.0
O186 O 0.61108 0.24651 0.31226 0.0
O187 O 0.58219 0.20786 0.3034 0.0
H188 H 0.56095 0.24921 0.37471 0.0
H189 H 0.53276 0.27199 0.40886 0.0
H190 H 0.58223 0.21933 0.4634 0.0
H191 H 0.60844 0.19627 0.42954 0.0
H192 H 0.75385 0.12038 0.31187 0.0
H193 H 0.70699 0.13239 0.33318 0.0
H194 H 0.7289 0.17642 0.24846 0.0
H195 H 0.68066 0.18661 0.26954 0.0
H196 H 0.61392 0.29156 0.22947 0.0
H197 H 0.52514 0.30026 0.25914 0.0
H198 H 0.53434 0.25868 0.28839 0.0
H199 H 0.62341 0.25015 0.25908 0.0
C200 C 0.94337 0.52014 0.44042 0.0
C201 C 0.92304 0.49631 0.44161 0.0
C202 C 0.91298 0.50673 0.48637 0.0
C203 C 0.90817 0.48954 0.46439 0.0
C204 C 0.93323 0.53067 0.48522 0.0
C205 C 0.94835 0.53727 0.46246 0.0
U206 U 0.98459 0.54128 0.37291 0.0
O207 O 0.96334 0.57917 0.35327 0.0
O208 O 0.00723 0.58512 0.37098 0.0
C209 C 0.98554 0.59752 0.35786 0.0
C210 C 0.95829 0.5278 0.416 0.0
C211 C 0.99327 0.61927 0.33747 0.0
C212 C 0.98656 0.66937 0.32011 0.0
C213 C 0.98106 0.64793 0.339 0.0
C214 C 0.0175 0.63418 0.29781 0.0
C215 C 1.00476 0.66284 0.29923 0.0
C216 C 0.01166 0.61248 0.31668 0.0
C217 C 0.01158 0.46758 0.33822 0.0
C218 C 0.00963 0.4277 0.30686 0.0
C219 C 0.03497 0.41957 0.34707 0.0
C220 C 0.02769 0.44867 0.3547 0.0
C221 C 0.02613 0.40896 0.32296 0.0
C222 C 1.00251 0.45659 0.31437 0.0
C223 C 1.00692 0.49976 0.3433 0.0
O224 O 0.9867 0.53488 0.41482 0.0
O225 O 0.94426 0.52716 0.39398 0.0
O226 O 0.02228 0.51281 0.36158 0.0
O227 O 0.97965 0.50988 0.34101 0.0
H228 H 0.9188 0.48275 0.42494 0.0
H229 H 0.89291 0.47079 0.46489 0.0
H230 H 0.93734 0.54418 0.50194 0.0
H231 H 0.96361 0.55601 0.46199 0.0
H232 H 0.97649 0.69114 0.32176 0.0
H233 H 0.9669 0.65373 0.35487 0.0
H234 H 0.03161 0.62851 0.28188 0.0
H235 H 0.02129 0.59052 0.31498 0.0
H236 H 1.00275 0.42012 0.28814 0.0
H237 H 0.04781 0.40549 0.35977 0.0
H238 H 0.03525 0.45655 0.37311 0.0
H239 H 0.99057 0.47077 0.3011 0.0
C240 C 0.91452 0.25235 0.31833 0.0
C241 C 0.91811 0.265 0.29396 0.0
C242 C 0.86391 0.2677 0.28869 0.0
C243 C 0.89292 0.27305 0.27938 0.0
C244 C 0.86074 0.2566 0.31354 0.0
C245 C 0.88565 0.24917 0.32815 0.0
U246 U 0.98812 0.21393 0.34755 0.0
O247 O 0.98227 0.19572 0.38595 0.0
O248 O 0.01556 0.23085 0.37972 0.0
C249 C 1.00346 0.21204 0.39602 0.0
C250 C 0.93954 0.2433 0.33514 0.0
C251 C 0.02248 0.19613 0.41467 0.0
C252 C 0.02526 0.17217 0.45627 0.0
C253 C 0.00951 0.18846 0.43806 0.0
C254 C 0.06807 0.17134 0.42841 0.0
C255 C 0.05461 0.16332 0.45171 0.0
C256 C 0.05197 0.18744 0.40984 0.0
C257 C 0.02231 0.16607 0.2909 0.0
C258 C 0.05822 0.14253 0.26282 0.0
C259 C 1.00622 0.12827 0.26084 0.0
C260 C 0.99946 0.1494 0.27937 0.0
C261 C 0.03582 0.12358 0.25344 0.0
C262 C 0.05151 0.16347 0.28164 0.0
C263 C 0.01788 0.18022 0.31594 0.0
O264 O 0.93959 0.21561 0.34324 0.0
O265 O 0.96637 0.25483 0.33251 0.0
O266 O 0.02398 0.20869 0.31894 0.0
O267 O 0.99542 0.17068 0.32976 0.0
H268 H 0.94014 0.26832 0.28614 0.0
H269 H 0.89599 0.28223 0.26045 0.0
H270 H 0.83879 0.25292 0.32147 0.0
H271 H 0.8823 0.24044 0.34722 0.0
H272 H 0.01447 0.16643 0.47406 0.0
H273 H 0.98681 0.19484 0.44218 0.0
H274 H 0.09078 0.16485 0.42454 0.0
H275 H 0.0624 0.19288 0.39183 0.0
H276 H 0.0811 0.1397 0.2569 0.0
H277 H 0.9885 0.11436 0.25331 0.0
H278 H 0.97673 0.15109 0.28597 0.0
H279 H 0.06953 0.17605 0.29031 0.0
C280 C 0.67061 0.89137 0.44168 0.0
C281 C 0.67497 0.92188 0.44528 0.0
C282 C 0.69614 0.91277 0.48817 0.0
C283 C 0.68841 0.93235 0.46779 0.0
C284 C 0.69534 0.88202 0.48223 0.0
C285 C 0.68186 0.87156 0.4599 0.0
U286 U 0.62813 0.87162 0.37528 0.0
O287 O 0.60378 0.82878 0.37298 0.0
O288 O 0.64656 0.83445 0.35346 0.0
C289 C 0.62381 0.81679 0.35808 0.0
C290 C 0.6564 0.87898 0.41862 0.0
C291 C 0.61321 0.79763 0.33699 0.0
C292 C 0.59544 0.74849 0.32443 0.0
C293 C 0.60054 0.76992 0.34324 0.0
C294 C 0.61429 0.78261 0.29241 0.0
C295 C 0.60325 0.75427 0.29903 0.0
C296 C 0.61921 0.80421 0.31127 0.0
C297 C 0.59959 0.94708 0.3432 0.0
C298 C 0.59937 0.98783 0.3124 0.0
C299 C 0.57296 0.993 0.35225 0.0
C300 C 0.5821 0.96437 0.35964 0.0
C301 C 0.58131 1.0048 0.32844 0.0
C302 C 0.60826 0.95926 0.31965 0.0
C303 C 0.60532 0.91504 0.34779 0.0
O304 O 0.62736 0.87536 0.41735 0.0
O305 O 0.66965 0.88123 0.39641 0.0
O306 O 0.59051 0.90107 0.36586 0.0
O307 O 0.63269 0.90539 0.34493 0.0
H308 H 0.66834 0.93758 0.43061 0.0
H309 H 0.69312 0.95589 0.46846 0.0
H310 H 0.70552 0.86547 0.49434 0.0
H311 H 0.68061 0.84774 0.4567 0.0
H312 H 0.58689 0.7268 0.3299 0.0
H313 H 0.59597 0.76425 0.36293 0.0
H314 H 0.6202 0.78755 0.27285 0.0
H315 H 0.62892 0.82544 0.3059 0.0
H316 H 0.60581 0.99638 0.29387 0.0
H317 H 0.55896 1.00578 0.36487 0.0
H318 H 0.57473 0.95547 0.37777 0.0
H319 H 0.62109 0.94617 0.30636 0.0
C320 C 0.38897 0.01344 0.84421 0.0
C321 C 0.39898 1.00579 0.81973 0.0
C322 C 0.34748 1.00295 0.8044 0.0
C323 C 0.3783 1.00036 0.79997 0.0
C324 C 0.33777 0.00982 0.82904 0.0
C325 C 0.35827 0.01482 0.84869 0.0
U326 U 0.464 0.02597 0.88301 0.0
O327 O 0.47292 0.06672 0.90544 0.0
O328 O 0.4684 0.02315 0.92497 0.0
C329 C 0.47155 0.05216 0.92718 0.0
C330 C 0.40912 0.02261 0.86519 0.0
C331 C 0.48343 0.06546 0.9509 0.0
C332 C 0.47487 0.09833 0.98691 0.0
C333 C 0.46458 0.08393 0.96498 0.0
C334 C 0.52307 0.07531 0.98168 0.0
C335 C 0.50428 0.09449 0.99535 0.0
C336 C 0.51272 0.06092 0.95951 0.0
C337 C 0.53771 0.99686 0.8479 0.0
C338 C 0.59141 1.00392 0.84959 0.0
C339 C 0.56943 0.97263 0.81692 0.0
C340 C 0.54127 0.97807 0.82686 0.0
C341 C 0.59465 0.98602 0.82782 0.0
C342 C 0.56298 0.0094 0.85961 0.0
C343 C 0.507 1.00436 0.85508 0.0
O344 O 0.4212 1.00176 0.87945 0.0
O345 O 0.42704 0.04525 0.86088 0.0
O346 O 0.49848 0.0323 0.85377 0.0
O347 O 0.49333 0.98854 0.87267 0.0
H348 H 0.42258 1.00472 0.81577 0.0
H349 H 0.38629 0.99515 0.78106 0.0
H350 H 0.31423 0.01199 0.83294 0.0
H351 H 0.35007 0.02077 0.86738 0.0
H352 H 0.46003 0.11304 0.99704 0.0
H353 H 0.44186 0.08765 0.95875 0.0
H354 H 0.5459 0.07219 0.98777 0.0
H355 H 0.52762 0.04676 0.9489 0.0
H356 H 0.61072 0.01444 0.85819 0.0
H357 H 0.57145 0.959 0.80003 0.0
H358 H 0.522 0.96841 0.81745 0.0
H359 H 0.56069 0.024 0.87585 0.0
C360 C 0.84255 0.32015 0.81159 0.0
C361 C 0.82595 0.31179 0.78995 0.0
C362 C 0.85618 0.26705 0.78539 0.0
C363 C 0.83292 0.28543 0.77682 0.0
C364 C 0.87382 0.27657 0.80597 0.0
C365 C 0.86705 0.30282 0.81891 0.0
U366 U 0.79816 0.38957 0.83799 0.0
O367 O 0.77905 0.38789 0.87643 0.0
O368 O 0.81317 0.42152 0.86744 0.0
C369 C 0.79534 0.41014 0.8848 0.0
C370 C 0.83267 0.34347 0.82942 0.0
C371 C 0.7813 0.43011 0.90347 0.0
C372 C 0.77042 0.43945 0.94797 0.0
C373 C 0.7829 0.42178 0.92909 0.0
C374 C 0.75305 0.47382 0.91592 0.0
C375 C 0.7571 0.46719 0.94228 0.0
C376 C 0.76561 0.45588 0.89683 0.0
C377 C 0.74473 0.42313 0.78226 0.0
C378 C 0.70243 0.45362 0.7703 0.0
C379 C 0.72294 0.41892 0.74019 0.0
C380 C 0.74428 0.41035 0.75812 0.0
C381 C 0.70188 0.44155 0.74532 0.0
C382 C 0.72384 0.44488 0.78828 0.0
C383 C 0.76422 0.41068 0.802 0.0
O384 O 0.84159 0.37113 0.82591 0.0
O385 O 0.80517 0.34132 0.83754 0.0
O386 O 0.75538 0.38903 0.81715 0.0
O387 O 0.79116 0.42123 0.80618 0.0
H388 H 0.80701 0.32491 0.78393 0.0
H389 H 0.81968 0.27866 0.76057 0.0
H390 H 0.89199 0.26289 0.81281 0.0
H391 H 0.88005 0.30873 0.83561 0.0
H392 H 0.7713 0.43086 0.96724 0.0
H393 H 0.79375 0.40122 0.93461 0.0
H394 H 0.73985 0.49212 0.90922 0.0
H395 H 0.76272 0.46194 0.87697 0.0
H396 H 0.68563 0.46855 0.77713 0.0
H397 H 0.7223 0.40605 0.72292 0.0
H398 H 0.75955 0.39256 0.7535 0.0
H399 H 0.72319 0.45416 0.80731 0.0
C400 C 0.12463 0.34526 0.94269 0.0
C401 C 0.09471 0.33613 0.94392 0.0
C402 C 0.10314 0.31544 0.98653 0.0
C403 C 0.08401 0.32139 0.96579 0.0
C404 C 0.13275 0.32532 0.98542 0.0
C405 C 0.14333 0.34005 0.96373 0.0
U406 U 0.13859 0.38519 0.87501 0.0
O407 O 0.18038 0.41005 0.86725 0.0
O408 O 0.17169 0.367 0.84867 0.0
C409 C 0.19031 0.38935 0.85186 0.0
C410 C 0.13841 0.35749 0.91932 0.0
C411 C 0.21025 0.39769 0.83051 0.0
C412 C 0.26072 0.41144 0.81796 0.0
C413 C 0.23862 0.40898 0.83659 0.0
C414 C 0.22615 0.39257 0.78633 0.0
C415 C 0.255 0.40239 0.79282 0.0
C416 C 0.20393 0.39017 0.80503 0.0
C417 C 0.06285 0.41806 0.842 0.0
C418 C 0.02892 0.41932 0.80563 0.0
C419 C 0.01662 0.44586 0.84426 0.0
C420 C 0.04331 0.43645 0.85549 0.0
C421 C 0.00898 0.43699 0.81939 0.0
C422 C 0.05565 0.40996 0.81685 0.0
C423 C 0.0901 0.40645 0.85434 0.0
O424 O 0.13335 0.34401 0.89753 0.0
O425 O 0.14222 0.38642 0.9171 0.0
O426 O 0.1065 0.42226 0.87019 0.0
O427 O 0.09964 0.37934 0.84984 0.0
H428 H 0.07989 0.33979 0.92788 0.0
H429 H 0.06101 0.31408 0.96636 0.0
H430 H 0.14785 0.32105 1.00115 0.0
H431 H 0.16655 0.34666 0.9631 0.0
H432 H 0.28273 0.41912 0.8234 0.0
H433 H 0.24422 0.41449 0.85613 0.0
H434 H 0.22116 0.38577 0.76699 0.0
H435 H 0.18231 0.38128 0.7998 0.0
H436 H 0.02352 0.41233 0.78641 0.0
H437 H 1.00144 0.45933 0.85525 0.0
H438 H 0.04826 0.44283 0.87495 0.0
H439 H 0.07057 0.3961 0.80597 0.0
C440 C 0.81276 0.99155 0.90806 0.0
C441 C 0.83503 0.97104 0.90153 0.0
C442 C 0.8436 0.95979 0.94663 0.0
C443 C 0.85029 0.95516 0.92073 0.0
C444 C 0.82052 0.97931 0.95288 0.0
C445 C 0.80529 0.99497 0.93382 0.0
U446 U 0.79863 0.02756 0.84074 0.0
O447 O 0.75868 0.05115 0.82617 0.0
O448 O 0.79993 0.07616 0.83449 0.0
C449 C 0.77181 0.07738 0.82767 0.0
C450 C 0.79952 0.0126 0.88942 0.0
C451 C 0.7615 0.10285 0.81187 0.0
C452 C 0.74579 0.15484 0.81109 0.0
C453 C 0.75317 0.12895 0.82461 0.0
C454 C 0.75312 0.12858 0.77145 0.0
C455 C 0.74619 0.15526 0.78434 0.0
C456 C 0.76099 0.10263 0.7851 0.0
C457 C 0.84364 0.98536 0.78589 0.0
C458 C 0.87337 1.00032 0.74951 0.0
C459 C 0.8793 0.95099 0.76772 0.0
C460 C 0.85667 0.95702 0.78507 0.0
C461 C 0.88888 0.9732 0.75078 0.0
C462 C 0.85091 1.00649 0.76713 0.0
C463 C 0.82917 0.99388 0.80981 0.0
O464 O 0.81811 0.03159 0.879 0.0
O465 O 0.77934 1.00259 0.87331 0.0
O466 O 0.84065 0.01656 0.82226 0.0
O467 O 0.80031 0.99044 0.81286 0.0
H468 H 0.84133 0.96817 0.88179 0.0
H469 H 0.86805 0.94018 0.91549 0.0
H470 H 0.81508 0.98332 0.97266 0.0
H471 H 0.78845 0.01085 0.93932 0.0
H472 H 0.74079 0.17493 0.82157 0.0
H473 H 0.75327 0.12962 0.84526 0.0
H474 H 0.75388 0.12829 0.75082 0.0
H475 H 0.7674 0.08282 0.77483 0.0
H476 H 0.88059 0.01772 0.73655 0.0
H477 H 0.89115 0.93008 0.76913 0.0
H478 H 0.85149 0.94053 0.79956 0.0
H479 H 0.84118 0.02851 0.7675 0.0
C480 C 0.38776 0.3851 0.67482 0.0
C481 C 0.39832 0.39598 0.69834 0.0
C482 C 0.34758 0.3961 0.71525 0.0
C483 C 0.37832 0.40161 0.71838 0.0
C484 C 0.33726 0.38575 0.69159 0.0
C485 C 0.35708 0.38046 0.67164 0.0
U486 U 0.46426 0.37624 0.64009 0.0
O487 O 0.47814 0.33784 0.61711 0.0
O488 O 0.47477 0.38238 0.59885 0.0
C489 C 0.48124 0.35401 0.59634 0.0
C490 C 0.40773 0.37681 0.65354 0.0
C491 C 0.48758 0.33965 0.57149 0.0
C492 C 0.47718 0.30174 0.53939 0.0
C493 C 0.46964 0.31639 0.56208 0.0
C494 C 0.52045 0.3336 0.53492 0.0
C495 C 0.5029 0.30993 0.52581 0.0
C496 C 0.51277 0.3484 0.55748 0.0
C497 C 0.53561 0.40393 0.67794 0.0
C498 C 0.58218 0.43014 0.6695 0.0
C499 C 0.57492 0.40525 0.71005 0.0
C500 C 0.54662 0.39604 0.70212 0.0
C501 C 0.59274 0.42278 0.694 0.0
C502 C 0.55385 0.42068 0.66145 0.0
C503 C 0.50385 0.39776 0.67234 0.0
O504 O 0.42051 0.39853 0.64069 0.0
O505 O 0.4255 0.35413 0.65758 0.0
O506 O 0.49498 0.36982 0.67259 0.0
O507 O 0.49055 0.41399 0.6548 0.0
H508 H 0.42192 0.39966 0.70132 0.0
H509 H 0.38683 0.40953 0.73649 0.0
H510 H 0.31377 0.38134 0.68868 0.0
H511 H 0.34842 0.37208 0.65372 0.0
H512 H 0.46339 0.28346 0.53277 0.0
H513 H 0.45005 0.30926 0.57245 0.0
H514 H 0.54055 0.34007 0.52496 0.0
H515 H 0.52704 0.36614 0.56443 0.0
H516 H 0.59568 0.44361 0.65682 0.0
H517 H 0.5826 0.39942 0.72902 0.0
H518 H 0.53283 0.38356 0.71531 0.0
H519 H 0.54592 0.42724 0.64274 0.0
C520 C 0.81765 0.43596 0.61539 0.0
C521 C 0.84111 0.45556 0.62141 0.0
C522 C 0.8478 0.46699 0.57615 0.0
C523 C 0.85606 0.47109 0.60185 0.0
C524 C 0.82359 0.44834 0.57043 0.0
C525 C 0.8087 0.43304 0.58985 0.0
U526 U 0.79844 0.39303 0.68038 0.0
O527 O 0.75425 0.37412 0.69005 0.0
O528 O 0.79074 0.34472 0.67916 0.0
C529 C 0.76302 0.34653 0.6867 0.0
C530 C 0.80384 0.41563 0.63421 0.0
C531 C 0.7531 0.32344 0.70508 0.0
C532 C 0.72616 0.27666 0.71115 0.0
C533 C 0.73222 0.30223 0.69667 0.0
C534 C 0.75966 0.29438 0.74401 0.0
C535 C 0.74066 0.27196 0.73452 0.0
C536 C 0.76626 0.3198 0.72925 0.0
C537 C 0.85057 0.42593 0.73677 0.0
C538 C 0.8777 0.42312 0.7766 0.0
C539 C 0.89171 0.45995 0.74521 0.0
C540 C 0.8689 0.44952 0.72902 0.0
C541 C 0.89629 0.4475 0.76991 0.0
C542 C 0.85497 0.41316 0.7607 0.0
C543 C 0.82936 0.41084 0.71977 0.0
O544 O 0.82023 0.3937 0.64297 0.0
O545 O 0.78511 0.42621 0.65109 0.0
O546 O 0.839 0.39056 0.70387 0.0
O547 O 0.80383 0.42313 0.71346 0.0
H548 H 0.84846 0.45805 0.64098 0.0
H549 H 0.87475 0.48535 0.60664 0.0
H550 H 0.81699 0.44467 0.5508 0.0
H551 H 0.79083 0.41785 0.58475 0.0
H552 H 0.71155 0.25968 0.70339 0.0
H553 H 0.72183 0.30458 0.6781 0.0
H554 H 0.77039 0.29136 0.76229 0.0
H555 H 0.78244 0.33583 0.7362 0.0
H556 H 0.88128 0.41001 0.79359 0.0
H557 H 0.90626 0.47655 0.7372 0.0
H558 H 0.86643 0.45901 0.71011 0.0
H559 H 0.84172 0.39413 0.76666 0.0
C560 C 0.1243 0.06321 0.5793 0.0
C561 C 0.09346 0.06481 0.57499 0.0
C562 C 0.10217 0.09351 0.53599 0.0
C563 C 0.08245 0.07982 0.55332 0.0
C564 C 0.13287 0.09143 0.5403 0.0
C565 C 0.14377 0.07632 0.56166 0.0
U566 U 0.13518 0.02188 0.64645 0.0
O567 O 0.17522 0.99474 0.65483 0.0
O568 O 0.16868 0.03785 0.67392 0.0
C569 C 0.18613 0.01482 0.67053 0.0
C570 C 0.13768 0.04985 0.60237 0.0
C571 C 0.2068 1.00598 0.69127 0.0
C572 C 0.25777 0.99289 0.70268 0.0
C573 C 0.23524 0.99607 0.68438 0.0
C574 C 0.2235 0.00825 0.73552 0.0
C575 C 0.25237 0.99977 0.72831 0.0
C576 C 0.20085 0.01142 0.71712 0.0
C577 C 0.0567 0.99279 0.67656 0.0
C578 C 0.03008 0.96676 0.71025 0.0
C579 C 1.00271 0.99438 0.67807 0.0
C580 C 0.02947 1.00223 0.66625 0.0
C581 C 1.00288 0.97717 0.70044 0.0
C582 C 0.05687 0.97456 0.69835 0.0
C583 C 0.0848 1.00347 0.66547 0.0
O584 O 0.13387 0.06351 0.62418 0.0
O585 O 0.13881 0.0207 0.60445 0.0
O586 O 0.10138 0.98635 0.65111 0.0
O587 O 0.09525 0.0304 0.66981 0.0
H588 H 0.07805 0.05497 0.58846 0.0
H589 H 0.05864 0.08135 0.55035 0.0
H590 H 0.14841 0.10188 0.52727 0.0
H591 H 0.16763 0.07541 0.5647 0.0
H592 H 0.27982 0.98636 0.69668 0.0
H593 H 0.24051 0.99218 0.66454 0.0
H594 H 0.21881 0.01342 0.75524 0.0
H595 H 0.17916 0.01923 0.72294 0.0
H596 H 0.03059 0.95366 0.72762 0.0
H597 H 0.98193 1.00267 0.67033 0.0
H598 H 0.02896 0.01628 0.64942 0.0
H599 H 0.07772 0.9672 0.70661 0.0
C600 C 0.83815 0.09973 0.71184 0.0
C601 C 0.83269 0.10182 0.73793 0.0
C602 C 0.85926 0.15032 0.73993 0.0
C603 C 0.84278 0.12676 0.75168 0.0
C604 C 0.86229 0.14835 0.71312 0.0
C605 C 0.85277 0.12326 0.6996 0.0
U606 U 0.80012 0.02514 0.68323 0.0
O607 O 0.78397 0.02828 0.64387 0.0
O608 O 0.82157 0.99903 0.65269 0.0
C609 C 0.80274 0.00848 0.63523 0.0
C610 C 0.82765 0.07461 0.69605 0.0
C611 C 0.7901 0.98642 0.61729 0.0
C612 C 0.79182 0.96474 0.57481 0.0
C613 C 0.80564 0.98028 0.59476 0.0
C614 C 0.74728 0.95956 0.60029 0.0
C615 C 0.76213 0.95531 0.57706 0.0
C616 C 0.76114 0.97499 0.62029 0.0
C617 C 0.75212 0.9869 0.7382 0.0
C618 C 0.71515 0.9558 0.75923 0.0
C619 C 0.72483 1.00585 0.77444 0.0
C620 C 0.74682 0.00965 0.75583 0.0
C621 C 0.7077 0.97951 0.77521 0.0
C622 C 0.73737 0.95944 0.74095 0.0
C623 C 0.76711 0.99263 0.71381 0.0
O624 O 0.83995 0.04822 0.69853 0.0
O625 O 0.79971 0.07385 0.68855 0.0
O626 O 0.79605 0.989 0.71199 0.0
O627 O 0.75672 0.01468 0.69988 0.0
H628 H 0.82013 0.08452 0.7476 0.0
H629 H 0.83601 0.12753 0.77131 0.0
H630 H 0.87083 0.16644 0.70173 0.0
H631 H 0.85614 0.12267 0.67915 0.0
H632 H 0.80365 0.96165 0.55708 0.0
H633 H 0.82793 0.989 0.59203 0.0
H634 H 0.72439 0.95229 0.60242 0.0
H635 H 0.74869 0.97939 0.63749 0.0
H636 H 0.70212 0.93543 0.75943 0.0
H637 H 0.71925 0.02442 0.78661 0.0
H638 H 0.75789 0.03102 0.75393 0.0
H639 H 0.7411 0.94168 0.72742 0.0
C640 C 0.54065 0.06427 0.28957 0.0
C641 C 0.55711 0.08999 0.29689 0.0
C642 C 0.58162 0.06102 0.33064 0.0
C643 C 0.57031 0.0344 0.31959 0.0
N644 N 0.5372 0.01039 0.28955 0.0
N645 N 0.57917 0.11509 0.33242 0.0
C646 C 0.54918 0.03595 0.29938 0.0
C647 C 0.57285 0.08898 0.32029 0.0
N648 N 0.51441 0.06718 0.27671 0.0
N649 N 0.60262 0.05963 0.34952 0.0
H650 H 0.5721 0.13552 0.325 0.0
H651 H 0.58843 0.11626 0.35062 0.0
H652 H 0.61016 0.03963 0.35728 0.0
H653 H 0.61421 0.0782 0.35617 0.0
H654 H 0.50092 0.0493 0.27144 0.0
H655 H 0.50289 0.08715 0.27658 0.0
H656 H 0.52495 0.00984 0.27264 0.0
H657 H 0.54073 0.98944 0.29764 0.0
C658 C 0.58975 0.37961 0.23191 0.0
C659 C 0.57345 0.38659 0.20947 0.0
C660 C 0.55134 0.33643 0.20943 0.0
C661 C 0.56758 0.32977 0.23195 0.0
N662 N 0.59405 0.34778 0.26899 0.0
N663 N 0.53388 0.37464 0.18005 0.0
C664 C 0.58413 0.3523 0.2446 0.0
C665 C 0.55262 0.36589 0.19922 0.0
N666 N 0.61182 0.39823 0.24038 0.0
N667 N 0.53548 0.31445 0.1975 0.0
H668 H 0.53428 0.39612 0.17237 0.0
H669 H 0.51638 0.36161 0.17322 0.0
H670 H 0.53358 0.29295 0.20494 0.0
H671 H 0.52559 0.31698 0.17965 0.0
H672 H 0.62665 0.39245 0.25487 0.0
H673 H 0.61712 0.41839 0.23155 0.0
H674 H 0.60346 0.36459 0.28008 0.0
H675 H 0.59009 0.32813 0.27912 0.0
C676 C 0.05382 0.34973 0.27767 0.0
C677 C 0.03967 0.32384 0.28771 0.0
C678 C 0.02117 0.35267 0.32382 0.0
C679 C 0.03463 0.37876 0.31358 0.0
N680 N 0.07136 0.40015 0.28558 0.0
N681 N 0.01975 0.29863 0.32433 0.0
C682 C 0.05363 0.37654 0.29211 0.0
C683 C 0.02672 0.32469 0.31222 0.0
N684 N 0.06583 0.34935 0.25378 0.0
N685 N 1.00148 0.35472 0.34347 0.0
H686 H 0.02406 0.27789 0.31624 0.0
H687 H 0.0128 0.29765 0.34323 0.0
H688 H 0.99643 0.37477 0.35236 0.0
H689 H 0.98847 0.33684 0.34962 0.0
H690 H 0.07339 0.3684 0.24439 0.0
H691 H 0.06654 0.33034 0.2425 0.0
H692 H 0.08768 0.3991 0.27158 0.0
H693 H 0.07175 0.41992 0.29597 0.0
C694 C 0.03018 0.09723 0.21203 0.0
C695 C 0.04258 0.09767 0.23682 0.0
C696 C 0.05517 0.04475 0.23268 0.0
C697 C 0.03684 0.04315 0.21063 0.0
N698 N 1.00496 0.06786 0.18 0.0
N699 N 0.06791 0.07189 0.27111 0.0
C700 C 0.02424 0.06948 0.20017 0.0
C701 C 0.05598 0.07157 0.2471 0.0
N702 N 0.02401 0.12349 0.19996 0.0
N703 N 0.07172 0.0206 0.23975 0.0
H704 H 0.06932 0.09101 0.28221 0.0
H705 H 0.07497 0.05282 0.28069 0.0
H706 H 0.07147 1.00072 0.2295 0.0
H707 H 0.08766 0.0211 0.25422 0.0
H708 H 0.01745 0.12477 0.18091 0.0
H709 H 0.02857 0.14409 0.20832 0.0
H710 H 0.99256 0.08597 0.17359 0.0
H711 H 0.99945 0.04795 0.17094 0.0
C712 C 0.67406 0.9625 0.81111 0.0
C713 C 0.67846 0.97926 0.7884 0.0
C714 C 0.62839 1.00017 0.79191 0.0
C715 C 0.62379 0.98362 0.81463 0.0
N716 N 0.63921 0.94433 0.84306 0.0
N717 N 0.65675 0.00954 0.75459 0.0
C718 C 0.6458 0.96338 0.82348 0.0
C719 C 0.65488 0.99649 0.77804 0.0
N720 N 0.69709 0.94642 0.82112 0.0
N721 N 0.60725 0.01951 0.78313 0.0
H722 H 0.67468 0.00717 0.7422 0.0
H723 H 0.67468 0.00717 0.7422 0.0
H724 H 0.58757 0.02389 0.79284 0.0
H725 H 0.60993 0.0319 0.76641 0.0
H726 H 0.69644 0.93598 0.83885 0.0
H727 H 0.71775 0.94489 0.81223 0.0
H728 H 0.65285 0.92683 0.84873 0.0
H729 H 0.61887 0.94466 0.85257 0.0
C730 C 0.64889 0.42366 0.69244 0.0
C731 C 0.62205 0.43413 0.70332 0.0
C732 C 0.65157 0.46501 0.73272 0.0
C733 C 0.67711 0.44838 0.72619 0.0
N734 N 0.70138 0.43396 0.68751 0.0
N735 N 0.59779 0.46816 0.73214 0.0
C736 C 0.6764 0.4343 0.70213 0.0
C737 C 0.62334 0.45605 0.72287 0.0
N738 N 0.64844 0.40232 0.674 0.0
N739 N 0.65496 0.49183 0.74449 0.0
H740 H 0.57688 0.46386 0.72423 0.0
H741 H 0.59741 0.48144 0.74839 0.0
H742 H 0.67606 0.50117 0.74729 0.0
H743 H 0.63742 0.50633 0.74794 0.0
H744 H 0.66778 0.3921 0.66755 0.0
H745 H 0.62881 0.39311 0.66677 0.0
H746 H 0.70149 0.42619 0.6688 0.0
H747 H 0.7209 0.4447 0.69341 0.0
C748 C 0.95321 0.43287 0.82035 0.0
C749 C 0.97917 0.44459 0.80862 0.0
C750 C 0.94726 0.47271 0.77894 0.0
C751 C 0.92242 0.45576 0.78731 0.0
N752 N 0.90094 0.44123 0.82738 0.0
N753 N 1.00096 0.47769 0.77729 0.0
C754 C 0.925 0.44239 0.81168 0.0
C755 C 0.97626 0.46522 0.78808 0.0
N756 N 0.95517 0.4113 0.83869 0.0
N757 N 0.94263 0.49899 0.76652 0.0
H758 H 0.02239 0.47429 0.78441 0.0
H759 H 1.00014 0.49008 0.76046 0.0
H760 H 0.92134 0.50807 0.76508 0.0
H761 H 0.95968 0.51375 0.76169 0.0
H762 H 0.93644 0.40032 0.84582 0.0
H763 H 0.97535 0.40234 0.84483 0.0
H764 H 0.90222 0.4338 0.84621 0.0
H765 H 0.88068 0.45084 0.82209 0.0
C766 C 0.9426 0.98735 0.75026 0.0
C767 C 0.91884 0.97099 0.73908 0.0
C768 C 0.9527 0.95273 0.70613 0.0
C769 C 0.9748 0.973 0.71494 0.0
N770 N 0.98984 0.01208 0.74389 0.0
N771 N 0.9006 0.93769 0.70666 0.0
C772 C 0.96961 0.99079 0.73674 0.0
C773 C 0.92375 0.95327 0.71719 0.0
N774 N 0.9396 0.99899 0.77417 0.0
N775 N 0.95966 0.93274 0.68754 0.0
H776 H 0.8794 0.93721 0.7147 0.0
H777 H 0.90183 0.92662 0.68931 0.0
H778 H 0.98068 0.93192 0.6792 0.0
H779 H 0.9456 0.91551 0.68181 0.0
H780 H 0.95727 0.00822 0.7844 0.0
H781 H 0.92024 0.99675 0.78492 0.0
H782 H 0.98553 0.02804 0.75772 0.0
H783 H 0.01004 0.01551 0.73462 0.0
C784 C 0.50499 0.10685 0.04244 0.0
C785 C 0.51538 0.11268 0.01732 0.0
C786 C 0.53769 0.15916 0.03278 0.0
C787 C 0.534 0.14955 0.05842 0.0
N788 N 0.49348 0.12933 0.08291 0.0
N789 N 0.54187 0.1455 0.98853 0.0
C790 C 0.51188 0.1273 0.06242 0.0
C791 C 0.53191 0.13909 0.01249 0.0
N792 N 0.48867 0.08177 0.04735 0.0
N793 N 0.5415 0.18875 0.02767 0.0
H794 H 0.53696 0.1324 0.97269 0.0
H795 H 0.55674 0.1629 0.9849 0.0
H796 H 0.54036 0.20473 0.04204 0.0
H797 H 0.54154 0.19754 1.00925 0.0
H798 H 0.4829 0.07519 0.06576 0.0
H799 H 0.48303 0.06639 0.03325 0.0
H800 H 0.47524 0.1153 0.08575 0.0
H801 H 0.49344 0.14824 0.09442 0.0
C802 C 0.72283 0.50767 0.96148 0.0
C803 C 0.74582 0.48638 0.9643 0.0
C804 C 0.73825 0.48763 1.01078 0.0
C805 C 0.71087 0.50273 1.00692 0.0
N806 N 0.67654 0.52662 0.97782 0.0
N807 N 0.78627 0.47548 0.99292 0.0
C808 C 0.70295 0.5125 0.98201 0.0
C809 C 0.75681 0.48176 0.98947 0.0
N810 N 0.72387 0.52775 0.94198 0.0
N811 N 0.74663 0.4788 0.0347 0.0
H812 H 0.80104 0.47495 0.97762 0.0
H813 H 0.79661 0.47454 1.01071 0.0
H814 H 0.73484 0.48428 0.05107 0.0
H815 H 0.76437 0.46445 0.03811 0.0
H816 H 0.70875 0.54517 0.94005 0.0
H817 H 0.74322 0.53066 0.93132 0.0
H818 H 0.669 0.53205 0.95956 0.0
H819 H 0.66117 0.53047 0.99228 0.0
C820 C 0.09359 0.25294 0.03587 0.0
C821 C 0.07196 0.26553 0.05224 0.0
C822 C 0.07368 0.31205 0.02729 0.0
C823 C 0.09259 0.29828 1.0093 0.0
N824 N 0.11821 0.25447 0.99476 0.0
N825 N 0.03782 0.30546 0.0612 0.0
C826 C 0.10201 0.2684 0.01318 0.0
C827 C 0.06114 0.29473 0.0474 0.0
N828 N 0.10652 0.22645 0.04234 0.0
N829 N 0.06832 0.34193 0.02558 0.0
H830 H 0.02773 0.29356 0.07594 0.0
H831 H 0.02675 0.32511 0.05661 0.0
H832 H 0.07699 0.35532 0.01109 0.0
H833 H 0.05754 0.35391 0.03974 0.0
H834 H 0.12448 0.21739 0.03266 0.0
H835 H 0.10098 0.21468 0.05885 0.0
H836 H 0.12316 0.23186 0.99512 0.0
H837 H 0.12477 0.26499 0.97793 0.0
C838 C 0.88868 0.96154 0.97536 0.0
C839 C 0.8622 0.9466 0.96759 0.0
C840 C 0.86743 0.9116 1.00374 0.0
C841 C 0.89401 0.92663 0.01138 0.0
N842 N 0.93321 0.96159 1.00173 0.0
N843 N 0.82616 0.90744 0.97341 0.0
C844 C 0.90551 0.9504 0.99641 0.0
C845 C 0.85167 0.9214 0.98143 0.0
N846 N 0.89704 0.9873 0.96329 0.0
N847 N 0.85746 0.88793 0.01791 0.0
H848 H 0.81481 0.91368 0.95685 0.0
H849 H 0.81592 0.88973 0.98272 0.0
H850 H 0.86771 0.88108 0.03479 0.0
H851 H 0.83923 0.87469 0.01328 0.0
H852 H 0.91368 1.00146 0.97002 0.0
H853 H 0.88599 0.99578 0.94734 0.0
H854 H 0.94453 0.97636 0.98985 0.0
H855 H 0.94613 0.95425 0.01706 0.0
C856 C 0.50021 0.29638 0.47881 0.0
C857 C 0.51268 0.29176 0.50348 0.0
C858 C 0.53714 0.24711 0.48742 0.0
C859 C 0.5316 0.2561 0.46184 0.0
N860 N 0.48957 0.27404 0.4378 0.0
N861 N 0.5447 0.26255 0.53089 0.0
C862 C 0.50796 0.27679 0.45841 0.0
C863 C 0.53178 0.2672 0.50762 0.0
N864 N 0.4812 0.31956 0.47476 0.0
N865 N 0.54183 0.2178 0.49292 0.0
H866 H 0.5409 0.27617 0.54658 0.0
H867 H 0.56093 0.24632 0.53377 0.0
H868 H 0.53955 0.20137 0.479 0.0
H869 H 0.5435 0.20966 0.51152 0.0
H870 H 0.47379 0.32585 0.45669 0.0
H871 H 0.47455 0.33377 0.48933 0.0
H872 H 0.47042 0.28667 0.43515 0.0
H873 H 0.49088 0.25575 0.42563 0.0
C874 C 0.85681 0.50552 0.54159 0.0
C875 C 0.86613 0.47942 0.5548 0.0
C876 C 0.90802 0.47387 0.52515 0.0
C877 C 0.89761 0.4986 0.51078 0.0
N878 N 0.86348 0.53933 0.50542 0.0
N879 N 0.89805 0.43652 0.55754 0.0
C880 C 0.8724 0.51494 0.51913 0.0
C881 C 0.89118 0.46315 0.54624 0.0
N882 N 0.83261 0.52071 0.55035 0.0
N883 N 0.93467 0.46121 0.51908 0.0
H884 H 0.88695 0.42817 0.57348 0.0
H885 H 0.91333 0.42156 0.55014 0.0
H886 H 0.94762 0.46834 0.50376 0.0
H887 H 0.9453 0.4454 0.53042 0.0
H888 H 0.82357 0.53949 0.54176 0.0
H889 H 0.82125 0.51449 0.56684 0.0
H890 H 0.84581 0.55301 0.51019 0.0
H891 H 0.87407 0.54632 0.48878 0.0
C892 C 0.08341 0.14178 0.51753 0.0
C893 C 0.09108 0.11146 0.51391 0.0
C894 C 0.0773 0.11544 0.46858 0.0
C895 C 0.07063 0.14608 0.47202 0.0
N896 N 0.07424 0.19 0.49808 0.0
N897 N 0.10126 0.07102 0.4852 0.0
C898 C 0.07577 0.1597 0.49605 0.0
C899 C 0.08999 0.09883 0.48914 0.0
N900 N 0.08304 0.15339 0.54158 0.0
N901 N 0.07005 0.10172 0.44616 0.0
H902 H 0.1094 0.05763 0.49993 0.0
H903 H 0.10456 0.06208 0.46716 0.0
H904 H 0.06064 0.11291 0.43069 0.0
H905 H 0.07126 0.07879 0.44349 0.0
H906 H 0.07421 0.17417 0.54584 0.0
H907 H 0.08967 0.14142 0.5577 0.0
H908 H 0.08049 0.20167 0.51438 0.0
H909 H 0.06949 0.20382 0.48256 0.0
C910 C 0.71619 0.90426 0.53419 0.0
C911 C 0.70777 0.92403 0.51406 0.0
C912 C 0.73222 0.96487 0.53731 0.0
C913 C 0.74518 0.94413 0.55449 0.0
N914 N 0.75108 0.89325 0.56824 0.0
N915 N 0.68883 0.97405 0.51169 0.0
C916 C 0.73766 0.91356 0.55259 0.0
C917 C 0.71057 0.95493 0.51944 0.0
N918 N 0.69975 0.87919 0.53871 0.0
N919 N 0.74005 0.99427 0.53817 0.0
H920 H 0.66889 0.9663 0.50381 0.0
H921 H 0.68837 0.99643 0.51689 0.0
H922 H 0.75487 1.003 0.55157 0.0
H923 H 0.73341 0.00944 0.52417 0.0
H924 H 0.70333 0.86521 0.55432 0.0
H925 H 0.67965 0.87524 0.52922 0.0
H926 H 0.74848 0.87033 0.56586 0.0
H927 H 0.76676 0.8993 0.58204 0.0
C928 C 0.82997 0.25264 0.25206 0.0
C929 C 0.83632 0.27209 0.27278 0.0
C930 C 0.78463 0.29043 0.27147 0.0
C931 C 0.77796 0.26994 0.25168 0.0
N932 N 0.79465 0.23479 0.22027 0.0
N933 N 0.82252 0.31474 0.29755 0.0
C934 C 0.80087 0.25222 0.24101 0.0
C935 C 0.81439 0.29261 0.28105 0.0
N936 N 0.85136 0.23353 0.24367 0.0
N937 N 0.76233 0.30745 0.28132 0.0
H938 H 0.84432 0.31724 0.30419 0.0
H939 H 0.80867 0.3321 0.3029 0.0
H940 H 0.74069 0.30719 0.27403 0.0
H941 H 0.76469 0.3207 0.29742 0.0
H942 H 0.8476 0.21661 0.23061 0.0
H943 H 0.873 0.23311 0.25071 0.0
H944 H 0.81065 0.22436 0.20924 0.0
H945 H 0.77325 0.23172 0.21297 0.0
C946 C 0.62399 0.70699 0.28073 0.0
C947 C 0.60212 0.72978 0.27985 0.0
C948 C 0.5782 0.70567 0.24297 0.0
C949 C 0.60016 0.68299 0.24373 0.0
N950 N 0.64566 0.66315 0.26125 0.0
N951 N 0.55599 0.74884 0.26314 0.0
C952 C 0.62329 0.68372 0.26231 0.0
C953 C 0.57861 0.72865 0.26169 0.0
N954 N 0.64532 0.70752 0.29945 0.0
N955 N 0.5575 0.70568 0.22376 0.0
H956 H 0.5557 0.76602 0.27647 0.0
H957 H 0.5365 0.74762 0.25242 0.0
H958 H 0.55539 0.68833 0.21071 0.0
H959 H 0.54333 0.72339 0.21986 0.0
H960 H 0.65942 0.68986 0.30363 0.0
H961 H 0.64831 0.72537 0.31185 0.0
H962 H 0.66502 0.66405 0.27213 0.0
H963 H 0.64586 0.6456 0.24831 0.0
C964 C 0.81361 0.12368 0.24054 0.0
C965 C 0.83525 0.14456 0.24927 0.0
C966 C 0.79902 0.16398 0.28015 0.0
C967 C 0.7764 0.14592 0.26897 0.0
N968 N 0.76164 0.10804 0.23909 0.0
N969 N 0.84945 0.18341 0.27866 0.0
C970 C 0.78362 0.12545 0.24941 0.0
C971 C 0.82835 0.16397 0.26978 0.0
N972 N 0.82221 0.10158 0.22434 0.0
N973 N 0.79231 0.18132 0.30074 0.0
H974 H 0.8713 0.18397 0.27227 0.0
H975 H 0.84528 0.20042 0.29148 0.0
H976 H 0.77076 0.18408 0.30755 0.0
H977 H 0.80806 0.19192 0.31215 0.0
H978 H 0.80857 0.08397 0.21875 0.0
H979 H 0.84415 0.09939 0.21822 0.0
H980 H 0.76442 0.09476 0.22308 0.0
H981 H 0.73986 0.10796 0.24588 0.0
C982 C 0.02982 0.73436 0.26393 0.0
C983 C 0.01455 0.73085 0.24024 0.0
C984 C 0.99945 0.68053 0.25351 0.0
C985 C 0.00975 0.68584 0.27868 0.0
N986 N 0.03742 0.71743 0.30755 0.0
N987 N 0.0115 0.69068 0.20993 0.0
C988 C 0.02581 0.71267 0.28381 0.0
C989 C 1.00662 0.70109 0.2339 0.0
N990 N 0.05192 0.7552 0.26579 0.0
N991 N 0.98226 0.65622 0.24805 0.0
H992 H 0.02328 0.70326 0.19652 0.0
H993 H 0.00819 0.66842 0.20498 0.0
H994 H 0.9755 0.64085 0.26184 0.0
H995 H 0.9726 0.65315 0.23012 0.0
H996 H 0.06568 0.75762 0.28167 0.0
H997 H 0.05939 0.76699 0.24985 0.0
H998 H 0.04584 0.73795 0.31343 0.0
H999 H 0.03744 0.70116 0.32179 0.0
C1000 C 0.29821 0.02389 0.74727 0.0
C1001 C 0.27748 0.99984 0.7472 0.0
C1002 C 0.30488 0.97596 0.78255 0.0
C1003 C 0.32501 1.00056 0.78323 0.0
N1004 N 0.33895 0.04962 0.76852 0.0
N1005 N 0.26321 0.95093 0.76165 0.0
C1006 C 0.32141 0.02478 0.76593 0.0
C1007 C 0.28135 0.97535 0.7641 0.0
N1008 N 0.29593 0.04577 0.72914 0.0
N1009 N 0.30789 0.95358 0.80013 0.0
H1010 H 0.24575 0.94987 0.74851 0.0
H1011 H 0.26628 0.93097 0.77138 0.0
H1012 H 0.32596 0.95223 0.81263 0.0
H1013 H 0.29215 0.93691 0.80317 0.0
H1014 H 0.31245 0.06154 0.72559 0.0
H1015 H 0.27812 0.04731 0.71641 0.0
H1016 H 0.33536 0.06952 0.7588 0.0
H1017 H 0.35619 0.05131 0.78179 0.0
C1018 C 0.86186 0.18244 0.78056 0.0
C1019 C 0.86892 0.17853 0.75449 0.0
C1020 C 0.87527 0.23298 0.75071 0.0
C1021 C 0.86087 0.23667 0.77452 0.0
N1022 N 0.83874 0.21395 0.81181 0.0
N1023 N 0.90398 0.19935 0.72479 0.0
C1024 C 0.85393 0.21113 0.78948 0.0
C1025 C 0.88176 0.20366 0.74196 0.0
N1026 N 0.86668 0.15982 0.79742 0.0
N1027 N 0.8828 0.25733 0.73642 0.0
H1028 H 0.91284 0.17821 0.72174 0.0
H1029 H 0.91617 0.21666 0.71656 0.0
H1030 H 0.87977 0.27912 0.74271 0.0
H1031 H 0.89031 0.25576 0.71771 0.0
H1032 H 0.86412 0.1622 0.81705 0.0
H1033 H 0.87729 0.14027 0.79186 0.0
H1034 H 0.8307 0.19557 0.82192 0.0
H1035 H 0.8318 0.23443 0.8189 0.0
C1036 C 0.28193 0.42453 0.75492 0.0
C1037 C 0.27969 0.40174 0.77367 0.0
C1038 C 0.32426 0.37741 0.75614 0.0
C1039 C 0.32593 0.39965 0.73679 0.0
N1040 N 0.30592 0.44352 0.71663 0.0
N1041 N 0.30067 0.35884 0.79473 0.0
C1042 C 0.3047 0.42309 0.736 0.0
C1043 C 0.30152 0.37893 0.77506 0.0
N1044 N 0.26301 0.44828 0.75598 0.0
N1045 N 0.34325 0.35369 0.75541 0.0
H1046 H 0.28321 0.35757 0.80771 0.0
H1047 H 0.31791 0.34432 0.7992 0.0
H1048 H 0.36027 0.35175 0.7421 0.0
H1049 H 0.34129 0.33486 0.76688 0.0
H1050 H 0.26502 0.46732 0.74476 0.0
H1051 H 0.24612 0.44998 0.76946 0.0
H1052 H 0.28921 0.45881 0.71263 0.0
H1053 H 0.32339 0.44448 0.70363 0.0
C1054 C 0.71699 0.20212 0.77242 0.0
C1055 C 0.74315 0.18452 0.77033 0.0
C1056 C 0.76451 0.22226 0.7415 0.0
C1057 C 0.74045 0.24159 0.74644 0.0
N1058 N 0.69441 0.25112 0.76805 0.0
N1059 N 0.79433 0.18198 0.75741 0.0
C1060 C 0.71677 0.23183 0.7623 0.0
C1061 C 0.76744 0.19561 0.7559 0.0
N1062 N 0.69211 0.1901 0.78331 0.0
N1063 N 0.78464 0.22923 0.72288 0.0
H1064 H 0.79873 0.16451 0.76994 0.0
H1065 H 0.81301 0.19063 0.7485 0.0
H1066 H 0.78385 0.24889 0.71226 0.0
H1067 H 0.80038 0.21421 0.71622 0.0
H1068 H 0.67153 0.20066 0.78339 0.0
H1069 H 0.6914 0.16832 0.79027 0.0
H1070 H 0.67807 0.24658 0.78154 0.0
H1071 H 0.69342 0.27264 0.76051 0.0
loop_
_geom_bond_atom_site_label_1
_geom_bond_atom_site_label_2
_geom_bond_distance
_geom_bond_site_symmetry_2
_ccdc_geom_bond_type
C0 C1 1.264 . S
C0 C5 1.479 . S
C0 C10 1.465 . S
C1 C0 1.264 . S
C1 C3 1.339 . S
C1 H28 0.931 . S
C2 C3 1.395 . S
C2 C4 1.320 . S
C3 C1 1.339 . S
C3 C2 1.395 . S
C3 H29 0.929 . S
C4 C2 1.320 . S
C4 C5 1.405 . S
C4 H30 0.930 . S
C5 C0 1.479 . S
C5 C4 1.405 . S
C5 H31 0.931 . S
U6 O7 2.454 . S
U6 O8 2.458 . S
U6 C9 2.984 . S
U6 C10 2.847 . S
U6 C23 2.882 . S
U6 O24 2.441 . S
U6 O25 2.420 . S
U6 O26 2.455 . S
U6 O27 2.449 . S
O7 U6 2.454 . S
O7 C9 1.353 . S
O8 U6 2.458 . S
O8 C9 1.286 . S
C9 U6 2.984 . S
C9 O7 1.353 . S
C9 O8 1.286 . S
C9 C11 1.363 . S
C10 C0 1.465 . S
C10 U6 2.847 . S
C10 O24 1.249 . S
C10 O25 1.202 . S
C11 C9 1.363 . S
C11 C13 1.408 . S
C11 C16 1.342 . S
C12 C13 1.310 . S
C12 C15 1.461 . S
C12 H32 0.932 . S
C13 C11 1.408 . S
C13 C12 1.310 . S
C13 H33 0.930 . S
C14 C15 1.474 . S
C14 C16 1.285 . S
C14 H34 0.929 . S
C15 C12 1.461 . S
C15 C14 1.474 . S
C16 C11 1.342 . S
C16 C14 1.285 . S
C16 H35 0.930 . S
C17 C20 1.424 . S
C17 C22 1.245 . S
C17 C23 1.428 . S
C18 C21 1.260 . S
C18 C22 1.477 . S
C18 H36 0.932 . S
C19 C20 1.384 . S
C19 C21 1.479 . S
C19 H37 0.929 . S
C20 C17 1.424 . S
C20 C19 1.384 . S
C20 H38 0.928 . S
C21 C18 1.260 . S
C21 C19 1.479 . S
C22 C17 1.245 . S
C22 C18 1.477 . S
C22 H39 0.932 . S
C23 U6 2.882 . S
C23 C17 1.428 . S
C23 O26 1.301 . S
C23 O27 1.282 . S
O24 U6 2.441 . S
O24 C10 1.249 . S
O25 U6 2.420 . S
O25 C10 1.202 . S
O26 U6 2.455 . S
O26 C23 1.301 . S
O27 U6 2.449 . S
O27 C23 1.282 . S
H28 C1 0.931 . S
H29 C3 0.929 . S
H30 C4 0.930 . S
H31 C5 0.931 . S
H32 C12 0.932 . S
H33 C13 0.930 . S
H34 C14 0.929 . S
H35 C16 0.930 . S
H36 C18 0.932 . S
H37 C19 0.929 . S
H38 C20 0.928 . S
H39 C22 0.932 . S
C40 C41 1.264 . S
C40 C45 1.479 . S
C40 C50 1.465 . S
C41 C40 1.264 . S
C41 C43 1.339 . S
C41 H68 0.931 . S
C42 C43 1.395 . S
C42 C44 1.320 . S
C43 C41 1.339 . S
C43 C42 1.395 . S
C43 H69 0.929 . S
C44 C42 1.320 . S
C44 C45 1.405 . S
C44 H70 0.930 . S
C45 C40 1.479 . S
C45 C44 1.405 . S
C45 H71 0.931 . S
U46 O47 2.454 . S
U46 O48 2.458 . S
U46 C49 2.984 . S
U46 C50 2.847 . S
U46 C63 2.882 . S
U46 O64 2.441 . S
U46 O65 2.420 . S
U46 O66 2.455 . S
U46 O67 2.449 . S
O47 U46 2.454 . S
O47 C49 1.353 . S
O48 U46 2.458 . S
O48 C49 1.286 . S
C49 U46 2.984 . S
C49 O47 1.353 . S
C49 O48 1.286 . S
C49 C51 1.363 . S
C50 C40 1.465 . S
C50 U46 2.847 . S
C50 O64 1.249 . S
C50 O65 1.202 . S
C51 C49 1.363 . S
C51 C53 1.408 . S
C51 C56 1.342 . S
C52 C53 1.310 . S
C52 C55 1.461 . S
C52 H72 0.932 . S
C53 C51 1.408 . S
C53 C52 1.310 . S
C53 H73 0.930 . S
C54 C55 1.474 . S
C54 C56 1.285 . S
C54 H74 0.929 . S
C55 C52 1.461 . S
C55 C54 1.474 . S
C56 C51 1.342 . S
C56 C54 1.285 . S
C56 H75 0.930 . S
C57 C60 1.424 . S
C57 C62 1.245 . S
C57 C63 1.428 . S
C58 C61 1.260 . S
C58 C62 1.477 . S
C58 H76 0.932 . S
C59 C60 1.384 . S
C59 C61 1.479 . S
C59 H77 0.929 . S
C60 C57 1.424 . S
C60 C59 1.384 . S
C60 H78 0.928 . S
C61 C58 1.260 . S
C61 C59 1.479 . S
C62 C57 1.245 . S
C62 C58 1.477 . S
C62 H79 0.932 . S
C63 U46 2.882 . S
C63 C57 1.428 . S
C63 O66 1.301 . S
C63 O67 1.282 . S
O64 U46 2.441 . S
O64 C50 1.249 . S
O65 U46 2.420 . S
O65 C50 1.202 . S
O66 U46 2.455 . S
O66 C63 1.301 . S
O67 U46 2.449 . S
O67 C63 1.282 . S
H68 C41 0.931 . S
H69 C43 0.929 . S
H70 C44 0.930 . S
H71 C45 0.931 . S
H72 C52 0.932 . S
H73 C53 0.930 . S
H74 C54 0.929 . S
H75 C56 0.930 . S
H76 C58 0.932 . S
H77 C59 0.929 . S
H78 C60 0.928 . S
H79 C62 0.932 . S
C80 C81 1.264 . S
C80 C85 1.479 . S
C80 C90 1.465 . S
C81 C80 1.264 . S
C81 C83 1.339 . S
C81 H108 0.931 . S
C82 C83 1.395 . S
C82 C84 1.320 . S
C83 C81 1.339 . S
C83 C82 1.395 . S
C83 H109 0.929 . S
C84 C82 1.320 . S
C84 C85 1.405 . S
C84 H110 0.930 . S
C85 C80 1.479 . S
C85 C84 1.405 . S
C85 H111 0.931 . S
U86 O87 2.454 . S
U86 O88 2.458 . S
U86 C89 2.984 . S
U86 C90 2.847 1_455 S
U86 C103 2.882 . S
U86 O104 2.441 1_455 S
U86 O105 2.420 1_455 S
U86 O106 2.455 . S
U86 O107 2.449 . S
O87 U86 2.454 . S
O87 C89 1.353 . S
O88 U86 2.458 . S
O88 C89 1.286 . S
C89 U86 2.984 . S
C89 O87 1.353 . S
C89 O88 1.286 . S
C89 C91 1.363 . S
C90 C80 1.465 . S
C90 U86 2.847 1_655 S
C90 O104 1.249 . S
C90 O105 1.202 . S
C91 C89 1.363 . S
C91 C93 1.408 . S
C91 C96 1.342 . S
C92 C93 1.310 . S
C92 C95 1.461 . S
C92 H112 0.932 . S
C93 C91 1.408 . S
C93 C92 1.310 . S
C93 H113 0.930 . S
C94 C95 1.474 . S
C94 C96 1.285 . S
C94 H114 0.929 . S
C95 C92 1.461 . S
C95 C94 1.474 . S
C96 C91 1.342 . S
C96 C94 1.285 . S
C96 H115 0.930 . S
C97 C100 1.424 . S
C97 C102 1.245 . S
C97 C103 1.428 . S
C98 C101 1.260 . S
C98 C102 1.477 . S
C98 H116 0.932 . S
C99 C100 1.384 . S
C99 C101 1.479 . S
C99 H117 0.929 . S
C100 C97 1.424 . S
C100 C99 1.384 . S
C100 H118 0.928 . S
C101 C98 1.260 . S
C101 C99 1.479 . S
C102 C97 1.245 . S
C102 C98 1.477 . S
C102 H119 0.932 . S
C103 U86 2.882 . S
C103 C97 1.428 . S
C103 O106 1.301 . S
C103 O107 1.282 . S
O104 U86 2.441 1_655 S
O104 C90 1.249 . S
O105 U86 2.420 1_655 S
O105 C90 1.202 . S
O106 U86 2.455 . S
O106 C103 1.301 . S
O107 U86 2.449 . S
O107 C103 1.282 . S
H108 C81 0.931 . S
H109 C83 0.929 . S
H110 C84 0.930 . S
H111 C85 0.931 . S
H112 C92 0.932 . S
H113 C93 0.930 . S
H114 C94 0.929 . S
H115 C96 0.930 . S
H116 C98 0.932 . S
H117 C99 0.929 . S
H118 C100 0.928 . S
H119 C102 0.932 . S
C120 C121 1.264 . S
C120 C125 1.479 . S
C120 C130 1.465 . S
C121 C120 1.264 . S
C121 C123 1.339 . S
C121 H148 0.931 . S
C122 C123 1.395 . S
C122 C124 1.320 . S
C123 C121 1.339 . S
C123 C122 1.395 . S
C123 H149 0.929 . S
C124 C122 1.320 . S
C124 C125 1.405 . S
C124 H150 0.930 . S
C125 C120 1.479 . S
C125 C124 1.405 . S
C125 H151 0.931 . S
U126 O127 2.454 . S
U126 O128 2.458 1_655 S
U126 C129 2.985 1_655 S
U126 C130 2.847 . S
U126 C143 2.882 . S
U126 O144 2.441 . S
U126 O145 2.420 . S
U126 O146 2.455 . S
U126 O147 2.449 . S
O127 U126 2.454 . S
O127 C129 1.355 1_655 S
O128 U126 2.458 1_455 S
O128 C129 1.285 . S
C129 U126 2.985 1_455 S
C129 O127 1.355 1_455 S
C129 O128 1.285 . S
C129 C131 1.362 . S
C130 C120 1.465 . S
C130 U126 2.847 . S
C130 O144 1.249 . S
C130 O145 1.202 . S
C131 C129 1.362 . S
C131 C133 1.408 . S
C131 C136 1.342 . S
C132 C133 1.310 . S
C132 C135 1.461 . S
C132 H152 0.932 . S
C133 C131 1.408 . S
C133 C132 1.310 . S
C133 H153 0.930 1_455 S
C134 C135 1.474 . S
C134 C136 1.285 . S
C134 H154 0.929 . S
C135 C132 1.461 . S
C135 C134 1.474 . S
C136 C131 1.342 . S
C136 C134 1.285 . S
C136 H155 0.930 . S
C137 C140 1.424 . S
C137 C142 1.245 . S
C137 C143 1.428 1_455 S
C138 C141 1.260 1_565 S
C138 C142 1.477 . S
C138 H156 0.932 . S
C139 C140 1.384 1_545 S
C139 C141 1.479 . S
C139 H157 0.929 . S
C140 C137 1.424 . S
C140 C139 1.384 1_565 S
C140 H158 0.926 1_455 S
C141 C138 1.260 1_545 S
C141 C139 1.479 . S
C142 C137 1.245 . S
C142 C138 1.477 . S
C142 H159 0.932 . S
C143 U126 2.882 . S
C143 C137 1.428 1_655 S
C143 O146 1.301 . S
C143 O147 1.282 . S
O144 U126 2.441 . S
O144 C130 1.249 . S
O145 U126 2.420 . S
O145 C130 1.202 . S
O146 U126 2.455 . S
O146 C143 1.301 . S
O147 U126 2.449 . S
O147 C143 1.282 . S
H148 C121 0.931 . S
H149 C123 0.929 . S
H150 C124 0.930 . S
H151 C125 0.931 . S
H152 C132 0.932 . S
H153 C133 0.930 1_655 S
H154 C134 0.929 . S
H155 C136 0.930 . S
H156 C138 0.932 . S
H157 C139 0.929 . S
H158 C140 0.926 1_655 S
H159 C142 0.932 . S
C160 C161 1.264 . S
C160 C165 1.479 . S
C160 C170 1.465 . S
C161 C160 1.264 . S
C161 C163 1.339 . S
C161 H188 0.931 . S
C162 C163 1.395 . S
C162 C164 1.320 . S
C163 C161 1.339 . S
C163 C162 1.395 . S
C163 H189 0.929 . S
C164 C162 1.320 . S
C164 C165 1.405 . S
C164 H190 0.930 . S
C165 C160 1.479 . S
C165 C164 1.405 . S
C165 H191 0.931 . S
U166 O167 2.454 . S
U166 O168 2.458 . S
U166 C169 2.984 . S
U166 C170 2.847 . S
U166 C183 2.882 . S
U166 O184 2.441 . S
U166 O185 2.420 . S
U166 O186 2.455 . S
U166 O187 2.449 . S
O167 U166 2.454 . S
O167 C169 1.353 . S
O168 U166 2.458 . S
O168 C169 1.286 . S
C169 U166 2.984 . S
C169 O167 1.353 . S
C169 O168 1.286 . S
C169 C171 1.363 . S
C170 C160 1.465 . S
C170 U166 2.847 . S
C170 O184 1.249 . S
C170 O185 1.202 . S
C171 C169 1.363 . S
C171 C173 1.408 . S
C171 C176 1.342 . S
C172 C173 1.310 . S
C172 C175 1.461 . S
C172 H192 0.932 . S
C173 C171 1.408 . S
C173 C172 1.310 . S
C173 H193 0.930 . S
C174 C175 1.474 . S
C174 C176 1.285 . S
C174 H194 0.929 . S
C175 C172 1.461 . S
C175 C174 1.474 . S
C176 C171 1.342 . S
C176 C174 1.285 . S
C176 H195 0.930 . S
C177 C180 1.424 . S
C177 C182 1.245 . S
C177 C183 1.428 . S
C178 C181 1.260 . S
C178 C182 1.477 . S
C178 H196 0.932 . S
C179 C180 1.384 . S
C179 C181 1.479 . S
C179 H197 0.929 . S
C180 C177 1.424 . S
C180 C179 1.384 . S
C180 H198 0.928 . S
C181 C178 1.260 . S
C181 C179 1.479 . S
C182 C177 1.245 . S
C182 C178 1.477 . S
C182 H199 0.932 . S
C183 U166 2.882 . S
C183 C177 1.428 . S
C183 O186 1.301 . S
C183 O187 1.282 . S
O184 U166 2.441 . S
O184 C170 1.249 . S
O185 U166 2.420 . S
O185 C170 1.202 . S
O186 U166 2.455 . S
O186 C183 1.301 . S
O187 U166 2.449 . S
O187 C183 1.282 . S
H188 C161 0.931 . S
H189 C163 0.929 . S
H190 C164 0.930 . S
H191 C165 0.931 . S
H192 C172 0.932 . S
H193 C173 0.930 . S
H194 C174 0.929 . S
H195 C176 0.930 . S
H196 C178 0.932 . S
H197 C179 0.929 . S
H198 C180 0.928 . S
H199 C182 0.932 . S
C200 C201 1.264 . S
C200 C205 1.479 . S
C200 C210 1.465 . S
C201 C200 1.264 . S
C201 C203 1.339 . S
C201 H228 0.931 . S
C202 C203 1.395 . S
C202 C204 1.320 . S
C203 C201 1.339 . S
C203 C202 1.395 . S
C203 H229 0.929 . S
C204 C202 1.320 . S
C204 C205 1.405 . S
C204 H230 0.930 . S
C205 C200 1.479 . S
C205 C204 1.405 . S
C205 H231 0.931 . S
U206 O207 2.454 . S
U206 O208 2.458 1_655 S
U206 C209 2.984 . S
U206 C210 2.847 . S
U206 C223 2.882 . S
U206 O224 2.441 . S
U206 O225 2.420 . S
U206 O226 2.455 . S
U206 O227 2.449 . S
O207 U206 2.454 . S
O207 C209 1.353 . S
O208 U206 2.458 1_455 S
O208 C209 1.286 1_455 S
C209 U206 2.984 . S
C209 O207 1.353 . S
C209 O208 1.286 1_655 S
C209 C211 1.364 1_655 S
C210 C200 1.465 . S
C210 U206 2.847 . S
C210 O224 1.249 . S
C210 O225 1.202 . S
C211 C209 1.364 1_455 S
C211 C213 1.408 . S
C211 C216 1.342 . S
C212 C213 1.310 . S
C212 C215 1.461 . S
C212 H232 0.932 . S
C213 C211 1.408 . S
C213 C212 1.310 . S
C213 H233 0.930 1_455 S
C214 C215 1.474 . S
C214 C216 1.285 . S
C214 H234 0.929 . S
C215 C212 1.461 . S
C215 C214 1.474 . S
C216 C211 1.342 . S
C216 C214 1.285 . S
C216 H235 0.930 . S
C217 C220 1.424 . S
C217 C222 1.245 . S
C217 C223 1.428 1_455 S
C218 C221 1.260 . S
C218 C222 1.477 . S
C218 H236 0.932 . S
C219 C220 1.384 . S
C219 C221 1.479 . S
C219 H237 0.929 . S
C220 C217 1.424 . S
C220 C219 1.384 . S
C220 H238 0.923 1_455 S
C221 C218 1.260 . S
C221 C219 1.479 . S
C222 C217 1.245 . S
C222 C218 1.477 . S
C222 H239 0.932 . S
C223 U206 2.882 . S
C223 C217 1.428 1_655 S
C223 O226 1.301 . S
C223 O227 1.282 . S
O224 U206 2.441 . S
O224 C210 1.249 . S
O225 U206 2.420 . S
O225 C210 1.202 . S
O226 U206 2.455 . S
O226 C223 1.301 . S
O227 U206 2.449 . S
O227 C223 1.282 . S
H228 C201 0.931 . S
H229 C203 0.929 . S
H230 C204 0.930 . S
H231 C205 0.931 . S
H232 C212 0.932 . S
H233 C213 0.930 1_655 S
H234 C214 0.929 . S
H235 C216 0.930 . S
H236 C218 0.932 . S
H237 C219 0.929 . S
H238 C220 0.923 1_655 S
H239 C222 0.932 . S
C240 C241 1.264 . S
C240 C245 1.479 . S
C240 C250 1.465 . S
C241 C240 1.264 . S
C241 C243 1.339 . S
C241 H268 0.931 . S
C242 C243 1.395 . S
C242 C244 1.320 . S
C243 C241 1.339 . S
C243 C242 1.395 . S
C243 H269 0.929 . S
C244 C242 1.320 . S
C244 C245 1.405 . S
C244 H270 0.930 . S
C245 C240 1.479 . S
C245 C244 1.405 . S
C245 H271 0.931 . S
U246 O247 2.454 . S
U246 O248 2.458 . S
U246 C249 2.984 . S
U246 C250 2.847 1_455 S
U246 C263 2.882 . S
U246 O264 2.441 1_455 S
U246 O265 2.420 1_455 S
U246 O266 2.455 . S
U246 O267 2.449 . S
O247 U246 2.454 . S
O247 C249 1.353 . S
O248 U246 2.458 . S
O248 C249 1.286 . S
C249 U246 2.984 . S
C249 O247 1.353 . S
C249 O248 1.286 . S
C249 C251 1.363 . S
C250 C240 1.465 . S
C250 U246 2.847 1_655 S
C250 O264 1.249 . S
C250 O265 1.202 . S
C251 C249 1.363 . S
C251 C253 1.408 . S
C251 C256 1.342 . S
C252 C253 1.310 . S
C252 C255 1.461 . S
C252 H272 0.932 . S
C253 C251 1.408 . S
C253 C252 1.310 . S
C253 H273 0.930 . S
C254 C255 1.474 . S
C254 C256 1.285 . S
C254 H274 0.929 . S
C255 C252 1.461 . S
C255 C254 1.474 . S
C256 C251 1.342 . S
C256 C254 1.285 . S
C256 H275 0.930 . S
C257 C260 1.424 . S
C257 C262 1.245 . S
C257 C263 1.428 . S
C258 C261 1.260 . S
C258 C262 1.477 . S
C258 H276 0.932 . S
C259 C260 1.384 . S
C259 C261 1.479 . S
C259 H277 0.929 . S
C260 C257 1.424 . S
C260 C259 1.384 . S
C260 H278 0.928 . S
C261 C258 1.260 . S
C261 C259 1.479 . S
C262 C257 1.245 . S
C262 C258 1.477 . S
C262 H279 0.932 . S
C263 U246 2.882 . S
C263 C257 1.428 . S
C263 O266 1.301 . S
C263 O267 1.282 . S
O264 U246 2.441 1_655 S
O264 C250 1.249 . S
O265 U246 2.420 1_655 S
O265 C250 1.202 . S
O266 U246 2.455 . S
O266 C263 1.301 . S
O267 U246 2.449 . S
O267 C263 1.282 . S
H268 C241 0.931 . S
H269 C243 0.929 . S
H270 C244 0.930 . S
H271 C245 0.931 . S
H272 C252 0.932 . S
H273 C253 0.930 . S
H274 C254 0.929 . S
H275 C256 0.930 . S
H276 C258 0.932 . S
H277 C259 0.929 . S
H278 C260 0.928 . S
H279 C262 0.932 . S
C280 C281 1.264 . S
C280 C285 1.479 . S
C280 C290 1.465 . S
C281 C280 1.264 . S
C281 C283 1.339 . S
C281 H308 0.931 . S
C282 C283 1.395 . S
C282 C284 1.320 . S
C283 C281 1.339 . S
C283 C282 1.395 . S
C283 H309 0.929 . S
C284 C282 1.320 . S
C284 C285 1.405 . S
C284 H310 0.930 . S
C285 C280 1.479 . S
C285 C284 1.405 . S
C285 H311 0.931 . S
U286 O287 2.454 . S
U286 O288 2.458 . S
U286 C289 2.984 . S
U286 C290 2.847 . S
U286 C303 2.882 . S
U286 O304 2.441 . S
U286 O305 2.420 . S
U286 O306 2.455 . S
U286 O307 2.449 . S
O287 U286 2.454 . S
O287 C289 1.353 . S
O288 U286 2.458 . S
O288 C289 1.286 . S
C289 U286 2.984 . S
C289 O287 1.353 . S
C289 O288 1.286 . S
C289 C291 1.363 . S
C290 C280 1.465 . S
C290 U286 2.847 . S
C290 O304 1.249 . S
C290 O305 1.202 . S
C291 C289 1.363 . S
C291 C293 1.408 . S
C291 C296 1.342 . S
C292 C293 1.310 . S
C292 C295 1.461 . S
C292 H312 0.932 . S
C293 C291 1.408 . S
C293 C292 1.310 . S
C293 H313 0.930 . S
C294 C295 1.474 . S
C294 C296 1.285 . S
C294 H314 0.929 . S
C295 C292 1.461 . S
C295 C294 1.474 . S
C296 C291 1.342 . S
C296 C294 1.285 . S
C296 H315 0.930 . S
C297 C300 1.424 . S
C297 C302 1.245 . S
C297 C303 1.428 . S
C298 C301 1.260 1_565 S
C298 C302 1.477 . S
C298 H316 0.932 . S
C299 C300 1.384 1_545 S
C299 C301 1.479 . S
C299 H317 0.929 . S
C300 C297 1.424 . S
C300 C299 1.384 1_565 S
C300 H318 0.928 . S
C301 C298 1.260 1_545 S
C301 C299 1.479 . S
C302 C297 1.245 . S
C302 C298 1.477 . S
C302 H319 0.932 . S
C303 U286 2.882 . S
C303 C297 1.428 . S
C303 O306 1.301 . S
C303 O307 1.282 . S
O304 U286 2.441 . S
O304 C290 1.249 . S
O305 U286 2.420 . S
O305 C290 1.202 . S
O306 U286 2.455 . S
O306 C303 1.301 . S
O307 U286 2.449 . S
O307 C303 1.282 . S
H308 C281 0.931 . S
H309 C283 0.929 . S
H310 C284 0.930 . S
H311 C285 0.931 . S
H312 C292 0.932 . S
H313 C293 0.930 . S
H314 C294 0.929 . S
H315 C296 0.930 . S
H316 C298 0.932 . S
H317 C299 0.929 . S
H318 C300 0.928 . S
H319 C302 0.932 . S
C320 C321 1.264 1_545 S
C320 C325 1.479 . S
C320 C330 1.465 . S
C321 C320 1.264 1_565 S
C321 C323 1.339 . S
C321 H348 0.931 . S
C322 C323 1.395 . S
C322 C324 1.320 . S
C323 C321 1.339 . S
C323 C322 1.395 . S
C323 H349 0.929 . S
C324 C322 1.320 . S
C324 C325 1.405 1_565 S
C324 H350 0.930 . S
C325 C320 1.479 . S
C325 C324 1.405 1_545 S
C325 H351 0.931 . S
U326 O327 2.454 . S
U326 O328 2.458 . S
U326 C329 2.984 . S
U326 C330 2.847 . S
U326 C343 2.882 . S
U326 O344 2.441 . S
U326 O345 2.420 . S
U326 O346 2.455 . S
U326 O347 2.449 . S
O327 U326 2.454 . S
O327 C329 1.353 . S
O328 U326 2.458 . S
O328 C329 1.286 . S
C329 U326 2.984 . S
C329 O327 1.353 . S
C329 O328 1.286 . S
C329 C331 1.363 . S
C330 C320 1.465 . S
C330 U326 2.847 . S
C330 O344 1.249 . S
C330 O345 1.202 . S
C331 C329 1.363 . S
C331 C333 1.408 . S
C331 C336 1.342 . S
C332 C333 1.310 . S
C332 C335 1.461 . S
C332 H352 0.932 . S
C333 C331 1.408 . S
C333 C332 1.310 . S
C333 H353 0.930 . S
C334 C335 1.474 . S
C334 C336 1.285 . S
C334 H354 0.929 . S
C335 C332 1.461 . S
C335 C334 1.474 . S
C336 C331 1.342 . S
C336 C334 1.285 . S
C336 H355 0.930 . S
C337 C340 1.424 . S
C337 C342 1.245 . S
C337 C343 1.428 1_565 S
C338 C341 1.260 . S
C338 C342 1.477 . S
C338 H356 0.932 . S
C339 C340 1.384 . S
C339 C341 1.479 . S
C339 H357 0.929 . S
C340 C337 1.424 . S
C340 C339 1.384 . S
C340 H358 0.928 . S
C341 C338 1.260 . S
C341 C339 1.479 . S
C342 C337 1.245 . S
C342 C338 1.477 . S
C342 H359 0.932 1_565 S
C343 U326 2.882 . S
C343 C337 1.428 1_545 S
C343 O346 1.301 . S
C343 O347 1.282 . S
O344 U326 2.441 . S
O344 C330 1.249 . S
O345 U326 2.420 . S
O345 C330 1.202 . S
O346 U326 2.455 . S
O346 C343 1.301 . S
O347 U326 2.449 . S
O347 C343 1.282 . S
H348 C321 0.931 . S
H349 C323 0.929 . S
H350 C324 0.930 . S
H351 C325 0.931 . S
H352 C332 0.932 . S
H353 C333 0.930 . S
H354 C334 0.929 . S
H355 C336 0.930 . S
H356 C338 0.932 . S
H357 C339 0.929 . S
H358 C340 0.928 . S
H359 C342 0.932 1_545 S
C360 C361 1.264 . S
C360 C365 1.479 . S
C360 C370 1.465 . S
C361 C360 1.264 . S
C361 C363 1.339 . S
C361 H388 0.931 . S
C362 C363 1.395 . S
C362 C364 1.320 . S
C363 C361 1.339 . S
C363 C362 1.395 . S
C363 H389 0.929 . S
C364 C362 1.320 . S
C364 C365 1.405 . S
C364 H390 0.930 . S
C365 C360 1.479 . S
C365 C364 1.405 . S
C365 H391 0.931 . S
U366 O367 2.454 . S
U366 O368 2.458 . S
U366 C369 2.984 . S
U366 C370 2.847 . S
U366 C383 2.882 . S
U366 O384 2.441 . S
U366 O385 2.420 . S
U366 O386 2.455 . S
U366 O387 2.449 . S
O367 U366 2.454 . S
O367 C369 1.353 . S
O368 U366 2.458 . S
O368 C369 1.286 . S
C369 U366 2.984 . S
C369 O367 1.353 . S
C369 O368 1.286 . S
C369 C371 1.363 . S
C370 C360 1.465 . S
C370 U366 2.847 . S
C370 O384 1.249 . S
C370 O385 1.202 . S
C371 C369 1.363 . S
C371 C373 1.408 . S
C371 C376 1.342 . S
C372 C373 1.310 . S
C372 C375 1.461 . S
C372 H392 0.932 . S
C373 C371 1.408 . S
C373 C372 1.310 . S
C373 H393 0.930 . S
C374 C375 1.474 . S
C374 C376 1.285 . S
C374 H394 0.929 . S
C375 C372 1.461 . S
C375 C374 1.474 . S
C376 C371 1.342 . S
C376 C374 1.285 . S
C376 H395 0.930 . S
C377 C380 1.424 . S
C377 C382 1.245 . S
C377 C383 1.428 . S
C378 C381 1.260 . S
C378 C382 1.477 . S
C378 H396 0.932 . S
C379 C380 1.384 . S
C379 C381 1.479 . S
C379 H397 0.929 . S
C380 C377 1.424 . S
C380 C379 1.384 . S
C380 H398 0.928 . S
C381 C378 1.260 . S
C381 C379 1.479 . S
C382 C377 1.245 . S
C382 C378 1.477 . S
C382 H399 0.932 . S
C383 U366 2.882 . S
C383 C377 1.428 . S
C383 O386 1.301 . S
C383 O387 1.282 . S
O384 U366 2.441 . S
O384 C370 1.249 . S
O385 U366 2.420 . S
O385 C370 1.202 . S
O386 U366 2.455 . S
O386 C383 1.301 . S
O387 U366 2.449 . S
O387 C383 1.282 . S
H388 C361 0.931 . S
H389 C363 0.929 . S
H390 C364 0.930 . S
H391 C365 0.931 . S
H392 C372 0.932 . S
H393 C373 0.930 . S
H394 C374 0.929 . S
H395 C376 0.930 . S
H396 C378 0.932 . S
H397 C379 0.929 . S
H398 C380 0.928 . S
H399 C382 0.932 . S
C400 C401 1.264 . S
C400 C405 1.479 . S
C400 C410 1.465 . S
C401 C400 1.264 . S
C401 C403 1.339 . S
C401 H428 0.931 . S
C402 C403 1.395 . S
C402 C404 1.320 . S
C403 C401 1.339 . S
C403 C402 1.395 . S
C403 H429 0.929 . S
C404 C402 1.320 . S
C404 C405 1.405 . S
C404 H430 0.930 . S
C405 C400 1.479 . S
C405 C404 1.405 . S
C405 H431 0.931 . S
U406 O407 2.454 . S
U406 O408 2.458 . S
U406 C409 2.984 . S
U406 C410 2.847 . S
U406 C423 2.882 . S
U406 O424 2.441 . S
U406 O425 2.420 . S
U406 O426 2.455 . S
U406 O427 2.449 . S
O407 U406 2.454 . S
O407 C409 1.353 . S
O408 U406 2.458 . S
O408 C409 1.286 . S
C409 U406 2.984 . S
C409 O407 1.353 . S
C409 O408 1.286 . S
C409 C411 1.363 . S
C410 C400 1.465 . S
C410 U406 2.847 . S
C410 O424 1.249 . S
C410 O425 1.202 . S
C411 C409 1.363 . S
C411 C413 1.408 . S
C411 C416 1.342 . S
C412 C413 1.310 . S
C412 C415 1.461 . S
C412 H432 0.932 . S
C413 C411 1.408 . S
C413 C412 1.310 . S
C413 H433 0.930 . S
C414 C415 1.474 . S
C414 C416 1.285 . S
C414 H434 0.929 . S
C415 C412 1.461 . S
C415 C414 1.474 . S
C416 C411 1.342 . S
C416 C414 1.285 . S
C416 H435 0.930 . S
C417 C420 1.424 . S
C417 C422 1.245 . S
C417 C423 1.428 . S
C418 C421 1.260 1_455 S
C418 C422 1.477 . S
C418 H436 0.932 . S
C419 C420 1.384 1_655 S
C419 C421 1.479 . S
C419 H437 0.929 . S
C420 C417 1.424 . S
C420 C419 1.384 1_455 S
C420 H438 0.928 . S
C421 C418 1.260 1_655 S
C421 C419 1.479 . S
C422 C417 1.245 . S
C422 C418 1.477 . S
C422 H439 0.932 . S
C423 U406 2.882 . S
C423 C417 1.428 . S
C423 O426 1.301 . S
C423 O427 1.282 . S
O424 U406 2.441 . S
O424 C410 1.249 . S
O425 U406 2.420 . S
O425 C410 1.202 . S
O426 U406 2.455 . S
O426 C423 1.301 . S
O427 U406 2.449 . S
O427 C423 1.282 . S
H428 C401 0.931 . S
H429 C403 0.929 . S
H430 C404 0.930 . S
H431 C405 0.931 . S
H432 C412 0.932 . S
H433 C413 0.930 . S
H434 C414 0.929 . S
H435 C416 0.930 . S
H436 C418 0.932 . S
H437 C419 0.929 . S
H438 C420 0.928 . S
H439 C422 0.932 . S
C440 C441 1.264 . S
C440 C445 1.479 . S
C440 C450 1.465 . S
C441 C440 1.264 . S
C441 C443 1.339 . S
C441 H468 0.931 . S
C442 C443 1.395 . S
C442 C444 1.320 . S
C443 C441 1.339 . S
C443 C442 1.395 . S
C443 H469 0.929 . S
C444 C442 1.320 . S
C444 C445 1.405 . S
C444 H470 0.930 . S
C445 C440 1.479 . S
C445 C444 1.405 . S
C445 H471 0.931 . S
U446 O447 2.454 1_565 S
U446 O448 2.458 1_565 S
U446 C449 2.984 1_565 S
U446 C450 2.847 . S
U446 C463 2.882 . S
U446 O464 2.441 . S
U446 O465 2.420 . S
U446 O466 2.455 . S
U446 O467 2.449 . S
O447 U446 2.454 1_545 S
O447 C449 1.353 . S
O448 U446 2.458 1_545 S
O448 C449 1.286 . S
C449 U446 2.984 1_545 S
C449 O447 1.353 . S
C449 O448 1.286 . S
C449 C451 1.363 . S
C450 C440 1.465 . S
C450 U446 2.847 . S
C450 O464 1.249 . S
C450 O465 1.202 . S
C451 C449 1.363 . S
C451 C453 1.408 . S
C451 C456 1.342 . S
C452 C453 1.310 . S
C452 C455 1.461 . S
C452 H472 0.932 . S
C453 C451 1.408 . S
C453 C452 1.310 . S
C453 H473 0.930 . S
C454 C455 1.474 . S
C454 C456 1.285 . S
C454 H474 0.929 . S
C455 C452 1.461 . S
C455 C454 1.474 . S
C456 C451 1.342 . S
C456 C454 1.285 . S
C456 H475 0.930 . S
C457 C460 1.424 . S
C457 C462 1.245 . S
C457 C463 1.428 . S
C458 C461 1.260 . S
C458 C462 1.477 . S
C458 H476 0.932 . S
C459 C460 1.384 . S
C459 C461 1.479 . S
C459 H477 0.929 . S
C460 C457 1.424 . S
C460 C459 1.384 . S
C460 H478 0.928 . S
C461 C458 1.260 . S
C461 C459 1.479 . S
C462 C457 1.245 . S
C462 C458 1.477 . S
C462 H479 0.932 . S
C463 U446 2.882 . S
C463 C457 1.428 . S
C463 O466 1.301 . S
C463 O467 1.282 . S
O464 U446 2.441 . S
O464 C450 1.249 . S
O465 U446 2.420 . S
O465 C450 1.202 . S
O466 U446 2.455 . S
O466 C463 1.301 . S
O467 U446 2.449 . S
O467 C463 1.282 . S
H468 C441 0.931 . S
H469 C443 0.929 . S
H470 C444 0.930 . S
H471 C445 0.931 . S
H472 C452 0.932 . S
H473 C453 0.930 . S
H474 C454 0.929 . S
H475 C456 0.930 . S
H476 C458 0.932 . S
H477 C459 0.929 . S
H478 C460 0.928 . S
H479 C462 0.932 . S
C480 C481 1.264 . S
C480 C485 1.479 . S
C480 C490 1.465 . S
C481 C480 1.264 . S
C481 C483 1.339 . S
C481 H508 0.931 . S
C482 C483 1.395 . S
C482 C484 1.320 . S
C483 C481 1.339 . S
C483 C482 1.395 . S
C483 H509 0.929 . S
C484 C482 1.320 . S
C484 C485 1.405 . S
C484 H510 0.930 . S
C485 C480 1.479 . S
C485 C484 1.405 . S
C485 H511 0.931 . S
U486 O487 2.454 . S
U486 O488 2.458 . S
U486 C489 2.984 . S
U486 C490 2.847 . S
U486 C503 2.882 . S
U486 O504 2.441 . S
U486 O505 2.420 . S
U486 O506 2.455 . S
U486 O507 2.449 . S
O487 U486 2.454 . S
O487 C489 1.353 . S
O488 U486 2.458 . S
O488 C489 1.286 . S
C489 U486 2.984 . S
C489 O487 1.353 . S
C489 O488 1.286 . S
C489 C491 1.363 . S
C490 C480 1.465 . S
C490 U486 2.847 . S
C490 O504 1.249 . S
C490 O505 1.202 . S
C491 C489 1.363 . S
C491 C493 1.408 . S
C491 C496 1.342 . S
C492 C493 1.310 . S
C492 C495 1.461 . S
C492 H512 0.932 . S
C493 C491 1.408 . S
C493 C492 1.310 . S
C493 H513 0.930 . S
C494 C495 1.474 . S
C494 C496 1.285 . S
C494 H514 0.929 . S
C495 C492 1.461 . S
C495 C494 1.474 . S
C496 C491 1.342 . S
C496 C494 1.285 . S
C496 H515 0.930 . S
C497 C500 1.424 . S
C497 C502 1.245 . S
C497 C503 1.428 . S
C498 C501 1.260 . S
C498 C502 1.477 . S
C498 H516 0.932 . S
C499 C500 1.384 . S
C499 C501 1.479 . S
C499 H517 0.929 . S
C500 C497 1.424 . S
C500 C499 1.384 . S
C500 H518 0.928 . S
C501 C498 1.260 . S
C501 C499 1.479 . S
C502 C497 1.245 . S
C502 C498 1.477 . S
C502 H519 0.932 . S
C503 U486 2.882 . S
C503 C497 1.428 . S
C503 O506 1.301 . S
C503 O507 1.282 . S
O504 U486 2.441 . S
O504 C490 1.249 . S
O505 U486 2.420 . S
O505 C490 1.202 . S
O506 U486 2.455 . S
O506 C503 1.301 . S
O507 U486 2.449 . S
O507 C503 1.282 . S
H508 C481 0.931 . S
H509 C483 0.929 . S
H510 C484 0.930 . S
H511 C485 0.931 . S
H512 C492 0.932 . S
H513 C493 0.930 . S
H514 C494 0.929 . S
H515 C496 0.930 . S
H516 C498 0.932 . S
H517 C499 0.929 . S
H518 C500 0.928 . S
H519 C502 0.932 . S
C520 C521 1.264 . S
C520 C525 1.479 . S
C520 C530 1.465 . S
C521 C520 1.264 . S
C521 C523 1.339 . S
C521 H548 0.931 . S
C522 C523 1.395 . S
C522 C524 1.320 . S
C523 C521 1.339 . S
C523 C522 1.395 . S
C523 H549 0.929 . S
C524 C522 1.320 . S
C524 C525 1.405 . S
C524 H550 0.930 . S
C525 C520 1.479 . S
C525 C524 1.405 . S
C525 H551 0.931 . S
U526 O527 2.454 . S
U526 O528 2.458 . S
U526 C529 2.984 . S
U526 C530 2.847 . S
U526 C543 2.882 . S
U526 O544 2.441 . S
U526 O545 2.420 . S
U526 O546 2.455 . S
U526 O547 2.449 . S
O527 U526 2.454 . S
O527 C529 1.353 . S
O528 U526 2.458 . S
O528 C529 1.286 . S
C529 U526 2.984 . S
C529 O527 1.353 . S
C529 O528 1.286 . S
C529 C531 1.363 . S
C530 C520 1.465 . S
C530 U526 2.847 . S
C530 O544 1.249 . S
C530 O545 1.202 . S
C531 C529 1.363 . S
C531 C533 1.408 . S
C531 C536 1.342 . S
C532 C533 1.310 . S
C532 C535 1.461 . S
C532 H552 0.932 . S
C533 C531 1.408 . S
C533 C532 1.310 . S
C533 H553 0.930 . S
C534 C535 1.474 . S
C534 C536 1.285 . S
C534 H554 0.929 . S
C535 C532 1.461 . S
C535 C534 1.474 . S
C536 C531 1.342 . S
C536 C534 1.285 . S
C536 H555 0.930 . S
C537 C540 1.424 . S
C537 C542 1.245 . S
C537 C543 1.428 . S
C538 C541 1.260 . S
C538 C542 1.477 . S
C538 H556 0.932 . S
C539 C540 1.384 . S
C539 C541 1.479 . S
C539 H557 0.929 . S
C540 C537 1.424 . S
C540 C539 1.384 . S
C540 H558 0.928 . S
C541 C538 1.260 . S
C541 C539 1.479 . S
C542 C537 1.245 . S
C542 C538 1.477 . S
C542 H559 0.932 . S
C543 U526 2.882 . S
C543 C537 1.428 . S
C543 O546 1.301 . S
C543 O547 1.282 . S
O544 U526 2.441 . S
O544 C530 1.249 . S
O545 U526 2.420 . S
O545 C530 1.202 . S
O546 U526 2.455 . S
O546 C543 1.301 . S
O547 U526 2.449 . S
O547 C543 1.282 . S
H548 C521 0.931 . S
H549 C523 0.929 . S
H550 C524 0.930 . S
H551 C525 0.931 . S
H552 C532 0.932 . S
H553 C533 0.930 . S
H554 C534 0.929 . S
H555 C536 0.930 . S
H556 C538 0.932 . S
H557 C539 0.929 . S
H558 C540 0.928 . S
H559 C542 0.932 . S
C560 C561 1.264 . S
C560 C565 1.479 . S
C560 C570 1.465 . S
C561 C560 1.264 . S
C561 C563 1.339 . S
C561 H588 0.931 . S
C562 C563 1.395 . S
C562 C564 1.320 . S
C563 C561 1.339 . S
C563 C562 1.395 . S
C563 H589 0.929 . S
C564 C562 1.320 . S
C564 C565 1.405 . S
C564 H590 0.930 . S
C565 C560 1.479 . S
C565 C564 1.405 . S
C565 H591 0.931 . S
U566 O567 2.454 . S
U566 O568 2.458 . S
U566 C569 2.984 . S
U566 C570 2.847 1_565 S
U566 C583 2.882 . S
U566 O584 2.441 1_565 S
U566 O585 2.420 . S
U566 O586 2.455 . S
U566 O587 2.449 . S
O567 U566 2.454 . S
O567 C569 1.353 . S
O568 U566 2.458 . S
O568 C569 1.286 . S
C569 U566 2.984 . S
C569 O567 1.353 . S
C569 O568 1.286 . S
C569 C571 1.363 . S
C570 C560 1.465 . S
C570 U566 2.847 1_545 S
C570 O584 1.249 . S
C570 O585 1.202 1_545 S
C571 C569 1.363 . S
C571 C573 1.408 . S
C571 C576 1.342 . S
C572 C573 1.310 . S
C572 C575 1.461 . S
C572 H592 0.932 . S
C573 C571 1.408 . S
C573 C572 1.310 . S
C573 H593 0.930 . S
C574 C575 1.474 . S
C574 C576 1.285 . S
C574 H594 0.929 . S
C575 C572 1.461 . S
C575 C574 1.474 . S
C576 C571 1.342 . S
C576 C574 1.285 . S
C576 H595 0.930 . S
C577 C580 1.424 . S
C577 C582 1.245 . S
C577 C583 1.428 . S
C578 C581 1.260 1_455 S
C578 C582 1.477 . S
C578 H596 0.932 . S
C579 C580 1.384 1_655 S
C579 C581 1.479 . S
C579 H597 0.929 . S
C580 C577 1.424 . S
C580 C579 1.384 1_455 S
C580 H598 0.928 . S
C581 C578 1.260 1_655 S
C581 C579 1.479 . S
C582 C577 1.245 . S
C582 C578 1.477 . S
C582 H599 0.932 . S
C583 U566 2.882 . S
C583 C577 1.428 . S
C583 O586 1.301 . S
C583 O587 1.282 . S
O584 U566 2.441 1_545 S
O584 C570 1.249 . S
O585 U566 2.420 . S
O585 C570 1.202 1_565 S
O586 U566 2.455 . S
O586 C583 1.301 . S
O587 U566 2.449 . S
O587 C583 1.282 . S
H588 C561 0.931 . S
H589 C563 0.929 . S
H590 C564 0.930 . S
H591 C565 0.931 . S
H592 C572 0.932 . S
H593 C573 0.930 . S
H594 C574 0.929 . S
H595 C576 0.930 . S
H596 C578 0.932 . S
H597 C579 0.929 . S
H598 C580 0.928 . S
H599 C582 0.932 . S
C600 C601 1.264 . S
C600 C605 1.479 . S
C600 C610 1.465 . S
C601 C600 1.264 . S
C601 C603 1.339 . S
C601 H628 0.931 . S
C602 C603 1.395 . S
C602 C604 1.320 . S
C603 C601 1.339 . S
C603 C602 1.395 . S
C603 H629 0.929 . S
C604 C602 1.320 . S
C604 C605 1.405 . S
C604 H630 0.930 . S
C605 C600 1.479 . S
C605 C604 1.405 . S
C605 H631 0.931 . S
U606 O607 2.454 . S
U606 O608 2.458 1_545 S
U606 C609 2.984 1_545 S
U606 C610 2.847 . S
U606 C623 2.882 1_545 S
U606 O624 2.441 . S
U606 O625 2.420 . S
U606 O626 2.455 1_545 S
U606 O627 2.449 . S
O607 U606 2.454 . S
O607 C609 1.353 1_545 S
O608 U606 2.458 1_565 S
O608 C609 1.286 . S
C609 U606 2.984 1_565 S
C609 O607 1.353 1_565 S
C609 O608 1.286 . S
C609 C611 1.363 . S
C610 C600 1.465 . S
C610 U606 2.847 . S
C610 O624 1.249 . S
C610 O625 1.202 . S
C611 C609 1.363 . S
C611 C613 1.408 . S
C611 C616 1.342 . S
C612 C613 1.310 . S
C612 C615 1.461 . S
C612 H632 0.932 . S
C613 C611 1.408 . S
C613 C612 1.310 . S
C613 H633 0.930 . S
C614 C615 1.474 . S
C614 C616 1.285 . S
C614 H634 0.929 . S
C615 C612 1.461 . S
C615 C614 1.474 . S
C616 C611 1.342 . S
C616 C614 1.285 . S
C616 H635 0.930 . S
C617 C620 1.424 . S
C617 C622 1.245 . S
C617 C623 1.428 . S
C618 C621 1.260 . S
C618 C622 1.477 . S
C618 H636 0.932 . S
C619 C620 1.384 . S
C619 C621 1.479 . S
C619 H637 0.929 . S
C620 C617 1.424 . S
C620 C619 1.384 . S
C620 H638 0.928 . S
C621 C618 1.260 . S
C621 C619 1.479 . S
C622 C617 1.245 . S
C622 C618 1.477 . S
C622 H639 0.932 . S
C623 U606 2.882 1_565 S
C623 C617 1.428 . S
C623 O626 1.301 . S
C623 O627 1.282 1_565 S
O624 U606 2.441 . S
O624 C610 1.249 . S
O625 U606 2.420 . S
O625 C610 1.202 . S
O626 U606 2.455 1_565 S
O626 C623 1.301 . S
O627 U606 2.449 . S
O627 C623 1.282 1_545 S
H628 C601 0.931 . S
H629 C603 0.929 . S
H630 C604 0.930 . S
H631 C605 0.931 . S
H632 C612 0.932 . S
H633 C613 0.930 . S
H634 C614 0.929 . S
H635 C616 0.930 . S
H636 C618 0.932 . S
H637 C619 0.929 . S
H638 C620 0.928 . S
H639 C622 0.932 . S
C640 C641 1.363 . S
C640 C646 1.379 . S
C640 N648 1.356 . S
C641 C640 1.363 . S
C641 C647 1.363 . S
C642 C643 1.363 . S
C642 C647 1.379 . S
C642 N649 1.356 . S
C643 C642 1.363 . S
C643 C646 1.363 . S
N644 C646 1.356 . S
N644 H656 0.984 . S
N644 H657 0.985 . S
N645 C647 1.356 . S
N645 H650 0.984 . S
N645 H651 0.985 . S
C646 C640 1.379 . S
C646 C643 1.363 . S
C646 N644 1.356 . S
C647 C641 1.363 . S
C647 C642 1.379 . S
C647 N645 1.356 . S
N648 C640 1.356 . S
N648 H654 0.984 . S
N648 H655 0.984 . S
N649 C642 1.356 . S
N649 H652 0.984 . S
N649 H653 0.985 . S
H650 N645 0.984 . S
H651 N645 0.985 . S
H652 N649 0.984 . S
H653 N649 0.985 . S
H654 N648 0.984 . S
H655 N648 0.984 . S
H656 N644 0.984 . S
H657 N644 0.985 . S
C658 C659 1.363 . S
C658 C664 1.379 . S
C658 N666 1.356 . S
C659 C658 1.363 . S
C659 C665 1.363 . S
C660 C661 1.363 . S
C660 C665 1.379 . S
C660 N667 1.356 . S
C661 C660 1.363 . S
C661 C664 1.363 . S
N662 C664 1.356 . S
N662 H674 0.984 . S
N662 H675 0.985 . S
N663 C665 1.356 . S
N663 H668 0.984 . S
N663 H669 0.985 . S
C664 C658 1.379 . S
C664 C661 1.363 . S
C664 N662 1.356 . S
C665 C659 1.363 . S
C665 C660 1.379 . S
C665 N663 1.356 . S
N666 C658 1.356 . S
N666 H672 0.984 . S
N666 H673 0.984 . S
N667 C660 1.356 . S
N667 H670 0.984 . S
N667 H671 0.985 . S
H668 N663 0.984 . S
H669 N663 0.985 . S
H670 N667 0.984 . S
H671 N667 0.985 . S
H672 N666 0.984 . S
H673 N666 0.984 . S
H674 N662 0.984 . S
H675 N662 0.985 . S
C676 C677 1.363 . S
C676 C682 1.379 . S
C676 N684 1.356 . S
C677 C676 1.363 . S
C677 C683 1.363 . S
C678 C679 1.363 . S
C678 C683 1.379 . S
C678 N685 1.356 . S
C679 C678 1.363 . S
C679 C682 1.363 . S
N680 C682 1.356 . S
N680 H692 0.984 . S
N680 H693 0.985 . S
N681 C683 1.356 . S
N681 H686 0.984 . S
N681 H687 0.985 . S
C682 C676 1.379 . S
C682 C679 1.363 . S
C682 N680 1.356 . S
C683 C677 1.363 . S
C683 C678 1.379 . S
C683 N681 1.356 . S
N684 C676 1.356 . S
N684 H690 0.984 . S
N684 H691 0.984 . S
N685 C678 1.356 . S
N685 H688 0.984 . S
N685 H689 0.985 . S
H686 N681 0.984 . S
H687 N681 0.985 . S
H688 N685 0.984 . S
H689 N685 0.985 . S
H690 N684 0.984 . S
H691 N684 0.984 . S
H692 N680 0.984 . S
H693 N680 0.985 . S
C694 C695 1.363 . S
C694 C700 1.379 . S
C694 N702 1.356 . S
C695 C694 1.363 . S
C695 C701 1.363 . S
C696 C697 1.363 . S
C696 C701 1.379 . S
C696 N703 1.356 . S
C697 C696 1.363 . S
C697 C700 1.363 . S
N698 C700 1.356 . S
N698 H710 0.984 . S
N698 H711 0.985 . S
N699 C701 1.356 . S
N699 H704 0.984 . S
N699 H705 0.985 . S
C700 C694 1.379 . S
C700 C697 1.363 . S
C700 N698 1.356 . S
C701 C695 1.363 . S
C701 C696 1.379 . S
C701 N699 1.356 . S
N702 C694 1.356 . S
N702 H708 0.984 . S
N702 H709 0.984 . S
N703 C696 1.356 . S
N703 H706 0.984 . S
N703 H707 0.985 . S
H704 N699 0.984 . S
H705 N699 0.985 . S
H706 N703 0.984 . S
H707 N703 0.985 . S
H708 N702 0.984 . S
H709 N702 0.984 . S
H710 N698 0.984 . S
H711 N698 0.985 . S
C712 C713 1.363 . S
C712 C718 1.379 . S
C712 N720 1.356 . S
C713 C712 1.363 . S
C713 C719 1.363 . S
C714 C715 1.363 . S
C714 C719 1.379 . S
C714 N721 1.356 . S
C715 C714 1.363 . S
C715 C718 1.363 . S
N716 C718 1.356 . S
N716 H728 0.984 . S
N716 H729 0.985 . S
N717 C719 1.356 . S
N717 H722 0.984 . S
N717 H723 0.985 . S
C718 C712 1.379 . S
C718 C715 1.363 . S
C718 N716 1.356 . S
C719 C713 1.363 . S
C719 C714 1.379 . S
C719 N717 1.356 . S
N720 C712 1.356 . S
N720 H726 0.984 . S
N720 H727 0.984 . S
N721 C714 1.356 . S
N721 H724 0.984 . S
N721 H725 0.985 . S
H722 N717 0.984 . S
H723 N717 0.985 . S
H724 N721 0.984 . S
H725 N721 0.985 . S
H726 N720 0.984 . S
H727 N720 0.984 . S
H728 N716 0.984 . S
H729 N716 0.985 . S
C730 C731 1.363 . S
C730 C736 1.379 . S
C730 N738 1.356 . S
C731 C730 1.363 . S
C731 C737 1.363 . S
C732 C733 1.363 . S
C732 C737 1.379 . S
C732 N739 1.356 . S
C733 C732 1.363 . S
C733 C736 1.363 . S
N734 C736 1.356 . S
N734 H746 0.984 . S
N734 H747 0.985 . S
N735 C737 1.356 . S
N735 H740 0.984 . S
N735 H741 0.985 . S
C736 C730 1.379 . S
C736 C733 1.363 . S
C736 N734 1.356 . S
C737 C731 1.363 . S
C737 C732 1.379 . S
C737 N735 1.356 . S
N738 C730 1.356 . S
N738 H744 0.984 . S
N738 H745 0.984 . S
N739 C732 1.356 . S
N739 H742 0.984 . S
N739 H743 0.985 . S
H740 N735 0.984 . S
H741 N735 0.985 . S
H742 N739 0.984 . S
H743 N739 0.985 . S
H744 N738 0.984 . S
H745 N738 0.984 . S
H746 N734 0.984 . S
H747 N734 0.985 . S
C748 C749 1.363 . S
C748 C754 1.379 . S
C748 N756 1.356 . S
C749 C748 1.363 . S
C749 C755 1.363 . S
C750 C751 1.363 . S
C750 C755 1.379 . S
C750 N757 1.356 . S
C751 C750 1.363 . S
C751 C754 1.363 . S
N752 C754 1.356 . S
N752 H764 0.984 . S
N752 H765 0.985 . S
N753 C755 1.356 . S
N753 H758 0.984 . S
N753 H759 0.985 . S
C754 C748 1.379 . S
C754 C751 1.363 . S
C754 N752 1.356 . S
C755 C749 1.363 . S
C755 C750 1.379 . S
C755 N753 1.356 . S
N756 C748 1.356 . S
N756 H762 0.984 . S
N756 H763 0.984 . S
N757 C750 1.356 . S
N757 H760 0.984 . S
N757 H761 0.985 . S
H758 N753 0.984 . S
H759 N753 0.985 . S
H760 N757 0.984 . S
H761 N757 0.985 . S
H762 N756 0.984 . S
H763 N756 0.984 . S
H764 N752 0.984 . S
H765 N752 0.985 . S
C766 C767 1.363 . S
C766 C772 1.379 . S
C766 N774 1.356 . S
C767 C766 1.363 . S
C767 C773 1.363 . S
C768 C769 1.363 . S
C768 C773 1.379 . S
C768 N775 1.356 . S
C769 C768 1.363 . S
C769 C772 1.363 . S
N770 C772 1.356 . S
N770 H782 0.984 . S
N770 H783 0.985 . S
N771 C773 1.356 . S
N771 H776 0.984 . S
N771 H777 0.985 . S
C772 C766 1.379 . S
C772 C769 1.363 . S
C772 N770 1.356 . S
C773 C767 1.363 . S
C773 C768 1.379 . S
C773 N771 1.356 . S
N774 C766 1.356 . S
N774 H780 0.984 . S
N774 H781 0.984 . S
N775 C768 1.356 . S
N775 H778 0.984 . S
N775 H779 0.985 . S
H776 N771 0.984 . S
H777 N771 0.985 . S
H778 N775 0.984 . S
H779 N775 0.985 . S
H780 N774 0.984 . S
H781 N774 0.984 . S
H782 N770 0.984 . S
H783 N770 0.985 . S
C784 C785 1.363 . S
C784 C790 1.379 . S
C784 N792 1.356 . S
C785 C784 1.363 . S
C785 C791 1.363 . S
C786 C787 1.363 . S
C786 C791 1.379 . S
C786 N793 1.356 . S
C787 C786 1.363 . S
C787 C790 1.363 . S
N788 C790 1.356 . S
N788 H800 0.984 . S
N788 H801 0.985 . S
N789 C791 1.356 1_556 S
N789 H794 0.984 . S
N789 H795 0.985 . S
C790 C784 1.379 . S
C790 C787 1.363 . S
C790 N788 1.356 . S
C791 C785 1.363 . S
C791 C786 1.379 . S
C791 N789 1.356 1_554 S
N792 C784 1.356 . S
N792 H798 0.984 . S
N792 H799 0.984 . S
N793 C786 1.356 . S
N793 H796 0.984 . S
N793 H797 0.970 1_554 S
H794 N789 0.984 . S
H795 N789 0.985 . S
H796 N793 0.984 . S
H797 N793 0.970 1_556 S
H798 N792 0.984 . S
H799 N792 0.984 . S
H800 N788 0.984 . S
H801 N788 0.985 . S
C802 C803 1.363 . S
C802 C808 1.379 . S
C802 N810 1.356 . S
C803 C802 1.363 . S
C803 C809 1.363 . S
C804 C805 1.363 . S
C804 C809 1.379 . S
C804 N811 1.356 1_556 S
C805 C804 1.363 . S
C805 C808 1.363 . S
N806 C808 1.356 . S
N806 H818 0.984 . S
N806 H819 0.985 . S
N807 C809 1.356 . S
N807 H812 0.984 . S
N807 H813 0.985 1_556 S
C808 C802 1.379 . S
C808 C805 1.363 . S
C808 N806 1.356 . S
C809 C803 1.363 . S
C809 C804 1.379 . S
C809 N807 1.356 . S
N810 C802 1.356 . S
N810 H816 0.984 . S
N810 H817 0.984 . S
N811 C804 1.356 1_554 S
N811 H814 0.984 . S
N811 H815 0.985 . S
H812 N807 0.984 . S
H813 N807 0.985 1_554 S
H814 N811 0.984 . S
H815 N811 0.985 . S
H816 N810 0.984 . S
H817 N810 0.984 . S
H818 N806 0.984 . S
H819 N806 0.985 . S
C820 C821 1.363 . S
C820 C826 1.379 . S
C820 N828 1.356 . S
C821 C820 1.363 . S
C821 C827 1.363 . S
C822 C823 1.363 . S
C822 C827 1.379 . S
C822 N829 1.356 . S
C823 C822 1.363 . S
C823 C826 1.363 . S
N824 C826 1.356 1_556 S
N824 H836 0.984 . S
N824 H837 0.985 . S
N825 C827 1.356 . S
N825 H830 0.984 . S
N825 H831 0.985 . S
C826 C820 1.379 . S
C826 C823 1.363 . S
C826 N824 1.356 1_554 S
C827 C821 1.363 . S
C827 C822 1.379 . S
C827 N825 1.356 . S
N828 C820 1.356 . S
N828 H834 0.962 1_554 S
N828 H835 0.984 . S
N829 C822 1.356 . S
N829 H832 0.984 . S
N829 H833 0.985 . S
H830 N825 0.984 . S
H831 N825 0.985 . S
H832 N829 0.984 . S
H833 N829 0.985 . S
H834 N828 0.962 1_556 S
H835 N828 0.984 . S
H836 N824 0.984 . S
H837 N824 0.985 . S
C838 C839 1.363 . S
C838 C844 1.379 . S
C838 N846 1.356 . S
C839 C838 1.363 . S
C839 C845 1.363 . S
C840 C841 1.363 . S
C840 C845 1.379 . S
C840 N847 1.356 1_556 S
C841 C840 1.363 . S
C841 C844 1.363 . S
N842 C844 1.356 . S
N842 H854 0.984 . S
N842 H855 0.985 . S
N843 C845 1.356 . S
N843 H848 0.984 . S
N843 H849 0.985 . S
C844 C838 1.379 . S
C844 C841 1.363 . S
C844 N842 1.356 . S
C845 C839 1.363 . S
C845 C840 1.379 . S
C845 N843 1.356 . S
N846 C838 1.356 . S
N846 H852 0.984 . S
N846 H853 0.984 . S
N847 C840 1.356 1_554 S
N847 H850 0.984 . S
N847 H851 0.985 . S
H848 N843 0.984 . S
H849 N843 0.985 . S
H850 N847 0.984 . S
H851 N847 0.985 . S
H852 N846 0.984 . S
H853 N846 0.984 . S
H854 N842 0.984 . S
H855 N842 0.985 . S
C856 C857 1.363 . S
C856 C862 1.379 . S
C856 N864 1.356 . S
C857 C856 1.363 . S
C857 C863 1.363 . S
C858 C859 1.363 . S
C858 C863 1.379 . S
C858 N865 1.356 . S
C859 C858 1.363 . S
C859 C862 1.363 . S
N860 C862 1.356 . S
N860 H872 0.984 . S
N860 H873 0.985 . S
N861 C863 1.356 . S
N861 H866 0.984 . S
N861 H867 0.985 . S
C862 C856 1.379 . S
C862 C859 1.363 . S
C862 N860 1.356 . S
C863 C857 1.363 . S
C863 C858 1.379 . S
C863 N861 1.356 . S
N864 C856 1.356 . S
N864 H870 0.984 . S
N864 H871 0.984 . S
N865 C858 1.356 . S
N865 H868 0.984 . S
N865 H869 0.985 . S
H866 N861 0.984 . S
H867 N861 0.985 . S
H868 N865 0.984 . S
H869 N865 0.985 . S
H870 N864 0.984 . S
H871 N864 0.984 . S
H872 N860 0.984 . S
H873 N860 0.985 . S
C874 C875 1.363 . S
C874 C880 1.379 . S
C874 N882 1.356 . S
C875 C874 1.363 . S
C875 C881 1.363 . S
C876 C877 1.363 . S
C876 C881 1.379 . S
C876 N883 1.356 . S
C877 C876 1.363 . S
C877 C880 1.363 . S
N878 C880 1.356 . S
N878 H890 0.984 . S
N878 H891 0.985 . S
N879 C881 1.356 . S
N879 H884 0.984 . S
N879 H885 0.985 . S
C880 C874 1.379 . S
C880 C877 1.363 . S
C880 N878 1.356 . S
C881 C875 1.363 . S
C881 C876 1.379 . S
C881 N879 1.356 . S
N882 C874 1.356 . S
N882 H888 0.984 . S
N882 H889 0.984 . S
N883 C876 1.356 . S
N883 H886 0.984 . S
N883 H887 0.985 . S
H884 N879 0.984 . S
H885 N879 0.985 . S
H886 N883 0.984 . S
H887 N883 0.985 . S
H888 N882 0.984 . S
H889 N882 0.984 . S
H890 N878 0.984 . S
H891 N878 0.985 . S
C892 C893 1.363 . S
C892 C898 1.379 . S
C892 N900 1.356 . S
C893 C892 1.363 . S
C893 C899 1.363 . S
C894 C895 1.363 . S
C894 C899 1.379 . S
C894 N901 1.356 . S
C895 C894 1.363 . S
C895 C898 1.363 . S
N896 C898 1.356 . S
N896 H908 0.984 . S
N896 H909 0.985 . S
N897 C899 1.356 . S
N897 H902 0.984 . S
N897 H903 0.985 . S
C898 C892 1.379 . S
C898 C895 1.363 . S
C898 N896 1.356 . S
C899 C893 1.363 . S
C899 C894 1.379 . S
C899 N897 1.356 . S
N900 C892 1.356 . S
N900 H906 0.984 . S
N900 H907 0.984 . S
N901 C894 1.356 . S
N901 H904 0.984 . S
N901 H905 0.985 . S
H902 N897 0.984 . S
H903 N897 0.985 . S
H904 N901 0.984 . S
H905 N901 0.985 . S
H906 N900 0.984 . S
H907 N900 0.984 . S
H908 N896 0.984 . S
H909 N896 0.985 . S
C910 C911 1.363 . S
C910 C916 1.379 . S
C910 N918 1.356 . S
C911 C910 1.363 . S
C911 C917 1.363 . S
C912 C913 1.363 . S
C912 C917 1.379 . S
C912 N919 1.356 . S
C913 C912 1.363 . S
C913 C916 1.363 . S
N914 C916 1.356 . S
N914 H926 0.984 . S
N914 H927 0.985 . S
N915 C917 1.356 . S
N915 H920 0.984 . S
N915 H921 0.985 . S
C916 C910 1.379 . S
C916 C913 1.363 . S
C916 N914 1.356 . S
C917 C911 1.363 . S
C917 C912 1.379 . S
C917 N915 1.356 . S
N918 C910 1.356 . S
N918 H924 0.984 . S
N918 H925 0.984 . S
N919 C912 1.356 . S
N919 H922 0.984 . S
N919 H923 0.985 . S
H920 N915 0.984 . S
H921 N915 0.985 . S
H922 N919 0.984 . S
H923 N919 0.985 . S
H924 N918 0.984 . S
H925 N918 0.984 . S
H926 N914 0.984 . S
H927 N914 0.985 . S
C928 C929 1.363 . S
C928 C934 1.379 . S
C928 N936 1.356 . S
C929 C928 1.363 . S
C929 C935 1.363 . S
C930 C931 1.363 . S
C930 C935 1.379 . S
C930 N937 1.356 . S
C931 C930 1.363 . S
C931 C934 1.363 . S
N932 C934 1.356 . S
N932 H944 0.984 . S
N932 H945 0.985 . S
N933 C935 1.356 . S
N933 H938 0.984 . S
N933 H939 0.985 . S
C934 C928 1.379 . S
C934 C931 1.363 . S
C934 N932 1.356 . S
C935 C929 1.363 . S
C935 C930 1.379 . S
C935 N933 1.356 . S
N936 C928 1.356 . S
N936 H942 0.984 . S
N936 H943 0.984 . S
N937 C930 1.356 . S
N937 H940 0.984 . S
N937 H941 0.985 . S
H938 N933 0.984 . S
H939 N933 0.985 . S
H940 N937 0.984 . S
H941 N937 0.985 . S
H942 N936 0.984 . S
H943 N936 0.984 . S
H944 N932 0.984 . S
H945 N932 0.985 . S
C946 C947 1.363 . S
C946 C952 1.379 . S
C946 N954 1.356 . S
C947 C946 1.363 . S
C947 C953 1.363 . S
C948 C949 1.363 . S
C948 C953 1.379 . S
C948 N955 1.356 . S
C949 C948 1.363 . S
C949 C952 1.363 . S
N950 C952 1.356 . S
N950 H962 0.984 . S
N950 H963 0.985 . S
N951 C953 1.356 . S
N951 H956 0.984 . S
N951 H957 0.985 . S
C952 C946 1.379 . S
C952 C949 1.363 . S
C952 N950 1.356 . S
C953 C947 1.363 . S
C953 C948 1.379 . S
C953 N951 1.356 . S
N954 C946 1.356 . S
N954 H960 0.984 . S
N954 H961 0.984 . S
N955 C948 1.356 . S
N955 H958 0.984 . S
N955 H959 0.985 . S
H956 N951 0.984 . S
H957 N951 0.985 . S
H958 N955 0.984 . S
H959 N955 0.985 . S
H960 N954 0.984 . S
H961 N954 0.984 . S
H962 N950 0.984 . S
H963 N950 0.985 . S
C964 C965 1.363 . S
C964 C970 1.379 . S
C964 N972 1.356 . S
C965 C964 1.363 . S
C965 C971 1.363 . S
C966 C967 1.363 . S
C966 C971 1.379 . S
C966 N973 1.356 . S
C967 C966 1.363 . S
C967 C970 1.363 . S
N968 C970 1.356 . S
N968 H980 0.984 . S
N968 H981 0.985 . S
N969 C971 1.356 . S
N969 H974 0.984 . S
N969 H975 0.985 . S
C970 C964 1.379 . S
C970 C967 1.363 . S
C970 N968 1.356 . S
C971 C965 1.363 . S
C971 C966 1.379 . S
C971 N969 1.356 . S
N972 C964 1.356 . S
N972 H978 0.984 . S
N972 H979 0.984 . S
N973 C966 1.356 . S
N973 H976 0.984 . S
N973 H977 0.985 . S
H974 N969 0.984 . S
H975 N969 0.985 . S
H976 N973 0.984 . S
H977 N973 0.985 . S
H978 N972 0.984 . S
H979 N972 0.984 . S
H980 N968 0.984 . S
H981 N968 0.985 . S
C982 C983 1.363 . S
C982 C988 1.379 . S
C982 N990 1.356 . S
C983 C982 1.363 . S
C983 C989 1.363 . S
C984 C985 1.363 . S
C984 C989 1.379 . S
C984 N991 1.356 . S
C985 C984 1.363 . S
C985 C988 1.363 . S
N986 C988 1.356 . S
N986 H998 0.984 . S
N986 H999 0.985 . S
N987 C989 1.356 . S
N987 H992 0.984 . S
N987 H993 0.985 1_455 S
C988 C982 1.379 . S
C988 C985 1.363 . S
C988 N986 1.356 . S
C989 C983 1.363 . S
C989 C984 1.379 . S
C989 N987 1.356 . S
N990 C982 1.356 . S
N990 H996 0.984 . S
N990 H997 0.984 . S
N991 C984 1.356 . S
N991 H994 0.984 . S
N991 H995 0.985 1_455 S
H992 N987 0.984 . S
H993 N987 0.985 1_655 S
H994 N991 0.984 . S
H995 N991 0.985 1_655 S
H996 N990 0.984 . S
H997 N990 0.984 . S
H998 N986 0.984 . S
H999 N986 0.985 . S
C1000 C1001 1.363 . S
C1000 C1006 1.379 . S
C1000 N1008 1.356 1_565 S
C1001 C1000 1.363 . S
C1001 C1007 1.363 . S
C1002 C1003 1.363 . S
C1002 C1007 1.379 . S
C1002 N1009 1.356 . S
C1003 C1002 1.363 . S
C1003 C1006 1.363 . S
N1004 C1006 1.356 1_545 S
N1004 H1016 0.984 . S
N1004 H1017 0.985 . S
N1005 C1007 1.356 . S
N1005 H1010 0.984 . S
N1005 H1011 0.985 . S
C1006 C1000 1.379 . S
C1006 C1003 1.363 . S
C1006 N1004 1.356 1_565 S
C1007 C1001 1.363 . S
C1007 C1002 1.379 . S
C1007 N1005 1.356 . S
N1008 C1000 1.356 1_545 S
N1008 H1014 0.984 . S
N1008 H1015 0.984 . S
N1009 C1002 1.356 . S
N1009 H1012 0.984 . S
N1009 H1013 0.985 . S
H1010 N1005 0.984 . S
H1011 N1005 0.985 . S
H1012 N1009 0.984 . S
H1013 N1009 0.985 . S
H1014 N1008 0.984 . S
H1015 N1008 0.984 . S
H1016 N1004 0.984 . S
H1017 N1004 0.985 . S
C1018 C1019 1.363 . S
C1018 C1024 1.379 . S
C1018 N1026 1.356 . S
C1019 C1018 1.363 . S
C1019 C1025 1.363 . S
C1020 C1021 1.363 . S
C1020 C1025 1.379 . S
C1020 N1027 1.356 . S
C1021 C1020 1.363 . S
C1021 C1024 1.363 . S
N1022 C1024 1.356 . S
N1022 H1034 0.984 . S
N1022 H1035 0.985 . S
N1023 C1025 1.356 . S
N1023 H1028 0.984 . S
N1023 H1029 0.985 . S
C1024 C1018 1.379 . S
C1024 C1021 1.363 . S
C1024 N1022 1.356 . S
C1025 C1019 1.363 . S
C1025 C1020 1.379 . S
C1025 N1023 1.356 . S
N1026 C1018 1.356 . S
N1026 H1032 0.984 . S
N1026 H1033 0.984 . S
N1027 C1020 1.356 . S
N1027 H1030 0.984 . S
N1027 H1031 0.985 . S
H1028 N1023 0.984 . S
H1029 N1023 0.985 . S
H1030 N1027 0.984 . S
H1031 N1027 0.985 . S
H1032 N1026 0.984 . S
H1033 N1026 0.984 . S
H1034 N1022 0.984 . S
H1035 N1022 0.985 . S
C1036 C1037 1.363 . S
C1036 C1042 1.379 . S
C1036 N1044 1.356 . S
C1037 C1036 1.363 . S
C1037 C1043 1.363 . S
C1038 C1039 1.363 . S
C1038 C1043 1.379 . S
C1038 N1045 1.356 . S
C1039 C1038 1.363 . S
C1039 C1042 1.363 . S
N1040 C1042 1.356 . S
N1040 H1052 0.984 . S
N1040 H1053 0.985 . S
N1041 C1043 1.356 . S
N1041 H1046 0.984 . S
N1041 H1047 0.985 . S
C1042 C1036 1.379 . S
C1042 C1039 1.363 . S
C1042 N1040 1.356 . S
C1043 C1037 1.363 . S
C1043 C1038 1.379 . S
C1043 N1041 1.356 . S
N1044 C1036 1.356 . S
N1044 H1050 0.984 . S
N1044 H1051 0.984 . S
N1045 C1038 1.356 . S
N1045 H1048 0.984 . S
N1045 H1049 0.985 . S
H1046 N1041 0.984 . S
H1047 N1041 0.985 . S
H1048 N1045 0.984 . S
H1049 N1045 0.985 . S
H1050 N1044 0.984 . S
H1051 N1044 0.984 . S
H1052 N1040 0.984 . S
H1053 N1040 0.985 . S
C1054 C1055 1.363 . S
C1054 C1060 1.379 . S
C1054 N1062 1.356 . S
C1055 C1054 1.363 . S
C1055 C1061 1.363 . S
C1056 C1057 1.363 . S
C1056 C1061 1.379 . S
C1056 N1063 1.356 . S
C1057 C1056 1.363 . S
C1057 C1060 1.363 . S
N1058 C1060 1.356 . S
N1058 H1070 0.984 . S
N1058 H1071 0.985 . S
N1059 C1061 1.356 . S
N1059 H1064 0.984 . S
N1059 H1065 0.985 . S
C1060 C1054 1.379 . S
C1060 C1057 1.363 . S
C1060 N1058 1.356 . S
C1061 C1055 1.363 . S
C1061 C1056 1.379 . S
C1061 N1059 1.356 . S
N1062 C1054 1.356 . S
N1062 H1068 0.984 . S
N1062 H1069 0.984 . S
N1063 C1056 1.356 . S
N1063 H1066 0.984 . S
N1063 H1067 0.985 . S
H1064 N1059 0.984 . S
H1065 N1059 0.985 . S
H1066 N1063 0.984 . S
H1067 N1063 0.985 . S
H1068 N1062 0.984 . S
H1069 N1062 0.984 . S
H1070 N1058 0.984 . S
H1071 N1058 0.985 . S
C641 C21 1.230 . S
C643 C301 1.618 . S
C659 C61 1.655 . S
C661 C181 1.275 . S
C677 C101 1.531 . S
C679 C221 1.650 . S
C695 C261 1.486 . S
C697 C141 1.611 . S
C713 C621 1.293 . S
C715 C341 1.648 . S
C731 C501 1.682 . S
C733 C381 1.276 . S
C749 C421 1.542 . S
C751 C541 1.466 . S
C767 C461 1.466 . S
C769 C581 1.534 . S
C785 C335 2.969 1_554 S
C787 C2 2.749 . S
C803 C375 2.750 . S
C805 C42 2.814 1_556 S
C821 C95 2.789 . S
C823 C402 3.031 1_554 S
C839 C442 3.006 . S
C841 C122 2.922 1_556 S
C857 C495 2.865 . S
C859 C162 2.637 . S
C875 C522 2.990 . S
C877 C202 2.910 . S
C893 C562 3.108 . S
C895 C255 2.868 . S
C911 C282 2.821 . S
C913 C615 2.763 . S
C929 C242 2.753 . S
C931 C15 2.664 . S
C947 C295 2.060 . S
C949 C55 2.063 . S
C965 C82 2.726 . S
C967 C175 2.640 . S
C983 C135 2.112 . S
C985 C215 2.116 . S
C1001 C575 2.104 . S
C1003 C322 2.092 . S
C1019 C602 2.644 . S
C1021 C362 2.625 . S
C1037 C415 2.038 . S
C1039 C482 2.034 . S
C1055 C455 2.711 . S
C1057 C535 2.694 . S
