# Generated by pormake.
# Topology uke, (4)-cn, num edge types: 1
# Building blocks:
#     Node 0, Type 0, BuildingBlock: ICAMEG_clean_sbu_1, # of connection points: 4
#     Node 1, Type 0, BuildingBlock: ICAMEG_clean_sbu_1, # of connection points: 4
#     Node 2, Type 0, BuildingBlock: ICAMEG_clean_sbu_1, # of connection points: 4
#     Node 3, Type 0, BuildingBlock: ICAMEG_clean_sbu_1, # of connection points: 4
#     Node 4, Type 0, BuildingBlock: ICAMEG_clean_sbu_1, # of connection points: 4
#     Node 5, Type 0, BuildingBlock: ICAMEG_clean_sbu_1, # of connection points: 4
#     Node 6, Type 0, BuildingBlock: ICAMEG_clean_sbu_1, # of connection points: 4
#     Node 7, Type 0, BuildingBlock: ICAMEG_clean_sbu_1, # of connection points: 4
#     Node 8, Type 0, BuildingBlock: ICAMEG_clean_sbu_1, # of connection points: 4
#     Node 9, Type 0, BuildingBlock: ICAMEG_clean_sbu_1, # of connection points: 4
#     Node 10, Type 0, BuildingBlock: ICAMEG_clean_sbu_1, # of connection points: 4
#     Node 11, Type 0, BuildingBlock: ICAMEG_clean_sbu_1, # of connection points: 4
#     Node 12, Type 0, BuildingBlock: ICAMEG_clean_sbu_1, # of connection points: 4
#     Node 13, Type 0, BuildingBlock: ICAMEG_clean_sbu_1, # of connection points: 4
#     Node 14, Type 0, BuildingBlock: ICAMEG_clean_sbu_1, # of connection points: 4
#     Node 15, Type 0, BuildingBlock: ICAMEG_clean_sbu_1, # of connection points: 4
#     Node 16, Type 0, BuildingBlock: ICAMEG_clean_sbu_1, # of connection points: 4
#     Node 17, Type 0, BuildingBlock: ICAMEG_clean_sbu_1, # of connection points: 4
#     Node 18, Type 0, BuildingBlock: ICAMEG_clean_sbu_1, # of connection points: 4
#     Node 19, Type 0, BuildingBlock: ICAMEG_clean_sbu_1, # of connection points: 4
#     Node 20, Type 0, BuildingBlock: ICAMEG_clean_sbu_1, # of connection points: 4
#     Node 21, Type 0, BuildingBlock: ICAMEG_clean_sbu_1, # of connection points: 4
#     Node 22, Type 0, BuildingBlock: ICAMEG_clean_sbu_1, # of connection points: 4
#     Node 23, Type 0, BuildingBlock: ICAMEG_clean_sbu_1, # of connection points: 4
#     Node 24, Type 0, BuildingBlock: ICAMEG_clean_sbu_1, # of connection points: 4
#     Node 25, Type 0, BuildingBlock: ICAMEG_clean_sbu_1, # of connection points: 4
#     Node 26, Type 0, BuildingBlock: ICAMEG_clean_sbu_1, # of connection points: 4
#     Node 27, Type 0, BuildingBlock: ICAMEG_clean_sbu_1, # of connection points: 4
#     Node 28, Type 0, BuildingBlock: ICAMEG_clean_sbu_1, # of connection points: 4
#     Node 29, Type 0, BuildingBlock: ICAMEG_clean_sbu_1, # of connection points: 4
#     Node 30, Type 0, BuildingBlock: ICAMEG_clean_sbu_1, # of connection points: 4
#     Node 31, Type 0, BuildingBlock: ICAMEG_clean_sbu_1, # of connection points: 4
#     Edge 32, Type (0, 0), BuildingBlock: CIFDUS_clean_linker_0, # of connection points: 2
#     Edge 33, Type (0, 0), BuildingBlock: CIFDUS_clean_linker_0, # of connection points: 2
#     Edge 34, Type (0, 0), BuildingBlock: CIFDUS_clean_linker_0, # of connection points: 2
#     Edge 35, Type (0, 0), BuildingBlock: CIFDUS_clean_linker_0, # of connection points: 2
#     Edge 36, Type (0, 0), BuildingBlock: CIFDUS_clean_linker_0, # of connection points: 2
#     Edge 37, Type (0, 0), BuildingBlock: CIFDUS_clean_linker_0, # of connection points: 2
#     Edge 38, Type (0, 0), BuildingBlock: CIFDUS_clean_linker_0, # of connection points: 2
#     Edge 39, Type (0, 0), BuildingBlock: CIFDUS_clean_linker_0, # of connection points: 2
#     Edge 40, Type (0, 0), BuildingBlock: CIFDUS_clean_linker_0, # of connection points: 2
#     Edge 41, Type (0, 0), BuildingBlock: CIFDUS_clean_linker_0, # of connection points: 2
#     Edge 42, Type (0, 0), BuildingBlock: CIFDUS_clean_linker_0, # of connection points: 2
#     Edge 43, Type (0, 0), BuildingBlock: CIFDUS_clean_linker_0, # of connection points: 2
#     Edge 44, Type (0, 0), BuildingBlock: CIFDUS_clean_linker_0, # of connection points: 2
#     Edge 45, Type (0, 0), BuildingBlock: CIFDUS_clean_linker_0, # of connection points: 2
#     Edge 46, Type (0, 0), BuildingBlock: CIFDUS_clean_linker_0, # of connection points: 2
#     Edge 47, Type (0, 0), BuildingBlock: CIFDUS_clean_linker_0, # of connection points: 2
#     Edge 48, Type (0, 0), BuildingBlock: CIFDUS_clean_linker_0, # of connection points: 2
#     Edge 49, Type (0, 0), BuildingBlock: CIFDUS_clean_linker_0, # of connection points: 2
#     Edge 50, Type (0, 0), BuildingBlock: CIFDUS_clean_linker_0, # of connection points: 2
#     Edge 51, Type (0, 0), BuildingBlock: CIFDUS_clean_linker_0, # of connection points: 2
#     Edge 52, Type (0, 0), BuildingBlock: CIFDUS_clean_linker_0, # of connection points: 2
#     Edge 53, Type (0, 0), BuildingBlock: CIFDUS_clean_linker_0, # of connection points: 2
#     Edge 54, Type (0, 0), BuildingBlock: CIFDUS_clean_linker_0, # of connection points: 2
#     Edge 55, Type (0, 0), BuildingBlock: CIFDUS_clean_linker_0, # of connection points: 2
#     Edge 56, Type (0, 0), BuildingBlock: CIFDUS_clean_linker_0, # of connection points: 2
#     Edge 57, Type (0, 0), BuildingBlock: CIFDUS_clean_linker_0, # of connection points: 2
#     Edge 58, Type (0, 0), BuildingBlock: CIFDUS_clean_linker_0, # of connection points: 2
#     Edge 59, Type (0, 0), BuildingBlock: CIFDUS_clean_linker_0, # of connection points: 2
#     Edge 60, Type (0, 0), BuildingBlock: CIFDUS_clean_linker_0, # of connection points: 2
#     Edge 61, Type (0, 0), BuildingBlock: CIFDUS_clean_linker_0, # of connection points: 2
#     Edge 62, Type (0, 0), BuildingBlock: CIFDUS_clean_linker_0, # of connection points: 2
#     Edge 63, Type (0, 0), BuildingBlock: CIFDUS_clean_linker_0, # of connection points: 2
#     Edge 64, Type (0, 0), BuildingBlock: CIFDUS_clean_linker_0, # of connection points: 2
#     Edge 65, Type (0, 0), BuildingBlock: CIFDUS_clean_linker_0, # of connection points: 2
#     Edge 66, Type (0, 0), BuildingBlock: CIFDUS_clean_linker_0, # of connection points: 2
#     Edge 67, Type (0, 0), BuildingBlock: CIFDUS_clean_linker_0, # of connection points: 2
#     Edge 68, Type (0, 0), BuildingBlock: CIFDUS_clean_linker_0, # of connection points: 2
#     Edge 69, Type (0, 0), BuildingBlock: CIFDUS_clean_linker_0, # of connection points: 2
#     Edge 70, Type (0, 0), BuildingBlock: CIFDUS_clean_linker_0, # of connection points: 2
#     Edge 71, Type (0, 0), BuildingBlock: CIFDUS_clean_linker_0, # of connection points: 2
#     Edge 72, Type (0, 0), BuildingBlock: CIFDUS_clean_linker_0, # of connection points: 2
#     Edge 73, Type (0, 0), BuildingBlock: CIFDUS_clean_linker_0, # of connection points: 2
#     Edge 74, Type (0, 0), BuildingBlock: CIFDUS_clean_linker_0, # of connection points: 2
#     Edge 75, Type (0, 0), BuildingBlock: CIFDUS_clean_linker_0, # of connection points: 2
#     Edge 76, Type (0, 0), BuildingBlock: CIFDUS_clean_linker_0, # of connection points: 2
#     Edge 77, Type (0, 0), BuildingBlock: CIFDUS_clean_linker_0, # of connection points: 2
#     Edge 78, Type (0, 0), BuildingBlock: CIFDUS_clean_linker_0, # of connection points: 2
#     Edge 79, Type (0, 0), BuildingBlock: CIFDUS_clean_linker_0, # of connection points: 2
#     Edge 80, Type (0, 0), BuildingBlock: CIFDUS_clean_linker_0, # of connection points: 2
#     Edge 81, Type (0, 0), BuildingBlock: CIFDUS_clean_linker_0, # of connection points: 2
#     Edge 82, Type (0, 0), BuildingBlock: CIFDUS_clean_linker_0, # of connection points: 2
#     Edge 83, Type (0, 0), BuildingBlock: CIFDUS_clean_linker_0, # of connection points: 2
#     Edge 84, Type (0, 0), BuildingBlock: CIFDUS_clean_linker_0, # of connection points: 2
#     Edge 85, Type (0, 0), BuildingBlock: CIFDUS_clean_linker_0, # of connection points: 2
#     Edge 86, Type (0, 0), BuildingBlock: CIFDUS_clean_linker_0, # of connection points: 2
#     Edge 87, Type (0, 0), BuildingBlock: CIFDUS_clean_linker_0, # of connection points: 2
#     Edge 88, Type (0, 0), BuildingBlock: CIFDUS_clean_linker_0, # of connection points: 2
#     Edge 89, Type (0, 0), BuildingBlock: CIFDUS_clean_linker_0, # of connection points: 2
#     Edge 90, Type (0, 0), BuildingBlock: CIFDUS_clean_linker_0, # of connection points: 2
#     Edge 91, Type (0, 0), BuildingBlock: CIFDUS_clean_linker_0, # of connection points: 2
#     Edge 92, Type (0, 0), BuildingBlock: CIFDUS_clean_linker_0, # of connection points: 2
#     Edge 93, Type (0, 0), BuildingBlock: CIFDUS_clean_linker_0, # of connection points: 2
#     Edge 94, Type (0, 0), BuildingBlock: CIFDUS_clean_linker_0, # of connection points: 2
#     Edge 95, Type (0, 0), BuildingBlock: CIFDUS_clean_linker_0, # of connection points: 2
# Relax obj value: 0.041
# Max RMSD: 0.109
# Mean RMSD: 0.108
data_MOF--net-uke--node1-ICAMEG_clean_sbu_1--edge1-CIFDUS_clean_linker_0
_symmetry_space_group_name_H-M    P1
_symmetry_Int_Tables_number       1
_symmetry_cell_setting            triclinic
loop_
_symmetry_equiv_pos_as_xyz
'x, y, z'
_cell_length_a     18.046431
_cell_length_b     105.23016
_cell_length_c     50.810952
_cell_angle_alpha  89.984822
_cell_angle_beta   90.07702
_cell_angle_gamma 89.875257
loop_
_atom_site_label
_atom_site_type_symbol
_atom_site_fract_x
_atom_site_fract_y
_atom_site_fract_z
_atom_type_partial_charge
Co0 Co 0.18172 0.06256 0.25545 0.0
Co1 Co 0.00528 0.04975 0.25713 0.0
O2 O 0.08068 0.06176 0.26931 0.0
C3 C 0.12499 0.08893 0.24904 0.0
O4 O 0.06257 0.08402 0.24057 0.0
C5 C 0.00978 0.04561 0.31503 0.0
O6 O 0.08233 0.0451 0.31331 0.0
O7 O 0.07568 0.03515 0.26079 0.0
O8 O 0.18854 0.04356 0.25434 0.0
H9 H 0.90833 0.01327 0.20352 0.0
H10 H 0.1435 0.07673 0.30395 0.0
O11 O 0.17813 0.08168 0.25609 0.0
H12 H 0.3421 0.04701 0.33004 0.0
H13 H 0.44103 0.07993 0.25004 0.0
H14 H 0.26437 0.04878 0.21386 0.0
H15 H 0.29772 0.04774 0.28414 0.0
H16 H 0.31385 0.07852 0.26753 0.0
O17 O 0.9709 0.04726 0.29437 0.0
H18 H 0.00213 0.02872 0.21836 0.0
H19 H 0.84716 0.04513 0.2713 0.0
H20 H 0.39115 0.04979 0.19593 0.0
H21 H 0.18657 0.07638 0.35006 0.0
H22 H 0.48048 0.06546 0.21405 0.0
H23 H 0.2865 0.06142 0.36336 0.0
O24 O 0.14445 0.06273 0.21856 0.0
H25 H 0.87845 0.08981 0.28681 0.0
H26 H 0.90131 0.05851 0.21507 0.0
H27 H 0.81706 0.07681 0.20973 0.0
H28 H 0.80517 0.09262 0.2458 0.0
H29 H 0.96263 0.07143 0.29119 0.0
H30 H 0.75189 0.02979 0.2572 0.0
H31 H 0.78219 0.01373 0.22302 0.0
O32 O 0.0365 0.05212 0.21961 0.0
C33 C 0.14565 0.03406 0.25756 0.0
C34 C 0.89439 0.02024 0.21837 0.0
C35 C 0.80662 0.0295 0.24853 0.0
N36 N 0.93 0.03787 0.24554 0.0
C37 C 0.9472 0.02904 0.2268 0.0
C38 C 0.86085 0.03814 0.25648 0.0
C39 C 0.82365 0.0205 0.22934 0.0
C40 C 0.18744 0.07028 0.30955 0.0
N41 N 0.21831 0.06232 0.29136 0.0
C42 C 0.2114 0.07008 0.3357 0.0
C43 C 0.26739 0.06167 0.34316 0.0
C44 C 0.29858 0.05358 0.32448 0.0
C45 C 0.27311 0.05402 0.29853 0.0
C46 C 0.40266 0.07305 0.24201 0.0
C47 C 0.30305 0.05557 0.22195 0.0
C48 C 0.33053 0.07223 0.2518 0.0
N49 N 0.28192 0.06352 0.24184 0.0
C50 C 0.3747 0.05612 0.21167 0.0
C51 C 0.42476 0.06492 0.22182 0.0
C52 C 0.08873 0.05766 0.2072 0.0
C53 C 0.88306 0.08298 0.27097 0.0
C54 C 0.89677 0.06538 0.23077 0.0
C55 C 0.84876 0.0757 0.22769 0.0
C56 C 0.84204 0.08456 0.24794 0.0
N57 N 0.93689 0.0639 0.25341 0.0
C58 C 0.93042 0.07253 0.27338 0.0
Co59 Co 0.05777 0.19148 0.25634 0.0
Co60 Co 0.23549 0.20384 0.25784 0.0
O61 O 0.15895 0.19211 0.27016 0.0
C62 C 0.11359 0.16509 0.24965 0.0
O63 O 0.17616 0.17 0.24136 0.0
C64 C 0.22875 0.20846 0.31544 0.0
O65 O 0.15627 0.20893 0.31332 0.0
O66 O 0.16612 0.21866 0.2604 0.0
O67 O 0.05206 0.21047 0.25546 0.0
H68 H 0.33701 0.23948 0.20291 0.0
H69 H 0.09594 0.17709 0.30463 0.0
O70 O 0.06056 0.17235 0.25672 0.0
H71 H 0.89941 0.20705 0.33128 0.0
H72 H 0.79766 0.17446 0.25093 0.0
H73 H 0.97488 0.20559 0.21518 0.0
H74 H 0.94302 0.20638 0.28531 0.0
H75 H 0.92525 0.17561 0.26825 0.0
O76 O 0.26848 0.20669 0.29508 0.0
H77 H 0.24158 0.22439 0.218 0.0
H78 H 0.3933 0.20835 0.27274 0.0
H79 H 0.8477 0.20483 0.19743 0.0
H80 H 0.05365 0.17738 0.35079 0.0
H81 H 0.75809 0.18918 0.21534 0.0
H82 H 0.95478 0.19246 0.36437 0.0
O83 O 0.09445 0.19139 0.2194 0.0
H84 H 0.35774 0.1638 0.29008 0.0
H85 H 0.3411 0.1945 0.21699 0.0
H86 H 0.42412 0.17595 0.21298 0.0
H87 H 0.43286 0.16045 0.24974 0.0
H88 H 0.27486 0.18241 0.29311 0.0
H89 H 0.49014 0.22333 0.25842 0.0
H90 H 0.4623 0.23902 0.2232 0.0
O91 O 0.20539 0.2011 0.22034 0.0
C92 C 0.09601 0.21989 0.25779 0.0
C93 C 0.34988 0.23267 0.21822 0.0
C94 C 0.43579 0.22362 0.2494 0.0
N95 N 0.31201 0.21545 0.24609 0.0
C96 C 0.29615 0.22408 0.22678 0.0
C97 C 0.38067 0.21518 0.25747 0.0
C98 C 0.42014 0.23241 0.22963 0.0
C99 C 0.05244 0.1836 0.31035 0.0
N100 N 0.02171 0.19166 0.29228 0.0
C101 C 0.02892 0.18375 0.33653 0.0
C102 C 0.97353 0.19223 0.34415 0.0
C103 C 0.94247 0.20043 0.32559 0.0
C104 C 0.96748 0.20002 0.2996 0.0
C105 C 0.83617 0.18133 0.24299 0.0
C106 C 0.9361 0.1988 0.22316 0.0
C107 C 0.90853 0.18201 0.25267 0.0
N108 N 0.95732 0.19071 0.24283 0.0
C109 C 0.86421 0.19839 0.21299 0.0
C110 C 0.81399 0.1896 0.22303 0.0
C111 C 0.15162 0.19592 0.20804 0.0
C112 C 0.35447 0.1705 0.27394 0.0
C113 C 0.34422 0.18775 0.23296 0.0
C114 C 0.39157 0.1773 0.23064 0.0
C115 C 0.39652 0.16861 0.25128 0.0
N116 N 0.30303 0.18952 0.25521 0.0
C117 C 0.30783 0.18107 0.27558 0.0
Co118 Co 0.17588 0.19039 1.00119 0.0
Co119 Co 0.00297 0.20487 0.00446 0.0
O120 O 0.0714 0.19192 0.99076 0.0
C121 C 0.11682 0.16494 0.01378 0.0
O122 O 0.05658 0.17032 0.02306 0.0
C123 C 0.99134 0.20785 0.94593 0.0
O124 O 0.06346 0.2065 0.94392 0.0
O125 O 0.07734 0.21876 0.99874 0.0
O126 O 0.18808 0.20899 0.99928 0.0
H127 H 0.9324 0.24241 0.06018 0.0
H128 H 0.11743 0.17538 0.95655 0.0
O129 O 0.16773 0.17159 1.00348 0.0
H130 H 0.31876 0.20128 0.91908 0.0
H131 H 0.43042 0.17063 1.0 0.0
H132 H 0.27405 0.20453 0.03764 0.0
H133 H 0.28896 0.2025 0.96636 0.0
H134 H 0.29946 0.1728 0.98676 0.0
O135 O 0.96057 0.20771 0.96844 0.0
H136 H 0.01628 0.22583 0.04303 0.0
H137 H 0.84395 0.2114 0.99458 0.0
H138 H 0.4049 0.20277 0.05125 0.0
H139 H 0.14574 0.17375 0.90917 0.0
H140 H 0.48404 0.18572 0.03239 0.0
H141 H 0.24689 0.1868 0.89013 0.0
O142 O 0.14999 0.19166 0.03933 0.0
H143 H 0.86027 0.16573 0.9794 0.0
H144 H 0.90026 0.19799 0.04823 0.0
H145 H 0.81139 0.18064 0.05609 0.0
H146 H 0.79085 0.16435 0.02148 0.0
H147 H 0.9493 0.18316 0.97255 0.0
H148 H 0.75845 0.22789 0.011 0.0
H149 H 0.80248 0.24352 0.04412 0.0
O150 O 0.04096 0.20205 0.0409 0.0
C151 C 0.14816 0.21893 0.99814 0.0
C152 C 0.91251 0.23564 0.0458 0.0
C153 C 0.81493 0.2275 0.01816 0.0
N154 N 0.93501 0.21763 0.0179 0.0
C155 C 0.95969 0.22621 0.03607 0.0
C156 C 0.8637 0.21822 0.00885 0.0
C157 C 0.83965 0.23626 0.03675 0.0
C158 C 0.16181 0.18103 0.94842 0.0
N159 N 0.20132 0.18907 0.96419 0.0
C160 C 0.17746 0.18009 0.92158 0.0
C161 C 0.23415 0.18743 0.9109 0.0
C162 C 0.27442 0.19557 0.92712 0.0
C163 C 0.25708 0.19627 0.95387 0.0
C164 C 0.39654 0.17811 0.00832 0.0
C165 C 0.30824 0.19713 0.02922 0.0
C166 C 0.32229 0.17937 1.00095 0.0
N167 N 0.27926 0.18883 0.01129 0.0
C168 C 0.38225 0.19616 0.03706 0.0
C169 C 0.42659 0.18659 0.02649 0.0
C170 C 0.0962 0.19666 0.05195 0.0
C171 C 0.86885 0.17275 0.99466 0.0
C172 C 0.89236 0.19085 0.03326 0.0
C173 C 0.84157 0.18109 0.03772 0.0
C174 C 0.82997 0.17197 0.01828 0.0
N175 N 0.93059 0.19152 0.01011 0.0
C176 C 0.91911 0.18266 0.99088 0.0
Co177 Co 0.06624 0.06369 0.99946 0.0
Co178 Co 0.24335 0.05086 0.00456 0.0
O179 O 0.17166 0.06301 0.98988 0.0
C180 C 0.11886 0.08937 0.01298 0.0
O181 O 0.17919 0.08419 0.02273 0.0
C182 C 0.25766 0.04674 0.94632 0.0
O183 O 0.18521 0.0471 0.94394 0.0
O184 O 0.17318 0.0363 0.9993 0.0
O185 O 0.05937 0.04501 0.99696 0.0
H186 H 0.32322 0.01476 0.06286 0.0
H187 H 0.12418 0.07921 0.95548 0.0
O188 O 0.06958 0.08254 1.00217 0.0
H189 H 0.93054 0.0522 0.91609 0.0
H190 H 0.80707 0.08154 0.9965 0.0
H191 H 0.96952 0.04855 0.03455 0.0
H192 H 0.95777 0.05105 0.96362 0.0
H193 H 0.93927 0.08046 0.98444 0.0
O194 O 0.28765 0.04791 0.96887 0.0
H195 H 0.23506 0.03033 0.04432 0.0
H196 H 0.40434 0.04559 0.99576 0.0
H197 H 0.83748 0.04921 0.04698 0.0
H198 H 0.09838 0.08078 0.90788 0.0
H199 H 0.7553 0.0658 0.0279 0.0
H200 H 1.00111 0.06717 0.88788 0.0
O201 O 0.08968 0.06244 0.03791 0.0
H202 H 0.37573 0.09079 0.97793 0.0
H203 H 0.34141 0.05925 0.0486 0.0
H204 H 0.42474 0.07747 0.05592 0.0
H205 H 0.44236 0.09339 0.02039 0.0
H206 H 0.2923 0.07251 0.97161 0.0
H207 H 0.49415 0.03012 0.01359 0.0
H208 H 0.45381 0.01459 0.04747 0.0
O209 O 0.20353 0.05379 0.04062 0.0
C210 C 0.10277 0.03548 0.99706 0.0
C211 C 0.3415 0.0215 0.04814 0.0
C212 C 0.43739 0.0301 0.02045 0.0
N213 N 0.31451 0.03888 0.01902 0.0
C214 C 0.29187 0.03035 0.03761 0.0
C215 C 0.3862 0.0388 0.01035 0.0
C216 C 0.41474 0.0214 0.03947 0.0
C217 C 0.08155 0.0733 0.94692 0.0
N218 N 0.04279 0.06499 0.96227 0.0
C219 C 0.06729 0.07421 0.91996 0.0
C220 C 0.01276 0.06657 0.90875 0.0
C221 C 0.97322 0.05815 0.92456 0.0
C222 C 0.98913 0.05748 0.95143 0.0
C223 C 0.84229 0.07425 0.00492 0.0
C224 C 0.934 0.05575 0.02605 0.0
C225 C 0.91724 0.07361 0.99821 0.0
N226 N 0.96197 0.0644 0.00866 0.0
C227 C 0.85933 0.0561 0.03321 0.0
C228 C 0.81327 0.06541 0.02253 0.0
C229 C 0.14513 0.05836 0.05108 0.0
C230 C 0.36844 0.08393 0.99358 0.0
C231 C 0.34822 0.06621 0.03318 0.0
C232 C 0.3958 0.07647 0.03737 0.0
C233 C 0.40575 0.08539 0.01741 0.0
N234 N 0.31154 0.06487 0.00981 0.0
C235 C 0.32139 0.07354 0.99009 0.0
Co236 Co 0.84173 0.93908 0.74863 0.0
Co237 Co 0.01265 0.9535 0.75785 0.0
O238 O 0.94772 0.94097 0.74114 0.0
C239 C 0.90664 0.91373 0.75982 0.0
O240 O 0.96164 0.91976 0.77118 0.0
C241 C 0.03177 0.95757 0.70009 0.0
O242 O 0.96083 0.95527 0.6971 0.0
O243 O 0.93912 0.96734 0.75153 0.0
O244 O 0.82747 0.95802 0.74833 0.0
H245 H 0.07148 0.98974 0.8187 0.0
H246 H 0.90756 0.92474 0.70419 0.0
O247 O 0.85341 0.92 0.7495 0.0
H248 H 0.71569 0.95211 0.66434 0.0
H249 H 0.59156 0.91852 0.73889 0.0
H250 H 0.73386 0.95229 0.78319 0.0
H251 H 0.73742 0.9524 0.71228 0.0
H252 H 0.72472 0.92132 0.7297 0.0
O253 O 0.06088 0.95736 0.72297 0.0
H254 H 0.99129 0.97364 0.79789 0.0
H255 H 0.17261 0.96019 0.75247 0.0
H256 H 0.60069 0.9499 0.79278 0.0
H257 H 0.88732 0.92407 0.65618 0.0
H258 H 0.52862 0.93291 0.77056 0.0
H259 H 0.79088 0.93785 0.63596 0.0
O260 O 0.85954 0.93965 0.78725 0.0
H261 H 0.16567 0.91553 0.73232 0.0
H262 H 0.10171 0.94503 0.8042 0.0
H263 H 0.18991 0.92755 0.8126 0.0
H264 H 0.22248 0.91266 0.77648 0.0
H265 H 0.07713 0.93306 0.72488 0.0
H266 H 0.25459 0.97621 0.7726 0.0
H267 H 0.20414 0.9911 0.80604 0.0
O268 O 0.96729 0.94997 0.79317 0.0
C269 C 0.86866 0.96787 0.74927 0.0
C270 C 0.09417 0.98327 0.80422 0.0
C271 C 0.19692 0.97569 0.77832 0.0
N272 N 0.07737 0.96592 0.77415 0.0
C273 C 0.0491 0.97412 0.79244 0.0
C274 C 0.15019 0.96666 0.76695 0.0
C275 C 0.16858 0.98404 0.79709 0.0
C276 C 0.86502 0.93066 0.69556 0.0
N277 N 0.82351 0.93855 0.71102 0.0
C278 C 0.85402 0.93029 0.66835 0.0
C279 C 0.8 0.93804 0.65701 0.0
C280 C 0.75784 0.94605 0.67293 0.0
C281 C 0.77052 0.9462 0.70005 0.0
C282 C 0.62234 0.92597 0.74867 0.0
C283 C 0.70278 0.94492 0.77332 0.0
C284 C 0.69778 0.92758 0.74359 0.0
N285 N 0.7369 0.93701 0.75578 0.0
C286 C 0.62743 0.94359 0.77889 0.0
C287 C 0.58705 0.93405 0.76643 0.0
C288 C 0.90933 0.94449 0.80199 0.0
C289 C 0.15205 0.92197 0.7482 0.0
C290 C 0.11533 0.93855 0.78843 0.0
C291 C 0.1655 0.9287 0.79328 0.0
C292 C 0.18381 0.92035 0.77299 0.0
N293 N 0.08436 0.94007 0.76407 0.0
C294 C 0.10219 0.93195 0.74407 0.0
Co295 Co 0.90186 0.81295 0.75174 0.0
Co296 Co 0.72664 0.79954 0.75109 0.0
O297 O 0.79964 0.81191 0.73896 0.0
C298 C 0.83852 0.83852 0.76098 0.0
O299 O 0.77992 0.83266 0.77018 0.0
C300 C 0.72755 0.79621 0.69277 0.0
O301 O 0.80023 0.79596 0.69404 0.0
O302 O 0.79871 0.78529 0.74627 0.0
O303 O 0.91177 0.79395 0.75117 0.0
H304 H 0.63845 0.76204 0.80354 0.0
H305 H 0.85606 0.82792 0.70498 0.0
O306 O 0.89386 0.83208 0.75278 0.0
H307 H 0.05659 0.79978 0.67398 0.0
H308 H 0.15753 0.8319 0.75565 0.0
H309 H 0.99255 0.79861 0.79047 0.0
H310 H 0.01687 0.79933 0.7204 0.0
H311 H 0.02873 0.83009 0.73977 0.0
O312 O 0.68979 0.79735 0.71383 0.0
H313 H 0.72889 0.77811 0.78892 0.0
H314 H 0.56836 0.79439 0.73776 0.0
H315 H 0.12108 0.80002 0.80674 0.0
H316 H 0.89435 0.82873 0.65842 0.0
H317 H 0.20455 0.81676 0.7893 0.0
H318 H 0.99523 0.81457 0.64264 0.0
O319 O 0.86916 0.81209 0.78912 0.0
H320 H 0.59338 0.83951 0.72442 0.0
H321 H 0.62358 0.80729 0.79409 0.0
H322 H 0.53745 0.82521 0.80099 0.0
H323 H 0.52188 0.84147 0.76596 0.0
H324 H 0.67953 0.82151 0.71851 0.0
H325 H 0.4764 0.77844 0.75167 0.0
H326 H 0.51121 0.76213 0.78483 0.0
O327 O 0.76042 0.80165 0.78862 0.0
C328 C 0.86915 0.78436 0.74837 0.0
C329 C 0.62255 0.76913 0.78914 0.0
C330 C 0.53163 0.77832 0.75999 0.0
N331 N 0.65377 0.78723 0.76266 0.0
C332 C 0.67344 0.77827 0.78085 0.0
C333 C 0.58399 0.78731 0.75216 0.0
C334 C 0.55119 0.76917 0.77861 0.0
C335 C 0.90044 0.82181 0.69831 0.0
N336 N 0.93448 0.81365 0.71541 0.0
C337 C 0.92168 0.82227 0.6719 0.0
C338 C 0.97821 0.81431 0.66305 0.0
C339 C 0.01264 0.806 0.68062 0.0
C340 C 0.98982 0.80578 0.70687 0.0
C341 C 0.12173 0.82456 0.76338 0.0
C342 C 0.02863 0.80589 0.78269 0.0
C343 C 0.04869 0.82351 0.75452 0.0
N344 N 0.0033 0.81422 0.7641 0.0
C345 C 0.10131 0.80665 0.79202 0.0
C346 C 0.14808 0.81605 0.78225 0.0
C347 C 0.81452 0.80687 0.80078 0.0
C348 C 0.59961 0.83247 0.73981 0.0
C349 C 0.61749 0.81437 0.77887 0.0
C350 C 0.56839 0.82447 0.78282 0.0
C351 C 0.5596 0.83358 0.76314 0.0
N352 N 0.65667 0.81337 0.75597 0.0
C353 C 0.6481 0.82223 0.73654 0.0
Co354 Co 0.80069 0.81336 0.00644 0.0
Co355 Co 0.97249 0.79849 0.00593 0.0
O356 O 0.90393 0.81172 0.01791 0.0
C357 C 0.86747 0.83795 0.9927 0.0
O358 O 0.92608 0.8317 0.9845 0.0
C359 C 0.97355 0.79605 0.06448 0.0
O360 O 0.90092 0.79673 0.06373 0.0
O361 O 0.89642 0.78489 0.01152 0.0
O362 O 0.78605 0.79481 0.00981 0.0
H363 H 0.0475 0.75997 0.95389 0.0
H364 H 0.85743 0.82913 0.05032 0.0
O365 O 0.81264 0.83208 1.00254 0.0
H366 H 0.65136 0.80444 0.08806 0.0
H367 H 0.54955 0.83428 1.00351 0.0
H368 H 0.70248 0.79878 0.9707 0.0
H369 H 0.68452 0.8022 0.04122 0.0
H370 H 0.67936 0.83184 0.01796 0.0
O371 O 0.01034 0.79625 0.04308 0.0
H372 H 0.96253 0.77694 0.96857 0.0
H373 H 0.12939 0.79185 0.01878 0.0
H374 H 0.57278 0.80081 0.9559 0.0
H375 H 0.82587 0.83175 0.09724 0.0
H376 H 0.49537 0.81866 0.97233 0.0
H377 H 0.72228 0.81932 0.11641 0.0
O378 O 0.82874 0.81113 0.96875 0.0
H379 H 0.11773 0.83745 0.03033 0.0
H380 H 0.07653 0.80481 0.9623 0.0
H381 H 0.16744 0.82185 0.95429 0.0
H382 H 0.18855 0.83832 0.98849 0.0
H383 H 0.02684 0.82032 0.03737 0.0
H384 H 0.21597 0.77499 0.00481 0.0
H385 H 0.17522 0.75892 0.97208 0.0
O386 O 0.93781 0.80071 0.9686 0.0
C387 C 0.82554 0.78483 0.01163 0.0
C388 C 0.06598 0.76694 0.96811 0.0
C389 C 0.16049 0.77536 0.99672 0.0
N390 N 0.04108 0.78541 0.9944 0.0
C391 C 0.01818 0.77659 0.97644 0.0
C392 C 0.11114 0.78486 0.00461 0.0
C393 C 0.1376 0.76635 0.97834 0.0
C394 C 0.81195 0.82376 0.05848 0.0
N395 N 0.77283 0.81553 0.04304 0.0
C396 C 0.79448 0.82525 0.08508 0.0
C397 C 0.73643 0.81826 0.09583 0.0
C398 C 0.69666 0.8099 0.07994 0.0
C399 C 0.71583 0.80864 0.05345 0.0
C400 C 0.58268 0.82645 0.99625 0.0
C401 C 0.66903 0.80653 0.97806 0.0
C402 C 0.65626 0.82503 0.00431 0.0
N403 N 0.6983 0.81513 0.99531 0.0
C404 C 0.59568 0.80765 0.96955 0.0
C405 C 0.55231 0.81768 0.97876 0.0
C406 C 0.88269 0.80582 0.95678 0.0
C407 C 0.10909 0.83032 0.01529 0.0
C408 C 0.08506 0.81199 0.97717 0.0
C409 C 0.13684 0.82159 0.97259 0.0
C410 C 0.14872 0.83081 0.99179 0.0
N411 N 0.04628 0.81159 1.00023 0.0
C412 C 0.05787 0.82057 0.0192 0.0
Co413 Co 0.96694 0.93782 0.01385 0.0
Co414 Co 0.79505 0.95159 1.00217 0.0
O415 O 0.85955 0.93901 0.01901 0.0
C416 C 0.91107 0.91302 0.99652 0.0
O417 O 0.85708 0.91916 0.98471 0.0
C418 C 0.76649 0.95518 0.05962 0.0
O419 O 0.83836 0.95477 0.06364 0.0
O420 O 0.86561 0.96567 0.01072 0.0
O421 O 0.9767 0.95646 0.01762 0.0
H422 H 0.73792 0.98849 0.94269 0.0
H423 H 0.8931 0.92189 0.05409 0.0
O424 O 0.95968 0.91903 0.00967 0.0
H425 H 0.07424 0.94781 0.10302 0.0
H426 H 0.21894 0.91811 0.02664 0.0
H427 H 0.07836 0.95279 0.98428 0.0
H428 H 0.06307 0.94973 0.05479 0.0
H429 H 0.0838 0.91995 0.03289 0.0
O430 O 0.74091 0.95432 0.03631 0.0
H431 H 0.81799 0.97239 0.96373 0.0
H432 H 0.63343 0.95756 0.00534 0.0
H433 H 0.21351 0.95137 0.97769 0.0
H434 H 0.90269 0.9196 0.10231 0.0
H435 H 0.28472 0.93393 0.99896 0.0
H436 H 0.99365 0.93265 0.12709 0.0
O437 O 0.95693 0.9398 0.97488 0.0
H438 H 0.6479 0.91218 0.02144 0.0
H439 H 0.71257 0.94387 0.95383 0.0
H440 H 0.62966 0.92612 0.94227 0.0
H441 H 0.5968 0.91012 0.97623 0.0
H442 H 0.73121 0.93002 0.03204 0.0
H443 H 0.55146 0.97355 0.9849 0.0
H444 H 0.60361 0.98913 0.95326 0.0
O445 O 0.84589 0.94892 0.96767 0.0
C446 C 0.93504 0.96619 0.01575 0.0
C447 C 0.71451 0.98173 0.95641 0.0
C448 C 0.60989 0.97336 0.98013 0.0
N449 N 0.73043 0.96403 0.9857 0.0
C450 C 0.75956 0.97258 0.96835 0.0
C451 C 0.65664 0.96436 0.99172 0.0
C452 C 0.63918 0.9821 0.96237 0.0
C453 C 0.93316 0.92754 0.06473 0.0
N454 N 0.97755 0.93592 0.05165 0.0
C455 C 0.93819 0.92623 0.09203 0.0
C456 C 0.98917 0.93356 0.10593 0.0
C457 C 0.03435 0.94208 0.09244 0.0
C458 C 0.02764 0.94315 0.06514 0.0
C459 C 0.18854 0.92576 0.0173 0.0
C460 C 0.10903 0.94521 0.99372 0.0
C461 C 0.11199 0.92683 0.02072 0.0
N462 N 0.07332 0.93651 0.0091 0.0
C463 C 0.18551 0.94444 0.98986 0.0
C464 C 0.22542 0.93465 1.00178 0.0
C465 C 0.90733 0.94435 0.95959 0.0
C466 C 0.66175 0.9191 0.00648 0.0
C467 C 0.69888 0.93691 0.96864 0.0
C468 C 0.65167 0.9269 0.96203 0.0
C469 C 0.63318 0.91794 0.9811 0.0
N470 N 0.72686 0.93797 0.99355 0.0
C471 C 0.7087 0.92925 0.01239 0.0
Co472 Co 0.17437 0.56221 0.75372 0.0
Co473 Co 0.99665 0.54992 0.74967 0.0
O474 O 0.06993 0.56168 0.76435 0.0
C475 C 0.12183 0.58873 0.74567 0.0
O476 O 0.06095 0.584 0.7355 0.0
C477 C 0.98235 0.54559 0.80775 0.0
O478 O 0.05478 0.54474 0.80966 0.0
O479 O 0.06474 0.53509 0.75527 0.0
O480 O 0.17948 0.54324 0.75284 0.0
H481 H 0.91166 0.51391 0.69229 0.0
H482 H 0.12495 0.57653 0.80074 0.0
O483 O 0.1725 0.58133 0.7542 0.0
H484 H 0.313 0.54628 0.83327 0.0
H485 H 0.43555 0.57889 0.75688 0.0
H486 H 0.26666 0.54803 0.71535 0.0
H487 H 0.28093 0.5471 0.7861 0.0
H488 H 0.30411 0.57789 0.76997 0.0
O489 O 0.95205 0.5474 0.78542 0.0
H490 H 0.00208 0.52912 0.71048 0.0
H491 H 0.83499 0.54551 0.75858 0.0
H492 H 0.39779 0.54864 0.70182 0.0
H493 H 0.1557 0.57609 0.84807 0.0
H494 H 0.48324 0.56415 0.72265 0.0
H495 H 0.25026 0.56086 0.86461 0.0
O496 O 0.14717 0.56243 0.71567 0.0
H497 H 0.86889 0.59047 0.77577 0.0
H498 H 0.90027 0.55868 0.70542 0.0
H499 H 0.81932 0.57724 0.6978 0.0
H500 H 0.80317 0.5933 0.73318 0.0
H501 H 0.95006 0.57185 0.78236 0.0
H502 H 0.74297 0.53041 0.7411 0.0
H503 H 0.78107 0.51449 0.70764 0.0
O504 O 0.03702 0.55249 0.7134 0.0
C505 C 0.13521 0.53384 0.7544 0.0
C506 C 0.89434 0.52082 0.70681 0.0
C507 C 0.79969 0.53007 0.73424 0.0
N508 N 0.92378 0.53824 0.73544 0.0
C509 C 0.94523 0.52948 0.71712 0.0
C510 C 0.85212 0.53857 0.74412 0.0
C511 C 0.82109 0.52114 0.71545 0.0
C512 C 0.1666 0.56995 0.80777 0.0
N513 N 0.20137 0.5619 0.79067 0.0
C514 C 0.18359 0.56971 0.8346 0.0
C515 C 0.23657 0.56115 0.84387 0.0
C516 C 0.27177 0.55296 0.8263 0.0
C517 C 0.25326 0.55345 0.79962 0.0
C518 C 0.39888 0.57208 0.74768 0.0
C519 C 0.30355 0.55478 0.72457 0.0
C520 C 0.32436 0.57149 0.75495 0.0
N521 N 0.27783 0.56287 0.74351 0.0
C522 C 0.37772 0.55509 0.7168 0.0
C523 C 0.42561 0.56381 0.72848 0.0
C524 C 0.09303 0.55777 0.70272 0.0
C525 C 0.87556 0.58356 0.76019 0.0
C526 C 0.89421 0.5657 0.72074 0.0
C527 C 0.84791 0.57615 0.71641 0.0
C528 C 0.83878 0.58514 0.73628 0.0
N529 N 0.93047 0.56425 0.74418 0.0
C530 C 0.92131 0.57297 0.76383 0.0
Co531 Co 0.06481 0.69131 0.75607 0.0
Co532 Co 0.24328 0.70338 0.7564 0.0
O533 O 0.16722 0.69158 0.76884 0.0
C534 C 0.1177 0.66485 0.7479 0.0
O535 O 0.18006 0.66967 0.73919 0.0
C536 C 0.24403 0.70692 0.81471 0.0
O537 O 0.17147 0.70772 0.81358 0.0
O538 O 0.17515 0.71829 0.761 0.0
O539 O 0.06072 0.7103 0.75581 0.0
H540 H 0.34093 0.73984 0.70293 0.0
H541 H 0.10562 0.67642 0.80344 0.0
O542 O 0.06591 0.67218 0.75578 0.0
H543 H 0.91428 0.70669 0.83318 0.0
H544 H 0.80293 0.67496 0.75295 0.0
H545 H 0.97958 0.70594 0.7163 0.0
H546 H 0.95408 0.7063 0.78676 0.0
H547 H 0.93201 0.67568 0.76891 0.0
O548 O 0.28111 0.70545 0.79357 0.0
H549 H 0.24643 0.72459 0.71804 0.0
H550 H 0.40287 0.70739 0.7695 0.0
H551 H 0.85091 0.70562 0.69991 0.0
H552 H 0.06711 0.67643 0.85003 0.0
H553 H 0.76157 0.69004 0.71827 0.0
H554 H 0.97084 0.69166 0.86516 0.0
O555 O 0.09817 0.69143 0.71876 0.0
H556 H 0.36597 0.66254 0.78375 0.0
H557 H 0.34418 0.69467 0.71353 0.0
H558 H 0.4255 0.67608 0.70694 0.0
H559 H 0.43683 0.65985 0.74224 0.0
H560 H 0.28465 0.68121 0.78936 0.0
H561 H 0.49885 0.72252 0.75513 0.0
H562 H 0.46815 0.73888 0.72157 0.0
O563 O 0.20866 0.70132 0.71892 0.0
C564 C 0.10503 0.71964 0.75856 0.0
C565 C 0.35504 0.73274 0.71752 0.0
C566 C 0.44365 0.72303 0.74684 0.0
N567 N 0.31923 0.71506 0.74449 0.0
C568 C 0.30184 0.72405 0.72608 0.0
C569 C 0.38901 0.7145 0.75494 0.0
C570 C 0.42639 0.7322 0.728 0.0
C571 C 0.06325 0.683 0.80985 0.0
N572 N 0.03185 0.69129 0.79239 0.0
C573 C 0.04187 0.68299 0.83626 0.0
C574 C 0.98794 0.69156 0.84475 0.0
C575 C 0.95621 0.7 0.82682 0.0
C576 C 0.97908 0.69975 0.80057 0.0
C577 C 0.84131 0.6818 0.74482 0.0
C578 C 0.94095 0.69918 0.72447 0.0
C579 C 0.91451 0.68223 0.75373 0.0
N580 N 0.96317 0.69089 0.74364 0.0
C581 C 0.8682 0.69902 0.71508 0.0
C582 C 0.81813 0.69027 0.72537 0.0
C583 C 0.15383 0.69623 0.70693 0.0
C584 C 0.36154 0.66955 0.76823 0.0
C585 C 0.34837 0.6876 0.72887 0.0
C586 C 0.39478 0.67713 0.72509 0.0
C587 C 0.40119 0.66804 0.74492 0.0
N588 N 0.30949 0.689 0.75174 0.0
C589 C 0.31577 0.68016 0.77133 0.0
Co590 Co 0.17147 0.68645 0.50168 0.0
Co591 Co 0.00276 0.70227 0.50109 0.0
O592 O 0.0693 0.6887 0.48954 0.0
C593 C 0.09838 0.66225 0.51437 0.0
O594 O 0.04206 0.66892 0.52313 0.0
C595 C 0.00476 0.70468 0.44259 0.0
O596 O 0.07726 0.70376 0.4438 0.0
O597 O 0.08148 0.71539 0.49573 0.0
O598 O 0.19007 0.70496 0.49889 0.0
H599 H 0.93298 0.74133 0.55229 0.0
H600 H 0.11457 0.67118 0.45701 0.0
O601 O 0.15506 0.66777 0.50494 0.0
H602 H 0.32675 0.69507 0.42137 0.0
H603 H 0.41772 0.66395 0.50586 0.0
H604 H 0.27096 0.70028 0.53828 0.0
H605 H 0.29122 0.69724 0.46801 0.0
H606 H 0.28929 0.66727 0.49063 0.0
O607 O 0.96686 0.7046 0.46375 0.0
H608 H 0.0153 0.72387 0.53824 0.0
H609 H 0.84766 0.70971 0.48742 0.0
H610 H 0.39936 0.69737 0.55387 0.0
H611 H 0.14845 0.66865 0.41029 0.0
H612 H 0.47366 0.67909 0.53764 0.0
H613 H 0.25513 0.68068 0.39216 0.0
O614 O 0.14186 0.68871 0.53922 0.0
H615 H 0.85116 0.66407 0.47643 0.0
H616 H 0.89617 0.69662 0.54433 0.0
H617 H 0.80182 0.68012 0.5521 0.0
H618 H 0.77878 0.66369 0.51796 0.0
H619 H 0.9455 0.68067 0.46963 0.0
H620 H 0.76372 0.72708 0.50076 0.0
H621 H 0.8062 0.74302 0.53347 0.0
O622 O 0.03569 0.69999 0.53861 0.0
C623 C 0.15232 0.71513 0.49652 0.0
C624 C 0.91375 0.73442 0.53807 0.0
C625 C 0.8188 0.72643 0.50912 0.0
N626 N 0.93618 0.71574 0.51215 0.0
C627 C 0.96003 0.72449 0.53011 0.0
C628 C 0.86665 0.71664 0.50159 0.0
C629 C 0.84266 0.73537 0.52749 0.0
C630 C 0.16142 0.67637 0.44932 0.0
N631 N 0.20099 0.68433 0.46524 0.0
C632 C 0.18019 0.67493 0.42283 0.0
C633 C 0.23998 0.68169 0.41266 0.0
C634 C 0.28015 0.68978 0.42903 0.0
C635 C 0.25966 0.691 0.45541 0.0
C636 C 0.38595 0.67196 0.51305 0.0
C637 C 0.30306 0.69234 0.53102 0.0
C638 C 0.31314 0.67387 0.50455 0.0
N639 N 0.27281 0.684 0.51346 0.0
C640 C 0.37568 0.69073 0.53997 0.0
C641 C 0.41731 0.68046 0.53087 0.0
C642 C 0.0889 0.6945 0.5508 0.0
C643 C 0.86063 0.67118 0.49144 0.0
C644 C 0.88679 0.68946 0.52949 0.0
C645 C 0.83308 0.68017 0.53393 0.0
C646 C 0.82012 0.67097 0.51476 0.0
N647 N 0.92641 0.68959 0.50659 0.0
C648 C 0.9138 0.68063 0.48766 0.0
Co649 Co 0.07718 0.56335 0.49756 0.0
Co650 Co 0.24254 0.54654 0.49829 0.0
O651 O 0.17886 0.56034 0.48573 0.0
C652 C 0.15463 0.58726 0.50956 0.0
O653 O 0.21034 0.58037 0.51817 0.0
C654 C 0.2401 0.54337 0.44012 0.0
O655 O 0.16778 0.5447 0.44102 0.0
O656 O 0.1612 0.53383 0.49362 0.0
O657 O 0.05465 0.54492 0.49558 0.0
H658 H 0.30429 0.50786 0.55208 0.0
H659 H 0.13731 0.57776 0.45229 0.0
O660 O 0.0972 0.58196 0.50009 0.0
H661 H 0.92015 0.55486 0.41747 0.0
H662 H 0.83555 0.58733 0.5004 0.0
H663 H 0.97541 0.55061 0.53494 0.0
H664 H 0.95516 0.55296 0.46425 0.0
H665 H 0.96309 0.58305 0.48535 0.0
O666 O 0.27775 0.54348 0.46134 0.0
H667 H 0.22551 0.52558 0.53675 0.0
H668 H 0.3961 0.53799 0.48536 0.0
H669 H 0.8478 0.55448 0.55037 0.0
H670 H 0.10405 0.58001 0.4054 0.0
H671 H 0.77699 0.57295 0.53307 0.0
H672 H 0.99485 0.56847 0.3877 0.0
O673 O 0.10652 0.5614 0.53518 0.0
H674 H 0.40247 0.58333 0.47127 0.0
H675 H 0.35002 0.55224 0.54136 0.0
H676 H 0.44793 0.56822 0.54812 0.0
H677 H 0.47476 0.58391 0.51288 0.0
H678 H 0.30451 0.56727 0.46548 0.0
H679 H 0.4765 0.52036 0.49997 0.0
H680 H 0.43076 0.50517 0.53363 0.0
O681 O 0.21036 0.54954 0.53547 0.0
C682 C 0.09043 0.53451 0.49398 0.0
C683 C 0.32493 0.51444 0.53746 0.0
C684 C 0.42154 0.52145 0.50818 0.0
N685 N 0.30631 0.53285 0.5103 0.0
C686 C 0.28066 0.52451 0.52876 0.0
C687 C 0.37568 0.53139 0.49993 0.0
C688 C 0.39585 0.51293 0.52708 0.0
C689 C 0.0894 0.57279 0.44477 0.0
N690 N 0.04813 0.56526 0.461 0.0
C691 C 0.07098 0.57407 0.41819 0.0
C692 C 0.00977 0.56758 0.40826 0.0
C693 C 0.96787 0.55993 0.42495 0.0
C694 C 0.98807 0.55886 0.4514 0.0
C695 C 0.86578 0.57923 0.50804 0.0
C696 C 0.94476 0.55862 0.52719 0.0
C697 C 0.93806 0.57678 0.49963 0.0
N698 N 0.97643 0.56654 0.50911 0.0
C699 C 0.87261 0.56078 0.53606 0.0
C700 C 0.83295 0.57116 0.52637 0.0
C701 C 0.15852 0.55555 0.54721 0.0
C702 C 0.39136 0.57654 0.48676 0.0
C703 C 0.36102 0.55908 0.52603 0.0
C704 C 0.41674 0.56808 0.52992 0.0
C705 C 0.43183 0.57687 0.51013 0.0
N706 N 0.32149 0.55882 0.50308 0.0
C707 C 0.33613 0.56739 0.48356 0.0
Co708 Co 0.8667 0.43958 0.2541 0.0
Co709 Co 0.0407 0.4532 0.25875 0.0
O710 O 0.97055 0.44112 0.24339 0.0
C711 C 0.92812 0.41366 0.26103 0.0
O712 O 0.98658 0.41908 0.27149 0.0
C713 C 0.05094 0.45867 0.2014 0.0
O714 O 0.97828 0.45925 0.20041 0.0
O715 O 0.96891 0.46751 0.25399 0.0
O716 O 0.8561 0.45854 0.25597 0.0
H717 H 0.11743 0.48917 0.31774 0.0
H718 H 0.91948 0.42629 0.20625 0.0
O719 O 0.87452 0.42048 0.25265 0.0
H720 H 0.72244 0.45531 0.17565 0.0
H721 H 0.61091 0.42065 0.25058 0.0
H722 H 0.77134 0.45237 0.29355 0.0
H723 H 0.75536 0.45415 0.22272 0.0
H724 H 0.74153 0.42301 0.23721 0.0
O725 O 0.0836 0.4565 0.22314 0.0
H726 H 0.03056 0.47352 0.29896 0.0
H727 H 0.2009 0.45884 0.24994 0.0
H728 H 0.64089 0.4504 0.30739 0.0
H729 H 0.88802 0.42709 0.159 0.0
H730 H 0.55972 0.43445 0.28583 0.0
H731 H 0.78895 0.4417 0.14343 0.0
O732 O 0.89466 0.43909 0.29199 0.0
H733 H 0.18068 0.41428 0.23006 0.0
H734 H 0.13676 0.44425 0.30297 0.0
H735 H 0.22266 0.42626 0.30944 0.0
H736 H 0.24517 0.41113 0.27278 0.0
H737 H 0.09455 0.43232 0.22458 0.0
H738 H 0.2894 0.4744 0.26802 0.0
H739 H 0.24786 0.48968 0.30223 0.0
O740 O 1.00124 0.45 0.29482 0.0
C741 C 0.89824 0.46826 0.25487 0.0
C742 C 0.13625 0.48253 0.3029 0.0
C743 C 0.23274 0.47426 0.27497 0.0
N744 N 0.11074 0.46522 0.27352 0.0
C745 C 0.08738 0.47363 0.29226 0.0
C746 C 0.18232 0.46549 0.26476 0.0
C747 C 0.20941 0.48283 0.29417 0.0
C748 C 0.87587 0.43259 0.19964 0.0
N749 N 0.83903 0.44011 0.21722 0.0
C750 C 0.85849 0.43303 0.17286 0.0
C751 C 0.80297 0.44125 0.16413 0.0
C752 C 0.76566 0.44889 0.18219 0.0
C753 C 0.78463 0.44821 0.20882 0.0
C754 C 0.64568 0.42765 0.26008 0.0
C755 C 0.73622 0.44546 0.28397 0.0
C756 C 0.71971 0.42901 0.25263 0.0
N757 N 0.76382 0.43788 0.26446 0.0
C758 C 0.66247 0.44436 0.29194 0.0
C759 C 0.61699 0.4354 0.27986 0.0
C760 C 0.94709 0.44409 0.30524 0.0
C761 C 0.17138 0.42082 0.24617 0.0
C762 C 0.14578 0.43765 0.28703 0.0
C763 C 0.19477 0.42751 0.29075 0.0
C764 C 0.20746 0.41904 0.27016 0.0
N765 N 0.11045 0.43932 0.26347 0.0
C766 C 0.12287 0.43107 0.24316 0.0
Co767 Co 0.89696 0.3132 0.25043 0.0
Co768 Co 0.72092 0.30036 0.25583 0.0
O769 O 0.79187 0.31235 0.24074 0.0
C770 C 0.83955 0.33913 0.26031 0.0
O771 O 0.78192 0.33366 0.27116 0.0
C772 C 0.70395 0.29646 0.19776 0.0
O773 O 0.7764 0.29621 0.19542 0.0
O774 O 0.7901 0.28581 0.2495 0.0
O775 O 0.90458 0.2942 0.25057 0.0
H776 H 0.6435 0.26381 0.3131 0.0
H777 H 0.84198 0.32781 0.20446 0.0
O778 O 0.89167 0.33235 0.25077 0.0
H779 H 0.03116 0.29859 0.16903 0.0
H780 H 0.15483 0.33121 0.24564 0.0
H781 H 0.99477 0.29902 0.28716 0.0
H782 H 0.00255 0.29881 0.21649 0.0
H783 H 0.02255 0.3297 0.23376 0.0
O784 O 0.6744 0.2978 0.22034 0.0
H785 H 0.73112 0.27938 0.29457 0.0
H786 H 0.55918 0.29554 0.24814 0.0
H787 H 0.12684 0.30013 0.29947 0.0
H788 H 0.86916 0.32796 0.15688 0.0
H789 H 0.20785 0.31631 0.27864 0.0
H790 H 0.96428 0.31326 0.13889 0.0
O791 O 0.87314 0.31293 0.28871 0.0
H792 H 0.58646 0.3405 0.23115 0.0
H793 H 0.62794 0.30881 0.30114 0.0
H794 H 0.54563 0.3271 0.30961 0.0
H795 H 0.52438 0.3431 0.27442 0.0
H796 H 0.66906 0.32215 0.22369 0.0
H797 H 0.46988 0.28008 0.26598 0.0
H798 H 0.51185 0.26409 0.29877 0.0
O799 O 0.76362 0.30286 0.29184 0.0
C800 C 0.86069 0.28471 0.24951 0.0
C801 C 0.62449 0.27076 0.29888 0.0
C802 C 0.52708 0.27987 0.2724 0.0
N803 N 0.65022 0.28841 0.27042 0.0
C804 C 0.6738 0.27962 0.28838 0.0
C805 C 0.57796 0.28858 0.26231 0.0
C806 C 0.55065 0.27091 0.29081 0.0
C807 C 0.88389 0.32146 0.1968 0.0
N808 N 0.92093 0.31337 0.21324 0.0
C809 C 0.89884 0.32156 0.16983 0.0
C810 C 0.95214 0.31329 0.15974 0.0
C811 C 0.98965 0.30505 0.17664 0.0
C812 C 0.97312 0.30521 0.20349 0.0
C813 C 0.12012 0.3241 0.25483 0.0
C814 C 0.02973 0.30605 0.27793 0.0
C815 C 0.04514 0.32323 0.24824 0.0
N816 N 1.00108 0.31424 0.25967 0.0
C817 C 0.10444 0.30665 0.28502 0.0
C818 C 0.14984 0.31574 0.27334 0.0
C819 C 0.8205 0.30809 0.30209 0.0
C820 C 0.59528 0.33359 0.24664 0.0
C821 C 0.61956 0.3158 0.28586 0.0
C822 C 0.57255 0.32609 0.2907 0.0
C823 C 0.56056 0.33506 0.27094 0.0
N824 N 0.65369 0.31446 0.26204 0.0
C825 C 0.64182 0.32316 0.24251 0.0
Co826 Co 0.83417 0.30917 0.50767 0.0
Co827 Co 0.01244 0.2972 0.50218 0.0
O828 O 0.93925 0.30886 0.51751 0.0
C829 C 0.88149 0.33557 0.49869 0.0
O830 O 0.94183 0.33098 0.48782 0.0
C831 C 0.03084 0.29353 0.56025 0.0
O832 O 0.95844 0.29326 0.56271 0.0
O833 O 0.94648 0.28221 0.50847 0.0
O834 O 0.83163 0.29038 0.50643 0.0
H835 H 0.09692 0.26125 0.44441 0.0
H836 H 0.88418 0.32353 0.55455 0.0
O837 O 0.83332 0.32813 0.5084 0.0
H838 H 0.70223 0.29257 0.58787 0.0
H839 H 0.57083 0.32491 0.51295 0.0
H840 H 0.74193 0.29507 0.46922 0.0
H841 H 0.73169 0.29359 0.54054 0.0
H842 H 0.70304 0.32425 0.52528 0.0
O843 O 0.06002 0.29479 0.53759 0.0
H844 H 0.00622 0.27628 0.46323 0.0
H845 H 0.17519 0.2933 0.50951 0.0
H846 H 0.61006 0.29534 0.45644 0.0
H847 H 0.85599 0.32289 0.60204 0.0
H848 H 0.5235 0.31034 0.47838 0.0
H849 H 0.76451 0.3073 0.61898 0.0
O850 O 0.85916 0.30965 0.46954 0.0
H851 H 0.13856 0.33802 0.52696 0.0
H852 H 0.10225 0.30636 0.45666 0.0
H853 H 0.18022 0.32513 0.44819 0.0
H854 H 0.19885 0.34112 0.48352 0.0
H855 H 0.06036 0.31918 0.53445 0.0
H856 H 0.26754 0.27838 0.49139 0.0
H857 H 0.22861 0.26223 0.45854 0.0
O858 O 0.96867 0.29955 0.46622 0.0
C859 C 0.87604 0.281 0.50774 0.0
C860 C 0.11459 0.26827 0.45867 0.0
C861 C 0.21033 0.27786 0.48507 0.0
N862 N 0.08543 0.2857 0.48734 0.0
C863 C 0.06354 0.27682 0.46933 0.0
C864 C 0.15773 0.28626 0.49531 0.0
C865 C 0.18846 0.26881 0.46662 0.0
C866 C 0.84386 0.31679 0.56176 0.0
N867 N 0.80939 0.30865 0.54479 0.0
C868 C 0.82833 0.31644 0.58868 0.0
C869 C 0.77708 0.30768 0.59817 0.0
C870 C 0.74216 0.2994 0.58073 0.0
C871 C 0.7592 0.30001 0.55395 0.0
C872 C 0.60797 0.31832 0.50329 0.0
C873 C 0.70454 0.30157 0.47896 0.0
C874 C 0.68292 0.31792 0.51015 0.0
N875 N 0.73005 0.30956 0.49812 0.0
C876 C 0.62996 0.30171 0.47159 0.0
C877 C 0.58144 0.31014 0.48389 0.0
C878 C 0.91191 0.3049 0.45602 0.0
C879 C 0.13089 0.33112 0.51141 0.0
C880 C 0.10956 0.31332 0.47203 0.0
C881 C 0.15409 0.32391 0.46718 0.0
C882 C 0.16461 0.33286 0.48702 0.0
N883 N 0.07647 0.31169 0.49596 0.0
C884 C 0.08685 0.32041 0.51556 0.0
Co885 Co 0.93327 0.437 0.51225 0.0
Co886 Co 0.76335 0.45188 0.5029 0.0
O887 O 0.82745 0.43917 0.5199 0.0
C888 C 0.87353 0.41126 0.50225 0.0
O889 O 0.81495 0.41643 0.49122 0.0
C890 C 0.74489 0.45712 0.56012 0.0
O891 O 0.81706 0.45626 0.56296 0.0
O892 O 0.83832 0.46572 0.50836 0.0
O893 O 0.94745 0.45559 0.51147 0.0
H894 H 0.70669 0.48776 0.44077 0.0
H895 H 0.86624 0.42368 0.55762 0.0
O896 O 0.92342 0.41816 0.51257 0.0
H897 H 0.06134 0.45084 0.59561 0.0
H898 H 0.18477 0.41674 0.52266 0.0
H899 H 0.03942 0.44952 0.47612 0.0
H900 H 0.04012 0.45036 0.54767 0.0
H901 H 0.05195 0.4197 0.53231 0.0
O902 O 0.71577 0.45594 0.53745 0.0
H903 H 0.7856 0.47153 0.46192 0.0
H904 H 0.60398 0.45919 0.50839 0.0
H905 H 0.17222 0.44695 0.46602 0.0
H906 H 0.88582 0.4238 0.60569 0.0
H907 H 0.24584 0.43046 0.48937 0.0
H908 H 0.98385 0.43749 0.62498 0.0
O909 O 0.91413 0.43702 0.47355 0.0
H910 H 0.60932 0.41435 0.52989 0.0
H911 H 0.66997 0.44371 0.45748 0.0
H912 H 0.57985 0.42651 0.44989 0.0
H913 H 0.5489 0.41169 0.48629 0.0
H914 H 0.69977 0.4316 0.53649 0.0
H915 H 0.5233 0.47536 0.48792 0.0
H916 H 0.57454 0.48977 0.45378 0.0
O917 O 0.80723 0.4478 0.46795 0.0
C918 C 0.90897 0.46569 0.51026 0.0
C919 C 0.68366 0.48152 0.45557 0.0
C920 C 0.58078 0.47458 0.48207 0.0
N921 N 0.69938 0.46438 0.48627 0.0
C922 C 0.72802 0.47229 0.46756 0.0
C923 C 0.6268 0.46546 0.49365 0.0
C924 C 0.60955 0.48265 0.4629 0.0
C925 C 0.90936 0.42959 0.56587 0.0
N926 N 0.95206 0.43699 0.54986 0.0
C927 C 0.92004 0.42965 0.5931 0.0
C928 C 0.97498 0.43734 0.60391 0.0
C929 C 0.01842 0.44484 0.58744 0.0
C930 C 0.00602 0.44456 0.56031 0.0
C931 C 0.15331 0.42397 0.51238 0.0
C932 C 0.07114 0.44236 0.48645 0.0
C933 C 0.07804 0.42567 0.51771 0.0
N934 N 0.03803 0.43482 0.50488 0.0
C935 C 0.14629 0.44093 0.48061 0.0
C936 C 0.18755 0.43167 0.49371 0.0
C937 C 0.86341 0.44182 0.45909 0.0
C938 C 0.62236 0.42074 0.51387 0.0
C939 C 0.65731 0.43723 0.47332 0.0
C940 C 0.60595 0.42754 0.46895 0.0
C941 C 0.58854 0.41924 0.4894 0.0
N942 N 0.69042 0.43862 0.49734 0.0
C943 C 0.6734 0.43054 0.51751 0.0
Co944 Co 0.66443 0.06007 0.75518 0.0
Co945 Co 0.48657 0.048 0.74947 0.0
O946 O 0.55941 0.05961 0.76504 0.0
C947 C 0.61481 0.0868 0.74776 0.0
O948 O 0.55347 0.08237 0.73735 0.0
C949 C 0.4686 0.044 0.80745 0.0
O950 O 0.54101 0.04368 0.80996 0.0
O951 O 0.55347 0.03301 0.75527 0.0
O952 O 0.66831 0.04113 0.7535 0.0
H953 H 0.4036 0.01245 0.69047 0.0
H954 H 0.61393 0.0741 0.8024 0.0
O955 O 0.66413 0.07917 0.75638 0.0
H956 H 0.79766 0.04309 0.83498 0.0
H957 H 0.92672 0.07609 0.76083 0.0
H958 H 0.75743 0.04618 0.71659 0.0
H959 H 0.768 0.04439 0.78766 0.0
H960 H 0.79459 0.07524 0.77306 0.0
O961 O 0.43941 0.04532 0.7848 0.0
H962 H 0.49357 0.02741 0.7098 0.0
H963 H 0.32413 0.04379 0.75687 0.0
H964 H 0.88924 0.04664 0.70389 0.0
H965 H 0.6423 0.07319 0.84989 0.0
H966 H 0.97489 0.06168 0.72608 0.0
H967 H 0.73467 0.05757 0.86645 0.0
O968 O 0.63914 0.06074 0.71704 0.0
H969 H 0.359 0.08856 0.7756 0.0
H970 H 0.39355 0.05719 0.70465 0.0
H971 H 0.31401 0.07591 0.69688 0.0
H972 H 0.29623 0.09175 0.73256 0.0
H973 H 0.43889 0.0698 0.78233 0.0
H974 H 0.23253 0.02893 0.73825 0.0
H975 H 0.27205 0.01315 0.70472 0.0
O976 O 0.52967 0.05069 0.71357 0.0
C977 C 0.62393 0.03173 0.75457 0.0
C978 C 0.38567 0.01931 0.70501 0.0
C979 C 0.28969 0.02854 0.73186 0.0
N980 N 0.41409 0.03651 0.73433 0.0
C981 C 0.43631 0.02783 0.71597 0.0
C982 C 0.34187 0.03691 0.7424 0.0
C983 C 0.31188 0.01969 0.71304 0.0
C984 C 0.65466 0.06736 0.80945 0.0
N985 N 0.68951 0.05936 0.79228 0.0
C986 C 0.67029 0.06685 0.83636 0.0
C987 C 0.72203 0.05807 0.84565 0.0
C988 C 0.75736 0.04994 0.828 0.0
C989 C 0.74021 0.0507 0.80123 0.0
C990 C 0.88998 0.06948 0.75104 0.0
C991 C 0.79442 0.05271 0.72642 0.0
C992 C 0.81507 0.06898 0.75784 0.0
N993 N 0.76844 0.06062 0.74565 0.0
C994 C 0.86897 0.05295 0.71911 0.0
C995 C 0.91698 0.06139 0.73155 0.0
C996 C 0.58616 0.05611 0.70347 0.0
C997 C 0.3664 0.08174 0.75988 0.0
C998 C 0.38689 0.06412 0.7201 0.0
C999 C 0.34134 0.07466 0.71568 0.0
C1000 C 0.33127 0.08353 0.73572 0.0
N1001 N 0.4215 0.06246 0.74379 0.0
C1002 C 0.41143 0.07108 0.7636 0.0
Co1003 Co 0.58148 0.18968 0.75565 0.0
Co1004 Co 0.76163 0.20064 0.74931 0.0
O1005 O 0.68684 0.18957 0.76521 0.0
C1006 C 0.6272 0.16285 0.74759 0.0
O1007 O 0.68829 0.16718 0.73688 0.0
C1008 C 0.78104 0.20553 0.80687 0.0
O1009 O 0.70892 0.20681 0.80915 0.0
O1010 O 0.69772 0.216 0.75478 0.0
O1011 O 0.58091 0.20865 0.75425 0.0
H1012 H 0.85084 0.23534 0.68935 0.0
H1013 H 0.6316 0.17526 0.80251 0.0
O1014 O 0.5789 0.17057 0.75656 0.0
H1015 H 0.45418 0.20702 0.83617 0.0
H1016 H 0.31701 0.17484 0.76195 0.0
H1017 H 0.48918 0.20425 0.71781 0.0
H1018 H 0.48176 0.20572 0.78871 0.0
H1019 H 0.4497 0.17502 0.77368 0.0
O1020 O 0.80968 0.20323 0.7845 0.0
H1021 H 0.75813 0.22107 0.7092 0.0
H1022 H 0.92491 0.2039 0.75645 0.0
H1023 H 0.35687 0.20446 0.70562 0.0
H1024 H 0.60528 0.17617 0.85012 0.0
H1025 H 0.26977 0.18968 0.72777 0.0
H1026 H 0.51609 0.19216 0.86722 0.0
O1027 O 0.60499 0.18907 0.71736 0.0
H1028 H 0.88182 0.15952 0.77629 0.0
H1029 H 0.8514 0.19062 0.70452 0.0
H1030 H 0.92694 0.1714 0.69709 0.0
H1031 H 0.9426 0.15569 0.73318 0.0
H1032 H 0.80597 0.1788 0.7827 0.0
H1033 H 0.01927 0.21805 0.73729 0.0
H1034 H 0.98247 0.23388 0.70341 0.0
O1035 O 0.71745 0.19806 0.71361 0.0
C1036 C 0.62755 0.21773 0.7547 0.0
C1037 C 0.8676 0.22846 0.70405 0.0
C1038 C 0.9621 0.21877 0.73098 0.0
N1039 N 0.83612 0.21161 0.73384 0.0
C1040 C 0.81539 0.22033 0.7153 0.0
C1041 C 0.90837 0.2108 0.74182 0.0
C1042 C 0.94143 0.22764 0.71196 0.0
C1043 C 0.59226 0.18217 0.8098 0.0
N1044 N 0.55796 0.19038 0.79285 0.0
C1045 C 0.57778 0.18267 0.83677 0.0
C1046 C 0.52781 0.19166 0.84636 0.0
C1047 C 0.49309 0.20001 0.82895 0.0
C1048 C 0.50903 0.19924 0.80211 0.0
C1049 C 0.3544 0.18134 0.75219 0.0
C1050 C 0.45158 0.19783 0.72762 0.0
C1051 C 0.42961 0.18146 0.7587 0.0
N1052 N 0.47706 0.18968 0.74653 0.0
C1053 C 0.37673 0.19798 0.7206 0.0
C1054 C 0.32792 0.18967 0.73301 0.0
C1055 C 0.65897 0.19323 0.70368 0.0
C1056 C 0.87535 0.16629 0.7604 0.0
C1057 C 0.85722 0.18376 0.72016 0.0
C1058 C 0.90047 0.17293 0.71593 0.0
C1059 C 0.90935 0.16414 0.7362 0.0
N1060 N 0.8237 0.18578 0.7439 0.0
C1061 C 0.83262 0.17724 0.76393 0.0
Co1062 Co 0.65644 0.18977 0.49903 0.0
Co1063 Co 0.48277 0.2038 0.50156 0.0
O1064 O 0.55337 0.19142 0.48765 0.0
C1065 C 0.59061 0.16473 0.50879 0.0
O1066 O 0.53332 0.17084 0.51844 0.0
C1067 C 0.48491 0.20852 0.44415 0.0
O1068 O 0.55753 0.2084 0.44576 0.0
O1069 O 0.55649 0.21782 0.49809 0.0
O1070 O 0.66891 0.20856 0.49893 0.0
H1071 H 0.40086 0.24015 0.55872 0.0
H1072 H 0.60375 0.17542 0.45246 0.0
O1073 O 0.64581 0.17085 0.49976 0.0
H1074 H 0.80494 0.20281 0.41971 0.0
H1075 H 0.90967 0.16961 0.49908 0.0
H1076 H 0.75247 0.20323 0.53735 0.0
H1077 H 0.77033 0.20303 0.46666 0.0
H1078 H 0.77975 0.17219 0.48483 0.0
O1079 O 0.44604 0.20714 0.46486 0.0
H1080 H 0.48886 0.22414 0.54186 0.0
H1081 H 0.32513 0.21007 0.48935 0.0
H1082 H 0.88222 0.20107 0.55202 0.0
H1083 H 0.63679 0.17485 0.40537 0.0
H1084 H 0.96177 0.18416 0.53284 0.0
H1085 H 0.73796 0.18864 0.38872 0.0
O1086 O 0.62739 0.19046 0.53673 0.0
H1087 H 0.34261 0.16531 0.47097 0.0
H1088 H 0.38084 0.19531 0.54423 0.0
H1089 H 0.29242 0.17766 0.54948 0.0
H1090 H 0.27281 0.16251 0.51265 0.0
H1091 H 0.43102 0.18303 0.46667 0.0
H1092 H 0.23557 0.226 0.50547 0.0
H1093 H 0.27323 0.24117 0.54045 0.0
O1094 O 0.51738 0.20054 0.53846 0.0
C1095 C 0.62724 0.21835 0.49839 0.0
C1096 C 0.38372 0.23357 0.54353 0.0
C1097 C 0.29098 0.22564 0.51361 0.0
N1098 N 0.41197 0.21612 0.5148 0.0
C1099 C 0.43322 0.22446 0.53397 0.0
C1100 C 0.34198 0.21666 0.50453 0.0
C1101 C 0.31214 0.23414 0.53325 0.0
C1102 C 0.64828 0.18136 0.44539 0.0
N1103 N 0.68535 0.18919 0.4623 0.0
C1104 C 0.66654 0.18103 0.4187 0.0
C1105 C 0.72324 0.18879 0.40936 0.0
C1106 C 0.76081 0.19675 0.42674 0.0
C1107 C 0.74091 0.19685 0.45329 0.0
C1108 C 0.8756 0.17703 0.50755 0.0
C1109 C 0.78687 0.1959 0.5288 0.0
C1110 C 0.80197 0.17852 0.4996 0.0
N1111 N 0.75877 0.18791 0.51011 0.0
C1112 C 0.86024 0.1947 0.53724 0.0
C1113 C 0.90481 0.1852 0.52648 0.0
C1114 C 0.57305 0.1952 0.54944 0.0
C1115 C 0.35056 0.17186 0.48713 0.0
C1116 C 0.37285 0.18873 0.52818 0.0
C1117 C 0.32253 0.17877 0.53122 0.0
C1118 C 0.3115 0.17028 0.51055 0.0
N1119 N 0.41101 0.19021 0.50517 0.0
C1120 C 0.40033 0.18194 0.48478 0.0
Co1121 Co 0.58594 0.06541 0.49881 0.0
Co1122 Co 0.75385 0.0494 0.50072 0.0
O1123 O 0.6881 0.06271 0.48733 0.0
C1124 C 0.65971 0.08995 0.50861 0.0
O1125 O 0.71656 0.08354 0.51783 0.0
C1126 C 0.75036 0.04534 0.44295 0.0
O1127 O 0.67787 0.04619 0.44435 0.0
O1128 O 0.67464 0.03623 0.49701 0.0
O1129 O 0.56649 0.04686 0.49832 0.0
H1130 H 0.82217 0.01182 0.5568 0.0
H1131 H 0.64388 0.07934 0.4525 0.0
O1132 O 0.60297 0.08415 0.49986 0.0
H1133 H 0.43167 0.0546 0.41927 0.0
H1134 H 0.34069 0.08832 0.49959 0.0
H1135 H 0.48523 0.05274 0.5367 0.0
H1136 H 0.46646 0.05374 0.4662 0.0
H1137 H 0.46912 0.08439 0.48511 0.0
O1138 O 0.78914 0.04598 0.46387 0.0
H1139 H 0.74047 0.02893 0.54052 0.0
H1140 H 0.90854 0.0414 0.48814 0.0
H1141 H 0.35684 0.05626 0.5516 0.0
H1142 H 0.61078 0.08054 0.40544 0.0
H1143 H 0.28364 0.07416 0.53301 0.0
H1144 H 0.50408 0.06808 0.38854 0.0
O1145 O 0.61516 0.06418 0.53654 0.0
H1146 H 0.90836 0.08645 0.47131 0.0
H1147 H 0.85976 0.05628 0.54348 0.0
H1148 H 0.95519 0.0728 0.54922 0.0
H1149 H 0.98007 0.08802 0.51294 0.0
H1150 H 0.81292 0.06987 0.46653 0.0
H1151 H 0.99185 0.02436 0.50371 0.0
H1152 H 0.94884 0.00944 0.53834 0.0
O1153 O 0.72094 0.05279 0.53772 0.0
C1154 C 0.60382 0.03659 0.49758 0.0
C1155 C 0.84163 0.01828 0.54177 0.0
C1156 C 0.93683 0.02531 0.51194 0.0
N1157 N 0.81986 0.0362 0.51353 0.0
C1158 C 0.7957 0.02801 0.53253 0.0
C1159 C 0.88933 0.03492 0.50315 0.0
C1160 C 0.91267 0.01695 0.53138 0.0
C1161 C 0.59699 0.07398 0.44533 0.0
N1162 N 0.55697 0.06652 0.46209 0.0
C1163 C 0.57868 0.07466 0.41865 0.0
C1164 C 0.51888 0.06765 0.40917 0.0
C1165 C 0.47826 0.06008 0.4264 0.0
C1166 C 0.4983 0.05961 0.45294 0.0
C1167 C 0.37199 0.08048 0.50782 0.0
C1168 C 0.45365 0.06051 0.52843 0.0
C1169 C 0.44479 0.07823 0.49975 0.0
N1170 N 0.48454 0.06831 0.50997 0.0
C1171 C 0.38101 0.06247 0.53698 0.0
C1172 C 0.34 0.07253 0.52656 0.0
C1173 C 0.66776 0.05868 0.54896 0.0
C1174 C 0.89812 0.07986 0.48725 0.0
C1175 C 0.86997 0.06292 0.52768 0.0
C1176 C 0.92426 0.07222 0.531 0.0
C1177 C 0.93825 0.08075 0.51062 0.0
N1178 N 0.83078 0.06211 0.50471 0.0
C1179 C 0.84433 0.07042 0.48462 0.0
Co1180 Co 0.34151 0.94112 0.25046 0.0
Co1181 Co 0.51997 0.95316 0.25393 0.0
O1182 O 0.44596 0.94141 0.23949 0.0
C1183 C 0.39036 0.91433 0.25826 0.0
O1184 O 0.45219 0.91872 0.26838 0.0
C1185 C 0.53836 0.95634 0.19529 0.0
O1186 O 0.46615 0.95631 0.19206 0.0
O1187 O 0.45289 0.96806 0.24764 0.0
O1188 O 0.33815 0.96008 0.25165 0.0
H1189 H 0.60514 0.98962 0.31006 0.0
H1190 H 0.38768 0.92673 0.20312 0.0
O1191 O 0.34115 0.92201 0.24971 0.0
H1192 H 0.20179 0.95762 0.17162 0.0
H1193 H 0.07843 0.9253 0.24777 0.0
H1194 H 0.25181 0.95535 0.28951 0.0
H1195 H 0.23586 0.95669 0.2186 0.0
H1196 H 0.2096 0.92595 0.23427 0.0
O1197 O 0.56608 0.95541 0.21828 0.0
H1198 H 0.51453 0.97435 0.29221 0.0
H1199 H 0.68244 0.95712 0.24574 0.0
H1200 H 0.12097 0.9551 0.30345 0.0
H1201 H 0.35483 0.92727 0.15597 0.0
H1202 H 0.03327 0.93999 0.28252 0.0
H1203 H 0.26131 0.94281 0.13995 0.0
O1204 O 0.36969 0.94068 0.28842 0.0
H1205 H 0.64571 0.91219 0.22949 0.0
H1206 H 0.61491 0.94457 0.29873 0.0
H1207 H 0.69481 0.92595 0.3071 0.0
H1208 H 0.71067 0.9096 0.27229 0.0
H1209 H 0.56564 0.93088 0.22212 0.0
H1210 H 0.77466 0.97228 0.26288 0.0
H1211 H 0.73623 0.98865 0.29534 0.0
O1212 O 0.47901 0.9509 0.29023 0.0
C1213 C 0.38261 0.96942 0.24932 0.0
C1214 C 0.62259 0.98251 0.29596 0.0
C1215 C 0.7177 0.97279 0.26945 0.0
N1216 N 0.59317 0.96482 0.26803 0.0
C1217 C 0.57158 0.97382 0.28584 0.0
C1218 C 0.66515 0.96426 0.25974 0.0
C1219 C 0.69612 0.98197 0.28767 0.0
C1220 C 0.34653 0.93345 0.19632 0.0
N1221 N 0.3135 0.94162 0.2136 0.0
C1222 C 0.32834 0.93374 0.16959 0.0
C1223 C 0.27596 0.94248 0.16061 0.0
C1224 C 0.24257 0.9508 0.17836 0.0
C1225 C 0.26224 0.95025 0.20493 0.0
C1226 C 0.11608 0.93193 0.25702 0.0
C1227 C 0.21393 0.94878 0.28024 0.0
C1228 C 0.19047 0.93232 0.24951 0.0
N1229 N 0.23825 0.94072 0.26101 0.0
C1230 C 0.13993 0.94867 0.28825 0.0
C1231 C 0.09077 0.94018 0.27651 0.0
C1232 C 0.42373 0.9455 0.30112 0.0
C1233 C 0.6392 0.91924 0.24482 0.0
C1234 C 0.62096 0.93743 0.28362 0.0
C1235 C 0.6666 0.92695 0.2884 0.0
C1236 C 0.67556 0.91779 0.26885 0.0
N1237 N 0.58516 0.93876 0.26006 0.0
C1238 C 0.59407 0.92986 0.24074 0.0
Co1239 Co 0.42339 0.81138 0.25079 0.0
Co1240 Co 0.24305 0.80012 0.24912 0.0
O1241 O 0.32165 0.81159 0.23718 0.0
C1242 C 0.37524 0.83821 0.25825 0.0
O1243 O 0.31113 0.83386 0.26641 0.0
C1244 C 0.2431 0.79642 0.19073 0.0
O1245 O 0.31561 0.79546 0.1918 0.0
O1246 O 0.30913 0.78493 0.24487 0.0
O1247 O 0.42432 0.7924 0.25114 0.0
H1248 H 0.13768 0.76414 0.30209 0.0
H1249 H 0.38796 0.82638 0.20303 0.0
O1250 O 0.42581 0.8305 0.25095 0.0
H1251 H 0.57646 0.79522 0.175 0.0
H1252 H 0.6878 0.8264 0.25589 0.0
H1253 H 0.5036 0.79638 0.29128 0.0
H1254 H 0.5336 0.79583 0.22105 0.0
H1255 H 0.55968 0.82632 0.23892 0.0
O1256 O 0.20628 0.79816 0.21182 0.0
H1257 H 0.23517 0.77891 0.28737 0.0
H1258 H 0.08329 0.79687 0.23529 0.0
H1259 H 0.63122 0.79607 0.30867 0.0
H1260 H 0.42962 0.82616 0.15679 0.0
H1261 H 0.72436 0.81116 0.29095 0.0
H1262 H 0.5245 0.81049 0.14252 0.0
O1263 O 0.38774 0.81148 0.2879 0.0
H1264 H 0.12838 0.84152 0.22103 0.0
H1265 H 0.14111 0.80928 0.29131 0.0
H1266 H 0.06247 0.82825 0.29739 0.0
H1267 H 0.05569 0.84453 0.26205 0.0
H1268 H 0.20697 0.82247 0.21595 0.0
H1269 H 0.98436 0.78223 0.24928 0.0
H1270 H 0.01124 0.76574 0.28297 0.0
O1271 O 0.27608 0.80202 0.28674 0.0
C1272 C 0.37886 0.78327 0.24789 0.0
C1273 C 0.12523 0.77131 0.28745 0.0
C1274 C 0.03921 0.78145 0.25778 0.0
N1275 N 0.16483 0.7888 0.26063 0.0
C1276 C 0.18014 0.77972 0.2791 0.0
C1277 C 0.09551 0.78969 0.24989 0.0
C1278 C 0.05432 0.7722 0.2767 0.0
C1279 C 0.42969 0.81961 0.197 0.0
N1280 N 0.45859 0.81118 0.21474 0.0
C1281 C 0.45286 0.81949 0.17078 0.0
C1282 C 0.50601 0.81068 0.16277 0.0
C1283 C 0.53516 0.80211 0.18098 0.0
C1284 C 0.51055 0.80248 0.20703 0.0
C1285 C 0.64774 0.81977 0.26375 0.0
C1286 C 0.54388 0.80294 0.28338 0.0
C1287 C 0.57506 0.8197 0.25427 0.0
N1288 N 0.52429 0.81131 0.26402 0.0
C1289 C 0.61603 0.80274 0.29335 0.0
C1290 C 0.66823 0.81121 0.28342 0.0
C1291 C 0.33069 0.80688 0.29923 0.0
C1292 C 0.13085 0.83449 0.23657 0.0
C1293 C 0.13897 0.81638 0.27598 0.0
C1294 C 0.09404 0.82707 0.27946 0.0
C1295 C 0.09017 0.83619 0.2596 0.0
N1296 N 0.17888 0.8148 0.25338 0.0
C1297 C 0.17507 0.82367 0.23377 0.0
Co1298 Co 0.29614 0.81345 0.50476 0.0
Co1299 Co 0.46831 0.79873 0.50616 0.0
O1300 O 0.39834 0.81191 0.5174 0.0
C1301 C 0.36144 0.83831 0.49194 0.0
O1302 O 0.4208 0.83227 0.48375 0.0
C1303 C 0.46504 0.79618 0.5647 0.0
O1304 O 0.39243 0.79672 0.56334 0.0
O1305 O 0.39238 0.78503 0.51103 0.0
O1306 O 0.28219 0.79487 0.50751 0.0
H1307 H 0.5488 0.76026 0.45502 0.0
H1308 H 0.34793 0.82905 0.54964 0.0
O1309 O 0.30709 0.83222 0.50151 0.0
H1310 H 0.13976 0.80385 0.58437 0.0
H1311 H 0.04392 0.83388 0.49945 0.0
H1312 H 0.20245 0.79895 0.4674 0.0
H1313 H 0.17727 0.80193 0.53788 0.0
H1314 H 0.17244 0.8316 0.51537 0.0
O1315 O 0.5033 0.79655 0.54364 0.0
H1316 H 0.46205 0.77713 0.46882 0.0
H1317 H 0.62444 0.79229 0.52054 0.0
H1318 H 0.07409 0.80082 0.45111 0.0
H1319 H 0.31196 0.83135 0.59623 0.0
H1320 H 0.99387 0.81838 0.46716 0.0
H1321 H 0.2073 0.81866 0.61389 0.0
O1322 O 0.32805 0.81147 0.46738 0.0
H1323 H 0.60961 0.83792 0.53184 0.0
H1324 H 0.57593 0.80512 0.46366 0.0
H1325 H 0.66666 0.82226 0.45651 0.0
H1326 H 0.68399 0.83882 0.49079 0.0
H1327 H 0.51896 0.82068 0.53802 0.0
H1328 H 0.71272 0.77552 0.50747 0.0
H1329 H 0.67513 0.75937 0.47443 0.0
O1330 O 0.43661 0.8009 0.46849 0.0
C1331 C 0.32156 0.78491 0.51003 0.0
C1332 C 0.5659 0.76726 0.46939 0.0
C1333 C 0.65786 0.77581 0.49886 0.0
N1334 N 0.53828 0.78572 0.49535 0.0
C1335 C 0.5171 0.77686 0.47721 0.0
C1336 C 0.60755 0.78527 0.50623 0.0
C1337 C 0.63675 0.76676 0.4803 0.0
C1338 C 0.302 0.82356 0.55714 0.0
N1339 N 0.26473 0.81536 0.54106 0.0
C1340 C 0.28203 0.82488 0.58356 0.0
C1341 C 0.22338 0.81774 0.59346 0.0
C1342 C 0.18551 0.80942 0.57691 0.0
C1343 C 0.20715 0.80833 0.55062 0.0
C1344 C 0.07829 0.82617 0.49234 0.0
C1345 C 0.16776 0.80658 0.47458 0.0
C1346 C 0.15116 0.82485 0.50124 0.0
N1347 N 0.19476 0.8151 0.49244 0.0
C1348 C 0.09518 0.80761 0.46524 0.0
C1349 C 0.05023 0.81747 0.47423 0.0
C1350 C 0.38298 0.80612 0.45603 0.0
C1351 C 0.60259 0.83076 0.51677 0.0
C1352 C 0.58277 0.81234 0.47855 0.0
C1353 C 0.63447 0.82199 0.47446 0.0
C1354 C 0.64423 0.83127 0.49372 0.0
N1355 N 0.54199 0.81192 0.50117 0.0
C1356 C 0.5515 0.82095 0.52019 0.0
Co1357 Co 0.46231 0.93848 0.50522 0.0
Co1358 Co 0.29061 0.95308 0.50825 0.0
O1359 O 0.36055 0.93964 0.5181 0.0
C1360 C 0.39897 0.91362 0.49126 0.0
O1361 O 0.33993 0.91965 0.48269 0.0
C1362 C 0.25068 0.96156 0.56317 0.0
O1363 O 0.28288 0.97257 0.55918 0.0
O1364 O 0.36552 0.96655 0.5166 0.0
O1365 O 0.47509 0.9571 0.5087 0.0
H1366 H 0.2113 0.99372 0.46448 0.0
H1367 H 0.41289 0.9225 0.54981 0.0
O1368 O 0.45261 0.91972 0.50135 0.0
H1369 H 0.62393 0.9472 0.5841 0.0
H1370 H 0.71565 0.91864 0.49766 0.0
H1371 H 0.55292 0.95352 0.46792 0.0
H1372 H 0.583 0.9497 0.53807 0.0
H1373 H 0.58791 0.9205 0.51445 0.0
O1374 O 0.25247 0.95295 0.54552 0.0
H1375 H 0.29828 0.97644 0.47584 0.0
H1376 H 0.13202 0.95829 0.52132 0.0
H1377 H 0.68048 0.95207 0.4508 0.0
H1378 H 0.45237 0.91959 0.59594 0.0
H1379 H 0.7628 0.93453 0.46568 0.0
H1380 H 0.55855 0.93201 0.61337 0.0
O1381 O 0.42822 0.94073 0.46824 0.0
H1382 H 0.14923 0.91266 0.52397 0.0
H1383 H 0.18898 0.94839 0.46288 0.0
H1384 H 0.10031 0.93154 0.45107 0.0
H1385 H 0.07986 0.91351 0.48176 0.0
H1386 H 0.23797 0.92964 0.53487 0.0
H1387 H 0.04336 0.9754 0.51059 0.0
H1388 H 0.08283 0.99327 0.48196 0.0
O1389 O 0.32563 0.95285 0.47075 0.0
C1390 C 0.43597 0.96685 0.51393 0.0
C1391 C 0.19342 0.98598 0.47697 0.0
C1392 C 0.09919 0.9757 0.50287 0.0
N1393 N 0.2203 0.96637 0.49923 0.0
C1394 C 0.2424 0.97616 0.48344 0.0
C1395 C 0.14971 0.96606 0.50893 0.0
C1396 C 0.12136 0.98573 0.48679 0.0
C1397 C 0.45927 0.92791 0.55725 0.0
N1398 N 0.49551 0.93629 0.54128 0.0
C1399 C 0.48131 0.92624 0.58339 0.0
C1400 C 0.54084 0.93321 0.59316 0.0
C1401 C 0.57749 0.94175 0.57676 0.0
C1402 C 0.55385 0.94318 0.55074 0.0
C1403 C 0.68037 0.92634 0.49107 0.0
C1404 C 0.58858 0.94591 0.47463 0.0
C1405 C 0.60793 0.92743 0.50046 0.0
N1406 N 0.5632 0.93717 0.49233 0.0
C1407 C 0.66068 0.94512 0.4648 0.0
C1408 C 0.7068 0.93526 0.47313 0.0
C1409 C 0.37614 0.94716 0.4576 0.0
C1410 C 0.15753 0.92048 0.51046 0.0
C1411 C 0.18075 0.94055 0.47626 0.0
C1412 C 0.13023 0.93106 0.46952 0.0
C1413 C 0.11872 0.92095 0.48675 0.0
N1414 N 0.21866 0.94003 0.49954 0.0
C1415 C 0.20752 0.93016 0.51657 0.0
Co1416 Co 0.68783 0.56051 0.25886 0.0
Co1417 Co 0.51134 0.5476 0.25714 0.0
O1418 O 0.58471 0.55965 0.27064 0.0
C1419 C 0.63057 0.58671 0.25034 0.0
O1420 O 0.5694 0.58162 0.24121 0.0
C1421 C 0.50984 0.54323 0.31494 0.0
O1422 O 0.58254 0.54282 0.31414 0.0
O1423 O 0.58186 0.53301 0.26141 0.0
O1424 O 0.69554 0.54156 0.25869 0.0
H1425 H 0.42215 0.51134 0.2012 0.0
H1426 H 0.64076 0.57509 0.30585 0.0
O1427 O 0.68314 0.57962 0.25856 0.0
H1428 H 0.8362 0.54598 0.33736 0.0
H1429 H 0.94656 0.57832 0.25818 0.0
H1430 H 0.7785 0.54635 0.22 0.0
H1431 H 0.79945 0.54617 0.29059 0.0
H1432 H 0.81664 0.57689 0.27291 0.0
O1433 O 0.473 0.54485 0.29381 0.0
H1434 H 0.51339 0.52686 0.2177 0.0
H1435 H 0.35213 0.54259 0.26913 0.0
H1436 H 0.90811 0.54738 0.20485 0.0
H1437 H 0.67609 0.57528 0.35278 0.0
H1438 H 0.99313 0.56347 0.22398 0.0
H1439 H 0.77443 0.56063 0.36881 0.0
O1440 O 0.65701 0.56024 0.22123 0.0
H1441 H 0.38041 0.58743 0.28589 0.0
H1442 H 0.41031 0.55629 0.21419 0.0
H1443 H 0.32591 0.57453 0.2081 0.0
H1444 H 0.31049 0.59025 0.24415 0.0
H1445 H 0.46485 0.56913 0.29099 0.0
H1446 H 0.25937 0.52718 0.25338 0.0
H1447 H 0.29414 0.51143 0.21912 0.0
O1448 O 0.5467 0.5503 0.22017 0.0
C1449 C 0.65241 0.532 0.26031 0.0
C1450 C 0.40627 0.51818 0.21608 0.0
C1451 C 0.31494 0.52706 0.24539 0.0
N1452 N 0.43797 0.53568 0.24421 0.0
C1453 C 0.45762 0.52702 0.22543 0.0
C1454 C 0.36776 0.53574 0.25428 0.0
C1455 C 0.33447 0.51823 0.22616 0.0
C1456 C 0.68401 0.56877 0.31265 0.0
N1457 N 0.71828 0.56069 0.29549 0.0
C1458 C 0.70359 0.56888 0.33926 0.0
C1459 C 0.75868 0.56065 0.34824 0.0
C1460 C 0.79334 0.55242 0.33061 0.0
C1461 C 0.7722 0.55255 0.30416 0.0
C1462 C 0.91007 0.57127 0.24972 0.0
C1463 C 0.81523 0.55333 0.2285 0.0
C1464 C 0.83641 0.57043 0.25793 0.0
N1465 N 0.79014 0.5615 0.24741 0.0
C1466 C 0.88853 0.55389 0.2198 0.0
C1467 C 0.93618 0.56293 0.23053 0.0
C1468 C 0.60196 0.55553 0.20885 0.0
C1469 C 0.38663 0.58064 0.27004 0.0
C1470 C 0.40435 0.56315 0.22985 0.0
C1471 C 0.3562 0.57342 0.22636 0.0
C1472 C 0.3475 0.58223 0.24661 0.0
N1473 N 0.44271 0.56167 0.25286 0.0
C1474 C 0.43419 0.57024 0.27285 0.0
Co1475 Co 0.56294 0.68922 0.25569 0.0
Co1476 Co 0.74186 0.7011 0.2566 0.0
O1477 O 0.66502 0.68942 0.26884 0.0
C1478 C 0.61653 0.66282 0.24775 0.0
O1479 O 0.67861 0.66772 0.23899 0.0
C1480 C 0.74115 0.70488 0.31484 0.0
O1481 O 0.66861 0.70569 0.31351 0.0
O1482 O 0.67401 0.71603 0.26083 0.0
O1483 O 0.55909 0.70823 0.25552 0.0
H1484 H 0.84222 0.73734 0.20314 0.0
H1485 H 0.60244 0.67428 0.30317 0.0
O1486 O 0.56415 0.67008 0.25538 0.0
H1487 H 0.41048 0.70456 0.33234 0.0
H1488 H 0.30114 0.67289 0.25161 0.0
H1489 H 0.47865 0.70397 0.21585 0.0
H1490 H 0.45155 0.7042 0.28607 0.0
H1491 H 0.42987 0.67356 0.26794 0.0
O1492 O 0.77865 0.70324 0.29386 0.0
H1493 H 0.74669 0.72226 0.21815 0.0
H1494 H 0.90127 0.70495 0.27016 0.0
H1495 H 0.35035 0.7037 0.19909 0.0
H1496 H 0.56265 0.67426 0.34961 0.0
H1497 H 0.26058 0.68808 0.21701 0.0
H1498 H 0.46607 0.6895 0.36446 0.0
O1499 O 0.59714 0.68939 0.21843 0.0
H1500 H 0.86216 0.66019 0.28478 0.0
H1501 H 0.84367 0.69218 0.21417 0.0
H1502 H 0.92435 0.67347 0.20804 0.0
H1503 H 0.934 0.65731 0.24354 0.0
H1504 H 0.78154 0.67897 0.28993 0.0
H1505 H 0.99828 0.71991 0.25589 0.0
H1506 H 0.96904 0.73623 0.22208 0.0
O1507 O 0.70836 0.69902 0.21906 0.0
C1508 C 0.60397 0.71749 0.25834 0.0
C1509 C 0.8557 0.73025 0.21783 0.0
C1510 C 0.94326 0.72047 0.24746 0.0
N1511 N 0.81852 0.71268 0.24486 0.0
C1512 C 0.80191 0.72166 0.22634 0.0
C1513 C 0.88805 0.71205 0.25551 0.0
C1514 C 0.92682 0.72963 0.22848 0.0
C1515 C 0.55993 0.68086 0.30944 0.0
N1516 N 0.52906 0.68918 0.2919 0.0
C1517 C 0.53783 0.68084 0.33578 0.0
C1518 C 0.48373 0.68941 0.34411 0.0
C1519 C 0.45254 0.69787 0.3261 0.0
C1520 C 0.47612 0.69763 0.29993 0.0
C1521 C 0.33972 0.67975 0.24367 0.0
C1522 C 0.43984 0.69718 0.22382 0.0
C1523 C 0.41272 0.68015 0.25279 0.0
N1524 N 0.46162 0.68884 0.24294 0.0
C1525 C 0.3673 0.69706 0.21422 0.0
C1526 C 0.31698 0.68828 0.22426 0.0
C1527 C 0.65348 0.69409 0.20684 0.0
C1528 C 0.85847 0.66716 0.26918 0.0
C1529 C 0.84716 0.68515 0.22959 0.0
C1530 C 0.8932 0.6746 0.22608 0.0
C1531 C 0.89867 0.66555 0.24602 0.0
N1532 N 0.80773 0.68665 0.25232 0.0
C1533 C 0.81311 0.67785 0.27202 0.0
Co1534 Co 0.67693 0.68671 1.00125 0.0
Co1535 Co 0.5065 0.70205 1.00072 0.0
O1536 O 0.57443 0.68865 0.98911 0.0
C1537 C 0.60738 0.66232 0.01488 0.0
O1538 O 0.5496 0.66878 0.0231 0.0
C1539 C 0.50871 0.70474 0.94218 0.0
O1540 O 0.58122 0.70381 0.94333 0.0
O1541 O 0.58414 0.71542 0.99578 0.0
O1542 O 0.69366 0.70523 0.99803 0.0
H1543 H 0.43254 0.74067 0.05259 0.0
H1544 H 0.62101 0.67111 0.95698 0.0
O1545 O 0.66283 0.66801 0.00501 0.0
H1546 H 0.83115 0.69528 0.92064 0.0
H1547 H 0.92563 0.66502 0.00576 0.0
H1548 H 0.77481 0.70097 0.03767 0.0
H1549 H 0.79581 0.69759 0.96727 0.0
H1550 H 0.7969 0.66788 0.99045 0.0
O1551 O 0.47089 0.70449 0.96336 0.0
H1552 H 0.51657 0.72348 0.03835 0.0
H1553 H 0.35097 0.70916 0.98688 0.0
H1554 H 0.90348 0.69852 0.05332 0.0
H1555 H 0.65474 0.66843 0.91026 0.0
H1556 H 0.97981 0.68044 0.03735 0.0
H1557 H 0.76038 0.6806 0.8918 0.0
O1558 O 0.64722 0.68902 0.03878 0.0
H1559 H 0.35868 0.66358 0.97497 0.0
H1560 H 0.39955 0.69594 0.04359 0.0
H1561 H 0.30643 0.67917 0.0508 0.0
H1562 H 0.28546 0.66285 0.0163 0.0
H1563 H 0.45175 0.68044 0.96873 0.0
H1564 H 0.26537 0.72625 1.00041 0.0
H1565 H 0.30595 0.74214 0.03354 0.0
O1566 O 0.53891 0.69967 0.03825 0.0
C1567 C 0.65501 0.71531 0.99606 0.0
C1568 C 0.41414 0.73379 0.03819 0.0
C1569 C 0.32036 0.72571 0.00887 0.0
N1570 N 0.4386 0.7153 0.01191 0.0
C1571 C 0.4614 0.72402 0.03011 0.0
C1572 C 0.36916 0.71607 1.00123 0.0
C1573 C 0.34315 0.73461 0.02747 0.0
C1574 C 0.66738 0.67636 0.94912 0.0
N1575 N 0.70645 0.68449 0.96484 0.0
C1576 C 0.68608 0.67484 0.92264 0.0
C1577 C 0.74529 0.68168 0.91228 0.0
C1578 C 0.78497 0.68993 0.92845 0.0
C1579 C 0.76458 0.69123 0.95482 0.0
C1580 C 0.89297 0.67295 0.01283 0.0
C1581 C 0.80782 0.69312 0.0305 0.0
C1582 C 0.81999 0.6746 0.00428 0.0
N1583 N 0.77854 0.68463 0.01303 0.0
C1584 C 0.88058 0.69176 0.03949 0.0
C1585 C 0.92335 0.68161 0.03054 0.0
C1586 C 0.59303 0.69443 0.05041 0.0
C1587 C 0.36726 0.67065 0.99014 0.0
C1588 C 0.39108 0.68882 0.02859 0.0
C1589 C 0.33806 0.67938 0.03272 0.0
C1590 C 0.32627 0.67023 0.01335 0.0
N1591 N 0.43115 0.68915 0.00581 0.0
C1592 C 0.41972 0.68024 0.98668 0.0
Co1593 Co 0.60556 0.56397 1.00283 0.0
Co1594 Co 0.76648 0.54596 0.0064 0.0
O1595 O 0.70869 0.56042 0.99318 0.0
C1596 C 0.6826 0.58786 0.01655 0.0
O1597 O 0.73778 0.58116 0.02616 0.0
C1598 C 0.77826 0.54373 0.9479 0.0
O1599 O 0.70678 0.54592 0.94606 0.0
O1600 O 0.68345 0.53385 0.99883 0.0
O1601 O 0.58018 0.54576 1.00011 0.0
H1602 H 0.80684 0.50609 0.05897 0.0
H1603 H 0.6761 0.57814 0.95923 0.0
O1604 O 0.62731 0.58243 0.00594 0.0
H1605 H 0.46126 0.55659 0.91927 0.0
H1606 H 0.36739 0.589 1.00061 0.0
H1607 H 0.49569 0.55167 0.03787 0.0
H1608 H 0.48747 0.55438 0.96669 0.0
H1609 H 0.49655 0.58417 0.98828 0.0
O1610 O 0.80903 0.54307 0.97042 0.0
H1611 H 0.73641 0.52469 0.04305 0.0
H1612 H 0.9202 0.53636 0.99692 0.0
H1613 H 0.36631 0.55608 0.05057 0.0
H1614 H 0.65166 0.5807 0.91174 0.0
H1615 H 0.3013 0.57487 0.03189 0.0
H1616 H 0.5437 0.56984 0.89145 0.0
O1617 O 0.62827 0.56177 0.04101 0.0
H1618 H 0.93837 0.58216 0.98607 0.0
H1619 H 0.86879 0.54989 0.05184 0.0
H1620 H 0.96881 0.56506 0.06205 0.0
H1621 H 0.00427 0.58133 0.02899 0.0
H1622 H 0.83807 0.56691 0.97686 0.0
H1623 H 0.99226 0.5178 0.01207 0.0
H1624 H 0.93567 0.50253 0.04339 0.0
O1625 O 0.72771 0.54882 0.04282 0.0
C1626 C 0.61298 0.5351 0.99823 0.0
C1627 C 0.83219 0.51269 0.04538 0.0
C1628 C 0.93621 0.51926 0.01903 0.0
N1629 N 0.82423 0.53164 0.01918 0.0
C1630 C 0.79267 0.52327 0.03637 0.0
C1631 C 0.89502 0.52973 0.01044 0.0
C1632 C 0.90444 0.5107 0.03661 0.0
C1633 C 0.62869 0.57346 0.95057 0.0
N1634 N 0.58325 0.56611 0.96572 0.0
C1635 C 0.61528 0.57491 0.92366 0.0
C1636 C 0.55476 0.5688 0.91228 0.0
C1637 C 0.50853 0.56136 0.92787 0.0
C1638 C 0.52378 0.5601 0.95471 0.0
C1639 C 0.39508 0.58077 0.00885 0.0
C1640 C 0.46764 0.55982 0.02955 0.0
C1641 C 0.46828 0.57801 1.00199 0.0
N1642 N 0.5035 0.5676 0.01223 0.0
C1643 C 0.39444 0.56229 0.03686 0.0
C1644 C 0.35802 0.57284 0.0264 0.0
C1645 C 0.67637 0.55532 0.05374 0.0
C1646 C 0.92337 0.57513 1.00065 0.0
C1647 C 0.88333 0.55704 0.03751 0.0
C1648 C 0.94032 0.56555 0.04332 0.0
C1649 C 0.96027 0.57467 0.02475 0.0
N1650 N 0.84715 0.55759 0.0139 0.0
C1651 C 0.86672 0.56645 0.99553 0.0
Co1652 Co 0.33543 0.44084 0.74933 0.0
Co1653 Co 0.51236 0.45329 0.75555 0.0
O1654 O 0.44062 0.44159 0.7397 0.0
C1655 C 0.38917 0.41442 0.75733 0.0
O1656 O 0.44945 0.41923 0.76775 0.0
C1657 C 0.53013 0.45791 0.69786 0.0
O1658 O 0.45774 0.45825 0.69525 0.0
O1659 O 0.44399 0.46807 0.74998 0.0
O1660 O 0.3293 0.4598 0.75054 0.0
H1661 H 0.59158 0.48886 0.81511 0.0
H1662 H 0.38879 0.42677 0.70253 0.0
O1663 O 0.33836 0.42173 0.74859 0.0
H1664 H 0.20145 0.45687 0.66887 0.0
H1665 H 0.07553 0.42373 0.74357 0.0
H1666 H 0.2397 0.45469 0.78713 0.0
H1667 H 0.23057 0.45595 0.71627 0.0
H1668 H 0.20775 0.42502 0.73162 0.0
O1669 O 0.55916 0.45627 0.72043 0.0
H1670 H 0.50316 0.47372 0.79549 0.0
H1671 H 0.67447 0.45794 0.7484 0.0
H1672 H 0.10774 0.45379 0.79953 0.0
H1673 H 0.36106 0.42732 0.65497 0.0
H1674 H 0.02467 0.43822 0.77768 0.0
H1675 H 0.26685 0.44246 0.63787 0.0
O1676 O 0.35979 0.44045 0.78757 0.0
H1677 H 0.64385 0.41321 0.72868 0.0
H1678 H 0.60598 0.44415 0.80025 0.0
H1679 H 0.68719 0.42561 0.8077 0.0
H1680 H 0.70661 0.40998 0.77171 0.0
H1681 H 0.56233 0.43179 0.72226 0.0
H1682 H 0.76454 0.47298 0.76732 0.0
H1683 H 0.72331 0.48856 0.801 0.0
O1684 O 0.46974 0.45033 0.79126 0.0
C1685 C 0.37343 0.46925 0.74994 0.0
C1686 C 0.61027 0.4821 0.8005 0.0
C1687 C 0.70731 0.4732 0.77364 0.0
N1688 N 0.58367 0.46491 0.77093 0.0
C1689 C 0.5605 0.47348 0.78938 0.0
C1690 C 0.65598 0.46473 0.76294 0.0
C1691 C 0.68415 0.48193 0.79255 0.0
C1692 C 0.34732 0.43331 0.69524 0.0
N1693 N 0.31108 0.44127 0.71216 0.0
C1694 C 0.33204 0.43361 0.66829 0.0
C1695 C 0.27925 0.44213 0.6587 0.0
C1696 C 0.24256 0.45022 0.67608 0.0
C1697 C 0.2594 0.44967 0.7029 0.0
C1698 C 0.11115 0.43056 0.75321 0.0
C1699 C 0.20383 0.44793 0.77745 0.0
C1700 C 0.1861 0.43132 0.74657 0.0
N1701 N 0.23131 0.43997 0.75858 0.0
C1702 C 0.12919 0.44745 0.78459 0.0
C1703 C 0.08264 0.4387 0.77234 0.0
C1704 C 0.41298 0.44496 0.80119 0.0
C1705 C 0.63576 0.41994 0.74453 0.0
C1706 C 0.61342 0.43731 0.78465 0.0
C1707 C 0.65988 0.42687 0.7889 0.0
C1708 C 0.67087 0.41812 0.76869 0.0
N1709 N 0.57881 0.43899 0.76097 0.0
C1710 C 0.5898 0.4305 0.74099 0.0
Co1711 Co 0.44571 0.3119 0.74641 0.0
Co1712 Co 0.26811 0.30029 0.75603 0.0
O1713 O 0.33912 0.31167 0.739 0.0
C1714 C 0.39636 0.33837 0.75637 0.0
O1715 O 0.33775 0.33357 0.76791 0.0
C1716 C 0.24468 0.29554 0.69874 0.0
O1717 O 0.31691 0.29484 0.69598 0.0
O1718 O 0.33339 0.28523 0.74959 0.0
O1719 O 0.4493 0.29291 0.74704 0.0
H1720 H 0.19109 0.26517 0.81707 0.0
H1721 H 0.38635 0.32656 0.70124 0.0
O1722 O 0.44505 0.33103 0.74631 0.0
H1723 H 0.5626 0.2959 0.66278 0.0
H1724 H 0.70627 0.32807 0.73556 0.0
H1725 H 0.54622 0.29734 0.78156 0.0
H1726 H 0.54221 0.29661 0.71075 0.0
H1727 H 0.57198 0.3274 0.72655 0.0
O1728 O 0.21672 0.29747 0.72141 0.0
H1729 H 0.27928 0.27989 0.79602 0.0
H1730 H 0.10484 0.29632 0.75122 0.0
H1731 H 0.68029 0.2976 0.79098 0.0
H1732 H 0.40534 0.32623 0.65316 0.0
H1733 H 0.7613 0.31305 0.7679 0.0
H1734 H 0.49392 0.3108 0.63364 0.0
O1735 O 0.42814 0.31205 0.78507 0.0
H1736 H 0.13737 0.34077 0.73111 0.0
H1737 H 0.18443 0.31003 0.80247 0.0
H1738 H 0.107 0.3289 0.81121 0.0
H1739 H 0.08297 0.34443 0.77535 0.0
H1740 H 0.21521 0.32184 0.72334 0.0
H1741 H 0.01488 0.28172 0.77161 0.0
H1742 H 0.05785 0.26603 0.80485 0.0
O1743 O 0.31632 0.30307 0.79111 0.0
C1744 C 0.40351 0.28369 0.74785 0.0
C1745 C 0.17166 0.272 0.80267 0.0
C1746 C 0.07278 0.28127 0.77712 0.0
N1747 N 0.19716 0.28901 0.77256 0.0
C1748 C 0.22129 0.28037 0.79075 0.0
C1749 C 0.12401 0.28949 0.7656 0.0
C1750 C 0.09692 0.27247 0.79579 0.0
C1751 C 0.42545 0.3199 0.6929 0.0
N1752 N 0.46343 0.31167 0.70878 0.0
C1753 C 0.43576 0.31972 0.66566 0.0
C1754 C 0.48539 0.31104 0.65472 0.0
C1755 C 0.52391 0.30268 0.67105 0.0
C1756 C 0.51204 0.30311 0.6982 0.0
C1757 C 0.67157 0.32128 0.74572 0.0
C1758 C 0.58114 0.30405 0.77134 0.0
C1759 C 0.59546 0.32088 0.74076 0.0
N1760 N 0.55137 0.3123 0.75343 0.0
C1761 C 0.65701 0.30417 0.77681 0.0
C1762 C 0.70241 0.31285 0.76386 0.0
C1763 C 0.3764 0.3079 0.79982 0.0
C1764 C 0.1474 0.33407 0.74689 0.0
C1765 C 0.17473 0.3168 0.78685 0.0
C1766 C 0.13053 0.32743 0.79187 0.0
C1767 C 0.11699 0.33613 0.77173 0.0
N1768 N 0.20458 0.31487 0.76247 0.0
C1769 C 0.19122 0.32331 0.74259 0.0
Co1770 Co 0.30672 0.31703 0.01046 0.0
Co1771 Co 0.47192 0.30079 1.00119 0.0
O1772 O 0.41227 0.31421 0.01734 0.0
C1773 C 0.37701 0.34128 0.99664 0.0
O1774 O 0.42944 0.33465 0.98515 0.0
C1775 C 0.49266 0.29686 0.05878 0.0
O1776 O 0.4206 0.29795 0.06156 0.0
O1777 O 0.39443 0.28778 0.00897 0.0
O1778 O 0.28693 0.29852 0.01209 0.0
H1779 H 0.51581 0.26299 0.94283 0.0
H1780 H 0.38163 0.331 0.05354 0.0
O1781 O 0.32384 0.33573 0.0083 0.0
H1782 H 0.18318 0.30646 0.09651 0.0
H1783 H 0.06398 0.34016 0.0207 0.0
H1784 H 0.19278 0.3045 0.97732 0.0
H1785 H 0.19989 0.30555 0.04838 0.0
H1786 H 0.19653 0.33612 0.02925 0.0
O1787 O 0.52143 0.2974 0.03593 0.0
H1788 H 0.44207 0.28023 0.9628 0.0
H1789 H 0.62989 0.2926 0.00617 0.0
H1790 H 0.06005 0.30814 0.96836 0.0
H1791 H 0.36666 0.33225 0.10173 0.0
H1792 H 0.99478 0.32609 0.99013 0.0
H1793 H 0.26699 0.31988 0.12353 0.0
O1794 O 0.32174 0.31571 0.97168 0.0
H1795 H 0.63717 0.33781 0.02225 0.0
H1796 H 0.56152 0.30729 0.95376 0.0
H1797 H 0.65435 0.32368 0.94323 0.0
H1798 H 0.69286 0.33908 0.97766 0.0
H1799 H 0.54386 0.32136 0.0318 0.0
H1800 H 0.70551 0.27544 0.98683 0.0
H1801 H 0.64853 0.26051 0.95484 0.0
O1802 O 0.42533 0.30409 0.96608 0.0
C1803 C 0.32399 0.28822 0.01154 0.0
C1804 C 0.54133 0.26946 0.95668 0.0
C1805 C 0.64776 0.27643 0.98141 0.0
N1806 N 0.53173 0.28745 0.98551 0.0
C1807 C 0.49991 0.27926 0.968 0.0
C1808 C 0.60461 0.28611 0.99235 0.0
C1809 C 0.61577 0.26806 0.96346 0.0
C1810 C 0.33771 0.32569 0.06287 0.0
N1811 N 0.29153 0.31825 0.04816 0.0
C1812 C 0.32968 0.32639 0.09017 0.0
C1813 C 0.27381 0.31944 0.10239 0.0
C1814 C 0.2268 0.3119 0.08725 0.0
C1815 C 0.23662 0.3114 0.06 0.0
C1816 C 0.09177 0.3323 0.01113 0.0
C1817 C 0.16465 0.31228 0.98699 0.0
C1818 C 0.16685 0.32998 0.01585 0.0
N1819 N 0.20222 0.32003 0.00393 0.0
C1820 C 0.08954 0.31432 0.98178 0.0
C1821 C 0.05297 0.3244 0.99398 0.0
C1822 C 0.3691 0.31008 0.95711 0.0
C1823 C 0.6209 0.33115 0.0071 0.0
C1824 C 0.57753 0.31402 0.96875 0.0
C1825 C 0.6304 0.32324 0.96273 0.0
C1826 C 0.65204 0.33187 0.98206 0.0
N1827 N 0.54712 0.31339 0.99333 0.0
C1828 C 0.56827 0.32178 0.01241 0.0
Co1829 Co 0.40098 0.4399 0.00683 0.0
Co1830 Co 0.24273 0.45845 1.00134 0.0
O1831 O 0.29892 0.44423 0.0163 0.0
C1832 C 0.31842 0.41619 0.99669 0.0
O1833 O 0.26415 0.42303 0.98683 0.0
C1834 C 0.23757 0.46263 0.05903 0.0
O1835 O 0.30921 0.46046 0.0598 0.0
O1836 O 0.32795 0.47039 0.00649 0.0
O1837 O 0.42957 0.45804 0.00708 0.0
H1838 H 0.20439 0.49654 0.9432 0.0
H1839 H 0.32956 0.42744 0.05245 0.0
O1840 O 0.37579 0.4215 0.00614 0.0
H1841 H 0.5482 0.44934 0.08882 0.0
H1842 H 0.6348 0.41378 0.01157 0.0
H1843 H 0.51186 0.45056 0.96993 0.0
H1844 H 0.52146 0.45006 0.04124 0.0
H1845 H 0.50682 0.41962 0.02361 0.0
O1846 O 0.20354 0.4627 0.0371 0.0
H1847 H 0.27342 0.47827 0.96138 0.0
H1848 H 0.09132 0.46905 0.01064 0.0
H1849 H 0.64009 0.44511 0.95746 0.0
H1850 H 0.35441 0.42639 0.10017 0.0
H1851 H 0.70241 0.4266 0.97834 0.0
H1852 H 0.46427 0.43744 0.11864 0.0
O1853 O 0.37729 0.44107 0.96859 0.0
H1854 H 0.06558 0.42406 0.02835 0.0
H1855 H 0.13828 0.45326 0.95709 0.0
H1856 H 0.03525 0.43829 0.94987 0.0
H1857 H 0.9982 0.42356 0.9857 0.0
H1858 H 0.16886 0.43906 0.03456 0.0
H1859 H 0.02069 0.48731 0.99324 0.0
H1860 H 0.07713 0.50118 0.95919 0.0
O1861 O 0.27895 0.4542 0.96526 0.0
C1862 C 0.39823 0.46887 0.00725 0.0
C1863 C 0.1791 0.49055 0.95796 0.0
C1864 C 0.07604 0.48538 0.98608 0.0
N1865 N 0.1863 0.47256 0.98693 0.0
C1866 C 0.21782 0.48016 0.96826 0.0
C1867 C 0.11641 0.47507 0.99592 0.0
C1868 C 0.10773 0.49315 0.96697 0.0
C1869 C 0.37785 0.43217 0.06032 0.0
N1870 N 0.42408 0.43878 0.04407 0.0
C1871 C 0.39149 0.43158 0.08736 0.0
C1872 C 0.45307 0.4378 0.09773 0.0
C1873 C 0.50014 0.44449 0.08101 0.0
C1874 C 0.48463 0.44489 0.05408 0.0
C1875 C 0.60829 0.42188 1.00236 0.0
C1876 C 0.53874 0.44253 0.9792 0.0
C1877 C 0.53577 0.42522 0.00906 0.0
N1878 N 0.50206 0.43547 0.99759 0.0
C1879 C 0.61129 0.43947 0.97202 0.0
C1880 C 0.6462 0.42908 0.98373 0.0
C1881 C 0.32932 0.44722 0.95515 0.0
C1882 C 0.08121 0.43042 0.01258 0.0
C1883 C 0.12298 0.44679 0.97265 0.0
C1884 C 0.06432 0.43839 0.96851 0.0
C1885 C 0.04349 0.43014 0.98864 0.0
N1886 N 0.15988 0.44699 0.99614 0.0
C1887 C 0.13953 0.43897 0.01601 0.0
H1888 H 0.02756 0.05518 0.08431 0.0
H1889 H 0.26079 0.06397 0.08304 0.0
H1890 H 0.26331 0.06501 0.13085 0.0
H1891 H 0.20072 0.0629 0.17317 0.0
H1892 H 0.96903 0.05285 0.17534 0.0
H1893 H 0.96442 0.05289 0.12731 0.0
C1894 C 0.07868 0.0574 0.09457 0.0
C1895 C 0.14403 0.05941 0.08012 0.0
C1896 C 0.08009 0.05775 0.1223 0.0
C1897 C 0.21003 0.06218 0.09365 0.0
C1898 C 0.21147 0.06285 0.12105 0.0
C1899 C 0.14898 0.0608 0.16321 0.0
C1900 C 0.08526 0.05797 0.17799 0.0
C1901 C 0.14705 0.06055 0.13559 0.0
C1902 C 0.01901 0.05511 0.16458 0.0
C1903 C 0.01627 0.05512 0.13705 0.0
H1904 H 0.21485 0.19652 0.08543 0.0
H1905 H 0.97606 0.195 0.08388 0.0
H1906 H 0.97243 0.19401 0.13163 0.0
H1907 H 0.03624 0.19405 0.17402 0.0
H1908 H 0.27451 0.19711 0.17648 0.0
H1909 H 0.27921 0.19696 0.12844 0.0
C1910 C 0.16216 0.19591 0.0956 0.0
C1911 C 0.09579 0.19586 0.08104 0.0
C1912 C 0.16033 0.19562 0.1233 0.0
C1913 C 0.0279 0.19519 0.0945 0.0
C1914 C 0.02573 0.19457 0.12189 0.0
C1915 C 0.08931 0.1946 0.1641 0.0
C1916 C 0.1549 0.19549 0.1789 0.0
C1917 C 0.0915 0.19485 0.1365 0.0
C1918 C 0.22308 0.19639 0.16563 0.0
C1919 C 0.22586 0.19631 0.13811 0.0
H1920 H 0.80505 0.94304 0.9205 0.0
H1921 H 0.04062 0.94523 0.934 0.0
H1922 H 0.06245 0.94567 0.88644 0.0
H1923 H 0.01395 0.9457 0.84095 0.0
H1924 H 0.77838 0.94212 0.8281 0.0
H1925 H 0.75729 0.94196 0.87546 0.0
C1926 C 0.86117 0.94364 0.91309 0.0
C1927 C 0.92101 0.94421 0.93081 0.0
C1928 C 0.87331 0.94364 0.88579 0.0
C1929 C 0.99353 0.94477 0.9208 0.0
C1930 C 0.00602 0.94505 0.8936 0.0
C1931 C 0.95804 0.94487 0.84851 0.0
C1932 C 0.89788 0.94399 0.8309 0.0
C1933 C 0.94627 0.94453 0.87589 0.0
C1934 C 0.82581 0.94279 0.84111 0.0
C1935 C 0.81359 0.94273 0.86823 0.0
H1936 H 0.76259 0.80633 0.92411 0.0
H1937 H 0.00157 0.80532 0.92357 0.0
H1938 H 0.00156 0.80599 0.87557 0.0
H1939 H 0.93386 0.80695 0.83359 0.0
H1940 H 0.69491 0.80626 0.83384 0.0
H1941 H 0.6947 0.80619 0.88193 0.0
C1942 C 0.81467 0.80627 0.91348 0.0
C1943 C 0.88204 0.80586 0.92752 0.0
C1944 C 0.81425 0.80637 0.88575 0.0
C1945 C 0.94894 0.8056 0.91337 0.0
C1946 C 0.949 0.80603 0.88586 0.0
C1947 C 0.88169 0.80682 0.84414 0.0
C1948 C 0.81445 0.80673 0.83003 0.0
C1949 C 0.88202 0.80644 0.87184 0.0
C1950 C 0.74745 0.80636 0.84411 0.0
C1951 C 0.74729 0.80633 0.87166 0.0
H1952 H 0.2116 0.55445 0.67043 0.0
H1953 H 0.97743 0.56258 0.66983 0.0
H1954 H 0.97727 0.56299 0.62186 0.0
H1955 H 0.04297 0.56059 0.57996 0.0
H1956 H 0.27559 0.55098 0.58025 0.0
H1957 H 0.27708 0.55157 0.62824 0.0
C1958 C 0.16076 0.55639 0.65974 0.0
C1959 C 0.09458 0.55848 0.67367 0.0
C1960 C 0.16075 0.55629 0.63205 0.0
C1961 C 0.02888 0.56082 0.6596 0.0
C1962 C 0.02881 0.56109 0.63214 0.0
C1963 C 0.09412 0.55868 0.59048 0.0
C1964 C 0.15916 0.55583 0.57641 0.0
C1965 C 0.09429 0.55876 0.61814 0.0
C1966 C 0.22467 0.55321 0.59048 0.0
C1967 C 0.22565 0.55356 0.61798 0.0
H1968 H 0.0351 0.69542 0.67382 0.0
H1969 H 0.27405 0.69651 0.67407 0.0
H1970 H 0.27521 0.69562 0.62605 0.0
H1971 H 0.20821 0.69455 0.58376 0.0
H1972 H 0.96925 0.69521 0.58359 0.0
H1973 H 0.96823 0.69542 0.63163 0.0
C1974 C 0.08749 0.69543 0.6634 0.0
C1975 C 0.15444 0.69591 0.67767 0.0
C1976 C 0.08772 0.69525 0.6357 0.0
C1977 C 0.2217 0.69612 0.66372 0.0
C1978 C 0.22242 0.6956 0.63619 0.0
C1979 C 0.15593 0.6947 0.59425 0.0
C1980 C 0.08885 0.69477 0.58003 0.0
C1981 C 0.15577 0.69515 0.62196 0.0
C1982 C 0.02163 0.69517 0.59396 0.0
C1983 C 0.02101 0.69527 0.62148 0.0
H1984 H 0.98613 0.44467 0.42894 0.0
H1985 H 0.753 0.4361 0.42488 0.0
H1986 H 0.75887 0.43538 0.37692 0.0
H1987 H 0.82898 0.43813 0.33608 0.0
H1988 H 0.06043 0.44829 0.33999 0.0
H1989 H 0.05662 0.44739 0.38785 0.0
C1990 C 0.93697 0.44251 0.41749 0.0
C1991 C 0.86922 0.44048 0.43031 0.0
C1992 C 0.94038 0.44245 0.38986 0.0
C1993 C 0.80556 0.43784 0.41536 0.0
C1994 C 0.80893 0.4374 0.38795 0.0
C1995 C 0.87878 0.44005 0.34736 0.0
C1996 C 0.94496 0.44319 0.33434 0.0
C1997 C 0.87583 0.43986 0.37497 0.0
C1998 C 0.0087 0.4458 0.34938 0.0
C1999 C 0.00665 0.44531 0.37683 0.0
H2000 H 0.94482 0.30627 0.33208 0.0
H2001 H 0.70756 0.31037 0.33738 0.0
H2002 H 0.71498 0.31024 0.38533 0.0
H2003 H 0.78865 0.30853 0.42586 0.0
H2004 H 0.0249 0.30262 0.42045 0.0
H2005 H 0.01812 0.30389 0.37264 0.0
C2006 C 0.89486 0.30722 0.34375 0.0
C2007 C 0.82576 0.30838 0.33116 0.0
C2008 C 0.89935 0.30678 0.37137 0.0
C2009 C 0.76136 0.30941 0.34655 0.0
C2010 C 0.76559 0.30936 0.374 0.0
C2011 C 0.83875 0.30758 0.41426 0.0
C2012 C 0.90731 0.30563 0.42688 0.0
C2013 C 0.83424 0.30797 0.38664 0.0
C2014 C 0.97142 0.30422 0.41141 0.0
C2015 C 0.96764 0.30493 0.38398 0.0
H2016 H 0.70951 0.05736 0.67258 0.0
H2017 H 0.47068 0.05688 0.66885 0.0
H2018 H 0.47503 0.0584 0.6211 0.0
H2019 H 0.54626 0.05941 0.58018 0.0
H2020 H 0.78495 0.05801 0.58315 0.0
H2021 H 0.78119 0.05769 0.63126 0.0
C2022 C 0.65846 0.05765 0.66132 0.0
C2023 C 0.58981 0.0571 0.67439 0.0
C2024 C 0.66137 0.05817 0.63365 0.0
C2025 C 0.52423 0.0573 0.65943 0.0
C2026 C 0.52664 0.05818 0.63204 0.0
C2027 C 0.59749 0.05912 0.59135 0.0
C2028 C 0.66578 0.05882 0.57809 0.0
C2029 C 0.59483 0.05857 0.61894 0.0
C2030 C 0.73164 0.05824 0.59286 0.0
C2031 C 0.72952 0.05807 0.62038 0.0
H2032 H 0.53454 0.19441 0.67325 0.0
H2033 H 0.77239 0.19085 0.66878 0.0
H2034 H 0.76625 0.19063 0.62095 0.0
H2035 H 0.69426 0.19202 0.58033 0.0
H2036 H 0.45718 0.19714 0.58411 0.0
H2037 H 0.46208 0.1962 0.63215 0.0
C2038 C 0.58489 0.19349 0.66178 0.0
C2039 C 0.65384 0.19259 0.67464 0.0
C2040 C 0.58114 0.19371 0.63412 0.0
C2041 C 0.71868 0.19159 0.65948 0.0
C2042 C 0.71524 0.19145 0.63206 0.0
C2043 C 0.6435 0.19286 0.59161 0.0
C2044 C 0.57542 0.19457 0.57857 0.0
C2045 C 0.64689 0.1926 0.61918 0.0
C2046 C 0.51038 0.19582 0.59359 0.0
C2047 C 0.51311 0.19527 0.62109 0.0
H2048 H 0.48283 0.93989 0.4228 0.0
H2049 H 0.26279 0.956 0.4264 0.0
H2050 H 0.25613 0.95622 0.37844 0.0
H2051 H 0.31338 0.95196 0.33508 0.0
H2052 H 0.53555 0.93697 0.33202 0.0
H2053 H 0.54072 0.93617 0.37998 0.0
C2054 C 0.43327 0.94345 0.41317 0.0
C2055 C 0.37316 0.94779 0.42837 0.0
C2056 C 0.43017 0.94375 0.38555 0.0
C2057 C 0.30984 0.9525 0.41536 0.0
C2058 C 0.30589 0.95264 0.38785 0.0
C2059 C 0.36258 0.94846 0.34501 0.0
C2060 C 0.42415 0.94457 0.33011 0.0
C2061 C 0.36565 0.94826 0.37271 0.0
C2062 C 0.48796 0.94018 0.3431 0.0
C2063 C 0.4908 0.93967 0.37053 0.0
H2064 H 0.26648 0.80718 0.42181 0.0
H2065 H 0.50515 0.80511 0.42436 0.0
H2066 H 0.5102 0.80568 0.37641 0.0
H2067 H 0.44697 0.80674 0.33353 0.0
H2068 H 0.20807 0.80705 0.33085 0.0
H2069 H 0.20303 0.80724 0.37883 0.0
C2070 C 0.31962 0.80688 0.41188 0.0
C2071 C 0.38538 0.80619 0.42679 0.0
C2072 C 0.3221 0.80692 0.38417 0.0
C2073 C 0.45366 0.80562 0.41351 0.0
C2074 C 0.45663 0.80599 0.38601 0.0
C2075 C 0.39378 0.8069 0.34343 0.0
C2076 C 0.32799 0.80701 0.32848 0.0
C2077 C 0.39123 0.80664 0.37112 0.0
C2078 C 0.25959 0.807 0.34173 0.0
C2079 C 0.25664 0.80711 0.36924 0.0
H2080 H 0.55469 0.55673 0.08536 0.0
H2081 H 0.79322 0.55446 0.08755 0.0
H2082 H 0.7914 0.55486 0.13547 0.0
H2083 H 0.72229 0.55561 0.17691 0.0
H2084 H 0.48338 0.55621 0.17524 0.0
H2085 H 0.48496 0.55674 0.12717 0.0
C2086 C 0.60617 0.55636 0.09637 0.0
C2087 C 0.67403 0.55557 0.08286 0.0
C2088 C 0.60463 0.5563 0.12408 0.0
C2089 C 0.74027 0.55496 0.09739 0.0
C2090 C 0.7393 0.55524 0.12485 0.0
C2091 C 0.67055 0.55592 0.16605 0.0
C2092 C 0.60284 0.55596 0.1797 0.0
C2093 C 0.67185 0.55587 0.13841 0.0
C2094 C 0.53628 0.55616 0.16527 0.0
C2095 C 0.53714 0.55648 0.13775 0.0
H2096 H 0.5356 0.69407 0.17329 0.0
H2097 H 0.7746 0.69404 0.17446 0.0
H2098 H 0.77714 0.69377 0.12641 0.0
H2099 H 0.71138 0.69363 0.08384 0.0
H2100 H 0.47254 0.69536 0.08285 0.0
H2101 H 0.47008 0.69493 0.13085 0.0
C2102 C 0.58828 0.69396 0.16306 0.0
C2103 C 0.65484 0.69396 0.17758 0.0
C2104 C 0.58935 0.69415 0.13535 0.0
C2105 C 0.72254 0.69402 0.16389 0.0
C2106 C 0.72404 0.69386 0.13636 0.0
C2107 C 0.65878 0.69389 0.09413 0.0
C2108 C 0.59219 0.69444 0.07966 0.0
C2109 C 0.6578 0.69393 0.12186 0.0
C2110 C 0.52461 0.69496 0.09338 0.0
C2111 C 0.52313 0.69468 0.12089 0.0
H2112 H 0.28969 0.44614 0.83169 0.0
H2113 H 0.52726 0.44213 0.83577 0.0
H2114 H 0.52208 0.44177 0.88368 0.0
H2115 H 0.45049 0.44335 0.92459 0.0
H2116 H 0.214 0.44903 0.92059 0.0
H2117 H 0.21814 0.44797 0.87267 0.0
C2118 C 0.34018 0.44508 0.84309 0.0
C2119 C 0.40875 0.44415 0.83017 0.0
C2120 C 0.33698 0.44524 0.87071 0.0
C2121 C 0.47385 0.44295 0.8452 0.0
C2122 C 0.47093 0.44272 0.87263 0.0
C2123 C 0.39984 0.44427 0.91322 0.0
C2124 C 0.33205 0.44625 0.92615 0.0
C2125 C 0.40289 0.44398 0.88561 0.0
C2126 C 0.26697 0.44758 0.91114 0.0
C2127 C 0.26925 0.44694 0.88371 0.0
H2128 H 0.27144 0.31134 0.83758 0.0
H2129 H 0.50627 0.30575 0.82681 0.0
H2130 H 0.52457 0.30573 0.87446 0.0
H2131 H 0.47361 0.30697 0.91909 0.0
H2132 H 0.24001 0.31401 0.93002 0.0
H2133 H 0.22142 0.31383 0.88236 0.0
C2134 C 0.32654 0.31011 0.84566 0.0
C2135 C 0.38729 0.30845 0.82867 0.0
C2136 C 0.33686 0.31038 0.87309 0.0
C2137 C 0.45861 0.30708 0.83945 0.0
C2138 C 0.46909 0.30703 0.8667 0.0
C2139 C 0.41863 0.30848 0.91111 0.0
C2140 C 0.35829 0.31042 0.92818 0.0
C2141 C 0.40858 0.30862 0.8837 0.0
C2142 C 0.28751 0.31251 0.91738 0.0
C2143 C 0.27677 0.31238 0.89011 0.0
H2144 H 0.23711 0.97598 0.25507 0.0
H2145 H 0.45432 0.99235 0.24436 0.0
H2146 H 0.40036 0.01367 0.24616 0.0
H2147 H 0.29178 0.02767 0.25109 0.0
H2148 H 0.07511 0.01112 0.26222 0.0
H2149 H 0.12917 0.98988 0.26008 0.0
C2150 C 0.273 0.98417 0.25303 0.0
C2151 C 0.34999 0.98246 0.24949 0.0
C2152 C 0.24174 0.99641 0.2543 0.0
C2153 C 0.39502 0.99329 0.24701 0.0
C2154 C 0.36417 0.00552 0.2481 0.0
C2155 C 0.25616 0.01944 0.25313 0.0
C2156 C 0.17917 0.02109 0.2569 0.0
C2157 C 0.28761 0.00719 0.25183 0.0
C2158 C 0.13438 0.01023 0.2594 0.0
C2159 C 0.16528 0.99804 0.25812 0.0
H2160 H 0.0071 0.27817 0.25391 0.0
H2161 H 0.78892 0.26183 0.2454 0.0
H2162 H 0.84232 0.24053 0.24738 0.0
H2163 H 0.95022 0.22649 0.25208 0.0
H2164 H 0.16838 0.24278 0.26103 0.0
H2165 H 0.11524 0.2641 0.25847 0.0
C2166 C 0.97101 0.26998 0.25235 0.0
C2167 C 0.89381 0.27171 0.24944 0.0
C2168 C 0.00199 0.2577 0.25376 0.0
C2169 C 0.84839 0.26088 0.24759 0.0
C2170 C 0.8789 0.24866 0.24878 0.0
C2171 C 0.98642 0.23468 0.25355 0.0
C2172 C 0.06347 0.23293 0.25685 0.0
C2173 C 0.95555 0.24695 0.252 0.0
C2174 C 0.10899 0.24374 0.25859 0.0
C2175 C 0.07863 0.25598 0.25707 0.0
H2176 H 0.09595 0.24265 0.01066 0.0
H2177 H 0.2926 0.22271 0.98515 0.0
H2178 H 0.36436 0.24206 0.98826 0.0
H2179 H 0.37312 0.26458 0.9988 0.0
H2180 H 0.17781 0.28491 0.02421 0.0
H2181 H 0.10475 0.26552 0.02095 0.0
C2182 C 0.15422 0.24259 0.00546 0.0
C2183 C 0.18835 0.23119 0.99755 0.0
C2184 C 0.19613 0.2538 0.00768 0.0
C2185 C 0.26436 0.23129 0.99121 0.0
C2186 C 0.3059 0.24237 0.99312 0.0
C2187 C 0.31478 0.26477 0.0039 0.0
C2188 C 0.28144 0.2762 0.0119 0.0
C2189 C 0.27264 0.25365 1.00158 0.0
C2190 C 0.20533 0.27625 0.0181 0.0
C2191 C 0.1632 0.26516 0.01611 0.0
H2192 H 0.14797 0.0136 0.02087 0.0
H2193 H 0.97533 0.02932 0.97184 0.0
H2194 H 0.90506 0.00969 0.97513 0.0
H2195 H 0.89136 0.98813 0.99235 0.0
H2196 H 0.06424 0.97207 0.04083 0.0
H2197 H 0.13469 0.99177 0.03781 0.0
C2198 C 0.09559 0.01262 0.01059 0.0
C2199 C 0.067 0.0229 0.99612 0.0
C2200 C 0.05465 0.00133 0.0129 0.0
C2201 C 0.99846 0.02157 0.9832 0.0
C2202 C 0.95797 0.01036 0.98515 0.0
C2203 C 0.94386 0.989 1.00258 0.0
C2204 C 0.97212 0.97867 0.01693 0.0
C2205 C 0.985 1.00024 1.00024 0.0
C2206 C 0.04101 0.9799 0.02971 0.0
C2207 C 0.08165 0.99113 0.02786 0.0
H2208 H 0.77034 0.02552 0.75197 0.0
H2209 H 0.55289 0.00856 0.75575 0.0
H2210 H 0.6089 0.98737 0.75367 0.0
H2211 H 0.72005 0.97364 0.75088 0.0
H2212 H 0.93653 0.99104 0.7472 0.0
H2213 H 0.87991 0.01203 0.74889 0.0
C2214 C 0.73475 0.01723 0.75242 0.0
C2215 C 0.65718 0.01873 0.75414 0.0
C2216 C 0.7672 0.0051 0.75107 0.0
C2217 C 0.61264 0.00777 0.75457 0.0
C2218 C 0.64469 0.99562 0.7533 0.0
C2219 C 0.75495 0.98201 0.7503 0.0
C2220 C 0.83277 0.98065 0.74887 0.0
C2221 C 0.72198 0.99417 0.7515 0.0
C2222 C 0.87669 0.99169 0.74827 0.0
C2223 C 0.84434 0.00375 0.7493 0.0
H2224 H 0.9602 0.72627 0.75113 0.0
H2225 H 0.17674 0.74254 0.76411 0.0
H2226 H 0.12343 0.76389 0.7615 0.0
H2227 H 0.01533 0.77797 0.75546 0.0
H2228 H 0.79936 0.76145 0.74236 0.0
H2229 H 0.85305 0.74022 0.74486 0.0
C2230 C 0.99607 0.73445 0.75349 0.0
C2231 C 0.07266 0.7327 0.75792 0.0
C2232 C 0.9652 0.74671 0.75177 0.0
C2233 C 0.1177 0.74351 0.76079 0.0
C2234 C 0.08723 0.75576 0.75922 0.0
C2235 C 0.97985 0.76975 0.75303 0.0
C2236 C 0.90311 0.77142 0.74866 0.0
C2237 C 0.01105 0.75747 0.75465 0.0
C2238 C 0.85846 0.76056 0.74566 0.0
C2239 C 0.88911 0.74836 0.74717 0.0
H2240 H 0.60227 0.73884 0.00829 0.0
H2241 H 0.80117 0.71904 0.98474 0.0
H2242 H 0.87247 0.73853 0.98897 0.0
H2243 H 0.87908 0.76125 0.99968 0.0
H2244 H 0.67998 0.78097 0.02341 0.0
H2245 H 0.60899 0.76148 0.01926 0.0
C2246 C 0.66099 0.73882 0.00378 0.0
C2247 C 0.69594 0.72749 0.99605 0.0
C2248 C 0.70224 0.75003 0.00671 0.0
C2249 C 0.7725 0.72762 0.99064 0.0
C2250 C 0.81361 0.73876 0.99319 0.0
C2251 C 0.82041 0.76125 0.00428 0.0
C2252 C 0.78529 0.77258 0.01196 0.0
C2253 C 0.77925 0.75001 1.00144 0.0
C2254 C 0.70881 0.77241 0.01751 0.0
C2255 C 0.66783 0.76126 0.01501 0.0
H2256 H 0.28183 0.52738 0.75189 0.0
H2257 H 0.06321 0.51088 0.75661 0.0
H2258 H 0.11754 0.4896 0.75523 0.0
H2259 H 0.22663 0.47568 0.75247 0.0
H2260 H 0.44518 0.49222 0.74787 0.0
H2261 H 0.3908 0.51347 0.74924 0.0
C2262 C 0.24574 0.51916 0.7527 0.0
C2263 C 0.1682 0.52083 0.75443 0.0
C2264 C 0.2773 0.50693 0.75178 0.0
C2265 C 0.1229 0.50997 0.75538 0.0
C2266 C 0.15397 0.49777 0.75452 0.0
C2267 C 0.26267 0.4839 0.75168 0.0
C2268 C 0.34023 0.48225 0.74999 0.0
C2269 C 0.23106 0.49614 0.75265 0.0
C2270 C 0.38548 0.49311 0.7491 0.0
C2271 C 0.35439 0.5053 0.74994 0.0
H2272 H 0.37693 0.76108 0.50103 0.0
H2273 H 0.17411 0.78124 0.5185 0.0
H2274 H 0.10389 0.7617 0.51458 0.0
H2275 H 0.09868 0.73891 0.50564 0.0
H2276 H 0.30074 0.71852 0.48839 0.0
H2277 H 0.3717 0.73809 0.49235 0.0
C2278 C 0.31755 0.76117 0.50428 0.0
C2279 C 0.28128 0.77265 0.51018 0.0
C2280 C 0.27677 0.74986 0.50163 0.0
C2281 C 0.20395 0.77258 0.51403 0.0
C2282 C 0.16336 0.7614 0.51165 0.0
C2283 C 0.15809 0.73875 0.50246 0.0
C2284 C 0.19394 0.72725 0.49655 0.0
C2285 C 0.199 0.75001 0.50521 0.0
C2286 C 0.27133 0.72724 0.49285 0.0
C2287 C 0.31223 0.73842 0.49524 0.0
H2288 H 0.858 0.48961 0.49819 0.0
H2289 H 0.05602 0.46899 0.52022 0.0
H2290 H 0.12928 0.48811 0.51579 0.0
H2291 H 0.13892 0.51066 0.50539 0.0
H2292 H 0.94213 0.53171 0.48417 0.0
H2293 H 0.8677 0.5125 0.4882 0.0
C2294 C 0.91698 0.48933 0.50229 0.0
C2295 C 0.95086 0.47781 0.50964 0.0
C2296 C 0.95971 0.50044 0.4995 0.0
C2297 C 0.02777 0.47766 0.51462 0.0
C2298 C 0.07022 0.48861 0.51197 0.0
C2299 C 0.07991 0.51105 0.50137 0.0
C2300 C 0.04657 0.52262 0.4943 0.0
C2301 C 0.037 0.50003 0.50423 0.0
C2302 C 0.96963 0.52293 0.48954 0.0
C2303 C 0.92675 0.51194 0.49196 0.0
H2304 H 0.79944 0.52601 0.2569 0.0
H2305 H 0.58309 0.5088 0.26324 0.0
H2306 H 0.63974 0.4877 0.26182 0.0
H2307 H 0.75052 0.4741 0.25856 0.0
H2308 H 0.96651 0.49147 0.25217 0.0
H2309 H 0.90969 0.5125 0.2537 0.0
C2310 C 0.76435 0.51768 0.25806 0.0
C2311 C 0.68679 0.51909 0.26026 0.0
C2312 C 0.79722 0.50555 0.2571 0.0
C2313 C 0.64279 0.50809 0.26164 0.0
C2314 C 0.67519 0.49598 0.26076 0.0
C2315 C 0.78538 0.48246 0.25743 0.0
C2316 C 0.863 0.4811 0.25518 0.0
C2317 C 0.75234 0.49459 0.25843 0.0
C2318 C 0.90679 0.49213 0.25384 0.0
C2319 C 0.87431 0.5042 0.25476 0.0
H2320 H 0.7297 0.27538 0.50497 0.0
H2321 H 0.94566 0.25764 0.50877 0.0
H2322 H 0.88749 0.23668 0.50568 0.0
H2323 H 0.77538 0.22353 0.50153 0.0
H2324 H 0.56052 0.24171 0.49736 0.0
H2325 H 0.61916 0.26247 0.50066 0.0
C2326 C 0.76459 0.26698 0.50522 0.0
C2327 C 0.84225 0.26815 0.50718 0.0
C2328 C 0.73103 0.25504 0.50315 0.0
C2329 C 0.88586 0.25706 0.5074 0.0
C2330 C 0.85261 0.24508 0.50553 0.0
C2331 C 0.74119 0.23201 0.50122 0.0
C2332 C 0.66338 0.23099 0.49914 0.0
C2333 C 0.77523 0.24397 0.50328 0.0
C2334 C 0.62034 0.24214 0.49887 0.0
C2335 C 0.65382 0.25404 0.50084 0.0
H2336 H 0.54915 0.2764 0.74903 0.0
H2337 H 0.32692 0.2612 0.74739 0.0
H2338 H 0.37671 0.23966 0.7498 0.0
H2339 H 0.48253 0.22513 0.75285 0.0
H2340 H 0.70498 0.24021 0.75472 0.0
H2341 H 0.65538 0.2618 0.75201 0.0
C2342 C 0.51136 0.2684 0.74908 0.0
C2343 C 0.4341 0.27052 0.74796 0.0
C2344 C 0.54033 0.25599 0.75073 0.0
C2345 C 0.38647 0.25995 0.74816 0.0
C2346 C 0.41493 0.24759 0.74962 0.0
C2347 C 0.52051 0.23311 0.75276 0.0
C2348 C 0.59768 0.23095 0.75409 0.0
C2349 C 0.49168 0.24551 0.75105 0.0
C2350 C 0.64547 0.2415 0.75384 0.0
C2351 C 0.61711 0.25388 0.7522 0.0
H2352 H 0.65767 0.0129 0.50792 0.0
H2353 H 0.45436 0.03319 0.49173 0.0
H2354 H 0.3836 0.0137 0.49745 0.0
H2355 H 0.37916 0.99072 0.50655 0.0
H2356 H 0.58338 0.97062 0.52215 0.0
H2357 H 0.6531 0.99019 0.51776 0.0
C2358 C 0.59798 0.01307 0.50541 0.0
C2359 C 0.56181 0.02451 0.49918 0.0
C2360 C 0.55724 0.00185 0.50903 0.0
C2361 C 0.48408 0.02452 0.49637 0.0
C2362 C 0.44329 0.01338 0.49977 0.0
C2363 C 0.43873 0.99066 0.50936 0.0
C2364 C 0.47562 0.97917 0.51476 0.0
C2365 C 0.47922 0.00197 0.5062 0.0
C2366 C 0.55315 0.97928 0.51806 0.0
C2367 C 0.59341 0.99049 0.51537 0.0
H2368 H 0.45945 0.72463 0.251 0.0
H2369 H 0.67818 0.74005 0.26404 0.0
H2370 H 0.62793 0.76157 0.26151 0.0
H2371 H 0.52275 0.77602 0.25536 0.0
H2372 H 0.3038 0.76072 0.2423 0.0
H2373 H 0.35387 0.73915 0.24489 0.0
C2374 C 0.49635 0.73267 0.25339 0.0
C2375 C 0.57278 0.73062 0.25779 0.0
C2376 C 0.46718 0.74507 0.25175 0.0
C2377 C 0.61927 0.74125 0.26073 0.0
C2378 C 0.59057 0.75359 0.25921 0.0
C2379 C 0.48567 0.768 0.25298 0.0
C2380 C 0.40933 0.77009 0.24854 0.0
C2381 C 0.51471 0.75561 0.25464 0.0
C2382 C 0.36268 0.75948 0.24562 0.0
C2383 C 0.39128 0.74712 0.24718 0.0
H2384 H 0.36106 0.4936 0.99756 0.0
H2385 H 0.54764 0.46939 0.016 0.0
H2386 H 0.63091 0.48746 0.01348 0.0
H2387 H 0.6516 0.51026 0.0063 0.0
H2388 H 0.46464 0.5344 0.98794 0.0
H2389 H 0.38191 0.51628 0.98979 0.0
C2390 C 0.4198 0.49228 1.00124 0.0
C2391 C 0.44751 0.48013 0.00717 0.0
C2392 C 0.468 0.50271 0.99945 0.0
C2393 C 0.52421 0.47862 0.01155 0.0
C2394 C 0.57226 0.48896 0.01 0.0
C2395 C 0.59295 0.51153 1.00239 0.0
C2396 C 0.5649 0.52371 0.99688 0.0
C2397 C 0.54489 0.50105 0.00387 0.0
C2398 C 0.48833 0.52517 0.99215 0.0
C2399 C 0.44055 0.51479 0.99333 0.0
H2400 H 0.22073 0.14678 0.24976 0.0
H2401 H 0.98348 0.15193 0.25085 0.0
H2402 H 0.96585 0.12892 0.25047 0.0
H2403 H 0.01769 0.10724 0.24933 0.0
H2404 H 0.25497 0.1021 0.25052 0.0
H2405 H 0.27254 0.1251 0.25056 0.0
C2406 C 0.16517 0.14286 0.24989 0.0
C2407 C 0.10356 0.15109 0.25016 0.0
C2408 C 0.15536 0.12958 0.25008 0.0
C2409 C 0.03194 0.14584 0.25067 0.0
C2410 C 0.02176 0.13266 0.25039 0.0
C2411 C 0.07323 0.11116 0.24957 0.0
C2412 C 0.13487 0.10293 0.24976 0.0
C2413 C 0.08303 0.12443 0.25001 0.0
C2414 C 0.20648 0.10819 0.25041 0.0
C2415 C 0.21664 0.12136 0.25037 0.0
H2416 H 0.01202 0.14645 0.01483 0.0
H2417 H 0.24827 0.15257 0.01701 0.0
H2418 H 0.27005 0.12971 0.01847 0.0
H2419 H 0.22235 0.1079 0.01743 0.0
H2420 H 0.98652 0.10171 0.01226 0.0
H2421 H 0.96422 0.12457 0.01372 0.0
C2422 C 0.0681 0.14274 0.01584 0.0
C2423 C 0.12833 0.15113 0.01578 0.0
C2424 C 0.0804 0.12956 0.01602 0.0
C2425 C 0.20092 0.14625 0.01682 0.0
C2426 C 0.21352 0.13319 0.01771 0.0
C2427 C 0.16615 0.11158 0.01681 0.0
C2428 C 0.1063 0.10318 0.01473 0.0
C2429 C 0.15374 0.12475 0.01705 0.0
C2430 C 0.03365 0.10803 0.01368 0.0
C2431 C 0.02076 0.1211 0.01457 0.0
H2432 H 0.78726 0.89801 0.75647 0.0
H2433 H 0.02573 0.89781 0.76222 0.0
H2434 H 0.02629 0.87456 0.76195 0.0
H2435 H 0.95876 0.8542 0.76088 0.0
H2436 H 0.71981 0.85448 0.75849 0.0
H2437 H 0.71965 0.87769 0.75665 0.0
C2438 C 0.83934 0.89287 0.75753 0.0
C2439 C 0.90637 0.89963 0.75925 0.0
C2440 C 0.83913 0.87948 0.75805 0.0
C2441 C 0.97334 0.89283 0.76096 0.0
C2442 C 0.97372 0.87953 0.76077 0.0
C2443 C 0.90672 0.85935 0.75986 0.0
C2444 C 0.83941 0.85261 0.75975 0.0
C2445 C 0.90695 0.87274 0.75944 0.0
C2446 C 0.77239 0.85943 0.75872 0.0
C2447 C 0.77224 0.87272 0.7576 0.0
H2448 H 0.79842 0.89654 0.98861 0.0
H2449 H 0.03474 0.89839 1.00089 0.0
H2450 H 0.0431 0.87522 0.999 0.0
H2451 H 0.98247 0.85439 0.99531 0.0
H2452 H 0.74491 0.85259 0.98663 0.0
H2453 H 0.73769 0.87576 0.98552 0.0
C2454 C 0.85172 0.89185 0.99067 0.0
C2455 C 0.91582 0.8991 0.99479 0.0
C2456 C 0.85585 0.87855 0.99025 0.0
C2457 C 0.98454 0.89295 0.99781 0.0
C2458 C 0.98942 0.87973 0.99668 0.0
C2459 C 0.92935 0.85911 0.99294 0.0
C2460 C 0.86442 0.85188 0.99094 0.0
C2461 C 0.92537 0.87243 0.9931 0.0
C2462 C 0.79563 0.85803 0.98828 0.0
C2463 C 0.79144 0.87125 0.98762 0.0
H2464 H 0.01633 0.60731 0.7452 0.0
H2465 H 0.25287 0.60148 0.74855 0.0
H2466 H 0.27272 0.62444 0.74913 0.0
H2467 H 0.22305 0.64627 0.74829 0.0
H2468 H 0.98634 0.65209 0.74769 0.0
H2469 H 0.9665 0.62914 0.74649 0.0
C2470 C 0.07219 0.61108 0.74602 0.0
C2471 C 0.133 0.60268 0.74665 0.0
C2472 C 0.08323 0.62432 0.74685 0.0
C2473 C 0.20504 0.60772 0.74808 0.0
C2474 C 0.21649 0.62086 0.74835 0.0
C2475 C 0.16715 0.6425 0.74787 0.0
C2476 C 0.10632 0.65089 0.74791 0.0
C2477 C 0.15605 0.62926 0.74767 0.0
C2478 C 0.03419 0.64586 0.74771 0.0
C2479 C 0.02275 0.63272 0.74696 0.0
H2480 H 0.21535 0.64614 0.51369 0.0
H2481 H 0.97632 0.64704 0.516 0.0
H2482 H 0.97292 0.62381 0.5145 0.0
H2483 H 0.03791 0.60335 0.51163 0.0
H2484 H 0.277 0.60239 0.51152 0.0
H2485 H 0.28047 0.62564 0.51309 0.0
C2486 C 0.16252 0.64124 0.51388 0.0
C2487 C 0.09614 0.64825 0.51477 0.0
C2488 C 0.16108 0.62793 0.51336 0.0
C2489 C 0.02811 0.64182 0.51538 0.0
C2490 C 0.02615 0.62856 0.51443 0.0
C2491 C 0.09078 0.60824 0.5119 0.0
C2492 C 0.15714 0.60122 0.51123 0.0
C2493 C 0.09227 0.62154 0.51325 0.0
C2494 C 0.22525 0.60763 0.51203 0.0
C2495 C 0.22723 0.62089 0.51287 0.0
H2496 H 0.96355 0.35382 0.25764 0.0
H2497 H 0.72504 0.35602 0.26105 0.0
H2498 H 0.73106 0.37923 0.26017 0.0
H2499 H 0.80417 0.39897 0.25949 0.0
H2500 H 0.04287 0.39679 0.25952 0.0
H2501 H 0.03679 0.37358 0.25796 0.0
C2502 C 0.91293 0.35939 0.25806 0.0
C2503 C 0.84394 0.3532 0.25932 0.0
C2504 C 0.91686 0.37276 0.25823 0.0
C2505 C 0.77886 0.36055 0.26017 0.0
C2506 C 0.78224 0.37383 0.25963 0.0
C2507 C 0.85482 0.39341 0.259 0.0
C2508 C 0.92387 0.3996 0.25951 0.0
C2509 C 0.85092 0.38005 0.2588 0.0
C2510 C 0.98902 0.39226 0.25922 0.0
C2511 C 0.98559 0.37898 0.25829 0.0
H2512 H 0.98336 0.35443 0.49779 0.0
H2513 H 0.74795 0.34757 0.50064 0.0
H2514 H 0.72385 0.37043 0.50098 0.0
H2515 H 0.77001 0.39248 0.50083 0.0
H2516 H 0.00587 0.39911 0.50115 0.0
H2517 H 0.0294 0.37632 0.49918 0.0
C2518 C 0.92685 0.35796 0.4984 0.0
C2519 C 0.8676 0.34937 0.49908 0.0
C2520 C 0.91343 0.3711 0.49919 0.0
C2521 C 0.79457 0.35404 0.50021 0.0
C2522 C 0.78069 0.3671 0.50033 0.0
C2523 C 0.8264 0.3889 0.50039 0.0
C2524 C 0.88601 0.39743 0.5011 0.0
C2525 C 0.8397 0.37573 0.49988 0.0
C2526 C 0.95898 0.39271 0.5008 0.0
C2527 C 0.97258 0.37968 0.4996 0.0
H2528 H 0.5132 0.10601 0.7482 0.0
H2529 H 0.74852 0.09871 0.74895 0.0
H2530 H 0.77335 0.12152 0.74857 0.0
H2531 H 0.72839 0.14363 0.74744 0.0
H2532 H 0.49325 0.15099 0.74976 0.0
H2533 H 0.46826 0.12816 0.7496 0.0
C2534 C 0.56986 0.10943 0.74828 0.0
C2535 C 0.62887 0.10067 0.74843 0.0
C2536 C 0.58384 0.12259 0.74861 0.0
C2537 C 0.70204 0.10524 0.74889 0.0
C2538 C 0.71634 0.11829 0.7486 0.0
C2539 C 0.67171 0.14022 0.7479 0.0
C2540 C 0.6128 0.14899 0.74842 0.0
C2541 C 0.65772 0.12707 0.74836 0.0
C2542 C 0.53964 0.14444 0.74939 0.0
C2543 C 0.52527 0.13138 0.74923 0.0
H2544 H 0.71089 0.14924 0.508 0.0
H2545 H 0.47176 0.14889 0.50929 0.0
H2546 H 0.47238 0.12567 0.50878 0.0
H2547 H 0.54065 0.10554 0.50813 0.0
H2548 H 0.77973 0.10571 0.50949 0.0
H2549 H 0.77947 0.12899 0.50888 0.0
C2550 C 0.65897 0.14406 0.50807 0.0
C2551 C 0.59136 0.15073 0.50854 0.0
C2552 C 0.65978 0.13072 0.50832 0.0
C2553 C 0.52447 0.14394 0.509 0.0
C2554 C 0.52478 0.13068 0.50866 0.0
C2555 C 0.59273 0.11067 0.50821 0.0
C2556 C 0.66013 0.10396 0.50869 0.0
C2557 C 0.59207 0.12399 0.50834 0.0
C2558 C 0.72716 0.1107 0.50918 0.0
C2559 C 0.72702 0.12399 0.50876 0.0
H2560 H 0.49112 0.89497 0.26003 0.0
H2561 H 0.25644 0.90252 0.2549 0.0
H2562 H 0.23078 0.87975 0.25492 0.0
H2563 H 0.2747 0.85758 0.25673 0.0
H2564 H 0.50964 0.84999 0.25921 0.0
H2565 H 0.5353 0.87277 0.25986 0.0
C2566 C 0.43439 0.89162 0.25894 0.0
C2567 C 0.37584 0.90045 0.25761 0.0
C2568 C 0.41997 0.87846 0.25849 0.0
C2569 C 0.30265 0.89594 0.25588 0.0
C2570 C 0.28784 0.88291 0.25596 0.0
C2571 C 0.33149 0.86092 0.25745 0.0
C2572 C 0.39008 0.85208 0.25808 0.0
C2573 C 0.346 0.87407 0.25732 0.0
C2574 C 0.46343 0.85657 0.25867 0.0
C2575 C 0.47821 0.86962 0.2591 0.0
H2576 H 0.28566 0.89677 0.48875 0.0
H2577 H 0.52426 0.89928 0.49033 0.0
H2578 H 0.53408 0.87615 0.48928 0.0
H2579 H 0.47486 0.85516 0.48944 0.0
H2580 H 0.23623 0.85267 0.49063 0.0
H2581 H 0.22645 0.87579 0.48902 0.0
C2582 C 0.33971 0.89223 0.48865 0.0
C2583 C 0.40403 0.89968 0.48958 0.0
C2584 C 0.345 0.87893 0.48864 0.0
C2585 C 0.47384 0.89371 0.48975 0.0
C2586 C 0.47957 0.8805 0.48911 0.0
C2587 C 0.42082 0.8597 0.48915 0.0
C2588 C 0.35648 0.85226 0.49013 0.0
C2589 C 0.41554 0.873 0.48879 0.0
C2590 C 0.28667 0.85823 0.49004 0.0
C2591 C 0.28096 0.87144 0.48906 0.0
H2592 H 0.72412 0.64464 0.24884 0.0
H2593 H 0.48673 0.64957 0.24867 0.0
H2594 H 0.46985 0.62653 0.24907 0.0
H2595 H 0.52254 0.60488 0.24912 0.0
H2596 H 0.75992 0.60003 0.25189 0.0
H2597 H 0.77666 0.62305 0.25088 0.0
C2598 C 0.6687 0.64066 0.24883 0.0
C2599 C 0.60681 0.64882 0.24853 0.0
C2600 C 0.65935 0.62739 0.24956 0.0
C2601 C 0.53535 0.64352 0.24892 0.0
C2602 C 0.52563 0.63033 0.24909 0.0
C2603 C 0.57791 0.60887 0.24947 0.0
C2604 C 0.63986 0.60072 0.25042 0.0
C2605 C 0.5872 0.62216 0.24935 0.0
C2606 C 0.71123 0.60606 0.25121 0.0
C2607 C 0.72091 0.61924 0.25056 0.0
H2608 H 0.72861 0.64718 0.01699 0.0
H2609 H 0.48949 0.64624 0.01736 0.0
H2610 H 0.49234 0.623 0.0184 0.0
H2611 H 0.56262 0.6031 0.01775 0.0
H2612 H 0.80163 0.60386 0.0193 0.0
H2613 H 0.79915 0.62717 0.01917 0.0
C2614 C 0.67714 0.64187 0.01731 0.0
C2615 C 0.60887 0.64836 0.01683 0.0
C2616 C 0.67928 0.62856 0.01827 0.0
C2617 C 0.54261 0.64142 0.01771 0.0
C2618 C 0.54425 0.62816 0.01824 0.0
C2619 C 0.61423 0.60837 0.01807 0.0
C2620 C 0.68229 0.60183 0.01822 0.0
C2621 C 0.61222 0.62166 0.01828 0.0
C2622 C 0.74866 0.60873 0.01916 0.0
C2623 C 0.7472 0.62202 0.01898 0.0
H2624 H 0.49545 0.39601 0.75598 0.0
H2625 H 0.25853 0.40152 0.75688 0.0
H2626 H 0.23966 0.37853 0.75713 0.0
H2627 H 0.29043 0.35678 0.75763 0.0
H2628 H 0.52699 0.35123 0.75343 0.0
H2629 H 0.54605 0.37423 0.75387 0.0
C2630 C 0.43974 0.39216 0.75624 0.0
C2631 C 0.37852 0.40046 0.7566 0.0
C2632 C 0.42922 0.37891 0.75579 0.0
C2633 C 0.30661 0.39534 0.75655 0.0
C2634 C 0.29575 0.38219 0.75677 0.0
C2635 C 0.34612 0.36062 0.75682 0.0
C2636 C 0.40721 0.35231 0.7557 0.0
C2637 C 0.35661 0.37387 0.75648 0.0
C2638 C 0.47902 0.35742 0.75426 0.0
C2639 C 0.48998 0.37058 0.75459 0.0
H2640 H 0.43479 0.40019 0.99436 0.0
H2641 H 0.19592 0.40098 0.99739 0.0
H2642 H 0.1932 0.37768 0.99812 0.0
H2643 H 0.25936 0.3572 0.99853 0.0
H2644 H 0.49787 0.35657 0.99262 0.0
H2645 H 0.50031 0.37982 0.99239 0.0
C2646 C 0.38211 0.39525 0.99522 0.0
C2647 C 0.31561 0.40222 0.99609 0.0
C2648 C 0.38107 0.38195 0.99513 0.0
C2649 C 0.24771 0.39576 0.99671 0.0
C2650 C 0.24622 0.38248 0.99721 0.0
C2651 C 0.31183 0.36218 0.99724 0.0
C2652 C 0.37844 0.35525 0.99582 0.0
C2653 C 0.31261 0.3755 0.99655 0.0
C2654 C 0.44599 0.36174 0.99371 0.0
C2655 C 0.44739 0.375 0.99363 0.0
H2656 H 0.86136 0.0454 0.32495 0.0
H2657 H 0.0742 0.04402 0.36378 0.0
H2658 H 0.01279 0.0434 0.4066 0.0
H2659 H 0.89882 0.04382 0.4331 0.0
H2660 H 0.68616 0.04535 0.39415 0.0
H2661 H 0.74754 0.04528 0.35135 0.0
C2662 C 0.89449 0.04492 0.34274 0.0
C2663 C 0.97248 0.04478 0.34105 0.0
C2664 C 0.85883 0.04459 0.36733 0.0
C2665 C 0.01421 0.04413 0.3644 0.0
C2666 C 0.97909 0.04379 0.38894 0.0
C2667 C 0.86575 0.04407 0.41527 0.0
C2668 C 0.78779 0.04459 0.41694 0.0
C2669 C 0.90145 0.04409 0.39066 0.0
C2670 C 0.74611 0.04491 0.39355 0.0
C2671 C 0.78121 0.0449 0.36902 0.0
H2672 H 0.37656 0.2093 0.32592 0.0
H2673 H 0.1627 0.2095 0.36393 0.0
H2674 H 0.22306 0.20994 0.40702 0.0
H2675 H 0.33654 0.20959 0.43392 0.0
H2676 H 0.5501 0.20929 0.39566 0.0
H2677 H 0.48962 0.20961 0.35268 0.0
C2678 C 0.34296 0.20949 0.3436 0.0
C2679 C 0.26507 0.20933 0.34162 0.0
C2680 C 0.37799 0.20971 0.36831 0.0
C2681 C 0.22267 0.20963 0.3648 0.0
C2682 C 0.25718 0.20985 0.38948 0.0
C2683 C 0.36996 0.20966 0.4162 0.0
C2684 C 0.44789 0.2094 0.4181 0.0
C2685 C 0.3348 0.2098 0.39148 0.0
C2686 C 0.49012 0.20951 0.39487 0.0
C2687 C 0.45556 0.20967 0.37024 0.0
H2688 H 0.74237 0.20989 0.85815 0.0
H2689 H 0.93154 0.20281 0.80828 0.0
H2690 H 0.01339 0.20336 0.8464 0.0
H2691 H 0.03171 0.20524 0.89426 0.0
H2692 H 0.84232 0.21222 0.94408 0.0
H2693 H 0.76111 0.21237 0.90581 0.0
C2694 C 0.8015 0.20852 0.85559 0.0
C2695 C 0.83035 0.2063 0.83029 0.0
C2696 C 0.8487 0.20882 0.87769 0.0
C2697 C 0.90737 0.20454 0.82745 0.0
C2698 C 0.9545 0.20484 0.84929 0.0
C2699 C 0.97279 0.20689 0.89674 0.0
C2700 C 0.94353 0.20869 0.92212 0.0
C2701 C 0.92583 0.2069 0.87455 0.0
C2702 C 0.86676 0.21077 0.92487 0.0
C2703 C 0.81997 0.21085 0.90294 0.0
H2704 H 0.21718 0.04524 0.89437 0.0
H2705 H 0.40876 0.04552 0.94537 0.0
H2706 H 0.49037 0.04429 0.90738 0.0
H2707 H 0.50854 0.04373 0.85944 0.0
H2708 H 0.31725 0.04356 0.80833 0.0
H2709 H 0.23535 0.04409 0.84638 0.0
C2710 C 0.27674 0.04496 0.8972 0.0
C2711 C 0.30635 0.0455 0.92281 0.0
C2712 C 0.32393 0.04429 0.87514 0.0
C2713 C 0.38393 0.04515 0.92597 0.0
C2714 C 0.43098 0.04444 0.9042 0.0
C2715 C 0.44896 0.04372 0.85661 0.0
C2716 C 0.41949 0.04362 0.83095 0.0
C2717 C 0.40172 0.04409 0.87866 0.0
C2718 C 0.3419 0.04365 0.82777 0.0
C2719 C 0.29474 0.04396 0.84957 0.0
H2720 H 0.2648 0.97234 0.61201 0.0
H2721 H 0.13098 0.94609 0.5674 0.0
H2722 H 0.04969 0.94304 0.60515 0.0
H2723 H 0.0159 0.94775 0.65101 0.0
H2724 H 0.15521 0.97241 0.6972 0.0
H2725 H 0.23456 0.97618 0.65891 0.0
C2726 C 0.21788 0.96595 0.61062 0.0
C2727 C 0.20399 0.9595 0.58685 0.0
C2728 C 0.17205 0.96397 0.63273 0.0
C2729 C 0.14332 0.95114 0.58545 0.0
C2730 C 0.09649 0.94942 0.60703 0.0
C2731 C 0.06342 0.954 0.65261 0.0
C2732 C 0.0792 0.95991 0.67679 0.0
C2733 C 0.11015 0.95579 0.63076 0.0
C2734 C 0.14181 0.96778 0.67875 0.0
C2735 C 0.1872 0.96994 0.65686 0.0
H2736 H 0.57831 0.79628 0.68297 0.0
H2737 H 0.79038 0.79499 0.64381 0.0
H2738 H 0.72832 0.79463 0.60109 0.0
H2739 H 0.614 0.79504 0.57461 0.0
H2740 H 0.40188 0.79643 0.6137 0.0
H2741 H 0.46385 0.79636 0.65647 0.0
C2742 C 0.6111 0.79588 0.66511 0.0
C2743 C 0.68918 0.79565 0.66676 0.0
C2744 C 0.57498 0.7957 0.64048 0.0
C2745 C 0.73038 0.79515 0.64329 0.0
C2746 C 0.69487 0.79495 0.61877 0.0
C2747 C 0.58115 0.79528 0.59245 0.0
C2748 C 0.50311 0.79572 0.59078 0.0
C2749 C 0.61721 0.79528 0.6171 0.0
C2750 C 0.46185 0.79605 0.61425 0.0
C2751 C 0.49732 0.79603 0.63879 0.0
H2752 H 0.09362 0.79699 0.18182 0.0
H2753 H 0.30341 0.79454 0.14139 0.0
H2754 H 0.239 0.79398 0.09907 0.0
H2755 H 0.12311 0.79451 0.07332 0.0
H2756 H 0.9135 0.79696 0.11388 0.0
H2757 H 0.97789 0.79716 0.15617 0.0
C2758 C 0.12544 0.79631 0.16378 0.0
C2759 C 0.20355 0.79581 0.16495 0.0
C2760 C 0.08798 0.79599 0.13942 0.0
C2761 C 0.24343 0.79492 0.14124 0.0
C2762 C 0.20656 0.79461 0.11696 0.0
C2763 C 0.09135 0.79504 0.09139 0.0
C2764 C 0.01327 0.7957 0.09026 0.0
C2765 C 0.12884 0.79518 0.11578 0.0
C2766 C 0.97343 0.7964 0.114 0.0
C2767 C 0.0103 0.79654 0.13827 0.0
H2768 H 0.79934 0.95643 0.11208 0.0
H2769 H 0.61488 0.95572 0.05794 0.0
H2770 H 0.52811 0.95633 0.0947 0.0
H2771 H 0.5039 0.95654 0.14256 0.0
H2772 H 0.68937 0.95721 0.19634 0.0
H2773 H 0.77537 0.95717 0.15958 0.0
C2774 C 0.74019 0.95647 0.10827 0.0
C2775 C 0.71407 0.95603 0.08218 0.0
C2776 C 0.69026 0.95679 0.12956 0.0
C2777 C 0.63697 0.95606 0.07776 0.0
C2778 C 0.58705 0.9564 0.09882 0.0
C2779 C 0.56309 0.95675 0.14624 0.0
C2780 C 0.58962 0.95686 0.17233 0.0
C2781 C 0.61296 0.95669 0.12485 0.0
C2782 C 0.6668 0.9571 0.17659 0.0
C2783 C 0.7164 0.95707 0.15551 0.0
H2784 H 0.02365 0.54141 0.85897 0.0
H2785 H 0.83216 0.54847 0.81001 0.0
H2786 H 0.75228 0.54815 0.84854 0.0
H2787 H 0.73616 0.5464 0.89644 0.0
H2788 H 0.92735 0.53931 0.9455 0.0
H2789 H 0.00697 0.53906 0.90683 0.0
C2790 C 0.96444 0.54283 0.8567 0.0
C2791 C 0.93438 0.54497 0.83151 0.0
C2792 C 0.91828 0.54263 0.87906 0.0
C2793 C 0.85728 0.54679 0.82906 0.0
C2794 C 0.81125 0.54662 0.85115 0.0
C2795 C 0.79514 0.54471 0.89868 0.0
C2796 C 0.82535 0.54289 0.92394 0.0
C2797 C 0.84108 0.54461 0.87628 0.0
C2798 C 0.90217 0.54075 0.92637 0.0
C2799 C 0.94804 0.54062 0.90422 0.0
H2800 H 0.3933 0.70575 0.82419 0.0
H2801 H 0.18244 0.70855 0.86382 0.0
H2802 H 0.24528 0.70836 0.90642 0.0
H2803 H 0.35991 0.70701 0.93265 0.0
H2804 H 0.57076 0.70414 0.89303 0.0
H2805 H 0.5081 0.70477 0.85041 0.0
C2806 C 0.36095 0.70636 0.84211 0.0
C2807 C 0.28297 0.70718 0.84063 0.0
C2808 C 0.39752 0.70622 0.86667 0.0
C2809 C 0.24236 0.70795 0.8642 0.0
C2810 C 0.27832 0.70782 0.88865 0.0
C2811 C 0.39233 0.70656 0.91472 0.0
C2812 C 0.47023 0.70553 0.91621 0.0
C2813 C 0.35585 0.7069 0.89016 0.0
C2814 C 0.51093 0.70496 0.89264 0.0
C2815 C 0.47506 0.7053 0.86818 0.0
H2816 H 0.85587 0.70652 0.43286 0.0
H2817 H 0.06723 0.70373 0.39355 0.0
H2818 H 0.00486 0.70373 0.35087 0.0
H2819 H 0.89028 0.70413 0.32453 0.0
H2820 H 0.67884 0.70685 0.3638 0.0
H2821 H 0.74132 0.70728 0.40647 0.0
C2822 C 0.88846 0.70596 0.41498 0.0
C2823 C 0.96641 0.70514 0.41657 0.0
C2824 C 0.85214 0.70592 0.39038 0.0
C2825 C 0.00735 0.7044 0.39307 0.0
C2826 C 0.97165 0.70438 0.36858 0.0
C2827 C 0.85771 0.70485 0.34239 0.0
C2828 C 0.7797 0.70546 0.3408 0.0
C2829 C 0.89406 0.70508 0.36697 0.0
C2830 C 0.73879 0.70639 0.36428 0.0
C2831 C 0.77455 0.70662 0.38876 0.0
H2832 H 0.3605 0.54362 0.32323 0.0
H2833 H 0.56968 0.54101 0.36427 0.0
H2834 H 0.50461 0.54039 0.40638 0.0
H2835 H 0.38877 0.54119 0.43164 0.0
H2836 H 0.17959 0.54405 0.39067 0.0
H2837 H 0.24442 0.54391 0.34848 0.0
C2838 C 0.39201 0.54287 0.34136 0.0
C2839 C 0.47009 0.54237 0.34049 0.0
C2840 C 0.35423 0.54257 0.36556 0.0
C2841 C 0.5097 0.54139 0.36426 0.0
C2842 C 0.47248 0.54106 0.38839 0.0
C2843 C 0.35715 0.54171 0.41351 0.0
C2844 C 0.2792 0.54262 0.41443 0.0
C2845 C 0.39481 0.54172 0.38929 0.0
C2846 C 0.23947 0.54331 0.39064 0.0
C2847 C 0.27656 0.54327 0.36647 0.0
H2848 H 0.00378 0.46402 0.15145 0.0
H2849 H 0.20082 0.45611 0.19698 0.0
H2850 H 0.27623 0.45729 0.15739 0.0
H2851 H 0.28636 0.4597 0.10951 0.0
H2852 H 0.08962 0.46759 0.06383 0.0
H2853 H 0.01475 0.46737 0.1037 0.0
C2854 C 0.06323 0.46262 0.15273 0.0
C2855 C 0.09624 0.45994 0.1772 0.0
C2856 C 0.1067 0.4633 0.12981 0.0
C2857 C 0.17358 0.45818 0.17845 0.0
C2858 C 0.21699 0.45884 0.15579 0.0
C2859 C 0.22726 0.46151 0.10828 0.0
C2860 C 0.19389 0.46363 0.08365 0.0
C2861 C 0.18415 0.46129 0.13131 0.0
C2862 C 0.11701 0.46591 0.08249 0.0
C2863 C 0.07393 0.46576 0.10531 0.0
H2864 H 0.74414 0.29484 0.14584 0.0
H2865 H 0.55279 0.29676 0.19665 0.0
H2866 H 0.47107 0.29667 0.15853 0.0
H2867 H 0.45301 0.29669 0.11064 0.0
H2868 H 0.64376 0.29481 0.0596 0.0
H2869 H 0.72577 0.2942 0.09776 0.0
C2870 C 0.68458 0.29517 0.14859 0.0
C2871 C 0.65505 0.29583 0.17419 0.0
C2872 C 0.63736 0.29514 0.12646 0.0
C2873 C 0.57751 0.29626 0.17727 0.0
C2874 C 0.53043 0.29622 0.15543 0.0
C2875 C 0.51247 0.29606 0.10783 0.0
C2876 C 0.54185 0.29581 0.0822 0.0
C2877 C 0.55965 0.29575 0.12992 0.0
C2878 C 0.61927 0.29502 0.07904 0.0
C2879 C 0.66644 0.29469 0.1009 0.0
H2880 H 0.99137 0.29415 0.61228 0.0
H2881 H 0.18176 0.29184 0.56112 0.0
H2882 H 0.26414 0.29195 0.59911 0.0
H2883 H 0.2832 0.29327 0.64693 0.0
H2884 H 0.09319 0.2958 0.69821 0.0
H2885 H 0.01043 0.29501 0.66028 0.0
C2886 C 0.05083 0.29358 0.60943 0.0
C2887 C 0.07997 0.29299 0.58377 0.0
C2888 C 0.0984 0.29373 0.63147 0.0
C2889 C 0.15741 0.29233 0.58056 0.0
C2890 C 0.20483 0.29239 0.60232 0.0
C2891 C 0.2237 0.29358 0.64985 0.0
C2892 C 0.1948 0.29459 0.67548 0.0
C2893 C 0.17607 0.29318 0.62788 0.0
C2894 C 0.11734 0.29503 0.67877 0.0
C2895 C 0.06973 0.29458 0.65705 0.0
H2896 H 0.49152 0.45982 0.64588 0.0
H2897 H 0.68125 0.45766 0.69759 0.0
H2898 H 0.76417 0.45775 0.65991 0.0
H2899 H 0.78364 0.45758 0.6121 0.0
H2900 H 0.59425 0.45965 0.56025 0.0
H2901 H 0.51131 0.46051 0.59798 0.0
C2902 C 0.55099 0.45946 0.64891 0.0
C2903 C 0.57971 0.4587 0.67461 0.0
C2904 C 0.59889 0.45946 0.62705 0.0
C2905 C 0.65716 0.45823 0.67809 0.0
C2906 C 0.70493 0.45826 0.65651 0.0
C2907 C 0.72429 0.45833 0.60904 0.0
C2908 C 0.69554 0.45852 0.58331 0.0
C2909 C 0.67649 0.45876 0.63088 0.0
C2910 C 0.61826 0.45945 0.57979 0.0
C2911 C 0.57053 0.45994 0.60139 0.0
loop_
_geom_bond_atom_site_label_1
_geom_bond_atom_site_label_2
_geom_bond_distance
_geom_bond_site_symmetry_2
_ccdc_geom_bond_type
Co0 O2 2.143 . S
Co0 O8 2.074 . S
Co0 O11 2.093 . S
Co0 O24 2.097 . S
Co0 N41 2.151 . S
Co0 N49 2.214 . S
Co1 O2 2.160 1_655 S
Co1 O7 2.058 1_655 S
Co1 O17 2.057 . S
Co1 O32 2.037 1_655 S
Co1 N36 2.145 . S
Co1 N57 2.257 . S
O2 Co0 2.143 . S
O2 Co1 2.160 1_455 S
C3 O4 1.278 . S
C3 O11 1.224 . S
O4 C3 1.278 . S
C5 O6 1.245 1_655 S
C5 O17 1.232 . S
O6 C5 1.245 1_455 S
O7 Co1 2.058 1_455 S
O7 C33 1.269 . S
O8 Co0 2.074 . S
O8 C33 1.257 . S
H9 C34 0.930 . S
H10 C40 0.930 . S
O11 Co0 2.093 . S
O11 C3 1.224 . S
H12 C44 0.929 . S
H13 C46 0.930 . S
H14 C47 0.930 . S
H15 C45 0.929 . S
H16 C48 0.928 . S
O17 Co1 2.057 . S
O17 C5 1.232 . S
H18 C37 0.929 . S
H19 C38 0.929 . S
H20 C50 0.931 . S
H21 C42 0.929 . S
H22 C51 0.930 . S
H23 C43 0.931 . S
O24 Co0 2.097 . S
O24 C52 1.214 . S
H25 C53 0.929 . S
H26 C54 0.929 . S
H27 C55 0.930 . S
H28 C56 0.929 . S
H29 C58 0.930 . S
H30 C35 0.930 . S
H31 C39 0.930 . S
O32 Co1 2.037 1_455 S
O32 C52 1.234 . S
C33 O7 1.269 . S
C33 O8 1.257 . S
C34 H9 0.930 . S
C34 C37 1.388 . S
C34 C39 1.418 . S
C35 H30 0.930 . S
C35 C38 1.404 . S
C35 C39 1.353 . S
N36 Co1 2.145 . S
N36 C37 1.397 . S
N36 C38 1.334 . S
C37 H18 0.929 . S
C37 C34 1.388 . S
C37 N36 1.397 . S
C38 H19 0.929 . S
C38 C35 1.404 . S
C38 N36 1.334 . S
C39 H31 0.930 . S
C39 C34 1.418 . S
C39 C35 1.353 . S
C40 H10 0.930 . S
C40 N41 1.330 . S
C40 C42 1.446 . S
N41 Co0 2.151 . S
N41 C40 1.330 . S
N41 C45 1.418 . S
C42 H21 0.929 . S
C42 C40 1.446 . S
C42 C43 1.332 . S
C43 H23 0.931 . S
C43 C42 1.332 . S
C43 C44 1.267 . S
C44 H12 0.929 . S
C44 C43 1.267 . S
C44 C45 1.251 . S
C45 H15 0.929 . S
C45 N41 1.418 . S
C45 C44 1.251 . S
C46 H13 0.930 . S
C46 C48 1.406 . S
C46 C51 1.261 . S
C47 H14 0.930 . S
C47 N49 1.325 . S
C47 C50 1.357 . S
C48 H16 0.928 . S
C48 C46 1.406 . S
C48 N49 1.261 . S
N49 Co0 2.214 . S
N49 C47 1.325 . S
N49 C48 1.261 . S
C50 H20 0.931 . S
C50 C47 1.357 . S
C50 C51 1.312 . S
C51 H22 0.930 . S
C51 C46 1.261 . S
C51 C50 1.312 . S
C52 O24 1.214 . S
C52 O32 1.234 . S
C53 H25 0.929 . S
C53 C56 1.391 . S
C53 C58 1.391 . S
C54 H26 0.929 . S
C54 C55 1.390 . S
C54 N57 1.391 . S
C55 H27 0.930 . S
C55 C54 1.390 . S
C55 C56 1.392 . S
C56 H28 0.929 . S
C56 C53 1.391 . S
C56 C55 1.392 . S
N57 Co1 2.257 . S
N57 C54 1.391 . S
N57 C58 1.388 . S
C58 H29 0.930 . S
C58 C53 1.391 . S
C58 N57 1.388 . S
Co59 O61 2.143 . S
Co59 O67 2.074 . S
Co59 O70 2.093 . S
Co59 O83 2.097 . S
Co59 N100 2.151 . S
Co59 N108 2.214 1_455 S
Co60 O61 2.160 . S
Co60 O66 2.058 . S
Co60 O76 2.057 . S
Co60 O91 2.037 . S
Co60 N95 2.145 . S
Co60 N116 2.257 . S
O61 Co59 2.143 . S
O61 Co60 2.160 . S
C62 O63 1.278 . S
C62 O70 1.224 . S
O63 C62 1.278 . S
C64 O65 1.245 . S
C64 O76 1.232 . S
O65 C64 1.245 . S
O66 Co60 2.058 . S
O66 C92 1.269 . S
O67 Co59 2.074 . S
O67 C92 1.257 . S
H68 C93 0.930 . S
H69 C99 0.930 . S
O70 Co59 2.093 . S
O70 C62 1.224 . S
H71 C103 0.929 . S
H72 C105 0.930 . S
H73 C106 0.930 1_455 S
H74 C104 0.929 . S
H75 C107 0.928 . S
O76 Co60 2.057 . S
O76 C64 1.232 . S
H77 C96 0.929 . S
H78 C97 0.929 . S
H79 C109 0.931 . S
H80 C101 0.929 . S
H81 C110 0.930 . S
H82 C102 0.931 . S
O83 Co59 2.097 . S
O83 C111 1.214 . S
H84 C112 0.929 . S
H85 C113 0.929 . S
H86 C114 0.930 . S
H87 C115 0.929 . S
H88 C117 0.930 . S
H89 C94 0.930 . S
H90 C98 0.930 . S
O91 Co60 2.037 . S
O91 C111 1.234 . S
C92 O66 1.269 . S
C92 O67 1.257 . S
C93 H68 0.930 . S
C93 C96 1.388 . S
C93 C98 1.418 . S
C94 H89 0.930 . S
C94 C97 1.404 . S
C94 C98 1.353 . S
N95 Co60 2.145 . S
N95 C96 1.397 . S
N95 C97 1.334 . S
C96 H77 0.929 . S
C96 C93 1.388 . S
C96 N95 1.397 . S
C97 H78 0.929 . S
C97 C94 1.404 . S
C97 N95 1.334 . S
C98 H90 0.930 . S
C98 C93 1.418 . S
C98 C94 1.353 . S
C99 H69 0.930 . S
C99 N100 1.330 . S
C99 C101 1.446 1_455 S
N100 Co59 2.151 . S
N100 C99 1.330 . S
N100 C104 1.418 1_455 S
C101 H80 0.929 . S
C101 C99 1.446 1_655 S
C101 C102 1.332 . S
C102 H82 0.931 . S
C102 C101 1.332 . S
C102 C103 1.267 . S
C103 H71 0.929 . S
C103 C102 1.267 . S
C103 C104 1.251 . S
C104 H74 0.929 . S
C104 N100 1.418 1_655 S
C104 C103 1.251 . S
C105 H72 0.930 . S
C105 C107 1.406 . S
C105 C110 1.261 . S
C106 H73 0.930 1_655 S
C106 N108 1.325 . S
C106 C109 1.357 . S
C107 H75 0.928 . S
C107 C105 1.406 . S
C107 N108 1.261 . S
N108 Co59 2.214 1_655 S
N108 C106 1.325 . S
N108 C107 1.261 . S
C109 H79 0.931 . S
C109 C106 1.357 . S
C109 C110 1.312 . S
C110 H81 0.930 . S
C110 C105 1.261 . S
C110 C109 1.312 . S
C111 O83 1.214 . S
C111 O91 1.234 . S
C112 H84 0.929 . S
C112 C115 1.391 . S
C112 C117 1.391 . S
C113 H85 0.929 . S
C113 C114 1.390 . S
C113 N116 1.391 . S
C114 H86 0.930 . S
C114 C113 1.390 . S
C114 C115 1.392 . S
C115 H87 0.929 . S
C115 C112 1.391 . S
C115 C114 1.392 . S
N116 Co60 2.257 . S
N116 C113 1.391 . S
N116 C117 1.388 . S
C117 H88 0.930 . S
C117 C112 1.391 . S
C117 N116 1.388 . S
Co118 O120 2.143 1_554 S
Co118 O126 2.074 . S
Co118 O129 2.093 . S
Co118 O142 2.097 . S
Co118 N159 2.151 1_554 S
Co118 N167 2.214 . S
Co119 O120 2.160 1_654 S
Co119 O125 2.058 1_654 S
Co119 O135 2.057 1_554 S
Co119 O150 2.037 1_655 S
Co119 N154 2.145 . S
Co119 N175 2.257 . S
O120 Co118 2.143 1_556 S
O120 Co119 2.160 1_456 S
C121 O122 1.275 1_554 S
C121 O129 1.224 . S
O122 C121 1.275 1_556 S
C123 O124 1.245 1_655 S
C123 O135 1.232 . S
O124 C123 1.245 1_455 S
O125 Co119 2.058 1_456 S
O125 C151 1.276 . S
O126 Co118 2.074 . S
O126 C151 1.249 1_554 S
H127 C152 0.930 . S
H128 C158 0.930 . S
O129 Co118 2.093 . S
O129 C121 1.224 . S
H130 C162 0.929 . S
H131 C164 0.930 . S
H132 C165 0.930 . S
H133 C163 0.929 . S
H134 C166 0.928 . S
O135 Co119 2.057 1_556 S
O135 C123 1.232 . S
H136 C155 0.929 . S
H137 C156 0.929 . S
H138 C168 0.931 . S
H139 C160 0.929 . S
H140 C169 0.930 . S
H141 C161 0.931 . S
O142 Co118 2.097 . S
O142 C170 1.214 . S
H143 C171 0.929 1_556 S
H144 C172 0.929 . S
H145 C173 0.930 . S
H146 C174 0.929 . S
H147 C176 0.930 . S
H148 C153 0.930 1_556 S
H149 C157 0.930 . S
O150 Co119 2.037 1_455 S
O150 C170 1.234 . S
C151 O125 1.276 . S
C151 O126 1.249 1_556 S
C152 H127 0.930 . S
C152 C155 1.388 . S
C152 C157 1.418 . S
C153 H148 0.930 1_554 S
C153 C156 1.404 1_554 S
C153 C157 1.353 . S
N154 Co119 2.145 . S
N154 C155 1.397 . S
N154 C156 1.334 1_554 S
C155 H136 0.929 . S
C155 C152 1.388 . S
C155 N154 1.397 . S
C156 H137 0.929 . S
C156 C153 1.404 1_556 S
C156 N154 1.334 1_556 S
C157 H149 0.930 . S
C157 C152 1.418 . S
C157 C153 1.353 . S
C158 H128 0.930 . S
C158 N159 1.330 . S
C158 C160 1.446 . S
N159 Co118 2.151 1_556 S
N159 C158 1.330 . S
N159 C163 1.418 . S
C160 H139 0.929 . S
C160 C158 1.446 . S
C160 C161 1.332 . S
C161 H141 0.931 . S
C161 C160 1.332 . S
C161 C162 1.267 . S
C162 H130 0.929 . S
C162 C161 1.267 . S
C162 C163 1.251 . S
C163 H133 0.929 . S
C163 N159 1.418 . S
C163 C162 1.251 . S
C164 H131 0.930 . S
C164 C166 1.406 . S
C164 C169 1.261 . S
C165 H132 0.930 . S
C165 N167 1.325 . S
C165 C168 1.357 . S
C166 H134 0.928 . S
C166 C164 1.406 . S
C166 N167 1.261 . S
N167 Co118 2.214 . S
N167 C165 1.325 . S
N167 C166 1.261 . S
C168 H138 0.931 . S
C168 C165 1.357 . S
C168 C169 1.312 . S
C169 H140 0.930 . S
C169 C164 1.261 . S
C169 C168 1.312 . S
C170 O142 1.214 . S
C170 O150 1.234 . S
C171 H143 0.929 1_554 S
C171 C174 1.391 . S
C171 C176 1.391 1_554 S
C172 H144 0.929 . S
C172 C173 1.390 . S
C172 N175 1.391 . S
C173 H145 0.930 . S
C173 C172 1.390 . S
C173 C174 1.392 . S
C174 H146 0.929 . S
C174 C171 1.391 . S
C174 C173 1.392 . S
N175 Co119 2.257 . S
N175 C172 1.391 . S
N175 C176 1.388 1_554 S
C176 H147 0.930 . S
C176 C171 1.391 1_556 S
C176 N175 1.388 1_556 S
Co177 O179 2.143 1_554 S
Co177 O185 2.074 . S
Co177 O188 2.093 . S
Co177 O201 2.097 . S
Co177 N218 2.151 1_554 S
Co177 N226 2.214 1_455 S
Co178 O179 2.160 1_554 S
Co178 O184 2.058 1_554 S
Co178 O194 2.057 1_554 S
Co178 O209 2.037 . S
Co178 N213 2.145 . S
Co178 N234 2.257 . S
O179 Co177 2.143 1_556 S
O179 Co178 2.160 1_556 S
C180 O181 1.275 1_554 S
C180 O188 1.224 . S
O181 C180 1.275 1_556 S
C182 O183 1.245 . S
C182 O194 1.232 . S
O183 C182 1.245 . S
O184 Co178 2.058 1_556 S
O184 C210 1.276 . S
O185 Co177 2.074 . S
O185 C210 1.249 1_554 S
H186 C211 0.930 . S
H187 C217 0.930 . S
O188 Co177 2.093 . S
O188 C180 1.224 . S
H189 C221 0.929 . S
H190 C223 0.930 . S
H191 C224 0.930 1_455 S
H192 C222 0.929 . S
H193 C225 0.928 . S
O194 Co178 2.057 1_556 S
O194 C182 1.232 . S
H195 C214 0.929 . S
H196 C215 0.929 . S
H197 C227 0.931 . S
H198 C219 0.929 . S
H199 C228 0.930 . S
H200 C220 0.931 . S
O201 Co177 2.097 . S
O201 C229 1.214 . S
H202 C230 0.929 1_556 S
H203 C231 0.929 . S
H204 C232 0.930 . S
H205 C233 0.929 . S
H206 C235 0.930 . S
H207 C212 0.930 1_556 S
H208 C216 0.930 . S
O209 Co178 2.037 . S
O209 C229 1.234 . S
C210 O184 1.276 . S
C210 O185 1.249 1_556 S
C211 H186 0.930 . S
C211 C214 1.388 . S
C211 C216 1.418 . S
C212 H207 0.930 1_554 S
C212 C215 1.404 1_554 S
C212 C216 1.353 . S
N213 Co178 2.145 . S
N213 C214 1.397 . S
N213 C215 1.334 1_554 S
C214 H195 0.929 . S
C214 C211 1.388 . S
C214 N213 1.397 . S
C215 H196 0.929 . S
C215 C212 1.404 1_556 S
C215 N213 1.334 1_556 S
C216 H208 0.930 . S
C216 C211 1.418 . S
C216 C212 1.353 . S
C217 H187 0.930 . S
C217 N218 1.330 . S
C217 C219 1.446 1_455 S
N218 Co177 2.151 1_556 S
N218 C217 1.330 . S
N218 C222 1.418 1_455 S
C219 H198 0.929 . S
C219 C217 1.446 1_655 S
C219 C220 1.332 . S
C220 H200 0.931 . S
C220 C219 1.332 . S
C220 C221 1.267 . S
C221 H189 0.929 . S
C221 C220 1.267 . S
C221 C222 1.251 . S
C222 H192 0.929 . S
C222 N218 1.418 1_655 S
C222 C221 1.251 . S
C223 H190 0.930 . S
C223 C225 1.406 . S
C223 C228 1.261 . S
C224 H191 0.930 1_655 S
C224 N226 1.325 . S
C224 C227 1.357 . S
C225 H193 0.928 . S
C225 C223 1.406 . S
C225 N226 1.261 . S
N226 Co177 2.214 1_655 S
N226 C224 1.325 . S
N226 C225 1.261 . S
C227 H197 0.931 . S
C227 C224 1.357 . S
C227 C228 1.312 . S
C228 H199 0.930 . S
C228 C223 1.261 . S
C228 C227 1.312 . S
C229 O201 1.214 . S
C229 O209 1.234 . S
C230 H202 0.929 1_554 S
C230 C233 1.391 . S
C230 C235 1.391 1_554 S
C231 H203 0.929 . S
C231 C232 1.390 . S
C231 N234 1.391 . S
C232 H204 0.930 . S
C232 C231 1.390 . S
C232 C233 1.392 . S
C233 H205 0.929 . S
C233 C230 1.391 . S
C233 C232 1.392 . S
N234 Co178 2.257 . S
N234 C231 1.391 . S
N234 C235 1.388 1_554 S
C235 H206 0.930 . S
C235 C230 1.391 1_556 S
C235 N234 1.388 1_556 S
Co236 O238 2.143 . S
Co236 O244 2.074 . S
Co236 O247 2.093 . S
Co236 O260 2.097 . S
Co236 N277 2.151 . S
Co236 N285 2.214 . S
Co237 O238 2.160 1_455 S
Co237 O243 2.058 1_455 S
Co237 O253 2.057 . S
Co237 O268 2.037 1_455 S
Co237 N272 2.145 . S
Co237 N293 2.257 . S
O238 Co236 2.143 . S
O238 Co237 2.160 1_655 S
C239 O240 1.278 . S
C239 O247 1.224 . S
O240 C239 1.278 . S
C241 O242 1.245 1_455 S
C241 O253 1.232 . S
O242 C241 1.245 1_655 S
O243 Co237 2.058 1_655 S
O243 C269 1.269 . S
O244 Co236 2.074 . S
O244 C269 1.257 . S
H245 C270 0.930 . S
H246 C276 0.930 . S
O247 Co236 2.093 . S
O247 C239 1.224 . S
H248 C280 0.929 . S
H249 C282 0.930 . S
H250 C283 0.930 . S
H251 C281 0.929 . S
H252 C284 0.928 . S
O253 Co237 2.057 . S
O253 C241 1.232 . S
H254 C273 0.929 . S
H255 C274 0.929 . S
H256 C286 0.931 . S
H257 C278 0.929 . S
H258 C287 0.930 . S
H259 C279 0.931 . S
O260 Co236 2.097 . S
O260 C288 1.214 . S
H261 C289 0.929 . S
H262 C290 0.929 . S
H263 C291 0.930 . S
H264 C292 0.929 . S
H265 C294 0.930 . S
H266 C271 0.930 . S
H267 C275 0.930 . S
O268 Co237 2.037 1_655 S
O268 C288 1.234 . S
C269 O243 1.269 . S
C269 O244 1.257 . S
C270 H245 0.930 . S
C270 C273 1.388 . S
C270 C275 1.418 . S
C271 H266 0.930 . S
C271 C274 1.404 . S
C271 C275 1.353 . S
N272 Co237 2.145 . S
N272 C273 1.397 . S
N272 C274 1.334 . S
C273 H254 0.929 . S
C273 C270 1.388 . S
C273 N272 1.397 . S
C274 H255 0.929 . S
C274 C271 1.404 . S
C274 N272 1.334 . S
C275 H267 0.930 . S
C275 C270 1.418 . S
C275 C271 1.353 . S
C276 H246 0.930 . S
C276 N277 1.330 . S
C276 C278 1.446 . S
N277 Co236 2.151 . S
N277 C276 1.330 . S
N277 C281 1.418 . S
C278 H257 0.929 . S
C278 C276 1.446 . S
C278 C279 1.332 . S
C279 H259 0.931 . S
C279 C278 1.332 . S
C279 C280 1.267 . S
C280 H248 0.929 . S
C280 C279 1.267 . S
C280 C281 1.251 . S
C281 H251 0.929 . S
C281 N277 1.418 . S
C281 C280 1.251 . S
C282 H249 0.930 . S
C282 C284 1.406 . S
C282 C287 1.261 . S
C283 H250 0.930 . S
C283 N285 1.325 . S
C283 C286 1.357 . S
C284 H252 0.928 . S
C284 C282 1.406 . S
C284 N285 1.261 . S
N285 Co236 2.214 . S
N285 C283 1.325 . S
N285 C284 1.261 . S
C286 H256 0.931 . S
C286 C283 1.357 . S
C286 C287 1.312 . S
C287 H258 0.930 . S
C287 C282 1.261 . S
C287 C286 1.312 . S
C288 O260 1.214 . S
C288 O268 1.234 . S
C289 H261 0.929 . S
C289 C292 1.391 . S
C289 C294 1.391 . S
C290 H262 0.929 . S
C290 C291 1.390 . S
C290 N293 1.391 . S
C291 H263 0.930 . S
C291 C290 1.390 . S
C291 C292 1.392 . S
C292 H264 0.929 . S
C292 C289 1.391 . S
C292 C291 1.392 . S
N293 Co237 2.257 . S
N293 C290 1.391 . S
N293 C294 1.388 . S
C294 H265 0.930 . S
C294 C289 1.391 . S
C294 N293 1.388 . S
Co295 O297 2.143 . S
Co295 O303 2.074 . S
Co295 O306 2.093 . S
Co295 O319 2.097 . S
Co295 N336 2.151 . S
Co295 N344 2.214 1_655 S
Co296 O297 2.160 . S
Co296 O302 2.058 . S
Co296 O312 2.057 . S
Co296 O327 2.037 . S
Co296 N331 2.145 . S
Co296 N352 2.257 . S
O297 Co295 2.143 . S
O297 Co296 2.160 . S
C298 O299 1.278 . S
C298 O306 1.224 . S
O299 C298 1.278 . S
C300 O301 1.245 . S
C300 O312 1.232 . S
O301 C300 1.245 . S
O302 Co296 2.058 . S
O302 C328 1.269 . S
O303 Co295 2.074 . S
O303 C328 1.257 . S
H304 C329 0.930 . S
H305 C335 0.930 . S
O306 Co295 2.093 . S
O306 C298 1.224 . S
H307 C339 0.929 . S
H308 C341 0.930 . S
H309 C342 0.930 1_655 S
H310 C340 0.929 . S
H311 C343 0.928 . S
O312 Co296 2.057 . S
O312 C300 1.232 . S
H313 C332 0.929 . S
H314 C333 0.929 . S
H315 C345 0.931 . S
H316 C337 0.929 . S
H317 C346 0.930 . S
H318 C338 0.931 . S
O319 Co295 2.097 . S
O319 C347 1.214 . S
H320 C348 0.929 . S
H321 C349 0.929 . S
H322 C350 0.930 . S
H323 C351 0.929 . S
H324 C353 0.930 . S
H325 C330 0.930 . S
H326 C334 0.930 . S
O327 Co296 2.037 . S
O327 C347 1.234 . S
C328 O302 1.269 . S
C328 O303 1.257 . S
C329 H304 0.930 . S
C329 C332 1.388 . S
C329 C334 1.418 . S
C330 H325 0.930 . S
C330 C333 1.404 . S
C330 C334 1.353 . S
N331 Co296 2.145 . S
N331 C332 1.397 . S
N331 C333 1.334 . S
C332 H313 0.929 . S
C332 C329 1.388 . S
C332 N331 1.397 . S
C333 H314 0.929 . S
C333 C330 1.404 . S
C333 N331 1.334 . S
C334 H326 0.930 . S
C334 C329 1.418 . S
C334 C330 1.353 . S
C335 H305 0.930 . S
C335 N336 1.330 . S
C335 C337 1.446 1_655 S
N336 Co295 2.151 . S
N336 C335 1.330 . S
N336 C340 1.418 1_655 S
C337 H316 0.929 . S
C337 C335 1.446 1_455 S
C337 C338 1.332 . S
C338 H318 0.931 . S
C338 C337 1.332 . S
C338 C339 1.267 . S
C339 H307 0.929 . S
C339 C338 1.267 . S
C339 C340 1.251 . S
C340 H310 0.929 . S
C340 N336 1.418 1_455 S
C340 C339 1.251 . S
C341 H308 0.930 . S
C341 C343 1.406 . S
C341 C346 1.261 . S
C342 H309 0.930 1_455 S
C342 N344 1.325 . S
C342 C345 1.357 . S
C343 H311 0.928 . S
C343 C341 1.406 . S
C343 N344 1.261 . S
N344 Co295 2.214 1_455 S
N344 C342 1.325 . S
N344 C343 1.261 . S
C345 H315 0.931 . S
C345 C342 1.357 . S
C345 C346 1.312 . S
C346 H317 0.930 . S
C346 C341 1.261 . S
C346 C345 1.312 . S
C347 O319 1.214 . S
C347 O327 1.234 . S
C348 H320 0.929 . S
C348 C351 1.391 . S
C348 C353 1.391 . S
C349 H321 0.929 . S
C349 C350 1.390 . S
C349 N352 1.391 . S
C350 H322 0.930 . S
C350 C349 1.390 . S
C350 C351 1.392 . S
C351 H323 0.929 . S
C351 C348 1.391 . S
C351 C350 1.392 . S
N352 Co296 2.257 . S
N352 C349 1.391 . S
N352 C353 1.388 . S
C353 H324 0.930 . S
C353 C348 1.391 . S
C353 N352 1.388 . S
Co354 O356 2.143 1_556 S
Co354 O362 2.074 . S
Co354 O365 2.093 . S
Co354 O378 2.097 . S
Co354 N395 2.151 1_556 S
Co354 N403 2.214 . S
Co355 O356 2.160 1_456 S
Co355 O361 2.058 1_456 S
Co355 O371 2.057 1_556 S
Co355 O386 2.037 1_455 S
Co355 N390 2.145 . S
Co355 N411 2.257 . S
O356 Co354 2.143 1_554 S
O356 Co355 2.160 1_654 S
C357 O358 1.275 1_556 S
C357 O365 1.224 . S
O358 C357 1.275 1_554 S
C359 O360 1.245 1_455 S
C359 O371 1.232 . S
O360 C359 1.245 1_655 S
O361 Co355 2.058 1_654 S
O361 C387 1.276 . S
O362 Co354 2.074 . S
O362 C387 1.249 1_556 S
H363 C388 0.930 . S
H364 C394 0.930 . S
O365 Co354 2.093 . S
O365 C357 1.224 . S
H366 C398 0.929 . S
H367 C400 0.930 . S
H368 C401 0.930 . S
H369 C399 0.929 . S
H370 C402 0.928 . S
O371 Co355 2.057 1_554 S
O371 C359 1.232 . S
H372 C391 0.929 . S
H373 C392 0.929 . S
H374 C404 0.931 . S
H375 C396 0.929 . S
H376 C405 0.930 . S
H377 C397 0.931 . S
O378 Co354 2.097 . S
O378 C406 1.214 . S
H379 C407 0.929 1_554 S
H380 C408 0.929 . S
H381 C409 0.930 . S
H382 C410 0.929 . S
H383 C412 0.930 . S
H384 C389 0.930 1_554 S
H385 C393 0.930 . S
O386 Co355 2.037 1_655 S
O386 C406 1.234 . S
C387 O361 1.276 . S
C387 O362 1.249 1_554 S
C388 H363 0.930 . S
C388 C391 1.388 . S
C388 C393 1.418 . S
C389 H384 0.930 1_556 S
C389 C392 1.404 1_556 S
C389 C393 1.353 . S
N390 Co355 2.145 . S
N390 C391 1.397 . S
N390 C392 1.334 1_556 S
C391 H372 0.929 . S
C391 C388 1.388 . S
C391 N390 1.397 . S
C392 H373 0.929 . S
C392 C389 1.404 1_554 S
C392 N390 1.334 1_554 S
C393 H385 0.930 . S
C393 C388 1.418 . S
C393 C389 1.353 . S
C394 H364 0.930 . S
C394 N395 1.330 . S
C394 C396 1.446 . S
N395 Co354 2.151 1_554 S
N395 C394 1.330 . S
N395 C399 1.418 . S
C396 H375 0.929 . S
C396 C394 1.446 . S
C396 C397 1.332 . S
C397 H377 0.931 . S
C397 C396 1.332 . S
C397 C398 1.267 . S
C398 H366 0.929 . S
C398 C397 1.267 . S
C398 C399 1.251 . S
C399 H369 0.929 . S
C399 N395 1.418 . S
C399 C398 1.251 . S
C400 H367 0.930 . S
C400 C402 1.406 . S
C400 C405 1.261 . S
C401 H368 0.930 . S
C401 N403 1.325 . S
C401 C404 1.357 . S
C402 H370 0.928 . S
C402 C400 1.406 . S
C402 N403 1.261 . S
N403 Co354 2.214 . S
N403 C401 1.325 . S
N403 C402 1.261 . S
C404 H374 0.931 . S
C404 C401 1.357 . S
C404 C405 1.312 . S
C405 H376 0.930 . S
C405 C400 1.261 . S
C405 C404 1.312 . S
C406 O378 1.214 . S
C406 O386 1.234 . S
C407 H379 0.929 1_556 S
C407 C410 1.391 . S
C407 C412 1.391 1_556 S
C408 H380 0.929 . S
C408 C409 1.390 . S
C408 N411 1.391 . S
C409 H381 0.930 . S
C409 C408 1.390 . S
C409 C410 1.392 . S
C410 H382 0.929 . S
C410 C407 1.391 . S
C410 C409 1.392 . S
N411 Co355 2.257 . S
N411 C408 1.391 . S
N411 C412 1.388 1_556 S
C412 H383 0.930 . S
C412 C407 1.391 1_554 S
C412 N411 1.388 1_554 S
Co413 O415 2.143 1_556 S
Co413 O421 2.074 . S
Co413 O424 2.093 . S
Co413 O437 2.097 . S
Co413 N454 2.151 1_556 S
Co413 N462 2.214 1_655 S
Co414 O415 2.160 1_556 S
Co414 O420 2.058 1_556 S
Co414 O430 2.057 1_556 S
Co414 O445 2.037 . S
Co414 N449 2.145 . S
Co414 N470 2.257 . S
O415 Co413 2.143 1_554 S
O415 Co414 2.160 1_554 S
C416 O417 1.275 1_556 S
C416 O424 1.224 . S
O417 C416 1.275 1_554 S
C418 O419 1.245 . S
C418 O430 1.232 . S
O419 C418 1.245 . S
O420 Co414 2.058 1_554 S
O420 C446 1.276 . S
O421 Co413 2.074 . S
O421 C446 1.249 1_556 S
H422 C447 0.930 . S
H423 C453 0.930 . S
O424 Co413 2.093 . S
O424 C416 1.224 . S
H425 C457 0.929 . S
H426 C459 0.930 . S
H427 C460 0.930 1_655 S
H428 C458 0.929 . S
H429 C461 0.928 . S
O430 Co414 2.057 1_554 S
O430 C418 1.232 . S
H431 C450 0.929 . S
H432 C451 0.929 . S
H433 C463 0.931 . S
H434 C455 0.929 . S
H435 C464 0.930 . S
H436 C456 0.931 . S
O437 Co413 2.097 . S
O437 C465 1.214 . S
H438 C466 0.929 1_554 S
H439 C467 0.929 . S
H440 C468 0.930 . S
H441 C469 0.929 . S
H442 C471 0.930 . S
H443 C448 0.930 1_554 S
H444 C452 0.930 . S
O445 Co414 2.037 . S
O445 C465 1.234 . S
C446 O420 1.276 . S
C446 O421 1.249 1_554 S
C447 H422 0.930 . S
C447 C450 1.388 . S
C447 C452 1.418 . S
C448 H443 0.930 1_556 S
C448 C451 1.404 1_556 S
C448 C452 1.353 . S
N449 Co414 2.145 . S
N449 C450 1.397 . S
N449 C451 1.334 1_556 S
C450 H431 0.929 . S
C450 C447 1.388 . S
C450 N449 1.397 . S
C451 H432 0.929 . S
C451 C448 1.404 1_554 S
C451 N449 1.334 1_554 S
C452 H444 0.930 . S
C452 C447 1.418 . S
C452 C448 1.353 . S
C453 H423 0.930 . S
C453 N454 1.330 . S
C453 C455 1.446 1_655 S
N454 Co413 2.151 1_554 S
N454 C453 1.330 . S
N454 C458 1.418 1_655 S
C455 H434 0.929 . S
C455 C453 1.446 1_455 S
C455 C456 1.332 . S
C456 H436 0.931 . S
C456 C455 1.332 . S
C456 C457 1.267 . S
C457 H425 0.929 . S
C457 C456 1.267 . S
C457 C458 1.251 . S
C458 H428 0.929 . S
C458 N454 1.418 1_455 S
C458 C457 1.251 . S
C459 H426 0.930 . S
C459 C461 1.406 . S
C459 C464 1.261 . S
C460 H427 0.930 1_455 S
C460 N462 1.325 . S
C460 C463 1.357 . S
C461 H429 0.928 . S
C461 C459 1.406 . S
C461 N462 1.261 . S
N462 Co413 2.214 1_455 S
N462 C460 1.325 . S
N462 C461 1.261 . S
C463 H433 0.931 . S
C463 C460 1.357 . S
C463 C464 1.312 . S
C464 H435 0.930 . S
C464 C459 1.261 . S
C464 C463 1.312 . S
C465 O437 1.214 . S
C465 O445 1.234 . S
C466 H438 0.929 1_556 S
C466 C469 1.391 . S
C466 C471 1.391 1_556 S
C467 H439 0.929 . S
C467 C468 1.390 . S
C467 N470 1.391 . S
C468 H440 0.930 . S
C468 C467 1.390 . S
C468 C469 1.392 . S
C469 H441 0.929 . S
C469 C466 1.391 . S
C469 C468 1.392 . S
N470 Co414 2.257 . S
N470 C467 1.391 . S
N470 C471 1.388 1_556 S
C471 H442 0.930 . S
C471 C466 1.391 1_554 S
C471 N470 1.388 1_554 S
Co472 O474 2.143 . S
Co472 O480 2.074 . S
Co472 O483 2.093 . S
Co472 O496 2.097 . S
Co472 N513 2.151 . S
Co472 N521 2.214 . S
Co473 O474 2.160 1_655 S
Co473 O479 2.058 1_655 S
Co473 O489 2.057 . S
Co473 O504 2.037 1_655 S
Co473 N508 2.145 . S
Co473 N529 2.257 . S
O474 Co472 2.143 . S
O474 Co473 2.160 1_455 S
C475 O476 1.278 . S
C475 O483 1.224 . S
O476 C475 1.278 . S
C477 O478 1.245 1_655 S
C477 O489 1.232 . S
O478 C477 1.245 1_455 S
O479 Co473 2.058 1_455 S
O479 C505 1.269 . S
O480 Co472 2.074 . S
O480 C505 1.257 . S
H481 C506 0.930 . S
H482 C512 0.930 . S
O483 Co472 2.093 . S
O483 C475 1.224 . S
H484 C516 0.929 . S
H485 C518 0.930 . S
H486 C519 0.930 . S
H487 C517 0.929 . S
H488 C520 0.928 . S
O489 Co473 2.057 . S
O489 C477 1.232 . S
H490 C509 0.929 . S
H491 C510 0.929 . S
H492 C522 0.931 . S
H493 C514 0.929 . S
H494 C523 0.930 . S
H495 C515 0.931 . S
O496 Co472 2.097 . S
O496 C524 1.214 . S
H497 C525 0.929 . S
H498 C526 0.929 . S
H499 C527 0.930 . S
H500 C528 0.929 . S
H501 C530 0.930 . S
H502 C507 0.930 . S
H503 C511 0.930 . S
O504 Co473 2.037 1_455 S
O504 C524 1.234 . S
C505 O479 1.269 . S
C505 O480 1.257 . S
C506 H481 0.930 . S
C506 C509 1.388 . S
C506 C511 1.418 . S
C507 H502 0.930 . S
C507 C510 1.404 . S
C507 C511 1.353 . S
N508 Co473 2.145 . S
N508 C509 1.397 . S
N508 C510 1.334 . S
C509 H490 0.929 . S
C509 C506 1.388 . S
C509 N508 1.397 . S
C510 H491 0.929 . S
C510 C507 1.404 . S
C510 N508 1.334 . S
C511 H503 0.930 . S
C511 C506 1.418 . S
C511 C507 1.353 . S
C512 H482 0.930 . S
C512 N513 1.330 . S
C512 C514 1.446 . S
N513 Co472 2.151 . S
N513 C512 1.330 . S
N513 C517 1.418 . S
C514 H493 0.929 . S
C514 C512 1.446 . S
C514 C515 1.332 . S
C515 H495 0.931 . S
C515 C514 1.332 . S
C515 C516 1.267 . S
C516 H484 0.929 . S
C516 C515 1.267 . S
C516 C517 1.251 . S
C517 H487 0.929 . S
C517 N513 1.418 . S
C517 C516 1.251 . S
C518 H485 0.930 . S
C518 C520 1.406 . S
C518 C523 1.261 . S
C519 H486 0.930 . S
C519 N521 1.325 . S
C519 C522 1.357 . S
C520 H488 0.928 . S
C520 C518 1.406 . S
C520 N521 1.261 . S
N521 Co472 2.214 . S
N521 C519 1.325 . S
N521 C520 1.261 . S
C522 H492 0.931 . S
C522 C519 1.357 . S
C522 C523 1.312 . S
C523 H494 0.930 . S
C523 C518 1.261 . S
C523 C522 1.312 . S
C524 O496 1.214 . S
C524 O504 1.234 . S
C525 H497 0.929 . S
C525 C528 1.391 . S
C525 C530 1.391 . S
C526 H498 0.929 . S
C526 C527 1.390 . S
C526 N529 1.391 . S
C527 H499 0.930 . S
C527 C526 1.390 . S
C527 C528 1.392 . S
C528 H500 0.929 . S
C528 C525 1.391 . S
C528 C527 1.392 . S
N529 Co473 2.257 . S
N529 C526 1.391 . S
N529 C530 1.388 . S
C530 H501 0.930 . S
C530 C525 1.391 . S
C530 N529 1.388 . S
Co531 O533 2.143 . S
Co531 O539 2.074 . S
Co531 O542 2.093 . S
Co531 O555 2.097 . S
Co531 N572 2.151 . S
Co531 N580 2.214 1_455 S
Co532 O533 2.160 . S
Co532 O538 2.058 . S
Co532 O548 2.057 . S
Co532 O563 2.037 . S
Co532 N567 2.145 . S
Co532 N588 2.257 . S
O533 Co531 2.143 . S
O533 Co532 2.160 . S
C534 O535 1.278 . S
C534 O542 1.224 . S
O535 C534 1.278 . S
C536 O537 1.245 . S
C536 O548 1.232 . S
O537 C536 1.245 . S
O538 Co532 2.058 . S
O538 C564 1.269 . S
O539 Co531 2.074 . S
O539 C564 1.257 . S
H540 C565 0.930 . S
H541 C571 0.930 . S
O542 Co531 2.093 . S
O542 C534 1.224 . S
H543 C575 0.929 . S
H544 C577 0.930 . S
H545 C578 0.930 1_455 S
H546 C576 0.929 . S
H547 C579 0.928 . S
O548 Co532 2.057 . S
O548 C536 1.232 . S
H549 C568 0.929 . S
H550 C569 0.929 . S
H551 C581 0.931 . S
H552 C573 0.929 . S
H553 C582 0.930 . S
H554 C574 0.931 . S
O555 Co531 2.097 . S
O555 C583 1.214 . S
H556 C584 0.929 . S
H557 C585 0.929 . S
H558 C586 0.930 . S
H559 C587 0.929 . S
H560 C589 0.930 . S
H561 C566 0.930 . S
H562 C570 0.930 . S
O563 Co532 2.037 . S
O563 C583 1.234 . S
C564 O538 1.269 . S
C564 O539 1.257 . S
C565 H540 0.930 . S
C565 C568 1.388 . S
C565 C570 1.418 . S
C566 H561 0.930 . S
C566 C569 1.404 . S
C566 C570 1.353 . S
N567 Co532 2.145 . S
N567 C568 1.397 . S
N567 C569 1.334 . S
C568 H549 0.929 . S
C568 C565 1.388 . S
C568 N567 1.397 . S
C569 H550 0.929 . S
C569 C566 1.404 . S
C569 N567 1.334 . S
C570 H562 0.930 . S
C570 C565 1.418 . S
C570 C566 1.353 . S
C571 H541 0.930 . S
C571 N572 1.330 . S
C571 C573 1.446 1_455 S
N572 Co531 2.151 . S
N572 C571 1.330 . S
N572 C576 1.418 1_455 S
C573 H552 0.929 . S
C573 C571 1.446 1_655 S
C573 C574 1.332 . S
C574 H554 0.931 . S
C574 C573 1.332 . S
C574 C575 1.267 . S
C575 H543 0.929 . S
C575 C574 1.267 . S
C575 C576 1.251 . S
C576 H546 0.929 . S
C576 N572 1.418 1_655 S
C576 C575 1.251 . S
C577 H544 0.930 . S
C577 C579 1.406 . S
C577 C582 1.261 . S
C578 H545 0.930 1_655 S
C578 N580 1.325 . S
C578 C581 1.357 . S
C579 H547 0.928 . S
C579 C577 1.406 . S
C579 N580 1.261 . S
N580 Co531 2.214 1_655 S
N580 C578 1.325 . S
N580 C579 1.261 . S
C581 H551 0.931 . S
C581 C578 1.357 . S
C581 C582 1.312 . S
C582 H553 0.930 . S
C582 C577 1.261 . S
C582 C581 1.312 . S
C583 O555 1.214 . S
C583 O563 1.234 . S
C584 H556 0.929 . S
C584 C587 1.391 . S
C584 C589 1.391 . S
C585 H557 0.929 . S
C585 C586 1.390 . S
C585 N588 1.391 . S
C586 H558 0.930 . S
C586 C585 1.390 . S
C586 C587 1.392 . S
C587 H559 0.929 . S
C587 C584 1.391 . S
C587 C586 1.392 . S
N588 Co532 2.257 . S
N588 C585 1.391 . S
N588 C589 1.388 . S
C589 H560 0.930 . S
C589 C584 1.391 . S
C589 N588 1.388 . S
Co590 O592 2.143 . S
Co590 O598 2.074 . S
Co590 O601 2.093 . S
Co590 O614 2.097 . S
Co590 N631 2.151 . S
Co590 N639 2.214 . S
Co591 O592 2.160 1_655 S
Co591 O597 2.058 1_655 S
Co591 O607 2.057 . S
Co591 O622 2.037 1_655 S
Co591 N626 2.145 . S
Co591 N647 2.257 . S
O592 Co590 2.143 . S
O592 Co591 2.160 1_455 S
C593 O594 1.278 . S
C593 O601 1.224 . S
O594 C593 1.278 . S
C595 O596 1.245 1_655 S
C595 O607 1.232 . S
O596 C595 1.245 1_455 S
O597 Co591 2.058 1_455 S
O597 C623 1.269 . S
O598 Co590 2.074 . S
O598 C623 1.257 . S
H599 C624 0.930 . S
H600 C630 0.930 . S
O601 Co590 2.093 . S
O601 C593 1.224 . S
H602 C634 0.929 . S
H603 C636 0.930 . S
H604 C637 0.930 . S
H605 C635 0.929 . S
H606 C638 0.928 . S
O607 Co591 2.057 . S
O607 C595 1.232 . S
H608 C627 0.929 . S
H609 C628 0.929 . S
H610 C640 0.931 . S
H611 C632 0.929 . S
H612 C641 0.930 . S
H613 C633 0.931 . S
O614 Co590 2.097 . S
O614 C642 1.214 . S
H615 C643 0.929 . S
H616 C644 0.929 . S
H617 C645 0.930 . S
H618 C646 0.929 . S
H619 C648 0.930 . S
H620 C625 0.930 . S
H621 C629 0.930 . S
O622 Co591 2.037 1_455 S
O622 C642 1.234 . S
C623 O597 1.269 . S
C623 O598 1.257 . S
C624 H599 0.930 . S
C624 C627 1.388 . S
C624 C629 1.418 . S
C625 H620 0.930 . S
C625 C628 1.404 . S
C625 C629 1.353 . S
N626 Co591 2.145 . S
N626 C627 1.397 . S
N626 C628 1.334 . S
C627 H608 0.929 . S
C627 C624 1.388 . S
C627 N626 1.397 . S
C628 H609 0.929 . S
C628 C625 1.404 . S
C628 N626 1.334 . S
C629 H621 0.930 . S
C629 C624 1.418 . S
C629 C625 1.353 . S
C630 H600 0.930 . S
C630 N631 1.330 . S
C630 C632 1.446 . S
N631 Co590 2.151 . S
N631 C630 1.330 . S
N631 C635 1.418 . S
C632 H611 0.929 . S
C632 C630 1.446 . S
C632 C633 1.332 . S
C633 H613 0.931 . S
C633 C632 1.332 . S
C633 C634 1.267 . S
C634 H602 0.929 . S
C634 C633 1.267 . S
C634 C635 1.251 . S
C635 H605 0.929 . S
C635 N631 1.418 . S
C635 C634 1.251 . S
C636 H603 0.930 . S
C636 C638 1.406 . S
C636 C641 1.261 . S
C637 H604 0.930 . S
C637 N639 1.325 . S
C637 C640 1.357 . S
C638 H606 0.928 . S
C638 C636 1.406 . S
C638 N639 1.261 . S
N639 Co590 2.214 . S
N639 C637 1.325 . S
N639 C638 1.261 . S
C640 H610 0.931 . S
C640 C637 1.357 . S
C640 C641 1.312 . S
C641 H612 0.930 . S
C641 C636 1.261 . S
C641 C640 1.312 . S
C642 O614 1.214 . S
C642 O622 1.234 . S
C643 H615 0.929 . S
C643 C646 1.391 . S
C643 C648 1.391 . S
C644 H616 0.929 . S
C644 C645 1.390 . S
C644 N647 1.391 . S
C645 H617 0.930 . S
C645 C644 1.390 . S
C645 C646 1.392 . S
C646 H618 0.929 . S
C646 C643 1.391 . S
C646 C645 1.392 . S
N647 Co591 2.257 . S
N647 C644 1.391 . S
N647 C648 1.388 . S
C648 H619 0.930 . S
C648 C643 1.391 . S
C648 N647 1.388 . S
Co649 O651 2.143 . S
Co649 O657 2.074 . S
Co649 O660 2.093 . S
Co649 O673 2.097 . S
Co649 N690 2.151 . S
Co649 N698 2.214 1_455 S
Co650 O651 2.160 . S
Co650 O656 2.058 . S
Co650 O666 2.057 . S
Co650 O681 2.037 . S
Co650 N685 2.145 . S
Co650 N706 2.257 . S
O651 Co649 2.143 . S
O651 Co650 2.160 . S
C652 O653 1.278 . S
C652 O660 1.224 . S
O653 C652 1.278 . S
C654 O655 1.245 . S
C654 O666 1.232 . S
O655 C654 1.245 . S
O656 Co650 2.058 . S
O656 C682 1.269 . S
O657 Co649 2.074 . S
O657 C682 1.257 . S
H658 C683 0.930 . S
H659 C689 0.930 . S
O660 Co649 2.093 . S
O660 C652 1.224 . S
H661 C693 0.929 . S
H662 C695 0.930 . S
H663 C696 0.930 1_455 S
H664 C694 0.929 . S
H665 C697 0.928 . S
O666 Co650 2.057 . S
O666 C654 1.232 . S
H667 C686 0.929 . S
H668 C687 0.929 . S
H669 C699 0.931 . S
H670 C691 0.929 . S
H671 C700 0.930 . S
H672 C692 0.931 . S
O673 Co649 2.097 . S
O673 C701 1.214 . S
H674 C702 0.929 . S
H675 C703 0.929 . S
H676 C704 0.930 . S
H677 C705 0.929 . S
H678 C707 0.930 . S
H679 C684 0.930 . S
H680 C688 0.930 . S
O681 Co650 2.037 . S
O681 C701 1.234 . S
C682 O656 1.269 . S
C682 O657 1.257 . S
C683 H658 0.930 . S
C683 C686 1.388 . S
C683 C688 1.418 . S
C684 H679 0.930 . S
C684 C687 1.404 . S
C684 C688 1.353 . S
N685 Co650 2.145 . S
N685 C686 1.397 . S
N685 C687 1.334 . S
C686 H667 0.929 . S
C686 C683 1.388 . S
C686 N685 1.397 . S
C687 H668 0.929 . S
C687 C684 1.404 . S
C687 N685 1.334 . S
C688 H680 0.930 . S
C688 C683 1.418 . S
C688 C684 1.353 . S
C689 H659 0.930 . S
C689 N690 1.330 . S
C689 C691 1.446 1_455 S
N690 Co649 2.151 . S
N690 C689 1.330 . S
N690 C694 1.418 1_455 S
C691 H670 0.929 . S
C691 C689 1.446 1_655 S
C691 C692 1.332 . S
C692 H672 0.931 . S
C692 C691 1.332 . S
C692 C693 1.267 . S
C693 H661 0.929 . S
C693 C692 1.267 . S
C693 C694 1.251 . S
C694 H664 0.929 . S
C694 N690 1.418 1_655 S
C694 C693 1.251 . S
C695 H662 0.930 . S
C695 C697 1.406 . S
C695 C700 1.261 . S
C696 H663 0.930 1_655 S
C696 N698 1.325 . S
C696 C699 1.357 . S
C697 H665 0.928 . S
C697 C695 1.406 . S
C697 N698 1.261 . S
N698 Co649 2.214 1_655 S
N698 C696 1.325 . S
N698 C697 1.261 . S
C699 H669 0.931 . S
C699 C696 1.357 . S
C699 C700 1.312 . S
C700 H671 0.930 . S
C700 C695 1.261 . S
C700 C699 1.312 . S
C701 O673 1.214 . S
C701 O681 1.234 . S
C702 H674 0.929 . S
C702 C705 1.391 . S
C702 C707 1.391 . S
C703 H675 0.929 . S
C703 C704 1.390 . S
C703 N706 1.391 . S
C704 H676 0.930 . S
C704 C703 1.390 . S
C704 C705 1.392 . S
C705 H677 0.929 . S
C705 C702 1.391 . S
C705 C704 1.392 . S
N706 Co650 2.257 . S
N706 C703 1.391 . S
N706 C707 1.388 . S
C707 H678 0.930 . S
C707 C702 1.391 . S
C707 N706 1.388 . S
Co708 O710 2.143 . S
Co708 O716 2.074 . S
Co708 O719 2.093 . S
Co708 O732 2.097 . S
Co708 N749 2.151 . S
Co708 N757 2.214 . S
Co709 O710 2.160 1_455 S
Co709 O715 2.058 1_455 S
Co709 O725 2.057 . S
Co709 O740 2.037 1_455 S
Co709 N744 2.145 . S
Co709 N765 2.257 . S
O710 Co708 2.143 . S
O710 Co709 2.160 1_655 S
C711 O712 1.278 . S
C711 O719 1.224 . S
O712 C711 1.278 . S
C713 O714 1.245 1_455 S
C713 O725 1.232 . S
O714 C713 1.245 1_655 S
O715 Co709 2.058 1_655 S
O715 C741 1.269 . S
O716 Co708 2.074 . S
O716 C741 1.257 . S
H717 C742 0.930 . S
H718 C748 0.930 . S
O719 Co708 2.093 . S
O719 C711 1.224 . S
H720 C752 0.929 . S
H721 C754 0.930 . S
H722 C755 0.930 . S
H723 C753 0.929 . S
H724 C756 0.928 . S
O725 Co709 2.057 . S
O725 C713 1.232 . S
H726 C745 0.929 . S
H727 C746 0.929 . S
H728 C758 0.931 . S
H729 C750 0.929 . S
H730 C759 0.930 . S
H731 C751 0.931 . S
O732 Co708 2.097 . S
O732 C760 1.214 . S
H733 C761 0.929 . S
H734 C762 0.929 . S
H735 C763 0.930 . S
H736 C764 0.929 . S
H737 C766 0.930 . S
H738 C743 0.930 . S
H739 C747 0.930 . S
O740 Co709 2.037 1_655 S
O740 C760 1.234 . S
C741 O715 1.269 . S
C741 O716 1.257 . S
C742 H717 0.930 . S
C742 C745 1.388 . S
C742 C747 1.418 . S
C743 H738 0.930 . S
C743 C746 1.404 . S
C743 C747 1.353 . S
N744 Co709 2.145 . S
N744 C745 1.397 . S
N744 C746 1.334 . S
C745 H726 0.929 . S
C745 C742 1.388 . S
C745 N744 1.397 . S
C746 H727 0.929 . S
C746 C743 1.404 . S
C746 N744 1.334 . S
C747 H739 0.930 . S
C747 C742 1.418 . S
C747 C743 1.353 . S
C748 H718 0.930 . S
C748 N749 1.330 . S
C748 C750 1.446 . S
N749 Co708 2.151 . S
N749 C748 1.330 . S
N749 C753 1.418 . S
C750 H729 0.929 . S
C750 C748 1.446 . S
C750 C751 1.332 . S
C751 H731 0.931 . S
C751 C750 1.332 . S
C751 C752 1.267 . S
C752 H720 0.929 . S
C752 C751 1.267 . S
C752 C753 1.251 . S
C753 H723 0.929 . S
C753 N749 1.418 . S
C753 C752 1.251 . S
C754 H721 0.930 . S
C754 C756 1.406 . S
C754 C759 1.261 . S
C755 H722 0.930 . S
C755 N757 1.325 . S
C755 C758 1.357 . S
C756 H724 0.928 . S
C756 C754 1.406 . S
C756 N757 1.261 . S
N757 Co708 2.214 . S
N757 C755 1.325 . S
N757 C756 1.261 . S
C758 H728 0.931 . S
C758 C755 1.357 . S
C758 C759 1.312 . S
C759 H730 0.930 . S
C759 C754 1.261 . S
C759 C758 1.312 . S
C760 O732 1.214 . S
C760 O740 1.234 . S
C761 H733 0.929 . S
C761 C764 1.391 . S
C761 C766 1.391 . S
C762 H734 0.929 . S
C762 C763 1.390 . S
C762 N765 1.391 . S
C763 H735 0.930 . S
C763 C762 1.390 . S
C763 C764 1.392 . S
C764 H736 0.929 . S
C764 C761 1.391 . S
C764 C763 1.392 . S
N765 Co709 2.257 . S
N765 C762 1.391 . S
N765 C766 1.388 . S
C766 H737 0.930 . S
C766 C761 1.391 . S
C766 N765 1.388 . S
Co767 O769 2.143 . S
Co767 O775 2.074 . S
Co767 O778 2.093 . S
Co767 O791 2.097 . S
Co767 N808 2.151 . S
Co767 N816 2.214 1_655 S
Co768 O769 2.160 . S
Co768 O774 2.058 . S
Co768 O784 2.057 . S
Co768 O799 2.037 . S
Co768 N803 2.145 . S
Co768 N824 2.257 . S
O769 Co767 2.143 . S
O769 Co768 2.160 . S
C770 O771 1.278 . S
C770 O778 1.224 . S
O771 C770 1.278 . S
C772 O773 1.245 . S
C772 O784 1.232 . S
O773 C772 1.245 . S
O774 Co768 2.058 . S
O774 C800 1.269 . S
O775 Co767 2.074 . S
O775 C800 1.257 . S
H776 C801 0.930 . S
H777 C807 0.930 . S
O778 Co767 2.093 . S
O778 C770 1.224 . S
H779 C811 0.929 . S
H780 C813 0.930 . S
H781 C814 0.930 1_655 S
H782 C812 0.929 . S
H783 C815 0.928 . S
O784 Co768 2.057 . S
O784 C772 1.232 . S
H785 C804 0.929 . S
H786 C805 0.929 . S
H787 C817 0.931 . S
H788 C809 0.929 . S
H789 C818 0.930 . S
H790 C810 0.931 . S
O791 Co767 2.097 . S
O791 C819 1.214 . S
H792 C820 0.929 . S
H793 C821 0.929 . S
H794 C822 0.930 . S
H795 C823 0.929 . S
H796 C825 0.930 . S
H797 C802 0.930 . S
H798 C806 0.930 . S
O799 Co768 2.037 . S
O799 C819 1.234 . S
C800 O774 1.269 . S
C800 O775 1.257 . S
C801 H776 0.930 . S
C801 C804 1.388 . S
C801 C806 1.418 . S
C802 H797 0.930 . S
C802 C805 1.404 . S
C802 C806 1.353 . S
N803 Co768 2.145 . S
N803 C804 1.397 . S
N803 C805 1.334 . S
C804 H785 0.929 . S
C804 C801 1.388 . S
C804 N803 1.397 . S
C805 H786 0.929 . S
C805 C802 1.404 . S
C805 N803 1.334 . S
C806 H798 0.930 . S
C806 C801 1.418 . S
C806 C802 1.353 . S
C807 H777 0.930 . S
C807 N808 1.330 . S
C807 C809 1.446 1_655 S
N808 Co767 2.151 . S
N808 C807 1.330 . S
N808 C812 1.418 1_655 S
C809 H788 0.929 . S
C809 C807 1.446 1_455 S
C809 C810 1.332 . S
C810 H790 0.931 . S
C810 C809 1.332 . S
C810 C811 1.267 . S
C811 H779 0.929 . S
C811 C810 1.267 . S
C811 C812 1.251 . S
C812 H782 0.929 . S
C812 N808 1.418 1_455 S
C812 C811 1.251 . S
C813 H780 0.930 . S
C813 C815 1.406 . S
C813 C818 1.261 . S
C814 H781 0.930 1_455 S
C814 N816 1.325 . S
C814 C817 1.357 . S
C815 H783 0.928 . S
C815 C813 1.406 . S
C815 N816 1.261 . S
N816 Co767 2.214 1_455 S
N816 C814 1.325 . S
N816 C815 1.261 . S
C817 H787 0.931 . S
C817 C814 1.357 . S
C817 C818 1.312 . S
C818 H789 0.930 . S
C818 C813 1.261 . S
C818 C817 1.312 . S
C819 O791 1.214 . S
C819 O799 1.234 . S
C820 H792 0.929 . S
C820 C823 1.391 . S
C820 C825 1.391 . S
C821 H793 0.929 . S
C821 C822 1.390 . S
C821 N824 1.391 . S
C822 H794 0.930 . S
C822 C821 1.390 . S
C822 C823 1.392 . S
C823 H795 0.929 . S
C823 C820 1.391 . S
C823 C822 1.392 . S
N824 Co768 2.257 . S
N824 C821 1.391 . S
N824 C825 1.388 . S
C825 H796 0.930 . S
C825 C820 1.391 . S
C825 N824 1.388 . S
Co826 O828 2.143 . S
Co826 O834 2.074 . S
Co826 O837 2.093 . S
Co826 O850 2.097 . S
Co826 N867 2.151 . S
Co826 N875 2.214 . S
Co827 O828 2.160 1_455 S
Co827 O833 2.058 1_455 S
Co827 O843 2.057 . S
Co827 O858 2.037 1_455 S
Co827 N862 2.145 . S
Co827 N883 2.257 . S
O828 Co826 2.143 . S
O828 Co827 2.160 1_655 S
C829 O830 1.278 . S
C829 O837 1.224 . S
O830 C829 1.278 . S
C831 O832 1.245 1_455 S
C831 O843 1.232 . S
O832 C831 1.245 1_655 S
O833 Co827 2.058 1_655 S
O833 C859 1.269 . S
O834 Co826 2.074 . S
O834 C859 1.257 . S
H835 C860 0.930 . S
H836 C866 0.930 . S
O837 Co826 2.093 . S
O837 C829 1.224 . S
H838 C870 0.929 . S
H839 C872 0.930 . S
H840 C873 0.930 . S
H841 C871 0.929 . S
H842 C874 0.928 . S
O843 Co827 2.057 . S
O843 C831 1.232 . S
H844 C863 0.929 . S
H845 C864 0.929 . S
H846 C876 0.931 . S
H847 C868 0.929 . S
H848 C877 0.930 . S
H849 C869 0.931 . S
O850 Co826 2.097 . S
O850 C878 1.214 . S
H851 C879 0.929 . S
H852 C880 0.929 . S
H853 C881 0.930 . S
H854 C882 0.929 . S
H855 C884 0.930 . S
H856 C861 0.930 . S
H857 C865 0.930 . S
O858 Co827 2.037 1_655 S
O858 C878 1.234 . S
C859 O833 1.269 . S
C859 O834 1.257 . S
C860 H835 0.930 . S
C860 C863 1.388 . S
C860 C865 1.418 . S
C861 H856 0.930 . S
C861 C864 1.404 . S
C861 C865 1.353 . S
N862 Co827 2.145 . S
N862 C863 1.397 . S
N862 C864 1.334 . S
C863 H844 0.929 . S
C863 C860 1.388 . S
C863 N862 1.397 . S
C864 H845 0.929 . S
C864 C861 1.404 . S
C864 N862 1.334 . S
C865 H857 0.930 . S
C865 C860 1.418 . S
C865 C861 1.353 . S
C866 H836 0.930 . S
C866 N867 1.330 . S
C866 C868 1.446 . S
N867 Co826 2.151 . S
N867 C866 1.330 . S
N867 C871 1.418 . S
C868 H847 0.929 . S
C868 C866 1.446 . S
C868 C869 1.332 . S
C869 H849 0.931 . S
C869 C868 1.332 . S
C869 C870 1.267 . S
C870 H838 0.929 . S
C870 C869 1.267 . S
C870 C871 1.251 . S
C871 H841 0.929 . S
C871 N867 1.418 . S
C871 C870 1.251 . S
C872 H839 0.930 . S
C872 C874 1.406 . S
C872 C877 1.261 . S
C873 H840 0.930 . S
C873 N875 1.325 . S
C873 C876 1.357 . S
C874 H842 0.928 . S
C874 C872 1.406 . S
C874 N875 1.261 . S
N875 Co826 2.214 . S
N875 C873 1.325 . S
N875 C874 1.261 . S
C876 H846 0.931 . S
C876 C873 1.357 . S
C876 C877 1.312 . S
C877 H848 0.930 . S
C877 C872 1.261 . S
C877 C876 1.312 . S
C878 O850 1.214 . S
C878 O858 1.234 . S
C879 H851 0.929 . S
C879 C882 1.391 . S
C879 C884 1.391 . S
C880 H852 0.929 . S
C880 C881 1.390 . S
C880 N883 1.391 . S
C881 H853 0.930 . S
C881 C880 1.390 . S
C881 C882 1.392 . S
C882 H854 0.929 . S
C882 C879 1.391 . S
C882 C881 1.392 . S
N883 Co827 2.257 . S
N883 C880 1.391 . S
N883 C884 1.388 . S
C884 H855 0.930 . S
C884 C879 1.391 . S
C884 N883 1.388 . S
Co885 O887 2.143 . S
Co885 O893 2.074 . S
Co885 O896 2.093 . S
Co885 O909 2.097 . S
Co885 N926 2.151 . S
Co885 N934 2.214 1_655 S
Co886 O887 2.160 . S
Co886 O892 2.058 . S
Co886 O902 2.057 . S
Co886 O917 2.037 . S
Co886 N921 2.145 . S
Co886 N942 2.257 . S
O887 Co885 2.143 . S
O887 Co886 2.160 . S
C888 O889 1.278 . S
C888 O896 1.224 . S
O889 C888 1.278 . S
C890 O891 1.245 . S
C890 O902 1.232 . S
O891 C890 1.245 . S
O892 Co886 2.058 . S
O892 C918 1.269 . S
O893 Co885 2.074 . S
O893 C918 1.257 . S
H894 C919 0.930 . S
H895 C925 0.930 . S
O896 Co885 2.093 . S
O896 C888 1.224 . S
H897 C929 0.929 . S
H898 C931 0.930 . S
H899 C932 0.930 1_655 S
H900 C930 0.929 . S
H901 C933 0.928 . S
O902 Co886 2.057 . S
O902 C890 1.232 . S
H903 C922 0.929 . S
H904 C923 0.929 . S
H905 C935 0.931 . S
H906 C927 0.929 . S
H907 C936 0.930 . S
H908 C928 0.931 . S
O909 Co885 2.097 . S
O909 C937 1.214 . S
H910 C938 0.929 . S
H911 C939 0.929 . S
H912 C940 0.930 . S
H913 C941 0.929 . S
H914 C943 0.930 . S
H915 C920 0.930 . S
H916 C924 0.930 . S
O917 Co886 2.037 . S
O917 C937 1.234 . S
C918 O892 1.269 . S
C918 O893 1.257 . S
C919 H894 0.930 . S
C919 C922 1.388 . S
C919 C924 1.418 . S
C920 H915 0.930 . S
C920 C923 1.404 . S
C920 C924 1.353 . S
N921 Co886 2.145 . S
N921 C922 1.397 . S
N921 C923 1.334 . S
C922 H903 0.929 . S
C922 C919 1.388 . S
C922 N921 1.397 . S
C923 H904 0.929 . S
C923 C920 1.404 . S
C923 N921 1.334 . S
C924 H916 0.930 . S
C924 C919 1.418 . S
C924 C920 1.353 . S
C925 H895 0.930 . S
C925 N926 1.330 . S
C925 C927 1.446 1_655 S
N926 Co885 2.151 . S
N926 C925 1.330 . S
N926 C930 1.418 1_655 S
C927 H906 0.929 . S
C927 C925 1.446 1_455 S
C927 C928 1.332 . S
C928 H908 0.931 . S
C928 C927 1.332 . S
C928 C929 1.267 . S
C929 H897 0.929 . S
C929 C928 1.267 . S
C929 C930 1.251 . S
C930 H900 0.929 . S
C930 N926 1.418 1_455 S
C930 C929 1.251 . S
C931 H898 0.930 . S
C931 C933 1.406 . S
C931 C936 1.261 . S
C932 H899 0.930 1_455 S
C932 N934 1.325 . S
C932 C935 1.357 . S
C933 H901 0.928 . S
C933 C931 1.406 . S
C933 N934 1.261 . S
N934 Co885 2.214 1_455 S
N934 C932 1.325 . S
N934 C933 1.261 . S
C935 H905 0.931 . S
C935 C932 1.357 . S
C935 C936 1.312 . S
C936 H907 0.930 . S
C936 C931 1.261 . S
C936 C935 1.312 . S
C937 O909 1.214 . S
C937 O917 1.234 . S
C938 H910 0.929 . S
C938 C941 1.391 . S
C938 C943 1.391 . S
C939 H911 0.929 . S
C939 C940 1.390 . S
C939 N942 1.391 . S
C940 H912 0.930 . S
C940 C939 1.390 . S
C940 C941 1.392 . S
C941 H913 0.929 . S
C941 C938 1.391 . S
C941 C940 1.392 . S
N942 Co886 2.257 . S
N942 C939 1.391 . S
N942 C943 1.388 . S
C943 H914 0.930 . S
C943 C938 1.391 . S
C943 N942 1.388 . S
Co944 O946 2.143 . S
Co944 O952 2.074 . S
Co944 O955 2.093 . S
Co944 O968 2.097 . S
Co944 N985 2.151 . S
Co944 N993 2.214 . S
Co945 O946 2.160 . S
Co945 O951 2.058 . S
Co945 O961 2.057 . S
Co945 O976 2.037 . S
Co945 N980 2.145 . S
Co945 N1001 2.257 . S
O946 Co944 2.143 . S
O946 Co945 2.160 . S
C947 O948 1.278 . S
C947 O955 1.224 . S
O948 C947 1.278 . S
C949 O950 1.245 . S
C949 O961 1.232 . S
O950 C949 1.245 . S
O951 Co945 2.058 . S
O951 C977 1.269 . S
O952 Co944 2.074 . S
O952 C977 1.257 . S
H953 C978 0.930 . S
H954 C984 0.930 . S
O955 Co944 2.093 . S
O955 C947 1.224 . S
H956 C988 0.929 . S
H957 C990 0.930 . S
H958 C991 0.930 . S
H959 C989 0.929 . S
H960 C992 0.928 . S
O961 Co945 2.057 . S
O961 C949 1.232 . S
H962 C981 0.929 . S
H963 C982 0.929 . S
H964 C994 0.931 . S
H965 C986 0.929 . S
H966 C995 0.930 . S
H967 C987 0.931 . S
O968 Co944 2.097 . S
O968 C996 1.214 . S
H969 C997 0.929 . S
H970 C998 0.929 . S
H971 C999 0.930 . S
H972 C1000 0.929 . S
H973 C1002 0.930 . S
H974 C979 0.930 . S
H975 C983 0.930 . S
O976 Co945 2.037 . S
O976 C996 1.234 . S
C977 O951 1.269 . S
C977 O952 1.257 . S
C978 H953 0.930 . S
C978 C981 1.388 . S
C978 C983 1.418 . S
C979 H974 0.930 . S
C979 C982 1.404 . S
C979 C983 1.353 . S
N980 Co945 2.145 . S
N980 C981 1.397 . S
N980 C982 1.334 . S
C981 H962 0.929 . S
C981 C978 1.388 . S
C981 N980 1.397 . S
C982 H963 0.929 . S
C982 C979 1.404 . S
C982 N980 1.334 . S
C983 H975 0.930 . S
C983 C978 1.418 . S
C983 C979 1.353 . S
C984 H954 0.930 . S
C984 N985 1.330 . S
C984 C986 1.446 . S
N985 Co944 2.151 . S
N985 C984 1.330 . S
N985 C989 1.418 . S
C986 H965 0.929 . S
C986 C984 1.446 . S
C986 C987 1.332 . S
C987 H967 0.931 . S
C987 C986 1.332 . S
C987 C988 1.267 . S
C988 H956 0.929 . S
C988 C987 1.267 . S
C988 C989 1.251 . S
C989 H959 0.929 . S
C989 N985 1.418 . S
C989 C988 1.251 . S
C990 H957 0.930 . S
C990 C992 1.406 . S
C990 C995 1.261 . S
C991 H958 0.930 . S
C991 N993 1.325 . S
C991 C994 1.357 . S
C992 H960 0.928 . S
C992 C990 1.406 . S
C992 N993 1.261 . S
N993 Co944 2.214 . S
N993 C991 1.325 . S
N993 C992 1.261 . S
C994 H964 0.931 . S
C994 C991 1.357 . S
C994 C995 1.312 . S
C995 H966 0.930 . S
C995 C990 1.261 . S
C995 C994 1.312 . S
C996 O968 1.214 . S
C996 O976 1.234 . S
C997 H969 0.929 . S
C997 C1000 1.391 . S
C997 C1002 1.391 . S
C998 H970 0.929 . S
C998 C999 1.390 . S
C998 N1001 1.391 . S
C999 H971 0.930 . S
C999 C998 1.390 . S
C999 C1000 1.392 . S
C1000 H972 0.929 . S
C1000 C997 1.391 . S
C1000 C999 1.392 . S
N1001 Co945 2.257 . S
N1001 C998 1.391 . S
N1001 C1002 1.388 . S
C1002 H973 0.930 . S
C1002 C997 1.391 . S
C1002 N1001 1.388 . S
Co1003 O1005 2.143 . S
Co1003 O1011 2.074 . S
Co1003 O1014 2.093 . S
Co1003 O1027 2.097 . S
Co1003 N1044 2.151 . S
Co1003 N1052 2.214 . S
Co1004 O1005 2.160 . S
Co1004 O1010 2.058 . S
Co1004 O1020 2.057 . S
Co1004 O1035 2.037 . S
Co1004 N1039 2.145 . S
Co1004 N1060 2.257 . S
O1005 Co1003 2.143 . S
O1005 Co1004 2.160 . S
C1006 O1007 1.278 . S
C1006 O1014 1.224 . S
O1007 C1006 1.278 . S
C1008 O1009 1.245 . S
C1008 O1020 1.232 . S
O1009 C1008 1.245 . S
O1010 Co1004 2.058 . S
O1010 C1036 1.269 . S
O1011 Co1003 2.074 . S
O1011 C1036 1.257 . S
H1012 C1037 0.930 . S
H1013 C1043 0.930 . S
O1014 Co1003 2.093 . S
O1014 C1006 1.224 . S
H1015 C1047 0.929 . S
H1016 C1049 0.930 . S
H1017 C1050 0.930 . S
H1018 C1048 0.929 . S
H1019 C1051 0.928 . S
O1020 Co1004 2.057 . S
O1020 C1008 1.232 . S
H1021 C1040 0.929 . S
H1022 C1041 0.929 . S
H1023 C1053 0.931 . S
H1024 C1045 0.929 . S
H1025 C1054 0.930 . S
H1026 C1046 0.931 . S
O1027 Co1003 2.097 . S
O1027 C1055 1.214 . S
H1028 C1056 0.929 . S
H1029 C1057 0.929 . S
H1030 C1058 0.930 . S
H1031 C1059 0.929 . S
H1032 C1061 0.930 . S
H1033 C1038 0.930 . S
H1034 C1042 0.930 . S
O1035 Co1004 2.037 . S
O1035 C1055 1.234 . S
C1036 O1010 1.269 . S
C1036 O1011 1.257 . S
C1037 H1012 0.930 . S
C1037 C1040 1.388 . S
C1037 C1042 1.418 . S
C1038 H1033 0.930 . S
C1038 C1041 1.404 . S
C1038 C1042 1.353 . S
N1039 Co1004 2.145 . S
N1039 C1040 1.397 . S
N1039 C1041 1.334 . S
C1040 H1021 0.929 . S
C1040 C1037 1.388 . S
C1040 N1039 1.397 . S
C1041 H1022 0.929 . S
C1041 C1038 1.404 . S
C1041 N1039 1.334 . S
C1042 H1034 0.930 . S
C1042 C1037 1.418 . S
C1042 C1038 1.353 . S
C1043 H1013 0.930 . S
C1043 N1044 1.330 . S
C1043 C1045 1.446 . S
N1044 Co1003 2.151 . S
N1044 C1043 1.330 . S
N1044 C1048 1.418 . S
C1045 H1024 0.929 . S
C1045 C1043 1.446 . S
C1045 C1046 1.332 . S
C1046 H1026 0.931 . S
C1046 C1045 1.332 . S
C1046 C1047 1.267 . S
C1047 H1015 0.929 . S
C1047 C1046 1.267 . S
C1047 C1048 1.251 . S
C1048 H1018 0.929 . S
C1048 N1044 1.418 . S
C1048 C1047 1.251 . S
C1049 H1016 0.930 . S
C1049 C1051 1.406 . S
C1049 C1054 1.261 . S
C1050 H1017 0.930 . S
C1050 N1052 1.325 . S
C1050 C1053 1.357 . S
C1051 H1019 0.928 . S
C1051 C1049 1.406 . S
C1051 N1052 1.261 . S
N1052 Co1003 2.214 . S
N1052 C1050 1.325 . S
N1052 C1051 1.261 . S
C1053 H1023 0.931 . S
C1053 C1050 1.357 . S
C1053 C1054 1.312 . S
C1054 H1025 0.930 . S
C1054 C1049 1.261 . S
C1054 C1053 1.312 . S
C1055 O1027 1.214 . S
C1055 O1035 1.234 . S
C1056 H1028 0.929 . S
C1056 C1059 1.391 . S
C1056 C1061 1.391 . S
C1057 H1029 0.929 . S
C1057 C1058 1.390 . S
C1057 N1060 1.391 . S
C1058 H1030 0.930 . S
C1058 C1057 1.390 . S
C1058 C1059 1.392 . S
C1059 H1031 0.929 . S
C1059 C1056 1.391 . S
C1059 C1058 1.392 . S
N1060 Co1004 2.257 . S
N1060 C1057 1.391 . S
N1060 C1061 1.388 . S
C1061 H1032 0.930 . S
C1061 C1056 1.391 . S
C1061 N1060 1.388 . S
Co1062 O1064 2.143 . S
Co1062 O1070 2.074 . S
Co1062 O1073 2.093 . S
Co1062 O1086 2.097 . S
Co1062 N1103 2.151 . S
Co1062 N1111 2.214 . S
Co1063 O1064 2.160 . S
Co1063 O1069 2.058 . S
Co1063 O1079 2.057 . S
Co1063 O1094 2.037 . S
Co1063 N1098 2.145 . S
Co1063 N1119 2.257 . S
O1064 Co1062 2.143 . S
O1064 Co1063 2.160 . S
C1065 O1066 1.278 . S
C1065 O1073 1.224 . S
O1066 C1065 1.278 . S
C1067 O1068 1.245 . S
C1067 O1079 1.232 . S
O1068 C1067 1.245 . S
O1069 Co1063 2.058 . S
O1069 C1095 1.269 . S
O1070 Co1062 2.074 . S
O1070 C1095 1.257 . S
H1071 C1096 0.930 . S
H1072 C1102 0.930 . S
O1073 Co1062 2.093 . S
O1073 C1065 1.224 . S
H1074 C1106 0.929 . S
H1075 C1108 0.930 . S
H1076 C1109 0.930 . S
H1077 C1107 0.929 . S
H1078 C1110 0.928 . S
O1079 Co1063 2.057 . S
O1079 C1067 1.232 . S
H1080 C1099 0.929 . S
H1081 C1100 0.929 . S
H1082 C1112 0.931 . S
H1083 C1104 0.929 . S
H1084 C1113 0.930 . S
H1085 C1105 0.931 . S
O1086 Co1062 2.097 . S
O1086 C1114 1.214 . S
H1087 C1115 0.929 . S
H1088 C1116 0.929 . S
H1089 C1117 0.930 . S
H1090 C1118 0.929 . S
H1091 C1120 0.930 . S
H1092 C1097 0.930 . S
H1093 C1101 0.930 . S
O1094 Co1063 2.037 . S
O1094 C1114 1.234 . S
C1095 O1069 1.269 . S
C1095 O1070 1.257 . S
C1096 H1071 0.930 . S
C1096 C1099 1.388 . S
C1096 C1101 1.418 . S
C1097 H1092 0.930 . S
C1097 C1100 1.404 . S
C1097 C1101 1.353 . S
N1098 Co1063 2.145 . S
N1098 C1099 1.397 . S
N1098 C1100 1.334 . S
C1099 H1080 0.929 . S
C1099 C1096 1.388 . S
C1099 N1098 1.397 . S
C1100 H1081 0.929 . S
C1100 C1097 1.404 . S
C1100 N1098 1.334 . S
C1101 H1093 0.930 . S
C1101 C1096 1.418 . S
C1101 C1097 1.353 . S
C1102 H1072 0.930 . S
C1102 N1103 1.330 . S
C1102 C1104 1.446 . S
N1103 Co1062 2.151 . S
N1103 C1102 1.330 . S
N1103 C1107 1.418 . S
C1104 H1083 0.929 . S
C1104 C1102 1.446 . S
C1104 C1105 1.332 . S
C1105 H1085 0.931 . S
C1105 C1104 1.332 . S
C1105 C1106 1.267 . S
C1106 H1074 0.929 . S
C1106 C1105 1.267 . S
C1106 C1107 1.251 . S
C1107 H1077 0.929 . S
C1107 N1103 1.418 . S
C1107 C1106 1.251 . S
C1108 H1075 0.930 . S
C1108 C1110 1.406 . S
C1108 C1113 1.261 . S
C1109 H1076 0.930 . S
C1109 N1111 1.325 . S
C1109 C1112 1.357 . S
C1110 H1078 0.928 . S
C1110 C1108 1.406 . S
C1110 N1111 1.261 . S
N1111 Co1062 2.214 . S
N1111 C1109 1.325 . S
N1111 C1110 1.261 . S
C1112 H1082 0.931 . S
C1112 C1109 1.357 . S
C1112 C1113 1.312 . S
C1113 H1084 0.930 . S
C1113 C1108 1.261 . S
C1113 C1112 1.312 . S
C1114 O1086 1.214 . S
C1114 O1094 1.234 . S
C1115 H1087 0.929 . S
C1115 C1118 1.391 . S
C1115 C1120 1.391 . S
C1116 H1088 0.929 . S
C1116 C1117 1.390 . S
C1116 N1119 1.391 . S
C1117 H1089 0.930 . S
C1117 C1116 1.390 . S
C1117 C1118 1.392 . S
C1118 H1090 0.929 . S
C1118 C1115 1.391 . S
C1118 C1117 1.392 . S
N1119 Co1063 2.257 . S
N1119 C1116 1.391 . S
N1119 C1120 1.388 . S
C1120 H1091 0.930 . S
C1120 C1115 1.391 . S
C1120 N1119 1.388 . S
Co1121 O1123 2.143 . S
Co1121 O1129 2.074 . S
Co1121 O1132 2.093 . S
Co1121 O1145 2.097 . S
Co1121 N1162 2.151 . S
Co1121 N1170 2.214 . S
Co1122 O1123 2.160 . S
Co1122 O1128 2.058 . S
Co1122 O1138 2.057 . S
Co1122 O1153 2.037 . S
Co1122 N1157 2.145 . S
Co1122 N1178 2.257 . S
O1123 Co1121 2.143 . S
O1123 Co1122 2.160 . S
C1124 O1125 1.278 . S
C1124 O1132 1.224 . S
O1125 C1124 1.278 . S
C1126 O1127 1.245 . S
C1126 O1138 1.232 . S
O1127 C1126 1.245 . S
O1128 Co1122 2.058 . S
O1128 C1154 1.269 . S
O1129 Co1121 2.074 . S
O1129 C1154 1.257 . S
H1130 C1155 0.930 . S
H1131 C1161 0.930 . S
O1132 Co1121 2.093 . S
O1132 C1124 1.224 . S
H1133 C1165 0.929 . S
H1134 C1167 0.930 . S
H1135 C1168 0.930 . S
H1136 C1166 0.929 . S
H1137 C1169 0.928 . S
O1138 Co1122 2.057 . S
O1138 C1126 1.232 . S
H1139 C1158 0.929 . S
H1140 C1159 0.929 . S
H1141 C1171 0.931 . S
H1142 C1163 0.929 . S
H1143 C1172 0.930 . S
H1144 C1164 0.931 . S
O1145 Co1121 2.097 . S
O1145 C1173 1.214 . S
H1146 C1174 0.929 . S
H1147 C1175 0.929 . S
H1148 C1176 0.930 . S
H1149 C1177 0.929 . S
H1150 C1179 0.930 . S
H1151 C1156 0.930 . S
H1152 C1160 0.930 . S
O1153 Co1122 2.037 . S
O1153 C1173 1.234 . S
C1154 O1128 1.269 . S
C1154 O1129 1.257 . S
C1155 H1130 0.930 . S
C1155 C1158 1.388 . S
C1155 C1160 1.418 . S
C1156 H1151 0.930 . S
C1156 C1159 1.404 . S
C1156 C1160 1.353 . S
N1157 Co1122 2.145 . S
N1157 C1158 1.397 . S
N1157 C1159 1.334 . S
C1158 H1139 0.929 . S
C1158 C1155 1.388 . S
C1158 N1157 1.397 . S
C1159 H1140 0.929 . S
C1159 C1156 1.404 . S
C1159 N1157 1.334 . S
C1160 H1152 0.930 . S
C1160 C1155 1.418 . S
C1160 C1156 1.353 . S
C1161 H1131 0.930 . S
C1161 N1162 1.330 . S
C1161 C1163 1.446 . S
N1162 Co1121 2.151 . S
N1162 C1161 1.330 . S
N1162 C1166 1.418 . S
C1163 H1142 0.929 . S
C1163 C1161 1.446 . S
C1163 C1164 1.332 . S
C1164 H1144 0.931 . S
C1164 C1163 1.332 . S
C1164 C1165 1.267 . S
C1165 H1133 0.929 . S
C1165 C1164 1.267 . S
C1165 C1166 1.251 . S
C1166 H1136 0.929 . S
C1166 N1162 1.418 . S
C1166 C1165 1.251 . S
C1167 H1134 0.930 . S
C1167 C1169 1.406 . S
C1167 C1172 1.261 . S
C1168 H1135 0.930 . S
C1168 N1170 1.325 . S
C1168 C1171 1.357 . S
C1169 H1137 0.928 . S
C1169 C1167 1.406 . S
C1169 N1170 1.261 . S
N1170 Co1121 2.214 . S
N1170 C1168 1.325 . S
N1170 C1169 1.261 . S
C1171 H1141 0.931 . S
C1171 C1168 1.357 . S
C1171 C1172 1.312 . S
C1172 H1143 0.930 . S
C1172 C1167 1.261 . S
C1172 C1171 1.312 . S
C1173 O1145 1.214 . S
C1173 O1153 1.234 . S
C1174 H1146 0.929 . S
C1174 C1177 1.391 . S
C1174 C1179 1.391 . S
C1175 H1147 0.929 . S
C1175 C1176 1.390 . S
C1175 N1178 1.391 . S
C1176 H1148 0.930 . S
C1176 C1175 1.390 . S
C1176 C1177 1.392 . S
C1177 H1149 0.929 . S
C1177 C1174 1.391 . S
C1177 C1176 1.392 . S
N1178 Co1122 2.257 . S
N1178 C1175 1.391 . S
N1178 C1179 1.388 . S
C1179 H1150 0.930 . S
C1179 C1174 1.391 . S
C1179 N1178 1.388 . S
Co1180 O1182 2.143 . S
Co1180 O1188 2.074 . S
Co1180 O1191 2.093 . S
Co1180 O1204 2.097 . S
Co1180 N1221 2.151 . S
Co1180 N1229 2.214 . S
Co1181 O1182 2.160 . S
Co1181 O1187 2.058 . S
Co1181 O1197 2.057 . S
Co1181 O1212 2.037 . S
Co1181 N1216 2.145 . S
Co1181 N1237 2.257 . S
O1182 Co1180 2.143 . S
O1182 Co1181 2.160 . S
C1183 O1184 1.278 . S
C1183 O1191 1.224 . S
O1184 C1183 1.278 . S
C1185 O1186 1.245 . S
C1185 O1197 1.232 . S
O1186 C1185 1.245 . S
O1187 Co1181 2.058 . S
O1187 C1213 1.269 . S
O1188 Co1180 2.074 . S
O1188 C1213 1.257 . S
H1189 C1214 0.930 . S
H1190 C1220 0.930 . S
O1191 Co1180 2.093 . S
O1191 C1183 1.224 . S
H1192 C1224 0.929 . S
H1193 C1226 0.930 . S
H1194 C1227 0.930 . S
H1195 C1225 0.929 . S
H1196 C1228 0.928 . S
O1197 Co1181 2.057 . S
O1197 C1185 1.232 . S
H1198 C1217 0.929 . S
H1199 C1218 0.929 . S
H1200 C1230 0.931 . S
H1201 C1222 0.929 . S
H1202 C1231 0.930 . S
H1203 C1223 0.931 . S
O1204 Co1180 2.097 . S
O1204 C1232 1.214 . S
H1205 C1233 0.929 . S
H1206 C1234 0.929 . S
H1207 C1235 0.930 . S
H1208 C1236 0.929 . S
H1209 C1238 0.930 . S
H1210 C1215 0.930 . S
H1211 C1219 0.930 . S
O1212 Co1181 2.037 . S
O1212 C1232 1.234 . S
C1213 O1187 1.269 . S
C1213 O1188 1.257 . S
C1214 H1189 0.930 . S
C1214 C1217 1.388 . S
C1214 C1219 1.418 . S
C1215 H1210 0.930 . S
C1215 C1218 1.404 . S
C1215 C1219 1.353 . S
N1216 Co1181 2.145 . S
N1216 C1217 1.397 . S
N1216 C1218 1.334 . S
C1217 H1198 0.929 . S
C1217 C1214 1.388 . S
C1217 N1216 1.397 . S
C1218 H1199 0.929 . S
C1218 C1215 1.404 . S
C1218 N1216 1.334 . S
C1219 H1211 0.930 . S
C1219 C1214 1.418 . S
C1219 C1215 1.353 . S
C1220 H1190 0.930 . S
C1220 N1221 1.330 . S
C1220 C1222 1.446 . S
N1221 Co1180 2.151 . S
N1221 C1220 1.330 . S
N1221 C1225 1.418 . S
C1222 H1201 0.929 . S
C1222 C1220 1.446 . S
C1222 C1223 1.332 . S
C1223 H1203 0.931 . S
C1223 C1222 1.332 . S
C1223 C1224 1.267 . S
C1224 H1192 0.929 . S
C1224 C1223 1.267 . S
C1224 C1225 1.251 . S
C1225 H1195 0.929 . S
C1225 N1221 1.418 . S
C1225 C1224 1.251 . S
C1226 H1193 0.930 . S
C1226 C1228 1.406 . S
C1226 C1231 1.261 . S
C1227 H1194 0.930 . S
C1227 N1229 1.325 . S
C1227 C1230 1.357 . S
C1228 H1196 0.928 . S
C1228 C1226 1.406 . S
C1228 N1229 1.261 . S
N1229 Co1180 2.214 . S
N1229 C1227 1.325 . S
N1229 C1228 1.261 . S
C1230 H1200 0.931 . S
C1230 C1227 1.357 . S
C1230 C1231 1.312 . S
C1231 H1202 0.930 . S
C1231 C1226 1.261 . S
C1231 C1230 1.312 . S
C1232 O1204 1.214 . S
C1232 O1212 1.234 . S
C1233 H1205 0.929 . S
C1233 C1236 1.391 . S
C1233 C1238 1.391 . S
C1234 H1206 0.929 . S
C1234 C1235 1.390 . S
C1234 N1237 1.391 . S
C1235 H1207 0.930 . S
C1235 C1234 1.390 . S
C1235 C1236 1.392 . S
C1236 H1208 0.929 . S
C1236 C1233 1.391 . S
C1236 C1235 1.392 . S
N1237 Co1181 2.257 . S
N1237 C1234 1.391 . S
N1237 C1238 1.388 . S
C1238 H1209 0.930 . S
C1238 C1233 1.391 . S
C1238 N1237 1.388 . S
Co1239 O1241 2.143 . S
Co1239 O1247 2.074 . S
Co1239 O1250 2.093 . S
Co1239 O1263 2.097 . S
Co1239 N1280 2.151 . S
Co1239 N1288 2.214 . S
Co1240 O1241 2.160 . S
Co1240 O1246 2.058 . S
Co1240 O1256 2.057 . S
Co1240 O1271 2.037 . S
Co1240 N1275 2.145 . S
Co1240 N1296 2.257 . S
O1241 Co1239 2.143 . S
O1241 Co1240 2.160 . S
C1242 O1243 1.278 . S
C1242 O1250 1.224 . S
O1243 C1242 1.278 . S
C1244 O1245 1.245 . S
C1244 O1256 1.232 . S
O1245 C1244 1.245 . S
O1246 Co1240 2.058 . S
O1246 C1272 1.269 . S
O1247 Co1239 2.074 . S
O1247 C1272 1.257 . S
H1248 C1273 0.930 . S
H1249 C1279 0.930 . S
O1250 Co1239 2.093 . S
O1250 C1242 1.224 . S
H1251 C1283 0.929 . S
H1252 C1285 0.930 . S
H1253 C1286 0.930 . S
H1254 C1284 0.929 . S
H1255 C1287 0.928 . S
O1256 Co1240 2.057 . S
O1256 C1244 1.232 . S
H1257 C1276 0.929 . S
H1258 C1277 0.929 . S
H1259 C1289 0.931 . S
H1260 C1281 0.929 . S
H1261 C1290 0.930 . S
H1262 C1282 0.931 . S
O1263 Co1239 2.097 . S
O1263 C1291 1.214 . S
H1264 C1292 0.929 . S
H1265 C1293 0.929 . S
H1266 C1294 0.930 . S
H1267 C1295 0.929 . S
H1268 C1297 0.930 . S
H1269 C1274 0.930 . S
H1270 C1278 0.930 . S
O1271 Co1240 2.037 . S
O1271 C1291 1.234 . S
C1272 O1246 1.269 . S
C1272 O1247 1.257 . S
C1273 H1248 0.930 . S
C1273 C1276 1.388 . S
C1273 C1278 1.418 . S
C1274 H1269 0.930 . S
C1274 C1277 1.404 . S
C1274 C1278 1.353 . S
N1275 Co1240 2.145 . S
N1275 C1276 1.397 . S
N1275 C1277 1.334 . S
C1276 H1257 0.929 . S
C1276 C1273 1.388 . S
C1276 N1275 1.397 . S
C1277 H1258 0.929 . S
C1277 C1274 1.404 . S
C1277 N1275 1.334 . S
C1278 H1270 0.930 . S
C1278 C1273 1.418 . S
C1278 C1274 1.353 . S
C1279 H1249 0.930 . S
C1279 N1280 1.330 . S
C1279 C1281 1.446 . S
N1280 Co1239 2.151 . S
N1280 C1279 1.330 . S
N1280 C1284 1.418 . S
C1281 H1260 0.929 . S
C1281 C1279 1.446 . S
C1281 C1282 1.332 . S
C1282 H1262 0.931 . S
C1282 C1281 1.332 . S
C1282 C1283 1.267 . S
C1283 H1251 0.929 . S
C1283 C1282 1.267 . S
C1283 C1284 1.251 . S
C1284 H1254 0.929 . S
C1284 N1280 1.418 . S
C1284 C1283 1.251 . S
C1285 H1252 0.930 . S
C1285 C1287 1.406 . S
C1285 C1290 1.261 . S
C1286 H1253 0.930 . S
C1286 N1288 1.325 . S
C1286 C1289 1.357 . S
C1287 H1255 0.928 . S
C1287 C1285 1.406 . S
C1287 N1288 1.261 . S
N1288 Co1239 2.214 . S
N1288 C1286 1.325 . S
N1288 C1287 1.261 . S
C1289 H1259 0.931 . S
C1289 C1286 1.357 . S
C1289 C1290 1.312 . S
C1290 H1261 0.930 . S
C1290 C1285 1.261 . S
C1290 C1289 1.312 . S
C1291 O1263 1.214 . S
C1291 O1271 1.234 . S
C1292 H1264 0.929 . S
C1292 C1295 1.391 . S
C1292 C1297 1.391 . S
C1293 H1265 0.929 . S
C1293 C1294 1.390 . S
C1293 N1296 1.391 . S
C1294 H1266 0.930 . S
C1294 C1293 1.390 . S
C1294 C1295 1.392 . S
C1295 H1267 0.929 . S
C1295 C1292 1.391 . S
C1295 C1294 1.392 . S
N1296 Co1240 2.257 . S
N1296 C1293 1.391 . S
N1296 C1297 1.388 . S
C1297 H1268 0.930 . S
C1297 C1292 1.391 . S
C1297 N1296 1.388 . S
Co1298 O1300 2.143 . S
Co1298 O1306 2.074 . S
Co1298 O1309 2.093 . S
Co1298 O1322 2.097 . S
Co1298 N1339 2.151 . S
Co1298 N1347 2.214 . S
Co1299 O1300 2.160 . S
Co1299 O1305 2.058 . S
Co1299 O1315 2.057 . S
Co1299 O1330 2.037 . S
Co1299 N1334 2.145 . S
Co1299 N1355 2.257 . S
O1300 Co1298 2.143 . S
O1300 Co1299 2.160 . S
C1301 O1302 1.278 . S
C1301 O1309 1.224 . S
O1302 C1301 1.278 . S
C1303 O1304 1.245 . S
C1303 O1315 1.232 . S
O1304 C1303 1.245 . S
O1305 Co1299 2.058 . S
O1305 C1331 1.269 . S
O1306 Co1298 2.074 . S
O1306 C1331 1.257 . S
H1307 C1332 0.930 . S
H1308 C1338 0.930 . S
O1309 Co1298 2.093 . S
O1309 C1301 1.224 . S
H1310 C1342 0.929 . S
H1311 C1344 0.930 . S
H1312 C1345 0.930 . S
H1313 C1343 0.929 . S
H1314 C1346 0.928 . S
O1315 Co1299 2.057 . S
O1315 C1303 1.232 . S
H1316 C1335 0.929 . S
H1317 C1336 0.929 . S
H1318 C1348 0.931 . S
H1319 C1340 0.929 . S
H1320 C1349 0.930 . S
H1321 C1341 0.931 . S
O1322 Co1298 2.097 . S
O1322 C1350 1.214 . S
H1323 C1351 0.929 . S
H1324 C1352 0.929 . S
H1325 C1353 0.930 . S
H1326 C1354 0.929 . S
H1327 C1356 0.930 . S
H1328 C1333 0.930 . S
H1329 C1337 0.930 . S
O1330 Co1299 2.037 . S
O1330 C1350 1.234 . S
C1331 O1305 1.269 . S
C1331 O1306 1.257 . S
C1332 H1307 0.930 . S
C1332 C1335 1.388 . S
C1332 C1337 1.418 . S
C1333 H1328 0.930 . S
C1333 C1336 1.404 . S
C1333 C1337 1.353 . S
N1334 Co1299 2.145 . S
N1334 C1335 1.397 . S
N1334 C1336 1.334 . S
C1335 H1316 0.929 . S
C1335 C1332 1.388 . S
C1335 N1334 1.397 . S
C1336 H1317 0.929 . S
C1336 C1333 1.404 . S
C1336 N1334 1.334 . S
C1337 H1329 0.930 . S
C1337 C1332 1.418 . S
C1337 C1333 1.353 . S
C1338 H1308 0.930 . S
C1338 N1339 1.330 . S
C1338 C1340 1.446 . S
N1339 Co1298 2.151 . S
N1339 C1338 1.330 . S
N1339 C1343 1.418 . S
C1340 H1319 0.929 . S
C1340 C1338 1.446 . S
C1340 C1341 1.332 . S
C1341 H1321 0.931 . S
C1341 C1340 1.332 . S
C1341 C1342 1.267 . S
C1342 H1310 0.929 . S
C1342 C1341 1.267 . S
C1342 C1343 1.251 . S
C1343 H1313 0.929 . S
C1343 N1339 1.418 . S
C1343 C1342 1.251 . S
C1344 H1311 0.930 . S
C1344 C1346 1.406 . S
C1344 C1349 1.261 . S
C1345 H1312 0.930 . S
C1345 N1347 1.325 . S
C1345 C1348 1.357 . S
C1346 H1314 0.928 . S
C1346 C1344 1.406 . S
C1346 N1347 1.261 . S
N1347 Co1298 2.214 . S
N1347 C1345 1.325 . S
N1347 C1346 1.261 . S
C1348 H1318 0.931 . S
C1348 C1345 1.357 . S
C1348 C1349 1.312 . S
C1349 H1320 0.930 . S
C1349 C1344 1.261 . S
C1349 C1348 1.312 . S
C1350 O1322 1.214 . S
C1350 O1330 1.234 . S
C1351 H1323 0.929 . S
C1351 C1354 1.391 . S
C1351 C1356 1.391 . S
C1352 H1324 0.929 . S
C1352 C1353 1.390 . S
C1352 N1355 1.391 . S
C1353 H1325 0.930 . S
C1353 C1352 1.390 . S
C1353 C1354 1.392 . S
C1354 H1326 0.929 . S
C1354 C1351 1.391 . S
C1354 C1353 1.392 . S
N1355 Co1299 2.257 . S
N1355 C1352 1.391 . S
N1355 C1356 1.388 . S
C1356 H1327 0.930 . S
C1356 C1351 1.391 . S
C1356 N1355 1.388 . S
Co1357 O1359 2.143 . S
Co1357 O1365 2.074 . S
Co1357 O1368 2.093 . S
Co1357 O1381 2.097 . S
Co1357 N1398 2.151 . S
Co1357 N1406 2.214 . S
Co1358 O1359 2.160 . S
Co1358 O1364 2.058 . S
Co1358 O1374 2.057 . S
Co1358 O1389 2.037 . S
Co1358 N1393 2.145 . S
Co1358 N1414 2.257 . S
O1359 Co1357 2.143 . S
O1359 Co1358 2.160 . S
C1360 O1361 1.278 . S
C1360 O1368 1.224 . S
O1361 C1360 1.278 . S
C1362 O1363 1.245 . S
C1362 O1374 1.232 . S
O1363 C1362 1.245 . S
O1364 Co1358 2.058 . S
O1364 C1390 1.269 . S
O1365 Co1357 2.074 . S
O1365 C1390 1.257 . S
H1366 C1391 0.930 . S
H1367 C1397 0.930 . S
O1368 Co1357 2.093 . S
O1368 C1360 1.224 . S
H1369 C1401 0.929 . S
H1370 C1403 0.930 . S
H1371 C1404 0.930 . S
H1372 C1402 0.929 . S
H1373 C1405 0.928 . S
O1374 Co1358 2.057 . S
O1374 C1362 1.232 . S
H1375 C1394 0.929 . S
H1376 C1395 0.929 . S
H1377 C1407 0.931 . S
H1378 C1399 0.929 . S
H1379 C1408 0.930 . S
H1380 C1400 0.931 . S
O1381 Co1357 2.097 . S
O1381 C1409 1.214 . S
H1382 C1410 0.929 . S
H1383 C1411 0.929 . S
H1384 C1412 0.930 . S
H1385 C1413 0.929 . S
H1386 C1415 0.930 . S
H1387 C1392 0.930 . S
H1388 C1396 0.930 . S
O1389 Co1358 2.037 . S
O1389 C1409 1.234 . S
C1390 O1364 1.269 . S
C1390 O1365 1.257 . S
C1391 H1366 0.930 . S
C1391 C1394 1.388 . S
C1391 C1396 1.418 . S
C1392 H1387 0.930 . S
C1392 C1395 1.404 . S
C1392 C1396 1.353 . S
N1393 Co1358 2.145 . S
N1393 C1394 1.397 . S
N1393 C1395 1.334 . S
C1394 H1375 0.929 . S
C1394 C1391 1.388 . S
C1394 N1393 1.397 . S
C1395 H1376 0.929 . S
C1395 C1392 1.404 . S
C1395 N1393 1.334 . S
C1396 H1388 0.930 . S
C1396 C1391 1.418 . S
C1396 C1392 1.353 . S
C1397 H1367 0.930 . S
C1397 N1398 1.330 . S
C1397 C1399 1.446 . S
N1398 Co1357 2.151 . S
N1398 C1397 1.330 . S
N1398 C1402 1.418 . S
C1399 H1378 0.929 . S
C1399 C1397 1.446 . S
C1399 C1400 1.332 . S
C1400 H1380 0.931 . S
C1400 C1399 1.332 . S
C1400 C1401 1.267 . S
C1401 H1369 0.929 . S
C1401 C1400 1.267 . S
C1401 C1402 1.251 . S
C1402 H1372 0.929 . S
C1402 N1398 1.418 . S
C1402 C1401 1.251 . S
C1403 H1370 0.930 . S
C1403 C1405 1.406 . S
C1403 C1408 1.261 . S
C1404 H1371 0.930 . S
C1404 N1406 1.325 . S
C1404 C1407 1.357 . S
C1405 H1373 0.928 . S
C1405 C1403 1.406 . S
C1405 N1406 1.261 . S
N1406 Co1357 2.214 . S
N1406 C1404 1.325 . S
N1406 C1405 1.261 . S
C1407 H1377 0.931 . S
C1407 C1404 1.357 . S
C1407 C1408 1.312 . S
C1408 H1379 0.930 . S
C1408 C1403 1.261 . S
C1408 C1407 1.312 . S
C1409 O1381 1.214 . S
C1409 O1389 1.234 . S
C1410 H1382 0.929 . S
C1410 C1413 1.391 . S
C1410 C1415 1.391 . S
C1411 H1383 0.929 . S
C1411 C1412 1.390 . S
C1411 N1414 1.391 . S
C1412 H1384 0.930 . S
C1412 C1411 1.390 . S
C1412 C1413 1.392 . S
C1413 H1385 0.929 . S
C1413 C1410 1.391 . S
C1413 C1412 1.392 . S
N1414 Co1358 2.257 . S
N1414 C1411 1.391 . S
N1414 C1415 1.388 . S
C1415 H1386 0.930 . S
C1415 C1410 1.391 . S
C1415 N1414 1.388 . S
Co1416 O1418 2.143 . S
Co1416 O1424 2.074 . S
Co1416 O1427 2.093 . S
Co1416 O1440 2.097 . S
Co1416 N1457 2.151 . S
Co1416 N1465 2.214 . S
Co1417 O1418 2.160 . S
Co1417 O1423 2.058 . S
Co1417 O1433 2.057 . S
Co1417 O1448 2.037 . S
Co1417 N1452 2.145 . S
Co1417 N1473 2.257 . S
O1418 Co1416 2.143 . S
O1418 Co1417 2.160 . S
C1419 O1420 1.278 . S
C1419 O1427 1.224 . S
O1420 C1419 1.278 . S
C1421 O1422 1.245 . S
C1421 O1433 1.232 . S
O1422 C1421 1.245 . S
O1423 Co1417 2.058 . S
O1423 C1449 1.269 . S
O1424 Co1416 2.074 . S
O1424 C1449 1.257 . S
H1425 C1450 0.930 . S
H1426 C1456 0.930 . S
O1427 Co1416 2.093 . S
O1427 C1419 1.224 . S
H1428 C1460 0.929 . S
H1429 C1462 0.930 . S
H1430 C1463 0.930 . S
H1431 C1461 0.929 . S
H1432 C1464 0.928 . S
O1433 Co1417 2.057 . S
O1433 C1421 1.232 . S
H1434 C1453 0.929 . S
H1435 C1454 0.929 . S
H1436 C1466 0.931 . S
H1437 C1458 0.929 . S
H1438 C1467 0.930 . S
H1439 C1459 0.931 . S
O1440 Co1416 2.097 . S
O1440 C1468 1.214 . S
H1441 C1469 0.929 . S
H1442 C1470 0.929 . S
H1443 C1471 0.930 . S
H1444 C1472 0.929 . S
H1445 C1474 0.930 . S
H1446 C1451 0.930 . S
H1447 C1455 0.930 . S
O1448 Co1417 2.037 . S
O1448 C1468 1.234 . S
C1449 O1423 1.269 . S
C1449 O1424 1.257 . S
C1450 H1425 0.930 . S
C1450 C1453 1.388 . S
C1450 C1455 1.418 . S
C1451 H1446 0.930 . S
C1451 C1454 1.404 . S
C1451 C1455 1.353 . S
N1452 Co1417 2.145 . S
N1452 C1453 1.397 . S
N1452 C1454 1.334 . S
C1453 H1434 0.929 . S
C1453 C1450 1.388 . S
C1453 N1452 1.397 . S
C1454 H1435 0.929 . S
C1454 C1451 1.404 . S
C1454 N1452 1.334 . S
C1455 H1447 0.930 . S
C1455 C1450 1.418 . S
C1455 C1451 1.353 . S
C1456 H1426 0.930 . S
C1456 N1457 1.330 . S
C1456 C1458 1.446 . S
N1457 Co1416 2.151 . S
N1457 C1456 1.330 . S
N1457 C1461 1.418 . S
C1458 H1437 0.929 . S
C1458 C1456 1.446 . S
C1458 C1459 1.332 . S
C1459 H1439 0.931 . S
C1459 C1458 1.332 . S
C1459 C1460 1.267 . S
C1460 H1428 0.929 . S
C1460 C1459 1.267 . S
C1460 C1461 1.251 . S
C1461 H1431 0.929 . S
C1461 N1457 1.418 . S
C1461 C1460 1.251 . S
C1462 H1429 0.930 . S
C1462 C1464 1.406 . S
C1462 C1467 1.261 . S
C1463 H1430 0.930 . S
C1463 N1465 1.325 . S
C1463 C1466 1.357 . S
C1464 H1432 0.928 . S
C1464 C1462 1.406 . S
C1464 N1465 1.261 . S
N1465 Co1416 2.214 . S
N1465 C1463 1.325 . S
N1465 C1464 1.261 . S
C1466 H1436 0.931 . S
C1466 C1463 1.357 . S
C1466 C1467 1.312 . S
C1467 H1438 0.930 . S
C1467 C1462 1.261 . S
C1467 C1466 1.312 . S
C1468 O1440 1.214 . S
C1468 O1448 1.234 . S
C1469 H1441 0.929 . S
C1469 C1472 1.391 . S
C1469 C1474 1.391 . S
C1470 H1442 0.929 . S
C1470 C1471 1.390 . S
C1470 N1473 1.391 . S
C1471 H1443 0.930 . S
C1471 C1470 1.390 . S
C1471 C1472 1.392 . S
C1472 H1444 0.929 . S
C1472 C1469 1.391 . S
C1472 C1471 1.392 . S
N1473 Co1417 2.257 . S
N1473 C1470 1.391 . S
N1473 C1474 1.388 . S
C1474 H1445 0.930 . S
C1474 C1469 1.391 . S
C1474 N1473 1.388 . S
Co1475 O1477 2.143 . S
Co1475 O1483 2.074 . S
Co1475 O1486 2.093 . S
Co1475 O1499 2.097 . S
Co1475 N1516 2.151 . S
Co1475 N1524 2.214 . S
Co1476 O1477 2.160 . S
Co1476 O1482 2.058 . S
Co1476 O1492 2.057 . S
Co1476 O1507 2.037 . S
Co1476 N1511 2.145 . S
Co1476 N1532 2.257 . S
O1477 Co1475 2.143 . S
O1477 Co1476 2.160 . S
C1478 O1479 1.278 . S
C1478 O1486 1.224 . S
O1479 C1478 1.278 . S
C1480 O1481 1.245 . S
C1480 O1492 1.232 . S
O1481 C1480 1.245 . S
O1482 Co1476 2.058 . S
O1482 C1508 1.269 . S
O1483 Co1475 2.074 . S
O1483 C1508 1.257 . S
H1484 C1509 0.930 . S
H1485 C1515 0.930 . S
O1486 Co1475 2.093 . S
O1486 C1478 1.224 . S
H1487 C1519 0.929 . S
H1488 C1521 0.930 . S
H1489 C1522 0.930 . S
H1490 C1520 0.929 . S
H1491 C1523 0.928 . S
O1492 Co1476 2.057 . S
O1492 C1480 1.232 . S
H1493 C1512 0.929 . S
H1494 C1513 0.929 . S
H1495 C1525 0.931 . S
H1496 C1517 0.929 . S
H1497 C1526 0.930 . S
H1498 C1518 0.931 . S
O1499 Co1475 2.097 . S
O1499 C1527 1.214 . S
H1500 C1528 0.929 . S
H1501 C1529 0.929 . S
H1502 C1530 0.930 . S
H1503 C1531 0.929 . S
H1504 C1533 0.930 . S
H1505 C1510 0.930 . S
H1506 C1514 0.930 . S
O1507 Co1476 2.037 . S
O1507 C1527 1.234 . S
C1508 O1482 1.269 . S
C1508 O1483 1.257 . S
C1509 H1484 0.930 . S
C1509 C1512 1.388 . S
C1509 C1514 1.418 . S
C1510 H1505 0.930 . S
C1510 C1513 1.404 . S
C1510 C1514 1.353 . S
N1511 Co1476 2.145 . S
N1511 C1512 1.397 . S
N1511 C1513 1.334 . S
C1512 H1493 0.929 . S
C1512 C1509 1.388 . S
C1512 N1511 1.397 . S
C1513 H1494 0.929 . S
C1513 C1510 1.404 . S
C1513 N1511 1.334 . S
C1514 H1506 0.930 . S
C1514 C1509 1.418 . S
C1514 C1510 1.353 . S
C1515 H1485 0.930 . S
C1515 N1516 1.330 . S
C1515 C1517 1.446 . S
N1516 Co1475 2.151 . S
N1516 C1515 1.330 . S
N1516 C1520 1.418 . S
C1517 H1496 0.929 . S
C1517 C1515 1.446 . S
C1517 C1518 1.332 . S
C1518 H1498 0.931 . S
C1518 C1517 1.332 . S
C1518 C1519 1.267 . S
C1519 H1487 0.929 . S
C1519 C1518 1.267 . S
C1519 C1520 1.251 . S
C1520 H1490 0.929 . S
C1520 N1516 1.418 . S
C1520 C1519 1.251 . S
C1521 H1488 0.930 . S
C1521 C1523 1.406 . S
C1521 C1526 1.261 . S
C1522 H1489 0.930 . S
C1522 N1524 1.325 . S
C1522 C1525 1.357 . S
C1523 H1491 0.928 . S
C1523 C1521 1.406 . S
C1523 N1524 1.261 . S
N1524 Co1475 2.214 . S
N1524 C1522 1.325 . S
N1524 C1523 1.261 . S
C1525 H1495 0.931 . S
C1525 C1522 1.357 . S
C1525 C1526 1.312 . S
C1526 H1497 0.930 . S
C1526 C1521 1.261 . S
C1526 C1525 1.312 . S
C1527 O1499 1.214 . S
C1527 O1507 1.234 . S
C1528 H1500 0.929 . S
C1528 C1531 1.391 . S
C1528 C1533 1.391 . S
C1529 H1501 0.929 . S
C1529 C1530 1.390 . S
C1529 N1532 1.391 . S
C1530 H1502 0.930 . S
C1530 C1529 1.390 . S
C1530 C1531 1.392 . S
C1531 H1503 0.929 . S
C1531 C1528 1.391 . S
C1531 C1530 1.392 . S
N1532 Co1476 2.257 . S
N1532 C1529 1.391 . S
N1532 C1533 1.388 . S
C1533 H1504 0.930 . S
C1533 C1528 1.391 . S
C1533 N1532 1.388 . S
Co1534 O1536 2.143 1_554 S
Co1534 O1542 2.074 . S
Co1534 O1545 2.093 . S
Co1534 O1558 2.097 . S
Co1534 N1575 2.151 1_554 S
Co1534 N1583 2.214 . S
Co1535 O1536 2.160 1_554 S
Co1535 O1541 2.058 1_554 S
Co1535 O1551 2.057 1_554 S
Co1535 O1566 2.037 . S
Co1535 N1570 2.145 . S
Co1535 N1591 2.257 . S
O1536 Co1534 2.143 1_556 S
O1536 Co1535 2.160 1_556 S
C1537 O1538 1.275 1_554 S
C1537 O1545 1.224 . S
O1538 C1537 1.275 1_556 S
C1539 O1540 1.245 . S
C1539 O1551 1.232 . S
O1540 C1539 1.245 . S
O1541 Co1535 2.058 1_556 S
O1541 C1567 1.276 . S
O1542 Co1534 2.074 . S
O1542 C1567 1.250 1_554 S
H1543 C1568 0.930 . S
H1544 C1574 0.930 . S
O1545 Co1534 2.093 . S
O1545 C1537 1.224 . S
H1546 C1578 0.929 . S
H1547 C1580 0.930 . S
H1548 C1581 0.930 . S
H1549 C1579 0.929 . S
H1550 C1582 0.928 . S
O1551 Co1535 2.057 1_556 S
O1551 C1539 1.232 . S
H1552 C1571 0.929 . S
H1553 C1572 0.929 . S
H1554 C1584 0.931 . S
H1555 C1576 0.929 . S
H1556 C1585 0.930 . S
H1557 C1577 0.931 . S
O1558 Co1534 2.097 . S
O1558 C1586 1.214 . S
H1559 C1587 0.929 1_556 S
H1560 C1588 0.929 . S
H1561 C1589 0.930 . S
H1562 C1590 0.929 . S
H1563 C1592 0.930 . S
H1564 C1569 0.930 1_556 S
H1565 C1573 0.930 . S
O1566 Co1535 2.037 . S
O1566 C1586 1.234 . S
C1567 O1541 1.276 . S
C1567 O1542 1.250 1_556 S
C1568 H1543 0.930 . S
C1568 C1571 1.388 . S
C1568 C1573 1.418 . S
C1569 H1564 0.930 1_554 S
C1569 C1572 1.404 1_554 S
C1569 C1573 1.353 . S
N1570 Co1535 2.145 . S
N1570 C1571 1.397 . S
N1570 C1572 1.334 1_554 S
C1571 H1552 0.929 . S
C1571 C1568 1.388 . S
C1571 N1570 1.397 . S
C1572 H1553 0.929 . S
C1572 C1569 1.404 1_556 S
C1572 N1570 1.334 1_556 S
C1573 H1565 0.930 . S
C1573 C1568 1.418 . S
C1573 C1569 1.353 . S
C1574 H1544 0.930 . S
C1574 N1575 1.330 . S
C1574 C1576 1.446 . S
N1575 Co1534 2.151 1_556 S
N1575 C1574 1.330 . S
N1575 C1579 1.418 . S
C1576 H1555 0.929 . S
C1576 C1574 1.446 . S
C1576 C1577 1.332 . S
C1577 H1557 0.931 . S
C1577 C1576 1.332 . S
C1577 C1578 1.267 . S
C1578 H1546 0.929 . S
C1578 C1577 1.267 . S
C1578 C1579 1.251 . S
C1579 H1549 0.929 . S
C1579 N1575 1.418 . S
C1579 C1578 1.251 . S
C1580 H1547 0.930 . S
C1580 C1582 1.406 . S
C1580 C1585 1.261 . S
C1581 H1548 0.930 . S
C1581 N1583 1.325 . S
C1581 C1584 1.357 . S
C1582 H1550 0.928 . S
C1582 C1580 1.406 . S
C1582 N1583 1.261 . S
N1583 Co1534 2.214 . S
N1583 C1581 1.325 . S
N1583 C1582 1.261 . S
C1584 H1554 0.931 . S
C1584 C1581 1.357 . S
C1584 C1585 1.312 . S
C1585 H1556 0.930 . S
C1585 C1580 1.261 . S
C1585 C1584 1.312 . S
C1586 O1558 1.214 . S
C1586 O1566 1.234 . S
C1587 H1559 0.929 1_554 S
C1587 C1590 1.391 . S
C1587 C1592 1.391 1_554 S
C1588 H1560 0.929 . S
C1588 C1589 1.390 . S
C1588 N1591 1.391 . S
C1589 H1561 0.930 . S
C1589 C1588 1.390 . S
C1589 C1590 1.392 . S
C1590 H1562 0.929 . S
C1590 C1587 1.391 . S
C1590 C1589 1.392 . S
N1591 Co1535 2.257 . S
N1591 C1588 1.391 . S
N1591 C1592 1.388 1_554 S
C1592 H1563 0.930 . S
C1592 C1587 1.391 1_556 S
C1592 N1591 1.388 1_556 S
Co1593 O1595 2.143 1_554 S
Co1593 O1601 2.074 . S
Co1593 O1604 2.093 . S
Co1593 O1617 2.097 . S
Co1593 N1634 2.151 1_554 S
Co1593 N1642 2.214 . S
Co1594 O1595 2.160 1_554 S
Co1594 O1600 2.058 1_554 S
Co1594 O1610 2.057 1_554 S
Co1594 O1625 2.037 . S
Co1594 N1629 2.145 . S
Co1594 N1650 2.257 . S
O1595 Co1593 2.143 1_556 S
O1595 Co1594 2.160 1_556 S
C1596 O1597 1.275 1_554 S
C1596 O1604 1.224 . S
O1597 C1596 1.275 1_556 S
C1598 O1599 1.245 . S
C1598 O1610 1.232 . S
O1599 C1598 1.245 . S
O1600 Co1594 2.058 1_556 S
O1600 C1626 1.276 . S
O1601 Co1593 2.074 . S
O1601 C1626 1.249 1_554 S
H1602 C1627 0.930 . S
H1603 C1633 0.930 . S
O1604 Co1593 2.093 . S
O1604 C1596 1.224 . S
H1605 C1637 0.929 . S
H1606 C1639 0.930 . S
H1607 C1640 0.930 . S
H1608 C1638 0.929 . S
H1609 C1641 0.928 . S
O1610 Co1594 2.057 1_556 S
O1610 C1598 1.232 . S
H1611 C1630 0.929 . S
H1612 C1631 0.929 . S
H1613 C1643 0.931 . S
H1614 C1635 0.929 . S
H1615 C1644 0.930 . S
H1616 C1636 0.931 . S
O1617 Co1593 2.097 . S
O1617 C1645 1.214 . S
H1618 C1646 0.929 1_556 S
H1619 C1647 0.929 . S
H1620 C1648 0.930 . S
H1621 C1649 0.929 . S
H1622 C1651 0.930 . S
H1623 C1628 0.930 1_556 S
H1624 C1632 0.930 . S
O1625 Co1594 2.037 . S
O1625 C1645 1.234 . S
C1626 O1600 1.276 . S
C1626 O1601 1.249 1_556 S
C1627 H1602 0.930 . S
C1627 C1630 1.388 . S
C1627 C1632 1.418 . S
C1628 H1623 0.930 1_554 S
C1628 C1631 1.404 1_554 S
C1628 C1632 1.353 . S
N1629 Co1594 2.145 . S
N1629 C1630 1.397 . S
N1629 C1631 1.334 1_554 S
C1630 H1611 0.929 . S
C1630 C1627 1.388 . S
C1630 N1629 1.397 . S
C1631 H1612 0.929 . S
C1631 C1628 1.404 1_556 S
C1631 N1629 1.334 1_556 S
C1632 H1624 0.930 . S
C1632 C1627 1.418 . S
C1632 C1628 1.353 . S
C1633 H1603 0.930 . S
C1633 N1634 1.330 . S
C1633 C1635 1.446 . S
N1634 Co1593 2.151 1_556 S
N1634 C1633 1.330 . S
N1634 C1638 1.418 . S
C1635 H1614 0.929 . S
C1635 C1633 1.446 . S
C1635 C1636 1.332 . S
C1636 H1616 0.931 . S
C1636 C1635 1.332 . S
C1636 C1637 1.267 . S
C1637 H1605 0.929 . S
C1637 C1636 1.267 . S
C1637 C1638 1.251 . S
C1638 H1608 0.929 . S
C1638 N1634 1.418 . S
C1638 C1637 1.251 . S
C1639 H1606 0.930 . S
C1639 C1641 1.406 . S
C1639 C1644 1.261 . S
C1640 H1607 0.930 . S
C1640 N1642 1.325 . S
C1640 C1643 1.357 . S
C1641 H1609 0.928 . S
C1641 C1639 1.406 . S
C1641 N1642 1.261 . S
N1642 Co1593 2.214 . S
N1642 C1640 1.325 . S
N1642 C1641 1.261 . S
C1643 H1613 0.931 . S
C1643 C1640 1.357 . S
C1643 C1644 1.312 . S
C1644 H1615 0.930 . S
C1644 C1639 1.261 . S
C1644 C1643 1.312 . S
C1645 O1617 1.214 . S
C1645 O1625 1.234 . S
C1646 H1618 0.929 1_554 S
C1646 C1649 1.391 . S
C1646 C1651 1.391 1_554 S
C1647 H1619 0.929 . S
C1647 C1648 1.390 . S
C1647 N1650 1.391 . S
C1648 H1620 0.930 . S
C1648 C1647 1.390 . S
C1648 C1649 1.392 . S
C1649 H1621 0.929 . S
C1649 C1646 1.391 . S
C1649 C1648 1.392 . S
N1650 Co1594 2.257 . S
N1650 C1647 1.391 . S
N1650 C1651 1.388 1_554 S
C1651 H1622 0.930 . S
C1651 C1646 1.391 1_556 S
C1651 N1650 1.388 1_556 S
Co1652 O1654 2.143 . S
Co1652 O1660 2.074 . S
Co1652 O1663 2.093 . S
Co1652 O1676 2.097 . S
Co1652 N1693 2.151 . S
Co1652 N1701 2.214 . S
Co1653 O1654 2.160 . S
Co1653 O1659 2.058 . S
Co1653 O1669 2.057 . S
Co1653 O1684 2.037 . S
Co1653 N1688 2.145 . S
Co1653 N1709 2.257 . S
O1654 Co1652 2.143 . S
O1654 Co1653 2.160 . S
C1655 O1656 1.278 . S
C1655 O1663 1.224 . S
O1656 C1655 1.278 . S
C1657 O1658 1.245 . S
C1657 O1669 1.232 . S
O1658 C1657 1.245 . S
O1659 Co1653 2.058 . S
O1659 C1685 1.269 . S
O1660 Co1652 2.074 . S
O1660 C1685 1.257 . S
H1661 C1686 0.930 . S
H1662 C1692 0.930 . S
O1663 Co1652 2.093 . S
O1663 C1655 1.224 . S
H1664 C1696 0.929 . S
H1665 C1698 0.930 . S
H1666 C1699 0.930 . S
H1667 C1697 0.929 . S
H1668 C1700 0.928 . S
O1669 Co1653 2.057 . S
O1669 C1657 1.232 . S
H1670 C1689 0.929 . S
H1671 C1690 0.929 . S
H1672 C1702 0.931 . S
H1673 C1694 0.929 . S
H1674 C1703 0.930 . S
H1675 C1695 0.931 . S
O1676 Co1652 2.097 . S
O1676 C1704 1.214 . S
H1677 C1705 0.929 . S
H1678 C1706 0.929 . S
H1679 C1707 0.930 . S
H1680 C1708 0.929 . S
H1681 C1710 0.930 . S
H1682 C1687 0.930 . S
H1683 C1691 0.930 . S
O1684 Co1653 2.037 . S
O1684 C1704 1.234 . S
C1685 O1659 1.269 . S
C1685 O1660 1.257 . S
C1686 H1661 0.930 . S
C1686 C1689 1.388 . S
C1686 C1691 1.418 . S
C1687 H1682 0.930 . S
C1687 C1690 1.404 . S
C1687 C1691 1.353 . S
N1688 Co1653 2.145 . S
N1688 C1689 1.397 . S
N1688 C1690 1.334 . S
C1689 H1670 0.929 . S
C1689 C1686 1.388 . S
C1689 N1688 1.397 . S
C1690 H1671 0.929 . S
C1690 C1687 1.404 . S
C1690 N1688 1.334 . S
C1691 H1683 0.930 . S
C1691 C1686 1.418 . S
C1691 C1687 1.353 . S
C1692 H1662 0.930 . S
C1692 N1693 1.330 . S
C1692 C1694 1.446 . S
N1693 Co1652 2.151 . S
N1693 C1692 1.330 . S
N1693 C1697 1.418 . S
C1694 H1673 0.929 . S
C1694 C1692 1.446 . S
C1694 C1695 1.332 . S
C1695 H1675 0.931 . S
C1695 C1694 1.332 . S
C1695 C1696 1.267 . S
C1696 H1664 0.929 . S
C1696 C1695 1.267 . S
C1696 C1697 1.251 . S
C1697 H1667 0.929 . S
C1697 N1693 1.418 . S
C1697 C1696 1.251 . S
C1698 H1665 0.930 . S
C1698 C1700 1.406 . S
C1698 C1703 1.261 . S
C1699 H1666 0.930 . S
C1699 N1701 1.325 . S
C1699 C1702 1.357 . S
C1700 H1668 0.928 . S
C1700 C1698 1.406 . S
C1700 N1701 1.261 . S
N1701 Co1652 2.214 . S
N1701 C1699 1.325 . S
N1701 C1700 1.261 . S
C1702 H1672 0.931 . S
C1702 C1699 1.357 . S
C1702 C1703 1.312 . S
C1703 H1674 0.930 . S
C1703 C1698 1.261 . S
C1703 C1702 1.312 . S
C1704 O1676 1.214 . S
C1704 O1684 1.234 . S
C1705 H1677 0.929 . S
C1705 C1708 1.391 . S
C1705 C1710 1.391 . S
C1706 H1678 0.929 . S
C1706 C1707 1.390 . S
C1706 N1709 1.391 . S
C1707 H1679 0.930 . S
C1707 C1706 1.390 . S
C1707 C1708 1.392 . S
C1708 H1680 0.929 . S
C1708 C1705 1.391 . S
C1708 C1707 1.392 . S
N1709 Co1653 2.257 . S
N1709 C1706 1.391 . S
N1709 C1710 1.388 . S
C1710 H1681 0.930 . S
C1710 C1705 1.391 . S
C1710 N1709 1.388 . S
Co1711 O1713 2.143 . S
Co1711 O1719 2.074 . S
Co1711 O1722 2.093 . S
Co1711 O1735 2.097 . S
Co1711 N1752 2.151 . S
Co1711 N1760 2.214 . S
Co1712 O1713 2.160 . S
Co1712 O1718 2.058 . S
Co1712 O1728 2.057 . S
Co1712 O1743 2.037 . S
Co1712 N1747 2.145 . S
Co1712 N1768 2.257 . S
O1713 Co1711 2.143 . S
O1713 Co1712 2.160 . S
C1714 O1715 1.278 . S
C1714 O1722 1.224 . S
O1715 C1714 1.278 . S
C1716 O1717 1.245 . S
C1716 O1728 1.232 . S
O1717 C1716 1.245 . S
O1718 Co1712 2.058 . S
O1718 C1744 1.269 . S
O1719 Co1711 2.074 . S
O1719 C1744 1.257 . S
H1720 C1745 0.930 . S
H1721 C1751 0.930 . S
O1722 Co1711 2.093 . S
O1722 C1714 1.224 . S
H1723 C1755 0.929 . S
H1724 C1757 0.930 . S
H1725 C1758 0.930 . S
H1726 C1756 0.929 . S
H1727 C1759 0.928 . S
O1728 Co1712 2.057 . S
O1728 C1716 1.232 . S
H1729 C1748 0.929 . S
H1730 C1749 0.929 . S
H1731 C1761 0.931 . S
H1732 C1753 0.929 . S
H1733 C1762 0.930 . S
H1734 C1754 0.931 . S
O1735 Co1711 2.097 . S
O1735 C1763 1.214 . S
H1736 C1764 0.929 . S
H1737 C1765 0.929 . S
H1738 C1766 0.930 . S
H1739 C1767 0.929 . S
H1740 C1769 0.930 . S
H1741 C1746 0.930 . S
H1742 C1750 0.930 . S
O1743 Co1712 2.037 . S
O1743 C1763 1.234 . S
C1744 O1718 1.269 . S
C1744 O1719 1.257 . S
C1745 H1720 0.930 . S
C1745 C1748 1.388 . S
C1745 C1750 1.418 . S
C1746 H1741 0.930 . S
C1746 C1749 1.404 . S
C1746 C1750 1.353 . S
N1747 Co1712 2.145 . S
N1747 C1748 1.397 . S
N1747 C1749 1.334 . S
C1748 H1729 0.929 . S
C1748 C1745 1.388 . S
C1748 N1747 1.397 . S
C1749 H1730 0.929 . S
C1749 C1746 1.404 . S
C1749 N1747 1.334 . S
C1750 H1742 0.930 . S
C1750 C1745 1.418 . S
C1750 C1746 1.353 . S
C1751 H1721 0.930 . S
C1751 N1752 1.330 . S
C1751 C1753 1.446 . S
N1752 Co1711 2.151 . S
N1752 C1751 1.330 . S
N1752 C1756 1.418 . S
C1753 H1732 0.929 . S
C1753 C1751 1.446 . S
C1753 C1754 1.332 . S
C1754 H1734 0.931 . S
C1754 C1753 1.332 . S
C1754 C1755 1.267 . S
C1755 H1723 0.929 . S
C1755 C1754 1.267 . S
C1755 C1756 1.251 . S
C1756 H1726 0.929 . S
C1756 N1752 1.418 . S
C1756 C1755 1.251 . S
C1757 H1724 0.930 . S
C1757 C1759 1.406 . S
C1757 C1762 1.261 . S
C1758 H1725 0.930 . S
C1758 N1760 1.325 . S
C1758 C1761 1.357 . S
C1759 H1727 0.928 . S
C1759 C1757 1.406 . S
C1759 N1760 1.261 . S
N1760 Co1711 2.214 . S
N1760 C1758 1.325 . S
N1760 C1759 1.261 . S
C1761 H1731 0.931 . S
C1761 C1758 1.357 . S
C1761 C1762 1.312 . S
C1762 H1733 0.930 . S
C1762 C1757 1.261 . S
C1762 C1761 1.312 . S
C1763 O1735 1.214 . S
C1763 O1743 1.234 . S
C1764 H1736 0.929 . S
C1764 C1767 1.391 . S
C1764 C1769 1.391 . S
C1765 H1737 0.929 . S
C1765 C1766 1.390 . S
C1765 N1768 1.391 . S
C1766 H1738 0.930 . S
C1766 C1765 1.390 . S
C1766 C1767 1.392 . S
C1767 H1739 0.929 . S
C1767 C1764 1.391 . S
C1767 C1766 1.392 . S
N1768 Co1712 2.257 . S
N1768 C1765 1.391 . S
N1768 C1769 1.388 . S
C1769 H1740 0.930 . S
C1769 C1764 1.391 . S
C1769 N1768 1.388 . S
Co1770 O1772 2.143 1_556 S
Co1770 O1778 2.074 . S
Co1770 O1781 2.093 . S
Co1770 O1794 2.097 . S
Co1770 N1811 2.151 1_556 S
Co1770 N1819 2.214 . S
Co1771 O1772 2.160 1_556 S
Co1771 O1777 2.058 1_556 S
Co1771 O1787 2.057 1_556 S
Co1771 O1802 2.037 . S
Co1771 N1806 2.145 . S
Co1771 N1827 2.257 . S
O1772 Co1770 2.143 1_554 S
O1772 Co1771 2.160 1_554 S
C1773 O1774 1.275 1_556 S
C1773 O1781 1.224 . S
O1774 C1773 1.275 1_554 S
C1775 O1776 1.245 . S
C1775 O1787 1.232 . S
O1776 C1775 1.245 . S
O1777 Co1771 2.058 1_554 S
O1777 C1803 1.276 . S
O1778 Co1770 2.074 . S
O1778 C1803 1.250 1_556 S
H1779 C1804 0.930 . S
H1780 C1810 0.930 . S
O1781 Co1770 2.093 . S
O1781 C1773 1.224 . S
H1782 C1814 0.929 . S
H1783 C1816 0.930 . S
H1784 C1817 0.930 . S
H1785 C1815 0.929 . S
H1786 C1818 0.928 . S
O1787 Co1771 2.057 1_554 S
O1787 C1775 1.232 . S
H1788 C1807 0.929 . S
H1789 C1808 0.929 . S
H1790 C1820 0.931 . S
H1791 C1812 0.929 . S
H1792 C1821 0.930 . S
H1793 C1813 0.931 . S
O1794 Co1770 2.097 . S
O1794 C1822 1.214 . S
H1795 C1823 0.929 1_554 S
H1796 C1824 0.929 . S
H1797 C1825 0.930 . S
H1798 C1826 0.929 . S
H1799 C1828 0.930 . S
H1800 C1805 0.930 1_554 S
H1801 C1809 0.930 . S
O1802 Co1771 2.037 . S
O1802 C1822 1.234 . S
C1803 O1777 1.276 . S
C1803 O1778 1.250 1_554 S
C1804 H1779 0.930 . S
C1804 C1807 1.388 . S
C1804 C1809 1.418 . S
C1805 H1800 0.930 1_556 S
C1805 C1808 1.404 1_556 S
C1805 C1809 1.353 . S
N1806 Co1771 2.145 . S
N1806 C1807 1.397 . S
N1806 C1808 1.334 1_556 S
C1807 H1788 0.929 . S
C1807 C1804 1.388 . S
C1807 N1806 1.397 . S
C1808 H1789 0.929 . S
C1808 C1805 1.404 1_554 S
C1808 N1806 1.334 1_554 S
C1809 H1801 0.930 . S
C1809 C1804 1.418 . S
C1809 C1805 1.353 . S
C1810 H1780 0.930 . S
C1810 N1811 1.330 . S
C1810 C1812 1.446 . S
N1811 Co1770 2.151 1_554 S
N1811 C1810 1.330 . S
N1811 C1815 1.418 . S
C1812 H1791 0.929 . S
C1812 C1810 1.446 . S
C1812 C1813 1.332 . S
C1813 H1793 0.931 . S
C1813 C1812 1.332 . S
C1813 C1814 1.267 . S
C1814 H1782 0.929 . S
C1814 C1813 1.267 . S
C1814 C1815 1.251 . S
C1815 H1785 0.929 . S
C1815 N1811 1.418 . S
C1815 C1814 1.251 . S
C1816 H1783 0.930 . S
C1816 C1818 1.406 . S
C1816 C1821 1.261 . S
C1817 H1784 0.930 . S
C1817 N1819 1.325 . S
C1817 C1820 1.357 . S
C1818 H1786 0.928 . S
C1818 C1816 1.406 . S
C1818 N1819 1.261 . S
N1819 Co1770 2.214 . S
N1819 C1817 1.325 . S
N1819 C1818 1.261 . S
C1820 H1790 0.931 . S
C1820 C1817 1.357 . S
C1820 C1821 1.312 . S
C1821 H1792 0.930 . S
C1821 C1816 1.261 . S
C1821 C1820 1.312 . S
C1822 O1794 1.214 . S
C1822 O1802 1.234 . S
C1823 H1795 0.929 1_556 S
C1823 C1826 1.391 . S
C1823 C1828 1.391 1_556 S
C1824 H1796 0.929 . S
C1824 C1825 1.390 . S
C1824 N1827 1.391 . S
C1825 H1797 0.930 . S
C1825 C1824 1.390 . S
C1825 C1826 1.392 . S
C1826 H1798 0.929 . S
C1826 C1823 1.391 . S
C1826 C1825 1.392 . S
N1827 Co1771 2.257 . S
N1827 C1824 1.391 . S
N1827 C1828 1.388 1_556 S
C1828 H1799 0.930 . S
C1828 C1823 1.391 1_554 S
C1828 N1827 1.388 1_554 S
Co1829 O1831 2.143 1_556 S
Co1829 O1837 2.074 . S
Co1829 O1840 2.093 . S
Co1829 O1853 2.097 . S
Co1829 N1870 2.151 1_556 S
Co1829 N1878 2.214 . S
Co1830 O1831 2.160 1_556 S
Co1830 O1836 2.058 1_556 S
Co1830 O1846 2.057 1_556 S
Co1830 O1861 2.037 . S
Co1830 N1865 2.145 . S
Co1830 N1886 2.257 . S
O1831 Co1829 2.143 1_554 S
O1831 Co1830 2.160 1_554 S
C1832 O1833 1.275 1_556 S
C1832 O1840 1.224 . S
O1833 C1832 1.275 1_554 S
C1834 O1835 1.245 . S
C1834 O1846 1.232 . S
O1835 C1834 1.245 . S
O1836 Co1830 2.058 1_554 S
O1836 C1862 1.276 . S
O1837 Co1829 2.074 . S
O1837 C1862 1.249 1_556 S
H1838 C1863 0.930 . S
H1839 C1869 0.930 . S
O1840 Co1829 2.093 . S
O1840 C1832 1.224 . S
H1841 C1873 0.929 . S
H1842 C1875 0.930 . S
H1843 C1876 0.930 . S
H1844 C1874 0.929 . S
H1845 C1877 0.928 . S
O1846 Co1830 2.057 1_554 S
O1846 C1834 1.232 . S
H1847 C1866 0.929 . S
H1848 C1867 0.929 . S
H1849 C1879 0.931 . S
H1850 C1871 0.929 . S
H1851 C1880 0.930 . S
H1852 C1872 0.931 . S
O1853 Co1829 2.097 . S
O1853 C1881 1.214 . S
H1854 C1882 0.929 1_554 S
H1855 C1883 0.929 . S
H1856 C1884 0.930 . S
H1857 C1885 0.929 . S
H1858 C1887 0.930 . S
H1859 C1864 0.930 1_554 S
H1860 C1868 0.930 . S
O1861 Co1830 2.037 . S
O1861 C1881 1.234 . S
C1862 O1836 1.276 . S
C1862 O1837 1.249 1_554 S
C1863 H1838 0.930 . S
C1863 C1866 1.388 . S
C1863 C1868 1.418 . S
C1864 H1859 0.930 1_556 S
C1864 C1867 1.404 1_556 S
C1864 C1868 1.353 . S
N1865 Co1830 2.145 . S
N1865 C1866 1.397 . S
N1865 C1867 1.334 1_556 S
C1866 H1847 0.929 . S
C1866 C1863 1.388 . S
C1866 N1865 1.397 . S
C1867 H1848 0.929 . S
C1867 C1864 1.404 1_554 S
C1867 N1865 1.334 1_554 S
C1868 H1860 0.930 . S
C1868 C1863 1.418 . S
C1868 C1864 1.353 . S
C1869 H1839 0.930 . S
C1869 N1870 1.330 . S
C1869 C1871 1.446 . S
N1870 Co1829 2.151 1_554 S
N1870 C1869 1.330 . S
N1870 C1874 1.418 . S
C1871 H1850 0.929 . S
C1871 C1869 1.446 . S
C1871 C1872 1.332 . S
C1872 H1852 0.931 . S
C1872 C1871 1.332 . S
C1872 C1873 1.267 . S
C1873 H1841 0.929 . S
C1873 C1872 1.267 . S
C1873 C1874 1.251 . S
C1874 H1844 0.929 . S
C1874 N1870 1.418 . S
C1874 C1873 1.251 . S
C1875 H1842 0.930 . S
C1875 C1877 1.406 . S
C1875 C1880 1.261 . S
C1876 H1843 0.930 . S
C1876 N1878 1.325 . S
C1876 C1879 1.357 . S
C1877 H1845 0.928 . S
C1877 C1875 1.406 . S
C1877 N1878 1.261 . S
N1878 Co1829 2.214 . S
N1878 C1876 1.325 . S
N1878 C1877 1.261 . S
C1879 H1849 0.931 . S
C1879 C1876 1.357 . S
C1879 C1880 1.312 . S
C1880 H1851 0.930 . S
C1880 C1875 1.261 . S
C1880 C1879 1.312 . S
C1881 O1853 1.214 . S
C1881 O1861 1.234 . S
C1882 H1854 0.929 1_556 S
C1882 C1885 1.391 . S
C1882 C1887 1.391 1_556 S
C1883 H1855 0.929 . S
C1883 C1884 1.390 . S
C1883 N1886 1.391 . S
C1884 H1856 0.930 . S
C1884 C1883 1.390 . S
C1884 C1885 1.392 . S
C1885 H1857 0.929 . S
C1885 C1882 1.391 . S
C1885 C1884 1.392 . S
N1886 Co1830 2.257 . S
N1886 C1883 1.391 . S
N1886 C1887 1.388 1_556 S
C1887 H1858 0.930 . S
C1887 C1882 1.391 1_554 S
C1887 N1886 1.388 1_554 S
H1888 C1894 0.930 . S
H1889 C1897 0.930 . S
H1890 C1898 0.930 . S
H1891 C1899 0.930 . S
H1892 C1902 0.930 1_655 S
H1893 C1903 0.930 1_655 S
C1894 H1888 0.930 . S
C1894 C1895 1.355 . S
C1894 C1896 1.415 . S
C1895 C1894 1.355 . S
C1895 C1897 1.419 . S
C1896 C1894 1.415 . S
C1896 C1901 1.425 . S
C1896 C1903 1.409 . S
C1897 H1889 0.930 . S
C1897 C1895 1.419 . S
C1897 C1898 1.362 . S
C1898 H1890 0.930 . S
C1898 C1897 1.362 . S
C1898 C1901 1.409 . S
C1899 H1891 0.930 . S
C1899 C1900 1.355 . S
C1899 C1901 1.415 . S
C1900 C1899 1.355 . S
C1900 C1902 1.419 . S
C1901 C1896 1.425 . S
C1901 C1898 1.409 . S
C1901 C1899 1.415 . S
C1902 H1892 0.930 1_455 S
C1902 C1900 1.419 . S
C1902 C1903 1.362 . S
C1903 H1893 0.930 1_455 S
C1903 C1896 1.409 . S
C1903 C1902 1.362 . S
H1904 C1910 0.930 . S
H1905 C1913 0.930 . S
H1906 C1914 0.930 . S
H1907 C1915 0.930 . S
H1908 C1918 0.930 . S
H1909 C1919 0.930 . S
C1910 H1904 0.930 . S
C1910 C1911 1.355 . S
C1910 C1912 1.415 . S
C1911 C1910 1.355 . S
C1911 C1913 1.419 . S
C1912 C1910 1.415 . S
C1912 C1917 1.425 . S
C1912 C1919 1.409 . S
C1913 H1905 0.930 . S
C1913 C1911 1.419 . S
C1913 C1914 1.362 . S
C1914 H1906 0.930 . S
C1914 C1913 1.362 . S
C1914 C1917 1.409 . S
C1915 H1907 0.930 . S
C1915 C1916 1.355 . S
C1915 C1917 1.415 . S
C1916 C1915 1.355 . S
C1916 C1918 1.419 . S
C1917 C1912 1.425 . S
C1917 C1914 1.409 . S
C1917 C1915 1.415 . S
C1918 H1908 0.930 . S
C1918 C1916 1.419 . S
C1918 C1919 1.362 . S
C1919 H1909 0.930 . S
C1919 C1912 1.409 . S
C1919 C1918 1.362 . S
H1920 C1926 0.930 . S
H1921 C1929 0.930 . S
H1922 C1930 0.930 1_455 S
H1923 C1931 0.930 1_455 S
H1924 C1934 0.930 . S
H1925 C1935 0.930 . S
C1926 H1920 0.930 . S
C1926 C1927 1.355 . S
C1926 C1928 1.415 . S
C1927 C1926 1.355 . S
C1927 C1929 1.419 . S
C1928 C1926 1.415 . S
C1928 C1933 1.425 . S
C1928 C1935 1.409 . S
C1929 H1921 0.930 . S
C1929 C1927 1.419 . S
C1929 C1930 1.362 . S
C1930 H1922 0.930 1_655 S
C1930 C1929 1.362 . S
C1930 C1933 1.409 . S
C1931 H1923 0.930 1_655 S
C1931 C1932 1.355 . S
C1931 C1933 1.415 . S
C1932 C1931 1.355 . S
C1932 C1934 1.419 . S
C1933 C1928 1.425 . S
C1933 C1930 1.409 . S
C1933 C1931 1.415 . S
C1934 H1924 0.930 . S
C1934 C1932 1.419 . S
C1934 C1935 1.362 . S
C1935 H1925 0.930 . S
C1935 C1928 1.409 . S
C1935 C1934 1.362 . S
H1936 C1942 0.930 . S
H1937 C1945 0.930 . S
H1938 C1946 0.930 . S
H1939 C1947 0.930 . S
H1940 C1950 0.930 . S
H1941 C1951 0.930 . S
C1942 H1936 0.930 . S
C1942 C1943 1.355 . S
C1942 C1944 1.415 . S
C1943 C1942 1.355 . S
C1943 C1945 1.419 . S
C1944 C1942 1.415 . S
C1944 C1949 1.425 . S
C1944 C1951 1.409 . S
C1945 H1937 0.930 . S
C1945 C1943 1.419 . S
C1945 C1946 1.362 . S
C1946 H1938 0.930 . S
C1946 C1945 1.362 . S
C1946 C1949 1.409 . S
C1947 H1939 0.930 . S
C1947 C1948 1.355 . S
C1947 C1949 1.415 . S
C1948 C1947 1.355 . S
C1948 C1950 1.419 . S
C1949 C1944 1.425 . S
C1949 C1946 1.409 . S
C1949 C1947 1.415 . S
C1950 H1940 0.930 . S
C1950 C1948 1.419 . S
C1950 C1951 1.362 . S
C1951 H1941 0.930 . S
C1951 C1944 1.409 . S
C1951 C1950 1.362 . S
H1952 C1958 0.930 . S
H1953 C1961 0.930 . S
H1954 C1962 0.930 . S
H1955 C1963 0.930 . S
H1956 C1966 0.930 . S
H1957 C1967 0.930 . S
C1958 H1952 0.930 . S
C1958 C1959 1.355 . S
C1958 C1960 1.415 . S
C1959 C1958 1.355 . S
C1959 C1961 1.419 . S
C1960 C1958 1.415 . S
C1960 C1965 1.425 . S
C1960 C1967 1.409 . S
C1961 H1953 0.930 . S
C1961 C1959 1.419 . S
C1961 C1962 1.362 . S
C1962 H1954 0.930 . S
C1962 C1961 1.362 . S
C1962 C1965 1.409 . S
C1963 H1955 0.930 . S
C1963 C1964 1.355 . S
C1963 C1965 1.415 . S
C1964 C1963 1.355 . S
C1964 C1966 1.419 . S
C1965 C1960 1.425 . S
C1965 C1962 1.409 . S
C1965 C1963 1.415 . S
C1966 H1956 0.930 . S
C1966 C1964 1.419 . S
C1966 C1967 1.362 . S
C1967 H1957 0.930 . S
C1967 C1960 1.409 . S
C1967 C1966 1.362 . S
H1968 C1974 0.930 . S
H1969 C1977 0.930 . S
H1970 C1978 0.930 . S
H1971 C1979 0.930 . S
H1972 C1982 0.930 . S
H1973 C1983 0.930 . S
C1974 H1968 0.930 . S
C1974 C1975 1.355 . S
C1974 C1976 1.415 . S
C1975 C1974 1.355 . S
C1975 C1977 1.419 . S
C1976 C1974 1.415 . S
C1976 C1981 1.425 . S
C1976 C1983 1.409 . S
C1977 H1969 0.930 . S
C1977 C1975 1.419 . S
C1977 C1978 1.362 . S
C1978 H1970 0.930 . S
C1978 C1977 1.362 . S
C1978 C1981 1.409 . S
C1979 H1971 0.930 . S
C1979 C1980 1.355 . S
C1979 C1981 1.415 . S
C1980 C1979 1.355 . S
C1980 C1982 1.419 . S
C1981 C1976 1.425 . S
C1981 C1978 1.409 . S
C1981 C1979 1.415 . S
C1982 H1972 0.930 . S
C1982 C1980 1.419 . S
C1982 C1983 1.362 . S
C1983 H1973 0.930 . S
C1983 C1976 1.409 . S
C1983 C1982 1.362 . S
H1984 C1990 0.930 . S
H1985 C1993 0.930 . S
H1986 C1994 0.930 . S
H1987 C1995 0.930 . S
H1988 C1998 0.930 1_455 S
H1989 C1999 0.930 . S
C1990 H1984 0.930 . S
C1990 C1991 1.355 . S
C1990 C1992 1.415 . S
C1991 C1990 1.355 . S
C1991 C1993 1.419 . S
C1992 C1990 1.415 . S
C1992 C1997 1.425 . S
C1992 C1999 1.409 . S
C1993 H1985 0.930 . S
C1993 C1991 1.419 . S
C1993 C1994 1.362 . S
C1994 H1986 0.930 . S
C1994 C1993 1.362 . S
C1994 C1997 1.409 . S
C1995 H1987 0.930 . S
C1995 C1996 1.355 . S
C1995 C1997 1.415 . S
C1996 C1995 1.355 . S
C1996 C1998 1.419 . S
C1997 C1992 1.425 . S
C1997 C1994 1.409 . S
C1997 C1995 1.415 . S
C1998 H1988 0.930 1_655 S
C1998 C1996 1.419 . S
C1998 C1999 1.362 . S
C1999 H1989 0.930 . S
C1999 C1992 1.409 . S
C1999 C1998 1.362 . S
H2000 C2006 0.930 . S
H2001 C2009 0.930 . S
H2002 C2010 0.930 . S
H2003 C2011 0.930 . S
H2004 C2014 0.930 . S
H2005 C2015 0.930 . S
C2006 H2000 0.930 . S
C2006 C2007 1.355 . S
C2006 C2008 1.415 . S
C2007 C2006 1.355 . S
C2007 C2009 1.419 . S
C2008 C2006 1.415 . S
C2008 C2013 1.425 . S
C2008 C2015 1.409 . S
C2009 H2001 0.930 . S
C2009 C2007 1.419 . S
C2009 C2010 1.362 . S
C2010 H2002 0.930 . S
C2010 C2009 1.362 . S
C2010 C2013 1.409 . S
C2011 H2003 0.930 . S
C2011 C2012 1.355 . S
C2011 C2013 1.415 . S
C2012 C2011 1.355 . S
C2012 C2014 1.419 . S
C2013 C2008 1.425 . S
C2013 C2010 1.409 . S
C2013 C2011 1.415 . S
C2014 H2004 0.930 . S
C2014 C2012 1.419 . S
C2014 C2015 1.362 . S
C2015 H2005 0.930 . S
C2015 C2008 1.409 . S
C2015 C2014 1.362 . S
H2016 C2022 0.930 . S
H2017 C2025 0.930 . S
H2018 C2026 0.930 . S
H2019 C2027 0.930 . S
H2020 C2030 0.930 . S
H2021 C2031 0.930 . S
C2022 H2016 0.930 . S
C2022 C2023 1.355 . S
C2022 C2024 1.415 . S
C2023 C2022 1.355 . S
C2023 C2025 1.419 . S
C2024 C2022 1.415 . S
C2024 C2029 1.425 . S
C2024 C2031 1.409 . S
C2025 H2017 0.930 . S
C2025 C2023 1.419 . S
C2025 C2026 1.362 . S
C2026 H2018 0.930 . S
C2026 C2025 1.362 . S
C2026 C2029 1.409 . S
C2027 H2019 0.930 . S
C2027 C2028 1.355 . S
C2027 C2029 1.415 . S
C2028 C2027 1.355 . S
C2028 C2030 1.419 . S
C2029 C2024 1.425 . S
C2029 C2026 1.409 . S
C2029 C2027 1.415 . S
C2030 H2020 0.930 . S
C2030 C2028 1.419 . S
C2030 C2031 1.362 . S
C2031 H2021 0.930 . S
C2031 C2024 1.409 . S
C2031 C2030 1.362 . S
H2032 C2038 0.930 . S
H2033 C2041 0.930 . S
H2034 C2042 0.930 . S
H2035 C2043 0.930 . S
H2036 C2046 0.930 . S
H2037 C2047 0.930 . S
C2038 H2032 0.930 . S
C2038 C2039 1.355 . S
C2038 C2040 1.415 . S
C2039 C2038 1.355 . S
C2039 C2041 1.419 . S
C2040 C2038 1.415 . S
C2040 C2045 1.425 . S
C2040 C2047 1.409 . S
C2041 H2033 0.930 . S
C2041 C2039 1.419 . S
C2041 C2042 1.362 . S
C2042 H2034 0.930 . S
C2042 C2041 1.362 . S
C2042 C2045 1.409 . S
C2043 H2035 0.930 . S
C2043 C2044 1.355 . S
C2043 C2045 1.415 . S
C2044 C2043 1.355 . S
C2044 C2046 1.419 . S
C2045 C2040 1.425 . S
C2045 C2042 1.409 . S
C2045 C2043 1.415 . S
C2046 H2036 0.930 . S
C2046 C2044 1.419 . S
C2046 C2047 1.362 . S
C2047 H2037 0.930 . S
C2047 C2040 1.409 . S
C2047 C2046 1.362 . S
H2048 C2054 0.930 . S
H2049 C2057 0.930 . S
H2050 C2058 0.930 . S
H2051 C2059 0.930 . S
H2052 C2062 0.930 . S
H2053 C2063 0.930 . S
C2054 H2048 0.930 . S
C2054 C2055 1.355 . S
C2054 C2056 1.415 . S
C2055 C2054 1.355 . S
C2055 C2057 1.419 . S
C2056 C2054 1.415 . S
C2056 C2061 1.425 . S
C2056 C2063 1.409 . S
C2057 H2049 0.930 . S
C2057 C2055 1.419 . S
C2057 C2058 1.362 . S
C2058 H2050 0.930 . S
C2058 C2057 1.362 . S
C2058 C2061 1.409 . S
C2059 H2051 0.930 . S
C2059 C2060 1.355 . S
C2059 C2061 1.415 . S
C2060 C2059 1.355 . S
C2060 C2062 1.419 . S
C2061 C2056 1.425 . S
C2061 C2058 1.409 . S
C2061 C2059 1.415 . S
C2062 H2052 0.930 . S
C2062 C2060 1.419 . S
C2062 C2063 1.362 . S
C2063 H2053 0.930 . S
C2063 C2056 1.409 . S
C2063 C2062 1.362 . S
H2064 C2070 0.930 . S
H2065 C2073 0.930 . S
H2066 C2074 0.930 . S
H2067 C2075 0.930 . S
H2068 C2078 0.930 . S
H2069 C2079 0.930 . S
C2070 H2064 0.930 . S
C2070 C2071 1.355 . S
C2070 C2072 1.415 . S
C2071 C2070 1.355 . S
C2071 C2073 1.419 . S
C2072 C2070 1.415 . S
C2072 C2077 1.425 . S
C2072 C2079 1.409 . S
C2073 H2065 0.930 . S
C2073 C2071 1.419 . S
C2073 C2074 1.362 . S
C2074 H2066 0.930 . S
C2074 C2073 1.362 . S
C2074 C2077 1.409 . S
C2075 H2067 0.930 . S
C2075 C2076 1.355 . S
C2075 C2077 1.415 . S
C2076 C2075 1.355 . S
C2076 C2078 1.419 . S
C2077 C2072 1.425 . S
C2077 C2074 1.409 . S
C2077 C2075 1.415 . S
C2078 H2068 0.930 . S
C2078 C2076 1.419 . S
C2078 C2079 1.362 . S
C2079 H2069 0.930 . S
C2079 C2072 1.409 . S
C2079 C2078 1.362 . S
H2080 C2086 0.930 . S
H2081 C2089 0.930 . S
H2082 C2090 0.930 . S
H2083 C2091 0.930 . S
H2084 C2094 0.930 . S
H2085 C2095 0.930 . S
C2086 H2080 0.930 . S
C2086 C2087 1.355 . S
C2086 C2088 1.415 . S
C2087 C2086 1.355 . S
C2087 C2089 1.419 . S
C2088 C2086 1.415 . S
C2088 C2093 1.425 . S
C2088 C2095 1.409 . S
C2089 H2081 0.930 . S
C2089 C2087 1.419 . S
C2089 C2090 1.362 . S
C2090 H2082 0.930 . S
C2090 C2089 1.362 . S
C2090 C2093 1.409 . S
C2091 H2083 0.930 . S
C2091 C2092 1.355 . S
C2091 C2093 1.415 . S
C2092 C2091 1.355 . S
C2092 C2094 1.419 . S
C2093 C2088 1.425 . S
C2093 C2090 1.409 . S
C2093 C2091 1.415 . S
C2094 H2084 0.930 . S
C2094 C2092 1.419 . S
C2094 C2095 1.362 . S
C2095 H2085 0.930 . S
C2095 C2088 1.409 . S
C2095 C2094 1.362 . S
H2096 C2102 0.930 . S
H2097 C2105 0.930 . S
H2098 C2106 0.930 . S
H2099 C2107 0.930 . S
H2100 C2110 0.930 . S
H2101 C2111 0.930 . S
C2102 H2096 0.930 . S
C2102 C2103 1.355 . S
C2102 C2104 1.415 . S
C2103 C2102 1.355 . S
C2103 C2105 1.419 . S
C2104 C2102 1.415 . S
C2104 C2109 1.425 . S
C2104 C2111 1.409 . S
C2105 H2097 0.930 . S
C2105 C2103 1.419 . S
C2105 C2106 1.362 . S
C2106 H2098 0.930 . S
C2106 C2105 1.362 . S
C2106 C2109 1.409 . S
C2107 H2099 0.930 . S
C2107 C2108 1.355 . S
C2107 C2109 1.415 . S
C2108 C2107 1.355 . S
C2108 C2110 1.419 . S
C2109 C2104 1.425 . S
C2109 C2106 1.409 . S
C2109 C2107 1.415 . S
C2110 H2100 0.930 . S
C2110 C2108 1.419 . S
C2110 C2111 1.362 . S
C2111 H2101 0.930 . S
C2111 C2104 1.409 . S
C2111 C2110 1.362 . S
H2112 C2118 0.930 . S
H2113 C2121 0.930 . S
H2114 C2122 0.930 . S
H2115 C2123 0.930 . S
H2116 C2126 0.930 . S
H2117 C2127 0.930 . S
C2118 H2112 0.930 . S
C2118 C2119 1.355 . S
C2118 C2120 1.415 . S
C2119 C2118 1.355 . S
C2119 C2121 1.419 . S
C2120 C2118 1.415 . S
C2120 C2125 1.425 . S
C2120 C2127 1.409 . S
C2121 H2113 0.930 . S
C2121 C2119 1.419 . S
C2121 C2122 1.362 . S
C2122 H2114 0.930 . S
C2122 C2121 1.362 . S
C2122 C2125 1.409 . S
C2123 H2115 0.930 . S
C2123 C2124 1.355 . S
C2123 C2125 1.415 . S
C2124 C2123 1.355 . S
C2124 C2126 1.419 . S
C2125 C2120 1.425 . S
C2125 C2122 1.409 . S
C2125 C2123 1.415 . S
C2126 H2116 0.930 . S
C2126 C2124 1.419 . S
C2126 C2127 1.362 . S
C2127 H2117 0.930 . S
C2127 C2120 1.409 . S
C2127 C2126 1.362 . S
H2128 C2134 0.930 . S
H2129 C2137 0.930 . S
H2130 C2138 0.930 . S
H2131 C2139 0.930 . S
H2132 C2142 0.930 . S
H2133 C2143 0.930 . S
C2134 H2128 0.930 . S
C2134 C2135 1.355 . S
C2134 C2136 1.415 . S
C2135 C2134 1.355 . S
C2135 C2137 1.419 . S
C2136 C2134 1.415 . S
C2136 C2141 1.425 . S
C2136 C2143 1.409 . S
C2137 H2129 0.930 . S
C2137 C2135 1.419 . S
C2137 C2138 1.362 . S
C2138 H2130 0.930 . S
C2138 C2137 1.362 . S
C2138 C2141 1.409 . S
C2139 H2131 0.930 . S
C2139 C2140 1.355 . S
C2139 C2141 1.415 . S
C2140 C2139 1.355 . S
C2140 C2142 1.419 . S
C2141 C2136 1.425 . S
C2141 C2138 1.409 . S
C2141 C2139 1.415 . S
C2142 H2132 0.930 . S
C2142 C2140 1.419 . S
C2142 C2143 1.362 . S
C2143 H2133 0.930 . S
C2143 C2136 1.409 . S
C2143 C2142 1.362 . S
H2144 C2150 0.930 . S
H2145 C2153 0.930 . S
H2146 C2154 0.930 . S
H2147 C2155 0.930 . S
H2148 C2158 0.930 . S
H2149 C2159 0.930 . S
C2150 H2144 0.930 . S
C2150 C2151 1.355 . S
C2150 C2152 1.415 . S
C2151 C2150 1.355 . S
C2151 C2153 1.419 . S
C2152 C2150 1.415 . S
C2152 C2157 1.425 1_565 S
C2152 C2159 1.409 . S
C2153 H2145 0.930 . S
C2153 C2151 1.419 . S
C2153 C2154 1.362 1_565 S
C2154 H2146 0.930 . S
C2154 C2153 1.362 1_545 S
C2154 C2157 1.409 . S
C2155 H2147 0.930 . S
C2155 C2156 1.355 . S
C2155 C2157 1.415 . S
C2156 C2155 1.355 . S
C2156 C2158 1.419 . S
C2157 C2152 1.425 1_545 S
C2157 C2154 1.409 . S
C2157 C2155 1.415 . S
C2158 H2148 0.930 . S
C2158 C2156 1.419 . S
C2158 C2159 1.362 1_545 S
C2159 H2149 0.930 . S
C2159 C2152 1.409 . S
C2159 C2158 1.362 1_565 S
H2160 C2166 0.930 . S
H2161 C2169 0.930 . S
H2162 C2170 0.930 . S
H2163 C2171 0.930 . S
H2164 C2174 0.930 . S
H2165 C2175 0.930 . S
C2166 H2160 0.930 . S
C2166 C2167 1.355 . S
C2166 C2168 1.415 . S
C2167 C2166 1.355 . S
C2167 C2169 1.419 . S
C2168 C2166 1.415 . S
C2168 C2173 1.425 1_655 S
C2168 C2175 1.409 . S
C2169 H2161 0.930 . S
C2169 C2167 1.419 . S
C2169 C2170 1.362 1_655 S
C2170 H2162 0.930 . S
C2170 C2169 1.362 1_455 S
C2170 C2173 1.409 . S
C2171 H2163 0.930 . S
C2171 C2172 1.355 . S
C2171 C2173 1.415 . S
C2172 C2171 1.355 . S
C2172 C2174 1.419 . S
C2173 C2168 1.425 1_455 S
C2173 C2170 1.409 . S
C2173 C2171 1.415 . S
C2174 H2164 0.930 . S
C2174 C2172 1.419 . S
C2174 C2175 1.362 1_455 S
C2175 H2165 0.930 . S
C2175 C2168 1.409 . S
C2175 C2174 1.362 1_655 S
H2176 C2182 0.930 . S
H2177 C2185 0.930 . S
H2178 C2186 0.930 . S
H2179 C2187 0.930 . S
H2180 C2190 0.930 . S
H2181 C2191 0.930 . S
C2182 H2176 0.930 . S
C2182 C2183 1.355 1_554 S
C2182 C2184 1.415 . S
C2183 C2182 1.355 1_556 S
C2183 C2185 1.419 . S
C2184 C2182 1.415 . S
C2184 C2189 1.425 1_554 S
C2184 C2191 1.409 . S
C2185 H2177 0.930 . S
C2185 C2183 1.419 . S
C2185 C2186 1.362 . S
C2186 H2178 0.930 . S
C2186 C2185 1.362 . S
C2186 C2189 1.409 . S
C2187 H2179 0.930 . S
C2187 C2188 1.355 1_556 S
C2187 C2189 1.415 . S
C2188 C2187 1.355 1_554 S
C2188 C2190 1.419 . S
C2189 C2184 1.425 1_556 S
C2189 C2186 1.409 . S
C2189 C2187 1.415 . S
C2190 H2180 0.930 . S
C2190 C2188 1.419 . S
C2190 C2191 1.362 . S
C2191 H2181 0.930 . S
C2191 C2184 1.409 . S
C2191 C2190 1.362 . S
H2192 C2198 0.930 . S
H2193 C2201 0.930 . S
H2194 C2202 0.930 . S
H2195 C2203 0.930 . S
H2196 C2206 0.930 . S
H2197 C2207 0.930 . S
C2198 H2192 0.930 . S
C2198 C2199 1.355 1_554 S
C2198 C2200 1.380 1_545 S
C2199 C2198 1.355 1_556 S
C2199 C2201 1.419 1_455 S
C2200 C2198 1.380 1_565 S
C2200 C2205 1.421 1_464 S
C2200 C2207 1.448 . S
C2201 H2193 0.930 . S
C2201 C2199 1.419 1_655 S
C2201 C2202 1.362 . S
C2202 H2194 0.930 . S
C2202 C2201 1.362 . S
C2202 C2205 1.448 . S
C2203 H2195 0.930 . S
C2203 C2204 1.355 1_556 S
C2203 C2205 1.380 1_565 S
C2204 C2203 1.355 1_554 S
C2204 C2206 1.419 1_655 S
C2205 C2200 1.421 1_646 S
C2205 C2202 1.448 . S
C2205 C2203 1.380 1_545 S
C2206 H2196 0.930 . S
C2206 C2204 1.419 1_455 S
C2206 C2207 1.362 . S
C2207 H2197 0.930 . S
C2207 C2200 1.448 . S
C2207 C2206 1.362 . S
H2208 C2214 0.930 . S
H2209 C2217 0.930 . S
H2210 C2218 0.930 . S
H2211 C2219 0.930 . S
H2212 C2222 0.930 . S
H2213 C2223 0.930 . S
C2214 H2208 0.930 . S
C2214 C2215 1.355 . S
C2214 C2216 1.415 . S
C2215 C2214 1.355 . S
C2215 C2217 1.419 . S
C2216 C2214 1.415 . S
C2216 C2221 1.425 1_545 S
C2216 C2223 1.409 . S
C2217 H2209 0.930 . S
C2217 C2215 1.419 . S
C2217 C2218 1.362 1_545 S
C2218 H2210 0.930 . S
C2218 C2217 1.362 1_565 S
C2218 C2221 1.409 . S
C2219 H2211 0.930 . S
C2219 C2220 1.355 . S
C2219 C2221 1.415 . S
C2220 C2219 1.355 . S
C2220 C2222 1.419 . S
C2221 C2216 1.425 1_565 S
C2221 C2218 1.409 . S
C2221 C2219 1.415 . S
C2222 H2212 0.930 . S
C2222 C2220 1.419 . S
C2222 C2223 1.362 1_565 S
C2223 H2213 0.930 . S
C2223 C2216 1.409 . S
C2223 C2222 1.362 1_545 S
H2224 C2230 0.930 . S
H2225 C2233 0.930 . S
H2226 C2234 0.930 . S
H2227 C2235 0.930 . S
H2228 C2238 0.930 . S
H2229 C2239 0.930 . S
C2230 H2224 0.930 . S
C2230 C2231 1.355 . S
C2230 C2232 1.415 1_455 S
C2231 C2230 1.355 . S
C2231 C2233 1.419 . S
C2232 C2230 1.415 1_655 S
C2232 C2237 1.425 1_655 S
C2232 C2239 1.409 . S
C2233 H2225 0.930 . S
C2233 C2231 1.419 . S
C2233 C2234 1.362 . S
C2234 H2226 0.930 . S
C2234 C2233 1.362 . S
C2234 C2237 1.409 . S
C2235 H2227 0.930 . S
C2235 C2236 1.355 . S
C2235 C2237 1.415 1_655 S
C2236 C2235 1.355 . S
C2236 C2238 1.419 . S
C2237 C2232 1.425 1_455 S
C2237 C2234 1.409 . S
C2237 C2235 1.415 1_455 S
C2238 H2228 0.930 . S
C2238 C2236 1.419 . S
C2238 C2239 1.362 . S
C2239 H2229 0.930 . S
C2239 C2232 1.409 . S
C2239 C2238 1.362 . S
H2240 C2246 0.930 . S
H2241 C2249 0.930 . S
H2242 C2250 0.930 . S
H2243 C2251 0.930 . S
H2244 C2254 0.930 . S
H2245 C2255 0.930 . S
C2246 H2240 0.930 . S
C2246 C2247 1.355 1_556 S
C2246 C2248 1.415 . S
C2247 C2246 1.355 1_554 S
C2247 C2249 1.419 . S
C2248 C2246 1.415 . S
C2248 C2253 1.425 1_556 S
C2248 C2255 1.409 . S
C2249 H2241 0.930 . S
C2249 C2247 1.419 . S
C2249 C2250 1.362 . S
C2250 H2242 0.930 . S
C2250 C2249 1.362 . S
C2250 C2253 1.409 . S
C2251 H2243 0.930 . S
C2251 C2252 1.355 1_554 S
C2251 C2253 1.415 . S
C2252 C2251 1.355 1_556 S
C2252 C2254 1.419 . S
C2253 C2248 1.425 1_554 S
C2253 C2250 1.409 . S
C2253 C2251 1.415 . S
C2254 H2244 0.930 . S
C2254 C2252 1.419 . S
C2254 C2255 1.362 . S
C2255 H2245 0.930 . S
C2255 C2248 1.409 . S
C2255 C2254 1.362 . S
H2256 C2262 0.930 . S
H2257 C2265 0.930 . S
H2258 C2266 0.930 . S
H2259 C2267 0.930 . S
H2260 C2270 0.930 . S
H2261 C2271 0.930 . S
C2262 H2256 0.930 . S
C2262 C2263 1.355 . S
C2262 C2264 1.415 . S
C2263 C2262 1.355 . S
C2263 C2265 1.419 . S
C2264 C2262 1.415 . S
C2264 C2269 1.425 . S
C2264 C2271 1.409 . S
C2265 H2257 0.930 . S
C2265 C2263 1.419 . S
C2265 C2266 1.362 . S
C2266 H2258 0.930 . S
C2266 C2265 1.362 . S
C2266 C2269 1.409 . S
C2267 H2259 0.930 . S
C2267 C2268 1.355 . S
C2267 C2269 1.415 . S
C2268 C2267 1.355 . S
C2268 C2270 1.419 . S
C2269 C2264 1.425 . S
C2269 C2266 1.409 . S
C2269 C2267 1.415 . S
C2270 H2260 0.930 . S
C2270 C2268 1.419 . S
C2270 C2271 1.362 . S
C2271 H2261 0.930 . S
C2271 C2264 1.409 . S
C2271 C2270 1.362 . S
H2272 C2278 0.930 . S
H2273 C2281 0.930 . S
H2274 C2282 0.930 . S
H2275 C2283 0.930 . S
H2276 C2286 0.930 . S
H2277 C2287 0.930 . S
C2278 H2272 0.930 . S
C2278 C2279 1.355 . S
C2278 C2280 1.415 . S
C2279 C2278 1.355 . S
C2279 C2281 1.419 . S
C2280 C2278 1.415 . S
C2280 C2285 1.425 . S
C2280 C2287 1.409 . S
C2281 H2273 0.930 . S
C2281 C2279 1.419 . S
C2281 C2282 1.362 . S
C2282 H2274 0.930 . S
C2282 C2281 1.362 . S
C2282 C2285 1.409 . S
C2283 H2275 0.930 . S
C2283 C2284 1.355 . S
C2283 C2285 1.415 . S
C2284 C2283 1.355 . S
C2284 C2286 1.419 . S
C2285 C2280 1.425 . S
C2285 C2282 1.409 . S
C2285 C2283 1.415 . S
C2286 H2276 0.930 . S
C2286 C2284 1.419 . S
C2286 C2287 1.362 . S
C2287 H2277 0.930 . S
C2287 C2280 1.409 . S
C2287 C2286 1.362 . S
H2288 C2294 0.930 . S
H2289 C2297 0.930 . S
H2290 C2298 0.930 . S
H2291 C2299 0.930 . S
H2292 C2302 0.930 . S
H2293 C2303 0.930 . S
C2294 H2288 0.930 . S
C2294 C2295 1.355 . S
C2294 C2296 1.415 . S
C2295 C2294 1.355 . S
C2295 C2297 1.419 1_655 S
C2296 C2294 1.415 . S
C2296 C2301 1.425 1_655 S
C2296 C2303 1.409 . S
C2297 H2289 0.930 . S
C2297 C2295 1.419 1_455 S
C2297 C2298 1.362 . S
C2298 H2290 0.930 . S
C2298 C2297 1.362 . S
C2298 C2301 1.409 . S
C2299 H2291 0.930 . S
C2299 C2300 1.355 . S
C2299 C2301 1.415 . S
C2300 C2299 1.355 . S
C2300 C2302 1.419 1_455 S
C2301 C2296 1.425 1_455 S
C2301 C2298 1.409 . S
C2301 C2299 1.415 . S
C2302 H2292 0.930 . S
C2302 C2300 1.419 1_655 S
C2302 C2303 1.362 . S
C2303 H2293 0.930 . S
C2303 C2296 1.409 . S
C2303 C2302 1.362 . S
H2304 C2310 0.930 . S
H2305 C2313 0.930 . S
H2306 C2314 0.930 . S
H2307 C2315 0.930 . S
H2308 C2318 0.930 . S
H2309 C2319 0.930 . S
C2310 H2304 0.930 . S
C2310 C2311 1.355 . S
C2310 C2312 1.415 . S
C2311 C2310 1.355 . S
C2311 C2313 1.419 . S
C2312 C2310 1.415 . S
C2312 C2317 1.425 . S
C2312 C2319 1.409 . S
C2313 H2305 0.930 . S
C2313 C2311 1.419 . S
C2313 C2314 1.362 . S
C2314 H2306 0.930 . S
C2314 C2313 1.362 . S
C2314 C2317 1.409 . S
C2315 H2307 0.930 . S
C2315 C2316 1.355 . S
C2315 C2317 1.415 . S
C2316 C2315 1.355 . S
C2316 C2318 1.419 . S
C2317 C2312 1.425 . S
C2317 C2314 1.409 . S
C2317 C2315 1.415 . S
C2318 H2308 0.930 . S
C2318 C2316 1.419 . S
C2318 C2319 1.362 . S
C2319 H2309 0.930 . S
C2319 C2312 1.409 . S
C2319 C2318 1.362 . S
H2320 C2326 0.930 . S
H2321 C2329 0.930 . S
H2322 C2330 0.930 . S
H2323 C2331 0.930 . S
H2324 C2334 0.930 . S
H2325 C2335 0.930 . S
C2326 H2320 0.930 . S
C2326 C2327 1.355 . S
C2326 C2328 1.415 . S
C2327 C2326 1.355 . S
C2327 C2329 1.419 . S
C2328 C2326 1.415 . S
C2328 C2333 1.425 . S
C2328 C2335 1.409 . S
C2329 H2321 0.930 . S
C2329 C2327 1.419 . S
C2329 C2330 1.362 . S
C2330 H2322 0.930 . S
C2330 C2329 1.362 . S
C2330 C2333 1.409 . S
C2331 H2323 0.930 . S
C2331 C2332 1.355 . S
C2331 C2333 1.415 . S
C2332 C2331 1.355 . S
C2332 C2334 1.419 . S
C2333 C2328 1.425 . S
C2333 C2330 1.409 . S
C2333 C2331 1.415 . S
C2334 H2324 0.930 . S
C2334 C2332 1.419 . S
C2334 C2335 1.362 . S
C2335 H2325 0.930 . S
C2335 C2328 1.409 . S
C2335 C2334 1.362 . S
H2336 C2342 0.930 . S
H2337 C2345 0.930 . S
H2338 C2346 0.930 . S
H2339 C2347 0.930 . S
H2340 C2350 0.930 . S
H2341 C2351 0.930 . S
C2342 H2336 0.930 . S
C2342 C2343 1.355 . S
C2342 C2344 1.415 . S
C2343 C2342 1.355 . S
C2343 C2345 1.419 . S
C2344 C2342 1.415 . S
C2344 C2349 1.425 . S
C2344 C2351 1.409 . S
C2345 H2337 0.930 . S
C2345 C2343 1.419 . S
C2345 C2346 1.362 . S
C2346 H2338 0.930 . S
C2346 C2345 1.362 . S
C2346 C2349 1.409 . S
C2347 H2339 0.930 . S
C2347 C2348 1.355 . S
C2347 C2349 1.415 . S
C2348 C2347 1.355 . S
C2348 C2350 1.419 . S
C2349 C2344 1.425 . S
C2349 C2346 1.409 . S
C2349 C2347 1.415 . S
C2350 H2340 0.930 . S
C2350 C2348 1.419 . S
C2350 C2351 1.362 . S
C2351 H2341 0.930 . S
C2351 C2344 1.409 . S
C2351 C2350 1.362 . S
H2352 C2358 0.930 . S
H2353 C2361 0.930 . S
H2354 C2362 0.930 . S
H2355 C2363 0.930 . S
H2356 C2366 0.930 . S
H2357 C2367 0.930 . S
C2358 H2352 0.930 . S
C2358 C2359 1.355 . S
C2358 C2360 1.415 . S
C2359 C2358 1.355 . S
C2359 C2361 1.419 . S
C2360 C2358 1.415 . S
C2360 C2365 1.425 1_545 S
C2360 C2367 1.409 1_545 S
C2361 H2353 0.930 . S
C2361 C2359 1.419 . S
C2361 C2362 1.362 . S
C2362 H2354 0.930 . S
C2362 C2361 1.362 . S
C2362 C2365 1.409 1_545 S
C2363 H2355 0.930 . S
C2363 C2364 1.355 . S
C2363 C2365 1.415 . S
C2364 C2363 1.355 . S
C2364 C2366 1.419 . S
C2365 C2360 1.425 1_565 S
C2365 C2362 1.409 1_565 S
C2365 C2363 1.415 . S
C2366 H2356 0.930 . S
C2366 C2364 1.419 . S
C2366 C2367 1.362 . S
C2367 H2357 0.930 . S
C2367 C2360 1.409 1_565 S
C2367 C2366 1.362 . S
H2368 C2374 0.930 . S
H2369 C2377 0.930 . S
H2370 C2378 0.930 . S
H2371 C2379 0.930 . S
H2372 C2382 0.930 . S
H2373 C2383 0.930 . S
C2374 H2368 0.930 . S
C2374 C2375 1.355 . S
C2374 C2376 1.415 . S
C2375 C2374 1.355 . S
C2375 C2377 1.419 . S
C2376 C2374 1.415 . S
C2376 C2381 1.425 . S
C2376 C2383 1.409 . S
C2377 H2369 0.930 . S
C2377 C2375 1.419 . S
C2377 C2378 1.362 . S
C2378 H2370 0.930 . S
C2378 C2377 1.362 . S
C2378 C2381 1.409 . S
C2379 H2371 0.930 . S
C2379 C2380 1.355 . S
C2379 C2381 1.415 . S
C2380 C2379 1.355 . S
C2380 C2382 1.419 . S
C2381 C2376 1.425 . S
C2381 C2378 1.409 . S
C2381 C2379 1.415 . S
C2382 H2372 0.930 . S
C2382 C2380 1.419 . S
C2382 C2383 1.362 . S
C2383 H2373 0.930 . S
C2383 C2376 1.409 . S
C2383 C2382 1.362 . S
H2384 C2390 0.930 . S
H2385 C2393 0.930 . S
H2386 C2394 0.930 . S
H2387 C2395 0.930 . S
H2388 C2398 0.930 . S
H2389 C2399 0.930 . S
C2390 H2384 0.930 . S
C2390 C2391 1.342 1_554 S
C2390 C2392 1.415 . S
C2391 C2390 1.342 1_556 S
C2391 C2393 1.437 . S
C2392 C2390 1.415 . S
C2392 C2397 1.425 1_554 S
C2392 C2399 1.409 . S
C2393 H2385 0.930 . S
C2393 C2391 1.437 . S
C2393 C2394 1.362 . S
C2394 H2386 0.930 . S
C2394 C2393 1.362 . S
C2394 C2397 1.409 . S
C2395 H2387 0.930 . S
C2395 C2396 1.342 1_556 S
C2395 C2397 1.415 . S
C2396 C2395 1.342 1_554 S
C2396 C2398 1.437 . S
C2397 C2392 1.425 1_556 S
C2397 C2394 1.409 . S
C2397 C2395 1.415 . S
C2398 H2388 0.930 . S
C2398 C2396 1.437 . S
C2398 C2399 1.362 . S
C2399 H2389 0.930 . S
C2399 C2392 1.409 . S
C2399 C2398 1.362 . S
H2400 C2406 0.930 . S
H2401 C2409 0.930 . S
H2402 C2410 0.930 . S
H2403 C2411 0.930 . S
H2404 C2414 0.930 . S
H2405 C2415 0.930 . S
C2406 H2400 0.930 . S
C2406 C2407 1.355 . S
C2406 C2408 1.415 . S
C2407 C2406 1.355 . S
C2407 C2409 1.419 . S
C2408 C2406 1.415 . S
C2408 C2413 1.425 . S
C2408 C2415 1.409 . S
C2409 H2401 0.930 . S
C2409 C2407 1.419 . S
C2409 C2410 1.362 . S
C2410 H2402 0.930 . S
C2410 C2409 1.362 . S
C2410 C2413 1.409 . S
C2411 H2403 0.930 . S
C2411 C2412 1.355 . S
C2411 C2413 1.415 . S
C2412 C2411 1.355 . S
C2412 C2414 1.419 . S
C2413 C2408 1.425 . S
C2413 C2410 1.409 . S
C2413 C2411 1.415 . S
C2414 H2404 0.930 . S
C2414 C2412 1.419 . S
C2414 C2415 1.362 . S
C2415 H2405 0.930 . S
C2415 C2408 1.409 . S
C2415 C2414 1.362 . S
H2416 C2422 0.930 . S
H2417 C2425 0.930 . S
H2418 C2426 0.930 . S
H2419 C2427 0.930 . S
H2420 C2430 0.930 . S
H2421 C2431 0.930 1_655 S
C2422 H2416 0.930 . S
C2422 C2423 1.352 1_556 S
C2422 C2424 1.415 . S
C2423 C2422 1.352 1_554 S
C2423 C2425 1.423 . S
C2424 C2422 1.415 . S
C2424 C2429 1.425 1_556 S
C2424 C2431 1.409 . S
C2425 H2417 0.930 . S
C2425 C2423 1.423 . S
C2425 C2426 1.362 . S
C2426 H2418 0.930 . S
C2426 C2425 1.362 . S
C2426 C2429 1.409 . S
C2427 H2419 0.930 . S
C2427 C2428 1.355 1_554 S
C2427 C2429 1.415 . S
C2428 C2427 1.355 1_556 S
C2428 C2430 1.419 . S
C2429 C2424 1.425 1_554 S
C2429 C2426 1.409 . S
C2429 C2427 1.415 . S
C2430 H2420 0.930 . S
C2430 C2428 1.419 . S
C2430 C2431 1.362 . S
C2431 H2421 0.930 1_455 S
C2431 C2424 1.409 . S
C2431 C2430 1.362 . S
H2432 C2438 0.930 . S
H2433 C2441 0.930 . S
H2434 C2442 0.930 . S
H2435 C2443 0.930 . S
H2436 C2446 0.930 . S
H2437 C2447 0.930 . S
C2438 H2432 0.930 . S
C2438 C2439 1.355 . S
C2438 C2440 1.415 . S
C2439 C2438 1.355 . S
C2439 C2441 1.419 . S
C2440 C2438 1.415 . S
C2440 C2445 1.425 . S
C2440 C2447 1.409 . S
C2441 H2433 0.930 . S
C2441 C2439 1.419 . S
C2441 C2442 1.362 . S
C2442 H2434 0.930 . S
C2442 C2441 1.362 . S
C2442 C2445 1.409 . S
C2443 H2435 0.930 . S
C2443 C2444 1.355 . S
C2443 C2445 1.415 . S
C2444 C2443 1.355 . S
C2444 C2446 1.419 . S
C2445 C2440 1.425 . S
C2445 C2442 1.409 . S
C2445 C2443 1.415 . S
C2446 H2436 0.930 . S
C2446 C2444 1.419 . S
C2446 C2447 1.362 . S
C2447 H2437 0.930 . S
C2447 C2440 1.409 . S
C2447 C2446 1.362 . S
H2448 C2454 0.930 . S
H2449 C2457 0.930 . S
H2450 C2458 0.930 . S
H2451 C2459 0.930 . S
H2452 C2462 0.930 . S
H2453 C2463 0.930 . S
C2454 H2448 0.930 . S
C2454 C2455 1.357 . S
C2454 C2456 1.415 . S
C2455 C2454 1.357 . S
C2455 C2457 1.416 1_554 S
C2456 C2454 1.415 . S
C2456 C2461 1.425 1_554 S
C2456 C2463 1.409 . S
C2457 H2449 0.930 . S
C2457 C2455 1.416 1_556 S
C2457 C2458 1.362 . S
C2458 H2450 0.930 . S
C2458 C2457 1.362 . S
C2458 C2461 1.409 . S
C2459 H2451 0.930 . S
C2459 C2460 1.355 1_556 S
C2459 C2461 1.415 . S
C2460 C2459 1.355 1_554 S
C2460 C2462 1.419 . S
C2461 C2456 1.425 1_556 S
C2461 C2458 1.409 . S
C2461 C2459 1.415 . S
C2462 H2452 0.930 . S
C2462 C2460 1.419 . S
C2462 C2463 1.362 . S
C2463 H2453 0.930 . S
C2463 C2456 1.409 . S
C2463 C2462 1.362 . S
H2464 C2470 0.930 . S
H2465 C2473 0.930 . S
H2466 C2474 0.930 . S
H2467 C2475 0.930 . S
H2468 C2478 0.930 . S
H2469 C2479 0.930 1_655 S
C2470 H2464 0.930 . S
C2470 C2471 1.355 . S
C2470 C2472 1.415 . S
C2471 C2470 1.355 . S
C2471 C2473 1.419 . S
C2472 C2470 1.415 . S
C2472 C2477 1.425 . S
C2472 C2479 1.409 . S
C2473 H2465 0.930 . S
C2473 C2471 1.419 . S
C2473 C2474 1.362 . S
C2474 H2466 0.930 . S
C2474 C2473 1.362 . S
C2474 C2477 1.409 . S
C2475 H2467 0.930 . S
C2475 C2476 1.355 . S
C2475 C2477 1.415 . S
C2476 C2475 1.355 . S
C2476 C2478 1.419 . S
C2477 C2472 1.425 . S
C2477 C2474 1.409 . S
C2477 C2475 1.415 . S
C2478 H2468 0.930 . S
C2478 C2476 1.419 . S
C2478 C2479 1.362 . S
C2479 H2469 0.930 1_455 S
C2479 C2472 1.409 . S
C2479 C2478 1.362 . S
H2480 C2486 0.930 . S
H2481 C2489 0.930 . S
H2482 C2490 0.930 1_655 S
H2483 C2491 0.930 . S
H2484 C2494 0.930 . S
H2485 C2495 0.930 . S
C2486 H2480 0.930 . S
C2486 C2487 1.355 . S
C2486 C2488 1.415 . S
C2487 C2486 1.355 . S
C2487 C2489 1.419 . S
C2488 C2486 1.415 . S
C2488 C2493 1.425 . S
C2488 C2495 1.409 . S
C2489 H2481 0.930 . S
C2489 C2487 1.419 . S
C2489 C2490 1.362 . S
C2490 H2482 0.930 1_455 S
C2490 C2489 1.362 . S
C2490 C2493 1.409 . S
C2491 H2483 0.930 . S
C2491 C2492 1.355 . S
C2491 C2493 1.415 . S
C2492 C2491 1.355 . S
C2492 C2494 1.419 . S
C2493 C2488 1.425 . S
C2493 C2490 1.409 . S
C2493 C2491 1.415 . S
C2494 H2484 0.930 . S
C2494 C2492 1.419 . S
C2494 C2495 1.362 . S
C2495 H2485 0.930 . S
C2495 C2488 1.409 . S
C2495 C2494 1.362 . S
H2496 C2502 0.930 . S
H2497 C2505 0.930 . S
H2498 C2506 0.930 . S
H2499 C2507 0.930 . S
H2500 C2510 0.930 . S
H2501 C2511 0.930 . S
C2502 H2496 0.930 . S
C2502 C2503 1.355 . S
C2502 C2504 1.415 . S
C2503 C2502 1.355 . S
C2503 C2505 1.419 . S
C2504 C2502 1.415 . S
C2504 C2509 1.425 . S
C2504 C2511 1.409 . S
C2505 H2497 0.930 . S
C2505 C2503 1.419 . S
C2505 C2506 1.362 . S
C2506 H2498 0.930 . S
C2506 C2505 1.362 . S
C2506 C2509 1.409 . S
C2507 H2499 0.930 . S
C2507 C2508 1.355 . S
C2507 C2509 1.415 . S
C2508 C2507 1.355 . S
C2508 C2510 1.419 . S
C2509 C2504 1.425 . S
C2509 C2506 1.409 . S
C2509 C2507 1.415 . S
C2510 H2500 0.930 . S
C2510 C2508 1.419 . S
C2510 C2511 1.362 . S
C2511 H2501 0.930 . S
C2511 C2504 1.409 . S
C2511 C2510 1.362 . S
H2512 C2518 0.930 . S
H2513 C2521 0.930 . S
H2514 C2522 0.930 . S
H2515 C2523 0.930 . S
H2516 C2526 0.930 . S
H2517 C2527 0.930 . S
C2518 H2512 0.930 . S
C2518 C2519 1.355 . S
C2518 C2520 1.415 . S
C2519 C2518 1.355 . S
C2519 C2521 1.419 . S
C2520 C2518 1.415 . S
C2520 C2525 1.425 . S
C2520 C2527 1.409 . S
C2521 H2513 0.930 . S
C2521 C2519 1.419 . S
C2521 C2522 1.362 . S
C2522 H2514 0.930 . S
C2522 C2521 1.362 . S
C2522 C2525 1.409 . S
C2523 H2515 0.930 . S
C2523 C2524 1.355 . S
C2523 C2525 1.415 . S
C2524 C2523 1.355 . S
C2524 C2526 1.419 . S
C2525 C2520 1.425 . S
C2525 C2522 1.409 . S
C2525 C2523 1.415 . S
C2526 H2516 0.930 . S
C2526 C2524 1.419 . S
C2526 C2527 1.362 . S
C2527 H2517 0.930 . S
C2527 C2520 1.409 . S
C2527 C2526 1.362 . S
H2528 C2534 0.930 . S
H2529 C2537 0.930 . S
H2530 C2538 0.930 . S
H2531 C2539 0.930 . S
H2532 C2542 0.930 . S
H2533 C2543 0.930 . S
C2534 H2528 0.930 . S
C2534 C2535 1.355 . S
C2534 C2536 1.415 . S
C2535 C2534 1.355 . S
C2535 C2537 1.419 . S
C2536 C2534 1.415 . S
C2536 C2541 1.425 . S
C2536 C2543 1.409 . S
C2537 H2529 0.930 . S
C2537 C2535 1.419 . S
C2537 C2538 1.362 . S
C2538 H2530 0.930 . S
C2538 C2537 1.362 . S
C2538 C2541 1.409 . S
C2539 H2531 0.930 . S
C2539 C2540 1.355 . S
C2539 C2541 1.415 . S
C2540 C2539 1.355 . S
C2540 C2542 1.419 . S
C2541 C2536 1.425 . S
C2541 C2538 1.409 . S
C2541 C2539 1.415 . S
C2542 H2532 0.930 . S
C2542 C2540 1.419 . S
C2542 C2543 1.362 . S
C2543 H2533 0.930 . S
C2543 C2536 1.409 . S
C2543 C2542 1.362 . S
H2544 C2550 0.930 . S
H2545 C2553 0.930 . S
H2546 C2554 0.930 . S
H2547 C2555 0.930 . S
H2548 C2558 0.930 . S
H2549 C2559 0.930 . S
C2550 H2544 0.930 . S
C2550 C2551 1.355 . S
C2550 C2552 1.415 . S
C2551 C2550 1.355 . S
C2551 C2553 1.419 . S
C2552 C2550 1.415 . S
C2552 C2557 1.425 . S
C2552 C2559 1.409 . S
C2553 H2545 0.930 . S
C2553 C2551 1.419 . S
C2553 C2554 1.362 . S
C2554 H2546 0.930 . S
C2554 C2553 1.362 . S
C2554 C2557 1.409 . S
C2555 H2547 0.930 . S
C2555 C2556 1.355 . S
C2555 C2557 1.415 . S
C2556 C2555 1.355 . S
C2556 C2558 1.419 . S
C2557 C2552 1.425 . S
C2557 C2554 1.409 . S
C2557 C2555 1.415 . S
C2558 H2548 0.930 . S
C2558 C2556 1.419 . S
C2558 C2559 1.362 . S
C2559 H2549 0.930 . S
C2559 C2552 1.409 . S
C2559 C2558 1.362 . S
H2560 C2566 0.930 . S
H2561 C2569 0.930 . S
H2562 C2570 0.930 . S
H2563 C2571 0.930 . S
H2564 C2574 0.930 . S
H2565 C2575 0.930 . S
C2566 H2560 0.930 . S
C2566 C2567 1.355 . S
C2566 C2568 1.415 . S
C2567 C2566 1.355 . S
C2567 C2569 1.419 . S
C2568 C2566 1.415 . S
C2568 C2573 1.425 . S
C2568 C2575 1.409 . S
C2569 H2561 0.930 . S
C2569 C2567 1.419 . S
C2569 C2570 1.362 . S
C2570 H2562 0.930 . S
C2570 C2569 1.362 . S
C2570 C2573 1.409 . S
C2571 H2563 0.930 . S
C2571 C2572 1.355 . S
C2571 C2573 1.415 . S
C2572 C2571 1.355 . S
C2572 C2574 1.419 . S
C2573 C2568 1.425 . S
C2573 C2570 1.409 . S
C2573 C2571 1.415 . S
C2574 H2564 0.930 . S
C2574 C2572 1.419 . S
C2574 C2575 1.362 . S
C2575 H2565 0.930 . S
C2575 C2568 1.409 . S
C2575 C2574 1.362 . S
H2576 C2582 0.930 . S
H2577 C2585 0.930 . S
H2578 C2586 0.930 . S
H2579 C2587 0.930 . S
H2580 C2590 0.930 . S
H2581 C2591 0.930 . S
C2582 H2576 0.930 . S
C2582 C2583 1.355 . S
C2582 C2584 1.415 . S
C2583 C2582 1.355 . S
C2583 C2585 1.419 . S
C2584 C2582 1.415 . S
C2584 C2589 1.425 . S
C2584 C2591 1.409 . S
C2585 H2577 0.930 . S
C2585 C2583 1.419 . S
C2585 C2586 1.362 . S
C2586 H2578 0.930 . S
C2586 C2585 1.362 . S
C2586 C2589 1.409 . S
C2587 H2579 0.930 . S
C2587 C2588 1.355 . S
C2587 C2589 1.415 . S
C2588 C2587 1.355 . S
C2588 C2590 1.419 . S
C2589 C2584 1.425 . S
C2589 C2586 1.409 . S
C2589 C2587 1.415 . S
C2590 H2580 0.930 . S
C2590 C2588 1.419 . S
C2590 C2591 1.362 . S
C2591 H2581 0.930 . S
C2591 C2584 1.409 . S
C2591 C2590 1.362 . S
H2592 C2598 0.930 . S
H2593 C2601 0.930 . S
H2594 C2602 0.930 . S
H2595 C2603 0.930 . S
H2596 C2606 0.930 . S
H2597 C2607 0.930 . S
C2598 H2592 0.930 . S
C2598 C2599 1.355 . S
C2598 C2600 1.415 . S
C2599 C2598 1.355 . S
C2599 C2601 1.419 . S
C2600 C2598 1.415 . S
C2600 C2605 1.425 . S
C2600 C2607 1.409 . S
C2601 H2593 0.930 . S
C2601 C2599 1.419 . S
C2601 C2602 1.362 . S
C2602 H2594 0.930 . S
C2602 C2601 1.362 . S
C2602 C2605 1.409 . S
C2603 H2595 0.930 . S
C2603 C2604 1.355 . S
C2603 C2605 1.415 . S
C2604 C2603 1.355 . S
C2604 C2606 1.419 . S
C2605 C2600 1.425 . S
C2605 C2602 1.409 . S
C2605 C2603 1.415 . S
C2606 H2596 0.930 . S
C2606 C2604 1.419 . S
C2606 C2607 1.362 . S
C2607 H2597 0.930 . S
C2607 C2600 1.409 . S
C2607 C2606 1.362 . S
H2608 C2614 0.930 . S
H2609 C2617 0.930 . S
H2610 C2618 0.930 . S
H2611 C2619 0.930 . S
H2612 C2622 0.930 . S
H2613 C2623 0.930 . S
C2614 H2608 0.930 . S
C2614 C2615 1.355 1_554 S
C2614 C2616 1.415 . S
C2615 C2614 1.355 1_556 S
C2615 C2617 1.419 . S
C2616 C2614 1.415 . S
C2616 C2621 1.425 1_554 S
C2616 C2623 1.409 . S
C2617 H2609 0.930 . S
C2617 C2615 1.419 . S
C2617 C2618 1.362 . S
C2618 H2610 0.930 . S
C2618 C2617 1.362 . S
C2618 C2621 1.409 . S
C2619 H2611 0.930 . S
C2619 C2620 1.355 1_556 S
C2619 C2621 1.415 . S
C2620 C2619 1.355 1_554 S
C2620 C2622 1.419 . S
C2621 C2616 1.425 1_556 S
C2621 C2618 1.409 . S
C2621 C2619 1.415 . S
C2622 H2612 0.930 . S
C2622 C2620 1.419 . S
C2622 C2623 1.362 . S
C2623 H2613 0.930 . S
C2623 C2616 1.409 . S
C2623 C2622 1.362 . S
H2624 C2630 0.930 . S
H2625 C2633 0.930 . S
H2626 C2634 0.930 . S
H2627 C2635 0.930 . S
H2628 C2638 0.930 . S
H2629 C2639 0.930 . S
C2630 H2624 0.930 . S
C2630 C2631 1.355 . S
C2630 C2632 1.415 . S
C2631 C2630 1.355 . S
C2631 C2633 1.419 . S
C2632 C2630 1.415 . S
C2632 C2637 1.425 . S
C2632 C2639 1.409 . S
C2633 H2625 0.930 . S
C2633 C2631 1.419 . S
C2633 C2634 1.362 . S
C2634 H2626 0.930 . S
C2634 C2633 1.362 . S
C2634 C2637 1.409 . S
C2635 H2627 0.930 . S
C2635 C2636 1.355 . S
C2635 C2637 1.415 . S
C2636 C2635 1.355 . S
C2636 C2638 1.419 . S
C2637 C2632 1.425 . S
C2637 C2634 1.409 . S
C2637 C2635 1.415 . S
C2638 H2628 0.930 . S
C2638 C2636 1.419 . S
C2638 C2639 1.362 . S
C2639 H2629 0.930 . S
C2639 C2632 1.409 . S
C2639 C2638 1.362 . S
H2640 C2646 0.930 . S
H2641 C2649 0.930 . S
H2642 C2650 0.930 . S
H2643 C2651 0.930 . S
H2644 C2654 0.930 . S
H2645 C2655 0.930 . S
C2646 H2640 0.930 . S
C2646 C2647 1.355 1_556 S
C2646 C2648 1.415 . S
C2647 C2646 1.355 1_554 S
C2647 C2649 1.419 . S
C2648 C2646 1.415 . S
C2648 C2653 1.425 1_556 S
C2648 C2655 1.409 . S
C2649 H2641 0.930 . S
C2649 C2647 1.419 . S
C2649 C2650 1.362 . S
C2650 H2642 0.930 . S
C2650 C2649 1.362 . S
C2650 C2653 1.409 . S
C2651 H2643 0.930 . S
C2651 C2652 1.357 1_554 S
C2651 C2653 1.415 . S
C2652 C2651 1.357 1_556 S
C2652 C2654 1.417 . S
C2653 C2648 1.425 1_554 S
C2653 C2650 1.409 . S
C2653 C2651 1.415 . S
C2654 H2644 0.930 . S
C2654 C2652 1.417 . S
C2654 C2655 1.362 . S
C2655 H2645 0.930 . S
C2655 C2648 1.409 . S
C2655 C2654 1.362 . S
H2656 C2662 0.930 . S
H2657 C2665 0.930 1_455 S
H2658 C2666 0.930 1_455 S
H2659 C2667 0.930 . S
H2660 C2670 0.930 . S
H2661 C2671 0.930 . S
C2662 H2656 0.930 . S
C2662 C2663 1.355 . S
C2662 C2664 1.415 . S
C2663 C2662 1.355 . S
C2663 C2665 1.419 . S
C2664 C2662 1.415 . S
C2664 C2669 1.425 . S
C2664 C2671 1.409 . S
C2665 H2657 0.930 1_655 S
C2665 C2663 1.419 . S
C2665 C2666 1.362 . S
C2666 H2658 0.930 1_655 S
C2666 C2665 1.362 . S
C2666 C2669 1.409 . S
C2667 H2659 0.930 . S
C2667 C2668 1.355 . S
C2667 C2669 1.415 . S
C2668 C2667 1.355 . S
C2668 C2670 1.419 . S
C2669 C2664 1.425 . S
C2669 C2666 1.409 . S
C2669 C2667 1.415 . S
C2670 H2660 0.930 . S
C2670 C2668 1.419 . S
C2670 C2671 1.362 . S
C2671 H2661 0.930 . S
C2671 C2664 1.409 . S
C2671 C2670 1.362 . S
H2672 C2678 0.930 . S
H2673 C2681 0.930 . S
H2674 C2682 0.930 . S
H2675 C2683 0.930 . S
H2676 C2686 0.930 . S
H2677 C2687 0.930 . S
C2678 H2672 0.930 . S
C2678 C2679 1.355 . S
C2678 C2680 1.415 . S
C2679 C2678 1.355 . S
C2679 C2681 1.419 . S
C2680 C2678 1.415 . S
C2680 C2685 1.425 . S
C2680 C2687 1.409 . S
C2681 H2673 0.930 . S
C2681 C2679 1.419 . S
C2681 C2682 1.362 . S
C2682 H2674 0.930 . S
C2682 C2681 1.362 . S
C2682 C2685 1.409 . S
C2683 H2675 0.930 . S
C2683 C2684 1.355 . S
C2683 C2685 1.415 . S
C2684 C2683 1.355 . S
C2684 C2686 1.419 . S
C2685 C2680 1.425 . S
C2685 C2682 1.409 . S
C2685 C2683 1.415 . S
C2686 H2676 0.930 . S
C2686 C2684 1.419 . S
C2686 C2687 1.362 . S
C2687 H2677 0.930 . S
C2687 C2680 1.409 . S
C2687 C2686 1.362 . S
H2688 C2694 0.930 . S
H2689 C2697 0.930 . S
H2690 C2698 0.930 . S
H2691 C2699 0.930 . S
H2692 C2702 0.930 . S
H2693 C2703 0.930 . S
C2694 H2688 0.930 . S
C2694 C2695 1.355 . S
C2694 C2696 1.415 . S
C2695 C2694 1.355 . S
C2695 C2697 1.419 . S
C2696 C2694 1.415 . S
C2696 C2701 1.425 . S
C2696 C2703 1.409 . S
C2697 H2689 0.930 . S
C2697 C2695 1.419 . S
C2697 C2698 1.362 . S
C2698 H2690 0.930 . S
C2698 C2697 1.362 . S
C2698 C2701 1.409 . S
C2699 H2691 0.930 . S
C2699 C2700 1.355 . S
C2699 C2701 1.415 . S
C2700 C2699 1.355 . S
C2700 C2702 1.419 . S
C2701 C2696 1.425 . S
C2701 C2698 1.409 . S
C2701 C2699 1.415 . S
C2702 H2692 0.930 . S
C2702 C2700 1.419 . S
C2702 C2703 1.362 . S
C2703 H2693 0.930 . S
C2703 C2696 1.409 . S
C2703 C2702 1.362 . S
H2704 C2710 0.930 . S
H2705 C2713 0.930 . S
H2706 C2714 0.930 . S
H2707 C2715 0.930 . S
H2708 C2718 0.930 . S
H2709 C2719 0.930 . S
C2710 H2704 0.930 . S
C2710 C2711 1.355 . S
C2710 C2712 1.415 . S
C2711 C2710 1.355 . S
C2711 C2713 1.419 . S
C2712 C2710 1.415 . S
C2712 C2717 1.425 . S
C2712 C2719 1.409 . S
C2713 H2705 0.930 . S
C2713 C2711 1.419 . S
C2713 C2714 1.362 . S
C2714 H2706 0.930 . S
C2714 C2713 1.362 . S
C2714 C2717 1.409 . S
C2715 H2707 0.930 . S
C2715 C2716 1.355 . S
C2715 C2717 1.415 . S
C2716 C2715 1.355 . S
C2716 C2718 1.419 . S
C2717 C2712 1.425 . S
C2717 C2714 1.409 . S
C2717 C2715 1.415 . S
C2718 H2708 0.930 . S
C2718 C2716 1.419 . S
C2718 C2719 1.362 . S
C2719 H2709 0.930 . S
C2719 C2712 1.409 . S
C2719 C2718 1.362 . S
H2720 C2726 0.930 . S
H2721 C2729 0.930 . S
H2722 C2730 0.930 . S
H2723 C2731 0.930 . S
H2724 C2734 0.930 . S
H2725 C2735 0.930 . S
C2726 H2720 0.930 . S
C2726 C2727 1.355 . S
C2726 C2728 1.415 . S
C2727 C2726 1.355 . S
C2727 C2729 1.419 . S
C2728 C2726 1.415 . S
C2728 C2733 1.425 . S
C2728 C2735 1.409 . S
C2729 H2721 0.930 . S
C2729 C2727 1.419 . S
C2729 C2730 1.362 . S
C2730 H2722 0.930 . S
C2730 C2729 1.362 . S
C2730 C2733 1.409 . S
C2731 H2723 0.930 . S
C2731 C2732 1.355 . S
C2731 C2733 1.415 . S
C2732 C2731 1.355 . S
C2732 C2734 1.419 . S
C2733 C2728 1.425 . S
C2733 C2730 1.409 . S
C2733 C2731 1.415 . S
C2734 H2724 0.930 . S
C2734 C2732 1.419 . S
C2734 C2735 1.362 . S
C2735 H2725 0.930 . S
C2735 C2728 1.409 . S
C2735 C2734 1.362 . S
H2736 C2742 0.930 . S
H2737 C2745 0.930 . S
H2738 C2746 0.930 . S
H2739 C2747 0.930 . S
H2740 C2750 0.930 . S
H2741 C2751 0.930 . S
C2742 H2736 0.930 . S
C2742 C2743 1.355 . S
C2742 C2744 1.415 . S
C2743 C2742 1.355 . S
C2743 C2745 1.419 . S
C2744 C2742 1.415 . S
C2744 C2749 1.425 . S
C2744 C2751 1.409 . S
C2745 H2737 0.930 . S
C2745 C2743 1.419 . S
C2745 C2746 1.362 . S
C2746 H2738 0.930 . S
C2746 C2745 1.362 . S
C2746 C2749 1.409 . S
C2747 H2739 0.930 . S
C2747 C2748 1.355 . S
C2747 C2749 1.415 . S
C2748 C2747 1.355 . S
C2748 C2750 1.419 . S
C2749 C2744 1.425 . S
C2749 C2746 1.409 . S
C2749 C2747 1.415 . S
C2750 H2740 0.930 . S
C2750 C2748 1.419 . S
C2750 C2751 1.362 . S
C2751 H2741 0.930 . S
C2751 C2744 1.409 . S
C2751 C2750 1.362 . S
H2752 C2758 0.930 . S
H2753 C2761 0.930 . S
H2754 C2762 0.930 . S
H2755 C2763 0.930 . S
H2756 C2766 0.930 . S
H2757 C2767 0.930 . S
C2758 H2752 0.930 . S
C2758 C2759 1.355 . S
C2758 C2760 1.415 . S
C2759 C2758 1.355 . S
C2759 C2761 1.419 . S
C2760 C2758 1.415 . S
C2760 C2765 1.425 . S
C2760 C2767 1.409 . S
C2761 H2753 0.930 . S
C2761 C2759 1.419 . S
C2761 C2762 1.362 . S
C2762 H2754 0.930 . S
C2762 C2761 1.362 . S
C2762 C2765 1.409 . S
C2763 H2755 0.930 . S
C2763 C2764 1.355 . S
C2763 C2765 1.415 . S
C2764 C2763 1.355 . S
C2764 C2766 1.419 . S
C2765 C2760 1.425 . S
C2765 C2762 1.409 . S
C2765 C2763 1.415 . S
C2766 H2756 0.930 . S
C2766 C2764 1.419 . S
C2766 C2767 1.362 . S
C2767 H2757 0.930 . S
C2767 C2760 1.409 . S
C2767 C2766 1.362 . S
H2768 C2774 0.930 . S
H2769 C2777 0.930 . S
H2770 C2778 0.930 . S
H2771 C2779 0.930 . S
H2772 C2782 0.930 . S
H2773 C2783 0.930 . S
C2774 H2768 0.930 . S
C2774 C2775 1.355 . S
C2774 C2776 1.415 . S
C2775 C2774 1.355 . S
C2775 C2777 1.419 . S
C2776 C2774 1.415 . S
C2776 C2781 1.425 . S
C2776 C2783 1.409 . S
C2777 H2769 0.930 . S
C2777 C2775 1.419 . S
C2777 C2778 1.362 . S
C2778 H2770 0.930 . S
C2778 C2777 1.362 . S
C2778 C2781 1.409 . S
C2779 H2771 0.930 . S
C2779 C2780 1.355 . S
C2779 C2781 1.415 . S
C2780 C2779 1.355 . S
C2780 C2782 1.419 . S
C2781 C2776 1.425 . S
C2781 C2778 1.409 . S
C2781 C2779 1.415 . S
C2782 H2772 0.930 . S
C2782 C2780 1.419 . S
C2782 C2783 1.362 . S
C2783 H2773 0.930 . S
C2783 C2776 1.409 . S
C2783 C2782 1.362 . S
H2784 C2790 0.930 . S
H2785 C2793 0.930 . S
H2786 C2794 0.930 . S
H2787 C2795 0.930 . S
H2788 C2798 0.930 . S
H2789 C2799 0.930 . S
C2790 H2784 0.930 . S
C2790 C2791 1.355 . S
C2790 C2792 1.415 . S
C2791 C2790 1.355 . S
C2791 C2793 1.419 . S
C2792 C2790 1.415 . S
C2792 C2797 1.425 . S
C2792 C2799 1.409 . S
C2793 H2785 0.930 . S
C2793 C2791 1.419 . S
C2793 C2794 1.362 . S
C2794 H2786 0.930 . S
C2794 C2793 1.362 . S
C2794 C2797 1.409 . S
C2795 H2787 0.930 . S
C2795 C2796 1.355 . S
C2795 C2797 1.415 . S
C2796 C2795 1.355 . S
C2796 C2798 1.419 . S
C2797 C2792 1.425 . S
C2797 C2794 1.409 . S
C2797 C2795 1.415 . S
C2798 H2788 0.930 . S
C2798 C2796 1.419 . S
C2798 C2799 1.362 . S
C2799 H2789 0.930 . S
C2799 C2792 1.409 . S
C2799 C2798 1.362 . S
H2800 C2806 0.930 . S
H2801 C2809 0.930 . S
H2802 C2810 0.930 . S
H2803 C2811 0.930 . S
H2804 C2814 0.930 . S
H2805 C2815 0.930 . S
C2806 H2800 0.930 . S
C2806 C2807 1.355 . S
C2806 C2808 1.415 . S
C2807 C2806 1.355 . S
C2807 C2809 1.419 . S
C2808 C2806 1.415 . S
C2808 C2813 1.425 . S
C2808 C2815 1.409 . S
C2809 H2801 0.930 . S
C2809 C2807 1.419 . S
C2809 C2810 1.362 . S
C2810 H2802 0.930 . S
C2810 C2809 1.362 . S
C2810 C2813 1.409 . S
C2811 H2803 0.930 . S
C2811 C2812 1.355 . S
C2811 C2813 1.415 . S
C2812 C2811 1.355 . S
C2812 C2814 1.419 . S
C2813 C2808 1.425 . S
C2813 C2810 1.409 . S
C2813 C2811 1.415 . S
C2814 H2804 0.930 . S
C2814 C2812 1.419 . S
C2814 C2815 1.362 . S
C2815 H2805 0.930 . S
C2815 C2808 1.409 . S
C2815 C2814 1.362 . S
H2816 C2822 0.930 . S
H2817 C2825 0.930 . S
H2818 C2826 0.930 . S
H2819 C2827 0.930 . S
H2820 C2830 0.930 . S
H2821 C2831 0.930 . S
C2822 H2816 0.930 . S
C2822 C2823 1.355 . S
C2822 C2824 1.415 . S
C2823 C2822 1.355 . S
C2823 C2825 1.419 . S
C2824 C2822 1.415 . S
C2824 C2829 1.425 . S
C2824 C2831 1.409 . S
C2825 H2817 0.930 . S
C2825 C2823 1.419 . S
C2825 C2826 1.362 . S
C2826 H2818 0.930 . S
C2826 C2825 1.362 . S
C2826 C2829 1.409 . S
C2827 H2819 0.930 . S
C2827 C2828 1.355 . S
C2827 C2829 1.415 . S
C2828 C2827 1.355 . S
C2828 C2830 1.419 . S
C2829 C2824 1.425 . S
C2829 C2826 1.409 . S
C2829 C2827 1.415 . S
C2830 H2820 0.930 . S
C2830 C2828 1.419 . S
C2830 C2831 1.362 . S
C2831 H2821 0.930 . S
C2831 C2824 1.409 . S
C2831 C2830 1.362 . S
H2832 C2838 0.930 . S
H2833 C2841 0.930 . S
H2834 C2842 0.930 . S
H2835 C2843 0.930 . S
H2836 C2846 0.930 . S
H2837 C2847 0.930 . S
C2838 H2832 0.930 . S
C2838 C2839 1.355 . S
C2838 C2840 1.415 . S
C2839 C2838 1.355 . S
C2839 C2841 1.419 . S
C2840 C2838 1.415 . S
C2840 C2845 1.425 . S
C2840 C2847 1.409 . S
C2841 H2833 0.930 . S
C2841 C2839 1.419 . S
C2841 C2842 1.362 . S
C2842 H2834 0.930 . S
C2842 C2841 1.362 . S
C2842 C2845 1.409 . S
C2843 H2835 0.930 . S
C2843 C2844 1.355 . S
C2843 C2845 1.415 . S
C2844 C2843 1.355 . S
C2844 C2846 1.419 . S
C2845 C2840 1.425 . S
C2845 C2842 1.409 . S
C2845 C2843 1.415 . S
C2846 H2836 0.930 . S
C2846 C2844 1.419 . S
C2846 C2847 1.362 . S
C2847 H2837 0.930 . S
C2847 C2840 1.409 . S
C2847 C2846 1.362 . S
H2848 C2854 0.930 . S
H2849 C2857 0.930 . S
H2850 C2858 0.930 . S
H2851 C2859 0.930 . S
H2852 C2862 0.930 . S
H2853 C2863 0.930 . S
C2854 H2848 0.930 . S
C2854 C2855 1.355 . S
C2854 C2856 1.415 . S
C2855 C2854 1.355 . S
C2855 C2857 1.419 . S
C2856 C2854 1.415 . S
C2856 C2861 1.425 . S
C2856 C2863 1.409 . S
C2857 H2849 0.930 . S
C2857 C2855 1.419 . S
C2857 C2858 1.362 . S
C2858 H2850 0.930 . S
C2858 C2857 1.362 . S
C2858 C2861 1.409 . S
C2859 H2851 0.930 . S
C2859 C2860 1.355 . S
C2859 C2861 1.415 . S
C2860 C2859 1.355 . S
C2860 C2862 1.419 . S
C2861 C2856 1.425 . S
C2861 C2858 1.409 . S
C2861 C2859 1.415 . S
C2862 H2852 0.930 . S
C2862 C2860 1.419 . S
C2862 C2863 1.362 . S
C2863 H2853 0.930 . S
C2863 C2856 1.409 . S
C2863 C2862 1.362 . S
H2864 C2870 0.930 . S
H2865 C2873 0.930 . S
H2866 C2874 0.930 . S
H2867 C2875 0.930 . S
H2868 C2878 0.930 . S
H2869 C2879 0.930 . S
C2870 H2864 0.930 . S
C2870 C2871 1.355 . S
C2870 C2872 1.415 . S
C2871 C2870 1.355 . S
C2871 C2873 1.419 . S
C2872 C2870 1.415 . S
C2872 C2877 1.425 . S
C2872 C2879 1.409 . S
C2873 H2865 0.930 . S
C2873 C2871 1.419 . S
C2873 C2874 1.362 . S
C2874 H2866 0.930 . S
C2874 C2873 1.362 . S
C2874 C2877 1.409 . S
C2875 H2867 0.930 . S
C2875 C2876 1.355 . S
C2875 C2877 1.415 . S
C2876 C2875 1.355 . S
C2876 C2878 1.419 . S
C2877 C2872 1.425 . S
C2877 C2874 1.409 . S
C2877 C2875 1.415 . S
C2878 H2868 0.930 . S
C2878 C2876 1.419 . S
C2878 C2879 1.362 . S
C2879 H2869 0.930 . S
C2879 C2872 1.409 . S
C2879 C2878 1.362 . S
H2880 C2886 0.930 . S
H2881 C2889 0.930 . S
H2882 C2890 0.930 . S
H2883 C2891 0.930 . S
H2884 C2894 0.930 . S
H2885 C2895 0.930 . S
C2886 H2880 0.930 . S
C2886 C2887 1.355 . S
C2886 C2888 1.415 . S
C2887 C2886 1.355 . S
C2887 C2889 1.419 . S
C2888 C2886 1.415 . S
C2888 C2893 1.425 . S
C2888 C2895 1.409 . S
C2889 H2881 0.930 . S
C2889 C2887 1.419 . S
C2889 C2890 1.362 . S
C2890 H2882 0.930 . S
C2890 C2889 1.362 . S
C2890 C2893 1.409 . S
C2891 H2883 0.930 . S
C2891 C2892 1.355 . S
C2891 C2893 1.415 . S
C2892 C2891 1.355 . S
C2892 C2894 1.419 . S
C2893 C2888 1.425 . S
C2893 C2890 1.409 . S
C2893 C2891 1.415 . S
C2894 H2884 0.930 . S
C2894 C2892 1.419 . S
C2894 C2895 1.362 . S
C2895 H2885 0.930 . S
C2895 C2888 1.409 . S
C2895 C2894 1.362 . S
H2896 C2902 0.930 . S
H2897 C2905 0.930 . S
H2898 C2906 0.930 . S
H2899 C2907 0.930 . S
H2900 C2910 0.930 . S
H2901 C2911 0.930 . S
C2902 H2896 0.930 . S
C2902 C2903 1.355 . S
C2902 C2904 1.415 . S
C2903 C2902 1.355 . S
C2903 C2905 1.419 . S
C2904 C2902 1.415 . S
C2904 C2909 1.425 . S
C2904 C2911 1.409 . S
C2905 H2897 0.930 . S
C2905 C2903 1.419 . S
C2905 C2906 1.362 . S
C2906 H2898 0.930 . S
C2906 C2905 1.362 . S
C2906 C2909 1.409 . S
C2907 H2899 0.930 . S
C2907 C2908 1.355 . S
C2907 C2909 1.415 . S
C2908 C2907 1.355 . S
C2908 C2910 1.419 . S
C2909 C2904 1.425 . S
C2909 C2906 1.409 . S
C2909 C2907 1.415 . S
C2910 H2900 0.930 . S
C2910 C2908 1.419 . S
C2910 C2911 1.362 . S
C2911 H2901 0.930 . S
C2911 C2904 1.409 . S
C2911 C2910 1.362 . S
C1895 C229 1.326 . S
C1900 C52 1.340 . S
C1911 C170 1.338 . S
C1916 C111 1.316 . S
C1927 C465 1.283 . S
C1932 C288 1.293 . S
C1943 C406 1.328 . S
C1948 C347 1.300 . S
C1959 C524 1.285 . S
C1964 C701 1.307 . S
C1975 C583 1.283 . S
C1980 C642 1.292 . S
C1991 C937 1.329 . S
C1996 C760 1.339 . S
C2007 C819 1.294 . S
C2012 C878 1.321 . S
C2023 C996 1.296 . S
C2028 C1173 1.323 . S
C2039 C1055 1.284 . S
C2044 C1114 1.304 . S
C2055 C1409 1.325 . S
C2060 C1232 1.298 . S
C2071 C1350 1.339 . S
C2076 C1291 1.330 . S
C2087 C1645 1.311 . S
C2092 C1468 1.287 . S
C2103 C1527 1.336 . S
C2108 C1586 1.313 . S
C2119 C1704 1.339 . S
C2124 C1881 1.325 . S
C2135 C1763 1.301 . S
C2140 C1822 1.283 . S
C2151 C1213 1.435 . S
C2156 C33 1.435 . S
C2167 C800 1.445 . S
C2172 C92 1.445 . S
C2183 C151 1.448 . S
C2188 C1803 1.448 . S
C2199 C210 1.449 . S
C2204 C446 1.449 . S
C2215 C977 1.433 . S
C2220 C269 1.433 . S
C2231 C564 1.439 . S
C2236 C328 1.439 . S
C2247 C1567 1.431 1_554 S
C2252 C387 1.431 1_556 S
C2263 C505 1.433 . S
C2268 C1685 1.433 . S
C2279 C1331 1.445 . S
C2284 C623 1.445 . S
C2295 C918 1.436 . S
C2300 C682 1.436 . S
C2311 C1449 1.430 . S
C2316 C741 1.430 . S
C2327 C859 1.440 . S
C2332 C1095 1.440 . S
C2343 C1744 1.435 . S
C2348 C1036 1.435 . S
C2359 C1154 1.431 . S
C2364 C1390 1.431 . S
C2375 C1508 1.429 . S
C2380 C1272 1.429 . S
C2391 C1862 1.431 1_556 S
C2396 C1626 1.431 1_554 S
C2407 C62 1.482 . S
C2412 C3 1.451 . S
C2423 C121 1.459 . S
C2428 C180 1.479 1_556 S
C2439 C239 1.446 . S
C2444 C298 1.481 . S
C2455 C416 1.462 1_554 S
C2460 C357 1.477 1_554 S
C2471 C475 1.461 . S
C2476 C534 1.477 . S
C2487 C593 1.470 . S
C2492 C652 1.449 . S
C2503 C770 1.462 . S
C2508 C711 1.454 . S
C2519 C829 1.482 . S
C2524 C888 1.447 . S
C2535 C947 1.453 . S
C2540 C1006 1.481 . S
C2551 C1065 1.481 . S
C2556 C1124 1.446 . S
C2567 C1183 1.481 . S
C2572 C1242 1.455 . S
C2583 C1360 1.476 . S
C2588 C1301 1.462 . S
C2599 C1478 1.451 . S
C2604 C1419 1.482 . S
C2615 C1537 1.480 1_556 S
C2620 C1596 1.446 . S
C2631 C1655 1.455 . S
C2636 C1714 1.481 . S
C2647 C1832 1.468 1_554 S
C2652 C1773 1.450 . S
C2663 C5 1.433 . S
C2668 C1126 1.437 . S
C2679 C64 1.449 . S
C2684 C1067 1.458 . S
C2695 C1008 1.477 . S
C2700 C123 1.471 . S
C2711 C182 1.478 . S
C2716 C949 1.480 . S
C2727 C1362 1.438 . S
C2732 C241 1.444 . S
C2743 C300 1.454 . S
C2748 C1303 1.445 . S
C2759 C1244 1.457 . S
C2764 C359 1.448 . S
C2775 C418 1.469 . S
C2780 C1185 1.461 . S
C2791 C477 1.473 . S
C2796 C1598 1.466 . S
C2807 C536 1.438 . S
C2812 C1539 1.433 . S
C2823 C595 1.447 . S
C2828 C1480 1.455 . S
C2839 C1421 1.432 . S
C2844 C654 1.436 . S
C2855 C713 1.469 . S
C2860 C1834 1.475 . S
C2871 C772 1.480 . S
C2876 C1775 1.479 . S
C2887 C831 1.481 . S
C2892 C1716 1.480 . S
C2903 C1657 1.480 . S
C2908 C890 1.479 . S
