# Generated by pormake.
# Topology wkc, (5)-cn, num edge types: 1
# Building blocks:
#     Node 0, Type 0, BuildingBlock: XOMCOT_clean_sbu_1, # of connection points: 5
#     Node 1, Type 0, BuildingBlock: XOMCOT_clean_sbu_1, # of connection points: 5
#     Node 2, Type 0, BuildingBlock: XOMCOT_clean_sbu_1, # of connection points: 5
#     Node 3, Type 0, BuildingBlock: XOMCOT_clean_sbu_1, # of connection points: 5
#     Node 4, Type 0, BuildingBlock: XOMCOT_clean_sbu_1, # of connection points: 5
#     Node 5, Type 0, BuildingBlock: XOMCOT_clean_sbu_1, # of connection points: 5
#     Node 6, Type 0, BuildingBlock: XOMCOT_clean_sbu_1, # of connection points: 5
#     Node 7, Type 0, BuildingBlock: XOMCOT_clean_sbu_1, # of connection points: 5
#     Node 8, Type 0, BuildingBlock: XOMCOT_clean_sbu_1, # of connection points: 5
#     Node 9, Type 0, BuildingBlock: XOMCOT_clean_sbu_1, # of connection points: 5
#     Node 10, Type 0, BuildingBlock: XOMCOT_clean_sbu_1, # of connection points: 5
#     Node 11, Type 0, BuildingBlock: XOMCOT_clean_sbu_1, # of connection points: 5
#     Edge 12, Type (0, 0), BuildingBlock: ZUJKAS_clean_linker_0, # of connection points: 2
#     Edge 13, Type (0, 0), BuildingBlock: ZUJKAS_clean_linker_0, # of connection points: 2
#     Edge 14, Type (0, 0), BuildingBlock: ZUJKAS_clean_linker_0, # of connection points: 2
#     Edge 15, Type (0, 0), BuildingBlock: ZUJKAS_clean_linker_0, # of connection points: 2
#     Edge 16, Type (0, 0), BuildingBlock: ZUJKAS_clean_linker_0, # of connection points: 2
#     Edge 17, Type (0, 0), BuildingBlock: ZUJKAS_clean_linker_0, # of connection points: 2
#     Edge 18, Type (0, 0), BuildingBlock: ZUJKAS_clean_linker_0, # of connection points: 2
#     Edge 19, Type (0, 0), BuildingBlock: ZUJKAS_clean_linker_0, # of connection points: 2
#     Edge 20, Type (0, 0), BuildingBlock: ZUJKAS_clean_linker_0, # of connection points: 2
#     Edge 21, Type (0, 0), BuildingBlock: ZUJKAS_clean_linker_0, # of connection points: 2
#     Edge 22, Type (0, 0), BuildingBlock: ZUJKAS_clean_linker_0, # of connection points: 2
#     Edge 23, Type (0, 0), BuildingBlock: ZUJKAS_clean_linker_0, # of connection points: 2
#     Edge 24, Type (0, 0), BuildingBlock: ZUJKAS_clean_linker_0, # of connection points: 2
#     Edge 25, Type (0, 0), BuildingBlock: ZUJKAS_clean_linker_0, # of connection points: 2
#     Edge 26, Type (0, 0), BuildingBlock: ZUJKAS_clean_linker_0, # of connection points: 2
#     Edge 27, Type (0, 0), BuildingBlock: ZUJKAS_clean_linker_0, # of connection points: 2
#     Edge 28, Type (0, 0), BuildingBlock: ZUJKAS_clean_linker_0, # of connection points: 2
#     Edge 29, Type (0, 0), BuildingBlock: ZUJKAS_clean_linker_0, # of connection points: 2
#     Edge 30, Type (0, 0), BuildingBlock: ZUJKAS_clean_linker_0, # of connection points: 2
#     Edge 31, Type (0, 0), BuildingBlock: ZUJKAS_clean_linker_0, # of connection points: 2
#     Edge 32, Type (0, 0), BuildingBlock: ZUJKAS_clean_linker_0, # of connection points: 2
#     Edge 33, Type (0, 0), BuildingBlock: ZUJKAS_clean_linker_0, # of connection points: 2
#     Edge 34, Type (0, 0), BuildingBlock: ZUJKAS_clean_linker_0, # of connection points: 2
#     Edge 35, Type (0, 0), BuildingBlock: ZUJKAS_clean_linker_0, # of connection points: 2
#     Edge 36, Type (0, 0), BuildingBlock: ZUJKAS_clean_linker_0, # of connection points: 2
#     Edge 37, Type (0, 0), BuildingBlock: ZUJKAS_clean_linker_0, # of connection points: 2
#     Edge 38, Type (0, 0), BuildingBlock: ZUJKAS_clean_linker_0, # of connection points: 2
#     Edge 39, Type (0, 0), BuildingBlock: ZUJKAS_clean_linker_0, # of connection points: 2
#     Edge 40, Type (0, 0), BuildingBlock: ZUJKAS_clean_linker_0, # of connection points: 2
#     Edge 41, Type (0, 0), BuildingBlock: ZUJKAS_clean_linker_0, # of connection points: 2
# Relax obj value: 0.259
# Max RMSD: 0.219
# Mean RMSD: 0.219
data_MOF--net-wkc--node1-XOMCOT_clean_sbu_1--edge1-ZUJKAS_clean_linker_0
_symmetry_space_group_name_H-M    P1
_symmetry_Int_Tables_number       1
_symmetry_cell_setting            triclinic
loop_
_symmetry_equiv_pos_as_xyz
'x, y, z'
_cell_length_a     48.223954
_cell_length_b     48.207389
_cell_length_c     59.775987
_cell_angle_alpha  90.022616
_cell_angle_beta   89.957437
_cell_angle_gamma 120.01385
loop_
_atom_site_label
_atom_site_type_symbol
_atom_site_fract_x
_atom_site_fract_y
_atom_site_fract_z
_atom_type_partial_charge
C0 C 0.30647 0.47213 0.03889 0.0
C1 C 0.30764 0.4967 0.05128 0.0
N2 N 0.28289 0.50058 0.04515 0.0
N3 N 0.28093 0.46032 0.02515 0.0
C4 C 0.26701 0.47813 0.0293 0.0
H5 H 0.32375 0.46409 0.03933 0.0
Co6 Co 0.27188 0.43014 0.00299 0.0
C7 C 0.20198 0.3858 0.0054 0.0
O8 O 0.20727 0.36207 0.00118 0.0
N9 N 0.26387 0.4005 0.97951 0.0
C10 C 0.24782 0.37662 0.94627 0.0
C11 C 0.24368 0.39484 0.9622 0.0
C12 C 0.28069 0.38616 0.97323 0.0
N13 N 0.27134 0.37137 0.9532 0.0
O14 O 0.27586 0.46099 0.98124 0.0
H15 H 0.2279 0.40465 0.96074 0.0
H16 H 0.30052 0.38765 0.98246 0.0
O17 O 0.22565 0.41453 0.00636 0.0
C18 C 0.30247 0.47324 0.97089 0.0
O19 O 0.3222 0.46258 0.97526 0.0
N20 N 0.27073 0.40155 0.02512 0.0
C21 C 0.27956 0.36934 0.06092 0.0
C22 C 0.25295 0.37374 0.06023 0.0
C23 C 0.24936 0.3905 0.04249 0.0
C24 C 0.29743 0.39871 0.0261 0.0
C25 C 0.3019 0.38197 0.04343 0.0
H26 H 0.23057 0.39635 0.04372 0.0
H27 H 0.31658 0.41145 0.01425 0.0
H28 H 0.24669 0.4758 0.02002 0.0
H29 H 0.32571 0.51099 0.06354 0.0
H30 H 0.23576 0.36942 0.93028 0.0
H31 H 0.23601 0.36603 0.07394 0.0
H32 H 0.3233 0.38 0.04349 0.0
C33 C 0.83731 0.3044 0.20444 0.0
C34 C 0.81407 0.30593 0.21678 0.0
N35 N 0.78529 0.28157 0.21049 0.0
N36 N 0.82333 0.279 0.19058 0.0
C37 C 0.79161 0.26554 0.1946 0.0
H38 H 0.86271 0.32139 0.205 0.0
Co39 Co 0.84418 0.26967 0.16835 0.0
C40 C 0.81767 0.19956 0.17053 0.0
O41 O 0.84638 0.20434 0.1659 0.0
N42 N 0.86558 0.26143 0.14481 0.0
C43 C 0.87323 0.24544 0.11149 0.0
C44 C 0.85086 0.24173 0.12728 0.0
C45 C 0.89688 0.2775 0.13881 0.0
N46 N 0.90221 0.26817 0.11872 0.0
O47 O 0.81757 0.2741 0.14668 0.0
H48 H 0.82521 0.22653 0.12565 0.0
H49 H 0.9155 0.29668 0.14834 0.0
O50 O 0.81315 0.22355 0.1717 0.0
C51 C 0.83233 0.30128 0.1371 0.0
O52 O 0.86256 0.32067 0.14215 0.0
N53 N 0.87142 0.26812 0.19041 0.0
C54 C 0.91224 0.27701 0.22634 0.0
C55 C 0.8813 0.25028 0.22552 0.0
C56 C 0.86106 0.24664 0.2077 0.0
C57 C 0.90096 0.29485 0.19145 0.0
C58 C 0.92205 0.29934 0.20885 0.0
H59 H 0.83644 0.2278 0.20887 0.0
H60 H 0.90742 0.31401 0.1796 0.0
H61 H 0.77346 0.24547 0.18519 0.0
H62 H 0.81808 0.32401 0.22911 0.0
H63 H 0.86828 0.23355 0.09541 0.0
H64 H 0.87201 0.23332 0.23921 0.0
H65 H 0.9454 0.3208 0.20898 0.0
C66 C 0.53642 0.83253 0.3721 0.0
C67 C 0.51238 0.80832 0.38437 0.0
N68 N 0.50898 0.78012 0.37748 0.0
N69 N 0.54839 0.81978 0.35765 0.0
C70 C 0.53119 0.78787 0.36122 0.0
H71 H 0.5439 0.85771 0.37308 0.0
Co72 Co 0.57831 0.84182 0.3355 0.0
C73 C 0.62198 0.81522 0.33619 0.0
O74 O 0.64609 0.84409 0.33216 0.0
N75 N 0.60768 0.86428 0.31207 0.0
C76 C 0.63127 0.87299 0.27866 0.0
C77 C 0.61292 0.85017 0.29427 0.0
C78 C 0.62235 0.8957 0.30638 0.0
N79 N 0.63703 0.90166 0.28625 0.0
O80 O 0.54712 0.81607 0.31364 0.0
H81 H 0.60281 0.8246 0.29231 0.0
H82 H 0.62129 0.91388 0.31614 0.0
O83 O 0.59354 0.81083 0.33748 0.0
C84 C 0.5344 0.83102 0.30478 0.0
O85 O 0.54505 0.86098 0.31057 0.0
N86 N 0.60728 0.86812 0.35783 0.0
C87 C 0.64065 0.90761 0.39395 0.0
C88 C 0.63577 0.87648 0.39245 0.0
C89 C 0.61841 0.85688 0.37456 0.0
C90 C 0.61055 0.8978 0.35967 0.0
C91 C 0.62784 0.91825 0.37723 0.0
H92 H 0.61234 0.83214 0.37513 0.0
H93 H 0.59775 0.90487 0.34837 0.0
H94 H 0.53439 0.7707 0.35158 0.0
H95 H 0.49759 0.8113 0.39666 0.0
H96 H 0.63828 0.86853 0.26245 0.0
H97 H 0.64433 0.86692 0.4054 0.0
H98 H 0.6295 0.94146 0.37841 0.0
C99 C 0.70471 0.53588 0.53976 0.0
C100 C 0.70431 0.51159 0.55205 0.0
N101 N 0.72914 0.50804 0.54549 0.0
N102 N 0.72982 0.54786 0.52565 0.0
C103 C 0.74421 0.53043 0.52943 0.0
H104 H 0.68706 0.54344 0.54044 0.0
Co105 Co 0.73826 0.5778 0.50343 0.0
C106 C 0.80814 0.6223 0.50527 0.0
O107 O 0.80273 0.64596 0.50116 0.0
N108 N 0.74574 0.60715 0.47988 0.0
C109 C 0.76156 0.63058 0.4465 0.0
C110 C 0.76577 0.61254 0.46249 0.0
C111 C 0.72888 0.62143 0.47357 0.0
N112 N 0.73814 0.63599 0.45343 0.0
O113 O 0.7338 0.54675 0.4817 0.0
H114 H 0.7815 0.60267 0.46104 0.0
H115 H 0.70913 0.62007 0.48285 0.0
O116 O 0.78454 0.59354 0.50628 0.0
C117 C 0.70629 0.53385 0.47258 0.0
O118 O 0.6867 0.54427 0.47811 0.0
N119 N 0.73981 0.60654 0.5256 0.0
C120 C 0.73118 0.63805 0.56197 0.0
C121 C 0.75784 0.63379 0.56087 0.0
C122 C 0.76133 0.61736 0.54286 0.0
C123 C 0.71317 0.60947 0.52686 0.0
C124 C 0.70878 0.62583 0.54452 0.0
H125 H 0.78009 0.61145 0.54384 0.0
H126 H 0.69395 0.59698 0.51503 0.0
H127 H 0.76474 0.53352 0.52003 0.0
H128 H 0.68608 0.49666 0.56403 0.0
H129 H 0.7735 0.63751 0.43044 0.0
H130 H 0.77486 0.64123 0.57451 0.0
H131 H 0.68734 0.62774 0.54489 0.0
C132 C 0.17081 0.7025 0.70571 0.0
C133 C 0.194 0.7006 0.71783 0.0
N134 N 0.22284 0.72468 0.71135 0.0
N135 N 0.18492 0.72781 0.69178 0.0
C136 C 0.21664 0.74089 0.69556 0.0
H137 H 0.14536 0.68576 0.7064 0.0
Co138 Co 0.1642 0.73731 0.66961 0.0
C139 C 0.19246 0.80776 0.67099 0.0
O140 O 0.16396 0.80375 0.66664 0.0
N141 N 0.14295 0.74571 0.64618 0.0
C142 C 0.13551 0.76125 0.61268 0.0
C143 C 0.15779 0.76503 0.62851 0.0
C144 C 0.11163 0.72982 0.64027 0.0
N145 N 0.10641 0.73891 0.62005 0.0
O146 O 0.19006 0.73174 0.64784 0.0
H147 H 0.18346 0.78002 0.6268 0.0
H148 H 0.09314 0.71019 0.64961 0.0
O149 O 0.19611 0.78325 0.67234 0.0
C150 C 0.17507 0.70508 0.63761 0.0
O151 O 0.14453 0.68606 0.64199 0.0
N152 N 0.13777 0.74012 0.69182 0.0
C153 C 0.0983 0.73344 0.7282 0.0
C154 C 0.12935 0.75985 0.72663 0.0
C155 C 0.14896 0.76227 0.7087 0.0
C156 C 0.10797 0.71384 0.69345 0.0
C157 C 0.08763 0.7103 0.71121 0.0
H158 H 0.17371 0.78087 0.70944 0.0
H159 H 0.10079 0.69421 0.68188 0.0
H160 H 0.23486 0.7607 0.68599 0.0
H161 H 0.18996 0.68242 0.73008 0.0
H162 H 0.14056 0.77341 0.59671 0.0
H163 H 0.13895 0.77794 0.73961 0.0
H164 H 0.06451 0.68864 0.71228 0.0
C165 C 0.47145 0.1709 0.87232 0.0
C166 C 0.49643 0.19435 0.88439 0.0
N167 N 0.5008 0.22302 0.87786 0.0
N168 N 0.45992 0.18468 0.85838 0.0
C169 C 0.47828 0.21647 0.8621 0.0
H170 H 0.4631 0.14552 0.87303 0.0
Co171 Co 0.42985 0.16341 0.8362 0.0
C172 C 0.38712 0.19108 0.83702 0.0
O173 O 0.36277 0.16246 0.83275 0.0
N174 N 0.40041 0.14157 0.81277 0.0
C175 C 0.37751 0.13326 0.77917 0.0
C176 C 0.39556 0.15591 0.79496 0.0
C177 C 0.38576 0.11022 0.80697 0.0
N178 N 0.37154 0.10448 0.78669 0.0
O179 O 0.46116 0.18918 0.8144 0.0
H180 H 0.4059 0.18152 0.79305 0.0
H181 H 0.38672 0.09198 0.81673 0.0
O182 O 0.41535 0.19496 0.83857 0.0
C183 C 0.47364 0.17414 0.80531 0.0
O184 O 0.46279 0.14408 0.8109 0.0
N185 N 0.40071 0.137 0.85845 0.0
C186 C 0.36899 0.09797 0.89523 0.0
C187 C 0.37262 0.12859 0.89328 0.0
C188 C 0.3893 0.14802 0.87515 0.0
C189 C 0.39799 0.10757 0.86038 0.0
C190 C 0.38175 0.08744 0.87835 0.0
H191 H 0.39477 0.17258 0.87562 0.0
H192 H 0.41076 0.10063 0.84893 0.0
H193 H 0.47642 0.2345 0.85249 0.0
H194 H 0.51079 0.1906 0.8966 0.0
H195 H 0.37102 0.13793 0.76285 0.0
H196 H 0.36383 0.13807 0.90614 0.0
H197 H 0.38103 0.06469 0.8797 0.0
C198 C 0.53764 0.70661 0.78322 0.0
C199 C 0.51352 0.70616 0.77072 0.0
N200 N 0.50944 0.73064 0.77738 0.0
N201 N 0.54899 0.7314 0.7976 0.0
C202 C 0.53136 0.74555 0.79373 0.0
H203 H 0.54552 0.6892 0.78252 0.0
Co204 Co 0.57839 0.73967 0.82015 0.0
C205 C 0.62208 0.80981 0.81943 0.0
O206 O 0.64587 0.80477 0.82394 0.0
N207 N 0.60719 0.74698 0.844 0.0
C208 C 0.62929 0.76193 0.87781 0.0
C209 C 0.61142 0.76616 0.86171 0.0
C210 C 0.62213 0.7307 0.85016 0.0
N211 N 0.63591 0.73945 0.87056 0.0
O212 O 0.54655 0.7342 0.84155 0.0
H213 H 0.60103 0.78143 0.86323 0.0
H214 H 0.62105 0.71109 0.84084 0.0
O215 O 0.59356 0.78592 0.81781 0.0
C216 C 0.5342 0.70709 0.85123 0.0
O217 O 0.54533 0.68784 0.8465 0.0
N218 N 0.608 0.74236 0.79826 0.0
C219 C 0.64163 0.73605 0.76234 0.0
C220 C 0.63656 0.76219 0.7636 0.0
C221 C 0.61907 0.7645 0.78137 0.0
C222 C 0.61168 0.71616 0.79677 0.0
C223 C 0.62909 0.71291 0.7793 0.0
H224 H 0.61278 0.78301 0.78053 0.0
H225 H 0.599 0.69642 0.8082 0.0
H226 H 0.53398 0.76577 0.80329 0.0
H227 H 0.49905 0.68811 0.75851 0.0
H228 H 0.63611 0.77392 0.89384 0.0
H229 H 0.64497 0.7801 0.75049 0.0
H230 H 0.63094 0.69145 0.77835 0.0
C231 C 0.83332 0.5374 0.94952 0.0
C232 C 0.80937 0.51346 0.93706 0.0
N233 N 0.78102 0.50973 0.94388 0.0
N234 N 0.82027 0.54901 0.96402 0.0
C235 C 0.78842 0.53167 0.96029 0.0
H236 H 0.85851 0.54493 0.94871 0.0
Co237 Co 0.84199 0.57835 0.98653 0.0
C238 C 0.81562 0.62219 0.98669 0.0
O239 O 0.84444 0.64601 0.99125 0.0
N240 N 0.86413 0.60706 0.01029 0.0
C241 C 0.87233 0.62932 0.04412 0.0
C242 C 0.84973 0.61139 0.0283 0.0
C243 C 0.89551 0.6219 0.016 0.0
N244 N 0.90117 0.63576 0.03641 0.0
O245 O 0.81591 0.54661 0.00803 0.0
H246 H 0.82412 0.60089 0.03026 0.0
H247 H 0.91388 0.62149 0.006 0.0
O248 O 0.81112 0.59376 0.98472 0.0
C249 C 0.83085 0.53368 0.01658 0.0
O250 O 0.86076 0.54437 0.01064 0.0
N251 N 0.8687 0.60782 0.96456 0.0
C252 C 0.90782 0.63967 0.92784 0.0
C253 C 0.87749 0.63665 0.93004 0.0
C254 C 0.85799 0.61989 0.94812 0.0
C255 C 0.89789 0.61006 0.96244 0.0
C256 C 0.91806 0.62634 0.94448 0.0
H257 H 0.83357 0.61484 0.94778 0.0
H258 H 0.90458 0.59692 0.97373 0.0
H259 H 0.77104 0.53448 0.96997 0.0
H260 H 0.81262 0.49885 0.92477 0.0
H261 H 0.86763 0.63549 0.06055 0.0
H262 H 0.86824 0.64594 0.91738 0.0
H263 H 0.94058 0.62662 0.94295 0.0
C264 C 0.30047 0.83135 0.11697 0.0
C265 C 0.30024 0.80708 0.10475 0.0
N266 N 0.27533 0.77895 0.11163 0.0
N267 N 0.27567 0.81871 0.13136 0.0
C268 C 0.26087 0.78679 0.12783 0.0
H269 H 0.3183 0.85649 0.11601 0.0
Co270 Co 0.26781 0.8409 0.15342 0.0
C271 C 0.19748 0.81439 0.15276 0.0
O272 O 0.20215 0.84318 0.15697 0.0
N273 N 0.26094 0.86354 0.17671 0.0
C274 C 0.24634 0.87264 0.21009 0.0
C275 C 0.24174 0.84963 0.1946 0.0
C276 C 0.2777 0.89503 0.18219 0.0
N277 N 0.26918 0.90123 0.20231 0.0
O278 O 0.27294 0.81507 0.17539 0.0
H279 H 0.22632 0.82408 0.19672 0.0
H280 H 0.29685 0.91309 0.17226 0.0
O281 O 0.22158 0.81009 0.15131 0.0
C282 C 0.30055 0.83002 0.18433 0.0
O283 O 0.31994 0.85996 0.17852 0.0
N284 N 0.26556 0.86733 0.13103 0.0
C285 C 0.27311 0.9068 0.09451 0.0
C286 C 0.2459 0.87632 0.09643 0.0
C287 C 0.24301 0.85666 0.11445 0.0
C288 C 0.29263 0.89647 0.129 0.0
C289 C 0.29663 0.91684 0.11118 0.0
H290 H 0.22362 0.83224 0.11403 0.0
H291 H 0.31234 0.90307 0.14038 0.0
H292 H 0.24042 0.76966 0.13744 0.0
H293 H 0.31804 0.80994 0.09253 0.0
H294 H 0.23508 0.86837 0.22637 0.0
H295 H 0.22748 0.86719 0.08368 0.0
H296 H 0.31884 0.93944 0.10982 0.0
C297 C 0.47393 0.30239 0.28397 0.0
C298 C 0.49799 0.30244 0.27158 0.0
N299 N 0.50105 0.27726 0.27797 0.0
N300 N 0.46162 0.27716 0.29798 0.0
C301 C 0.47864 0.26237 0.29405 0.0
H302 H 0.46667 0.32028 0.28337 0.0
Co303 Co 0.43151 0.26861 0.32013 0.0
C304 C 0.3873 0.19847 0.31806 0.0
O305 O 0.36334 0.20335 0.32233 0.0
N306 N 0.40192 0.26092 0.34356 0.0
C307 C 0.37835 0.24517 0.3769 0.0
C308 C 0.39659 0.24103 0.36102 0.0
C309 C 0.38722 0.27748 0.34966 0.0
N310 N 0.37256 0.26826 0.36976 0.0
O311 O 0.46239 0.27292 0.34193 0.0
H312 H 0.40648 0.22533 0.36254 0.0
H313 H 0.38905 0.29757 0.34055 0.0
O314 O 0.41587 0.22238 0.31709 0.0
C315 C 0.47499 0.30031 0.35124 0.0
O316 O 0.46445 0.31981 0.34579 0.0
N317 N 0.40299 0.26727 0.29796 0.0
C318 C 0.37101 0.27624 0.26209 0.0
C319 C 0.37505 0.2494 0.26293 0.0
C320 C 0.39168 0.24572 0.28072 0.0
C321 C 0.40043 0.29414 0.29687 0.0
C322 C 0.38381 0.29868 0.27951 0.0
H323 H 0.39723 0.22671 0.27962 0.0
H324 H 0.41324 0.3133 0.3087 0.0
H325 H 0.47516 0.24158 0.30328 0.0
H326 H 0.51302 0.32057 0.25957 0.0
H327 H 0.37069 0.23269 0.39273 0.0
H328 H 0.36715 0.23233 0.2493 0.0
H329 H 0.38206 0.32021 0.27937 0.0
C330 C 0.17219 0.46984 0.44907 0.0
C331 C 0.19556 0.49455 0.43677 0.0
N332 N 0.2243 0.49931 0.44348 0.0
N333 N 0.18605 0.45881 0.46335 0.0
C334 C 0.21783 0.47722 0.45959 0.0
H335 H 0.14676 0.46118 0.44819 0.0
Co336 Co 0.16474 0.42882 0.48559 0.0
C337 C 0.19167 0.38559 0.48462 0.0
O338 O 0.16278 0.36158 0.48873 0.0
N339 N 0.14282 0.39943 0.50913 0.0
C340 C 0.1344 0.37622 0.54266 0.0
C341 C 0.15707 0.39425 0.52685 0.0
C342 C 0.11153 0.38507 0.51505 0.0
N343 N 0.10573 0.37066 0.53526 0.0
O344 O 0.19053 0.46022 0.50736 0.0
H345 H 0.18264 0.4043 0.52867 0.0
H346 H 0.09335 0.38636 0.50547 0.0
O347 O 0.19618 0.41409 0.48328 0.0
C348 C 0.17556 0.4723 0.5171 0.0
O349 O 0.14526 0.46123 0.51217 0.0
N350 N 0.13838 0.39954 0.46334 0.0
C351 C 0.09921 0.36621 0.42708 0.0
C352 C 0.13049 0.37157 0.4285 0.0
C353 C 0.14991 0.3889 0.44646 0.0
C354 C 0.10845 0.39566 0.46163 0.0
C355 C 0.08815 0.37836 0.444 0.0
H356 H 0.17478 0.39546 0.44577 0.0
H357 H 0.1011 0.40819 0.47297 0.0
H358 H 0.23588 0.4756 0.46933 0.0
H359 H 0.19168 0.50836 0.42416 0.0
H360 H 0.13898 0.36942 0.5589 0.0
H361 H 0.14034 0.36355 0.41539 0.0
H362 H 0.0648 0.37635 0.44288 0.0
C363 C 0.70267 0.16977 0.61627 0.0
C364 C 0.7006 0.19292 0.60421 0.0
N365 N 0.7248 0.2218 0.6105 0.0
N366 N 0.72822 0.18394 0.62997 0.0
C367 C 0.74127 0.21565 0.62611 0.0
H368 H 0.68588 0.14432 0.61572 0.0
Co369 Co 0.73799 0.16333 0.65209 0.0
C370 C 0.80816 0.19076 0.64977 0.0
O371 O 0.80381 0.16207 0.65394 0.0
N372 N 0.74669 0.14224 0.67553 0.0
C373 C 0.7631 0.13515 0.70882 0.0
C374 C 0.76662 0.15725 0.69289 0.0
C375 C 0.73067 0.11104 0.68177 0.0
N376 N 0.74026 0.10605 0.70185 0.0
O377 O 0.73314 0.18959 0.67385 0.0
H378 H 0.78174 0.18294 0.69437 0.0
H379 H 0.71127 0.09231 0.67245 0.0
O380 O 0.78392 0.19487 0.64879 0.0
C381 C 0.706 0.17459 0.68345 0.0
O382 O 0.68683 0.14432 0.67835 0.0
N383 N 0.73996 0.1364 0.62993 0.0
C384 C 0.73147 0.09616 0.59367 0.0
C385 C 0.7579 0.12727 0.59458 0.0
C386 C 0.76132 0.14723 0.61256 0.0
C387 C 0.71356 0.10662 0.62886 0.0
C388 C 0.70926 0.08583 0.61126 0.0
H389 H 0.77986 0.17199 0.61145 0.0
H390 H 0.69443 0.09974 0.6408 0.0
H391 H 0.76125 0.23391 0.63552 0.0
H392 H 0.6822 0.18883 0.59215 0.0
H393 H 0.77511 0.1404 0.72485 0.0
H394 H 0.77475 0.13692 0.58083 0.0
H395 H 0.68801 0.06232 0.61105 0.0
H396 H 0.33187 0.19268 0.83195 0.0
H397 H 0.31745 0.22932 0.84961 0.0
H398 H 0.41225 0.28308 0.87773 0.0
H399 H 0.42688 0.24615 0.86022 0.0
H400 H 0.36301 0.26387 0.90918 0.0
H401 H 0.34082 0.32162 0.83668 0.0
H402 H 0.32017 0.27873 0.83473 0.0
H403 H 0.36324 0.30092 0.83437 0.0
C404 C 0.34991 0.21265 0.84152 0.0
C405 C 0.38052 0.21646 0.84469 0.0
C406 C 0.34166 0.23372 0.85151 0.0
C407 C 0.36385 0.25914 0.8648 0.0
C408 C 0.39482 0.26372 0.86741 0.0
H409 H 0.33299 0.38429 0.9553 0.0
H410 H 0.35713 0.35849 0.93403 0.0
C411 C 0.40319 0.24268 0.8573 0.0
C412 C 0.35354 0.27886 0.87757 0.0
H413 H 0.31892 0.32533 0.87179 0.0
C414 C 0.3538 0.27771 0.90103 0.0
C415 C 0.34131 0.29668 0.8669 0.0
C416 C 0.34161 0.29987 0.84178 0.0
C417 C 0.34105 0.2929 0.91411 0.0
C418 C 0.32823 0.31021 0.90342 0.0
C419 C 0.32861 0.31193 0.87996 0.0
C420 C 0.3137 0.32613 0.91627 0.0
C421 C 0.34026 0.28919 0.93921 0.0
C422 C 0.28143 0.31705 0.913 0.0
C423 C 0.26753 0.33181 0.92514 0.0
C424 C 0.28564 0.356 0.94078 0.0
C425 C 0.31809 0.36525 0.94382 0.0
C426 C 0.33199 0.35056 0.93162 0.0
H427 H 0.34356 0.26887 0.94433 0.0
H428 H 0.35994 0.31138 0.94671 0.0
H429 H 0.31725 0.28531 0.94621 0.0
H430 H 0.26688 0.29829 0.90119 0.0
H431 H 0.24248 0.324 0.92249 0.0
H432 H 0.14613 0.32971 -6e-05 0.0
H433 H 0.09464 0.31332 0.01768 0.0
H434 H 0.13335 0.40696 0.04746 0.0
H435 H 0.18508 0.42378 0.02943 0.0
H436 H 0.08645 0.31123 0.06337 0.0
H437 H 0.04624 0.38974 0.02438 0.0
H438 H 0.07744 0.38408 0.01237 0.0
H439 H 0.08597 0.41032 0.0359 0.0
C440 C 0.14358 0.34707 0.00991 0.0
C441 C 0.16975 0.37803 0.0133 0.0
C442 C 0.11411 0.33762 0.02007 0.0
C443 C 0.11005 0.35889 0.03384 0.0
C444 C 0.13574 0.39028 0.0366 0.0
H445 H 0.95299 0.32872 0.12191 0.0
H446 H 1.00379 0.35107 0.10171 0.0
C447 C 0.16532 0.39986 0.0263 0.0
C448 C 0.07981 0.34708 0.04669 0.0
H449 H 0.01536 0.35738 0.05478 0.0
C450 C 0.07087 0.32127 0.06143 0.0
C451 C 0.05963 0.36037 0.04429 0.0
C452 C 0.06757 0.38749 0.02825 0.0
C453 C 0.04236 0.30839 0.07382 0.0
C454 C 0.02191 0.3213 0.07117 0.0
C455 C 0.03103 0.34744 0.05671 0.0
C456 C 0.99086 0.30775 0.08317 0.0
C457 C 0.0346 0.28134 0.08991 0.0
C458 C 0.96656 0.27604 0.07929 0.0
C459 C 0.93754 0.26309 0.09093 0.0
C460 C 0.93218 0.2816 0.10668 0.0
C461 C 0.95647 0.31353 0.11028 0.0
C462 C 0.98545 0.32648 0.09858 0.0
H463 H 0.05618 0.27977 0.09423 0.0
H464 H 0.02396 0.28428 0.10559 0.0
H465 H 0.01691 0.25832 0.08207 0.0
H466 H 0.97005 0.26129 0.06722 0.0
H467 H 0.91945 0.23844 0.0878 0.0
H468 H 0.76385 0.18403 0.19549 0.0
H469 H 0.72943 0.13304 0.21469 0.0
H470 H 0.7821 0.09238 0.18419 0.0
H471 H 0.81664 0.14303 0.16522 0.0
H472 H 0.69055 0.06771 0.19976 0.0
H473 H 0.79298 0.08462 0.25191 0.0
H474 H 0.7939 0.1166 0.23562 0.0
H475 H 0.80069 0.08702 0.22238 0.0
C476 C 0.7677 0.16403 0.19256 0.0
C477 C 0.79322 0.16768 0.17903 0.0
C478 C 0.74809 0.13496 0.2036 0.0
C479 C 0.75373 0.1092 0.20127 0.0
C480 C 0.77782 0.11219 0.18663 0.0
H481 H 0.68448 0.92026 0.25563 0.0
H482 H 0.71112 0.9709 0.23503 0.0
C483 C 0.79744 0.14115 0.17571 0.0
C484 C 0.73568 0.07966 0.21485 0.0
H485 H 0.74591 0.03343 0.25357 0.0
C486 C 0.70254 0.06029 0.21167 0.0
C487 C 0.75139 0.07015 0.23047 0.0
C488 C 0.78664 0.09081 0.23551 0.0
C489 C 0.68489 0.03103 0.22312 0.0
C490 C 0.70081 0.0212 0.23832 0.0
C491 C 0.73381 0.04091 0.2418 0.0
C492 C 0.68389 0.99027 0.25053 0.0
C493 C 0.64959 0.01039 0.21838 0.0
C494 C 0.65998 0.98449 0.26627 0.0
C495 C 0.6447 0.95554 0.27807 0.0
C496 C 0.65308 0.9318 0.27439 0.0
C497 C 0.67719 0.93782 0.25868 0.0
C498 C 0.69252 0.96681 0.24696 0.0
H499 H 0.64246 0.01793 0.20287 0.0
H500 H 0.6429 0.98485 0.21671 0.0
H501 H 0.63574 0.01233 0.23253 0.0
H502 H 0.65329 1.00247 0.26954 0.0
H503 H 0.62603 0.95163 0.28984 0.0
H504 H 0.67669 0.6238 0.45579 0.0
H505 H 0.65258 0.64908 0.43387 0.0
H506 H 0.74278 0.70799 0.40053 0.0
H507 H 0.76709 0.68286 0.42242 0.0
H508 H 0.66874 0.71236 0.4317 0.0
H509 H 0.68129 0.67017 0.3481 0.0
H510 H 0.68636 0.65342 0.37373 0.0
H511 H 0.7184 0.69069 0.36314 0.0
C512 C 0.69151 0.64229 0.44394 0.0
C513 C 0.72388 0.65125 0.44085 0.0
C514 C 0.6776 0.65656 0.43129 0.0
C515 C 0.69568 0.67997 0.41524 0.0
C516 C 0.7281 0.68934 0.41237 0.0
H517 H 0.6785 0.81551 0.33313 0.0
H518 H 0.69292 0.77924 0.35144 0.0
C519 C 0.74201 0.67503 0.42495 0.0
C520 C 0.68099 0.69544 0.40206 0.0
H521 H 0.66818 0.71189 0.34869 0.0
C522 C 0.66823 0.71193 0.41356 0.0
C523 C 0.68028 0.69477 0.37838 0.0
C524 C 0.69202 0.67605 0.3651 0.0
C525 C 0.656 0.72887 0.40202 0.0
C526 C 0.65605 0.72888 0.37834 0.0
C527 C 0.66813 0.7118 0.36684 0.0
C528 C 0.64581 0.7484 0.36531 0.0
C529 C 0.64431 0.7477 0.41526 0.0
C530 C 0.61418 0.74241 0.36634 0.0
C531 C 0.60579 0.76313 0.35581 0.0
C532 C 0.62894 0.7902 0.34411 0.0
C533 C 0.66013 0.79503 0.34212 0.0
C534 C 0.66843 0.7743 0.35257 0.0
H535 H 0.65165 0.75027 0.4331 0.0
H536 H 0.6536 0.77197 0.408 0.0
H537 H 0.61777 0.73516 0.41463 0.0
H538 H 0.59622 0.72221 0.37577 0.0
H539 H 0.58156 0.75869 0.35766 0.0
H540 H 0.09792 0.7366 0.57497 0.0
H541 H 0.04718 0.71398 0.5548 0.0
H542 H 0.99578 0.68626 0.61735 0.0
H543 H 0.04649 0.7098 0.63774 0.0
H544 H 0.99474 0.65113 0.55456 0.0
H545 H 0.96063 0.73817 0.58652 0.0
H546 H 1.00062 0.74444 0.58934 0.0
H547 H 0.96934 0.71743 0.60786 0.0
C548 C 0.07591 0.7261 0.58451 0.0
C549 C 0.07641 0.72532 0.60805 0.0
C550 C 0.04688 0.71287 0.57291 0.0
C551 C 0.01772 0.69874 0.58457 0.0
C552 C 0.01803 0.69746 0.60802 0.0
H553 H 0.82522 0.58382 0.5284 0.0
H554 H 0.8767 0.60044 0.54668 0.0
C555 C 0.04706 0.71069 0.61965 0.0
C556 C 0.98706 0.68572 0.57214 0.0
H557 H 0.92215 0.69527 0.5647 0.0
C558 C 0.97882 0.66072 0.55676 0.0
C559 C 0.96652 0.69852 0.57488 0.0
C560 C 0.97475 0.72631 0.59038 0.0
C561 C 0.95047 0.64809 0.54412 0.0
C562 C 0.92972 0.6606 0.54713 0.0
C563 C 0.93803 0.6856 0.56249 0.0
C564 C 0.89973 0.64905 0.53409 0.0
C565 C 0.94331 0.62203 0.52729 0.0
C566 C 0.89566 0.67069 0.52077 0.0
C567 C 0.86634 0.66134 0.51043 0.0
C568 C 0.84035 0.63011 0.51322 0.0
C569 C 0.84484 0.60796 0.52575 0.0
C570 C 0.87427 0.61742 0.5362 0.0
H571 H 0.96491 0.62031 0.52332 0.0
H572 H 0.92485 0.59867 0.53426 0.0
H573 H 0.93379 0.62627 0.51154 0.0
H574 H 0.91498 0.69518 0.51887 0.0
H575 H 0.86375 0.67896 0.50082 0.0
H576 H 0.24769 0.82252 0.6938 0.0
H577 H 0.28455 0.87361 0.71192 0.0
H578 H 0.2307 0.91537 0.68517 0.0
H579 H 0.19414 0.8648 0.66685 0.0
H580 H 0.29795 0.95651 0.68339 0.0
H581 H 0.25618 0.90325 0.7679 0.0
H582 H 0.27133 0.8837 0.75018 0.0
H583 H 0.23509 0.8833 0.74267 0.0
C584 C 0.24406 0.84276 0.69143 0.0
C585 C 0.2178 0.83951 0.67904 0.0
C586 C 0.26498 0.87184 0.70196 0.0
C587 C 0.25996 0.89808 0.70024 0.0
C588 C 0.23488 0.89538 0.68684 0.0
H589 H 0.32558 0.08615 0.75496 0.0
H590 H 0.30077 0.03621 0.73358 0.0
C591 C 0.21398 0.8664 0.67639 0.0
C592 C 0.2796 0.92793 0.71318 0.0
H593 H 0.29457 0.95809 0.76632 0.0
C594 C 0.29742 0.95686 0.70153 0.0
C595 C 0.2788 0.92831 0.73685 0.0
C596 C 0.25917 0.89808 0.75022 0.0
C597 C 0.31432 0.98621 0.7129 0.0
C598 C 0.31279 0.9867 0.73654 0.0
C599 C 0.29564 0.95767 0.74821 0.0
C600 C 0.328 0.01711 0.74945 0.0
C601 C 0.33378 0.01641 0.69948 0.0
C602 C 0.35085 0.02261 0.76598 0.0
C603 C 0.36495 0.05109 0.77833 0.0
C604 C 0.35636 0.07463 0.77447 0.0
C605 C 0.33312 0.0688 0.7581 0.0
C606 C 0.31898 0.04029 0.74581 0.0
H607 H 0.34015 0.01115 0.68276 0.0
H608 H 0.31947 0.02837 0.69686 0.0
H609 H 0.35616 0.03336 0.70837 0.0
H610 H 0.35805 0.00498 0.76915 0.0
H611 H 0.38303 0.05487 0.79055 0.0
H612 H 0.81553 0.67816 0.99221 0.0
H613 H 0.78058 0.69443 0.9741 0.0
H614 H 0.726 0.60065 0.94449 0.0
H615 H 0.76077 0.58398 0.9628 0.0
H616 H 0.77521 0.69586 0.92804 0.0
H617 H 0.6562 0.61894 0.96722 0.0
H618 H 0.69299 0.62499 0.97959 0.0
H619 H 0.67539 0.59794 0.95646 0.0
C620 C 0.7957 0.66073 0.98222 0.0
C621 C 0.79102 0.6298 0.97889 0.0
C622 C 0.77578 0.67012 0.97184 0.0
C623 C 0.75066 0.64877 0.95798 0.0
C624 C 0.74495 0.61738 0.95539 0.0
H625 H 0.66717 0.71057 0.85329 0.0
H626 H 0.69385 0.68682 0.87406 0.0
C627 C 0.76487 0.60789 0.96586 0.0
C628 C 0.7325 0.6605 0.94479 0.0
H629 H 0.65798 0.65041 0.93613 0.0
C630 C 0.74957 0.68592 0.92981 0.0
C631 C 0.6991 0.6476 0.94722 0.0
C632 C 0.67978 0.62104 0.96362 0.0
C633 C 0.73421 0.69886 0.91721 0.0
C634 C 0.70073 0.68568 0.91937 0.0
C635 C 0.68361 0.66029 0.93439 0.0
C636 C 0.68332 0.69872 0.9067 0.0
C637 C 0.7541 0.72706 0.9021 0.0
C638 C 0.66788 0.71259 0.91815 0.0
C639 C 0.65238 0.72595 0.90633 0.0
C640 C 0.65185 0.72556 0.88278 0.0
C641 C 0.66694 0.71115 0.87138 0.0
C642 C 0.68244 0.6978 0.88323 0.0
H643 H 0.77997 0.739 0.90634 0.0
H644 H 0.75122 0.7186 0.88454 0.0
H645 H 0.74614 0.74502 0.90314 0.0
H646 H 0.66814 0.71341 0.93626 0.0
H647 H 0.64056 0.73628 0.9157 0.0
H648 H 0.1817 0.7585 0.1305 0.0
H649 H 0.1306 0.72221 0.11226 0.0
H650 H 0.09036 0.77804 0.13795 0.0
H651 H 0.14104 0.81417 0.15636 0.0
H652 H 0.04829 0.71008 0.14004 0.0
H653 H 0.1025 0.75171 0.05574 0.0
H654 H 0.12181 0.73664 0.07374 0.0
H655 H 0.12211 0.77291 0.08103 0.0
C656 C 0.1618 0.76271 0.13262 0.0
C657 C 0.16554 0.78941 0.14474 0.0
C658 C 0.13271 0.7421 0.12203 0.0
C659 C 0.10692 0.74782 0.12342 0.0
C660 C 0.11004 0.77333 0.13655 0.0
H661 H 0.91909 0.68166 0.06814 0.0
H662 H 0.96892 0.70676 0.08959 0.0
C663 C 0.13906 0.79397 0.14705 0.0
C664 C 0.07716 0.72843 0.11037 0.0
H665 H 0.04761 0.71344 0.05709 0.0
C666 C 0.04812 0.71061 0.1219 0.0
C667 C 0.07704 0.72922 0.0867 0.0
C668 C 0.10743 0.74879 0.07348 0.0
C669 C 0.01891 0.69365 0.11039 0.0
C670 C 0.01868 0.69516 0.08674 0.0
C671 C 0.04782 0.71237 0.07521 0.0
C672 C 0.98842 0.67989 0.07367 0.0
C673 C 0.98861 0.67409 0.1237 0.0
C674 C 0.98322 0.65722 0.05705 0.0
C675 C 0.95481 0.64299 0.04464 0.0
C676 C 0.93105 0.65124 0.04856 0.0
C677 C 0.93662 0.67437 0.06498 0.0
C678 C 0.96506 0.68866 0.07731 0.0
H679 H 0.99375 0.66762 0.14041 0.0
H680 H 0.97664 0.68839 0.12633 0.0
H681 H 0.97175 0.65176 0.11472 0.0
H682 H 1.001 0.65023 0.05386 0.0
H683 H 0.95122 0.62503 0.03233 0.0
H684 H 0.33118 0.1421 0.32227 0.0
H685 H 0.31621 0.09108 0.30428 0.0
H686 H 0.41138 0.13113 0.27693 0.0
H687 H 0.42661 0.18261 0.29483 0.0
H688 H 0.36178 0.10162 0.24504 0.0
H689 H 0.33904 0.02147 0.31758 0.0
H690 H 0.31909 0.04439 0.31952 0.0
H691 H 0.36213 0.0646 0.31979 0.0
C692 C 0.34917 0.13996 0.31278 0.0
C693 C 0.3801 0.16646 0.31 0.0
C694 C 0.34059 0.11068 0.30259 0.0
C695 C 0.36275 0.10718 0.28944 0.0
C696 C 0.39397 0.13327 0.28714 0.0
H697 H 0.33043 0.9505 0.19875 0.0
H698 H 0.35499 1.00091 0.21955 0.0
C699 C 0.40267 0.16262 0.29747 0.0
C700 C 0.35228 0.07714 0.27664 0.0
H701 H 0.31758 0.99603 0.28246 0.0
C702 C 0.35252 0.07855 0.25318 0.0
C703 C 0.34002 0.04708 0.28732 0.0
C704 C 0.34028 0.04421 0.31244 0.0
C705 C 0.33969 0.05059 0.24011 0.0
C706 C 0.32685 0.02044 0.2508 0.0
C707 C 0.32729 0.01912 0.27427 0.0
C708 C 0.31206 0.98991 0.23801 0.0
C709 C 0.3388 0.05353 0.21502 0.0
C710 C 0.27993 0.96662 0.24177 0.0
C711 C 0.26584 0.9377 0.22994 0.0
C712 C 0.28359 0.93142 0.2141 0.0
C713 C 0.31584 0.95478 0.21044 0.0
C714 C 0.32996 0.98364 0.22235 0.0
H715 H 0.34199 0.07712 0.20994 0.0
H716 H 0.35854 0.05117 0.20745 0.0
H717 H 0.31582 0.03434 0.20804 0.0
H718 H 0.26566 0.97091 0.25379 0.0
H719 H 0.24094 0.92036 0.23306 0.0
H720 H 0.19203 0.32979 0.48995 0.0
H721 H 0.22729 0.31386 0.4719 0.0
H722 H 0.28191 0.40791 0.44271 0.0
H723 H 0.24674 0.42424 0.46095 0.0
H724 H 0.23319 0.31314 0.42562 0.0
H725 H 0.35155 0.38924 0.46589 0.0
H726 H 0.31453 0.38276 0.47816 0.0
H727 H 0.33225 0.41019 0.45526 0.0
C728 C 0.21191 0.34735 0.48006 0.0
C729 C 0.2165 0.37826 0.47684 0.0
C730 C 0.23202 0.33816 0.46972 0.0
C731 C 0.25725 0.35966 0.45598 0.0
C732 C 0.26286 0.39105 0.45349 0.0
H733 H 0.3427 0.29833 0.35219 0.0
H734 H 0.31599 0.32233 0.37266 0.0
C735 C 0.24273 0.40035 0.46393 0.0
C736 C 0.27561 0.34808 0.44285 0.0
H737 H 0.35005 0.3575 0.43509 0.0
C738 C 0.25876 0.32287 0.42767 0.0
C739 C 0.3089 0.36068 0.44565 0.0
C740 C 0.32795 0.38704 0.46224 0.0
C741 C 0.27423 0.30983 0.41527 0.0
C742 C 0.3076 0.32266 0.41784 0.0
C743 C 0.32451 0.34787 0.43303 0.0
C744 C 0.32508 0.30946 0.4054 0.0
C745 C 0.25457 0.28188 0.39992 0.0
C746 C 0.33969 0.29489 0.41701 0.0
C747 C 0.35517 0.28133 0.40536 0.0
C748 C 0.35655 0.28224 0.38182 0.0
C749 C 0.34228 0.29734 0.37028 0.0
C750 C 0.32677 0.31086 0.38195 0.0
H751 H 0.22857 0.27022 0.40375 0.0
H752 H 0.25815 0.29053 0.38237 0.0
H753 H 0.26214 0.26365 0.40117 0.0
H754 H 0.33877 0.29367 0.43511 0.0
H755 H 0.36633 0.27044 0.41484 0.0
H756 H 0.86498 0.19234 0.65482 0.0
H757 H 0.91611 0.22908 0.63729 0.0
H758 H 0.87506 0.28268 0.60895 0.0
H759 H 0.8234 0.24566 0.62638 0.0
H760 H 0.90572 0.26345 0.57765 0.0
H761 H 0.98448 0.32172 0.65061 0.0
H762 H 0.96222 0.27883 0.65264 0.0
H763 H 0.94132 0.301 0.65256 0.0
C764 C 0.86691 0.21228 0.64521 0.0
C765 C 0.84009 0.21605 0.64199 0.0
C766 C 0.89626 0.23339 0.6353 0.0
C767 C 0.89953 0.25882 0.62201 0.0
C768 C 0.87309 0.26332 0.61929 0.0
H769 H 0.05696 0.38341 0.5321 0.0
H770 H 0.00664 0.35786 0.55294 0.0
C771 C 0.84365 0.24225 0.62934 0.0
C772 C 0.92969 0.27868 0.60942 0.0
H773 H 0.01066 0.32539 0.61577 0.0
C774 C 0.92864 0.27741 0.58595 0.0
C775 C 0.95955 0.29665 0.62029 0.0
C776 C 0.96203 0.29994 0.64541 0.0
C777 C 0.95678 0.29257 0.57308 0.0
C778 C 0.98674 0.31 0.58398 0.0
C779 C 0.98771 0.3119 0.60744 0.0
C780 C 0.01742 0.32579 0.57138 0.0
C781 C 0.95426 0.28867 0.54798 0.0
C782 C 0.0406 0.31683 0.57517 0.0
C783 C 0.06948 0.33146 0.56329 0.0
C784 C 0.0758 0.3554 0.54739 0.0
C785 C 0.05263 0.36455 0.54381 0.0
C786 C 0.02382 0.34999 0.55575 0.0
H787 H 0.93074 0.26828 0.54277 0.0
H788 H 0.95683 0.31078 0.54029 0.0
H789 H 0.97353 0.2848 0.54126 0.0
H790 H 0.03619 0.29824 0.58719 0.0
H791 H 0.0867 0.32374 0.56636 0.0
H792 H 0.67782 0.86595 0.82524 0.0
H793 H 0.69438 0.91712 0.80692 0.0
H794 H 0.60123 0.87767 0.77636 0.0
H795 H 0.58425 0.82627 0.7949 0.0
H796 H 0.69666 0.9235 0.7608 0.0
H797 H 0.61868 0.96577 0.79795 0.0
H798 H 0.62433 0.93507 0.81084 0.0
H799 H 0.59801 0.92554 0.78726 0.0
C800 C 0.66057 0.86829 0.815 0.0
C801 C 0.62974 0.84199 0.81148 0.0
C802 C 0.67012 0.89757 0.80451 0.0
C803 C 0.64905 0.90128 0.79032 0.0
C804 C 0.61773 0.87553 0.78752 0.0
H805 H 0.67959 0.05534 0.69922 0.0
H806 H 0.65714 0.00521 0.72025 0.0
C807 C 0.60807 0.84614 0.79813 0.0
C808 C 0.66106 0.93108 0.77696 0.0
H809 H 0.65111 0.9954 0.76719 0.0
C810 C 0.68676 0.93928 0.76226 0.0
C811 C 0.64793 0.95146 0.77873 0.0
C812 C 0.62088 0.94427 0.79466 0.0
C813 C 0.69969 0.96725 0.74928 0.0
C814 C 0.68694 0.98793 0.75131 0.0
C815 C 0.66091 0.97955 0.76574 0.0
C816 C 0.70058 0.0185 0.73871 0.0
C817 C 0.72658 0.97417 0.73323 0.0
C818 C 0.73239 0.04275 0.74225 0.0
C819 C 0.7454 0.07137 0.73012 0.0
C820 C 0.72683 0.07638 0.71424 0.0
C821 C 0.69481 0.05212 0.71095 0.0
C822 C 0.68181 0.02353 0.72313 0.0
H823 H 0.72786 0.95228 0.72939 0.0
H824 H 0.7237 0.98432 0.71731 0.0
H825 H 0.74969 0.99197 0.74088 0.0
H826 H 0.74717 0.03957 0.75444 0.0
H827 H 0.77011 0.08944 0.73302 0.0
H828 H 0.29234 0.76266 0.0726 0.0
H829 H 0.28462 0.71042 0.0623 0.0
H830 H 0.23275 0.67032 0.12365 0.0
H831 H 0.24181 0.72294 0.13468 0.0
H832 H 0.27678 0.65376 0.1177 0.0
H833 H 0.20908 0.63049 0.03888 0.0
H834 H 0.24527 0.66856 0.03796 0.0
H835 H 0.21457 0.66187 0.05798 0.0
C836 C 0.27926 0.74282 0.08396 0.0
C837 C 0.26792 0.74728 0.10458 0.0
C838 C 0.27439 0.71274 0.07784 0.0
C839 C 0.25759 0.68624 0.092 0.0
C840 C 0.24555 0.69035 0.11235 0.0
H841 H 0.22538 0.49797 0.04726 0.0
H842 H 0.21531 0.54055 0.0601 0.0
C843 C 0.2506 0.72052 0.11857 0.0
C844 C 0.25525 0.65509 0.08643 0.0
H845 H 0.2371 0.60104 0.04411 0.0
C846 C 0.26761 0.64197 0.10174 0.0
C847 C 0.24277 0.63928 0.0658 0.0
C848 C 0.22685 0.65061 0.04934 0.0
C849 C 0.2694 0.61454 0.09652 0.0
C850 C 0.25935 0.6003 0.07517 0.0
C851 C 0.24532 0.61229 0.06033 0.0
C852 C 0.26501 0.57426 0.06749 0.0
C853 C 0.28234 0.60129 0.11391 0.0
C854 C 0.29628 0.5793 0.06697 0.0
C855 C 0.30204 0.55512 0.05973 0.0
C856 C 0.27668 0.52543 0.05257 0.0
C857 C 0.24539 0.52061 0.05262 0.0
C858 C 0.23961 0.54484 0.06002 0.0
H859 H 0.27867 0.60765 0.13109 0.0
H860 H 0.27077 0.57481 0.11269 0.0
H861 H 0.30849 0.61175 0.11134 0.0
H862 H 0.31638 0.60214 0.07196 0.0
H863 H 0.32649 0.55995 0.05937 0.0
H864 H 0.77054 0.32581 0.22496 0.0
H865 H 0.7185 0.31656 0.23744 0.0
H866 H 0.67726 0.21543 0.22478 0.0
H867 H 0.72965 0.22461 0.21208 0.0
H868 H 0.63968 0.23893 0.20893 0.0
H869 H 0.67457 0.27812 0.29637 0.0
H870 H 0.70085 0.308 0.27686 0.0
H871 H 0.69904 0.26979 0.27781 0.0
C872 C 0.75058 0.30152 0.22511 0.0
C873 C 0.75436 0.27588 0.21779 0.0
C874 C 0.7208 0.29626 0.23228 0.0
C875 C 0.69415 0.26522 0.23255 0.0
C876 C 0.6976 0.23956 0.22489 0.0
H877 H 0.52294 0.24262 0.30019 0.0
H878 H 0.56621 0.23342 0.28869 0.0
C879 C 0.72747 0.24484 0.21758 0.0
C880 C 0.66265 0.26007 0.24023 0.0
H881 H 0.62706 0.27728 0.28319 0.0
C882 C 0.63674 0.24687 0.22528 0.0
C883 C 0.65858 0.26978 0.26175 0.0
C884 C 0.68465 0.28188 0.2792 0.0
C885 C 0.60742 0.24475 0.23084 0.0
C886 C 0.60422 0.25684 0.25169 0.0
C887 C 0.62958 0.26841 0.26707 0.0
C888 C 0.57563 0.25941 0.2575 0.0
C889 C 0.58025 0.22971 0.21425 0.0
C890 C 0.5663 0.27691 0.24377 0.0
C891 C 0.54125 0.28188 0.25015 0.0
C892 C 0.52523 0.26991 0.27063 0.0
C893 C 0.53431 0.25191 0.2842 0.0
C894 C 0.55926 0.24677 0.27771 0.0
H895 H 0.58236 0.21213 0.2034 0.0
H896 H 0.55665 0.21738 0.2228 0.0
H897 H 0.58108 0.24865 0.20327 0.0
H898 H 0.57901 0.28759 0.22836 0.0
H899 H 0.53477 0.2955 0.23912 0.0
H900 H 0.47516 0.76405 0.41633 0.0
H901 H 0.43084 0.71177 0.42674 0.0
H902 H 0.44366 0.67123 0.36598 0.0
H903 H 0.48698 0.72385 0.35479 0.0
H904 H 0.38296 0.6539 0.37148 0.0
H905 H 0.42726 0.63277 0.45113 0.0
H906 H 0.42842 0.67051 0.45159 0.0
H907 H 0.45303 0.66407 0.43196 0.0
C908 C 0.46867 0.74412 0.40511 0.0
C909 C 0.48472 0.74847 0.3846 0.0
C910 C 0.44357 0.71401 0.4113 0.0
C911 C 0.43423 0.68736 0.39736 0.0
C912 C 0.45061 0.69138 0.37712 0.0
H913 H 0.28007 0.49827 0.44242 0.0
H914 H 0.33252 0.54157 0.42987 0.0
C915 C 0.4756 0.72157 0.37081 0.0
C916 C 0.40561 0.65609 0.40301 0.0
H917 H 0.36991 0.60236 0.44554 0.0
C918 C 0.38035 0.64239 0.38755 0.0
C919 C 0.4023 0.64063 0.4238 0.0
C920 C 0.42937 0.65259 0.44044 0.0
C921 C 0.35133 0.61468 0.39273 0.0
C922 C 0.34712 0.60074 0.4142 0.0
C923 C 0.37294 0.61337 0.42922 0.0
C924 C 0.31556 0.5743 0.42177 0.0
C925 C 0.32541 0.60077 0.37516 0.0
C926 C 0.28883 0.57856 0.42181 0.0
C927 C 0.25901 0.55396 0.42886 0.0
C928 C 0.25527 0.52462 0.43633 0.0
C929 C 0.28222 0.52061 0.4368 0.0
C930 C 0.31214 0.54527 0.42958 0.0
H931 H 0.33568 0.60709 0.35803 0.0
H932 H 0.31093 0.57427 0.37651 0.0
H933 H 0.30928 0.61078 0.37738 0.0
H934 H 0.29109 0.6011 0.41656 0.0
H935 H 0.23898 0.55816 0.42882 0.0
H936 H 0.76313 0.48552 0.523 0.0
H937 H 0.77047 0.44083 0.53385 0.0
H938 H 0.71639 0.42823 0.5942 0.0
H939 H 0.71036 0.47389 0.58413 0.0
H940 H 0.76755 0.42042 0.60179 0.0
H941 H 0.69922 0.34892 0.52793 0.0
H942 H 0.73392 0.3866 0.5212 0.0
H943 H 0.70084 0.38585 0.53567 0.0
C944 C 0.75324 0.47371 0.53877 0.0
C945 C 0.7357 0.48319 0.55251 0.0
C946 C 0.75717 0.44784 0.54482 0.0
C947 C 0.74332 0.43068 0.56456 0.0
C948 C 0.72703 0.44092 0.57877 0.0
H949 H 0.67937 0.23599 0.59828 0.0
H950 H 0.68734 0.28806 0.58698 0.0
C951 C 0.72332 0.4669 0.57285 0.0
C952 C 0.74453 0.40131 0.57016 0.0
H953 H 0.72023 0.32537 0.55201 0.0
C954 C 0.75739 0.39967 0.59087 0.0
C955 C 0.73092 0.37415 0.55597 0.0
C956 C 0.71517 0.37372 0.53405 0.0
C957 C 0.75647 0.37143 0.59797 0.0
C958 C 0.74297 0.34434 0.58373 0.0
C959 C 0.73076 0.34623 0.56283 0.0
C960 C 0.73887 0.31297 0.5908 0.0
C961 C 0.76871 0.37047 0.62102 0.0
C962 C 0.76522 0.30955 0.59662 0.0
C963 C 0.76067 0.27967 0.60322 0.0
C964 C 0.72975 0.25265 0.60375 0.0
C965 C 0.70352 0.25618 0.59771 0.0
C966 C 0.70804 0.28599 0.59134 0.0
H967 H 0.77124 0.39048 0.63171 0.0
H968 H 0.75244 0.34748 0.62954 0.0
H969 H 0.79263 0.37259 0.61954 0.0
H970 H 0.7893 0.32987 0.59586 0.0
H971 H 0.78133 0.27755 0.60755 0.0
H972 H 0.27855 0.78129 0.71397 0.0
H973 H 0.33089 0.78948 0.72575 0.0
H974 H 0.28919 0.68761 0.73537 0.0
H975 H 0.23709 0.67944 0.724 0.0
H976 H 0.32646 0.72086 0.77012 0.0
H977 H 0.39156 0.77116 0.69031 0.0
H978 H 0.3737 0.7927 0.70226 0.0
H979 H 0.34859 0.75239 0.69247 0.0
C980 C 0.28069 0.7607 0.71848 0.0
C981 C 0.2537 0.72975 0.71813 0.0
C982 C 0.31059 0.76537 0.72513 0.0
C983 C 0.31405 0.7391 0.73118 0.0
C984 C 0.2871 0.70824 0.73083 0.0
H985 H 0.47559 0.71162 0.73861 0.0
H986 H 0.42982 0.71728 0.7283 0.0
C987 C 0.25727 0.70361 0.72441 0.0
C988 C 0.34543 0.74334 0.73832 0.0
H989 H 0.42156 0.76797 0.72039 0.0
C990 C 0.34733 0.73133 0.75931 0.0
C991 C 0.37253 0.75676 0.72409 0.0
C992 C 0.37157 0.76875 0.70094 0.0
C993 C 0.37526 0.73164 0.76627 0.0
C994 C 0.40244 0.7452 0.7521 0.0
C995 C 0.40079 0.75785 0.7313 0.0
C996 C 0.43188 0.7442 0.75784 0.0
C997 C 0.37481 0.71607 0.78829 0.0
C998 C 0.44886 0.75818 0.7776 0.0
C999 C 0.47478 0.75445 0.78381 0.0
C1000 C 0.48451 0.73698 0.7702 0.0
C1001 C 0.46841 0.72451 0.74982 0.0
C1002 C 0.44236 0.72801 0.74375 0.0
H1003 H 0.35001 0.70002 0.79436 0.0
H1004 H 0.3871 0.70188 0.78683 0.0
H1005 H 0.38751 0.73493 0.8011 0.0
H1006 H 0.44168 0.77145 0.78848 0.0
H1007 H 0.48642 0.76444 0.7996 0.0
H1008 H 0.72451 0.48679 0.96648 0.0
H1009 H 0.67251 0.44222 0.95547 0.0
H1010 H 0.71391 0.4308 0.89466 0.0
H1011 H 0.76555 0.47638 0.90488 0.0
H1012 H 0.65486 0.42258 0.88737 0.0
H1013 H 0.65236 0.35048 0.96066 0.0
H1014 H 0.65501 0.38793 0.96769 0.0
H1015 H 0.68749 0.38766 0.95308 0.0
C1016 C 0.72259 0.47528 0.95057 0.0
C1017 C 0.74959 0.48504 0.93676 0.0
C1018 C 0.6928 0.44947 0.94443 0.0
C1019 C 0.68948 0.43265 0.92451 0.0
C1020 C 0.71596 0.44321 0.91023 0.0
H1021 H 0.56065 0.23803 0.89003 0.0
H1022 H 0.60424 0.29032 0.90146 0.0
C1023 C 0.74563 0.46914 0.91623 0.0
C1024 C 0.65897 0.40322 0.91883 0.0
H1025 H 0.60789 0.3269 0.93654 0.0
C1026 C 0.64442 0.40169 0.89816 0.0
C1027 C 0.64563 0.37588 0.93285 0.0
C1028 C 0.66102 0.37532 0.95471 0.0
C1029 C 0.6173 0.37338 0.89091 0.0
C1030 C 0.60395 0.3461 0.90497 0.0
C1031 C 0.61805 0.3479 0.92585 0.0
C1032 C 0.57702 0.31463 0.89771 0.0
C1033 C 0.60411 0.37256 0.86788 0.0
C1034 C 0.54709 0.31079 0.89183 0.0
C1035 C 0.52206 0.28077 0.88512 0.0
C1036 C 0.52643 0.25404 0.88457 0.0
C1037 C 0.55635 0.258 0.89062 0.0
C1038 C 0.58135 0.28794 0.89708 0.0
H1039 H 0.62147 0.39281 0.85732 0.0
H1040 H 0.59769 0.34975 0.8592 0.0
H1041 H 0.58213 0.37434 0.86943 0.0
H1042 H 0.54296 0.33087 0.89264 0.0
H1043 H 0.49915 0.27831 0.88077 0.0
H1044 H 0.31947 0.23264 0.2374 0.0
H1045 H 0.29822 0.24258 0.20295 0.0
H1046 H 0.36779 0.34318 0.20736 0.0
H1047 H 0.38989 0.33355 0.24122 0.0
H1048 H 0.29684 0.32221 0.19811 0.0
H1049 H 0.35399 0.27282 0.14189 0.0
H1050 H 0.33284 0.25026 0.16635 0.0
H1051 H 0.36933 0.28766 0.16954 0.0
C1052 C 0.33031 0.25688 0.23101 0.0
C1053 C 0.35638 0.28229 0.24214 0.0
C1054 C 0.31804 0.26248 0.21142 0.0
C1055 C 0.33156 0.29356 0.20271 0.0
C1056 C 0.357 0.31905 0.21397 0.0
H1057 H 0.33681 0.38763 0.08166 0.0
H1058 H 0.3462 0.36527 0.1155 0.0
C1059 C 0.36942 0.31348 0.23343 0.0
C1060 C 0.32001 0.2997 0.18146 0.0
H1061 H 0.32599 0.29547 0.12481 0.0
C1062 C 0.30276 0.316 0.18206 0.0
C1063 C 0.32815 0.29175 0.16066 0.0
C1064 C 0.34721 0.27476 0.15934 0.0
C1065 C 0.29385 0.3251 0.16225 0.0
C1066 C 0.30248 0.31765 0.14145 0.0
C1067 C 0.31927 0.30087 0.14085 0.0
C1068 C 0.29648 0.32937 0.12021 0.0
C1069 C 0.27635 0.34368 0.16361 0.0
C1070 C 0.26542 0.31611 0.11153 0.0
C1071 C 0.25996 0.32854 0.09195 0.0
C1072 C 0.28548 0.35451 0.08082 0.0
C1073 C 0.31665 0.36726 0.08948 0.0
C1074 C 0.32208 0.35469 0.10892 0.0
H1075 H 0.27442 0.35046 0.18106 0.0
H1076 H 0.28882 0.36578 0.15332 0.0
H1077 H 0.25183 0.3289 0.15675 0.0
H1078 H 0.24543 0.29636 0.11999 0.0
H1079 H 0.23574 0.31791 0.0856 0.0
H1080 H 0.11832 0.37842 0.38352 0.0
H1081 H 0.08509 0.35764 0.3501 0.0
H1082 H 1.00244 0.29983 0.39134 0.0
H1083 H 0.0356 0.32095 0.42499 0.0
H1084 H 0.04778 0.29734 0.33298 0.0
H1085 H 0.97398 0.35236 0.35509 0.0
H1086 H 0.01032 0.36185 0.36978 0.0
H1087 H 0.9738 0.32524 0.37573 0.0
C1088 C 0.09317 0.3609 0.38548 0.0
C1089 C 0.0795 0.35135 0.40687 0.0
C1090 C 0.0742 0.34913 0.36637 0.0
C1091 C 0.04123 0.32759 0.36825 0.0
C1092 C 0.02771 0.31698 0.38954 0.0
H1093 H 0.91977 0.23354 0.25149 0.0
H1094 H 0.95034 0.2436 0.28615 0.0
C1095 C 0.04665 0.32897 0.40872 0.0
C1096 C 0.02104 0.3174 0.34789 0.0
H1097 H 0.95976 0.32108 0.32228 0.0
C1098 C 0.02842 0.30237 0.33064 0.0
C1099 C 0.99612 0.32443 0.34481 0.0
C1100 C 0.98819 0.34211 0.36222 0.0
C1101 C 0.01174 0.29446 0.31026 0.0
C1102 C 0.98658 0.30117 0.3073 0.0
C1103 C 0.97896 0.31582 0.32466 0.0
C1104 C 0.96882 0.29479 0.28595 0.0
C1105 C 0.02194 0.28006 0.29183 0.0
C1106 C 0.96863 0.32012 0.27456 0.0
C1107 C 0.95077 0.3144 0.25504 0.0
C1108 C 0.93275 0.28317 0.24639 0.0
C1109 C 0.93326 0.25784 0.25773 0.0
C1110 C 0.95101 0.26359 0.2774 0.0
H1111 H 0.04636 0.28387 0.29474 0.0
H1112 H 0.00505 0.25386 0.29113 0.0
H1113 H 0.02158 0.29045 0.27533 0.0
H1114 H 0.98205 0.34437 0.28096 0.0
H1115 H 0.9504 0.3344 0.2471 0.0
H1116 H 0.68492 0.97156 0.39529 0.0
H1117 H 0.70742 0.00527 0.42856 0.0
H1118 H 0.65266 0.92291 0.47077 0.0
H1119 H 0.63048 0.88916 0.43772 0.0
H1120 H 0.6752 0.01705 0.46003 0.0
H1121 H 0.73942 0.96203 0.50004 0.0
H1122 H 0.72552 0.95361 0.47147 0.0
H1123 H 0.69846 0.933 0.49424 0.0
C1124 C 0.67801 0.96064 0.41169 0.0
C1125 C 0.65615 0.9277 0.41392 0.0
C1126 C 0.69092 0.97987 0.43065 0.0
C1127 C 0.68218 0.9665 0.45215 0.0
C1128 C 0.66053 0.93358 0.45438 0.0
H1129 H 0.67418 0.05796 0.57281 0.0
H1130 H 0.6646 0.02727 0.53846 0.0
C1131 C 0.6478 0.91432 0.43546 0.0
C1132 C 0.69352 0.98728 0.47223 0.0
H1133 H 0.72745 0.99514 0.52366 0.0
C1134 C 0.687 0.01251 0.47382 0.0
C1135 C 0.70931 0.98164 0.4901 0.0
C1136 C 0.7189 0.95631 0.4888 0.0
C1137 C 0.69468 0.03144 0.49313 0.0
C1138 C 0.70856 0.02444 0.51155 0.0
C1139 C 0.71633 1.00012 0.50964 0.0
C1140 C 0.71439 0.04163 0.53311 0.0
C1141 C 0.68784 0.05876 0.49359 0.0
C1142 C 0.7454 0.05874 0.54203 0.0
C1143 C 0.75091 0.07586 0.562 0.0
C1144 C 0.72547 0.07604 0.57341 0.0
C1145 C 0.6943 0.05807 0.56467 0.0
C1146 C 0.68882 0.04089 0.54482 0.0
H1147 H 0.68664 0.06694 0.47643 0.0
H1148 H 0.66431 0.05058 0.50173 0.0
H1149 H 0.70641 0.07946 0.50318 0.0
H1150 H 0.76541 0.05932 0.53334 0.0
H1151 H 0.77512 0.08911 0.56842 0.0
H1152 H 0.77481 0.68912 0.58694 0.0
H1153 H 0.76529 0.70908 0.62214 0.0
H1154 H 0.66463 0.63954 0.61773 0.0
H1155 H 0.67403 0.61852 0.58324 0.0
H1156 H 0.72725 0.73483 0.63224 0.0
H1157 H 0.68754 0.62244 0.67956 0.0
H1158 H 0.70696 0.62971 0.65265 0.0
H1159 H 0.66483 0.61623 0.65444 0.0
C1160 C 0.75067 0.67796 0.59355 0.0
C1161 C 0.72522 0.65212 0.58229 0.0
C1162 C 0.74527 0.6895 0.61358 0.0
C1163 C 0.71437 0.67535 0.62275 0.0
C1164 C 0.68878 0.65033 0.61119 0.0
H1165 H 0.63088 0.74363 0.71858 0.0
H1166 H 0.65282 0.7319 0.68549 0.0
C1167 C 0.69415 0.63868 0.59126 0.0
C1168 C 0.70869 0.68668 0.64438 0.0
H1169 H 0.67597 0.66073 0.69611 0.0
C1170 C 0.71635 0.71875 0.64631 0.0
C1171 C 0.69511 0.66584 0.66287 0.0
C1172 C 0.68845 0.63173 0.66241 0.0
C1173 C 0.70947 0.73019 0.66593 0.0
C1174 C 0.69394 0.70876 0.68387 0.0
C1175 C 0.68756 0.67706 0.68227 0.0
C1176 C 0.68263 0.71816 0.70401 0.0
C1177 C 0.71894 0.76509 0.66722 0.0
C1178 C 0.69158 0.71373 0.72548 0.0
C1179 C 0.67881 0.72016 0.74449 0.0
C1180 C 0.6569 0.73116 0.74233 0.0
C1181 C 0.64827 0.7359 0.7208 0.0
C1182 C 0.66086 0.72927 0.70185 0.0
H1183 H 0.73937 0.77994 0.6559 0.0
H1184 H 0.69842 0.76785 0.66188 0.0
H1185 H 0.72566 0.77444 0.68453 0.0
H1186 H 0.70817 0.70494 0.72753 0.0
H1187 H 0.68593 0.71636 0.76087 0.0
H1188 H 0.03338 0.70925 0.73049 0.0
H1189 H 1.00039 0.6972 0.76421 0.0
H1190 H 0.08498 0.73381 0.80525 0.0
H1191 H 0.11802 0.74529 0.77184 0.0
H1192 H 0.9983 0.65558 0.79943 0.0
H1193 H 0.03677 0.77833 0.83026 0.0
H1194 H 0.04279 0.77024 0.80169 0.0
H1195 H 0.06873 0.77081 0.82346 0.0
C1196 C 0.04498 0.71485 0.74669 0.0
C1197 C 0.07838 0.72839 0.74843 0.0
C1198 C 0.02613 0.70811 0.7659 0.0
C1199 C 0.04035 0.71506 0.78715 0.0
C1200 C 0.07365 0.72896 0.78897 0.0
H1201 H 0.97307 0.67769 0.92419 0.0
H1202 H 0.00482 0.69636 0.88978 0.0
C1203 C 0.0925 0.73558 0.76981 0.0
C1204 C 0.02025 0.70569 0.80751 0.0
H1205 H 0.00515 0.73529 0.85499 0.0
C1206 C 0.99954 0.67298 0.8115 0.0
C1207 C 0.02229 0.7285 0.82327 0.0
C1208 C 0.04364 0.76397 0.81946 0.0
C1209 C 0.98119 0.66235 0.83111 0.0
C1210 C 0.98308 0.68515 0.84687 0.0
C1211 C 1.00374 0.7179 0.84285 0.0
C1212 C 0.96382 0.67533 0.86767 0.0
C1213 C 0.96068 0.62676 0.83507 0.0
C1214 C 0.93029 0.65799 0.86661 0.0
C1215 C 0.91215 0.647 0.88616 0.0
C1216 C 0.92717 0.65352 0.90722 0.0
C1217 C 0.96078 0.67191 0.90824 0.0
C1218 C 0.97894 0.68277 0.88863 0.0
H1219 H 0.96851 0.61285 0.82463 0.0
H1220 H 0.96131 0.62072 0.85292 0.0
H1221 H 0.93551 0.61902 0.8306 0.0
H1222 H 0.91815 0.65249 0.85061 0.0
H1223 H 0.88637 0.63257 0.88466 0.0
H1224 H 0.29944 0.97199 0.09212 0.0
H1225 H 0.312 0.00495 0.05837 0.0
H1226 H 0.2718 0.91989 0.0175 0.0
H1227 H 0.25973 0.88683 0.05097 0.0
H1228 H 0.35213 0.00526 0.02281 0.0
H1229 H 0.22991 0.97079 0.99308 0.0
H1230 H 0.23803 0.96433 0.02152 0.0
H1231 H 0.23618 0.93794 0.99961 0.0
C1232 C 0.29315 0.96029 0.07595 0.0
C1233 C 0.27845 0.92675 0.07428 0.0
C1234 C 0.3002 0.97913 0.05673 0.0
C1235 C 0.29241 0.96477 0.03552 0.0
C1236 C 0.27734 0.93135 0.03376 0.0
H1237 H 0.32978 0.03286 0.8986 0.0
H1238 H 0.31088 1.00083 0.93286 0.0
C1239 C 0.27039 0.9125 0.05295 0.0
C1240 C 0.30207 0.98481 0.01513 0.0
H1241 H 0.27294 1.00155 0.96815 0.0
C1242 C 0.33486 0.00469 0.01093 0.0
C1243 C 0.27941 0.98366 0.99962 0.0
C1244 C 0.24388 0.96324 0.00368 0.0
C1245 C 0.34569 0.0231 0.99136 0.0
C1246 C 0.32304 0.02213 0.97587 0.0
C1247 C 0.29021 1.00226 0.98009 0.0
C1248 C 0.33308 0.04159 0.95518 0.0
C1249 C 0.38128 0.04273 0.98716 0.0
C1250 C 0.35117 0.07509 0.95641 0.0
C1251 C 0.36225 0.09339 0.93694 0.0
C1252 C 0.35511 0.07855 0.9158 0.0
C1253 C 0.33603 0.04499 0.91461 0.0
C1254 C 0.32505 0.02668 0.93415 0.0
H1255 H 0.3948 0.0342 0.99736 0.0
H1256 H 0.38693 0.04198 0.96923 0.0
H1257 H 0.38984 0.06804 0.99176 0.0
H1258 H 0.35715 0.08708 0.97248 0.0
H1259 H 0.37723 0.11911 0.93854 0.0
H1260 H 0.28995 0.52274 0.97345 0.0
H1261 H 0.31688 0.57309 0.95197 0.0
H1262 H 0.36613 0.53562 0.91302 0.0
H1263 H 0.33988 0.48597 0.93443 0.0
H1264 H 0.38495 0.61132 0.95207 0.0
H1265 H 0.33981 0.58002 0.86561 0.0
H1266 H 0.31745 0.55639 0.88951 0.0
H1267 H 0.34853 0.55093 0.87725 0.0
C1268 C 0.30578 0.52502 0.95982 0.0
C1269 C 0.31293 0.5006 0.95553 0.0
C1270 C 0.32118 0.55374 0.94764 0.0
C1271 C 0.34318 0.55792 0.93071 0.0
C1272 C 0.34877 0.53271 0.92567 0.0
H1273 H 0.5213 0.66855 0.88704 0.0
H1274 H 0.47149 0.64139 0.90824 0.0
C1275 C 0.33392 0.50442 0.93802 0.0
C1276 C 0.36411 0.58964 0.92037 0.0
H1277 H 0.3958 0.62229 0.86956 0.0
C1278 C 0.38669 0.61426 0.93404 0.0
C1279 C 0.36615 0.59373 0.89689 0.0
C1280 C 0.34144 0.56895 0.88149 0.0
C1281 C 0.41329 0.64115 0.92474 0.0
C1282 C 0.41736 0.64324 0.90127 0.0
C1283 C 0.39287 0.62051 0.88759 0.0
C1284 C 0.44902 0.66445 0.89094 0.0
C1285 C 0.43796 0.66599 0.94015 0.0
C1286 C 0.45311 0.68677 0.8743 0.0
C1287 C 0.48193 0.70271 0.86226 0.0
C1288 C 0.50652 0.69577 0.86639 0.0
C1289 C 0.50272 0.67435 0.88358 0.0
C1290 C 0.47434 0.65898 0.8958 0.0
H1291 H 0.42689 0.66734 0.95612 0.0
H1292 H 0.45627 0.65924 0.94419 0.0
H1293 H 0.45016 0.69003 0.93218 0.0
H1294 H 0.43367 0.69098 0.87011 0.0
H1295 H 0.48421 0.71886 0.84888 0.0
H1296 H 0.8594 0.51751 0.04869 0.0
H1297 H 0.83666 0.46755 0.06968 0.0
H1298 H 0.74454 0.4362 0.03935 0.0
H1299 H 0.76736 0.48685 0.01818 0.0
H1300 H 0.77868 0.43425 0.09941 0.0
H1301 H 0.77494 0.36994 0.02085 0.0
H1302 H 0.79937 0.41298 0.02257 0.0
H1303 H 0.7566 0.3946 0.02193 0.0
C1304 C 0.83414 0.50028 0.04678 0.0
C1305 C 0.81517 0.5059 0.03174 0.0
C1306 C 0.82116 0.4718 0.05884 0.0
C1307 C 0.78902 0.44816 0.05594 0.0
C1308 C 0.76943 0.4542 0.04175 0.0
H1309 H 0.76903 0.28531 0.1371 0.0
H1310 H 0.74564 0.31272 0.11616 0.0
C1311 C 0.78242 0.48311 0.0298 0.0
C1312 C 0.77793 0.41645 0.06631 0.0
H1313 H 0.77693 0.34662 0.05483 0.0
C1314 C 0.77693 0.4144 0.08973 0.0
C1315 C 0.77581 0.39076 0.05354 0.0
C1316 C 0.77672 0.39189 0.02831 0.0
C1317 C 0.77697 0.3887 0.10075 0.0
C1318 C 0.77809 0.36461 0.08794 0.0
C1319 C 0.77595 0.36511 0.06455 0.0
C1320 C 0.78922 0.34387 0.09805 0.0
C1321 C 0.77915 0.38914 0.12594 0.0
C1322 C 0.82097 0.35162 0.09419 0.0
C1323 C 0.83429 0.33635 0.10612 0.0
C1324 C 0.81602 0.31271 0.12198 0.0
C1325 C 0.78354 0.30336 0.12485 0.0
C1326 C 0.77023 0.31905 0.11302 0.0
H1327 H 0.77843 0.40987 0.13341 0.0
H1328 H 0.75896 0.36676 0.13285 0.0
H1329 H 0.80176 0.39016 0.13112 0.0
H1330 H 0.83601 0.37074 0.08275 0.0
H1331 H 0.85932 0.34389 0.1035 0.0
H1332 H 0.51816 0.85918 0.27239 0.0
H1333 H 0.46808 0.83618 0.25156 0.0
H1334 H 0.43687 0.74443 0.28255 0.0
H1335 H 0.48763 0.76751 0.30354 0.0
H1336 H 0.4343 0.77752 0.22229 0.0
H1337 H 0.3711 0.77556 0.301 0.0
H1338 H 0.4141 0.79992 0.29895 0.0
H1339 H 0.3957 0.75715 0.30006 0.0
C1340 C 0.50094 0.83394 0.27447 0.0
C1341 C 0.50663 0.81515 0.28965 0.0
C1342 C 0.47239 0.8208 0.2625 0.0
C1343 C 0.44875 0.78871 0.26564 0.0
C1344 C 0.45488 0.76929 0.27995 0.0
H1345 H 0.28435 0.76666 0.1854 0.0
H1346 H 0.3122 0.74387 0.20651 0.0
C1347 C 0.48385 0.78242 0.29181 0.0
C1348 C 0.41695 0.7775 0.25543 0.0
H1349 H 0.34732 0.77681 0.26706 0.0
C1350 C 0.4146 0.77599 0.23203 0.0
C1351 C 0.39146 0.77569 0.26827 0.0
C1352 C 0.39293 0.77715 0.29349 0.0
C1353 C 0.38875 0.77578 0.22106 0.0
C1354 C 0.36484 0.77719 0.23391 0.0
C1355 C 0.36567 0.77559 0.25731 0.0
C1356 C 0.34399 0.78809 0.22371 0.0
C1357 C 0.3888 0.77736 0.19585 0.0
C1358 C 0.352 0.82004 0.227 0.0
C1359 C 0.33649 0.83302 0.21497 0.0
C1360 C 0.31235 0.8142 0.19959 0.0
C1361 C 0.30278 0.78158 0.1973 0.0
C1362 C 0.31872 0.76861 0.20922 0.0
H1363 H 0.40928 0.77622 0.18834 0.0
H1364 H 0.36622 0.75714 0.18922 0.0
H1365 H 0.38998 0.79996 0.19043 0.0
H1366 H 0.37147 0.83545 0.23808 0.0
H1367 H 0.34422 0.85817 0.21714 0.0
H1368 H 0.48977 0.34265 0.38489 0.0
H1369 H 0.53964 0.36983 0.40595 0.0
H1370 H 0.57316 0.3125 0.37294 0.0
H1371 H 0.52263 0.28476 0.35169 0.0
H1372 H 0.57469 0.34649 0.43421 0.0
H1373 H 0.63712 0.40961 0.35577 0.0
H1374 H 0.59402 0.38945 0.35777 0.0
H1375 H 0.61391 0.36648 0.35642 0.0
C1376 C 0.50745 0.33532 0.38243 0.0
C1377 C 0.50249 0.31179 0.36659 0.0
C1378 C 0.53589 0.35078 0.39453 0.0
C1379 C 0.56015 0.34335 0.39087 0.0
C1380 C 0.5547 0.31861 0.37593 0.0
H1381 H 0.72301 0.48704 0.47181 0.0
H1382 H 0.69578 0.43635 0.45066 0.0
C1383 C 0.52585 0.30271 0.36393 0.0
C1384 C 0.59186 0.36434 0.40113 0.0
H1385 H 0.6608 0.43417 0.3898 0.0
C1386 C 0.59421 0.36501 0.42454 0.0
C1387 C 0.61713 0.38848 0.38839 0.0
C1388 C 0.6157 0.38876 0.36318 0.0
C1389 C 0.61976 0.39084 0.43562 0.0
C1390 C 0.64341 0.41653 0.42289 0.0
C1391 C 0.64265 0.41433 0.39947 0.0
C1392 C 0.66386 0.44833 0.43322 0.0
C1393 C 0.61962 0.3921 0.46084 0.0
C1394 C 0.65558 0.47204 0.42981 0.0
C1395 C 0.67076 0.50057 0.44185 0.0
C1396 C 0.69482 0.50617 0.45738 0.0
C1397 C 0.70464 0.48333 0.45981 0.0
C1398 C 0.68904 0.45439 0.44787 0.0
H1399 H 0.59923 0.37028 0.46825 0.0
H1400 H 0.64227 0.3946 0.46744 0.0
H1401 H 0.61821 0.41334 0.46641 0.0
H1402 H 0.63618 0.4678 0.41861 0.0
H1403 H 0.66285 0.51783 0.43956 0.0
H1404 H 0.23758 0.52195 0.51557 0.0
H1405 H 0.2601 0.57215 0.53718 0.0
H1406 H 0.17172 0.53445 0.5742 0.0
H1407 H 0.14919 0.48497 0.55262 0.0
H1408 H 0.22951 0.61044 0.53637 0.0
H1409 H 0.24144 0.57773 0.62292 0.0
H1410 H 0.24132 0.55486 0.59887 0.0
H1411 H 0.2042 0.54873 0.61049 0.0
C1412 C 0.22343 0.52417 0.52879 0.0
C1413 C 0.19168 0.49972 0.53248 0.0
C1414 C 0.23624 0.5528 0.54104 0.0
C1415 C 0.21771 0.55683 0.55747 0.0
C1416 C 0.18666 0.53163 0.56192 0.0
H1417 H 0.14959 0.66697 0.60154 0.0
H1418 H 0.17234 0.64002 0.5802 0.0
C1419 C 0.17373 0.50345 0.54948 0.0
C1420 C 0.22821 0.58836 0.56799 0.0
H1421 H 0.2283 0.62026 0.61892 0.0
C1422 C 0.23042 0.61314 0.55442 0.0
C1423 C 0.22982 0.59209 0.59149 0.0
C1424 C 0.22941 0.56703 0.60678 0.0
C1425 C 0.23053 0.63988 0.56382 0.0
C1426 C 0.22821 0.64166 0.58729 0.0
C1427 C 0.22974 0.61873 0.60089 0.0
C1428 C 0.21773 0.6628 0.59767 0.0
C1429 C 0.23089 0.66492 0.54852 0.0
C1430 C 0.23587 0.6849 0.61445 0.0
C1431 C 0.22294 0.70071 0.62656 0.0
C1432 C 0.19144 0.69386 0.62239 0.0
C1433 C 0.17393 0.67268 0.60505 0.0
C1434 C 0.187 0.65743 0.59275 0.0
H1435 H 0.24343 0.66641 0.53258 0.0
H1436 H 0.20588 0.65828 0.54442 0.0
H1437 H 0.24272 0.68887 0.55661 0.0
H1438 H 0.25947 0.68902 0.61867 0.0
H1439 H 0.23674 0.71668 0.64005 0.0
H1440 H 0.66327 0.14714 0.71694 0.0
H1441 H 0.6363 0.17015 0.73793 0.0
H1442 H 0.69419 0.26092 0.70496 0.0
H1443 H 0.72172 0.23783 0.68378 0.0
H1444 H 0.6605 0.22908 0.76617 0.0
H1445 H 0.59692 0.22802 0.68794 0.0
H1446 H 0.61666 0.20469 0.68994 0.0
H1447 H 0.64002 0.24752 0.68841 0.0
C1448 C 0.67075 0.17219 0.71446 0.0
C1449 C 0.69439 0.19066 0.69866 0.0
C1450 C 0.65541 0.18534 0.72652 0.0
C1451 C 0.6631 0.21712 0.72287 0.0
C1452 C 0.68791 0.2363 0.70795 0.0
H1453 H 0.52028 0.23769 0.80383 0.0
H1454 H 0.57074 0.26083 0.78243 0.0
C1455 C 0.70367 0.22316 0.69598 0.0
C1456 C 0.64236 0.2281 0.73316 0.0
H1457 H 0.57253 0.22723 0.72208 0.0
C1458 C 0.64193 0.23005 0.75656 0.0
C1459 C 0.61816 0.22919 0.72049 0.0
C1460 C 0.61768 0.22725 0.69529 0.0
C1461 C 0.61625 0.22995 0.76773 0.0
C1462 C 0.59047 0.22779 0.75509 0.0
C1463 C 0.59244 0.229 0.73166 0.0
C1464 C 0.5588 0.21651 0.76557 0.0
C1465 C 0.61522 0.22882 0.79295 0.0
C1466 C 0.53523 0.18436 0.76258 0.0
C1467 C 0.50684 0.17118 0.77477 0.0
C1468 C 0.50127 0.18998 0.79003 0.0
C1469 C 0.52399 0.22275 0.79206 0.0
C1470 C 0.55278 0.23593 0.77997 0.0
H1471 H 0.6372 0.23057 0.80029 0.0
H1472 H 0.6125 0.24887 0.7995 0.0
H1473 H 0.59418 0.2061 0.79865 0.0
H1474 H 0.53946 0.16899 0.75157 0.0
H1475 H 0.48967 0.14592 0.77278 0.0
loop_
_geom_bond_atom_site_label_1
_geom_bond_atom_site_label_2
_geom_bond_distance
_geom_bond_site_symmetry_2
_ccdc_geom_bond_type
C0 C1 1.351 . S
C0 N3 1.368 . S
C0 H5 0.931 . S
C1 C0 1.351 . S
C1 N2 1.373 . S
C1 H29 0.930 . S
N2 C1 1.373 . S
N2 C4 1.340 . S
N3 C0 1.368 . S
N3 C4 1.321 . S
N3 Co6 2.137 1_554 S
C4 N2 1.340 . S
C4 N3 1.321 . S
C4 H28 0.930 . S
H5 C0 0.931 . S
Co6 N3 2.137 1_556 S
Co6 N9 2.119 . S
Co6 O14 2.051 . S
Co6 O17 2.038 . S
Co6 N20 2.144 1_556 S
C7 O8 1.227 . S
C7 O17 1.265 1_554 S
O8 C7 1.227 . S
N9 Co6 2.119 . S
N9 C11 1.375 . S
N9 C12 1.313 . S
C10 C11 1.338 . S
C10 N13 1.377 . S
C10 H30 0.930 . S
C11 N9 1.375 . S
C11 C10 1.338 . S
C11 H15 0.931 1_556 S
C12 N9 1.313 . S
C12 N13 1.344 . S
C12 H16 0.930 . S
N13 C10 1.377 . S
N13 C12 1.344 . S
O14 Co6 2.051 . S
O14 C18 1.253 . S
H15 C11 0.931 1_554 S
H16 C12 0.930 . S
O17 Co6 2.038 . S
O17 C7 1.265 1_556 S
C18 O14 1.253 . S
C18 O19 1.227 . S
O19 C18 1.227 . S
N20 Co6 2.144 1_554 S
N20 C23 1.346 . S
N20 C24 1.345 . S
C21 C22 1.387 . S
C21 C25 1.391 . S
C22 C21 1.387 . S
C22 C23 1.369 . S
C22 H31 0.929 . S
C23 N20 1.346 . S
C23 C22 1.369 . S
C23 H26 0.928 . S
C24 N20 1.345 . S
C24 C25 1.371 . S
C24 H27 0.931 . S
C25 C21 1.391 . S
C25 C24 1.371 . S
C25 H32 0.930 . S
H26 C23 0.928 . S
H27 C24 0.931 . S
H28 C4 0.930 . S
H29 C1 0.930 . S
H30 C10 0.930 . S
H31 C22 0.929 . S
H32 C25 0.930 . S
C33 C34 1.351 . S
C33 N36 1.368 . S
C33 H38 0.931 . S
C34 C33 1.351 . S
C34 N35 1.373 . S
C34 H62 0.930 . S
N35 C34 1.373 . S
N35 C37 1.340 . S
N36 C33 1.368 . S
N36 C37 1.321 . S
N36 Co39 2.135 . S
C37 N35 1.340 . S
C37 N36 1.321 . S
C37 H61 0.930 . S
H38 C33 0.931 . S
Co39 N36 2.135 . S
Co39 N42 2.121 . S
Co39 O47 2.055 . S
Co39 O50 2.039 . S
Co39 N53 2.140 . S
C40 O41 1.227 . S
C40 O50 1.265 . S
O41 C40 1.227 . S
N42 Co39 2.121 . S
N42 C44 1.375 . S
N42 C45 1.313 . S
C43 C44 1.338 . S
C43 N46 1.377 . S
C43 H63 0.930 . S
C44 N42 1.375 . S
C44 C43 1.338 . S
C44 H48 0.931 . S
C45 N42 1.313 . S
C45 N46 1.344 . S
C45 H49 0.930 . S
N46 C43 1.377 . S
N46 C45 1.344 . S
O47 Co39 2.055 . S
O47 C51 1.253 . S
H48 C44 0.931 . S
H49 C45 0.930 . S
O50 Co39 2.039 . S
O50 C40 1.265 . S
C51 O47 1.253 . S
C51 O52 1.227 . S
O52 C51 1.227 . S
N53 Co39 2.140 . S
N53 C56 1.346 . S
N53 C57 1.345 . S
C54 C55 1.387 . S
C54 C58 1.391 . S
C55 C54 1.387 . S
C55 C56 1.369 . S
C55 H64 0.929 . S
C56 N53 1.346 . S
C56 C55 1.369 . S
C56 H59 0.928 . S
C57 N53 1.345 . S
C57 C58 1.371 . S
C57 H60 0.931 . S
C58 C54 1.391 . S
C58 C57 1.371 . S
C58 H65 0.930 . S
H59 C56 0.928 . S
H60 C57 0.931 . S
H61 C37 0.930 . S
H62 C34 0.930 . S
H63 C43 0.930 . S
H64 C55 0.929 . S
H65 C58 0.930 . S
C66 C67 1.351 . S
C66 N69 1.368 . S
C66 H71 0.931 . S
C67 C66 1.351 . S
C67 N68 1.373 . S
C67 H95 0.930 . S
N68 C67 1.373 . S
N68 C70 1.340 . S
N69 C66 1.368 . S
N69 C70 1.321 . S
N69 Co72 2.135 . S
C70 N68 1.340 . S
C70 N69 1.321 . S
C70 H94 0.930 . S
H71 C66 0.931 . S
Co72 N69 2.135 . S
Co72 N75 2.121 . S
Co72 O80 2.055 . S
Co72 O83 2.039 . S
Co72 N86 2.140 . S
C73 O74 1.227 . S
C73 O83 1.265 . S
O74 C73 1.227 . S
N75 Co72 2.121 . S
N75 C77 1.375 . S
N75 C78 1.313 . S
C76 C77 1.338 . S
C76 N79 1.377 . S
C76 H96 0.930 . S
C77 N75 1.375 . S
C77 C76 1.338 . S
C77 H81 0.931 . S
C78 N75 1.313 . S
C78 N79 1.344 . S
C78 H82 0.930 . S
N79 C76 1.377 . S
N79 C78 1.344 . S
O80 Co72 2.055 . S
O80 C84 1.253 . S
H81 C77 0.931 . S
H82 C78 0.930 . S
O83 Co72 2.039 . S
O83 C73 1.265 . S
C84 O80 1.253 . S
C84 O85 1.227 . S
O85 C84 1.227 . S
N86 Co72 2.140 . S
N86 C89 1.346 . S
N86 C90 1.345 . S
C87 C88 1.387 . S
C87 C91 1.391 . S
C88 C87 1.387 . S
C88 C89 1.369 . S
C88 H97 0.929 . S
C89 N86 1.346 . S
C89 C88 1.369 . S
C89 H92 0.928 . S
C90 N86 1.345 . S
C90 C91 1.371 . S
C90 H93 0.931 . S
C91 C87 1.391 . S
C91 C90 1.371 . S
C91 H98 0.930 . S
H92 C89 0.928 . S
H93 C90 0.931 . S
H94 C70 0.930 . S
H95 C67 0.930 . S
H96 C76 0.930 . S
H97 C88 0.929 . S
H98 C91 0.930 . S
C99 C100 1.351 . S
C99 N102 1.368 . S
C99 H104 0.931 . S
C100 C99 1.351 . S
C100 N101 1.373 . S
C100 H128 0.930 . S
N101 C100 1.373 . S
N101 C103 1.340 . S
N102 C99 1.368 . S
N102 C103 1.321 . S
N102 Co105 2.135 . S
C103 N101 1.340 . S
C103 N102 1.321 . S
C103 H127 0.930 . S
H104 C99 0.931 . S
Co105 N102 2.135 . S
Co105 N108 2.121 . S
Co105 O113 2.055 . S
Co105 O116 2.039 . S
Co105 N119 2.140 . S
C106 O107 1.227 . S
C106 O116 1.265 . S
O107 C106 1.227 . S
N108 Co105 2.121 . S
N108 C110 1.375 . S
N108 C111 1.313 . S
C109 C110 1.338 . S
C109 N112 1.377 . S
C109 H129 0.930 . S
C110 N108 1.375 . S
C110 C109 1.338 . S
C110 H114 0.931 . S
C111 N108 1.313 . S
C111 N112 1.344 . S
C111 H115 0.930 . S
N112 C109 1.377 . S
N112 C111 1.344 . S
O113 Co105 2.055 . S
O113 C117 1.253 . S
H114 C110 0.931 . S
H115 C111 0.930 . S
O116 Co105 2.039 . S
O116 C106 1.265 . S
C117 O113 1.253 . S
C117 O118 1.227 . S
O118 C117 1.227 . S
N119 Co105 2.140 . S
N119 C122 1.346 . S
N119 C123 1.345 . S
C120 C121 1.387 . S
C120 C124 1.391 . S
C121 C120 1.387 . S
C121 C122 1.369 . S
C121 H130 0.929 . S
C122 N119 1.346 . S
C122 C121 1.369 . S
C122 H125 0.928 . S
C123 N119 1.345 . S
C123 C124 1.371 . S
C123 H126 0.931 . S
C124 C120 1.391 . S
C124 C123 1.371 . S
C124 H131 0.930 . S
H125 C122 0.928 . S
H126 C123 0.931 . S
H127 C103 0.930 . S
H128 C100 0.930 . S
H129 C109 0.930 . S
H130 C121 0.929 . S
H131 C124 0.930 . S
C132 C133 1.351 . S
C132 N135 1.368 . S
C132 H137 0.931 . S
C133 C132 1.351 . S
C133 N134 1.373 . S
C133 H161 0.930 . S
N134 C133 1.373 . S
N134 C136 1.340 . S
N135 C132 1.368 . S
N135 C136 1.321 . S
N135 Co138 2.135 . S
C136 N134 1.340 . S
C136 N135 1.321 . S
C136 H160 0.930 . S
H137 C132 0.931 . S
Co138 N135 2.135 . S
Co138 N141 2.121 . S
Co138 O146 2.055 . S
Co138 O149 2.039 . S
Co138 N152 2.140 . S
C139 O140 1.227 . S
C139 O149 1.265 . S
O140 C139 1.227 . S
N141 Co138 2.121 . S
N141 C143 1.375 . S
N141 C144 1.313 . S
C142 C143 1.338 . S
C142 N145 1.377 . S
C142 H162 0.930 . S
C143 N141 1.375 . S
C143 C142 1.338 . S
C143 H147 0.931 . S
C144 N141 1.313 . S
C144 N145 1.344 . S
C144 H148 0.930 . S
N145 C142 1.377 . S
N145 C144 1.344 . S
O146 Co138 2.055 . S
O146 C150 1.253 . S
H147 C143 0.931 . S
H148 C144 0.930 . S
O149 Co138 2.039 . S
O149 C139 1.265 . S
C150 O146 1.253 . S
C150 O151 1.227 . S
O151 C150 1.227 . S
N152 Co138 2.140 . S
N152 C155 1.346 . S
N152 C156 1.345 . S
C153 C154 1.387 . S
C153 C157 1.391 . S
C154 C153 1.387 . S
C154 C155 1.369 . S
C154 H163 0.929 . S
C155 N152 1.346 . S
C155 C154 1.369 . S
C155 H158 0.928 . S
C156 N152 1.345 . S
C156 C157 1.371 . S
C156 H159 0.931 . S
C157 C153 1.391 . S
C157 C156 1.371 . S
C157 H164 0.930 . S
H158 C155 0.928 . S
H159 C156 0.931 . S
H160 C136 0.930 . S
H161 C133 0.930 . S
H162 C142 0.930 . S
H163 C154 0.929 . S
H164 C157 0.930 . S
C165 C166 1.351 . S
C165 N168 1.368 . S
C165 H170 0.931 . S
C166 C165 1.351 . S
C166 N167 1.373 . S
C166 H194 0.930 . S
N167 C166 1.373 . S
N167 C169 1.340 . S
N168 C165 1.368 . S
N168 C169 1.321 . S
N168 Co171 2.135 . S
C169 N167 1.340 . S
C169 N168 1.321 . S
C169 H193 0.930 . S
H170 C165 0.931 . S
Co171 N168 2.135 . S
Co171 N174 2.121 . S
Co171 O179 2.055 . S
Co171 O182 2.039 . S
Co171 N185 2.140 . S
C172 O173 1.227 . S
C172 O182 1.265 . S
O173 C172 1.227 . S
N174 Co171 2.121 . S
N174 C176 1.375 . S
N174 C177 1.313 . S
C175 C176 1.338 . S
C175 N178 1.377 . S
C175 H195 0.930 . S
C176 N174 1.375 . S
C176 C175 1.338 . S
C176 H180 0.931 . S
C177 N174 1.313 . S
C177 N178 1.344 . S
C177 H181 0.930 . S
N178 C175 1.377 . S
N178 C177 1.344 . S
O179 Co171 2.055 . S
O179 C183 1.253 . S
H180 C176 0.931 . S
H181 C177 0.930 . S
O182 Co171 2.039 . S
O182 C172 1.265 . S
C183 O179 1.253 . S
C183 O184 1.227 . S
O184 C183 1.227 . S
N185 Co171 2.140 . S
N185 C188 1.346 . S
N185 C189 1.345 . S
C186 C187 1.387 . S
C186 C190 1.391 . S
C187 C186 1.387 . S
C187 C188 1.369 . S
C187 H196 0.929 . S
C188 N185 1.346 . S
C188 C187 1.369 . S
C188 H191 0.928 . S
C189 N185 1.345 . S
C189 C190 1.371 . S
C189 H192 0.931 . S
C190 C186 1.391 . S
C190 C189 1.371 . S
C190 H197 0.930 . S
H191 C188 0.928 . S
H192 C189 0.931 . S
H193 C169 0.930 . S
H194 C166 0.930 . S
H195 C175 0.930 . S
H196 C187 0.929 . S
H197 C190 0.930 . S
C198 C199 1.351 . S
C198 N201 1.368 . S
C198 H203 0.931 . S
C199 C198 1.351 . S
C199 N200 1.373 . S
C199 H227 0.930 . S
N200 C199 1.373 . S
N200 C202 1.340 . S
N201 C198 1.368 . S
N201 C202 1.321 . S
N201 Co204 2.135 . S
C202 N200 1.340 . S
C202 N201 1.321 . S
C202 H226 0.930 . S
H203 C198 0.931 . S
Co204 N201 2.135 . S
Co204 N207 2.121 . S
Co204 O212 2.055 . S
Co204 O215 2.039 . S
Co204 N218 2.140 . S
C205 O206 1.227 . S
C205 O215 1.265 . S
O206 C205 1.227 . S
N207 Co204 2.121 . S
N207 C209 1.375 . S
N207 C210 1.313 . S
C208 C209 1.338 . S
C208 N211 1.377 . S
C208 H228 0.930 . S
C209 N207 1.375 . S
C209 C208 1.338 . S
C209 H213 0.931 . S
C210 N207 1.313 . S
C210 N211 1.344 . S
C210 H214 0.930 . S
N211 C208 1.377 . S
N211 C210 1.344 . S
O212 Co204 2.055 . S
O212 C216 1.253 . S
H213 C209 0.931 . S
H214 C210 0.930 . S
O215 Co204 2.039 . S
O215 C205 1.265 . S
C216 O212 1.253 . S
C216 O217 1.227 . S
O217 C216 1.227 . S
N218 Co204 2.140 . S
N218 C221 1.346 . S
N218 C222 1.345 . S
C219 C220 1.387 . S
C219 C223 1.391 . S
C220 C219 1.387 . S
C220 C221 1.369 . S
C220 H229 0.929 . S
C221 N218 1.346 . S
C221 C220 1.369 . S
C221 H224 0.928 . S
C222 N218 1.345 . S
C222 C223 1.371 . S
C222 H225 0.931 . S
C223 C219 1.391 . S
C223 C222 1.371 . S
C223 H230 0.930 . S
H224 C221 0.928 . S
H225 C222 0.931 . S
H226 C202 0.930 . S
H227 C199 0.930 . S
H228 C208 0.930 . S
H229 C220 0.929 . S
H230 C223 0.930 . S
C231 C232 1.351 . S
C231 N234 1.368 . S
C231 H236 0.931 . S
C232 C231 1.351 . S
C232 N233 1.373 . S
C232 H260 0.930 . S
N233 C232 1.373 . S
N233 C235 1.340 . S
N234 C231 1.368 . S
N234 C235 1.321 . S
N234 Co237 2.135 . S
C235 N233 1.340 . S
C235 N234 1.321 . S
C235 H259 0.930 . S
H236 C231 0.931 . S
Co237 N234 2.135 . S
Co237 N240 2.121 1_556 S
Co237 O245 2.055 1_556 S
Co237 O248 2.039 . S
Co237 N251 2.140 . S
C238 O239 1.227 . S
C238 O248 1.265 . S
O239 C238 1.227 . S
N240 Co237 2.121 1_554 S
N240 C242 1.375 1_554 S
N240 C243 1.313 . S
C241 C242 1.338 1_554 S
C241 N244 1.377 . S
C241 H261 0.930 . S
C242 N240 1.375 1_556 S
C242 C241 1.338 1_556 S
C242 H246 0.931 . S
C243 N240 1.313 . S
C243 N244 1.344 . S
C243 H247 0.930 . S
N244 C241 1.377 . S
N244 C243 1.344 . S
O245 Co237 2.055 1_554 S
O245 C249 1.253 . S
H246 C242 0.931 . S
H247 C243 0.930 . S
O248 Co237 2.039 . S
O248 C238 1.265 . S
C249 O245 1.253 . S
C249 O250 1.227 . S
O250 C249 1.227 . S
N251 Co237 2.140 . S
N251 C254 1.346 . S
N251 C255 1.345 . S
C252 C253 1.387 . S
C252 C256 1.391 . S
C253 C252 1.387 . S
C253 C254 1.369 . S
C253 H262 0.929 . S
C254 N251 1.346 . S
C254 C253 1.369 . S
C254 H257 0.928 . S
C255 N251 1.345 . S
C255 C256 1.371 . S
C255 H258 0.931 . S
C256 C252 1.391 . S
C256 C255 1.371 . S
C256 H263 0.930 . S
H257 C254 0.928 . S
H258 C255 0.931 . S
H259 C235 0.930 . S
H260 C232 0.930 . S
H261 C241 0.930 . S
H262 C253 0.929 . S
H263 C256 0.930 . S
C264 C265 1.351 . S
C264 N267 1.368 . S
C264 H269 0.931 . S
C265 C264 1.351 . S
C265 N266 1.373 . S
C265 H293 0.930 . S
N266 C265 1.373 . S
N266 C268 1.340 . S
N267 C264 1.368 . S
N267 C268 1.321 . S
N267 Co270 2.135 . S
C268 N266 1.340 . S
C268 N267 1.321 . S
C268 H292 0.930 . S
H269 C264 0.931 . S
Co270 N267 2.135 . S
Co270 N273 2.121 . S
Co270 O278 2.055 . S
Co270 O281 2.039 . S
Co270 N284 2.140 . S
C271 O272 1.227 . S
C271 O281 1.265 . S
O272 C271 1.227 . S
N273 Co270 2.121 . S
N273 C275 1.375 . S
N273 C276 1.313 . S
C274 C275 1.338 . S
C274 N277 1.377 . S
C274 H294 0.930 . S
C275 N273 1.375 . S
C275 C274 1.338 . S
C275 H279 0.931 . S
C276 N273 1.313 . S
C276 N277 1.344 . S
C276 H280 0.930 . S
N277 C274 1.377 . S
N277 C276 1.344 . S
O278 Co270 2.055 . S
O278 C282 1.253 . S
H279 C275 0.931 . S
H280 C276 0.930 . S
O281 Co270 2.039 . S
O281 C271 1.265 . S
C282 O278 1.253 . S
C282 O283 1.227 . S
O283 C282 1.227 . S
N284 Co270 2.140 . S
N284 C287 1.346 . S
N284 C288 1.345 . S
C285 C286 1.387 . S
C285 C289 1.391 . S
C286 C285 1.387 . S
C286 C287 1.369 . S
C286 H295 0.929 . S
C287 N284 1.346 . S
C287 C286 1.369 . S
C287 H290 0.928 . S
C288 N284 1.345 . S
C288 C289 1.371 . S
C288 H291 0.931 . S
C289 C285 1.391 . S
C289 C288 1.371 . S
C289 H296 0.930 . S
H290 C287 0.928 . S
H291 C288 0.931 . S
H292 C268 0.930 . S
H293 C265 0.930 . S
H294 C274 0.930 . S
H295 C286 0.929 . S
H296 C289 0.930 . S
C297 C298 1.351 . S
C297 N300 1.368 . S
C297 H302 0.931 . S
C298 C297 1.351 . S
C298 N299 1.373 . S
C298 H326 0.930 . S
N299 C298 1.373 . S
N299 C301 1.340 . S
N300 C297 1.368 . S
N300 C301 1.321 . S
N300 Co303 2.135 . S
C301 N299 1.340 . S
C301 N300 1.321 . S
C301 H325 0.930 . S
H302 C297 0.931 . S
Co303 N300 2.135 . S
Co303 N306 2.121 . S
Co303 O311 2.055 . S
Co303 O314 2.039 . S
Co303 N317 2.140 . S
C304 O305 1.227 . S
C304 O314 1.265 . S
O305 C304 1.227 . S
N306 Co303 2.121 . S
N306 C308 1.375 . S
N306 C309 1.313 . S
C307 C308 1.338 . S
C307 N310 1.377 . S
C307 H327 0.930 . S
C308 N306 1.375 . S
C308 C307 1.338 . S
C308 H312 0.931 . S
C309 N306 1.313 . S
C309 N310 1.344 . S
C309 H313 0.930 . S
N310 C307 1.377 . S
N310 C309 1.344 . S
O311 Co303 2.055 . S
O311 C315 1.253 . S
H312 C308 0.931 . S
H313 C309 0.930 . S
O314 Co303 2.039 . S
O314 C304 1.265 . S
C315 O311 1.253 . S
C315 O316 1.227 . S
O316 C315 1.227 . S
N317 Co303 2.140 . S
N317 C320 1.346 . S
N317 C321 1.345 . S
C318 C319 1.387 . S
C318 C322 1.391 . S
C319 C318 1.387 . S
C319 C320 1.369 . S
C319 H328 0.929 . S
C320 N317 1.346 . S
C320 C319 1.369 . S
C320 H323 0.928 . S
C321 N317 1.345 . S
C321 C322 1.371 . S
C321 H324 0.931 . S
C322 C318 1.391 . S
C322 C321 1.371 . S
C322 H329 0.930 . S
H323 C320 0.928 . S
H324 C321 0.931 . S
H325 C301 0.930 . S
H326 C298 0.930 . S
H327 C307 0.930 . S
H328 C319 0.929 . S
H329 C322 0.930 . S
C330 C331 1.351 . S
C330 N333 1.368 . S
C330 H335 0.931 . S
C331 C330 1.351 . S
C331 N332 1.373 . S
C331 H359 0.930 . S
N332 C331 1.373 . S
N332 C334 1.340 . S
N333 C330 1.368 . S
N333 C334 1.321 . S
N333 Co336 2.135 . S
C334 N332 1.340 . S
C334 N333 1.321 . S
C334 H358 0.930 . S
H335 C330 0.931 . S
Co336 N333 2.135 . S
Co336 N339 2.121 . S
Co336 O344 2.055 . S
Co336 O347 2.039 . S
Co336 N350 2.140 . S
C337 O338 1.227 . S
C337 O347 1.265 . S
O338 C337 1.227 . S
N339 Co336 2.121 . S
N339 C341 1.375 . S
N339 C342 1.313 . S
C340 C341 1.338 . S
C340 N343 1.377 . S
C340 H360 0.930 . S
C341 N339 1.375 . S
C341 C340 1.338 . S
C341 H345 0.931 . S
C342 N339 1.313 . S
C342 N343 1.344 . S
C342 H346 0.930 . S
N343 C340 1.377 . S
N343 C342 1.344 . S
O344 Co336 2.055 . S
O344 C348 1.253 . S
H345 C341 0.931 . S
H346 C342 0.930 . S
O347 Co336 2.039 . S
O347 C337 1.265 . S
C348 O344 1.253 . S
C348 O349 1.227 . S
O349 C348 1.227 . S
N350 Co336 2.140 . S
N350 C353 1.346 . S
N350 C354 1.345 . S
C351 C352 1.387 . S
C351 C355 1.391 . S
C352 C351 1.387 . S
C352 C353 1.369 . S
C352 H361 0.929 . S
C353 N350 1.346 . S
C353 C352 1.369 . S
C353 H356 0.928 . S
C354 N350 1.345 . S
C354 C355 1.371 . S
C354 H357 0.931 . S
C355 C351 1.391 . S
C355 C354 1.371 . S
C355 H362 0.930 . S
H356 C353 0.928 . S
H357 C354 0.931 . S
H358 C334 0.930 . S
H359 C331 0.930 . S
H360 C340 0.930 . S
H361 C352 0.929 . S
H362 C355 0.930 . S
C363 C364 1.351 . S
C363 N366 1.368 . S
C363 H368 0.931 . S
C364 C363 1.351 . S
C364 N365 1.373 . S
C364 H392 0.930 . S
N365 C364 1.373 . S
N365 C367 1.340 . S
N366 C363 1.368 . S
N366 C367 1.321 . S
N366 Co369 2.135 . S
C367 N365 1.340 . S
C367 N366 1.321 . S
C367 H391 0.930 . S
H368 C363 0.931 . S
Co369 N366 2.135 . S
Co369 N372 2.121 . S
Co369 O377 2.055 . S
Co369 O380 2.039 . S
Co369 N383 2.140 . S
C370 O371 1.227 . S
C370 O380 1.265 . S
O371 C370 1.227 . S
N372 Co369 2.121 . S
N372 C374 1.375 . S
N372 C375 1.313 . S
C373 C374 1.338 . S
C373 N376 1.377 . S
C373 H393 0.930 . S
C374 N372 1.375 . S
C374 C373 1.338 . S
C374 H378 0.931 . S
C375 N372 1.313 . S
C375 N376 1.344 . S
C375 H379 0.930 . S
N376 C373 1.377 . S
N376 C375 1.344 . S
O377 Co369 2.055 . S
O377 C381 1.253 . S
H378 C374 0.931 . S
H379 C375 0.930 . S
O380 Co369 2.039 . S
O380 C370 1.265 . S
C381 O377 1.253 . S
C381 O382 1.227 . S
O382 C381 1.227 . S
N383 Co369 2.140 . S
N383 C386 1.346 . S
N383 C387 1.345 . S
C384 C385 1.387 . S
C384 C388 1.391 . S
C385 C384 1.387 . S
C385 C386 1.369 . S
C385 H394 0.929 . S
C386 N383 1.346 . S
C386 C385 1.369 . S
C386 H389 0.928 . S
C387 N383 1.345 . S
C387 C388 1.371 . S
C387 H390 0.931 . S
C388 C384 1.391 . S
C388 C387 1.371 . S
C388 H395 0.930 . S
H389 C386 0.928 . S
H390 C387 0.931 . S
H391 C367 0.930 . S
H392 C364 0.930 . S
H393 C373 0.930 . S
H394 C385 0.929 . S
H395 C388 0.930 . S
H396 C404 0.929 . S
H397 C406 0.930 . S
H398 C408 0.930 . S
H399 C411 0.929 . S
H400 C414 0.930 . S
H401 C416 0.960 . S
H402 C416 0.960 . S
H403 C416 0.960 . S
C404 H396 0.929 . S
C404 C405 1.377 . S
C404 C406 1.384 . S
C405 C404 1.377 . S
C405 C411 1.390 . S
C406 H397 0.930 . S
C406 C404 1.384 . S
C406 C407 1.372 . S
C407 C406 1.372 . S
C407 C408 1.400 . S
C407 C412 1.490 . S
C408 H398 0.930 . S
C408 C407 1.400 . S
C408 C411 1.386 . S
H409 C425 0.930 . S
H410 C426 0.931 . S
C411 H399 0.929 . S
C411 C405 1.390 . S
C411 C408 1.386 . S
C412 C407 1.490 . S
C412 C414 1.395 . S
C412 C415 1.403 . S
H413 C419 0.930 . S
C414 H400 0.930 . S
C414 C412 1.395 . S
C414 C417 1.403 . S
C415 C412 1.403 . S
C415 C416 1.524 . S
C415 C419 1.400 . S
C416 H401 0.960 . S
C416 H402 0.960 . S
C416 H403 0.960 . S
C416 C415 1.524 . S
C417 C414 1.403 . S
C417 C418 1.392 . S
C417 C421 1.495 . S
C418 C417 1.392 . S
C418 C419 1.385 . S
C418 C420 1.478 . S
C419 H413 0.930 . S
C419 C415 1.400 . S
C419 C418 1.385 . S
C420 C418 1.478 . S
C420 C422 1.381 . S
C420 C426 1.383 . S
C421 C417 1.495 . S
C421 H427 0.959 . S
C421 H428 0.961 . S
C421 H429 0.960 . S
C422 C420 1.381 . S
C422 C423 1.394 . S
C422 H430 0.930 . S
C423 C422 1.394 . S
C423 C424 1.383 . S
C423 H431 0.929 . S
C424 C423 1.383 . S
C424 C425 1.377 . S
C425 H409 0.930 . S
C425 C424 1.377 . S
C425 C426 1.379 . S
C426 H410 0.931 . S
C426 C420 1.383 . S
C426 C425 1.379 . S
H427 C421 0.959 . S
H428 C421 0.961 . S
H429 C421 0.960 . S
H430 C422 0.930 . S
H431 C423 0.929 . S
H432 C440 0.929 . S
H433 C442 0.930 . S
H434 C444 0.930 . S
H435 C447 0.929 . S
H436 C450 0.930 . S
H437 C452 0.960 . S
H438 C452 0.960 . S
H439 C452 0.960 . S
C440 H432 0.929 . S
C440 C441 1.377 . S
C440 C442 1.384 . S
C441 C440 1.377 . S
C441 C447 1.390 . S
C442 H433 0.930 . S
C442 C440 1.384 . S
C442 C443 1.372 . S
C443 C442 1.372 . S
C443 C444 1.400 . S
C443 C448 1.490 . S
C444 H434 0.930 . S
C444 C443 1.400 . S
C444 C447 1.386 . S
H445 C461 0.930 . S
H446 C462 0.925 1_455 S
C447 H435 0.929 . S
C447 C441 1.390 . S
C447 C444 1.386 . S
C448 C443 1.490 . S
C448 C450 1.395 . S
C448 C451 1.403 . S
H449 C455 0.930 . S
C450 H436 0.930 . S
C450 C448 1.395 . S
C450 C453 1.403 . S
C451 C448 1.403 . S
C451 C452 1.524 . S
C451 C455 1.400 . S
C452 H437 0.960 . S
C452 H438 0.960 . S
C452 H439 0.960 . S
C452 C451 1.524 . S
C453 C450 1.403 . S
C453 C454 1.392 . S
C453 C457 1.495 . S
C454 C453 1.392 . S
C454 C455 1.385 . S
C454 C456 1.478 . S
C455 H449 0.930 . S
C455 C451 1.400 . S
C455 C454 1.385 . S
C456 C454 1.478 . S
C456 C458 1.381 1_455 S
C456 C462 1.359 1_455 S
C457 C453 1.495 . S
C457 H463 0.959 . S
C457 H464 0.961 . S
C457 H465 0.960 . S
C458 C456 1.381 1_655 S
C458 C459 1.394 . S
C458 H466 0.930 . S
C459 C458 1.394 . S
C459 C460 1.383 . S
C459 H467 0.929 . S
C460 C459 1.383 . S
C460 C461 1.377 . S
C461 H445 0.930 . S
C461 C460 1.377 . S
C461 C462 1.411 . S
C462 H446 0.925 1_655 S
C462 C456 1.359 1_655 S
C462 C461 1.411 . S
H463 C457 0.959 . S
H464 C457 0.961 . S
H465 C457 0.960 . S
H466 C458 0.930 . S
H467 C459 0.929 . S
H468 C476 0.929 . S
H469 C478 0.930 . S
H470 C480 0.930 . S
H471 C483 0.929 . S
H472 C486 0.930 . S
H473 C488 0.960 . S
H474 C488 0.960 . S
H475 C488 0.960 . S
C476 H468 0.929 . S
C476 C477 1.377 . S
C476 C478 1.384 . S
C477 C476 1.377 . S
C477 C483 1.390 . S
C478 H469 0.930 . S
C478 C476 1.384 . S
C478 C479 1.372 . S
C479 C478 1.372 . S
C479 C480 1.400 . S
C479 C484 1.490 . S
C480 H470 0.930 . S
C480 C479 1.400 . S
C480 C483 1.386 . S
H481 C497 0.930 . S
H482 C498 0.931 . S
C483 H471 0.929 . S
C483 C477 1.390 . S
C483 C480 1.386 . S
C484 C479 1.490 . S
C484 C486 1.395 . S
C484 C487 1.403 . S
H485 C491 0.930 . S
C486 H472 0.930 . S
C486 C484 1.395 . S
C486 C489 1.403 . S
C487 C484 1.403 . S
C487 C488 1.524 . S
C487 C491 1.400 . S
C488 H473 0.960 . S
C488 H474 0.960 . S
C488 H475 0.960 . S
C488 C487 1.524 . S
C489 C486 1.403 . S
C489 C490 1.392 . S
C489 C493 1.495 . S
C490 C489 1.392 . S
C490 C491 1.385 . S
C490 C492 1.478 . S
C491 H485 0.930 . S
C491 C487 1.400 . S
C491 C490 1.385 . S
C492 C490 1.478 . S
C492 C494 1.381 1_545 S
C492 C498 1.383 1_545 S
C493 C489 1.495 . S
C493 H499 0.959 . S
C493 H500 0.939 1_545 S
C493 H501 0.960 . S
C494 C492 1.381 1_565 S
C494 C495 1.394 . S
C494 H502 0.930 1_565 S
C495 C494 1.394 . S
C495 C496 1.383 . S
C495 H503 0.929 . S
C496 C495 1.383 . S
C496 C497 1.377 . S
C497 H481 0.930 . S
C497 C496 1.377 . S
C497 C498 1.379 . S
C498 H482 0.931 . S
C498 C492 1.383 1_565 S
C498 C497 1.379 . S
H499 C493 0.959 . S
H500 C493 0.939 1_565 S
H501 C493 0.960 . S
H502 C494 0.930 1_545 S
H503 C495 0.929 . S
H504 C512 0.929 . S
H505 C514 0.930 . S
H506 C516 0.930 . S
H507 C519 0.929 . S
H508 C522 0.930 . S
H509 C524 0.960 . S
H510 C524 0.960 . S
H511 C524 0.960 . S
C512 H504 0.929 . S
C512 C513 1.377 . S
C512 C514 1.384 . S
C513 C512 1.377 . S
C513 C519 1.390 . S
C514 H505 0.930 . S
C514 C512 1.384 . S
C514 C515 1.372 . S
C515 C514 1.372 . S
C515 C516 1.400 . S
C515 C520 1.490 . S
C516 H506 0.930 . S
C516 C515 1.400 . S
C516 C519 1.386 . S
H517 C533 0.930 . S
H518 C534 0.931 . S
C519 H507 0.929 . S
C519 C513 1.390 . S
C519 C516 1.386 . S
C520 C515 1.490 . S
C520 C522 1.395 . S
C520 C523 1.403 . S
H521 C527 0.930 . S
C522 H508 0.930 . S
C522 C520 1.395 . S
C522 C525 1.403 . S
C523 C520 1.403 . S
C523 C524 1.524 . S
C523 C527 1.400 . S
C524 H509 0.960 . S
C524 H510 0.960 . S
C524 H511 0.960 . S
C524 C523 1.524 . S
C525 C522 1.403 . S
C525 C526 1.392 . S
C525 C529 1.495 . S
C526 C525 1.392 . S
C526 C527 1.385 . S
C526 C528 1.478 . S
C527 H521 0.930 . S
C527 C523 1.400 . S
C527 C526 1.385 . S
C528 C526 1.478 . S
C528 C530 1.381 . S
C528 C534 1.383 . S
C529 C525 1.495 . S
C529 H535 0.959 . S
C529 H536 0.961 . S
C529 H537 0.960 . S
C530 C528 1.381 . S
C530 C531 1.394 . S
C530 H538 0.930 . S
C531 C530 1.394 . S
C531 C532 1.383 . S
C531 H539 0.929 . S
C532 C531 1.383 . S
C532 C533 1.377 . S
C533 H517 0.930 . S
C533 C532 1.377 . S
C533 C534 1.379 . S
C534 H518 0.931 . S
C534 C528 1.383 . S
C534 C533 1.379 . S
H535 C529 0.959 . S
H536 C529 0.961 . S
H537 C529 0.960 . S
H538 C530 0.930 . S
H539 C531 0.929 . S
H540 C548 0.929 . S
H541 C550 0.930 . S
H542 C552 0.930 . S
H543 C555 0.929 . S
H544 C558 0.930 . S
H545 C560 0.960 . S
H546 C560 0.960 . S
H547 C560 0.960 . S
C548 H540 0.929 . S
C548 C549 1.377 . S
C548 C550 1.384 . S
C549 C548 1.377 . S
C549 C555 1.390 . S
C550 H541 0.930 . S
C550 C548 1.384 . S
C550 C551 1.372 1_455 S
C551 C550 1.372 1_655 S
C551 C552 1.400 . S
C551 C556 1.490 . S
C552 H542 0.930 . S
C552 C551 1.400 . S
C552 C555 1.386 1_655 S
H553 C569 0.930 . S
H554 C570 0.931 . S
C555 H543 0.929 . S
C555 C549 1.390 . S
C555 C552 1.386 1_455 S
C556 C551 1.490 . S
C556 C558 1.395 . S
C556 C559 1.403 . S
H557 C563 0.930 . S
C558 H544 0.930 . S
C558 C556 1.395 . S
C558 C561 1.403 . S
C559 C556 1.403 . S
C559 C560 1.524 . S
C559 C563 1.400 . S
C560 H545 0.960 . S
C560 H546 0.960 . S
C560 H547 0.960 . S
C560 C559 1.524 . S
C561 C558 1.403 . S
C561 C562 1.392 . S
C561 C565 1.495 . S
C562 C561 1.392 . S
C562 C563 1.385 . S
C562 C564 1.478 . S
C563 H557 0.930 . S
C563 C559 1.400 . S
C563 C562 1.385 . S
C564 C562 1.478 . S
C564 C566 1.381 . S
C564 C570 1.383 . S
C565 C561 1.495 . S
C565 H571 0.959 . S
C565 H572 0.961 . S
C565 H573 0.960 . S
C566 C564 1.381 . S
C566 C567 1.394 . S
C566 H574 0.930 . S
C567 C566 1.394 . S
C567 C568 1.383 . S
C567 H575 0.929 . S
C568 C567 1.383 . S
C568 C569 1.377 . S
C569 H553 0.930 . S
C569 C568 1.377 . S
C569 C570 1.379 . S
C570 H554 0.931 . S
C570 C564 1.383 . S
C570 C569 1.379 . S
H571 C565 0.959 . S
H572 C565 0.961 . S
H573 C565 0.960 . S
H574 C566 0.930 . S
H575 C567 0.929 . S
H576 C584 0.929 . S
H577 C586 0.930 . S
H578 C588 0.930 . S
H579 C591 0.929 . S
H580 C594 0.930 . S
H581 C596 0.960 . S
H582 C596 0.960 . S
H583 C596 0.960 . S
C584 H576 0.929 . S
C584 C585 1.377 . S
C584 C586 1.384 . S
C585 C584 1.377 . S
C585 C591 1.390 . S
C586 H577 0.930 . S
C586 C584 1.384 . S
C586 C587 1.372 . S
C587 C586 1.372 . S
C587 C588 1.400 . S
C587 C592 1.490 . S
C588 H578 0.930 . S
C588 C587 1.400 . S
C588 C591 1.386 . S
H589 C605 0.930 . S
H590 C606 0.931 1_565 S
C591 H579 0.929 . S
C591 C585 1.390 . S
C591 C588 1.386 . S
C592 C587 1.490 . S
C592 C594 1.395 . S
C592 C595 1.403 . S
H593 C599 0.930 . S
C594 H580 0.930 . S
C594 C592 1.395 . S
C594 C597 1.403 . S
C595 C592 1.403 . S
C595 C596 1.524 . S
C595 C599 1.400 . S
C596 H581 0.960 . S
C596 H582 0.960 . S
C596 H583 0.960 . S
C596 C595 1.524 . S
C597 C594 1.403 . S
C597 C598 1.392 . S
C597 C601 1.495 . S
C598 C597 1.392 . S
C598 C599 1.385 . S
C598 C600 1.498 . S
C599 H593 0.930 . S
C599 C595 1.400 . S
C599 C598 1.385 . S
C600 C598 1.498 . S
C600 C602 1.378 1_565 S
C600 C606 1.367 1_565 S
C601 C597 1.495 . S
C601 H607 0.959 . S
C601 H608 0.961 1_565 S
C601 H609 0.960 1_565 S
C602 C600 1.378 1_545 S
C602 C603 1.394 . S
C602 H610 0.930 . S
C603 C602 1.394 . S
C603 C604 1.383 . S
C603 H611 0.929 . S
C604 C603 1.383 . S
C604 C605 1.377 . S
C605 H589 0.930 . S
C605 C604 1.377 . S
C605 C606 1.379 . S
C606 H590 0.931 1_545 S
C606 C600 1.367 1_545 S
C606 C605 1.379 . S
H607 C601 0.959 . S
H608 C601 0.961 1_545 S
H609 C601 0.960 1_545 S
H610 C602 0.930 . S
H611 C603 0.929 . S
H612 C620 0.929 . S
H613 C622 0.930 . S
H614 C624 0.930 . S
H615 C627 0.929 . S
H616 C630 0.930 . S
H617 C632 0.960 . S
H618 C632 0.960 . S
H619 C632 0.960 . S
C620 H612 0.929 . S
C620 C621 1.377 . S
C620 C622 1.384 . S
C621 C620 1.377 . S
C621 C627 1.390 . S
C622 H613 0.930 . S
C622 C620 1.384 . S
C622 C623 1.372 . S
C623 C622 1.372 . S
C623 C624 1.400 . S
C623 C628 1.490 . S
C624 H614 0.930 . S
C624 C623 1.400 . S
C624 C627 1.386 . S
H625 C641 0.930 . S
H626 C642 0.931 . S
C627 H615 0.929 . S
C627 C621 1.390 . S
C627 C624 1.386 . S
C628 C623 1.490 . S
C628 C630 1.395 . S
C628 C631 1.403 . S
H629 C635 0.930 . S
C630 H616 0.930 . S
C630 C628 1.395 . S
C630 C633 1.403 . S
C631 C628 1.403 . S
C631 C632 1.524 . S
C631 C635 1.400 . S
C632 H617 0.960 . S
C632 H618 0.960 . S
C632 H619 0.960 . S
C632 C631 1.524 . S
C633 C630 1.403 . S
C633 C634 1.392 . S
C633 C637 1.495 . S
C634 C633 1.392 . S
C634 C635 1.385 . S
C634 C636 1.478 . S
C635 H629 0.930 . S
C635 C631 1.400 . S
C635 C634 1.385 . S
C636 C634 1.478 . S
C636 C638 1.381 . S
C636 C642 1.383 . S
C637 C633 1.495 . S
C637 H643 0.959 . S
C637 H644 0.961 . S
C637 H645 0.960 . S
C638 C636 1.381 . S
C638 C639 1.394 . S
C638 H646 0.930 . S
C639 C638 1.394 . S
C639 C640 1.383 . S
C639 H647 0.929 . S
C640 C639 1.383 . S
C640 C641 1.377 . S
C641 H625 0.930 . S
C641 C640 1.377 . S
C641 C642 1.379 . S
C642 H626 0.931 . S
C642 C636 1.383 . S
C642 C641 1.379 . S
H643 C637 0.959 . S
H644 C637 0.961 . S
H645 C637 0.960 . S
H646 C638 0.930 . S
H647 C639 0.929 . S
H648 C656 0.929 . S
H649 C658 0.930 . S
H650 C660 0.930 . S
H651 C663 0.929 . S
H652 C666 0.930 . S
H653 C668 0.960 . S
H654 C668 0.960 . S
H655 C668 0.960 . S
C656 H648 0.929 . S
C656 C657 1.377 . S
C656 C658 1.384 . S
C657 C656 1.377 . S
C657 C663 1.390 . S
C658 H649 0.930 . S
C658 C656 1.384 . S
C658 C659 1.372 . S
C659 C658 1.372 . S
C659 C660 1.400 . S
C659 C664 1.490 . S
C660 H650 0.930 . S
C660 C659 1.400 . S
C660 C663 1.386 . S
H661 C677 0.930 . S
H662 C678 0.938 . S
C663 H651 0.929 . S
C663 C657 1.390 . S
C663 C660 1.386 . S
C664 C659 1.490 . S
C664 C666 1.395 . S
C664 C667 1.403 . S
H665 C671 0.930 . S
C666 H652 0.930 . S
C666 C664 1.395 . S
C666 C669 1.403 . S
C667 C664 1.403 . S
C667 C668 1.524 . S
C667 C671 1.400 . S
C668 H653 0.960 . S
C668 H654 0.960 . S
C668 H655 0.960 . S
C668 C667 1.524 . S
C669 C666 1.403 . S
C669 C670 1.392 . S
C669 C673 1.495 . S
C670 C669 1.392 . S
C670 C671 1.385 . S
C670 C672 1.478 . S
C671 H665 0.930 . S
C671 C667 1.400 . S
C671 C670 1.385 . S
C672 C670 1.478 . S
C672 C674 1.381 1_455 S
C672 C678 1.386 . S
C673 C669 1.495 . S
C673 H679 0.959 . S
C673 H680 0.961 1_455 S
C673 H681 0.960 1_455 S
C674 C672 1.381 1_655 S
C674 C675 1.394 . S
C674 H682 0.930 . S
C675 C674 1.394 . S
C675 C676 1.383 . S
C675 H683 0.929 . S
C676 C675 1.383 . S
C676 C677 1.377 . S
C677 H661 0.930 . S
C677 C676 1.377 . S
C677 C678 1.369 1_655 S
C678 H662 0.938 . S
C678 C672 1.386 . S
C678 C677 1.369 1_455 S
H679 C673 0.959 . S
H680 C673 0.961 1_655 S
H681 C673 0.960 1_655 S
H682 C674 0.930 . S
H683 C675 0.929 . S
H684 C692 0.929 . S
H685 C694 0.930 . S
H686 C696 0.930 . S
H687 C699 0.929 . S
H688 C702 0.930 . S
H689 C704 0.960 . S
H690 C704 0.960 . S
H691 C704 0.960 . S
C692 H684 0.929 . S
C692 C693 1.377 . S
C692 C694 1.384 . S
C693 C692 1.377 . S
C693 C699 1.390 . S
C694 H685 0.930 . S
C694 C692 1.384 . S
C694 C695 1.372 . S
C695 C694 1.372 . S
C695 C696 1.400 . S
C695 C700 1.490 . S
C696 H686 0.930 . S
C696 C695 1.400 . S
C696 C699 1.386 . S
H697 C713 0.930 . S
H698 C714 0.931 . S
C699 H687 0.929 . S
C699 C693 1.390 . S
C699 C696 1.386 . S
C700 C695 1.490 . S
C700 C702 1.395 . S
C700 C703 1.403 . S
H701 C707 0.930 . S
C702 H688 0.930 . S
C702 C700 1.395 . S
C702 C705 1.403 . S
C703 C700 1.403 . S
C703 C704 1.524 . S
C703 C707 1.400 . S
C704 H689 0.960 . S
C704 H690 0.960 . S
C704 H691 0.960 . S
C704 C703 1.524 . S
C705 C702 1.403 . S
C705 C706 1.392 . S
C705 C709 1.495 . S
C706 C705 1.392 . S
C706 C707 1.385 . S
C706 C708 1.478 . S
C707 H701 0.930 . S
C707 C703 1.400 . S
C707 C706 1.385 . S
C708 C706 1.478 . S
C708 C710 1.381 . S
C708 C714 1.383 1_545 S
C709 C705 1.495 . S
C709 H715 0.959 . S
C709 H716 0.961 . S
C709 H717 0.960 . S
C710 C708 1.381 . S
C710 C711 1.394 1_545 S
C710 H718 0.930 . S
C711 C710 1.394 1_565 S
C711 C712 1.383 . S
C711 H719 0.929 . S
C712 C711 1.383 . S
C712 C713 1.377 . S
C713 H697 0.930 . S
C713 C712 1.377 . S
C713 C714 1.379 . S
C714 H698 0.931 . S
C714 C708 1.383 1_565 S
C714 C713 1.379 . S
H715 C709 0.959 . S
H716 C709 0.961 . S
H717 C709 0.960 . S
H718 C710 0.930 . S
H719 C711 0.929 . S
H720 C728 0.929 . S
H721 C730 0.930 . S
H722 C732 0.930 . S
H723 C735 0.929 . S
H724 C738 0.930 . S
H725 C740 0.960 . S
H726 C740 0.960 . S
H727 C740 0.960 . S
C728 H720 0.929 . S
C728 C729 1.377 . S
C728 C730 1.384 . S
C729 C728 1.377 . S
C729 C735 1.390 . S
C730 H721 0.930 . S
C730 C728 1.384 . S
C730 C731 1.372 . S
C731 C730 1.372 . S
C731 C732 1.400 . S
C731 C736 1.490 . S
C732 H722 0.930 . S
C732 C731 1.400 . S
C732 C735 1.386 . S
H733 C749 0.930 . S
H734 C750 0.931 . S
C735 H723 0.929 . S
C735 C729 1.390 . S
C735 C732 1.386 . S
C736 C731 1.490 . S
C736 C738 1.395 . S
C736 C739 1.403 . S
H737 C743 0.930 . S
C738 H724 0.930 . S
C738 C736 1.395 . S
C738 C741 1.403 . S
C739 C736 1.403 . S
C739 C740 1.524 . S
C739 C743 1.400 . S
C740 H725 0.960 . S
C740 H726 0.960 . S
C740 H727 0.960 . S
C740 C739 1.524 . S
C741 C738 1.403 . S
C741 C742 1.392 . S
C741 C745 1.495 . S
C742 C741 1.392 . S
C742 C743 1.385 . S
C742 C744 1.478 . S
C743 H737 0.930 . S
C743 C739 1.400 . S
C743 C742 1.385 . S
C744 C742 1.478 . S
C744 C746 1.381 . S
C744 C750 1.383 . S
C745 C741 1.495 . S
C745 H751 0.959 . S
C745 H752 0.961 . S
C745 H753 0.960 . S
C746 C744 1.381 . S
C746 C747 1.394 . S
C746 H754 0.930 . S
C747 C746 1.394 . S
C747 C748 1.383 . S
C747 H755 0.929 . S
C748 C747 1.383 . S
C748 C749 1.377 . S
C749 H733 0.930 . S
C749 C748 1.377 . S
C749 C750 1.379 . S
C750 H734 0.931 . S
C750 C744 1.383 . S
C750 C749 1.379 . S
H751 C745 0.959 . S
H752 C745 0.961 . S
H753 C745 0.960 . S
H754 C746 0.930 . S
H755 C747 0.929 . S
H756 C764 0.929 . S
H757 C766 0.930 . S
H758 C768 0.930 . S
H759 C771 0.929 . S
H760 C774 0.930 . S
H761 C776 0.960 . S
H762 C776 0.960 . S
H763 C776 0.960 . S
C764 H756 0.929 . S
C764 C765 1.377 . S
C764 C766 1.384 . S
C765 C764 1.377 . S
C765 C771 1.390 . S
C766 H757 0.930 . S
C766 C764 1.384 . S
C766 C767 1.372 . S
C767 C766 1.372 . S
C767 C768 1.400 . S
C767 C772 1.490 . S
C768 H758 0.930 . S
C768 C767 1.400 . S
C768 C771 1.386 . S
H769 C785 0.930 . S
H770 C786 0.931 . S
C771 H759 0.929 . S
C771 C765 1.390 . S
C771 C768 1.386 . S
C772 C767 1.490 . S
C772 C774 1.395 . S
C772 C775 1.403 . S
H773 C779 0.930 . S
C774 H760 0.930 . S
C774 C772 1.395 . S
C774 C777 1.403 . S
C775 C772 1.403 . S
C775 C776 1.524 . S
C775 C779 1.400 . S
C776 H761 0.960 . S
C776 H762 0.960 . S
C776 H763 0.960 . S
C776 C775 1.524 . S
C777 C774 1.403 . S
C777 C778 1.392 . S
C777 C781 1.495 . S
C778 C777 1.392 . S
C778 C779 1.385 . S
C778 C780 1.478 . S
C779 H773 0.930 . S
C779 C775 1.400 . S
C779 C778 1.385 . S
C780 C778 1.478 . S
C780 C782 1.381 . S
C780 C786 1.383 1_655 S
C781 C777 1.495 . S
C781 H787 0.959 . S
C781 H788 0.961 . S
C781 H789 0.960 . S
C782 C780 1.381 . S
C782 C783 1.394 1_655 S
C782 H790 0.930 . S
C783 C782 1.394 1_455 S
C783 C784 1.383 . S
C783 H791 0.929 . S
C784 C783 1.383 . S
C784 C785 1.377 . S
C785 H769 0.930 . S
C785 C784 1.377 . S
C785 C786 1.379 . S
C786 H770 0.931 . S
C786 C780 1.383 1_455 S
C786 C785 1.379 . S
H787 C781 0.959 . S
H788 C781 0.961 . S
H789 C781 0.960 . S
H790 C782 0.930 . S
H791 C783 0.929 . S
H792 C800 0.929 . S
H793 C802 0.930 . S
H794 C804 0.930 . S
H795 C807 0.929 . S
H796 C810 0.930 . S
H797 C812 0.960 . S
H798 C812 0.960 . S
H799 C812 0.960 . S
C800 H792 0.929 . S
C800 C801 1.377 . S
C800 C802 1.384 . S
C801 C800 1.377 . S
C801 C807 1.390 . S
C802 H793 0.930 . S
C802 C800 1.384 . S
C802 C803 1.372 . S
C803 C802 1.372 . S
C803 C804 1.400 . S
C803 C808 1.490 . S
C804 H794 0.930 . S
C804 C803 1.400 . S
C804 C807 1.386 . S
H805 C821 0.930 . S
H806 C822 0.931 1_565 S
C807 H795 0.929 . S
C807 C801 1.390 . S
C807 C804 1.386 . S
C808 C803 1.490 . S
C808 C810 1.395 . S
C808 C811 1.403 . S
H809 C815 0.930 . S
C810 H796 0.930 . S
C810 C808 1.395 . S
C810 C813 1.403 . S
C811 C808 1.403 . S
C811 C812 1.524 . S
C811 C815 1.400 . S
C812 H797 0.960 . S
C812 H798 0.960 . S
C812 H799 0.960 . S
C812 C811 1.524 . S
C813 C810 1.403 . S
C813 C814 1.392 . S
C813 C817 1.495 . S
C814 C813 1.392 . S
C814 C815 1.385 . S
C814 C816 1.478 . S
C815 H809 0.930 . S
C815 C811 1.400 . S
C815 C814 1.385 . S
C816 C814 1.478 . S
C816 C818 1.381 1_565 S
C816 C822 1.383 1_565 S
C817 C813 1.495 . S
C817 H823 0.959 . S
C817 H824 0.961 . S
C817 H825 0.960 . S
C818 C816 1.381 1_545 S
C818 C819 1.394 . S
C818 H826 0.938 . S
C819 C818 1.394 . S
C819 C820 1.383 . S
C819 H827 0.929 . S
C820 C819 1.383 . S
C820 C821 1.377 . S
C821 H805 0.930 . S
C821 C820 1.377 . S
C821 C822 1.379 . S
C822 H806 0.931 1_545 S
C822 C816 1.383 1_545 S
C822 C821 1.379 . S
H823 C817 0.959 . S
H824 C817 0.961 . S
H825 C817 0.960 . S
H826 C818 0.938 . S
H827 C819 0.929 . S
H828 C836 0.929 . S
H829 C838 0.930 . S
H830 C840 0.930 . S
H831 C843 0.929 . S
H832 C846 0.930 . S
H833 C848 0.960 . S
H834 C848 0.960 . S
H835 C848 0.960 . S
C836 H828 0.929 . S
C836 C837 1.377 . S
C836 C838 1.384 . S
C837 C836 1.377 . S
C837 C843 1.390 . S
C838 H829 0.930 . S
C838 C836 1.384 . S
C838 C839 1.372 . S
C839 C838 1.372 . S
C839 C840 1.400 . S
C839 C844 1.490 . S
C840 H830 0.930 . S
C840 C839 1.400 . S
C840 C843 1.386 . S
H841 C857 0.930 . S
H842 C858 0.931 . S
C843 H831 0.929 . S
C843 C837 1.390 . S
C843 C840 1.386 . S
C844 C839 1.490 . S
C844 C846 1.395 . S
C844 C847 1.403 . S
H845 C851 0.930 . S
C846 H832 0.930 . S
C846 C844 1.395 . S
C846 C849 1.403 . S
C847 C844 1.403 . S
C847 C848 1.524 . S
C847 C851 1.400 . S
C848 H833 0.960 . S
C848 H834 0.960 . S
C848 H835 0.960 . S
C848 C847 1.524 . S
C849 C846 1.403 . S
C849 C850 1.392 . S
C849 C853 1.495 . S
C850 C849 1.392 . S
C850 C851 1.385 . S
C850 C852 1.478 . S
C851 H845 0.930 . S
C851 C847 1.400 . S
C851 C850 1.385 . S
C852 C850 1.478 . S
C852 C854 1.381 . S
C852 C858 1.383 . S
C853 C849 1.495 . S
C853 H859 0.959 . S
C853 H860 0.961 . S
C853 H861 0.960 . S
C854 C852 1.381 . S
C854 C855 1.394 . S
C854 H862 0.930 . S
C855 C854 1.394 . S
C855 C856 1.383 . S
C855 H863 0.929 . S
C856 C855 1.383 . S
C856 C857 1.377 . S
C857 H841 0.930 . S
C857 C856 1.377 . S
C857 C858 1.379 . S
C858 H842 0.931 . S
C858 C852 1.383 . S
C858 C857 1.379 . S
H859 C853 0.959 . S
H860 C853 0.961 . S
H861 C853 0.960 . S
H862 C854 0.930 . S
H863 C855 0.929 . S
H864 C872 0.929 . S
H865 C874 0.930 . S
H866 C876 0.930 . S
H867 C879 0.929 . S
H868 C882 0.930 . S
H869 C884 0.960 . S
H870 C884 0.960 . S
H871 C884 0.960 . S
C872 H864 0.929 . S
C872 C873 1.377 . S
C872 C874 1.384 . S
C873 C872 1.377 . S
C873 C879 1.390 . S
C874 H865 0.930 . S
C874 C872 1.384 . S
C874 C875 1.372 . S
C875 C874 1.372 . S
C875 C876 1.400 . S
C875 C880 1.490 . S
C876 H866 0.930 . S
C876 C875 1.400 . S
C876 C879 1.386 . S
H877 C893 0.930 . S
H878 C894 0.931 . S
C879 H867 0.929 . S
C879 C873 1.390 . S
C879 C876 1.386 . S
C880 C875 1.490 . S
C880 C882 1.395 . S
C880 C883 1.403 . S
H881 C887 0.930 . S
C882 H868 0.930 . S
C882 C880 1.395 . S
C882 C885 1.403 . S
C883 C880 1.403 . S
C883 C884 1.524 . S
C883 C887 1.400 . S
C884 H869 0.960 . S
C884 H870 0.960 . S
C884 H871 0.960 . S
C884 C883 1.524 . S
C885 C882 1.403 . S
C885 C886 1.392 . S
C885 C889 1.495 . S
C886 C885 1.392 . S
C886 C887 1.385 . S
C886 C888 1.478 . S
C887 H881 0.930 . S
C887 C883 1.400 . S
C887 C886 1.385 . S
C888 C886 1.478 . S
C888 C890 1.381 . S
C888 C894 1.383 . S
C889 C885 1.495 . S
C889 H895 0.959 . S
C889 H896 0.961 . S
C889 H897 0.960 . S
C890 C888 1.381 . S
C890 C891 1.394 . S
C890 H898 0.930 . S
C891 C890 1.394 . S
C891 C892 1.383 . S
C891 H899 0.929 . S
C892 C891 1.383 . S
C892 C893 1.377 . S
C893 H877 0.930 . S
C893 C892 1.377 . S
C893 C894 1.379 . S
C894 H878 0.931 . S
C894 C888 1.383 . S
C894 C893 1.379 . S
H895 C889 0.959 . S
H896 C889 0.961 . S
H897 C889 0.960 . S
H898 C890 0.930 . S
H899 C891 0.929 . S
H900 C908 0.929 . S
H901 C910 0.930 . S
H902 C912 0.930 . S
H903 C915 0.929 . S
H904 C918 0.930 . S
H905 C920 0.960 . S
H906 C920 0.960 . S
H907 C920 0.960 . S
C908 H900 0.929 . S
C908 C909 1.377 . S
C908 C910 1.384 . S
C909 C908 1.377 . S
C909 C915 1.390 . S
C910 H901 0.930 . S
C910 C908 1.384 . S
C910 C911 1.372 . S
C911 C910 1.372 . S
C911 C912 1.400 . S
C911 C916 1.490 . S
C912 H902 0.930 . S
C912 C911 1.400 . S
C912 C915 1.386 . S
H913 C929 0.930 . S
H914 C930 0.931 . S
C915 H903 0.929 . S
C915 C909 1.390 . S
C915 C912 1.386 . S
C916 C911 1.490 . S
C916 C918 1.395 . S
C916 C919 1.403 . S
H917 C923 0.930 . S
C918 H904 0.930 . S
C918 C916 1.395 . S
C918 C921 1.403 . S
C919 C916 1.403 . S
C919 C920 1.524 . S
C919 C923 1.400 . S
C920 H905 0.960 . S
C920 H906 0.960 . S
C920 H907 0.960 . S
C920 C919 1.524 . S
C921 C918 1.403 . S
C921 C922 1.392 . S
C921 C925 1.495 . S
C922 C921 1.392 . S
C922 C923 1.385 . S
C922 C924 1.478 . S
C923 H917 0.930 . S
C923 C919 1.400 . S
C923 C922 1.385 . S
C924 C922 1.478 . S
C924 C926 1.381 . S
C924 C930 1.383 . S
C925 C921 1.495 . S
C925 H931 0.959 . S
C925 H932 0.961 . S
C925 H933 0.960 . S
C926 C924 1.381 . S
C926 C927 1.394 . S
C926 H934 0.930 . S
C927 C926 1.394 . S
C927 C928 1.383 . S
C927 H935 0.929 . S
C928 C927 1.383 . S
C928 C929 1.377 . S
C929 H913 0.930 . S
C929 C928 1.377 . S
C929 C930 1.379 . S
C930 H914 0.931 . S
C930 C924 1.383 . S
C930 C929 1.379 . S
H931 C925 0.959 . S
H932 C925 0.961 . S
H933 C925 0.960 . S
H934 C926 0.930 . S
H935 C927 0.929 . S
H936 C944 0.929 . S
H937 C946 0.930 . S
H938 C948 0.930 . S
H939 C951 0.929 . S
H940 C954 0.930 . S
H941 C956 0.960 . S
H942 C956 0.960 . S
H943 C956 0.960 . S
C944 H936 0.929 . S
C944 C945 1.377 . S
C944 C946 1.384 . S
C945 C944 1.377 . S
C945 C951 1.390 . S
C946 H937 0.930 . S
C946 C944 1.384 . S
C946 C947 1.372 . S
C947 C946 1.372 . S
C947 C948 1.400 . S
C947 C952 1.490 . S
C948 H938 0.930 . S
C948 C947 1.400 . S
C948 C951 1.386 . S
H949 C965 0.930 . S
H950 C966 0.931 . S
C951 H939 0.929 . S
C951 C945 1.390 . S
C951 C948 1.386 . S
C952 C947 1.490 . S
C952 C954 1.395 . S
C952 C955 1.403 . S
H953 C959 0.930 . S
C954 H940 0.930 . S
C954 C952 1.395 . S
C954 C957 1.403 . S
C955 C952 1.403 . S
C955 C956 1.524 . S
C955 C959 1.400 . S
C956 H941 0.960 . S
C956 H942 0.960 . S
C956 H943 0.960 . S
C956 C955 1.524 . S
C957 C954 1.403 . S
C957 C958 1.392 . S
C957 C961 1.495 . S
C958 C957 1.392 . S
C958 C959 1.385 . S
C958 C960 1.478 . S
C959 H953 0.930 . S
C959 C955 1.400 . S
C959 C958 1.385 . S
C960 C958 1.478 . S
C960 C962 1.381 . S
C960 C966 1.383 . S
C961 C957 1.495 . S
C961 H967 0.959 . S
C961 H968 0.961 . S
C961 H969 0.960 . S
C962 C960 1.381 . S
C962 C963 1.394 . S
C962 H970 0.930 . S
C963 C962 1.394 . S
C963 C964 1.383 . S
C963 H971 0.929 . S
C964 C963 1.383 . S
C964 C965 1.377 . S
C965 H949 0.930 . S
C965 C964 1.377 . S
C965 C966 1.379 . S
C966 H950 0.931 . S
C966 C960 1.383 . S
C966 C965 1.379 . S
H967 C961 0.959 . S
H968 C961 0.961 . S
H969 C961 0.960 . S
H970 C962 0.930 . S
H971 C963 0.929 . S
H972 C980 0.929 . S
H973 C982 0.930 . S
H974 C984 0.930 . S
H975 C987 0.929 . S
H976 C990 0.930 . S
H977 C992 0.960 . S
H978 C992 0.960 . S
H979 C992 0.960 . S
C980 H972 0.929 . S
C980 C981 1.377 . S
C980 C982 1.384 . S
C981 C980 1.377 . S
C981 C987 1.390 . S
C982 H973 0.930 . S
C982 C980 1.384 . S
C982 C983 1.372 . S
C983 C982 1.372 . S
C983 C984 1.400 . S
C983 C988 1.490 . S
C984 H974 0.930 . S
C984 C983 1.400 . S
C984 C987 1.386 . S
H985 C1001 0.930 . S
H986 C1002 0.931 . S
C987 H975 0.929 . S
C987 C981 1.390 . S
C987 C984 1.386 . S
C988 C983 1.490 . S
C988 C990 1.395 . S
C988 C991 1.403 . S
H989 C995 0.930 . S
C990 H976 0.930 . S
C990 C988 1.395 . S
C990 C993 1.403 . S
C991 C988 1.403 . S
C991 C992 1.524 . S
C991 C995 1.400 . S
C992 H977 0.960 . S
C992 H978 0.960 . S
C992 H979 0.960 . S
C992 C991 1.524 . S
C993 C990 1.403 . S
C993 C994 1.392 . S
C993 C997 1.495 . S
C994 C993 1.392 . S
C994 C995 1.385 . S
C994 C996 1.478 . S
C995 H989 0.930 . S
C995 C991 1.400 . S
C995 C994 1.385 . S
C996 C994 1.478 . S
C996 C998 1.381 . S
C996 C1002 1.383 . S
C997 C993 1.495 . S
C997 H1003 0.959 . S
C997 H1004 0.961 . S
C997 H1005 0.960 . S
C998 C996 1.381 . S
C998 C999 1.394 . S
C998 H1006 0.930 . S
C999 C998 1.394 . S
C999 C1000 1.383 . S
C999 H1007 0.929 . S
C1000 C999 1.383 . S
C1000 C1001 1.377 . S
C1001 H985 0.930 . S
C1001 C1000 1.377 . S
C1001 C1002 1.379 . S
C1002 H986 0.931 . S
C1002 C996 1.383 . S
C1002 C1001 1.379 . S
H1003 C997 0.959 . S
H1004 C997 0.961 . S
H1005 C997 0.960 . S
H1006 C998 0.930 . S
H1007 C999 0.929 . S
H1008 C1016 0.929 . S
H1009 C1018 0.930 . S
H1010 C1020 0.930 . S
H1011 C1023 0.929 . S
H1012 C1026 0.930 . S
H1013 C1028 0.960 . S
H1014 C1028 0.960 . S
H1015 C1028 0.960 . S
C1016 H1008 0.929 . S
C1016 C1017 1.377 . S
C1016 C1018 1.384 . S
C1017 C1016 1.377 . S
C1017 C1023 1.390 . S
C1018 H1009 0.930 . S
C1018 C1016 1.384 . S
C1018 C1019 1.372 . S
C1019 C1018 1.372 . S
C1019 C1020 1.400 . S
C1019 C1024 1.490 . S
C1020 H1010 0.930 . S
C1020 C1019 1.400 . S
C1020 C1023 1.386 . S
H1021 C1037 0.930 . S
H1022 C1038 0.931 . S
C1023 H1011 0.929 . S
C1023 C1017 1.390 . S
C1023 C1020 1.386 . S
C1024 C1019 1.490 . S
C1024 C1026 1.395 . S
C1024 C1027 1.403 . S
H1025 C1031 0.930 . S
C1026 H1012 0.930 . S
C1026 C1024 1.395 . S
C1026 C1029 1.403 . S
C1027 C1024 1.403 . S
C1027 C1028 1.524 . S
C1027 C1031 1.400 . S
C1028 H1013 0.960 . S
C1028 H1014 0.960 . S
C1028 H1015 0.960 . S
C1028 C1027 1.524 . S
C1029 C1026 1.403 . S
C1029 C1030 1.392 . S
C1029 C1033 1.495 . S
C1030 C1029 1.392 . S
C1030 C1031 1.385 . S
C1030 C1032 1.478 . S
C1031 H1025 0.930 . S
C1031 C1027 1.400 . S
C1031 C1030 1.385 . S
C1032 C1030 1.478 . S
C1032 C1034 1.381 . S
C1032 C1038 1.383 . S
C1033 C1029 1.495 . S
C1033 H1039 0.959 . S
C1033 H1040 0.961 . S
C1033 H1041 0.960 . S
C1034 C1032 1.381 . S
C1034 C1035 1.394 . S
C1034 H1042 0.930 . S
C1035 C1034 1.394 . S
C1035 C1036 1.383 . S
C1035 H1043 0.929 . S
C1036 C1035 1.383 . S
C1036 C1037 1.377 . S
C1037 H1021 0.930 . S
C1037 C1036 1.377 . S
C1037 C1038 1.379 . S
C1038 H1022 0.931 . S
C1038 C1032 1.383 . S
C1038 C1037 1.379 . S
H1039 C1033 0.959 . S
H1040 C1033 0.961 . S
H1041 C1033 0.960 . S
H1042 C1034 0.930 . S
H1043 C1035 0.929 . S
H1044 C1052 0.929 . S
H1045 C1054 0.930 . S
H1046 C1056 0.930 . S
H1047 C1059 0.929 . S
H1048 C1062 0.930 . S
H1049 C1064 0.960 . S
H1050 C1064 0.960 . S
H1051 C1064 0.960 . S
C1052 H1044 0.929 . S
C1052 C1053 1.377 . S
C1052 C1054 1.384 . S
C1053 C1052 1.377 . S
C1053 C1059 1.390 . S
C1054 H1045 0.930 . S
C1054 C1052 1.384 . S
C1054 C1055 1.372 . S
C1055 C1054 1.372 . S
C1055 C1056 1.400 . S
C1055 C1060 1.490 . S
C1056 H1046 0.930 . S
C1056 C1055 1.400 . S
C1056 C1059 1.386 . S
H1057 C1073 0.930 . S
H1058 C1074 0.931 . S
C1059 H1047 0.929 . S
C1059 C1053 1.390 . S
C1059 C1056 1.386 . S
C1060 C1055 1.490 . S
C1060 C1062 1.395 . S
C1060 C1063 1.403 . S
H1061 C1067 0.930 . S
C1062 H1048 0.930 . S
C1062 C1060 1.395 . S
C1062 C1065 1.403 . S
C1063 C1060 1.403 . S
C1063 C1064 1.524 . S
C1063 C1067 1.400 . S
C1064 H1049 0.960 . S
C1064 H1050 0.960 . S
C1064 H1051 0.960 . S
C1064 C1063 1.524 . S
C1065 C1062 1.403 . S
C1065 C1066 1.392 . S
C1065 C1069 1.495 . S
C1066 C1065 1.392 . S
C1066 C1067 1.385 . S
C1066 C1068 1.478 . S
C1067 H1061 0.930 . S
C1067 C1063 1.400 . S
C1067 C1066 1.385 . S
C1068 C1066 1.478 . S
C1068 C1070 1.381 . S
C1068 C1074 1.383 . S
C1069 C1065 1.495 . S
C1069 H1075 0.959 . S
C1069 H1076 0.961 . S
C1069 H1077 0.960 . S
C1070 C1068 1.381 . S
C1070 C1071 1.394 . S
C1070 H1078 0.930 . S
C1071 C1070 1.394 . S
C1071 C1072 1.383 . S
C1071 H1079 0.929 . S
C1072 C1071 1.383 . S
C1072 C1073 1.377 . S
C1073 H1057 0.930 . S
C1073 C1072 1.377 . S
C1073 C1074 1.379 . S
C1074 H1058 0.931 . S
C1074 C1068 1.383 . S
C1074 C1073 1.379 . S
H1075 C1069 0.959 . S
H1076 C1069 0.961 . S
H1077 C1069 0.960 . S
H1078 C1070 0.930 . S
H1079 C1071 0.929 . S
H1080 C1088 0.929 . S
H1081 C1090 0.930 . S
H1082 C1092 0.930 . S
H1083 C1095 0.929 . S
H1084 C1098 0.930 . S
H1085 C1100 0.960 . S
H1086 C1100 0.960 . S
H1087 C1100 0.960 . S
C1088 H1080 0.929 . S
C1088 C1089 1.377 . S
C1088 C1090 1.384 . S
C1089 C1088 1.377 . S
C1089 C1095 1.390 . S
C1090 H1081 0.930 . S
C1090 C1088 1.384 . S
C1090 C1091 1.372 . S
C1091 C1090 1.372 . S
C1091 C1092 1.400 . S
C1091 C1096 1.490 . S
C1092 H1082 0.930 . S
C1092 C1091 1.400 . S
C1092 C1095 1.386 . S
H1093 C1109 0.930 . S
H1094 C1110 0.931 . S
C1095 H1083 0.929 . S
C1095 C1089 1.390 . S
C1095 C1092 1.386 . S
C1096 C1091 1.490 . S
C1096 C1098 1.395 . S
C1096 C1099 1.403 1_455 S
H1097 C1103 0.930 . S
C1098 H1084 0.930 . S
C1098 C1096 1.395 . S
C1098 C1101 1.403 . S
C1099 C1096 1.403 1_655 S
C1099 C1100 1.524 . S
C1099 C1103 1.400 . S
C1100 H1085 0.960 . S
C1100 H1086 0.960 . S
C1100 H1087 0.960 . S
C1100 C1099 1.524 . S
C1101 C1098 1.403 . S
C1101 C1102 1.392 1_455 S
C1101 C1105 1.495 . S
C1102 C1101 1.392 1_655 S
C1102 C1103 1.385 . S
C1102 C1104 1.478 . S
C1103 H1097 0.930 . S
C1103 C1099 1.400 . S
C1103 C1102 1.385 . S
C1104 C1102 1.478 . S
C1104 C1106 1.381 . S
C1104 C1110 1.383 . S
C1105 C1101 1.495 . S
C1105 H1111 0.959 . S
C1105 H1112 0.961 . S
C1105 H1113 0.960 . S
C1106 C1104 1.381 . S
C1106 C1107 1.394 . S
C1106 H1114 0.930 . S
C1107 C1106 1.394 . S
C1107 C1108 1.383 . S
C1107 H1115 0.929 . S
C1108 C1107 1.383 . S
C1108 C1109 1.377 . S
C1109 H1093 0.930 . S
C1109 C1108 1.377 . S
C1109 C1110 1.379 . S
C1110 H1094 0.931 . S
C1110 C1104 1.383 . S
C1110 C1109 1.379 . S
H1111 C1105 0.959 . S
H1112 C1105 0.961 . S
H1113 C1105 0.960 . S
H1114 C1106 0.930 . S
H1115 C1107 0.929 . S
H1116 C1124 0.929 . S
H1117 C1126 0.930 1_545 S
H1118 C1128 0.930 . S
H1119 C1131 0.929 . S
H1120 C1134 0.930 . S
H1121 C1136 0.960 . S
H1122 C1136 0.960 . S
H1123 C1136 0.960 . S
C1124 H1116 0.929 . S
C1124 C1125 1.377 . S
C1124 C1126 1.384 . S
C1125 C1124 1.377 . S
C1125 C1131 1.390 . S
C1126 H1117 0.930 1_565 S
C1126 C1124 1.384 . S
C1126 C1127 1.372 . S
C1127 C1126 1.372 . S
C1127 C1128 1.400 . S
C1127 C1132 1.490 . S
C1128 H1118 0.930 . S
C1128 C1127 1.400 . S
C1128 C1131 1.386 . S
H1129 C1145 0.930 . S
H1130 C1146 0.931 . S
C1131 H1119 0.929 . S
C1131 C1125 1.390 . S
C1131 C1128 1.386 . S
C1132 C1127 1.490 . S
C1132 C1134 1.395 1_565 S
C1132 C1135 1.403 . S
H1133 C1139 0.932 . S
C1134 H1120 0.930 . S
C1134 C1132 1.395 1_545 S
C1134 C1137 1.403 . S
C1135 C1132 1.403 . S
C1135 C1136 1.524 . S
C1135 C1139 1.402 . S
C1136 H1121 0.960 . S
C1136 H1122 0.960 . S
C1136 H1123 0.960 . S
C1136 C1135 1.524 . S
C1137 C1134 1.403 . S
C1137 C1138 1.392 . S
C1137 C1141 1.495 . S
C1138 C1137 1.392 . S
C1138 C1139 1.381 1_545 S
C1138 C1140 1.478 . S
C1139 H1133 0.932 . S
C1139 C1135 1.402 . S
C1139 C1138 1.381 1_565 S
C1140 C1138 1.478 . S
C1140 C1142 1.381 . S
C1140 C1146 1.383 . S
C1141 C1137 1.495 . S
C1141 H1147 0.959 . S
C1141 H1148 0.961 . S
C1141 H1149 0.960 . S
C1142 C1140 1.381 . S
C1142 C1143 1.394 . S
C1142 H1150 0.930 . S
C1143 C1142 1.394 . S
C1143 C1144 1.383 . S
C1143 H1151 0.929 . S
C1144 C1143 1.383 . S
C1144 C1145 1.377 . S
C1145 H1129 0.930 . S
C1145 C1144 1.377 . S
C1145 C1146 1.379 . S
C1146 H1130 0.931 . S
C1146 C1140 1.383 . S
C1146 C1145 1.379 . S
H1147 C1141 0.959 . S
H1148 C1141 0.961 . S
H1149 C1141 0.960 . S
H1150 C1142 0.930 . S
H1151 C1143 0.929 . S
H1152 C1160 0.929 . S
H1153 C1162 0.930 . S
H1154 C1164 0.930 . S
H1155 C1167 0.929 . S
H1156 C1170 0.930 . S
H1157 C1172 0.960 . S
H1158 C1172 0.960 . S
H1159 C1172 0.960 . S
C1160 H1152 0.929 . S
C1160 C1161 1.377 . S
C1160 C1162 1.384 . S
C1161 C1160 1.377 . S
C1161 C1167 1.390 . S
C1162 H1153 0.930 . S
C1162 C1160 1.384 . S
C1162 C1163 1.372 . S
C1163 C1162 1.372 . S
C1163 C1164 1.400 . S
C1163 C1168 1.490 . S
C1164 H1154 0.930 . S
C1164 C1163 1.400 . S
C1164 C1167 1.386 . S
H1165 C1181 0.930 . S
H1166 C1182 0.931 . S
C1167 H1155 0.929 . S
C1167 C1161 1.390 . S
C1167 C1164 1.386 . S
C1168 C1163 1.490 . S
C1168 C1170 1.395 . S
C1168 C1171 1.403 . S
H1169 C1175 0.930 . S
C1170 H1156 0.930 . S
C1170 C1168 1.395 . S
C1170 C1173 1.403 . S
C1171 C1168 1.403 . S
C1171 C1172 1.524 . S
C1171 C1175 1.400 . S
C1172 H1157 0.960 . S
C1172 H1158 0.960 . S
C1172 H1159 0.960 . S
C1172 C1171 1.524 . S
C1173 C1170 1.403 . S
C1173 C1174 1.392 . S
C1173 C1177 1.495 . S
C1174 C1173 1.392 . S
C1174 C1175 1.385 . S
C1174 C1176 1.478 . S
C1175 H1169 0.930 . S
C1175 C1171 1.400 . S
C1175 C1174 1.385 . S
C1176 C1174 1.478 . S
C1176 C1178 1.381 . S
C1176 C1182 1.383 . S
C1177 C1173 1.495 . S
C1177 H1183 0.959 . S
C1177 H1184 0.961 . S
C1177 H1185 0.960 . S
C1178 C1176 1.381 . S
C1178 C1179 1.394 . S
C1178 H1186 0.930 . S
C1179 C1178 1.394 . S
C1179 C1180 1.383 . S
C1179 H1187 0.929 . S
C1180 C1179 1.383 . S
C1180 C1181 1.377 . S
C1181 H1165 0.930 . S
C1181 C1180 1.377 . S
C1181 C1182 1.379 . S
C1182 H1166 0.931 . S
C1182 C1176 1.383 . S
C1182 C1181 1.379 . S
H1183 C1177 0.959 . S
H1184 C1177 0.961 . S
H1185 C1177 0.960 . S
H1186 C1178 0.930 . S
H1187 C1179 0.929 . S
H1188 C1196 0.929 . S
H1189 C1198 0.922 1_655 S
H1190 C1200 0.930 . S
H1191 C1203 0.929 . S
H1192 C1206 0.930 . S
H1193 C1208 0.960 . S
H1194 C1208 0.960 . S
H1195 C1208 0.960 . S
C1196 H1188 0.929 . S
C1196 C1197 1.377 . S
C1196 C1198 1.384 . S
C1197 C1196 1.377 . S
C1197 C1203 1.390 . S
C1198 H1189 0.922 1_455 S
C1198 C1196 1.384 . S
C1198 C1199 1.372 . S
C1199 C1198 1.372 . S
C1199 C1200 1.400 . S
C1199 C1204 1.490 . S
C1200 H1190 0.930 . S
C1200 C1199 1.400 . S
C1200 C1203 1.386 . S
H1201 C1217 0.930 . S
H1202 C1218 0.931 . S
C1203 H1191 0.929 . S
C1203 C1197 1.390 . S
C1203 C1200 1.386 . S
C1204 C1199 1.490 . S
C1204 C1206 1.395 1_455 S
C1204 C1207 1.403 . S
H1205 C1211 0.925 . S
C1206 H1192 0.930 . S
C1206 C1204 1.395 1_655 S
C1206 C1209 1.403 . S
C1207 C1204 1.403 . S
C1207 C1208 1.524 . S
C1207 C1211 1.400 1_455 S
C1208 H1193 0.960 . S
C1208 H1194 0.960 . S
C1208 H1195 0.960 . S
C1208 C1207 1.524 . S
C1209 C1206 1.403 . S
C1209 C1210 1.392 . S
C1209 C1213 1.495 . S
C1210 C1209 1.392 . S
C1210 C1211 1.385 . S
C1210 C1212 1.478 . S
C1211 H1205 0.925 . S
C1211 C1207 1.400 1_655 S
C1211 C1210 1.385 . S
C1212 C1210 1.478 . S
C1212 C1214 1.381 . S
C1212 C1218 1.383 . S
C1213 C1209 1.495 . S
C1213 H1219 0.959 . S
C1213 H1220 0.961 . S
C1213 H1221 0.960 . S
C1214 C1212 1.381 . S
C1214 C1215 1.394 . S
C1214 H1222 0.930 . S
C1215 C1214 1.394 . S
C1215 C1216 1.383 . S
C1215 H1223 0.929 . S
C1216 C1215 1.383 . S
C1216 C1217 1.377 . S
C1217 H1201 0.930 . S
C1217 C1216 1.377 . S
C1217 C1218 1.379 . S
C1218 H1202 0.931 . S
C1218 C1212 1.383 . S
C1218 C1217 1.379 . S
H1219 C1213 0.959 . S
H1220 C1213 0.961 . S
H1221 C1213 0.960 . S
H1222 C1214 0.930 . S
H1223 C1215 0.929 . S
H1224 C1232 0.929 . S
H1225 C1234 0.923 1_545 S
H1226 C1236 0.930 . S
H1227 C1239 0.929 . S
H1228 C1242 0.930 . S
H1229 C1244 0.960 1_556 S
H1230 C1244 0.960 . S
H1231 C1244 0.960 . S
C1232 H1224 0.929 . S
C1232 C1233 1.377 . S
C1232 C1234 1.384 . S
C1233 C1232 1.377 . S
C1233 C1239 1.390 . S
C1234 H1225 0.923 1_565 S
C1234 C1232 1.384 . S
C1234 C1235 1.372 . S
C1235 C1234 1.372 . S
C1235 C1236 1.400 . S
C1235 C1240 1.490 . S
C1236 H1226 0.930 . S
C1236 C1235 1.400 . S
C1236 C1239 1.386 . S
H1237 C1253 0.930 . S
H1238 C1254 0.931 . S
C1239 H1227 0.929 . S
C1239 C1233 1.390 . S
C1239 C1236 1.386 . S
C1240 C1235 1.490 . S
C1240 C1242 1.395 1_565 S
C1240 C1243 1.384 1_554 S
H1241 C1247 0.930 . S
C1242 H1228 0.930 . S
C1242 C1240 1.395 1_545 S
C1242 C1245 1.403 1_554 S
C1243 C1240 1.384 1_556 S
C1243 C1244 1.520 1_556 S
C1243 C1247 1.423 1_565 S
C1244 H1229 0.960 1_554 S
C1244 H1230 0.960 . S
C1244 H1231 0.960 . S
C1244 C1243 1.520 1_554 S
C1245 C1242 1.403 1_556 S
C1245 C1246 1.392 . S
C1245 C1249 1.495 . S
C1246 C1245 1.392 . S
C1246 C1247 1.385 . S
C1246 C1248 1.478 . S
C1247 H1241 0.930 . S
C1247 C1243 1.423 1_545 S
C1247 C1246 1.385 . S
C1248 C1246 1.478 . S
C1248 C1250 1.381 . S
C1248 C1254 1.383 . S
C1249 C1245 1.495 . S
C1249 H1255 0.959 1_556 S
C1249 H1256 0.961 . S
C1249 H1257 0.960 . S
C1250 C1248 1.381 . S
C1250 C1251 1.394 . S
C1250 H1258 0.930 . S
C1251 C1250 1.394 . S
C1251 C1252 1.383 . S
C1251 H1259 0.929 . S
C1252 C1251 1.383 . S
C1252 C1253 1.377 . S
C1253 H1237 0.930 . S
C1253 C1252 1.377 . S
C1253 C1254 1.379 . S
C1254 H1238 0.931 . S
C1254 C1248 1.383 . S
C1254 C1253 1.379 . S
H1255 C1249 0.959 1_554 S
H1256 C1249 0.961 . S
H1257 C1249 0.960 . S
H1258 C1250 0.930 . S
H1259 C1251 0.929 . S
H1260 C1268 0.929 . S
H1261 C1270 0.930 . S
H1262 C1272 0.930 . S
H1263 C1275 0.929 . S
H1264 C1278 0.930 . S
H1265 C1280 0.960 . S
H1266 C1280 0.960 . S
H1267 C1280 0.960 . S
C1268 H1260 0.929 . S
C1268 C1269 1.377 . S
C1268 C1270 1.384 . S
C1269 C1268 1.377 . S
C1269 C1275 1.390 . S
C1270 H1261 0.930 . S
C1270 C1268 1.384 . S
C1270 C1271 1.372 . S
C1271 C1270 1.372 . S
C1271 C1272 1.400 . S
C1271 C1276 1.490 . S
C1272 H1262 0.930 . S
C1272 C1271 1.400 . S
C1272 C1275 1.386 . S
H1273 C1289 0.930 . S
H1274 C1290 0.931 . S
C1275 H1263 0.929 . S
C1275 C1269 1.390 . S
C1275 C1272 1.386 . S
C1276 C1271 1.490 . S
C1276 C1278 1.395 . S
C1276 C1279 1.403 . S
H1277 C1283 0.930 . S
C1278 H1264 0.930 . S
C1278 C1276 1.395 . S
C1278 C1281 1.403 . S
C1279 C1276 1.403 . S
C1279 C1280 1.524 . S
C1279 C1283 1.400 . S
C1280 H1265 0.960 . S
C1280 H1266 0.960 . S
C1280 H1267 0.960 . S
C1280 C1279 1.524 . S
C1281 C1278 1.403 . S
C1281 C1282 1.392 . S
C1281 C1285 1.495 . S
C1282 C1281 1.392 . S
C1282 C1283 1.385 . S
C1282 C1284 1.478 . S
C1283 H1277 0.930 . S
C1283 C1279 1.400 . S
C1283 C1282 1.385 . S
C1284 C1282 1.478 . S
C1284 C1286 1.381 . S
C1284 C1290 1.383 . S
C1285 C1281 1.495 . S
C1285 H1291 0.959 . S
C1285 H1292 0.961 . S
C1285 H1293 0.960 . S
C1286 C1284 1.381 . S
C1286 C1287 1.394 . S
C1286 H1294 0.930 . S
C1287 C1286 1.394 . S
C1287 C1288 1.383 . S
C1287 H1295 0.929 . S
C1288 C1287 1.383 . S
C1288 C1289 1.377 . S
C1289 H1273 0.930 . S
C1289 C1288 1.377 . S
C1289 C1290 1.379 . S
C1290 H1274 0.931 . S
C1290 C1284 1.383 . S
C1290 C1289 1.379 . S
H1291 C1285 0.959 . S
H1292 C1285 0.961 . S
H1293 C1285 0.960 . S
H1294 C1286 0.930 . S
H1295 C1287 0.929 . S
H1296 C1304 0.929 . S
H1297 C1306 0.930 . S
H1298 C1308 0.930 . S
H1299 C1311 0.929 . S
H1300 C1314 0.930 . S
H1301 C1316 0.960 . S
H1302 C1316 0.960 . S
H1303 C1316 0.960 . S
C1304 H1296 0.929 . S
C1304 C1305 1.377 . S
C1304 C1306 1.384 . S
C1305 C1304 1.377 . S
C1305 C1311 1.390 . S
C1306 H1297 0.930 . S
C1306 C1304 1.384 . S
C1306 C1307 1.372 . S
C1307 C1306 1.372 . S
C1307 C1308 1.400 . S
C1307 C1312 1.490 . S
C1308 H1298 0.930 . S
C1308 C1307 1.400 . S
C1308 C1311 1.386 . S
H1309 C1325 0.930 . S
H1310 C1326 0.931 . S
C1311 H1299 0.929 . S
C1311 C1305 1.390 . S
C1311 C1308 1.386 . S
C1312 C1307 1.490 . S
C1312 C1314 1.395 . S
C1312 C1315 1.403 . S
H1313 C1319 0.930 . S
C1314 H1300 0.930 . S
C1314 C1312 1.395 . S
C1314 C1317 1.403 . S
C1315 C1312 1.403 . S
C1315 C1316 1.524 . S
C1315 C1319 1.400 . S
C1316 H1301 0.960 . S
C1316 H1302 0.960 . S
C1316 H1303 0.960 . S
C1316 C1315 1.524 . S
C1317 C1314 1.403 . S
C1317 C1318 1.392 . S
C1317 C1321 1.495 . S
C1318 C1317 1.392 . S
C1318 C1319 1.385 . S
C1318 C1320 1.478 . S
C1319 H1313 0.930 . S
C1319 C1315 1.400 . S
C1319 C1318 1.385 . S
C1320 C1318 1.478 . S
C1320 C1322 1.381 . S
C1320 C1326 1.383 . S
C1321 C1317 1.495 . S
C1321 H1327 0.959 . S
C1321 H1328 0.961 . S
C1321 H1329 0.960 . S
C1322 C1320 1.381 . S
C1322 C1323 1.394 . S
C1322 H1330 0.930 . S
C1323 C1322 1.394 . S
C1323 C1324 1.383 . S
C1323 H1331 0.929 . S
C1324 C1323 1.383 . S
C1324 C1325 1.377 . S
C1325 H1309 0.930 . S
C1325 C1324 1.377 . S
C1325 C1326 1.379 . S
C1326 H1310 0.931 . S
C1326 C1320 1.383 . S
C1326 C1325 1.379 . S
H1327 C1321 0.959 . S
H1328 C1321 0.961 . S
H1329 C1321 0.960 . S
H1330 C1322 0.930 . S
H1331 C1323 0.929 . S
H1332 C1340 0.929 . S
H1333 C1342 0.930 . S
H1334 C1344 0.930 . S
H1335 C1347 0.929 . S
H1336 C1350 0.930 . S
H1337 C1352 0.960 . S
H1338 C1352 0.960 . S
H1339 C1352 0.960 . S
C1340 H1332 0.929 . S
C1340 C1341 1.377 . S
C1340 C1342 1.384 . S
C1341 C1340 1.377 . S
C1341 C1347 1.390 . S
C1342 H1333 0.930 . S
C1342 C1340 1.384 . S
C1342 C1343 1.372 . S
C1343 C1342 1.372 . S
C1343 C1344 1.400 . S
C1343 C1348 1.490 . S
C1344 H1334 0.930 . S
C1344 C1343 1.400 . S
C1344 C1347 1.386 . S
H1345 C1361 0.930 . S
H1346 C1362 0.931 . S
C1347 H1335 0.929 . S
C1347 C1341 1.390 . S
C1347 C1344 1.386 . S
C1348 C1343 1.490 . S
C1348 C1350 1.395 . S
C1348 C1351 1.403 . S
H1349 C1355 0.930 . S
C1350 H1336 0.930 . S
C1350 C1348 1.395 . S
C1350 C1353 1.403 . S
C1351 C1348 1.403 . S
C1351 C1352 1.524 . S
C1351 C1355 1.400 . S
C1352 H1337 0.960 . S
C1352 H1338 0.960 . S
C1352 H1339 0.960 . S
C1352 C1351 1.524 . S
C1353 C1350 1.403 . S
C1353 C1354 1.392 . S
C1353 C1357 1.495 . S
C1354 C1353 1.392 . S
C1354 C1355 1.385 . S
C1354 C1356 1.478 . S
C1355 H1349 0.930 . S
C1355 C1351 1.400 . S
C1355 C1354 1.385 . S
C1356 C1354 1.478 . S
C1356 C1358 1.381 . S
C1356 C1362 1.383 . S
C1357 C1353 1.495 . S
C1357 H1363 0.959 . S
C1357 H1364 0.961 . S
C1357 H1365 0.960 . S
C1358 C1356 1.381 . S
C1358 C1359 1.394 . S
C1358 H1366 0.930 . S
C1359 C1358 1.394 . S
C1359 C1360 1.383 . S
C1359 H1367 0.929 . S
C1360 C1359 1.383 . S
C1360 C1361 1.377 . S
C1361 H1345 0.930 . S
C1361 C1360 1.377 . S
C1361 C1362 1.379 . S
C1362 H1346 0.931 . S
C1362 C1356 1.383 . S
C1362 C1361 1.379 . S
H1363 C1357 0.959 . S
H1364 C1357 0.961 . S
H1365 C1357 0.960 . S
H1366 C1358 0.930 . S
H1367 C1359 0.929 . S
H1368 C1376 0.929 . S
H1369 C1378 0.930 . S
H1370 C1380 0.930 . S
H1371 C1383 0.929 . S
H1372 C1386 0.930 . S
H1373 C1388 0.960 . S
H1374 C1388 0.960 . S
H1375 C1388 0.960 . S
C1376 H1368 0.929 . S
C1376 C1377 1.377 . S
C1376 C1378 1.384 . S
C1377 C1376 1.377 . S
C1377 C1383 1.390 . S
C1378 H1369 0.930 . S
C1378 C1376 1.384 . S
C1378 C1379 1.372 . S
C1379 C1378 1.372 . S
C1379 C1380 1.400 . S
C1379 C1384 1.490 . S
C1380 H1370 0.930 . S
C1380 C1379 1.400 . S
C1380 C1383 1.386 . S
H1381 C1397 0.930 . S
H1382 C1398 0.931 . S
C1383 H1371 0.929 . S
C1383 C1377 1.390 . S
C1383 C1380 1.386 . S
C1384 C1379 1.490 . S
C1384 C1386 1.395 . S
C1384 C1387 1.403 . S
H1385 C1391 0.930 . S
C1386 H1372 0.930 . S
C1386 C1384 1.395 . S
C1386 C1389 1.403 . S
C1387 C1384 1.403 . S
C1387 C1388 1.524 . S
C1387 C1391 1.400 . S
C1388 H1373 0.960 . S
C1388 H1374 0.960 . S
C1388 H1375 0.960 . S
C1388 C1387 1.524 . S
C1389 C1386 1.403 . S
C1389 C1390 1.392 . S
C1389 C1393 1.495 . S
C1390 C1389 1.392 . S
C1390 C1391 1.385 . S
C1390 C1392 1.478 . S
C1391 H1385 0.930 . S
C1391 C1387 1.400 . S
C1391 C1390 1.385 . S
C1392 C1390 1.478 . S
C1392 C1394 1.381 . S
C1392 C1398 1.383 . S
C1393 C1389 1.495 . S
C1393 H1399 0.959 . S
C1393 H1400 0.961 . S
C1393 H1401 0.960 . S
C1394 C1392 1.381 . S
C1394 C1395 1.394 . S
C1394 H1402 0.930 . S
C1395 C1394 1.394 . S
C1395 C1396 1.383 . S
C1395 H1403 0.929 . S
C1396 C1395 1.383 . S
C1396 C1397 1.377 . S
C1397 H1381 0.930 . S
C1397 C1396 1.377 . S
C1397 C1398 1.379 . S
C1398 H1382 0.931 . S
C1398 C1392 1.383 . S
C1398 C1397 1.379 . S
H1399 C1393 0.959 . S
H1400 C1393 0.961 . S
H1401 C1393 0.960 . S
H1402 C1394 0.930 . S
H1403 C1395 0.929 . S
H1404 C1412 0.929 . S
H1405 C1414 0.930 . S
H1406 C1416 0.930 . S
H1407 C1419 0.929 . S
H1408 C1422 0.930 . S
H1409 C1424 0.960 . S
H1410 C1424 0.960 . S
H1411 C1424 0.960 . S
C1412 H1404 0.929 . S
C1412 C1413 1.377 . S
C1412 C1414 1.384 . S
C1413 C1412 1.377 . S
C1413 C1419 1.390 . S
C1414 H1405 0.930 . S
C1414 C1412 1.384 . S
C1414 C1415 1.372 . S
C1415 C1414 1.372 . S
C1415 C1416 1.400 . S
C1415 C1420 1.490 . S
C1416 H1406 0.930 . S
C1416 C1415 1.400 . S
C1416 C1419 1.386 . S
H1417 C1433 0.930 . S
H1418 C1434 0.931 . S
C1419 H1407 0.929 . S
C1419 C1413 1.390 . S
C1419 C1416 1.386 . S
C1420 C1415 1.490 . S
C1420 C1422 1.395 . S
C1420 C1423 1.403 . S
H1421 C1427 0.930 . S
C1422 H1408 0.930 . S
C1422 C1420 1.395 . S
C1422 C1425 1.403 . S
C1423 C1420 1.403 . S
C1423 C1424 1.524 . S
C1423 C1427 1.400 . S
C1424 H1409 0.960 . S
C1424 H1410 0.960 . S
C1424 H1411 0.960 . S
C1424 C1423 1.524 . S
C1425 C1422 1.403 . S
C1425 C1426 1.392 . S
C1425 C1429 1.495 . S
C1426 C1425 1.392 . S
C1426 C1427 1.385 . S
C1426 C1428 1.478 . S
C1427 H1421 0.930 . S
C1427 C1423 1.400 . S
C1427 C1426 1.385 . S
C1428 C1426 1.478 . S
C1428 C1430 1.381 . S
C1428 C1434 1.383 . S
C1429 C1425 1.495 . S
C1429 H1435 0.959 . S
C1429 H1436 0.961 . S
C1429 H1437 0.960 . S
C1430 C1428 1.381 . S
C1430 C1431 1.394 . S
C1430 H1438 0.930 . S
C1431 C1430 1.394 . S
C1431 C1432 1.383 . S
C1431 H1439 0.929 . S
C1432 C1431 1.383 . S
C1432 C1433 1.377 . S
C1433 H1417 0.930 . S
C1433 C1432 1.377 . S
C1433 C1434 1.379 . S
C1434 H1418 0.931 . S
C1434 C1428 1.383 . S
C1434 C1433 1.379 . S
H1435 C1429 0.959 . S
H1436 C1429 0.961 . S
H1437 C1429 0.960 . S
H1438 C1430 0.930 . S
H1439 C1431 0.929 . S
H1440 C1448 0.929 . S
H1441 C1450 0.930 . S
H1442 C1452 0.930 . S
H1443 C1455 0.929 . S
H1444 C1458 0.930 . S
H1445 C1460 0.960 . S
H1446 C1460 0.960 . S
H1447 C1460 0.960 . S
C1448 H1440 0.929 . S
C1448 C1449 1.377 . S
C1448 C1450 1.384 . S
C1449 C1448 1.377 . S
C1449 C1455 1.390 . S
C1450 H1441 0.930 . S
C1450 C1448 1.384 . S
C1450 C1451 1.372 . S
C1451 C1450 1.372 . S
C1451 C1452 1.400 . S
C1451 C1456 1.490 . S
C1452 H1442 0.930 . S
C1452 C1451 1.400 . S
C1452 C1455 1.386 . S
H1453 C1469 0.930 . S
H1454 C1470 0.931 . S
C1455 H1443 0.929 . S
C1455 C1449 1.390 . S
C1455 C1452 1.386 . S
C1456 C1451 1.490 . S
C1456 C1458 1.395 . S
C1456 C1459 1.403 . S
H1457 C1463 0.930 . S
C1458 H1444 0.930 . S
C1458 C1456 1.395 . S
C1458 C1461 1.403 . S
C1459 C1456 1.403 . S
C1459 C1460 1.524 . S
C1459 C1463 1.400 . S
C1460 H1445 0.960 . S
C1460 H1446 0.960 . S
C1460 H1447 0.960 . S
C1460 C1459 1.524 . S
C1461 C1458 1.403 . S
C1461 C1462 1.392 . S
C1461 C1465 1.495 . S
C1462 C1461 1.392 . S
C1462 C1463 1.385 . S
C1462 C1464 1.478 . S
C1463 H1457 0.930 . S
C1463 C1459 1.400 . S
C1463 C1462 1.385 . S
C1464 C1462 1.478 . S
C1464 C1466 1.381 . S
C1464 C1470 1.383 . S
C1465 C1461 1.495 . S
C1465 H1471 0.959 . S
C1465 H1472 0.961 . S
C1465 H1473 0.960 . S
C1466 C1464 1.381 . S
C1466 C1467 1.394 . S
C1466 H1474 0.930 . S
C1467 C1466 1.394 . S
C1467 C1468 1.383 . S
C1467 H1475 0.929 . S
C1468 C1467 1.383 . S
C1468 C1469 1.377 . S
C1469 H1453 0.930 . S
C1469 C1468 1.377 . S
C1469 C1470 1.379 . S
C1470 H1454 0.931 . S
C1470 C1464 1.383 . S
C1470 C1469 1.379 . S
H1471 C1465 0.959 . S
H1472 C1465 0.961 . S
H1473 C1465 0.960 . S
H1474 C1466 0.930 . S
H1475 C1467 0.929 . S
C405 C172 1.330 . S
C424 N13 1.397 . S
C441 C7 1.338 . S
C460 N46 1.393 . S
C477 C40 1.324 . S
C496 N79 1.410 . S
C513 N112 1.407 . S
C532 C73 1.324 . S
C549 N145 1.406 . S
C568 C106 1.345 . S
C585 C139 1.328 . S
C604 N178 1.411 . S
C621 C238 1.338 . S
C640 N211 1.398 . S
C657 C271 1.333 . S
C676 N244 1.407 . S
C693 C304 1.329 . S
C712 N277 1.399 . S
C729 C337 1.337 . S
C748 N310 1.401 . S
C765 C370 1.328 . S
C784 N343 1.400 . S
C801 C205 1.337 . S
C820 N376 1.393 . S
C837 N266 1.262 . S
C856 N2 1.235 . S
C873 N35 1.252 . S
C892 N299 1.283 . S
C909 N68 1.256 . S
C928 N332 1.268 . S
C945 N101 1.248 . S
C964 N365 1.275 . S
C981 N134 1.258 . S
C1000 N200 1.222 . S
C1017 N233 1.248 . S
C1036 N167 1.275 . S
C1053 C318 1.089 . S
C1072 C21 1.083 . S
C1089 C351 1.093 . S
C1108 C54 1.084 . S
C1125 C87 1.090 . S
C1144 C384 1.096 . S
C1161 C120 1.091 . S
C1180 C219 1.078 . S
C1197 C153 1.090 . S
C1216 C252 1.097 . S
C1233 C285 1.090 . S
C1252 C186 1.098 . S
C1269 C18 0.796 . S
C1288 C216 0.793 . S
C1305 C249 0.788 . S
C1324 C51 0.760 . S
C1341 C84 0.783 . S
C1360 C282 0.770 . S
C1377 C315 0.787 . S
C1396 C117 0.758 . S
C1413 C348 0.795 . S
C1432 C150 0.794 . S
C1449 C381 0.784 . S
C1468 C183 0.782 . S
