# Generated by pormake.
# Topology svf, (7)-cn, num edge types: 1
# Building blocks:
#     Node 0, Type 0, BuildingBlock: HICVOG_clean_sbu_0, # of connection points: 7
#     Node 1, Type 0, BuildingBlock: HICVOG_clean_sbu_0, # of connection points: 7
#     Node 2, Type 0, BuildingBlock: HICVOG_clean_sbu_0, # of connection points: 7
#     Node 3, Type 0, BuildingBlock: HICVOG_clean_sbu_0, # of connection points: 7
#     Node 4, Type 0, BuildingBlock: HICVOG_clean_sbu_0, # of connection points: 7
#     Node 5, Type 0, BuildingBlock: HICVOG_clean_sbu_0, # of connection points: 7
#     Node 6, Type 0, BuildingBlock: HICVOG_clean_sbu_0, # of connection points: 7
#     Node 7, Type 0, BuildingBlock: HICVOG_clean_sbu_0, # of connection points: 7
#     Edge 8, Type (0, 0), BuildingBlock: ZUJKAS_clean_linker_0, # of connection points: 2
#     Edge 9, Type (0, 0), BuildingBlock: ZUJKAS_clean_linker_0, # of connection points: 2
#     Edge 10, Type (0, 0), BuildingBlock: ZUJKAS_clean_linker_0, # of connection points: 2
#     Edge 11, Type (0, 0), BuildingBlock: ZUJKAS_clean_linker_0, # of connection points: 2
#     Edge 12, Type (0, 0), BuildingBlock: ZUJKAS_clean_linker_0, # of connection points: 2
#     Edge 13, Type (0, 0), BuildingBlock: ZUJKAS_clean_linker_0, # of connection points: 2
#     Edge 14, Type (0, 0), BuildingBlock: ZUJKAS_clean_linker_0, # of connection points: 2
#     Edge 15, Type (0, 0), BuildingBlock: ZUJKAS_clean_linker_0, # of connection points: 2
#     Edge 16, Type (0, 0), BuildingBlock: ZUJKAS_clean_linker_0, # of connection points: 2
#     Edge 17, Type (0, 0), BuildingBlock: ZUJKAS_clean_linker_0, # of connection points: 2
#     Edge 18, Type (0, 0), BuildingBlock: ZUJKAS_clean_linker_0, # of connection points: 2
#     Edge 19, Type (0, 0), BuildingBlock: ZUJKAS_clean_linker_0, # of connection points: 2
#     Edge 20, Type (0, 0), BuildingBlock: ZUJKAS_clean_linker_0, # of connection points: 2
#     Edge 21, Type (0, 0), BuildingBlock: ZUJKAS_clean_linker_0, # of connection points: 2
#     Edge 22, Type (0, 0), BuildingBlock: ZUJKAS_clean_linker_0, # of connection points: 2
#     Edge 23, Type (0, 0), BuildingBlock: ZUJKAS_clean_linker_0, # of connection points: 2
#     Edge 24, Type (0, 0), BuildingBlock: ZUJKAS_clean_linker_0, # of connection points: 2
#     Edge 25, Type (0, 0), BuildingBlock: ZUJKAS_clean_linker_0, # of connection points: 2
#     Edge 26, Type (0, 0), BuildingBlock: ZUJKAS_clean_linker_0, # of connection points: 2
#     Edge 27, Type (0, 0), BuildingBlock: ZUJKAS_clean_linker_0, # of connection points: 2
#     Edge 28, Type (0, 0), BuildingBlock: ZUJKAS_clean_linker_0, # of connection points: 2
#     Edge 29, Type (0, 0), BuildingBlock: ZUJKAS_clean_linker_0, # of connection points: 2
#     Edge 30, Type (0, 0), BuildingBlock: ZUJKAS_clean_linker_0, # of connection points: 2
#     Edge 31, Type (0, 0), BuildingBlock: ZUJKAS_clean_linker_0, # of connection points: 2
#     Edge 32, Type (0, 0), BuildingBlock: ZUJKAS_clean_linker_0, # of connection points: 2
#     Edge 33, Type (0, 0), BuildingBlock: ZUJKAS_clean_linker_0, # of connection points: 2
#     Edge 34, Type (0, 0), BuildingBlock: ZUJKAS_clean_linker_0, # of connection points: 2
#     Edge 35, Type (0, 0), BuildingBlock: ZUJKAS_clean_linker_0, # of connection points: 2
# Relax obj value: 0.311
# Max RMSD: 0.189
# Mean RMSD: 0.189
data_MOF--net-svf--node1-HICVOG_clean_sbu_0--edge1-ZUJKAS_clean_linker_0
_symmetry_space_group_name_H-M    P1
_symmetry_Int_Tables_number       1
_symmetry_cell_setting            triclinic
loop_
_symmetry_equiv_pos_as_xyz
'x, y, z'
_cell_length_a     42.745827
_cell_length_b     42.762941
_cell_length_c     31.469471
_cell_angle_alpha  89.573859
_cell_angle_beta   89.725091
_cell_angle_gamma 90.05294
loop_
_atom_site_label
_atom_site_type_symbol
_atom_site_fract_x
_atom_site_fract_y
_atom_site_fract_z
_atom_type_partial_charge
Zn0 Zn 0.19057 0.34951 0.98739 0.0
C1 C 0.23188 0.29484 0.07471 0.0
N2 N 0.246 0.28106 0.04118 0.0
C3 C 0.23248 0.29526 1.00742 0.0
N4 N 0.21113 0.31676 1.01991 0.0
N5 N 0.21074 0.31648 0.06193 0.0
C6 C 0.21666 0.36613 0.15502 0.0
O7 O 0.23333 0.3701 0.12019 0.0
O8 O 0.17758 0.33588 0.92881 0.0
Zn9 Zn 0.17871 0.33826 0.0942 0.0
N10 N 0.21939 0.38444 0.98855 0.0
C11 C 0.26985 0.40444 1.00519 0.0
C12 C 0.24998 0.37923 0.99816 0.0
C13 C 0.20779 0.41396 0.98648 0.0
N14 N 0.25822 0.4339 1.00335 0.0
C15 C 0.22754 0.43945 0.99471 0.0
O16 O 0.16373 0.381 0.07273 0.0
C17 C 0.14596 0.38456 0.04082 0.0
O18 O 0.14893 0.36653 1.00919 0.0
H19 H 0.25886 0.35572 1.00131 0.0
H20 H 0.1834 0.41739 0.97878 0.0
C21 C 0.11365 0.32483 0.09516 0.0
C22 C 0.08689 0.30718 0.08557 0.0
C23 C 0.1192 0.26313 0.07241 0.0
C24 C 0.14566 0.28103 0.08068 0.0
N25 N 0.14237 0.31149 0.09206 0.0
N26 N 0.09054 0.27659 0.07488 0.0
H27 H 0.11194 0.34903 0.10455 0.0
C28 C 0.15986 0.31197 0.92828 0.0
O29 O 0.15611 0.29571 0.96355 0.0
O30 O 0.19226 0.34915 0.15343 0.0
H31 H 0.16861 0.27085 0.07698 0.0
H32 H 0.29423 0.40065 1.01268 0.0
H33 H 0.12142 0.23888 0.06336 0.0
Zn34 Zn 0.69123 0.16344 0.10358 0.0
C35 C 0.74264 0.19994 1.00624 0.0
N36 N 0.7603 0.20999 1.03912 0.0
C37 C 0.74344 0.20085 0.07341 0.0
N38 N 0.71716 0.18559 0.06226 0.0
N39 N 0.71635 0.18504 1.02026 0.0
C40 C 0.70986 0.12855 0.9389 0.0
O41 O 0.71994 0.12285 0.97758 0.0
O42 O 0.66548 0.19258 0.13924 0.0
Zn43 Zn 0.6797 0.17148 0.98912 0.0
N44 N 0.72071 0.14286 0.13984 0.0
C45 C 0.76708 0.11272 0.14513 0.0
C46 C 0.74411 0.12683 0.12053 0.0
C47 C 0.71898 0.14528 0.18281 0.0
N48 N 0.76519 0.11465 0.18804 0.0
C49 C 0.74169 0.13037 0.2081 0.0
O50 O 0.65416 0.13583 1.0146 0.0
C51 C 0.6484 0.12116 0.04902 0.0
O52 O 0.66145 0.1292 0.08351 0.0
H53 H 0.74509 0.12552 0.08623 0.0
H54 H 0.70016 0.15876 0.19637 0.0
C55 C 0.62086 0.20269 0.9818 0.0
C56 C 0.60033 0.22823 0.98536 0.0
C57 C 0.64367 0.26163 0.99753 0.0
C58 C 0.66383 0.2362 0.99464 0.0
N59 N 0.65211 0.20729 0.98625 0.0
N60 N 0.61251 0.2571 0.99275 0.0
H61 H 0.6123 0.17935 0.97563 0.0
C62 C 0.63794 0.20005 0.12809 0.0
O63 O 0.62775 0.19114 0.09075 0.0
O64 O 0.69209 0.15205 0.93298 0.0
H65 H 0.68856 0.23951 0.99972 0.0
H66 H 0.78611 0.10009 0.13037 0.0
H67 H 0.65268 0.28477 1.00392 0.0
Zn68 Zn 0.8638 0.66729 0.98272 0.0
C69 C 0.81823 0.71397 0.07589 0.0
N70 N 0.80227 0.72632 0.04283 0.0
C71 C 0.81744 0.71428 1.00887 0.0
N72 N 0.84139 0.69539 1.02076 0.0
N73 N 0.8416 0.69497 0.06282 0.0
C74 C 0.82379 0.63646 0.1494 0.0
O75 O 0.80595 0.63612 0.11554 0.0
O76 O 0.89267 0.68878 0.94069 0.0
Zn77 Zn 0.87121 0.67434 0.10027 0.0
N78 N 0.83127 0.64801 0.95041 0.0
C79 C 0.77927 0.62868 0.94721 0.0
C80 C 0.80458 0.63919 0.9708 0.0
C81 C 0.83394 0.64656 0.90748 0.0
N82 N 0.78184 0.62727 0.90428 0.0
C83 C 0.80851 0.63597 0.88337 0.0
O84 O 0.90105 0.64176 0.07587 0.0
C85 C 0.90627 0.62656 0.04193 0.0
O86 O 0.89192 0.63325 1.00768 0.0
H87 H 0.80281 0.64107 1.00499 0.0
H88 H 0.85579 0.65346 0.89283 0.0
C89 C 0.89598 0.70836 0.16865 0.0
C90 C 0.90827 0.73483 0.18838 0.0
C91 C 0.9189 0.75732 0.12072 0.0
C92 C 0.90639 0.73095 0.10116 0.0
N93 N 0.89487 0.70725 0.12561 0.0
N94 N 0.91936 0.75877 0.16384 0.0
H95 H 0.88623 0.68936 0.18733 0.0
C96 C 0.91155 0.7115 0.94504 0.0
O97 O 0.91253 0.72672 0.9811 0.0
O98 O 0.84956 0.6513 0.14843 0.0
H99 H 0.90464 0.72989 0.06696 0.0
H100 H 0.75771 0.62179 0.96281 0.0
H101 H 0.92773 0.77665 0.10181 0.0
Zn102 Zn 0.36512 0.84082 0.98125 0.0
C103 C 0.32808 0.78605 0.07508 0.0
N104 N 0.31916 0.7682 0.04195 0.0
C105 C 0.32804 0.78544 1.0078 0.0
N106 N 0.34234 0.81232 1.01951 0.0
N107 N 0.34225 0.81284 0.0616 0.0
C108 C 0.39108 0.81474 0.15151 0.0
O109 O 0.39858 0.80282 0.11447 0.0
O110 O 0.33792 0.86951 0.94632 0.0
Zn111 Zn 0.35449 0.8492 0.09481 0.0
N112 N 0.38704 0.81457 0.94232 0.0
C113 C 0.41867 0.77018 0.92876 0.0
C114 C 0.40209 0.78879 0.95708 0.0
C115 C 0.38781 0.82271 0.90059 0.0
N116 N 0.41989 0.77854 0.8871 0.0
C117 C 0.40508 0.80452 0.87189 0.0
O118 O 0.3917 0.87494 0.07416 0.0
C119 C 0.40687 0.8812 1.04035 0.0
O120 O 0.3989 0.86919 1.0052 0.0
H121 H 0.40117 0.78285 0.99054 0.0
H122 H 0.3749 0.84307 0.89048 0.0
C123 C 0.32274 0.90804 0.1002 0.0
C124 C 0.29717 0.92849 0.09504 0.0
C125 C 0.26472 0.88495 0.07951 0.0
C126 C 0.29009 0.86495 0.08442 0.0
N127 N 0.31853 0.87679 0.09511 0.0
N128 N 0.26884 0.91608 0.08488 0.0
H129 H 0.34602 0.91663 0.10654 0.0
C130 C 0.32284 0.89335 0.95872 0.0
O131 O 0.32195 0.90003 0.99934 0.0
O132 O 0.37001 0.83573 0.1529 0.0
H133 H 0.28718 0.84025 0.07878 0.0
H134 H 0.43073 0.74945 0.93978 0.0
H135 H 0.24199 0.87587 0.07101 0.0
Zn136 Zn 0.19101 0.6628 0.60311 0.0
C137 C 0.24685 0.69784 0.50941 0.0
N138 N 0.26289 0.70903 0.54303 0.0
C139 C 0.24539 0.69933 0.57645 0.0
N140 N 0.21992 0.68319 0.56392 0.0
N141 N 0.22059 0.68221 0.52189 0.0
C142 C 0.21234 0.62211 0.44259 0.0
O143 O 0.21841 0.6155 0.48256 0.0
O144 O 0.16366 0.69308 0.63454 0.0
Zn145 Zn 0.18476 0.66921 0.48766 0.0
N146 N 0.21631 0.64293 0.64542 0.0
C147 C 0.26089 0.61373 0.66641 0.0
C148 C 0.24291 0.62754 0.6346 0.0
C149 C 0.20673 0.64497 0.68643 0.0
N150 N 0.25105 0.61531 0.70744 0.0
C151 C 0.22417 0.63039 0.71856 0.0
O152 O 0.15645 0.63529 0.51231 0.0
C153 C 0.14939 0.62107 0.54662 0.0
O154 O 0.16181 0.62892 0.58158 0.0
H155 H 0.25016 0.62634 0.60167 0.0
H156 H 0.18582 0.65805 0.69348 0.0
C157 C 0.1275 0.70341 0.47838 0.0
C158 C 0.10908 0.73068 0.47728 0.0
C159 C 0.15536 0.76142 0.47635 0.0
C160 C 0.17339 0.73438 0.47748 0.0
N161 N 0.15923 0.70593 0.4784 0.0
N162 N 0.12376 0.75895 0.47631 0.0
H163 H 0.11695 0.68047 0.48063 0.0
C164 C 0.13974 0.7076 0.6211 0.0
O165 O 0.13237 0.70609 0.5807 0.0
O166 O 0.19875 0.64785 0.43382 0.0
H167 H 0.19841 0.73617 0.47893 0.0
H168 H 0.28232 0.60159 0.65857 0.0
H169 H 0.16636 0.78421 0.47589 0.0
Zn170 Zn 0.35637 0.16265 0.48085 0.0
C171 C 0.31578 0.21233 0.57503 0.0
N172 N 0.30202 0.22709 0.54193 0.0
C173 C 0.3153 0.21298 0.50812 0.0
N174 N 0.33623 0.19093 0.52 0.0
N175 N 0.33616 0.19006 0.56199 0.0
C176 C 0.32329 0.12009 0.63648 0.0
O177 O 0.3115 0.11621 0.5984 0.0
O178 O 0.38385 0.18617 0.43957 0.0
Zn179 Zn 0.36541 0.16768 0.5979 0.0
N180 N 0.32228 0.14506 0.44984 0.0
C181 C 0.26885 0.12959 0.44929 0.0
C182 C 0.29586 0.13719 0.4716 0.0
C183 C 0.32306 0.14525 0.40674 0.0
N184 N 0.26955 0.12979 0.40616 0.0
C185 C 0.29605 0.13726 0.38415 0.0
O186 O 0.3969 0.13779 0.57084 0.0
C187 C 0.40144 0.12264 0.53664 0.0
O188 O 0.38545 0.12839 0.5034 0.0
H189 H 0.2955 0.13802 0.50595 0.0
H190 H 0.34423 0.15237 0.39034 0.0
C191 C 0.38854 0.19861 0.67035 0.0
C192 C 0.40028 0.22424 0.69292 0.0
C193 C 0.40874 0.25116 0.62745 0.0
C194 C 0.39678 0.22574 0.60538 0.0
N195 N 0.38698 0.20008 0.62735 0.0
N196 N 0.4102 0.24982 0.6705 0.0
H197 H 0.3807 0.17758 0.68632 0.0
C198 C 0.40987 0.19739 0.45151 0.0
O199 O 0.41761 0.19512 0.49177 0.0
O200 O 0.34419 0.14074 0.64225 0.0
H201 H 0.39458 0.22666 0.57117 0.0
H202 H 0.24746 0.12374 0.46606 0.0
H203 H 0.41656 0.27189 0.61058 0.0
Zn204 Zn 0.86509 0.34258 0.47899 0.0
C205 C 0.82606 0.28824 0.57231 0.0
N206 N 0.8143 0.27225 0.53917 0.0
C207 C 0.82466 0.28873 0.50511 0.0
N208 N 0.84197 0.31387 0.51701 0.0
N209 N 0.84286 0.31353 0.55915 0.0
C210 C 0.90341 0.3182 0.64014 0.0
O211 O 0.91023 0.3118 0.60037 0.0
O212 O 0.83813 0.37464 0.44885 0.0
Zn213 Zn 0.8579 0.34818 0.59401 0.0
N214 N 0.88362 0.31708 0.43609 0.0
C215 C 0.90606 0.2693 0.41341 0.0
C216 C 0.89355 0.28771 0.44552 0.0
C217 C 0.88617 0.32919 0.39628 0.0
N218 N 0.90837 0.28126 0.37346 0.0
C219 C 0.89872 0.31082 0.36361 0.0
O220 O 0.89335 0.37491 0.57056 0.0
C221 C 0.90872 0.38089 0.53687 0.0
O222 O 0.90103 0.36859 0.50182 0.0
H223 H 0.89152 0.27866 0.4776 0.0
H224 H 0.87881 0.35302 0.391 0.0
C225 C 0.82846 0.40708 0.60585 0.0
C226 C 0.80311 0.42801 0.60657 0.0
C227 C 0.76811 0.38493 0.60324 0.0
C228 C 0.79334 0.36443 0.60171 0.0
N229 N 0.82297 0.37586 0.60323 0.0
N230 N 0.77355 0.41611 0.60558 0.0
H231 H 0.85237 0.41525 0.60711 0.0
C232 C 0.82851 0.40041 0.46391 0.0
O233 O 0.83314 0.40659 0.5042 0.0
O234 O 0.87814 0.33282 0.64817 0.0
H235 H 0.78929 0.33974 0.59829 0.0
H236 H 0.91393 0.24575 0.42009 0.0
H237 H 0.74437 0.37619 0.60206 0.0
Zn238 Zn 0.68603 0.84001 0.47762 0.0
C239 C 0.73659 0.80267 0.57521 0.0
N240 N 0.75453 0.79228 0.54271 0.0
C241 C 0.73861 0.80189 0.50805 0.0
N242 N 0.7124 0.81773 0.51862 0.0
N243 N 0.71108 0.81837 0.56068 0.0
C244 C 0.70744 0.87585 0.64243 0.0
O245 O 0.71724 0.88158 0.60348 0.0
O246 O 0.66025 0.81181 0.44072 0.0
Zn247 Zn 0.6756 0.83425 0.5926 0.0
N248 N 0.71408 0.86434 0.44335 0.0
C249 C 0.74511 0.87577 0.38248 0.0
C250 C 0.72535 0.85551 0.40489 0.0
C251 C 0.72117 0.89258 0.4601 0.0
N252 N 0.75118 0.90458 0.39847 0.0
C253 C 0.7393 0.91389 0.43663 0.0
O254 O 0.65164 0.8712 0.56851 0.0
C255 C 0.64381 0.88337 0.53326 0.0
O256 O 0.65469 0.87274 0.49862 0.0
H257 H 0.71898 0.83314 0.39174 0.0
H258 H 0.7119 0.8984 0.49105 0.0
C259 C 0.61473 0.80975 0.59528 0.0
C260 C 0.5913 0.78746 0.58827 0.0
C261 C 0.63013 0.74813 0.58283 0.0
C262 C 0.65341 0.77063 0.58814 0.0
N263 N 0.64519 0.80093 0.59494 0.0
N264 N 0.59964 0.75702 0.58296 0.0
H265 H 0.60895 0.83408 0.60016 0.0
C266 C 0.63402 0.80305 0.4559 0.0
O267 O 0.62782 0.80872 0.49602 0.0
O268 O 0.68916 0.85272 0.64866 0.0
H269 H 0.67775 0.76406 0.58567 0.0
H270 H 0.75471 0.86908 0.35201 0.0
H271 H 0.63625 0.7239 0.57774 0.0
H272 H 0.12658 0.42178 0.10689 0.0
H273 H 0.08566 0.46185 0.10645 0.0
H274 H 0.06948 0.44497 0.97348 0.0
H275 H 0.10975 0.40438 0.97396 0.0
H276 H 0.07995 0.51611 0.0639 0.0
H277 H 0.98187 0.43915 1.01851 0.0
H278 H 0.02027 0.42396 1.02986 0.0
H279 H 1.0118 0.44032 0.9784 0.0
C280 C 0.11427 0.42649 0.07753 0.0
C281 C 0.12143 0.40953 1.04054 0.0
C282 C 0.09081 0.4495 0.07732 0.0
C283 C 0.07383 0.45625 1.04014 0.0
C284 C 0.08146 0.4398 1.00294 0.0
H285 H 0.92628 0.59041 0.97493 0.0
H286 H 0.96679 0.54995 0.9748 0.0
C287 C 0.10473 0.41662 1.00321 0.0
C288 C 0.04874 0.48086 1.04018 0.0
H289 H 0.97156 0.49419 1.01713 0.0
C290 C 0.05621 0.51118 0.05394 0.0
C291 C 0.01764 0.47479 1.02688 0.0
C292 C 1.00732 0.44271 1.01299 0.0
C293 C 0.03386 0.53546 0.05419 0.0
C294 C 1.00274 0.52934 0.04116 0.0
C295 C 0.99528 0.49907 1.02723 0.0
C296 C 0.97767 0.55395 0.04161 0.0
C297 C 0.04411 0.56773 0.06735 0.0
C298 C 0.96959 0.56953 0.07932 0.0
C299 C 0.94639 0.5928 0.07951 0.0
C300 C 0.93034 0.60102 0.04201 0.0
C301 C 0.93804 0.58491 1.00445 0.0
C302 C 0.96129 0.56166 1.00431 0.0
H303 H 0.06987 0.57068 0.06444 0.0
H304 H 0.03255 0.58607 0.04783 0.0
H305 H 0.0376 0.57143 0.10111 0.0
H306 H 0.98116 0.56361 0.10883 0.0
H307 H 0.94108 0.60439 0.10916 0.0
H308 H 0.4331 0.9093 0.11016 0.0
H309 H 0.47468 0.94877 0.1117 0.0
H310 H 0.48244 0.94504 0.97528 0.0
H311 H 0.44087 0.90564 0.97335 0.0
H312 H 0.53775 0.94647 0.08102 0.0
H313 H 0.46971 0.039 0.99848 0.0
H314 H 0.45155 1.00456 1.02121 0.0
H315 H 0.47168 1.00234 0.97108 0.0
C316 C 0.44365 0.91676 0.08041 0.0
C317 C 0.43336 0.90419 0.04159 0.0
C318 C 0.46751 0.93939 0.08138 0.0
C319 C 0.4815 0.95036 0.04359 0.0
C320 C 0.47171 0.93747 1.00487 0.0
H321 H 0.62005 0.09397 0.98031 0.0
H322 H 0.581 0.05217 0.97993 0.0
C323 C 0.44799 0.91471 1.00386 0.0
C324 C 0.50627 0.9752 0.04467 0.0
H325 H 0.52308 0.0498 1.01139 0.0
C326 C 0.5345 0.96911 0.06592 0.0
C327 C 0.50221 1.00479 1.02492 0.0
C328 C 0.47208 1.01331 1.00291 0.0
C329 C 0.55888 0.99138 0.06716 0.0
C330 C 0.55478 0.0211 0.04757 0.0
C331 C 0.52646 0.02716 1.02642 0.0
C332 C 0.57949 0.04614 0.04824 0.0
C333 C 0.58918 0.9824 0.08839 0.0
C334 C 0.59184 0.05716 0.08675 0.0
C335 C 0.61449 0.08103 0.08707 0.0
C336 C 0.62516 0.09488 0.04888 0.0
C337 C 0.61259 0.08395 1.0104 0.0
C338 C 0.5901 0.05998 1.01012 0.0
H339 H 0.59207 0.9566 0.09011 0.0
H340 H 0.60962 0.99252 0.07126 0.0
H341 H 0.58915 0.99138 0.12138 0.0
H342 H 0.58358 0.04767 0.11676 0.0
H343 H 0.62327 0.08897 0.11736 0.0
H344 H 0.123 0.58922 0.61424 0.0
H345 H 0.08356 0.54761 0.61252 0.0
H346 H 0.08232 0.55277 0.47574 0.0
H347 H 0.12176 0.59425 0.47707 0.0
H348 H 0.02241 0.54963 0.57731 0.0
H349 H 0.09473 0.45875 0.49918 0.0
H350 H 0.11155 0.49308 0.52314 0.0
H351 H 0.09363 0.49571 0.47171 0.0
C352 C 0.11453 0.58141 0.58372 0.0
C353 C 0.12581 0.59516 0.54579 0.0
C354 C 0.09187 0.5576 0.58281 0.0
C355 C 0.08015 0.54664 0.54399 0.0
C356 C 0.09132 0.56033 0.5061 0.0
H357 H 0.94244 0.40596 0.47002 0.0
H358 H 0.98344 0.44594 0.47239 0.0
C359 C 0.11383 0.58425 0.50696 0.0
C360 C 0.05568 0.52156 0.54318 0.0
H361 H 0.04076 0.44751 0.50781 0.0
C362 C 0.02648 0.52724 0.56232 0.0
C363 C 0.06081 0.49235 0.52338 0.0
C364 C 0.09194 0.48436 0.50347 0.0
C365 C 1.00219 0.5049 0.56149 0.0
C366 C 1.00737 0.47553 0.54197 0.0
C367 C 0.03662 0.46988 0.52284 0.0
C368 C 0.98276 0.4505 0.54084 0.0
C369 C 0.97088 0.51346 0.58046 0.0
C370 C 0.96897 0.43899 0.5785 0.0
C371 C 0.94534 0.41619 0.57723 0.0
C372 C 0.93511 0.4039 0.53825 0.0
C373 C 0.94961 0.41478 0.50064 0.0
C374 C 0.97313 0.43774 0.50195 0.0
H375 H 0.96785 0.53922 0.58232 0.0
H376 H 0.95134 0.50365 0.56163 0.0
H377 H 0.96929 0.50387 0.61325 0.0
H378 H 0.97647 0.44764 0.60905 0.0
H379 H 0.93501 0.40829 0.60692 0.0
H380 H 0.61711 0.91333 0.60133 0.0
H381 H 0.57672 0.95368 0.60091 0.0
H382 H 0.57521 0.95205 0.464 0.0
H383 H 0.6163 0.9121 0.46411 0.0
H384 H 0.57244 1.01124 0.49194 0.0
H385 H 0.48498 0.94155 0.5819 0.0
H386 H 0.52093 0.94596 0.61033 0.0
H387 H 0.52048 0.92461 0.56122 0.0
C388 C 0.60831 0.92153 0.57102 0.0
C389 C 0.62006 0.90916 0.53273 0.0
C390 C 0.58487 0.94452 0.57085 0.0
C391 C 0.57211 0.9556 0.53246 0.0
C392 C 0.58432 0.94386 0.49414 0.0
H393 H 0.42369 0.09016 0.46745 0.0
H394 H 0.46472 0.05022 0.46562 0.0
C395 C 0.60792 0.92093 0.49425 0.0
C396 C 0.54644 0.97963 0.53231 0.0
H397 H 0.47349 0.9957 0.57233 0.0
C398 C 0.55074 1.00767 0.50929 0.0
C399 C 0.51788 0.97523 0.55481 0.0
C400 C 0.51059 0.94509 0.57808 0.0
C401 C 0.52786 0.03148 0.50902 0.0
C402 C 0.49956 0.02722 0.53203 0.0
C403 C 0.49516 0.99916 0.55484 0.0
C404 C 0.47434 0.05162 0.53301 0.0
C405 C 0.53451 0.06139 0.48493 0.0
C406 C 0.46538 0.06545 0.57159 0.0
C407 C 0.44186 0.08839 0.57276 0.0
C408 C 0.42631 0.09789 0.53541 0.0
C409 C 0.43505 0.08362 0.49688 0.0
C410 C 0.45873 0.06084 0.49572 0.0
H411 H 0.5598 0.06407 0.4774 0.0
H412 H 0.52147 0.06122 0.45452 0.0
H413 H 0.52668 0.08203 0.50336 0.0
H414 H 0.47685 0.05871 0.60087 0.0
H415 H 0.43582 0.09863 0.60308 0.0
H416 H 0.25475 0.57506 0.44721 0.0
H417 H 0.26135 0.53152 0.39829 0.0
H418 H 0.19085 0.57106 0.31628 0.0
H419 H 0.18494 0.61537 0.36461 0.0
H420 H 0.21885 0.48914 0.38024 0.0
H421 H 0.25595 0.54715 0.23044 0.0
H422 H 0.2557 0.56718 0.2807 0.0
H423 H 0.22011 0.56292 0.25091 0.0
C424 C 0.24111 0.57482 0.41829 0.0
C425 C 0.21933 0.59862 0.40969 0.0
C426 C 0.24484 0.54986 0.39041 0.0
C427 C 0.22675 0.548 0.35344 0.0
C428 C 0.2056 0.57226 0.34409 0.0
H429 H 0.17623 0.37957 0.22004 0.0
H430 H 0.18089 0.42208 0.27095 0.0
C431 C 0.20216 0.59756 0.37178 0.0
C432 C 0.22837 0.51951 0.32672 0.0
H433 H 0.23849 0.4942 0.22498 0.0
C434 C 0.22345 0.49025 0.34633 0.0
C435 C 0.23476 0.52082 0.28259 0.0
C436 C 0.24226 0.55118 0.25999 0.0
C437 C 0.22411 0.46241 0.32298 0.0
C438 C 0.22896 0.46387 0.27852 0.0
C439 C 0.23454 0.49305 0.25903 0.0
C440 C 0.22762 0.43566 0.25127 0.0
C441 C 0.21999 0.43172 0.34635 0.0
C442 C 0.25236 0.4289 0.22332 0.0
C443 C 0.24959 0.40482 0.19378 0.0
C444 C 0.22201 0.38698 0.19161 0.0
C445 C 0.19792 0.39265 0.22115 0.0
C446 C 0.20058 0.41696 0.2504 0.0
H447 H 0.22693 0.4337 0.38021 0.0
H448 H 0.19496 0.42486 0.34563 0.0
H449 H 0.234 0.41285 0.33146 0.0
H450 H 0.27347 0.44295 0.22343 0.0
H451 H 0.26858 0.40103 0.17148 0.0
H452 H 0.46971 0.21744 0.46518 0.0
H453 H 0.50945 0.2301 0.41161 0.0
H454 H 0.44183 0.2158 0.31235 0.0
H455 H 0.40183 0.20352 0.36563 0.0
H456 H 0.52819 0.18732 0.35174 0.0
H457 H 0.4863 0.29535 0.27217 0.0
H458 H 0.47179 0.28258 0.32346 0.0
H459 H 0.45721 0.26512 0.27565 0.0
C460 C 0.46309 0.21763 0.432 0.0
C461 C 0.43266 0.20924 0.41967 0.0
C462 C 0.48584 0.22489 0.40144 0.0
C463 C 0.47855 0.22418 0.35802 0.0
C464 C 0.44784 0.21712 0.34568 0.0
H465 H 0.5746 0.2069 0.12096 0.0
H466 H 0.53745 0.21771 0.17823 0.0
C467 C 0.42506 0.20984 0.37621 0.0
C468 C 0.50376 0.22699 0.32568 0.0
H469 H 0.52584 0.26621 0.23543 0.0
C470 C 0.52798 0.20489 0.32669 0.0
C471 C 0.50323 0.24975 0.29286 0.0
C472 C 0.47839 0.27474 0.29107 0.0
C473 C 0.55104 0.2041 0.29489 0.0
C474 C 0.5503 0.22657 0.26164 0.0
C475 C 0.52644 0.24913 0.26106 0.0
C476 C 0.57294 0.22544 0.22582 0.0
C477 C 0.5751 0.17826 0.29618 0.0
C478 C 0.60523 0.22769 0.23312 0.0
C479 C 0.62656 0.22123 0.20055 0.0
C480 C 0.61591 0.21277 0.15998 0.0
C481 C 0.58358 0.21312 0.1519 0.0
C482 C 0.56228 0.21933 0.1846 0.0
H483 H 0.56805 0.15894 0.31801 0.0
H484 H 0.57899 0.16841 0.26404 0.0
H485 H 0.59765 0.18783 0.30761 0.0
H486 H 0.61394 0.23311 0.26448 0.0
H487 H 0.65134 0.22155 0.20768 0.0
H488 H 0.79746 0.45464 0.48355 0.0
H489 H 0.78346 0.49737 0.43484 0.0
H490 H 0.82264 0.44557 0.33012 0.0
H491 H 0.83487 0.40246 0.37782 0.0
H492 H 0.8181 0.53412 0.39257 0.0
H493 H 0.74643 0.47458 0.27351 0.0
H494 H 0.75657 0.45593 0.32315 0.0
H495 H 0.78272 0.45405 0.27798 0.0
C496 C 0.80234 0.45213 0.44993 0.0
C497 C 0.81703 0.42505 0.43453 0.0
C498 C 0.79442 0.4766 0.42211 0.0
C499 C 0.80134 0.47461 0.37844 0.0
C500 C 0.81584 0.4474 0.36319 0.0
H501 H 0.8634 0.6174 0.21179 0.0
H502 H 0.85279 0.58131 0.27003 0.0
C503 C 0.82313 0.42275 0.39072 0.0
C504 C 0.79638 0.50185 0.34935 0.0
H505 H 0.77527 0.52045 0.24776 0.0
C506 C 0.80809 0.53122 0.36124 0.0
C507 C 0.78248 0.4987 0.3088 0.0
C508 C 0.76602 0.46916 0.29544 0.0
C509 C 0.80833 0.55669 0.33279 0.0
C510 C 0.79789 0.55239 0.29056 0.0
C511 C 0.78406 0.52374 0.27969 0.0
C512 C 0.80342 0.57616 0.2564 0.0
C513 C 0.81998 0.58784 0.34849 0.0
C514 C 0.77951 0.58475 0.22802 0.0
C515 C 0.7858 0.60484 0.19358 0.0
C516 C 0.81606 0.61694 0.18714 0.0
C517 C 0.83972 0.60885 0.21608 0.0
C518 C 0.83359 0.58837 0.24983 0.0
H519 H 0.81444 0.59079 0.38276 0.0
H520 H 0.84582 0.58884 0.34506 0.0
H521 H 0.80955 0.60766 0.33053 0.0
H522 H 0.75607 0.57553 0.23212 0.0
H523 H 0.76709 0.61067 0.17184 0.0
H524 H 0.57368 0.78834 0.47727 0.0
H525 H 0.52938 0.78303 0.42906 0.0
H526 H 0.59169 0.79162 0.32145 0.0
H527 H 0.63618 0.79721 0.36936 0.0
H528 H 0.54251 0.83535 0.32269 0.0
H529 H 0.49834 0.71433 0.34764 0.0
H530 H 0.50479 0.73636 0.39524 0.0
H531 H 0.53745 0.72613 0.36207 0.0
C532 C 0.57812 0.78832 0.44334 0.0
C533 C 0.60847 0.79345 0.42715 0.0
C534 C 0.55273 0.78517 0.41583 0.0
C535 C 0.55726 0.78685 0.3717 0.0
C536 C 0.58773 0.79022 0.35545 0.0
H537 H 0.4343 0.76829 0.1588 0.0
H538 H 0.47171 0.76028 0.2162 0.0
C539 C 0.61314 0.79333 0.38289 0.0
C540 C 0.5301 0.7887 0.34267 0.0
H541 H 0.46662 0.74846 0.30641 0.0
C542 C 0.52591 0.81635 0.31912 0.0
C543 C 0.50853 0.76387 0.33813 0.0
C544 C 0.5125 0.73335 0.36181 0.0
C545 C 0.5008 0.81987 0.291 0.0
C546 C 0.47897 0.79522 0.28677 0.0
C547 C 0.48315 0.76748 0.31024 0.0
C548 C 0.45317 0.79717 0.25559 0.0
C549 C 0.49829 0.84965 0.26516 0.0
C550 C 0.42954 0.81979 0.2595 0.0
C551 C 0.40804 0.82449 0.22663 0.0
C552 C 0.40995 0.80665 0.18935 0.0
C553 C 0.43239 0.78267 0.18688 0.0
C554 C 0.45375 0.77796 0.21973 0.0
H555 H 0.52019 0.86364 0.26608 0.0
H556 H 0.4928 0.8444 0.2315 0.0
H557 H 0.47904 0.86419 0.27811 0.0
H558 H 0.42846 0.83457 0.28727 0.0
H559 H 0.39091 0.843 0.22961 0.0
H560 H 0.76253 0.46933 0.64111 0.0
H561 H 0.77123 0.52398 0.65663 0.0
H562 H 0.86193 0.51994 0.59613 0.0
H563 H 0.85333 0.46475 0.58008 0.0
H564 H 0.86676 0.54001 0.6741 0.0
H565 H 0.77258 0.60829 0.60208 0.0
H566 H 0.75494 0.57437 0.62568 0.0
H567 H 0.78291 0.56988 0.58291 0.0
C568 C 0.78405 0.4801 0.63006 0.0
C569 C 0.80753 0.46229 0.61046 0.0
C570 C 0.78885 0.51164 0.63848 0.0
C571 C 0.81705 0.52633 0.62696 0.0
C572 C 0.8399 0.50914 0.60508 0.0
H573 H 0.84839 0.66524 0.82475 0.0
H574 H 0.85568 0.65112 0.75026 0.0
C575 C 0.83511 0.47741 0.5966 0.0
C576 C 0.82435 0.5572 0.64555 0.0
H577 H 0.78456 0.62164 0.67854 0.0
C578 C 0.84966 0.55873 0.6737 0.0
C579 C 0.80257 0.58205 0.64436 0.0
C580 C 0.77698 0.58363 0.61164 0.0
C581 C 0.85069 0.58152 0.70543 0.0
C582 C 0.82581 0.60315 0.70867 0.0
C583 C 0.80328 0.60459 0.67646 0.0
C584 C 0.81818 0.61718 0.75012 0.0
C585 C 0.87609 0.57974 0.73852 0.0
C586 C 0.79389 0.60366 0.77403 0.0
C587 C 0.79007 0.61101 0.81672 0.0
C588 C 0.81051 0.63206 0.83654 0.0
C589 C 0.83316 0.64771 0.8114 0.0
C590 C 0.8371 0.64011 0.76851 0.0
H591 H 0.89391 0.56169 0.73099 0.0
H592 H 0.88802 0.60271 0.74089 0.0
H593 H 0.86567 0.57417 0.77008 0.0
H594 H 0.77903 0.58587 0.76033 0.0
H595 H 0.77205 0.59884 0.83462 0.0
H596 H 0.56383 0.84038 0.55497 0.0
H597 H 0.51081 0.85915 0.57025 0.0
H598 H 0.49129 0.77344 0.63881 0.0
H599 H 0.54351 0.75436 0.62258 0.0
H600 H 0.43792 0.79846 0.60185 0.0
H601 H 0.50339 0.89058 0.69001 0.0
H602 H 0.50674 0.88821 0.63325 0.0
H603 H 0.52449 0.85873 0.66617 0.0
C604 C 0.54792 0.8254 0.57268 0.0
C605 C 0.558 0.79639 0.5891 0.0
C606 C 0.51765 0.83609 0.58116 0.0
C607 C 0.49746 0.81812 0.60677 0.0
C608 C 0.5065 0.78781 0.61909 0.0
H609 H 0.42461 0.76654 0.80832 0.0
H610 H 0.43271 0.77934 0.73404 0.0
C611 C 0.53647 0.77695 0.61009 0.0
C612 C 0.46999 0.83195 0.62828 0.0
H613 H 0.45779 0.87126 0.72052 0.0
C614 C 0.44161 0.81542 0.6268 0.0
C615 C 0.47433 0.85482 0.66011 0.0
C616 C 0.5038 0.87421 0.66276 0.0
C617 C 0.42014 0.81705 0.66049 0.0
C618 C 0.42751 0.83555 0.69604 0.0
C619 C 0.45267 0.8565 0.69354 0.0
C620 C 0.41619 0.82706 0.73899 0.0
C621 C 0.39154 0.79643 0.65993 0.0
C622 C 0.40485 0.84982 0.76686 0.0
C623 C 0.40061 0.84272 0.80994 0.0
C624 C 0.40782 0.81264 0.82596 0.0
C625 C 0.4188 0.78991 0.79751 0.0
C626 C 0.42282 0.797 0.75463 0.0
H627 H 0.38206 0.79482 0.6272 0.0
H628 H 0.39807 0.77244 0.67023 0.0
H629 H 0.37297 0.80528 0.68152 0.0
H630 H 0.4005 0.87342 0.75561 0.0
H631 H 0.39294 0.86136 0.83046 0.0
H632 H 0.16961 0.46322 1.01685 0.0
H633 H 0.15006 0.5159 1.00117 0.0
H634 H 0.24071 0.54138 0.95055 0.0
H635 H 0.26042 0.48958 0.96713 0.0
H636 H 0.21088 0.59189 0.9874 0.0
H637 H 0.12975 0.52934 0.87806 0.0
H638 H 0.12633 0.52364 0.93448 0.0
H639 H 0.15925 0.50764 0.90626 0.0
C640 C 0.18538 0.48023 1.00274 0.0
C641 C 0.21627 0.47202 0.99171 0.0
C642 C 0.17423 0.51037 0.99412 0.0
C643 C 0.19369 0.53233 0.9737 0.0
C644 C 0.22522 0.52486 0.96632 0.0
H645 H 0.25991 0.62071 0.78865 0.0
H646 H 0.24229 0.61141 0.86098 0.0
C647 C 0.23644 0.49508 0.97546 0.0
C648 C 0.18113 0.56058 0.95247 0.0
H649 H 0.15008 0.57674 0.85555 0.0
C650 C 0.19651 0.58915 0.95935 0.0
C651 C 0.16148 0.5575 0.91663 0.0
C652 C 0.14317 0.52797 0.90817 0.0
C653 C 0.19719 0.61242 0.92772 0.0
C654 C 0.18233 0.60662 0.88857 0.0
C655 C 0.16223 0.5808 0.88518 0.0
C656 C 0.1934 0.62115 0.84834 0.0
C657 C 0.21608 0.64164 0.93509 0.0
C658 C 0.17198 0.62991 0.81685 0.0
C659 C 0.18189 0.63411 0.77487 0.0
C660 C 0.21362 0.63004 0.76363 0.0
C661 C 0.2353 0.62362 0.79591 0.0
C662 C 0.22529 0.61904 0.83771 0.0
H663 H 0.21277 0.64983 0.96822 0.0
H664 H 0.24132 0.63633 0.93092 0.0
H665 H 0.20951 0.66075 0.91277 0.0
H666 H 0.14722 0.63128 0.82416 0.0
H667 H 0.16416 0.63864 0.75126 0.0
H668 H 0.43963 0.25942 0.74023 0.0
H669 H 0.45085 0.25427 0.81555 0.0
H670 H 0.38 0.183 0.82833 0.0
H671 H 0.36757 0.18862 0.75298 0.0
H672 H 0.41088 0.25292 0.89731 0.0
H673 H 0.4688 0.14101 0.8519 0.0
H674 H 0.45936 0.16938 0.81126 0.0
H675 H 0.42859 0.14861 0.83828 0.0
C676 C 0.4259 0.24303 0.75896 0.0
C677 C 0.40368 0.22349 0.73986 0.0
C678 C 0.43223 0.24028 0.80215 0.0
C679 C 0.4165 0.21799 0.82716 0.0
C680 C 0.39259 0.20008 0.80925 0.0
H681 H 0.56199 0.17824 1.00615 0.0
H682 H 0.50705 0.17163 0.98645 0.0
C683 C 0.38602 0.20296 0.76591 0.0
C684 C 0.42917 0.21079 0.86956 0.0
H685 H 0.48951 0.16821 0.90943 0.0
C686 C 0.42726 0.23374 0.90103 0.0
C687 C 0.44984 0.18532 0.87484 0.0
C688 C 0.45193 0.15952 0.84246 0.0
C689 C 0.44841 0.23394 0.93494 0.0
C690 C 0.47258 0.21136 0.9361 0.0
C691 C 0.47139 0.18592 0.90819 0.0
C692 C 0.50275 0.21753 0.95752 0.0
C693 C 0.44602 0.25962 0.96734 0.0
C694 C 0.51849 0.24568 0.94857 0.0
C695 C 0.54974 0.24945 0.95959 0.0
C696 C 0.56624 0.2249 0.97896 0.0
C697 C 0.55014 0.19729 0.99011 0.0
C698 C 0.51862 0.19363 0.97942 0.0
H699 H 0.4211 0.26422 0.97527 0.0
H700 H 0.45875 0.25367 0.997 0.0
H701 H 0.45584 0.28156 0.9537 0.0
H702 H 0.50732 0.2641 0.93037 0.0
H703 H 0.56146 0.27099 0.95056 0.0
H704 H 0.74112 0.92967 0.63518 0.0
H705 H 0.74539 0.97164 0.68654 0.0
H706 H 0.69221 0.91725 0.77751 0.0
H707 H 0.68706 0.87511 0.7255 0.0
H708 H 0.66965 0.9759 0.76948 0.0
H709 H 0.79787 0.98202 0.791 0.0
H710 H 0.78704 0.9847 0.73612 0.0
H711 H 0.77902 0.94935 0.76568 0.0
C712 C 0.73073 0.92628 0.66634 0.0
C713 C 0.71367 0.89899 0.67618 0.0
C714 C 0.73338 0.95033 0.69582 0.0
C715 C 0.71948 0.94751 0.73611 0.0
C716 C 0.70324 0.91989 0.74662 0.0
H717 H 0.74397 0.07503 0.94498 0.0
H718 H 0.74668 0.03234 0.89437 0.0
C719 C 0.70041 0.89578 0.71696 0.0
C720 C 0.71994 0.97438 0.76579 0.0
H721 H 0.7685 0.02633 0.81455 0.0
C722 C 0.69127 0.98678 0.77961 0.0
C723 C 0.74816 0.98849 0.7792 0.0
C724 C 0.77975 0.97526 0.76758 0.0
C725 C 0.69001 1.01311 0.80598 0.0
C726 C 0.71819 0.02797 0.81799 0.0
C727 C 0.74688 0.01529 0.8047 0.0
C728 C 0.71846 0.05542 0.84667 0.0
C729 C 0.6585 0.02428 0.82149 0.0
C730 C 0.7026 0.08319 0.83613 0.0
C731 C 0.70082 0.10776 0.86528 0.0
C732 C 0.71513 0.10503 0.90528 0.0
C733 C 0.73247 0.0779 0.91461 0.0
C734 C 0.73408 0.05339 0.88566 0.0
H735 H 0.64027 1.00589 0.81846 0.0
H736 H 0.6596 0.03155 0.85525 0.0
H737 H 0.65111 0.04475 0.80214 0.0
H738 H 0.69106 0.08561 0.80573 0.0
H739 H 0.68748 0.12843 0.857 0.0
H740 H 0.14062 0.69956 0.70695 0.0
H741 H 0.09976 0.71255 0.75751 0.0
H742 H 0.04805 0.75957 0.65841 0.0
H743 H 0.0883 0.74471 0.60654 0.0
H744 H 0.07406 0.76147 0.78893 0.0
H745 H 0.98353 0.69891 0.69591 0.0
H746 H 0.0243 0.69805 0.68147 0.0
H747 H 1.00075 0.73171 0.66875 0.0
C748 C 0.12071 0.71289 0.69575 0.0
C749 C 0.11744 0.72059 0.65247 0.0
C750 C 0.09731 0.72042 0.72488 0.0
C751 C 0.07028 0.73632 0.71171 0.0
C752 C 0.0681 0.7463 0.66912 0.0
H753 H 0.93852 0.76828 0.92632 0.0
H754 H 0.97435 0.78044 0.86723 0.0
C755 C 0.09127 0.73809 0.63957 0.0
C756 C 0.04405 0.74034 0.74248 0.0
H757 H 0.96806 0.71953 0.76124 0.0
C758 C 0.05079 0.75249 0.78281 0.0
C759 C 1.01368 0.72848 0.73457 0.0
C760 C 1.00511 0.7133 0.69302 0.0
C761 C 0.02881 0.75134 0.81613 0.0
C762 C 0.99858 0.7391 0.80835 0.0
C763 C 0.99122 0.72886 0.76725 0.0
C764 C 0.97546 0.73312 0.84303 0.0
C765 C 0.03903 0.76131 0.85985 0.0
C766 C 0.96296 0.70292 0.84808 0.0
C767 C 0.94179 0.69628 0.88074 0.0
C768 C 0.93305 0.71952 0.90974 0.0
C769 C 0.94524 0.74985 0.9047 0.0
C770 C 0.96588 0.75673 0.87114 0.0
H771 H 0.06492 0.76253 0.86245 0.0
H772 H 0.02963 0.78495 0.86651 0.0
H773 H 0.03017 0.74492 0.88464 0.0
H774 H 0.96992 0.68422 0.82702 0.0
H775 H 0.93285 0.67265 0.88388 0.0
H776 H 0.2687 0.08688 0.64571 0.0
H777 H 0.25391 0.0522 0.70494 0.0
H778 H 0.34214 0.07158 0.76559 0.0
H779 H 0.35596 0.10746 0.70827 0.0
H780 H 0.27619 1.00095 0.72949 0.0
H781 H 0.28868 0.07859 0.8663 0.0
H782 H 0.28906 0.09358 0.81258 0.0
H783 H 0.32467 0.07982 0.83713 0.0
C784 C 0.28462 0.08407 0.67213 0.0
C785 C 0.31338 0.09999 0.67251 0.0
C786 C 0.27617 0.06427 0.70597 0.0
C787 C 0.29653 0.05973 0.74048 0.0
C788 C 0.32535 0.07555 0.74049 0.0
H789 H 0.33697 0.89552 0.87446 0.0
H790 H 0.32297 0.93565 0.82323 0.0
C791 C 0.33343 0.09584 0.70732 0.0
C792 C 0.28933 0.03639 0.77452 0.0
H793 H 0.29904 0.023 0.88065 0.0
C794 C 0.28048 1.00604 0.76267 0.0
C795 C 0.29369 0.04292 0.81818 0.0
C796 C 0.29915 0.07564 0.83419 0.0
C797 C 0.27851 0.98164 0.79265 0.0
C798 C 0.2871 0.98735 0.83533 0.0
C799 C 0.29328 0.01821 0.8478 0.0
C800 C 0.29302 0.9615 0.86623 0.0
C801 C 0.26758 0.94998 0.77791 0.0
C802 C 0.28176 0.96289 0.90827 0.0
C803 C 0.29064 0.94027 0.93833 0.0
C804 C 0.31068 0.91569 0.92672 0.0
C805 C 0.32114 0.91387 0.8844 0.0
C806 C 0.31284 0.93674 0.85477 0.0
H807 H 0.24979 0.95248 0.75249 0.0
H808 H 0.28768 0.93705 0.76416 0.0
H809 H 0.25732 0.93593 0.80432 0.0
H810 H 0.26664 0.98186 0.91808 0.0
H811 H 0.28227 0.94232 0.97074 0.0
H812 H 0.94923 0.27435 0.63721 0.0
H813 H 0.99241 0.26716 0.68678 0.0
H814 H 0.95437 0.33951 0.76665 0.0
H815 H 0.91041 0.34602 0.71771 0.0
H816 H 0.03571 0.30879 0.70383 0.0
H817 H 0.97698 0.27531 0.85455 0.0
H818 H 0.95689 0.27531 0.80425 0.0
H819 H 0.96199 0.3112 0.83301 0.0
C820 C 0.94968 0.28826 0.66583 0.0
C821 C 0.92644 0.31075 0.67361 0.0
C822 C 0.97445 0.28419 0.69409 0.0
C823 C 0.97667 0.30265 0.73063 0.0
C824 C 0.95289 0.32447 0.73922 0.0
H825 H 0.14649 0.35187 0.86244 0.0
H826 H 0.1035 0.34737 0.81205 0.0
C827 C 0.92778 0.32825 0.71117 0.0
C828 C 1.00515 0.30079 0.75753 0.0
H829 H 0.0303 0.29191 0.8597 0.0
C830 C 0.03451 0.30479 0.73788 0.0
C831 C 1.00372 0.29518 0.80186 0.0
C832 C 0.97322 0.28868 0.82459 0.0
C833 C 0.06235 0.30399 0.76137 0.0
C834 C 0.06081 0.29995 0.80598 0.0
C835 C 0.03152 0.29526 0.82553 0.0
C836 C 0.0891 0.30123 0.83325 0.0
C837 C 0.09312 0.30708 0.73798 0.0
C838 C 0.09551 0.27678 0.86193 0.0
C839 C 0.11989 0.27947 0.89115 0.0
C840 C 0.13837 0.30667 0.89227 0.0
C841 C 0.13293 0.33047 0.86213 0.0
C842 C 0.10834 0.32789 0.83319 0.0
H843 H 0.09098 0.29965 0.70435 0.0
H844 H 0.10052 0.33196 0.73791 0.0
H845 H 0.1117 0.29292 0.7534 0.0
H846 H 0.08105 0.25597 0.86255 0.0
H847 H 0.12348 0.26072 0.91393 0.0
H848 H 0.2583 0.97366 0.06405 0.0
H849 H 0.25582 0.02843 0.08514 0.0
H850 H 0.33872 0.01608 0.16083 0.0
H851 H 0.34102 0.96149 0.14138 0.0
H852 H 0.24796 0.03818 0.17181 0.0
H853 H 0.34949 0.1057 0.11306 0.0
H854 H 0.33499 0.07122 0.08653 0.0
H855 H 0.36062 0.06751 0.13152 0.0
C856 C 0.27646 0.9827 0.08448 0.0
C857 C 0.29968 0.96282 0.10123 0.0
C858 C 0.27516 1.01414 0.09602 0.0
C859 C 0.29732 0.02639 0.124 0.0
C860 C 0.32186 1.0073 0.13823 0.0
H861 H 0.34204 0.11239 0.33508 0.0
H862 H 0.33807 0.09726 0.26112 0.0
C863 C 0.32303 0.97581 0.1271 0.0
C864 C 0.2912 0.05604 0.1463 0.0
H865 H 0.32967 0.11995 0.1834 0.0
C866 C 0.26519 0.05678 0.17351 0.0
C867 C 0.31361 0.08023 0.14797 0.0
C868 C 0.34109 0.08132 0.11783 0.0
C869 C 0.26316 0.07855 0.20641 0.0
C870 C 0.28737 0.10098 0.21096 0.0
C871 C 0.3113 0.10261 0.18019 0.0
C872 C 0.29206 0.11738 0.25176 0.0
C873 C 0.23701 0.07485 0.23857 0.0
C874 C 0.26827 0.13525 0.27062 0.0
C875 C 0.2702 0.14328 0.31353 0.0
C876 C 0.29644 0.1345 0.33752 0.0
C877 C 0.3216 0.1196 0.31733 0.0
C878 C 0.31935 0.11099 0.2749 0.0
H879 H 0.22288 0.05342 0.23324 0.0
H880 H 0.24652 0.07369 0.27131 0.0
H881 H 0.22103 0.09521 0.23637 0.0
H882 H 0.24751 0.14148 0.25293 0.0
H883 H 0.25077 0.15535 0.32833 0.0
H884 H 0.03354 0.2758 0.1041 0.0
H885 H 0.98281 0.29732 0.12095 0.0
H886 H 0.01631 0.39013 0.09073 0.0
H887 H 0.06766 0.36855 0.07346 0.0
H888 H 0.99487 0.39039 0.16506 0.0
H889 H 0.90407 0.331 0.07616 0.0
H890 H 0.9304 0.30055 0.09146 0.0
H891 H 0.94405 0.3319 0.05711 0.0
C892 C 0.02999 0.30069 0.09972 0.0
C893 C 0.05499 0.32048 0.08878 0.0
C894 C 1.00063 0.31303 0.10873 0.0
C895 C 0.99534 0.34543 0.10631 0.0
C896 C 0.01968 0.36507 0.09229 0.0
H897 H 0.87112 0.36282 0.32389 0.0
H898 H 0.88266 0.3832 0.25297 0.0
C899 C 0.04923 0.3527 0.08331 0.0
C900 C 0.96734 0.35835 0.1279 0.0
H901 H 0.89639 0.32949 0.15801 0.0
C902 C 0.97257 0.3785 0.1622 0.0
C903 C 0.93767 0.34405 0.12374 0.0
C904 C 0.92877 0.326 0.08467 0.0
C905 C 0.95167 0.37924 0.19657 0.0
C906 C 0.92542 0.35923 0.19626 0.0
C907 C 0.91715 0.34409 0.1586 0.0
C908 C 0.91422 0.34571 0.23667 0.0
C909 C 0.96032 0.39743 0.23568 0.0
C910 C 0.92798 0.31776 0.25052 0.0
C911 C 0.92235 0.30645 0.29135 0.0
C912 C 0.90268 0.32278 0.31937 0.0
C913 C 0.88749 0.35006 0.30435 0.0
C914 C 0.89349 0.36159 0.26338 0.0
H915 H 0.97872 0.41516 0.22882 0.0
H916 H 0.93941 0.40941 0.2488 0.0
H917 H 0.9692 0.38108 0.2604 0.0
H918 H 0.94425 0.30534 0.23022 0.0
H919 H 0.93425 0.28528 0.3012 0.0
H920 H 0.78683 0.10985 0.26207 0.0
H921 H 0.78063 0.0946 0.33558 0.0
H922 H 0.68866 0.13597 0.33823 0.0
H923 H 0.69278 0.14772 0.26311 0.0
H924 H 0.76905 0.11252 0.41252 0.0
H925 H 0.66232 0.0496 0.35617 0.0
H926 H 0.68665 0.0708 0.3193 0.0
H927 H 0.66155 0.09143 0.3558 0.0
C928 C 0.76514 0.11584 0.27795 0.0
C929 C 0.73998 0.129 0.25542 0.0
C930 C 0.76184 0.10751 0.32056 0.0
C931 C 0.73357 0.11287 0.34216 0.0
C932 C 0.7101 0.13014 0.3217 0.0
H933 H 0.69886 0.94893 0.48601 0.0
H934 H 0.69695 1.00543 0.48965 0.0
C935 C 0.71279 0.13724 0.27838 0.0
C936 C 0.72748 0.09506 0.38206 0.0
H937 H 0.68858 0.02911 0.41296 0.0
C938 C 0.75088 0.09479 0.41339 0.0
C939 C 0.70322 0.07238 0.38424 0.0
C940 C 0.67705 0.07084 0.35214 0.0
C941 C 0.75348 0.06975 0.44224 0.0
C942 C 0.73185 0.0449 0.44003 0.0
C943 C 0.7055 0.04801 0.41398 0.0
C944 C 0.73973 1.01278 0.45408 0.0
C945 C 0.78079 0.06878 0.47229 0.0
C946 C 0.76549 0.99797 0.43501 0.0
C947 C 0.76679 0.96542 0.43279 0.0
C948 C 0.74236 0.94708 0.44959 0.0
C949 C 0.71841 0.96194 0.47293 0.0
C950 C 0.7172 0.9945 0.47521 0.0
H951 H 0.78668 0.09269 0.4833 0.0
H952 H 0.77584 0.05361 0.50033 0.0
H953 H 0.80159 0.05948 0.45537 0.0
H954 H 0.78289 1.01148 0.41773 0.0
H955 H 0.78569 0.95476 0.41501 0.0
H956 H 0.06822 0.77456 0.50608 0.0
H957 H 1.01308 0.77976 0.48726 0.0
H958 H 0.01677 0.69077 0.42387 0.0
H959 H 0.07155 0.68545 0.44206 0.0
H960 H 1.00294 0.78439 0.40376 0.0
H961 H 0.92702 0.69088 0.46643 0.0
H962 H 0.9632 0.7019 0.49194 0.0
H963 H 0.96336 0.67466 0.44846 0.0
C964 C 0.05701 0.75562 0.48925 0.0
C965 C 0.07447 0.72979 0.47512 0.0
C966 C 0.0254 0.75851 0.47896 0.0
C967 C 1.0107 0.73557 0.45448 0.0
C968 C 0.02733 0.70841 0.44374 0.0
H969 H 0.93048 0.69007 0.24144 0.0
H970 H 0.94286 0.69556 0.31639 0.0
C971 C 0.05892 0.7055 0.45399 0.0
C972 C 0.9818 0.7431 0.43084 0.0
H973 H 0.9166 0.70754 0.39231 0.0
C974 C 0.98334 0.76831 0.40216 0.0
C975 C 0.95616 0.72233 0.42921 0.0
C976 C 0.9522 0.69613 0.46107 0.0
C977 C 0.9626 0.77068 0.368 0.0
C978 C 0.93898 0.74767 0.36343 0.0
C979 C 0.93492 0.72493 0.3955 0.0
C980 C 0.924 0.74242 0.32173 0.0
C981 C 0.96869 0.79562 0.33467 0.0
C982 C 0.9079 0.76632 0.30017 0.0
C983 C 0.9018 0.76359 0.25671 0.0
C984 C 0.91052 0.7364 0.23494 0.0
C985 C 0.92361 0.7113 0.25756 0.0
C986 C 0.93047 0.71437 0.30051 0.0
H987 H 0.99043 0.80905 0.34086 0.0
H988 H 0.97077 0.78501 0.30269 0.0
H989 H 0.94894 0.81242 0.33421 0.0
H990 H 0.90175 0.78776 0.31625 0.0
H991 H 0.89108 0.78297 0.2399 0.0
H992 H 0.35259 0.23565 0.44425 0.0
H993 H 0.33813 0.24697 0.37022 0.0
H994 H 0.24284 0.22069 0.39833 0.0
H995 H 0.2577 0.20823 0.47199 0.0
H996 H 0.30663 0.20569 0.307 0.0
H997 H 0.23854 0.3121 0.34783 0.0
H998 H 0.26716 0.29526 0.3833 0.0
H999 H 0.22952 0.27718 0.37772 0.0
C1000 C 0.32885 0.23129 0.43418 0.0
C1001 C 0.30653 0.2201 0.46343 0.0
C1002 C 0.32046 0.23821 0.39205 0.0
C1003 C 0.28934 0.2348 0.37857 0.0
C1004 C 0.26693 0.22377 0.40794 0.0
H1005 H 0.19226 0.28707 0.1437 0.0
H1006 H 0.20613 0.2713 0.21616 0.0
C1007 C 0.27542 0.21666 0.44999 0.0
C1008 C 0.28025 0.24342 0.33414 0.0
H1009 H 0.23836 0.29673 0.27615 0.0
C1010 C 0.29168 0.22557 0.30018 0.0
C1011 C 0.26069 0.26931 0.32519 0.0
C1012 C 0.24835 0.28981 0.36027 0.0
C1013 C 0.28369 0.23255 0.25768 0.0
C1014 C 0.26444 0.25884 0.24851 0.0
C1015 C 0.25302 0.2766 0.28272 0.0
C1016 C 0.25597 0.26846 0.20393 0.0
C1017 C 0.29536 0.21106 0.22324 0.0
C1018 C 0.27914 0.27289 0.17254 0.0
C1019 C 0.27108 0.28138 0.13085 0.0
C1020 C 0.23974 0.28682 0.11963 0.0
C1021 C 0.2166 0.28334 0.15118 0.0
C1022 C 0.22459 0.27422 0.19277 0.0
H1023 H 0.3017 0.1877 0.23614 0.0
H1024 H 0.27754 0.20801 0.19806 0.0
H1025 H 0.31681 0.22113 0.20863 0.0
H1026 H 0.30362 0.27003 0.18023 0.0
H1027 H 0.28953 0.28413 0.10739 0.0
H1028 H 0.79609 0.18554 0.11826 0.0
H1029 H 0.80841 0.19875 0.1922 0.0
H1030 H 0.72206 0.25054 0.2013 0.0
H1031 H 0.70924 0.23591 0.12832 0.0
H1032 H 0.81981 0.25061 0.22956 0.0
H1033 H 0.71358 0.20367 0.30786 0.0
H1034 H 0.72035 0.19922 0.2516 0.0
H1035 H 0.70422 0.23493 0.27199 0.0
C1036 C 0.77968 0.19948 0.13634 0.0
C1037 C 0.75142 0.20915 0.11791 0.0
C1038 C 0.78669 0.20709 0.17866 0.0
C1039 C 0.7659 0.22514 0.20333 0.0
C1040 C 0.73808 0.23562 0.18411 0.0
H1041 H 0.81229 0.32652 0.43606 0.0
H1042 H 0.7999 0.31126 0.36318 0.0
C1043 C 0.73077 0.22736 0.14219 0.0
C1044 C 0.77412 0.23406 0.24819 0.0
H1045 H 0.74681 0.2357 0.35098 0.0
C1046 C 0.80379 0.24707 0.25598 0.0
C1047 C 0.75338 0.22987 0.28327 0.0
C1048 C 0.72123 0.21589 0.27831 0.0
C1049 C 0.81306 0.25607 0.29707 0.0
C1050 C 0.79234 0.25206 0.33188 0.0
C1051 C 0.7628 0.23883 0.32442 0.0
C1052 C 0.80099 0.26154 0.37614 0.0
C1053 C 0.84512 0.26975 0.30315 0.0
C1054 C 0.80565 0.23892 0.40814 0.0
C1055 C 0.81365 0.24782 0.44968 0.0
C1056 C 0.81713 0.27958 0.46037 0.0
C1057 C 0.81165 0.30208 0.42852 0.0
C1058 C 0.80402 0.29325 0.38687 0.0
H1059 H 0.86011 0.26741 0.27441 0.0
H1060 H 0.84268 0.29495 0.31048 0.0
H1061 H 0.85687 0.25817 0.3304 0.0
H1062 H 0.80325 0.21431 0.40093 0.0
H1063 H 0.81723 0.22977 0.47348 0.0
H1064 H 0.70492 0.76865 0.45066 0.0
H1065 H 0.72049 0.75293 0.3788 0.0
H1066 H 0.80864 0.80075 0.39395 0.0
H1067 H 0.79344 0.81518 0.46656 0.0
H1068 H 0.73216 0.78384 0.31005 0.0
H1069 H 0.84202 0.72166 0.34914 0.0
H1070 H 0.81521 0.73459 0.38977 0.0
H1071 H 0.84271 0.76156 0.36592 0.0
C1072 C 0.72756 0.77587 0.43847 0.0
C1073 C 0.7478 0.79346 0.46394 0.0
C1074 C 0.7366 0.76672 0.39741 0.0
C1075 C 0.76611 0.77503 0.38061 0.0
C1076 C 0.7862 0.79302 0.40613 0.0
H1077 H 0.84839 0.75618 0.12568 0.0
H1078 H 0.8368 0.77012 0.19971 0.0
C1079 C 0.77737 0.80163 0.44756 0.0
C1080 C 0.77509 0.76579 0.33606 0.0
H1081 H 0.83239 0.73119 0.27575 0.0
C1082 C 0.75399 0.77207 0.30284 0.0
C1083 C 0.80373 0.75057 0.32593 0.0
C1084 C 0.82706 0.74142 0.35964 0.0
C1085 C 0.76062 0.76387 0.26041 0.0
C1086 C 0.78913 0.74869 0.25041 0.0
C1087 C 0.81048 0.74273 0.28331 0.0
C1088 C 0.79711 0.73898 0.20597 0.0
C1089 C 0.73723 0.77207 0.22636 0.0
C1090 C 0.77902 0.7165 0.18469 0.0
C1091 C 0.78602 0.70819 0.14256 0.0
C1092 C 0.8115 0.72184 0.12098 0.0
C1093 C 0.82942 0.74442 0.14209 0.0
C1094 C 0.82259 0.7526 0.18429 0.0
H1095 H 0.72014 0.78987 0.23734 0.0
H1096 H 0.74924 0.78109 0.19739 0.0
H1097 H 0.72404 0.75074 0.21757 0.0
H1098 H 0.75939 0.70543 0.20066 0.0
H1099 H 0.77146 0.69114 0.12679 0.0
H1100 H 0.32648 0.72736 0.10965 0.0
H1101 H 0.31295 0.71157 0.18258 0.0
H1102 H 0.30012 0.80828 0.21592 0.0
H1103 H 0.31247 0.82386 0.14312 0.0
H1104 H 0.33964 0.72443 0.25938 0.0
H1105 H 0.21891 0.77124 0.25795 0.0
H1106 H 0.24209 0.76766 0.21018 0.0
H1107 H 0.24785 0.80026 0.24515 0.0
C1108 C 0.32073 0.74529 0.13252 0.0
C1109 C 0.32109 0.77706 0.1203 0.0
C1110 C 0.31306 0.73621 0.17435 0.0
C1111 C 0.30503 0.75861 0.20504 0.0
C1112 C 0.30558 0.79034 0.19296 0.0
H1113 H 0.25415 0.75578 0.47421 0.0
H1114 H 0.26867 0.7695 0.40083 0.0
C1115 C 0.31313 0.79936 0.15112 0.0
C1116 C 0.29625 0.74885 0.24952 0.0
H1117 H 0.23854 0.75476 0.32505 0.0
C1118 C 0.31743 0.7309 0.27357 0.0
C1119 C 0.26724 0.75716 0.26842 0.0
C1120 C 0.24257 0.77487 0.24399 0.0
C1121 C 0.3108 0.7218 0.31592 0.0
C1122 C 0.28193 0.73039 0.3349 0.0
C1123 C 0.2607 0.74818 0.31079 0.0
C1124 C 0.27342 0.72166 0.37983 0.0
C1125 C 0.33521 0.70378 0.34038 0.0
C1126 C 0.27127 0.69018 0.393 0.0
C1127 C 0.26283 0.68238 0.43505 0.0
C1128 C 0.25558 0.70574 0.46461 0.0
C1129 C 0.25868 0.73719 0.45181 0.0
C1130 C 0.26699 0.74505 0.40982 0.0
H1131 H 0.35877 0.70609 0.32559 0.0
H1132 H 0.3365 0.71188 0.37377 0.0
H1133 H 0.32887 0.67862 0.34078 0.0
H1134 H 0.27608 0.67157 0.37077 0.0
H1135 H 0.26284 0.65811 0.44475 0.0
H1136 H 0.69624 0.79426 0.64391 0.0
H1137 H 0.70922 0.77941 0.71679 0.0
H1138 H 0.80698 0.77744 0.6832 0.0
H1139 H 0.79404 0.79254 0.61009 0.0
H1140 H 0.74258 0.72405 0.74546 0.0
H1141 H 0.80382 0.83328 0.79078 0.0
H1142 H 0.77773 0.83135 0.74589 0.0
H1143 H 0.81673 0.81603 0.74182 0.0
C1144 C 0.7205 0.79126 0.65188 0.0
C1145 C 0.74399 0.79529 0.62082 0.0
C1146 C 0.72794 0.78244 0.69379 0.0
C1147 C 0.75916 0.77759 0.70595 0.0
C1148 C 0.78273 0.78149 0.67504 0.0
H1149 H 0.85462 0.73477 0.94397 0.0
H1150 H 0.84049 0.74655 0.87036 0.0
C1151 C 0.77524 0.79006 0.63308 0.0
C1152 C 0.76705 0.76781 0.75056 0.0
H1153 H 0.80637 0.79103 0.83944 0.0
C1154 C 0.75644 0.73874 0.76608 0.0
C1155 C 0.78519 0.78684 0.77764 0.0
C1156 C 0.79638 0.81874 0.7635 0.0
C1157 C 0.76405 0.72791 0.8073 0.0
C1158 C 0.78221 0.74697 0.83456 0.0
C1159 C 0.7926 0.77617 0.81894 0.0
C1160 C 0.79105 0.73722 0.87906 0.0
C1161 C 0.75313 0.69572 0.8205 0.0
C1162 C 0.76834 0.72789 0.90926 0.0
C1163 C 0.7769 0.71999 0.95116 0.0
C1164 C 0.80835 0.72127 0.964 0.0
C1165 C 0.83079 0.73132 0.93424 0.0
C1166 C 0.82241 0.7389 0.89232 0.0
H1167 H 0.75048 0.6802 0.79257 0.0
H1168 H 0.76955 0.68455 0.84309 0.0
H1169 H 0.72992 0.69763 0.8362 0.0
H1170 H 0.74385 0.72725 0.90072 0.0
H1171 H 0.75889 0.71297 0.97361 0.0
H1172 H 0.29853 0.6861 0.62086 0.0
H1173 H 0.31052 0.69916 0.69489 0.0
H1174 H 0.22127 0.74541 0.7064 0.0
H1175 H 0.20925 0.73175 0.63267 0.0
H1176 H 0.31819 0.75308 0.73164 0.0
H1177 H 0.21883 0.69488 0.81255 0.0
H1178 H 0.2241 0.69308 0.75571 0.0
H1179 H 0.20579 0.72649 0.77939 0.0
C1180 C 0.2814 0.69879 0.63943 0.0
C1181 C 0.25259 0.70715 0.6214 0.0
C1182 C 0.28822 0.70627 0.68181 0.0
C1183 C 0.26659 0.72276 0.70711 0.0
C1184 C 0.23803 0.73177 0.68853 0.0
H1185 H 0.30716 0.82272 0.94302 0.0
H1186 H 0.29381 0.8081 0.87015 0.0
C1187 C 0.23107 0.72386 0.64632 0.0
C1188 C 0.27485 0.73189 0.75183 0.0
H1189 H 0.25042 0.72879 0.85593 0.0
C1190 C 0.30331 0.74756 0.75869 0.0
C1191 C 0.25549 0.72519 0.78765 0.0
C1192 C 0.22448 0.70874 0.7835 0.0
C1193 C 0.31279 0.75663 0.79964 0.0
C1194 C 0.29371 0.74967 0.83528 0.0
C1195 C 0.26527 0.73399 0.82873 0.0
C1196 C 0.30297 0.75881 0.8794 0.0
C1197 C 0.34346 0.77335 0.80471 0.0
C1198 C 0.31264 0.73616 0.9092 0.0
C1199 C 0.32134 0.74485 0.95059 0.0
C1200 C 0.32058 0.77638 0.96314 0.0
C1201 C 0.31019 0.79878 0.93354 0.0
C1202 C 0.30182 0.79022 0.89209 0.0
H1203 H 0.35688 0.77444 0.77444 0.0
H1204 H 0.33911 0.79759 0.81559 0.0
H1205 H 0.35776 0.76133 0.82925 0.0
H1206 H 0.31355 0.71174 0.9004 0.0
H1207 H 0.32865 0.72687 0.97283 0.0
H1208 H 0.2369 0.33461 0.93734 0.0
H1209 H 0.25155 0.32098 0.86451 0.0
H1210 H 0.26314 0.22481 0.9029 0.0
H1211 H 0.24846 0.23838 0.97594 0.0
H1212 H 0.31156 0.28704 0.83763 0.0
H1213 H 0.20109 0.22575 0.79645 0.0
H1214 H 0.20301 0.25469 0.83792 0.0
H1215 H 0.21849 0.21626 0.84692 0.0
C1216 C 0.24215 0.31054 0.93037 0.0
C1217 C 0.2409 0.28756 0.96256 0.0
C1218 C 0.25078 0.30278 0.88862 0.0
C1219 C 0.25819 0.2718 0.87801 0.0
C1220 C 0.25724 0.24883 0.91013 0.0
H1221 H 0.29491 0.17507 0.63985 0.0
H1222 H 0.2846 0.18924 0.71384 0.0
C1223 C 0.24891 0.25666 0.95193 0.0
C1224 C 0.26724 0.26347 0.83358 0.0
H1225 H 0.24192 0.22419 0.74597 0.0
C1226 C 0.29634 0.27335 0.81749 0.0
C1227 C 0.24747 0.24554 0.80735 0.0
C1228 C 0.21564 0.23501 0.82268 0.0
C1229 C 0.30646 0.26529 0.77625 0.0
C1230 C 0.2866 0.24741 0.74967 0.0
C1231 C 0.25737 0.23771 0.76597 0.0
C1232 C 0.29544 0.23838 0.70509 0.0
C1233 C 0.33869 0.27557 0.76231 0.0
C1234 C 0.30507 0.26095 0.67488 0.0
C1235 C 0.31229 0.25234 0.63294 0.0
C1236 C 0.30982 0.22105 0.62005 0.0
C1237 C 0.29932 0.19874 0.64971 0.0
C1238 C 0.29257 0.20715 0.69179 0.0
H1239 H 0.35485 0.27695 0.7898 0.0
H1240 H 0.34891 0.25954 0.73855 0.0
H1241 H 0.33716 0.29928 0.7479 0.0
H1242 H 0.30653 0.28536 0.68348 0.0
H1243 H 0.31961 0.27023 0.61044 0.0
H1244 H 0.86551 0.26894 0.63576 0.0
H1245 H 0.85207 0.25436 0.70935 0.0
H1246 H 0.75454 0.26958 0.68198 0.0
H1247 H 0.76826 0.28514 0.60898 0.0
H1248 H 0.8192 0.28872 0.77407 0.0
H1249 H 0.75579 0.18027 0.73142 0.0
H1250 H 0.78141 0.20049 0.69461 0.0
H1251 H 0.74254 0.21485 0.70424 0.0
C1252 C 0.84144 0.27051 0.64607 0.0
C1253 C 0.81822 0.28002 0.61732 0.0
C1254 C 0.83362 0.26152 0.68792 0.0
C1255 C 0.80221 0.2608 0.70156 0.0
C1256 C 0.77891 0.26967 0.67245 0.0
H1257 H 0.70394 0.20967 0.93668 0.0
H1258 H 0.71888 0.22397 0.86415 0.0
C1259 C 0.7868 0.27883 0.63076 0.0
C1260 C 0.79379 0.25075 0.74603 0.0
H1261 H 0.75242 0.19605 0.80333 0.0
C1262 C 0.80474 0.26835 0.78045 0.0
C1263 C 0.77477 0.22425 0.75465 0.0
C1264 C 0.76312 0.20365 0.71938 0.0
C1265 C 0.79665 0.26072 0.82287 0.0
C1266 C 0.77772 0.23408 0.83159 0.0
C1267 C 0.76689 0.21643 0.79706 0.0
C1268 C 0.76869 0.22431 0.87608 0.0
C1269 C 0.80767 0.28201 0.85777 0.0
C1270 C 0.79148 0.21889 0.90741 0.0
C1271 C 0.78283 0.21064 0.94917 0.0
C1272 C 0.75117 0.20687 0.96079 0.0
C1273 C 0.72846 0.21163 0.92918 0.0
C1274 C 0.73707 0.22008 0.88744 0.0
H1275 H 0.81329 0.30578 0.8454 0.0
H1276 H 0.78976 0.28419 0.88323 0.0
H1277 H 0.82931 0.27224 0.87196 0.0
H1278 H 0.81609 0.22103 0.89963 0.0
H1279 H 0.80108 0.20712 0.97248 0.0
loop_
_geom_bond_atom_site_label_1
_geom_bond_atom_site_label_2
_geom_bond_distance
_geom_bond_site_symmetry_2
_ccdc_geom_bond_type
Zn0 N4 2.020 . S
Zn0 O8 2.019 . S
Zn0 N10 2.119 . S
Zn0 O18 1.975 . S
C1 N2 1.334 . S
C1 N5 1.336 . S
N2 C1 1.334 . S
N2 C3 1.334 1_554 S
C3 N2 1.334 1_556 S
C3 N4 1.336 . S
N4 Zn0 2.020 . S
N4 C3 1.336 . S
N4 N5 1.354 1_556 S
N5 C1 1.336 . S
N5 N4 1.354 1_554 S
N5 Zn9 2.020 . S
C6 O7 1.244 . S
C6 O30 1.257 . S
O7 C6 1.244 . S
O8 Zn0 2.019 . S
O8 C28 1.257 . S
Zn9 N5 2.020 . S
Zn9 O16 1.975 . S
Zn9 N25 2.119 . S
Zn9 O30 2.019 . S
N10 Zn0 2.119 . S
N10 C12 1.334 . S
N10 C13 1.328 . S
C11 C12 1.391 . S
C11 N14 1.329 . S
C11 H32 0.930 . S
C12 N10 1.334 . S
C12 C11 1.391 . S
C12 H19 0.930 . S
C13 N10 1.328 . S
C13 C15 1.392 . S
C13 H20 0.930 . S
N14 C11 1.329 . S
N14 C15 1.331 . S
C15 C13 1.392 . S
C15 N14 1.331 . S
O16 Zn9 1.975 . S
O16 C17 1.252 . S
C17 O16 1.252 . S
C17 O18 1.252 1_554 S
O18 Zn0 1.975 . S
O18 C17 1.252 1_556 S
H19 C12 0.930 . S
H20 C13 0.930 . S
C21 C22 1.392 . S
C21 N25 1.328 . S
C21 H27 0.930 . S
C22 C21 1.392 . S
C22 N26 1.331 . S
C23 C24 1.391 . S
C23 N26 1.329 . S
C23 H33 0.930 . S
C24 C23 1.391 . S
C24 N25 1.334 . S
C24 H31 0.930 . S
N25 Zn9 2.119 . S
N25 C21 1.328 . S
N25 C24 1.334 . S
N26 C22 1.331 . S
N26 C23 1.329 . S
H27 C21 0.930 . S
C28 O8 1.257 . S
C28 O29 1.244 . S
O29 C28 1.244 . S
O30 C6 1.257 . S
O30 Zn9 2.019 . S
H31 C24 0.930 . S
H32 C11 0.930 . S
H33 C23 0.930 . S
Zn34 N38 2.020 . S
Zn34 O42 2.019 . S
Zn34 N44 2.119 . S
Zn34 O52 1.975 . S
C35 N36 1.334 1_556 S
C35 N39 1.336 . S
N36 C35 1.334 1_554 S
N36 C37 1.334 . S
C37 N36 1.334 . S
C37 N38 1.336 . S
N38 Zn34 2.020 . S
N38 C37 1.336 . S
N38 N39 1.354 1_554 S
N39 C35 1.336 . S
N39 N38 1.354 1_556 S
N39 Zn43 2.020 . S
C40 O41 1.244 . S
C40 O64 1.257 . S
O41 C40 1.244 . S
O42 Zn34 2.019 . S
O42 C62 1.257 . S
Zn43 N39 2.020 . S
Zn43 O50 1.975 . S
Zn43 N59 2.119 . S
Zn43 O64 2.019 . S
N44 Zn34 2.119 . S
N44 C46 1.334 . S
N44 C47 1.328 . S
C45 C46 1.391 . S
C45 N48 1.329 . S
C45 H66 0.930 . S
C46 N44 1.334 . S
C46 C45 1.391 . S
C46 H53 0.930 . S
C47 N44 1.328 . S
C47 C49 1.392 . S
C47 H54 0.930 . S
N48 C45 1.329 . S
N48 C49 1.331 . S
C49 C47 1.392 . S
C49 N48 1.331 . S
O50 Zn43 1.975 . S
O50 C51 1.252 1_556 S
C51 O50 1.252 1_554 S
C51 O52 1.252 . S
O52 Zn34 1.975 . S
O52 C51 1.252 . S
H53 C46 0.930 . S
H54 C47 0.930 . S
C55 C56 1.392 . S
C55 N59 1.328 . S
C55 H61 0.930 . S
C56 C55 1.392 . S
C56 N60 1.331 . S
C57 C58 1.391 . S
C57 N60 1.329 . S
C57 H67 0.930 . S
C58 C57 1.391 . S
C58 N59 1.334 . S
C58 H65 0.930 . S
N59 Zn43 2.119 . S
N59 C55 1.328 . S
N59 C58 1.334 . S
N60 C56 1.331 . S
N60 C57 1.329 . S
H61 C55 0.930 . S
C62 O42 1.257 . S
C62 O63 1.244 . S
O63 C62 1.244 . S
O64 C40 1.257 . S
O64 Zn43 2.019 . S
H65 C58 0.930 . S
H66 C45 0.930 . S
H67 C57 0.930 . S
Zn68 N72 2.020 . S
Zn68 O76 2.019 . S
Zn68 N78 2.119 . S
Zn68 O86 1.975 . S
C69 N70 1.334 . S
C69 N73 1.336 . S
N70 C69 1.334 . S
N70 C71 1.334 1_554 S
C71 N70 1.334 1_556 S
C71 N72 1.336 . S
N72 Zn68 2.020 . S
N72 C71 1.336 . S
N72 N73 1.354 1_556 S
N73 C69 1.336 . S
N73 N72 1.354 1_554 S
N73 Zn77 2.020 . S
C74 O75 1.244 . S
C74 O98 1.257 . S
O75 C74 1.244 . S
O76 Zn68 2.019 . S
O76 C96 1.257 . S
Zn77 N73 2.020 . S
Zn77 O84 1.975 . S
Zn77 N93 2.119 . S
Zn77 O98 2.019 . S
N78 Zn68 2.119 . S
N78 C80 1.334 . S
N78 C81 1.328 . S
C79 C80 1.391 . S
C79 N82 1.329 . S
C79 H100 0.930 . S
C80 N78 1.334 . S
C80 C79 1.391 . S
C80 H87 0.930 . S
C81 N78 1.328 . S
C81 C83 1.392 . S
C81 H88 0.930 . S
N82 C79 1.329 . S
N82 C83 1.331 . S
C83 C81 1.392 . S
C83 N82 1.331 . S
O84 Zn77 1.975 . S
O84 C85 1.252 . S
C85 O84 1.252 . S
C85 O86 1.252 1_554 S
O86 Zn68 1.975 . S
O86 C85 1.252 1_556 S
H87 C80 0.930 . S
H88 C81 0.930 . S
C89 C90 1.392 . S
C89 N93 1.328 . S
C89 H95 0.930 . S
C90 C89 1.392 . S
C90 N94 1.331 . S
C91 C92 1.391 . S
C91 N94 1.329 . S
C91 H101 0.930 . S
C92 C91 1.391 . S
C92 N93 1.334 . S
C92 H99 0.930 . S
N93 Zn77 2.119 . S
N93 C89 1.328 . S
N93 C92 1.334 . S
N94 C90 1.331 . S
N94 C91 1.329 . S
H95 C89 0.930 . S
C96 O76 1.257 . S
C96 O97 1.244 . S
O97 C96 1.244 . S
O98 C74 1.257 . S
O98 Zn77 2.019 . S
H99 C92 0.930 . S
H100 C79 0.930 . S
H101 C91 0.930 . S
Zn102 N106 2.020 . S
Zn102 O110 2.019 . S
Zn102 N112 2.119 . S
Zn102 O120 1.975 . S
C103 N104 1.334 . S
C103 N107 1.336 . S
N104 C103 1.334 . S
N104 C105 1.334 1_554 S
C105 N104 1.334 1_556 S
C105 N106 1.336 . S
N106 Zn102 2.020 . S
N106 C105 1.336 . S
N106 N107 1.354 1_556 S
N107 C103 1.336 . S
N107 N106 1.354 1_554 S
N107 Zn111 2.020 . S
C108 O109 1.244 . S
C108 O132 1.257 . S
O109 C108 1.244 . S
O110 Zn102 2.019 . S
O110 C130 1.257 . S
Zn111 N107 2.020 . S
Zn111 O118 1.975 . S
Zn111 N127 2.119 . S
Zn111 O132 2.019 . S
N112 Zn102 2.119 . S
N112 C114 1.334 . S
N112 C115 1.328 . S
C113 C114 1.391 . S
C113 N116 1.329 . S
C113 H134 0.930 . S
C114 N112 1.334 . S
C114 C113 1.391 . S
C114 H121 0.930 . S
C115 N112 1.328 . S
C115 C117 1.392 . S
C115 H122 0.930 . S
N116 C113 1.329 . S
N116 C117 1.331 . S
C117 C115 1.392 . S
C117 N116 1.331 . S
O118 Zn111 1.975 . S
O118 C119 1.252 . S
C119 O118 1.252 . S
C119 O120 1.252 1_554 S
O120 Zn102 1.975 . S
O120 C119 1.252 1_556 S
H121 C114 0.930 . S
H122 C115 0.930 . S
C123 C124 1.392 . S
C123 N127 1.328 . S
C123 H129 0.930 . S
C124 C123 1.392 . S
C124 N128 1.331 . S
C125 C126 1.391 . S
C125 N128 1.329 . S
C125 H135 0.930 . S
C126 C125 1.391 . S
C126 N127 1.334 . S
C126 H133 0.930 . S
N127 Zn111 2.119 . S
N127 C123 1.328 . S
N127 C126 1.334 . S
N128 C124 1.331 . S
N128 C125 1.329 . S
H129 C123 0.930 . S
C130 O110 1.257 . S
C130 O131 1.244 . S
O131 C130 1.244 . S
O132 C108 1.257 . S
O132 Zn111 2.019 . S
H133 C126 0.930 . S
H134 C113 0.930 . S
H135 C125 0.930 . S
Zn136 N140 2.020 . S
Zn136 O144 2.019 . S
Zn136 N146 2.119 . S
Zn136 O154 1.975 . S
C137 N138 1.334 . S
C137 N141 1.336 . S
N138 C137 1.334 . S
N138 C139 1.334 . S
C139 N138 1.334 . S
C139 N140 1.336 . S
N140 Zn136 2.020 . S
N140 C139 1.336 . S
N140 N141 1.354 . S
N141 C137 1.336 . S
N141 N140 1.354 . S
N141 Zn145 2.020 . S
C142 O143 1.244 . S
C142 O166 1.257 . S
O143 C142 1.244 . S
O144 Zn136 2.019 . S
O144 C164 1.257 . S
Zn145 N141 2.020 . S
Zn145 O152 1.975 . S
Zn145 N161 2.119 . S
Zn145 O166 2.019 . S
N146 Zn136 2.119 . S
N146 C148 1.334 . S
N146 C149 1.328 . S
C147 C148 1.391 . S
C147 N150 1.329 . S
C147 H168 0.930 . S
C148 N146 1.334 . S
C148 C147 1.391 . S
C148 H155 0.930 . S
C149 N146 1.328 . S
C149 C151 1.392 . S
C149 H156 0.930 . S
N150 C147 1.329 . S
N150 C151 1.331 . S
C151 C149 1.392 . S
C151 N150 1.331 . S
O152 Zn145 1.975 . S
O152 C153 1.252 . S
C153 O152 1.252 . S
C153 O154 1.252 . S
O154 Zn136 1.975 . S
O154 C153 1.252 . S
H155 C148 0.930 . S
H156 C149 0.930 . S
C157 C158 1.392 . S
C157 N161 1.328 . S
C157 H163 0.930 . S
C158 C157 1.392 . S
C158 N162 1.331 . S
C159 C160 1.391 . S
C159 N162 1.329 . S
C159 H169 0.930 . S
C160 C159 1.391 . S
C160 N161 1.334 . S
C160 H167 0.930 . S
N161 Zn145 2.119 . S
N161 C157 1.328 . S
N161 C160 1.334 . S
N162 C158 1.331 . S
N162 C159 1.329 . S
H163 C157 0.930 . S
C164 O144 1.257 . S
C164 O165 1.244 . S
O165 C164 1.244 . S
O166 C142 1.257 . S
O166 Zn145 2.019 . S
H167 C160 0.930 . S
H168 C147 0.930 . S
H169 C159 0.930 . S
Zn170 N174 2.020 . S
Zn170 O178 2.019 . S
Zn170 N180 2.119 . S
Zn170 O188 1.975 . S
C171 N172 1.334 . S
C171 N175 1.336 . S
N172 C171 1.334 . S
N172 C173 1.334 . S
C173 N172 1.334 . S
C173 N174 1.336 . S
N174 Zn170 2.020 . S
N174 C173 1.336 . S
N174 N175 1.354 . S
N175 C171 1.336 . S
N175 N174 1.354 . S
N175 Zn179 2.020 . S
C176 O177 1.244 . S
C176 O200 1.257 . S
O177 C176 1.244 . S
O178 Zn170 2.019 . S
O178 C198 1.257 . S
Zn179 N175 2.020 . S
Zn179 O186 1.975 . S
Zn179 N195 2.119 . S
Zn179 O200 2.019 . S
N180 Zn170 2.119 . S
N180 C182 1.334 . S
N180 C183 1.328 . S
C181 C182 1.391 . S
C181 N184 1.329 . S
C181 H202 0.930 . S
C182 N180 1.334 . S
C182 C181 1.391 . S
C182 H189 0.930 . S
C183 N180 1.328 . S
C183 C185 1.392 . S
C183 H190 0.930 . S
N184 C181 1.329 . S
N184 C185 1.331 . S
C185 C183 1.392 . S
C185 N184 1.331 . S
O186 Zn179 1.975 . S
O186 C187 1.252 . S
C187 O186 1.252 . S
C187 O188 1.252 . S
O188 Zn170 1.975 . S
O188 C187 1.252 . S
H189 C182 0.930 . S
H190 C183 0.930 . S
C191 C192 1.392 . S
C191 N195 1.328 . S
C191 H197 0.930 . S
C192 C191 1.392 . S
C192 N196 1.331 . S
C193 C194 1.391 . S
C193 N196 1.329 . S
C193 H203 0.930 . S
C194 C193 1.391 . S
C194 N195 1.334 . S
C194 H201 0.930 . S
N195 Zn179 2.119 . S
N195 C191 1.328 . S
N195 C194 1.334 . S
N196 C192 1.331 . S
N196 C193 1.329 . S
H197 C191 0.930 . S
C198 O178 1.257 . S
C198 O199 1.244 . S
O199 C198 1.244 . S
O200 C176 1.257 . S
O200 Zn179 2.019 . S
H201 C194 0.930 . S
H202 C181 0.930 . S
H203 C193 0.930 . S
Zn204 N208 2.020 . S
Zn204 O212 2.019 . S
Zn204 N214 2.119 . S
Zn204 O222 1.975 . S
C205 N206 1.334 . S
C205 N209 1.336 . S
N206 C205 1.334 . S
N206 C207 1.334 . S
C207 N206 1.334 . S
C207 N208 1.336 . S
N208 Zn204 2.020 . S
N208 C207 1.336 . S
N208 N209 1.354 . S
N209 C205 1.336 . S
N209 N208 1.354 . S
N209 Zn213 2.020 . S
C210 O211 1.244 . S
C210 O234 1.257 . S
O211 C210 1.244 . S
O212 Zn204 2.019 . S
O212 C232 1.257 . S
Zn213 N209 2.020 . S
Zn213 O220 1.975 . S
Zn213 N229 2.119 . S
Zn213 O234 2.019 . S
N214 Zn204 2.119 . S
N214 C216 1.334 . S
N214 C217 1.328 . S
C215 C216 1.391 . S
C215 N218 1.329 . S
C215 H236 0.930 . S
C216 N214 1.334 . S
C216 C215 1.391 . S
C216 H223 0.930 . S
C217 N214 1.328 . S
C217 C219 1.392 . S
C217 H224 0.930 . S
N218 C215 1.329 . S
N218 C219 1.331 . S
C219 C217 1.392 . S
C219 N218 1.331 . S
O220 Zn213 1.975 . S
O220 C221 1.252 . S
C221 O220 1.252 . S
C221 O222 1.252 . S
O222 Zn204 1.975 . S
O222 C221 1.252 . S
H223 C216 0.930 . S
H224 C217 0.930 . S
C225 C226 1.392 . S
C225 N229 1.328 . S
C225 H231 0.930 . S
C226 C225 1.392 . S
C226 N230 1.331 . S
C227 C228 1.391 . S
C227 N230 1.329 . S
C227 H237 0.930 . S
C228 C227 1.391 . S
C228 N229 1.334 . S
C228 H235 0.930 . S
N229 Zn213 2.119 . S
N229 C225 1.328 . S
N229 C228 1.334 . S
N230 C226 1.331 . S
N230 C227 1.329 . S
H231 C225 0.930 . S
C232 O212 1.257 . S
C232 O233 1.244 . S
O233 C232 1.244 . S
O234 C210 1.257 . S
O234 Zn213 2.019 . S
H235 C228 0.930 . S
H236 C215 0.930 . S
H237 C227 0.930 . S
Zn238 N242 2.020 . S
Zn238 O246 2.019 . S
Zn238 N248 2.119 . S
Zn238 O256 1.975 . S
C239 N240 1.334 . S
C239 N243 1.336 . S
N240 C239 1.334 . S
N240 C241 1.334 . S
C241 N240 1.334 . S
C241 N242 1.336 . S
N242 Zn238 2.020 . S
N242 C241 1.336 . S
N242 N243 1.354 . S
N243 C239 1.336 . S
N243 N242 1.354 . S
N243 Zn247 2.020 . S
C244 O245 1.244 . S
C244 O268 1.257 . S
O245 C244 1.244 . S
O246 Zn238 2.019 . S
O246 C266 1.257 . S
Zn247 N243 2.020 . S
Zn247 O254 1.975 . S
Zn247 N263 2.119 . S
Zn247 O268 2.019 . S
N248 Zn238 2.119 . S
N248 C250 1.334 . S
N248 C251 1.328 . S
C249 C250 1.391 . S
C249 N252 1.329 . S
C249 H270 0.930 . S
C250 N248 1.334 . S
C250 C249 1.391 . S
C250 H257 0.930 . S
C251 N248 1.328 . S
C251 C253 1.392 . S
C251 H258 0.930 . S
N252 C249 1.329 . S
N252 C253 1.331 . S
C253 C251 1.392 . S
C253 N252 1.331 . S
O254 Zn247 1.975 . S
O254 C255 1.252 . S
C255 O254 1.252 . S
C255 O256 1.252 . S
O256 Zn238 1.975 . S
O256 C255 1.252 . S
H257 C250 0.930 . S
H258 C251 0.930 . S
C259 C260 1.392 . S
C259 N263 1.328 . S
C259 H265 0.930 . S
C260 C259 1.392 . S
C260 N264 1.331 . S
C261 C262 1.391 . S
C261 N264 1.329 . S
C261 H271 0.930 . S
C262 C261 1.391 . S
C262 N263 1.334 . S
C262 H269 0.930 . S
N263 Zn247 2.119 . S
N263 C259 1.328 . S
N263 C262 1.334 . S
N264 C260 1.331 . S
N264 C261 1.329 . S
H265 C259 0.930 . S
C266 O246 1.257 . S
C266 O267 1.244 . S
O267 C266 1.244 . S
O268 C244 1.257 . S
O268 Zn247 2.019 . S
H269 C262 0.930 . S
H270 C249 0.930 . S
H271 C261 0.930 . S
H272 C280 0.929 . S
H273 C282 0.930 . S
H274 C284 0.930 . S
H275 C287 0.929 . S
H276 C290 0.930 . S
H277 C292 0.960 . S
H278 C292 0.960 1_554 S
H279 C292 0.960 . S
C280 H272 0.929 . S
C280 C281 1.392 . S
C280 C282 1.384 . S
C281 C280 1.392 . S
C281 C287 1.376 1_554 S
C282 H273 0.930 . S
C282 C280 1.384 . S
C282 C283 1.372 . S
C283 C282 1.372 . S
C283 C284 1.400 1_554 S
C283 C288 1.490 . S
C284 H274 0.930 . S
C284 C283 1.400 1_556 S
C284 C287 1.386 . S
H285 C301 0.930 . S
H286 C302 0.931 . S
C287 H275 0.929 . S
C287 C281 1.376 1_556 S
C287 C284 1.386 . S
C288 C283 1.490 . S
C288 C290 1.395 . S
C288 C291 1.403 1_454 S
H289 C295 0.930 . S
C290 H276 0.930 . S
C290 C288 1.395 . S
C290 C293 1.403 . S
C291 C288 1.403 1_656 S
C291 C292 1.524 . S
C291 C295 1.400 . S
C292 H277 0.960 . S
C292 H278 0.960 1_556 S
C292 H279 0.960 . S
C292 C291 1.524 . S
C293 C290 1.403 . S
C293 C294 1.392 1_455 S
C293 C297 1.495 . S
C294 C293 1.392 1_655 S
C294 C295 1.385 1_554 S
C294 C296 1.478 . S
C295 H289 0.930 . S
C295 C291 1.400 . S
C295 C294 1.385 1_556 S
C296 C294 1.478 . S
C296 C298 1.381 . S
C296 C302 1.383 1_554 S
C297 C293 1.495 . S
C297 H303 0.959 . S
C297 H304 0.961 1_554 S
C297 H305 0.960 . S
C298 C296 1.381 . S
C298 C299 1.394 . S
C298 H306 0.930 . S
C299 C298 1.394 . S
C299 C300 1.391 . S
C299 H307 0.929 . S
C300 C299 1.391 . S
C300 C301 1.369 1_554 S
C301 H285 0.930 . S
C301 C300 1.369 1_556 S
C301 C302 1.379 . S
C302 H286 0.931 . S
C302 C296 1.383 1_556 S
C302 C301 1.379 . S
H303 C297 0.959 . S
H304 C297 0.961 1_556 S
H305 C297 0.960 . S
H306 C298 0.930 . S
H307 C299 0.929 . S
H308 C316 0.929 . S
H309 C318 0.930 . S
H310 C320 0.930 . S
H311 C323 0.929 . S
H312 C326 0.930 . S
H313 C328 0.960 . S
H314 C328 0.960 . S
H315 C328 0.960 1_565 S
C316 H308 0.929 . S
C316 C317 1.384 . S
C316 C318 1.384 . S
C317 C316 1.384 . S
C317 C323 1.383 1_554 S
C318 H309 0.930 . S
C318 C316 1.384 . S
C318 C319 1.372 . S
C319 C318 1.372 . S
C319 C320 1.400 1_554 S
C319 C324 1.490 . S
C320 H310 0.930 . S
C320 C319 1.400 1_556 S
C320 C323 1.386 . S
H321 C337 0.930 . S
H322 C338 0.931 . S
C323 H311 0.929 . S
C323 C317 1.383 1_556 S
C323 C320 1.386 . S
C324 C319 1.490 . S
C324 C326 1.395 . S
C324 C327 1.403 1_564 S
H325 C331 0.930 . S
C326 H312 0.930 . S
C326 C324 1.395 . S
C326 C329 1.403 . S
C327 C324 1.403 1_546 S
C327 C328 1.524 . S
C327 C331 1.400 . S
C328 H313 0.960 . S
C328 H314 0.960 . S
C328 H315 0.960 1_545 S
C328 C327 1.524 . S
C329 C326 1.403 . S
C329 C330 1.392 1_565 S
C329 C333 1.495 . S
C330 C329 1.392 1_545 S
C330 C331 1.385 1_554 S
C330 C332 1.478 . S
C331 H325 0.930 . S
C331 C327 1.400 . S
C331 C330 1.385 1_556 S
C332 C330 1.478 . S
C332 C334 1.381 . S
C332 C338 1.383 1_554 S
C333 C329 1.495 . S
C333 H339 0.959 . S
C333 H340 0.961 . S
C333 H341 0.960 1_565 S
C334 C332 1.381 . S
C334 C335 1.394 . S
C334 H342 0.930 . S
C335 C334 1.394 . S
C335 C336 1.383 . S
C335 H343 0.929 . S
C336 C335 1.383 . S
C336 C337 1.377 1_554 S
C337 H321 0.930 . S
C337 C336 1.377 1_556 S
C337 C338 1.379 . S
C338 H322 0.931 . S
C338 C332 1.383 1_556 S
C338 C337 1.379 . S
H339 C333 0.959 . S
H340 C333 0.961 . S
H341 C333 0.960 1_545 S
H342 C334 0.930 . S
H343 C335 0.929 . S
H344 C352 0.929 . S
H345 C354 0.930 . S
H346 C356 0.930 . S
H347 C359 0.929 . S
H348 C362 0.930 . S
H349 C364 0.960 . S
H350 C364 0.960 . S
H351 C364 0.960 . S
C352 H344 0.929 . S
C352 C353 1.377 . S
C352 C354 1.384 . S
C353 C352 1.377 . S
C353 C359 1.390 . S
C354 H345 0.930 . S
C354 C352 1.384 . S
C354 C355 1.372 . S
C355 C354 1.372 . S
C355 C356 1.400 . S
C355 C360 1.490 . S
C356 H346 0.930 . S
C356 C355 1.400 . S
C356 C359 1.386 . S
H357 C373 0.930 . S
H358 C374 0.931 . S
C359 H347 0.929 . S
C359 C353 1.390 . S
C359 C356 1.386 . S
C360 C355 1.490 . S
C360 C362 1.395 1_455 S
C360 C363 1.403 . S
H361 C367 0.930 . S
C362 H348 0.930 . S
C362 C360 1.395 1_655 S
C362 C365 1.403 . S
C363 C360 1.403 . S
C363 C364 1.524 . S
C363 C367 1.400 . S
C364 H349 0.960 . S
C364 H350 0.960 . S
C364 H351 0.960 . S
C364 C363 1.524 . S
C365 C362 1.403 . S
C365 C366 1.392 . S
C365 C369 1.495 . S
C366 C365 1.392 . S
C366 C367 1.385 1_655 S
C366 C368 1.478 . S
C367 H361 0.930 . S
C367 C363 1.400 . S
C367 C366 1.385 1_455 S
C368 C366 1.478 . S
C368 C370 1.381 . S
C368 C374 1.383 . S
C369 C365 1.495 . S
C369 H375 0.959 . S
C369 H376 0.961 . S
C369 H377 0.960 . S
C370 C368 1.381 . S
C370 C371 1.394 . S
C370 H378 0.930 . S
C371 C370 1.394 . S
C371 C372 1.383 . S
C371 H379 0.929 . S
C372 C371 1.383 . S
C372 C373 1.377 . S
C373 H357 0.930 . S
C373 C372 1.377 . S
C373 C374 1.379 . S
C374 H358 0.931 . S
C374 C368 1.383 . S
C374 C373 1.379 . S
H375 C369 0.959 . S
H376 C369 0.961 . S
H377 C369 0.960 . S
H378 C370 0.930 . S
H379 C371 0.929 . S
H380 C388 0.929 . S
H381 C390 0.930 . S
H382 C392 0.930 . S
H383 C395 0.929 . S
H384 C398 0.930 . S
H385 C400 0.960 . S
H386 C400 0.960 . S
H387 C400 0.960 . S
C388 H380 0.929 . S
C388 C389 1.377 . S
C388 C390 1.384 . S
C389 C388 1.377 . S
C389 C395 1.390 . S
C390 H381 0.930 . S
C390 C388 1.384 . S
C390 C391 1.372 . S
C391 C390 1.372 . S
C391 C392 1.400 . S
C391 C396 1.490 . S
C392 H382 0.930 . S
C392 C391 1.400 . S
C392 C395 1.386 . S
H393 C409 0.930 . S
H394 C410 0.931 . S
C395 H383 0.929 . S
C395 C389 1.390 . S
C395 C392 1.386 . S
C396 C391 1.490 . S
C396 C398 1.395 1_565 S
C396 C399 1.403 . S
H397 C403 0.930 . S
C398 H384 0.930 . S
C398 C396 1.395 1_545 S
C398 C401 1.403 . S
C399 C396 1.403 . S
C399 C400 1.524 . S
C399 C403 1.400 . S
C400 H385 0.960 . S
C400 H386 0.960 . S
C400 H387 0.960 . S
C400 C399 1.524 . S
C401 C398 1.403 . S
C401 C402 1.392 . S
C401 C405 1.495 . S
C402 C401 1.392 . S
C402 C403 1.385 1_545 S
C402 C404 1.478 . S
C403 H397 0.930 . S
C403 C399 1.400 . S
C403 C402 1.385 1_565 S
C404 C402 1.478 . S
C404 C406 1.381 . S
C404 C410 1.383 . S
C405 C401 1.495 . S
C405 H411 0.959 . S
C405 H412 0.961 . S
C405 H413 0.960 . S
C406 C404 1.381 . S
C406 C407 1.394 . S
C406 H414 0.930 . S
C407 C406 1.394 . S
C407 C408 1.383 . S
C407 H415 0.929 . S
C408 C407 1.383 . S
C408 C409 1.377 . S
C409 H393 0.930 . S
C409 C408 1.377 . S
C409 C410 1.379 . S
C410 H394 0.931 . S
C410 C404 1.383 . S
C410 C409 1.379 . S
H411 C405 0.959 . S
H412 C405 0.961 . S
H413 C405 0.960 . S
H414 C406 0.930 . S
H415 C407 0.929 . S
H416 C424 0.929 . S
H417 C426 0.930 . S
H418 C428 0.930 . S
H419 C431 0.929 . S
H420 C434 0.930 . S
H421 C436 0.960 . S
H422 C436 0.960 . S
H423 C436 0.960 . S
C424 H416 0.929 . S
C424 C425 1.377 . S
C424 C426 1.384 . S
C425 C424 1.377 . S
C425 C431 1.390 . S
C426 H417 0.930 . S
C426 C424 1.384 . S
C426 C427 1.372 . S
C427 C426 1.372 . S
C427 C428 1.400 . S
C427 C432 1.490 . S
C428 H418 0.930 . S
C428 C427 1.400 . S
C428 C431 1.386 . S
H429 C445 0.930 . S
H430 C446 0.931 . S
C431 H419 0.929 . S
C431 C425 1.390 . S
C431 C428 1.386 . S
C432 C427 1.490 . S
C432 C434 1.395 . S
C432 C435 1.403 . S
H433 C439 0.930 . S
C434 H420 0.930 . S
C434 C432 1.395 . S
C434 C437 1.403 . S
C435 C432 1.403 . S
C435 C436 1.524 . S
C435 C439 1.400 . S
C436 H421 0.960 . S
C436 H422 0.960 . S
C436 H423 0.960 . S
C436 C435 1.524 . S
C437 C434 1.403 . S
C437 C438 1.392 . S
C437 C441 1.495 . S
C438 C437 1.392 . S
C438 C439 1.385 . S
C438 C440 1.478 . S
C439 H433 0.930 . S
C439 C435 1.400 . S
C439 C438 1.385 . S
C440 C438 1.478 . S
C440 C442 1.381 . S
C440 C446 1.383 . S
C441 C437 1.495 . S
C441 H447 0.959 . S
C441 H448 0.961 . S
C441 H449 0.960 . S
C442 C440 1.381 . S
C442 C443 1.394 . S
C442 H450 0.930 . S
C443 C442 1.394 . S
C443 C444 1.383 . S
C443 H451 0.929 . S
C444 C443 1.383 . S
C444 C445 1.377 . S
C445 H429 0.930 . S
C445 C444 1.377 . S
C445 C446 1.379 . S
C446 H430 0.931 . S
C446 C440 1.383 . S
C446 C445 1.379 . S
H447 C441 0.959 . S
H448 C441 0.961 . S
H449 C441 0.960 . S
H450 C442 0.930 . S
H451 C443 0.929 . S
H452 C460 0.929 . S
H453 C462 0.930 . S
H454 C464 0.930 . S
H455 C467 0.929 . S
H456 C470 0.930 . S
H457 C472 0.960 . S
H458 C472 0.960 . S
H459 C472 0.960 . S
C460 H452 0.929 . S
C460 C461 1.377 . S
C460 C462 1.384 . S
C461 C460 1.377 . S
C461 C467 1.390 . S
C462 H453 0.930 . S
C462 C460 1.384 . S
C462 C463 1.372 . S
C463 C462 1.372 . S
C463 C464 1.400 . S
C463 C468 1.490 . S
C464 H454 0.930 . S
C464 C463 1.400 . S
C464 C467 1.386 . S
H465 C481 0.930 . S
H466 C482 0.931 . S
C467 H455 0.929 . S
C467 C461 1.390 . S
C467 C464 1.386 . S
C468 C463 1.490 . S
C468 C470 1.395 . S
C468 C471 1.403 . S
H469 C475 0.930 . S
C470 H456 0.930 . S
C470 C468 1.395 . S
C470 C473 1.403 . S
C471 C468 1.403 . S
C471 C472 1.524 . S
C471 C475 1.400 . S
C472 H457 0.960 . S
C472 H458 0.960 . S
C472 H459 0.960 . S
C472 C471 1.524 . S
C473 C470 1.403 . S
C473 C474 1.392 . S
C473 C477 1.495 . S
C474 C473 1.392 . S
C474 C475 1.385 . S
C474 C476 1.478 . S
C475 H469 0.930 . S
C475 C471 1.400 . S
C475 C474 1.385 . S
C476 C474 1.478 . S
C476 C478 1.381 . S
C476 C482 1.383 . S
C477 C473 1.495 . S
C477 H483 0.959 . S
C477 H484 0.961 . S
C477 H485 0.960 . S
C478 C476 1.381 . S
C478 C479 1.394 . S
C478 H486 0.930 . S
C479 C478 1.394 . S
C479 C480 1.383 . S
C479 H487 0.929 . S
C480 C479 1.383 . S
C480 C481 1.377 . S
C481 H465 0.930 . S
C481 C480 1.377 . S
C481 C482 1.379 . S
C482 H466 0.931 . S
C482 C476 1.383 . S
C482 C481 1.379 . S
H483 C477 0.959 . S
H484 C477 0.961 . S
H485 C477 0.960 . S
H486 C478 0.930 . S
H487 C479 0.929 . S
H488 C496 0.929 . S
H489 C498 0.930 . S
H490 C500 0.930 . S
H491 C503 0.929 . S
H492 C506 0.930 . S
H493 C508 0.960 . S
H494 C508 0.960 . S
H495 C508 0.960 . S
C496 H488 0.929 . S
C496 C497 1.377 . S
C496 C498 1.384 . S
C497 C496 1.377 . S
C497 C503 1.390 . S
C498 H489 0.930 . S
C498 C496 1.384 . S
C498 C499 1.372 . S
C499 C498 1.372 . S
C499 C500 1.400 . S
C499 C504 1.490 . S
C500 H490 0.930 . S
C500 C499 1.400 . S
C500 C503 1.386 . S
H501 C517 0.930 . S
H502 C518 0.931 . S
C503 H491 0.929 . S
C503 C497 1.390 . S
C503 C500 1.386 . S
C504 C499 1.490 . S
C504 C506 1.395 . S
C504 C507 1.403 . S
H505 C511 0.930 . S
C506 H492 0.930 . S
C506 C504 1.395 . S
C506 C509 1.403 . S
C507 C504 1.403 . S
C507 C508 1.524 . S
C507 C511 1.400 . S
C508 H493 0.960 . S
C508 H494 0.960 . S
C508 H495 0.960 . S
C508 C507 1.524 . S
C509 C506 1.403 . S
C509 C510 1.392 . S
C509 C513 1.495 . S
C510 C509 1.392 . S
C510 C511 1.385 . S
C510 C512 1.478 . S
C511 H505 0.930 . S
C511 C507 1.400 . S
C511 C510 1.385 . S
C512 C510 1.478 . S
C512 C514 1.381 . S
C512 C518 1.383 . S
C513 C509 1.495 . S
C513 H519 0.959 . S
C513 H520 0.961 . S
C513 H521 0.960 . S
C514 C512 1.381 . S
C514 C515 1.394 . S
C514 H522 0.930 . S
C515 C514 1.394 . S
C515 C516 1.383 . S
C515 H523 0.929 . S
C516 C515 1.383 . S
C516 C517 1.377 . S
C517 H501 0.930 . S
C517 C516 1.377 . S
C517 C518 1.379 . S
C518 H502 0.931 . S
C518 C512 1.383 . S
C518 C517 1.379 . S
H519 C513 0.959 . S
H520 C513 0.961 . S
H521 C513 0.960 . S
H522 C514 0.930 . S
H523 C515 0.929 . S
H524 C532 0.929 . S
H525 C534 0.930 . S
H526 C536 0.930 . S
H527 C539 0.929 . S
H528 C542 0.930 . S
H529 C544 0.960 . S
H530 C544 0.960 . S
H531 C544 0.960 . S
C532 H524 0.929 . S
C532 C533 1.377 . S
C532 C534 1.384 . S
C533 C532 1.377 . S
C533 C539 1.390 . S
C534 H525 0.930 . S
C534 C532 1.384 . S
C534 C535 1.372 . S
C535 C534 1.372 . S
C535 C536 1.400 . S
C535 C540 1.490 . S
C536 H526 0.930 . S
C536 C535 1.400 . S
C536 C539 1.386 . S
H537 C553 0.930 . S
H538 C554 0.931 . S
C539 H527 0.929 . S
C539 C533 1.390 . S
C539 C536 1.386 . S
C540 C535 1.490 . S
C540 C542 1.395 . S
C540 C543 1.403 . S
H541 C547 0.930 . S
C542 H528 0.930 . S
C542 C540 1.395 . S
C542 C545 1.403 . S
C543 C540 1.403 . S
C543 C544 1.524 . S
C543 C547 1.400 . S
C544 H529 0.960 . S
C544 H530 0.960 . S
C544 H531 0.960 . S
C544 C543 1.524 . S
C545 C542 1.403 . S
C545 C546 1.392 . S
C545 C549 1.495 . S
C546 C545 1.392 . S
C546 C547 1.385 . S
C546 C548 1.478 . S
C547 H541 0.930 . S
C547 C543 1.400 . S
C547 C546 1.385 . S
C548 C546 1.478 . S
C548 C550 1.381 . S
C548 C554 1.383 . S
C549 C545 1.495 . S
C549 H555 0.959 . S
C549 H556 0.961 . S
C549 H557 0.960 . S
C550 C548 1.381 . S
C550 C551 1.394 . S
C550 H558 0.930 . S
C551 C550 1.394 . S
C551 C552 1.383 . S
C551 H559 0.929 . S
C552 C551 1.383 . S
C552 C553 1.377 . S
C553 H537 0.930 . S
C553 C552 1.377 . S
C553 C554 1.379 . S
C554 H538 0.931 . S
C554 C548 1.383 . S
C554 C553 1.379 . S
H555 C549 0.959 . S
H556 C549 0.961 . S
H557 C549 0.960 . S
H558 C550 0.930 . S
H559 C551 0.929 . S
H560 C568 0.929 . S
H561 C570 0.930 . S
H562 C572 0.930 . S
H563 C575 0.929 . S
H564 C578 0.930 . S
H565 C580 0.960 . S
H566 C580 0.960 . S
H567 C580 0.960 . S
C568 H560 0.929 . S
C568 C569 1.377 . S
C568 C570 1.384 . S
C569 C568 1.377 . S
C569 C575 1.390 . S
C570 H561 0.930 . S
C570 C568 1.384 . S
C570 C571 1.372 . S
C571 C570 1.372 . S
C571 C572 1.400 . S
C571 C576 1.490 . S
C572 H562 0.930 . S
C572 C571 1.400 . S
C572 C575 1.386 . S
H573 C589 0.930 . S
H574 C590 0.931 . S
C575 H563 0.929 . S
C575 C569 1.390 . S
C575 C572 1.386 . S
C576 C571 1.490 . S
C576 C578 1.395 . S
C576 C579 1.403 . S
H577 C583 0.930 . S
C578 H564 0.930 . S
C578 C576 1.395 . S
C578 C581 1.403 . S
C579 C576 1.403 . S
C579 C580 1.524 . S
C579 C583 1.400 . S
C580 H565 0.960 . S
C580 H566 0.960 . S
C580 H567 0.960 . S
C580 C579 1.524 . S
C581 C578 1.403 . S
C581 C582 1.392 . S
C581 C585 1.495 . S
C582 C581 1.392 . S
C582 C583 1.385 . S
C582 C584 1.478 . S
C583 H577 0.930 . S
C583 C579 1.400 . S
C583 C582 1.385 . S
C584 C582 1.478 . S
C584 C586 1.381 . S
C584 C590 1.383 . S
C585 C581 1.495 . S
C585 H591 0.959 . S
C585 H592 0.961 . S
C585 H593 0.960 . S
C586 C584 1.381 . S
C586 C587 1.394 . S
C586 H594 0.930 . S
C587 C586 1.394 . S
C587 C588 1.383 . S
C587 H595 0.929 . S
C588 C587 1.383 . S
C588 C589 1.377 . S
C589 H573 0.930 . S
C589 C588 1.377 . S
C589 C590 1.379 . S
C590 H574 0.931 . S
C590 C584 1.383 . S
C590 C589 1.379 . S
H591 C585 0.959 . S
H592 C585 0.961 . S
H593 C585 0.960 . S
H594 C586 0.930 . S
H595 C587 0.929 . S
H596 C604 0.929 . S
H597 C606 0.930 . S
H598 C608 0.930 . S
H599 C611 0.929 . S
H600 C614 0.930 . S
H601 C616 0.960 . S
H602 C616 0.960 . S
H603 C616 0.960 . S
C604 H596 0.929 . S
C604 C605 1.377 . S
C604 C606 1.384 . S
C605 C604 1.377 . S
C605 C611 1.390 . S
C606 H597 0.930 . S
C606 C604 1.384 . S
C606 C607 1.372 . S
C607 C606 1.372 . S
C607 C608 1.400 . S
C607 C612 1.490 . S
C608 H598 0.930 . S
C608 C607 1.400 . S
C608 C611 1.386 . S
H609 C625 0.930 . S
H610 C626 0.931 . S
C611 H599 0.929 . S
C611 C605 1.390 . S
C611 C608 1.386 . S
C612 C607 1.490 . S
C612 C614 1.395 . S
C612 C615 1.403 . S
H613 C619 0.930 . S
C614 H600 0.930 . S
C614 C612 1.395 . S
C614 C617 1.403 . S
C615 C612 1.403 . S
C615 C616 1.524 . S
C615 C619 1.400 . S
C616 H601 0.960 . S
C616 H602 0.960 . S
C616 H603 0.960 . S
C616 C615 1.524 . S
C617 C614 1.403 . S
C617 C618 1.392 . S
C617 C621 1.495 . S
C618 C617 1.392 . S
C618 C619 1.385 . S
C618 C620 1.478 . S
C619 H613 0.930 . S
C619 C615 1.400 . S
C619 C618 1.385 . S
C620 C618 1.478 . S
C620 C622 1.381 . S
C620 C626 1.383 . S
C621 C617 1.495 . S
C621 H627 0.959 . S
C621 H628 0.961 . S
C621 H629 0.960 . S
C622 C620 1.381 . S
C622 C623 1.394 . S
C622 H630 0.930 . S
C623 C622 1.394 . S
C623 C624 1.383 . S
C623 H631 0.929 . S
C624 C623 1.383 . S
C624 C625 1.377 . S
C625 H609 0.930 . S
C625 C624 1.377 . S
C625 C626 1.379 . S
C626 H610 0.931 . S
C626 C620 1.383 . S
C626 C625 1.379 . S
H627 C621 0.959 . S
H628 C621 0.961 . S
H629 C621 0.960 . S
H630 C622 0.930 . S
H631 C623 0.929 . S
H632 C640 0.929 . S
H633 C642 0.930 . S
H634 C644 0.930 . S
H635 C647 0.929 . S
H636 C650 0.930 . S
H637 C652 0.960 . S
H638 C652 0.960 . S
H639 C652 0.960 . S
C640 H632 0.929 . S
C640 C641 1.377 . S
C640 C642 1.384 . S
C641 C640 1.377 . S
C641 C647 1.390 . S
C642 H633 0.930 . S
C642 C640 1.384 . S
C642 C643 1.372 . S
C643 C642 1.372 . S
C643 C644 1.400 . S
C643 C648 1.490 . S
C644 H634 0.930 . S
C644 C643 1.400 . S
C644 C647 1.386 . S
H645 C661 0.930 . S
H646 C662 0.931 . S
C647 H635 0.929 . S
C647 C641 1.390 . S
C647 C644 1.386 . S
C648 C643 1.490 . S
C648 C650 1.395 . S
C648 C651 1.403 . S
H649 C655 0.930 . S
C650 H636 0.930 . S
C650 C648 1.395 . S
C650 C653 1.403 . S
C651 C648 1.403 . S
C651 C652 1.524 . S
C651 C655 1.400 . S
C652 H637 0.960 . S
C652 H638 0.960 . S
C652 H639 0.960 . S
C652 C651 1.524 . S
C653 C650 1.403 . S
C653 C654 1.392 . S
C653 C657 1.495 . S
C654 C653 1.392 . S
C654 C655 1.385 . S
C654 C656 1.478 . S
C655 H649 0.930 . S
C655 C651 1.400 . S
C655 C654 1.385 . S
C656 C654 1.478 . S
C656 C658 1.381 . S
C656 C662 1.383 . S
C657 C653 1.495 . S
C657 H663 0.959 . S
C657 H664 0.961 . S
C657 H665 0.960 . S
C658 C656 1.381 . S
C658 C659 1.394 . S
C658 H666 0.930 . S
C659 C658 1.394 . S
C659 C660 1.383 . S
C659 H667 0.929 . S
C660 C659 1.383 . S
C660 C661 1.377 . S
C661 H645 0.930 . S
C661 C660 1.377 . S
C661 C662 1.379 . S
C662 H646 0.931 . S
C662 C656 1.383 . S
C662 C661 1.379 . S
H663 C657 0.959 . S
H664 C657 0.961 . S
H665 C657 0.960 . S
H666 C658 0.930 . S
H667 C659 0.929 . S
H668 C676 0.929 . S
H669 C678 0.930 . S
H670 C680 0.930 . S
H671 C683 0.929 . S
H672 C686 0.930 . S
H673 C688 0.960 . S
H674 C688 0.960 . S
H675 C688 0.960 . S
C676 H668 0.929 . S
C676 C677 1.377 . S
C676 C678 1.384 . S
C677 C676 1.377 . S
C677 C683 1.390 . S
C678 H669 0.930 . S
C678 C676 1.384 . S
C678 C679 1.372 . S
C679 C678 1.372 . S
C679 C680 1.400 . S
C679 C684 1.490 . S
C680 H670 0.930 . S
C680 C679 1.400 . S
C680 C683 1.386 . S
H681 C697 0.930 . S
H682 C698 0.931 . S
C683 H671 0.929 . S
C683 C677 1.390 . S
C683 C680 1.386 . S
C684 C679 1.490 . S
C684 C686 1.395 . S
C684 C687 1.403 . S
H685 C691 0.930 . S
C686 H672 0.930 . S
C686 C684 1.395 . S
C686 C689 1.403 . S
C687 C684 1.403 . S
C687 C688 1.524 . S
C687 C691 1.400 . S
C688 H673 0.960 . S
C688 H674 0.960 . S
C688 H675 0.960 . S
C688 C687 1.524 . S
C689 C686 1.403 . S
C689 C690 1.392 . S
C689 C693 1.495 . S
C690 C689 1.392 . S
C690 C691 1.385 . S
C690 C692 1.478 . S
C691 H685 0.930 . S
C691 C687 1.400 . S
C691 C690 1.385 . S
C692 C690 1.478 . S
C692 C694 1.381 . S
C692 C698 1.383 . S
C693 C689 1.495 . S
C693 H699 0.959 . S
C693 H700 0.961 . S
C693 H701 0.960 . S
C694 C692 1.381 . S
C694 C695 1.394 . S
C694 H702 0.930 . S
C695 C694 1.394 . S
C695 C696 1.383 . S
C695 H703 0.929 . S
C696 C695 1.383 . S
C696 C697 1.377 . S
C697 H681 0.930 . S
C697 C696 1.377 . S
C697 C698 1.379 . S
C698 H682 0.931 . S
C698 C692 1.383 . S
C698 C697 1.379 . S
H699 C693 0.959 . S
H700 C693 0.961 . S
H701 C693 0.960 . S
H702 C694 0.930 . S
H703 C695 0.929 . S
H704 C712 0.929 . S
H705 C714 0.930 . S
H706 C716 0.930 . S
H707 C719 0.929 . S
H708 C722 0.930 . S
H709 C724 0.960 . S
H710 C724 0.960 . S
H711 C724 0.960 1_565 S
C712 H704 0.929 . S
C712 C713 1.377 . S
C712 C714 1.384 . S
C713 C712 1.377 . S
C713 C719 1.390 . S
C714 H705 0.930 . S
C714 C712 1.384 . S
C714 C715 1.372 . S
C715 C714 1.372 . S
C715 C716 1.400 . S
C715 C720 1.490 . S
C716 H706 0.930 . S
C716 C715 1.400 . S
C716 C719 1.386 . S
H717 C733 0.930 . S
H718 C734 0.931 . S
C719 H707 0.929 . S
C719 C713 1.390 . S
C719 C716 1.386 . S
C720 C715 1.490 . S
C720 C722 1.395 . S
C720 C723 1.403 1_565 S
H721 C727 0.930 . S
C722 H708 0.930 . S
C722 C720 1.395 . S
C722 C725 1.403 . S
C723 C720 1.403 1_545 S
C723 C724 1.524 . S
C723 C727 1.400 . S
C724 H709 0.960 . S
C724 H710 0.960 . S
C724 H711 0.960 1_545 S
C724 C723 1.524 . S
C725 C722 1.403 . S
C725 C726 1.392 1_565 S
C725 C729 1.495 . S
C726 C725 1.392 1_545 S
C726 C727 1.385 . S
C726 C728 1.478 . S
C727 H721 0.930 . S
C727 C723 1.400 . S
C727 C726 1.385 . S
C728 C726 1.478 . S
C728 C730 1.381 . S
C728 C734 1.383 . S
C729 C725 1.495 . S
C729 H735 0.959 . S
C729 H736 0.961 . S
C729 H737 0.960 1_565 S
C730 C728 1.381 . S
C730 C731 1.394 . S
C730 H738 0.930 . S
C731 C730 1.394 . S
C731 C732 1.383 . S
C731 H739 0.929 . S
C732 C731 1.383 . S
C732 C733 1.377 . S
C733 H717 0.930 . S
C733 C732 1.377 . S
C733 C734 1.379 . S
C734 H718 0.931 . S
C734 C728 1.383 . S
C734 C733 1.379 . S
H735 C729 0.959 . S
H736 C729 0.961 . S
H737 C729 0.960 1_545 S
H738 C730 0.930 . S
H739 C731 0.929 . S
H740 C748 0.929 . S
H741 C750 0.930 . S
H742 C752 0.930 . S
H743 C755 0.929 . S
H744 C758 0.930 . S
H745 C760 0.960 . S
H746 C760 0.960 . S
H747 C760 0.960 . S
C748 H740 0.929 . S
C748 C749 1.377 . S
C748 C750 1.384 . S
C749 C748 1.377 . S
C749 C755 1.390 . S
C750 H741 0.930 . S
C750 C748 1.384 . S
C750 C751 1.372 . S
C751 C750 1.372 . S
C751 C752 1.400 . S
C751 C756 1.490 . S
C752 H742 0.930 . S
C752 C751 1.400 . S
C752 C755 1.386 . S
H753 C769 0.930 . S
H754 C770 0.931 . S
C755 H743 0.929 . S
C755 C749 1.390 . S
C755 C752 1.386 . S
C756 C751 1.490 . S
C756 C758 1.395 . S
C756 C759 1.403 1_455 S
H757 C763 0.930 . S
C758 H744 0.930 . S
C758 C756 1.395 . S
C758 C761 1.403 . S
C759 C756 1.403 1_655 S
C759 C760 1.524 . S
C759 C763 1.400 . S
C760 H745 0.960 . S
C760 H746 0.960 . S
C760 H747 0.960 . S
C760 C759 1.524 . S
C761 C758 1.403 . S
C761 C762 1.392 1_455 S
C761 C765 1.495 . S
C762 C761 1.392 1_655 S
C762 C763 1.385 . S
C762 C764 1.478 . S
C763 H757 0.930 . S
C763 C759 1.400 . S
C763 C762 1.385 . S
C764 C762 1.478 . S
C764 C766 1.381 . S
C764 C770 1.383 . S
C765 C761 1.495 . S
C765 H771 0.959 . S
C765 H772 0.961 . S
C765 H773 0.960 . S
C766 C764 1.381 . S
C766 C767 1.394 . S
C766 H774 0.930 . S
C767 C766 1.394 . S
C767 C768 1.383 . S
C767 H775 0.929 . S
C768 C767 1.383 . S
C768 C769 1.377 . S
C769 H753 0.930 . S
C769 C768 1.377 . S
C769 C770 1.379 . S
C770 H754 0.931 . S
C770 C764 1.383 . S
C770 C769 1.379 . S
H771 C765 0.959 . S
H772 C765 0.961 . S
H773 C765 0.960 . S
H774 C766 0.930 . S
H775 C767 0.929 . S
H776 C784 0.929 . S
H777 C786 0.930 . S
H778 C788 0.930 . S
H779 C791 0.929 . S
H780 C794 0.930 . S
H781 C796 0.960 . S
H782 C796 0.960 . S
H783 C796 0.960 . S
C784 H776 0.929 . S
C784 C785 1.377 . S
C784 C786 1.384 . S
C785 C784 1.377 . S
C785 C791 1.390 . S
C786 H777 0.930 . S
C786 C784 1.384 . S
C786 C787 1.372 . S
C787 C786 1.372 . S
C787 C788 1.400 . S
C787 C792 1.490 . S
C788 H778 0.930 . S
C788 C787 1.400 . S
C788 C791 1.386 . S
H789 C805 0.930 . S
H790 C806 0.931 . S
C791 H779 0.929 . S
C791 C785 1.390 . S
C791 C788 1.386 . S
C792 C787 1.490 . S
C792 C794 1.395 1_545 S
C792 C795 1.403 . S
H793 C799 0.930 . S
C794 H780 0.930 . S
C794 C792 1.395 1_565 S
C794 C797 1.403 . S
C795 C792 1.403 . S
C795 C796 1.524 . S
C795 C799 1.400 . S
C796 H781 0.960 . S
C796 H782 0.960 . S
C796 H783 0.960 . S
C796 C795 1.524 . S
C797 C794 1.403 . S
C797 C798 1.392 . S
C797 C801 1.495 . S
C798 C797 1.392 . S
C798 C799 1.385 1_565 S
C798 C800 1.478 . S
C799 H793 0.930 . S
C799 C795 1.400 . S
C799 C798 1.385 1_545 S
C800 C798 1.478 . S
C800 C802 1.381 . S
C800 C806 1.383 . S
C801 C797 1.495 . S
C801 H807 0.959 . S
C801 H808 0.961 . S
C801 H809 0.960 . S
C802 C800 1.381 . S
C802 C803 1.394 . S
C802 H810 0.930 . S
C803 C802 1.394 . S
C803 C804 1.383 . S
C803 H811 0.929 . S
C804 C803 1.383 . S
C804 C805 1.377 . S
C805 H789 0.930 . S
C805 C804 1.377 . S
C805 C806 1.379 . S
C806 H790 0.931 . S
C806 C800 1.383 . S
C806 C805 1.379 . S
H807 C801 0.959 . S
H808 C801 0.961 . S
H809 C801 0.960 . S
H810 C802 0.930 . S
H811 C803 0.929 . S
H812 C820 0.929 . S
H813 C822 0.930 . S
H814 C824 0.930 . S
H815 C827 0.929 . S
H816 C830 0.930 . S
H817 C832 0.960 . S
H818 C832 0.960 . S
H819 C832 0.960 . S
C820 H812 0.929 . S
C820 C821 1.377 . S
C820 C822 1.384 . S
C821 C820 1.377 . S
C821 C827 1.390 . S
C822 H813 0.930 . S
C822 C820 1.384 . S
C822 C823 1.372 . S
C823 C822 1.372 . S
C823 C824 1.400 . S
C823 C828 1.490 . S
C824 H814 0.930 . S
C824 C823 1.400 . S
C824 C827 1.386 . S
H825 C841 0.930 . S
H826 C842 0.931 . S
C827 H815 0.929 . S
C827 C821 1.390 . S
C827 C824 1.386 . S
C828 C823 1.490 . S
C828 C830 1.395 1_655 S
C828 C831 1.403 . S
H829 C835 0.930 . S
C830 H816 0.930 . S
C830 C828 1.395 1_455 S
C830 C833 1.403 . S
C831 C828 1.403 . S
C831 C832 1.524 . S
C831 C835 1.381 1_655 S
C832 H817 0.960 . S
C832 H818 0.960 . S
C832 H819 0.960 . S
C832 C831 1.524 . S
C833 C830 1.403 . S
C833 C834 1.392 . S
C833 C837 1.495 . S
C834 C833 1.392 . S
C834 C835 1.404 . S
C834 C836 1.478 . S
C835 H829 0.930 . S
C835 C831 1.381 1_455 S
C835 C834 1.404 . S
C836 C834 1.478 . S
C836 C838 1.381 . S
C836 C842 1.383 . S
C837 C833 1.495 . S
C837 H843 0.959 . S
C837 H844 0.961 . S
C837 H845 0.960 . S
C838 C836 1.381 . S
C838 C839 1.394 . S
C838 H846 0.930 . S
C839 C838 1.394 . S
C839 C840 1.383 . S
C839 H847 0.929 . S
C840 C839 1.383 . S
C840 C841 1.377 . S
C841 H825 0.930 . S
C841 C840 1.377 . S
C841 C842 1.379 . S
C842 H826 0.931 . S
C842 C836 1.383 . S
C842 C841 1.379 . S
H843 C837 0.959 . S
H844 C837 0.961 . S
H845 C837 0.960 . S
H846 C838 0.930 . S
H847 C839 0.929 . S
H848 C856 0.929 . S
H849 C858 0.930 . S
H850 C860 0.930 . S
H851 C863 0.929 . S
H852 C866 0.930 . S
H853 C868 0.960 . S
H854 C868 0.960 . S
H855 C868 0.960 . S
C856 H848 0.929 . S
C856 C857 1.377 . S
C856 C858 1.384 . S
C857 C856 1.377 . S
C857 C863 1.390 . S
C858 H849 0.930 . S
C858 C856 1.384 . S
C858 C859 1.372 . S
C859 C858 1.372 . S
C859 C860 1.400 . S
C859 C864 1.490 . S
C860 H850 0.930 . S
C860 C859 1.400 . S
C860 C863 1.386 . S
H861 C877 0.930 . S
H862 C878 0.931 . S
C863 H851 0.929 . S
C863 C857 1.390 . S
C863 C860 1.386 . S
C864 C859 1.490 . S
C864 C866 1.395 . S
C864 C867 1.403 1_565 S
H865 C871 0.930 . S
C866 H852 0.930 . S
C866 C864 1.395 . S
C866 C869 1.403 . S
C867 C864 1.403 1_545 S
C867 C868 1.524 . S
C867 C871 1.400 . S
C868 H853 0.960 . S
C868 H854 0.960 . S
C868 H855 0.960 . S
C868 C867 1.524 . S
C869 C866 1.403 . S
C869 C870 1.392 1_565 S
C869 C873 1.495 . S
C870 C869 1.392 1_545 S
C870 C871 1.385 . S
C870 C872 1.478 . S
C871 H865 0.930 . S
C871 C867 1.400 . S
C871 C870 1.385 . S
C872 C870 1.478 . S
C872 C874 1.381 . S
C872 C878 1.383 . S
C873 C869 1.495 . S
C873 H879 0.959 . S
C873 H880 0.961 . S
C873 H881 0.960 . S
C874 C872 1.381 . S
C874 C875 1.394 . S
C874 H882 0.930 . S
C875 C874 1.394 . S
C875 C876 1.383 . S
C875 H883 0.929 . S
C876 C875 1.383 . S
C876 C877 1.377 . S
C877 H861 0.930 . S
C877 C876 1.377 . S
C877 C878 1.379 . S
C878 H862 0.931 . S
C878 C872 1.383 . S
C878 C877 1.379 . S
H879 C873 0.959 . S
H880 C873 0.961 . S
H881 C873 0.960 . S
H882 C874 0.930 . S
H883 C875 0.929 . S
H884 C892 0.929 . S
H885 C894 0.930 . S
H886 C896 0.930 . S
H887 C899 0.929 . S
H888 C902 0.930 . S
H889 C904 0.960 . S
H890 C904 0.960 . S
H891 C904 0.960 . S
C892 H884 0.929 . S
C892 C893 1.377 . S
C892 C894 1.384 . S
C893 C892 1.377 . S
C893 C899 1.390 . S
C894 H885 0.930 . S
C894 C892 1.384 . S
C894 C895 1.372 . S
C895 C894 1.372 . S
C895 C896 1.400 . S
C895 C900 1.490 . S
C896 H886 0.930 . S
C896 C895 1.400 . S
C896 C899 1.386 . S
H897 C913 0.930 . S
H898 C914 0.931 . S
C899 H887 0.929 . S
C899 C893 1.390 . S
C899 C896 1.386 . S
C900 C895 1.490 . S
C900 C902 1.395 . S
C900 C903 1.403 1_455 S
H901 C907 0.930 . S
C902 H888 0.930 . S
C902 C900 1.395 . S
C902 C905 1.403 . S
C903 C900 1.403 1_655 S
C903 C904 1.524 . S
C903 C907 1.400 . S
C904 H889 0.960 . S
C904 H890 0.960 . S
C904 H891 0.960 . S
C904 C903 1.524 . S
C905 C902 1.403 . S
C905 C906 1.392 1_455 S
C905 C909 1.495 . S
C906 C905 1.392 1_655 S
C906 C907 1.385 . S
C906 C908 1.478 . S
C907 H901 0.930 . S
C907 C903 1.400 . S
C907 C906 1.385 . S
C908 C906 1.478 . S
C908 C910 1.381 . S
C908 C914 1.383 . S
C909 C905 1.495 . S
C909 H915 0.959 . S
C909 H916 0.961 . S
C909 H917 0.960 . S
C910 C908 1.381 . S
C910 C911 1.394 . S
C910 H918 0.930 . S
C911 C910 1.394 . S
C911 C912 1.383 . S
C911 H919 0.929 . S
C912 C911 1.383 . S
C912 C913 1.377 . S
C913 H897 0.930 . S
C913 C912 1.377 . S
C913 C914 1.379 . S
C914 H898 0.931 . S
C914 C908 1.383 . S
C914 C913 1.379 . S
H915 C909 0.959 . S
H916 C909 0.961 . S
H917 C909 0.960 . S
H918 C910 0.930 . S
H919 C911 0.929 . S
H920 C928 0.929 . S
H921 C930 0.930 . S
H922 C932 0.930 . S
H923 C935 0.929 . S
H924 C938 0.930 . S
H925 C940 0.960 . S
H926 C940 0.960 . S
H927 C940 0.960 1_545 S
C928 H920 0.929 . S
C928 C929 1.377 . S
C928 C930 1.384 . S
C929 C928 1.377 . S
C929 C935 1.390 . S
C930 H921 0.930 . S
C930 C928 1.384 . S
C930 C931 1.372 . S
C931 C930 1.372 . S
C931 C932 1.400 . S
C931 C936 1.490 . S
C932 H922 0.930 . S
C932 C931 1.400 . S
C932 C935 1.386 . S
H933 C949 0.930 . S
H934 C950 0.931 . S
C935 H923 0.929 . S
C935 C929 1.390 . S
C935 C932 1.386 . S
C936 C931 1.490 . S
C936 C938 1.395 . S
C936 C939 1.403 1_545 S
H937 C943 0.930 . S
C938 H924 0.930 . S
C938 C936 1.395 . S
C938 C941 1.403 . S
C939 C936 1.403 1_565 S
C939 C940 1.524 . S
C939 C943 1.400 . S
C940 H925 0.960 . S
C940 H926 0.960 . S
C940 H927 0.960 1_565 S
C940 C939 1.524 . S
C941 C938 1.403 . S
C941 C942 1.392 1_545 S
C941 C945 1.495 . S
C942 C941 1.392 1_565 S
C942 C943 1.385 . S
C942 C944 1.478 . S
C943 H937 0.930 . S
C943 C939 1.400 . S
C943 C942 1.385 . S
C944 C942 1.478 . S
C944 C946 1.381 . S
C944 C950 1.383 . S
C945 C941 1.495 . S
C945 H951 0.959 . S
C945 H952 0.961 . S
C945 H953 0.960 1_545 S
C946 C944 1.381 . S
C946 C947 1.394 . S
C946 H954 0.930 . S
C947 C946 1.394 . S
C947 C948 1.383 . S
C947 H955 0.929 . S
C948 C947 1.383 . S
C948 C949 1.377 . S
C949 H933 0.930 . S
C949 C948 1.377 . S
C949 C950 1.379 . S
C950 H934 0.931 . S
C950 C944 1.383 . S
C950 C949 1.379 . S
H951 C945 0.959 . S
H952 C945 0.961 . S
H953 C945 0.960 1_565 S
H954 C946 0.930 . S
H955 C947 0.929 . S
H956 C964 0.929 . S
H957 C966 0.930 . S
H958 C968 0.930 . S
H959 C971 0.929 . S
H960 C974 0.930 . S
H961 C976 0.960 . S
H962 C976 0.960 . S
H963 C976 0.960 . S
C964 H956 0.929 . S
C964 C965 1.377 . S
C964 C966 1.384 . S
C965 C964 1.377 . S
C965 C971 1.390 . S
C966 H957 0.930 . S
C966 C964 1.384 . S
C966 C967 1.372 . S
C967 C966 1.372 . S
C967 C968 1.400 . S
C967 C972 1.490 . S
C968 H958 0.930 . S
C968 C967 1.400 . S
C968 C971 1.386 . S
H969 C985 0.930 . S
H970 C986 0.931 . S
C971 H959 0.929 . S
C971 C965 1.390 . S
C971 C968 1.386 . S
C972 C967 1.490 . S
C972 C974 1.395 . S
C972 C975 1.403 1_455 S
H973 C979 0.930 . S
C974 H960 0.930 . S
C974 C972 1.395 . S
C974 C977 1.403 . S
C975 C972 1.403 1_655 S
C975 C976 1.524 . S
C975 C979 1.400 . S
C976 H961 0.960 . S
C976 H962 0.960 . S
C976 H963 0.960 . S
C976 C975 1.524 . S
C977 C974 1.403 . S
C977 C978 1.392 1_455 S
C977 C981 1.495 . S
C978 C977 1.392 1_655 S
C978 C979 1.385 . S
C978 C980 1.478 . S
C979 H973 0.930 . S
C979 C975 1.400 . S
C979 C978 1.385 . S
C980 C978 1.478 . S
C980 C982 1.381 . S
C980 C986 1.383 . S
C981 C977 1.495 . S
C981 H987 0.959 . S
C981 H988 0.961 . S
C981 H989 0.960 . S
C982 C980 1.381 . S
C982 C983 1.394 . S
C982 H990 0.930 . S
C983 C982 1.394 . S
C983 C984 1.383 . S
C983 H991 0.929 . S
C984 C983 1.383 . S
C984 C985 1.377 . S
C985 H969 0.930 . S
C985 C984 1.377 . S
C985 C986 1.379 . S
C986 H970 0.931 . S
C986 C980 1.383 . S
C986 C985 1.379 . S
H987 C981 0.959 . S
H988 C981 0.961 . S
H989 C981 0.960 . S
H990 C982 0.930 . S
H991 C983 0.929 . S
H992 C1000 0.929 . S
H993 C1002 0.930 . S
H994 C1004 0.930 . S
H995 C1007 0.929 . S
H996 C1010 0.930 . S
H997 C1012 0.960 . S
H998 C1012 0.960 . S
H999 C1012 0.960 . S
C1000 H992 0.929 . S
C1000 C1001 1.377 . S
C1000 C1002 1.384 . S
C1001 C1000 1.377 . S
C1001 C1007 1.390 . S
C1002 H993 0.930 . S
C1002 C1000 1.384 . S
C1002 C1003 1.372 . S
C1003 C1002 1.372 . S
C1003 C1004 1.400 . S
C1003 C1008 1.490 . S
C1004 H994 0.930 . S
C1004 C1003 1.400 . S
C1004 C1007 1.386 . S
H1005 C1021 0.930 . S
H1006 C1022 0.931 . S
C1007 H995 0.929 . S
C1007 C1001 1.390 . S
C1007 C1004 1.386 . S
C1008 C1003 1.490 . S
C1008 C1010 1.395 . S
C1008 C1011 1.403 . S
H1009 C1015 0.930 . S
C1010 H996 0.930 . S
C1010 C1008 1.395 . S
C1010 C1013 1.403 . S
C1011 C1008 1.403 . S
C1011 C1012 1.524 . S
C1011 C1015 1.400 . S
C1012 H997 0.960 . S
C1012 H998 0.960 . S
C1012 H999 0.960 . S
C1012 C1011 1.524 . S
C1013 C1010 1.403 . S
C1013 C1014 1.392 . S
C1013 C1017 1.495 . S
C1014 C1013 1.392 . S
C1014 C1015 1.385 . S
C1014 C1016 1.478 . S
C1015 H1009 0.930 . S
C1015 C1011 1.400 . S
C1015 C1014 1.385 . S
C1016 C1014 1.478 . S
C1016 C1018 1.381 . S
C1016 C1022 1.383 . S
C1017 C1013 1.495 . S
C1017 H1023 0.959 . S
C1017 H1024 0.961 . S
C1017 H1025 0.960 . S
C1018 C1016 1.381 . S
C1018 C1019 1.394 . S
C1018 H1026 0.930 . S
C1019 C1018 1.394 . S
C1019 C1020 1.383 . S
C1019 H1027 0.929 . S
C1020 C1019 1.383 . S
C1020 C1021 1.377 . S
C1021 H1005 0.930 . S
C1021 C1020 1.377 . S
C1021 C1022 1.379 . S
C1022 H1006 0.931 . S
C1022 C1016 1.383 . S
C1022 C1021 1.379 . S
H1023 C1017 0.959 . S
H1024 C1017 0.961 . S
H1025 C1017 0.960 . S
H1026 C1018 0.930 . S
H1027 C1019 0.929 . S
H1028 C1036 0.929 . S
H1029 C1038 0.930 . S
H1030 C1040 0.930 . S
H1031 C1043 0.929 . S
H1032 C1046 0.930 . S
H1033 C1048 0.960 . S
H1034 C1048 0.960 . S
H1035 C1048 0.960 . S
C1036 H1028 0.929 . S
C1036 C1037 1.377 . S
C1036 C1038 1.384 . S
C1037 C1036 1.377 . S
C1037 C1043 1.390 . S
C1038 H1029 0.930 . S
C1038 C1036 1.384 . S
C1038 C1039 1.372 . S
C1039 C1038 1.372 . S
C1039 C1040 1.400 . S
C1039 C1044 1.490 . S
C1040 H1030 0.930 . S
C1040 C1039 1.400 . S
C1040 C1043 1.386 . S
H1041 C1057 0.930 . S
H1042 C1058 0.931 . S
C1043 H1031 0.929 . S
C1043 C1037 1.390 . S
C1043 C1040 1.386 . S
C1044 C1039 1.490 . S
C1044 C1046 1.395 . S
C1044 C1047 1.403 . S
H1045 C1051 0.930 . S
C1046 H1032 0.930 . S
C1046 C1044 1.395 . S
C1046 C1049 1.403 . S
C1047 C1044 1.403 . S
C1047 C1048 1.524 . S
C1047 C1051 1.400 . S
C1048 H1033 0.960 . S
C1048 H1034 0.960 . S
C1048 H1035 0.960 . S
C1048 C1047 1.524 . S
C1049 C1046 1.403 . S
C1049 C1050 1.392 . S
C1049 C1053 1.495 . S
C1050 C1049 1.392 . S
C1050 C1051 1.385 . S
C1050 C1052 1.478 . S
C1051 H1045 0.930 . S
C1051 C1047 1.400 . S
C1051 C1050 1.385 . S
C1052 C1050 1.478 . S
C1052 C1054 1.381 . S
C1052 C1058 1.383 . S
C1053 C1049 1.495 . S
C1053 H1059 0.959 . S
C1053 H1060 0.961 . S
C1053 H1061 0.960 . S
C1054 C1052 1.381 . S
C1054 C1055 1.394 . S
C1054 H1062 0.930 . S
C1055 C1054 1.394 . S
C1055 C1056 1.383 . S
C1055 H1063 0.929 . S
C1056 C1055 1.383 . S
C1056 C1057 1.377 . S
C1057 H1041 0.930 . S
C1057 C1056 1.377 . S
C1057 C1058 1.379 . S
C1058 H1042 0.931 . S
C1058 C1052 1.383 . S
C1058 C1057 1.379 . S
H1059 C1053 0.959 . S
H1060 C1053 0.961 . S
H1061 C1053 0.960 . S
H1062 C1054 0.930 . S
H1063 C1055 0.929 . S
H1064 C1072 0.929 . S
H1065 C1074 0.930 . S
H1066 C1076 0.930 . S
H1067 C1079 0.929 . S
H1068 C1082 0.930 . S
H1069 C1084 0.960 . S
H1070 C1084 0.960 . S
H1071 C1084 0.960 . S
C1072 H1064 0.929 . S
C1072 C1073 1.377 . S
C1072 C1074 1.384 . S
C1073 C1072 1.377 . S
C1073 C1079 1.390 . S
C1074 H1065 0.930 . S
C1074 C1072 1.384 . S
C1074 C1075 1.372 . S
C1075 C1074 1.372 . S
C1075 C1076 1.400 . S
C1075 C1080 1.490 . S
C1076 H1066 0.930 . S
C1076 C1075 1.400 . S
C1076 C1079 1.386 . S
H1077 C1093 0.930 . S
H1078 C1094 0.931 . S
C1079 H1067 0.929 . S
C1079 C1073 1.390 . S
C1079 C1076 1.386 . S
C1080 C1075 1.490 . S
C1080 C1082 1.395 . S
C1080 C1083 1.403 . S
H1081 C1087 0.930 . S
C1082 H1068 0.930 . S
C1082 C1080 1.395 . S
C1082 C1085 1.403 . S
C1083 C1080 1.403 . S
C1083 C1084 1.524 . S
C1083 C1087 1.400 . S
C1084 H1069 0.960 . S
C1084 H1070 0.960 . S
C1084 H1071 0.960 . S
C1084 C1083 1.524 . S
C1085 C1082 1.403 . S
C1085 C1086 1.392 . S
C1085 C1089 1.495 . S
C1086 C1085 1.392 . S
C1086 C1087 1.385 . S
C1086 C1088 1.478 . S
C1087 H1081 0.930 . S
C1087 C1083 1.400 . S
C1087 C1086 1.385 . S
C1088 C1086 1.478 . S
C1088 C1090 1.381 . S
C1088 C1094 1.383 . S
C1089 C1085 1.495 . S
C1089 H1095 0.959 . S
C1089 H1096 0.961 . S
C1089 H1097 0.960 . S
C1090 C1088 1.381 . S
C1090 C1091 1.394 . S
C1090 H1098 0.930 . S
C1091 C1090 1.394 . S
C1091 C1092 1.383 . S
C1091 H1099 0.929 . S
C1092 C1091 1.383 . S
C1092 C1093 1.377 . S
C1093 H1077 0.930 . S
C1093 C1092 1.377 . S
C1093 C1094 1.379 . S
C1094 H1078 0.931 . S
C1094 C1088 1.383 . S
C1094 C1093 1.379 . S
H1095 C1089 0.959 . S
H1096 C1089 0.961 . S
H1097 C1089 0.960 . S
H1098 C1090 0.930 . S
H1099 C1091 0.929 . S
H1100 C1108 0.929 . S
H1101 C1110 0.930 . S
H1102 C1112 0.930 . S
H1103 C1115 0.929 . S
H1104 C1118 0.930 . S
H1105 C1120 0.960 . S
H1106 C1120 0.960 . S
H1107 C1120 0.960 . S
C1108 H1100 0.929 . S
C1108 C1109 1.377 . S
C1108 C1110 1.384 . S
C1109 C1108 1.377 . S
C1109 C1115 1.390 . S
C1110 H1101 0.930 . S
C1110 C1108 1.384 . S
C1110 C1111 1.372 . S
C1111 C1110 1.372 . S
C1111 C1112 1.400 . S
C1111 C1116 1.490 . S
C1112 H1102 0.930 . S
C1112 C1111 1.400 . S
C1112 C1115 1.386 . S
H1113 C1129 0.930 . S
H1114 C1130 0.931 . S
C1115 H1103 0.929 . S
C1115 C1109 1.390 . S
C1115 C1112 1.386 . S
C1116 C1111 1.490 . S
C1116 C1118 1.395 . S
C1116 C1119 1.403 . S
H1117 C1123 0.930 . S
C1118 H1104 0.930 . S
C1118 C1116 1.395 . S
C1118 C1121 1.403 . S
C1119 C1116 1.403 . S
C1119 C1120 1.524 . S
C1119 C1123 1.400 . S
C1120 H1105 0.960 . S
C1120 H1106 0.960 . S
C1120 H1107 0.960 . S
C1120 C1119 1.524 . S
C1121 C1118 1.403 . S
C1121 C1122 1.392 . S
C1121 C1125 1.495 . S
C1122 C1121 1.392 . S
C1122 C1123 1.385 . S
C1122 C1124 1.478 . S
C1123 H1117 0.930 . S
C1123 C1119 1.400 . S
C1123 C1122 1.385 . S
C1124 C1122 1.478 . S
C1124 C1126 1.381 . S
C1124 C1130 1.383 . S
C1125 C1121 1.495 . S
C1125 H1131 0.959 . S
C1125 H1132 0.961 . S
C1125 H1133 0.960 . S
C1126 C1124 1.381 . S
C1126 C1127 1.394 . S
C1126 H1134 0.930 . S
C1127 C1126 1.394 . S
C1127 C1128 1.383 . S
C1127 H1135 0.929 . S
C1128 C1127 1.383 . S
C1128 C1129 1.377 . S
C1129 H1113 0.930 . S
C1129 C1128 1.377 . S
C1129 C1130 1.379 . S
C1130 H1114 0.931 . S
C1130 C1124 1.383 . S
C1130 C1129 1.379 . S
H1131 C1125 0.959 . S
H1132 C1125 0.961 . S
H1133 C1125 0.960 . S
H1134 C1126 0.930 . S
H1135 C1127 0.929 . S
H1136 C1144 0.929 . S
H1137 C1146 0.930 . S
H1138 C1148 0.930 . S
H1139 C1151 0.929 . S
H1140 C1154 0.930 . S
H1141 C1156 0.960 . S
H1142 C1156 0.960 . S
H1143 C1156 0.960 . S
C1144 H1136 0.929 . S
C1144 C1145 1.377 . S
C1144 C1146 1.384 . S
C1145 C1144 1.377 . S
C1145 C1151 1.390 . S
C1146 H1137 0.930 . S
C1146 C1144 1.384 . S
C1146 C1147 1.372 . S
C1147 C1146 1.372 . S
C1147 C1148 1.400 . S
C1147 C1152 1.490 . S
C1148 H1138 0.930 . S
C1148 C1147 1.400 . S
C1148 C1151 1.386 . S
H1149 C1165 0.930 . S
H1150 C1166 0.931 . S
C1151 H1139 0.929 . S
C1151 C1145 1.390 . S
C1151 C1148 1.386 . S
C1152 C1147 1.490 . S
C1152 C1154 1.395 . S
C1152 C1155 1.403 . S
H1153 C1159 0.930 . S
C1154 H1140 0.930 . S
C1154 C1152 1.395 . S
C1154 C1157 1.403 . S
C1155 C1152 1.403 . S
C1155 C1156 1.524 . S
C1155 C1159 1.400 . S
C1156 H1141 0.960 . S
C1156 H1142 0.960 . S
C1156 H1143 0.960 . S
C1156 C1155 1.524 . S
C1157 C1154 1.403 . S
C1157 C1158 1.392 . S
C1157 C1161 1.495 . S
C1158 C1157 1.392 . S
C1158 C1159 1.385 . S
C1158 C1160 1.478 . S
C1159 H1153 0.930 . S
C1159 C1155 1.400 . S
C1159 C1158 1.385 . S
C1160 C1158 1.478 . S
C1160 C1162 1.381 . S
C1160 C1166 1.383 . S
C1161 C1157 1.495 . S
C1161 H1167 0.959 . S
C1161 H1168 0.961 . S
C1161 H1169 0.960 . S
C1162 C1160 1.381 . S
C1162 C1163 1.394 . S
C1162 H1170 0.930 . S
C1163 C1162 1.394 . S
C1163 C1164 1.383 . S
C1163 H1171 0.929 . S
C1164 C1163 1.383 . S
C1164 C1165 1.377 . S
C1165 H1149 0.930 . S
C1165 C1164 1.377 . S
C1165 C1166 1.379 . S
C1166 H1150 0.931 . S
C1166 C1160 1.383 . S
C1166 C1165 1.379 . S
H1167 C1161 0.959 . S
H1168 C1161 0.961 . S
H1169 C1161 0.960 . S
H1170 C1162 0.930 . S
H1171 C1163 0.929 . S
H1172 C1180 0.929 . S
H1173 C1182 0.930 . S
H1174 C1184 0.930 . S
H1175 C1187 0.929 . S
H1176 C1190 0.930 . S
H1177 C1192 0.960 . S
H1178 C1192 0.960 . S
H1179 C1192 0.960 . S
C1180 H1172 0.929 . S
C1180 C1181 1.377 . S
C1180 C1182 1.384 . S
C1181 C1180 1.377 . S
C1181 C1187 1.390 . S
C1182 H1173 0.930 . S
C1182 C1180 1.384 . S
C1182 C1183 1.372 . S
C1183 C1182 1.372 . S
C1183 C1184 1.400 . S
C1183 C1188 1.490 . S
C1184 H1174 0.930 . S
C1184 C1183 1.400 . S
C1184 C1187 1.386 . S
H1185 C1201 0.930 . S
H1186 C1202 0.931 . S
C1187 H1175 0.929 . S
C1187 C1181 1.390 . S
C1187 C1184 1.386 . S
C1188 C1183 1.490 . S
C1188 C1190 1.395 . S
C1188 C1191 1.403 . S
H1189 C1195 0.930 . S
C1190 H1176 0.930 . S
C1190 C1188 1.395 . S
C1190 C1193 1.403 . S
C1191 C1188 1.403 . S
C1191 C1192 1.524 . S
C1191 C1195 1.400 . S
C1192 H1177 0.960 . S
C1192 H1178 0.960 . S
C1192 H1179 0.960 . S
C1192 C1191 1.524 . S
C1193 C1190 1.403 . S
C1193 C1194 1.392 . S
C1193 C1197 1.495 . S
C1194 C1193 1.392 . S
C1194 C1195 1.385 . S
C1194 C1196 1.478 . S
C1195 H1189 0.930 . S
C1195 C1191 1.400 . S
C1195 C1194 1.385 . S
C1196 C1194 1.478 . S
C1196 C1198 1.381 . S
C1196 C1202 1.383 . S
C1197 C1193 1.495 . S
C1197 H1203 0.959 . S
C1197 H1204 0.961 . S
C1197 H1205 0.960 . S
C1198 C1196 1.381 . S
C1198 C1199 1.394 . S
C1198 H1206 0.930 . S
C1199 C1198 1.394 . S
C1199 C1200 1.383 . S
C1199 H1207 0.929 . S
C1200 C1199 1.383 . S
C1200 C1201 1.377 . S
C1201 H1185 0.930 . S
C1201 C1200 1.377 . S
C1201 C1202 1.379 . S
C1202 H1186 0.931 . S
C1202 C1196 1.383 . S
C1202 C1201 1.379 . S
H1203 C1197 0.959 . S
H1204 C1197 0.961 . S
H1205 C1197 0.960 . S
H1206 C1198 0.930 . S
H1207 C1199 0.929 . S
H1208 C1216 0.929 . S
H1209 C1218 0.930 . S
H1210 C1220 0.930 . S
H1211 C1223 0.929 . S
H1212 C1226 0.930 . S
H1213 C1228 0.960 . S
H1214 C1228 0.960 . S
H1215 C1228 0.960 . S
C1216 H1208 0.929 . S
C1216 C1217 1.377 . S
C1216 C1218 1.384 . S
C1217 C1216 1.377 . S
C1217 C1223 1.390 . S
C1218 H1209 0.930 . S
C1218 C1216 1.384 . S
C1218 C1219 1.372 . S
C1219 C1218 1.372 . S
C1219 C1220 1.400 . S
C1219 C1224 1.490 . S
C1220 H1210 0.930 . S
C1220 C1219 1.400 . S
C1220 C1223 1.386 . S
H1221 C1237 0.930 . S
H1222 C1238 0.931 . S
C1223 H1211 0.929 . S
C1223 C1217 1.390 . S
C1223 C1220 1.386 . S
C1224 C1219 1.490 . S
C1224 C1226 1.395 . S
C1224 C1227 1.403 . S
H1225 C1231 0.930 . S
C1226 H1212 0.930 . S
C1226 C1224 1.395 . S
C1226 C1229 1.403 . S
C1227 C1224 1.403 . S
C1227 C1228 1.524 . S
C1227 C1231 1.400 . S
C1228 H1213 0.960 . S
C1228 H1214 0.960 . S
C1228 H1215 0.960 . S
C1228 C1227 1.524 . S
C1229 C1226 1.403 . S
C1229 C1230 1.392 . S
C1229 C1233 1.495 . S
C1230 C1229 1.392 . S
C1230 C1231 1.385 . S
C1230 C1232 1.478 . S
C1231 H1225 0.930 . S
C1231 C1227 1.400 . S
C1231 C1230 1.385 . S
C1232 C1230 1.478 . S
C1232 C1234 1.381 . S
C1232 C1238 1.383 . S
C1233 C1229 1.495 . S
C1233 H1239 0.959 . S
C1233 H1240 0.961 . S
C1233 H1241 0.960 . S
C1234 C1232 1.381 . S
C1234 C1235 1.394 . S
C1234 H1242 0.930 . S
C1235 C1234 1.394 . S
C1235 C1236 1.383 . S
C1235 H1243 0.929 . S
C1236 C1235 1.383 . S
C1236 C1237 1.377 . S
C1237 H1221 0.930 . S
C1237 C1236 1.377 . S
C1237 C1238 1.379 . S
C1238 H1222 0.931 . S
C1238 C1232 1.383 . S
C1238 C1237 1.379 . S
H1239 C1233 0.959 . S
H1240 C1233 0.961 . S
H1241 C1233 0.960 . S
H1242 C1234 0.930 . S
H1243 C1235 0.929 . S
H1244 C1252 0.929 . S
H1245 C1254 0.930 . S
H1246 C1256 0.930 . S
H1247 C1259 0.929 . S
H1248 C1262 0.930 . S
H1249 C1264 0.960 . S
H1250 C1264 0.960 . S
H1251 C1264 0.960 . S
C1252 H1244 0.929 . S
C1252 C1253 1.377 . S
C1252 C1254 1.384 . S
C1253 C1252 1.377 . S
C1253 C1259 1.390 . S
C1254 H1245 0.930 . S
C1254 C1252 1.384 . S
C1254 C1255 1.372 . S
C1255 C1254 1.372 . S
C1255 C1256 1.400 . S
C1255 C1260 1.490 . S
C1256 H1246 0.930 . S
C1256 C1255 1.400 . S
C1256 C1259 1.386 . S
H1257 C1273 0.930 . S
H1258 C1274 0.931 . S
C1259 H1247 0.929 . S
C1259 C1253 1.390 . S
C1259 C1256 1.386 . S
C1260 C1255 1.490 . S
C1260 C1262 1.395 . S
C1260 C1263 1.403 . S
H1261 C1267 0.930 . S
C1262 H1248 0.930 . S
C1262 C1260 1.395 . S
C1262 C1265 1.403 . S
C1263 C1260 1.403 . S
C1263 C1264 1.524 . S
C1263 C1267 1.400 . S
C1264 H1249 0.960 . S
C1264 H1250 0.960 . S
C1264 H1251 0.960 . S
C1264 C1263 1.524 . S
C1265 C1262 1.403 . S
C1265 C1266 1.392 . S
C1265 C1269 1.495 . S
C1266 C1265 1.392 . S
C1266 C1267 1.385 . S
C1266 C1268 1.478 . S
C1267 H1261 0.930 . S
C1267 C1263 1.400 . S
C1267 C1266 1.385 . S
C1268 C1266 1.478 . S
C1268 C1270 1.381 . S
C1268 C1274 1.383 . S
C1269 C1265 1.495 . S
C1269 H1275 0.959 . S
C1269 H1276 0.961 . S
C1269 H1277 0.960 . S
C1270 C1268 1.381 . S
C1270 C1271 1.394 . S
C1270 H1278 0.930 . S
C1271 C1270 1.394 . S
C1271 C1272 1.383 . S
C1271 H1279 0.929 . S
C1272 C1271 1.383 . S
C1272 C1273 1.377 . S
C1273 H1257 0.930 . S
C1273 C1272 1.377 . S
C1273 C1274 1.379 . S
C1274 H1258 0.931 . S
C1274 C1268 1.383 . S
C1274 C1273 1.379 . S
H1275 C1269 0.959 . S
H1276 C1269 0.961 . S
H1277 C1269 0.960 . S
H1278 C1270 0.930 . S
H1279 C1271 0.929 . S
C281 C17 0.648 . S
C300 C85 0.649 . S
C317 C119 0.648 . S
C336 C51 0.649 . S
C353 C153 0.648 . S
C372 C221 0.649 . S
C389 C255 0.648 . S
C408 C187 0.649 . S
C425 C142 0.866 . S
C444 C6 0.889 . S
C461 C198 0.868 . S
C480 C62 0.865 . S
C497 C232 0.866 . S
C516 C74 0.888 . S
C533 C266 0.864 . S
C552 C108 0.836 . S
C569 C226 0.557 . S
C588 C83 0.489 . S
C605 C260 0.559 . S
C624 C117 0.638 . S
C641 C15 0.552 . S
C660 C151 0.636 . S
C677 C192 0.539 . S
C696 C56 0.541 . S
C713 C244 0.856 . S
C732 C40 0.829 . S
C749 C164 0.854 . S
C768 C96 0.840 . S
C785 C176 0.868 . S
C804 C130 0.885 . S
C821 C210 0.866 . S
C840 C28 0.895 . S
C857 C124 0.549 . S
C876 C185 0.489 . S
C893 C22 0.557 . S
C912 C219 0.490 . S
C929 C49 0.541 . S
C948 C253 0.519 . S
C965 C158 0.551 . S
C984 C90 0.487 . S
C1001 C173 2.923 . S
C1020 C1 2.911 . S
C1037 C37 2.924 . S
C1056 C207 2.917 . S
C1073 C241 2.923 . S
C1092 C69 2.912 . S
C1109 C103 2.922 . S
C1128 C137 2.914 . S
C1145 C239 2.923 . S
C1164 C71 2.917 . S
C1181 C139 2.923 . S
C1200 C105 2.928 . S
C1217 C3 2.925 . S
C1236 C171 2.917 . S
C1253 C205 2.923 . S
C1272 C35 2.916 . S
