# Generated by pormake.
# Topology xft, (5)-cn, num edge types: 1
# Building blocks:
#     Node 0, Type 0, BuildingBlock: BEQFEK_clean_sbu_0, # of connection points: 5
#     Node 1, Type 0, BuildingBlock: BEQFEK_clean_sbu_0, # of connection points: 5
#     Node 2, Type 0, BuildingBlock: BEQFEK_clean_sbu_0, # of connection points: 5
#     Node 3, Type 0, BuildingBlock: BEQFEK_clean_sbu_0, # of connection points: 5
#     Node 4, Type 0, BuildingBlock: BEQFEK_clean_sbu_0, # of connection points: 5
#     Node 5, Type 0, BuildingBlock: BEQFEK_clean_sbu_0, # of connection points: 5
#     Node 6, Type 0, BuildingBlock: BEQFEK_clean_sbu_0, # of connection points: 5
#     Node 7, Type 0, BuildingBlock: BEQFEK_clean_sbu_0, # of connection points: 5
#     Edge 8, Type (0, 0), BuildingBlock: EZIPEK_clean_linker_0, # of connection points: 2
#     Edge 9, Type (0, 0), BuildingBlock: EZIPEK_clean_linker_0, # of connection points: 2
#     Edge 10, Type (0, 0), BuildingBlock: EZIPEK_clean_linker_0, # of connection points: 2
#     Edge 11, Type (0, 0), BuildingBlock: EZIPEK_clean_linker_0, # of connection points: 2
#     Edge 12, Type (0, 0), BuildingBlock: EZIPEK_clean_linker_0, # of connection points: 2
#     Edge 13, Type (0, 0), BuildingBlock: EZIPEK_clean_linker_0, # of connection points: 2
#     Edge 14, Type (0, 0), BuildingBlock: EZIPEK_clean_linker_0, # of connection points: 2
#     Edge 15, Type (0, 0), BuildingBlock: EZIPEK_clean_linker_0, # of connection points: 2
#     Edge 16, Type (0, 0), BuildingBlock: EZIPEK_clean_linker_0, # of connection points: 2
#     Edge 17, Type (0, 0), BuildingBlock: EZIPEK_clean_linker_0, # of connection points: 2
#     Edge 18, Type (0, 0), BuildingBlock: EZIPEK_clean_linker_0, # of connection points: 2
#     Edge 19, Type (0, 0), BuildingBlock: EZIPEK_clean_linker_0, # of connection points: 2
#     Edge 20, Type (0, 0), BuildingBlock: EZIPEK_clean_linker_0, # of connection points: 2
#     Edge 21, Type (0, 0), BuildingBlock: EZIPEK_clean_linker_0, # of connection points: 2
#     Edge 22, Type (0, 0), BuildingBlock: EZIPEK_clean_linker_0, # of connection points: 2
#     Edge 23, Type (0, 0), BuildingBlock: EZIPEK_clean_linker_0, # of connection points: 2
#     Edge 24, Type (0, 0), BuildingBlock: EZIPEK_clean_linker_0, # of connection points: 2
#     Edge 25, Type (0, 0), BuildingBlock: EZIPEK_clean_linker_0, # of connection points: 2
#     Edge 26, Type (0, 0), BuildingBlock: EZIPEK_clean_linker_0, # of connection points: 2
#     Edge 27, Type (0, 0), BuildingBlock: EZIPEK_clean_linker_0, # of connection points: 2
# Relax obj value: 0.427
# Max RMSD: 0.299
# Mean RMSD: 0.299
data_MOF--net-xft--node1-BEQFEK_clean_sbu_0--edge1-EZIPEK_clean_linker_0
_symmetry_space_group_name_H-M    P1
_symmetry_Int_Tables_number       1
_symmetry_cell_setting            triclinic
loop_
_symmetry_equiv_pos_as_xyz
'x, y, z'
_cell_length_a     28.972072
_cell_length_b     29.119627
_cell_length_c     28.359287
_cell_angle_alpha  90.40785
_cell_angle_beta   89.711638
_cell_angle_gamma 90.045955
loop_
_atom_site_label
_atom_site_type_symbol
_atom_site_fract_x
_atom_site_fract_y
_atom_site_fract_z
_atom_type_partial_charge
Co0 Co 0.36536 0.00035 0.71768 0.0
Co1 Co 0.36321 0.96244 0.82054 0.0
C2 C 0.35825 0.9037 0.72956 0.0
O3 O 0.35495 0.93581 0.69955 0.0
O4 O 0.36269 0.91201 0.77335 0.0
C5 C 0.34788 0.04772 0.62703 0.0
O6 O 0.31109 0.02202 0.62101 0.0
C7 C 0.29793 0.91595 0.87863 0.0
C8 C 0.32879 0.91409 0.94948 0.0
C9 C 0.28919 0.90313 0.92441 0.0
N10 N 0.34021 0.93453 0.87626 0.0
N11 N 0.35907 0.93262 0.91857 0.0
C12 C 0.26518 0.91256 0.83808 0.0
H13 H 0.26146 0.87594 0.82766 0.0
H14 H 0.27782 0.9322 0.80731 0.0
H15 H 0.23054 0.92508 0.84897 0.0
C16 C 0.2819 0.05033 0.75584 0.0
N17 N 0.31922 0.02278 0.75986 0.0
N18 N 0.32418 0.01192 0.80447 0.0
C19 C 0.29263 0.03475 0.83047 0.0
C20 C 0.26467 0.05936 0.80063 0.0
C21 C 0.25806 0.06092 0.71056 0.0
H22 H 0.27879 0.08518 0.6896 0.0
H23 H 0.25385 0.02876 0.68986 0.0
H24 H 0.22357 0.07639 0.7169 0.0
O25 O 0.42778 0.00136 0.74832 0.0
O26 O 0.42732 0.98255 0.82432 0.0
H27 H 0.27612 0.06505 0.89771 0.0
H28 H 0.26023 0.00601 0.89086 0.0
C29 C 0.28743 0.03154 0.88276 0.0
H30 H 0.32037 0.02109 0.89923 0.0
H31 H 0.39174 0.94545 0.9267 0.0
O32 O 0.37315 0.04212 0.66299 0.0
C33 C 0.44874 -0.00499 0.78724 0.0
Co34 Co 0.00499 0.86783 0.97309 0.0
Co35 Co 0.04857 0.85838 0.07347 0.0
C36 C 0.10253 0.86152 0.97926 0.0
O37 O 0.06886 0.85882 0.9508 0.0
O38 O 0.09628 0.86338 0.02357 0.0
C39 C 0.9614 0.85953 0.87985 0.0
O40 O 0.99209 0.82765 0.86988 0.0
C41 C 0.10705 0.79294 0.11835 0.0
C42 C 0.09076 0.79945 0.19415 0.0
C43 C 0.11417 0.77234 0.16147 0.0
N44 N 0.07936 0.82948 0.12471 0.0
N45 N 0.07069 0.83405 0.17032 0.0
C46 C 0.12405 0.77657 0.07114 0.0
H47 H 0.14887 0.80205 0.05698 0.0
H48 H 0.09465 0.77377 0.04634 0.0
H49 H 0.1422 0.74317 0.07317 0.0
C50 C 0.95251 0.785 0.00816 0.0
N51 N 0.98393 0.81916 0.01229 0.0
N52 N -0.00208 0.82083 0.05634 0.0
C53 C 0.97365 0.79038 0.08198 0.0
C54 C 0.94466 0.76646 0.0522 0.0
C55 C 0.93266 0.76709 0.96321 0.0
H56 H 0.89468 0.7719 0.96365 0.0
H57 H 0.94832 0.78403 0.93245 0.0
H58 H 0.93902 0.72956 0.96055 0.0
O59 O 0.00528 0.92713 0.00992 0.0
O60 O 0.02823 0.92134 0.08467 0.0
H61 H 0.97863 0.82178 0.15024 0.0
H62 H 0.94306 0.77061 0.14841 0.0
C63 C 0.97492 0.787 0.13455 0.0
H64 H 0.00473 0.76602 0.14537 0.0
H65 H 0.04881 0.85891 0.18482 0.0
O66 O 0.96199 0.87931 0.91993 0.0
C67 C 0.01347 0.94506 0.05029 0.0
Co68 Co 0.14023 0.49738 0.21717 0.0
Co69 Co 0.15131 0.55072 0.31258 0.0
C70 C 0.16762 0.59424 0.21652 0.0
O71 O 0.16082 0.55714 0.19386 0.0
O72 O 0.16378 0.59526 0.26123 0.0
C73 C 0.15717 0.45597 0.12479 0.0
O74 O 0.18857 0.48789 0.11843 0.0
C75 C 0.21644 0.59469 0.37393 0.0
C76 C 0.17698 0.61068 0.43873 0.0
C77 C 0.22048 0.61349 0.41833 0.0
N78 N 0.17272 0.58092 0.36778 0.0
N79 N 0.14893 0.59116 0.40637 0.0
C80 C 0.25455 0.58827 0.33867 0.0
H81 H 0.24217 0.57012 0.30665 0.0
H82 H 0.28329 0.56873 0.35467 0.0
H83 H 0.26871 0.62237 0.32906 0.0
C84 C 0.20954 0.4373 0.26167 0.0
N85 N 0.18101 0.47376 0.26246 0.0
N86 N 0.18328 0.49401 0.30401 0.0
C87 C 0.21208 0.46971 0.33156 0.0
C88 C 0.23027 0.43373 0.30529 0.0
C89 C 0.21916 0.40853 0.219 0.0
H90 H 0.23359 0.43097 0.19121 0.0
H91 H 0.24403 0.38059 0.22649 0.0
H92 H 0.18647 0.39341 0.20587 0.0
O93 O 0.07731 0.50522 0.24492 0.0
O94 O 0.08402 0.54018 0.31478 0.0
H95 H 0.22656 0.44663 0.40166 0.0
H96 H 0.25397 0.49924 0.38567 0.0
C97 C 0.22155 0.47933 0.38245 0.0
H98 H 0.19269 0.4987 0.39884 0.0
H99 H 0.11393 0.58387 0.41104 0.0
O100 O 0.1341 0.45448 0.16301 0.0
C101 C 0.05946 0.52202 0.28247 0.0
Co102 Co 0.50252 0.63084 0.47233 0.0
Co103 Co 0.46269 0.64224 0.57472 0.0
C104 C 0.40429 0.64512 0.4859 0.0
O105 O 0.4376 0.64366 0.45664 0.0
O106 O 0.41088 0.64326 0.53002 0.0
C107 C 0.53129 0.64769 0.37527 0.0
O108 O 0.49637 0.67625 0.37273 0.0
C109 C 0.41787 0.709 0.63254 0.0
C110 C 0.41412 0.67889 0.7036 0.0
C111 C 0.40362 0.71794 0.67801 0.0
N112 N 0.43633 0.66684 0.63072 0.0
N113 N 0.43341 0.64848 0.67315 0.0
C114 C 0.41571 0.7413 0.59175 0.0
H115 H 0.43349 0.72694 0.56028 0.0
H116 H 0.43159 0.7747 0.60159 0.0
H117 H 0.37902 0.748 0.5831 0.0
C118 C 0.56434 0.70527 0.50661 0.0
N119 N 0.52885 0.67583 0.51231 0.0
N120 N 0.51358 0.67898 0.55598 0.0
C121 C 0.53947 0.70995 0.57953 0.0
C122 C 0.57198 0.72783 0.54894 0.0
C123 C 0.58965 0.71251 0.46133 0.0
H124 H 0.60348 0.67929 0.44817 0.0
H125 H 0.56492 0.72576 0.43512 0.0
H126 H 0.6184 0.7374 0.46551 0.0
O127 O 0.50391 0.56987 0.50436 0.0
O128 O 0.48174 0.57759 0.5796 0.0
H129 H 0.52131 0.692 0.65066 0.0
H130 H 0.56774 0.73335 0.64557 0.0
C131 C 0.53427 0.7219 0.63061 0.0
H132 H 0.50954 0.75072 0.63424 0.0
H133 H 0.44559 0.61585 0.68157 0.0
O134 O 0.5388 0.62565 0.41303 0.0
C135 C 0.49577 0.55294 0.54504 0.0
Co136 Co 0.70573 0.94634 0.67571 0.0
Co137 Co 0.73454 0.03498 0.73182 0.0
C138 C 0.72035 0.0345 0.62654 0.0
O139 O 0.71163 0.99176 0.625 0.0
O140 O 0.72973 0.05464 0.66534 0.0
C141 C 0.69084 0.87693 0.60467 0.0
O142 O 0.70787 0.90733 0.5754 0.0
C143 C 0.79526 0.11229 0.75518 0.0
C144 C 0.7824 0.11946 0.83167 0.0
C145 C 0.81031 0.13506 0.79536 0.0
N146 N 0.76112 0.08346 0.76763 0.0
N147 N 0.75262 0.08898 0.81311 0.0
C148 C 0.81346 0.11678 0.706 0.0
H149 H 0.78603 0.13161 0.68365 0.0
H150 H 0.82194 0.08226 0.69154 0.0
H151 H 0.84424 0.13947 0.70466 0.0
C152 C 0.78879 0.90957 0.72262 0.0
N153 N 0.75944 0.94399 0.71265 0.0
N154 N 0.77007 0.98034 0.73825 0.0
C155 C 0.8056 0.96955 0.76654 0.0
C156 C 0.81895 0.92482 0.75711 0.0
C157 C 0.78578 0.86235 0.70189 0.0
H158 H 0.75335 0.84584 0.71405 0.0
H159 H 0.78433 0.86468 0.66289 0.0
H160 H 0.81565 0.84096 0.71243 0.0
O161 O 0.65118 0.96396 0.71472 0.0
O162 O 0.67157 0.02586 0.75598 0.0
H163 H 0.79482 0.00554 0.83145 0.0
H164 H 0.85273 0.98351 0.82417 0.0
C165 C 0.8231 -0.0007 0.80571 0.0
H166 H 0.83394 0.03261 0.79136 0.0
H167 H 0.72839 0.06987 0.832 0.0
O168 O 0.68925 0.88578 0.64855 0.0
C169 C 0.64192 -0.00427 0.74438 0.0
Co170 Co 0.0485 0.19757 0.93868 0.0
Co171 Co 0.9666 0.2278 0.00442 0.0
C172 C 0.9563 0.20928 0.89962 0.0
O173 O -0.00078 0.20372 0.89233 0.0
O174 O 0.94016 0.21784 0.94055 0.0
C175 C 0.10236 0.15114 0.87209 0.0
O176 O 0.06115 0.13787 0.85858 0.0
C177 C 0.89449 0.29385 0.02765 0.0
C178 C 0.88728 0.28554 0.10467 0.0
C179 C 0.87297 0.31216 0.06719 0.0
N180 N 0.92138 0.25885 0.04135 0.0
N181 N 0.91603 0.25328 0.08725 0.0
C182 C 0.89106 0.31011 0.9779 0.0
H183 H 0.8733 0.28341 0.95658 0.0
H184 H 0.92624 0.3147 0.96294 0.0
H185 H 0.87129 0.34264 0.97561 0.0
C186 C 0.09036 0.28183 0.97843 0.0
N187 N 0.05524 0.25187 0.97382 0.0
N188 N 0.02232 0.26252 0.00406 0.0
C189 C 0.03662 0.29815 0.03073 0.0
C190 C 0.07971 0.31204 0.01492 0.0
C191 C 0.13344 0.28056 0.94922 0.0
H192 H 0.12441 0.27543 0.91156 0.0
H193 H 0.15381 0.3126 0.95358 0.0
H194 H 0.15476 0.25086 0.96011 0.0
O195 O 0.03304 0.14493 0.98076 0.0
O196 O 0.97783 0.16694 0.03095 0.0
H197 H 0.03344 0.34008 0.09426 0.0
H198 H 0.9795 0.33122 0.06434 0.0
C199 C 0.01233 0.31493 0.0742 0.0
H200 H 0.00429 0.28531 0.09719 0.0
H201 H 0.93381 0.22898 0.107 0.0
O202 O 0.10622 0.17972 0.90592 0.0
C203 C 0.00569 0.13679 0.01508 0.0
Co204 Co 0.79686 0.55877 0.18701 0.0
Co205 Co 0.77222 0.48063 0.25828 0.0
C206 C 0.7894 0.46576 0.15274 0.0
O207 O 0.79036 0.50799 0.14198 0.0
O208 O 0.78386 0.45266 0.1951 0.0
C209 C 0.83462 0.61297 0.11425 0.0
O210 O 0.83862 0.57277 0.09338 0.0
C211 C 0.70685 0.40808 0.27994 0.0
C212 C 0.71583 0.3979 0.3564 0.0
C213 C 0.68933 0.38435 0.31818 0.0
N214 N 0.74125 0.43538 0.295 0.0
N215 N 0.74695 0.42869 0.34065 0.0
C216 C 0.69153 0.40494 0.22976 0.0
H217 H 0.71841 0.38652 0.20908 0.0
H218 H 0.68806 0.43997 0.21501 0.0
H219 H 0.65854 0.38591 0.22624 0.0
C220 C 0.71008 0.5979 0.22637 0.0
N221 N 0.74319 0.56549 0.2238 0.0
N222 N 0.73555 0.53448 0.25637 0.0
C223 C 0.69905 0.5476 0.28258 0.0
C224 C 0.68107 0.5876 0.26402 0.0
C225 C 0.70629 0.63721 0.193 0.0
H226 H 0.71195 0.62478 0.15634 0.0
H227 H 0.67213 0.65425 0.19608 0.0
H228 H 0.73381 0.66258 0.201 0.0
O229 O 0.85169 0.54456 0.22717 0.0
O230 O 0.83347 0.4947 0.28351 0.0
H231 H 0.66076 0.54687 0.34838 0.0
H232 H 0.66506 0.49264 0.31795 0.0
C233 C 0.68381 0.52448 0.32694 0.0
H234 H 0.71443 0.5153 0.34816 0.0
H235 H 0.77113 0.44609 0.36127 0.0
O236 O 0.81414 0.61599 0.15389 0.0
C237 C 0.86257 0.52063 0.26295 0.0
Co238 Co 0.45166 0.30524 0.43548 0.0
Co239 Co 0.53545 0.26775 0.49346 0.0
C240 C 0.54215 0.28789 0.38916 0.0
O241 O 0.50002 0.29985 0.38632 0.0
O242 O 0.55904 0.27544 0.42843 0.0
C243 C 0.38195 0.32019 0.36447 0.0
O244 O 0.4087 0.2963 0.33601 0.0
C245 C 0.60304 0.19691 0.51767 0.0
C246 C 0.63133 0.2232 0.58486 0.0
C247 C 0.63433 0.18711 0.55298 0.0
N248 N 0.58231 0.23697 0.52816 0.0
N249 N 0.59971 0.25275 0.56814 0.0
C250 C 0.59308 0.16874 0.47462 0.0
H251 H 0.5636 0.18331 0.45488 0.0
H252 H 0.58522 0.13279 0.48448 0.0
H253 H 0.62423 0.16799 0.45171 0.0
C254 C 0.40636 0.22335 0.47648 0.0
N255 N 0.44363 0.25021 0.46914 0.0
N256 N 0.47829 0.23511 0.49457 0.0
C257 C 0.4637 0.19858 0.51933 0.0
C258 C 0.41815 0.18963 0.5084 0.0
C259 C 0.35986 0.2317 0.45575 0.0
H260 H 0.34767 0.26642 0.46627 0.0
H261 H 0.3628 0.2308 0.41677 0.0
H262 H 0.33446 0.20554 0.46746 0.0
O263 O 0.46997 0.35569 0.47841 0.0
O264 O 0.52801 0.32966 0.52164 0.0
H265 H 0.5158 0.19683 0.57269 0.0
H266 H 0.47023 0.15521 0.58048 0.0
C267 C 0.49204 0.17314 0.55413 0.0
H268 H 0.51194 0.14681 0.53437 0.0
H269 H 0.58952 0.28339 0.58439 0.0
O270 O 0.39333 0.32629 0.4072 0.0
C271 C 0.50026 0.36146 0.51021 0.0
C272 C 0.21994 0.13211 0.81467 0.0
C273 C 0.22151 0.08344 0.81399 0.0
C274 C 0.14704 0.07971 0.85443 0.0
C275 C 0.14362 0.12828 0.85214 0.0
N276 N 0.1726 0.20042 0.82287 0.0
N277 N 0.18205 0.01103 0.82187 0.0
C278 C 0.17891 0.15451 0.83021 0.0
C279 C 0.18358 0.05727 0.83032 0.0
N280 N 0.25804 0.15685 0.80186 0.0
N281 N 0.11692 0.05514 0.88169 0.0
H282 H 0.20772 0.99379 0.80288 0.0
H283 H 0.15327 0.9908 0.82925 0.0
H284 H 0.09077 0.07032 0.9018 0.0
H285 H 0.12085 0.02021 0.88829 0.0
H286 H 0.26086 0.19221 0.80675 0.0
H287 H 0.28824 0.1416 0.78912 0.0
H288 H 0.19498 0.2204 0.80277 0.0
H289 H 0.14287 0.21789 0.83352 0.0
C290 C 0.86724 0.73272 0.07231 0.0
C291 C 0.91524 0.72671 0.06443 0.0
C292 C 0.91053 0.64769 0.0922 0.0
C293 C 0.86189 0.65226 0.09668 0.0
N294 N 0.79267 0.69644 0.08455 0.0
N295 N 0.98068 0.6762 0.05631 0.0
C296 C 0.83979 0.69409 0.08495 0.0
C297 C 0.93628 0.68345 0.07106 0.0
N298 N 0.84821 0.7755 0.06893 0.0
N299 N 0.93263 0.61049 0.11074 0.0
H300 H 0.00094 0.70177 0.04101 0.0
H301 H 0.99577 0.64374 0.0551 0.0
H302 H 0.91552 0.58426 0.12858 0.0
H303 H 0.96843 0.60802 0.11285 0.0
H304 H 0.81456 0.78315 0.07934 0.0
H305 H 0.86711 0.80425 0.05854 0.0
H306 H 0.77442 0.72443 0.07171 0.0
H307 H 0.77161 0.66876 0.09359 0.0
C308 C 0.31452 0.42278 0.3203 0.0
C309 C 0.26947 0.40377 0.31814 0.0
C310 C 0.30004 0.32783 0.33779 0.0
C311 C 0.34396 0.34798 0.34525 0.0
N312 N 0.39344 0.41473 0.34685 0.0
N313 N 0.21767 0.33983 0.32856 0.0
C314 C 0.35133 0.39552 0.33739 0.0
C315 C 0.26175 0.35662 0.32766 0.0
N316 N 0.3224 0.46633 0.3043 0.0
N317 N 0.29518 0.2812 0.33991 0.0
H318 H 0.1889 0.35988 0.32081 0.0
H319 H 0.20914 0.30707 0.34019 0.0
H320 H 0.3226 0.25933 0.34751 0.0
H321 H 0.26517 0.26386 0.33039 0.0
H322 H 0.35519 0.48043 0.3002 0.0
H323 H 0.29642 0.48735 0.29114 0.0
H324 H 0.3993 0.45 0.34791 0.0
H325 H 0.42227 0.3955 0.35632 0.0
C326 C 0.61451 0.84782 0.57741 0.0
C327 C 0.66191 0.83924 0.58626 0.0
C328 C 0.65101 0.75743 0.56889 0.0
C329 C 0.604 0.76636 0.55861 0.0
N330 N 0.54268 0.82022 0.54402 0.0
N331 N 0.72749 0.78862 0.58377 0.0
C332 C 0.58626 0.81168 0.56012 0.0
C333 C 0.68089 0.7948 0.57985 0.0
N334 N 0.59618 0.89018 0.58705 0.0
N335 N 0.66654 0.71312 0.56979 0.0
H336 H 0.75001 0.81531 0.59248 0.0
H337 H 0.74431 0.75813 0.57511 0.0
H338 H 0.64582 0.68508 0.56088 0.0
H339 H 0.69896 0.7037 0.58202 0.0
H340 H 0.56093 0.89706 0.58701 0.0
H341 H 0.61592 0.91811 0.59831 0.0
H342 H 0.52941 0.85309 0.53943 0.0
H343 H 0.52084 0.79451 0.53134 0.0
C344 C 0.88909 0.22487 0.84646 0.0
C345 C 0.92393 0.19471 0.86248 0.0
C346 C 0.89435 0.13435 0.81089 0.0
C347 C 0.85384 0.1604 0.80377 0.0
N348 N 0.81276 0.23166 0.81198 0.0
N349 N 0.95398 0.11709 0.86658 0.0
C350 C 0.85156 0.20643 0.82016 0.0
C351 C 0.92561 0.14862 0.84597 0.0
N352 N 0.89204 0.27072 0.85634 0.0
N353 N 0.90264 0.09548 0.78515 0.0
H354 H 0.97515 0.12454 0.89522 0.0
H355 H 0.95249 0.08208 0.85877 0.0
H356 H 0.88144 0.08485 0.75777 0.0
H357 H 0.93358 0.07733 0.78699 0.0
H358 H 0.86948 0.29504 0.84276 0.0
H359 H 0.91967 0.28479 0.875 0.0
H360 H 0.80641 0.26357 0.82747 0.0
H361 H 0.78613 0.21945 0.79059 0.0
C362 C 0.87195 0.39731 0.07625 0.0
C363 C 0.84695 0.35565 0.07256 0.0
C364 C 0.7785 0.39402 0.10511 0.0
C365 C 0.80665 0.4317 0.11828 0.0
N366 N 0.88248 0.46697 0.12118 0.0
N367 N 0.77562 0.31403 0.08038 0.0
C368 C 0.8538 0.43331 0.10437 0.0
C369 C 0.79965 0.35411 0.08547 0.0
N370 N 0.91329 0.40243 0.0536 0.0
N371 N 0.73182 0.3967 0.11136 0.0
H372 H 0.78972 0.28522 0.06359 0.0
H373 H 0.74264 0.30885 0.0941 0.0
H374 H 0.7159 0.42609 0.12506 0.0
H375 H 0.70881 0.3718 0.0994 0.0
H376 H 0.93087 0.43362 0.05194 0.0
H377 H 0.92719 0.37734 0.0316 0.0
H378 H 0.91821 0.46606 0.1169 0.0
H379 H 0.87169 0.49372 0.14314 0.0
C380 C 0.62002 0.27923 0.351 0.0
C381 C 0.575 0.29814 0.34982 0.0
C382 C 0.60397 0.36721 0.3122 0.0
C383 C 0.64987 0.35185 0.32012 0.0
N384 N 0.70158 0.28831 0.33194 0.0
N385 N 0.52409 0.34445 0.30327 0.0
C386 C 0.65791 0.3059 0.33436 0.0
C387 C 0.56683 0.33698 0.32161 0.0
N388 N 0.62591 0.2363 0.36898 0.0
N389 N 0.59532 0.41127 0.29874 0.0
H390 H 0.49783 0.32007 0.30592 0.0
H391 H 0.517 0.37104 0.28 0.0
H392 H 0.62118 0.43475 0.29093 0.0
H393 H 0.56223 0.42528 0.29826 0.0
H394 H 0.65781 0.22143 0.37572 0.0
H395 H 0.59765 0.21537 0.37686 0.0
H396 H 0.70996 0.25453 0.33987 0.0
H397 H 0.72938 0.30708 0.31859 0.0
C398 C 0.70941 0.1443 0.56114 0.0
C399 C 0.6604 0.14401 0.56022 0.0
C400 C 0.66114 0.06132 0.57159 0.0
C401 C 0.70746 0.06395 0.5863 0.0
N402 N 0.7788 0.1056 0.58827 0.0
N403 N 0.58986 0.1026 0.5767 0.0
C404 C 0.73285 0.10472 0.57808 0.0
C405 C 0.63612 0.10246 0.56787 0.0
N406 N 0.7331 0.18215 0.54635 0.0
N407 N 0.64048 0.01998 0.56335 0.0
H408 H 0.57175 0.13303 0.58174 0.0
H409 H 0.57152 0.07311 0.58582 0.0
H410 H 0.65911 0.98939 0.56234 0.0
H411 H 0.60676 0.01725 0.5509 0.0
H412 H 0.76889 0.18324 0.54312 0.0
H413 H 0.7165 0.21135 0.53374 0.0
H414 H 0.79876 0.13534 0.58811 0.0
H415 H 0.79634 0.07593 0.59833 0.0
C416 C 0.63905 0.65388 0.30257 0.0
C417 C 0.63785 0.61031 0.27994 0.0
C418 C 0.5598 0.5968 0.31017 0.0
C419 C 0.56188 0.63949 0.33424 0.0
N420 N 0.59467 0.71527 0.33894 0.0
N421 N 0.59266 0.54737 0.24951 0.0
C422 C 0.59855 0.6704 0.32536 0.0
C423 C 0.59646 0.58424 0.27933 0.0
N424 N 0.67944 0.67795 0.30534 0.0
N425 N 0.52358 0.56774 0.31815 0.0
H426 H 0.61894 0.53805 0.22601 0.0
H427 H 0.56224 0.52886 0.24485 0.0
H428 H 0.49498 0.57723 0.33851 0.0
H429 H 0.52277 0.53381 0.30632 0.0
H430 H 0.68334 0.70734 0.3261 0.0
H431 H 0.71009 0.66673 0.28975 0.0
H432 H 0.61902 0.74025 0.33042 0.0
H433 H 0.56439 0.72836 0.3538 0.0
C434 C 0.38721 0.1097 0.51573 0.0
C435 C 0.38841 0.15558 0.53245 0.0
C436 C 0.36068 0.13153 0.60985 0.0
C437 C 0.35903 0.08515 0.59348 0.0
N438 N 0.36407 0.03071 0.52883 0.0
N439 N 0.36442 0.21219 0.58942 0.0
C440 C 0.36957 0.07453 0.54553 0.0
C441 C 0.37084 0.16707 0.57749 0.0
N442 N 0.40518 0.09962 0.47221 0.0
N443 N 0.35474 0.14177 0.65663 0.0
H444 H 0.37204 0.23895 0.56638 0.0
H445 H 0.34729 0.22289 0.61994 0.0
H446 H 0.34722 0.1175 0.68221 0.0
H447 H 0.3612 0.17411 0.67106 0.0
H448 H 0.41105 0.06639 0.45986 0.0
H449 H 0.41612 0.12502 0.44889 0.0
H450 H 0.36608 0.02192 0.49324 0.0
H451 H 0.35512 0.00311 0.55018 0.0
C452 C 0.87731 0.86644 0.85842 0.0
C453 C 0.9247 0.8712 0.84546 0.0
C454 C 0.90178 0.90437 0.7696 0.0
C455 C 0.85486 0.89903 0.78275 0.0
N456 N 0.7973 0.86598 0.83349 0.0
N457 N 0.98238 0.88987 0.78665 0.0
C458 C 0.84251 0.87695 0.82514 0.0
C459 C 0.93701 0.88814 0.80011 0.0
N460 N 0.86527 0.85347 0.90305 0.0
N461 N 0.91248 0.92702 0.72888 0.0
H462 H 0.00965 0.88301 0.80932 0.0
H463 H 0.99326 0.89628 0.7523 0.0
H464 H 0.88748 0.93708 0.70468 0.0
H465 H 0.94561 0.93766 0.71978 0.0
H466 H 0.83175 0.85528 0.91631 0.0
H467 H 0.88898 0.84398 0.92848 0.0
H468 H 0.78638 0.84529 0.86119 0.0
H469 H 0.77087 0.874 0.81013 0.0
C470 C 0.14772 0.344 0.05946 0.0
C471 C 0.10671 0.35141 0.03348 0.0
C472 C 0.10454 0.43161 0.05983 0.0
C473 C 0.14503 0.42382 0.08635 0.0
N474 N 0.21332 0.37875 0.09871 0.0
N475 N 0.05356 0.40443 -0.00199 0.0
C476 C 0.16946 0.382 0.08177 0.0
C477 C 0.08767 0.39612 0.02997 0.0
N478 N 0.1642 0.3005 0.06556 0.0
N479 N 0.0815 0.47236 0.06446 0.0
H480 H 0.04104 0.37909 0.97521 0.0
H481 H 0.04076 0.43706 -0.009 0.0
H482 H 0.09443 0.49994 0.08406 0.0
H483 H 0.04875 0.47811 0.05076 0.0
H484 H 0.19094 0.29272 0.08857 0.0
H485 H 0.14886 0.27156 0.05053 0.0
H486 H 0.23429 0.35014 0.09327 0.0
H487 H 0.23044 0.40689 0.11334 0.0
C488 C 0.33108 0.676 0.45132 0.0
C489 C 0.35677 0.63859 0.469 0.0
C490 C 0.28896 0.58872 0.46396 0.0
C491 C 0.26464 0.62459 0.44155 0.0
N492 N 0.26253 0.70111 0.40987 0.0
N493 N 0.36335 0.55753 0.485 0.0
C494 C 0.28564 0.66804 0.43423 0.0
C495 C 0.33653 0.59445 0.47355 0.0
N496 N 0.3498 0.7191 0.45184 0.0
N497 N 0.26653 0.54919 0.47622 0.0
H498 H 0.39864 0.56008 0.49161 0.0
H499 H 0.35174 0.52369 0.48371 0.0
H500 H 0.23172 0.54342 0.4693 0.0
H501 H 0.28122 0.52381 0.497 0.0
H502 H 0.33123 0.74864 0.444 0.0
H503 H 0.38336 0.72566 0.4633 0.0
H504 H 0.27774 0.73153 0.39855 0.0
H505 H 0.22848 0.69701 0.39876 0.0
C506 C 0.33236 0.82498 0.70419 0.0
C507 C 0.36842 0.8565 0.7137 0.0
C508 C 0.42527 0.79451 0.71037 0.0
C509 C 0.39004 0.76369 0.69619 0.0
N510 N 0.31088 0.74939 0.67489 0.0
N511 N 0.44984 0.87362 0.71754 0.0
C512 C 0.3437 0.77885 0.69179 0.0
C513 C 0.41509 0.8419 0.71441 0.0
N514 N 0.28747 0.83891 0.70814 0.0
N515 N 0.46836 0.7784 0.72066 0.0
H516 H 0.44382 0.90885 0.72017 0.0
H517 H 0.48461 0.86556 0.7131 0.0
H518 H 0.47729 0.74382 0.71813 0.0
H519 H 0.49407 0.79855 0.73589 0.0
H520 H 0.25948 0.8165 0.70667 0.0
H521 H 0.27832 0.87282 0.7158 0.0
H522 H 0.27769 0.75962 0.66581 0.0
H523 H 0.31769 0.71488 0.66757 0.0
C524 C 0.17933 0.83497 0.948 0.0
C525 C 0.14948 0.8712 0.96176 0.0
C526 C 0.21395 0.9255 0.96106 0.0
C527 C 0.24315 0.89034 0.9431 0.0
N528 N 0.25361 0.81269 0.91505 0.0
N529 N 0.13559 0.95219 0.97277 0.0
C530 C 0.22581 0.84529 0.93529 0.0
C531 C 0.16604 0.91685 0.96579 0.0
N532 N 0.16354 0.79074 0.94829 0.0
N533 N 0.232 0.967 0.97428 0.0
H534 H 0.10004 0.94721 0.97585 0.0
H535 H 0.14487 0.98669 0.97103 0.0
H536 H 0.26691 0.97503 0.97129 0.0
H537 H 0.21317 0.99213 -0.00778 0.0
H538 H 0.1848 0.76221 0.94384 0.0
H539 H 0.12925 0.78243 0.95579 0.0
H540 H 0.2417 0.78087 0.90337 0.0
H541 H 0.28847 0.81842 0.90774 0.0
C542 C 0.11841 0.68707 0.14643 0.0
C543 C 0.13537 0.72673 0.17025 0.0
C544 C 0.18912 0.67807 0.21398 0.0
C545 C 0.17028 0.63888 0.19104 0.0
N546 N 0.13826 0.61163 0.11755 0.0
N547 N 0.19509 0.76136 0.21767 0.0
C548 C 0.14195 0.64506 0.15129 0.0
C549 C 0.17347 0.72273 0.20131 0.0
N550 N 0.07858 0.68841 0.121 0.0
N551 N 0.22199 0.67213 0.24764 0.0
H552 H 0.18487 0.79438 0.20827 0.0
H553 H 0.22517 0.76087 0.23756 0.0
H554 H 0.23774 0.64032 0.25251 0.0
H555 H 0.23332 0.698 0.27031 0.0
H556 H 0.06307 0.65883 0.10752 0.0
H557 H 0.05875 0.71785 0.1173 0.0
H558 H 0.11962 0.6162 0.08657 0.0
H559 H 0.15963 0.58287 0.11688 0.0
C560 C 0.57571 0.96158 0.78871 0.0
C561 C 0.59443 -0.00098 0.76338 0.0
C562 C 0.52031 0.03906 0.76922 0.0
C563 C 0.49972 -0.00152 0.78687 0.0
N564 N 0.50713 0.91849 0.80858 0.0
N565 N 0.58325 0.07169 0.72424 0.0
C566 C 0.52726 0.95915 0.79609 0.0
C567 C 0.56662 0.0377 0.75272 0.0
N568 N 0.60435 0.92852 0.80601 0.0
N569 N 0.49547 0.07893 0.7684 0.0
H570 H 0.61663 0.07179 0.71036 0.0
H571 H 0.56265 0.09783 0.71093 0.0
H572 H 0.46158 0.08098 0.78091 0.0
H573 H 0.50987 0.11063 0.75993 0.0
H574 H 0.59322 0.9028 0.82876 0.0
H575 H 0.64011 0.92952 0.8014 0.0
H576 H 0.52514 0.88757 0.80982 0.0
H577 H 0.47179 0.91442 0.81388 0.0
C578 C 0.04542 0.07143 0.05418 0.0
C579 C 0.00464 0.0899 0.03459 0.0
C580 C 0.96604 0.01566 0.04369 0.0
C581 C 0.00904 -0.00455 0.05466 0.0
N582 N 0.09116 0.00338 0.06759 0.0
N583 N 0.92665 0.07892 0.00657 0.0
C584 C 0.04908 0.02318 0.0601 0.0
C585 C 0.9647 0.06211 0.02898 0.0
N586 N 0.08051 0.10014 0.06727 0.0
N587 N 0.92659 0.99014 0.04715 0.0
H588 H 0.92424 0.1125 -0.00564 0.0
H589 H 0.89879 0.0585 -0.00341 0.0
H590 H 0.92681 0.95601 0.05821 0.0
H591 H 0.89363 0.00395 0.04376 0.0
H592 H 0.10934 0.08925 0.08589 0.0
H593 H 0.0786 0.13573 0.06353 0.0
H594 H 0.12218 0.02139 0.06561 0.0
H595 H 0.09572 0.96827 0.07247 0.0
C596 C 0.9832 0.56309 0.2891 0.0
C597 C 0.00853 0.52135 0.2871 0.0
C598 C 0.9373 0.47826 0.2731 0.0
C599 C 0.91166 0.51971 0.27713 0.0
N600 N 0.90855 0.59943 0.30005 0.0
N601 N 0.00877 0.43871 0.29005 0.0
C602 C 0.93415 0.56146 0.28886 0.0
C603 C 0.98516 0.47874 0.28341 0.0
N604 N 0.00573 0.60436 0.28807 0.0
N605 N 0.91695 0.43911 0.25618 0.0
H606 H 0.04384 0.43799 0.29825 0.0
H607 H 0.99266 0.40678 0.29225 0.0
H608 H 0.8823 0.43709 0.24673 0.0
H609 H 0.93549 0.40961 0.24736 0.0
H610 H 0.98887 0.63562 0.2838 0.0
H611 H 0.04157 0.60737 0.28757 0.0
H612 H 0.92286 0.6297 0.31324 0.0
H613 H 0.87252 0.59909 0.30053 0.0
C614 C 0.46508 0.42647 0.55493 0.0
C615 C 0.50424 0.40756 0.53195 0.0
C616 C 0.54308 0.4821 0.53683 0.0
C617 C 0.50068 0.50264 0.55027 0.0
N618 N 0.41985 0.49461 0.57079 0.0
N619 N 0.58059 0.41753 0.49868 0.0
C620 C 0.46143 0.47488 0.56005 0.0
C621 C 0.54377 0.43511 0.52313 0.0
N622 N 0.43138 0.39794 0.57163 0.0
N623 N 0.58257 0.50778 0.53703 0.0
H624 H 0.58274 0.38335 0.48777 0.0
H625 H 0.60772 0.43763 0.4862 0.0
H626 H 0.58287 0.54224 0.54745 0.0
H627 H 0.61532 0.49391 0.53162 0.0
H628 H 0.40394 0.40921 0.59257 0.0
H629 H 0.43352 0.36226 0.56848 0.0
H630 H 0.389 0.47627 0.57206 0.0
H631 H 0.41524 0.52981 0.57533 0.0
loop_
_geom_bond_atom_site_label_1
_geom_bond_atom_site_label_2
_geom_bond_distance
_geom_bond_site_symmetry_2
_ccdc_geom_bond_type
Co0 O3 1.970 1_545 S
Co0 N17 1.989 . S
Co0 O25 1.967 . S
Co0 O32 1.920 . S
Co1 O4 1.966 . S
Co1 N10 2.022 . S
Co1 N18 1.993 1_565 S
Co1 O26 1.941 . S
C2 O3 1.258 . S
C2 O4 1.263 . S
O3 Co0 1.970 1_565 S
O3 C2 1.258 . S
O4 Co1 1.966 . S
O4 C2 1.263 . S
C5 O6 1.235 . S
C5 O32 1.289 . S
O6 C5 1.235 . S
C7 C9 1.400 . S
C7 N10 1.351 . S
C7 C12 1.501 . S
C8 C9 1.387 . S
C8 N11 1.341 . S
C9 C7 1.400 . S
C9 C8 1.387 . S
N10 Co1 2.022 . S
N10 C7 1.351 . S
N10 N11 1.365 . S
N11 C8 1.341 . S
N11 N10 1.365 . S
N11 H31 0.862 . S
C12 C7 1.501 . S
C12 H13 0.961 . S
C12 H14 0.961 . S
C12 H15 0.960 . S
H13 C12 0.961 . S
H14 C12 0.961 . S
H15 C12 0.960 . S
C16 N17 1.342 . S
C16 C20 1.401 . S
C16 C21 1.499 . S
N17 Co0 1.989 . S
N17 C16 1.342 . S
N17 N18 1.388 . S
N18 Co1 1.993 1_545 S
N18 N17 1.388 . S
N18 C19 1.346 . S
C19 N18 1.346 . S
C19 C20 1.396 . S
C19 C29 1.510 . S
C20 C16 1.401 . S
C20 C19 1.396 . S
C21 C16 1.499 . S
C21 H22 0.959 . S
C21 H23 0.960 . S
C21 H24 0.961 . S
H22 C21 0.959 . S
H23 C21 0.960 . S
H24 C21 0.961 . S
O25 Co0 1.967 . S
O25 C33 1.252 1_545 S
O26 Co1 1.941 . S
O26 C33 1.272 . S
H27 C29 0.959 . S
H28 C29 0.961 . S
C29 C19 1.510 . S
C29 H27 0.959 . S
C29 H28 0.961 . S
C29 H30 0.960 1_545 S
H30 C29 0.960 1_565 S
H31 N11 0.862 . S
O32 Co0 1.920 . S
O32 C5 1.289 . S
C33 O25 1.252 1_565 S
C33 O26 1.272 . S
Co34 O37 1.970 1_655 S
Co34 N51 1.989 1_556 S
Co34 O59 1.967 . S
Co34 O66 1.920 . S
Co35 O38 1.966 1_554 S
Co35 N44 2.022 . S
Co35 N52 1.993 1_455 S
Co35 O60 1.941 . S
C36 O37 1.258 . S
C36 O38 1.263 . S
O37 Co34 1.970 1_455 S
O37 C36 1.258 . S
O38 Co35 1.966 1_556 S
O38 C36 1.263 . S
C39 O40 1.235 . S
C39 O66 1.289 . S
O40 C39 1.235 . S
C41 C43 1.400 . S
C41 N44 1.351 . S
C41 C46 1.501 . S
C42 C43 1.387 . S
C42 N45 1.341 . S
C43 C41 1.400 . S
C43 C42 1.387 . S
N44 Co35 2.022 . S
N44 C41 1.351 . S
N44 N45 1.365 . S
N45 C42 1.341 . S
N45 N44 1.365 . S
N45 H65 0.862 . S
C46 C41 1.501 . S
C46 H47 0.961 . S
C46 H48 0.961 . S
C46 H49 0.960 . S
H47 C46 0.961 . S
H48 C46 0.961 . S
H49 C46 0.960 . S
C50 N51 1.342 . S
C50 C54 1.401 . S
C50 C55 1.499 1_554 S
N51 Co34 1.989 1_554 S
N51 C50 1.342 . S
N51 N52 1.388 . S
N52 Co35 1.993 1_655 S
N52 N51 1.388 . S
N52 C53 1.346 . S
C53 N52 1.346 . S
C53 C54 1.396 . S
C53 C63 1.510 1_655 S
C54 C50 1.401 . S
C54 C53 1.396 . S
C55 C50 1.499 1_556 S
C55 H56 0.959 . S
C55 H57 0.960 . S
C55 H58 0.961 1_556 S
H56 C55 0.959 . S
H57 C55 0.960 . S
H58 C55 0.961 1_554 S
O59 Co34 1.967 . S
O59 C67 1.258 1_656 S
O60 Co35 1.941 . S
O60 C67 1.266 . S
H61 C63 0.959 1_655 S
H62 C63 0.961 . S
C63 C53 1.510 1_455 S
C63 H61 0.959 1_455 S
C63 H62 0.961 . S
C63 H64 0.960 . S
H64 C63 0.960 . S
H65 N45 0.862 . S
O66 Co34 1.920 . S
O66 C39 1.289 . S
C67 O59 1.258 1_454 S
C67 O60 1.266 . S
Co68 O71 1.970 . S
Co68 N85 1.989 . S
Co68 O93 1.967 . S
Co68 O100 1.920 . S
Co69 O72 1.966 . S
Co69 N78 2.022 . S
Co69 N86 1.993 . S
Co69 O94 1.941 . S
C70 O71 1.258 . S
C70 O72 1.263 . S
O71 Co68 1.970 . S
O71 C70 1.258 . S
O72 Co69 1.966 . S
O72 C70 1.263 . S
C73 O74 1.235 . S
C73 O100 1.289 . S
O74 C73 1.235 . S
C75 C77 1.400 . S
C75 N78 1.351 . S
C75 C80 1.501 . S
C76 C77 1.387 . S
C76 N79 1.341 . S
C77 C75 1.400 . S
C77 C76 1.387 . S
N78 Co69 2.022 . S
N78 C75 1.351 . S
N78 N79 1.365 . S
N79 C76 1.341 . S
N79 N78 1.365 . S
N79 H99 0.862 . S
C80 C75 1.501 . S
C80 H81 0.961 . S
C80 H82 0.961 . S
C80 H83 0.960 . S
H81 C80 0.961 . S
H82 C80 0.961 . S
H83 C80 0.960 . S
C84 N85 1.342 . S
C84 C88 1.401 . S
C84 C89 1.499 . S
N85 Co68 1.989 . S
N85 C84 1.342 . S
N85 N86 1.388 . S
N86 Co69 1.993 . S
N86 N85 1.388 . S
N86 C87 1.346 . S
C87 N86 1.346 . S
C87 C88 1.396 . S
C87 C97 1.510 . S
C88 C84 1.401 . S
C88 C87 1.396 . S
C89 C84 1.499 . S
C89 H90 0.959 . S
C89 H91 0.960 . S
C89 H92 0.961 . S
H90 C89 0.959 . S
H91 C89 0.960 . S
H92 C89 0.961 . S
O93 Co68 1.967 . S
O93 C101 1.258 . S
O94 Co69 1.941 . S
O94 C101 1.266 . S
H95 C97 0.959 . S
H96 C97 0.961 . S
C97 C87 1.510 . S
C97 H95 0.959 . S
C97 H96 0.961 . S
C97 H98 0.960 . S
H98 C97 0.960 . S
H99 N79 0.862 . S
O100 Co68 1.920 . S
O100 C73 1.289 . S
C101 O93 1.258 . S
C101 O94 1.266 . S
Co102 O105 1.970 . S
Co102 N119 1.989 . S
Co102 O127 1.967 . S
Co102 O134 1.920 . S
Co103 O106 1.966 . S
Co103 N112 2.022 . S
Co103 N120 1.993 . S
Co103 O128 1.941 . S
C104 O105 1.258 . S
C104 O106 1.263 . S
O105 Co102 1.970 . S
O105 C104 1.258 . S
O106 Co103 1.966 . S
O106 C104 1.263 . S
C107 O108 1.235 . S
C107 O134 1.289 . S
O108 C107 1.235 . S
C109 C111 1.400 . S
C109 N112 1.351 . S
C109 C114 1.501 . S
C110 C111 1.387 . S
C110 N113 1.341 . S
C111 C109 1.400 . S
C111 C110 1.387 . S
N112 Co103 2.022 . S
N112 C109 1.351 . S
N112 N113 1.365 . S
N113 C110 1.341 . S
N113 N112 1.365 . S
N113 H133 0.862 . S
C114 C109 1.501 . S
C114 H115 0.961 . S
C114 H116 0.961 . S
C114 H117 0.960 . S
H115 C114 0.961 . S
H116 C114 0.961 . S
H117 C114 0.960 . S
C118 N119 1.342 . S
C118 C122 1.401 . S
C118 C123 1.499 . S
N119 Co102 1.989 . S
N119 C118 1.342 . S
N119 N120 1.388 . S
N120 Co103 1.993 . S
N120 N119 1.388 . S
N120 C121 1.346 . S
C121 N120 1.346 . S
C121 C122 1.396 . S
C121 C131 1.510 . S
C122 C118 1.401 . S
C122 C121 1.396 . S
C123 C118 1.499 . S
C123 H124 0.959 . S
C123 H125 0.960 . S
C123 H126 0.961 . S
H124 C123 0.959 . S
H125 C123 0.960 . S
H126 C123 0.961 . S
O127 Co102 1.967 . S
O127 C135 1.258 . S
O128 Co103 1.941 . S
O128 C135 1.266 . S
H129 C131 0.959 . S
H130 C131 0.961 . S
C131 C121 1.510 . S
C131 H129 0.959 . S
C131 H130 0.961 . S
C131 H132 0.960 . S
H132 C131 0.960 . S
H133 N113 0.862 . S
O134 Co102 1.920 . S
O134 C107 1.289 . S
C135 O127 1.258 . S
C135 O128 1.266 . S
Co136 O139 1.970 1_565 S
Co136 N153 1.989 . S
Co136 O161 1.967 . S
Co136 O168 1.920 . S
Co137 O140 1.966 . S
Co137 N146 2.022 . S
Co137 N154 1.993 1_545 S
Co137 O162 1.941 . S
C138 O139 1.258 . S
C138 O140 1.263 . S
O139 Co136 1.970 1_545 S
O139 C138 1.258 . S
O140 Co137 1.966 . S
O140 C138 1.263 . S
C141 O142 1.235 . S
C141 O168 1.289 . S
O142 C141 1.235 . S
C143 C145 1.400 . S
C143 N146 1.351 . S
C143 C148 1.501 . S
C144 C145 1.387 . S
C144 N147 1.341 . S
C145 C143 1.400 . S
C145 C144 1.387 . S
N146 Co137 2.022 . S
N146 C143 1.351 . S
N146 N147 1.365 . S
N147 C144 1.341 . S
N147 N146 1.365 . S
N147 H167 0.862 . S
C148 C143 1.501 . S
C148 H149 0.961 . S
C148 H150 0.961 . S
C148 H151 0.960 . S
H149 C148 0.961 . S
H150 C148 0.961 . S
H151 C148 0.960 . S
C152 N153 1.342 . S
C152 C156 1.401 . S
C152 C157 1.499 . S
N153 Co136 1.989 . S
N153 C152 1.342 . S
N153 N154 1.388 . S
N154 Co137 1.993 1_565 S
N154 N153 1.388 . S
N154 C155 1.346 . S
C155 N154 1.346 . S
C155 C156 1.396 . S
C155 C165 1.510 1_565 S
C156 C152 1.401 . S
C156 C155 1.396 . S
C157 C152 1.499 . S
C157 H158 0.959 . S
C157 H159 0.960 . S
C157 H160 0.961 . S
H158 C157 0.959 . S
H159 C157 0.960 . S
H160 C157 0.961 . S
O161 Co136 1.967 . S
O161 C169 1.258 1_565 S
O162 Co137 1.941 . S
O162 C169 1.266 . S
H163 C165 0.959 1_565 S
H164 C165 0.961 . S
C165 C155 1.510 1_545 S
C165 H163 0.959 1_545 S
C165 H164 0.961 . S
C165 H166 0.960 . S
H166 C165 0.960 . S
H167 N147 0.862 . S
O168 Co136 1.920 . S
O168 C141 1.289 . S
C169 O161 1.258 1_545 S
C169 O162 1.266 . S
Co170 O173 1.970 1_455 S
Co170 N187 1.989 1_556 S
Co170 O195 1.967 . S
Co170 O202 1.920 . S
Co171 O174 1.966 1_554 S
Co171 N180 2.022 . S
Co171 N188 1.993 1_655 S
Co171 O196 1.941 . S
C172 O173 1.258 . S
C172 O174 1.263 . S
O173 Co170 1.970 1_655 S
O173 C172 1.258 . S
O174 Co171 1.966 1_556 S
O174 C172 1.263 . S
C175 O176 1.235 . S
C175 O202 1.289 . S
O176 C175 1.235 . S
C177 C179 1.400 . S
C177 N180 1.351 . S
C177 C182 1.501 . S
C178 C179 1.387 . S
C178 N181 1.341 . S
C179 C177 1.400 . S
C179 C178 1.387 . S
N180 Co171 2.022 . S
N180 C177 1.351 . S
N180 N181 1.365 . S
N181 C178 1.341 . S
N181 N180 1.365 . S
N181 H201 0.862 . S
C182 C177 1.501 . S
C182 H183 0.961 . S
C182 H184 0.961 . S
C182 H185 0.960 . S
H183 C182 0.961 . S
H184 C182 0.961 . S
H185 C182 0.960 . S
C186 N187 1.342 . S
C186 C190 1.401 . S
C186 C191 1.499 1_554 S
N187 Co170 1.989 1_554 S
N187 C186 1.342 . S
N187 N188 1.388 . S
N188 Co171 1.993 1_455 S
N188 N187 1.388 . S
N188 C189 1.346 . S
C189 N188 1.346 . S
C189 C190 1.396 . S
C189 C199 1.510 . S
C190 C186 1.401 . S
C190 C189 1.396 . S
C191 C186 1.499 1_556 S
C191 H192 0.959 . S
C191 H193 0.960 . S
C191 H194 0.961 1_556 S
H192 C191 0.959 . S
H193 C191 0.960 . S
H194 C191 0.961 1_554 S
O195 Co170 1.967 . S
O195 C203 1.251 1_456 S
O196 Co171 1.941 . S
O196 C203 1.273 . S
H197 C199 0.959 . S
H198 C199 0.961 . S
C199 C189 1.510 . S
C199 H197 0.959 . S
C199 H198 0.961 . S
C199 H200 0.960 1_455 S
H200 C199 0.960 1_655 S
H201 N181 0.862 . S
O202 Co170 1.920 . S
O202 C175 1.289 . S
C203 O195 1.251 1_654 S
C203 O196 1.273 . S
Co204 O207 1.970 . S
Co204 N221 1.989 . S
Co204 O229 1.967 . S
Co204 O236 1.920 . S
Co205 O208 1.966 . S
Co205 N214 2.022 . S
Co205 N222 1.993 . S
Co205 O230 1.941 . S
C206 O207 1.258 . S
C206 O208 1.263 . S
O207 Co204 1.970 . S
O207 C206 1.258 . S
O208 Co205 1.966 . S
O208 C206 1.263 . S
C209 O210 1.235 . S
C209 O236 1.289 . S
O210 C209 1.235 . S
C211 C213 1.400 . S
C211 N214 1.351 . S
C211 C216 1.501 . S
C212 C213 1.387 . S
C212 N215 1.341 . S
C213 C211 1.400 . S
C213 C212 1.387 . S
N214 Co205 2.022 . S
N214 C211 1.351 . S
N214 N215 1.365 . S
N215 C212 1.341 . S
N215 N214 1.365 . S
N215 H235 0.862 . S
C216 C211 1.501 . S
C216 H217 0.961 . S
C216 H218 0.961 . S
C216 H219 0.960 . S
H217 C216 0.961 . S
H218 C216 0.961 . S
H219 C216 0.960 . S
C220 N221 1.342 . S
C220 C224 1.401 . S
C220 C225 1.499 . S
N221 Co204 1.989 . S
N221 C220 1.342 . S
N221 N222 1.388 . S
N222 Co205 1.993 . S
N222 N221 1.388 . S
N222 C223 1.346 . S
C223 N222 1.346 . S
C223 C224 1.396 . S
C223 C233 1.510 . S
C224 C220 1.401 . S
C224 C223 1.396 . S
C225 C220 1.499 . S
C225 H226 0.959 . S
C225 H227 0.960 . S
C225 H228 0.961 . S
H226 C225 0.959 . S
H227 C225 0.960 . S
H228 C225 0.961 . S
O229 Co204 1.967 . S
O229 C237 1.258 . S
O230 Co205 1.941 . S
O230 C237 1.266 . S
H231 C233 0.959 . S
H232 C233 0.961 . S
C233 C223 1.510 . S
C233 H231 0.959 . S
C233 H232 0.961 . S
C233 H234 0.960 . S
H234 C233 0.960 . S
H235 N215 0.862 . S
O236 Co204 1.920 . S
O236 C209 1.289 . S
C237 O229 1.258 . S
C237 O230 1.266 . S
Co238 O241 1.970 . S
Co238 N255 1.989 . S
Co238 O263 1.967 . S
Co238 O270 1.920 . S
Co239 O242 1.966 . S
Co239 N248 2.022 . S
Co239 N256 1.993 . S
Co239 O264 1.941 . S
C240 O241 1.258 . S
C240 O242 1.263 . S
O241 Co238 1.970 . S
O241 C240 1.258 . S
O242 Co239 1.966 . S
O242 C240 1.263 . S
C243 O244 1.235 . S
C243 O270 1.289 . S
O244 C243 1.235 . S
C245 C247 1.400 . S
C245 N248 1.351 . S
C245 C250 1.501 . S
C246 C247 1.387 . S
C246 N249 1.341 . S
C247 C245 1.400 . S
C247 C246 1.387 . S
N248 Co239 2.022 . S
N248 C245 1.351 . S
N248 N249 1.365 . S
N249 C246 1.341 . S
N249 N248 1.365 . S
N249 H269 0.862 . S
C250 C245 1.501 . S
C250 H251 0.961 . S
C250 H252 0.961 . S
C250 H253 0.960 . S
H251 C250 0.961 . S
H252 C250 0.961 . S
H253 C250 0.960 . S
C254 N255 1.342 . S
C254 C258 1.401 . S
C254 C259 1.499 . S
N255 Co238 1.989 . S
N255 C254 1.342 . S
N255 N256 1.388 . S
N256 Co239 1.993 . S
N256 N255 1.388 . S
N256 C257 1.346 . S
C257 N256 1.346 . S
C257 C258 1.396 . S
C257 C267 1.510 . S
C258 C254 1.401 . S
C258 C257 1.396 . S
C259 C254 1.499 . S
C259 H260 0.959 . S
C259 H261 0.960 . S
C259 H262 0.961 . S
H260 C259 0.959 . S
H261 C259 0.960 . S
H262 C259 0.961 . S
O263 Co238 1.967 . S
O263 C271 1.258 . S
O264 Co239 1.941 . S
O264 C271 1.266 . S
H265 C267 0.959 . S
H266 C267 0.961 . S
C267 C257 1.510 . S
C267 H265 0.959 . S
C267 H266 0.961 . S
C267 H268 0.960 . S
H268 C267 0.960 . S
H269 N249 0.862 . S
O270 Co238 1.920 . S
O270 C243 1.289 . S
C271 O263 1.258 . S
C271 O264 1.266 . S
C272 C273 1.363 . S
C272 C278 1.379 . S
C272 N280 1.356 . S
C273 C272 1.363 . S
C273 C279 1.363 . S
C274 C275 1.363 . S
C274 C279 1.379 . S
C274 N281 1.356 . S
C275 C274 1.363 . S
C275 C278 1.363 . S
N276 C278 1.356 . S
N276 H288 0.984 . S
N276 H289 0.985 . S
N277 C279 1.356 . S
N277 H282 0.984 . S
N277 H283 0.985 . S
C278 C272 1.379 . S
C278 C275 1.363 . S
C278 N276 1.356 . S
C279 C273 1.363 . S
C279 C274 1.379 . S
C279 N277 1.356 . S
N280 C272 1.356 . S
N280 H286 0.984 . S
N280 H287 0.984 . S
N281 C274 1.356 . S
N281 H284 0.984 . S
N281 H285 0.985 . S
H282 N277 0.984 . S
H283 N277 0.985 . S
H284 N281 0.984 . S
H285 N281 0.985 . S
H286 N280 0.984 . S
H287 N280 0.984 . S
H288 N276 0.984 . S
H289 N276 0.985 . S
C290 C291 1.363 . S
C290 C296 1.379 . S
C290 N298 1.356 . S
C291 C290 1.363 . S
C291 C297 1.363 . S
C292 C293 1.363 . S
C292 C297 1.379 . S
C292 N299 1.356 . S
C293 C292 1.363 . S
C293 C296 1.363 . S
N294 C296 1.356 . S
N294 H306 0.984 . S
N294 H307 0.985 . S
N295 C297 1.356 . S
N295 H300 0.984 1_554 S
N295 H301 0.985 1_554 S
C296 C290 1.379 . S
C296 C293 1.363 . S
C296 N294 1.356 . S
C297 C291 1.363 . S
C297 C292 1.379 . S
C297 N295 1.356 . S
N298 C290 1.356 . S
N298 H304 0.984 . S
N298 H305 0.984 . S
N299 C292 1.356 . S
N299 H302 0.984 . S
N299 H303 0.985 . S
H300 N295 0.984 1_556 S
H301 N295 0.985 1_556 S
H302 N299 0.984 . S
H303 N299 0.985 . S
H304 N298 0.984 . S
H305 N298 0.984 . S
H306 N294 0.984 . S
H307 N294 0.985 . S
C308 C309 1.363 . S
C308 C314 1.379 . S
C308 N316 1.356 . S
C309 C308 1.363 . S
C309 C315 1.363 . S
C310 C311 1.363 . S
C310 C315 1.379 . S
C310 N317 1.356 . S
C311 C310 1.363 . S
C311 C314 1.363 . S
N312 C314 1.356 . S
N312 H324 0.984 . S
N312 H325 0.985 . S
N313 C315 1.356 . S
N313 H318 0.984 . S
N313 H319 0.985 . S
C314 C308 1.379 . S
C314 C311 1.363 . S
C314 N312 1.356 . S
C315 C309 1.363 . S
C315 C310 1.379 . S
C315 N313 1.356 . S
N316 C308 1.356 . S
N316 H322 0.984 . S
N316 H323 0.984 . S
N317 C310 1.356 . S
N317 H320 0.984 . S
N317 H321 0.985 . S
H318 N313 0.984 . S
H319 N313 0.985 . S
H320 N317 0.984 . S
H321 N317 0.985 . S
H322 N316 0.984 . S
H323 N316 0.984 . S
H324 N312 0.984 . S
H325 N312 0.985 . S
C326 C327 1.363 . S
C326 C332 1.379 . S
C326 N334 1.356 . S
C327 C326 1.363 . S
C327 C333 1.363 . S
C328 C329 1.363 . S
C328 C333 1.379 . S
C328 N335 1.356 . S
C329 C328 1.363 . S
C329 C332 1.363 . S
N330 C332 1.356 . S
N330 H342 0.984 . S
N330 H343 0.985 . S
N331 C333 1.356 . S
N331 H336 0.984 . S
N331 H337 0.985 . S
C332 C326 1.379 . S
C332 C329 1.363 . S
C332 N330 1.356 . S
C333 C327 1.363 . S
C333 C328 1.379 . S
C333 N331 1.356 . S
N334 C326 1.356 . S
N334 H340 0.984 . S
N334 H341 0.984 . S
N335 C328 1.356 . S
N335 H338 0.984 . S
N335 H339 0.985 . S
H336 N331 0.984 . S
H337 N331 0.985 . S
H338 N335 0.984 . S
H339 N335 0.985 . S
H340 N334 0.984 . S
H341 N334 0.984 . S
H342 N330 0.984 . S
H343 N330 0.985 . S
C344 C345 1.363 . S
C344 C350 1.379 . S
C344 N352 1.356 . S
C345 C344 1.363 . S
C345 C351 1.363 . S
C346 C347 1.363 . S
C346 C351 1.379 . S
C346 N353 1.356 . S
C347 C346 1.363 . S
C347 C350 1.363 . S
N348 C350 1.356 . S
N348 H360 0.984 . S
N348 H361 0.985 . S
N349 C351 1.356 . S
N349 H354 0.984 . S
N349 H355 0.985 . S
C350 C344 1.379 . S
C350 C347 1.363 . S
C350 N348 1.356 . S
C351 C345 1.363 . S
C351 C346 1.379 . S
C351 N349 1.356 . S
N352 C344 1.356 . S
N352 H358 0.984 . S
N352 H359 0.984 . S
N353 C346 1.356 . S
N353 H356 0.984 . S
N353 H357 0.985 . S
H354 N349 0.984 . S
H355 N349 0.985 . S
H356 N353 0.984 . S
H357 N353 0.985 . S
H358 N352 0.984 . S
H359 N352 0.984 . S
H360 N348 0.984 . S
H361 N348 0.985 . S
C362 C363 1.363 . S
C362 C368 1.379 . S
C362 N370 1.356 . S
C363 C362 1.363 . S
C363 C369 1.363 . S
C364 C365 1.363 . S
C364 C369 1.379 . S
C364 N371 1.356 . S
C365 C364 1.363 . S
C365 C368 1.363 . S
N366 C368 1.356 . S
N366 H378 0.984 . S
N366 H379 0.985 . S
N367 C369 1.356 . S
N367 H372 0.984 . S
N367 H373 0.985 . S
C368 C362 1.379 . S
C368 C365 1.363 . S
C368 N366 1.356 . S
C369 C363 1.363 . S
C369 C364 1.379 . S
C369 N367 1.356 . S
N370 C362 1.356 . S
N370 H376 0.984 . S
N370 H377 0.984 . S
N371 C364 1.356 . S
N371 H374 0.984 . S
N371 H375 0.985 . S
H372 N367 0.984 . S
H373 N367 0.985 . S
H374 N371 0.984 . S
H375 N371 0.985 . S
H376 N370 0.984 . S
H377 N370 0.984 . S
H378 N366 0.984 . S
H379 N366 0.985 . S
C380 C381 1.363 . S
C380 C386 1.379 . S
C380 N388 1.356 . S
C381 C380 1.363 . S
C381 C387 1.363 . S
C382 C383 1.363 . S
C382 C387 1.379 . S
C382 N389 1.356 . S
C383 C382 1.363 . S
C383 C386 1.363 . S
N384 C386 1.356 . S
N384 H396 0.984 . S
N384 H397 0.985 . S
N385 C387 1.356 . S
N385 H390 0.984 . S
N385 H391 0.985 . S
C386 C380 1.379 . S
C386 C383 1.363 . S
C386 N384 1.356 . S
C387 C381 1.363 . S
C387 C382 1.379 . S
C387 N385 1.356 . S
N388 C380 1.356 . S
N388 H394 0.984 . S
N388 H395 0.984 . S
N389 C382 1.356 . S
N389 H392 0.984 . S
N389 H393 0.985 . S
H390 N385 0.984 . S
H391 N385 0.985 . S
H392 N389 0.984 . S
H393 N389 0.985 . S
H394 N388 0.984 . S
H395 N388 0.984 . S
H396 N384 0.984 . S
H397 N384 0.985 . S
C398 C399 1.363 . S
C398 C404 1.379 . S
C398 N406 1.356 . S
C399 C398 1.363 . S
C399 C405 1.363 . S
C400 C401 1.363 . S
C400 C405 1.379 . S
C400 N407 1.356 . S
C401 C400 1.363 . S
C401 C404 1.363 . S
N402 C404 1.356 . S
N402 H414 0.984 . S
N402 H415 0.985 . S
N403 C405 1.356 . S
N403 H408 0.984 . S
N403 H409 0.985 . S
C404 C398 1.379 . S
C404 C401 1.363 . S
C404 N402 1.356 . S
C405 C399 1.363 . S
C405 C400 1.379 . S
C405 N403 1.356 . S
N406 C398 1.356 . S
N406 H412 0.984 . S
N406 H413 0.984 . S
N407 C400 1.356 . S
N407 H410 0.984 . S
N407 H411 0.985 . S
H408 N403 0.984 . S
H409 N403 0.985 . S
H410 N407 0.984 . S
H411 N407 0.985 . S
H412 N406 0.984 . S
H413 N406 0.984 . S
H414 N402 0.984 . S
H415 N402 0.985 . S
C416 C417 1.363 . S
C416 C422 1.379 . S
C416 N424 1.356 . S
C417 C416 1.363 . S
C417 C423 1.363 . S
C418 C419 1.363 . S
C418 C423 1.379 . S
C418 N425 1.356 . S
C419 C418 1.363 . S
C419 C422 1.363 . S
N420 C422 1.356 . S
N420 H432 0.984 . S
N420 H433 0.985 . S
N421 C423 1.356 . S
N421 H426 0.984 . S
N421 H427 0.985 . S
C422 C416 1.379 . S
C422 C419 1.363 . S
C422 N420 1.356 . S
C423 C417 1.363 . S
C423 C418 1.379 . S
C423 N421 1.356 . S
N424 C416 1.356 . S
N424 H430 0.984 . S
N424 H431 0.984 . S
N425 C418 1.356 . S
N425 H428 0.984 . S
N425 H429 0.985 . S
H426 N421 0.984 . S
H427 N421 0.985 . S
H428 N425 0.984 . S
H429 N425 0.985 . S
H430 N424 0.984 . S
H431 N424 0.984 . S
H432 N420 0.984 . S
H433 N420 0.985 . S
C434 C435 1.363 . S
C434 C440 1.379 . S
C434 N442 1.356 . S
C435 C434 1.363 . S
C435 C441 1.363 . S
C436 C437 1.363 . S
C436 C441 1.379 . S
C436 N443 1.356 . S
C437 C436 1.363 . S
C437 C440 1.363 . S
N438 C440 1.356 . S
N438 H450 0.984 . S
N438 H451 0.985 . S
N439 C441 1.356 . S
N439 H444 0.984 . S
N439 H445 0.985 . S
C440 C434 1.379 . S
C440 C437 1.363 . S
C440 N438 1.356 . S
C441 C435 1.363 . S
C441 C436 1.379 . S
C441 N439 1.356 . S
N442 C434 1.356 . S
N442 H448 0.984 . S
N442 H449 0.984 . S
N443 C436 1.356 . S
N443 H446 0.984 . S
N443 H447 0.985 . S
H444 N439 0.984 . S
H445 N439 0.985 . S
H446 N443 0.984 . S
H447 N443 0.985 . S
H448 N442 0.984 . S
H449 N442 0.984 . S
H450 N438 0.984 . S
H451 N438 0.985 . S
C452 C453 1.363 . S
C452 C458 1.379 . S
C452 N460 1.356 . S
C453 C452 1.363 . S
C453 C459 1.363 . S
C454 C455 1.363 . S
C454 C459 1.379 . S
C454 N461 1.356 . S
C455 C454 1.363 . S
C455 C458 1.363 . S
N456 C458 1.356 . S
N456 H468 0.984 . S
N456 H469 0.985 . S
N457 C459 1.356 . S
N457 H462 0.984 . S
N457 H463 0.985 . S
C458 C452 1.379 . S
C458 C455 1.363 . S
C458 N456 1.356 . S
C459 C453 1.363 . S
C459 C454 1.379 . S
C459 N457 1.356 . S
N460 C452 1.356 . S
N460 H466 0.984 . S
N460 H467 0.984 . S
N461 C454 1.356 . S
N461 H464 0.984 . S
N461 H465 0.985 . S
H462 N457 0.984 . S
H463 N457 0.985 . S
H464 N461 0.984 . S
H465 N461 0.985 . S
H466 N460 0.984 . S
H467 N460 0.984 . S
H468 N456 0.984 . S
H469 N456 0.985 . S
C470 C471 1.363 . S
C470 C476 1.379 . S
C470 N478 1.356 . S
C471 C470 1.363 . S
C471 C477 1.363 . S
C472 C473 1.363 . S
C472 C477 1.379 . S
C472 N479 1.356 . S
C473 C472 1.363 . S
C473 C476 1.363 . S
N474 C476 1.356 . S
N474 H486 0.984 . S
N474 H487 0.985 . S
N475 C477 1.356 . S
N475 H480 0.984 . S
N475 H481 0.985 . S
C476 C470 1.379 . S
C476 C473 1.363 . S
C476 N474 1.356 . S
C477 C471 1.363 . S
C477 C472 1.379 . S
C477 N475 1.356 . S
N478 C470 1.356 . S
N478 H484 0.984 . S
N478 H485 0.984 . S
N479 C472 1.356 . S
N479 H482 0.984 . S
N479 H483 0.985 . S
H480 N475 0.984 . S
H481 N475 0.985 . S
H482 N479 0.984 . S
H483 N479 0.985 . S
H484 N478 0.984 . S
H485 N478 0.984 . S
H486 N474 0.984 . S
H487 N474 0.985 . S
C488 C489 1.363 . S
C488 C494 1.379 . S
C488 N496 1.356 . S
C489 C488 1.363 . S
C489 C495 1.363 . S
C490 C491 1.363 . S
C490 C495 1.379 . S
C490 N497 1.356 . S
C491 C490 1.363 . S
C491 C494 1.363 . S
N492 C494 1.356 . S
N492 H504 0.984 . S
N492 H505 0.985 . S
N493 C495 1.356 . S
N493 H498 0.984 . S
N493 H499 0.985 . S
C494 C488 1.379 . S
C494 C491 1.363 . S
C494 N492 1.356 . S
C495 C489 1.363 . S
C495 C490 1.379 . S
C495 N493 1.356 . S
N496 C488 1.356 . S
N496 H502 0.984 . S
N496 H503 0.984 . S
N497 C490 1.356 . S
N497 H500 0.984 . S
N497 H501 0.985 . S
H498 N493 0.984 . S
H499 N493 0.985 . S
H500 N497 0.984 . S
H501 N497 0.985 . S
H502 N496 0.984 . S
H503 N496 0.984 . S
H504 N492 0.984 . S
H505 N492 0.985 . S
C506 C507 1.363 . S
C506 C512 1.379 . S
C506 N514 1.356 . S
C507 C506 1.363 . S
C507 C513 1.363 . S
C508 C509 1.363 . S
C508 C513 1.379 . S
C508 N515 1.356 . S
C509 C508 1.363 . S
C509 C512 1.363 . S
N510 C512 1.356 . S
N510 H522 0.984 . S
N510 H523 0.985 . S
N511 C513 1.356 . S
N511 H516 0.984 . S
N511 H517 0.985 . S
C512 C506 1.379 . S
C512 C509 1.363 . S
C512 N510 1.356 . S
C513 C507 1.363 . S
C513 C508 1.379 . S
C513 N511 1.356 . S
N514 C506 1.356 . S
N514 H520 0.984 . S
N514 H521 0.984 . S
N515 C508 1.356 . S
N515 H518 0.984 . S
N515 H519 0.985 . S
H516 N511 0.984 . S
H517 N511 0.985 . S
H518 N515 0.984 . S
H519 N515 0.985 . S
H520 N514 0.984 . S
H521 N514 0.984 . S
H522 N510 0.984 . S
H523 N510 0.985 . S
C524 C525 1.363 . S
C524 C530 1.379 . S
C524 N532 1.356 . S
C525 C524 1.363 . S
C525 C531 1.363 . S
C526 C527 1.363 . S
C526 C531 1.379 . S
C526 N533 1.356 . S
C527 C526 1.363 . S
C527 C530 1.363 . S
N528 C530 1.356 . S
N528 H540 0.984 . S
N528 H541 0.985 . S
N529 C531 1.356 . S
N529 H534 0.984 . S
N529 H535 0.985 . S
C530 C524 1.379 . S
C530 C527 1.363 . S
C530 N528 1.356 . S
C531 C525 1.363 . S
C531 C526 1.379 . S
C531 N529 1.356 . S
N532 C524 1.356 . S
N532 H538 0.984 . S
N532 H539 0.984 . S
N533 C526 1.356 . S
N533 H536 0.984 . S
N533 H537 0.985 . S
H534 N529 0.984 . S
H535 N529 0.985 . S
H536 N533 0.984 . S
H537 N533 0.985 . S
H538 N532 0.984 . S
H539 N532 0.984 . S
H540 N528 0.984 . S
H541 N528 0.985 . S
C542 C543 1.363 . S
C542 C548 1.379 . S
C542 N550 1.356 . S
C543 C542 1.363 . S
C543 C549 1.363 . S
C544 C545 1.363 . S
C544 C549 1.379 . S
C544 N551 1.356 . S
C545 C544 1.363 . S
C545 C548 1.363 . S
N546 C548 1.356 . S
N546 H558 0.984 . S
N546 H559 0.985 . S
N547 C549 1.356 . S
N547 H552 0.984 . S
N547 H553 0.985 . S
C548 C542 1.379 . S
C548 C545 1.363 . S
C548 N546 1.356 . S
C549 C543 1.363 . S
C549 C544 1.379 . S
C549 N547 1.356 . S
N550 C542 1.356 . S
N550 H556 0.984 . S
N550 H557 0.984 . S
N551 C544 1.356 . S
N551 H554 0.984 . S
N551 H555 0.985 . S
H552 N547 0.984 . S
H553 N547 0.985 . S
H554 N551 0.984 . S
H555 N551 0.985 . S
H556 N550 0.984 . S
H557 N550 0.984 . S
H558 N546 0.984 . S
H559 N546 0.985 . S
C560 C561 1.363 1_565 S
C560 C566 1.379 . S
C560 N568 1.356 . S
C561 C560 1.363 1_545 S
C561 C567 1.363 . S
C562 C563 1.363 . S
C562 C567 1.379 . S
C562 N569 1.356 . S
C563 C562 1.363 . S
C563 C566 1.363 1_545 S
N564 C566 1.356 . S
N564 H576 0.984 . S
N564 H577 0.985 . S
N565 C567 1.356 . S
N565 H570 0.984 . S
N565 H571 0.985 . S
C566 C560 1.379 . S
C566 C563 1.363 1_565 S
C566 N564 1.356 . S
C567 C561 1.363 . S
C567 C562 1.379 . S
C567 N565 1.356 . S
N568 C560 1.356 . S
N568 H574 0.984 . S
N568 H575 0.984 . S
N569 C562 1.356 . S
N569 H572 0.984 . S
N569 H573 0.985 . S
H570 N565 0.984 . S
H571 N565 0.985 . S
H572 N569 0.984 . S
H573 N569 0.985 . S
H574 N568 0.984 . S
H575 N568 0.984 . S
H576 N564 0.984 . S
H577 N564 0.985 . S
C578 C579 1.363 . S
C578 C584 1.379 1_545 S
C578 N586 1.356 . S
C579 C578 1.363 . S
C579 C585 1.363 1_455 S
C580 C581 1.363 1_655 S
C580 C585 1.379 1_565 S
C580 N587 1.356 1_554 S
C581 C580 1.363 1_455 S
C581 C584 1.363 . S
N582 C584 1.356 . S
N582 H594 0.984 . S
N582 H595 0.985 . S
N583 C585 1.356 1_556 S
N583 H588 0.984 . S
N583 H589 0.985 . S
C584 C578 1.379 1_565 S
C584 C581 1.363 . S
C584 N582 1.356 . S
C585 C579 1.363 1_655 S
C585 C580 1.379 1_545 S
C585 N583 1.356 1_554 S
N586 C578 1.356 . S
N586 H592 0.984 . S
N586 H593 0.984 . S
N587 C580 1.356 1_556 S
N587 H590 0.984 . S
N587 H591 0.985 . S
H588 N583 0.984 . S
H589 N583 0.985 . S
H590 N587 0.984 . S
H591 N587 0.985 . S
H592 N586 0.984 . S
H593 N586 0.984 . S
H594 N582 0.984 . S
H595 N582 0.985 . S
C596 C597 1.363 . S
C596 C602 1.379 1_455 S
C596 N604 1.356 . S
C597 C596 1.363 . S
C597 C603 1.363 . S
C598 C599 1.363 . S
C598 C603 1.379 1_655 S
C598 N605 1.356 . S
C599 C598 1.363 . S
C599 C602 1.363 . S
N600 C602 1.356 . S
N600 H612 0.984 . S
N600 H613 0.985 . S
N601 C603 1.356 . S
N601 H606 0.984 . S
N601 H607 0.985 . S
C602 C596 1.379 1_655 S
C602 C599 1.363 . S
C602 N600 1.356 . S
C603 C597 1.363 . S
C603 C598 1.379 1_455 S
C603 N601 1.356 . S
N604 C596 1.356 . S
N604 H610 0.984 . S
N604 H611 0.984 . S
N605 C598 1.356 . S
N605 H608 0.984 . S
N605 H609 0.985 . S
H606 N601 0.984 . S
H607 N601 0.985 . S
H608 N605 0.984 . S
H609 N605 0.985 . S
H610 N604 0.984 . S
H611 N604 0.984 . S
H612 N600 0.984 . S
H613 N600 0.985 . S
C614 C615 1.363 . S
C614 C620 1.379 . S
C614 N622 1.356 . S
C615 C614 1.363 . S
C615 C621 1.363 . S
C616 C617 1.363 . S
C616 C621 1.379 . S
C616 N623 1.356 . S
C617 C616 1.363 . S
C617 C620 1.363 . S
N618 C620 1.356 . S
N618 H630 0.984 . S
N618 H631 0.985 . S
N619 C621 1.356 . S
N619 H624 0.984 . S
N619 H625 0.985 . S
C620 C614 1.379 . S
C620 C617 1.363 . S
C620 N618 1.356 . S
C621 C615 1.363 . S
C621 C616 1.379 . S
C621 N619 1.356 . S
N622 C614 1.356 . S
N622 H628 0.984 . S
N622 H629 0.984 . S
N623 C616 1.356 . S
N623 H626 0.984 . S
N623 H627 0.985 . S
H624 N619 0.984 . S
H625 N619 0.985 . S
H626 N623 0.984 . S
H627 N623 0.985 . S
H628 N622 0.984 . S
H629 N622 0.984 . S
H630 N618 0.984 . S
H631 N618 0.985 . S
C273 C20 1.084 . S
C275 C175 1.095 . S
C291 C54 1.084 . S
C293 C209 1.095 . S
C309 C88 1.084 . S
C311 C243 1.095 . S
C327 C141 1.095 . S
C329 C122 1.084 . S
C345 C172 1.281 . S
C347 C145 1.236 . S
C363 C179 1.236 . S
C365 C206 1.281 . S
C381 C240 1.280 . S
C383 C213 1.236 . S
C399 C247 1.236 . S
C401 C138 1.281 . S
C417 C224 1.084 . S
C419 C107 1.095 . S
C435 C258 1.084 . S
C437 C5 1.095 . S
C453 C39 1.095 . S
C455 C156 1.084 . S
C471 C190 1.084 . S
C473 C73 1.095 . S
C489 C104 1.281 . S
C491 C77 1.236 . S
C507 C2 1.281 . S
C509 C111 1.236 . S
C525 C36 1.281 . S
C527 C9 1.236 . S
C543 C43 1.236 . S
C545 C70 1.281 . S
C561 C169 1.381 . S
C563 C33 1.381 1_545 S
C579 C203 1.381 1_455 S
C581 C67 1.381 . S
C597 C101 1.381 . S
C599 C237 1.381 . S
C615 C271 1.381 . S
C617 C135 1.381 . S
