# Generated by pormake.
# Topology vby, (6)-cn, num edge types: 1
# Building blocks:
#     Node 0, Type 0, BuildingBlock: MIDCAF_clean_sbu_0, # of connection points: 6
#     Node 1, Type 0, BuildingBlock: MIDCAF_clean_sbu_0, # of connection points: 6
#     Node 2, Type 0, BuildingBlock: MIDCAF_clean_sbu_0, # of connection points: 6
#     Node 3, Type 0, BuildingBlock: MIDCAF_clean_sbu_0, # of connection points: 6
#     Node 4, Type 0, BuildingBlock: MIDCAF_clean_sbu_0, # of connection points: 6
#     Node 5, Type 0, BuildingBlock: MIDCAF_clean_sbu_0, # of connection points: 6
#     Node 6, Type 0, BuildingBlock: MIDCAF_clean_sbu_0, # of connection points: 6
#     Node 7, Type 0, BuildingBlock: MIDCAF_clean_sbu_0, # of connection points: 6
#     Edge 8, Type (0, 0), BuildingBlock: OJICUG_clean_linker_0, # of connection points: 2
#     Edge 9, Type (0, 0), BuildingBlock: OJICUG_clean_linker_0, # of connection points: 2
#     Edge 10, Type (0, 0), BuildingBlock: OJICUG_clean_linker_0, # of connection points: 2
#     Edge 11, Type (0, 0), BuildingBlock: OJICUG_clean_linker_0, # of connection points: 2
#     Edge 12, Type (0, 0), BuildingBlock: OJICUG_clean_linker_0, # of connection points: 2
#     Edge 13, Type (0, 0), BuildingBlock: OJICUG_clean_linker_0, # of connection points: 2
#     Edge 14, Type (0, 0), BuildingBlock: OJICUG_clean_linker_0, # of connection points: 2
#     Edge 15, Type (0, 0), BuildingBlock: OJICUG_clean_linker_0, # of connection points: 2
#     Edge 16, Type (0, 0), BuildingBlock: OJICUG_clean_linker_0, # of connection points: 2
#     Edge 17, Type (0, 0), BuildingBlock: OJICUG_clean_linker_0, # of connection points: 2
#     Edge 18, Type (0, 0), BuildingBlock: OJICUG_clean_linker_0, # of connection points: 2
#     Edge 19, Type (0, 0), BuildingBlock: OJICUG_clean_linker_0, # of connection points: 2
#     Edge 20, Type (0, 0), BuildingBlock: OJICUG_clean_linker_0, # of connection points: 2
#     Edge 21, Type (0, 0), BuildingBlock: OJICUG_clean_linker_0, # of connection points: 2
#     Edge 22, Type (0, 0), BuildingBlock: OJICUG_clean_linker_0, # of connection points: 2
#     Edge 23, Type (0, 0), BuildingBlock: OJICUG_clean_linker_0, # of connection points: 2
#     Edge 24, Type (0, 0), BuildingBlock: OJICUG_clean_linker_0, # of connection points: 2
#     Edge 25, Type (0, 0), BuildingBlock: OJICUG_clean_linker_0, # of connection points: 2
#     Edge 26, Type (0, 0), BuildingBlock: OJICUG_clean_linker_0, # of connection points: 2
#     Edge 27, Type (0, 0), BuildingBlock: OJICUG_clean_linker_0, # of connection points: 2
#     Edge 28, Type (0, 0), BuildingBlock: OJICUG_clean_linker_0, # of connection points: 2
#     Edge 29, Type (0, 0), BuildingBlock: OJICUG_clean_linker_0, # of connection points: 2
#     Edge 30, Type (0, 0), BuildingBlock: OJICUG_clean_linker_0, # of connection points: 2
#     Edge 31, Type (0, 0), BuildingBlock: OJICUG_clean_linker_0, # of connection points: 2
# Relax obj value: 0.138
# Max RMSD: 0.180
# Mean RMSD: 0.180
data_MOF--net-vby--node1-MIDCAF_clean_sbu_0--edge1-OJICUG_clean_linker_0
_symmetry_space_group_name_H-M    P1
_symmetry_Int_Tables_number       1
_symmetry_cell_setting            triclinic
loop_
_symmetry_equiv_pos_as_xyz
'x, y, z'
_cell_length_a     11.163803
_cell_length_b     43.397471
_cell_length_c     22.652118
_cell_angle_alpha  89.993022
_cell_angle_beta   90.001213
_cell_angle_gamma 89.999868
loop_
_atom_site_label
_atom_site_type_symbol
_atom_site_fract_x
_atom_site_fract_y
_atom_site_fract_z
_atom_type_partial_charge
Zn0 Zn 0.95467 0.34824 0.05921 0.0
Zn1 Zn 0.1883 0.42408 0.96147 0.0
Zn2 Zn 0.07188 0.37989 0.99687 0.0
C3 C 0.11519 0.4515 0.05298 0.0
C4 C 0.01631 0.40961 0.87531 0.0
O5 O 0.17921 0.33766 0.00737 0.0
O6 O 0.08105 0.32057 0.08516 0.0
C7 C 0.95608 0.39391 0.12926 0.0
O8 O 0.06624 0.42451 0.04979 0.0
O9 O 0.1984 0.45826 0.01777 0.0
O10 O 0.08832 0.43038 0.8914 0.0
O11 O 0.98973 0.38743 0.91063 0.0
O12 O 0.88095 0.37248 0.12342 0.0
O13 O 0.03271 0.39901 0.08755 0.0
O14 O 0.90259 0.3683 0.94823 0.0
O15 O 0.8455 0.32921 0.00315 0.0
C16 C 0.82777 0.34628 0.95913 0.0
O17 O 0.25398 0.3607 0.97338 0.0
O18 O 0.33496 0.40371 0.94026 0.0
C19 C 0.16407 0.31733 0.04806 0.0
C20 C 0.3422 0.37512 0.94875 0.0
Zn21 Zn 0.79415 0.58534 0.96023 0.0
Zn22 Zn 0.0272 0.66063 0.05962 0.0
Zn23 Zn 0.90987 0.62942 0.99677 0.0
C24 C 0.1549 0.66293 0.9599 0.0
C25 C 0.02351 0.61505 0.12955 0.0
O26 O 0.72839 0.6488 0.97309 0.0
O27 O 0.64833 0.60602 0.93841 0.0
C28 C 0.96786 0.59979 0.87523 0.0
O29 O 0.07986 0.64102 0.94858 0.0
O30 O 0.13732 0.67979 0.00423 0.0
O31 O 0.09987 0.63619 0.12383 0.0
O32 O 0.94712 0.61018 0.08763 0.0
O33 O 0.89582 0.57892 0.89083 0.0
O34 O -0.00672 0.62195 0.91077 0.0
O35 O 0.91385 0.58476 0.04952 0.0
O36 O 0.78217 0.55115 0.01649 0.0
C37 C 0.8645 0.5578 0.05227 0.0
O38 O 0.80354 0.6718 0.00713 0.0
O39 O 0.90094 0.68837 0.08554 0.0
C40 C 0.64068 0.63453 0.94771 0.0
C41 C 0.81875 0.69196 0.04811 0.0
Zn42 Zn 0.188 0.58547 0.53734 0.0
Zn43 Zn 0.95435 0.66135 0.43966 0.0
Zn44 Zn 0.07157 0.62968 0.50204 0.0
C45 C 0.82739 0.66326 0.53977 0.0
C46 C 0.95599 0.61569 0.36957 0.0
O47 O 0.25367 0.64885 0.52556 0.0
O48 O 0.33468 0.60582 0.55857 0.0
C49 C 0.01612 0.59994 0.62356 0.0
O50 O 0.90231 0.64126 0.5507 0.0
O51 O 0.84497 0.68031 0.4957 0.0
O52 O 0.88092 0.63714 0.37534 0.0
O53 O 0.03246 0.61058 0.41134 0.0
O54 O 0.08806 0.57916 0.60742 0.0
O55 O 0.98951 0.62213 0.58828 0.0
O56 O 0.06582 0.58506 0.44911 0.0
O57 O 0.19805 0.5513 0.48102 0.0
C58 C 0.11474 0.55807 0.44587 0.0
O59 O 0.17895 0.6719 0.49158 0.0
O60 O 0.08067 0.68909 0.41389 0.0
C61 C 0.3419 0.63442 0.55015 0.0
C62 C 0.16377 0.69228 0.45096 0.0
Zn63 Zn 0.02637 0.34897 0.43929 0.0
Zn64 Zn 0.79339 0.42427 0.53868 0.0
Zn65 Zn 0.9091 0.38019 0.50209 0.0
C66 C 0.86381 0.4518 0.44661 0.0
C67 C 0.9671 0.40979 0.62368 0.0
O68 O 0.80283 0.3378 0.49175 0.0
O69 O 0.90005 0.32128 0.41325 0.0
C70 C 0.02291 0.39455 0.36936 0.0
O71 O 0.91308 0.42484 0.44933 0.0
O72 O 0.78158 0.45847 0.48245 0.0
O73 O 0.89494 0.43064 0.60813 0.0
O74 O 0.99258 0.38765 0.5881 0.0
O75 O 0.09926 0.37341 0.37514 0.0
O76 O 0.94641 0.39943 0.41123 0.0
O77 O 0.0791 0.36859 0.55026 0.0
O78 O 0.13635 0.32976 0.4947 0.0
C79 C 0.15406 0.34665 0.53898 0.0
O80 O 0.72762 0.36081 0.52576 0.0
O81 O 0.64749 0.40359 0.56039 0.0
C82 C 0.81798 0.31765 0.45073 0.0
C83 C 0.63988 0.37507 0.55109 0.0
Zn84 Zn 0.45972 0.849 0.05989 0.0
Zn85 Zn 0.69258 0.92429 0.96032 0.0
Zn86 Zn 0.57698 0.88021 0.997 0.0
C87 C 0.62238 0.95183 0.05241 0.0
C88 C 0.51877 0.90981 0.87541 0.0
O89 O 0.68328 0.83782 0.00732 0.0
O90 O 0.58597 0.82123 0.08574 0.0
C91 C 0.46357 0.89457 0.12982 0.0
O92 O 0.57308 0.92486 0.04973 0.0
O93 O 0.70456 0.95849 0.01654 0.0
O94 O 0.59087 0.93068 0.89093 0.0
O95 O 0.49342 0.88767 0.91101 0.0
O96 O 0.38721 0.87343 0.12414 0.0
O97 O 0.5399 0.89945 0.08788 0.0
O98 O 0.40694 0.86861 0.94886 0.0
O99 O 0.34944 0.82986 0.00456 0.0
C100 C 0.33188 0.84671 0.96021 0.0
O101 O 0.75843 0.86083 0.9733 0.0
O102 O 0.83842 0.90361 0.93853 0.0
C103 C 0.66808 0.81764 0.04828 0.0
C104 C 0.8461 0.87509 0.94789 0.0
Zn105 Zn 0.29815 0.08552 0.96174 0.0
Zn106 Zn 0.53189 0.1614 0.0593 0.0
Zn107 Zn 0.41468 0.12972 0.99698 0.0
C108 C 0.65874 0.16333 0.95918 0.0
C109 C 0.53057 0.11573 0.12937 0.0
O110 O 0.23254 0.1489 0.97349 0.0
O111 O 0.15143 0.10587 0.94057 0.0
C112 C 0.46996 0.1 0.87544 0.0
O113 O 0.58391 0.14131 0.94829 0.0
O114 O 0.64104 0.18041 0.00319 0.0
O115 O 0.60561 0.13717 0.12355 0.0
O116 O 0.45397 0.11062 0.08766 0.0
O117 O 0.39796 0.07923 0.89161 0.0
O118 O 0.49668 0.12218 0.91072 0.0
O119 O 0.42048 0.08511 0.04992 0.0
O120 O 0.28821 0.05134 0.01806 0.0
C121 C 0.37156 0.05811 0.05318 0.0
O122 O 0.30731 0.17195 0.00747 0.0
O123 O 0.40551 0.18908 0.0852 0.0
C124 C 0.14425 0.13447 0.94895 0.0
C125 C 0.32245 0.1923 0.04812 0.0
Zn126 Zn 0.69261 0.0853 0.53891 0.0
Zn127 Zn 0.45969 0.16055 0.4393 0.0
Zn128 Zn 0.57697 0.12937 0.5022 0.0
C129 C 0.33191 0.16289 0.53897 0.0
C130 C 0.46341 0.11497 0.36943 0.0
O131 O 0.7584 0.14877 0.52586 0.0
O132 O 0.83842 0.10601 0.56069 0.0
C133 C 0.51877 0.09979 0.62381 0.0
O134 O 0.40692 0.14097 0.55032 0.0
O135 O 0.34956 0.17975 0.49464 0.0
O136 O 0.38699 0.1361 0.37514 0.0
O137 O 0.53983 0.11011 0.41134 0.0
O138 O 0.5909 0.07892 0.6083 0.0
O139 O 0.4934 0.12192 0.58819 0.0
O140 O 0.57312 0.08471 0.44949 0.0
O141 O 0.70463 0.0511 0.48272 0.0
C142 C 0.62245 0.05775 0.44683 0.0
O143 O 0.68319 0.17177 0.49182 0.0
O144 O 0.58596 0.18827 0.41331 0.0
C145 C 0.84609 0.13452 0.55129 0.0
C146 C 0.66802 0.19191 0.45079 0.0
Zn147 Zn 0.53213 0.84815 0.43995 0.0
Zn148 Zn 0.29837 0.92403 0.53746 0.0
Zn149 Zn 0.41489 0.87983 0.50225 0.0
C150 C 0.37175 0.95144 0.44603 0.0
C151 C 0.47018 0.90957 0.62376 0.0
O152 O 0.30748 0.83761 0.49175 0.0
O153 O 0.40576 0.82047 0.41404 0.0
C154 C 0.53082 0.89383 0.36987 0.0
O155 O 0.4207 0.92445 0.4493 0.0
O156 O 0.28835 0.9582 0.48113 0.0
O157 O 0.39823 0.93034 0.60757 0.0
O158 O 0.49687 0.88738 0.58851 0.0
O159 O 0.60586 0.87238 0.3757 0.0
O160 O 0.45421 0.89893 0.41158 0.0
O161 O 0.58412 0.86824 0.55095 0.0
O162 O 0.64127 0.82914 0.49606 0.0
C163 C 0.65896 0.84622 0.54007 0.0
O164 O 0.23275 0.86065 0.52574 0.0
O165 O 0.15167 0.90368 0.55868 0.0
C166 C 0.32265 0.81726 0.45109 0.0
C167 C 0.14448 0.87508 0.55029 0.0
C168 C 0.49681 0.33326 0.95995 0.0
C169 C 0.45879 0.36072 0.93377 0.0
H170 H 0.64672 0.30575 0.98489 0.0
C171 C 0.54179 0.3778 0.89972 0.0
H172 H 0.43512 0.31925 0.98523 0.0
C173 C 0.66371 0.37068 0.90063 0.0
C174 C 0.70444 0.34597 0.93471 0.0
H175 H 0.51448 0.39856 0.8768 0.0
H176 H 0.72638 0.38639 0.87991 0.0
C177 C 0.61871 0.32566 0.95955 0.0
C178 C 0.36376 0.68367 0.96026 0.0
C179 C 0.27802 0.66342 0.93524 0.0
H180 H 0.54756 0.69014 0.98547 0.0
C181 C 0.31867 0.63896 0.9005 0.0
H182 H 0.33576 0.70341 0.98608 0.0
C183 C 0.44071 0.63198 0.89901 0.0
C184 C 0.52389 0.64895 0.93317 0.0
H185 H 0.25596 0.62332 0.87965 0.0
H186 H 0.46802 0.61139 0.87557 0.0
C187 C 0.48578 0.67621 0.96007 0.0
C188 C 0.61838 0.6839 0.53946 0.0
C189 C 0.70412 0.66356 0.56426 0.0
H190 H 0.4348 0.69033 0.51381 0.0
C191 C 0.6634 0.63883 0.59829 0.0
H192 H 0.64641 0.70383 0.51419 0.0
C193 C 0.54147 0.63171 0.59919 0.0
C194 C 0.45847 0.64882 0.56517 0.0
H195 H 0.72608 0.62312 0.61895 0.0
H196 H 0.51418 0.61094 0.62206 0.0
C197 C 0.49648 0.6763 0.53907 0.0
C198 C 0.48497 0.3334 0.5387 0.0
C199 C 0.52308 0.36066 0.56561 0.0
H200 H 0.33499 0.3062 0.51268 0.0
C201 C 0.43991 0.37761 0.5998 0.0
H202 H 0.54677 0.31948 0.51329 0.0
C203 C 0.31788 0.37062 0.59834 0.0
C204 C 0.27723 0.34617 0.56358 0.0
H205 H 0.46723 0.3982 0.62326 0.0
H206 H 0.25518 0.38625 0.61921 0.0
C207 C 0.36296 0.32592 0.53853 0.0
C208 C 0.001 0.83343 0.96033 0.0
C209 C 0.96292 0.86069 0.9334 0.0
H210 H 0.15096 0.80623 0.98642 0.0
C211 C 0.04613 0.87764 0.89923 0.0
H212 H 0.93918 0.8195 0.98573 0.0
C213 C 0.16816 0.87067 0.90076 0.0
C214 C 0.20877 0.84621 0.93554 0.0
H215 H 0.01882 0.89823 0.87577 0.0
H216 H 0.23088 0.8863 0.8799 0.0
C217 C 0.12302 0.82596 0.96055 0.0
C218 C 0.98968 0.17636 0.96001 0.0
C219 C 0.0277 0.14887 0.93391 0.0
H220 H 0.83977 0.20389 0.98485 0.0
C221 C 0.94471 0.13178 0.89988 0.0
H222 H 0.05136 0.19037 0.98528 0.0
C223 C 0.8228 0.13891 0.90074 0.0
C224 C 0.78206 0.16364 0.93475 0.0
H225 H 0.97203 0.11101 0.87701 0.0
H226 H 0.76014 0.1232 0.88005 0.0
C227 C 0.86778 0.18396 0.95957 0.0
C228 C 0.16814 0.13896 0.59843 0.0
C229 C 0.20877 0.1634 0.56361 0.0
H230 H 0.0188 0.11141 0.62347 0.0
C231 C 0.12303 0.18363 0.53854 0.0
H232 H 0.23086 0.12334 0.61932 0.0
C233 C 0.00101 0.17618 0.53878 0.0
C234 C 0.96291 0.14893 0.56576 0.0
H235 H 0.15101 0.20335 0.51265 0.0
H236 H 0.9392 0.19009 0.51334 0.0
C237 C 0.0461 0.13199 0.59997 0.0
C238 C 0.82302 0.87066 0.5985 0.0
C239 C 0.78228 0.84592 0.5645 0.0
H240 H 0.97223 0.89856 0.62221 0.0
C241 C 0.86801 0.82559 0.53969 0.0
H242 H 0.76035 0.88637 0.61918 0.0
C243 C 0.98991 0.8332 0.53926 0.0
C244 C 0.02792 0.86069 0.56534 0.0
H245 H 0.83997 0.80566 0.51444 0.0
H246 H 0.05158 0.81917 0.51399 0.0
C247 C 0.94494 0.87778 0.59937 0.0
C248 C 0.86422 0.50386 0.08985 0.0
C249 C 0.92392 0.53224 0.0842 0.0
H250 H 0.88038 0.45488 0.08629 0.0
C251 C 0.04904 0.53287 0.09103 0.0
H252 H 0.76759 0.50268 0.08592 0.0
C253 C 0.11412 0.50534 0.091 0.0
C254 C 0.05464 0.47697 0.08462 0.0
H255 H 0.09809 0.55432 0.08757 0.0
H256 H 0.21087 0.50653 0.08793 0.0
C257 C 0.9293 0.47632 0.09033 0.0
C258 C 0.04834 0.47671 0.40782 0.0
C259 C 0.92322 0.47736 0.41467 0.0
H260 H 0.21024 0.50301 0.41088 0.0
C261 C 0.8636 0.50576 0.40904 0.0
H262 H 0.09732 0.45525 0.41127 0.0
C263 C 0.92876 0.53328 0.40857 0.0
C264 C 0.05411 0.53261 0.41424 0.0
H265 H 0.76698 0.50695 0.413 0.0
H266 H 0.87992 0.55473 0.41261 0.0
C267 C 0.1135 0.50422 0.40784 0.0
C268 C 0.62272 0.00578 0.08993 0.0
C269 C 0.56303 0.97739 0.08436 0.0
H270 H 0.60648 0.05475 0.08633 0.0
C271 C 0.43793 0.97675 0.09128 0.0
H272 H 0.71933 0.00696 0.08593 0.0
C273 C 0.37282 1.00427 0.09126 0.0
C274 C 0.43224 0.03265 0.08481 0.0
H275 H 0.3889 0.9553 0.08788 0.0
H276 H 0.27606 1.00308 0.08826 0.0
C277 C 0.5576 0.03331 0.09042 0.0
C278 C 0.62287 1.00379 0.40933 0.0
C279 C 0.56315 0.03218 0.41489 0.0
H280 H 0.60669 0.95481 0.41293 0.0
C281 C 0.43805 0.03281 0.40795 0.0
H282 H 0.71948 1.00262 0.41336 0.0
C283 C 0.37297 0.00528 0.40796 0.0
C284 C 0.43242 0.97691 0.41442 0.0
H285 H 0.38899 0.05425 0.41134 0.0
H286 H 0.27621 0.00646 0.41093 0.0
C287 C 0.55779 0.97625 0.40883 0.0
C288 C 0.23183 0.27071 0.99264 0.0
C289 C 0.22018 0.28673 0.04627 0.0
H290 H 0.26742 0.22711 0.95097 0.0
C291 C 0.23199 0.27055 0.09957 0.0
H292 H 0.21914 0.28251 0.95096 0.0
C293 C 0.25444 0.23907 0.09958 0.0
C294 C 0.26628 0.22288 0.04629 0.0
H295 H 0.22056 0.28218 0.14154 0.0
H296 H 0.26586 0.22744 0.14156 0.0
C297 C 0.25467 0.23891 0.99265 0.0
C298 C 0.73302 0.77078 0.99272 0.0
C299 C 0.72239 0.78682 0.04639 0.0
H300 H 0.76585 0.72705 0.95097 0.0
C301 C 0.73319 0.77055 0.09965 0.0
H302 H 0.72108 0.78265 0.95106 0.0
C303 C 0.75348 0.73898 0.0996 0.0
C304 C 0.76436 0.72277 0.04628 0.0
H305 H 0.72255 0.78221 0.14165 0.0
H306 H 0.76407 0.72728 0.14156 0.0
C307 C 0.75381 0.73887 0.99267 0.0
C308 C 0.23172 0.73885 0.50646 0.0
C309 C 0.22001 0.72285 0.4528 0.0
H310 H 0.26747 0.78243 0.54819 0.0
C311 C 0.23189 0.73906 0.39953 0.0
H312 H 0.21897 0.72704 0.54812 0.0
C313 C 0.25447 0.77053 0.39956 0.0
C314 C 0.26637 0.78669 0.45288 0.0
H315 H 0.22041 0.72744 0.35754 0.0
H316 H 0.26594 0.78218 0.3576 0.0
C317 C 0.25469 0.77065 0.5065 0.0
C318 C 0.75331 0.27074 0.50625 0.0
C319 C 0.76379 0.28682 0.4526 0.0
H320 H 0.72079 0.22698 0.54796 0.0
C321 C 0.75301 0.27057 0.39932 0.0
H322 H 0.76524 0.2826 0.54792 0.0
C323 C 0.73291 0.23899 0.39934 0.0
C324 C 0.72219 0.22275 0.45264 0.0
H325 H 0.76354 0.28224 0.35733 0.0
H326 H 0.72235 0.22731 0.35736 0.0
C327 C 0.7327 0.23883 0.50627 0.0
C328 C 0.87238 0.41005 0.22636 0.0
C329 C 0.97088 0.40807 0.18797 0.0
H330 H 0.81283 0.40893 0.31611 0.0
C331 C 0.08694 0.41135 0.21105 0.0
H332 H 0.78197 0.40784 0.20949 0.0
C333 C 0.1048 0.41104 0.27213 0.0
C334 C 0.00656 0.40847 0.31055 0.0
H335 H 0.16447 0.41002 0.18238 0.0
H336 H 0.19542 0.40958 0.28903 0.0
C337 C 0.89019 0.41076 0.28743 0.0
C338 C 0.10511 0.59854 0.22682 0.0
C339 C 0.007 0.60112 0.18833 0.0
H340 H 0.16453 0.59957 0.3166 0.0
C341 C 0.89055 0.59883 0.21136 0.0
H342 H 0.19578 0.6 0.20999 0.0
C343 C 0.87256 0.59954 0.27242 0.0
C344 C 0.97095 0.60153 0.31088 0.0
H345 H 0.8133 0.60066 0.18261 0.0
H346 H 0.78209 0.60176 0.28921 0.0
C347 C 0.08707 0.59823 0.28789 0.0
C348 C -0.00673 0.62886 0.78048 0.0
C349 C -0.00335 0.60087 0.8118 0.0
H350 H 0.9903 0.65062 0.69509 0.0
C351 C -0.00354 0.57307 0.78014 0.0
H352 H 0.98948 0.65061 0.80386 0.0
C353 C 0.99192 0.57306 0.71884 0.0
C354 C 0.98852 0.60086 0.68716 0.0
H355 H -0.00358 0.55113 0.80303 0.0
H356 H -0.00588 0.55112 0.69599 0.0
C357 C 0.98907 0.62885 0.71847 0.0
C358 C 0.99291 0.38071 0.7184 0.0
C359 C -0.00392 0.4087 0.68709 0.0
H360 H 0.99037 0.35893 0.80377 0.0
C361 C -0.00408 0.43649 0.71876 0.0
H362 H 0.98911 0.35896 0.69501 0.0
C363 C 0.99165 0.4365 0.78007 0.0
C364 C 0.98848 0.40869 0.81174 0.0
H365 H -0.00428 0.45844 0.69588 0.0
H366 H -0.00611 0.45843 0.80293 0.0
C367 C 0.98897 0.38071 0.78041 0.0
C368 C 0.38203 0.91112 0.22707 0.0
C369 C 0.48016 0.90848 0.18861 0.0
H370 H 0.32249 0.9101 0.31683 0.0
C371 C 0.59661 0.91068 0.21167 0.0
H372 H 0.29137 0.90972 0.2102 0.0
C373 C 0.61452 0.90994 0.27274 0.0
C374 C 0.51606 0.90801 0.31117 0.0
H375 H 0.67387 0.90881 0.18294 0.0
H376 H 0.70495 0.90765 0.28955 0.0
C377 C 0.40001 0.91139 0.28814 0.0
C378 C 0.39977 0.09817 0.21109 0.0
C379 C 0.51584 0.10154 0.18807 0.0
H380 H 0.29113 0.09984 0.28902 0.0
C381 C 0.61429 0.0996 0.2265 0.0
H382 H 0.32229 0.09947 0.18239 0.0
C383 C 0.59638 0.09885 0.28756 0.0
C384 C 0.47994 0.10105 0.31063 0.0
H385 H 0.70471 0.10188 0.20968 0.0
H386 H 0.67366 0.10072 0.31629 0.0
C387 C 0.3818 0.09843 0.27217 0.0
C388 C 0.49731 0.12888 0.78052 0.0
C389 C 0.49759 0.10089 0.81185 0.0
H390 H 0.49726 0.15063 0.69511 0.0
C391 C 0.49408 0.07309 0.78019 0.0
H392 H 0.49619 0.15066 0.80387 0.0
C393 C 0.4897 0.0731 0.71888 0.0
C394 C 0.48976 0.1009 0.68721 0.0
H395 H 0.49169 0.05116 0.80305 0.0
H396 H 0.48966 0.05116 0.69601 0.0
C397 C 0.49325 0.12889 0.7185 0.0
C398 C 0.49743 0.8807 0.71871 0.0
C399 C 0.49777 0.90868 0.68736 0.0
H400 H 0.49728 0.85896 0.80412 0.0
C401 C 0.49426 0.93649 0.71901 0.0
H402 H 0.4963 0.85892 0.69536 0.0
C403 C 0.48982 0.93649 0.78031 0.0
C404 C 0.48983 0.90869 0.812 0.0
H405 H 0.49192 0.95842 0.69613 0.0
H406 H 0.48979 0.95843 0.80318 0.0
C407 C 0.49332 0.8807 0.78072 0.0
loop_
_geom_bond_atom_site_label_1
_geom_bond_atom_site_label_2
_geom_bond_distance
_geom_bond_site_symmetry_2
_ccdc_geom_bond_type
Zn0 O6 1.920 1_655 S
Zn0 O12 1.898 . S
Zn0 O15 1.905 . S
Zn1 O9 1.905 . S
Zn1 O10 1.898 . S
Zn1 O18 1.920 . S
Zn2 O5 2.080 1_554 S
Zn2 O8 2.114 1_554 S
Zn2 O11 2.120 1_554 S
Zn2 O13 2.120 . S
Zn2 O14 2.114 1_455 S
Zn2 O17 2.080 . S
C3 O8 1.166 . S
C3 O9 1.182 . S
C4 O10 1.167 . S
C4 O11 1.299 . S
O5 Zn2 2.080 1_556 S
O5 C19 1.305 1_556 S
O6 Zn0 1.920 1_455 S
O6 C19 1.234 . S
C7 O12 1.167 1_455 S
C7 O13 1.299 . S
O8 Zn2 2.114 1_556 S
O8 C3 1.166 . S
O9 Zn1 1.905 . S
O9 C3 1.182 . S
O10 Zn1 1.898 . S
O10 C4 1.167 . S
O11 Zn2 2.120 1_556 S
O11 C4 1.299 . S
O12 Zn0 1.898 . S
O12 C7 1.167 1_655 S
O13 Zn2 2.120 . S
O13 C7 1.299 . S
O14 Zn2 2.114 1_655 S
O14 C16 1.166 . S
O15 Zn0 1.905 . S
O15 C16 1.182 . S
C16 O14 1.166 . S
C16 O15 1.182 . S
O17 Zn2 2.080 . S
O17 C20 1.305 1_554 S
O18 Zn1 1.920 . S
O18 C20 1.234 . S
C19 O5 1.305 1_554 S
C19 O6 1.234 . S
C20 O17 1.305 1_556 S
C20 O18 1.234 . S
Zn21 O27 1.920 . S
Zn21 O33 1.898 . S
Zn21 O36 1.905 . S
Zn22 O30 1.905 . S
Zn22 O31 1.898 . S
Zn22 O39 1.920 1_455 S
Zn23 O26 2.080 . S
Zn23 O29 2.114 1_655 S
Zn23 O32 2.120 . S
Zn23 O34 2.120 1_554 S
Zn23 O35 2.114 1_554 S
Zn23 O38 2.080 1_554 S
C24 O29 1.166 . S
C24 O30 1.182 . S
C25 O31 1.167 1_655 S
C25 O32 1.299 . S
O26 Zn23 2.080 . S
O26 C40 1.305 1_554 S
O27 Zn21 1.920 . S
O27 C40 1.234 . S
C28 O33 1.167 . S
C28 O34 1.299 . S
O29 Zn23 2.114 1_455 S
O29 C24 1.166 . S
O30 Zn22 1.905 . S
O30 C24 1.182 . S
O31 Zn22 1.898 . S
O31 C25 1.167 1_455 S
O32 Zn23 2.120 . S
O32 C25 1.299 . S
O33 Zn21 1.898 . S
O33 C28 1.167 . S
O34 Zn23 2.120 1_556 S
O34 C28 1.299 . S
O35 Zn23 2.114 1_556 S
O35 C37 1.166 . S
O36 Zn21 1.905 . S
O36 C37 1.182 . S
C37 O35 1.166 . S
C37 O36 1.182 . S
O38 Zn23 2.080 1_556 S
O38 C41 1.305 1_556 S
O39 Zn22 1.920 1_655 S
O39 C41 1.234 . S
C40 O26 1.305 1_556 S
C40 O27 1.234 . S
C41 O38 1.305 1_554 S
C41 O39 1.234 . S
Zn42 O48 1.920 . S
Zn42 O54 1.898 . S
Zn42 O57 1.905 . S
Zn43 O51 1.905 . S
Zn43 O52 1.898 . S
Zn43 O60 1.920 1_655 S
Zn44 O47 2.080 . S
Zn44 O50 2.114 1_455 S
Zn44 O53 2.120 . S
Zn44 O55 2.120 . S
Zn44 O56 2.114 . S
Zn44 O59 2.080 . S
C45 O50 1.166 . S
C45 O51 1.182 . S
C46 O52 1.167 1_455 S
C46 O53 1.299 . S
O47 Zn44 2.080 . S
O47 C61 1.305 . S
O48 Zn42 1.920 . S
O48 C61 1.234 . S
C49 O54 1.167 . S
C49 O55 1.299 . S
O50 Zn44 2.114 1_655 S
O50 C45 1.166 . S
O51 Zn43 1.905 . S
O51 C45 1.182 . S
O52 Zn43 1.898 . S
O52 C46 1.167 1_655 S
O53 Zn44 2.120 . S
O53 C46 1.299 . S
O54 Zn42 1.898 . S
O54 C49 1.167 . S
O55 Zn44 2.120 . S
O55 C49 1.299 . S
O56 Zn44 2.114 . S
O56 C58 1.166 . S
O57 Zn42 1.905 . S
O57 C58 1.182 . S
C58 O56 1.166 . S
C58 O57 1.182 . S
O59 Zn44 2.080 . S
O59 C62 1.305 . S
O60 Zn43 1.920 1_455 S
O60 C62 1.234 . S
C61 O47 1.305 . S
C61 O48 1.234 . S
C62 O59 1.305 . S
C62 O60 1.234 . S
Zn63 O69 1.920 1_455 S
Zn63 O75 1.898 . S
Zn63 O78 1.905 . S
Zn64 O72 1.905 . S
Zn64 O73 1.898 . S
Zn64 O81 1.920 . S
Zn65 O68 2.080 . S
Zn65 O71 2.114 . S
Zn65 O74 2.120 . S
Zn65 O76 2.120 . S
Zn65 O77 2.114 1_655 S
Zn65 O80 2.080 . S
C66 O71 1.166 . S
C66 O72 1.182 . S
C67 O73 1.167 . S
C67 O74 1.299 . S
O68 Zn65 2.080 . S
O68 C82 1.305 . S
O69 Zn63 1.920 1_655 S
O69 C82 1.234 . S
C70 O75 1.167 1_655 S
C70 O76 1.299 . S
O71 Zn65 2.114 . S
O71 C66 1.166 . S
O72 Zn64 1.905 . S
O72 C66 1.182 . S
O73 Zn64 1.898 . S
O73 C67 1.167 . S
O74 Zn65 2.120 . S
O74 C67 1.299 . S
O75 Zn63 1.898 . S
O75 C70 1.167 1_455 S
O76 Zn65 2.120 . S
O76 C70 1.299 . S
O77 Zn65 2.114 1_455 S
O77 C79 1.166 . S
O78 Zn63 1.905 . S
O78 C79 1.182 . S
C79 O77 1.166 . S
C79 O78 1.182 . S
O80 Zn65 2.080 . S
O80 C83 1.305 . S
O81 Zn64 1.920 . S
O81 C83 1.234 . S
C82 O68 1.305 . S
C82 O69 1.234 . S
C83 O80 1.305 . S
C83 O81 1.234 . S
Zn84 O90 1.920 . S
Zn84 O96 1.898 . S
Zn84 O99 1.905 . S
Zn85 O93 1.905 . S
Zn85 O94 1.898 . S
Zn85 O102 1.920 . S
Zn86 O89 2.080 1_554 S
Zn86 O92 2.114 1_554 S
Zn86 O95 2.120 1_554 S
Zn86 O97 2.120 . S
Zn86 O98 2.114 . S
Zn86 O101 2.080 . S
C87 O92 1.166 . S
C87 O93 1.182 . S
C88 O94 1.167 . S
C88 O95 1.299 . S
O89 Zn86 2.080 1_556 S
O89 C103 1.305 1_556 S
O90 Zn84 1.920 . S
O90 C103 1.234 . S
C91 O96 1.167 . S
C91 O97 1.299 . S
O92 Zn86 2.114 1_556 S
O92 C87 1.166 . S
O93 Zn85 1.905 . S
O93 C87 1.182 . S
O94 Zn85 1.898 . S
O94 C88 1.167 . S
O95 Zn86 2.120 1_556 S
O95 C88 1.299 . S
O96 Zn84 1.898 . S
O96 C91 1.167 . S
O97 Zn86 2.120 . S
O97 C91 1.299 . S
O98 Zn86 2.114 . S
O98 C100 1.166 . S
O99 Zn84 1.905 . S
O99 C100 1.182 . S
C100 O98 1.166 . S
C100 O99 1.182 . S
O101 Zn86 2.080 . S
O101 C104 1.305 1_554 S
O102 Zn85 1.920 . S
O102 C104 1.234 . S
C103 O89 1.305 1_554 S
C103 O90 1.234 . S
C104 O101 1.305 1_556 S
C104 O102 1.234 . S
Zn105 O111 1.920 . S
Zn105 O117 1.898 . S
Zn105 O120 1.905 . S
Zn106 O114 1.905 . S
Zn106 O115 1.898 . S
Zn106 O123 1.920 . S
Zn107 O110 2.080 . S
Zn107 O113 2.114 . S
Zn107 O116 2.120 . S
Zn107 O118 2.120 1_554 S
Zn107 O119 2.114 1_554 S
Zn107 O122 2.080 1_554 S
C108 O113 1.166 . S
C108 O114 1.182 . S
C109 O115 1.167 . S
C109 O116 1.299 . S
O110 Zn107 2.080 . S
O110 C124 1.305 1_554 S
O111 Zn105 1.920 . S
O111 C124 1.234 . S
C112 O117 1.167 . S
C112 O118 1.299 . S
O113 Zn107 2.114 . S
O113 C108 1.166 . S
O114 Zn106 1.905 . S
O114 C108 1.182 . S
O115 Zn106 1.898 . S
O115 C109 1.167 . S
O116 Zn107 2.120 . S
O116 C109 1.299 . S
O117 Zn105 1.898 . S
O117 C112 1.167 . S
O118 Zn107 2.120 1_556 S
O118 C112 1.299 . S
O119 Zn107 2.114 1_556 S
O119 C121 1.166 . S
O120 Zn105 1.905 . S
O120 C121 1.182 . S
C121 O119 1.166 . S
C121 O120 1.182 . S
O122 Zn107 2.080 1_556 S
O122 C125 1.305 1_556 S
O123 Zn106 1.920 . S
O123 C125 1.234 . S
C124 O110 1.305 1_556 S
C124 O111 1.234 . S
C125 O122 1.305 1_554 S
C125 O123 1.234 . S
Zn126 O132 1.920 . S
Zn126 O138 1.898 . S
Zn126 O141 1.905 . S
Zn127 O135 1.905 . S
Zn127 O136 1.898 . S
Zn127 O144 1.920 . S
Zn128 O131 2.080 . S
Zn128 O134 2.114 . S
Zn128 O137 2.120 . S
Zn128 O139 2.120 . S
Zn128 O140 2.114 . S
Zn128 O143 2.080 . S
C129 O134 1.166 . S
C129 O135 1.182 . S
C130 O136 1.167 . S
C130 O137 1.299 . S
O131 Zn128 2.080 . S
O131 C145 1.305 . S
O132 Zn126 1.920 . S
O132 C145 1.234 . S
C133 O138 1.167 . S
C133 O139 1.299 . S
O134 Zn128 2.114 . S
O134 C129 1.166 . S
O135 Zn127 1.905 . S
O135 C129 1.182 . S
O136 Zn127 1.898 . S
O136 C130 1.167 . S
O137 Zn128 2.120 . S
O137 C130 1.299 . S
O138 Zn126 1.898 . S
O138 C133 1.167 . S
O139 Zn128 2.120 . S
O139 C133 1.299 . S
O140 Zn128 2.114 . S
O140 C142 1.166 . S
O141 Zn126 1.905 . S
O141 C142 1.182 . S
C142 O140 1.166 . S
C142 O141 1.182 . S
O143 Zn128 2.080 . S
O143 C146 1.305 . S
O144 Zn127 1.920 . S
O144 C146 1.234 . S
C145 O131 1.305 . S
C145 O132 1.234 . S
C146 O143 1.305 . S
C146 O144 1.234 . S
Zn147 O153 1.920 . S
Zn147 O159 1.898 . S
Zn147 O162 1.905 . S
Zn148 O156 1.905 . S
Zn148 O157 1.898 . S
Zn148 O165 1.920 . S
Zn149 O152 2.080 . S
Zn149 O155 2.114 . S
Zn149 O158 2.120 . S
Zn149 O160 2.120 . S
Zn149 O161 2.114 . S
Zn149 O164 2.080 . S
C150 O155 1.166 . S
C150 O156 1.182 . S
C151 O157 1.167 . S
C151 O158 1.299 . S
O152 Zn149 2.080 . S
O152 C166 1.305 . S
O153 Zn147 1.920 . S
O153 C166 1.234 . S
C154 O159 1.167 . S
C154 O160 1.299 . S
O155 Zn149 2.114 . S
O155 C150 1.166 . S
O156 Zn148 1.905 . S
O156 C150 1.182 . S
O157 Zn148 1.898 . S
O157 C151 1.167 . S
O158 Zn149 2.120 . S
O158 C151 1.299 . S
O159 Zn147 1.898 . S
O159 C154 1.167 . S
O160 Zn149 2.120 . S
O160 C154 1.299 . S
O161 Zn149 2.114 . S
O161 C163 1.166 . S
O162 Zn147 1.905 . S
O162 C163 1.182 . S
C163 O161 1.166 . S
C163 O162 1.182 . S
O164 Zn149 2.080 . S
O164 C167 1.305 . S
O165 Zn148 1.920 . S
O165 C167 1.234 . S
C166 O152 1.305 . S
C166 O153 1.234 . S
C167 O164 1.305 . S
C167 O165 1.234 . S
C168 C169 1.387 1_554 S
C168 H172 0.950 . S
C168 C177 1.390 . S
C169 C168 1.387 1_556 S
C169 C171 1.387 . S
H170 C177 0.950 . S
C171 C169 1.387 . S
C171 C173 1.390 . S
C171 H175 0.950 . S
H172 C168 0.950 . S
C173 C171 1.390 . S
C173 C174 1.387 . S
C173 H176 0.950 . S
C174 C173 1.387 . S
C174 C177 1.387 1_556 S
H175 C171 0.950 . S
H176 C173 0.950 . S
C177 C168 1.390 . S
C177 H170 0.950 . S
C177 C174 1.387 1_554 S
C178 C179 1.387 1_554 S
C178 H182 0.950 . S
C178 C187 1.390 . S
C179 C178 1.387 1_556 S
C179 C181 1.387 . S
H180 C187 0.950 . S
C181 C179 1.387 . S
C181 C183 1.390 . S
C181 H185 0.950 . S
H182 C178 0.950 . S
C183 C181 1.390 . S
C183 C184 1.387 . S
C183 H186 0.950 . S
C184 C183 1.387 . S
C184 C187 1.387 1_556 S
H185 C181 0.950 . S
H186 C183 0.950 . S
C187 C178 1.390 . S
C187 H180 0.950 . S
C187 C184 1.387 1_554 S
C188 C189 1.387 . S
C188 H192 0.950 . S
C188 C197 1.390 . S
C189 C188 1.387 . S
C189 C191 1.387 . S
H190 C197 0.950 . S
C191 C189 1.387 . S
C191 C193 1.390 . S
C191 H195 0.950 . S
H192 C188 0.950 . S
C193 C191 1.390 . S
C193 C194 1.387 . S
C193 H196 0.950 . S
C194 C193 1.387 . S
C194 C197 1.387 . S
H195 C191 0.950 . S
H196 C193 0.950 . S
C197 C188 1.390 . S
C197 H190 0.950 . S
C197 C194 1.387 . S
C198 C199 1.387 . S
C198 H202 0.950 . S
C198 C207 1.390 . S
C199 C198 1.387 . S
C199 C201 1.387 . S
H200 C207 0.950 . S
C201 C199 1.387 . S
C201 C203 1.390 . S
C201 H205 0.950 . S
H202 C198 0.950 . S
C203 C201 1.390 . S
C203 C204 1.387 . S
C203 H206 0.950 . S
C204 C203 1.387 . S
C204 C207 1.387 . S
H205 C201 0.950 . S
H206 C203 0.950 . S
C207 C198 1.390 . S
C207 H200 0.950 . S
C207 C204 1.387 . S
C208 C209 1.387 1_454 S
C208 H212 0.950 1_455 S
C208 C217 1.390 . S
C209 C208 1.387 1_656 S
C209 C211 1.387 1_655 S
H210 C217 0.950 . S
C211 C209 1.387 1_455 S
C211 C213 1.390 . S
C211 H215 0.950 1_455 S
H212 C208 0.950 1_655 S
C213 C211 1.390 . S
C213 C214 1.387 . S
C213 H216 0.950 . S
C214 C213 1.387 . S
C214 C217 1.387 1_556 S
H215 C211 0.950 1_655 S
H216 C213 0.950 . S
C217 C208 1.390 . S
C217 H210 0.950 . S
C217 C214 1.387 1_554 S
C218 C219 1.387 1_654 S
C218 H222 0.950 1_655 S
C218 C227 1.390 . S
C219 C218 1.387 1_456 S
C219 C221 1.387 1_455 S
H220 C227 0.950 . S
C221 C219 1.387 1_655 S
C221 C223 1.390 . S
C221 H225 0.950 1_655 S
H222 C218 0.950 1_455 S
C223 C221 1.390 . S
C223 C224 1.387 . S
C223 H226 0.950 . S
C224 C223 1.387 . S
C224 C227 1.387 1_556 S
H225 C221 0.950 1_455 S
H226 C223 0.950 . S
C227 C218 1.390 . S
C227 H220 0.950 . S
C227 C224 1.387 1_554 S
C228 C229 1.387 . S
C228 H232 0.950 . S
C228 C237 1.390 . S
C229 C228 1.387 . S
C229 C231 1.387 . S
H230 C237 0.950 1_655 S
C231 C229 1.387 . S
C231 C233 1.390 . S
C231 H235 0.950 . S
H232 C228 0.950 . S
C233 C231 1.390 . S
C233 C234 1.387 1_455 S
C233 H236 0.950 1_455 S
C234 C233 1.387 1_655 S
C234 C237 1.387 1_655 S
H235 C231 0.950 . S
H236 C233 0.950 1_655 S
C237 C228 1.390 . S
C237 H230 0.950 1_455 S
C237 C234 1.387 1_455 S
C238 C239 1.387 . S
C238 H242 0.950 . S
C238 C247 1.390 . S
C239 C238 1.387 . S
C239 C241 1.387 . S
H240 C247 0.950 1_455 S
C241 C239 1.387 . S
C241 C243 1.390 . S
C241 H245 0.950 . S
H242 C238 0.950 . S
C243 C241 1.390 . S
C243 C244 1.387 1_655 S
C243 H246 0.950 1_655 S
C244 C243 1.387 1_455 S
C244 C247 1.387 1_455 S
H245 C241 0.950 . S
H246 C243 0.950 1_455 S
C247 C238 1.390 . S
C247 H240 0.950 1_655 S
C247 C244 1.387 1_655 S
C248 C249 1.387 1_556 S
C248 H252 0.950 . S
C248 C257 1.390 1_655 S
C249 C248 1.387 1_554 S
C249 C251 1.387 . S
H250 C257 0.950 . S
C251 C249 1.387 . S
C251 C253 1.390 1_655 S
C251 H255 0.950 . S
H252 C248 0.950 . S
C253 C251 1.390 1_455 S
C253 C254 1.387 . S
C253 H256 0.950 . S
C254 C253 1.387 . S
C254 C257 1.387 1_554 S
H255 C251 0.950 . S
H256 C253 0.950 . S
C257 C248 1.390 1_455 S
C257 H250 0.950 . S
C257 C254 1.387 1_556 S
C258 C259 1.387 . S
C258 H262 0.950 . S
C258 C267 1.390 1_655 S
C259 C258 1.387 . S
C259 C261 1.387 . S
H260 C267 0.950 . S
C261 C259 1.387 . S
C261 C263 1.390 1_655 S
C261 H265 0.950 . S
H262 C258 0.950 . S
C263 C261 1.390 1_455 S
C263 C264 1.387 . S
C263 H266 0.950 . S
C264 C263 1.387 . S
C264 C267 1.387 . S
H265 C261 0.950 . S
H266 C263 0.950 . S
C267 C258 1.390 1_455 S
C267 H260 0.950 . S
C267 C264 1.387 . S
C268 C269 1.387 1_556 S
C268 H272 0.950 . S
C268 C277 1.390 1_565 S
C269 C268 1.387 1_554 S
C269 C271 1.387 . S
H270 C277 0.950 . S
C271 C269 1.387 . S
C271 C273 1.390 1_565 S
C271 H275 0.950 . S
H272 C268 0.950 . S
C273 C271 1.390 1_545 S
C273 C274 1.387 . S
C273 H276 0.950 . S
C274 C273 1.387 . S
C274 C277 1.387 1_554 S
H275 C271 0.950 . S
H276 C273 0.950 . S
C277 C268 1.390 1_545 S
C277 H270 0.950 . S
C277 C274 1.387 1_556 S
C278 C279 1.387 . S
C278 H282 0.950 . S
C278 C287 1.390 1_545 S
C279 C278 1.387 . S
C279 C281 1.387 . S
H280 C287 0.950 . S
C281 C279 1.387 . S
C281 C283 1.390 1_545 S
C281 H285 0.950 . S
H282 C278 0.950 . S
C283 C281 1.390 1_565 S
C283 C284 1.387 . S
C283 H286 0.950 . S
C284 C283 1.387 . S
C284 C287 1.387 . S
H285 C281 0.950 . S
H286 C283 0.950 . S
C287 C278 1.390 1_565 S
C287 H280 0.950 . S
C287 C284 1.387 . S
C288 C289 1.387 1_556 S
C288 H292 0.950 . S
C288 C297 1.390 . S
C289 C288 1.387 1_554 S
C289 C291 1.387 . S
H290 C297 0.950 . S
C291 C289 1.387 . S
C291 C293 1.390 . S
C291 H295 0.950 . S
H292 C288 0.950 . S
C293 C291 1.390 . S
C293 C294 1.387 . S
C293 H296 0.950 . S
C294 C293 1.387 . S
C294 C297 1.387 1_554 S
H295 C291 0.950 . S
H296 C293 0.950 . S
C297 C288 1.390 . S
C297 H290 0.950 . S
C297 C294 1.387 1_556 S
C298 C299 1.387 1_556 S
C298 H302 0.950 . S
C298 C307 1.390 . S
C299 C298 1.387 1_554 S
C299 C301 1.387 . S
H300 C307 0.950 . S
C301 C299 1.387 . S
C301 C303 1.390 . S
C301 H305 0.950 . S
H302 C298 0.950 . S
C303 C301 1.390 . S
C303 C304 1.387 . S
C303 H306 0.950 . S
C304 C303 1.387 . S
C304 C307 1.387 1_554 S
H305 C301 0.950 . S
H306 C303 0.950 . S
C307 C298 1.390 . S
C307 H300 0.950 . S
C307 C304 1.387 1_556 S
C308 C309 1.387 . S
C308 H312 0.950 . S
C308 C317 1.390 . S
C309 C308 1.387 . S
C309 C311 1.387 . S
H310 C317 0.950 . S
C311 C309 1.387 . S
C311 C313 1.390 . S
C311 H315 0.950 . S
H312 C308 0.950 . S
C313 C311 1.390 . S
C313 C314 1.387 . S
C313 H316 0.950 . S
C314 C313 1.387 . S
C314 C317 1.387 . S
H315 C311 0.950 . S
H316 C313 0.950 . S
C317 C308 1.390 . S
C317 H310 0.950 . S
C317 C314 1.387 . S
C318 C319 1.387 . S
C318 H322 0.950 . S
C318 C327 1.390 . S
C319 C318 1.387 . S
C319 C321 1.387 . S
H320 C327 0.950 . S
C321 C319 1.387 . S
C321 C323 1.390 . S
C321 H325 0.950 . S
H322 C318 0.950 . S
C323 C321 1.390 . S
C323 C324 1.387 . S
C323 H326 0.950 . S
C324 C323 1.387 . S
C324 C327 1.387 . S
H325 C321 0.950 . S
H326 C323 0.950 . S
C327 C318 1.390 . S
C327 H320 0.950 . S
C327 C324 1.387 . S
C328 C329 1.387 . S
C328 H332 0.950 . S
C328 C337 1.390 1_455 S
C329 C328 1.387 . S
C329 C331 1.387 . S
H330 C337 0.950 . S
C331 C329 1.387 . S
C331 C333 1.390 1_455 S
C331 H335 0.950 . S
H332 C328 0.950 . S
C333 C331 1.390 1_655 S
C333 C334 1.387 . S
C333 H336 0.950 . S
C334 C333 1.387 . S
C334 C337 1.387 . S
H335 C331 0.950 . S
H336 C333 0.950 . S
C337 C328 1.390 1_655 S
C337 H330 0.950 . S
C337 C334 1.387 . S
C338 C339 1.387 . S
C338 H342 0.950 . S
C338 C347 1.390 1_655 S
C339 C338 1.387 . S
C339 C341 1.387 . S
H340 C347 0.950 . S
C341 C339 1.387 . S
C341 C343 1.390 1_655 S
C341 H345 0.950 . S
H342 C338 0.950 . S
C343 C341 1.390 1_455 S
C343 C344 1.387 . S
C343 H346 0.950 . S
C344 C343 1.387 . S
C344 C347 1.387 . S
H345 C341 0.950 . S
H346 C343 0.950 . S
C347 C338 1.390 1_455 S
C347 H340 0.950 . S
C347 C344 1.387 . S
C348 C349 1.387 . S
C348 H352 0.950 . S
C348 C357 1.390 1_655 S
C349 C348 1.387 . S
C349 C351 1.387 . S
H350 C357 0.950 . S
C351 C349 1.387 . S
C351 C353 1.390 1_655 S
C351 H355 0.950 . S
H352 C348 0.950 . S
C353 C351 1.390 1_455 S
C353 C354 1.387 . S
C353 H356 0.950 . S
C354 C353 1.387 . S
C354 C357 1.387 . S
H355 C351 0.950 . S
H356 C353 0.950 . S
C357 C348 1.390 1_455 S
C357 H350 0.950 . S
C357 C354 1.387 . S
C358 C359 1.387 . S
C358 H362 0.950 . S
C358 C367 1.390 1_655 S
C359 C358 1.387 . S
C359 C361 1.387 . S
H360 C367 0.950 . S
C361 C359 1.387 . S
C361 C363 1.390 1_655 S
C361 H365 0.950 . S
H362 C358 0.950 . S
C363 C361 1.390 1_455 S
C363 C364 1.387 . S
C363 H366 0.950 . S
C364 C363 1.387 . S
C364 C367 1.387 . S
H365 C361 0.950 . S
H366 C363 0.950 . S
C367 C358 1.390 1_455 S
C367 H360 0.950 . S
C367 C364 1.387 . S
C368 C369 1.387 . S
C368 H372 0.950 . S
C368 C377 1.390 . S
C369 C368 1.387 . S
C369 C371 1.387 . S
H370 C377 0.950 . S
C371 C369 1.387 . S
C371 C373 1.390 . S
C371 H375 0.950 . S
H372 C368 0.950 . S
C373 C371 1.390 . S
C373 C374 1.387 . S
C373 H376 0.950 . S
C374 C373 1.387 . S
C374 C377 1.387 . S
H375 C371 0.950 . S
H376 C373 0.950 . S
C377 C368 1.390 . S
C377 H370 0.950 . S
C377 C374 1.387 . S
C378 C379 1.387 . S
C378 H382 0.950 . S
C378 C387 1.390 . S
C379 C378 1.387 . S
C379 C381 1.387 . S
H380 C387 0.950 . S
C381 C379 1.387 . S
C381 C383 1.390 . S
C381 H385 0.950 . S
H382 C378 0.950 . S
C383 C381 1.390 . S
C383 C384 1.387 . S
C383 H386 0.950 . S
C384 C383 1.387 . S
C384 C387 1.387 . S
H385 C381 0.950 . S
H386 C383 0.950 . S
C387 C378 1.390 . S
C387 H380 0.950 . S
C387 C384 1.387 . S
C388 C389 1.387 . S
C388 H392 0.950 . S
C388 C397 1.390 . S
C389 C388 1.387 . S
C389 C391 1.387 . S
H390 C397 0.950 . S
C391 C389 1.387 . S
C391 C393 1.390 . S
C391 H395 0.950 . S
H392 C388 0.950 . S
C393 C391 1.390 . S
C393 C394 1.387 . S
C393 H396 0.950 . S
C394 C393 1.387 . S
C394 C397 1.387 . S
H395 C391 0.950 . S
H396 C393 0.950 . S
C397 C388 1.390 . S
C397 H390 0.950 . S
C397 C394 1.387 . S
C398 C399 1.387 . S
C398 H402 0.950 . S
C398 C407 1.390 . S
C399 C398 1.387 . S
C399 C401 1.387 . S
H400 C407 0.950 . S
C401 C399 1.387 . S
C401 C403 1.390 . S
C401 H405 0.950 . S
H402 C398 0.950 . S
C403 C401 1.390 . S
C403 C404 1.387 . S
C403 H406 0.950 . S
C404 C403 1.387 . S
C404 C407 1.387 . S
H405 C401 0.950 . S
H406 C403 0.950 . S
C407 C398 1.390 . S
C407 H400 0.950 . S
C407 C404 1.387 . S
C169 C20 1.340 . S
C174 C16 1.296 1_556 S
C179 C24 1.296 1_556 S
C184 C40 1.340 . S
C189 C45 1.296 . S
C194 C61 1.340 . S
C199 C83 1.340 . S
C204 C79 1.296 . S
C209 C104 1.340 . S
C214 C100 1.296 1_556 S
C219 C124 1.340 . S
C224 C108 1.296 1_556 S
C229 C129 1.297 . S
C234 C145 1.343 . S
C239 C163 1.297 . S
C244 C167 1.343 . S
C249 C37 1.442 1_554 S
C254 C3 1.442 1_554 S
C259 C66 1.443 . S
C264 C58 1.443 . S
C269 C87 1.442 1_554 S
C274 C121 1.442 1_554 S
C279 C142 1.442 . S
C284 C150 1.442 . S
C289 C19 1.413 . S
C294 C125 1.413 . S
C299 C103 1.413 . S
C304 C41 1.413 . S
C309 C62 1.413 . S
C314 C166 1.413 . S
C319 C82 1.413 . S
C324 C146 1.413 . S
C329 C7 1.317 . S
C334 C70 1.315 . S
C339 C25 1.319 . S
C344 C46 1.317 . S
C349 C28 1.342 . S
C354 C49 1.344 . S
C359 C67 1.342 . S
C364 C4 1.344 . S
C369 C91 1.319 . S
C374 C154 1.317 . S
C379 C109 1.319 . S
C384 C130 1.317 . S
C389 C112 1.342 . S
C394 C133 1.344 . S
C399 C151 1.342 . S
C404 C88 1.344 . S
