# Generated by pormake.
# Topology smk, (6)-cn, num edge types: 1
# Building blocks:
#     Node 0, Type 0, BuildingBlock: OJICUG_clean_sbu_0, # of connection points: 6
#     Node 1, Type 0, BuildingBlock: OJICUG_clean_sbu_0, # of connection points: 6
#     Node 2, Type 0, BuildingBlock: OJICUG_clean_sbu_0, # of connection points: 6
#     Node 3, Type 0, BuildingBlock: OJICUG_clean_sbu_0, # of connection points: 6
#     Node 4, Type 0, BuildingBlock: OJICUG_clean_sbu_0, # of connection points: 6
#     Node 5, Type 0, BuildingBlock: OJICUG_clean_sbu_0, # of connection points: 6
#     Edge 6, Type (0, 0), BuildingBlock: UVAHIK_clean_linker_0, # of connection points: 2
#     Edge 7, Type (0, 0), BuildingBlock: UVAHIK_clean_linker_0, # of connection points: 2
#     Edge 8, Type (0, 0), BuildingBlock: UVAHIK_clean_linker_0, # of connection points: 2
#     Edge 9, Type (0, 0), BuildingBlock: UVAHIK_clean_linker_0, # of connection points: 2
#     Edge 10, Type (0, 0), BuildingBlock: UVAHIK_clean_linker_0, # of connection points: 2
#     Edge 11, Type (0, 0), BuildingBlock: UVAHIK_clean_linker_0, # of connection points: 2
#     Edge 12, Type (0, 0), BuildingBlock: UVAHIK_clean_linker_0, # of connection points: 2
#     Edge 13, Type (0, 0), BuildingBlock: UVAHIK_clean_linker_0, # of connection points: 2
#     Edge 14, Type (0, 0), BuildingBlock: UVAHIK_clean_linker_0, # of connection points: 2
#     Edge 15, Type (0, 0), BuildingBlock: UVAHIK_clean_linker_0, # of connection points: 2
#     Edge 16, Type (0, 0), BuildingBlock: UVAHIK_clean_linker_0, # of connection points: 2
#     Edge 17, Type (0, 0), BuildingBlock: UVAHIK_clean_linker_0, # of connection points: 2
#     Edge 18, Type (0, 0), BuildingBlock: UVAHIK_clean_linker_0, # of connection points: 2
#     Edge 19, Type (0, 0), BuildingBlock: UVAHIK_clean_linker_0, # of connection points: 2
#     Edge 20, Type (0, 0), BuildingBlock: UVAHIK_clean_linker_0, # of connection points: 2
#     Edge 21, Type (0, 0), BuildingBlock: UVAHIK_clean_linker_0, # of connection points: 2
#     Edge 22, Type (0, 0), BuildingBlock: UVAHIK_clean_linker_0, # of connection points: 2
#     Edge 23, Type (0, 0), BuildingBlock: UVAHIK_clean_linker_0, # of connection points: 2
# Relax obj value: 0.194
# Max RMSD: 0.221
# Mean RMSD: 0.221
data_MOF--net-smk--node1-OJICUG_clean_sbu_0--edge1-UVAHIK_clean_linker_0
_symmetry_space_group_name_H-M    P1
_symmetry_Int_Tables_number       1
_symmetry_cell_setting            triclinic
loop_
_symmetry_equiv_pos_as_xyz
'x, y, z'
_cell_length_a     55.807685
_cell_length_b     55.843687
_cell_length_c     20.115838
_cell_angle_alpha  90.023863
_cell_angle_beta   89.962706
_cell_angle_gamma 120.02849
loop_
_atom_site_label
_atom_site_type_symbol
_atom_site_fract_x
_atom_site_fract_y
_atom_site_fract_z
_atom_type_partial_charge
Sc0 Sc 0.43951 0.20081 0.50725 0.0
Sc1 Sc 0.37645 0.18557 0.58049 0.0
Sc2 Sc 0.43918 0.23622 0.65059 0.0
O3 O 0.41841 0.20759 0.57951 0.0
C4 C 0.47602 0.20728 0.63344 0.0
C5 C 0.39054 0.13956 0.54285 0.0
C6 C 0.39043 0.19069 0.73611 0.0
C7 C 0.38955 0.19539 0.42435 0.0
C8 C 0.47538 0.26662 0.52419 0.0
C9 C 0.38811 0.24536 0.61563 0.0
O10 O 0.46553 0.19608 0.57794 0.0
O11 O 0.37636 0.14719 0.57697 0.0
O12 O 0.41592 0.2083 0.7292 0.0
O13 O 0.41541 0.20507 0.43037 0.0
O14 O 0.46474 0.26716 0.57956 0.0
O15 O 0.37407 0.22263 0.5846 0.0
O16 O 0.46937 0.2442 0.49443 0.0
O17 O 0.37276 0.18536 0.47291 0.0
O18 O 0.41081 0.25204 0.64519 0.0
O19 O 0.41223 0.15645 0.51092 0.0
O20 O 0.46972 0.22347 0.66345 0.0
O21 O 0.37341 0.18228 0.68793 0.0
Sc22 Sc 0.2352 0.44367 0.68647 0.0
Sc23 Sc 0.18157 0.38022 0.74861 0.0
Sc24 Sc 0.19671 0.44326 0.82462 0.0
O25 O 0.20449 0.42233 0.75318 0.0
C26 C 0.26279 0.47849 0.81718 0.0
C27 C 0.24234 0.39151 0.7193 0.0
C28 C 0.18971 0.39161 0.90585 0.0
C29 C 0.1902 0.39622 0.59393 0.0
C30 C 0.20685 0.48116 0.69819 0.0
C31 C 0.13566 0.39568 0.78354 0.0
O32 O 0.26419 0.46932 0.76053 0.0
O33 O 0.21788 0.37631 0.74128 0.0
O34 O 0.19721 0.41708 0.90131 0.0
O35 O 0.21022 0.42047 0.60409 0.0
O36 O 0.19558 0.47137 0.75407 0.0
O37 O 0.14326 0.38037 0.75449 0.0
O38 O 0.22227 0.47376 0.66857 0.0
O39 O 0.17794 0.37905 0.64085 0.0
O40 O 0.15246 0.41797 0.81327 0.0
O41 O 0.25124 0.4159 0.69732 0.0
O42 O 0.23991 0.47154 0.84581 0.0
O43 O 0.18201 0.37534 0.85602 0.0
Sc44 Sc 0.78221 0.23413 0.83884 0.0
Sc45 Sc 0.7992 0.18794 0.91322 0.0
Sc46 Sc 0.75028 0.20143 0.98728 0.0
O47 O 0.77718 0.20783 0.91316 0.0
C48 C 0.77821 0.26674 0.96233 0.0
C49 C 0.84422 0.24737 0.86854 0.0
C50 C 0.79781 0.20033 0.06759 0.0
C51 C 0.7859 0.1881 0.75892 0.0
C52 C 0.71679 0.20444 0.8646 0.0
C53 C 0.74041 0.14059 0.9567 0.0
O54 O 0.78872 0.26649 0.90647 0.0
O55 O 0.8374 0.22637 0.90525 0.0
O56 O 0.78063 0.20875 0.06132 0.0
O57 O 0.77579 0.20387 0.76529 0.0
O58 O 0.71741 0.19393 0.9201 0.0
O59 O 0.76203 0.14862 0.92133 0.0
O60 O 0.73859 0.22047 0.83206 0.0
O61 O 0.79779 0.18297 0.80613 0.0
O62 O 0.73499 0.15726 0.9877 0.0
O63 O 0.82663 0.25116 0.83683 0.0
O64 O 0.76259 0.24477 0.99487 0.0
O65 O 0.80428 0.18961 0.02019 0.0
Sc66 Sc 0.54432 0.78684 0.01441 0.0
Sc67 Sc 0.60662 0.80003 0.08659 0.0
Sc68 Sc 0.54402 0.75474 0.1636 0.0
O69 O 0.56485 0.78048 0.08811 0.0
C70 C 0.50871 0.78479 0.13833 0.0
C71 C 0.59549 0.84755 0.04606 0.0
C72 C 0.59444 0.79926 0.24253 0.0
C73 C 0.59251 0.78904 0.9314 0.0
C74 C 0.50638 0.72172 0.04176 0.0
C75 C 0.59205 0.74084 0.12988 0.0
O76 O 0.51973 0.79499 0.08252 0.0
O77 O 0.60875 0.83942 0.08234 0.0
O78 O 0.56836 0.78524 0.23641 0.0
O79 O 0.56669 0.7791 0.93893 0.0
O80 O 0.51757 0.72215 0.09709 0.0
O81 O 0.60545 0.76109 0.09044 0.0
O82 O 0.51279 0.74355 0.00851 0.0
O83 O 0.60965 0.79993 0.97893 0.0
O84 O 0.57166 0.73789 0.16488 0.0
O85 O 0.57377 0.83095 0.01356 0.0
O86 O 0.5142 0.7686 0.17098 0.0
O87 O 0.61087 0.80352 0.19428 0.0
Sc88 Sc 0.75163 0.54696 0.17308 0.0
Sc89 Sc 0.79841 0.60838 0.25296 0.0
Sc90 Sc 0.78359 0.54466 0.31984 0.0
O91 O 0.77783 0.56658 0.24873 0.0
C92 C 0.71816 0.50869 0.29324 0.0
C93 C 0.73967 0.59591 0.21011 0.0
C94 C 0.78595 0.5923 0.40625 0.0
C95 C 0.79849 0.5973 0.09759 0.0
C96 C 0.78016 0.50992 0.19333 0.0
C97 C 0.84491 0.5952 0.29142 0.0
O98 O 0.71865 0.5207 0.23916 0.0
O99 O 0.76016 0.60859 0.2492 0.0
O100 O 0.77644 0.56664 0.39707 0.0
O101 O 0.78281 0.57133 0.1019 0.0
O102 O 0.79101 0.52044 0.24903 0.0
O103 O 0.83734 0.60951 0.25748 0.0
O104 O 0.76401 0.51609 0.16279 0.0
O105 O 0.80302 0.61368 0.14595 0.0
O106 O 0.82789 0.57307 0.3218 0.0
O107 O 0.73599 0.5756 0.17387 0.0
O108 O 0.74003 0.51398 0.32497 0.0
O109 O 0.7973 0.61013 0.36036 0.0
Sc110 Sc 0.19879 0.75285 0.33266 0.0
Sc111 Sc 0.18339 0.80046 0.40641 0.0
Sc112 Sc 0.23232 0.78693 0.47898 0.0
O113 O 0.20486 0.78003 0.40595 0.0
C114 C 0.20493 0.72161 0.45664 0.0
C115 C 0.13738 0.74026 0.36846 0.0
C116 C 0.18665 0.79002 0.56205 0.0
C117 C 0.19333 0.79749 0.25041 0.0
C118 C 0.26451 0.78352 0.35335 0.0
C119 C 0.24259 0.84767 0.4458 0.0
O120 O 0.19395 0.72131 0.40114 0.0
O121 O 0.14496 0.76211 0.40253 0.0
O122 O 0.20289 0.78046 0.55524 0.0
O123 O 0.2033 0.7816 0.25655 0.0
O124 O 0.26423 0.79384 0.40942 0.0
O125 O 0.22099 0.83969 0.41043 0.0
O126 O 0.24252 0.7672 0.32173 0.0
O127 O 0.18306 0.80396 0.29891 0.0
O128 O 0.24766 0.83099 0.47777 0.0
O129 O 0.1543 0.73556 0.3362 0.0
O130 O 0.22032 0.74383 0.4884 0.0
O131 O 0.18005 0.80039 0.51404 0.0
C132 C 0.39433 0.21393 0.30949 0.0
C133 C 0.37864 0.19344 0.35661 0.0
C134 C 0.38652 0.21012 0.24271 0.0
C135 C 0.35854 0.15673 0.12235 0.0
H136 H 0.35693 0.21141 0.00642 0.0
C137 C 0.35462 0.1789 0.82421 0.0
C138 C 0.38006 0.18174 0.80425 0.0
C139 C 0.3471 0.17525 0.89141 0.0
C140 C 0.35684 0.19573 0.03829 0.0
H141 H 0.34205 0.15335 0.3716 0.0
H142 H 0.32892 0.14626 0.25371 0.0
H143 H 0.35668 0.21682 0.12736 0.0
H144 H 0.41669 0.18122 0.83767 0.0
H145 H 0.40302 0.17376 0.95471 0.0
H146 H 0.36092 0.13683 0.03332 0.0
C147 C 0.3469 0.16544 0.26903 0.0
C148 C 0.3568 0.19888 0.10722 0.0
C149 C 0.35434 0.16957 0.33627 0.0
C150 C 0.39698 0.17909 0.85184 0.0
C151 C 0.38913 0.17473 0.91861 0.0
C152 C 0.3592 0.1539 0.05344 0.0
C153 C 0.36325 0.18549 0.22164 0.0
C154 C 0.35826 0.17973 0.14974 0.0
C155 C 0.36454 0.1736 0.93919 0.0
C156 C 0.35895 0.17371 0.01095 0.0
H157 H 0.41317 0.23249 0.32398 0.0
H158 H 0.39958 0.22576 0.20694 0.0
H159 H 0.35998 0.14186 0.15423 0.0
H160 H 0.34134 0.18113 0.78851 0.0
H161 H 0.32808 0.1745 0.90635 0.0
C162 C 0.19697 0.40659 0.47248 0.0
C163 C 0.18306 0.38734 0.52361 0.0
C164 C 0.19397 0.39814 0.40648 0.0
C165 C 0.1527 0.35308 0.28015 0.0
H166 H 0.22295 0.37126 0.19917 0.0
C167 C 0.16753 0.35492 0.99378 0.0
C168 C 0.18917 0.38086 0.97318 0.0
C169 C 0.16487 0.34725 0.06101 0.0
C170 C 0.2031 0.36574 0.22104 0.0
H171 H 0.15363 0.34419 0.54434 0.0
H172 H 0.14794 0.32953 0.42717 0.0
H173 H 0.21969 0.37388 0.31967 0.0
H174 H 0.22582 0.41829 0.00535 0.0
H175 H 0.22156 0.40486 0.12139 0.0
H176 H 0.13661 0.34701 0.18089 0.0
C177 C 0.16146 0.35111 0.43949 0.0
C178 C 0.20123 0.36714 0.28989 0.0
C179 C 0.16469 0.35955 0.50629 0.0
C180 C 0.20892 0.3982 0.01989 0.0
C181 C 0.20656 0.3904 0.08636 0.0
C182 C 0.15459 0.35182 0.21085 0.0
C183 C 0.17675 0.3703 0.38953 0.0
C184 C 0.17635 0.36194 0.31971 0.0
C185 C 0.18417 0.36517 0.1081 0.0
C186 C 0.18017 0.3594 0.18054 0.0
H187 H 0.21105 0.42821 0.48342 0.0
H188 H 0.20565 0.41334 0.36851 0.0
H189 H 0.13335 0.34914 0.30227 0.0
H190 H 0.15191 0.34128 0.95872 0.0
H191 H 0.14744 0.32768 0.07644 0.0
C192 C 0.80752 0.17665 0.15991 0.0
C193 C 0.80792 0.20033 0.13499 0.0
C194 C 0.80986 0.17378 0.22832 0.0
C195 C 0.79257 0.19812 0.37951 0.0
H196 H 0.82209 0.15776 0.47274 0.0
C197 C 0.76421 0.17108 0.64861 0.0
C198 C 0.78656 0.1783 0.69155 0.0
C199 C 0.76704 0.16834 0.58069 0.0
C200 C 0.81379 0.1691 0.44725 0.0
H201 H 0.8143 0.24084 0.15977 0.0
H202 H 0.81981 0.23651 0.27849 0.0
H203 H 0.83169 0.16771 0.35378 0.0
H204 H 0.82862 0.18616 0.69881 0.0
H205 H 0.83402 0.18244 0.57926 0.0
H206 H 0.77532 0.20036 0.47195 0.0
C207 C 0.8165 0.21963 0.24606 0.0
C208 C 0.8192 0.17471 0.37924 0.0
C209 C 0.81358 0.22224 0.17815 0.0
C210 C 0.81106 0.18047 0.66645 0.0
C211 C 0.81412 0.17831 0.59804 0.0
C212 C 0.78728 0.19264 0.44689 0.0
C213 C 0.813 0.19474 0.27232 0.0
C214 C 0.80873 0.18943 0.34482 0.0
C215 C 0.79256 0.17357 0.55422 0.0
C216 C 0.79764 0.17794 0.48165 0.0
H217 H 0.80305 0.15944 0.12738 0.0
H218 H 0.80709 0.15436 0.24695 0.0
H219 H 0.78359 0.20892 0.35441 0.0
H220 H 0.74501 0.16898 0.66713 0.0
H221 H 0.74974 0.16378 0.54841 0.0
C222 C 0.59115 0.8142 0.35736 0.0
C223 C 0.60568 0.80781 0.31024 0.0
C224 C 0.59875 0.81743 0.42429 0.0
C225 C 0.62375 0.78818 0.54389 0.0
H226 H 0.62751 0.84479 0.66234 0.0
C227 C 0.5863 0.77092 0.81543 0.0
C228 C 0.60297 0.79063 0.86313 0.0
C229 C 0.59408 0.77465 0.74857 0.0
C230 C 0.62696 0.82906 0.6298 0.0
H231 H 0.64016 0.80079 0.29551 0.0
H232 H 0.65294 0.80561 0.41343 0.0
H233 H 0.62829 0.85138 0.54177 0.0
H234 H 0.64129 0.8292 0.87876 0.0
H235 H 0.65446 0.83612 0.76104 0.0
H236 H 0.62046 0.76501 0.63187 0.0
C237 C 0.63599 0.80856 0.3981 0.0
C238 C 0.62729 0.83279 0.56102 0.0
C239 C 0.62878 0.80598 0.33077 0.0
C240 C 0.62816 0.81357 0.8431 0.0
C241 C 0.63563 0.81762 0.77587 0.0
C242 C 0.62287 0.78421 0.61265 0.0
C243 C 0.62064 0.81372 0.44554 0.0
C244 C 0.62509 0.81211 0.51752 0.0
C245 C 0.61838 0.79844 0.72795 0.0
C246 C 0.62387 0.80437 0.65613 0.0
H247 H 0.57325 0.81569 0.3428 0.0
H248 H 0.58645 0.82118 0.45999 0.0
H249 H 0.62175 0.77181 0.51133 0.0
H250 H 0.5668 0.75305 0.82953 0.0
H251 H 0.58032 0.75967 0.71247 0.0
C252 C 0.76608 0.58398 0.52002 0.0
C253 C 0.78644 0.60164 0.4749 0.0
C254 C 0.76935 0.58979 0.58778 0.0
C255 C 0.81146 0.64109 0.71723 0.0
H256 H 0.79476 0.57428 0.81312 0.0
C257 C 0.80413 0.62879 0.00404 0.0
C258 C 0.8091 0.60857 0.03138 0.0
C259 C 0.80706 0.63389 0.9356 0.0
C260 C 0.80006 0.59329 0.78719 0.0
H261 H 0.82507 0.64032 0.46417 0.0
H262 H 0.83125 0.65012 0.5834 0.0
H263 H 0.78584 0.57186 0.69533 0.0
H264 H 0.82405 0.58024 0.01159 0.0
H265 H 0.83072 0.59019 0.89292 0.0
H266 H 0.82618 0.66249 0.81012 0.0
C267 C 0.81258 0.632 0.5663 0.0
C268 C 0.79435 0.59178 0.71966 0.0
C269 C 0.80906 0.62638 0.4981 0.0
C270 C 0.81985 0.59572 0.99113 0.0
C271 C 0.82341 0.60127 0.92326 0.0
C272 C 0.81729 0.64263 0.78538 0.0
C273 C 0.79334 0.61308 0.61191 0.0
C274 C 0.79961 0.61552 0.68398 0.0
C275 C 0.81538 0.61907 0.89411 0.0
C276 C 0.81157 0.61867 0.82105 0.0
H277 H 0.74821 0.56499 0.5032 0.0
H278 H 0.75374 0.57525 0.62164 0.0
H279 H 0.81582 0.65975 0.69087 0.0
H280 H 0.79566 0.63881 0.03443 0.0
H281 H 0.80068 0.6477 0.91477 0.0
C282 C 0.16715 0.80641 0.16242 0.0
C283 C 0.19119 0.80626 0.18259 0.0
C284 C 0.16281 0.80945 0.09516 0.0
C285 C 0.19597 0.83262 0.93263 0.0
H286 H 0.13324 0.76654 0.86028 0.0
C287 C 0.17585 0.81481 0.65017 0.0
C288 C 0.17762 0.79163 0.63006 0.0
C289 C 0.17235 0.81881 0.71738 0.0
C290 C 0.15053 0.78531 0.87995 0.0
H291 H 0.2303 0.81104 0.14953 0.0
H292 H 0.22318 0.81742 0.03246 0.0
H293 H 0.13876 0.77277 0.98103 0.0
H294 H 0.17525 0.75359 0.66329 0.0
H295 H 0.16814 0.76012 0.7803 0.0
H296 H 0.20823 0.84473 0.83157 0.0
C297 C 0.20759 0.81483 0.06839 0.0
C298 C 0.15362 0.78893 0.9488 0.0
C299 C 0.21161 0.81109 0.13521 0.0
C300 C 0.17397 0.77164 0.67752 0.0
C301 C 0.1698 0.77531 0.74432 0.0
C302 C 0.19257 0.82927 0.86378 0.0
C303 C 0.18279 0.81316 0.04752 0.0
C304 C 0.17684 0.81219 0.97565 0.0
C305 C 0.16982 0.79933 0.76509 0.0
C306 C 0.1703 0.80517 0.83694 0.0
H307 H 0.15097 0.80245 0.19793 0.0
H308 H 0.14352 0.80805 0.08005 0.0
H309 H 0.21407 0.85066 0.95231 0.0
H310 H 0.17884 0.83064 0.61463 0.0
H311 H 0.17246 0.8375 0.73239 0.0
C312 C 0.3925 0.09972 0.4911 0.0
C313 C 0.38062 0.10961 0.53746 0.0
C314 C 0.38159 0.07133 0.48225 0.0
C315 C 0.3368 0.00334 0.55982 0.0
H316 H 0.32111 0.97667 0.37802 0.0
C317 C 0.2585 0.89692 0.41529 0.0
C318 C 0.26232 0.87767 0.452 0.0
C319 C 0.27636 0.92526 0.42384 0.0
C320 C 0.32541 0.98384 0.429 0.0
H321 H 0.34869 0.09739 0.61279 0.0
H322 H 0.32971 0.04795 0.59712 0.0
H323 H 0.34652 0.02636 0.39956 0.0
H324 H 0.28845 0.87321 0.52522 0.0
H325 H 0.3195 0.92266 0.53996 0.0
H326 H 0.31491 0.96085 0.58935 0.0
C327 C 0.3475 0.06216 0.56783 0.0
C328 C 0.34019 0.01224 0.44132 0.0
C329 C 0.35827 0.09051 0.57644 0.0
C330 C 0.28479 0.88742 0.4963 0.0
C331 C 0.30254 0.91575 0.50503 0.0
C332 C 0.32216 0.97495 0.5475 0.0
C333 C 0.35875 0.05229 0.51991 0.0
C334 C 0.3456 0.02226 0.50689 0.0
C335 C 0.29833 0.93493 0.46941 0.0
C336 C 0.31591 0.96494 0.482 0.0
H337 H 0.40978 0.11385 0.46038 0.0
H338 H 0.39083 0.06425 0.44544 0.0
H339 H 0.3409 0.01051 0.61082 0.0
H340 H 0.24148 0.89016 0.38062 0.0
H341 H 0.27244 0.9396 0.3962 0.0
C342 C 0.34895 0.25459 0.6034 0.0
C343 C 0.37675 0.26421 0.62002 0.0
C344 C 0.3375 0.27157 0.61111 0.0
C345 C 0.34748 0.3334 0.70186 0.0
H346 H 0.28919 0.32531 0.58295 0.0
C347 C 0.28945 0.39661 0.70925 0.0
C348 C 0.26056 0.37951 0.71418 0.0
C349 C 0.30632 0.38509 0.69834 0.0
C350 C 0.30551 0.32778 0.61635 0.0
H351 H 0.41458 0.2996 0.65591 0.0
H352 H 0.3947 0.32962 0.66766 0.0
H353 H 0.3148 0.30166 0.55754 0.0
H354 H 0.22678 0.33698 0.7128 0.0
H355 H 0.25626 0.31705 0.69219 0.0
H356 H 0.33812 0.35996 0.75996 0.0
C357 C 0.38161 0.30866 0.65012 0.0
C358 C 0.32007 0.31415 0.60214 0.0
C359 C 0.39304 0.2915 0.64307 0.0
C360 C 0.24896 0.3507 0.70954 0.0
C361 C 0.26574 0.33928 0.69735 0.0
C362 C 0.33317 0.34744 0.71543 0.0
C363 C 0.35361 0.29878 0.63479 0.0
C364 C 0.34069 0.31613 0.6457 0.0
C365 C 0.29446 0.3564 0.69085 0.0
C366 C 0.31163 0.34411 0.67361 0.0
H367 H 0.33572 0.23361 0.58606 0.0
H368 H 0.31572 0.263 0.60018 0.0
H369 H 0.36305 0.3352 0.73682 0.0
H370 H 0.29895 0.41889 0.71292 0.0
H371 H 0.32848 0.39859 0.69349 0.0
C372 C 0.88287 0.28893 0.81268 0.0
C373 C 0.87395 0.26798 0.86104 0.0
C374 C 0.91104 0.30752 0.80351 0.0
C375 C 0.97931 0.33572 0.88374 0.0
H376 H 0.00722 0.34554 0.70325 0.0
C377 C 0.09576 0.40017 0.82562 0.0
C378 C 0.10578 0.38653 0.78518 0.0
C379 C 0.06735 0.39008 0.83132 0.0
C380 C -0.00031 0.34309 0.75385 0.0
H381 H 0.88767 0.25074 0.93904 0.0
H382 H 0.93674 0.28311 0.92279 0.0
H383 H 0.95738 0.3195 0.72319 0.0
H384 H 0.09377 0.35231 0.71665 0.0
H385 H 0.04432 0.33472 0.72697 0.0
H386 H 0.02161 0.35834 0.91464 0.0
C387 C 0.92192 0.28522 0.89226 0.0
C388 C 0.97119 0.32841 0.76523 0.0
C389 C 0.8938 0.26652 0.90116 0.0
C390 C 0.0868 0.36325 0.74854 0.0
C391 C 0.05844 0.35328 0.75399 0.0
C392 C 0.00779 0.35051 0.87235 0.0
C393 C 0.93083 0.3057 0.84287 0.0
C394 C 0.96077 0.32403 0.8304 0.0
C395 C 0.04841 0.36629 0.79635 0.0
C396 C 0.01827 0.35378 0.80741 0.0
H397 H 0.86814 0.29069 0.781 0.0
H398 H 0.91736 0.32325 0.76541 0.0
H399 H 0.97179 0.3329 0.93442 0.0
H400 H 0.1098 0.41823 0.85431 0.0
H401 H 0.06017 0.40066 0.86383 0.0
C402 C 0.59407 0.88778 0.99491 0.0
C403 C 0.60612 0.87763 0.04003 0.0
C404 C 0.60491 0.91621 0.98714 0.0
C405 C 0.64964 0.98368 0.06747 0.0
H406 H 0.66273 0.01203 0.88712 0.0
C407 C 0.72475 0.09161 0.92455 0.0
C408 C 0.72112 0.11049 0.96342 0.0
C409 C 0.70739 0.0632 0.9328 0.0
C410 C 0.65915 0.0044 0.93774 0.0
H411 H 0.6386 0.88953 0.11366 0.0
H412 H 0.65753 0.93905 0.09969 0.0
H413 H 0.63852 0.96219 0.90591 0.0
H414 H 0.69593 0.11421 0.0406 0.0
H415 H 0.66564 0.06449 0.05495 0.0
H416 H 0.67109 0.02592 0.09923 0.0
C417 C 0.63958 0.92498 0.07071 0.0
C418 C 0.64507 0.97588 0.94851 0.0
C419 C 0.62884 0.89658 0.0783 0.0
C420 C 0.69936 0.10027 0.0099 0.0
C421 C 0.68208 0.0718 0.01839 0.0
C422 C 0.66361 0.0122 0.05669 0.0
C423 C 0.62791 0.93509 0.02456 0.0
C424 C 0.6406 0.96525 0.01347 0.0
C425 C 0.68607 0.053 0.98026 0.0
C426 C 0.66894 0.02284 0.99169 0.0
H427 H 0.57649 0.8738 0.96478 0.0
H428 H 0.59534 0.92343 0.95166 0.0
H429 H 0.64622 0.97604 0.11808 0.0
H430 H 0.74122 0.09873 0.88814 0.0
H431 H 0.71117 0.04921 0.90324 0.0
C432 C 0.70742 0.60523 0.14403 0.0
C433 C 0.71975 0.60579 0.20517 0.0
C434 C 0.69005 0.61642 0.13839 0.0
C435 C 0.67307 0.66475 0.22623 0.0
H436 H 0.61494 0.6389 0.0936 0.0
C437 C 0.59821 0.70733 0.19949 0.0
C438 C 0.60154 0.7207 0.13817 0.0
C439 C 0.60935 0.69012 0.20933 0.0
C440 C 0.63105 0.64615 0.13097 0.0
H441 H 0.72257 0.61696 0.30912 0.0
H442 H 0.69102 0.63502 0.30052 0.0
H443 H 0.63991 0.61383 0.11048 0.0
H444 H 0.6179 0.72559 0.03817 0.0
H445 H 0.6367 0.6947 0.05503 0.0
H446 H 0.66349 0.69662 0.24754 0.0
C447 C 0.69565 0.6272 0.256 0.0
C448 C 0.64555 0.63202 0.14037 0.0
C449 C 0.71358 0.61667 0.26118 0.0
C450 C 0.61518 0.71564 0.08601 0.0
C451 C 0.62576 0.69791 0.09543 0.0
C452 C 0.65814 0.67842 0.21785 0.0
C453 C 0.68411 0.6278 0.19421 0.0
C454 C 0.6671 0.64141 0.18741 0.0
C455 C 0.62337 0.68549 0.15752 0.0
C456 C 0.63734 0.66947 0.16955 0.0
H457 H 0.71204 0.59709 0.1 0.0
H458 H 0.68205 0.6169 0.08971 0.0
H459 H 0.68986 0.67309 0.26182 0.0
H460 H 0.5879 0.71098 0.24063 0.0
H461 H 0.60738 0.68071 0.25762 0.0
C462 C 0.8941 0.62758 0.25868 0.0
C463 C 0.87486 0.605 0.29682 0.0
C464 C 0.92241 0.63749 0.26542 0.0
C465 C 0.97314 0.64143 0.38556 0.0
H466 H 0.02255 0.66726 0.23354 0.0
C467 C 0.08847 0.72275 0.40471 0.0
C468 C 0.10746 0.71981 0.36454 0.0
C469 C 0.06012 0.70447 0.39843 0.0
C470 C 0.00902 0.65979 0.27644 0.0
H471 H 0.87035 0.57474 0.37097 0.0
H472 H 0.91988 0.59221 0.38273 0.0
H473 H 0.97258 0.64252 0.21601 0.0
H474 H 0.11151 0.69476 0.28759 0.0
H475 H 0.06189 0.66289 0.27663 0.0
H476 H 0.00959 0.65912 0.44601 0.0
C477 C 0.91295 0.60227 0.34793 0.0
C478 C 0.98044 0.64588 0.26641 0.0
C479 C 0.88459 0.59223 0.34096 0.0
C480 C 0.09746 0.6977 0.31917 0.0
C481 C 0.06905 0.67949 0.31265 0.0
C482 C 0.00172 0.65544 0.3956 0.0
C483 C 0.93213 0.62512 0.31058 0.0
C484 C 0.96224 0.63707 0.32089 0.0
C485 C 0.05011 0.68291 0.3517 0.0
C486 C 0.01993 0.66524 0.34117 0.0
H487 H 0.88737 0.63786 0.22403 0.0
H488 H 0.93673 0.65537 0.23657 0.0
H489 H 0.95961 0.63501 0.4285 0.0
H490 H 0.09542 0.73945 0.4404 0.0
H491 H 0.04599 0.70782 0.42866 0.0
C492 C 0.51219 0.29368 0.43948 0.0
C493 C 0.49662 0.29322 0.49495 0.0
C494 C 0.53375 0.31871 0.41547 0.0
C495 C 0.57107 0.37564 0.35659 0.0
H496 H 0.61973 0.42761 0.48937 0.0
C497 C 0.66646 0.47982 0.28452 0.0
C498 C 0.69106 0.4868 0.31888 0.0
C499 C 0.64113 0.458 0.30634 0.0
C500 C 0.60637 0.41329 0.45169 0.0
H501 H 0.49072 0.31893 0.56663 0.0
H502 H 0.52807 0.36251 0.52415 0.0
H503 H 0.57811 0.38569 0.52437 0.0
H504 H 0.7081 0.47667 0.40426 0.0
H505 H 0.66403 0.43851 0.44171 0.0
H506 H 0.59996 0.40275 0.28405 0.0
C507 C 0.52396 0.34346 0.50012 0.0
C508 C 0.58234 0.38942 0.47168 0.0
C509 C 0.50246 0.31845 0.52426 0.0
C510 C 0.68961 0.4719 0.37653 0.0
C511 C 0.66428 0.4501 0.39829 0.0
C512 C 0.59514 0.39952 0.33659 0.0
C513 C 0.54017 0.34384 0.44622 0.0
C514 C 0.56459 0.37014 0.42441 0.0
C515 C 0.63981 0.4427 0.36302 0.0
C516 C 0.61325 0.41842 0.38399 0.0
H517 H 0.50828 0.27466 0.41567 0.0
H518 H 0.54602 0.31825 0.37428 0.0
H519 H 0.55767 0.36135 0.31893 0.0
H520 H 0.66674 0.49093 0.24013 0.0
H521 H 0.62257 0.45305 0.27863 0.0
C522 C 0.21831 0.51831 0.6132 0.0
C523 C 0.20247 0.50284 0.66795 0.0
C524 C 0.21548 0.54012 0.58826 0.0
C525 C 0.19642 0.57749 0.5264 0.0
H526 H 0.19129 0.62594 0.65681 0.0
C527 C 0.18389 0.67011 0.44986 0.0
C528 C 0.2007 0.6951 0.48366 0.0
C529 C 0.18148 0.64538 0.47265 0.0
C530 C 0.19281 0.61267 0.61979 0.0
H531 H 0.17025 0.49737 0.73735 0.0
H532 H 0.16512 0.53506 0.69327 0.0
H533 H 0.19239 0.58499 0.69368 0.0
H534 H 0.22758 0.71347 0.56905 0.0
H535 H 0.22357 0.67042 0.60827 0.0
H536 H 0.19781 0.60575 0.45265 0.0
C537 C 0.18017 0.53075 0.67058 0.0
C538 C 0.19311 0.58901 0.64084 0.0
C539 C 0.18306 0.50905 0.69564 0.0
C540 C 0.21443 0.69463 0.54178 0.0
C541 C 0.21203 0.66991 0.5645 0.0
C542 C 0.19614 0.60118 0.50533 0.0
C543 C 0.19668 0.54684 0.6174 0.0
C544 C 0.19512 0.57127 0.59443 0.0
C545 C 0.1958 0.64507 0.52974 0.0
C546 C 0.19458 0.61915 0.55187 0.0
H547 H 0.23345 0.51409 0.5907 0.0
H548 H 0.22868 0.55229 0.54757 0.0
H549 H 0.19771 0.56408 0.48941 0.0
H550 H 0.17286 0.66963 0.40514 0.0
H551 H 0.16847 0.6265 0.44538 0.0
C552 C 0.66518 0.18236 0.8744 0.0
C553 C 0.68969 0.19901 0.8386 0.0
C554 C 0.63995 0.17912 0.85269 0.0
C555 C 0.60498 0.18822 0.70656 0.0
H556 H 0.55851 0.19551 0.83909 0.0
C557 C 0.5134 0.21757 0.71692 0.0
C558 C 0.49721 0.2019 0.66281 0.0
C559 C 0.53474 0.21378 0.7411 0.0
C560 C 0.5713 0.19351 0.8015 0.0
H561 H 0.70661 0.22458 0.75058 0.0
H562 H 0.66274 0.21915 0.71328 0.0
H563 H 0.60024 0.19524 0.87374 0.0
H564 H 0.48993 0.16898 0.59385 0.0
H565 H 0.52682 0.16218 0.63667 0.0
H566 H 0.57672 0.18761 0.63407 0.0
C567 C 0.66298 0.20837 0.75781 0.0
C568 C 0.59503 0.19301 0.82139 0.0
C569 C 0.68819 0.21161 0.77946 0.0
C570 C 0.5022 0.18167 0.63507 0.0
C571 C 0.52344 0.17782 0.65941 0.0
C572 C 0.5813 0.18874 0.68667 0.0
C573 C 0.63865 0.19241 0.79467 0.0
C574 C 0.61233 0.19074 0.77404 0.0
C575 C 0.54027 0.19416 0.71191 0.0
C576 C 0.56436 0.19174 0.73382 0.0
H577 H 0.6655 0.1722 0.91997 0.0
H578 H 0.62149 0.16636 0.88164 0.0
H579 H 0.61771 0.18612 0.66895 0.0
H580 H 0.51013 0.23333 0.73946 0.0
H581 H 0.54751 0.22691 0.78119 0.0
C582 C 0.46912 0.6933 0.95916 0.0
C583 C 0.48393 0.69476 0.01698 0.0
C584 C 0.44665 0.66814 0.93878 0.0
C585 C 0.40847 0.60983 0.88885 0.0
H586 H 0.35624 0.56312 0.0238 0.0
C587 C 0.31452 0.50499 0.82158 0.0
C588 C 0.28898 0.49945 0.84855 0.0
C589 C 0.33927 0.52678 0.84583 0.0
C590 C 0.3706 0.57598 0.98557 0.0
H591 H 0.4872 0.67059 0.09743 0.0
H592 H 0.44822 0.62678 0.06135 0.0
H593 H 0.39791 0.60567 0.05649 0.0
H594 H 0.26958 0.51171 0.92438 0.0
H595 H 0.31286 0.55002 0.96624 0.0
H596 H 0.3808 0.58069 0.81774 0.0
C597 C 0.45372 0.64519 0.03247 0.0
C598 C 0.39461 0.60019 0.00431 0.0
C599 C 0.47619 0.67032 0.05287 0.0
C600 C 0.28887 0.51542 0.90246 0.0
C601 C 0.31369 0.53732 0.9266 0.0
C602 C 0.3845 0.58564 0.87014 0.0
C603 C 0.43849 0.64388 0.97569 0.0
C604 C 0.41368 0.6175 0.95608 0.0
C605 C 0.33911 0.54361 0.8975 0.0
C606 C 0.3652 0.56854 0.91822 0.0
H607 H 0.47446 0.71168 0.93033 0.0
H608 H 0.43516 0.66787 0.89513 0.0
H609 H 0.42289 0.62258 0.85059 0.0
H610 H 0.31543 0.49288 0.7806 0.0
H611 H 0.35855 0.53072 0.82333 0.0
C612 C 0.77081 0.47331 0.10852 0.0
C613 C 0.78547 0.48857 0.16473 0.0
C614 C 0.77412 0.4516 0.0851 0.0
C615 C 0.7936 0.41397 0.02793 0.0
H616 H 0.79469 0.36432 0.16113 0.0
C617 C 0.80168 0.31844 0.95588 0.0
C618 C 0.78355 0.29369 0.98906 0.0
C619 C 0.80534 0.34371 0.97835 0.0
C620 C 0.79433 0.37795 0.12335 0.0
H621 H 0.81613 0.49373 0.23844 0.0
H622 H 0.82211 0.45611 0.19697 0.0
H623 H 0.79464 0.40608 0.19588 0.0
H624 H 0.75564 0.2763 0.07313 0.0
H625 H 0.76176 0.32032 0.11172 0.0
H626 H 0.79216 0.38526 0.95546 0.0
C627 C 0.80763 0.46059 0.17188 0.0
C628 C 0.79465 0.40206 0.14321 0.0
C629 C 0.80428 0.48225 0.19542 0.0
C630 C 0.76977 0.29493 0.04636 0.0
C631 C 0.7734 0.32021 0.06873 0.0
C632 C 0.79325 0.38984 0.00807 0.0
C633 C 0.79223 0.44471 0.11719 0.0
C634 C 0.79395 0.42018 0.09574 0.0
C635 C 0.79094 0.34484 0.03447 0.0
C636 C 0.79325 0.37138 0.05559 0.0
H637 H 0.75614 0.47758 0.08364 0.0
H638 H 0.76173 0.43958 0.04325 0.0
H639 H 0.79336 0.42766 0.99014 0.0
H640 H 0.81283 0.31834 0.9119 0.0
H641 H 0.81934 0.36237 0.95151 0.0
C642 C 0.4813 0.80908 0.13009 0.0
C643 C 0.48747 0.79086 0.16432 0.0
C644 C 0.45963 0.81295 0.15106 0.0
C645 C 0.41286 0.80201 0.29279 0.0
H646 H 0.36289 0.79951 0.15544 0.0
C647 C 0.29314 0.77527 0.27017 0.0
C648 C 0.29163 0.78974 0.32572 0.0
C649 C 0.31868 0.77938 0.24815 0.0
C650 C 0.37663 0.8002 0.19435 0.0
H651 H 0.47625 0.7632 0.24903 0.0
H652 H 0.43828 0.76972 0.28504 0.0
H653 H 0.40495 0.79919 0.12431 0.0
H654 H 0.316 0.82101 0.39943 0.0
H655 H 0.36044 0.82836 0.36041 0.0
H656 H 0.38401 0.80185 0.36292 0.0
C657 C 0.45039 0.78123 0.24233 0.0
C658 C 0.40089 0.80035 0.17653 0.0
C659 C 0.4721 0.77738 0.22144 0.0
C660 C 0.31633 0.80925 0.35697 0.0
C661 C 0.34183 0.8134 0.33482 0.0
C662 C 0.38861 0.80184 0.31061 0.0
C663 C 0.44363 0.79869 0.20671 0.0
C664 C 0.41907 0.80085 0.2256 0.0
C665 C 0.34325 0.79813 0.28101 0.0
C666 C 0.37003 0.80054 0.26162 0.0
H667 H 0.49286 0.82002 0.08622 0.0
H668 H 0.45521 0.82689 0.12323 0.0
H669 H 0.42661 0.80272 0.33171 0.0
H670 H 0.27455 0.7601 0.24491 0.0
H671 H 0.31903 0.76709 0.20691 0.0
loop_
_geom_bond_atom_site_label_1
_geom_bond_atom_site_label_2
_geom_bond_distance
_geom_bond_site_symmetry_2
_ccdc_geom_bond_type
Sc0 O3 2.025 . S
Sc0 O10 2.105 . S
Sc0 O13 2.105 . S
Sc0 O16 2.105 . S
Sc0 O19 2.105 . S
Sc1 O3 2.025 . S
Sc1 O11 2.105 . S
Sc1 O15 2.105 . S
Sc1 O17 2.105 . S
Sc1 O21 2.105 . S
Sc2 O3 2.025 . S
Sc2 O12 2.105 . S
Sc2 O14 2.105 . S
Sc2 O18 2.105 . S
Sc2 O20 2.105 . S
O3 Sc0 2.025 . S
O3 Sc1 2.025 . S
O3 Sc2 2.025 . S
C4 O10 1.268 . S
C4 O20 1.268 . S
C5 O11 1.268 . S
C5 O19 1.268 . S
C6 O12 1.268 . S
C6 O21 1.268 . S
C7 O13 1.268 . S
C7 O17 1.268 . S
C8 O14 1.268 . S
C8 O16 1.268 . S
C9 O15 1.268 . S
C9 O18 1.268 . S
O10 Sc0 2.105 . S
O10 C4 1.268 . S
O11 Sc1 2.105 . S
O11 C5 1.268 . S
O12 Sc2 2.105 . S
O12 C6 1.268 . S
O13 Sc0 2.105 . S
O13 C7 1.268 . S
O14 Sc2 2.105 . S
O14 C8 1.268 . S
O15 Sc1 2.105 . S
O15 C9 1.268 . S
O16 Sc0 2.105 . S
O16 C8 1.268 . S
O17 Sc1 2.105 . S
O17 C7 1.268 . S
O18 Sc2 2.105 . S
O18 C9 1.268 . S
O19 Sc0 2.105 . S
O19 C5 1.268 . S
O20 Sc2 2.105 . S
O20 C4 1.268 . S
O21 Sc1 2.105 . S
O21 C6 1.268 . S
Sc22 O25 2.025 . S
Sc22 O32 2.105 . S
Sc22 O35 2.105 . S
Sc22 O38 2.105 . S
Sc22 O41 2.105 . S
Sc23 O25 2.025 . S
Sc23 O33 2.105 . S
Sc23 O37 2.105 . S
Sc23 O39 2.105 . S
Sc23 O43 2.105 . S
Sc24 O25 2.025 . S
Sc24 O34 2.105 . S
Sc24 O36 2.105 . S
Sc24 O40 2.105 . S
Sc24 O42 2.105 . S
O25 Sc22 2.025 . S
O25 Sc23 2.025 . S
O25 Sc24 2.025 . S
C26 O32 1.268 . S
C26 O42 1.268 . S
C27 O33 1.268 . S
C27 O41 1.268 . S
C28 O34 1.268 . S
C28 O43 1.268 . S
C29 O35 1.268 . S
C29 O39 1.268 . S
C30 O36 1.268 . S
C30 O38 1.268 . S
C31 O37 1.268 . S
C31 O40 1.268 . S
O32 Sc22 2.105 . S
O32 C26 1.268 . S
O33 Sc23 2.105 . S
O33 C27 1.268 . S
O34 Sc24 2.105 . S
O34 C28 1.268 . S
O35 Sc22 2.105 . S
O35 C29 1.268 . S
O36 Sc24 2.105 . S
O36 C30 1.268 . S
O37 Sc23 2.105 . S
O37 C31 1.268 . S
O38 Sc22 2.105 . S
O38 C30 1.268 . S
O39 Sc23 2.105 . S
O39 C29 1.268 . S
O40 Sc24 2.105 . S
O40 C31 1.268 . S
O41 Sc22 2.105 . S
O41 C27 1.268 . S
O42 Sc24 2.105 . S
O42 C26 1.268 . S
O43 Sc23 2.105 . S
O43 C28 1.268 . S
Sc44 O47 2.025 . S
Sc44 O54 2.105 . S
Sc44 O57 2.105 . S
Sc44 O60 2.105 . S
Sc44 O63 2.105 . S
Sc45 O47 2.025 . S
Sc45 O55 2.105 . S
Sc45 O59 2.105 . S
Sc45 O61 2.105 . S
Sc45 O65 2.105 1_556 S
Sc46 O47 2.025 . S
Sc46 O56 2.105 1_556 S
Sc46 O58 2.105 . S
Sc46 O62 2.105 . S
Sc46 O64 2.105 1_556 S
O47 Sc44 2.025 . S
O47 Sc45 2.025 . S
O47 Sc46 2.025 . S
C48 O54 1.268 . S
C48 O64 1.268 1_556 S
C49 O55 1.268 . S
C49 O63 1.268 . S
C50 O56 1.268 . S
C50 O65 1.268 . S
C51 O57 1.268 . S
C51 O61 1.268 . S
C52 O58 1.268 . S
C52 O60 1.268 . S
C53 O59 1.268 . S
C53 O62 1.268 . S
O54 Sc44 2.105 . S
O54 C48 1.268 . S
O55 Sc45 2.105 . S
O55 C49 1.268 . S
O56 Sc46 2.105 1_554 S
O56 C50 1.268 . S
O57 Sc44 2.105 . S
O57 C51 1.268 . S
O58 Sc46 2.105 . S
O58 C52 1.268 . S
O59 Sc45 2.105 . S
O59 C53 1.268 . S
O60 Sc44 2.105 . S
O60 C52 1.268 . S
O61 Sc45 2.105 . S
O61 C51 1.268 . S
O62 Sc46 2.105 . S
O62 C53 1.268 . S
O63 Sc44 2.105 . S
O63 C49 1.268 . S
O64 Sc46 2.105 1_554 S
O64 C48 1.268 1_554 S
O65 Sc45 2.105 1_554 S
O65 C50 1.268 . S
Sc66 O69 2.025 . S
Sc66 O76 2.105 . S
Sc66 O79 2.105 1_554 S
Sc66 O82 2.105 1_554 S
Sc66 O85 2.105 . S
Sc67 O69 2.025 . S
Sc67 O77 2.105 . S
Sc67 O81 2.105 . S
Sc67 O83 2.105 1_554 S
Sc67 O87 2.105 . S
Sc68 O69 2.025 . S
Sc68 O78 2.105 . S
Sc68 O80 2.105 . S
Sc68 O84 2.105 . S
Sc68 O86 2.105 . S
O69 Sc66 2.025 . S
O69 Sc67 2.025 . S
O69 Sc68 2.025 . S
C70 O76 1.268 . S
C70 O86 1.268 . S
C71 O77 1.268 . S
C71 O85 1.268 . S
C72 O78 1.268 . S
C72 O87 1.268 . S
C73 O79 1.268 . S
C73 O83 1.268 . S
C74 O80 1.268 . S
C74 O82 1.268 1_554 S
C75 O81 1.268 . S
C75 O84 1.268 . S
O76 Sc66 2.105 . S
O76 C70 1.268 . S
O77 Sc67 2.105 . S
O77 C71 1.268 . S
O78 Sc68 2.105 . S
O78 C72 1.268 . S
O79 Sc66 2.105 1_556 S
O79 C73 1.268 . S
O80 Sc68 2.105 . S
O80 C74 1.268 . S
O81 Sc67 2.105 . S
O81 C75 1.268 . S
O82 Sc66 2.105 1_556 S
O82 C74 1.268 1_556 S
O83 Sc67 2.105 1_556 S
O83 C73 1.268 . S
O84 Sc68 2.105 . S
O84 C75 1.268 . S
O85 Sc66 2.105 . S
O85 C71 1.268 . S
O86 Sc68 2.105 . S
O86 C70 1.268 . S
O87 Sc67 2.105 . S
O87 C72 1.268 . S
Sc88 O91 2.025 . S
Sc88 O98 2.105 . S
Sc88 O101 2.105 . S
Sc88 O104 2.105 . S
Sc88 O107 2.105 . S
Sc89 O91 2.025 . S
Sc89 O99 2.105 . S
Sc89 O103 2.105 . S
Sc89 O105 2.105 . S
Sc89 O109 2.105 . S
Sc90 O91 2.025 . S
Sc90 O100 2.105 . S
Sc90 O102 2.105 . S
Sc90 O106 2.105 . S
Sc90 O108 2.105 . S
O91 Sc88 2.025 . S
O91 Sc89 2.025 . S
O91 Sc90 2.025 . S
C92 O98 1.268 . S
C92 O108 1.268 . S
C93 O99 1.268 . S
C93 O107 1.268 . S
C94 O100 1.268 . S
C94 O109 1.268 . S
C95 O101 1.268 . S
C95 O105 1.268 . S
C96 O102 1.268 . S
C96 O104 1.268 . S
C97 O103 1.268 . S
C97 O106 1.268 . S
O98 Sc88 2.105 . S
O98 C92 1.268 . S
O99 Sc89 2.105 . S
O99 C93 1.268 . S
O100 Sc90 2.105 . S
O100 C94 1.268 . S
O101 Sc88 2.105 . S
O101 C95 1.268 . S
O102 Sc90 2.105 . S
O102 C96 1.268 . S
O103 Sc89 2.105 . S
O103 C97 1.268 . S
O104 Sc88 2.105 . S
O104 C96 1.268 . S
O105 Sc89 2.105 . S
O105 C95 1.268 . S
O106 Sc90 2.105 . S
O106 C97 1.268 . S
O107 Sc88 2.105 . S
O107 C93 1.268 . S
O108 Sc90 2.105 . S
O108 C92 1.268 . S
O109 Sc89 2.105 . S
O109 C94 1.268 . S
Sc110 O113 2.025 . S
Sc110 O120 2.105 . S
Sc110 O123 2.105 . S
Sc110 O126 2.105 . S
Sc110 O129 2.105 . S
Sc111 O113 2.025 . S
Sc111 O121 2.105 . S
Sc111 O125 2.105 . S
Sc111 O127 2.105 . S
Sc111 O131 2.105 . S
Sc112 O113 2.025 . S
Sc112 O122 2.105 . S
Sc112 O124 2.105 . S
Sc112 O128 2.105 . S
Sc112 O130 2.105 . S
O113 Sc110 2.025 . S
O113 Sc111 2.025 . S
O113 Sc112 2.025 . S
C114 O120 1.268 . S
C114 O130 1.268 . S
C115 O121 1.268 . S
C115 O129 1.268 . S
C116 O122 1.268 . S
C116 O131 1.268 . S
C117 O123 1.268 . S
C117 O127 1.268 . S
C118 O124 1.268 . S
C118 O126 1.268 . S
C119 O125 1.268 . S
C119 O128 1.268 . S
O120 Sc110 2.105 . S
O120 C114 1.268 . S
O121 Sc111 2.105 . S
O121 C115 1.268 . S
O122 Sc112 2.105 . S
O122 C116 1.268 . S
O123 Sc110 2.105 . S
O123 C117 1.268 . S
O124 Sc112 2.105 . S
O124 C118 1.268 . S
O125 Sc111 2.105 . S
O125 C119 1.268 . S
O126 Sc110 2.105 . S
O126 C118 1.268 . S
O127 Sc111 2.105 . S
O127 C117 1.268 . S
O128 Sc112 2.105 . S
O128 C119 1.268 . S
O129 Sc110 2.105 . S
O129 C115 1.268 . S
O130 Sc112 2.105 . S
O130 C114 1.268 . S
O131 Sc111 2.105 . S
O131 C116 1.268 . S
C132 C133 1.349 . S
C132 C134 1.327 . S
C132 H157 0.950 . S
C133 C132 1.349 . S
C133 C149 1.349 . S
C134 C132 1.327 . S
C134 C153 1.429 . S
C134 H158 0.950 . S
C135 C152 1.574 . S
C135 C154 1.368 . S
C135 H159 0.949 . S
H136 C140 0.949 . S
C137 C138 1.349 . S
C137 C139 1.327 . S
C137 H160 0.950 . S
C138 C137 1.349 . S
C138 C150 1.349 . S
C139 C137 1.327 . S
C139 C155 1.429 . S
C139 H161 0.950 . S
C140 H136 0.949 . S
C140 C148 1.574 . S
C140 C156 1.368 . S
H141 C149 0.950 . S
H142 C147 0.950 . S
H143 C148 0.949 . S
H144 C150 0.950 . S
H145 C151 0.950 . S
H146 C152 0.949 . S
C147 H142 0.950 . S
C147 C149 1.327 . S
C147 C153 1.429 . S
C148 C140 1.574 . S
C148 H143 0.949 . S
C148 C154 1.368 . S
C149 C133 1.349 . S
C149 H141 0.950 . S
C149 C147 1.327 . S
C150 C138 1.349 . S
C150 H144 0.950 . S
C150 C151 1.327 . S
C151 H145 0.950 . S
C151 C150 1.327 . S
C151 C155 1.429 . S
C152 C135 1.574 . S
C152 H146 0.949 . S
C152 C156 1.368 . S
C153 C134 1.429 . S
C153 C147 1.429 . S
C153 C154 1.523 . S
C154 C135 1.368 . S
C154 C148 1.368 . S
C154 C153 1.523 . S
C155 C139 1.429 . S
C155 C151 1.429 . S
C155 C156 1.523 1_556 S
C156 C140 1.368 . S
C156 C152 1.368 . S
C156 C155 1.523 1_554 S
H157 C132 0.950 . S
H158 C134 0.950 . S
H159 C135 0.949 . S
H160 C137 0.950 . S
H161 C139 0.950 . S
C162 C163 1.349 . S
C162 C164 1.327 . S
C162 H187 0.950 . S
C163 C162 1.349 . S
C163 C179 1.349 . S
C164 C162 1.327 . S
C164 C183 1.429 . S
C164 H188 0.950 . S
C165 C182 1.574 . S
C165 C184 1.368 . S
C165 H189 0.949 . S
H166 C170 0.949 . S
C167 C168 1.349 1_554 S
C167 C169 1.327 . S
C167 H190 0.950 1_554 S
C168 C167 1.349 1_556 S
C168 C180 1.349 1_556 S
C169 C167 1.327 . S
C169 C185 1.429 . S
C169 H191 0.950 . S
C170 H166 0.949 . S
C170 C178 1.574 . S
C170 C186 1.368 . S
H171 C179 0.950 . S
H172 C177 0.950 . S
H173 C178 0.949 . S
H174 C180 0.950 1_556 S
H175 C181 0.950 . S
H176 C182 0.949 . S
C177 H172 0.950 . S
C177 C179 1.327 . S
C177 C183 1.429 . S
C178 C170 1.574 . S
C178 H173 0.949 . S
C178 C184 1.368 . S
C179 C163 1.349 . S
C179 H171 0.950 . S
C179 C177 1.327 . S
C180 C168 1.349 1_554 S
C180 H174 0.950 1_554 S
C180 C181 1.327 . S
C181 H175 0.950 . S
C181 C180 1.327 . S
C181 C185 1.429 . S
C182 C165 1.574 . S
C182 H176 0.949 . S
C182 C186 1.368 . S
C183 C164 1.429 . S
C183 C177 1.429 . S
C183 C184 1.523 . S
C184 C165 1.368 . S
C184 C178 1.368 . S
C184 C183 1.523 . S
C185 C169 1.429 . S
C185 C181 1.429 . S
C185 C186 1.523 . S
C186 C170 1.368 . S
C186 C182 1.368 . S
C186 C185 1.523 . S
H187 C162 0.950 . S
H188 C164 0.950 . S
H189 C165 0.949 . S
H190 C167 0.950 1_556 S
H191 C169 0.950 . S
C192 C193 1.349 . S
C192 C194 1.327 . S
C192 H217 0.950 . S
C193 C192 1.349 . S
C193 C209 1.349 . S
C194 C192 1.327 . S
C194 C213 1.429 . S
C194 H218 0.950 . S
C195 C212 1.574 . S
C195 C214 1.368 . S
C195 H219 0.949 . S
H196 C200 0.949 . S
C197 C198 1.349 . S
C197 C199 1.327 . S
C197 H220 0.950 . S
C198 C197 1.349 . S
C198 C210 1.349 . S
C199 C197 1.327 . S
C199 C215 1.429 . S
C199 H221 0.950 . S
C200 H196 0.949 . S
C200 C208 1.574 . S
C200 C216 1.368 . S
H201 C209 0.950 . S
H202 C207 0.950 . S
H203 C208 0.949 . S
H204 C210 0.950 . S
H205 C211 0.950 . S
H206 C212 0.949 . S
C207 H202 0.950 . S
C207 C209 1.327 . S
C207 C213 1.429 . S
C208 C200 1.574 . S
C208 H203 0.949 . S
C208 C214 1.368 . S
C209 C193 1.349 . S
C209 H201 0.950 . S
C209 C207 1.327 . S
C210 C198 1.349 . S
C210 H204 0.950 . S
C210 C211 1.327 . S
C211 H205 0.950 . S
C211 C210 1.327 . S
C211 C215 1.429 . S
C212 C195 1.574 . S
C212 H206 0.949 . S
C212 C216 1.368 . S
C213 C194 1.429 . S
C213 C207 1.429 . S
C213 C214 1.523 . S
C214 C195 1.368 . S
C214 C208 1.368 . S
C214 C213 1.523 . S
C215 C199 1.429 . S
C215 C211 1.429 . S
C215 C216 1.523 . S
C216 C200 1.368 . S
C216 C212 1.368 . S
C216 C215 1.523 . S
H217 C192 0.950 . S
H218 C194 0.950 . S
H219 C195 0.949 . S
H220 C197 0.950 . S
H221 C199 0.950 . S
C222 C223 1.349 . S
C222 C224 1.327 . S
C222 H247 0.950 . S
C223 C222 1.349 . S
C223 C239 1.349 . S
C224 C222 1.327 . S
C224 C243 1.429 . S
C224 H248 0.950 . S
C225 C242 1.574 . S
C225 C244 1.368 . S
C225 H249 0.949 . S
H226 C230 0.949 . S
C227 C228 1.349 . S
C227 C229 1.327 . S
C227 H250 0.950 . S
C228 C227 1.349 . S
C228 C240 1.349 . S
C229 C227 1.327 . S
C229 C245 1.429 . S
C229 H251 0.950 . S
C230 H226 0.949 . S
C230 C238 1.574 . S
C230 C246 1.368 . S
H231 C239 0.950 . S
H232 C237 0.950 . S
H233 C238 0.949 . S
H234 C240 0.950 . S
H235 C241 0.950 . S
H236 C242 0.949 . S
C237 H232 0.950 . S
C237 C239 1.327 . S
C237 C243 1.429 . S
C238 C230 1.574 . S
C238 H233 0.949 . S
C238 C244 1.368 . S
C239 C223 1.349 . S
C239 H231 0.950 . S
C239 C237 1.327 . S
C240 C228 1.349 . S
C240 H234 0.950 . S
C240 C241 1.327 . S
C241 H235 0.950 . S
C241 C240 1.327 . S
C241 C245 1.429 . S
C242 C225 1.574 . S
C242 H236 0.949 . S
C242 C246 1.368 . S
C243 C224 1.429 . S
C243 C237 1.429 . S
C243 C244 1.523 . S
C244 C225 1.368 . S
C244 C238 1.368 . S
C244 C243 1.523 . S
C245 C229 1.429 . S
C245 C241 1.429 . S
C245 C246 1.523 . S
C246 C230 1.368 . S
C246 C242 1.368 . S
C246 C245 1.523 . S
H247 C222 0.950 . S
H248 C224 0.950 . S
H249 C225 0.949 . S
H250 C227 0.950 . S
H251 C229 0.950 . S
C252 C253 1.349 . S
C252 C254 1.327 . S
C252 H277 0.950 . S
C253 C252 1.349 . S
C253 C269 1.349 . S
C254 C252 1.327 . S
C254 C273 1.429 . S
C254 H278 0.950 . S
C255 C272 1.574 . S
C255 C274 1.368 . S
C255 H279 0.949 . S
H256 C260 0.949 . S
C257 C258 1.349 1_556 S
C257 C259 1.327 . S
C257 H280 0.950 1_556 S
C258 C257 1.349 1_554 S
C258 C270 1.349 1_554 S
C259 C257 1.327 . S
C259 C275 1.429 . S
C259 H281 0.950 . S
C260 H256 0.949 . S
C260 C268 1.574 . S
C260 C276 1.368 . S
H261 C269 0.950 . S
H262 C267 0.950 . S
H263 C268 0.949 . S
H264 C270 0.950 1_554 S
H265 C271 0.950 . S
H266 C272 0.949 . S
C267 H262 0.950 . S
C267 C269 1.327 . S
C267 C273 1.429 . S
C268 C260 1.574 . S
C268 H263 0.949 . S
C268 C274 1.368 . S
C269 C253 1.349 . S
C269 H261 0.950 . S
C269 C267 1.327 . S
C270 C258 1.349 1_556 S
C270 H264 0.950 1_556 S
C270 C271 1.327 . S
C271 H265 0.950 . S
C271 C270 1.327 . S
C271 C275 1.429 . S
C272 C255 1.574 . S
C272 H266 0.949 . S
C272 C276 1.368 . S
C273 C254 1.429 . S
C273 C267 1.429 . S
C273 C274 1.523 . S
C274 C255 1.368 . S
C274 C268 1.368 . S
C274 C273 1.523 . S
C275 C259 1.429 . S
C275 C271 1.429 . S
C275 C276 1.523 . S
C276 C260 1.368 . S
C276 C272 1.368 . S
C276 C275 1.523 . S
H277 C252 0.950 . S
H278 C254 0.950 . S
H279 C255 0.949 . S
H280 C257 0.950 1_554 S
H281 C259 0.950 . S
C282 C283 1.349 . S
C282 C284 1.327 . S
C282 H307 0.950 . S
C283 C282 1.349 . S
C283 C299 1.349 . S
C284 C282 1.327 . S
C284 C303 1.429 . S
C284 H308 0.950 . S
C285 C302 1.574 . S
C285 C304 1.368 . S
C285 H309 0.949 . S
H286 C290 0.949 . S
C287 C288 1.349 . S
C287 C289 1.327 . S
C287 H310 0.950 . S
C288 C287 1.349 . S
C288 C300 1.349 . S
C289 C287 1.327 . S
C289 C305 1.429 . S
C289 H311 0.950 . S
C290 H286 0.949 . S
C290 C298 1.574 . S
C290 C306 1.368 . S
H291 C299 0.950 . S
H292 C297 0.950 . S
H293 C298 0.949 . S
H294 C300 0.950 . S
H295 C301 0.950 . S
H296 C302 0.949 . S
C297 H292 0.950 . S
C297 C299 1.327 . S
C297 C303 1.429 . S
C298 C290 1.574 . S
C298 H293 0.949 . S
C298 C304 1.368 . S
C299 C283 1.349 . S
C299 H291 0.950 . S
C299 C297 1.327 . S
C300 C288 1.349 . S
C300 H294 0.950 . S
C300 C301 1.327 . S
C301 H295 0.950 . S
C301 C300 1.327 . S
C301 C305 1.429 . S
C302 C285 1.574 . S
C302 H296 0.949 . S
C302 C306 1.368 . S
C303 C284 1.429 . S
C303 C297 1.429 . S
C303 C304 1.523 1_554 S
C304 C285 1.368 . S
C304 C298 1.368 . S
C304 C303 1.523 1_556 S
C305 C289 1.429 . S
C305 C301 1.429 . S
C305 C306 1.523 . S
C306 C290 1.368 . S
C306 C302 1.368 . S
C306 C305 1.523 . S
H307 C282 0.950 . S
H308 C284 0.950 . S
H309 C285 0.949 . S
H310 C287 0.950 . S
H311 C289 0.950 . S
C312 C313 1.349 . S
C312 C314 1.327 . S
C312 H337 0.950 . S
C313 C312 1.349 . S
C313 C329 1.349 . S
C314 C312 1.327 . S
C314 C333 1.429 . S
C314 H338 0.950 . S
C315 C332 1.574 1_545 S
C315 C334 1.368 . S
C315 H339 0.949 . S
H316 C320 0.949 . S
C317 C318 1.349 . S
C317 C319 1.327 . S
C317 H340 0.950 . S
C318 C317 1.349 . S
C318 C330 1.349 . S
C319 C317 1.327 . S
C319 C335 1.429 . S
C319 H341 0.950 . S
C320 H316 0.949 . S
C320 C328 1.574 1_565 S
C320 C336 1.368 . S
H321 C329 0.950 . S
H322 C327 0.950 . S
H323 C328 0.949 . S
H324 C330 0.950 . S
H325 C331 0.950 . S
H326 C332 0.949 . S
C327 H322 0.950 . S
C327 C329 1.327 . S
C327 C333 1.429 . S
C328 C320 1.574 1_545 S
C328 H323 0.949 . S
C328 C334 1.368 . S
C329 C313 1.349 . S
C329 H321 0.950 . S
C329 C327 1.327 . S
C330 C318 1.349 . S
C330 H324 0.950 . S
C330 C331 1.327 . S
C331 H325 0.950 . S
C331 C330 1.327 . S
C331 C335 1.429 . S
C332 C315 1.574 1_565 S
C332 H326 0.949 . S
C332 C336 1.368 . S
C333 C314 1.429 . S
C333 C327 1.429 . S
C333 C334 1.523 . S
C334 C315 1.368 . S
C334 C328 1.368 . S
C334 C333 1.523 . S
C335 C319 1.429 . S
C335 C331 1.429 . S
C335 C336 1.523 . S
C336 C320 1.368 . S
C336 C332 1.368 . S
C336 C335 1.523 . S
H337 C312 0.950 . S
H338 C314 0.950 . S
H339 C315 0.949 . S
H340 C317 0.950 . S
H341 C319 0.950 . S
C342 C343 1.349 . S
C342 C344 1.327 . S
C342 H367 0.950 . S
C343 C342 1.349 . S
C343 C359 1.349 . S
C344 C342 1.327 . S
C344 C363 1.429 . S
C344 H368 0.950 . S
C345 C362 1.574 . S
C345 C364 1.368 . S
C345 H369 0.949 . S
H346 C350 0.949 . S
C347 C348 1.349 . S
C347 C349 1.327 . S
C347 H370 0.950 . S
C348 C347 1.349 . S
C348 C360 1.349 . S
C349 C347 1.327 . S
C349 C365 1.429 . S
C349 H371 0.950 . S
C350 H346 0.949 . S
C350 C358 1.574 . S
C350 C366 1.368 . S
H351 C359 0.950 . S
H352 C357 0.950 . S
H353 C358 0.949 . S
H354 C360 0.950 . S
H355 C361 0.950 . S
H356 C362 0.949 . S
C357 H352 0.950 . S
C357 C359 1.327 . S
C357 C363 1.429 . S
C358 C350 1.574 . S
C358 H353 0.949 . S
C358 C364 1.368 . S
C359 C343 1.349 . S
C359 H351 0.950 . S
C359 C357 1.327 . S
C360 C348 1.349 . S
C360 H354 0.950 . S
C360 C361 1.327 . S
C361 H355 0.950 . S
C361 C360 1.327 . S
C361 C365 1.429 . S
C362 C345 1.574 . S
C362 H356 0.949 . S
C362 C366 1.368 . S
C363 C344 1.429 . S
C363 C357 1.429 . S
C363 C364 1.523 . S
C364 C345 1.368 . S
C364 C358 1.368 . S
C364 C363 1.523 . S
C365 C349 1.429 . S
C365 C361 1.429 . S
C365 C366 1.523 . S
C366 C350 1.368 . S
C366 C362 1.368 . S
C366 C365 1.523 . S
H367 C342 0.950 . S
H368 C344 0.950 . S
H369 C345 0.949 . S
H370 C347 0.950 . S
H371 C349 0.950 . S
C372 C373 1.349 . S
C372 C374 1.327 . S
C372 H397 0.950 . S
C373 C372 1.349 . S
C373 C389 1.349 . S
C374 C372 1.327 . S
C374 C393 1.429 . S
C374 H398 0.950 . S
C375 C392 1.574 1_655 S
C375 C394 1.368 . S
C375 H399 0.949 . S
H376 C380 0.949 . S
C377 C378 1.349 . S
C377 C379 1.327 . S
C377 H400 0.950 . S
C378 C377 1.349 . S
C378 C390 1.349 . S
C379 C377 1.327 . S
C379 C395 1.429 . S
C379 H401 0.950 . S
C380 H376 0.949 . S
C380 C388 1.574 1_455 S
C380 C396 1.368 . S
H381 C389 0.950 . S
H382 C387 0.950 . S
H383 C388 0.949 . S
H384 C390 0.950 . S
H385 C391 0.950 . S
H386 C392 0.949 . S
C387 H382 0.950 . S
C387 C389 1.327 . S
C387 C393 1.429 . S
C388 C380 1.574 1_655 S
C388 H383 0.949 . S
C388 C394 1.368 . S
C389 C373 1.349 . S
C389 H381 0.950 . S
C389 C387 1.327 . S
C390 C378 1.349 . S
C390 H384 0.950 . S
C390 C391 1.327 . S
C391 H385 0.950 . S
C391 C390 1.327 . S
C391 C395 1.429 . S
C392 C375 1.574 1_455 S
C392 H386 0.949 . S
C392 C396 1.368 . S
C393 C374 1.429 . S
C393 C387 1.429 . S
C393 C394 1.523 . S
C394 C375 1.368 . S
C394 C388 1.368 . S
C394 C393 1.523 . S
C395 C379 1.429 . S
C395 C391 1.429 . S
C395 C396 1.523 . S
C396 C380 1.368 . S
C396 C392 1.368 . S
C396 C395 1.523 . S
H397 C372 0.950 . S
H398 C374 0.950 . S
H399 C375 0.949 . S
H400 C377 0.950 . S
H401 C379 0.950 . S
C402 C403 1.349 . S
C402 C404 1.327 1_554 S
C402 H427 0.950 1_554 S
C403 C402 1.349 . S
C403 C419 1.349 . S
C404 C402 1.327 1_556 S
C404 C423 1.429 1_556 S
C404 H428 0.950 . S
C405 C422 1.574 1_565 S
C405 C424 1.368 . S
C405 H429 0.949 . S
H406 C410 0.949 . S
C407 C408 1.349 . S
C407 C409 1.327 1_556 S
C407 H430 0.950 1_556 S
C408 C407 1.349 . S
C408 C420 1.349 . S
C409 C407 1.327 1_554 S
C409 C425 1.429 1_554 S
C409 H431 0.950 . S
C410 H406 0.949 . S
C410 C418 1.574 1_545 S
C410 C426 1.368 . S
H411 C419 0.950 . S
H412 C417 0.950 . S
H413 C418 0.949 . S
H414 C420 0.950 . S
H415 C421 0.950 . S
H416 C422 0.949 . S
C417 H412 0.950 . S
C417 C419 1.327 . S
C417 C423 1.429 . S
C418 C410 1.574 1_565 S
C418 H413 0.949 . S
C418 C424 1.368 1_556 S
C419 C403 1.349 . S
C419 H411 0.950 . S
C419 C417 1.327 . S
C420 C408 1.349 . S
C420 H414 0.950 . S
C420 C421 1.327 . S
C421 H415 0.950 . S
C421 C420 1.327 . S
C421 C425 1.429 . S
C422 C405 1.574 1_545 S
C422 H416 0.949 . S
C422 C426 1.368 1_554 S
C423 C404 1.429 1_554 S
C423 C417 1.429 . S
C423 C424 1.523 . S
C424 C405 1.368 . S
C424 C418 1.368 1_554 S
C424 C423 1.523 . S
C425 C409 1.429 1_556 S
C425 C421 1.429 . S
C425 C426 1.523 . S
C426 C410 1.368 . S
C426 C422 1.368 1_556 S
C426 C425 1.523 . S
H427 C402 0.950 1_556 S
H428 C404 0.950 . S
H429 C405 0.949 . S
H430 C407 0.950 1_554 S
H431 C409 0.950 . S
C432 C433 1.349 . S
C432 C434 1.327 . S
C432 H457 0.950 . S
C433 C432 1.349 . S
C433 C449 1.349 . S
C434 C432 1.327 . S
C434 C453 1.429 . S
C434 H458 0.950 . S
C435 C452 1.574 . S
C435 C454 1.368 . S
C435 H459 0.949 . S
H436 C440 0.949 . S
C437 C438 1.349 . S
C437 C439 1.327 . S
C437 H460 0.950 . S
C438 C437 1.349 . S
C438 C450 1.349 . S
C439 C437 1.327 . S
C439 C455 1.429 . S
C439 H461 0.950 . S
C440 H436 0.949 . S
C440 C448 1.574 . S
C440 C456 1.368 . S
H441 C449 0.950 . S
H442 C447 0.950 . S
H443 C448 0.949 . S
H444 C450 0.950 . S
H445 C451 0.950 . S
H446 C452 0.949 . S
C447 H442 0.950 . S
C447 C449 1.327 . S
C447 C453 1.429 . S
C448 C440 1.574 . S
C448 H443 0.949 . S
C448 C454 1.368 . S
C449 C433 1.349 . S
C449 H441 0.950 . S
C449 C447 1.327 . S
C450 C438 1.349 . S
C450 H444 0.950 . S
C450 C451 1.327 . S
C451 H445 0.950 . S
C451 C450 1.327 . S
C451 C455 1.429 . S
C452 C435 1.574 . S
C452 H446 0.949 . S
C452 C456 1.368 . S
C453 C434 1.429 . S
C453 C447 1.429 . S
C453 C454 1.523 . S
C454 C435 1.368 . S
C454 C448 1.368 . S
C454 C453 1.523 . S
C455 C439 1.429 . S
C455 C451 1.429 . S
C455 C456 1.523 . S
C456 C440 1.368 . S
C456 C452 1.368 . S
C456 C455 1.523 . S
H457 C432 0.950 . S
H458 C434 0.950 . S
H459 C435 0.949 . S
H460 C437 0.950 . S
H461 C439 0.950 . S
C462 C463 1.349 . S
C462 C464 1.327 . S
C462 H487 0.950 . S
C463 C462 1.349 . S
C463 C479 1.349 . S
C464 C462 1.327 . S
C464 C483 1.429 . S
C464 H488 0.950 . S
C465 C482 1.574 1_655 S
C465 C484 1.368 . S
C465 H489 0.949 . S
H466 C470 0.949 . S
C467 C468 1.349 . S
C467 C469 1.327 . S
C467 H490 0.950 . S
C468 C467 1.349 . S
C468 C480 1.349 . S
C469 C467 1.327 . S
C469 C485 1.429 . S
C469 H491 0.950 . S
C470 H466 0.949 . S
C470 C478 1.574 1_455 S
C470 C486 1.368 . S
H471 C479 0.950 . S
H472 C477 0.950 . S
H473 C478 0.949 . S
H474 C480 0.950 . S
H475 C481 0.950 . S
H476 C482 0.949 . S
C477 H472 0.950 . S
C477 C479 1.327 . S
C477 C483 1.429 . S
C478 C470 1.574 1_655 S
C478 H473 0.949 . S
C478 C484 1.368 . S
C479 C463 1.349 . S
C479 H471 0.950 . S
C479 C477 1.327 . S
C480 C468 1.349 . S
C480 H474 0.950 . S
C480 C481 1.327 . S
C481 H475 0.950 . S
C481 C480 1.327 . S
C481 C485 1.429 . S
C482 C465 1.574 1_455 S
C482 H476 0.949 . S
C482 C486 1.368 . S
C483 C464 1.429 . S
C483 C477 1.429 . S
C483 C484 1.523 . S
C484 C465 1.368 . S
C484 C478 1.368 . S
C484 C483 1.523 . S
C485 C469 1.429 . S
C485 C481 1.429 . S
C485 C486 1.523 . S
C486 C470 1.368 . S
C486 C482 1.368 . S
C486 C485 1.523 . S
H487 C462 0.950 . S
H488 C464 0.950 . S
H489 C465 0.949 . S
H490 C467 0.950 . S
H491 C469 0.950 . S
C492 C493 1.349 . S
C492 C494 1.327 . S
C492 H517 0.950 . S
C493 C492 1.349 . S
C493 C509 1.349 . S
C494 C492 1.327 . S
C494 C513 1.429 . S
C494 H518 0.950 . S
C495 C512 1.574 . S
C495 C514 1.368 . S
C495 H519 0.949 . S
H496 C500 0.949 . S
C497 C498 1.349 . S
C497 C499 1.327 . S
C497 H520 0.950 . S
C498 C497 1.349 . S
C498 C510 1.349 . S
C499 C497 1.327 . S
C499 C515 1.429 . S
C499 H521 0.950 . S
C500 H496 0.949 . S
C500 C508 1.574 . S
C500 C516 1.368 . S
H501 C509 0.950 . S
H502 C507 0.950 . S
H503 C508 0.949 . S
H504 C510 0.950 . S
H505 C511 0.950 . S
H506 C512 0.949 . S
C507 H502 0.950 . S
C507 C509 1.327 . S
C507 C513 1.429 . S
C508 C500 1.574 . S
C508 H503 0.949 . S
C508 C514 1.368 . S
C509 C493 1.349 . S
C509 H501 0.950 . S
C509 C507 1.327 . S
C510 C498 1.349 . S
C510 H504 0.950 . S
C510 C511 1.327 . S
C511 H505 0.950 . S
C511 C510 1.327 . S
C511 C515 1.429 . S
C512 C495 1.574 . S
C512 H506 0.949 . S
C512 C516 1.368 . S
C513 C494 1.429 . S
C513 C507 1.429 . S
C513 C514 1.523 . S
C514 C495 1.368 . S
C514 C508 1.368 . S
C514 C513 1.523 . S
C515 C499 1.429 . S
C515 C511 1.429 . S
C515 C516 1.523 . S
C516 C500 1.368 . S
C516 C512 1.368 . S
C516 C515 1.523 . S
H517 C492 0.950 . S
H518 C494 0.950 . S
H519 C495 0.949 . S
H520 C497 0.950 . S
H521 C499 0.950 . S
C522 C523 1.349 . S
C522 C524 1.327 . S
C522 H547 0.950 . S
C523 C522 1.349 . S
C523 C539 1.349 . S
C524 C522 1.327 . S
C524 C543 1.429 . S
C524 H548 0.950 . S
C525 C542 1.574 . S
C525 C544 1.368 . S
C525 H549 0.949 . S
H526 C530 0.949 . S
C527 C528 1.349 . S
C527 C529 1.327 . S
C527 H550 0.950 . S
C528 C527 1.349 . S
C528 C540 1.349 . S
C529 C527 1.327 . S
C529 C545 1.429 . S
C529 H551 0.950 . S
C530 H526 0.949 . S
C530 C538 1.574 . S
C530 C546 1.368 . S
H531 C539 0.950 . S
H532 C537 0.950 . S
H533 C538 0.949 . S
H534 C540 0.950 . S
H535 C541 0.950 . S
H536 C542 0.949 . S
C537 H532 0.950 . S
C537 C539 1.327 . S
C537 C543 1.429 . S
C538 C530 1.574 . S
C538 H533 0.949 . S
C538 C544 1.368 . S
C539 C523 1.349 . S
C539 H531 0.950 . S
C539 C537 1.327 . S
C540 C528 1.349 . S
C540 H534 0.950 . S
C540 C541 1.327 . S
C541 H535 0.950 . S
C541 C540 1.327 . S
C541 C545 1.429 . S
C542 C525 1.574 . S
C542 H536 0.949 . S
C542 C546 1.368 . S
C543 C524 1.429 . S
C543 C537 1.429 . S
C543 C544 1.523 . S
C544 C525 1.368 . S
C544 C538 1.368 . S
C544 C543 1.523 . S
C545 C529 1.429 . S
C545 C541 1.429 . S
C545 C546 1.523 . S
C546 C530 1.368 . S
C546 C542 1.368 . S
C546 C545 1.523 . S
H547 C522 0.950 . S
H548 C524 0.950 . S
H549 C525 0.949 . S
H550 C527 0.950 . S
H551 C529 0.950 . S
C552 C553 1.349 . S
C552 C554 1.327 . S
C552 H577 0.950 . S
C553 C552 1.349 . S
C553 C569 1.349 . S
C554 C552 1.327 . S
C554 C573 1.429 . S
C554 H578 0.950 . S
C555 C572 1.574 . S
C555 C574 1.368 . S
C555 H579 0.949 . S
H556 C560 0.949 . S
C557 C558 1.349 . S
C557 C559 1.327 . S
C557 H580 0.950 . S
C558 C557 1.349 . S
C558 C570 1.349 . S
C559 C557 1.327 . S
C559 C575 1.429 . S
C559 H581 0.950 . S
C560 H556 0.949 . S
C560 C568 1.574 . S
C560 C576 1.368 . S
H561 C569 0.950 . S
H562 C567 0.950 . S
H563 C568 0.949 . S
H564 C570 0.950 . S
H565 C571 0.950 . S
H566 C572 0.949 . S
C567 H562 0.950 . S
C567 C569 1.327 . S
C567 C573 1.429 . S
C568 C560 1.574 . S
C568 H563 0.949 . S
C568 C574 1.368 . S
C569 C553 1.349 . S
C569 H561 0.950 . S
C569 C567 1.327 . S
C570 C558 1.349 . S
C570 H564 0.950 . S
C570 C571 1.327 . S
C571 H565 0.950 . S
C571 C570 1.327 . S
C571 C575 1.429 . S
C572 C555 1.574 . S
C572 H566 0.949 . S
C572 C576 1.368 . S
C573 C554 1.429 . S
C573 C567 1.429 . S
C573 C574 1.523 . S
C574 C555 1.368 . S
C574 C568 1.368 . S
C574 C573 1.523 . S
C575 C559 1.429 . S
C575 C571 1.429 . S
C575 C576 1.523 . S
C576 C560 1.368 . S
C576 C572 1.368 . S
C576 C575 1.523 . S
H577 C552 0.950 . S
H578 C554 0.950 . S
H579 C555 0.949 . S
H580 C557 0.950 . S
H581 C559 0.950 . S
C582 C583 1.349 1_554 S
C582 C584 1.327 . S
C582 H607 0.950 . S
C583 C582 1.349 1_556 S
C583 C599 1.349 . S
C584 C582 1.327 . S
C584 C603 1.429 1_554 S
C584 H608 0.950 . S
C585 C602 1.574 . S
C585 C604 1.368 . S
C585 H609 0.949 . S
H586 C590 0.949 . S
C587 C588 1.349 . S
C587 C589 1.327 . S
C587 H610 0.950 . S
C588 C587 1.349 . S
C588 C600 1.349 . S
C589 C587 1.327 . S
C589 C605 1.429 . S
C589 H611 0.950 . S
C590 H586 0.949 . S
C590 C598 1.574 . S
C590 C606 1.368 . S
H591 C599 0.950 . S
H592 C597 0.950 . S
H593 C598 0.949 1_554 S
H594 C600 0.950 . S
H595 C601 0.950 . S
H596 C602 0.949 . S
C597 H592 0.950 . S
C597 C599 1.327 . S
C597 C603 1.429 . S
C598 C590 1.574 . S
C598 H593 0.949 1_556 S
C598 C604 1.368 . S
C599 C583 1.349 . S
C599 H591 0.950 . S
C599 C597 1.327 . S
C600 C588 1.349 . S
C600 H594 0.950 . S
C600 C601 1.327 . S
C601 H595 0.950 . S
C601 C600 1.327 . S
C601 C605 1.429 . S
C602 C585 1.574 . S
C602 H596 0.949 . S
C602 C606 1.368 . S
C603 C584 1.429 1_556 S
C603 C597 1.429 . S
C603 C604 1.523 . S
C604 C585 1.368 . S
C604 C598 1.368 . S
C604 C603 1.523 . S
C605 C589 1.429 . S
C605 C601 1.429 . S
C605 C606 1.523 . S
C606 C590 1.368 . S
C606 C602 1.368 . S
C606 C605 1.523 . S
H607 C582 0.950 . S
H608 C584 0.950 . S
H609 C585 0.949 . S
H610 C587 0.950 . S
H611 C589 0.950 . S
C612 C613 1.349 . S
C612 C614 1.327 . S
C612 H637 0.950 . S
C613 C612 1.349 . S
C613 C629 1.349 . S
C614 C612 1.327 . S
C614 C633 1.429 . S
C614 H638 0.950 . S
C615 C632 1.574 . S
C615 C634 1.368 . S
C615 H639 0.949 . S
H616 C620 0.949 . S
C617 C618 1.349 1_556 S
C617 C619 1.327 . S
C617 H640 0.950 . S
C618 C617 1.349 1_554 S
C618 C630 1.349 . S
C619 C617 1.327 . S
C619 C635 1.429 1_556 S
C619 H641 0.950 . S
C620 H616 0.949 . S
C620 C628 1.574 . S
C620 C636 1.368 . S
H621 C629 0.950 . S
H622 C627 0.950 . S
H623 C628 0.949 . S
H624 C630 0.950 . S
H625 C631 0.950 . S
H626 C632 0.940 1_556 S
C627 H622 0.950 . S
C627 C629 1.327 . S
C627 C633 1.429 . S
C628 C620 1.574 . S
C628 H623 0.949 . S
C628 C634 1.368 . S
C629 C613 1.349 . S
C629 H621 0.950 . S
C629 C627 1.327 . S
C630 C618 1.349 . S
C630 H624 0.950 . S
C630 C631 1.327 . S
C631 H625 0.950 . S
C631 C630 1.327 . S
C631 C635 1.429 . S
C632 C615 1.574 . S
C632 H626 0.940 1_554 S
C632 C636 1.368 . S
C633 C614 1.429 . S
C633 C627 1.429 . S
C633 C634 1.523 . S
C634 C615 1.368 . S
C634 C628 1.368 . S
C634 C633 1.523 . S
C635 C619 1.429 1_554 S
C635 C631 1.429 . S
C635 C636 1.523 . S
C636 C620 1.368 . S
C636 C632 1.368 . S
C636 C635 1.523 . S
H637 C612 0.950 . S
H638 C614 0.950 . S
H639 C615 0.949 . S
H640 C617 0.950 . S
H641 C619 0.950 . S
C642 C643 1.349 . S
C642 C644 1.327 . S
C642 H667 0.950 . S
C643 C642 1.349 . S
C643 C659 1.349 . S
C644 C642 1.327 . S
C644 C663 1.429 . S
C644 H668 0.950 . S
C645 C662 1.574 . S
C645 C664 1.368 . S
C645 H669 0.949 . S
H646 C650 0.949 . S
C647 C648 1.349 . S
C647 C649 1.327 . S
C647 H670 0.950 . S
C648 C647 1.349 . S
C648 C660 1.349 . S
C649 C647 1.327 . S
C649 C665 1.429 . S
C649 H671 0.950 . S
C650 H646 0.949 . S
C650 C658 1.574 . S
C650 C666 1.368 . S
H651 C659 0.950 . S
H652 C657 0.950 . S
H653 C658 0.949 . S
H654 C660 0.950 . S
H655 C661 0.950 . S
H656 C662 0.949 . S
C657 H652 0.950 . S
C657 C659 1.327 . S
C657 C663 1.429 . S
C658 C650 1.574 . S
C658 H653 0.949 . S
C658 C664 1.368 . S
C659 C643 1.349 . S
C659 H651 0.950 . S
C659 C657 1.327 . S
C660 C648 1.349 . S
C660 H654 0.950 . S
C660 C661 1.327 . S
C661 H655 0.950 . S
C661 C660 1.327 . S
C661 C665 1.429 . S
C662 C645 1.574 . S
C662 H656 0.949 . S
C662 C666 1.368 . S
C663 C644 1.429 . S
C663 C657 1.429 . S
C663 C664 1.523 . S
C664 C645 1.368 . S
C664 C658 1.368 . S
C664 C663 1.523 . S
C665 C649 1.429 . S
C665 C661 1.429 . S
C665 C666 1.523 . S
C666 C650 1.368 . S
C666 C662 1.368 . S
C666 C665 1.523 . S
H667 C642 0.950 . S
H668 C644 0.950 . S
H669 C645 0.949 . S
H670 C647 0.950 . S
H671 C649 0.950 . S
C133 C7 1.409 . S
C138 C6 1.409 . S
C163 C29 1.409 . S
C168 C28 1.409 . S
C193 C50 1.409 . S
C198 C51 1.409 . S
C223 C72 1.409 . S
C228 C73 1.409 . S
C253 C94 1.409 . S
C258 C95 1.409 . S
C283 C117 1.409 . S
C288 C116 1.409 . S
C313 C5 1.693 . S
C318 C119 1.693 . S
C343 C9 1.693 . S
C348 C27 1.693 . S
C373 C49 1.693 . S
C378 C31 1.693 . S
C403 C71 1.693 . S
C408 C53 1.693 . S
C433 C93 1.693 . S
C438 C75 1.693 . S
C463 C97 1.693 . S
C468 C115 1.693 . S
C493 C8 1.190 . S
C498 C92 1.190 . S
C523 C30 1.190 . S
C528 C114 1.190 . S
C553 C52 1.190 . S
C558 C4 1.190 . S
C583 C74 1.190 1_556 S
C588 C26 1.190 . S
C613 C96 1.190 . S
C618 C48 1.190 1_554 S
C643 C70 1.190 . S
C648 C118 1.190 . S
