# Generated by pormake.
# Topology wji, (4)-cn, num edge types: 1
# Building blocks:
#     Node 0, Type 0, BuildingBlock: ICAMEG_clean_sbu_1, # of connection points: 4
#     Node 1, Type 0, BuildingBlock: ICAMEG_clean_sbu_1, # of connection points: 4
#     Node 2, Type 0, BuildingBlock: ICAMEG_clean_sbu_1, # of connection points: 4
#     Node 3, Type 0, BuildingBlock: ICAMEG_clean_sbu_1, # of connection points: 4
#     Node 4, Type 0, BuildingBlock: ICAMEG_clean_sbu_1, # of connection points: 4
#     Node 5, Type 0, BuildingBlock: ICAMEG_clean_sbu_1, # of connection points: 4
#     Node 6, Type 0, BuildingBlock: ICAMEG_clean_sbu_1, # of connection points: 4
#     Node 7, Type 0, BuildingBlock: ICAMEG_clean_sbu_1, # of connection points: 4
#     Node 8, Type 0, BuildingBlock: ICAMEG_clean_sbu_1, # of connection points: 4
#     Node 9, Type 0, BuildingBlock: ICAMEG_clean_sbu_1, # of connection points: 4
#     Node 10, Type 0, BuildingBlock: ICAMEG_clean_sbu_1, # of connection points: 4
#     Node 11, Type 0, BuildingBlock: ICAMEG_clean_sbu_1, # of connection points: 4
#     Edge 12, Type (0, 0), None
#     Edge 13, Type (0, 0), None
#     Edge 14, Type (0, 0), None
#     Edge 15, Type (0, 0), None
#     Edge 16, Type (0, 0), None
#     Edge 17, Type (0, 0), None
#     Edge 18, Type (0, 0), None
#     Edge 19, Type (0, 0), None
#     Edge 20, Type (0, 0), None
#     Edge 21, Type (0, 0), None
#     Edge 22, Type (0, 0), None
#     Edge 23, Type (0, 0), None
#     Edge 24, Type (0, 0), None
#     Edge 25, Type (0, 0), None
#     Edge 26, Type (0, 0), None
#     Edge 27, Type (0, 0), None
#     Edge 28, Type (0, 0), None
#     Edge 29, Type (0, 0), None
#     Edge 30, Type (0, 0), None
#     Edge 31, Type (0, 0), None
#     Edge 32, Type (0, 0), None
#     Edge 33, Type (0, 0), None
#     Edge 34, Type (0, 0), None
#     Edge 35, Type (0, 0), None
# Relax obj value: 0.345
# Max RMSD: 0.210
# Mean RMSD: 0.209
data_MOF--net-wji--node1-ICAMEG_clean_sbu_1--edge1-none
_symmetry_space_group_name_H-M    P1
_symmetry_Int_Tables_number       1
_symmetry_cell_setting            triclinic
loop_
_symmetry_equiv_pos_as_xyz
'x, y, z'
_cell_length_a     30.390825
_cell_length_b     30.391677
_cell_length_c     12.039068
_cell_angle_alpha  90.000466
_cell_angle_beta   89.994818
_cell_angle_gamma 119.99944
loop_
_atom_site_label
_atom_site_type_symbol
_atom_site_fract_x
_atom_site_fract_y
_atom_site_fract_z
_atom_type_partial_charge
Co0 Co 0.42348 0.37845 0.42188 0.0
Co1 Co 0.44234 0.29668 0.28958 0.0
O2 O 0.40447 0.3096 0.3991 0.0
C3 C 0.32176 0.32418 0.55982 0.0
O4 O 0.30021 0.28121 0.50421 0.0
C5 C 0.47905 0.25559 0.51487 0.0
O6 O 0.52506 0.29453 0.50325 0.0
O7 O 0.51971 0.35894 0.34436 0.0
O8 O 0.49153 0.40814 0.34278 0.0
H9 H 0.56666 0.3719 0.94717 0.0
H10 H 0.37884 0.29346 0.58743 0.0
O11 O 0.36175 0.36254 0.52073 0.0
H12 H 0.55646 0.36624 0.68517 0.0
H13 H 0.44762 0.55549 0.58739 0.0
H14 H 0.4759 0.45485 0.22851 0.0
H15 H 0.53332 0.40674 0.5547 0.0
H16 H 0.39442 0.45499 0.53867 0.0
O17 O 0.44876 0.24776 0.4263 0.0
H18 H 0.49723 0.35419 0.10644 0.0
H19 H 0.45536 0.19642 0.20895 0.0
H20 H 0.51875 0.60476 0.25463 0.0
H21 H 0.40106 0.25683 0.73492 0.0
H22 H 0.49289 0.62457 0.429 0.0
H23 H 0.49319 0.29186 0.77905 0.0
O24 O 0.38483 0.37975 0.28551 0.0
H25 H 0.2698 0.14496 0.35913 0.0
H26 H 0.38686 0.26262 0.07637 0.0
H27 H 0.29852 0.20191 0.02492 0.0
H28 H 0.23929 0.14194 0.16639 0.0
H29 H 0.35694 0.20969 0.40978 0.0
H30 H 0.56649 0.2185 -0.02149 0.0
H31 H 0.60062 0.31092 0.88224 0.0
O32 O 0.41864 0.34465 0.17473 0.0
C33 C 0.53072 0.40559 0.36292 0.0
C34 C 0.549 0.33596 -0.01343 0.0
C35 C 0.55208 0.24274 0.00824 0.0
N36 N 0.47511 0.27776 0.16297 0.0
C37 C 0.50377 0.32431 0.0853 0.0
C38 C 0.4803 0.22867 0.15698 0.0
C39 C 0.57274 0.29911 0.94789 0.0
C40 C 0.4172 0.31512 0.61278 0.0
N41 N 0.45232 0.3592 0.55784 0.0
C42 C 0.43013 0.29111 0.69539 0.0
C43 C 0.48075 0.31012 0.72166 0.0
C44 C 0.51698 0.35138 0.66494 0.0
C45 C 0.50232 0.37362 0.58239 0.0
C46 C 0.44595 0.54056 0.50804 0.0
C47 C 0.46937 0.47578 0.29387 0.0
C48 C 0.43036 0.47877 0.50201 0.0
N49 N 0.44364 0.45086 0.41021 0.0
C50 C 0.4901 0.57243 0.29568 0.0
C51 C 0.47325 0.58494 0.41231 0.0
C52 C 0.39034 0.36858 0.18636 0.0
C53 C 0.29525 0.17069 0.2966 0.0
C54 C 0.36137 0.23699 0.13877 0.0
C55 C 0.31135 0.20253 0.10902 0.0
C56 C 0.27812 0.16911 0.18857 0.0
N57 N 0.37722 0.24 0.24606 0.0
C58 C 0.34507 0.20694 0.32433 0.0
Co59 Co 0.03766 0.42719 0.58849 0.0
Co60 Co 0.13827 0.44605 0.45618 0.0
O61 O 0.08749 0.40818 0.56571 0.0
C62 C -0.00976 0.32548 0.7264 0.0
O63 O 0.01167 0.30394 0.67076 0.0
C64 C 0.21607 0.48275 0.68147 0.0
O65 O 0.22316 0.52876 0.66985 0.0
O66 O 0.15337 0.52341 0.51099 0.0
O67 O 0.076 0.49523 0.50939 0.0
H68 H 0.18739 0.57038 0.1138 0.0
H69 H 0.07803 0.38257 0.75403 0.0
O70 O -0.00815 0.36546 0.68734 0.0
H71 H 0.18284 0.56018 0.85176 0.0
H72 H 0.88469 0.45124 0.75401 0.0
H73 H 0.01366 0.4796 0.39513 0.0
H74 H 0.1192 0.53704 0.72131 0.0
H75 H 0.93206 0.39811 0.70528 0.0
O76 O 0.19361 0.45246 0.59289 0.0
H77 H 0.13566 0.50096 0.27307 0.0
H78 H 0.25153 0.45904 0.37553 0.0
H79 H 0.90655 0.52239 0.42124 0.0
H80 H 0.13687 0.4048 0.90153 0.0
H81 H 0.86088 0.49652 0.5956 0.0
H82 H 0.19397 0.49693 0.94565 0.0
O83 O -0.0023 0.38853 0.45213 0.0
H84 H 0.11741 0.27349 0.52563 0.0
H85 H 0.11686 0.39059 0.24294 0.0
H86 H 0.08918 0.30225 0.19146 0.0
H87 H 0.0899 0.24299 0.33289 0.0
H88 H 0.13987 0.36064 0.57632 0.0
H89 H 0.34059 0.57014 0.14509 0.0
H90 H 0.28232 0.60431 0.04885 0.0
O91 O 0.06661 0.42235 0.34135 0.0
C92 C 0.11773 0.53443 0.52953 0.0
C93 C 0.20566 0.55271 0.15318 0.0
C94 C 0.30194 0.55575 0.17483 0.0
N95 N 0.18995 0.47882 0.32958 0.0
C96 C 0.17206 0.50748 0.25192 0.0
C97 C 0.24422 0.48398 0.32358 0.0
C98 C 0.26625 0.57643 0.1145 0.0
C99 C 0.09472 0.42093 0.77938 0.0
N100 N 0.08575 0.45604 0.72445 0.0
C101 C 0.13165 0.43386 0.862 0.0
C102 C 0.16327 0.48449 0.88826 0.0
C103 C 0.15823 0.5207 0.83154 0.0
C104 C 0.12133 0.50604 0.74899 0.0
C105 C 0.89798 0.44961 0.67466 0.0
C106 C 0.98619 0.47306 0.46048 0.0
C107 C 0.9442 0.43405 0.66863 0.0
N108 N 0.98539 0.44733 0.57682 0.0
C109 C 0.91025 0.49376 0.46231 0.0
C110 C 0.88089 0.47689 0.57893 0.0
C111 C 0.01438 0.39404 0.35297 0.0
C112 C 0.11715 0.29895 0.46311 0.0
C113 C 0.11698 0.36509 0.30533 0.0
C114 C 0.1014 0.31506 0.27556 0.0
C115 C 0.10157 0.28182 0.35509 0.0
N116 N 0.12983 0.38093 0.41263 0.0
C117 C 0.13074 0.34877 0.49087 0.0
Co118 Co 0.60311 0.04129 0.75525 0.0
Co119 Co 0.68487 0.1419 0.62291 0.0
O120 O 0.67196 0.09113 0.73245 0.0
C121 C 0.6574 -0.00614 0.89317 0.0
O122 O 0.70037 0.01529 0.83756 0.0
C123 C 0.72597 0.2197 0.84818 0.0
O124 O 0.68703 0.22677 0.83658 0.0
O125 O 0.62261 0.15701 0.67771 0.0
O126 O 0.57341 0.07964 0.67617 0.0
H127 H 0.60965 0.19101 0.28058 0.0
H128 H 0.68811 0.08166 0.92077 0.0
O129 O 0.61903 -0.00452 0.85409 0.0
H130 H 0.6153 0.18647 0.01852 0.0
H131 H 0.42606 0.88836 0.92078 0.0
H132 H 0.52672 0.0173 0.56188 0.0
H133 H 0.57481 0.12283 0.88807 0.0
H134 H 0.52657 0.93569 0.87203 0.0
O135 O 0.7338 0.19724 0.7596 0.0
H136 H 0.62736 0.13929 0.43981 0.0
H137 H 0.78515 0.25516 0.5422 0.0
H138 H 0.3768 0.91024 0.588 0.0
H139 H 0.72472 0.14052 0.06825 0.0
H140 H 0.35699 0.86458 0.76237 0.0
H141 H 0.68969 0.19761 0.11238 0.0
O142 O 0.60182 0.00134 0.61888 0.0
H143 H 0.83661 0.1211 0.6924 0.0
H144 H 0.71894 0.12048 0.40968 0.0
H145 H 0.77966 0.09287 0.3582 0.0
H146 H 0.83964 0.09362 0.49964 0.0
H147 H 0.77187 0.1435 0.74308 0.0
H148 H 0.76308 0.34422 0.31182 0.0
H149 H 0.67063 0.28594 0.21562 0.0
O150 O 0.63691 0.07024 0.50808 0.0
C151 C 0.57596 0.12138 0.69629 0.0
C152 C 0.64559 0.20928 0.31994 0.0
C153 C 0.73882 0.30556 0.34157 0.0
N154 N 0.70379 0.19358 0.49629 0.0
C155 C 0.65724 0.17569 0.41865 0.0
C156 C 0.75289 0.24785 0.49028 0.0
C157 C 0.68244 0.26987 0.28126 0.0
C158 C 0.66644 0.09836 0.94613 0.0
N159 N 0.62236 0.08939 0.8912 0.0
C160 C 0.69045 0.1353 0.02873 0.0
C161 C 0.67143 0.16691 0.055 0.0
C162 C 0.63017 0.16186 -0.0017 0.0
C163 C 0.60793 0.12496 0.91575 0.0
C164 C 0.441 0.90165 0.84143 0.0
C165 C 0.50578 0.98983 0.62723 0.0
C166 C 0.50278 0.94785 0.83538 0.0
N167 N 0.5307 0.98902 0.74357 0.0
C168 C 0.40913 0.91392 0.62907 0.0
C169 C 0.39662 0.88457 0.7457 0.0
C170 C 0.61298 0.01801 0.51972 0.0
C171 C 0.81088 0.12082 0.62987 0.0
C172 C 0.74457 0.12062 0.47208 0.0
C173 C 0.77904 0.10507 0.44231 0.0
C174 C 0.81246 0.10527 0.52184 0.0
N175 N 0.74156 0.13346 0.57937 0.0
C176 C 0.77462 0.13437 0.65763 0.0
Co177 Co 0.55438 0.60672 0.92188 0.0
Co178 Co 0.53554 0.68848 0.78959 0.0
O179 O 0.5734 0.67556 0.89911 0.0
C180 C 0.6561 0.66099 0.05979 0.0
O181 O 0.67765 0.70395 0.00416 0.0
C182 C 0.49885 0.72959 0.0149 0.0
O183 O 0.45283 0.69066 0.0033 0.0
O184 O 0.45817 0.62623 0.8444 0.0
O185 O 0.48634 0.57703 0.8428 0.0
H186 H 0.4112 0.61328 0.44727 0.0
H187 H 0.59902 0.6917 0.08742 0.0
O188 O 0.61611 0.62262 0.02072 0.0
H189 H 0.4214 0.61892 0.18521 0.0
H190 H 0.53025 0.42967 0.08738 0.0
H191 H 0.50197 0.53032 0.72851 0.0
H192 H 0.44454 0.57843 0.05472 0.0
H193 H 0.58343 0.53016 0.03865 0.0
O194 O 0.52913 0.73741 0.92631 0.0
H195 H 0.48063 0.63097 0.60649 0.0
H196 H 0.52256 0.78876 0.70894 0.0
H197 H 0.45911 0.38041 0.75462 0.0
H198 H 0.57679 0.72832 0.23493 0.0
H199 H 0.48496 0.36059 0.92899 0.0
H200 H 0.48466 0.6933 0.27908 0.0
O201 O 0.59304 0.60542 0.78551 0.0
H202 H 0.70809 0.84019 0.85908 0.0
H203 H 0.59103 0.72254 0.57636 0.0
H204 H 0.67937 0.78324 0.52487 0.0
H205 H 0.7386 0.84321 0.66632 0.0
H206 H 0.62095 0.77547 0.90976 0.0
H207 H 0.41144 0.76671 0.47858 0.0
H208 H 0.37727 0.67428 0.38234 0.0
O209 O 0.55923 0.64051 0.67474 0.0
C210 C 0.44715 0.57958 0.86294 0.0
C211 C 0.42887 0.64922 0.48664 0.0
C212 C 0.42584 0.74246 0.50832 0.0
N213 N 0.50278 0.70741 0.663 0.0
C214 C 0.47411 0.66085 0.58535 0.0
C215 C 0.49761 0.75651 0.65701 0.0
C216 C 0.40515 0.68608 0.44798 0.0
C217 C 0.56066 0.67004 0.11279 0.0
N218 N 0.52554 0.62596 0.05785 0.0
C219 C 0.54773 0.69405 0.19541 0.0
C220 C 0.4971 0.67505 0.22168 0.0
C221 C 0.46088 0.63379 0.16497 0.0
C222 C 0.47554 0.61155 0.08241 0.0
C223 C 0.5319 0.4446 0.00803 0.0
C224 C 0.5085 0.50938 0.79386 0.0
C225 C 0.54749 0.50638 0.002 0.0
N226 N 0.53423 0.5343 0.91019 0.0
C227 C 0.48775 0.41273 0.79568 0.0
C228 C 0.5046 0.40022 0.91231 0.0
C229 C 0.58753 0.61658 0.68636 0.0
C230 C 0.68264 0.81447 0.79655 0.0
C231 C 0.61652 0.74817 0.63876 0.0
C232 C 0.66654 0.78263 0.60898 0.0
C233 C 0.69977 0.81604 0.68852 0.0
N234 N 0.60067 0.74516 0.74605 0.0
C235 C 0.63282 0.77822 0.82431 0.0
Co236 Co 0.94022 0.55802 0.0885 0.0
Co237 Co 0.83961 0.53915 0.95618 0.0
O238 O 0.89038 0.57702 0.06572 0.0
C239 C 0.98763 0.65973 0.22643 0.0
O240 O 0.9662 0.68127 0.17082 0.0
C241 C 0.76181 0.50244 0.18148 0.0
O242 O 0.75474 0.45644 0.16988 0.0
O243 O 0.82451 0.46179 0.01099 0.0
O244 O 0.90189 0.48998 0.00941 0.0
H245 H 0.7905 0.41481 0.61385 0.0
H246 H 0.89984 0.60263 0.25404 0.0
O247 O 0.98602 0.61975 0.18735 0.0
H248 H 0.79506 0.42501 0.3518 0.0
H249 H 0.09318 0.53396 0.25398 0.0
H250 H 0.96424 0.50563 0.89513 0.0
H251 H 0.8587 0.44817 0.22134 0.0
H252 H 0.04584 0.58711 0.20526 0.0
O253 O 0.78426 0.53273 0.09289 0.0
H254 H 0.84222 0.48425 0.77309 0.0
H255 H 0.72635 0.52616 0.87552 0.0
H256 H 0.07133 0.46282 0.92123 0.0
H257 H 0.84098 0.58038 0.40155 0.0
H258 H 0.117 0.4887 0.09559 0.0
H259 H 0.78389 0.48824 0.44566 0.0
O260 O 0.98018 0.59669 0.95214 0.0
H261 H 0.86045 0.7117 0.02563 0.0
H262 H 0.86103 0.59462 0.74295 0.0
H263 H 0.8887 0.68296 0.69145 0.0
H264 H 0.88798 0.74221 0.83288 0.0
H265 H 0.838 0.62455 0.07633 0.0
H266 H 0.63729 0.41503 0.64516 0.0
H267 H 0.69557 0.38086 0.54893 0.0
O268 O 0.91128 0.56286 0.84135 0.0
C269 C 0.86016 0.45078 0.02955 0.0
C270 C 0.77223 0.43248 0.65323 0.0
C271 C 0.67594 0.42943 0.67489 0.0
N272 N 0.78793 0.50639 0.82958 0.0
C273 C 0.80582 0.47772 0.75194 0.0
C274 C 0.73366 0.50122 0.82358 0.0
C275 C 0.71164 0.40875 0.61456 0.0
C276 C 0.88315 0.56427 0.2794 0.0
N277 N 0.89213 0.52916 0.22446 0.0
C278 C 0.84621 0.55133 0.36202 0.0
C279 C 0.8146 0.5007 0.38828 0.0
C280 C 0.81966 0.46449 0.33157 0.0
C281 C 0.85656 0.47916 0.24902 0.0
C282 C 0.0799 0.53561 0.17464 0.0
C283 C -0.0083 0.51217 0.96047 0.0
C284 C 0.03368 0.55117 0.16862 0.0
N285 N -0.0075 0.53789 0.07682 0.0
C286 C 0.06764 0.49147 0.96228 0.0
C287 C 0.097 0.50832 0.07891 0.0
C288 C 0.96351 0.59117 0.85298 0.0
C289 C 0.86072 0.68625 0.96311 0.0
C290 C 0.8609 0.62011 0.80534 0.0
C291 C 0.87648 0.67014 0.77556 0.0
C292 C 0.8763 0.70337 0.85508 0.0
N293 N 0.84805 0.60427 0.91263 0.0
C294 C 0.84713 0.63642 -0.00912 0.0
Co295 Co 0.37484 0.9439 0.25526 0.0
Co296 Co 0.29307 0.8433 0.12292 0.0
O297 O 0.306 0.89407 0.23247 0.0
C298 C 0.32056 0.99134 0.39319 0.0
O299 O 0.27759 0.96993 0.33758 0.0
C300 C 0.25196 0.76551 0.34821 0.0
O301 O 0.2909 0.75844 0.33663 0.0
O302 O 0.35533 0.82818 0.17771 0.0
O303 O 0.40454 0.90555 0.17616 0.0
H304 H 0.36826 0.79417 0.78052 0.0
H305 H 0.28985 0.90355 0.4208 0.0
O306 O 0.35893 0.98972 0.35411 0.0
H307 H 0.36264 0.79872 0.51854 0.0
H308 H 0.55188 0.09683 0.42075 0.0
H309 H 0.45125 0.9679 0.06189 0.0
H310 H 0.40314 0.86237 0.38808 0.0
H311 H 0.45138 0.04951 0.37204 0.0
O312 O 0.24414 0.78795 0.2596 0.0
H313 H 0.35057 0.84589 0.9398 0.0
H314 H 0.19277 0.73005 0.04221 0.0
H315 H 0.60116 0.07496 0.08797 0.0
H316 H 0.25322 0.84469 0.56829 0.0
H317 H 0.62096 0.12063 0.26233 0.0
H318 H 0.28824 0.78758 0.61238 0.0
O319 O 0.37614 0.98386 0.11888 0.0
H320 H 0.14134 0.86411 0.19247 0.0
H321 H 0.259 0.86472 0.90971 0.0
H322 H 0.19826 0.89229 0.85822 0.0
H323 H 0.13828 0.89154 -0.00031 0.0
H324 H 0.2061 0.84173 0.24314 0.0
H325 H 0.21481 0.64098 0.8118 0.0
H326 H 0.30726 0.69924 0.71558 0.0
O327 O 0.34104 0.91496 0.00809 0.0
C328 C 0.40198 0.86381 0.19629 0.0
C329 C 0.33232 0.7759 0.8199 0.0
C330 C 0.23907 0.67963 0.84155 0.0
N331 N 0.27413 0.79162 -0.00371 0.0
C332 C 0.32069 0.8095 0.91863 0.0
C333 C 0.22502 0.73735 -0.00972 0.0
C334 C 0.29546 0.71532 0.78121 0.0
C335 C 0.31152 0.88685 0.44616 0.0
N336 N 0.3556 0.89582 0.39123 0.0
C337 C 0.2875 0.84991 0.52877 0.0
C338 C 0.30651 0.81829 0.55502 0.0
C339 C 0.34778 0.82334 0.49832 0.0
C340 C 0.37002 0.86024 0.41577 0.0
C341 C 0.53695 0.08355 0.3414 0.0
C342 C 0.47218 -0.00464 0.12724 0.0
C343 C 0.47517 0.03735 0.33538 0.0
N344 N 0.44726 -0.00383 0.24358 0.0
C345 C 0.56883 0.07128 0.12904 0.0
C346 C 0.58133 0.10063 0.24567 0.0
C347 C 0.36497 0.96718 0.01973 0.0
C348 C 0.16706 0.86438 0.12993 0.0
C349 C 0.23337 0.86458 -0.02789 0.0
C350 C 0.19889 0.8801 0.94234 0.0
C351 C 0.16547 0.87991 0.02189 0.0
N352 N 0.23639 0.85175 0.07941 0.0
C353 C 0.20333 0.85084 0.15768 0.0
Co354 Co 0.61601 0.56935 0.34728 0.0
Co355 Co 0.69031 0.54606 0.50564 0.0
O356 O 0.68199 0.58516 0.39056 0.0
C357 C 0.67236 0.66047 0.17892 0.0
O358 O 0.71811 0.69661 0.2068 0.0
C359 C 0.72656 0.50579 0.2822 0.0
O360 O 0.68192 0.46464 0.28691 0.0
O361 O 0.62693 0.46985 0.45011 0.0
O362 O 0.57751 0.49844 0.41684 0.0
H363 H 0.61292 0.44569 0.8852 0.0
H364 H 0.7084 0.60682 0.20108 0.0
O365 O 0.64019 0.63724 0.25903 0.0
H366 H 0.6048 0.42884 0.11062 0.0
H367 H 0.47879 0.52966 0.04336 0.0
H368 H 0.52301 0.53536 0.4995 0.0
H369 H 0.56786 0.47265 0.22017 0.0
H370 H 0.56883 0.56938 0.14788 0.0
O371 O 0.73862 0.53463 0.37517 0.0
H372 H 0.64801 0.52213 0.73431 0.0
H373 H 0.78218 0.51584 0.60042 0.0
H374 H 0.38153 0.48378 0.36291 0.0
H375 H 0.73349 0.57485 0.04685 0.0
H376 H 0.39455 0.50004 0.1335 0.0
H377 H 0.68745 0.48161 0.02337 0.0
O378 O 0.60586 0.60306 0.48618 0.0
H379 H 0.84843 0.7136 0.43548 0.0
H380 H 0.72039 0.60666 0.71376 0.0
H381 H 0.78261 0.69521 0.75965 0.0
H382 H 0.84736 0.74953 0.62007 0.0
H383 H 0.78295 0.62619 0.38967 0.0
H384 H 0.73752 0.40305 0.84005 0.0
H385 H 0.65458 0.39328 0.94251 0.0
O386 O 0.64036 0.57152 0.60518 0.0
C387 C 0.58272 0.45965 0.40969 0.0
C388 C 0.64288 0.45191 0.83122 0.0
C389 C 0.72047 0.42497 0.8087 0.0
N390 N 0.70678 0.51418 0.64366 0.0
C391 C 0.66275 0.49741 0.72977 0.0
C392 C 0.74848 0.4969 0.65166 0.0
C393 C 0.66863 0.41736 0.87037 0.0
C394 C 0.68019 0.57078 0.16829 0.0
N395 N 0.63319 0.54248 0.21676 0.0
C396 C 0.69678 0.55127 0.08492 0.0
C397 C 0.67016 0.49943 0.06738 0.0
C398 C 0.62478 0.46959 0.12147 0.0
C399 C 0.60571 0.49288 0.19088 0.0
C400 C 0.48015 0.52489 0.12998 0.0
C401 C 0.51084 0.53328 0.41429 0.0
C402 C 0.53676 0.54418 0.19142 0.0
N403 N 0.54907 0.54706 0.31506 0.0
C404 C 0.41897 0.5043 0.3262 0.0
C405 C 0.42478 0.50676 0.18835 0.0
C406 C 0.61345 0.59626 0.58795 0.0
C407 C 0.82044 0.69033 0.49704 0.0
C408 C 0.74828 0.62977 0.65232 0.0
C409 C 0.78344 0.68007 0.6788 0.0
C410 C 0.81966 0.71054 0.60037 0.0
N411 N 0.7477 0.61088 0.54902 0.0
C412 C 0.78372 0.64028 0.47233 0.0
Co413 Co 0.03923 0.61969 0.51391 0.0
Co414 Co 0.13682 0.694 0.67232 0.0
O415 O 0.0894 0.68566 0.55722 0.0
C416 C 0.00443 0.67601 0.34555 0.0
O417 O 0.01403 0.72176 0.3734 0.0
C418 C 0.21335 0.73026 0.44891 0.0
O419 O 0.20983 0.68561 0.45358 0.0
O420 O 0.14966 0.63062 0.61677 0.0
O421 O 0.07165 0.58119 0.58344 0.0
H422 H 0.15979 0.61661 0.05187 0.0
H423 H 0.09413 0.71208 0.36774 0.0
O424 O -0.00449 0.64386 0.42569 0.0
H425 H 0.16855 0.60851 0.27724 0.0
H426 H 0.94173 0.48245 0.20999 0.0
H427 H 0.98024 0.52669 0.66612 0.0
H428 H 0.08779 0.57155 0.38679 0.0
H429 H -0.00798 0.5725 0.31452 0.0
O430 O 0.19657 0.74232 0.54188 0.0
H431 H 0.11845 0.65172 0.90098 0.0
H432 H 0.25892 0.78588 0.76713 0.0
H433 H 0.89039 0.3852 0.52952 0.0
H434 H 0.15122 0.7372 0.21357 0.0
H435 H 0.88713 0.3982 0.30013 0.0
H436 H 0.19843 0.69117 0.19006 0.0
O437 O -0.00464 0.60952 0.65282 0.0
H438 H 0.12734 0.85208 0.60214 0.0
H439 H 0.10627 0.72407 0.88043 0.0
H440 H 0.07991 0.78627 0.92631 0.0
H441 H 0.09031 0.851 0.78671 0.0
H442 H 0.1493 0.78662 0.55634 0.0
H443 H 0.32704 0.74119 0.0067 0.0
H444 H 0.25386 0.65825 0.10915 0.0
O445 O 0.06141 0.64403 0.77184 0.0
C446 C 0.11566 0.58642 0.57631 0.0
C447 C 0.18354 0.64658 -0.00211 0.0
C448 C 0.28806 0.72414 -0.02464 0.0
N449 N 0.18517 0.71048 0.81035 0.0
C450 C 0.1579 0.66645 0.89646 0.0
C451 C 0.24415 0.75217 0.81835 0.0
C452 C 0.24383 0.67231 0.03702 0.0
C453 C 0.10198 0.68388 0.33494 0.0
N454 N 0.08328 0.63688 0.38339 0.0
C455 C 0.13809 0.70049 0.2516 0.0
C456 C 0.16332 0.67388 0.23405 0.0
C457 C 0.14777 0.62849 0.28809 0.0
C458 C 0.1054 0.6094 0.35749 0.0
C459 C 0.94785 0.48382 0.2966 0.0
C460 C 0.97015 0.51452 0.58091 0.0
C461 C 0.98516 0.54043 0.35804 0.0
N462 N -0.00542 0.55274 0.48168 0.0
C463 C 0.90729 0.42264 0.49282 0.0
C464 C 0.91063 0.42844 0.35497 0.0
C465 C 0.00976 0.61711 0.75459 0.0
C466 C 0.12262 0.82409 0.6637 0.0
C467 C 0.11104 0.75195 0.81899 0.0
C468 C 0.09589 0.7871 0.84546 0.0
C469 C 0.10162 0.82331 0.76703 0.0
N470 N 0.12937 0.75138 0.7157 0.0
C471 C 0.13599 0.78739 0.639 0.0
Co472 Co 0.4122 0.0429 0.68067 0.0
Co473 Co 0.43546 0.14047 0.83904 0.0
O474 O 0.39637 0.09305 0.72396 0.0
C475 C 0.32108 0.00812 0.51233 0.0
O476 O 0.28495 0.01775 0.54023 0.0
C477 C 0.4757 0.217 0.6156 0.0
O478 O 0.51686 0.21351 0.62029 0.0
O479 O 0.51168 0.15332 0.78347 0.0
O480 O 0.4831 0.07531 0.75023 0.0
H481 H 0.53586 0.16348 0.21854 0.0
H482 H 0.37473 0.09782 0.53448 0.0
O483 O 0.34431 -0.00082 0.59241 0.0
H484 H 0.55271 0.17221 0.44402 0.0
H485 H 0.45192 0.94538 0.37674 0.0
H486 H 0.44621 0.98392 0.83288 0.0
H487 H 0.5089 0.09145 0.55355 0.0
H488 H 0.41217 -0.00432 0.48127 0.0
O489 O 0.44686 0.20021 0.70858 0.0
H490 H 0.45941 0.12211 0.06771 0.0
H491 H 0.46564 0.26254 0.93382 0.0
H492 H 0.49779 0.89401 0.69628 0.0
H493 H 0.40669 0.15487 0.38026 0.0
H494 H 0.48153 0.89075 0.46688 0.0
H495 H 0.49994 0.20208 0.35678 0.0
O496 O 0.37848 -0.00097 0.81956 0.0
H497 H 0.26787 0.13097 0.76901 0.0
H498 H 0.37488 0.10995 0.0472 0.0
H499 H 0.28632 0.08359 0.09316 0.0
H500 H 0.23197 0.09396 0.95361 0.0
H501 H 0.35529 0.15293 0.72313 0.0
H502 H 0.57845 0.33071 0.17337 0.0
H503 H 0.58826 0.25756 0.27582 0.0
O504 O 0.41003 0.06508 0.93857 0.0
C505 C 0.52189 0.11931 0.74307 0.0
C506 C 0.52962 0.18722 0.16459 0.0
C507 C 0.55653 0.29173 0.14205 0.0
N508 N 0.46733 0.18882 -0.02294 0.0
C509 C 0.48411 0.16157 0.06316 0.0
C510 C 0.48459 0.24778 -0.01495 0.0
C511 C 0.56416 0.24751 0.20371 0.0
C512 C 0.41077 0.10565 0.50169 0.0
N513 N 0.43907 0.08695 0.55015 0.0
C514 C 0.43028 0.14175 0.41833 0.0
C515 C 0.48212 0.16698 0.40078 0.0
C516 C 0.51196 0.15144 0.45486 0.0
C517 C 0.48867 0.10907 0.52427 0.0
C518 C 0.45667 0.9515 0.46336 0.0
C519 C 0.44828 0.97382 0.74767 0.0
C520 C 0.43738 0.98882 0.5248 0.0
N521 N 0.43451 -0.00174 0.64844 0.0
C522 C 0.47726 0.91093 0.65958 0.0
C523 C 0.4748 0.91426 0.52173 0.0
C524 C 0.38529 0.01342 0.92133 0.0
C525 C 0.29116 0.12626 0.83055 0.0
C526 C 0.35175 0.11471 -0.01422 0.0
C527 C 0.30145 0.09955 0.0123 0.0
C528 C 0.27096 0.10527 0.93389 0.0
N529 N 0.37063 0.13302 0.88246 0.0
C530 C 0.34122 0.13962 0.8058 0.0
Co531 Co 0.36185 0.41582 0.8473 0.0
Co532 Co 0.28755 0.4391 0.00565 0.0
O533 O 0.29588 0.40001 0.89058 0.0
C534 C 0.30551 0.32471 0.67895 0.0
O535 O 0.25974 0.2886 0.70686 0.0
C536 C 0.25131 0.47939 0.78221 0.0
O537 O 0.29595 0.52055 0.78694 0.0
O538 O 0.35093 0.51532 0.9501 0.0
O539 O 0.40036 0.48672 0.91687 0.0
H540 H 0.36496 0.53951 0.38513 0.0
H541 H 0.26947 0.37837 0.7011 0.0
O542 O 0.33768 0.34793 0.75903 0.0
H543 H 0.37308 0.55634 0.61067 0.0
H544 H 0.49908 0.45552 0.54335 0.0
H545 H 0.45484 0.44981 -0.0005 0.0
H546 H 0.41001 0.51252 0.7202 0.0
H547 H 0.40904 0.41578 0.64789 0.0
O548 O 0.23925 0.45054 0.87517 0.0
H549 H 0.32985 0.46304 0.23432 0.0
H550 H 0.1957 0.46934 0.10041 0.0
H551 H 0.59633 0.50139 0.86288 0.0
H552 H 0.2444 0.41034 0.54685 0.0
H553 H 0.58332 0.48513 0.63348 0.0
H554 H 0.29046 0.50359 0.52336 0.0
O555 O 0.372 0.3821 -0.01381 0.0
H556 H 0.12944 0.27157 0.93555 0.0
H557 H 0.25748 0.37851 0.21378 0.0
H558 H 0.19526 0.28996 0.25969 0.0
H559 H 0.13053 0.23563 0.12012 0.0
H560 H 0.19491 0.35898 0.88972 0.0
H561 H 0.24037 0.58216 0.33998 0.0
H562 H 0.3233 0.59192 0.44244 0.0
O563 O 0.33751 0.41365 0.10519 0.0
C564 C 0.39515 0.52552 0.90972 0.0
C565 C 0.33499 0.53328 0.33117 0.0
C566 C 0.25742 0.56023 0.30865 0.0
N567 N 0.2711 0.471 0.14366 0.0
C568 C 0.31512 0.48777 0.22975 0.0
C569 C 0.2294 0.48828 0.15165 0.0
C570 C 0.30925 0.56783 0.37031 0.0
C571 C 0.29768 0.4144 0.66831 0.0
N572 N 0.34467 0.4427 0.71679 0.0
C573 C 0.2811 0.43392 0.58493 0.0
C574 C 0.30773 0.48576 0.56739 0.0
C575 C 0.3531 0.51559 0.62151 0.0
C576 C 0.37216 0.4923 0.69091 0.0
C577 C 0.49772 0.46027 0.62997 0.0
C578 C 0.46701 0.45189 0.91429 0.0
C579 C 0.44111 0.44099 0.69142 0.0
N580 N 0.4288 0.43812 0.81506 0.0
C581 C 0.55889 0.48086 0.82618 0.0
C582 C 0.55309 0.4784 0.68834 0.0
C583 C 0.36441 0.3889 0.08796 0.0
C584 C 0.15743 0.29484 -0.0029 0.0
C585 C 0.22959 0.3554 0.15235 0.0
C586 C 0.19443 0.3051 0.17884 0.0
C587 C 0.15821 0.27462 0.10042 0.0
N588 N 0.23016 0.37429 0.04905 0.0
C589 C 0.19414 0.34489 -0.02762 0.0
Co590 Co 0.93867 0.36553 0.01391 0.0
Co591 Co 0.84109 0.29121 0.17231 0.0
O592 O 0.88852 0.29956 0.05721 0.0
C593 C 0.97348 0.30921 0.84555 0.0
O594 O 0.9639 0.26347 0.87343 0.0
C595 C 0.76457 0.25495 0.9489 0.0
O596 O 0.76805 0.29959 0.9536 0.0
O597 O 0.82824 0.35458 0.11676 0.0
O598 O 0.90625 0.40402 0.08345 0.0
H599 H 0.81809 0.36859 0.55186 0.0
H600 H 0.88378 0.27314 0.86774 0.0
O601 O 0.98241 0.34137 0.92566 0.0
H602 H 0.80934 0.37669 0.77727 0.0
H603 H 0.03618 0.50278 0.70996 0.0
H604 H -0.00236 0.45853 0.16611 0.0
H605 H 0.8901 0.41365 0.8868 0.0
H606 H 0.98589 0.41273 0.81449 0.0
O607 O 0.78135 0.24289 0.04185 0.0
H608 H 0.85945 0.33351 0.40097 0.0
H609 H 0.71901 0.19933 0.26712 0.0
H610 H 0.08751 0.60002 0.0295 0.0
H611 H 0.82672 0.24803 0.71354 0.0
H612 H 0.09078 0.58702 0.80011 0.0
H613 H 0.77949 0.29405 0.69005 0.0
O614 O 0.98254 0.3757 0.1528 0.0
H615 H 0.85058 0.13313 0.10215 0.0
H616 H 0.87163 0.26115 0.38042 0.0
H617 H 0.89799 0.19895 0.4263 0.0
H618 H 0.8876 0.13422 0.28672 0.0
H619 H 0.82862 0.19859 0.05634 0.0
H620 H 0.65086 0.24398 0.50675 0.0
H621 H 0.72403 0.32693 0.60919 0.0
O622 O 0.91649 0.34118 0.27182 0.0
C623 C 0.86224 0.39879 0.07632 0.0
C624 C 0.79436 0.33862 0.4979 0.0
C625 C 0.68984 0.26104 0.4754 0.0
N626 N 0.79274 0.27474 0.31034 0.0
C627 C 0.82 0.31876 0.39644 0.0
C628 C 0.73377 0.23304 0.31835 0.0
C629 C 0.73406 0.31288 0.53705 0.0
C630 C 0.87594 0.30134 0.83494 0.0
N631 N 0.89462 0.34834 0.8834 0.0
C632 C 0.83983 0.28473 0.75159 0.0
C633 C 0.8146 0.31134 0.73404 0.0
C634 C 0.83013 0.35672 0.78811 0.0
C635 C 0.87249 0.37581 0.85751 0.0
C636 C 0.03005 0.50141 0.79658 0.0
C637 C 0.00774 0.4707 0.0809 0.0
C638 C -0.00726 0.4448 0.85803 0.0
N639 N 0.98331 0.43248 -0.01833 0.0
C640 C 0.07061 0.56258 -0.0072 0.0
C641 C 0.06728 0.55679 0.85495 0.0
C642 C 0.96814 0.36811 0.25458 0.0
C643 C 0.85529 0.16112 0.1637 0.0
C644 C 0.86687 0.23327 0.31898 0.0
C645 C 0.88202 0.19811 0.34546 0.0
C646 C 0.87629 0.1619 0.26703 0.0
N647 N 0.84855 0.23384 0.21569 0.0
C648 C 0.84193 0.19782 0.139 0.0
Co649 Co 0.56575 0.94229 0.18066 0.0
Co650 Co 0.54247 0.84471 0.33906 0.0
O651 O 0.58156 0.89213 0.22396 0.0
C652 C 0.65688 0.97707 0.01229 0.0
O653 O 0.69301 0.96744 0.04016 0.0
C654 C 0.50221 0.76819 0.11563 0.0
O655 O 0.46106 0.77169 0.12033 0.0
O656 O 0.46625 0.83187 0.2835 0.0
O657 O 0.49484 0.90988 0.25021 0.0
H658 H 0.44209 0.82173 0.71863 0.0
H659 H 0.60323 0.88737 0.03448 0.0
O660 O 0.63365 0.98601 0.09241 0.0
H661 H 0.42525 0.813 0.94401 0.0
H662 H 0.52605 0.03982 0.87673 0.0
H663 H 0.53175 0.00129 0.33287 0.0
H664 H 0.46906 0.89375 0.05355 0.0
H665 H 0.56578 0.9895 -0.01874 0.0
O666 O 0.53105 0.78497 0.20859 0.0
H667 H 0.51854 0.86307 0.56773 0.0
H668 H 0.51224 0.72262 0.43383 0.0
H669 H 0.48017 0.09119 0.19627 0.0
H670 H 0.57126 0.83032 0.88028 0.0
H671 H 0.49642 0.09443 -0.03313 0.0
H672 H 0.47802 0.78312 0.8568 0.0
O673 O 0.59946 0.98616 0.31956 0.0
H674 H 0.71004 0.85417 0.26897 0.0
H675 H 0.60305 0.87523 0.54719 0.0
H676 H 0.6916 0.90158 0.59311 0.0
H677 H 0.74595 0.89119 0.45355 0.0
H678 H 0.62262 0.83221 0.22313 0.0
H679 H 0.39944 0.65448 0.67346 0.0
H680 H 0.38966 0.72765 0.77592 0.0
O681 O 0.56791 0.92011 0.43858 0.0
C682 C 0.45605 0.86588 0.24307 0.0
C683 C 0.44831 0.79798 0.66465 0.0
C684 C 0.42137 0.69346 0.64212 0.0
N685 N 0.51058 0.79636 0.47708 0.0
C686 C 0.49382 0.82362 0.5632 0.0
C687 C 0.4933 0.73739 0.48508 0.0
C688 C 0.41376 0.73769 0.70379 0.0
C689 C 0.56719 0.87954 0.00169 0.0
N690 N 0.53889 0.89824 0.05015 0.0
C691 C 0.54768 0.84344 0.91834 0.0
C692 C 0.49584 0.81822 0.90079 0.0
C693 C 0.466 0.83377 0.95486 0.0
C694 C 0.48929 0.87613 0.02426 0.0
C695 C 0.52129 0.03369 0.96335 0.0
C696 C 0.52968 0.01138 0.24766 0.0
C697 C 0.54058 -0.00363 0.02479 0.0
N698 N 0.54346 0.98694 0.14843 0.0
C699 C 0.50069 0.07427 0.15957 0.0
C700 C 0.50315 0.07093 0.02172 0.0
C701 C 0.59266 0.97176 0.42133 0.0
C702 C 0.68676 0.85889 0.33051 0.0
C703 C 0.62617 0.87046 0.48576 0.0
C704 C 0.67647 0.88561 0.51226 0.0
C705 C 0.70696 0.87988 0.43384 0.0
N706 N 0.60729 0.85215 0.38246 0.0
C707 C 0.6367 0.84553 0.30579 0.0
loop_
_geom_bond_atom_site_label_1
_geom_bond_atom_site_label_2
_geom_bond_distance
_geom_bond_site_symmetry_2
_ccdc_geom_bond_type
Co0 O2 2.143 . S
Co0 O8 2.074 . S
Co0 O11 2.093 . S
Co0 O24 2.097 . S
Co0 N41 2.151 . S
Co0 N49 2.214 . S
Co1 O2 2.160 . S
Co1 O7 2.058 . S
Co1 O17 2.057 . S
Co1 O32 2.037 . S
Co1 N36 2.145 . S
Co1 N57 2.257 . S
O2 Co0 2.143 . S
O2 Co1 2.160 . S
C3 O4 1.278 . S
C3 O11 1.224 . S
O4 C3 1.278 . S
C5 O6 1.245 . S
C5 O17 1.232 . S
O6 C5 1.245 . S
O7 Co1 2.058 . S
O7 C33 1.269 . S
O8 Co0 2.074 . S
O8 C33 1.257 . S
H9 C34 0.930 . S
H10 C40 0.930 . S
O11 Co0 2.093 . S
O11 C3 1.224 . S
H12 C44 0.929 . S
H13 C46 0.930 . S
H14 C47 0.930 . S
H15 C45 0.929 . S
H16 C48 0.928 . S
O17 Co1 2.057 . S
O17 C5 1.232 . S
H18 C37 0.929 . S
H19 C38 0.929 . S
H20 C50 0.931 . S
H21 C42 0.929 . S
H22 C51 0.930 . S
H23 C43 0.931 . S
O24 Co0 2.097 . S
O24 C52 1.214 . S
H25 C53 0.929 . S
H26 C54 0.929 . S
H27 C55 0.930 . S
H28 C56 0.929 . S
H29 C58 0.930 . S
H30 C35 0.930 . S
H31 C39 0.930 . S
O32 Co1 2.037 . S
O32 C52 1.234 . S
C33 O7 1.269 . S
C33 O8 1.257 . S
C34 H9 0.930 . S
C34 C37 1.388 1_556 S
C34 C39 1.418 . S
C35 H30 0.930 . S
C35 C38 1.404 . S
C35 C39 1.353 1_554 S
N36 Co1 2.145 . S
N36 C37 1.397 . S
N36 C38 1.334 . S
C37 H18 0.929 . S
C37 C34 1.388 1_554 S
C37 N36 1.397 . S
C38 H19 0.929 . S
C38 C35 1.404 . S
C38 N36 1.334 . S
C39 H31 0.930 . S
C39 C34 1.418 . S
C39 C35 1.353 1_556 S
C40 H10 0.930 . S
C40 N41 1.330 . S
C40 C42 1.446 . S
N41 Co0 2.151 . S
N41 C40 1.330 . S
N41 C45 1.418 . S
C42 H21 0.929 . S
C42 C40 1.446 . S
C42 C43 1.332 . S
C43 H23 0.931 . S
C43 C42 1.332 . S
C43 C44 1.267 . S
C44 H12 0.929 . S
C44 C43 1.267 . S
C44 C45 1.251 . S
C45 H15 0.929 . S
C45 N41 1.418 . S
C45 C44 1.251 . S
C46 H13 0.930 . S
C46 C48 1.406 . S
C46 C51 1.261 . S
C47 H14 0.930 . S
C47 N49 1.325 . S
C47 C50 1.357 . S
C48 H16 0.928 . S
C48 C46 1.406 . S
C48 N49 1.261 . S
N49 Co0 2.214 . S
N49 C47 1.325 . S
N49 C48 1.261 . S
C50 H20 0.931 . S
C50 C47 1.357 . S
C50 C51 1.312 . S
C51 H22 0.930 . S
C51 C46 1.261 . S
C51 C50 1.312 . S
C52 O24 1.214 . S
C52 O32 1.234 . S
C53 H25 0.929 . S
C53 C56 1.391 . S
C53 C58 1.391 . S
C54 H26 0.929 . S
C54 C55 1.390 . S
C54 N57 1.391 . S
C55 H27 0.930 . S
C55 C54 1.390 . S
C55 C56 1.392 . S
C56 H28 0.929 . S
C56 C53 1.391 . S
C56 C55 1.392 . S
N57 Co1 2.257 . S
N57 C54 1.391 . S
N57 C58 1.388 . S
C58 H29 0.930 . S
C58 C53 1.391 . S
C58 N57 1.388 . S
Co59 O61 2.143 . S
Co59 O67 2.074 . S
Co59 O70 2.093 1_455 S
Co59 O83 2.097 . S
Co59 N100 2.151 . S
Co59 N108 2.214 1_455 S
Co60 O61 2.160 . S
Co60 O66 2.058 . S
Co60 O76 2.057 . S
Co60 O91 2.037 . S
Co60 N95 2.145 . S
Co60 N116 2.257 . S
O61 Co59 2.143 . S
O61 Co60 2.160 . S
C62 O63 1.278 . S
C62 O70 1.224 1_455 S
O63 C62 1.278 . S
C64 O65 1.245 . S
C64 O76 1.232 . S
O65 C64 1.245 . S
O66 Co60 2.058 . S
O66 C92 1.269 . S
O67 Co59 2.074 . S
O67 C92 1.257 . S
H68 C93 0.930 . S
H69 C99 0.930 . S
O70 Co59 2.093 1_655 S
O70 C62 1.224 1_655 S
H71 C103 0.929 . S
H72 C105 0.930 . S
H73 C106 0.930 . S
H74 C104 0.929 . S
H75 C107 0.928 . S
O76 Co60 2.057 . S
O76 C64 1.232 . S
H77 C96 0.929 . S
H78 C97 0.929 . S
H79 C109 0.931 . S
H80 C101 0.929 . S
H81 C110 0.930 . S
H82 C102 0.931 1_554 S
O83 Co59 2.097 . S
O83 C111 1.214 . S
H84 C112 0.929 . S
H85 C113 0.929 . S
H86 C114 0.930 . S
H87 C115 0.929 . S
H88 C117 0.930 . S
H89 C94 0.930 . S
H90 C98 0.930 . S
O91 Co60 2.037 . S
O91 C111 1.234 . S
C92 O66 1.269 . S
C92 O67 1.257 . S
C93 H68 0.930 . S
C93 C96 1.388 . S
C93 C98 1.418 . S
C94 H89 0.930 . S
C94 C97 1.404 . S
C94 C98 1.353 . S
N95 Co60 2.145 . S
N95 C96 1.397 . S
N95 C97 1.334 . S
C96 H77 0.929 . S
C96 C93 1.388 . S
C96 N95 1.397 . S
C97 H78 0.929 . S
C97 C94 1.404 . S
C97 N95 1.334 . S
C98 H90 0.930 . S
C98 C93 1.418 . S
C98 C94 1.353 . S
C99 H69 0.930 . S
C99 N100 1.330 . S
C99 C101 1.446 1_556 S
N100 Co59 2.151 . S
N100 C99 1.330 . S
N100 C104 1.418 . S
C101 H80 0.929 . S
C101 C99 1.446 1_554 S
C101 C102 1.332 1_554 S
C102 H82 0.931 1_556 S
C102 C101 1.332 1_556 S
C102 C103 1.267 . S
C103 H71 0.929 . S
C103 C102 1.267 . S
C103 C104 1.251 . S
C104 H74 0.929 . S
C104 N100 1.418 . S
C104 C103 1.251 . S
C105 H72 0.930 . S
C105 C107 1.406 . S
C105 C110 1.261 . S
C106 H73 0.930 . S
C106 N108 1.325 . S
C106 C109 1.357 . S
C107 H75 0.928 . S
C107 C105 1.406 . S
C107 N108 1.261 . S
N108 Co59 2.214 1_655 S
N108 C106 1.325 . S
N108 C107 1.261 . S
C109 H79 0.931 . S
C109 C106 1.357 . S
C109 C110 1.312 . S
C110 H81 0.930 . S
C110 C105 1.261 . S
C110 C109 1.312 . S
C111 O83 1.214 . S
C111 O91 1.234 . S
C112 H84 0.929 . S
C112 C115 1.391 . S
C112 C117 1.391 . S
C113 H85 0.929 . S
C113 C114 1.390 . S
C113 N116 1.391 . S
C114 H86 0.930 . S
C114 C113 1.390 . S
C114 C115 1.392 . S
C115 H87 0.929 . S
C115 C112 1.391 . S
C115 C114 1.392 . S
N116 Co60 2.257 . S
N116 C113 1.391 . S
N116 C117 1.388 . S
C117 H88 0.930 . S
C117 C112 1.391 . S
C117 N116 1.388 . S
Co118 O120 2.143 . S
Co118 O126 2.074 . S
Co118 O129 2.093 1_545 S
Co118 O142 2.097 . S
Co118 N159 2.151 . S
Co118 N167 2.214 1_545 S
Co119 O120 2.160 . S
Co119 O125 2.058 . S
Co119 O135 2.057 . S
Co119 O150 2.037 . S
Co119 N154 2.145 . S
Co119 N175 2.257 . S
O120 Co118 2.143 . S
O120 Co119 2.160 . S
C121 O122 1.278 . S
C121 O129 1.224 1_545 S
O122 C121 1.278 . S
C123 O124 1.245 . S
C123 O135 1.232 . S
O124 C123 1.245 . S
O125 Co119 2.058 . S
O125 C151 1.269 . S
O126 Co118 2.074 . S
O126 C151 1.257 . S
H127 C152 0.930 . S
H128 C158 0.930 . S
O129 Co118 2.093 1_565 S
O129 C121 1.224 1_565 S
H130 C162 0.929 . S
H131 C164 0.930 . S
H132 C165 0.930 . S
H133 C163 0.929 . S
H134 C166 0.928 . S
O135 Co119 2.057 . S
O135 C123 1.232 . S
H136 C155 0.929 . S
H137 C156 0.929 . S
H138 C168 0.931 . S
H139 C160 0.929 . S
H140 C169 0.930 . S
H141 C161 0.931 . S
O142 Co118 2.097 . S
O142 C170 1.214 . S
H143 C171 0.929 . S
H144 C172 0.929 . S
H145 C173 0.930 . S
H146 C174 0.929 . S
H147 C176 0.930 . S
H148 C153 0.930 . S
H149 C157 0.930 . S
O150 Co119 2.037 . S
O150 C170 1.234 . S
C151 O125 1.269 . S
C151 O126 1.257 . S
C152 H127 0.930 . S
C152 C155 1.388 . S
C152 C157 1.418 . S
C153 H148 0.930 . S
C153 C156 1.404 . S
C153 C157 1.353 . S
N154 Co119 2.145 . S
N154 C155 1.397 . S
N154 C156 1.334 . S
C155 H136 0.929 . S
C155 C152 1.388 . S
C155 N154 1.397 . S
C156 H137 0.929 . S
C156 C153 1.404 . S
C156 N154 1.334 . S
C157 H149 0.930 . S
C157 C152 1.418 . S
C157 C153 1.353 . S
C158 H128 0.930 . S
C158 N159 1.330 1_554 S
C158 C160 1.446 . S
N159 Co118 2.151 . S
N159 C158 1.330 1_556 S
N159 C163 1.418 . S
C160 H139 0.929 . S
C160 C158 1.446 . S
C160 C161 1.332 . S
C161 H141 0.931 . S
C161 C160 1.332 . S
C161 C162 1.267 . S
C162 H130 0.929 . S
C162 C161 1.267 . S
C162 C163 1.251 1_554 S
C163 H133 0.929 . S
C163 N159 1.418 . S
C163 C162 1.251 1_556 S
C164 H131 0.930 . S
C164 C166 1.406 . S
C164 C169 1.261 . S
C165 H132 0.930 . S
C165 N167 1.325 . S
C165 C168 1.357 . S
C166 H134 0.928 . S
C166 C164 1.406 . S
C166 N167 1.261 . S
N167 Co118 2.214 1_565 S
N167 C165 1.325 . S
N167 C166 1.261 . S
C168 H138 0.931 . S
C168 C165 1.357 . S
C168 C169 1.312 . S
C169 H140 0.930 . S
C169 C164 1.261 . S
C169 C168 1.312 . S
C170 O142 1.214 . S
C170 O150 1.234 . S
C171 H143 0.929 . S
C171 C174 1.391 . S
C171 C176 1.391 . S
C172 H144 0.929 . S
C172 C173 1.390 . S
C172 N175 1.391 . S
C173 H145 0.930 . S
C173 C172 1.390 . S
C173 C174 1.392 . S
C174 H146 0.929 . S
C174 C171 1.391 . S
C174 C173 1.392 . S
N175 Co119 2.257 . S
N175 C172 1.391 . S
N175 C176 1.388 . S
C176 H147 0.930 . S
C176 C171 1.391 . S
C176 N175 1.388 . S
Co177 O179 2.143 . S
Co177 O185 2.074 . S
Co177 O188 2.093 1_556 S
Co177 O201 2.097 . S
Co177 N218 2.151 1_556 S
Co177 N226 2.214 . S
Co178 O179 2.160 . S
Co178 O184 2.058 . S
Co178 O194 2.057 . S
Co178 O209 2.037 . S
Co178 N213 2.145 . S
Co178 N234 2.257 . S
O179 Co177 2.143 . S
O179 Co178 2.160 . S
C180 O181 1.278 . S
C180 O188 1.224 . S
O181 C180 1.278 . S
C182 O183 1.245 . S
C182 O194 1.232 1_554 S
O183 C182 1.245 . S
O184 Co178 2.058 . S
O184 C210 1.269 . S
O185 Co177 2.074 . S
O185 C210 1.257 . S
H186 C211 0.930 . S
H187 C217 0.930 . S
O188 Co177 2.093 1_554 S
O188 C180 1.224 . S
H189 C221 0.929 . S
H190 C223 0.930 . S
H191 C224 0.930 . S
H192 C222 0.929 . S
H193 C225 0.928 . S
O194 Co178 2.057 . S
O194 C182 1.232 1_556 S
H195 C214 0.929 . S
H196 C215 0.929 . S
H197 C227 0.931 . S
H198 C219 0.929 . S
H199 C228 0.930 . S
H200 C220 0.931 . S
O201 Co177 2.097 . S
O201 C229 1.214 . S
H202 C230 0.929 . S
H203 C231 0.929 . S
H204 C232 0.930 . S
H205 C233 0.929 . S
H206 C235 0.930 . S
H207 C212 0.930 . S
H208 C216 0.930 . S
O209 Co178 2.037 . S
O209 C229 1.234 . S
C210 O184 1.269 . S
C210 O185 1.257 . S
C211 H186 0.930 . S
C211 C214 1.388 . S
C211 C216 1.418 . S
C212 H207 0.930 . S
C212 C215 1.404 . S
C212 C216 1.353 . S
N213 Co178 2.145 . S
N213 C214 1.397 . S
N213 C215 1.334 . S
C214 H195 0.929 . S
C214 C211 1.388 . S
C214 N213 1.397 . S
C215 H196 0.929 . S
C215 C212 1.404 . S
C215 N213 1.334 . S
C216 H208 0.930 . S
C216 C211 1.418 . S
C216 C212 1.353 . S
C217 H187 0.930 . S
C217 N218 1.330 . S
C217 C219 1.446 . S
N218 Co177 2.151 1_554 S
N218 C217 1.330 . S
N218 C222 1.418 . S
C219 H198 0.929 . S
C219 C217 1.446 . S
C219 C220 1.332 . S
C220 H200 0.931 . S
C220 C219 1.332 . S
C220 C221 1.267 . S
C221 H189 0.929 . S
C221 C220 1.267 . S
C221 C222 1.251 . S
C222 H192 0.929 . S
C222 N218 1.418 . S
C222 C221 1.251 . S
C223 H190 0.930 . S
C223 C225 1.406 . S
C223 C228 1.261 1_554 S
C224 H191 0.930 . S
C224 N226 1.325 . S
C224 C227 1.357 . S
C225 H193 0.928 . S
C225 C223 1.406 . S
C225 N226 1.261 1_554 S
N226 Co177 2.214 . S
N226 C224 1.325 . S
N226 C225 1.261 1_556 S
C227 H197 0.931 . S
C227 C224 1.357 . S
C227 C228 1.312 . S
C228 H199 0.930 . S
C228 C223 1.261 1_556 S
C228 C227 1.312 . S
C229 O201 1.214 . S
C229 O209 1.234 . S
C230 H202 0.929 . S
C230 C233 1.391 . S
C230 C235 1.391 . S
C231 H203 0.929 . S
C231 C232 1.390 . S
C231 N234 1.391 . S
C232 H204 0.930 . S
C232 C231 1.390 . S
C232 C233 1.392 . S
C233 H205 0.929 . S
C233 C230 1.391 . S
C233 C232 1.392 . S
N234 Co178 2.257 . S
N234 C231 1.391 . S
N234 C235 1.388 . S
C235 H206 0.930 . S
C235 C230 1.391 . S
C235 N234 1.388 . S
Co236 O238 2.143 . S
Co236 O244 2.074 . S
Co236 O247 2.093 1_655 S
Co236 O260 2.097 1_554 S
Co236 N277 2.151 . S
Co236 N285 2.214 1_655 S
Co237 O238 2.160 1_556 S
Co237 O243 2.058 . S
Co237 O253 2.057 1_556 S
Co237 O268 2.037 . S
Co237 N272 2.145 . S
Co237 N293 2.257 . S
O238 Co236 2.143 . S
O238 Co237 2.160 1_554 S
C239 O240 1.278 . S
C239 O247 1.224 1_655 S
O240 C239 1.278 . S
C241 O242 1.245 . S
C241 O253 1.232 . S
O242 C241 1.245 . S
O243 Co237 2.058 . S
O243 C269 1.269 . S
O244 Co236 2.074 . S
O244 C269 1.257 1_554 S
H245 C270 0.930 . S
H246 C276 0.930 . S
O247 Co236 2.093 1_455 S
O247 C239 1.224 1_455 S
H248 C280 0.929 . S
H249 C282 0.930 . S
H250 C283 0.930 1_556 S
H251 C281 0.929 . S
H252 C284 0.928 . S
O253 Co237 2.057 1_554 S
O253 C241 1.232 . S
H254 C273 0.929 . S
H255 C274 0.929 . S
H256 C286 0.931 . S
H257 C278 0.929 . S
H258 C287 0.930 . S
H259 C279 0.931 . S
O260 Co236 2.097 1_556 S
O260 C288 1.214 . S
H261 C289 0.929 . S
H262 C290 0.929 . S
H263 C291 0.930 . S
H264 C292 0.929 . S
H265 C294 0.930 . S
H266 C271 0.930 . S
H267 C275 0.930 . S
O268 Co237 2.037 . S
O268 C288 1.234 . S
C269 O243 1.269 . S
C269 O244 1.257 1_556 S
C270 H245 0.930 . S
C270 C273 1.388 . S
C270 C275 1.418 . S
C271 H266 0.930 . S
C271 C274 1.404 . S
C271 C275 1.353 . S
N272 Co237 2.145 . S
N272 C273 1.397 . S
N272 C274 1.334 . S
C273 H254 0.929 . S
C273 C270 1.388 . S
C273 N272 1.397 . S
C274 H255 0.929 . S
C274 C271 1.404 . S
C274 N272 1.334 . S
C275 H267 0.930 . S
C275 C270 1.418 . S
C275 C271 1.353 . S
C276 H246 0.930 . S
C276 N277 1.330 . S
C276 C278 1.446 . S
N277 Co236 2.151 . S
N277 C276 1.330 . S
N277 C281 1.418 . S
C278 H257 0.929 . S
C278 C276 1.446 . S
C278 C279 1.332 . S
C279 H259 0.931 . S
C279 C278 1.332 . S
C279 C280 1.267 . S
C280 H248 0.929 . S
C280 C279 1.267 . S
C280 C281 1.251 . S
C281 H251 0.929 . S
C281 N277 1.418 . S
C281 C280 1.251 . S
C282 H249 0.930 . S
C282 C284 1.406 . S
C282 C287 1.261 . S
C283 H250 0.930 1_554 S
C283 N285 1.325 . S
C283 C286 1.357 1_554 S
C284 H252 0.928 . S
C284 C282 1.406 . S
C284 N285 1.261 . S
N285 Co236 2.214 1_455 S
N285 C283 1.325 . S
N285 C284 1.261 . S
C286 H256 0.931 . S
C286 C283 1.357 1_556 S
C286 C287 1.312 1_556 S
C287 H258 0.930 . S
C287 C282 1.261 . S
C287 C286 1.312 1_554 S
C288 O260 1.214 . S
C288 O268 1.234 . S
C289 H261 0.929 . S
C289 C292 1.391 1_554 S
C289 C294 1.391 . S
C290 H262 0.929 . S
C290 C291 1.390 . S
C290 N293 1.391 . S
C291 H263 0.930 . S
C291 C290 1.390 . S
C291 C292 1.392 . S
C292 H264 0.929 . S
C292 C289 1.391 1_556 S
C292 C291 1.392 . S
N293 Co237 2.257 . S
N293 C290 1.391 . S
N293 C294 1.388 1_556 S
C294 H265 0.930 . S
C294 C289 1.391 . S
C294 N293 1.388 1_554 S
Co295 O297 2.143 . S
Co295 O303 2.074 . S
Co295 O306 2.093 1_565 S
Co295 O319 2.097 . S
Co295 N336 2.151 . S
Co295 N344 2.214 1_565 S
Co296 O297 2.160 . S
Co296 O302 2.058 . S
Co296 O312 2.057 . S
Co296 O327 2.037 . S
Co296 N331 2.145 1_554 S
Co296 N352 2.257 . S
O297 Co295 2.143 . S
O297 Co296 2.160 . S
C298 O299 1.278 . S
C298 O306 1.224 1_565 S
O299 C298 1.278 . S
C300 O301 1.245 . S
C300 O312 1.232 . S
O301 C300 1.245 . S
O302 Co296 2.058 . S
O302 C328 1.269 . S
O303 Co295 2.074 . S
O303 C328 1.257 . S
H304 C329 0.930 . S
H305 C335 0.930 . S
O306 Co295 2.093 1_545 S
O306 C298 1.224 1_545 S
H307 C339 0.929 . S
H308 C341 0.930 . S
H309 C342 0.930 . S
H310 C340 0.929 . S
H311 C343 0.928 . S
O312 Co296 2.057 . S
O312 C300 1.232 . S
H313 C332 0.929 . S
H314 C333 0.929 1_554 S
H315 C345 0.931 . S
H316 C337 0.929 . S
H317 C346 0.930 . S
H318 C338 0.931 . S
O319 Co295 2.097 . S
O319 C347 1.214 . S
H320 C348 0.929 . S
H321 C349 0.929 1_556 S
H322 C350 0.930 1_556 S
H323 C351 0.929 . S
H324 C353 0.930 . S
H325 C330 0.930 . S
H326 C334 0.930 . S
O327 Co296 2.037 . S
O327 C347 1.234 . S
C328 O302 1.269 . S
C328 O303 1.257 . S
C329 H304 0.930 . S
C329 C332 1.388 . S
C329 C334 1.418 . S
C330 H325 0.930 . S
C330 C333 1.404 . S
C330 C334 1.353 . S
N331 Co296 2.145 1_556 S
N331 C332 1.397 . S
N331 C333 1.334 . S
C332 H313 0.929 . S
C332 C329 1.388 . S
C332 N331 1.397 . S
C333 H314 0.929 1_556 S
C333 C330 1.404 . S
C333 N331 1.334 . S
C334 H326 0.930 . S
C334 C329 1.418 . S
C334 C330 1.353 . S
C335 H305 0.930 . S
C335 N336 1.330 . S
C335 C337 1.446 . S
N336 Co295 2.151 . S
N336 C335 1.330 . S
N336 C340 1.418 . S
C337 H316 0.929 . S
C337 C335 1.446 . S
C337 C338 1.332 . S
C338 H318 0.931 . S
C338 C337 1.332 . S
C338 C339 1.267 . S
C339 H307 0.929 . S
C339 C338 1.267 . S
C339 C340 1.251 . S
C340 H310 0.929 . S
C340 N336 1.418 . S
C340 C339 1.251 . S
C341 H308 0.930 . S
C341 C343 1.406 . S
C341 C346 1.261 . S
C342 H309 0.930 . S
C342 N344 1.325 . S
C342 C345 1.357 . S
C343 H311 0.928 . S
C343 C341 1.406 . S
C343 N344 1.261 . S
N344 Co295 2.214 1_545 S
N344 C342 1.325 . S
N344 C343 1.261 . S
C345 H315 0.931 . S
C345 C342 1.357 . S
C345 C346 1.312 . S
C346 H317 0.930 . S
C346 C341 1.261 . S
C346 C345 1.312 . S
C347 O319 1.214 . S
C347 O327 1.234 . S
C348 H320 0.929 . S
C348 C351 1.391 . S
C348 C353 1.391 . S
C349 H321 0.929 1_554 S
C349 C350 1.390 . S
C349 N352 1.391 . S
C350 H322 0.930 1_554 S
C350 C349 1.390 . S
C350 C351 1.392 . S
C351 H323 0.929 . S
C351 C348 1.391 . S
C351 C350 1.392 . S
N352 Co296 2.257 . S
N352 C349 1.391 . S
N352 C353 1.388 . S
C353 H324 0.930 . S
C353 C348 1.391 . S
C353 N352 1.388 . S
Co354 O356 2.143 . S
Co354 O362 2.074 . S
Co354 O365 2.093 . S
Co354 O378 2.097 . S
Co354 N395 2.151 . S
Co354 N403 2.214 . S
Co355 O356 2.160 . S
Co355 O361 2.058 . S
Co355 O371 2.057 . S
Co355 O386 2.037 . S
Co355 N390 2.145 . S
Co355 N411 2.257 . S
O356 Co354 2.143 . S
O356 Co355 2.160 . S
C357 O358 1.278 . S
C357 O365 1.224 . S
O358 C357 1.278 . S
C359 O360 1.245 . S
C359 O371 1.232 . S
O360 C359 1.245 . S
O361 Co355 2.058 . S
O361 C387 1.269 . S
O362 Co354 2.074 . S
O362 C387 1.257 . S
H363 C388 0.930 . S
H364 C394 0.930 . S
O365 Co354 2.093 . S
O365 C357 1.224 . S
H366 C398 0.929 . S
H367 C400 0.930 . S
H368 C401 0.930 . S
H369 C399 0.929 . S
H370 C402 0.928 . S
O371 Co355 2.057 . S
O371 C359 1.232 . S
H372 C391 0.929 . S
H373 C392 0.929 . S
H374 C404 0.931 . S
H375 C396 0.929 . S
H376 C405 0.930 . S
H377 C397 0.931 1_556 S
O378 Co354 2.097 . S
O378 C406 1.214 . S
H379 C407 0.929 . S
H380 C408 0.929 . S
H381 C409 0.930 . S
H382 C410 0.929 . S
H383 C412 0.930 . S
H384 C389 0.930 . S
H385 C393 0.930 . S
O386 Co355 2.037 . S
O386 C406 1.234 . S
C387 O361 1.269 . S
C387 O362 1.257 . S
C388 H363 0.930 . S
C388 C391 1.388 . S
C388 C393 1.418 . S
C389 H384 0.930 . S
C389 C392 1.404 . S
C389 C393 1.353 . S
N390 Co355 2.145 . S
N390 C391 1.397 . S
N390 C392 1.334 . S
C391 H372 0.929 . S
C391 C388 1.388 . S
C391 N390 1.397 . S
C392 H373 0.929 . S
C392 C389 1.404 . S
C392 N390 1.334 . S
C393 H385 0.930 . S
C393 C388 1.418 . S
C393 C389 1.353 . S
C394 H364 0.930 . S
C394 N395 1.330 . S
C394 C396 1.446 1_554 S
N395 Co354 2.151 . S
N395 C394 1.330 . S
N395 C399 1.418 . S
C396 H375 0.929 . S
C396 C394 1.446 1_556 S
C396 C397 1.332 1_556 S
C397 H377 0.931 1_554 S
C397 C396 1.332 1_554 S
C397 C398 1.267 . S
C398 H366 0.929 . S
C398 C397 1.267 . S
C398 C399 1.251 . S
C399 H369 0.929 . S
C399 N395 1.418 . S
C399 C398 1.251 . S
C400 H367 0.930 . S
C400 C402 1.406 . S
C400 C405 1.261 . S
C401 H368 0.930 . S
C401 N403 1.325 . S
C401 C404 1.357 . S
C402 H370 0.928 . S
C402 C400 1.406 . S
C402 N403 1.261 . S
N403 Co354 2.214 . S
N403 C401 1.325 . S
N403 C402 1.261 . S
C404 H374 0.931 . S
C404 C401 1.357 . S
C404 C405 1.312 . S
C405 H376 0.930 . S
C405 C400 1.261 . S
C405 C404 1.312 . S
C406 O378 1.214 . S
C406 O386 1.234 . S
C407 H379 0.929 . S
C407 C410 1.391 . S
C407 C412 1.391 . S
C408 H380 0.929 . S
C408 C409 1.390 . S
C408 N411 1.391 . S
C409 H381 0.930 . S
C409 C408 1.390 . S
C409 C410 1.392 . S
C410 H382 0.929 . S
C410 C407 1.391 . S
C410 C409 1.392 . S
N411 Co355 2.257 . S
N411 C408 1.391 . S
N411 C412 1.388 . S
C412 H383 0.930 . S
C412 C407 1.391 . S
C412 N411 1.388 . S
Co413 O415 2.143 . S
Co413 O421 2.074 . S
Co413 O424 2.093 1_455 S
Co413 O437 2.097 . S
Co413 N454 2.151 . S
Co413 N462 2.214 1_455 S
Co414 O415 2.160 . S
Co414 O420 2.058 . S
Co414 O430 2.057 . S
Co414 O445 2.037 . S
Co414 N449 2.145 . S
Co414 N470 2.257 . S
O415 Co413 2.143 . S
O415 Co414 2.160 . S
C416 O417 1.278 . S
C416 O424 1.224 1_455 S
O417 C416 1.278 . S
C418 O419 1.245 . S
C418 O430 1.232 . S
O419 C418 1.245 . S
O420 Co414 2.058 . S
O420 C446 1.269 . S
O421 Co413 2.074 . S
O421 C446 1.257 . S
H422 C447 0.930 . S
H423 C453 0.930 . S
O424 Co413 2.093 1_655 S
O424 C416 1.224 1_655 S
H425 C457 0.929 . S
H426 C459 0.930 . S
H427 C460 0.930 . S
H428 C458 0.929 . S
H429 C461 0.928 . S
O430 Co414 2.057 . S
O430 C418 1.232 . S
H431 C450 0.929 . S
H432 C451 0.929 . S
H433 C463 0.931 . S
H434 C455 0.929 . S
H435 C464 0.930 . S
H436 C456 0.931 . S
O437 Co413 2.097 . S
O437 C465 1.214 . S
H438 C466 0.929 . S
H439 C467 0.929 . S
H440 C468 0.930 . S
H441 C469 0.929 . S
H442 C471 0.930 . S
H443 C448 0.930 . S
H444 C452 0.930 . S
O445 Co414 2.037 . S
O445 C465 1.234 . S
C446 O420 1.269 . S
C446 O421 1.257 . S
C447 H422 0.930 . S
C447 C450 1.388 1_554 S
C447 C452 1.418 . S
C448 H443 0.930 . S
C448 C451 1.404 . S
C448 C452 1.353 1_556 S
N449 Co414 2.145 . S
N449 C450 1.397 . S
N449 C451 1.334 . S
C450 H431 0.929 . S
C450 C447 1.388 1_556 S
C450 N449 1.397 . S
C451 H432 0.929 . S
C451 C448 1.404 . S
C451 N449 1.334 . S
C452 H444 0.930 . S
C452 C447 1.418 . S
C452 C448 1.353 1_554 S
C453 H423 0.930 . S
C453 N454 1.330 . S
C453 C455 1.446 . S
N454 Co413 2.151 . S
N454 C453 1.330 . S
N454 C458 1.418 . S
C455 H434 0.929 . S
C455 C453 1.446 . S
C455 C456 1.332 . S
C456 H436 0.931 . S
C456 C455 1.332 . S
C456 C457 1.267 . S
C457 H425 0.929 . S
C457 C456 1.267 . S
C457 C458 1.251 . S
C458 H428 0.929 . S
C458 N454 1.418 . S
C458 C457 1.251 . S
C459 H426 0.930 . S
C459 C461 1.406 . S
C459 C464 1.261 . S
C460 H427 0.930 . S
C460 N462 1.325 . S
C460 C463 1.357 . S
C461 H429 0.928 . S
C461 C459 1.406 . S
C461 N462 1.261 . S
N462 Co413 2.214 1_655 S
N462 C460 1.325 . S
N462 C461 1.261 . S
C463 H433 0.931 . S
C463 C460 1.357 . S
C463 C464 1.312 . S
C464 H435 0.930 . S
C464 C459 1.261 . S
C464 C463 1.312 . S
C465 O437 1.214 . S
C465 O445 1.234 . S
C466 H438 0.929 . S
C466 C469 1.391 . S
C466 C471 1.391 . S
C467 H439 0.929 . S
C467 C468 1.390 . S
C467 N470 1.391 . S
C468 H440 0.930 . S
C468 C467 1.390 . S
C468 C469 1.392 . S
C469 H441 0.929 . S
C469 C466 1.391 . S
C469 C468 1.392 . S
N470 Co414 2.257 . S
N470 C467 1.391 . S
N470 C471 1.388 . S
C471 H442 0.930 . S
C471 C466 1.391 . S
C471 N470 1.388 . S
Co472 O474 2.143 . S
Co472 O480 2.074 . S
Co472 O483 2.093 1_545 S
Co472 O496 2.097 . S
Co472 N513 2.151 . S
Co472 N521 2.214 1_545 S
Co473 O474 2.160 . S
Co473 O479 2.058 . S
Co473 O489 2.057 . S
Co473 O504 2.037 . S
Co473 N508 2.145 1_556 S
Co473 N529 2.257 . S
O474 Co472 2.143 . S
O474 Co473 2.160 . S
C475 O476 1.278 . S
C475 O483 1.224 1_545 S
O476 C475 1.278 . S
C477 O478 1.245 . S
C477 O489 1.232 . S
O478 C477 1.245 . S
O479 Co473 2.058 . S
O479 C505 1.269 . S
O480 Co472 2.074 . S
O480 C505 1.257 . S
H481 C506 0.930 . S
H482 C512 0.930 . S
O483 Co472 2.093 1_565 S
O483 C475 1.224 1_565 S
H484 C516 0.929 . S
H485 C518 0.930 . S
H486 C519 0.930 . S
H487 C517 0.929 . S
H488 C520 0.928 . S
O489 Co473 2.057 . S
O489 C477 1.232 . S
H490 C509 0.929 . S
H491 C510 0.929 1_556 S
H492 C522 0.931 . S
H493 C514 0.929 . S
H494 C523 0.930 . S
H495 C515 0.931 . S
O496 Co472 2.097 . S
O496 C524 1.214 . S
H497 C525 0.929 . S
H498 C526 0.929 1_554 S
H499 C527 0.930 1_554 S
H500 C528 0.929 . S
H501 C530 0.930 . S
H502 C507 0.930 . S
H503 C511 0.930 . S
O504 Co473 2.037 . S
O504 C524 1.234 . S
C505 O479 1.269 . S
C505 O480 1.257 . S
C506 H481 0.930 . S
C506 C509 1.388 . S
C506 C511 1.418 . S
C507 H502 0.930 . S
C507 C510 1.404 . S
C507 C511 1.353 . S
N508 Co473 2.145 1_554 S
N508 C509 1.397 . S
N508 C510 1.334 . S
C509 H490 0.929 . S
C509 C506 1.388 . S
C509 N508 1.397 . S
C510 H491 0.929 1_554 S
C510 C507 1.404 . S
C510 N508 1.334 . S
C511 H503 0.930 . S
C511 C506 1.418 . S
C511 C507 1.353 . S
C512 H482 0.930 . S
C512 N513 1.330 . S
C512 C514 1.446 . S
N513 Co472 2.151 . S
N513 C512 1.330 . S
N513 C517 1.418 . S
C514 H493 0.929 . S
C514 C512 1.446 . S
C514 C515 1.332 . S
C515 H495 0.931 . S
C515 C514 1.332 . S
C515 C516 1.267 . S
C516 H484 0.929 . S
C516 C515 1.267 . S
C516 C517 1.251 . S
C517 H487 0.929 . S
C517 N513 1.418 . S
C517 C516 1.251 . S
C518 H485 0.930 . S
C518 C520 1.406 . S
C518 C523 1.261 . S
C519 H486 0.930 . S
C519 N521 1.325 . S
C519 C522 1.357 . S
C520 H488 0.928 . S
C520 C518 1.406 . S
C520 N521 1.261 . S
N521 Co472 2.214 1_565 S
N521 C519 1.325 . S
N521 C520 1.261 . S
C522 H492 0.931 . S
C522 C519 1.357 . S
C522 C523 1.312 . S
C523 H494 0.930 . S
C523 C518 1.261 . S
C523 C522 1.312 . S
C524 O496 1.214 . S
C524 O504 1.234 . S
C525 H497 0.929 . S
C525 C528 1.391 . S
C525 C530 1.391 . S
C526 H498 0.929 1_556 S
C526 C527 1.390 . S
C526 N529 1.391 . S
C527 H499 0.930 1_556 S
C527 C526 1.390 . S
C527 C528 1.392 . S
C528 H500 0.929 . S
C528 C525 1.391 . S
C528 C527 1.392 . S
N529 Co473 2.257 . S
N529 C526 1.391 . S
N529 C530 1.388 . S
C530 H501 0.930 . S
C530 C525 1.391 . S
C530 N529 1.388 . S
Co531 O533 2.143 . S
Co531 O539 2.074 . S
Co531 O542 2.093 . S
Co531 O555 2.097 1_556 S
Co531 N572 2.151 . S
Co531 N580 2.214 . S
Co532 O533 2.160 1_554 S
Co532 O538 2.058 . S
Co532 O548 2.057 1_554 S
Co532 O563 2.037 . S
Co532 N567 2.145 . S
Co532 N588 2.257 . S
O533 Co531 2.143 . S
O533 Co532 2.160 1_556 S
C534 O535 1.278 . S
C534 O542 1.224 . S
O535 C534 1.278 . S
C536 O537 1.245 . S
C536 O548 1.232 . S
O537 C536 1.245 . S
O538 Co532 2.058 . S
O538 C564 1.269 . S
O539 Co531 2.074 . S
O539 C564 1.257 1_556 S
H540 C565 0.930 . S
H541 C571 0.930 . S
O542 Co531 2.093 . S
O542 C534 1.224 . S
H543 C575 0.929 . S
H544 C577 0.930 . S
H545 C578 0.930 1_554 S
H546 C576 0.929 . S
H547 C579 0.928 . S
O548 Co532 2.057 1_556 S
O548 C536 1.232 . S
H549 C568 0.929 . S
H550 C569 0.929 . S
H551 C581 0.931 . S
H552 C573 0.929 . S
H553 C582 0.930 . S
H554 C574 0.931 . S
O555 Co531 2.097 1_554 S
O555 C583 1.214 . S
H556 C584 0.929 . S
H557 C585 0.929 . S
H558 C586 0.930 . S
H559 C587 0.929 . S
H560 C589 0.930 . S
H561 C566 0.930 . S
H562 C570 0.930 . S
O563 Co532 2.037 . S
O563 C583 1.234 . S
C564 O538 1.269 . S
C564 O539 1.257 1_554 S
C565 H540 0.930 . S
C565 C568 1.388 . S
C565 C570 1.418 . S
C566 H561 0.930 . S
C566 C569 1.404 . S
C566 C570 1.353 . S
N567 Co532 2.145 . S
N567 C568 1.397 . S
N567 C569 1.334 . S
C568 H549 0.929 . S
C568 C565 1.388 . S
C568 N567 1.397 . S
C569 H550 0.929 . S
C569 C566 1.404 . S
C569 N567 1.334 . S
C570 H562 0.930 . S
C570 C565 1.418 . S
C570 C566 1.353 . S
C571 H541 0.930 . S
C571 N572 1.330 . S
C571 C573 1.446 . S
N572 Co531 2.151 . S
N572 C571 1.330 . S
N572 C576 1.418 . S
C573 H552 0.929 . S
C573 C571 1.446 . S
C573 C574 1.332 . S
C574 H554 0.931 . S
C574 C573 1.332 . S
C574 C575 1.267 . S
C575 H543 0.929 . S
C575 C574 1.267 . S
C575 C576 1.251 . S
C576 H546 0.929 . S
C576 N572 1.418 . S
C576 C575 1.251 . S
C577 H544 0.930 . S
C577 C579 1.406 . S
C577 C582 1.261 . S
C578 H545 0.930 1_556 S
C578 N580 1.325 . S
C578 C581 1.357 1_556 S
C579 H547 0.928 . S
C579 C577 1.406 . S
C579 N580 1.261 . S
N580 Co531 2.214 . S
N580 C578 1.325 . S
N580 C579 1.261 . S
C581 H551 0.931 . S
C581 C578 1.357 1_554 S
C581 C582 1.312 1_554 S
C582 H553 0.930 . S
C582 C577 1.261 . S
C582 C581 1.312 1_556 S
C583 O555 1.214 . S
C583 O563 1.234 . S
C584 H556 0.929 . S
C584 C587 1.391 1_556 S
C584 C589 1.391 . S
C585 H557 0.929 . S
C585 C586 1.390 . S
C585 N588 1.391 . S
C586 H558 0.930 . S
C586 C585 1.390 . S
C586 C587 1.392 . S
C587 H559 0.929 . S
C587 C584 1.391 1_554 S
C587 C586 1.392 . S
N588 Co532 2.257 . S
N588 C585 1.391 . S
N588 C589 1.388 1_554 S
C589 H560 0.930 . S
C589 C584 1.391 . S
C589 N588 1.388 1_556 S
Co590 O592 2.143 . S
Co590 O598 2.074 . S
Co590 O601 2.093 1_654 S
Co590 O614 2.097 . S
Co590 N631 2.151 1_554 S
Co590 N639 2.214 1_655 S
Co591 O592 2.160 . S
Co591 O597 2.058 . S
Co591 O607 2.057 . S
Co591 O622 2.037 . S
Co591 N626 2.145 . S
Co591 N647 2.257 . S
O592 Co590 2.143 . S
O592 Co591 2.160 . S
C593 O594 1.278 . S
C593 O601 1.224 1_655 S
O594 C593 1.278 . S
C595 O596 1.245 . S
C595 O607 1.232 1_556 S
O596 C595 1.245 . S
O597 Co591 2.058 . S
O597 C623 1.269 . S
O598 Co590 2.074 . S
O598 C623 1.257 . S
H599 C624 0.930 . S
H600 C630 0.930 . S
O601 Co590 2.093 1_456 S
O601 C593 1.224 1_455 S
H602 C634 0.929 . S
H603 C636 0.930 . S
H604 C637 0.930 . S
H605 C635 0.929 . S
H606 C638 0.928 . S
O607 Co591 2.057 . S
O607 C595 1.232 1_554 S
H608 C627 0.929 . S
H609 C628 0.929 . S
H610 C640 0.931 . S
H611 C632 0.929 . S
H612 C641 0.930 . S
H613 C633 0.931 . S
O614 Co590 2.097 . S
O614 C642 1.214 . S
H615 C643 0.929 . S
H616 C644 0.929 . S
H617 C645 0.930 . S
H618 C646 0.929 . S
H619 C648 0.930 . S
H620 C625 0.930 . S
H621 C629 0.930 . S
O622 Co591 2.037 . S
O622 C642 1.234 . S
C623 O597 1.269 . S
C623 O598 1.257 . S
C624 H599 0.930 . S
C624 C627 1.388 . S
C624 C629 1.418 . S
C625 H620 0.930 . S
C625 C628 1.404 . S
C625 C629 1.353 . S
N626 Co591 2.145 . S
N626 C627 1.397 . S
N626 C628 1.334 . S
C627 H608 0.929 . S
C627 C624 1.388 . S
C627 N626 1.397 . S
C628 H609 0.929 . S
C628 C625 1.404 . S
C628 N626 1.334 . S
C629 H621 0.930 . S
C629 C624 1.418 . S
C629 C625 1.353 . S
C630 H600 0.930 . S
C630 N631 1.330 . S
C630 C632 1.446 . S
N631 Co590 2.151 1_556 S
N631 C630 1.330 . S
N631 C635 1.418 . S
C632 H611 0.929 . S
C632 C630 1.446 . S
C632 C633 1.332 . S
C633 H613 0.931 . S
C633 C632 1.332 . S
C633 C634 1.267 . S
C634 H602 0.929 . S
C634 C633 1.267 . S
C634 C635 1.251 . S
C635 H605 0.929 . S
C635 N631 1.418 . S
C635 C634 1.251 . S
C636 H603 0.930 . S
C636 C638 1.406 . S
C636 C641 1.261 1_556 S
C637 H604 0.930 . S
C637 N639 1.325 . S
C637 C640 1.357 . S
C638 H606 0.928 . S
C638 C636 1.406 . S
C638 N639 1.261 1_556 S
N639 Co590 2.214 1_455 S
N639 C637 1.325 . S
N639 C638 1.261 1_554 S
C640 H610 0.931 . S
C640 C637 1.357 . S
C640 C641 1.312 . S
C641 H612 0.930 . S
C641 C636 1.261 1_554 S
C641 C640 1.312 . S
C642 O614 1.214 . S
C642 O622 1.234 . S
C643 H615 0.929 . S
C643 C646 1.391 . S
C643 C648 1.391 . S
C644 H616 0.929 . S
C644 C645 1.390 . S
C644 N647 1.391 . S
C645 H617 0.930 . S
C645 C644 1.390 . S
C645 C646 1.392 . S
C646 H618 0.929 . S
C646 C643 1.391 . S
C646 C645 1.392 . S
N647 Co591 2.257 . S
N647 C644 1.391 . S
N647 C648 1.388 . S
C648 H619 0.930 . S
C648 C643 1.391 . S
C648 N647 1.388 . S
Co649 O651 2.143 . S
Co649 O657 2.074 . S
Co649 O660 2.093 1_565 S
Co649 O673 2.097 . S
Co649 N690 2.151 . S
Co649 N698 2.214 1_565 S
Co650 O651 2.160 . S
Co650 O656 2.058 . S
Co650 O666 2.057 . S
Co650 O681 2.037 . S
Co650 N685 2.145 . S
Co650 N706 2.257 . S
O651 Co649 2.143 . S
O651 Co650 2.160 . S
C652 O653 1.278 . S
C652 O660 1.224 1_565 S
O653 C652 1.278 . S
C654 O655 1.245 . S
C654 O666 1.232 . S
O655 C654 1.245 . S
O656 Co650 2.058 . S
O656 C682 1.269 . S
O657 Co649 2.074 . S
O657 C682 1.257 . S
H658 C683 0.930 . S
H659 C689 0.930 . S
O660 Co649 2.093 1_545 S
O660 C652 1.224 1_545 S
H661 C693 0.929 . S
H662 C695 0.930 . S
H663 C696 0.930 . S
H664 C694 0.929 . S
H665 C697 0.928 . S
O666 Co650 2.057 . S
O666 C654 1.232 . S
H667 C686 0.929 . S
H668 C687 0.929 . S
H669 C699 0.931 . S
H670 C691 0.929 . S
H671 C700 0.930 . S
H672 C692 0.931 . S
O673 Co649 2.097 . S
O673 C701 1.214 . S
H674 C702 0.929 . S
H675 C703 0.929 . S
H676 C704 0.930 . S
H677 C705 0.929 . S
H678 C707 0.930 . S
H679 C684 0.930 . S
H680 C688 0.930 . S
O681 Co650 2.037 . S
O681 C701 1.234 . S
C682 O656 1.269 . S
C682 O657 1.257 . S
C683 H658 0.930 . S
C683 C686 1.388 . S
C683 C688 1.418 . S
C684 H679 0.930 . S
C684 C687 1.404 . S
C684 C688 1.353 . S
N685 Co650 2.145 . S
N685 C686 1.397 . S
N685 C687 1.334 . S
C686 H667 0.929 . S
C686 C683 1.388 . S
C686 N685 1.397 . S
C687 H668 0.929 . S
C687 C684 1.404 . S
C687 N685 1.334 . S
C688 H680 0.930 . S
C688 C683 1.418 . S
C688 C684 1.353 . S
C689 H659 0.930 . S
C689 N690 1.330 1_556 S
C689 C691 1.446 . S
N690 Co649 2.151 . S
N690 C689 1.330 1_554 S
N690 C694 1.418 . S
C691 H670 0.929 . S
C691 C689 1.446 . S
C691 C692 1.332 . S
C692 H672 0.931 . S
C692 C691 1.332 . S
C692 C693 1.267 . S
C693 H661 0.929 . S
C693 C692 1.267 . S
C693 C694 1.251 1_556 S
C694 H664 0.929 . S
C694 N690 1.418 . S
C694 C693 1.251 1_554 S
C695 H662 0.930 . S
C695 C697 1.406 . S
C695 C700 1.261 . S
C696 H663 0.930 . S
C696 N698 1.325 . S
C696 C699 1.357 . S
C697 H665 0.928 . S
C697 C695 1.406 . S
C697 N698 1.261 . S
N698 Co649 2.214 1_545 S
N698 C696 1.325 . S
N698 C697 1.261 . S
C699 H669 0.931 . S
C699 C696 1.357 . S
C699 C700 1.312 . S
C700 H671 0.930 . S
C700 C695 1.261 . S
C700 C699 1.312 . S
C701 O673 1.214 . S
C701 O681 1.234 . S
C702 H674 0.929 . S
C702 C705 1.391 . S
C702 C707 1.391 . S
C703 H675 0.929 . S
C703 C704 1.390 . S
C703 N706 1.391 . S
C704 H676 0.930 . S
C704 C703 1.390 . S
C704 C705 1.392 . S
C705 H677 0.929 . S
C705 C702 1.391 . S
C705 C704 1.392 . S
N706 Co650 2.257 . S
N706 C703 1.391 . S
N706 C707 1.388 . S
C707 H678 0.930 . S
C707 C702 1.391 . S
C707 N706 1.388 . S
C583 C52 2.191 . S
C111 C642 2.191 1_455 S
C701 C170 2.191 1_565 S
C406 C229 2.191 . S
C465 C288 2.191 1_455 S
C524 C347 2.191 1_546 S
C387 C33 2.820 . S
C92 C446 2.820 . S
C505 C151 2.820 . S
C210 C564 2.820 1_556 S
C623 C269 2.820 1_554 S
C328 C682 2.820 . S
C534 C3 1.312 . S
C593 C62 1.313 1_655 S
C652 C121 1.312 1_564 S
C180 C357 1.312 . S
C416 C239 1.312 1_455 S
C298 C475 1.312 1_565 S
C5 C477 1.648 . S
C536 C64 1.647 . S
C595 C123 1.648 . S
C654 C182 1.647 . S
C359 C241 1.648 . S
C418 C300 1.648 . S
