# Generated by pormake.
# Topology nfb, (4)-cn, num edge types: 1
# Building blocks:
#     Node 0, Type 0, BuildingBlock: AZAVOO_clean_sbu_0, # of connection points: 4
#     Node 1, Type 0, BuildingBlock: AZAVOO_clean_sbu_0, # of connection points: 4
#     Node 2, Type 0, BuildingBlock: AZAVOO_clean_sbu_0, # of connection points: 4
#     Node 3, Type 0, BuildingBlock: AZAVOO_clean_sbu_0, # of connection points: 4
#     Node 4, Type 0, BuildingBlock: AZAVOO_clean_sbu_0, # of connection points: 4
#     Node 5, Type 0, BuildingBlock: AZAVOO_clean_sbu_0, # of connection points: 4
#     Node 6, Type 0, BuildingBlock: AZAVOO_clean_sbu_0, # of connection points: 4
#     Node 7, Type 0, BuildingBlock: AZAVOO_clean_sbu_0, # of connection points: 4
#     Node 8, Type 0, BuildingBlock: AZAVOO_clean_sbu_0, # of connection points: 4
#     Node 9, Type 0, BuildingBlock: AZAVOO_clean_sbu_0, # of connection points: 4
#     Node 10, Type 0, BuildingBlock: AZAVOO_clean_sbu_0, # of connection points: 4
#     Node 11, Type 0, BuildingBlock: AZAVOO_clean_sbu_0, # of connection points: 4
#     Node 12, Type 0, BuildingBlock: AZAVOO_clean_sbu_0, # of connection points: 4
#     Node 13, Type 0, BuildingBlock: AZAVOO_clean_sbu_0, # of connection points: 4
#     Node 14, Type 0, BuildingBlock: AZAVOO_clean_sbu_0, # of connection points: 4
#     Node 15, Type 0, BuildingBlock: AZAVOO_clean_sbu_0, # of connection points: 4
#     Node 16, Type 0, BuildingBlock: AZAVOO_clean_sbu_0, # of connection points: 4
#     Node 17, Type 0, BuildingBlock: AZAVOO_clean_sbu_0, # of connection points: 4
#     Node 18, Type 0, BuildingBlock: AZAVOO_clean_sbu_0, # of connection points: 4
#     Node 19, Type 0, BuildingBlock: AZAVOO_clean_sbu_0, # of connection points: 4
#     Node 20, Type 0, BuildingBlock: AZAVOO_clean_sbu_0, # of connection points: 4
#     Node 21, Type 0, BuildingBlock: AZAVOO_clean_sbu_0, # of connection points: 4
#     Node 22, Type 0, BuildingBlock: AZAVOO_clean_sbu_0, # of connection points: 4
#     Node 23, Type 0, BuildingBlock: AZAVOO_clean_sbu_0, # of connection points: 4
#     Node 24, Type 0, BuildingBlock: AZAVOO_clean_sbu_0, # of connection points: 4
#     Node 25, Type 0, BuildingBlock: AZAVOO_clean_sbu_0, # of connection points: 4
#     Node 26, Type 0, BuildingBlock: AZAVOO_clean_sbu_0, # of connection points: 4
#     Node 27, Type 0, BuildingBlock: AZAVOO_clean_sbu_0, # of connection points: 4
#     Node 28, Type 0, BuildingBlock: AZAVOO_clean_sbu_0, # of connection points: 4
#     Node 29, Type 0, BuildingBlock: AZAVOO_clean_sbu_0, # of connection points: 4
#     Node 30, Type 0, BuildingBlock: AZAVOO_clean_sbu_0, # of connection points: 4
#     Node 31, Type 0, BuildingBlock: AZAVOO_clean_sbu_0, # of connection points: 4
#     Node 32, Type 0, BuildingBlock: AZAVOO_clean_sbu_0, # of connection points: 4
#     Node 33, Type 0, BuildingBlock: AZAVOO_clean_sbu_0, # of connection points: 4
#     Node 34, Type 0, BuildingBlock: AZAVOO_clean_sbu_0, # of connection points: 4
#     Node 35, Type 0, BuildingBlock: AZAVOO_clean_sbu_0, # of connection points: 4
#     Node 36, Type 0, BuildingBlock: AZAVOO_clean_sbu_0, # of connection points: 4
#     Node 37, Type 0, BuildingBlock: AZAVOO_clean_sbu_0, # of connection points: 4
#     Node 38, Type 0, BuildingBlock: AZAVOO_clean_sbu_0, # of connection points: 4
#     Node 39, Type 0, BuildingBlock: AZAVOO_clean_sbu_0, # of connection points: 4
#     Node 40, Type 0, BuildingBlock: AZAVOO_clean_sbu_0, # of connection points: 4
#     Node 41, Type 0, BuildingBlock: AZAVOO_clean_sbu_0, # of connection points: 4
#     Node 42, Type 0, BuildingBlock: AZAVOO_clean_sbu_0, # of connection points: 4
#     Node 43, Type 0, BuildingBlock: AZAVOO_clean_sbu_0, # of connection points: 4
#     Node 44, Type 0, BuildingBlock: AZAVOO_clean_sbu_0, # of connection points: 4
#     Node 45, Type 0, BuildingBlock: AZAVOO_clean_sbu_0, # of connection points: 4
#     Node 46, Type 0, BuildingBlock: AZAVOO_clean_sbu_0, # of connection points: 4
#     Node 47, Type 0, BuildingBlock: AZAVOO_clean_sbu_0, # of connection points: 4
#     Edge 48, Type (0, 0), None
#     Edge 49, Type (0, 0), None
#     Edge 50, Type (0, 0), None
#     Edge 51, Type (0, 0), None
#     Edge 52, Type (0, 0), None
#     Edge 53, Type (0, 0), None
#     Edge 54, Type (0, 0), None
#     Edge 55, Type (0, 0), None
#     Edge 56, Type (0, 0), None
#     Edge 57, Type (0, 0), None
#     Edge 58, Type (0, 0), None
#     Edge 59, Type (0, 0), None
#     Edge 60, Type (0, 0), None
#     Edge 61, Type (0, 0), None
#     Edge 62, Type (0, 0), None
#     Edge 63, Type (0, 0), None
#     Edge 64, Type (0, 0), None
#     Edge 65, Type (0, 0), None
#     Edge 66, Type (0, 0), None
#     Edge 67, Type (0, 0), None
#     Edge 68, Type (0, 0), None
#     Edge 69, Type (0, 0), None
#     Edge 70, Type (0, 0), None
#     Edge 71, Type (0, 0), None
#     Edge 72, Type (0, 0), None
#     Edge 73, Type (0, 0), None
#     Edge 74, Type (0, 0), None
#     Edge 75, Type (0, 0), None
#     Edge 76, Type (0, 0), None
#     Edge 77, Type (0, 0), None
#     Edge 78, Type (0, 0), None
#     Edge 79, Type (0, 0), None
#     Edge 80, Type (0, 0), None
#     Edge 81, Type (0, 0), None
#     Edge 82, Type (0, 0), None
#     Edge 83, Type (0, 0), None
#     Edge 84, Type (0, 0), None
#     Edge 85, Type (0, 0), None
#     Edge 86, Type (0, 0), None
#     Edge 87, Type (0, 0), None
#     Edge 88, Type (0, 0), None
#     Edge 89, Type (0, 0), None
#     Edge 90, Type (0, 0), None
#     Edge 91, Type (0, 0), None
#     Edge 92, Type (0, 0), None
#     Edge 93, Type (0, 0), None
#     Edge 94, Type (0, 0), None
#     Edge 95, Type (0, 0), None
#     Edge 96, Type (0, 0), None
#     Edge 97, Type (0, 0), None
#     Edge 98, Type (0, 0), None
#     Edge 99, Type (0, 0), None
#     Edge 100, Type (0, 0), None
#     Edge 101, Type (0, 0), None
#     Edge 102, Type (0, 0), None
#     Edge 103, Type (0, 0), None
#     Edge 104, Type (0, 0), None
#     Edge 105, Type (0, 0), None
#     Edge 106, Type (0, 0), None
#     Edge 107, Type (0, 0), None
#     Edge 108, Type (0, 0), None
#     Edge 109, Type (0, 0), None
#     Edge 110, Type (0, 0), None
#     Edge 111, Type (0, 0), None
#     Edge 112, Type (0, 0), None
#     Edge 113, Type (0, 0), None
#     Edge 114, Type (0, 0), None
#     Edge 115, Type (0, 0), None
#     Edge 116, Type (0, 0), None
#     Edge 117, Type (0, 0), None
#     Edge 118, Type (0, 0), None
#     Edge 119, Type (0, 0), None
#     Edge 120, Type (0, 0), None
#     Edge 121, Type (0, 0), None
#     Edge 122, Type (0, 0), None
#     Edge 123, Type (0, 0), None
#     Edge 124, Type (0, 0), None
#     Edge 125, Type (0, 0), None
#     Edge 126, Type (0, 0), None
#     Edge 127, Type (0, 0), None
#     Edge 128, Type (0, 0), None
#     Edge 129, Type (0, 0), None
#     Edge 130, Type (0, 0), None
#     Edge 131, Type (0, 0), None
#     Edge 132, Type (0, 0), None
#     Edge 133, Type (0, 0), None
#     Edge 134, Type (0, 0), None
#     Edge 135, Type (0, 0), None
#     Edge 136, Type (0, 0), None
#     Edge 137, Type (0, 0), None
#     Edge 138, Type (0, 0), None
#     Edge 139, Type (0, 0), None
#     Edge 140, Type (0, 0), None
#     Edge 141, Type (0, 0), None
#     Edge 142, Type (0, 0), None
#     Edge 143, Type (0, 0), None
# Relax obj value: 0.363
# Max RMSD: 0.291
# Mean RMSD: 0.205
data_MOF--net-nfb--node1-AZAVOO_clean_sbu_0--edge1-none
_symmetry_space_group_name_H-M    P1
_symmetry_Int_Tables_number       1
_symmetry_cell_setting            triclinic
loop_
_symmetry_equiv_pos_as_xyz
'x, y, z'
_cell_length_a     26.393827
_cell_length_b     27.214272
_cell_length_c     27.469549
_cell_angle_alpha  89.963587
_cell_angle_beta   90.027041
_cell_angle_gamma 88.194364
loop_
_atom_site_label
_atom_site_type_symbol
_atom_site_fract_x
_atom_site_fract_y
_atom_site_fract_z
_atom_type_partial_charge
Mg0 Mg 0.11153 0.08137 0.36988 0.0
O1 O 0.11089 0.16637 0.36053 0.0
O2 O 0.03339 0.19201 0.38349 0.0
Mg3 Mg 0.98281 0.12768 0.40253 0.0
C4 C 0.0781 0.20085 0.36897 0.0
C5 C 0.2414 0.09368 0.375 0.0
O6 O 0.28389 0.07711 0.35559 0.0
O7 O 0.11492 0.08378 0.45449 0.0
O8 O 0.0325 0.1022 0.46529 0.0
O9 O 0.07838 0.07221 0.29367 0.0
O10 O 0.0307 0.07937 0.35839 0.0
C11 C 0.07575 0.08835 0.48184 0.0
C12 C 0.03334 0.07455 0.3122 0.0
O13 O 0.19985 0.07597 0.35987 0.0
Mg14 Mg 0.42344 0.58762 0.85854 0.0
O15 O 0.33583 0.60494 0.86487 0.0
O16 O 0.31119 0.5389 0.90555 0.0
Mg17 Mg 0.36975 0.47701 0.91635 0.0
C18 C 0.30215 0.58171 0.88814 0.0
C19 C 0.43741 0.70212 0.88801 0.0
O20 O 0.45369 0.68587 0.93031 0.0
O21 O 0.42654 0.59528 0.93869 0.0
O22 O 0.39986 0.52731 0.97539 0.0
O23 O 0.41895 0.53933 0.78749 0.0
O24 O 0.4156 0.5108 0.86097 0.0
C25 C 0.41813 0.57011 0.97661 0.0
C26 C 0.41456 0.50187 0.81581 0.0
O27 O 0.43034 0.67238 0.85253 0.0
Mg28 Mg 0.88929 0.9054 0.36978 0.0
O29 O 0.88992 0.8204 0.36056 0.0
O30 O 0.96741 0.79476 0.38365 0.0
Mg31 Mg 0.01799 0.85911 0.40263 0.0
C32 C 0.92271 0.78592 0.36908 0.0
C33 C 0.75942 0.89315 0.37491 0.0
O34 O 0.71691 0.90977 0.35551 0.0
O35 O 0.88592 0.90306 0.45438 0.0
O36 O 0.96833 0.88467 0.46533 0.0
O37 O 0.92239 0.91454 0.29357 0.0
O38 O 0.97012 0.9074 0.35833 0.0
C39 C 0.92508 0.89853 0.48179 0.0
C40 C 0.96743 0.91221 0.31212 0.0
O41 O 0.80097 0.91083 0.35975 0.0
Mg42 Mg 0.57719 0.39927 0.85884 0.0
O43 O 0.66478 0.38191 0.86499 0.0
O44 O 0.68968 0.44796 0.90543 0.0
Mg45 Mg 0.63119 0.5099 0.9163 0.0
C46 C 0.6986 0.40514 0.88807 0.0
C47 C 0.56337 0.28466 0.88816 0.0
O48 O 0.54724 0.30081 0.93051 0.0
O49 O 0.57435 0.39174 0.93904 0.0
O50 O 0.60133 0.4597 0.97552 0.0
O51 O 0.58154 0.4475 0.78775 0.0
O52 O 0.58502 0.47608 0.86119 0.0
C53 C 0.58299 0.41694 0.97688 0.0
C54 C 0.58599 0.48497 0.81601 0.0
O55 O 0.57033 0.3145 0.85271 0.0
Mg56 Mg 0.13569 0.94918 0.6054 0.0
O57 O 0.09646 0.95744 0.52776 0.0
O58 O 0.16713 0.96491 0.49152 0.0
Mg59 Mg 0.15056 0.8854 0.51695 0.0
C60 C 0.11961 0.96695 0.48838 0.0
C61 C 0.02548 0.93925 0.66748 0.0
O62 O 0.04521 0.95264 0.7091 0.0
O63 O 0.14262 0.85936 0.61211 0.0
O64 O 0.13928 0.81314 0.54534 0.0
O65 O 0.22155 0.96516 0.5786 0.0
O66 O 0.19603 0.89393 0.57853 0.0
C67 C 0.14184 0.81679 0.59117 0.0
C68 C 0.23126 0.92083 0.56772 0.0
O69 O 0.05314 0.93442 0.62957 0.0
Mg70 Mg 0.62053 0.61491 0.12035 0.0
O71 O 0.70717 0.61741 0.12837 0.0
O72 O 0.74014 0.54453 0.14471 0.0
Mg73 Mg 0.68743 0.50199 0.09406 0.0
C74 C 0.74541 0.59036 0.13973 0.0
C75 C 0.62893 0.73332 0.09452 0.0
O76 O 0.61898 0.72472 0.04853 0.0
O77 O 0.63376 0.62127 0.04292 0.0
O78 O 0.68996 0.55934 0.02934 0.0
O79 O 0.60528 0.58046 0.19247 0.0
O80 O 0.61628 0.53623 0.12561 0.0
C81 C 0.66505 0.59824 0.01582 0.0
C82 C 0.60459 0.53806 0.17103 0.0
O83 O 0.62614 0.69919 0.12652 0.0
Mg84 Mg 0.86523 0.03771 0.60554 0.0
O85 O 0.90451 0.02942 0.52797 0.0
O86 O 0.83385 0.02193 0.49171 0.0
Mg87 Mg 0.85053 0.10143 0.51714 0.0
C88 C 0.88136 0.0199 0.48859 0.0
C89 C 0.97547 0.04761 0.66759 0.0
O90 O 0.95576 0.03412 0.70919 0.0
O91 O 0.85828 0.1275 0.61227 0.0
O92 O 0.86178 0.17371 0.54545 0.0
O93 O 0.77935 0.02174 0.57871 0.0
O94 O 0.80484 0.09299 0.57856 0.0
C95 C 0.85912 0.17007 0.59128 0.0
C96 C 0.7696 0.06607 0.56778 0.0
O97 O 0.94778 0.05249 0.62967 0.0
Mg98 Mg 0.38041 0.37139 0.12033 0.0
O99 O 0.29371 0.36917 0.12857 0.0
O100 O 0.26079 0.44221 0.14445 0.0
Mg101 Mg 0.31382 0.48459 0.09403 0.0
C102 C 0.25549 0.39635 0.13973 0.0
C103 C 0.37238 0.25367 0.09441 0.0
O104 O 0.38205 0.26258 0.04843 0.0
O105 O 0.36677 0.36536 0.04292 0.0
O106 O 0.3108 0.42748 0.02923 0.0
O107 O 0.39628 0.40527 0.19257 0.0
O108 O 0.38443 0.44934 0.12552 0.0
C109 C 0.33559 0.38852 0.01576 0.0
C110 C 0.39655 0.44757 0.17086 0.0
O111 O 0.3752 0.28755 0.12656 0.0
Mg112 Mg 0.34888 0.12066 0.15168 0.0
O113 O 0.43144 0.10992 0.13821 0.0
O114 O 0.47386 0.17683 0.15746 0.0
Mg115 Mg 0.41755 0.22857 0.1975 0.0
C116 C 0.47185 0.13372 0.13927 0.0
C117 C 0.32932 0.00388 0.10758 0.0
O118 O 0.3024 0.01657 0.06912 0.0
O119 O 0.36529 0.10327 0.23255 0.0
O120 O 0.40862 0.16943 0.25474 0.0
O121 O 0.34712 0.16855 0.08227 0.0
O122 O 0.35638 0.1971 0.15627 0.0
C123 C 0.39027 0.12767 0.26381 0.0
C124 C 0.35659 0.20499 0.11073 0.0
O125 O 0.34524 0.03653 0.13671 0.0
Mg126 Mg 0.37311 0.86284 0.58257 0.0
O127 O 0.40197 0.94045 0.57234 0.0
O128 O 0.34582 0.98643 0.61457 0.0
Mg129 Mg 0.28909 0.94578 0.66008 0.0
C130 C 0.38298 0.98204 0.58507 0.0
C131 C 0.4896 0.80954 0.53606 0.0
O132 O 0.48294 0.76931 0.51088 0.0
O133 O 0.40314 0.85741 0.65958 0.0
O134 O 0.34965 0.90611 0.70294 0.0
O135 O 0.30715 0.88437 0.52847 0.0
O136 O 0.30209 0.88974 0.60707 0.0
C137 C 0.38744 0.87612 0.69973 0.0
C138 C 0.28239 0.89885 0.56653 0.0
O139 O 0.45137 0.83205 0.55519 0.0
Mg140 Mg 0.65228 0.86661 0.152 0.0
O141 O 0.57002 0.87705 0.13808 0.0
O142 O 0.52709 0.81036 0.1569 0.0
Mg143 Mg 0.58337 0.75843 0.19715 0.0
C144 C 0.52947 0.85352 0.1388 0.0
C145 C 0.67027 0.98295 0.10711 0.0
O146 O 0.69535 0.9691 0.06796 0.0
O147 O 0.63547 0.88355 0.2328 0.0
O148 O 0.59211 0.81728 0.25465 0.0
O149 O 0.65418 0.81859 0.08257 0.0
O150 O 0.64494 0.7899 0.15644 0.0
C151 C 0.61041 0.85901 0.26389 0.0
C152 C 0.6448 0.78203 0.11094 0.0
O153 O 0.65531 0.95111 0.13763 0.0
Mg154 Mg 0.62774 0.12403 0.58259 0.0
O155 O 0.59887 0.04642 0.57236 0.0
O156 O 0.655 0.00039 0.61466 0.0
Mg157 Mg 0.71173 0.04101 0.6602 0.0
C158 C 0.61785 0.00481 0.58512 0.0
C159 C 0.51122 0.17735 0.53602 0.0
O160 O 0.51783 0.21761 0.51081 0.0
O161 O 0.59771 0.12944 0.65956 0.0
O162 O 0.65119 0.08072 0.70301 0.0
O163 O 0.69367 0.10256 0.52851 0.0
O164 O 0.69877 0.09707 0.60712 0.0
C165 C 0.61341 0.11073 0.69974 0.0
C166 C 0.71846 0.08802 0.56659 0.0
O167 O 0.54947 0.15484 0.55516 0.0
Mg168 Mg 0.38557 0.84146 0.86179 0.0
O169 O 0.46191 0.87458 0.87046 0.0
O170 O 0.5172 0.82746 0.82868 0.0
Mg171 Mg 0.47902 0.76371 0.79082 0.0
C172 C 0.50644 0.86455 0.85567 0.0
C173 C 0.33649 0.95324 0.91709 0.0
O174 O 0.32014 0.94547 0.96146 0.0
O175 O 0.38446 0.86938 0.78441 0.0
O176 O 0.43809 0.81916 0.74243 0.0
O177 O 0.40462 0.78111 0.91883 0.0
O178 O 0.4156 0.77145 0.84074 0.0
C179 C 0.40636 0.8554 0.74497 0.0
C180 C 0.41919 0.75339 0.88299 0.0
O181 O 0.35504 0.91752 0.89174 0.0
Mg182 Mg 0.62969 0.86442 0.42949 0.0
O183 O 0.62894 0.86139 0.34681 0.0
O184 O 0.55897 0.90181 0.32036 0.0
Mg185 Mg 0.51317 0.93065 0.38678 0.0
C186 C 0.60084 0.8782 0.31258 0.0
C187 C 0.75801 0.85359 0.41151 0.0
O188 O 0.80069 0.8313 0.42458 0.0
O189 O 0.64966 0.94439 0.4252 0.0
O190 O 0.57707 0.98228 0.40225 0.0
O191 O 0.58018 0.79689 0.42857 0.0
O192 O 0.54986 0.87292 0.43021 0.0
C193 C 0.62355 0.98316 0.4146 0.0
C194 C 0.54133 0.82711 0.42673 0.0
O195 O 0.71645 0.83986 0.43086 0.0
Mg196 Mg 0.61529 0.14536 0.86178 0.0
O197 O 0.53897 0.1122 0.87043 0.0
O198 O 0.48364 0.15934 0.82861 0.0
Mg199 Mg 0.52182 0.22311 0.79071 0.0
C200 C 0.49443 0.12224 0.85564 0.0
C201 C 0.66438 0.03348 0.91707 0.0
O202 O 0.68072 0.04119 0.96146 0.0
O203 O 0.61642 0.11748 0.78442 0.0
O204 O 0.56276 0.16768 0.74237 0.0
O205 O 0.59623 0.20558 0.91885 0.0
O206 O 0.58521 0.21543 0.84077 0.0
C207 C 0.5945 0.13146 0.74495 0.0
C208 C 0.58161 0.23339 0.88305 0.0
O209 O 0.64582 0.06924 0.89171 0.0
Mg210 Mg 0.37116 0.12245 0.4295 0.0
O211 O 0.37178 0.12528 0.34674 0.0
O212 O 0.44154 0.08458 0.32033 0.0
Mg213 Mg 0.48733 0.05578 0.38688 0.0
C214 C 0.39973 0.10832 0.3125 0.0
C215 C 0.24283 0.13324 0.41153 0.0
O216 O 0.20015 0.15551 0.42459 0.0
O217 O 0.35115 0.04258 0.4258 0.0
O218 O 0.42337 0.00419 0.40273 0.0
O219 O 0.42067 0.18989 0.42836 0.0
O220 O 0.45092 0.11381 0.43018 0.0
C221 C 0.37695 0.00362 0.41533 0.0
C222 C 0.45948 0.15961 0.42662 0.0
O223 O 0.28441 0.14701 0.43085 0.0
Mg224 Mg 0.08202 0.37845 0.11593 0.0
O225 O 0.16509 0.3909 0.14169 0.0
O226 O 0.20875 0.37265 0.07344 0.0
Mg227 Mg 0.15911 0.39485 0.00864 0.0
C228 C 0.20693 0.38173 0.1191 0.0
C229 C 0.04392 0.42281 0.23244 0.0
O230 O 0.00179 0.44379 0.24861 0.0
O231 O 0.07566 0.4586 0.09458 0.0
O232 O 0.14656 0.46653 0.05282 0.0
O233 O 0.01701 0.36194 0.06248 0.0
O234 O 0.09705 0.35615 0.04283 0.0
C235 C 0.11175 0.48456 0.0802 0.0
C236 C 0.05084 0.35445 0.02902 0.0
O237 O 0.04599 0.4103 0.18755 0.0
Mg238 Mg 0.14034 0.65021 0.88213 0.0
O239 O 0.22891 0.63761 0.88007 0.0
O240 O 0.23666 0.58812 0.94448 0.0
Mg241 Mg 0.17367 0.5876 0.00089 0.0
C242 C 0.25407 0.60555 0.90505 0.0
C243 C 0.13073 0.61935 0.76418 0.0
O244 O 0.09533 0.58756 0.77284 0.0
O245 O 0.13344 0.57013 0.87896 0.0
O246 O 0.14066 0.53014 0.95025 0.0
O247 O 0.13183 0.72116 0.93344 0.0
O248 O 0.1364 0.64762 0.96048 0.0
C249 C 0.13193 0.53139 0.90451 0.0
C250 C 0.13038 0.69256 0.97042 0.0
O251 O 0.14563 0.64864 0.79748 0.0
Mg252 Mg 0.89512 0.61893 0.35103 0.0
O253 O 0.97875 0.61734 0.36557 0.0
O254 O 0.02416 0.64346 0.30273 0.0
Mg255 Mg 0.96496 0.6754 0.24848 0.0
C256 C 0.02098 0.62491 0.34532 0.0
C257 C 0.88699 0.56334 0.467 0.0
O258 O 0.88725 0.5167 0.4548 0.0
O259 O 0.89507 0.70258 0.3706 0.0
O260 O 0.93994 0.72992 0.30733 0.0
O261 O 0.9094 0.55068 0.30547 0.0
O262 O 0.90822 0.62453 0.27379 0.0
C263 C 0.91613 0.7373 0.34717 0.0
C264 C 0.91798 0.57867 0.26844 0.0
O265 O 0.88812 0.59712 0.43427 0.0
Mg266 Mg 0.86029 0.3362 0.88193 0.0
O267 O 0.77173 0.34913 0.87997 0.0
O268 O 0.76414 0.39854 0.94439 0.0
Mg269 Mg 0.82699 0.39889 0.00098 0.0
C270 C 0.74668 0.38122 0.90494 0.0
C271 C 0.87 0.36775 0.76394 0.0
O272 O 0.90556 0.39939 0.77255 0.0
O273 O 0.86777 0.4163 0.8795 0.0
O274 O 0.86026 0.45642 0.95061 0.0
O275 O 0.86947 0.26547 0.93389 0.0
O276 O 0.86415 0.33894 0.9605 0.0
C277 C 0.86929 0.45507 0.90495 0.0
C278 C 0.87066 0.29414 0.97071 0.0
O279 O 0.85498 0.33854 0.79727 0.0
Mg280 Mg 0.10569 0.36785 0.35099 0.0
O281 O 0.02202 0.36944 0.36537 0.0
O282 O 0.9767 0.34339 0.30242 0.0
Mg283 Mg 0.03595 0.31151 0.2483 0.0
C284 C 0.97981 0.36189 0.34501 0.0
C285 C 0.11391 0.42339 0.4669 0.0
O286 O 0.11374 0.47001 0.45461 0.0
O287 O 0.10573 0.28418 0.37054 0.0
O288 O 0.06092 0.25692 0.30719 0.0
O289 O 0.09147 0.43617 0.30542 0.0
O290 O 0.09266 0.36234 0.27373 0.0
C291 C 0.08471 0.24948 0.34706 0.0
C292 C 0.0829 0.40821 0.2684 0.0
O293 O 0.11272 0.38958 0.43425 0.0
Mg294 Mg 0.91883 0.60844 0.11595 0.0
O295 O 0.83579 0.59599 0.1417 0.0
O296 O 0.79207 0.61401 0.07337 0.0
Mg297 Mg 0.84172 0.59198 0.00861 0.0
C298 C 0.79393 0.60499 0.11905 0.0
C299 C 0.95698 0.56411 0.23253 0.0
O300 O 0.9991 0.54311 0.24876 0.0
O301 O 0.92511 0.52826 0.09479 0.0
O302 O 0.85427 0.52028 0.05287 0.0
O303 O 0.98384 0.62487 0.06252 0.0
O304 O 0.90378 0.63069 0.04279 0.0
C305 C 0.88903 0.50229 0.08038 0.0
C306 C 0.95 0.63235 0.02902 0.0
O307 O 0.95489 0.57662 0.18762 0.0
Mg308 Mg 0.82657 0.33309 0.62777 0.0
O309 O 0.9066 0.34136 0.60437 0.0
O310 O 0.95751 0.30553 0.65975 0.0
Mg311 Mg 0.90929 0.26641 0.71753 0.0
C312 C 0.95029 0.33021 0.62053 0.0
C313 C 0.78891 0.38775 0.51594 0.0
O314 O 0.75325 0.42037 0.52752 0.0
O315 O 0.83467 0.25332 0.60207 0.0
O316 O 0.88233 0.21469 0.65939 0.0
O317 O 0.83926 0.39499 0.68368 0.0
O318 O 0.84628 0.31643 0.70035 0.0
C319 C 0.85698 0.21483 0.61994 0.0
C320 C 0.85062 0.36035 0.71442 0.0
O321 O 0.81003 0.36081 0.54878 0.0
Mg322 Mg 0.17433 0.6538 0.62801 0.0
O323 O 0.09432 0.64547 0.60444 0.0
O324 O 0.04337 0.68134 0.65967 0.0
Mg325 Mg 0.09149 0.72054 0.71746 0.0
C326 C 0.05062 0.65662 0.62051 0.0
C327 C 0.21201 0.59903 0.51627 0.0
O328 O 0.24765 0.56634 0.52778 0.0
O329 O 0.16625 0.73354 0.60212 0.0
O330 O 0.11854 0.77219 0.65929 0.0
O331 O 0.16155 0.59199 0.68406 0.0
O332 O 0.15454 0.67057 0.7005 0.0
C333 C 0.14393 0.77204 0.61989 0.0
C334 C 0.15018 0.62668 0.71468 0.0
O335 O 0.191 0.62592 0.54916 0.0
Mg336 Mg 0.88583 0.88496 0.64507 0.0
O337 O 0.88699 0.89846 0.56051 0.0
O338 O 0.96631 0.91866 0.55341 0.0
Mg339 Mg 0.01071 0.85554 0.58763 0.0
C340 C 0.9239 0.91074 0.53395 0.0
C341 C 0.75744 0.89557 0.62795 0.0
O342 O 0.71598 0.91957 0.64119 0.0
O343 O 0.87273 0.80789 0.62386 0.0
O344 O 0.94634 0.80298 0.58291 0.0
O345 O 0.93351 0.94884 0.66867 0.0
O346 O 0.96804 0.87702 0.65146 0.0
C347 C 0.90326 0.78637 0.59437 0.0
C348 C 0.97377 0.92074 0.66594 0.0
O349 O 0.79956 0.9081 0.64685 0.0
Mg350 Mg 0.58258 0.37597 0.13771 0.0
O351 O 0.66453 0.38584 0.13187 0.0
O352 O 0.70046 0.32555 0.0872 0.0
Mg353 Mg 0.63762 0.27924 0.05509 0.0
C354 C 0.70299 0.36412 0.11356 0.0
C355 C 0.5837 0.49484 0.19585 0.0
O356 O 0.56295 0.5004 0.239 0.0
O357 O 0.57404 0.40997 0.06239 0.0
O358 O 0.60665 0.347 0.01849 0.0
O359 O 0.60386 0.31841 0.19461 0.0
O360 O 0.59222 0.30095 0.11727 0.0
C361 C 0.58598 0.38973 0.0219 0.0
C362 C 0.60822 0.28735 0.15907 0.0
O363 O 0.58328 0.45272 0.17531 0.0
Mg364 Mg 0.11514 0.10184 0.64518 0.0
O365 O 0.11381 0.08848 0.56062 0.0
O366 O 0.03445 0.06842 0.55347 0.0
Mg367 Mg 0.9902 0.13149 0.58785 0.0
C368 C 0.07688 0.07625 0.53404 0.0
C369 C 0.24348 0.0912 0.62793 0.0
O370 O 0.28497 0.06717 0.64112 0.0
O371 O 0.12834 0.17892 0.62405 0.0
O372 O 0.05465 0.18393 0.58318 0.0
O373 O 0.06743 0.03796 0.66873 0.0
O374 O 0.03293 0.10984 0.65163 0.0
C375 C 0.09777 0.20049 0.59458 0.0
C376 C 0.02719 0.06609 0.66606 0.0
O377 O 0.2014 0.07864 0.64687 0.0
Mg378 Mg 0.41813 0.60949 0.13782 0.0
O379 O 0.33636 0.59943 0.13043 0.0
O380 O 0.30081 0.66111 0.08728 0.0
Mg381 Mg 0.36443 0.70741 0.05649 0.0
C382 C 0.29803 0.62186 0.11266 0.0
C383 C 0.41682 0.4912 0.19504 0.0
O384 O 0.43769 0.48698 0.23829 0.0
O385 O 0.42789 0.5769 0.06203 0.0
O386 O 0.39478 0.64001 0.01858 0.0
O387 O 0.39412 0.66448 0.19563 0.0
O388 O 0.40885 0.68461 0.11922 0.0
C389 C 0.41555 0.59728 0.02168 0.0
C390 C 0.39071 0.69647 0.16078 0.0
O391 O 0.41648 0.53261 0.17327 0.0
Mg392 Mg 0.86799 0.07305 0.34476 0.0
O393 O 0.88742 0.15084 0.37452 0.0
O394 O 0.82531 0.17111 0.42805 0.0
Mg395 Mg 0.7995 0.09904 0.45329 0.0
C396 C 0.86319 0.18177 0.40173 0.0
C397 C 0.9874 0.07261 0.28123 0.0
O398 O 0.99311 0.06694 0.23409 0.0
O399 O 0.90646 0.02119 0.40514 0.0
O400 O 0.88471 0.08742 0.4402 0.0
O401 O 0.80085 0.12195 0.31302 0.0
O402 O 0.79527 0.07765 0.37881 0.0
C403 C 0.90089 0.04412 0.44497 0.0
C404 C 0.77581 0.11059 0.35157 0.0
O405 O 0.94244 0.07238 0.29874 0.0
Mg406 Mg 0.36745 0.34204 0.85955 0.0
O407 O 0.28573 0.35797 0.84004 0.0
O408 O 0.23904 0.30477 0.88194 0.0
Mg409 Mg 0.28799 0.25442 0.92841 0.0
C410 C 0.24344 0.34029 0.85209 0.0
C411 C 0.40599 0.45081 0.79958 0.0
O412 O 0.42038 0.43579 0.7562 0.0
O413 O 0.35164 0.37838 0.93278 0.0
O414 O 0.30597 0.32298 0.97204 0.0
O415 O 0.36992 0.28233 0.8015 0.0
O416 O 0.34881 0.26846 0.8773 0.0
C417 C 0.32629 0.36482 0.96962 0.0
C418 C 0.35263 0.25246 0.83377 0.0
O419 O 0.39015 0.4201 0.83107 0.0
Mg420 Mg 0.13281 0.91377 0.34458 0.0
O421 O 0.1134 0.83599 0.37449 0.0
O422 O 0.17562 0.81566 0.42797 0.0
Mg423 Mg 0.20152 0.88774 0.45298 0.0
C424 C 0.13765 0.80504 0.40172 0.0
C425 C 0.01335 0.9142 0.28116 0.0
O426 O 0.0076 0.91988 0.23401 0.0
O427 O 0.09446 0.96566 0.40493 0.0
O428 O 0.11627 0.89943 0.44004 0.0
O429 O 0.19962 0.86498 0.31241 0.0
O430 O 0.20567 0.90897 0.37837 0.0
C431 C 0.10007 0.94272 0.44478 0.0
C432 C 0.22491 0.87614 0.35088 0.0
O433 O 0.05831 0.91444 0.29868 0.0
Mg434 Mg 0.63327 0.64477 0.85953 0.0
O435 O 0.71495 0.6286 0.84015 0.0
O436 O 0.76176 0.68168 0.88204 0.0
Mg437 Mg 0.71295 0.73223 0.92834 0.0
C438 C 0.75729 0.64614 0.85226 0.0
C439 C 0.59462 0.536 0.79969 0.0
O440 O 0.58045 0.55095 0.75619 0.0
O441 O 0.64897 0.60846 0.93283 0.0
O442 O 0.69477 0.66377 0.97209 0.0
O443 O 0.63095 0.70452 0.80143 0.0
O444 O 0.65207 0.7183 0.87724 0.0
C445 C 0.67434 0.62198 0.96969 0.0
C446 C 0.64827 0.73434 0.8337 0.0
O447 O 0.61043 0.56675 0.83113 0.0
Mg448 Mg 0.67052 0.90124 0.84644 0.0
O449 O 0.59038 0.88443 0.86151 0.0
O450 O 0.53412 0.94578 0.85061 0.0
Mg451 Mg 0.58267 0.00834 0.82186 0.0
C452 C 0.54524 0.90112 0.86118 0.0
C453 C 0.66332 0.78474 0.82135 0.0
O454 O 0.65612 0.80029 0.77668 0.0
O455 O 0.6495 0.89438 0.76771 0.0
O456 O 0.59304 0.95704 0.75733 0.0
O457 O 0.6823 0.94436 0.91826 0.0
O458 O 0.65555 0.97852 0.85072 0.0
C459 C 0.61716 0.91862 0.7422 0.0
C460 C 0.6683 0.98381 0.89499 0.0
O461 O 0.67707 0.81484 0.85455 0.0
Mg462 Mg 0.63285 0.15968 0.4037 0.0
O463 O 0.59994 0.15949 0.3279 0.0
O464 O 0.66842 0.15278 0.28328 0.0
Mg465 Mg 0.67889 0.0757 0.3093 0.0
C466 C 0.62069 0.15773 0.28643 0.0
C467 C 0.51149 0.17539 0.41659 0.0
O468 O 0.51909 0.21931 0.39872 0.0
O469 O 0.6388 0.06858 0.40395 0.0
O470 O 0.67481 0.01192 0.35449 0.0
O471 O 0.71891 0.17875 0.37749 0.0
O472 O 0.69194 0.10738 0.37821 0.0
C473 C 0.65056 0.0231 0.39329 0.0
C474 C 0.72785 0.13397 0.36878 0.0
O475 O 0.54924 0.14592 0.42493 0.0
Mg476 Mg 0.33036 0.08554 0.84643 0.0
O477 O 0.4105 0.10236 0.86155 0.0
O478 O 0.46674 0.04102 0.85063 0.0
Mg479 Mg 0.41819 0.97845 0.82196 0.0
C480 C 0.45563 0.08567 0.86119 0.0
C481 C 0.33763 0.20206 0.82139 0.0
O482 O 0.34491 0.18655 0.77675 0.0
O483 O 0.3514 0.09246 0.7677 0.0
O484 O 0.40779 0.02976 0.75738 0.0
O485 O 0.31858 0.04236 0.91826 0.0
O486 O 0.34533 0.00827 0.85074 0.0
C487 C 0.38371 0.0682 0.74222 0.0
C488 C 0.33257 0.00293 0.895 0.0
O489 O 0.32381 0.17193 0.85456 0.0
Mg490 Mg 0.36785 0.82721 0.40306 0.0
O491 O 0.40092 0.8285 0.32756 0.0
O492 O 0.33384 0.83785 0.28101 0.0
Mg493 Mg 0.32129 0.91365 0.30897 0.0
C494 C 0.38145 0.8327 0.28564 0.0
C495 C 0.48934 0.8113 0.41653 0.0
O496 O 0.48181 0.76736 0.39874 0.0
O497 O 0.36144 0.91831 0.40397 0.0
O498 O 0.32418 0.97582 0.35614 0.0
O499 O 0.28188 0.80808 0.37684 0.0
O500 O 0.30899 0.87941 0.37687 0.0
C501 C 0.34937 0.96395 0.39424 0.0
C502 C 0.27309 0.85277 0.36755 0.0
O503 O 0.45154 0.84082 0.42456 0.0
Mg504 Mg 0.63473 0.12505 0.14546 0.0
O505 O 0.55622 0.12146 0.11401 0.0
O506 O 0.52305 0.07141 0.16943 0.0
Mg507 Mg 0.57988 0.01891 0.20491 0.0
C508 C 0.51855 0.10464 0.13688 0.0
C509 C 0.63518 0.23938 0.16351 0.0
O510 O 0.65803 0.22715 0.20437 0.0
O511 O 0.59037 0.15003 0.20983 0.0
O512 O 0.59617 0.08315 0.25582 0.0
O513 O 0.67262 0.0711 0.08938 0.0
O514 O 0.63745 0.04839 0.15686 0.0
C515 C 0.59403 0.12992 0.25093 0.0
C516 C 0.66026 0.03567 0.11788 0.0
O517 O 0.63177 0.20789 0.12909 0.0
Mg518 Mg 0.37648 0.14534 0.59563 0.0
O519 O 0.38023 0.06555 0.57199 0.0
O520 O 0.45511 0.02816 0.58835 0.0
Mg521 Mg 0.50332 0.08606 0.62321 0.0
C522 C 0.40908 0.02716 0.5746 0.0
C523 C 0.24661 0.13033 0.59094 0.0
O524 O 0.20529 0.14462 0.56777 0.0
O525 O 0.36708 0.11398 0.67092 0.0
O526 O 0.44435 0.07828 0.68244 0.0
O527 O 0.41875 0.17683 0.53046 0.0
O528 O 0.45581 0.14616 0.59545 0.0
C529 C 0.39879 0.08796 0.69582 0.0
C530 C 0.46017 0.16628 0.55392 0.0
O531 O 0.28867 0.14926 0.57852 0.0
Mg532 Mg 0.36862 0.86269 0.1493 0.0
O533 O 0.44498 0.86689 0.11389 0.0
O534 O 0.47934 0.91665 0.16884 0.0
Mg535 Mg 0.42366 0.97082 0.20422 0.0
C536 C 0.48315 0.88323 0.13639 0.0
C537 C 0.36235 0.74364 0.16502 0.0
O538 O 0.32377 0.74882 0.19498 0.0
O539 O 0.41806 0.84262 0.21196 0.0
O540 O 0.40574 0.90871 0.25751 0.0
O541 O 0.32663 0.91503 0.09324 0.0
O542 O 0.3653 0.94016 0.15759 0.0
C543 C 0.40997 0.86199 0.25274 0.0
C544 C 0.34028 0.95155 0.11955 0.0
O545 O 0.37526 0.77901 0.1375 0.0
Mg546 Mg 0.62437 0.84152 0.59568 0.0
O547 O 0.6206 0.92133 0.57198 0.0
O548 O 0.54573 0.95868 0.58835 0.0
Mg549 Mg 0.49751 0.90075 0.62315 0.0
C550 C 0.59175 0.95972 0.57461 0.0
C551 C 0.75424 0.85649 0.59096 0.0
O552 O 0.79552 0.84222 0.56778 0.0
O553 O 0.63379 0.87288 0.67095 0.0
O554 O 0.55649 0.90852 0.68241 0.0
O555 O 0.58207 0.81004 0.53054 0.0
O556 O 0.54505 0.84069 0.59548 0.0
C557 C 0.60206 0.89886 0.69582 0.0
C558 C 0.54066 0.82059 0.55397 0.0
O559 O 0.71215 0.8376 0.57857 0.0
Mg560 Mg 0.925 0.60556 0.86277 0.0
O561 O 0.8431 0.62817 0.8606 0.0
O562 O 0.80163 0.59207 0.79957 0.0
Mg563 Mg 0.85849 0.54037 0.76208 0.0
C564 C 0.80329 0.62136 0.83574 0.0
C565 C 0.96295 0.63324 0.97618 0.0
O566 O 0.01019 0.62617 0.96228 0.0
O567 O 0.90248 0.53413 0.89717 0.0
O568 O 0.8643 0.49965 0.83358 0.0
O569 O 0.93602 0.66372 0.80307 0.0
O570 O 0.91847 0.5877 0.78647 0.0
C571 C 0.87856 0.49934 0.87789 0.0
C572 C 0.92304 0.63151 0.77116 0.0
O573 O 0.92734 0.63293 0.9445 0.0
Mg574 Mg 0.87128 0.3433 0.13446 0.0
O575 O 0.7904 0.3553 0.1156 0.0
O576 O 0.75323 0.4081 0.16768 0.0
Mg577 Mg 0.81477 0.43668 0.21735 0.0
C578 C 0.75179 0.37879 0.13145 0.0
C579 C 0.8783 0.2783 0.02205 0.0
O580 O 0.89128 0.23264 0.03284 0.0
O581 O 0.88988 0.41673 0.09863 0.0
O582 O 0.85189 0.46982 0.15 0.0
O583 O 0.84158 0.28849 0.189 0.0
O584 O 0.85496 0.3646 0.20951 0.0
C585 C 0.87663 0.46036 0.11106 0.0
C586 C 0.83538 0.32343 0.22054 0.0
O587 O 0.87364 0.31056 0.05571 0.0
Mg588 Mg 0.11641 0.364 0.60513 0.0
O589 O 0.0329 0.35609 0.61283 0.0
O590 O 0.99461 0.33004 0.5459 0.0
Mg591 Mg 0.05758 0.32032 0.48835 0.0
C592 C 0.99395 0.34215 0.59073 0.0
C593 C 0.09075 0.34222 0.71993 0.0
O594 O 0.08133 0.29809 0.70378 0.0
O595 O 0.1205 0.28114 0.60973 0.0
O596 O 0.08481 0.2608 0.53824 0.0
O597 O 0.11438 0.43609 0.55631 0.0
O598 O 0.11358 0.36239 0.52742 0.0
C599 C 0.10591 0.24963 0.57864 0.0
C600 C 0.11526 0.40772 0.51873 0.0
O601 O 0.10913 0.37417 0.69078 0.0
Mg602 Mg 0.1299 0.64347 0.13419 0.0
O603 O 0.21067 0.63122 0.11514 0.0
O604 O 0.24781 0.57806 0.16696 0.0
Mg605 Mg 0.18639 0.54978 0.21701 0.0
C606 C 0.24922 0.6074 0.13071 0.0
C607 C 0.12292 0.70865 0.02168 0.0
O608 O 0.11014 0.75441 0.03222 0.0
O609 O 0.11108 0.57011 0.0984 0.0
O610 O 0.14896 0.51685 0.14981 0.0
O611 O 0.15992 0.69796 0.18895 0.0
O612 O 0.14616 0.62181 0.20913 0.0
C613 C 0.12418 0.52643 0.11089 0.0
C614 C 0.16579 0.66286 0.22041 0.0
O615 O 0.12748 0.67653 0.05552 0.0
Mg616 Mg 0.88449 0.62281 0.60506 0.0
O617 O 0.96802 0.63071 0.61281 0.0
O618 O 0.00629 0.65675 0.54585 0.0
Mg619 Mg 0.94329 0.66649 0.48827 0.0
C620 C 0.00696 0.64464 0.5907 0.0
C621 C 0.90944 0.64457 0.72006 0.0
O622 O 0.91797 0.689 0.70415 0.0
O623 O 0.88052 0.7057 0.60957 0.0
O624 O 0.91617 0.72606 0.53808 0.0
O625 O 0.88653 0.5507 0.55641 0.0
O626 O 0.88732 0.6244 0.52737 0.0
C627 C 0.89512 0.73722 0.57848 0.0
C628 C 0.88565 0.57905 0.51878 0.0
O629 O 0.89172 0.61246 0.69073 0.0
Mg630 Mg 0.07577 0.38105 0.86268 0.0
O631 O 0.15763 0.35823 0.86041 0.0
O632 O 0.19904 0.39428 0.7993 0.0
Mg633 Mg 0.14224 0.44607 0.76178 0.0
C634 C 0.19739 0.36499 0.8355 0.0
C635 C 0.03787 0.35349 0.97617 0.0
O636 O 0.99062 0.36049 0.96223 0.0
O637 O 0.09867 0.45238 0.89692 0.0
O638 O 0.13677 0.48678 0.83322 0.0
O639 O 0.0643 0.32301 0.80297 0.0
O640 O 0.08221 0.39895 0.78638 0.0
C641 C 0.12266 0.48709 0.87756 0.0
C642 C 0.07737 0.3552 0.77106 0.0
O643 O 0.07346 0.35379 0.9445 0.0
Mg644 Mg 0.18214 0.65463 0.38129 0.0
O645 O 0.10923 0.61795 0.35986 0.0
O646 O 0.05726 0.64485 0.4193 0.0
Mg647 Mg 0.09699 0.66978 0.48794 0.0
C648 C 0.06499 0.62602 0.37733 0.0
C649 C 0.21 0.66289 0.25382 0.0
O650 O 0.2552 0.66769 0.23481 0.0
O651 O 0.1384 0.72642 0.37179 0.0
O652 O 0.11181 0.74063 0.44818 0.0
O653 O 0.22362 0.59253 0.42757 0.0
O654 O 0.16759 0.64486 0.45563 0.0
C655 C 0.12226 0.75517 0.40526 0.0
C656 C 0.20018 0.61103 0.46485 0.0
O657 O 0.20642 0.66 0.30014 0.0
Mg658 Mg 0.81848 0.3322 0.38088 0.0
O659 O 0.8915 0.36867 0.35928 0.0
O660 O 0.94345 0.34208 0.41898 0.0
Mg661 Mg 0.90384 0.31713 0.48764 0.0
C662 C 0.93574 0.36077 0.3769 0.0
C663 C 0.79079 0.32306 0.25344 0.0
O664 O 0.74601 0.31685 0.23394 0.0
O665 O 0.86214 0.26036 0.37164 0.0
O666 O 0.88901 0.24627 0.448 0.0
O667 O 0.77701 0.39426 0.42724 0.0
O668 O 0.83334 0.34217 0.4552 0.0
C669 C 0.87846 0.23167 0.40513 0.0
C670 C 0.80064 0.37585 0.46448 0.0
O671 O 0.79369 0.32618 0.29982 0.0
loop_
_geom_bond_atom_site_label_1
_geom_bond_atom_site_label_2
_geom_bond_distance
_geom_bond_site_symmetry_2
_ccdc_geom_bond_type
Mg0 O1 2.028 . S
Mg0 O7 1.986 . S
Mg0 O9 2.114 . S
Mg0 O10 2.251 . S
Mg0 O13 2.010 . S
O1 Mg0 2.028 . S
O1 C4 1.250 . S
O2 Mg3 2.022 1_455 S
O2 C4 1.248 . S
Mg3 O2 2.022 1_655 S
Mg3 O8 2.026 1_655 S
Mg3 O10 2.076 1_655 S
C4 O1 1.250 . S
C4 O2 1.248 . S
C5 O6 1.264 . S
C5 O13 1.249 . S
O6 C5 1.264 . S
O7 Mg0 1.986 . S
O7 C11 1.246 . S
O8 Mg3 2.026 1_455 S
O8 C11 1.259 . S
O9 Mg0 2.114 . S
O9 C12 1.252 . S
O10 Mg0 2.251 . S
O10 Mg3 2.076 1_455 S
O10 C12 1.273 . S
C11 O7 1.246 . S
C11 O8 1.259 . S
C12 O9 1.252 . S
C12 O10 1.273 . S
O13 Mg0 2.010 . S
O13 C5 1.249 . S
Mg14 O15 2.028 . S
Mg14 O21 1.986 . S
Mg14 O23 2.114 . S
Mg14 O24 2.251 . S
Mg14 O27 2.010 . S
O15 Mg14 2.028 . S
O15 C18 1.250 . S
O16 Mg17 2.028 . S
O16 C18 1.248 . S
Mg17 O16 2.028 . S
Mg17 O22 2.032 . S
Mg17 O24 2.079 . S
C18 O15 1.250 . S
C18 O16 1.248 . S
C19 O20 1.264 . S
C19 O27 1.249 . S
O20 C19 1.264 . S
O21 Mg14 1.986 . S
O21 C25 1.246 . S
O22 Mg17 2.032 . S
O22 C25 1.259 . S
O23 Mg14 2.114 . S
O23 C26 1.252 . S
O24 Mg14 2.251 . S
O24 Mg17 2.079 . S
O24 C26 1.273 . S
C25 O21 1.246 . S
C25 O22 1.259 . S
C26 O23 1.252 . S
C26 O24 1.273 . S
O27 Mg14 2.010 . S
O27 C19 1.249 . S
Mg28 O29 2.028 . S
Mg28 O35 1.986 . S
Mg28 O37 2.114 . S
Mg28 O38 2.251 . S
Mg28 O41 2.010 . S
O29 Mg28 2.028 . S
O29 C32 1.250 . S
O30 Mg31 2.022 1_655 S
O30 C32 1.248 . S
Mg31 O30 2.022 1_455 S
Mg31 O36 2.026 1_455 S
Mg31 O38 2.076 1_455 S
C32 O29 1.250 . S
C32 O30 1.248 . S
C33 O34 1.264 . S
C33 O41 1.249 . S
O34 C33 1.264 . S
O35 Mg28 1.986 . S
O35 C39 1.246 . S
O36 Mg31 2.026 1_655 S
O36 C39 1.259 . S
O37 Mg28 2.114 . S
O37 C40 1.252 . S
O38 Mg28 2.251 . S
O38 Mg31 2.076 1_655 S
O38 C40 1.273 . S
C39 O35 1.246 . S
C39 O36 1.259 . S
C40 O37 1.252 . S
C40 O38 1.273 . S
O41 Mg28 2.010 . S
O41 C33 1.249 . S
Mg42 O43 2.028 . S
Mg42 O49 1.986 . S
Mg42 O51 2.114 . S
Mg42 O52 2.251 . S
Mg42 O55 2.010 . S
O43 Mg42 2.028 . S
O43 C46 1.250 . S
O44 Mg45 2.028 . S
O44 C46 1.248 . S
Mg45 O44 2.028 . S
Mg45 O50 2.032 . S
Mg45 O52 2.079 . S
C46 O43 1.250 . S
C46 O44 1.248 . S
C47 O48 1.264 . S
C47 O55 1.249 . S
O48 C47 1.264 . S
O49 Mg42 1.986 . S
O49 C53 1.246 . S
O50 Mg45 2.032 . S
O50 C53 1.259 . S
O51 Mg42 2.114 . S
O51 C54 1.252 . S
O52 Mg42 2.251 . S
O52 Mg45 2.079 . S
O52 C54 1.273 . S
C53 O49 1.246 . S
C53 O50 1.259 . S
C54 O51 1.252 . S
C54 O52 1.273 . S
O55 Mg42 2.010 . S
O55 C47 1.249 . S
Mg56 O57 2.028 . S
Mg56 O63 1.986 . S
Mg56 O65 2.114 . S
Mg56 O66 2.251 . S
Mg56 O69 2.010 . S
O57 Mg56 2.028 . S
O57 C60 1.250 . S
O58 Mg59 2.028 . S
O58 C60 1.248 . S
Mg59 O58 2.028 . S
Mg59 O64 2.032 . S
Mg59 O66 2.079 . S
C60 O57 1.250 . S
C60 O58 1.248 . S
C61 O62 1.264 . S
C61 O69 1.249 . S
O62 C61 1.264 . S
O63 Mg56 1.986 . S
O63 C67 1.246 . S
O64 Mg59 2.032 . S
O64 C67 1.259 . S
O65 Mg56 2.114 . S
O65 C68 1.252 . S
O66 Mg56 2.251 . S
O66 Mg59 2.079 . S
O66 C68 1.273 . S
C67 O63 1.246 . S
C67 O64 1.259 . S
C68 O65 1.252 . S
C68 O66 1.273 . S
O69 Mg56 2.010 . S
O69 C61 1.249 . S
Mg70 O71 2.028 . S
Mg70 O77 1.986 . S
Mg70 O79 2.114 . S
Mg70 O80 2.251 . S
Mg70 O83 2.010 . S
O71 Mg70 2.028 . S
O71 C74 1.250 . S
O72 Mg73 2.028 . S
O72 C74 1.248 . S
Mg73 O72 2.028 . S
Mg73 O78 2.032 . S
Mg73 O80 2.079 . S
C74 O71 1.250 . S
C74 O72 1.248 . S
C75 O76 1.264 . S
C75 O83 1.249 . S
O76 C75 1.264 . S
O77 Mg70 1.986 . S
O77 C81 1.246 . S
O78 Mg73 2.032 . S
O78 C81 1.259 . S
O79 Mg70 2.114 . S
O79 C82 1.252 . S
O80 Mg70 2.251 . S
O80 Mg73 2.079 . S
O80 C82 1.273 . S
C81 O77 1.246 . S
C81 O78 1.259 . S
C82 O79 1.252 . S
C82 O80 1.273 . S
O83 Mg70 2.010 . S
O83 C75 1.249 . S
Mg84 O85 2.028 . S
Mg84 O91 1.986 . S
Mg84 O93 2.114 . S
Mg84 O94 2.251 . S
Mg84 O97 2.010 . S
O85 Mg84 2.028 . S
O85 C88 1.250 . S
O86 Mg87 2.028 . S
O86 C88 1.248 . S
Mg87 O86 2.028 . S
Mg87 O92 2.032 . S
Mg87 O94 2.079 . S
C88 O85 1.250 . S
C88 O86 1.248 . S
C89 O90 1.264 . S
C89 O97 1.249 . S
O90 C89 1.264 . S
O91 Mg84 1.986 . S
O91 C95 1.246 . S
O92 Mg87 2.032 . S
O92 C95 1.259 . S
O93 Mg84 2.114 . S
O93 C96 1.252 . S
O94 Mg84 2.251 . S
O94 Mg87 2.079 . S
O94 C96 1.273 . S
C95 O91 1.246 . S
C95 O92 1.259 . S
C96 O93 1.252 . S
C96 O94 1.273 . S
O97 Mg84 2.010 . S
O97 C89 1.249 . S
Mg98 O99 2.028 . S
Mg98 O105 1.986 . S
Mg98 O107 2.114 . S
Mg98 O108 2.251 . S
Mg98 O111 2.010 . S
O99 Mg98 2.028 . S
O99 C102 1.250 . S
O100 Mg101 2.028 . S
O100 C102 1.248 . S
Mg101 O100 2.028 . S
Mg101 O106 2.032 . S
Mg101 O108 2.079 . S
C102 O99 1.250 . S
C102 O100 1.248 . S
C103 O104 1.264 . S
C103 O111 1.249 . S
O104 C103 1.264 . S
O105 Mg98 1.986 . S
O105 C109 1.246 . S
O106 Mg101 2.032 . S
O106 C109 1.259 . S
O107 Mg98 2.114 . S
O107 C110 1.252 . S
O108 Mg98 2.251 . S
O108 Mg101 2.079 . S
O108 C110 1.273 . S
C109 O105 1.246 . S
C109 O106 1.259 . S
C110 O107 1.252 . S
C110 O108 1.273 . S
O111 Mg98 2.010 . S
O111 C103 1.249 . S
Mg112 O113 2.028 . S
Mg112 O119 1.986 . S
Mg112 O121 2.114 . S
Mg112 O122 2.251 . S
Mg112 O125 2.010 . S
O113 Mg112 2.028 . S
O113 C116 1.250 . S
O114 Mg115 2.028 . S
O114 C116 1.248 . S
Mg115 O114 2.028 . S
Mg115 O120 2.032 . S
Mg115 O122 2.079 . S
C116 O113 1.250 . S
C116 O114 1.248 . S
C117 O118 1.264 1_545 S
C117 O125 1.249 . S
O118 C117 1.264 1_565 S
O119 Mg112 1.986 . S
O119 C123 1.246 . S
O120 Mg115 2.032 . S
O120 C123 1.259 . S
O121 Mg112 2.114 . S
O121 C124 1.252 . S
O122 Mg112 2.251 . S
O122 Mg115 2.079 . S
O122 C124 1.273 . S
C123 O119 1.246 . S
C123 O120 1.259 . S
C124 O121 1.252 . S
C124 O122 1.273 . S
O125 Mg112 2.010 . S
O125 C117 1.249 . S
Mg126 O127 2.028 . S
Mg126 O133 1.986 . S
Mg126 O135 2.114 . S
Mg126 O136 2.251 . S
Mg126 O139 2.010 . S
O127 Mg126 2.028 . S
O127 C130 1.250 . S
O128 Mg129 2.028 . S
O128 C130 1.248 . S
Mg129 O128 2.028 . S
Mg129 O134 2.032 . S
Mg129 O136 2.079 . S
C130 O127 1.250 . S
C130 O128 1.248 . S
C131 O132 1.264 . S
C131 O139 1.249 . S
O132 C131 1.264 . S
O133 Mg126 1.986 . S
O133 C137 1.246 . S
O134 Mg129 2.032 . S
O134 C137 1.259 . S
O135 Mg126 2.114 . S
O135 C138 1.252 . S
O136 Mg126 2.251 . S
O136 Mg129 2.079 . S
O136 C138 1.273 . S
C137 O133 1.246 . S
C137 O134 1.259 . S
C138 O135 1.252 . S
C138 O136 1.273 . S
O139 Mg126 2.010 . S
O139 C131 1.249 . S
Mg140 O141 2.028 . S
Mg140 O147 1.986 . S
Mg140 O149 2.114 . S
Mg140 O150 2.251 . S
Mg140 O153 2.010 . S
O141 Mg140 2.028 . S
O141 C144 1.250 . S
O142 Mg143 2.028 . S
O142 C144 1.248 . S
Mg143 O142 2.028 . S
Mg143 O148 2.032 . S
Mg143 O150 2.079 . S
C144 O141 1.250 . S
C144 O142 1.248 . S
C145 O146 1.264 1_565 S
C145 O153 1.249 . S
O146 C145 1.264 1_545 S
O147 Mg140 1.986 . S
O147 C151 1.246 . S
O148 Mg143 2.032 . S
O148 C151 1.259 . S
O149 Mg140 2.114 . S
O149 C152 1.252 . S
O150 Mg140 2.251 . S
O150 Mg143 2.079 . S
O150 C152 1.273 . S
C151 O147 1.246 . S
C151 O148 1.259 . S
C152 O149 1.252 . S
C152 O150 1.273 . S
O153 Mg140 2.010 . S
O153 C145 1.249 . S
Mg154 O155 2.028 . S
Mg154 O161 1.986 . S
Mg154 O163 2.114 . S
Mg154 O164 2.251 . S
Mg154 O167 2.010 . S
O155 Mg154 2.028 . S
O155 C158 1.250 . S
O156 Mg157 2.028 . S
O156 C158 1.248 . S
Mg157 O156 2.028 . S
Mg157 O162 2.032 . S
Mg157 O164 2.079 . S
C158 O155 1.250 . S
C158 O156 1.248 . S
C159 O160 1.264 . S
C159 O167 1.249 . S
O160 C159 1.264 . S
O161 Mg154 1.986 . S
O161 C165 1.246 . S
O162 Mg157 2.032 . S
O162 C165 1.259 . S
O163 Mg154 2.114 . S
O163 C166 1.252 . S
O164 Mg154 2.251 . S
O164 Mg157 2.079 . S
O164 C166 1.273 . S
C165 O161 1.246 . S
C165 O162 1.259 . S
C166 O163 1.252 . S
C166 O164 1.273 . S
O167 Mg154 2.010 . S
O167 C159 1.249 . S
Mg168 O169 2.028 . S
Mg168 O175 1.986 . S
Mg168 O177 2.114 . S
Mg168 O178 2.251 . S
Mg168 O181 2.010 . S
O169 Mg168 2.028 . S
O169 C172 1.250 . S
O170 Mg171 2.028 . S
O170 C172 1.248 . S
Mg171 O170 2.028 . S
Mg171 O176 2.032 . S
Mg171 O178 2.079 . S
C172 O169 1.250 . S
C172 O170 1.248 . S
C173 O174 1.264 . S
C173 O181 1.249 . S
O174 C173 1.264 . S
O175 Mg168 1.986 . S
O175 C179 1.246 . S
O176 Mg171 2.032 . S
O176 C179 1.259 . S
O177 Mg168 2.114 . S
O177 C180 1.252 . S
O178 Mg168 2.251 . S
O178 Mg171 2.079 . S
O178 C180 1.273 . S
C179 O175 1.246 . S
C179 O176 1.259 . S
C180 O177 1.252 . S
C180 O178 1.273 . S
O181 Mg168 2.010 . S
O181 C173 1.249 . S
Mg182 O183 2.028 . S
Mg182 O189 1.986 . S
Mg182 O191 2.114 . S
Mg182 O192 2.251 . S
Mg182 O195 2.010 . S
O183 Mg182 2.028 . S
O183 C186 1.250 . S
O184 Mg185 2.028 . S
O184 C186 1.248 . S
Mg185 O184 2.028 . S
Mg185 O190 2.032 . S
Mg185 O192 2.079 . S
C186 O183 1.250 . S
C186 O184 1.248 . S
C187 O188 1.264 . S
C187 O195 1.249 . S
O188 C187 1.264 . S
O189 Mg182 1.986 . S
O189 C193 1.246 . S
O190 Mg185 2.032 . S
O190 C193 1.259 . S
O191 Mg182 2.114 . S
O191 C194 1.252 . S
O192 Mg182 2.251 . S
O192 Mg185 2.079 . S
O192 C194 1.273 . S
C193 O189 1.246 . S
C193 O190 1.259 . S
C194 O191 1.252 . S
C194 O192 1.273 . S
O195 Mg182 2.010 . S
O195 C187 1.249 . S
Mg196 O197 2.028 . S
Mg196 O203 1.986 . S
Mg196 O205 2.114 . S
Mg196 O206 2.251 . S
Mg196 O209 2.010 . S
O197 Mg196 2.028 . S
O197 C200 1.250 . S
O198 Mg199 2.028 . S
O198 C200 1.248 . S
Mg199 O198 2.028 . S
Mg199 O204 2.032 . S
Mg199 O206 2.079 . S
C200 O197 1.250 . S
C200 O198 1.248 . S
C201 O202 1.264 . S
C201 O209 1.249 . S
O202 C201 1.264 . S
O203 Mg196 1.986 . S
O203 C207 1.246 . S
O204 Mg199 2.032 . S
O204 C207 1.259 . S
O205 Mg196 2.114 . S
O205 C208 1.252 . S
O206 Mg196 2.251 . S
O206 Mg199 2.079 . S
O206 C208 1.273 . S
C207 O203 1.246 . S
C207 O204 1.259 . S
C208 O205 1.252 . S
C208 O206 1.273 . S
O209 Mg196 2.010 . S
O209 C201 1.249 . S
Mg210 O211 2.028 . S
Mg210 O217 1.986 . S
Mg210 O219 2.114 . S
Mg210 O220 2.251 . S
Mg210 O223 2.010 . S
O211 Mg210 2.028 . S
O211 C214 1.250 . S
O212 Mg213 2.028 . S
O212 C214 1.248 . S
Mg213 O212 2.028 . S
Mg213 O218 2.032 . S
Mg213 O220 2.079 . S
C214 O211 1.250 . S
C214 O212 1.248 . S
C215 O216 1.264 . S
C215 O223 1.249 . S
O216 C215 1.264 . S
O217 Mg210 1.986 . S
O217 C221 1.246 . S
O218 Mg213 2.032 . S
O218 C221 1.259 . S
O219 Mg210 2.114 . S
O219 C222 1.252 . S
O220 Mg210 2.251 . S
O220 Mg213 2.079 . S
O220 C222 1.273 . S
C221 O217 1.246 . S
C221 O218 1.259 . S
C222 O219 1.252 . S
C222 O220 1.273 . S
O223 Mg210 2.010 . S
O223 C215 1.249 . S
Mg224 O225 2.028 . S
Mg224 O231 1.986 . S
Mg224 O233 2.114 . S
Mg224 O234 2.251 . S
Mg224 O237 2.010 . S
O225 Mg224 2.028 . S
O225 C228 1.250 . S
O226 Mg227 2.028 . S
O226 C228 1.248 . S
Mg227 O226 2.028 . S
Mg227 O232 2.032 . S
Mg227 O234 2.079 . S
C228 O225 1.250 . S
C228 O226 1.248 . S
C229 O230 1.264 1_455 S
C229 O237 1.249 . S
O230 C229 1.264 1_655 S
O231 Mg224 1.986 . S
O231 C235 1.246 . S
O232 Mg227 2.032 . S
O232 C235 1.259 . S
O233 Mg224 2.114 . S
O233 C236 1.252 . S
O234 Mg224 2.251 . S
O234 Mg227 2.079 . S
O234 C236 1.273 . S
C235 O231 1.246 . S
C235 O232 1.259 . S
C236 O233 1.252 . S
C236 O234 1.273 . S
O237 Mg224 2.010 . S
O237 C229 1.249 . S
Mg238 O239 2.028 . S
Mg238 O245 1.986 . S
Mg238 O247 2.114 . S
Mg238 O248 2.251 . S
Mg238 O251 2.010 . S
O239 Mg238 2.028 . S
O239 C242 1.250 . S
O240 Mg241 2.028 . S
O240 C242 1.248 . S
Mg241 O240 2.028 . S
Mg241 O246 2.032 . S
Mg241 O248 2.079 . S
C242 O239 1.250 . S
C242 O240 1.248 . S
C243 O244 1.264 . S
C243 O251 1.249 . S
O244 C243 1.264 . S
O245 Mg238 1.986 . S
O245 C249 1.246 . S
O246 Mg241 2.032 . S
O246 C249 1.259 . S
O247 Mg238 2.114 . S
O247 C250 1.252 . S
O248 Mg238 2.251 . S
O248 Mg241 2.079 . S
O248 C250 1.273 . S
C249 O245 1.246 . S
C249 O246 1.259 . S
C250 O247 1.252 . S
C250 O248 1.273 . S
O251 Mg238 2.010 . S
O251 C243 1.249 . S
Mg252 O253 2.028 . S
Mg252 O259 1.986 . S
Mg252 O261 2.114 . S
Mg252 O262 2.251 . S
Mg252 O265 2.010 . S
O253 Mg252 2.028 . S
O253 C256 1.250 1_655 S
O254 Mg255 2.028 1_455 S
O254 C256 1.248 . S
Mg255 O254 2.028 1_655 S
Mg255 O260 2.032 . S
Mg255 O262 2.079 . S
C256 O253 1.250 1_455 S
C256 O254 1.248 . S
C257 O258 1.264 . S
C257 O265 1.249 . S
O258 C257 1.264 . S
O259 Mg252 1.986 . S
O259 C263 1.246 . S
O260 Mg255 2.032 . S
O260 C263 1.259 . S
O261 Mg252 2.114 . S
O261 C264 1.252 . S
O262 Mg252 2.251 . S
O262 Mg255 2.079 . S
O262 C264 1.273 . S
C263 O259 1.246 . S
C263 O260 1.259 . S
C264 O261 1.252 . S
C264 O262 1.273 . S
O265 Mg252 2.010 . S
O265 C257 1.249 . S
Mg266 O267 2.028 . S
Mg266 O273 1.986 . S
Mg266 O275 2.114 . S
Mg266 O276 2.251 . S
Mg266 O279 2.010 . S
O267 Mg266 2.028 . S
O267 C270 1.250 . S
O268 Mg269 2.028 . S
O268 C270 1.248 . S
Mg269 O268 2.028 . S
Mg269 O274 2.032 . S
Mg269 O276 2.079 . S
C270 O267 1.250 . S
C270 O268 1.248 . S
C271 O272 1.264 . S
C271 O279 1.249 . S
O272 C271 1.264 . S
O273 Mg266 1.986 . S
O273 C277 1.246 . S
O274 Mg269 2.032 . S
O274 C277 1.259 . S
O275 Mg266 2.114 . S
O275 C278 1.252 . S
O276 Mg266 2.251 . S
O276 Mg269 2.079 . S
O276 C278 1.273 . S
C277 O273 1.246 . S
C277 O274 1.259 . S
C278 O275 1.252 . S
C278 O276 1.273 . S
O279 Mg266 2.010 . S
O279 C271 1.249 . S
Mg280 O281 2.028 . S
Mg280 O287 1.986 . S
Mg280 O289 2.114 . S
Mg280 O290 2.251 . S
Mg280 O293 2.010 . S
O281 Mg280 2.028 . S
O281 C284 1.250 1_455 S
O282 Mg283 2.028 1_655 S
O282 C284 1.248 . S
Mg283 O282 2.028 1_455 S
Mg283 O288 2.032 . S
Mg283 O290 2.079 . S
C284 O281 1.250 1_655 S
C284 O282 1.248 . S
C285 O286 1.264 . S
C285 O293 1.249 . S
O286 C285 1.264 . S
O287 Mg280 1.986 . S
O287 C291 1.246 . S
O288 Mg283 2.032 . S
O288 C291 1.259 . S
O289 Mg280 2.114 . S
O289 C292 1.252 . S
O290 Mg280 2.251 . S
O290 Mg283 2.079 . S
O290 C292 1.273 . S
C291 O287 1.246 . S
C291 O288 1.259 . S
C292 O289 1.252 . S
C292 O290 1.273 . S
O293 Mg280 2.010 . S
O293 C285 1.249 . S
Mg294 O295 2.028 . S
Mg294 O301 1.986 . S
Mg294 O303 2.114 . S
Mg294 O304 2.251 . S
Mg294 O307 2.010 . S
O295 Mg294 2.028 . S
O295 C298 1.250 . S
O296 Mg297 2.028 . S
O296 C298 1.248 . S
Mg297 O296 2.028 . S
Mg297 O302 2.032 . S
Mg297 O304 2.079 . S
C298 O295 1.250 . S
C298 O296 1.248 . S
C299 O300 1.264 1_655 S
C299 O307 1.249 . S
O300 C299 1.264 1_455 S
O301 Mg294 1.986 . S
O301 C305 1.246 . S
O302 Mg297 2.032 . S
O302 C305 1.259 . S
O303 Mg294 2.114 . S
O303 C306 1.252 . S
O304 Mg294 2.251 . S
O304 Mg297 2.079 . S
O304 C306 1.273 . S
C305 O301 1.246 . S
C305 O302 1.259 . S
C306 O303 1.252 . S
C306 O304 1.273 . S
O307 Mg294 2.010 . S
O307 C299 1.249 . S
Mg308 O309 2.028 . S
Mg308 O315 1.986 . S
Mg308 O317 2.114 . S
Mg308 O318 2.251 . S
Mg308 O321 2.010 . S
O309 Mg308 2.028 . S
O309 C312 1.250 . S
O310 Mg311 2.028 . S
O310 C312 1.248 . S
Mg311 O310 2.028 . S
Mg311 O316 2.032 . S
Mg311 O318 2.079 . S
C312 O309 1.250 . S
C312 O310 1.248 . S
C313 O314 1.264 . S
C313 O321 1.249 . S
O314 C313 1.264 . S
O315 Mg308 1.986 . S
O315 C319 1.246 . S
O316 Mg311 2.032 . S
O316 C319 1.259 . S
O317 Mg308 2.114 . S
O317 C320 1.252 . S
O318 Mg308 2.251 . S
O318 Mg311 2.079 . S
O318 C320 1.273 . S
C319 O315 1.246 . S
C319 O316 1.259 . S
C320 O317 1.252 . S
C320 O318 1.273 . S
O321 Mg308 2.010 . S
O321 C313 1.249 . S
Mg322 O323 2.028 . S
Mg322 O329 1.986 . S
Mg322 O331 2.114 . S
Mg322 O332 2.251 . S
Mg322 O335 2.010 . S
O323 Mg322 2.028 . S
O323 C326 1.250 . S
O324 Mg325 2.028 . S
O324 C326 1.248 . S
Mg325 O324 2.028 . S
Mg325 O330 2.032 . S
Mg325 O332 2.079 . S
C326 O323 1.250 . S
C326 O324 1.248 . S
C327 O328 1.264 . S
C327 O335 1.249 . S
O328 C327 1.264 . S
O329 Mg322 1.986 . S
O329 C333 1.246 . S
O330 Mg325 2.032 . S
O330 C333 1.259 . S
O331 Mg322 2.114 . S
O331 C334 1.252 . S
O332 Mg322 2.251 . S
O332 Mg325 2.079 . S
O332 C334 1.273 . S
C333 O329 1.246 . S
C333 O330 1.259 . S
C334 O331 1.252 . S
C334 O332 1.273 . S
O335 Mg322 2.010 . S
O335 C327 1.249 . S
Mg336 O337 2.028 . S
Mg336 O343 1.986 . S
Mg336 O345 2.114 . S
Mg336 O346 2.251 . S
Mg336 O349 2.010 . S
O337 Mg336 2.028 . S
O337 C340 1.250 . S
O338 Mg339 2.028 1_655 S
O338 C340 1.248 . S
Mg339 O338 2.028 1_455 S
Mg339 O344 2.032 1_455 S
Mg339 O346 2.079 1_455 S
C340 O337 1.250 . S
C340 O338 1.248 . S
C341 O342 1.264 . S
C341 O349 1.249 . S
O342 C341 1.264 . S
O343 Mg336 1.986 . S
O343 C347 1.246 . S
O344 Mg339 2.032 1_655 S
O344 C347 1.259 . S
O345 Mg336 2.114 . S
O345 C348 1.252 . S
O346 Mg336 2.251 . S
O346 Mg339 2.079 1_655 S
O346 C348 1.273 . S
C347 O343 1.246 . S
C347 O344 1.259 . S
C348 O345 1.252 . S
C348 O346 1.273 . S
O349 Mg336 2.010 . S
O349 C341 1.249 . S
Mg350 O351 2.028 . S
Mg350 O357 1.986 . S
Mg350 O359 2.114 . S
Mg350 O360 2.251 . S
Mg350 O363 2.010 . S
O351 Mg350 2.028 . S
O351 C354 1.250 . S
O352 Mg353 2.028 . S
O352 C354 1.248 . S
Mg353 O352 2.028 . S
Mg353 O358 2.032 . S
Mg353 O360 2.079 . S
C354 O351 1.250 . S
C354 O352 1.248 . S
C355 O356 1.264 . S
C355 O363 1.249 . S
O356 C355 1.264 . S
O357 Mg350 1.986 . S
O357 C361 1.246 . S
O358 Mg353 2.032 . S
O358 C361 1.259 . S
O359 Mg350 2.114 . S
O359 C362 1.252 . S
O360 Mg350 2.251 . S
O360 Mg353 2.079 . S
O360 C362 1.273 . S
C361 O357 1.246 . S
C361 O358 1.259 . S
C362 O359 1.252 . S
C362 O360 1.273 . S
O363 Mg350 2.010 . S
O363 C355 1.249 . S
Mg364 O365 2.028 . S
Mg364 O371 1.986 . S
Mg364 O373 2.114 . S
Mg364 O374 2.251 . S
Mg364 O377 2.010 . S
O365 Mg364 2.028 . S
O365 C368 1.250 . S
O366 Mg367 2.028 1_455 S
O366 C368 1.248 . S
Mg367 O366 2.028 1_655 S
Mg367 O372 2.032 1_655 S
Mg367 O374 2.079 1_655 S
C368 O365 1.250 . S
C368 O366 1.248 . S
C369 O370 1.264 . S
C369 O377 1.249 . S
O370 C369 1.264 . S
O371 Mg364 1.986 . S
O371 C375 1.246 . S
O372 Mg367 2.032 1_455 S
O372 C375 1.259 . S
O373 Mg364 2.114 . S
O373 C376 1.252 . S
O374 Mg364 2.251 . S
O374 Mg367 2.079 1_455 S
O374 C376 1.273 . S
C375 O371 1.246 . S
C375 O372 1.259 . S
C376 O373 1.252 . S
C376 O374 1.273 . S
O377 Mg364 2.010 . S
O377 C369 1.249 . S
Mg378 O379 2.028 . S
Mg378 O385 1.986 . S
Mg378 O387 2.114 . S
Mg378 O388 2.251 . S
Mg378 O391 2.010 . S
O379 Mg378 2.028 . S
O379 C382 1.250 . S
O380 Mg381 2.028 . S
O380 C382 1.248 . S
Mg381 O380 2.028 . S
Mg381 O386 2.032 . S
Mg381 O388 2.079 . S
C382 O379 1.250 . S
C382 O380 1.248 . S
C383 O384 1.264 . S
C383 O391 1.249 . S
O384 C383 1.264 . S
O385 Mg378 1.986 . S
O385 C389 1.246 . S
O386 Mg381 2.032 . S
O386 C389 1.259 . S
O387 Mg378 2.114 . S
O387 C390 1.252 . S
O388 Mg378 2.251 . S
O388 Mg381 2.079 . S
O388 C390 1.273 . S
C389 O385 1.246 . S
C389 O386 1.259 . S
C390 O387 1.252 . S
C390 O388 1.273 . S
O391 Mg378 2.010 . S
O391 C383 1.249 . S
Mg392 O393 2.028 . S
Mg392 O399 1.986 . S
Mg392 O401 2.114 . S
Mg392 O402 2.251 . S
Mg392 O405 2.010 . S
O393 Mg392 2.028 . S
O393 C396 1.250 . S
O394 Mg395 2.028 . S
O394 C396 1.248 . S
Mg395 O394 2.028 . S
Mg395 O400 2.032 . S
Mg395 O402 2.079 . S
C396 O393 1.250 . S
C396 O394 1.248 . S
C397 O398 1.264 . S
C397 O405 1.249 . S
O398 C397 1.264 . S
O399 Mg392 1.986 . S
O399 C403 1.246 . S
O400 Mg395 2.032 . S
O400 C403 1.259 . S
O401 Mg392 2.114 . S
O401 C404 1.252 . S
O402 Mg392 2.251 . S
O402 Mg395 2.079 . S
O402 C404 1.273 . S
C403 O399 1.246 . S
C403 O400 1.259 . S
C404 O401 1.252 . S
C404 O402 1.273 . S
O405 Mg392 2.010 . S
O405 C397 1.249 . S
Mg406 O407 2.028 . S
Mg406 O413 1.986 . S
Mg406 O415 2.114 . S
Mg406 O416 2.251 . S
Mg406 O419 2.010 . S
O407 Mg406 2.028 . S
O407 C410 1.250 . S
O408 Mg409 2.028 . S
O408 C410 1.248 . S
Mg409 O408 2.028 . S
Mg409 O414 2.032 . S
Mg409 O416 2.079 . S
C410 O407 1.250 . S
C410 O408 1.248 . S
C411 O412 1.264 . S
C411 O419 1.249 . S
O412 C411 1.264 . S
O413 Mg406 1.986 . S
O413 C417 1.246 . S
O414 Mg409 2.032 . S
O414 C417 1.259 . S
O415 Mg406 2.114 . S
O415 C418 1.252 . S
O416 Mg406 2.251 . S
O416 Mg409 2.079 . S
O416 C418 1.273 . S
C417 O413 1.246 . S
C417 O414 1.259 . S
C418 O415 1.252 . S
C418 O416 1.273 . S
O419 Mg406 2.010 . S
O419 C411 1.249 . S
Mg420 O421 2.028 . S
Mg420 O427 1.986 . S
Mg420 O429 2.114 . S
Mg420 O430 2.251 . S
Mg420 O433 2.010 . S
O421 Mg420 2.028 . S
O421 C424 1.250 . S
O422 Mg423 2.028 . S
O422 C424 1.248 . S
Mg423 O422 2.028 . S
Mg423 O428 2.032 . S
Mg423 O430 2.079 . S
C424 O421 1.250 . S
C424 O422 1.248 . S
C425 O426 1.264 . S
C425 O433 1.249 . S
O426 C425 1.264 . S
O427 Mg420 1.986 . S
O427 C431 1.246 . S
O428 Mg423 2.032 . S
O428 C431 1.259 . S
O429 Mg420 2.114 . S
O429 C432 1.252 . S
O430 Mg420 2.251 . S
O430 Mg423 2.079 . S
O430 C432 1.273 . S
C431 O427 1.246 . S
C431 O428 1.259 . S
C432 O429 1.252 . S
C432 O430 1.273 . S
O433 Mg420 2.010 . S
O433 C425 1.249 . S
Mg434 O435 2.028 . S
Mg434 O441 1.986 . S
Mg434 O443 2.114 . S
Mg434 O444 2.251 . S
Mg434 O447 2.010 . S
O435 Mg434 2.028 . S
O435 C438 1.250 . S
O436 Mg437 2.028 . S
O436 C438 1.248 . S
Mg437 O436 2.028 . S
Mg437 O442 2.032 . S
Mg437 O444 2.079 . S
C438 O435 1.250 . S
C438 O436 1.248 . S
C439 O440 1.264 . S
C439 O447 1.249 . S
O440 C439 1.264 . S
O441 Mg434 1.986 . S
O441 C445 1.246 . S
O442 Mg437 2.032 . S
O442 C445 1.259 . S
O443 Mg434 2.114 . S
O443 C446 1.252 . S
O444 Mg434 2.251 . S
O444 Mg437 2.079 . S
O444 C446 1.273 . S
C445 O441 1.246 . S
C445 O442 1.259 . S
C446 O443 1.252 . S
C446 O444 1.273 . S
O447 Mg434 2.010 . S
O447 C439 1.249 . S
Mg448 O449 2.028 . S
Mg448 O455 1.986 . S
Mg448 O457 2.114 . S
Mg448 O458 2.251 . S
Mg448 O461 2.010 . S
O449 Mg448 2.028 . S
O449 C452 1.250 . S
O450 Mg451 2.028 . S
O450 C452 1.248 . S
Mg451 O450 2.028 . S
Mg451 O456 2.032 . S
Mg451 O458 2.079 . S
C452 O449 1.250 . S
C452 O450 1.248 . S
C453 O454 1.264 . S
C453 O461 1.249 . S
O454 C453 1.264 . S
O455 Mg448 1.986 . S
O455 C459 1.246 . S
O456 Mg451 2.032 . S
O456 C459 1.259 . S
O457 Mg448 2.114 . S
O457 C460 1.252 . S
O458 Mg448 2.251 . S
O458 Mg451 2.079 . S
O458 C460 1.273 . S
C459 O455 1.246 . S
C459 O456 1.259 . S
C460 O457 1.252 . S
C460 O458 1.273 . S
O461 Mg448 2.010 . S
O461 C453 1.249 . S
Mg462 O463 2.028 . S
Mg462 O469 1.986 . S
Mg462 O471 2.114 . S
Mg462 O472 2.251 . S
Mg462 O475 2.010 . S
O463 Mg462 2.028 . S
O463 C466 1.250 . S
O464 Mg465 2.028 . S
O464 C466 1.248 . S
Mg465 O464 2.028 . S
Mg465 O470 2.032 . S
Mg465 O472 2.079 . S
C466 O463 1.250 . S
C466 O464 1.248 . S
C467 O468 1.264 . S
C467 O475 1.249 . S
O468 C467 1.264 . S
O469 Mg462 1.986 . S
O469 C473 1.246 . S
O470 Mg465 2.032 . S
O470 C473 1.259 . S
O471 Mg462 2.114 . S
O471 C474 1.252 . S
O472 Mg462 2.251 . S
O472 Mg465 2.079 . S
O472 C474 1.273 . S
C473 O469 1.246 . S
C473 O470 1.259 . S
C474 O471 1.252 . S
C474 O472 1.273 . S
O475 Mg462 2.010 . S
O475 C467 1.249 . S
Mg476 O477 2.028 . S
Mg476 O483 1.986 . S
Mg476 O485 2.114 . S
Mg476 O486 2.251 . S
Mg476 O489 2.010 . S
O477 Mg476 2.028 . S
O477 C480 1.250 . S
O478 Mg479 2.028 . S
O478 C480 1.248 . S
Mg479 O478 2.028 . S
Mg479 O484 2.032 . S
Mg479 O486 2.079 . S
C480 O477 1.250 . S
C480 O478 1.248 . S
C481 O482 1.264 . S
C481 O489 1.249 . S
O482 C481 1.264 . S
O483 Mg476 1.986 . S
O483 C487 1.246 . S
O484 Mg479 2.032 . S
O484 C487 1.259 . S
O485 Mg476 2.114 . S
O485 C488 1.252 . S
O486 Mg476 2.251 . S
O486 Mg479 2.079 . S
O486 C488 1.273 . S
C487 O483 1.246 . S
C487 O484 1.259 . S
C488 O485 1.252 . S
C488 O486 1.273 . S
O489 Mg476 2.010 . S
O489 C481 1.249 . S
Mg490 O491 2.028 . S
Mg490 O497 1.986 . S
Mg490 O499 2.114 . S
Mg490 O500 2.251 . S
Mg490 O503 2.010 . S
O491 Mg490 2.028 . S
O491 C494 1.250 . S
O492 Mg493 2.028 . S
O492 C494 1.248 . S
Mg493 O492 2.028 . S
Mg493 O498 2.032 . S
Mg493 O500 2.079 . S
C494 O491 1.250 . S
C494 O492 1.248 . S
C495 O496 1.264 . S
C495 O503 1.249 . S
O496 C495 1.264 . S
O497 Mg490 1.986 . S
O497 C501 1.246 . S
O498 Mg493 2.032 . S
O498 C501 1.259 . S
O499 Mg490 2.114 . S
O499 C502 1.252 . S
O500 Mg490 2.251 . S
O500 Mg493 2.079 . S
O500 C502 1.273 . S
C501 O497 1.246 . S
C501 O498 1.259 . S
C502 O499 1.252 . S
C502 O500 1.273 . S
O503 Mg490 2.010 . S
O503 C495 1.249 . S
Mg504 O505 2.028 . S
Mg504 O511 1.986 . S
Mg504 O513 2.114 . S
Mg504 O514 2.251 . S
Mg504 O517 2.010 . S
O505 Mg504 2.028 . S
O505 C508 1.250 . S
O506 Mg507 2.028 . S
O506 C508 1.248 . S
Mg507 O506 2.028 . S
Mg507 O512 2.032 . S
Mg507 O514 2.079 . S
C508 O505 1.250 . S
C508 O506 1.248 . S
C509 O510 1.264 . S
C509 O517 1.249 . S
O510 C509 1.264 . S
O511 Mg504 1.986 . S
O511 C515 1.246 . S
O512 Mg507 2.032 . S
O512 C515 1.259 . S
O513 Mg504 2.114 . S
O513 C516 1.252 . S
O514 Mg504 2.251 . S
O514 Mg507 2.079 . S
O514 C516 1.273 . S
C515 O511 1.246 . S
C515 O512 1.259 . S
C516 O513 1.252 . S
C516 O514 1.273 . S
O517 Mg504 2.010 . S
O517 C509 1.249 . S
Mg518 O519 2.028 . S
Mg518 O525 1.986 . S
Mg518 O527 2.114 . S
Mg518 O528 2.251 . S
Mg518 O531 2.010 . S
O519 Mg518 2.028 . S
O519 C522 1.250 . S
O520 Mg521 2.036 . S
O520 C522 1.248 . S
Mg521 O520 2.036 . S
Mg521 O526 2.032 . S
Mg521 O528 2.079 . S
C522 O519 1.250 . S
C522 O520 1.248 . S
C523 O524 1.264 . S
C523 O531 1.249 . S
O524 C523 1.264 . S
O525 Mg518 1.986 . S
O525 C529 1.246 . S
O526 Mg521 2.032 . S
O526 C529 1.259 . S
O527 Mg518 2.114 . S
O527 C530 1.252 . S
O528 Mg518 2.251 . S
O528 Mg521 2.079 . S
O528 C530 1.273 . S
C529 O525 1.246 . S
C529 O526 1.259 . S
C530 O527 1.252 . S
C530 O528 1.273 . S
O531 Mg518 2.010 . S
O531 C523 1.249 . S
Mg532 O533 2.028 . S
Mg532 O539 1.986 . S
Mg532 O541 2.114 . S
Mg532 O542 2.251 . S
Mg532 O545 2.010 . S
O533 Mg532 2.028 . S
O533 C536 1.250 . S
O534 Mg535 2.028 . S
O534 C536 1.248 . S
Mg535 O534 2.028 . S
Mg535 O540 2.032 . S
Mg535 O542 2.079 . S
C536 O533 1.250 . S
C536 O534 1.248 . S
C537 O538 1.264 . S
C537 O545 1.249 . S
O538 C537 1.264 . S
O539 Mg532 1.986 . S
O539 C543 1.246 . S
O540 Mg535 2.032 . S
O540 C543 1.259 . S
O541 Mg532 2.114 . S
O541 C544 1.252 . S
O542 Mg532 2.251 . S
O542 Mg535 2.079 . S
O542 C544 1.273 . S
C543 O539 1.246 . S
C543 O540 1.259 . S
C544 O541 1.252 . S
C544 O542 1.273 . S
O545 Mg532 2.010 . S
O545 C537 1.249 . S
Mg546 O547 2.028 . S
Mg546 O553 1.986 . S
Mg546 O555 2.114 . S
Mg546 O556 2.251 . S
Mg546 O559 2.010 . S
O547 Mg546 2.028 . S
O547 C550 1.250 . S
O548 Mg549 2.036 . S
O548 C550 1.248 . S
Mg549 O548 2.036 . S
Mg549 O554 2.032 . S
Mg549 O556 2.079 . S
C550 O547 1.250 . S
C550 O548 1.248 . S
C551 O552 1.264 . S
C551 O559 1.249 . S
O552 C551 1.264 . S
O553 Mg546 1.986 . S
O553 C557 1.246 . S
O554 Mg549 2.032 . S
O554 C557 1.259 . S
O555 Mg546 2.114 . S
O555 C558 1.252 . S
O556 Mg546 2.251 . S
O556 Mg549 2.079 . S
O556 C558 1.273 . S
C557 O553 1.246 . S
C557 O554 1.259 . S
C558 O555 1.252 . S
C558 O556 1.273 . S
O559 Mg546 2.010 . S
O559 C551 1.249 . S
Mg560 O561 2.028 . S
Mg560 O567 1.986 . S
Mg560 O569 2.114 . S
Mg560 O570 2.251 . S
Mg560 O573 2.010 . S
O561 Mg560 2.028 . S
O561 C564 1.250 . S
O562 Mg563 2.028 . S
O562 C564 1.248 . S
Mg563 O562 2.028 . S
Mg563 O568 2.032 . S
Mg563 O570 2.079 . S
C564 O561 1.250 . S
C564 O562 1.248 . S
C565 O566 1.264 1_556 S
C565 O573 1.249 . S
O566 C565 1.264 1_554 S
O567 Mg560 1.986 . S
O567 C571 1.246 . S
O568 Mg563 2.032 . S
O568 C571 1.259 . S
O569 Mg560 2.114 . S
O569 C572 1.252 . S
O570 Mg560 2.251 . S
O570 Mg563 2.079 . S
O570 C572 1.273 . S
C571 O567 1.246 . S
C571 O568 1.259 . S
C572 O569 1.252 . S
C572 O570 1.273 . S
O573 Mg560 2.010 . S
O573 C565 1.249 . S
Mg574 O575 2.028 . S
Mg574 O581 1.986 . S
Mg574 O583 2.114 . S
Mg574 O584 2.251 . S
Mg574 O587 2.010 . S
O575 Mg574 2.028 . S
O575 C578 1.250 . S
O576 Mg577 2.028 . S
O576 C578 1.248 . S
Mg577 O576 2.028 . S
Mg577 O582 2.032 . S
Mg577 O584 2.079 . S
C578 O575 1.250 . S
C578 O576 1.248 . S
C579 O580 1.264 . S
C579 O587 1.249 . S
O580 C579 1.264 . S
O581 Mg574 1.986 . S
O581 C585 1.246 . S
O582 Mg577 2.032 . S
O582 C585 1.259 . S
O583 Mg574 2.114 . S
O583 C586 1.252 . S
O584 Mg574 2.251 . S
O584 Mg577 2.079 . S
O584 C586 1.273 . S
C585 O581 1.246 . S
C585 O582 1.259 . S
C586 O583 1.252 . S
C586 O584 1.273 . S
O587 Mg574 2.010 . S
O587 C579 1.249 . S
Mg588 O589 2.028 . S
Mg588 O595 1.986 . S
Mg588 O597 2.114 . S
Mg588 O598 2.251 . S
Mg588 O601 2.010 . S
O589 Mg588 2.028 . S
O589 C592 1.250 1_455 S
O590 Mg591 2.028 1_655 S
O590 C592 1.248 . S
Mg591 O590 2.028 1_455 S
Mg591 O596 2.032 . S
Mg591 O598 2.079 . S
C592 O589 1.250 1_655 S
C592 O590 1.248 . S
C593 O594 1.264 . S
C593 O601 1.249 . S
O594 C593 1.264 . S
O595 Mg588 1.986 . S
O595 C599 1.246 . S
O596 Mg591 2.032 . S
O596 C599 1.259 . S
O597 Mg588 2.114 . S
O597 C600 1.252 . S
O598 Mg588 2.251 . S
O598 Mg591 2.079 . S
O598 C600 1.273 . S
C599 O595 1.246 . S
C599 O596 1.259 . S
C600 O597 1.252 . S
C600 O598 1.273 . S
O601 Mg588 2.010 . S
O601 C593 1.249 . S
Mg602 O603 2.028 . S
Mg602 O609 1.986 . S
Mg602 O611 2.114 . S
Mg602 O612 2.251 . S
Mg602 O615 2.010 . S
O603 Mg602 2.028 . S
O603 C606 1.250 . S
O604 Mg605 2.028 . S
O604 C606 1.248 . S
Mg605 O604 2.028 . S
Mg605 O610 2.032 . S
Mg605 O612 2.079 . S
C606 O603 1.250 . S
C606 O604 1.248 . S
C607 O608 1.264 . S
C607 O615 1.249 . S
O608 C607 1.264 . S
O609 Mg602 1.986 . S
O609 C613 1.246 . S
O610 Mg605 2.032 . S
O610 C613 1.259 . S
O611 Mg602 2.114 . S
O611 C614 1.252 . S
O612 Mg602 2.251 . S
O612 Mg605 2.079 . S
O612 C614 1.273 . S
C613 O609 1.246 . S
C613 O610 1.259 . S
C614 O611 1.252 . S
C614 O612 1.273 . S
O615 Mg602 2.010 . S
O615 C607 1.249 . S
Mg616 O617 2.028 . S
Mg616 O623 1.986 . S
Mg616 O625 2.114 . S
Mg616 O626 2.251 . S
Mg616 O629 2.010 . S
O617 Mg616 2.028 . S
O617 C620 1.250 1_655 S
O618 Mg619 2.028 1_455 S
O618 C620 1.248 . S
Mg619 O618 2.028 1_655 S
Mg619 O624 2.032 . S
Mg619 O626 2.079 . S
C620 O617 1.250 1_455 S
C620 O618 1.248 . S
C621 O622 1.264 . S
C621 O629 1.249 . S
O622 C621 1.264 . S
O623 Mg616 1.986 . S
O623 C627 1.246 . S
O624 Mg619 2.032 . S
O624 C627 1.259 . S
O625 Mg616 2.114 . S
O625 C628 1.252 . S
O626 Mg616 2.251 . S
O626 Mg619 2.079 . S
O626 C628 1.273 . S
C627 O623 1.246 . S
C627 O624 1.259 . S
C628 O625 1.252 . S
C628 O626 1.273 . S
O629 Mg616 2.010 . S
O629 C621 1.249 . S
Mg630 O631 2.028 . S
Mg630 O637 1.986 . S
Mg630 O639 2.114 . S
Mg630 O640 2.251 . S
Mg630 O643 2.010 . S
O631 Mg630 2.028 . S
O631 C634 1.250 . S
O632 Mg633 2.028 . S
O632 C634 1.248 . S
Mg633 O632 2.028 . S
Mg633 O638 2.032 . S
Mg633 O640 2.079 . S
C634 O631 1.250 . S
C634 O632 1.248 . S
C635 O636 1.264 1_556 S
C635 O643 1.249 . S
O636 C635 1.264 1_554 S
O637 Mg630 1.986 . S
O637 C641 1.246 . S
O638 Mg633 2.032 . S
O638 C641 1.259 . S
O639 Mg630 2.114 . S
O639 C642 1.252 . S
O640 Mg630 2.251 . S
O640 Mg633 2.079 . S
O640 C642 1.273 . S
C641 O637 1.246 . S
C641 O638 1.259 . S
C642 O639 1.252 . S
C642 O640 1.273 . S
O643 Mg630 2.010 . S
O643 C635 1.249 . S
Mg644 O645 2.028 . S
Mg644 O651 1.986 . S
Mg644 O653 2.114 . S
Mg644 O654 2.251 . S
Mg644 O657 2.010 . S
O645 Mg644 2.028 . S
O645 C648 1.250 . S
O646 Mg647 2.028 . S
O646 C648 1.248 . S
Mg647 O646 2.028 . S
Mg647 O652 2.032 . S
Mg647 O654 2.079 . S
C648 O645 1.250 . S
C648 O646 1.248 . S
C649 O650 1.264 . S
C649 O657 1.249 . S
O650 C649 1.264 . S
O651 Mg644 1.986 . S
O651 C655 1.246 . S
O652 Mg647 2.032 . S
O652 C655 1.259 . S
O653 Mg644 2.114 . S
O653 C656 1.252 . S
O654 Mg644 2.251 . S
O654 Mg647 2.079 . S
O654 C656 1.273 . S
C655 O651 1.246 . S
C655 O652 1.259 . S
C656 O653 1.252 . S
C656 O654 1.273 . S
O657 Mg644 2.010 . S
O657 C649 1.249 . S
Mg658 O659 2.028 . S
Mg658 O665 1.986 . S
Mg658 O667 2.114 . S
Mg658 O668 2.251 . S
Mg658 O671 2.010 . S
O659 Mg658 2.028 . S
O659 C662 1.250 . S
O660 Mg661 2.028 . S
O660 C662 1.248 . S
Mg661 O660 2.028 . S
Mg661 O666 2.032 . S
Mg661 O668 2.079 . S
C662 O659 1.250 . S
C662 O660 1.248 . S
C663 O664 1.264 . S
C663 O671 1.249 . S
O664 C663 1.264 . S
O665 Mg658 1.986 . S
O665 C669 1.246 . S
O666 Mg661 2.032 . S
O666 C669 1.259 . S
O667 Mg658 2.114 . S
O667 C670 1.252 . S
O668 Mg658 2.251 . S
O668 Mg661 2.079 . S
O668 C670 1.273 . S
C669 O665 1.246 . S
C669 O666 1.259 . S
C670 O667 1.252 . S
C670 O668 1.273 . S
O671 Mg658 2.010 . S
O671 C663 1.249 . S
C291 C4 1.009 . S
C18 C242 1.150 . S
C32 C263 1.009 . S
C270 C46 1.150 . S
C333 C67 0.964 . S
C74 C298 1.306 . S
C95 C319 0.964 . S
C102 C228 1.306 . S
C123 C214 0.918 . S
C137 C179 1.135 . S
C151 C186 0.918 . S
C207 C165 1.135 . S
C347 C627 0.952 . S
C578 C354 1.120 . S
C375 C599 0.952 . S
C606 C382 1.120 . S
C396 C669 1.011 . S
C634 C410 1.183 . S
C424 C655 1.011 . S
C564 C438 1.183 . S
C459 C557 1.016 . S
C515 C466 0.976 . S
C529 C487 1.016 . S
C543 C494 0.977 . S
C368 C11 0.846 . S
C25 C389 1.135 1_556 S
C39 C340 0.846 . S
C53 C361 1.135 1_556 S
C60 C431 0.893 . S
C445 C81 1.071 1_556 S
C403 C88 0.893 . S
C417 C109 1.072 1_556 S
C508 C116 1.171 . S
C130 C522 0.923 1_565 S
C536 C144 1.171 . S
C158 C550 0.923 1_545 S
C172 C452 1.283 . S
C193 C473 0.988 1_565 S
C480 C200 1.283 . S
C501 C221 0.988 1_565 S
C235 C613 1.071 . S
C249 C641 1.212 . S
C648 C256 1.313 . S
C571 C277 1.212 . S
C284 C662 1.313 . S
C585 C305 1.071 . S
C312 C592 1.190 . S
C326 C620 1.190 . S
C397 C12 2.161 1_655 S
C411 C26 1.674 . S
C425 C40 2.161 1_455 S
C54 C439 1.674 . S
C348 C61 2.123 1_655 S
C355 C82 2.333 . S
C89 C376 2.123 1_655 S
C383 C110 2.333 . S
C117 C544 1.712 1_545 S
C131 C558 2.140 . S
C516 C145 1.713 1_545 S
C159 C530 2.140 . S
C488 C173 1.938 1_545 S
C194 C495 2.052 . S
C201 C460 1.938 1_545 S
C222 C467 2.052 . S
C635 C236 1.817 1_556 S
C250 C607 1.872 1_556 S
C257 C628 1.829 . S
C278 C579 1.872 1_556 S
C600 C285 1.829 . S
C565 C306 1.817 1_556 S
C670 C313 1.848 . S
C327 C656 1.848 . S
C215 C5 4.308 . S
C19 C180 3.896 . S
C187 C33 4.308 . S
C208 C47 3.896 . S
C138 C68 3.978 . S
C75 C152 2.724 . S
C96 C166 3.978 . S
C124 C103 2.724 . S
C229 C292 3.183 . S
C334 C243 3.373 . S
C299 C264 3.183 . S
C271 C320 3.373 . S
C551 C341 4.014 . S
C509 C362 3.523 . S
C369 C523 4.014 . S
C537 C390 3.523 . S
C474 C404 3.814 . S
C418 C481 2.806 . S
C432 C502 3.814 . S
C446 C453 2.806 . S
C572 C621 2.865 . S
C663 C586 3.351 . S
C642 C593 2.865 . S
C649 C614 3.351 . S
