# Generated by pormake.
# Topology umr, (4)-cn, num edge types: 1
# Building blocks:
#     Node 0, Type 0, BuildingBlock: QUQFOY_clean_sbu_1, # of connection points: 4
#     Node 1, Type 0, BuildingBlock: QUQFOY_clean_sbu_1, # of connection points: 4
#     Node 2, Type 0, BuildingBlock: QUQFOY_clean_sbu_1, # of connection points: 4
#     Node 3, Type 0, BuildingBlock: QUQFOY_clean_sbu_1, # of connection points: 4
#     Node 4, Type 0, BuildingBlock: QUQFOY_clean_sbu_1, # of connection points: 4
#     Node 5, Type 0, BuildingBlock: QUQFOY_clean_sbu_1, # of connection points: 4
#     Node 6, Type 0, BuildingBlock: QUQFOY_clean_sbu_1, # of connection points: 4
#     Node 7, Type 0, BuildingBlock: QUQFOY_clean_sbu_1, # of connection points: 4
#     Node 8, Type 0, BuildingBlock: QUQFOY_clean_sbu_1, # of connection points: 4
#     Node 9, Type 0, BuildingBlock: QUQFOY_clean_sbu_1, # of connection points: 4
#     Node 10, Type 0, BuildingBlock: QUQFOY_clean_sbu_1, # of connection points: 4
#     Node 11, Type 0, BuildingBlock: QUQFOY_clean_sbu_1, # of connection points: 4
#     Node 12, Type 0, BuildingBlock: QUQFOY_clean_sbu_1, # of connection points: 4
#     Node 13, Type 0, BuildingBlock: QUQFOY_clean_sbu_1, # of connection points: 4
#     Node 14, Type 0, BuildingBlock: QUQFOY_clean_sbu_1, # of connection points: 4
#     Node 15, Type 0, BuildingBlock: QUQFOY_clean_sbu_1, # of connection points: 4
#     Node 16, Type 0, BuildingBlock: QUQFOY_clean_sbu_1, # of connection points: 4
#     Node 17, Type 0, BuildingBlock: QUQFOY_clean_sbu_1, # of connection points: 4
#     Node 18, Type 0, BuildingBlock: QUQFOY_clean_sbu_1, # of connection points: 4
#     Node 19, Type 0, BuildingBlock: QUQFOY_clean_sbu_1, # of connection points: 4
#     Node 20, Type 0, BuildingBlock: QUQFOY_clean_sbu_1, # of connection points: 4
#     Node 21, Type 0, BuildingBlock: QUQFOY_clean_sbu_1, # of connection points: 4
#     Node 22, Type 0, BuildingBlock: QUQFOY_clean_sbu_1, # of connection points: 4
#     Node 23, Type 0, BuildingBlock: QUQFOY_clean_sbu_1, # of connection points: 4
#     Node 24, Type 0, BuildingBlock: QUQFOY_clean_sbu_1, # of connection points: 4
#     Node 25, Type 0, BuildingBlock: QUQFOY_clean_sbu_1, # of connection points: 4
#     Node 26, Type 0, BuildingBlock: QUQFOY_clean_sbu_1, # of connection points: 4
#     Node 27, Type 0, BuildingBlock: QUQFOY_clean_sbu_1, # of connection points: 4
#     Node 28, Type 0, BuildingBlock: QUQFOY_clean_sbu_1, # of connection points: 4
#     Node 29, Type 0, BuildingBlock: QUQFOY_clean_sbu_1, # of connection points: 4
#     Node 30, Type 0, BuildingBlock: QUQFOY_clean_sbu_1, # of connection points: 4
#     Node 31, Type 0, BuildingBlock: QUQFOY_clean_sbu_1, # of connection points: 4
#     Edge 32, Type (0, 0), BuildingBlock: KIFKEQ_clean_linker_1, # of connection points: 2
#     Edge 33, Type (0, 0), BuildingBlock: KIFKEQ_clean_linker_1, # of connection points: 2
#     Edge 34, Type (0, 0), BuildingBlock: KIFKEQ_clean_linker_1, # of connection points: 2
#     Edge 35, Type (0, 0), BuildingBlock: KIFKEQ_clean_linker_1, # of connection points: 2
#     Edge 36, Type (0, 0), BuildingBlock: KIFKEQ_clean_linker_1, # of connection points: 2
#     Edge 37, Type (0, 0), BuildingBlock: KIFKEQ_clean_linker_1, # of connection points: 2
#     Edge 38, Type (0, 0), BuildingBlock: KIFKEQ_clean_linker_1, # of connection points: 2
#     Edge 39, Type (0, 0), BuildingBlock: KIFKEQ_clean_linker_1, # of connection points: 2
#     Edge 40, Type (0, 0), BuildingBlock: KIFKEQ_clean_linker_1, # of connection points: 2
#     Edge 41, Type (0, 0), BuildingBlock: KIFKEQ_clean_linker_1, # of connection points: 2
#     Edge 42, Type (0, 0), BuildingBlock: KIFKEQ_clean_linker_1, # of connection points: 2
#     Edge 43, Type (0, 0), BuildingBlock: KIFKEQ_clean_linker_1, # of connection points: 2
#     Edge 44, Type (0, 0), BuildingBlock: KIFKEQ_clean_linker_1, # of connection points: 2
#     Edge 45, Type (0, 0), BuildingBlock: KIFKEQ_clean_linker_1, # of connection points: 2
#     Edge 46, Type (0, 0), BuildingBlock: KIFKEQ_clean_linker_1, # of connection points: 2
#     Edge 47, Type (0, 0), BuildingBlock: KIFKEQ_clean_linker_1, # of connection points: 2
#     Edge 48, Type (0, 0), BuildingBlock: KIFKEQ_clean_linker_1, # of connection points: 2
#     Edge 49, Type (0, 0), BuildingBlock: KIFKEQ_clean_linker_1, # of connection points: 2
#     Edge 50, Type (0, 0), BuildingBlock: KIFKEQ_clean_linker_1, # of connection points: 2
#     Edge 51, Type (0, 0), BuildingBlock: KIFKEQ_clean_linker_1, # of connection points: 2
#     Edge 52, Type (0, 0), BuildingBlock: KIFKEQ_clean_linker_1, # of connection points: 2
#     Edge 53, Type (0, 0), BuildingBlock: KIFKEQ_clean_linker_1, # of connection points: 2
#     Edge 54, Type (0, 0), BuildingBlock: KIFKEQ_clean_linker_1, # of connection points: 2
#     Edge 55, Type (0, 0), BuildingBlock: KIFKEQ_clean_linker_1, # of connection points: 2
#     Edge 56, Type (0, 0), BuildingBlock: KIFKEQ_clean_linker_1, # of connection points: 2
#     Edge 57, Type (0, 0), BuildingBlock: KIFKEQ_clean_linker_1, # of connection points: 2
#     Edge 58, Type (0, 0), BuildingBlock: KIFKEQ_clean_linker_1, # of connection points: 2
#     Edge 59, Type (0, 0), BuildingBlock: KIFKEQ_clean_linker_1, # of connection points: 2
#     Edge 60, Type (0, 0), BuildingBlock: KIFKEQ_clean_linker_1, # of connection points: 2
#     Edge 61, Type (0, 0), BuildingBlock: KIFKEQ_clean_linker_1, # of connection points: 2
#     Edge 62, Type (0, 0), BuildingBlock: KIFKEQ_clean_linker_1, # of connection points: 2
#     Edge 63, Type (0, 0), BuildingBlock: KIFKEQ_clean_linker_1, # of connection points: 2
#     Edge 64, Type (0, 0), BuildingBlock: KIFKEQ_clean_linker_1, # of connection points: 2
#     Edge 65, Type (0, 0), BuildingBlock: KIFKEQ_clean_linker_1, # of connection points: 2
#     Edge 66, Type (0, 0), BuildingBlock: KIFKEQ_clean_linker_1, # of connection points: 2
#     Edge 67, Type (0, 0), BuildingBlock: KIFKEQ_clean_linker_1, # of connection points: 2
#     Edge 68, Type (0, 0), BuildingBlock: KIFKEQ_clean_linker_1, # of connection points: 2
#     Edge 69, Type (0, 0), BuildingBlock: KIFKEQ_clean_linker_1, # of connection points: 2
#     Edge 70, Type (0, 0), BuildingBlock: KIFKEQ_clean_linker_1, # of connection points: 2
#     Edge 71, Type (0, 0), BuildingBlock: KIFKEQ_clean_linker_1, # of connection points: 2
#     Edge 72, Type (0, 0), BuildingBlock: KIFKEQ_clean_linker_1, # of connection points: 2
#     Edge 73, Type (0, 0), BuildingBlock: KIFKEQ_clean_linker_1, # of connection points: 2
#     Edge 74, Type (0, 0), BuildingBlock: KIFKEQ_clean_linker_1, # of connection points: 2
#     Edge 75, Type (0, 0), BuildingBlock: KIFKEQ_clean_linker_1, # of connection points: 2
#     Edge 76, Type (0, 0), BuildingBlock: KIFKEQ_clean_linker_1, # of connection points: 2
#     Edge 77, Type (0, 0), BuildingBlock: KIFKEQ_clean_linker_1, # of connection points: 2
#     Edge 78, Type (0, 0), BuildingBlock: KIFKEQ_clean_linker_1, # of connection points: 2
#     Edge 79, Type (0, 0), BuildingBlock: KIFKEQ_clean_linker_1, # of connection points: 2
#     Edge 80, Type (0, 0), BuildingBlock: KIFKEQ_clean_linker_1, # of connection points: 2
#     Edge 81, Type (0, 0), BuildingBlock: KIFKEQ_clean_linker_1, # of connection points: 2
#     Edge 82, Type (0, 0), BuildingBlock: KIFKEQ_clean_linker_1, # of connection points: 2
#     Edge 83, Type (0, 0), BuildingBlock: KIFKEQ_clean_linker_1, # of connection points: 2
#     Edge 84, Type (0, 0), BuildingBlock: KIFKEQ_clean_linker_1, # of connection points: 2
#     Edge 85, Type (0, 0), BuildingBlock: KIFKEQ_clean_linker_1, # of connection points: 2
#     Edge 86, Type (0, 0), BuildingBlock: KIFKEQ_clean_linker_1, # of connection points: 2
#     Edge 87, Type (0, 0), BuildingBlock: KIFKEQ_clean_linker_1, # of connection points: 2
#     Edge 88, Type (0, 0), BuildingBlock: KIFKEQ_clean_linker_1, # of connection points: 2
#     Edge 89, Type (0, 0), BuildingBlock: KIFKEQ_clean_linker_1, # of connection points: 2
#     Edge 90, Type (0, 0), BuildingBlock: KIFKEQ_clean_linker_1, # of connection points: 2
#     Edge 91, Type (0, 0), BuildingBlock: KIFKEQ_clean_linker_1, # of connection points: 2
#     Edge 92, Type (0, 0), BuildingBlock: KIFKEQ_clean_linker_1, # of connection points: 2
#     Edge 93, Type (0, 0), BuildingBlock: KIFKEQ_clean_linker_1, # of connection points: 2
#     Edge 94, Type (0, 0), BuildingBlock: KIFKEQ_clean_linker_1, # of connection points: 2
#     Edge 95, Type (0, 0), BuildingBlock: KIFKEQ_clean_linker_1, # of connection points: 2
# Relax obj value: 0.051
# Max RMSD: 0.110
# Mean RMSD: 0.110
data_MOF--net-umr--node1-QUQFOY_clean_sbu_1--edge1-KIFKEQ_clean_linker_1
_symmetry_space_group_name_H-M    P1
_symmetry_Int_Tables_number       1
_symmetry_cell_setting            triclinic
loop_
_symmetry_equiv_pos_as_xyz
'x, y, z'
_cell_length_a     87.376072
_cell_length_b     87.427848
_cell_length_c     28.622604
_cell_angle_alpha  89.995602
_cell_angle_beta   89.99036
_cell_angle_gamma 89.993551
loop_
_atom_site_label
_atom_site_type_symbol
_atom_site_fract_x
_atom_site_fract_y
_atom_site_fract_z
_atom_type_partial_charge
O0 O 0.1652 0.29096 0.18197 0.0
Cd1 Cd 0.16788 0.30197 0.11861 0.0
Cd2 Cd 0.166 0.27324 0.0865 0.0
O3 O 0.15826 0.26857 0.15342 0.0
O4 O 0.16251 0.32385 0.1297 0.0
O5 O 0.14801 0.30796 0.08861 0.0
C6 C 0.15 0.32129 0.1071 0.0
C7 C 0.15413 0.26481 0.01839 0.0
C8 C 0.16007 0.27749 0.18809 0.0
C9 C 0.19582 0.2892 0.07268 0.0
O10 O 0.18906 0.27639 0.07606 0.0
O11 O 0.18891 0.30142 0.08444 0.0
O12 O 0.16086 0.25539 0.04632 0.0
O13 O 0.15303 0.27896 0.0311 0.0
O14 O 0.96153 0.92095 0.42699 0.0
Cd15 Cd 0.94952 0.92155 0.36497 0.0
Cd16 Cd 0.97749 0.91798 0.3291 0.0
O17 O 0.98237 0.91078 0.39673 0.0
O18 O 0.92799 0.91567 0.37919 0.0
O19 O 0.9441 0.90086 0.33973 0.0
C20 C 0.93083 0.9028 0.35886 0.0
C21 C 0.98729 0.90597 0.26264 0.0
C22 C 0.97451 0.9146 0.43231 0.0
C23 C 0.96147 0.94796 0.31237 0.0
O24 O 0.97417 0.94097 0.31581 0.0
O25 O 0.94925 0.94157 0.32637 0.0
O26 O 0.99595 0.91357 0.29075 0.0
O27 O 0.97314 0.90405 0.27441 0.0
O28 O 0.33206 0.71184 0.68286 0.0
Cd29 Cd 0.3297 0.69931 0.62228 0.0
Cd30 Cd 0.33302 0.72763 0.58449 0.0
O31 O 0.34094 0.733 0.65097 0.0
O32 O 0.33423 0.6778 0.64057 0.0
O33 O 0.34916 0.69138 0.59377 0.0
C34 C 0.3467 0.67886 0.61663 0.0
C35 C 0.34422 0.73743 0.5166 0.0
C36 C 0.33804 0.72502 0.68709 0.0
C37 C 0.30255 0.71165 0.5734 0.0
O38 O 0.30989 0.72419 0.57399 0.0
O39 O 0.30886 0.69945 0.58798 0.0
O40 O 0.33676 0.74603 0.54522 0.0
O41 O 0.34643 0.72334 0.52844 0.0
O42 O 0.54071 0.08246 0.92676 0.0
Cd43 Cd 0.55304 0.08147 0.8654 0.0
Cd44 Cd 0.52482 0.08417 0.82842 0.0
O45 O 0.51961 0.09177 0.89551 0.0
O46 O 0.57452 0.08711 0.88114 0.0
O47 O 0.55906 0.10192 0.83941 0.0
C48 C 0.57211 0.09987 0.85974 0.0
C49 C 0.51451 0.09516 0.76086 0.0
C50 C 0.52754 0.08845 0.93145 0.0
C51 C 0.54163 0.05436 0.81503 0.0
O52 O 0.52881 0.06118 0.81727 0.0
O53 O 0.55371 0.06108 0.82879 0.0
O54 O 0.50617 0.08753 0.78978 0.0
O55 O 0.52859 0.09771 0.7723 0.0
O56 O 0.16701 0.71171 0.32738 0.0
Cd57 Cd 0.16831 0.69997 0.38976 0.0
Cd58 Cd 0.16535 0.72793 0.42455 0.0
O59 O 0.15726 0.73272 0.35774 0.0
O60 O 0.16296 0.67825 0.3764 0.0
O61 O 0.148 0.69395 0.41671 0.0
C62 C 0.1502 0.68071 0.39779 0.0
C63 C 0.15361 0.73611 0.49335 0.0
C64 C 0.1607 0.72471 0.32211 0.0
C65 C 0.19546 0.71241 0.43846 0.0
O66 O 0.18858 0.72517 0.43471 0.0
O67 O 0.18872 0.70014 0.42646 0.0
O68 O 0.16007 0.74565 0.46523 0.0
O69 O 0.15266 0.72197 0.48048 0.0
O70 O 0.54072 0.91494 0.58249 0.0
Cd71 Cd 0.55239 0.91774 0.64464 0.0
Cd72 Cd 0.52336 0.9167 0.67883 0.0
O73 O 0.51813 0.90908 0.61212 0.0
O74 O 0.57406 0.91224 0.63101 0.0
O75 O 0.55874 0.89801 0.67493 0.0
C76 C 0.57182 0.89989 0.65465 0.0
C77 C 0.51293 0.9062 0.74681 0.0
C78 C 0.52701 0.91037 0.57708 0.0
C79 C 0.54077 0.94616 0.68974 0.0
O80 O 0.52783 0.93957 0.68838 0.0
O81 O 0.55275 0.93902 0.67698 0.0
O82 O 0.50469 0.91385 0.71766 0.0
O83 O 0.52696 0.90336 0.73538 0.0
O84 O 0.3329 0.28948 0.82798 0.0
Cd85 Cd 0.33 0.30239 0.88758 0.0
Cd86 Cd 0.33357 0.27434 0.92684 0.0
O87 O 0.34167 0.26845 0.86078 0.0
O88 O 0.33442 0.32361 0.86612 0.0
O89 O 0.34876 0.31135 0.91774 0.0
C90 C 0.34646 0.32332 0.89214 0.0
C91 C 0.34524 0.26622 0.99599 0.0
C92 C 0.33886 0.27628 0.82429 0.0
C93 C 0.3028 0.28991 0.93626 0.0
O94 O 0.31032 0.27745 0.93685 0.0
O95 O 0.30896 0.30208 0.92075 0.0
O96 O 0.33845 0.25673 0.96849 0.0
O97 O 0.34645 0.28029 0.98255 0.0
O98 O 0.96418 0.08963 0.08032 0.0
Cd99 Cd 0.95115 0.08416 0.13817 0.0
Cd100 Cd 0.98033 0.08556 0.17773 0.0
O101 O 0.9866 0.09416 0.113 0.0
O102 O 0.92997 0.08794 0.11502 0.0
O103 O 0.94065 0.10154 0.17145 0.0
C104 C 0.9292 0.09928 0.14369 0.0
C105 C 0.98912 0.09579 0.24817 0.0
C106 C 0.97801 0.09402 0.07716 0.0
C107 C 0.96353 0.05535 0.1807 0.0
O108 O 0.97615 0.0625 0.18395 0.0
O109 O 0.95163 0.06213 0.16555 0.0
O110 O 0.99821 0.08887 0.2197 0.0
O111 O 0.97512 0.09792 0.23513 0.0
O112 O 0.83345 0.71093 0.82756 0.0
Cd113 Cd 0.8308 0.69788 0.88707 0.0
Cd114 Cd 0.83409 0.72659 0.92656 0.0
O115 O 0.84161 0.73231 0.85986 0.0
O116 O 0.83561 0.67676 0.86547 0.0
O117 O 0.84974 0.68926 0.91711 0.0
C118 C 0.84764 0.67725 0.89155 0.0
C119 C 0.84491 0.73739 0.99365 0.0
C120 C 0.83903 0.72429 0.82362 0.0
C121 C 0.80376 0.70968 0.93765 0.0
O122 O 0.81117 0.72219 0.93838 0.0
O123 O 0.80987 0.69767 0.9209 0.0
O124 O 0.8369 0.74538 0.96482 0.0
O125 O 0.84788 0.72339 0.98246 0.0
O126 O 0.04065 0.08192 0.58237 0.0
Cd127 Cd 0.05309 0.08033 0.64341 0.0
Cd128 Cd 0.02494 0.08403 0.68086 0.0
O129 O 0.01957 0.09128 0.61359 0.0
O130 O 0.07458 0.08534 0.62592 0.0
O131 O 0.06029 0.1002 0.67096 0.0
C132 C 0.07303 0.09793 0.64899 0.0
C133 C 0.01517 0.09589 0.7477 0.0
C134 C 0.02749 0.08794 0.57767 0.0
C135 C 0.041 0.05374 0.69523 0.0
O136 O 0.02843 0.06103 0.6938 0.0
O137 O 0.05318 0.05989 0.67984 0.0
O138 O 0.00654 0.0882 0.71976 0.0
O139 O 0.02927 0.09796 0.73565 0.0
O140 O 0.66868 0.28891 0.32638 0.0
Cd141 Cd 0.67009 0.30069 0.38869 0.0
Cd142 Cd 0.66825 0.27208 0.42327 0.0
O143 O 0.66014 0.26735 0.35661 0.0
O144 O 0.66417 0.32223 0.37509 0.0
O145 O 0.6498 0.30634 0.41667 0.0
C146 C 0.6516 0.31957 0.39727 0.0
C147 C 0.65795 0.26112 0.49071 0.0
C148 C 0.6629 0.27567 0.32112 0.0
C149 C 0.69782 0.28925 0.43619 0.0
O150 O 0.69126 0.27632 0.4331 0.0
O151 O 0.69074 0.3013 0.42401 0.0
O152 O 0.66552 0.25312 0.46079 0.0
O153 O 0.65502 0.27521 0.48032 0.0
O154 O 0.46169 0.91533 0.08136 0.0
Cd155 Cd 0.44867 0.92 0.13999 0.0
Cd156 Cd 0.47836 0.91796 0.179 0.0
O157 O 0.48427 0.9105 0.1127 0.0
O158 O 0.42749 0.91606 0.11721 0.0
O159 O 0.43866 0.90206 0.17185 0.0
C160 C 0.42706 0.90441 0.14476 0.0
C161 C 0.48929 0.90759 0.24652 0.0
C162 C 0.47552 0.91105 0.07722 0.0
C163 C 0.46083 0.94799 0.18712 0.0
O164 O 0.47338 0.9407 0.18946 0.0
O165 O 0.44895 0.94162 0.1703 0.0
O166 O 0.49715 0.9157 0.2176 0.0
O167 O 0.47535 0.90429 0.23524 0.0
O168 O 0.83319 0.29175 0.68221 0.0
Cd169 Cd 0.83191 0.30349 0.6198 0.0
Cd170 Cd 0.83512 0.27536 0.58491 0.0
O171 O 0.84273 0.27059 0.65216 0.0
O172 O 0.83766 0.32513 0.63267 0.0
O173 O 0.85225 0.3091 0.59223 0.0
C174 C 0.85031 0.32242 0.61097 0.0
C175 C 0.84665 0.26553 0.5177 0.0
C176 C 0.83934 0.27869 0.68764 0.0
C177 C 0.80497 0.29124 0.57028 0.0
O178 O 0.81203 0.27858 0.5733 0.0
O179 O 0.81146 0.30352 0.58337 0.0
O180 O 0.83929 0.25688 0.54644 0.0
O181 O 0.84864 0.27968 0.52922 0.0
O182 O 0.46286 0.0879 0.4268 0.0
Cd183 Cd 0.44994 0.08338 0.36788 0.0
Cd184 Cd 0.47921 0.08498 0.32926 0.0
O185 O 0.48533 0.09285 0.395 0.0
O186 O 0.42875 0.08733 0.39055 0.0
O187 O 0.43998 0.10136 0.33611 0.0
C188 C 0.42835 0.09901 0.36309 0.0
C189 C 0.48843 0.09573 0.26009 0.0
C190 C 0.47668 0.09225 0.4307 0.0
C191 C 0.46202 0.05505 0.32192 0.0
O192 O 0.47476 0.06206 0.32033 0.0
O193 O 0.45014 0.06176 0.3375 0.0
O194 O 0.49732 0.08845 0.28831 0.0
O195 O 0.47441 0.09795 0.27282 0.0
O196 O 0.6639 0.71141 0.18006 0.0
Cd197 Cd 0.66867 0.69871 0.12087 0.0
Cd198 Cd 0.66709 0.72792 0.08315 0.0
O199 O 0.65894 0.73391 0.14861 0.0
O200 O 0.66463 0.67743 0.14251 0.0
O201 O 0.65079 0.68891 0.08809 0.0
C202 C 0.65304 0.67716 0.11466 0.0
C203 C 0.65638 0.7369 0.01371 0.0
C204 C 0.65947 0.72519 0.18412 0.0
C205 C 0.69716 0.71107 0.07638 0.0
O206 O 0.6901 0.72377 0.075 0.0
O207 O 0.69042 0.69911 0.0912 0.0
O208 O 0.66347 0.74592 0.04201 0.0
O209 O 0.65433 0.72287 0.02652 0.0
O210 O 0.03795 0.91238 0.92922 0.0
Cd211 Cd 0.05085 0.91763 0.87086 0.0
Cd212 Cd 0.02153 0.9165 0.83242 0.0
O213 O 0.0154 0.90794 0.89725 0.0
O214 O 0.07205 0.91367 0.89352 0.0
O215 O 0.06109 0.90008 0.83757 0.0
C216 C 0.07263 0.90227 0.86503 0.0
C217 C 0.01246 0.90638 0.76224 0.0
C218 C 0.02411 0.90807 0.93283 0.0
C219 C 0.03861 0.94652 0.82842 0.0
O220 O 0.02589 0.93952 0.82602 0.0
O221 O 0.05051 0.93962 0.84301 0.0
O222 O 0.00351 0.91338 0.79094 0.0
O223 O 0.02647 0.90409 0.77496 0.0
O224 O 0.67072 0.78822 0.67968 0.0
Cd225 Cd 0.67178 0.80032 0.61794 0.0
Cd226 Cd 0.66863 0.77222 0.58162 0.0
O227 O 0.66105 0.76724 0.64881 0.0
O228 O 0.66618 0.82187 0.63277 0.0
O229 O 0.65132 0.80624 0.59184 0.0
C230 C 0.65339 0.81937 0.61162 0.0
C231 C 0.65716 0.76223 0.51446 0.0
C232 C 0.66451 0.77516 0.68461 0.0
C233 C 0.69867 0.78845 0.56725 0.0
O234 O 0.69169 0.77574 0.56985 0.0
O235 O 0.69213 0.80063 0.58096 0.0
O236 O 0.6647 0.7537 0.54307 0.0
O237 O 0.65499 0.77635 0.52603 0.0
O238 O 0.46286 0.41656 0.93054 0.0
Cd239 Cd 0.44998 0.41978 0.87099 0.0
Cd240 Cd 0.47845 0.41654 0.83212 0.0
O241 O 0.48409 0.40815 0.89794 0.0
O242 O 0.42872 0.41572 0.89289 0.0
O243 O 0.44058 0.40124 0.84076 0.0
C244 C 0.42871 0.40372 0.86667 0.0
C245 C 0.48724 0.40538 0.76299 0.0
C246 C 0.4761 0.41067 0.93429 0.0
C247 C 0.46256 0.44717 0.82327 0.0
O248 O 0.47509 0.43976 0.82291 0.0
O249 O 0.45039 0.44089 0.83826 0.0
O250 O 0.49642 0.41223 0.79131 0.0
O251 O 0.47312 0.40381 0.7756 0.0
O252 O 0.83801 0.21519 0.18378 0.0
Cd253 Cd 0.83276 0.20243 0.12518 0.0
Cd254 Cd 0.83471 0.23167 0.08651 0.0
O255 O 0.84296 0.23763 0.15187 0.0
O256 O 0.8364 0.18114 0.14739 0.0
O257 O 0.85033 0.19213 0.09225 0.0
C258 C 0.8479 0.18054 0.11927 0.0
C259 C 0.84562 0.24052 0.01718 0.0
C260 C 0.84256 0.22895 0.18747 0.0
C261 C 0.80439 0.21513 0.08063 0.0
O262 O 0.81166 0.2277 0.07825 0.0
O263 O 0.81093 0.20317 0.09623 0.0
O264 O 0.83854 0.24961 0.04529 0.0
O265 O 0.84751 0.22648 0.03005 0.0
O266 O 0.03866 0.58212 0.4342 0.0
Cd267 Cd 0.05023 0.58075 0.37157 0.0
Cd268 Cd 0.02244 0.58447 0.33696 0.0
O269 O 0.01787 0.5924 0.40404 0.0
O270 O 0.07202 0.58617 0.38388 0.0
O271 O 0.05601 0.60108 0.34449 0.0
C272 C 0.06936 0.59895 0.3628 0.0
C273 C 0.01478 0.59691 0.26886 0.0
C274 C 0.02581 0.58873 0.4396 0.0
C275 C 0.03721 0.55405 0.3219 0.0
O276 O 0.02462 0.56123 0.32559 0.0
O277 O 0.04962 0.56043 0.33445 0.0
O278 O 0.00497 0.59055 0.29636 0.0
O279 O 0.02893 0.5973 0.28197 0.0
O280 O 0.66822 0.21167 0.82964 0.0
Cd281 Cd 0.67048 0.20077 0.89334 0.0
Cd282 Cd 0.66807 0.2295 0.9249 0.0
O283 O 0.66065 0.23394 0.85751 0.0
O284 O 0.66531 0.17887 0.88219 0.0
O285 O 0.65039 0.19477 0.92189 0.0
C286 C 0.6526 0.18142 0.90374 0.0
C287 C 0.65582 0.23804 0.99223 0.0
C288 C 0.66287 0.22503 0.82305 0.0
C289 C 0.69788 0.21378 0.9413 0.0
O290 O 0.69108 0.22654 0.93689 0.0
O291 O 0.69117 0.20148 0.9293 0.0
O292 O 0.66262 0.24743 0.96436 0.0
O293 O 0.65484 0.22386 0.97975 0.0
O294 O 0.03782 0.4191 0.07035 0.0
Cd295 Cd 0.04936 0.42065 0.13301 0.0
Cd296 Cd 0.02122 0.41762 0.16703 0.0
O297 O 0.01681 0.40927 0.10045 0.0
O298 O 0.07115 0.41529 0.12031 0.0
O299 O 0.05532 0.40038 0.16034 0.0
C300 C 0.06861 0.40254 0.14163 0.0
C301 C 0.01271 0.406 0.23551 0.0
C302 C 0.02492 0.41261 0.06495 0.0
C303 C 0.03658 0.4478 0.181 0.0
O304 O 0.02387 0.44087 0.17692 0.0
O305 O 0.04894 0.44111 0.16945 0.0
O306 O 0.00329 0.41246 0.20695 0.0
O307 O 0.02691 0.40501 0.22324 0.0
O308 O 0.8376 0.78837 0.32961 0.0
Cd309 Cd 0.83458 0.79982 0.39202 0.0
Cd310 Cd 0.83622 0.77114 0.42587 0.0
O311 O 0.84426 0.76607 0.35946 0.0
O312 O 0.8395 0.82165 0.37882 0.0
O313 O 0.8542 0.80658 0.42211 0.0
C314 C 0.85196 0.81965 0.40216 0.0
C315 C 0.8475 0.76275 0.49508 0.0
C316 C 0.84266 0.77483 0.32431 0.0
C317 C 0.80634 0.78735 0.43677 0.0
O318 O 0.8131 0.77451 0.43469 0.0
O319 O 0.81335 0.79948 0.42479 0.0
O320 O 0.84087 0.75334 0.46688 0.0
O321 O 0.84884 0.77685 0.48213 0.0
O322 O 0.46101 0.58526 0.57762 0.0
Cd323 Cd 0.44927 0.58164 0.63931 0.0
Cd324 Cd 0.47792 0.58423 0.67426 0.0
O325 O 0.48326 0.59195 0.60774 0.0
O326 O 0.42746 0.58576 0.62335 0.0
O327 O 0.44109 0.60058 0.67026 0.0
C328 C 0.42844 0.59804 0.64814 0.0
C329 C 0.48568 0.59631 0.74282 0.0
C330 C 0.47454 0.59034 0.57251 0.0
C331 C 0.46242 0.55392 0.68577 0.0
O332 O 0.47504 0.56113 0.68467 0.0
O333 O 0.45018 0.56041 0.67208 0.0
O334 O 0.49539 0.58966 0.71562 0.0
O335 O 0.4716 0.59717 0.72923 0.0
O336 O 0.33345 0.21406 0.328 0.0
Cd337 Cd 0.33058 0.2011 0.38748 0.0
Cd338 Cd 0.33413 0.22922 0.42672 0.0
O339 O 0.34225 0.2351 0.36068 0.0
O340 O 0.33467 0.17988 0.36537 0.0
O341 O 0.3493 0.19181 0.41694 0.0
C342 C 0.34678 0.17994 0.39113 0.0
C343 C 0.34566 0.23737 0.49605 0.0
C344 C 0.33941 0.22726 0.32424 0.0
C345 C 0.30342 0.21361 0.43624 0.0
O346 O 0.31088 0.2261 0.43649 0.0
O347 O 0.30962 0.20143 0.421 0.0
O348 O 0.33891 0.24685 0.46837 0.0
O349 O 0.34692 0.22331 0.48266 0.0
O350 O 0.53746 0.58309 0.07383 0.0
Cd351 Cd 0.55058 0.57957 0.1327 0.0
Cd352 Cd 0.5218 0.58256 0.17255 0.0
O353 O 0.51597 0.59077 0.10674 0.0
O354 O 0.57174 0.58387 0.11027 0.0
O355 O 0.56003 0.59795 0.16371 0.0
C356 C 0.5718 0.59569 0.13724 0.0
C357 C 0.51147 0.59293 0.24102 0.0
C358 C 0.52406 0.58863 0.07034 0.0
C359 C 0.53838 0.55199 0.17981 0.0
O360 O 0.52593 0.55948 0.18165 0.0
O361 O 0.55045 0.55824 0.16394 0.0
O362 O 0.50322 0.58529 0.2119 0.0
O363 O 0.52548 0.59576 0.2295 0.0
O364 O 0.16775 0.78745 0.82585 0.0
Cd365 Cd 0.17061 0.80027 0.88568 0.0
Cd366 Cd 0.16693 0.77194 0.92441 0.0
O367 O 0.15882 0.7664 0.85818 0.0
O368 O 0.16651 0.82156 0.86426 0.0
O369 O 0.15183 0.8094 0.91522 0.0
C370 C 0.15437 0.82137 0.88987 0.0
C371 C 0.15534 0.76325 0.99298 0.0
C372 C 0.16168 0.7743 0.82189 0.0
C373 C 0.19759 0.78761 0.93526 0.0
O374 O 0.19013 0.77512 0.93493 0.0
O375 O 0.19147 0.79982 0.91993 0.0
O376 O 0.16225 0.75402 0.96493 0.0
O377 O 0.15395 0.77738 0.98033 0.0
O378 O 0.96282 0.42 0.57138 0.0
Cd379 Cd 0.95144 0.42129 0.63443 0.0
Cd380 Cd 0.97947 0.41781 0.66795 0.0
O381 O 0.98376 0.40983 0.60087 0.0
O382 O 0.92961 0.41597 0.62248 0.0
O383 O 0.94564 0.40092 0.66128 0.0
C384 C 0.93225 0.40316 0.64335 0.0
C385 C 0.98774 0.40558 0.73567 0.0
C386 C 0.97567 0.41343 0.56558 0.0
C387 C 0.96444 0.44799 0.6842 0.0
O388 O 0.9771 0.441 0.67948 0.0
O389 O 0.95204 0.44148 0.67217 0.0
O390 O 0.99728 0.41207 0.70758 0.0
O391 O 0.97353 0.4049 0.72327 0.0
O392 O 0.33672 0.78771 0.18201 0.0
Cd393 Cd 0.33172 0.80033 0.12289 0.0
Cd394 Cd 0.33428 0.77136 0.08475 0.0
O395 O 0.34238 0.76542 0.15028 0.0
O396 O 0.33505 0.82169 0.14487 0.0
O397 O 0.3494 0.81069 0.09072 0.0
C398 C 0.34673 0.82232 0.11739 0.0
C399 C 0.34569 0.76317 0.01549 0.0
C400 C 0.34153 0.77405 0.18592 0.0
C401 C 0.30374 0.78719 0.07736 0.0
O402 O 0.31116 0.77471 0.07584 0.0
O403 O 0.31008 0.7993 0.09268 0.0
O404 O 0.33884 0.75373 0.04306 0.0
O405 O 0.34708 0.77721 0.02891 0.0
O406 O 0.96396 0.5843 0.93627 0.0
Cd407 Cd 0.9514 0.58095 0.87618 0.0
Cd408 Cd 0.97978 0.58441 0.83852 0.0
O409 O 0.9852 0.59291 0.90429 0.0
O410 O 0.93 0.58501 0.89679 0.0
O411 O 0.94216 0.59942 0.84514 0.0
C412 C 0.93015 0.59696 0.87041 0.0
C413 C 0.98823 0.59573 0.76935 0.0
C414 C 0.97712 0.59033 0.9404 0.0
C415 C 0.96441 0.55362 0.82931 0.0
O416 O 0.97687 0.56114 0.82943 0.0
O417 O 0.95211 0.55981 0.84369 0.0
O418 O 0.9976 0.5891 0.79761 0.0
O419 O 0.9741 0.59701 0.78211 0.0
O420 O 0.16725 0.21381 0.68468 0.0
Cd421 Cd 0.16955 0.20147 0.62362 0.0
Cd422 Cd 0.16669 0.23028 0.58717 0.0
O423 O 0.15869 0.23527 0.65378 0.0
O424 O 0.16522 0.1799 0.64172 0.0
O425 O 0.1501 0.19339 0.59531 0.0
C426 C 0.15273 0.18085 0.6179 0.0
C427 C 0.15604 0.24101 0.51982 0.0
C428 C 0.16141 0.22704 0.68949 0.0
C429 C 0.19684 0.21376 0.57509 0.0
O430 O 0.18975 0.22644 0.57676 0.0
O431 O 0.19033 0.20158 0.58888 0.0
O432 O 0.16362 0.24913 0.5494 0.0
O433 O 0.15335 0.2269 0.53046 0.0
O434 O 0.53864 0.41724 0.42789 0.0
Cd435 Cd 0.55043 0.41818 0.36551 0.0
Cd436 Cd 0.52255 0.41499 0.33068 0.0
O437 O 0.51774 0.40718 0.39778 0.0
O438 O 0.57214 0.41286 0.37926 0.0
O439 O 0.55641 0.39771 0.33973 0.0
C440 C 0.56966 0.39999 0.35859 0.0
C441 C 0.51449 0.40292 0.26232 0.0
C442 C 0.52568 0.41086 0.43334 0.0
C443 C 0.53802 0.44502 0.3153 0.0
O444 O 0.52526 0.43817 0.3195 0.0
O445 O 0.55029 0.43835 0.32762 0.0
O446 O 0.50488 0.40945 0.29009 0.0
O447 O 0.52863 0.4021 0.27534 0.0
H448 H 0.28835 0.26736 0.98504 0.0
H449 H 0.28162 0.31315 0.93204 0.0
H450 H 0.26292 0.26776 0.01894 0.0
H451 H 0.25578 0.31335 0.96477 0.0
H452 H 0.21565 0.31363 0.06937 0.0
H453 H 0.24149 0.31417 0.03657 0.0
H454 H 0.23695 0.26668 0.99698 0.0
H455 H 0.21155 0.26601 0.03099 0.0
C456 C 0.28137 0.27748 0.98014 0.0
C457 C 0.28703 0.2902 0.95554 0.0
C458 C 0.26671 0.27768 0.99947 0.0
C459 C 0.25718 0.29054 0.99439 0.0
C460 C 0.26284 0.30331 0.96986 0.0
C461 C 0.27762 0.30315 0.95077 0.0
C462 C 0.22023 0.30331 0.05383 0.0
C463 C 0.21156 0.28975 0.0532 0.0
C464 C 0.235 0.30364 0.0347 0.0
C465 C 0.24139 0.29044 0.01426 0.0
C466 C 0.2326 0.27698 0.01327 0.0
C467 C 0.21794 0.27661 0.03266 0.0
H468 H 0.98438 0.96223 0.26481 0.0
H469 H 0.93773 0.96862 0.31095 0.0
H470 H 0.98423 0.98752 0.22999 0.0
H471 H 0.93775 0.99433 0.27725 0.0
H472 H 0.93929 0.03525 0.17575 0.0
H473 H 0.93826 0.00901 0.20546 0.0
H474 H 0.98482 0.01331 0.25467 0.0
H475 H 0.98601 0.03907 0.22396 0.0
C476 C 0.9741 0.96909 0.26786 0.0
C477 C 0.96111 0.96343 0.29108 0.0
C478 C 0.97404 0.98366 0.24799 0.0
C479 C 0.96104 0.99309 0.25118 0.0
C480 C 0.94792 0.98735 0.27375 0.0
C481 C 0.94794 0.97265 0.29337 0.0
C482 C 0.94932 0.03052 0.19261 0.0
C483 C 0.96275 0.03926 0.19715 0.0
C484 C 0.9487 0.01552 0.20996 0.0
C485 C 0.96148 0.00898 0.23232 0.0
C486 C 0.97485 0.01779 0.23683 0.0
C487 C 0.9755 0.03267 0.21934 0.0
H488 H 0.21544 0.68818 0.44071 0.0
H489 H 0.21095 0.73556 0.4814 0.0
H490 H 0.24127 0.68767 0.47324 0.0
H491 H 0.23641 0.73491 0.51524 0.0
H492 H 0.28154 0.68826 0.57666 0.0
H493 H 0.25561 0.68815 0.54472 0.0
H494 H 0.26238 0.73409 0.49288 0.0
H495 H 0.28791 0.73439 0.52604 0.0
C496 C 0.21993 0.69846 0.45677 0.0
C497 C 0.21116 0.71194 0.45811 0.0
C498 C 0.23471 0.69814 0.47574 0.0
C499 C 0.241 0.71126 0.49677 0.0
C500 C 0.23211 0.72467 0.4985 0.0
C501 C 0.21743 0.72502 0.47924 0.0
C502 C 0.27744 0.69834 0.55858 0.0
C503 C 0.28678 0.71136 0.55424 0.0
C504 C 0.26261 0.69825 0.53997 0.0
C505 C 0.25682 0.71114 0.51633 0.0
C506 C 0.26627 0.72407 0.51167 0.0
C507 C 0.281 0.72421 0.53055 0.0
H508 H 0.56559 0.03395 0.81748 0.0
H509 H 0.51922 0.0393 0.76771 0.0
H510 H 0.56603 0.00782 0.78687 0.0
H511 H 0.51982 0.0136 0.73597 0.0
H512 H 0.51829 0.96228 0.73328 0.0
H513 H 0.5193 0.98813 0.76347 0.0
H514 H 0.56613 0.99231 0.71661 0.0
H515 H 0.56527 0.96599 0.68748 0.0
C516 C 0.55554 0.02959 0.79976 0.0
C517 C 0.54231 0.03866 0.79554 0.0
C518 C 0.55582 0.01465 0.78195 0.0
C519 C 0.54291 0.00851 0.75931 0.0
C520 C 0.52986 0.01777 0.75416 0.0
C521 C 0.52953 0.03258 0.77224 0.0
C522 C 0.52883 0.96867 0.72921 0.0
C523 C 0.54167 0.96207 0.7076 0.0
C524 C 0.52938 0.98358 0.74637 0.0
C525 C 0.54274 0.99243 0.74204 0.0
C526 C 0.55568 0.9858 0.72085 0.0
C527 C 0.55517 0.97075 0.7039 0.0
H528 H 0.71318 0.73386 0.03385 0.0
H529 H 0.71701 0.68655 0.07608 0.0
H530 H 0.73857 0.73279 1.00017 0.0
H531 H 0.74289 0.68562 0.0433 0.0
H532 H 0.78265 0.68625 0.93529 0.0
H533 H 0.75702 0.68604 0.96988 0.0
H534 H 0.76452 0.73163 0.02342 0.0
H535 H 0.78968 0.73205 0.98794 0.0
C536 C 0.71951 0.72324 0.0365 0.0
C537 C 0.71304 0.71031 0.058 0.0
C538 C 0.73416 0.72265 0.01726 0.0
C539 C 0.74288 0.70915 0.01926 0.0
C540 C 0.73644 0.69616 0.04075 0.0
C541 C 0.72166 0.69673 0.05988 0.0
C542 C 0.77877 0.69623 0.95432 0.0
C543 C 0.78818 0.70922 0.95834 0.0
C544 C 0.76413 0.69607 0.97446 0.0
C545 C 0.75863 0.70886 0.99919 0.0
C546 C 0.7682 0.7217 1.00379 0.0
C547 C 0.7827 0.72191 0.9835 0.0
H548 H 0.06317 0.96629 0.83085 0.0
H549 H 0.01599 0.96301 0.78666 0.0
H550 H 0.06431 0.99243 0.80034 0.0
H551 H 0.01727 0.98867 0.75518 0.0
H552 H 0.01832 0.03976 0.74457 0.0
H553 H 0.01844 0.01449 0.77947 0.0
H554 H 0.06433 0.00697 0.72807 0.0
H555 H 0.0644 0.03266 0.69422 0.0
C556 C 0.05306 0.97112 0.81471 0.0
C557 C 0.03947 0.96256 0.81155 0.0
C558 C 0.05374 0.98606 0.79689 0.0
C559 C 0.04086 0.99272 0.77545 0.0
C560 C 0.02732 0.98409 0.77229 0.0
C561 C 0.02662 0.96928 0.79023 0.0
C562 C 0.02846 0.03275 0.74057 0.0
C563 C 0.04131 0.03821 0.71618 0.0
C564 C 0.0285 0.01818 0.76051 0.0
C565 C 0.04133 0.00857 0.75625 0.0
C566 C 0.0543 0.0141 0.73241 0.0
C567 C 0.0543 0.02879 0.7127 0.0
H568 H 0.71363 0.26666 0.48045 0.0
H569 H 0.71756 0.31375 0.43621 0.0
H570 H 0.73916 0.26776 0.51338 0.0
H571 H 0.74353 0.3147 0.46788 0.0
H572 H 0.78413 0.31481 0.57115 0.0
H573 H 0.75822 0.31478 0.53887 0.0
H574 H 0.76497 0.2685 0.48994 0.0
H575 H 0.79044 0.26835 0.5235 0.0
C576 C 0.72001 0.27723 0.47729 0.0
C577 C 0.71356 0.29009 0.4554 0.0
C578 C 0.73473 0.27784 0.49603 0.0
C579 C 0.74353 0.29127 0.49298 0.0
C580 C 0.73705 0.3042 0.4713 0.0
C581 C 0.7222 0.30364 0.45286 0.0
C582 C 0.78003 0.30464 0.55357 0.0
C583 C 0.78931 0.29154 0.55032 0.0
C584 C 0.76521 0.30465 0.53478 0.0
C585 C 0.75941 0.2916 0.51203 0.0
C586 C 0.76886 0.27863 0.50813 0.0
C587 C 0.78355 0.27857 0.52724 0.0
H588 H 0.48318 0.96277 0.23536 0.0
H589 H 0.43708 0.96882 0.18379 0.0
H590 H 0.48259 0.98813 0.269 0.0
H591 H 0.43667 0.99471 0.21669 0.0
H592 H 0.43754 0.03512 0.32291 0.0
H593 H 0.43652 0.00925 0.29014 0.0
H594 H 0.4833 0.01392 0.24335 0.0
H595 H 0.48448 0.03929 0.27693 0.0
C596 C 0.47293 0.96957 0.23072 0.0
C597 C 0.46021 0.96375 0.2064 0.0
C598 C 0.47262 0.98421 0.24996 0.0
C599 C 0.45965 0.99358 0.24517 0.0
C600 C 0.44682 0.98776 0.2213 0.0
C601 C 0.44709 0.97297 0.20214 0.0
C602 C 0.44761 0.03055 0.30585 0.0
C603 C 0.46114 0.03925 0.30306 0.0
C604 C 0.44699 0.01578 0.28673 0.0
C605 C 0.45986 0.00943 0.26438 0.0
C606 C 0.47326 0.01826 0.26116 0.0
C607 C 0.47392 0.03289 0.28038 0.0
H608 H 0.71331 0.76583 0.51952 0.0
H609 H 0.71939 0.81212 0.56901 0.0
H610 H 0.73886 0.7662 0.48637 0.0
H611 H 0.74535 0.81231 0.53711 0.0
H612 H 0.78644 0.81174 0.43612 0.0
H613 H 0.76029 0.81249 0.46647 0.0
H614 H 0.76459 0.76543 0.51078 0.0
H615 H 0.79031 0.76453 0.47919 0.0
C616 C 0.72016 0.77607 0.52372 0.0
C617 C 0.71432 0.78891 0.54726 0.0
C618 C 0.73489 0.77625 0.50484 0.0
C619 C 0.74429 0.78922 0.50941 0.0
C620 C 0.73839 0.80217 0.53252 0.0
C621 C 0.72355 0.80203 0.55109 0.0
C622 C 0.78174 0.80155 0.45218 0.0
C623 C 0.79044 0.78804 0.45485 0.0
C624 C 0.76678 0.80201 0.46988 0.0
C625 C 0.76024 0.78899 0.49089 0.0
C626 C 0.76907 0.77557 0.49394 0.0
C627 C 0.7839 0.77508 0.47597 0.0
H628 H 0.48536 0.46203 0.77671 0.0
H629 H 0.43892 0.46794 0.82536 0.0
H630 H 0.48481 0.48739 0.74244 0.0
H631 H 0.43854 0.4937 0.79221 0.0
H632 H 0.43847 0.53348 0.68647 0.0
H633 H 0.43818 0.50771 0.71967 0.0
H634 H 0.48509 0.51344 0.76415 0.0
H635 H 0.48554 0.53878 0.72983 0.0
C636 C 0.47506 0.46881 0.7806 0.0
C637 C 0.4622 0.46294 0.80406 0.0
C638 C 0.47477 0.48343 0.76104 0.0
C639 C 0.46166 0.49269 0.76472 0.0
C640 C 0.44877 0.48684 0.7882 0.0
C641 C 0.44902 0.47211 0.80755 0.0
C642 C 0.44873 0.52918 0.70314 0.0
C643 C 0.46206 0.53817 0.70511 0.0
C644 C 0.44853 0.51445 0.72251 0.0
C645 C 0.46163 0.50842 0.7445 0.0
C646 C 0.47488 0.51752 0.7467 0.0
C647 C 0.47512 0.53214 0.72712 0.0
H648 H 0.71264 0.23702 0.98572 0.0
H649 H 0.71813 0.18969 0.9456 0.0
H650 H 0.73773 0.23673 0.02176 0.0
H651 H 0.7437 0.18956 0.98045 0.0
H652 H 0.78377 0.19133 0.08534 0.0
H653 H 0.75786 0.19051 0.05288 0.0
H654 H 0.76369 0.23644 0.99996 0.0
H655 H 0.78909 0.23745 0.03349 0.0
C656 C 0.71928 0.22656 0.98412 0.0
C657 C 0.7134 0.21341 0.96236 0.0
C658 C 0.73375 0.22642 0.00471 0.0
C659 C 0.74287 0.21317 1.0037 0.0
C660 C 0.73695 0.19993 0.98231 0.0
C661 C 0.72234 0.20003 0.962 0.0
C662 C 0.77944 0.20127 0.06706 0.0
C663 C 0.78849 0.21449 0.06241 0.0
C664 C 0.76463 0.20077 0.04811 0.0
C665 C 0.75861 0.21344 0.02393 0.0
C666 C 0.76776 0.22658 0.01918 0.0
C667 C 0.78242 0.22713 0.03832 0.0
H668 H 0.01337 0.46291 0.22493 0.0
H669 H 0.06055 0.4681 0.18263 0.0
H670 H 0.01386 0.48822 0.25977 0.0
H671 H 0.06089 0.49379 0.21601 0.0
H672 H 0.06074 0.53325 0.32142 0.0
H673 H 0.06077 0.50762 0.28764 0.0
H674 H 0.01424 0.51433 0.24054 0.0
H675 H 0.01404 0.53959 0.2758 0.0
C676 C 0.02382 0.46953 0.22257 0.0
C677 C 0.03691 0.46348 0.20082 0.0
C678 C 0.02408 0.48412 0.24241 0.0
C679 C 0.03739 0.49316 0.2406 0.0
C680 C 0.0505 0.48711 0.21869 0.0
C681 C 0.05027 0.47241 0.19921 0.0
C682 C 0.05051 0.52921 0.30398 0.0
C683 C 0.03736 0.53844 0.30161 0.0
C684 C 0.05056 0.51454 0.28428 0.0
C685 C 0.0375 0.50882 0.26135 0.0
C686 C 0.02441 0.51817 0.2587 0.0
C687 C 0.02432 0.53273 0.27877 0.0
H688 H 0.28257 0.19007 0.43408 0.0
H689 H 0.28871 0.23639 0.48333 0.0
H690 H 0.25682 0.18975 0.46743 0.0
H691 H 0.26336 0.23589 0.51778 0.0
H692 H 0.21195 0.23681 0.53062 0.0
H693 H 0.23727 0.23629 0.49598 0.0
H694 H 0.2429 0.18936 0.54021 0.0
H695 H 0.21717 0.18973 0.57376 0.0
C696 C 0.27845 0.20016 0.45208 0.0
C697 C 0.28768 0.21329 0.45568 0.0
C698 C 0.26373 0.19994 0.47153 0.0
C699 C 0.25795 0.21281 0.49521 0.0
C700 C 0.26727 0.22587 0.49902 0.0
C701 C 0.28188 0.22613 0.47937 0.0
C702 C 0.21857 0.22637 0.53318 0.0
C703 C 0.21253 0.21333 0.55525 0.0
C704 C 0.23317 0.22609 0.51342 0.0
C705 C 0.24223 0.21282 0.51551 0.0
C706 C 0.23619 0.19973 0.53748 0.0
C707 C 0.22148 0.19997 0.55703 0.0
H708 H 0.51479 0.46033 0.27211 0.0
H709 H 0.56231 0.46491 0.31141 0.0
H710 H 0.51537 0.48565 0.23738 0.0
H711 H 0.56276 0.49061 0.27792 0.0
H712 H 0.56172 0.53089 0.17449 0.0
H713 H 0.56196 0.50489 0.20599 0.0
H714 H 0.51626 0.51161 0.26006 0.0
H715 H 0.51583 0.53718 0.22749 0.0
C716 C 0.52535 0.4668 0.27374 0.0
C717 C 0.53848 0.46061 0.29484 0.0
C718 C 0.52566 0.48139 0.25395 0.0
C719 C 0.53908 0.49028 0.25508 0.0
C720 C 0.55227 0.48404 0.27591 0.0
C721 C 0.55199 0.46935 0.29544 0.0
C722 C 0.55171 0.52676 0.19291 0.0
C723 C 0.53872 0.53611 0.19814 0.0
C724 C 0.55188 0.51189 0.21126 0.0
C725 C 0.5391 0.50608 0.23545 0.0
C726 C 0.52619 0.51552 0.24084 0.0
C727 C 0.52598 0.53028 0.22229 0.0
H728 H 0.28854 0.76422 0.03284 0.0
H729 H 0.28316 0.81107 0.07812 0.0
H730 H 0.26327 0.76484 0.99809 0.0
H731 H 0.25745 0.81153 0.04436 0.0
H732 H 0.21839 0.81123 0.93548 0.0
H733 H 0.24388 0.81148 0.9707 0.0
H734 H 0.2371 0.76512 0.01876 0.0
H735 H 0.21202 0.76469 0.98249 0.0
C736 C 0.28189 0.77463 0.03594 0.0
C737 C 0.2879 0.78758 0.05853 0.0
C738 C 0.26731 0.77495 0.01609 0.0
C739 C 0.25822 0.7882 0.01855 0.0
C740 C 0.26418 0.80118 0.04132 0.0
C741 C 0.27888 0.80088 0.06103 0.0
C742 C 0.2224 0.80108 0.95337 0.0
C743 C 0.2132 0.7879 0.95576 0.0
C744 C 0.23697 0.80126 0.97392 0.0
C745 C 0.24261 0.7883 0.99749 0.0
C746 C 0.2333 0.77521 1.00014 0.0
C747 C 0.21884 0.77499 0.97941 0.0
H748 H 0.98786 0.46268 0.72841 0.0
H749 H 0.94046 0.46824 0.68887 0.0
H750 H 0.98753 0.48766 0.76546 0.0
H751 H 0.94027 0.4936 0.72458 0.0
H752 H 0.94107 0.53255 0.83156 0.0
H753 H 0.94089 0.50694 0.7975 0.0
H754 H 0.98701 0.5139 0.74711 0.0
H755 H 0.98737 0.5391 0.78242 0.0
C756 C 0.97739 0.46931 0.72715 0.0
C757 C 0.9642 0.46347 0.70543 0.0
C758 C 0.97722 0.48371 0.7483 0.0
C759 C 0.9639 0.49275 0.7479 0.0
C760 C 0.95068 0.48689 0.72616 0.0
C761 C 0.95082 0.47239 0.70533 0.0
C762 C 0.9512 0.52855 0.81346 0.0
C763 C 0.96426 0.53787 0.81 0.0
C764 C 0.95106 0.5139 0.79359 0.0
C765 C 0.96394 0.50828 0.76951 0.0
C766 C 0.97697 0.51766 0.7661 0.0
C767 C 0.97716 0.5322 0.78625 0.0
H768 H 0.15182 0.28237 0.93979 0.0
H769 H 0.14766 0.2359 0.98905 0.0
H770 H 0.15142 0.27329 0.85926 0.0
H771 H 0.14647 0.22682 0.90873 0.0
H772 H 0.16999 0.2144 0.77239 0.0
H773 H 0.16505 0.2237 0.85058 0.0
H774 H 0.13945 0.26171 0.7937 0.0
H775 H 0.14496 0.2526 0.7147 0.0
C776 C 0.15027 0.27025 0.93337 0.0
C777 C 0.14995 0.25982 0.97069 0.0
C778 C 0.15004 0.26502 0.8871 0.0
C779 C 0.14928 0.24926 0.87728 0.0
C780 C 0.14758 0.23899 0.91485 0.0
C781 C 0.14808 0.2442 0.96097 0.0
C782 C 0.16325 0.22471 0.77639 0.0
C783 C 0.15792 0.23276 0.73715 0.0
C784 C 0.16026 0.23 0.82147 0.0
C785 C 0.15168 0.24341 0.8288 0.0
C786 C 0.1462 0.25141 0.78951 0.0
C787 C 0.14932 0.24617 0.74418 0.0
H788 H 0.04035 0.89691 0.00633 0.0
H789 H 0.99454 0.90937 0.96467 0.0
H790 H 0.03144 0.89219 0.0855 0.0
H791 H 0.98567 0.90546 0.04467 0.0
H792 H 0.97151 0.89253 0.19031 0.0
H793 H 0.98019 0.8895 0.10961 0.0
H794 H 0.0245 0.90746 0.14845 0.0
H795 H 0.01608 0.90982 0.22855 0.0
C796 C 0.02834 0.89862 0.01416 0.0
C797 C 0.01818 0.9037 0.97944 0.0
C798 C 0.02322 0.896 0.05968 0.0
C799 C 0.00786 0.89871 0.07202 0.0
C800 C 0.99754 0.9031 0.03662 0.0
C801 C 0.00263 0.90546 0.99072 0.0
C802 C 0.98322 0.89545 0.18169 0.0
C803 C 0.99307 0.90148 0.21588 0.0
C804 C 0.98815 0.89388 0.1353 0.0
C805 C 0.00303 0.89836 0.12209 0.0
C806 C 0.01305 0.90365 0.15702 0.0
C807 C 0.00817 0.90511 0.20321 0.0
H808 H 0.33923 0.76596 0.48208 0.0
H809 H 0.35787 0.72193 0.44399 0.0
H810 H 0.34124 0.77438 0.40193 0.0
H811 H 0.36057 0.73064 0.36319 0.0
H812 H 0.34091 0.74447 0.21769 0.0
H813 H 0.34472 0.73569 0.29783 0.0
H814 H 0.35634 0.78181 0.33936 0.0
H815 H 0.35168 0.7906 0.26007 0.0
C816 C 0.34416 0.75818 0.45675 0.0
C817 C 0.34829 0.74323 0.46951 0.0
C818 C 0.34541 0.76306 0.41051 0.0
C819 C 0.35102 0.7532 0.37561 0.0
C820 C 0.35594 0.73848 0.38885 0.0
C821 C 0.35456 0.73353 0.4353 0.0
C822 C 0.34442 0.75267 0.24396 0.0
C823 C 0.34574 0.76826 0.23281 0.0
C824 C 0.34672 0.74763 0.28994 0.0
C825 C 0.35064 0.75806 0.32555 0.0
C826 C 0.35289 0.7735 0.31339 0.0
C827 C 0.3503 0.77855 0.26779 0.0
H828 H 0.52958 0.10884 0.68744 0.0
H829 H 0.48593 0.08967 0.72723 0.0
H830 H 0.52057 0.11125 0.60686 0.0
H831 H 0.47721 0.09143 0.64728 0.0
H832 H 0.46033 0.10204 0.50582 0.0
H833 H 0.46937 0.10652 0.58494 0.0
H834 H 0.51543 0.09524 0.54169 0.0
H835 H 0.50639 0.09155 0.46173 0.0
C836 C 0.518 0.10535 0.67918 0.0
C837 C 0.5085 0.09904 0.71383 0.0
C838 C 0.51288 0.10656 0.63284 0.0
C839 C 0.49817 0.10143 0.62014 0.0
C840 C 0.4885 0.09575 0.65545 0.0
C841 C 0.49356 0.09465 0.70157 0.0
C842 C 0.47242 0.10068 0.51311 0.0
C843 C 0.48262 0.09625 0.47765 0.0
C844 C 0.47762 0.10317 0.55863 0.0
C845 C 0.49312 0.10099 0.57024 0.0
C846 C 0.50344 0.09718 0.53421 0.0
C847 C 0.49826 0.09495 0.48834 0.0
H848 H 0.16985 0.78676 0.73839 0.0
H849 H 0.14548 0.74841 0.79778 0.0
H850 H 0.16475 0.77723 0.66063 0.0
H851 H 0.13984 0.73904 0.71906 0.0
H852 H 0.15197 0.71848 0.57206 0.0
H853 H 0.15177 0.72753 0.6527 0.0
H854 H 0.1458 0.77391 0.60356 0.0
H855 H 0.14677 0.76488 0.52317 0.0
C856 C 0.16322 0.77636 0.73488 0.0
C857 C 0.1581 0.76836 0.7745 0.0
C858 C 0.16014 0.77094 0.69002 0.0
C859 C 0.15169 0.75743 0.68321 0.0
C860 C 0.14646 0.74943 0.72286 0.0
C861 C 0.14966 0.75482 0.76802 0.0
C862 C 0.15024 0.73056 0.5786 0.0
C863 C 0.14957 0.741 0.54131 0.0
C864 C 0.15012 0.73577 0.62492 0.0
C865 C 0.14914 0.75152 0.63484 0.0
C866 C 0.14709 0.76176 0.59736 0.0
C867 C 0.14747 0.75658 0.5512 0.0
H868 H 0.45896 0.90119 1.00265 0.0
H869 H 0.50518 0.91149 0.04563 0.0
H870 H 0.46785 0.89628 0.92361 0.0
H871 H 0.51407 0.90734 0.96571 0.0
H872 H 0.52787 0.89266 0.82065 0.0
H873 H 0.51892 0.8908 0.90142 0.0
H874 H 0.47579 0.91102 0.86049 0.0
H875 H 0.48445 0.91224 0.78037 0.0
C876 C 0.47105 0.90244 0.99512 0.0
C877 C 0.48134 0.90692 0.03024 0.0
C878 C 0.47616 0.89968 0.94966 0.0
C879 C 0.49166 0.90165 0.93776 0.0
C880 C 0.50207 0.90555 0.97345 0.0
C881 C 0.49698 0.90805 0.01928 0.0
C882 C 0.51635 0.89635 0.82886 0.0
C883 C 0.5069 0.90263 0.79402 0.0
C884 C 0.51127 0.89546 0.87528 0.0
C885 C 0.49665 0.90087 0.88786 0.0
C886 C 0.48702 0.9065 0.8524 0.0
C887 C 0.49204 0.90729 0.80619 0.0
H888 H 0.3526 0.23754 0.02512 0.0
H889 H 0.34695 0.28378 0.07488 0.0
H890 H 0.35419 0.22842 0.10529 0.0
H891 H 0.34774 0.27461 0.15543 0.0
H892 H 0.35509 0.2535 0.3 0.0
H893 H 0.36016 0.26317 0.22118 0.0
H894 H 0.33565 0.22466 0.16313 0.0
H895 H 0.33114 0.21485 0.24084 0.0
C896 C 0.35192 0.24579 0.0533 0.0
C897 C 0.34953 0.26135 0.04374 0.0
C898 C 0.35266 0.24055 0.09936 0.0
C899 C 0.35066 0.2507 0.13709 0.0
C900 C 0.34936 0.26644 0.12745 0.0
C901 C 0.3489 0.27172 0.0812 0.0
C902 C 0.3509 0.24708 0.27028 0.0
C903 C 0.34274 0.23337 0.27685 0.0
C904 C 0.35375 0.25265 0.22507 0.0
C905 C 0.34846 0.24465 0.18549 0.0
C906 C 0.3403 0.23097 0.19242 0.0
C907 C 0.33757 0.22538 0.23728 0.0
H908 H 0.03931 0.07799 0.49505 0.0
H909 H 0.00223 0.10481 0.55211 0.0
H910 H 0.02982 0.08256 0.41683 0.0
H911 H 0.99295 0.10994 0.47301 0.0
H912 H 0.97167 0.09835 0.32713 0.0
H913 H 0.98079 0.09818 0.40775 0.0
H914 H 0.02744 0.10109 0.35818 0.0
H915 H 0.0183 0.10051 0.2779 0.0
C916 C 0.02919 0.08502 0.49089 0.0
C917 C 0.02154 0.09102 0.52998 0.0
C918 C 0.02381 0.08779 0.44578 0.0
C919 C 0.01069 0.09681 0.43823 0.0
C920 C 0.00302 0.10286 0.47738 0.0
C921 C 0.00836 0.09996 0.52276 0.0
C922 C 0.98385 0.09929 0.33359 0.0
C923 C 0.99429 0.09928 0.29623 0.0
C924 C 0.9891 0.09919 0.37987 0.0
C925 C 0.0049 0.09927 0.38968 0.0
C926 C 0.01522 0.10051 0.35209 0.0
C927 C 0.00999 0.10036 0.30599 0.0
H928 H 0.86015 0.7233 0.06597 0.0
H929 H 0.83787 0.76557 0.02755 0.0
H930 H 0.86268 0.73254 0.14624 0.0
H931 H 0.8397 0.77446 0.10728 0.0
H932 H 0.85021 0.79197 0.24833 0.0
H933 H 0.85452 0.78333 0.16867 0.0
H934 H 0.84701 0.73658 0.21241 0.0
H935 H 0.84354 0.74526 0.29272 0.0
C936 C 0.85598 0.73463 0.07448 0.0
C937 C 0.84877 0.74367 0.04033 0.0
C938 C 0.85727 0.73988 0.12064 0.0
C939 C 0.85128 0.75422 0.13369 0.0
C940 C 0.84469 0.76347 0.09882 0.0
C941 C 0.84354 0.75831 0.05284 0.0
C942 C 0.84963 0.77983 0.24097 0.0
C943 C 0.84635 0.76931 0.27669 0.0
C944 C 0.85203 0.77486 0.19517 0.0
C945 C 0.85089 0.75924 0.1836 0.0
C946 C 0.84816 0.74866 0.21982 0.0
C947 C 0.84604 0.75364 0.26591 0.0
H948 H 0.00764 0.09264 0.04585 0.0
H949 H 0.96196 0.10532 1.00351 0.0
H950 H 0.01665 0.09649 0.96594 0.0
H951 H 0.97101 0.10996 0.92445 0.0
H952 H 0.03099 0.10928 0.8201 0.0
H953 H 0.02228 0.11238 0.90078 0.0
H954 H 0.97793 0.0945 0.86185 0.0
H955 H 0.98639 0.09206 0.78181 0.0
C956 C 0.99961 0.0966 0.01967 0.0
C957 C 0.98405 0.09842 0.03073 0.0
C958 C 0.00478 0.09891 0.97384 0.0
C959 C 0.99453 0.10333 0.93827 0.0
C960 C 0.97917 0.10613 0.95039 0.0
C961 C 0.97398 0.10355 0.99585 0.0
C962 C 0.01927 0.10639 0.8287 0.0
C963 C 0.00941 0.10036 0.7945 0.0
C964 C 0.01431 0.108 0.87507 0.0
C965 C 0.99942 0.10358 0.88823 0.0
C966 C 0.9894 0.09827 0.85331 0.0
C967 C 0.9943 0.09676 0.80715 0.0
H968 H 0.64269 0.2748 0.56369 0.0
H969 H 0.66624 0.23328 0.52465 0.0
H970 H 0.64108 0.26569 0.64426 0.0
H971 H 0.66538 0.22457 0.60472 0.0
H972 H 0.65645 0.2072 0.74752 0.0
H973 H 0.65165 0.2153 0.66759 0.0
H974 H 0.65715 0.26253 0.70939 0.0
H975 H 0.66107 0.25435 0.78994 0.0
C976 C 0.64735 0.26365 0.57215 0.0
C977 C 0.65462 0.2548 0.53771 0.0
C978 C 0.6466 0.25849 0.61849 0.0
C979 C 0.65324 0.24443 0.63148 0.0
C980 C 0.6599 0.23534 0.59636 0.0
C981 C 0.66048 0.2404 0.55016 0.0
C982 C 0.65652 0.21932 0.73964 0.0
C983 C 0.6593 0.23013 0.77493 0.0
C984 C 0.65384 0.22399 0.69368 0.0
C985 C 0.6542 0.2396 0.68151 0.0
C986 C 0.65657 0.25043 0.71724 0.0
C987 C 0.65896 0.24575 0.76347 0.0
H988 H 0.4753 0.8925 0.3193 0.0
H989 H 0.51744 0.91494 0.28015 0.0
H990 H 0.48459 0.89024 0.3996 0.0
H991 H 0.52638 0.91333 0.35991 0.0
H992 H 0.54406 0.90275 0.50095 0.0
H993 H 0.53534 0.89844 0.42138 0.0
H994 H 0.48863 0.90625 0.46534 0.0
H995 H 0.49739 0.90977 0.54556 0.0
C996 C 0.48662 0.89676 0.32765 0.0
C997 C 0.4956 0.90393 0.29329 0.0
C998 C 0.49188 0.89562 0.37382 0.0
C999 C 0.50621 0.90171 0.38664 0.0
C1000 C 0.5154 0.90828 0.3516 0.0
C1001 C 0.51021 0.90929 0.30561 0.0
C1002 C 0.53192 0.90342 0.49367 0.0
C1003 C 0.52143 0.90678 0.52944 0.0
C1004 C 0.5269 0.90101 0.44793 0.0
C1005 C 0.51127 0.90221 0.43647 0.0
C1006 C 0.50073 0.90505 0.4727 0.0
C1007 C 0.50575 0.9072 0.51873 0.0
H1008 H 0.85357 0.21251 0.26073 0.0
H1009 H 0.84163 0.25848 0.21957 0.0
H1010 H 0.8587 0.22131 0.33974 0.0
H1011 H 0.84592 0.26726 0.29949 0.0
H1012 H 0.85978 0.2812 0.44458 0.0
H1013 H 0.8622 0.27253 0.36368 0.0
H1014 H 0.84396 0.22843 0.40348 0.0
H1015 H 0.84223 0.23683 0.48372 0.0
C1016 C 0.85204 0.22453 0.26866 0.0
C1017 C 0.84701 0.23477 0.23412 0.0
C1018 C 0.8549 0.22959 0.3141 0.0
C1019 C 0.85247 0.24498 0.32656 0.0
C1020 C 0.84808 0.25536 0.29134 0.0
C1021 C 0.8455 0.25033 0.24551 0.0
C1022 C 0.85666 0.26953 0.4361 0.0
C1023 C 0.85075 0.25973 0.47063 0.0
C1024 C 0.85788 0.26461 0.3896 0.0
C1025 C 0.85314 0.2498 0.37662 0.0
C1026 C 0.84796 0.23982 0.41184 0.0
C1027 C 0.84687 0.24469 0.45813 0.0
H1028 H 0.47127 0.0989 0.18081 0.0
H1029 H 0.51777 0.10031 0.23145 0.0
H1030 H 0.48064 0.09891 0.10049 0.0
H1031 H 0.52717 0.10112 0.15145 0.0
H1032 H 0.53917 0.0783 0.0141 0.0
H1033 H 0.52959 0.08283 0.09226 0.0
H1034 H 0.49306 0.11063 0.03589 0.0
H1035 H 0.50242 0.10553 0.95688 0.0
C1036 C 0.48348 0.09974 0.17474 0.0
C1037 C 0.4938 0.09944 0.21238 0.0
C1038 C 0.48888 0.09974 0.12861 0.0
C1039 C 0.50471 0.09966 0.11924 0.0
C1040 C 0.51493 0.10066 0.15716 0.0
C1041 C 0.50954 0.10038 0.20312 0.0
C1042 C 0.52911 0.08542 0.01823 0.0
C1043 C 0.52157 0.09153 0.97911 0.0
C1044 C 0.52367 0.08817 0.0633 0.0
C1045 C 0.51061 0.09728 0.07077 0.0
C1046 C 0.50307 0.10346 0.03159 0.0
C1047 C 0.50846 0.10057 0.98626 0.0
H1048 H 0.6534 0.71957 0.93476 0.0
H1049 H 0.65176 0.76615 0.98443 0.0
H1050 H 0.65356 0.72876 0.85426 0.0
H1051 H 0.65116 0.77536 0.90422 0.0
H1052 H 0.67455 0.78693 0.76722 0.0
H1053 H 0.66975 0.77756 0.8455 0.0
H1054 H 0.64188 0.74109 0.78926 0.0
H1055 H 0.64722 0.75023 0.71019 0.0
C1056 C 0.65255 0.73176 0.92843 0.0
C1057 C 0.65274 0.74215 0.96586 0.0
C1058 C 0.65264 0.73705 0.8822 0.0
C1059 C 0.65273 0.75285 0.87254 0.0
C1060 C 0.65162 0.76314 0.91021 0.0
C1061 C 0.65178 0.75787 0.95627 0.0
C1062 C 0.66736 0.77693 0.77141 0.0
C1063 C 0.6613 0.76933 0.73233 0.0
C1064 C 0.66446 0.77162 0.81652 0.0
C1065 C 0.65526 0.75864 0.82404 0.0
C1066 C 0.64912 0.75105 0.78491 0.0
C1067 C 0.65215 0.75631 0.73955 0.0
H1068 H 0.99914 0.89704 0.45872 0.0
H1069 H 0.96294 0.92532 0.51445 0.0
H1070 H 0.00817 0.8919 0.538 0.0
H1071 H 0.97221 0.92071 0.59299 0.0
H1072 H 0.98312 0.90262 0.73257 0.0
H1073 H 0.97397 0.90225 0.65229 0.0
H1074 H 0.0207 0.90352 0.60272 0.0
H1075 H 0.0298 0.90316 0.6833 0.0
C1076 C 0.99316 0.90222 0.48783 0.0
C1077 C 0.98029 0.91157 0.48019 0.0
C1078 C 0.99836 0.89931 0.53332 0.0
C1079 C 0.99087 0.90576 0.57218 0.0
C1080 C 0.97807 0.91518 0.56424 0.0
C1081 C 0.97281 0.91797 0.51898 0.0
C1082 C 0.99143 0.90246 0.70449 0.0
C1083 C 0.00717 0.90302 0.71423 0.0
C1084 C 0.9862 0.90243 0.65838 0.0
C1085 C 0.99656 0.90326 0.62079 0.0
C1086 C 0.01235 0.90283 0.6306 0.0
C1087 C 0.0176 0.90262 0.67687 0.0
H1088 H 0.64348 0.77764 0.44176 0.0
H1089 H 0.66195 0.7336 0.48041 0.0
H1090 H 0.64072 0.76883 0.36111 0.0
H1091 H 0.65987 0.72506 0.40037 0.0
H1092 H 0.64926 0.70875 0.25852 0.0
H1093 H 0.64471 0.71763 0.3378 0.0
H1094 H 0.65662 0.76364 0.29588 0.0
H1095 H 0.66036 0.75478 0.2158 0.0
C1096 C 0.64674 0.76602 0.43323 0.0
C1097 C 0.65298 0.75635 0.46755 0.0
C1098 C 0.64532 0.76101 0.38686 0.0
C1099 C 0.65019 0.74625 0.3738 0.0
C1100 C 0.65576 0.73641 0.40882 0.0
C1101 C 0.65705 0.74136 0.45499 0.0
C1102 C 0.65073 0.7208 0.26615 0.0
C1103 C 0.65535 0.73104 0.23106 0.0
C1104 C 0.6482 0.7259 0.31174 0.0
C1105 C 0.65056 0.74133 0.32378 0.0
C1106 C 0.65454 0.75171 0.28808 0.0
C1107 C 0.65679 0.74662 0.24213 0.0
H1108 H 0.46993 0.40227 0.68396 0.0
H1109 H 0.51645 0.40011 0.73412 0.0
H1110 H 0.47919 0.4017 0.60355 0.0
H1111 H 0.52573 0.39881 0.65404 0.0
H1112 H 0.53777 0.42102 0.51543 0.0
H1113 H 0.52834 0.41687 0.59399 0.0
H1114 H 0.49136 0.38931 0.53945 0.0
H1115 H 0.50057 0.39399 0.46006 0.0
C1116 C 0.48211 0.40116 0.6778 0.0
C1117 C 0.49247 0.4014 0.71532 0.0
C1118 C 0.48744 0.40083 0.63162 0.0
C1119 C 0.50326 0.40055 0.62206 0.0
C1120 C 0.51351 0.39953 0.6599 0.0
C1121 C 0.50819 0.4001 0.7059 0.0
C1122 C 0.52765 0.41402 0.52004 0.0
C1123 C 0.51992 0.40787 0.48131 0.0
C1124 C 0.5223 0.4115 0.56534 0.0
C1125 C 0.50914 0.4026 0.57343 0.0
C1126 C 0.50144 0.39633 0.53466 0.0
C1127 C 0.50676 0.39897 0.48911 0.0
H1128 H 0.82933 0.29083 0.76982 0.0
H1129 H 0.85631 0.25365 0.71413 0.0
H1130 H 0.83369 0.28149 0.84835 0.0
H1131 H 0.86124 0.24454 0.79345 0.0
H1132 H 0.8507 0.26972 0.98818 0.0
H1133 H 0.85185 0.27896 0.90805 0.0
H1134 H 0.84909 0.2324 0.85782 0.0
H1135 H 0.84871 0.22319 0.93827 0.0
C1136 C 0.83637 0.28074 0.77436 0.0
C1137 C 0.84244 0.27299 0.73557 0.0
C1138 C 0.83902 0.27543 0.81963 0.0
C1139 C 0.84798 0.26231 0.8276 0.0
C1140 C 0.85417 0.2546 0.78876 0.0
C1141 C 0.85139 0.25985 0.74324 0.0
C1142 C 0.85072 0.26145 0.95999 0.0
C1143 C 0.84951 0.24575 0.96948 0.0
C1144 C 0.85119 0.26674 0.91396 0.0
C1145 C 0.85015 0.25648 0.8762 0.0
C1146 C 0.84997 0.24067 0.88582 0.0
C1147 C 0.84975 0.23536 0.93202 0.0
H1148 H 0.98635 0.60514 0.23919 0.0
H1149 H 0.03259 0.59828 0.19053 0.0
H1150 H 0.97746 0.60682 0.15875 0.0
H1151 H 0.02365 0.59916 0.10986 0.0
H1152 H 0.00333 0.60598 0.96473 0.0
H1153 H 0.01266 0.61155 0.04355 0.0
H1154 H 0.97349 0.58805 0.10157 0.0
H1155 H 0.96402 0.58304 0.02374 0.0
C1156 C 0.99465 0.60424 0.21122 0.0
C1157 C 0.01013 0.60144 0.22114 0.0
C1158 C 0.98955 0.60503 0.16503 0.0
C1159 C 0.99975 0.60269 0.12759 0.0
C1160 C 0.01544 0.60105 0.1376 0.0
C1161 C 0.02059 0.60053 0.18394 0.0
C1162 C 0.99669 0.60213 0.99443 0.0
C1163 C 0.98292 0.59406 0.98782 0.0
C1164 C 0.00205 0.60528 0.03964 0.0
C1165 C 0.9938 0.60038 0.07918 0.0
C1166 C 0.98001 0.59239 0.07225 0.0
C1167 C 0.97462 0.58936 0.02734 0.0
H1168 H 0.67166 0.28837 0.2384 0.0
H1169 H 0.64631 0.2503 0.29556 0.0
H1170 H 0.66672 0.27916 0.16005 0.0
H1171 H 0.64079 0.24131 0.2165 0.0
H1172 H 0.6532 0.22053 0.07081 0.0
H1173 H 0.65276 0.22965 0.15125 0.0
H1174 H 0.64822 0.27613 0.10156 0.0
H1175 H 0.64944 0.26701 0.02128 0.0
C1176 C 0.66486 0.27811 0.23424 0.0
C1177 C 0.65944 0.27006 0.27335 0.0
C1178 C 0.66187 0.27288 0.18909 0.0
C1179 C 0.6532 0.25953 0.18161 0.0
C1180 C 0.64762 0.25154 0.2208 0.0
C1181 C 0.65075 0.25672 0.26616 0.0
C1182 C 0.65172 0.23266 0.07715 0.0
C1183 C 0.65154 0.24308 0.03978 0.0
C1184 C 0.65147 0.23791 0.12337 0.0
C1185 C 0.65082 0.25369 0.13312 0.0
C1186 C 0.64925 0.26395 0.0955 0.0
C1187 C 0.64976 0.25872 0.04941 0.0
H1188 H 0.96317 0.42301 0.48335 0.0
H1189 H 1.00047 0.39616 0.53894 0.0
H1190 H 0.97217 0.41815 0.40465 0.0
H1191 H 0.00925 0.39079 0.45956 0.0
H1192 H 0.03025 0.40314 0.31406 0.0
H1193 H 0.02122 0.4029 0.39465 0.0
H1194 H 0.97455 0.39959 0.34559 0.0
H1195 H 0.98359 0.40053 0.26518 0.0
C1196 C 0.97321 0.41591 0.47877 0.0
C1197 C 0.98111 0.41003 0.51757 0.0
C1198 C 0.97832 0.41298 0.43343 0.0
C1199 C 0.99139 0.40394 0.42545 0.0
C1200 C 0.99923 0.39791 0.46429 0.0
C1201 C 0.99417 0.40095 0.50983 0.0
C1202 C 0.01809 0.40199 0.32055 0.0
C1203 C 0.00761 0.40203 0.2833 0.0
C1204 C 0.01289 0.40185 0.36685 0.0
C1205 C 0.9971 0.40157 0.37681 0.0
C1206 C 0.98675 0.4003 0.33934 0.0
C1207 C 0.99193 0.40066 0.29317 0.0
H1208 H 0.83061 0.712 0.74014 0.0
H1209 H 0.85513 0.75024 0.79956 0.0
H1210 H 0.83565 0.72159 0.66238 0.0
H1211 H 0.86074 0.75966 0.72088 0.0
H1212 H 0.85384 0.73388 0.52495 0.0
H1213 H 0.85456 0.72481 0.60531 0.0
H1214 H 0.84906 0.77125 0.6545 0.0
H1215 H 0.84913 0.78033 0.57389 0.0
C1216 C 0.83725 0.7224 0.73662 0.0
C1217 C 0.84245 0.73034 0.77624 0.0
C1218 C 0.8403 0.72785 0.69177 0.0
C1219 C 0.8488 0.74133 0.68498 0.0
C1220 C 0.85407 0.74929 0.72464 0.0
C1221 C 0.85089 0.74388 0.76979 0.0
C1222 C 0.85318 0.74218 0.55299 0.0
C1223 C 0.85132 0.75779 0.54312 0.0
C1224 C 0.85341 0.73698 0.59914 0.0
C1225 C 0.85143 0.74723 0.63662 0.0
C1226 C 0.85065 0.76299 0.62673 0.0
C1227 C 0.85069 0.76822 0.58043 0.0
H1228 H 0.53691 0.58166 0.98645 0.0
H1229 H 0.49754 0.604 0.04724 0.0
H1230 H 0.5272 0.58688 0.90906 0.0
H1231 H 0.48796 0.6098 0.96883 0.0
H1232 H 0.46792 0.59727 0.82128 0.0
H1233 H 0.47694 0.59779 0.90194 0.0
H1234 H 0.52305 0.60588 0.85292 0.0
H1235 H 0.51408 0.60453 0.77251 0.0
C1236 C 0.52624 0.58789 0.98333 0.0
C1237 C 0.51801 0.59238 0.02322 0.0
C1238 C 0.52071 0.59104 0.93867 0.0
C1239 C 0.50685 0.59896 0.93234 0.0
C1240 C 0.49863 0.6036 0.97227 0.0
C1241 C 0.50414 0.60031 0.01724 0.0
C1242 C 0.47991 0.59955 0.82789 0.0
C1243 C 0.49034 0.60067 0.79065 0.0
C1244 C 0.48511 0.59985 0.87421 0.0
C1245 C 0.50081 0.60149 0.88412 0.0
C1246 C 0.51096 0.60407 0.8467 0.0
C1247 C 0.50581 0.60348 0.80054 0.0
H1248 H 0.3528 0.26608 0.52545 0.0
H1249 H 0.34721 0.2198 0.57496 0.0
H1250 H 0.3541 0.27519 0.60568 0.0
H1251 H 0.34772 0.22895 0.65555 0.0
H1252 H 0.33068 0.28865 0.74073 0.0
H1253 H 0.33539 0.27886 0.6631 0.0
H1254 H 0.35991 0.24042 0.72162 0.0
H1255 H 0.35465 0.25008 0.80033 0.0
C1256 C 0.35208 0.25782 0.55359 0.0
C1257 C 0.34979 0.24225 0.54393 0.0
C1258 C 0.35264 0.26305 0.59968 0.0
C1259 C 0.35058 0.25289 0.63734 0.0
C1260 C 0.34938 0.23714 0.62763 0.0
C1261 C 0.34909 0.23186 0.58135 0.0
C1262 C 0.33715 0.27814 0.73729 0.0
C1263 C 0.34227 0.27017 0.77696 0.0
C1264 C 0.34 0.27256 0.69247 0.0
C1265 C 0.34823 0.25891 0.6857 0.0
C1266 C 0.35346 0.25093 0.72539 0.0
C1267 C 0.35049 0.25648 0.77054 0.0
H1268 H 0.45745 0.59824 0.49681 0.0
H1269 H 0.50413 0.59093 0.54077 0.0
H1270 H 0.46608 0.60253 0.41715 0.0
H1271 H 0.5128 0.59438 0.46038 0.0
H1272 H 0.52599 0.60763 0.31361 0.0
H1273 H 0.51698 0.61001 0.39419 0.0
H1274 H 0.47468 0.58765 0.3556 0.0
H1275 H 0.48335 0.58596 0.27561 0.0
C1276 C 0.46959 0.59751 0.48935 0.0
C1277 C 0.48009 0.59407 0.52495 0.0
C1278 C 0.47455 0.5999 0.44354 0.0
C1279 C 0.49015 0.59855 0.43181 0.0
C1280 C 0.50073 0.59567 0.46791 0.0
C1281 C 0.49576 0.59357 0.51404 0.0
C1282 C 0.51463 0.60355 0.32229 0.0
C1283 C 0.50541 0.59658 0.28814 0.0
C1284 C 0.50952 0.60476 0.36862 0.0
C1285 C 0.49511 0.59893 0.38183 0.0
C1286 C 0.48572 0.59253 0.34702 0.0
C1287 C 0.49075 0.59146 0.30088 0.0
H1288 H 0.17035 0.71242 0.23973 0.0
H1289 H 0.14402 0.75 0.29586 0.0
H1290 H 0.16609 0.72189 0.1613 0.0
H1291 H 0.13921 0.75926 0.21659 0.0
H1292 H 0.15239 0.78056 0.07202 0.0
H1293 H 0.15166 0.77126 0.15236 0.0
H1294 H 0.148 0.72483 0.10155 0.0
H1295 H 0.14948 0.73414 0.02154 0.0
C1296 C 0.16347 0.72263 0.23531 0.0
C1297 C 0.15757 0.73045 0.27422 0.0
C1298 C 0.16088 0.72801 0.19009 0.0
C1299 C 0.15215 0.7413 0.18225 0.0
C1300 C 0.1461 0.74907 0.22119 0.0
C1301 C 0.14881 0.74373 0.26666 0.0
C1302 C 0.15107 0.7684 0.0781 0.0
C1303 C 0.15116 0.75806 0.04051 0.0
C1304 C 0.15064 0.76304 0.12424 0.0
C1305 C 0.15012 0.74723 0.13368 0.0
C1306 C 0.14891 0.73704 0.09578 0.0
C1307 C 0.14958 0.74237 0.04981 0.0
H1308 H 0.01668 0.39912 0.76505 0.0
H1309 H 0.97012 0.40297 0.81411 0.0
H1310 H 0.02571 0.39786 0.84542 0.0
H1311 H 0.97915 0.40243 0.89467 0.0
H1312 H 0.99978 0.39569 0.03904 0.0
H1313 H 0.99089 0.39018 0.95985 0.0
H1314 H 0.02852 0.41655 0.90391 0.0
H1315 H 0.03762 0.42153 0.98237 0.0
C1316 C 0.00835 0.39944 0.79307 0.0
C1317 C 0.99271 0.40128 0.78329 0.0
C1318 C 0.01353 0.39889 0.83921 0.0
C1319 C 0.00322 0.40046 0.87672 0.0
C1320 C 0.98745 0.40115 0.86683 0.0
C1321 C 0.98224 0.40146 0.82056 0.0
C1322 C 0.00619 0.40022 0.00974 0.0
C1323 C 0.01942 0.40907 0.01711 0.0
C1324 C 0.00106 0.3971 0.96432 0.0
C1325 C 0.00901 0.40282 0.92525 0.0
C1326 C 0.02227 0.4116 0.93288 0.0
C1327 C 0.02744 0.41461 0.97809 0.0
H1328 H 0.35241 0.73439 0.98586 0.0
H1329 H 0.34755 0.78082 0.9369 0.0
H1330 H 0.35348 0.72535 0.9055 0.0
H1331 H 0.34784 0.77176 0.85624 0.0
H1332 H 0.35434 0.75079 0.71144 0.0
H1333 H 0.35987 0.76015 0.79021 0.0
H1334 H 0.33454 0.72216 0.84825 0.0
H1335 H 0.32955 0.71263 0.77039 0.0
C1336 C 0.35181 0.74269 0.95781 0.0
C1337 C 0.34977 0.75829 0.96762 0.0
C1338 C 0.35224 0.73751 0.91168 0.0
C1339 C 0.3503 0.74776 0.87419 0.0
C1340 C 0.34939 0.76351 0.88406 0.0
C1341 C 0.34923 0.76873 0.93036 0.0
C1342 C 0.35004 0.74442 0.74113 0.0
C1343 C 0.34152 0.73094 0.73453 0.0
C1344 C 0.35318 0.74981 0.78631 0.0
C1345 C 0.3478 0.74186 0.82584 0.0
C1346 C 0.33926 0.7284 0.81893 0.0
C1347 C 0.33624 0.72299 0.77403 0.0
H1348 H 0.97068 0.59842 0.6907 0.0
H1349 H 0.01729 0.60136 0.73975 0.0
H1350 H 0.97975 0.59874 0.61008 0.0
H1351 H 0.02637 0.60239 0.65942 0.0
H1352 H 0.03812 0.57912 0.522 0.0
H1353 H 0.0289 0.5838 0.60051 0.0
H1354 H 0.99175 0.61097 0.54512 0.0
H1355 H 0.00078 0.60578 0.46584 0.0
C1356 C 0.98283 0.59966 0.68423 0.0
C1357 C 0.99329 0.59969 0.72152 0.0
C1358 C 0.98806 0.59984 0.63794 0.0
C1359 C 0.00385 0.60024 0.62806 0.0
C1360 C 0.01417 0.60158 0.66559 0.0
C1361 C 0.00897 0.60116 0.71172 0.0
C1362 C 0.02801 0.58614 0.52641 0.0
C1363 C 0.02018 0.59203 0.4875 0.0
C1364 C 0.02278 0.58898 0.57166 0.0
C1365 C 0.00963 0.59792 0.57947 0.0
C1366 C 0.00184 0.60394 0.54052 0.0
C1367 C 0.00704 0.601 0.49504 0.0
H1368 H 0.1589 0.24809 0.22081 0.0
H1369 H 0.15282 0.29504 0.26352 0.0
H1370 H 0.15507 0.23973 0.30123 0.0
H1371 H 0.14811 0.28674 0.34331 0.0
H1372 H 0.16345 0.2691 0.48596 0.0
H1373 H 0.1622 0.27784 0.40598 0.0
H1374 H 0.1391 0.23605 0.36647 0.0
H1375 H 0.14108 0.22694 0.44697 0.0
C1376 C 0.15646 0.2566 0.2473 0.0
C1377 C 0.1564 0.27223 0.23599 0.0
C1378 C 0.15413 0.25181 0.29345 0.0
C1379 C 0.15141 0.26254 0.32925 0.0
C1380 C 0.15059 0.27814 0.31718 0.0
C1381 C 0.15321 0.28292 0.2713 0.0
C1382 C 0.15786 0.26184 0.46048 0.0
C1383 C 0.15246 0.24726 0.47292 0.0
C1384 C 0.15706 0.26691 0.41434 0.0
C1385 C 0.15063 0.25765 0.37925 0.0
C1386 C 0.14442 0.24339 0.39222 0.0
C1387 C 0.14539 0.23822 0.43852 0.0
H1388 H 0.48585 0.39543 0.23277 0.0
H1389 H 0.53214 0.40151 0.18362 0.0
H1390 H 0.4768 0.39422 0.15242 0.0
H1391 H 0.52305 0.4011 0.10304 0.0
H1392 H 0.46342 0.41823 0.018 0.0
H1393 H 0.47304 0.4131 0.09559 0.0
H1394 H 0.51176 0.38913 0.03656 0.0
H1395 H 0.50228 0.39483 0.95797 0.0
C1396 C 0.49412 0.39627 0.20469 0.0
C1397 C 0.50967 0.39869 0.21448 0.0
C1398 C 0.48893 0.39575 0.15855 0.0
C1399 C 0.49911 0.39801 0.12102 0.0
C1400 C 0.51485 0.39929 0.13085 0.0
C1401 C 0.52009 0.39953 0.17714 0.0
C1402 C 0.47396 0.4118 0.02133 0.0
C1403 C 0.48207 0.40697 0.98158 0.0
C1404 C 0.47943 0.40869 0.0661 0.0
C1405 C 0.49312 0.40051 0.0727 0.0
C1406 C 0.50123 0.39554 0.03292 0.0
C1407 C 0.49577 0.39877 0.98784 0.0
H1408 H 0.11982 0.31666 0.12314 0.0
H1409 H 0.15278 0.35193 0.09283 0.0
H1410 H 0.10018 0.33588 0.1353 0.0
H1411 H 0.13292 0.37129 0.09995 0.0
H1412 H 0.09925 0.40519 0.15614 0.0
H1413 H 0.11862 0.3854 0.14808 0.0
H1414 H 0.08325 0.35297 0.10967 0.0
H1415 H 0.064 0.37254 0.12276 0.0
C1416 C 0.12269 0.32858 0.11761 0.0
C1417 C 0.13774 0.33286 0.10691 0.0
C1418 C 0.11139 0.3397 0.12439 0.0
C1419 C 0.11475 0.3554 0.11905 0.0
C1420 C 0.1298 0.35949 0.10611 0.0
C1421 C 0.14121 0.34838 0.10113 0.0
C1422 C 0.09571 0.39371 0.14688 0.0
C1423 C 0.08019 0.3903 0.14059 0.0
C1424 C 0.10683 0.38234 0.14138 0.0
C1425 C 0.10275 0.36739 0.12743 0.0
C1426 C 0.08706 0.3641 0.12137 0.0
C1427 C 0.07592 0.37535 0.12868 0.0
H1428 H 0.88225 0.81569 0.38629 0.0
H1429 H 0.84837 0.85028 0.41452 0.0
H1430 H 0.90132 0.83535 0.37228 0.0
H1431 H 0.86766 0.87012 0.40554 0.0
H1432 H 0.9001 0.9044 0.34501 0.0
H1433 H 0.88137 0.88412 0.35553 0.0
H1434 H 0.9178 0.85318 0.39604 0.0
H1435 H 0.93642 0.87317 0.38053 0.0
C1436 C 0.87906 0.82757 0.39099 0.0
C1437 C 0.86391 0.83152 0.4016 0.0
C1438 C 0.89002 0.83894 0.38313 0.0
C1439 C 0.88622 0.85458 0.38727 0.0
C1440 C 0.8711 0.85836 0.40025 0.0
C1441 C 0.86002 0.84698 0.40631 0.0
C1442 C 0.90401 0.89313 0.35528 0.0
C1443 C 0.91964 0.89024 0.36146 0.0
C1444 C 0.89326 0.88149 0.3622 0.0
C1445 C 0.89783 0.86683 0.37747 0.0
C1446 C 0.91363 0.86407 0.3834 0.0
C1447 C 0.9244 0.87556 0.37469 0.0
H1448 H 0.37668 0.68002 0.58917 0.0
H1449 H 0.34287 0.64977 0.64916 0.0
H1450 H 0.39621 0.66024 0.59908 0.0
H1451 H 0.36238 0.63003 0.65885 0.0
H1452 H 0.39917 0.59392 0.61743 0.0
H1453 H 0.37921 0.61325 0.60878 0.0
H1454 H 0.40935 0.64724 0.6679 0.0
H1455 H 0.42936 0.62788 0.67677 0.0
C1456 C 0.37338 0.6691 0.60398 0.0
C1457 C 0.35823 0.66645 0.61834 0.0
C1458 C 0.38459 0.65784 0.61007 0.0
C1459 C 0.38084 0.64364 0.63007 0.0
C1460 C 0.3656 0.64085 0.6432 0.0
C1461 C 0.35444 0.65216 0.63767 0.0
C1462 C 0.40149 0.60548 0.62909 0.0
C1463 C 0.41585 0.60937 0.64782 0.0
C1464 C 0.39005 0.61654 0.62415 0.0
C1465 C 0.39277 0.63177 0.63729 0.0
C1466 C 0.40701 0.63562 0.65692 0.0
C1467 C 0.4184 0.62451 0.66242 0.0
H1468 H 0.65533 0.15079 0.91825 0.0
H1469 H 0.62255 0.18599 0.8853 0.0
H1470 H 0.63563 0.13137 0.90903 0.0
H1471 H 0.60312 0.16671 0.87111 0.0
H1472 H 0.56705 0.12978 0.87918 0.0
H1473 H 0.58602 0.14943 0.8948 0.0
H1474 H 0.622 0.11739 0.85873 0.0
H1475 H 0.60288 0.0975 0.84808 0.0
C1476 C 0.64384 0.15431 0.90894 0.0
C1477 C 0.64037 0.16983 0.90297 0.0
C1478 C 0.63253 0.14317 0.90276 0.0
C1479 C 0.61761 0.14723 0.8884 0.0
C1480 C 0.61423 0.16292 0.88301 0.0
C1481 C 0.62541 0.17407 0.89098 0.0
C1482 C 0.57904 0.12707 0.87433 0.0
C1483 C 0.58355 0.1122 0.86231 0.0
C1484 C 0.59001 0.13837 0.8831 0.0
C1485 C 0.60579 0.1352 0.87848 0.0
C1486 C 0.61013 0.12034 0.86439 0.0
C1487 C 0.59916 0.10892 0.8574 0.0
H1488 H 0.06458 0.62899 0.38068 0.0
H1489 H 0.10004 0.59639 0.34862 0.0
H1490 H 0.08372 0.6487 0.39317 0.0
H1491 H 0.11929 0.61632 0.35611 0.0
H1492 H 0.15311 0.6501 0.41193 0.0
H1493 H 0.13341 0.63062 0.40429 0.0
H1494 H 0.10061 0.66577 0.36701 0.0
H1495 H 0.1201 0.68514 0.37965 0.0
C1496 C 0.07652 0.62621 0.37494 0.0
C1497 C 0.08088 0.61124 0.3636 0.0
C1498 C 0.08759 0.63754 0.38188 0.0
C1499 C 0.1033 0.63431 0.37604 0.0
C1500 C 0.10748 0.61934 0.36263 0.0
C1501 C 0.09643 0.60789 0.35748 0.0
C1502 C 0.14157 0.65357 0.40298 0.0
C1503 C 0.13803 0.66906 0.39686 0.0
C1504 C 0.13025 0.64239 0.39774 0.0
C1505 C 0.11523 0.64638 0.38424 0.0
C1506 C 0.11181 0.66205 0.37837 0.0
C1507 C 0.12301 0.67324 0.3854 0.0
H1508 H 0.62358 0.81436 0.63254 0.0
H1509 H 0.65563 0.85005 0.59804 0.0
H1510 H 0.60393 0.83336 0.64794 0.0
H1511 H 0.63572 0.86918 0.60843 0.0
H1512 H 0.6025 0.90278 0.66747 0.0
H1513 H 0.62194 0.88308 0.65847 0.0
H1514 H 0.58647 0.85027 0.62431 0.0
H1515 H 0.5672 0.86974 0.63836 0.0
C1516 C 0.62623 0.82633 0.62689 0.0
C1517 C 0.64103 0.8308 0.61398 0.0
C1518 C 0.61493 0.83732 0.63553 0.0
C1519 C 0.61803 0.85306 0.62989 0.0
C1520 C 0.63282 0.85734 0.6149 0.0
C1521 C 0.64425 0.84637 0.60805 0.0
C1522 C 0.59896 0.89122 0.65907 0.0
C1523 C 0.58342 0.88768 0.65412 0.0
C1524 C 0.61011 0.87991 0.65299 0.0
C1525 C 0.60601 0.8649 0.63972 0.0
C1526 C 0.59029 0.86146 0.63536 0.0
C1527 C 0.57915 0.87265 0.64325 0.0
H1528 H 0.40773 0.40064 0.93628 0.0
H1529 H 0.42094 0.38167 0.80287 0.0
H1530 H 0.38756 0.38141 0.9433 0.0
H1531 H 0.40042 0.36264 0.80955 0.0
H1532 H 0.34986 0.34438 0.8229 0.0
H1533 H 0.36956 0.3641 0.8159 0.0
H1534 H 0.38831 0.35054 0.94903 0.0
H1535 H 0.3688 0.33046 0.95569 0.0
C1536 C 0.40621 0.39248 0.90819 0.0
C1537 C 0.4159 0.39268 0.86893 0.0
C1538 C 0.39474 0.38143 0.91243 0.0
C1539 C 0.3925 0.37056 0.87704 0.0
C1540 C 0.40192 0.37095 0.83724 0.0
C1541 C 0.41364 0.38181 0.83345 0.0
C1542 C 0.35812 0.34565 0.85087 0.0
C1543 C 0.35777 0.3359 0.88994 0.0
C1544 C 0.36943 0.35686 0.84664 0.0
C1545 C 0.38043 0.35877 0.88185 0.0
C1546 C 0.3799 0.34929 0.92148 0.0
C1547 C 0.36877 0.33783 0.92525 0.0
H1548 H 0.8507 0.15934 0.18844 0.0
H1549 H 0.86958 0.17235 0.05468 0.0
H1550 H 0.86978 0.13905 0.19522 0.0
H1551 H 0.8885 0.15175 0.06123 0.0
H1552 H 0.90835 0.10241 0.07367 0.0
H1553 H 0.88805 0.12148 0.06684 0.0
H1554 H 0.90004 0.13951 0.2023 0.0
H1555 H 0.92064 0.1206 0.20892 0.0
C1556 C 0.85878 0.15774 0.16017 0.0
C1557 C 0.85863 0.16744 0.12094 0.0
C1558 C 0.86976 0.14619 0.16428 0.0
C1559 C 0.88061 0.14389 0.12885 0.0
C1560 C 0.8802 0.15327 0.08895 0.0
C1561 C 0.8694 0.16504 0.08524 0.0
C1562 C 0.90659 0.11034 0.10224 0.0
C1563 C 0.91609 0.10999 0.1419 0.0
C1564 C 0.89504 0.12131 0.0981 0.0
C1565 C 0.89254 0.13196 0.13394 0.0
C1566 C 0.90171 0.13136 0.17425 0.0
C1567 C 0.9135 0.12057 0.178 0.0
H1568 H 0.85149 0.65623 0.8224 0.0
H1569 H 0.86983 0.67033 0.95578 0.0
H1570 H 0.87129 0.63658 0.8163 0.0
H1571 H 0.88943 0.65032 0.95003 0.0
H1572 H 0.90877 0.60013 0.93884 0.0
H1573 H 0.8886 0.61941 0.94461 0.0
H1574 H 0.90223 0.63803 0.81137 0.0
H1575 H 0.92276 0.61895 0.80594 0.0
C1576 C 0.85964 0.65502 0.85066 0.0
C1577 C 0.85909 0.6648 0.88967 0.0
C1578 C 0.87101 0.64385 0.84695 0.0
C1579 C 0.88186 0.64199 0.88263 0.0
C1580 C 0.88114 0.65152 0.92213 0.0
C1581 C 0.86996 0.66295 0.92538 0.0
C1582 C 0.90742 0.60827 0.91059 0.0
C1583 C 0.91732 0.60801 0.87184 0.0
C1584 C 0.89595 0.61934 0.91412 0.0
C1585 C 0.89393 0.63018 0.87853 0.0
C1586 C 0.90356 0.62974 0.83921 0.0
C1587 C 0.91528 0.61885 0.83614 0.0
H1588 H 0.15701 0.1518 0.65011 0.0
H1589 H 0.12278 0.18151 0.58985 0.0
H1590 H 0.13789 0.13168 0.65891 0.0
H1591 H 0.10362 0.16131 0.5988 0.0
H1592 H 0.07103 0.12793 0.67567 0.0
H1593 H 0.09046 0.14786 0.66646 0.0
H1594 H 0.12169 0.11462 0.60858 0.0
H1595 H 0.10234 0.09472 0.61764 0.0
C1596 C 0.14543 0.154 0.63837 0.0
C1597 C 0.14141 0.16825 0.61923 0.0
C1598 C 0.13449 0.14245 0.64336 0.0
C1599 C 0.11924 0.14495 0.62983 0.0
C1600 C 0.11525 0.15913 0.61006 0.0
C1601 C 0.12625 0.17064 0.60453 0.0
C1602 C 0.0821 0.12485 0.66141 0.0
C1603 C 0.08515 0.10975 0.64744 0.0
C1604 C 0.09316 0.13629 0.65572 0.0
C1605 C 0.10755 0.13281 0.63652 0.0
C1606 C 0.11073 0.11763 0.62368 0.0
C1607 C 0.09963 0.10625 0.62883 0.0
H1608 H 0.60029 0.40279 0.34467 0.0
H1609 H 0.56516 0.36999 0.37807 0.0
H1610 H 0.61976 0.38313 0.35357 0.0
H1611 H 0.58452 0.35056 0.39191 0.0
H1612 H 0.62154 0.31453 0.37986 0.0
H1613 H 0.60172 0.33354 0.36673 0.0
H1614 H 0.63392 0.36934 0.40302 0.0
H1615 H 0.65394 0.35021 0.41118 0.0
C1616 C 0.5968 0.3913 0.35414 0.0
C1617 C 0.58129 0.38781 0.36024 0.0
C1618 C 0.60797 0.38002 0.3601 0.0
C1619 C 0.60395 0.36508 0.37432 0.0
C1620 C 0.58827 0.3617 0.38009 0.0
C1621 C 0.57708 0.37286 0.37235 0.0
C1622 C 0.62424 0.32649 0.38534 0.0
C1623 C 0.63919 0.33096 0.39659 0.0
C1624 C 0.61285 0.33748 0.378 0.0
C1625 C 0.61602 0.35322 0.38331 0.0
C1626 C 0.63096 0.3575 0.39683 0.0
C1627 C 0.64246 0.34653 0.40239 0.0
H1628 H 0.34917 0.84345 0.18681 0.0
H1629 H 0.36851 0.83072 0.05341 0.0
H1630 H 0.36809 0.86388 0.19427 0.0
H1631 H 0.38725 0.85147 0.0606 0.0
H1632 H 0.40627 0.90129 0.0746 0.0
H1633 H 0.38625 0.88195 0.06697 0.0
H1634 H 0.39856 0.86344 0.20156 0.0
H1635 H 0.4189 0.88261 0.20893 0.0
C1636 C 0.35732 0.84515 0.15876 0.0
C1637 C 0.35735 0.83549 0.11945 0.0
C1638 C 0.3682 0.85677 0.16326 0.0
C1639 C 0.37912 0.85919 0.12811 0.0
C1640 C 0.37889 0.84985 0.08812 0.0
C1641 C 0.3682 0.838 0.08404 0.0
C1642 C 0.40464 0.89318 0.1028 0.0
C1643 C 0.41415 0.89348 0.14245 0.0
C1644 C 0.39325 0.88207 0.09821 0.0
C1645 C 0.39092 0.87122 0.13359 0.0
C1646 C 0.40011 0.87175 0.17387 0.0
C1647 C 0.41174 0.88268 0.17805 0.0
H1648 H 0.90168 0.40601 0.65868 0.0
H1649 H 0.93666 0.37307 0.62508 0.0
H1650 H 0.88219 0.3863 0.65169 0.0
H1651 H 0.91726 0.35357 0.61314 0.0
H1652 H 0.88043 0.31755 0.62801 0.0
H1653 H 0.90023 0.33667 0.6399 0.0
H1654 H 0.86779 0.37224 0.60355 0.0
H1655 H 0.8478 0.35304 0.59662 0.0
C1656 C 0.90513 0.39448 0.64959 0.0
C1657 C 0.92061 0.39097 0.64287 0.0
C1658 C 0.89394 0.38316 0.64473 0.0
C1659 C 0.89791 0.36816 0.63103 0.0
C1660 C 0.91356 0.36476 0.62463 0.0
C1661 C 0.92477 0.37597 0.63126 0.0
C1662 C 0.87766 0.32949 0.62229 0.0
C1663 C 0.86266 0.33387 0.61133 0.0
C1664 C 0.88904 0.34054 0.6289 0.0
C1665 C 0.88581 0.35624 0.62311 0.0
C1666 C 0.87081 0.36044 0.61003 0.0
C1667 C 0.85932 0.34941 0.6052 0.0
H1668 H 0.36929 0.17248 0.45372 0.0
H1669 H 0.34955 0.15882 0.32178 0.0
H1670 H 0.38849 0.15216 0.44622 0.0
H1671 H 0.36894 0.13883 0.31395 0.0
H1672 H 0.42007 0.12069 0.29865 0.0
H1673 H 0.39961 0.13977 0.30586 0.0
H1674 H 0.38756 0.12149 0.44095 0.0
H1675 H 0.40767 0.10223 0.43348 0.0
C1676 C 0.36902 0.16512 0.4233 0.0
C1677 C 0.35789 0.1672 0.38846 0.0
C1678 C 0.37997 0.15351 0.41905 0.0
C1679 C 0.38019 0.14402 0.37941 0.0
C1680 C 0.36905 0.14607 0.34468 0.0
C1681 C 0.35791 0.15744 0.34939 0.0
C1682 C 0.41295 0.12066 0.32962 0.0
C1683 C 0.41544 0.10994 0.36539 0.0
C1684 C 0.40126 0.13154 0.33371 0.0
C1685 C 0.39211 0.1321 0.37407 0.0
C1686 C 0.39454 0.12134 0.40965 0.0
C1687 C 0.40598 0.11027 0.40515 0.0
H1688 H 0.6497 0.65605 0.18377 0.0
H1689 H 0.6314 0.66934 0.04953 0.0
H1690 H 0.63038 0.63596 0.18987 0.0
H1691 H 0.61225 0.64891 0.05537 0.0
H1692 H 0.59284 0.59901 0.0678 0.0
H1693 H 0.61291 0.61836 0.06129 0.0
H1694 H 0.59984 0.63679 0.19531 0.0
H1695 H 0.57945 0.61762 0.20154 0.0
C1696 C 0.64168 0.65456 0.15527 0.0
C1697 C 0.64208 0.66426 0.11608 0.0
C1698 C 0.63057 0.64313 0.15899 0.0
C1699 C 0.61983 0.64095 0.12319 0.0
C1700 C 0.62046 0.65035 0.08338 0.0
C1701 C 0.63139 0.66202 0.08008 0.0
C1702 C 0.59429 0.60711 0.09607 0.0
C1703 C 0.58458 0.60678 0.13527 0.0
C1704 C 0.60571 0.61823 0.09212 0.0
C1705 C 0.60786 0.62904 0.12772 0.0
C1706 C 0.59842 0.62852 0.16747 0.0
C1707 C 0.58676 0.61758 0.17099 0.0
H1708 H 0.08113 0.88108 0.7993 0.0
H1709 H 0.09325 0.8987 0.93538 0.0
H1710 H 0.10164 0.86202 0.80565 0.0
H1711 H 0.11341 0.87947 0.94197 0.0
H1712 H 0.13175 0.82852 0.95249 0.0
H1713 H 0.11255 0.84885 0.94568 0.0
H1714 H 0.13225 0.86281 0.81419 0.0
H1715 H 0.15164 0.8428 0.82134 0.0
C1716 C 0.08821 0.88094 0.83035 0.0
C1717 C 0.08562 0.89141 0.86674 0.0
C1718 C 0.09993 0.87007 0.83395 0.0
C1719 C 0.10901 0.86927 0.87442 0.0
C1720 C 0.10649 0.8798 0.91058 0.0
C1721 C 0.09502 0.89085 0.90659 0.0
C1722 C 0.13206 0.83602 0.92238 0.0
C1723 C 0.14323 0.83411 0.88758 0.0
C1724 C 0.1211 0.84764 0.91853 0.0
C1725 C 0.12093 0.85732 0.87931 0.0
C1726 C 0.1321 0.85543 0.8446 0.0
C1727 C 0.14324 0.84405 0.84892 0.0
loop_
_geom_bond_atom_site_label_1
_geom_bond_atom_site_label_2
_geom_bond_distance
_geom_bond_site_symmetry_2
_ccdc_geom_bond_type
O0 Cd1 2.223 . S
O0 C8 1.315 . S
Cd1 O0 2.223 . S
Cd1 O4 2.297 . S
Cd1 O5 2.439 . S
Cd1 O11 2.240 . S
Cd2 O3 2.240 . S
Cd2 O10 2.223 . S
Cd2 O12 2.297 1_554 S
Cd2 O13 2.439 1_554 S
O3 Cd2 2.240 . S
O3 C8 1.279 . S
O4 Cd1 2.297 . S
O4 C6 1.247 . S
O5 Cd1 2.439 . S
O5 C6 1.208 . S
C6 O4 1.247 . S
C6 O5 1.208 . S
C7 O12 1.247 . S
C7 O13 1.208 . S
C8 O0 1.315 . S
C8 O3 1.279 . S
C9 O10 1.315 . S
C9 O11 1.279 . S
O10 Cd2 2.223 . S
O10 C9 1.315 . S
O11 Cd1 2.240 . S
O11 C9 1.279 . S
O12 Cd2 2.297 1_556 S
O12 C7 1.247 . S
O13 Cd2 2.439 1_556 S
O13 C7 1.208 . S
O14 Cd15 2.223 . S
O14 C22 1.315 . S
Cd15 O14 2.223 . S
Cd15 O18 2.297 . S
Cd15 O19 2.439 . S
Cd15 O25 2.240 . S
Cd16 O17 2.240 . S
Cd16 O24 2.223 . S
Cd16 O26 2.297 . S
Cd16 O27 2.439 . S
O17 Cd16 2.240 . S
O17 C22 1.279 . S
O18 Cd15 2.297 . S
O18 C20 1.247 . S
O19 Cd15 2.439 . S
O19 C20 1.208 . S
C20 O18 1.247 . S
C20 O19 1.208 . S
C21 O26 1.247 . S
C21 O27 1.208 . S
C22 O14 1.315 . S
C22 O17 1.279 . S
C23 O24 1.315 . S
C23 O25 1.279 . S
O24 Cd16 2.223 . S
O24 C23 1.315 . S
O25 Cd15 2.240 . S
O25 C23 1.279 . S
O26 Cd16 2.297 . S
O26 C21 1.247 . S
O27 Cd16 2.439 . S
O27 C21 1.208 . S
O28 Cd29 2.223 . S
O28 C36 1.315 . S
Cd29 O28 2.223 . S
Cd29 O32 2.297 . S
Cd29 O33 2.439 . S
Cd29 O39 2.240 . S
Cd30 O31 2.240 . S
Cd30 O38 2.223 . S
Cd30 O40 2.297 . S
Cd30 O41 2.439 . S
O31 Cd30 2.240 . S
O31 C36 1.279 . S
O32 Cd29 2.297 . S
O32 C34 1.247 . S
O33 Cd29 2.439 . S
O33 C34 1.208 . S
C34 O32 1.247 . S
C34 O33 1.208 . S
C35 O40 1.247 . S
C35 O41 1.208 . S
C36 O28 1.315 . S
C36 O31 1.279 . S
C37 O38 1.315 . S
C37 O39 1.279 . S
O38 Cd30 2.223 . S
O38 C37 1.315 . S
O39 Cd29 2.240 . S
O39 C37 1.279 . S
O40 Cd30 2.297 . S
O40 C35 1.247 . S
O41 Cd30 2.439 . S
O41 C35 1.208 . S
O42 Cd43 2.223 . S
O42 C50 1.315 . S
Cd43 O42 2.223 . S
Cd43 O46 2.297 . S
Cd43 O47 2.439 . S
Cd43 O53 2.240 . S
Cd44 O45 2.240 . S
Cd44 O52 2.223 . S
Cd44 O54 2.297 . S
Cd44 O55 2.439 . S
O45 Cd44 2.240 . S
O45 C50 1.279 . S
O46 Cd43 2.297 . S
O46 C48 1.247 . S
O47 Cd43 2.439 . S
O47 C48 1.208 . S
C48 O46 1.247 . S
C48 O47 1.208 . S
C49 O54 1.247 . S
C49 O55 1.208 . S
C50 O42 1.315 . S
C50 O45 1.279 . S
C51 O52 1.315 . S
C51 O53 1.279 . S
O52 Cd44 2.223 . S
O52 C51 1.315 . S
O53 Cd43 2.240 . S
O53 C51 1.279 . S
O54 Cd44 2.297 . S
O54 C49 1.247 . S
O55 Cd44 2.439 . S
O55 C49 1.208 . S
O56 Cd57 2.223 . S
O56 C64 1.315 . S
Cd57 O56 2.223 . S
Cd57 O60 2.297 . S
Cd57 O61 2.439 . S
Cd57 O67 2.240 . S
Cd58 O59 2.240 . S
Cd58 O66 2.223 . S
Cd58 O68 2.297 . S
Cd58 O69 2.439 . S
O59 Cd58 2.240 . S
O59 C64 1.279 . S
O60 Cd57 2.297 . S
O60 C62 1.247 . S
O61 Cd57 2.439 . S
O61 C62 1.208 . S
C62 O60 1.247 . S
C62 O61 1.208 . S
C63 O68 1.247 . S
C63 O69 1.208 . S
C64 O56 1.315 . S
C64 O59 1.279 . S
C65 O66 1.315 . S
C65 O67 1.279 . S
O66 Cd58 2.223 . S
O66 C65 1.315 . S
O67 Cd57 2.240 . S
O67 C65 1.279 . S
O68 Cd58 2.297 . S
O68 C63 1.247 . S
O69 Cd58 2.439 . S
O69 C63 1.208 . S
O70 Cd71 2.223 . S
O70 C78 1.315 . S
Cd71 O70 2.223 . S
Cd71 O74 2.297 . S
Cd71 O75 2.439 . S
Cd71 O81 2.240 . S
Cd72 O73 2.240 . S
Cd72 O80 2.223 . S
Cd72 O82 2.297 . S
Cd72 O83 2.439 . S
O73 Cd72 2.240 . S
O73 C78 1.279 . S
O74 Cd71 2.297 . S
O74 C76 1.247 . S
O75 Cd71 2.439 . S
O75 C76 1.208 . S
C76 O74 1.247 . S
C76 O75 1.208 . S
C77 O82 1.247 . S
C77 O83 1.208 . S
C78 O70 1.315 . S
C78 O73 1.279 . S
C79 O80 1.315 . S
C79 O81 1.279 . S
O80 Cd72 2.223 . S
O80 C79 1.315 . S
O81 Cd71 2.240 . S
O81 C79 1.279 . S
O82 Cd72 2.297 . S
O82 C77 1.247 . S
O83 Cd72 2.439 . S
O83 C77 1.208 . S
O84 Cd85 2.223 . S
O84 C92 1.315 . S
Cd85 O84 2.223 . S
Cd85 O88 2.297 . S
Cd85 O89 2.439 . S
Cd85 O95 2.240 . S
Cd86 O87 2.240 . S
Cd86 O94 2.223 . S
Cd86 O96 2.297 1_556 S
Cd86 O97 2.439 1_556 S
O87 Cd86 2.240 . S
O87 C92 1.279 . S
O88 Cd85 2.297 . S
O88 C90 1.247 . S
O89 Cd85 2.439 . S
O89 C90 1.208 . S
C90 O88 1.247 . S
C90 O89 1.208 . S
C91 O96 1.247 . S
C91 O97 1.208 . S
C92 O84 1.315 . S
C92 O87 1.279 . S
C93 O94 1.315 . S
C93 O95 1.279 . S
O94 Cd86 2.223 . S
O94 C93 1.315 . S
O95 Cd85 2.240 . S
O95 C93 1.279 . S
O96 Cd86 2.297 1_554 S
O96 C91 1.247 . S
O97 Cd86 2.439 1_554 S
O97 C91 1.208 . S
O98 Cd99 2.223 . S
O98 C106 1.315 . S
Cd99 O98 2.223 . S
Cd99 O102 2.297 . S
Cd99 O103 2.439 . S
Cd99 O109 2.240 . S
Cd100 O101 2.240 . S
Cd100 O108 2.223 . S
Cd100 O110 2.297 . S
Cd100 O111 2.439 . S
O101 Cd100 2.240 . S
O101 C106 1.279 . S
O102 Cd99 2.297 . S
O102 C104 1.247 . S
O103 Cd99 2.439 . S
O103 C104 1.208 . S
C104 O102 1.247 . S
C104 O103 1.208 . S
C105 O110 1.247 . S
C105 O111 1.208 . S
C106 O98 1.315 . S
C106 O101 1.279 . S
C107 O108 1.315 . S
C107 O109 1.279 . S
O108 Cd100 2.223 . S
O108 C107 1.315 . S
O109 Cd99 2.240 . S
O109 C107 1.279 . S
O110 Cd100 2.297 . S
O110 C105 1.247 . S
O111 Cd100 2.439 . S
O111 C105 1.208 . S
O112 Cd113 2.223 . S
O112 C120 1.315 . S
Cd113 O112 2.223 . S
Cd113 O116 2.297 . S
Cd113 O117 2.439 . S
Cd113 O123 2.240 . S
Cd114 O115 2.240 . S
Cd114 O122 2.223 . S
Cd114 O124 2.297 1_556 S
Cd114 O125 2.439 1_556 S
O115 Cd114 2.240 . S
O115 C120 1.279 . S
O116 Cd113 2.297 . S
O116 C118 1.247 . S
O117 Cd113 2.439 . S
O117 C118 1.208 . S
C118 O116 1.247 . S
C118 O117 1.208 . S
C119 O124 1.247 . S
C119 O125 1.208 . S
C120 O112 1.315 . S
C120 O115 1.279 . S
C121 O122 1.315 . S
C121 O123 1.279 . S
O122 Cd114 2.223 . S
O122 C121 1.315 . S
O123 Cd113 2.240 . S
O123 C121 1.279 . S
O124 Cd114 2.297 1_554 S
O124 C119 1.247 . S
O125 Cd114 2.439 1_554 S
O125 C119 1.208 . S
O126 Cd127 2.223 . S
O126 C134 1.315 . S
Cd127 O126 2.223 . S
Cd127 O130 2.297 . S
Cd127 O131 2.439 . S
Cd127 O137 2.240 . S
Cd128 O129 2.240 . S
Cd128 O136 2.223 . S
Cd128 O138 2.297 . S
Cd128 O139 2.439 . S
O129 Cd128 2.240 . S
O129 C134 1.279 . S
O130 Cd127 2.297 . S
O130 C132 1.247 . S
O131 Cd127 2.439 . S
O131 C132 1.208 . S
C132 O130 1.247 . S
C132 O131 1.208 . S
C133 O138 1.247 . S
C133 O139 1.208 . S
C134 O126 1.315 . S
C134 O129 1.279 . S
C135 O136 1.315 . S
C135 O137 1.279 . S
O136 Cd128 2.223 . S
O136 C135 1.315 . S
O137 Cd127 2.240 . S
O137 C135 1.279 . S
O138 Cd128 2.297 . S
O138 C133 1.247 . S
O139 Cd128 2.439 . S
O139 C133 1.208 . S
O140 Cd141 2.223 . S
O140 C148 1.315 . S
Cd141 O140 2.223 . S
Cd141 O144 2.297 . S
Cd141 O145 2.439 . S
Cd141 O151 2.240 . S
Cd142 O143 2.240 . S
Cd142 O150 2.223 . S
Cd142 O152 2.297 . S
Cd142 O153 2.439 . S
O143 Cd142 2.240 . S
O143 C148 1.279 . S
O144 Cd141 2.297 . S
O144 C146 1.247 . S
O145 Cd141 2.439 . S
O145 C146 1.208 . S
C146 O144 1.247 . S
C146 O145 1.208 . S
C147 O152 1.247 . S
C147 O153 1.208 . S
C148 O140 1.315 . S
C148 O143 1.279 . S
C149 O150 1.315 . S
C149 O151 1.279 . S
O150 Cd142 2.223 . S
O150 C149 1.315 . S
O151 Cd141 2.240 . S
O151 C149 1.279 . S
O152 Cd142 2.297 . S
O152 C147 1.247 . S
O153 Cd142 2.439 . S
O153 C147 1.208 . S
O154 Cd155 2.223 . S
O154 C162 1.315 . S
Cd155 O154 2.223 . S
Cd155 O158 2.297 . S
Cd155 O159 2.439 . S
Cd155 O165 2.240 . S
Cd156 O157 2.240 . S
Cd156 O164 2.223 . S
Cd156 O166 2.297 . S
Cd156 O167 2.439 . S
O157 Cd156 2.240 . S
O157 C162 1.279 . S
O158 Cd155 2.297 . S
O158 C160 1.247 . S
O159 Cd155 2.439 . S
O159 C160 1.208 . S
C160 O158 1.247 . S
C160 O159 1.208 . S
C161 O166 1.247 . S
C161 O167 1.208 . S
C162 O154 1.315 . S
C162 O157 1.279 . S
C163 O164 1.315 . S
C163 O165 1.279 . S
O164 Cd156 2.223 . S
O164 C163 1.315 . S
O165 Cd155 2.240 . S
O165 C163 1.279 . S
O166 Cd156 2.297 . S
O166 C161 1.247 . S
O167 Cd156 2.439 . S
O167 C161 1.208 . S
O168 Cd169 2.223 . S
O168 C176 1.315 . S
Cd169 O168 2.223 . S
Cd169 O172 2.297 . S
Cd169 O173 2.439 . S
Cd169 O179 2.240 . S
Cd170 O171 2.240 . S
Cd170 O178 2.223 . S
Cd170 O180 2.297 . S
Cd170 O181 2.439 . S
O171 Cd170 2.240 . S
O171 C176 1.279 . S
O172 Cd169 2.297 . S
O172 C174 1.247 . S
O173 Cd169 2.439 . S
O173 C174 1.208 . S
C174 O172 1.247 . S
C174 O173 1.208 . S
C175 O180 1.247 . S
C175 O181 1.208 . S
C176 O168 1.315 . S
C176 O171 1.279 . S
C177 O178 1.315 . S
C177 O179 1.279 . S
O178 Cd170 2.223 . S
O178 C177 1.315 . S
O179 Cd169 2.240 . S
O179 C177 1.279 . S
O180 Cd170 2.297 . S
O180 C175 1.247 . S
O181 Cd170 2.439 . S
O181 C175 1.208 . S
O182 Cd183 2.223 . S
O182 C190 1.315 . S
Cd183 O182 2.223 . S
Cd183 O186 2.297 . S
Cd183 O187 2.439 . S
Cd183 O193 2.240 . S
Cd184 O185 2.240 . S
Cd184 O192 2.223 . S
Cd184 O194 2.297 . S
Cd184 O195 2.439 . S
O185 Cd184 2.240 . S
O185 C190 1.279 . S
O186 Cd183 2.297 . S
O186 C188 1.247 . S
O187 Cd183 2.439 . S
O187 C188 1.208 . S
C188 O186 1.247 . S
C188 O187 1.208 . S
C189 O194 1.247 . S
C189 O195 1.208 . S
C190 O182 1.315 . S
C190 O185 1.279 . S
C191 O192 1.315 . S
C191 O193 1.279 . S
O192 Cd184 2.223 . S
O192 C191 1.315 . S
O193 Cd183 2.240 . S
O193 C191 1.279 . S
O194 Cd184 2.297 . S
O194 C189 1.247 . S
O195 Cd184 2.439 . S
O195 C189 1.208 . S
O196 Cd197 2.223 . S
O196 C204 1.315 . S
Cd197 O196 2.223 . S
Cd197 O200 2.297 . S
Cd197 O201 2.439 . S
Cd197 O207 2.240 . S
Cd198 O199 2.240 . S
Cd198 O206 2.223 . S
Cd198 O208 2.297 1_554 S
Cd198 O209 2.439 1_554 S
O199 Cd198 2.240 . S
O199 C204 1.279 . S
O200 Cd197 2.297 . S
O200 C202 1.247 . S
O201 Cd197 2.439 . S
O201 C202 1.208 . S
C202 O200 1.247 . S
C202 O201 1.208 . S
C203 O208 1.247 . S
C203 O209 1.208 . S
C204 O196 1.315 . S
C204 O199 1.279 . S
C205 O206 1.315 . S
C205 O207 1.279 . S
O206 Cd198 2.223 . S
O206 C205 1.315 . S
O207 Cd197 2.240 . S
O207 C205 1.279 . S
O208 Cd198 2.297 1_556 S
O208 C203 1.247 . S
O209 Cd198 2.439 1_556 S
O209 C203 1.208 . S
O210 Cd211 2.223 . S
O210 C218 1.315 . S
Cd211 O210 2.223 . S
Cd211 O214 2.297 . S
Cd211 O215 2.439 . S
Cd211 O221 2.240 . S
Cd212 O213 2.240 . S
Cd212 O220 2.223 . S
Cd212 O222 2.297 . S
Cd212 O223 2.439 . S
O213 Cd212 2.240 . S
O213 C218 1.279 . S
O214 Cd211 2.297 . S
O214 C216 1.247 . S
O215 Cd211 2.439 . S
O215 C216 1.208 . S
C216 O214 1.247 . S
C216 O215 1.208 . S
C217 O222 1.247 . S
C217 O223 1.208 . S
C218 O210 1.315 . S
C218 O213 1.279 . S
C219 O220 1.315 . S
C219 O221 1.279 . S
O220 Cd212 2.223 . S
O220 C219 1.315 . S
O221 Cd211 2.240 . S
O221 C219 1.279 . S
O222 Cd212 2.297 . S
O222 C217 1.247 . S
O223 Cd212 2.439 . S
O223 C217 1.208 . S
O224 Cd225 2.223 . S
O224 C232 1.315 . S
Cd225 O224 2.223 . S
Cd225 O228 2.297 . S
Cd225 O229 2.439 . S
Cd225 O235 2.240 . S
Cd226 O227 2.240 . S
Cd226 O234 2.223 . S
Cd226 O236 2.297 . S
Cd226 O237 2.439 . S
O227 Cd226 2.240 . S
O227 C232 1.279 . S
O228 Cd225 2.297 . S
O228 C230 1.247 . S
O229 Cd225 2.439 . S
O229 C230 1.208 . S
C230 O228 1.247 . S
C230 O229 1.208 . S
C231 O236 1.247 . S
C231 O237 1.208 . S
C232 O224 1.315 . S
C232 O227 1.279 . S
C233 O234 1.315 . S
C233 O235 1.279 . S
O234 Cd226 2.223 . S
O234 C233 1.315 . S
O235 Cd225 2.240 . S
O235 C233 1.279 . S
O236 Cd226 2.297 . S
O236 C231 1.247 . S
O237 Cd226 2.439 . S
O237 C231 1.208 . S
O238 Cd239 2.223 . S
O238 C246 1.315 . S
Cd239 O238 2.223 . S
Cd239 O242 2.297 . S
Cd239 O243 2.439 . S
Cd239 O249 2.240 . S
Cd240 O241 2.240 . S
Cd240 O248 2.223 . S
Cd240 O250 2.297 . S
Cd240 O251 2.439 . S
O241 Cd240 2.240 . S
O241 C246 1.279 . S
O242 Cd239 2.297 . S
O242 C244 1.247 . S
O243 Cd239 2.439 . S
O243 C244 1.208 . S
C244 O242 1.247 . S
C244 O243 1.208 . S
C245 O250 1.247 . S
C245 O251 1.208 . S
C246 O238 1.315 . S
C246 O241 1.279 . S
C247 O248 1.315 . S
C247 O249 1.279 . S
O248 Cd240 2.223 . S
O248 C247 1.315 . S
O249 Cd239 2.240 . S
O249 C247 1.279 . S
O250 Cd240 2.297 . S
O250 C245 1.247 . S
O251 Cd240 2.439 . S
O251 C245 1.208 . S
O252 Cd253 2.223 . S
O252 C260 1.315 . S
Cd253 O252 2.223 . S
Cd253 O256 2.297 . S
Cd253 O257 2.439 . S
Cd253 O263 2.240 . S
Cd254 O255 2.240 . S
Cd254 O262 2.223 . S
Cd254 O264 2.297 1_554 S
Cd254 O265 2.439 1_554 S
O255 Cd254 2.240 . S
O255 C260 1.279 . S
O256 Cd253 2.297 . S
O256 C258 1.247 . S
O257 Cd253 2.439 . S
O257 C258 1.208 . S
C258 O256 1.247 . S
C258 O257 1.208 . S
C259 O264 1.247 . S
C259 O265 1.208 . S
C260 O252 1.315 . S
C260 O255 1.279 . S
C261 O262 1.315 . S
C261 O263 1.279 . S
O262 Cd254 2.223 . S
O262 C261 1.315 . S
O263 Cd253 2.240 . S
O263 C261 1.279 . S
O264 Cd254 2.297 1_556 S
O264 C259 1.247 . S
O265 Cd254 2.439 1_556 S
O265 C259 1.208 . S
O266 Cd267 2.223 . S
O266 C274 1.315 . S
Cd267 O266 2.223 . S
Cd267 O270 2.297 . S
Cd267 O271 2.439 . S
Cd267 O277 2.240 . S
Cd268 O269 2.240 . S
Cd268 O276 2.223 . S
Cd268 O278 2.297 . S
Cd268 O279 2.439 . S
O269 Cd268 2.240 . S
O269 C274 1.279 . S
O270 Cd267 2.297 . S
O270 C272 1.247 . S
O271 Cd267 2.439 . S
O271 C272 1.208 . S
C272 O270 1.247 . S
C272 O271 1.208 . S
C273 O278 1.247 . S
C273 O279 1.208 . S
C274 O266 1.315 . S
C274 O269 1.279 . S
C275 O276 1.315 . S
C275 O277 1.279 . S
O276 Cd268 2.223 . S
O276 C275 1.315 . S
O277 Cd267 2.240 . S
O277 C275 1.279 . S
O278 Cd268 2.297 . S
O278 C273 1.247 . S
O279 Cd268 2.439 . S
O279 C273 1.208 . S
O280 Cd281 2.223 . S
O280 C288 1.315 . S
Cd281 O280 2.223 . S
Cd281 O284 2.297 . S
Cd281 O285 2.439 . S
Cd281 O291 2.240 . S
Cd282 O283 2.240 . S
Cd282 O290 2.223 . S
Cd282 O292 2.297 1_556 S
Cd282 O293 2.439 1_556 S
O283 Cd282 2.240 . S
O283 C288 1.279 . S
O284 Cd281 2.297 . S
O284 C286 1.247 . S
O285 Cd281 2.439 . S
O285 C286 1.208 . S
C286 O284 1.247 . S
C286 O285 1.208 . S
C287 O292 1.247 . S
C287 O293 1.208 . S
C288 O280 1.315 . S
C288 O283 1.279 . S
C289 O290 1.315 . S
C289 O291 1.279 . S
O290 Cd282 2.223 . S
O290 C289 1.315 . S
O291 Cd281 2.240 . S
O291 C289 1.279 . S
O292 Cd282 2.297 1_554 S
O292 C287 1.247 . S
O293 Cd282 2.439 1_554 S
O293 C287 1.208 . S
O294 Cd295 2.223 . S
O294 C302 1.315 . S
Cd295 O294 2.223 . S
Cd295 O298 2.297 . S
Cd295 O299 2.439 . S
Cd295 O305 2.240 . S
Cd296 O297 2.240 . S
Cd296 O304 2.223 . S
Cd296 O306 2.297 . S
Cd296 O307 2.439 . S
O297 Cd296 2.240 . S
O297 C302 1.279 . S
O298 Cd295 2.297 . S
O298 C300 1.247 . S
O299 Cd295 2.439 . S
O299 C300 1.208 . S
C300 O298 1.247 . S
C300 O299 1.208 . S
C301 O306 1.247 . S
C301 O307 1.208 . S
C302 O294 1.315 . S
C302 O297 1.279 . S
C303 O304 1.315 . S
C303 O305 1.279 . S
O304 Cd296 2.223 . S
O304 C303 1.315 . S
O305 Cd295 2.240 . S
O305 C303 1.279 . S
O306 Cd296 2.297 . S
O306 C301 1.247 . S
O307 Cd296 2.439 . S
O307 C301 1.208 . S
O308 Cd309 2.223 . S
O308 C316 1.315 . S
Cd309 O308 2.223 . S
Cd309 O312 2.297 . S
Cd309 O313 2.439 . S
Cd309 O319 2.240 . S
Cd310 O311 2.240 . S
Cd310 O318 2.223 . S
Cd310 O320 2.297 . S
Cd310 O321 2.439 . S
O311 Cd310 2.240 . S
O311 C316 1.279 . S
O312 Cd309 2.297 . S
O312 C314 1.247 . S
O313 Cd309 2.439 . S
O313 C314 1.208 . S
C314 O312 1.247 . S
C314 O313 1.208 . S
C315 O320 1.247 . S
C315 O321 1.208 . S
C316 O308 1.315 . S
C316 O311 1.279 . S
C317 O318 1.315 . S
C317 O319 1.279 . S
O318 Cd310 2.223 . S
O318 C317 1.315 . S
O319 Cd309 2.240 . S
O319 C317 1.279 . S
O320 Cd310 2.297 . S
O320 C315 1.247 . S
O321 Cd310 2.439 . S
O321 C315 1.208 . S
O322 Cd323 2.223 . S
O322 C330 1.315 . S
Cd323 O322 2.223 . S
Cd323 O326 2.297 . S
Cd323 O327 2.439 . S
Cd323 O333 2.240 . S
Cd324 O325 2.240 . S
Cd324 O332 2.223 . S
Cd324 O334 2.297 . S
Cd324 O335 2.439 . S
O325 Cd324 2.240 . S
O325 C330 1.279 . S
O326 Cd323 2.297 . S
O326 C328 1.247 . S
O327 Cd323 2.439 . S
O327 C328 1.208 . S
C328 O326 1.247 . S
C328 O327 1.208 . S
C329 O334 1.247 . S
C329 O335 1.208 . S
C330 O322 1.315 . S
C330 O325 1.279 . S
C331 O332 1.315 . S
C331 O333 1.279 . S
O332 Cd324 2.223 . S
O332 C331 1.315 . S
O333 Cd323 2.240 . S
O333 C331 1.279 . S
O334 Cd324 2.297 . S
O334 C329 1.247 . S
O335 Cd324 2.439 . S
O335 C329 1.208 . S
O336 Cd337 2.223 . S
O336 C344 1.315 . S
Cd337 O336 2.223 . S
Cd337 O340 2.297 . S
Cd337 O341 2.439 . S
Cd337 O347 2.240 . S
Cd338 O339 2.240 . S
Cd338 O346 2.223 . S
Cd338 O348 2.297 . S
Cd338 O349 2.439 . S
O339 Cd338 2.240 . S
O339 C344 1.279 . S
O340 Cd337 2.297 . S
O340 C342 1.247 . S
O341 Cd337 2.439 . S
O341 C342 1.208 . S
C342 O340 1.247 . S
C342 O341 1.208 . S
C343 O348 1.247 . S
C343 O349 1.208 . S
C344 O336 1.315 . S
C344 O339 1.279 . S
C345 O346 1.315 . S
C345 O347 1.279 . S
O346 Cd338 2.223 . S
O346 C345 1.315 . S
O347 Cd337 2.240 . S
O347 C345 1.279 . S
O348 Cd338 2.297 . S
O348 C343 1.247 . S
O349 Cd338 2.439 . S
O349 C343 1.208 . S
O350 Cd351 2.223 . S
O350 C358 1.315 . S
Cd351 O350 2.223 . S
Cd351 O354 2.297 . S
Cd351 O355 2.439 . S
Cd351 O361 2.240 . S
Cd352 O353 2.240 . S
Cd352 O360 2.223 . S
Cd352 O362 2.297 . S
Cd352 O363 2.439 . S
O353 Cd352 2.240 . S
O353 C358 1.279 . S
O354 Cd351 2.297 . S
O354 C356 1.247 . S
O355 Cd351 2.439 . S
O355 C356 1.208 . S
C356 O354 1.247 . S
C356 O355 1.208 . S
C357 O362 1.247 . S
C357 O363 1.208 . S
C358 O350 1.315 . S
C358 O353 1.279 . S
C359 O360 1.315 . S
C359 O361 1.279 . S
O360 Cd352 2.223 . S
O360 C359 1.315 . S
O361 Cd351 2.240 . S
O361 C359 1.279 . S
O362 Cd352 2.297 . S
O362 C357 1.247 . S
O363 Cd352 2.439 . S
O363 C357 1.208 . S
O364 Cd365 2.223 . S
O364 C372 1.315 . S
Cd365 O364 2.223 . S
Cd365 O368 2.297 . S
Cd365 O369 2.439 . S
Cd365 O375 2.240 . S
Cd366 O367 2.240 . S
Cd366 O374 2.223 . S
Cd366 O376 2.297 1_556 S
Cd366 O377 2.439 1_556 S
O367 Cd366 2.240 . S
O367 C372 1.279 . S
O368 Cd365 2.297 . S
O368 C370 1.247 . S
O369 Cd365 2.439 . S
O369 C370 1.208 . S
C370 O368 1.247 . S
C370 O369 1.208 . S
C371 O376 1.247 . S
C371 O377 1.208 . S
C372 O364 1.315 . S
C372 O367 1.279 . S
C373 O374 1.315 . S
C373 O375 1.279 . S
O374 Cd366 2.223 . S
O374 C373 1.315 . S
O375 Cd365 2.240 . S
O375 C373 1.279 . S
O376 Cd366 2.297 1_554 S
O376 C371 1.247 . S
O377 Cd366 2.439 1_554 S
O377 C371 1.208 . S
O378 Cd379 2.223 . S
O378 C386 1.315 . S
Cd379 O378 2.223 . S
Cd379 O382 2.297 . S
Cd379 O383 2.439 . S
Cd379 O389 2.240 . S
Cd380 O381 2.240 . S
Cd380 O388 2.223 . S
Cd380 O390 2.297 . S
Cd380 O391 2.439 . S
O381 Cd380 2.240 . S
O381 C386 1.279 . S
O382 Cd379 2.297 . S
O382 C384 1.247 . S
O383 Cd379 2.439 . S
O383 C384 1.208 . S
C384 O382 1.247 . S
C384 O383 1.208 . S
C385 O390 1.247 . S
C385 O391 1.208 . S
C386 O378 1.315 . S
C386 O381 1.279 . S
C387 O388 1.315 . S
C387 O389 1.279 . S
O388 Cd380 2.223 . S
O388 C387 1.315 . S
O389 Cd379 2.240 . S
O389 C387 1.279 . S
O390 Cd380 2.297 . S
O390 C385 1.247 . S
O391 Cd380 2.439 . S
O391 C385 1.208 . S
O392 Cd393 2.223 . S
O392 C400 1.315 . S
Cd393 O392 2.223 . S
Cd393 O396 2.297 . S
Cd393 O397 2.439 . S
Cd393 O403 2.240 . S
Cd394 O395 2.240 . S
Cd394 O402 2.223 . S
Cd394 O404 2.297 1_554 S
Cd394 O405 2.439 1_554 S
O395 Cd394 2.240 . S
O395 C400 1.279 . S
O396 Cd393 2.297 . S
O396 C398 1.247 . S
O397 Cd393 2.439 . S
O397 C398 1.208 . S
C398 O396 1.247 . S
C398 O397 1.208 . S
C399 O404 1.247 . S
C399 O405 1.208 . S
C400 O392 1.315 . S
C400 O395 1.279 . S
C401 O402 1.315 . S
C401 O403 1.279 . S
O402 Cd394 2.223 . S
O402 C401 1.315 . S
O403 Cd393 2.240 . S
O403 C401 1.279 . S
O404 Cd394 2.297 1_556 S
O404 C399 1.247 . S
O405 Cd394 2.439 1_556 S
O405 C399 1.208 . S
O406 Cd407 2.223 . S
O406 C414 1.315 . S
Cd407 O406 2.223 . S
Cd407 O410 2.297 . S
Cd407 O411 2.439 . S
Cd407 O417 2.240 . S
Cd408 O409 2.240 . S
Cd408 O416 2.223 . S
Cd408 O418 2.297 . S
Cd408 O419 2.439 . S
O409 Cd408 2.240 . S
O409 C414 1.279 . S
O410 Cd407 2.297 . S
O410 C412 1.247 . S
O411 Cd407 2.439 . S
O411 C412 1.208 . S
C412 O410 1.247 . S
C412 O411 1.208 . S
C413 O418 1.247 . S
C413 O419 1.208 . S
C414 O406 1.315 . S
C414 O409 1.279 . S
C415 O416 1.315 . S
C415 O417 1.279 . S
O416 Cd408 2.223 . S
O416 C415 1.315 . S
O417 Cd407 2.240 . S
O417 C415 1.279 . S
O418 Cd408 2.297 . S
O418 C413 1.247 . S
O419 Cd408 2.439 . S
O419 C413 1.208 . S
O420 Cd421 2.223 . S
O420 C428 1.315 . S
Cd421 O420 2.223 . S
Cd421 O424 2.297 . S
Cd421 O425 2.439 . S
Cd421 O431 2.240 . S
Cd422 O423 2.240 . S
Cd422 O430 2.223 . S
Cd422 O432 2.297 . S
Cd422 O433 2.439 . S
O423 Cd422 2.240 . S
O423 C428 1.279 . S
O424 Cd421 2.297 . S
O424 C426 1.247 . S
O425 Cd421 2.439 . S
O425 C426 1.208 . S
C426 O424 1.247 . S
C426 O425 1.208 . S
C427 O432 1.247 . S
C427 O433 1.208 . S
C428 O420 1.315 . S
C428 O423 1.279 . S
C429 O430 1.315 . S
C429 O431 1.279 . S
O430 Cd422 2.223 . S
O430 C429 1.315 . S
O431 Cd421 2.240 . S
O431 C429 1.279 . S
O432 Cd422 2.297 . S
O432 C427 1.247 . S
O433 Cd422 2.439 . S
O433 C427 1.208 . S
O434 Cd435 2.223 . S
O434 C442 1.315 . S
Cd435 O434 2.223 . S
Cd435 O438 2.297 . S
Cd435 O439 2.439 . S
Cd435 O445 2.240 . S
Cd436 O437 2.240 . S
Cd436 O444 2.223 . S
Cd436 O446 2.297 . S
Cd436 O447 2.439 . S
O437 Cd436 2.240 . S
O437 C442 1.279 . S
O438 Cd435 2.297 . S
O438 C440 1.247 . S
O439 Cd435 2.439 . S
O439 C440 1.208 . S
C440 O438 1.247 . S
C440 O439 1.208 . S
C441 O446 1.247 . S
C441 O447 1.208 . S
C442 O434 1.315 . S
C442 O437 1.279 . S
C443 O444 1.315 . S
C443 O445 1.279 . S
O444 Cd436 2.223 . S
O444 C443 1.315 . S
O445 Cd435 2.240 . S
O445 C443 1.279 . S
O446 Cd436 2.297 . S
O446 C441 1.247 . S
O447 Cd436 2.439 . S
O447 C441 1.208 . S
H448 C456 0.950 . S
H449 C461 0.950 . S
H450 C458 0.950 . S
H451 C460 0.950 . S
H452 C462 0.950 . S
H453 C464 0.950 . S
H454 C466 0.950 . S
H455 C467 0.950 . S
C456 H448 0.950 . S
C456 C457 1.386 . S
C456 C458 1.391 . S
C457 C456 1.386 . S
C457 C461 1.393 1_556 S
C458 H450 0.950 . S
C458 C456 1.391 . S
C458 C459 1.400 . S
C459 C458 1.400 . S
C459 C460 1.398 1_556 S
C459 C465 1.491 1_556 S
C460 H451 0.950 . S
C460 C459 1.398 1_554 S
C460 C461 1.391 . S
C461 H449 0.950 . S
C461 C457 1.393 1_554 S
C461 C460 1.391 . S
C462 H452 0.950 . S
C462 C463 1.386 . S
C462 C464 1.391 . S
C463 C462 1.386 . S
C463 C467 1.393 1_554 S
C464 H453 0.950 . S
C464 C462 1.391 . S
C464 C465 1.400 . S
C465 C459 1.491 1_554 S
C465 C464 1.400 . S
C465 C466 1.398 1_554 S
C466 H454 0.950 . S
C466 C465 1.398 1_556 S
C466 C467 1.391 . S
C467 H455 0.950 . S
C467 C463 1.393 1_556 S
C467 C466 1.391 . S
H468 C476 0.950 . S
H469 C481 0.950 . S
H470 C478 0.950 . S
H471 C480 0.950 . S
H472 C482 0.950 . S
H473 C484 0.950 . S
H474 C486 0.950 . S
H475 C487 0.950 . S
C476 H468 0.950 . S
C476 C477 1.386 . S
C476 C478 1.391 . S
C477 C476 1.386 . S
C477 C481 1.393 . S
C478 H470 0.950 . S
C478 C476 1.391 . S
C478 C479 1.400 . S
C479 C478 1.400 . S
C479 C480 1.398 . S
C479 C485 1.491 1_565 S
C480 H471 0.950 . S
C480 C479 1.398 . S
C480 C481 1.391 . S
C481 H469 0.950 . S
C481 C477 1.393 . S
C481 C480 1.391 . S
C482 H472 0.950 . S
C482 C483 1.386 . S
C482 C484 1.391 . S
C483 C482 1.386 . S
C483 C487 1.393 . S
C484 H473 0.950 . S
C484 C482 1.391 . S
C484 C485 1.400 . S
C485 C479 1.491 1_545 S
C485 C484 1.400 . S
C485 C486 1.398 . S
C486 H474 0.950 . S
C486 C485 1.398 . S
C486 C487 1.391 . S
C487 H475 0.950 . S
C487 C483 1.393 . S
C487 C486 1.391 . S
H488 C496 0.950 . S
H489 C501 0.950 . S
H490 C498 0.950 . S
H491 C500 0.950 . S
H492 C502 0.950 . S
H493 C504 0.950 . S
H494 C506 0.950 . S
H495 C507 0.950 . S
C496 H488 0.950 . S
C496 C497 1.386 . S
C496 C498 1.391 . S
C497 C496 1.386 . S
C497 C501 1.393 . S
C498 H490 0.950 . S
C498 C496 1.391 . S
C498 C499 1.400 . S
C499 C498 1.400 . S
C499 C500 1.398 . S
C499 C505 1.491 . S
C500 H491 0.950 . S
C500 C499 1.398 . S
C500 C501 1.391 . S
C501 H489 0.950 . S
C501 C497 1.393 . S
C501 C500 1.391 . S
C502 H492 0.950 . S
C502 C503 1.386 . S
C502 C504 1.391 . S
C503 C502 1.386 . S
C503 C507 1.393 . S
C504 H493 0.950 . S
C504 C502 1.391 . S
C504 C505 1.400 . S
C505 C499 1.491 . S
C505 C504 1.400 . S
C505 C506 1.398 . S
C506 H494 0.950 . S
C506 C505 1.398 . S
C506 C507 1.391 . S
C507 H495 0.950 . S
C507 C503 1.393 . S
C507 C506 1.391 . S
H508 C516 0.950 . S
H509 C521 0.950 . S
H510 C518 0.950 . S
H511 C520 0.950 . S
H512 C522 0.950 . S
H513 C524 0.950 . S
H514 C526 0.950 . S
H515 C527 0.950 . S
C516 H508 0.950 . S
C516 C517 1.386 . S
C516 C518 1.391 . S
C517 C516 1.386 . S
C517 C521 1.393 . S
C518 H510 0.950 . S
C518 C516 1.391 . S
C518 C519 1.400 . S
C519 C518 1.400 . S
C519 C520 1.398 . S
C519 C525 1.491 1_545 S
C520 H511 0.950 . S
C520 C519 1.398 . S
C520 C521 1.391 . S
C521 H509 0.950 . S
C521 C517 1.393 . S
C521 C520 1.391 . S
C522 H512 0.950 . S
C522 C523 1.386 . S
C522 C524 1.391 . S
C523 C522 1.386 . S
C523 C527 1.393 . S
C524 H513 0.950 . S
C524 C522 1.391 . S
C524 C525 1.400 . S
C525 C519 1.491 1_565 S
C525 C524 1.400 . S
C525 C526 1.398 . S
C526 H514 0.950 . S
C526 C525 1.398 . S
C526 C527 1.391 . S
C527 H515 0.950 . S
C527 C523 1.393 . S
C527 C526 1.391 . S
H528 C536 0.950 . S
H529 C541 0.950 . S
H530 C538 0.950 . S
H531 C540 0.950 . S
H532 C542 0.950 . S
H533 C544 0.950 . S
H534 C546 0.950 . S
H535 C547 0.950 . S
C536 H528 0.950 . S
C536 C537 1.386 . S
C536 C538 1.391 . S
C537 C536 1.386 . S
C537 C541 1.393 1_554 S
C538 H530 0.950 . S
C538 C536 1.391 . S
C538 C539 1.400 . S
C539 C538 1.400 . S
C539 C540 1.398 1_554 S
C539 C545 1.491 1_554 S
C540 H531 0.950 . S
C540 C539 1.398 1_556 S
C540 C541 1.391 . S
C541 H529 0.950 . S
C541 C537 1.393 1_556 S
C541 C540 1.391 . S
C542 H532 0.950 . S
C542 C543 1.386 . S
C542 C544 1.391 . S
C543 C542 1.386 . S
C543 C547 1.393 1_556 S
C544 H533 0.950 . S
C544 C542 1.391 . S
C544 C545 1.400 . S
C545 C539 1.491 1_556 S
C545 C544 1.400 . S
C545 C546 1.398 1_556 S
C546 H534 0.950 . S
C546 C545 1.398 1_554 S
C546 C547 1.391 . S
C547 H535 0.950 . S
C547 C543 1.393 1_554 S
C547 C546 1.391 . S
H548 C556 0.950 . S
H549 C561 0.950 . S
H550 C558 0.950 . S
H551 C560 0.950 . S
H552 C562 0.950 . S
H553 C564 0.950 . S
H554 C566 0.950 . S
H555 C567 0.950 . S
C556 H548 0.950 . S
C556 C557 1.386 . S
C556 C558 1.391 . S
C557 C556 1.386 . S
C557 C561 1.393 . S
C558 H550 0.950 . S
C558 C556 1.391 . S
C558 C559 1.400 . S
C559 C558 1.400 . S
C559 C560 1.398 . S
C559 C565 1.491 1_565 S
C560 H551 0.950 . S
C560 C559 1.398 . S
C560 C561 1.391 . S
C561 H549 0.950 . S
C561 C557 1.393 . S
C561 C560 1.391 . S
C562 H552 0.950 . S
C562 C563 1.386 . S
C562 C564 1.391 . S
C563 C562 1.386 . S
C563 C567 1.393 . S
C564 H553 0.950 . S
C564 C562 1.391 . S
C564 C565 1.400 . S
C565 C559 1.491 1_545 S
C565 C564 1.400 . S
C565 C566 1.398 . S
C566 H554 0.950 . S
C566 C565 1.398 . S
C566 C567 1.391 . S
C567 H555 0.950 . S
C567 C563 1.393 . S
C567 C566 1.391 . S
H568 C576 0.950 . S
H569 C581 0.950 . S
H570 C578 0.950 . S
H571 C580 0.950 . S
H572 C582 0.950 . S
H573 C584 0.950 . S
H574 C586 0.950 . S
H575 C587 0.950 . S
C576 H568 0.950 . S
C576 C577 1.386 . S
C576 C578 1.391 . S
C577 C576 1.386 . S
C577 C581 1.393 . S
C578 H570 0.950 . S
C578 C576 1.391 . S
C578 C579 1.400 . S
C579 C578 1.400 . S
C579 C580 1.398 . S
C579 C585 1.491 . S
C580 H571 0.950 . S
C580 C579 1.398 . S
C580 C581 1.391 . S
C581 H569 0.950 . S
C581 C577 1.393 . S
C581 C580 1.391 . S
C582 H572 0.950 . S
C582 C583 1.386 . S
C582 C584 1.391 . S
C583 C582 1.386 . S
C583 C587 1.393 . S
C584 H573 0.950 . S
C584 C582 1.391 . S
C584 C585 1.400 . S
C585 C579 1.491 . S
C585 C584 1.400 . S
C585 C586 1.398 . S
C586 H574 0.950 . S
C586 C585 1.398 . S
C586 C587 1.391 . S
C587 H575 0.950 . S
C587 C583 1.393 . S
C587 C586 1.391 . S
H588 C596 0.950 . S
H589 C601 0.950 . S
H590 C598 0.950 . S
H591 C600 0.950 . S
H592 C602 0.950 . S
H593 C604 0.950 . S
H594 C606 0.950 . S
H595 C607 0.950 . S
C596 H588 0.950 . S
C596 C597 1.386 . S
C596 C598 1.391 . S
C597 C596 1.386 . S
C597 C601 1.393 . S
C598 H590 0.950 . S
C598 C596 1.391 . S
C598 C599 1.400 . S
C599 C598 1.400 . S
C599 C600 1.398 . S
C599 C605 1.491 1_565 S
C600 H591 0.950 . S
C600 C599 1.398 . S
C600 C601 1.391 . S
C601 H589 0.950 . S
C601 C597 1.393 . S
C601 C600 1.391 . S
C602 H592 0.950 . S
C602 C603 1.386 . S
C602 C604 1.391 . S
C603 C602 1.386 . S
C603 C607 1.393 . S
C604 H593 0.950 . S
C604 C602 1.391 . S
C604 C605 1.400 . S
C605 C599 1.491 1_545 S
C605 C604 1.400 . S
C605 C606 1.398 . S
C606 H594 0.950 . S
C606 C605 1.398 . S
C606 C607 1.391 . S
C607 H595 0.950 . S
C607 C603 1.393 . S
C607 C606 1.391 . S
H608 C616 0.950 . S
H609 C621 0.950 . S
H610 C618 0.950 . S
H611 C620 0.950 . S
H612 C622 0.950 . S
H613 C624 0.950 . S
H614 C626 0.950 . S
H615 C627 0.950 . S
C616 H608 0.950 . S
C616 C617 1.386 . S
C616 C618 1.391 . S
C617 C616 1.386 . S
C617 C621 1.393 . S
C618 H610 0.950 . S
C618 C616 1.391 . S
C618 C619 1.400 . S
C619 C618 1.400 . S
C619 C620 1.398 . S
C619 C625 1.491 . S
C620 H611 0.950 . S
C620 C619 1.398 . S
C620 C621 1.391 . S
C621 H609 0.950 . S
C621 C617 1.393 . S
C621 C620 1.391 . S
C622 H612 0.950 . S
C622 C623 1.386 . S
C622 C624 1.391 . S
C623 C622 1.386 . S
C623 C627 1.393 . S
C624 H613 0.950 . S
C624 C622 1.391 . S
C624 C625 1.400 . S
C625 C619 1.491 . S
C625 C624 1.400 . S
C625 C626 1.398 . S
C626 H614 0.950 . S
C626 C625 1.398 . S
C626 C627 1.391 . S
C627 H615 0.950 . S
C627 C623 1.393 . S
C627 C626 1.391 . S
H628 C636 0.950 . S
H629 C641 0.950 . S
H630 C638 0.950 . S
H631 C640 0.950 . S
H632 C642 0.950 . S
H633 C644 0.950 . S
H634 C646 0.950 . S
H635 C647 0.950 . S
C636 H628 0.950 . S
C636 C637 1.386 . S
C636 C638 1.391 . S
C637 C636 1.386 . S
C637 C641 1.393 . S
C638 H630 0.950 . S
C638 C636 1.391 . S
C638 C639 1.400 . S
C639 C638 1.400 . S
C639 C640 1.398 . S
C639 C645 1.491 . S
C640 H631 0.950 . S
C640 C639 1.398 . S
C640 C641 1.391 . S
C641 H629 0.950 . S
C641 C637 1.393 . S
C641 C640 1.391 . S
C642 H632 0.950 . S
C642 C643 1.386 . S
C642 C644 1.391 . S
C643 C642 1.386 . S
C643 C647 1.393 . S
C644 H633 0.950 . S
C644 C642 1.391 . S
C644 C645 1.400 . S
C645 C639 1.491 . S
C645 C644 1.400 . S
C645 C646 1.398 . S
C646 H634 0.950 . S
C646 C645 1.398 . S
C646 C647 1.391 . S
C647 H635 0.950 . S
C647 C643 1.393 . S
C647 C646 1.391 . S
H648 C656 0.950 . S
H649 C661 0.950 . S
H650 C658 0.950 . S
H651 C660 0.950 . S
H652 C662 0.950 . S
H653 C664 0.950 . S
H654 C666 0.950 . S
H655 C667 0.950 . S
C656 H648 0.950 . S
C656 C657 1.386 1_554 S
C656 C658 1.391 . S
C657 C656 1.386 1_556 S
C657 C661 1.393 . S
C658 H650 0.950 . S
C658 C656 1.391 . S
C658 C659 1.400 1_554 S
C659 C658 1.400 1_556 S
C659 C660 1.398 . S
C659 C665 1.491 1_556 S
C660 H651 0.950 . S
C660 C659 1.398 . S
C660 C661 1.391 . S
C661 H649 0.950 . S
C661 C657 1.393 . S
C661 C660 1.391 . S
C662 H652 0.950 . S
C662 C663 1.386 1_556 S
C662 C664 1.391 . S
C663 C662 1.386 1_554 S
C663 C667 1.393 . S
C664 H653 0.950 . S
C664 C662 1.391 . S
C664 C665 1.400 1_556 S
C665 C659 1.491 1_554 S
C665 C664 1.400 1_554 S
C665 C666 1.398 . S
C666 H654 0.950 . S
C666 C665 1.398 . S
C666 C667 1.391 . S
C667 H655 0.950 . S
C667 C663 1.393 . S
C667 C666 1.391 . S
H668 C676 0.950 . S
H669 C681 0.950 . S
H670 C678 0.950 . S
H671 C680 0.950 . S
H672 C682 0.950 . S
H673 C684 0.950 . S
H674 C686 0.950 . S
H675 C687 0.950 . S
C676 H668 0.950 . S
C676 C677 1.386 . S
C676 C678 1.391 . S
C677 C676 1.386 . S
C677 C681 1.393 . S
C678 H670 0.950 . S
C678 C676 1.391 . S
C678 C679 1.400 . S
C679 C678 1.400 . S
C679 C680 1.398 . S
C679 C685 1.491 . S
C680 H671 0.950 . S
C680 C679 1.398 . S
C680 C681 1.391 . S
C681 H669 0.950 . S
C681 C677 1.393 . S
C681 C680 1.391 . S
C682 H672 0.950 . S
C682 C683 1.386 . S
C682 C684 1.391 . S
C683 C682 1.386 . S
C683 C687 1.393 . S
C684 H673 0.950 . S
C684 C682 1.391 . S
C684 C685 1.400 . S
C685 C679 1.491 . S
C685 C684 1.400 . S
C685 C686 1.398 . S
C686 H674 0.950 . S
C686 C685 1.398 . S
C686 C687 1.391 . S
C687 H675 0.950 . S
C687 C683 1.393 . S
C687 C686 1.391 . S
H688 C696 0.950 . S
H689 C701 0.950 . S
H690 C698 0.950 . S
H691 C700 0.950 . S
H692 C702 0.950 . S
H693 C704 0.950 . S
H694 C706 0.950 . S
H695 C707 0.950 . S
C696 H688 0.950 . S
C696 C697 1.386 . S
C696 C698 1.391 . S
C697 C696 1.386 . S
C697 C701 1.393 . S
C698 H690 0.950 . S
C698 C696 1.391 . S
C698 C699 1.400 . S
C699 C698 1.400 . S
C699 C700 1.398 . S
C699 C705 1.491 . S
C700 H691 0.950 . S
C700 C699 1.398 . S
C700 C701 1.391 . S
C701 H689 0.950 . S
C701 C697 1.393 . S
C701 C700 1.391 . S
C702 H692 0.950 . S
C702 C703 1.386 . S
C702 C704 1.391 . S
C703 C702 1.386 . S
C703 C707 1.393 . S
C704 H693 0.950 . S
C704 C702 1.391 . S
C704 C705 1.400 . S
C705 C699 1.491 . S
C705 C704 1.400 . S
C705 C706 1.398 . S
C706 H694 0.950 . S
C706 C705 1.398 . S
C706 C707 1.391 . S
C707 H695 0.950 . S
C707 C703 1.393 . S
C707 C706 1.391 . S
H708 C716 0.950 . S
H709 C721 0.950 . S
H710 C718 0.950 . S
H711 C720 0.950 . S
H712 C722 0.950 . S
H713 C724 0.950 . S
H714 C726 0.950 . S
H715 C727 0.950 . S
C716 H708 0.950 . S
C716 C717 1.386 . S
C716 C718 1.391 . S
C717 C716 1.386 . S
C717 C721 1.393 . S
C718 H710 0.950 . S
C718 C716 1.391 . S
C718 C719 1.400 . S
C719 C718 1.400 . S
C719 C720 1.398 . S
C719 C725 1.491 . S
C720 H711 0.950 . S
C720 C719 1.398 . S
C720 C721 1.391 . S
C721 H709 0.950 . S
C721 C717 1.393 . S
C721 C720 1.391 . S
C722 H712 0.950 . S
C722 C723 1.386 . S
C722 C724 1.391 . S
C723 C722 1.386 . S
C723 C727 1.393 . S
C724 H713 0.950 . S
C724 C722 1.391 . S
C724 C725 1.400 . S
C725 C719 1.491 . S
C725 C724 1.400 . S
C725 C726 1.398 . S
C726 H714 0.950 . S
C726 C725 1.398 . S
C726 C727 1.391 . S
C727 H715 0.950 . S
C727 C723 1.393 . S
C727 C726 1.391 . S
H728 C736 0.950 . S
H729 C741 0.950 . S
H730 C738 0.950 . S
H731 C740 0.950 . S
H732 C742 0.950 . S
H733 C744 0.950 . S
H734 C746 0.950 . S
H735 C747 0.950 . S
C736 H728 0.950 . S
C736 C737 1.386 1_556 S
C736 C738 1.391 . S
C737 C736 1.386 1_554 S
C737 C741 1.393 . S
C738 H730 0.950 . S
C738 C736 1.391 . S
C738 C739 1.400 1_556 S
C739 C738 1.400 1_554 S
C739 C740 1.398 . S
C739 C745 1.491 1_554 S
C740 H731 0.950 . S
C740 C739 1.398 . S
C740 C741 1.391 . S
C741 H729 0.950 . S
C741 C737 1.393 . S
C741 C740 1.391 . S
C742 H732 0.950 . S
C742 C743 1.386 1_554 S
C742 C744 1.391 . S
C743 C742 1.386 1_556 S
C743 C747 1.393 . S
C744 H733 0.950 . S
C744 C742 1.391 . S
C744 C745 1.400 1_554 S
C745 C739 1.491 1_556 S
C745 C744 1.400 1_556 S
C745 C746 1.398 . S
C746 H734 0.950 . S
C746 C745 1.398 . S
C746 C747 1.391 . S
C747 H735 0.950 . S
C747 C743 1.393 . S
C747 C746 1.391 . S
H748 C756 0.950 . S
H749 C761 0.950 . S
H750 C758 0.950 . S
H751 C760 0.950 . S
H752 C762 0.950 . S
H753 C764 0.950 . S
H754 C766 0.950 . S
H755 C767 0.950 . S
C756 H748 0.950 . S
C756 C757 1.386 . S
C756 C758 1.391 . S
C757 C756 1.386 . S
C757 C761 1.393 . S
C758 H750 0.950 . S
C758 C756 1.391 . S
C758 C759 1.400 . S
C759 C758 1.400 . S
C759 C760 1.398 . S
C759 C765 1.491 . S
C760 H751 0.950 . S
C760 C759 1.398 . S
C760 C761 1.391 . S
C761 H749 0.950 . S
C761 C757 1.393 . S
C761 C760 1.391 . S
C762 H752 0.950 . S
C762 C763 1.386 . S
C762 C764 1.391 . S
C763 C762 1.386 . S
C763 C767 1.393 . S
C764 H753 0.950 . S
C764 C762 1.391 . S
C764 C765 1.400 . S
C765 C759 1.491 . S
C765 C764 1.400 . S
C765 C766 1.398 . S
C766 H754 0.950 . S
C766 C765 1.398 . S
C766 C767 1.391 . S
C767 H755 0.950 . S
C767 C763 1.393 . S
C767 C766 1.391 . S
H768 C776 0.950 . S
H769 C781 0.950 . S
H770 C778 0.950 . S
H771 C780 0.950 . S
H772 C782 0.950 . S
H773 C784 0.950 . S
H774 C786 0.950 . S
H775 C787 0.950 . S
C776 H768 0.950 . S
C776 C777 1.386 . S
C776 C778 1.391 . S
C777 C776 1.386 . S
C777 C781 1.393 . S
C778 H770 0.950 . S
C778 C776 1.391 . S
C778 C779 1.400 . S
C779 C778 1.400 . S
C779 C780 1.398 . S
C779 C785 1.491 . S
C780 H771 0.950 . S
C780 C779 1.398 . S
C780 C781 1.391 . S
C781 H769 0.950 . S
C781 C777 1.393 . S
C781 C780 1.391 . S
C782 H772 0.950 . S
C782 C783 1.386 . S
C782 C784 1.391 . S
C783 C782 1.386 . S
C783 C787 1.393 . S
C784 H773 0.950 . S
C784 C782 1.391 . S
C784 C785 1.400 . S
C785 C779 1.491 . S
C785 C784 1.400 . S
C785 C786 1.398 . S
C786 H774 0.950 . S
C786 C785 1.398 . S
C786 C787 1.391 . S
C787 H775 0.950 . S
C787 C783 1.393 . S
C787 C786 1.391 . S
H788 C796 0.950 . S
H789 C801 0.950 . S
H790 C798 0.950 . S
H791 C800 0.950 . S
H792 C802 0.950 . S
H793 C804 0.950 . S
H794 C806 0.950 . S
H795 C807 0.950 . S
C796 H788 0.950 . S
C796 C797 1.386 . S
C796 C798 1.391 . S
C797 C796 1.386 . S
C797 C801 1.393 . S
C798 H790 0.950 . S
C798 C796 1.391 . S
C798 C799 1.400 . S
C799 C798 1.400 . S
C799 C800 1.398 . S
C799 C805 1.491 1_456 S
C800 H791 0.950 . S
C800 C799 1.398 . S
C800 C801 1.391 . S
C801 H789 0.950 . S
C801 C797 1.393 . S
C801 C800 1.391 . S
C802 H792 0.950 . S
C802 C803 1.386 . S
C802 C804 1.391 . S
C803 C802 1.386 . S
C803 C807 1.393 . S
C804 H793 0.950 . S
C804 C802 1.391 . S
C804 C805 1.400 . S
C805 C799 1.491 1_654 S
C805 C804 1.400 . S
C805 C806 1.398 . S
C806 H794 0.950 . S
C806 C805 1.398 . S
C806 C807 1.391 . S
C807 H795 0.950 . S
C807 C803 1.393 . S
C807 C806 1.391 . S
H808 C816 0.950 . S
H809 C821 0.950 . S
H810 C818 0.950 . S
H811 C820 0.950 . S
H812 C822 0.950 . S
H813 C824 0.950 . S
H814 C826 0.950 . S
H815 C827 0.950 . S
C816 H808 0.950 . S
C816 C817 1.386 . S
C816 C818 1.391 . S
C817 C816 1.386 . S
C817 C821 1.393 . S
C818 H810 0.950 . S
C818 C816 1.391 . S
C818 C819 1.400 . S
C819 C818 1.400 . S
C819 C820 1.398 . S
C819 C825 1.491 . S
C820 H811 0.950 . S
C820 C819 1.398 . S
C820 C821 1.391 . S
C821 H809 0.950 . S
C821 C817 1.393 . S
C821 C820 1.391 . S
C822 H812 0.950 . S
C822 C823 1.386 . S
C822 C824 1.391 . S
C823 C822 1.386 . S
C823 C827 1.393 . S
C824 H813 0.950 . S
C824 C822 1.391 . S
C824 C825 1.400 . S
C825 C819 1.491 . S
C825 C824 1.400 . S
C825 C826 1.398 . S
C826 H814 0.950 . S
C826 C825 1.398 . S
C826 C827 1.391 . S
C827 H815 0.950 . S
C827 C823 1.393 . S
C827 C826 1.391 . S
H828 C836 0.950 . S
H829 C841 0.950 . S
H830 C838 0.950 . S
H831 C840 0.950 . S
H832 C842 0.950 . S
H833 C844 0.950 . S
H834 C846 0.950 . S
H835 C847 0.950 . S
C836 H828 0.950 . S
C836 C837 1.386 . S
C836 C838 1.391 . S
C837 C836 1.386 . S
C837 C841 1.393 . S
C838 H830 0.950 . S
C838 C836 1.391 . S
C838 C839 1.400 . S
C839 C838 1.400 . S
C839 C840 1.398 . S
C839 C845 1.491 . S
C840 H831 0.950 . S
C840 C839 1.398 . S
C840 C841 1.391 . S
C841 H829 0.950 . S
C841 C837 1.393 . S
C841 C840 1.391 . S
C842 H832 0.950 . S
C842 C843 1.386 . S
C842 C844 1.391 . S
C843 C842 1.386 . S
C843 C847 1.393 . S
C844 H833 0.950 . S
C844 C842 1.391 . S
C844 C845 1.400 . S
C845 C839 1.491 . S
C845 C844 1.400 . S
C845 C846 1.398 . S
C846 H834 0.950 . S
C846 C845 1.398 . S
C846 C847 1.391 . S
C847 H835 0.950 . S
C847 C843 1.393 . S
C847 C846 1.391 . S
H848 C856 0.950 . S
H849 C861 0.950 . S
H850 C858 0.950 . S
H851 C860 0.950 . S
H852 C862 0.950 . S
H853 C864 0.950 . S
H854 C866 0.950 . S
H855 C867 0.950 . S
C856 H848 0.950 . S
C856 C857 1.386 . S
C856 C858 1.391 . S
C857 C856 1.386 . S
C857 C861 1.393 . S
C858 H850 0.950 . S
C858 C856 1.391 . S
C858 C859 1.400 . S
C859 C858 1.400 . S
C859 C860 1.398 . S
C859 C865 1.491 . S
C860 H851 0.950 . S
C860 C859 1.398 . S
C860 C861 1.391 . S
C861 H849 0.950 . S
C861 C857 1.393 . S
C861 C860 1.391 . S
C862 H852 0.950 . S
C862 C863 1.386 . S
C862 C864 1.391 . S
C863 C862 1.386 . S
C863 C867 1.393 . S
C864 H853 0.950 . S
C864 C862 1.391 . S
C864 C865 1.400 . S
C865 C859 1.491 . S
C865 C864 1.400 . S
C865 C866 1.398 . S
C866 H854 0.950 . S
C866 C865 1.398 . S
C866 C867 1.391 . S
C867 H855 0.950 . S
C867 C863 1.393 . S
C867 C866 1.391 . S
H868 C876 0.950 . S
H869 C881 0.950 . S
H870 C878 0.950 . S
H871 C880 0.950 . S
H872 C882 0.950 . S
H873 C884 0.950 . S
H874 C886 0.950 . S
H875 C887 0.950 . S
C876 H868 0.950 . S
C876 C877 1.386 . S
C876 C878 1.391 . S
C877 C876 1.386 . S
C877 C881 1.393 . S
C878 H870 0.950 . S
C878 C876 1.391 . S
C878 C879 1.400 . S
C879 C878 1.400 . S
C879 C880 1.398 . S
C879 C885 1.491 1_554 S
C880 H871 0.950 . S
C880 C879 1.398 . S
C880 C881 1.391 . S
C881 H869 0.950 . S
C881 C877 1.393 . S
C881 C880 1.391 . S
C882 H872 0.950 . S
C882 C883 1.386 . S
C882 C884 1.391 . S
C883 C882 1.386 . S
C883 C887 1.393 . S
C884 H873 0.950 . S
C884 C882 1.391 . S
C884 C885 1.400 . S
C885 C879 1.491 1_556 S
C885 C884 1.400 . S
C885 C886 1.398 . S
C886 H874 0.950 . S
C886 C885 1.398 . S
C886 C887 1.391 . S
C887 H875 0.950 . S
C887 C883 1.393 . S
C887 C886 1.391 . S
H888 C896 0.950 . S
H889 C901 0.950 . S
H890 C898 0.950 . S
H891 C900 0.950 . S
H892 C902 0.950 . S
H893 C904 0.950 . S
H894 C906 0.950 . S
H895 C907 0.950 . S
C896 H888 0.950 . S
C896 C897 1.386 . S
C896 C898 1.391 . S
C897 C896 1.386 . S
C897 C901 1.393 . S
C898 H890 0.950 . S
C898 C896 1.391 . S
C898 C899 1.400 . S
C899 C898 1.400 . S
C899 C900 1.398 . S
C899 C905 1.491 . S
C900 H891 0.950 . S
C900 C899 1.398 . S
C900 C901 1.391 . S
C901 H889 0.950 . S
C901 C897 1.393 . S
C901 C900 1.391 . S
C902 H892 0.950 . S
C902 C903 1.386 . S
C902 C904 1.391 . S
C903 C902 1.386 . S
C903 C907 1.393 . S
C904 H893 0.950 . S
C904 C902 1.391 . S
C904 C905 1.400 . S
C905 C899 1.491 . S
C905 C904 1.400 . S
C905 C906 1.398 . S
C906 H894 0.950 . S
C906 C905 1.398 . S
C906 C907 1.391 . S
C907 H895 0.950 . S
C907 C903 1.393 . S
C907 C906 1.391 . S
H908 C916 0.950 . S
H909 C921 0.950 1_655 S
H910 C918 0.950 . S
H911 C920 0.950 . S
H912 C922 0.950 . S
H913 C924 0.950 . S
H914 C926 0.950 . S
H915 C927 0.912 1_455 S
C916 H908 0.950 . S
C916 C917 1.386 . S
C916 C918 1.391 . S
C917 C916 1.386 . S
C917 C921 1.393 . S
C918 H910 0.950 . S
C918 C916 1.391 . S
C918 C919 1.400 . S
C919 C918 1.400 . S
C919 C920 1.398 1_455 S
C919 C925 1.491 1_455 S
C920 H911 0.950 . S
C920 C919 1.398 1_655 S
C920 C921 1.391 1_655 S
C921 H909 0.950 1_455 S
C921 C917 1.393 . S
C921 C920 1.391 1_455 S
C922 H912 0.950 . S
C922 C923 1.386 . S
C922 C924 1.391 . S
C923 C922 1.386 . S
C923 C927 1.464 . S
C924 H913 0.950 . S
C924 C922 1.391 . S
C924 C925 1.400 . S
C925 C919 1.491 1_655 S
C925 C924 1.400 . S
C925 C926 1.398 1_655 S
C926 H914 0.950 . S
C926 C925 1.398 1_455 S
C926 C927 1.362 1_455 S
C927 H915 0.912 1_655 S
C927 C923 1.464 . S
C927 C926 1.362 1_655 S
H928 C936 0.950 . S
H929 C941 0.950 . S
H930 C938 0.950 . S
H931 C940 0.950 . S
H932 C942 0.950 . S
H933 C944 0.950 . S
H934 C946 0.950 . S
H935 C947 0.950 . S
C936 H928 0.950 . S
C936 C937 1.386 . S
C936 C938 1.391 . S
C937 C936 1.386 . S
C937 C941 1.393 . S
C938 H930 0.950 . S
C938 C936 1.391 . S
C938 C939 1.400 . S
C939 C938 1.400 . S
C939 C940 1.398 . S
C939 C945 1.491 . S
C940 H931 0.950 . S
C940 C939 1.398 . S
C940 C941 1.391 . S
C941 H929 0.950 . S
C941 C937 1.393 . S
C941 C940 1.391 . S
C942 H932 0.950 . S
C942 C943 1.386 . S
C942 C944 1.391 . S
C943 C942 1.386 . S
C943 C947 1.393 . S
C944 H933 0.950 . S
C944 C942 1.391 . S
C944 C945 1.400 . S
C945 C939 1.491 . S
C945 C944 1.400 . S
C945 C946 1.398 . S
C946 H934 0.950 . S
C946 C945 1.398 . S
C946 C947 1.391 . S
C947 H935 0.950 . S
C947 C943 1.393 . S
C947 C946 1.391 . S
H948 C956 0.950 . S
H949 C961 0.950 . S
H950 C958 0.950 1_455 S
H951 C960 0.950 . S
H952 C962 0.950 . S
H953 C964 0.917 1_655 S
H954 C966 0.950 . S
H955 C967 0.950 . S
C956 H948 0.950 . S
C956 C957 1.386 . S
C956 C958 1.391 . S
C957 C956 1.386 . S
C957 C961 1.393 . S
C958 H950 0.950 1_655 S
C958 C956 1.391 . S
C958 C959 1.400 . S
C959 C958 1.400 . S
C959 C960 1.398 . S
C959 C965 1.491 1_654 S
C960 H951 0.950 . S
C960 C959 1.398 . S
C960 C961 1.391 . S
C961 H949 0.950 . S
C961 C957 1.393 . S
C961 C960 1.391 . S
C962 H952 0.950 . S
C962 C963 1.386 . S
C962 C964 1.419 . S
C963 C962 1.386 . S
C963 C967 1.393 . S
C964 H953 0.917 1_455 S
C964 C962 1.419 . S
C964 C965 1.409 . S
C965 C959 1.491 1_456 S
C965 C964 1.409 . S
C965 C966 1.398 . S
C966 H954 0.950 . S
C966 C965 1.398 . S
C966 C967 1.391 . S
C967 H955 0.950 . S
C967 C963 1.393 . S
C967 C966 1.391 . S
H968 C976 0.950 . S
H969 C981 0.950 . S
H970 C978 0.950 . S
H971 C980 0.950 . S
H972 C982 0.950 . S
H973 C984 0.950 . S
H974 C986 0.950 . S
H975 C987 0.950 . S
C976 H968 0.950 . S
C976 C977 1.386 . S
C976 C978 1.391 . S
C977 C976 1.386 . S
C977 C981 1.393 . S
C978 H970 0.950 . S
C978 C976 1.391 . S
C978 C979 1.400 . S
C979 C978 1.400 . S
C979 C980 1.398 . S
C979 C985 1.491 . S
C980 H971 0.950 . S
C980 C979 1.398 . S
C980 C981 1.391 . S
C981 H969 0.950 . S
C981 C977 1.393 . S
C981 C980 1.391 . S
C982 H972 0.950 . S
C982 C983 1.386 . S
C982 C984 1.391 . S
C983 C982 1.386 . S
C983 C987 1.393 . S
C984 H973 0.950 . S
C984 C982 1.391 . S
C984 C985 1.400 . S
C985 C979 1.491 . S
C985 C984 1.400 . S
C985 C986 1.398 . S
C986 H974 0.950 . S
C986 C985 1.398 . S
C986 C987 1.391 . S
C987 H975 0.950 . S
C987 C983 1.393 . S
C987 C986 1.391 . S
H988 C996 0.950 . S
H989 C1001 0.950 . S
H990 C998 0.950 . S
H991 C1000 0.950 . S
H992 C1002 0.950 . S
H993 C1004 0.950 . S
H994 C1006 0.950 . S
H995 C1007 0.950 . S
C996 H988 0.950 . S
C996 C997 1.386 . S
C996 C998 1.391 . S
C997 C996 1.386 . S
C997 C1001 1.393 . S
C998 H990 0.950 . S
C998 C996 1.391 . S
C998 C999 1.400 . S
C999 C998 1.400 . S
C999 C1000 1.398 . S
C999 C1005 1.491 . S
C1000 H991 0.950 . S
C1000 C999 1.398 . S
C1000 C1001 1.391 . S
C1001 H989 0.950 . S
C1001 C997 1.393 . S
C1001 C1000 1.391 . S
C1002 H992 0.950 . S
C1002 C1003 1.386 . S
C1002 C1004 1.391 . S
C1003 C1002 1.386 . S
C1003 C1007 1.393 . S
C1004 H993 0.950 . S
C1004 C1002 1.391 . S
C1004 C1005 1.400 . S
C1005 C999 1.491 . S
C1005 C1004 1.400 . S
C1005 C1006 1.398 . S
C1006 H994 0.950 . S
C1006 C1005 1.398 . S
C1006 C1007 1.391 . S
C1007 H995 0.950 . S
C1007 C1003 1.393 . S
C1007 C1006 1.391 . S
H1008 C1016 0.950 . S
H1009 C1021 0.950 . S
H1010 C1018 0.950 . S
H1011 C1020 0.950 . S
H1012 C1022 0.950 . S
H1013 C1024 0.950 . S
H1014 C1026 0.950 . S
H1015 C1027 0.950 . S
C1016 H1008 0.950 . S
C1016 C1017 1.386 . S
C1016 C1018 1.391 . S
C1017 C1016 1.386 . S
C1017 C1021 1.393 . S
C1018 H1010 0.950 . S
C1018 C1016 1.391 . S
C1018 C1019 1.400 . S
C1019 C1018 1.400 . S
C1019 C1020 1.398 . S
C1019 C1025 1.491 . S
C1020 H1011 0.950 . S
C1020 C1019 1.398 . S
C1020 C1021 1.391 . S
C1021 H1009 0.950 . S
C1021 C1017 1.393 . S
C1021 C1020 1.391 . S
C1022 H1012 0.950 . S
C1022 C1023 1.386 . S
C1022 C1024 1.391 . S
C1023 C1022 1.386 . S
C1023 C1027 1.393 . S
C1024 H1013 0.950 . S
C1024 C1022 1.391 . S
C1024 C1025 1.400 . S
C1025 C1019 1.491 . S
C1025 C1024 1.400 . S
C1025 C1026 1.398 . S
C1026 H1014 0.950 . S
C1026 C1025 1.398 . S
C1026 C1027 1.391 . S
C1027 H1015 0.950 . S
C1027 C1023 1.393 . S
C1027 C1026 1.391 . S
H1028 C1036 0.950 . S
H1029 C1041 0.950 . S
H1030 C1038 0.950 . S
H1031 C1040 0.950 . S
H1032 C1042 0.950 . S
H1033 C1044 0.950 1_554 S
H1034 C1046 0.950 . S
H1035 C1047 0.950 . S
C1036 H1028 0.950 . S
C1036 C1037 1.386 . S
C1036 C1038 1.391 . S
C1037 C1036 1.386 . S
C1037 C1041 1.393 . S
C1038 H1030 0.950 . S
C1038 C1036 1.391 . S
C1038 C1039 1.400 . S
C1039 C1038 1.400 . S
C1039 C1040 1.398 . S
C1039 C1045 1.491 1_554 S
C1040 H1031 0.950 . S
C1040 C1039 1.398 . S
C1040 C1041 1.391 . S
C1041 H1029 0.950 . S
C1041 C1037 1.393 . S
C1041 C1040 1.391 . S
C1042 H1032 0.950 . S
C1042 C1043 1.386 . S
C1042 C1044 1.391 . S
C1043 C1042 1.386 . S
C1043 C1047 1.393 . S
C1044 H1033 0.950 1_556 S
C1044 C1042 1.391 . S
C1044 C1045 1.400 . S
C1045 C1039 1.491 1_556 S
C1045 C1044 1.400 . S
C1045 C1046 1.398 . S
C1046 H1034 0.950 . S
C1046 C1045 1.398 . S
C1046 C1047 1.391 . S
C1047 H1035 0.950 . S
C1047 C1043 1.393 . S
C1047 C1046 1.391 . S
H1048 C1056 0.950 . S
H1049 C1061 0.950 . S
H1050 C1058 0.950 . S
H1051 C1060 0.950 . S
H1052 C1062 0.950 . S
H1053 C1064 0.950 . S
H1054 C1066 0.950 . S
H1055 C1067 0.950 . S
C1056 H1048 0.950 . S
C1056 C1057 1.386 . S
C1056 C1058 1.391 . S
C1057 C1056 1.386 . S
C1057 C1061 1.393 . S
C1058 H1050 0.950 . S
C1058 C1056 1.391 . S
C1058 C1059 1.400 . S
C1059 C1058 1.400 . S
C1059 C1060 1.398 . S
C1059 C1065 1.491 . S
C1060 H1051 0.950 . S
C1060 C1059 1.398 . S
C1060 C1061 1.391 . S
C1061 H1049 0.950 . S
C1061 C1057 1.393 . S
C1061 C1060 1.391 . S
C1062 H1052 0.950 . S
C1062 C1063 1.386 . S
C1062 C1064 1.391 . S
C1063 C1062 1.386 . S
C1063 C1067 1.393 . S
C1064 H1053 0.950 . S
C1064 C1062 1.391 . S
C1064 C1065 1.400 . S
C1065 C1059 1.491 . S
C1065 C1064 1.400 . S
C1065 C1066 1.398 . S
C1066 H1054 0.950 . S
C1066 C1065 1.398 . S
C1066 C1067 1.391 . S
C1067 H1055 0.950 . S
C1067 C1063 1.393 . S
C1067 C1066 1.391 . S
H1068 C1076 0.950 . S
H1069 C1081 0.950 . S
H1070 C1078 0.950 . S
H1071 C1080 0.950 . S
H1072 C1082 0.940 1_655 S
H1073 C1084 0.950 . S
H1074 C1086 0.950 . S
H1075 C1087 0.950 . S
C1076 H1068 0.950 . S
C1076 C1077 1.386 . S
C1076 C1078 1.391 1_655 S
C1077 C1076 1.386 . S
C1077 C1081 1.393 . S
C1078 H1070 0.950 . S
C1078 C1076 1.391 1_455 S
C1078 C1079 1.400 1_455 S
C1079 C1078 1.400 1_655 S
C1079 C1080 1.398 . S
C1079 C1085 1.491 1_655 S
C1080 H1071 0.950 . S
C1080 C1079 1.398 . S
C1080 C1081 1.391 . S
C1081 H1069 0.950 . S
C1081 C1077 1.393 . S
C1081 C1080 1.391 . S
C1082 H1072 0.940 1_455 S
C1082 C1083 1.386 . S
C1082 C1084 1.391 1_455 S
C1083 C1082 1.386 . S
C1083 C1087 1.393 . S
C1084 H1073 0.950 . S
C1084 C1082 1.391 1_655 S
C1084 C1085 1.400 1_655 S
C1085 C1079 1.491 1_455 S
C1085 C1084 1.400 1_455 S
C1085 C1086 1.398 . S
C1086 H1074 0.950 . S
C1086 C1085 1.398 . S
C1086 C1087 1.391 . S
C1087 H1075 0.950 . S
C1087 C1083 1.393 . S
C1087 C1086 1.391 . S
H1088 C1096 0.950 . S
H1089 C1101 0.950 . S
H1090 C1098 0.950 . S
H1091 C1100 0.950 . S
H1092 C1102 0.950 . S
H1093 C1104 0.950 . S
H1094 C1106 0.950 . S
H1095 C1107 0.950 . S
C1096 H1088 0.950 . S
C1096 C1097 1.386 . S
C1096 C1098 1.391 . S
C1097 C1096 1.386 . S
C1097 C1101 1.393 . S
C1098 H1090 0.950 . S
C1098 C1096 1.391 . S
C1098 C1099 1.400 . S
C1099 C1098 1.400 . S
C1099 C1100 1.398 . S
C1099 C1105 1.491 . S
C1100 H1091 0.950 . S
C1100 C1099 1.398 . S
C1100 C1101 1.391 . S
C1101 H1089 0.950 . S
C1101 C1097 1.393 . S
C1101 C1100 1.391 . S
C1102 H1092 0.950 . S
C1102 C1103 1.386 . S
C1102 C1104 1.391 . S
C1103 C1102 1.386 . S
C1103 C1107 1.393 . S
C1104 H1093 0.950 . S
C1104 C1102 1.391 . S
C1104 C1105 1.400 . S
C1105 C1099 1.491 . S
C1105 C1104 1.400 . S
C1105 C1106 1.398 . S
C1106 H1094 0.950 . S
C1106 C1105 1.398 . S
C1106 C1107 1.391 . S
C1107 H1095 0.950 . S
C1107 C1103 1.393 . S
C1107 C1106 1.391 . S
H1108 C1116 0.950 . S
H1109 C1121 0.950 . S
H1110 C1118 0.950 . S
H1111 C1120 0.950 . S
H1112 C1122 0.950 . S
H1113 C1124 0.950 . S
H1114 C1126 0.950 . S
H1115 C1127 0.950 . S
C1116 H1108 0.950 . S
C1116 C1117 1.386 . S
C1116 C1118 1.391 . S
C1117 C1116 1.386 . S
C1117 C1121 1.393 . S
C1118 H1110 0.950 . S
C1118 C1116 1.391 . S
C1118 C1119 1.400 . S
C1119 C1118 1.400 . S
C1119 C1120 1.398 . S
C1119 C1125 1.491 . S
C1120 H1111 0.950 . S
C1120 C1119 1.398 . S
C1120 C1121 1.391 . S
C1121 H1109 0.950 . S
C1121 C1117 1.393 . S
C1121 C1120 1.391 . S
C1122 H1112 0.950 . S
C1122 C1123 1.386 . S
C1122 C1124 1.391 . S
C1123 C1122 1.386 . S
C1123 C1127 1.393 . S
C1124 H1113 0.950 . S
C1124 C1122 1.391 . S
C1124 C1125 1.400 . S
C1125 C1119 1.491 . S
C1125 C1124 1.400 . S
C1125 C1126 1.398 . S
C1126 H1114 0.950 . S
C1126 C1125 1.398 . S
C1126 C1127 1.391 . S
C1127 H1115 0.950 . S
C1127 C1123 1.393 . S
C1127 C1126 1.391 . S
H1128 C1136 0.950 . S
H1129 C1141 0.950 . S
H1130 C1138 0.950 . S
H1131 C1140 0.950 . S
H1132 C1142 0.950 . S
H1133 C1144 0.950 . S
H1134 C1146 0.950 . S
H1135 C1147 0.950 . S
C1136 H1128 0.950 . S
C1136 C1137 1.386 . S
C1136 C1138 1.391 . S
C1137 C1136 1.386 . S
C1137 C1141 1.393 . S
C1138 H1130 0.950 . S
C1138 C1136 1.391 . S
C1138 C1139 1.400 . S
C1139 C1138 1.400 . S
C1139 C1140 1.398 . S
C1139 C1145 1.491 . S
C1140 H1131 0.950 . S
C1140 C1139 1.398 . S
C1140 C1141 1.391 . S
C1141 H1129 0.950 . S
C1141 C1137 1.393 . S
C1141 C1140 1.391 . S
C1142 H1132 0.950 . S
C1142 C1143 1.386 . S
C1142 C1144 1.391 . S
C1143 C1142 1.386 . S
C1143 C1147 1.393 . S
C1144 H1133 0.950 . S
C1144 C1142 1.391 . S
C1144 C1145 1.400 . S
C1145 C1139 1.491 . S
C1145 C1144 1.400 . S
C1145 C1146 1.398 . S
C1146 H1134 0.950 . S
C1146 C1145 1.398 . S
C1146 C1147 1.391 . S
C1147 H1135 0.950 . S
C1147 C1143 1.393 . S
C1147 C1146 1.391 . S
H1148 C1156 0.948 1_655 S
H1149 C1161 0.950 . S
H1150 C1158 0.950 . S
H1151 C1160 0.950 . S
H1152 C1162 0.950 . S
H1153 C1164 0.950 . S
H1154 C1166 0.950 . S
H1155 C1167 0.950 . S
C1156 H1148 0.948 1_455 S
C1156 C1157 1.386 . S
C1156 C1158 1.391 1_455 S
C1157 C1156 1.386 . S
C1157 C1161 1.393 . S
C1158 H1150 0.950 . S
C1158 C1156 1.391 1_655 S
C1158 C1159 1.400 1_655 S
C1159 C1158 1.400 1_455 S
C1159 C1160 1.398 . S
C1159 C1165 1.491 1_454 S
C1160 H1151 0.950 . S
C1160 C1159 1.398 . S
C1160 C1161 1.391 . S
C1161 H1149 0.950 . S
C1161 C1157 1.393 . S
C1161 C1160 1.391 . S
C1162 H1152 0.950 . S
C1162 C1163 1.386 . S
C1162 C1164 1.391 1_655 S
C1163 C1162 1.386 . S
C1163 C1167 1.393 . S
C1164 H1153 0.950 . S
C1164 C1162 1.391 1_455 S
C1164 C1165 1.400 1_455 S
C1165 C1159 1.491 1_656 S
C1165 C1164 1.400 1_655 S
C1165 C1166 1.398 . S
C1166 H1154 0.950 . S
C1166 C1165 1.398 . S
C1166 C1167 1.391 . S
C1167 H1155 0.950 . S
C1167 C1163 1.393 . S
C1167 C1166 1.391 . S
H1168 C1176 0.950 . S
H1169 C1181 0.950 . S
H1170 C1178 0.950 . S
H1171 C1180 0.950 . S
H1172 C1182 0.950 . S
H1173 C1184 0.950 . S
H1174 C1186 0.950 . S
H1175 C1187 0.950 . S
C1176 H1168 0.950 . S
C1176 C1177 1.386 . S
C1176 C1178 1.391 . S
C1177 C1176 1.386 . S
C1177 C1181 1.393 . S
C1178 H1170 0.950 . S
C1178 C1176 1.391 . S
C1178 C1179 1.400 . S
C1179 C1178 1.400 . S
C1179 C1180 1.398 . S
C1179 C1185 1.491 . S
C1180 H1171 0.950 . S
C1180 C1179 1.398 . S
C1180 C1181 1.391 . S
C1181 H1169 0.950 . S
C1181 C1177 1.393 . S
C1181 C1180 1.391 . S
C1182 H1172 0.950 . S
C1182 C1183 1.386 . S
C1182 C1184 1.391 . S
C1183 C1182 1.386 . S
C1183 C1187 1.393 . S
C1184 H1173 0.950 . S
C1184 C1182 1.391 . S
C1184 C1185 1.400 . S
C1185 C1179 1.491 . S
C1185 C1184 1.400 . S
C1185 C1186 1.398 . S
C1186 H1174 0.950 . S
C1186 C1185 1.398 . S
C1186 C1187 1.391 . S
C1187 H1175 0.950 . S
C1187 C1183 1.393 . S
C1187 C1186 1.391 . S
H1188 C1196 0.950 . S
H1189 C1201 0.950 1_455 S
H1190 C1198 0.950 . S
H1191 C1200 0.950 . S
H1192 C1202 0.950 . S
H1193 C1204 0.950 . S
H1194 C1206 0.950 . S
H1195 C1207 0.975 . S
C1196 H1188 0.950 . S
C1196 C1197 1.386 . S
C1196 C1198 1.391 . S
C1197 C1196 1.386 . S
C1197 C1201 1.393 . S
C1198 H1190 0.950 . S
C1198 C1196 1.391 . S
C1198 C1199 1.400 . S
C1199 C1198 1.400 . S
C1199 C1200 1.398 1_655 S
C1199 C1205 1.491 1_655 S
C1200 H1191 0.950 . S
C1200 C1199 1.398 1_455 S
C1200 C1201 1.391 1_455 S
C1201 H1189 0.950 1_655 S
C1201 C1197 1.393 . S
C1201 C1200 1.391 1_655 S
C1202 H1192 0.950 . S
C1202 C1203 1.386 . S
C1202 C1204 1.391 . S
C1203 C1202 1.386 . S
C1203 C1207 1.352 1_455 S
C1204 H1193 0.950 . S
C1204 C1202 1.391 . S
C1204 C1205 1.400 . S
C1205 C1199 1.491 1_455 S
C1205 C1204 1.400 . S
C1205 C1206 1.398 1_455 S
C1206 H1194 0.950 . S
C1206 C1205 1.398 1_655 S
C1206 C1207 1.407 . S
C1207 H1195 0.975 . S
C1207 C1203 1.352 1_655 S
C1207 C1206 1.407 . S
H1208 C1216 0.950 . S
H1209 C1221 0.950 . S
H1210 C1218 0.950 . S
H1211 C1220 0.950 . S
H1212 C1222 0.950 . S
H1213 C1224 0.950 . S
H1214 C1226 0.950 . S
H1215 C1227 0.950 . S
C1216 H1208 0.950 . S
C1216 C1217 1.386 . S
C1216 C1218 1.391 . S
C1217 C1216 1.386 . S
C1217 C1221 1.393 . S
C1218 H1210 0.950 . S
C1218 C1216 1.391 . S
C1218 C1219 1.400 . S
C1219 C1218 1.400 . S
C1219 C1220 1.398 . S
C1219 C1225 1.491 . S
C1220 H1211 0.950 . S
C1220 C1219 1.398 . S
C1220 C1221 1.391 . S
C1221 H1209 0.950 . S
C1221 C1217 1.393 . S
C1221 C1220 1.391 . S
C1222 H1212 0.950 . S
C1222 C1223 1.386 . S
C1222 C1224 1.391 . S
C1223 C1222 1.386 . S
C1223 C1227 1.393 . S
C1224 H1213 0.950 . S
C1224 C1222 1.391 . S
C1224 C1225 1.400 . S
C1225 C1219 1.491 . S
C1225 C1224 1.400 . S
C1225 C1226 1.398 . S
C1226 H1214 0.950 . S
C1226 C1225 1.398 . S
C1226 C1227 1.391 . S
C1227 H1215 0.950 . S
C1227 C1223 1.393 . S
C1227 C1226 1.391 . S
H1228 C1236 0.950 . S
H1229 C1241 0.950 . S
H1230 C1238 0.950 1_556 S
H1231 C1240 0.950 . S
H1232 C1242 0.950 . S
H1233 C1244 0.950 . S
H1234 C1246 0.950 . S
H1235 C1247 0.950 . S
C1236 H1228 0.950 . S
C1236 C1237 1.386 . S
C1236 C1238 1.391 . S
C1237 C1236 1.386 . S
C1237 C1241 1.393 . S
C1238 H1230 0.950 1_554 S
C1238 C1236 1.391 . S
C1238 C1239 1.400 . S
C1239 C1238 1.400 . S
C1239 C1240 1.398 . S
C1239 C1245 1.491 1_554 S
C1240 H1231 0.950 . S
C1240 C1239 1.398 . S
C1240 C1241 1.391 . S
C1241 H1229 0.950 . S
C1241 C1237 1.393 . S
C1241 C1240 1.391 . S
C1242 H1232 0.950 . S
C1242 C1243 1.386 . S
C1242 C1244 1.391 . S
C1243 C1242 1.386 . S
C1243 C1247 1.393 . S
C1244 H1233 0.950 . S
C1244 C1242 1.391 . S
C1244 C1245 1.400 . S
C1245 C1239 1.491 1_556 S
C1245 C1244 1.400 . S
C1245 C1246 1.398 . S
C1246 H1234 0.950 . S
C1246 C1245 1.398 . S
C1246 C1247 1.391 . S
C1247 H1235 0.950 . S
C1247 C1243 1.393 . S
C1247 C1246 1.391 . S
H1248 C1256 0.950 . S
H1249 C1261 0.950 . S
H1250 C1258 0.950 . S
H1251 C1260 0.950 . S
H1252 C1262 0.950 . S
H1253 C1264 0.950 . S
H1254 C1266 0.950 . S
H1255 C1267 0.950 . S
C1256 H1248 0.950 . S
C1256 C1257 1.386 . S
C1256 C1258 1.391 . S
C1257 C1256 1.386 . S
C1257 C1261 1.393 . S
C1258 H1250 0.950 . S
C1258 C1256 1.391 . S
C1258 C1259 1.400 . S
C1259 C1258 1.400 . S
C1259 C1260 1.398 . S
C1259 C1265 1.491 . S
C1260 H1251 0.950 . S
C1260 C1259 1.398 . S
C1260 C1261 1.391 . S
C1261 H1249 0.950 . S
C1261 C1257 1.393 . S
C1261 C1260 1.391 . S
C1262 H1252 0.950 . S
C1262 C1263 1.386 . S
C1262 C1264 1.391 . S
C1263 C1262 1.386 . S
C1263 C1267 1.393 . S
C1264 H1253 0.950 . S
C1264 C1262 1.391 . S
C1264 C1265 1.400 . S
C1265 C1259 1.491 . S
C1265 C1264 1.400 . S
C1265 C1266 1.398 . S
C1266 H1254 0.950 . S
C1266 C1265 1.398 . S
C1266 C1267 1.391 . S
C1267 H1255 0.950 . S
C1267 C1263 1.393 . S
C1267 C1266 1.391 . S
H1268 C1276 0.950 . S
H1269 C1281 0.950 . S
H1270 C1278 0.950 . S
H1271 C1280 0.950 . S
H1272 C1282 0.950 . S
H1273 C1284 0.950 . S
H1274 C1286 0.950 . S
H1275 C1287 0.950 . S
C1276 H1268 0.950 . S
C1276 C1277 1.386 . S
C1276 C1278 1.391 . S
C1277 C1276 1.386 . S
C1277 C1281 1.393 . S
C1278 H1270 0.950 . S
C1278 C1276 1.391 . S
C1278 C1279 1.400 . S
C1279 C1278 1.400 . S
C1279 C1280 1.398 . S
C1279 C1285 1.491 . S
C1280 H1271 0.950 . S
C1280 C1279 1.398 . S
C1280 C1281 1.391 . S
C1281 H1269 0.950 . S
C1281 C1277 1.393 . S
C1281 C1280 1.391 . S
C1282 H1272 0.950 . S
C1282 C1283 1.386 . S
C1282 C1284 1.391 . S
C1283 C1282 1.386 . S
C1283 C1287 1.393 . S
C1284 H1273 0.950 . S
C1284 C1282 1.391 . S
C1284 C1285 1.400 . S
C1285 C1279 1.491 . S
C1285 C1284 1.400 . S
C1285 C1286 1.398 . S
C1286 H1274 0.950 . S
C1286 C1285 1.398 . S
C1286 C1287 1.391 . S
C1287 H1275 0.950 . S
C1287 C1283 1.393 . S
C1287 C1286 1.391 . S
H1288 C1296 0.950 . S
H1289 C1301 0.950 . S
H1290 C1298 0.950 . S
H1291 C1300 0.950 . S
H1292 C1302 0.950 . S
H1293 C1304 0.950 . S
H1294 C1306 0.950 . S
H1295 C1307 0.950 . S
C1296 H1288 0.950 . S
C1296 C1297 1.386 . S
C1296 C1298 1.391 . S
C1297 C1296 1.386 . S
C1297 C1301 1.393 . S
C1298 H1290 0.950 . S
C1298 C1296 1.391 . S
C1298 C1299 1.400 . S
C1299 C1298 1.400 . S
C1299 C1300 1.398 . S
C1299 C1305 1.491 . S
C1300 H1291 0.950 . S
C1300 C1299 1.398 . S
C1300 C1301 1.391 . S
C1301 H1289 0.950 . S
C1301 C1297 1.393 . S
C1301 C1300 1.391 . S
C1302 H1292 0.950 . S
C1302 C1303 1.386 . S
C1302 C1304 1.391 . S
C1303 C1302 1.386 . S
C1303 C1307 1.393 . S
C1304 H1293 0.950 . S
C1304 C1302 1.391 . S
C1304 C1305 1.400 . S
C1305 C1299 1.491 . S
C1305 C1304 1.400 . S
C1305 C1306 1.398 . S
C1306 H1294 0.950 . S
C1306 C1305 1.398 . S
C1306 C1307 1.391 . S
C1307 H1295 0.950 . S
C1307 C1303 1.393 . S
C1307 C1306 1.391 . S
H1308 C1316 0.950 . S
H1309 C1321 0.950 . S
H1310 C1318 0.950 . S
H1311 C1320 0.950 . S
H1312 C1322 0.950 . S
H1313 C1324 0.950 1_655 S
H1314 C1326 0.950 . S
H1315 C1327 0.950 . S
C1316 H1308 0.950 . S
C1316 C1317 1.386 . S
C1316 C1318 1.391 1_655 S
C1317 C1316 1.386 . S
C1317 C1321 1.393 . S
C1318 H1310 0.950 . S
C1318 C1316 1.391 1_455 S
C1318 C1319 1.400 1_455 S
C1319 C1318 1.400 1_655 S
C1319 C1320 1.398 . S
C1319 C1325 1.491 1_656 S
C1320 H1311 0.950 . S
C1320 C1319 1.398 . S
C1320 C1321 1.391 . S
C1321 H1309 0.950 . S
C1321 C1317 1.393 . S
C1321 C1320 1.391 . S
C1322 H1312 0.950 . S
C1322 C1323 1.386 . S
C1322 C1324 1.391 . S
C1323 C1322 1.386 . S
C1323 C1327 1.393 . S
C1324 H1313 0.950 1_455 S
C1324 C1322 1.391 . S
C1324 C1325 1.400 . S
C1325 C1319 1.491 1_454 S
C1325 C1324 1.400 . S
C1325 C1326 1.398 . S
C1326 H1314 0.950 . S
C1326 C1325 1.398 . S
C1326 C1327 1.391 . S
C1327 H1315 0.950 . S
C1327 C1323 1.393 . S
C1327 C1326 1.391 . S
H1328 C1336 0.950 . S
H1329 C1341 0.950 . S
H1330 C1338 0.950 . S
H1331 C1340 0.950 . S
H1332 C1342 0.950 . S
H1333 C1344 0.950 . S
H1334 C1346 0.950 . S
H1335 C1347 0.950 . S
C1336 H1328 0.950 . S
C1336 C1337 1.386 . S
C1336 C1338 1.391 . S
C1337 C1336 1.386 . S
C1337 C1341 1.393 . S
C1338 H1330 0.950 . S
C1338 C1336 1.391 . S
C1338 C1339 1.400 . S
C1339 C1338 1.400 . S
C1339 C1340 1.398 . S
C1339 C1345 1.491 . S
C1340 H1331 0.950 . S
C1340 C1339 1.398 . S
C1340 C1341 1.391 . S
C1341 H1329 0.950 . S
C1341 C1337 1.393 . S
C1341 C1340 1.391 . S
C1342 H1332 0.950 . S
C1342 C1343 1.386 . S
C1342 C1344 1.391 . S
C1343 C1342 1.386 . S
C1343 C1347 1.393 . S
C1344 H1333 0.950 . S
C1344 C1342 1.391 . S
C1344 C1345 1.400 . S
C1345 C1339 1.491 . S
C1345 C1344 1.400 . S
C1345 C1346 1.398 . S
C1346 H1334 0.950 . S
C1346 C1345 1.398 . S
C1346 C1347 1.391 . S
C1347 H1335 0.950 . S
C1347 C1343 1.393 . S
C1347 C1346 1.391 . S
H1348 C1356 0.950 . S
H1349 C1361 0.973 . S
H1350 C1358 0.950 . S
H1351 C1360 0.950 . S
H1352 C1362 0.950 . S
H1353 C1364 0.950 . S
H1354 C1366 0.950 . S
H1355 C1367 0.950 1_655 S
C1356 H1348 0.950 . S
C1356 C1357 1.386 . S
C1356 C1358 1.391 . S
C1357 C1356 1.386 . S
C1357 C1361 1.355 1_655 S
C1358 H1350 0.950 . S
C1358 C1356 1.391 . S
C1358 C1359 1.400 . S
C1359 C1358 1.400 . S
C1359 C1360 1.398 1_655 S
C1359 C1365 1.491 1_655 S
C1360 H1351 0.950 . S
C1360 C1359 1.398 1_455 S
C1360 C1361 1.406 . S
C1361 H1349 0.973 . S
C1361 C1357 1.355 1_455 S
C1361 C1360 1.406 . S
C1362 H1352 0.950 . S
C1362 C1363 1.386 . S
C1362 C1364 1.391 . S
C1363 C1362 1.386 . S
C1363 C1367 1.393 . S
C1364 H1353 0.950 . S
C1364 C1362 1.391 . S
C1364 C1365 1.400 . S
C1365 C1359 1.491 1_455 S
C1365 C1364 1.400 . S
C1365 C1366 1.398 1_455 S
C1366 H1354 0.950 . S
C1366 C1365 1.398 1_655 S
C1366 C1367 1.391 1_655 S
C1367 H1355 0.950 1_455 S
C1367 C1363 1.393 . S
C1367 C1366 1.391 1_455 S
H1368 C1376 0.950 . S
H1369 C1381 0.950 . S
H1370 C1378 0.950 . S
H1371 C1380 0.950 . S
H1372 C1382 0.950 . S
H1373 C1384 0.950 . S
H1374 C1386 0.950 . S
H1375 C1387 0.950 . S
C1376 H1368 0.950 . S
C1376 C1377 1.386 . S
C1376 C1378 1.391 . S
C1377 C1376 1.386 . S
C1377 C1381 1.393 . S
C1378 H1370 0.950 . S
C1378 C1376 1.391 . S
C1378 C1379 1.400 . S
C1379 C1378 1.400 . S
C1379 C1380 1.398 . S
C1379 C1385 1.491 . S
C1380 H1371 0.950 . S
C1380 C1379 1.398 . S
C1380 C1381 1.391 . S
C1381 H1369 0.950 . S
C1381 C1377 1.393 . S
C1381 C1380 1.391 . S
C1382 H1372 0.950 . S
C1382 C1383 1.386 . S
C1382 C1384 1.391 . S
C1383 C1382 1.386 . S
C1383 C1387 1.393 . S
C1384 H1373 0.950 . S
C1384 C1382 1.391 . S
C1384 C1385 1.400 . S
C1385 C1379 1.491 . S
C1385 C1384 1.400 . S
C1385 C1386 1.398 . S
C1386 H1374 0.950 . S
C1386 C1385 1.398 . S
C1386 C1387 1.391 . S
C1387 H1375 0.950 . S
C1387 C1383 1.393 . S
C1387 C1386 1.391 . S
H1388 C1396 0.950 . S
H1389 C1401 0.950 . S
H1390 C1398 0.950 . S
H1391 C1400 0.950 . S
H1392 C1402 0.950 . S
H1393 C1404 0.950 . S
H1394 C1406 0.950 . S
H1395 C1407 0.950 . S
C1396 H1388 0.950 . S
C1396 C1397 1.386 . S
C1396 C1398 1.391 . S
C1397 C1396 1.386 . S
C1397 C1401 1.393 . S
C1398 H1390 0.950 . S
C1398 C1396 1.391 . S
C1398 C1399 1.400 . S
C1399 C1398 1.400 . S
C1399 C1400 1.398 . S
C1399 C1405 1.491 1_554 S
C1400 H1391 0.950 . S
C1400 C1399 1.398 . S
C1400 C1401 1.391 . S
C1401 H1389 0.950 . S
C1401 C1397 1.393 . S
C1401 C1400 1.391 . S
C1402 H1392 0.950 . S
C1402 C1403 1.386 . S
C1402 C1404 1.391 . S
C1403 C1402 1.386 . S
C1403 C1407 1.393 . S
C1404 H1393 0.950 . S
C1404 C1402 1.391 . S
C1404 C1405 1.400 . S
C1405 C1399 1.491 1_556 S
C1405 C1404 1.400 . S
C1405 C1406 1.398 . S
C1406 H1394 0.950 . S
C1406 C1405 1.398 . S
C1406 C1407 1.391 . S
C1407 H1395 0.950 . S
C1407 C1403 1.393 . S
C1407 C1406 1.391 . S
H1408 C1416 0.950 . S
H1409 C1421 0.950 . S
H1410 C1418 0.950 . S
H1411 C1420 0.950 . S
H1412 C1422 0.950 . S
H1413 C1424 0.950 . S
H1414 C1426 0.950 . S
H1415 C1427 0.950 . S
C1416 H1408 0.950 . S
C1416 C1417 1.386 . S
C1416 C1418 1.391 . S
C1417 C1416 1.386 . S
C1417 C1421 1.393 . S
C1418 H1410 0.950 . S
C1418 C1416 1.391 . S
C1418 C1419 1.400 . S
C1419 C1418 1.400 . S
C1419 C1420 1.398 . S
C1419 C1425 1.491 . S
C1420 H1411 0.950 . S
C1420 C1419 1.398 . S
C1420 C1421 1.391 . S
C1421 H1409 0.950 . S
C1421 C1417 1.393 . S
C1421 C1420 1.391 . S
C1422 H1412 0.950 . S
C1422 C1423 1.386 . S
C1422 C1424 1.391 . S
C1423 C1422 1.386 . S
C1423 C1427 1.393 . S
C1424 H1413 0.950 . S
C1424 C1422 1.391 . S
C1424 C1425 1.400 . S
C1425 C1419 1.491 . S
C1425 C1424 1.400 . S
C1425 C1426 1.398 . S
C1426 H1414 0.950 . S
C1426 C1425 1.398 . S
C1426 C1427 1.391 . S
C1427 H1415 0.950 . S
C1427 C1423 1.393 . S
C1427 C1426 1.391 . S
H1428 C1436 0.950 . S
H1429 C1441 0.950 . S
H1430 C1438 0.950 . S
H1431 C1440 0.950 . S
H1432 C1442 0.950 . S
H1433 C1444 0.950 . S
H1434 C1446 0.950 . S
H1435 C1447 0.950 . S
C1436 H1428 0.950 . S
C1436 C1437 1.386 . S
C1436 C1438 1.391 . S
C1437 C1436 1.386 . S
C1437 C1441 1.393 . S
C1438 H1430 0.950 . S
C1438 C1436 1.391 . S
C1438 C1439 1.400 . S
C1439 C1438 1.400 . S
C1439 C1440 1.398 . S
C1439 C1445 1.491 . S
C1440 H1431 0.950 . S
C1440 C1439 1.398 . S
C1440 C1441 1.391 . S
C1441 H1429 0.950 . S
C1441 C1437 1.393 . S
C1441 C1440 1.391 . S
C1442 H1432 0.950 . S
C1442 C1443 1.386 . S
C1442 C1444 1.391 . S
C1443 C1442 1.386 . S
C1443 C1447 1.393 . S
C1444 H1433 0.950 . S
C1444 C1442 1.391 . S
C1444 C1445 1.400 . S
C1445 C1439 1.491 . S
C1445 C1444 1.400 . S
C1445 C1446 1.398 . S
C1446 H1434 0.950 . S
C1446 C1445 1.398 . S
C1446 C1447 1.391 . S
C1447 H1435 0.950 . S
C1447 C1443 1.393 . S
C1447 C1446 1.391 . S
H1448 C1456 0.950 . S
H1449 C1461 0.950 . S
H1450 C1458 0.950 . S
H1451 C1460 0.950 . S
H1452 C1462 0.950 . S
H1453 C1464 0.950 . S
H1454 C1466 0.950 . S
H1455 C1467 0.950 . S
C1456 H1448 0.950 . S
C1456 C1457 1.386 . S
C1456 C1458 1.391 . S
C1457 C1456 1.386 . S
C1457 C1461 1.393 . S
C1458 H1450 0.950 . S
C1458 C1456 1.391 . S
C1458 C1459 1.400 . S
C1459 C1458 1.400 . S
C1459 C1460 1.398 . S
C1459 C1465 1.491 . S
C1460 H1451 0.950 . S
C1460 C1459 1.398 . S
C1460 C1461 1.391 . S
C1461 H1449 0.950 . S
C1461 C1457 1.393 . S
C1461 C1460 1.391 . S
C1462 H1452 0.950 . S
C1462 C1463 1.386 . S
C1462 C1464 1.391 . S
C1463 C1462 1.386 . S
C1463 C1467 1.393 . S
C1464 H1453 0.950 . S
C1464 C1462 1.391 . S
C1464 C1465 1.400 . S
C1465 C1459 1.491 . S
C1465 C1464 1.400 . S
C1465 C1466 1.398 . S
C1466 H1454 0.950 . S
C1466 C1465 1.398 . S
C1466 C1467 1.391 . S
C1467 H1455 0.950 . S
C1467 C1463 1.393 . S
C1467 C1466 1.391 . S
H1468 C1476 0.950 . S
H1469 C1481 0.950 . S
H1470 C1478 0.950 . S
H1471 C1480 0.950 . S
H1472 C1482 0.950 . S
H1473 C1484 0.950 . S
H1474 C1486 0.950 . S
H1475 C1487 0.950 . S
C1476 H1468 0.950 . S
C1476 C1477 1.386 . S
C1476 C1478 1.391 . S
C1477 C1476 1.386 . S
C1477 C1481 1.393 . S
C1478 H1470 0.950 . S
C1478 C1476 1.391 . S
C1478 C1479 1.400 . S
C1479 C1478 1.400 . S
C1479 C1480 1.398 . S
C1479 C1485 1.491 . S
C1480 H1471 0.950 . S
C1480 C1479 1.398 . S
C1480 C1481 1.391 . S
C1481 H1469 0.950 . S
C1481 C1477 1.393 . S
C1481 C1480 1.391 . S
C1482 H1472 0.950 . S
C1482 C1483 1.386 . S
C1482 C1484 1.391 . S
C1483 C1482 1.386 . S
C1483 C1487 1.393 . S
C1484 H1473 0.950 . S
C1484 C1482 1.391 . S
C1484 C1485 1.400 . S
C1485 C1479 1.491 . S
C1485 C1484 1.400 . S
C1485 C1486 1.398 . S
C1486 H1474 0.950 . S
C1486 C1485 1.398 . S
C1486 C1487 1.391 . S
C1487 H1475 0.950 . S
C1487 C1483 1.393 . S
C1487 C1486 1.391 . S
H1488 C1496 0.950 . S
H1489 C1501 0.950 . S
H1490 C1498 0.950 . S
H1491 C1500 0.950 . S
H1492 C1502 0.950 . S
H1493 C1504 0.950 . S
H1494 C1506 0.950 . S
H1495 C1507 0.950 . S
C1496 H1488 0.950 . S
C1496 C1497 1.386 . S
C1496 C1498 1.391 . S
C1497 C1496 1.386 . S
C1497 C1501 1.393 . S
C1498 H1490 0.950 . S
C1498 C1496 1.391 . S
C1498 C1499 1.400 . S
C1499 C1498 1.400 . S
C1499 C1500 1.398 . S
C1499 C1505 1.491 . S
C1500 H1491 0.950 . S
C1500 C1499 1.398 . S
C1500 C1501 1.391 . S
C1501 H1489 0.950 . S
C1501 C1497 1.393 . S
C1501 C1500 1.391 . S
C1502 H1492 0.950 . S
C1502 C1503 1.386 . S
C1502 C1504 1.391 . S
C1503 C1502 1.386 . S
C1503 C1507 1.393 . S
C1504 H1493 0.950 . S
C1504 C1502 1.391 . S
C1504 C1505 1.400 . S
C1505 C1499 1.491 . S
C1505 C1504 1.400 . S
C1505 C1506 1.398 . S
C1506 H1494 0.950 . S
C1506 C1505 1.398 . S
C1506 C1507 1.391 . S
C1507 H1495 0.950 . S
C1507 C1503 1.393 . S
C1507 C1506 1.391 . S
H1508 C1516 0.950 . S
H1509 C1521 0.950 . S
H1510 C1518 0.950 . S
H1511 C1520 0.950 . S
H1512 C1522 0.950 . S
H1513 C1524 0.950 . S
H1514 C1526 0.950 . S
H1515 C1527 0.950 . S
C1516 H1508 0.950 . S
C1516 C1517 1.386 . S
C1516 C1518 1.391 . S
C1517 C1516 1.386 . S
C1517 C1521 1.393 . S
C1518 H1510 0.950 . S
C1518 C1516 1.391 . S
C1518 C1519 1.400 . S
C1519 C1518 1.400 . S
C1519 C1520 1.398 . S
C1519 C1525 1.491 . S
C1520 H1511 0.950 . S
C1520 C1519 1.398 . S
C1520 C1521 1.391 . S
C1521 H1509 0.950 . S
C1521 C1517 1.393 . S
C1521 C1520 1.391 . S
C1522 H1512 0.950 . S
C1522 C1523 1.386 . S
C1522 C1524 1.391 . S
C1523 C1522 1.386 . S
C1523 C1527 1.393 . S
C1524 H1513 0.950 . S
C1524 C1522 1.391 . S
C1524 C1525 1.400 . S
C1525 C1519 1.491 . S
C1525 C1524 1.400 . S
C1525 C1526 1.398 . S
C1526 H1514 0.950 . S
C1526 C1525 1.398 . S
C1526 C1527 1.391 . S
C1527 H1515 0.950 . S
C1527 C1523 1.393 . S
C1527 C1526 1.391 . S
H1528 C1536 0.950 . S
H1529 C1541 0.950 . S
H1530 C1538 0.950 . S
H1531 C1540 0.950 . S
H1532 C1542 0.950 . S
H1533 C1544 0.950 . S
H1534 C1546 0.950 . S
H1535 C1547 0.950 . S
C1536 H1528 0.950 . S
C1536 C1537 1.386 . S
C1536 C1538 1.391 . S
C1537 C1536 1.386 . S
C1537 C1541 1.393 . S
C1538 H1530 0.950 . S
C1538 C1536 1.391 . S
C1538 C1539 1.400 . S
C1539 C1538 1.400 . S
C1539 C1540 1.398 . S
C1539 C1545 1.491 . S
C1540 H1531 0.950 . S
C1540 C1539 1.398 . S
C1540 C1541 1.391 . S
C1541 H1529 0.950 . S
C1541 C1537 1.393 . S
C1541 C1540 1.391 . S
C1542 H1532 0.950 . S
C1542 C1543 1.386 . S
C1542 C1544 1.391 . S
C1543 C1542 1.386 . S
C1543 C1547 1.393 . S
C1544 H1533 0.950 . S
C1544 C1542 1.391 . S
C1544 C1545 1.400 . S
C1545 C1539 1.491 . S
C1545 C1544 1.400 . S
C1545 C1546 1.398 . S
C1546 H1534 0.950 . S
C1546 C1545 1.398 . S
C1546 C1547 1.391 . S
C1547 H1535 0.950 . S
C1547 C1543 1.393 . S
C1547 C1546 1.391 . S
H1548 C1556 0.950 . S
H1549 C1561 0.950 . S
H1550 C1558 0.950 . S
H1551 C1560 0.950 . S
H1552 C1562 0.950 . S
H1553 C1564 0.950 . S
H1554 C1566 0.950 . S
H1555 C1567 0.950 . S
C1556 H1548 0.950 . S
C1556 C1557 1.386 . S
C1556 C1558 1.391 . S
C1557 C1556 1.386 . S
C1557 C1561 1.393 . S
C1558 H1550 0.950 . S
C1558 C1556 1.391 . S
C1558 C1559 1.400 . S
C1559 C1558 1.400 . S
C1559 C1560 1.398 . S
C1559 C1565 1.491 . S
C1560 H1551 0.950 . S
C1560 C1559 1.398 . S
C1560 C1561 1.391 . S
C1561 H1549 0.950 . S
C1561 C1557 1.393 . S
C1561 C1560 1.391 . S
C1562 H1552 0.950 . S
C1562 C1563 1.386 . S
C1562 C1564 1.391 . S
C1563 C1562 1.386 . S
C1563 C1567 1.393 . S
C1564 H1553 0.950 . S
C1564 C1562 1.391 . S
C1564 C1565 1.400 . S
C1565 C1559 1.491 . S
C1565 C1564 1.400 . S
C1565 C1566 1.398 . S
C1566 H1554 0.950 . S
C1566 C1565 1.398 . S
C1566 C1567 1.391 . S
C1567 H1555 0.950 . S
C1567 C1563 1.393 . S
C1567 C1566 1.391 . S
H1568 C1576 0.950 . S
H1569 C1581 0.950 . S
H1570 C1578 0.950 . S
H1571 C1580 0.950 . S
H1572 C1582 0.950 . S
H1573 C1584 0.950 . S
H1574 C1586 0.950 . S
H1575 C1587 0.950 . S
C1576 H1568 0.950 . S
C1576 C1577 1.386 . S
C1576 C1578 1.391 . S
C1577 C1576 1.386 . S
C1577 C1581 1.393 . S
C1578 H1570 0.950 . S
C1578 C1576 1.391 . S
C1578 C1579 1.400 . S
C1579 C1578 1.400 . S
C1579 C1580 1.398 . S
C1579 C1585 1.491 . S
C1580 H1571 0.950 . S
C1580 C1579 1.398 . S
C1580 C1581 1.391 . S
C1581 H1569 0.950 . S
C1581 C1577 1.393 . S
C1581 C1580 1.391 . S
C1582 H1572 0.950 . S
C1582 C1583 1.386 . S
C1582 C1584 1.391 . S
C1583 C1582 1.386 . S
C1583 C1587 1.393 . S
C1584 H1573 0.950 . S
C1584 C1582 1.391 . S
C1584 C1585 1.400 . S
C1585 C1579 1.491 . S
C1585 C1584 1.400 . S
C1585 C1586 1.398 . S
C1586 H1574 0.950 . S
C1586 C1585 1.398 . S
C1586 C1587 1.391 . S
C1587 H1575 0.950 . S
C1587 C1583 1.393 . S
C1587 C1586 1.391 . S
H1588 C1596 0.950 . S
H1589 C1601 0.950 . S
H1590 C1598 0.950 . S
H1591 C1600 0.950 . S
H1592 C1602 0.950 . S
H1593 C1604 0.950 . S
H1594 C1606 0.950 . S
H1595 C1607 0.950 . S
C1596 H1588 0.950 . S
C1596 C1597 1.386 . S
C1596 C1598 1.391 . S
C1597 C1596 1.386 . S
C1597 C1601 1.393 . S
C1598 H1590 0.950 . S
C1598 C1596 1.391 . S
C1598 C1599 1.400 . S
C1599 C1598 1.400 . S
C1599 C1600 1.398 . S
C1599 C1605 1.491 . S
C1600 H1591 0.950 . S
C1600 C1599 1.398 . S
C1600 C1601 1.391 . S
C1601 H1589 0.950 . S
C1601 C1597 1.393 . S
C1601 C1600 1.391 . S
C1602 H1592 0.950 . S
C1602 C1603 1.386 . S
C1602 C1604 1.391 . S
C1603 C1602 1.386 . S
C1603 C1607 1.393 . S
C1604 H1593 0.950 . S
C1604 C1602 1.391 . S
C1604 C1605 1.400 . S
C1605 C1599 1.491 . S
C1605 C1604 1.400 . S
C1605 C1606 1.398 . S
C1606 H1594 0.950 . S
C1606 C1605 1.398 . S
C1606 C1607 1.391 . S
C1607 H1595 0.950 . S
C1607 C1603 1.393 . S
C1607 C1606 1.391 . S
H1608 C1616 0.950 . S
H1609 C1621 0.950 . S
H1610 C1618 0.950 . S
H1611 C1620 0.950 . S
H1612 C1622 0.950 . S
H1613 C1624 0.950 . S
H1614 C1626 0.950 . S
H1615 C1627 0.950 . S
C1616 H1608 0.950 . S
C1616 C1617 1.386 . S
C1616 C1618 1.391 . S
C1617 C1616 1.386 . S
C1617 C1621 1.393 . S
C1618 H1610 0.950 . S
C1618 C1616 1.391 . S
C1618 C1619 1.400 . S
C1619 C1618 1.400 . S
C1619 C1620 1.398 . S
C1619 C1625 1.491 . S
C1620 H1611 0.950 . S
C1620 C1619 1.398 . S
C1620 C1621 1.391 . S
C1621 H1609 0.950 . S
C1621 C1617 1.393 . S
C1621 C1620 1.391 . S
C1622 H1612 0.950 . S
C1622 C1623 1.386 . S
C1622 C1624 1.391 . S
C1623 C1622 1.386 . S
C1623 C1627 1.393 . S
C1624 H1613 0.950 . S
C1624 C1622 1.391 . S
C1624 C1625 1.400 . S
C1625 C1619 1.491 . S
C1625 C1624 1.400 . S
C1625 C1626 1.398 . S
C1626 H1614 0.950 . S
C1626 C1625 1.398 . S
C1626 C1627 1.391 . S
C1627 H1615 0.950 . S
C1627 C1623 1.393 . S
C1627 C1626 1.391 . S
H1628 C1636 0.950 . S
H1629 C1641 0.950 . S
H1630 C1638 0.950 . S
H1631 C1640 0.950 . S
H1632 C1642 0.950 . S
H1633 C1644 0.950 . S
H1634 C1646 0.950 . S
H1635 C1647 0.950 . S
C1636 H1628 0.950 . S
C1636 C1637 1.386 . S
C1636 C1638 1.391 . S
C1637 C1636 1.386 . S
C1637 C1641 1.393 . S
C1638 H1630 0.950 . S
C1638 C1636 1.391 . S
C1638 C1639 1.400 . S
C1639 C1638 1.400 . S
C1639 C1640 1.398 . S
C1639 C1645 1.491 . S
C1640 H1631 0.950 . S
C1640 C1639 1.398 . S
C1640 C1641 1.391 . S
C1641 H1629 0.950 . S
C1641 C1637 1.393 . S
C1641 C1640 1.391 . S
C1642 H1632 0.950 . S
C1642 C1643 1.386 . S
C1642 C1644 1.391 . S
C1643 C1642 1.386 . S
C1643 C1647 1.393 . S
C1644 H1633 0.950 . S
C1644 C1642 1.391 . S
C1644 C1645 1.400 . S
C1645 C1639 1.491 . S
C1645 C1644 1.400 . S
C1645 C1646 1.398 . S
C1646 H1634 0.950 . S
C1646 C1645 1.398 . S
C1646 C1647 1.391 . S
C1647 H1635 0.950 . S
C1647 C1643 1.393 . S
C1647 C1646 1.391 . S
H1648 C1656 0.950 . S
H1649 C1661 0.950 . S
H1650 C1658 0.950 . S
H1651 C1660 0.950 . S
H1652 C1662 0.950 . S
H1653 C1664 0.950 . S
H1654 C1666 0.950 . S
H1655 C1667 0.950 . S
C1656 H1648 0.950 . S
C1656 C1657 1.386 . S
C1656 C1658 1.391 . S
C1657 C1656 1.386 . S
C1657 C1661 1.393 . S
C1658 H1650 0.950 . S
C1658 C1656 1.391 . S
C1658 C1659 1.400 . S
C1659 C1658 1.400 . S
C1659 C1660 1.398 . S
C1659 C1665 1.491 . S
C1660 H1651 0.950 . S
C1660 C1659 1.398 . S
C1660 C1661 1.391 . S
C1661 H1649 0.950 . S
C1661 C1657 1.393 . S
C1661 C1660 1.391 . S
C1662 H1652 0.950 . S
C1662 C1663 1.386 . S
C1662 C1664 1.391 . S
C1663 C1662 1.386 . S
C1663 C1667 1.393 . S
C1664 H1653 0.950 . S
C1664 C1662 1.391 . S
C1664 C1665 1.400 . S
C1665 C1659 1.491 . S
C1665 C1664 1.400 . S
C1665 C1666 1.398 . S
C1666 H1654 0.950 . S
C1666 C1665 1.398 . S
C1666 C1667 1.391 . S
C1667 H1655 0.950 . S
C1667 C1663 1.393 . S
C1667 C1666 1.391 . S
H1668 C1676 0.950 . S
H1669 C1681 0.950 . S
H1670 C1678 0.950 . S
H1671 C1680 0.950 . S
H1672 C1682 0.950 . S
H1673 C1684 0.950 . S
H1674 C1686 0.950 . S
H1675 C1687 0.950 . S
C1676 H1668 0.950 . S
C1676 C1677 1.386 . S
C1676 C1678 1.391 . S
C1677 C1676 1.386 . S
C1677 C1681 1.393 . S
C1678 H1670 0.950 . S
C1678 C1676 1.391 . S
C1678 C1679 1.400 . S
C1679 C1678 1.400 . S
C1679 C1680 1.398 . S
C1679 C1685 1.491 . S
C1680 H1671 0.950 . S
C1680 C1679 1.398 . S
C1680 C1681 1.391 . S
C1681 H1669 0.950 . S
C1681 C1677 1.393 . S
C1681 C1680 1.391 . S
C1682 H1672 0.950 . S
C1682 C1683 1.386 . S
C1682 C1684 1.391 . S
C1683 C1682 1.386 . S
C1683 C1687 1.393 . S
C1684 H1673 0.950 . S
C1684 C1682 1.391 . S
C1684 C1685 1.400 . S
C1685 C1679 1.491 . S
C1685 C1684 1.400 . S
C1685 C1686 1.398 . S
C1686 H1674 0.950 . S
C1686 C1685 1.398 . S
C1686 C1687 1.391 . S
C1687 H1675 0.950 . S
C1687 C1683 1.393 . S
C1687 C1686 1.391 . S
H1688 C1696 0.950 . S
H1689 C1701 0.950 . S
H1690 C1698 0.950 . S
H1691 C1700 0.950 . S
H1692 C1702 0.950 . S
H1693 C1704 0.950 . S
H1694 C1706 0.950 . S
H1695 C1707 0.950 . S
C1696 H1688 0.950 . S
C1696 C1697 1.386 . S
C1696 C1698 1.391 . S
C1697 C1696 1.386 . S
C1697 C1701 1.393 . S
C1698 H1690 0.950 . S
C1698 C1696 1.391 . S
C1698 C1699 1.400 . S
C1699 C1698 1.400 . S
C1699 C1700 1.398 . S
C1699 C1705 1.491 . S
C1700 H1691 0.950 . S
C1700 C1699 1.398 . S
C1700 C1701 1.391 . S
C1701 H1689 0.950 . S
C1701 C1697 1.393 . S
C1701 C1700 1.391 . S
C1702 H1692 0.950 . S
C1702 C1703 1.386 . S
C1702 C1704 1.391 . S
C1703 C1702 1.386 . S
C1703 C1707 1.393 . S
C1704 H1693 0.950 . S
C1704 C1702 1.391 . S
C1704 C1705 1.400 . S
C1705 C1699 1.491 . S
C1705 C1704 1.400 . S
C1705 C1706 1.398 . S
C1706 H1694 0.950 . S
C1706 C1705 1.398 . S
C1706 C1707 1.391 . S
C1707 H1695 0.950 . S
C1707 C1703 1.393 . S
C1707 C1706 1.391 . S
H1708 C1716 0.950 . S
H1709 C1721 0.950 . S
H1710 C1718 0.950 . S
H1711 C1720 0.950 . S
H1712 C1722 0.950 . S
H1713 C1724 0.950 . S
H1714 C1726 0.950 . S
H1715 C1727 0.950 . S
C1716 H1708 0.950 . S
C1716 C1717 1.386 . S
C1716 C1718 1.391 . S
C1717 C1716 1.386 . S
C1717 C1721 1.393 . S
C1718 H1710 0.950 . S
C1718 C1716 1.391 . S
C1718 C1719 1.400 . S
C1719 C1718 1.400 . S
C1719 C1720 1.398 . S
C1719 C1725 1.491 . S
C1720 H1711 0.950 . S
C1720 C1719 1.398 . S
C1720 C1721 1.391 . S
C1721 H1709 0.950 . S
C1721 C1717 1.393 . S
C1721 C1720 1.391 . S
C1722 H1712 0.950 . S
C1722 C1723 1.386 . S
C1722 C1724 1.391 . S
C1723 C1722 1.386 . S
C1723 C1727 1.393 . S
C1724 H1713 0.950 . S
C1724 C1722 1.391 . S
C1724 C1725 1.400 . S
C1725 C1719 1.491 . S
C1725 C1724 1.400 . S
C1725 C1726 1.398 . S
C1726 H1714 0.950 . S
C1726 C1725 1.398 . S
C1726 C1727 1.391 . S
C1727 H1715 0.950 . S
C1727 C1723 1.393 . S
C1727 C1726 1.391 . S
C457 C93 1.517 . S
C463 C9 1.527 . S
C477 C23 1.518 . S
C483 C107 1.525 . S
C497 C65 1.519 . S
C503 C37 1.534 . S
C517 C51 1.537 . S
C523 C79 1.527 . S
C537 C205 1.538 . S
C543 C121 1.528 . S
C557 C219 1.518 . S
C563 C135 1.525 . S
C577 C149 1.532 . S
C583 C177 1.537 . S
C597 C163 1.531 . S
C603 C191 1.537 . S
C617 C233 1.519 . S
C623 C317 1.522 . S
C637 C247 1.535 . S
C643 C331 1.520 . S
C657 C289 1.531 . S
C663 C261 1.518 . S
C677 C303 1.520 . S
C683 C275 1.520 . S
C697 C345 1.518 . S
C703 C429 1.525 . S
C717 C443 1.537 . S
C723 C359 1.527 . S
C737 C401 1.522 . S
C743 C373 1.536 . S
C757 C387 1.535 . S
C763 C415 1.534 . S
C777 C7 1.277 . S
C783 C428 1.316 . S
C797 C218 1.321 . S
C803 C21 1.279 . S
C817 C35 1.285 . S
C823 C400 1.322 . S
C837 C49 1.300 . S
C843 C190 1.301 . S
C857 C372 1.319 . S
C863 C63 1.294 . S
C877 C162 1.322 . S
C883 C77 1.283 . S
C897 C91 1.301 . S
C903 C344 1.314 . S
C917 C134 1.311 . S
C923 C105 1.303 . S
C937 C119 1.284 . S
C943 C316 1.322 . S
C957 C106 1.303 . S
C963 C133 1.305 . S
C977 C147 1.279 . S
C983 C288 1.321 . S
C997 C161 1.285 . S
C1003 C78 1.322 . S
C1017 C260 1.320 . S
C1023 C175 1.278 . S
C1037 C189 1.288 . S
C1043 C50 1.321 . S
C1057 C203 1.304 . S
C1063 C232 1.311 . S
C1077 C22 1.321 . S
C1083 C217 1.290 . S
C1097 C231 1.302 . S
C1103 C204 1.301 . S
C1117 C245 1.304 . S
C1123 C442 1.301 . S
C1137 C176 1.320 . S
C1143 C259 1.278 . S
C1157 C273 1.306 . S
C1163 C414 1.306 . S
C1177 C148 1.322 . S
C1183 C287 1.286 . S
C1197 C386 1.316 . S
C1203 C301 1.298 . S
C1217 C120 1.319 . S
C1223 C315 1.278 . S
C1237 C358 1.317 . S
C1243 C329 1.297 . S
C1257 C343 1.278 . S
C1263 C92 1.319 . S
C1277 C330 1.301 . S
C1283 C357 1.298 . S
C1297 C64 1.312 . S
C1303 C371 1.279 . S
C1317 C385 1.277 . S
C1323 C302 1.317 . S
C1337 C399 1.280 . S
C1343 C36 1.311 . S
C1357 C413 1.297 . S
C1363 C274 1.317 . S
C1377 C8 1.322 . S
C1383 C427 1.281 . S
C1397 C441 1.278 . S
C1403 C246 1.320 . S
C1417 C6 1.480 . S
C1423 C300 1.486 . S
C1437 C314 1.482 . S
C1443 C20 1.484 . S
C1457 C34 1.479 . S
C1463 C328 1.491 . S
C1477 C286 1.501 . S
C1483 C48 1.497 . S
C1497 C272 1.484 . S
C1503 C62 1.482 . S
C1517 C230 1.481 . S
C1523 C76 1.484 . S
C1537 C244 1.480 . S
C1543 C90 1.488 . S
C1557 C258 1.480 . S
C1563 C104 1.486 . S
C1577 C118 1.488 . S
C1583 C412 1.479 . S
C1597 C426 1.490 . S
C1603 C132 1.479 . S
C1617 C440 1.485 . S
C1623 C146 1.480 . S
C1637 C398 1.500 . S
C1643 C160 1.483 . S
C1657 C384 1.489 . S
C1663 C174 1.479 . S
C1677 C342 1.487 . S
C1683 C188 1.502 . S
C1697 C202 1.502 . S
C1703 C356 1.494 . S
C1717 C216 1.485 . S
C1723 C370 1.501 . S
