# Generated by pormake.
# Topology ilc, (8)-cn, num edge types: 1
# Building blocks:
#     Node 0, Type 0, BuildingBlock: TAGTUT_clean_sbu_3, # of connection points: 8
#     Node 1, Type 0, BuildingBlock: TAGTUT_clean_sbu_3, # of connection points: 8
#     Node 2, Type 0, BuildingBlock: TAGTUT_clean_sbu_3, # of connection points: 8
#     Edge 3, Type (0, 0), BuildingBlock: MIFKUJ_clean_linker_0, # of connection points: 2
#     Edge 4, Type (0, 0), BuildingBlock: MIFKUJ_clean_linker_0, # of connection points: 2
#     Edge 5, Type (0, 0), BuildingBlock: MIFKUJ_clean_linker_0, # of connection points: 2
#     Edge 6, Type (0, 0), BuildingBlock: MIFKUJ_clean_linker_0, # of connection points: 2
#     Edge 7, Type (0, 0), BuildingBlock: MIFKUJ_clean_linker_0, # of connection points: 2
#     Edge 8, Type (0, 0), BuildingBlock: MIFKUJ_clean_linker_0, # of connection points: 2
#     Edge 9, Type (0, 0), BuildingBlock: MIFKUJ_clean_linker_0, # of connection points: 2
#     Edge 10, Type (0, 0), BuildingBlock: MIFKUJ_clean_linker_0, # of connection points: 2
#     Edge 11, Type (0, 0), BuildingBlock: MIFKUJ_clean_linker_0, # of connection points: 2
#     Edge 12, Type (0, 0), BuildingBlock: MIFKUJ_clean_linker_0, # of connection points: 2
#     Edge 13, Type (0, 0), BuildingBlock: MIFKUJ_clean_linker_0, # of connection points: 2
#     Edge 14, Type (0, 0), BuildingBlock: MIFKUJ_clean_linker_0, # of connection points: 2
# Relax obj value: 0.177
# Max RMSD: 0.149
# Mean RMSD: 0.149
data_MOF--net-ilc--node1-TAGTUT_clean_sbu_3--edge1-MIFKUJ_clean_linker_0
_symmetry_space_group_name_H-M    P1
_symmetry_Int_Tables_number       1
_symmetry_cell_setting            triclinic
loop_
_symmetry_equiv_pos_as_xyz
'x, y, z'
_cell_length_a     33.852642
_cell_length_b     33.50541
_cell_length_c     17.823315
_cell_angle_alpha  91.487459
_cell_angle_beta   88.657869
_cell_angle_gamma 132.68531
loop_
_atom_site_label
_atom_site_type_symbol
_atom_site_fract_x
_atom_site_fract_y
_atom_site_fract_z
_atom_type_partial_charge
C0 C 0.08574 0.10339 0.06957 0.0
C1 C 0.05517 0.99734 0.23487 0.0
C2 C 0.06272 0.89565 0.09646 0.0
Mg3 Mg 0.03816 0.0975 0.92038 0.0
Mg4 Mg 0.90751 0.96136 0.86344 0.0
O5 O 0.98224 1.01068 0.90159 0.0
Mg6 Mg 0.99857 0.98494 0.98607 0.0
O7 O 0.02207 0.96673 0.06904 0.0
Mg8 Mg 0.10358 0.01823 0.05501 0.0
Mg9 Mg 0.98129 0.90928 0.1414 0.0
C10 C 0.90714 0.86971 0.88882 0.0
O11 O 0.91706 0.94187 0.0534 0.0
O12 O 0.99308 0.03065 0.83452 0.0
O13 O 0.90075 0.87433 0.11703 0.0
O14 O 0.962 0.08795 0.93135 0.0
O15 O 0.93337 0.98709 0.74698 0.0
O16 O 0.88307 1.00323 0.9047 0.0
O17 O 0.08186 0.02302 0.93198 0.0
O18 O 0.10656 0.10034 0.89216 0.0
C19 C 0.11453 0.06822 0.89699 0.0
C20 C 0.98058 0.02961 0.76656 0.0
O21 O 0.95351 0.90233 0.92061 0.0
O22 O 0.07272 1.00478 0.16898 0.0
O23 O 0.87855 0.88172 0.88257 0.0
O24 O 0.09346 0.94107 0.06088 0.0
O25 O 1.00816 0.95249 0.24859 0.0
O26 O 1.01802 0.87597 0.12705 0.0
O27 O 0.03965 0.06954 0.03796 0.0
O28 O 0.11528 0.09276 0.07418 0.0
C29 C 0.91063 0.05361 0.92084 0.0
C30 C 0.88629 0.89882 0.09418 0.0
C31 C 0.76186 0.45444 0.36336 0.0
C32 C 0.73547 0.37939 0.53835 0.0
C33 C 0.75033 0.25696 0.44808 0.0
Mg34 Mg 0.6874 0.41133 0.22316 0.0
Mg35 Mg 0.55533 0.27411 0.25842 0.0
O36 O 0.63455 0.32557 0.23623 0.0
Mg37 Mg 0.66912 0.32337 0.32607 0.0
O38 O 0.70927 0.32726 0.41108 0.0
Mg39 Mg 0.78879 0.37714 0.37748 0.0
Mg40 Mg 0.68054 0.27935 0.49431 0.0
C41 C 0.57137 0.19342 0.28045 0.0
O42 O 0.59641 0.28959 0.40694 0.0
O43 O 0.61843 0.32768 0.16849 0.0
O44 O 0.59933 0.24564 0.49745 0.0
O45 O 0.62078 0.40776 0.26069 0.0
O46 O 0.53339 0.26382 0.14329 0.0
O47 O 0.54072 0.32778 0.29422 0.0
O48 O 0.74425 0.35424 0.26051 0.0
O49 O 0.74974 0.40926 0.1833 0.0
C50 C 0.76643 0.38683 0.20477 0.0
C51 C 0.579 0.30872 0.12448 0.0
O52 O 0.62183 0.2334 0.29272 0.0
O53 O 0.73295 0.37379 0.46644 0.0
O54 O 0.53769 0.19952 0.28479 0.0
O55 O 0.78032 0.30253 0.41303 0.0
O56 O 0.72746 0.34285 0.57624 0.0
O57 O 0.70576 0.23686 0.47837 0.0
O58 O 0.71245 0.41331 0.34653 0.0
O59 O 0.79682 0.45026 0.36543 0.0
C60 C 0.57215 0.37926 0.28267 0.0
C61 C 0.57647 0.25919 0.4653 0.0
C62 C 0.42913 0.7708 0.76787 0.0
C63 C 0.45098 0.68346 0.93742 0.0
C64 C 0.40594 0.56327 0.79052 0.0
Mg65 Mg 0.38688 0.76434 0.60822 0.0
Mg66 Mg 0.26823 0.62655 0.5251 0.0
O67 O 0.32657 0.67583 0.59955 0.0
Mg68 Mg 0.34556 0.65222 0.68438 0.0
O69 O 0.37408 0.64058 0.77025 0.0
Mg70 Mg 0.45276 0.68889 0.75183 0.0
Mg71 Mg 0.34643 0.59699 0.85283 0.0
C72 C 0.25475 0.53525 0.58476 0.0
O73 O 0.26512 0.60972 0.75532 0.0
O74 O 0.35495 0.69395 0.53764 0.0
O75 O 0.26839 0.56956 0.85196 0.0
O76 O 0.30919 0.75247 0.58767 0.0
O77 O 0.32447 0.64996 0.43194 0.0
O78 O 0.24471 0.67263 0.52586 0.0
O79 O 0.42908 0.69041 0.62896 0.0
O80 O 0.45912 0.77129 0.59637 0.0
C81 C 0.46483 0.73726 0.59891 0.0
C82 C 0.36388 0.69155 0.46835 0.0
O83 O 0.30028 0.56638 0.61961 0.0
O84 O 0.47463 0.69696 0.8739 0.0
O85 O 0.22911 0.55024 0.57607 0.0
O86 O 0.44001 0.60868 0.75469 0.0
O87 O 0.3998 0.649 0.94329 0.0
O88 O 0.3643 0.54944 0.82342 0.0
O89 O 0.38498 0.73743 0.7313 0.0
O90 O 0.45978 0.76153 0.77557 0.0
C91 C 0.26424 0.71924 0.5511 0.0
C92 C 0.24424 0.57961 0.81437 0.0
H93 H 0.07703 0.13054 0.80292 0.0
H94 H 0.14387 0.20218 0.71711 0.0
H95 H 0.03202 0.11005 0.53518 0.0
H96 H 0.96582 0.03716 0.62014 0.0
H97 H 0.17231 0.16425 0.60281 0.0
H98 H 0.03166 0.17006 0.46409 0.0
H99 H 0.98888 0.20672 0.48329 0.0
H100 H 0.13221 0.34965 0.58859 0.0
H101 H 0.17537 0.31322 0.5708 0.0
H102 H 1.01209 1.01386 0.34864 0.0
H103 H 0.05828 0.09748 0.42149 0.0
H104 H 0.20415 0.17531 0.29483 0.0
H105 H 0.15862 0.09152 0.22264 0.0
H106 H 0.13846 0.22576 0.38516 0.0
H107 H 0.26756 0.21242 0.39734 0.0
H108 H 0.30862 0.17368 0.38488 0.0
H109 H 0.19042 0.04653 0.53645 0.0
H110 H 0.14667 0.08233 0.54573 0.0
C111 C 0.06615 0.12566 0.74511 0.0
C112 C 1.01659 0.07729 0.71807 0.0
C113 C 0.10425 0.16744 0.69639 0.0
C114 C 0.0927 0.16197 0.62018 0.0
C115 C 0.04142 0.11581 0.59423 0.0
C116 C 1.00375 0.07362 0.64264 0.0
C117 C 0.13647 0.19391 0.56469 0.0
C118 C 0.16687 0.17976 0.55542 0.0
C119 C 0.13282 0.21777 0.50487 0.0
C120 C 0.10677 0.23925 0.51552 0.0
C121 C 0.05399 0.20933 0.49111 0.0
C122 C 0.0296 0.22993 0.50204 0.0
C123 C 0.05798 0.28072 0.53651 0.0
C124 C 0.11042 0.31051 0.56139 0.0
C125 C 0.1347 0.28975 0.55135 0.0
C126 C 0.05413 0.04852 0.33712 0.0
C127 C 0.08252 0.04561 0.2827 0.0
C128 C 0.08013 0.09667 0.37721 0.0
C129 C 0.13476 0.14236 0.3637 0.0
C130 C 0.16229 0.14043 0.30654 0.0
C131 C 0.13634 0.0923 0.26634 0.0
C132 C 0.16364 0.18532 0.42151 0.0
C133 C 0.14763 0.21418 0.43287 0.0
C134 C 0.18112 0.1755 0.48338 0.0
C135 C 0.2043 0.15066 0.47311 0.0
C136 C 0.24959 0.17546 0.4266 0.0
C137 C 0.2733 0.15393 0.41994 0.0
C138 C 0.25228 0.10773 0.45993 0.0
C139 C 0.20673 0.08225 0.50527 0.0
C140 C 0.18235 0.10308 0.51104 0.0
H141 H 0.27138 0.09181 0.45587 0.0
H142 H 0.03925 0.29687 0.54433 0.0
H143 H 0.66124 0.37942 0.48314 0.0
H144 H 0.61152 0.39636 0.55487 0.0
H145 H 0.71927 0.45602 0.74064 0.0
H146 H 0.76669 0.43524 0.67082 0.0
H147 H 0.5709 0.33033 0.69142 0.0
H148 H 0.70218 0.55839 0.82556 0.0
H149 H 0.73431 0.64415 0.77998 0.0
H150 H 0.66809 0.5724 0.56282 0.0
H151 H 0.63028 0.48418 0.60878 0.0
H152 H 0.66843 0.39605 0.0513 0.0
H153 H 0.66963 0.43391 0.93481 0.0
H154 H 0.49791 0.33263 0.9507 0.0
H155 H 0.4963 0.29417 0.06639 0.0
H156 H 0.62679 0.47809 0.86601 0.0
H157 H 0.45326 0.27463 0.79138 0.0
H158 H 0.39204 0.17971 0.83396 0.0
H159 H 0.52717 0.20368 0.90611 0.0
H160 H 0.58902 0.29884 0.86405 0.0
C161 C 0.67523 0.3975 0.53848 0.0
C162 C 0.71669 0.40451 0.5726 0.0
C163 C 0.64727 0.40803 0.57882 0.0
C164 C 0.6619 0.42772 0.65272 0.0
C165 C 0.70786 0.44152 0.68311 0.0
C166 C 0.73452 0.42903 0.64379 0.0
C167 C 0.62171 0.41685 0.70585 0.0
C168 C 0.58149 0.36274 0.72798 0.0
C169 C 0.63371 0.45874 0.75188 0.0
C170 C 0.66286 0.51366 0.72132 0.0
C171 C 0.69373 0.56015 0.76821 0.0
C172 C 0.71293 0.60956 0.74216 0.0
C173 C 0.70365 0.61399 0.66833 0.0
C174 C 0.67536 0.56899 0.62008 0.0
C175 C 0.65465 0.51901 0.64638 0.0
C176 C 0.6313 0.38321 0.03119 0.0
C177 C 0.5822 0.34105 0.06613 0.0
C178 C 0.63198 0.40516 0.96512 0.0
C179 C 0.58365 0.38529 0.93381 0.0
C180 C 0.53545 0.34802 0.97372 0.0
C181 C 0.53468 0.32578 0.03934 0.0
C182 C 0.58323 0.39356 0.85314 0.0
C183 C 0.61506 0.44653 0.82673 0.0
C184 C 0.56191 0.3506 0.80147 0.0
C185 C 0.52545 0.29349 0.82512 0.0
C186 C 0.46975 0.25948 0.81629 0.0
C187 C 0.43501 0.20577 0.84042 0.0
C188 C 0.45572 0.18573 0.87296 0.0
C189 C 0.51121 0.21928 0.88105 0.0
C190 C 0.5461 0.27305 0.85709 0.0
H191 H 0.42879 0.14418 0.89183 0.0
H192 H 0.71807 0.6522 0.64861 0.0
H193 H 0.42356 0.65945 0.08554 0.0
H194 H 0.46731 0.72553 0.18903 0.0
H195 H 0.59553 0.84842 0.04064 0.0
H196 H 0.5532 0.78257 0.93734 0.0
H197 H 0.61962 0.85753 0.20972 0.0
H198 H 0.50385 0.83881 0.02985 0.0
H199 H 0.42221 0.77881 0.95334 0.0
H200 H 0.3239 0.71792 0.1516 0.0
H201 H 0.40465 0.77323 0.23018 0.0
H202 H 0.40262 0.79356 0.47295 0.0
H203 H 0.48455 0.87429 0.4125 0.0
H204 H 0.51825 0.77774 0.32832 0.0
H205 H 0.43606 0.69751 0.38694 0.0
H206 H 0.48215 0.86714 0.26135 0.0
H207 H 0.69252 0.91801 0.26949 0.0
H208 H 0.76938 0.97614 0.35163 0.0
H209 H 0.67893 0.98681 0.50867 0.0
H210 H 0.60038 0.92865 0.42818 0.0
C211 C 0.4621 0.69988 0.07565 0.0
C212 C 0.48403 0.71636 1.00313 0.0
C213 C 0.48724 0.73742 0.13474 0.0
C214 C 0.53367 0.79182 0.12119 0.0
C215 C 0.55949 0.80661 0.05148 0.0
C216 C 0.53484 0.76887 0.99255 0.0
C217 C 0.54639 0.83369 0.17331 0.0
C218 C 0.59018 0.86036 0.22178 0.0
C219 C 0.5095 0.84041 0.18365 0.0
C220 C 0.46082 0.8108 0.13612 0.0
C221 C 0.46494 0.81259 0.0574 0.0
C222 C 0.4187 0.77923 0.01353 0.0
C223 C 0.36793 0.74558 0.04731 0.0
C224 C 0.36326 0.7445 0.12538 0.0
C225 C 0.40934 0.77654 0.1697 0.0
C226 C 0.42825 0.79019 0.44223 0.0
C227 C 0.41278 0.7395 0.4321 0.0
C228 C 0.47554 0.83648 0.40936 0.0
C229 C 0.50825 0.83273 0.36659 0.0
C230 C 0.49448 0.78242 0.36175 0.0
C231 C 0.44668 0.73605 0.39329 0.0
C232 C 0.54405 0.87347 0.30805 0.0
C233 C 0.51346 0.8668 0.249 0.0
C234 C 0.59116 0.88397 0.28937 0.0
C235 C 0.63824 0.9164 0.34169 0.0
C236 C 0.68729 0.93108 0.32164 0.0
C237 C 0.73205 0.96499 0.36821 0.0
C238 C 0.72901 0.9849 0.43559 0.0
C239 C 0.68118 0.97111 0.45653 0.0
C240 C 0.63625 0.93735 0.41018 0.0
H241 H 0.76381 1.01117 0.47148 0.0
H242 H 0.33224 0.71996 0.013 0.0
H243 H 0.16367 0.65762 0.49218 0.0
H244 H 0.13095 0.68797 0.41292 0.0
H245 H 0.27325 0.85464 0.45982 0.0
H246 H 0.30716 0.82451 0.53882 0.0
H247 H 0.17954 0.8375 0.4534 0.0
H248 H 0.2686 0.79836 0.30375 0.0
H249 H 0.28882 0.74461 0.25368 0.0
H250 H 0.12858 0.62477 0.16731 0.0
H251 H 0.10719 0.6774 0.2185 0.0
H252 H 0.16762 0.95119 0.12802 0.0
H253 H 0.20086 0.92038 0.20624 0.0
H254 H 0.04358 0.75913 0.20729 0.0
H255 H 1.00939 0.79003 0.13104 0.0
H256 H 0.14647 0.77484 0.18762 0.0
H257 H 0.05786 0.8146 0.34279 0.0
H258 H 0.03989 0.87021 0.3932 0.0
H259 H 0.20281 0.99077 0.46956 0.0
H260 H 0.22224 0.93701 0.41705 0.0
C261 C 0.18779 0.70087 0.48724 0.0
C262 C 0.23851 0.7385 0.52191 0.0
C263 C 0.16903 0.71815 0.44115 0.0
C264 C 0.20011 0.77359 0.42861 0.0
C265 C 0.24868 0.81156 0.46792 0.0
C266 C 0.26785 0.79424 0.51381 0.0
C267 C 0.18274 0.79127 0.37192 0.0
C268 C 0.17306 0.82436 0.39512 0.0
C269 C 0.17327 0.77348 0.29577 0.0
C270 C 0.18596 0.74143 0.2659 0.0
C271 C 0.23744 0.76021 0.27498 0.0
C272 C 0.2492 0.73001 0.24621 0.0
C273 C 0.20998 0.6812 0.20752 0.0
C274 C 0.15891 0.6625 0.1975 0.0
C275 C 0.14693 0.69248 0.22644 0.0
C276 C 0.14039 0.90866 0.14244 0.0
C277 C 0.08577 0.87299 0.12232 0.0
C278 C 0.15942 0.89127 0.18811 0.0
C279 C 0.12465 0.83754 0.21332 0.0
C280 C 0.07118 0.80074 0.18852 0.0
C281 C 0.05176 0.81841 0.14444 0.0
C282 C 0.14324 0.82088 0.26932 0.0
C283 C 0.15312 0.788 0.2459 0.0
C284 C 0.15315 0.83904 0.34514 0.0
C285 C 0.14183 0.87228 0.37447 0.0
C286 C 0.09019 0.85358 0.36874 0.0
C287 C 0.07967 0.88475 0.39794 0.0
C288 C 0.12029 0.93434 0.43398 0.0
C289 C 0.17146 0.95277 0.44094 0.0
C290 C 0.1823 0.92201 0.41129 0.0
H291 H 0.112 0.95826 0.45691 0.0
H292 H 0.21919 0.65794 0.18513 0.0
H293 H 0.30238 0.49312 0.55847 0.0
H294 H 0.27428 0.42232 0.46603 0.0
H295 H 0.13778 0.40106 0.40876 0.0
H296 H 0.16261 0.46704 0.50359 0.0
H297 H 0.10515 0.31213 0.39619 0.0
H298 H 0.26581 0.47926 0.30187 0.0
H299 H 0.36099 0.56494 0.29836 0.0
H300 H 0.41005 0.47612 0.31259 0.0
H301 H 0.31517 0.38997 0.31742 0.0
H302 H 0.04004 0.14802 0.07346 0.0
H303 H 0.07038 0.22729 0.14787 0.0
H304 H 0.2059 0.25251 0.22499 0.0
H305 H 0.17906 0.17792 0.14638 0.0
H306 H 0.23761 0.34401 0.21739 0.0
H307 H 0.06889 0.17193 0.30433 0.0
H308 H 0.97267 0.09065 0.30716 0.0
H309 H 0.93505 0.18983 0.30369 0.0
H310 H 0.03148 0.27229 0.30009 0.0
C311 C 0.26573 0.47238 0.52737 0.0
C312 C 0.2353 0.48663 0.53878 0.0
C313 C 0.25008 0.43243 0.47324 0.0
C314 C 0.20453 0.40692 0.42772 0.0
C315 C 0.17318 0.41969 0.44184 0.0
C316 C 0.18781 0.45808 0.49674 0.0
C317 C 0.18878 0.36709 0.36545 0.0
C318 C 0.13428 0.31918 0.35746 0.0
C319 C 0.22617 0.37628 0.31271 0.0
C320 C 0.28332 0.42815 0.31089 0.0
C321 C 0.29689 0.47802 0.30496 0.0
C322 C 0.35081 0.52669 0.30262 0.0
C323 C 0.39156 0.526 0.30542 0.0
C324 C 0.37847 0.47663 0.31055 0.0
C325 C 0.32463 0.42787 0.31313 0.0
C326 C 0.07691 0.17128 0.10502 0.0
C327 C 0.10622 0.15543 0.10493 0.0
C328 C 0.09408 0.21643 0.14829 0.0
C329 C 0.13962 0.24522 0.19484 0.0
C330 C 0.17043 0.23125 0.19072 0.0
C331 C 0.15449 0.18775 0.14581 0.0
C332 C 0.15427 0.28751 0.25135 0.0
C333 C 0.20856 0.33638 0.2574 0.0
C334 C 0.11636 0.27921 0.30213 0.0
C335 C 0.05807 0.22888 0.30163 0.0
C336 C 0.04052 0.1769 0.30389 0.0
C337 C 0.98569 0.13036 0.30555 0.0
C338 C 0.94772 0.13502 0.30554 0.0
C339 C 0.96452 0.18626 0.3036 0.0
C340 C 0.01932 0.23295 0.30168 0.0
H341 H 0.90527 0.09893 0.30708 0.0
H342 H 0.43328 0.5637 0.30343 0.0
H343 H 0.47209 0.66928 0.52652 0.0
H344 H 0.54313 0.69524 0.43916 0.0
H345 H 0.63444 0.86401 0.49142 0.0
H346 H 0.56312 0.83861 0.57656 0.0
H347 H 0.57502 0.75016 0.31376 0.0
H348 H 0.77568 0.93812 0.46587 0.0
H349 H 0.80967 0.9674 0.59478 0.0
H350 H 0.69082 0.80246 0.66821 0.0
H351 H 0.65619 0.77199 0.53959 0.0
H352 H 0.86438 0.96115 0.13877 0.0
H353 H 0.79073 0.93336 0.22237 0.0
H354 H 0.72245 0.76859 0.21366 0.0
H355 H 0.79568 0.79573 0.13085 0.0
H356 H 0.77014 0.88031 0.3672 0.0
H357 H 0.57468 0.68626 0.23275 0.0
H358 H 0.54006 0.64387 0.10776 0.0
H359 H 0.6498 0.80083 0.00618 0.0
H360 H 0.68342 0.84448 0.1308 0.0
C361 C 0.50792 0.71188 0.52074 0.0
C362 C 0.51208 0.75183 0.559 0.0
C363 C 0.54824 0.72674 0.47003 0.0
C364 C 0.59412 0.78178 0.45791 0.0
C365 C 0.59947 0.82146 0.49917 0.0
C366 C 0.55877 0.80677 0.54844 0.0
C367 C 0.63503 0.79805 0.39953 0.0
C368 C 0.61763 0.77807 0.32582 0.0
C369 C 0.69087 0.83493 0.41496 0.0
C370 C 0.71191 0.85295 0.4929 0.0
C371 C 0.75621 0.90805 0.5094 0.0
C372 C 0.77585 0.92488 0.58256 0.0
C373 C 0.75205 0.88691 0.63985 0.0
C374 C 0.70884 0.83195 0.62394 0.0
C375 C 0.68903 0.81492 0.55087 0.0
C376 C 0.83266 0.91865 0.15253 0.0
C377 C 0.83571 0.88059 0.12759 0.0
C378 C 0.79097 0.90294 0.20105 0.0
C379 C 0.75099 0.84873 0.22408 0.0
C380 C 0.75242 0.8103 0.19586 0.0
C381 C 0.7943 0.82598 0.14841 0.0
C382 C 0.71003 0.83272 0.28185 0.0
C383 C 0.7275 0.85269 0.35547 0.0
C384 C 0.65415 0.794 0.26705 0.0
C385 C 0.6326 0.76869 0.19145 0.0
C386 C 0.5913 0.71189 0.18389 0.0
C387 C 0.57168 0.68758 0.11301 0.0
C388 C 0.59308 0.71958 0.04897 0.0
C389 C 0.63369 0.77602 0.0558 0.0
C390 C 0.65291 0.80061 0.12666 0.0
H391 H 0.57792 0.70068 0.9941 0.0
H392 H 0.76736 0.90001 0.69644 0.0
H393 H 0.69862 0.15011 0.46318 0.0
H394 H 0.72559 0.11484 0.54532 0.0
H395 H 0.87702 0.27797 0.58472 0.0
H396 H 0.8514 0.31266 0.49885 0.0
H397 H 0.89487 0.21701 0.59588 0.0
H398 H 0.75631 0.2063 0.70276 0.0
H399 H 0.66779 0.1786 0.71283 0.0
H400 H 0.58985 1.01086 0.71273 0.0
H401 H 0.67788 0.03754 0.70122 0.0
H402 H 0.95556 0.15999 0.92584 0.0
H403 H 0.9258 0.1963 0.85312 0.0
H404 H 0.78142 0.03372 0.79261 0.0
H405 H 0.80883 0.99704 0.86853 0.0
H406 H 0.76112 0.0965 0.79519 0.0
H407 H 0.90515 0.11255 0.68444 0.0
H408 H 0.99499 0.14473 0.69846 0.0
H409 H 0.06426 0.30902 0.72075 0.0
H410 H 0.97447 0.27768 0.70632 0.0
C411 C 0.73859 0.17812 0.48684 0.0
C412 C 0.77295 0.23419 0.47405 0.0
C413 C 0.75362 0.15807 0.53524 0.0
C414 C 0.80251 0.19382 0.57437 0.0
C415 C 0.83879 0.2493 0.55634 0.0
C416 C 0.82433 0.26919 0.50634 0.0
C417 C 0.81461 0.17428 0.63689 0.0
C418 C 0.86553 0.19104 0.63956 0.0
C419 C 0.77673 0.14008 0.69471 0.0
C420 C 0.72369 0.12394 0.70027 0.0
C421 C 0.72027 0.1635 0.70415 0.0
C422 C 0.67018 0.14797 0.71018 0.0
C423 C 0.62322 0.093 0.71319 0.0
C424 C 0.62625 0.05342 0.71016 0.0
C425 C 0.67623 0.06873 0.70383 0.0
C426 C 0.91645 0.13179 0.89967 0.0
C427 C 0.88542 0.07538 0.902 0.0
C428 C 0.89981 0.15274 0.85693 0.0
C429 C 0.85256 0.11792 0.81402 0.0
C430 C 0.81858 0.0617 0.82365 0.0
C431 C 0.83449 0.04071 0.86762 0.0
C432 C 0.84096 0.13911 0.75365 0.0
C433 C 0.79016 0.12244 0.75122 0.0
C434 C 0.879 0.17385 0.69662 0.0
C435 C 0.93324 0.19287 0.69546 0.0
C436 C 0.93965 0.1556 0.69152 0.0
C437 C 0.99055 0.17364 0.69955 0.0
C438 C 0.0354 0.22878 0.71068 0.0
C439 C 0.02949 0.26622 0.71261 0.0
C440 C 0.9787 0.24844 0.70398 0.0
H441 H 0.07471 0.2425 0.71728 0.0
H442 H 0.58449 0.08106 0.7181 0.0
H443 H 0.69689 0.47406 0.40598 0.0
H444 H 0.72061 0.54557 0.49306 0.0
H445 H 0.88409 0.61551 0.49751 0.0
H446 H 0.86164 0.54599 0.40988 0.0
H447 H 0.83236 0.59024 0.64334 0.0
H448 H 0.8648 0.68017 0.41286 0.0
H449 H 0.84111 0.69022 0.2896 0.0
H450 H 0.72008 0.68202 0.39343 0.0
H451 H 0.74265 0.67136 0.5171 0.0
H452 H 0.9613 0.83542 0.86188 0.0
H453 H 0.93754 0.76632 0.77004 0.0
H454 H 0.79195 0.72995 0.71924 0.0
H455 H 0.81396 0.79627 0.81131 0.0
H456 H 0.83342 0.73606 0.59628 0.0
H457 H 0.8042 0.64911 0.8302 0.0
H458 H 0.82714 0.63621 0.95146 0.0
H459 H 0.9435 0.63913 0.84246 0.0
H460 H 0.92143 0.65241 0.72022 0.0
C461 C 0.73825 0.50557 0.42367 0.0
C462 C 0.77714 0.50371 0.40081 0.0
C463 C 0.75163 0.54618 0.47409 0.0
C464 C 0.80402 0.58547 0.50275 0.0
C465 C 0.84332 0.58532 0.47694 0.0
C466 C 0.83029 0.5455 0.42614 0.0
C467 C 0.81809 0.62551 0.56206 0.0
C468 C 0.83299 0.62246 0.63313 0.0
C469 C 0.8181 0.66694 0.5489 0.0
C470 C 0.80459 0.67361 0.47434 0.0
C471 C 0.83258 0.67967 0.40938 0.0
C472 C 0.81952 0.68576 0.33936 0.0
C473 C 0.77884 0.68637 0.33357 0.0
C474 C 0.75138 0.68124 0.39788 0.0
C475 C 0.76431 0.67515 0.468 0.0
C476 C 0.92336 0.81137 0.83284 0.0
C477 C 0.88945 0.82142 0.84496 0.0
C478 C 0.90985 0.77191 0.77988 0.0
C479 C 0.86217 0.74163 0.73797 0.0
C480 C 0.82834 0.75145 0.75115 0.0
C481 C 0.84116 0.7898 0.80449 0.0
C482 C 0.84761 0.70098 0.67872 0.0
C483 C 0.83269 0.70387 0.60725 0.0
C484 C 0.84751 0.65928 0.69171 0.0
C485 C 0.86121 0.65203 0.76572 0.0
C486 C 0.83473 0.64716 0.8318 0.0
C487 C 0.84762 0.63977 0.90087 0.0
C488 C 0.88681 0.63692 0.90471 0.0
C489 C 0.91315 0.64138 0.83943 0.0
C490 C 0.90041 0.64878 0.77021 0.0
H491 H 0.89674 0.6312 0.95824 0.0
H492 H 0.76877 0.6911 0.27934 0.0
H493 H 0.55156 0.23964 0.61302 0.0
H494 H 0.46996 0.20617 0.67656 0.0
H495 H 0.40826 0.20626 0.46757 0.0
H496 H 0.49144 0.24112 0.40285 0.0
H497 H 0.3878 0.2435 0.58767 0.0
H498 H 0.36585 0.08943 0.53199 0.0
H499 H 0.39944 0.04318 0.52894 0.0
H500 H 0.40564 0.04917 0.76976 0.0
H501 H 0.37153 0.09483 0.77411 0.0
H502 H 0.12187 0.08077 0.74758 0.0
H503 H 0.19546 0.11012 0.66406 0.0
H504 H 0.27712 0.11458 0.85075 0.0
H505 H 0.202 0.08295 0.93448 0.0
H506 H 0.28503 0.07314 0.73015 0.0
H507 H 0.28077 0.21261 0.771 0.0
H508 H 0.25368 0.26429 0.76053 0.0
H509 H 0.30058 0.29371 0.52876 0.0
H510 H 0.3237 0.23882 0.5361 0.0
C511 C 0.52068 0.23244 0.58015 0.0
C512 C 0.52744 0.24188 0.50242 0.0
C513 C 0.47402 0.21341 0.61681 0.0
C514 C 0.43245 0.20246 0.57662 0.0
C515 C 0.43977 0.21402 0.4995 0.0
C516 C 0.48712 0.23381 0.46259 0.0
C517 C 0.38109 0.17759 0.61559 0.0
C518 C 0.36364 0.2053 0.61697 0.0
C519 C 0.35164 0.12874 0.6556 0.0
C520 C 0.36718 0.09658 0.65338 0.0
C521 C 0.3743 0.08078 0.5843 0.0
C522 C 0.39332 0.05455 0.5823 0.0
C523 C 0.40503 0.04357 0.64904 0.0
C524 C 0.39668 0.05777 0.71801 0.0
C525 C 0.37736 0.08371 0.7203 0.0
C526 C 0.15522 0.08719 0.77047 0.0
C527 C 0.15658 0.07977 0.84733 0.0
C528 C 0.19721 0.10402 0.72258 0.0
C529 C 0.24239 0.11565 0.7509 0.0
C530 C 0.24284 0.10626 0.82749 0.0
C531 C 0.20006 0.08814 0.87535 0.0
C532 C 0.28961 0.13835 0.70161 0.0
C533 C 0.30706 0.11038 0.69892 0.0
C534 C 0.31761 0.18631 0.65794 0.0
C535 C 0.30195 0.21879 0.65382 0.0
C536 C 0.28331 0.22799 0.71706 0.0
C537 C 0.26904 0.25846 0.71182 0.0
C538 C 0.27543 0.2823 0.64417 0.0
C539 C 0.29562 0.27529 0.58141 0.0
C540 C 0.30848 0.24364 0.58599 0.0
H541 H 0.26466 0.3061 0.64032 0.0
H542 H 0.42055 0.02403 0.64717 0.0
H543 H 0.62834 0.48458 0.24739 0.0
H544 H 0.59596 0.5152 0.17238 0.0
H545 H 0.43232 0.36755 0.21882 0.0
H546 H 0.46585 0.33235 0.28411 0.0
H547 H 0.4322 0.37519 0.0904 0.0
H548 H 0.5042 0.52238 0.26122 0.0
H549 H 0.57112 0.59963 0.34553 0.0
H550 H 0.68337 0.68307 0.16192 0.0
H551 H 0.61696 0.60704 0.07666 0.0
H552 H 0.339 0.46058 0.84424 0.0
H553 H 0.36125 0.43056 0.94152 0.0
H554 H 0.53025 0.56538 0.8986 0.0
H555 H 0.50726 0.60001 0.80712 0.0
H556 H 0.52092 0.56406 0.0346 0.0
H557 H 0.4355 0.39351 0.87597 0.0
H558 H 0.36054 0.30696 0.81436 0.0
H559 H 0.25767 0.26397 1.00379 0.0
H560 H 0.33279 0.35004 0.06701 0.0
C561 C 0.58519 0.45851 0.24322 0.0
C562 C 0.54992 0.40481 0.26997 0.0
C563 C 0.56638 0.47699 0.20061 0.0
C564 C 0.51117 0.44424 0.18818 0.0
C565 C 0.47532 0.39362 0.2249 0.0
C566 C 0.49443 0.37363 0.26395 0.0
C567 C 0.49189 0.45848 0.12801 0.0
C568 C 0.45112 0.41667 0.08017 0.0
C569 C 0.51624 0.51241 0.11169 0.0
C570 C 0.55568 0.55889 0.16269 0.0
C571 C 0.54314 0.55731 0.23895 0.0
C572 C 0.58096 0.60099 0.28688 0.0
C573 C 0.63151 0.64633 0.25922 0.0
C574 C 0.64418 0.64824 0.18343 0.0
C575 C 0.60634 0.605 0.13515 0.0
C576 C 0.38113 0.48316 0.85336 0.0
C577 C 0.42117 0.53336 0.81776 0.0
C578 C 0.39406 0.46531 0.90953 0.0
C579 C 0.44783 0.49486 0.92875 0.0
C580 C 0.48826 0.54168 0.88653 0.0
C581 C 0.47516 0.56099 0.83232 0.0
C582 C 0.4619 0.48064 0.99687 0.0
C583 C 0.50188 0.52268 0.046 0.0
C584 C 0.43492 0.42661 0.01708 0.0
C585 C 0.38926 0.37823 0.97532 0.0
C586 C 0.39664 0.36589 0.90369 0.0
C587 C 0.35408 0.31665 0.86882 0.0
C588 C 0.30401 0.27991 0.90501 0.0
C589 C 0.29634 0.29245 0.97584 0.0
C590 C 0.33887 0.34127 0.01123 0.0
H591 H 0.27095 0.24145 0.87906 0.0
H592 H 0.66077 0.68003 0.29643 0.0
H593 H 0.36254 0.78634 0.81676 0.0
H594 H 0.38362 0.8542 0.90805 0.0
H595 H 0.54971 0.93104 0.9066 0.0
H596 H 0.52824 0.86185 0.81835 0.0
H597 H 0.5225 0.92536 0.04357 0.0
H598 H 0.49932 0.9871 0.82145 0.0
H599 H 0.44811 0.97104 0.70993 0.0
H600 H 0.3179 0.92301 0.85128 0.0
H601 H 0.36806 0.93812 0.96363 0.0
H602 H 0.63373 0.17308 0.22976 0.0
H603 H 0.60734 0.1 0.1457 0.0
H604 H 0.44223 0.0255 0.16047 0.0
H605 H 0.46862 0.09953 0.24304 0.0
H606 H 0.46632 0.02784 0.0197 0.0
H607 H 0.49293 0.9735 0.24368 0.0
H608 H 0.54358 0.98786 0.35468 0.0
H609 H 0.66524 0.01827 0.212 0.0
H610 H 0.6161 1.00553 0.1 0.0
C611 C 0.40382 0.81852 0.83428 0.0
C612 C 0.44364 0.81855 0.80951 0.0
C613 C 0.41596 0.85749 0.88698 0.0
C614 C 0.4686 0.8986 0.91464 0.0
C615 C 0.50876 0.89994 0.88713 0.0
C616 C 0.49647 0.86049 0.83571 0.0
C617 C 0.48174 0.93912 0.97365 0.0
C618 C 0.51045 0.94792 0.03784 0.0
C619 C 0.4656 0.96847 0.96785 0.0
C620 C 0.43715 0.96314 0.90082 0.0
C621 C 0.45976 0.97312 0.82871 0.0
C622 C 0.43086 0.96402 0.76537 0.0
C623 C 0.37953 0.94539 0.77354 0.0
C624 C 0.35748 0.937 0.84509 0.0
C625 C 0.38617 0.94595 0.90861 0.0
C626 C 0.59153 0.14056 0.21684 0.0
C627 C 0.55343 0.14258 0.24395 0.0
C628 C 0.57641 0.09855 0.16826 0.0
C629 C 0.52256 0.05662 0.14624 0.0
C630 C 0.48407 0.05724 0.17587 0.0
C631 C 0.49923 0.09951 0.22399 0.0
C632 C 0.50691 1.01387 0.0897 0.0
C633 C 0.47789 1.00481 0.02583 0.0
C634 C 0.52272 0.9842 0.09601 0.0
C635 C 0.55121 0.9895 0.16329 0.0
C636 C 0.53075 0.9838 0.23588 0.0
C637 C 0.55929 0.99183 0.29901 0.0
C638 C 0.608 1.00482 0.29036 0.0
C639 C 0.62782 1.00887 0.21856 0.0
C640 C 0.59962 1.00122 0.15521 0.0
H641 H 0.63013 1.01125 0.33928 0.0
H642 H 0.35689 0.93771 0.72446 0.0
H643 H 0.18942 0.50934 0.92982 0.0
H644 H 0.10873 0.47753 0.99188 0.0
H645 H 0.09561 0.56372 0.83473 0.0
H646 H 0.17952 0.59854 0.77249 0.0
H647 H 0.07756 0.57713 0.98033 0.0
H648 H 1.01657 0.42613 0.82427 0.0
H649 H 0.02216 0.36114 0.77347 0.0
H650 H 0.99033 0.29392 0.99248 0.0
H651 H 0.98697 0.3603 0.04543 0.0
H652 H 0.81337 0.44709 0.07891 0.0
H653 H 0.89325 0.47804 0.01396 0.0
H654 H 0.91025 0.39596 0.17335 0.0
H655 H 0.82868 0.36389 0.24003 0.0
H656 H 0.92601 0.38049 0.02637 0.0
H657 H 0.99014 0.53032 0.18449 0.0
H658 H 0.99119 0.59871 0.242 0.0
H659 H 0.01933 0.66805 0.02591 0.0
H660 H 1.017 0.59912 0.96667 0.0
C661 C 0.16977 0.52179 0.90745 0.0
C662 C 0.19139 0.55677 0.84557 0.0
C663 C 0.12309 0.50307 0.94326 0.0
C664 C 0.09548 0.51737 0.91743 0.0
C665 C 0.11624 0.55192 0.85534 0.0
C666 C 0.16388 0.57143 0.81946 0.0
C667 C 0.04565 0.49657 0.95727 0.0
C668 C 0.04392 0.5341 0.98906 0.0
C669 C 1.00271 0.44041 0.97138 0.0
C670 C 1.00197 0.3986 0.93894 0.0
C671 C 1.01099 0.39768 0.86174 0.0
C672 C 1.01382 0.36057 0.83256 0.0
C673 C 1.0065 0.3233 0.87971 0.0
C674 C 0.99605 0.32288 0.95608 0.0
C675 C 0.99384 0.36036 0.98574 0.0
C676 C 0.83384 0.43548 0.10099 0.0
C677 C 0.81467 0.40329 0.16555 0.0
C678 C 0.87982 0.45352 0.06352 0.0
C679 C 0.90833 0.44027 0.08951 0.0
C680 C 0.88894 0.407 0.15277 0.0
C681 C 0.84244 0.38873 0.19079 0.0
C682 C 0.95784 0.46102 0.04899 0.0
C683 C 0.95952 0.4235 0.01721 0.0
C684 C 1.00091 0.51718 0.03546 0.0
C685 C 1.00279 0.55908 0.07098 0.0
C686 C 0.99594 0.55973 0.14904 0.0
C687 C 0.9967 0.59857 0.18196 0.0
C688 C 1.00517 0.63759 0.1376 0.0
C689 C 1.01277 0.63778 0.06019 0.0
C690 C 1.01163 0.59876 0.02689 0.0
H691 H 1.00595 0.66773 0.16326 0.0
H692 H 1.00915 0.29488 0.8573 0.0
loop_
_geom_bond_atom_site_label_1
_geom_bond_atom_site_label_2
_geom_bond_distance
_geom_bond_site_symmetry_2
_ccdc_geom_bond_type
C0 O27 1.312 . S
C0 O28 1.208 . S
C1 O22 1.331 1_565 S
C1 O25 1.244 1_455 S
C2 O24 1.264 . S
C2 O26 1.273 . S
Mg3 O5 1.936 1_455 S
Mg3 O12 2.081 . S
Mg3 O14 2.023 1_455 S
Mg3 O18 2.031 . S
Mg3 O27 2.291 1_556 S
Mg4 O5 1.963 1_565 S
Mg4 O15 1.942 . S
Mg4 O16 1.955 1_565 S
Mg4 O23 1.986 . S
O5 Mg3 1.936 1_655 S
O5 Mg4 1.963 1_545 S
O5 Mg6 1.915 1_546 S
Mg6 O5 1.915 1_564 S
Mg6 O7 1.915 1_655 S
Mg6 O11 2.013 . S
Mg6 O17 2.114 1_664 S
Mg6 O21 2.013 1_554 S
Mg6 O27 2.114 1_665 S
O7 Mg6 1.915 1_455 S
O7 Mg8 1.936 1_565 S
O7 Mg9 1.963 1_455 S
Mg8 O7 1.936 1_545 S
Mg8 O17 2.291 1_554 S
Mg8 O22 2.081 . S
Mg8 O24 2.023 1_545 S
Mg8 O28 2.031 . S
Mg9 O7 1.963 1_655 S
Mg9 O13 1.986 . S
Mg9 O25 1.942 . S
Mg9 O26 1.955 1_655 S
C10 O21 1.191 . S
C10 O23 1.307 . S
O11 Mg6 2.013 . S
O11 C30 1.191 . S
O12 Mg3 2.081 . S
O12 C20 1.331 1_455 S
O13 Mg9 1.986 . S
O13 C30 1.307 . S
O14 Mg3 2.023 1_655 S
O14 C29 1.264 . S
O15 Mg4 1.942 . S
O15 C20 1.244 1_565 S
O16 Mg4 1.955 1_545 S
O16 C29 1.273 . S
O17 Mg6 2.114 1_446 S
O17 Mg8 2.291 1_556 S
O17 C19 1.312 . S
O18 Mg3 2.031 . S
O18 C19 1.208 . S
C19 O17 1.312 . S
C19 O18 1.208 . S
C20 O12 1.331 1_655 S
C20 O15 1.244 1_545 S
O21 Mg6 2.013 1_556 S
O21 C10 1.191 . S
O22 C1 1.331 1_545 S
O22 Mg8 2.081 . S
O23 Mg4 1.986 . S
O23 C10 1.307 . S
O24 C2 1.264 . S
O24 Mg8 2.023 1_565 S
O25 C1 1.244 1_655 S
O25 Mg9 1.942 . S
O26 C2 1.273 . S
O26 Mg9 1.955 1_455 S
O27 C0 1.312 . S
O27 Mg3 2.291 1_554 S
O27 Mg6 2.114 1_445 S
O28 C0 1.208 . S
O28 Mg8 2.031 . S
C29 O14 1.264 . S
C29 O16 1.273 . S
C30 O11 1.191 . S
C30 O13 1.307 . S
C31 O58 1.312 . S
C31 O59 1.208 . S
C32 O53 1.331 . S
C32 O56 1.244 . S
C33 O55 1.264 . S
C33 O57 1.273 . S
Mg34 O36 1.936 . S
Mg34 O43 2.081 . S
Mg34 O45 2.023 . S
Mg34 O49 2.031 . S
Mg34 O58 2.291 . S
Mg35 O36 1.963 . S
Mg35 O46 1.942 . S
Mg35 O47 1.955 . S
Mg35 O54 1.986 . S
O36 Mg34 1.936 . S
O36 Mg35 1.963 . S
O36 Mg37 1.915 . S
Mg37 O36 1.915 . S
Mg37 O38 1.915 . S
Mg37 O42 2.013 . S
Mg37 O48 2.114 . S
Mg37 O52 2.013 . S
Mg37 O58 2.114 . S
O38 Mg37 1.915 . S
O38 Mg39 1.936 . S
O38 Mg40 1.963 . S
Mg39 O38 1.936 . S
Mg39 O48 2.291 . S
Mg39 O53 2.081 . S
Mg39 O55 2.023 . S
Mg39 O59 2.031 . S
Mg40 O38 1.963 . S
Mg40 O44 1.986 . S
Mg40 O56 1.942 . S
Mg40 O57 1.955 . S
C41 O52 1.191 . S
C41 O54 1.307 . S
O42 Mg37 2.013 . S
O42 C61 1.191 . S
O43 Mg34 2.081 . S
O43 C51 1.331 . S
O44 Mg40 1.986 . S
O44 C61 1.307 . S
O45 Mg34 2.023 . S
O45 C60 1.264 . S
O46 Mg35 1.942 . S
O46 C51 1.244 . S
O47 Mg35 1.955 . S
O47 C60 1.273 . S
O48 Mg37 2.114 . S
O48 Mg39 2.291 . S
O48 C50 1.312 . S
O49 Mg34 2.031 . S
O49 C50 1.208 . S
C50 O48 1.312 . S
C50 O49 1.208 . S
C51 O43 1.331 . S
C51 O46 1.244 . S
O52 Mg37 2.013 . S
O52 C41 1.191 . S
O53 C32 1.331 . S
O53 Mg39 2.081 . S
O54 Mg35 1.986 . S
O54 C41 1.307 . S
O55 C33 1.264 . S
O55 Mg39 2.023 . S
O56 C32 1.244 . S
O56 Mg40 1.942 . S
O57 C33 1.273 . S
O57 Mg40 1.955 . S
O58 C31 1.312 . S
O58 Mg34 2.291 . S
O58 Mg37 2.114 . S
O59 C31 1.208 . S
O59 Mg39 2.031 . S
C60 O45 1.264 . S
C60 O47 1.273 . S
C61 O42 1.191 . S
C61 O44 1.307 . S
C62 O89 1.312 . S
C62 O90 1.208 . S
C63 O84 1.331 . S
C63 O87 1.244 . S
C64 O86 1.264 . S
C64 O88 1.273 . S
Mg65 O67 1.936 . S
Mg65 O74 2.081 . S
Mg65 O76 2.023 . S
Mg65 O80 2.031 . S
Mg65 O89 2.291 . S
Mg66 O67 1.963 . S
Mg66 O77 1.942 . S
Mg66 O78 1.955 . S
Mg66 O85 1.986 . S
O67 Mg65 1.936 . S
O67 Mg66 1.963 . S
O67 Mg68 1.915 . S
Mg68 O67 1.915 . S
Mg68 O69 1.915 . S
Mg68 O73 2.013 . S
Mg68 O79 2.114 . S
Mg68 O83 2.013 . S
Mg68 O89 2.114 . S
O69 Mg68 1.915 . S
O69 Mg70 1.936 . S
O69 Mg71 1.963 . S
Mg70 O69 1.936 . S
Mg70 O79 2.291 . S
Mg70 O84 2.081 . S
Mg70 O86 2.023 . S
Mg70 O90 2.031 . S
Mg71 O69 1.963 . S
Mg71 O75 1.986 . S
Mg71 O87 1.942 . S
Mg71 O88 1.955 . S
C72 O83 1.191 . S
C72 O85 1.307 . S
O73 Mg68 2.013 . S
O73 C92 1.191 . S
O74 Mg65 2.081 . S
O74 C82 1.331 . S
O75 Mg71 1.986 . S
O75 C92 1.307 . S
O76 Mg65 2.023 . S
O76 C91 1.264 . S
O77 Mg66 1.942 . S
O77 C82 1.244 . S
O78 Mg66 1.955 . S
O78 C91 1.273 . S
O79 Mg68 2.114 . S
O79 Mg70 2.291 . S
O79 C81 1.312 . S
O80 Mg65 2.031 . S
O80 C81 1.208 . S
C81 O79 1.312 . S
C81 O80 1.208 . S
C82 O74 1.331 . S
C82 O77 1.244 . S
O83 Mg68 2.013 . S
O83 C72 1.191 . S
O84 C63 1.331 . S
O84 Mg70 2.081 . S
O85 Mg66 1.986 . S
O85 C72 1.307 . S
O86 C64 1.264 . S
O86 Mg70 2.023 . S
O87 C63 1.244 . S
O87 Mg71 1.942 . S
O88 C64 1.273 . S
O88 Mg71 1.955 . S
O89 C62 1.312 . S
O89 Mg65 2.291 . S
O89 Mg68 2.114 . S
O90 C62 1.208 . S
O90 Mg70 2.031 . S
C91 O76 1.264 . S
C91 O78 1.273 . S
C92 O73 1.191 . S
C92 O75 1.307 . S
H93 C111 0.951 . S
H94 C113 0.951 . S
H95 C115 0.950 . S
H96 C116 0.950 . S
H97 C118 0.950 . S
H98 C121 0.950 1_655 S
H99 C122 0.950 . S
H100 C124 0.950 . S
H101 C125 0.950 . S
H102 C126 0.951 . S
H103 C128 0.951 . S
H104 C130 0.950 . S
H105 C131 0.950 . S
H106 C133 0.950 . S
H107 C136 0.950 1_455 S
H108 C137 0.950 . S
H109 C139 0.950 . S
H110 C140 0.950 . S
C111 H93 0.951 . S
C111 C112 1.354 1_455 S
C111 C113 1.388 . S
C112 C111 1.354 1_655 S
C112 C116 1.395 1_545 S
C113 H94 0.951 . S
C113 C111 1.388 . S
C113 C114 1.366 . S
C114 C113 1.366 . S
C114 C115 1.414 1_445 S
C114 C117 1.499 . S
C115 H95 0.950 . S
C115 C114 1.414 1_665 S
C115 C116 1.374 . S
C116 H96 0.950 . S
C116 C112 1.395 1_565 S
C116 C115 1.374 . S
C117 C114 1.499 . S
C117 C118 1.373 1_445 S
C117 C119 1.389 . S
C118 H97 0.950 . S
C118 C117 1.373 1_665 S
C118 C134 1.377 . S
C119 C117 1.389 . S
C119 C120 1.524 . S
C119 C133 1.377 . S
C120 C119 1.524 . S
C120 C121 1.397 . S
C120 C125 1.363 . S
C121 H98 0.950 1_455 S
C121 C120 1.397 . S
C121 C122 1.334 . S
C122 H99 0.950 . S
C122 C121 1.334 . S
C122 C123 1.287 . S
C123 C122 1.287 . S
C123 C124 1.524 . S
C123 H142 0.913 . S
C124 H100 0.950 . S
C124 C123 1.524 . S
C124 C125 1.415 . S
C125 H101 0.950 . S
C125 C120 1.363 . S
C125 C124 1.415 . S
C126 H102 0.951 . S
C126 C127 1.366 1_655 S
C126 C128 1.388 . S
C127 C126 1.366 1_455 S
C127 C131 1.383 1_565 S
C128 H103 0.951 . S
C128 C126 1.388 . S
C128 C129 1.366 1_665 S
C129 C128 1.366 1_445 S
C129 C130 1.414 . S
C129 C132 1.499 . S
C130 H104 0.950 . S
C130 C129 1.414 . S
C130 C131 1.374 . S
C131 H105 0.950 . S
C131 C127 1.383 1_545 S
C131 C130 1.374 . S
C132 C129 1.499 . S
C132 C133 1.373 . S
C132 C134 1.389 1_445 S
C133 H106 0.950 . S
C133 C119 1.377 . S
C133 C132 1.373 . S
C134 C118 1.377 . S
C134 C132 1.389 1_665 S
C134 C135 1.524 . S
C135 C134 1.524 . S
C135 C136 1.397 . S
C135 C140 1.363 . S
C136 H107 0.950 1_655 S
C136 C135 1.397 . S
C136 C137 1.334 . S
C137 H108 0.950 . S
C137 C136 1.334 . S
C137 C138 1.287 . S
C138 C137 1.287 . S
C138 C139 1.524 . S
C138 H141 0.999 . S
C139 H109 0.950 . S
C139 C138 1.524 . S
C139 C140 1.415 . S
C140 H110 0.950 . S
C140 C135 1.363 . S
C140 C139 1.415 . S
H141 C138 0.999 . S
H142 C123 0.913 . S
H143 C161 0.951 . S
H144 C163 0.951 . S
H145 C165 0.950 . S
H146 C166 0.950 . S
H147 C168 0.950 . S
H148 C171 0.950 . S
H149 C172 0.950 . S
H150 C174 0.950 . S
H151 C175 0.950 . S
H152 C176 0.951 . S
H153 C178 0.951 . S
H154 C180 0.950 1_556 S
H155 C181 0.950 . S
H156 C183 0.950 . S
H157 C186 0.950 . S
H158 C187 0.950 1_554 S
H159 C189 0.950 . S
H160 C190 0.950 . S
C161 H143 0.951 . S
C161 C162 1.366 . S
C161 C163 1.388 . S
C162 C161 1.366 . S
C162 C166 1.385 . S
C163 H144 0.951 . S
C163 C161 1.388 . S
C163 C164 1.366 . S
C164 C163 1.366 . S
C164 C165 1.414 . S
C164 C167 1.499 . S
C165 H145 0.950 . S
C165 C164 1.414 . S
C165 C166 1.374 . S
C166 H146 0.950 . S
C166 C162 1.385 . S
C166 C165 1.374 . S
C167 C164 1.499 . S
C167 C168 1.373 . S
C167 C169 1.389 . S
C168 H147 0.950 . S
C168 C167 1.373 . S
C168 C184 1.377 . S
C169 C167 1.389 . S
C169 C170 1.524 . S
C169 C183 1.377 . S
C170 C169 1.524 . S
C170 C171 1.397 . S
C170 C175 1.363 . S
C171 H148 0.950 . S
C171 C170 1.397 . S
C171 C172 1.334 . S
C172 H149 0.950 . S
C172 C171 1.334 . S
C172 C173 1.287 . S
C173 C172 1.287 . S
C173 C174 1.524 . S
C173 H192 0.913 . S
C174 H150 0.950 . S
C174 C173 1.524 . S
C174 C175 1.415 . S
C175 H151 0.950 . S
C175 C170 1.363 . S
C175 C174 1.415 . S
C176 H152 0.951 . S
C176 C177 1.366 . S
C176 C178 1.388 . S
C177 C176 1.366 . S
C177 C181 1.385 . S
C178 H153 0.951 . S
C178 C176 1.388 . S
C178 C179 1.366 1_554 S
C179 C178 1.366 1_556 S
C179 C180 1.414 1_556 S
C179 C182 1.499 . S
C180 H154 0.950 1_554 S
C180 C179 1.414 1_554 S
C180 C181 1.374 . S
C181 H155 0.950 . S
C181 C177 1.385 . S
C181 C180 1.374 . S
C182 C179 1.499 . S
C182 C183 1.373 . S
C182 C184 1.389 . S
C183 H156 0.950 . S
C183 C169 1.377 . S
C183 C182 1.373 . S
C184 C168 1.377 . S
C184 C182 1.389 . S
C184 C185 1.524 . S
C185 C184 1.524 . S
C185 C186 1.397 . S
C185 C190 1.363 . S
C186 H157 0.950 . S
C186 C185 1.397 . S
C186 C187 1.334 . S
C187 H158 0.950 1_556 S
C187 C186 1.334 . S
C187 C188 1.287 . S
C188 C187 1.287 . S
C188 C189 1.524 . S
C188 H191 0.999 1_556 S
C189 H159 0.950 . S
C189 C188 1.524 . S
C189 C190 1.415 . S
C190 H160 0.950 . S
C190 C185 1.363 . S
C190 C189 1.415 . S
H191 C188 0.999 1_554 S
H192 C173 0.913 . S
H193 C211 0.951 . S
H194 C213 0.951 1_554 S
H195 C215 0.950 . S
H196 C216 0.950 . S
H197 C218 0.950 . S
H198 C221 0.950 . S
H199 C222 0.950 1_556 S
H200 C224 0.950 . S
H201 C225 0.950 . S
H202 C226 0.951 . S
H203 C228 0.951 . S
H204 C230 0.950 . S
H205 C231 0.950 . S
H206 C233 0.950 . S
H207 C236 0.950 . S
H208 C237 0.950 . S
H209 C239 0.950 . S
H210 C240 0.950 . S
C211 H193 0.951 . S
C211 C212 1.366 . S
C211 C213 1.388 . S
C212 C211 1.366 . S
C212 C216 1.385 . S
C213 H194 0.951 1_556 S
C213 C211 1.388 . S
C213 C214 1.366 1_556 S
C214 C213 1.366 1_554 S
C214 C215 1.414 1_554 S
C214 C217 1.499 . S
C215 H195 0.950 . S
C215 C214 1.414 1_556 S
C215 C216 1.374 . S
C216 H196 0.950 . S
C216 C212 1.385 . S
C216 C215 1.374 . S
C217 C214 1.499 . S
C217 C218 1.373 . S
C217 C219 1.389 . S
C218 H197 0.950 . S
C218 C217 1.373 . S
C218 C234 1.377 . S
C219 C217 1.389 . S
C219 C220 1.524 . S
C219 C233 1.377 . S
C220 C219 1.524 . S
C220 C221 1.397 . S
C220 C225 1.363 . S
C221 H198 0.950 . S
C221 C220 1.397 . S
C221 C222 1.334 . S
C222 H199 0.950 1_554 S
C222 C221 1.334 . S
C222 C223 1.287 . S
C223 C222 1.287 . S
C223 C224 1.524 . S
C223 H242 0.913 . S
C224 H200 0.950 . S
C224 C223 1.524 . S
C224 C225 1.415 . S
C225 H201 0.950 . S
C225 C220 1.363 . S
C225 C224 1.415 . S
C226 H202 0.951 . S
C226 C227 1.366 . S
C226 C228 1.388 . S
C227 C226 1.366 . S
C227 C231 1.385 . S
C228 H203 0.951 . S
C228 C226 1.388 . S
C228 C229 1.366 . S
C229 C228 1.366 . S
C229 C230 1.414 . S
C229 C232 1.499 . S
C230 H204 0.950 . S
C230 C229 1.414 . S
C230 C231 1.374 . S
C231 H205 0.950 . S
C231 C227 1.385 . S
C231 C230 1.374 . S
C232 C229 1.499 . S
C232 C233 1.373 . S
C232 C234 1.389 . S
C233 H206 0.950 . S
C233 C219 1.377 . S
C233 C232 1.373 . S
C234 C218 1.377 . S
C234 C232 1.389 . S
C234 C235 1.524 . S
C235 C234 1.524 . S
C235 C236 1.397 . S
C235 C240 1.363 . S
C236 H207 0.950 . S
C236 C235 1.397 . S
C236 C237 1.334 . S
C237 H208 0.950 . S
C237 C236 1.334 . S
C237 C238 1.287 . S
C238 C237 1.287 . S
C238 C239 1.524 . S
C238 H241 0.999 . S
C239 H209 0.950 . S
C239 C238 1.524 . S
C239 C240 1.415 . S
C240 H210 0.950 . S
C240 C235 1.363 . S
C240 C239 1.415 . S
H241 C238 0.999 . S
H242 C223 0.913 . S
H243 C261 0.951 . S
H244 C263 0.951 . S
H245 C265 0.950 . S
H246 C266 0.950 . S
H247 C268 0.950 . S
H248 C271 0.950 . S
H249 C272 0.950 . S
H250 C274 0.950 . S
H251 C275 0.950 . S
H252 C276 0.951 . S
H253 C278 0.951 . S
H254 C280 0.950 . S
H255 C281 0.950 . S
H256 C283 0.950 . S
H257 C286 0.950 . S
H258 C287 0.950 . S
H259 C289 0.950 . S
H260 C290 0.950 . S
C261 H243 0.951 . S
C261 C262 1.366 . S
C261 C263 1.388 . S
C262 C261 1.366 . S
C262 C266 1.385 . S
C263 H244 0.951 . S
C263 C261 1.388 . S
C263 C264 1.366 . S
C264 C263 1.366 . S
C264 C265 1.414 . S
C264 C267 1.499 . S
C265 H245 0.950 . S
C265 C264 1.414 . S
C265 C266 1.374 . S
C266 H246 0.950 . S
C266 C262 1.385 . S
C266 C265 1.374 . S
C267 C264 1.499 . S
C267 C268 1.373 . S
C267 C269 1.389 . S
C268 H247 0.950 . S
C268 C267 1.373 . S
C268 C284 1.377 . S
C269 C267 1.389 . S
C269 C270 1.524 . S
C269 C283 1.377 . S
C270 C269 1.524 . S
C270 C271 1.397 . S
C270 C275 1.363 . S
C271 H248 0.950 . S
C271 C270 1.397 . S
C271 C272 1.334 . S
C272 H249 0.950 . S
C272 C271 1.334 . S
C272 C273 1.287 . S
C273 C272 1.287 . S
C273 C274 1.524 . S
C273 H292 0.913 . S
C274 H250 0.950 . S
C274 C273 1.524 . S
C274 C275 1.415 . S
C275 H251 0.950 . S
C275 C270 1.363 . S
C275 C274 1.415 . S
C276 H252 0.951 . S
C276 C277 1.366 . S
C276 C278 1.388 . S
C277 C276 1.366 . S
C277 C281 1.385 . S
C278 H253 0.951 . S
C278 C276 1.388 . S
C278 C279 1.366 . S
C279 C278 1.366 . S
C279 C280 1.414 . S
C279 C282 1.499 . S
C280 H254 0.950 . S
C280 C279 1.414 . S
C280 C281 1.374 . S
C281 H255 0.950 . S
C281 C277 1.385 . S
C281 C280 1.374 . S
C282 C279 1.499 . S
C282 C283 1.373 . S
C282 C284 1.389 . S
C283 H256 0.950 . S
C283 C269 1.377 . S
C283 C282 1.373 . S
C284 C268 1.377 . S
C284 C282 1.389 . S
C284 C285 1.524 . S
C285 C284 1.524 . S
C285 C286 1.397 . S
C285 C290 1.363 . S
C286 H257 0.950 . S
C286 C285 1.397 . S
C286 C287 1.334 . S
C287 H258 0.950 . S
C287 C286 1.334 . S
C287 C288 1.287 . S
C288 C287 1.287 . S
C288 C289 1.524 . S
C288 H291 0.999 . S
C289 H259 0.950 . S
C289 C288 1.524 . S
C289 C290 1.415 . S
C290 H260 0.950 . S
C290 C285 1.363 . S
C290 C289 1.415 . S
H291 C288 0.999 . S
H292 C273 0.913 . S
H293 C311 0.951 . S
H294 C313 0.951 . S
H295 C315 0.950 . S
H296 C316 0.950 . S
H297 C318 0.950 . S
H298 C321 0.950 . S
H299 C322 0.950 . S
H300 C324 0.950 . S
H301 C325 0.950 . S
H302 C326 0.951 . S
H303 C328 0.951 . S
H304 C330 0.950 . S
H305 C331 0.950 . S
H306 C333 0.950 . S
H307 C336 0.950 . S
H308 C337 0.948 1_655 S
H309 C339 0.950 . S
H310 C340 0.950 . S
C311 H293 0.951 . S
C311 C312 1.366 . S
C311 C313 1.388 . S
C312 C311 1.366 . S
C312 C316 1.385 . S
C313 H294 0.951 . S
C313 C311 1.388 . S
C313 C314 1.366 . S
C314 C313 1.366 . S
C314 C315 1.414 . S
C314 C317 1.499 . S
C315 H295 0.950 . S
C315 C314 1.414 . S
C315 C316 1.374 . S
C316 H296 0.950 . S
C316 C312 1.385 . S
C316 C315 1.374 . S
C317 C314 1.499 . S
C317 C318 1.373 . S
C317 C319 1.389 . S
C318 H297 0.950 . S
C318 C317 1.373 . S
C318 C334 1.377 . S
C319 C317 1.389 . S
C319 C320 1.524 . S
C319 C333 1.377 . S
C320 C319 1.524 . S
C320 C321 1.397 . S
C320 C325 1.363 . S
C321 H298 0.950 . S
C321 C320 1.397 . S
C321 C322 1.334 . S
C322 H299 0.950 . S
C322 C321 1.334 . S
C322 C323 1.287 . S
C323 C322 1.287 . S
C323 C324 1.524 . S
C323 H342 0.913 . S
C324 H300 0.950 . S
C324 C323 1.524 . S
C324 C325 1.415 . S
C325 H301 0.950 . S
C325 C320 1.363 . S
C325 C324 1.415 . S
C326 H302 0.951 . S
C326 C327 1.366 . S
C326 C328 1.388 . S
C327 C326 1.366 . S
C327 C331 1.385 . S
C328 H303 0.951 . S
C328 C326 1.388 . S
C328 C329 1.366 . S
C329 C328 1.366 . S
C329 C330 1.414 . S
C329 C332 1.499 . S
C330 H304 0.950 . S
C330 C329 1.414 . S
C330 C331 1.374 . S
C331 H305 0.950 . S
C331 C327 1.385 . S
C331 C330 1.374 . S
C332 C329 1.499 . S
C332 C333 1.373 . S
C332 C334 1.389 . S
C333 H306 0.950 . S
C333 C319 1.377 . S
C333 C332 1.373 . S
C334 C318 1.377 . S
C334 C332 1.389 . S
C334 C335 1.524 . S
C335 C334 1.524 . S
C335 C336 1.397 . S
C335 C340 1.363 . S
C336 H307 0.950 . S
C336 C335 1.397 . S
C336 C337 1.340 . S
C337 H308 0.948 1_455 S
C337 C336 1.340 . S
C337 C338 1.284 . S
C338 C337 1.284 . S
C338 C339 1.524 . S
C338 H341 0.999 1_455 S
C339 H309 0.950 . S
C339 C338 1.524 . S
C339 C340 1.415 . S
C340 H310 0.950 . S
C340 C335 1.363 . S
C340 C339 1.415 . S
H341 C338 0.999 1_655 S
H342 C323 0.913 . S
H343 C361 0.951 . S
H344 C363 0.951 . S
H345 C365 0.950 . S
H346 C366 0.950 . S
H347 C368 0.950 . S
H348 C371 0.950 . S
H349 C372 0.950 . S
H350 C374 0.950 . S
H351 C375 0.950 . S
H352 C376 0.951 . S
H353 C378 0.951 . S
H354 C380 0.950 . S
H355 C381 0.950 . S
H356 C383 0.950 . S
H357 C386 0.950 . S
H358 C387 0.950 . S
H359 C389 0.950 . S
H360 C390 0.950 . S
C361 H343 0.951 . S
C361 C362 1.366 . S
C361 C363 1.388 . S
C362 C361 1.366 . S
C362 C366 1.385 . S
C363 H344 0.951 . S
C363 C361 1.388 . S
C363 C364 1.366 . S
C364 C363 1.366 . S
C364 C365 1.414 . S
C364 C367 1.499 . S
C365 H345 0.950 . S
C365 C364 1.414 . S
C365 C366 1.374 . S
C366 H346 0.950 . S
C366 C362 1.385 . S
C366 C365 1.374 . S
C367 C364 1.499 . S
C367 C368 1.373 . S
C367 C369 1.389 . S
C368 H347 0.950 . S
C368 C367 1.373 . S
C368 C384 1.377 . S
C369 C367 1.389 . S
C369 C370 1.524 . S
C369 C383 1.377 . S
C370 C369 1.524 . S
C370 C371 1.397 . S
C370 C375 1.363 . S
C371 H348 0.950 . S
C371 C370 1.397 . S
C371 C372 1.334 . S
C372 H349 0.950 . S
C372 C371 1.334 . S
C372 C373 1.287 . S
C373 C372 1.287 . S
C373 C374 1.524 . S
C373 H392 0.913 . S
C374 H350 0.950 . S
C374 C373 1.524 . S
C374 C375 1.415 . S
C375 H351 0.950 . S
C375 C370 1.363 . S
C375 C374 1.415 . S
C376 H352 0.951 . S
C376 C377 1.366 . S
C376 C378 1.388 . S
C377 C376 1.366 . S
C377 C381 1.385 . S
C378 H353 0.951 . S
C378 C376 1.388 . S
C378 C379 1.366 . S
C379 C378 1.366 . S
C379 C380 1.414 . S
C379 C382 1.499 . S
C380 H354 0.950 . S
C380 C379 1.414 . S
C380 C381 1.374 . S
C381 H355 0.950 . S
C381 C377 1.385 . S
C381 C380 1.374 . S
C382 C379 1.499 . S
C382 C383 1.373 . S
C382 C384 1.389 . S
C383 H356 0.950 . S
C383 C369 1.377 . S
C383 C382 1.373 . S
C384 C368 1.377 . S
C384 C382 1.389 . S
C384 C385 1.524 . S
C385 C384 1.524 . S
C385 C386 1.397 . S
C385 C390 1.363 . S
C386 H357 0.950 . S
C386 C385 1.397 . S
C386 C387 1.334 . S
C387 H358 0.950 . S
C387 C386 1.334 . S
C387 C388 1.287 . S
C388 C387 1.287 . S
C388 C389 1.524 . S
C388 H391 0.993 1_554 S
C389 H359 0.950 . S
C389 C388 1.524 . S
C389 C390 1.415 . S
C390 H360 0.950 . S
C390 C385 1.363 . S
C390 C389 1.415 . S
H391 C388 0.993 1_556 S
H392 C373 0.913 . S
H393 C411 0.951 . S
H394 C413 0.951 . S
H395 C415 0.950 . S
H396 C416 0.950 . S
H397 C418 0.950 . S
H398 C421 0.950 . S
H399 C422 0.950 . S
H400 C424 0.950 . S
H401 C425 0.950 . S
H402 C426 0.951 . S
H403 C428 0.951 . S
H404 C430 0.950 . S
H405 C431 0.950 . S
H406 C433 0.950 . S
H407 C436 0.950 . S
H408 C437 0.950 . S
H409 C439 0.950 1_455 S
H410 C440 0.950 . S
C411 H393 0.951 . S
C411 C412 1.366 . S
C411 C413 1.388 . S
C412 C411 1.366 . S
C412 C416 1.385 . S
C413 H394 0.951 . S
C413 C411 1.388 . S
C413 C414 1.366 . S
C414 C413 1.366 . S
C414 C415 1.414 . S
C414 C417 1.499 . S
C415 H395 0.950 . S
C415 C414 1.414 . S
C415 C416 1.374 . S
C416 H396 0.950 . S
C416 C412 1.385 . S
C416 C415 1.374 . S
C417 C414 1.499 . S
C417 C418 1.373 . S
C417 C419 1.389 . S
C418 H397 0.950 . S
C418 C417 1.373 . S
C418 C434 1.377 . S
C419 C417 1.389 . S
C419 C420 1.524 . S
C419 C433 1.377 . S
C420 C419 1.524 . S
C420 C421 1.397 . S
C420 C425 1.363 . S
C421 H398 0.950 . S
C421 C420 1.397 . S
C421 C422 1.334 . S
C422 H399 0.950 . S
C422 C421 1.334 . S
C422 C423 1.287 . S
C423 C422 1.287 . S
C423 C424 1.524 1_545 S
C423 H442 0.913 1_545 S
C424 H400 0.950 . S
C424 C423 1.524 1_565 S
C424 C425 1.415 1_565 S
C425 H401 0.950 . S
C425 C420 1.363 . S
C425 C424 1.415 1_545 S
C426 H402 0.951 . S
C426 C427 1.366 . S
C426 C428 1.388 . S
C427 C426 1.366 . S
C427 C431 1.385 . S
C428 H403 0.951 . S
C428 C426 1.388 . S
C428 C429 1.366 . S
C429 C428 1.366 . S
C429 C430 1.414 . S
C429 C432 1.499 . S
C430 H404 0.950 . S
C430 C429 1.414 . S
C430 C431 1.374 . S
C431 H405 0.950 . S
C431 C427 1.385 . S
C431 C430 1.374 . S
C432 C429 1.499 . S
C432 C433 1.373 . S
C432 C434 1.389 . S
C433 H406 0.950 . S
C433 C419 1.377 . S
C433 C432 1.373 . S
C434 C418 1.377 . S
C434 C432 1.389 . S
C434 C435 1.524 . S
C435 C434 1.524 . S
C435 C436 1.397 . S
C435 C440 1.363 . S
C436 H407 0.950 . S
C436 C435 1.397 . S
C436 C437 1.334 1_655 S
C437 H408 0.950 . S
C437 C436 1.334 1_455 S
C437 C438 1.287 . S
C438 C437 1.287 . S
C438 C439 1.524 1_455 S
C438 H441 0.999 . S
C439 H409 0.950 1_655 S
C439 C438 1.524 1_655 S
C439 C440 1.415 . S
C440 H410 0.950 . S
C440 C435 1.363 . S
C440 C439 1.415 . S
H441 C438 0.999 . S
H442 C423 0.913 1_565 S
H443 C461 0.951 . S
H444 C463 0.951 . S
H445 C465 0.950 . S
H446 C466 0.950 . S
H447 C468 0.950 . S
H448 C471 0.950 . S
H449 C472 0.950 . S
H450 C474 0.950 . S
H451 C475 0.950 . S
H452 C476 0.951 . S
H453 C478 0.951 . S
H454 C480 0.950 . S
H455 C481 0.950 . S
H456 C483 0.950 . S
H457 C486 0.950 . S
H458 C487 0.950 . S
H459 C489 0.950 1_455 S
H460 C490 0.950 . S
C461 H443 0.951 . S
C461 C462 1.366 . S
C461 C463 1.388 . S
C462 C461 1.366 . S
C462 C466 1.385 . S
C463 H444 0.951 . S
C463 C461 1.388 . S
C463 C464 1.366 . S
C464 C463 1.366 . S
C464 C465 1.414 . S
C464 C467 1.499 . S
C465 H445 0.950 . S
C465 C464 1.414 . S
C465 C466 1.374 . S
C466 H446 0.950 . S
C466 C462 1.385 . S
C466 C465 1.374 . S
C467 C464 1.499 . S
C467 C468 1.373 . S
C467 C469 1.389 . S
C468 H447 0.950 . S
C468 C467 1.373 . S
C468 C484 1.377 . S
C469 C467 1.389 . S
C469 C470 1.524 . S
C469 C483 1.377 . S
C470 C469 1.524 . S
C470 C471 1.397 . S
C470 C475 1.363 . S
C471 H448 0.950 . S
C471 C470 1.397 . S
C471 C472 1.334 . S
C472 H449 0.950 . S
C472 C471 1.334 . S
C472 C473 1.287 . S
C473 C472 1.287 . S
C473 C474 1.524 . S
C473 H492 0.913 . S
C474 H450 0.950 . S
C474 C473 1.524 . S
C474 C475 1.415 . S
C475 H451 0.950 . S
C475 C470 1.363 . S
C475 C474 1.415 . S
C476 H452 0.951 . S
C476 C477 1.366 . S
C476 C478 1.388 . S
C477 C476 1.366 . S
C477 C481 1.385 . S
C478 H453 0.951 . S
C478 C476 1.388 . S
C478 C479 1.366 . S
C479 C478 1.366 . S
C479 C480 1.414 . S
C479 C482 1.499 . S
C480 H454 0.950 . S
C480 C479 1.414 . S
C480 C481 1.374 . S
C481 H455 0.950 . S
C481 C477 1.385 . S
C481 C480 1.374 . S
C482 C479 1.499 . S
C482 C483 1.373 . S
C482 C484 1.389 . S
C483 H456 0.950 . S
C483 C469 1.377 . S
C483 C482 1.373 . S
C484 C468 1.377 . S
C484 C482 1.389 . S
C484 C485 1.524 . S
C485 C484 1.524 . S
C485 C486 1.397 . S
C485 C490 1.363 . S
C486 H457 0.950 . S
C486 C485 1.397 . S
C486 C487 1.334 . S
C487 H458 0.950 . S
C487 C486 1.334 . S
C487 C488 1.287 . S
C488 C487 1.287 . S
C488 C489 1.524 . S
C488 H491 0.999 1_655 S
C489 H459 0.950 1_655 S
C489 C488 1.524 . S
C489 C490 1.415 . S
C490 H460 0.950 . S
C490 C485 1.363 . S
C490 C489 1.415 . S
H491 C488 0.999 1_455 S
H492 C473 0.913 . S
H493 C511 0.951 . S
H494 C513 0.951 . S
H495 C515 0.950 . S
H496 C516 0.950 . S
H497 C518 0.950 . S
H498 C521 0.950 . S
H499 C522 0.950 . S
H500 C524 0.950 . S
H501 C525 0.950 . S
H502 C526 0.951 . S
H503 C528 0.951 . S
H504 C530 0.950 . S
H505 C531 0.950 . S
H506 C533 0.950 . S
H507 C536 0.950 . S
H508 C537 0.950 . S
H509 C539 0.950 . S
H510 C540 0.950 . S
C511 H493 0.951 . S
C511 C512 1.366 . S
C511 C513 1.388 . S
C512 C511 1.366 . S
C512 C516 1.385 . S
C513 H494 0.951 . S
C513 C511 1.388 . S
C513 C514 1.366 . S
C514 C513 1.366 . S
C514 C515 1.414 . S
C514 C517 1.499 . S
C515 H495 0.950 . S
C515 C514 1.414 . S
C515 C516 1.374 . S
C516 H496 0.950 . S
C516 C512 1.385 . S
C516 C515 1.374 . S
C517 C514 1.499 . S
C517 C518 1.373 . S
C517 C519 1.389 . S
C518 H497 0.950 . S
C518 C517 1.373 . S
C518 C534 1.377 . S
C519 C517 1.389 . S
C519 C520 1.524 . S
C519 C533 1.377 . S
C520 C519 1.524 . S
C520 C521 1.397 . S
C520 C525 1.363 . S
C521 H498 0.950 . S
C521 C520 1.397 . S
C521 C522 1.334 . S
C522 H499 0.950 . S
C522 C521 1.334 . S
C522 C523 1.287 . S
C523 C522 1.287 . S
C523 C524 1.524 . S
C523 H542 0.913 . S
C524 H500 0.950 . S
C524 C523 1.524 . S
C524 C525 1.415 . S
C525 H501 0.950 . S
C525 C520 1.363 . S
C525 C524 1.415 . S
C526 H502 0.951 . S
C526 C527 1.366 . S
C526 C528 1.388 . S
C527 C526 1.366 . S
C527 C531 1.385 . S
C528 H503 0.951 . S
C528 C526 1.388 . S
C528 C529 1.366 . S
C529 C528 1.366 . S
C529 C530 1.414 . S
C529 C532 1.499 . S
C530 H504 0.950 . S
C530 C529 1.414 . S
C530 C531 1.374 . S
C531 H505 0.950 . S
C531 C527 1.385 . S
C531 C530 1.374 . S
C532 C529 1.499 . S
C532 C533 1.373 . S
C532 C534 1.389 . S
C533 H506 0.950 . S
C533 C519 1.377 . S
C533 C532 1.373 . S
C534 C518 1.377 . S
C534 C532 1.389 . S
C534 C535 1.524 . S
C535 C534 1.524 . S
C535 C536 1.397 . S
C535 C540 1.363 . S
C536 H507 0.950 . S
C536 C535 1.397 . S
C536 C537 1.334 . S
C537 H508 0.950 . S
C537 C536 1.334 . S
C537 C538 1.287 . S
C538 C537 1.287 . S
C538 C539 1.524 . S
C538 H541 0.999 . S
C539 H509 0.950 . S
C539 C538 1.524 . S
C539 C540 1.415 . S
C540 H510 0.950 . S
C540 C535 1.363 . S
C540 C539 1.415 . S
H541 C538 0.999 . S
H542 C523 0.913 . S
H543 C561 0.951 . S
H544 C563 0.951 . S
H545 C565 0.950 . S
H546 C566 0.950 . S
H547 C568 0.950 . S
H548 C571 0.950 . S
H549 C572 0.950 . S
H550 C574 0.950 1_556 S
H551 C575 0.950 . S
H552 C576 0.951 . S
H553 C578 0.951 . S
H554 C580 0.950 . S
H555 C581 0.950 . S
H556 C583 0.950 . S
H557 C586 0.950 . S
H558 C587 0.950 . S
H559 C589 0.950 1_554 S
H560 C590 0.950 . S
C561 H543 0.951 . S
C561 C562 1.366 . S
C561 C563 1.388 . S
C562 C561 1.366 . S
C562 C566 1.385 . S
C563 H544 0.951 . S
C563 C561 1.388 . S
C563 C564 1.366 . S
C564 C563 1.366 . S
C564 C565 1.414 . S
C564 C567 1.499 . S
C565 H545 0.950 . S
C565 C564 1.414 . S
C565 C566 1.374 . S
C566 H546 0.950 . S
C566 C562 1.385 . S
C566 C565 1.374 . S
C567 C564 1.499 . S
C567 C568 1.373 . S
C567 C569 1.389 . S
C568 H547 0.950 . S
C568 C567 1.373 . S
C568 C584 1.377 1_554 S
C569 C567 1.389 . S
C569 C570 1.524 . S
C569 C583 1.377 1_554 S
C570 C569 1.524 . S
C570 C571 1.397 . S
C570 C575 1.363 1_554 S
C571 H548 0.950 . S
C571 C570 1.397 . S
C571 C572 1.334 . S
C572 H549 0.950 . S
C572 C571 1.334 . S
C572 C573 1.287 . S
C573 C572 1.287 . S
C573 C574 1.524 . S
C573 H592 0.913 . S
C574 H550 0.950 1_554 S
C574 C573 1.524 . S
C574 C575 1.415 1_554 S
C575 H551 0.950 . S
C575 C570 1.363 1_556 S
C575 C574 1.415 1_556 S
C576 H552 0.951 . S
C576 C577 1.366 . S
C576 C578 1.388 . S
C577 C576 1.366 . S
C577 C581 1.385 . S
C578 H553 0.951 . S
C578 C576 1.388 . S
C578 C579 1.366 . S
C579 C578 1.366 . S
C579 C580 1.414 . S
C579 C582 1.499 . S
C580 H554 0.950 . S
C580 C579 1.414 . S
C580 C581 1.374 . S
C581 H555 0.950 . S
C581 C577 1.385 . S
C581 C580 1.374 . S
C582 C579 1.499 . S
C582 C583 1.373 . S
C582 C584 1.389 . S
C583 H556 0.950 . S
C583 C569 1.377 1_556 S
C583 C582 1.373 . S
C584 C568 1.377 1_556 S
C584 C582 1.389 . S
C584 C585 1.524 . S
C585 C584 1.524 . S
C585 C586 1.397 . S
C585 C590 1.363 1_556 S
C586 H557 0.950 . S
C586 C585 1.397 . S
C586 C587 1.334 . S
C587 H558 0.950 . S
C587 C586 1.334 . S
C587 C588 1.287 . S
C588 C587 1.287 . S
C588 C589 1.524 . S
C588 H591 0.999 . S
C589 H559 0.950 1_556 S
C589 C588 1.524 . S
C589 C590 1.415 1_556 S
C590 H560 0.950 . S
C590 C585 1.363 1_554 S
C590 C589 1.415 1_554 S
H591 C588 0.999 . S
H592 C573 0.913 . S
H593 C611 0.951 . S
H594 C613 0.951 . S
H595 C615 0.950 . S
H596 C616 0.950 . S
H597 C618 0.950 . S
H598 C621 0.950 . S
H599 C622 0.950 . S
H600 C624 0.950 . S
H601 C625 0.950 . S
H602 C626 0.951 . S
H603 C628 0.951 . S
H604 C630 0.950 . S
H605 C631 0.950 . S
H606 C633 0.950 . S
H607 C636 0.950 . S
H608 C637 0.950 . S
H609 C639 0.950 . S
H610 C640 0.950 . S
C611 H593 0.951 . S
C611 C612 1.366 . S
C611 C613 1.388 . S
C612 C611 1.366 . S
C612 C616 1.385 . S
C613 H594 0.951 . S
C613 C611 1.388 . S
C613 C614 1.366 . S
C614 C613 1.366 . S
C614 C615 1.414 . S
C614 C617 1.499 . S
C615 H595 0.950 . S
C615 C614 1.414 . S
C615 C616 1.374 . S
C616 H596 0.950 . S
C616 C612 1.385 . S
C616 C615 1.374 . S
C617 C614 1.499 . S
C617 C618 1.373 1_556 S
C617 C619 1.389 1_565 S
C618 H597 0.950 . S
C618 C617 1.373 1_554 S
C618 C634 1.377 . S
C619 C617 1.389 1_545 S
C619 C620 1.524 . S
C619 C633 1.377 . S
C620 C619 1.524 . S
C620 C621 1.397 . S
C620 C625 1.363 . S
C621 H598 0.950 . S
C621 C620 1.397 . S
C621 C622 1.334 . S
C622 H599 0.950 . S
C622 C621 1.334 . S
C622 C623 1.287 . S
C623 C622 1.287 . S
C623 C624 1.524 . S
C623 H642 0.913 . S
C624 H600 0.950 . S
C624 C623 1.524 . S
C624 C625 1.415 . S
C625 H601 0.950 . S
C625 C620 1.363 . S
C625 C624 1.415 . S
C626 H602 0.951 . S
C626 C627 1.366 . S
C626 C628 1.388 . S
C627 C626 1.366 . S
C627 C631 1.385 . S
C628 H603 0.951 . S
C628 C626 1.388 . S
C628 C629 1.366 . S
C629 C628 1.366 . S
C629 C630 1.414 . S
C629 C632 1.499 . S
C630 H604 0.950 . S
C630 C629 1.414 . S
C630 C631 1.374 . S
C631 H605 0.950 . S
C631 C627 1.385 . S
C631 C630 1.374 . S
C632 C629 1.499 . S
C632 C633 1.373 1_554 S
C632 C634 1.389 1_545 S
C633 H606 0.950 . S
C633 C619 1.377 . S
C633 C632 1.373 1_556 S
C634 C618 1.377 . S
C634 C632 1.389 1_565 S
C634 C635 1.524 . S
C635 C634 1.524 . S
C635 C636 1.397 . S
C635 C640 1.363 . S
C636 H607 0.950 . S
C636 C635 1.397 . S
C636 C637 1.334 . S
C637 H608 0.950 . S
C637 C636 1.334 . S
C637 C638 1.287 . S
C638 C637 1.287 . S
C638 C639 1.524 . S
C638 H641 0.999 . S
C639 H609 0.950 . S
C639 C638 1.524 . S
C639 C640 1.415 . S
C640 H610 0.950 . S
C640 C635 1.363 . S
C640 C639 1.415 . S
H641 C638 0.999 . S
H642 C623 0.913 . S
H643 C661 0.951 . S
H644 C663 0.951 . S
H645 C665 0.950 . S
H646 C666 0.950 . S
H647 C668 0.950 . S
H648 C671 0.950 . S
H649 C672 0.950 . S
H650 C674 0.950 . S
H651 C675 0.950 . S
H652 C676 0.951 . S
H653 C678 0.951 . S
H654 C680 0.950 . S
H655 C681 0.950 . S
H656 C683 0.950 . S
H657 C686 0.950 . S
H658 C687 0.950 . S
H659 C689 0.954 . S
H660 C690 0.950 . S
C661 H643 0.951 . S
C661 C662 1.366 . S
C661 C663 1.388 . S
C662 C661 1.366 . S
C662 C666 1.385 . S
C663 H644 0.951 . S
C663 C661 1.388 . S
C663 C664 1.366 . S
C664 C663 1.366 . S
C664 C665 1.414 . S
C664 C667 1.499 . S
C665 H645 0.950 . S
C665 C664 1.414 . S
C665 C666 1.374 . S
C666 H646 0.950 . S
C666 C662 1.385 . S
C666 C665 1.374 . S
C667 C664 1.499 . S
C667 C668 1.373 . S
C667 C669 1.389 . S
C668 H647 0.950 . S
C668 C667 1.373 . S
C668 C684 1.377 1_456 S
C669 C667 1.389 . S
C669 C670 1.524 . S
C669 C683 1.377 1_456 S
C670 C669 1.524 . S
C670 C671 1.397 . S
C670 C675 1.363 1_556 S
C671 H648 0.950 . S
C671 C670 1.397 . S
C671 C672 1.334 . S
C672 H649 0.950 . S
C672 C671 1.334 . S
C672 C673 1.287 . S
C673 C672 1.287 . S
C673 C674 1.524 1_556 S
C673 H692 0.913 . S
C674 H650 0.950 . S
C674 C673 1.524 1_554 S
C674 C675 1.415 . S
C675 H651 0.950 . S
C675 C670 1.363 1_554 S
C675 C674 1.415 . S
C676 H652 0.951 . S
C676 C677 1.366 . S
C676 C678 1.388 . S
C677 C676 1.366 . S
C677 C681 1.385 . S
C678 H653 0.951 . S
C678 C676 1.388 . S
C678 C679 1.366 . S
C679 C678 1.366 . S
C679 C680 1.414 . S
C679 C682 1.499 . S
C680 H654 0.950 . S
C680 C679 1.414 . S
C680 C681 1.374 . S
C681 H655 0.950 . S
C681 C677 1.385 . S
C681 C680 1.374 . S
C682 C679 1.499 . S
C682 C683 1.373 . S
C682 C684 1.389 . S
C683 H656 0.950 . S
C683 C669 1.377 1_654 S
C683 C682 1.373 . S
C684 C668 1.377 1_654 S
C684 C682 1.389 . S
C684 C685 1.524 . S
C685 C684 1.524 . S
C685 C686 1.397 . S
C685 C690 1.363 1_554 S
C686 H657 0.950 . S
C686 C685 1.397 . S
C686 C687 1.334 . S
C687 H658 0.950 . S
C687 C686 1.334 . S
C687 C688 1.287 . S
C688 C687 1.287 . S
C688 C689 1.518 1_554 S
C688 H691 0.999 . S
C689 H659 0.954 . S
C689 C688 1.518 1_556 S
C689 C690 1.416 . S
C690 H660 0.950 . S
C690 C685 1.363 1_556 S
C690 C689 1.416 . S
H691 C688 0.999 . S
H692 C673 0.913 . S
C112 C20 1.397 . S
C127 C1 1.397 . S
C162 C32 1.396 . S
C177 C51 1.396 . S
C212 C63 1.396 . S
C227 C82 1.396 . S
C262 C91 2.347 . S
C277 C2 2.346 . S
C312 C72 1.914 . S
C327 C0 1.895 . S
C362 C81 1.898 . S
C377 C30 1.915 . S
C412 C33 2.346 . S
C427 C29 2.347 . S
C462 C31 1.897 . S
C477 C10 1.917 . S
C512 C61 1.915 . S
C527 C19 1.897 . S
C562 C60 2.346 . S
C577 C64 2.346 . S
C612 C62 1.897 . S
C627 C41 1.914 . S
C662 C92 1.915 . S
C677 C50 1.898 . S
