# Generated by pormake.
# Topology ecv, (8)-cn, num edge types: 1
# Building blocks:
#     Node 0, Type 0, BuildingBlock: TAGTUT_clean_sbu_1, # of connection points: 8
#     Node 1, Type 0, BuildingBlock: TAGTUT_clean_sbu_1, # of connection points: 8
#     Node 2, Type 0, BuildingBlock: TAGTUT_clean_sbu_1, # of connection points: 8
#     Node 3, Type 0, BuildingBlock: TAGTUT_clean_sbu_1, # of connection points: 8
#     Node 4, Type 0, BuildingBlock: TAGTUT_clean_sbu_1, # of connection points: 8
#     Node 5, Type 0, BuildingBlock: TAGTUT_clean_sbu_1, # of connection points: 8
#     Node 6, Type 0, BuildingBlock: TAGTUT_clean_sbu_1, # of connection points: 8
#     Node 7, Type 0, BuildingBlock: TAGTUT_clean_sbu_1, # of connection points: 8
#     Node 8, Type 0, BuildingBlock: TAGTUT_clean_sbu_1, # of connection points: 8
#     Node 9, Type 0, BuildingBlock: TAGTUT_clean_sbu_1, # of connection points: 8
#     Node 10, Type 0, BuildingBlock: TAGTUT_clean_sbu_1, # of connection points: 8
#     Node 11, Type 0, BuildingBlock: TAGTUT_clean_sbu_1, # of connection points: 8
#     Node 12, Type 0, BuildingBlock: TAGTUT_clean_sbu_1, # of connection points: 8
#     Node 13, Type 0, BuildingBlock: TAGTUT_clean_sbu_1, # of connection points: 8
#     Node 14, Type 0, BuildingBlock: TAGTUT_clean_sbu_1, # of connection points: 8
#     Node 15, Type 0, BuildingBlock: TAGTUT_clean_sbu_1, # of connection points: 8
#     Edge 16, Type (0, 0), BuildingBlock: AJUNOK_clean_linker_0, # of connection points: 2
#     Edge 17, Type (0, 0), BuildingBlock: AJUNOK_clean_linker_0, # of connection points: 2
#     Edge 18, Type (0, 0), BuildingBlock: AJUNOK_clean_linker_0, # of connection points: 2
#     Edge 19, Type (0, 0), BuildingBlock: AJUNOK_clean_linker_0, # of connection points: 2
#     Edge 20, Type (0, 0), BuildingBlock: AJUNOK_clean_linker_0, # of connection points: 2
#     Edge 21, Type (0, 0), BuildingBlock: AJUNOK_clean_linker_0, # of connection points: 2
#     Edge 22, Type (0, 0), BuildingBlock: AJUNOK_clean_linker_0, # of connection points: 2
#     Edge 23, Type (0, 0), BuildingBlock: AJUNOK_clean_linker_0, # of connection points: 2
#     Edge 24, Type (0, 0), BuildingBlock: AJUNOK_clean_linker_0, # of connection points: 2
#     Edge 25, Type (0, 0), BuildingBlock: AJUNOK_clean_linker_0, # of connection points: 2
#     Edge 26, Type (0, 0), BuildingBlock: AJUNOK_clean_linker_0, # of connection points: 2
#     Edge 27, Type (0, 0), BuildingBlock: AJUNOK_clean_linker_0, # of connection points: 2
#     Edge 28, Type (0, 0), BuildingBlock: AJUNOK_clean_linker_0, # of connection points: 2
#     Edge 29, Type (0, 0), BuildingBlock: AJUNOK_clean_linker_0, # of connection points: 2
#     Edge 30, Type (0, 0), BuildingBlock: AJUNOK_clean_linker_0, # of connection points: 2
#     Edge 31, Type (0, 0), BuildingBlock: AJUNOK_clean_linker_0, # of connection points: 2
#     Edge 32, Type (0, 0), BuildingBlock: AJUNOK_clean_linker_0, # of connection points: 2
#     Edge 33, Type (0, 0), BuildingBlock: AJUNOK_clean_linker_0, # of connection points: 2
#     Edge 34, Type (0, 0), BuildingBlock: AJUNOK_clean_linker_0, # of connection points: 2
#     Edge 35, Type (0, 0), BuildingBlock: AJUNOK_clean_linker_0, # of connection points: 2
#     Edge 36, Type (0, 0), BuildingBlock: AJUNOK_clean_linker_0, # of connection points: 2
#     Edge 37, Type (0, 0), BuildingBlock: AJUNOK_clean_linker_0, # of connection points: 2
#     Edge 38, Type (0, 0), BuildingBlock: AJUNOK_clean_linker_0, # of connection points: 2
#     Edge 39, Type (0, 0), BuildingBlock: AJUNOK_clean_linker_0, # of connection points: 2
#     Edge 40, Type (0, 0), BuildingBlock: AJUNOK_clean_linker_0, # of connection points: 2
#     Edge 41, Type (0, 0), BuildingBlock: AJUNOK_clean_linker_0, # of connection points: 2
#     Edge 42, Type (0, 0), BuildingBlock: AJUNOK_clean_linker_0, # of connection points: 2
#     Edge 43, Type (0, 0), BuildingBlock: AJUNOK_clean_linker_0, # of connection points: 2
#     Edge 44, Type (0, 0), BuildingBlock: AJUNOK_clean_linker_0, # of connection points: 2
#     Edge 45, Type (0, 0), BuildingBlock: AJUNOK_clean_linker_0, # of connection points: 2
#     Edge 46, Type (0, 0), BuildingBlock: AJUNOK_clean_linker_0, # of connection points: 2
#     Edge 47, Type (0, 0), BuildingBlock: AJUNOK_clean_linker_0, # of connection points: 2
#     Edge 48, Type (0, 0), BuildingBlock: AJUNOK_clean_linker_0, # of connection points: 2
#     Edge 49, Type (0, 0), BuildingBlock: AJUNOK_clean_linker_0, # of connection points: 2
#     Edge 50, Type (0, 0), BuildingBlock: AJUNOK_clean_linker_0, # of connection points: 2
#     Edge 51, Type (0, 0), BuildingBlock: AJUNOK_clean_linker_0, # of connection points: 2
#     Edge 52, Type (0, 0), BuildingBlock: AJUNOK_clean_linker_0, # of connection points: 2
#     Edge 53, Type (0, 0), BuildingBlock: AJUNOK_clean_linker_0, # of connection points: 2
#     Edge 54, Type (0, 0), BuildingBlock: AJUNOK_clean_linker_0, # of connection points: 2
#     Edge 55, Type (0, 0), BuildingBlock: AJUNOK_clean_linker_0, # of connection points: 2
#     Edge 56, Type (0, 0), BuildingBlock: AJUNOK_clean_linker_0, # of connection points: 2
#     Edge 57, Type (0, 0), BuildingBlock: AJUNOK_clean_linker_0, # of connection points: 2
#     Edge 58, Type (0, 0), BuildingBlock: AJUNOK_clean_linker_0, # of connection points: 2
#     Edge 59, Type (0, 0), BuildingBlock: AJUNOK_clean_linker_0, # of connection points: 2
#     Edge 60, Type (0, 0), BuildingBlock: AJUNOK_clean_linker_0, # of connection points: 2
#     Edge 61, Type (0, 0), BuildingBlock: AJUNOK_clean_linker_0, # of connection points: 2
#     Edge 62, Type (0, 0), BuildingBlock: AJUNOK_clean_linker_0, # of connection points: 2
#     Edge 63, Type (0, 0), BuildingBlock: AJUNOK_clean_linker_0, # of connection points: 2
#     Edge 64, Type (0, 0), BuildingBlock: AJUNOK_clean_linker_0, # of connection points: 2
#     Edge 65, Type (0, 0), BuildingBlock: AJUNOK_clean_linker_0, # of connection points: 2
#     Edge 66, Type (0, 0), BuildingBlock: AJUNOK_clean_linker_0, # of connection points: 2
#     Edge 67, Type (0, 0), BuildingBlock: AJUNOK_clean_linker_0, # of connection points: 2
#     Edge 68, Type (0, 0), BuildingBlock: AJUNOK_clean_linker_0, # of connection points: 2
#     Edge 69, Type (0, 0), BuildingBlock: AJUNOK_clean_linker_0, # of connection points: 2
#     Edge 70, Type (0, 0), BuildingBlock: AJUNOK_clean_linker_0, # of connection points: 2
#     Edge 71, Type (0, 0), BuildingBlock: AJUNOK_clean_linker_0, # of connection points: 2
#     Edge 72, Type (0, 0), BuildingBlock: AJUNOK_clean_linker_0, # of connection points: 2
#     Edge 73, Type (0, 0), BuildingBlock: AJUNOK_clean_linker_0, # of connection points: 2
#     Edge 74, Type (0, 0), BuildingBlock: AJUNOK_clean_linker_0, # of connection points: 2
#     Edge 75, Type (0, 0), BuildingBlock: AJUNOK_clean_linker_0, # of connection points: 2
#     Edge 76, Type (0, 0), BuildingBlock: AJUNOK_clean_linker_0, # of connection points: 2
#     Edge 77, Type (0, 0), BuildingBlock: AJUNOK_clean_linker_0, # of connection points: 2
#     Edge 78, Type (0, 0), BuildingBlock: AJUNOK_clean_linker_0, # of connection points: 2
#     Edge 79, Type (0, 0), BuildingBlock: AJUNOK_clean_linker_0, # of connection points: 2
# Relax obj value: 0.126
# Max RMSD: 0.180
# Mean RMSD: 0.180
data_MOF--net-ecv--node1-TAGTUT_clean_sbu_1--edge1-AJUNOK_clean_linker_0
_symmetry_space_group_name_H-M    P1
_symmetry_Int_Tables_number       1
_symmetry_cell_setting            triclinic
loop_
_symmetry_equiv_pos_as_xyz
'x, y, z'
_cell_length_a     15.082963
_cell_length_b     20.39322
_cell_length_c     91.579785
_cell_angle_alpha  93.361587
_cell_angle_beta   90.043551
_cell_angle_gamma 90.220966
loop_
_atom_site_label
_atom_site_type_symbol
_atom_site_fract_x
_atom_site_fract_y
_atom_site_fract_z
_atom_type_partial_charge
C0 C 0.0577 0.08227 0.48931 0.0
C1 C 0.04101 0.02865 0.4458 0.0
C2 C 0.37645 0.06238 0.43711 0.0
Mg3 Mg 0.02995 0.16284 0.46284 0.0
O4 O 0.15358 0.16119 0.4619 0.0
Mg5 Mg 0.22038 0.07598 0.46418 0.0
Mg6 Mg 0.20727 0.18031 0.44303 0.0
O7 O 0.25512 0.19493 0.42329 0.0
Mg8 Mg 0.37414 0.18611 0.41829 0.0
Mg9 Mg 0.1805 0.26866 0.41617 0.0
C10 C 0.04296 0.29821 0.44663 0.0
C11 C 0.05425 0.14356 0.41734 0.0
O12 O 0.13094 0.06347 0.48349 0.0
O13 O 1.00826 0.12579 0.48393 0.0
O14 O 0.1189 0.0192 0.45068 0.0
O15 O 0.99687 0.08105 0.44876 0.0
O16 O 1.00225 0.26206 0.45556 0.0
O17 O 0.11705 0.27728 0.4406 0.0
C18 C 0.31778 0.20966 0.47476 0.0
O19 O 0.29693 0.23351 0.46228 0.0
O20 O 0.3091 0.14818 0.47679 0.0
O21 O 0.24949 0.25031 0.3922 0.0
O22 O 0.37133 0.18926 0.39545 0.0
O23 O 0.29263 0.3351 0.42285 0.0
C24 C 0.31878 0.219 0.38723 0.0
O25 O 0.41716 0.27789 0.42661 0.0
O26 O 0.414 0.09503 0.42732 0.0
C27 C 0.37351 0.33141 0.42673 0.0
O28 O 0.30541 0.08631 0.44367 0.0
O29 O 0.1003 0.12621 0.42824 0.0
O30 O 0.07108 0.19591 0.41086 0.0
C31 C 0.09296 0.15382 0.77358 0.0
C32 C 0.06865 0.22267 0.81411 0.0
C33 C 0.39477 0.19092 0.82873 0.0
Mg34 Mg 0.06616 0.0816 0.80031 0.0
O35 O 0.19067 0.07834 0.80351 0.0
Mg36 Mg 0.25247 0.16957 0.79942 0.0
Mg37 Mg 0.22925 0.06994 0.82315 0.0
O38 O 0.24762 0.07657 0.84489 0.0
Mg39 Mg 0.36698 0.08106 0.85069 0.0
Mg40 Mg 0.17621 0.99844 0.85111 0.0
C41 C 0.05684 0.95791 0.8196 0.0
C42 C 0.04931 0.1152 0.84346 0.0
O43 O 0.16135 0.17859 0.78004 0.0
O44 O 0.05143 0.10439 0.77818 0.0
O45 O 0.15146 0.22712 0.81183 0.0
O46 O 0.02316 0.17164 0.81037 0.0
O47 O 0.02313 0.99119 0.80952 0.0
O48 O 0.13112 0.97734 0.82594 0.0
C49 C 0.28364 0.06263 0.78278 0.0
O50 O 0.22891 0.05239 0.79387 0.0
O51 O 0.34377 0.10595 0.78515 0.0
O52 O 0.23203 0.02259 0.87581 0.0
O53 O 0.35492 0.08435 0.87347 0.0
O54 O 0.29094 0.93141 0.84778 0.0
C55 C 0.29916 0.05529 0.88132 0.0
O56 O 0.41622 0.98751 0.84451 0.0
O57 O 0.41987 0.16542 0.84046 0.0
C58 C 0.37341 0.93374 0.84505 0.0
O59 O 0.33086 0.16276 0.82099 0.0
O60 O 0.09918 0.12467 0.83225 0.0
O61 O 0.06605 0.0711 0.85245 0.0
C62 C 0.73041 0.80709 0.63499 0.0
C63 C 0.65623 0.69171 0.59773 0.0
C64 C 0.96426 0.70499 0.57263 0.0
Mg65 Mg 0.66525 0.83833 0.60438 0.0
O66 O 0.78693 0.83467 0.59958 0.0
Mg67 Mg 0.85423 0.75322 0.60519 0.0
Mg68 Mg 0.8002 0.82359 0.57787 0.0
O69 O 0.83286 0.82697 0.55756 0.0
Mg70 Mg 0.95424 0.82449 0.5523 0.0
Mg71 Mg 0.76978 0.91538 0.55269 0.0
C72 C 0.64009 0.94883 0.58285 0.0
C73 C 0.72315 0.80141 0.53951 0.0
O74 O 0.79986 0.77717 0.6297 0.0
O75 O 0.67387 0.83483 0.62707 0.0
O76 O 0.7369 0.68796 0.60158 0.0
O77 O 0.6161 0.7461 0.5967 0.0
O78 O 0.61373 0.92559 0.59477 0.0
O79 O 0.70206 0.91755 0.57534 0.0
C80 C 0.98359 0.86967 0.59734 0.0
O81 O 0.93319 0.87952 0.58617 0.0
O82 O 0.96662 0.82524 0.60631 0.0
O83 O 0.84675 0.91606 0.53157 0.0
O84 O 0.95523 0.84148 0.52959 0.0
O85 O 0.88137 0.97256 0.5626 0.0
C86 C 0.91056 0.88821 0.52454 0.0
O87 O 1.0063 0.9135 0.56175 0.0
O88 O 0.99357 0.73346 0.56146 0.0
C89 C 0.96399 0.96648 0.56489 0.0
O90 O 0.89797 0.73104 0.58022 0.0
O91 O 0.78463 0.79581 0.54974 0.0
O92 O 0.66799 0.84821 0.54149 0.0
C93 C 0.68935 0.98238 0.1396 0.0
C94 C 0.64668 0.07834 0.18134 0.0
C95 C 0.97557 0.05864 0.19742 0.0
Mg96 Mg 0.64748 0.93907 0.17025 0.0
O97 O 0.76882 0.94646 0.17321 0.0
Mg98 Mg 0.83665 0.02569 0.16722 0.0
Mg99 Mg 0.81766 0.93398 0.19282 0.0
O100 O 0.87006 0.91824 0.21183 0.0
Mg101 Mg 0.99286 0.92619 0.21352 0.0
Mg102 Mg 0.80763 0.83119 0.21401 0.0
C103 C 0.65208 0.81307 0.18726 0.0
C104 C 0.70106 0.95943 0.22376 0.0
O105 O 0.7626 0.01038 0.14392 0.0
O106 O 0.63816 0.95265 0.14806 0.0
O107 O 0.72323 0.08658 0.17583 0.0
O108 O 0.60646 0.02351 0.18139 0.0
O109 O 0.61131 0.84578 0.17791 0.0
O110 O 0.72435 0.83746 0.19335 0.0
C111 C 0.96757 0.90253 0.16657 0.0
O112 O 0.92557 0.88322 0.17775 0.0
O113 O 0.94745 0.9556 0.16055 0.0
O114 O 0.89521 0.82451 0.23359 0.0
O115 O 1.01283 0.89271 0.23472 0.0
O116 O 0.91474 0.7798 0.20111 0.0
C117 C 0.96588 0.84689 0.23977 0.0
O118 O 0.03289 0.84646 0.19953 0.0
O119 O 0.01716 0.02585 0.2068 0.0
C120 C 0.99251 0.79228 0.19651 0.0
O121 O 0.90523 0.03283 0.19093 0.0
O122 O 0.72333 0.98405 0.21144 0.0
O123 O 0.71143 0.89826 0.22582 0.0
C124 C 0.06481 0.57759 0.98777 0.0
C125 C 0.05442 0.52618 0.94547 0.0
C126 C 0.38958 0.55646 0.93608 0.0
Mg127 Mg 0.04931 0.66328 0.96198 0.0
O128 O 0.17595 0.66433 0.96051 0.0
Mg129 Mg 0.23367 0.57111 0.96365 0.0
Mg130 Mg 0.22683 0.67915 0.9416 0.0
O131 O 0.25421 0.67802 0.92022 0.0
Mg132 Mg 0.37584 0.67325 0.91615 0.0
Mg133 Mg 0.19051 0.76037 0.91463 0.0
C134 C 0.0594 0.79605 0.94475 0.0
C135 C 0.05614 0.64285 0.91868 0.0
O136 O 0.1363 0.55644 0.98179 0.0
O137 O 0.02237 0.62673 0.98318 0.0
O138 O 0.13514 0.51885 0.94905 0.0
O139 O 1.00945 0.57726 0.94933 0.0
O140 O 0.0173 0.76109 0.95381 0.0
O141 O 0.13463 0.77477 0.93915 0.0
C142 C 0.26572 0.67706 0.98183 0.0
O143 O 0.21542 0.69052 0.97047 0.0
O144 O 0.32061 0.63003 0.97989 0.0
O145 O 0.25392 0.7407 0.89042 0.0
O146 O 0.37685 0.68052 0.89354 0.0
O147 O 0.3091 0.8237 0.92079 0.0
C148 C 0.32388 0.71044 0.88542 0.0
O149 O 0.42606 0.76066 0.92533 0.0
O150 O 0.42128 0.5851 0.92521 0.0
C151 C 0.38886 0.81626 0.92498 0.0
O152 O 0.32311 0.58329 0.94342 0.0
O153 O 0.102 0.62906 0.93002 0.0
O154 O 0.07643 0.69047 0.91077 0.0
C155 C 0.10346 0.64711 0.27312 0.0
C156 C 0.04445 0.71923 0.31529 0.0
C157 C 0.3738 0.69949 0.33098 0.0
Mg158 Mg 0.0514 0.58166 0.30053 0.0
O159 O 0.17204 0.58834 0.3044 0.0
Mg160 Mg 0.23874 0.67404 0.30188 0.0
Mg161 Mg 0.21055 0.57667 0.32444 0.0
O162 O 0.24737 0.56942 0.34522 0.0
Mg163 Mg 0.36554 0.5804 0.35109 0.0
Mg164 Mg 0.17415 0.49338 0.35163 0.0
C165 C 0.05106 0.45577 0.3194 0.0
C166 C 0.0431 0.61382 0.34759 0.0
O167 O 0.16822 0.67349 0.28031 0.0
O168 O 0.05237 0.60383 0.27824 0.0
O169 O 0.12487 0.72849 0.31177 0.0
O170 O 1.00269 0.66562 0.31233 0.0
O171 O 0.01897 0.48696 0.30886 0.0
O172 O 0.12034 0.47954 0.32657 0.0
C173 C 0.33678 0.54696 0.29372 0.0
O174 O 0.30356 0.52231 0.3054 0.0
O175 O 0.34508 0.60901 0.29312 0.0
O176 O 0.23539 0.51373 0.37619 0.0
O177 O 0.3568 0.5772 0.37395 0.0
O178 O 0.29042 0.43024 0.34655 0.0
C179 C 0.30296 0.5459 0.38172 0.0
O180 O 0.41449 0.48896 0.34349 0.0
O181 O 0.40817 0.67081 0.34168 0.0
C182 C 0.37227 0.43457 0.34337 0.0
O183 O 0.30552 0.67258 0.32415 0.0
O184 O 0.0921 0.6306 0.33691 0.0
O185 O 0.06091 0.56419 0.35498 0.0
C186 C 0.73648 0.31618 0.13506 0.0
C187 C 0.653 0.19776 0.09889 0.0
C188 C 0.96268 0.19902 0.07203 0.0
Mg189 Mg 0.67146 0.34438 0.10428 0.0
O190 O 0.79198 0.33576 0.09854 0.0
Mg191 Mg 0.8557 0.25419 0.10477 0.0
Mg192 Mg 0.80359 0.32162 0.07668 0.0
O193 O 0.83401 0.32106 0.05614 0.0
Mg194 Mg 0.95466 0.31375 0.0502 0.0
Mg195 Mg 0.77538 0.4117 0.0513 0.0
C196 C 0.64794 0.45039 0.08151 0.0
C197 C 0.72347 0.30045 0.03801 0.0
O198 O 0.80231 0.28226 0.12955 0.0
O199 O 0.68217 0.3463 0.12717 0.0
O200 O 0.73487 0.1936 0.10188 0.0
O201 O 0.61402 0.25266 0.09797 0.0
O202 O 0.62208 0.42959 0.09372 0.0
O203 O 0.70886 0.41741 0.07407 0.0
C204 C 0.9925 0.36365 0.09574 0.0
O205 O 0.94206 0.37331 0.08453 0.0
O206 O 0.97251 0.32209 0.10521 0.0
O207 O 0.84972 0.41049 0.02995 0.0
O208 O 0.95787 0.33585 0.02751 0.0
O209 O 0.89164 0.4642 0.06075 0.0
C210 C 0.9123 0.38272 0.02262 0.0
O211 O 1.01209 0.39994 0.05947 0.0
O212 O 0.99167 0.2236 0.06033 0.0
C213 C 0.97413 0.45454 0.06262 0.0
O214 O 0.89737 0.22723 0.07952 0.0
O215 O 0.78518 0.29249 0.04816 0.0
O216 O 0.66942 0.34766 0.04046 0.0
C217 C 0.70848 0.46575 0.63751 0.0
C218 C 0.65281 0.5805 0.67646 0.0
C219 C 0.9726 0.55426 0.69831 0.0
Mg220 Mg 0.6509 0.43447 0.66855 0.0
O221 O 0.77103 0.4412 0.67314 0.0
Mg222 Mg 0.84571 0.516 0.66646 0.0
Mg223 Mg 0.812 0.43251 0.69352 0.0
O224 O 0.85262 0.42132 0.71354 0.0
Mg225 Mg 0.97212 0.42998 0.7177 0.0
Mg226 Mg 0.78541 0.33691 0.7165 0.0
C227 C 0.64426 0.31337 0.68796 0.0
C228 C 0.68552 0.46885 0.72325 0.0
O229 O 0.77925 0.49585 0.64239 0.0
O230 O 0.65423 0.43766 0.64579 0.0
O231 O 0.73352 0.58385 0.67244 0.0
O232 O 0.60941 0.52677 0.67676 0.0
O233 O 0.6077 0.34406 0.67777 0.0
O234 O 0.71508 0.33837 0.69439 0.0
C235 C 0.97203 0.39045 0.66937 0.0
O236 O 0.92586 0.37516 0.68051 0.0
O237 O 0.95462 0.44109 0.66226 0.0
O238 O 0.86067 0.33444 0.73778 0.0
O239 O 0.97494 0.40535 0.73987 0.0
O240 O 0.89768 0.28107 0.70617 0.0
C241 C 0.92735 0.35937 0.74473 0.0
O242 O 0.01802 0.34623 0.70578 0.0
O243 O 1.004 0.52482 0.70918 0.0
C244 C 0.97821 0.29188 0.70275 0.0
O245 O 0.90498 0.5284 0.69103 0.0
O246 O 0.71503 0.48968 0.71093 0.0
O247 O 0.68454 0.40752 0.72559 0.0
C248 C 0.62379 0.11945 0.99177 0.0
C249 C 0.57363 0.0356 0.95162 0.0
C250 C 0.89295 0.05644 0.93337 0.0
Mg251 Mg 0.57884 0.17881 0.96368 0.0
O252 O 0.701 0.17914 0.95878 0.0
Mg253 Mg 0.76545 0.09117 0.96381 0.0
Mg254 Mg 0.73294 0.18243 0.93856 0.0
O255 O 0.7445 0.17055 0.91683 0.0
Mg256 Mg 0.86331 0.16255 0.91075 0.0
Mg257 Mg 0.67765 0.25137 0.91092 0.0
C258 C 0.56516 0.29739 0.94297 0.0
C259 C 0.54674 0.13734 0.91964 0.0
O260 O 0.68779 0.09183 0.98475 0.0
O261 O 0.5767 0.16429 0.98647 0.0
O262 O 0.65651 0.03095 0.95386 0.0
O263 O 0.52995 0.08794 0.95472 0.0
O264 O 0.53541 0.26715 0.95385 0.0
O265 O 0.6363 0.27575 0.936 0.0
C266 C 0.80756 0.20591 0.97728 0.0
O267 O 0.74663 0.21072 0.96692 0.0
O268 O 0.86466 0.1604 0.97525 0.0
O269 O 0.73051 0.22601 0.88623 0.0
O270 O 0.84713 0.15815 0.88808 0.0
O271 O 0.79672 0.31522 0.91378 0.0
C272 C 0.79385 0.19048 0.88047 0.0
O273 O 0.91919 0.25546 0.91646 0.0
O274 O 0.91557 0.07803 0.92109 0.0
C275 C 0.87956 0.31038 0.91608 0.0
O276 O 0.83232 0.08818 0.94112 0.0
O277 O 0.59784 0.12769 0.93074 0.0
O278 O 0.56415 0.18054 0.9104 0.0
C279 C 0.5794 0.15833 0.27314 0.0
C280 C 0.54719 0.21891 0.31409 0.0
C281 C 0.8797 0.19591 0.32822 0.0
Mg282 Mg 0.55188 0.07975 0.29941 0.0
O283 O 0.67555 0.08164 0.30326 0.0
Mg284 Mg 0.73521 0.17378 0.29944 0.0
Mg285 Mg 0.71554 0.07348 0.32296 0.0
O286 O 0.73629 0.07895 0.34447 0.0
Mg287 Mg 0.8574 0.08359 0.34887 0.0
Mg288 Mg 0.66983 0.99792 0.35043 0.0
C289 C 0.54702 0.95677 0.3191 0.0
C290 C 0.5416 0.11752 0.34507 0.0
O291 O 0.64679 0.18266 0.27991 0.0
O292 O 0.53704 0.10852 0.27745 0.0
O293 O 0.62956 0.22694 0.31175 0.0
O294 O 0.50565 0.16606 0.31039 0.0
O295 O 0.51366 0.98722 0.30851 0.0
O296 O 0.6186 0.98 0.32569 0.0
C297 C 0.77192 0.06814 0.28291 0.0
O298 O 0.71676 0.05641 0.29383 0.0
O299 O 0.82988 0.11299 0.28537 0.0
O300 O 0.73326 0.01935 0.37462 0.0
O301 O 0.85313 0.08335 0.37136 0.0
O302 O 0.78498 0.93246 0.34561 0.0
C303 C 0.80159 0.05242 0.37954 0.0
O304 O 0.9064 0.9923 0.34155 0.0
O305 O 0.90902 0.16955 0.33953 0.0
C306 C 0.86637 0.93759 0.34222 0.0
O307 O 0.81457 0.16747 0.32084 0.0
O308 O 0.58855 0.12922 0.33361 0.0
O309 O 0.55948 0.07034 0.35323 0.0
C310 C 0.1977 0.79195 0.12594 0.0
C311 C 0.1562 0.6771 0.08684 0.0
C312 C 0.48553 0.71057 0.06878 0.0
Mg313 Mg 0.14899 0.82203 0.09452 0.0
O314 O 0.2701 0.81637 0.09115 0.0
Mg315 Mg 0.34427 0.74324 0.09862 0.0
Mg316 Mg 0.32075 0.82971 0.07173 0.0
O317 O 0.37503 0.84675 0.05289 0.0
Mg318 Mg 0.498 0.84321 0.05184 0.0
Mg319 Mg 0.30871 0.93157 0.05007 0.0
C320 C 0.15026 0.94624 0.07643 0.0
C321 C 0.20882 0.79747 0.04045 0.0
O322 O 0.27053 0.76311 0.12185 0.0
O323 O 0.14533 0.81827 0.11713 0.0
O324 O 0.23547 0.67478 0.09157 0.0
O325 O 0.112 0.72989 0.08593 0.0
O326 O 0.10861 0.91309 0.08565 0.0
O327 O 0.22355 0.92317 0.07054 0.0
C328 C 0.4664 0.87097 0.09817 0.0
O329 O 0.42392 0.88688 0.08676 0.0
O330 O 0.44971 0.81816 0.10448 0.0
O331 O 0.39924 0.94185 0.03082 0.0
O332 O 0.51942 0.87696 0.03057 0.0
O333 O 0.41041 0.98965 0.06318 0.0
C334 C 0.47264 0.922 0.02522 0.0
O335 O 0.53107 0.92668 0.06536 0.0
O336 O 0.52628 0.74487 0.05952 0.0
C337 C 0.48866 0.98015 0.06794 0.0
O338 O 0.41218 0.73342 0.07473 0.0
O339 O 0.23104 0.7745 0.05294 0.0
O340 O 0.21951 0.85832 0.03798 0.0
C341 C 0.22521 0.95801 0.63652 0.0
C342 C 0.15224 0.07726 0.67322 0.0
C343 C 0.46885 0.05643 0.69909 0.0
Mg344 Mg 0.15786 0.92971 0.66708 0.0
O345 O 0.27516 0.94016 0.67325 0.0
Mg346 Mg 0.35052 0.0144 0.6666 0.0
Mg347 Mg 0.31031 0.93378 0.69403 0.0
O348 O 0.34503 0.9248 0.7144 0.0
Mg349 Mg 0.46316 0.93524 0.71956 0.0
Mg350 Mg 0.27737 0.8401 0.71723 0.0
C351 C 0.14625 0.81237 0.6876 0.0
C352 C 0.17799 0.96978 0.72315 0.0
O353 O 0.29096 0.99219 0.64206 0.0
O354 O 0.1714 0.92691 0.64432 0.0
O355 O 0.23522 0.08009 0.67079 0.0
O356 O 0.10885 0.02337 0.67322 0.0
O357 O 0.1126 0.84129 0.67689 0.0
O358 O 0.21516 0.83841 0.69443 0.0
C359 C 0.47904 0.89242 0.67171 0.0
O360 O 0.42968 0.87727 0.68248 0.0
O361 O 0.46193 0.94125 0.66401 0.0
O362 O 0.34372 0.84148 0.73935 0.0
O363 O 0.45657 0.91354 0.74198 0.0
O364 O 0.39508 0.7852 0.70854 0.0
C365 C 0.40813 0.86758 0.74669 0.0
O366 O 0.51547 0.85048 0.70875 0.0
O367 O 0.49785 0.02862 0.71037 0.0
C368 C 0.47674 0.79561 0.70583 0.0
O369 O 0.40204 0.03015 0.69168 0.0
O370 O 0.21015 0.99114 0.71106 0.0
O371 O 0.16941 0.90813 0.72464 0.0
C372 C 0.61576 0.62231 0.49481 0.0
C373 C 0.55406 0.54738 0.45503 0.0
C374 C 0.87777 0.55872 0.43557 0.0
Mg375 Mg 0.5705 0.68921 0.46731 0.0
O376 O 0.69079 0.68437 0.4614 0.0
Mg377 Mg 0.75207 0.59435 0.46599 0.0
Mg378 Mg 0.72016 0.68585 0.44089 0.0
O379 O 0.72976 0.67332 0.41926 0.0
Mg380 Mg 0.84801 0.66364 0.41296 0.0
Mg381 Mg 0.66304 0.75354 0.41317 0.0
C382 C 0.55524 0.80471 0.44569 0.0
C383 C 0.5341 0.6384 0.42208 0.0
O384 O 0.6785 0.59469 0.48747 0.0
O385 O 0.57025 0.66931 0.49 0.0
O386 O 0.63699 0.53911 0.45669 0.0
O387 O 0.51513 0.60154 0.45826 0.0
O388 O 0.5285 0.77804 0.45728 0.0
O389 O 0.62313 0.77965 0.43833 0.0
C390 C 0.80392 0.70639 0.47903 0.0
O391 O 0.74079 0.71387 0.46913 0.0
O392 O 0.85791 0.65931 0.47649 0.0
O393 O 0.71501 0.72588 0.38855 0.0
O394 O 0.8281 0.65494 0.39052 0.0
O395 O 0.78312 0.81673 0.41544 0.0
C396 C 0.77612 0.688 0.38286 0.0
O397 O 0.90589 0.75684 0.41755 0.0
O398 O 0.90198 0.58006 0.42336 0.0
C399 C 0.86654 0.81185 0.41714 0.0
O400 O 0.81692 0.59085 0.44317 0.0
O401 O 0.58612 0.62928 0.43309 0.0
O402 O 0.54964 0.68238 0.41295 0.0
C403 C 0.57185 0.65998 0.775 0.0
C404 C 0.54972 0.71782 0.81632 0.0
C405 C 0.88597 0.69778 0.82822 0.0
Mg406 Mg 0.5559 0.57943 0.80093 0.0
O407 O 0.68151 0.58199 0.8034 0.0
Mg408 Mg 0.73542 0.67652 0.80007 0.0
Mg409 Mg 0.72701 0.57189 0.82266 0.0
O410 O 0.75035 0.57581 0.84416 0.0
Mg411 Mg 0.87083 0.584 0.84893 0.0
Mg412 Mg 0.68676 0.49353 0.84995 0.0
C413 C 0.56193 0.45228 0.81914 0.0
C414 C 0.5532 0.60978 0.84488 0.0
O415 O 0.64012 0.68504 0.78141 0.0
O416 O 0.53233 0.60912 0.77936 0.0
O417 O 0.63148 0.72705 0.81363 0.0
O418 O 0.50882 0.66483 0.81247 0.0
O419 O 0.5224 0.48463 0.80943 0.0
O420 O 0.63524 0.47547 0.82519 0.0
C421 C 0.77311 0.57379 0.78233 0.0
O422 O 0.72128 0.55911 0.79347 0.0
O423 O 0.82886 0.62017 0.78476 0.0
O424 O 0.74727 0.51557 0.87428 0.0
O425 O 0.86649 0.58081 0.87155 0.0
O426 O 0.80654 0.43233 0.84481 0.0
C427 C 0.81442 0.54904 0.8795 0.0
O428 O 0.92503 0.4957 0.841 0.0
O429 O 0.91653 0.67141 0.83946 0.0
C430 C 0.8875 0.43996 0.84132 0.0
O431 O 0.82135 0.66878 0.82079 0.0
O432 O 0.60033 0.62297 0.8336 0.0
O433 O 0.57221 0.56261 0.85298 0.0
C434 C 0.2129 0.29071 0.63061 0.0
C435 C 0.15053 0.18484 0.59126 0.0
C436 C 0.47205 0.20754 0.57043 0.0
Mg437 Mg 0.16063 0.32746 0.59995 0.0
O438 O 0.28183 0.32553 0.59592 0.0
Mg439 Mg 0.34695 0.24332 0.60134 0.0
Mg440 Mg 0.30467 0.32454 0.57437 0.0
O441 O 0.34945 0.33794 0.55512 0.0
Mg442 Mg 0.47495 0.33742 0.55259 0.0
Mg443 Mg 0.29327 0.43199 0.55225 0.0
C444 C 0.14259 0.44674 0.58092 0.0
C445 C 0.25768 0.32763 0.534 0.0
O446 O 0.28481 0.26261 0.62574 0.0
O447 O 0.15871 0.31879 0.62239 0.0
O448 O 0.22996 0.178 0.59565 0.0
O449 O 0.1133 0.2402 0.59048 0.0
O450 O 0.11365 0.41605 0.59166 0.0
O451 O 0.20682 0.42049 0.57293 0.0
C452 C 0.4785 0.36278 0.59681 0.0
O453 O 0.4312 0.37635 0.58556 0.0
O454 O 0.45974 0.31481 0.60473 0.0
O455 O 0.38784 0.44537 0.53362 0.0
O456 O 0.49751 0.37172 0.53121 0.0
O457 O 0.39609 0.48345 0.5662 0.0
C458 C 0.4567 0.42243 0.5271 0.0
O459 O 0.51962 0.42275 0.56465 0.0
O460 O 0.50991 0.24143 0.56077 0.0
C461 C 0.47815 0.47491 0.5688 0.0
O462 O 0.39888 0.2294 0.57663 0.0
O463 O 0.30973 0.31297 0.54511 0.0
O464 O 0.20283 0.37433 0.53644 0.0
C465 C 0.24103 0.44662 0.13411 0.0
C466 C 0.16264 0.57441 0.16843 0.0
C467 C 0.47495 0.55654 0.19656 0.0
Mg468 Mg 0.17106 0.42646 0.1648 0.0
O469 O 0.28971 0.43181 0.17115 0.0
Mg470 Mg 0.36115 0.50904 0.16446 0.0
Mg471 Mg 0.30399 0.44285 0.19302 0.0
O472 O 0.33645 0.44012 0.21319 0.0
Mg473 Mg 0.45894 0.44128 0.2181 0.0
Mg474 Mg 0.27351 0.35022 0.21804 0.0
C475 C 0.13879 0.32139 0.18776 0.0
C476 C 0.23907 0.45995 0.23317 0.0
O477 O 0.3076 0.48029 0.1396 0.0
O478 O 0.18499 0.41837 0.14205 0.0
O479 O 0.24597 0.57604 0.16652 0.0
O480 O 0.11967 0.52093 0.16935 0.0
O481 O 0.1162 0.34465 0.17566 0.0
O482 O 0.20133 0.3509 0.19561 0.0
C483 C 0.48898 0.39505 0.17373 0.0
O484 O 0.43816 0.38667 0.18495 0.0
O485 O 0.4716 0.43714 0.16429 0.0
O486 O 0.35711 0.34548 0.23839 0.0
O487 O 0.4692 0.41779 0.24047 0.0
O488 O 0.38056 0.29217 0.20741 0.0
C489 C 0.42396 0.37036 0.24524 0.0
O490 O 0.50578 0.3519 0.20915 0.0
O491 O 0.50435 0.52844 0.20777 0.0
C492 C 0.46404 0.29869 0.20598 0.0
O493 O 0.40328 0.5342 0.18979 0.0
O494 O 0.29589 0.46719 0.22219 0.0
O495 O 0.17839 0.41679 0.23098 0.0
C496 C 0.50887 0.39255 0.4328 0.0
C497 C 0.41625 0.39032 0.43267 0.0
C498 C 0.55264 0.44404 0.4401 0.0
C499 C 0.50492 0.49492 0.44743 0.0
H500 H 0.548 0.35368 0.42745 0.0
H501 H 0.62449 0.44352 0.43997 0.0
S502 S 0.26058 0.51376 0.44933 0.0
N503 N 0.27705 0.44409 0.43966 0.0
N504 N 0.36042 0.54233 0.45354 0.0
C505 C 0.41197 0.49474 0.44692 0.0
C506 C 0.36719 0.44204 0.43942 0.0
C507 C 0.90869 0.97851 0.43421 0.0
C508 C 1.00069 0.97767 0.43626 0.0
C509 C 0.86645 0.92657 0.42672 0.0
C510 C 0.91487 0.87173 0.42129 0.0
H511 H 0.86821 0.01802 0.43896 0.0
H512 H 0.79473 0.92782 0.42614 0.0
S513 S 0.15921 0.85507 0.4202 0.0
N514 N 0.14107 0.92509 0.42964 0.0
N515 N 0.06026 0.82524 0.41576 0.0
C516 C 1.00764 0.87319 0.42194 0.0
C517 C 0.051 0.92671 0.42947 0.0
C518 C 0.50973 0.87292 0.839 0.0
C519 C 0.41725 0.87303 0.84028 0.0
C520 C 0.55228 0.82136 0.83148 0.0
C521 C 0.50345 0.7684 0.82506 0.0
H522 H 0.54933 0.91417 0.84328 0.0
H523 H 0.62373 0.82409 0.83044 0.0
S524 S 0.26064 0.74083 0.82737 0.0
N525 N 0.2787 0.8122 0.83629 0.0
N526 N 0.35897 0.71556 0.82166 0.0
C527 C 0.41136 0.76574 0.82709 0.0
C528 C 0.36814 0.8179 0.83495 0.0
C529 C 0.93206 0.2788 0.82189 0.0
C530 C 0.0249 0.27692 0.82193 0.0
C531 C 0.88799 0.33107 0.82878 0.0
C532 C 0.93555 0.38291 0.83583 0.0
H533 H 0.89291 0.2405 0.81625 0.0
H534 H 0.8164 0.332 0.82803 0.0
S535 S 0.17881 0.39738 0.84053 0.0
N536 N 0.16333 0.3282 0.83061 0.0
N537 N 0.07886 0.42779 0.84359 0.0
C538 C 0.02819 0.38094 0.83639 0.0
C539 C 0.07342 0.32749 0.82939 0.0
C540 C 0.4766 0.57832 0.5841 0.0
C541 C 0.52504 0.52594 0.57746 0.0
C542 C 0.5197 0.63048 0.59145 0.0
C543 C 0.61229 0.63166 0.59239 0.0
H544 H 0.40495 0.57999 0.58338 0.0
H545 H 0.48039 0.67104 0.59603 0.0
S546 S 0.76914 0.50325 0.57811 0.0
N547 N 0.67004 0.47582 0.57315 0.0
N548 N 0.75144 0.57424 0.58715 0.0
C549 C 0.66148 0.57785 0.58655 0.0
C550 C 0.61766 0.52488 0.57896 0.0
C551 C 0.10296 0.021 0.57288 0.0
C552 C 1.01 0.02097 0.57243 0.0
C553 C 0.14852 0.0735 0.57964 0.0
C554 C 0.10205 0.1273 0.58596 0.0
H555 H 0.14095 0.98097 0.56775 0.0
H556 H 0.22036 0.07301 0.57941 0.0
S557 S 0.85873 0.14657 0.58962 0.0
N558 N 0.87279 0.0758 0.58029 0.0
N559 N 0.95956 0.17547 0.59283 0.0
C560 C 1.00928 0.12682 0.58617 0.0
C561 C 0.96279 0.0733 0.57939 0.0
C562 C 0.51053 0.13752 0.18679 0.0
C563 C 0.60275 0.13439 0.1879 0.0
C564 C 0.466 0.19143 0.19275 0.0
C565 C 0.51299 0.24331 0.19994 0.0
H566 H 0.47273 0.09879 0.18101 0.0
H567 H 0.39461 0.19278 0.19145 0.0
S568 S 0.75505 0.2533 0.2071 0.0
N569 N 0.73981 0.18299 0.19757 0.0
N570 N 0.6557 0.28639 0.20885 0.0
C571 C 0.60544 0.23987 0.20146 0.0
C572 C 0.65067 0.18464 0.19538 0.0
C573 C 0.98523 0.6877 0.1818 0.0
C574 C 0.03493 0.74274 0.18693 0.0
C575 C 0.02606 0.63513 0.17438 0.0
C576 C 0.11762 0.63621 0.1719 0.0
H577 H 0.915 0.6836 0.18406 0.0
H578 H 0.98648 0.59186 0.17145 0.0
S579 S 0.27194 0.77665 0.17947 0.0
N580 N 0.17655 0.80078 0.18666 0.0
N581 N 0.25323 0.70223 0.17206 0.0
C582 C 0.16589 0.69437 0.17524 0.0
C583 C 0.12456 0.7476 0.18305 0.0
C584 C 0.43537 0.97887 0.9441 0.0
C585 C 0.52834 0.98008 0.94433 0.0
C586 C 0.39039 0.92616 0.93733 0.0
C587 C 0.43728 0.87329 0.93068 0.0
H588 H 0.39689 0.01832 0.94936 0.0
H589 H 0.31864 0.92594 0.93774 0.0
S590 S 0.68071 0.85671 0.92669 0.0
N591 N 0.66601 0.92683 0.93624 0.0
N592 N 0.58029 0.8268 0.92355 0.0
C593 C 0.53007 0.87454 0.93042 0.0
C594 C 0.57605 0.9283 0.93727 0.0
C595 C 0.87723 0.42093 0.92799 0.0
C596 C 0.92622 0.36983 0.92097 0.0
C597 C 0.91979 0.47249 0.93558 0.0
C598 C 1.01253 0.47489 0.93621 0.0
H599 H 0.80546 0.41938 0.92842 0.0
H600 H 0.8795 0.50927 0.94141 0.0
S601 S 0.17002 0.36045 0.91684 0.0
N602 N 0.0709 0.32901 0.91318 0.0
N603 N 0.15242 0.42782 0.9273 0.0
C604 C 0.06245 0.42697 0.92821 0.0
C605 C 0.01876 0.37398 0.92055 0.0
C606 C 0.54919 0.32671 0.3274 0.0
C607 C 0.50097 0.27095 0.32229 0.0
C608 C 0.5074 0.37823 0.33497 0.0
C609 C 0.41618 0.37562 0.33764 0.0
H610 H 0.61973 0.33131 0.32547 0.0
H611 H 0.54678 0.42091 0.33843 0.0
S612 S 0.26114 0.23817 0.32746 0.0
N613 N 0.35817 0.21432 0.32087 0.0
N614 N 0.2792 0.31122 0.33559 0.0
C615 C 0.36754 0.31887 0.33318 0.0
C616 C 0.41002 0.2666 0.32527 0.0
C617 C 0.86417 0.8258 0.33093 0.0
C618 C 0.91266 0.87855 0.33747 0.0
C619 C 0.90768 0.77288 0.3241 0.0
C620 C 1.00046 0.77152 0.32375 0.0
H621 H 0.7924 0.82684 0.3304 0.0
H622 H 0.86841 0.7343 0.31858 0.0
S623 S 0.1559 0.8909 0.34243 0.0
N624 N 0.05638 0.92236 0.34528 0.0
N625 N 0.13936 0.82133 0.33267 0.0
C626 C 0.04952 0.82149 0.33133 0.0
C627 C 1.00512 0.8756 0.33817 0.0
C628 C 0.48022 0.08835 0.08138 0.0
C629 C 0.52968 0.03203 0.07723 0.0
C630 C 0.51895 0.14047 0.08946 0.0
C631 C 0.60804 0.13762 0.09369 0.0
H632 H 0.41164 0.09319 0.0781 0.0
H633 H 0.4797 0.18416 0.09187 0.0
S634 S 0.76258 0.99712 0.08733 0.0
N635 N 0.67017 0.97401 0.07889 0.0
N636 N 0.74197 0.07088 0.09479 0.0
C637 C 0.65641 0.07949 0.09058 0.0
C638 C 0.6176 0.02705 0.08206 0.0
C639 C 0.97735 0.55888 0.077 0.0
C640 C 0.02429 0.50706 0.06987 0.0
C641 C 0.0217 0.61296 0.08301 0.0
C642 C 0.11397 0.61657 0.08207 0.0
H643 H 0.90564 0.55853 0.07776 0.0
H644 H 0.98323 0.65276 0.08814 0.0
S645 S 0.2682 0.49048 0.06625 0.0
N646 N 0.16811 0.45933 0.06337 0.0
N647 N 0.25261 0.56282 0.07488 0.0
C648 C 0.16263 0.56359 0.07586 0.0
C649 C 0.11727 0.50817 0.06966 0.0
C650 C 0.4756 0.69138 0.69111 0.0
C651 C 0.52441 0.74395 0.69769 0.0
C652 C 0.51798 0.64023 0.68351 0.0
C653 C 0.61042 0.63989 0.68229 0.0
H654 H 0.40399 0.68907 0.69188 0.0
H655 H 0.47796 0.59989 0.67888 0.0
S656 S 0.76776 0.76968 0.6961 0.0
N657 N 0.66915 0.79587 0.70152 0.0
N658 N 0.74977 0.69851 0.68707 0.0
C659 C 0.66007 0.69378 0.68809 0.0
C660 C 0.61672 0.74613 0.6959 0.0
C661 C 0.97463 0.18701 0.68818 0.0
C662 C 0.02362 0.24129 0.69391 0.0
C663 C 0.0162 0.1359 0.68039 0.0
C664 C 0.10796 0.1375 0.67816 0.0
H665 H 0.90387 0.18287 0.68996 0.0
H666 H 0.97656 0.09368 0.6767 0.0
S667 S 0.26308 0.27463 0.6885 0.0
N668 N 0.16632 0.29807 0.69527 0.0
N669 N 0.24484 0.20195 0.68019 0.0
C670 C 0.15663 0.19415 0.68267 0.0
C671 C 0.11435 0.24603 0.69077 0.0
C672 C 0.50526 0.98094 0.4339 0.0
C673 C 0.41985 0.99618 0.43988 0.0
C674 C 0.54705 0.91892 0.43503 0.0
C675 C 0.50606 0.86762 0.44218 0.0
H676 H 0.54143 0.01776 0.42825 0.0
H677 H 0.61314 0.91195 0.4306 0.0
S678 S 0.2803 0.87813 0.459 0.0
N679 N 0.29561 0.95169 0.45279 0.0
N680 N 0.3711 0.83624 0.45477 0.0
C681 C 0.41972 0.88158 0.44794 0.0
C682 C 0.37773 0.94501 0.44687 0.0
C683 C 0.03927 0.40997 0.43465 0.0
C684 C 1.00164 0.36557 0.44415 0.0
C685 C 1.00056 0.4723 0.43253 0.0
C686 C 0.92193 0.49488 0.43982 0.0
H687 H 0.09894 0.39639 0.42866 0.0
H688 H 0.03275 0.50302 0.42485 0.0
S689 S 0.79644 0.39959 0.46626 0.0
N690 N 0.8798 0.35106 0.46129 0.0
N691 N 0.80945 0.46642 0.45717 0.0
C692 C 0.88464 0.4517 0.44955 0.0
C693 C 0.92353 0.38802 0.45171 0.0
C694 C 0.4008 0.30228 0.8168 0.0
C695 C 0.44085 0.25532 0.82532 0.0
C696 C 0.43964 0.36519 0.81525 0.0
C697 C 0.52105 0.38543 0.8221 0.0
H698 H 0.33774 0.29112 0.81155 0.0
H699 H 0.40454 0.39852 0.80854 0.0
S700 S 0.65566 0.2808 0.84532 0.0
N701 N 0.56983 0.23401 0.84046 0.0
N702 N 0.6401 0.35093 0.83759 0.0
C703 C 0.56202 0.33876 0.83054 0.0
C704 C 0.52292 0.27457 0.8321 0.0
C705 C 1.01051 0.78212 0.83173 0.0
C706 C 0.92837 0.76342 0.82497 0.0
C707 C 0.0499 0.84484 0.83048 0.0
C708 C 1.01015 0.89303 0.82232 0.0
H709 H 0.04538 0.74782 0.83824 0.0
H710 H 0.11245 0.85541 0.8359 0.0
S711 S 0.79168 0.87239 0.80316 0.0
N712 N 0.80732 0.801 0.81033 0.0
N713 N 0.87943 0.91759 0.80781 0.0
C714 C 0.92707 0.87541 0.81565 0.0
C715 C 0.88712 0.81134 0.81695 0.0
C716 C 0.47971 0.09881 0.58366 0.0
C717 C 0.51525 0.14144 0.57356 0.0
C718 C 0.51927 0.03707 0.58617 0.0
C719 C 0.59653 0.0132 0.57866 0.0
H720 H 0.42072 0.11315 0.58976 0.0
H721 H 0.48844 0.00769 0.59424 0.0
S722 S 0.71707 0.10418 0.55085 0.0
N723 N 0.63457 0.15342 0.55585 0.0
N724 N 0.70569 0.03894 0.56052 0.0
C725 C 0.63204 0.05488 0.56842 0.0
C726 C 0.59257 0.11806 0.56593 0.0
C727 C 0.11561 0.55133 0.56688 0.0
C728 C 0.09804 0.51323 0.57886 0.0
C729 C 0.07274 0.61248 0.56526 0.0
C730 C 1.0097 0.63996 0.57551 0.0
H731 H 0.16241 0.53372 0.5586 0.0
H732 H 0.08927 0.63825 0.55562 0.0
S733 S 0.94138 0.56265 0.60934 0.0
N734 N 1.01262 0.51019 0.6016 0.0
N735 N 0.93511 0.62366 0.59834 0.0
C736 C 0.99234 0.60298 0.58761 0.0
C737 C 0.03547 0.54055 0.58931 0.0
C738 C 0.48098 0.67058 0.18635 0.0
C739 C 0.52414 0.61891 0.19288 0.0
C740 C 0.52248 0.7325 0.18509 0.0
C741 C 0.61005 0.74693 0.19023 0.0
H742 H 0.41349 0.6638 0.18256 0.0
H743 H 0.48447 0.76984 0.17998 0.0
S744 S 0.75621 0.62707 0.20722 0.0
N745 N 0.66316 0.58581 0.20393 0.0
N746 N 0.7394 0.70124 0.20146 0.0
C747 C 0.65473 0.69525 0.19652 0.0
C748 C 0.61256 0.63193 0.19782 0.0
C749 C 0.12898 0.213 0.20086 0.0
C750 C 0.09188 0.25755 0.19142 0.0
C751 C 0.09094 0.1499 0.20251 0.0
C752 C 1.01354 0.12685 0.19481 0.0
H753 H 0.18942 0.22609 0.20674 0.0
H754 H 0.1239 0.1185 0.20993 0.0
S755 S 0.88649 0.22488 0.16917 0.0
N756 N 0.9686 0.27405 0.17469 0.0
N757 N 0.90078 0.15642 0.17761 0.0
C758 C 0.97499 0.17131 0.18554 0.0
C759 C 1.01295 0.23586 0.18392 0.0
C760 C 0.51895 0.47643 0.93304 0.0
C761 C 0.43317 0.49084 0.93892 0.0
C762 C 0.55984 0.41397 0.93367 0.0
C763 C 0.51734 0.36149 0.94016 0.0
H764 H 0.55578 0.51421 0.9278 0.0
H765 H 0.62616 0.40738 0.92932 0.0
S766 S 0.29031 0.37029 0.95657 0.0
N767 N 0.30719 0.44504 0.95112 0.0
N768 N 0.38096 0.32851 0.95217 0.0
C769 C 0.43082 0.3749 0.94591 0.0
C770 C 0.38985 0.43885 0.94538 0.0
C771 C 0.93757 0.88413 0.94836 0.0
C772 C 0.01922 0.86335 0.94176 0.0
C773 C 0.89886 0.94679 0.94635 0.0
C774 C 0.9391 0.99297 0.93755 0.0
H775 H 0.90214 0.85134 0.9552 0.0
H776 H 0.83558 0.95824 0.95144 0.0
S777 S 0.1558 0.96673 0.91833 0.0
N778 N 0.13964 0.89749 0.92643 0.0
N779 N 0.06932 0.01326 0.92266 0.0
C780 C 0.02173 0.97337 0.93113 0.0
C781 C 0.06085 0.90967 0.93319 0.0
C782 C 0.49903 0.78487 0.33385 0.0
C783 C 0.41696 0.76463 0.32725 0.0
C784 C 0.53972 0.84658 0.33161 0.0
C785 C 0.50072 0.89249 0.32267 0.0
H786 H 0.5331 0.75246 0.34092 0.0
H787 H 0.60291 0.85789 0.33681 0.0
S788 S 0.28435 0.86645 0.30312 0.0
N789 N 0.29857 0.79789 0.31151 0.0
N790 N 0.37167 0.91262 0.30742 0.0
C791 C 0.41797 0.87316 0.31612 0.0
C792 C 0.37729 0.81005 0.31833 0.0
C793 C 0.04504 0.34245 0.33037 0.0
C794 C 1.00526 0.39059 0.32218 0.0
C795 C 1.00541 0.27973 0.33165 0.0
C796 C 0.92329 0.26102 0.32487 0.0
H797 H 0.10778 0.353 0.33575 0.0
H798 H 0.03996 0.24545 0.33821 0.0
S799 S 0.78707 0.36969 0.30291 0.0
N800 N 0.87468 0.41491 0.3076 0.0
N801 N 0.80271 0.2984 0.31012 0.0
C802 C 0.88237 0.30879 0.31678 0.0
C803 C 0.92231 0.3728 0.31546 0.0
C804 C 0.48759 0.60005 0.08141 0.0
C805 C 0.52664 0.6436 0.07185 0.0
C806 C 0.5257 0.53783 0.08393 0.0
C807 C 0.60512 0.51444 0.07699 0.0
H808 H 0.42707 0.61413 0.0871 0.0
H809 H 0.49224 0.50775 0.09159 0.0
S810 S 0.73538 0.60774 0.05079 0.0
N811 N 0.65149 0.65668 0.05522 0.0
N812 N 0.72048 0.54158 0.06004 0.0
C813 C 0.64414 0.55691 0.06728 0.0
C814 C 0.60592 0.62048 0.06473 0.0
C815 C 0.14128 0.07115 0.08038 0.0
C816 C 0.10871 0.01195 0.07348 0.0
C817 C 0.09108 0.13045 0.08096 0.0
C818 C 1.00414 0.13352 0.07516 0.0
H819 H 0.20555 0.07143 0.08567 0.0
H820 H 0.12133 0.17467 0.08583 0.0
S821 S 0.8899 0.99392 0.05509 0.0
N822 N 0.9841 0.9617 0.06036 0.0
N823 N 0.89187 0.07176 0.06122 0.0
C824 C 0.97172 0.07484 0.06809 0.0
C825 C 0.02277 0.01478 0.06744 0.0
C826 C 0.47695 0.16726 0.68697 0.0
C827 C 0.51642 0.11997 0.69545 0.0
C828 C 0.51778 0.22918 0.68506 0.0
C829 C 0.60111 0.2479 0.69143 0.0
H830 H 0.41319 0.15683 0.68193 0.0
H831 H 0.48291 0.26289 0.6784 0.0
S832 S 0.73774 0.14023 0.71364 0.0
N833 N 0.64829 0.09581 0.70965 0.0
N834 N 0.72297 0.21052 0.70594 0.0
C835 C 0.64216 0.20049 0.69966 0.0
C836 C 0.60073 0.13743 0.70165 0.0
C837 C 0.98025 0.6654 0.68622 0.0
C838 C 0.01894 0.61877 0.69498 0.0
C839 C 0.0206 0.72759 0.68439 0.0
C840 C 0.10256 0.74723 0.69113 0.0
H841 H 0.91772 0.65416 0.68082 0.0
H842 H 0.9866 0.7607 0.67747 0.0
S843 S 0.23629 0.64227 0.71438 0.0
N844 N 0.14843 0.59679 0.70999 0.0
N845 N 0.2219 0.71194 0.70642 0.0
C846 C 0.14253 0.70075 0.69972 0.0
C847 C 0.10174 0.63743 0.70162 0.0
C848 C 0.32399 0.16067 0.36283 0.0
C849 C 0.34661 0.21696 0.37169 0.0
C850 C 0.38387 0.13311 0.3524 0.0
C851 C 0.46824 0.16108 0.35035 0.0
H852 H 0.26514 0.13281 0.36532 0.0
H853 H 0.36785 0.08575 0.34704 0.0
S854 S 0.55406 0.31364 0.36932 0.0
N855 N 0.45406 0.30445 0.37627 0.0
N856 N 0.56704 0.25192 0.35701 0.0
C857 C 0.48723 0.22133 0.35792 0.0
C858 C 0.42589 0.24972 0.36841 0.0
C859 C 0.8225 0.10346 0.40416 0.0
C860 C 0.83697 0.0486 0.39444 0.0
C861 C 0.8921 0.13089 0.41277 0.0
C862 C 0.97771 0.10367 0.41206 0.0
H863 H 0.76137 0.13089 0.40352 0.0
H864 H 0.88094 0.17694 0.419 0.0
S865 S 0.04684 0.95589 0.38992 0.0
N866 N 0.94016 0.96313 0.38628 0.0
N867 N 0.07097 0.01612 0.40209 0.0
C868 C 0.9902 0.04475 0.4038 0.0
C869 C 0.91906 0.01606 0.39529 0.0
C870 C 0.38423 0.13113 0.91572 0.0
C871 C 0.46565 0.09767 0.91641 0.0
C872 C 0.31652 0.10885 0.90602 0.0
C873 C 0.32777 0.0521 0.89673 0.0
H874 H 0.37739 0.1793 0.92125 0.0
H875 H 0.26122 0.14125 0.90427 0.0
S876 S 0.52139 0.94097 0.89611 0.0
N877 N 0.54846 1.00086 0.90824 0.0
N878 N 0.41959 0.95707 0.89077 0.0
C879 C 0.40256 0.01293 0.89911 0.0
C880 C 0.47252 0.0365 0.90866 0.0
C881 C 0.81589 0.14339 0.85536 0.0
C882 C 0.82602 0.19768 0.86542 0.0
C883 C 0.88616 0.12245 0.84612 0.0
C884 C 0.96894 0.15478 0.84674 0.0
H885 H 0.75875 0.11143 0.85614 0.0
H886 H 0.87942 0.07587 0.83988 0.0
S887 S 0.02379 0.30513 0.86962 0.0
N888 N 0.91912 0.28991 0.8735 0.0
N889 N 0.05306 0.2476 0.85712 0.0
C890 C 0.97569 0.21373 0.85536 0.0
C891 C 0.90298 0.23644 0.86429 0.0
C892 C 0.55833 0.79202 0.66174 0.0
C893 C 0.56168 0.85609 0.66819 0.0
C894 C 0.62961 0.76701 0.65323 0.0
C895 C 0.70426 0.80646 0.65046 0.0
H896 H 0.49718 0.76404 0.66191 0.0
H897 H 0.61946 0.72123 0.64681 0.0
S898 S 0.75434 0.96937 0.66852 0.0
N899 N 0.65379 0.95165 0.6743 0.0
N900 N 0.78564 0.9055 0.65784 0.0
C901 C 0.71398 0.86553 0.65894 0.0
C902 C 0.64229 0.89072 0.66773 0.0
C903 C 0.14531 0.88008 0.60194 0.0
C904 C 0.06233 0.91119 0.60108 0.0
C905 C 0.2112 0.90422 0.61179 0.0
C906 C 0.19643 0.96044 0.6211 0.0
H907 H 0.15513 0.83233 0.59635 0.0
H908 H 0.26815 0.8735 0.6136 0.0
S909 S 0.99668 0.06552 0.62145 0.0
N910 N 0.97373 0.0052 0.60918 0.0
N911 N 0.09886 0.0523 0.62702 0.0
C912 C 0.11949 0.99723 0.61865 0.0
C913 C 0.05155 0.97185 0.60891 0.0
C914 C 0.68278 0.91948 0.11621 0.0
C915 C 0.66022 0.97773 0.12429 0.0
C916 C 0.62159 0.88767 0.10663 0.0
C917 C 0.53671 0.91388 0.10459 0.0
H918 H 0.74321 0.89385 0.11874 0.0
H919 H 0.6383 0.8398 0.10165 0.0
S920 S 0.44963 0.06924 0.12167 0.0
N921 N 0.55101 0.06383 0.12833 0.0
N922 N 0.43624 1.00422 0.11025 0.0
C923 C 0.51685 0.97541 0.11135 0.0
C924 C 0.57916 0.00773 0.12109 0.0
C925 C 0.02611 0.79959 0.154 0.0
C926 C 0.04155 0.86317 0.16021 0.0
C927 C 0.08933 0.76825 0.14476 0.0
C928 C 0.16918 0.79995 0.14127 0.0
H929 H 0.96217 0.77626 0.1553 0.0
H930 H 0.07059 0.72275 0.13883 0.0
S931 S 0.24727 0.96113 0.15708 0.0
N932 N 0.14755 0.95228 0.16419 0.0
N933 N 0.26543 0.89371 0.14663 0.0
C934 C 0.1893 0.8599 0.14886 0.0
C935 C 0.12512 0.89189 0.15823 0.0
C936 C 0.49597 0.71205 0.8576 0.0
C937 C 0.47821 0.65197 0.84985 0.0
C938 C 0.4331 0.74096 0.86729 0.0
C939 C 0.35178 0.70943 0.86997 0.0
H940 H 0.5618 0.73337 0.85732 0.0
H941 H 0.45376 0.78287 0.87432 0.0
S942 S 0.26723 0.55877 0.85016 0.0
N943 N 0.36803 0.56818 0.84352 0.0
N944 N 0.25128 0.62146 0.86211 0.0
C945 C 0.32918 0.65424 0.86085 0.0
C946 C 0.39266 0.62516 0.85086 0.0
C947 C 0.99241 0.54273 0.90578 0.0
C948 C 0.97878 0.60239 0.91388 0.0
C949 C 0.92531 0.51471 0.89673 0.0
C950 C 0.84442 0.54765 0.89479 0.0
H951 H 0.05775 0.52085 0.90535 0.0
H952 H 0.94242 0.47286 0.88945 0.0
S953 S 0.77118 0.69862 0.91559 0.0
N954 N 0.87344 0.68729 0.92138 0.0
N955 N 0.74949 0.63677 0.90364 0.0
C956 C 0.82645 0.60269 0.90421 0.0
C957 C 0.89384 0.6303 0.91373 0.0
C958 C 0.40823 0.51008 0.40017 0.0
C959 C 0.32965 0.54453 0.39731 0.0
C960 C 0.471 0.5354 0.41046 0.0
C961 C 0.45652 0.59538 0.41845 0.0
H962 H 0.42761 0.46881 0.39289 0.0
H963 H 0.53561 0.51246 0.41072 0.0
S964 S 0.25092 0.69384 0.41816 0.0
N965 N 0.23329 0.6338 0.40557 0.0
N966 N 0.34986 0.68049 0.42511 0.0
C967 C 0.37224 0.62402 0.41742 0.0
C968 C 0.30883 0.59859 0.40686 0.0
C969 C 0.80486 0.6365 0.35855 0.0
C970 C 0.80942 0.69372 0.36787 0.0
C971 C 0.8793 0.61437 0.35046 0.0
C972 C 0.96004 0.64927 0.35128 0.0
H973 H 0.74876 0.6035 0.35927 0.0
H974 H 0.87642 0.56629 0.34477 0.0
S975 S 1.00107 0.80695 0.37201 0.0
N976 N 0.89608 0.79028 0.37533 0.0
N977 N 0.03666 0.74716 0.36062 0.0
C978 C 0.96148 0.71075 0.35886 0.0
C979 C 0.88506 0.73402 0.36681 0.0
C980 C 0.6513 0.39172 0.16966 0.0
C981 C 0.57106 0.35648 0.1707 0.0
C982 C 0.71819 0.3709 0.1597 0.0
C983 C 0.70776 0.31362 0.15052 0.0
H984 H 0.65729 0.44022 0.17509 0.0
H985 H 0.7721 0.40452 0.15774 0.0
S986 S 0.51865 0.19742 0.15107 0.0
N987 N 0.4912 0.25713 0.16315 0.0
N988 N 0.61843 0.21613 0.14513 0.0
C989 C 0.63458 0.27288 0.15323 0.0
C990 C 0.56549 0.2949 0.16309 0.0
C991 C 0.14199 0.48637 0.11524 0.0
C992 C 0.21459 0.44604 0.11848 0.0
C993 C 0.07358 0.46357 0.10568 0.0
C994 C 0.07677 0.40042 0.09866 0.0
H995 H 0.13074 0.53136 0.12186 0.0
H996 H 1.01326 0.49206 0.10527 0.0
S997 S 0.2638 0.28363 0.10018 0.0
N998 N 0.29325 0.34573 0.11158 0.0
N999 N 0.16737 0.30414 0.09323 0.0
C1000 C 0.15583 0.36469 0.09993 0.0
C1001 C 0.22448 0.38739 0.10984 0.0
C1002 C 0.53733 0.46553 0.60935 0.0
C1003 C 0.55414 0.40488 0.60183 0.0
C1004 C 0.60033 0.49478 0.61905 0.0
C1005 C 0.68084 0.46308 0.622 0.0
H1006 H 0.47196 0.48716 0.60889 0.0
H1007 H 0.58021 0.53733 0.62588 0.0
S1008 S 0.7629 0.31025 0.60294 0.0
N1009 N 0.66285 0.31998 0.59604 0.0
N1010 N 0.77958 0.37374 0.61469 0.0
C1011 C 0.70265 0.40703 0.61313 0.0
C1012 C 0.63911 0.37768 0.6031 0.0
C1013 C 0.10588 0.25872 0.64895 0.0
C1014 C 0.18491 0.29308 0.64606 0.0
C1015 C 0.03889 0.28752 0.65789 0.0
C1016 C 0.04998 0.35087 0.66452 0.0
H1017 H 0.0901 0.2138 0.64254 0.0
H1018 H 0.97529 0.26292 0.65843 0.0
S1019 S 0.25355 0.45288 0.66384 0.0
N1020 N 0.27674 0.38745 0.65304 0.0
N1021 N 0.15228 0.44102 0.67006 0.0
C1022 C 0.13351 0.38105 0.66351 0.0
C1023 C 0.20128 0.35176 0.65441 0.0
C1024 C 0.34134 0.2524 0.5157 0.0
C1025 C 0.27971 0.30351 0.51842 0.0
C1026 C 0.36126 0.22736 0.50135 0.0
C1027 C 0.32166 0.25242 0.48881 0.0
H1028 H 0.37259 0.22976 0.52478 0.0
H1029 H 0.40463 0.18519 0.5001 0.0
S1030 S 0.1633 0.39163 0.48954 0.0
N1031 N 0.18505 0.38238 0.50698 0.0
N1032 N 0.22238 0.3354 0.48026 0.0
C1033 C 0.26435 0.30642 0.49131 0.0
C1034 C 0.24327 0.33165 0.50597 0.0
C1035 C 0.89626 0.96607 0.50513 0.0
C1036 C 0.95137 0.92824 0.51367 0.0
C1037 C 0.9299 0.01994 0.49817 0.0
C1038 C 0.01973 0.03778 0.49959 0.0
H1039 H 0.82599 0.95517 0.50423 0.0
H1040 H 0.88578 0.04641 0.49129 0.0
S1041 S 0.19068 0.9567 0.5213 0.0
N1042 N 0.09956 0.91338 0.52353 0.0
N1043 N 0.16271 0.01486 0.5104 0.0
C1044 C 0.07542 1.00054 0.50815 0.0
C1045 C 0.04148 0.94536 0.5151 0.0
C1046 C 0.15098 0.98467 0.75027 0.0
C1047 C 0.19271 0.0075 0.73768 0.0
C1048 C 0.18195 1.00141 0.76456 0.0
C1049 C 0.25589 0.04289 0.7672 0.0
H1050 H 0.09619 0.95027 0.74905 0.0
H1051 H 0.14759 0.98098 0.77364 0.0
S1052 S 0.38646 0.12072 0.73831 0.0
N1053 N 0.31076 0.07677 0.72907 0.0
N1054 N 0.36731 0.10973 0.75575 0.0
C1055 C 0.29624 0.06858 0.75477 0.0
C1056 C 0.26483 0.05105 0.74015 0.0
C1057 C 0.09652 0.24211 0.75656 0.0
C1058 C 0.04596 0.19905 0.76461 0.0
C1059 C 0.0594 0.29908 0.75161 0.0
C1060 C 0.96992 0.31455 0.75436 0.0
H1061 H 0.1662 0.23262 0.75448 0.0
H1062 H 0.10016 0.32929 0.74492 0.0
S1063 S 0.81006 0.21967 0.77547 0.0
N1064 N 0.90281 0.177 0.77571 0.0
N1065 N 0.83214 0.28371 0.76584 0.0
C1066 C 0.9187 0.27227 0.76247 0.0
C1067 C 0.95659 0.21424 0.76759 0.0
C1068 C 0.72279 0.78 0.49764 0.0
C1069 C 0.78883 0.73244 0.49453 0.0
C1070 C 0.69945 0.80002 0.51212 0.0
C1071 C 0.74101 0.77352 0.52425 0.0
H1072 H 0.6878 0.80164 0.48879 0.0
H1073 H 0.6492 0.83751 0.51376 0.0
S1074 S 0.91733 0.64653 0.52235 0.0
N1075 N 0.89523 0.659 0.50507 0.0
N1076 N 0.85085 0.69601 0.53208 0.0
C1077 C 0.8068 0.72561 0.52132 0.0
C1078 C 0.83105 0.70551 0.50658 0.0
C1079 C 0.65888 0.97517 0.25024 0.0
C1080 C 0.69782 1.00144 0.23779 0.0
C1081 C 0.68281 0.99714 0.2646 0.0
C1082 C 0.74737 0.04647 0.26736 0.0
H1083 H 0.61363 0.93387 0.24886 0.0
H1084 H 0.65223 0.9736 0.27364 0.0
S1085 S 0.86085 0.13854 0.23876 0.0
N1086 N 0.798 0.08468 0.22937 0.0
N1087 N 0.84244 0.12637 0.25617 0.0
C1088 C 0.78239 0.07649 0.25504 0.0
C1089 C 0.7574 0.05428 0.24037 0.0
C1090 C 0.97941 0.70846 0.26407 0.0
C1091 C 0.06758 0.68789 0.26215 0.0
C1092 C 0.94958 0.7652 0.25804 0.0
C1093 C 1.00627 0.80245 0.24962 0.0
H1094 H 0.93439 0.68299 0.27104 0.0
H1095 H 0.88075 0.77905 0.25959 0.0
S1096 S 0.24139 0.76587 0.24046 0.0
N1097 N 0.21063 0.70687 0.251 0.0
N1098 N 0.15342 0.813 0.23895 0.0
C1099 C 0.09425 0.78165 0.24734 0.0
C1100 C 0.12479 0.72396 0.25361 0.0
C1101 C 0.26566 0.70394 0.02395 0.0
C1102 C 0.2017 0.75341 0.02675 0.0
C1103 C 0.28511 0.67915 0.00953 0.0
C1104 C 0.24162 0.70252 0.99718 0.0
H1105 H 0.30609 0.68781 0.03283 0.0
H1106 H 0.33697 0.64279 1.00807 0.0
S1107 S 0.06066 0.82608 0.99867 0.0
N1108 N 0.08943 0.82041 0.01595 0.0
N1109 N 0.12479 0.77404 0.98913 0.0
C1110 C 0.17349 0.74888 0.99995 0.0
C1111 C 0.15382 0.774 0.0146 0.0
C1112 C 0.07649 0.49055 1.00533 0.0
C1113 C 0.02216 0.53213 0.99749 0.0
C1114 C 0.04129 0.43665 0.01207 0.0
C1115 C 0.95017 0.42256 0.01136 0.0
H1116 H 0.14729 0.4994 1.00613 0.0
H1117 H 0.08517 0.40824 0.01861 0.0
S1118 S 0.78008 0.51267 0.99134 0.0
N1119 N 0.87334 0.55284 0.98859 0.0
N1120 N 0.80663 0.45218 1.00172 0.0
C1121 C 0.89527 0.46265 1.00328 0.0
C1122 C 0.93117 0.51757 0.99635 0.0
C1123 C 0.25423 0.46936 0.27554 0.0
C1124 C 0.32602 0.51263 0.27869 0.0
C1125 C 0.22535 0.45378 0.26097 0.0
C1126 C 0.2658 0.48128 0.24875 0.0
H1127 H 0.2169 0.44992 0.28442 0.0
H1128 H 0.17008 0.42012 0.25931 0.0
S1129 S 0.45827 0.59579 0.2508 0.0
N1130 N 0.43942 0.57998 0.268 0.0
N1131 N 0.38303 0.55358 0.24109 0.0
C1132 C 0.33833 0.52376 0.25176 0.0
C1133 C 0.36907 0.53822 0.2665 0.0
C1134 C 0.83069 0.20771 1.00482 0.0
C1135 C 0.78842 0.23337 0.99263 0.0
C1136 C 0.80685 0.22756 0.01933 0.0
C1137 C 0.73958 0.27423 0.02246 0.0
H1138 H 0.88197 0.17101 1.00319 0.0
H1139 H 0.84252 0.20655 0.02819 0.0
S1140 S 0.60786 0.35707 0.99453 0.0
N1141 N 0.67583 0.3087 0.98482 0.0
N1142 N 0.63072 0.34539 0.01182 0.0
C1143 C 0.69646 0.30009 0.01035 0.0
C1144 C 0.72114 0.28013 0.99558 0.0
C1145 C 0.67403 0.5104 0.76408 0.0
C1146 C 0.74678 0.55305 0.76678 0.0
C1147 C 0.64679 0.49047 0.74975 0.0
C1148 C 0.69112 0.51143 0.73723 0.0
H1149 H 0.63849 0.49086 0.77314 0.0
H1150 H 0.59385 0.45452 0.74848 0.0
S1151 S 0.88145 0.62777 0.73796 0.0
N1152 N 0.85867 0.61975 0.75541 0.0
N1153 N 0.80881 0.58113 0.72867 0.0
C1154 C 0.76092 0.55699 0.73973 0.0
C1155 C 0.78868 0.57759 0.75437 0.0
C1156 C 0.49476 0.06525 1.00185 0.0
C1157 C 0.58551 0.0802 1.00295 0.0
C1158 C 0.46023 0.00988 1.00801 0.0
C1159 C 0.51485 0.96806 0.0157 0.0
H1160 H 0.45092 0.09393 0.99536 0.0
H1161 H 0.38972 1.00025 1.00694 0.0
S1162 S 0.75627 0.98929 0.02252 0.0
N1163 N 0.72888 0.05152 0.01273 0.0
N1164 N 0.66377 0.94751 0.02473 0.0
C1165 C 0.60551 0.98356 0.01722 0.0
C1166 C 0.64056 0.0401 0.01092 0.0
C1167 C 0.58526 0.24422 0.25545 0.0
C1168 C 0.53392 0.20524 0.26438 0.0
C1169 C 0.55238 0.30314 0.25067 0.0
C1170 C 0.46699 0.325 0.25466 0.0
H1171 H 0.65234 0.22984 0.2525 0.0
H1172 H 0.59238 0.32989 0.24317 0.0
S1173 S 0.30875 0.24376 0.27872 0.0
N1174 N 0.39562 0.19463 0.27778 0.0
N1175 N 0.333 0.30498 0.26837 0.0
C1176 C 0.41558 0.28715 0.26376 0.0
C1177 C 0.44888 0.22709 0.26861 0.0
C1178 C 0.57501 0.74787 0.75797 0.0
C1179 C 0.52437 0.7053 0.76613 0.0
C1180 C 0.53894 0.80564 0.75327 0.0
C1181 C 0.45019 0.8224 0.7563 0.0
H1182 H 0.64421 0.73748 0.75565 0.0
H1183 H 0.57981 0.83542 0.7465 0.0
S1184 S 0.29035 0.72885 0.77772 0.0
N1185 N 0.38216 0.68494 0.77766 0.0
N1186 N 0.31276 0.79284 0.76808 0.0
C1187 C 0.39871 0.78041 0.76447 0.0
C1188 C 0.43581 0.72168 0.76942 0.0
C1189 C 0.44857 0.51037 0.50984 0.0
C1190 C 0.50123 0.46838 0.51782 0.0
C1191 C 0.48485 0.56573 0.50384 0.0
C1192 C 0.57541 0.58086 0.50549 0.0
H1193 H 0.37822 0.50083 0.50843 0.0
H1194 H 0.44253 0.5946 0.49715 0.0
S1195 S 0.74044 0.49013 0.52639 0.0
N1196 N 0.64726 0.4483 0.52796 0.0
N1197 N 0.71621 0.55173 0.51618 0.0
C1198 C 0.62848 0.54026 0.51372 0.0
C1199 C 0.59146 0.48387 0.51989 0.0
loop_
_geom_bond_atom_site_label_1
_geom_bond_atom_site_label_2
_geom_bond_distance
_geom_bond_site_symmetry_2
_ccdc_geom_bond_type
C0 O12 1.241 . S
C0 O13 1.280 1_455 S
C1 O14 1.277 . S
C1 O15 1.245 1_465 S
C2 O26 1.247 . S
C2 O28 1.289 . S
Mg3 O4 1.926 1_655 S
Mg3 O13 1.984 . S
Mg3 O15 1.988 . S
Mg3 O16 2.061 1_655 S
O4 Mg3 1.926 1_455 S
O4 Mg5 1.986 . S
O4 Mg6 1.917 . S
Mg5 O4 1.986 . S
Mg5 O12 2.042 . S
Mg5 O14 2.041 1_545 S
Mg5 O20 2.038 . S
Mg5 O28 2.238 . S
Mg6 O4 1.917 . S
Mg6 O7 1.917 . S
Mg6 O17 2.106 . S
Mg6 O19 2.079 . S
Mg6 O28 2.106 . S
Mg6 O29 2.079 . S
O7 Mg6 1.917 . S
O7 Mg8 1.926 . S
O7 Mg9 1.986 . S
Mg8 O7 1.926 . S
Mg8 O22 1.984 . S
Mg8 O25 1.988 . S
Mg8 O26 2.061 . S
Mg9 O7 1.986 . S
Mg9 O17 2.238 . S
Mg9 O21 2.042 . S
Mg9 O23 2.041 . S
Mg9 O30 2.038 . S
C10 O16 1.247 . S
C10 O17 1.289 . S
C11 O29 1.245 . S
C11 O30 1.274 . S
O12 C0 1.241 . S
O12 Mg5 2.042 . S
O13 C0 1.280 1_655 S
O13 Mg3 1.984 . S
O14 C1 1.277 . S
O14 Mg5 2.041 1_565 S
O15 C1 1.245 1_645 S
O15 Mg3 1.988 . S
O16 Mg3 2.061 1_455 S
O16 C10 1.247 . S
O17 Mg6 2.106 . S
O17 Mg9 2.238 . S
O17 C10 1.289 . S
C18 O19 1.245 . S
C18 O20 1.274 . S
O19 Mg6 2.079 . S
O19 C18 1.245 . S
O20 Mg5 2.038 . S
O20 C18 1.274 . S
O21 Mg9 2.042 . S
O21 C24 1.241 . S
O22 Mg8 1.984 . S
O22 C24 1.280 . S
O23 Mg9 2.041 . S
O23 C27 1.277 . S
C24 O21 1.241 . S
C24 O22 1.280 . S
O25 Mg8 1.988 . S
O25 C27 1.245 . S
O26 C2 1.247 . S
O26 Mg8 2.061 . S
C27 O23 1.277 . S
C27 O25 1.245 . S
O28 C2 1.289 . S
O28 Mg5 2.238 . S
O28 Mg6 2.106 . S
O29 Mg6 2.079 . S
O29 C11 1.245 . S
O30 Mg9 2.038 . S
O30 C11 1.274 . S
C31 O43 1.241 . S
C31 O44 1.280 1_455 S
C32 O45 1.277 . S
C32 O46 1.245 1_455 S
C33 O57 1.247 . S
C33 O59 1.289 . S
Mg34 O35 1.926 1_655 S
Mg34 O44 1.984 . S
Mg34 O46 1.988 . S
Mg34 O47 2.061 1_655 S
O35 Mg34 1.926 1_455 S
O35 Mg36 1.986 . S
O35 Mg37 1.917 . S
Mg36 O35 1.986 . S
Mg36 O43 2.042 . S
Mg36 O45 2.041 . S
Mg36 O51 2.038 . S
Mg36 O59 2.238 . S
Mg37 O35 1.917 . S
Mg37 O38 1.917 . S
Mg37 O48 2.106 . S
Mg37 O50 2.079 . S
Mg37 O59 2.106 . S
Mg37 O60 2.079 . S
O38 Mg37 1.917 . S
O38 Mg39 1.926 . S
O38 Mg40 1.986 . S
Mg39 O38 1.926 . S
Mg39 O53 1.984 . S
Mg39 O56 1.988 . S
Mg39 O57 2.061 . S
Mg40 O38 1.986 . S
Mg40 O48 2.238 . S
Mg40 O52 2.042 . S
Mg40 O54 2.041 1_545 S
Mg40 O61 2.038 . S
C41 O47 1.247 . S
C41 O48 1.289 . S
C42 O60 1.245 . S
C42 O61 1.274 . S
O43 C31 1.241 . S
O43 Mg36 2.042 . S
O44 C31 1.280 1_655 S
O44 Mg34 1.984 . S
O45 C32 1.277 . S
O45 Mg36 2.041 . S
O46 C32 1.245 1_655 S
O46 Mg34 1.988 . S
O47 Mg34 2.061 1_455 S
O47 C41 1.247 . S
O48 Mg37 2.106 . S
O48 Mg40 2.238 . S
O48 C41 1.289 . S
C49 O50 1.245 . S
C49 O51 1.274 . S
O50 Mg37 2.079 . S
O50 C49 1.245 . S
O51 Mg36 2.038 . S
O51 C49 1.274 . S
O52 Mg40 2.042 . S
O52 C55 1.241 . S
O53 Mg39 1.984 . S
O53 C55 1.280 . S
O54 Mg40 2.041 1_565 S
O54 C58 1.277 . S
C55 O52 1.241 . S
C55 O53 1.280 . S
O56 Mg39 1.988 . S
O56 C58 1.245 1_545 S
O57 C33 1.247 . S
O57 Mg39 2.061 . S
C58 O54 1.277 . S
C58 O56 1.245 1_565 S
O59 C33 1.289 . S
O59 Mg36 2.238 . S
O59 Mg37 2.106 . S
O60 Mg37 2.079 . S
O60 C42 1.245 . S
O61 Mg40 2.038 . S
O61 C42 1.274 . S
C62 O74 1.241 . S
C62 O75 1.280 . S
C63 O76 1.277 . S
C63 O77 1.245 . S
C64 O88 1.247 . S
C64 O90 1.289 . S
Mg65 O66 1.926 . S
Mg65 O75 1.984 . S
Mg65 O77 1.988 . S
Mg65 O78 2.061 . S
O66 Mg65 1.926 . S
O66 Mg67 1.986 . S
O66 Mg68 1.917 . S
Mg67 O66 1.986 . S
Mg67 O74 2.042 . S
Mg67 O76 2.041 . S
Mg67 O82 2.038 . S
Mg67 O90 2.238 . S
Mg68 O66 1.917 . S
Mg68 O69 1.917 . S
Mg68 O79 2.106 . S
Mg68 O81 2.079 . S
Mg68 O90 2.106 . S
Mg68 O91 2.079 . S
O69 Mg68 1.917 . S
O69 Mg70 1.926 1_655 S
O69 Mg71 1.986 . S
Mg70 O69 1.926 1_455 S
Mg70 O84 1.984 . S
Mg70 O87 1.988 . S
Mg70 O88 2.061 1_455 S
Mg71 O69 1.986 . S
Mg71 O79 2.238 . S
Mg71 O83 2.042 . S
Mg71 O85 2.041 1_565 S
Mg71 O92 2.038 . S
C72 O78 1.247 . S
C72 O79 1.289 . S
C73 O91 1.245 . S
C73 O92 1.274 . S
O74 C62 1.241 . S
O74 Mg67 2.042 . S
O75 C62 1.280 . S
O75 Mg65 1.984 . S
O76 C63 1.277 . S
O76 Mg67 2.041 . S
O77 C63 1.245 . S
O77 Mg65 1.988 . S
O78 Mg65 2.061 . S
O78 C72 1.247 . S
O79 Mg68 2.106 . S
O79 Mg71 2.238 . S
O79 C72 1.289 . S
C80 O81 1.245 . S
C80 O82 1.274 . S
O81 Mg68 2.079 . S
O81 C80 1.245 . S
O82 Mg67 2.038 . S
O82 C80 1.274 . S
O83 Mg71 2.042 . S
O83 C86 1.241 . S
O84 Mg70 1.984 . S
O84 C86 1.280 1_455 S
O85 Mg71 2.041 1_545 S
O85 C89 1.277 . S
C86 O83 1.241 . S
C86 O84 1.280 1_655 S
O87 Mg70 1.988 . S
O87 C89 1.245 1_465 S
O88 C64 1.247 . S
O88 Mg70 2.061 1_655 S
C89 O85 1.277 . S
C89 O87 1.245 1_645 S
O90 C64 1.289 . S
O90 Mg67 2.238 . S
O90 Mg68 2.106 . S
O91 Mg68 2.079 . S
O91 C73 1.245 . S
O92 Mg71 2.038 . S
O92 C73 1.274 . S
C93 O105 1.241 . S
C93 O106 1.280 . S
C94 O107 1.277 . S
C94 O108 1.245 1_545 S
C95 O119 1.247 . S
C95 O121 1.289 . S
Mg96 O97 1.926 . S
Mg96 O106 1.984 . S
Mg96 O108 1.988 . S
Mg96 O109 2.061 . S
O97 Mg96 1.926 . S
O97 Mg98 1.986 . S
O97 Mg99 1.917 . S
Mg98 O97 1.986 . S
Mg98 O105 2.042 . S
Mg98 O107 2.041 1_565 S
Mg98 O113 2.038 . S
Mg98 O121 2.238 . S
Mg99 O97 1.917 . S
Mg99 O100 1.917 . S
Mg99 O110 2.106 . S
Mg99 O112 2.079 . S
Mg99 O121 2.106 . S
Mg99 O122 2.079 . S
O100 Mg99 1.917 . S
O100 Mg101 1.926 1_655 S
O100 Mg102 1.986 . S
Mg101 O100 1.926 1_455 S
Mg101 O115 1.984 . S
Mg101 O118 1.988 . S
Mg101 O119 2.061 1_455 S
Mg102 O100 1.986 . S
Mg102 O110 2.238 . S
Mg102 O114 2.042 . S
Mg102 O116 2.041 . S
Mg102 O123 2.038 . S
C103 O109 1.247 . S
C103 O110 1.289 . S
C104 O122 1.245 . S
C104 O123 1.274 . S
O105 C93 1.241 . S
O105 Mg98 2.042 . S
O106 C93 1.280 . S
O106 Mg96 1.984 . S
O107 C94 1.277 . S
O107 Mg98 2.041 1_545 S
O108 C94 1.245 1_565 S
O108 Mg96 1.988 . S
O109 Mg96 2.061 . S
O109 C103 1.247 . S
O110 Mg99 2.106 . S
O110 Mg102 2.238 . S
O110 C103 1.289 . S
C111 O112 1.245 . S
C111 O113 1.274 . S
O112 Mg99 2.079 . S
O112 C111 1.245 . S
O113 Mg98 2.038 . S
O113 C111 1.274 . S
O114 Mg102 2.042 . S
O114 C117 1.241 . S
O115 Mg101 1.984 . S
O115 C117 1.280 1_455 S
O116 Mg102 2.041 . S
O116 C120 1.277 . S
C117 O114 1.241 . S
C117 O115 1.280 1_655 S
O118 Mg101 1.988 . S
O118 C120 1.245 1_455 S
O119 C95 1.247 . S
O119 Mg101 2.061 1_655 S
C120 O116 1.277 . S
C120 O118 1.245 1_655 S
O121 C95 1.289 . S
O121 Mg98 2.238 . S
O121 Mg99 2.106 . S
O122 Mg99 2.079 . S
O122 C104 1.245 . S
O123 Mg102 2.038 . S
O123 C104 1.274 . S
C124 O136 1.241 . S
C124 O137 1.280 1_455 S
C125 O138 1.277 . S
C125 O139 1.245 1_455 S
C126 O150 1.247 . S
C126 O152 1.289 . S
Mg127 O128 1.926 1_655 S
Mg127 O137 1.984 . S
Mg127 O139 1.988 . S
Mg127 O140 2.061 1_655 S
O128 Mg127 1.926 1_455 S
O128 Mg129 1.986 . S
O128 Mg130 1.917 . S
Mg129 O128 1.986 . S
Mg129 O136 2.042 . S
Mg129 O138 2.041 . S
Mg129 O144 2.038 . S
Mg129 O152 2.238 . S
Mg130 O128 1.917 . S
Mg130 O131 1.917 . S
Mg130 O141 2.106 . S
Mg130 O143 2.079 . S
Mg130 O152 2.106 . S
Mg130 O153 2.079 . S
O131 Mg130 1.917 . S
O131 Mg132 1.926 . S
O131 Mg133 1.986 . S
Mg132 O131 1.926 . S
Mg132 O146 1.984 . S
Mg132 O149 1.988 . S
Mg132 O150 2.061 . S
Mg133 O131 1.986 . S
Mg133 O141 2.238 . S
Mg133 O145 2.042 . S
Mg133 O147 2.041 . S
Mg133 O154 2.038 . S
C134 O140 1.247 . S
C134 O141 1.289 . S
C135 O153 1.245 . S
C135 O154 1.274 . S
O136 C124 1.241 . S
O136 Mg129 2.042 . S
O137 C124 1.280 1_655 S
O137 Mg127 1.984 . S
O138 C125 1.277 . S
O138 Mg129 2.041 . S
O139 C125 1.245 1_655 S
O139 Mg127 1.988 . S
O140 Mg127 2.061 1_455 S
O140 C134 1.247 . S
O141 Mg130 2.106 . S
O141 Mg133 2.238 . S
O141 C134 1.289 . S
C142 O143 1.245 . S
C142 O144 1.274 . S
O143 Mg130 2.079 . S
O143 C142 1.245 . S
O144 Mg129 2.038 . S
O144 C142 1.274 . S
O145 Mg133 2.042 . S
O145 C148 1.241 . S
O146 Mg132 1.984 . S
O146 C148 1.280 . S
O147 Mg133 2.041 . S
O147 C151 1.277 . S
C148 O145 1.241 . S
C148 O146 1.280 . S
O149 Mg132 1.988 . S
O149 C151 1.245 . S
O150 C126 1.247 . S
O150 Mg132 2.061 . S
C151 O147 1.277 . S
C151 O149 1.245 . S
O152 C126 1.289 . S
O152 Mg129 2.238 . S
O152 Mg130 2.106 . S
O153 Mg130 2.079 . S
O153 C135 1.245 . S
O154 Mg133 2.038 . S
O154 C135 1.274 . S
C155 O167 1.241 . S
C155 O168 1.280 1_455 S
C156 O169 1.277 . S
C156 O170 1.245 1_455 S
C157 O181 1.247 . S
C157 O183 1.289 . S
Mg158 O159 1.926 1_655 S
Mg158 O168 1.984 . S
Mg158 O170 1.988 . S
Mg158 O171 2.061 1_655 S
O159 Mg158 1.926 1_455 S
O159 Mg160 1.986 . S
O159 Mg161 1.917 . S
Mg160 O159 1.986 . S
Mg160 O167 2.042 . S
Mg160 O169 2.041 . S
Mg160 O175 2.038 . S
Mg160 O183 2.238 . S
Mg161 O159 1.917 . S
Mg161 O162 1.917 . S
Mg161 O172 2.106 . S
Mg161 O174 2.079 . S
Mg161 O183 2.106 . S
Mg161 O184 2.079 . S
O162 Mg161 1.917 . S
O162 Mg163 1.926 . S
O162 Mg164 1.986 . S
Mg163 O162 1.926 . S
Mg163 O177 1.984 . S
Mg163 O180 1.988 . S
Mg163 O181 2.061 . S
Mg164 O162 1.986 . S
Mg164 O172 2.238 . S
Mg164 O176 2.042 . S
Mg164 O178 2.041 . S
Mg164 O185 2.038 . S
C165 O171 1.247 . S
C165 O172 1.289 . S
C166 O184 1.245 . S
C166 O185 1.274 . S
O167 C155 1.241 . S
O167 Mg160 2.042 . S
O168 C155 1.280 1_655 S
O168 Mg158 1.984 . S
O169 C156 1.277 . S
O169 Mg160 2.041 . S
O170 C156 1.245 1_655 S
O170 Mg158 1.988 . S
O171 Mg158 2.061 1_455 S
O171 C165 1.247 . S
O172 Mg161 2.106 . S
O172 Mg164 2.238 . S
O172 C165 1.289 . S
C173 O174 1.245 . S
C173 O175 1.274 . S
O174 Mg161 2.079 . S
O174 C173 1.245 . S
O175 Mg160 2.038 . S
O175 C173 1.274 . S
O176 Mg164 2.042 . S
O176 C179 1.241 . S
O177 Mg163 1.984 . S
O177 C179 1.280 . S
O178 Mg164 2.041 . S
O178 C182 1.277 . S
C179 O176 1.241 . S
C179 O177 1.280 . S
O180 Mg163 1.988 . S
O180 C182 1.245 . S
O181 C157 1.247 . S
O181 Mg163 2.061 . S
C182 O178 1.277 . S
C182 O180 1.245 . S
O183 C157 1.289 . S
O183 Mg160 2.238 . S
O183 Mg161 2.106 . S
O184 Mg161 2.079 . S
O184 C166 1.245 . S
O185 Mg164 2.038 . S
O185 C166 1.274 . S
C186 O198 1.241 . S
C186 O199 1.280 . S
C187 O200 1.277 . S
C187 O201 1.245 . S
C188 O212 1.247 . S
C188 O214 1.289 . S
Mg189 O190 1.926 . S
Mg189 O199 1.984 . S
Mg189 O201 1.988 . S
Mg189 O202 2.061 . S
O190 Mg189 1.926 . S
O190 Mg191 1.986 . S
O190 Mg192 1.917 . S
Mg191 O190 1.986 . S
Mg191 O198 2.042 . S
Mg191 O200 2.041 . S
Mg191 O206 2.038 . S
Mg191 O214 2.238 . S
Mg192 O190 1.917 . S
Mg192 O193 1.917 . S
Mg192 O203 2.106 . S
Mg192 O205 2.079 . S
Mg192 O214 2.106 . S
Mg192 O215 2.079 . S
O193 Mg192 1.917 . S
O193 Mg194 1.926 1_655 S
O193 Mg195 1.986 . S
Mg194 O193 1.926 1_455 S
Mg194 O208 1.984 . S
Mg194 O211 1.988 . S
Mg194 O212 2.061 1_455 S
Mg195 O193 1.986 . S
Mg195 O203 2.238 . S
Mg195 O207 2.042 . S
Mg195 O209 2.041 . S
Mg195 O216 2.038 . S
C196 O202 1.247 . S
C196 O203 1.289 . S
C197 O215 1.245 . S
C197 O216 1.274 . S
O198 C186 1.241 . S
O198 Mg191 2.042 . S
O199 C186 1.280 . S
O199 Mg189 1.984 . S
O200 C187 1.277 . S
O200 Mg191 2.041 . S
O201 C187 1.245 . S
O201 Mg189 1.988 . S
O202 Mg189 2.061 . S
O202 C196 1.247 . S
O203 Mg192 2.106 . S
O203 Mg195 2.238 . S
O203 C196 1.289 . S
C204 O205 1.245 . S
C204 O206 1.274 . S
O205 Mg192 2.079 . S
O205 C204 1.245 . S
O206 Mg191 2.038 . S
O206 C204 1.274 . S
O207 Mg195 2.042 . S
O207 C210 1.241 . S
O208 Mg194 1.984 . S
O208 C210 1.280 1_455 S
O209 Mg195 2.041 . S
O209 C213 1.277 . S
C210 O207 1.241 . S
C210 O208 1.280 1_655 S
O211 Mg194 1.988 . S
O211 C213 1.245 1_455 S
O212 C188 1.247 . S
O212 Mg194 2.061 1_655 S
C213 O209 1.277 . S
C213 O211 1.245 1_655 S
O214 C188 1.289 . S
O214 Mg191 2.238 . S
O214 Mg192 2.106 . S
O215 Mg192 2.079 . S
O215 C197 1.245 . S
O216 Mg195 2.038 . S
O216 C197 1.274 . S
C217 O229 1.241 . S
C217 O230 1.280 . S
C218 O231 1.277 . S
C218 O232 1.245 . S
C219 O243 1.247 . S
C219 O245 1.289 . S
Mg220 O221 1.926 . S
Mg220 O230 1.984 . S
Mg220 O232 1.988 . S
Mg220 O233 2.061 . S
O221 Mg220 1.926 . S
O221 Mg222 1.986 . S
O221 Mg223 1.917 . S
Mg222 O221 1.986 . S
Mg222 O229 2.042 . S
Mg222 O231 2.041 . S
Mg222 O237 2.038 . S
Mg222 O245 2.238 . S
Mg223 O221 1.917 . S
Mg223 O224 1.917 . S
Mg223 O234 2.106 . S
Mg223 O236 2.079 . S
Mg223 O245 2.106 . S
Mg223 O246 2.079 . S
O224 Mg223 1.917 . S
O224 Mg225 1.926 1_655 S
O224 Mg226 1.986 . S
Mg225 O224 1.926 1_455 S
Mg225 O239 1.984 . S
Mg225 O242 1.988 . S
Mg225 O243 2.061 1_455 S
Mg226 O224 1.986 . S
Mg226 O234 2.238 . S
Mg226 O238 2.042 . S
Mg226 O240 2.041 . S
Mg226 O247 2.038 . S
C227 O233 1.247 . S
C227 O234 1.289 . S
C228 O246 1.245 . S
C228 O247 1.274 . S
O229 C217 1.241 . S
O229 Mg222 2.042 . S
O230 C217 1.280 . S
O230 Mg220 1.984 . S
O231 C218 1.277 . S
O231 Mg222 2.041 . S
O232 C218 1.245 . S
O232 Mg220 1.988 . S
O233 Mg220 2.061 . S
O233 C227 1.247 . S
O234 Mg223 2.106 . S
O234 Mg226 2.238 . S
O234 C227 1.289 . S
C235 O236 1.245 . S
C235 O237 1.274 . S
O236 Mg223 2.079 . S
O236 C235 1.245 . S
O237 Mg222 2.038 . S
O237 C235 1.274 . S
O238 Mg226 2.042 . S
O238 C241 1.241 . S
O239 Mg225 1.984 . S
O239 C241 1.280 1_455 S
O240 Mg226 2.041 . S
O240 C244 1.277 . S
C241 O238 1.241 . S
C241 O239 1.280 1_655 S
O242 Mg225 1.988 . S
O242 C244 1.245 1_455 S
O243 C219 1.247 . S
O243 Mg225 2.061 1_655 S
C244 O240 1.277 . S
C244 O242 1.245 1_655 S
O245 C219 1.289 . S
O245 Mg222 2.238 . S
O245 Mg223 2.106 . S
O246 Mg223 2.079 . S
O246 C228 1.245 . S
O247 Mg226 2.038 . S
O247 C228 1.274 . S
C248 O260 1.241 . S
C248 O261 1.280 . S
C249 O262 1.277 . S
C249 O263 1.245 1_565 S
C250 O274 1.247 . S
C250 O276 1.289 . S
Mg251 O252 1.926 . S
Mg251 O261 1.984 . S
Mg251 O263 1.988 . S
Mg251 O264 2.061 . S
O252 Mg251 1.926 . S
O252 Mg253 1.986 . S
O252 Mg254 1.917 . S
Mg253 O252 1.986 . S
Mg253 O260 2.042 . S
Mg253 O262 2.041 1_545 S
Mg253 O268 2.038 . S
Mg253 O276 2.238 . S
Mg254 O252 1.917 . S
Mg254 O255 1.917 . S
Mg254 O265 2.106 . S
Mg254 O267 2.079 . S
Mg254 O276 2.106 . S
Mg254 O277 2.079 . S
O255 Mg254 1.917 . S
O255 Mg256 1.926 . S
O255 Mg257 1.986 . S
Mg256 O255 1.926 . S
Mg256 O270 1.984 . S
Mg256 O273 1.988 . S
Mg256 O274 2.061 . S
Mg257 O255 1.986 . S
Mg257 O265 2.238 . S
Mg257 O269 2.042 . S
Mg257 O271 2.041 . S
Mg257 O278 2.038 . S
C258 O264 1.247 . S
C258 O265 1.289 . S
C259 O277 1.245 . S
C259 O278 1.274 . S
O260 C248 1.241 . S
O260 Mg253 2.042 . S
O261 C248 1.280 . S
O261 Mg251 1.984 . S
O262 C249 1.277 . S
O262 Mg253 2.041 1_565 S
O263 C249 1.245 1_545 S
O263 Mg251 1.988 . S
O264 Mg251 2.061 . S
O264 C258 1.247 . S
O265 Mg254 2.106 . S
O265 Mg257 2.238 . S
O265 C258 1.289 . S
C266 O267 1.245 . S
C266 O268 1.274 . S
O267 Mg254 2.079 . S
O267 C266 1.245 . S
O268 Mg253 2.038 . S
O268 C266 1.274 . S
O269 Mg257 2.042 . S
O269 C272 1.241 . S
O270 Mg256 1.984 . S
O270 C272 1.280 . S
O271 Mg257 2.041 . S
O271 C275 1.277 . S
C272 O269 1.241 . S
C272 O270 1.280 . S
O273 Mg256 1.988 . S
O273 C275 1.245 . S
O274 C250 1.247 . S
O274 Mg256 2.061 . S
C275 O271 1.277 . S
C275 O273 1.245 . S
O276 C250 1.289 . S
O276 Mg253 2.238 . S
O276 Mg254 2.106 . S
O277 Mg254 2.079 . S
O277 C259 1.245 . S
O278 Mg257 2.038 . S
O278 C259 1.274 . S
C279 O291 1.241 . S
C279 O292 1.280 . S
C280 O293 1.277 . S
C280 O294 1.245 . S
C281 O305 1.247 . S
C281 O307 1.289 . S
Mg282 O283 1.926 . S
Mg282 O292 1.984 . S
Mg282 O294 1.988 . S
Mg282 O295 2.061 . S
O283 Mg282 1.926 . S
O283 Mg284 1.986 . S
O283 Mg285 1.917 . S
Mg284 O283 1.986 . S
Mg284 O291 2.042 . S
Mg284 O293 2.041 . S
Mg284 O299 2.038 . S
Mg284 O307 2.238 . S
Mg285 O283 1.917 . S
Mg285 O286 1.917 . S
Mg285 O296 2.106 . S
Mg285 O298 2.079 . S
Mg285 O307 2.106 . S
Mg285 O308 2.079 . S
O286 Mg285 1.917 . S
O286 Mg287 1.926 . S
O286 Mg288 1.986 . S
Mg287 O286 1.926 . S
Mg287 O301 1.984 . S
Mg287 O304 1.988 . S
Mg287 O305 2.061 . S
Mg288 O286 1.986 . S
Mg288 O296 2.238 . S
Mg288 O300 2.042 . S
Mg288 O302 2.041 1_545 S
Mg288 O309 2.038 . S
C289 O295 1.247 . S
C289 O296 1.289 . S
C290 O308 1.245 . S
C290 O309 1.274 . S
O291 C279 1.241 . S
O291 Mg284 2.042 . S
O292 C279 1.280 . S
O292 Mg282 1.984 . S
O293 C280 1.277 . S
O293 Mg284 2.041 . S
O294 C280 1.245 . S
O294 Mg282 1.988 . S
O295 Mg282 2.061 . S
O295 C289 1.247 . S
O296 Mg285 2.106 . S
O296 Mg288 2.238 . S
O296 C289 1.289 . S
C297 O298 1.245 . S
C297 O299 1.274 . S
O298 Mg285 2.079 . S
O298 C297 1.245 . S
O299 Mg284 2.038 . S
O299 C297 1.274 . S
O300 Mg288 2.042 . S
O300 C303 1.241 . S
O301 Mg287 1.984 . S
O301 C303 1.280 . S
O302 Mg288 2.041 1_565 S
O302 C306 1.277 . S
C303 O300 1.241 . S
C303 O301 1.280 . S
O304 Mg287 1.988 . S
O304 C306 1.245 1_545 S
O305 C281 1.247 . S
O305 Mg287 2.061 . S
C306 O302 1.277 . S
C306 O304 1.245 1_565 S
O307 C281 1.289 . S
O307 Mg284 2.238 . S
O307 Mg285 2.106 . S
O308 Mg285 2.079 . S
O308 C290 1.245 . S
O309 Mg288 2.038 . S
O309 C290 1.274 . S
C310 O322 1.241 . S
C310 O323 1.280 . S
C311 O324 1.277 . S
C311 O325 1.245 . S
C312 O336 1.247 . S
C312 O338 1.289 . S
Mg313 O314 1.926 . S
Mg313 O323 1.984 . S
Mg313 O325 1.988 . S
Mg313 O326 2.061 . S
O314 Mg313 1.926 . S
O314 Mg315 1.986 . S
O314 Mg316 1.917 . S
Mg315 O314 1.986 . S
Mg315 O322 2.042 . S
Mg315 O324 2.041 . S
Mg315 O330 2.038 . S
Mg315 O338 2.238 . S
Mg316 O314 1.917 . S
Mg316 O317 1.917 . S
Mg316 O327 2.106 . S
Mg316 O329 2.079 . S
Mg316 O338 2.106 . S
Mg316 O339 2.079 . S
O317 Mg316 1.917 . S
O317 Mg318 1.926 . S
O317 Mg319 1.986 . S
Mg318 O317 1.926 . S
Mg318 O332 1.984 . S
Mg318 O335 1.988 . S
Mg318 O336 2.061 . S
Mg319 O317 1.986 . S
Mg319 O327 2.238 . S
Mg319 O331 2.042 . S
Mg319 O333 2.041 1_565 S
Mg319 O340 2.038 . S
C320 O326 1.247 . S
C320 O327 1.289 . S
C321 O339 1.245 . S
C321 O340 1.274 . S
O322 C310 1.241 . S
O322 Mg315 2.042 . S
O323 C310 1.280 . S
O323 Mg313 1.984 . S
O324 C311 1.277 . S
O324 Mg315 2.041 . S
O325 C311 1.245 . S
O325 Mg313 1.988 . S
O326 Mg313 2.061 . S
O326 C320 1.247 . S
O327 Mg316 2.106 . S
O327 Mg319 2.238 . S
O327 C320 1.289 . S
C328 O329 1.245 . S
C328 O330 1.274 . S
O329 Mg316 2.079 . S
O329 C328 1.245 . S
O330 Mg315 2.038 . S
O330 C328 1.274 . S
O331 Mg319 2.042 . S
O331 C334 1.241 . S
O332 Mg318 1.984 . S
O332 C334 1.280 . S
O333 Mg319 2.041 1_545 S
O333 C337 1.277 . S
C334 O331 1.241 . S
C334 O332 1.280 . S
O335 Mg318 1.988 . S
O335 C337 1.245 1_565 S
O336 C312 1.247 . S
O336 Mg318 2.061 . S
C337 O333 1.277 . S
C337 O335 1.245 1_545 S
O338 C312 1.289 . S
O338 Mg315 2.238 . S
O338 Mg316 2.106 . S
O339 Mg316 2.079 . S
O339 C321 1.245 . S
O340 Mg319 2.038 . S
O340 C321 1.274 . S
C341 O353 1.241 . S
C341 O354 1.280 . S
C342 O355 1.277 . S
C342 O356 1.245 1_545 S
C343 O367 1.247 . S
C343 O369 1.289 . S
Mg344 O345 1.926 . S
Mg344 O354 1.984 . S
Mg344 O356 1.988 . S
Mg344 O357 2.061 . S
O345 Mg344 1.926 . S
O345 Mg346 1.986 . S
O345 Mg347 1.917 . S
Mg346 O345 1.986 . S
Mg346 O353 2.042 . S
Mg346 O355 2.041 1_565 S
Mg346 O361 2.038 . S
Mg346 O369 2.238 . S
Mg347 O345 1.917 . S
Mg347 O348 1.917 . S
Mg347 O358 2.106 . S
Mg347 O360 2.079 . S
Mg347 O369 2.106 . S
Mg347 O370 2.079 . S
O348 Mg347 1.917 . S
O348 Mg349 1.926 . S
O348 Mg350 1.986 . S
Mg349 O348 1.926 . S
Mg349 O363 1.984 . S
Mg349 O366 1.988 . S
Mg349 O367 2.061 . S
Mg350 O348 1.986 . S
Mg350 O358 2.238 . S
Mg350 O362 2.042 . S
Mg350 O364 2.041 . S
Mg350 O371 2.038 . S
C351 O357 1.247 . S
C351 O358 1.289 . S
C352 O370 1.245 . S
C352 O371 1.274 . S
O353 C341 1.241 . S
O353 Mg346 2.042 . S
O354 C341 1.280 . S
O354 Mg344 1.984 . S
O355 C342 1.277 . S
O355 Mg346 2.041 1_545 S
O356 C342 1.245 1_565 S
O356 Mg344 1.988 . S
O357 Mg344 2.061 . S
O357 C351 1.247 . S
O358 Mg347 2.106 . S
O358 Mg350 2.238 . S
O358 C351 1.289 . S
C359 O360 1.245 . S
C359 O361 1.274 . S
O360 Mg347 2.079 . S
O360 C359 1.245 . S
O361 Mg346 2.038 . S
O361 C359 1.274 . S
O362 Mg350 2.042 . S
O362 C365 1.241 . S
O363 Mg349 1.984 . S
O363 C365 1.280 . S
O364 Mg350 2.041 . S
O364 C368 1.277 . S
C365 O362 1.241 . S
C365 O363 1.280 . S
O366 Mg349 1.988 . S
O366 C368 1.245 . S
O367 C343 1.247 . S
O367 Mg349 2.061 . S
C368 O364 1.277 . S
C368 O366 1.245 . S
O369 C343 1.289 . S
O369 Mg346 2.238 . S
O369 Mg347 2.106 . S
O370 Mg347 2.079 . S
O370 C352 1.245 . S
O371 Mg350 2.038 . S
O371 C352 1.274 . S
C372 O384 1.241 . S
C372 O385 1.280 . S
C373 O386 1.277 . S
C373 O387 1.245 . S
C374 O398 1.247 . S
C374 O400 1.289 . S
Mg375 O376 1.926 . S
Mg375 O385 1.984 . S
Mg375 O387 1.988 . S
Mg375 O388 2.061 . S
O376 Mg375 1.926 . S
O376 Mg377 1.986 . S
O376 Mg378 1.917 . S
Mg377 O376 1.986 . S
Mg377 O384 2.042 . S
Mg377 O386 2.041 . S
Mg377 O392 2.038 . S
Mg377 O400 2.238 . S
Mg378 O376 1.917 . S
Mg378 O379 1.917 . S
Mg378 O389 2.106 . S
Mg378 O391 2.079 . S
Mg378 O400 2.106 . S
Mg378 O401 2.079 . S
O379 Mg378 1.917 . S
O379 Mg380 1.926 . S
O379 Mg381 1.986 . S
Mg380 O379 1.926 . S
Mg380 O394 1.984 . S
Mg380 O397 1.988 . S
Mg380 O398 2.061 . S
Mg381 O379 1.986 . S
Mg381 O389 2.238 . S
Mg381 O393 2.042 . S
Mg381 O395 2.041 . S
Mg381 O402 2.038 . S
C382 O388 1.247 . S
C382 O389 1.289 . S
C383 O401 1.245 . S
C383 O402 1.274 . S
O384 C372 1.241 . S
O384 Mg377 2.042 . S
O385 C372 1.280 . S
O385 Mg375 1.984 . S
O386 C373 1.277 . S
O386 Mg377 2.041 . S
O387 C373 1.245 . S
O387 Mg375 1.988 . S
O388 Mg375 2.061 . S
O388 C382 1.247 . S
O389 Mg378 2.106 . S
O389 Mg381 2.238 . S
O389 C382 1.289 . S
C390 O391 1.245 . S
C390 O392 1.274 . S
O391 Mg378 2.079 . S
O391 C390 1.245 . S
O392 Mg377 2.038 . S
O392 C390 1.274 . S
O393 Mg381 2.042 . S
O393 C396 1.241 . S
O394 Mg380 1.984 . S
O394 C396 1.280 . S
O395 Mg381 2.041 . S
O395 C399 1.277 . S
C396 O393 1.241 . S
C396 O394 1.280 . S
O397 Mg380 1.988 . S
O397 C399 1.245 . S
O398 C374 1.247 . S
O398 Mg380 2.061 . S
C399 O395 1.277 . S
C399 O397 1.245 . S
O400 C374 1.289 . S
O400 Mg377 2.238 . S
O400 Mg378 2.106 . S
O401 Mg378 2.079 . S
O401 C383 1.245 . S
O402 Mg381 2.038 . S
O402 C383 1.274 . S
C403 O415 1.241 . S
C403 O416 1.280 . S
C404 O417 1.277 . S
C404 O418 1.245 . S
C405 O429 1.247 . S
C405 O431 1.289 . S
Mg406 O407 1.926 . S
Mg406 O416 1.984 . S
Mg406 O418 1.988 . S
Mg406 O419 2.061 . S
O407 Mg406 1.926 . S
O407 Mg408 1.986 . S
O407 Mg409 1.917 . S
Mg408 O407 1.986 . S
Mg408 O415 2.042 . S
Mg408 O417 2.041 . S
Mg408 O423 2.038 . S
Mg408 O431 2.238 . S
Mg409 O407 1.917 . S
Mg409 O410 1.917 . S
Mg409 O420 2.106 . S
Mg409 O422 2.079 . S
Mg409 O431 2.106 . S
Mg409 O432 2.079 . S
O410 Mg409 1.917 . S
O410 Mg411 1.926 . S
O410 Mg412 1.986 . S
Mg411 O410 1.926 . S
Mg411 O425 1.984 . S
Mg411 O428 1.988 . S
Mg411 O429 2.061 . S
Mg412 O410 1.986 . S
Mg412 O420 2.238 . S
Mg412 O424 2.042 . S
Mg412 O426 2.041 . S
Mg412 O433 2.038 . S
C413 O419 1.247 . S
C413 O420 1.289 . S
C414 O432 1.245 . S
C414 O433 1.274 . S
O415 C403 1.241 . S
O415 Mg408 2.042 . S
O416 C403 1.280 . S
O416 Mg406 1.984 . S
O417 C404 1.277 . S
O417 Mg408 2.041 . S
O418 C404 1.245 . S
O418 Mg406 1.988 . S
O419 Mg406 2.061 . S
O419 C413 1.247 . S
O420 Mg409 2.106 . S
O420 Mg412 2.238 . S
O420 C413 1.289 . S
C421 O422 1.245 . S
C421 O423 1.274 . S
O422 Mg409 2.079 . S
O422 C421 1.245 . S
O423 Mg408 2.038 . S
O423 C421 1.274 . S
O424 Mg412 2.042 . S
O424 C427 1.241 . S
O425 Mg411 1.984 . S
O425 C427 1.280 . S
O426 Mg412 2.041 . S
O426 C430 1.277 . S
C427 O424 1.241 . S
C427 O425 1.280 . S
O428 Mg411 1.988 . S
O428 C430 1.245 . S
O429 C405 1.247 . S
O429 Mg411 2.061 . S
C430 O426 1.277 . S
C430 O428 1.245 . S
O431 C405 1.289 . S
O431 Mg408 2.238 . S
O431 Mg409 2.106 . S
O432 Mg409 2.079 . S
O432 C414 1.245 . S
O433 Mg412 2.038 . S
O433 C414 1.274 . S
C434 O446 1.241 . S
C434 O447 1.280 . S
C435 O448 1.277 . S
C435 O449 1.245 . S
C436 O460 1.247 . S
C436 O462 1.289 . S
Mg437 O438 1.926 . S
Mg437 O447 1.984 . S
Mg437 O449 1.988 . S
Mg437 O450 2.061 . S
O438 Mg437 1.926 . S
O438 Mg439 1.986 . S
O438 Mg440 1.917 . S
Mg439 O438 1.986 . S
Mg439 O446 2.042 . S
Mg439 O448 2.041 . S
Mg439 O454 2.038 . S
Mg439 O462 2.238 . S
Mg440 O438 1.917 . S
Mg440 O441 1.917 . S
Mg440 O451 2.106 . S
Mg440 O453 2.079 . S
Mg440 O462 2.106 . S
Mg440 O463 2.079 . S
O441 Mg440 1.917 . S
O441 Mg442 1.926 . S
O441 Mg443 1.986 . S
Mg442 O441 1.926 . S
Mg442 O456 1.984 . S
Mg442 O459 1.988 . S
Mg442 O460 2.061 . S
Mg443 O441 1.986 . S
Mg443 O451 2.238 . S
Mg443 O455 2.042 . S
Mg443 O457 2.041 . S
Mg443 O464 2.038 . S
C444 O450 1.247 . S
C444 O451 1.289 . S
C445 O463 1.245 . S
C445 O464 1.274 . S
O446 C434 1.241 . S
O446 Mg439 2.042 . S
O447 C434 1.280 . S
O447 Mg437 1.984 . S
O448 C435 1.277 . S
O448 Mg439 2.041 . S
O449 C435 1.245 . S
O449 Mg437 1.988 . S
O450 Mg437 2.061 . S
O450 C444 1.247 . S
O451 Mg440 2.106 . S
O451 Mg443 2.238 . S
O451 C444 1.289 . S
C452 O453 1.245 . S
C452 O454 1.274 . S
O453 Mg440 2.079 . S
O453 C452 1.245 . S
O454 Mg439 2.038 . S
O454 C452 1.274 . S
O455 Mg443 2.042 . S
O455 C458 1.241 . S
O456 Mg442 1.984 . S
O456 C458 1.280 . S
O457 Mg443 2.041 . S
O457 C461 1.277 . S
C458 O455 1.241 . S
C458 O456 1.280 . S
O459 Mg442 1.988 . S
O459 C461 1.245 . S
O460 C436 1.247 . S
O460 Mg442 2.061 . S
C461 O457 1.277 . S
C461 O459 1.245 . S
O462 C436 1.289 . S
O462 Mg439 2.238 . S
O462 Mg440 2.106 . S
O463 Mg440 2.079 . S
O463 C445 1.245 . S
O464 Mg443 2.038 . S
O464 C445 1.274 . S
C465 O477 1.241 . S
C465 O478 1.280 . S
C466 O479 1.277 . S
C466 O480 1.245 . S
C467 O491 1.247 . S
C467 O493 1.289 . S
Mg468 O469 1.926 . S
Mg468 O478 1.984 . S
Mg468 O480 1.988 . S
Mg468 O481 2.061 . S
O469 Mg468 1.926 . S
O469 Mg470 1.986 . S
O469 Mg471 1.917 . S
Mg470 O469 1.986 . S
Mg470 O477 2.042 . S
Mg470 O479 2.041 . S
Mg470 O485 2.038 . S
Mg470 O493 2.238 . S
Mg471 O469 1.917 . S
Mg471 O472 1.917 . S
Mg471 O482 2.106 . S
Mg471 O484 2.079 . S
Mg471 O493 2.106 . S
Mg471 O494 2.079 . S
O472 Mg471 1.917 . S
O472 Mg473 1.926 . S
O472 Mg474 1.986 . S
Mg473 O472 1.926 . S
Mg473 O487 1.984 . S
Mg473 O490 1.988 . S
Mg473 O491 2.061 . S
Mg474 O472 1.986 . S
Mg474 O482 2.238 . S
Mg474 O486 2.042 . S
Mg474 O488 2.041 . S
Mg474 O495 2.038 . S
C475 O481 1.247 . S
C475 O482 1.289 . S
C476 O494 1.245 . S
C476 O495 1.274 . S
O477 C465 1.241 . S
O477 Mg470 2.042 . S
O478 C465 1.280 . S
O478 Mg468 1.984 . S
O479 C466 1.277 . S
O479 Mg470 2.041 . S
O480 C466 1.245 . S
O480 Mg468 1.988 . S
O481 Mg468 2.061 . S
O481 C475 1.247 . S
O482 Mg471 2.106 . S
O482 Mg474 2.238 . S
O482 C475 1.289 . S
C483 O484 1.245 . S
C483 O485 1.274 . S
O484 Mg471 2.079 . S
O484 C483 1.245 . S
O485 Mg470 2.038 . S
O485 C483 1.274 . S
O486 Mg474 2.042 . S
O486 C489 1.241 . S
O487 Mg473 1.984 . S
O487 C489 1.280 . S
O488 Mg474 2.041 . S
O488 C492 1.277 . S
C489 O486 1.241 . S
C489 O487 1.280 . S
O490 Mg473 1.988 . S
O490 C492 1.245 . S
O491 C467 1.247 . S
O491 Mg473 2.061 . S
C492 O488 1.277 . S
C492 O490 1.245 . S
O493 C467 1.289 . S
O493 Mg470 2.238 . S
O493 Mg471 2.106 . S
O494 Mg471 2.079 . S
O494 C476 1.245 . S
O495 Mg474 2.038 . S
O495 C476 1.274 . S
C496 C497 1.369 . S
C496 C498 1.419 . S
C496 H500 0.930 . S
C497 C496 1.369 . S
C497 C506 1.429 . S
C498 C496 1.419 . S
C498 C499 1.363 . S
C498 H501 0.929 . S
C499 C498 1.363 . S
C499 C505 1.428 . S
H500 C496 0.930 . S
H501 C498 0.929 . S
S502 N503 1.613 . S
S502 N504 1.610 . S
N503 S502 1.613 . S
N503 C506 1.350 . S
N504 S502 1.610 . S
N504 C505 1.351 . S
C505 C499 1.428 . S
C505 N504 1.351 . S
C505 C506 1.434 . S
C506 C497 1.429 . S
C506 N503 1.350 . S
C506 C505 1.434 . S
C507 C508 1.369 1_655 S
C507 C509 1.419 . S
C507 H511 0.930 . S
C508 C507 1.369 1_455 S
C508 C517 1.429 . S
C509 C507 1.419 . S
C509 C510 1.363 . S
C509 H512 0.929 . S
C510 C509 1.363 . S
C510 C516 1.428 . S
H511 C507 0.930 . S
H512 C509 0.929 . S
S513 N514 1.613 . S
S513 N515 1.610 1_455 S
N514 S513 1.613 . S
N514 C517 1.350 . S
N515 S513 1.610 1_655 S
N515 C516 1.351 . S
C516 C510 1.428 . S
C516 N515 1.351 . S
C516 C517 1.434 1_655 S
C517 C508 1.429 . S
C517 N514 1.350 . S
C517 C516 1.434 1_455 S
C518 C519 1.369 . S
C518 C520 1.419 . S
C518 H522 0.930 . S
C519 C518 1.369 . S
C519 C528 1.429 . S
C520 C518 1.419 . S
C520 C521 1.363 . S
C520 H523 0.929 . S
C521 C520 1.363 . S
C521 C527 1.428 . S
H522 C518 0.930 . S
H523 C520 0.929 . S
S524 N525 1.613 . S
S524 N526 1.610 . S
N525 S524 1.613 . S
N525 C528 1.350 . S
N526 S524 1.610 . S
N526 C527 1.351 . S
C527 C521 1.428 . S
C527 N526 1.351 . S
C527 C528 1.434 . S
C528 C519 1.429 . S
C528 N525 1.350 . S
C528 C527 1.434 . S
C529 C530 1.369 1_655 S
C529 C531 1.419 . S
C529 H533 0.930 . S
C530 C529 1.369 1_455 S
C530 C539 1.429 . S
C531 C529 1.419 . S
C531 C532 1.363 . S
C531 H534 0.929 . S
C532 C531 1.363 . S
C532 C538 1.428 . S
H533 C529 0.930 . S
H534 C531 0.929 . S
S535 N536 1.613 . S
S535 N537 1.610 1_455 S
N536 S535 1.613 . S
N536 C539 1.350 . S
N537 S535 1.610 1_655 S
N537 C538 1.351 . S
C538 C532 1.428 . S
C538 N537 1.351 . S
C538 C539 1.434 1_655 S
C539 C530 1.429 . S
C539 N536 1.350 . S
C539 C538 1.434 1_455 S
C540 C541 1.369 . S
C540 C542 1.419 . S
C540 H544 0.930 . S
C541 C540 1.369 . S
C541 C550 1.429 . S
C542 C540 1.419 . S
C542 C543 1.363 . S
C542 H545 0.929 . S
C543 C542 1.363 . S
C543 C549 1.428 . S
H544 C540 0.930 . S
H545 C542 0.929 . S
S546 N547 1.613 . S
S546 N548 1.610 . S
N547 S546 1.613 . S
N547 C550 1.350 . S
N548 S546 1.610 . S
N548 C549 1.351 . S
C549 C543 1.428 . S
C549 N548 1.351 . S
C549 C550 1.434 . S
C550 C541 1.429 . S
C550 N547 1.350 . S
C550 C549 1.434 . S
C551 C552 1.369 1_455 S
C551 C553 1.419 . S
C551 H555 0.930 . S
C552 C551 1.369 1_655 S
C552 C561 1.429 . S
C553 C551 1.419 . S
C553 C554 1.363 . S
C553 H556 0.929 . S
C554 C553 1.363 . S
C554 C560 1.428 . S
H555 C551 0.930 . S
H556 C553 0.929 . S
S557 N558 1.613 . S
S557 N559 1.610 . S
N558 S557 1.613 . S
N558 C561 1.350 . S
N559 S557 1.610 . S
N559 C560 1.351 1_655 S
C560 C554 1.428 . S
C560 N559 1.351 1_455 S
C560 C561 1.434 1_455 S
C561 C552 1.429 . S
C561 N558 1.350 . S
C561 C560 1.434 1_655 S
C562 C563 1.369 . S
C562 C564 1.419 . S
C562 H566 0.930 . S
C563 C562 1.369 . S
C563 C572 1.429 . S
C564 C562 1.419 . S
C564 C565 1.363 . S
C564 H567 0.929 . S
C565 C564 1.363 . S
C565 C571 1.428 . S
H566 C562 0.930 . S
H567 C564 0.929 . S
S568 N569 1.613 . S
S568 N570 1.610 . S
N569 S568 1.613 . S
N569 C572 1.350 . S
N570 S568 1.610 . S
N570 C571 1.351 . S
C571 C565 1.428 . S
C571 N570 1.351 . S
C571 C572 1.434 . S
C572 C563 1.429 . S
C572 N569 1.350 . S
C572 C571 1.434 . S
C573 C574 1.369 . S
C573 C575 1.419 1_655 S
C573 H577 0.930 . S
C574 C573 1.369 . S
C574 C583 1.429 1_655 S
C575 C573 1.419 1_455 S
C575 C576 1.363 . S
C575 H578 0.929 . S
C576 C575 1.363 . S
C576 C582 1.428 . S
H577 C573 0.930 . S
H578 C575 0.929 . S
S579 N580 1.613 . S
S579 N581 1.610 . S
N580 S579 1.613 . S
N580 C583 1.350 . S
N581 S579 1.610 . S
N581 C582 1.351 . S
C582 C576 1.428 . S
C582 N581 1.351 . S
C582 C583 1.434 . S
C583 C574 1.429 1_455 S
C583 N580 1.350 . S
C583 C582 1.434 . S
C584 C585 1.369 . S
C584 C586 1.419 . S
C584 H588 0.930 . S
C585 C584 1.369 . S
C585 C594 1.429 . S
C586 C584 1.419 . S
C586 C587 1.363 . S
C586 H589 0.929 . S
C587 C586 1.363 . S
C587 C593 1.428 . S
H588 C584 0.930 . S
H589 C586 0.929 . S
S590 N591 1.613 . S
S590 N592 1.610 . S
N591 S590 1.613 . S
N591 C594 1.350 . S
N592 S590 1.610 . S
N592 C593 1.351 . S
C593 C587 1.428 . S
C593 N592 1.351 . S
C593 C594 1.434 . S
C594 C585 1.429 . S
C594 N591 1.350 . S
C594 C593 1.434 . S
C595 C596 1.369 . S
C595 C597 1.419 . S
C595 H599 0.930 . S
C596 C595 1.369 . S
C596 C605 1.429 . S
C597 C595 1.419 . S
C597 C598 1.363 1_655 S
C597 H600 0.929 . S
C598 C597 1.363 1_455 S
C598 C604 1.428 . S
H599 C595 0.930 . S
H600 C597 0.929 . S
S601 N602 1.613 . S
S601 N603 1.610 1_655 S
N602 S601 1.613 . S
N602 C605 1.350 . S
N603 S601 1.610 1_455 S
N603 C604 1.351 . S
C604 C598 1.428 . S
C604 N603 1.351 . S
C604 C605 1.434 1_455 S
C605 C596 1.429 . S
C605 N602 1.350 . S
C605 C604 1.434 1_655 S
C606 C607 1.369 . S
C606 C608 1.419 . S
C606 H610 0.930 . S
C607 C606 1.369 . S
C607 C616 1.429 . S
C608 C606 1.419 . S
C608 C609 1.363 . S
C608 H611 0.929 . S
C609 C608 1.363 . S
C609 C615 1.428 . S
H610 C606 0.930 . S
H611 C608 0.929 . S
S612 N613 1.613 . S
S612 N614 1.610 . S
N613 S612 1.613 . S
N613 C616 1.350 . S
N614 S612 1.610 . S
N614 C615 1.351 . S
C615 C609 1.428 . S
C615 N614 1.351 . S
C615 C616 1.434 . S
C616 C607 1.429 . S
C616 N613 1.350 . S
C616 C615 1.434 . S
C617 C618 1.369 . S
C617 C619 1.419 . S
C617 H621 0.930 . S
C618 C617 1.369 . S
C618 C627 1.429 . S
C619 C617 1.419 . S
C619 C620 1.363 1_655 S
C619 H622 0.929 . S
C620 C619 1.363 1_455 S
C620 C626 1.428 . S
H621 C617 0.930 . S
H622 C619 0.929 . S
S623 N624 1.613 . S
S623 N625 1.610 . S
N624 S623 1.613 . S
N624 C627 1.350 1_455 S
N625 S623 1.610 . S
N625 C626 1.351 . S
C626 C620 1.428 . S
C626 N625 1.351 . S
C626 C627 1.434 1_455 S
C627 C618 1.429 . S
C627 N624 1.350 1_655 S
C627 C626 1.434 1_655 S
C628 C629 1.369 . S
C628 C630 1.419 . S
C628 H632 0.930 . S
C629 C628 1.369 . S
C629 C638 1.429 . S
C630 C628 1.419 . S
C630 C631 1.363 . S
C630 H633 0.929 . S
C631 C630 1.363 . S
C631 C637 1.428 . S
H632 C628 0.930 . S
H633 C630 0.929 . S
S634 N635 1.613 . S
S634 N636 1.610 . S
N635 S634 1.613 . S
N635 C638 1.350 . S
N636 S634 1.610 . S
N636 C637 1.351 . S
C637 C631 1.428 . S
C637 N636 1.351 . S
C637 C638 1.434 . S
C638 C629 1.429 . S
C638 N635 1.350 . S
C638 C637 1.434 . S
C639 C640 1.369 . S
C639 C641 1.419 1_655 S
C639 H643 0.930 . S
C640 C639 1.369 . S
C640 C649 1.429 1_655 S
C641 C639 1.419 1_455 S
C641 C642 1.363 . S
C641 H644 0.929 . S
C642 C641 1.363 . S
C642 C648 1.428 . S
H643 C639 0.930 . S
H644 C641 0.929 . S
S645 N646 1.613 . S
S645 N647 1.610 . S
N646 S645 1.613 . S
N646 C649 1.350 . S
N647 S645 1.610 . S
N647 C648 1.351 . S
C648 C642 1.428 . S
C648 N647 1.351 . S
C648 C649 1.434 . S
C649 C640 1.429 1_455 S
C649 N646 1.350 . S
C649 C648 1.434 . S
C650 C651 1.369 . S
C650 C652 1.419 . S
C650 H654 0.930 . S
C651 C650 1.369 . S
C651 C660 1.429 . S
C652 C650 1.419 . S
C652 C653 1.363 . S
C652 H655 0.929 . S
C653 C652 1.363 . S
C653 C659 1.428 . S
H654 C650 0.930 . S
H655 C652 0.929 . S
S656 N657 1.613 . S
S656 N658 1.610 . S
N657 S656 1.613 . S
N657 C660 1.350 . S
N658 S656 1.610 . S
N658 C659 1.351 . S
C659 C653 1.428 . S
C659 N658 1.351 . S
C659 C660 1.434 . S
C660 C651 1.429 . S
C660 N657 1.350 . S
C660 C659 1.434 . S
C661 C662 1.369 . S
C661 C663 1.419 1_655 S
C661 H665 0.930 . S
C662 C661 1.369 . S
C662 C671 1.429 1_655 S
C663 C661 1.419 1_455 S
C663 C664 1.363 . S
C663 H666 0.929 . S
C664 C663 1.363 . S
C664 C670 1.428 . S
H665 C661 0.930 . S
H666 C663 0.929 . S
S667 N668 1.613 . S
S667 N669 1.610 . S
N668 S667 1.613 . S
N668 C671 1.350 . S
N669 S667 1.610 . S
N669 C670 1.351 . S
C670 C664 1.428 . S
C670 N669 1.351 . S
C670 C671 1.434 . S
C671 C662 1.429 1_455 S
C671 N668 1.350 . S
C671 C670 1.434 . S
C672 C673 1.369 . S
C672 C674 1.419 . S
C672 H676 0.930 . S
C673 C672 1.369 . S
C673 C682 1.429 . S
C674 C672 1.419 . S
C674 C675 1.363 . S
C674 H677 0.929 . S
C675 C674 1.363 . S
C675 C681 1.428 . S
H676 C672 0.930 . S
H677 C674 0.929 . S
S678 N679 1.613 . S
S678 N680 1.610 . S
N679 S678 1.613 . S
N679 C682 1.350 . S
N680 S678 1.610 . S
N680 C681 1.351 . S
C681 C675 1.428 . S
C681 N680 1.351 . S
C681 C682 1.434 . S
C682 C673 1.429 . S
C682 N679 1.350 . S
C682 C681 1.434 . S
C683 C684 1.369 1_655 S
C683 C685 1.419 . S
C683 H687 0.930 . S
C684 C683 1.369 1_455 S
C684 C693 1.429 . S
C685 C683 1.419 . S
C685 C686 1.363 . S
C685 H688 0.929 . S
C686 C685 1.363 . S
C686 C692 1.428 . S
H687 C683 0.930 . S
H688 C685 0.929 . S
S689 N690 1.613 . S
S689 N691 1.610 1_455 S
N690 S689 1.613 . S
N690 C693 1.350 . S
N691 S689 1.610 1_655 S
N691 C692 1.351 . S
C692 C686 1.428 . S
C692 N691 1.351 . S
C692 C693 1.434 1_655 S
C693 C684 1.429 . S
C693 N690 1.350 . S
C693 C692 1.434 1_455 S
C694 C695 1.369 . S
C694 C696 1.419 . S
C694 H698 0.930 . S
C695 C694 1.369 . S
C695 C704 1.429 . S
C696 C694 1.419 . S
C696 C697 1.363 . S
C696 H699 0.929 . S
C697 C696 1.363 . S
C697 C703 1.428 . S
H698 C694 0.930 . S
H699 C696 0.929 . S
S700 N701 1.613 . S
S700 N702 1.610 . S
N701 S700 1.613 . S
N701 C704 1.350 . S
N702 S700 1.610 . S
N702 C703 1.351 . S
C703 C697 1.428 . S
C703 N702 1.351 . S
C703 C704 1.434 . S
C704 C695 1.429 . S
C704 N701 1.350 . S
C704 C703 1.434 . S
C705 C706 1.369 . S
C705 C707 1.419 1_655 S
C705 H709 0.926 1_655 S
C706 C705 1.369 . S
C706 C715 1.429 . S
C707 C705 1.419 1_455 S
C707 C708 1.363 . S
C707 H710 0.929 . S
C708 C707 1.363 . S
C708 C714 1.428 1_455 S
H709 C705 0.926 1_455 S
H710 C707 0.929 . S
S711 N712 1.613 . S
S711 N713 1.610 . S
N712 S711 1.613 . S
N712 C715 1.350 . S
N713 S711 1.610 . S
N713 C714 1.351 . S
C714 C708 1.428 1_655 S
C714 N713 1.351 . S
C714 C715 1.434 . S
C715 C706 1.429 . S
C715 N712 1.350 . S
C715 C714 1.434 . S
C716 C717 1.369 . S
C716 C718 1.419 . S
C716 H720 0.930 . S
C717 C716 1.369 . S
C717 C726 1.429 . S
C718 C716 1.419 . S
C718 C719 1.363 . S
C718 H721 0.929 . S
C719 C718 1.363 . S
C719 C725 1.428 . S
H720 C716 0.930 . S
H721 C718 0.929 . S
S722 N723 1.613 . S
S722 N724 1.610 . S
N723 S722 1.613 . S
N723 C726 1.350 . S
N724 S722 1.610 . S
N724 C725 1.351 . S
C725 C719 1.428 . S
C725 N724 1.351 . S
C725 C726 1.434 . S
C726 C717 1.429 . S
C726 N723 1.350 . S
C726 C725 1.434 . S
C727 C728 1.369 . S
C727 C729 1.419 . S
C727 H731 0.930 . S
C728 C727 1.369 . S
C728 C737 1.429 . S
C729 C727 1.419 . S
C729 C730 1.363 1_455 S
C729 H732 0.929 . S
C730 C729 1.363 1_655 S
C730 C736 1.428 . S
H731 C727 0.930 . S
H732 C729 0.929 . S
S733 N734 1.613 1_655 S
S733 N735 1.610 . S
N734 S733 1.613 1_455 S
N734 C737 1.350 . S
N735 S733 1.610 . S
N735 C736 1.351 . S
C736 C730 1.428 . S
C736 N735 1.351 . S
C736 C737 1.434 1_655 S
C737 C728 1.429 . S
C737 N734 1.350 . S
C737 C736 1.434 1_455 S
C738 C739 1.369 . S
C738 C740 1.419 . S
C738 H742 0.930 . S
C739 C738 1.369 . S
C739 C748 1.429 . S
C740 C738 1.419 . S
C740 C741 1.363 . S
C740 H743 0.929 . S
C741 C740 1.363 . S
C741 C747 1.428 . S
H742 C738 0.930 . S
H743 C740 0.929 . S
S744 N745 1.613 . S
S744 N746 1.610 . S
N745 S744 1.613 . S
N745 C748 1.350 . S
N746 S744 1.610 . S
N746 C747 1.351 . S
C747 C741 1.428 . S
C747 N746 1.351 . S
C747 C748 1.434 . S
C748 C739 1.429 . S
C748 N745 1.350 . S
C748 C747 1.434 . S
C749 C750 1.369 . S
C749 C751 1.419 1_455 S
C749 H753 0.930 . S
C750 C749 1.369 . S
C750 C759 1.429 . S
C751 C749 1.419 1_655 S
C751 C752 1.363 . S
C751 H754 0.929 . S
C752 C751 1.363 . S
C752 C758 1.428 1_655 S
H753 C749 0.930 . S
H754 C751 0.929 . S
S755 N756 1.613 . S
S755 N757 1.610 . S
N756 S755 1.613 . S
N756 C759 1.350 . S
N757 S755 1.610 . S
N757 C758 1.351 . S
C758 C752 1.428 1_455 S
C758 N757 1.351 . S
C758 C759 1.434 . S
C759 C750 1.429 . S
C759 N756 1.350 . S
C759 C758 1.434 . S
C760 C761 1.369 . S
C760 C762 1.419 . S
C760 H764 0.930 . S
C761 C760 1.369 . S
C761 C770 1.429 . S
C762 C760 1.419 . S
C762 C763 1.363 . S
C762 H765 0.929 . S
C763 C762 1.363 . S
C763 C769 1.428 . S
H764 C760 0.930 . S
H765 C762 0.929 . S
S766 N767 1.613 . S
S766 N768 1.610 . S
N767 S766 1.613 . S
N767 C770 1.350 . S
N768 S766 1.610 . S
N768 C769 1.351 . S
C769 C763 1.428 . S
C769 N768 1.351 . S
C769 C770 1.434 . S
C770 C761 1.429 . S
C770 N767 1.350 . S
C770 C769 1.434 . S
C771 C772 1.369 . S
C771 C773 1.419 1_455 S
C771 H775 0.930 . S
C772 C771 1.369 . S
C772 C781 1.429 1_455 S
C773 C771 1.419 1_655 S
C773 C774 1.363 . S
C773 H776 0.929 . S
C774 C773 1.363 . S
C774 C780 1.428 . S
H775 C771 0.930 . S
H776 C773 0.929 . S
S777 N778 1.613 . S
S777 N779 1.610 . S
N778 S777 1.613 . S
N778 C781 1.350 . S
N779 S777 1.610 . S
N779 C780 1.351 . S
C780 C774 1.428 . S
C780 N779 1.351 . S
C780 C781 1.434 . S
C781 C772 1.429 1_655 S
C781 N778 1.350 . S
C781 C780 1.434 . S
C782 C783 1.369 . S
C782 C784 1.419 . S
C782 H786 0.930 . S
C783 C782 1.369 . S
C783 C792 1.429 . S
C784 C782 1.419 . S
C784 C785 1.363 . S
C784 H787 0.929 . S
C785 C784 1.363 . S
C785 C791 1.428 . S
H786 C782 0.930 . S
H787 C784 0.929 . S
S788 N789 1.613 . S
S788 N790 1.610 . S
N789 S788 1.613 . S
N789 C792 1.350 . S
N790 S788 1.610 . S
N790 C791 1.351 . S
C791 C785 1.428 . S
C791 N790 1.351 . S
C791 C792 1.434 . S
C792 C783 1.429 . S
C792 N789 1.350 . S
C792 C791 1.434 . S
C793 C794 1.369 . S
C793 C795 1.419 1_455 S
C793 H797 0.930 . S
C794 C793 1.369 . S
C794 C803 1.429 1_455 S
C795 C793 1.419 1_655 S
C795 C796 1.363 . S
C795 H798 0.929 . S
C796 C795 1.363 . S
C796 C802 1.428 . S
H797 C793 0.930 . S
H798 C795 0.929 . S
S799 N800 1.613 . S
S799 N801 1.610 . S
N800 S799 1.613 . S
N800 C803 1.350 . S
N801 S799 1.610 . S
N801 C802 1.351 . S
C802 C796 1.428 . S
C802 N801 1.351 . S
C802 C803 1.434 . S
C803 C794 1.429 1_655 S
C803 N800 1.350 . S
C803 C802 1.434 . S
C804 C805 1.369 . S
C804 C806 1.419 . S
C804 H808 0.930 . S
C805 C804 1.369 . S
C805 C814 1.429 . S
C806 C804 1.419 . S
C806 C807 1.363 . S
C806 H809 0.929 . S
C807 C806 1.363 . S
C807 C813 1.428 . S
H808 C804 0.930 . S
H809 C806 0.929 . S
S810 N811 1.613 . S
S810 N812 1.610 . S
N811 S810 1.613 . S
N811 C814 1.350 . S
N812 S810 1.610 . S
N812 C813 1.351 . S
C813 C807 1.428 . S
C813 N812 1.351 . S
C813 C814 1.434 . S
C814 C805 1.429 . S
C814 N811 1.350 . S
C814 C813 1.434 . S
C815 C816 1.369 . S
C815 C817 1.419 . S
C815 H819 0.930 . S
C816 C815 1.369 . S
C816 C825 1.429 . S
C817 C815 1.419 . S
C817 C818 1.363 1_455 S
C817 H820 0.929 . S
C818 C817 1.363 1_655 S
C818 C824 1.428 . S
H819 C815 0.930 . S
H820 C817 0.929 . S
S821 N822 1.613 1_655 S
S821 N823 1.610 . S
N822 S821 1.613 1_455 S
N822 C825 1.350 . S
N823 S821 1.610 . S
N823 C824 1.351 . S
C824 C818 1.428 . S
C824 N823 1.351 . S
C824 C825 1.434 1_655 S
C825 C816 1.429 . S
C825 N822 1.350 . S
C825 C824 1.434 1_455 S
C826 C827 1.369 . S
C826 C828 1.419 . S
C826 H830 0.930 . S
C827 C826 1.369 . S
C827 C836 1.429 . S
C828 C826 1.419 . S
C828 C829 1.363 . S
C828 H831 0.929 . S
C829 C828 1.363 . S
C829 C835 1.428 . S
H830 C826 0.930 . S
H831 C828 0.929 . S
S832 N833 1.613 . S
S832 N834 1.610 . S
N833 S832 1.613 . S
N833 C836 1.350 . S
N834 S832 1.610 . S
N834 C835 1.351 . S
C835 C829 1.428 . S
C835 N834 1.351 . S
C835 C836 1.434 . S
C836 C827 1.429 . S
C836 N833 1.350 . S
C836 C835 1.434 . S
C837 C838 1.369 . S
C837 C839 1.419 1_655 S
C837 H841 0.930 . S
C838 C837 1.369 . S
C838 C847 1.429 1_655 S
C839 C837 1.419 1_455 S
C839 C840 1.363 . S
C839 H842 0.929 . S
C840 C839 1.363 . S
C840 C846 1.428 . S
H841 C837 0.930 . S
H842 C839 0.929 . S
S843 N844 1.613 . S
S843 N845 1.610 . S
N844 S843 1.613 . S
N844 C847 1.350 . S
N845 S843 1.610 . S
N845 C846 1.351 . S
C846 C840 1.428 . S
C846 N845 1.351 . S
C846 C847 1.434 . S
C847 C838 1.429 1_455 S
C847 N844 1.350 . S
C847 C846 1.434 . S
C848 C849 1.369 . S
C848 C850 1.419 . S
C848 H852 0.930 . S
C849 C848 1.369 . S
C849 C858 1.429 . S
C850 C848 1.419 . S
C850 C851 1.363 . S
C850 H853 0.929 . S
C851 C850 1.363 . S
C851 C857 1.428 . S
H852 C848 0.930 . S
H853 C850 0.929 . S
S854 N855 1.613 . S
S854 N856 1.610 . S
N855 S854 1.613 . S
N855 C858 1.350 . S
N856 S854 1.610 . S
N856 C857 1.351 . S
C857 C851 1.428 . S
C857 N856 1.351 . S
C857 C858 1.434 . S
C858 C849 1.429 . S
C858 N855 1.350 . S
C858 C857 1.434 . S
C859 C860 1.369 . S
C859 C861 1.419 . S
C859 H863 0.930 . S
C860 C859 1.369 . S
C860 C869 1.429 1_655 S
C861 C859 1.419 . S
C861 C862 1.363 1_655 S
C861 H864 0.929 . S
C862 C861 1.363 1_455 S
C862 C868 1.428 . S
H863 C859 0.930 . S
H864 C861 0.929 . S
S865 N866 1.613 . S
S865 N867 1.610 . S
N866 S865 1.613 . S
N866 C869 1.350 . S
N867 S865 1.610 . S
N867 C868 1.351 . S
C868 C862 1.428 . S
C868 N867 1.351 . S
C868 C869 1.434 . S
C869 C860 1.429 1_455 S
C869 N866 1.350 . S
C869 C868 1.434 . S
C870 C871 1.369 . S
C870 C872 1.419 . S
C870 H874 0.930 . S
C871 C870 1.369 . S
C871 C880 1.429 . S
C872 C870 1.419 . S
C872 C873 1.363 . S
C872 H875 0.929 . S
C873 C872 1.363 . S
C873 C879 1.428 . S
H874 C870 0.930 . S
H875 C872 0.929 . S
S876 N877 1.613 . S
S876 N878 1.610 . S
N877 S876 1.613 . S
N877 C880 1.350 1_565 S
N878 S876 1.610 . S
N878 C879 1.351 1_565 S
C879 C873 1.428 . S
C879 N878 1.351 1_545 S
C879 C880 1.434 . S
C880 C871 1.429 . S
C880 N877 1.350 1_545 S
C880 C879 1.434 . S
C881 C882 1.369 . S
C881 C883 1.419 . S
C881 H885 0.930 . S
C882 C881 1.369 . S
C882 C891 1.429 1_655 S
C883 C881 1.419 . S
C883 C884 1.363 1_655 S
C883 H886 0.929 . S
C884 C883 1.363 1_455 S
C884 C890 1.428 . S
H885 C881 0.930 . S
H886 C883 0.929 . S
S887 N888 1.613 . S
S887 N889 1.610 . S
N888 S887 1.613 . S
N888 C891 1.350 . S
N889 S887 1.610 . S
N889 C890 1.351 . S
C890 C884 1.428 . S
C890 N889 1.351 . S
C890 C891 1.434 . S
C891 C882 1.429 1_455 S
C891 N888 1.350 . S
C891 C890 1.434 . S
C892 C893 1.369 . S
C892 C894 1.419 . S
C892 H896 0.930 . S
C893 C892 1.369 . S
C893 C902 1.429 . S
C894 C892 1.419 . S
C894 C895 1.363 . S
C894 H897 0.929 . S
C895 C894 1.363 . S
C895 C901 1.428 . S
H896 C892 0.930 . S
H897 C894 0.929 . S
S898 N899 1.613 . S
S898 N900 1.610 . S
N899 S898 1.613 . S
N899 C902 1.350 . S
N900 S898 1.610 . S
N900 C901 1.351 . S
C901 C895 1.428 . S
C901 N900 1.351 . S
C901 C902 1.434 . S
C902 C893 1.429 . S
C902 N899 1.350 . S
C902 C901 1.434 . S
C903 C904 1.369 1_455 S
C903 C905 1.419 . S
C903 H907 0.930 . S
C904 C903 1.369 1_655 S
C904 C913 1.429 . S
C905 C903 1.419 . S
C905 C906 1.363 . S
C905 H908 0.929 . S
C906 C905 1.363 . S
C906 C912 1.428 1_455 S
H907 C903 0.930 . S
H908 C905 0.929 . S
S909 N910 1.613 . S
S909 N911 1.610 . S
N910 S909 1.613 . S
N910 C913 1.350 . S
N911 S909 1.610 . S
N911 C912 1.351 . S
C912 C906 1.428 1_655 S
C912 N911 1.351 . S
C912 C913 1.434 . S
C913 C904 1.429 . S
C913 N910 1.350 . S
C913 C912 1.434 . S
C914 C915 1.369 . S
C914 C916 1.419 . S
C914 H918 0.930 . S
C915 C914 1.369 . S
C915 C924 1.429 . S
C916 C914 1.419 . S
C916 C917 1.363 . S
C916 H919 0.929 . S
C917 C916 1.363 . S
C917 C923 1.428 . S
H918 C914 0.930 . S
H919 C916 0.929 . S
S920 N921 1.613 . S
S920 N922 1.610 . S
N921 S920 1.613 . S
N921 C924 1.350 . S
N922 S920 1.610 . S
N922 C923 1.351 . S
C923 C917 1.428 . S
C923 N922 1.351 . S
C923 C924 1.434 . S
C924 C915 1.429 . S
C924 N921 1.350 . S
C924 C923 1.434 . S
C925 C926 1.369 . S
C925 C927 1.419 . S
C925 H929 0.930 . S
C926 C925 1.369 . S
C926 C935 1.429 1_655 S
C927 C925 1.419 . S
C927 C928 1.363 1_655 S
C927 H930 0.929 . S
C928 C927 1.363 1_455 S
C928 C934 1.428 . S
H929 C925 0.930 . S
H930 C927 0.929 . S
S931 N932 1.613 . S
S931 N933 1.610 . S
N932 S931 1.613 . S
N932 C935 1.350 . S
N933 S931 1.610 . S
N933 C934 1.351 . S
C934 C928 1.428 . S
C934 N933 1.351 . S
C934 C935 1.434 . S
C935 C926 1.429 1_455 S
C935 N932 1.350 . S
C935 C934 1.434 . S
C936 C937 1.369 . S
C936 C938 1.419 . S
C936 H940 0.930 . S
C937 C936 1.369 . S
C937 C946 1.429 . S
C938 C936 1.419 . S
C938 C939 1.363 . S
C938 H941 0.929 . S
C939 C938 1.363 . S
C939 C945 1.428 . S
H940 C936 0.930 . S
H941 C938 0.929 . S
S942 N943 1.613 . S
S942 N944 1.610 . S
N943 S942 1.613 . S
N943 C946 1.350 . S
N944 S942 1.610 . S
N944 C945 1.351 . S
C945 C939 1.428 . S
C945 N944 1.351 . S
C945 C946 1.434 . S
C946 C937 1.429 . S
C946 N943 1.350 . S
C946 C945 1.434 . S
C947 C948 1.369 . S
C947 C949 1.419 . S
C947 H951 0.930 . S
C948 C947 1.369 . S
C948 C957 1.429 1_455 S
C949 C947 1.419 . S
C949 C950 1.363 1_455 S
C949 H952 0.929 . S
C950 C949 1.363 1_655 S
C950 C956 1.428 . S
H951 C947 0.930 . S
H952 C949 0.929 . S
S953 N954 1.613 . S
S953 N955 1.610 . S
N954 S953 1.613 . S
N954 C957 1.350 . S
N955 S953 1.610 . S
N955 C956 1.351 . S
C956 C950 1.428 . S
C956 N955 1.351 . S
C956 C957 1.434 . S
C957 C948 1.429 1_655 S
C957 N954 1.350 . S
C957 C956 1.434 . S
C958 C959 1.369 . S
C958 C960 1.419 . S
C958 H962 0.930 . S
C959 C958 1.369 . S
C959 C968 1.429 . S
C960 C958 1.419 . S
C960 C961 1.363 . S
C960 H963 0.929 . S
C961 C960 1.363 . S
C961 C967 1.428 . S
H962 C958 0.930 . S
H963 C960 0.929 . S
S964 N965 1.613 . S
S964 N966 1.610 . S
N965 S964 1.613 . S
N965 C968 1.350 . S
N966 S964 1.610 . S
N966 C967 1.351 . S
C967 C961 1.428 . S
C967 N966 1.351 . S
C967 C968 1.434 . S
C968 C959 1.429 . S
C968 N965 1.350 . S
C968 C967 1.434 . S
C969 C970 1.369 . S
C969 C971 1.419 . S
C969 H973 0.930 . S
C970 C969 1.369 . S
C970 C979 1.429 1_655 S
C971 C969 1.419 . S
C971 C972 1.363 1_655 S
C971 H974 0.929 . S
C972 C971 1.363 1_455 S
C972 C978 1.428 . S
H973 C969 0.930 . S
H974 C971 0.929 . S
S975 N976 1.613 . S
S975 N977 1.610 . S
N976 S975 1.613 . S
N976 C979 1.350 . S
N977 S975 1.610 . S
N977 C978 1.351 . S
C978 C972 1.428 . S
C978 N977 1.351 . S
C978 C979 1.434 . S
C979 C970 1.429 1_455 S
C979 N976 1.350 . S
C979 C978 1.434 . S
C980 C981 1.369 . S
C980 C982 1.419 . S
C980 H984 0.930 . S
C981 C980 1.369 . S
C981 C990 1.429 . S
C982 C980 1.419 . S
C982 C983 1.363 . S
C982 H985 0.929 . S
C983 C982 1.363 . S
C983 C989 1.428 . S
H984 C980 0.930 . S
H985 C982 0.929 . S
S986 N987 1.613 . S
S986 N988 1.610 . S
N987 S986 1.613 . S
N987 C990 1.350 . S
N988 S986 1.610 . S
N988 C989 1.351 . S
C989 C983 1.428 . S
C989 N988 1.351 . S
C989 C990 1.434 . S
C990 C981 1.429 . S
C990 N987 1.350 . S
C990 C989 1.434 . S
C991 C992 1.369 1_655 S
C991 C993 1.419 . S
C991 H995 0.930 . S
C992 C991 1.369 1_455 S
C992 C1001 1.429 . S
C993 C991 1.419 . S
C993 C994 1.363 . S
C993 H996 0.929 . S
C994 C993 1.363 . S
C994 C1000 1.428 1_655 S
H995 C991 0.930 . S
H996 C993 0.929 . S
S997 N998 1.613 . S
S997 N999 1.610 . S
N998 S997 1.613 . S
N998 C1001 1.350 . S
N999 S997 1.610 . S
N999 C1000 1.351 . S
C1000 C994 1.428 1_455 S
C1000 N999 1.351 . S
C1000 C1001 1.434 . S
C1001 C992 1.429 . S
C1001 N998 1.350 . S
C1001 C1000 1.434 . S
C1002 C1003 1.369 . S
C1002 C1004 1.419 . S
C1002 H1006 0.930 . S
C1003 C1002 1.369 . S
C1003 C1012 1.429 . S
C1004 C1002 1.419 . S
C1004 C1005 1.363 . S
C1004 H1007 0.929 . S
C1005 C1004 1.363 . S
C1005 C1011 1.428 . S
H1006 C1002 0.930 . S
H1007 C1004 0.929 . S
S1008 N1009 1.613 . S
S1008 N1010 1.610 . S
N1009 S1008 1.613 . S
N1009 C1012 1.350 . S
N1010 S1008 1.610 . S
N1010 C1011 1.351 . S
C1011 C1005 1.428 . S
C1011 N1010 1.351 . S
C1011 C1012 1.434 . S
C1012 C1003 1.429 . S
C1012 N1009 1.350 . S
C1012 C1011 1.434 . S
C1013 C1014 1.369 . S
C1013 C1015 1.419 1_455 S
C1013 H1017 0.930 . S
C1014 C1013 1.369 . S
C1014 C1023 1.429 . S
C1015 C1013 1.419 1_655 S
C1015 C1016 1.363 . S
C1015 H1018 0.929 . S
C1016 C1015 1.363 . S
C1016 C1022 1.428 . S
H1017 C1013 0.930 . S
H1018 C1015 0.929 . S
S1019 N1020 1.613 1_655 S
S1019 N1021 1.610 . S
N1020 S1019 1.613 1_455 S
N1020 C1023 1.350 . S
N1021 S1019 1.610 . S
N1021 C1022 1.351 . S
C1022 C1016 1.428 . S
C1022 N1021 1.351 . S
C1022 C1023 1.434 1_655 S
C1023 C1014 1.429 . S
C1023 N1020 1.350 . S
C1023 C1022 1.434 1_455 S
C1024 C1025 1.369 . S
C1024 C1026 1.419 . S
C1024 H1028 0.930 . S
C1025 C1024 1.369 . S
C1025 C1034 1.429 . S
C1026 C1024 1.419 . S
C1026 C1027 1.363 . S
C1026 H1029 0.929 . S
C1027 C1026 1.363 . S
C1027 C1033 1.428 . S
H1028 C1024 0.930 . S
H1029 C1026 0.929 . S
S1030 N1031 1.613 . S
S1030 N1032 1.610 . S
N1031 S1030 1.613 . S
N1031 C1034 1.350 . S
N1032 S1030 1.610 . S
N1032 C1033 1.351 . S
C1033 C1027 1.428 . S
C1033 N1032 1.351 . S
C1033 C1034 1.434 . S
C1034 C1025 1.429 . S
C1034 N1031 1.350 . S
C1034 C1033 1.434 . S
C1035 C1036 1.369 . S
C1035 C1037 1.419 1_565 S
C1035 H1039 0.930 . S
C1036 C1035 1.369 . S
C1036 C1045 1.429 1_655 S
C1037 C1035 1.419 1_545 S
C1037 C1038 1.363 1_655 S
C1037 H1040 0.929 . S
C1038 C1037 1.363 1_455 S
C1038 C1044 1.428 . S
H1039 C1035 0.930 . S
H1040 C1037 0.929 . S
S1041 N1042 1.613 1_545 S
S1041 N1043 1.610 . S
N1042 S1041 1.613 1_565 S
N1042 C1045 1.350 . S
N1043 S1041 1.610 . S
N1043 C1044 1.351 . S
C1044 C1038 1.428 . S
C1044 N1043 1.351 . S
C1044 C1045 1.434 1_545 S
C1045 C1036 1.429 1_455 S
C1045 N1042 1.350 . S
C1045 C1044 1.434 1_565 S
C1046 C1047 1.369 . S
C1046 C1048 1.419 . S
C1046 H1050 0.930 . S
C1047 C1046 1.369 . S
C1047 C1056 1.429 1_565 S
C1048 C1046 1.419 . S
C1048 C1049 1.363 1_565 S
C1048 H1051 0.929 . S
C1049 C1048 1.363 1_545 S
C1049 C1055 1.428 . S
H1050 C1046 0.930 . S
H1051 C1048 0.929 . S
S1052 N1053 1.613 . S
S1052 N1054 1.610 . S
N1053 S1052 1.613 . S
N1053 C1056 1.350 . S
N1054 S1052 1.610 . S
N1054 C1055 1.351 . S
C1055 C1049 1.428 . S
C1055 N1054 1.351 . S
C1055 C1056 1.434 . S
C1056 C1047 1.429 1_545 S
C1056 N1053 1.350 . S
C1056 C1055 1.434 . S
C1057 C1058 1.369 . S
C1057 C1059 1.419 . S
C1057 H1061 0.930 . S
C1058 C1057 1.369 . S
C1058 C1067 1.429 1_455 S
C1059 C1057 1.419 . S
C1059 C1060 1.363 1_455 S
C1059 H1062 0.929 . S
C1060 C1059 1.363 1_655 S
C1060 C1066 1.428 . S
H1061 C1057 0.930 . S
H1062 C1059 0.929 . S
S1063 N1064 1.613 . S
S1063 N1065 1.610 . S
N1064 S1063 1.613 . S
N1064 C1067 1.350 . S
N1065 S1063 1.610 . S
N1065 C1066 1.351 . S
C1066 C1060 1.428 . S
C1066 N1065 1.351 . S
C1066 C1067 1.434 . S
C1067 C1058 1.429 1_655 S
C1067 N1064 1.350 . S
C1067 C1066 1.434 . S
C1068 C1069 1.369 . S
C1068 C1070 1.419 . S
C1068 H1072 0.930 . S
C1069 C1068 1.369 . S
C1069 C1078 1.429 . S
C1070 C1068 1.419 . S
C1070 C1071 1.363 . S
C1070 H1073 0.929 . S
C1071 C1070 1.363 . S
C1071 C1077 1.428 . S
H1072 C1068 0.930 . S
H1073 C1070 0.929 . S
S1074 N1075 1.613 . S
S1074 N1076 1.610 . S
N1075 S1074 1.613 . S
N1075 C1078 1.350 . S
N1076 S1074 1.610 . S
N1076 C1077 1.351 . S
C1077 C1071 1.428 . S
C1077 N1076 1.351 . S
C1077 C1078 1.434 . S
C1078 C1069 1.429 . S
C1078 N1075 1.350 . S
C1078 C1077 1.434 . S
C1079 C1080 1.369 . S
C1079 C1081 1.419 . S
C1079 H1083 0.930 . S
C1080 C1079 1.369 . S
C1080 C1089 1.429 1_565 S
C1081 C1079 1.419 . S
C1081 C1082 1.363 1_565 S
C1081 H1084 0.929 . S
C1082 C1081 1.363 1_545 S
C1082 C1088 1.428 . S
H1083 C1079 0.930 . S
H1084 C1081 0.929 . S
S1085 N1086 1.613 . S
S1085 N1087 1.610 . S
N1086 S1085 1.613 . S
N1086 C1089 1.350 . S
N1087 S1085 1.610 . S
N1087 C1088 1.351 . S
C1088 C1082 1.428 . S
C1088 N1087 1.351 . S
C1088 C1089 1.434 . S
C1089 C1080 1.429 1_545 S
C1089 N1086 1.350 . S
C1089 C1088 1.434 . S
C1090 C1091 1.369 1_655 S
C1090 C1092 1.419 . S
C1090 H1094 0.930 . S
C1091 C1090 1.369 1_455 S
C1091 C1100 1.429 . S
C1092 C1090 1.419 . S
C1092 C1093 1.363 . S
C1092 H1095 0.929 . S
C1093 C1092 1.363 . S
C1093 C1099 1.428 1_655 S
H1094 C1090 0.930 . S
H1095 C1092 0.929 . S
S1096 N1097 1.613 . S
S1096 N1098 1.610 . S
N1097 S1096 1.613 . S
N1097 C1100 1.350 . S
N1098 S1096 1.610 . S
N1098 C1099 1.351 . S
C1099 C1093 1.428 1_455 S
C1099 N1098 1.351 . S
C1099 C1100 1.434 . S
C1100 C1091 1.429 . S
C1100 N1097 1.350 . S
C1100 C1099 1.434 . S
C1101 C1102 1.369 . S
C1101 C1103 1.384 1_554 S
C1101 H1105 0.930 . S
C1102 C1101 1.369 . S
C1102 C1111 1.431 1_554 S
C1103 C1101 1.384 1_556 S
C1103 C1104 1.400 . S
C1103 H1106 0.928 . S
C1104 C1103 1.400 . S
C1104 C1110 1.428 . S
H1105 C1101 0.930 . S
H1106 C1103 0.928 . S
S1107 N1108 1.613 . S
S1107 N1109 1.610 . S
N1108 S1107 1.613 . S
N1108 C1111 1.349 . S
N1109 S1107 1.610 . S
N1109 C1110 1.351 . S
C1110 C1104 1.428 . S
C1110 N1109 1.351 . S
C1110 C1111 1.432 . S
C1111 C1102 1.431 1_556 S
C1111 N1108 1.349 . S
C1111 C1110 1.432 . S
C1112 C1113 1.369 . S
C1112 C1114 1.419 1_556 S
C1112 H1116 0.930 . S
C1113 C1112 1.369 . S
C1113 C1122 1.475 1_455 S
C1114 C1112 1.419 1_554 S
C1114 C1115 1.363 1_455 S
C1114 H1117 0.929 . S
C1115 C1114 1.363 1_655 S
C1115 C1121 1.428 . S
H1116 C1112 0.930 . S
H1117 C1114 0.929 . S
S1118 N1119 1.597 1_554 S
S1118 N1120 1.610 . S
N1119 S1118 1.597 1_556 S
N1119 C1122 1.349 . S
N1120 S1118 1.610 . S
N1120 C1121 1.351 . S
C1121 C1115 1.428 . S
C1121 N1120 1.351 . S
C1121 C1122 1.385 1_554 S
C1122 C1113 1.475 1_655 S
C1122 N1119 1.349 . S
C1122 C1121 1.385 1_556 S
C1123 C1124 1.369 . S
C1123 C1125 1.419 . S
C1123 H1127 0.930 . S
C1124 C1123 1.369 . S
C1124 C1133 1.429 . S
C1125 C1123 1.419 . S
C1125 C1126 1.363 . S
C1125 H1128 0.929 . S
C1126 C1125 1.363 . S
C1126 C1132 1.428 . S
H1127 C1123 0.930 . S
H1128 C1125 0.929 . S
S1129 N1130 1.613 . S
S1129 N1131 1.610 . S
N1130 S1129 1.613 . S
N1130 C1133 1.350 . S
N1131 S1129 1.610 . S
N1131 C1132 1.351 . S
C1132 C1126 1.428 . S
C1132 N1131 1.351 . S
C1132 C1133 1.434 . S
C1133 C1124 1.429 . S
C1133 N1130 1.350 . S
C1133 C1132 1.434 . S
C1134 C1135 1.369 . S
C1134 C1136 1.419 1_556 S
C1134 H1138 0.930 . S
C1135 C1134 1.369 . S
C1135 C1144 1.429 . S
C1136 C1134 1.419 1_554 S
C1136 C1137 1.363 . S
C1136 H1139 0.929 . S
C1137 C1136 1.363 . S
C1137 C1143 1.428 . S
H1138 C1134 0.930 . S
H1139 C1136 0.929 . S
S1140 N1141 1.613 . S
S1140 N1142 1.610 1_556 S
N1141 S1140 1.613 . S
N1141 C1144 1.350 . S
N1142 S1140 1.610 1_554 S
N1142 C1143 1.351 . S
C1143 C1137 1.428 . S
C1143 N1142 1.351 . S
C1143 C1144 1.434 1_554 S
C1144 C1135 1.429 . S
C1144 N1141 1.350 . S
C1144 C1143 1.434 1_556 S
C1145 C1146 1.369 . S
C1145 C1147 1.419 . S
C1145 H1149 0.930 . S
C1146 C1145 1.369 . S
C1146 C1155 1.429 . S
C1147 C1145 1.419 . S
C1147 C1148 1.363 . S
C1147 H1150 0.929 . S
C1148 C1147 1.363 . S
C1148 C1154 1.428 . S
H1149 C1145 0.930 . S
H1150 C1147 0.929 . S
S1151 N1152 1.613 . S
S1151 N1153 1.610 . S
N1152 S1151 1.613 . S
N1152 C1155 1.350 . S
N1153 S1151 1.610 . S
N1153 C1154 1.351 . S
C1154 C1148 1.428 . S
C1154 N1153 1.351 . S
C1154 C1155 1.434 . S
C1155 C1146 1.429 . S
C1155 N1152 1.350 . S
C1155 C1154 1.434 . S
C1156 C1157 1.369 1_565 S
C1156 C1158 1.419 . S
C1156 H1160 0.930 . S
C1157 C1156 1.369 1_545 S
C1157 C1166 1.429 1_556 S
C1158 C1156 1.419 . S
C1158 C1159 1.363 1_556 S
C1158 H1161 0.929 . S
C1159 C1158 1.363 1_554 S
C1159 C1165 1.428 1_565 S
H1160 C1156 0.930 . S
H1161 C1158 0.929 . S
S1162 N1163 1.613 . S
S1162 N1164 1.610 . S
N1163 S1162 1.613 . S
N1163 C1166 1.350 . S
N1164 S1162 1.610 . S
N1164 C1165 1.351 . S
C1165 C1159 1.428 1_545 S
C1165 N1164 1.351 . S
C1165 C1166 1.434 . S
C1166 C1157 1.429 1_554 S
C1166 N1163 1.350 . S
C1166 C1165 1.434 . S
C1167 C1168 1.369 . S
C1167 C1169 1.419 . S
C1167 H1171 0.930 . S
C1168 C1167 1.369 . S
C1168 C1177 1.429 . S
C1169 C1167 1.419 . S
C1169 C1170 1.363 . S
C1169 H1172 0.929 . S
C1170 C1169 1.363 . S
C1170 C1176 1.428 . S
H1171 C1167 0.930 . S
H1172 C1169 0.929 . S
S1173 N1174 1.613 . S
S1173 N1175 1.610 . S
N1174 S1173 1.613 . S
N1174 C1177 1.350 . S
N1175 S1173 1.610 . S
N1175 C1176 1.351 . S
C1176 C1170 1.428 . S
C1176 N1175 1.351 . S
C1176 C1177 1.434 . S
C1177 C1168 1.429 . S
C1177 N1174 1.350 . S
C1177 C1176 1.434 . S
C1178 C1179 1.369 . S
C1178 C1180 1.419 . S
C1178 H1182 0.930 . S
C1179 C1178 1.369 . S
C1179 C1188 1.429 . S
C1180 C1178 1.419 . S
C1180 C1181 1.363 . S
C1180 H1183 0.929 . S
C1181 C1180 1.363 . S
C1181 C1187 1.428 . S
H1182 C1178 0.930 . S
H1183 C1180 0.929 . S
S1184 N1185 1.613 . S
S1184 N1186 1.610 . S
N1185 S1184 1.613 . S
N1185 C1188 1.350 . S
N1186 S1184 1.610 . S
N1186 C1187 1.351 . S
C1187 C1181 1.428 . S
C1187 N1186 1.351 . S
C1187 C1188 1.434 . S
C1188 C1179 1.429 . S
C1188 N1185 1.350 . S
C1188 C1187 1.434 . S
C1189 C1190 1.369 . S
C1189 C1191 1.419 . S
C1189 H1193 0.930 . S
C1190 C1189 1.369 . S
C1190 C1199 1.429 . S
C1191 C1189 1.419 . S
C1191 C1192 1.363 . S
C1191 H1194 0.929 . S
C1192 C1191 1.363 . S
C1192 C1198 1.428 . S
H1193 C1189 0.930 . S
H1194 C1191 0.929 . S
S1195 N1196 1.613 . S
S1195 N1197 1.610 . S
N1196 S1195 1.613 . S
N1196 C1199 1.350 . S
N1197 S1195 1.610 . S
N1197 C1198 1.351 . S
C1198 C1192 1.428 . S
C1198 N1197 1.351 . S
C1198 C1199 1.434 . S
C1199 C1190 1.429 . S
C1199 N1196 1.350 . S
C1199 C1198 1.434 . S
C497 C27 0.785 . S
C499 C373 0.773 . S
C508 C1 0.787 . S
C510 C399 0.771 . S
C519 C58 0.778 . S
C521 C404 0.778 . S
C530 C32 0.783 . S
C532 C430 0.776 . S
C541 C461 0.778 . S
C543 C63 0.779 . S
C552 C89 0.780 . S
C554 C435 0.776 . S
C563 C94 0.787 . S
C565 C492 0.772 . S
C574 C120 0.770 . S
C576 C466 0.785 . S
C585 C249 0.787 . S
C587 C151 0.772 . S
C596 C275 0.769 . S
C598 C125 0.786 . S
C607 C280 0.770 . S
C609 C182 0.785 . S
C618 C306 0.777 . S
C620 C156 0.780 . S
C629 C337 0.780 . S
C631 C187 0.778 . S
C640 C213 0.769 . S
C642 C311 0.786 . S
C651 C368 0.775 . S
C653 C218 0.782 . S
C662 C244 0.776 . S
C664 C342 0.781 . S
C673 C2 2.017 1_565 S
C675 C382 2.022 . S
C684 C10 2.023 . S
C686 C374 2.018 . S
C695 C33 2.021 . S
C697 C413 2.019 . S
C706 C405 2.023 . S
C708 C41 2.018 1_565 S
C717 C436 2.022 . S
C719 C72 2.019 1_545 S
C728 C444 2.019 . S
C730 C64 2.021 . S
C739 C467 2.024 . S
C741 C103 2.017 . S
C750 C475 2.022 . S
C752 C95 2.019 1_545 S
C761 C126 2.021 . S
C763 C258 2.019 . S
C772 C134 2.017 . S
C774 C250 2.023 1_565 S
C783 C157 2.017 . S
C785 C289 2.023 1_565 S
C794 C165 2.018 . S
C796 C281 2.021 . S
C805 C312 2.017 . S
C807 C196 2.022 . S
C816 C320 2.018 1_545 S
C818 C188 2.022 . S
C827 C343 2.017 1_545 S
C829 C227 2.023 . S
C838 C219 2.017 . S
C840 C351 2.023 . S
C849 C24 1.796 . S
C851 C290 1.759 . S
C860 C303 1.792 . S
C862 C11 1.760 . S
C871 C259 1.761 . S
C873 C55 1.794 . S
C882 C272 1.792 . S
C884 C42 1.760 . S
C893 C359 1.752 . S
C895 C62 1.797 . S
C904 C80 1.759 . S
C906 C341 1.793 . S
C915 C93 1.795 . S
C917 C328 1.755 . S
C926 C111 1.757 . S
C928 C310 1.797 . S
C937 C414 1.757 . S
C939 C148 1.797 . S
C948 C135 1.758 . S
C950 C427 1.797 . S
C959 C179 1.799 . S
C961 C383 1.754 . S
C970 C396 1.793 . S
C972 C166 1.760 . S
C981 C483 1.761 . S
C983 C186 1.793 . S
C992 C465 1.798 . S
C994 C204 1.757 . S
C1003 C452 1.752 . S
C1005 C217 1.798 . S
C1014 C434 1.798 . S
C1016 C235 1.753 . S
C1025 C445 2.172 . S
C1027 C18 2.172 . S
C1036 C86 1.282 . S
C1038 C0 1.290 . S
C1047 C352 2.173 . S
C1049 C49 2.171 . S
C1058 C31 1.281 . S
C1060 C241 1.292 . S
C1069 C390 2.174 . S
C1071 C73 2.170 . S
C1080 C104 2.173 . S
C1082 C297 2.171 . S
C1091 C155 1.278 . S
C1093 C117 1.294 . S
C1102 C321 2.172 . S
C1104 C142 2.172 . S
C1113 C124 1.295 . S
C1115 C210 1.281 . S
C1124 C173 2.168 . S
C1126 C476 2.175 . S
C1135 C266 2.169 . S
C1137 C197 2.174 . S
C1146 C421 2.168 . S
C1148 C228 2.175 . S
C1157 C248 1.295 . S
C1159 C334 1.280 . S
C1168 C279 1.290 . S
C1170 C489 1.286 . S
C1179 C403 1.296 . S
C1181 C365 1.280 . S
C1190 C458 1.280 . S
C1192 C372 1.291 . S
