# Generated by pormake.
# Topology pcu-h, (3)-cn, num edge types: 1
# Building blocks:
#     Node 0, Type 0, BuildingBlock: WUSLED_clean_sbu_0, # of connection points: 3
#     Node 1, Type 0, BuildingBlock: WUSLED_clean_sbu_0, # of connection points: 3
#     Node 2, Type 0, BuildingBlock: WUSLED_clean_sbu_0, # of connection points: 3
#     Node 3, Type 0, BuildingBlock: WUSLED_clean_sbu_0, # of connection points: 3
#     Node 4, Type 0, BuildingBlock: WUSLED_clean_sbu_0, # of connection points: 3
#     Node 5, Type 0, BuildingBlock: WUSLED_clean_sbu_0, # of connection points: 3
#     Node 6, Type 0, BuildingBlock: WUSLED_clean_sbu_0, # of connection points: 3
#     Node 7, Type 0, BuildingBlock: WUSLED_clean_sbu_0, # of connection points: 3
#     Node 8, Type 0, BuildingBlock: WUSLED_clean_sbu_0, # of connection points: 3
#     Node 9, Type 0, BuildingBlock: WUSLED_clean_sbu_0, # of connection points: 3
#     Node 10, Type 0, BuildingBlock: WUSLED_clean_sbu_0, # of connection points: 3
#     Node 11, Type 0, BuildingBlock: WUSLED_clean_sbu_0, # of connection points: 3
#     Node 12, Type 0, BuildingBlock: WUSLED_clean_sbu_0, # of connection points: 3
#     Node 13, Type 0, BuildingBlock: WUSLED_clean_sbu_0, # of connection points: 3
#     Node 14, Type 0, BuildingBlock: WUSLED_clean_sbu_0, # of connection points: 3
#     Node 15, Type 0, BuildingBlock: WUSLED_clean_sbu_0, # of connection points: 3
#     Node 16, Type 0, BuildingBlock: WUSLED_clean_sbu_0, # of connection points: 3
#     Node 17, Type 0, BuildingBlock: WUSLED_clean_sbu_0, # of connection points: 3
#     Edge 18, Type (0, 0), BuildingBlock: UVAHIK_clean_linker_0, # of connection points: 2
#     Edge 19, Type (0, 0), BuildingBlock: UVAHIK_clean_linker_0, # of connection points: 2
#     Edge 20, Type (0, 0), BuildingBlock: UVAHIK_clean_linker_0, # of connection points: 2
#     Edge 21, Type (0, 0), BuildingBlock: UVAHIK_clean_linker_0, # of connection points: 2
#     Edge 22, Type (0, 0), BuildingBlock: UVAHIK_clean_linker_0, # of connection points: 2
#     Edge 23, Type (0, 0), BuildingBlock: UVAHIK_clean_linker_0, # of connection points: 2
#     Edge 24, Type (0, 0), BuildingBlock: UVAHIK_clean_linker_0, # of connection points: 2
#     Edge 25, Type (0, 0), BuildingBlock: UVAHIK_clean_linker_0, # of connection points: 2
#     Edge 26, Type (0, 0), BuildingBlock: UVAHIK_clean_linker_0, # of connection points: 2
#     Edge 27, Type (0, 0), BuildingBlock: UVAHIK_clean_linker_0, # of connection points: 2
#     Edge 28, Type (0, 0), BuildingBlock: UVAHIK_clean_linker_0, # of connection points: 2
#     Edge 29, Type (0, 0), BuildingBlock: UVAHIK_clean_linker_0, # of connection points: 2
#     Edge 30, Type (0, 0), BuildingBlock: UVAHIK_clean_linker_0, # of connection points: 2
#     Edge 31, Type (0, 0), BuildingBlock: UVAHIK_clean_linker_0, # of connection points: 2
#     Edge 32, Type (0, 0), BuildingBlock: UVAHIK_clean_linker_0, # of connection points: 2
#     Edge 33, Type (0, 0), BuildingBlock: UVAHIK_clean_linker_0, # of connection points: 2
#     Edge 34, Type (0, 0), BuildingBlock: UVAHIK_clean_linker_0, # of connection points: 2
#     Edge 35, Type (0, 0), BuildingBlock: UVAHIK_clean_linker_0, # of connection points: 2
#     Edge 36, Type (0, 0), BuildingBlock: UVAHIK_clean_linker_0, # of connection points: 2
#     Edge 37, Type (0, 0), BuildingBlock: UVAHIK_clean_linker_0, # of connection points: 2
#     Edge 38, Type (0, 0), BuildingBlock: UVAHIK_clean_linker_0, # of connection points: 2
#     Edge 39, Type (0, 0), BuildingBlock: UVAHIK_clean_linker_0, # of connection points: 2
#     Edge 40, Type (0, 0), BuildingBlock: UVAHIK_clean_linker_0, # of connection points: 2
#     Edge 41, Type (0, 0), BuildingBlock: UVAHIK_clean_linker_0, # of connection points: 2
#     Edge 42, Type (0, 0), BuildingBlock: UVAHIK_clean_linker_0, # of connection points: 2
#     Edge 43, Type (0, 0), BuildingBlock: UVAHIK_clean_linker_0, # of connection points: 2
#     Edge 44, Type (0, 0), BuildingBlock: UVAHIK_clean_linker_0, # of connection points: 2
# Relax obj value: 0.000
# Max RMSD: 0.008
# Mean RMSD: 0.007
data_MOF--net-pcu-h--node1-WUSLED_clean_sbu_0--edge1-UVAHIK_clean_linker_0
_symmetry_space_group_name_H-M    P1
_symmetry_Int_Tables_number       1
_symmetry_cell_setting            triclinic
loop_
_symmetry_equiv_pos_as_xyz
'x, y, z'
_cell_length_a     139.61759
_cell_length_b     139.27705
_cell_length_c     35.656682
_cell_angle_alpha  90.060351
_cell_angle_beta   89.928999
_cell_angle_gamma 120.21623
loop_
_atom_site_label
_atom_site_type_symbol
_atom_site_fract_x
_atom_site_fract_y
_atom_site_fract_z
_atom_type_partial_charge
C0 C 0.24275 0.15244 0.04093 0.0
C1 C 0.23415 0.14744 0.01453 0.0
C2 C 0.22865 0.1612 0.02779 0.0
C3 C 0.22719 0.15181 0.0079 0.0
C4 C 0.23722 0.16609 0.05445 0.0
C5 C 0.2442 0.16176 0.06086 0.0
U6 U 0.24954 0.12891 0.04728 0.0
O7 O 0.26464 0.12876 0.03036 0.0
O8 O 0.25946 0.12619 0.08934 0.0
C9 C 0.2671 0.12753 0.06495 0.0
C10 C 0.25038 0.1482 0.04802 0.0
C11 C 0.27866 0.13494 0.07672 0.0
C12 C 0.29441 0.15332 0.08933 0.0
C13 C 0.28341 0.14653 0.07749 0.0
C14 C 0.29597 0.13698 0.09965 0.0
C15 C 0.30081 0.14861 0.10078 0.0
C16 C 0.28503 0.13023 0.08777 0.0
C17 C 0.22665 0.09872 0.02694 0.0
C18 C 0.22891 0.08296 0.01093 0.0
C19 C 0.21117 0.07984 0.03325 0.0
C20 C 0.21557 0.09131 0.03644 0.0
C21 C 0.21776 0.0755 0.02035 0.0
C22 C 0.23333 0.09447 0.01435 0.0
C23 C 0.23091 0.11078 0.03001 0.0
O24 O 0.24824 0.14196 0.07799 0.0
O25 O 0.25319 0.14439 0.01875 0.0
O26 O 0.23828 0.11718 0.0049 0.0
O27 O 0.23328 0.11493 0.06408 0.0
H28 H 0.23282 0.14019 -0.00102 0.0
H29 H 0.22059 0.14777 0.98751 0.0
H30 H 0.23866 0.17339 0.06994 0.0
H31 H 0.25079 0.16574 0.08132 0.0
H32 H 0.29783 0.16224 0.09013 0.0
H33 H 0.27859 0.15031 0.06914 0.0
H34 H 0.30069 0.13307 0.10763 0.0
H35 H 0.28151 0.1213 0.08724 0.0
H36 H 0.23424 0.0799 0.00129 0.0
H37 H 0.20253 0.07436 0.04026 0.0
H38 H 0.21027 0.09441 0.04612 0.0
H39 H 0.24193 0.10003 0.00707 0.0
C40 C 0.8891 0.09815 0.05816 0.0
C41 C 0.89529 0.09431 0.03887 0.0
C42 C 0.88003 0.07517 0.04463 0.0
C43 C 0.89078 0.08291 0.03207 0.0
C44 C 0.87392 0.07913 0.06403 0.0
C45 C 0.87841 0.09049 0.0707 0.0
U46 U 0.91278 0.12861 0.06427 0.0
O47 O 0.91285 0.14386 0.04783 0.0
O48 O 0.91552 0.14126 0.10669 0.0
C49 C 0.91396 0.14747 0.08255 0.0
C50 C 0.89351 0.11007 0.06542 0.0
C51 C 0.90634 0.15132 0.0947 0.0
C52 C 0.88819 0.14983 0.09529 0.0
C53 C 0.89514 0.1458 0.0839 0.0
C54 C 0.90349 0.1648 0.12887 0.0
C55 C 0.89229 0.15939 0.11792 0.0
C56 C 0.91043 0.16081 0.11734 0.0
C57 C 0.94284 0.13618 0.04184 0.0
C58 C 0.95831 0.15422 0.02378 0.0
C59 C 0.96176 0.13977 0.04558 0.0
C60 C 0.95036 0.13263 0.05039 0.0
C61 C 0.96589 0.15063 0.03194 0.0
C62 C 0.9469 0.14707 0.02881 0.0
C63 C 0.93084 0.12825 0.04581 0.0
O64 O 0.8999 0.11415 0.09507 0.0
O65 O 0.89727 0.11666 0.03609 0.0
O66 O 0.9243 0.12909 0.02116 0.0
O67 O 0.92689 0.12653 0.08016 0.0
H68 H 0.90359 0.10011 0.0291 0.0
H69 H 0.89575 0.08015 0.01736 0.0
H70 H 0.86556 0.07345 0.0736 0.0
H71 H 0.87349 0.0933 0.08554 0.0
H72 H 0.87959 0.14539 0.08669 0.0
H73 H 0.89179 0.13841 0.06661 0.0
H74 H 0.90697 0.17226 0.14584 0.0
H75 H 0.91904 0.1652 0.12593 0.0
H76 H 0.96122 0.16257 0.01367 0.0
H77 H 0.96732 0.13668 0.05172 0.0
H78 H 0.94741 0.12426 0.0604 0.0
H79 H 0.94125 0.15003 0.02225 0.0
C80 C 0.88854 0.79828 0.03793 0.0
C81 C 0.89514 0.80979 0.04351 0.0
C82 C 0.87989 0.81244 0.02353 0.0
C83 C 0.89084 0.8168 0.0365 0.0
C84 C 0.87339 0.80091 0.01753 0.0
C85 C 0.87767 0.79392 0.02472 0.0
U86 U 0.91182 0.79124 0.04666 0.0
O87 O 0.91427 0.78121 0.08898 0.0
O88 O 0.91175 0.77595 0.03002 0.0
C89 C 0.91261 0.77337 0.06482 0.0
C90 C 0.89269 0.79063 0.04617 0.0
C91 C 0.90485 0.76174 0.07621 0.0
C92 C 0.89064 0.74809 0.11771 0.0
C93 C 0.89741 0.75914 0.10629 0.0
C94 C 0.89841 0.74203 0.06868 0.0
C95 C 0.8911 0.7394 0.09916 0.0
C96 C 0.90523 0.75307 0.05746 0.0
C97 C 0.94196 0.81382 0.02432 0.0
C98 C 0.95846 0.81271 0.03787 0.0
C99 C 0.95988 0.82776 -0.00027 0.0
C100 C 0.94847 0.82347 0.00335 0.0
C101 C 0.96507 0.82249 0.01714 0.0
C102 C 0.947 0.80841 0.04141 0.0
C103 C 0.92999 0.80971 0.0282 0.0
O104 O 0.89648 0.78767 0.01731 0.0
O105 O 0.89887 0.79284 0.07632 0.0
O106 O 0.92598 0.80747 0.06249 0.0
O107 O 0.92352 0.80223 0.00355 0.0
H108 H 0.90358 0.81335 0.05344 0.0
H109 H 0.89612 0.82565 0.04098 0.0
H110 H 0.8649 0.79724 0.00799 0.0
H111 H 0.87244 0.78505 0.02027 0.0
H112 H 0.88501 0.74633 0.14101 0.0
H113 H 0.89689 0.76563 0.12124 0.0
H114 H 0.89908 0.73557 0.05405 0.0
H115 H 0.91093 0.75486 0.03435 0.0
H116 H 0.96216 0.80848 0.05192 0.0
H117 H 0.96463 0.83516 0.98297 0.0
H118 H 0.94472 0.82773 0.98978 0.0
H119 H 0.9421 0.80093 0.0577 0.0
C120 C 0.1065 0.23341 0.94639 0.0
C121 C 0.10263 0.22286 0.96218 0.0
C122 C 0.08359 0.21921 0.95991 0.0
C123 C 0.09128 0.21583 0.96895 0.0
C124 C 0.08757 0.2298 0.94398 0.0
C125 C 0.0989 0.23681 0.93732 0.0
U126 U 0.13681 0.24025 0.9405 0.0
O127 O 0.14973 0.25059 0.89958 0.0
O128 O 0.152 0.25532 0.95903 0.0
C129 C 0.15582 0.25814 0.92468 0.0
C130 C 0.11839 0.24105 0.93945 0.0
C131 C 0.15991 0.26983 0.91431 0.0
C132 C 0.15775 0.28416 0.88296 0.0
C133 C 0.15346 0.27302 0.89327 0.0
C134 C 0.17488 0.28908 0.91516 0.0
C135 C 0.16853 0.29233 0.89375 0.0
C136 C 0.17061 0.27796 0.92526 0.0
C137 C 0.14401 0.21748 0.96195 0.0
C138 C 0.162 0.21913 0.95118 0.0
C139 C 0.14766 0.20314 0.98422 0.0
C140 C 0.14052 0.20738 0.98045 0.0
C141 C 0.15849 0.20891 0.96946 0.0
C142 C 0.15482 0.22337 0.94748 0.0
C143 C 0.13618 0.22158 0.95786 0.0
O144 O 0.12489 0.24372 0.96893 0.0
O145 O 0.12254 0.23892 0.9096 0.0
O146 O 0.13474 0.22411 0.92361 0.0
O147 O 0.137 0.22887 0.983 0.0
H148 H 0.10839 0.22008 0.96927 0.0
H149 H 0.0885 0.2077 0.98086 0.0
H150 H 0.08195 0.23277 0.93718 0.0
H151 H 0.10174 0.24494 0.92522 0.0
H152 H 0.15259 0.28639 0.86681 0.0
H153 H 0.14514 0.26689 0.88468 0.0
H154 H 0.18325 0.2951 0.92354 0.0
H155 H 0.17574 0.27568 0.94142 0.0
H156 H 0.17022 0.22375 0.93917 0.0
H157 H 0.14472 0.19538 -0.00093 0.0
H158 H 0.13222 0.20274 0.99198 0.0
H159 H 0.15767 0.2312 0.93312 0.0
C160 C 0.80751 0.93452 0.94759 0.0
C161 C 0.81877 0.94026 0.9373 0.0
C162 C 0.82116 0.95727 0.96588 0.0
C163 C 0.82551 0.95153 0.94622 0.0
C164 C 0.80993 0.95143 0.97649 0.0
C165 C 0.80319 0.9402 0.96736 0.0
U166 U 0.80074 0.90424 0.93569 0.0
O167 O 0.7854 0.88869 0.94913 0.0
O168 O 0.79135 0.89218 0.89099 0.0
C169 C 0.78332 0.88558 0.91383 0.0
C170 C 0.80004 0.92274 0.93742 0.0
C171 C 0.77194 0.88179 0.90066 0.0
C172 C 0.75523 0.88316 0.89938 0.0
C173 C 0.76616 0.88719 0.9114 0.0
C174 C 0.75581 0.86842 0.86523 0.0
C175 C 0.7499 0.8737 0.87619 0.0
C176 C 0.7667 0.87243 0.87738 0.0
C177 C 0.82316 0.89681 0.96044 0.0
C178 C 0.82085 0.87833 0.95554 0.0
C179 C 0.83806 0.89363 0.97912 0.0
C180 C 0.83387 0.90079 0.97445 0.0
C181 C 0.83161 0.88229 0.9699 0.0
C182 C 0.81666 0.88554 0.95091 0.0
C183 C 0.81899 0.90459 0.95639 0.0
O184 O 0.80266 0.91911 0.90725 0.0
O185 O 0.79664 0.91561 0.96532 0.0
O186 O 0.81115 0.90321 0.97997 0.0
O187 O 0.81717 0.90662 0.92193 0.0
H188 H 0.82234 0.93605 0.92223 0.0
H189 H 0.83415 0.95575 0.938 0.0
H190 H 0.80627 0.95561 0.99122 0.0
H191 H 0.79453 0.93596 0.97547 0.0
H192 H 0.75097 0.8875 0.908 0.0
H193 H 0.77008 0.89448 0.9292 0.0
H194 H 0.75195 0.86105 0.84784 0.0
H195 H 0.771 0.86812 0.86885 0.0
H196 H 0.81562 0.86964 0.94846 0.0
H197 H 0.84643 0.89702 0.98961 0.0
H198 H 0.83902 0.90948 0.98183 0.0
H199 H 0.80834 0.88231 0.9401 0.0
C200 C 0.10618 0.8796 0.9464 0.0
C201 C 0.10246 0.88499 0.97071 0.0
C202 C 0.08323 0.87068 0.95927 0.0
C203 C 0.0911 0.88055 0.9772 0.0
C204 C 0.08703 0.86539 0.93468 0.0
C205 C 0.09837 0.86981 0.92839 0.0
U206 U 0.13645 0.90336 0.94229 0.0
O207 O 0.15168 0.9037 0.96037 0.0
O208 O 0.1495 0.90647 0.90121 0.0
C209 C 0.15568 0.90516 0.92614 0.0
C210 C 0.11809 0.88395 0.93965 0.0
C211 C 0.16014 0.89799 0.91486 0.0
C212 C 0.15807 0.87981 0.90333 0.0
C213 C 0.15346 0.88638 0.91335 0.0
C214 C 0.17602 0.89642 0.89596 0.0
C215 C 0.16945 0.88476 0.8948 0.0
C216 C 0.17141 0.90294 0.9059 0.0
C217 C 0.1433 0.93313 0.96625 0.0
C218 C 0.16155 0.94959 0.95963 0.0
C219 C 0.14653 0.95112 0.98737 0.0
C220 C 0.13943 0.9397 0.98253 0.0
C221 C 0.15769 0.95623 0.97601 0.0
C222 C 0.15442 0.93813 0.95487 0.0
C223 C 0.13555 0.92114 0.96126 0.0
O224 O 0.12233 0.89044 0.91026 0.0
O225 O 0.12455 0.8876 0.9693 0.0
O226 O 0.13639 0.91457 0.98579 0.0
O227 O 0.13424 0.9174 0.92669 0.0
H228 H 0.10835 0.89262 0.98472 0.0
H229 H 0.08846 0.8849 0.99594 0.0
H230 H 0.08122 0.85772 0.92076 0.0
H231 H 0.10107 0.86551 0.90957 0.0
H232 H 0.15279 0.87086 0.90296 0.0
H233 H 0.14472 0.8824 0.9202 0.0
H234 H 0.18475 0.90054 0.88891 0.0
H235 H 0.17669 0.9119 0.90673 0.0
H236 H 0.17011 0.95322 0.9509 0.0
H237 H 0.14321 0.95597 -0.00049 0.0
H238 H 0.13086 0.93599 0.99137 0.0
H239 H 0.15756 0.93317 0.94232 0.0
C240 C 0.90875 0.48584 0.37837 0.0
C241 C 0.90036 0.48102 0.35116 0.0
C242 C 0.89458 0.49452 0.36517 0.0
C243 C 0.89337 0.48535 0.34451 0.0
C244 C 0.90293 0.49923 0.39262 0.0
C245 C 0.90994 0.49494 0.39907 0.0
U246 U 0.91592 0.46255 0.38209 0.0
O247 O 0.93128 0.46285 0.36591 0.0
O248 O 0.92558 0.45947 0.42434 0.0
C249 C 0.93352 0.46135 0.40049 0.0
C250 C 0.91642 0.48165 0.38548 0.0
C251 C 0.94496 0.46885 0.41364 0.0
C252 C 0.96184 0.48693 0.41575 0.0
C253 C 0.95086 0.48015 0.40381 0.0
C254 C 0.96106 0.47126 0.44799 0.0
C255 C 0.96709 0.48256 0.43794 0.0
C256 C 0.95013 0.46449 0.43594 0.0
C257 C 0.89359 0.43268 0.35517 0.0
C258 C 0.89501 0.41614 0.36473 0.0
C259 C 0.87944 0.41485 0.33046 0.0
C260 C 0.88368 0.42625 0.33547 0.0
C261 C 0.88502 0.40963 0.34508 0.0
C262 C 0.89927 0.42758 0.36966 0.0
C263 C 0.89764 0.44461 0.36075 0.0
O264 O 0.91399 0.47498 0.4144 0.0
O265 O 0.91967 0.47837 0.35596 0.0
O266 O 0.90528 0.45143 0.33716 0.0
O267 O 0.89963 0.44815 0.39562 0.0
H268 H 0.89923 0.47393 0.33501 0.0
H269 H 0.88694 0.48144 0.32348 0.0
H270 H 0.90419 0.50637 0.40872 0.0
H271 H 0.91637 0.4988 0.42015 0.0
H272 H 0.9662 0.49562 0.40784 0.0
H273 H 0.94701 0.4837 0.38677 0.0
H274 H 0.96487 0.46757 0.46459 0.0
H275 H 0.94573 0.45579 0.44375 0.0
H276 H 0.89959 0.41242 0.37603 0.0
H277 H 0.87165 0.4101 0.31572 0.0
H278 H 0.87916 0.43003 0.3242 0.0
H279 H 0.90696 0.43243 0.38489 0.0
C280 C 0.55504 0.43058 0.38977 0.0
C281 C 0.5617 0.42678 0.37365 0.0
C282 C 0.54618 0.40768 0.37515 0.0
C283 C 0.5573 0.41542 0.36632 0.0
C284 C 0.53959 0.4116 0.39132 0.0
C285 C 0.54398 0.42292 0.39854 0.0
U286 U 0.57868 0.46096 0.39748 0.0
O287 O 0.57887 0.47631 0.38153 0.0
O288 O 0.58134 0.47348 0.44036 0.0
C289 C 0.5799 0.4798 0.41638 0.0
C290 C 0.55938 0.44245 0.39767 0.0
C291 C 0.57231 0.48369 0.42849 0.0
C292 C 0.55425 0.4824 0.42848 0.0
C293 C 0.56115 0.4783 0.41723 0.0
C294 C 0.56951 0.49718 0.46285 0.0
C295 C 0.55835 0.49191 0.45141 0.0
C296 C 0.57639 0.49311 0.45146 0.0
C297 C 0.60874 0.46853 0.3755 0.0
C298 C 0.62425 0.48683 0.3602 0.0
C299 C 0.62763 0.47197 0.37736 0.0
C300 C 0.61623 0.46479 0.38189 0.0
C301 C 0.6318 0.48307 0.3662 0.0
C302 C 0.61283 0.47964 0.36494 0.0
C303 C 0.59674 0.4606 0.37914 0.0
O304 O 0.56569 0.4464 0.42755 0.0
O305 O 0.56323 0.44917 0.36867 0.0
O306 O 0.59027 0.46155 0.35448 0.0
O307 O 0.59273 0.45878 0.4134 0.0
H308 H 0.57028 0.43258 0.36679 0.0
H309 H 0.56265 0.4127 0.35419 0.0
H310 H 0.53096 0.40593 0.39795 0.0
H311 H 0.5387 0.42571 0.4109 0.0
H312 H 0.54568 0.47807 0.4195 0.0
H313 H 0.5578 0.47097 0.39967 0.0
H314 H 0.57299 0.50459 0.48006 0.0
H315 H 0.58498 0.4974 0.4604 0.0
H316 H 0.62719 0.49535 0.35204 0.0
H317 H 0.63316 0.46875 0.38178 0.0
H318 H 0.61324 0.45625 0.38999 0.0
H319 H 0.60721 0.48273 0.36008 0.0
C320 C 0.55428 0.13094 0.37438 0.0
C321 C 0.56145 0.14228 0.36725 0.0
C322 C 0.54563 0.14504 0.35923 0.0
C323 C 0.55716 0.14928 0.35981 0.0
C324 C 0.53851 0.13365 0.36635 0.0
C325 C 0.54281 0.12669 0.37385 0.0
U326 U 0.57797 0.12461 0.38246 0.0
O327 O 0.58067 0.11464 0.42443 0.0
O328 O 0.57841 0.10963 0.36528 0.0
C329 C 0.57944 0.10705 0.3999 0.0
C330 C 0.55857 0.12342 0.38237 0.0
C331 C 0.57194 0.09539 0.4109 0.0
C332 C 0.55444 0.08071 0.43612 0.0
C333 C 0.56131 0.09182 0.42535 0.0
C334 C 0.56872 0.07663 0.41769 0.0
C335 C 0.55807 0.07297 0.4324 0.0
C336 C 0.57557 0.08772 0.40709 0.0
C337 C 0.60786 0.14771 0.36054 0.0
C338 C 0.62397 0.14536 0.36334 0.0
C339 C 0.62613 0.16305 0.34461 0.0
C340 C 0.61473 0.15873 0.34905 0.0
C341 C 0.63091 0.15642 0.35154 0.0
C342 C 0.61254 0.14103 0.36774 0.0
C343 C 0.59587 0.1434 0.3645 0.0
O344 O 0.56251 0.12068 0.35338 0.0
O345 O 0.5648 0.12577 0.41243 0.0
O346 O 0.59189 0.14096 0.39878 0.0
O347 O 0.5895 0.13591 0.33968 0.0
H348 H 0.57035 0.14571 0.3674 0.0
H349 H 0.56288 0.15797 0.35405 0.0
H350 H 0.52961 0.13013 0.36669 0.0
H351 H 0.53715 0.11796 0.37938 0.0
H352 H 0.54626 0.07815 0.44697 0.0
H353 H 0.55833 0.09762 0.42834 0.0
H354 H 0.57186 0.07096 0.41492 0.0
H355 H 0.58376 0.09032 0.39609 0.0
H356 H 0.62735 0.13998 0.36858 0.0
H357 H 0.63121 0.17164 0.33611 0.0
H358 H 0.61127 0.16402 0.34349 0.0
H359 H 0.60734 0.13248 0.37658 0.0
C360 C 0.77241 0.56661 0.28231 0.0
C361 C 0.76848 0.55582 0.29604 0.0
C362 C 0.74951 0.55238 0.29584 0.0
C363 C 0.75713 0.54877 0.3028 0.0
C364 C 0.75354 0.56322 0.28207 0.0
C365 C 0.76487 0.57025 0.27539 0.0
U366 U 0.80272 0.57347 0.27661 0.0
O367 O 0.8156 0.5836 0.23532 0.0
O368 O 0.81791 0.58867 0.29445 0.0
C369 C 0.82167 0.59133 0.25997 0.0
C370 C 0.78429 0.57424 0.2752 0.0
C371 C 0.82565 0.60295 0.24874 0.0
C372 C 0.82386 0.61681 0.21268 0.0
C373 C 0.8196 0.60577 0.22413 0.0
C374 C 0.84014 0.6224 0.251 0.0
C375 C 0.83422 0.62526 0.22585 0.0
C376 C 0.83591 0.61137 0.26222 0.0
C377 C 0.80996 0.55079 0.29915 0.0
C378 C 0.82802 0.55255 0.28908 0.0
C379 C 0.81354 0.53635 0.32082 0.0
C380 C 0.80639 0.54059 0.31702 0.0
C381 C 0.82444 0.54223 0.30672 0.0
C382 C 0.82084 0.55679 0.28534 0.0
C383 C 0.80213 0.55488 0.29491 0.0
O384 O 0.79079 0.57701 0.30468 0.0
O385 O 0.78842 0.572 0.24555 0.0
O386 O 0.80062 0.55726 0.26054 0.0
O387 O 0.80301 0.56228 0.31968 0.0
H388 H 0.77419 0.55287 0.30147 0.0
H389 H 0.75431 0.54045 0.31301 0.0
H390 H 0.74797 0.56636 0.27694 0.0
H391 H 0.76775 0.57857 0.26492 0.0
H392 H 0.81903 0.61875 0.19363 0.0
H393 H 0.81162 0.59943 0.21352 0.0
H394 H 0.84818 0.62866 0.26136 0.0
H395 H 0.84073 0.60938 0.28115 0.0
H396 H 0.83631 0.55726 0.27759 0.0
H397 H 0.81054 0.5285 0.33516 0.0
H398 H 0.79804 0.53587 0.32801 0.0
H399 H 0.82375 0.5647 0.27144 0.0
C400 C 0.47352 0.26721 0.27835 0.0
C401 C 0.48495 0.27252 0.27102 0.0
C402 C 0.4874 0.29 0.29552 0.0
C403 C 0.49182 0.28382 0.27937 0.0
C404 C 0.47596 0.28459 0.30309 0.0
C405 C 0.4691 0.27333 0.29453 0.0
U406 U 0.46701 0.23705 0.26671 0.0
O407 O 0.45204 0.22146 0.28295 0.0
O408 O 0.45701 0.22465 0.22382 0.0
C409 C 0.44945 0.21807 0.24809 0.0
C410 C 0.46601 0.25539 0.2692 0.0
C411 C 0.43783 0.21395 0.23735 0.0
C412 C 0.42278 0.21704 0.21926 0.0
C413 C 0.4339 0.22124 0.22946 0.0
C414 C 0.41946 0.19828 0.22492 0.0
C415 C 0.41541 0.20549 0.217 0.0
C416 C 0.43055 0.20247 0.23498 0.0
C417 C 0.48991 0.22999 0.28678 0.0
C418 C 0.48707 0.21139 0.29531 0.0
C419 C 0.50571 0.22718 0.29143 0.0
C420 C 0.50139 0.23425 0.28687 0.0
C421 C 0.49862 0.21567 0.29612 0.0
C422 C 0.48276 0.21849 0.29068 0.0
C423 C 0.48567 0.23774 0.28372 0.0
O424 O 0.46827 0.25168 0.23846 0.0
O425 O 0.46315 0.24843 0.29748 0.0
O426 O 0.47824 0.23654 0.30879 0.0
O427 O 0.4833 0.23953 0.24971 0.0
H428 H 0.48856 0.26795 0.25878 0.0
H429 H 0.50061 0.2877 0.27357 0.0
H430 H 0.47225 0.2891 0.31506 0.0
H431 H 0.46031 0.2694 0.30037 0.0
H432 H 0.41993 0.22283 0.2137 0.0
H433 H 0.43941 0.23014 0.23126 0.0
H434 H 0.4141 0.18936 0.22289 0.0
H435 H 0.43344 0.19672 0.24084 0.0
H436 H 0.48137 0.20259 0.29914 0.0
H437 H 0.51462 0.23076 0.29118 0.0
H438 H 0.50704 0.24309 0.28372 0.0
H439 H 0.47386 0.21503 0.29065 0.0
C440 C 0.77226 0.21328 0.28883 0.0
C441 C 0.76764 0.22014 0.28451 0.0
C442 C 0.7494 0.2048 0.30215 0.0
C443 C 0.7563 0.21592 0.29099 0.0
C444 C 0.75414 0.19803 0.30682 0.0
C445 C 0.76543 0.20224 0.30019 0.0
U446 U 0.80271 0.23655 0.27885 0.0
O447 O 0.8179 0.23676 0.29708 0.0
O448 O 0.8152 0.23843 0.23739 0.0
C449 C 0.82143 0.23728 0.26255 0.0
C450 C 0.78408 0.21737 0.2812 0.0
C451 C 0.82535 0.2295 0.25303 0.0
C452 C 0.82287 0.21266 0.22315 0.0
C453 C 0.81869 0.21959 0.23326 0.0
C454 C 0.84031 0.22534 0.25313 0.0
C455 C 0.83376 0.21548 0.23284 0.0
C456 C 0.83614 0.23227 0.26305 0.0
C457 C 0.81067 0.26711 0.29484 0.0
C458 C 0.82849 0.28283 0.31343 0.0
C459 C 0.81465 0.28605 0.28469 0.0
C460 C 0.80746 0.27457 0.28186 0.0
C461 C 0.82523 0.29033 0.30075 0.0
C462 C 0.8213 0.27133 0.31038 0.0
C463 C 0.80265 0.25506 0.29294 0.0
O464 O 0.78812 0.22317 0.25028 0.0
O465 O 0.79079 0.22158 0.31003 0.0
O466 O 0.80342 0.24885 0.31918 0.0
O467 O 0.80079 0.25053 0.25943 0.0
H468 H 0.77278 0.22872 0.27597 0.0
H469 H 0.75296 0.2214 0.28756 0.0
H470 H 0.74906 0.1894 0.3149 0.0
H471 H 0.76884 0.19681 0.30362 0.0
H472 H 0.81756 0.20508 0.20792 0.0
H473 H 0.8103 0.21726 0.22539 0.0
H474 H 0.84877 0.22786 0.26064 0.0
H475 H 0.84143 0.23989 0.27819 0.0
H476 H 0.83662 0.28584 0.32554 0.0
H477 H 0.81181 0.29156 0.27507 0.0
H478 H 0.79929 0.27151 0.26991 0.0
H479 H 0.82401 0.26574 0.32042 0.0
C480 C 0.57597 0.81921 0.70163 0.0
C481 C 0.56457 0.81265 0.70903 0.0
C482 C 0.56166 0.82775 0.68896 0.0
C483 C 0.55749 0.8169 0.70288 0.0
C484 C 0.57307 0.8342 0.68111 0.0
C485 C 0.58013 0.82997 0.68744 0.0
U486 U 0.58324 0.79603 0.711 0.0
O487 O 0.59832 0.79599 0.69272 0.0
O488 O 0.59385 0.79415 0.75237 0.0
C489 C 0.60129 0.79542 0.72723 0.0
C490 C 0.58373 0.81515 0.7091 0.0
C491 C 0.61299 0.80322 0.73695 0.0
C492 C 0.62729 0.82002 0.76731 0.0
C493 C 0.61619 0.81308 0.75695 0.0
C494 C 0.63215 0.80748 0.7371 0.0
C495 C 0.63542 0.81728 0.75765 0.0
C496 C 0.62107 0.80054 0.72693 0.0
C497 C 0.56065 0.76542 0.69437 0.0
C498 C 0.5623 0.74972 0.67266 0.0
C499 C 0.54592 0.74647 0.70668 0.0
C500 C 0.55028 0.75794 0.70983 0.0
C501 C 0.55183 0.7422 0.6878 0.0
C502 C 0.56669 0.76121 0.67602 0.0
C503 C 0.5647 0.77748 0.69654 0.0
O504 O 0.58196 0.8093 0.73991 0.0
O505 O 0.58629 0.81103 0.68015 0.0
O506 O 0.57171 0.78377 0.67042 0.0
O507 O 0.56731 0.78195 0.73015 0.0
H508 H 0.56116 0.80428 0.71977 0.0
H509 H 0.54874 0.81166 0.70879 0.0
H510 H 0.5766 0.84263 0.67083 0.0
H511 H 0.58891 0.83517 0.6816 0.0
H512 H 0.62953 0.82757 0.78274 0.0
H513 H 0.61009 0.81536 0.76483 0.0
H514 H 0.63813 0.80501 0.7296 0.0
H515 H 0.61877 0.79295 0.71162 0.0
H516 H 0.56713 0.74671 0.65833 0.0
H517 H 0.53778 0.74094 0.71827 0.0
H518 H 0.54545 0.76099 0.72394 0.0
H519 H 0.57474 0.76679 0.66398 0.0
C520 C 0.2221 0.76494 0.71685 0.0
C521 C 0.22725 0.75908 0.7294 0.0
C522 C 0.21283 0.74209 0.69994 0.0
C523 C 0.22263 0.74776 0.72115 0.0
C524 C 0.20778 0.74804 0.68717 0.0
C525 C 0.21235 0.75932 0.69562 0.0
U526 U 0.2459 0.79522 0.72624 0.0
O527 O 0.24633 0.81072 0.71059 0.0
O528 O 0.24884 0.80776 0.76923 0.0
C529 C 0.24765 0.81428 0.74539 0.0
C530 C 0.22653 0.77681 0.72595 0.0
C531 C 0.24046 0.81861 0.75768 0.0
C532 C 0.22258 0.81601 0.77716 0.0
C533 C 0.22913 0.81157 0.76506 0.0
C534 C 0.23862 0.83453 0.77433 0.0
C535 C 0.22728 0.82756 0.78218 0.0
C536 C 0.24513 0.8301 0.76225 0.0
C537 C 0.27566 0.80235 0.70188 0.0
C538 C 0.29193 0.82076 0.70825 0.0
C539 C 0.29369 0.80579 0.68094 0.0
C540 C 0.28232 0.79856 0.68585 0.0
C541 C 0.29866 0.817 0.69195 0.0
C542 C 0.28052 0.8135 0.7131 0.0
C543 C 0.2637 0.79453 0.7063 0.0
O544 O 0.23282 0.78066 0.75596 0.0
O545 O 0.2303 0.78371 0.69741 0.0
O546 O 0.25722 0.79569 0.68228 0.0
O547 O 0.25987 0.79281 0.74082 0.0
H548 H 0.23482 0.76323 0.74565 0.0
H549 H 0.2268 0.74346 0.73108 0.0
H550 H 0.20015 0.74392 0.67118 0.0
H551 H 0.20821 0.76365 0.68576 0.0
H552 H 0.2139 0.81039 0.78319 0.0
H553 H 0.22539 0.80266 0.76165 0.0
H554 H 0.24249 0.84346 0.77716 0.0
H555 H 0.25384 0.83567 0.75649 0.0
H556 H 0.29545 0.82935 0.71672 0.0
H557 H 0.29861 0.80254 0.66887 0.0
H558 H 0.27872 0.78997 0.67711 0.0
H559 H 0.27549 0.81658 0.72544 0.0
C560 C 0.22107 0.46469 0.70643 0.0
C561 C 0.22813 0.47625 0.70422 0.0
C562 C 0.21236 0.47871 0.69061 0.0
C563 C 0.22381 0.4832 0.69648 0.0
C564 C 0.20537 0.46711 0.69249 0.0
C565 C 0.20969 0.46019 0.70035 0.0
U566 U 0.24465 0.4582 0.71587 0.0
O567 O 0.24758 0.44893 0.76014 0.0
O568 O 0.24484 0.4429 0.70204 0.0
C569 C 0.24608 0.4409 0.7372 0.0
C570 C 0.22534 0.45721 0.7156 0.0
C571 C 0.23869 0.42947 0.7508 0.0
C572 C 0.22092 0.4122 0.75169 0.0
C573 C 0.22758 0.42318 0.73925 0.0
C574 C 0.23631 0.41377 0.78786 0.0
C575 C 0.22521 0.40735 0.77612 0.0
C576 C 0.24296 0.42469 0.77529 0.0
C577 C 0.27451 0.48079 0.69078 0.0
C578 C 0.29114 0.47996 0.70474 0.0
C579 C 0.29233 0.49465 0.66524 0.0
C580 C 0.2809 0.49029 0.66904 0.0
C581 C 0.29763 0.4896 0.68322 0.0
C582 C 0.27968 0.47559 0.70847 0.0
C583 C 0.26254 0.47659 0.69488 0.0
O584 O 0.22905 0.454 0.68715 0.0
O585 O 0.23175 0.45991 0.74534 0.0
O586 O 0.25868 0.47475 0.72937 0.0
O587 O 0.25604 0.46874 0.6713 0.0
H588 H 0.23697 0.47989 0.70864 0.0
H589 H 0.22945 0.49208 0.69479 0.0
H590 H 0.19651 0.46337 0.6886 0.0
H591 H 0.2041 0.45129 0.70201 0.0
H592 H 0.21238 0.40754 0.74242 0.0
H593 H 0.22409 0.42672 0.72048 0.0
H594 H 0.23995 0.41027 0.8062 0.0
H595 H 0.25151 0.42938 0.78445 0.0
H596 H 0.29494 0.4759 0.71925 0.0
H597 H 0.29698 0.50194 0.64788 0.0
H598 H 0.27705 0.49439 0.65501 0.0
H599 H 0.27488 0.46822 0.72536 0.0
C600 C 0.43987 0.9007 0.62106 0.0
C601 C 0.43467 0.88923 0.61397 0.0
C602 C 0.41701 0.88674 0.63614 0.0
C603 C 0.42334 0.88233 0.6213 0.0
C604 C 0.42232 0.8982 0.64381 0.0
C605 C 0.43362 0.90509 0.63626 0.0
U606 U 0.47009 0.90744 0.61129 0.0
O607 O 0.48238 0.91694 0.56744 0.0
O608 O 0.48556 0.92274 0.62578 0.0
C609 C 0.4889 0.92489 0.59071 0.0
C610 C 0.45169 0.90826 0.61209 0.0
C611 C 0.49288 0.93633 0.57774 0.0
C612 C 0.49075 0.95256 0.57089 0.0
C613 C 0.48665 0.9416 0.58319 0.0
C614 C 0.50725 0.95301 0.5473 0.0
C615 C 0.50111 0.9584 0.55273 0.0
C616 C 0.50317 0.94211 0.55969 0.0
C617 C 0.47732 0.88481 0.63503 0.0
C618 C 0.49568 0.88702 0.62858 0.0
C619 C 0.4806 0.86995 0.65391 0.0
C620 C 0.47344 0.87416 0.64972 0.0
C621 C 0.49183 0.87632 0.6435 0.0
C622 C 0.48849 0.89124 0.62443 0.0
C623 C 0.46954 0.88899 0.63117 0.0
O624 O 0.45858 0.91141 0.64057 0.0
O625 O 0.4555 0.90582 0.58201 0.0
O626 O 0.46764 0.89098 0.59678 0.0
O627 O 0.47085 0.89673 0.65514 0.0
H628 H 0.43935 0.88562 0.6025 0.0
H629 H 0.41955 0.87352 0.61552 0.0
H630 H 0.41769 0.90189 0.65485 0.0
H631 H 0.43747 0.91391 0.64191 0.0
H632 H 0.48575 0.9564 0.5752 0.0
H633 H 0.47865 0.93725 0.59695 0.0
H634 H 0.51531 0.95729 0.53397 0.0
H635 H 0.50811 0.9382 0.55531 0.0
H636 H 0.50429 0.89221 0.62061 0.0
H637 H 0.47728 0.86162 0.6649 0.0
H638 H 0.46483 0.86906 0.65793 0.0
H639 H 0.49163 0.89951 0.6131 0.0
C640 C 0.14018 0.60105 0.60915 0.0
C641 C 0.14996 0.60494 0.63011 0.0
C642 C 0.15404 0.62407 0.62249 0.0
C643 C 0.15681 0.61636 0.63683 0.0
C644 C 0.14427 0.62008 0.60128 0.0
C645 C 0.13743 0.6087 0.59472 0.0
U646 U 0.1335 0.57067 0.60327 0.0
O647 O 0.11845 0.5554 0.62149 0.0
O648 O 0.12327 0.55777 0.56214 0.0
C649 C 0.1157 0.55162 0.58706 0.0
C650 C 0.13264 0.5891 0.60234 0.0
C651 C 0.10407 0.54761 0.5764 0.0
C652 C 0.08987 0.55025 0.54672 0.0
C653 C 0.10093 0.55443 0.55744 0.0
C654 C 0.08494 0.53248 0.57438 0.0
C655 C 0.08173 0.53921 0.55501 0.0
C656 C 0.09599 0.53664 0.58489 0.0
C657 C 0.15634 0.56359 0.62403 0.0
C658 C 0.15342 0.54483 0.62581 0.0
C659 C 0.17191 0.56065 0.63352 0.0
C660 C 0.16769 0.56782 0.6298 0.0
C661 C 0.16484 0.54906 0.63156 0.0
C662 C 0.14921 0.55204 0.62199 0.0
C663 C 0.15218 0.57139 0.62031 0.0
O664 O 0.13476 0.58497 0.57242 0.0
O665 O 0.13001 0.58258 0.63182 0.0
O666 O 0.14488 0.57046 0.64551 0.0
O667 O 0.14964 0.57286 0.58614 0.0
H668 H 0.15226 0.59916 0.64137 0.0
H669 H 0.16433 0.61914 0.65294 0.0
H670 H 0.14178 0.62574 0.59027 0.0
H671 H 0.1299 0.60586 0.57856 0.0
H672 H 0.08766 0.5557 0.53223 0.0
H673 H 0.10703 0.56295 0.55078 0.0
H674 H 0.07895 0.52391 0.5808 0.0
H675 H 0.09824 0.53123 0.59943 0.0
H676 H 0.14776 0.53597 0.62378 0.0
H677 H 0.1807 0.5642 0.6385 0.0
H678 H 0.17331 0.57671 0.63157 0.0
H679 H 0.14041 0.54863 0.61743 0.0
C680 C 0.43876 0.54647 0.61352 0.0
C681 C 0.4351 0.55204 0.63722 0.0
C682 C 0.41583 0.53784 0.62566 0.0
C683 C 0.42374 0.54774 0.64334 0.0
C684 C 0.41957 0.53239 0.60162 0.0
C685 C 0.43091 0.53666 0.59568 0.0
U686 U 0.46936 0.56968 0.61055 0.0
O687 O 0.48421 0.56943 0.62998 0.0
O688 O 0.48247 0.57233 0.57054 0.0
C689 C 0.48828 0.57062 0.59594 0.0
C690 C 0.45066 0.55058 0.60744 0.0
C691 C 0.49225 0.56296 0.58541 0.0
C692 C 0.48977 0.54624 0.55463 0.0
C693 C 0.4856 0.55316 0.56509 0.0
C694 C 0.50716 0.55874 0.58522 0.0
C695 C 0.50061 0.54896 0.56453 0.0
C696 C 0.50301 0.56565 0.59549 0.0
C697 C 0.477 0.59978 0.63397 0.0
C698 C 0.49477 0.61644 0.62194 0.0
C699 C 0.48102 0.61754 0.66024 0.0
C700 C 0.47383 0.60613 0.65553 0.0
C701 C 0.49158 0.62287 0.64341 0.0
C702 C 0.48756 0.60498 0.61734 0.0
C703 C 0.46906 0.58783 0.62876 0.0
O704 O 0.45515 0.55703 0.5781 0.0
O705 O 0.457 0.5541 0.63741 0.0
O706 O 0.46952 0.58113 0.65364 0.0
O707 O 0.46779 0.58406 0.59424 0.0
H708 H 0.44103 0.55967 0.65111 0.0
H709 H 0.42115 0.55222 0.66167 0.0
H710 H 0.41374 0.5247 0.58791 0.0
H711 H 0.43357 0.53223 0.57735 0.0
H712 H 0.48446 0.53872 0.53907 0.0
H713 H 0.47723 0.55089 0.55719 0.0
H714 H 0.51559 0.56118 0.5929 0.0
H715 H 0.50828 0.57319 0.61109 0.0
H716 H 0.50288 0.62024 0.60892 0.0
H717 H 0.47821 0.62223 0.67649 0.0
H718 H 0.4657 0.60228 0.6685 0.0
H719 H 0.49018 0.60021 0.60069 0.0
C720 C 0.20571 0.05597 0.04398 0.0
C721 C 0.21293 0.06325 0.01645 0.0
C722 C 0.20078 0.04446 0.03968 0.0
C723 C 0.19292 0.02275 0.96741 0.0
H724 H 0.18902 1.0039 0.05282 0.0
C725 C 0.17278 0.97494 0.953 0.0
C726 C 0.16518 0.96845 0.98108 0.0
C727 C 0.17943 0.98647 0.95722 0.0
C728 C 0.18995 1.00903 0.02872 0.0
H729 H 0.22067 0.06407 0.96287 0.0
H730 H 0.21212 0.04396 0.95553 0.0
H731 H 0.19913 0.02404 0.06036 0.0
H732 H 0.1589 0.96904 0.0362 0.0
H733 H 0.17029 0.9891 0.04321 0.0
H734 H 0.1836 1.00774 0.93588 0.0
C735 C 0.21022 0.04718 0.98035 0.0
C736 C 0.19576 0.02059 0.03305 0.0
C737 C 0.21521 0.05872 0.98474 0.0
C738 C 0.16455 0.97378 0.01376 0.0
C739 C 0.1712 0.98529 0.018 0.0
C740 C 0.18709 1.01118 0.96309 0.0
C741 C 0.20289 0.0399 0.00768 0.0
C742 C 0.19723 0.0276 0.00256 0.0
C743 C 0.17868 0.99182 0.98969 0.0
C744 C 0.18542 1.00415 0.99378 0.0
H745 H 0.20386 0.05918 0.06894 0.0
H746 H 0.1951 0.03912 0.06113 0.0
H747 H 0.19377 0.02788 0.94342 0.0
H748 H 0.17343 0.97113 0.92734 0.0
H749 H 0.18518 0.99121 0.93501 0.0
C750 C 0.9858 0.1584 0.05138 0.0
C751 C 0.97802 0.15806 0.02554 0.0
C752 C 0.99719 0.16505 0.0447 0.0
C753 C 1.01745 0.17887 0.96799 0.0
H754 H 0.03762 0.19548 0.04878 0.0
C755 C 0.06359 0.21116 0.94127 0.0
C756 C 0.07149 0.21182 0.96719 0.0
C757 C 0.05224 0.2045 0.94847 0.0
C758 C 0.03213 0.19078 0.02597 0.0
H759 H 0.9762 0.1645 0.97236 0.0
H760 H 0.99605 0.1762 0.96093 0.0
H761 H 1.01779 0.18429 0.06136 0.0
H762 H 0.07356 0.2059 0.0211 0.0
H763 H 0.05376 0.19411 0.03333 0.0
H764 H 0.03176 0.18531 0.93261 0.0
C765 C 0.99333 0.17124 0.98626 0.0
C766 C 1.02074 0.18437 0.03319 0.0
C767 C 0.98194 0.16463 0.99303 0.0
C768 C 0.06772 0.20553 0.00035 0.0
C769 C 0.05636 0.19886 0.00758 0.0
C770 C 0.02883 0.18526 0.96079 0.0
C771 C 1.00111 0.1715 0.01191 0.0
C772 C 1.01325 0.17835 0.00428 0.0
C773 C 0.04846 0.19829 0.98179 0.0
C774 C 0.03633 0.19133 0.98965 0.0
H775 H 0.98308 0.15353 0.07689 0.0
H776 H 1.00292 0.16496 0.06493 0.0
H777 H 1.01195 0.17418 0.94518 0.0
H778 H 0.06618 0.21578 0.91523 0.0
H779 H 0.04643 0.20436 0.9281 0.0
C780 C 0.8772 0.82837 0.04216 0.0
C781 C 0.87518 0.81981 0.01682 0.0
C782 C 0.87249 0.83507 0.03648 0.0
C783 C 0.84964 0.83586 0.98578 0.0
H784 H 0.86648 0.86728 0.00936 0.0
C785 C 0.83428 0.86648 0.94872 0.0
C786 C 0.83614 0.8747 0.97537 0.0
C787 C 0.8389 0.85966 0.95339 0.0
C788 C 0.86161 0.85849 0.00299 0.0
H789 H 0.86684 0.8118 0.96506 0.0
H790 H 0.85872 0.82352 0.95496 0.0
H791 H 0.87494 0.85581 0.01779 0.0
H792 H 0.84403 0.88187 0.0286 0.0
H793 H 0.85208 0.87004 0.03667 0.0
H794 H 0.83633 0.83858 0.97085 0.0
C795 C 0.86375 0.82492 0.9797 0.0
C796 C 0.86647 0.8519 0.00786 0.0
C797 C 0.86843 0.8182 0.98544 0.0
C798 C 0.8426 0.87579 0.0071 0.0
C799 C 0.84723 0.869 0.01174 0.0
C800 C 0.8448 0.84246 0.98082 0.0
C801 C 0.86567 0.83342 0.00523 0.0
C802 C 0.86054 0.84048 -0.00054 0.0
C803 C 0.84552 0.8609 0.98484 0.0
C804 C 0.8507 0.85386 0.98952 0.0
H805 H 0.88221 0.82974 0.06691 0.0
H806 H 0.87402 0.8414 0.05708 0.0
H807 H 0.84475 0.82707 0.97954 0.0
H808 H 0.82946 0.86548 0.92373 0.0
H809 H 0.83751 0.85359 0.93191 0.0
C810 C 0.86864 0.05521 0.06503 0.0
C811 C 0.87508 0.06302 0.03739 0.0
C812 C 0.86346 0.04381 0.05773 0.0
C813 C 0.86364 0.02284 0.99389 0.0
H814 H 0.83339 1.00457 0.02877 0.0
C815 C 0.83557 0.97684 0.94815 0.0
C816 C 0.82821 0.96931 0.9749 0.0
C817 C 0.84175 0.98823 0.95607 0.0
C818 C 0.84189 1.0095 0.01925 0.0
H819 H 0.88125 0.06488 0.98045 0.0
H820 H 0.87222 0.04496 0.96772 0.0
H821 H 0.84335 0.02439 0.04203 0.0
H822 H 0.82196 0.96785 0.03153 0.0
H823 H 0.83279 0.98764 0.04548 0.0
H824 H 0.86214 1.0079 0.97107 0.0
C825 C 0.87126 0.04768 0.99521 0.0
C826 C 0.84761 0.0209 0.02685 0.0
C827 C 0.87645 0.05911 0.00253 0.0
C828 C 0.82739 0.97343 0.01004 0.0
C829 C 0.8336 0.9848 0.018 0.0
C830 C 0.85791 1.01141 0.98635 0.0
C831 C 0.86458 0.03989 0.02258 0.0
C832 C 0.85857 0.02773 0.01436 0.0
C833 C 0.84077 0.99239 0.99099 0.0
C834 C 0.84696 1.00457 -0.001 0.0
H835 H 0.86759 0.05791 0.09246 0.0
H836 H 0.85858 0.03806 0.07975 0.0
H837 H 0.87211 0.02782 0.98419 0.0
H838 H 0.83631 0.97396 0.92066 0.0
H839 H 0.84708 0.99382 0.9344 0.0
C840 C 0.06709 0.86549 0.00271 0.0
C841 C 0.07113 0.86584 0.96628 0.0
C842 C 0.0557 0.8607 0.00935 0.0
C843 C 0.0282 0.84141 0.967 0.0
H844 H 1.01758 0.8546 0.0397 0.0
C845 C 0.98185 0.82032 0.00886 0.0
C846 C 0.9773 0.82725 0.01363 0.0
C847 C 0.9933 0.82485 0.00448 0.0
C848 C 1.02038 0.85084 0.0191 0.0
H849 H 0.06631 0.86165 0.90812 0.0
H850 H 0.0465 0.85342 0.91955 0.0
H851 H 0.03741 0.86303 0.02844 0.0
H852 H 0.98138 0.84443 0.01856 0.0
H853 H 1.00123 0.85231 0.00998 0.0
H854 H 1.01116 0.82941 0.95682 0.0
C855 C 0.0521 0.85662 0.94321 0.0
C856 C 0.03179 0.8556 0.01297 0.0
C857 C 0.06348 0.86137 0.93661 0.0
C858 C 0.98454 0.83882 0.01441 0.0
C859 C 0.99597 0.84335 0.00998 0.0
C860 C 1.01679 0.83666 0.97306 0.0
C861 C 0.04803 0.85616 0.9797 0.0
C862 C 0.03587 0.85098 0.98671 0.0
C863 C 1.00052 0.83644 0.00478 0.0
C864 C 1.01271 0.84133 -0.00091 0.0
H865 H 0.07273 0.86872 0.02629 0.0
H866 H 0.05289 0.86036 0.03789 0.0
H867 H 0.03101 0.83751 0.94693 0.0
H868 H 0.97654 0.81138 0.00781 0.0
H869 H 0.9965 0.81926 0.00101 0.0
C870 C 0.21743 0.16963 0.05069 0.0
C871 C 0.22133 0.16596 0.02072 0.0
C872 C 0.21078 0.17433 0.0441 0.0
C873 C 0.19277 0.1766 0.97211 0.0
H874 H 0.19675 0.20127 0.03391 0.0
C875 C 0.16183 0.19274 0.96952 0.0
C876 C 0.166 0.20423 0.97316 0.0
C877 C 0.16876 0.18826 0.97406 0.0
C878 C 0.19559 0.19446 0.01609 0.0
H879 H 0.22134 0.16445 0.96021 0.0
H880 H 0.20983 0.17274 0.94865 0.0
H881 H 0.20851 0.19324 0.04384 0.0
H882 H 0.18086 0.22003 0.98425 0.0
H883 H 0.193 0.21227 0.99125 0.0
H884 H 0.18001 0.17799 0.94381 0.0
C885 C 0.21174 0.17181 0.97736 0.0
C886 C 0.20225 0.18974 0.02215 0.0
C887 C 0.21835 0.16705 0.98398 0.0
C888 C 0.17735 0.21115 0.98094 0.0
C889 C 0.1843 0.20667 0.98543 0.0
C890 C 0.18612 0.18134 0.96599 0.0
C891 C 0.20789 0.17555 0.00734 0.0
C892 C 0.2009 0.1807 0.00038 0.0
C893 C 0.18009 0.19515 0.98225 0.0
C894 C 0.1874 0.1903 0.98802 0.0
H895 H 0.21942 0.16875 0.07938 0.0
H896 H 0.2078 0.1769 0.06796 0.0
H897 H 0.1914 0.1696 0.95499 0.0
H898 H 0.15318 0.18715 0.96302 0.0
H899 H 0.16517 0.17935 0.97178 0.0
C900 C 0.83359 0.30985 0.27596 0.0
C901 C 0.83269 0.30258 0.30486 0.0
C902 C 0.84019 0.32137 0.28039 0.0
C903 C 0.85242 0.34312 0.35333 0.0
H904 H 0.86985 0.36185 0.27064 0.0
C905 C 0.88045 0.39081 0.36976 0.0
C906 C 0.88029 0.39741 0.3402 0.0
C907 C 0.87548 0.37927 0.36568 0.0
C908 C 0.86495 0.35676 0.29394 0.0
H909 H 0.83815 0.30177 0.36108 0.0
H910 H 0.84977 0.32187 0.36868 0.0
H911 H 0.85968 0.34171 0.26307 0.0
H912 H 0.87505 0.397 0.28269 0.0
H913 H 0.86623 0.37693 0.27584 0.0
H914 H 0.85754 0.35816 0.38403 0.0
C915 C 0.84528 0.31865 0.34264 0.0
C916 C 0.85912 0.3452 0.28959 0.0
C917 C 0.83871 0.30712 0.33813 0.0
C918 C 0.87522 0.39218 0.30623 0.0
C919 C 0.87027 0.38066 0.30214 0.0
C920 C 0.85823 0.35469 0.35766 0.0
C921 C 0.84605 0.32593 0.31391 0.0
C922 C 0.8527 0.33822 0.31912 0.0
C923 C 0.87024 0.37402 0.3319 0.0
C924 C 0.8645 0.36167 0.32791 0.0
H925 H 0.82916 0.30664 0.24982 0.0
H926 H 0.8405 0.32671 0.2578 0.0
H927 H 0.84744 0.33802 0.3765 0.0
H928 H 0.8842 0.39453 0.39642 0.0
H929 H 0.87574 0.37445 0.38906 0.0
C930 C 0.64786 0.49772 0.32897 0.0
C931 C 0.64393 0.49056 0.3601 0.0
C932 C 0.65925 0.50442 0.32238 0.0
C933 C 0.68668 0.51657 0.36877 0.0
H934 H 0.69761 0.51928 0.26707 0.0
C935 C 0.73363 0.5381 0.33488 0.0
C936 C 0.7374 0.54495 0.30295 0.0
C937 C 0.72226 0.53137 0.34196 0.0
C938 C 0.69471 0.51873 0.2956 0.0
H939 H 0.64898 0.48507 0.40927 0.0
H940 H 0.66882 0.49665 0.3976 0.0
H941 H 0.6778 0.50801 0.27945 0.0
H942 H 0.73209 0.54986 0.253 0.0
H943 H 0.71234 0.53833 0.26569 0.0
H944 H 0.70359 0.52732 0.38491 0.0
C945 C 0.66309 0.49712 0.37831 0.0
C946 C 0.68333 0.51226 0.30269 0.0
C947 C 0.6517 0.4904 0.3848 0.0
C948 C 0.72951 0.5448 0.27811 0.0
C949 C 0.71815 0.53807 0.28517 0.0
C950 C 0.69807 0.52306 0.36167 0.0
C951 C 0.66702 0.50416 0.34686 0.0
C952 C 0.67916 0.5111 0.33936 0.0
C953 C 0.71437 0.53129 0.31726 0.0
C954 C 0.70224 0.52424 0.32496 0.0
H955 H 0.64212 0.498 0.30918 0.0
H956 H 0.66197 0.50983 0.29813 0.0
H957 H 0.68376 0.51599 0.39729 0.0
H958 H 0.73946 0.53807 0.3548 0.0
H959 H 0.71966 0.52616 0.36673 0.0
C960 C 0.54588 0.16316 0.3671 0.0
C961 C 0.54099 0.15244 0.35152 0.0
C962 C 0.54132 0.16996 0.36071 0.0
C963 C 0.52261 0.1739 0.29682 0.0
H964 H 0.52091 0.19111 0.37943 0.0
C965 C 0.49848 0.19765 0.28579 0.0
C966 C 0.5033 0.20824 0.30244 0.0
C967 C 0.50298 0.19077 0.2916 0.0
C968 C 0.52143 0.18646 0.3559 0.0
H969 H 0.52758 0.14059 0.31619 0.0
H970 H 0.51956 0.15237 0.30551 0.0
H971 H 0.52908 0.17944 0.38943 0.0
H972 H 0.51658 0.21975 0.33892 0.0
H973 H 0.52454 0.20791 0.34832 0.0
H974 H 0.51497 0.18095 0.26326 0.0
C975 C 0.52696 0.15556 0.32252 0.0
C976 C 0.52613 0.17977 0.36166 0.0
C977 C 0.5315 0.14875 0.329 0.0
C978 C 0.51271 0.21172 0.32521 0.0
C979 C 0.51721 0.20486 0.33102 0.0
C980 C 0.51792 0.18062 0.29104 0.0
C981 C 0.53177 0.16624 0.33845 0.0
C982 C 0.52679 0.17341 0.3322 0.0
C983 C 0.51242 0.19429 0.31429 0.0
C984 C 0.51728 0.187 0.3205 0.0
H985 H 0.55313 0.16624 0.38483 0.0
H986 H 0.54533 0.17818 0.37307 0.0
H987 H 0.52312 0.16924 0.27335 0.0
H988 H 0.49129 0.19472 0.26784 0.0
H989 H 0.49899 0.18264 0.27858 0.0
C990 C 0.53407 0.3876 0.3932 0.0
C991 C 0.5414 0.39558 0.36746 0.0
C992 C 0.52919 0.37624 0.38546 0.0
C993 C 0.52207 0.35646 0.30665 0.0
H994 H 0.51711 0.33548 0.3862 0.0
C995 C 0.50278 0.30923 0.27872 0.0
C996 C 0.49461 0.30204 0.30423 0.0
C997 C 0.50923 0.32062 0.28632 0.0
C998 C 0.51835 0.34122 0.36371 0.0
H999 H 0.54939 0.39779 0.31343 0.0
H1000 H 0.54103 0.37796 0.30022 0.0
H1001 H 0.52711 0.35535 0.39961 0.0
H1002 H 0.48708 0.30119 0.35824 0.0
H1003 H 0.49822 0.32103 0.37131 0.0
H1004 H 0.51325 0.3423 0.27082 0.0
C1005 C 0.53895 0.38051 0.32625 0.0
C1006 C 0.52409 0.35263 0.3714 0.0
C1007 C 0.54386 0.39188 0.33402 0.0
C1008 C 0.4932 0.3065 0.33779 0.0
C1009 C 0.49968 0.31787 0.34547 0.0
C1010 C 0.51636 0.34504 0.29894 0.0
C1011 C 0.5315 0.37253 0.35177 0.0
C1012 C 0.52592 0.3604 0.34308 0.0
C1013 C 0.50773 0.3251 0.31973 0.0
C1014 C 0.51432 0.33727 0.32746 0.0
H1015 H 0.53209 0.39012 0.41945 0.0
H1016 H 0.52341 0.37037 0.40563 0.0
H1017 H 0.52319 0.36217 0.28424 0.0
H1018 H 0.50403 0.30609 0.25248 0.0
H1019 H 0.51542 0.32593 0.26603 0.0
C1020 C 0.64924 0.15864 0.37183 0.0
C1021 C 0.64308 0.16108 0.34634 0.0
C1022 C 0.66071 0.16327 0.36732 0.0
C1023 C 0.68325 0.17674 0.29664 0.0
H1024 H 0.70237 0.18724 0.38393 0.0
C1025 C 0.73103 0.20274 0.2837 0.0
C1026 C 0.73728 0.20017 0.30835 0.0
C1027 C 0.71958 0.19804 0.28869 0.0
C1028 C 0.69715 0.18425 0.35928 0.0
H1029 H 0.6442 0.17016 0.29555 0.0
H1030 H 0.66414 0.17838 0.28814 0.0
H1031 H 0.68236 0.17872 0.39173 0.0
H1032 H 0.73637 0.19084 0.35821 0.0
H1033 H 0.71641 0.18257 0.36666 0.0
H1034 H 0.69804 0.18229 0.26419 0.0
C1035 C 0.66012 0.17281 0.3115 0.0
C1036 C 0.68566 0.17934 0.36376 0.0
C1037 C 0.64867 0.16819 0.31602 0.0
C1038 C 0.7318 0.19291 0.33845 0.0
C1039 C 0.72037 0.18825 0.34353 0.0
C1040 C 0.69474 0.18166 0.29217 0.0
C1041 C 0.66631 0.17045 0.33715 0.0
C1042 C 0.67855 0.17553 0.33249 0.0
C1043 C 0.71409 0.19069 0.31857 0.0
C1044 C 0.70184 0.18549 0.32341 0.0
H1045 H 0.64524 0.15328 0.39567 0.0
H1046 H 0.66517 0.16116 0.3874 0.0
H1047 H 0.67805 0.17374 0.27196 0.0
H1048 H 0.73495 0.20821 0.26003 0.0
H1049 H 0.71504 0.20021 0.26918 0.0
C1050 C 0.88451 0.50062 0.32126 0.0
C1051 C 0.88724 0.49924 0.35806 0.0
C1052 C 0.87789 0.50536 0.31464 0.0
C1053 C 0.86796 0.52284 0.36013 0.0
H1054 H 0.84627 0.51163 0.28003 0.0
C1055 C 0.84325 0.54444 0.31906 0.0
C1056 C 0.83196 0.53756 0.31043 0.0
C1057 C 0.85019 0.53996 0.32356 0.0
C1058 C 0.85223 0.51483 0.3027 0.0
H1059 H 0.88485 0.50152 0.41679 0.0
H1060 H 0.87322 0.50965 0.40535 0.0
H1061 H 0.85764 0.50321 0.2912 0.0
H1062 H 0.81922 0.52054 0.29879 0.0
H1063 H 0.83121 0.51272 0.30756 0.0
H1064 H 0.86233 0.53423 0.37235 0.0
C1065 C 0.87641 0.50731 0.38148 0.0
C1066 C 0.85887 0.51008 0.30882 0.0
C1067 C 0.88306 0.50262 0.38807 0.0
C1068 C 0.82783 0.52609 0.30596 0.0
C1069 C 0.83476 0.52161 0.3105 0.0
C1070 C 0.86132 0.52757 0.35406 0.0
C1071 C 0.87378 0.50882 0.34467 0.0
C1072 C 0.8668 0.51398 0.33773 0.0
C1073 C 0.84602 0.52847 0.31955 0.0
C1074 C 0.85332 0.52361 0.32535 0.0
H1075 H 0.8877 0.49825 0.29747 0.0
H1076 H 0.87618 0.50652 0.28591 0.0
H1077 H 0.87408 0.52618 0.38233 0.0
H1078 H 0.84671 0.55329 0.32301 0.0
H1079 H 0.85885 0.54552 0.33006 0.0
C1080 C 0.54117 0.72268 0.71306 0.0
C1081 C 0.54693 0.72995 0.68331 0.0
C1082 C 0.53615 0.71116 0.7084 0.0
C1083 C 0.52506 0.68938 0.63528 0.0
H1084 H 0.52548 0.67071 0.71508 0.0
C1085 C 0.50528 0.64174 0.61743 0.0
C1086 C 0.4991 0.6351 0.64792 0.0
C1087 C 0.51188 0.6533 0.6213 0.0
C1088 C 0.52519 0.67579 0.69262 0.0
H1089 H 0.55195 0.73075 0.62529 0.0
H1090 H 0.54329 0.71067 0.61727 0.0
H1091 H 0.53558 0.69085 0.72267 0.0
H1092 H 0.49533 0.63543 0.70677 0.0
H1093 H 0.50663 0.65552 0.71334 0.0
H1094 H 0.51455 0.67433 0.60543 0.0
C1095 C 0.54259 0.71388 0.64418 0.0
C1096 C 0.531 0.68735 0.69698 0.0
C1097 C 0.54767 0.72541 0.6489 0.0
C1098 C 0.49986 0.64029 0.68256 0.0
C1099 C 0.50646 0.65182 0.68644 0.0
C1100 C 0.51924 0.67782 0.63095 0.0
C1101 C 0.5367 0.7066 0.6738 0.0
C1102 C 0.53093 0.6943 0.6685 0.0
C1103 C 0.51249 0.6585 0.6558 0.0
C1104 C 0.51914 0.67085 0.65969 0.0
H1105 H 0.54053 0.72589 0.74005 0.0
H1106 H 0.5316 0.70582 0.73173 0.0
H1107 H 0.52469 0.69446 0.61297 0.0
H1108 H 0.50483 0.63805 0.59027 0.0
H1109 H 0.5165 0.65815 0.5972 0.0
C1110 C 0.39813 0.87138 0.6165 0.0
C1111 C 0.40487 0.87949 0.64289 0.0
C1112 C 0.38668 0.86482 0.6222 0.0
C1113 C 0.36502 0.85487 0.69578 0.0
H1114 H 0.34525 0.84906 0.61169 0.0
C1115 C 0.31726 0.8325 0.71383 0.0
C1116 C 0.31079 0.82466 0.68629 0.0
C1117 C 0.32871 0.83944 0.70881 0.0
C1118 C 0.35064 0.85049 0.63542 0.0
H1119 H 0.40485 0.88688 0.69643 0.0
H1120 H 0.38487 0.87549 0.70624 0.0
H1121 H 0.36522 0.86044 0.60264 0.0
H1122 H 0.31132 0.81822 0.63139 0.0
H1123 H 0.33123 0.83012 0.623 0.0
H1124 H 0.35045 0.84485 0.72851 0.0
C1125 C 0.38845 0.87418 0.68116 0.0
C1126 C 0.36211 0.85703 0.63021 0.0
C1127 C 0.39989 0.88078 0.67536 0.0
C1128 C 0.31605 0.82405 0.65343 0.0
C1129 C 0.32747 0.83098 0.6484 0.0
C1130 C 0.35354 0.8483 0.70098 0.0
C1131 C 0.38168 0.86616 0.65454 0.0
C1132 C 0.36946 0.85927 0.66028 0.0
C1133 C 0.33397 0.83875 0.67607 0.0
C1134 C 0.3462 0.84599 0.67083 0.0
H1135 H 0.40166 0.87023 0.59102 0.0
H1136 H 0.38175 0.85864 0.60131 0.0
H1137 H 0.37043 0.85631 0.71946 0.0
H1138 H 0.31352 0.83315 0.73962 0.0
H1139 H 0.33342 0.8454 0.73055 0.0
C1140 C 0.17963 0.54414 0.6192 0.0
C1141 C 0.16943 0.54147 0.63575 0.0
C1142 C 0.18417 0.53728 0.62418 0.0
C1143 C 0.17704 0.50874 0.65211 0.0
H1144 H 0.20874 0.52252 0.66774 0.0
C1145 C 0.19919 0.48305 0.65646 0.0
C1146 C 0.20767 0.48607 0.68308 0.0
C1147 C 0.19457 0.4898 0.6501 0.0
C1148 C 0.19987 0.51852 0.6637 0.0
H1149 H 0.15601 0.52941 0.67051 0.0
H1150 H 0.16393 0.51744 0.67929 0.0
H1151 H 0.20049 0.53413 0.65843 0.0
H1152 H 0.21786 0.49858 0.72408 0.0
H1153 H 0.2098 0.51031 0.71312 0.0
H1154 H 0.17639 0.49313 0.65826 0.0
C1155 C 0.16836 0.52479 0.66201 0.0
C1156 C 0.19514 0.52519 0.65787 0.0
C1157 C 0.16381 0.53166 0.65697 0.0
C1158 C 0.21146 0.49607 0.70297 0.0
C1159 C 0.20683 0.50281 0.69667 0.0
C1160 C 0.18177 0.50207 0.65794 0.0
C1161 C 0.17865 0.52755 0.64589 0.0
C1162 C 0.18366 0.5204 0.65199 0.0
C1163 C 0.19829 0.49975 0.67023 0.0
C1164 C 0.19325 0.50686 0.66383 0.0
H1165 H 0.1841 0.55152 0.6021 0.0
H1166 H 0.19199 0.53956 0.61071 0.0
H1167 H 0.1682 0.50475 0.64732 0.0
H1168 H 0.19618 0.4755 0.64019 0.0
H1169 H 0.18816 0.48726 0.62904 0.0
C1170 C 0.1659 0.64017 0.66543 0.0
C1171 C 0.16118 0.63623 0.62986 0.0
C1172 C 0.17208 0.6516 0.67276 0.0
C1173 C 0.17597 0.67841 0.6384 0.0
H1174 H 0.20256 0.69134 0.69932 0.0
C1175 C 0.20337 0.72587 0.65568 0.0
C1176 C 0.20778 0.73001 0.6914 0.0
C1177 C 0.1982 0.71449 0.648 0.0
C1178 C 0.19509 0.68785 0.68258 0.0
H1179 H 0.15971 0.6413 0.57368 0.0
H1180 H 0.17046 0.66116 0.5864 0.0
H1181 H 0.19267 0.67141 0.68635 0.0
H1182 H 0.21025 0.72537 0.74702 0.0
H1183 H 0.20115 0.7055 0.73376 0.0
H1184 H 0.17828 0.69477 0.63483 0.0
C1185 C 0.16919 0.65542 0.60892 0.0
C1186 C 0.18942 0.67641 0.67512 0.0
C1187 C 0.16302 0.64402 0.6016 0.0
C1188 C 0.20705 0.72249 0.71908 0.0
C1189 C 0.20183 0.71108 0.71144 0.0
C1190 C 0.18161 0.68981 0.6459 0.0
C1191 C 0.1737 0.65938 0.6447 0.0
C1192 C 0.1798 0.67155 0.65282 0.0
C1193 C 0.19724 0.70691 0.67587 0.0
C1194 C 0.19127 0.69471 0.668 0.0
H1195 H 0.16454 0.63441 0.68798 0.0
H1196 H 0.17532 0.65433 0.70075 0.0
H1197 H 0.16848 0.67493 0.62175 0.0
H1198 H 0.20396 0.73146 0.6335 0.0
H1199 H 0.19498 0.71164 0.62005 0.0
C1200 C 0.39968 0.53296 0.66873 0.0
C1201 C 0.40373 0.53312 0.63246 0.0
C1202 C 0.38828 0.52822 0.67523 0.0
C1203 C 0.36083 0.50866 0.63329 0.0
H1204 H 0.35011 0.52217 0.70442 0.0
C1205 C 0.3145 0.48755 0.67551 0.0
C1206 C 0.30987 0.49443 0.67952 0.0
C1207 C 0.32596 0.49214 0.67105 0.0
C1208 C 0.35294 0.51832 0.68425 0.0
H1209 H 0.39893 0.52867 0.57441 0.0
H1210 H 0.37912 0.52051 0.58561 0.0
H1211 H 0.36995 0.53062 0.69325 0.0
H1212 H 0.31382 0.5116 0.68295 0.0
H1213 H 0.33367 0.51956 0.67423 0.0
H1214 H 0.34381 0.49654 0.6235 0.0
C1215 C 0.38471 0.52382 0.60926 0.0
C1216 C 0.36435 0.5231 0.67818 0.0
C1217 C 0.3961 0.52853 0.6028 0.0
C1218 C 0.31704 0.50602 0.6794 0.0
C1219 C 0.32848 0.5106 0.6749 0.0
C1220 C 0.34941 0.50389 0.63932 0.0
C1221 C 0.38063 0.52354 0.6456 0.0
C1222 C 0.36846 0.51836 0.6525 0.0
C1223 C 0.33311 0.50373 0.67049 0.0
C1224 C 0.3453 0.50867 0.66479 0.0
H1225 H 0.4053 0.53629 0.69232 0.0
H1226 H 0.38546 0.52802 0.70367 0.0
H1227 H 0.36366 0.50468 0.61368 0.0
H1228 H 0.30925 0.47859 0.67515 0.0
H1229 H 0.32922 0.48658 0.6682 0.0
C1230 C 0.49862 0.86548 0.68021 0.0
C1231 C 0.49941 0.87176 0.64827 0.0
C1232 C 0.50547 0.8609 0.68433 0.0
C1233 C 0.52289 0.85271 0.62986 0.0
H1234 H 0.53466 0.8521 0.7277 0.0
C1235 C 0.55544 0.83899 0.6516 0.0
C1236 C 0.55424 0.83245 0.68326 0.0
C1237 C 0.54874 0.84372 0.64689 0.0
C1238 C 0.53134 0.85208 0.70025 0.0
H1239 H 0.50812 0.87816 0.59564 0.0
H1240 H 0.52022 0.87035 0.60315 0.0
H1241 H 0.52331 0.86073 0.72049 0.0
H1242 H 0.54497 0.82577 0.73479 0.0
H1243 H 0.53319 0.8339 0.72636 0.0
H1244 H 0.53097 0.84409 0.60964 0.0
C1245 C 0.51419 0.86885 0.62485 0.0
C1246 C 0.52482 0.85704 0.69609 0.0
C1247 C 0.50734 0.87345 0.62074 0.0
C1248 C 0.54607 0.83068 0.70991 0.0
C1249 C 0.53939 0.83545 0.70529 0.0
C1250 C 0.52943 0.84777 0.63401 0.0
C1251 C 0.51332 0.86247 0.65664 0.0
C1252 C 0.52047 0.85739 0.66087 0.0
C1253 C 0.54067 0.84208 0.67381 0.0
C1254 C 0.53372 0.84736 0.66929 0.0
H1255 H 0.49272 0.86412 0.70223 0.0
H1256 H 0.50447 0.85595 0.70901 0.0
H1257 H 0.51955 0.85266 0.60242 0.0
H1258 H 0.56157 0.84044 0.63032 0.0
H1259 H 0.55002 0.84885 0.62246 0.0
C1260 C 0.31638 0.15238 0.14486 0.0
C1261 C 0.31246 0.15571 0.11405 0.0
C1262 C 0.32739 0.15874 0.15662 0.0
C1263 C 0.35526 0.1798 0.12323 0.0
H1264 H 0.36245 0.18272 0.22916 0.0
C1265 C 0.40052 0.20571 0.17751 0.0
C1266 C 0.40355 0.2009 0.20646 0.0
C1267 C 0.3894 0.20106 0.16674 0.0
C1268 C 0.3606 0.18192 0.19944 0.0
H1269 H 0.31711 0.16846 0.0717 0.0
H1270 H 0.33634 0.17967 0.09257 0.0
H1271 H 0.34311 0.17313 0.20953 0.0
H1272 H 0.39715 0.18761 0.24751 0.0
H1273 H 0.37787 0.17945 0.22844 0.0
H1274 H 0.37277 0.18847 0.11317 0.0
C1275 C 0.33088 0.17205 0.1074 0.0
C1276 C 0.34949 0.17641 0.18817 0.0
C1277 C 0.31982 0.16568 0.09567 0.0
C1278 C 0.39515 0.19146 0.22479 0.0
C1279 C 0.38406 0.18685 0.21414 0.0
C1280 C 0.36638 0.18531 0.13452 0.0
C1281 C 0.33482 0.16863 0.13794 0.0
C1282 C 0.34667 0.17514 0.14991 0.0
C1283 C 0.38102 0.19154 0.18482 0.0
C1284 C 0.3692 0.18631 0.17277 0.0
H1285 H 0.31091 0.14482 0.16 0.0
H1286 H 0.33014 0.15577 0.17997 0.0
H1287 H 0.35341 0.17887 0.09352 0.0
H1288 H 0.40677 0.21293 0.16259 0.0
H1289 H 0.38736 0.20496 0.1443 0.0
C1290 C 0.84519 0.20649 0.24591 0.0
C1291 C 0.83842 0.20834 0.2213 0.0
C1292 C 0.85002 0.20027 0.23453 0.0
C1293 C 0.85835 0.19107 0.1494 0.0
H1294 H 0.86132 0.17127 0.21864 0.0
C1295 C 0.87753 0.16431 0.10452 0.0
C1296 C 0.88501 0.16383 0.12983 0.0
C1297 C 0.87108 0.16896 0.11532 0.0
C1298 C 0.86064 0.17683 0.19903 0.0
H1299 H 0.83136 0.20497 0.1654 0.0
H1300 H 0.83966 0.19397 0.14573 0.0
H1301 H 0.8514 0.1807 0.23809 0.0
H1302 H 0.89127 0.16759 0.18677 0.0
H1303 H 0.88017 0.17581 0.20541 0.0
H1304 H 0.86769 0.18728 0.11048 0.0
C1305 C 0.84132 0.19744 0.17377 0.0
C1306 C 0.85495 0.18225 0.2102 0.0
C1307 C 0.83645 0.20364 0.1852 0.0
C1308 C 0.8857 0.16793 0.16641 0.0
C1309 C 0.87923 0.17254 0.17723 0.0
C1310 C 0.86404 0.18564 0.13823 0.0
C1311 C 0.84824 0.19573 0.1982 0.0
C1312 C 0.85382 0.18952 0.18566 0.0
C1313 C 0.8719 0.1732 0.15176 0.0
C1314 C 0.86535 0.17854 0.16302 0.0
H1315 H 0.84679 0.20987 0.27405 0.0
H1316 H 0.85538 0.19923 0.25401 0.0
H1317 H 0.85779 0.19672 0.12992 0.0
H1318 H 0.87684 0.16131 0.07605 0.0
H1319 H 0.86544 0.16922 0.09508 0.0
C1320 C 0.84442 0.64588 0.23811 0.0
C1321 C 0.83898 0.63697 0.21284 0.0
C1322 C 0.84931 0.65688 0.22563 0.0
C1323 C 0.86082 0.67404 0.1407 0.0
H1324 H 0.85858 0.69642 0.1985 0.0
C1325 C 0.87896 0.71895 0.08594 0.0
C1326 C 0.88421 0.72766 0.11201 0.0
C1327 C 0.87286 0.7079 0.09793 0.0
C1328 C 0.85941 0.69031 0.18219 0.0
H1329 H 0.83439 0.63269 0.15456 0.0
H1330 H 0.84286 0.65189 0.13282 0.0
H1331 H 0.84904 0.67718 0.22002 0.0
H1332 H 0.88716 0.73152 0.17125 0.0
H1333 H 0.87667 0.71227 0.19219 0.0
H1334 H 0.87134 0.68714 0.10323 0.0
C1335 C 0.84339 0.65035 0.16231 0.0
C1336 C 0.85391 0.67926 0.19453 0.0
C1337 C 0.83844 0.63935 0.17484 0.0
C1338 C 0.8831 0.72504 0.15043 0.0
C1339 C 0.87706 0.71397 0.16244 0.0
C1340 C 0.86637 0.68509 0.12847 0.0
C1341 C 0.84894 0.65926 0.18751 0.0
C1342 C 0.85457 0.67099 0.17398 0.0
C1343 C 0.8719 0.70523 0.13635 0.0
C1344 C 0.86577 0.6934 0.14907 0.0
H1345 H 0.84491 0.64435 0.26763 0.0
H1346 H 0.85359 0.66353 0.24576 0.0
H1347 H 0.86166 0.66791 0.12448 0.0
H1348 H 0.8795 0.72069 0.05616 0.0
H1349 H 0.86884 0.70144 0.07701 0.0
C1350 C 0.17969 0.31281 0.90775 0.0
C1351 C 0.17326 0.30419 0.88243 0.0
C1352 C 0.18464 0.32394 0.89669 0.0
C1353 C 0.18382 0.34264 0.82396 0.0
H1354 H 0.21387 0.36259 0.85764 0.0
C1355 C 0.21123 0.38719 0.76391 0.0
C1356 C 0.21829 0.39561 0.78895 0.0
C1357 C 0.20523 0.37607 0.77557 0.0
C1358 C 0.20543 0.35719 0.84834 0.0
H1359 H 0.16691 0.30057 0.82559 0.0
H1360 H 0.17557 0.31999 0.80621 0.0
H1361 H 0.20435 0.34325 0.87739 0.0
H1362 H 0.22415 0.39894 0.84641 0.0
H1363 H 0.21368 0.37964 0.86673 0.0
H1364 H 0.18496 0.35662 0.79468 0.0
C1365 C 0.17668 0.31814 0.83483 0.0
C1366 C 0.19995 0.34607 0.8597 0.0
C1367 C 0.17171 0.307 0.84595 0.0
C1368 C 0.21897 0.39266 0.82616 0.0
C1369 C 0.21297 0.38157 0.83781 0.0
C1370 C 0.18931 0.35379 0.81256 0.0
C1371 C 0.18331 0.32676 0.85995 0.0
C1372 C 0.18907 0.33864 0.84776 0.0
C1373 C 0.20612 0.3731 0.81258 0.0
C1374 C 0.20018 0.36122 0.82468 0.0
H1375 H 0.18089 0.31096 0.93627 0.0
H1376 H 0.18948 0.33034 0.91705 0.0
H1377 H 0.1754 0.3372 0.81455 0.0
H1378 H 0.2106 0.38913 0.73495 0.0
H1379 H 0.20014 0.36977 0.75524 0.0
C1380 C 0.73495 0.86521 0.82707 0.0
C1381 C 0.7382 0.8692 0.86383 0.0
C1382 C 0.72388 0.86054 0.81586 0.0
C1383 C 0.69537 0.84711 0.85391 0.0
H1384 H 0.68796 0.85223 0.75397 0.0
C1385 C 0.64984 0.82905 0.80575 0.0
C1386 C 0.6472 0.82443 0.76952 0.0
C1387 C 0.6609 0.83526 0.81749 0.0
C1388 C 0.68988 0.85063 0.78188 0.0
H1389 H 0.73229 0.87148 0.91752 0.0
H1390 H 0.71302 0.86347 0.89781 0.0
H1391 H 0.70728 0.86172 0.77401 0.0
H1392 H 0.65421 0.82306 0.71685 0.0
H1393 H 0.67343 0.83372 0.73742 0.0
H1394 H 0.67798 0.83593 0.86164 0.0
C1395 C 0.71902 0.86386 0.87773 0.0
C1396 C 0.70098 0.85608 0.79338 0.0
C1397 C 0.73011 0.86856 0.88892 0.0
C1398 C 0.65592 0.82638 0.74509 0.0
C1399 C 0.66696 0.83261 0.75677 0.0
C1400 C 0.68427 0.84166 0.8424 0.0
C1401 C 0.71575 0.85972 0.8411 0.0
C1402 C 0.70388 0.85432 0.82944 0.0
C1403 C 0.66961 0.83705 0.79324 0.0
C1404 C 0.68138 0.84327 0.80611 0.0
H1405 H 0.74097 0.86568 0.80687 0.0
H1406 H 0.72167 0.85736 0.78755 0.0
H1407 H 0.69729 0.84542 0.88168 0.0
H1408 H 0.64334 0.82764 0.82542 0.0
H1409 H 0.66262 0.83865 0.84562 0.0
C1410 C 0.20966 0.82849 0.7823 0.0
C1411 C 0.22049 0.83242 0.79563 0.0
C1412 C 0.20359 0.83353 0.79358 0.0
C1413 C 0.20772 0.86008 0.83194 0.0
H1414 H 0.17629 0.84316 0.85438 0.0
C1415 C 0.18514 0.88083 0.89862 0.0
C1416 C 0.17456 0.8779 0.88497 0.0
C1417 C 0.19026 0.87481 0.88812 0.0
C1418 C 0.18504 0.84802 0.84782 0.0
H1419 H 0.23318 0.84439 0.83281 0.0
H1420 H 0.22267 0.85313 0.85235 0.0
H1421 H 0.18606 0.83348 0.83539 0.0
H1422 H 0.161 0.86614 0.85 0.0
H1423 H 0.16996 0.85562 0.83161 0.0
H1424 H 0.20676 0.87461 0.84418 0.0
C1425 C 0.21893 0.84633 0.8325 0.0
C1426 C 0.19065 0.84246 0.83694 0.0
C1427 C 0.22497 0.8413 0.82127 0.0
C1428 C 0.16911 0.86859 0.86127 0.0
C1429 C 0.17425 0.86255 0.85072 0.0
C1430 C 0.20214 0.86562 0.84277 0.0
C1431 C 0.20822 0.84262 0.81845 0.0
C1432 C 0.20209 0.84843 0.82917 0.0
C1433 C 0.18496 0.86568 0.86364 0.0
C1434 C 0.19075 0.85967 0.85118 0.0
H1435 H 0.20597 0.82172 0.7623 0.0
H1436 H 0.1954 0.83051 0.78198 0.0
H1437 H 0.21647 0.86498 0.82536 0.0
H1438 H 0.18948 0.88778 0.9176 0.0
H1439 H 0.19839 0.87732 0.89935 0.0
C1440 C 0.06737 0.53697 0.50751 0.0
C1441 C 0.06996 0.53462 0.54321 0.0
C1442 C 0.05631 0.53225 0.49592 0.0
C1443 C 0.0274 0.51851 0.53193 0.0
H1444 H 1.01967 0.50668 0.43103 0.0
C1445 C 0.98212 0.4886 0.48657 0.0
C1446 C 0.97885 0.48965 0.45021 0.0
C1447 C 0.99322 0.49486 0.49765 0.0
C1448 C 1.02169 0.51008 0.45913 0.0
H1449 H 0.0629 0.52571 0.59508 0.0
H1450 H 0.04369 0.51738 0.57475 0.0
H1451 H 0.03901 0.51621 0.45077 0.0
H1452 H 0.98476 0.49822 0.39711 0.0
H1453 H 1.0041 0.50926 0.4166 0.0
H1454 H 1.01006 0.51228 0.54042 0.0
C1455 C 0.05018 0.52292 0.55572 0.0
C1456 C 0.0328 0.51555 0.47047 0.0
C1457 C 0.06122 0.5276 0.56724 0.0
C1458 C 0.98695 0.49726 0.42541 0.0
C1459 C 0.99808 0.50351 0.43646 0.0
C1460 C 1.01629 0.51304 0.5206 0.0
C1461 C 0.04757 0.52511 0.5198 0.0
C1462 C 0.03579 0.51975 0.50714 0.0
C1463 C 1.00137 0.50234 0.47267 0.0
C1464 C 1.01327 0.50865 0.48415 0.0
H1465 H 0.07389 0.54227 0.48816 0.0
H1466 H 0.05462 0.53421 0.46822 0.0
H1467 H 0.02941 0.52181 0.56016 0.0
H1468 H 0.97608 0.48292 0.50657 0.0
H1469 H 0.99544 0.49365 0.52561 0.0
C1470 C 0.54382 0.49709 0.43748 0.0
C1471 C 0.55113 0.49645 0.46308 0.0
C1472 C 0.53744 0.50185 0.44804 0.0
C1473 C 0.52689 0.50976 0.53138 0.0
H1474 H 0.52459 0.52997 0.46223 0.0
C1475 C 0.51183 0.53976 0.57782 0.0
C1476 C 0.50521 0.54177 0.55302 0.0
C1477 C 0.51659 0.53346 0.56657 0.0
C1478 C 0.525 0.52422 0.48171 0.0
H1479 H 0.55719 0.50001 0.52029 0.0
H1480 H 0.54622 0.50841 0.53853 0.0
H1481 H 0.53435 0.52035 0.44314 0.0
H1482 H 0.49833 0.53858 0.49687 0.0
H1483 H 0.50649 0.52744 0.47739 0.0
H1484 H 0.51764 0.51372 0.57009 0.0
C1485 C 0.54535 0.50519 0.5103 0.0
C1486 C 0.53061 0.5187 0.47074 0.0
C1487 C 0.55174 0.50048 0.49971 0.0
C1488 C 0.50331 0.53713 0.51682 0.0
C1489 C 0.5081 0.53085 0.5055 0.0
C1490 C 0.52128 0.51528 0.54234 0.0
C1491 C 0.53818 0.50602 0.48454 0.0
C1492 C 0.53172 0.51147 0.49556 0.0
C1493 C 0.51487 0.52899 0.53015 0.0
C1494 C 0.52035 0.52267 0.51779 0.0
H1495 H 0.54319 0.49415 0.40896 0.0
H1496 H 0.53192 0.50224 0.42758 0.0
H1497 H 0.52741 0.50411 0.551 0.0
H1498 H 0.51337 0.54308 0.60605 0.0
H1499 H 0.52183 0.5323 0.58622 0.0
C1500 C 0.55044 0.05249 0.42221 0.0
C1501 C 0.55088 0.06114 0.44399 0.0
C1502 C 0.54408 0.04142 0.43372 0.0
C1503 C 0.53161 0.02412 0.51816 0.0
H1504 H 0.51565 1.00068 0.44539 0.0
C1505 C 0.50463 0.97789 0.56194 0.0
C1506 C 0.50559 0.97007 0.53964 0.0
C1507 C 0.50931 0.98896 0.55026 0.0
C1508 C 0.52014 1.00711 0.46606 0.0
H1509 H 0.54486 0.06483 0.49494 0.0
H1510 H 0.53365 0.04548 0.5148 0.0
H1511 H 0.52528 0.02002 0.42508 0.0
H1512 H 0.51192 0.96775 0.48691 0.0
H1513 H 0.5202 0.98701 0.46688 0.0
H1514 H 0.52657 1.0112 0.55906 0.0
C1515 C 0.53831 0.0473 0.48893 0.0
C1516 C 0.52567 0.01822 0.4544 0.0
C1517 C 0.54465 0.05839 0.47733 0.0
C1518 C 0.51114 0.97356 0.50504 0.0
C1519 C 0.51578 0.9846 0.49333 0.0
C1520 C 0.52608 1.01301 0.52983 0.0
C1521 C 0.538 0.03867 0.46737 0.0
C1522 C 0.53158 0.02687 0.4802 0.0
C1523 C 0.51501 0.99248 0.51588 0.0
C1524 C 0.52037 1.00435 0.50386 0.0
H1525 H 0.55502 0.05428 0.39616 0.0
H1526 H 0.54414 0.03503 0.41657 0.0
H1527 H 0.5362 0.03055 0.53875 0.0
H1528 H 0.50049 0.97551 0.58886 0.0
H1529 H 0.50845 0.99476 0.56817 0.0
loop_
_geom_bond_atom_site_label_1
_geom_bond_atom_site_label_2
_geom_bond_distance
_geom_bond_site_symmetry_2
_ccdc_geom_bond_type
C0 C1 1.255 1_554 S
C0 C5 1.486 . S
C0 C10 1.465 . S
C1 C0 1.255 1_556 S
C1 C3 1.339 . S
C1 H28 0.931 . S
C2 C3 1.395 1_554 S
C2 C4 1.320 . S
C3 C1 1.339 . S
C3 C2 1.395 1_556 S
C3 H29 0.929 . S
C4 C2 1.320 . S
C4 C5 1.405 . S
C4 H30 0.930 . S
C5 C0 1.486 . S
C5 C4 1.405 . S
C5 H31 0.931 . S
U6 O7 2.454 . S
U6 O8 2.458 . S
U6 C9 2.984 . S
U6 C10 2.847 . S
U6 C23 2.882 1_554 S
U6 O24 2.441 . S
U6 O25 2.420 1_554 S
U6 O26 2.455 . S
U6 O27 2.449 1_554 S
O7 U6 2.454 . S
O7 C9 1.353 . S
O8 U6 2.458 . S
O8 C9 1.286 . S
C9 U6 2.984 . S
C9 O7 1.353 . S
C9 O8 1.286 . S
C9 C11 1.363 . S
C10 C0 1.465 . S
C10 U6 2.847 . S
C10 O24 1.249 . S
C10 O25 1.202 1_554 S
C11 C9 1.363 . S
C11 C13 1.408 . S
C11 C16 1.342 . S
C12 C13 1.310 . S
C12 C15 1.461 . S
C12 H32 0.932 . S
C13 C11 1.408 . S
C13 C12 1.310 . S
C13 H33 0.930 . S
C14 C15 1.474 . S
C14 C16 1.285 . S
C14 H34 0.929 . S
C15 C12 1.461 . S
C15 C14 1.474 . S
C16 C11 1.342 . S
C16 C14 1.285 . S
C16 H35 0.930 . S
C17 C20 1.424 . S
C17 C22 1.245 1_556 S
C17 C23 1.428 . S
C18 C21 1.260 . S
C18 C22 1.477 . S
C18 H36 0.932 . S
C19 C20 1.384 . S
C19 C21 1.479 1_556 S
C19 H37 0.929 . S
C20 C17 1.424 . S
C20 C19 1.384 . S
C20 H38 0.928 . S
C21 C18 1.260 . S
C21 C19 1.479 1_554 S
C22 C17 1.245 1_554 S
C22 C18 1.477 . S
C22 H39 0.932 . S
C23 U6 2.882 1_556 S
C23 C17 1.428 . S
C23 O26 1.301 1_556 S
C23 O27 1.282 . S
O24 U6 2.441 . S
O24 C10 1.249 . S
O25 U6 2.420 1_556 S
O25 C10 1.202 1_556 S
O26 U6 2.455 . S
O26 C23 1.301 1_554 S
O27 U6 2.449 1_556 S
O27 C23 1.282 . S
H28 C1 0.931 . S
H29 C3 0.929 . S
H30 C4 0.930 . S
H31 C5 0.931 . S
H32 C12 0.932 . S
H33 C13 0.930 . S
H34 C14 0.929 . S
H35 C16 0.930 . S
H36 C18 0.932 . S
H37 C19 0.929 . S
H38 C20 0.928 . S
H39 C22 0.932 . S
C40 C41 1.264 . S
C40 C45 1.479 . S
C40 C50 1.465 . S
C41 C40 1.264 . S
C41 C43 1.339 . S
C41 H68 0.931 . S
C42 C43 1.395 . S
C42 C44 1.320 . S
C43 C41 1.339 . S
C43 C42 1.395 . S
C43 H69 0.929 . S
C44 C42 1.320 . S
C44 C45 1.405 . S
C44 H70 0.930 . S
C45 C40 1.479 . S
C45 C44 1.405 . S
C45 H71 0.931 . S
U46 O47 2.454 . S
U46 O48 2.458 . S
U46 C49 2.984 . S
U46 C50 2.847 . S
U46 C63 2.882 . S
U46 O64 2.441 . S
U46 O65 2.420 . S
U46 O66 2.455 . S
U46 O67 2.449 . S
O47 U46 2.454 . S
O47 C49 1.353 . S
O48 U46 2.458 . S
O48 C49 1.286 . S
C49 U46 2.984 . S
C49 O47 1.353 . S
C49 O48 1.286 . S
C49 C51 1.363 . S
C50 C40 1.465 . S
C50 U46 2.847 . S
C50 O64 1.249 . S
C50 O65 1.202 . S
C51 C49 1.363 . S
C51 C53 1.408 . S
C51 C56 1.342 . S
C52 C53 1.310 . S
C52 C55 1.461 . S
C52 H72 0.932 . S
C53 C51 1.408 . S
C53 C52 1.310 . S
C53 H73 0.930 . S
C54 C55 1.474 . S
C54 C56 1.285 . S
C54 H74 0.929 . S
C55 C52 1.461 . S
C55 C54 1.474 . S
C56 C51 1.342 . S
C56 C54 1.285 . S
C56 H75 0.930 . S
C57 C60 1.424 . S
C57 C62 1.245 . S
C57 C63 1.428 . S
C58 C61 1.260 . S
C58 C62 1.477 . S
C58 H76 0.932 . S
C59 C60 1.384 . S
C59 C61 1.479 . S
C59 H77 0.929 . S
C60 C57 1.424 . S
C60 C59 1.384 . S
C60 H78 0.928 . S
C61 C58 1.260 . S
C61 C59 1.479 . S
C62 C57 1.245 . S
C62 C58 1.477 . S
C62 H79 0.932 . S
C63 U46 2.882 . S
C63 C57 1.428 . S
C63 O66 1.301 . S
C63 O67 1.282 . S
O64 U46 2.441 . S
O64 C50 1.249 . S
O65 U46 2.420 . S
O65 C50 1.202 . S
O66 U46 2.455 . S
O66 C63 1.301 . S
O67 U46 2.449 . S
O67 C63 1.282 . S
H68 C41 0.931 . S
H69 C43 0.929 . S
H70 C44 0.930 . S
H71 C45 0.931 . S
H72 C52 0.932 . S
H73 C53 0.930 . S
H74 C54 0.929 . S
H75 C56 0.930 . S
H76 C58 0.932 . S
H77 C59 0.929 . S
H78 C60 0.928 . S
H79 C62 0.932 . S
C80 C81 1.264 . S
C80 C85 1.479 . S
C80 C90 1.465 . S
C81 C80 1.264 . S
C81 C83 1.339 . S
C81 H108 0.931 . S
C82 C83 1.395 . S
C82 C84 1.320 . S
C83 C81 1.339 . S
C83 C82 1.395 . S
C83 H109 0.929 . S
C84 C82 1.320 . S
C84 C85 1.405 . S
C84 H110 0.930 . S
C85 C80 1.479 . S
C85 C84 1.405 . S
C85 H111 0.931 . S
U86 O87 2.454 . S
U86 O88 2.458 . S
U86 C89 2.984 . S
U86 C90 2.847 . S
U86 C103 2.882 . S
U86 O104 2.441 . S
U86 O105 2.420 . S
U86 O106 2.455 . S
U86 O107 2.449 . S
O87 U86 2.454 . S
O87 C89 1.353 . S
O88 U86 2.458 . S
O88 C89 1.286 . S
C89 U86 2.984 . S
C89 O87 1.353 . S
C89 O88 1.286 . S
C89 C91 1.363 . S
C90 C80 1.465 . S
C90 U86 2.847 . S
C90 O104 1.249 . S
C90 O105 1.202 . S
C91 C89 1.363 . S
C91 C93 1.408 . S
C91 C96 1.342 . S
C92 C93 1.310 . S
C92 C95 1.461 . S
C92 H112 0.932 . S
C93 C91 1.408 . S
C93 C92 1.310 . S
C93 H113 0.930 . S
C94 C95 1.474 . S
C94 C96 1.285 . S
C94 H114 0.929 . S
C95 C92 1.461 . S
C95 C94 1.474 . S
C96 C91 1.342 . S
C96 C94 1.285 . S
C96 H115 0.930 . S
C97 C100 1.424 . S
C97 C102 1.245 . S
C97 C103 1.428 . S
C98 C101 1.260 . S
C98 C102 1.477 . S
C98 H116 0.932 . S
C99 C100 1.384 . S
C99 C101 1.479 . S
C99 H117 0.929 . S
C100 C97 1.424 . S
C100 C99 1.384 . S
C100 H118 0.928 . S
C101 C98 1.260 . S
C101 C99 1.479 . S
C102 C97 1.245 . S
C102 C98 1.477 . S
C102 H119 0.932 . S
C103 U86 2.882 . S
C103 C97 1.428 . S
C103 O106 1.301 . S
C103 O107 1.282 . S
O104 U86 2.441 . S
O104 C90 1.249 . S
O105 U86 2.420 . S
O105 C90 1.202 . S
O106 U86 2.455 . S
O106 C103 1.301 . S
O107 U86 2.449 . S
O107 C103 1.282 . S
H108 C81 0.931 . S
H109 C83 0.929 . S
H110 C84 0.930 . S
H111 C85 0.931 . S
H112 C92 0.932 . S
H113 C93 0.930 . S
H114 C94 0.929 . S
H115 C96 0.930 . S
H116 C98 0.932 . S
H117 C99 0.929 . S
H118 C100 0.928 . S
H119 C102 0.932 . S
C120 C121 1.264 . S
C120 C125 1.479 . S
C120 C130 1.465 . S
C121 C120 1.264 . S
C121 C123 1.339 . S
C121 H148 0.931 . S
C122 C123 1.395 . S
C122 C124 1.320 . S
C123 C121 1.339 . S
C123 C122 1.395 . S
C123 H149 0.929 . S
C124 C122 1.320 . S
C124 C125 1.405 . S
C124 H150 0.930 . S
C125 C120 1.479 . S
C125 C124 1.405 . S
C125 H151 0.931 . S
U126 O127 2.454 . S
U126 O128 2.458 . S
U126 C129 2.984 . S
U126 C130 2.847 . S
U126 C143 2.882 . S
U126 O144 2.441 . S
U126 O145 2.420 . S
U126 O146 2.455 . S
U126 O147 2.449 . S
O127 U126 2.454 . S
O127 C129 1.353 . S
O128 U126 2.458 . S
O128 C129 1.286 . S
C129 U126 2.984 . S
C129 O127 1.353 . S
C129 O128 1.286 . S
C129 C131 1.363 . S
C130 C120 1.465 . S
C130 U126 2.847 . S
C130 O144 1.249 . S
C130 O145 1.202 . S
C131 C129 1.363 . S
C131 C133 1.408 . S
C131 C136 1.342 . S
C132 C133 1.310 . S
C132 C135 1.461 . S
C132 H152 0.932 . S
C133 C131 1.408 . S
C133 C132 1.310 . S
C133 H153 0.930 . S
C134 C135 1.474 . S
C134 C136 1.285 . S
C134 H154 0.929 . S
C135 C132 1.461 . S
C135 C134 1.474 . S
C136 C131 1.342 . S
C136 C134 1.285 . S
C136 H155 0.930 . S
C137 C140 1.424 . S
C137 C142 1.245 . S
C137 C143 1.428 . S
C138 C141 1.260 . S
C138 C142 1.477 . S
C138 H156 0.932 . S
C139 C140 1.384 . S
C139 C141 1.479 . S
C139 H157 0.929 . S
C140 C137 1.424 . S
C140 C139 1.384 . S
C140 H158 0.928 . S
C141 C138 1.260 . S
C141 C139 1.479 . S
C142 C137 1.245 . S
C142 C138 1.477 . S
C142 H159 0.932 . S
C143 U126 2.882 . S
C143 C137 1.428 . S
C143 O146 1.301 . S
C143 O147 1.282 . S
O144 U126 2.441 . S
O144 C130 1.249 . S
O145 U126 2.420 . S
O145 C130 1.202 . S
O146 U126 2.455 . S
O146 C143 1.301 . S
O147 U126 2.449 . S
O147 C143 1.282 . S
H148 C121 0.931 . S
H149 C123 0.929 . S
H150 C124 0.930 . S
H151 C125 0.931 . S
H152 C132 0.932 . S
H153 C133 0.930 . S
H154 C134 0.929 . S
H155 C136 0.930 . S
H156 C138 0.932 . S
H157 C139 0.929 . S
H158 C140 0.928 . S
H159 C142 0.932 . S
C160 C161 1.264 . S
C160 C165 1.479 . S
C160 C170 1.465 . S
C161 C160 1.264 . S
C161 C163 1.339 . S
C161 H188 0.931 . S
C162 C163 1.395 . S
C162 C164 1.320 . S
C163 C161 1.339 . S
C163 C162 1.395 . S
C163 H189 0.929 . S
C164 C162 1.320 . S
C164 C165 1.405 . S
C164 H190 0.930 . S
C165 C160 1.479 . S
C165 C164 1.405 . S
C165 H191 0.931 . S
U166 O167 2.454 . S
U166 O168 2.458 . S
U166 C169 2.984 . S
U166 C170 2.847 . S
U166 C183 2.882 . S
U166 O184 2.441 . S
U166 O185 2.420 . S
U166 O186 2.455 . S
U166 O187 2.449 . S
O167 U166 2.454 . S
O167 C169 1.353 . S
O168 U166 2.458 . S
O168 C169 1.286 . S
C169 U166 2.984 . S
C169 O167 1.353 . S
C169 O168 1.286 . S
C169 C171 1.363 . S
C170 C160 1.465 . S
C170 U166 2.847 . S
C170 O184 1.249 . S
C170 O185 1.202 . S
C171 C169 1.363 . S
C171 C173 1.408 . S
C171 C176 1.342 . S
C172 C173 1.310 . S
C172 C175 1.461 . S
C172 H192 0.932 . S
C173 C171 1.408 . S
C173 C172 1.310 . S
C173 H193 0.930 . S
C174 C175 1.474 . S
C174 C176 1.285 . S
C174 H194 0.929 . S
C175 C172 1.461 . S
C175 C174 1.474 . S
C176 C171 1.342 . S
C176 C174 1.285 . S
C176 H195 0.930 . S
C177 C180 1.424 . S
C177 C182 1.245 . S
C177 C183 1.428 . S
C178 C181 1.260 . S
C178 C182 1.477 . S
C178 H196 0.932 . S
C179 C180 1.384 . S
C179 C181 1.479 . S
C179 H197 0.929 . S
C180 C177 1.424 . S
C180 C179 1.384 . S
C180 H198 0.928 . S
C181 C178 1.260 . S
C181 C179 1.479 . S
C182 C177 1.245 . S
C182 C178 1.477 . S
C182 H199 0.932 . S
C183 U166 2.882 . S
C183 C177 1.428 . S
C183 O186 1.301 . S
C183 O187 1.282 . S
O184 U166 2.441 . S
O184 C170 1.249 . S
O185 U166 2.420 . S
O185 C170 1.202 . S
O186 U166 2.455 . S
O186 C183 1.301 . S
O187 U166 2.449 . S
O187 C183 1.282 . S
H188 C161 0.931 . S
H189 C163 0.929 . S
H190 C164 0.930 . S
H191 C165 0.931 . S
H192 C172 0.932 . S
H193 C173 0.930 . S
H194 C174 0.929 . S
H195 C176 0.930 . S
H196 C178 0.932 . S
H197 C179 0.929 . S
H198 C180 0.928 . S
H199 C182 0.932 . S
C200 C201 1.264 . S
C200 C205 1.479 . S
C200 C210 1.465 . S
C201 C200 1.264 . S
C201 C203 1.339 . S
C201 H228 0.931 . S
C202 C203 1.395 . S
C202 C204 1.320 . S
C203 C201 1.339 . S
C203 C202 1.395 . S
C203 H229 0.929 . S
C204 C202 1.320 . S
C204 C205 1.405 . S
C204 H230 0.930 . S
C205 C200 1.479 . S
C205 C204 1.405 . S
C205 H231 0.931 . S
U206 O207 2.454 . S
U206 O208 2.458 . S
U206 C209 2.984 . S
U206 C210 2.847 . S
U206 C223 2.882 . S
U206 O224 2.441 . S
U206 O225 2.420 . S
U206 O226 2.455 . S
U206 O227 2.449 . S
O207 U206 2.454 . S
O207 C209 1.353 . S
O208 U206 2.458 . S
O208 C209 1.286 . S
C209 U206 2.984 . S
C209 O207 1.353 . S
C209 O208 1.286 . S
C209 C211 1.363 . S
C210 C200 1.465 . S
C210 U206 2.847 . S
C210 O224 1.249 . S
C210 O225 1.202 . S
C211 C209 1.363 . S
C211 C213 1.408 . S
C211 C216 1.342 . S
C212 C213 1.310 . S
C212 C215 1.461 . S
C212 H232 0.932 . S
C213 C211 1.408 . S
C213 C212 1.310 . S
C213 H233 0.930 . S
C214 C215 1.474 . S
C214 C216 1.285 . S
C214 H234 0.929 . S
C215 C212 1.461 . S
C215 C214 1.474 . S
C216 C211 1.342 . S
C216 C214 1.285 . S
C216 H235 0.930 . S
C217 C220 1.424 . S
C217 C222 1.245 . S
C217 C223 1.428 . S
C218 C221 1.260 . S
C218 C222 1.477 . S
C218 H236 0.932 . S
C219 C220 1.384 . S
C219 C221 1.479 . S
C219 H237 0.929 . S
C220 C217 1.424 . S
C220 C219 1.384 . S
C220 H238 0.928 . S
C221 C218 1.260 . S
C221 C219 1.479 . S
C222 C217 1.245 . S
C222 C218 1.477 . S
C222 H239 0.932 . S
C223 U206 2.882 . S
C223 C217 1.428 . S
C223 O226 1.301 . S
C223 O227 1.282 . S
O224 U206 2.441 . S
O224 C210 1.249 . S
O225 U206 2.420 . S
O225 C210 1.202 . S
O226 U206 2.455 . S
O226 C223 1.301 . S
O227 U206 2.449 . S
O227 C223 1.282 . S
H228 C201 0.931 . S
H229 C203 0.929 . S
H230 C204 0.930 . S
H231 C205 0.931 . S
H232 C212 0.932 . S
H233 C213 0.930 . S
H234 C214 0.929 . S
H235 C216 0.930 . S
H236 C218 0.932 . S
H237 C219 0.929 . S
H238 C220 0.928 . S
H239 C222 0.932 . S
C240 C241 1.264 . S
C240 C245 1.479 . S
C240 C250 1.465 . S
C241 C240 1.264 . S
C241 C243 1.339 . S
C241 H268 0.931 . S
C242 C243 1.395 . S
C242 C244 1.320 . S
C243 C241 1.339 . S
C243 C242 1.395 . S
C243 H269 0.929 . S
C244 C242 1.320 . S
C244 C245 1.405 . S
C244 H270 0.930 . S
C245 C240 1.479 . S
C245 C244 1.405 . S
C245 H271 0.931 . S
U246 O247 2.454 . S
U246 O248 2.458 . S
U246 C249 2.984 . S
U246 C250 2.847 . S
U246 C263 2.882 . S
U246 O264 2.441 . S
U246 O265 2.420 . S
U246 O266 2.455 . S
U246 O267 2.449 . S
O247 U246 2.454 . S
O247 C249 1.353 . S
O248 U246 2.458 . S
O248 C249 1.286 . S
C249 U246 2.984 . S
C249 O247 1.353 . S
C249 O248 1.286 . S
C249 C251 1.363 . S
C250 C240 1.465 . S
C250 U246 2.847 . S
C250 O264 1.249 . S
C250 O265 1.202 . S
C251 C249 1.363 . S
C251 C253 1.408 . S
C251 C256 1.342 . S
C252 C253 1.310 . S
C252 C255 1.461 . S
C252 H272 0.932 . S
C253 C251 1.408 . S
C253 C252 1.310 . S
C253 H273 0.930 . S
C254 C255 1.474 . S
C254 C256 1.285 . S
C254 H274 0.929 . S
C255 C252 1.461 . S
C255 C254 1.474 . S
C256 C251 1.342 . S
C256 C254 1.285 . S
C256 H275 0.930 . S
C257 C260 1.424 . S
C257 C262 1.245 . S
C257 C263 1.428 . S
C258 C261 1.260 . S
C258 C262 1.477 . S
C258 H276 0.932 . S
C259 C260 1.384 . S
C259 C261 1.479 . S
C259 H277 0.929 . S
C260 C257 1.424 . S
C260 C259 1.384 . S
C260 H278 0.928 . S
C261 C258 1.260 . S
C261 C259 1.479 . S
C262 C257 1.245 . S
C262 C258 1.477 . S
C262 H279 0.932 . S
C263 U246 2.882 . S
C263 C257 1.428 . S
C263 O266 1.301 . S
C263 O267 1.282 . S
O264 U246 2.441 . S
O264 C250 1.249 . S
O265 U246 2.420 . S
O265 C250 1.202 . S
O266 U246 2.455 . S
O266 C263 1.301 . S
O267 U246 2.449 . S
O267 C263 1.282 . S
H268 C241 0.931 . S
H269 C243 0.929 . S
H270 C244 0.930 . S
H271 C245 0.931 . S
H272 C252 0.932 . S
H273 C253 0.930 . S
H274 C254 0.929 . S
H275 C256 0.930 . S
H276 C258 0.932 . S
H277 C259 0.929 . S
H278 C260 0.928 . S
H279 C262 0.932 . S
C280 C281 1.264 . S
C280 C285 1.479 . S
C280 C290 1.465 . S
C281 C280 1.264 . S
C281 C283 1.339 . S
C281 H308 0.931 . S
C282 C283 1.395 . S
C282 C284 1.320 . S
C283 C281 1.339 . S
C283 C282 1.395 . S
C283 H309 0.929 . S
C284 C282 1.320 . S
C284 C285 1.405 . S
C284 H310 0.930 . S
C285 C280 1.479 . S
C285 C284 1.405 . S
C285 H311 0.931 . S
U286 O287 2.454 . S
U286 O288 2.458 . S
U286 C289 2.984 . S
U286 C290 2.847 . S
U286 C303 2.882 . S
U286 O304 2.441 . S
U286 O305 2.420 . S
U286 O306 2.455 . S
U286 O307 2.449 . S
O287 U286 2.454 . S
O287 C289 1.353 . S
O288 U286 2.458 . S
O288 C289 1.286 . S
C289 U286 2.984 . S
C289 O287 1.353 . S
C289 O288 1.286 . S
C289 C291 1.363 . S
C290 C280 1.465 . S
C290 U286 2.847 . S
C290 O304 1.249 . S
C290 O305 1.202 . S
C291 C289 1.363 . S
C291 C293 1.408 . S
C291 C296 1.342 . S
C292 C293 1.310 . S
C292 C295 1.461 . S
C292 H312 0.932 . S
C293 C291 1.408 . S
C293 C292 1.310 . S
C293 H313 0.930 . S
C294 C295 1.474 . S
C294 C296 1.285 . S
C294 H314 0.929 . S
C295 C292 1.461 . S
C295 C294 1.474 . S
C296 C291 1.342 . S
C296 C294 1.285 . S
C296 H315 0.930 . S
C297 C300 1.424 . S
C297 C302 1.245 . S
C297 C303 1.428 . S
C298 C301 1.260 . S
C298 C302 1.477 . S
C298 H316 0.932 . S
C299 C300 1.384 . S
C299 C301 1.479 . S
C299 H317 0.929 . S
C300 C297 1.424 . S
C300 C299 1.384 . S
C300 H318 0.928 . S
C301 C298 1.260 . S
C301 C299 1.479 . S
C302 C297 1.245 . S
C302 C298 1.477 . S
C302 H319 0.932 . S
C303 U286 2.882 . S
C303 C297 1.428 . S
C303 O306 1.301 . S
C303 O307 1.282 . S
O304 U286 2.441 . S
O304 C290 1.249 . S
O305 U286 2.420 . S
O305 C290 1.202 . S
O306 U286 2.455 . S
O306 C303 1.301 . S
O307 U286 2.449 . S
O307 C303 1.282 . S
H308 C281 0.931 . S
H309 C283 0.929 . S
H310 C284 0.930 . S
H311 C285 0.931 . S
H312 C292 0.932 . S
H313 C293 0.930 . S
H314 C294 0.929 . S
H315 C296 0.930 . S
H316 C298 0.932 . S
H317 C299 0.929 . S
H318 C300 0.928 . S
H319 C302 0.932 . S
C320 C321 1.264 . S
C320 C325 1.479 . S
C320 C330 1.465 . S
C321 C320 1.264 . S
C321 C323 1.339 . S
C321 H348 0.931 . S
C322 C323 1.395 . S
C322 C324 1.320 . S
C323 C321 1.339 . S
C323 C322 1.395 . S
C323 H349 0.929 . S
C324 C322 1.320 . S
C324 C325 1.405 . S
C324 H350 0.930 . S
C325 C320 1.479 . S
C325 C324 1.405 . S
C325 H351 0.931 . S
U326 O327 2.454 . S
U326 O328 2.458 . S
U326 C329 2.984 . S
U326 C330 2.847 . S
U326 C343 2.882 . S
U326 O344 2.441 . S
U326 O345 2.420 . S
U326 O346 2.455 . S
U326 O347 2.449 . S
O327 U326 2.454 . S
O327 C329 1.353 . S
O328 U326 2.458 . S
O328 C329 1.286 . S
C329 U326 2.984 . S
C329 O327 1.353 . S
C329 O328 1.286 . S
C329 C331 1.363 . S
C330 C320 1.465 . S
C330 U326 2.847 . S
C330 O344 1.249 . S
C330 O345 1.202 . S
C331 C329 1.363 . S
C331 C333 1.408 . S
C331 C336 1.342 . S
C332 C333 1.310 . S
C332 C335 1.461 . S
C332 H352 0.932 . S
C333 C331 1.408 . S
C333 C332 1.310 . S
C333 H353 0.930 . S
C334 C335 1.474 . S
C334 C336 1.285 . S
C334 H354 0.929 . S
C335 C332 1.461 . S
C335 C334 1.474 . S
C336 C331 1.342 . S
C336 C334 1.285 . S
C336 H355 0.930 . S
C337 C340 1.424 . S
C337 C342 1.245 . S
C337 C343 1.428 . S
C338 C341 1.260 . S
C338 C342 1.477 . S
C338 H356 0.932 . S
C339 C340 1.384 . S
C339 C341 1.479 . S
C339 H357 0.929 . S
C340 C337 1.424 . S
C340 C339 1.384 . S
C340 H358 0.928 . S
C341 C338 1.260 . S
C341 C339 1.479 . S
C342 C337 1.245 . S
C342 C338 1.477 . S
C342 H359 0.932 . S
C343 U326 2.882 . S
C343 C337 1.428 . S
C343 O346 1.301 . S
C343 O347 1.282 . S
O344 U326 2.441 . S
O344 C330 1.249 . S
O345 U326 2.420 . S
O345 C330 1.202 . S
O346 U326 2.455 . S
O346 C343 1.301 . S
O347 U326 2.449 . S
O347 C343 1.282 . S
H348 C321 0.931 . S
H349 C323 0.929 . S
H350 C324 0.930 . S
H351 C325 0.931 . S
H352 C332 0.932 . S
H353 C333 0.930 . S
H354 C334 0.929 . S
H355 C336 0.930 . S
H356 C338 0.932 . S
H357 C339 0.929 . S
H358 C340 0.928 . S
H359 C342 0.932 . S
C360 C361 1.264 . S
C360 C365 1.479 . S
C360 C370 1.465 . S
C361 C360 1.264 . S
C361 C363 1.339 . S
C361 H388 0.931 . S
C362 C363 1.395 . S
C362 C364 1.320 . S
C363 C361 1.339 . S
C363 C362 1.395 . S
C363 H389 0.929 . S
C364 C362 1.320 . S
C364 C365 1.405 . S
C364 H390 0.930 . S
C365 C360 1.479 . S
C365 C364 1.405 . S
C365 H391 0.931 . S
U366 O367 2.454 . S
U366 O368 2.458 . S
U366 C369 2.984 . S
U366 C370 2.847 . S
U366 C383 2.882 . S
U366 O384 2.441 . S
U366 O385 2.420 . S
U366 O386 2.455 . S
U366 O387 2.449 . S
O367 U366 2.454 . S
O367 C369 1.353 . S
O368 U366 2.458 . S
O368 C369 1.286 . S
C369 U366 2.984 . S
C369 O367 1.353 . S
C369 O368 1.286 . S
C369 C371 1.363 . S
C370 C360 1.465 . S
C370 U366 2.847 . S
C370 O384 1.249 . S
C370 O385 1.202 . S
C371 C369 1.363 . S
C371 C373 1.408 . S
C371 C376 1.342 . S
C372 C373 1.310 . S
C372 C375 1.461 . S
C372 H392 0.932 . S
C373 C371 1.408 . S
C373 C372 1.310 . S
C373 H393 0.930 . S
C374 C375 1.474 . S
C374 C376 1.285 . S
C374 H394 0.929 . S
C375 C372 1.461 . S
C375 C374 1.474 . S
C376 C371 1.342 . S
C376 C374 1.285 . S
C376 H395 0.930 . S
C377 C380 1.424 . S
C377 C382 1.245 . S
C377 C383 1.428 . S
C378 C381 1.260 . S
C378 C382 1.477 . S
C378 H396 0.932 . S
C379 C380 1.384 . S
C379 C381 1.479 . S
C379 H397 0.929 . S
C380 C377 1.424 . S
C380 C379 1.384 . S
C380 H398 0.928 . S
C381 C378 1.260 . S
C381 C379 1.479 . S
C382 C377 1.245 . S
C382 C378 1.477 . S
C382 H399 0.932 . S
C383 U366 2.882 . S
C383 C377 1.428 . S
C383 O386 1.301 . S
C383 O387 1.282 . S
O384 U366 2.441 . S
O384 C370 1.249 . S
O385 U366 2.420 . S
O385 C370 1.202 . S
O386 U366 2.455 . S
O386 C383 1.301 . S
O387 U366 2.449 . S
O387 C383 1.282 . S
H388 C361 0.931 . S
H389 C363 0.929 . S
H390 C364 0.930 . S
H391 C365 0.931 . S
H392 C372 0.932 . S
H393 C373 0.930 . S
H394 C374 0.929 . S
H395 C376 0.930 . S
H396 C378 0.932 . S
H397 C379 0.929 . S
H398 C380 0.928 . S
H399 C382 0.932 . S
C400 C401 1.264 . S
C400 C405 1.479 . S
C400 C410 1.465 . S
C401 C400 1.264 . S
C401 C403 1.339 . S
C401 H428 0.931 . S
C402 C403 1.395 . S
C402 C404 1.320 . S
C403 C401 1.339 . S
C403 C402 1.395 . S
C403 H429 0.929 . S
C404 C402 1.320 . S
C404 C405 1.405 . S
C404 H430 0.930 . S
C405 C400 1.479 . S
C405 C404 1.405 . S
C405 H431 0.931 . S
U406 O407 2.454 . S
U406 O408 2.458 . S
U406 C409 2.984 . S
U406 C410 2.847 . S
U406 C423 2.882 . S
U406 O424 2.441 . S
U406 O425 2.420 . S
U406 O426 2.455 . S
U406 O427 2.449 . S
O407 U406 2.454 . S
O407 C409 1.353 . S
O408 U406 2.458 . S
O408 C409 1.286 . S
C409 U406 2.984 . S
C409 O407 1.353 . S
C409 O408 1.286 . S
C409 C411 1.363 . S
C410 C400 1.465 . S
C410 U406 2.847 . S
C410 O424 1.249 . S
C410 O425 1.202 . S
C411 C409 1.363 . S
C411 C413 1.408 . S
C411 C416 1.342 . S
C412 C413 1.310 . S
C412 C415 1.461 . S
C412 H432 0.932 . S
C413 C411 1.408 . S
C413 C412 1.310 . S
C413 H433 0.930 . S
C414 C415 1.474 . S
C414 C416 1.285 . S
C414 H434 0.929 . S
C415 C412 1.461 . S
C415 C414 1.474 . S
C416 C411 1.342 . S
C416 C414 1.285 . S
C416 H435 0.930 . S
C417 C420 1.424 . S
C417 C422 1.245 . S
C417 C423 1.428 . S
C418 C421 1.260 . S
C418 C422 1.477 . S
C418 H436 0.932 . S
C419 C420 1.384 . S
C419 C421 1.479 . S
C419 H437 0.929 . S
C420 C417 1.424 . S
C420 C419 1.384 . S
C420 H438 0.928 . S
C421 C418 1.260 . S
C421 C419 1.479 . S
C422 C417 1.245 . S
C422 C418 1.477 . S
C422 H439 0.932 . S
C423 U406 2.882 . S
C423 C417 1.428 . S
C423 O426 1.301 . S
C423 O427 1.282 . S
O424 U406 2.441 . S
O424 C410 1.249 . S
O425 U406 2.420 . S
O425 C410 1.202 . S
O426 U406 2.455 . S
O426 C423 1.301 . S
O427 U406 2.449 . S
O427 C423 1.282 . S
H428 C401 0.931 . S
H429 C403 0.929 . S
H430 C404 0.930 . S
H431 C405 0.931 . S
H432 C412 0.932 . S
H433 C413 0.930 . S
H434 C414 0.929 . S
H435 C416 0.930 . S
H436 C418 0.932 . S
H437 C419 0.929 . S
H438 C420 0.928 . S
H439 C422 0.932 . S
C440 C441 1.264 . S
C440 C445 1.479 . S
C440 C450 1.465 . S
C441 C440 1.264 . S
C441 C443 1.339 . S
C441 H468 0.931 . S
C442 C443 1.395 . S
C442 C444 1.320 . S
C443 C441 1.339 . S
C443 C442 1.395 . S
C443 H469 0.929 . S
C444 C442 1.320 . S
C444 C445 1.405 . S
C444 H470 0.930 . S
C445 C440 1.479 . S
C445 C444 1.405 . S
C445 H471 0.931 . S
U446 O447 2.454 . S
U446 O448 2.458 . S
U446 C449 2.984 . S
U446 C450 2.847 . S
U446 C463 2.882 . S
U446 O464 2.441 . S
U446 O465 2.420 . S
U446 O466 2.455 . S
U446 O467 2.449 . S
O447 U446 2.454 . S
O447 C449 1.353 . S
O448 U446 2.458 . S
O448 C449 1.286 . S
C449 U446 2.984 . S
C449 O447 1.353 . S
C449 O448 1.286 . S
C449 C451 1.363 . S
C450 C440 1.465 . S
C450 U446 2.847 . S
C450 O464 1.249 . S
C450 O465 1.202 . S
C451 C449 1.363 . S
C451 C453 1.408 . S
C451 C456 1.342 . S
C452 C453 1.310 . S
C452 C455 1.461 . S
C452 H472 0.932 . S
C453 C451 1.408 . S
C453 C452 1.310 . S
C453 H473 0.930 . S
C454 C455 1.474 . S
C454 C456 1.285 . S
C454 H474 0.929 . S
C455 C452 1.461 . S
C455 C454 1.474 . S
C456 C451 1.342 . S
C456 C454 1.285 . S
C456 H475 0.930 . S
C457 C460 1.424 . S
C457 C462 1.245 . S
C457 C463 1.428 . S
C458 C461 1.260 . S
C458 C462 1.477 . S
C458 H476 0.932 . S
C459 C460 1.384 . S
C459 C461 1.479 . S
C459 H477 0.929 . S
C460 C457 1.424 . S
C460 C459 1.384 . S
C460 H478 0.928 . S
C461 C458 1.260 . S
C461 C459 1.479 . S
C462 C457 1.245 . S
C462 C458 1.477 . S
C462 H479 0.932 . S
C463 U446 2.882 . S
C463 C457 1.428 . S
C463 O466 1.301 . S
C463 O467 1.282 . S
O464 U446 2.441 . S
O464 C450 1.249 . S
O465 U446 2.420 . S
O465 C450 1.202 . S
O466 U446 2.455 . S
O466 C463 1.301 . S
O467 U446 2.449 . S
O467 C463 1.282 . S
H468 C441 0.931 . S
H469 C443 0.929 . S
H470 C444 0.930 . S
H471 C445 0.931 . S
H472 C452 0.932 . S
H473 C453 0.930 . S
H474 C454 0.929 . S
H475 C456 0.930 . S
H476 C458 0.932 . S
H477 C459 0.929 . S
H478 C460 0.928 . S
H479 C462 0.932 . S
C480 C481 1.264 . S
C480 C485 1.479 . S
C480 C490 1.465 . S
C481 C480 1.264 . S
C481 C483 1.339 . S
C481 H508 0.931 . S
C482 C483 1.395 . S
C482 C484 1.320 . S
C483 C481 1.339 . S
C483 C482 1.395 . S
C483 H509 0.929 . S
C484 C482 1.320 . S
C484 C485 1.405 . S
C484 H510 0.930 . S
C485 C480 1.479 . S
C485 C484 1.405 . S
C485 H511 0.931 . S
U486 O487 2.454 . S
U486 O488 2.458 . S
U486 C489 2.984 . S
U486 C490 2.847 . S
U486 C503 2.882 . S
U486 O504 2.441 . S
U486 O505 2.420 . S
U486 O506 2.455 . S
U486 O507 2.449 . S
O487 U486 2.454 . S
O487 C489 1.353 . S
O488 U486 2.458 . S
O488 C489 1.286 . S
C489 U486 2.984 . S
C489 O487 1.353 . S
C489 O488 1.286 . S
C489 C491 1.363 . S
C490 C480 1.465 . S
C490 U486 2.847 . S
C490 O504 1.249 . S
C490 O505 1.202 . S
C491 C489 1.363 . S
C491 C493 1.408 . S
C491 C496 1.342 . S
C492 C493 1.310 . S
C492 C495 1.461 . S
C492 H512 0.932 . S
C493 C491 1.408 . S
C493 C492 1.310 . S
C493 H513 0.930 . S
C494 C495 1.474 . S
C494 C496 1.285 . S
C494 H514 0.929 . S
C495 C492 1.461 . S
C495 C494 1.474 . S
C496 C491 1.342 . S
C496 C494 1.285 . S
C496 H515 0.930 . S
C497 C500 1.424 . S
C497 C502 1.245 . S
C497 C503 1.428 . S
C498 C501 1.260 . S
C498 C502 1.477 . S
C498 H516 0.932 . S
C499 C500 1.384 . S
C499 C501 1.479 . S
C499 H517 0.929 . S
C500 C497 1.424 . S
C500 C499 1.384 . S
C500 H518 0.928 . S
C501 C498 1.260 . S
C501 C499 1.479 . S
C502 C497 1.245 . S
C502 C498 1.477 . S
C502 H519 0.932 . S
C503 U486 2.882 . S
C503 C497 1.428 . S
C503 O506 1.301 . S
C503 O507 1.282 . S
O504 U486 2.441 . S
O504 C490 1.249 . S
O505 U486 2.420 . S
O505 C490 1.202 . S
O506 U486 2.455 . S
O506 C503 1.301 . S
O507 U486 2.449 . S
O507 C503 1.282 . S
H508 C481 0.931 . S
H509 C483 0.929 . S
H510 C484 0.930 . S
H511 C485 0.931 . S
H512 C492 0.932 . S
H513 C493 0.930 . S
H514 C494 0.929 . S
H515 C496 0.930 . S
H516 C498 0.932 . S
H517 C499 0.929 . S
H518 C500 0.928 . S
H519 C502 0.932 . S
C520 C521 1.264 . S
C520 C525 1.479 . S
C520 C530 1.465 . S
C521 C520 1.264 . S
C521 C523 1.339 . S
C521 H548 0.931 . S
C522 C523 1.395 . S
C522 C524 1.320 . S
C523 C521 1.339 . S
C523 C522 1.395 . S
C523 H549 0.929 . S
C524 C522 1.320 . S
C524 C525 1.405 . S
C524 H550 0.930 . S
C525 C520 1.479 . S
C525 C524 1.405 . S
C525 H551 0.931 . S
U526 O527 2.454 . S
U526 O528 2.458 . S
U526 C529 2.984 . S
U526 C530 2.847 . S
U526 C543 2.882 . S
U526 O544 2.441 . S
U526 O545 2.420 . S
U526 O546 2.455 . S
U526 O547 2.449 . S
O527 U526 2.454 . S
O527 C529 1.353 . S
O528 U526 2.458 . S
O528 C529 1.286 . S
C529 U526 2.984 . S
C529 O527 1.353 . S
C529 O528 1.286 . S
C529 C531 1.363 . S
C530 C520 1.465 . S
C530 U526 2.847 . S
C530 O544 1.249 . S
C530 O545 1.202 . S
C531 C529 1.363 . S
C531 C533 1.408 . S
C531 C536 1.342 . S
C532 C533 1.310 . S
C532 C535 1.461 . S
C532 H552 0.932 . S
C533 C531 1.408 . S
C533 C532 1.310 . S
C533 H553 0.930 . S
C534 C535 1.474 . S
C534 C536 1.285 . S
C534 H554 0.929 . S
C535 C532 1.461 . S
C535 C534 1.474 . S
C536 C531 1.342 . S
C536 C534 1.285 . S
C536 H555 0.930 . S
C537 C540 1.424 . S
C537 C542 1.245 . S
C537 C543 1.428 . S
C538 C541 1.260 . S
C538 C542 1.477 . S
C538 H556 0.932 . S
C539 C540 1.384 . S
C539 C541 1.479 . S
C539 H557 0.929 . S
C540 C537 1.424 . S
C540 C539 1.384 . S
C540 H558 0.928 . S
C541 C538 1.260 . S
C541 C539 1.479 . S
C542 C537 1.245 . S
C542 C538 1.477 . S
C542 H559 0.932 . S
C543 U526 2.882 . S
C543 C537 1.428 . S
C543 O546 1.301 . S
C543 O547 1.282 . S
O544 U526 2.441 . S
O544 C530 1.249 . S
O545 U526 2.420 . S
O545 C530 1.202 . S
O546 U526 2.455 . S
O546 C543 1.301 . S
O547 U526 2.449 . S
O547 C543 1.282 . S
H548 C521 0.931 . S
H549 C523 0.929 . S
H550 C524 0.930 . S
H551 C525 0.931 . S
H552 C532 0.932 . S
H553 C533 0.930 . S
H554 C534 0.929 . S
H555 C536 0.930 . S
H556 C538 0.932 . S
H557 C539 0.929 . S
H558 C540 0.928 . S
H559 C542 0.932 . S
C560 C561 1.264 . S
C560 C565 1.479 . S
C560 C570 1.465 . S
C561 C560 1.264 . S
C561 C563 1.339 . S
C561 H588 0.931 . S
C562 C563 1.395 . S
C562 C564 1.320 . S
C563 C561 1.339 . S
C563 C562 1.395 . S
C563 H589 0.929 . S
C564 C562 1.320 . S
C564 C565 1.405 . S
C564 H590 0.930 . S
C565 C560 1.479 . S
C565 C564 1.405 . S
C565 H591 0.931 . S
U566 O567 2.454 . S
U566 O568 2.458 . S
U566 C569 2.984 . S
U566 C570 2.847 . S
U566 C583 2.882 . S
U566 O584 2.441 . S
U566 O585 2.420 . S
U566 O586 2.455 . S
U566 O587 2.449 . S
O567 U566 2.454 . S
O567 C569 1.353 . S
O568 U566 2.458 . S
O568 C569 1.286 . S
C569 U566 2.984 . S
C569 O567 1.353 . S
C569 O568 1.286 . S
C569 C571 1.363 . S
C570 C560 1.465 . S
C570 U566 2.847 . S
C570 O584 1.249 . S
C570 O585 1.202 . S
C571 C569 1.363 . S
C571 C573 1.408 . S
C571 C576 1.342 . S
C572 C573 1.310 . S
C572 C575 1.461 . S
C572 H592 0.932 . S
C573 C571 1.408 . S
C573 C572 1.310 . S
C573 H593 0.930 . S
C574 C575 1.474 . S
C574 C576 1.285 . S
C574 H594 0.929 . S
C575 C572 1.461 . S
C575 C574 1.474 . S
C576 C571 1.342 . S
C576 C574 1.285 . S
C576 H595 0.930 . S
C577 C580 1.424 . S
C577 C582 1.245 . S
C577 C583 1.428 . S
C578 C581 1.260 . S
C578 C582 1.477 . S
C578 H596 0.932 . S
C579 C580 1.384 . S
C579 C581 1.479 . S
C579 H597 0.929 . S
C580 C577 1.424 . S
C580 C579 1.384 . S
C580 H598 0.928 . S
C581 C578 1.260 . S
C581 C579 1.479 . S
C582 C577 1.245 . S
C582 C578 1.477 . S
C582 H599 0.932 . S
C583 U566 2.882 . S
C583 C577 1.428 . S
C583 O586 1.301 . S
C583 O587 1.282 . S
O584 U566 2.441 . S
O584 C570 1.249 . S
O585 U566 2.420 . S
O585 C570 1.202 . S
O586 U566 2.455 . S
O586 C583 1.301 . S
O587 U566 2.449 . S
O587 C583 1.282 . S
H588 C561 0.931 . S
H589 C563 0.929 . S
H590 C564 0.930 . S
H591 C565 0.931 . S
H592 C572 0.932 . S
H593 C573 0.930 . S
H594 C574 0.929 . S
H595 C576 0.930 . S
H596 C578 0.932 . S
H597 C579 0.929 . S
H598 C580 0.928 . S
H599 C582 0.932 . S
C600 C601 1.264 . S
C600 C605 1.479 . S
C600 C610 1.465 . S
C601 C600 1.264 . S
C601 C603 1.339 . S
C601 H628 0.931 . S
C602 C603 1.395 . S
C602 C604 1.320 . S
C603 C601 1.339 . S
C603 C602 1.395 . S
C603 H629 0.929 . S
C604 C602 1.320 . S
C604 C605 1.405 . S
C604 H630 0.930 . S
C605 C600 1.479 . S
C605 C604 1.405 . S
C605 H631 0.931 . S
U606 O607 2.454 . S
U606 O608 2.458 . S
U606 C609 2.984 . S
U606 C610 2.847 . S
U606 C623 2.882 . S
U606 O624 2.441 . S
U606 O625 2.420 . S
U606 O626 2.455 . S
U606 O627 2.449 . S
O607 U606 2.454 . S
O607 C609 1.353 . S
O608 U606 2.458 . S
O608 C609 1.286 . S
C609 U606 2.984 . S
C609 O607 1.353 . S
C609 O608 1.286 . S
C609 C611 1.363 . S
C610 C600 1.465 . S
C610 U606 2.847 . S
C610 O624 1.249 . S
C610 O625 1.202 . S
C611 C609 1.363 . S
C611 C613 1.408 . S
C611 C616 1.342 . S
C612 C613 1.310 . S
C612 C615 1.461 . S
C612 H632 0.932 . S
C613 C611 1.408 . S
C613 C612 1.310 . S
C613 H633 0.930 . S
C614 C615 1.474 . S
C614 C616 1.285 . S
C614 H634 0.929 . S
C615 C612 1.461 . S
C615 C614 1.474 . S
C616 C611 1.342 . S
C616 C614 1.285 . S
C616 H635 0.930 . S
C617 C620 1.424 . S
C617 C622 1.245 . S
C617 C623 1.428 . S
C618 C621 1.260 . S
C618 C622 1.477 . S
C618 H636 0.932 . S
C619 C620 1.384 . S
C619 C621 1.479 . S
C619 H637 0.929 . S
C620 C617 1.424 . S
C620 C619 1.384 . S
C620 H638 0.928 . S
C621 C618 1.260 . S
C621 C619 1.479 . S
C622 C617 1.245 . S
C622 C618 1.477 . S
C622 H639 0.932 . S
C623 U606 2.882 . S
C623 C617 1.428 . S
C623 O626 1.301 . S
C623 O627 1.282 . S
O624 U606 2.441 . S
O624 C610 1.249 . S
O625 U606 2.420 . S
O625 C610 1.202 . S
O626 U606 2.455 . S
O626 C623 1.301 . S
O627 U606 2.449 . S
O627 C623 1.282 . S
H628 C601 0.931 . S
H629 C603 0.929 . S
H630 C604 0.930 . S
H631 C605 0.931 . S
H632 C612 0.932 . S
H633 C613 0.930 . S
H634 C614 0.929 . S
H635 C616 0.930 . S
H636 C618 0.932 . S
H637 C619 0.929 . S
H638 C620 0.928 . S
H639 C622 0.932 . S
C640 C641 1.264 . S
C640 C645 1.479 . S
C640 C650 1.465 . S
C641 C640 1.264 . S
C641 C643 1.339 . S
C641 H668 0.931 . S
C642 C643 1.395 . S
C642 C644 1.320 . S
C643 C641 1.339 . S
C643 C642 1.395 . S
C643 H669 0.929 . S
C644 C642 1.320 . S
C644 C645 1.405 . S
C644 H670 0.930 . S
C645 C640 1.479 . S
C645 C644 1.405 . S
C645 H671 0.931 . S
U646 O647 2.454 . S
U646 O648 2.458 . S
U646 C649 2.984 . S
U646 C650 2.847 . S
U646 C663 2.882 . S
U646 O664 2.441 . S
U646 O665 2.420 . S
U646 O666 2.455 . S
U646 O667 2.449 . S
O647 U646 2.454 . S
O647 C649 1.353 . S
O648 U646 2.458 . S
O648 C649 1.286 . S
C649 U646 2.984 . S
C649 O647 1.353 . S
C649 O648 1.286 . S
C649 C651 1.363 . S
C650 C640 1.465 . S
C650 U646 2.847 . S
C650 O664 1.249 . S
C650 O665 1.202 . S
C651 C649 1.363 . S
C651 C653 1.408 . S
C651 C656 1.342 . S
C652 C653 1.310 . S
C652 C655 1.461 . S
C652 H672 0.932 . S
C653 C651 1.408 . S
C653 C652 1.310 . S
C653 H673 0.930 . S
C654 C655 1.474 . S
C654 C656 1.285 . S
C654 H674 0.929 . S
C655 C652 1.461 . S
C655 C654 1.474 . S
C656 C651 1.342 . S
C656 C654 1.285 . S
C656 H675 0.930 . S
C657 C660 1.424 . S
C657 C662 1.245 . S
C657 C663 1.428 . S
C658 C661 1.260 . S
C658 C662 1.477 . S
C658 H676 0.932 . S
C659 C660 1.384 . S
C659 C661 1.479 . S
C659 H677 0.929 . S
C660 C657 1.424 . S
C660 C659 1.384 . S
C660 H678 0.928 . S
C661 C658 1.260 . S
C661 C659 1.479 . S
C662 C657 1.245 . S
C662 C658 1.477 . S
C662 H679 0.932 . S
C663 U646 2.882 . S
C663 C657 1.428 . S
C663 O666 1.301 . S
C663 O667 1.282 . S
O664 U646 2.441 . S
O664 C650 1.249 . S
O665 U646 2.420 . S
O665 C650 1.202 . S
O666 U646 2.455 . S
O666 C663 1.301 . S
O667 U646 2.449 . S
O667 C663 1.282 . S
H668 C641 0.931 . S
H669 C643 0.929 . S
H670 C644 0.930 . S
H671 C645 0.931 . S
H672 C652 0.932 . S
H673 C653 0.930 . S
H674 C654 0.929 . S
H675 C656 0.930 . S
H676 C658 0.932 . S
H677 C659 0.929 . S
H678 C660 0.928 . S
H679 C662 0.932 . S
C680 C681 1.264 . S
C680 C685 1.479 . S
C680 C690 1.465 . S
C681 C680 1.264 . S
C681 C683 1.339 . S
C681 H708 0.931 . S
C682 C683 1.395 . S
C682 C684 1.320 . S
C683 C681 1.339 . S
C683 C682 1.395 . S
C683 H709 0.929 . S
C684 C682 1.320 . S
C684 C685 1.405 . S
C684 H710 0.930 . S
C685 C680 1.479 . S
C685 C684 1.405 . S
C685 H711 0.931 . S
U686 O687 2.454 . S
U686 O688 2.458 . S
U686 C689 2.984 . S
U686 C690 2.847 . S
U686 C703 2.882 . S
U686 O704 2.441 . S
U686 O705 2.420 . S
U686 O706 2.455 . S
U686 O707 2.449 . S
O687 U686 2.454 . S
O687 C689 1.353 . S
O688 U686 2.458 . S
O688 C689 1.286 . S
C689 U686 2.984 . S
C689 O687 1.353 . S
C689 O688 1.286 . S
C689 C691 1.363 . S
C690 C680 1.465 . S
C690 U686 2.847 . S
C690 O704 1.249 . S
C690 O705 1.202 . S
C691 C689 1.363 . S
C691 C693 1.408 . S
C691 C696 1.342 . S
C692 C693 1.310 . S
C692 C695 1.461 . S
C692 H712 0.932 . S
C693 C691 1.408 . S
C693 C692 1.310 . S
C693 H713 0.930 . S
C694 C695 1.474 . S
C694 C696 1.285 . S
C694 H714 0.929 . S
C695 C692 1.461 . S
C695 C694 1.474 . S
C696 C691 1.342 . S
C696 C694 1.285 . S
C696 H715 0.930 . S
C697 C700 1.424 . S
C697 C702 1.245 . S
C697 C703 1.428 . S
C698 C701 1.260 . S
C698 C702 1.477 . S
C698 H716 0.932 . S
C699 C700 1.384 . S
C699 C701 1.479 . S
C699 H717 0.929 . S
C700 C697 1.424 . S
C700 C699 1.384 . S
C700 H718 0.928 . S
C701 C698 1.260 . S
C701 C699 1.479 . S
C702 C697 1.245 . S
C702 C698 1.477 . S
C702 H719 0.932 . S
C703 U686 2.882 . S
C703 C697 1.428 . S
C703 O706 1.301 . S
C703 O707 1.282 . S
O704 U686 2.441 . S
O704 C690 1.249 . S
O705 U686 2.420 . S
O705 C690 1.202 . S
O706 U686 2.455 . S
O706 C703 1.301 . S
O707 U686 2.449 . S
O707 C703 1.282 . S
H708 C681 0.931 . S
H709 C683 0.929 . S
H710 C684 0.930 . S
H711 C685 0.931 . S
H712 C692 0.932 . S
H713 C693 0.930 . S
H714 C694 0.929 . S
H715 C696 0.930 . S
H716 C698 0.932 . S
H717 C699 0.929 . S
H718 C700 0.928 . S
H719 C702 0.932 . S
C720 C721 1.349 . S
C720 C722 1.327 . S
C720 H745 0.950 . S
C721 C720 1.349 . S
C721 C737 1.349 1_554 S
C722 C720 1.327 . S
C722 C741 1.429 1_554 S
C722 H746 0.950 . S
C723 C740 1.574 1_545 S
C723 C742 1.368 . S
C723 H747 0.949 . S
H724 C728 0.949 . S
C725 C726 1.349 . S
C725 C727 1.327 . S
C725 H748 0.950 . S
C726 C725 1.349 . S
C726 C738 1.349 1_556 S
C727 C725 1.327 . S
C727 C743 1.429 . S
C727 H749 0.950 . S
C728 H724 0.949 . S
C728 C736 1.574 1_565 S
C728 C744 1.368 1_554 S
H729 C737 0.950 . S
H730 C735 0.950 . S
H731 C736 0.949 . S
H732 C738 0.950 . S
H733 C739 0.950 . S
H734 C740 0.949 . S
C735 H730 0.950 . S
C735 C737 1.327 . S
C735 C741 1.429 . S
C736 C728 1.574 1_545 S
C736 H731 0.949 . S
C736 C742 1.368 1_554 S
C737 C721 1.349 1_556 S
C737 H729 0.950 . S
C737 C735 1.327 . S
C738 C726 1.349 1_554 S
C738 H732 0.950 . S
C738 C739 1.327 . S
C739 H733 0.950 . S
C739 C738 1.327 . S
C739 C743 1.429 1_554 S
C740 C723 1.574 1_565 S
C740 H734 0.949 . S
C740 C744 1.368 . S
C741 C722 1.429 1_556 S
C741 C735 1.429 . S
C741 C742 1.523 . S
C742 C723 1.368 . S
C742 C736 1.368 1_556 S
C742 C741 1.523 . S
C743 C727 1.429 . S
C743 C739 1.429 1_556 S
C743 C744 1.523 . S
C744 C728 1.368 1_556 S
C744 C740 1.368 . S
C744 C743 1.523 . S
H745 C720 0.950 . S
H746 C722 0.950 . S
H747 C723 0.949 . S
H748 C725 0.950 . S
H749 C727 0.950 . S
C750 C751 1.349 . S
C750 C752 1.327 . S
C750 H775 0.950 . S
C751 C750 1.349 . S
C751 C767 1.349 . S
C752 C750 1.327 . S
C752 C771 1.429 . S
C752 H776 0.950 . S
C753 C770 1.574 1_654 S
C753 C772 1.368 . S
C753 H777 0.949 1_554 S
H754 C758 0.949 . S
C755 C756 1.349 1_556 S
C755 C757 1.327 . S
C755 H778 0.950 . S
C756 C755 1.349 1_554 S
C756 C768 1.349 . S
C757 C755 1.327 . S
C757 C773 1.429 1_556 S
C757 H779 0.950 . S
C758 H754 0.949 . S
C758 C766 1.574 1_455 S
C758 C774 1.368 . S
H759 C767 0.950 . S
H760 C765 0.950 1_556 S
H761 C766 0.949 . S
H762 C768 0.950 . S
H763 C769 0.950 . S
H764 C770 0.949 . S
C765 H760 0.950 1_554 S
C765 C767 1.327 . S
C765 C771 1.429 . S
C766 C758 1.574 1_655 S
C766 H761 0.949 . S
C766 C772 1.368 . S
C767 C751 1.349 . S
C767 H759 0.950 . S
C767 C765 1.327 . S
C768 C756 1.349 . S
C768 H762 0.950 . S
C768 C769 1.327 . S
C769 H763 0.950 . S
C769 C768 1.327 . S
C769 C773 1.429 . S
C770 C753 1.574 1_456 S
C770 H764 0.949 . S
C770 C774 1.368 1_556 S
C771 C752 1.429 . S
C771 C765 1.429 . S
C771 C772 1.523 . S
C772 C753 1.368 . S
C772 C766 1.368 . S
C772 C771 1.523 . S
C773 C757 1.429 1_554 S
C773 C769 1.429 . S
C773 C774 1.523 . S
C774 C758 1.368 . S
C774 C770 1.368 1_554 S
C774 C773 1.523 . S
H775 C750 0.950 . S
H776 C752 0.950 . S
H777 C753 0.949 1_556 S
H778 C755 0.950 . S
H779 C757 0.950 . S
C780 C781 1.349 1_554 S
C780 C782 1.327 . S
C780 H805 0.950 . S
C781 C780 1.349 1_556 S
C781 C797 1.349 . S
C782 C780 1.327 . S
C782 C801 1.429 1_554 S
C782 H806 0.950 . S
C783 C800 1.574 . S
C783 C802 1.368 . S
C783 H807 0.949 . S
H784 C788 0.949 1_554 S
C785 C786 1.349 . S
C785 C787 1.327 . S
C785 H808 0.950 . S
C786 C785 1.349 . S
C786 C798 1.349 . S
C787 C785 1.327 . S
C787 C803 1.429 . S
C787 H809 0.950 . S
C788 H784 0.949 1_556 S
C788 C796 1.570 1_556 S
C788 C804 1.368 . S
H789 C797 0.950 . S
H790 C795 0.950 . S
H791 C796 0.967 . S
H792 C798 0.950 . S
H793 C799 0.940 1_554 S
H794 C800 0.949 . S
C795 H790 0.950 . S
C795 C797 1.327 . S
C795 C801 1.429 . S
C796 C788 1.570 1_554 S
C796 H791 0.967 . S
C796 C802 1.353 1_554 S
C797 C781 1.349 . S
C797 H789 0.950 . S
C797 C795 1.327 . S
C798 C786 1.349 . S
C798 H792 0.950 . S
C798 C799 1.327 . S
C799 H793 0.940 1_556 S
C799 C798 1.327 . S
C799 C803 1.429 . S
C800 C783 1.574 . S
C800 H794 0.949 . S
C800 C804 1.368 . S
C801 C782 1.429 1_556 S
C801 C795 1.429 . S
C801 C802 1.523 . S
C802 C783 1.368 . S
C802 C796 1.353 1_556 S
C802 C801 1.523 . S
C803 C787 1.429 . S
C803 C799 1.429 . S
C803 C804 1.523 . S
C804 C788 1.368 . S
C804 C800 1.368 . S
C804 C803 1.523 . S
H805 C780 0.950 . S
H806 C782 0.950 . S
H807 C783 0.949 . S
H808 C785 0.950 . S
H809 C787 0.950 . S
C810 C811 1.349 . S
C810 C812 1.327 . S
C810 H835 0.950 . S
C811 C810 1.349 . S
C811 C827 1.349 . S
C812 C810 1.327 . S
C812 C831 1.429 . S
C812 H836 0.950 . S
C813 C830 1.574 1_545 S
C813 C832 1.368 1_556 S
C813 H837 0.949 . S
H814 C818 0.949 . S
C815 C816 1.349 . S
C815 C817 1.327 . S
C815 H838 0.950 . S
C816 C815 1.349 . S
C816 C828 1.349 . S
C817 C815 1.327 . S
C817 C833 1.429 . S
C817 H839 0.950 . S
C818 H814 0.949 . S
C818 C826 1.574 1_565 S
C818 C834 1.384 . S
H819 C827 0.950 . S
H820 C825 0.950 1_556 S
H821 C826 0.949 . S
H822 C828 0.950 1_554 S
H823 C829 0.950 . S
H824 C830 0.949 . S
C825 H820 0.950 1_554 S
C825 C827 1.327 . S
C825 C831 1.429 . S
C826 C818 1.574 1_545 S
C826 H821 0.949 . S
C826 C832 1.368 . S
C827 C811 1.349 . S
C827 H819 0.950 . S
C827 C825 1.327 . S
C828 C816 1.349 . S
C828 H822 0.950 1_556 S
C828 C829 1.327 1_556 S
C829 H823 0.950 . S
C829 C828 1.327 1_554 S
C829 C833 1.429 1_554 S
C830 C813 1.574 1_565 S
C830 H824 0.949 . S
C830 C834 1.357 1_556 S
C831 C812 1.429 . S
C831 C825 1.429 . S
C831 C832 1.523 . S
C832 C813 1.368 1_554 S
C832 C826 1.368 . S
C832 C831 1.523 . S
C833 C817 1.429 . S
C833 C829 1.429 1_556 S
C833 C834 1.518 1_556 S
C834 C818 1.384 . S
C834 C830 1.357 1_554 S
C834 C833 1.518 1_554 S
H835 C810 0.950 . S
H836 C812 0.950 . S
H837 C813 0.949 . S
H838 C815 0.950 . S
H839 C817 0.950 . S
C840 C841 1.349 1_554 S
C840 C842 1.327 . S
C840 H865 0.950 . S
C841 C840 1.349 1_556 S
C841 C857 1.349 . S
C842 C840 1.327 . S
C842 C861 1.429 1_554 S
C842 H866 0.950 . S
C843 C860 1.574 1_455 S
C843 C862 1.368 . S
C843 H867 0.949 . S
H844 C848 0.949 . S
C845 C846 1.349 1_556 S
C845 C847 1.327 . S
C845 H868 0.950 . S
C846 C845 1.349 1_554 S
C846 C858 1.349 . S
C847 C845 1.327 . S
C847 C863 1.429 . S
C847 H869 0.950 . S
C848 H844 0.949 . S
C848 C856 1.574 1_655 S
C848 C864 1.368 1_554 S
H849 C857 0.950 . S
H850 C855 0.950 . S
H851 C856 0.949 . S
H852 C858 0.950 . S
H853 C859 0.950 . S
H854 C860 0.949 . S
C855 H850 0.950 . S
C855 C857 1.327 . S
C855 C861 1.429 . S
C856 C848 1.574 1_455 S
C856 H851 0.949 . S
C856 C862 1.368 1_554 S
C857 C841 1.349 . S
C857 H849 0.950 . S
C857 C855 1.327 . S
C858 C846 1.349 . S
C858 H852 0.950 . S
C858 C859 1.327 . S
C859 H853 0.950 . S
C859 C858 1.327 . S
C859 C863 1.429 1_554 S
C860 C843 1.574 1_655 S
C860 H854 0.949 . S
C860 C864 1.368 . S
C861 C842 1.429 1_556 S
C861 C855 1.429 . S
C861 C862 1.523 . S
C862 C843 1.368 . S
C862 C856 1.368 1_556 S
C862 C861 1.523 . S
C863 C847 1.429 . S
C863 C859 1.429 1_556 S
C863 C864 1.523 . S
C864 C848 1.368 1_556 S
C864 C860 1.368 . S
C864 C863 1.523 . S
H865 C840 0.950 . S
H866 C842 0.950 . S
H867 C843 0.949 . S
H868 C845 0.950 . S
H869 C847 0.950 . S
C870 C871 1.349 . S
C870 C872 1.327 . S
C870 H895 0.950 . S
C871 C870 1.349 . S
C871 C887 1.349 1_554 S
C872 C870 1.327 . S
C872 C891 1.416 1_554 S
C872 H896 0.950 . S
C873 C890 1.574 . S
C873 C892 1.368 . S
C873 H897 0.949 . S
H874 C878 0.949 . S
C875 C876 1.349 . S
C875 C877 1.327 . S
C875 H898 0.950 . S
C876 C875 1.349 . S
C876 C888 1.349 1_556 S
C877 C875 1.327 . S
C877 C893 1.429 . S
C877 H899 0.950 . S
C878 H874 0.949 . S
C878 C886 1.574 . S
C878 C894 1.368 1_554 S
H879 C887 0.950 . S
H880 C885 0.950 . S
H881 C886 0.949 . S
H882 C888 0.950 . S
H883 C889 0.950 . S
H884 C890 0.949 . S
C885 H880 0.950 . S
C885 C887 1.327 . S
C885 C891 1.440 . S
C886 C878 1.574 . S
C886 H881 0.949 . S
C886 C892 1.368 1_554 S
C887 C871 1.349 1_556 S
C887 H879 0.950 . S
C887 C885 1.327 . S
C888 C876 1.349 1_554 S
C888 H882 0.950 . S
C888 C889 1.327 . S
C889 H883 0.950 . S
C889 C888 1.327 . S
C889 C893 1.429 1_554 S
C890 C873 1.574 . S
C890 H884 0.949 . S
C890 C894 1.368 . S
C891 C872 1.416 1_556 S
C891 C885 1.440 . S
C891 C892 1.524 . S
C892 C873 1.368 . S
C892 C886 1.368 1_556 S
C892 C891 1.524 . S
C893 C877 1.429 . S
C893 C889 1.429 1_556 S
C893 C894 1.523 . S
C894 C878 1.368 1_556 S
C894 C890 1.368 . S
C894 C893 1.523 . S
H895 C870 0.950 . S
H896 C872 0.950 . S
H897 C873 0.949 . S
H898 C875 0.950 . S
H899 C877 0.950 . S
C900 C901 1.349 . S
C900 C902 1.327 . S
C900 H925 0.950 . S
C901 C900 1.349 . S
C901 C917 1.349 . S
C902 C900 1.327 . S
C902 C921 1.429 . S
C902 H926 0.950 . S
C903 C920 1.574 . S
C903 C922 1.368 . S
C903 H927 0.949 . S
H904 C908 0.949 . S
C905 C906 1.349 . S
C905 C907 1.327 . S
C905 H928 0.950 . S
C906 C905 1.349 . S
C906 C918 1.349 . S
C907 C905 1.327 . S
C907 C923 1.429 . S
C907 H929 0.950 . S
C908 H904 0.949 . S
C908 C916 1.574 . S
C908 C924 1.368 . S
H909 C917 0.950 . S
H910 C915 0.950 . S
H911 C916 0.949 . S
H912 C918 0.950 . S
H913 C919 0.950 . S
H914 C920 0.949 . S
C915 H910 0.950 . S
C915 C917 1.327 . S
C915 C921 1.429 . S
C916 C908 1.574 . S
C916 H911 0.949 . S
C916 C922 1.368 . S
C917 C901 1.349 . S
C917 H909 0.950 . S
C917 C915 1.327 . S
C918 C906 1.349 . S
C918 H912 0.950 . S
C918 C919 1.327 . S
C919 H913 0.950 . S
C919 C918 1.327 . S
C919 C923 1.429 . S
C920 C903 1.574 . S
C920 H914 0.949 . S
C920 C924 1.368 . S
C921 C902 1.429 . S
C921 C915 1.429 . S
C921 C922 1.523 . S
C922 C903 1.368 . S
C922 C916 1.368 . S
C922 C921 1.523 . S
C923 C907 1.429 . S
C923 C919 1.429 . S
C923 C924 1.523 . S
C924 C908 1.368 . S
C924 C920 1.368 . S
C924 C923 1.523 . S
H925 C900 0.950 . S
H926 C902 0.950 . S
H927 C903 0.949 . S
H928 C905 0.950 . S
H929 C907 0.950 . S
C930 C931 1.349 . S
C930 C932 1.327 . S
C930 H955 0.950 . S
C931 C930 1.349 . S
C931 C947 1.349 . S
C932 C930 1.327 . S
C932 C951 1.429 . S
C932 H956 0.950 . S
C933 C950 1.574 . S
C933 C952 1.368 . S
C933 H957 0.949 . S
H934 C938 0.949 . S
C935 C936 1.349 . S
C935 C937 1.327 . S
C935 H958 0.950 . S
C936 C935 1.349 . S
C936 C948 1.349 . S
C937 C935 1.327 . S
C937 C953 1.429 . S
C937 H959 0.950 . S
C938 H934 0.949 . S
C938 C946 1.574 . S
C938 C954 1.368 . S
H939 C947 0.950 . S
H940 C945 0.950 . S
H941 C946 0.949 . S
H942 C948 0.950 . S
H943 C949 0.950 . S
H944 C950 0.949 . S
C945 H940 0.950 . S
C945 C947 1.327 . S
C945 C951 1.429 . S
C946 C938 1.574 . S
C946 H941 0.949 . S
C946 C952 1.368 . S
C947 C931 1.349 . S
C947 H939 0.950 . S
C947 C945 1.327 . S
C948 C936 1.349 . S
C948 H942 0.950 . S
C948 C949 1.327 . S
C949 H943 0.950 . S
C949 C948 1.327 . S
C949 C953 1.429 . S
C950 C933 1.574 . S
C950 H944 0.949 . S
C950 C954 1.368 . S
C951 C932 1.429 . S
C951 C945 1.429 . S
C951 C952 1.523 . S
C952 C933 1.368 . S
C952 C946 1.368 . S
C952 C951 1.523 . S
C953 C937 1.429 . S
C953 C949 1.429 . S
C953 C954 1.523 . S
C954 C938 1.368 . S
C954 C950 1.368 . S
C954 C953 1.523 . S
H955 C930 0.950 . S
H956 C932 0.950 . S
H957 C933 0.949 . S
H958 C935 0.950 . S
H959 C937 0.950 . S
C960 C961 1.349 . S
C960 C962 1.327 . S
C960 H985 0.950 . S
C961 C960 1.349 . S
C961 C977 1.349 . S
C962 C960 1.327 . S
C962 C981 1.429 . S
C962 H986 0.950 . S
C963 C980 1.574 . S
C963 C982 1.368 . S
C963 H987 0.949 . S
H964 C968 0.949 . S
C965 C966 1.349 . S
C965 C967 1.327 . S
C965 H988 0.950 . S
C966 C965 1.349 . S
C966 C978 1.349 . S
C967 C965 1.327 . S
C967 C983 1.429 . S
C967 H989 0.950 . S
C968 H964 0.949 . S
C968 C976 1.574 . S
C968 C984 1.368 . S
H969 C977 0.950 . S
H970 C975 0.950 . S
H971 C976 0.949 . S
H972 C978 0.950 . S
H973 C979 0.950 . S
H974 C980 0.949 . S
C975 H970 0.950 . S
C975 C977 1.327 . S
C975 C981 1.429 . S
C976 C968 1.574 . S
C976 H971 0.949 . S
C976 C982 1.368 . S
C977 C961 1.349 . S
C977 H969 0.950 . S
C977 C975 1.327 . S
C978 C966 1.349 . S
C978 H972 0.950 . S
C978 C979 1.327 . S
C979 H973 0.950 . S
C979 C978 1.327 . S
C979 C983 1.429 . S
C980 C963 1.574 . S
C980 H974 0.949 . S
C980 C984 1.368 . S
C981 C962 1.429 . S
C981 C975 1.429 . S
C981 C982 1.523 . S
C982 C963 1.368 . S
C982 C976 1.368 . S
C982 C981 1.523 . S
C983 C967 1.429 . S
C983 C979 1.429 . S
C983 C984 1.523 . S
C984 C968 1.368 . S
C984 C980 1.368 . S
C984 C983 1.523 . S
H985 C960 0.950 . S
H986 C962 0.950 . S
H987 C963 0.949 . S
H988 C965 0.950 . S
H989 C967 0.950 . S
C990 C991 1.349 . S
C990 C992 1.327 . S
C990 H1015 0.950 . S
C991 C990 1.349 . S
C991 C1007 1.349 . S
C992 C990 1.327 . S
C992 C1011 1.429 . S
C992 H1016 0.950 . S
C993 C1010 1.574 . S
C993 C1012 1.368 . S
C993 H1017 0.949 . S
H994 C998 0.949 . S
C995 C996 1.349 . S
C995 C997 1.327 . S
C995 H1018 0.950 . S
C996 C995 1.349 . S
C996 C1008 1.349 . S
C997 C995 1.327 . S
C997 C1013 1.429 . S
C997 H1019 0.950 . S
C998 H994 0.949 . S
C998 C1006 1.574 . S
C998 C1014 1.368 . S
H999 C1007 0.950 . S
H1000 C1005 0.950 . S
H1001 C1006 0.949 . S
H1002 C1008 0.950 . S
H1003 C1009 0.950 . S
H1004 C1010 0.949 . S
C1005 H1000 0.950 . S
C1005 C1007 1.327 . S
C1005 C1011 1.429 . S
C1006 C998 1.574 . S
C1006 H1001 0.949 . S
C1006 C1012 1.368 . S
C1007 C991 1.349 . S
C1007 H999 0.950 . S
C1007 C1005 1.327 . S
C1008 C996 1.349 . S
C1008 H1002 0.950 . S
C1008 C1009 1.327 . S
C1009 H1003 0.950 . S
C1009 C1008 1.327 . S
C1009 C1013 1.429 . S
C1010 C993 1.574 . S
C1010 H1004 0.949 . S
C1010 C1014 1.368 . S
C1011 C992 1.429 . S
C1011 C1005 1.429 . S
C1011 C1012 1.523 . S
C1012 C993 1.368 . S
C1012 C1006 1.368 . S
C1012 C1011 1.523 . S
C1013 C997 1.429 . S
C1013 C1009 1.429 . S
C1013 C1014 1.523 . S
C1014 C998 1.368 . S
C1014 C1010 1.368 . S
C1014 C1013 1.523 . S
H1015 C990 0.950 . S
H1016 C992 0.950 . S
H1017 C993 0.949 . S
H1018 C995 0.950 . S
H1019 C997 0.950 . S
C1020 C1021 1.349 . S
C1020 C1022 1.327 . S
C1020 H1045 0.950 . S
C1021 C1020 1.349 . S
C1021 C1037 1.349 . S
C1022 C1020 1.327 . S
C1022 C1041 1.429 . S
C1022 H1046 0.950 . S
C1023 C1040 1.574 . S
C1023 C1042 1.368 . S
C1023 H1047 0.949 . S
H1024 C1028 0.949 . S
C1025 C1026 1.349 . S
C1025 C1027 1.327 . S
C1025 H1048 0.950 . S
C1026 C1025 1.349 . S
C1026 C1038 1.349 . S
C1027 C1025 1.327 . S
C1027 C1043 1.429 . S
C1027 H1049 0.950 . S
C1028 H1024 0.949 . S
C1028 C1036 1.574 . S
C1028 C1044 1.368 . S
H1029 C1037 0.950 . S
H1030 C1035 0.950 . S
H1031 C1036 0.949 . S
H1032 C1038 0.950 . S
H1033 C1039 0.950 . S
H1034 C1040 0.949 . S
C1035 H1030 0.950 . S
C1035 C1037 1.327 . S
C1035 C1041 1.429 . S
C1036 C1028 1.574 . S
C1036 H1031 0.949 . S
C1036 C1042 1.368 . S
C1037 C1021 1.349 . S
C1037 H1029 0.950 . S
C1037 C1035 1.327 . S
C1038 C1026 1.349 . S
C1038 H1032 0.950 . S
C1038 C1039 1.327 . S
C1039 H1033 0.950 . S
C1039 C1038 1.327 . S
C1039 C1043 1.429 . S
C1040 C1023 1.574 . S
C1040 H1034 0.949 . S
C1040 C1044 1.368 . S
C1041 C1022 1.429 . S
C1041 C1035 1.429 . S
C1041 C1042 1.523 . S
C1042 C1023 1.368 . S
C1042 C1036 1.368 . S
C1042 C1041 1.523 . S
C1043 C1027 1.429 . S
C1043 C1039 1.429 . S
C1043 C1044 1.523 . S
C1044 C1028 1.368 . S
C1044 C1040 1.368 . S
C1044 C1043 1.523 . S
H1045 C1020 0.950 . S
H1046 C1022 0.950 . S
H1047 C1023 0.949 . S
H1048 C1025 0.950 . S
H1049 C1027 0.950 . S
C1050 C1051 1.349 . S
C1050 C1052 1.327 . S
C1050 H1075 0.950 . S
C1051 C1050 1.349 . S
C1051 C1067 1.349 . S
C1052 C1050 1.327 . S
C1052 C1071 1.429 . S
C1052 H1076 0.950 . S
C1053 C1070 1.574 . S
C1053 C1072 1.368 . S
C1053 H1077 0.949 . S
H1054 C1058 0.949 . S
C1055 C1056 1.349 . S
C1055 C1057 1.327 . S
C1055 H1078 0.950 . S
C1056 C1055 1.349 . S
C1056 C1068 1.349 . S
C1057 C1055 1.327 . S
C1057 C1073 1.429 . S
C1057 H1079 0.950 . S
C1058 H1054 0.949 . S
C1058 C1066 1.574 . S
C1058 C1074 1.368 . S
H1059 C1067 0.950 . S
H1060 C1065 0.950 . S
H1061 C1066 0.949 . S
H1062 C1068 0.950 . S
H1063 C1069 0.950 . S
H1064 C1070 0.949 . S
C1065 H1060 0.950 . S
C1065 C1067 1.327 . S
C1065 C1071 1.429 . S
C1066 C1058 1.574 . S
C1066 H1061 0.949 . S
C1066 C1072 1.368 . S
C1067 C1051 1.349 . S
C1067 H1059 0.950 . S
C1067 C1065 1.327 . S
C1068 C1056 1.349 . S
C1068 H1062 0.950 . S
C1068 C1069 1.327 . S
C1069 H1063 0.950 . S
C1069 C1068 1.327 . S
C1069 C1073 1.429 . S
C1070 C1053 1.574 . S
C1070 H1064 0.949 . S
C1070 C1074 1.368 . S
C1071 C1052 1.429 . S
C1071 C1065 1.429 . S
C1071 C1072 1.523 . S
C1072 C1053 1.368 . S
C1072 C1066 1.368 . S
C1072 C1071 1.523 . S
C1073 C1057 1.429 . S
C1073 C1069 1.429 . S
C1073 C1074 1.523 . S
C1074 C1058 1.368 . S
C1074 C1070 1.368 . S
C1074 C1073 1.523 . S
H1075 C1050 0.950 . S
H1076 C1052 0.950 . S
H1077 C1053 0.949 . S
H1078 C1055 0.950 . S
H1079 C1057 0.950 . S
C1080 C1081 1.349 . S
C1080 C1082 1.327 . S
C1080 H1105 0.950 . S
C1081 C1080 1.349 . S
C1081 C1097 1.349 . S
C1082 C1080 1.327 . S
C1082 C1101 1.429 . S
C1082 H1106 0.950 . S
C1083 C1100 1.574 . S
C1083 C1102 1.368 . S
C1083 H1107 0.949 . S
H1084 C1088 0.949 . S
C1085 C1086 1.349 . S
C1085 C1087 1.327 . S
C1085 H1108 0.950 . S
C1086 C1085 1.349 . S
C1086 C1098 1.349 . S
C1087 C1085 1.327 . S
C1087 C1103 1.429 . S
C1087 H1109 0.950 . S
C1088 H1084 0.949 . S
C1088 C1096 1.574 . S
C1088 C1104 1.368 . S
H1089 C1097 0.950 . S
H1090 C1095 0.950 . S
H1091 C1096 0.949 . S
H1092 C1098 0.950 . S
H1093 C1099 0.950 . S
H1094 C1100 0.949 . S
C1095 H1090 0.950 . S
C1095 C1097 1.327 . S
C1095 C1101 1.429 . S
C1096 C1088 1.574 . S
C1096 H1091 0.949 . S
C1096 C1102 1.368 . S
C1097 C1081 1.349 . S
C1097 H1089 0.950 . S
C1097 C1095 1.327 . S
C1098 C1086 1.349 . S
C1098 H1092 0.950 . S
C1098 C1099 1.327 . S
C1099 H1093 0.950 . S
C1099 C1098 1.327 . S
C1099 C1103 1.429 . S
C1100 C1083 1.574 . S
C1100 H1094 0.949 . S
C1100 C1104 1.368 . S
C1101 C1082 1.429 . S
C1101 C1095 1.429 . S
C1101 C1102 1.523 . S
C1102 C1083 1.368 . S
C1102 C1096 1.368 . S
C1102 C1101 1.523 . S
C1103 C1087 1.429 . S
C1103 C1099 1.429 . S
C1103 C1104 1.523 . S
C1104 C1088 1.368 . S
C1104 C1100 1.368 . S
C1104 C1103 1.523 . S
H1105 C1080 0.950 . S
H1106 C1082 0.950 . S
H1107 C1083 0.949 . S
H1108 C1085 0.950 . S
H1109 C1087 0.950 . S
C1110 C1111 1.349 . S
C1110 C1112 1.327 . S
C1110 H1135 0.950 . S
C1111 C1110 1.349 . S
C1111 C1127 1.349 . S
C1112 C1110 1.327 . S
C1112 C1131 1.429 . S
C1112 H1136 0.950 . S
C1113 C1130 1.574 . S
C1113 C1132 1.368 . S
C1113 H1137 0.949 . S
H1114 C1118 0.949 . S
C1115 C1116 1.349 . S
C1115 C1117 1.327 . S
C1115 H1138 0.950 . S
C1116 C1115 1.349 . S
C1116 C1128 1.349 . S
C1117 C1115 1.327 . S
C1117 C1133 1.429 . S
C1117 H1139 0.950 . S
C1118 H1114 0.949 . S
C1118 C1126 1.574 . S
C1118 C1134 1.368 . S
H1119 C1127 0.950 . S
H1120 C1125 0.950 . S
H1121 C1126 0.949 . S
H1122 C1128 0.950 . S
H1123 C1129 0.950 . S
H1124 C1130 0.949 . S
C1125 H1120 0.950 . S
C1125 C1127 1.327 . S
C1125 C1131 1.429 . S
C1126 C1118 1.574 . S
C1126 H1121 0.949 . S
C1126 C1132 1.368 . S
C1127 C1111 1.349 . S
C1127 H1119 0.950 . S
C1127 C1125 1.327 . S
C1128 C1116 1.349 . S
C1128 H1122 0.950 . S
C1128 C1129 1.327 . S
C1129 H1123 0.950 . S
C1129 C1128 1.327 . S
C1129 C1133 1.429 . S
C1130 C1113 1.574 . S
C1130 H1124 0.949 . S
C1130 C1134 1.368 . S
C1131 C1112 1.429 . S
C1131 C1125 1.429 . S
C1131 C1132 1.523 . S
C1132 C1113 1.368 . S
C1132 C1126 1.368 . S
C1132 C1131 1.523 . S
C1133 C1117 1.429 . S
C1133 C1129 1.429 . S
C1133 C1134 1.523 . S
C1134 C1118 1.368 . S
C1134 C1130 1.368 . S
C1134 C1133 1.523 . S
H1135 C1110 0.950 . S
H1136 C1112 0.950 . S
H1137 C1113 0.949 . S
H1138 C1115 0.950 . S
H1139 C1117 0.950 . S
C1140 C1141 1.349 . S
C1140 C1142 1.327 . S
C1140 H1165 0.950 . S
C1141 C1140 1.349 . S
C1141 C1157 1.349 . S
C1142 C1140 1.327 . S
C1142 C1161 1.429 . S
C1142 H1166 0.950 . S
C1143 C1160 1.574 . S
C1143 C1162 1.368 . S
C1143 H1167 0.949 . S
H1144 C1148 0.949 . S
C1145 C1146 1.349 . S
C1145 C1147 1.327 . S
C1145 H1168 0.950 . S
C1146 C1145 1.349 . S
C1146 C1158 1.349 . S
C1147 C1145 1.327 . S
C1147 C1163 1.429 . S
C1147 H1169 0.950 . S
C1148 H1144 0.949 . S
C1148 C1156 1.574 . S
C1148 C1164 1.368 . S
H1149 C1157 0.950 . S
H1150 C1155 0.950 . S
H1151 C1156 0.949 . S
H1152 C1158 0.950 . S
H1153 C1159 0.950 . S
H1154 C1160 0.949 . S
C1155 H1150 0.950 . S
C1155 C1157 1.327 . S
C1155 C1161 1.429 . S
C1156 C1148 1.574 . S
C1156 H1151 0.949 . S
C1156 C1162 1.368 . S
C1157 C1141 1.349 . S
C1157 H1149 0.950 . S
C1157 C1155 1.327 . S
C1158 C1146 1.349 . S
C1158 H1152 0.950 . S
C1158 C1159 1.327 . S
C1159 H1153 0.950 . S
C1159 C1158 1.327 . S
C1159 C1163 1.429 . S
C1160 C1143 1.574 . S
C1160 H1154 0.949 . S
C1160 C1164 1.368 . S
C1161 C1142 1.429 . S
C1161 C1155 1.429 . S
C1161 C1162 1.523 . S
C1162 C1143 1.368 . S
C1162 C1156 1.368 . S
C1162 C1161 1.523 . S
C1163 C1147 1.429 . S
C1163 C1159 1.429 . S
C1163 C1164 1.523 . S
C1164 C1148 1.368 . S
C1164 C1160 1.368 . S
C1164 C1163 1.523 . S
H1165 C1140 0.950 . S
H1166 C1142 0.950 . S
H1167 C1143 0.949 . S
H1168 C1145 0.950 . S
H1169 C1147 0.950 . S
C1170 C1171 1.349 . S
C1170 C1172 1.327 . S
C1170 H1195 0.950 . S
C1171 C1170 1.349 . S
C1171 C1187 1.349 . S
C1172 C1170 1.327 . S
C1172 C1191 1.429 . S
C1172 H1196 0.950 . S
C1173 C1190 1.574 . S
C1173 C1192 1.368 . S
C1173 H1197 0.949 . S
H1174 C1178 0.949 . S
C1175 C1176 1.349 . S
C1175 C1177 1.327 . S
C1175 H1198 0.950 . S
C1176 C1175 1.349 . S
C1176 C1188 1.349 . S
C1177 C1175 1.327 . S
C1177 C1193 1.429 . S
C1177 H1199 0.950 . S
C1178 H1174 0.949 . S
C1178 C1186 1.574 . S
C1178 C1194 1.368 . S
H1179 C1187 0.950 . S
H1180 C1185 0.950 . S
H1181 C1186 0.949 . S
H1182 C1188 0.950 . S
H1183 C1189 0.950 . S
H1184 C1190 0.949 . S
C1185 H1180 0.950 . S
C1185 C1187 1.327 . S
C1185 C1191 1.429 . S
C1186 C1178 1.574 . S
C1186 H1181 0.949 . S
C1186 C1192 1.368 . S
C1187 C1171 1.349 . S
C1187 H1179 0.950 . S
C1187 C1185 1.327 . S
C1188 C1176 1.349 . S
C1188 H1182 0.950 . S
C1188 C1189 1.327 . S
C1189 H1183 0.950 . S
C1189 C1188 1.327 . S
C1189 C1193 1.429 . S
C1190 C1173 1.574 . S
C1190 H1184 0.949 . S
C1190 C1194 1.368 . S
C1191 C1172 1.429 . S
C1191 C1185 1.429 . S
C1191 C1192 1.523 . S
C1192 C1173 1.368 . S
C1192 C1186 1.368 . S
C1192 C1191 1.523 . S
C1193 C1177 1.429 . S
C1193 C1189 1.429 . S
C1193 C1194 1.523 . S
C1194 C1178 1.368 . S
C1194 C1190 1.368 . S
C1194 C1193 1.523 . S
H1195 C1170 0.950 . S
H1196 C1172 0.950 . S
H1197 C1173 0.949 . S
H1198 C1175 0.950 . S
H1199 C1177 0.950 . S
C1200 C1201 1.349 . S
C1200 C1202 1.327 . S
C1200 H1225 0.950 . S
C1201 C1200 1.349 . S
C1201 C1217 1.349 . S
C1202 C1200 1.327 . S
C1202 C1221 1.429 . S
C1202 H1226 0.950 . S
C1203 C1220 1.574 . S
C1203 C1222 1.368 . S
C1203 H1227 0.949 . S
H1204 C1208 0.949 . S
C1205 C1206 1.349 . S
C1205 C1207 1.327 . S
C1205 H1228 0.950 . S
C1206 C1205 1.349 . S
C1206 C1218 1.349 . S
C1207 C1205 1.327 . S
C1207 C1223 1.429 . S
C1207 H1229 0.950 . S
C1208 H1204 0.949 . S
C1208 C1216 1.574 . S
C1208 C1224 1.368 . S
H1209 C1217 0.950 . S
H1210 C1215 0.950 . S
H1211 C1216 0.949 . S
H1212 C1218 0.950 . S
H1213 C1219 0.950 . S
H1214 C1220 0.949 . S
C1215 H1210 0.950 . S
C1215 C1217 1.327 . S
C1215 C1221 1.429 . S
C1216 C1208 1.574 . S
C1216 H1211 0.949 . S
C1216 C1222 1.368 . S
C1217 C1201 1.349 . S
C1217 H1209 0.950 . S
C1217 C1215 1.327 . S
C1218 C1206 1.349 . S
C1218 H1212 0.950 . S
C1218 C1219 1.327 . S
C1219 H1213 0.950 . S
C1219 C1218 1.327 . S
C1219 C1223 1.429 . S
C1220 C1203 1.574 . S
C1220 H1214 0.949 . S
C1220 C1224 1.368 . S
C1221 C1202 1.429 . S
C1221 C1215 1.429 . S
C1221 C1222 1.523 . S
C1222 C1203 1.368 . S
C1222 C1216 1.368 . S
C1222 C1221 1.523 . S
C1223 C1207 1.429 . S
C1223 C1219 1.429 . S
C1223 C1224 1.523 . S
C1224 C1208 1.368 . S
C1224 C1220 1.368 . S
C1224 C1223 1.523 . S
H1225 C1200 0.950 . S
H1226 C1202 0.950 . S
H1227 C1203 0.949 . S
H1228 C1205 0.950 . S
H1229 C1207 0.950 . S
C1230 C1231 1.349 . S
C1230 C1232 1.327 . S
C1230 H1255 0.950 . S
C1231 C1230 1.349 . S
C1231 C1247 1.349 . S
C1232 C1230 1.327 . S
C1232 C1251 1.429 . S
C1232 H1256 0.950 . S
C1233 C1250 1.574 . S
C1233 C1252 1.368 . S
C1233 H1257 0.949 . S
H1234 C1238 0.949 . S
C1235 C1236 1.349 . S
C1235 C1237 1.327 . S
C1235 H1258 0.950 . S
C1236 C1235 1.349 . S
C1236 C1248 1.349 . S
C1237 C1235 1.327 . S
C1237 C1253 1.429 . S
C1237 H1259 0.950 . S
C1238 H1234 0.949 . S
C1238 C1246 1.574 . S
C1238 C1254 1.368 . S
H1239 C1247 0.950 . S
H1240 C1245 0.950 . S
H1241 C1246 0.949 . S
H1242 C1248 0.950 . S
H1243 C1249 0.950 . S
H1244 C1250 0.949 . S
C1245 H1240 0.950 . S
C1245 C1247 1.327 . S
C1245 C1251 1.429 . S
C1246 C1238 1.574 . S
C1246 H1241 0.949 . S
C1246 C1252 1.368 . S
C1247 C1231 1.349 . S
C1247 H1239 0.950 . S
C1247 C1245 1.327 . S
C1248 C1236 1.349 . S
C1248 H1242 0.950 . S
C1248 C1249 1.327 . S
C1249 H1243 0.950 . S
C1249 C1248 1.327 . S
C1249 C1253 1.429 . S
C1250 C1233 1.574 . S
C1250 H1244 0.949 . S
C1250 C1254 1.368 . S
C1251 C1232 1.429 . S
C1251 C1245 1.429 . S
C1251 C1252 1.523 . S
C1252 C1233 1.368 . S
C1252 C1246 1.368 . S
C1252 C1251 1.523 . S
C1253 C1237 1.429 . S
C1253 C1249 1.429 . S
C1253 C1254 1.523 . S
C1254 C1238 1.368 . S
C1254 C1250 1.368 . S
C1254 C1253 1.523 . S
H1255 C1230 0.950 . S
H1256 C1232 0.950 . S
H1257 C1233 0.949 . S
H1258 C1235 0.950 . S
H1259 C1237 0.950 . S
C1260 C1261 1.349 . S
C1260 C1262 1.327 . S
C1260 H1285 0.950 . S
C1261 C1260 1.349 . S
C1261 C1277 1.349 . S
C1262 C1260 1.327 . S
C1262 C1281 1.429 . S
C1262 H1286 0.950 . S
C1263 C1280 1.574 . S
C1263 C1282 1.368 . S
C1263 H1287 0.949 . S
H1264 C1268 0.949 . S
C1265 C1266 1.349 . S
C1265 C1267 1.327 . S
C1265 H1288 0.950 . S
C1266 C1265 1.349 . S
C1266 C1278 1.349 . S
C1267 C1265 1.327 . S
C1267 C1283 1.429 . S
C1267 H1289 0.950 . S
C1268 H1264 0.949 . S
C1268 C1276 1.574 . S
C1268 C1284 1.368 . S
H1269 C1277 0.950 . S
H1270 C1275 0.950 . S
H1271 C1276 0.949 . S
H1272 C1278 0.950 . S
H1273 C1279 0.950 . S
H1274 C1280 0.949 . S
C1275 H1270 0.950 . S
C1275 C1277 1.327 . S
C1275 C1281 1.429 . S
C1276 C1268 1.574 . S
C1276 H1271 0.949 . S
C1276 C1282 1.368 . S
C1277 C1261 1.349 . S
C1277 H1269 0.950 . S
C1277 C1275 1.327 . S
C1278 C1266 1.349 . S
C1278 H1272 0.950 . S
C1278 C1279 1.327 . S
C1279 H1273 0.950 . S
C1279 C1278 1.327 . S
C1279 C1283 1.429 . S
C1280 C1263 1.574 . S
C1280 H1274 0.949 . S
C1280 C1284 1.368 . S
C1281 C1262 1.429 . S
C1281 C1275 1.429 . S
C1281 C1282 1.523 . S
C1282 C1263 1.368 . S
C1282 C1276 1.368 . S
C1282 C1281 1.523 . S
C1283 C1267 1.429 . S
C1283 C1279 1.429 . S
C1283 C1284 1.523 . S
C1284 C1268 1.368 . S
C1284 C1280 1.368 . S
C1284 C1283 1.523 . S
H1285 C1260 0.950 . S
H1286 C1262 0.950 . S
H1287 C1263 0.949 . S
H1288 C1265 0.950 . S
H1289 C1267 0.950 . S
C1290 C1291 1.349 . S
C1290 C1292 1.327 . S
C1290 H1315 0.950 . S
C1291 C1290 1.349 . S
C1291 C1307 1.349 . S
C1292 C1290 1.327 . S
C1292 C1311 1.429 . S
C1292 H1316 0.950 . S
C1293 C1310 1.574 . S
C1293 C1312 1.368 . S
C1293 H1317 0.949 . S
H1294 C1298 0.949 . S
C1295 C1296 1.349 . S
C1295 C1297 1.327 . S
C1295 H1318 0.950 . S
C1296 C1295 1.349 . S
C1296 C1308 1.349 . S
C1297 C1295 1.327 . S
C1297 C1313 1.429 . S
C1297 H1319 0.950 . S
C1298 H1294 0.949 . S
C1298 C1306 1.574 . S
C1298 C1314 1.368 . S
H1299 C1307 0.950 . S
H1300 C1305 0.950 . S
H1301 C1306 0.949 . S
H1302 C1308 0.950 . S
H1303 C1309 0.950 . S
H1304 C1310 0.949 . S
C1305 H1300 0.950 . S
C1305 C1307 1.327 . S
C1305 C1311 1.429 . S
C1306 C1298 1.574 . S
C1306 H1301 0.949 . S
C1306 C1312 1.368 . S
C1307 C1291 1.349 . S
C1307 H1299 0.950 . S
C1307 C1305 1.327 . S
C1308 C1296 1.349 . S
C1308 H1302 0.950 . S
C1308 C1309 1.327 . S
C1309 H1303 0.950 . S
C1309 C1308 1.327 . S
C1309 C1313 1.429 . S
C1310 C1293 1.574 . S
C1310 H1304 0.949 . S
C1310 C1314 1.368 . S
C1311 C1292 1.429 . S
C1311 C1305 1.429 . S
C1311 C1312 1.523 . S
C1312 C1293 1.368 . S
C1312 C1306 1.368 . S
C1312 C1311 1.523 . S
C1313 C1297 1.429 . S
C1313 C1309 1.429 . S
C1313 C1314 1.523 . S
C1314 C1298 1.368 . S
C1314 C1310 1.368 . S
C1314 C1313 1.523 . S
H1315 C1290 0.950 . S
H1316 C1292 0.950 . S
H1317 C1293 0.949 . S
H1318 C1295 0.950 . S
H1319 C1297 0.950 . S
C1320 C1321 1.349 . S
C1320 C1322 1.327 . S
C1320 H1345 0.950 . S
C1321 C1320 1.349 . S
C1321 C1337 1.349 . S
C1322 C1320 1.327 . S
C1322 C1341 1.429 . S
C1322 H1346 0.950 . S
C1323 C1340 1.574 . S
C1323 C1342 1.368 . S
C1323 H1347 0.949 . S
H1324 C1328 0.949 . S
C1325 C1326 1.349 . S
C1325 C1327 1.327 . S
C1325 H1348 0.950 . S
C1326 C1325 1.349 . S
C1326 C1338 1.349 . S
C1327 C1325 1.327 . S
C1327 C1343 1.429 . S
C1327 H1349 0.950 . S
C1328 H1324 0.949 . S
C1328 C1336 1.574 . S
C1328 C1344 1.368 . S
H1329 C1337 0.950 . S
H1330 C1335 0.950 . S
H1331 C1336 0.949 . S
H1332 C1338 0.950 . S
H1333 C1339 0.950 . S
H1334 C1340 0.949 . S
C1335 H1330 0.950 . S
C1335 C1337 1.327 . S
C1335 C1341 1.429 . S
C1336 C1328 1.574 . S
C1336 H1331 0.949 . S
C1336 C1342 1.368 . S
C1337 C1321 1.349 . S
C1337 H1329 0.950 . S
C1337 C1335 1.327 . S
C1338 C1326 1.349 . S
C1338 H1332 0.950 . S
C1338 C1339 1.327 . S
C1339 H1333 0.950 . S
C1339 C1338 1.327 . S
C1339 C1343 1.429 . S
C1340 C1323 1.574 . S
C1340 H1334 0.949 . S
C1340 C1344 1.368 . S
C1341 C1322 1.429 . S
C1341 C1335 1.429 . S
C1341 C1342 1.523 . S
C1342 C1323 1.368 . S
C1342 C1336 1.368 . S
C1342 C1341 1.523 . S
C1343 C1327 1.429 . S
C1343 C1339 1.429 . S
C1343 C1344 1.523 . S
C1344 C1328 1.368 . S
C1344 C1340 1.368 . S
C1344 C1343 1.523 . S
H1345 C1320 0.950 . S
H1346 C1322 0.950 . S
H1347 C1323 0.949 . S
H1348 C1325 0.950 . S
H1349 C1327 0.950 . S
C1350 C1351 1.349 . S
C1350 C1352 1.327 . S
C1350 H1375 0.950 . S
C1351 C1350 1.349 . S
C1351 C1367 1.349 . S
C1352 C1350 1.327 . S
C1352 C1371 1.429 . S
C1352 H1376 0.950 . S
C1353 C1370 1.574 . S
C1353 C1372 1.368 . S
C1353 H1377 0.949 . S
H1354 C1358 0.949 . S
C1355 C1356 1.349 . S
C1355 C1357 1.327 . S
C1355 H1378 0.950 . S
C1356 C1355 1.349 . S
C1356 C1368 1.349 . S
C1357 C1355 1.327 . S
C1357 C1373 1.429 . S
C1357 H1379 0.950 . S
C1358 H1354 0.949 . S
C1358 C1366 1.574 . S
C1358 C1374 1.368 . S
H1359 C1367 0.950 . S
H1360 C1365 0.950 . S
H1361 C1366 0.949 . S
H1362 C1368 0.950 . S
H1363 C1369 0.950 . S
H1364 C1370 0.949 . S
C1365 H1360 0.950 . S
C1365 C1367 1.327 . S
C1365 C1371 1.429 . S
C1366 C1358 1.574 . S
C1366 H1361 0.949 . S
C1366 C1372 1.368 . S
C1367 C1351 1.349 . S
C1367 H1359 0.950 . S
C1367 C1365 1.327 . S
C1368 C1356 1.349 . S
C1368 H1362 0.950 . S
C1368 C1369 1.327 . S
C1369 H1363 0.950 . S
C1369 C1368 1.327 . S
C1369 C1373 1.429 . S
C1370 C1353 1.574 . S
C1370 H1364 0.949 . S
C1370 C1374 1.368 . S
C1371 C1352 1.429 . S
C1371 C1365 1.429 . S
C1371 C1372 1.523 . S
C1372 C1353 1.368 . S
C1372 C1366 1.368 . S
C1372 C1371 1.523 . S
C1373 C1357 1.429 . S
C1373 C1369 1.429 . S
C1373 C1374 1.523 . S
C1374 C1358 1.368 . S
C1374 C1370 1.368 . S
C1374 C1373 1.523 . S
H1375 C1350 0.950 . S
H1376 C1352 0.950 . S
H1377 C1353 0.949 . S
H1378 C1355 0.950 . S
H1379 C1357 0.950 . S
C1380 C1381 1.349 . S
C1380 C1382 1.327 . S
C1380 H1405 0.950 . S
C1381 C1380 1.349 . S
C1381 C1397 1.349 . S
C1382 C1380 1.327 . S
C1382 C1401 1.429 . S
C1382 H1406 0.950 . S
C1383 C1400 1.574 . S
C1383 C1402 1.368 . S
C1383 H1407 0.949 . S
H1384 C1388 0.949 . S
C1385 C1386 1.349 . S
C1385 C1387 1.327 . S
C1385 H1408 0.950 . S
C1386 C1385 1.349 . S
C1386 C1398 1.349 . S
C1387 C1385 1.327 . S
C1387 C1403 1.429 . S
C1387 H1409 0.950 . S
C1388 H1384 0.949 . S
C1388 C1396 1.574 . S
C1388 C1404 1.368 . S
H1389 C1397 0.950 . S
H1390 C1395 0.950 . S
H1391 C1396 0.949 . S
H1392 C1398 0.950 . S
H1393 C1399 0.950 . S
H1394 C1400 0.949 . S
C1395 H1390 0.950 . S
C1395 C1397 1.327 . S
C1395 C1401 1.429 . S
C1396 C1388 1.574 . S
C1396 H1391 0.949 . S
C1396 C1402 1.368 . S
C1397 C1381 1.349 . S
C1397 H1389 0.950 . S
C1397 C1395 1.327 . S
C1398 C1386 1.349 . S
C1398 H1392 0.950 . S
C1398 C1399 1.327 . S
C1399 H1393 0.950 . S
C1399 C1398 1.327 . S
C1399 C1403 1.429 . S
C1400 C1383 1.574 . S
C1400 H1394 0.949 . S
C1400 C1404 1.368 . S
C1401 C1382 1.429 . S
C1401 C1395 1.429 . S
C1401 C1402 1.523 . S
C1402 C1383 1.368 . S
C1402 C1396 1.368 . S
C1402 C1401 1.523 . S
C1403 C1387 1.429 . S
C1403 C1399 1.429 . S
C1403 C1404 1.523 . S
C1404 C1388 1.368 . S
C1404 C1400 1.368 . S
C1404 C1403 1.523 . S
H1405 C1380 0.950 . S
H1406 C1382 0.950 . S
H1407 C1383 0.949 . S
H1408 C1385 0.950 . S
H1409 C1387 0.950 . S
C1410 C1411 1.349 . S
C1410 C1412 1.327 . S
C1410 H1435 0.950 . S
C1411 C1410 1.349 . S
C1411 C1427 1.349 . S
C1412 C1410 1.327 . S
C1412 C1431 1.429 . S
C1412 H1436 0.950 . S
C1413 C1430 1.574 . S
C1413 C1432 1.368 . S
C1413 H1437 0.949 . S
H1414 C1418 0.949 . S
C1415 C1416 1.349 . S
C1415 C1417 1.327 . S
C1415 H1438 0.950 . S
C1416 C1415 1.349 . S
C1416 C1428 1.349 . S
C1417 C1415 1.327 . S
C1417 C1433 1.429 . S
C1417 H1439 0.950 . S
C1418 H1414 0.949 . S
C1418 C1426 1.574 . S
C1418 C1434 1.368 . S
H1419 C1427 0.950 . S
H1420 C1425 0.950 . S
H1421 C1426 0.949 . S
H1422 C1428 0.950 . S
H1423 C1429 0.950 . S
H1424 C1430 0.949 . S
C1425 H1420 0.950 . S
C1425 C1427 1.327 . S
C1425 C1431 1.429 . S
C1426 C1418 1.574 . S
C1426 H1421 0.949 . S
C1426 C1432 1.368 . S
C1427 C1411 1.349 . S
C1427 H1419 0.950 . S
C1427 C1425 1.327 . S
C1428 C1416 1.349 . S
C1428 H1422 0.950 . S
C1428 C1429 1.327 . S
C1429 H1423 0.950 . S
C1429 C1428 1.327 . S
C1429 C1433 1.429 . S
C1430 C1413 1.574 . S
C1430 H1424 0.949 . S
C1430 C1434 1.368 . S
C1431 C1412 1.429 . S
C1431 C1425 1.429 . S
C1431 C1432 1.523 . S
C1432 C1413 1.368 . S
C1432 C1426 1.368 . S
C1432 C1431 1.523 . S
C1433 C1417 1.429 . S
C1433 C1429 1.429 . S
C1433 C1434 1.523 . S
C1434 C1418 1.368 . S
C1434 C1430 1.368 . S
C1434 C1433 1.523 . S
H1435 C1410 0.950 . S
H1436 C1412 0.950 . S
H1437 C1413 0.949 . S
H1438 C1415 0.950 . S
H1439 C1417 0.950 . S
C1440 C1441 1.349 . S
C1440 C1442 1.327 . S
C1440 H1465 0.950 . S
C1441 C1440 1.349 . S
C1441 C1457 1.349 . S
C1442 C1440 1.327 . S
C1442 C1461 1.429 . S
C1442 H1466 0.950 . S
C1443 C1460 1.574 1_455 S
C1443 C1462 1.368 . S
C1443 H1467 0.949 . S
H1444 C1448 0.949 . S
C1445 C1446 1.349 . S
C1445 C1447 1.327 . S
C1445 H1468 0.950 . S
C1446 C1445 1.349 . S
C1446 C1458 1.349 . S
C1447 C1445 1.327 . S
C1447 C1463 1.429 . S
C1447 H1469 0.950 . S
C1448 H1444 0.949 . S
C1448 C1456 1.574 1_655 S
C1448 C1464 1.368 . S
H1449 C1457 0.950 . S
H1450 C1455 0.950 . S
H1451 C1456 0.949 . S
H1452 C1458 0.950 . S
H1453 C1459 0.950 . S
H1454 C1460 0.949 . S
C1455 H1450 0.950 . S
C1455 C1457 1.327 . S
C1455 C1461 1.429 . S
C1456 C1448 1.574 1_455 S
C1456 H1451 0.949 . S
C1456 C1462 1.368 . S
C1457 C1441 1.349 . S
C1457 H1449 0.950 . S
C1457 C1455 1.327 . S
C1458 C1446 1.349 . S
C1458 H1452 0.950 . S
C1458 C1459 1.327 . S
C1459 H1453 0.950 . S
C1459 C1458 1.327 . S
C1459 C1463 1.429 . S
C1460 C1443 1.574 1_655 S
C1460 H1454 0.949 . S
C1460 C1464 1.368 . S
C1461 C1442 1.429 . S
C1461 C1455 1.429 . S
C1461 C1462 1.523 . S
C1462 C1443 1.368 . S
C1462 C1456 1.368 . S
C1462 C1461 1.523 . S
C1463 C1447 1.429 . S
C1463 C1459 1.429 . S
C1463 C1464 1.523 . S
C1464 C1448 1.368 . S
C1464 C1460 1.368 . S
C1464 C1463 1.523 . S
H1465 C1440 0.950 . S
H1466 C1442 0.950 . S
H1467 C1443 0.949 . S
H1468 C1445 0.950 . S
H1469 C1447 0.950 . S
C1470 C1471 1.349 . S
C1470 C1472 1.327 . S
C1470 H1495 0.950 . S
C1471 C1470 1.349 . S
C1471 C1487 1.349 . S
C1472 C1470 1.327 . S
C1472 C1491 1.429 . S
C1472 H1496 0.950 . S
C1473 C1490 1.574 . S
C1473 C1492 1.368 . S
C1473 H1497 0.949 . S
H1474 C1478 0.949 . S
C1475 C1476 1.349 . S
C1475 C1477 1.327 . S
C1475 H1498 0.950 . S
C1476 C1475 1.349 . S
C1476 C1488 1.349 . S
C1477 C1475 1.327 . S
C1477 C1493 1.429 . S
C1477 H1499 0.950 . S
C1478 H1474 0.949 . S
C1478 C1486 1.574 . S
C1478 C1494 1.368 . S
H1479 C1487 0.950 . S
H1480 C1485 0.950 . S
H1481 C1486 0.949 . S
H1482 C1488 0.950 . S
H1483 C1489 0.950 . S
H1484 C1490 0.949 . S
C1485 H1480 0.950 . S
C1485 C1487 1.327 . S
C1485 C1491 1.429 . S
C1486 C1478 1.574 . S
C1486 H1481 0.949 . S
C1486 C1492 1.368 . S
C1487 C1471 1.349 . S
C1487 H1479 0.950 . S
C1487 C1485 1.327 . S
C1488 C1476 1.349 . S
C1488 H1482 0.950 . S
C1488 C1489 1.327 . S
C1489 H1483 0.950 . S
C1489 C1488 1.327 . S
C1489 C1493 1.429 . S
C1490 C1473 1.574 . S
C1490 H1484 0.949 . S
C1490 C1494 1.368 . S
C1491 C1472 1.429 . S
C1491 C1485 1.429 . S
C1491 C1492 1.523 . S
C1492 C1473 1.368 . S
C1492 C1486 1.368 . S
C1492 C1491 1.523 . S
C1493 C1477 1.429 . S
C1493 C1489 1.429 . S
C1493 C1494 1.523 . S
C1494 C1478 1.368 . S
C1494 C1490 1.368 . S
C1494 C1493 1.523 . S
H1495 C1470 0.950 . S
H1496 C1472 0.950 . S
H1497 C1473 0.949 . S
H1498 C1475 0.950 . S
H1499 C1477 0.950 . S
C1500 C1501 1.349 . S
C1500 C1502 1.327 . S
C1500 H1525 0.950 . S
C1501 C1500 1.349 . S
C1501 C1517 1.349 . S
C1502 C1500 1.327 . S
C1502 C1521 1.429 . S
C1502 H1526 0.950 . S
C1503 C1520 1.574 1_545 S
C1503 C1522 1.368 . S
C1503 H1527 0.949 . S
H1504 C1508 0.949 . S
C1505 C1506 1.349 . S
C1505 C1507 1.327 . S
C1505 H1528 0.950 . S
C1506 C1505 1.349 . S
C1506 C1518 1.349 . S
C1507 C1505 1.327 . S
C1507 C1523 1.429 . S
C1507 H1529 0.950 . S
C1508 H1504 0.949 . S
C1508 C1516 1.574 1_565 S
C1508 C1524 1.368 . S
H1509 C1517 0.950 . S
H1510 C1515 0.950 . S
H1511 C1516 0.949 . S
H1512 C1518 0.950 . S
H1513 C1519 0.950 . S
H1514 C1520 0.949 . S
C1515 H1510 0.950 . S
C1515 C1517 1.327 . S
C1515 C1521 1.429 . S
C1516 C1508 1.574 1_545 S
C1516 H1511 0.949 . S
C1516 C1522 1.368 . S
C1517 C1501 1.349 . S
C1517 H1509 0.950 . S
C1517 C1515 1.327 . S
C1518 C1506 1.349 . S
C1518 H1512 0.950 . S
C1518 C1519 1.327 . S
C1519 H1513 0.950 . S
C1519 C1518 1.327 . S
C1519 C1523 1.429 . S
C1520 C1503 1.574 1_565 S
C1520 H1514 0.949 . S
C1520 C1524 1.368 . S
C1521 C1502 1.429 . S
C1521 C1515 1.429 . S
C1521 C1522 1.523 . S
C1522 C1503 1.368 . S
C1522 C1516 1.368 . S
C1522 C1521 1.523 . S
C1523 C1507 1.429 . S
C1523 C1519 1.429 . S
C1523 C1524 1.523 . S
C1524 C1508 1.368 . S
C1524 C1520 1.368 . S
C1524 C1523 1.523 . S
H1525 C1500 0.950 . S
H1526 C1502 0.950 . S
H1527 C1503 0.949 . S
H1528 C1505 0.950 . S
H1529 C1507 0.950 . S
C721 C21 1.524 . S
C726 C221 1.523 . S
C751 C61 1.465 . S
C756 C122 1.467 1_554 S
C781 C82 1.460 1_556 S
C786 C181 1.463 . S
C811 C42 1.466 . S
C816 C162 1.469 . S
C841 C202 1.521 . S
C846 C101 1.515 . S
C871 C2 1.528 . S
C876 C141 1.520 . S
C901 C461 1.523 . S
C906 C261 1.524 . S
C931 C301 1.465 . S
C936 C362 1.467 . S
C961 C322 1.460 . S
C966 C421 1.463 . S
C991 C282 1.466 . S
C996 C402 1.468 . S
C1021 C341 1.515 . S
C1026 C442 1.520 . S
C1051 C242 1.529 . S
C1056 C381 1.521 . S
C1081 C501 1.526 . S
C1086 C701 1.525 . S
C1111 C602 1.466 . S
C1116 C541 1.464 . S
C1141 C661 1.461 . S
C1146 C562 1.458 . S
C1171 C642 1.468 . S
C1176 C522 1.465 . S
C1201 C682 1.521 . S
C1206 C581 1.515 . S
C1231 C621 1.521 . S
C1236 C482 1.530 . S
C1261 C15 1.506 . S
C1266 C415 1.506 . S
C1291 C455 1.510 . S
C1296 C55 1.509 . S
C1321 C375 1.509 . S
C1326 C95 1.509 . S
C1351 C135 1.507 . S
C1356 C575 1.507 . S
C1381 C175 1.506 . S
C1386 C495 1.506 . S
C1411 C535 1.508 . S
C1416 C215 1.509 . S
C1441 C655 1.505 . S
C1446 C255 1.505 . S
C1471 C295 1.509 . S
C1476 C695 1.510 . S
C1501 C335 1.509 . S
C1506 C615 1.509 . S
