# Generated by pormake.
# Topology vbm, (6)-cn, num edge types: 1
# Building blocks:
#     Node 0, Type 0, BuildingBlock: HISSIN_clean_sbu_0, # of connection points: 6
#     Node 1, Type 0, BuildingBlock: HISSIN_clean_sbu_0, # of connection points: 6
#     Node 2, Type 0, BuildingBlock: HISSIN_clean_sbu_0, # of connection points: 6
#     Node 3, Type 0, BuildingBlock: HISSIN_clean_sbu_0, # of connection points: 6
#     Node 4, Type 0, BuildingBlock: HISSIN_clean_sbu_0, # of connection points: 6
#     Node 5, Type 0, BuildingBlock: HISSIN_clean_sbu_0, # of connection points: 6
#     Node 6, Type 0, BuildingBlock: HISSIN_clean_sbu_0, # of connection points: 6
#     Node 7, Type 0, BuildingBlock: HISSIN_clean_sbu_0, # of connection points: 6
#     Node 8, Type 0, BuildingBlock: HISSIN_clean_sbu_0, # of connection points: 6
#     Node 9, Type 0, BuildingBlock: HISSIN_clean_sbu_0, # of connection points: 6
#     Node 10, Type 0, BuildingBlock: HISSIN_clean_sbu_0, # of connection points: 6
#     Node 11, Type 0, BuildingBlock: HISSIN_clean_sbu_0, # of connection points: 6
#     Node 12, Type 0, BuildingBlock: HISSIN_clean_sbu_0, # of connection points: 6
#     Node 13, Type 0, BuildingBlock: HISSIN_clean_sbu_0, # of connection points: 6
#     Node 14, Type 0, BuildingBlock: HISSIN_clean_sbu_0, # of connection points: 6
#     Node 15, Type 0, BuildingBlock: HISSIN_clean_sbu_0, # of connection points: 6
#     Edge 16, Type (0, 0), BuildingBlock: XIVTED_clean_linker_0, # of connection points: 2
#     Edge 17, Type (0, 0), BuildingBlock: XIVTED_clean_linker_0, # of connection points: 2
#     Edge 18, Type (0, 0), BuildingBlock: XIVTED_clean_linker_0, # of connection points: 2
#     Edge 19, Type (0, 0), BuildingBlock: XIVTED_clean_linker_0, # of connection points: 2
#     Edge 20, Type (0, 0), BuildingBlock: XIVTED_clean_linker_0, # of connection points: 2
#     Edge 21, Type (0, 0), BuildingBlock: XIVTED_clean_linker_0, # of connection points: 2
#     Edge 22, Type (0, 0), BuildingBlock: XIVTED_clean_linker_0, # of connection points: 2
#     Edge 23, Type (0, 0), BuildingBlock: XIVTED_clean_linker_0, # of connection points: 2
#     Edge 24, Type (0, 0), BuildingBlock: XIVTED_clean_linker_0, # of connection points: 2
#     Edge 25, Type (0, 0), BuildingBlock: XIVTED_clean_linker_0, # of connection points: 2
#     Edge 26, Type (0, 0), BuildingBlock: XIVTED_clean_linker_0, # of connection points: 2
#     Edge 27, Type (0, 0), BuildingBlock: XIVTED_clean_linker_0, # of connection points: 2
#     Edge 28, Type (0, 0), BuildingBlock: XIVTED_clean_linker_0, # of connection points: 2
#     Edge 29, Type (0, 0), BuildingBlock: XIVTED_clean_linker_0, # of connection points: 2
#     Edge 30, Type (0, 0), BuildingBlock: XIVTED_clean_linker_0, # of connection points: 2
#     Edge 31, Type (0, 0), BuildingBlock: XIVTED_clean_linker_0, # of connection points: 2
#     Edge 32, Type (0, 0), BuildingBlock: XIVTED_clean_linker_0, # of connection points: 2
#     Edge 33, Type (0, 0), BuildingBlock: XIVTED_clean_linker_0, # of connection points: 2
#     Edge 34, Type (0, 0), BuildingBlock: XIVTED_clean_linker_0, # of connection points: 2
#     Edge 35, Type (0, 0), BuildingBlock: XIVTED_clean_linker_0, # of connection points: 2
#     Edge 36, Type (0, 0), BuildingBlock: XIVTED_clean_linker_0, # of connection points: 2
#     Edge 37, Type (0, 0), BuildingBlock: XIVTED_clean_linker_0, # of connection points: 2
#     Edge 38, Type (0, 0), BuildingBlock: XIVTED_clean_linker_0, # of connection points: 2
#     Edge 39, Type (0, 0), BuildingBlock: XIVTED_clean_linker_0, # of connection points: 2
#     Edge 40, Type (0, 0), BuildingBlock: XIVTED_clean_linker_0, # of connection points: 2
#     Edge 41, Type (0, 0), BuildingBlock: XIVTED_clean_linker_0, # of connection points: 2
#     Edge 42, Type (0, 0), BuildingBlock: XIVTED_clean_linker_0, # of connection points: 2
#     Edge 43, Type (0, 0), BuildingBlock: XIVTED_clean_linker_0, # of connection points: 2
#     Edge 44, Type (0, 0), BuildingBlock: XIVTED_clean_linker_0, # of connection points: 2
#     Edge 45, Type (0, 0), BuildingBlock: XIVTED_clean_linker_0, # of connection points: 2
#     Edge 46, Type (0, 0), BuildingBlock: XIVTED_clean_linker_0, # of connection points: 2
#     Edge 47, Type (0, 0), BuildingBlock: XIVTED_clean_linker_0, # of connection points: 2
#     Edge 48, Type (0, 0), BuildingBlock: XIVTED_clean_linker_0, # of connection points: 2
#     Edge 49, Type (0, 0), BuildingBlock: XIVTED_clean_linker_0, # of connection points: 2
#     Edge 50, Type (0, 0), BuildingBlock: XIVTED_clean_linker_0, # of connection points: 2
#     Edge 51, Type (0, 0), BuildingBlock: XIVTED_clean_linker_0, # of connection points: 2
#     Edge 52, Type (0, 0), BuildingBlock: XIVTED_clean_linker_0, # of connection points: 2
#     Edge 53, Type (0, 0), BuildingBlock: XIVTED_clean_linker_0, # of connection points: 2
#     Edge 54, Type (0, 0), BuildingBlock: XIVTED_clean_linker_0, # of connection points: 2
#     Edge 55, Type (0, 0), BuildingBlock: XIVTED_clean_linker_0, # of connection points: 2
#     Edge 56, Type (0, 0), BuildingBlock: XIVTED_clean_linker_0, # of connection points: 2
#     Edge 57, Type (0, 0), BuildingBlock: XIVTED_clean_linker_0, # of connection points: 2
#     Edge 58, Type (0, 0), BuildingBlock: XIVTED_clean_linker_0, # of connection points: 2
#     Edge 59, Type (0, 0), BuildingBlock: XIVTED_clean_linker_0, # of connection points: 2
#     Edge 60, Type (0, 0), BuildingBlock: XIVTED_clean_linker_0, # of connection points: 2
#     Edge 61, Type (0, 0), BuildingBlock: XIVTED_clean_linker_0, # of connection points: 2
#     Edge 62, Type (0, 0), BuildingBlock: XIVTED_clean_linker_0, # of connection points: 2
#     Edge 63, Type (0, 0), BuildingBlock: XIVTED_clean_linker_0, # of connection points: 2
# Relax obj value: 0.061
# Max RMSD: 0.140
# Mean RMSD: 0.140
data_MOF--net-vbm--node1-HISSIN_clean_sbu_0--edge1-XIVTED_clean_linker_0
_symmetry_space_group_name_H-M    P1
_symmetry_Int_Tables_number       1
_symmetry_cell_setting            triclinic
loop_
_symmetry_equiv_pos_as_xyz
'x, y, z'
_cell_length_a     55.86493
_cell_length_b     26.071123
_cell_length_c     59.024763
_cell_angle_alpha  90.03589
_cell_angle_beta   89.988265
_cell_angle_gamma 89.878689
loop_
_atom_site_label
_atom_site_type_symbol
_atom_site_fract_x
_atom_site_fract_y
_atom_site_fract_z
_atom_type_partial_charge
Eu0 Eu 0.13047 0.07683 0.11727 0.0
Eu1 Eu 0.10961 0.19279 0.13315 0.0
C2 C 0.12118 0.10303 0.16992 0.0
C3 C 0.14311 0.9317 0.10894 0.0
C4 C 0.12974 0.91482 0.12763 0.0
C5 C 0.15032 0.8429 0.09825 0.0
C6 C 0.12666 0.86215 0.13157 0.0
C7 C 0.15338 0.8954 0.09435 0.0
C8 C 0.13688 0.82543 0.11688 0.0
C9 C 0.14602 0.9867 0.10384 0.0
O10 O 0.1494 0.19654 0.13549 0.0
O11 O 0.15989 0.13396 0.10988 0.0
C12 C 0.16479 0.17569 0.1215 0.0
O13 O 0.11199 0.11344 0.08762 0.0
O14 O 0.10907 0.25705 0.15701 0.0
O15 O 0.08656 0.25916 0.12715 0.0
O16 O 0.11853 0.19808 0.09573 0.0
C17 C 0.11374 0.16138 0.08116 0.0
O18 O 0.09331 0.06288 0.1305 0.0
O19 O 0.07755 0.14383 0.12551 0.0
O20 O 0.10767 0.1427 0.16452 0.0
O21 O 0.12752 1.00998 0.09516 0.0
O22 O 0.1569 1.01486 0.11892 0.0
O23 O 0.13469 0.07917 0.15505 0.0
C24 C 0.09971 0.339 0.14201 0.0
C25 C 0.11385 0.35673 0.12398 0.0
C26 C 0.09476 0.42694 0.155 0.0
C27 C 0.11825 0.4094 0.12139 0.0
C28 C 0.09037 0.37445 0.15754 0.0
C29 C 0.1086 0.44529 0.1368 0.0
C30 C 0.09413 0.28409 0.14493 0.0
C31 C 0.07495 0.09427 0.12874 0.0
H32 H 0.12162 0.94233 0.13907 0.0
H33 H 0.15811 0.81601 0.08634 0.0
H34 H 0.11641 0.85022 0.14622 0.0
H35 H 0.1636 0.9077 0.07973 0.0
H36 H 0.12129 0.32993 0.11182 0.0
H37 H 0.08742 0.45313 0.16745 0.0
H38 H 0.12882 0.42205 0.10707 0.0
H39 H 0.07955 0.36152 0.17165 0.0
Eu40 Eu 0.85371 0.96668 0.11509 0.0
Eu41 Eu 0.87384 0.85159 0.13185 0.0
C42 C 0.864 0.94289 0.16802 0.0
C43 C 0.84109 0.11124 0.10615 0.0
C44 C 0.85401 0.12804 0.12513 0.0
C45 C 0.83478 0.2001 0.09507 0.0
C46 C 0.8573 0.18066 0.12905 0.0
C47 C 0.8315 0.14762 0.09121 0.0
C48 C 0.84775 0.21747 0.11403 0.0
C49 C 0.83792 0.05619 0.10119 0.0
O50 O 0.83431 0.85449 0.13734 0.0
O51 O 0.82458 0.90835 0.10824 0.0
C52 C 0.81888 0.87188 0.12257 0.0
O53 O 0.87276 0.92922 0.08603 0.0
O54 O 0.87287 0.78666 0.15533 0.0
O55 O 0.89651 0.7844 0.1263 0.0
O56 O 0.86455 0.84561 0.09447 0.0
C57 C 0.8704 0.8813 0.07977 0.0
O58 O 0.89098 0.98121 0.12784 0.0
O59 O 0.90651 0.8994 0.12493 0.0
O60 O 0.87713 0.90247 0.16281 0.0
O61 O 0.85627 0.03254 0.09239 0.0
O62 O 0.82719 0.02846 0.11651 0.0
O63 O 0.8505 0.96663 0.15306 0.0
C64 C 0.88234 0.70462 0.14034 0.0
C65 C 0.86915 0.68744 0.12157 0.0
C66 C 0.88622 0.61637 0.15321 0.0
C67 C 0.86467 0.63489 0.11858 0.0
C68 C 0.89067 0.66874 0.15616 0.0
C69 C 0.87331 0.59858 0.1343 0.0
C70 C 0.88809 0.75937 0.14368 0.0
C71 C 0.90922 0.94926 0.12715 0.0
H72 H 0.86161 0.10049 0.13686 0.0
H73 H 0.82751 0.22703 0.08291 0.0
H74 H 0.86716 0.19249 0.14395 0.0
H75 H 0.82163 0.13539 0.07636 0.0
H76 H 0.86254 0.71455 0.10914 0.0
H77 H 0.89277 0.58984 0.16589 0.0
H78 H 0.85484 0.62267 0.10372 0.0
H79 H 0.90078 0.68123 0.17082 0.0
Eu80 Eu 0.13172 0.97187 0.37869 0.0
Eu81 Eu 0.11163 0.85711 0.36163 0.0
C82 C 0.12089 0.9491 0.32577 0.0
C83 C 0.14417 0.11642 0.38773 0.0
C84 C 0.13224 0.13328 0.36816 0.0
C85 C 0.14955 0.20527 0.39925 0.0
C86 C 0.129 0.18592 0.36417 0.0
C87 C 0.15278 0.15277 0.40318 0.0
C88 C 0.13761 0.2227 0.37969 0.0
C89 C 0.14736 0.06134 0.39269 0.0
O90 O 0.15109 0.86016 0.35568 0.0
O91 O 0.16122 0.91353 0.38483 0.0
C92 C 0.16672 0.87705 0.37036 0.0
O93 O 0.11364 0.9333 0.40798 0.0
O94 O 0.11254 0.79244 0.33794 0.0
O95 O 0.08908 0.78994 0.36711 0.0
O96 O 0.12187 0.85003 0.39872 0.0
C97 C 0.11634 0.88517 0.41382 0.0
O98 O 0.0942 0.98645 0.36647 0.0
O99 O 0.07893 0.90461 0.36938 0.0
O100 O 0.1079 0.90857 0.33092 0.0
O101 O 0.12901 0.03776 0.40143 0.0
O102 O 0.1582 0.0335 0.37741 0.0
O103 O 0.13449 0.97257 0.34069 0.0
C104 C 0.10341 0.71024 0.35289 0.0
C105 C 0.11569 0.69268 0.37216 0.0
C106 C 0.10059 0.62224 0.33939 0.0
C107 C 0.12022 0.6401 0.37508 0.0
C108 C 0.09609 0.67465 0.3365 0.0
C109 C 0.11254 0.60408 0.35881 0.0
C110 C 0.09748 0.76501 0.34965 0.0
C111 C 0.07604 0.95449 0.36735 0.0
H112 H 0.12539 0.10577 0.35603 0.0
H113 H 0.15606 0.23216 0.41179 0.0
H114 H 0.11995 0.19778 0.34882 0.0
H115 H 0.16187 0.14051 0.41847 0.0
H116 H 0.12153 0.71952 0.38503 0.0
H117 H 0.09481 0.59596 0.32629 0.0
H118 H 0.12928 0.62761 0.39033 0.0
H119 H 0.08669 0.68742 0.32146 0.0
Eu120 Eu 0.85233 0.07364 0.37669 0.0
Eu121 Eu 0.87271 0.18851 0.36001 0.0
C122 C 0.86313 0.0972 0.32386 0.0
C123 C 0.83937 0.92907 0.38593 0.0
C124 C 0.85308 0.91123 0.3676 0.0
C125 C 0.83222 0.84078 0.39735 0.0
C126 C 0.85635 0.85835 0.36419 0.0
C127 C 0.82893 0.89347 0.40069 0.0
C128 C 0.84608 0.82239 0.37915 0.0
C129 C 0.83622 0.98437 0.39046 0.0
O130 O 0.83311 0.1866 0.35481 0.0
O131 O 0.82333 0.1326 0.38379 0.0
C132 C 0.81773 0.16983 0.36975 0.0
O133 O 0.87142 0.11059 0.40581 0.0
O134 O 0.87201 0.25312 0.33634 0.0
O135 O 0.89515 0.25581 0.36571 0.0
O136 O 0.86356 0.1945 0.39741 0.0
C137 C 0.86935 0.15861 0.41205 0.0
O138 O 0.88986 0.05856 0.36453 0.0
O139 O 0.90532 0.14037 0.36722 0.0
O140 O 0.87629 0.13737 0.32916 0.0
O141 O 0.85436 1.00799 0.39957 0.0
O142 O 0.82591 1.0119 0.37478 0.0
O143 O 0.84938 0.07388 0.3387 0.0
C144 C 0.88093 0.33537 0.35133 0.0
C145 C 0.86692 0.35242 0.36961 0.0
C146 C 0.88494 0.42369 0.33859 0.0
C147 C 0.86208 0.40493 0.37242 0.0
C148 C 0.88979 0.37137 0.33584 0.0
C149 C 0.87108 0.44133 0.35695 0.0
C150 C 0.88695 0.28062 0.34816 0.0
C151 C 0.90809 0.09041 0.36531 0.0
H152 H 0.86141 0.93816 0.35607 0.0
H153 H 0.82371 0.81442 0.409 0.0
H154 H 0.86732 0.8457 0.35013 0.0
H155 H 0.81827 0.90648 0.41493 0.0
H156 H 0.85981 0.32521 0.38172 0.0
H157 H 0.8925 0.45043 0.32653 0.0
H158 H 0.85111 0.41693 0.3866 0.0
H159 H 0.90069 0.35902 0.32166 0.0
Eu160 Eu 0.87711 0.85246 0.85992 0.0
Eu161 Eu 0.85599 0.96798 0.87621 0.0
C162 C 0.87314 0.88326 0.91197 0.0
C163 C 0.8867 0.70623 0.85114 0.0
C164 C 0.87197 0.68917 0.86887 0.0
C165 C 0.89175 0.61784 0.83875 0.0
C166 C 0.86731 0.63663 0.87161 0.0
C167 C 0.89639 0.67021 0.83607 0.0
C168 C 0.87728 0.60015 0.85664 0.0
C169 C 0.89245 0.76106 0.84806 0.0
O170 O 0.89299 0.98249 0.86273 0.0
O171 O 0.90919 0.90178 0.86728 0.0
C172 C 0.91152 0.95149 0.86419 0.0
O173 O 0.87883 0.903 0.82868 0.0
O174 O 0.85891 0.03469 0.89841 0.0
O175 O 0.82954 0.02996 0.87465 0.0
O176 O 0.85154 0.96576 0.83846 0.0
C177 C 0.86516 0.94256 0.82347 0.0
O178 O 0.83731 0.84886 0.85754 0.0
O179 O 0.8268 0.91023 0.88369 0.0
O180 O 0.87485 0.9313 0.90564 0.0
O181 O 0.87748 0.7882 0.83606 0.0
O182 O 0.9002 0.78604 0.86575 0.0
O183 O 0.86824 0.84678 0.89734 0.0
C184 C 0.84361 0.11307 0.88443 0.0
C185 C 0.85731 0.1294 0.86586 0.0
C186 C 0.83662 0.20224 0.89473 0.0
C187 C 0.86068 0.18195 0.86179 0.0
C188 C 0.83327 0.14984 0.89876 0.0
C189 C 0.85043 0.21915 0.87622 0.0
C190 C 0.84047 0.05815 0.88969 0.0
C191 C 0.82198 0.86869 0.87188 0.0
H192 H 0.86425 0.7164 0.88068 0.0
H193 H 0.89936 0.59123 0.82662 0.0
H194 H 0.85627 0.62455 0.88569 0.0
H195 H 0.90767 0.68262 0.82218 0.0
H196 H 0.86549 0.10155 0.85462 0.0
H197 H 0.82878 0.22947 0.90644 0.0
H198 H 0.8712 0.1934 0.84724 0.0
H199 H 0.82279 0.13799 0.91328 0.0
Eu200 Eu 0.11182 0.19449 0.86115 0.0
Eu201 Eu 0.13302 0.07893 0.87737 0.0
C202 C 0.11444 0.1624 0.91313 0.0
C203 C 0.10186 0.34063 0.85246 0.0
C204 C 0.119 0.35719 0.86824 0.0
C205 C 0.09443 0.42951 0.842 0.0
C206 C 0.12375 0.40973 0.87092 0.0
C207 C 0.08968 0.37715 0.83939 0.0
C208 C 0.11153 0.44664 0.8578 0.0
C209 C 0.09633 0.28574 0.84925 0.0
O210 O 0.09624 0.06401 0.8634 0.0
O211 O 0.07978 0.14457 0.8678 0.0
C212 C 0.07763 0.09484 0.86464 0.0
O213 O 0.11074 0.14415 0.82975 0.0
O214 O 0.13029 1.01246 0.89966 0.0
O215 O 0.1594 1.01672 0.8756 0.0
O216 O 0.13822 0.08202 0.83973 0.0
C217 C 0.12464 0.10488 0.82463 0.0
O218 O 0.15166 0.19934 0.85989 0.0
O219 O 0.16185 0.13698 0.88569 0.0
O220 O 0.11318 0.1145 0.90649 0.0
O221 O 0.11158 0.25887 0.83742 0.0
O222 O 0.08846 0.26062 0.86685 0.0
O223 O 0.11955 0.1994 0.89883 0.0
C224 C 0.14555 0.93373 0.88592 0.0
C225 C 0.12912 0.91636 0.86965 0.0
C226 C 0.15528 0.84513 0.89506 0.0
C227 C 0.12572 0.86356 0.86619 0.0
C228 C 0.15867 0.89774 0.89846 0.0
C229 C 0.13862 0.82719 0.87903 0.0
C230 C 0.14864 0.98885 0.89085 0.0
C231 C 0.16673 0.17914 0.87436 0.0
H232 H 0.12868 0.32953 0.87843 0.0
H233 H 0.08439 0.45663 0.83185 0.0
H234 H 0.13721 0.42136 0.88307 0.0
H235 H 0.07636 0.36516 0.82715 0.0
H236 H 0.11872 0.94359 0.85986 0.0
H237 H 0.16584 0.81847 0.90499 0.0
H238 H 0.11259 0.85128 0.85385 0.0
H239 H 0.17145 0.91037 0.91109 0.0
Eu240 Eu 0.87679 0.19029 0.63181 0.0
Eu241 Eu 0.85587 0.07471 0.61574 0.0
C242 C 0.87213 0.15974 0.57977 0.0
C243 C 0.88701 0.33627 0.64031 0.0
C244 C 0.86921 0.35289 0.62521 0.0
C245 C 0.89553 0.42517 0.64979 0.0
C246 C 0.86466 0.40549 0.62237 0.0
C247 C 0.90004 0.37275 0.6526 0.0
C248 C 0.87786 0.4424 0.63457 0.0
C249 C 0.89245 0.28136 0.64354 0.0
O250 O 0.89308 0.06034 0.62889 0.0
O251 O 0.90882 0.14111 0.62385 0.0
C252 C 0.91145 0.09153 0.62708 0.0
O253 O 0.87875 0.13988 0.6631 0.0
O254 O 0.85888 1.00788 0.59365 0.0
O255 O 0.82948 1.01281 0.61741 0.0
O256 O 0.85163 0.07693 0.65348 0.0
C257 C 0.86523 0.10028 0.6684 0.0
O258 O 0.83698 0.1945 0.63427 0.0
O259 O 0.82631 0.13211 0.60866 0.0
O260 O 0.87404 0.11168 0.58604 0.0
O261 O 0.87724 0.25482 0.65548 0.0
O262 O 0.90014 0.25606 0.6259 0.0
O263 O 0.86745 0.19619 0.59451 0.0
C264 C 0.84371 0.92968 0.6078 0.0
C265 C 0.86068 0.91323 0.62377 0.0
C266 C 0.83365 0.84065 0.60006 0.0
C267 C 0.8642 0.86068 0.62776 0.0
C268 C 0.83018 0.89306 0.5961 0.0
C269 C 0.8508 0.82362 0.61585 0.0
C270 C 0.84047 0.98451 0.60241 0.0
C271 C 0.8215 0.17392 0.62033 0.0
H272 H 0.85894 0.32525 0.61556 0.0
H273 H 0.90576 0.4522 0.65979 0.0
H274 H 0.85108 0.41723 0.61035 0.0
H275 H 0.91376 0.36067 0.66443 0.0
H276 H 0.87132 0.94097 0.63299 0.0
H277 H 0.82326 0.81344 0.59031 0.0
H278 H 0.87735 0.84912 0.64023 0.0
H279 H 0.8171 0.90501 0.5836 0.0
Eu280 Eu 0.11478 0.85703 0.63349 0.0
Eu281 Eu 0.13471 0.97149 0.6157 0.0
C282 C 0.11796 0.88473 0.58117 0.0
C283 C 0.10721 0.71005 0.64242 0.0
C284 C 0.11847 0.6925 0.62259 0.0
C285 C 0.10563 0.62211 0.6562 0.0
C286 C 0.1231 0.63998 0.61952 0.0
C287 C 0.10097 0.67446 0.6592 0.0
C288 C 0.11665 0.60399 0.63627 0.0
C289 C 0.10118 0.76479 0.64586 0.0
O290 O 0.09729 0.9864 0.62816 0.0
O291 O 0.08193 0.90438 0.62626 0.0
C292 C 0.07911 0.95439 0.62783 0.0
O293 O 0.11133 0.9093 0.66403 0.0
O294 O 0.13209 0.03659 0.59252 0.0
O295 O 0.16101 0.03353 0.61686 0.0
O296 O 0.13794 0.97275 0.65365 0.0
C297 C 0.12438 0.95001 0.66881 0.0
O298 O 0.15431 0.86071 0.63878 0.0
O299 O 0.16384 0.91252 0.609 0.0
O300 O 0.11562 0.93297 0.58698 0.0
O301 O 0.11646 0.79248 0.65719 0.0
O302 O 0.0922 0.78962 0.62865 0.0
O303 O 0.12395 0.84967 0.59613 0.0
C304 C 0.14695 0.11603 0.60577 0.0
C305 C 0.13592 0.13393 0.62566 0.0
C306 C 0.15125 0.20424 0.59296 0.0
C307 C 0.13261 0.18678 0.62916 0.0
C308 C 0.1546 0.15159 0.58953 0.0
C309 C 0.14013 0.22268 0.61278 0.0
C310 C 0.15027 0.0607 0.6013 0.0
C311 C 0.16957 0.8763 0.62349 0.0
H312 H 0.12355 0.71933 0.60943 0.0
H313 H 0.10008 0.5957 0.66933 0.0
H314 H 0.13189 0.62764 0.6041 0.0
H315 H 0.0922 0.68713 0.6746 0.0
H316 H 0.12974 0.10707 0.63837 0.0
H317 H 0.15762 0.23057 0.58013 0.0
H318 H 0.12376 0.19943 0.64451 0.0
H319 H 0.16316 0.13858 0.57407 0.0
Eu320 Eu 0.63488 0.57088 0.12048 0.0
Eu321 Eu 0.61063 0.68524 0.13156 0.0
C322 C 0.62368 0.60594 0.17065 0.0
C323 C 0.64715 0.42523 0.11382 0.0
C324 C 0.62695 0.40833 0.12583 0.0
C325 C 0.65671 0.33655 0.10454 0.0
C326 C 0.62182 0.35578 0.12737 0.0
C327 C 0.66184 0.38899 0.10307 0.0
C328 C 0.63674 0.31911 0.11687 0.0
C329 C 0.65382 0.47999 0.11308 0.0
O330 O 0.65015 0.69137 0.13686 0.0
O331 O 0.66309 0.62998 0.11186 0.0
C332 C 0.66676 0.6719 0.12375 0.0
O333 O 0.61542 0.59749 0.08938 0.0
O334 O 0.60725 0.75118 0.15423 0.0
O335 O 0.58793 0.75043 0.12245 0.0
O336 O 0.6203 0.68384 0.09413 0.0
C337 C 0.61644 0.64396 0.08094 0.0
O338 O 0.59671 0.55391 0.13051 0.0
O339 O 0.57966 0.63344 0.12432 0.0
O340 O 0.60652 0.63588 0.16303 0.0
O341 O 0.64411 0.50808 0.0973 0.0
O342 O 0.65471 0.50398 0.13242 0.0
O343 O 0.6409 0.59077 0.15713 0.0
C344 C 0.59886 0.83168 0.13734 0.0
C345 C 0.61855 0.84802 0.12445 0.0
C346 C 0.58873 0.9208 0.14502 0.0
C347 C 0.62327 0.90059 0.12186 0.0
C348 C 0.58404 0.86843 0.14755 0.0
C349 C 0.60843 0.93772 0.13217 0.0
C350 C 0.59339 0.7768 0.1405 0.0
C351 C 0.57787 0.58383 0.12783 0.0
H352 H 0.61532 0.43571 0.13421 0.0
H353 H 0.66879 0.30961 0.09648 0.0
H354 H 0.60612 0.34391 0.13675 0.0
H355 H 0.67757 0.40123 0.0938 0.0
H356 H 0.63026 0.82018 0.11649 0.0
H357 H 0.57668 0.94806 0.1529 0.0
H358 H 0.63873 0.91209 0.11205 0.0
H359 H 0.56872 0.85658 0.15751 0.0
Eu360 Eu 0.35455 0.45631 0.12331 0.0
Eu361 Eu 0.37865 0.34106 0.13329 0.0
C362 C 0.3635 0.41791 0.17257 0.0
C363 C 0.34359 0.60243 0.1163 0.0
C364 C 0.36585 0.61894 0.12454 0.0
C365 C 0.33298 0.6911 0.10822 0.0
C366 C 0.37148 0.67132 0.12495 0.0
C367 C 0.32737 0.6388 0.10788 0.0
C368 C 0.35496 0.7082 0.11708 0.0
C369 C 0.33617 0.54827 0.11795 0.0
O370 O 0.33896 0.32988 0.13461 0.0
O371 O 0.32549 0.39986 0.11438 0.0
C372 C 0.32232 0.35381 0.12298 0.0
O373 O 0.37344 0.43098 0.09153 0.0
O374 O 0.38185 0.27484 0.15571 0.0
O375 O 0.40244 0.27735 0.12461 0.0
O376 O 0.36973 0.34395 0.0958 0.0
C377 C 0.37295 0.38452 0.08289 0.0
O378 O 0.39297 0.47174 0.13292 0.0
O379 O 0.40962 0.39241 0.1256 0.0
O380 O 0.38145 0.39017 0.16503 0.0
O381 O 0.34149 0.51788 0.10112 0.0
O382 O 0.33942 0.52627 0.13752 0.0
O383 O 0.3462 0.43054 0.15873 0.0
C384 C 0.39158 0.19538 0.13851 0.0
C385 C 0.3704 0.17871 0.12809 0.0
C386 C 0.40415 0.10659 0.14276 0.0
C387 C 0.36609 0.12612 0.12509 0.0
C388 C 0.40841 0.159 0.14572 0.0
C389 C 0.38288 0.08932 0.13251 0.0
C390 C 0.39649 0.25024 0.1423 0.0
C391 C 0.41165 0.44176 0.12958 0.0
H392 H 0.37866 0.59145 0.13112 0.0
H393 H 0.3197 0.71825 0.10228 0.0
H394 H 0.38871 0.68296 0.13158 0.0
H395 H 0.31004 0.62686 0.10158 0.0
H396 H 0.35717 0.20631 0.12241 0.0
H397 H 0.41768 0.0796 0.14832 0.0
H398 H 0.34943 0.11429 0.11733 0.0
H399 H 0.42492 0.17116 0.15372 0.0
Eu400 Eu 0.63192 0.47013 0.3768 0.0
Eu401 Eu 0.61035 0.35576 0.36212 0.0
C402 C 0.62149 0.44244 0.32491 0.0
C403 C 0.64481 0.61542 0.38469 0.0
C404 C 0.62977 0.63306 0.3673 0.0
C405 C 0.65205 0.70374 0.39604 0.0
C406 C 0.62592 0.68587 0.36429 0.0
C407 C 0.65592 0.65113 0.39896 0.0
C408 C 0.63693 0.72193 0.37872 0.0
C409 C 0.64882 0.5602 0.38872 0.0
O410 O 0.6499 0.35526 0.35655 0.0
O411 O 0.66071 0.41115 0.38456 0.0
C412 C 0.66575 0.37283 0.37088 0.0
O413 O 0.61338 0.43634 0.40692 0.0
O414 O 0.60953 0.29123 0.33839 0.0
O415 O 0.58791 0.28894 0.3688 0.0
O416 O 0.61983 0.3514 0.39961 0.0
C417 C 0.61513 0.38882 0.41392 0.0
O418 O 0.59414 0.48547 0.36494 0.0
O419 O 0.57842 0.40466 0.37018 0.0
O420 O 0.60595 0.40737 0.33132 0.0
O421 O 0.63212 0.53597 0.39973 0.0
O422 O 0.6573 0.53304 0.37197 0.0
O423 O 0.63705 0.46177 0.33919 0.0
C424 C 0.60097 0.20915 0.35368 0.0
C425 C 0.61596 0.19176 0.37116 0.0
C426 C 0.59578 0.12098 0.34111 0.0
C427 C 0.62072 0.13915 0.37366 0.0
C428 C 0.59102 0.1734 0.33867 0.0
C429 C 0.61064 0.10301 0.35867 0.0
C430 C 0.59507 0.26403 0.35086 0.0
C431 C 0.57576 0.45424 0.36703 0.0
H432 H 0.6209 0.60603 0.35618 0.0
H433 H 0.66113 0.73022 0.40725 0.0
H434 H 0.61399 0.69839 0.35093 0.0
H435 H 0.6676 0.63827 0.41249 0.0
H436 H 0.62392 0.21878 0.38289 0.0
H437 H 0.5874 0.09444 0.32945 0.0
H438 H 0.63247 0.12687 0.38721 0.0
H439 H 0.57934 0.18603 0.32511 0.0
Eu440 Eu 0.35267 0.57676 0.37505 0.0
Eu441 Eu 0.37336 0.69046 0.35865 0.0
C442 C 0.36206 0.60121 0.32263 0.0
C443 C 0.33991 0.43189 0.38237 0.0
C444 C 0.35668 0.41561 0.36618 0.0
C445 C 0.3301 0.34279 0.39016 0.0
C446 C 0.36019 0.36311 0.36205 0.0
C447 C 0.32662 0.39516 0.39423 0.0
C448 C 0.34699 0.32591 0.37406 0.0
C449 C 0.33657 0.48669 0.38778 0.0
O450 O 0.33368 0.68939 0.3539 0.0
O451 O 0.32394 0.63571 0.383 0.0
C452 C 0.31837 0.67311 0.36903 0.0
O453 O 0.37081 0.61312 0.40487 0.0
O454 O 0.37261 0.75495 0.33503 0.0
O455 O 0.39653 0.75701 0.36388 0.0
O456 O 0.36424 0.69744 0.39614 0.0
C457 C 0.36914 0.6613 0.41099 0.0
O458 O 0.39028 0.56182 0.36266 0.0
O459 O 0.40565 0.64307 0.36713 0.0
O460 O 0.37748 0.63721 0.32828 0.0
O461 O 0.35468 0.50982 0.39715 0.0
O462 O 0.3262 0.51518 0.37249 0.0
O463 O 0.34685 0.58258 0.33743 0.0
C464 C 0.38181 0.83747 0.35065 0.0
C465 C 0.39884 0.86941 0.36097 0.0
C466 C 0.3558 0.91197 0.34579 0.0
C467 C 0.39448 0.92196 0.36365 0.0
C468 C 0.36015 0.85929 0.34318 0.0
C469 C 0.37298 0.94417 0.35592 0.0
C470 C 0.38761 0.78249 0.34683 0.0
C471 C 0.40853 0.59343 0.36445 0.0
H472 H 0.36715 0.44347 0.35686 0.0
H473 H 0.31989 0.31552 0.40002 0.0
H474 H 0.37314 0.35171 0.34935 0.0
H475 H 0.3137 0.40698 0.40692 0.0
H476 H 0.41573 0.85374 0.36681 0.0
H477 H 0.33917 0.92761 0.33937 0.0
H478 H 0.40798 0.94515 0.37188 0.0
H479 H 0.34667 0.83589 0.33503 0.0
Eu480 Eu 0.37713 0.34935 0.86147 0.0
Eu481 Eu 0.3557 0.46538 0.87597 0.0
C482 C 0.37352 0.38473 0.91324 0.0
C483 C 0.38811 0.20315 0.85366 0.0
C484 C 0.36939 0.18631 0.86764 0.0
C485 C 0.39791 0.11442 0.84495 0.0
C486 C 0.36499 0.13365 0.8703 0.0
C487 C 0.40225 0.16687 0.84233 0.0
C488 C 0.37929 0.09697 0.85903 0.0
C489 C 0.39326 0.25809 0.85043 0.0
O490 O 0.39296 0.47953 0.86278 0.0
O491 O 0.40903 0.39906 0.86838 0.0
C492 C 0.41144 0.44845 0.86467 0.0
O493 O 0.37876 0.39788 0.82946 0.0
O494 O 0.35784 0.533 0.89762 0.0
O495 O 0.3291 0.52696 0.87323 0.0
O496 O 0.35134 0.46098 0.83826 0.0
C497 C 0.36508 0.437 0.82363 0.0
O498 O 0.33737 0.34344 0.85984 0.0
O499 O 0.32676 0.40774 0.88454 0.0
O500 O 0.37482 0.43208 0.90594 0.0
O501 O 0.37809 0.28418 0.8382 0.0
O502 O 0.40052 0.28375 0.8681 0.0
O503 O 0.36908 0.34658 0.89926 0.0
C504 C 0.34252 0.61057 0.8829 0.0
C505 C 0.36057 0.6275 0.86817 0.0
C506 C 0.33099 0.69923 0.88972 0.0
C507 C 0.36391 0.68012 0.86437 0.0
C508 C 0.32769 0.64675 0.8935 0.0
C509 C 0.34925 0.71674 0.87524 0.0
C510 C 0.33953 0.55578 0.88835 0.0
C511 C 0.32205 0.36473 0.87376 0.0
H512 H 0.35826 0.21383 0.87653 0.0
H513 H 0.409 0.08753 0.83568 0.0
H514 H 0.35064 0.12168 0.88142 0.0
H515 H 0.41669 0.17916 0.83134 0.0
H516 H 0.37221 0.60008 0.85982 0.0
H517 H 0.31959 0.72613 0.89865 0.0
H518 H 0.37795 0.69209 0.8529 0.0
H519 H 0.31377 0.63442 0.90505 0.0
Eu520 Eu 0.60973 0.69592 0.8607 0.0
Eu521 Eu 0.63416 0.58073 0.87002 0.0
C522 C 0.61566 0.65074 0.91091 0.0
C523 C 0.59652 0.84159 0.85593 0.0
C524 C 0.61769 0.85828 0.86637 0.0
C525 C 0.58394 0.93038 0.85168 0.0
C526 C 0.622 0.91087 0.86935 0.0
C527 C 0.57968 0.87796 0.84872 0.0
C528 C 0.60522 0.94767 0.8619 0.0
C529 C 0.59166 0.78672 0.85205 0.0
O530 O 0.59567 0.56523 0.86036 0.0
O531 O 0.57886 0.6442 0.86804 0.0
C532 C 0.57692 0.59498 0.86376 0.0
O533 O 0.60754 0.64756 0.82866 0.0
O534 O 0.6483 0.5192 0.89164 0.0
O535 O 0.64837 0.5106 0.85517 0.0
O536 O 0.64309 0.60876 0.83511 0.0
C537 C 0.62587 0.62097 0.82112 0.0
O538 O 0.64935 0.70817 0.85985 0.0
O539 O 0.66321 0.63723 0.87922 0.0
O540 O 0.61528 0.60456 0.90198 0.0
O541 O 0.60624 0.76241 0.83848 0.0
O542 O 0.58589 0.75933 0.86971 0.0
O543 O 0.61855 0.6918 0.89821 0.0
C544 C 0.64513 0.43457 0.87666 0.0
C545 C 0.6227 0.41802 0.86886 0.0
C546 C 0.6558 0.34598 0.88487 0.0
C547 C 0.61702 0.36566 0.86872 0.0
C548 C 0.66146 0.39827 0.88495 0.0
C549 C 0.63365 0.32884 0.87641 0.0
C550 C 0.6526 0.48865 0.8746 0.0
C551 C 0.66611 0.68392 0.87118 0.0
H552 H 0.63092 0.83069 0.87204 0.0
H553 H 0.57042 0.95736 0.8461 0.0
H554 H 0.63867 0.9227 0.8771 0.0
H555 H 0.56319 0.8658 0.84072 0.0
H556 H 0.6098 0.44544 0.86241 0.0
H557 H 0.66916 0.31886 0.89069 0.0
H558 H 0.59967 0.35399 0.8624 0.0
H559 H 0.67893 0.41024 0.89091 0.0
Eu560 Eu 0.37327 0.68311 0.63141 0.0
Eu561 Eu 0.35333 0.56835 0.61442 0.0
C562 C 0.36846 0.65497 0.57905 0.0
C563 C 0.38136 0.83016 0.64043 0.0
C564 C 0.36912 0.84817 0.62122 0.0
C565 C 0.38453 0.9179 0.65415 0.0
C566 C 0.36479 0.90087 0.61843 0.0
C567 C 0.38883 0.86539 0.65691 0.0
C568 C 0.37266 0.93654 0.63478 0.0
C569 C 0.38721 0.7753 0.6435 0.0
O570 O 0.39112 0.55424 0.62613 0.0
O571 O 0.40608 0.63641 0.62353 0.0
C572 C 0.40916 0.58658 0.62535 0.0
O573 O 0.37745 0.63148 0.66212 0.0
O574 O 0.35598 0.50228 0.59177 0.0
O575 O 0.32673 0.50697 0.61573 0.0
O576 O 0.35117 0.5668 0.65248 0.0
C577 C 0.36478 0.59049 0.66734 0.0
O578 O 0.33393 0.6793 0.63777 0.0
O579 O 0.32382 0.6268 0.60837 0.0
O580 O 0.37106 0.6068 0.58489 0.0
O581 O 0.37216 0.74773 0.65514 0.0
O582 O 0.39564 0.75059 0.626 0.0
O583 O 0.36313 0.6902 0.5942 0.0
C584 C 0.34041 0.42382 0.60533 0.0
C585 C 0.35254 0.40645 0.6247 0.0
C586 C 0.33419 0.33524 0.5938 0.0
C587 C 0.35545 0.35368 0.62859 0.0
C588 C 0.33129 0.38785 0.58996 0.0
C589 C 0.34632 0.31729 0.61316 0.0
C590 C 0.33751 0.47901 0.60045 0.0
C591 C 0.3183 0.66297 0.62298 0.0
H592 H 0.36318 0.8216 0.60828 0.0
H593 H 0.39046 0.94392 0.66731 0.0
H594 H 0.35577 0.91375 0.60323 0.0
H595 H 0.3982 0.85227 0.6719 0.0
H596 H 0.35977 0.43367 0.63676 0.0
H597 H 0.32728 0.30864 0.58132 0.0
H598 H 0.36466 0.34142 0.64379 0.0
H599 H 0.32203 0.40049 0.57482 0.0
Eu600 Eu 0.61074 0.35199 0.63418 0.0
Eu601 Eu 0.63421 0.46686 0.62267 0.0
C602 C 0.61611 0.39191 0.58323 0.0
C603 C 0.5984 0.20647 0.6411 0.0
C604 C 0.61751 0.18936 0.6276 0.0
C605 C 0.588 0.11784 0.64915 0.0
C606 C 0.62182 0.13664 0.62489 0.0
C607 C 0.58371 0.17037 0.6518 0.0
C608 C 0.60714 0.10015 0.63571 0.0
C609 C 0.59337 0.26152 0.64437 0.0
O610 O 0.59581 0.48266 0.63254 0.0
O611 O 0.57961 0.40279 0.62588 0.0
C612 C 0.57728 0.4523 0.62942 0.0
O613 O 0.60779 0.40271 0.66542 0.0
O614 O 0.645 0.52875 0.59962 0.0
O615 O 0.65113 0.53608 0.63563 0.0
O616 O 0.64263 0.44394 0.65847 0.0
C617 C 0.62553 0.43148 0.67253 0.0
O618 O 0.65051 0.34163 0.63541 0.0
O619 O 0.66331 0.40998 0.61385 0.0
O620 O 0.61551 0.43893 0.59126 0.0
O621 O 0.60809 0.28691 0.65734 0.0
O622 O 0.58711 0.28766 0.62647 0.0
O623 O 0.61951 0.35223 0.59664 0.0
C624 C 0.64485 0.61299 0.61526 0.0
C625 C 0.62461 0.63058 0.62709 0.0
C626 C 0.65397 0.70099 0.60466 0.0
C627 C 0.61932 0.68315 0.62798 0.0
C628 C 0.65927 0.64851 0.60384 0.0
C629 C 0.63412 0.71915 0.61701 0.0
C630 C 0.65222 0.55859 0.61596 0.0
C631 C 0.66682 0.36462 0.62307 0.0
H632 H 0.6291 0.21674 0.61924 0.0
H633 H 0.57608 0.09106 0.65744 0.0
H634 H 0.63685 0.12449 0.61461 0.0
H635 H 0.56883 0.18284 0.66223 0.0
H636 H 0.61318 0.6038 0.636 0.0
H637 H 0.66592 0.72746 0.59622 0.0
H638 H 0.6037 0.69562 0.63737 0.0
H639 H 0.67504 0.63576 0.59473 0.0
H640 H 0.17351 0.27731 0.12656 0.0
H641 H 0.31407 0.25098 0.1248 0.0
H642 H 0.20825 0.13453 0.10925 0.0
H643 H 0.27843 0.39572 0.11327 0.0
H644 H 0.27571 0.20709 0.12105 0.0
H645 H 0.21189 0.32112 0.12367 0.0
C646 C 0.18927 0.25517 0.12212 0.0
C647 C 0.18783 0.2021 0.11838 0.0
C648 C 0.27633 0.24838 0.11914 0.0
C649 C 0.23178 0.25207 0.11515 0.0
C650 C 0.29816 0.27354 0.12144 0.0
C651 C 0.29935 0.32717 0.11957 0.0
C652 C 0.25548 0.27711 0.11536 0.0
C653 C 0.27826 0.35437 0.1149 0.0
C654 C 0.21112 0.28031 0.12031 0.0
C655 C 0.20868 0.17546 0.11232 0.0
N656 N 0.25709 0.32906 0.11325 0.0
N657 N 0.22995 0.20067 0.11121 0.0
H658 H 0.79371 0.83813 0.15855 0.0
H659 H 0.69908 0.67605 0.08854 0.0
H660 H 0.79084 0.84889 0.08569 0.0
H661 H 0.68647 0.73057 0.15657 0.0
H662 H 0.73577 0.72848 0.0871 0.0
H663 H 0.75679 0.78858 0.15815 0.0
C664 C 0.78509 0.83041 0.14246 0.0
C665 C 0.79513 0.84776 0.12213 0.0
C666 C 0.72486 0.72875 0.10227 0.0
C667 C 0.7532 0.79008 0.12148 0.0
C668 C 0.70417 0.69855 0.10319 0.0
C669 C 0.68984 0.69902 0.12271 0.0
C670 C 0.73129 0.7585 0.12116 0.0
C671 C 0.69698 0.72923 0.14116 0.0
C672 C 0.76407 0.80211 0.14223 0.0
C673 C 0.78338 0.83661 0.10172 0.0
N674 N 0.71724 0.75749 0.13997 0.0
N675 N 0.76305 0.8078 0.10185 0.0
H676 H 0.28878 0.68647 0.40601 0.0
H677 H 0.19054 0.83798 0.3345 0.0
H678 H 0.29543 0.7214 0.33484 0.0
H679 H 0.19592 0.85706 0.40691 0.0
H680 H 0.22696 0.78676 0.33492 0.0
H681 H 0.25213 0.73941 0.40738 0.0
C682 C 0.28236 0.70466 0.39068 0.0
C683 C 0.29506 0.69956 0.37027 0.0
C684 C 0.22037 0.80241 0.35075 0.0
C685 C 0.25365 0.75984 0.37174 0.0
C686 C 0.19959 0.83173 0.3505 0.0
C687 C 0.19034 0.85192 0.37069 0.0
C688 C 0.23189 0.79232 0.37139 0.0
C689 C 0.20273 0.84258 0.39096 0.0
C690 C 0.26169 0.73521 0.39152 0.0
C691 C 0.28623 0.72441 0.35094 0.0
N692 N 0.22285 0.81288 0.39087 0.0
N693 N 0.2661 0.75326 0.35214 0.0
H694 H 0.78829 0.18359 0.40677 0.0
H695 H 0.68888 0.33111 0.33524 0.0
H696 H 0.79446 0.217 0.33542 0.0
H697 H 0.69553 0.35485 0.40729 0.0
H698 H 0.72532 0.27995 0.33572 0.0
H699 H 0.7515 0.23608 0.40809 0.0
C700 C 0.78173 0.20134 0.39138 0.0
C701 C 0.79433 0.19596 0.37094 0.0
C702 C 0.71899 0.29659 0.35144 0.0
C703 C 0.75276 0.2557 0.37236 0.0
C704 C 0.6982 0.32586 0.35117 0.0
C705 C 0.68931 0.34737 0.37124 0.0
C706 C 0.7309 0.28789 0.372 0.0
C707 C 0.70204 0.33931 0.39142 0.0
C708 C 0.76098 0.23165 0.3922 0.0
C709 C 0.78533 0.22025 0.35154 0.0
N710 N 0.72219 0.30964 0.39137 0.0
N711 N 0.76511 0.24885 0.35273 0.0
H712 H 0.6734 0.78708 0.87123 0.0
H713 H 0.8141 0.76694 0.86611 0.0
H714 H 0.71058 0.64303 0.87959 0.0
H715 H 0.77838 0.90726 0.88543 0.0
H716 H 0.77626 0.7212 0.86943 0.0
H717 H 0.71139 0.8323 0.87493 0.0
C718 C 0.68958 0.76493 0.8739 0.0
C719 C 0.68891 0.71113 0.87485 0.0
C720 C 0.7767 0.76189 0.87313 0.0
C721 C 0.73241 0.76277 0.879 0.0
C722 C 0.79824 0.78815 0.87108 0.0
C723 C 0.79925 0.84112 0.87524 0.0
C724 C 0.75589 0.78889 0.87899 0.0
C725 C 0.77829 0.86647 0.88199 0.0
C726 C 0.71121 0.79086 0.87617 0.0
C727 C 0.71034 0.68449 0.87867 0.0
N728 N 0.75731 0.8402 0.88336 0.0
N729 N 0.73133 0.7106 0.8803 0.0
H730 H 0.31455 0.26213 0.87115 0.0
H731 H 0.17421 0.28155 0.87073 0.0
H732 H 0.27823 0.40462 0.88574 0.0
H733 H 0.21045 0.14001 0.88707 0.0
H734 H 0.21201 0.32745 0.8746 0.0
H735 H 0.27673 0.2165 0.87535 0.0
C736 C 0.29857 0.28382 0.8753 0.0
C737 C 0.29941 0.33734 0.87784 0.0
C738 C 0.21167 0.28646 0.87757 0.0
C739 C 0.25609 0.28527 0.88253 0.0
C740 C 0.19017 0.26014 0.87519 0.0
C741 C 0.18933 0.20679 0.87832 0.0
C742 C 0.23261 0.25914 0.88263 0.0
C743 C 0.21041 0.1811 0.88444 0.0
C744 C 0.27705 0.25765 0.87786 0.0
C745 C 0.27829 0.36339 0.88356 0.0
N746 N 0.23135 0.20746 0.88605 0.0
N747 N 0.25734 0.33715 0.88537 0.0
H748 H 0.71066 0.40524 0.61229 0.0
H749 H 0.77782 0.13383 0.60827 0.0
H750 H 0.67477 0.2617 0.6252 0.0
H751 H 0.8132 0.27584 0.62513 0.0
H752 H 0.73965 0.18079 0.60577 0.0
H753 H 0.74856 0.35824 0.60827 0.0
C754 C 0.71074 0.3639 0.61411 0.0
C755 C 0.68967 0.33738 0.61939 0.0
C756 C 0.75586 0.2015 0.60989 0.0
C757 C 0.73264 0.2836 0.61453 0.0
C758 C 0.77756 0.17483 0.61124 0.0
C759 C 0.79853 0.20092 0.61723 0.0
C760 C 0.75538 0.2546 0.61409 0.0
C761 C 0.79732 0.25411 0.62085 0.0
C762 C 0.73231 0.33717 0.61187 0.0
C763 C 0.69071 0.28374 0.62149 0.0
N764 N 0.77611 0.2792 0.61922 0.0
N765 N 0.71184 0.25858 0.61905 0.0
H766 H 0.19824 0.8584 0.58625 0.0
H767 H 0.29447 0.70219 0.65876 0.0
H768 H 0.19307 0.83134 0.65819 0.0
H769 H 0.28969 0.68502 0.58622 0.0
H770 H 0.25896 0.75613 0.65817 0.0
H771 H 0.23412 0.80309 0.58511 0.0
C772 C 0.20488 0.84153 0.6018 0.0
C773 C 0.19278 0.84942 0.62236 0.0
C774 C 0.26545 0.74032 0.64234 0.0
C775 C 0.23325 0.78625 0.62115 0.0
C776 C 0.2857 0.70938 0.64269 0.0
C777 C 0.2949 0.689 0.62252 0.0
C778 C 0.25437 0.7518 0.62161 0.0
C779 C 0.2829 0.69961 0.60216 0.0
C780 C 0.2251 0.80958 0.6011 0.0
C781 C 0.20182 0.82615 0.64197 0.0
N782 N 0.26329 0.73084 0.60216 0.0
N783 N 0.22146 0.79577 0.64087 0.0
H784 H 0.11044 0.8999 0.2858 0.0
H785 H 0.11026 0.15281 0.20973 0.0
H786 H 0.12819 0.0485 0.31322 0.0
H787 H 0.12937 1.00426 0.18288 0.0
H788 H 0.10906 0.11525 0.24794 0.0
H789 H 0.10949 0.93785 0.24769 0.0
C790 C 0.11402 0.94046 0.28382 0.0
C791 C 0.11961 0.97098 0.30265 0.0
C792 C 0.11351 0.09104 0.23362 0.0
C793 C 0.11816 1.01463 0.25934 0.0
C794 C 0.11414 0.11237 0.21186 0.0
C795 C 0.12015 0.08174 0.19316 0.0
C796 C 0.11834 0.03852 0.23655 0.0
C797 C 0.12496 0.02946 0.19687 0.0
C798 C 0.11356 0.96202 0.26211 0.0
C799 C 0.12409 0.02342 0.29912 0.0
N800 N 0.12381 1.00945 0.2181 0.0
N801 N 0.12314 0.04365 0.27792 0.0
H802 H 0.87425 0.14636 0.28407 0.0
H803 H 0.87431 0.89332 0.20794 0.0
H804 H 0.85533 0.99811 0.31108 0.0
H805 H 0.8565 0.04217 0.18073 0.0
H806 H 0.8752 0.93109 0.24612 0.0
H807 H 0.87559 0.1085 0.24592 0.0
C808 C 0.87048 0.1059 0.28198 0.0
C809 C 0.86446 0.07545 0.30071 0.0
C810 C 0.87112 0.95534 0.23173 0.0
C811 C 0.86638 0.03189 0.25737 0.0
C812 C 0.87069 0.93389 0.20999 0.0
C813 C 0.86511 0.96455 0.19119 0.0
C814 C 0.86652 1.00798 0.23457 0.0
C815 C 0.86058 1.01698 0.19479 0.0
C816 C 0.87117 0.0844 0.26026 0.0
C817 C 0.85976 0.02315 0.29706 0.0
N818 N 0.86152 0.0371 0.21603 0.0
N819 N 0.86095 1.00295 0.27585 0.0
H820 H 0.8757 0.14902 0.70855 0.0
H821 H 0.87612 0.89416 0.78336 0.0
H822 H 0.85759 1.00103 0.68069 0.0
H823 H 0.85689 0.04172 0.81118 0.0
H824 H 0.87723 0.933 0.7454 0.0
H825 H 0.87671 0.11031 0.74655 0.0
C826 C 0.87202 0.10847 0.71042 0.0
C827 C 0.8663 0.07833 0.6915 0.0
C828 C 0.87278 0.95671 0.75988 0.0
C829 C 0.8679 0.03381 0.73464 0.0
C830 C 0.8722 0.93465 0.78148 0.0
C831 C 0.86616 0.96462 0.80038 0.0
C832 C 0.86787 1.0093 0.75729 0.0
C833 C 0.86131 1.01701 0.79702 0.0
C834 C 0.87253 0.08648 0.73205 0.0
C835 C 0.86175 0.02586 0.69486 0.0
N836 N 0.86241 0.03775 0.77593 0.0
N837 N 0.86278 1.00522 0.71597 0.0
H838 H 0.13353 1.00577 0.8127 0.0
H839 H 0.13146 0.05015 0.68017 0.0
H840 H 0.11358 0.15213 0.7842 0.0
H841 H 0.11443 0.9031 0.70947 0.0
H842 H 0.13018 0.08859 0.71798 0.0
H843 H 0.13197 0.96781 0.77486 0.0
C844 C 0.12896 0.03005 0.79845 0.0
C845 C 0.12384 0.08237 0.80159 0.0
C846 C 0.12664 0.04798 0.71611 0.0
C847 C 0.12215 0.03897 0.75821 0.0
C848 C 0.12752 0.02588 0.69458 0.0
C849 C 0.12317 0.97321 0.69169 0.0
C850 C 0.12191 1.01706 0.735 0.0
C851 C 0.11787 0.94381 0.71095 0.0
C852 C 0.12789 1.00818 0.7769 0.0
C853 C 0.11768 0.1117 0.78253 0.0
N854 N 0.11767 0.96602 0.73184 0.0
N855 N 0.11727 0.08972 0.76157 0.0
H856 H 0.58386 0.44667 0.29469 0.0
H857 H 0.66145 0.57245 0.19575 0.0
H858 H 0.6583 0.48707 0.3021 0.0
H859 H 0.58477 0.59095 0.19855 0.0
H860 H 0.66048 0.53134 0.23289 0.0
H861 H 0.58366 0.48864 0.25729 0.0
C862 C 0.6002 0.46378 0.28836 0.0
C863 C 0.62114 0.46329 0.30152 0.0
C864 C 0.64386 0.54465 0.22548 0.0
C865 C 0.62102 0.5112 0.25894 0.0
C866 C 0.64439 0.56818 0.20427 0.0
C867 C 0.62317 0.58549 0.19409 0.0
C868 C 0.62188 0.53731 0.23654 0.0
C869 C 0.60157 0.57871 0.20592 0.0
C870 C 0.6 0.48811 0.26715 0.0
C871 C 0.64173 0.48661 0.2926 0.0
N872 N 0.60143 0.5547 0.22646 0.0
N873 N 0.64117 0.50931 0.27189 0.0
H874 H 0.32473 0.55683 0.30056 0.0
H875 H 0.40232 0.43573 0.20021 0.0
H876 H 0.39975 0.59125 0.2927 0.0
H877 H 0.32571 0.45524 0.19681 0.0
H878 H 0.40252 0.48291 0.23635 0.0
H879 H 0.32546 0.51106 0.2645 0.0
C880 C 0.34136 0.55507 0.29114 0.0
C881 C 0.36219 0.57816 0.29963 0.0
C882 C 0.3857 0.47662 0.22768 0.0
C883 C 0.36326 0.52465 0.25836 0.0
C884 C 0.38553 0.44926 0.2072 0.0
C885 C 0.36394 0.4413 0.19551 0.0
C886 C 0.36408 0.4954 0.23668 0.0
C887 C 0.34276 0.46039 0.20521 0.0
C888 C 0.34175 0.52886 0.27053 0.0
C889 C 0.38322 0.57449 0.28666 0.0
N890 N 0.34336 0.48627 0.2252 0.0
N891 N 0.38329 0.54777 0.26675 0.0
H892 H 0.37626 0.38679 0.78384 0.0
H893 H 0.37537 0.63959 0.70735 0.0
H894 H 0.35687 0.53548 0.81032 0.0
H895 H 0.35799 0.49079 0.67995 0.0
H896 H 0.3766 0.60158 0.74545 0.0
H897 H 0.37742 0.42402 0.7455 0.0
C898 C 0.37232 0.42717 0.78161 0.0
C899 C 0.36621 0.45792 0.80027 0.0
C900 C 0.37257 0.57735 0.73104 0.0
C901 C 0.36801 0.50081 0.75671 0.0
C902 C 0.37195 0.59896 0.70933 0.0
C903 C 0.36635 0.56845 0.69048 0.0
C904 C 0.36814 0.52466 0.73385 0.0
C905 C 0.36208 0.5159 0.69404 0.0
C906 C 0.37293 0.44832 0.75978 0.0
C907 C 0.36134 0.51014 0.7964 0.0
N908 N 0.36319 0.49563 0.71525 0.0
N909 N 0.36249 0.52996 0.77513 0.0
H910 H 0.66422 0.58541 0.79724 0.0
H911 H 0.58715 0.4456 0.70121 0.0
H912 H 0.58746 0.60104 0.79321 0.0
H913 H 0.66292 0.47444 0.6954 0.0
H914 H 0.58671 0.49416 0.73695 0.0
H915 H 0.66391 0.53801 0.76155 0.0
C916 C 0.64729 0.57929 0.78872 0.0
C917 C 0.62585 0.59753 0.79819 0.0
C918 C 0.60342 0.48964 0.72785 0.0
C919 C 0.6253 0.5421 0.7574 0.0
C920 C 0.60373 0.46151 0.70758 0.0
C921 C 0.62512 0.45578 0.69531 0.0
C922 C 0.62471 0.51158 0.73604 0.0
C923 C 0.64601 0.47784 0.70425 0.0
C924 C 0.64712 0.55209 0.76834 0.0
C925 C 0.60444 0.58818 0.7864 0.0
N926 N 0.64528 0.50454 0.72403 0.0
N927 N 0.60467 0.56071 0.76671 0.0
H928 H 0.08528 0.10972 0.94115 0.0
H929 H 0.13174 0.24137 0.05548 0.0
H930 H 0.13347 0.23871 0.94027 0.0
H931 H 0.08749 0.10629 0.05138 0.0
H932 H 0.12872 0.25063 0.01396 0.0
H933 H 0.08154 0.11817 0.98191 0.0
C934 C 0.09498 0.14019 0.94959 0.0
C935 C 0.10994 0.17315 0.93735 0.0
C936 C 0.11948 0.21939 0.02227 0.0
C937 C 0.10609 0.18268 0.98445 0.0
C938 C 0.12112 0.21422 0.04592 0.0
C939 C 0.1101 0.17262 0.05683 0.0
C940 C 0.10652 0.18296 0.00967 0.0
C941 C 0.0966 0.13848 0.04368 0.0
C942 C 0.09286 0.14504 0.97295 0.0
C943 C 0.12179 0.21244 0.94915 0.0
N944 N 0.09532 0.1443 0.02092 0.0
N945 N 0.11991 0.2157 0.97218 0.0
H946 H 0.90236 0.93342 0.94084 0.0
H947 H 0.85041 0.80447 0.05345 0.0
H948 H 0.85252 0.80747 0.93827 0.0
H949 H 0.89975 0.93137 0.05102 0.0
H950 H 0.85419 0.79544 0.01195 0.0
H951 H 0.90524 0.9234 0.98158 0.0
C952 C 0.89211 0.90329 0.94891 0.0
C953 C 0.87697 0.87163 0.93621 0.0
C954 C 0.86439 0.82475 0.02062 0.0
C955 C 0.87981 0.86031 0.98328 0.0
C956 C 0.86231 0.82975 0.04426 0.0
C957 C 0.87454 0.86917 0.0556 0.0
C958 C 0.87894 0.85917 0.00849 0.0
C959 C 0.88968 0.90098 0.04295 0.0
C960 C 0.89375 0.89751 0.97226 0.0
C961 C 0.86437 0.83272 0.94752 0.0
N962 N 0.89131 0.89546 0.02019 0.0
N963 N 0.86577 0.8286 0.97056 0.0
H964 H 0.13805 0.80865 0.43905 0.0
H965 H 0.08505 0.92744 0.55365 0.0
H966 H 0.08706 0.93267 0.44359 0.0
H967 H 0.14081 0.81287 0.55422 0.0
H968 H 0.08111 0.91693 0.51297 0.0
H969 H 0.13539 0.79775 0.48054 0.0
C970 C 0.12602 0.83288 0.44871 0.0
C971 C 0.11297 0.87204 0.43797 0.0
C972 C 0.09414 0.89361 0.52185 0.0
C973 C 0.1098 0.85981 0.48504 0.0
C974 C 0.09635 0.8996 0.54514 0.0
C975 C 0.11346 0.87143 0.55723 0.0
C976 C 0.10947 0.85983 0.51026 0.0
C977 C 0.12741 0.83536 0.54542 0.0
C978 C 0.12459 0.82682 0.47233 0.0
C979 C 0.09772 0.90251 0.4512 0.0
N980 N 0.12541 0.83114 0.52243 0.0
N981 N 0.09667 0.89591 0.47393 0.0
H982 H 0.8525 0.23845 0.55436 0.0
H983 H 0.90075 0.11104 0.43965 0.0
H984 H 0.89917 0.10684 0.54979 0.0
H985 H 0.84845 0.23292 0.43918 0.0
H986 H 0.905 0.12083 0.48031 0.0
H987 H 0.85489 0.24796 0.5128 0.0
C988 C 0.86353 0.21218 0.54468 0.0
C989 C 0.87543 0.17142 0.55545 0.0
C990 C 0.89265 0.14586 0.47146 0.0
C991 C 0.8783 0.18206 0.50828 0.0
C992 C 0.89024 0.14026 0.44817 0.0
C993 C 0.87399 0.17074 0.4361 0.0
C994 C 0.87841 0.18171 0.48307 0.0
C995 C 0.86113 0.20856 0.44795 0.0
C996 C 0.8648 0.21746 0.52101 0.0
C997 C 0.88941 0.13835 0.54218 0.0
N998 N 0.86332 0.2125 0.47094 0.0
N999 N 0.89034 0.14428 0.51941 0.0
H1000 H 0.59924 0.57319 0.05139 0.0
H1001 H 0.62456 0.73467 0.9384 0.0
H1002 H 0.62688 0.7276 0.05364 0.0
H1003 H 0.60139 0.57689 0.94053 0.0
H1004 H 0.62274 0.73739 0.98009 0.0
H1005 H 0.59689 0.57867 0.0105 0.0
C1006 C 0.6048 0.60848 0.04328 0.0
C1007 C 0.6135 0.64984 0.05607 0.0
C1008 C 0.61795 0.70237 0.97134 0.0
C1009 C 0.61094 0.65634 0.00867 0.0
C1010 C 0.61891 0.70081 0.94756 0.0
C1011 C 0.61327 0.65537 0.9359 0.0
C1012 C 0.61115 0.65827 0.98343 0.0
C1013 C 0.60612 0.61268 0.94867 0.0
C1014 C 0.60343 0.61159 0.0198 0.0
C1015 C 0.62012 0.69473 0.04446 0.0
N1016 N 0.60534 0.61521 0.97161 0.0
N1017 N 0.61888 0.69669 0.02136 0.0
H1018 H 0.35908 0.30254 0.93983 0.0
H1019 H 0.39147 0.4545 0.05368 0.0
H1020 H 0.39533 0.44838 0.94306 0.0
H1021 H 0.36134 0.30226 0.05532 0.0
H1022 H 0.39426 0.44903 0.01278 0.0
H1023 H 0.36117 0.29721 0.98154 0.0
C1024 C 0.36773 0.333 0.94923 0.0
C1025 C 0.37678 0.37625 0.93793 0.0
C1026 C 0.38712 0.41652 0.02194 0.0
C1027 C 0.37913 0.37057 0.9854 0.0
C1028 C 0.38546 0.41971 0.04542 0.0
C1029 C 0.37599 0.37894 0.05802 0.0
C1030 C 0.37902 0.37238 0.01065 0.0
C1031 C 0.36875 0.33464 0.04626 0.0
C1032 C 0.36884 0.33004 0.973 0.0
C1033 C 0.38776 0.41464 0.95096 0.0
N1034 N 0.3702 0.33268 0.02317 0.0
N1035 N 0.38847 0.41098 0.97384 0.0
H1036 H 0.63219 0.30886 0.44056 0.0
H1037 H 0.59509 0.458 0.55382 0.0
H1038 H 0.59062 0.44837 0.44343 0.0
H1039 H 0.62971 0.31001 0.55619 0.0
H1040 H 0.59207 0.45075 0.513 0.0
H1041 H 0.6301 0.30346 0.4823 0.0
C1042 C 0.62236 0.33781 0.44989 0.0
C1043 C 0.61184 0.37948 0.43851 0.0
C1044 C 0.60025 0.41952 0.5223 0.0
C1045 C 0.60947 0.37377 0.48597 0.0
C1046 C 0.60204 0.42376 0.54573 0.0
C1047 C 0.61284 0.38475 0.55849 0.0
C1048 C 0.6096 0.37617 0.51121 0.0
C1049 C 0.62125 0.34101 0.54697 0.0
C1050 C 0.62125 0.33486 0.47367 0.0
C1051 C 0.59936 0.41599 0.45143 0.0
N1052 N 0.61969 0.33808 0.5239 0.0
N1053 N 0.59869 0.41242 0.47431 0.0
H1054 H 0.34786 0.73336 0.55389 0.0
H1055 H 0.40058 0.61492 0.43889 0.0
H1056 H 0.39665 0.60541 0.54893 0.0
H1057 H 0.34661 0.73332 0.43828 0.0
H1058 H 0.40358 0.62288 0.47974 0.0
H1059 H 0.3508 0.74485 0.51242 0.0
C1060 C 0.35944 0.7083 0.54416 0.0
C1061 C 0.37182 0.668 0.55482 0.0
C1062 C 0.39114 0.64759 0.47083 0.0
C1063 C 0.37532 0.68091 0.50771 0.0
C1064 C 0.38948 0.64308 0.44742 0.0
C1065 C 0.37317 0.67313 0.43522 0.0
C1066 C 0.37607 0.68185 0.48245 0.0
C1067 C 0.35943 0.70944 0.44713 0.0
C1068 C 0.36103 0.71471 0.52054 0.0
C1069 C 0.3865 0.63652 0.54144 0.0
N1070 N 0.3609 0.71229 0.47022 0.0
N1071 N 0.38774 0.64353 0.51873 0.0
H1072 H 0.95141 0.89574 0.12847 0.0
H1073 H 0.03269 0.14738 0.12858 0.0
H1074 H 0.92295 0.04996 0.12963 0.0
H1075 H 0.06134 0.99349 0.13191 0.0
H1076 H 0.99237 0.11221 0.12949 0.0
H1077 H 0.99179 0.93075 0.13023 0.0
C1078 C 0.95362 0.93697 0.12913 0.0
C1079 C 0.93373 0.96997 0.12881 0.0
C1080 C 0.00746 0.08612 0.1301 0.0
C1081 C 0.97997 1.01025 0.13081 0.0
C1082 C 0.03054 0.10616 0.12955 0.0
C1083 C 0.05047 0.07331 0.13006 0.0
C1084 C 0.00424 0.03281 0.13109 0.0
C1085 C 0.04651 1.02027 0.13143 0.0
C1086 C 0.97671 0.95692 0.13017 0.0
C1087 C 0.93773 0.02304 0.12979 0.0
N1088 N 0.02383 1.00165 0.1318 0.0
N1089 N 0.96041 0.04153 0.13067 0.0
H1090 H 0.92205 0.9895 0.36342 0.0
H1091 H 0.062 0.05512 0.36433 0.0
H1092 H 0.95026 0.14364 0.36492 0.0
H1093 H 0.0339 0.90098 0.36719 0.0
H1094 H 0.02113 0.08815 0.3627 0.0
H1095 H 0.96294 0.95622 0.3629 0.0
C1096 C 0.9368 1.01638 0.36358 0.0
C1097 C 0.93267 0.06948 0.3643 0.0
C1098 C 0.02392 0.04709 0.36366 0.0
C1099 C 0.97953 0.03159 0.36372 0.0
C1100 C 0.04727 0.02817 0.36459 0.0
C1101 C 0.05142 0.97516 0.36598 0.0
C1102 C 0.00456 1.01279 0.3641 0.0
C1103 C 0.03159 0.94215 0.3662 0.0
C1104 C 0.96016 0.99733 0.3633 0.0
C1105 C 0.95253 0.10242 0.36444 0.0
N1106 N 0.00903 0.96152 0.3653 0.0
N1107 N 0.97508 0.08292 0.3642 0.0
H1108 H 0.06498 0.99354 0.86114 0.0
H1109 H 0.92432 0.05255 0.86034 0.0
H1110 H 0.03487 0.14621 0.86393 0.0
H1111 H 0.95426 0.89988 0.86431 0.0
H1112 H 0.96478 0.08745 0.85884 0.0
H1113 H 0.02454 0.95843 0.85947 0.0
C1114 C 0.0499 1.01972 0.86132 0.0
C1115 C 0.05335 0.07293 0.86279 0.0
C1116 C 0.96249 0.04631 0.86 0.0
C1117 C 0.00702 0.03294 0.8609 0.0
C1118 C 0.93937 0.02632 0.86083 0.0
C1119 C 0.93586 0.97318 0.86257 0.0
C1120 C 0.98224 1.01295 0.86086 0.0
C1121 C 0.95608 0.94111 0.86309 0.0
C1122 C 0.0268 0.99962 0.8604 0.0
C1123 C 0.0331 0.10493 0.86293 0.0
N1124 N 0.9784 0.96151 0.86228 0.0
N1125 N 0.01081 0.08442 0.86204 0.0
H1126 H 0.92513 0.99075 0.63111 0.0
H1127 H 0.06519 0.05522 0.6295 0.0
H1128 H 0.95371 0.14423 0.62633 0.0
H1129 H 0.03693 0.90108 0.62904 0.0
H1130 H 0.02436 0.08855 0.63053 0.0
H1131 H 0.96597 0.95716 0.63252 0.0
C1132 C 0.93996 1.01742 0.63041 0.0
C1133 C 0.93596 0.0704 0.62851 0.0
C1134 C 0.0271 0.04743 0.63024 0.0
C1135 C 0.98272 0.03219 0.63013 0.0
C1136 C 0.05043 0.02834 0.62967 0.0
C1137 C 0.05453 0.97524 0.62909 0.0
C1138 C 0.00772 1.01321 0.63026 0.0
C1139 C 0.03466 0.94231 0.62939 0.0
C1140 C 0.96327 0.99819 0.6312 0.0
C1141 C 0.95589 0.10309 0.62771 0.0
N1142 N 0.01212 0.96185 0.62991 0.0
N1143 N 0.97838 0.08344 0.62849 0.0
H1144 H 0.42457 0.54297 0.13326 0.0
H1145 H 0.56517 0.48235 0.13106 0.0
H1146 H 0.4542 0.39018 0.12794 0.0
H1147 H 0.53525 0.63515 0.12765 0.0
H1148 H 0.52457 0.44761 0.13262 0.0
H1149 H 0.4652 0.57749 0.13394 0.0
C1150 C 0.43958 0.51669 0.13228 0.0
C1151 C 0.43596 0.46365 0.13043 0.0
C1152 C 0.52695 0.48875 0.13154 0.0
C1153 C 0.48242 0.5028 0.13123 0.0
C1154 C 0.55011 0.50858 0.13067 0.0
C1155 C 0.55363 0.5617 0.12911 0.0
C1156 C 0.50724 0.52232 0.13093 0.0
C1157 C 0.53344 0.5939 0.12871 0.0
C1158 C 0.46277 0.5364 0.13264 0.0
C1159 C 0.45609 0.43139 0.12925 0.0
N1160 N 0.51113 0.57369 0.1296 0.0
N1161 N 0.47845 0.45148 0.12965 0.0
H1162 H 0.45021 0.64809 0.36406 0.0
H1163 H 0.534 0.39998 0.36709 0.0
H1164 H 0.42325 0.49292 0.36258 0.0
H1165 H 0.56124 0.55476 0.3635 0.0
H1166 H 0.49341 0.4335 0.36526 0.0
H1167 H 0.4909 0.61467 0.36358 0.0
C1168 C 0.45281 0.60692 0.3636 0.0
C1169 C 0.43322 0.57322 0.36346 0.0
C1170 C 0.50824 0.46017 0.36482 0.0
C1171 C 0.47994 0.53475 0.36294 0.0
C1172 C 0.53149 0.4411 0.36591 0.0
C1173 C 0.55113 0.47466 0.36554 0.0
C1174 C 0.50448 0.51326 0.36343 0.0
C1175 C 0.54666 0.52748 0.36387 0.0
C1176 C 0.47611 0.58791 0.3633 0.0
C1177 C 0.43778 0.52032 0.36274 0.0
N1178 N 0.52378 0.54518 0.36295 0.0
N1179 N 0.46069 0.50271 0.3626 0.0
H1180 H 0.45366 0.39517 0.864 0.0
H1181 H 0.53449 0.64692 0.86458 0.0
H1182 H 0.42508 0.54919 0.86135 0.0
H1183 H 0.56374 0.49367 0.86015 0.0
H1184 H 0.49437 0.61134 0.86338 0.0
H1185 H 0.49403 0.43017 0.86247 0.0
C1186 C 0.45584 0.43639 0.86305 0.0
C1187 C 0.43591 0.46934 0.86292 0.0
C1188 C 0.50952 0.58543 0.86261 0.0
C1189 C 0.48218 0.50956 0.86119 0.0
C1190 C 0.53252 0.60569 0.86335 0.0
C1191 C 0.55258 0.57318 0.86257 0.0
C1192 C 0.50645 0.53218 0.86118 0.0
C1193 C 0.5488 0.52015 0.86082 0.0
C1194 C 0.47893 0.45629 0.86214 0.0
C1195 C 0.43989 0.52234 0.86154 0.0
N1196 N 0.52614 0.50125 0.86029 0.0
N1197 N 0.46259 0.5408 0.86083 0.0
H1198 H 0.42368 0.48628 0.62775 0.0
H1199 H 0.56347 0.55352 0.63226 0.0
H1200 H 0.451 0.64117 0.62627 0.0
H1201 H 0.53517 0.39975 0.6276 0.0
H1202 H 0.52245 0.58691 0.6321 0.0
H1203 H 0.46465 0.45422 0.6297 0.0
C1204 C 0.43827 0.51358 0.62785 0.0
C1205 C 0.43386 0.5665 0.62676 0.0
C1206 C 0.52529 0.54587 0.63114 0.0
C1207 C 0.48087 0.53002 0.62902 0.0
C1208 C 0.54869 0.5268 0.63126 0.0
C1209 C 0.5528 0.47378 0.62985 0.0
C1210 C 0.50594 0.51162 0.62969 0.0
C1211 C 0.53294 0.44094 0.6286 0.0
C1212 C 0.46169 0.49524 0.62896 0.0
C1213 C 0.45352 0.60003 0.627 0.0
N1214 N 0.51043 0.4604 0.62853 0.0
N1215 N 0.47618 0.58122 0.62809 0.0
H1216 H 0.16927 0.74686 0.11078 0.0
H1217 H 0.07681 0.52432 0.14401 0.0
H1218 H 0.09632 0.77529 0.13146 0.0
H1219 H 0.14957 0.49521 0.12292 0.0
H1220 H 0.08387 0.61621 0.14 0.0
H1221 H 0.16256 0.6549 0.11543 0.0
C1222 C 0.1518 0.73387 0.11624 0.0
C1223 C 0.13332 0.76923 0.12063 0.0
C1224 C 0.09831 0.58978 0.13625 0.0
C1225 C 0.12557 0.6634 0.12622 0.0
C1226 C 0.09434 0.53715 0.13866 0.0
C1227 C 0.11264 0.50161 0.13391 0.0
C1228 C 0.12077 0.60747 0.129 0.0
C1229 C 0.13482 0.52089 0.12657 0.0
C1230 C 0.14802 0.68123 0.119 0.0
C1231 C 0.11121 0.7498 0.12808 0.0
N1232 N 0.13826 0.57238 0.12439 0.0
N1233 N 0.10796 0.69835 0.13057 0.0
H1234 H 0.88809 0.26651 0.12981 0.0
H1235 H 0.83282 0.54994 0.11847 0.0
H1236 H 0.81614 0.29706 0.10676 0.0
H1237 H 0.90429 0.51862 0.14262 0.0
H1238 H 0.82646 0.45772 0.11371 0.0
H1239 H 0.89416 0.3586 0.13493 0.0
C1240 C 0.87347 0.29243 0.12598 0.0
C1241 C 0.85155 0.27363 0.1178 0.0
C1242 C 0.84353 0.47102 0.12008 0.0
C1243 C 0.85855 0.37975 0.12334 0.0
C1244 C 0.84724 0.5238 0.12266 0.0
C1245 C 0.86913 0.5424 0.13103 0.0
C1246 C 0.86183 0.43628 0.12583 0.0
C1247 C 0.88699 0.5063 0.13645 0.0
C1248 C 0.87702 0.34518 0.12876 0.0
C1249 C 0.83347 0.30954 0.11279 0.0
N1250 N 0.88295 0.4552 0.13376 0.0
N1251 N 0.83737 0.36068 0.11562 0.0
H1252 H 0.09818 0.27189 0.36184 0.0
H1253 H 0.15221 0.55521 0.37647 0.0
H1254 H 0.16861 0.30226 0.38868 0.0
H1255 H 0.0823 0.52416 0.34859 0.0
H1256 H 0.15847 0.46294 0.38133 0.0
H1257 H 0.09227 0.364 0.35649 0.0
C1258 C 0.1125 0.29777 0.36646 0.0
C1259 C 0.13394 0.2789 0.37578 0.0
C1260 C 0.14177 0.47632 0.37412 0.0
C1261 C 0.12711 0.38507 0.36995 0.0
C1262 C 0.1381 0.52913 0.37147 0.0
C1263 C 0.11669 0.54783 0.36205 0.0
C1264 C 0.12388 0.44164 0.36737 0.0
C1265 C 0.09925 0.51178 0.3556 0.0
C1266 C 0.10904 0.35054 0.36354 0.0
C1267 C 0.15164 0.31478 0.38176 0.0
N1268 N 0.10322 0.46064 0.35839 0.0
N1269 N 0.14783 0.36593 0.37877 0.0
H1270 H 0.86147 0.51391 0.32429 0.0
H1271 H 0.85401 0.74907 0.41179 0.0
H1272 H 0.87016 0.49733 0.39657 0.0
H1273 H 0.84693 0.76666 0.3394 0.0
H1274 H 0.85928 0.65682 0.40654 0.0
H1275 H 0.85559 0.60608 0.32949 0.0
C1276 C 0.86223 0.52957 0.34127 0.0
C1277 C 0.86644 0.49747 0.36 0.0
C1278 C 0.85657 0.68079 0.39178 0.0
C1279 C 0.85947 0.60354 0.3661 0.0
C1280 C 0.85342 0.73359 0.39477 0.0
C1281 C 0.84989 0.766 0.37602 0.0
C1282 C 0.85619 0.65977 0.36986 0.0
C1283 C 0.84981 0.74348 0.35436 0.0
C1284 C 0.85875 0.58231 0.34422 0.0
C1285 C 0.86673 0.5202 0.38162 0.0
N1286 N 0.85285 0.69189 0.3519 0.0
N1287 N 0.86338 0.57168 0.38404 0.0
H1288 H 0.89145 0.2679 0.86191 0.0
H1289 H 0.83571 0.55158 0.86984 0.0
H1290 H 0.8185 0.29891 0.88185 0.0
H1291 H 0.90875 0.51998 0.85037 0.0
H1292 H 0.829 0.45942 0.87428 0.0
H1293 H 0.8978 0.35991 0.85683 0.0
C1294 C 0.87668 0.2939 0.86505 0.0
C1295 C 0.85439 0.27525 0.87237 0.0
C1296 C 0.84649 0.47265 0.86901 0.0
C1297 C 0.86169 0.38131 0.86687 0.0
C1298 C 0.8504 0.52542 0.86661 0.0
C1299 C 0.87284 0.54395 0.85966 0.0
C1300 C 0.86515 0.43784 0.86448 0.0
C1301 C 0.89103 0.50776 0.85541 0.0
C1302 C 0.88038 0.34661 0.86231 0.0
C1303 C 0.8361 0.31127 0.87651 0.0
N1304 N 0.88679 0.45667 0.85789 0.0
N1305 N 0.84016 0.36237 0.87373 0.0
H1306 H 0.11416 0.52098 0.82479 0.0
H1307 H 0.1369 0.75235 0.91181 0.0
H1308 H 0.11983 0.50081 0.89715 0.0
H1309 H 0.131 0.77304 0.83949 0.0
H1310 H 0.13109 0.66028 0.90668 0.0
H1311 H 0.12053 0.613 0.82978 0.0
C1312 C 0.11664 0.53582 0.84176 0.0
C1313 C 0.11633 0.50276 0.86058 0.0
C1314 C 0.13107 0.68488 0.89191 0.0
C1315 C 0.12388 0.60867 0.8664 0.0
C1316 C 0.13454 0.7376 0.89481 0.0
C1317 C 0.13458 0.77084 0.87605 0.0
C1318 C 0.12761 0.66479 0.87007 0.0
C1319 C 0.1309 0.74921 0.8545 0.0
C1320 C 0.1204 0.58848 0.84458 0.0
C1321 C 0.12015 0.52446 0.88209 0.0
N1322 N 0.12762 0.6977 0.85211 0.0
N1323 N 0.12368 0.5759 0.8844 0.0
H1324 H 0.89356 0.7731 0.62251 0.0
H1325 H 0.83479 0.49262 0.62874 0.0
H1326 H 0.81761 0.74562 0.61719 0.0
H1327 H 0.91074 0.52081 0.63339 0.0
H1328 H 0.82807 0.58488 0.62442 0.0
H1329 H 0.90004 0.68099 0.6272 0.0
C1330 C 0.8782 0.74785 0.62252 0.0
C1331 C 0.85498 0.7675 0.61942 0.0
C1332 C 0.84621 0.57087 0.6264 0.0
C1333 C 0.86236 0.66133 0.62449 0.0
C1334 C 0.85009 0.51805 0.62872 0.0
C1335 C 0.87339 0.49858 0.63151 0.0
C1336 C 0.86576 0.60477 0.62682 0.0
C1337 C 0.89243 0.53383 0.63166 0.0
C1338 C 0.88194 0.69508 0.62503 0.0
C1339 C 0.83586 0.73242 0.6192 0.0
N1340 N 0.88819 0.58499 0.62936 0.0
N1341 N 0.83997 0.68123 0.62168 0.0
H1342 H 0.12675 0.29491 0.58124 0.0
H1343 H 0.13125 0.53238 0.66772 0.0
H1344 H 0.14488 0.27949 0.65198 0.0
H1345 H 0.11185 0.54679 0.59724 0.0
H1346 H 0.13667 0.44014 0.66226 0.0
H1347 H 0.12171 0.38716 0.58674 0.0
C1348 C 0.12981 0.31086 0.59793 0.0
C1349 C 0.13637 0.27905 0.61614 0.0
C1350 C 0.13125 0.46345 0.64797 0.0
C1351 C 0.13037 0.3853 0.62262 0.0
C1352 C 0.12803 0.51624 0.65109 0.0
C1353 C 0.12097 0.54777 0.63294 0.0
C1354 C 0.1274 0.4416 0.62652 0.0
C1355 C 0.11755 0.52441 0.6117 0.0
C1356 C 0.12679 0.36367 0.60108 0.0
C1357 C 0.13959 0.30217 0.63746 0.0
N1358 N 0.12073 0.4729 0.60912 0.0
N1359 N 0.13662 0.35375 0.64008 0.0
H1360 H 0.62386 0.98998 0.0943 0.0
H1361 H 0.62103 0.26638 0.1544 0.0
H1362 H 0.60409 1.01392 0.1642 0.0
H1363 H 0.64163 0.24318 0.08466 0.0
H1364 H 0.61427 0.17419 0.15808 0.0
H1365 H 0.63071 0.08226 0.09042 0.0
C1366 C 0.62111 1.01448 0.10889 0.0
C1367 C 0.6133 0.99384 0.12961 0.0
C1368 C 0.62025 0.18922 0.14195 0.0
C1369 C 0.62088 0.10005 0.12519 0.0
C1370 C 0.62395 0.24205 0.13978 0.0
C1371 C 0.63193 0.26292 0.11917 0.0
C1372 C 0.62448 0.15663 0.12338 0.0
C1373 C 0.63579 0.22899 0.10097 0.0
C1374 C 0.62488 0.06732 0.10662 0.0
C1375 C 0.60973 0.02792 0.1478 0.0
N1376 N 0.63203 0.17771 0.10351 0.0
N1377 N 0.61352 0.07912 0.14515 0.0
H1378 H 0.37698 0.75946 0.15201 0.0
H1379 H 0.36224 0.03869 0.09645 0.0
H1380 H 0.34445 0.78526 0.08667 0.0
H1381 H 0.39312 1.0115 0.16239 0.0
H1382 H 0.35572 0.94632 0.09232 0.0
H1383 H 0.38389 0.85154 0.15552 0.0
C1384 C 0.37149 0.78435 0.13827 0.0
C1385 C 0.36012 0.76426 0.11898 0.0
C1386 C 0.36393 0.96059 0.10769 0.0
C1387 C 0.3677 0.87044 0.12309 0.0
C1388 C 0.36753 1.01344 0.11013 0.0
C1389 C 0.37834 0.03318 0.12978 0.0
C1390 C 0.37114 0.92699 0.12503 0.0
C1391 C 0.38509 0.99822 0.14678 0.0
C1392 C 0.37528 0.83712 0.14038 0.0
C1393 C 0.35302 0.79887 0.10197 0.0
N1394 N 0.38139 0.94705 0.144 0.0
N1395 N 0.35691 0.85013 0.10442 0.0
H1396 H 0.6181 0.03061 0.32541 0.0
H1397 H 0.63064 0.79481 0.4119 0.0
H1398 H 0.6137 0.0467 0.39807 0.0
H1399 H 0.63352 0.77786 0.33922 0.0
H1400 H 0.62488 0.88706 0.40713 0.0
H1401 H 0.6241 0.93836 0.33011 0.0
C1402 C 0.6183 1.01482 0.34237 0.0
C1403 C 0.61527 0.0468 0.36136 0.0
C1404 C 0.62677 0.86323 0.39221 0.0
C1405 C 0.62239 0.94066 0.36687 0.0
C1406 C 0.63019 0.81044 0.39491 0.0
C1407 C 0.6327 0.77823 0.37594 0.0
C1408 C 0.62586 0.88441 0.37035 0.0
C1409 C 0.63145 0.8009 0.35435 0.0
C1410 C 0.62184 0.96204 0.34504 0.0
C1411 C 0.61619 0.02392 0.38292 0.0
N1412 N 0.6282 0.85247 0.35216 0.0
N1413 N 0.61959 0.97239 0.38506 0.0
H1414 H 0.33081 0.99471 0.36577 0.0
H1415 H 0.38952 0.27525 0.36603 0.0
H1416 H 0.40534 0.02309 0.35116 0.0
H1417 H 0.31373 0.24803 0.37344 0.0
H1418 H 0.39575 0.18313 0.36096 0.0
H1419 H 0.32433 0.08712 0.36919 0.0
C1420 C 0.34581 1.02024 0.36314 0.0
C1421 C 0.36869 1.00065 0.35817 0.0
C1422 C 0.37774 0.19731 0.36365 0.0
C1423 C 0.36139 0.10707 0.36238 0.0
C1424 C 0.37413 0.25009 0.3664 0.0
C1425 C 0.35104 0.26981 0.37023 0.0
C1426 C 0.35816 0.16365 0.36475 0.0
C1427 C 0.33191 0.23481 0.37091 0.0
C1428 C 0.3421 0.07313 0.36522 0.0
C1429 C 0.38746 0.03601 0.35536 0.0
N1430 N 0.3359 0.18363 0.36826 0.0
N1431 N 0.3834 0.08729 0.35752 0.0
H1432 H 0.31566 0.79371 0.87131 0.0
H1433 H 0.41251 1.01952 0.86271 0.0
H1434 H 0.39204 0.76841 0.872 0.0
H1435 H 0.33621 0.0458 0.86176 0.0
H1436 H 0.40524 0.92756 0.86595 0.0
H1437 H 0.32272 0.88586 0.86776 0.0
C1438 C 0.33393 0.80744 0.87077 0.0
C1439 C 0.35327 0.77294 0.87202 0.0
C1440 C 0.39006 0.95338 0.86505 0.0
C1441 C 0.36149 0.87888 0.86777 0.0
C1442 C 0.3942 1.00603 0.86307 0.0
C1443 C 0.37496 0.04077 0.86183 0.0
C1444 C 0.36648 0.93489 0.86581 0.0
C1445 C 0.35163 1.02073 0.86288 0.0
C1446 C 0.33794 0.86016 0.86864 0.0
C1447 C 0.37654 0.79324 0.87084 0.0
N1448 N 0.34806 0.96923 0.86475 0.0
N1449 N 0.37997 0.84472 0.86884 0.0
H1450 H 0.6111 0.27734 0.84188 0.0
H1451 H 0.62601 0.99856 0.89784 0.0
H1452 H 0.64456 0.25201 0.90683 0.0
H1453 H 0.59494 0.0253 0.83194 0.0
H1454 H 0.63267 0.09094 0.90177 0.0
H1455 H 0.60404 0.18527 0.83862 0.0
C1456 C 0.61676 0.25255 0.85559 0.0
C1457 C 0.62843 0.27277 0.87469 0.0
C1458 C 0.62438 0.07657 0.88646 0.0
C1459 C 0.62068 0.16659 0.87088 0.0
C1460 C 0.62071 0.02371 0.88413 0.0
C1461 C 0.60981 1.00383 0.86454 0.0
C1462 C 0.61716 0.11003 0.86907 0.0
C1463 C 0.60303 0.03867 0.84751 0.0
C1464 C 0.61289 0.19979 0.85363 0.0
C1465 C 0.63575 0.23829 0.89168 0.0
N1466 N 0.60681 0.08984 0.85018 0.0
N1467 N 0.63176 0.18702 0.88937 0.0
H1468 H 0.40354 1.01526 0.64495 0.0
H1469 H 0.3145 0.23903 0.60459 0.0
H1470 H 0.33326 0.98692 0.61736 0.0
H1471 H 0.38564 0.26645 0.63037 0.0
H1472 H 0.32077 0.14697 0.60959 0.0
H1473 H 0.39692 0.10725 0.6404 0.0
C1474 C 0.38663 0.02828 0.63806 0.0
C1475 C 0.36889 0.99293 0.63164 0.0
C1476 C 0.33501 0.1731 0.61419 0.0
C1477 C 0.3613 0.09892 0.62611 0.0
C1478 C 0.3315 0.22582 0.61122 0.0
C1479 C 0.3496 0.26095 0.61696 0.0
C1480 C 0.3568 0.15495 0.62299 0.0
C1481 C 0.37104 0.24117 0.62592 0.0
C1482 C 0.38292 0.08098 0.63533 0.0
C1483 C 0.34756 1.01246 0.62236 0.0
N1484 N 0.37404 0.18966 0.62859 0.0
N1485 N 0.34435 0.064 0.61993 0.0
H1486 H 0.63843 0.79394 0.5843 0.0
H1487 H 0.60374 0.02484 0.6681 0.0
H1488 H 0.61946 0.77314 0.65457 0.0
H1489 H 0.62076 0.04676 0.59745 0.0
H1490 H 0.60968 0.93271 0.66336 0.0
H1491 H 0.63237 0.8864 0.58869 0.0
C1492 C 0.63303 0.80874 0.60067 0.0
C1493 C 0.62947 0.77543 0.61909 0.0
C1494 C 0.61212 0.95759 0.64887 0.0
C1495 C 0.62238 0.88163 0.62421 0.0
C1496 C 0.60862 1.01034 0.65153 0.0
C1497 C 0.61161 0.0439 0.63312 0.0
C1498 C 0.61871 0.93781 0.62761 0.0
C1499 C 0.61845 0.02262 0.61219 0.0
C1500 C 0.62948 0.8616 0.60314 0.0
C1501 C 0.62213 0.79702 0.6398 0.0
N1502 N 0.62171 0.97104 0.61 0.0
N1503 N 0.6189 0.84859 0.64179 0.0
loop_
_geom_bond_atom_site_label_1
_geom_bond_atom_site_label_2
_geom_bond_distance
_geom_bond_site_symmetry_2
_ccdc_geom_bond_type
Eu0 C9 2.828 1_545 S
Eu0 O11 2.392 . S
Eu0 O13 2.418 . S
Eu0 O18 2.373 . S
Eu0 O21 2.488 1_545 S
Eu0 O22 2.471 1_545 S
Eu0 O23 2.349 . S
Eu1 O10 2.373 . S
Eu1 O14 2.488 . S
Eu1 O15 2.471 . S
Eu1 O16 2.349 . S
Eu1 O19 2.392 . S
Eu1 O20 2.418 . S
Eu1 C30 2.828 . S
C2 O20 1.244 . S
C2 O23 1.265 . S
C3 C4 1.379 . S
C3 C7 1.373 . S
C3 C9 1.505 . S
C4 C3 1.379 . S
C4 C6 1.369 . S
C4 H32 0.930 . S
C5 C7 1.383 . S
C5 C8 1.382 . S
C5 H33 0.930 . S
C6 C4 1.369 . S
C6 C8 1.392 . S
C6 H34 0.930 . S
C7 C3 1.373 . S
C7 C5 1.383 . S
C7 H35 0.931 . S
C8 C5 1.382 . S
C8 C6 1.392 . S
C9 Eu0 2.828 1_565 S
C9 C3 1.505 . S
C9 O21 1.249 . S
C9 O22 1.244 . S
O10 Eu1 2.373 . S
O10 C12 1.258 . S
O11 Eu0 2.392 . S
O11 C12 1.242 . S
C12 O10 1.258 . S
C12 O11 1.242 . S
O13 Eu0 2.418 . S
O13 C17 1.244 . S
O14 Eu1 2.488 . S
O14 C30 1.249 . S
O15 Eu1 2.471 . S
O15 C30 1.244 . S
O16 Eu1 2.349 . S
O16 C17 1.265 . S
C17 O13 1.244 . S
C17 O16 1.265 . S
O18 Eu0 2.373 . S
O18 C31 1.258 . S
O19 Eu1 2.392 . S
O19 C31 1.242 . S
O20 Eu1 2.418 . S
O20 C2 1.244 . S
O21 Eu0 2.488 1_565 S
O21 C9 1.249 . S
O22 Eu0 2.471 1_565 S
O22 C9 1.244 . S
O23 Eu0 2.349 . S
O23 C2 1.265 . S
C24 C25 1.379 . S
C24 C28 1.373 . S
C24 C30 1.505 . S
C25 C24 1.379 . S
C25 C27 1.369 . S
C25 H36 0.930 . S
C26 C28 1.383 . S
C26 C29 1.382 . S
C26 H37 0.930 . S
C27 C25 1.369 . S
C27 C29 1.392 . S
C27 H38 0.930 . S
C28 C24 1.373 . S
C28 C26 1.383 . S
C28 H39 0.931 . S
C29 C26 1.382 . S
C29 C27 1.392 . S
C30 Eu1 2.828 . S
C30 O14 1.249 . S
C30 O15 1.244 . S
C30 C24 1.505 . S
C31 O18 1.258 . S
C31 O19 1.242 . S
H32 C4 0.930 . S
H33 C5 0.930 . S
H34 C6 0.930 . S
H35 C7 0.931 . S
H36 C25 0.930 . S
H37 C26 0.930 . S
H38 C27 0.930 . S
H39 C28 0.931 . S
Eu40 C49 2.828 1_565 S
Eu40 O51 2.392 . S
Eu40 O53 2.418 . S
Eu40 O58 2.373 . S
Eu40 O61 2.488 1_565 S
Eu40 O62 2.471 1_565 S
Eu40 O63 2.349 . S
Eu41 O50 2.373 . S
Eu41 O54 2.488 . S
Eu41 O55 2.471 . S
Eu41 O56 2.349 . S
Eu41 O59 2.392 . S
Eu41 O60 2.418 . S
Eu41 C70 2.828 . S
C42 O60 1.244 . S
C42 O63 1.265 . S
C43 C44 1.379 . S
C43 C47 1.373 . S
C43 C49 1.505 . S
C44 C43 1.379 . S
C44 C46 1.369 . S
C44 H72 0.930 . S
C45 C47 1.383 . S
C45 C48 1.382 . S
C45 H73 0.930 . S
C46 C44 1.369 . S
C46 C48 1.392 . S
C46 H74 0.930 . S
C47 C43 1.373 . S
C47 C45 1.383 . S
C47 H75 0.931 . S
C48 C45 1.382 . S
C48 C46 1.392 . S
C49 Eu40 2.828 1_545 S
C49 C43 1.505 . S
C49 O61 1.249 . S
C49 O62 1.244 . S
O50 Eu41 2.373 . S
O50 C52 1.258 . S
O51 Eu40 2.392 . S
O51 C52 1.242 . S
C52 O50 1.258 . S
C52 O51 1.242 . S
O53 Eu40 2.418 . S
O53 C57 1.244 . S
O54 Eu41 2.488 . S
O54 C70 1.249 . S
O55 Eu41 2.471 . S
O55 C70 1.244 . S
O56 Eu41 2.349 . S
O56 C57 1.265 . S
C57 O53 1.244 . S
C57 O56 1.265 . S
O58 Eu40 2.373 . S
O58 C71 1.258 . S
O59 Eu41 2.392 . S
O59 C71 1.242 . S
O60 Eu41 2.418 . S
O60 C42 1.244 . S
O61 Eu40 2.488 1_545 S
O61 C49 1.249 . S
O62 Eu40 2.471 1_545 S
O62 C49 1.244 . S
O63 Eu40 2.349 . S
O63 C42 1.265 . S
C64 C65 1.379 . S
C64 C68 1.373 . S
C64 C70 1.505 . S
C65 C64 1.379 . S
C65 C67 1.369 . S
C65 H76 0.930 . S
C66 C68 1.383 . S
C66 C69 1.382 . S
C66 H77 0.930 . S
C67 C65 1.369 . S
C67 C69 1.392 . S
C67 H78 0.930 . S
C68 C64 1.373 . S
C68 C66 1.383 . S
C68 H79 0.931 . S
C69 C66 1.382 . S
C69 C67 1.392 . S
C70 Eu41 2.828 . S
C70 O54 1.249 . S
C70 O55 1.244 . S
C70 C64 1.505 . S
C71 O58 1.258 . S
C71 O59 1.242 . S
H72 C44 0.930 . S
H73 C45 0.930 . S
H74 C46 0.930 . S
H75 C47 0.931 . S
H76 C65 0.930 . S
H77 C66 0.930 . S
H78 C67 0.930 . S
H79 C68 0.931 . S
Eu80 C89 2.828 1_565 S
Eu80 O91 2.392 . S
Eu80 O93 2.418 . S
Eu80 O98 2.373 . S
Eu80 O101 2.488 1_565 S
Eu80 O102 2.471 1_565 S
Eu80 O103 2.349 . S
Eu81 O90 2.373 . S
Eu81 O94 2.488 . S
Eu81 O95 2.471 . S
Eu81 O96 2.349 . S
Eu81 O99 2.392 . S
Eu81 O100 2.418 . S
Eu81 C110 2.828 . S
C82 O100 1.244 . S
C82 O103 1.265 . S
C83 C84 1.379 . S
C83 C87 1.373 . S
C83 C89 1.505 . S
C84 C83 1.379 . S
C84 C86 1.369 . S
C84 H112 0.930 . S
C85 C87 1.383 . S
C85 C88 1.382 . S
C85 H113 0.930 . S
C86 C84 1.369 . S
C86 C88 1.392 . S
C86 H114 0.930 . S
C87 C83 1.373 . S
C87 C85 1.383 . S
C87 H115 0.931 . S
C88 C85 1.382 . S
C88 C86 1.392 . S
C89 Eu80 2.828 1_545 S
C89 C83 1.505 . S
C89 O101 1.249 . S
C89 O102 1.244 . S
O90 Eu81 2.373 . S
O90 C92 1.258 . S
O91 Eu80 2.392 . S
O91 C92 1.242 . S
C92 O90 1.258 . S
C92 O91 1.242 . S
O93 Eu80 2.418 . S
O93 C97 1.244 . S
O94 Eu81 2.488 . S
O94 C110 1.249 . S
O95 Eu81 2.471 . S
O95 C110 1.244 . S
O96 Eu81 2.349 . S
O96 C97 1.265 . S
C97 O93 1.244 . S
C97 O96 1.265 . S
O98 Eu80 2.373 . S
O98 C111 1.258 . S
O99 Eu81 2.392 . S
O99 C111 1.242 . S
O100 Eu81 2.418 . S
O100 C82 1.244 . S
O101 Eu80 2.488 1_545 S
O101 C89 1.249 . S
O102 Eu80 2.471 1_545 S
O102 C89 1.244 . S
O103 Eu80 2.349 . S
O103 C82 1.265 . S
C104 C105 1.379 . S
C104 C108 1.373 . S
C104 C110 1.505 . S
C105 C104 1.379 . S
C105 C107 1.369 . S
C105 H116 0.930 . S
C106 C108 1.383 . S
C106 C109 1.382 . S
C106 H117 0.930 . S
C107 C105 1.369 . S
C107 C109 1.392 . S
C107 H118 0.930 . S
C108 C104 1.373 . S
C108 C106 1.383 . S
C108 H119 0.931 . S
C109 C106 1.382 . S
C109 C107 1.392 . S
C110 Eu81 2.828 . S
C110 O94 1.249 . S
C110 O95 1.244 . S
C110 C104 1.505 . S
C111 O98 1.258 . S
C111 O99 1.242 . S
H112 C84 0.930 . S
H113 C85 0.930 . S
H114 C86 0.930 . S
H115 C87 0.931 . S
H116 C105 0.930 . S
H117 C106 0.930 . S
H118 C107 0.930 . S
H119 C108 0.931 . S
Eu120 C129 2.828 1_545 S
Eu120 O131 2.392 . S
Eu120 O133 2.418 . S
Eu120 O138 2.373 . S
Eu120 O141 2.488 1_545 S
Eu120 O142 2.471 1_545 S
Eu120 O143 2.349 . S
Eu121 O130 2.373 . S
Eu121 O134 2.488 . S
Eu121 O135 2.471 . S
Eu121 O136 2.349 . S
Eu121 O139 2.392 . S
Eu121 O140 2.418 . S
Eu121 C150 2.828 . S
C122 O140 1.244 . S
C122 O143 1.265 . S
C123 C124 1.379 . S
C123 C127 1.373 . S
C123 C129 1.505 . S
C124 C123 1.379 . S
C124 C126 1.369 . S
C124 H152 0.930 . S
C125 C127 1.383 . S
C125 C128 1.382 . S
C125 H153 0.930 . S
C126 C124 1.369 . S
C126 C128 1.392 . S
C126 H154 0.930 . S
C127 C123 1.373 . S
C127 C125 1.383 . S
C127 H155 0.931 . S
C128 C125 1.382 . S
C128 C126 1.392 . S
C129 Eu120 2.828 1_565 S
C129 C123 1.505 . S
C129 O141 1.249 . S
C129 O142 1.244 . S
O130 Eu121 2.373 . S
O130 C132 1.258 . S
O131 Eu120 2.392 . S
O131 C132 1.242 . S
C132 O130 1.258 . S
C132 O131 1.242 . S
O133 Eu120 2.418 . S
O133 C137 1.244 . S
O134 Eu121 2.488 . S
O134 C150 1.249 . S
O135 Eu121 2.471 . S
O135 C150 1.244 . S
O136 Eu121 2.349 . S
O136 C137 1.265 . S
C137 O133 1.244 . S
C137 O136 1.265 . S
O138 Eu120 2.373 . S
O138 C151 1.258 . S
O139 Eu121 2.392 . S
O139 C151 1.242 . S
O140 Eu121 2.418 . S
O140 C122 1.244 . S
O141 Eu120 2.488 1_565 S
O141 C129 1.249 . S
O142 Eu120 2.471 1_565 S
O142 C129 1.244 . S
O143 Eu120 2.349 . S
O143 C122 1.265 . S
C144 C145 1.379 . S
C144 C148 1.373 . S
C144 C150 1.505 . S
C145 C144 1.379 . S
C145 C147 1.369 . S
C145 H156 0.930 . S
C146 C148 1.383 . S
C146 C149 1.382 . S
C146 H157 0.930 . S
C147 C145 1.369 . S
C147 C149 1.392 . S
C147 H158 0.930 . S
C148 C144 1.373 . S
C148 C146 1.383 . S
C148 H159 0.931 . S
C149 C146 1.382 . S
C149 C147 1.392 . S
C150 Eu121 2.828 . S
C150 O134 1.249 . S
C150 O135 1.244 . S
C150 C144 1.505 . S
C151 O138 1.258 . S
C151 O139 1.242 . S
H152 C124 0.930 . S
H153 C125 0.930 . S
H154 C126 0.930 . S
H155 C127 0.931 . S
H156 C145 0.930 . S
H157 C146 0.930 . S
H158 C147 0.930 . S
H159 C148 0.931 . S
Eu160 C169 2.828 . S
Eu160 O171 2.392 . S
Eu160 O173 2.418 . S
Eu160 O178 2.373 . S
Eu160 O181 2.488 . S
Eu160 O182 2.471 . S
Eu160 O183 2.349 . S
Eu161 O170 2.373 . S
Eu161 O174 2.488 1_565 S
Eu161 O175 2.471 1_565 S
Eu161 O176 2.349 . S
Eu161 O179 2.392 . S
Eu161 O180 2.418 . S
Eu161 C190 2.828 1_565 S
C162 O180 1.244 . S
C162 O183 1.265 . S
C163 C164 1.379 . S
C163 C167 1.373 . S
C163 C169 1.505 . S
C164 C163 1.379 . S
C164 C166 1.369 . S
C164 H192 0.930 . S
C165 C167 1.383 . S
C165 C168 1.382 . S
C165 H193 0.930 . S
C166 C164 1.369 . S
C166 C168 1.392 . S
C166 H194 0.930 . S
C167 C163 1.373 . S
C167 C165 1.383 . S
C167 H195 0.931 . S
C168 C165 1.382 . S
C168 C166 1.392 . S
C169 Eu160 2.828 . S
C169 C163 1.505 . S
C169 O181 1.249 . S
C169 O182 1.244 . S
O170 Eu161 2.373 . S
O170 C172 1.258 . S
O171 Eu160 2.392 . S
O171 C172 1.242 . S
C172 O170 1.258 . S
C172 O171 1.242 . S
O173 Eu160 2.418 . S
O173 C177 1.244 . S
O174 Eu161 2.488 1_545 S
O174 C190 1.249 . S
O175 Eu161 2.471 1_545 S
O175 C190 1.244 . S
O176 Eu161 2.349 . S
O176 C177 1.265 . S
C177 O173 1.244 . S
C177 O176 1.265 . S
O178 Eu160 2.373 . S
O178 C191 1.258 . S
O179 Eu161 2.392 . S
O179 C191 1.242 . S
O180 Eu161 2.418 . S
O180 C162 1.244 . S
O181 Eu160 2.488 . S
O181 C169 1.249 . S
O182 Eu160 2.471 . S
O182 C169 1.244 . S
O183 Eu160 2.349 . S
O183 C162 1.265 . S
C184 C185 1.379 . S
C184 C188 1.373 . S
C184 C190 1.505 . S
C185 C184 1.379 . S
C185 C187 1.369 . S
C185 H196 0.930 . S
C186 C188 1.383 . S
C186 C189 1.382 . S
C186 H197 0.930 . S
C187 C185 1.369 . S
C187 C189 1.392 . S
C187 H198 0.930 . S
C188 C184 1.373 . S
C188 C186 1.383 . S
C188 H199 0.931 . S
C189 C186 1.382 . S
C189 C187 1.392 . S
C190 Eu161 2.828 1_545 S
C190 O174 1.249 . S
C190 O175 1.244 . S
C190 C184 1.505 . S
C191 O178 1.258 . S
C191 O179 1.242 . S
H192 C164 0.930 . S
H193 C165 0.930 . S
H194 C166 0.930 . S
H195 C167 0.931 . S
H196 C185 0.930 . S
H197 C186 0.930 . S
H198 C187 0.930 . S
H199 C188 0.931 . S
Eu200 C209 2.828 . S
Eu200 O211 2.392 . S
Eu200 O213 2.418 . S
Eu200 O218 2.373 . S
Eu200 O221 2.488 . S
Eu200 O222 2.471 . S
Eu200 O223 2.349 . S
Eu201 O210 2.373 . S
Eu201 O214 2.488 1_545 S
Eu201 O215 2.471 1_545 S
Eu201 O216 2.349 . S
Eu201 O219 2.392 . S
Eu201 O220 2.418 . S
Eu201 C230 2.828 1_545 S
C202 O220 1.244 . S
C202 O223 1.265 . S
C203 C204 1.379 . S
C203 C207 1.373 . S
C203 C209 1.505 . S
C204 C203 1.379 . S
C204 C206 1.369 . S
C204 H232 0.930 . S
C205 C207 1.383 . S
C205 C208 1.382 . S
C205 H233 0.930 . S
C206 C204 1.369 . S
C206 C208 1.392 . S
C206 H234 0.930 . S
C207 C203 1.373 . S
C207 C205 1.383 . S
C207 H235 0.931 . S
C208 C205 1.382 . S
C208 C206 1.392 . S
C209 Eu200 2.828 . S
C209 C203 1.505 . S
C209 O221 1.249 . S
C209 O222 1.244 . S
O210 Eu201 2.373 . S
O210 C212 1.258 . S
O211 Eu200 2.392 . S
O211 C212 1.242 . S
C212 O210 1.258 . S
C212 O211 1.242 . S
O213 Eu200 2.418 . S
O213 C217 1.244 . S
O214 Eu201 2.488 1_565 S
O214 C230 1.249 . S
O215 Eu201 2.471 1_565 S
O215 C230 1.244 . S
O216 Eu201 2.349 . S
O216 C217 1.265 . S
C217 O213 1.244 . S
C217 O216 1.265 . S
O218 Eu200 2.373 . S
O218 C231 1.258 . S
O219 Eu201 2.392 . S
O219 C231 1.242 . S
O220 Eu201 2.418 . S
O220 C202 1.244 . S
O221 Eu200 2.488 . S
O221 C209 1.249 . S
O222 Eu200 2.471 . S
O222 C209 1.244 . S
O223 Eu200 2.349 . S
O223 C202 1.265 . S
C224 C225 1.379 . S
C224 C228 1.373 . S
C224 C230 1.505 . S
C225 C224 1.379 . S
C225 C227 1.369 . S
C225 H236 0.930 . S
C226 C228 1.383 . S
C226 C229 1.382 . S
C226 H237 0.930 . S
C227 C225 1.369 . S
C227 C229 1.392 . S
C227 H238 0.930 . S
C228 C224 1.373 . S
C228 C226 1.383 . S
C228 H239 0.931 . S
C229 C226 1.382 . S
C229 C227 1.392 . S
C230 Eu201 2.828 1_565 S
C230 O214 1.249 . S
C230 O215 1.244 . S
C230 C224 1.505 . S
C231 O218 1.258 . S
C231 O219 1.242 . S
H232 C204 0.930 . S
H233 C205 0.930 . S
H234 C206 0.930 . S
H235 C207 0.931 . S
H236 C225 0.930 . S
H237 C226 0.930 . S
H238 C227 0.930 . S
H239 C228 0.931 . S
Eu240 C249 2.828 . S
Eu240 O251 2.392 . S
Eu240 O253 2.418 . S
Eu240 O258 2.373 . S
Eu240 O261 2.488 . S
Eu240 O262 2.471 . S
Eu240 O263 2.349 . S
Eu241 O250 2.373 . S
Eu241 O254 2.488 1_545 S
Eu241 O255 2.471 1_545 S
Eu241 O256 2.349 . S
Eu241 O259 2.392 . S
Eu241 O260 2.418 . S
Eu241 C270 2.828 1_545 S
C242 O260 1.244 . S
C242 O263 1.265 . S
C243 C244 1.379 . S
C243 C247 1.373 . S
C243 C249 1.505 . S
C244 C243 1.379 . S
C244 C246 1.369 . S
C244 H272 0.930 . S
C245 C247 1.383 . S
C245 C248 1.382 . S
C245 H273 0.930 . S
C246 C244 1.369 . S
C246 C248 1.392 . S
C246 H274 0.930 . S
C247 C243 1.373 . S
C247 C245 1.383 . S
C247 H275 0.931 . S
C248 C245 1.382 . S
C248 C246 1.392 . S
C249 Eu240 2.828 . S
C249 C243 1.505 . S
C249 O261 1.249 . S
C249 O262 1.244 . S
O250 Eu241 2.373 . S
O250 C252 1.258 . S
O251 Eu240 2.392 . S
O251 C252 1.242 . S
C252 O250 1.258 . S
C252 O251 1.242 . S
O253 Eu240 2.418 . S
O253 C257 1.244 . S
O254 Eu241 2.488 1_565 S
O254 C270 1.249 . S
O255 Eu241 2.471 1_565 S
O255 C270 1.244 . S
O256 Eu241 2.349 . S
O256 C257 1.265 . S
C257 O253 1.244 . S
C257 O256 1.265 . S
O258 Eu240 2.373 . S
O258 C271 1.258 . S
O259 Eu241 2.392 . S
O259 C271 1.242 . S
O260 Eu241 2.418 . S
O260 C242 1.244 . S
O261 Eu240 2.488 . S
O261 C249 1.249 . S
O262 Eu240 2.471 . S
O262 C249 1.244 . S
O263 Eu240 2.349 . S
O263 C242 1.265 . S
C264 C265 1.379 . S
C264 C268 1.373 . S
C264 C270 1.505 . S
C265 C264 1.379 . S
C265 C267 1.369 . S
C265 H276 0.930 . S
C266 C268 1.383 . S
C266 C269 1.382 . S
C266 H277 0.930 . S
C267 C265 1.369 . S
C267 C269 1.392 . S
C267 H278 0.930 . S
C268 C264 1.373 . S
C268 C266 1.383 . S
C268 H279 0.931 . S
C269 C266 1.382 . S
C269 C267 1.392 . S
C270 Eu241 2.828 1_565 S
C270 O254 1.249 . S
C270 O255 1.244 . S
C270 C264 1.505 . S
C271 O258 1.258 . S
C271 O259 1.242 . S
H272 C244 0.930 . S
H273 C245 0.930 . S
H274 C246 0.930 . S
H275 C247 0.931 . S
H276 C265 0.930 . S
H277 C266 0.930 . S
H278 C267 0.930 . S
H279 C268 0.931 . S
Eu280 C289 2.828 . S
Eu280 O291 2.392 . S
Eu280 O293 2.418 . S
Eu280 O298 2.373 . S
Eu280 O301 2.488 . S
Eu280 O302 2.471 . S
Eu280 O303 2.349 . S
Eu281 O290 2.373 . S
Eu281 O294 2.488 1_565 S
Eu281 O295 2.471 1_565 S
Eu281 O296 2.349 . S
Eu281 O299 2.392 . S
Eu281 O300 2.418 . S
Eu281 C310 2.828 1_565 S
C282 O300 1.244 . S
C282 O303 1.265 . S
C283 C284 1.379 . S
C283 C287 1.373 . S
C283 C289 1.505 . S
C284 C283 1.379 . S
C284 C286 1.369 . S
C284 H312 0.930 . S
C285 C287 1.383 . S
C285 C288 1.382 . S
C285 H313 0.930 . S
C286 C284 1.369 . S
C286 C288 1.392 . S
C286 H314 0.930 . S
C287 C283 1.373 . S
C287 C285 1.383 . S
C287 H315 0.931 . S
C288 C285 1.382 . S
C288 C286 1.392 . S
C289 Eu280 2.828 . S
C289 C283 1.505 . S
C289 O301 1.249 . S
C289 O302 1.244 . S
O290 Eu281 2.373 . S
O290 C292 1.258 . S
O291 Eu280 2.392 . S
O291 C292 1.242 . S
C292 O290 1.258 . S
C292 O291 1.242 . S
O293 Eu280 2.418 . S
O293 C297 1.244 . S
O294 Eu281 2.488 1_545 S
O294 C310 1.249 . S
O295 Eu281 2.471 1_545 S
O295 C310 1.244 . S
O296 Eu281 2.349 . S
O296 C297 1.265 . S
C297 O293 1.244 . S
C297 O296 1.265 . S
O298 Eu280 2.373 . S
O298 C311 1.258 . S
O299 Eu281 2.392 . S
O299 C311 1.242 . S
O300 Eu281 2.418 . S
O300 C282 1.244 . S
O301 Eu280 2.488 . S
O301 C289 1.249 . S
O302 Eu280 2.471 . S
O302 C289 1.244 . S
O303 Eu280 2.349 . S
O303 C282 1.265 . S
C304 C305 1.379 . S
C304 C308 1.373 . S
C304 C310 1.505 . S
C305 C304 1.379 . S
C305 C307 1.369 . S
C305 H316 0.930 . S
C306 C308 1.383 . S
C306 C309 1.382 . S
C306 H317 0.930 . S
C307 C305 1.369 . S
C307 C309 1.392 . S
C307 H318 0.930 . S
C308 C304 1.373 . S
C308 C306 1.383 . S
C308 H319 0.931 . S
C309 C306 1.382 . S
C309 C307 1.392 . S
C310 Eu281 2.828 1_545 S
C310 O294 1.249 . S
C310 O295 1.244 . S
C310 C304 1.505 . S
C311 O298 1.258 . S
C311 O299 1.242 . S
H312 C284 0.930 . S
H313 C285 0.930 . S
H314 C286 0.930 . S
H315 C287 0.931 . S
H316 C305 0.930 . S
H317 C306 0.930 . S
H318 C307 0.930 . S
H319 C308 0.931 . S
Eu320 C329 2.828 . S
Eu320 O331 2.392 . S
Eu320 O333 2.418 . S
Eu320 O338 2.373 . S
Eu320 O341 2.488 . S
Eu320 O342 2.471 . S
Eu320 O343 2.349 . S
Eu321 O330 2.373 . S
Eu321 O334 2.488 . S
Eu321 O335 2.471 . S
Eu321 O336 2.349 . S
Eu321 O339 2.392 . S
Eu321 O340 2.418 . S
Eu321 C350 2.828 . S
C322 O340 1.244 . S
C322 O343 1.265 . S
C323 C324 1.379 . S
C323 C327 1.373 . S
C323 C329 1.505 . S
C324 C323 1.379 . S
C324 C326 1.369 . S
C324 H352 0.930 . S
C325 C327 1.383 . S
C325 C328 1.382 . S
C325 H353 0.930 . S
C326 C324 1.369 . S
C326 C328 1.392 . S
C326 H354 0.930 . S
C327 C323 1.373 . S
C327 C325 1.383 . S
C327 H355 0.931 . S
C328 C325 1.382 . S
C328 C326 1.392 . S
C329 Eu320 2.828 . S
C329 C323 1.505 . S
C329 O341 1.249 . S
C329 O342 1.244 . S
O330 Eu321 2.373 . S
O330 C332 1.258 . S
O331 Eu320 2.392 . S
O331 C332 1.242 . S
C332 O330 1.258 . S
C332 O331 1.242 . S
O333 Eu320 2.418 . S
O333 C337 1.244 . S
O334 Eu321 2.488 . S
O334 C350 1.249 . S
O335 Eu321 2.471 . S
O335 C350 1.244 . S
O336 Eu321 2.349 . S
O336 C337 1.265 . S
C337 O333 1.244 . S
C337 O336 1.265 . S
O338 Eu320 2.373 . S
O338 C351 1.258 . S
O339 Eu321 2.392 . S
O339 C351 1.242 . S
O340 Eu321 2.418 . S
O340 C322 1.244 . S
O341 Eu320 2.488 . S
O341 C329 1.249 . S
O342 Eu320 2.471 . S
O342 C329 1.244 . S
O343 Eu320 2.349 . S
O343 C322 1.265 . S
C344 C345 1.379 . S
C344 C348 1.373 . S
C344 C350 1.505 . S
C345 C344 1.379 . S
C345 C347 1.369 . S
C345 H356 0.930 . S
C346 C348 1.383 . S
C346 C349 1.382 . S
C346 H357 0.930 . S
C347 C345 1.369 . S
C347 C349 1.392 . S
C347 H358 0.930 . S
C348 C344 1.373 . S
C348 C346 1.383 . S
C348 H359 0.931 . S
C349 C346 1.382 . S
C349 C347 1.392 . S
C350 Eu321 2.828 . S
C350 O334 1.249 . S
C350 O335 1.244 . S
C350 C344 1.505 . S
C351 O338 1.258 . S
C351 O339 1.242 . S
H352 C324 0.930 . S
H353 C325 0.930 . S
H354 C326 0.930 . S
H355 C327 0.931 . S
H356 C345 0.930 . S
H357 C346 0.930 . S
H358 C347 0.930 . S
H359 C348 0.931 . S
Eu360 C369 2.828 . S
Eu360 O371 2.392 . S
Eu360 O373 2.418 . S
Eu360 O378 2.373 . S
Eu360 O381 2.488 . S
Eu360 O382 2.471 . S
Eu360 O383 2.349 . S
Eu361 O370 2.373 . S
Eu361 O374 2.488 . S
Eu361 O375 2.471 . S
Eu361 O376 2.349 . S
Eu361 O379 2.392 . S
Eu361 O380 2.418 . S
Eu361 C390 2.828 . S
C362 O380 1.244 . S
C362 O383 1.265 . S
C363 C364 1.379 . S
C363 C367 1.373 . S
C363 C369 1.505 . S
C364 C363 1.379 . S
C364 C366 1.369 . S
C364 H392 0.930 . S
C365 C367 1.383 . S
C365 C368 1.382 . S
C365 H393 0.930 . S
C366 C364 1.369 . S
C366 C368 1.392 . S
C366 H394 0.930 . S
C367 C363 1.373 . S
C367 C365 1.383 . S
C367 H395 0.931 . S
C368 C365 1.382 . S
C368 C366 1.392 . S
C369 Eu360 2.828 . S
C369 C363 1.505 . S
C369 O381 1.249 . S
C369 O382 1.244 . S
O370 Eu361 2.373 . S
O370 C372 1.258 . S
O371 Eu360 2.392 . S
O371 C372 1.242 . S
C372 O370 1.258 . S
C372 O371 1.242 . S
O373 Eu360 2.418 . S
O373 C377 1.244 . S
O374 Eu361 2.488 . S
O374 C390 1.249 . S
O375 Eu361 2.471 . S
O375 C390 1.244 . S
O376 Eu361 2.349 . S
O376 C377 1.265 . S
C377 O373 1.244 . S
C377 O376 1.265 . S
O378 Eu360 2.373 . S
O378 C391 1.258 . S
O379 Eu361 2.392 . S
O379 C391 1.242 . S
O380 Eu361 2.418 . S
O380 C362 1.244 . S
O381 Eu360 2.488 . S
O381 C369 1.249 . S
O382 Eu360 2.471 . S
O382 C369 1.244 . S
O383 Eu360 2.349 . S
O383 C362 1.265 . S
C384 C385 1.379 . S
C384 C388 1.373 . S
C384 C390 1.505 . S
C385 C384 1.379 . S
C385 C387 1.369 . S
C385 H396 0.930 . S
C386 C388 1.383 . S
C386 C389 1.382 . S
C386 H397 0.930 . S
C387 C385 1.369 . S
C387 C389 1.392 . S
C387 H398 0.930 . S
C388 C384 1.373 . S
C388 C386 1.383 . S
C388 H399 0.931 . S
C389 C386 1.382 . S
C389 C387 1.392 . S
C390 Eu361 2.828 . S
C390 O374 1.249 . S
C390 O375 1.244 . S
C390 C384 1.505 . S
C391 O378 1.258 . S
C391 O379 1.242 . S
H392 C364 0.930 . S
H393 C365 0.930 . S
H394 C366 0.930 . S
H395 C367 0.931 . S
H396 C385 0.930 . S
H397 C386 0.930 . S
H398 C387 0.930 . S
H399 C388 0.931 . S
Eu400 C409 2.828 . S
Eu400 O411 2.392 . S
Eu400 O413 2.418 . S
Eu400 O418 2.373 . S
Eu400 O421 2.488 . S
Eu400 O422 2.471 . S
Eu400 O423 2.349 . S
Eu401 O410 2.373 . S
Eu401 O414 2.488 . S
Eu401 O415 2.471 . S
Eu401 O416 2.349 . S
Eu401 O419 2.392 . S
Eu401 O420 2.418 . S
Eu401 C430 2.828 . S
C402 O420 1.244 . S
C402 O423 1.265 . S
C403 C404 1.379 . S
C403 C407 1.373 . S
C403 C409 1.505 . S
C404 C403 1.379 . S
C404 C406 1.369 . S
C404 H432 0.930 . S
C405 C407 1.383 . S
C405 C408 1.382 . S
C405 H433 0.930 . S
C406 C404 1.369 . S
C406 C408 1.392 . S
C406 H434 0.930 . S
C407 C403 1.373 . S
C407 C405 1.383 . S
C407 H435 0.931 . S
C408 C405 1.382 . S
C408 C406 1.392 . S
C409 Eu400 2.828 . S
C409 C403 1.505 . S
C409 O421 1.249 . S
C409 O422 1.244 . S
O410 Eu401 2.373 . S
O410 C412 1.258 . S
O411 Eu400 2.392 . S
O411 C412 1.242 . S
C412 O410 1.258 . S
C412 O411 1.242 . S
O413 Eu400 2.418 . S
O413 C417 1.244 . S
O414 Eu401 2.488 . S
O414 C430 1.249 . S
O415 Eu401 2.471 . S
O415 C430 1.244 . S
O416 Eu401 2.349 . S
O416 C417 1.265 . S
C417 O413 1.244 . S
C417 O416 1.265 . S
O418 Eu400 2.373 . S
O418 C431 1.258 . S
O419 Eu401 2.392 . S
O419 C431 1.242 . S
O420 Eu401 2.418 . S
O420 C402 1.244 . S
O421 Eu400 2.488 . S
O421 C409 1.249 . S
O422 Eu400 2.471 . S
O422 C409 1.244 . S
O423 Eu400 2.349 . S
O423 C402 1.265 . S
C424 C425 1.379 . S
C424 C428 1.373 . S
C424 C430 1.505 . S
C425 C424 1.379 . S
C425 C427 1.369 . S
C425 H436 0.930 . S
C426 C428 1.383 . S
C426 C429 1.382 . S
C426 H437 0.930 . S
C427 C425 1.369 . S
C427 C429 1.392 . S
C427 H438 0.930 . S
C428 C424 1.373 . S
C428 C426 1.383 . S
C428 H439 0.931 . S
C429 C426 1.382 . S
C429 C427 1.392 . S
C430 Eu401 2.828 . S
C430 O414 1.249 . S
C430 O415 1.244 . S
C430 C424 1.505 . S
C431 O418 1.258 . S
C431 O419 1.242 . S
H432 C404 0.930 . S
H433 C405 0.930 . S
H434 C406 0.930 . S
H435 C407 0.931 . S
H436 C425 0.930 . S
H437 C426 0.930 . S
H438 C427 0.930 . S
H439 C428 0.931 . S
Eu440 C449 2.828 . S
Eu440 O451 2.392 . S
Eu440 O453 2.418 . S
Eu440 O458 2.373 . S
Eu440 O461 2.488 . S
Eu440 O462 2.471 . S
Eu440 O463 2.349 . S
Eu441 O450 2.373 . S
Eu441 O454 2.488 . S
Eu441 O455 2.471 . S
Eu441 O456 2.349 . S
Eu441 O459 2.392 . S
Eu441 O460 2.418 . S
Eu441 C470 2.828 . S
C442 O460 1.244 . S
C442 O463 1.265 . S
C443 C444 1.379 . S
C443 C447 1.373 . S
C443 C449 1.505 . S
C444 C443 1.379 . S
C444 C446 1.369 . S
C444 H472 0.930 . S
C445 C447 1.383 . S
C445 C448 1.382 . S
C445 H473 0.930 . S
C446 C444 1.369 . S
C446 C448 1.392 . S
C446 H474 0.930 . S
C447 C443 1.373 . S
C447 C445 1.383 . S
C447 H475 0.931 . S
C448 C445 1.382 . S
C448 C446 1.392 . S
C449 Eu440 2.828 . S
C449 C443 1.505 . S
C449 O461 1.249 . S
C449 O462 1.244 . S
O450 Eu441 2.373 . S
O450 C452 1.258 . S
O451 Eu440 2.392 . S
O451 C452 1.242 . S
C452 O450 1.258 . S
C452 O451 1.242 . S
O453 Eu440 2.418 . S
O453 C457 1.244 . S
O454 Eu441 2.488 . S
O454 C470 1.249 . S
O455 Eu441 2.471 . S
O455 C470 1.244 . S
O456 Eu441 2.349 . S
O456 C457 1.265 . S
C457 O453 1.244 . S
C457 O456 1.265 . S
O458 Eu440 2.373 . S
O458 C471 1.258 . S
O459 Eu441 2.392 . S
O459 C471 1.242 . S
O460 Eu441 2.418 . S
O460 C442 1.244 . S
O461 Eu440 2.488 . S
O461 C449 1.249 . S
O462 Eu440 2.471 . S
O462 C449 1.244 . S
O463 Eu440 2.349 . S
O463 C442 1.265 . S
C464 C465 1.379 . S
C464 C468 1.373 . S
C464 C470 1.505 . S
C465 C464 1.379 . S
C465 C467 1.369 . S
C465 H476 0.930 . S
C466 C468 1.383 . S
C466 C469 1.382 . S
C466 H477 0.930 . S
C467 C465 1.369 . S
C467 C469 1.392 . S
C467 H478 0.930 . S
C468 C464 1.373 . S
C468 C466 1.383 . S
C468 H479 0.931 . S
C469 C466 1.382 . S
C469 C467 1.392 . S
C470 Eu441 2.828 . S
C470 O454 1.249 . S
C470 O455 1.244 . S
C470 C464 1.505 . S
C471 O458 1.258 . S
C471 O459 1.242 . S
H472 C444 0.930 . S
H473 C445 0.930 . S
H474 C446 0.930 . S
H475 C447 0.931 . S
H476 C465 0.930 . S
H477 C466 0.930 . S
H478 C467 0.930 . S
H479 C468 0.931 . S
Eu480 C489 2.828 . S
Eu480 O491 2.392 . S
Eu480 O493 2.418 . S
Eu480 O498 2.373 . S
Eu480 O501 2.488 . S
Eu480 O502 2.471 . S
Eu480 O503 2.349 . S
Eu481 O490 2.373 . S
Eu481 O494 2.488 . S
Eu481 O495 2.471 . S
Eu481 O496 2.349 . S
Eu481 O499 2.392 . S
Eu481 O500 2.418 . S
Eu481 C510 2.828 . S
C482 O500 1.244 . S
C482 O503 1.265 . S
C483 C484 1.379 . S
C483 C487 1.373 . S
C483 C489 1.505 . S
C484 C483 1.379 . S
C484 C486 1.369 . S
C484 H512 0.930 . S
C485 C487 1.383 . S
C485 C488 1.382 . S
C485 H513 0.930 . S
C486 C484 1.369 . S
C486 C488 1.392 . S
C486 H514 0.930 . S
C487 C483 1.373 . S
C487 C485 1.383 . S
C487 H515 0.931 . S
C488 C485 1.382 . S
C488 C486 1.392 . S
C489 Eu480 2.828 . S
C489 C483 1.505 . S
C489 O501 1.249 . S
C489 O502 1.244 . S
O490 Eu481 2.373 . S
O490 C492 1.258 . S
O491 Eu480 2.392 . S
O491 C492 1.242 . S
C492 O490 1.258 . S
C492 O491 1.242 . S
O493 Eu480 2.418 . S
O493 C497 1.244 . S
O494 Eu481 2.488 . S
O494 C510 1.249 . S
O495 Eu481 2.471 . S
O495 C510 1.244 . S
O496 Eu481 2.349 . S
O496 C497 1.265 . S
C497 O493 1.244 . S
C497 O496 1.265 . S
O498 Eu480 2.373 . S
O498 C511 1.258 . S
O499 Eu481 2.392 . S
O499 C511 1.242 . S
O500 Eu481 2.418 . S
O500 C482 1.244 . S
O501 Eu480 2.488 . S
O501 C489 1.249 . S
O502 Eu480 2.471 . S
O502 C489 1.244 . S
O503 Eu480 2.349 . S
O503 C482 1.265 . S
C504 C505 1.379 . S
C504 C508 1.373 . S
C504 C510 1.505 . S
C505 C504 1.379 . S
C505 C507 1.369 . S
C505 H516 0.930 . S
C506 C508 1.383 . S
C506 C509 1.382 . S
C506 H517 0.930 . S
C507 C505 1.369 . S
C507 C509 1.392 . S
C507 H518 0.930 . S
C508 C504 1.373 . S
C508 C506 1.383 . S
C508 H519 0.931 . S
C509 C506 1.382 . S
C509 C507 1.392 . S
C510 Eu481 2.828 . S
C510 O494 1.249 . S
C510 O495 1.244 . S
C510 C504 1.505 . S
C511 O498 1.258 . S
C511 O499 1.242 . S
H512 C484 0.930 . S
H513 C485 0.930 . S
H514 C486 0.930 . S
H515 C487 0.931 . S
H516 C505 0.930 . S
H517 C506 0.930 . S
H518 C507 0.930 . S
H519 C508 0.931 . S
Eu520 C529 2.828 . S
Eu520 O531 2.392 . S
Eu520 O533 2.418 . S
Eu520 O538 2.373 . S
Eu520 O541 2.488 . S
Eu520 O542 2.471 . S
Eu520 O543 2.349 . S
Eu521 O530 2.373 . S
Eu521 O534 2.488 . S
Eu521 O535 2.471 . S
Eu521 O536 2.349 . S
Eu521 O539 2.392 . S
Eu521 O540 2.418 . S
Eu521 C550 2.828 . S
C522 O540 1.244 . S
C522 O543 1.265 . S
C523 C524 1.379 . S
C523 C527 1.373 . S
C523 C529 1.505 . S
C524 C523 1.379 . S
C524 C526 1.369 . S
C524 H552 0.930 . S
C525 C527 1.383 . S
C525 C528 1.382 . S
C525 H553 0.930 . S
C526 C524 1.369 . S
C526 C528 1.392 . S
C526 H554 0.930 . S
C527 C523 1.373 . S
C527 C525 1.383 . S
C527 H555 0.931 . S
C528 C525 1.382 . S
C528 C526 1.392 . S
C529 Eu520 2.828 . S
C529 C523 1.505 . S
C529 O541 1.249 . S
C529 O542 1.244 . S
O530 Eu521 2.373 . S
O530 C532 1.258 . S
O531 Eu520 2.392 . S
O531 C532 1.242 . S
C532 O530 1.258 . S
C532 O531 1.242 . S
O533 Eu520 2.418 . S
O533 C537 1.244 . S
O534 Eu521 2.488 . S
O534 C550 1.249 . S
O535 Eu521 2.471 . S
O535 C550 1.244 . S
O536 Eu521 2.349 . S
O536 C537 1.265 . S
C537 O533 1.244 . S
C537 O536 1.265 . S
O538 Eu520 2.373 . S
O538 C551 1.258 . S
O539 Eu521 2.392 . S
O539 C551 1.242 . S
O540 Eu521 2.418 . S
O540 C522 1.244 . S
O541 Eu520 2.488 . S
O541 C529 1.249 . S
O542 Eu520 2.471 . S
O542 C529 1.244 . S
O543 Eu520 2.349 . S
O543 C522 1.265 . S
C544 C545 1.379 . S
C544 C548 1.373 . S
C544 C550 1.505 . S
C545 C544 1.379 . S
C545 C547 1.369 . S
C545 H556 0.930 . S
C546 C548 1.383 . S
C546 C549 1.382 . S
C546 H557 0.930 . S
C547 C545 1.369 . S
C547 C549 1.392 . S
C547 H558 0.930 . S
C548 C544 1.373 . S
C548 C546 1.383 . S
C548 H559 0.931 . S
C549 C546 1.382 . S
C549 C547 1.392 . S
C550 Eu521 2.828 . S
C550 O534 1.249 . S
C550 O535 1.244 . S
C550 C544 1.505 . S
C551 O538 1.258 . S
C551 O539 1.242 . S
H552 C524 0.930 . S
H553 C525 0.930 . S
H554 C526 0.930 . S
H555 C527 0.931 . S
H556 C545 0.930 . S
H557 C546 0.930 . S
H558 C547 0.930 . S
H559 C548 0.931 . S
Eu560 C569 2.828 . S
Eu560 O571 2.392 . S
Eu560 O573 2.418 . S
Eu560 O578 2.373 . S
Eu560 O581 2.488 . S
Eu560 O582 2.471 . S
Eu560 O583 2.349 . S
Eu561 O570 2.373 . S
Eu561 O574 2.488 . S
Eu561 O575 2.471 . S
Eu561 O576 2.349 . S
Eu561 O579 2.392 . S
Eu561 O580 2.418 . S
Eu561 C590 2.828 . S
C562 O580 1.244 . S
C562 O583 1.265 . S
C563 C564 1.379 . S
C563 C567 1.373 . S
C563 C569 1.505 . S
C564 C563 1.379 . S
C564 C566 1.369 . S
C564 H592 0.930 . S
C565 C567 1.383 . S
C565 C568 1.382 . S
C565 H593 0.930 . S
C566 C564 1.369 . S
C566 C568 1.392 . S
C566 H594 0.930 . S
C567 C563 1.373 . S
C567 C565 1.383 . S
C567 H595 0.931 . S
C568 C565 1.382 . S
C568 C566 1.392 . S
C569 Eu560 2.828 . S
C569 C563 1.505 . S
C569 O581 1.249 . S
C569 O582 1.244 . S
O570 Eu561 2.373 . S
O570 C572 1.258 . S
O571 Eu560 2.392 . S
O571 C572 1.242 . S
C572 O570 1.258 . S
C572 O571 1.242 . S
O573 Eu560 2.418 . S
O573 C577 1.244 . S
O574 Eu561 2.488 . S
O574 C590 1.249 . S
O575 Eu561 2.471 . S
O575 C590 1.244 . S
O576 Eu561 2.349 . S
O576 C577 1.265 . S
C577 O573 1.244 . S
C577 O576 1.265 . S
O578 Eu560 2.373 . S
O578 C591 1.258 . S
O579 Eu561 2.392 . S
O579 C591 1.242 . S
O580 Eu561 2.418 . S
O580 C562 1.244 . S
O581 Eu560 2.488 . S
O581 C569 1.249 . S
O582 Eu560 2.471 . S
O582 C569 1.244 . S
O583 Eu560 2.349 . S
O583 C562 1.265 . S
C584 C585 1.379 . S
C584 C588 1.373 . S
C584 C590 1.505 . S
C585 C584 1.379 . S
C585 C587 1.369 . S
C585 H596 0.930 . S
C586 C588 1.383 . S
C586 C589 1.382 . S
C586 H597 0.930 . S
C587 C585 1.369 . S
C587 C589 1.392 . S
C587 H598 0.930 . S
C588 C584 1.373 . S
C588 C586 1.383 . S
C588 H599 0.931 . S
C589 C586 1.382 . S
C589 C587 1.392 . S
C590 Eu561 2.828 . S
C590 O574 1.249 . S
C590 O575 1.244 . S
C590 C584 1.505 . S
C591 O578 1.258 . S
C591 O579 1.242 . S
H592 C564 0.930 . S
H593 C565 0.930 . S
H594 C566 0.930 . S
H595 C567 0.931 . S
H596 C585 0.930 . S
H597 C586 0.930 . S
H598 C587 0.930 . S
H599 C588 0.931 . S
Eu600 C609 2.828 . S
Eu600 O611 2.392 . S
Eu600 O613 2.418 . S
Eu600 O618 2.373 . S
Eu600 O621 2.488 . S
Eu600 O622 2.471 . S
Eu600 O623 2.349 . S
Eu601 O610 2.373 . S
Eu601 O614 2.488 . S
Eu601 O615 2.471 . S
Eu601 O616 2.349 . S
Eu601 O619 2.392 . S
Eu601 O620 2.418 . S
Eu601 C630 2.828 . S
C602 O620 1.244 . S
C602 O623 1.265 . S
C603 C604 1.379 . S
C603 C607 1.373 . S
C603 C609 1.505 . S
C604 C603 1.379 . S
C604 C606 1.369 . S
C604 H632 0.930 . S
C605 C607 1.383 . S
C605 C608 1.382 . S
C605 H633 0.930 . S
C606 C604 1.369 . S
C606 C608 1.392 . S
C606 H634 0.930 . S
C607 C603 1.373 . S
C607 C605 1.383 . S
C607 H635 0.931 . S
C608 C605 1.382 . S
C608 C606 1.392 . S
C609 Eu600 2.828 . S
C609 C603 1.505 . S
C609 O621 1.249 . S
C609 O622 1.244 . S
O610 Eu601 2.373 . S
O610 C612 1.258 . S
O611 Eu600 2.392 . S
O611 C612 1.242 . S
C612 O610 1.258 . S
C612 O611 1.242 . S
O613 Eu600 2.418 . S
O613 C617 1.244 . S
O614 Eu601 2.488 . S
O614 C630 1.249 . S
O615 Eu601 2.471 . S
O615 C630 1.244 . S
O616 Eu601 2.349 . S
O616 C617 1.265 . S
C617 O613 1.244 . S
C617 O616 1.265 . S
O618 Eu600 2.373 . S
O618 C631 1.258 . S
O619 Eu601 2.392 . S
O619 C631 1.242 . S
O620 Eu601 2.418 . S
O620 C602 1.244 . S
O621 Eu600 2.488 . S
O621 C609 1.249 . S
O622 Eu600 2.471 . S
O622 C609 1.244 . S
O623 Eu600 2.349 . S
O623 C602 1.265 . S
C624 C625 1.379 . S
C624 C628 1.373 . S
C624 C630 1.505 . S
C625 C624 1.379 . S
C625 C627 1.369 . S
C625 H636 0.930 . S
C626 C628 1.383 . S
C626 C629 1.382 . S
C626 H637 0.930 . S
C627 C625 1.369 . S
C627 C629 1.392 . S
C627 H638 0.930 . S
C628 C624 1.373 . S
C628 C626 1.383 . S
C628 H639 0.931 . S
C629 C626 1.382 . S
C629 C627 1.392 . S
C630 Eu601 2.828 . S
C630 O614 1.249 . S
C630 O615 1.244 . S
C630 C624 1.505 . S
C631 O618 1.258 . S
C631 O619 1.242 . S
H632 C604 0.930 . S
H633 C605 0.930 . S
H634 C606 0.930 . S
H635 C607 0.931 . S
H636 C625 0.930 . S
H637 C626 0.930 . S
H638 C627 0.930 . S
H639 C628 0.931 . S
H640 C646 0.930 . S
H641 C650 0.930 . S
H642 C655 0.929 . S
H643 C653 0.929 . S
H644 C648 0.929 . S
H645 C654 0.929 . S
C646 H640 0.930 . S
C646 C647 1.367 . S
C646 C654 1.378 . S
C647 C646 1.367 . S
C647 C655 1.433 . S
C648 H644 0.929 . S
C648 C650 1.378 . S
C648 C652 1.350 . S
C649 C652 1.463 . S
C649 C654 1.350 . S
C649 N657 1.427 . S
C650 H641 0.930 . S
C650 C648 1.378 . S
C650 C651 1.367 . S
C651 C650 1.367 . S
C651 C653 1.433 . S
C652 C648 1.350 . S
C652 C649 1.463 . S
C652 N656 1.427 . S
C653 H643 0.929 . S
C653 C651 1.433 . S
C653 N656 1.384 . S
C654 H645 0.929 . S
C654 C646 1.378 . S
C654 C649 1.350 . S
C655 H642 0.929 . S
C655 C647 1.433 . S
C655 N657 1.384 . S
N656 C652 1.427 . S
N656 C653 1.384 . S
N657 C649 1.427 . S
N657 C655 1.384 . S
H658 C664 0.930 . S
H659 C668 0.930 . S
H660 C673 0.929 . S
H661 C671 0.929 . S
H662 C666 0.929 . S
H663 C672 0.929 . S
C664 H658 0.930 . S
C664 C665 1.367 . S
C664 C672 1.378 . S
C665 C664 1.367 . S
C665 C673 1.433 . S
C666 H662 0.929 . S
C666 C668 1.378 . S
C666 C670 1.350 . S
C667 C670 1.463 . S
C667 C672 1.350 . S
C667 N675 1.427 . S
C668 H659 0.930 . S
C668 C666 1.378 . S
C668 C669 1.367 . S
C669 C668 1.367 . S
C669 C671 1.433 . S
C670 C666 1.350 . S
C670 C667 1.463 . S
C670 N674 1.427 . S
C671 H661 0.929 . S
C671 C669 1.433 . S
C671 N674 1.384 . S
C672 H663 0.929 . S
C672 C664 1.378 . S
C672 C667 1.350 . S
C673 H660 0.929 . S
C673 C665 1.433 . S
C673 N675 1.384 . S
N674 C670 1.427 . S
N674 C671 1.384 . S
N675 C667 1.427 . S
N675 C673 1.384 . S
H676 C682 0.930 . S
H677 C686 0.930 . S
H678 C691 0.929 . S
H679 C689 0.929 . S
H680 C684 0.929 . S
H681 C690 0.929 . S
C682 H676 0.930 . S
C682 C683 1.367 . S
C682 C690 1.378 . S
C683 C682 1.367 . S
C683 C691 1.433 . S
C684 H680 0.929 . S
C684 C686 1.378 . S
C684 C688 1.350 . S
C685 C688 1.463 . S
C685 C690 1.350 . S
C685 N693 1.427 . S
C686 H677 0.930 . S
C686 C684 1.378 . S
C686 C687 1.367 . S
C687 C686 1.367 . S
C687 C689 1.433 . S
C688 C684 1.350 . S
C688 C685 1.463 . S
C688 N692 1.427 . S
C689 H679 0.929 . S
C689 C687 1.433 . S
C689 N692 1.384 . S
C690 H681 0.929 . S
C690 C682 1.378 . S
C690 C685 1.350 . S
C691 H678 0.929 . S
C691 C683 1.433 . S
C691 N693 1.384 . S
N692 C688 1.427 . S
N692 C689 1.384 . S
N693 C685 1.427 . S
N693 C691 1.384 . S
H694 C700 0.930 . S
H695 C704 0.930 . S
H696 C709 0.929 . S
H697 C707 0.929 . S
H698 C702 0.929 . S
H699 C708 0.929 . S
C700 H694 0.930 . S
C700 C701 1.367 . S
C700 C708 1.378 . S
C701 C700 1.367 . S
C701 C709 1.433 . S
C702 H698 0.929 . S
C702 C704 1.378 . S
C702 C706 1.350 . S
C703 C706 1.463 . S
C703 C708 1.350 . S
C703 N711 1.427 . S
C704 H695 0.930 . S
C704 C702 1.378 . S
C704 C705 1.367 . S
C705 C704 1.367 . S
C705 C707 1.433 . S
C706 C702 1.350 . S
C706 C703 1.463 . S
C706 N710 1.427 . S
C707 H697 0.929 . S
C707 C705 1.433 . S
C707 N710 1.384 . S
C708 H699 0.929 . S
C708 C700 1.378 . S
C708 C703 1.350 . S
C709 H696 0.929 . S
C709 C701 1.433 . S
C709 N711 1.384 . S
N710 C706 1.427 . S
N710 C707 1.384 . S
N711 C703 1.427 . S
N711 C709 1.384 . S
H712 C718 0.930 . S
H713 C722 0.930 . S
H714 C727 0.929 . S
H715 C725 0.929 . S
H716 C720 0.929 . S
H717 C726 0.929 . S
C718 H712 0.930 . S
C718 C719 1.367 . S
C718 C726 1.378 . S
C719 C718 1.367 . S
C719 C727 1.433 . S
C720 H716 0.929 . S
C720 C722 1.378 . S
C720 C724 1.350 . S
C721 C724 1.463 . S
C721 C726 1.350 . S
C721 N729 1.427 . S
C722 H713 0.930 . S
C722 C720 1.378 . S
C722 C723 1.367 . S
C723 C722 1.367 . S
C723 C725 1.433 . S
C724 C720 1.350 . S
C724 C721 1.463 . S
C724 N728 1.427 . S
C725 H715 0.929 . S
C725 C723 1.433 . S
C725 N728 1.384 . S
C726 H717 0.929 . S
C726 C718 1.378 . S
C726 C721 1.350 . S
C727 H714 0.929 . S
C727 C719 1.433 . S
C727 N729 1.384 . S
N728 C724 1.427 . S
N728 C725 1.384 . S
N729 C721 1.427 . S
N729 C727 1.384 . S
H730 C736 0.930 . S
H731 C740 0.930 . S
H732 C745 0.929 . S
H733 C743 0.929 . S
H734 C738 0.929 . S
H735 C744 0.929 . S
C736 H730 0.930 . S
C736 C737 1.367 . S
C736 C744 1.378 . S
C737 C736 1.367 . S
C737 C745 1.433 . S
C738 H734 0.929 . S
C738 C740 1.378 . S
C738 C742 1.350 . S
C739 C742 1.463 . S
C739 C744 1.350 . S
C739 N747 1.427 . S
C740 H731 0.930 . S
C740 C738 1.378 . S
C740 C741 1.367 . S
C741 C740 1.367 . S
C741 C743 1.433 . S
C742 C738 1.350 . S
C742 C739 1.463 . S
C742 N746 1.427 . S
C743 H733 0.929 . S
C743 C741 1.433 . S
C743 N746 1.384 . S
C744 H735 0.929 . S
C744 C736 1.378 . S
C744 C739 1.350 . S
C745 H732 0.929 . S
C745 C737 1.433 . S
C745 N747 1.384 . S
N746 C742 1.427 . S
N746 C743 1.384 . S
N747 C739 1.427 . S
N747 C745 1.384 . S
H748 C754 0.930 . S
H749 C758 0.930 . S
H750 C763 0.929 . S
H751 C761 0.929 . S
H752 C756 0.929 . S
H753 C762 0.929 . S
C754 H748 0.930 . S
C754 C755 1.367 . S
C754 C762 1.378 . S
C755 C754 1.367 . S
C755 C763 1.433 . S
C756 H752 0.929 . S
C756 C758 1.378 . S
C756 C760 1.350 . S
C757 C760 1.463 . S
C757 C762 1.350 . S
C757 N765 1.427 . S
C758 H749 0.930 . S
C758 C756 1.378 . S
C758 C759 1.367 . S
C759 C758 1.367 . S
C759 C761 1.433 . S
C760 C756 1.350 . S
C760 C757 1.463 . S
C760 N764 1.427 . S
C761 H751 0.929 . S
C761 C759 1.433 . S
C761 N764 1.384 . S
C762 H753 0.929 . S
C762 C754 1.378 . S
C762 C757 1.350 . S
C763 H750 0.929 . S
C763 C755 1.433 . S
C763 N765 1.384 . S
N764 C760 1.427 . S
N764 C761 1.384 . S
N765 C757 1.427 . S
N765 C763 1.384 . S
H766 C772 0.930 . S
H767 C776 0.930 . S
H768 C781 0.929 . S
H769 C779 0.929 . S
H770 C774 0.929 . S
H771 C780 0.929 . S
C772 H766 0.930 . S
C772 C773 1.367 . S
C772 C780 1.378 . S
C773 C772 1.367 . S
C773 C781 1.433 . S
C774 H770 0.929 . S
C774 C776 1.378 . S
C774 C778 1.350 . S
C775 C778 1.463 . S
C775 C780 1.350 . S
C775 N783 1.427 . S
C776 H767 0.930 . S
C776 C774 1.378 . S
C776 C777 1.367 . S
C777 C776 1.367 . S
C777 C779 1.433 . S
C778 C774 1.350 . S
C778 C775 1.463 . S
C778 N782 1.427 . S
C779 H769 0.929 . S
C779 C777 1.433 . S
C779 N782 1.384 . S
C780 H771 0.929 . S
C780 C772 1.378 . S
C780 C775 1.350 . S
C781 H768 0.929 . S
C781 C773 1.433 . S
C781 N783 1.384 . S
N782 C778 1.427 . S
N782 C779 1.384 . S
N783 C775 1.427 . S
N783 C781 1.384 . S
H784 C790 0.930 . S
H785 C794 0.930 . S
H786 C799 0.929 1_545 S
H787 C797 0.929 1_565 S
H788 C792 0.929 . S
H789 C798 0.929 . S
C790 H784 0.930 . S
C790 C791 1.367 . S
C790 C798 1.378 . S
C791 C790 1.367 . S
C791 C799 1.433 . S
C792 H788 0.929 . S
C792 C794 1.378 . S
C792 C796 1.350 . S
C793 C796 1.463 1_565 S
C793 C798 1.350 . S
C793 N801 1.427 1_565 S
C794 H785 0.930 . S
C794 C792 1.378 . S
C794 C795 1.367 . S
C795 C794 1.367 . S
C795 C797 1.433 . S
C796 C792 1.350 . S
C796 C793 1.463 1_545 S
C796 N800 1.427 1_545 S
C797 H787 0.929 1_545 S
C797 C795 1.433 . S
C797 N800 1.384 1_545 S
C798 H789 0.929 . S
C798 C790 1.378 . S
C798 C793 1.350 . S
C799 H786 0.929 1_565 S
C799 C791 1.433 . S
C799 N801 1.384 1_565 S
N800 C796 1.427 1_565 S
N800 C797 1.384 1_565 S
N801 C793 1.427 1_545 S
N801 C799 1.384 1_545 S
H802 C808 0.930 . S
H803 C812 0.930 . S
H804 C817 0.929 1_565 S
H805 C815 0.929 1_545 S
H806 C810 0.929 . S
H807 C816 0.929 . S
C808 H802 0.930 . S
C808 C809 1.367 . S
C808 C816 1.378 . S
C809 C808 1.367 . S
C809 C817 1.433 . S
C810 H806 0.929 . S
C810 C812 1.378 . S
C810 C814 1.350 . S
C811 C814 1.463 1_545 S
C811 C816 1.350 . S
C811 N819 1.427 1_545 S
C812 H803 0.930 . S
C812 C810 1.378 . S
C812 C813 1.367 . S
C813 C812 1.367 . S
C813 C815 1.433 . S
C814 C810 1.350 . S
C814 C811 1.463 1_565 S
C814 N818 1.427 1_565 S
C815 H805 0.929 1_565 S
C815 C813 1.433 . S
C815 N818 1.384 1_565 S
C816 H807 0.929 . S
C816 C808 1.378 . S
C816 C811 1.350 . S
C817 H804 0.929 1_545 S
C817 C809 1.433 . S
C817 N819 1.384 1_545 S
N818 C814 1.427 1_545 S
N818 C815 1.384 1_545 S
N819 C811 1.427 1_565 S
N819 C817 1.384 1_565 S
H820 C826 0.930 . S
H821 C830 0.930 . S
H822 C835 0.929 1_565 S
H823 C833 0.929 1_545 S
H824 C828 0.929 . S
H825 C834 0.929 . S
C826 H820 0.930 . S
C826 C827 1.367 . S
C826 C834 1.378 . S
C827 C826 1.367 . S
C827 C835 1.433 . S
C828 H824 0.929 . S
C828 C830 1.378 . S
C828 C832 1.350 . S
C829 C832 1.463 1_545 S
C829 C834 1.350 . S
C829 N837 1.427 1_545 S
C830 H821 0.930 . S
C830 C828 1.378 . S
C830 C831 1.367 . S
C831 C830 1.367 . S
C831 C833 1.433 . S
C832 C828 1.350 . S
C832 C829 1.463 1_565 S
C832 N836 1.427 1_565 S
C833 H823 0.929 1_565 S
C833 C831 1.433 . S
C833 N836 1.384 1_565 S
C834 H825 0.929 . S
C834 C826 1.378 . S
C834 C829 1.350 . S
C835 H822 0.929 1_545 S
C835 C827 1.433 . S
C835 N837 1.384 1_545 S
N836 C832 1.427 1_545 S
N836 C833 1.384 1_545 S
N837 C829 1.427 1_565 S
N837 C835 1.384 1_565 S
H838 C844 0.930 1_565 S
H839 C848 0.930 1_545 S
H840 C853 0.929 . S
H841 C851 0.929 . S
H842 C846 0.929 . S
H843 C852 0.929 . S
C844 H838 0.930 1_545 S
C844 C845 1.367 . S
C844 C852 1.378 1_545 S
C845 C844 1.367 . S
C845 C853 1.433 . S
C846 H842 0.929 . S
C846 C848 1.378 1_545 S
C846 C850 1.350 1_545 S
C847 C850 1.463 1_545 S
C847 C852 1.350 1_545 S
C847 N855 1.427 . S
C848 H839 0.930 1_565 S
C848 C846 1.378 1_565 S
C848 C849 1.367 . S
C849 C848 1.367 . S
C849 C851 1.433 . S
C850 C846 1.350 1_565 S
C850 C847 1.463 1_565 S
C850 N854 1.427 . S
C851 H841 0.929 . S
C851 C849 1.433 . S
C851 N854 1.384 . S
C852 H843 0.929 . S
C852 C844 1.378 1_565 S
C852 C847 1.350 1_565 S
C853 H840 0.929 . S
C853 C845 1.433 . S
C853 N855 1.384 . S
N854 C850 1.427 . S
N854 C851 1.384 . S
N855 C847 1.427 . S
N855 C853 1.384 . S
H856 C862 0.930 . S
H857 C866 0.930 . S
H858 C871 0.929 . S
H859 C869 0.929 . S
H860 C864 0.929 . S
H861 C870 0.929 . S
C862 H856 0.930 . S
C862 C863 1.367 . S
C862 C870 1.378 . S
C863 C862 1.367 . S
C863 C871 1.433 . S
C864 H860 0.929 . S
C864 C866 1.378 . S
C864 C868 1.350 . S
C865 C868 1.463 . S
C865 C870 1.350 . S
C865 N873 1.427 . S
C866 H857 0.930 . S
C866 C864 1.378 . S
C866 C867 1.367 . S
C867 C866 1.367 . S
C867 C869 1.433 . S
C868 C864 1.350 . S
C868 C865 1.463 . S
C868 N872 1.427 . S
C869 H859 0.929 . S
C869 C867 1.433 . S
C869 N872 1.384 . S
C870 H861 0.929 . S
C870 C862 1.378 . S
C870 C865 1.350 . S
C871 H858 0.929 . S
C871 C863 1.433 . S
C871 N873 1.384 . S
N872 C868 1.427 . S
N872 C869 1.384 . S
N873 C865 1.427 . S
N873 C871 1.384 . S
H874 C880 0.930 . S
H875 C884 0.930 . S
H876 C889 0.929 . S
H877 C887 0.929 . S
H878 C882 0.929 . S
H879 C888 0.929 . S
C880 H874 0.930 . S
C880 C881 1.367 . S
C880 C888 1.378 . S
C881 C880 1.367 . S
C881 C889 1.433 . S
C882 H878 0.929 . S
C882 C884 1.378 . S
C882 C886 1.350 . S
C883 C886 1.463 . S
C883 C888 1.350 . S
C883 N891 1.427 . S
C884 H875 0.930 . S
C884 C882 1.378 . S
C884 C885 1.367 . S
C885 C884 1.367 . S
C885 C887 1.433 . S
C886 C882 1.350 . S
C886 C883 1.463 . S
C886 N890 1.427 . S
C887 H877 0.929 . S
C887 C885 1.433 . S
C887 N890 1.384 . S
C888 H879 0.929 . S
C888 C880 1.378 . S
C888 C883 1.350 . S
C889 H876 0.929 . S
C889 C881 1.433 . S
C889 N891 1.384 . S
N890 C886 1.427 . S
N890 C887 1.384 . S
N891 C883 1.427 . S
N891 C889 1.384 . S
H892 C898 0.930 . S
H893 C902 0.930 . S
H894 C907 0.929 . S
H895 C905 0.929 . S
H896 C900 0.929 . S
H897 C906 0.929 . S
C898 H892 0.930 . S
C898 C899 1.367 . S
C898 C906 1.378 . S
C899 C898 1.367 . S
C899 C907 1.433 . S
C900 H896 0.929 . S
C900 C902 1.378 . S
C900 C904 1.350 . S
C901 C904 1.463 . S
C901 C906 1.350 . S
C901 N909 1.427 . S
C902 H893 0.930 . S
C902 C900 1.378 . S
C902 C903 1.367 . S
C903 C902 1.367 . S
C903 C905 1.433 . S
C904 C900 1.350 . S
C904 C901 1.463 . S
C904 N908 1.427 . S
C905 H895 0.929 . S
C905 C903 1.433 . S
C905 N908 1.384 . S
C906 H897 0.929 . S
C906 C898 1.378 . S
C906 C901 1.350 . S
C907 H894 0.929 . S
C907 C899 1.433 . S
C907 N909 1.384 . S
N908 C904 1.427 . S
N908 C905 1.384 . S
N909 C901 1.427 . S
N909 C907 1.384 . S
H910 C916 0.930 . S
H911 C920 0.930 . S
H912 C925 0.929 . S
H913 C923 0.929 . S
H914 C918 0.929 . S
H915 C924 0.929 . S
C916 H910 0.930 . S
C916 C917 1.367 . S
C916 C924 1.378 . S
C917 C916 1.367 . S
C917 C925 1.433 . S
C918 H914 0.929 . S
C918 C920 1.378 . S
C918 C922 1.350 . S
C919 C922 1.463 . S
C919 C924 1.350 . S
C919 N927 1.427 . S
C920 H911 0.930 . S
C920 C918 1.378 . S
C920 C921 1.367 . S
C921 C920 1.367 . S
C921 C923 1.433 . S
C922 C918 1.350 . S
C922 C919 1.463 . S
C922 N926 1.427 . S
C923 H913 0.929 . S
C923 C921 1.433 . S
C923 N926 1.384 . S
C924 H915 0.929 . S
C924 C916 1.378 . S
C924 C919 1.350 . S
C925 H912 0.929 . S
C925 C917 1.433 . S
C925 N927 1.384 . S
N926 C922 1.427 . S
N926 C923 1.384 . S
N927 C919 1.427 . S
N927 C925 1.384 . S
H928 C934 0.930 . S
H929 C938 0.930 . S
H930 C943 0.929 . S
H931 C941 0.929 . S
H932 C936 0.929 . S
H933 C942 0.929 . S
C934 H928 0.930 . S
C934 C935 1.367 . S
C934 C942 1.378 . S
C935 C934 1.367 . S
C935 C943 1.433 . S
C936 H932 0.929 . S
C936 C938 1.378 . S
C936 C940 1.350 . S
C937 C940 1.463 1_556 S
C937 C942 1.350 . S
C937 N945 1.427 . S
C938 H929 0.930 . S
C938 C936 1.378 . S
C938 C939 1.367 . S
C939 C938 1.367 . S
C939 C941 1.433 . S
C940 C936 1.350 . S
C940 C937 1.463 1_554 S
C940 N944 1.427 . S
C941 H931 0.929 . S
C941 C939 1.433 . S
C941 N944 1.384 . S
C942 H933 0.929 . S
C942 C934 1.378 . S
C942 C937 1.350 . S
C943 H930 0.929 . S
C943 C935 1.433 . S
C943 N945 1.384 . S
N944 C940 1.427 . S
N944 C941 1.384 . S
N945 C937 1.427 . S
N945 C943 1.384 . S
H946 C952 0.930 . S
H947 C956 0.930 . S
H948 C961 0.929 . S
H949 C959 0.929 . S
H950 C954 0.929 . S
H951 C960 0.929 . S
C952 H946 0.930 . S
C952 C953 1.367 . S
C952 C960 1.378 . S
C953 C952 1.367 . S
C953 C961 1.433 . S
C954 H950 0.929 . S
C954 C956 1.378 . S
C954 C958 1.350 . S
C955 C958 1.463 1_556 S
C955 C960 1.350 . S
C955 N963 1.427 . S
C956 H947 0.930 . S
C956 C954 1.378 . S
C956 C957 1.367 . S
C957 C956 1.367 . S
C957 C959 1.433 . S
C958 C954 1.350 . S
C958 C955 1.463 1_554 S
C958 N962 1.427 . S
C959 H949 0.929 . S
C959 C957 1.433 . S
C959 N962 1.384 . S
C960 H951 0.929 . S
C960 C952 1.378 . S
C960 C955 1.350 . S
C961 H948 0.929 . S
C961 C953 1.433 . S
C961 N963 1.384 . S
N962 C958 1.427 . S
N962 C959 1.384 . S
N963 C955 1.427 . S
N963 C961 1.384 . S
H964 C970 0.930 . S
H965 C974 0.930 . S
H966 C979 0.929 . S
H967 C977 0.929 . S
H968 C972 0.929 . S
H969 C978 0.929 . S
C970 H964 0.930 . S
C970 C971 1.367 . S
C970 C978 1.378 . S
C971 C970 1.367 . S
C971 C979 1.433 . S
C972 H968 0.929 . S
C972 C974 1.378 . S
C972 C976 1.350 . S
C973 C976 1.463 . S
C973 C978 1.350 . S
C973 N981 1.427 . S
C974 H965 0.930 . S
C974 C972 1.378 . S
C974 C975 1.367 . S
C975 C974 1.367 . S
C975 C977 1.433 . S
C976 C972 1.350 . S
C976 C973 1.463 . S
C976 N980 1.427 . S
C977 H967 0.929 . S
C977 C975 1.433 . S
C977 N980 1.384 . S
C978 H969 0.929 . S
C978 C970 1.378 . S
C978 C973 1.350 . S
C979 H966 0.929 . S
C979 C971 1.433 . S
C979 N981 1.384 . S
N980 C976 1.427 . S
N980 C977 1.384 . S
N981 C973 1.427 . S
N981 C979 1.384 . S
H982 C988 0.930 . S
H983 C992 0.930 . S
H984 C997 0.929 . S
H985 C995 0.929 . S
H986 C990 0.929 . S
H987 C996 0.929 . S
C988 H982 0.930 . S
C988 C989 1.367 . S
C988 C996 1.378 . S
C989 C988 1.367 . S
C989 C997 1.433 . S
C990 H986 0.929 . S
C990 C992 1.378 . S
C990 C994 1.350 . S
C991 C994 1.463 . S
C991 C996 1.350 . S
C991 N999 1.427 . S
C992 H983 0.930 . S
C992 C990 1.378 . S
C992 C993 1.367 . S
C993 C992 1.367 . S
C993 C995 1.433 . S
C994 C990 1.350 . S
C994 C991 1.463 . S
C994 N998 1.427 . S
C995 H985 0.929 . S
C995 C993 1.433 . S
C995 N998 1.384 . S
C996 H987 0.929 . S
C996 C988 1.378 . S
C996 C991 1.350 . S
C997 H984 0.929 . S
C997 C989 1.433 . S
C997 N999 1.384 . S
N998 C994 1.427 . S
N998 C995 1.384 . S
N999 C991 1.427 . S
N999 C997 1.384 . S
H1000 C1006 0.930 . S
H1001 C1010 0.930 . S
H1002 C1015 0.929 . S
H1003 C1013 0.929 . S
H1004 C1008 0.929 . S
H1005 C1014 0.929 . S
C1006 H1000 0.930 . S
C1006 C1007 1.367 . S
C1006 C1014 1.378 . S
C1007 C1006 1.367 . S
C1007 C1015 1.433 . S
C1008 H1004 0.929 . S
C1008 C1010 1.378 . S
C1008 C1012 1.350 . S
C1009 C1012 1.463 1_554 S
C1009 C1014 1.350 . S
C1009 N1017 1.427 . S
C1010 H1001 0.930 . S
C1010 C1008 1.378 . S
C1010 C1011 1.367 . S
C1011 C1010 1.367 . S
C1011 C1013 1.433 . S
C1012 C1008 1.350 . S
C1012 C1009 1.463 1_556 S
C1012 N1016 1.427 . S
C1013 H1003 0.929 . S
C1013 C1011 1.433 . S
C1013 N1016 1.384 . S
C1014 H1005 0.929 . S
C1014 C1006 1.378 . S
C1014 C1009 1.350 . S
C1015 H1002 0.929 . S
C1015 C1007 1.433 . S
C1015 N1017 1.384 . S
N1016 C1012 1.427 . S
N1016 C1013 1.384 . S
N1017 C1009 1.427 . S
N1017 C1015 1.384 . S
H1018 C1024 0.930 . S
H1019 C1028 0.930 . S
H1020 C1033 0.929 . S
H1021 C1031 0.929 . S
H1022 C1026 0.929 . S
H1023 C1032 0.929 . S
C1024 H1018 0.930 . S
C1024 C1025 1.367 . S
C1024 C1032 1.378 . S
C1025 C1024 1.367 . S
C1025 C1033 1.433 . S
C1026 H1022 0.929 . S
C1026 C1028 1.378 . S
C1026 C1030 1.350 . S
C1027 C1030 1.463 1_556 S
C1027 C1032 1.350 . S
C1027 N1035 1.427 . S
C1028 H1019 0.930 . S
C1028 C1026 1.378 . S
C1028 C1029 1.367 . S
C1029 C1028 1.367 . S
C1029 C1031 1.433 . S
C1030 C1026 1.350 . S
C1030 C1027 1.463 1_554 S
C1030 N1034 1.427 . S
C1031 H1021 0.929 . S
C1031 C1029 1.433 . S
C1031 N1034 1.384 . S
C1032 H1023 0.929 . S
C1032 C1024 1.378 . S
C1032 C1027 1.350 . S
C1033 H1020 0.929 . S
C1033 C1025 1.433 . S
C1033 N1035 1.384 . S
N1034 C1030 1.427 . S
N1034 C1031 1.384 . S
N1035 C1027 1.427 . S
N1035 C1033 1.384 . S
H1036 C1042 0.930 . S
H1037 C1046 0.930 . S
H1038 C1051 0.929 . S
H1039 C1049 0.929 . S
H1040 C1044 0.929 . S
H1041 C1050 0.929 . S
C1042 H1036 0.930 . S
C1042 C1043 1.367 . S
C1042 C1050 1.378 . S
C1043 C1042 1.367 . S
C1043 C1051 1.433 . S
C1044 H1040 0.929 . S
C1044 C1046 1.378 . S
C1044 C1048 1.350 . S
C1045 C1048 1.463 . S
C1045 C1050 1.350 . S
C1045 N1053 1.427 . S
C1046 H1037 0.930 . S
C1046 C1044 1.378 . S
C1046 C1047 1.367 . S
C1047 C1046 1.367 . S
C1047 C1049 1.433 . S
C1048 C1044 1.350 . S
C1048 C1045 1.463 . S
C1048 N1052 1.427 . S
C1049 H1039 0.929 . S
C1049 C1047 1.433 . S
C1049 N1052 1.384 . S
C1050 H1041 0.929 . S
C1050 C1042 1.378 . S
C1050 C1045 1.350 . S
C1051 H1038 0.929 . S
C1051 C1043 1.433 . S
C1051 N1053 1.384 . S
N1052 C1048 1.427 . S
N1052 C1049 1.384 . S
N1053 C1045 1.427 . S
N1053 C1051 1.384 . S
H1054 C1060 0.930 . S
H1055 C1064 0.930 . S
H1056 C1069 0.929 . S
H1057 C1067 0.929 . S
H1058 C1062 0.929 . S
H1059 C1068 0.929 . S
C1060 H1054 0.930 . S
C1060 C1061 1.367 . S
C1060 C1068 1.378 . S
C1061 C1060 1.367 . S
C1061 C1069 1.433 . S
C1062 H1058 0.929 . S
C1062 C1064 1.378 . S
C1062 C1066 1.350 . S
C1063 C1066 1.463 . S
C1063 C1068 1.350 . S
C1063 N1071 1.427 . S
C1064 H1055 0.930 . S
C1064 C1062 1.378 . S
C1064 C1065 1.367 . S
C1065 C1064 1.367 . S
C1065 C1067 1.433 . S
C1066 C1062 1.350 . S
C1066 C1063 1.463 . S
C1066 N1070 1.427 . S
C1067 H1057 0.929 . S
C1067 C1065 1.433 . S
C1067 N1070 1.384 . S
C1068 H1059 0.929 . S
C1068 C1060 1.378 . S
C1068 C1063 1.350 . S
C1069 H1056 0.929 . S
C1069 C1061 1.433 . S
C1069 N1071 1.384 . S
N1070 C1066 1.427 . S
N1070 C1067 1.384 . S
N1071 C1063 1.427 . S
N1071 C1069 1.384 . S
H1072 C1078 0.930 . S
H1073 C1082 0.930 . S
H1074 C1087 0.929 . S
H1075 C1085 0.929 . S
H1076 C1080 0.929 . S
H1077 C1086 0.929 . S
C1078 H1072 0.930 . S
C1078 C1079 1.367 . S
C1078 C1086 1.378 . S
C1079 C1078 1.367 . S
C1079 C1087 1.433 1_565 S
C1080 H1076 0.929 . S
C1080 C1082 1.378 . S
C1080 C1084 1.350 . S
C1081 C1084 1.463 1_665 S
C1081 C1086 1.350 . S
C1081 N1089 1.427 1_565 S
C1082 H1073 0.930 . S
C1082 C1080 1.378 . S
C1082 C1083 1.367 . S
C1083 C1082 1.367 . S
C1083 C1085 1.433 1_545 S
C1084 C1080 1.350 . S
C1084 C1081 1.463 1_445 S
C1084 N1088 1.427 1_545 S
C1085 H1075 0.929 . S
C1085 C1083 1.433 1_565 S
C1085 N1088 1.384 . S
C1086 H1077 0.929 . S
C1086 C1078 1.378 . S
C1086 C1081 1.350 . S
C1087 H1074 0.929 . S
C1087 C1079 1.433 1_545 S
C1087 N1089 1.384 . S
N1088 C1084 1.427 1_565 S
N1088 C1085 1.384 . S
N1089 C1081 1.427 1_545 S
N1089 C1087 1.384 . S
H1090 C1096 0.930 . S
H1091 C1100 0.930 . S
H1092 C1105 0.929 . S
H1093 C1103 0.929 . S
H1094 C1098 0.929 . S
H1095 C1104 0.929 . S
C1096 H1090 0.930 . S
C1096 C1097 1.367 1_565 S
C1096 C1104 1.378 . S
C1097 C1096 1.367 1_545 S
C1097 C1105 1.433 . S
C1098 H1094 0.929 . S
C1098 C1100 1.378 . S
C1098 C1102 1.350 1_545 S
C1099 C1102 1.463 1_645 S
C1099 C1104 1.350 1_545 S
C1099 N1107 1.427 . S
C1100 H1091 0.930 . S
C1100 C1098 1.378 . S
C1100 C1101 1.367 1_545 S
C1101 C1100 1.367 1_565 S
C1101 C1103 1.433 . S
C1102 C1098 1.350 1_565 S
C1102 C1099 1.463 1_465 S
C1102 N1106 1.427 . S
C1103 H1093 0.929 . S
C1103 C1101 1.433 . S
C1103 N1106 1.384 . S
C1104 H1095 0.929 . S
C1104 C1096 1.378 . S
C1104 C1099 1.350 1_565 S
C1105 H1092 0.929 . S
C1105 C1097 1.433 . S
C1105 N1107 1.384 . S
N1106 C1102 1.427 . S
N1106 C1103 1.384 . S
N1107 C1099 1.427 . S
N1107 C1105 1.384 . S
H1108 C1114 0.930 . S
H1109 C1118 0.930 . S
H1110 C1123 0.929 . S
H1111 C1121 0.929 . S
H1112 C1116 0.929 . S
H1113 C1122 0.929 . S
C1114 H1108 0.930 . S
C1114 C1115 1.367 . S
C1114 C1122 1.378 . S
C1115 C1114 1.367 . S
C1115 C1123 1.433 . S
C1116 H1112 0.929 . S
C1116 C1118 1.378 . S
C1116 C1120 1.350 . S
C1117 C1120 1.463 1_445 S
C1117 C1122 1.350 . S
C1117 N1125 1.427 . S
C1118 H1109 0.930 . S
C1118 C1116 1.378 . S
C1118 C1119 1.367 . S
C1119 C1118 1.367 . S
C1119 C1121 1.433 . S
C1120 C1116 1.350 . S
C1120 C1117 1.463 1_665 S
C1120 N1124 1.427 . S
C1121 H1111 0.929 . S
C1121 C1119 1.433 . S
C1121 N1124 1.384 . S
C1122 H1113 0.929 . S
C1122 C1114 1.378 . S
C1122 C1117 1.350 . S
C1123 H1110 0.929 . S
C1123 C1115 1.433 . S
C1123 N1125 1.384 . S
N1124 C1120 1.427 . S
N1124 C1121 1.384 . S
N1125 C1117 1.427 . S
N1125 C1123 1.384 . S
H1126 C1132 0.930 . S
H1127 C1136 0.930 . S
H1128 C1141 0.929 . S
H1129 C1139 0.929 . S
H1130 C1134 0.929 . S
H1131 C1140 0.929 . S
C1132 H1126 0.930 . S
C1132 C1133 1.367 . S
C1132 C1140 1.378 . S
C1133 C1132 1.367 . S
C1133 C1141 1.433 . S
C1134 H1130 0.929 . S
C1134 C1136 1.378 . S
C1134 C1138 1.350 . S
C1135 C1138 1.463 1_645 S
C1135 C1140 1.350 . S
C1135 N1143 1.427 . S
C1136 H1127 0.930 . S
C1136 C1134 1.378 . S
C1136 C1137 1.367 . S
C1137 C1136 1.367 . S
C1137 C1139 1.433 . S
C1138 C1134 1.350 . S
C1138 C1135 1.463 1_465 S
C1138 N1142 1.427 . S
C1139 H1129 0.929 . S
C1139 C1137 1.433 . S
C1139 N1142 1.384 . S
C1140 H1131 0.929 . S
C1140 C1132 1.378 . S
C1140 C1135 1.350 . S
C1141 H1128 0.929 . S
C1141 C1133 1.433 . S
C1141 N1143 1.384 . S
N1142 C1138 1.427 . S
N1142 C1139 1.384 . S
N1143 C1135 1.427 . S
N1143 C1141 1.384 . S
H1144 C1150 0.930 . S
H1145 C1154 0.930 . S
H1146 C1159 0.929 . S
H1147 C1157 0.929 . S
H1148 C1152 0.929 . S
H1149 C1158 0.929 . S
C1150 H1144 0.930 . S
C1150 C1151 1.367 . S
C1150 C1158 1.378 . S
C1151 C1150 1.367 . S
C1151 C1159 1.433 . S
C1152 H1148 0.929 . S
C1152 C1154 1.378 . S
C1152 C1156 1.350 . S
C1153 C1156 1.463 . S
C1153 C1158 1.350 . S
C1153 N1161 1.427 . S
C1154 H1145 0.930 . S
C1154 C1152 1.378 . S
C1154 C1155 1.367 . S
C1155 C1154 1.367 . S
C1155 C1157 1.433 . S
C1156 C1152 1.350 . S
C1156 C1153 1.463 . S
C1156 N1160 1.427 . S
C1157 H1147 0.929 . S
C1157 C1155 1.433 . S
C1157 N1160 1.384 . S
C1158 H1149 0.929 . S
C1158 C1150 1.378 . S
C1158 C1153 1.350 . S
C1159 H1146 0.929 . S
C1159 C1151 1.433 . S
C1159 N1161 1.384 . S
N1160 C1156 1.427 . S
N1160 C1157 1.384 . S
N1161 C1153 1.427 . S
N1161 C1159 1.384 . S
H1162 C1168 0.930 . S
H1163 C1172 0.930 . S
H1164 C1177 0.929 . S
H1165 C1175 0.929 . S
H1166 C1170 0.929 . S
H1167 C1176 0.929 . S
C1168 H1162 0.930 . S
C1168 C1169 1.367 . S
C1168 C1176 1.378 . S
C1169 C1168 1.367 . S
C1169 C1177 1.433 . S
C1170 H1166 0.929 . S
C1170 C1172 1.378 . S
C1170 C1174 1.350 . S
C1171 C1174 1.463 . S
C1171 C1176 1.350 . S
C1171 N1179 1.427 . S
C1172 H1163 0.930 . S
C1172 C1170 1.378 . S
C1172 C1173 1.367 . S
C1173 C1172 1.367 . S
C1173 C1175 1.433 . S
C1174 C1170 1.350 . S
C1174 C1171 1.463 . S
C1174 N1178 1.427 . S
C1175 H1165 0.929 . S
C1175 C1173 1.433 . S
C1175 N1178 1.384 . S
C1176 H1167 0.929 . S
C1176 C1168 1.378 . S
C1176 C1171 1.350 . S
C1177 H1164 0.929 . S
C1177 C1169 1.433 . S
C1177 N1179 1.384 . S
N1178 C1174 1.427 . S
N1178 C1175 1.384 . S
N1179 C1171 1.427 . S
N1179 C1177 1.384 . S
H1180 C1186 0.930 . S
H1181 C1190 0.930 . S
H1182 C1195 0.929 . S
H1183 C1193 0.929 . S
H1184 C1188 0.929 . S
H1185 C1194 0.929 . S
C1186 H1180 0.930 . S
C1186 C1187 1.367 . S
C1186 C1194 1.378 . S
C1187 C1186 1.367 . S
C1187 C1195 1.433 . S
C1188 H1184 0.929 . S
C1188 C1190 1.378 . S
C1188 C1192 1.350 . S
C1189 C1192 1.463 . S
C1189 C1194 1.350 . S
C1189 N1197 1.427 . S
C1190 H1181 0.930 . S
C1190 C1188 1.378 . S
C1190 C1191 1.367 . S
C1191 C1190 1.367 . S
C1191 C1193 1.433 . S
C1192 C1188 1.350 . S
C1192 C1189 1.463 . S
C1192 N1196 1.427 . S
C1193 H1183 0.929 . S
C1193 C1191 1.433 . S
C1193 N1196 1.384 . S
C1194 H1185 0.929 . S
C1194 C1186 1.378 . S
C1194 C1189 1.350 . S
C1195 H1182 0.929 . S
C1195 C1187 1.433 . S
C1195 N1197 1.384 . S
N1196 C1192 1.427 . S
N1196 C1193 1.384 . S
N1197 C1189 1.427 . S
N1197 C1195 1.384 . S
H1198 C1204 0.930 . S
H1199 C1208 0.930 . S
H1200 C1213 0.929 . S
H1201 C1211 0.929 . S
H1202 C1206 0.929 . S
H1203 C1212 0.929 . S
C1204 H1198 0.930 . S
C1204 C1205 1.367 . S
C1204 C1212 1.378 . S
C1205 C1204 1.367 . S
C1205 C1213 1.433 . S
C1206 H1202 0.929 . S
C1206 C1208 1.378 . S
C1206 C1210 1.350 . S
C1207 C1210 1.463 . S
C1207 C1212 1.350 . S
C1207 N1215 1.427 . S
C1208 H1199 0.930 . S
C1208 C1206 1.378 . S
C1208 C1209 1.367 . S
C1209 C1208 1.367 . S
C1209 C1211 1.433 . S
C1210 C1206 1.350 . S
C1210 C1207 1.463 . S
C1210 N1214 1.427 . S
C1211 H1201 0.929 . S
C1211 C1209 1.433 . S
C1211 N1214 1.384 . S
C1212 H1203 0.929 . S
C1212 C1204 1.378 . S
C1212 C1207 1.350 . S
C1213 H1200 0.929 . S
C1213 C1205 1.433 . S
C1213 N1215 1.384 . S
N1214 C1210 1.427 . S
N1214 C1211 1.384 . S
N1215 C1207 1.427 . S
N1215 C1213 1.384 . S
H1216 C1222 0.930 . S
H1217 C1226 0.930 . S
H1218 C1231 0.929 . S
H1219 C1229 0.929 . S
H1220 C1224 0.929 . S
H1221 C1230 0.929 . S
C1222 H1216 0.930 . S
C1222 C1223 1.367 . S
C1222 C1230 1.378 . S
C1223 C1222 1.367 . S
C1223 C1231 1.433 . S
C1224 H1220 0.929 . S
C1224 C1226 1.378 . S
C1224 C1228 1.350 . S
C1225 C1228 1.463 . S
C1225 C1230 1.350 . S
C1225 N1233 1.427 . S
C1226 H1217 0.930 . S
C1226 C1224 1.378 . S
C1226 C1227 1.367 . S
C1227 C1226 1.367 . S
C1227 C1229 1.433 . S
C1228 C1224 1.350 . S
C1228 C1225 1.463 . S
C1228 N1232 1.427 . S
C1229 H1219 0.929 . S
C1229 C1227 1.433 . S
C1229 N1232 1.384 . S
C1230 H1221 0.929 . S
C1230 C1222 1.378 . S
C1230 C1225 1.350 . S
C1231 H1218 0.929 . S
C1231 C1223 1.433 . S
C1231 N1233 1.384 . S
N1232 C1228 1.427 . S
N1232 C1229 1.384 . S
N1233 C1225 1.427 . S
N1233 C1231 1.384 . S
H1234 C1240 0.930 . S
H1235 C1244 0.930 . S
H1236 C1249 0.929 . S
H1237 C1247 0.929 . S
H1238 C1242 0.929 . S
H1239 C1248 0.929 . S
C1240 H1234 0.930 . S
C1240 C1241 1.367 . S
C1240 C1248 1.378 . S
C1241 C1240 1.367 . S
C1241 C1249 1.433 . S
C1242 H1238 0.929 . S
C1242 C1244 1.378 . S
C1242 C1246 1.350 . S
C1243 C1246 1.463 . S
C1243 C1248 1.350 . S
C1243 N1251 1.427 . S
C1244 H1235 0.930 . S
C1244 C1242 1.378 . S
C1244 C1245 1.367 . S
C1245 C1244 1.367 . S
C1245 C1247 1.433 . S
C1246 C1242 1.350 . S
C1246 C1243 1.463 . S
C1246 N1250 1.427 . S
C1247 H1237 0.929 . S
C1247 C1245 1.433 . S
C1247 N1250 1.384 . S
C1248 H1239 0.929 . S
C1248 C1240 1.378 . S
C1248 C1243 1.350 . S
C1249 H1236 0.929 . S
C1249 C1241 1.433 . S
C1249 N1251 1.384 . S
N1250 C1246 1.427 . S
N1250 C1247 1.384 . S
N1251 C1243 1.427 . S
N1251 C1249 1.384 . S
H1252 C1258 0.930 . S
H1253 C1262 0.930 . S
H1254 C1267 0.929 . S
H1255 C1265 0.929 . S
H1256 C1260 0.929 . S
H1257 C1266 0.929 . S
C1258 H1252 0.930 . S
C1258 C1259 1.367 . S
C1258 C1266 1.378 . S
C1259 C1258 1.367 . S
C1259 C1267 1.433 . S
C1260 H1256 0.929 . S
C1260 C1262 1.378 . S
C1260 C1264 1.350 . S
C1261 C1264 1.463 . S
C1261 C1266 1.350 . S
C1261 N1269 1.427 . S
C1262 H1253 0.930 . S
C1262 C1260 1.378 . S
C1262 C1263 1.367 . S
C1263 C1262 1.367 . S
C1263 C1265 1.433 . S
C1264 C1260 1.350 . S
C1264 C1261 1.463 . S
C1264 N1268 1.427 . S
C1265 H1255 0.929 . S
C1265 C1263 1.433 . S
C1265 N1268 1.384 . S
C1266 H1257 0.929 . S
C1266 C1258 1.378 . S
C1266 C1261 1.350 . S
C1267 H1254 0.929 . S
C1267 C1259 1.433 . S
C1267 N1269 1.384 . S
N1268 C1264 1.427 . S
N1268 C1265 1.384 . S
N1269 C1261 1.427 . S
N1269 C1267 1.384 . S
H1270 C1276 0.930 . S
H1271 C1280 0.930 . S
H1272 C1285 0.929 . S
H1273 C1283 0.929 . S
H1274 C1278 0.929 . S
H1275 C1284 0.929 . S
C1276 H1270 0.930 . S
C1276 C1277 1.367 . S
C1276 C1284 1.378 . S
C1277 C1276 1.367 . S
C1277 C1285 1.433 . S
C1278 H1274 0.929 . S
C1278 C1280 1.378 . S
C1278 C1282 1.350 . S
C1279 C1282 1.463 . S
C1279 C1284 1.350 . S
C1279 N1287 1.427 . S
C1280 H1271 0.930 . S
C1280 C1278 1.378 . S
C1280 C1281 1.367 . S
C1281 C1280 1.367 . S
C1281 C1283 1.433 . S
C1282 C1278 1.350 . S
C1282 C1279 1.463 . S
C1282 N1286 1.427 . S
C1283 H1273 0.929 . S
C1283 C1281 1.433 . S
C1283 N1286 1.384 . S
C1284 H1275 0.929 . S
C1284 C1276 1.378 . S
C1284 C1279 1.350 . S
C1285 H1272 0.929 . S
C1285 C1277 1.433 . S
C1285 N1287 1.384 . S
N1286 C1282 1.427 . S
N1286 C1283 1.384 . S
N1287 C1279 1.427 . S
N1287 C1285 1.384 . S
H1288 C1294 0.930 . S
H1289 C1298 0.930 . S
H1290 C1303 0.929 . S
H1291 C1301 0.929 . S
H1292 C1296 0.929 . S
H1293 C1302 0.929 . S
C1294 H1288 0.930 . S
C1294 C1295 1.367 . S
C1294 C1302 1.378 . S
C1295 C1294 1.367 . S
C1295 C1303 1.433 . S
C1296 H1292 0.929 . S
C1296 C1298 1.378 . S
C1296 C1300 1.350 . S
C1297 C1300 1.463 . S
C1297 C1302 1.350 . S
C1297 N1305 1.427 . S
C1298 H1289 0.930 . S
C1298 C1296 1.378 . S
C1298 C1299 1.367 . S
C1299 C1298 1.367 . S
C1299 C1301 1.433 . S
C1300 C1296 1.350 . S
C1300 C1297 1.463 . S
C1300 N1304 1.427 . S
C1301 H1291 0.929 . S
C1301 C1299 1.433 . S
C1301 N1304 1.384 . S
C1302 H1293 0.929 . S
C1302 C1294 1.378 . S
C1302 C1297 1.350 . S
C1303 H1290 0.929 . S
C1303 C1295 1.433 . S
C1303 N1305 1.384 . S
N1304 C1300 1.427 . S
N1304 C1301 1.384 . S
N1305 C1297 1.427 . S
N1305 C1303 1.384 . S
H1306 C1312 0.930 . S
H1307 C1316 0.930 . S
H1308 C1321 0.929 . S
H1309 C1319 0.929 . S
H1310 C1314 0.929 . S
H1311 C1320 0.929 . S
C1312 H1306 0.930 . S
C1312 C1313 1.367 . S
C1312 C1320 1.378 . S
C1313 C1312 1.367 . S
C1313 C1321 1.433 . S
C1314 H1310 0.929 . S
C1314 C1316 1.378 . S
C1314 C1318 1.350 . S
C1315 C1318 1.463 . S
C1315 C1320 1.350 . S
C1315 N1323 1.427 . S
C1316 H1307 0.930 . S
C1316 C1314 1.378 . S
C1316 C1317 1.367 . S
C1317 C1316 1.367 . S
C1317 C1319 1.433 . S
C1318 C1314 1.350 . S
C1318 C1315 1.463 . S
C1318 N1322 1.427 . S
C1319 H1309 0.929 . S
C1319 C1317 1.433 . S
C1319 N1322 1.384 . S
C1320 H1311 0.929 . S
C1320 C1312 1.378 . S
C1320 C1315 1.350 . S
C1321 H1308 0.929 . S
C1321 C1313 1.433 . S
C1321 N1323 1.384 . S
N1322 C1318 1.427 . S
N1322 C1319 1.384 . S
N1323 C1315 1.427 . S
N1323 C1321 1.384 . S
H1324 C1330 0.930 . S
H1325 C1334 0.930 . S
H1326 C1339 0.929 . S
H1327 C1337 0.929 . S
H1328 C1332 0.929 . S
H1329 C1338 0.929 . S
C1330 H1324 0.930 . S
C1330 C1331 1.367 . S
C1330 C1338 1.378 . S
C1331 C1330 1.367 . S
C1331 C1339 1.433 . S
C1332 H1328 0.929 . S
C1332 C1334 1.378 . S
C1332 C1336 1.350 . S
C1333 C1336 1.463 . S
C1333 C1338 1.350 . S
C1333 N1341 1.427 . S
C1334 H1325 0.930 . S
C1334 C1332 1.378 . S
C1334 C1335 1.367 . S
C1335 C1334 1.367 . S
C1335 C1337 1.433 . S
C1336 C1332 1.350 . S
C1336 C1333 1.463 . S
C1336 N1340 1.427 . S
C1337 H1327 0.929 . S
C1337 C1335 1.433 . S
C1337 N1340 1.384 . S
C1338 H1329 0.929 . S
C1338 C1330 1.378 . S
C1338 C1333 1.350 . S
C1339 H1326 0.929 . S
C1339 C1331 1.433 . S
C1339 N1341 1.384 . S
N1340 C1336 1.427 . S
N1340 C1337 1.384 . S
N1341 C1333 1.427 . S
N1341 C1339 1.384 . S
H1342 C1348 0.930 . S
H1343 C1352 0.930 . S
H1344 C1357 0.929 . S
H1345 C1355 0.929 . S
H1346 C1350 0.929 . S
H1347 C1356 0.929 . S
C1348 H1342 0.930 . S
C1348 C1349 1.367 . S
C1348 C1356 1.378 . S
C1349 C1348 1.367 . S
C1349 C1357 1.433 . S
C1350 H1346 0.929 . S
C1350 C1352 1.378 . S
C1350 C1354 1.350 . S
C1351 C1354 1.463 . S
C1351 C1356 1.350 . S
C1351 N1359 1.427 . S
C1352 H1343 0.930 . S
C1352 C1350 1.378 . S
C1352 C1353 1.367 . S
C1353 C1352 1.367 . S
C1353 C1355 1.433 . S
C1354 C1350 1.350 . S
C1354 C1351 1.463 . S
C1354 N1358 1.427 . S
C1355 H1345 0.929 . S
C1355 C1353 1.433 . S
C1355 N1358 1.384 . S
C1356 H1347 0.929 . S
C1356 C1348 1.378 . S
C1356 C1351 1.350 . S
C1357 H1344 0.929 . S
C1357 C1349 1.433 . S
C1357 N1359 1.384 . S
N1358 C1354 1.427 . S
N1358 C1355 1.384 . S
N1359 C1351 1.427 . S
N1359 C1357 1.384 . S
H1360 C1366 0.930 . S
H1361 C1370 0.930 . S
H1362 C1375 0.929 . S
H1363 C1373 0.929 . S
H1364 C1368 0.929 . S
H1365 C1374 0.929 . S
C1366 H1360 0.930 . S
C1366 C1367 1.367 . S
C1366 C1374 1.378 1_565 S
C1367 C1366 1.367 . S
C1367 C1375 1.433 . S
C1368 H1364 0.929 . S
C1368 C1370 1.378 . S
C1368 C1372 1.350 . S
C1369 C1372 1.463 . S
C1369 C1374 1.350 . S
C1369 N1377 1.427 . S
C1370 H1361 0.930 . S
C1370 C1368 1.378 . S
C1370 C1371 1.367 . S
C1371 C1370 1.367 . S
C1371 C1373 1.433 . S
C1372 C1368 1.350 . S
C1372 C1369 1.463 . S
C1372 N1376 1.427 . S
C1373 H1363 0.929 . S
C1373 C1371 1.433 . S
C1373 N1376 1.384 . S
C1374 H1365 0.929 . S
C1374 C1366 1.378 1_545 S
C1374 C1369 1.350 . S
C1375 H1362 0.929 . S
C1375 C1367 1.433 . S
C1375 N1377 1.384 1_565 S
N1376 C1372 1.427 . S
N1376 C1373 1.384 . S
N1377 C1369 1.427 . S
N1377 C1375 1.384 1_545 S
H1378 C1384 0.930 . S
H1379 C1388 0.930 . S
H1380 C1393 0.929 . S
H1381 C1391 0.929 . S
H1382 C1386 0.929 . S
H1383 C1392 0.929 . S
C1384 H1378 0.930 . S
C1384 C1385 1.367 . S
C1384 C1392 1.378 . S
C1385 C1384 1.367 . S
C1385 C1393 1.433 . S
C1386 H1382 0.929 . S
C1386 C1388 1.378 1_565 S
C1386 C1390 1.350 . S
C1387 C1390 1.463 . S
C1387 C1392 1.350 . S
C1387 N1395 1.427 . S
C1388 H1379 0.930 . S
C1388 C1386 1.378 1_545 S
C1388 C1389 1.367 . S
C1389 C1388 1.367 . S
C1389 C1391 1.433 . S
C1390 C1386 1.350 . S
C1390 C1387 1.463 . S
C1390 N1394 1.427 . S
C1391 H1381 0.929 . S
C1391 C1389 1.433 . S
C1391 N1394 1.384 1_545 S
C1392 H1383 0.929 . S
C1392 C1384 1.378 . S
C1392 C1387 1.350 . S
C1393 H1380 0.929 . S
C1393 C1385 1.433 . S
C1393 N1395 1.384 . S
N1394 C1390 1.427 . S
N1394 C1391 1.384 1_565 S
N1395 C1387 1.427 . S
N1395 C1393 1.384 . S
H1396 C1402 0.930 . S
H1397 C1406 0.930 . S
H1398 C1411 0.929 . S
H1399 C1409 0.929 . S
H1400 C1404 0.929 . S
H1401 C1410 0.929 . S
C1402 H1396 0.930 . S
C1402 C1403 1.367 . S
C1402 C1410 1.378 1_545 S
C1403 C1402 1.367 . S
C1403 C1411 1.433 . S
C1404 H1400 0.929 . S
C1404 C1406 1.378 . S
C1404 C1408 1.350 . S
C1405 C1408 1.463 . S
C1405 C1410 1.350 . S
C1405 N1413 1.427 . S
C1406 H1397 0.930 . S
C1406 C1404 1.378 . S
C1406 C1407 1.367 . S
C1407 C1406 1.367 . S
C1407 C1409 1.433 . S
C1408 C1404 1.350 . S
C1408 C1405 1.463 . S
C1408 N1412 1.427 . S
C1409 H1399 0.929 . S
C1409 C1407 1.433 . S
C1409 N1412 1.384 . S
C1410 H1401 0.929 . S
C1410 C1402 1.378 1_565 S
C1410 C1405 1.350 . S
C1411 H1398 0.929 . S
C1411 C1403 1.433 . S
C1411 N1413 1.384 1_545 S
N1412 C1408 1.427 . S
N1412 C1409 1.384 . S
N1413 C1405 1.427 . S
N1413 C1411 1.384 1_565 S
H1414 C1420 0.930 1_565 S
H1415 C1424 0.930 . S
H1416 C1429 0.929 . S
H1417 C1427 0.929 . S
H1418 C1422 0.929 . S
H1419 C1428 0.929 . S
C1420 H1414 0.930 1_545 S
C1420 C1421 1.367 1_545 S
C1420 C1428 1.378 . S
C1421 C1420 1.367 1_565 S
C1421 C1429 1.433 . S
C1422 H1418 0.929 . S
C1422 C1424 1.378 . S
C1422 C1426 1.350 . S
C1423 C1426 1.463 . S
C1423 C1428 1.350 . S
C1423 N1431 1.427 . S
C1424 H1415 0.930 . S
C1424 C1422 1.378 . S
C1424 C1425 1.367 . S
C1425 C1424 1.367 . S
C1425 C1427 1.433 . S
C1426 C1422 1.350 . S
C1426 C1423 1.463 . S
C1426 N1430 1.427 . S
C1427 H1417 0.929 . S
C1427 C1425 1.433 . S
C1427 N1430 1.384 . S
C1428 H1419 0.929 . S
C1428 C1420 1.378 . S
C1428 C1423 1.350 . S
C1429 H1416 0.929 . S
C1429 C1421 1.433 . S
C1429 N1431 1.384 1_565 S
N1430 C1426 1.427 . S
N1430 C1427 1.384 . S
N1431 C1423 1.427 . S
N1431 C1429 1.384 1_545 S
H1432 C1438 0.930 . S
H1433 C1442 0.930 . S
H1434 C1447 0.929 . S
H1435 C1445 0.929 1_545 S
H1436 C1440 0.929 . S
H1437 C1446 0.929 . S
C1438 H1432 0.930 . S
C1438 C1439 1.367 . S
C1438 C1446 1.378 . S
C1439 C1438 1.367 . S
C1439 C1447 1.433 . S
C1440 H1436 0.929 . S
C1440 C1442 1.378 1_565 S
C1440 C1444 1.350 . S
C1441 C1444 1.463 . S
C1441 C1446 1.350 . S
C1441 N1449 1.427 . S
C1442 H1433 0.930 . S
C1442 C1440 1.378 1_545 S
C1442 C1443 1.367 . S
C1443 C1442 1.367 . S
C1443 C1445 1.433 1_545 S
C1444 C1440 1.350 . S
C1444 C1441 1.463 . S
C1444 N1448 1.427 . S
C1445 H1435 0.929 1_565 S
C1445 C1443 1.433 1_565 S
C1445 N1448 1.384 . S
C1446 H1437 0.929 . S
C1446 C1438 1.378 . S
C1446 C1441 1.350 . S
C1447 H1434 0.929 . S
C1447 C1439 1.433 . S
C1447 N1449 1.384 . S
N1448 C1444 1.427 . S
N1448 C1445 1.384 . S
N1449 C1441 1.427 . S
N1449 C1447 1.384 . S
H1450 C1456 0.930 . S
H1451 C1460 0.930 . S
H1452 C1465 0.929 . S
H1453 C1463 0.929 . S
H1454 C1458 0.929 . S
H1455 C1464 0.929 . S
C1456 H1450 0.930 . S
C1456 C1457 1.367 . S
C1456 C1464 1.378 . S
C1457 C1456 1.367 . S
C1457 C1465 1.433 . S
C1458 H1454 0.929 . S
C1458 C1460 1.378 1_545 S
C1458 C1462 1.350 . S
C1459 C1462 1.463 . S
C1459 C1464 1.350 . S
C1459 N1467 1.427 . S
C1460 H1451 0.930 . S
C1460 C1458 1.378 1_565 S
C1460 C1461 1.367 . S
C1461 C1460 1.367 . S
C1461 C1463 1.433 . S
C1462 C1458 1.350 . S
C1462 C1459 1.463 . S
C1462 N1466 1.427 . S
C1463 H1453 0.929 . S
C1463 C1461 1.433 . S
C1463 N1466 1.384 1_565 S
C1464 H1455 0.929 . S
C1464 C1456 1.378 . S
C1464 C1459 1.350 . S
C1465 H1452 0.929 . S
C1465 C1457 1.433 . S
C1465 N1467 1.384 . S
N1466 C1462 1.427 . S
N1466 C1463 1.384 1_545 S
N1467 C1459 1.427 . S
N1467 C1465 1.384 . S
H1468 C1474 0.930 . S
H1469 C1478 0.930 . S
H1470 C1483 0.934 . S
H1471 C1481 0.929 . S
H1472 C1476 0.929 . S
H1473 C1482 0.929 . S
C1474 H1468 0.930 . S
C1474 C1475 1.367 . S
C1474 C1482 1.378 1_565 S
C1475 C1474 1.367 . S
C1475 C1483 1.440 . S
C1476 H1472 0.929 . S
C1476 C1478 1.378 . S
C1476 C1480 1.350 . S
C1477 C1480 1.463 . S
C1477 C1482 1.350 . S
C1477 N1485 1.427 . S
C1478 H1469 0.930 . S
C1478 C1476 1.378 . S
C1478 C1479 1.367 . S
C1479 C1478 1.367 . S
C1479 C1481 1.433 . S
C1480 C1476 1.350 . S
C1480 C1477 1.463 . S
C1480 N1484 1.427 . S
C1481 H1471 0.929 . S
C1481 C1479 1.433 . S
C1481 N1484 1.384 . S
C1482 H1473 0.929 . S
C1482 C1474 1.378 1_545 S
C1482 C1477 1.350 . S
C1483 H1470 0.934 . S
C1483 C1475 1.440 . S
C1483 N1485 1.371 1_565 S
N1484 C1480 1.427 . S
N1484 C1481 1.384 . S
N1485 C1477 1.427 . S
N1485 C1483 1.371 1_545 S
H1486 C1492 0.930 . S
H1487 C1496 0.930 . S
H1488 C1501 0.929 . S
H1489 C1499 0.929 . S
H1490 C1494 0.929 . S
H1491 C1500 0.929 . S
C1492 H1486 0.930 . S
C1492 C1493 1.367 . S
C1492 C1500 1.378 . S
C1493 C1492 1.367 . S
C1493 C1501 1.433 . S
C1494 H1490 0.929 . S
C1494 C1496 1.378 1_565 S
C1494 C1498 1.350 . S
C1495 C1498 1.463 . S
C1495 C1500 1.350 . S
C1495 N1503 1.427 . S
C1496 H1487 0.930 . S
C1496 C1494 1.378 1_545 S
C1496 C1497 1.367 . S
C1497 C1496 1.367 . S
C1497 C1499 1.433 . S
C1498 C1494 1.350 . S
C1498 C1495 1.463 . S
C1498 N1502 1.427 . S
C1499 H1489 0.929 . S
C1499 C1497 1.433 . S
C1499 N1502 1.384 1_545 S
C1500 H1491 0.929 . S
C1500 C1492 1.378 . S
C1500 C1495 1.350 . S
C1501 H1488 0.929 . S
C1501 C1493 1.433 . S
C1501 N1503 1.384 . S
N1502 C1498 1.427 . S
N1502 C1499 1.384 1_565 S
N1503 C1495 1.427 . S
N1503 C1501 1.384 . S
C647 C12 1.554 . S
C651 C372 1.553 . S
C665 C52 1.555 . S
C669 C332 1.554 . S
C683 C452 1.553 . S
C687 C92 1.555 . S
C701 C132 1.554 . S
C705 C412 1.555 . S
C719 C551 1.553 . S
C723 C191 1.554 . S
C737 C511 1.554 . S
C741 C231 1.554 . S
C755 C631 1.554 . S
C759 C271 1.555 . S
C773 C311 1.554 . S
C777 C591 1.555 . S
C791 C82 1.684 . S
C795 C2 1.683 . S
C809 C122 1.683 . S
C813 C42 1.684 . S
C827 C257 1.684 . S
C831 C177 1.683 . S
C845 C217 1.685 . S
C849 C297 1.684 . S
C863 C402 1.682 . S
C867 C322 1.685 . S
C881 C442 1.686 . S
C885 C362 1.684 . S
C899 C497 1.684 . S
C903 C577 1.683 . S
C917 C537 1.686 . S
C921 C617 1.682 . S
C935 C202 1.535 . S
C939 C17 1.548 . S
C953 C162 1.539 . S
C957 C57 1.544 . S
C971 C97 1.545 . S
C975 C282 1.538 . S
C989 C242 1.549 . S
C993 C137 1.534 . S
C1007 C337 1.536 . S
C1011 C522 1.547 . S
C1025 C482 1.549 . S
C1029 C377 1.534 . S
C1043 C417 1.545 . S
C1047 C602 1.537 . S
C1061 C562 1.549 . S
C1065 C457 1.534 . S
C1079 C71 1.621 . S
C1083 C31 1.622 . S
C1097 C151 1.629 . S
C1101 C111 1.629 . S
C1115 C212 1.624 . S
C1119 C172 1.623 . S
C1133 C252 1.625 . S
C1137 C292 1.624 . S
C1151 C391 1.625 . S
C1155 C351 1.626 . S
C1169 C471 1.620 . S
C1173 C431 1.619 . S
C1187 C492 1.621 . S
C1191 C532 1.620 . S
C1205 C572 1.628 . S
C1209 C612 1.629 . S
C1223 C8 1.580 . S
C1227 C29 1.580 . S
C1241 C48 1.589 . S
C1245 C69 1.589 . S
C1259 C88 1.587 . S
C1263 C109 1.587 . S
C1277 C149 1.582 . S
C1281 C128 1.582 . S
C1295 C189 1.587 . S
C1299 C168 1.587 . S
C1313 C208 1.583 . S
C1317 C229 1.583 . S
C1331 C269 1.589 . S
C1335 C248 1.589 . S
C1349 C309 1.587 . S
C1353 C288 1.587 . S
C1367 C349 1.584 . S
C1371 C328 1.584 . S
C1385 C368 1.586 . S
C1389 C389 1.586 . S
C1403 C429 1.586 . S
C1407 C408 1.586 . S
C1421 C469 1.589 . S
C1425 C448 1.589 . S
C1439 C509 1.578 . S
C1443 C488 1.578 . S
C1457 C549 1.582 . S
C1461 C528 1.582 . S
C1475 C568 1.579 . S
C1479 C589 1.579 . S
C1493 C629 1.586 . S
C1497 C608 1.586 . S
