# Generated by pormake.
# Topology umz, (4)-cn, num edge types: 1
# Building blocks:
#     Node 0, Type 0, BuildingBlock: GALJAG_clean_sbu_0, # of connection points: 4
#     Node 1, Type 0, BuildingBlock: GALJAG_clean_sbu_0, # of connection points: 4
#     Node 2, Type 0, BuildingBlock: GALJAG_clean_sbu_0, # of connection points: 4
#     Node 3, Type 0, BuildingBlock: GALJAG_clean_sbu_0, # of connection points: 4
#     Node 4, Type 0, BuildingBlock: GALJAG_clean_sbu_0, # of connection points: 4
#     Node 5, Type 0, BuildingBlock: GALJAG_clean_sbu_0, # of connection points: 4
#     Node 6, Type 0, BuildingBlock: GALJAG_clean_sbu_0, # of connection points: 4
#     Node 7, Type 0, BuildingBlock: GALJAG_clean_sbu_0, # of connection points: 4
#     Node 8, Type 0, BuildingBlock: GALJAG_clean_sbu_0, # of connection points: 4
#     Node 9, Type 0, BuildingBlock: GALJAG_clean_sbu_0, # of connection points: 4
#     Node 10, Type 0, BuildingBlock: GALJAG_clean_sbu_0, # of connection points: 4
#     Node 11, Type 0, BuildingBlock: GALJAG_clean_sbu_0, # of connection points: 4
#     Node 12, Type 0, BuildingBlock: GALJAG_clean_sbu_0, # of connection points: 4
#     Node 13, Type 0, BuildingBlock: GALJAG_clean_sbu_0, # of connection points: 4
#     Node 14, Type 0, BuildingBlock: GALJAG_clean_sbu_0, # of connection points: 4
#     Node 15, Type 0, BuildingBlock: GALJAG_clean_sbu_0, # of connection points: 4
#     Edge 16, Type (0, 0), BuildingBlock: AJUNOK_clean_linker_0, # of connection points: 2
#     Edge 17, Type (0, 0), BuildingBlock: AJUNOK_clean_linker_0, # of connection points: 2
#     Edge 18, Type (0, 0), BuildingBlock: AJUNOK_clean_linker_0, # of connection points: 2
#     Edge 19, Type (0, 0), BuildingBlock: AJUNOK_clean_linker_0, # of connection points: 2
#     Edge 20, Type (0, 0), BuildingBlock: AJUNOK_clean_linker_0, # of connection points: 2
#     Edge 21, Type (0, 0), BuildingBlock: AJUNOK_clean_linker_0, # of connection points: 2
#     Edge 22, Type (0, 0), BuildingBlock: AJUNOK_clean_linker_0, # of connection points: 2
#     Edge 23, Type (0, 0), BuildingBlock: AJUNOK_clean_linker_0, # of connection points: 2
#     Edge 24, Type (0, 0), BuildingBlock: AJUNOK_clean_linker_0, # of connection points: 2
#     Edge 25, Type (0, 0), BuildingBlock: AJUNOK_clean_linker_0, # of connection points: 2
#     Edge 26, Type (0, 0), BuildingBlock: AJUNOK_clean_linker_0, # of connection points: 2
#     Edge 27, Type (0, 0), BuildingBlock: AJUNOK_clean_linker_0, # of connection points: 2
#     Edge 28, Type (0, 0), BuildingBlock: AJUNOK_clean_linker_0, # of connection points: 2
#     Edge 29, Type (0, 0), BuildingBlock: AJUNOK_clean_linker_0, # of connection points: 2
#     Edge 30, Type (0, 0), BuildingBlock: AJUNOK_clean_linker_0, # of connection points: 2
#     Edge 31, Type (0, 0), BuildingBlock: AJUNOK_clean_linker_0, # of connection points: 2
#     Edge 32, Type (0, 0), BuildingBlock: AJUNOK_clean_linker_0, # of connection points: 2
#     Edge 33, Type (0, 0), BuildingBlock: AJUNOK_clean_linker_0, # of connection points: 2
#     Edge 34, Type (0, 0), BuildingBlock: AJUNOK_clean_linker_0, # of connection points: 2
#     Edge 35, Type (0, 0), BuildingBlock: AJUNOK_clean_linker_0, # of connection points: 2
#     Edge 36, Type (0, 0), BuildingBlock: AJUNOK_clean_linker_0, # of connection points: 2
#     Edge 37, Type (0, 0), BuildingBlock: AJUNOK_clean_linker_0, # of connection points: 2
#     Edge 38, Type (0, 0), BuildingBlock: AJUNOK_clean_linker_0, # of connection points: 2
#     Edge 39, Type (0, 0), BuildingBlock: AJUNOK_clean_linker_0, # of connection points: 2
#     Edge 40, Type (0, 0), BuildingBlock: AJUNOK_clean_linker_0, # of connection points: 2
#     Edge 41, Type (0, 0), BuildingBlock: AJUNOK_clean_linker_0, # of connection points: 2
#     Edge 42, Type (0, 0), BuildingBlock: AJUNOK_clean_linker_0, # of connection points: 2
#     Edge 43, Type (0, 0), BuildingBlock: AJUNOK_clean_linker_0, # of connection points: 2
#     Edge 44, Type (0, 0), BuildingBlock: AJUNOK_clean_linker_0, # of connection points: 2
#     Edge 45, Type (0, 0), BuildingBlock: AJUNOK_clean_linker_0, # of connection points: 2
#     Edge 46, Type (0, 0), BuildingBlock: AJUNOK_clean_linker_0, # of connection points: 2
#     Edge 47, Type (0, 0), BuildingBlock: AJUNOK_clean_linker_0, # of connection points: 2
# Relax obj value: 0.183
# Max RMSD: 0.169
# Mean RMSD: 0.169
data_MOF--net-umz--node1-GALJAG_clean_sbu_0--edge1-AJUNOK_clean_linker_0
_symmetry_space_group_name_H-M    P1
_symmetry_Int_Tables_number       1
_symmetry_cell_setting            triclinic
loop_
_symmetry_equiv_pos_as_xyz
'x, y, z'
_cell_length_a     42.205864
_cell_length_b     42.190558
_cell_length_c     18.567705
_cell_angle_alpha  89.957651
_cell_angle_beta   89.979891
_cell_angle_gamma 90.03808
loop_
_atom_site_label
_atom_site_type_symbol
_atom_site_fract_x
_atom_site_fract_y
_atom_site_fract_z
_atom_type_partial_charge
In0 In 0.03009 0.62732 0.14861 0.0
O1 O 0.02893 0.60212 0.04113 0.0
O2 O 0.07402 0.61628 0.08108 0.0
C3 C 0.97885 0.59425 0.19172 0.0
C4 C 0.0195 0.6865 0.09869 0.0
C5 C 0.06272 0.61708 0.27079 0.0
O6 O -0.00613 0.58757 0.13497 0.0
O7 O 0.98914 0.61794 0.22568 0.0
O8 O 0.0433 0.6396 0.26403 0.0
O9 O 0.06703 0.60071 0.21477 0.0
C10 C 0.05844 0.60374 0.03044 0.0
O11 O 0.04608 0.67755 0.12181 0.0
O12 O -0.00219 0.66619 0.10463 0.0
In13 In 0.86482 0.02515 0.60655 0.0
O14 O 0.81648 0.04827 0.59078 0.0
O15 O 0.82175 -2e-05 0.56093 0.0
C16 C 0.88882 0.05715 0.71953 0.0
C17 C 0.89081 0.04775 0.48384 0.0
C18 C 0.87886 0.96847 0.66431 0.0
O19 O 0.85935 0.05465 0.70887 0.0
O20 O 0.90591 0.04493 0.67118 0.0
O21 O 0.89132 0.97823 0.60643 0.0
O22 O 0.85843 0.98681 0.69122 0.0
C23 C 0.80396 0.02391 0.5636 0.0
O24 O 0.89073 0.01867 0.49985 0.0
O25 O 0.87866 0.06551 0.53095 0.0
In26 In 0.47075 0.86241 0.1124 0.0
O27 O 0.46176 0.80915 0.1204 0.0
O28 O 0.48816 0.82651 0.03098 0.0
C29 C 0.43726 0.88452 0.2252 0.0
C30 C 0.44045 0.88681 0.9976 0.0
C31 C 0.52836 0.87764 0.16429 0.0
O32 O 0.4384 0.85539 0.20955 0.0
O33 O 0.45178 0.90243 0.18185 0.0
O34 O 0.51662 0.89078 0.10938 0.0
O35 O 0.51172 0.8557 0.19065 0.0
C36 C 0.47567 0.80304 0.06183 0.0
O37 O 0.46924 0.8925 0.01102 0.0
O38 O 0.42659 0.86985 0.044 0.0
In39 In 0.61613 0.46953 0.60384 0.0
O40 O 0.66584 0.44906 0.59398 0.0
O41 O 0.65696 0.49419 0.54715 0.0
C42 C 0.59131 0.43838 0.71711 0.0
C43 C 0.59196 0.44195 0.48518 0.0
C44 C 0.60058 0.52618 0.65885 0.0
O45 O 0.62089 0.44176 0.70906 0.0
O46 O 0.57475 0.4493 0.66631 0.0
O47 O 0.58792 0.51531 0.60228 0.0
O48 O 0.62234 0.50919 0.68502 0.0
C49 C 0.67635 0.4719 0.557 0.0
O50 O 0.58936 0.47133 0.4971 0.0
O51 O 0.60577 0.42661 0.53427 0.0
In52 In 0.008 0.86311 0.8864 0.0
O53 O 0.00577 0.88896 0.99426 0.0
O54 O 0.05103 0.87716 0.95197 0.0
C55 C 0.95239 0.88122 0.82985 0.0
C56 C 0.00683 0.80329 0.93647 0.0
C57 C 0.03977 0.88402 0.77024 0.0
O58 O 0.96375 0.8938 0.88599 0.0
O59 O 0.9679 0.85792 0.80598 0.0
O60 O 0.03439 0.85489 0.78085 0.0
O61 O 0.03036 0.90215 0.81986 0.0
C62 C 0.03547 0.88911 0.0031 0.0
O63 O 0.02981 0.81435 0.901 0.0
O64 O 0.98359 0.82183 0.94301 0.0
In65 In 0.61934 0.01679 0.38503 0.0
O66 O 0.59246 0.01258 0.4913 0.0
O67 O 0.6039 0.05864 0.45281 0.0
C68 C 0.60716 0.95956 0.32853 0.0
C69 C 0.67941 0.01905 0.43262 0.0
C70 C 0.59524 0.04645 0.26916 0.0
O71 O 0.59346 0.96947 0.38478 0.0
O72 O 0.62839 0.97769 0.30414 0.0
O73 O 0.62473 0.04372 0.27942 0.0
O74 O 0.57815 0.0356 0.31923 0.0
C75 C 0.59157 0.04215 0.50204 0.0
O76 O 0.66691 0.04153 0.39799 0.0
O77 O 0.66205 -0.00503 0.44039 0.0
In78 In 0.46557 0.61768 0.89097 0.0
O79 O 0.45402 0.67042 0.88385 0.0
O80 O 0.48503 0.65463 0.96708 0.0
C81 C 0.43579 0.59221 0.77706 0.0
C82 C 0.43744 0.59187 0.00748 0.0
C83 C 0.52236 0.6058 0.83179 0.0
O84 O 0.43151 0.62086 0.79489 0.0
O85 O 0.45264 0.57636 0.82001 0.0
O86 O 0.51273 0.5915 0.88752 0.0
O87 O 0.50447 0.62773 0.81005 0.0
C88 C 0.47075 0.6775 0.93796 0.0
O89 O 0.46652 0.58837 0.9935 0.0
O90 O 0.42218 0.60753 0.96097 0.0
In91 In 0.85376 0.45434 0.34823 0.0
O92 O 0.80425 0.43655 0.3756 0.0
O93 O 0.814 0.48526 0.39279 0.0
C94 C 0.86255 0.42211 0.22479 0.0
C95 C 0.87723 0.42725 0.46784 0.0
C96 C 0.88789 0.50504 0.30586 0.0
O97 O 0.8409 0.44245 0.23214 0.0
O98 O 0.87855 0.41674 0.28086 0.0
O99 O 0.89684 0.48685 0.3558 0.0
O100 O 0.86124 0.49841 0.27922 0.0
C101 C 0.79448 0.46283 0.39889 0.0
O102 O 0.87562 0.45692 0.45925 0.0
O103 O 0.86787 0.41108 0.41467 0.0
In104 In 0.95792 0.35957 0.85509 0.0
O105 O 0.94212 0.39601 0.93772 0.0
O106 O 0.91583 0.35286 0.93023 0.0
C107 C 0.01453 0.38216 0.8121 0.0
C108 C 0.97306 0.30297 0.91015 0.0
C109 C 0.92398 0.37654 0.73867 0.0
O110 O 0.00146 0.39107 0.86988 0.0
O111 O -0.00025 0.36087 0.77852 0.0
O112 O 0.93103 0.3479 0.75096 0.0
O113 O 0.9327 0.39572 0.78672 0.0
C114 C 0.91944 0.37929 0.96088 0.0
O115 O 0.95818 0.30569 0.85132 0.0
O116 O 0.98091 0.32871 0.93976 0.0
In117 In 0.11611 0.96306 0.38621 0.0
O118 O 0.16415 0.9393 0.39969 0.0
O119 O 0.15851 0.98609 0.44006 0.0
C120 C 0.09232 0.93355 0.26982 0.0
C121 C 0.08917 0.93684 0.50352 0.0
C122 C 0.10341 0.02083 0.3332 0.0
O123 O 0.12177 0.93643 0.2803 0.0
O124 O 0.07512 0.94427 0.31977 0.0
O125 O 0.08997 0.01012 0.38906 0.0
O126 O 0.12425 0.00291 0.30643 0.0
C127 C 0.17628 0.9623 0.43319 0.0
O128 O 0.08889 0.96637 0.49207 0.0
O129 O 0.10221 0.9207 0.45472 0.0
In130 In 0.51061 0.11616 0.88503 0.0
O131 O 0.5343 0.16417 0.89783 0.0
O132 O 0.4871 0.15917 0.93609 0.0
C133 C 0.54122 0.09461 0.76795 0.0
C134 C 0.53778 0.09055 0.00272 0.0
C135 C 0.45393 0.09927 0.83187 0.0
O136 O 0.53668 0.12381 0.7791 0.0
O137 O 0.53141 0.07656 0.8174 0.0
O138 O 0.46576 0.08622 0.887 0.0
O139 O 0.46979 0.12214 0.80696 0.0
C140 C 0.51113 0.17672 0.92977 0.0
O141 O 0.50806 0.09226 0.99541 0.0
O142 O 0.55342 0.10079 0.94978 0.0
In143 In 0.36495 0.51064 0.3919 0.0
O144 O 0.40046 0.51265 0.48347 0.0
O145 O 0.37085 0.55285 0.46771 0.0
C146 C 0.37893 0.45331 0.3368 0.0
C147 C 0.30695 0.50391 0.44933 0.0
C148 C 0.38576 0.54437 0.2777 0.0
O149 O 0.39172 0.46384 0.39337 0.0
O150 O 0.35786 0.47099 0.31045 0.0
O151 O 0.35663 0.54199 0.29267 0.0
O152 O 0.404 0.53133 0.32258 0.0
C153 C 0.39225 0.53982 0.505 0.0
O154 O 0.31175 0.52047 0.39365 0.0
O155 O 0.331 0.48992 0.4738 0.0
In156 In 0.97448 0.12305 0.10557 0.0
O157 O 0.97356 0.09362 0.00314 0.0
O158 O 0.93109 0.11714 0.03427 0.0
C159 C 0.02993 0.10676 0.16587 0.0
C160 C 0.98202 0.18186 0.05377 0.0
C161 C 0.9403 0.09906 0.21518 0.0
O162 O 0.0198 0.09395 0.10885 0.0
O163 O 0.01318 0.12928 0.18908 0.0
O164 O 0.94291 0.12863 0.20498 0.0
O165 O 0.95339 0.08211 0.16781 0.0
C166 C 0.94503 0.10003 0.98833 0.0
O167 O 0.964 0.17613 0.10662 0.0
O168 O -0.00278 0.15836 0.03018 0.0
In169 In 0.36043 0.95956 0.61341 0.0
O170 O 0.38809 0.96384 0.50804 0.0
O171 O 0.37293 0.91805 0.54076 0.0
C172 C 0.37453 0.01639 0.66987 0.0
C173 C 0.29995 0.96055 0.56831 0.0
C174 C 0.38414 0.9285 0.72795 0.0
O175 O 0.38656 0.00669 0.61152 0.0
O176 O 0.35422 -0.00194 0.69745 0.0
O177 O 0.35469 0.93114 0.71726 0.0
O178 O 0.40133 0.94005 0.67886 0.0
C179 C 0.38664 0.93462 0.49358 0.0
O180 O 0.31183 0.93694 0.59999 0.0
O181 O 0.31815 0.9841 0.56244 0.0
In182 In 0.51521 0.36202 0.10495 0.0
O183 O 0.5378 0.31345 0.09091 0.0
O184 O 0.4906 0.31982 0.05382 0.0
C185 C 0.54746 0.386 0.21745 0.0
C186 C 0.53821 0.38892 0.98389 0.0
C187 C 0.45929 0.37501 0.16706 0.0
O188 O 0.54515 0.35653 0.20639 0.0
O189 O 0.53497 0.40315 0.16956 0.0
O190 O 0.46822 0.38831 0.10945 0.0
O191 O 0.47776 0.35388 0.19044 0.0
C192 C 0.51406 0.30154 0.05971 0.0
O193 O 0.50911 0.38923 -0.00032 0.0
O194 O 0.55568 0.3758 0.03022 0.0
In195 In 0.12785 0.52434 0.64385 0.0
O196 O 0.18175 0.52654 0.64907 0.0
O197 O 0.16031 0.50047 0.56356 0.0
C198 C 0.11032 0.55889 0.75903 0.0
C199 C 0.1066 0.56078 0.53536 0.0
C200 C 0.10497 0.46787 0.68745 0.0
O201 O 0.13895 0.55149 0.74805 0.0
O202 O 0.09148 0.5504 0.71007 0.0
O203 O 0.09824 0.47968 0.62688 0.0
O204 O 0.12437 0.4838 0.72411 0.0
C205 C 0.18551 0.51031 0.59245 0.0
O206 O 0.09042 0.53844 0.56184 0.0
O207 O 0.13331 0.56516 0.56422 0.0
C208 C 0.04197 0.73248 0.03212 0.0
C209 C 0.01524 0.7167 0.05967 0.0
C210 C 0.03883 0.75987 0.99026 0.0
C211 C 0.00887 0.77283 0.97531 0.0
H212 H 0.06557 0.72336 0.04193 0.0
H213 H 0.06016 0.77129 0.97068 0.0
S214 S 0.93137 0.74063 0.0349 0.0
N215 N 0.95774 0.7158 0.06857 0.0
N216 N 0.95188 0.76787 0.99113 0.0
C217 C 0.9819 0.75741 0.00274 0.0
C218 C 0.98507 0.72919 0.0446 0.0
C219 C 0.72697 -0.00673 0.48602 0.0
C220 C 0.71123 0.02114 0.46509 0.0
C221 C 0.75681 -0.00552 0.51866 0.0
C222 C 0.77175 0.02362 0.53277 0.0
H223 H 0.71629 0.97029 0.47657 0.0
H224 H 0.76824 0.97237 0.533 0.0
S225 S 0.74008 0.10349 0.49027 0.0
N226 N 0.71251 0.07877 0.46155 0.0
N227 N 0.76847 0.08106 0.52405 0.0
C228 C 0.75609 0.05171 0.51307 0.0
C229 C 0.72587 0.05046 0.47879 0.0
C230 C 0.47651 0.74425 0.07287 0.0
C231 C 0.47538 0.77135 0.02909 0.0
C232 C 0.47561 0.7139 0.04252 0.0
C233 C 0.47252 0.70974 0.96768 0.0
H234 H 0.47837 0.74654 0.13084 0.0
H235 H 0.47668 0.69353 0.07804 0.0
S236 S 0.46779 0.77319 0.83008 0.0
N237 N 0.47109 0.79227 0.90736 0.0
N238 N 0.46816 0.73508 0.8506 0.0
C239 C 0.47101 0.73663 0.92341 0.0
C240 C 0.4728 0.76752 0.9541 0.0
C241 C 0.72166 0.44123 0.50719 0.0
C242 C 0.7073 0.47073 0.5201 0.0
C243 C 0.7494 0.43892 0.46625 0.0
C244 C 0.76411 0.46608 0.43768 0.0
H245 H 0.71102 0.41961 0.52743 0.0
H246 H 0.7596 0.41566 0.45776 0.0
S247 S 0.73647 0.54906 0.45775 0.0
N248 N 0.70993 0.52775 0.50175 0.0
N249 N 0.76259 0.52348 0.42608 0.0
C250 C 0.75028 0.4958 0.45106 0.0
C251 C 0.72174 0.49811 0.49194 0.0
C252 C 0.97622 0.27015 0.02117 0.0
C253 C 0.97812 0.27222 0.94565 0.0
C254 C 0.97794 0.24079 0.05624 0.0
C255 C 0.98261 0.21276 0.01701 0.0
H256 H 0.97219 0.29123 0.0532 0.0
H257 H 0.97539 0.24 0.11428 0.0
S258 S 0.99048 0.20575 0.81857 0.0
N259 N 0.98542 0.24404 0.83292 0.0
N260 N 0.9899 0.18889 0.89886 0.0
C261 C 0.98562 0.21466 0.94166 0.0
C262 C 0.98302 0.24443 0.9059 0.0
C263 C 0.25341 0.98894 0.51716 0.0
C264 C 0.26805 0.96019 0.53597 0.0
C265 C 0.22377 0.98936 0.48345 0.0
C266 C 0.20803 0.96103 0.46602 0.0
H267 H 0.26487 0.01135 0.52881 0.0
H268 H 0.21323 0.01207 0.47052 0.0
S269 S 0.23629 0.87942 0.50348 0.0
N270 N 0.26457 0.90262 0.53505 0.0
N271 N 0.20903 0.90342 0.47043 0.0
C272 C 0.22245 0.93208 0.48411 0.0
C273 C 0.25241 0.93166 0.51956 0.0
C274 C 0.48447 0.22506 0.97714 0.0
C275 C 0.51262 0.20867 0.96162 0.0
C276 C 0.48519 0.25503 0.00939 0.0
C277 C 0.51407 0.26938 0.02858 0.0
H278 H 0.46169 0.21478 0.96377 0.0
H279 H 0.46293 0.26698 0.01959 0.0
S280 S 0.59442 0.23577 0.00147 0.0
N281 N 0.57017 0.20866 0.96865 0.0
N282 N 0.57153 0.26479 0.0305 0.0
C283 C 0.5424 0.25305 0.01423 0.0
C284 C 0.54167 0.22275 0.9803 0.0
C285 C 0.24794 0.50446 0.44714 0.0
C286 C 0.27622 0.50314 0.48672 0.0
C287 C 0.21855 0.50543 0.48214 0.0
C288 C 0.2166 0.50612 0.5578 0.0
H289 H 0.24854 0.50484 0.3888 0.0
H290 H 0.19726 0.50679 0.44968 0.0
S291 S 0.28385 0.50317 0.68576 0.0
N292 N 0.30059 0.50191 0.6054 0.0
N293 N 0.2453 0.50503 0.67112 0.0
C294 C 0.24469 0.50468 0.59794 0.0
C295 C 0.27456 0.50282 0.56236 0.0
C296 C 0.05312 0.58406 0.90482 0.0
C297 C 0.07296 0.59314 0.96198 0.0
C298 C 0.06561 0.57419 0.83889 0.0
C299 C 0.09852 0.57268 0.82728 0.0
H300 H 0.02759 0.58451 0.91086 0.0
H301 H 0.04916 0.56703 0.79717 0.0
S302 S 0.1609 0.59479 0.95875 0.0
N303 N 0.12729 0.60092 0.00217 0.0
N304 N 0.15085 0.58184 0.87799 0.0
C305 C 0.11875 0.5821 0.88352 0.0
C306 C 0.10596 0.59243 0.9509 0.0
C307 C 0.91394 0.10525 0.33519 0.0
C308 C 0.92599 0.08528 0.28112 0.0
C309 C 0.90267 0.0929 0.40051 0.0
C310 C 0.9031 0.06008 0.41445 0.0
H311 H 0.91359 0.13071 0.32753 0.0
H312 H 0.89373 0.10927 0.44054 0.0
S313 S 0.93166 -0.00254 0.29001 0.0
N314 N 0.93715 0.03088 0.24547 0.0
N315 N 0.9161 0.00777 0.36809 0.0
C316 C 0.91477 0.03981 0.36055 0.0
C317 C 0.92615 0.05235 0.29394 0.0
C318 C 0.44344 0.91194 0.87622 0.0
C319 C 0.42507 0.89732 0.93002 0.0
C320 C 0.43009 0.92108 0.81046 0.0
C321 C 0.39774 0.91619 0.79591 0.0
H322 H 0.46848 0.91628 0.88466 0.0
H323 H 0.44523 0.93254 0.7712 0.0
S324 S 0.33928 0.8785 0.91835 0.0
N325 N 0.37284 0.87794 0.96402 0.0
N326 N 0.34764 0.89547 0.84047 0.0
C327 C 0.37905 0.90149 0.84903 0.0
C328 C 0.39272 0.89198 0.91605 0.0
C329 C 0.55804 0.43236 0.29734 0.0
C330 C 0.56066 0.39958 0.28458 0.0
C331 C 0.56799 0.44576 0.36252 0.0
C332 C 0.58103 0.42694 0.41751 0.0
H333 H 0.54778 0.44785 0.2571 0.0
H334 H 0.56538 0.47111 0.36972 0.0
S335 S 0.59369 0.33987 0.41074 0.0
N336 N 0.57766 0.34862 0.33213 0.0
N337 N 0.59649 0.37378 0.45455 0.0
C338 C 0.58411 0.39414 0.40528 0.0
C339 C 0.57391 0.38048 0.33885 0.0
C340 C 0.04559 0.92064 0.19286 0.0
C341 C 0.0787 0.92106 0.20207 0.0
C342 C 0.03188 0.91067 0.12805 0.0
C343 C 0.05071 0.90069 0.06989 0.0
H344 H 0.03005 0.9283 0.23585 0.0
H345 H 0.00627 0.91068 0.12377 0.0
S346 S 0.13865 0.89741 0.06606 0.0
N347 N 0.13003 0.9107 0.14732 0.0
N348 N 0.10428 0.8919 0.02554 0.0
C349 C 0.08387 0.90094 0.07829 0.0
C350 C 0.09784 0.91111 0.14438 0.0
C351 C 0.55616 0.04915 0.68902 0.0
C352 C 0.55493 0.08212 0.70032 0.0
C353 C 0.56768 0.0365 0.62444 0.0
C354 C 0.57848 0.05628 0.56865 0.0
H355 H 0.54797 0.0329 0.73017 0.0
H356 H 0.56822 0.01095 0.61846 0.0
S357 S 0.58021 0.14431 0.57098 0.0
N358 N 0.56542 0.13436 0.65013 0.0
N359 N 0.58716 0.1106 0.5288 0.0
C360 C 0.5774 0.08932 0.57915 0.0
C361 C 0.56561 0.10222 0.64497 0.0
C362 C 0.43051 0.55629 0.19431 0.0
C363 C 0.39792 0.55828 0.20968 0.0
C364 C 0.44283 0.56689 0.12859 0.0
C365 C 0.42314 0.58011 0.07541 0.0
H366 H 0.44676 0.54604 0.23299 0.0
H367 H 0.4681 0.56475 0.11967 0.0
S368 S 0.33605 0.59107 0.08875 0.0
N369 N 0.34608 0.57464 0.16621 0.0
N370 N 0.36931 0.59488 0.04265 0.0
C371 C 0.39049 0.58255 0.09009 0.0
C372 C 0.37788 0.57158 0.15719 0.0
C373 C 0.90557 0.42067 0.66045 0.0
C374 C 0.90977 0.38787 0.67048 0.0
C375 C 0.89511 0.43295 0.59477 0.0
C376 C 0.88822 0.413 0.53627 0.0
H377 H 0.91096 0.43722 0.70329 0.0
H378 H 0.89255 0.45842 0.58995 0.0
S379 S 0.89409 0.3252 0.53499 0.0
N380 N 0.90547 0.33547 0.61681 0.0
N381 N 0.88544 0.35862 0.49302 0.0
C382 C 0.89164 0.38006 0.54573 0.0
C383 C 0.90247 0.3675 0.61292 0.0
C384 C 0.90071 0.3692 0.08542 0.0
C385 C 0.90076 0.38862 0.02398 0.0
C386 C 0.88696 0.37963 0.14993 0.0
C387 C 0.87197 0.40932 0.1541 0.0
H388 H 0.91282 0.34655 0.08466 0.0
H389 H 0.88883 0.36475 0.19733 0.0
S390 S 0.86314 0.46735 0.00519 0.0
N391 N 0.88343 0.43784 0.96937 0.0
N392 N 0.85614 0.45699 0.08954 0.0
C393 C 0.87023 0.42806 0.0915 0.0
C394 C 0.88509 0.41783 0.0266 0.0
C395 C 0.05361 0.92945 0.69022 0.0
C396 C 0.05355 0.89654 0.70265 0.0
C397 C 0.06483 0.94217 0.6254 0.0
C398 C 0.07657 0.92251 0.57047 0.0
H399 H 0.04459 0.94563 0.73056 0.0
H400 H 0.06435 0.96767 0.61853 0.0
S401 S 0.08197 0.83467 0.57627 0.0
N402 N 0.0664 0.84448 0.65472 0.0
N403 N 0.08769 0.86836 0.53291 0.0
C404 C 0.07682 0.88952 0.58221 0.0
C405 C 0.06527 0.87655 0.64828 0.0
C406 C 0.54835 0.06079 0.19399 0.0
C407 C 0.58148 0.05889 0.20149 0.0
C408 C 0.53444 0.0707 0.12931 0.0
C409 C 0.55311 0.07908 0.06954 0.0
H410 H 0.53292 0.05438 0.23829 0.0
H411 H 0.50882 0.07188 0.12636 0.0
S412 S 0.64104 0.07783 0.06074 0.0
N413 N 0.63265 0.06599 0.1433 0.0
N414 N 0.60656 0.08463 0.02176 0.0
C415 C 0.58631 0.07728 0.0762 0.0
C416 C 0.60046 0.06721 0.14217 0.0
C417 C 0.38919 0.57994 0.6042 0.0
C418 C 0.40481 0.55405 0.57208 0.0
C419 C 0.39923 0.59226 0.67063 0.0
C420 C 0.42506 0.57893 0.70752 0.0
H421 H 0.36867 0.59044 0.57853 0.0
H422 H 0.38641 0.61204 0.69371 0.0
S423 S 0.47635 0.51335 0.64265 0.0
N424 N 0.44902 0.51721 0.57969 0.0
N425 N 0.46776 0.54019 0.70423 0.0
C426 C 0.44147 0.55366 0.67497 0.0
C427 C 0.43138 0.54127 0.60733 0.0
C428 C 0.93485 0.06526 0.80161 0.0
C429 C 0.9025 0.07006 0.78684 0.0
C430 C 0.9482 0.07476 0.86712 0.0
C431 C 0.92983 0.08967 0.92041 0.0
H432 H 0.94997 0.05352 0.7628 0.0
H433 H 0.9732 0.07038 0.87587 0.0
S434 S 0.84412 0.10868 0.90772 0.0
N435 N 0.85247 0.09123 0.83045 0.0
N436 N 0.87764 0.10942 0.95348 0.0
C437 C 0.89752 0.09507 0.90605 0.0
C438 C 0.88386 0.08519 0.83932 0.0
C439 C 0.41416 0.94095 0.37522 0.0
C440 C 0.39899 0.92113 0.42545 0.0
C441 C 0.42574 0.92899 0.30996 0.0
C442 C 0.42262 0.89669 0.29224 0.0
H443 H 0.41729 0.96596 0.3864 0.0
H444 H 0.43762 0.94518 0.2736 0.0
S445 S 0.3839 0.83489 0.40421 0.0
N446 N 0.3808 0.86763 0.45229 0.0
N447 N 0.40262 0.84517 0.32971 0.0
C448 C 0.40715 0.87664 0.34155 0.0
C449 C 0.39535 0.88883 0.40812 0.0
C450 C 0.58372 0.40027 0.90156 0.0
C451 C 0.55096 0.40179 0.91546 0.0
C452 C 0.5965 0.41169 0.83686 0.0
C453 C 0.57702 0.42493 0.78333 0.0
H454 H 0.59973 0.39022 0.941 0.0
H455 H 0.6219 0.41023 0.82897 0.0
S456 S 0.48963 0.43473 0.79326 0.0
N457 N 0.49927 0.41777 0.87032 0.0
N458 N 0.52321 0.43913 0.74876 0.0
C459 C 0.54417 0.42651 0.79638 0.0
C460 C 0.53117 0.415 0.86243 0.0
C461 C 0.11698 0.58341 0.41376 0.0
C462 C 0.09606 0.57865 0.47174 0.0
C463 C 0.10634 0.59679 0.34891 0.0
C464 C 0.07482 0.60694 0.3414 0.0
H465 H 0.1413 0.57532 0.41732 0.0
H466 H 0.12266 0.59874 0.30407 0.0
S467 S 0.01136 0.60128 0.47893 0.0
N468 N 0.04277 0.58563 0.51829 0.0
N469 N 0.02314 0.61235 0.39788 0.0
C470 C 0.05412 0.60362 0.40019 0.0
C471 C 0.06465 0.58903 0.46512 0.0
C472 C 0.92996 0.54589 0.32215 0.0
C473 C 0.90842 0.53024 0.27671 0.0
C474 C 0.95172 0.56784 0.29443 0.0
C475 C 0.95331 0.57403 0.22011 0.0
H476 H 0.93024 0.54086 0.37938 0.0
H477 H 0.9683 0.579 0.33103 0.0
S478 S 0.90163 0.54003 0.07876 0.0
N479 N 0.88909 0.5235 0.15425 0.0
N480 N 0.93102 0.56378 0.10193 0.0
C481 C 0.93163 0.55897 0.17428 0.0
C482 C 0.90886 0.53733 0.20269 0.0
C483 C 0.88928 0.94041 0.77981 0.0
C484 C 0.8914 0.94091 0.70418 0.0
C485 C 0.90733 0.9191 0.82062 0.0
C486 C 0.92753 0.89713 0.78713 0.0
H487 H 0.87549 0.95813 0.80805 0.0
H488 H 0.90683 0.92107 0.87878 0.0
S489 S 0.93745 0.88548 0.5902 0.0
N490 N 0.91237 0.91534 0.59715 0.0
N491 N 0.94568 0.87467 0.67359 0.0
C492 C 0.92749 0.8954 0.71138 0.0
C493 C 0.90959 0.91751 0.66991 0.0
C494 C 0.55559 0.88999 0.27951 0.0
C495 C 0.55516 0.89177 0.20383 0.0
C496 C 0.57468 0.91041 0.32018 0.0
C497 C 0.59446 0.93273 0.28647 0.0
H498 H 0.53911 0.8747 0.30779 0.0
H499 H 0.57242 0.91006 0.3783 0.0
S500 S 0.6063 0.94249 0.08952 0.0
N501 N 0.57908 0.91453 0.09667 0.0
N502 N 0.61576 0.95229 0.17286 0.0
C503 C 0.59677 0.9323 0.21081 0.0
C504 C 0.57685 0.91196 0.16947 0.0
C505 C 0.59067 0.55421 0.7746 0.0
C506 C 0.58655 0.5528 0.69941 0.0
C507 C 0.57133 0.57351 0.8174 0.0
C508 C 0.5478 0.59263 0.78629 0.0
H509 H 0.60719 0.53845 0.8013 0.0
H510 H 0.57359 0.57209 0.87543 0.0
S511 S 0.53067 0.60094 0.59106 0.0
N512 N 0.5595 0.57458 0.59506 0.0
N513 N 0.52369 0.61153 0.67515 0.0
C514 C 0.54548 0.59367 0.71067 0.0
C515 C 0.56474 0.57355 0.66725 0.0
C516 C 0.08269 0.43969 0.7937 0.0
C517 C 0.08709 0.44112 0.71864 0.0
C518 C 0.06036 0.41911 0.82422 0.0
C519 C 0.04213 0.39881 0.78087 0.0
H520 H 0.09502 0.45605 0.82888 0.0
H521 H 0.05638 0.42013 0.88182 0.0
S522 S 0.04828 0.39013 0.58229 0.0
N523 N 0.07392 0.41833 0.60239 0.0
N524 N 0.03252 0.37894 0.65965 0.0
C525 C 0.04823 0.39816 0.70628 0.0
C526 C 0.07057 0.41954 0.67514 0.0
C527 C 0.0765 0.07099 0.17724 0.0
C528 C 0.05485 0.09176 0.20992 0.0
C529 C 0.09466 0.05004 0.21864 0.0
C530 C 0.09119 0.04867 0.29397 0.0
H531 H 0.07803 0.06957 0.11908 0.0
H532 H 0.10954 0.03309 0.19079 0.0
S533 S 0.04123 0.10127 0.40628 0.0
N534 N 0.03399 0.11253 0.32272 0.0
N535 N 0.06754 0.07245 0.40024 0.0
C536 C 0.07165 0.07109 0.3277 0.0
C537 C 0.05361 0.09288 0.28567 0.0
C538 C 0.38825 0.04221 0.78598 0.0
C539 C 0.38807 0.04326 0.71023 0.0
C540 C 0.40794 0.06233 0.82593 0.0
C541 C 0.42756 0.08461 0.79155 0.0
H542 H 0.37509 0.02405 0.81447 0.0
H543 H 0.40917 0.05912 0.88376 0.0
S544 S 0.43124 0.10055 0.59499 0.0
N545 N 0.40598 0.07084 0.60287 0.0
N546 N 0.44234 0.1094 0.67785 0.0
C547 C 0.4251 0.08806 0.71629 0.0
C548 C 0.40552 0.06713 0.67558 0.0
C549 C 0.41053 0.40782 0.17838 0.0
C550 C 0.43297 0.38775 0.21069 0.0
C551 C 0.39048 0.42674 0.22033 0.0
C552 C 0.39271 0.42669 0.29594 0.0
H553 H 0.40978 0.4104 0.12035 0.0
H554 H 0.3751 0.44343 0.19303 0.0
S555 S 0.44379 0.37456 0.40689 0.0
N556 N 0.45309 0.36565 0.32293 0.0
N557 N 0.41594 0.40193 0.40156 0.0
C558 C 0.41298 0.40468 0.32893 0.0
C559 C 0.43299 0.38498 0.28627 0.0
loop_
_geom_bond_atom_site_label_1
_geom_bond_atom_site_label_2
_geom_bond_distance
_geom_bond_site_symmetry_2
_ccdc_geom_bond_type
In0 O1 2.294 . S
In0 O2 2.326 . S
In0 O6 2.266 1_455 S
In0 O7 2.326 1_455 S
In0 O8 2.266 . S
In0 O9 2.326 . S
In0 O11 2.294 . S
In0 O12 2.330 . S
O1 In0 2.294 . S
O1 C10 1.240 . S
O2 In0 2.326 . S
O2 C10 1.252 . S
C3 O6 1.252 . S
C3 O7 1.260 . S
C4 O11 1.240 . S
C4 O12 1.256 . S
C5 O8 1.252 . S
C5 O9 1.260 . S
O6 In0 2.266 1_655 S
O6 C3 1.252 . S
O7 In0 2.326 1_655 S
O7 C3 1.260 . S
O8 In0 2.266 . S
O8 C5 1.252 . S
O9 In0 2.326 . S
O9 C5 1.260 . S
C10 O1 1.240 . S
C10 O2 1.252 . S
O11 In0 2.294 . S
O11 C4 1.240 . S
O12 In0 2.330 . S
O12 C4 1.256 . S
In13 O14 2.294 . S
In13 O15 2.330 . S
In13 O19 2.266 . S
In13 O20 2.326 . S
In13 O21 2.266 1_545 S
In13 O22 2.326 1_545 S
In13 O24 2.294 . S
In13 O25 2.326 . S
O14 In13 2.294 . S
O14 C23 1.240 . S
O15 In13 2.330 . S
O15 C23 1.257 . S
C16 O19 1.252 . S
C16 O20 1.260 . S
C17 O24 1.240 . S
C17 O25 1.252 . S
C18 O21 1.252 . S
C18 O22 1.260 . S
O19 In13 2.266 . S
O19 C16 1.252 . S
O20 In13 2.326 . S
O20 C16 1.260 . S
O21 In13 2.266 1_565 S
O21 C18 1.252 . S
O22 In13 2.326 1_565 S
O22 C18 1.260 . S
C23 O14 1.240 . S
C23 O15 1.257 . S
O24 In13 2.294 . S
O24 C17 1.240 . S
O25 In13 2.326 . S
O25 C17 1.252 . S
In26 O27 2.294 . S
In26 O28 2.326 . S
In26 O32 2.266 . S
In26 O33 2.326 . S
In26 O34 2.266 . S
In26 O35 2.326 . S
In26 O37 2.294 . S
In26 O38 2.326 . S
O27 In26 2.294 . S
O27 C36 1.240 . S
O28 In26 2.326 . S
O28 C36 1.252 . S
C29 O32 1.252 . S
C29 O33 1.260 . S
C30 O37 1.240 . S
C30 O38 1.252 . S
C31 O34 1.252 . S
C31 O35 1.260 . S
O32 In26 2.266 . S
O32 C29 1.252 . S
O33 In26 2.326 . S
O33 C29 1.260 . S
O34 In26 2.266 . S
O34 C31 1.252 . S
O35 In26 2.326 . S
O35 C31 1.260 . S
C36 O27 1.240 . S
C36 O28 1.252 . S
O37 In26 2.294 . S
O37 C30 1.240 . S
O38 In26 2.326 . S
O38 C30 1.252 . S
In39 O40 2.294 . S
In39 O41 2.326 . S
In39 O45 2.266 . S
In39 O46 2.326 . S
In39 O47 2.266 . S
In39 O48 2.326 . S
In39 O50 2.294 . S
In39 O51 2.326 . S
O40 In39 2.294 . S
O40 C49 1.240 . S
O41 In39 2.326 . S
O41 C49 1.252 . S
C42 O45 1.252 . S
C42 O46 1.260 . S
C43 O50 1.240 . S
C43 O51 1.252 . S
C44 O47 1.252 . S
C44 O48 1.260 . S
O45 In39 2.266 . S
O45 C42 1.252 . S
O46 In39 2.326 . S
O46 C42 1.260 . S
O47 In39 2.266 . S
O47 C44 1.252 . S
O48 In39 2.326 . S
O48 C44 1.260 . S
C49 O40 1.240 . S
C49 O41 1.252 . S
O50 In39 2.294 . S
O50 C43 1.240 . S
O51 In39 2.326 . S
O51 C43 1.252 . S
In52 O53 2.294 . S
In52 O54 2.326 . S
In52 O58 2.266 1_455 S
In52 O59 2.326 1_455 S
In52 O60 2.266 . S
In52 O61 2.326 . S
In52 O63 2.294 . S
In52 O64 2.330 . S
O53 In52 2.294 . S
O53 C62 1.240 . S
O54 In52 2.326 . S
O54 C62 1.252 . S
C55 O58 1.252 . S
C55 O59 1.260 . S
C56 O63 1.240 . S
C56 O64 1.257 . S
C57 O60 1.252 . S
C57 O61 1.260 . S
O58 In52 2.266 1_655 S
O58 C55 1.252 . S
O59 In52 2.326 1_655 S
O59 C55 1.260 . S
O60 In52 2.266 . S
O60 C57 1.252 . S
O61 In52 2.326 . S
O61 C57 1.260 . S
C62 O53 1.240 . S
C62 O54 1.252 . S
O63 In52 2.294 . S
O63 C56 1.240 . S
O64 In52 2.330 . S
O64 C56 1.257 . S
In65 O66 2.294 . S
In65 O67 2.326 . S
In65 O71 2.266 1_545 S
In65 O72 2.326 1_545 S
In65 O73 2.266 . S
In65 O74 2.326 . S
In65 O76 2.294 . S
In65 O77 2.330 . S
O66 In65 2.294 . S
O66 C75 1.240 . S
O67 In65 2.326 . S
O67 C75 1.252 . S
C68 O71 1.252 . S
C68 O72 1.260 . S
C69 O76 1.240 . S
C69 O77 1.256 . S
C70 O73 1.252 . S
C70 O74 1.260 . S
O71 In65 2.266 1_565 S
O71 C68 1.252 . S
O72 In65 2.326 1_565 S
O72 C68 1.260 . S
O73 In65 2.266 . S
O73 C70 1.252 . S
O74 In65 2.326 . S
O74 C70 1.260 . S
C75 O66 1.240 . S
C75 O67 1.252 . S
O76 In65 2.294 . S
O76 C69 1.240 . S
O77 In65 2.330 . S
O77 C69 1.256 . S
In78 O79 2.294 . S
In78 O80 2.326 . S
In78 O84 2.266 . S
In78 O85 2.326 . S
In78 O86 2.266 . S
In78 O87 2.326 . S
In78 O89 2.294 . S
In78 O90 2.326 . S
O79 In78 2.294 . S
O79 C88 1.240 . S
O80 In78 2.326 . S
O80 C88 1.252 . S
C81 O84 1.252 . S
C81 O85 1.260 . S
C82 O89 1.240 . S
C82 O90 1.252 . S
C83 O86 1.252 . S
C83 O87 1.260 . S
O84 In78 2.266 . S
O84 C81 1.252 . S
O85 In78 2.326 . S
O85 C81 1.260 . S
O86 In78 2.266 . S
O86 C83 1.252 . S
O87 In78 2.326 . S
O87 C83 1.260 . S
C88 O79 1.240 . S
C88 O80 1.252 . S
O89 In78 2.294 . S
O89 C82 1.240 . S
O90 In78 2.326 . S
O90 C82 1.252 . S
In91 O92 2.294 . S
In91 O93 2.326 . S
In91 O97 2.266 . S
In91 O98 2.326 . S
In91 O99 2.266 . S
In91 O100 2.326 . S
In91 O102 2.294 . S
In91 O103 2.326 . S
O92 In91 2.294 . S
O92 C101 1.240 . S
O93 In91 2.326 . S
O93 C101 1.252 . S
C94 O97 1.252 . S
C94 O98 1.260 . S
C95 O102 1.240 . S
C95 O103 1.252 . S
C96 O99 1.252 . S
C96 O100 1.260 . S
O97 In91 2.266 . S
O97 C94 1.252 . S
O98 In91 2.326 . S
O98 C94 1.260 . S
O99 In91 2.266 . S
O99 C96 1.252 . S
O100 In91 2.326 . S
O100 C96 1.260 . S
C101 O92 1.240 . S
C101 O93 1.252 . S
O102 In91 2.294 . S
O102 C95 1.240 . S
O103 In91 2.326 . S
O103 C95 1.252 . S
In104 O105 2.294 . S
In104 O106 2.326 . S
In104 O110 2.266 1_655 S
In104 O111 2.326 1_655 S
In104 O112 2.266 . S
In104 O113 2.326 . S
In104 O115 2.294 . S
In104 O116 2.330 . S
O105 In104 2.294 . S
O105 C114 1.240 . S
O106 In104 2.326 . S
O106 C114 1.252 . S
C107 O110 1.252 . S
C107 O111 1.260 . S
C108 O115 1.240 . S
C108 O116 1.256 . S
C109 O112 1.252 . S
C109 O113 1.260 . S
O110 In104 2.266 1_455 S
O110 C107 1.252 . S
O111 In104 2.326 1_455 S
O111 C107 1.260 . S
O112 In104 2.266 . S
O112 C109 1.252 . S
O113 In104 2.326 . S
O113 C109 1.260 . S
C114 O105 1.240 . S
C114 O106 1.252 . S
O115 In104 2.294 . S
O115 C108 1.240 . S
O116 In104 2.330 . S
O116 C108 1.256 . S
In117 O118 2.294 . S
In117 O119 2.330 . S
In117 O123 2.266 . S
In117 O124 2.326 . S
In117 O125 2.266 1_565 S
In117 O126 2.326 1_565 S
In117 O128 2.294 . S
In117 O129 2.326 . S
O118 In117 2.294 . S
O118 C127 1.240 . S
O119 In117 2.330 . S
O119 C127 1.257 . S
C120 O123 1.252 . S
C120 O124 1.260 . S
C121 O128 1.240 . S
C121 O129 1.252 . S
C122 O125 1.252 . S
C122 O126 1.260 . S
O123 In117 2.266 . S
O123 C120 1.252 . S
O124 In117 2.326 . S
O124 C120 1.260 . S
O125 In117 2.266 1_545 S
O125 C122 1.252 . S
O126 In117 2.326 1_545 S
O126 C122 1.260 . S
C127 O118 1.240 . S
C127 O119 1.257 . S
O128 In117 2.294 . S
O128 C121 1.240 . S
O129 In117 2.326 . S
O129 C121 1.252 . S
In130 O131 2.294 . S
In130 O132 2.326 . S
In130 O136 2.266 . S
In130 O137 2.326 . S
In130 O138 2.266 . S
In130 O139 2.326 . S
In130 O141 2.294 . S
In130 O142 2.326 . S
O131 In130 2.294 . S
O131 C140 1.240 . S
O132 In130 2.326 . S
O132 C140 1.252 . S
C133 O136 1.252 . S
C133 O137 1.260 . S
C134 O141 1.240 . S
C134 O142 1.252 . S
C135 O138 1.252 . S
C135 O139 1.260 . S
O136 In130 2.266 . S
O136 C133 1.252 . S
O137 In130 2.326 . S
O137 C133 1.260 . S
O138 In130 2.266 . S
O138 C135 1.252 . S
O139 In130 2.326 . S
O139 C135 1.260 . S
C140 O131 1.240 . S
C140 O132 1.252 . S
O141 In130 2.294 . S
O141 C134 1.240 . S
O142 In130 2.326 . S
O142 C134 1.252 . S
In143 O144 2.294 . S
In143 O145 2.326 . S
In143 O149 2.266 . S
In143 O150 2.326 . S
In143 O151 2.266 . S
In143 O152 2.326 . S
In143 O154 2.294 . S
In143 O155 2.326 . S
O144 In143 2.294 . S
O144 C153 1.240 . S
O145 In143 2.326 . S
O145 C153 1.252 . S
C146 O149 1.252 . S
C146 O150 1.260 . S
C147 O154 1.240 . S
C147 O155 1.252 . S
C148 O151 1.252 . S
C148 O152 1.260 . S
O149 In143 2.266 . S
O149 C146 1.252 . S
O150 In143 2.326 . S
O150 C146 1.260 . S
O151 In143 2.266 . S
O151 C148 1.252 . S
O152 In143 2.326 . S
O152 C148 1.260 . S
C153 O144 1.240 . S
C153 O145 1.252 . S
O154 In143 2.294 . S
O154 C147 1.240 . S
O155 In143 2.326 . S
O155 C147 1.252 . S
In156 O157 2.294 . S
In156 O158 2.326 . S
In156 O162 2.266 1_655 S
In156 O163 2.326 1_655 S
In156 O164 2.266 . S
In156 O165 2.326 . S
In156 O167 2.294 . S
In156 O168 2.330 . S
O157 In156 2.294 . S
O157 C166 1.240 . S
O158 In156 2.326 . S
O158 C166 1.252 . S
C159 O162 1.252 . S
C159 O163 1.260 . S
C160 O167 1.240 . S
C160 O168 1.257 . S
C161 O164 1.252 . S
C161 O165 1.260 . S
O162 In156 2.266 1_455 S
O162 C159 1.252 . S
O163 In156 2.326 1_455 S
O163 C159 1.260 . S
O164 In156 2.266 . S
O164 C161 1.252 . S
O165 In156 2.326 . S
O165 C161 1.260 . S
C166 O157 1.240 . S
C166 O158 1.252 . S
O167 In156 2.294 . S
O167 C160 1.240 . S
O168 In156 2.330 . S
O168 C160 1.257 . S
In169 O170 2.294 . S
In169 O171 2.326 . S
In169 O175 2.266 1_565 S
In169 O176 2.326 1_565 S
In169 O177 2.266 . S
In169 O178 2.326 . S
In169 O180 2.294 . S
In169 O181 2.330 . S
O170 In169 2.294 . S
O170 C179 1.240 . S
O171 In169 2.326 . S
O171 C179 1.252 . S
C172 O175 1.252 . S
C172 O176 1.260 . S
C173 O180 1.240 . S
C173 O181 1.256 . S
C174 O177 1.252 . S
C174 O178 1.260 . S
O175 In169 2.266 1_545 S
O175 C172 1.252 . S
O176 In169 2.326 1_545 S
O176 C172 1.260 . S
O177 In169 2.266 . S
O177 C174 1.252 . S
O178 In169 2.326 . S
O178 C174 1.260 . S
C179 O170 1.240 . S
C179 O171 1.252 . S
O180 In169 2.294 . S
O180 C173 1.240 . S
O181 In169 2.330 . S
O181 C173 1.256 . S
In182 O183 2.294 . S
In182 O184 2.326 . S
In182 O188 2.266 . S
In182 O189 2.326 . S
In182 O190 2.266 . S
In182 O191 2.326 . S
In182 O193 2.294 . S
In182 O194 2.326 . S
O183 In182 2.294 . S
O183 C192 1.240 . S
O184 In182 2.326 . S
O184 C192 1.252 . S
C185 O188 1.252 . S
C185 O189 1.260 . S
C186 O193 1.240 . S
C186 O194 1.252 . S
C187 O190 1.252 . S
C187 O191 1.260 . S
O188 In182 2.266 . S
O188 C185 1.252 . S
O189 In182 2.326 . S
O189 C185 1.260 . S
O190 In182 2.266 . S
O190 C187 1.252 . S
O191 In182 2.326 . S
O191 C187 1.260 . S
C192 O183 1.240 . S
C192 O184 1.252 . S
O193 In182 2.294 . S
O193 C186 1.240 . S
O194 In182 2.326 . S
O194 C186 1.252 . S
In195 O196 2.294 . S
In195 O197 2.326 . S
In195 O201 2.266 . S
In195 O202 2.326 . S
In195 O203 2.266 . S
In195 O204 2.326 . S
In195 O206 2.294 . S
In195 O207 2.326 . S
O196 In195 2.294 . S
O196 C205 1.240 . S
O197 In195 2.326 . S
O197 C205 1.252 . S
C198 O201 1.252 . S
C198 O202 1.260 . S
C199 O206 1.240 . S
C199 O207 1.252 . S
C200 O203 1.252 . S
C200 O204 1.260 . S
O201 In195 2.266 . S
O201 C198 1.252 . S
O202 In195 2.326 . S
O202 C198 1.260 . S
O203 In195 2.266 . S
O203 C200 1.252 . S
O204 In195 2.326 . S
O204 C200 1.260 . S
C205 O196 1.240 . S
C205 O197 1.252 . S
O206 In195 2.294 . S
O206 C199 1.240 . S
O207 In195 2.326 . S
O207 C199 1.252 . S
C208 C209 1.369 . S
C208 C210 1.419 1_554 S
C208 H212 0.930 . S
C209 C208 1.369 . S
C209 C218 1.429 1_455 S
C210 C208 1.419 1_556 S
C210 C211 1.363 . S
C210 H213 0.929 . S
C211 C210 1.363 . S
C211 C217 1.428 1_455 S
H212 C208 0.930 . S
H213 C210 0.929 . S
S214 N215 1.613 1_556 S
S214 N216 1.610 . S
N215 S214 1.613 1_554 S
N215 C218 1.350 . S
N216 S214 1.610 . S
N216 C217 1.351 . S
C217 C211 1.428 1_655 S
C217 N216 1.351 . S
C217 C218 1.434 1_556 S
C218 C209 1.429 1_655 S
C218 N215 1.350 . S
C218 C217 1.434 1_554 S
C219 C220 1.369 1_565 S
C219 C221 1.419 . S
C219 H223 0.930 . S
C220 C219 1.369 1_545 S
C220 C229 1.429 . S
C221 C219 1.419 . S
C221 C222 1.363 1_565 S
C221 H224 0.929 . S
C222 C221 1.363 1_545 S
C222 C228 1.428 . S
H223 C219 0.930 . S
H224 C221 0.929 . S
S225 N226 1.613 . S
S225 N227 1.610 . S
N226 S225 1.613 . S
N226 C229 1.350 . S
N227 S225 1.610 . S
N227 C228 1.351 . S
C228 C222 1.428 . S
C228 N227 1.351 . S
C228 C229 1.434 . S
C229 C220 1.429 . S
C229 N226 1.350 . S
C229 C228 1.434 . S
C230 C231 1.369 . S
C230 C232 1.419 . S
C230 H234 0.930 . S
C231 C230 1.369 . S
C231 C240 1.429 1_554 S
C232 C230 1.419 . S
C232 C233 1.363 1_554 S
C232 H235 0.929 . S
C233 C232 1.363 1_556 S
C233 C239 1.428 . S
H234 C230 0.930 . S
H235 C232 0.929 . S
S236 N237 1.613 . S
S236 N238 1.610 . S
N237 S236 1.613 . S
N237 C240 1.350 . S
N238 S236 1.610 . S
N238 C239 1.351 . S
C239 C233 1.428 . S
C239 N238 1.351 . S
C239 C240 1.434 . S
C240 C231 1.429 1_556 S
C240 N237 1.350 . S
C240 C239 1.434 . S
C241 C242 1.369 . S
C241 C243 1.419 . S
C241 H245 0.930 . S
C242 C241 1.369 . S
C242 C251 1.429 . S
C243 C241 1.419 . S
C243 C244 1.363 . S
C243 H246 0.929 . S
C244 C243 1.363 . S
C244 C250 1.428 . S
H245 C241 0.930 . S
H246 C243 0.929 . S
S247 N248 1.613 . S
S247 N249 1.610 . S
N248 S247 1.613 . S
N248 C251 1.350 . S
N249 S247 1.610 . S
N249 C250 1.351 . S
C250 C244 1.428 . S
C250 N249 1.351 . S
C250 C251 1.434 . S
C251 C242 1.429 . S
C251 N248 1.350 . S
C251 C250 1.434 . S
C252 C253 1.369 1_554 S
C252 C254 1.419 . S
C252 H256 0.930 . S
C253 C252 1.369 1_556 S
C253 C262 1.429 1_655 S
C254 C252 1.419 . S
C254 C255 1.363 . S
C254 H257 0.929 . S
C255 C254 1.363 . S
C255 C261 1.428 1_654 S
H256 C252 0.930 . S
H257 C254 0.929 . S
S258 N259 1.613 . S
S258 N260 1.610 . S
N259 S258 1.613 . S
N259 C262 1.350 . S
N260 S258 1.610 . S
N260 C261 1.351 . S
C261 C255 1.428 1_456 S
C261 N260 1.351 . S
C261 C262 1.434 . S
C262 C253 1.429 1_455 S
C262 N259 1.350 . S
C262 C261 1.434 . S
C263 C264 1.369 1_545 S
C263 C265 1.419 . S
C263 H267 0.930 . S
C264 C263 1.369 1_565 S
C264 C273 1.429 . S
C265 C263 1.419 . S
C265 C266 1.363 1_545 S
C265 H268 0.929 . S
C266 C265 1.363 1_565 S
C266 C272 1.428 . S
H267 C263 0.930 . S
H268 C265 0.929 . S
S269 N270 1.613 . S
S269 N271 1.610 . S
N270 S269 1.613 . S
N270 C273 1.350 . S
N271 S269 1.610 . S
N271 C272 1.351 . S
C272 C266 1.428 . S
C272 N271 1.351 . S
C272 C273 1.434 . S
C273 C264 1.429 . S
C273 N270 1.350 . S
C273 C272 1.434 . S
C274 C275 1.369 . S
C274 C276 1.419 . S
C274 H278 0.930 . S
C275 C274 1.369 . S
C275 C284 1.429 1_556 S
C276 C274 1.419 . S
C276 C277 1.363 1_556 S
C276 H279 0.929 . S
C277 C276 1.363 1_554 S
C277 C283 1.428 . S
H278 C274 0.930 . S
H279 C276 0.929 . S
S280 N281 1.613 . S
S280 N282 1.610 . S
N281 S280 1.613 . S
N281 C284 1.350 . S
N282 S280 1.610 . S
N282 C283 1.351 . S
C283 C277 1.428 . S
C283 N282 1.351 . S
C283 C284 1.434 . S
C284 C275 1.429 1_554 S
C284 N281 1.350 . S
C284 C283 1.434 . S
C285 C286 1.369 . S
C285 C287 1.419 . S
C285 H289 0.930 . S
C286 C285 1.369 . S
C286 C295 1.429 . S
C287 C285 1.419 . S
C287 C288 1.363 . S
C287 H290 0.929 . S
C288 C287 1.363 . S
C288 C294 1.428 . S
H289 C285 0.930 . S
H290 C287 0.929 . S
S291 N292 1.613 . S
S291 N293 1.610 . S
N292 S291 1.613 . S
N292 C295 1.350 . S
N293 S291 1.610 . S
N293 C294 1.351 . S
C294 C288 1.428 . S
C294 N293 1.351 . S
C294 C295 1.434 . S
C295 C286 1.429 . S
C295 N292 1.350 . S
C295 C294 1.434 . S
C296 C297 1.369 . S
C296 C298 1.419 . S
C296 H300 0.930 . S
C297 C296 1.369 . S
C297 C306 1.429 . S
C298 C296 1.419 . S
C298 C299 1.363 . S
C298 H301 0.929 . S
C299 C298 1.363 . S
C299 C305 1.428 . S
H300 C296 0.930 . S
H301 C298 0.929 . S
S302 N303 1.613 . S
S302 N304 1.610 . S
N303 S302 1.613 . S
N303 C306 1.350 . S
N304 S302 1.610 . S
N304 C305 1.351 . S
C305 C299 1.428 . S
C305 N304 1.351 . S
C305 C306 1.434 . S
C306 C297 1.429 . S
C306 N303 1.350 . S
C306 C305 1.434 . S
C307 C308 1.369 . S
C307 C309 1.419 . S
C307 H311 0.930 . S
C308 C307 1.369 . S
C308 C317 1.429 . S
C309 C307 1.419 . S
C309 C310 1.363 . S
C309 H312 0.929 . S
C310 C309 1.363 . S
C310 C316 1.428 . S
H311 C307 0.930 . S
H312 C309 0.929 . S
S313 N314 1.613 . S
S313 N315 1.610 . S
N314 S313 1.613 . S
N314 C317 1.350 . S
N315 S313 1.610 . S
N315 C316 1.351 . S
C316 C310 1.428 . S
C316 N315 1.351 . S
C316 C317 1.434 . S
C317 C308 1.429 . S
C317 N314 1.350 . S
C317 C316 1.434 . S
C318 C319 1.369 . S
C318 C320 1.419 . S
C318 H322 0.930 . S
C319 C318 1.369 . S
C319 C328 1.429 . S
C320 C318 1.419 . S
C320 C321 1.363 . S
C320 H323 0.929 . S
C321 C320 1.363 . S
C321 C327 1.428 . S
H322 C318 0.930 . S
H323 C320 0.929 . S
S324 N325 1.613 . S
S324 N326 1.610 . S
N325 S324 1.613 . S
N325 C328 1.350 . S
N326 S324 1.610 . S
N326 C327 1.351 . S
C327 C321 1.428 . S
C327 N326 1.351 . S
C327 C328 1.434 . S
C328 C319 1.429 . S
C328 N325 1.350 . S
C328 C327 1.434 . S
C329 C330 1.369 . S
C329 C331 1.419 . S
C329 H333 0.930 . S
C330 C329 1.369 . S
C330 C339 1.429 . S
C331 C329 1.419 . S
C331 C332 1.363 . S
C331 H334 0.929 . S
C332 C331 1.363 . S
C332 C338 1.428 . S
H333 C329 0.930 . S
H334 C331 0.929 . S
S335 N336 1.613 . S
S335 N337 1.610 . S
N336 S335 1.613 . S
N336 C339 1.350 . S
N337 S335 1.610 . S
N337 C338 1.351 . S
C338 C332 1.428 . S
C338 N337 1.351 . S
C338 C339 1.434 . S
C339 C330 1.429 . S
C339 N336 1.350 . S
C339 C338 1.434 . S
C340 C341 1.369 . S
C340 C342 1.419 . S
C340 H344 0.930 . S
C341 C340 1.369 . S
C341 C350 1.429 . S
C342 C340 1.419 . S
C342 C343 1.363 . S
C342 H345 0.929 . S
C343 C342 1.363 . S
C343 C349 1.428 . S
H344 C340 0.930 . S
H345 C342 0.929 . S
S346 N347 1.613 . S
S346 N348 1.607 1_554 S
N347 S346 1.613 . S
N347 C350 1.350 . S
N348 S346 1.607 1_556 S
N348 C349 1.342 1_556 S
C349 C343 1.428 . S
C349 N348 1.342 1_554 S
C349 C350 1.434 . S
C350 C341 1.429 . S
C350 N347 1.350 . S
C350 C349 1.434 . S
C351 C352 1.369 . S
C351 C353 1.419 . S
C351 H355 0.930 . S
C352 C351 1.369 . S
C352 C361 1.429 . S
C353 C351 1.419 . S
C353 C354 1.363 . S
C353 H356 0.929 . S
C354 C353 1.363 . S
C354 C360 1.428 . S
H355 C351 0.930 . S
H356 C353 0.929 . S
S357 N358 1.613 . S
S357 N359 1.610 . S
N358 S357 1.613 . S
N358 C361 1.350 . S
N359 S357 1.610 . S
N359 C360 1.351 . S
C360 C354 1.428 . S
C360 N359 1.351 . S
C360 C361 1.434 . S
C361 C352 1.429 . S
C361 N358 1.350 . S
C361 C360 1.434 . S
C362 C363 1.369 . S
C362 C364 1.419 . S
C362 H366 0.930 . S
C363 C362 1.369 . S
C363 C372 1.429 . S
C364 C362 1.419 . S
C364 C365 1.363 . S
C364 H367 0.929 . S
C365 C364 1.363 . S
C365 C371 1.428 . S
H366 C362 0.930 . S
H367 C364 0.929 . S
S368 N369 1.613 . S
S368 N370 1.610 1_554 S
N369 S368 1.613 . S
N369 C372 1.350 . S
N370 S368 1.610 1_556 S
N370 C371 1.351 1_556 S
C371 C365 1.428 . S
C371 N370 1.351 1_554 S
C371 C372 1.434 . S
C372 C363 1.429 . S
C372 N369 1.350 . S
C372 C371 1.434 . S
C373 C374 1.369 . S
C373 C375 1.419 . S
C373 H377 0.930 . S
C374 C373 1.369 . S
C374 C383 1.429 . S
C375 C373 1.419 . S
C375 C376 1.363 . S
C375 H378 0.929 . S
C376 C375 1.363 . S
C376 C382 1.428 . S
H377 C373 0.930 . S
H378 C375 0.929 . S
S379 N380 1.613 . S
S379 N381 1.610 . S
N380 S379 1.613 . S
N380 C383 1.350 . S
N381 S379 1.610 . S
N381 C382 1.351 . S
C382 C376 1.428 . S
C382 N381 1.351 . S
C382 C383 1.434 . S
C383 C374 1.429 . S
C383 N380 1.350 . S
C383 C382 1.434 . S
C384 C385 1.369 . S
C384 C386 1.419 . S
C384 H388 0.930 . S
C385 C384 1.369 . S
C385 C394 1.429 . S
C386 C384 1.419 . S
C386 C387 1.363 . S
C386 H389 0.929 . S
C387 C386 1.363 . S
C387 C393 1.428 . S
H388 C384 0.930 . S
H389 C386 0.929 . S
S390 N391 1.613 . S
S390 N392 1.610 . S
N391 S390 1.613 . S
N391 C394 1.350 . S
N392 S390 1.610 . S
N392 C393 1.351 . S
C393 C387 1.428 . S
C393 N392 1.351 . S
C393 C394 1.434 . S
C394 C385 1.429 . S
C394 N391 1.350 . S
C394 C393 1.434 . S
C395 C396 1.369 . S
C395 C397 1.419 . S
C395 H399 0.930 . S
C396 C395 1.369 . S
C396 C405 1.429 . S
C397 C395 1.419 . S
C397 C398 1.363 . S
C397 H400 0.929 . S
C398 C397 1.363 . S
C398 C404 1.428 . S
H399 C395 0.930 . S
H400 C397 0.929 . S
S401 N402 1.613 . S
S401 N403 1.610 . S
N402 S401 1.613 . S
N402 C405 1.350 . S
N403 S401 1.610 . S
N403 C404 1.351 . S
C404 C398 1.428 . S
C404 N403 1.351 . S
C404 C405 1.434 . S
C405 C396 1.429 . S
C405 N402 1.350 . S
C405 C404 1.434 . S
C406 C407 1.369 . S
C406 C408 1.419 . S
C406 H410 0.930 . S
C407 C406 1.369 . S
C407 C416 1.429 . S
C408 C406 1.419 . S
C408 C409 1.363 . S
C408 H411 0.929 . S
C409 C408 1.363 . S
C409 C415 1.428 . S
H410 C406 0.930 . S
H411 C408 0.929 . S
S412 N413 1.613 . S
S412 N414 1.614 . S
N413 S412 1.613 . S
N413 C416 1.350 . S
N414 S412 1.614 . S
N414 C415 1.361 . S
C415 C409 1.428 . S
C415 N414 1.361 . S
C415 C416 1.434 . S
C416 C407 1.429 . S
C416 N413 1.350 . S
C416 C415 1.434 . S
C417 C418 1.369 . S
C417 C419 1.419 . S
C417 H421 0.930 . S
C418 C417 1.369 . S
C418 C427 1.429 . S
C419 C417 1.419 . S
C419 C420 1.363 . S
C419 H422 0.929 . S
C420 C419 1.363 . S
C420 C426 1.428 . S
H421 C417 0.930 . S
H422 C419 0.929 . S
S423 N424 1.613 . S
S423 N425 1.610 . S
N424 S423 1.613 . S
N424 C427 1.350 . S
N425 S423 1.610 . S
N425 C426 1.351 . S
C426 C420 1.428 . S
C426 N425 1.351 . S
C426 C427 1.434 . S
C427 C418 1.429 . S
C427 N424 1.350 . S
C427 C426 1.434 . S
C428 C429 1.369 . S
C428 C430 1.419 . S
C428 H432 0.930 . S
C429 C428 1.369 . S
C429 C438 1.429 . S
C430 C428 1.419 . S
C430 C431 1.363 . S
C430 H433 0.929 . S
C431 C430 1.363 . S
C431 C437 1.428 . S
H432 C428 0.930 . S
H433 C430 0.929 . S
S434 N435 1.613 . S
S434 N436 1.610 . S
N435 S434 1.613 . S
N435 C438 1.350 . S
N436 S434 1.610 . S
N436 C437 1.351 . S
C437 C431 1.428 . S
C437 N436 1.351 . S
C437 C438 1.434 . S
C438 C429 1.429 . S
C438 N435 1.350 . S
C438 C437 1.434 . S
C439 C440 1.369 . S
C439 C441 1.419 . S
C439 H443 0.930 . S
C440 C439 1.369 . S
C440 C449 1.429 . S
C441 C439 1.419 . S
C441 C442 1.363 . S
C441 H444 0.929 . S
C442 C441 1.363 . S
C442 C448 1.428 . S
H443 C439 0.930 . S
H444 C441 0.929 . S
S445 N446 1.613 . S
S445 N447 1.610 . S
N446 S445 1.613 . S
N446 C449 1.350 . S
N447 S445 1.610 . S
N447 C448 1.351 . S
C448 C442 1.428 . S
C448 N447 1.351 . S
C448 C449 1.434 . S
C449 C440 1.429 . S
C449 N446 1.350 . S
C449 C448 1.434 . S
C450 C451 1.369 . S
C450 C452 1.419 . S
C450 H454 0.930 . S
C451 C450 1.369 . S
C451 C460 1.429 . S
C452 C450 1.419 . S
C452 C453 1.363 . S
C452 H455 0.929 . S
C453 C452 1.363 . S
C453 C459 1.428 . S
H454 C450 0.930 . S
H455 C452 0.929 . S
S456 N457 1.613 . S
S456 N458 1.610 . S
N457 S456 1.613 . S
N457 C460 1.350 . S
N458 S456 1.610 . S
N458 C459 1.351 . S
C459 C453 1.428 . S
C459 N458 1.351 . S
C459 C460 1.434 . S
C460 C451 1.429 . S
C460 N457 1.350 . S
C460 C459 1.434 . S
C461 C462 1.369 . S
C461 C463 1.419 . S
C461 H465 0.930 . S
C462 C461 1.369 . S
C462 C471 1.429 . S
C463 C461 1.419 . S
C463 C464 1.363 . S
C463 H466 0.929 . S
C464 C463 1.363 . S
C464 C470 1.428 . S
H465 C461 0.930 . S
H466 C463 0.929 . S
S467 N468 1.613 . S
S467 N469 1.610 . S
N468 S467 1.613 . S
N468 C471 1.350 . S
N469 S467 1.610 . S
N469 C470 1.351 . S
C470 C464 1.428 . S
C470 N469 1.351 . S
C470 C471 1.434 . S
C471 C462 1.429 . S
C471 N468 1.350 . S
C471 C470 1.434 . S
C472 C473 1.369 . S
C472 C474 1.419 . S
C472 H476 0.930 . S
C473 C472 1.369 . S
C473 C482 1.429 . S
C474 C472 1.419 . S
C474 C475 1.363 . S
C474 H477 0.929 . S
C475 C474 1.363 . S
C475 C481 1.428 . S
H476 C472 0.930 . S
H477 C474 0.929 . S
S478 N479 1.613 . S
S478 N480 1.610 . S
N479 S478 1.613 . S
N479 C482 1.350 . S
N480 S478 1.610 . S
N480 C481 1.351 . S
C481 C475 1.428 . S
C481 N480 1.351 . S
C481 C482 1.434 . S
C482 C473 1.429 . S
C482 N479 1.350 . S
C482 C481 1.434 . S
C483 C484 1.369 . S
C483 C485 1.419 . S
C483 H487 0.930 . S
C484 C483 1.369 . S
C484 C493 1.429 . S
C485 C483 1.419 . S
C485 C486 1.363 . S
C485 H488 0.929 . S
C486 C485 1.363 . S
C486 C492 1.428 . S
H487 C483 0.930 . S
H488 C485 0.929 . S
S489 N490 1.613 . S
S489 N491 1.610 . S
N490 S489 1.613 . S
N490 C493 1.350 . S
N491 S489 1.610 . S
N491 C492 1.351 . S
C492 C486 1.428 . S
C492 N491 1.351 . S
C492 C493 1.434 . S
C493 C484 1.429 . S
C493 N490 1.350 . S
C493 C492 1.434 . S
C494 C495 1.369 . S
C494 C496 1.419 . S
C494 H498 0.930 . S
C495 C494 1.369 . S
C495 C504 1.429 . S
C496 C494 1.419 . S
C496 C497 1.363 . S
C496 H499 0.929 . S
C497 C496 1.363 . S
C497 C503 1.428 . S
H498 C494 0.930 . S
H499 C496 0.929 . S
S500 N501 1.613 . S
S500 N502 1.610 . S
N501 S500 1.613 . S
N501 C504 1.350 . S
N502 S500 1.610 . S
N502 C503 1.351 . S
C503 C497 1.428 . S
C503 N502 1.351 . S
C503 C504 1.434 . S
C504 C495 1.429 . S
C504 N501 1.350 . S
C504 C503 1.434 . S
C505 C506 1.369 . S
C505 C507 1.419 . S
C505 H509 0.930 . S
C506 C505 1.369 . S
C506 C515 1.429 . S
C507 C505 1.419 . S
C507 C508 1.363 . S
C507 H510 0.929 . S
C508 C507 1.363 . S
C508 C514 1.428 . S
H509 C505 0.930 . S
H510 C507 0.929 . S
S511 N512 1.613 . S
S511 N513 1.610 . S
N512 S511 1.613 . S
N512 C515 1.350 . S
N513 S511 1.610 . S
N513 C514 1.351 . S
C514 C508 1.428 . S
C514 N513 1.351 . S
C514 C515 1.434 . S
C515 C506 1.429 . S
C515 N512 1.350 . S
C515 C514 1.434 . S
C516 C517 1.369 . S
C516 C518 1.419 . S
C516 H520 0.930 . S
C517 C516 1.369 . S
C517 C526 1.429 . S
C518 C516 1.419 . S
C518 C519 1.363 . S
C518 H521 0.929 . S
C519 C518 1.363 . S
C519 C525 1.428 . S
H520 C516 0.930 . S
H521 C518 0.929 . S
S522 N523 1.613 . S
S522 N524 1.610 . S
N523 S522 1.613 . S
N523 C526 1.350 . S
N524 S522 1.610 . S
N524 C525 1.351 . S
C525 C519 1.428 . S
C525 N524 1.351 . S
C525 C526 1.434 . S
C526 C517 1.429 . S
C526 N523 1.350 . S
C526 C525 1.434 . S
C527 C528 1.369 . S
C527 C529 1.419 . S
C527 H531 0.930 . S
C528 C527 1.369 . S
C528 C537 1.429 . S
C529 C527 1.419 . S
C529 C530 1.363 . S
C529 H532 0.929 . S
C530 C529 1.363 . S
C530 C536 1.428 . S
H531 C527 0.930 . S
H532 C529 0.929 . S
S533 N534 1.613 . S
S533 N535 1.610 . S
N534 S533 1.613 . S
N534 C537 1.350 . S
N535 S533 1.610 . S
N535 C536 1.351 . S
C536 C530 1.428 . S
C536 N535 1.351 . S
C536 C537 1.434 . S
C537 C528 1.429 . S
C537 N534 1.350 . S
C537 C536 1.434 . S
C538 C539 1.369 . S
C538 C540 1.419 . S
C538 H542 0.930 . S
C539 C538 1.369 . S
C539 C548 1.429 . S
C540 C538 1.419 . S
C540 C541 1.363 . S
C540 H543 0.929 . S
C541 C540 1.363 . S
C541 C547 1.428 . S
H542 C538 0.930 . S
H543 C540 0.929 . S
S544 N545 1.613 . S
S544 N546 1.610 . S
N545 S544 1.613 . S
N545 C548 1.350 . S
N546 S544 1.610 . S
N546 C547 1.351 . S
C547 C541 1.428 . S
C547 N546 1.351 . S
C547 C548 1.434 . S
C548 C539 1.429 . S
C548 N545 1.350 . S
C548 C547 1.434 . S
C549 C550 1.369 . S
C549 C551 1.419 . S
C549 H553 0.930 . S
C550 C549 1.369 . S
C550 C559 1.429 . S
C551 C549 1.419 . S
C551 C552 1.363 . S
C551 H554 0.929 . S
C552 C551 1.363 . S
C552 C558 1.428 . S
H553 C549 0.930 . S
H554 C551 0.929 . S
S555 N556 1.613 . S
S555 N557 1.610 . S
N556 S555 1.613 . S
N556 C559 1.350 . S
N557 S555 1.610 . S
N557 C558 1.351 . S
C558 C552 1.428 . S
C558 N557 1.351 . S
C558 C559 1.434 . S
C559 C550 1.429 . S
C559 N556 1.350 . S
C559 C558 1.434 . S
C209 C4 1.196 . S
C211 C56 1.197 . S
C220 C69 1.192 . S
C222 C23 1.193 . S
C231 C36 1.194 . S
C233 C88 1.196 . S
C242 C49 1.194 . S
C244 C101 1.196 . S
C253 C108 1.196 . S
C255 C160 1.194 . S
C264 C173 1.193 . S
C266 C127 1.192 . S
C275 C140 1.193 . S
C277 C192 1.195 . S
C286 C147 1.195 . S
C288 C205 1.196 . S
C297 C10 1.578 1_556 S
C299 C198 1.585 . S
C308 C161 1.583 . S
C310 C17 1.575 . S
C319 C30 1.578 1_556 S
C321 C174 1.585 . S
C330 C185 1.584 . S
C332 C43 1.577 . S
C341 C120 1.583 . S
C343 C62 1.576 1_554 S
C352 C133 1.584 . S
C354 C75 1.577 . S
C363 C148 1.584 . S
C365 C82 1.576 1_554 S
C374 C109 1.584 . S
C376 C95 1.577 . S
C385 C114 1.575 1_554 S
C387 C94 1.584 . S
C396 C57 1.585 . S
C398 C121 1.578 . S
C407 C70 1.584 . S
C409 C134 1.577 1_554 S
C418 C153 1.575 . S
C420 C81 1.583 . S
C429 C16 1.585 . S
C431 C166 1.577 1_556 S
C440 C179 1.578 . S
C442 C29 1.585 . S
C451 C186 1.577 1_556 S
C453 C42 1.584 . S
C462 C199 1.575 . S
C464 C5 1.584 . S
C473 C96 1.350 . S
C475 C3 1.349 . S
C484 C18 1.346 . S
C486 C55 1.347 . S
C495 C31 1.350 . S
C497 C68 1.350 . S
C506 C44 1.352 . S
C508 C83 1.352 . S
C517 C200 1.352 . S
C519 C107 1.352 . S
C528 C159 1.347 . S
C530 C122 1.347 . S
C539 C172 1.352 . S
C541 C135 1.352 . S
C550 C187 1.352 . S
C552 C146 1.350 . S
