# Generated by pormake.
# Topology fcu, (12)-cn, num edge types: 1
# Building blocks:
#     Node 0, Type 0, BuildingBlock: QEWDON_clean_sbu_0, # of connection points: 12
#     Node 1, Type 0, BuildingBlock: QEWDON_clean_sbu_0, # of connection points: 12
#     Node 2, Type 0, BuildingBlock: QEWDON_clean_sbu_0, # of connection points: 12
#     Node 3, Type 0, BuildingBlock: QEWDON_clean_sbu_0, # of connection points: 12
#     Edge 4, Type (0, 0), BuildingBlock: CIFDUS_clean_linker_0, # of connection points: 2
#     Edge 5, Type (0, 0), BuildingBlock: CIFDUS_clean_linker_0, # of connection points: 2
#     Edge 6, Type (0, 0), BuildingBlock: CIFDUS_clean_linker_0, # of connection points: 2
#     Edge 7, Type (0, 0), BuildingBlock: CIFDUS_clean_linker_0, # of connection points: 2
#     Edge 8, Type (0, 0), BuildingBlock: CIFDUS_clean_linker_0, # of connection points: 2
#     Edge 9, Type (0, 0), BuildingBlock: CIFDUS_clean_linker_0, # of connection points: 2
#     Edge 10, Type (0, 0), BuildingBlock: CIFDUS_clean_linker_0, # of connection points: 2
#     Edge 11, Type (0, 0), BuildingBlock: CIFDUS_clean_linker_0, # of connection points: 2
#     Edge 12, Type (0, 0), BuildingBlock: CIFDUS_clean_linker_0, # of connection points: 2
#     Edge 13, Type (0, 0), BuildingBlock: CIFDUS_clean_linker_0, # of connection points: 2
#     Edge 14, Type (0, 0), BuildingBlock: CIFDUS_clean_linker_0, # of connection points: 2
#     Edge 15, Type (0, 0), BuildingBlock: CIFDUS_clean_linker_0, # of connection points: 2
#     Edge 16, Type (0, 0), BuildingBlock: CIFDUS_clean_linker_0, # of connection points: 2
#     Edge 17, Type (0, 0), BuildingBlock: CIFDUS_clean_linker_0, # of connection points: 2
#     Edge 18, Type (0, 0), BuildingBlock: CIFDUS_clean_linker_0, # of connection points: 2
#     Edge 19, Type (0, 0), BuildingBlock: CIFDUS_clean_linker_0, # of connection points: 2
#     Edge 20, Type (0, 0), BuildingBlock: CIFDUS_clean_linker_0, # of connection points: 2
#     Edge 21, Type (0, 0), BuildingBlock: CIFDUS_clean_linker_0, # of connection points: 2
#     Edge 22, Type (0, 0), BuildingBlock: CIFDUS_clean_linker_0, # of connection points: 2
#     Edge 23, Type (0, 0), BuildingBlock: CIFDUS_clean_linker_0, # of connection points: 2
#     Edge 24, Type (0, 0), BuildingBlock: CIFDUS_clean_linker_0, # of connection points: 2
#     Edge 25, Type (0, 0), BuildingBlock: CIFDUS_clean_linker_0, # of connection points: 2
#     Edge 26, Type (0, 0), BuildingBlock: CIFDUS_clean_linker_0, # of connection points: 2
#     Edge 27, Type (0, 0), BuildingBlock: CIFDUS_clean_linker_0, # of connection points: 2
# Relax obj value: 0.043
# Max RMSD: 0.120
# Mean RMSD: 0.110
data_MOF--net-fcu--node1-QEWDON_clean_sbu_0--edge1-CIFDUS_clean_linker_0
_symmetry_space_group_name_H-M    P1
_symmetry_Int_Tables_number       1
_symmetry_cell_setting            triclinic
loop_
_symmetry_equiv_pos_as_xyz
'x, y, z'
_cell_length_a     24.44177
_cell_length_b     24.895734
_cell_length_c     25.242512
_cell_angle_alpha  89.83115
_cell_angle_beta   89.908114
_cell_angle_gamma 89.831021
loop_
_atom_site_label
_atom_site_type_symbol
_atom_site_fract_x
_atom_site_fract_y
_atom_site_fract_z
_atom_type_partial_charge
Zn0 Zn 0.90321 0.88799 0.94613 0.0
Zn1 Zn 0.91702 0.87269 0.0765 0.0
O2 O 0.90744 0.92619 0.01631 0.0
H3 H 0.88855 0.96022 0.01702 0.0
C4 C 0.04229 0.86875 0.87983 0.0
O5 O 0.00388 0.90198 0.89588 0.0
Zn6 Zn 0.06436 0.11525 0.09473 0.0
Zn7 Zn 0.08306 0.12406 0.96555 0.0
O8 O 0.08172 0.07285 0.02871 0.0
H9 H 0.08919 0.03485 0.02615 0.0
Zn10 Zn 0.10726 0.92288 0.96375 0.0
O11 O 0.05593 0.92827 0.02663 0.0
Zn12 Zn 0.10159 0.93065 0.09294 0.0
H13 H 0.01784 0.93808 0.02362 0.0
Zn14 Zn 0.91825 0.04208 0.95839 0.0
O15 O 0.94902 0.04157 0.03268 0.0
H16 H 0.98417 0.0263 0.04158 0.0
Zn17 Zn 0.88518 0.0444 0.08235 0.0
C18 C 0.98327 0.08855 0.8683 0.0
O19 O -0.00107 0.03907 0.85828 0.0
O20 O 0.90546 0.80609 0.95676 0.0
O21 O 0.90804 0.79828 0.04498 0.0
O22 O 0.08663 0.20185 0.9919 0.0
O23 O 0.08217 0.19399 0.07992 0.0
O24 O 0.18772 0.92514 0.98645 0.0
O25 O 0.18161 0.91853 0.07428 0.0
C26 C 0.85377 0.93915 0.14236 0.0
O27 O 0.83446 0.04868 0.95731 0.0
O28 O 0.8155 0.06375 0.04229 0.0
O29 O 0.13372 0.10435 0.90079 0.0
C30 C 0.90637 0.77739 0.99877 0.0
O31 O 0.85147 0.92348 0.88919 0.0
C32 C 0.1191 0.03526 0.15753 0.0
O33 O 0.08889 0.8701 0.90207 0.0
C34 C 0.08784 0.22258 0.03805 0.0
O35 O 0.95213 0.09772 0.90755 0.0
C36 C 0.02453 0.85675 0.14032 0.0
O37 O 0.86281 0.88918 0.1374 0.0
O38 O 0.87747 0.96969 0.10946 0.0
C39 C 0.21007 0.92066 0.03183 0.0
O40 O 0.10976 0.08561 0.1561 0.0
O41 O 0.0971 0.00659 0.12164 0.0
C42 C 0.94817 0.11719 0.14471 0.0
O43 O 0.07358 0.87315 0.14436 0.0
O44 O -0.00546 0.87874 0.10498 0.0
C45 C 0.80065 0.06077 0.99384 0.0
O46 O 0.90077 0.09657 0.14133 0.0
O47 O 0.98412 0.10364 0.11075 0.0
C48 C 0.13875 0.05472 0.89026 0.0
O49 O 0.11082 0.02007 0.91872 0.0
C50 C 0.82557 0.8984 0.85324 0.0
O51 O 0.83114 0.84603 0.84974 0.0
Zn52 Zn 0.88347 0.44038 0.39193 0.0
Zn53 Zn 0.87402 0.56909 0.40928 0.0
O54 O 0.92647 0.50829 0.40146 0.0
H55 H 0.90956 0.47365 0.3968 0.0
C56 C 0.84258 0.43725 0.51695 0.0
O57 O 0.83037 0.47557 0.55067 0.0
Zn58 Zn 0.08187 0.54182 0.59888 0.0
Zn59 Zn 0.07363 0.41442 0.61401 0.0
O60 O 0.02873 0.4837 0.61535 0.0
H61 H 0.0452 0.44844 0.61432 0.0
Zn62 Zn 0.94398 0.46492 0.56006 0.0
O63 O 0.97013 0.54123 0.54513 0.0
Zn64 Zn 0.93053 0.58272 0.6002 0.0
H65 H 0.9773 0.55523 0.5101 0.0
Zn66 Zn 0.04941 0.42486 0.37759 0.0
O67 O 0.03187 0.48483 0.42904 0.0
H68 H 0.01479 0.48062 0.4633 0.0
Zn69 Zn 0.05294 0.5537 0.39499 0.0
C70 C 0.07297 0.34776 0.46293 0.0
O71 O 0.0584 0.38871 0.49249 0.0
O72 O 0.80485 0.45722 0.36855 0.0
O73 O 0.79896 0.5459 0.379 0.0
O74 O 0.15309 0.42885 0.63566 0.0
O75 O 0.15695 0.51716 0.62311 0.0
O76 O 0.91135 0.45223 0.63465 0.0
O77 O 0.88713 0.53636 0.6514 0.0
C78 C 0.95506 0.63189 0.35825 0.0
O79 O 0.09458 0.45091 0.31235 0.0
O80 O 0.094 0.53915 0.32724 0.0
O81 O 0.04315 0.34777 0.65328 0.0
C82 C 0.77811 0.50107 0.36473 0.0
O83 O 0.92033 0.37525 0.35441 0.0
C84 C 0.02766 0.63757 0.66007 0.0
O85 O 0.89265 0.4274 0.5073 0.0
C86 C 0.17908 0.47299 0.63766 0.0
O87 O 0.07148 0.35243 0.41272 0.0
C88 C 0.86548 0.62967 0.51391 0.0
O89 O 0.90363 0.63111 0.3659 0.0
O90 O 0.98338 0.59557 0.38092 0.0
C91 C 0.88585 0.48645 0.66283 0.0
O92 O 0.06631 0.607 0.64449 0.0
O93 O 0.97845 0.63056 0.64516 0.0
C94 C 0.11541 0.58345 0.49149 0.0
O95 O 0.88005 0.63286 0.56215 0.0
O96 O 0.8775 0.58771 0.48758 0.0
C97 C 0.10842 0.49865 0.29965 0.0
O98 O 0.10769 0.58897 0.44194 0.0
O99 O 0.08052 0.55878 0.51989 0.0
C100 C 0.01669 0.35545 0.69593 0.0
O101 O 0.00604 0.40491 0.71086 0.0
C102 C 0.95197 0.38159 0.31487 0.0
O103 O 0.96374 0.43056 0.29908 0.0
Zn104 Zn 0.3624 0.88001 0.47685 0.0
Zn105 Zn 0.39497 0.88861 0.60308 0.0
O106 O 0.39042 0.92988 0.53429 0.0
H107 H 0.39869 0.96739 0.5289 0.0
C108 C 0.51912 0.86659 0.33495 0.0
O109 O 0.53644 0.91598 0.32763 0.0
Zn110 Zn 0.57248 0.10726 0.57917 0.0
Zn111 Zn 0.60461 0.09926 0.45169 0.0
O112 O 0.56853 0.06056 0.51328 0.0
H113 H 0.55165 0.02574 0.50999 0.0
Zn114 Zn 0.55669 0.89288 0.44108 0.0
O115 O 0.52203 0.91654 0.51179 0.0
Zn116 Zn 0.58221 0.9167 0.56673 0.0
H117 H 0.49171 0.94134 0.51305 0.0
Zn118 Zn 0.39173 0.09835 0.45409 0.0
O119 O 0.43039 0.07554 0.52204 0.0
H120 H 0.46086 0.05088 0.52234 0.0
Zn121 Zn 0.3776 0.08196 0.58343 0.0
C122 C 0.42871 0.19941 0.40537 0.0
O123 O 0.41517 0.21613 0.45297 0.0
O124 O 0.33519 0.80943 0.51067 0.0
O125 O 0.35316 0.81888 0.59695 0.0
O126 O 0.63181 0.17311 0.47404 0.0
O127 O 0.6094 0.17858 0.5597 0.0
O128 O 0.63656 0.87022 0.44882 0.0
O129 O 0.65206 0.88835 0.53362 0.0
C130 C 0.34874 0.98244 0.65643 0.0
O131 O 0.31127 0.11354 0.4697 0.0
O132 O 0.30331 0.11094 0.55777 0.0
O133 O 0.6467 0.06048 0.38984 0.0
C134 C 0.33336 0.79236 0.55838 0.0
O135 O 0.31916 0.91113 0.4109 0.0
C136 C 0.62198 0.01578 0.63122 0.0
O137 O 0.51836 0.84771 0.38185 0.0
C138 C 0.63065 0.19864 0.5177 0.0
O139 O 0.42576 0.14936 0.39558 0.0
C140 C 0.51633 0.85424 0.64424 0.0
O141 O 0.35732 0.93207 0.65937 0.0
O142 O 0.36965 0.00796 0.61743 0.0
C143 C 0.6682 0.87126 0.48868 0.0
O144 O 0.61819 0.06677 0.63421 0.0
O145 O 0.59479 -0.00761 0.59484 0.0
C146 C 0.46217 0.14179 0.63969 0.0
O147 O 0.56361 0.86707 0.62763 0.0
O148 O 0.47511 0.8744 0.62033 0.0
C149 C 0.28296 0.11898 0.51172 0.0
O150 O 0.41114 0.13197 0.63666 0.0
O151 O 0.49417 0.11923 0.60631 0.0
C152 C 0.6707 0.01536 0.39501 0.0
O153 O 0.66801 0.99036 0.44083 0.0
C154 C 0.3157 0.96143 0.40222 0.0
O155 O 0.34023 -0.00552 0.43491 0.0
Zn156 Zn 0.44191 0.62972 0.04701 0.0
Zn157 Zn 0.45419 0.63275 0.9198 0.0
O158 O 0.43474 0.58516 0.98098 0.0
H159 H 0.4263 0.54732 0.98101 0.0
C160 C 0.54887 0.64473 0.11073 0.0
O161 O 0.55761 0.66809 0.06476 0.0
Zn162 Zn 0.56829 0.36711 0.91871 0.0
Zn163 Zn 0.5412 0.36534 0.04325 0.0
O164 O 0.57535 0.41108 0.98525 0.0
H165 H 0.6024 0.43831 0.99249 0.0
Zn166 Zn 0.59436 0.55026 0.05385 0.0
O167 O 0.5596 0.54894 0.98049 0.0
Zn168 Zn 0.62036 0.54394 0.92709 0.0
H169 H 0.52482 0.53186 0.97437 0.0
Zn170 Zn 0.41492 0.43183 0.04115 0.0
O171 O 0.4556 0.44243 0.9708 0.0
H172 H 0.44023 0.43711 0.00567 0.0
Zn173 Zn 0.40056 0.4532 0.9116 0.0
C174 C 0.43777 0.38564 0.14707 0.0
O175 O 0.42512 0.43501 0.16085 0.0
O176 O 0.44508 0.71003 0.02846 0.0
O177 O 0.44561 0.71092 0.94024 0.0
O178 O 0.54941 0.28537 0.0239 0.0
O179 O 0.57362 0.2883 0.93881 0.0
O180 O 0.67851 0.54973 0.05141 0.0
O181 O 0.69262 0.55178 0.96437 0.0
C182 C 0.39408 0.56495 0.85057 0.0
O183 O 0.33206 0.43235 0.02868 0.0
O184 O 0.32377 0.44131 0.94118 0.0
O185 O 0.56651 0.38219 0.12039 0.0
C186 C 0.44409 0.73554 0.98459 0.0
O187 O 0.38768 0.611 0.10774 0.0
C188 C 0.64378 0.43661 0.86866 0.0
O189 O 0.55932 0.59487 0.11561 0.0
C190 C 0.56467 0.2619 0.9815 0.0
O191 O 0.43902 0.37392 0.09799 0.0
C192 C 0.56874 0.63013 0.86839 0.0
O193 O 0.40778 0.61351 0.85792 0.0
O194 O 0.4073 0.53057 0.88585 0.0
C195 C 0.71074 0.55199 0.01174 0.0
O196 O 0.62904 0.38769 0.86794 0.0
O197 O 0.61675 0.46844 0.89823 0.0
C198 C 0.45923 0.37087 0.85582 0.0
O199 O 0.61326 0.6038 0.87129 0.0
O200 O 0.53057 0.6158 0.89941 0.0
C201 C 0.30262 0.43464 0.98711 0.0
O202 O 0.41403 0.39624 0.85526 0.0
O203 O 0.49569 0.38682 0.8878 0.0
C204 C 0.56773 0.42858 0.14136 0.0
O205 O 0.55029 0.47019 0.11404 0.0
C206 C 0.34876 0.57802 0.10047 0.0
O207 O 0.34439 0.55386 0.05451 0.0
H208 H -0.0005 0.21314 0.13569 0.0
H209 H 0.91668 0.11023 0.24704 0.0
H210 H 0.91711 0.18178 0.3131 0.0
H211 H 0.93046 0.27648 0.33464 0.0
H212 H 0.01015 0.38118 0.22203 0.0
H213 H 0.02314 0.30576 0.16156 0.0
C214 C 0.98389 0.20579 0.17515 0.0
C215 C 0.959 0.15642 0.18691 0.0
C216 C 0.98298 0.24769 0.21239 0.0
C217 C 0.93634 0.14799 0.23738 0.0
C218 C 0.93637 0.1889 0.27502 0.0
C219 C 0.95147 0.28273 0.29725 0.0
C220 C 0.96834 0.33463 0.28251 0.0
C221 C 0.9579 0.23946 0.26229 0.0
C222 C -0.00389 0.34179 0.23415 0.0
C223 C 0.0035 0.29866 0.19945 0.0
H224 H 0.81867 0.88811 0.23151 0.0
H225 H 0.80489 0.038 0.14642 0.0
H226 H 0.74576 0.07408 0.21582 0.0
H227 H 0.69939 0.06387 0.30187 0.0
H228 H 0.71659 0.9153 0.38878 0.0
H229 H 0.77231 0.8779 0.31763 0.0
C230 C 0.80245 0.92857 0.22801 0.0
C231 C 0.81636 0.96033 0.18377 0.0
C232 C 0.76893 0.94934 0.26852 0.0
C233 C 0.79531 0.01281 0.18012 0.0
C234 C 0.76129 0.03345 0.21981 0.0
C235 C 0.71505 0.02319 0.30516 0.0
C236 C 0.70337 -0.0076 0.35071 0.0
C237 C 0.74808 0.00221 0.26437 0.0
C238 C 0.72454 0.93992 0.35429 0.0
C239 C 0.7566 0.91847 0.31354 0.0
H240 H 0.08159 0.80209 0.21689 0.0
H241 H 0.92263 0.81076 0.14368 0.0
H242 H 0.88794 0.74355 0.20439 0.0
H243 H 0.90159 0.68329 0.27963 0.0
H244 H 0.0614 0.66739 0.35018 0.0
H245 H 0.09719 0.73577 0.28892 0.0
C246 C 0.03932 0.78933 0.21412 0.0
C247 C 0.0043 0.8132 0.17612 0.0
C248 C 0.0199 0.74907 0.24881 0.0
C249 C 0.95012 0.79499 0.17292 0.0
C250 C 0.93029 0.75593 0.20766 0.0
C251 C 0.94433 0.69472 0.28175 0.0
C252 C 0.97863 0.67082 0.31993 0.0
C253 C 0.96461 0.73313 0.24605 0.0
C254 C 0.03411 0.68536 0.32132 0.0
C255 C 0.05448 0.72453 0.28637 0.0
H256 H 0.26307 0.90546 0.32392 0.0
H257 H 0.29506 0.06646 0.37836 0.0
H258 H 0.2373 0.10306 0.30849 0.0
H259 H 0.17604 0.08971 0.23282 0.0
H260 H 0.14848 0.9297 0.17452 0.0
H261 H 0.20602 0.89259 0.24424 0.0
C262 C 0.25754 0.94856 0.32045 0.0
C263 C 0.28277 0.983 0.35725 0.0
C264 C 0.22486 0.96963 0.27927 0.0
C265 C 0.27559 0.0388 0.35143 0.0
C266 C 0.24261 0.05989 0.31121 0.0
C267 C 0.18257 0.04667 0.23514 0.0
C268 C 0.15669 0.01248 0.1985 0.0
C269 C 0.21669 0.0257 0.27512 0.0
C270 C 0.1666 0.95697 0.20224 0.0
C271 C 0.19992 0.93569 0.24225 0.0
H272 H 0.11491 0.8017 0.83104 0.0
H273 H 0.94446 0.84741 0.83237 0.0
H274 H 0.92514 0.78131 0.76367 0.0
H275 H 0.95621 0.70916 0.7045 0.0
H276 H 0.12679 0.66324 0.70348 0.0
H277 H 0.1464 0.73109 0.77024 0.0
C278 C 0.07352 0.79728 0.81629 0.0
C279 C 0.03115 0.82942 0.83709 0.0
C280 C 0.0627 0.7592 0.77663 0.0
C281 C 0.97785 0.82326 0.81719 0.0
C282 C 0.96675 0.7854 0.77786 0.0
C283 C -0.00223 0.71405 0.71862 0.0
C284 C 0.03988 0.68088 0.69878 0.0
C285 C 0.0088 0.75297 0.75744 0.0
C286 C 0.09347 0.68808 0.71777 0.0
C287 C 0.10477 0.72685 0.75617 0.0
H288 H 0.19199 0.11265 0.81231 0.0
H289 H 0.17319 0.95241 0.87597 0.0
H290 H 0.23775 0.91789 0.81133 0.0
H291 H 0.29838 0.93173 0.73706 0.0
H292 H 0.31674 0.08926 0.6677 0.0
H293 H 0.25403 0.12634 0.73452 0.0
C294 C 0.20216 0.07023 0.81196 0.0
C295 C 0.17765 0.03524 0.84923 0.0
C296 C 0.23937 0.05015 0.77384 0.0
C297 C 0.19105 0.98033 0.84792 0.0
C298 C 0.22819 0.96045 0.81095 0.0
C299 C 0.28915 0.97437 0.73628 0.0
C300 C 0.31289 0.00766 0.69732 0.0
C301 C 0.25246 -0.00512 0.77382 0.0
C302 C 0.2997 0.06268 0.69733 0.0
C303 C 0.26355 0.08381 0.73547 0.0
H304 H 0.05661 0.25335 0.69135 0.0
H305 H 0.94701 0.35568 0.78006 0.0
H306 H 0.92867 0.28244 0.84193 0.0
H307 H 0.944 0.19022 0.87111 0.0
H308 H 0.05369 0.08702 0.78356 0.0
H309 H 0.07231 0.16021 0.72115 0.0
C310 C 0.02837 0.25947 0.72398 0.0
C311 C 0.0031 0.30986 0.73106 0.0
C312 C 0.01844 0.21732 0.7598 0.0
C313 C 0.96703 0.31733 0.77379 0.0
C314 C 0.9566 0.27552 0.80924 0.0
C315 C 0.97219 0.18361 0.83852 0.0
C316 C -0.00274 0.13312 0.8319 0.0
C317 C 0.98229 0.22553 0.80277 0.0
C318 C 0.03363 0.12541 0.78941 0.0
C319 C 0.04421 0.16721 0.75369 0.0
H320 H 0.67419 0.05449 0.71881 0.0
H321 H 0.6542 0.91005 0.62765 0.0
H322 H 0.71278 0.86097 0.68835 0.0
H323 H 0.77168 0.85901 0.76711 0.0
H324 H 0.7967 0.0045 0.85607 0.0
H325 H 0.73505 0.05316 0.7966 0.0
C326 C 0.68248 0.01223 0.71217 0.0
C327 C 0.65823 0.9858 0.66876 0.0
C328 C 0.71774 0.98444 0.74699 0.0
C329 C 0.67036 0.93121 0.661 0.0
C330 C 0.70462 0.90313 0.6957 0.0
C331 C 0.76368 0.90136 0.7736 0.0
C332 C 0.7887 0.92793 0.81632 0.0
C333 C 0.72863 0.9293 0.73883 0.0
C334 C 0.77794 0.98296 0.8237 0.0
C335 C 0.74265 0.01085 0.78964 0.0
H336 H 0.24799 0.40687 0.07662 0.0
H337 H 0.22723 0.42343 0.90748 0.0
H338 H 0.14565 0.3674 0.91156 0.0
H339 H 0.09655 0.29655 0.95921 0.0
H340 H 0.12299 0.27479 0.12704 0.0
H341 H 0.18445 0.35161 0.12775 0.0
C342 C 0.22458 0.4 0.04084 0.0
C343 C 0.24471 0.41797 0.9916 0.0
C344 C 0.17906 0.36608 0.04318 0.0
C345 C 0.21336 0.4092 0.9458 0.0
C346 C 0.16681 0.37687 0.94805 0.0
C347 C 0.11451 0.30954 0.99629 0.0
C348 C 0.10704 0.27865 0.04256 0.0
C349 C 0.15171 0.35223 0.99594 0.0
C350 C 0.12902 0.29707 0.09058 0.0
C351 C 0.16456 0.34084 0.09094 0.0
H352 H 0.42356 0.79697 0.07119 0.0
H353 H 0.42474 0.80263 0.90016 0.0
H354 H 0.3584 0.87583 0.90156 0.0
H355 H 0.28162 0.91597 0.94951 0.0
H356 H 0.27249 0.90046 0.11982 0.0
H357 H 0.36052 0.85419 0.12057 0.0
C358 C 0.4107 0.81531 0.03417 0.0
C359 C 0.42669 0.79246 0.98558 0.0
C360 C 0.36971 0.85467 0.03516 0.0
C361 C 0.41159 0.81823 0.93814 0.0
C362 C 0.37316 0.8598 0.93888 0.0
C363 C 0.29947 0.90373 0.987 0.0
C364 C 0.2694 0.90935 0.03427 0.0
C365 C 0.34867 0.87483 0.98691 0.0
C366 C 0.294 0.89507 0.08264 0.0
C367 C 0.34433 0.86847 0.08311 0.0
H368 H 0.61313 0.20184 0.90453 0.0
H369 H 0.56346 0.19613 0.06871 0.0
H370 H 0.62764 0.12305 0.08515 0.0
H371 H 0.71261 0.07775 0.05805 0.0
H372 H 0.76509 0.08797 0.89491 0.0
H373 H 0.68475 0.14109 0.87299 0.0
C374 C 0.61497 0.18353 0.94354 0.0
C375 C 0.58523 0.20603 0.98576 0.0
C376 C 0.6535 0.14286 0.9533 0.0
C377 C 0.58697 0.18065 0.03567 0.0
C378 C 0.62407 0.13903 0.04531 0.0
C379 C 0.70575 0.09049 0.01745 0.0
C380 C 0.74555 0.07999 0.97856 0.0
C381 C 0.66012 0.12256 0.00529 0.0
C382 C 0.73543 0.0957 0.92585 0.0
C383 C 0.68956 0.12656 0.91325 0.0
H384 H 0.88819 0.70611 0.07845 0.0
H385 H 0.90298 0.7173 0.9082 0.0
H386 H 0.85581 0.63187 0.89865 0.0
H387 H 0.78794 0.57159 0.9369 0.0
H388 H 0.76326 0.56825 0.10632 0.0
H389 H 0.83855 0.63095 0.11805 0.0
C390 C 0.88258 0.68914 0.0393 0.0
C391 C 0.89649 0.71918 0.99401 0.0
C392 C 0.85293 0.64148 0.03394 0.0
C393 C 0.89079 0.6958 0.94368 0.0
C394 C 0.86372 0.64695 0.93814 0.0
C395 C 0.80013 0.58316 0.97658 0.0
C396 C 0.76819 0.56779 0.02042 0.0
C397 C 0.84085 0.62195 0.98274 0.0
C398 C 0.78598 0.58112 0.07167 0.0
C399 C 0.82878 0.61738 0.07841 0.0
H400 H 0.71146 0.37422 0.80927 0.0
H401 H 0.6871 0.53785 0.85945 0.0
H402 H 0.76234 0.56721 0.8034 0.0
H403 H 0.83101 0.5472 0.73516 0.0
H404 H 0.85716 0.38293 0.68644 0.0
H405 H 0.78613 0.35296 0.74764 0.0
C406 C 0.72265 0.41633 0.80821 0.0
C407 C 0.6924 0.45408 0.83779 0.0
C408 C 0.76655 0.43276 0.77611 0.0
C409 C 0.70843 0.50817 0.83644 0.0
C410 C 0.75184 0.52495 0.80444 0.0
C411 C 0.82166 0.50475 0.73828 0.0
C412 C 0.84895 0.46754 0.70562 0.0
C413 C 0.7805 0.48773 0.77332 0.0
C414 C 0.83668 0.41259 0.7108 0.0
C415 C 0.79582 0.39538 0.74564 0.0
H416 H 0.24849 0.55717 0.64632 0.0
H417 H 0.22412 0.39407 0.69981 0.0
H418 H 0.29156 0.40685 0.76975 0.0
H419 H 0.34669 0.46896 0.82383 0.0
H420 H 0.37029 0.63169 0.76885 0.0
H421 H 0.313 0.61464 0.69245 0.0
C422 C 0.25878 0.52396 0.67247 0.0
C423 C 0.23046 0.47519 0.66842 0.0
C424 C 0.29642 0.53192 0.71344 0.0
C425 C 0.24501 0.4323 0.70216 0.0
C426 C 0.28317 0.43971 0.74265 0.0
C427 C 0.34019 0.50021 0.79463 0.0
C428 C 0.36223 0.55155 0.80267 0.0
C429 C 0.30736 0.4901 0.75007 0.0
C430 C 0.35311 0.59189 0.76437 0.0
C431 C 0.32056 0.58222 0.7203 0.0
H432 H 0.18526 0.57554 0.29369 0.0
H433 H 0.11994 0.44038 0.20829 0.0
H434 H 0.18783 0.45409 0.13806 0.0
H435 H 0.26787 0.50291 0.10255 0.0
H436 H 0.33564 0.63443 0.19199 0.0
H437 H 0.26523 0.62299 0.25952 0.0
C438 C 0.18563 0.54926 0.25947 0.0
C439 C 0.1474 0.50736 0.25578 0.0
C440 C 0.22584 0.55613 0.22045 0.0
C441 C 0.14899 0.47296 0.21185 0.0
C442 C 0.18796 0.48063 0.17187 0.0
C443 C 0.26729 0.52894 0.13687 0.0
C444 C 0.30701 0.56946 0.14215 0.0
C445 C 0.22696 0.52175 0.17602 0.0
C446 C 0.30575 0.60281 0.18696 0.0
C447 C 0.26538 0.59644 0.22556 0.0
H448 H 0.60073 0.52229 0.18736 0.0
H449 H 0.59474 0.35087 0.21293 0.0
H450 H 0.65239 0.35994 0.29108 0.0
H451 H 0.71506 0.41429 0.34374 0.0
H452 H 0.72457 0.58529 0.31684 0.0
H453 H 0.6537 0.57885 0.24884 0.0
C454 C 0.61118 0.48706 0.21057 0.0
C455 C 0.59447 0.43583 0.19352 0.0
C456 C 0.64522 0.49244 0.25517 0.0
C457 C 0.60797 0.39065 0.22445 0.0
C458 C 0.64091 0.39578 0.26925 0.0
C459 C 0.70093 0.4504 0.32377 0.0
C460 C 0.72594 0.50003 0.3347 0.0
C461 C 0.66147 0.44616 0.2837 0.0
C462 C 0.70633 0.5465 0.3091 0.0
C463 C 0.66614 0.54276 0.26979 0.0
H464 H 0.33725 0.69893 0.50592 0.0
H465 H 0.2548 0.78021 0.63362 0.0
H466 H 0.18094 0.71404 0.63132 0.0
H467 H 0.13126 0.64649 0.57821 0.0
H468 H 0.21487 0.56644 0.45038 0.0
H469 H 0.29737 0.61805 0.46774 0.0
C470 C 0.30402 0.7008 0.53446 0.0
C471 C 0.3005 0.7444 0.56912 0.0
C472 C 0.26165 0.6633 0.53229 0.0
C473 C 0.25793 0.7467 0.60647 0.0
C474 C 0.21551 0.70921 0.60483 0.0
C475 C 0.16836 0.63855 0.55616 0.0
C476 C 0.16719 0.6033 0.513 0.0
C477 C 0.2155 0.66914 0.56585 0.0
C478 C 0.21502 0.59409 0.48348 0.0
C479 C 0.26209 0.62359 0.49325 0.0
H480 H 0.09158 0.25093 0.41746 0.0
H481 H 0.11374 0.33821 0.56317 0.0
H482 H 0.17301 0.26706 0.5971 0.0
H483 H 0.23197 0.18894 0.578 0.0
H484 H 0.21239 0.1045 0.43034 0.0
H485 H 0.13802 0.16465 0.40507 0.0
C486 C 0.1086 0.25389 0.45701 0.0
C487 C 0.09927 0.30025 0.48727 0.0
C488 C 0.1435 0.21335 0.47581 0.0
C489 C 0.12063 0.3031 0.53888 0.0
C490 C 0.15481 0.2625 0.55825 0.0
C491 C 0.21004 0.1826 0.54123 0.0
C492 C 0.2282 0.14312 0.5056 0.0
C493 C 0.16846 0.2186 0.5261 0.0
C494 C 0.19959 0.13527 0.45799 0.0
C495 C 0.15727 0.16983 0.44337 0.0
H496 H 0.86784 0.73141 0.54897 0.0
H497 H 0.79922 0.63253 0.42621 0.0
H498 H 0.74009 0.7065 0.39829 0.0
H499 H 0.6961 0.79205 0.4208 0.0
H500 H 0.7574 0.88554 0.55158 0.0
H501 H 0.83213 0.82147 0.56387 0.0
C502 C 0.84044 0.72618 0.51561 0.0
C503 C 0.83711 0.67614 0.49014 0.0
C504 C 0.80511 0.76803 0.5016 0.0
C505 C 0.80249 0.67044 0.44633 0.0
C506 C 0.7684 0.71273 0.4307 0.0
C507 C 0.72679 0.79927 0.45093 0.0
C508 C 0.72091 0.84282 0.48587 0.0
C509 C 0.76765 0.76075 0.45969 0.0
C510 C 0.76088 0.85185 0.52467 0.0
C511 C 0.80332 0.81509 0.53191 0.0
H512 H 0.70778 0.23524 0.4503 0.0
H513 H 0.6173 0.27894 0.59082 0.0
H514 H 0.67029 0.36194 0.59776 0.0
H515 H 0.74785 0.41708 0.5686 0.0
H516 H 0.84535 0.36576 0.43527 0.0
H517 H 0.78293 0.29138 0.4197 0.0
C518 C 0.69899 0.26324 0.48206 0.0
C519 C 0.65876 0.25096 0.52008 0.0
C520 C 0.73072 0.30962 0.48678 0.0
C521 C 0.64832 0.28738 0.56128 0.0
C522 C 0.67853 0.33481 0.56518 0.0
C523 C 0.75475 0.39033 0.53539 0.0
C524 C 0.80067 0.39752 0.50243 0.0
C525 C 0.7206 0.3457 0.52878 0.0
C526 C 0.8098 0.36177 0.46045 0.0
C527 C 0.77442 0.31887 0.45192 0.0
H528 H 0.53497 0.33924 0.78066 0.0
H529 H 0.39089 0.28815 0.86557 0.0
H530 H 0.38457 0.20827 0.81052 0.0
H531 H 0.41247 0.1589 0.73259 0.0
H532 H 0.55193 0.20993 0.64114 0.0
H533 H 0.56852 0.283 0.70453 0.0
C534 C 0.50306 0.30986 0.78754 0.0
C535 C 0.4633 0.3194 0.82703 0.0
C536 C 0.49861 0.26434 0.75427 0.0
C537 C 0.42174 0.28157 0.83535 0.0
C538 C 0.41804 0.23597 0.80383 0.0
C539 C 0.44706 0.18553 0.72671 0.0
C540 C 0.48058 0.17931 0.68178 0.0
C541 C 0.4551 0.22788 0.76224 0.0
C542 C 0.52561 0.21371 0.67537 0.0
C543 C 0.53471 0.2558 0.71146 0.0
H544 H 0.60012 0.81784 0.70354 0.0
H545 H 0.4252 0.80256 0.68708 0.0
H546 H 0.42479 0.73392 0.75765 0.0
H547 H 0.47632 0.675 0.82114 0.0
H548 H 0.65178 0.69015 0.83077 0.0
H549 H 0.64963 0.76246 0.76598 0.0
C550 C 0.56154 0.79982 0.71511 0.0
C551 C 0.51273 0.81532 0.6894 0.0
C552 C 0.56188 0.76013 0.75466 0.0
C553 C 0.4634 0.79152 0.7059 0.0
C554 C 0.46327 0.75213 0.74622 0.0
C555 C 0.51386 0.69424 0.8093 0.0
C556 C 0.56418 0.67646 0.83087 0.0
C557 C 0.51251 0.73556 0.77051 0.0
C558 C 0.61254 0.70225 0.8147 0.0
C559 C 0.6114 0.7438 0.77757 0.0
H560 H 0.52234 0.75111 0.11347 0.0
H561 H 0.54075 0.61165 0.214 0.0
H562 H 0.52652 0.66724 0.29236 0.0
H563 H 0.51827 0.75684 0.33283 0.0
H564 H 0.50337 0.89647 0.23211 0.0
H565 H 0.50578 0.83939 0.15365 0.0
C566 C 0.52265 0.73269 0.15246 0.0
C567 C 0.53331 0.6773 0.15769 0.0
C568 C 0.51518 0.76505 0.19753 0.0
C569 C 0.53299 0.65418 0.20864 0.0
C570 C 0.52496 0.68601 0.2536 0.0
C571 C 0.51451 0.77472 0.29377 0.0
C572 C 0.51106 0.83099 0.28846 0.0
C573 C 0.51735 0.7417 0.24862 0.0
C574 C 0.50646 0.85338 0.23743 0.0
C575 C 0.50804 0.82075 0.19246 0.0
H576 H 0.43969 0.18217 0.29827 0.0
H577 H 0.44366 0.30714 0.41643 0.0
H578 H 0.45129 0.37509 0.34724 0.0
H579 H 0.44884 0.40012 0.25329 0.0
H580 H 0.44416 0.27631 0.1342 0.0
H581 H 0.4455 0.20724 0.20337 0.0
C582 C 0.44295 0.2242 0.30892 0.0
C583 C 0.44045 0.23932 0.36272 0.0
C584 C 0.44679 0.26353 0.26865 0.0
C585 C 0.44492 0.29411 0.37554 0.0
C586 C 0.44924 0.33318 0.33591 0.0
C587 C 0.44852 0.35803 0.24234 0.0
C588 C 0.44551 0.34359 0.18852 0.0
C589 C 0.44887 0.31851 0.28234 0.0
C590 C 0.44606 0.28874 0.17524 0.0
C591 C 0.44666 0.24913 0.21486 0.0
loop_
_geom_bond_atom_site_label_1
_geom_bond_atom_site_label_2
_geom_bond_distance
_geom_bond_site_symmetry_2
_ccdc_geom_bond_type
Zn0 O2 1.933 1_556 S
Zn0 O20 1.985 . S
Zn0 O31 1.955 . S
Zn1 O2 1.911 . S
Zn1 O21 1.970 . S
Zn1 O37 1.945 . S
Zn1 O44 1.981 . S
O2 Zn0 1.933 1_554 S
O2 Zn1 1.911 . S
O2 H3 0.841 . S
H3 O2 0.841 . S
C4 O5 1.246 . S
C4 O33 1.276 1_655 S
O5 C4 1.246 . S
Zn6 O8 1.911 . S
Zn6 O23 1.970 . S
Zn6 O40 1.945 . S
Zn6 O47 1.981 . S
Zn7 O8 1.933 1_556 S
Zn7 O22 1.985 . S
Zn7 O29 1.955 . S
O8 Zn6 1.911 . S
O8 Zn7 1.933 1_554 S
O8 H9 0.841 . S
H9 O8 0.841 . S
Zn10 O11 1.933 1_556 S
Zn10 O24 1.985 . S
Zn10 O33 1.955 . S
O11 Zn10 1.933 1_554 S
O11 Zn12 1.911 . S
O11 H13 0.841 . S
Zn12 O11 1.911 . S
Zn12 O25 1.970 . S
Zn12 O41 1.981 . S
Zn12 O43 1.945 . S
H13 O11 0.841 . S
Zn14 O15 1.933 1_556 S
Zn14 O27 1.985 . S
Zn14 O35 1.955 . S
O15 Zn14 1.933 1_554 S
O15 H16 0.841 . S
O15 Zn17 1.911 . S
H16 O15 0.841 . S
Zn17 O15 1.911 . S
Zn17 O28 1.970 . S
Zn17 O38 1.981 . S
Zn17 O46 1.945 . S
C18 O19 1.246 . S
C18 O35 1.276 1_455 S
O19 C18 1.246 . S
O20 Zn0 1.985 . S
O20 C30 1.245 1_556 S
O21 Zn1 1.970 . S
O21 C30 1.263 . S
O22 Zn7 1.985 . S
O22 C34 1.245 1_556 S
O23 Zn6 1.970 . S
O23 C34 1.263 . S
O24 Zn10 1.985 . S
O24 C39 1.245 1_556 S
O25 Zn12 1.970 . S
O25 C39 1.263 . S
C26 O37 1.262 1_545 S
C26 O38 1.245 . S
O27 Zn14 1.985 . S
O27 C45 1.245 1_556 S
O28 Zn17 1.970 . S
O28 C45 1.263 . S
O29 Zn7 1.955 . S
O29 C48 1.260 1_545 S
C30 O20 1.245 1_554 S
C30 O21 1.263 . S
O31 Zn0 1.955 . S
O31 C50 1.276 1_565 S
C32 O40 1.262 . S
C32 O41 1.245 1_545 S
O33 C4 1.276 1_455 S
O33 Zn10 1.955 . S
C34 O22 1.245 1_554 S
C34 O23 1.263 . S
O35 Zn14 1.955 . S
O35 C18 1.276 1_655 S
C36 O43 1.268 . S
C36 O44 1.242 1_455 S
O37 Zn1 1.945 . S
O37 C26 1.262 1_565 S
O38 Zn17 1.981 . S
O38 C26 1.245 . S
C39 O24 1.245 1_554 S
C39 O25 1.263 . S
O40 Zn6 1.945 . S
O40 C32 1.262 . S
O41 Zn12 1.981 . S
O41 C32 1.245 1_565 S
C42 O46 1.262 1_455 S
C42 O47 1.245 . S
O43 Zn12 1.945 . S
O43 C36 1.268 . S
O44 Zn1 1.981 . S
O44 C36 1.242 1_655 S
C45 O27 1.245 1_554 S
C45 O28 1.263 . S
O46 Zn17 1.945 . S
O46 C42 1.262 1_655 S
O47 Zn6 1.981 . S
O47 C42 1.245 . S
C48 O29 1.260 1_565 S
C48 O49 1.254 . S
O49 C48 1.254 . S
C50 O31 1.276 1_545 S
C50 O51 1.246 . S
O51 C50 1.246 . S
Zn52 O54 1.933 . S
Zn52 O72 1.985 . S
Zn52 O83 1.955 . S
Zn53 O54 1.911 . S
Zn53 O73 1.970 . S
Zn53 O89 1.945 . S
Zn53 O96 1.981 . S
O54 Zn52 1.933 . S
O54 Zn53 1.911 . S
O54 H55 0.841 . S
H55 O54 0.841 . S
C56 O57 1.246 . S
C56 O85 1.276 . S
O57 C56 1.246 . S
Zn58 O60 1.911 . S
Zn58 O75 1.970 . S
Zn58 O92 1.945 . S
Zn58 O99 1.981 . S
Zn59 O60 1.933 . S
Zn59 O74 1.985 . S
Zn59 O81 1.955 . S
O60 Zn58 1.911 . S
O60 Zn59 1.933 . S
O60 H61 0.841 . S
H61 O60 0.841 . S
Zn62 O63 1.933 . S
Zn62 O76 1.985 . S
Zn62 O85 1.955 . S
O63 Zn62 1.933 . S
O63 Zn64 1.911 . S
O63 H65 0.841 . S
Zn64 O63 1.911 . S
Zn64 O77 1.970 . S
Zn64 O93 1.981 . S
Zn64 O95 1.945 . S
H65 O63 0.841 . S
Zn66 O67 1.933 . S
Zn66 O79 1.985 . S
Zn66 O87 1.955 . S
O67 Zn66 1.933 . S
O67 H68 0.841 . S
O67 Zn69 1.911 . S
H68 O67 0.841 . S
Zn69 O67 1.911 . S
Zn69 O80 1.970 . S
Zn69 O90 1.981 . S
Zn69 O98 1.945 . S
C70 O71 1.246 . S
C70 O87 1.276 . S
O71 C70 1.246 . S
O72 Zn52 1.985 . S
O72 C82 1.245 . S
O73 Zn53 1.970 . S
O73 C82 1.263 . S
O74 Zn59 1.985 . S
O74 C86 1.245 . S
O75 Zn58 1.970 . S
O75 C86 1.263 . S
O76 Zn62 1.985 . S
O76 C91 1.245 . S
O77 Zn64 1.970 . S
O77 C91 1.263 . S
C78 O89 1.262 . S
C78 O90 1.245 1_655 S
O79 Zn66 1.985 . S
O79 C97 1.245 . S
O80 Zn69 1.970 . S
O80 C97 1.263 . S
O81 Zn59 1.955 . S
O81 C100 1.276 1_455 S
C82 O72 1.245 . S
C82 O73 1.263 . S
O83 Zn52 1.955 . S
O83 C102 1.276 1_655 S
C84 O92 1.268 . S
C84 O93 1.242 1_455 S
O85 C56 1.276 . S
O85 Zn62 1.955 . S
C86 O74 1.245 . S
C86 O75 1.263 . S
O87 Zn66 1.955 . S
O87 C70 1.276 . S
C88 O95 1.262 . S
C88 O96 1.245 . S
O89 Zn53 1.945 . S
O89 C78 1.262 . S
O90 Zn69 1.981 . S
O90 C78 1.245 1_455 S
C91 O76 1.245 . S
C91 O77 1.263 . S
O92 Zn58 1.945 . S
O92 C84 1.268 . S
O93 Zn64 1.981 . S
O93 C84 1.242 1_655 S
C94 O98 1.262 . S
C94 O99 1.245 . S
O95 Zn64 1.945 . S
O95 C88 1.262 . S
O96 Zn53 1.981 . S
O96 C88 1.245 . S
C97 O79 1.245 . S
C97 O80 1.263 . S
O98 Zn69 1.945 . S
O98 C94 1.262 . S
O99 Zn58 1.981 . S
O99 C94 1.245 . S
C100 O81 1.276 1_655 S
C100 O101 1.246 . S
O101 C100 1.246 . S
C102 O83 1.276 1_455 S
C102 O103 1.246 . S
O103 C102 1.246 . S
Zn104 O106 1.933 . S
Zn104 O124 1.985 . S
Zn104 O135 1.955 . S
Zn105 O106 1.911 . S
Zn105 O125 1.970 . S
Zn105 O141 1.945 . S
Zn105 O148 1.981 . S
O106 Zn104 1.933 . S
O106 Zn105 1.911 . S
O106 H107 0.841 . S
H107 O106 0.841 . S
C108 O109 1.246 . S
C108 O137 1.276 . S
O109 C108 1.246 . S
Zn110 O112 1.911 . S
Zn110 O127 1.970 . S
Zn110 O144 1.945 . S
Zn110 O151 1.981 . S
Zn111 O112 1.933 . S
Zn111 O126 1.985 . S
Zn111 O133 1.955 . S
O112 Zn110 1.911 . S
O112 Zn111 1.933 . S
O112 H113 0.841 . S
H113 O112 0.841 . S
Zn114 O115 1.933 . S
Zn114 O128 1.985 . S
Zn114 O137 1.955 . S
O115 Zn114 1.933 . S
O115 Zn116 1.911 . S
O115 H117 0.841 . S
Zn116 O115 1.911 . S
Zn116 O129 1.970 . S
Zn116 O145 1.981 . S
Zn116 O147 1.945 . S
H117 O115 0.841 . S
Zn118 O119 1.933 . S
Zn118 O131 1.985 . S
Zn118 O139 1.955 . S
O119 Zn118 1.933 . S
O119 H120 0.841 . S
O119 Zn121 1.911 . S
H120 O119 0.841 . S
Zn121 O119 1.911 . S
Zn121 O132 1.970 . S
Zn121 O142 1.981 . S
Zn121 O150 1.945 . S
C122 O123 1.246 . S
C122 O139 1.276 . S
O123 C122 1.246 . S
O124 Zn104 1.985 . S
O124 C134 1.245 . S
O125 Zn105 1.970 . S
O125 C134 1.263 . S
O126 Zn111 1.985 . S
O126 C138 1.245 . S
O127 Zn110 1.970 . S
O127 C138 1.263 . S
O128 Zn114 1.985 . S
O128 C143 1.245 . S
O129 Zn116 1.970 . S
O129 C143 1.263 . S
C130 O141 1.262 1_545 S
C130 O142 1.245 . S
O131 Zn118 1.985 . S
O131 C149 1.245 . S
O132 Zn121 1.970 . S
O132 C149 1.263 . S
O133 Zn111 1.955 . S
O133 C152 1.259 1_545 S
C134 O124 1.245 . S
C134 O125 1.263 . S
O135 Zn104 1.955 . S
O135 C154 1.276 1_565 S
C136 O144 1.262 . S
C136 O145 1.245 1_545 S
O137 C108 1.276 . S
O137 Zn114 1.955 . S
C138 O126 1.245 . S
C138 O127 1.263 . S
O139 Zn118 1.955 . S
O139 C122 1.276 . S
C140 O147 1.262 . S
C140 O148 1.245 . S
O141 Zn105 1.945 . S
O141 C130 1.262 1_565 S
O142 Zn121 1.981 . S
O142 C130 1.245 . S
C143 O128 1.245 . S
C143 O129 1.263 . S
O144 Zn110 1.945 . S
O144 C136 1.262 . S
O145 Zn116 1.981 . S
O145 C136 1.245 1_565 S
C146 O150 1.262 . S
C146 O151 1.245 . S
O147 Zn116 1.945 . S
O147 C140 1.262 . S
O148 Zn105 1.981 . S
O148 C140 1.245 . S
C149 O131 1.245 . S
C149 O132 1.263 . S
O150 Zn121 1.945 . S
O150 C146 1.262 . S
O151 Zn110 1.981 . S
O151 C146 1.245 . S
C152 O133 1.259 1_565 S
C152 O153 1.254 . S
O153 C152 1.254 . S
C154 O135 1.276 1_545 S
C154 O155 1.246 . S
O155 C154 1.246 . S
Zn156 O158 1.933 . S
Zn156 O176 1.985 . S
Zn156 O187 1.955 . S
Zn157 O158 1.911 1_556 S
Zn157 O177 1.970 . S
Zn157 O193 1.945 . S
Zn157 O200 1.981 . S
O158 Zn156 1.933 . S
O158 Zn157 1.911 1_554 S
O158 H159 0.841 . S
H159 O158 0.841 . S
C160 O161 1.246 . S
C160 O189 1.276 . S
O161 C160 1.246 . S
Zn162 O164 1.911 1_556 S
Zn162 O179 1.970 . S
Zn162 O196 1.945 . S
Zn162 O203 1.981 . S
Zn163 O164 1.933 . S
Zn163 O178 1.985 . S
Zn163 O185 1.955 . S
O164 Zn162 1.911 1_554 S
O164 Zn163 1.933 . S
O164 H165 0.841 . S
H165 O164 0.841 . S
Zn166 O167 1.933 . S
Zn166 O180 1.985 . S
Zn166 O189 1.955 . S
O167 Zn166 1.933 . S
O167 Zn168 1.911 1_554 S
O167 H169 0.841 . S
Zn168 O167 1.911 1_556 S
Zn168 O181 1.970 . S
Zn168 O197 1.981 . S
Zn168 O199 1.945 . S
H169 O167 0.841 . S
Zn170 O171 1.933 . S
Zn170 O183 1.985 . S
Zn170 O191 1.955 . S
O171 Zn170 1.933 . S
O171 H172 0.841 . S
O171 Zn173 1.911 1_554 S
H172 O171 0.841 . S
Zn173 O171 1.911 1_556 S
Zn173 O184 1.970 . S
Zn173 O194 1.981 . S
Zn173 O202 1.945 . S
C174 O175 1.246 . S
C174 O191 1.276 . S
O175 C174 1.246 . S
O176 Zn156 1.985 . S
O176 C186 1.245 . S
O177 Zn157 1.970 . S
O177 C186 1.263 1_556 S
O178 Zn163 1.985 . S
O178 C190 1.245 . S
O179 Zn162 1.970 . S
O179 C190 1.263 1_556 S
O180 Zn166 1.985 . S
O180 C195 1.245 . S
O181 Zn168 1.970 . S
O181 C195 1.263 1_556 S
C182 O193 1.262 . S
C182 O194 1.245 . S
O183 Zn170 1.985 . S
O183 C201 1.245 . S
O184 Zn173 1.970 . S
O184 C201 1.263 1_556 S
O185 Zn163 1.955 . S
O185 C204 1.276 . S
C186 O176 1.245 . S
C186 O177 1.263 1_554 S
O187 Zn156 1.955 . S
O187 C206 1.276 . S
C188 O196 1.262 . S
C188 O197 1.245 . S
O189 C160 1.276 . S
O189 Zn166 1.955 . S
C190 O178 1.245 . S
C190 O179 1.263 1_554 S
O191 Zn170 1.955 . S
O191 C174 1.276 . S
C192 O199 1.262 . S
C192 O200 1.245 . S
O193 Zn157 1.945 . S
O193 C182 1.262 . S
O194 Zn173 1.981 . S
O194 C182 1.245 . S
C195 O180 1.245 . S
C195 O181 1.263 1_554 S
O196 Zn162 1.945 . S
O196 C188 1.262 . S
O197 Zn168 1.981 . S
O197 C188 1.245 . S
C198 O202 1.262 . S
C198 O203 1.245 . S
O199 Zn168 1.945 . S
O199 C192 1.262 . S
O200 Zn157 1.981 . S
O200 C192 1.245 . S
C201 O183 1.245 . S
C201 O184 1.263 1_554 S
O202 Zn173 1.945 . S
O202 C198 1.262 . S
O203 Zn162 1.981 . S
O203 C198 1.245 . S
C204 O185 1.276 . S
C204 O205 1.246 . S
O205 C204 1.246 . S
C206 O187 1.276 . S
C206 O207 1.246 . S
O207 C206 1.246 . S
H208 C214 0.930 . S
H209 C217 0.930 . S
H210 C218 0.930 . S
H211 C219 0.930 . S
H212 C222 0.930 . S
H213 C223 0.930 . S
C214 H208 0.930 . S
C214 C215 1.355 . S
C214 C216 1.415 . S
C215 C214 1.355 . S
C215 C217 1.419 . S
C216 C214 1.415 . S
C216 C221 1.425 . S
C216 C223 1.409 . S
C217 H209 0.930 . S
C217 C215 1.419 . S
C217 C218 1.362 . S
C218 H210 0.930 . S
C218 C217 1.362 . S
C218 C221 1.409 . S
C219 H211 0.930 . S
C219 C220 1.355 . S
C219 C221 1.415 . S
C220 C219 1.355 . S
C220 C222 1.419 . S
C221 C216 1.425 . S
C221 C218 1.409 . S
C221 C219 1.415 . S
C222 H212 0.930 . S
C222 C220 1.419 . S
C222 C223 1.362 . S
C223 H213 0.930 . S
C223 C216 1.409 . S
C223 C222 1.362 . S
H224 C230 0.930 . S
H225 C233 0.930 . S
H226 C234 0.930 . S
H227 C235 0.930 . S
H228 C238 0.930 . S
H229 C239 0.930 . S
C230 H224 0.930 . S
C230 C231 1.355 . S
C230 C232 1.415 . S
C231 C230 1.355 . S
C231 C233 1.417 1_545 S
C232 C230 1.415 . S
C232 C237 1.425 1_545 S
C232 C239 1.409 . S
C233 H225 0.930 . S
C233 C231 1.417 1_565 S
C233 C234 1.364 . S
C234 H226 0.930 . S
C234 C233 1.364 . S
C234 C237 1.409 . S
C235 H227 0.930 . S
C235 C236 1.355 . S
C235 C237 1.415 . S
C236 C235 1.355 . S
C236 C238 1.419 1_565 S
C237 C232 1.425 1_565 S
C237 C234 1.409 . S
C237 C235 1.415 . S
C238 H228 0.930 . S
C238 C236 1.419 1_545 S
C238 C239 1.362 . S
C239 H229 0.930 . S
C239 C232 1.409 . S
C239 C238 1.362 . S
H240 C246 0.930 . S
H241 C249 0.930 . S
H242 C250 0.930 . S
H243 C251 0.930 . S
H244 C254 0.930 . S
H245 C255 0.930 . S
C246 H240 0.930 . S
C246 C247 1.355 1_455 S
C246 C248 1.415 . S
C247 C246 1.355 1_655 S
C247 C249 1.419 . S
C248 C246 1.415 . S
C248 C253 1.425 1_455 S
C248 C255 1.409 . S
C249 H241 0.930 . S
C249 C247 1.419 . S
C249 C250 1.362 . S
C250 H242 0.930 . S
C250 C249 1.362 . S
C250 C253 1.409 . S
C251 H243 0.930 . S
C251 C252 1.355 1_655 S
C251 C253 1.415 . S
C252 C251 1.355 1_455 S
C252 C254 1.419 . S
C253 C248 1.425 1_655 S
C253 C250 1.409 . S
C253 C251 1.415 . S
C254 H244 0.930 . S
C254 C252 1.419 . S
C254 C255 1.362 . S
C255 H245 0.930 . S
C255 C248 1.409 . S
C255 C254 1.362 . S
H256 C262 0.930 . S
H257 C265 0.930 . S
H258 C266 0.930 . S
H259 C267 0.930 . S
H260 C270 0.930 . S
H261 C271 0.930 . S
C262 H256 0.930 . S
C262 C263 1.355 1_565 S
C262 C264 1.415 . S
C263 C262 1.355 1_545 S
C263 C265 1.419 . S
C264 C262 1.415 . S
C264 C269 1.425 1_565 S
C264 C271 1.409 . S
C265 H257 0.930 . S
C265 C263 1.419 . S
C265 C266 1.362 . S
C266 H258 0.930 . S
C266 C265 1.362 . S
C266 C269 1.409 . S
C267 H259 0.930 . S
C267 C268 1.355 1_545 S
C267 C269 1.415 . S
C268 C267 1.355 1_565 S
C268 C270 1.419 . S
C269 C264 1.425 1_545 S
C269 C266 1.409 . S
C269 C267 1.415 . S
C270 H260 0.930 . S
C270 C268 1.419 . S
C270 C271 1.362 . S
C271 H261 0.930 . S
C271 C264 1.409 . S
C271 C270 1.362 . S
H272 C278 0.930 . S
H273 C281 0.930 . S
H274 C282 0.930 . S
H275 C283 0.930 . S
H276 C286 0.930 . S
H277 C287 0.930 . S
C278 H272 0.930 . S
C278 C279 1.355 1_455 S
C278 C280 1.415 . S
C279 C278 1.355 1_655 S
C279 C281 1.419 . S
C280 C278 1.415 . S
C280 C285 1.425 1_455 S
C280 C287 1.409 . S
C281 H273 0.930 . S
C281 C279 1.419 . S
C281 C282 1.362 . S
C282 H274 0.930 . S
C282 C281 1.362 . S
C282 C285 1.409 . S
C283 H275 0.930 . S
C283 C284 1.355 . S
C283 C285 1.415 . S
C284 C283 1.355 . S
C284 C286 1.419 1_655 S
C285 C280 1.425 1_655 S
C285 C282 1.409 . S
C285 C283 1.415 . S
C286 H276 0.930 . S
C286 C284 1.419 1_455 S
C286 C287 1.362 . S
C287 H277 0.930 . S
C287 C280 1.409 . S
C287 C286 1.362 . S
H288 C294 0.930 . S
H289 C297 0.930 . S
H290 C298 0.930 . S
H291 C299 0.930 . S
H292 C302 0.930 . S
H293 C303 0.930 . S
C294 H288 0.930 . S
C294 C295 1.355 1_545 S
C294 C296 1.415 . S
C295 C294 1.355 1_565 S
C295 C297 1.419 . S
C296 C294 1.415 . S
C296 C301 1.425 1_545 S
C296 C303 1.409 . S
C297 H289 0.930 . S
C297 C295 1.419 . S
C297 C298 1.362 . S
C298 H290 0.930 . S
C298 C297 1.362 . S
C298 C301 1.409 . S
C299 H291 0.930 . S
C299 C300 1.355 1_565 S
C299 C301 1.415 . S
C300 C299 1.355 1_545 S
C300 C302 1.419 . S
C301 C296 1.425 1_565 S
C301 C298 1.409 . S
C301 C299 1.415 . S
C302 H292 0.930 . S
C302 C300 1.419 . S
C302 C303 1.362 . S
C303 H293 0.930 . S
C303 C296 1.409 . S
C303 C302 1.362 . S
H304 C310 0.930 . S
H305 C313 0.930 . S
H306 C314 0.930 . S
H307 C315 0.930 . S
H308 C318 0.930 . S
H309 C319 0.930 . S
C310 H304 0.930 . S
C310 C311 1.355 1_455 S
C310 C312 1.415 . S
C311 C310 1.355 1_655 S
C311 C313 1.419 . S
C312 C310 1.415 . S
C312 C317 1.425 1_455 S
C312 C319 1.409 . S
C313 H305 0.930 . S
C313 C311 1.419 . S
C313 C314 1.362 . S
C314 H306 0.930 . S
C314 C313 1.362 . S
C314 C317 1.409 . S
C315 H307 0.930 . S
C315 C316 1.355 1_655 S
C315 C317 1.415 . S
C316 C315 1.355 1_455 S
C316 C318 1.419 . S
C317 C312 1.425 1_655 S
C317 C314 1.409 . S
C317 C315 1.415 . S
C318 H308 0.930 . S
C318 C316 1.419 . S
C318 C319 1.362 . S
C319 H309 0.930 . S
C319 C312 1.409 . S
C319 C318 1.362 . S
H320 C326 0.930 . S
H321 C329 0.930 . S
H322 C330 0.930 . S
H323 C331 0.930 . S
H324 C334 0.930 . S
H325 C335 0.928 1_565 S
C326 H320 0.930 . S
C326 C327 1.355 . S
C326 C328 1.415 1_565 S
C327 C326 1.355 . S
C327 C329 1.419 1_565 S
C328 C326 1.415 1_545 S
C328 C333 1.425 . S
C328 C335 1.410 . S
C329 H321 0.930 . S
C329 C327 1.419 1_545 S
C329 C330 1.362 . S
C330 H322 0.930 . S
C330 C329 1.362 . S
C330 C333 1.409 . S
C331 H323 0.930 . S
C331 C332 1.355 . S
C331 C333 1.415 . S
C332 C331 1.355 . S
C332 C334 1.419 . S
C333 C328 1.425 . S
C333 C330 1.409 . S
C333 C331 1.415 . S
C334 H324 0.930 . S
C334 C332 1.419 . S
C334 C335 1.365 . S
C335 H325 0.928 1_545 S
C335 C328 1.410 . S
C335 C334 1.365 . S
H336 C342 0.930 . S
H337 C345 0.930 . S
H338 C346 0.930 . S
H339 C347 0.930 . S
H340 C350 0.930 . S
H341 C351 0.930 . S
C342 H336 0.930 . S
C342 C343 1.355 . S
C342 C344 1.415 . S
C343 C342 1.355 . S
C343 C345 1.419 1_554 S
C344 C342 1.415 . S
C344 C349 1.425 1_554 S
C344 C351 1.409 . S
C345 H337 0.930 . S
C345 C343 1.419 1_556 S
C345 C346 1.362 . S
C346 H338 0.930 . S
C346 C345 1.362 . S
C346 C349 1.409 . S
C347 H339 0.930 . S
C347 C348 1.355 1_556 S
C347 C349 1.415 . S
C348 C347 1.355 1_554 S
C348 C350 1.419 . S
C349 C344 1.425 1_556 S
C349 C346 1.409 . S
C349 C347 1.415 . S
C350 H340 0.930 . S
C350 C348 1.419 . S
C350 C351 1.362 . S
C351 H341 0.930 . S
C351 C344 1.409 . S
C351 C350 1.362 . S
H352 C358 0.930 . S
H353 C361 0.930 . S
H354 C362 0.930 . S
H355 C363 0.930 . S
H356 C366 0.930 . S
H357 C367 0.930 . S
C358 H352 0.930 . S
C358 C359 1.355 1_554 S
C358 C360 1.415 . S
C359 C358 1.355 1_556 S
C359 C361 1.419 . S
C360 C358 1.415 . S
C360 C365 1.425 1_554 S
C360 C367 1.409 . S
C361 H353 0.930 . S
C361 C359 1.419 . S
C361 C362 1.362 . S
C362 H354 0.930 . S
C362 C361 1.362 . S
C362 C365 1.409 . S
C363 H355 0.930 . S
C363 C364 1.355 1_556 S
C363 C365 1.415 . S
C364 C363 1.355 1_554 S
C364 C366 1.419 . S
C365 C360 1.425 1_556 S
C365 C362 1.409 . S
C365 C363 1.415 . S
C366 H356 0.930 . S
C366 C364 1.419 . S
C366 C367 1.362 . S
C367 H357 0.930 . S
C367 C360 1.409 . S
C367 C366 1.362 . S
H368 C374 0.930 . S
H369 C377 0.930 . S
H370 C378 0.930 . S
H371 C379 0.930 . S
H372 C382 0.930 . S
H373 C383 0.930 . S
C374 H368 0.930 . S
C374 C375 1.357 . S
C374 C376 1.415 . S
C375 C374 1.357 . S
C375 C377 1.416 1_554 S
C376 C374 1.415 . S
C376 C381 1.425 1_554 S
C376 C383 1.409 . S
C377 H369 0.930 . S
C377 C375 1.416 1_556 S
C377 C378 1.362 . S
C378 H370 0.930 . S
C378 C377 1.362 . S
C378 C381 1.409 . S
C379 H371 0.930 . S
C379 C380 1.355 1_556 S
C379 C381 1.415 . S
C380 C379 1.355 1_554 S
C380 C382 1.419 . S
C381 C376 1.425 1_556 S
C381 C378 1.409 . S
C381 C379 1.415 . S
C382 H372 0.930 . S
C382 C380 1.419 . S
C382 C383 1.362 . S
C383 H373 0.930 . S
C383 C376 1.409 . S
C383 C382 1.362 . S
H384 C390 0.930 . S
H385 C393 0.930 . S
H386 C394 0.930 . S
H387 C395 0.930 . S
H388 C398 0.930 . S
H389 C399 0.930 . S
C390 H384 0.930 . S
C390 C391 1.355 . S
C390 C392 1.415 . S
C391 C390 1.355 . S
C391 C393 1.419 1_554 S
C392 C390 1.415 . S
C392 C397 1.425 1_554 S
C392 C399 1.409 . S
C393 H385 0.930 . S
C393 C391 1.419 1_556 S
C393 C394 1.362 . S
C394 H386 0.930 . S
C394 C393 1.362 . S
C394 C397 1.409 . S
C395 H387 0.930 . S
C395 C396 1.355 1_556 S
C395 C397 1.415 . S
C396 C395 1.355 1_554 S
C396 C398 1.419 . S
C397 C392 1.425 1_556 S
C397 C394 1.409 . S
C397 C395 1.415 . S
C398 H388 0.930 . S
C398 C396 1.419 . S
C398 C399 1.362 . S
C399 H389 0.930 . S
C399 C392 1.409 . S
C399 C398 1.362 . S
H400 C406 0.930 . S
H401 C409 0.930 . S
H402 C410 0.930 . S
H403 C411 0.930 . S
H404 C414 0.930 . S
H405 C415 0.930 . S
C406 H400 0.930 . S
C406 C407 1.355 . S
C406 C408 1.415 . S
C407 C406 1.355 . S
C407 C409 1.419 . S
C408 C406 1.415 . S
C408 C413 1.425 . S
C408 C415 1.409 . S
C409 H401 0.930 . S
C409 C407 1.419 . S
C409 C410 1.362 . S
C410 H402 0.930 . S
C410 C409 1.362 . S
C410 C413 1.409 . S
C411 H403 0.930 . S
C411 C412 1.355 . S
C411 C413 1.415 . S
C412 C411 1.355 . S
C412 C414 1.419 . S
C413 C408 1.425 . S
C413 C410 1.409 . S
C413 C411 1.415 . S
C414 H404 0.930 . S
C414 C412 1.419 . S
C414 C415 1.362 . S
C415 H405 0.930 . S
C415 C408 1.409 . S
C415 C414 1.362 . S
H416 C422 0.930 . S
H417 C425 0.930 . S
H418 C426 0.930 . S
H419 C427 0.930 . S
H420 C430 0.930 . S
H421 C431 0.930 . S
C422 H416 0.930 . S
C422 C423 1.355 . S
C422 C424 1.415 . S
C423 C422 1.355 . S
C423 C425 1.419 . S
C424 C422 1.415 . S
C424 C429 1.425 . S
C424 C431 1.409 . S
C425 H417 0.930 . S
C425 C423 1.419 . S
C425 C426 1.362 . S
C426 H418 0.930 . S
C426 C425 1.362 . S
C426 C429 1.409 . S
C427 H419 0.930 . S
C427 C428 1.355 . S
C427 C429 1.415 . S
C428 C427 1.355 . S
C428 C430 1.419 . S
C429 C424 1.425 . S
C429 C426 1.409 . S
C429 C427 1.415 . S
C430 H420 0.930 . S
C430 C428 1.419 . S
C430 C431 1.362 . S
C431 H421 0.930 . S
C431 C424 1.409 . S
C431 C430 1.362 . S
H432 C438 0.930 . S
H433 C441 0.930 . S
H434 C442 0.930 . S
H435 C443 0.930 . S
H436 C446 0.930 . S
H437 C447 0.930 . S
C438 H432 0.930 . S
C438 C439 1.355 . S
C438 C440 1.415 . S
C439 C438 1.355 . S
C439 C441 1.419 . S
C440 C438 1.415 . S
C440 C445 1.425 . S
C440 C447 1.409 . S
C441 H433 0.930 . S
C441 C439 1.419 . S
C441 C442 1.362 . S
C442 H434 0.930 . S
C442 C441 1.362 . S
C442 C445 1.409 . S
C443 H435 0.930 . S
C443 C444 1.355 . S
C443 C445 1.415 . S
C444 C443 1.355 . S
C444 C446 1.419 . S
C445 C440 1.425 . S
C445 C442 1.409 . S
C445 C443 1.415 . S
C446 H436 0.930 . S
C446 C444 1.419 . S
C446 C447 1.362 . S
C447 H437 0.930 . S
C447 C440 1.409 . S
C447 C446 1.362 . S
H448 C454 0.930 . S
H449 C457 0.930 . S
H450 C458 0.930 . S
H451 C459 0.930 . S
H452 C462 0.930 . S
H453 C463 0.930 . S
C454 H448 0.930 . S
C454 C455 1.355 . S
C454 C456 1.415 . S
C455 C454 1.355 . S
C455 C457 1.419 . S
C456 C454 1.415 . S
C456 C461 1.425 . S
C456 C463 1.409 . S
C457 H449 0.930 . S
C457 C455 1.419 . S
C457 C458 1.362 . S
C458 H450 0.930 . S
C458 C457 1.362 . S
C458 C461 1.409 . S
C459 H451 0.930 . S
C459 C460 1.355 . S
C459 C461 1.415 . S
C460 C459 1.355 . S
C460 C462 1.419 . S
C461 C456 1.425 . S
C461 C458 1.409 . S
C461 C459 1.415 . S
C462 H452 0.930 . S
C462 C460 1.419 . S
C462 C463 1.362 . S
C463 H453 0.930 . S
C463 C456 1.409 . S
C463 C462 1.362 . S
H464 C470 0.930 . S
H465 C473 0.930 . S
H466 C474 0.930 . S
H467 C475 0.930 . S
H468 C478 0.930 . S
H469 C479 0.930 . S
C470 H464 0.930 . S
C470 C471 1.355 . S
C470 C472 1.415 . S
C471 C470 1.355 . S
C471 C473 1.419 . S
C472 C470 1.415 . S
C472 C477 1.425 . S
C472 C479 1.409 . S
C473 H465 0.930 . S
C473 C471 1.419 . S
C473 C474 1.362 . S
C474 H466 0.930 . S
C474 C473 1.362 . S
C474 C477 1.409 . S
C475 H467 0.930 . S
C475 C476 1.355 . S
C475 C477 1.415 . S
C476 C475 1.355 . S
C476 C478 1.419 . S
C477 C472 1.425 . S
C477 C474 1.409 . S
C477 C475 1.415 . S
C478 H468 0.930 . S
C478 C476 1.419 . S
C478 C479 1.362 . S
C479 H469 0.930 . S
C479 C472 1.409 . S
C479 C478 1.362 . S
H480 C486 0.930 . S
H481 C489 0.930 . S
H482 C490 0.930 . S
H483 C491 0.930 . S
H484 C494 0.930 . S
H485 C495 0.930 . S
C486 H480 0.930 . S
C486 C487 1.355 . S
C486 C488 1.415 . S
C487 C486 1.355 . S
C487 C489 1.419 . S
C488 C486 1.415 . S
C488 C493 1.425 . S
C488 C495 1.409 . S
C489 H481 0.930 . S
C489 C487 1.419 . S
C489 C490 1.362 . S
C490 H482 0.930 . S
C490 C489 1.362 . S
C490 C493 1.409 . S
C491 H483 0.930 . S
C491 C492 1.355 . S
C491 C493 1.415 . S
C492 C491 1.355 . S
C492 C494 1.419 . S
C493 C488 1.425 . S
C493 C490 1.409 . S
C493 C491 1.415 . S
C494 H484 0.930 . S
C494 C492 1.419 . S
C494 C495 1.362 . S
C495 H485 0.930 . S
C495 C488 1.409 . S
C495 C494 1.362 . S
H496 C502 0.930 . S
H497 C505 0.930 . S
H498 C506 0.930 . S
H499 C507 0.930 . S
H500 C510 0.930 . S
H501 C511 0.930 . S
C502 H496 0.930 . S
C502 C503 1.355 . S
C502 C504 1.415 . S
C503 C502 1.355 . S
C503 C505 1.419 . S
C504 C502 1.415 . S
C504 C509 1.425 . S
C504 C511 1.409 . S
C505 H497 0.930 . S
C505 C503 1.419 . S
C505 C506 1.362 . S
C506 H498 0.930 . S
C506 C505 1.362 . S
C506 C509 1.409 . S
C507 H499 0.930 . S
C507 C508 1.355 . S
C507 C509 1.415 . S
C508 C507 1.355 . S
C508 C510 1.419 . S
C509 C504 1.425 . S
C509 C506 1.409 . S
C509 C507 1.415 . S
C510 H500 0.930 . S
C510 C508 1.419 . S
C510 C511 1.362 . S
C511 H501 0.930 . S
C511 C504 1.409 . S
C511 C510 1.362 . S
H512 C518 0.930 . S
H513 C521 0.930 . S
H514 C522 0.930 . S
H515 C523 0.930 . S
H516 C526 0.930 . S
H517 C527 0.930 . S
C518 H512 0.930 . S
C518 C519 1.355 . S
C518 C520 1.415 . S
C519 C518 1.355 . S
C519 C521 1.419 . S
C520 C518 1.415 . S
C520 C525 1.425 . S
C520 C527 1.409 . S
C521 H513 0.930 . S
C521 C519 1.419 . S
C521 C522 1.362 . S
C522 H514 0.930 . S
C522 C521 1.362 . S
C522 C525 1.409 . S
C523 H515 0.930 . S
C523 C524 1.355 . S
C523 C525 1.415 . S
C524 C523 1.355 . S
C524 C526 1.419 . S
C525 C520 1.425 . S
C525 C522 1.409 . S
C525 C523 1.415 . S
C526 H516 0.930 . S
C526 C524 1.419 . S
C526 C527 1.362 . S
C527 H517 0.930 . S
C527 C520 1.409 . S
C527 C526 1.362 . S
H528 C534 0.930 . S
H529 C537 0.930 . S
H530 C538 0.930 . S
H531 C539 0.930 . S
H532 C542 0.930 . S
H533 C543 0.930 . S
C534 H528 0.930 . S
C534 C535 1.355 . S
C534 C536 1.415 . S
C535 C534 1.355 . S
C535 C537 1.419 . S
C536 C534 1.415 . S
C536 C541 1.425 . S
C536 C543 1.409 . S
C537 H529 0.930 . S
C537 C535 1.419 . S
C537 C538 1.362 . S
C538 H530 0.930 . S
C538 C537 1.362 . S
C538 C541 1.409 . S
C539 H531 0.930 . S
C539 C540 1.355 . S
C539 C541 1.415 . S
C540 C539 1.355 . S
C540 C542 1.419 . S
C541 C536 1.425 . S
C541 C538 1.409 . S
C541 C539 1.415 . S
C542 H532 0.930 . S
C542 C540 1.419 . S
C542 C543 1.362 . S
C543 H533 0.930 . S
C543 C536 1.409 . S
C543 C542 1.362 . S
H544 C550 0.930 . S
H545 C553 0.930 . S
H546 C554 0.930 . S
H547 C555 0.930 . S
H548 C558 0.930 . S
H549 C559 0.930 . S
C550 H544 0.930 . S
C550 C551 1.355 . S
C550 C552 1.415 . S
C551 C550 1.355 . S
C551 C553 1.419 . S
C552 C550 1.415 . S
C552 C557 1.425 . S
C552 C559 1.409 . S
C553 H545 0.930 . S
C553 C551 1.419 . S
C553 C554 1.362 . S
C554 H546 0.930 . S
C554 C553 1.362 . S
C554 C557 1.409 . S
C555 H547 0.930 . S
C555 C556 1.355 . S
C555 C557 1.415 . S
C556 C555 1.355 . S
C556 C558 1.419 . S
C557 C552 1.425 . S
C557 C554 1.409 . S
C557 C555 1.415 . S
C558 H548 0.930 . S
C558 C556 1.419 . S
C558 C559 1.362 . S
C559 H549 0.930 . S
C559 C552 1.409 . S
C559 C558 1.362 . S
H560 C566 0.930 . S
H561 C569 0.930 . S
H562 C570 0.930 . S
H563 C571 0.930 . S
H564 C574 0.930 . S
H565 C575 0.930 . S
C566 H560 0.930 . S
C566 C567 1.355 . S
C566 C568 1.415 . S
C567 C566 1.355 . S
C567 C569 1.419 . S
C568 C566 1.415 . S
C568 C573 1.425 . S
C568 C575 1.409 . S
C569 H561 0.930 . S
C569 C567 1.419 . S
C569 C570 1.362 . S
C570 H562 0.930 . S
C570 C569 1.362 . S
C570 C573 1.409 . S
C571 H563 0.930 . S
C571 C572 1.355 . S
C571 C573 1.415 . S
C572 C571 1.355 . S
C572 C574 1.419 . S
C573 C568 1.425 . S
C573 C570 1.409 . S
C573 C571 1.415 . S
C574 H564 0.930 . S
C574 C572 1.419 . S
C574 C575 1.362 . S
C575 H565 0.930 . S
C575 C568 1.409 . S
C575 C574 1.362 . S
H576 C582 0.930 . S
H577 C585 0.930 . S
H578 C586 0.930 . S
H579 C587 0.930 . S
H580 C590 0.930 . S
H581 C591 0.930 . S
C582 H576 0.930 . S
C582 C583 1.355 . S
C582 C584 1.415 . S
C583 C582 1.355 . S
C583 C585 1.419 . S
C584 C582 1.415 . S
C584 C589 1.425 . S
C584 C591 1.409 . S
C585 H577 0.930 . S
C585 C583 1.419 . S
C585 C586 1.362 . S
C586 H578 0.930 . S
C586 C585 1.362 . S
C586 C589 1.409 . S
C587 H579 0.930 . S
C587 C588 1.355 . S
C587 C589 1.415 . S
C588 C587 1.355 . S
C588 C590 1.419 . S
C589 C584 1.425 . S
C589 C586 1.409 . S
C589 C587 1.415 . S
C590 H580 0.930 . S
C590 C588 1.419 . S
C590 C591 1.362 . S
C591 H581 0.930 . S
C591 C584 1.409 . S
C591 C590 1.362 . S
C215 C42 1.880 . S
C220 C102 1.776 . S
C231 C26 1.695 . S
C236 C152 1.680 . S
C247 C36 1.776 1_655 S
C252 C78 1.773 1_455 S
C263 C154 1.757 . S
C268 C32 1.771 1_565 S
C279 C4 1.830 . S
C284 C84 1.777 1_655 S
C295 C48 1.721 . S
C300 C130 1.732 . S
C311 C100 1.902 . S
C316 C18 1.909 . S
C327 C136 1.691 1_565 S
C332 C50 1.674 . S
C343 C201 0.694 . S
C348 C34 0.796 . S
C359 C186 0.746 1_556 S
C364 C39 0.725 . S
C375 C190 0.786 . S
C380 C45 0.699 . S
C391 C30 0.709 . S
C396 C195 0.772 . S
C407 C188 1.291 . S
C412 C91 1.322 . S
C423 C86 1.265 . S
C428 C182 1.276 . S
C439 C97 1.411 . S
C444 C206 1.361 . S
C455 C204 1.354 . S
C460 C82 1.341 . S
C471 C134 1.131 . S
C476 C94 1.062 . S
C487 C70 1.156 . S
C492 C149 1.270 . S
C503 C88 1.097 . S
C508 C143 1.190 . S
C519 C138 1.303 . S
C524 C56 1.258 . S
C535 C198 1.709 . S
C540 C146 1.747 . S
C551 C140 1.697 . S
C556 C192 1.732 . S
C567 C160 1.840 . S
C572 C108 1.888 . S
C583 C122 1.903 . S
C588 C174 1.855 . S
