# Generated by pormake.
# Topology una, (4)-cn, num edge types: 1
# Building blocks:
#     Node 0, Type 0, BuildingBlock: ICAMEG_clean_sbu_1, # of connection points: 4
#     Node 1, Type 0, BuildingBlock: ICAMEG_clean_sbu_1, # of connection points: 4
#     Node 2, Type 0, BuildingBlock: ICAMEG_clean_sbu_1, # of connection points: 4
#     Node 3, Type 0, BuildingBlock: ICAMEG_clean_sbu_1, # of connection points: 4
#     Node 4, Type 0, BuildingBlock: ICAMEG_clean_sbu_1, # of connection points: 4
#     Node 5, Type 0, BuildingBlock: ICAMEG_clean_sbu_1, # of connection points: 4
#     Node 6, Type 0, BuildingBlock: ICAMEG_clean_sbu_1, # of connection points: 4
#     Node 7, Type 0, BuildingBlock: ICAMEG_clean_sbu_1, # of connection points: 4
#     Node 8, Type 0, BuildingBlock: ICAMEG_clean_sbu_1, # of connection points: 4
#     Node 9, Type 0, BuildingBlock: ICAMEG_clean_sbu_1, # of connection points: 4
#     Node 10, Type 0, BuildingBlock: ICAMEG_clean_sbu_1, # of connection points: 4
#     Node 11, Type 0, BuildingBlock: ICAMEG_clean_sbu_1, # of connection points: 4
#     Edge 12, Type (0, 0), None
#     Edge 13, Type (0, 0), None
#     Edge 14, Type (0, 0), None
#     Edge 15, Type (0, 0), None
#     Edge 16, Type (0, 0), None
#     Edge 17, Type (0, 0), None
#     Edge 18, Type (0, 0), None
#     Edge 19, Type (0, 0), None
#     Edge 20, Type (0, 0), None
#     Edge 21, Type (0, 0), None
#     Edge 22, Type (0, 0), None
#     Edge 23, Type (0, 0), None
#     Edge 24, Type (0, 0), None
#     Edge 25, Type (0, 0), None
#     Edge 26, Type (0, 0), None
#     Edge 27, Type (0, 0), None
#     Edge 28, Type (0, 0), None
#     Edge 29, Type (0, 0), None
#     Edge 30, Type (0, 0), None
#     Edge 31, Type (0, 0), None
#     Edge 32, Type (0, 0), None
#     Edge 33, Type (0, 0), None
#     Edge 34, Type (0, 0), None
#     Edge 35, Type (0, 0), None
# Relax obj value: 0.063
# Max RMSD: 0.083
# Mean RMSD: 0.083
data_MOF--net-una--node1-ICAMEG_clean_sbu_1--edge1-none
_symmetry_space_group_name_H-M    P1
_symmetry_Int_Tables_number       1
_symmetry_cell_setting            triclinic
loop_
_symmetry_equiv_pos_as_xyz
'x, y, z'
_cell_length_a     31.354456
_cell_length_b     31.478132
_cell_length_c     10.122418
_cell_angle_alpha  89.994807
_cell_angle_beta   90.005603
_cell_angle_gamma 119.59751
loop_
_atom_site_label
_atom_site_type_symbol
_atom_site_fract_x
_atom_site_fract_y
_atom_site_fract_z
_atom_type_partial_charge
Co0 Co 0.17458 0.4688 0.0409 0.0
Co1 Co 0.10071 0.34841 0.07803 0.0
O2 O 0.10986 0.41459 0.05032 0.0
C3 C 0.13256 0.53933 0.0926 0.0
O4 O 0.10753 0.52782 0.98222 0.0
C5 C 0.01613 0.30046 0.89304 0.0
O6 O 0.04121 0.2848 0.82463 0.0
O7 O 0.1347 0.35295 0.89884 0.0
O8 O 0.19683 0.42816 0.93175 0.0
H9 H 0.14532 0.21634 0.04337 0.0
H10 H 0.10296 0.41605 0.82469 0.0
O11 O 0.15292 0.51431 0.13504 0.0
H12 H 0.17941 0.58844 0.69791 0.0
H13 H 0.31439 0.62973 0.1728 0.0
H14 H 0.26086 0.46076 0.06918 0.0
H15 H 0.21697 0.56292 0.87149 0.0
H16 H 0.23205 0.57968 0.08555 0.0
O17 O 0.03463 0.32613 0.99585 0.0
H18 H 0.15886 0.30083 0.03169 0.0
H19 H 0.01188 0.2513 0.14436 0.0
H20 H 0.33999 0.51038 0.16426 0.0
H21 H 0.064 0.44187 0.66016 0.0
H22 H 0.37228 0.59929 0.16586 0.0
H23 H 0.10282 0.52805 0.59148 0.0
O24 O 0.18758 0.44878 0.21937 0.0
H25 H 0.04791 0.41969 0.44337 0.0
H26 H 0.08824 0.29218 0.33174 0.0
H27 H 0.06158 0.29627 0.55648 0.0
H28 H 0.04704 0.36326 0.61812 0.0
H29 H 0.05639 0.40374 0.21412 0.0
H30 H -0.00344 0.16629 0.15665 0.0
H31 H 0.06352 0.14872 0.10779 0.0
O32 O 0.16544 0.37144 0.17718 0.0
C33 C 0.1779 0.38764 0.86801 0.0
C34 C 0.11603 0.22381 0.06723 0.0
C35 C 0.03233 0.19574 0.13007 0.0
N36 N 0.08714 0.2812 0.09237 0.0
C37 C 0.12375 0.27145 0.06198 0.0
C38 C 0.0413 0.24383 0.12265 0.0
C39 C 0.07005 0.18581 0.10272 0.0
C40 C 0.12039 0.45434 0.80082 0.0
N41 N 0.16063 0.48841 0.86913 0.0
C42 C 0.09829 0.46831 0.70367 0.0
C43 C 0.11936 0.51694 0.66785 0.0
C44 C 0.16239 0.55094 0.72911 0.0
C45 C 0.18378 0.53584 0.82664 0.0
C46 C 0.30206 0.59307 0.14613 0.0
C47 C 0.27225 0.49882 0.08064 0.0
C48 C 0.25598 0.56437 0.09264 0.0
N49 N 0.24217 0.51802 0.05253 0.0
C50 C 0.31712 0.52621 0.1406 0.0
C51 C 0.33402 0.57506 0.15665 0.0
C52 C 0.18834 0.40991 0.24913 0.0
C53 C 0.05548 0.39062 0.41908 0.0
C54 C 0.0752 0.31742 0.35117 0.0
C55 C 0.06316 0.32138 0.48161 0.0
C56 C 0.05504 0.35929 0.51648 0.0
N57 N 0.07284 0.34641 0.25335 0.0
C58 C 0.06118 0.3816 0.2872 0.0
Co59 Co 0.68843 0.16921 0.1745 0.0
Co60 Co 0.74312 0.09977 0.21019 0.0
O61 O 0.68417 0.10672 0.20414 0.0
C62 C 0.57619 0.11893 0.22875 0.0
O63 O 0.56949 0.08785 0.13394 0.0
C64 C 0.66018 0.00419 0.14867 0.0
O65 O 0.63643 0.0143 0.23836 0.0
O66 O 0.76835 0.13466 0.03321 0.0
O67 O 0.75217 0.19516 0.06389 0.0
H68 H 0.92384 0.16265 0.20598 0.0
H69 H 0.66884 0.08638 0.99086 0.0
O70 O 0.6206 0.14647 0.27365 0.0
H71 H 0.58691 0.1651 0.77316 0.0
H72 H 0.62362 0.27753 0.25514 0.0
H73 H 0.77027 0.26283 0.21432 0.0
H74 H 0.64203 0.20553 0.95511 0.0
H75 H 0.61914 0.20988 0.15001 0.0
O76 O 0.70377 0.03599 0.11572 0.0
H77 H 0.84746 0.16685 0.20562 0.0
H78 H 0.764 0.01465 0.15416 0.0
H79 H 0.77634 0.33188 0.33914 0.0
H80 H 0.61722 0.04739 0.8032 0.0
H81 H 0.70389 0.34191 0.35943 0.0
H82 H 0.57717 0.08704 0.68696 0.0
O83 O 0.72691 0.1912 0.34793 0.0
H84 H 0.69299 0.09651 0.67767 0.0
H85 H 0.73856 0.01002 0.35499 0.0
H86 H 0.73727 0.9911 0.58686 0.0
H87 H 0.71698 0.03683 0.75448 0.0
H88 H 0.69017 0.11063 0.44315 0.0
H89 H 0.83806 0.00811 0.14691 0.0
H90 H 0.91943 0.08213 0.17785 0.0
O91 O 0.78066 0.16421 0.31565 0.0
C92 C 0.77495 0.17671 1.00064 0.0
C93 C 0.88878 0.1296 0.20034 0.0
C94 C 0.84068 0.04311 0.16696 0.0
N95 N 0.80082 0.09088 0.20517 0.0
C96 C 0.8455 0.13194 0.20649 0.0
C97 C 0.79835 0.04721 0.17391 0.0
C98 C 0.88625 0.0846 0.18338 0.0
C99 C 0.64965 0.10368 0.95075 0.0
N100 N 0.65378 0.14591 1.00314 0.0
C101 C 0.62077 0.08119 0.84031 0.0
C102 C 0.59799 0.10323 0.77588 0.0
C103 C 0.60399 0.14715 0.82361 0.0
C104 C 0.63394 0.16919 0.9332 0.0
C105 C 0.65723 0.2766 0.24794 0.0
C106 C 0.73937 0.26875 0.21367 0.0
C107 C 0.65492 0.23785 0.18066 0.0
N108 N 0.69542 0.23311 0.16625 0.0
C109 C 0.74264 0.30706 0.289 0.0
C110 C 0.70125 0.31132 0.305 0.0
C111 C 0.76705 0.19156 0.37766 0.0
C112 C 0.703 0.07721 0.60753 0.0
C113 C 0.73057 0.03086 0.42346 0.0
C114 C 0.72871 0.01897 0.55683 0.0
C115 C 0.71687 0.04396 0.65009 0.0
N116 N 0.72191 0.0674 0.38332 0.0
C117 C 0.7033 0.08648 0.47311 0.0
Co118 Co 0.64222 0.75711 0.44049 0.0
Co119 Co 0.51932 0.68877 0.39306 0.0
O120 O 0.58237 0.69372 0.41122 0.0
C121 C 0.67513 0.70764 0.25028 0.0
O122 O 0.63706 0.69801 0.17673 0.0
C123 C 0.44684 0.57613 0.44534 0.0
O124 O 0.44172 0.56625 0.31857 0.0
O125 O 0.53076 0.72455 0.57075 0.0
O126 O 0.6065 0.78624 0.5384 0.0
H127 H 0.42703 0.76875 0.52291 0.0
H128 H 0.61619 0.65728 0.53426 0.0
O129 O 0.68225 0.73102 0.35699 0.0
H130 H 0.67433 0.75805 0.93301 0.0
H131 H 0.8201 0.86112 0.56874 0.0
H132 H 0.67445 0.86087 0.38605 0.0
H133 H 0.68012 0.79734 0.71348 0.0
H134 H 0.7427 0.78383 0.53787 0.0
O135 O 0.47927 0.61987 0.49005 0.0
H136 H 0.49959 0.766 0.44401 0.0
H137 H 0.41322 0.62026 0.33048 0.0
H138 H 0.75119 0.93921 0.41374 0.0
H139 H 0.5924 0.61868 0.75072 0.0
H140 H 0.82454 0.93973 0.50814 0.0
H141 H 0.62634 0.66835 0.95043 0.0
O142 O 0.63124 0.78321 0.26247 0.0
H143 H 0.54876 0.57413 0.11903 0.0
H144 H 0.48402 0.68881 0.11231 0.0
H145 H 0.49126 0.64939 0.90107 0.0
H146 H 0.52084 0.59148 0.90727 0.0
H147 H 0.54417 0.614 0.32107 0.0
H148 H 0.33972 0.62032 0.39458 0.0
H149 H 0.34688 0.69511 0.50442 0.0
O150 O 0.55009 0.75154 0.28255 0.0
C151 C 0.56651 0.76637 0.60433 0.0
C152 C 0.42353 0.73615 0.47711 0.0
C153 C 0.3744 0.65313 0.4059 0.0
N154 N 0.46038 0.69226 0.38213 0.0
C155 C 0.46415 0.73439 0.43104 0.0
C156 C 0.4161 0.6527 0.36615 0.0
C157 C 0.37855 0.69459 0.46733 0.0
C158 C 0.62662 0.68053 0.62027 0.0
N159 N 0.64834 0.73028 0.60914 0.0
C160 C 0.6144 0.65798 0.74319 0.0
C161 C 0.63267 0.68609 0.85578 0.0
C162 C 0.65937 0.7366 0.84478 0.0
C163 C 0.66445 0.75835 0.72053 0.0
C164 C 0.78818 0.86153 0.52959 0.0
C165 C 0.70602 0.86098 0.42806 0.0
C166 C 0.74413 0.81787 0.51235 0.0
N167 N 0.70324 0.81812 0.46597 0.0
C168 C 0.74948 0.90537 0.44306 0.0
C169 C 0.79068 0.90559 0.49538 0.0
C170 C 0.59037 0.77958 0.22206 0.0
C171 C 0.53435 0.59907 0.11572 0.0
C172 C 0.49736 0.66316 0.11323 0.0
C173 C 0.50095 0.64133 0.99542 0.0
C174 C 0.51876 0.60879 0.99752 0.0
N175 N 0.51261 0.65329 0.22921 0.0
C176 C 0.53192 0.62238 0.22992 0.0
Co177 Co 0.80912 0.5158 0.54093 0.0
Co178 Co 0.883 0.63619 0.57801 0.0
O179 O 0.87384 0.57001 0.55035 0.0
C180 C 0.85114 0.44527 0.59263 0.0
O181 O 0.87617 0.45679 0.48226 0.0
C182 C 0.96757 0.68413 0.393 0.0
O183 O 0.94249 0.69979 0.32457 0.0
O184 O 0.849 0.63165 0.39882 0.0
O185 O 0.78686 0.55644 0.43177 0.0
H186 H 0.83838 0.76827 0.54324 0.0
H187 H 0.88073 0.56855 0.32472 0.0
O188 O 0.83078 0.47029 0.63507 0.0
H189 H 0.80428 0.39616 0.19797 0.0
H190 H 0.6693 0.35485 0.67273 0.0
H191 H 0.72283 0.52383 0.5692 0.0
H192 H 0.76671 0.42169 0.3715 0.0
H193 H 0.75165 0.40492 0.58557 0.0
O194 O 0.94907 0.65846 0.49584 0.0
H195 H 0.82483 0.68376 0.53165 0.0
H196 H 0.97183 0.73331 0.64427 0.0
H197 H 0.6437 0.4742 0.6642 0.0
H198 H 0.9197 0.54274 0.16023 0.0
H199 H 0.6114 0.38529 0.66575 0.0
H200 H 0.88088 0.45655 0.09157 0.0
O201 O 0.79612 0.53582 0.71939 0.0
H202 H 0.93578 0.56491 0.94345 0.0
H203 H 0.89549 0.69244 0.83168 0.0
H204 H 0.92214 0.68835 0.05644 0.0
H205 H 0.93666 0.62135 0.11815 0.0
H206 H 0.92731 0.58086 0.71418 0.0
H207 H 0.98716 0.81832 0.65646 0.0
H208 H 0.92019 0.83588 0.60758 0.0
O209 O 0.81827 0.61316 0.67716 0.0
C210 C 0.80579 0.59696 0.368 0.0
C211 C 0.86768 0.76079 0.56711 0.0
C212 C 0.95139 0.78887 0.62992 0.0
N213 N 0.89657 0.7034 0.59231 0.0
C214 C 0.85995 0.71315 0.56191 0.0
C215 C 0.94241 0.74077 0.62255 0.0
C216 C 0.91367 0.79879 0.60255 0.0
C217 C 0.86331 0.53026 0.30086 0.0
N218 N 0.82306 0.4962 0.36916 0.0
C219 C 0.8854 0.5163 0.20373 0.0
C220 C 0.86433 0.46766 0.16793 0.0
C221 C 0.8213 0.43367 0.22916 0.0
C222 C 0.79991 0.44877 0.32668 0.0
C223 C 0.68163 0.39151 0.64608 0.0
C224 C 0.71144 0.48578 0.58064 0.0
C225 C 0.72771 0.42023 0.59264 0.0
N226 N 0.74153 0.46658 0.55255 0.0
C227 C 0.66657 0.45837 0.64056 0.0
C228 C 0.64967 0.40952 0.65657 0.0
C229 C 0.79537 0.57469 0.74912 0.0
C230 C 0.92822 0.59398 0.91912 0.0
C231 C 0.90852 0.66719 0.85113 0.0
C232 C 0.92055 0.66323 0.98159 0.0
C233 C 0.92867 0.62532 0.0165 0.0
N234 N 0.91087 0.6382 0.75335 0.0
C235 C 0.92252 0.603 0.78724 0.0
Co236 Co 0.29526 0.81538 0.6745 0.0
Co237 Co 0.24058 0.88482 0.71013 0.0
O238 O 0.29953 0.87787 0.70412 0.0
C239 C 0.4075 0.86566 0.72874 0.0
O240 O 0.4142 0.89674 0.63394 0.0
C241 C 0.32353 0.98039 0.64865 0.0
O242 O 0.34727 0.97028 0.73837 0.0
O243 O 0.21535 0.84993 0.53315 0.0
O244 O 0.23153 0.78942 0.56388 0.0
H245 H 0.05986 0.82195 0.7059 0.0
H246 H 0.31486 0.8982 0.49084 0.0
O247 O 0.3631 0.83811 0.77365 0.0
H248 H 0.39679 0.81949 0.27321 0.0
H249 H 0.36008 0.70706 0.75521 0.0
H250 H 0.21343 0.72175 0.71434 0.0
H251 H 0.34165 0.77904 0.45512 0.0
H252 H 0.36455 0.7747 0.65003 0.0
O253 O 0.27994 0.94859 0.61567 0.0
H254 H 0.13623 0.81774 0.70557 0.0
H255 H 0.2197 0.96994 0.65404 0.0
H256 H 0.20736 0.6527 0.83919 0.0
H257 H 0.36649 0.9372 0.3032 0.0
H258 H 0.27982 0.64268 0.85951 0.0
H259 H 0.40653 0.89755 0.187 0.0
O260 O 0.25678 0.79339 0.84793 0.0
H261 H 0.29072 0.88807 0.17764 0.0
H262 H 0.24514 0.97456 0.8549 0.0
H263 H 0.24644 -0.00651 0.08676 0.0
H264 H 0.26673 0.94775 0.25441 0.0
H265 H 0.29353 0.87395 0.94313 0.0
H266 H 0.14564 0.97648 0.64675 0.0
H267 H 0.06428 0.90247 0.67772 0.0
O268 O 0.20304 0.82037 0.8156 0.0
C269 C 0.20875 0.80788 0.5006 0.0
C270 C 0.09493 0.85499 0.70024 0.0
C271 C 0.14302 0.94149 0.66682 0.0
N272 N 0.18288 0.89371 0.70508 0.0
C273 C 0.1382 0.85265 0.70641 0.0
C274 C 0.18535 0.93738 0.67378 0.0
C275 C 0.09745 0.9 0.68325 0.0
C276 C 0.33405 0.8809 0.45074 0.0
N277 N 0.32991 0.83867 0.50314 0.0
C278 C 0.36293 0.9034 0.34031 0.0
C279 C 0.38572 0.88135 0.27591 0.0
C280 C 0.37971 0.83743 0.32364 0.0
C281 C 0.34975 0.81539 0.43322 0.0
C282 C 0.32648 0.70798 0.748 0.0
C283 C 0.24433 0.71583 0.7137 0.0
C284 C 0.32878 0.74673 0.68069 0.0
N285 N 0.28827 0.75148 0.66627 0.0
C286 C 0.24106 0.67753 0.78904 0.0
C287 C 0.28245 0.67327 0.80506 0.0
C288 C 0.21665 0.79303 0.87763 0.0
C289 C 0.28071 0.90737 0.10749 0.0
C290 C 0.25312 0.95372 0.92338 0.0
C291 C 0.25499 0.96562 0.05675 0.0
C292 C 0.26684 0.94062 0.15003 0.0
N293 N 0.26179 0.91718 0.88327 0.0
C294 C 0.2804 0.8981 0.97307 0.0
Co295 Co 0.34149 0.22746 0.94042 0.0
Co296 Co 0.46438 0.29582 0.893 0.0
O297 O 0.40133 0.29086 0.91114 0.0
C298 C 0.30857 0.27694 0.75026 0.0
O299 O 0.34665 0.28659 0.67672 0.0
C300 C 0.53686 0.40847 0.94526 0.0
O301 O 0.54198 0.41834 0.81849 0.0
O302 O 0.45296 0.26004 0.0707 0.0
O303 O 0.37722 0.19834 0.03832 0.0
H304 H 0.55669 0.21585 0.02287 0.0
H305 H 0.36751 0.32729 0.03418 0.0
O306 O 0.30144 0.25354 0.85693 0.0
H307 H 0.30937 0.22652 0.43293 0.0
H308 H 0.16361 0.12343 0.06868 0.0
H309 H 0.30926 0.12371 0.88594 0.0
H310 H 0.3036 0.18723 0.21342 0.0
H311 H 0.24101 0.20073 0.03782 0.0
O312 O 0.50444 0.36472 0.98998 0.0
H313 H 0.48412 0.2186 0.94398 0.0
H314 H 0.57049 0.36434 0.83041 0.0
H315 H 0.23253 0.04537 0.9136 0.0
H316 H 0.3913 0.36589 0.25063 0.0
H317 H 0.15918 0.04483 1.00802 0.0
H318 H 0.35735 0.31621 0.45034 0.0
O319 O 0.35247 0.20137 0.7624 0.0
H320 H 0.43493 0.41046 0.6189 0.0
H321 H 0.49969 0.29579 0.61227 0.0
H322 H 0.49245 0.33521 0.40101 0.0
H323 H 0.46286 0.39311 0.40717 0.0
H324 H 0.43953 0.37058 0.82096 0.0
H325 H 0.64399 0.36428 0.89452 0.0
H326 H 0.63684 0.28949 1.00437 0.0
O327 O 0.43362 0.23305 0.7825 0.0
C328 C 0.41721 0.21822 0.10428 0.0
C329 C 0.56018 0.24845 0.97707 0.0
C330 C 0.60931 0.33146 0.90584 0.0
N331 N 0.52333 0.29234 0.88209 0.0
C332 C 0.51957 0.25021 0.93101 0.0
C333 C 0.56761 0.3319 0.86609 0.0
C334 C 0.60516 0.29001 0.96728 0.0
C335 C 0.35708 0.30404 0.12019 0.0
N336 N 0.33537 0.25429 0.10907 0.0
C337 C 0.36929 0.32659 0.24311 0.0
C338 C 0.35103 0.29847 0.35569 0.0
C339 C 0.32433 0.24796 0.34471 0.0
C340 C 0.31927 0.22622 0.22046 0.0
C341 C 0.19553 0.12302 0.02951 0.0
C342 C 0.2777 0.1236 0.92796 0.0
C343 C 0.23958 0.16669 0.01229 0.0
N344 N 0.28047 0.16645 0.9659 0.0
C345 C 0.23424 0.07921 0.94295 0.0
C346 C 0.19304 0.07897 0.99528 0.0
C347 C 0.39334 0.205 0.722 0.0
C348 C 0.44935 0.38552 0.61561 0.0
C349 C 0.48634 0.32143 0.61318 0.0
C350 C 0.48276 0.34326 0.49535 0.0
C351 C 0.46494 0.3758 0.49743 0.0
N352 N 0.47109 0.3313 0.72914 0.0
C353 C 0.45178 0.36221 0.72983 0.0
Co354 Co 0.50411 0.81212 0.9294 0.0
Co355 Co 0.6274 0.8848 0.89021 0.0
O356 O 0.56066 0.87603 0.90757 0.0
C357 C 0.45358 0.86468 0.77666 0.0
O358 O 0.49627 0.90288 0.74964 0.0
C359 C 0.63716 0.95531 0.09175 0.0
O360 O 0.59913 0.91926 0.14952 0.0
O361 O 0.62213 0.84862 0.06348 0.0
O362 O 0.5447 0.78923 0.04066 0.0
H363 H 0.75945 0.83986 0.92882 0.0
H364 H 0.49902 0.90091 0.99102 0.0
O365 O 0.45298 0.82743 0.83284 0.0
H366 H 0.49689 0.83248 0.42448 0.0
H367 H 0.3321 0.68531 0.02541 0.0
H368 H 0.4898 0.71667 0.85282 0.0
H369 H 0.48866 0.78381 0.21766 0.0
H370 H 0.40349 0.76762 0.04278 0.0
O371 O 0.65473 0.94787 0.98746 0.0
H372 H 0.67519 0.82691 0.94364 0.0
H373 H 0.72323 0.97045 0.81269 0.0
H374 H 0.41798 0.6357 0.82277 0.0
H375 H 0.50164 0.94587 0.18771 0.0
H376 H 0.33925 0.61911 0.91298 0.0
H377 H 0.50069 0.91127 0.40796 0.0
O378 O 0.52192 0.79132 0.75529 0.0
H379 H 0.58357 0.98726 0.61023 0.0
H380 H 0.65572 0.87929 0.61184 0.0
H381 H 0.63291 0.90201 0.39839 0.0
H382 H 0.59375 0.95329 0.40059 0.0
H383 H 0.60494 0.96257 0.81914 0.0
H384 H 0.80846 0.98607 0.79544 0.0
H385 H 0.82686 0.92015 0.85216 0.0
O386 O 0.60277 0.8219 0.78486 0.0
C387 C 0.58638 0.8075 0.10078 0.0
C388 C 0.75194 0.86867 0.90089 0.0
C389 C 0.77925 0.95059 0.8254 0.0
N390 N 0.69396 0.8967 0.87141 0.0
C391 C 0.70424 0.86117 0.90817 0.0
C392 C 0.73094 0.94147 0.83373 0.0
C393 C 0.78965 0.91369 0.85816 0.0
C394 C 0.49418 0.88285 0.08371 0.0
N395 N 0.49089 0.83779 0.09125 0.0
C396 C 0.49769 0.90982 0.19632 0.0
C397 C 0.4977 0.89071 0.31937 0.0
C398 C 0.49459 0.84529 0.32785 0.0
C399 C 0.4902 0.81857 0.21219 0.0
C400 C 0.36743 0.69132 0.9962 0.0
C401 C 0.45519 0.71032 0.8908 0.0
C402 C 0.40756 0.73808 1.00302 0.0
N403 N 0.45072 0.74703 0.94945 0.0
C404 C 0.41521 0.6638 0.87724 0.0
C405 C 0.37113 0.65426 0.93091 0.0
C406 C 0.56292 0.79427 0.72209 0.0
C407 C 0.59991 0.96397 0.60947 0.0
C408 C 0.64059 0.90342 0.61093 0.0
C409 C 0.6277 0.91594 0.49085 0.0
C410 C 0.60622 0.94542 0.49127 0.0
N411 N 0.63091 0.91874 0.72731 0.0
C412 C 0.61284 0.9504 0.72732 0.0
Co413 Co 0.68925 0.51965 0.08122 0.0
Co414 Co 0.74412 0.64105 0.02732 0.0
O415 O 0.68662 0.57742 0.05186 0.0
C416 C 0.57689 0.44551 0.03122 0.0
O417 O 0.56731 0.44232 0.15733 0.0
C418 C 0.71032 0.69187 0.21095 0.0
O419 O 0.75027 0.70527 0.28071 0.0
O420 O 0.77179 0.6344 0.20894 0.0
O421 O 0.75231 0.55622 0.18725 0.0
H422 H 0.922 0.76734 0.06069 0.0
H423 H 0.63563 0.56789 0.21379 0.0
O424 O 0.62102 0.47589 0.9853 0.0
H425 H 0.59221 0.42226 0.47733 0.0
H426 H 0.64368 0.34658 0.17241 0.0
H427 H 0.77212 0.50629 0.02786 0.0
H428 H 0.66669 0.45676 0.33936 0.0
H429 H 0.62571 0.41086 0.15316 0.0
O430 O 0.70253 0.66648 0.10712 0.0
H431 H 0.84939 0.68432 0.07278 0.0
H432 H 0.75623 0.74 0.96331 0.0
H433 H 0.78332 0.436 0.98908 0.0
H434 H 0.57635 0.54598 0.38642 0.0
H435 H 0.72242 0.35595 0.07871 0.0
H436 H 0.55098 0.47057 0.51629 0.0
O437 O 0.72731 0.53522 0.90497 0.0
H438 H 0.6262 0.56622 0.64836 0.0
H439 H 0.7882 0.69992 0.77362 0.0
H440 H 0.75964 0.69419 0.54638 0.0
H441 H 0.68188 0.62291 0.47785 0.0
H442 H 0.64612 0.58378 0.87944 0.0
H443 H 0.82714 0.82359 0.9521 0.0
H444 H 0.91076 0.83747 0.99883 0.0
O445 O 0.7828 0.61451 0.93433 0.0
C446 C 0.77643 0.59748 0.24598 0.0
C447 C 0.88582 0.76159 0.0378 0.0
C448 C 0.83249 0.7932 0.97769 0.0
N449 N 0.79936 0.70708 0.01335 0.0
C450 C 0.84498 0.71473 0.04306 0.0
C451 C 0.79252 0.74583 0.98478 0.0
C452 C 0.87945 0.80098 1.00375 0.0
C453 C 0.62977 0.53723 0.27309 0.0
N454 N 0.6528 0.51011 0.25007 0.0
C455 C 0.59435 0.52454 0.37159 0.0
C456 C 0.58015 0.48243 0.44431 0.0
C457 C 0.6042 0.45599 0.4243 0.0
C458 C 0.64447 0.47395 0.33834 0.0
C459 C 0.67224 0.38071 0.13802 0.0
C460 C 0.74258 0.47055 0.05356 0.0
C461 C 0.66197 0.41831 0.12836 0.0
N462 N 0.6982 0.46378 0.09654 0.0
C463 C 0.75013 0.43119 0.03543 0.0
C464 C 0.71577 0.38634 0.08561 0.0
C465 C 0.76644 0.57471 0.86863 0.0
C466 C 0.66136 0.59668 0.67642 0.0
C467 C 0.75075 0.67335 0.75227 0.0
C468 C 0.73623 0.66839 0.61983 0.0
C469 C 0.69236 0.62846 0.58097 0.0
N470 N 0.7194 0.64344 0.84852 0.0
C471 C 0.67396 0.60665 0.80979 0.0
Co472 Co 0.10082 0.75129 0.16277 0.0
Co473 Co 0.16248 0.68945 0.21696 0.0
O474 O 0.10229 0.69014 0.19309 0.0
C475 C 0.0182 0.69831 0.35408 0.0
O476 O 0.0456 0.68672 0.42618 0.0
C477 C 0.13639 0.58108 0.1729 0.0
O478 O 0.13959 0.57631 0.30018 0.0
O479 O 0.18617 0.72527 0.03756 0.0
O480 O 0.16422 0.78246 0.06035 0.0
H481 H 0.33838 0.77299 0.12242 0.0
H482 H 0.03318 0.6483 0.07086 0.0
O483 O 0.03526 0.72312 0.24994 0.0
H484 H 0.0649 0.74848 0.67363 0.0
H485 H 0.01423 0.84555 0.05003 0.0
H486 H 0.17056 0.85729 0.18838 0.0
H487 H 0.09427 0.78822 0.89404 0.0
H488 H 0.02068 0.77137 0.08067 0.0
O489 O 0.13947 0.62114 0.12275 0.0
H490 H 0.25916 0.7658 0.14194 0.0
H491 H 0.20893 0.63888 0.37804 0.0
H492 H 0.16486 0.93244 0.16325 0.0
H493 H 0.01992 0.61039 0.8541 0.0
H494 H 0.08699 0.92703 0.09061 0.0
H495 H 0.03073 0.65935 0.65504 0.0
O496 O 0.13877 0.78092 0.33882 0.0
H497 H 0.02085 0.56153 0.4726 0.0
H498 H 0.19057 0.69754 0.50641 0.0
H499 H 0.14398 0.65314 0.71201 0.0
H500 H 0.0608 0.58431 0.69218 0.0
H501 H 0.0663 0.60654 0.27614 0.0
H502 H 0.28741 0.64576 0.36593 0.0
H503 H 0.35653 0.71669 0.24721 0.0
O504 O 0.19109 0.75246 0.32151 0.0
C505 C 0.18696 0.76457 0.99736 0.0
C506 C 0.31031 0.74323 0.17894 0.0
C507 C 0.28217 0.67273 0.31736 0.0
N508 N 0.2261 0.69664 0.24192 0.0
C509 C 0.26383 0.73696 0.18354 0.0
C510 C 0.2357 0.66656 0.316 0.0
C511 C 0.32001 0.71161 0.24976 0.0
C512 C 0.04377 0.67174 0.9852 0.0
N513 N 0.06723 0.72159 0.99672 0.0
C514 C 0.03458 0.64943 0.86193 0.0
C515 C 0.04123 0.67712 0.7498 0.0
C516 C 0.06028 0.72718 0.76151 0.0
C517 C 0.07518 0.74918 0.88603 0.0
C518 C 0.0487 0.84853 0.08044 0.0
C519 C 0.1364 0.85466 0.1572 0.0
C520 C 0.05263 0.80662 0.09836 0.0
N521 N 0.09636 0.81005 0.13435 0.0
C522 C 0.13348 0.89729 0.1427 0.0
C523 C 0.08951 0.89418 0.10293 0.0
C524 C 0.17733 0.77959 0.37963 0.0
C525 C 0.05825 0.59107 0.48198 0.0
C526 C 0.15384 0.66753 0.50062 0.0
C527 C 0.12813 0.64282 0.61503 0.0
C528 C 0.08052 0.60402 0.60483 0.0
N529 N 0.13252 0.65356 0.37982 0.0
C530 C 0.08449 0.6169 0.37094 0.0
Co531 Co 0.4796 0.17247 0.42941 0.0
Co532 Co 0.35631 0.09979 0.39018 0.0
O533 O 0.42306 0.10855 0.40758 0.0
C534 C 0.53013 0.11991 0.2767 0.0
O535 O 0.48743 0.08171 0.24969 0.0
C536 C 0.34655 0.02928 0.59174 0.0
O537 O 0.38458 0.06532 0.64953 0.0
O538 O 0.36158 0.13596 0.56344 0.0
O539 O 0.43901 0.19536 0.54064 0.0
H540 H 0.22424 0.1447 0.42879 0.0
H541 H 0.4847 0.08368 0.49108 0.0
O542 O 0.53073 0.15716 0.33287 0.0
H543 H 0.48681 0.15211 0.9245 0.0
H544 H 0.65162 0.29928 0.52534 0.0
H545 H 0.4939 0.26792 0.35284 0.0
H546 H 0.49506 0.20079 0.71765 0.0
H547 H 0.58022 0.21697 0.54276 0.0
O548 O 0.32898 0.03672 0.48744 0.0
H549 H 0.3085 0.15766 0.44364 0.0
H550 H 0.26049 0.01414 0.31256 0.0
H551 H 0.56572 0.34888 0.32273 0.0
H552 H 0.48206 0.03871 0.6878 0.0
H553 H 0.64446 0.36547 0.4129 0.0
H554 H 0.483 0.07331 0.90803 0.0
O555 O 0.46179 0.19327 0.25528 0.0
H556 H 0.40013 -0.00269 0.11029 0.0
H557 H 0.328 0.1053 0.11178 0.0
H558 H 0.3508 0.08257 0.89836 0.0
H559 H 0.38995 0.03128 0.90062 0.0
H560 H 0.37877 0.02201 0.31917 0.0
H561 H 0.17526 -0.00149 0.29527 0.0
H562 H 0.15684 0.06441 0.35204 0.0
O563 O 0.38095 0.16269 0.28482 0.0
C564 C 0.39733 0.17709 0.60074 0.0
C565 C 0.23176 0.11589 0.40084 0.0
C566 C 0.20446 0.03399 0.32526 0.0
N567 N 0.28975 0.08788 0.37135 0.0
C568 C 0.27946 0.12341 0.40813 0.0
C569 C 0.25277 0.04312 0.33362 0.0
C570 C 0.19405 0.07088 0.35806 0.0
C571 C 0.48953 0.10174 0.58376 0.0
N572 N 0.49282 0.1468 0.59128 0.0
C573 C 0.48602 0.07477 0.69639 0.0
C574 C 0.486 0.09387 0.81942 0.0
C575 C 0.48911 0.1393 0.82788 0.0
C576 C 0.49351 0.16602 0.7122 0.0
C577 C 0.61629 0.29326 0.49614 0.0
C578 C 0.52851 0.27427 0.3908 0.0
C579 C 0.57615 0.2465 0.50299 0.0
N580 N 0.53299 0.23756 0.44945 0.0
C581 C 0.56849 0.32079 0.3772 0.0
C582 C 0.61258 0.33032 0.43084 0.0
C583 C 0.42079 0.19032 0.22206 0.0
C584 C 0.38379 0.02061 0.1095 0.0
C585 C 0.34313 0.08117 0.11089 0.0
C586 C 0.35601 0.06865 0.99083 0.0
C587 C 0.37749 0.03916 0.99128 0.0
N588 N 0.35281 0.06585 0.22729 0.0
C589 C 0.37087 0.03419 0.22733 0.0
Co590 Co 0.29445 0.46495 0.58126 0.0
Co591 Co 0.23958 0.34355 0.52737 0.0
O592 O 0.29708 0.40718 0.55192 0.0
C593 C 0.40681 0.53908 0.5313 0.0
O594 O 0.41639 0.54228 0.65741 0.0
C595 C 0.27337 0.29271 0.71096 0.0
O596 O 0.23343 0.27931 0.78071 0.0
O597 O 0.21191 0.35019 0.70898 0.0
O598 O 0.23139 0.42838 0.68728 0.0
H599 H 0.0617 0.21725 0.56069 0.0
H600 H 0.34809 0.41672 0.71383 0.0
O601 O 0.36268 0.5087 0.48536 0.0
H602 H 0.39148 0.56232 0.97742 0.0
H603 H 0.34003 0.63802 0.67248 0.0
H604 H 0.21158 0.47832 0.52785 0.0
H605 H 0.317 0.52782 0.83941 0.0
H606 H 0.358 0.57374 0.65322 0.0
O607 O 0.28117 0.31813 0.60716 0.0
H608 H 0.13431 0.30027 0.57284 0.0
H609 H 0.22747 0.24462 0.46328 0.0
H610 H 0.20038 0.54861 0.48909 0.0
H611 H 0.40736 0.43862 0.8865 0.0
H612 H 0.26128 0.62865 0.57876 0.0
H613 H 0.43272 0.51401 0.01639 0.0
O614 O 0.2564 0.44938 0.405 0.0
H615 H 0.35754 0.41839 0.14852 0.0
H616 H 0.1955 0.28473 0.27362 0.0
H617 H 0.22408 0.29047 0.0464 0.0
H618 H 0.30186 0.36173 0.97795 0.0
H619 H 0.33759 0.4008 0.37959 0.0
H620 H 0.15657 0.16102 0.452 0.0
H621 H 0.07295 0.14714 0.49875 0.0
O622 O 0.2009 0.37009 0.43437 0.0
C623 C 0.20727 0.38712 0.746 0.0
C624 C 0.09789 0.22301 0.53779 0.0
C625 C 0.15122 0.19142 0.47762 0.0
N626 N 0.18434 0.27752 0.51337 0.0
C627 C 0.13873 0.26986 0.54309 0.0
C628 C 0.19119 0.23878 0.48476 0.0
C629 C 0.10425 0.18363 0.5037 0.0
C630 C 0.35394 0.44737 0.77314 0.0
N631 N 0.3309 0.47448 0.75013 0.0
C632 C 0.38936 0.46006 0.87167 0.0
C633 C 0.40355 0.50216 0.9444 0.0
C634 C 0.37949 0.52859 0.92439 0.0
C635 C 0.33922 0.51063 0.8384 0.0
C636 C 0.31147 0.60389 0.63808 0.0
C637 C 0.24112 0.51406 0.55357 0.0
C638 C 0.32174 0.56629 0.62841 0.0
N639 N 0.28551 0.52082 0.59657 0.0
C640 C 0.23358 0.55342 0.53545 0.0
C641 C 0.26794 0.59826 0.58566 0.0
C642 C 0.21726 0.40989 0.36866 0.0
C643 C 0.32237 0.38793 0.17654 0.0
C644 C 0.23295 0.31129 0.2523 0.0
C645 C 0.24749 0.31625 0.11988 0.0
C646 C 0.29137 0.35618 0.08106 0.0
N647 N 0.26431 0.34117 0.34858 0.0
C648 C 0.30976 0.37795 0.3099 0.0
Co649 Co 0.88288 0.2333 0.66283 0.0
Co650 Co 0.82122 0.29514 0.71698 0.0
O651 O 0.88141 0.29444 0.69312 0.0
C652 C 0.9655 0.28627 0.85412 0.0
O653 O 0.9381 0.29787 0.92621 0.0
C654 C 0.84731 0.40352 0.67292 0.0
O655 O 0.84412 0.40829 0.8002 0.0
O656 O 0.79753 0.25932 0.53757 0.0
O657 O 0.81947 0.20213 0.56041 0.0
H658 H 0.64532 0.2116 0.62242 0.0
H659 H 0.95052 0.33628 0.57089 0.0
O660 O 0.94844 0.26146 0.74999 0.0
H661 H 0.91879 0.23611 0.1737 0.0
H662 H 0.96946 0.13903 0.55017 0.0
H663 H 0.81313 0.12729 0.6885 0.0
H664 H 0.88942 0.19636 0.39411 0.0
H665 H 0.963 0.21321 0.58075 0.0
O666 O 0.84423 0.36345 0.62277 0.0
H667 H 0.72454 0.21879 0.64196 0.0
H668 H 0.77477 0.34572 0.87801 0.0
H669 H 0.81883 0.05214 0.66345 0.0
H670 H 0.96377 0.37419 0.35413 0.0
H671 H 0.8967 0.05755 0.59081 0.0
H672 H 0.95296 0.32523 0.15508 0.0
O673 O 0.84492 0.20367 0.83888 0.0
H674 H 0.96285 0.42305 0.97264 0.0
H675 H 0.79313 0.28705 1.0064 0.0
H676 H 0.83972 0.33145 0.21201 0.0
H677 H 0.9229 0.40028 0.19219 0.0
H678 H 0.9174 0.37804 0.77617 0.0
H679 H 0.6963 0.33883 0.86588 0.0
H680 H 0.62717 0.2679 0.74718 0.0
O681 O 0.79261 0.23212 0.82152 0.0
C682 C 0.79674 0.22002 0.4974 0.0
C683 C 0.67339 0.24135 0.67894 0.0
C684 C 0.70154 0.31186 0.81732 0.0
N685 N 0.75761 0.28795 0.74192 0.0
C686 C 0.71988 0.24763 0.68354 0.0
C687 C 0.748 0.31803 0.81597 0.0
C688 C 0.6637 0.27298 0.74973 0.0
C689 C 0.93993 0.31284 0.48525 0.0
N690 N 0.91646 0.26299 0.49678 0.0
C691 C 0.94911 0.33515 0.36196 0.0
C692 C 0.94246 0.30746 0.24984 0.0
C693 C 0.92341 0.2574 0.26157 0.0
C694 C 0.90851 0.2354 0.38609 0.0
C695 C 0.93498 0.13605 0.58057 0.0
C696 C 0.84729 0.12992 0.65732 0.0
C697 C 0.93105 0.17796 0.59846 0.0
N698 N 0.88733 0.17453 0.63444 0.0
C699 C 0.85021 0.08729 0.64287 0.0
C700 C 0.89418 0.0904 0.6031 0.0
C701 C 0.80637 0.205 0.87967 0.0
C702 C 0.92545 0.39351 0.98201 0.0
C703 C 0.82986 0.31706 1.00063 0.0
C704 C 0.85557 0.34177 0.11504 0.0
C705 C 0.90318 0.38057 0.10485 0.0
N706 N 0.85119 0.33102 0.87984 0.0
C707 C 0.89922 0.36768 0.87097 0.0
loop_
_geom_bond_atom_site_label_1
_geom_bond_atom_site_label_2
_geom_bond_distance
_geom_bond_site_symmetry_2
_ccdc_geom_bond_type
Co0 O2 2.143 . S
Co0 O8 2.074 1_554 S
Co0 O11 2.093 . S
Co0 O24 2.097 . S
Co0 N41 2.151 1_554 S
Co0 N49 2.214 . S
Co1 O2 2.160 . S
Co1 O7 2.058 1_554 S
Co1 O17 2.057 1_554 S
Co1 O32 2.037 . S
Co1 N36 2.145 . S
Co1 N57 2.257 . S
O2 Co0 2.143 . S
O2 Co1 2.160 . S
C3 O4 1.278 . S
C3 O11 1.224 . S
O4 C3 1.278 . S
C5 O6 1.245 . S
C5 O17 1.232 . S
O6 C5 1.245 . S
O7 Co1 2.058 1_556 S
O7 C33 1.269 . S
O8 Co0 2.074 1_556 S
O8 C33 1.257 . S
H9 C34 0.930 . S
H10 C40 0.930 . S
O11 Co0 2.093 . S
O11 C3 1.224 . S
H12 C44 0.929 . S
H13 C46 0.930 . S
H14 C47 0.930 . S
H15 C45 0.929 . S
H16 C48 0.928 . S
O17 Co1 2.057 1_556 S
O17 C5 1.232 . S
H18 C37 0.929 . S
H19 C38 0.929 . S
H20 C50 0.931 . S
H21 C42 0.929 . S
H22 C51 0.930 . S
H23 C43 0.931 . S
O24 Co0 2.097 . S
O24 C52 1.214 . S
H25 C53 0.929 1_655 S
H26 C54 0.929 . S
H27 C55 0.930 . S
H28 C56 0.929 1_655 S
H29 C58 0.930 . S
H30 C35 0.930 1_655 S
H31 C39 0.930 . S
O32 Co1 2.037 . S
O32 C52 1.234 . S
C33 O7 1.269 . S
C33 O8 1.257 . S
C34 H9 0.930 . S
C34 C37 1.388 . S
C34 C39 1.418 . S
C35 H30 0.930 1_455 S
C35 C38 1.404 . S
C35 C39 1.353 . S
N36 Co1 2.145 . S
N36 C37 1.397 . S
N36 C38 1.334 . S
C37 H18 0.929 . S
C37 C34 1.388 . S
C37 N36 1.397 . S
C38 H19 0.929 . S
C38 C35 1.404 . S
C38 N36 1.334 . S
C39 H31 0.930 . S
C39 C34 1.418 . S
C39 C35 1.353 . S
C40 H10 0.930 . S
C40 N41 1.330 . S
C40 C42 1.446 . S
N41 Co0 2.151 1_556 S
N41 C40 1.330 . S
N41 C45 1.418 . S
C42 H21 0.929 . S
C42 C40 1.446 . S
C42 C43 1.332 . S
C43 H23 0.931 . S
C43 C42 1.332 . S
C43 C44 1.267 . S
C44 H12 0.929 . S
C44 C43 1.267 . S
C44 C45 1.251 . S
C45 H15 0.929 . S
C45 N41 1.418 . S
C45 C44 1.251 . S
C46 H13 0.930 . S
C46 C48 1.406 . S
C46 C51 1.261 . S
C47 H14 0.930 . S
C47 N49 1.325 . S
C47 C50 1.357 . S
C48 H16 0.928 . S
C48 C46 1.406 . S
C48 N49 1.261 . S
N49 Co0 2.214 . S
N49 C47 1.325 . S
N49 C48 1.261 . S
C50 H20 0.931 . S
C50 C47 1.357 . S
C50 C51 1.312 . S
C51 H22 0.930 . S
C51 C46 1.261 . S
C51 C50 1.312 . S
C52 O24 1.214 . S
C52 O32 1.234 . S
C53 H25 0.929 1_455 S
C53 C56 1.391 . S
C53 C58 1.391 . S
C54 H26 0.929 . S
C54 C55 1.390 . S
C54 N57 1.391 . S
C55 H27 0.930 . S
C55 C54 1.390 . S
C55 C56 1.392 . S
C56 H28 0.929 1_455 S
C56 C53 1.391 . S
C56 C55 1.392 . S
N57 Co1 2.257 . S
N57 C54 1.391 . S
N57 C58 1.388 . S
C58 H29 0.930 . S
C58 C53 1.391 . S
C58 N57 1.388 . S
Co59 O61 2.143 . S
Co59 O67 2.074 . S
Co59 O70 2.093 . S
Co59 O83 2.097 . S
Co59 N100 2.151 . S
Co59 N108 2.214 . S
Co60 O61 2.160 . S
Co60 O66 2.058 . S
Co60 O76 2.057 . S
Co60 O91 2.037 . S
Co60 N95 2.145 . S
Co60 N116 2.257 . S
O61 Co59 2.143 . S
O61 Co60 2.160 . S
C62 O63 1.278 . S
C62 O70 1.224 . S
O63 C62 1.278 . S
C64 O65 1.245 . S
C64 O76 1.232 . S
O65 C64 1.245 . S
O66 Co60 2.058 . S
O66 C92 1.269 . S
O67 Co59 2.074 . S
O67 C92 1.257 . S
H68 C93 0.930 . S
H69 C99 0.930 . S
O70 Co59 2.093 . S
O70 C62 1.224 . S
H71 C103 0.929 . S
H72 C105 0.930 . S
H73 C106 0.930 . S
H74 C104 0.929 . S
H75 C107 0.928 . S
O76 Co60 2.057 . S
O76 C64 1.232 . S
H77 C96 0.929 . S
H78 C97 0.929 . S
H79 C109 0.931 . S
H80 C101 0.929 . S
H81 C110 0.930 . S
H82 C102 0.931 . S
O83 Co59 2.097 . S
O83 C111 1.214 . S
H84 C112 0.929 1_565 S
H85 C113 0.929 . S
H86 C114 0.930 . S
H87 C115 0.929 1_565 S
H88 C117 0.930 . S
H89 C94 0.930 1_565 S
H90 C98 0.930 . S
O91 Co60 2.037 . S
O91 C111 1.234 . S
C92 O66 1.269 . S
C92 O67 1.257 . S
C93 H68 0.930 . S
C93 C96 1.388 . S
C93 C98 1.418 . S
C94 H89 0.930 1_545 S
C94 C97 1.404 . S
C94 C98 1.353 . S
N95 Co60 2.145 . S
N95 C96 1.397 . S
N95 C97 1.334 . S
C96 H77 0.929 . S
C96 C93 1.388 . S
C96 N95 1.397 . S
C97 H78 0.929 . S
C97 C94 1.404 . S
C97 N95 1.334 . S
C98 H90 0.930 . S
C98 C93 1.418 . S
C98 C94 1.353 . S
C99 H69 0.930 . S
C99 N100 1.330 . S
C99 C101 1.446 1_554 S
N100 Co59 2.151 . S
N100 C99 1.330 . S
N100 C104 1.418 1_554 S
C101 H80 0.929 . S
C101 C99 1.446 1_556 S
C101 C102 1.332 . S
C102 H82 0.931 . S
C102 C101 1.332 . S
C102 C103 1.267 . S
C103 H71 0.929 . S
C103 C102 1.267 . S
C103 C104 1.251 . S
C104 H74 0.929 . S
C104 N100 1.418 1_556 S
C104 C103 1.251 . S
C105 H72 0.930 . S
C105 C107 1.406 . S
C105 C110 1.261 . S
C106 H73 0.930 . S
C106 N108 1.325 . S
C106 C109 1.357 . S
C107 H75 0.928 . S
C107 C105 1.406 . S
C107 N108 1.261 . S
N108 Co59 2.214 . S
N108 C106 1.325 . S
N108 C107 1.261 . S
C109 H79 0.931 . S
C109 C106 1.357 . S
C109 C110 1.312 . S
C110 H81 0.930 . S
C110 C105 1.261 . S
C110 C109 1.312 . S
C111 O83 1.214 . S
C111 O91 1.234 . S
C112 H84 0.929 1_545 S
C112 C115 1.391 . S
C112 C117 1.391 . S
C113 H85 0.929 . S
C113 C114 1.390 . S
C113 N116 1.391 . S
C114 H86 0.930 . S
C114 C113 1.390 . S
C114 C115 1.392 . S
C115 H87 0.929 1_545 S
C115 C112 1.391 . S
C115 C114 1.392 . S
N116 Co60 2.257 . S
N116 C113 1.391 . S
N116 C117 1.388 . S
C117 H88 0.930 . S
C117 C112 1.391 . S
C117 N116 1.388 . S
Co118 O120 2.143 . S
Co118 O126 2.074 . S
Co118 O129 2.093 . S
Co118 O142 2.097 . S
Co118 N159 2.151 . S
Co118 N167 2.214 . S
Co119 O120 2.160 . S
Co119 O125 2.058 . S
Co119 O135 2.057 . S
Co119 O150 2.037 . S
Co119 N154 2.145 . S
Co119 N175 2.257 . S
O120 Co118 2.143 . S
O120 Co119 2.160 . S
C121 O122 1.278 . S
C121 O129 1.224 . S
O122 C121 1.278 . S
C123 O124 1.245 . S
C123 O135 1.232 . S
O124 C123 1.245 . S
O125 Co119 2.058 . S
O125 C151 1.269 . S
O126 Co118 2.074 . S
O126 C151 1.257 . S
H127 C152 0.930 . S
H128 C158 0.930 . S
O129 Co118 2.093 . S
O129 C121 1.224 . S
H130 C162 0.929 . S
H131 C164 0.930 . S
H132 C165 0.930 . S
H133 C163 0.929 . S
H134 C166 0.928 . S
O135 Co119 2.057 . S
O135 C123 1.232 . S
H136 C155 0.929 . S
H137 C156 0.929 . S
H138 C168 0.931 . S
H139 C160 0.929 . S
H140 C169 0.930 . S
H141 C161 0.931 . S
O142 Co118 2.097 . S
O142 C170 1.214 . S
H143 C171 0.929 . S
H144 C172 0.929 . S
H145 C173 0.930 . S
H146 C174 0.929 . S
H147 C176 0.930 . S
H148 C153 0.930 . S
H149 C157 0.930 . S
O150 Co119 2.037 . S
O150 C170 1.234 . S
C151 O125 1.269 . S
C151 O126 1.257 . S
C152 H127 0.930 . S
C152 C155 1.388 . S
C152 C157 1.418 . S
C153 H148 0.930 . S
C153 C156 1.404 . S
C153 C157 1.353 . S
N154 Co119 2.145 . S
N154 C155 1.397 . S
N154 C156 1.334 . S
C155 H136 0.929 . S
C155 C152 1.388 . S
C155 N154 1.397 . S
C156 H137 0.929 . S
C156 C153 1.404 . S
C156 N154 1.334 . S
C157 H149 0.930 . S
C157 C152 1.418 . S
C157 C153 1.353 . S
C158 H128 0.930 . S
C158 N159 1.330 . S
C158 C160 1.446 . S
N159 Co118 2.151 . S
N159 C158 1.330 . S
N159 C163 1.418 . S
C160 H139 0.929 . S
C160 C158 1.446 . S
C160 C161 1.332 . S
C161 H141 0.931 . S
C161 C160 1.332 . S
C161 C162 1.267 . S
C162 H130 0.929 . S
C162 C161 1.267 . S
C162 C163 1.251 . S
C163 H133 0.929 . S
C163 N159 1.418 . S
C163 C162 1.251 . S
C164 H131 0.930 . S
C164 C166 1.406 . S
C164 C169 1.261 . S
C165 H132 0.930 . S
C165 N167 1.325 . S
C165 C168 1.357 . S
C166 H134 0.928 . S
C166 C164 1.406 . S
C166 N167 1.261 . S
N167 Co118 2.214 . S
N167 C165 1.325 . S
N167 C166 1.261 . S
C168 H138 0.931 . S
C168 C165 1.357 . S
C168 C169 1.312 . S
C169 H140 0.930 . S
C169 C164 1.261 . S
C169 C168 1.312 . S
C170 O142 1.214 . S
C170 O150 1.234 . S
C171 H143 0.929 . S
C171 C174 1.391 1_554 S
C171 C176 1.391 . S
C172 H144 0.929 . S
C172 C173 1.390 1_554 S
C172 N175 1.391 . S
C173 H145 0.930 . S
C173 C172 1.390 1_556 S
C173 C174 1.392 . S
C174 H146 0.929 . S
C174 C171 1.391 1_556 S
C174 C173 1.392 . S
N175 Co119 2.257 . S
N175 C172 1.391 . S
N175 C176 1.388 . S
C176 H147 0.930 . S
C176 C171 1.391 . S
C176 N175 1.388 . S
Co177 O179 2.143 . S
Co177 O185 2.074 . S
Co177 O188 2.093 . S
Co177 O201 2.097 . S
Co177 N218 2.151 . S
Co177 N226 2.214 . S
Co178 O179 2.160 . S
Co178 O184 2.058 . S
Co178 O194 2.057 . S
Co178 O209 2.037 . S
Co178 N213 2.145 . S
Co178 N234 2.257 . S
O179 Co177 2.143 . S
O179 Co178 2.160 . S
C180 O181 1.278 . S
C180 O188 1.224 . S
O181 C180 1.278 . S
C182 O183 1.245 . S
C182 O194 1.232 . S
O183 C182 1.245 . S
O184 Co178 2.058 . S
O184 C210 1.269 . S
O185 Co177 2.074 . S
O185 C210 1.257 . S
H186 C211 0.930 . S
H187 C217 0.930 . S
O188 Co177 2.093 . S
O188 C180 1.224 . S
H189 C221 0.929 . S
H190 C223 0.930 . S
H191 C224 0.930 . S
H192 C222 0.929 . S
H193 C225 0.928 . S
O194 Co178 2.057 . S
O194 C182 1.232 . S
H195 C214 0.929 . S
H196 C215 0.929 . S
H197 C227 0.931 . S
H198 C219 0.929 . S
H199 C228 0.930 . S
H200 C220 0.931 . S
O201 Co177 2.097 . S
O201 C229 1.214 . S
H202 C230 0.929 1_455 S
H203 C231 0.929 . S
H204 C232 0.930 1_554 S
H205 C233 0.929 1_454 S
H206 C235 0.930 . S
H207 C212 0.930 1_455 S
H208 C216 0.930 . S
O209 Co178 2.037 . S
O209 C229 1.234 . S
C210 O184 1.269 . S
C210 O185 1.257 . S
C211 H186 0.930 . S
C211 C214 1.388 . S
C211 C216 1.418 . S
C212 H207 0.930 1_655 S
C212 C215 1.404 . S
C212 C216 1.353 . S
N213 Co178 2.145 . S
N213 C214 1.397 . S
N213 C215 1.334 . S
C214 H195 0.929 . S
C214 C211 1.388 . S
C214 N213 1.397 . S
C215 H196 0.929 . S
C215 C212 1.404 . S
C215 N213 1.334 . S
C216 H208 0.930 . S
C216 C211 1.418 . S
C216 C212 1.353 . S
C217 H187 0.930 . S
C217 N218 1.330 . S
C217 C219 1.446 . S
N218 Co177 2.151 . S
N218 C217 1.330 . S
N218 C222 1.418 . S
C219 H198 0.929 . S
C219 C217 1.446 . S
C219 C220 1.332 . S
C220 H200 0.931 . S
C220 C219 1.332 . S
C220 C221 1.267 . S
C221 H189 0.929 . S
C221 C220 1.267 . S
C221 C222 1.251 . S
C222 H192 0.929 . S
C222 N218 1.418 . S
C222 C221 1.251 . S
C223 H190 0.930 . S
C223 C225 1.406 . S
C223 C228 1.261 . S
C224 H191 0.930 . S
C224 N226 1.325 . S
C224 C227 1.357 . S
C225 H193 0.928 . S
C225 C223 1.406 . S
C225 N226 1.261 . S
N226 Co177 2.214 . S
N226 C224 1.325 . S
N226 C225 1.261 . S
C227 H197 0.931 . S
C227 C224 1.357 . S
C227 C228 1.312 . S
C228 H199 0.930 . S
C228 C223 1.261 . S
C228 C227 1.312 . S
C229 O201 1.214 . S
C229 O209 1.234 . S
C230 H202 0.929 1_655 S
C230 C233 1.391 . S
C230 C235 1.391 . S
C231 H203 0.929 . S
C231 C232 1.390 . S
C231 N234 1.391 . S
C232 H204 0.930 1_556 S
C232 C231 1.390 . S
C232 C233 1.392 . S
C233 H205 0.929 1_656 S
C233 C230 1.391 . S
C233 C232 1.392 . S
N234 Co178 2.257 . S
N234 C231 1.391 . S
N234 C235 1.388 . S
C235 H206 0.930 . S
C235 C230 1.391 . S
C235 N234 1.388 . S
Co236 O238 2.143 . S
Co236 O244 2.074 . S
Co236 O247 2.093 . S
Co236 O260 2.097 . S
Co236 N277 2.151 . S
Co236 N285 2.214 . S
Co237 O238 2.160 . S
Co237 O243 2.058 . S
Co237 O253 2.057 . S
Co237 O268 2.037 . S
Co237 N272 2.145 . S
Co237 N293 2.257 . S
O238 Co236 2.143 . S
O238 Co237 2.160 . S
C239 O240 1.278 . S
C239 O247 1.224 . S
O240 C239 1.278 . S
C241 O242 1.245 . S
C241 O253 1.232 . S
O242 C241 1.245 . S
O243 Co237 2.058 . S
O243 C269 1.269 . S
O244 Co236 2.074 . S
O244 C269 1.257 . S
H245 C270 0.930 . S
H246 C276 0.930 . S
O247 Co236 2.093 . S
O247 C239 1.224 . S
H248 C280 0.929 . S
H249 C282 0.930 . S
H250 C283 0.930 . S
H251 C281 0.929 . S
H252 C284 0.928 . S
O253 Co237 2.057 . S
O253 C241 1.232 . S
H254 C273 0.929 . S
H255 C274 0.929 . S
H256 C286 0.931 . S
H257 C278 0.929 . S
H258 C287 0.930 . S
H259 C279 0.931 . S
O260 Co236 2.097 . S
O260 C288 1.214 . S
H261 C289 0.929 1_545 S
H262 C290 0.929 . S
H263 C291 0.930 . S
H264 C292 0.929 1_545 S
H265 C294 0.930 . S
H266 C271 0.930 1_545 S
H267 C275 0.930 . S
O268 Co237 2.037 . S
O268 C288 1.234 . S
C269 O243 1.269 . S
C269 O244 1.257 . S
C270 H245 0.930 . S
C270 C273 1.388 . S
C270 C275 1.418 . S
C271 H266 0.930 1_565 S
C271 C274 1.404 . S
C271 C275 1.353 . S
N272 Co237 2.145 . S
N272 C273 1.397 . S
N272 C274 1.334 . S
C273 H254 0.929 . S
C273 C270 1.388 . S
C273 N272 1.397 . S
C274 H255 0.929 . S
C274 C271 1.404 . S
C274 N272 1.334 . S
C275 H267 0.930 . S
C275 C270 1.418 . S
C275 C271 1.353 . S
C276 H246 0.930 . S
C276 N277 1.330 . S
C276 C278 1.446 . S
N277 Co236 2.151 . S
N277 C276 1.330 . S
N277 C281 1.418 . S
C278 H257 0.929 . S
C278 C276 1.446 . S
C278 C279 1.332 . S
C279 H259 0.931 . S
C279 C278 1.332 . S
C279 C280 1.267 . S
C280 H248 0.929 . S
C280 C279 1.267 . S
C280 C281 1.251 . S
C281 H251 0.929 . S
C281 N277 1.418 . S
C281 C280 1.251 . S
C282 H249 0.930 . S
C282 C284 1.406 . S
C282 C287 1.261 . S
C283 H250 0.930 . S
C283 N285 1.325 . S
C283 C286 1.357 . S
C284 H252 0.928 . S
C284 C282 1.406 . S
C284 N285 1.261 . S
N285 Co236 2.214 . S
N285 C283 1.325 . S
N285 C284 1.261 . S
C286 H256 0.931 . S
C286 C283 1.357 . S
C286 C287 1.312 . S
C287 H258 0.930 . S
C287 C282 1.261 . S
C287 C286 1.312 . S
C288 O260 1.214 . S
C288 O268 1.234 . S
C289 H261 0.929 1_565 S
C289 C292 1.391 . S
C289 C294 1.391 1_554 S
C290 H262 0.929 . S
C290 C291 1.390 . S
C290 N293 1.391 1_554 S
C291 H263 0.930 . S
C291 C290 1.390 . S
C291 C292 1.392 . S
C292 H264 0.929 1_565 S
C292 C289 1.391 . S
C292 C291 1.392 . S
N293 Co237 2.257 . S
N293 C290 1.391 1_556 S
N293 C294 1.388 . S
C294 H265 0.930 . S
C294 C289 1.391 1_556 S
C294 N293 1.388 . S
Co295 O297 2.143 . S
Co295 O303 2.074 1_556 S
Co295 O306 2.093 . S
Co295 O319 2.097 . S
Co295 N336 2.151 1_556 S
Co295 N344 2.214 . S
Co296 O297 2.160 . S
Co296 O302 2.058 1_556 S
Co296 O312 2.057 . S
Co296 O327 2.037 . S
Co296 N331 2.145 . S
Co296 N352 2.257 . S
O297 Co295 2.143 . S
O297 Co296 2.160 . S
C298 O299 1.278 . S
C298 O306 1.224 . S
O299 C298 1.278 . S
C300 O301 1.245 . S
C300 O312 1.232 1_554 S
O301 C300 1.245 . S
O302 Co296 2.058 1_554 S
O302 C328 1.269 . S
O303 Co295 2.074 1_554 S
O303 C328 1.257 . S
H304 C329 0.930 . S
H305 C335 0.930 1_556 S
O306 Co295 2.093 . S
O306 C298 1.224 . S
H307 C339 0.929 . S
H308 C341 0.930 . S
H309 C342 0.930 . S
H310 C340 0.929 . S
H311 C343 0.928 . S
O312 Co296 2.057 . S
O312 C300 1.232 1_556 S
H313 C332 0.929 . S
H314 C333 0.929 . S
H315 C345 0.931 . S
H316 C337 0.929 . S
H317 C346 0.930 . S
H318 C338 0.931 . S
O319 Co295 2.097 . S
O319 C347 1.214 . S
H320 C348 0.929 . S
H321 C349 0.929 . S
H322 C350 0.930 . S
H323 C351 0.929 . S
H324 C353 0.930 . S
H325 C330 0.930 . S
H326 C334 0.930 . S
O327 Co296 2.037 . S
O327 C347 1.234 . S
C328 O302 1.269 . S
C328 O303 1.257 . S
C329 H304 0.930 . S
C329 C332 1.388 . S
C329 C334 1.418 . S
C330 H325 0.930 . S
C330 C333 1.404 . S
C330 C334 1.353 . S
N331 Co296 2.145 . S
N331 C332 1.397 . S
N331 C333 1.334 . S
C332 H313 0.929 . S
C332 C329 1.388 . S
C332 N331 1.397 . S
C333 H314 0.929 . S
C333 C330 1.404 . S
C333 N331 1.334 . S
C334 H326 0.930 . S
C334 C329 1.418 . S
C334 C330 1.353 . S
C335 H305 0.930 1_554 S
C335 N336 1.330 . S
C335 C337 1.446 . S
N336 Co295 2.151 1_554 S
N336 C335 1.330 . S
N336 C340 1.418 . S
C337 H316 0.929 . S
C337 C335 1.446 . S
C337 C338 1.332 . S
C338 H318 0.931 . S
C338 C337 1.332 . S
C338 C339 1.267 . S
C339 H307 0.929 . S
C339 C338 1.267 . S
C339 C340 1.251 . S
C340 H310 0.929 . S
C340 N336 1.418 . S
C340 C339 1.251 . S
C341 H308 0.930 . S
C341 C343 1.406 . S
C341 C346 1.261 . S
C342 H309 0.930 . S
C342 N344 1.325 . S
C342 C345 1.357 . S
C343 H311 0.928 . S
C343 C341 1.406 . S
C343 N344 1.261 . S
N344 Co295 2.214 . S
N344 C342 1.325 . S
N344 C343 1.261 . S
C345 H315 0.931 . S
C345 C342 1.357 . S
C345 C346 1.312 . S
C346 H317 0.930 . S
C346 C341 1.261 . S
C346 C345 1.312 . S
C347 O319 1.214 . S
C347 O327 1.234 . S
C348 H320 0.929 . S
C348 C351 1.391 . S
C348 C353 1.391 . S
C349 H321 0.929 . S
C349 C350 1.390 . S
C349 N352 1.391 . S
C350 H322 0.930 . S
C350 C349 1.390 . S
C350 C351 1.392 . S
C351 H323 0.929 . S
C351 C348 1.391 . S
C351 C350 1.392 . S
N352 Co296 2.257 . S
N352 C349 1.391 . S
N352 C353 1.388 . S
C353 H324 0.930 . S
C353 C348 1.391 . S
C353 N352 1.388 . S
Co354 O356 2.143 . S
Co354 O362 2.074 . S
Co354 O365 2.093 . S
Co354 O378 2.097 . S
Co354 N395 2.151 1_556 S
Co354 N403 2.214 . S
Co355 O356 2.160 . S
Co355 O361 2.058 1_556 S
Co355 O371 2.057 . S
Co355 O386 2.037 . S
Co355 N390 2.145 . S
Co355 N411 2.257 . S
O356 Co354 2.143 . S
O356 Co355 2.160 . S
C357 O358 1.278 . S
C357 O365 1.224 . S
O358 C357 1.278 . S
C359 O360 1.245 . S
C359 O371 1.232 1_554 S
O360 C359 1.245 . S
O361 Co355 2.058 1_554 S
O361 C387 1.269 . S
O362 Co354 2.074 . S
O362 C387 1.257 1_556 S
H363 C388 0.930 . S
H364 C394 0.930 . S
O365 Co354 2.093 . S
O365 C357 1.224 . S
H366 C398 0.929 . S
H367 C400 0.930 . S
H368 C401 0.930 . S
H369 C399 0.929 . S
H370 C402 0.928 . S
O371 Co355 2.057 . S
O371 C359 1.232 1_556 S
H372 C391 0.929 . S
H373 C392 0.929 . S
H374 C404 0.931 . S
H375 C396 0.929 . S
H376 C405 0.930 . S
H377 C397 0.931 . S
O378 Co354 2.097 . S
O378 C406 1.214 . S
H379 C407 0.929 1_545 S
H380 C408 0.929 . S
H381 C409 0.930 . S
H382 C410 0.929 1_545 S
H383 C412 0.930 . S
H384 C389 0.930 1_545 S
H385 C393 0.930 . S
O386 Co355 2.037 . S
O386 C406 1.234 . S
C387 O361 1.269 . S
C387 O362 1.257 1_554 S
C388 H363 0.930 . S
C388 C391 1.388 . S
C388 C393 1.418 . S
C389 H384 0.930 1_565 S
C389 C392 1.404 . S
C389 C393 1.353 . S
N390 Co355 2.145 . S
N390 C391 1.397 . S
N390 C392 1.334 . S
C391 H372 0.929 . S
C391 C388 1.388 . S
C391 N390 1.397 . S
C392 H373 0.929 . S
C392 C389 1.404 . S
C392 N390 1.334 . S
C393 H385 0.930 . S
C393 C388 1.418 . S
C393 C389 1.353 . S
C394 H364 0.930 . S
C394 N395 1.330 . S
C394 C396 1.446 . S
N395 Co354 2.151 1_554 S
N395 C394 1.330 . S
N395 C399 1.418 . S
C396 H375 0.929 . S
C396 C394 1.446 . S
C396 C397 1.332 . S
C397 H377 0.931 . S
C397 C396 1.332 . S
C397 C398 1.267 . S
C398 H366 0.929 . S
C398 C397 1.267 . S
C398 C399 1.251 . S
C399 H369 0.929 . S
C399 N395 1.418 . S
C399 C398 1.251 . S
C400 H367 0.930 . S
C400 C402 1.406 . S
C400 C405 1.261 . S
C401 H368 0.930 . S
C401 N403 1.325 . S
C401 C404 1.357 . S
C402 H370 0.928 . S
C402 C400 1.406 . S
C402 N403 1.261 . S
N403 Co354 2.214 . S
N403 C401 1.325 . S
N403 C402 1.261 . S
C404 H374 0.931 . S
C404 C401 1.357 . S
C404 C405 1.312 . S
C405 H376 0.930 . S
C405 C400 1.261 . S
C405 C404 1.312 . S
C406 O378 1.214 . S
C406 O386 1.234 . S
C407 H379 0.929 1_565 S
C407 C410 1.391 . S
C407 C412 1.391 . S
C408 H380 0.929 . S
C408 C409 1.390 . S
C408 N411 1.391 . S
C409 H381 0.930 . S
C409 C408 1.390 . S
C409 C410 1.392 . S
C410 H382 0.929 1_565 S
C410 C407 1.391 . S
C410 C409 1.392 . S
N411 Co355 2.257 . S
N411 C408 1.391 . S
N411 C412 1.388 . S
C412 H383 0.930 . S
C412 C407 1.391 . S
C412 N411 1.388 . S
Co413 O415 2.143 . S
Co413 O421 2.074 . S
Co413 O424 2.093 1_554 S
Co413 O437 2.097 1_554 S
Co413 N454 2.151 . S
Co413 N462 2.214 . S
Co414 O415 2.160 . S
Co414 O420 2.058 . S
Co414 O430 2.057 . S
Co414 O445 2.037 1_554 S
Co414 N449 2.145 . S
Co414 N470 2.257 1_554 S
O415 Co413 2.143 . S
O415 Co414 2.160 . S
C416 O417 1.278 . S
C416 O424 1.224 . S
O417 C416 1.278 . S
C418 O419 1.245 . S
C418 O430 1.232 . S
O419 C418 1.245 . S
O420 Co414 2.058 . S
O420 C446 1.269 . S
O421 Co413 2.074 . S
O421 C446 1.257 . S
H422 C447 0.930 . S
H423 C453 0.930 . S
O424 Co413 2.093 1_556 S
O424 C416 1.224 . S
H425 C457 0.929 . S
H426 C459 0.930 . S
H427 C460 0.930 . S
H428 C458 0.929 . S
H429 C461 0.928 . S
O430 Co414 2.057 . S
O430 C418 1.232 . S
H431 C450 0.929 . S
H432 C451 0.929 . S
H433 C463 0.931 . S
H434 C455 0.929 . S
H435 C464 0.930 . S
H436 C456 0.931 . S
O437 Co413 2.097 1_556 S
O437 C465 1.214 . S
H438 C466 0.929 . S
H439 C467 0.929 . S
H440 C468 0.930 . S
H441 C469 0.929 . S
H442 C471 0.930 . S
H443 C448 0.930 . S
H444 C452 0.930 . S
O445 Co414 2.037 1_556 S
O445 C465 1.234 . S
C446 O420 1.269 . S
C446 O421 1.257 . S
C447 H422 0.930 . S
C447 C450 1.388 . S
C447 C452 1.418 . S
C448 H443 0.930 . S
C448 C451 1.404 . S
C448 C452 1.353 1_554 S
N449 Co414 2.145 . S
N449 C450 1.397 1_554 S
N449 C451 1.334 . S
C450 H431 0.929 . S
C450 C447 1.388 . S
C450 N449 1.397 1_556 S
C451 H432 0.929 . S
C451 C448 1.404 . S
C451 N449 1.334 . S
C452 H444 0.930 . S
C452 C447 1.418 . S
C452 C448 1.353 1_556 S
C453 H423 0.930 . S
C453 N454 1.330 . S
C453 C455 1.446 . S
N454 Co413 2.151 . S
N454 C453 1.330 . S
N454 C458 1.418 . S
C455 H434 0.929 . S
C455 C453 1.446 . S
C455 C456 1.332 . S
C456 H436 0.931 . S
C456 C455 1.332 . S
C456 C457 1.267 . S
C457 H425 0.929 . S
C457 C456 1.267 . S
C457 C458 1.251 . S
C458 H428 0.929 . S
C458 N454 1.418 . S
C458 C457 1.251 . S
C459 H426 0.930 . S
C459 C461 1.406 . S
C459 C464 1.261 . S
C460 H427 0.930 . S
C460 N462 1.325 . S
C460 C463 1.357 . S
C461 H429 0.928 . S
C461 C459 1.406 . S
C461 N462 1.261 . S
N462 Co413 2.214 . S
N462 C460 1.325 . S
N462 C461 1.261 . S
C463 H433 0.931 . S
C463 C460 1.357 . S
C463 C464 1.312 . S
C464 H435 0.930 . S
C464 C459 1.261 . S
C464 C463 1.312 . S
C465 O437 1.214 . S
C465 O445 1.234 . S
C466 H438 0.929 . S
C466 C469 1.391 . S
C466 C471 1.391 . S
C467 H439 0.929 . S
C467 C468 1.390 . S
C467 N470 1.391 . S
C468 H440 0.930 . S
C468 C467 1.390 . S
C468 C469 1.392 . S
C469 H441 0.929 . S
C469 C466 1.391 . S
C469 C468 1.392 . S
N470 Co414 2.257 1_556 S
N470 C467 1.391 . S
N470 C471 1.388 . S
C471 H442 0.930 . S
C471 C466 1.391 . S
C471 N470 1.388 . S
Co472 O474 2.143 . S
Co472 O480 2.074 . S
Co472 O483 2.093 . S
Co472 O496 2.097 . S
Co472 N513 2.151 . S
Co472 N521 2.214 . S
Co473 O474 2.160 . S
Co473 O479 2.058 . S
Co473 O489 2.057 . S
Co473 O504 2.037 . S
Co473 N508 2.145 . S
Co473 N529 2.257 . S
O474 Co472 2.143 . S
O474 Co473 2.160 . S
C475 O476 1.278 . S
C475 O483 1.224 . S
O476 C475 1.278 . S
C477 O478 1.245 . S
C477 O489 1.232 . S
O478 C477 1.245 . S
O479 Co473 2.058 . S
O479 C505 1.269 . S
O480 Co472 2.074 . S
O480 C505 1.257 . S
H481 C506 0.930 . S
H482 C512 0.930 . S
O483 Co472 2.093 . S
O483 C475 1.224 . S
H484 C516 0.929 . S
H485 C518 0.930 . S
H486 C519 0.930 . S
H487 C517 0.929 . S
H488 C520 0.928 . S
O489 Co473 2.057 . S
O489 C477 1.232 . S
H490 C509 0.929 . S
H491 C510 0.929 . S
H492 C522 0.931 . S
H493 C514 0.929 . S
H494 C523 0.930 . S
H495 C515 0.931 . S
O496 Co472 2.097 . S
O496 C524 1.214 . S
H497 C525 0.929 . S
H498 C526 0.929 . S
H499 C527 0.930 . S
H500 C528 0.929 . S
H501 C530 0.930 . S
H502 C507 0.930 . S
H503 C511 0.930 . S
O504 Co473 2.037 . S
O504 C524 1.234 . S
C505 O479 1.269 . S
C505 O480 1.257 . S
C506 H481 0.930 . S
C506 C509 1.388 . S
C506 C511 1.418 . S
C507 H502 0.930 . S
C507 C510 1.404 . S
C507 C511 1.353 . S
N508 Co473 2.145 . S
N508 C509 1.397 . S
N508 C510 1.334 . S
C509 H490 0.929 . S
C509 C506 1.388 . S
C509 N508 1.397 . S
C510 H491 0.929 . S
C510 C507 1.404 . S
C510 N508 1.334 . S
C511 H503 0.930 . S
C511 C506 1.418 . S
C511 C507 1.353 . S
C512 H482 0.930 . S
C512 N513 1.330 . S
C512 C514 1.446 1_454 S
N513 Co472 2.151 . S
N513 C512 1.330 . S
N513 C517 1.418 1_554 S
C514 H493 0.929 . S
C514 C512 1.446 1_656 S
C514 C515 1.332 . S
C515 H495 0.931 . S
C515 C514 1.332 . S
C515 C516 1.267 1_655 S
C516 H484 0.929 . S
C516 C515 1.267 1_455 S
C516 C517 1.251 . S
C517 H487 0.929 . S
C517 N513 1.418 1_556 S
C517 C516 1.251 . S
C518 H485 0.930 . S
C518 C520 1.406 . S
C518 C523 1.261 . S
C519 H486 0.930 . S
C519 N521 1.325 . S
C519 C522 1.357 . S
C520 H488 0.928 . S
C520 C518 1.406 . S
C520 N521 1.261 . S
N521 Co472 2.214 . S
N521 C519 1.325 . S
N521 C520 1.261 . S
C522 H492 0.931 . S
C522 C519 1.357 . S
C522 C523 1.312 . S
C523 H494 0.930 . S
C523 C518 1.261 . S
C523 C522 1.312 . S
C524 O496 1.214 . S
C524 O504 1.234 . S
C525 H497 0.929 . S
C525 C528 1.391 . S
C525 C530 1.391 . S
C526 H498 0.929 . S
C526 C527 1.390 . S
C526 N529 1.391 . S
C527 H499 0.930 . S
C527 C526 1.390 . S
C527 C528 1.392 . S
C528 H500 0.929 . S
C528 C525 1.391 . S
C528 C527 1.392 . S
N529 Co473 2.257 . S
N529 C526 1.391 . S
N529 C530 1.388 . S
C530 H501 0.930 . S
C530 C525 1.391 . S
C530 N529 1.388 . S
Co531 O533 2.143 . S
Co531 O539 2.074 . S
Co531 O542 2.093 . S
Co531 O555 2.097 . S
Co531 N572 2.151 . S
Co531 N580 2.214 . S
Co532 O533 2.160 . S
Co532 O538 2.058 . S
Co532 O548 2.057 . S
Co532 O563 2.037 . S
Co532 N567 2.145 . S
Co532 N588 2.257 . S
O533 Co531 2.143 . S
O533 Co532 2.160 . S
C534 O535 1.278 . S
C534 O542 1.224 . S
O535 C534 1.278 . S
C536 O537 1.245 . S
C536 O548 1.232 . S
O537 C536 1.245 . S
O538 Co532 2.058 . S
O538 C564 1.269 . S
O539 Co531 2.074 . S
O539 C564 1.257 . S
H540 C565 0.930 . S
H541 C571 0.930 . S
O542 Co531 2.093 . S
O542 C534 1.224 . S
H543 C575 0.929 . S
H544 C577 0.930 . S
H545 C578 0.930 . S
H546 C576 0.929 . S
H547 C579 0.928 . S
O548 Co532 2.057 . S
O548 C536 1.232 . S
H549 C568 0.929 . S
H550 C569 0.929 . S
H551 C581 0.931 . S
H552 C573 0.929 . S
H553 C582 0.930 . S
H554 C574 0.931 . S
O555 Co531 2.097 . S
O555 C583 1.214 . S
H556 C584 0.929 1_565 S
H557 C585 0.929 . S
H558 C586 0.930 . S
H559 C587 0.929 1_565 S
H560 C589 0.930 . S
H561 C566 0.930 1_565 S
H562 C570 0.930 . S
O563 Co532 2.037 . S
O563 C583 1.234 . S
C564 O538 1.269 . S
C564 O539 1.257 . S
C565 H540 0.930 . S
C565 C568 1.388 . S
C565 C570 1.418 . S
C566 H561 0.930 1_545 S
C566 C569 1.404 . S
C566 C570 1.353 . S
N567 Co532 2.145 . S
N567 C568 1.397 . S
N567 C569 1.334 . S
C568 H549 0.929 . S
C568 C565 1.388 . S
C568 N567 1.397 . S
C569 H550 0.929 . S
C569 C566 1.404 . S
C569 N567 1.334 . S
C570 H562 0.930 . S
C570 C565 1.418 . S
C570 C566 1.353 . S
C571 H541 0.930 . S
C571 N572 1.330 . S
C571 C573 1.446 . S
N572 Co531 2.151 . S
N572 C571 1.330 . S
N572 C576 1.418 . S
C573 H552 0.929 . S
C573 C571 1.446 . S
C573 C574 1.332 . S
C574 H554 0.931 . S
C574 C573 1.332 . S
C574 C575 1.267 . S
C575 H543 0.929 . S
C575 C574 1.267 . S
C575 C576 1.251 . S
C576 H546 0.929 . S
C576 N572 1.418 . S
C576 C575 1.251 . S
C577 H544 0.930 . S
C577 C579 1.406 . S
C577 C582 1.261 . S
C578 H545 0.930 . S
C578 N580 1.325 . S
C578 C581 1.357 . S
C579 H547 0.928 . S
C579 C577 1.406 . S
C579 N580 1.261 . S
N580 Co531 2.214 . S
N580 C578 1.325 . S
N580 C579 1.261 . S
C581 H551 0.931 . S
C581 C578 1.357 . S
C581 C582 1.312 . S
C582 H553 0.930 . S
C582 C577 1.261 . S
C582 C581 1.312 . S
C583 O555 1.214 . S
C583 O563 1.234 . S
C584 H556 0.929 1_545 S
C584 C587 1.391 1_554 S
C584 C589 1.391 . S
C585 H557 0.929 . S
C585 C586 1.390 1_554 S
C585 N588 1.391 . S
C586 H558 0.930 . S
C586 C585 1.390 1_556 S
C586 C587 1.392 . S
C587 H559 0.929 1_545 S
C587 C584 1.391 1_556 S
C587 C586 1.392 . S
N588 Co532 2.257 . S
N588 C585 1.391 . S
N588 C589 1.388 . S
C589 H560 0.930 . S
C589 C584 1.391 . S
C589 N588 1.388 . S
Co590 O592 2.143 . S
Co590 O598 2.074 . S
Co590 O601 2.093 . S
Co590 O614 2.097 . S
Co590 N631 2.151 . S
Co590 N639 2.214 . S
Co591 O592 2.160 . S
Co591 O597 2.058 . S
Co591 O607 2.057 . S
Co591 O622 2.037 . S
Co591 N626 2.145 . S
Co591 N647 2.257 . S
O592 Co590 2.143 . S
O592 Co591 2.160 . S
C593 O594 1.278 . S
C593 O601 1.224 . S
O594 C593 1.278 . S
C595 O596 1.245 . S
C595 O607 1.232 . S
O596 C595 1.245 . S
O597 Co591 2.058 . S
O597 C623 1.269 . S
O598 Co590 2.074 . S
O598 C623 1.257 . S
H599 C624 0.930 . S
H600 C630 0.930 . S
O601 Co590 2.093 . S
O601 C593 1.224 . S
H602 C634 0.929 1_554 S
H603 C636 0.930 . S
H604 C637 0.930 . S
H605 C635 0.929 . S
H606 C638 0.928 . S
O607 Co591 2.057 . S
O607 C595 1.232 . S
H608 C627 0.929 . S
H609 C628 0.929 . S
H610 C640 0.931 . S
H611 C632 0.929 . S
H612 C641 0.930 . S
H613 C633 0.931 1_554 S
O614 Co590 2.097 . S
O614 C642 1.214 . S
H615 C643 0.929 . S
H616 C644 0.929 . S
H617 C645 0.930 . S
H618 C646 0.929 . S
H619 C648 0.930 . S
H620 C625 0.930 . S
H621 C629 0.930 . S
O622 Co591 2.037 . S
O622 C642 1.234 . S
C623 O597 1.269 . S
C623 O598 1.257 . S
C624 H599 0.930 . S
C624 C627 1.388 . S
C624 C629 1.418 . S
C625 H620 0.930 . S
C625 C628 1.404 . S
C625 C629 1.353 . S
N626 Co591 2.145 . S
N626 C627 1.397 . S
N626 C628 1.334 . S
C627 H608 0.929 . S
C627 C624 1.388 . S
C627 N626 1.397 . S
C628 H609 0.929 . S
C628 C625 1.404 . S
C628 N626 1.334 . S
C629 H621 0.930 . S
C629 C624 1.418 . S
C629 C625 1.353 . S
C630 H600 0.930 . S
C630 N631 1.330 . S
C630 C632 1.446 . S
N631 Co590 2.151 . S
N631 C630 1.330 . S
N631 C635 1.418 . S
C632 H611 0.929 . S
C632 C630 1.446 . S
C632 C633 1.332 . S
C633 H613 0.931 1_556 S
C633 C632 1.332 . S
C633 C634 1.267 . S
C634 H602 0.929 1_556 S
C634 C633 1.267 . S
C634 C635 1.251 . S
C635 H605 0.929 . S
C635 N631 1.418 . S
C635 C634 1.251 . S
C636 H603 0.930 . S
C636 C638 1.406 . S
C636 C641 1.261 . S
C637 H604 0.930 . S
C637 N639 1.325 . S
C637 C640 1.357 . S
C638 H606 0.928 . S
C638 C636 1.406 . S
C638 N639 1.261 . S
N639 Co590 2.214 . S
N639 C637 1.325 . S
N639 C638 1.261 . S
C640 H610 0.931 . S
C640 C637 1.357 . S
C640 C641 1.312 . S
C641 H612 0.930 . S
C641 C636 1.261 . S
C641 C640 1.312 . S
C642 O614 1.214 . S
C642 O622 1.234 . S
C643 H615 0.929 . S
C643 C646 1.391 . S
C643 C648 1.391 . S
C644 H616 0.929 . S
C644 C645 1.390 . S
C644 N647 1.391 . S
C645 H617 0.930 . S
C645 C644 1.390 . S
C645 C646 1.392 . S
C646 H618 0.929 . S
C646 C643 1.391 . S
C646 C645 1.392 . S
N647 Co591 2.257 . S
N647 C644 1.391 . S
N647 C648 1.388 . S
C648 H619 0.930 . S
C648 C643 1.391 . S
C648 N647 1.388 . S
Co649 O651 2.143 . S
Co649 O657 2.074 . S
Co649 O660 2.093 . S
Co649 O673 2.097 . S
Co649 N690 2.151 . S
Co649 N698 2.214 . S
Co650 O651 2.160 . S
Co650 O656 2.058 . S
Co650 O666 2.057 . S
Co650 O681 2.037 . S
Co650 N685 2.145 . S
Co650 N706 2.257 . S
O651 Co649 2.143 . S
O651 Co650 2.160 . S
C652 O653 1.278 . S
C652 O660 1.224 . S
O653 C652 1.278 . S
C654 O655 1.245 . S
C654 O666 1.232 . S
O655 C654 1.245 . S
O656 Co650 2.058 . S
O656 C682 1.269 . S
O657 Co649 2.074 . S
O657 C682 1.257 . S
H658 C683 0.930 . S
H659 C689 0.930 . S
O660 Co649 2.093 . S
O660 C652 1.224 . S
H661 C693 0.929 . S
H662 C695 0.930 . S
H663 C696 0.930 . S
H664 C694 0.929 . S
H665 C697 0.928 . S
O666 Co650 2.057 . S
O666 C654 1.232 . S
H667 C686 0.929 . S
H668 C687 0.929 . S
H669 C699 0.931 . S
H670 C691 0.929 . S
H671 C700 0.930 . S
H672 C692 0.931 . S
O673 Co649 2.097 . S
O673 C701 1.214 . S
H674 C702 0.929 . S
H675 C703 0.929 . S
H676 C704 0.930 . S
H677 C705 0.929 . S
H678 C707 0.930 . S
H679 C684 0.930 . S
H680 C688 0.930 . S
O681 Co650 2.037 . S
O681 C701 1.234 . S
C682 O656 1.269 . S
C682 O657 1.257 . S
C683 H658 0.930 . S
C683 C686 1.388 . S
C683 C688 1.418 . S
C684 H679 0.930 . S
C684 C687 1.404 . S
C684 C688 1.353 . S
N685 Co650 2.145 . S
N685 C686 1.397 . S
N685 C687 1.334 . S
C686 H667 0.929 . S
C686 C683 1.388 . S
C686 N685 1.397 . S
C687 H668 0.929 . S
C687 C684 1.404 . S
C687 N685 1.334 . S
C688 H680 0.930 . S
C688 C683 1.418 . S
C688 C684 1.353 . S
C689 H659 0.930 . S
C689 N690 1.330 . S
C689 C691 1.446 1_655 S
N690 Co649 2.151 . S
N690 C689 1.330 . S
N690 C694 1.418 . S
C691 H670 0.929 . S
C691 C689 1.446 1_455 S
C691 C692 1.332 . S
C692 H672 0.931 . S
C692 C691 1.332 . S
C692 C693 1.267 1_455 S
C693 H661 0.929 . S
C693 C692 1.267 1_655 S
C693 C694 1.251 . S
C694 H664 0.929 . S
C694 N690 1.418 . S
C694 C693 1.251 . S
C695 H662 0.930 . S
C695 C697 1.406 . S
C695 C700 1.261 . S
C696 H663 0.930 . S
C696 N698 1.325 . S
C696 C699 1.357 . S
C697 H665 0.928 . S
C697 C695 1.406 . S
C697 N698 1.261 . S
N698 Co649 2.214 . S
N698 C696 1.325 . S
N698 C697 1.261 . S
C699 H669 0.931 . S
C699 C696 1.357 . S
C699 C700 1.312 . S
C700 H671 0.930 . S
C700 C695 1.261 . S
C700 C699 1.312 . S
C701 O673 1.214 . S
C701 O681 1.234 . S
C702 H674 0.929 . S
C702 C705 1.391 . S
C702 C707 1.391 1_554 S
C703 H675 0.929 . S
C703 C704 1.390 . S
C703 N706 1.391 1_554 S
C704 H676 0.930 . S
C704 C703 1.390 . S
C704 C705 1.392 . S
C705 H677 0.929 . S
C705 C702 1.391 . S
C705 C704 1.392 . S
N706 Co650 2.257 . S
N706 C703 1.391 1_556 S
N706 C707 1.388 . S
C707 H678 0.930 . S
C707 C702 1.391 1_556 S
C707 N706 1.388 . S
C52 C642 1.710 . S
C682 C111 1.717 . S
C151 C406 1.718 . S
C229 C465 1.710 . S
C288 C505 1.718 1_556 S
C583 C328 1.717 . S
C3 C477 2.121 . S
C62 C534 2.150 . S
C593 C123 2.121 . S
C180 C654 2.121 . S
C239 C357 2.150 . S
C300 C416 2.121 1_554 S
C623 C33 1.866 . S
C92 C701 1.835 1_554 S
C170 C387 1.835 . S
C210 C446 1.866 . S
C524 C269 1.835 . S
C347 C564 1.835 . S
C5 C652 1.387 1_455 S
C359 C64 1.380 1_565 S
C418 C121 1.387 . S
C475 C182 1.387 1_455 S
C536 C241 1.380 1_545 S
C595 C298 1.387 . S
