# Generated by pormake.
# Topology uoh, (4)-cn, num edge types: 1
# Building blocks:
#     Node 0, Type 0, BuildingBlock: AZAVOO_clean_sbu_0, # of connection points: 4
#     Node 1, Type 0, BuildingBlock: AZAVOO_clean_sbu_0, # of connection points: 4
#     Node 2, Type 0, BuildingBlock: AZAVOO_clean_sbu_0, # of connection points: 4
#     Node 3, Type 0, BuildingBlock: AZAVOO_clean_sbu_0, # of connection points: 4
#     Node 4, Type 0, BuildingBlock: AZAVOO_clean_sbu_0, # of connection points: 4
#     Node 5, Type 0, BuildingBlock: AZAVOO_clean_sbu_0, # of connection points: 4
#     Node 6, Type 0, BuildingBlock: AZAVOO_clean_sbu_0, # of connection points: 4
#     Node 7, Type 0, BuildingBlock: AZAVOO_clean_sbu_0, # of connection points: 4
#     Node 8, Type 0, BuildingBlock: AZAVOO_clean_sbu_0, # of connection points: 4
#     Node 9, Type 0, BuildingBlock: AZAVOO_clean_sbu_0, # of connection points: 4
#     Node 10, Type 0, BuildingBlock: AZAVOO_clean_sbu_0, # of connection points: 4
#     Node 11, Type 0, BuildingBlock: AZAVOO_clean_sbu_0, # of connection points: 4
#     Node 12, Type 0, BuildingBlock: AZAVOO_clean_sbu_0, # of connection points: 4
#     Node 13, Type 0, BuildingBlock: AZAVOO_clean_sbu_0, # of connection points: 4
#     Node 14, Type 0, BuildingBlock: AZAVOO_clean_sbu_0, # of connection points: 4
#     Node 15, Type 0, BuildingBlock: AZAVOO_clean_sbu_0, # of connection points: 4
#     Node 16, Type 0, BuildingBlock: AZAVOO_clean_sbu_0, # of connection points: 4
#     Node 17, Type 0, BuildingBlock: AZAVOO_clean_sbu_0, # of connection points: 4
#     Node 18, Type 0, BuildingBlock: AZAVOO_clean_sbu_0, # of connection points: 4
#     Node 19, Type 0, BuildingBlock: AZAVOO_clean_sbu_0, # of connection points: 4
#     Node 20, Type 0, BuildingBlock: AZAVOO_clean_sbu_0, # of connection points: 4
#     Node 21, Type 0, BuildingBlock: AZAVOO_clean_sbu_0, # of connection points: 4
#     Node 22, Type 0, BuildingBlock: AZAVOO_clean_sbu_0, # of connection points: 4
#     Node 23, Type 0, BuildingBlock: AZAVOO_clean_sbu_0, # of connection points: 4
#     Node 24, Type 0, BuildingBlock: AZAVOO_clean_sbu_0, # of connection points: 4
#     Node 25, Type 0, BuildingBlock: AZAVOO_clean_sbu_0, # of connection points: 4
#     Node 26, Type 0, BuildingBlock: AZAVOO_clean_sbu_0, # of connection points: 4
#     Node 27, Type 0, BuildingBlock: AZAVOO_clean_sbu_0, # of connection points: 4
#     Node 28, Type 0, BuildingBlock: AZAVOO_clean_sbu_0, # of connection points: 4
#     Node 29, Type 0, BuildingBlock: AZAVOO_clean_sbu_0, # of connection points: 4
#     Node 30, Type 0, BuildingBlock: AZAVOO_clean_sbu_0, # of connection points: 4
#     Node 31, Type 0, BuildingBlock: AZAVOO_clean_sbu_0, # of connection points: 4
#     Node 32, Type 0, BuildingBlock: AZAVOO_clean_sbu_0, # of connection points: 4
#     Node 33, Type 0, BuildingBlock: AZAVOO_clean_sbu_0, # of connection points: 4
#     Node 34, Type 0, BuildingBlock: AZAVOO_clean_sbu_0, # of connection points: 4
#     Node 35, Type 0, BuildingBlock: AZAVOO_clean_sbu_0, # of connection points: 4
#     Edge 36, Type (0, 0), BuildingBlock: OJICUG_clean_linker_0, # of connection points: 2
#     Edge 37, Type (0, 0), BuildingBlock: OJICUG_clean_linker_0, # of connection points: 2
#     Edge 38, Type (0, 0), BuildingBlock: OJICUG_clean_linker_0, # of connection points: 2
#     Edge 39, Type (0, 0), BuildingBlock: OJICUG_clean_linker_0, # of connection points: 2
#     Edge 40, Type (0, 0), BuildingBlock: OJICUG_clean_linker_0, # of connection points: 2
#     Edge 41, Type (0, 0), BuildingBlock: OJICUG_clean_linker_0, # of connection points: 2
#     Edge 42, Type (0, 0), BuildingBlock: OJICUG_clean_linker_0, # of connection points: 2
#     Edge 43, Type (0, 0), BuildingBlock: OJICUG_clean_linker_0, # of connection points: 2
#     Edge 44, Type (0, 0), BuildingBlock: OJICUG_clean_linker_0, # of connection points: 2
#     Edge 45, Type (0, 0), BuildingBlock: OJICUG_clean_linker_0, # of connection points: 2
#     Edge 46, Type (0, 0), BuildingBlock: OJICUG_clean_linker_0, # of connection points: 2
#     Edge 47, Type (0, 0), BuildingBlock: OJICUG_clean_linker_0, # of connection points: 2
#     Edge 48, Type (0, 0), BuildingBlock: OJICUG_clean_linker_0, # of connection points: 2
#     Edge 49, Type (0, 0), BuildingBlock: OJICUG_clean_linker_0, # of connection points: 2
#     Edge 50, Type (0, 0), BuildingBlock: OJICUG_clean_linker_0, # of connection points: 2
#     Edge 51, Type (0, 0), BuildingBlock: OJICUG_clean_linker_0, # of connection points: 2
#     Edge 52, Type (0, 0), BuildingBlock: OJICUG_clean_linker_0, # of connection points: 2
#     Edge 53, Type (0, 0), BuildingBlock: OJICUG_clean_linker_0, # of connection points: 2
#     Edge 54, Type (0, 0), BuildingBlock: OJICUG_clean_linker_0, # of connection points: 2
#     Edge 55, Type (0, 0), BuildingBlock: OJICUG_clean_linker_0, # of connection points: 2
#     Edge 56, Type (0, 0), BuildingBlock: OJICUG_clean_linker_0, # of connection points: 2
#     Edge 57, Type (0, 0), BuildingBlock: OJICUG_clean_linker_0, # of connection points: 2
#     Edge 58, Type (0, 0), BuildingBlock: OJICUG_clean_linker_0, # of connection points: 2
#     Edge 59, Type (0, 0), BuildingBlock: OJICUG_clean_linker_0, # of connection points: 2
#     Edge 60, Type (0, 0), BuildingBlock: OJICUG_clean_linker_0, # of connection points: 2
#     Edge 61, Type (0, 0), BuildingBlock: OJICUG_clean_linker_0, # of connection points: 2
#     Edge 62, Type (0, 0), BuildingBlock: OJICUG_clean_linker_0, # of connection points: 2
#     Edge 63, Type (0, 0), BuildingBlock: OJICUG_clean_linker_0, # of connection points: 2
#     Edge 64, Type (0, 0), BuildingBlock: OJICUG_clean_linker_0, # of connection points: 2
#     Edge 65, Type (0, 0), BuildingBlock: OJICUG_clean_linker_0, # of connection points: 2
#     Edge 66, Type (0, 0), BuildingBlock: OJICUG_clean_linker_0, # of connection points: 2
#     Edge 67, Type (0, 0), BuildingBlock: OJICUG_clean_linker_0, # of connection points: 2
#     Edge 68, Type (0, 0), BuildingBlock: OJICUG_clean_linker_0, # of connection points: 2
#     Edge 69, Type (0, 0), BuildingBlock: OJICUG_clean_linker_0, # of connection points: 2
#     Edge 70, Type (0, 0), BuildingBlock: OJICUG_clean_linker_0, # of connection points: 2
#     Edge 71, Type (0, 0), BuildingBlock: OJICUG_clean_linker_0, # of connection points: 2
#     Edge 72, Type (0, 0), BuildingBlock: OJICUG_clean_linker_0, # of connection points: 2
#     Edge 73, Type (0, 0), BuildingBlock: OJICUG_clean_linker_0, # of connection points: 2
#     Edge 74, Type (0, 0), BuildingBlock: OJICUG_clean_linker_0, # of connection points: 2
#     Edge 75, Type (0, 0), BuildingBlock: OJICUG_clean_linker_0, # of connection points: 2
#     Edge 76, Type (0, 0), BuildingBlock: OJICUG_clean_linker_0, # of connection points: 2
#     Edge 77, Type (0, 0), BuildingBlock: OJICUG_clean_linker_0, # of connection points: 2
#     Edge 78, Type (0, 0), BuildingBlock: OJICUG_clean_linker_0, # of connection points: 2
#     Edge 79, Type (0, 0), BuildingBlock: OJICUG_clean_linker_0, # of connection points: 2
#     Edge 80, Type (0, 0), BuildingBlock: OJICUG_clean_linker_0, # of connection points: 2
#     Edge 81, Type (0, 0), BuildingBlock: OJICUG_clean_linker_0, # of connection points: 2
#     Edge 82, Type (0, 0), BuildingBlock: OJICUG_clean_linker_0, # of connection points: 2
#     Edge 83, Type (0, 0), BuildingBlock: OJICUG_clean_linker_0, # of connection points: 2
#     Edge 84, Type (0, 0), BuildingBlock: OJICUG_clean_linker_0, # of connection points: 2
#     Edge 85, Type (0, 0), BuildingBlock: OJICUG_clean_linker_0, # of connection points: 2
#     Edge 86, Type (0, 0), BuildingBlock: OJICUG_clean_linker_0, # of connection points: 2
#     Edge 87, Type (0, 0), BuildingBlock: OJICUG_clean_linker_0, # of connection points: 2
#     Edge 88, Type (0, 0), BuildingBlock: OJICUG_clean_linker_0, # of connection points: 2
#     Edge 89, Type (0, 0), BuildingBlock: OJICUG_clean_linker_0, # of connection points: 2
#     Edge 90, Type (0, 0), BuildingBlock: OJICUG_clean_linker_0, # of connection points: 2
#     Edge 91, Type (0, 0), BuildingBlock: OJICUG_clean_linker_0, # of connection points: 2
#     Edge 92, Type (0, 0), BuildingBlock: OJICUG_clean_linker_0, # of connection points: 2
#     Edge 93, Type (0, 0), BuildingBlock: OJICUG_clean_linker_0, # of connection points: 2
#     Edge 94, Type (0, 0), BuildingBlock: OJICUG_clean_linker_0, # of connection points: 2
#     Edge 95, Type (0, 0), BuildingBlock: OJICUG_clean_linker_0, # of connection points: 2
#     Edge 96, Type (0, 0), BuildingBlock: OJICUG_clean_linker_0, # of connection points: 2
#     Edge 97, Type (0, 0), BuildingBlock: OJICUG_clean_linker_0, # of connection points: 2
#     Edge 98, Type (0, 0), BuildingBlock: OJICUG_clean_linker_0, # of connection points: 2
#     Edge 99, Type (0, 0), BuildingBlock: OJICUG_clean_linker_0, # of connection points: 2
#     Edge 100, Type (0, 0), BuildingBlock: OJICUG_clean_linker_0, # of connection points: 2
#     Edge 101, Type (0, 0), BuildingBlock: OJICUG_clean_linker_0, # of connection points: 2
#     Edge 102, Type (0, 0), BuildingBlock: OJICUG_clean_linker_0, # of connection points: 2
#     Edge 103, Type (0, 0), BuildingBlock: OJICUG_clean_linker_0, # of connection points: 2
#     Edge 104, Type (0, 0), BuildingBlock: OJICUG_clean_linker_0, # of connection points: 2
#     Edge 105, Type (0, 0), BuildingBlock: OJICUG_clean_linker_0, # of connection points: 2
#     Edge 106, Type (0, 0), BuildingBlock: OJICUG_clean_linker_0, # of connection points: 2
#     Edge 107, Type (0, 0), BuildingBlock: OJICUG_clean_linker_0, # of connection points: 2
# Relax obj value: 0.295
# Max RMSD: 0.496
# Mean RMSD: 0.309
data_MOF--net-uoh--node1-AZAVOO_clean_sbu_0--edge1-OJICUG_clean_linker_0
_symmetry_space_group_name_H-M    P1
_symmetry_Int_Tables_number       1
_symmetry_cell_setting            triclinic
loop_
_symmetry_equiv_pos_as_xyz
'x, y, z'
_cell_length_a     61.394429
_cell_length_b     60.736852
_cell_length_c     20.015876
_cell_angle_alpha  90.114614
_cell_angle_beta   90.028021
_cell_angle_gamma 117.49072
loop_
_atom_site_label
_atom_site_type_symbol
_atom_site_fract_x
_atom_site_fract_y
_atom_site_fract_z
_atom_type_partial_charge
Mg0 Mg 0.22875 0.18397 0.27912 0.0
O1 O 0.26132 0.17747 0.25481 0.0
O2 O 0.29082 0.19527 0.33056 0.0
Mg3 Mg 0.27445 0.21027 0.41227 0.0
C4 C 0.28265 0.18296 0.27652 0.0
C5 C 0.21513 0.15143 0.15858 0.0
O6 O 0.21727 0.13829 0.20781 0.0
O7 O 0.25074 0.22483 0.25285 0.0
O8 O 0.27414 0.24058 0.34394 0.0
O9 O 0.21104 0.14887 0.33901 0.0
O10 O 0.23619 0.18568 0.38042 0.0
C11 C 0.26565 0.24328 0.28791 0.0
C12 C 0.22268 0.16233 0.38994 0.0
O13 O 0.21696 0.1727 0.17154 0.0
Mg14 Mg 0.86052 0.08717 0.28653 0.0
O15 O 0.84856 0.1157 0.25847 0.0
O16 O 0.82226 0.11836 0.32986 0.0
Mg17 Mg 0.81906 0.09057 0.4132 0.0
C18 C 0.83479 0.12505 0.27612 0.0
C19 C 0.88906 0.11454 0.16687 0.0
O20 O 0.89694 0.13039 0.21681 0.0
O21 O 0.82286 0.05662 0.25815 0.0
O22 O 0.79949 0.05663 0.34433 0.0
O23 O 0.8917 0.11484 0.34866 0.0
O24 O 0.8544 0.09095 0.38683 0.0
C25 C 0.80258 0.04721 0.29021 0.0
C26 C 0.87635 0.10805 0.39793 0.0
O27 O 0.8745 0.09193 0.17939 0.0
Mg28 Mg 0.90331 0.71628 0.27269 0.0
O29 O 0.87584 0.67684 0.24995 0.0
O30 O 0.87606 0.64983 0.32396 0.0
Mg31 Mg 0.90498 0.67476 0.40218 0.0
C32 C 0.86772 0.65476 0.27074 0.0
C33 C 0.8739 0.71657 0.15319 0.0
O34 O 0.85822 0.70893 0.20298 0.0
O35 O 0.93484 0.70873 0.24251 0.0
O36 O 0.93836 0.68811 0.33111 0.0
O37 O 0.87571 0.72143 0.3346 0.0
O38 O 0.90128 0.70836 0.37435 0.0
C39 C 0.94632 0.69934 0.27556 0.0
C40 C 0.8835 0.71357 0.38472 0.0
O41 O 0.89653 0.72397 0.16559 0.0
Mg42 Mg 0.17645 0.29787 0.24234 0.0
O43 O 0.18636 0.33784 0.26562 0.0
O44 O 0.2119 0.3628 0.18888 0.0
Mg45 Mg 0.21349 0.33695 0.10585 0.0
C46 C 0.20006 0.35947 0.2435 0.0
C47 C 0.14813 0.29634 0.36638 0.0
O48 O 0.13989 0.3059 0.32007 0.0
O49 O 0.21544 0.30527 0.26588 0.0
O50 O 0.23536 0.32288 0.17128 0.0
O51 O 0.14278 0.29157 0.1846 0.0
O52 O 0.17958 0.30451 0.14052 0.0
C53 C 0.23431 0.31285 0.2281 0.0
C54 C 0.15666 0.29809 0.13215 0.0
O55 O 0.1641 0.28947 0.35042 0.0
Mg56 Mg 0.78061 0.90733 0.22741 0.0
O57 O 0.74257 0.87744 0.2532 0.0
O58 O 0.71502 0.8757 0.17872 0.0
Mg59 Mg 0.7375 0.90346 0.096 0.0
C60 C 0.72054 0.86832 0.23279 0.0
C61 C 0.78518 0.88079 0.34713 0.0
O62 O 0.7788 0.86485 0.29747 0.0
O63 O 0.76933 0.93699 0.2544 0.0
O64 O 0.74737 0.93707 0.1648 0.0
O65 O 0.78855 0.88078 0.16642 0.0
O66 O 0.77231 0.9038 0.12667 0.0
C67 C 0.75799 0.94631 0.22032 0.0
C68 C 0.77969 0.88746 0.11622 0.0
O69 O 0.79025 0.90314 0.33459 0.0
Mg70 Mg 0.07381 0.82163 0.21893 0.0
O71 O 0.10875 0.81877 0.23722 0.0
O72 O 0.11525 0.79697 0.15765 0.0
Mg73 Mg 0.08458 0.7889 0.07958 0.0
C74 C 0.12137 0.80908 0.21253 0.0
C75 C 0.09706 0.85194 0.34212 0.0
O76 O 0.11289 0.86274 0.29378 0.0
O77 O 0.05073 0.78061 0.24318 0.0
O78 O 0.05388 0.76214 0.14921 0.0
O79 O 0.09385 0.85691 0.16088 0.0
O80 O 0.07733 0.81941 0.11635 0.0
C81 C 0.04429 0.76133 0.20644 0.0
C82 C 0.08941 0.84303 0.10832 0.0
O83 O 0.07653 0.83354 0.3279 0.0
Mg84 Mg 0.76533 0.82112 0.72627 0.0
O85 O 0.73286 0.82786 0.75009 0.0
O86 O 0.70335 0.80988 0.67444 0.0
Mg87 Mg 0.71973 0.79475 0.59307 0.0
C88 C 0.71153 0.82232 0.7283 0.0
C89 C 0.77885 0.85358 0.84687 0.0
O90 O 0.77682 0.86683 0.79775 0.0
O91 O 0.74312 0.78041 0.75301 0.0
O92 O 0.7198 0.76443 0.66189 0.0
O93 O 0.78327 0.85613 0.66633 0.0
O94 O 0.75799 0.81932 0.62506 0.0
C95 C 0.72818 0.76189 0.71825 0.0
C96 C 0.77162 0.84265 0.61544 0.0
O97 O 0.77705 0.83234 0.83372 0.0
Mg98 Mg 0.1389 0.91144 0.72151 0.0
O99 O 0.15486 0.88636 0.75212 0.0
O100 O 0.18291 0.88661 0.68198 0.0
Mg101 Mg 0.183 0.91249 0.59668 0.0
C102 C 0.17052 0.87922 0.73581 0.0
C103 C 0.11133 0.88253 0.8407 0.0
O104 O 0.10549 0.86664 0.79103 0.0
O105 O 0.17474 0.94495 0.74947 0.0
O106 O 0.19931 0.94726 0.66389 0.0
O107 O 0.10947 0.88146 0.66025 0.0
O108 O 0.14578 0.90791 0.62109 0.0
C109 C 0.1949 0.95609 0.71727 0.0
C110 C 0.12465 0.88924 0.61068 0.0
O111 O 0.12429 0.90551 0.82831 0.0
Mg112 Mg 0.08923 0.28162 0.74585 0.0
O113 O 0.11673 0.31998 0.77625 0.0
O114 O 0.11841 0.34956 0.70873 0.0
Mg115 Mg 0.09054 0.3273 0.62503 0.0
C116 C 0.12556 0.34269 0.76088 0.0
C117 C 0.11738 0.27861 0.86437 0.0
O118 O 0.13296 0.28557 0.81436 0.0
O119 O 0.05788 0.28931 0.77686 0.0
O120 O 0.05619 0.31269 0.69252 0.0
O121 O 0.11723 0.27748 0.68265 0.0
O122 O 0.09267 0.29228 0.64586 0.0
C123 C 0.04727 0.30003 0.74562 0.0
C124 C 0.11024 0.28686 0.63423 0.0
O125 O 0.09484 0.27174 0.85196 0.0
Mg126 Mg 0.81734 0.70693 0.77405 0.0
O127 O 0.80631 0.66672 0.75064 0.0
O128 O 0.78048 0.64224 0.82768 0.0
Mg129 Mg 0.77886 0.66838 0.90949 0.0
C130 C 0.79228 0.64524 0.77312 0.0
C131 C 0.84612 0.70773 0.65193 0.0
O132 O 0.85383 0.69803 0.69921 0.0
O133 O 0.77888 0.7007 0.74862 0.0
O134 O 0.75788 0.68279 0.84164 0.0
O135 O 0.85029 0.71175 0.8327 0.0
O136 O 0.81352 0.70005 0.87586 0.0
C137 C 0.75961 0.69303 0.78478 0.0
C138 C 0.83615 0.70531 0.88463 0.0
O139 O 0.83035 0.71502 0.66649 0.0
Mg140 Mg 0.21288 0.0969 0.77834 0.0
O141 O 0.25117 0.12687 0.75489 0.0
O142 O 0.27819 0.12856 0.83108 0.0
Mg143 Mg 0.25505 0.10014 0.91182 0.0
C144 C 0.27302 0.13613 0.77675 0.0
C145 C 0.20933 0.12397 0.65812 0.0
O146 O 0.21566 0.13988 0.70787 0.0
O147 O 0.224 0.06704 0.75166 0.0
O148 O 0.24554 0.06684 0.84203 0.0
O149 O 0.2048 0.12345 0.83912 0.0
O150 O 0.2205 0.10006 0.87959 0.0
C151 C 0.23513 0.05762 0.78626 0.0
C152 C 0.21329 0.11655 0.88969 0.0
O153 O 0.20401 0.10155 0.67066 0.0
Mg154 Mg 0.92308 0.17618 0.7894 0.0
O155 O 0.88696 0.17633 0.76649 0.0
O156 O 0.87836 0.19701 0.84505 0.0
Mg157 Mg 0.90796 0.20634 0.92702 0.0
C158 C 0.87331 0.18507 0.78986 0.0
C159 C 0.9032 0.14534 0.66655 0.0
O160 O 0.88754 0.13377 0.71464 0.0
O161 O 0.94419 0.21756 0.76675 0.0
O162 O 0.93881 0.2346 0.86075 0.0
O163 O 0.90444 0.14048 0.84681 0.0
O164 O 0.91809 0.17776 0.89132 0.0
C165 C 0.94925 0.23638 0.80433 0.0
C166 C 0.9075 0.1541 0.89925 0.0
O167 O 0.92277 0.16488 0.68082 0.0
Mg168 Mg 0.89566 0.43543 0.56481 0.0
O169 O 0.93567 0.45953 0.53987 0.0
O170 O 0.95432 0.48696 0.62069 0.0
Mg171 Mg 0.92597 0.47692 0.70568 0.0
C172 C 0.95453 0.47793 0.56323 0.0
C173 C 0.89839 0.43933 0.40758 0.0
O174 O 0.90366 0.46253 0.41945 0.0
O175 O 0.88741 0.46825 0.54906 0.0
O176 O 0.9031 0.49 0.64316 0.0
O177 O 0.90381 0.40743 0.61903 0.0
O178 O 0.90204 0.43941 0.66636 0.0
C179 C 0.89084 0.4861 0.58896 0.0
C180 C 0.90485 0.41989 0.67256 0.0
O181 O 0.89193 0.42392 0.45557 0.0
Mg182 Mg 0.52267 0.40808 0.53454 0.0
O183 O 0.52342 0.44471 0.50998 0.0
O184 O 0.51275 0.45942 0.5992 0.0
Mg185 Mg 0.51069 0.43404 0.6873 0.0
C186 C 0.51862 0.46083 0.53756 0.0
C187 C 0.53038 0.3928 0.38407 0.0
O188 O 0.54236 0.3818 0.41067 0.0
O189 O 0.4809 0.38938 0.54526 0.0
O190 O 0.47546 0.40169 0.64682 0.0
O191 O 0.56296 0.42724 0.56233 0.0
O192 O 0.53237 0.41925 0.63229 0.0
C193 C 0.46717 0.38816 0.59471 0.0
C194 C 0.55557 0.42902 0.62174 0.0
O195 O 0.52049 0.40246 0.42188 0.0
Mg196 Mg 0.56771 0.10746 0.59618 0.0
O197 O 0.54074 0.06756 0.57411 0.0
O198 O 0.53997 0.04291 0.6567 0.0
Mg199 Mg 0.56554 0.06919 0.73873 0.0
C200 C 0.53271 0.04609 0.59943 0.0
C201 C 0.56853 0.10389 0.43776 0.0
O202 O 0.58141 0.09194 0.44794 0.0
O203 O 0.60087 0.10024 0.58107 0.0
O204 O 0.60079 0.08134 0.67725 0.0
O205 O 0.53824 0.11326 0.64794 0.0
O206 O 0.56373 0.10221 0.69839 0.0
C207 C 0.611 0.09167 0.62234 0.0
C208 C 0.54598 0.10776 0.70247 0.0
O209 O 0.5631 0.11381 0.48665 0.0
Mg210 Mg 0.76222 0.49936 0.62365 0.0
O211 O 0.77128 0.53925 0.64366 0.0
O212 O 0.78644 0.56262 0.55334 0.0
Mg213 Mg 0.78313 0.53511 0.46893 0.0
C214 C 0.78029 0.56022 0.61488 0.0
C215 C 0.76277 0.48254 0.78233 0.0
O216 O 0.76 0.46032 0.76744 0.0
O217 O 0.80277 0.50979 0.61567 0.0
O218 O 0.81318 0.52735 0.51444 0.0
O219 O 0.72363 0.49099 0.59391 0.0
O220 O 0.75523 0.50311 0.52489 0.0
C221 C 0.81808 0.51896 0.56771 0.0
C222 C 0.73266 0.49764 0.53457 0.0
O223 O 0.76319 0.49714 0.73648 0.0
Mg224 Mg 0.41059 0.24587 0.60567 0.0
O225 O 0.37172 0.21888 0.63395 0.0
O226 O 0.34465 0.21872 0.56033 0.0
Mg227 Mg 0.36818 0.24414 0.47472 0.0
C228 C 0.34971 0.21115 0.61476 0.0
C229 C 0.41286 0.21891 0.72693 0.0
O230 O 0.40492 0.20263 0.67802 0.0
O231 O 0.40384 0.27898 0.62863 0.0
O232 O 0.38328 0.27992 0.53711 0.0
O233 O 0.41542 0.21679 0.54703 0.0
O234 O 0.40173 0.2416 0.50495 0.0
C235 C 0.3951 0.28994 0.59067 0.0
C236 C 0.40754 0.22404 0.49592 0.0
O237 O 0.41983 0.24163 0.71341 0.0
Mg238 Mg 0.7537 0.20251 0.6115 0.0
O239 O 0.7826 0.19176 0.64343 0.0
O240 O 0.78748 0.16729 0.5691 0.0
Mg241 Mg 0.76182 0.16495 0.48096 0.0
C242 C 0.79288 0.17885 0.62485 0.0
C243 C 0.75193 0.20084 0.76891 0.0
O244 O 0.74168 0.17674 0.75937 0.0
O245 O 0.72267 0.16334 0.62933 0.0
O246 O 0.72603 0.14292 0.53963 0.0
O247 O 0.78216 0.23583 0.55764 0.0
O248 O 0.75979 0.19913 0.51108 0.0
C249 C 0.71455 0.14411 0.59168 0.0
C250 C 0.77632 0.22178 0.50509 0.0
O251 O 0.75591 0.21522 0.71924 0.0
Mg252 Mg 0.40119 0.16088 0.1059 0.0
O253 O 0.36636 0.16236 0.13428 0.0
O254 O 0.33617 0.14149 0.06264 0.0
Mg255 Mg 0.35446 0.12978 0.97788 0.0
C256 C 0.34422 0.15432 0.11591 0.0
C257 C 0.41182 0.19281 0.22653 0.0
O258 O 0.40793 0.20494 0.17759 0.0
O259 O 0.38421 0.12001 0.13251 0.0
O260 O 0.36105 0.10204 0.04254 0.0
O261 O 0.41435 0.19587 0.04611 0.0
O262 O 0.39215 0.15819 0.00533 0.0
C263 C 0.3713 0.10082 0.09708 0.0
C264 C 0.40322 0.18177 0.99569 0.0
O265 O 0.41296 0.17293 0.21295 0.0
Mg266 Mg 0.83583 0.25774 0.1096 0.0
O267 O 0.83389 0.22059 0.13513 0.0
O268 O 0.84705 0.20683 0.04888 0.0
Mg269 Mg 0.85507 0.23495 0.96353 0.0
C270 C 0.83892 0.20447 0.10854 0.0
C271 C 0.80975 0.25689 0.23917 0.0
O272 O 0.7933 0.25344 0.19294 0.0
O273 O 0.87761 0.27647 0.11644 0.0
O274 O 0.88814 0.26476 0.0207 0.0
O275 O 0.79757 0.23831 0.06811 0.0
O276 O 0.83111 0.24933 0.00779 0.0
C277 C 0.89383 0.27747 0.07476 0.0
C278 C 0.80754 0.23889 0.01084 0.0
O279 O 0.83135 0.26185 0.2213 0.0
Mg280 Mg 0.73096 0.52933 0.13125 0.0
O281 O 0.76827 0.56203 0.15543 0.0
O282 O 0.77996 0.58632 0.06543 0.0
Mg283 Mg 0.75329 0.56603 0.97916 0.0
C284 C 0.78337 0.58174 0.12575 0.0
C285 C 0.70616 0.50616 0.2722 0.0
O286 O 0.68893 0.4883 0.23712 0.0
O287 O 0.71241 0.55423 0.12852 0.0
O288 O 0.72086 0.56979 0.02526 0.0
O289 O 0.74843 0.50558 0.09763 0.0
O290 O 0.74081 0.53045 0.03229 0.0
C291 C 0.70869 0.56558 0.07963 0.0
C292 C 0.74964 0.51509 0.03904 0.0
O293 O 0.72414 0.52358 0.24258 0.0
Mg294 Mg 0.4864 0.0848 0.09539 0.0
O295 O 0.4868 0.04926 0.06437 0.0
O296 O 0.47082 0.02143 0.14564 0.0
Mg297 Mg 0.46409 0.04168 0.23512 0.0
C298 C 0.48006 0.0276 0.0873 0.0
C299 C 0.51276 0.11124 0.96859 0.0
O300 O 0.52892 0.123 0.01569 0.0
O301 O 0.44484 0.06681 0.08723 0.0
O302 O 0.43249 0.04536 0.18265 0.0
O303 O 0.52434 0.09883 0.1376 0.0
O304 O 0.49022 0.07857 0.19569 0.0
C305 C 0.42803 0.054 0.12909 0.0
C306 C 0.51382 0.08933 0.19378 0.0
O307 O 0.49144 0.09503 0.98539 0.0
Mg308 Mg 0.94926 0.40197 0.0645 0.0
O309 O 0.97262 0.4406 0.01817 0.0
O310 O -0.00181 0.46076 0.09896 0.0
Mg311 Mg 0.99108 0.42206 0.12492 0.0
C312 C 0.98819 0.46099 0.04372 0.0
C313 C 0.91595 0.39448 0.94257 0.0
O314 O 0.9033 0.3981 0.99038 0.0
O315 O 0.97318 0.38287 0.04132 0.0
O316 O 0.98272 0.38272 0.14551 0.0
O317 O 0.92815 0.41904 0.10806 0.0
O318 O 0.95488 0.41361 0.17344 0.0
C319 C 0.97587 0.37114 0.09061 0.0
C320 C 0.93731 0.41959 0.1663 0.0
O321 O 0.93515 0.39277 0.95787 0.0
Mg322 Mg 0.58116 0.46311 0.02976 0.0
O323 O 0.54703 0.46661 0.00336 0.0
O324 O 0.53654 0.4831 0.08908 0.0
Mg325 Mg 0.56163 0.48501 0.1772 0.0
C326 C 0.53332 0.47486 0.02921 0.0
C327 C 0.59778 0.45433 0.87945 0.0
O328 O 0.61156 0.44518 0.90522 0.0
O329 O 0.6046 0.50509 0.03028 0.0
O330 O 0.59623 0.51625 0.12972 0.0
O331 O 0.5583 0.42385 0.06594 0.0
O332 O 0.57068 0.45735 0.12921 0.0
C333 C 0.60904 0.52123 0.07633 0.0
C334 C 0.55835 0.43367 0.12347 0.0
O335 O 0.58585 0.46161 0.91758 0.0
Mg336 Mg 0.59203 0.84152 0.90346 0.0
O337 O 0.62715 0.84105 0.87317 0.0
O338 O 0.65763 0.86318 0.94278 0.0
Mg339 Mg 0.6393 0.8743 0.02876 0.0
C340 C 0.64951 0.84995 0.89017 0.0
C341 C 0.58108 0.80903 0.78389 0.0
O342 O 0.58574 0.79742 0.83277 0.0
O343 O 0.60769 0.88216 0.87559 0.0
O344 O 0.63073 0.90098 0.96503 0.0
O345 O 0.5802 0.8069 0.96383 0.0
O346 O 0.6018 0.84483 0.00369 0.0
C347 C 0.61995 0.90159 0.91088 0.0
C348 C 0.59134 0.82127 0.01379 0.0
O349 O 0.57962 0.82876 0.79721 0.0
Mg350 Mg 0.16619 0.74503 0.88466 0.0
O351 O 0.17296 0.78454 0.87101 0.0
O352 O 0.16046 0.7974 0.96015 0.0
Mg353 Mg 0.14955 0.76614 0.03814 0.0
C354 C 0.16932 0.80095 0.90118 0.0
C355 C 0.17483 0.73119 0.73328 0.0
O356 O 0.17449 0.7109 0.75705 0.0
O357 O 0.12464 0.73103 0.87602 0.0
O358 O 0.11556 0.74118 0.97618 0.0
O359 O 0.20373 0.75791 0.93087 0.0
O360 O 0.16968 0.74859 0.9874 0.0
C361 C 0.10902 0.73048 0.91931 0.0
C362 C 0.19286 0.75562 0.98777 0.0
O363 O 0.17144 0.74582 0.77237 0.0
Mg364 Mg 0.2672 0.45398 0.90558 0.0
O365 O 0.22741 0.42619 0.88808 0.0
O366 O 0.21595 0.39832 0.9698 0.0
Mg367 Mg 0.24689 0.41286 0.0491 0.0
C368 C 0.21157 0.40626 0.91491 0.0
C369 C 0.28628 0.47977 0.76391 0.0
O370 O 0.30685 0.49447 0.7946 0.0
O371 O 0.27945 0.42463 0.88487 0.0
O372 O 0.27335 0.40511 0.98311 0.0
O373 O 0.25664 0.47997 0.9604 0.0
O374 O 0.26336 0.45074 0.00712 0.0
C375 C 0.28252 0.40978 0.92435 0.0
C376 C 0.25799 0.4687 0.01397 0.0
O377 O 0.26869 0.46313 0.79652 0.0
Mg378 Mg 0.49912 0.90337 0.93677 0.0
O379 O 0.49474 0.93798 0.95656 0.0
O380 O 0.50525 0.96262 0.86737 0.0
Mg381 Mg 0.51264 0.94066 0.78388 0.0
C382 C 0.49787 0.95788 0.92775 0.0
C383 C 0.48127 0.89949 0.07839 0.0
O384 O 0.46455 0.90142 0.04146 0.0
O385 O 0.54071 0.92635 0.93461 0.0
O386 O 0.54789 0.944 0.83351 0.0
O387 O 0.45978 0.88237 0.90347 0.0
O388 O 0.49095 0.9052 0.83732 0.0
C389 C 0.55542 0.93888 0.88799 0.0
C390 C 0.46769 0.89185 0.84515 0.0
O391 O 0.499 0.89798 0.04995 0.0
Mg392 Mg 0.04548 0.61279 0.89482 0.0
O393 O 0.02402 0.57335 0.93729 0.0
O394 O 0.9931 0.5544 0.86862 0.0
Mg395 Mg 0.00055 0.59396 0.8512 0.0
C396 C 0.00619 0.55344 0.91643 0.0
C397 C 0.07389 0.60562 0.00977 0.0
O398 O 0.07536 0.59147 0.96213 0.0
O399 O 0.0221 0.6299 0.93773 0.0
O400 O 0.00959 0.63405 0.8399 0.0
O401 O 0.06518 0.5985 0.83297 0.0
O402 O 0.0338 0.60233 0.78703 0.0
C403 C 0.01918 0.64387 0.89525 0.0
C404 C 0.05259 0.59814 0.78105 0.0
O405 O 0.06447 0.61983 0.99622 0.0
Mg406 Mg 0.41437 0.49717 0.86414 0.0
O407 O 0.44509 0.48802 0.88825 0.0
O408 O 0.44779 0.4623 0.81366 0.0
Mg409 Mg 0.41922 0.458 0.73231 0.0
C410 C 0.45493 0.47495 0.8675 0.0
C411 C 0.44005 0.5268 0.98512 0.0
O412 O 0.45604 0.53538 0.9362 0.0
O413 O 0.38647 0.45801 0.89152 0.0
O414 O 0.3861 0.43589 0.8014 0.0
O415 O 0.43932 0.53039 0.80442 0.0
O416 O 0.41805 0.4927 0.76254 0.0
C417 C 0.37728 0.43787 0.85766 0.0
C418 C 0.43347 0.51566 0.75331 0.0
O419 O 0.41825 0.51057 0.97177 0.0
Mg420 Mg 0.09824 0.57064 0.39331 0.0
O421 O 0.05846 0.5444 0.41522 0.0
O422 O 0.04144 0.51542 0.33713 0.0
Mg423 Mg 0.0713 0.52607 0.25577 0.0
C424 C 0.0403 0.52508 0.39283 0.0
C425 C 0.08411 0.59019 0.51402 0.0
O426 O 0.07184 0.59285 0.46358 0.0
O427 O 0.10836 0.53973 0.41726 0.0
O428 O 0.095 0.51607 0.32509 0.0
O429 O 0.08881 0.59646 0.33265 0.0
O430 O 0.09261 0.56476 0.29136 0.0
C431 C 0.10652 0.52161 0.38077 0.0
C432 C 0.08834 0.58326 0.28131 0.0
O433 O 0.09988 0.5826 0.50216 0.0
Mg434 Mg 0.49339 0.57748 0.36449 0.0
O435 O 0.50354 0.54727 0.38939 0.0
O436 O 0.52792 0.5434 0.3136 0.0
Mg437 Mg 0.53098 0.57122 0.23081 0.0
C438 C 0.51629 0.53712 0.36882 0.0
C439 C 0.4647 0.55122 0.48552 0.0
O440 O 0.45653 0.53508 0.43629 0.0
O441 O 0.53241 0.60644 0.38906 0.0
O442 O 0.55319 0.60483 0.29849 0.0
O443 O 0.46031 0.55158 0.30526 0.0
O444 O 0.49738 0.57326 0.26304 0.0
C445 C 0.55196 0.6148 0.35373 0.0
C446 C 0.47471 0.55762 0.25396 0.0
O447 O 0.48041 0.57344 0.4726 0.0
Mg448 Mg 0.42795 0.90075 0.44418 0.0
O449 O 0.45354 0.94087 0.47052 0.0
O450 O 0.45514 0.96572 0.38725 0.0
Mg451 Mg 0.43261 0.93977 0.30081 0.0
C452 C 0.4614 0.96246 0.44581 0.0
C453 C 0.41799 0.87633 0.59529 0.0
O454 O 0.40244 0.85428 0.57275 0.0
O455 O 0.39383 0.90666 0.45094 0.0
O456 O 0.39527 0.92526 0.35343 0.0
O457 O 0.45951 0.89595 0.40175 0.0
O458 O 0.43626 0.90807 0.34399 0.0
C459 C 0.38398 0.91442 0.40669 0.0
C460 C 0.45471 0.90351 0.34588 0.0
O461 O 0.42824 0.89437 0.55517 0.0
Mg462 Mg 0.23573 0.50526 0.41041 0.0
O463 O 0.22412 0.46494 0.38396 0.0
O464 O 0.20216 0.4397 0.46572 0.0
Mg465 Mg 0.20272 0.46541 0.5518 0.0
C466 C 0.21173 0.44323 0.40755 0.0
C467 C 0.25855 0.50516 0.28009 0.0
O468 O 0.27068 0.49982 0.32587 0.0
O469 O 0.19625 0.49829 0.39904 0.0
O470 O 0.17834 0.47797 0.49307 0.0
O471 O 0.27095 0.50956 0.45636 0.0
O472 O 0.23586 0.49694 0.51063 0.0
C473 C 0.17793 0.48877 0.43875 0.0
C474 C 0.25829 0.50086 0.51021 0.0
O475 O 0.24314 0.51238 0.29901 0.0
Mg476 Mg 0.58411 0.75732 0.40399 0.0
O477 O 0.62265 0.78598 0.37909 0.0
O478 O 0.64985 0.78704 0.45367 0.0
Mg479 Mg 0.62626 0.76002 0.53675 0.0
C480 C 0.64463 0.79453 0.39932 0.0
C481 C 0.58171 0.78452 0.28285 0.0
O482 O 0.5888 0.80071 0.33201 0.0
O483 O 0.59384 0.72642 0.37895 0.0
O484 O 0.61481 0.7256 0.46996 0.0
O485 O 0.57699 0.78469 0.46342 0.0
O486 O 0.59201 0.76087 0.50501 0.0
C487 C 0.6041 0.71634 0.41454 0.0
C488 C 0.58511 0.77763 0.51447 0.0
O489 O 0.57541 0.76192 0.29618 0.0
Mg490 Mg 0.24592 0.79579 0.38258 0.0
O491 O 0.21516 0.80404 0.34901 0.0
O492 O 0.20719 0.82496 0.42849 0.0
Mg493 Mg 0.23131 0.82698 0.51933 0.0
C494 C 0.20324 0.81504 0.37047 0.0
C495 C 0.23438 0.76719 0.2511 0.0
O496 O 0.22219 0.75004 0.2956 0.0
O497 O 0.27462 0.8366 0.37481 0.0
O498 O 0.26772 0.85278 0.46814 0.0
O499 O 0.21831 0.75926 0.42632 0.0
O500 O 0.23507 0.79453 0.48233 0.0
C501 C 0.28069 0.85441 0.41671 0.0
C502 C 0.21965 0.77132 0.48069 0.0
O503 O 0.24939 0.78872 0.27161 0.0
C504 C 0.20939 0.14655 0.96963 0.0
C505 C 0.21419 0.12639 0.95755 0.0
H506 H 0.20595 0.17049 0.0434 0.0
C507 C 0.21891 0.1146 0.01178 0.0
H508 H 0.20561 0.15591 0.92866 0.0
C509 C 0.21871 0.12259 0.07673 0.0
C510 C 0.21403 0.14276 0.08923 0.0
H511 H 0.22246 0.09888 0.00435 0.0
H512 H 0.22253 0.11303 0.11713 0.0
C513 C 0.20949 0.15481 0.03513 0.0
C514 C 0.90824 0.15928 0.02252 0.0
C515 C 0.90116 0.14337 0.9669 0.0
H516 H 0.91043 0.16269 0.12843 0.0
C517 C 0.89 0.11756 0.97723 0.0
H518 H 0.91704 0.17924 0.01651 0.0
C519 C 0.88619 0.10793 0.04222 0.0
C520 C 0.89374 0.124 0.09767 0.0
H521 H 0.88448 0.10485 0.93523 0.0
H522 H 0.87747 0.088 0.04901 0.0
C523 C 0.9047 0.14974 0.08695 0.0
C524 C 0.88058 0.71939 0.02898 0.0
C525 C 0.86465 0.7136 0.08394 0.0
H526 H 0.88399 0.72089 0.92228 0.0
C527 C 0.83929 0.7037 0.07248 0.0
H528 H 0.90019 0.72679 0.03627 0.0
C529 C 0.83005 0.70011 0.00765 0.0
C530 C 0.84592 0.70632 0.95258 0.0
H531 H 0.82646 0.69877 0.11365 0.0
H532 H 0.81045 0.69295 0.00091 0.0
C533 C 0.87128 0.71577 0.96377 0.0
C534 C 0.1215 0.30212 0.45095 0.0
C535 C 0.13926 0.29442 0.43572 0.0
H536 H 0.09855 0.30583 0.52514 0.0
C537 C 0.14833 0.28516 0.48715 0.0
H538 H 0.11419 0.30945 0.41262 0.0
C539 C 0.13943 0.28328 0.55239 0.0
C540 C 0.12132 0.2906 0.56711 0.0
H541 H 0.16213 0.2792 0.47696 0.0
H542 H 0.14642 0.27572 0.59093 0.0
C543 C 0.11261 0.30019 0.51576 0.0
C544 C 0.76981 0.84602 0.42807 0.0
C545 C 0.78247 0.87168 0.41635 0.0
H546 H 0.7561 0.81692 0.4998 0.0
C547 C 0.79108 0.88804 0.47103 0.0
H548 H 0.76266 0.83289 0.38715 0.0
C549 C 0.78734 0.87877 0.53634 0.0
C550 C 0.77462 0.85306 0.54766 0.0
H551 H 0.80075 0.90793 0.46336 0.0
H552 H 0.79442 0.89167 0.57776 0.0
C553 C 0.76581 0.83684 0.49287 0.0
C554 C 0.09425 0.85869 0.53014 0.0
C555 C 0.11782 0.87812 0.54337 0.0
H556 H 0.06903 0.83513 0.45575 0.0
C557 C 0.13444 0.88827 0.49036 0.0
H558 H 0.08101 0.85056 0.56999 0.0
C559 C 0.12759 0.8796 0.4254 0.0
C560 C 0.10391 0.86056 0.41167 0.0
H561 H 0.15268 0.90334 0.49858 0.0
H562 H 0.14089 0.88806 0.38582 0.0
C563 C 0.08736 0.84995 0.46476 0.0
C564 C 0.77385 0.88944 0.99427 0.0
C565 C 0.77885 0.87775 0.04826 0.0
H566 H 0.77033 0.89122 0.88893 0.0
C567 C 0.78417 0.85796 0.03581 0.0
H568 H 0.76989 0.90489 0.00202 0.0
C569 C 0.78436 0.84999 0.97018 0.0
C570 C 0.7796 0.86198 0.91632 0.0
H571 H 0.78818 0.8487 0.07659 0.0
H572 H 0.78833 0.83459 0.96161 0.0
C573 C 0.77435 0.88174 0.92918 0.0
C574 C 0.08921 0.83775 0.98504 0.0
C575 C 0.09639 0.85365 0.04066 0.0
H576 H 0.08792 0.83437 0.87908 0.0
C577 C 0.10849 0.87947 0.03031 0.0
H578 H 0.07966 0.81779 0.99103 0.0
C579 C 0.11317 0.88912 0.96532 0.0
C580 C 0.10569 0.87307 0.90982 0.0
H581 H 0.11411 0.89219 0.07228 0.0
H582 H 0.12261 0.90905 0.9586 0.0
C583 C 0.09376 0.84732 0.92057 0.0
C584 C 0.15241 0.29473 0.94435 0.0
C585 C 0.12691 0.28329 0.93354 0.0
H586 H 0.18171 0.30897 0.01497 0.0
C587 C 0.11117 0.27822 0.98871 0.0
H588 H 0.16512 0.29928 0.90299 0.0
C589 C 0.12081 0.28401 0.05354 0.0
C590 C 0.14633 0.29505 0.06411 0.0
H591 H 0.09146 0.26972 0.98188 0.0
H592 H 0.10827 0.27934 0.09533 0.0
C593 C 0.16198 0.30059 0.00872 0.0
C594 C 0.88222 0.70294 0.50522 0.0
C595 C 0.87286 0.71109 0.45207 0.0
H596 H 0.88119 0.69559 0.60956 0.0
C597 C 0.85437 0.71804 0.46488 0.0
H598 H 0.89663 0.69767 0.49732 0.0
C599 C 0.84561 0.71708 0.52991 0.0
C600 C 0.85518 0.70909 0.58302 0.0
H601 H 0.84688 0.72451 0.42491 0.0
H602 H 0.83141 0.72262 0.53854 0.0
C603 C 0.87344 0.70189 0.56983 0.0
C604 C 0.2034 0.11682 0.53415 0.0
C605 C 0.21214 0.13314 0.58891 0.0
H606 H 0.19987 0.11327 0.42743 0.0
C607 C 0.22489 0.1588 0.57727 0.0
H608 H 0.19365 0.09694 0.54174 0.0
C609 C 0.22881 0.16802 0.5125 0.0
C610 C 0.21983 0.15186 0.45764 0.0
H611 H 0.23214 0.1719 0.61824 0.0
H612 H 0.23856 0.18794 0.50567 0.0
C613 C 0.20706 0.12614 0.46889 0.0
C614 C 0.87344 0.1171 0.58319 0.0
C615 C 0.8969 0.13646 0.5971 0.0
H616 H 0.84865 0.09321 0.50993 0.0
C617 C 0.91358 0.14719 0.54431 0.0
H618 H 0.86005 0.10851 0.62251 0.0
C619 C 0.90693 0.13834 0.47887 0.0
C620 C 0.88346 0.11881 0.46544 0.0
H621 H 0.93177 0.16223 0.5536 0.0
H622 H 0.92017 0.14663 0.43908 0.0
C623 C 0.8668 0.10842 0.51828 0.0
C624 C 0.9164 0.44094 0.22588 0.0
C625 C 0.92581 0.42381 0.22619 0.0
H626 H 0.90047 0.45962 0.28407 0.0
C627 C 0.92448 0.41068 0.28491 0.0
H628 H 0.91724 0.45126 0.18104 0.0
C629 C 0.91425 0.41482 0.3427 0.0
C630 C 0.90573 0.43267 0.34353 0.0
H631 H 0.9314 0.39719 0.28623 0.0
H632 H 0.91397 0.40473 0.38754 0.0
C633 C 0.90679 0.44565 0.28455 0.0
C634 C 0.53273 0.4267 0.22446 0.0
C635 C 0.54588 0.41871 0.18231 0.0
H636 H 0.5168 0.42421 0.3205 0.0
C637 C 0.5507 0.39932 0.20307 0.0
H638 H 0.52868 0.44153 0.20922 0.0
C639 C 0.54433 0.3896 0.26774 0.0
C640 C 0.53271 0.39891 0.31188 0.0
H641 H 0.56104 0.39304 0.17136 0.0
H642 H 0.54966 0.37579 0.28424 0.0
C643 C 0.52593 0.41671 0.28826 0.0
C644 C 0.53093 0.09681 0.3758 0.0
C645 C 0.5553 0.10069 0.37425 0.0
H646 H 0.49864 0.08945 0.3201 0.0
C647 C 0.56597 0.10005 0.31269 0.0
H648 H 0.5221 0.09673 0.42274 0.0
C649 C 0.55257 0.09631 0.25329 0.0
C650 C 0.52811 0.09228 0.25526 0.0
H651 H 0.58467 0.10277 0.31051 0.0
H652 H 0.56121 0.09637 0.20608 0.0
C653 C 0.5174 0.09233 0.31709 0.0
C654 C 0.75521 0.47407 0.90571 0.0
C655 C 0.76405 0.49092 0.85231 0.0
H656 H 0.744 0.46878 0.00868 0.0
C657 C 0.77226 0.51631 0.86506 0.0
H658 H 0.74893 0.45443 0.89745 0.0
C659 C 0.76955 0.52441 0.92805 0.0
C660 C 0.75865 0.50737 0.97988 0.0
H661 H 0.77975 0.5299 0.82544 0.0
H662 H 0.77492 0.5439 0.93523 0.0
C663 C 0.75254 0.48229 0.96935 0.0
C664 C 0.41993 0.22664 0.85049 0.0
C665 C 0.41052 0.21008 0.79642 0.0
H666 H 0.42489 0.23065 0.95678 0.0
C667 C 0.39772 0.18449 0.80904 0.0
H668 H 0.4297 0.24648 0.84221 0.0
C669 C 0.39468 0.17553 0.874 0.0
C670 C 0.4045 0.19191 0.92812 0.0
H671 H 0.38993 0.1712 0.76866 0.0
H672 H 0.38504 0.15564 0.88146 0.0
C673 C 0.41704 0.21759 0.91595 0.0
C674 C 0.78823 0.23193 0.83043 0.0
C675 C 0.76486 0.2113 0.83221 0.0
H676 H 0.82025 0.2562 0.88545 0.0
C677 C 0.75537 0.19965 0.8936 0.0
H678 H 0.7962 0.24097 0.78359 0.0
C679 C 0.76902 0.20876 0.95247 0.0
C680 C 0.79267 0.229 0.95004 0.0
H681 H 0.73749 0.18354 0.89596 0.0
H682 H 0.76137 0.19968 -0.00053 0.0
C683 C 0.80213 0.24044 0.88856 0.0
C684 C 0.4142 0.19576 0.41597 0.0
C685 C 0.40713 0.21437 0.42809 0.0
H686 H 0.42142 0.17429 0.34206 0.0
C687 C 0.40162 0.22551 0.37375 0.0
H688 H 0.4187 0.18696 0.45697 0.0
C689 C 0.40359 0.21865 0.3087 0.0
C690 C 0.41091 0.20029 0.29614 0.0
H691 H 0.39627 0.24002 0.38114 0.0
H692 H 0.39921 0.22775 0.2682 0.0
C693 C 0.41595 0.18867 0.35034 0.0
C694 C 0.80959 0.25083 0.42806 0.0
C695 C 0.78575 0.23157 0.43827 0.0
H696 H 0.83631 0.27384 0.35567 0.0
C697 C 0.76998 0.22157 0.38337 0.0
H698 H 0.82201 0.25884 0.46984 0.0
C699 C 0.77772 0.2306 0.3194 0.0
C700 C 0.80167 0.2494 0.30842 0.0
H701 H 0.75141 0.20689 0.38992 0.0
H702 H 0.76506 0.22232 0.27819 0.0
C703 C 0.81769 0.2594 0.36312 0.0
C704 C 0.70119 0.47981 0.44544 0.0
C705 C 0.71884 0.50075 0.47903 0.0
H706 H 0.68299 0.46509 0.35211 0.0
C707 C 0.72841 0.52402 0.44825 0.0
H708 H 0.69393 0.46161 0.46816 0.0
C709 C 0.7225 0.52602 0.38215 0.0
C710 C 0.70695 0.50471 0.34571 0.0
H711 H 0.74213 0.54037 0.47341 0.0
H712 H 0.73152 0.54401 0.35821 0.0
C713 C 0.69515 0.48179 0.37895 0.0
C714 C 0.51203 0.1032 0.78038 0.0
C715 C 0.53684 0.10995 0.76868 0.0
H716 H 0.48465 0.09798 0.8542 0.0
C717 C 0.55366 0.11889 0.82172 0.0
H718 H 0.4988 0.09635 0.73995 0.0
C719 C 0.54586 0.12058 0.88579 0.0
C720 C 0.52091 0.11272 0.89872 0.0
H721 H 0.57298 0.12454 0.8137 0.0
H722 H 0.55932 0.12709 0.9257 0.0
C723 C 0.50402 0.1042 0.84542 0.0
C724 C 0.92 0.39817 0.75322 0.0
C725 C 0.90685 0.41141 0.74003 0.0
H726 H 0.93348 0.38247 0.82888 0.0
C727 C 0.89512 0.41696 0.79281 0.0
H728 H 0.92905 0.39356 0.71315 0.0
C729 C 0.897 0.4101 0.85789 0.0
C730 C 0.91114 0.398 0.87215 0.0
H731 H 0.8845 0.42679 0.78387 0.0
H732 H 0.88814 0.41524 0.89736 0.0
C733 C 0.92243 0.3918 0.81918 0.0
C734 C 0.56842 0.45786 0.71756 0.0
C735 C 0.57248 0.44122 0.6774 0.0
H736 H 0.57386 0.4756 0.81244 0.0
C737 C 0.58862 0.43227 0.69954 0.0
H738 H 0.55618 0.46511 0.70114 0.0
C739 C 0.5986 0.43798 0.76414 0.0
C740 C 0.59256 0.45276 0.80685 0.0
H741 H 0.59175 0.41917 0.66939 0.0
H742 H 0.60952 0.4294 0.78209 0.0
C743 C 0.57849 0.46373 0.78143 0.0
C744 C 0.58881 0.78282 0.70179 0.0
C745 C 0.58156 0.80122 0.71437 0.0
H746 H 0.59604 0.7614 0.62928 0.0
C747 C 0.57627 0.81268 0.66021 0.0
H748 H 0.59331 0.77379 0.74224 0.0
C749 C 0.5779 0.80551 0.59459 0.0
C750 C 0.58508 0.78699 0.58243 0.0
H751 H 0.57083 0.82708 0.6685 0.0
H752 H 0.57336 0.81429 0.55361 0.0
C753 C 0.59065 0.77587 0.63673 0.0
C754 C 0.19996 0.73506 0.55798 0.0
C755 C 0.20449 0.75911 0.53954 0.0
H756 H 0.18707 0.70721 0.63452 0.0
C757 C 0.1965 0.77242 0.58145 0.0
H758 H 0.20594 0.72441 0.52626 0.0
C759 C 0.18558 0.76261 0.64263 0.0
C760 C 0.18266 0.73933 0.66378 0.0
H761 H 0.19911 0.79067 0.56771 0.0
H762 H 0.18037 0.77384 0.67452 0.0
C763 C 0.18925 0.72528 0.61995 0.0
C764 C 0.25403 0.47112 0.59918 0.0
C765 C 0.26831 0.49394 0.56818 0.0
H766 H 0.24886 0.44856 0.68487 0.0
C767 C 0.29059 0.51089 0.59732 0.0
H768 H 0.2372 0.45746 0.5764 0.0
C769 C 0.29742 0.50585 0.65999 0.0
C770 C 0.28202 0.48375 0.69351 0.0
H771 H 0.30188 0.5286 0.57373 0.0
H772 H 0.31396 0.51975 0.68357 0.0
C773 C 0.26083 0.46603 0.66114 0.0
C774 C 0.47875 0.92376 0.17399 0.0
C775 C 0.48099 0.90313 0.1508 0.0
H776 H 0.46981 0.94062 0.25585 0.0
C777 C 0.4795 0.88493 0.19628 0.0
H778 H 0.48049 0.93832 0.14014 0.0
C779 C 0.47328 0.88623 0.26316 0.0
C780 C 0.46859 0.90572 0.28436 0.0
H781 H 0.48121 0.86888 0.17916 0.0
H782 H 0.4701 0.87101 0.29648 0.0
C783 C 0.47268 0.9251 0.24022 0.0
C784 C 0.07531 0.61446 0.1332 0.0
C785 C 0.07885 0.60142 0.07959 0.0
H786 H 0.07538 0.61887 0.23981 0.0
C787 C 0.08536 0.58258 0.09331 0.0
H788 H 0.07012 0.62899 0.12416 0.0
C789 C 0.08795 0.5766 0.15882 0.0
C790 C 0.08426 0.5894 0.21261 0.0
H791 H 0.08812 0.57205 0.0534 0.0
H792 H 0.09306 0.56198 0.16707 0.0
C793 C 0.07811 0.60856 0.19931 0.0
C794 C 0.47323 0.55029 0.0669 0.0
C795 C 0.44833 0.53425 0.05454 0.0
H796 H 0.50098 0.56992 0.13903 0.0
C797 C 0.43211 0.52495 0.10885 0.0
H798 H 0.48629 0.55766 0.02635 0.0
C799 C 0.44067 0.53195 0.17429 0.0
C800 C 0.46559 0.54823 0.18624 0.0
H801 H 0.41284 0.5124 0.10083 0.0
H802 H 0.42777 0.52488 0.21529 0.0
C803 C 0.48173 0.55717 0.13183 0.0
C804 C 0.04891 0.59887 0.65725 0.0
C805 C 0.06094 0.59574 0.71335 0.0
H806 H 0.04701 0.59996 0.5512 0.0
C807 C 0.08122 0.59121 0.70363 0.0
H808 H 0.03329 0.60247 0.6627 0.0
C809 C 0.08917 0.58973 0.63889 0.0
C810 C 0.07707 0.59294 0.58297 0.0
H811 H 0.09091 0.58877 0.7459 0.0
H812 H 0.10467 0.58597 0.63266 0.0
C813 C 0.05692 0.59758 0.59304 0.0
C814 C 0.43459 0.5086 0.63112 0.0
C815 C 0.44291 0.52491 0.68581 0.0
H816 H 0.43473 0.50416 0.52559 0.0
C817 C 0.45876 0.5502 0.67446 0.0
H818 H 0.42223 0.48906 0.63794 0.0
C819 C 0.4659 0.55899 0.60935 0.0
C820 C 0.4572 0.54263 0.55468 0.0
H821 H 0.46538 0.56323 0.71568 0.0
H822 H 0.47807 0.57855 0.60186 0.0
C823 C 0.44163 0.51735 0.56644 0.0
C824 C 0.43311 0.86417 0.7708 0.0
C825 C 0.45098 0.88809 0.78894 0.0
H826 H 0.40846 0.84143 0.69407 0.0
C827 C 0.45513 0.90821 0.74772 0.0
H828 H 0.42969 0.84839 0.80216 0.0
C829 C 0.443 0.90437 0.68683 0.0
C830 C 0.42667 0.88022 0.66534 0.0
H831 H 0.46843 0.92688 0.7615 0.0
H832 H 0.4474 0.92032 0.65517 0.0
C833 C 0.42107 0.86021 0.70901 0.0
C834 C 0.26841 0.48058 0.19804 0.0
C835 C 0.25877 0.49711 0.21064 0.0
H836 H 0.2748 0.45811 0.12726 0.0
C837 C 0.24805 0.50397 0.15781 0.0
H838 H 0.27655 0.47463 0.23758 0.0
C839 C 0.24735 0.49459 0.09324 0.0
C840 C 0.25676 0.47777 0.08145 0.0
H841 H 0.24033 0.51656 0.16634 0.0
H842 H 0.23944 0.5004 0.05284 0.0
C843 C 0.26711 0.4708 0.13466 0.0
C844 C 0.59983 0.82784 0.13554 0.0
C845 C 0.59038 0.81136 0.08149 0.0
H846 H 0.60418 0.83229 0.24104 0.0
C847 C 0.57826 0.78568 0.09381 0.0
H848 H 0.60917 0.84773 0.12789 0.0
C849 C 0.57532 0.77672 0.15932 0.0
C850 C 0.58425 0.79335 0.21334 0.0
H851 H 0.5707 0.77254 0.05304 0.0
H852 H 0.56583 0.75688 0.16767 0.0
C853 C 0.59673 0.81896 0.20064 0.0
C854 C 0.20294 0.74327 0.1657 0.0
C855 C 0.226 0.76313 0.18072 0.0
H856 H 0.1745 0.72589 0.09341 0.0
C857 C 0.23917 0.78001 0.12973 0.0
H858 H 0.1922 0.72995 0.20355 0.0
C859 C 0.22904 0.7773 0.06537 0.0
C860 C 0.20538 0.75815 0.05219 0.0
H861 H 0.25696 0.79554 0.13997 0.0
H862 H 0.23918 0.79067 0.02699 0.0
C863 C 0.19266 0.74103 0.10261 0.0
C864 C 0.25679 0.29951 0.30871 0.0
C865 C 0.252 0.30338 0.24242 0.0
H866 H 0.26628 0.27777 0.37504 0.0
C867 C 0.25856 0.29197 0.19045 0.0
H868 H 0.25193 0.30813 0.34955 0.0
C869 C 0.26599 0.27396 0.20498 0.0
C870 C 0.26776 0.26782 0.27157 0.0
H871 H 0.255 0.29458 0.1388 0.0
H872 H 0.26808 0.26326 0.1644 0.0
C873 C 0.26505 0.28213 0.32315 0.0
C874 C 0.7688 0.98949 0.18802 0.0
C875 C 0.76202 0.97138 0.23829 0.0
H876 H 0.78752 0.02835 0.16539 0.0
C877 C 0.76413 0.97864 0.30548 0.0
H878 H 0.76751 0.98435 0.13576 0.0
C879 C 0.77481 0.00378 0.32225 0.0
C880 C 0.78429 0.02193 0.27203 0.0
H881 H 0.75906 0.96497 0.34496 0.0
H882 H 0.77788 0.00898 0.37454 0.0
C883 C 0.78029 0.01465 0.20481 0.0
C884 C 0.99024 0.71727 0.30773 0.0
C885 C 0.97219 0.70748 0.25753 0.0
H886 H 0.02771 0.74259 0.33076 0.0
C887 C 0.97945 0.71126 0.19034 0.0
H888 H 0.98511 0.71482 0.36001 0.0
C889 C 0.00399 0.72657 0.17368 0.0
C890 C 0.02142 0.739 0.224 0.0
H891 H 0.96587 0.70399 0.15081 0.0
H892 H 0.00869 0.73071 0.12144 0.0
C893 C 0.01462 0.73328 0.29111 0.0
C894 C 0.73469 0.7136 0.81889 0.0
C895 C 0.74196 0.70232 0.7682 0.0
H896 H 0.72452 0.74206 0.84244 0.0
C897 C 0.73777 0.70603 0.70125 0.0
H898 H 0.73778 0.71109 0.871 0.0
C899 C 0.72941 0.72319 0.68506 0.0
C900 C 0.72598 0.7374 0.73561 0.0
H901 H 0.74319 0.69749 0.66138 0.0
H902 H 0.72867 0.72749 0.63286 0.0
C903 C 0.72715 0.73138 0.80267 0.0
C904 C 0.22923 0.02527 0.70107 0.0
C905 C 0.23137 0.03261 0.76822 0.0
H906 H 0.21678 0.99481 0.6324 0.0
C907 C 0.22544 0.01466 0.81864 0.0
H908 H 0.23364 0.03878 0.66144 0.0
C909 C 0.21508 0.9895 0.80217 0.0
C910 C 0.21135 0.98205 0.73506 0.0
H911 H 0.22674 0.01983 0.87088 0.0
H912 H 0.20871 0.97583 0.84178 0.0
C913 C 0.21968 0.00016 0.68461 0.0
C914 C 0.98849 0.27146 0.84183 0.0
C915 C 0.97183 0.25938 0.78961 0.0
H916 H 0.02622 0.29411 0.86859 0.0
C917 C 0.97941 0.26602 0.72336 0.0
H918 H 0.98317 0.2666 0.89345 0.0
C919 C 0.0039 0.28251 0.70937 0.0
C920 C 0.02125 0.29183 0.76137 0.0
H921 H 0.96691 0.25697 0.68232 0.0
H922 H 0.00972 0.28561 0.65764 0.0
C923 C 0.01316 0.28722 0.82777 0.0
C924 C 0.84835 0.50838 0.51232 0.0
C925 C 0.84061 0.51616 0.5698 0.0
H926 H 0.87043 0.49242 0.47317 0.0
C927 C 0.85232 0.51761 0.63085 0.0
H928 H 0.83945 0.507 0.46462 0.0
C929 C 0.87041 0.50989 0.63536 0.0
C930 C 0.87655 0.49984 0.57928 0.0
H931 H 0.84669 0.52362 0.67571 0.0
H932 H 0.87819 0.51008 0.68408 0.0
C933 C 0.86598 0.49996 0.51718 0.0
C934 C 0.41081 0.33163 0.53897 0.0
C935 C 0.40553 0.31718 0.59742 0.0
H936 H 0.43518 0.36591 0.49194 0.0
C937 C 0.41629 0.32887 0.65792 0.0
H938 H 0.40275 0.32327 0.49144 0.0
C939 C 0.43445 0.35361 0.65827 0.0
C940 C 0.4425 0.3667 0.59787 0.0
H941 H 0.41245 0.31828 0.70376 0.0
H942 H 0.44408 0.36141 0.70462 0.0
C943 C 0.4295 0.35608 0.53897 0.0
C944 C 0.64806 0.10333 0.5504 0.0
C945 C 0.63737 0.09899 0.61405 0.0
H946 H 0.6813 0.12028 0.49375 0.0
C947 C 0.65273 0.10598 0.67077 0.0
H948 H 0.63668 0.09821 0.50597 0.0
C949 C 0.67821 0.1193 0.6639 0.0
C950 C 0.68881 0.12508 0.60022 0.0
H951 H 0.64502 0.10306 0.72059 0.0
H952 H 0.68951 0.12622 0.70823 0.0
C953 C 0.67361 0.1159 0.54358 0.0
C954 C 0.38034 0.06782 0.05303 0.0
C955 C 0.37512 0.07886 0.10851 0.0
H956 H 0.40197 0.05107 0.01606 0.0
C957 C 0.38124 0.07417 0.17266 0.0
H958 H 0.37579 0.07102 0.00288 0.0
C959 C 0.39565 0.06202 0.18022 0.0
C960 C 0.40464 0.05513 0.12357 0.0
H961 H 0.37731 0.08234 0.21623 0.0
H962 H 0.40242 0.06116 0.22964 0.0
C963 C 0.39542 0.05643 0.06039 0.0
C964 C 0.94837 0.33197 0.1495 0.0
C965 C 0.96112 0.34385 0.09116 0.0
H966 H 0.91661 0.30129 0.19005 0.0
C967 C 0.9548 0.33072 0.03052 0.0
H968 H 0.95284 0.34154 0.19715 0.0
C969 C 0.93422 0.30744 0.02671 0.0
C970 C 0.91937 0.2972 0.08328 0.0
H971 H 0.96442 0.33938 0.98491 0.0
H972 H 0.92864 0.29875 0.9781 0.0
C973 C 0.92746 0.30894 0.14544 0.0
C974 C 0.67177 0.56315 0.1381 0.0
C975 C 0.68498 0.56646 0.07849 0.0
H976 H 0.63641 0.54675 0.18396 0.0
C977 C 0.67242 0.56269 0.0173 0.0
H978 H 0.68098 0.56639 0.18601 0.0
C979 C 0.64676 0.55085 0.01603 0.0
C980 C 0.63347 0.5433 0.07593 0.0
H981 H 0.68205 0.5655 0.97026 0.0
H982 H 0.63748 0.545 0.96831 0.0
C983 C 0.64612 0.55185 0.13679 0.0
C984 C 0.59144 0.94169 0.95192 0.0
C985 C 0.58045 0.94126 0.89013 0.0
H986 H 0.61452 0.9305 0.00641 0.0
C987 C 0.58995 0.93577 0.8321 0.0
H988 H 0.58469 0.94619 0.99728 0.0
C989 C 0.60658 0.9261 0.83739 0.0
C990 C 0.61433 0.92249 0.90058 0.0
H991 H 0.582 0.93551 0.78357 0.0
H992 H 0.6109 0.91862 0.79305 0.0
C993 C 0.60866 0.93276 0.95695 0.0
C994 C 0.05124 0.68152 0.83964 0.0
C995 C 0.03713 0.67041 0.89683 0.0
H996 H 0.08549 0.70949 0.80182 0.0
C997 C 0.04453 0.68261 0.9585 0.0
H998 H 0.04604 0.67247 0.79135 0.0
C999 C 0.06696 0.70405 0.96429 0.0
C1000 C 0.08266 0.71326 0.90874 0.0
H1001 H 0.03397 0.67442 0.00325 0.0
H1002 H 0.07294 0.7119 0.01363 0.0
C1003 C 0.07397 0.70264 0.84567 0.0
C1004 C 0.32042 0.40825 0.95947 0.0
C1005 C 0.3031 0.40445 0.90892 0.0
H1006 H 0.35862 0.4223 0.98232 0.0
C1007 C 0.30966 0.40372 0.84208 0.0
H1008 H 0.31588 0.4088 0.01154 0.0
C1009 C 0.33409 0.41075 0.82555 0.0
C1010 C 0.35223 0.41925 0.87562 0.0
H1011 H 0.2966 0.40065 0.80226 0.0
H1012 H 0.33916 0.41291 0.77322 0.0
C1013 C 0.34498 0.41605 0.94284 0.0
C1014 C 0.12826 0.5079 0.46382 0.0
C1015 C 0.12142 0.5091 0.39759 0.0
H1016 H 0.15123 0.49964 0.52888 0.0
C1017 C 0.13129 0.50079 0.34572 0.0
H1018 H 0.1209 0.51417 0.5046 0.0
C1019 C 0.14903 0.49316 0.35933 0.0
C1020 C 0.15663 0.49296 0.42518 0.0
H1021 H 0.12647 0.50164 0.29406 0.0
H1022 H 0.15735 0.48813 0.31822 0.0
C1023 C 0.1455 0.49951 0.47761 0.0
C1024 C 0.58243 0.65698 0.31815 0.0
C1025 C 0.57177 0.63964 0.36991 0.0
H1026 H 0.60115 0.69551 0.29191 0.0
C1027 C 0.57665 0.64767 0.43646 0.0
H1028 H 0.57883 0.65125 0.26631 0.0
C1029 C 0.59014 0.67293 0.45098 0.0
C1030 C 0.59815 0.69049 0.39909 0.0
H1031 H 0.56863 0.63464 0.4771 0.0
H1032 H 0.59206 0.6788 0.50274 0.0
C1033 C 0.59517 0.6823 0.33263 0.0
C1034 C 0.34333 0.89805 0.34991 0.0
C1035 C 0.35712 0.90535 0.40948 0.0
H1036 H 0.30807 0.87576 0.30534 0.0
C1037 C 0.34471 0.8994 0.47082 0.0
H1038 H 0.35238 0.9022 0.30175 0.0
C1039 C 0.31921 0.88482 0.47265 0.0
C1040 C 0.3058 0.87529 0.41323 0.0
H1041 H 0.35485 0.90475 0.5174 0.0
H1042 H 0.31036 0.87925 0.52088 0.0
C1043 C 0.31795 0.8828 0.3518 0.0
C1044 C 0.32226 0.18122 0.2566 0.0
C1045 C 0.2982 0.175 0.23659 0.0
H1046 H 0.35546 0.1795 0.23473 0.0
C1047 C 0.28909 0.16127 0.1771 0.0
H1048 H 0.32988 0.19171 0.30203 0.0
C1049 C 0.30379 0.15422 0.13822 0.0
C1050 C 0.32797 0.16074 0.15781 0.0
H1051 H 0.2706 0.15607 0.16006 0.0
H1052 H 0.29627 0.1439 0.09251 0.0
C1053 C 0.33694 0.17419 0.21775 0.0
C1054 C 0.82527 0.17899 0.21348 0.0
C1055 C 0.83618 0.18305 0.14967 0.0
H1056 H 0.81606 0.15742 0.30348 0.0
C1057 C 0.84533 0.16706 0.12694 0.0
H1058 H 0.81791 0.19091 0.23251 0.0
C1059 C 0.84431 0.14799 0.16769 0.0
C1060 C 0.83401 0.14431 0.23219 0.0
H1061 H 0.85381 0.16957 0.0782 0.0
H1062 H 0.85189 0.13628 0.14866 0.0
C1063 C 0.82412 0.15977 0.25422 0.0
C1064 C 0.8211 0.62285 0.1335 0.0
C1065 C 0.80555 0.59981 0.16228 0.0
H1066 H 0.85284 0.6579 0.14457 0.0
C1067 C 0.81143 0.59434 0.22619 0.0
H1068 H 0.81728 0.62773 0.08441 0.0
C1069 C 0.83212 0.61173 0.2609 0.0
C1070 C 0.84723 0.63501 0.23263 0.0
H1071 H 0.79994 0.57669 0.24976 0.0
H1072 H 0.83587 0.60719 0.31048 0.0
C1073 C 0.84158 0.6402 0.1682 0.0
C1074 C 0.21959 0.42556 0.30194 0.0
C1075 C 0.20846 0.42173 0.36537 0.0
H1076 H 0.22577 0.40915 0.21377 0.0
C1077 C 0.19426 0.39728 0.38757 0.0
H1078 H 0.23057 0.44413 0.28301 0.0
C1079 C 0.19138 0.3772 0.3476 0.0
C1080 C 0.20271 0.38102 0.28443 0.0
H1081 H 0.18537 0.3936 0.43591 0.0
H1082 H 0.18038 0.35863 0.3667 0.0
C1083 C 0.21681 0.40547 0.26204 0.0
C1084 C 0.68907 0.82369 0.37572 0.0
C1085 C 0.66426 0.81335 0.35702 0.0
H1086 H 0.72618 0.849 0.35135 0.0
C1087 C 0.65814 0.82106 0.29652 0.0
H1088 H 0.69447 0.8182 0.42175 0.0
C1089 C 0.67631 0.83871 0.25595 0.0
C1090 C 0.70111 0.84914 0.27474 0.0
H1091 H 0.63923 0.81347 0.28019 0.0
H1092 H 0.67087 0.84422 0.21001 0.0
C1093 C 0.70726 0.84136 0.3351 0.0
C1094 C 0.16916 0.82618 0.34999 0.0
C1095 C 0.18334 0.81492 0.32786 0.0
H1096 H 0.13874 0.83323 0.33127 0.0
C1097 C 0.17757 0.80248 0.26576 0.0
H1098 H 0.17304 0.83593 0.39735 0.0
C1099 C 0.15774 0.80084 0.22761 0.0
C1100 C 0.14322 0.81162 0.25059 0.0
H1101 H 0.18811 0.79358 0.24696 0.0
H1102 H 0.15361 0.79082 0.18063 0.0
C1103 C 0.1494 0.82457 0.31189 0.0
C1104 C 0.70512 0.84427 0.82717 0.0
C1105 C 0.69593 0.83023 0.76817 0.0
H1106 H 0.69788 0.8616 0.91176 0.0
C1107 C 0.67169 0.82351 0.74886 0.0
H1108 H 0.72375 0.84986 0.84366 0.0
C1109 C 0.65689 0.83028 0.78805 0.0
C1110 C 0.66593 0.84398 0.84761 0.0
H1111 H 0.664 0.81277 0.70383 0.0
H1112 H 0.63822 0.82453 0.7717 0.0
C1113 C 0.69031 0.85108 0.86636 0.0
C1114 C 0.16318 0.83868 0.88632 0.0
C1115 C 0.17299 0.82332 0.86304 0.0
H1116 H 0.15483 0.86834 0.86459 0.0
C1117 C 0.1842 0.82808 0.79953 0.0
H1118 H 0.15443 0.8356 0.93481 0.0
C1119 C 0.18446 0.84696 0.75895 0.0
C1120 C 0.17336 0.86134 0.78083 0.0
H1121 H 0.19206 0.81667 0.78008 0.0
H1122 H 0.19243 0.84957 0.70951 0.0
C1123 C 0.16329 0.85739 0.84567 0.0
C1124 C 0.17081 0.3683 0.90393 0.0
C1125 C 0.1881 0.39135 0.87888 0.0
H1126 H 0.13737 0.33528 0.88706 0.0
C1127 C 0.18331 0.39943 0.81707 0.0
H1128 H 0.17372 0.36152 0.95141 0.0
C1129 C 0.16233 0.38426 0.7798 0.0
C1130 C 0.14575 0.36069 0.80347 0.0
H1131 H 0.19615 0.41717 0.79634 0.0
H1132 H 0.15967 0.39057 0.73134 0.0
C1133 C 0.14993 0.35321 0.86677 0.0
C1134 C 0.7767 0.5993 0.75875 0.0
C1135 C 0.78933 0.62344 0.73307 0.0
H1136 H 0.76406 0.56056 0.74196 0.0
C1137 C 0.79907 0.62666 0.66793 0.0
H1138 H 0.76902 0.59612 0.80863 0.0
C1139 C 0.79608 0.60623 0.6293 0.0
C1140 C 0.78348 0.58209 0.65504 0.0
H1141 H 0.80889 0.64501 0.64635 0.0
H1142 H 0.80375 0.6094 0.57942 0.0
C1143 C 0.77389 0.5789 0.72035 0.0
C1144 C 0.31734 0.16645 0.75672 0.0
C1145 C 0.29267 0.15585 0.73652 0.0
H1146 H 0.35452 0.19216 0.73459 0.0
C1147 C 0.28682 0.16404 0.67641 0.0
H1148 H 0.32254 0.16066 0.80259 0.0
C1149 C 0.30518 0.18216 0.63718 0.0
C1150 C 0.32988 0.19255 0.657 0.0
H1151 H 0.26801 0.15634 0.65915 0.0
H1152 H 0.30001 0.18782 0.59106 0.0
C1153 C 0.33569 0.18456 0.71749 0.0
C1154 C 0.84642 0.16939 0.68787 0.0
C1155 C 0.85165 0.18196 0.7498 0.0
H1156 H 0.82382 0.1584 0.6 0.0
C1157 C 0.8365 0.19215 0.77157 0.0
H1158 H 0.85762 0.16118 0.66948 0.0
C1159 C 0.81709 0.19048 0.73166 0.0
C1160 C 0.81229 0.17858 0.66882 0.0
H1161 H 0.83985 0.20183 0.81896 0.0
H1162 H 0.80608 0.19894 0.74983 0.0
C1163 C 0.82697 0.16772 0.64789 0.0
C1164 C 0.01774 0.52295 0.49908 0.0
C1165 C 0.01806 0.5131 0.43545 0.0
H1166 H 0.99776 0.5196 0.58932 0.0
C1167 C 0.99739 0.49141 0.41468 0.0
H1168 H 0.03334 0.5396 0.51706 0.0
C1169 C 0.97693 0.4799 0.45649 0.0
C1170 C 0.97667 0.48974 0.5202 0.0
H1171 H 0.997 0.48327 0.36622 0.0
H1172 H 0.96128 0.46327 0.43859 0.0
C1173 C 0.99734 0.51141 0.54091 0.0
C1174 C 0.52794 0.50301 0.38877 0.0
C1175 C 0.51771 0.51802 0.41204 0.0
H1176 H 0.53623 0.47319 0.41003 0.0
C1177 C 0.50849 0.51456 0.47779 0.0
H1178 H 0.5352 0.50518 0.33855 0.0
C1179 C 0.50925 0.49641 0.51902 0.0
C1180 C 0.51905 0.48108 0.49541 0.0
H1181 H 0.50059 0.52588 0.49769 0.0
H1182 H 0.50176 0.49414 0.56899 0.0
C1183 C 0.5285 0.48467 0.42989 0.0
C1184 C 0.50361 0.00048 0.58714 0.0
C1185 C 0.51428 0.0246 0.56072 0.0
H1186 H 0.47853 0.96213 0.57217 0.0
C1187 C 0.50698 0.02818 0.49652 0.0
H1188 H 0.50868 0.99701 0.63637 0.0
C1189 C 0.48962 0.00818 0.45959 0.0
C1190 C 0.47907 0.98403 0.4858 0.0
H1191 H 0.51476 0.0465 0.47436 0.0
H1192 H 0.48465 0.01165 0.41024 0.0
C1193 C 0.48623 0.98046 0.5502 0.0
C1194 C 0.49776 0.01734 0.9859 0.0
C1195 C 0.48377 0.00953 0.04502 0.0
H1196 H 0.51332 0.00728 0.9026 0.0
C1197 C 0.47372 0.98446 0.06332 0.0
H1198 H 0.50575 0.03654 0.97008 0.0
C1199 C 0.47788 0.96772 0.02408 0.0
C1200 C 0.49251 0.97566 0.96631 0.0
H1201 H 0.4626 0.97771 0.10787 0.0
H1202 H 0.46947 0.94845 0.03883 0.0
C1203 C 0.5021 0.0006 0.94702 0.0
C1204 C 0.01118 0.50741 0.03531 0.0
C1205 C 0.99335 0.48462 0.01005 0.0
H1206 H 0.02916 0.54687 0.0257 0.0
C1207 C 0.97971 0.48458 0.95332 0.0
H1208 H 0.02195 0.50812 0.0789 0.0
C1209 C 0.98369 0.50685 0.92292 0.0
C1210 C 0.00148 0.52964 0.94833 0.0
H1211 H 0.96572 0.46733 0.93266 0.0
H1212 H 0.97286 0.50619 0.8795 0.0
C1213 C 0.01525 0.52964 0.00473 0.0
C1214 C 0.5078 0.46334 0.92442 0.0
C1215 C 0.51316 0.47473 0.98794 0.0
H1216 H 0.48522 0.45432 0.83666 0.0
C1217 C 0.49913 0.48598 0.01125 0.0
H1218 H 0.51822 0.45445 0.9048 0.0
C1219 C 0.48032 0.48597 0.97199 0.0
C1220 C 0.47491 0.47458 0.90849 0.0
H1221 H 0.50274 0.49494 0.05974 0.0
H1222 H 0.46996 0.49491 0.99178 0.0
C1223 C 0.48884 0.4632 0.88525 0.0
loop_
_geom_bond_atom_site_label_1
_geom_bond_atom_site_label_2
_geom_bond_distance
_geom_bond_site_symmetry_2
_ccdc_geom_bond_type
Mg0 O1 2.028 . S
Mg0 O7 1.986 . S
Mg0 O9 2.114 . S
Mg0 O10 2.251 . S
Mg0 O13 2.010 . S
O1 Mg0 2.028 . S
O1 C4 1.250 . S
O2 Mg3 2.028 . S
O2 C4 1.248 . S
Mg3 O2 2.028 . S
Mg3 O8 2.032 . S
Mg3 O10 2.079 . S
C4 O1 1.250 . S
C4 O2 1.248 . S
C5 O6 1.264 . S
C5 O13 1.249 . S
O6 C5 1.264 . S
O7 Mg0 1.986 . S
O7 C11 1.246 . S
O8 Mg3 2.032 . S
O8 C11 1.259 . S
O9 Mg0 2.114 . S
O9 C12 1.252 . S
O10 Mg0 2.251 . S
O10 Mg3 2.079 . S
O10 C12 1.273 . S
C11 O7 1.246 . S
C11 O8 1.259 . S
C12 O9 1.252 . S
C12 O10 1.273 . S
O13 Mg0 2.010 . S
O13 C5 1.249 . S
Mg14 O15 2.028 . S
Mg14 O21 1.986 . S
Mg14 O23 2.114 . S
Mg14 O24 2.251 . S
Mg14 O27 2.010 . S
O15 Mg14 2.028 . S
O15 C18 1.250 . S
O16 Mg17 2.028 . S
O16 C18 1.248 . S
Mg17 O16 2.028 . S
Mg17 O22 2.032 . S
Mg17 O24 2.079 . S
C18 O15 1.250 . S
C18 O16 1.248 . S
C19 O20 1.264 . S
C19 O27 1.249 . S
O20 C19 1.264 . S
O21 Mg14 1.986 . S
O21 C25 1.246 . S
O22 Mg17 2.032 . S
O22 C25 1.259 . S
O23 Mg14 2.114 . S
O23 C26 1.252 . S
O24 Mg14 2.251 . S
O24 Mg17 2.079 . S
O24 C26 1.273 . S
C25 O21 1.246 . S
C25 O22 1.259 . S
C26 O23 1.252 . S
C26 O24 1.273 . S
O27 Mg14 2.010 . S
O27 C19 1.249 . S
Mg28 O29 2.028 . S
Mg28 O35 1.986 . S
Mg28 O37 2.114 . S
Mg28 O38 2.251 . S
Mg28 O41 2.010 . S
O29 Mg28 2.028 . S
O29 C32 1.250 . S
O30 Mg31 2.028 . S
O30 C32 1.248 . S
Mg31 O30 2.028 . S
Mg31 O36 2.032 . S
Mg31 O38 2.079 . S
C32 O29 1.250 . S
C32 O30 1.248 . S
C33 O34 1.264 . S
C33 O41 1.249 . S
O34 C33 1.264 . S
O35 Mg28 1.986 . S
O35 C39 1.246 . S
O36 Mg31 2.032 . S
O36 C39 1.259 . S
O37 Mg28 2.114 . S
O37 C40 1.252 . S
O38 Mg28 2.251 . S
O38 Mg31 2.079 . S
O38 C40 1.273 . S
C39 O35 1.246 . S
C39 O36 1.259 . S
C40 O37 1.252 . S
C40 O38 1.273 . S
O41 Mg28 2.010 . S
O41 C33 1.249 . S
Mg42 O43 2.028 . S
Mg42 O49 1.986 . S
Mg42 O51 2.114 . S
Mg42 O52 2.251 . S
Mg42 O55 2.010 . S
O43 Mg42 2.028 . S
O43 C46 1.250 . S
O44 Mg45 2.028 . S
O44 C46 1.248 . S
Mg45 O44 2.028 . S
Mg45 O50 2.032 . S
Mg45 O52 2.079 . S
C46 O43 1.250 . S
C46 O44 1.248 . S
C47 O48 1.264 . S
C47 O55 1.249 . S
O48 C47 1.264 . S
O49 Mg42 1.986 . S
O49 C53 1.246 . S
O50 Mg45 2.032 . S
O50 C53 1.259 . S
O51 Mg42 2.114 . S
O51 C54 1.252 . S
O52 Mg42 2.251 . S
O52 Mg45 2.079 . S
O52 C54 1.273 . S
C53 O49 1.246 . S
C53 O50 1.259 . S
C54 O51 1.252 . S
C54 O52 1.273 . S
O55 Mg42 2.010 . S
O55 C47 1.249 . S
Mg56 O57 2.028 . S
Mg56 O63 1.986 . S
Mg56 O65 2.114 . S
Mg56 O66 2.251 . S
Mg56 O69 2.010 . S
O57 Mg56 2.028 . S
O57 C60 1.250 . S
O58 Mg59 2.028 . S
O58 C60 1.248 . S
Mg59 O58 2.028 . S
Mg59 O64 2.032 . S
Mg59 O66 2.079 . S
C60 O57 1.250 . S
C60 O58 1.248 . S
C61 O62 1.264 . S
C61 O69 1.249 . S
O62 C61 1.264 . S
O63 Mg56 1.986 . S
O63 C67 1.246 . S
O64 Mg59 2.032 . S
O64 C67 1.259 . S
O65 Mg56 2.114 . S
O65 C68 1.252 . S
O66 Mg56 2.251 . S
O66 Mg59 2.079 . S
O66 C68 1.273 . S
C67 O63 1.246 . S
C67 O64 1.259 . S
C68 O65 1.252 . S
C68 O66 1.273 . S
O69 Mg56 2.010 . S
O69 C61 1.249 . S
Mg70 O71 2.028 . S
Mg70 O77 1.986 . S
Mg70 O79 2.114 . S
Mg70 O80 2.251 . S
Mg70 O83 2.010 . S
O71 Mg70 2.028 . S
O71 C74 1.250 . S
O72 Mg73 2.028 . S
O72 C74 1.248 . S
Mg73 O72 2.028 . S
Mg73 O78 2.032 . S
Mg73 O80 2.079 . S
C74 O71 1.250 . S
C74 O72 1.248 . S
C75 O76 1.264 . S
C75 O83 1.249 . S
O76 C75 1.264 . S
O77 Mg70 1.986 . S
O77 C81 1.246 . S
O78 Mg73 2.032 . S
O78 C81 1.259 . S
O79 Mg70 2.114 . S
O79 C82 1.252 . S
O80 Mg70 2.251 . S
O80 Mg73 2.079 . S
O80 C82 1.273 . S
C81 O77 1.246 . S
C81 O78 1.259 . S
C82 O79 1.252 . S
C82 O80 1.273 . S
O83 Mg70 2.010 . S
O83 C75 1.249 . S
Mg84 O85 2.028 . S
Mg84 O91 1.986 . S
Mg84 O93 2.114 . S
Mg84 O94 2.251 . S
Mg84 O97 2.010 . S
O85 Mg84 2.028 . S
O85 C88 1.250 . S
O86 Mg87 2.028 . S
O86 C88 1.248 . S
Mg87 O86 2.028 . S
Mg87 O92 2.032 . S
Mg87 O94 2.079 . S
C88 O85 1.250 . S
C88 O86 1.248 . S
C89 O90 1.264 . S
C89 O97 1.249 . S
O90 C89 1.264 . S
O91 Mg84 1.986 . S
O91 C95 1.246 . S
O92 Mg87 2.032 . S
O92 C95 1.259 . S
O93 Mg84 2.114 . S
O93 C96 1.252 . S
O94 Mg84 2.251 . S
O94 Mg87 2.079 . S
O94 C96 1.273 . S
C95 O91 1.246 . S
C95 O92 1.259 . S
C96 O93 1.252 . S
C96 O94 1.273 . S
O97 Mg84 2.010 . S
O97 C89 1.249 . S
Mg98 O99 2.028 . S
Mg98 O105 1.986 . S
Mg98 O107 2.114 . S
Mg98 O108 2.251 . S
Mg98 O111 2.010 . S
O99 Mg98 2.028 . S
O99 C102 1.250 . S
O100 Mg101 2.028 . S
O100 C102 1.248 . S
Mg101 O100 2.028 . S
Mg101 O106 2.032 . S
Mg101 O108 2.079 . S
C102 O99 1.250 . S
C102 O100 1.248 . S
C103 O104 1.264 . S
C103 O111 1.249 . S
O104 C103 1.264 . S
O105 Mg98 1.986 . S
O105 C109 1.246 . S
O106 Mg101 2.032 . S
O106 C109 1.259 . S
O107 Mg98 2.114 . S
O107 C110 1.252 . S
O108 Mg98 2.251 . S
O108 Mg101 2.079 . S
O108 C110 1.273 . S
C109 O105 1.246 . S
C109 O106 1.259 . S
C110 O107 1.252 . S
C110 O108 1.273 . S
O111 Mg98 2.010 . S
O111 C103 1.249 . S
Mg112 O113 2.028 . S
Mg112 O119 1.986 . S
Mg112 O121 2.114 . S
Mg112 O122 2.251 . S
Mg112 O125 2.010 . S
O113 Mg112 2.028 . S
O113 C116 1.250 . S
O114 Mg115 2.028 . S
O114 C116 1.248 . S
Mg115 O114 2.028 . S
Mg115 O120 2.032 . S
Mg115 O122 2.079 . S
C116 O113 1.250 . S
C116 O114 1.248 . S
C117 O118 1.264 . S
C117 O125 1.249 . S
O118 C117 1.264 . S
O119 Mg112 1.986 . S
O119 C123 1.246 . S
O120 Mg115 2.032 . S
O120 C123 1.259 . S
O121 Mg112 2.114 . S
O121 C124 1.252 . S
O122 Mg112 2.251 . S
O122 Mg115 2.079 . S
O122 C124 1.273 . S
C123 O119 1.246 . S
C123 O120 1.259 . S
C124 O121 1.252 . S
C124 O122 1.273 . S
O125 Mg112 2.010 . S
O125 C117 1.249 . S
Mg126 O127 2.028 . S
Mg126 O133 1.986 . S
Mg126 O135 2.114 . S
Mg126 O136 2.251 . S
Mg126 O139 2.010 . S
O127 Mg126 2.028 . S
O127 C130 1.250 . S
O128 Mg129 2.028 . S
O128 C130 1.248 . S
Mg129 O128 2.028 . S
Mg129 O134 2.032 . S
Mg129 O136 2.079 . S
C130 O127 1.250 . S
C130 O128 1.248 . S
C131 O132 1.264 . S
C131 O139 1.249 . S
O132 C131 1.264 . S
O133 Mg126 1.986 . S
O133 C137 1.246 . S
O134 Mg129 2.032 . S
O134 C137 1.259 . S
O135 Mg126 2.114 . S
O135 C138 1.252 . S
O136 Mg126 2.251 . S
O136 Mg129 2.079 . S
O136 C138 1.273 . S
C137 O133 1.246 . S
C137 O134 1.259 . S
C138 O135 1.252 . S
C138 O136 1.273 . S
O139 Mg126 2.010 . S
O139 C131 1.249 . S
Mg140 O141 2.028 . S
Mg140 O147 1.986 . S
Mg140 O149 2.114 . S
Mg140 O150 2.251 . S
Mg140 O153 2.010 . S
O141 Mg140 2.028 . S
O141 C144 1.250 . S
O142 Mg143 2.028 . S
O142 C144 1.248 . S
Mg143 O142 2.028 . S
Mg143 O148 2.032 . S
Mg143 O150 2.079 . S
C144 O141 1.250 . S
C144 O142 1.248 . S
C145 O146 1.264 . S
C145 O153 1.249 . S
O146 C145 1.264 . S
O147 Mg140 1.986 . S
O147 C151 1.246 . S
O148 Mg143 2.032 . S
O148 C151 1.259 . S
O149 Mg140 2.114 . S
O149 C152 1.252 . S
O150 Mg140 2.251 . S
O150 Mg143 2.079 . S
O150 C152 1.273 . S
C151 O147 1.246 . S
C151 O148 1.259 . S
C152 O149 1.252 . S
C152 O150 1.273 . S
O153 Mg140 2.010 . S
O153 C145 1.249 . S
Mg154 O155 2.028 . S
Mg154 O161 1.986 . S
Mg154 O163 2.114 . S
Mg154 O164 2.251 . S
Mg154 O167 2.010 . S
O155 Mg154 2.028 . S
O155 C158 1.250 . S
O156 Mg157 2.028 . S
O156 C158 1.248 . S
Mg157 O156 2.028 . S
Mg157 O162 2.032 . S
Mg157 O164 2.079 . S
C158 O155 1.250 . S
C158 O156 1.248 . S
C159 O160 1.264 . S
C159 O167 1.249 . S
O160 C159 1.264 . S
O161 Mg154 1.986 . S
O161 C165 1.246 . S
O162 Mg157 2.032 . S
O162 C165 1.259 . S
O163 Mg154 2.114 . S
O163 C166 1.252 . S
O164 Mg154 2.251 . S
O164 Mg157 2.079 . S
O164 C166 1.273 . S
C165 O161 1.246 . S
C165 O162 1.259 . S
C166 O163 1.252 . S
C166 O164 1.273 . S
O167 Mg154 2.010 . S
O167 C159 1.249 . S
Mg168 O169 2.028 . S
Mg168 O175 1.986 . S
Mg168 O177 2.114 . S
Mg168 O178 2.251 . S
Mg168 O181 2.010 . S
O169 Mg168 2.028 . S
O169 C172 1.250 . S
O170 Mg171 2.028 . S
O170 C172 1.248 . S
Mg171 O170 2.028 . S
Mg171 O176 2.032 . S
Mg171 O178 2.079 . S
C172 O169 1.250 . S
C172 O170 1.248 . S
C173 O174 1.264 . S
C173 O181 1.249 . S
O174 C173 1.264 . S
O175 Mg168 1.986 . S
O175 C179 1.246 . S
O176 Mg171 2.032 . S
O176 C179 1.259 . S
O177 Mg168 2.114 . S
O177 C180 1.252 . S
O178 Mg168 2.251 . S
O178 Mg171 2.079 . S
O178 C180 1.273 . S
C179 O175 1.246 . S
C179 O176 1.259 . S
C180 O177 1.252 . S
C180 O178 1.273 . S
O181 Mg168 2.010 . S
O181 C173 1.249 . S
Mg182 O183 2.028 . S
Mg182 O189 1.986 . S
Mg182 O191 2.114 . S
Mg182 O192 2.251 . S
Mg182 O195 2.010 . S
O183 Mg182 2.028 . S
O183 C186 1.250 . S
O184 Mg185 2.028 . S
O184 C186 1.248 . S
Mg185 O184 2.028 . S
Mg185 O190 2.032 . S
Mg185 O192 2.079 . S
C186 O183 1.250 . S
C186 O184 1.248 . S
C187 O188 1.264 . S
C187 O195 1.249 . S
O188 C187 1.264 . S
O189 Mg182 1.986 . S
O189 C193 1.246 . S
O190 Mg185 2.032 . S
O190 C193 1.259 . S
O191 Mg182 2.114 . S
O191 C194 1.252 . S
O192 Mg182 2.251 . S
O192 Mg185 2.079 . S
O192 C194 1.273 . S
C193 O189 1.246 . S
C193 O190 1.259 . S
C194 O191 1.252 . S
C194 O192 1.273 . S
O195 Mg182 2.010 . S
O195 C187 1.249 . S
Mg196 O197 2.028 . S
Mg196 O203 1.986 . S
Mg196 O205 2.114 . S
Mg196 O206 2.251 . S
Mg196 O209 2.010 . S
O197 Mg196 2.028 . S
O197 C200 1.250 . S
O198 Mg199 2.028 . S
O198 C200 1.248 . S
Mg199 O198 2.028 . S
Mg199 O204 2.032 . S
Mg199 O206 2.079 . S
C200 O197 1.250 . S
C200 O198 1.248 . S
C201 O202 1.264 . S
C201 O209 1.249 . S
O202 C201 1.264 . S
O203 Mg196 1.986 . S
O203 C207 1.246 . S
O204 Mg199 2.032 . S
O204 C207 1.259 . S
O205 Mg196 2.114 . S
O205 C208 1.252 . S
O206 Mg196 2.251 . S
O206 Mg199 2.079 . S
O206 C208 1.273 . S
C207 O203 1.246 . S
C207 O204 1.259 . S
C208 O205 1.252 . S
C208 O206 1.273 . S
O209 Mg196 2.010 . S
O209 C201 1.249 . S
Mg210 O211 2.028 . S
Mg210 O217 1.986 . S
Mg210 O219 2.114 . S
Mg210 O220 2.251 . S
Mg210 O223 2.010 . S
O211 Mg210 2.028 . S
O211 C214 1.250 . S
O212 Mg213 2.028 . S
O212 C214 1.248 . S
Mg213 O212 2.028 . S
Mg213 O218 2.032 . S
Mg213 O220 2.079 . S
C214 O211 1.250 . S
C214 O212 1.248 . S
C215 O216 1.264 . S
C215 O223 1.249 . S
O216 C215 1.264 . S
O217 Mg210 1.986 . S
O217 C221 1.246 . S
O218 Mg213 2.032 . S
O218 C221 1.259 . S
O219 Mg210 2.114 . S
O219 C222 1.252 . S
O220 Mg210 2.251 . S
O220 Mg213 2.079 . S
O220 C222 1.273 . S
C221 O217 1.246 . S
C221 O218 1.259 . S
C222 O219 1.252 . S
C222 O220 1.273 . S
O223 Mg210 2.010 . S
O223 C215 1.249 . S
Mg224 O225 2.028 . S
Mg224 O231 1.986 . S
Mg224 O233 2.114 . S
Mg224 O234 2.251 . S
Mg224 O237 2.010 . S
O225 Mg224 2.028 . S
O225 C228 1.250 . S
O226 Mg227 2.028 . S
O226 C228 1.248 . S
Mg227 O226 2.028 . S
Mg227 O232 2.032 . S
Mg227 O234 2.079 . S
C228 O225 1.250 . S
C228 O226 1.248 . S
C229 O230 1.264 . S
C229 O237 1.249 . S
O230 C229 1.264 . S
O231 Mg224 1.986 . S
O231 C235 1.246 . S
O232 Mg227 2.032 . S
O232 C235 1.259 . S
O233 Mg224 2.114 . S
O233 C236 1.252 . S
O234 Mg224 2.251 . S
O234 Mg227 2.079 . S
O234 C236 1.273 . S
C235 O231 1.246 . S
C235 O232 1.259 . S
C236 O233 1.252 . S
C236 O234 1.273 . S
O237 Mg224 2.010 . S
O237 C229 1.249 . S
Mg238 O239 2.028 . S
Mg238 O245 1.986 . S
Mg238 O247 2.114 . S
Mg238 O248 2.251 . S
Mg238 O251 2.010 . S
O239 Mg238 2.028 . S
O239 C242 1.250 . S
O240 Mg241 2.028 . S
O240 C242 1.248 . S
Mg241 O240 2.028 . S
Mg241 O246 2.032 . S
Mg241 O248 2.079 . S
C242 O239 1.250 . S
C242 O240 1.248 . S
C243 O244 1.264 . S
C243 O251 1.249 . S
O244 C243 1.264 . S
O245 Mg238 1.986 . S
O245 C249 1.246 . S
O246 Mg241 2.032 . S
O246 C249 1.259 . S
O247 Mg238 2.114 . S
O247 C250 1.252 . S
O248 Mg238 2.251 . S
O248 Mg241 2.079 . S
O248 C250 1.273 . S
C249 O245 1.246 . S
C249 O246 1.259 . S
C250 O247 1.252 . S
C250 O248 1.273 . S
O251 Mg238 2.010 . S
O251 C243 1.249 . S
Mg252 O253 2.028 . S
Mg252 O259 1.986 . S
Mg252 O261 2.114 . S
Mg252 O262 2.251 . S
Mg252 O265 2.010 . S
O253 Mg252 2.028 . S
O253 C256 1.250 . S
O254 Mg255 2.028 . S
O254 C256 1.248 . S
Mg255 O254 2.028 . S
Mg255 O260 2.032 . S
Mg255 O262 2.079 . S
C256 O253 1.250 . S
C256 O254 1.248 . S
C257 O258 1.264 . S
C257 O265 1.249 . S
O258 C257 1.264 . S
O259 Mg252 1.986 . S
O259 C263 1.246 . S
O260 Mg255 2.032 . S
O260 C263 1.259 . S
O261 Mg252 2.114 . S
O261 C264 1.252 . S
O262 Mg252 2.251 . S
O262 Mg255 2.079 . S
O262 C264 1.273 . S
C263 O259 1.246 . S
C263 O260 1.259 . S
C264 O261 1.252 . S
C264 O262 1.273 . S
O265 Mg252 2.010 . S
O265 C257 1.249 . S
Mg266 O267 2.028 . S
Mg266 O273 1.986 . S
Mg266 O275 2.114 . S
Mg266 O276 2.251 . S
Mg266 O279 2.010 . S
O267 Mg266 2.028 . S
O267 C270 1.250 . S
O268 Mg269 2.028 . S
O268 C270 1.248 . S
Mg269 O268 2.028 . S
Mg269 O274 2.032 . S
Mg269 O276 2.079 . S
C270 O267 1.250 . S
C270 O268 1.248 . S
C271 O272 1.264 . S
C271 O279 1.249 . S
O272 C271 1.264 . S
O273 Mg266 1.986 . S
O273 C277 1.246 . S
O274 Mg269 2.032 . S
O274 C277 1.259 . S
O275 Mg266 2.114 . S
O275 C278 1.252 . S
O276 Mg266 2.251 . S
O276 Mg269 2.079 . S
O276 C278 1.273 . S
C277 O273 1.246 . S
C277 O274 1.259 . S
C278 O275 1.252 . S
C278 O276 1.273 . S
O279 Mg266 2.010 . S
O279 C271 1.249 . S
Mg280 O281 2.028 . S
Mg280 O287 1.986 . S
Mg280 O289 2.114 . S
Mg280 O290 2.251 . S
Mg280 O293 2.010 . S
O281 Mg280 2.028 . S
O281 C284 1.250 . S
O282 Mg283 2.028 . S
O282 C284 1.248 . S
Mg283 O282 2.028 . S
Mg283 O288 2.032 . S
Mg283 O290 2.079 . S
C284 O281 1.250 . S
C284 O282 1.248 . S
C285 O286 1.264 . S
C285 O293 1.249 . S
O286 C285 1.264 . S
O287 Mg280 1.986 . S
O287 C291 1.246 . S
O288 Mg283 2.032 . S
O288 C291 1.259 . S
O289 Mg280 2.114 . S
O289 C292 1.252 . S
O290 Mg280 2.251 . S
O290 Mg283 2.079 . S
O290 C292 1.273 . S
C291 O287 1.246 . S
C291 O288 1.259 . S
C292 O289 1.252 . S
C292 O290 1.273 . S
O293 Mg280 2.010 . S
O293 C285 1.249 . S
Mg294 O295 2.028 . S
Mg294 O301 1.986 . S
Mg294 O303 2.114 . S
Mg294 O304 2.251 . S
Mg294 O307 2.010 1_554 S
O295 Mg294 2.028 . S
O295 C298 1.250 . S
O296 Mg297 2.028 . S
O296 C298 1.248 . S
Mg297 O296 2.028 . S
Mg297 O302 2.032 . S
Mg297 O304 2.079 . S
C298 O295 1.250 . S
C298 O296 1.248 . S
C299 O300 1.264 . S
C299 O307 1.249 . S
O300 C299 1.264 . S
O301 Mg294 1.986 . S
O301 C305 1.246 . S
O302 Mg297 2.032 . S
O302 C305 1.259 . S
O303 Mg294 2.114 . S
O303 C306 1.252 . S
O304 Mg294 2.251 . S
O304 Mg297 2.079 . S
O304 C306 1.273 . S
C305 O301 1.246 . S
C305 O302 1.259 . S
C306 O303 1.252 . S
C306 O304 1.273 . S
O307 Mg294 2.010 1_556 S
O307 C299 1.249 . S
Mg308 O309 2.028 . S
Mg308 O315 1.986 . S
Mg308 O317 2.114 . S
Mg308 O318 2.251 . S
Mg308 O321 2.010 1_554 S
O309 Mg308 2.028 . S
O309 C312 1.250 1_655 S
O310 Mg311 2.028 1_455 S
O310 C312 1.248 . S
Mg311 O310 2.028 1_655 S
Mg311 O316 2.032 . S
Mg311 O318 2.079 . S
C312 O309 1.250 1_455 S
C312 O310 1.248 . S
C313 O314 1.264 . S
C313 O321 1.249 . S
O314 C313 1.264 . S
O315 Mg308 1.986 . S
O315 C319 1.246 . S
O316 Mg311 2.032 . S
O316 C319 1.259 . S
O317 Mg308 2.114 . S
O317 C320 1.252 . S
O318 Mg308 2.251 . S
O318 Mg311 2.079 . S
O318 C320 1.273 . S
C319 O315 1.246 . S
C319 O316 1.259 . S
C320 O317 1.252 . S
C320 O318 1.273 . S
O321 Mg308 2.010 1_556 S
O321 C313 1.249 . S
Mg322 O323 2.028 . S
Mg322 O329 1.986 . S
Mg322 O331 2.114 . S
Mg322 O332 2.251 . S
Mg322 O335 2.010 1_554 S
O323 Mg322 2.028 . S
O323 C326 1.250 . S
O324 Mg325 2.028 . S
O324 C326 1.248 . S
Mg325 O324 2.028 . S
Mg325 O330 2.032 . S
Mg325 O332 2.079 . S
C326 O323 1.250 . S
C326 O324 1.248 . S
C327 O328 1.264 . S
C327 O335 1.249 . S
O328 C327 1.264 . S
O329 Mg322 1.986 . S
O329 C333 1.246 . S
O330 Mg325 2.032 . S
O330 C333 1.259 . S
O331 Mg322 2.114 . S
O331 C334 1.252 . S
O332 Mg322 2.251 . S
O332 Mg325 2.079 . S
O332 C334 1.273 . S
C333 O329 1.246 . S
C333 O330 1.259 . S
C334 O331 1.252 . S
C334 O332 1.273 . S
O335 Mg322 2.010 1_556 S
O335 C327 1.249 . S
Mg336 O337 2.028 . S
Mg336 O343 1.986 . S
Mg336 O345 2.114 . S
Mg336 O346 2.251 . S
Mg336 O349 2.010 . S
O337 Mg336 2.028 . S
O337 C340 1.250 . S
O338 Mg339 2.028 . S
O338 C340 1.248 . S
Mg339 O338 2.028 . S
Mg339 O344 2.032 . S
Mg339 O346 2.079 . S
C340 O337 1.250 . S
C340 O338 1.248 . S
C341 O342 1.264 . S
C341 O349 1.249 . S
O342 C341 1.264 . S
O343 Mg336 1.986 . S
O343 C347 1.246 . S
O344 Mg339 2.032 . S
O344 C347 1.259 . S
O345 Mg336 2.114 . S
O345 C348 1.252 . S
O346 Mg336 2.251 . S
O346 Mg339 2.079 . S
O346 C348 1.273 . S
C347 O343 1.246 . S
C347 O344 1.259 . S
C348 O345 1.252 . S
C348 O346 1.273 . S
O349 Mg336 2.010 . S
O349 C341 1.249 . S
Mg350 O351 2.028 . S
Mg350 O357 1.986 . S
Mg350 O359 2.114 . S
Mg350 O360 2.251 . S
Mg350 O363 2.010 . S
O351 Mg350 2.028 . S
O351 C354 1.250 . S
O352 Mg353 2.028 . S
O352 C354 1.248 . S
Mg353 O352 2.028 . S
Mg353 O358 2.032 . S
Mg353 O360 2.079 . S
C354 O351 1.250 . S
C354 O352 1.248 . S
C355 O356 1.264 . S
C355 O363 1.249 . S
O356 C355 1.264 . S
O357 Mg350 1.986 . S
O357 C361 1.246 . S
O358 Mg353 2.032 . S
O358 C361 1.259 . S
O359 Mg350 2.114 . S
O359 C362 1.252 . S
O360 Mg350 2.251 . S
O360 Mg353 2.079 . S
O360 C362 1.273 . S
C361 O357 1.246 . S
C361 O358 1.259 . S
C362 O359 1.252 . S
C362 O360 1.273 . S
O363 Mg350 2.010 . S
O363 C355 1.249 . S
Mg364 O365 2.028 . S
Mg364 O371 1.986 . S
Mg364 O373 2.114 . S
Mg364 O374 2.251 . S
Mg364 O377 2.010 . S
O365 Mg364 2.028 . S
O365 C368 1.250 . S
O366 Mg367 2.028 . S
O366 C368 1.248 . S
Mg367 O366 2.028 . S
Mg367 O372 2.032 . S
Mg367 O374 2.079 . S
C368 O365 1.250 . S
C368 O366 1.248 . S
C369 O370 1.264 . S
C369 O377 1.249 . S
O370 C369 1.264 . S
O371 Mg364 1.986 . S
O371 C375 1.246 . S
O372 Mg367 2.032 . S
O372 C375 1.259 . S
O373 Mg364 2.114 . S
O373 C376 1.252 . S
O374 Mg364 2.251 . S
O374 Mg367 2.079 . S
O374 C376 1.273 . S
C375 O371 1.246 . S
C375 O372 1.259 . S
C376 O373 1.252 . S
C376 O374 1.273 . S
O377 Mg364 2.010 . S
O377 C369 1.249 . S
Mg378 O379 2.028 . S
Mg378 O385 1.986 . S
Mg378 O387 2.114 . S
Mg378 O388 2.251 . S
Mg378 O391 2.010 1_556 S
O379 Mg378 2.028 . S
O379 C382 1.250 . S
O380 Mg381 2.028 . S
O380 C382 1.248 . S
Mg381 O380 2.028 . S
Mg381 O386 2.032 . S
Mg381 O388 2.079 . S
C382 O379 1.250 . S
C382 O380 1.248 . S
C383 O384 1.264 . S
C383 O391 1.249 . S
O384 C383 1.264 . S
O385 Mg378 1.986 . S
O385 C389 1.246 . S
O386 Mg381 2.032 . S
O386 C389 1.259 . S
O387 Mg378 2.114 . S
O387 C390 1.252 . S
O388 Mg378 2.251 . S
O388 Mg381 2.079 . S
O388 C390 1.273 . S
C389 O385 1.246 . S
C389 O386 1.259 . S
C390 O387 1.252 . S
C390 O388 1.273 . S
O391 Mg378 2.010 1_554 S
O391 C383 1.249 . S
Mg392 O393 2.028 . S
Mg392 O399 1.986 . S
Mg392 O401 2.114 . S
Mg392 O402 2.251 . S
Mg392 O405 2.010 1_556 S
O393 Mg392 2.028 . S
O393 C396 1.250 1_455 S
O394 Mg395 2.028 1_655 S
O394 C396 1.248 . S
Mg395 O394 2.028 1_455 S
Mg395 O400 2.032 . S
Mg395 O402 2.079 . S
C396 O393 1.250 1_655 S
C396 O394 1.248 . S
C397 O398 1.264 . S
C397 O405 1.249 . S
O398 C397 1.264 . S
O399 Mg392 1.986 . S
O399 C403 1.246 . S
O400 Mg395 2.032 . S
O400 C403 1.259 . S
O401 Mg392 2.114 . S
O401 C404 1.252 . S
O402 Mg392 2.251 . S
O402 Mg395 2.079 . S
O402 C404 1.273 . S
C403 O399 1.246 . S
C403 O400 1.259 . S
C404 O401 1.252 . S
C404 O402 1.273 . S
O405 Mg392 2.010 1_554 S
O405 C397 1.249 . S
Mg406 O407 2.028 . S
Mg406 O413 1.986 . S
Mg406 O415 2.114 . S
Mg406 O416 2.251 . S
Mg406 O419 2.010 1_556 S
O407 Mg406 2.028 . S
O407 C410 1.250 . S
O408 Mg409 2.028 . S
O408 C410 1.248 . S
Mg409 O408 2.028 . S
Mg409 O414 2.032 . S
Mg409 O416 2.079 . S
C410 O407 1.250 . S
C410 O408 1.248 . S
C411 O412 1.264 . S
C411 O419 1.249 . S
O412 C411 1.264 . S
O413 Mg406 1.986 . S
O413 C417 1.246 . S
O414 Mg409 2.032 . S
O414 C417 1.259 . S
O415 Mg406 2.114 . S
O415 C418 1.252 . S
O416 Mg406 2.251 . S
O416 Mg409 2.079 . S
O416 C418 1.273 . S
C417 O413 1.246 . S
C417 O414 1.259 . S
C418 O415 1.252 . S
C418 O416 1.273 . S
O419 Mg406 2.010 1_554 S
O419 C411 1.249 . S
Mg420 O421 2.028 . S
Mg420 O427 1.986 . S
Mg420 O429 2.114 . S
Mg420 O430 2.251 . S
Mg420 O433 2.010 . S
O421 Mg420 2.028 . S
O421 C424 1.250 . S
O422 Mg423 2.028 . S
O422 C424 1.248 . S
Mg423 O422 2.028 . S
Mg423 O428 2.032 . S
Mg423 O430 2.079 . S
C424 O421 1.250 . S
C424 O422 1.248 . S
C425 O426 1.264 . S
C425 O433 1.249 . S
O426 C425 1.264 . S
O427 Mg420 1.986 . S
O427 C431 1.246 . S
O428 Mg423 2.032 . S
O428 C431 1.259 . S
O429 Mg420 2.114 . S
O429 C432 1.252 . S
O430 Mg420 2.251 . S
O430 Mg423 2.079 . S
O430 C432 1.273 . S
C431 O427 1.246 . S
C431 O428 1.259 . S
C432 O429 1.252 . S
C432 O430 1.273 . S
O433 Mg420 2.010 . S
O433 C425 1.249 . S
Mg434 O435 2.028 . S
Mg434 O441 1.986 . S
Mg434 O443 2.114 . S
Mg434 O444 2.251 . S
Mg434 O447 2.010 . S
O435 Mg434 2.028 . S
O435 C438 1.250 . S
O436 Mg437 2.028 . S
O436 C438 1.248 . S
Mg437 O436 2.028 . S
Mg437 O442 2.032 . S
Mg437 O444 2.079 . S
C438 O435 1.250 . S
C438 O436 1.248 . S
C439 O440 1.264 . S
C439 O447 1.249 . S
O440 C439 1.264 . S
O441 Mg434 1.986 . S
O441 C445 1.246 . S
O442 Mg437 2.032 . S
O442 C445 1.259 . S
O443 Mg434 2.114 . S
O443 C446 1.252 . S
O444 Mg434 2.251 . S
O444 Mg437 2.079 . S
O444 C446 1.273 . S
C445 O441 1.246 . S
C445 O442 1.259 . S
C446 O443 1.252 . S
C446 O444 1.273 . S
O447 Mg434 2.010 . S
O447 C439 1.249 . S
Mg448 O449 2.028 . S
Mg448 O455 1.986 . S
Mg448 O457 2.114 . S
Mg448 O458 2.251 . S
Mg448 O461 2.010 . S
O449 Mg448 2.028 . S
O449 C452 1.250 . S
O450 Mg451 2.028 . S
O450 C452 1.248 . S
Mg451 O450 2.028 . S
Mg451 O456 2.032 . S
Mg451 O458 2.079 . S
C452 O449 1.250 . S
C452 O450 1.248 . S
C453 O454 1.264 . S
C453 O461 1.249 . S
O454 C453 1.264 . S
O455 Mg448 1.986 . S
O455 C459 1.246 . S
O456 Mg451 2.032 . S
O456 C459 1.259 . S
O457 Mg448 2.114 . S
O457 C460 1.252 . S
O458 Mg448 2.251 . S
O458 Mg451 2.079 . S
O458 C460 1.273 . S
C459 O455 1.246 . S
C459 O456 1.259 . S
C460 O457 1.252 . S
C460 O458 1.273 . S
O461 Mg448 2.010 . S
O461 C453 1.249 . S
Mg462 O463 2.028 . S
Mg462 O469 1.986 . S
Mg462 O471 2.114 . S
Mg462 O472 2.251 . S
Mg462 O475 2.010 . S
O463 Mg462 2.028 . S
O463 C466 1.250 . S
O464 Mg465 2.028 . S
O464 C466 1.248 . S
Mg465 O464 2.028 . S
Mg465 O470 2.032 . S
Mg465 O472 2.079 . S
C466 O463 1.250 . S
C466 O464 1.248 . S
C467 O468 1.264 . S
C467 O475 1.249 . S
O468 C467 1.264 . S
O469 Mg462 1.986 . S
O469 C473 1.246 . S
O470 Mg465 2.032 . S
O470 C473 1.259 . S
O471 Mg462 2.114 . S
O471 C474 1.252 . S
O472 Mg462 2.251 . S
O472 Mg465 2.079 . S
O472 C474 1.273 . S
C473 O469 1.246 . S
C473 O470 1.259 . S
C474 O471 1.252 . S
C474 O472 1.273 . S
O475 Mg462 2.010 . S
O475 C467 1.249 . S
Mg476 O477 2.028 . S
Mg476 O483 1.986 . S
Mg476 O485 2.114 . S
Mg476 O486 2.251 . S
Mg476 O489 2.010 . S
O477 Mg476 2.028 . S
O477 C480 1.250 . S
O478 Mg479 2.028 . S
O478 C480 1.248 . S
Mg479 O478 2.028 . S
Mg479 O484 2.032 . S
Mg479 O486 2.079 . S
C480 O477 1.250 . S
C480 O478 1.248 . S
C481 O482 1.264 . S
C481 O489 1.249 . S
O482 C481 1.264 . S
O483 Mg476 1.986 . S
O483 C487 1.246 . S
O484 Mg479 2.032 . S
O484 C487 1.259 . S
O485 Mg476 2.114 . S
O485 C488 1.252 . S
O486 Mg476 2.251 . S
O486 Mg479 2.079 . S
O486 C488 1.273 . S
C487 O483 1.246 . S
C487 O484 1.259 . S
C488 O485 1.252 . S
C488 O486 1.273 . S
O489 Mg476 2.010 . S
O489 C481 1.249 . S
Mg490 O491 2.028 . S
Mg490 O497 1.986 . S
Mg490 O499 2.114 . S
Mg490 O500 2.251 . S
Mg490 O503 2.010 . S
O491 Mg490 2.028 . S
O491 C494 1.250 . S
O492 Mg493 2.028 . S
O492 C494 1.248 . S
Mg493 O492 2.028 . S
Mg493 O498 2.032 . S
Mg493 O500 2.079 . S
C494 O491 1.250 . S
C494 O492 1.248 . S
C495 O496 1.264 . S
C495 O503 1.249 . S
O496 C495 1.264 . S
O497 Mg490 1.986 . S
O497 C501 1.246 . S
O498 Mg493 2.032 . S
O498 C501 1.259 . S
O499 Mg490 2.114 . S
O499 C502 1.252 . S
O500 Mg490 2.251 . S
O500 Mg493 2.079 . S
O500 C502 1.273 . S
C501 O497 1.246 . S
C501 O498 1.259 . S
C502 O499 1.252 . S
C502 O500 1.273 . S
O503 Mg490 2.010 . S
O503 C495 1.249 . S
C504 C505 1.387 . S
C504 H508 0.950 . S
C504 C513 1.390 . S
C505 C504 1.387 . S
C505 C507 1.387 . S
H506 C513 0.950 . S
C507 C505 1.387 . S
C507 C509 1.390 . S
C507 H511 0.950 . S
H508 C504 0.950 . S
C509 C507 1.390 . S
C509 C510 1.387 1_556 S
C509 H512 0.950 . S
C510 C509 1.387 1_554 S
C510 C513 1.387 1_554 S
H511 C507 0.950 . S
H512 C509 0.950 . S
C513 C504 1.390 . S
C513 H506 0.950 . S
C513 C510 1.387 1_556 S
C514 C515 1.387 . S
C514 H518 0.950 . S
C514 C523 1.390 . S
C515 C514 1.387 . S
C515 C517 1.387 . S
H516 C523 0.950 1_554 S
C517 C515 1.387 . S
C517 C519 1.390 . S
C517 H521 0.950 . S
H518 C514 0.950 . S
C519 C517 1.390 . S
C519 C520 1.387 1_556 S
C519 H522 0.950 . S
C520 C519 1.387 1_554 S
C520 C523 1.387 1_554 S
H521 C517 0.950 . S
H522 C519 0.950 . S
C523 C514 1.390 . S
C523 H516 0.950 1_556 S
C523 C520 1.387 1_556 S
C524 C525 1.387 1_556 S
C524 H528 0.950 . S
C524 C533 1.390 . S
C525 C524 1.387 1_554 S
C525 C527 1.387 1_554 S
H526 C533 0.950 . S
C527 C525 1.387 1_556 S
C527 C529 1.390 . S
C527 H531 0.950 . S
H528 C524 0.950 . S
C529 C527 1.390 . S
C529 C530 1.387 . S
C529 H532 0.950 . S
C530 C529 1.387 . S
C530 C533 1.387 . S
H531 C527 0.950 . S
H532 C529 0.950 . S
C533 C524 1.390 . S
C533 H526 0.950 . S
C533 C530 1.387 . S
C534 C535 1.387 . S
C534 H538 0.950 . S
C534 C543 1.390 . S
C535 C534 1.387 . S
C535 C537 1.387 . S
H536 C543 0.950 . S
C537 C535 1.387 . S
C537 C539 1.390 . S
C537 H541 0.950 . S
H538 C534 0.950 . S
C539 C537 1.390 . S
C539 C540 1.387 . S
C539 H542 0.950 . S
C540 C539 1.387 . S
C540 C543 1.387 . S
H541 C537 0.950 . S
H542 C539 0.950 . S
C543 C534 1.390 . S
C543 H536 0.950 . S
C543 C540 1.387 . S
C544 C545 1.387 . S
C544 H548 0.950 . S
C544 C553 1.390 . S
C545 C544 1.387 . S
C545 C547 1.387 . S
H546 C553 0.950 . S
C547 C545 1.387 . S
C547 C549 1.390 . S
C547 H551 0.950 . S
H548 C544 0.950 . S
C549 C547 1.390 . S
C549 C550 1.387 . S
C549 H552 0.950 . S
C550 C549 1.387 . S
C550 C553 1.387 . S
H551 C547 0.950 . S
H552 C549 0.950 . S
C553 C544 1.390 . S
C553 H546 0.950 . S
C553 C550 1.387 . S
C554 C555 1.387 . S
C554 H558 0.950 . S
C554 C563 1.390 . S
C555 C554 1.387 . S
C555 C557 1.387 . S
H556 C563 0.950 . S
C557 C555 1.387 . S
C557 C559 1.390 . S
C557 H561 0.950 . S
H558 C554 0.950 . S
C559 C557 1.390 . S
C559 C560 1.387 . S
C559 H562 0.950 . S
C560 C559 1.387 . S
C560 C563 1.387 . S
H561 C557 0.950 . S
H562 C559 0.950 . S
C563 C554 1.390 . S
C563 H556 0.950 . S
C563 C560 1.387 . S
C564 C565 1.387 . S
C564 H568 0.950 . S
C564 C573 1.390 . S
C565 C564 1.387 . S
C565 C567 1.387 . S
H566 C573 0.950 . S
C567 C565 1.387 . S
C567 C569 1.390 . S
C567 H571 0.950 . S
H568 C564 0.950 . S
C569 C567 1.390 . S
C569 C570 1.387 1_554 S
C569 H572 0.950 . S
C570 C569 1.387 1_556 S
C570 C573 1.387 1_556 S
H571 C567 0.950 . S
H572 C569 0.950 . S
C573 C564 1.390 . S
C573 H566 0.950 . S
C573 C570 1.387 1_554 S
C574 C575 1.387 . S
C574 H578 0.950 . S
C574 C583 1.390 . S
C575 C574 1.387 . S
C575 C577 1.387 . S
H576 C583 0.950 1_556 S
C577 C575 1.387 . S
C577 C579 1.390 . S
C577 H581 0.950 . S
H578 C574 0.950 . S
C579 C577 1.390 . S
C579 C580 1.387 1_554 S
C579 H582 0.950 . S
C580 C579 1.387 1_556 S
C580 C583 1.387 1_556 S
H581 C577 0.950 . S
H582 C579 0.950 . S
C583 C574 1.390 . S
C583 H576 0.950 1_554 S
C583 C580 1.387 1_554 S
C584 C585 1.387 1_554 S
C584 H588 0.950 1_554 S
C584 C593 1.390 . S
C585 C584 1.387 1_556 S
C585 C587 1.387 1_556 S
H586 C593 0.950 . S
C587 C585 1.387 1_554 S
C587 C589 1.390 . S
C587 H591 0.950 . S
H588 C584 0.950 1_556 S
C589 C587 1.390 . S
C589 C590 1.387 . S
C589 H592 0.950 . S
C590 C589 1.387 . S
C590 C593 1.387 . S
H591 C587 0.950 . S
H592 C589 0.950 . S
C593 C584 1.390 . S
C593 H586 0.950 . S
C593 C590 1.387 . S
C594 C595 1.387 . S
C594 H598 0.950 . S
C594 C603 1.390 . S
C595 C594 1.387 . S
C595 C597 1.387 . S
H596 C603 0.950 . S
C597 C595 1.387 . S
C597 C599 1.390 . S
C597 H601 0.950 . S
H598 C594 0.950 . S
C599 C597 1.390 . S
C599 C600 1.387 . S
C599 H602 0.950 . S
C600 C599 1.387 . S
C600 C603 1.387 . S
H601 C597 0.950 . S
H602 C599 0.950 . S
C603 C594 1.390 . S
C603 H596 0.950 . S
C603 C600 1.387 . S
C604 C605 1.387 . S
C604 H608 0.950 . S
C604 C613 1.390 . S
C605 C604 1.387 . S
C605 C607 1.387 . S
H606 C613 0.950 . S
C607 C605 1.387 . S
C607 C609 1.390 . S
C607 H611 0.950 . S
H608 C604 0.950 . S
C609 C607 1.390 . S
C609 C610 1.387 . S
C609 H612 0.950 . S
C610 C609 1.387 . S
C610 C613 1.387 . S
H611 C607 0.950 . S
H612 C609 0.950 . S
C613 C604 1.390 . S
C613 H606 0.950 . S
C613 C610 1.387 . S
C614 C615 1.387 . S
C614 H618 0.950 . S
C614 C623 1.390 . S
C615 C614 1.387 . S
C615 C617 1.387 . S
H616 C623 0.950 . S
C617 C615 1.387 . S
C617 C619 1.390 . S
C617 H621 0.950 . S
H618 C614 0.950 . S
C619 C617 1.390 . S
C619 C620 1.387 . S
C619 H622 0.950 . S
C620 C619 1.387 . S
C620 C623 1.387 . S
H621 C617 0.950 . S
H622 C619 0.950 . S
C623 C614 1.390 . S
C623 H616 0.950 . S
C623 C620 1.387 . S
C624 C625 1.387 . S
C624 H628 0.950 . S
C624 C633 1.390 . S
C625 C624 1.387 . S
C625 C627 1.387 . S
H626 C633 0.950 . S
C627 C625 1.387 . S
C627 C629 1.390 . S
C627 H631 0.950 . S
H628 C624 0.950 . S
C629 C627 1.390 . S
C629 C630 1.387 . S
C629 H632 0.950 . S
C630 C629 1.387 . S
C630 C633 1.387 . S
H631 C627 0.950 . S
H632 C629 0.950 . S
C633 C624 1.390 . S
C633 H626 0.950 . S
C633 C630 1.387 . S
C634 C635 1.387 . S
C634 H638 0.950 . S
C634 C643 1.390 . S
C635 C634 1.387 . S
C635 C637 1.387 . S
H636 C643 0.950 . S
C637 C635 1.387 . S
C637 C639 1.390 . S
C637 H641 0.950 . S
H638 C634 0.950 . S
C639 C637 1.390 . S
C639 C640 1.387 . S
C639 H642 0.950 . S
C640 C639 1.387 . S
C640 C643 1.387 . S
H641 C637 0.950 . S
H642 C639 0.950 . S
C643 C634 1.390 . S
C643 H636 0.950 . S
C643 C640 1.387 . S
C644 C645 1.387 . S
C644 H648 0.950 . S
C644 C653 1.390 . S
C645 C644 1.387 . S
C645 C647 1.387 . S
H646 C653 0.950 . S
C647 C645 1.387 . S
C647 C649 1.390 . S
C647 H651 0.950 . S
H648 C644 0.950 . S
C649 C647 1.390 . S
C649 C650 1.387 . S
C649 H652 0.950 . S
C650 C649 1.387 . S
C650 C653 1.387 . S
H651 C647 0.950 . S
H652 C649 0.950 . S
C653 C644 1.390 . S
C653 H646 0.950 . S
C653 C650 1.387 . S
C654 C655 1.387 . S
C654 H658 0.950 . S
C654 C663 1.390 . S
C655 C654 1.387 . S
C655 C657 1.387 . S
H656 C663 0.950 . S
C657 C655 1.387 . S
C657 C659 1.390 . S
C657 H661 0.950 . S
H658 C654 0.950 . S
C659 C657 1.390 . S
C659 C660 1.387 . S
C659 H662 0.950 . S
C660 C659 1.387 . S
C660 C663 1.387 . S
H661 C657 0.950 . S
H662 C659 0.950 . S
C663 C654 1.390 . S
C663 H656 0.950 . S
C663 C660 1.387 . S
C664 C665 1.387 . S
C664 H668 0.950 . S
C664 C673 1.390 . S
C665 C664 1.387 . S
C665 C667 1.387 . S
H666 C673 0.950 . S
C667 C665 1.387 . S
C667 C669 1.390 . S
C667 H671 0.950 . S
H668 C664 0.950 . S
C669 C667 1.390 . S
C669 C670 1.387 . S
C669 H672 0.950 . S
C670 C669 1.387 . S
C670 C673 1.387 . S
H671 C667 0.950 . S
H672 C669 0.950 . S
C673 C664 1.390 . S
C673 H666 0.950 . S
C673 C670 1.387 . S
C674 C675 1.387 . S
C674 H678 0.950 . S
C674 C683 1.390 . S
C675 C674 1.387 . S
C675 C677 1.387 . S
H676 C683 0.950 . S
C677 C675 1.387 . S
C677 C679 1.390 . S
C677 H681 0.950 . S
H678 C674 0.950 . S
C679 C677 1.390 . S
C679 C680 1.387 . S
C679 H682 0.950 . S
C680 C679 1.387 . S
C680 C683 1.387 . S
H681 C677 0.950 . S
H682 C679 0.950 . S
C683 C674 1.390 . S
C683 H676 0.950 . S
C683 C680 1.387 . S
C684 C685 1.387 . S
C684 H688 0.950 . S
C684 C693 1.390 . S
C685 C684 1.387 . S
C685 C687 1.387 . S
H686 C693 0.950 . S
C687 C685 1.387 . S
C687 C689 1.390 . S
C687 H691 0.950 . S
H688 C684 0.950 . S
C689 C687 1.390 . S
C689 C690 1.387 . S
C689 H692 0.950 . S
C690 C689 1.387 . S
C690 C693 1.387 . S
H691 C687 0.950 . S
H692 C689 0.950 . S
C693 C684 1.390 . S
C693 H686 0.950 . S
C693 C690 1.387 . S
C694 C695 1.387 . S
C694 H698 0.950 . S
C694 C703 1.390 . S
C695 C694 1.387 . S
C695 C697 1.387 . S
H696 C703 0.950 . S
C697 C695 1.387 . S
C697 C699 1.390 . S
C697 H701 0.950 . S
H698 C694 0.950 . S
C699 C697 1.390 . S
C699 C700 1.387 . S
C699 H702 0.950 . S
C700 C699 1.387 . S
C700 C703 1.387 . S
H701 C697 0.950 . S
H702 C699 0.950 . S
C703 C694 1.390 . S
C703 H696 0.950 . S
C703 C700 1.387 . S
C704 C705 1.387 . S
C704 H708 0.950 . S
C704 C713 1.390 . S
C705 C704 1.387 . S
C705 C707 1.387 . S
H706 C713 0.950 . S
C707 C705 1.387 . S
C707 C709 1.390 . S
C707 H711 0.950 . S
H708 C704 0.950 . S
C709 C707 1.390 . S
C709 C710 1.387 . S
C709 H712 0.950 . S
C710 C709 1.387 . S
C710 C713 1.387 . S
H711 C707 0.950 . S
H712 C709 0.950 . S
C713 C704 1.390 . S
C713 H706 0.950 . S
C713 C710 1.387 . S
C714 C715 1.387 . S
C714 H718 0.950 . S
C714 C723 1.390 . S
C715 C714 1.387 . S
C715 C717 1.387 . S
H716 C723 0.950 . S
C717 C715 1.387 . S
C717 C719 1.390 . S
C717 H721 0.950 . S
H718 C714 0.950 . S
C719 C717 1.390 . S
C719 C720 1.387 . S
C719 H722 0.950 . S
C720 C719 1.387 . S
C720 C723 1.387 . S
H721 C717 0.950 . S
H722 C719 0.950 . S
C723 C714 1.390 . S
C723 H716 0.950 . S
C723 C720 1.387 . S
C724 C725 1.387 . S
C724 H728 0.950 . S
C724 C733 1.390 . S
C725 C724 1.387 . S
C725 C727 1.387 . S
H726 C733 0.950 . S
C727 C725 1.387 . S
C727 C729 1.390 . S
C727 H731 0.950 . S
H728 C724 0.950 . S
C729 C727 1.390 . S
C729 C730 1.387 . S
C729 H732 0.950 . S
C730 C729 1.387 . S
C730 C733 1.387 . S
H731 C727 0.950 . S
H732 C729 0.950 . S
C733 C724 1.390 . S
C733 H726 0.950 . S
C733 C730 1.387 . S
C734 C735 1.387 . S
C734 H738 0.950 . S
C734 C743 1.390 . S
C735 C734 1.387 . S
C735 C737 1.387 . S
H736 C743 0.950 . S
C737 C735 1.387 . S
C737 C739 1.390 . S
C737 H741 0.950 . S
H738 C734 0.950 . S
C739 C737 1.390 . S
C739 C740 1.387 . S
C739 H742 0.950 . S
C740 C739 1.387 . S
C740 C743 1.387 . S
H741 C737 0.950 . S
H742 C739 0.950 . S
C743 C734 1.390 . S
C743 H736 0.950 . S
C743 C740 1.387 . S
C744 C745 1.387 . S
C744 H748 0.950 . S
C744 C753 1.390 . S
C745 C744 1.387 . S
C745 C747 1.387 . S
H746 C753 0.950 . S
C747 C745 1.387 . S
C747 C749 1.390 . S
C747 H751 0.950 . S
H748 C744 0.950 . S
C749 C747 1.390 . S
C749 C750 1.387 . S
C749 H752 0.950 . S
C750 C749 1.387 . S
C750 C753 1.387 . S
H751 C747 0.950 . S
H752 C749 0.950 . S
C753 C744 1.390 . S
C753 H746 0.950 . S
C753 C750 1.387 . S
C754 C755 1.387 . S
C754 H758 0.950 . S
C754 C763 1.390 . S
C755 C754 1.387 . S
C755 C757 1.387 . S
H756 C763 0.950 . S
C757 C755 1.387 . S
C757 C759 1.390 . S
C757 H761 0.950 . S
H758 C754 0.950 . S
C759 C757 1.390 . S
C759 C760 1.387 . S
C759 H762 0.950 . S
C760 C759 1.387 . S
C760 C763 1.387 . S
H761 C757 0.950 . S
H762 C759 0.950 . S
C763 C754 1.390 . S
C763 H756 0.950 . S
C763 C760 1.387 . S
C764 C765 1.387 . S
C764 H768 0.950 . S
C764 C773 1.390 . S
C765 C764 1.387 . S
C765 C767 1.387 . S
H766 C773 0.950 . S
C767 C765 1.387 . S
C767 C769 1.390 . S
C767 H771 0.950 . S
H768 C764 0.950 . S
C769 C767 1.390 . S
C769 C770 1.387 . S
C769 H772 0.950 . S
C770 C769 1.387 . S
C770 C773 1.387 . S
H771 C767 0.950 . S
H772 C769 0.950 . S
C773 C764 1.390 . S
C773 H766 0.950 . S
C773 C770 1.387 . S
C774 C775 1.387 . S
C774 H778 0.950 . S
C774 C783 1.390 . S
C775 C774 1.387 . S
C775 C777 1.387 . S
H776 C783 0.950 . S
C777 C775 1.387 . S
C777 C779 1.390 . S
C777 H781 0.950 . S
H778 C774 0.950 . S
C779 C777 1.390 . S
C779 C780 1.387 . S
C779 H782 0.950 . S
C780 C779 1.387 . S
C780 C783 1.387 . S
H781 C777 0.950 . S
H782 C779 0.950 . S
C783 C774 1.390 . S
C783 H776 0.950 . S
C783 C780 1.387 . S
C784 C785 1.387 . S
C784 H788 0.950 . S
C784 C793 1.390 . S
C785 C784 1.387 . S
C785 C787 1.387 . S
H786 C793 0.950 . S
C787 C785 1.387 . S
C787 C789 1.390 . S
C787 H791 0.950 . S
H788 C784 0.950 . S
C789 C787 1.390 . S
C789 C790 1.387 . S
C789 H792 0.950 . S
C790 C789 1.387 . S
C790 C793 1.387 . S
H791 C787 0.950 . S
H792 C789 0.950 . S
C793 C784 1.390 . S
C793 H786 0.950 . S
C793 C790 1.387 . S
C794 C795 1.387 . S
C794 H798 0.950 . S
C794 C803 1.390 . S
C795 C794 1.387 . S
C795 C797 1.387 . S
H796 C803 0.950 . S
C797 C795 1.387 . S
C797 C799 1.390 . S
C797 H801 0.950 . S
H798 C794 0.950 . S
C799 C797 1.390 . S
C799 C800 1.387 . S
C799 H802 0.950 . S
C800 C799 1.387 . S
C800 C803 1.387 . S
H801 C797 0.950 . S
H802 C799 0.950 . S
C803 C794 1.390 . S
C803 H796 0.950 . S
C803 C800 1.387 . S
C804 C805 1.387 . S
C804 H808 0.950 . S
C804 C813 1.390 . S
C805 C804 1.387 . S
C805 C807 1.387 . S
H806 C813 0.950 . S
C807 C805 1.387 . S
C807 C809 1.390 . S
C807 H811 0.950 . S
H808 C804 0.950 . S
C809 C807 1.390 . S
C809 C810 1.387 . S
C809 H812 0.950 . S
C810 C809 1.387 . S
C810 C813 1.387 . S
H811 C807 0.950 . S
H812 C809 0.950 . S
C813 C804 1.390 . S
C813 H806 0.950 . S
C813 C810 1.387 . S
C814 C815 1.387 . S
C814 H818 0.950 . S
C814 C823 1.390 . S
C815 C814 1.387 . S
C815 C817 1.387 . S
H816 C823 0.950 . S
C817 C815 1.387 . S
C817 C819 1.390 . S
C817 H821 0.950 . S
H818 C814 0.950 . S
C819 C817 1.390 . S
C819 C820 1.387 . S
C819 H822 0.950 . S
C820 C819 1.387 . S
C820 C823 1.387 . S
H821 C817 0.950 . S
H822 C819 0.950 . S
C823 C814 1.390 . S
C823 H816 0.950 . S
C823 C820 1.387 . S
C824 C825 1.387 . S
C824 H828 0.950 . S
C824 C833 1.390 . S
C825 C824 1.387 . S
C825 C827 1.387 . S
H826 C833 0.950 . S
C827 C825 1.387 . S
C827 C829 1.390 . S
C827 H831 0.950 . S
H828 C824 0.950 . S
C829 C827 1.390 . S
C829 C830 1.387 . S
C829 H832 0.950 . S
C830 C829 1.387 . S
C830 C833 1.387 . S
H831 C827 0.950 . S
H832 C829 0.950 . S
C833 C824 1.390 . S
C833 H826 0.950 . S
C833 C830 1.387 . S
C834 C835 1.387 . S
C834 H838 0.950 . S
C834 C843 1.390 . S
C835 C834 1.387 . S
C835 C837 1.387 . S
H836 C843 0.950 . S
C837 C835 1.387 . S
C837 C839 1.390 . S
C837 H841 0.950 . S
H838 C834 0.950 . S
C839 C837 1.390 . S
C839 C840 1.387 . S
C839 H842 0.950 . S
C840 C839 1.387 . S
C840 C843 1.387 . S
H841 C837 0.950 . S
H842 C839 0.950 . S
C843 C834 1.390 . S
C843 H836 0.950 . S
C843 C840 1.387 . S
C844 C845 1.387 . S
C844 H848 0.950 . S
C844 C853 1.390 . S
C845 C844 1.387 . S
C845 C847 1.387 . S
H846 C853 0.950 . S
C847 C845 1.387 . S
C847 C849 1.390 . S
C847 H851 0.950 . S
H848 C844 0.950 . S
C849 C847 1.390 . S
C849 C850 1.387 . S
C849 H852 0.950 . S
C850 C849 1.387 . S
C850 C853 1.387 . S
H851 C847 0.950 . S
H852 C849 0.950 . S
C853 C844 1.390 . S
C853 H846 0.950 . S
C853 C850 1.387 . S
C854 C855 1.387 . S
C854 H858 0.950 . S
C854 C863 1.390 . S
C855 C854 1.387 . S
C855 C857 1.387 . S
H856 C863 0.950 . S
C857 C855 1.387 . S
C857 C859 1.390 . S
C857 H861 0.950 . S
H858 C854 0.950 . S
C859 C857 1.390 . S
C859 C860 1.387 . S
C859 H862 0.950 . S
C860 C859 1.387 . S
C860 C863 1.387 . S
H861 C857 0.950 . S
H862 C859 0.950 . S
C863 C854 1.390 . S
C863 H856 0.950 . S
C863 C860 1.387 . S
C864 C865 1.387 . S
C864 H868 0.950 . S
C864 C873 1.390 . S
C865 C864 1.387 . S
C865 C867 1.387 . S
H866 C873 0.950 . S
C867 C865 1.387 . S
C867 C869 1.390 . S
C867 H871 0.950 . S
H868 C864 0.950 . S
C869 C867 1.390 . S
C869 C870 1.387 . S
C869 H872 0.950 . S
C870 C869 1.387 . S
C870 C873 1.387 . S
H871 C867 0.950 . S
H872 C869 0.950 . S
C873 C864 1.390 . S
C873 H866 0.950 . S
C873 C870 1.387 . S
C874 C875 1.387 . S
C874 H878 0.950 . S
C874 C883 1.390 1_565 S
C875 C874 1.387 . S
C875 C877 1.387 . S
H876 C883 0.950 . S
C877 C875 1.387 . S
C877 C879 1.390 1_565 S
C877 H881 0.950 . S
H878 C874 0.950 . S
C879 C877 1.390 1_545 S
C879 C880 1.387 . S
C879 H882 0.950 . S
C880 C879 1.387 . S
C880 C883 1.387 . S
H881 C877 0.950 . S
H882 C879 0.950 . S
C883 C874 1.390 1_545 S
C883 H876 0.950 . S
C883 C880 1.387 . S
C884 C885 1.387 . S
C884 H888 0.950 . S
C884 C893 1.390 1_655 S
C885 C884 1.387 . S
C885 C887 1.387 1_655 S
H886 C893 0.950 . S
C887 C885 1.387 1_455 S
C887 C889 1.390 . S
C887 H891 0.950 . S
H888 C884 0.950 . S
C889 C887 1.390 . S
C889 C890 1.387 . S
C889 H892 0.950 . S
C890 C889 1.387 . S
C890 C893 1.387 . S
H891 C887 0.950 . S
H892 C889 0.950 . S
C893 C884 1.390 1_455 S
C893 H886 0.950 . S
C893 C890 1.387 . S
C894 C895 1.387 . S
C894 H898 0.950 . S
C894 C903 1.390 . S
C895 C894 1.387 . S
C895 C897 1.387 . S
H896 C903 0.950 . S
C897 C895 1.387 . S
C897 C899 1.390 . S
C897 H901 0.950 . S
H898 C894 0.950 . S
C899 C897 1.390 . S
C899 C900 1.387 . S
C899 H902 0.950 . S
C900 C899 1.387 . S
C900 C903 1.387 . S
H901 C897 0.950 . S
H902 C899 0.950 . S
C903 C894 1.390 . S
C903 H896 0.950 . S
C903 C900 1.387 . S
C904 C905 1.387 . S
C904 H908 0.950 . S
C904 C913 1.390 1_545 S
C905 C904 1.387 . S
C905 C907 1.387 . S
H906 C913 0.950 . S
C907 C905 1.387 . S
C907 C909 1.390 1_545 S
C907 H911 0.950 . S
H908 C904 0.950 . S
C909 C907 1.390 1_565 S
C909 C910 1.387 . S
C909 H912 0.950 . S
C910 C909 1.387 . S
C910 C913 1.387 . S
H911 C907 0.950 . S
H912 C909 0.950 . S
C913 C904 1.390 1_565 S
C913 H906 0.950 . S
C913 C910 1.387 . S
C914 C915 1.387 . S
C914 H918 0.950 . S
C914 C923 1.390 1_655 S
C915 C914 1.387 . S
C915 C917 1.387 . S
H916 C923 0.950 . S
C917 C915 1.387 . S
C917 C919 1.390 1_655 S
C917 H921 0.950 . S
H918 C914 0.950 . S
C919 C917 1.390 1_455 S
C919 C920 1.387 . S
C919 H922 0.950 . S
C920 C919 1.387 . S
C920 C923 1.387 . S
H921 C917 0.950 . S
H922 C919 0.950 . S
C923 C914 1.390 1_455 S
C923 H916 0.950 . S
C923 C920 1.387 . S
C924 C925 1.387 . S
C924 H928 0.950 . S
C924 C933 1.390 . S
C925 C924 1.387 . S
C925 C927 1.387 . S
H926 C933 0.950 . S
C927 C925 1.387 . S
C927 C929 1.390 . S
C927 H931 0.950 . S
H928 C924 0.950 . S
C929 C927 1.390 . S
C929 C930 1.387 . S
C929 H932 0.950 . S
C930 C929 1.387 . S
C930 C933 1.387 . S
H931 C927 0.950 . S
H932 C929 0.950 . S
C933 C924 1.390 . S
C933 H926 0.950 . S
C933 C930 1.387 . S
C934 C935 1.387 . S
C934 H938 0.950 . S
C934 C943 1.390 . S
C935 C934 1.387 . S
C935 C937 1.387 . S
H936 C943 0.950 . S
C937 C935 1.387 . S
C937 C939 1.390 . S
C937 H941 0.950 . S
H938 C934 0.950 . S
C939 C937 1.390 . S
C939 C940 1.387 . S
C939 H942 0.950 . S
C940 C939 1.387 . S
C940 C943 1.387 . S
H941 C937 0.950 . S
H942 C939 0.950 . S
C943 C934 1.390 . S
C943 H936 0.950 . S
C943 C940 1.387 . S
C944 C945 1.387 . S
C944 H948 0.950 . S
C944 C953 1.390 . S
C945 C944 1.387 . S
C945 C947 1.387 . S
H946 C953 0.950 . S
C947 C945 1.387 . S
C947 C949 1.390 . S
C947 H951 0.950 . S
H948 C944 0.950 . S
C949 C947 1.390 . S
C949 C950 1.387 . S
C949 H952 0.950 . S
C950 C949 1.387 . S
C950 C953 1.387 . S
H951 C947 0.950 . S
H952 C949 0.950 . S
C953 C944 1.390 . S
C953 H946 0.950 . S
C953 C950 1.387 . S
C954 C955 1.387 . S
C954 H958 0.950 . S
C954 C963 1.390 . S
C955 C954 1.387 . S
C955 C957 1.387 . S
H956 C963 0.950 . S
C957 C955 1.387 . S
C957 C959 1.390 . S
C957 H961 0.950 . S
H958 C954 0.950 . S
C959 C957 1.390 . S
C959 C960 1.387 . S
C959 H962 0.950 . S
C960 C959 1.387 . S
C960 C963 1.387 . S
H961 C957 0.950 . S
H962 C959 0.950 . S
C963 C954 1.390 . S
C963 H956 0.950 . S
C963 C960 1.387 . S
C964 C965 1.387 . S
C964 H968 0.950 . S
C964 C973 1.390 . S
C965 C964 1.387 . S
C965 C967 1.387 . S
H966 C973 0.950 . S
C967 C965 1.387 . S
C967 C969 1.390 . S
C967 H971 0.950 1_554 S
H968 C964 0.950 . S
C969 C967 1.390 . S
C969 C970 1.387 . S
C969 H972 0.950 . S
C970 C969 1.387 . S
C970 C973 1.387 . S
H971 C967 0.950 1_556 S
H972 C969 0.950 . S
C973 C964 1.390 . S
C973 H966 0.950 . S
C973 C970 1.387 . S
C974 C975 1.387 . S
C974 H978 0.950 . S
C974 C983 1.390 . S
C975 C974 1.387 . S
C975 C977 1.387 . S
H976 C983 0.950 . S
C977 C975 1.387 . S
C977 C979 1.390 . S
C977 H981 0.950 . S
H978 C974 0.950 . S
C979 C977 1.390 . S
C979 C980 1.387 . S
C979 H982 0.950 . S
C980 C979 1.387 . S
C980 C983 1.387 . S
H981 C977 0.950 . S
H982 C979 0.950 . S
C983 C974 1.390 . S
C983 H976 0.950 . S
C983 C980 1.387 . S
C984 C985 1.387 . S
C984 H988 0.950 1_556 S
C984 C993 1.390 . S
C985 C984 1.387 . S
C985 C987 1.387 . S
H986 C993 0.950 . S
C987 C985 1.387 . S
C987 C989 1.390 . S
C987 H991 0.950 . S
H988 C984 0.950 1_554 S
C989 C987 1.390 . S
C989 C990 1.387 . S
C989 H992 0.950 . S
C990 C989 1.387 . S
C990 C993 1.387 . S
H991 C987 0.950 . S
H992 C989 0.950 . S
C993 C984 1.390 . S
C993 H986 0.950 . S
C993 C990 1.387 . S
C994 C995 1.387 . S
C994 H998 0.950 . S
C994 C1003 1.390 . S
C995 C994 1.387 . S
C995 C997 1.387 . S
H996 C1003 0.950 . S
C997 C995 1.387 . S
C997 C999 1.390 . S
C997 H1001 0.950 1_556 S
H998 C994 0.950 . S
C999 C997 1.390 . S
C999 C1000 1.387 . S
C999 H1002 0.950 . S
C1000 C999 1.387 . S
C1000 C1003 1.387 . S
H1001 C997 0.950 1_554 S
H1002 C999 0.950 . S
C1003 C994 1.390 . S
C1003 H996 0.950 . S
C1003 C1000 1.387 . S
C1004 C1005 1.387 . S
C1004 H1008 0.950 . S
C1004 C1013 1.390 . S
C1005 C1004 1.387 . S
C1005 C1007 1.387 . S
H1006 C1013 0.950 . S
C1007 C1005 1.387 . S
C1007 C1009 1.390 . S
C1007 H1011 0.950 . S
H1008 C1004 0.950 . S
C1009 C1007 1.390 . S
C1009 C1010 1.387 . S
C1009 H1012 0.950 . S
C1010 C1009 1.387 . S
C1010 C1013 1.387 . S
H1011 C1007 0.950 . S
H1012 C1009 0.950 . S
C1013 C1004 1.390 . S
C1013 H1006 0.950 . S
C1013 C1010 1.387 . S
C1014 C1015 1.387 . S
C1014 H1018 0.950 . S
C1014 C1023 1.390 . S
C1015 C1014 1.387 . S
C1015 C1017 1.387 . S
H1016 C1023 0.950 . S
C1017 C1015 1.387 . S
C1017 C1019 1.390 . S
C1017 H1021 0.950 . S
H1018 C1014 0.950 . S
C1019 C1017 1.390 . S
C1019 C1020 1.387 . S
C1019 H1022 0.950 . S
C1020 C1019 1.387 . S
C1020 C1023 1.387 . S
H1021 C1017 0.950 . S
H1022 C1019 0.950 . S
C1023 C1014 1.390 . S
C1023 H1016 0.950 . S
C1023 C1020 1.387 . S
C1024 C1025 1.387 . S
C1024 H1028 0.950 . S
C1024 C1033 1.390 . S
C1025 C1024 1.387 . S
C1025 C1027 1.387 . S
H1026 C1033 0.950 . S
C1027 C1025 1.387 . S
C1027 C1029 1.390 . S
C1027 H1031 0.950 . S
H1028 C1024 0.950 . S
C1029 C1027 1.390 . S
C1029 C1030 1.387 . S
C1029 H1032 0.950 . S
C1030 C1029 1.387 . S
C1030 C1033 1.387 . S
H1031 C1027 0.950 . S
H1032 C1029 0.950 . S
C1033 C1024 1.390 . S
C1033 H1026 0.950 . S
C1033 C1030 1.387 . S
C1034 C1035 1.387 . S
C1034 H1038 0.950 . S
C1034 C1043 1.390 . S
C1035 C1034 1.387 . S
C1035 C1037 1.387 . S
H1036 C1043 0.950 . S
C1037 C1035 1.387 . S
C1037 C1039 1.390 . S
C1037 H1041 0.950 . S
H1038 C1034 0.950 . S
C1039 C1037 1.390 . S
C1039 C1040 1.387 . S
C1039 H1042 0.950 . S
C1040 C1039 1.387 . S
C1040 C1043 1.387 . S
H1041 C1037 0.950 . S
H1042 C1039 0.950 . S
C1043 C1034 1.390 . S
C1043 H1036 0.950 . S
C1043 C1040 1.387 . S
C1044 C1045 1.387 . S
C1044 H1048 0.950 . S
C1044 C1053 1.390 . S
C1045 C1044 1.387 . S
C1045 C1047 1.387 . S
H1046 C1053 0.950 . S
C1047 C1045 1.387 . S
C1047 C1049 1.390 . S
C1047 H1051 0.950 . S
H1048 C1044 0.950 . S
C1049 C1047 1.390 . S
C1049 C1050 1.387 . S
C1049 H1052 0.950 . S
C1050 C1049 1.387 . S
C1050 C1053 1.387 . S
H1051 C1047 0.950 . S
H1052 C1049 0.950 . S
C1053 C1044 1.390 . S
C1053 H1046 0.950 . S
C1053 C1050 1.387 . S
C1054 C1055 1.387 . S
C1054 H1058 0.950 . S
C1054 C1063 1.390 . S
C1055 C1054 1.387 . S
C1055 C1057 1.387 . S
H1056 C1063 0.950 . S
C1057 C1055 1.387 . S
C1057 C1059 1.390 . S
C1057 H1061 0.950 . S
H1058 C1054 0.950 . S
C1059 C1057 1.390 . S
C1059 C1060 1.387 . S
C1059 H1062 0.950 . S
C1060 C1059 1.387 . S
C1060 C1063 1.387 . S
H1061 C1057 0.950 . S
H1062 C1059 0.950 . S
C1063 C1054 1.390 . S
C1063 H1056 0.950 . S
C1063 C1060 1.387 . S
C1064 C1065 1.387 . S
C1064 H1068 0.950 . S
C1064 C1073 1.390 . S
C1065 C1064 1.387 . S
C1065 C1067 1.387 . S
H1066 C1073 0.950 . S
C1067 C1065 1.387 . S
C1067 C1069 1.390 . S
C1067 H1071 0.950 . S
H1068 C1064 0.950 . S
C1069 C1067 1.390 . S
C1069 C1070 1.387 . S
C1069 H1072 0.950 . S
C1070 C1069 1.387 . S
C1070 C1073 1.387 . S
H1071 C1067 0.950 . S
H1072 C1069 0.950 . S
C1073 C1064 1.390 . S
C1073 H1066 0.950 . S
C1073 C1070 1.387 . S
C1074 C1075 1.387 . S
C1074 H1078 0.950 . S
C1074 C1083 1.390 . S
C1075 C1074 1.387 . S
C1075 C1077 1.387 . S
H1076 C1083 0.950 . S
C1077 C1075 1.387 . S
C1077 C1079 1.390 . S
C1077 H1081 0.950 . S
H1078 C1074 0.950 . S
C1079 C1077 1.390 . S
C1079 C1080 1.387 . S
C1079 H1082 0.950 . S
C1080 C1079 1.387 . S
C1080 C1083 1.387 . S
H1081 C1077 0.950 . S
H1082 C1079 0.950 . S
C1083 C1074 1.390 . S
C1083 H1076 0.950 . S
C1083 C1080 1.387 . S
C1084 C1085 1.387 . S
C1084 H1088 0.950 . S
C1084 C1093 1.390 . S
C1085 C1084 1.387 . S
C1085 C1087 1.387 . S
H1086 C1093 0.950 . S
C1087 C1085 1.387 . S
C1087 C1089 1.390 . S
C1087 H1091 0.950 . S
H1088 C1084 0.950 . S
C1089 C1087 1.390 . S
C1089 C1090 1.387 . S
C1089 H1092 0.950 . S
C1090 C1089 1.387 . S
C1090 C1093 1.387 . S
H1091 C1087 0.950 . S
H1092 C1089 0.950 . S
C1093 C1084 1.390 . S
C1093 H1086 0.950 . S
C1093 C1090 1.387 . S
C1094 C1095 1.387 . S
C1094 H1098 0.950 . S
C1094 C1103 1.390 . S
C1095 C1094 1.387 . S
C1095 C1097 1.387 . S
H1096 C1103 0.950 . S
C1097 C1095 1.387 . S
C1097 C1099 1.390 . S
C1097 H1101 0.950 . S
H1098 C1094 0.950 . S
C1099 C1097 1.390 . S
C1099 C1100 1.387 . S
C1099 H1102 0.950 . S
C1100 C1099 1.387 . S
C1100 C1103 1.387 . S
H1101 C1097 0.950 . S
H1102 C1099 0.950 . S
C1103 C1094 1.390 . S
C1103 H1096 0.950 . S
C1103 C1100 1.387 . S
C1104 C1105 1.387 . S
C1104 H1108 0.950 . S
C1104 C1113 1.390 . S
C1105 C1104 1.387 . S
C1105 C1107 1.387 . S
H1106 C1113 0.950 . S
C1107 C1105 1.387 . S
C1107 C1109 1.390 . S
C1107 H1111 0.950 . S
H1108 C1104 0.950 . S
C1109 C1107 1.390 . S
C1109 C1110 1.387 . S
C1109 H1112 0.950 . S
C1110 C1109 1.387 . S
C1110 C1113 1.387 . S
H1111 C1107 0.950 . S
H1112 C1109 0.950 . S
C1113 C1104 1.390 . S
C1113 H1106 0.950 . S
C1113 C1110 1.387 . S
C1114 C1115 1.387 . S
C1114 H1118 0.950 . S
C1114 C1123 1.390 . S
C1115 C1114 1.387 . S
C1115 C1117 1.387 . S
H1116 C1123 0.950 . S
C1117 C1115 1.387 . S
C1117 C1119 1.390 . S
C1117 H1121 0.950 . S
H1118 C1114 0.950 . S
C1119 C1117 1.390 . S
C1119 C1120 1.387 . S
C1119 H1122 0.950 . S
C1120 C1119 1.387 . S
C1120 C1123 1.387 . S
H1121 C1117 0.950 . S
H1122 C1119 0.950 . S
C1123 C1114 1.390 . S
C1123 H1116 0.950 . S
C1123 C1120 1.387 . S
C1124 C1125 1.387 . S
C1124 H1128 0.950 . S
C1124 C1133 1.390 . S
C1125 C1124 1.387 . S
C1125 C1127 1.387 . S
H1126 C1133 0.950 . S
C1127 C1125 1.387 . S
C1127 C1129 1.390 . S
C1127 H1131 0.950 . S
H1128 C1124 0.950 . S
C1129 C1127 1.390 . S
C1129 C1130 1.387 . S
C1129 H1132 0.950 . S
C1130 C1129 1.387 . S
C1130 C1133 1.387 . S
H1131 C1127 0.950 . S
H1132 C1129 0.950 . S
C1133 C1124 1.390 . S
C1133 H1126 0.950 . S
C1133 C1130 1.387 . S
C1134 C1135 1.387 . S
C1134 H1138 0.950 . S
C1134 C1143 1.390 . S
C1135 C1134 1.387 . S
C1135 C1137 1.387 . S
H1136 C1143 0.950 . S
C1137 C1135 1.387 . S
C1137 C1139 1.390 . S
C1137 H1141 0.950 . S
H1138 C1134 0.950 . S
C1139 C1137 1.390 . S
C1139 C1140 1.387 . S
C1139 H1142 0.950 . S
C1140 C1139 1.387 . S
C1140 C1143 1.387 . S
H1141 C1137 0.950 . S
H1142 C1139 0.950 . S
C1143 C1134 1.390 . S
C1143 H1136 0.950 . S
C1143 C1140 1.387 . S
C1144 C1145 1.387 . S
C1144 H1148 0.950 . S
C1144 C1153 1.390 . S
C1145 C1144 1.387 . S
C1145 C1147 1.387 . S
H1146 C1153 0.950 . S
C1147 C1145 1.387 . S
C1147 C1149 1.390 . S
C1147 H1151 0.950 . S
H1148 C1144 0.950 . S
C1149 C1147 1.390 . S
C1149 C1150 1.387 . S
C1149 H1152 0.950 . S
C1150 C1149 1.387 . S
C1150 C1153 1.387 . S
H1151 C1147 0.950 . S
H1152 C1149 0.950 . S
C1153 C1144 1.390 . S
C1153 H1146 0.950 . S
C1153 C1150 1.387 . S
C1154 C1155 1.387 . S
C1154 H1158 0.950 . S
C1154 C1163 1.390 . S
C1155 C1154 1.387 . S
C1155 C1157 1.387 . S
H1156 C1163 0.950 . S
C1157 C1155 1.387 . S
C1157 C1159 1.390 . S
C1157 H1161 0.950 . S
H1158 C1154 0.950 . S
C1159 C1157 1.390 . S
C1159 C1160 1.387 . S
C1159 H1162 0.950 . S
C1160 C1159 1.387 . S
C1160 C1163 1.387 . S
H1161 C1157 0.950 . S
H1162 C1159 0.950 . S
C1163 C1154 1.390 . S
C1163 H1156 0.950 . S
C1163 C1160 1.387 . S
C1164 C1165 1.387 . S
C1164 H1168 0.950 . S
C1164 C1173 1.390 1_455 S
C1165 C1164 1.387 . S
C1165 C1167 1.387 . S
H1166 C1173 0.950 . S
C1167 C1165 1.387 . S
C1167 C1169 1.390 1_455 S
C1167 H1171 0.950 . S
H1168 C1164 0.950 . S
C1169 C1167 1.390 1_655 S
C1169 C1170 1.387 . S
C1169 H1172 0.950 . S
C1170 C1169 1.387 . S
C1170 C1173 1.387 . S
H1171 C1167 0.950 . S
H1172 C1169 0.950 . S
C1173 C1164 1.390 1_655 S
C1173 H1166 0.950 . S
C1173 C1170 1.387 . S
C1174 C1175 1.387 . S
C1174 H1178 0.950 . S
C1174 C1183 1.390 . S
C1175 C1174 1.387 . S
C1175 C1177 1.387 . S
H1176 C1183 0.950 . S
C1177 C1175 1.387 . S
C1177 C1179 1.390 . S
C1177 H1181 0.950 . S
H1178 C1174 0.950 . S
C1179 C1177 1.390 . S
C1179 C1180 1.387 . S
C1179 H1182 0.950 . S
C1180 C1179 1.387 . S
C1180 C1183 1.387 . S
H1181 C1177 0.950 . S
H1182 C1179 0.950 . S
C1183 C1174 1.390 . S
C1183 H1176 0.950 . S
C1183 C1180 1.387 . S
C1184 C1185 1.387 . S
C1184 H1188 0.950 . S
C1184 C1193 1.390 1_545 S
C1185 C1184 1.387 . S
C1185 C1187 1.387 . S
H1186 C1193 0.950 . S
C1187 C1185 1.387 . S
C1187 C1189 1.390 1_545 S
C1187 H1191 0.950 . S
H1188 C1184 0.950 . S
C1189 C1187 1.390 1_565 S
C1189 C1190 1.387 . S
C1189 H1192 0.950 . S
C1190 C1189 1.387 . S
C1190 C1193 1.387 . S
H1191 C1187 0.950 . S
H1192 C1189 0.950 . S
C1193 C1184 1.390 1_565 S
C1193 H1186 0.950 . S
C1193 C1190 1.387 . S
C1194 C1195 1.387 1_556 S
C1194 H1198 0.950 . S
C1194 C1203 1.390 1_545 S
C1195 C1194 1.387 1_554 S
C1195 C1197 1.387 . S
H1196 C1203 0.950 . S
C1197 C1195 1.387 . S
C1197 C1199 1.390 1_545 S
C1197 H1201 0.950 . S
H1198 C1194 0.950 . S
C1199 C1197 1.390 1_565 S
C1199 C1200 1.387 1_554 S
C1199 H1202 0.950 . S
C1200 C1199 1.387 1_556 S
C1200 C1203 1.387 . S
H1201 C1197 0.950 . S
H1202 C1199 0.950 . S
C1203 C1194 1.390 1_565 S
C1203 H1196 0.950 . S
C1203 C1200 1.387 . S
C1204 C1205 1.387 . S
C1204 H1208 0.950 . S
C1204 C1213 1.390 . S
C1205 C1204 1.387 . S
C1205 C1207 1.387 1_454 S
H1206 C1213 0.950 . S
C1207 C1205 1.387 1_656 S
C1207 C1209 1.390 . S
C1207 H1211 0.950 . S
H1208 C1204 0.950 . S
C1209 C1207 1.390 . S
C1209 C1210 1.387 . S
C1209 H1212 0.950 . S
C1210 C1209 1.387 . S
C1210 C1213 1.387 1_656 S
H1211 C1207 0.950 . S
H1212 C1209 0.950 . S
C1213 C1204 1.390 . S
C1213 H1206 0.950 . S
C1213 C1210 1.387 1_454 S
C1214 C1215 1.387 1_556 S
C1214 H1218 0.950 . S
C1214 C1223 1.390 . S
C1215 C1214 1.387 1_554 S
C1215 C1217 1.387 . S
H1216 C1223 0.950 . S
C1217 C1215 1.387 . S
C1217 C1219 1.390 . S
C1217 H1221 0.950 . S
H1218 C1214 0.950 . S
C1219 C1217 1.390 . S
C1219 C1220 1.387 1_554 S
C1219 H1222 0.950 . S
C1220 C1219 1.387 1_556 S
C1220 C1223 1.387 . S
H1221 C1217 0.950 . S
H1222 C1219 0.950 . S
C1223 C1214 1.390 . S
C1223 H1216 0.950 . S
C1223 C1220 1.387 . S
C505 C152 1.269 . S
C510 C5 1.204 . S
C515 C166 1.349 . S
C520 C19 1.327 . S
C525 C33 1.236 . S
C530 C138 1.280 . S
C535 C47 1.227 . S
C540 C124 1.290 . S
C545 C61 1.260 . S
C550 C96 1.298 . S
C555 C110 1.274 . S
C560 C75 1.186 . S
C565 C68 1.268 . S
C570 C89 1.204 . S
C575 C82 1.350 . S
C580 C103 1.325 . S
C585 C117 1.237 . S
C590 C54 1.280 . S
C595 C40 1.289 . S
C600 C131 1.222 . S
C605 C145 1.261 . S
C610 C12 1.299 . S
C615 C159 1.185 . S
C620 C26 1.274 . S
C625 C320 1.443 . S
C630 C173 1.453 . S
C635 C334 1.286 . S
C640 C187 1.243 . S
C645 C201 1.231 . S
C650 C306 1.278 . S
C655 C215 1.363 . S
C660 C292 1.371 1_556 S
C665 C229 1.231 . S
C670 C264 1.279 1_556 S
C675 C243 1.299 . S
C680 C278 1.325 1_556 S
C685 C236 1.270 . S
C690 C257 1.226 . S
C695 C250 1.273 . S
C700 C271 1.197 . S
C705 C222 1.266 . S
C710 C285 1.171 . S
C715 C208 1.276 . S
C720 C299 1.228 . S
C725 C180 1.274 . S
C730 C313 1.166 . S
C735 C194 1.272 . S
C740 C327 1.220 . S
C745 C341 1.226 . S
C750 C488 1.269 . S
C755 C502 1.274 . S
C760 C355 1.195 . S
C765 C474 1.266 . S
C770 C369 1.170 . S
C775 C383 1.227 . S
C780 C460 1.275 . S
C785 C397 1.161 . S
C790 C432 1.274 . S
C795 C411 1.218 . S
C800 C446 1.269 . S
C805 C404 1.442 . S
C810 C425 1.451 . S
C815 C418 1.287 . S
C820 C439 1.241 . S
C825 C390 1.278 . S
C830 C453 1.230 . S
C835 C467 1.362 . S
C840 C376 1.370 1_554 S
C845 C348 1.279 1_554 S
C850 C481 1.231 . S
C855 C495 1.298 . S
C860 C362 1.326 1_554 S
C865 C53 1.378 . S
C870 C11 1.377 . S
C875 C67 1.328 . S
C880 C25 1.328 . S
C885 C39 1.441 . S
C890 C81 1.460 . S
C895 C137 1.378 . S
C900 C95 1.377 . S
C905 C151 1.328 . S
C910 C109 1.328 . S
C915 C165 1.459 . S
C920 C123 1.440 . S
C925 C221 1.416 . S
C930 C179 1.402 . S
C935 C235 1.327 . S
C940 C193 1.328 . S
C945 C207 1.349 . S
C950 C249 1.349 . S
C955 C263 1.333 . S
C960 C305 1.338 . S
C965 C319 1.684 . S
C970 C277 1.817 . S
C975 C291 1.334 . S
C980 C333 1.336 . S
C985 C389 1.340 . S
C990 C347 1.334 . S
C995 C403 1.680 . S
C1000 C361 1.814 . S
C1005 C375 1.334 . S
C1010 C417 1.336 . S
C1015 C431 1.401 . S
C1020 C473 1.414 . S
C1025 C445 1.327 . S
C1030 C487 1.326 . S
C1035 C459 1.348 . S
C1040 C501 1.348 . S
C1045 C4 1.547 . S
C1050 C256 1.528 . S
C1055 C270 1.499 . S
C1060 C18 1.474 . S
C1065 C284 1.650 . S
C1070 C32 1.588 . S
C1075 C466 1.427 . S
C1080 C46 1.414 . S
C1085 C480 1.438 . S
C1090 C60 1.446 . S
C1095 C494 1.531 . S
C1100 C74 1.555 . S
C1105 C88 1.547 . S
C1110 C340 1.528 . S
C1115 C354 1.499 . S
C1120 C102 1.474 . S
C1125 C368 1.653 . S
C1130 C116 1.592 . S
C1135 C130 1.411 . S
C1140 C214 1.424 . S
C1145 C144 1.446 . S
C1150 C228 1.439 . S
C1155 C158 1.556 . S
C1160 C242 1.532 . S
C1165 C424 0.868 . S
C1170 C172 0.868 . S
C1175 C438 1.438 . S
C1180 C186 1.438 . S
C1185 C200 1.515 . S
C1190 C452 1.515 . S
C1195 C298 1.505 . S
C1200 C382 1.505 . S
C1205 C312 2.456 . S
C1210 C396 2.456 . S
C1215 C326 1.492 . S
C1220 C410 1.492 . S
