# Generated by pormake.
# Topology uoc, (4)-cn, num edge types: 1
# Building blocks:
#     Node 0, Type 0, BuildingBlock: NAHDIM_clean_sbu_0, # of connection points: 4
#     Node 1, Type 0, BuildingBlock: NAHDIM_clean_sbu_0, # of connection points: 4
#     Node 2, Type 0, BuildingBlock: NAHDIM_clean_sbu_0, # of connection points: 4
#     Node 3, Type 0, BuildingBlock: NAHDIM_clean_sbu_0, # of connection points: 4
#     Node 4, Type 0, BuildingBlock: NAHDIM_clean_sbu_0, # of connection points: 4
#     Node 5, Type 0, BuildingBlock: NAHDIM_clean_sbu_0, # of connection points: 4
#     Node 6, Type 0, BuildingBlock: NAHDIM_clean_sbu_0, # of connection points: 4
#     Node 7, Type 0, BuildingBlock: NAHDIM_clean_sbu_0, # of connection points: 4
#     Edge 8, Type (0, 0), BuildingBlock: TEMPAE_clean_linker_10, # of connection points: 2
#     Edge 9, Type (0, 0), BuildingBlock: TEMPAE_clean_linker_10, # of connection points: 2
#     Edge 10, Type (0, 0), BuildingBlock: TEMPAE_clean_linker_10, # of connection points: 2
#     Edge 11, Type (0, 0), BuildingBlock: TEMPAE_clean_linker_10, # of connection points: 2
#     Edge 12, Type (0, 0), BuildingBlock: TEMPAE_clean_linker_10, # of connection points: 2
#     Edge 13, Type (0, 0), BuildingBlock: TEMPAE_clean_linker_10, # of connection points: 2
#     Edge 14, Type (0, 0), BuildingBlock: TEMPAE_clean_linker_10, # of connection points: 2
#     Edge 15, Type (0, 0), BuildingBlock: TEMPAE_clean_linker_10, # of connection points: 2
#     Edge 16, Type (0, 0), BuildingBlock: TEMPAE_clean_linker_10, # of connection points: 2
#     Edge 17, Type (0, 0), BuildingBlock: TEMPAE_clean_linker_10, # of connection points: 2
#     Edge 18, Type (0, 0), BuildingBlock: TEMPAE_clean_linker_10, # of connection points: 2
#     Edge 19, Type (0, 0), BuildingBlock: TEMPAE_clean_linker_10, # of connection points: 2
#     Edge 20, Type (0, 0), BuildingBlock: TEMPAE_clean_linker_10, # of connection points: 2
#     Edge 21, Type (0, 0), BuildingBlock: TEMPAE_clean_linker_10, # of connection points: 2
#     Edge 22, Type (0, 0), BuildingBlock: TEMPAE_clean_linker_10, # of connection points: 2
#     Edge 23, Type (0, 0), BuildingBlock: TEMPAE_clean_linker_10, # of connection points: 2
# Relax obj value: 0.200
# Max RMSD: 0.198
# Mean RMSD: 0.198
data_MOF--net-uoc--node1-NAHDIM_clean_sbu_0--edge1-TEMPAE_clean_linker_10
_symmetry_space_group_name_H-M    P1
_symmetry_Int_Tables_number       1
_symmetry_cell_setting            triclinic
loop_
_symmetry_equiv_pos_as_xyz
'x, y, z'
_cell_length_a     27.376752
_cell_length_b     27.382695
_cell_length_c     52.658256
_cell_angle_alpha  90.012141
_cell_angle_beta   90.058093
_cell_angle_gamma 94.338532
loop_
_atom_site_label
_atom_site_type_symbol
_atom_site_fract_x
_atom_site_fract_y
_atom_site_fract_z
_atom_type_partial_charge
C0 C 0.06802 0.4147 0.10325 0.0
O1 O 0.11588 0.41609 0.1057 0.0
O2 O 0.12243 0.31058 0.07041 0.0
Zn3 Zn 0.08018 0.3122 0.10155 0.0
O4 O 0.121 0.31096 0.13323 0.0
C5 C 0.04067 0.21501 0.08815 0.0
O6 O 0.0792 0.21725 0.07324 0.0
O7 O 0.0439 0.37337 0.10114 0.0
C8 C 0.14195 0.27291 0.13959 0.0
O9 O 0.13785 0.23423 0.12475 0.0
C10 C 0.16894 0.31613 0.07012 0.0
O11 O 0.19278 0.32657 0.09132 0.0
O12 O 0.03271 0.2519 0.10182 0.0
C13 C 0.86559 0.54229 0.37987 0.0
O14 O 0.84282 0.53891 0.40183 0.0
O15 O 0.796 0.63819 0.40281 0.0
Zn16 Zn 0.79041 0.6065 0.36861 0.0
O17 O 0.78777 0.65722 0.34149 0.0
C18 C 0.69281 0.56867 0.3817 0.0
O19 O 0.69757 0.60411 0.39854 0.0
O20 O 0.84914 0.56875 0.36252 0.0
C21 C 0.75196 0.68367 0.33869 0.0
O22 O 0.7149 0.67878 0.35455 0.0
C23 C 0.81172 0.68238 0.40671 0.0
O24 O 0.827 0.70994 0.38746 0.0
O25 O 0.72834 0.56198 0.36687 0.0
C26 C 0.41758 0.19183 0.60894 0.0
O27 O 0.41039 0.21398 0.58726 0.0
O28 O 0.30574 0.23615 0.59418 0.0
Zn29 Zn 0.34484 0.25422 0.62548 0.0
O30 O 0.30402 0.24905 0.65716 0.0
C31 C 0.35967 0.35613 0.61039 0.0
O32 O 0.3151 0.34811 0.6013 0.0
O33 O 0.39455 0.20443 0.62852 0.0
C34 C 0.31079 0.27967 0.67519 0.0
O35 O 0.34193 0.31808 0.67201 0.0
C36 C 0.26189 0.24487 0.58915 0.0
O37 O 0.23645 0.26812 0.60579 0.0
O38 O 0.37956 0.3215 0.62151 0.0
C39 C 0.7063 0.87629 0.88306 0.0
O40 O 0.73 0.86762 0.9041 0.0
O41 O 0.76501 0.76669 0.89177 0.0
Zn42 Zn 0.77309 0.81065 0.86152 0.0
O43 O 0.76526 0.77213 0.82931 0.0
C44 C 0.87423 0.83135 0.87524 0.0
O45 O 0.86692 0.78837 0.88624 0.0
O46 O 0.71936 0.85696 0.86244 0.0
C47 C 0.79972 0.76492 0.81394 0.0
O48 O 0.84474 0.78134 0.8196 0.0
C49 C 0.7238 0.74771 0.89933 0.0
O50 O 0.68437 0.7541 0.88586 0.0
O51 O 0.83918 0.84864 0.86315 0.0
C52 C 0.58798 0.87858 0.61025 0.0
O53 O 0.63555 0.87747 0.6132 0.0
O54 O 0.63705 0.77832 0.57277 0.0
Zn55 Zn 0.59705 0.77685 0.60461 0.0
O56 O 0.64062 0.77361 0.63493 0.0
C57 C 0.55447 0.68138 0.58993 0.0
O58 O 0.59054 0.68468 0.57344 0.0
O59 O 0.56227 0.83864 0.60638 0.0
C60 C 0.66313 0.73595 0.64014 0.0
O61 O 0.6583 0.69772 0.62501 0.0
C62 C 0.68291 0.78945 0.57178 0.0
O63 O 0.70698 0.80184 0.59268 0.0
O64 O 0.54915 0.71702 0.60492 0.0
C65 C 0.39768 0.05616 0.88543 0.0
O66 O 0.39933 0.10393 0.8826 0.0
O67 O 0.29234 0.11169 0.91712 0.0
Zn68 Zn 0.29565 0.06963 0.88596 0.0
O69 O 0.29852 0.11117 0.85456 0.0
C70 C 0.19597 0.03308 0.89569 0.0
O71 O 0.19691 0.07251 0.90995 0.0
O72 O 0.35618 0.03231 0.88747 0.0
C73 C 0.26398 0.13725 0.84827 0.0
O74 O 0.22542 0.13813 0.86305 0.0
C75 C 0.30528 0.15722 0.91807 0.0
O76 O 0.32406 0.17938 0.8978 0.0
O77 O 0.23456 0.02343 0.88384 0.0
C78 C 0.88783 0.72307 0.10066 0.0
O79 O 0.87975 0.74531 0.07912 0.0
O80 O 0.77768 0.77992 0.08974 0.0
Zn81 Zn 0.82126 0.79098 0.12 0.0
O82 O 0.78213 0.78646 0.15208 0.0
C83 C 0.84145 0.89136 0.1049 0.0
O84 O 0.79812 0.88369 0.09426 0.0
O85 O 0.86767 0.73735 0.1208 0.0
C86 C 0.77576 0.82221 0.1668 0.0
O87 O 0.79359 0.86641 0.16047 0.0
C88 C 0.75797 0.73801 0.08374 0.0
O89 O 0.76384 0.70047 0.09869 0.0
O90 O 0.85915 0.85675 0.11712 0.0
C91 C 0.17139 0.3653 0.3534 0.0
O92 O 0.16783 0.32106 0.3436 0.0
O93 O 0.26721 0.303 0.39411 0.0
Zn94 Zn 0.26943 0.34015 0.36127 0.0
O95 O 0.26213 0.29726 0.33021 0.0
C96 C 0.37108 0.3644 0.36964 0.0
O97 O 0.36734 0.31952 0.37864 0.0
O98 O 0.2126 0.38273 0.36188 0.0
C99 C 0.29226 0.30093 0.31184 0.0
O100 O 0.3329 0.32923 0.31435 0.0
C101 C 0.23195 0.27492 0.40266 0.0
O102 O 0.19335 0.26413 0.38833 0.0
O103 O 0.33318 0.38211 0.36054 0.0
C104 C 0.16949 0.29418 0.02416 0.0
C105 C 0.19551 0.30394 0.04678 0.0
C106 C 0.19238 0.27564 0.00283 0.0
C107 C 0.24253 0.26657 0.00415 0.0
C108 C 0.26977 0.27913 0.02638 0.0
C109 C 0.2459 0.29776 0.04748 0.0
C110 C 0.16211 0.26304 0.9794 0.0
C111 C 0.32337 0.27023 0.02841 0.0
C112 C 0.27506 0.1611 0.96264 0.0
C113 C 0.29466 0.18548 0.94111 0.0
C114 C 0.25996 0.18721 0.98373 0.0
C115 C 0.26454 0.23903 0.98331 0.0
C116 C 0.28633 0.26393 0.96214 0.0
C117 C 0.30118 0.23681 0.94124 0.0
C118 C 0.23707 0.15926 0.00601 0.0
C119 C 0.29198 0.31915 0.9611 0.0
H120 H 0.13065 0.29934 0.02336 0.0
H121 H 0.26632 0.3054 0.06485 0.0
H122 H 0.18071 0.27878 0.96223 0.0
H123 H 0.15809 0.22269 0.97693 0.0
H124 H 0.12495 0.27664 0.98055 0.0
H125 H 0.34076 0.28795 0.04549 0.0
H126 H 0.32735 0.23026 0.02956 0.0
H127 H 0.34351 0.28409 0.01129 0.0
H128 H 0.27024 0.12144 0.9628 0.0
H129 H 0.31645 0.25593 0.92471 0.0
H130 H 0.19792 0.16674 0.00762 0.0
H131 H 0.25539 0.17156 0.02395 0.0
H132 H 0.23932 0.11908 0.00412 0.0
H133 H 0.25532 0.33363 0.95951 0.0
H134 H 0.31455 0.33277 0.94469 0.0
H135 H 0.30905 0.33421 0.97884 0.0
C136 C 0.79155 0.72261 0.3005 0.0
C137 C 0.75041 0.71596 0.31628 0.0
C138 C 0.78931 0.74759 0.27742 0.0
C139 C 0.74481 0.76657 0.26994 0.0
C140 C 0.70404 0.76286 0.28651 0.0
C141 C 0.70728 0.73743 0.30955 0.0
C142 C 0.83384 0.75107 0.26038 0.0
C143 C 0.65625 0.78327 0.27932 0.0
C144 C 0.76412 0.84696 0.21202 0.0
C145 C 0.75667 0.81201 0.19264 0.0
C146 C 0.75601 0.83392 0.23754 0.0
C147 C 0.74023 0.78491 0.24361 0.0
C148 C 0.728 0.75093 0.22395 0.0
C149 C 0.73632 0.76494 0.19868 0.0
C150 C 0.7684 0.87143 0.25799 0.0
C151 C 0.7105 0.69842 0.22961 0.0
H152 H 0.82525 0.70677 0.30574 0.0
H153 H 0.67542 0.73275 0.32176 0.0
H154 H 0.82602 0.72901 0.24296 0.0
H155 H 0.84275 0.78953 0.25438 0.0
H156 H 0.86656 0.7376 0.26982 0.0
H157 H 0.63173 0.78595 0.29598 0.0
H158 H 0.66272 0.82006 0.27059 0.0
H159 H 0.63705 0.75895 0.26505 0.0
H160 H 0.77927 0.88364 0.20747 0.0
H161 H 0.72954 0.73801 0.18374 0.0
H162 H 0.80468 0.8651 0.26625 0.0
H163 H 0.74113 0.8681 0.27359 0.0
H164 H 0.77007 0.90936 0.25038 0.0
H165 H 0.7413 0.67902 0.23749 0.0
H166 H 0.69661 0.67854 0.21235 0.0
H167 H 0.68099 0.69675 0.24406 0.0
C168 C 0.26448 0.20132 0.54777 0.0
C169 C 0.2438 0.23633 0.56301 0.0
C170 C 0.25578 0.19935 0.52156 0.0
C171 C 0.22653 0.2339 0.51032 0.0
C172 C 0.20231 0.26665 0.52591 0.0
C173 C 0.21094 0.26718 0.5522 0.0
C174 C 0.28135 0.1631 0.50569 0.0
C175 C 0.17107 0.30428 0.51464 0.0
C176 C 0.26807 0.28233 0.44602 0.0
C177 C 0.23201 0.2607 0.42977 0.0
C178 C 0.26656 0.2736 0.47218 0.0
C179 C 0.22852 0.24166 0.48241 0.0
C180 C 0.19289 0.21826 0.46609 0.0
C181 C 0.19481 0.22839 0.43991 0.0
C182 C 0.30518 0.29957 0.48894 0.0
C183 C 0.15247 0.1832 0.47633 0.0
H184 H 0.28939 0.1769 0.55617 0.0
H185 H 0.19487 0.29427 0.56393 0.0
H186 H 0.25644 0.14664 0.49085 0.0
H187 H 0.31315 0.18231 0.49592 0.0
H188 H 0.29493 0.13327 0.51745 0.0
H189 H 0.14913 0.32183 0.52932 0.0
H190 H 0.19507 0.33323 0.50514 0.0
H191 H 0.14587 0.28746 0.50004 0.0
H192 H 0.29693 0.30742 0.43841 0.0
H193 H 0.16691 0.21143 0.42745 0.0
H194 H 0.32548 0.2724 0.49944 0.0
H195 H 0.28755 0.32228 0.50323 0.0
H196 H 0.33197 0.32365 0.47796 0.0
H197 H 0.16816 0.15437 0.48792 0.0
H198 H 0.12974 0.16538 0.46095 0.0
H199 H 0.12837 0.20308 0.48897 0.0
C200 C 0.82178 0.75105 0.76852 0.0
C201 C 0.78738 0.746 0.78825 0.0
C202 C 0.80751 0.74232 0.7432 0.0
C203 C 0.75782 0.7283 0.73766 0.0
C204 C 0.72403 0.71895 0.75771 0.0
C205 C 0.73925 0.72786 0.78277 0.0
C206 C 0.84474 0.7519 0.72233 0.0
C207 C 0.67076 0.70353 0.75262 0.0
C208 C 0.69881 0.77673 0.6789 0.0
C209 C 0.692 0.73458 0.66382 0.0
C210 C 0.72217 0.77547 0.7025 0.0
C211 C 0.73924 0.73094 0.71126 0.0
C212 C 0.73459 0.68876 0.69566 0.0
C213 C 0.7109 0.69106 0.67206 0.0
C214 C 0.72664 0.82139 0.71853 0.0
C215 C 0.75272 0.6408 0.70433 0.0
H216 H 0.85919 0.76457 0.77262 0.0
H217 H 0.71264 0.72305 0.79797 0.0
H218 H 0.84049 0.72309 0.70751 0.0
H219 H 0.83885 0.78741 0.7131 0.0
H220 H 0.88285 0.75362 0.72973 0.0
H221 H 0.65081 0.69179 0.77021 0.0
H222 H 0.65269 0.73472 0.74425 0.0
H223 H 0.66731 0.67302 0.73872 0.0
H224 H 0.68481 0.81065 0.67255 0.0
H225 H 0.706 0.6584 0.66042 0.0
H226 H 0.76522 0.82979 0.72451 0.0
H227 H 0.70433 0.81565 0.73601 0.0
H228 H 0.71414 0.85367 0.70829 0.0
H229 H 0.79038 0.64652 0.71212 0.0
H230 H 0.75262 0.61358 0.68868 0.0
H231 H 0.72884 0.62525 0.71979 0.0
C232 C 0.30688 0.29243 0.26523 0.0
C233 C 0.27664 0.2827 0.28641 0.0
C234 C 0.28885 0.28464 0.24049 0.0
C235 C 0.23944 0.26683 0.23691 0.0
C236 C 0.20999 0.25322 0.25821 0.0
C237 C 0.229 0.26117 0.28272 0.0
C238 C 0.32161 0.29895 0.21824 0.0
C239 C 0.15718 0.23383 0.25519 0.0
C240 C 0.17171 0.31265 0.17997 0.0
C241 C 0.16902 0.27172 0.1639 0.0
C242 C 0.19519 0.31159 0.20359 0.0
C243 C 0.21669 0.26857 0.21133 0.0
C244 C 0.21504 0.22741 0.19503 0.0
C245 C 0.19112 0.22944 0.17147 0.0
C246 C 0.19621 0.35632 0.22045 0.0
C247 C 0.23778 0.18106 0.20264 0.0
H248 H 0.34392 0.30857 0.2679 0.0
H249 H 0.20546 0.25308 0.29896 0.0
H250 H 0.3184 0.27033 0.2033 0.0
H251 H 0.31003 0.3333 0.20973 0.0
H252 H 0.36066 0.30505 0.22398 0.0
H253 H 0.14125 0.21919 0.27329 0.0
H254 H 0.13517 0.26378 0.24857 0.0
H255 H 0.15378 0.20444 0.24066 0.0
H256 H 0.15487 0.34551 0.17426 0.0
H257 H 0.1893 0.19767 0.15913 0.0
H258 H 0.23458 0.3688 0.22529 0.0
H259 H 0.17689 0.34702 0.23853 0.0
H260 H 0.17865 0.38717 0.21138 0.0
H261 H 0.27678 0.18938 0.20789 0.0
H262 H 0.23566 0.15326 0.18723 0.0
H263 H 0.21882 0.16497 0.21963 0.0
C264 C 0.76036 0.78463 0.54691 0.0
C265 C 0.70909 0.78414 0.54754 0.0
C266 C 0.78481 0.77384 0.52439 0.0
C267 C 0.75722 0.76247 0.50214 0.0
C268 C 0.70575 0.76469 0.50238 0.0
C269 C 0.68233 0.77543 0.52508 0.0
C270 C 0.83977 0.77205 0.52477 0.0
C271 C 0.67501 0.75314 0.47898 0.0
C272 C 0.80889 0.75453 0.43573 0.0
C273 C 0.80652 0.70363 0.43225 0.0
C274 C 0.79607 0.77468 0.4591 0.0
C275 C 0.78076 0.74306 0.4793 0.0
C276 C 0.78189 0.69178 0.47641 0.0
C277 C 0.79471 0.6727 0.45291 0.0
C278 C 0.79568 0.82956 0.46157 0.0
C279 C 0.76624 0.65681 0.49759 0.0
H280 H 0.78128 0.79156 0.56419 0.0
H281 H 0.64275 0.77559 0.52535 0.0
H282 H 0.8491 0.73337 0.52372 0.0
H283 H 0.85655 0.79135 0.50804 0.0
H284 H 0.85639 0.78867 0.54231 0.0
H285 H 0.63603 0.76049 0.4818 0.0
H286 H 0.68963 0.77512 0.4626 0.0
H287 H 0.6766 0.71394 0.47394 0.0
H288 H 0.81829 0.77864 0.41987 0.0
H289 H 0.79353 0.63331 0.45045 0.0
H290 H 0.8119 0.84225 0.47996 0.0
H291 H 0.75727 0.83991 0.46119 0.0
H292 H 0.81605 0.84907 0.4459 0.0
H293 H 0.78488 0.66817 0.51558 0.0
H294 H 0.77434 0.61856 0.49324 0.0
H295 H 0.72622 0.65752 0.50075 0.0
C296 C 0.2643 0.22227 0.70492 0.0
C297 C 0.29149 0.26708 0.70081 0.0
C298 C 0.25399 0.2053 0.72959 0.0
C299 C 0.27106 0.23396 0.75062 0.0
C300 C 0.29491 0.28099 0.74659 0.0
C301 C 0.3049 0.297 0.72169 0.0
C302 C 0.22815 0.15506 0.7331 0.0
C303 C 0.31309 0.31289 0.76854 0.0
C304 C 0.22789 0.19197 0.81622 0.0
C305 C 0.26651 0.1645 0.82398 0.0
C306 C 0.22917 0.21586 0.79259 0.0
C307 C 0.26991 0.21194 0.7764 0.0
C308 C 0.30942 0.18515 0.7844 0.0
C309 C 0.30726 0.16186 0.80808 0.0
C310 C 0.18658 0.2444 0.78473 0.0
C311 C 0.3536 0.18013 0.76768 0.0
H312 H 0.25329 0.19912 0.6889 0.0
H313 H 0.32544 0.33193 0.71869 0.0
H314 H 0.25469 0.12948 0.74013 0.0
H315 H 0.19872 0.15608 0.74751 0.0
H316 H 0.21188 0.14016 0.71511 0.0
H317 H 0.32392 0.351 0.76243 0.0
H318 H 0.28459 0.31381 0.78345 0.0
H319 H 0.34545 0.29737 0.77724 0.0
H320 H 0.19633 0.19432 0.82844 0.0
H321 H 0.33736 0.1409 0.81395 0.0
H322 H 0.16803 0.22671 0.76799 0.0
H323 H 0.1998 0.28208 0.77898 0.0
H324 H 0.15924 0.24669 0.80018 0.0
H325 H 0.34215 0.1613 0.74974 0.0
H326 H 0.38176 0.15908 0.777 0.0
H327 H 0.37061 0.21686 0.76256 0.0
C328 C 0.73089 0.77136 0.04256 0.0
C329 C 0.73658 0.73067 0.05812 0.0
C330 C 0.72008 0.76559 0.01672 0.0
C331 C 0.71448 0.71789 0.00622 0.0
C332 C 0.71571 0.67654 0.02226 0.0
C333 C 0.72696 0.68342 0.04811 0.0
C334 C 0.71868 0.81075 0.00032 0.0
C335 C 0.70875 0.62514 0.01185 0.0
C336 C 0.67417 0.72193 0.93763 0.0
C337 C 0.71976 0.728 0.92543 0.0
C338 C 0.67128 0.71397 0.96395 0.0
C339 C 0.71499 0.71241 0.9782 0.0
C340 C 0.76068 0.71377 0.96556 0.0
C341 C 0.76247 0.72137 0.9393 0.0
C342 C 0.62181 0.71134 0.97669 0.0
C343 C 0.80821 0.71179 0.98001 0.0
H344 H 0.73744 0.808 0.05026 0.0
H345 H 0.73078 0.65174 0.06008 0.0
H346 H 0.75089 0.81344 0.98747 0.0
H347 H 0.68536 0.80835 0.98825 0.0
H348 H 0.71921 0.84489 0.01176 0.0
H349 H 0.69972 0.59793 0.02711 0.0
H350 H 0.67926 0.62214 -0.00266 0.0
H351 H 0.74309 0.6156 0.00254 0.0
H352 H 0.64091 0.72643 0.92697 0.0
H353 H 0.79778 0.7251 0.92991 0.0
H354 H 0.61577 0.74748 0.98517 0.0
H355 H 0.61986 0.68393 -0.00776 0.0
H356 H 0.59172 0.70185 0.96297 0.0
H357 H 0.81528 0.74594 0.99122 0.0
H358 H 0.8399 0.70796 0.96719 0.0
H359 H 0.80589 0.6807 -0.00645 0.0
C360 C 0.97194 0.16348 0.1085 0.0
C361 C 0.00879 0.169 0.09 0.0
C362 C 0.94328 0.11905 0.11118 0.0
C363 C 0.95152 0.07937 0.09489 0.0
C364 C 0.98805 0.085 0.0759 0.0
C365 C 0.01631 0.12969 0.07373 0.0
C366 C 0.90472 0.1143 0.1317 0.0
C367 C 0.99771 0.0436 0.05807 0.0
C368 C 0.91315 0.94959 0.11608 0.0
C369 C 0.86921 0.93972 0.10268 0.0
C370 C 0.93998 0.99514 0.11397 0.0
C371 C 0.92259 0.03157 0.09795 0.0
C372 C 0.87817 0.02193 0.08446 0.0
C373 C 0.85193 0.97616 0.08704 0.0
C374 C 0.98711 0.00417 0.12874 0.0
C375 C 0.85864 0.05979 0.06709 0.0
H376 H 0.96597 0.19363 0.12118 0.0
H377 H 0.04459 0.13366 0.05933 0.0
H378 H 0.86838 0.10345 0.12324 0.0
H379 H 0.91321 0.08503 0.14522 0.0
H380 H 0.90219 0.14892 0.14246 0.0
H381 H 0.02651 0.05438 0.04387 0.0
H382 H 0.0094 0.01194 0.06907 0.0
H383 H 0.9636 0.03105 0.04784 0.0
H384 H 0.92666 0.92171 0.12828 0.0
H385 H 0.81805 0.96883 0.07659 0.0
H386 H 0.9853 0.03691 0.14103 0.0
H387 H 0.01819 0.01178 0.11546 0.0
H388 H 0.99495 0.97247 0.14085 0.0
H389 H 0.85356 0.09389 0.07783 0.0
H390 H 0.82314 0.04682 0.05825 0.0
H391 H 0.8855 0.06932 0.05177 0.0
C392 C 0.0813 0.37139 0.34854 0.0
C393 C 0.12723 0.3929 0.35598 0.0
C394 C 0.03864 0.39587 0.35199 0.0
C395 C 0.04201 0.44311 0.36303 0.0
C396 C 0.08831 0.46543 0.37019 0.0
C397 C 0.13041 0.44001 0.36662 0.0
C398 C 0.98987 0.37089 0.34414 0.0
C399 C 0.09329 0.51591 0.3819 0.0
C400 C 0.93627 0.52278 0.35258 0.0
C401 C 0.91055 0.51666 0.37554 0.0
C402 C 0.97929 0.49928 0.3483 0.0
C403 C 0.99691 0.46883 0.36742 0.0
C404 C 0.97112 0.46241 0.39061 0.0
C405 C 0.92826 0.48647 0.39441 0.0
C406 C 0.00588 0.50702 0.32334 0.0
C407 C 0.98876 0.43002 0.41139 0.0
H408 H 0.07847 0.335 0.34031 0.0
H409 H 0.16577 0.45691 0.37237 0.0
H410 H 0.96551 0.36607 0.36092 0.0
H411 H 0.97152 0.39403 0.33032 0.0
H412 H 0.99364 0.33443 0.33541 0.0
H413 H 0.13206 0.52862 0.38582 0.0
H414 H 0.07735 0.54263 0.36905 0.0
H415 H 0.07251 0.5159 0.39998 0.0
H416 H 0.92291 0.54612 0.3379 0.0
H417 H 0.90862 0.48155 0.4122 0.0
H418 H 0.00797 0.47144 0.31348 0.0
H419 H 0.04402 0.52224 0.32678 0.0
H420 H 0.98762 0.53229 0.31055 0.0
H421 H 0.99043 0.39209 0.4042 0.0
H422 H 0.96461 0.42906 0.42835 0.0
H423 H 0.02638 0.44319 0.41729 0.0
C424 C 0.43286 0.41442 0.61864 0.0
C425 C 0.38656 0.4048 0.60751 0.0
C426 C 0.45896 0.4602 0.61581 0.0
C427 C 0.43836 0.49719 0.60142 0.0
C428 C 0.39157 0.48783 0.59023 0.0
C429 C 0.36618 0.44177 0.59345 0.0
C430 C 0.50873 0.46889 0.62811 0.0
C431 C 0.36853 0.52633 0.57467 0.0
C432 C 0.48919 0.62853 0.6122 0.0
C433 C 0.52264 0.63539 0.59211 0.0
C434 C 0.46101 0.58392 0.61528 0.0
C435 C 0.46623 0.54541 0.59779 0.0
C436 C 0.49909 0.55249 0.57715 0.0
C437 C 0.52698 0.59734 0.5746 0.0
C438 C 0.42642 0.57765 0.63756 0.0
C439 C 0.5054 0.51239 0.558 0.0
H440 H 0.44884 0.38613 0.62959 0.0
H441 H 0.33045 0.43465 0.58475 0.0
H442 H 0.53697 0.47762 0.61337 0.0
H443 H 0.50909 0.50084 0.64109 0.0
H444 H 0.51917 0.43663 0.63908 0.0
H445 H 0.33162 0.51344 0.56748 0.0
H446 H 0.36522 0.55975 0.58626 0.0
H447 H 0.39229 0.53697 0.55822 0.0
H448 H 0.48566 0.6577 0.62584 0.0
H449 H 0.55259 0.60238 0.55897 0.0
H450 H 0.43771 0.5479 0.65007 0.0
H451 H 0.38878 0.56671 0.6308 0.0
H452 H 0.4255 0.61166 0.649 0.0
H453 H 0.51956 0.48026 0.5676 0.0
H454 H 0.53108 0.52439 0.54251 0.0
H455 H 0.46949 0.50004 0.54948 0.0
C456 C 0.63734 0.9142 0.86113 0.0
C457 C 0.66273 0.90527 0.88362 0.0
C458 C 0.59467 0.93954 0.8615 0.0
C459 C 0.57688 0.95631 0.88491 0.0
C460 C 0.60263 0.94798 0.90764 0.0
C461 C 0.64528 0.9226 0.90672 0.0
C462 C 0.56828 0.94784 0.83684 0.0
C463 C 0.58477 0.96534 0.93297 0.0
C464 C 0.48905 0.05723 0.88311 0.0
C465 C 0.4435 0.0306 0.88579 0.0
C466 C 0.53278 0.03357 0.88298 0.0
C467 C 0.53094 0.98203 0.88562 0.0
C468 C 0.48514 0.95495 0.88853 0.0
C469 C 0.44197 0.97956 0.88858 0.0
C470 C 0.58092 0.06368 0.87982 0.0
C471 C 0.48173 0.89993 0.89141 0.0
H472 H 0.65054 0.90099 0.84318 0.0
H473 H 0.66459 0.9158 0.9242 0.0
H474 H 0.53062 0.92984 0.83762 0.0
H475 H 0.56488 0.98757 0.83395 0.0
H476 H 0.58743 0.93331 0.82019 0.0
H477 H 0.6095 0.95676 0.94883 0.0
H478 H 0.58169 0.0055 0.93249 0.0
H479 H 0.54767 0.94786 0.93694 0.0
H480 H 0.49064 0.09668 0.88096 0.0
H481 H 0.40696 0.95869 0.89069 0.0
H482 H 0.59975 0.05201 0.86245 0.0
H483 H 0.60536 0.0575 0.89614 0.0
H484 H 0.57612 0.10351 0.8784 0.0
H485 H 0.49734 0.88297 0.8744 0.0
H486 H 0.44338 0.88436 0.89392 0.0
H487 H 0.5036 0.88951 0.90803 0.0
C488 C 0.93595 0.66137 0.07866 0.0
C489 C 0.91722 0.6798 0.10122 0.0
C490 C 0.96166 0.61891 0.07874 0.0
C491 C 0.96888 0.59433 0.10194 0.0
C492 C 0.95081 0.61318 0.12483 0.0
C493 C 0.92518 0.65566 0.12419 0.0
C494 C 0.98041 0.59989 0.05395 0.0
C495 C 0.95791 0.58806 0.14995 0.0
C496 C 0.99167 0.45925 0.09972 0.0
C497 C 0.04265 0.46064 0.1029 0.0
C498 C 0.96724 0.5025 0.09932 0.0
C499 C 0.99441 0.54826 0.10221 0.0
C500 C 0.04584 0.54994 0.10543 0.0
C501 C 0.06935 0.50612 0.10572 0.0
C502 C 0.91232 0.49923 0.09583 0.0
C503 C 0.07602 0.59805 0.1086 0.0
H504 H 0.92996 0.67973 0.06082 0.0
H505 H 0.9109 0.66964 0.14173 0.0
H506 H 0.02049 0.59665 0.05516 0.0
H507 H 0.96297 0.56271 0.05013 0.0
H508 H 0.97288 0.62397 0.03765 0.0
H509 H 0.94282 0.60818 0.16612 0.0
H510 H 0.93967 0.55048 0.14948 0.0
H511 H 0.99746 0.58452 0.15342 0.0
H512 H 0.97074 0.4243 0.09751 0.0
H513 H 0.10873 0.50758 0.1082 0.0
H514 H 0.90273 0.52016 0.07873 0.0
H515 H 0.89479 0.51596 0.11235 0.0
H516 H 0.8966 0.46084 0.09375 0.0
H517 H 0.07112 0.62177 0.09186 0.0
H518 H 0.11568 0.59308 0.11089 0.0
H519 H 0.06329 0.61773 0.12548 0.0
C520 C 0.45839 0.37647 0.38363 0.0
C521 C 0.41863 0.39393 0.37051 0.0
C522 C 0.50342 0.40434 0.38519 0.0
C523 C 0.50896 0.45064 0.37317 0.0
C524 C 0.4692 0.46825 0.35962 0.0
C525 C 0.42441 0.43974 0.35853 0.0
C526 C 0.5449 0.38449 0.39996 0.0
C527 C 0.47388 0.51734 0.34643 0.0
C528 C 0.60866 0.54287 0.39738 0.0
C529 C 0.64606 0.53803 0.37957 0.0
C530 C 0.56385 0.51467 0.3955 0.0
C531 C 0.55614 0.48102 0.37523 0.0
C532 C 0.59366 0.47601 0.35714 0.0
C533 C 0.63826 0.50447 0.35958 0.0
C534 C 0.52481 0.52078 0.41526 0.0
C535 C 0.58662 0.44066 0.33519 0.0
H536 H 0.45422 0.34116 0.393 0.0
H537 H 0.39391 0.45339 0.34827 0.0
H538 H 0.57734 0.38226 0.38752 0.0
H539 H 0.55596 0.40971 0.41579 0.0
H540 H 0.53481 0.34757 0.40796 0.0
H541 H 0.43991 0.52516 0.33613 0.0
H542 H 0.48242 0.54686 0.36054 0.0
H543 H 0.50465 0.51863 0.33269 0.0
H544 H 0.61438 0.56866 0.41291 0.0
H545 H 0.6669 0.50065 0.34568 0.0
H546 H 0.51527 0.48532 0.4249 0.0
H547 H 0.49099 0.532 0.40602 0.0
H548 H 0.53662 0.54853 0.42985 0.0
H549 H 0.57911 0.40281 0.34245 0.0
H550 H 0.61918 0.44158 0.32258 0.0
H551 H 0.55439 0.44947 0.32374 0.0
C552 C 0.46919 0.13217 0.58781 0.0
C553 C 0.448 0.14942 0.60999 0.0
C554 C 0.49433 0.08939 0.58809 0.0
C555 C 0.49843 0.06333 0.61111 0.0
C556 C 0.47858 0.08144 0.63373 0.0
C557 C 0.45358 0.12427 0.63291 0.0
C558 C 0.51518 0.07124 0.56359 0.0
C559 C 0.48246 0.05476 0.65867 0.0
C560 C 0.51449 0.92719 0.60674 0.0
C561 C 0.56496 0.92575 0.6109 0.0
C562 C 0.49239 0.97175 0.60685 0.0
C563 C 0.52145 0.01592 0.61128 0.0
C564 C 0.57234 0.01475 0.61567 0.0
C565 C 0.59351 0.96965 0.61541 0.0
C566 C 0.43796 0.97159 0.60209 0.0
C567 C 0.60443 0.06113 0.62051 0.0
H568 H 0.46516 0.15142 0.57003 0.0
H569 H 0.43747 0.13744 0.65017 0.0
H570 H 0.5546 0.06552 0.566 0.0
H571 H 0.49624 0.03534 0.55844 0.0
H572 H 0.51117 0.09711 0.5476 0.0
H573 H 0.46756 0.07516 0.6748 0.0
H574 H 0.46204 0.01825 0.65744 0.0
H575 H 0.52126 0.04858 0.66278 0.0
H576 H 0.49216 0.89345 0.60324 0.0
H577 H 0.63253 0.96888 0.61868 0.0
H578 H 0.43109 0.99395 0.58506 0.0
H579 H 0.4199 0.98844 0.6184 0.0
H580 H 0.42052 0.93406 0.59913 0.0
H581 H 0.60281 0.08617 0.60402 0.0
H582 H 0.64328 0.05387 0.6239 0.0
H583 H 0.59081 0.08056 0.63727 0.0
C584 C 0.95844 0.8436 0.89372 0.0
C585 C 0.92239 0.85957 0.87739 0.0
C586 C 0.00377 0.87056 0.89656 0.0
C587 C 0.01346 0.91436 0.88259 0.0
C588 C 0.97754 0.9303 0.86577 0.0
C589 C 0.93234 0.90281 0.86344 0.0
C590 C 0.04102 0.85258 0.91483 0.0
C591 C 0.98669 0.97666 0.85041 0.0
C592 C 0.10905 0.00989 0.90778 0.0
C593 C 0.14985 0.00166 0.89271 0.0
C594 C 0.06457 0.98153 0.90478 0.0
C595 C 0.06065 0.94423 0.88612 0.0
C596 C 0.10171 0.93556 0.87089 0.0
C597 C 0.14591 0.96427 0.87444 0.0
C598 C 0.02171 0.99162 0.92152 0.0
C599 C 0.09879 0.89627 0.85071 0.0
H600 H 0.95104 0.81028 0.90461 0.0
H601 H 0.90477 0.91529 0.8507 0.0
H602 H 0.07589 0.8477 0.90476 0.0
H603 H 0.04912 0.88025 0.92995 0.0
H604 H 0.02819 0.8173 0.9239 0.0
H605 H 0.95567 0.9831 0.83753 0.0
H606 H 0.99273 0.00857 0.86333 0.0
H607 H 0.02038 0.97487 0.83886 0.0
H608 H 0.11178 0.03861 0.92199 0.0
H609 H 0.17721 0.9578 0.86265 0.0
H610 H 0.00904 0.95802 0.93213 0.0
H611 H 0.99059 0.00195 0.90967 0.0
H612 H 0.031 0.02148 0.93538 0.0
H613 H 0.08834 0.86009 0.8594 0.0
H614 H 0.13403 0.89412 0.84048 0.0
H615 H 0.06994 0.90355 0.83669 0.0
loop_
_geom_bond_atom_site_label_1
_geom_bond_atom_site_label_2
_geom_bond_distance
_geom_bond_site_symmetry_2
_ccdc_geom_bond_type
C0 O1 1.160 . S
C0 O7 1.185 . S
O1 C0 1.160 . S
O2 Zn3 1.899 . S
O2 C10 1.284 . S
Zn3 O2 1.899 . S
Zn3 O4 2.032 . S
Zn3 O7 2.086 . S
Zn3 O12 1.977 . S
O4 Zn3 2.032 . S
O4 C8 1.278 . S
C5 O6 1.203 . S
C5 O12 1.267 . S
O6 C5 1.203 . S
O7 C0 1.185 . S
O7 Zn3 2.086 . S
C8 O4 1.278 . S
C8 O9 1.211 . S
O9 C8 1.211 . S
C10 O2 1.284 . S
C10 O11 1.273 . S
O11 C10 1.273 . S
O12 Zn3 1.977 . S
O12 C5 1.267 . S
C13 O14 1.160 . S
C13 O20 1.185 . S
O14 C13 1.160 . S
O15 Zn16 1.899 . S
O15 C23 1.284 . S
Zn16 O15 1.899 . S
Zn16 O17 2.032 . S
Zn16 O20 2.086 . S
Zn16 O25 1.977 . S
O17 Zn16 2.032 . S
O17 C21 1.278 . S
C18 O19 1.203 . S
C18 O25 1.267 . S
O19 C18 1.203 . S
O20 C13 1.185 . S
O20 Zn16 2.086 . S
C21 O17 1.278 . S
C21 O22 1.211 . S
O22 C21 1.211 . S
C23 O15 1.284 . S
C23 O24 1.273 . S
O24 C23 1.273 . S
O25 Zn16 1.977 . S
O25 C18 1.267 . S
C26 O27 1.160 . S
C26 O33 1.185 . S
O27 C26 1.160 . S
O28 Zn29 1.899 . S
O28 C36 1.284 . S
Zn29 O28 1.899 . S
Zn29 O30 2.032 . S
Zn29 O33 2.086 . S
Zn29 O38 1.977 . S
O30 Zn29 2.032 . S
O30 C34 1.278 . S
C31 O32 1.203 . S
C31 O38 1.267 . S
O32 C31 1.203 . S
O33 C26 1.185 . S
O33 Zn29 2.086 . S
C34 O30 1.278 . S
C34 O35 1.211 . S
O35 C34 1.211 . S
C36 O28 1.284 . S
C36 O37 1.273 . S
O37 C36 1.273 . S
O38 Zn29 1.977 . S
O38 C31 1.267 . S
C39 O40 1.160 . S
C39 O46 1.185 . S
O40 C39 1.160 . S
O41 Zn42 1.899 . S
O41 C49 1.284 . S
Zn42 O41 1.899 . S
Zn42 O43 2.032 . S
Zn42 O46 2.086 . S
Zn42 O51 1.977 . S
O43 Zn42 2.032 . S
O43 C47 1.278 . S
C44 O45 1.203 . S
C44 O51 1.267 . S
O45 C44 1.203 . S
O46 C39 1.185 . S
O46 Zn42 2.086 . S
C47 O43 1.278 . S
C47 O48 1.211 . S
O48 C47 1.211 . S
C49 O41 1.284 . S
C49 O50 1.273 . S
O50 C49 1.273 . S
O51 Zn42 1.977 . S
O51 C44 1.267 . S
C52 O53 1.160 . S
C52 O59 1.185 . S
O53 C52 1.160 . S
O54 Zn55 1.899 . S
O54 C62 1.284 . S
Zn55 O54 1.899 . S
Zn55 O56 2.032 . S
Zn55 O59 2.086 . S
Zn55 O64 1.977 . S
O56 Zn55 2.032 . S
O56 C60 1.278 . S
C57 O58 1.203 . S
C57 O64 1.267 . S
O58 C57 1.203 . S
O59 C52 1.185 . S
O59 Zn55 2.086 . S
C60 O56 1.278 . S
C60 O61 1.211 . S
O61 C60 1.211 . S
C62 O54 1.284 . S
C62 O63 1.273 . S
O63 C62 1.273 . S
O64 Zn55 1.977 . S
O64 C57 1.267 . S
C65 O66 1.160 . S
C65 O72 1.185 . S
O66 C65 1.160 . S
O67 Zn68 1.899 . S
O67 C75 1.284 . S
Zn68 O67 1.899 . S
Zn68 O69 2.032 . S
Zn68 O72 2.086 . S
Zn68 O77 1.977 . S
O69 Zn68 2.032 . S
O69 C73 1.278 . S
C70 O71 1.203 . S
C70 O77 1.267 . S
O71 C70 1.203 . S
O72 C65 1.185 . S
O72 Zn68 2.086 . S
C73 O69 1.278 . S
C73 O74 1.211 . S
O74 C73 1.211 . S
C75 O67 1.284 . S
C75 O76 1.273 . S
O76 C75 1.273 . S
O77 Zn68 1.977 . S
O77 C70 1.267 . S
C78 O79 1.160 . S
C78 O85 1.185 . S
O79 C78 1.160 . S
O80 Zn81 1.899 . S
O80 C88 1.284 . S
Zn81 O80 1.899 . S
Zn81 O82 2.032 . S
Zn81 O85 2.086 . S
Zn81 O90 1.977 . S
O82 Zn81 2.032 . S
O82 C86 1.278 . S
C83 O84 1.203 . S
C83 O90 1.267 . S
O84 C83 1.203 . S
O85 C78 1.185 . S
O85 Zn81 2.086 . S
C86 O82 1.278 . S
C86 O87 1.211 . S
O87 C86 1.211 . S
C88 O80 1.284 . S
C88 O89 1.273 . S
O89 C88 1.273 . S
O90 Zn81 1.977 . S
O90 C83 1.267 . S
C91 O92 1.160 . S
C91 O98 1.185 . S
O92 C91 1.160 . S
O93 Zn94 1.899 . S
O93 C101 1.284 . S
Zn94 O93 1.899 . S
Zn94 O95 2.032 . S
Zn94 O98 2.086 . S
Zn94 O103 1.977 . S
O95 Zn94 2.032 . S
O95 C99 1.278 . S
C96 O97 1.203 . S
C96 O103 1.267 . S
O97 C96 1.203 . S
O98 C91 1.185 . S
O98 Zn94 2.086 . S
C99 O95 1.278 . S
C99 O100 1.211 . S
O100 C99 1.211 . S
C101 O93 1.284 . S
C101 O102 1.273 . S
O102 C101 1.273 . S
O103 Zn94 1.977 . S
O103 C96 1.267 . S
C104 C105 1.391 . S
C104 C106 1.394 . S
C104 H120 0.931 . S
C105 C104 1.391 . S
C105 C109 1.376 . S
C106 C104 1.394 . S
C106 C107 1.369 . S
C106 C110 1.531 . S
C107 C106 1.369 . S
C107 C108 1.410 . S
C107 C115 1.503 1_554 S
C108 C107 1.410 . S
C108 C109 1.392 . S
C108 C111 1.511 . S
C109 C105 1.376 . S
C109 C108 1.392 . S
C109 H121 0.929 . S
C110 C106 1.531 . S
C110 H122 0.960 1_554 S
C110 H123 0.962 . S
C110 H124 0.960 . S
C111 C108 1.511 . S
C111 H125 0.961 . S
C111 H126 0.961 . S
C111 H127 0.961 . S
C112 C113 1.370 . S
C112 C114 1.363 . S
C112 H128 0.931 . S
C113 C112 1.370 . S
C113 C117 1.408 . S
C114 C112 1.363 . S
C114 C115 1.370 . S
C114 C118 1.524 . S
C115 C107 1.503 1_556 S
C115 C114 1.370 . S
C115 C116 1.403 . S
C116 C115 1.403 . S
C116 C117 1.404 . S
C116 C119 1.539 . S
C117 C113 1.408 . S
C117 C116 1.404 . S
C117 H129 0.930 . S
C118 C114 1.524 . S
C118 H130 0.954 . S
C118 H131 0.961 1_556 S
C118 H132 0.961 . S
C119 C116 1.539 . S
C119 H133 0.958 . S
C119 H134 0.961 . S
C119 H135 0.960 . S
H120 C104 0.931 . S
H121 C109 0.929 . S
H122 C110 0.960 1_556 S
H123 C110 0.962 . S
H124 C110 0.960 . S
H125 C111 0.961 . S
H126 C111 0.961 . S
H127 C111 0.961 . S
H128 C112 0.931 . S
H129 C117 0.930 . S
H130 C118 0.954 . S
H131 C118 0.961 1_554 S
H132 C118 0.961 . S
H133 C119 0.958 . S
H134 C119 0.961 . S
H135 C119 0.960 . S
C136 C137 1.391 . S
C136 C138 1.394 . S
C136 H152 0.931 . S
C137 C136 1.391 . S
C137 C141 1.376 . S
C138 C136 1.394 . S
C138 C139 1.369 . S
C138 C142 1.531 . S
C139 C138 1.369 . S
C139 C140 1.410 . S
C139 C147 1.503 . S
C140 C139 1.410 . S
C140 C141 1.392 . S
C140 C143 1.511 . S
C141 C137 1.376 . S
C141 C140 1.392 . S
C141 H153 0.929 . S
C142 C138 1.531 . S
C142 H154 0.960 . S
C142 H155 0.962 . S
C142 H156 0.960 . S
C143 C140 1.511 . S
C143 H157 0.961 . S
C143 H158 0.961 . S
C143 H159 0.961 . S
C144 C145 1.370 . S
C144 C146 1.363 . S
C144 H160 0.931 . S
C145 C144 1.370 . S
C145 C149 1.408 . S
C146 C144 1.363 . S
C146 C147 1.370 . S
C146 C150 1.524 . S
C147 C139 1.503 . S
C147 C146 1.370 . S
C147 C148 1.403 . S
C148 C147 1.403 . S
C148 C149 1.404 . S
C148 C151 1.539 . S
C149 C145 1.408 . S
C149 C148 1.404 . S
C149 H161 0.930 . S
C150 C146 1.524 . S
C150 H162 0.956 . S
C150 H163 0.961 . S
C150 H164 0.961 . S
C151 C148 1.539 . S
C151 H165 0.958 . S
C151 H166 0.961 . S
C151 H167 0.960 . S
H152 C136 0.931 . S
H153 C141 0.929 . S
H154 C142 0.960 . S
H155 C142 0.962 . S
H156 C142 0.960 . S
H157 C143 0.961 . S
H158 C143 0.961 . S
H159 C143 0.961 . S
H160 C144 0.931 . S
H161 C149 0.930 . S
H162 C150 0.956 . S
H163 C150 0.961 . S
H164 C150 0.961 . S
H165 C151 0.958 . S
H166 C151 0.961 . S
H167 C151 0.960 . S
C168 C169 1.391 . S
C168 C170 1.394 . S
C168 H184 0.931 . S
C169 C168 1.391 . S
C169 C173 1.376 . S
C170 C168 1.394 . S
C170 C171 1.369 . S
C170 C174 1.531 . S
C171 C170 1.369 . S
C171 C172 1.410 . S
C171 C179 1.503 . S
C172 C171 1.410 . S
C172 C173 1.392 . S
C172 C175 1.511 . S
C173 C169 1.376 . S
C173 C172 1.392 . S
C173 H185 0.929 . S
C174 C170 1.531 . S
C174 H186 0.960 . S
C174 H187 0.962 . S
C174 H188 0.960 . S
C175 C172 1.511 . S
C175 H189 0.961 . S
C175 H190 0.961 . S
C175 H191 0.961 . S
C176 C177 1.370 . S
C176 C178 1.363 . S
C176 H192 0.931 . S
C177 C176 1.370 . S
C177 C181 1.408 . S
C178 C176 1.363 . S
C178 C179 1.370 . S
C178 C182 1.524 . S
C179 C171 1.503 . S
C179 C178 1.370 . S
C179 C180 1.403 . S
C180 C179 1.403 . S
C180 C181 1.404 . S
C180 C183 1.539 . S
C181 C177 1.408 . S
C181 C180 1.404 . S
C181 H193 0.930 . S
C182 C178 1.524 . S
C182 H194 0.956 . S
C182 H195 0.961 . S
C182 H196 0.961 . S
C183 C180 1.539 . S
C183 H197 0.958 . S
C183 H198 0.961 . S
C183 H199 0.960 . S
H184 C168 0.931 . S
H185 C173 0.929 . S
H186 C174 0.960 . S
H187 C174 0.962 . S
H188 C174 0.960 . S
H189 C175 0.961 . S
H190 C175 0.961 . S
H191 C175 0.961 . S
H192 C176 0.931 . S
H193 C181 0.930 . S
H194 C182 0.956 . S
H195 C182 0.961 . S
H196 C182 0.961 . S
H197 C183 0.958 . S
H198 C183 0.961 . S
H199 C183 0.960 . S
C200 C201 1.391 . S
C200 C202 1.394 . S
C200 H216 0.931 . S
C201 C200 1.391 . S
C201 C205 1.376 . S
C202 C200 1.394 . S
C202 C203 1.369 . S
C202 C206 1.531 . S
C203 C202 1.369 . S
C203 C204 1.410 . S
C203 C211 1.503 . S
C204 C203 1.410 . S
C204 C205 1.392 . S
C204 C207 1.511 . S
C205 C201 1.376 . S
C205 C204 1.392 . S
C205 H217 0.929 . S
C206 C202 1.531 . S
C206 H218 0.960 . S
C206 H219 0.962 . S
C206 H220 0.960 . S
C207 C204 1.511 . S
C207 H221 0.961 . S
C207 H222 0.961 . S
C207 H223 0.961 . S
C208 C209 1.370 . S
C208 C210 1.363 . S
C208 H224 0.931 . S
C209 C208 1.370 . S
C209 C213 1.408 . S
C210 C208 1.363 . S
C210 C211 1.370 . S
C210 C214 1.524 . S
C211 C203 1.503 . S
C211 C210 1.370 . S
C211 C212 1.403 . S
C212 C211 1.403 . S
C212 C213 1.404 . S
C212 C215 1.539 . S
C213 C209 1.408 . S
C213 C212 1.404 . S
C213 H225 0.930 . S
C214 C210 1.524 . S
C214 H226 0.956 . S
C214 H227 0.961 . S
C214 H228 0.961 . S
C215 C212 1.539 . S
C215 H229 0.958 . S
C215 H230 0.961 . S
C215 H231 0.960 . S
H216 C200 0.931 . S
H217 C205 0.929 . S
H218 C206 0.960 . S
H219 C206 0.962 . S
H220 C206 0.960 . S
H221 C207 0.961 . S
H222 C207 0.961 . S
H223 C207 0.961 . S
H224 C208 0.931 . S
H225 C213 0.930 . S
H226 C214 0.956 . S
H227 C214 0.961 . S
H228 C214 0.961 . S
H229 C215 0.958 . S
H230 C215 0.961 . S
H231 C215 0.960 . S
C232 C233 1.391 . S
C232 C234 1.394 . S
C232 H248 0.931 . S
C233 C232 1.391 . S
C233 C237 1.376 . S
C234 C232 1.394 . S
C234 C235 1.369 . S
C234 C238 1.531 . S
C235 C234 1.369 . S
C235 C236 1.410 . S
C235 C243 1.503 . S
C236 C235 1.410 . S
C236 C237 1.392 . S
C236 C239 1.511 . S
C237 C233 1.376 . S
C237 C236 1.392 . S
C237 H249 0.929 . S
C238 C234 1.531 . S
C238 H250 0.960 . S
C238 H251 0.962 . S
C238 H252 0.960 . S
C239 C236 1.511 . S
C239 H253 0.961 . S
C239 H254 0.961 . S
C239 H255 0.961 . S
C240 C241 1.370 . S
C240 C242 1.363 . S
C240 H256 0.931 . S
C241 C240 1.370 . S
C241 C245 1.408 . S
C242 C240 1.363 . S
C242 C243 1.370 . S
C242 C246 1.524 . S
C243 C235 1.503 . S
C243 C242 1.370 . S
C243 C244 1.403 . S
C244 C243 1.403 . S
C244 C245 1.404 . S
C244 C247 1.539 . S
C245 C241 1.408 . S
C245 C244 1.404 . S
C245 H257 0.930 . S
C246 C242 1.524 . S
C246 H258 0.956 . S
C246 H259 0.961 . S
C246 H260 0.961 . S
C247 C244 1.539 . S
C247 H261 0.958 . S
C247 H262 0.961 . S
C247 H263 0.960 . S
H248 C232 0.931 . S
H249 C237 0.929 . S
H250 C238 0.960 . S
H251 C238 0.962 . S
H252 C238 0.960 . S
H253 C239 0.961 . S
H254 C239 0.961 . S
H255 C239 0.961 . S
H256 C240 0.931 . S
H257 C245 0.930 . S
H258 C246 0.956 . S
H259 C246 0.961 . S
H260 C246 0.961 . S
H261 C247 0.958 . S
H262 C247 0.961 . S
H263 C247 0.960 . S
C264 C265 1.391 . S
C264 C266 1.394 . S
C264 H280 0.931 . S
C265 C264 1.391 . S
C265 C269 1.376 . S
C266 C264 1.394 . S
C266 C267 1.369 . S
C266 C270 1.531 . S
C267 C266 1.369 . S
C267 C268 1.410 . S
C267 C275 1.503 . S
C268 C267 1.410 . S
C268 C269 1.392 . S
C268 C271 1.511 . S
C269 C265 1.376 . S
C269 C268 1.392 . S
C269 H281 0.929 . S
C270 C266 1.531 . S
C270 H282 0.960 . S
C270 H283 0.962 . S
C270 H284 0.960 . S
C271 C268 1.511 . S
C271 H285 0.961 . S
C271 H286 0.961 . S
C271 H287 0.961 . S
C272 C273 1.370 . S
C272 C274 1.363 . S
C272 H288 0.931 . S
C273 C272 1.370 . S
C273 C277 1.408 . S
C274 C272 1.363 . S
C274 C275 1.370 . S
C274 C278 1.524 . S
C275 C267 1.503 . S
C275 C274 1.370 . S
C275 C276 1.403 . S
C276 C275 1.403 . S
C276 C277 1.404 . S
C276 C279 1.539 . S
C277 C273 1.408 . S
C277 C276 1.404 . S
C277 H289 0.930 . S
C278 C274 1.524 . S
C278 H290 0.956 . S
C278 H291 0.961 . S
C278 H292 0.961 . S
C279 C276 1.539 . S
C279 H293 0.958 . S
C279 H294 0.961 . S
C279 H295 0.960 . S
H280 C264 0.931 . S
H281 C269 0.929 . S
H282 C270 0.960 . S
H283 C270 0.962 . S
H284 C270 0.960 . S
H285 C271 0.961 . S
H286 C271 0.961 . S
H287 C271 0.961 . S
H288 C272 0.931 . S
H289 C277 0.930 . S
H290 C278 0.956 . S
H291 C278 0.961 . S
H292 C278 0.961 . S
H293 C279 0.958 . S
H294 C279 0.961 . S
H295 C279 0.960 . S
C296 C297 1.391 . S
C296 C298 1.394 . S
C296 H312 0.931 . S
C297 C296 1.391 . S
C297 C301 1.376 . S
C298 C296 1.394 . S
C298 C299 1.369 . S
C298 C302 1.531 . S
C299 C298 1.369 . S
C299 C300 1.410 . S
C299 C307 1.503 . S
C300 C299 1.410 . S
C300 C301 1.392 . S
C300 C303 1.511 . S
C301 C297 1.376 . S
C301 C300 1.392 . S
C301 H313 0.929 . S
C302 C298 1.531 . S
C302 H314 0.960 . S
C302 H315 0.962 . S
C302 H316 0.960 . S
C303 C300 1.511 . S
C303 H317 0.961 . S
C303 H318 0.961 . S
C303 H319 0.961 . S
C304 C305 1.370 . S
C304 C306 1.363 . S
C304 H320 0.931 . S
C305 C304 1.370 . S
C305 C309 1.408 . S
C306 C304 1.363 . S
C306 C307 1.370 . S
C306 C310 1.524 . S
C307 C299 1.503 . S
C307 C306 1.370 . S
C307 C308 1.403 . S
C308 C307 1.403 . S
C308 C309 1.404 . S
C308 C311 1.539 . S
C309 C305 1.408 . S
C309 C308 1.404 . S
C309 H321 0.930 . S
C310 C306 1.524 . S
C310 H322 0.956 . S
C310 H323 0.961 . S
C310 H324 0.961 . S
C311 C308 1.539 . S
C311 H325 0.958 . S
C311 H326 0.961 . S
C311 H327 0.960 . S
H312 C296 0.931 . S
H313 C301 0.929 . S
H314 C302 0.960 . S
H315 C302 0.962 . S
H316 C302 0.960 . S
H317 C303 0.961 . S
H318 C303 0.961 . S
H319 C303 0.961 . S
H320 C304 0.931 . S
H321 C309 0.930 . S
H322 C310 0.956 . S
H323 C310 0.961 . S
H324 C310 0.961 . S
H325 C311 0.958 . S
H326 C311 0.961 . S
H327 C311 0.960 . S
C328 C329 1.391 . S
C328 C330 1.394 . S
C328 H344 0.931 . S
C329 C328 1.391 . S
C329 C333 1.376 . S
C330 C328 1.394 . S
C330 C331 1.369 . S
C330 C334 1.531 . S
C331 C330 1.369 . S
C331 C332 1.410 . S
C331 C339 1.503 1_554 S
C332 C331 1.410 . S
C332 C333 1.392 . S
C332 C335 1.511 . S
C333 C329 1.376 . S
C333 C332 1.392 . S
C333 H345 0.929 . S
C334 C330 1.531 . S
C334 H346 0.960 . S
C334 H347 0.962 . S
C334 H348 0.960 . S
C335 C332 1.511 . S
C335 H349 0.961 . S
C335 H350 0.961 1_554 S
C335 H351 0.961 . S
C336 C337 1.370 . S
C336 C338 1.363 . S
C336 H352 0.931 . S
C337 C336 1.370 . S
C337 C341 1.408 . S
C338 C336 1.363 . S
C338 C339 1.370 . S
C338 C342 1.524 . S
C339 C331 1.503 1_556 S
C339 C338 1.370 . S
C339 C340 1.403 . S
C340 C339 1.403 . S
C340 C341 1.404 . S
C340 C343 1.539 . S
C341 C337 1.408 . S
C341 C340 1.404 . S
C341 H353 0.930 . S
C342 C338 1.524 . S
C342 H354 0.956 1_556 S
C342 H355 0.961 1_556 S
C342 H356 0.961 . S
C343 C340 1.539 . S
C343 H357 0.958 . S
C343 H358 0.961 . S
C343 H359 0.960 . S
H344 C328 0.931 . S
H345 C333 0.929 . S
H346 C334 0.960 . S
H347 C334 0.962 . S
H348 C334 0.960 . S
H349 C335 0.961 . S
H350 C335 0.961 1_556 S
H351 C335 0.961 . S
H352 C336 0.931 . S
H353 C341 0.930 . S
H354 C342 0.956 1_554 S
H355 C342 0.961 1_554 S
H356 C342 0.961 . S
H357 C343 0.958 . S
H358 C343 0.961 . S
H359 C343 0.960 . S
C360 C361 1.391 . S
C360 C362 1.394 . S
C360 H376 0.931 . S
C361 C360 1.391 . S
C361 C365 1.376 . S
C362 C360 1.394 . S
C362 C363 1.369 . S
C362 C366 1.533 . S
C363 C362 1.369 . S
C363 C364 1.410 . S
C363 C371 1.503 1_445 S
C364 C363 1.410 . S
C364 C365 1.392 . S
C364 C367 1.511 . S
C365 C361 1.376 . S
C365 C364 1.392 . S
C365 H377 0.929 . S
C366 C362 1.533 . S
C366 H378 0.953 1_455 S
C366 H379 0.968 . S
C366 H380 0.959 1_455 S
C367 C364 1.511 . S
C367 H381 0.961 . S
C367 H382 0.961 1_545 S
C367 H383 0.961 1_455 S
C368 C369 1.370 . S
C368 C370 1.363 1_655 S
C368 H384 0.931 1_655 S
C369 C368 1.370 . S
C369 C373 1.408 . S
C370 C368 1.363 1_455 S
C370 C371 1.370 1_455 S
C370 C374 1.524 . S
C371 C363 1.503 1_665 S
C371 C370 1.370 1_655 S
C371 C372 1.403 . S
C372 C371 1.403 . S
C372 C373 1.404 . S
C372 C375 1.539 1_565 S
C373 C369 1.408 . S
C373 C372 1.404 . S
C373 H385 0.930 . S
C374 C370 1.524 . S
C374 H386 0.956 . S
C374 H387 0.961 . S
C374 H388 0.961 . S
C375 C372 1.539 1_545 S
C375 H389 0.958 . S
C375 H390 0.961 . S
C375 H391 0.960 . S
H376 C360 0.931 . S
H377 C365 0.929 . S
H378 C366 0.953 1_655 S
H379 C366 0.968 . S
H380 C366 0.959 1_655 S
H381 C367 0.961 . S
H382 C367 0.961 1_565 S
H383 C367 0.961 1_655 S
H384 C368 0.931 1_455 S
H385 C373 0.930 . S
H386 C374 0.956 . S
H387 C374 0.961 . S
H388 C374 0.961 . S
H389 C375 0.958 . S
H390 C375 0.961 . S
H391 C375 0.960 . S
C392 C393 1.391 . S
C392 C394 1.394 . S
C392 H408 0.931 . S
C393 C392 1.391 . S
C393 C397 1.376 . S
C394 C392 1.394 . S
C394 C395 1.369 . S
C394 C398 1.531 1_455 S
C395 C394 1.369 . S
C395 C396 1.410 . S
C395 C403 1.503 1_455 S
C396 C395 1.410 . S
C396 C397 1.392 . S
C396 C399 1.511 . S
C397 C393 1.376 . S
C397 C396 1.392 . S
C397 H409 0.929 . S
C398 C394 1.531 1_655 S
C398 H410 0.960 . S
C398 H411 0.962 . S
C398 H412 0.960 . S
C399 C396 1.511 . S
C399 H413 0.961 . S
C399 H414 0.961 . S
C399 H415 0.961 . S
C400 C401 1.370 . S
C400 C402 1.363 . S
C400 H416 0.931 . S
C401 C400 1.370 . S
C401 C405 1.408 . S
C402 C400 1.363 . S
C402 C403 1.370 . S
C402 C406 1.524 . S
C403 C395 1.503 1_655 S
C403 C402 1.370 . S
C403 C404 1.403 . S
C404 C403 1.403 . S
C404 C405 1.404 . S
C404 C407 1.539 . S
C405 C401 1.408 . S
C405 C404 1.404 . S
C405 H417 0.930 . S
C406 C402 1.524 . S
C406 H418 0.956 . S
C406 H419 0.961 1_655 S
C406 H420 0.961 . S
C407 C404 1.539 . S
C407 H421 0.958 . S
C407 H422 0.961 . S
C407 H423 0.960 1_655 S
H408 C392 0.931 . S
H409 C397 0.929 . S
H410 C398 0.960 . S
H411 C398 0.962 . S
H412 C398 0.960 . S
H413 C399 0.961 . S
H414 C399 0.961 . S
H415 C399 0.961 . S
H416 C400 0.931 . S
H417 C405 0.930 . S
H418 C406 0.956 . S
H419 C406 0.961 1_455 S
H420 C406 0.961 . S
H421 C407 0.958 . S
H422 C407 0.961 . S
H423 C407 0.960 1_455 S
C424 C425 1.391 . S
C424 C426 1.394 . S
C424 H440 0.931 . S
C425 C424 1.391 . S
C425 C429 1.376 . S
C426 C424 1.394 . S
C426 C427 1.369 . S
C426 C430 1.531 . S
C427 C426 1.369 . S
C427 C428 1.410 . S
C427 C435 1.503 . S
C428 C427 1.410 . S
C428 C429 1.392 . S
C428 C431 1.511 . S
C429 C425 1.376 . S
C429 C428 1.392 . S
C429 H441 0.929 . S
C430 C426 1.531 . S
C430 H442 0.960 . S
C430 H443 0.962 . S
C430 H444 0.960 . S
C431 C428 1.511 . S
C431 H445 0.961 . S
C431 H446 0.961 . S
C431 H447 0.961 . S
C432 C433 1.370 . S
C432 C434 1.363 . S
C432 H448 0.931 . S
C433 C432 1.370 . S
C433 C437 1.408 . S
C434 C432 1.363 . S
C434 C435 1.370 . S
C434 C438 1.524 . S
C435 C427 1.503 . S
C435 C434 1.370 . S
C435 C436 1.403 . S
C436 C435 1.403 . S
C436 C437 1.404 . S
C436 C439 1.539 . S
C437 C433 1.408 . S
C437 C436 1.404 . S
C437 H449 0.930 . S
C438 C434 1.524 . S
C438 H450 0.956 . S
C438 H451 0.961 . S
C438 H452 0.961 . S
C439 C436 1.539 . S
C439 H453 0.958 . S
C439 H454 0.961 . S
C439 H455 0.960 . S
H440 C424 0.931 . S
H441 C429 0.929 . S
H442 C430 0.960 . S
H443 C430 0.962 . S
H444 C430 0.960 . S
H445 C431 0.961 . S
H446 C431 0.961 . S
H447 C431 0.961 . S
H448 C432 0.931 . S
H449 C437 0.930 . S
H450 C438 0.956 . S
H451 C438 0.961 . S
H452 C438 0.961 . S
H453 C439 0.958 . S
H454 C439 0.961 . S
H455 C439 0.960 . S
C456 C457 1.391 . S
C456 C458 1.394 . S
C456 H472 0.931 . S
C457 C456 1.391 . S
C457 C461 1.376 . S
C458 C456 1.394 . S
C458 C459 1.369 . S
C458 C462 1.531 1_565 S
C459 C458 1.369 . S
C459 C460 1.410 . S
C459 C467 1.503 1_565 S
C460 C459 1.410 . S
C460 C461 1.392 . S
C460 C463 1.511 . S
C461 C457 1.376 . S
C461 C460 1.392 . S
C461 H473 0.929 . S
C462 C458 1.531 1_545 S
C462 H474 0.960 . S
C462 H475 0.962 . S
C462 H476 0.960 . S
C463 C460 1.511 . S
C463 H477 0.961 . S
C463 H478 0.961 . S
C463 H479 0.961 . S
C464 C465 1.370 . S
C464 C466 1.363 . S
C464 H480 0.931 . S
C465 C464 1.370 . S
C465 C469 1.408 . S
C466 C464 1.363 . S
C466 C467 1.370 . S
C466 C470 1.524 . S
C467 C459 1.503 1_545 S
C467 C466 1.370 . S
C467 C468 1.405 . S
C468 C467 1.405 . S
C468 C469 1.414 . S
C468 C471 1.527 1_545 S
C469 C465 1.408 . S
C469 C468 1.414 . S
C469 H481 0.930 . S
C470 C466 1.524 . S
C470 H482 0.956 . S
C470 H483 0.961 . S
C470 H484 0.961 . S
C471 C468 1.527 1_565 S
C471 H485 0.958 . S
C471 H486 0.961 . S
C471 H487 0.960 . S
H472 C456 0.931 . S
H473 C461 0.929 . S
H474 C462 0.960 . S
H475 C462 0.962 . S
H476 C462 0.960 . S
H477 C463 0.961 . S
H478 C463 0.961 . S
H479 C463 0.961 . S
H480 C464 0.931 . S
H481 C469 0.930 . S
H482 C470 0.956 . S
H483 C470 0.961 . S
H484 C470 0.961 . S
H485 C471 0.958 . S
H486 C471 0.961 . S
H487 C471 0.960 . S
C488 C489 1.391 . S
C488 C490 1.394 . S
C488 H504 0.931 . S
C489 C488 1.391 . S
C489 C493 1.376 . S
C490 C488 1.394 . S
C490 C491 1.369 . S
C490 C494 1.531 . S
C491 C490 1.369 . S
C491 C492 1.410 1_655 S
C491 C499 1.503 1_655 S
C492 C491 1.410 1_455 S
C492 C493 1.392 1_455 S
C492 C495 1.511 . S
C493 C489 1.376 . S
C493 C492 1.392 1_655 S
C493 H505 0.929 . S
C494 C490 1.531 . S
C494 H506 0.960 . S
C494 H507 0.962 . S
C494 H508 0.960 . S
C495 C492 1.511 . S
C495 H509 0.961 . S
C495 H510 0.961 . S
C495 H511 0.961 . S
C496 C497 1.370 . S
C496 C498 1.363 . S
C496 H512 0.931 . S
C497 C496 1.370 . S
C497 C501 1.408 . S
C498 C496 1.363 . S
C498 C499 1.370 . S
C498 C502 1.524 1_455 S
C499 C491 1.503 1_455 S
C499 C498 1.370 . S
C499 C500 1.403 . S
C500 C499 1.403 . S
C500 C501 1.404 . S
C500 C503 1.539 . S
C501 C497 1.408 . S
C501 C500 1.404 . S
C501 H513 0.930 . S
C502 C498 1.524 1_655 S
C502 H514 0.956 . S
C502 H515 0.961 . S
C502 H516 0.961 . S
C503 C500 1.539 . S
C503 H517 0.958 . S
C503 H518 0.961 . S
C503 H519 0.960 . S
H504 C488 0.931 . S
H505 C493 0.929 . S
H506 C494 0.960 . S
H507 C494 0.962 . S
H508 C494 0.960 . S
H509 C495 0.961 . S
H510 C495 0.961 . S
H511 C495 0.961 . S
H512 C496 0.931 . S
H513 C501 0.930 . S
H514 C502 0.956 . S
H515 C502 0.961 . S
H516 C502 0.961 . S
H517 C503 0.958 . S
H518 C503 0.961 . S
H519 C503 0.960 . S
C520 C521 1.391 . S
C520 C522 1.394 . S
C520 H536 0.931 . S
C521 C520 1.391 . S
C521 C525 1.376 . S
C522 C520 1.394 . S
C522 C523 1.369 . S
C522 C526 1.531 . S
C523 C522 1.369 . S
C523 C524 1.410 . S
C523 C531 1.503 . S
C524 C523 1.410 . S
C524 C525 1.392 . S
C524 C527 1.511 . S
C525 C521 1.376 . S
C525 C524 1.392 . S
C525 H537 0.929 . S
C526 C522 1.531 . S
C526 H538 0.960 . S
C526 H539 0.962 . S
C526 H540 0.960 . S
C527 C524 1.511 . S
C527 H541 0.961 . S
C527 H542 0.961 . S
C527 H543 0.961 . S
C528 C529 1.370 . S
C528 C530 1.363 . S
C528 H544 0.931 . S
C529 C528 1.370 . S
C529 C533 1.408 . S
C530 C528 1.363 . S
C530 C531 1.370 . S
C530 C534 1.524 . S
C531 C523 1.503 . S
C531 C530 1.370 . S
C531 C532 1.403 . S
C532 C531 1.403 . S
C532 C533 1.404 . S
C532 C535 1.539 . S
C533 C529 1.408 . S
C533 C532 1.404 . S
C533 H545 0.930 . S
C534 C530 1.524 . S
C534 H546 0.956 . S
C534 H547 0.961 . S
C534 H548 0.961 . S
C535 C532 1.539 . S
C535 H549 0.958 . S
C535 H550 0.961 . S
C535 H551 0.960 . S
H536 C520 0.931 . S
H537 C525 0.929 . S
H538 C526 0.960 . S
H539 C526 0.962 . S
H540 C526 0.960 . S
H541 C527 0.961 . S
H542 C527 0.961 . S
H543 C527 0.961 . S
H544 C528 0.931 . S
H545 C533 0.930 . S
H546 C534 0.956 . S
H547 C534 0.961 . S
H548 C534 0.961 . S
H549 C535 0.958 . S
H550 C535 0.961 . S
H551 C535 0.960 . S
C552 C553 1.391 . S
C552 C554 1.394 . S
C552 H568 0.931 . S
C553 C552 1.391 . S
C553 C557 1.376 . S
C554 C552 1.394 . S
C554 C555 1.369 . S
C554 C558 1.531 . S
C555 C554 1.369 . S
C555 C556 1.410 . S
C555 C563 1.503 1_545 S
C556 C555 1.410 . S
C556 C557 1.392 . S
C556 C559 1.511 . S
C557 C553 1.376 . S
C557 C556 1.392 . S
C557 H569 0.929 . S
C558 C554 1.531 . S
C558 H570 0.960 1_545 S
C558 H571 0.962 1_545 S
C558 H572 0.960 . S
C559 C556 1.511 . S
C559 H573 0.961 . S
C559 H574 0.961 . S
C559 H575 0.961 . S
C560 C561 1.370 . S
C560 C562 1.363 . S
C560 H576 0.931 . S
C561 C560 1.370 . S
C561 C565 1.408 . S
C562 C560 1.363 . S
C562 C563 1.370 . S
C562 C566 1.524 . S
C563 C555 1.503 1_565 S
C563 C562 1.370 . S
C563 C564 1.403 . S
C564 C563 1.403 . S
C564 C565 1.404 . S
C564 C567 1.539 1_565 S
C565 C561 1.408 . S
C565 C564 1.404 . S
C565 H577 0.930 . S
C566 C562 1.524 . S
C566 H578 0.956 . S
C566 H579 0.961 . S
C566 H580 0.961 . S
C567 C564 1.539 1_545 S
C567 H581 0.958 . S
C567 H582 0.961 . S
C567 H583 0.960 . S
H568 C552 0.931 . S
H569 C557 0.929 . S
H570 C558 0.960 1_565 S
H571 C558 0.962 1_565 S
H572 C558 0.960 . S
H573 C559 0.961 . S
H574 C559 0.961 . S
H575 C559 0.961 . S
H576 C560 0.931 . S
H577 C565 0.930 . S
H578 C566 0.956 . S
H579 C566 0.961 . S
H580 C566 0.961 . S
H581 C567 0.958 . S
H582 C567 0.961 . S
H583 C567 0.960 . S
C584 C585 1.391 . S
C584 C586 1.394 . S
C584 H600 0.931 . S
C585 C584 1.391 . S
C585 C589 1.376 . S
C586 C584 1.394 . S
C586 C587 1.369 . S
C586 C590 1.531 1_655 S
C587 C586 1.369 . S
C587 C588 1.410 1_565 S
C587 C595 1.503 1_665 S
C588 C587 1.410 1_545 S
C588 C589 1.392 1_545 S
C588 C591 1.511 . S
C589 C585 1.376 . S
C589 C588 1.392 1_565 S
C589 H601 0.929 . S
C590 C586 1.531 1_455 S
C590 H602 0.960 . S
C590 H603 0.962 . S
C590 H604 0.960 . S
C591 C588 1.511 . S
C591 H605 0.961 . S
C591 H606 0.961 . S
C591 H607 0.961 . S
C592 C593 1.370 . S
C592 C594 1.363 . S
C592 H608 0.931 . S
C593 C592 1.370 . S
C593 C597 1.408 . S
C594 C592 1.363 . S
C594 C595 1.370 . S
C594 C598 1.524 . S
C595 C587 1.503 1_445 S
C595 C594 1.370 . S
C595 C596 1.403 . S
C596 C595 1.403 . S
C596 C597 1.404 . S
C596 C599 1.539 1_545 S
C597 C593 1.408 . S
C597 C596 1.404 . S
C597 H609 0.930 . S
C598 C594 1.524 . S
C598 H610 0.956 1_455 S
C598 H611 0.961 1_455 S
C598 H612 0.961 . S
C599 C596 1.539 1_565 S
C599 H613 0.958 . S
C599 H614 0.961 1_565 S
C599 H615 0.960 . S
H600 C584 0.931 . S
H601 C589 0.929 . S
H602 C590 0.960 . S
H603 C590 0.962 . S
H604 C590 0.960 . S
H605 C591 0.961 . S
H606 C591 0.961 . S
H607 C591 0.961 . S
H608 C592 0.931 . S
H609 C597 0.930 . S
H610 C598 0.956 1_655 S
H611 C598 0.961 1_655 S
H612 C598 0.961 . S
H613 C599 0.958 . S
H614 C599 0.961 1_545 S
H615 C599 0.960 . S
C105 C10 1.060 . S
C113 C75 1.065 . S
C137 C21 0.950 . S
C145 C86 1.038 . S
C169 C36 1.065 . S
C177 C101 1.064 . S
C201 C47 1.071 . S
C209 C60 0.988 . S
C233 C99 1.063 . S
C241 C8 0.993 . S
C265 C62 1.052 . S
C273 C23 1.049 . S
C297 C34 1.009 . S
C305 C73 1.012 . S
C329 C88 1.035 . S
C337 C49 1.056 . S
C361 C5 1.521 . S
C369 C83 1.496 . S
C393 C91 1.502 . S
C401 C13 1.516 . S
C425 C31 1.480 . S
C433 C57 1.507 . S
C457 C39 1.525 . S
C465 C65 1.530 . S
C489 C78 1.511 . S
C497 C0 1.515 . S
C521 C96 1.517 . S
C529 C18 1.507 . S
C553 C26 1.521 . S
C561 C52 1.517 . S
C585 C44 1.505 . S
C593 C70 1.512 . S
