# Generated by pormake.
# Topology sxt, (3)-cn, num edge types: 1
# Building blocks:
#     Node 0, Type 0, BuildingBlock: WUSLED_clean_sbu_0, # of connection points: 3
#     Node 1, Type 0, BuildingBlock: WUSLED_clean_sbu_0, # of connection points: 3
#     Node 2, Type 0, BuildingBlock: WUSLED_clean_sbu_0, # of connection points: 3
#     Node 3, Type 0, BuildingBlock: WUSLED_clean_sbu_0, # of connection points: 3
#     Node 4, Type 0, BuildingBlock: WUSLED_clean_sbu_0, # of connection points: 3
#     Node 5, Type 0, BuildingBlock: WUSLED_clean_sbu_0, # of connection points: 3
#     Node 6, Type 0, BuildingBlock: WUSLED_clean_sbu_0, # of connection points: 3
#     Node 7, Type 0, BuildingBlock: WUSLED_clean_sbu_0, # of connection points: 3
#     Node 8, Type 0, BuildingBlock: WUSLED_clean_sbu_0, # of connection points: 3
#     Node 9, Type 0, BuildingBlock: WUSLED_clean_sbu_0, # of connection points: 3
#     Node 10, Type 0, BuildingBlock: WUSLED_clean_sbu_0, # of connection points: 3
#     Node 11, Type 0, BuildingBlock: WUSLED_clean_sbu_0, # of connection points: 3
#     Node 12, Type 0, BuildingBlock: WUSLED_clean_sbu_0, # of connection points: 3
#     Node 13, Type 0, BuildingBlock: WUSLED_clean_sbu_0, # of connection points: 3
#     Node 14, Type 0, BuildingBlock: WUSLED_clean_sbu_0, # of connection points: 3
#     Node 15, Type 0, BuildingBlock: WUSLED_clean_sbu_0, # of connection points: 3
#     Node 16, Type 0, BuildingBlock: WUSLED_clean_sbu_0, # of connection points: 3
#     Node 17, Type 0, BuildingBlock: WUSLED_clean_sbu_0, # of connection points: 3
#     Node 18, Type 0, BuildingBlock: WUSLED_clean_sbu_0, # of connection points: 3
#     Node 19, Type 0, BuildingBlock: WUSLED_clean_sbu_0, # of connection points: 3
#     Node 20, Type 0, BuildingBlock: WUSLED_clean_sbu_0, # of connection points: 3
#     Node 21, Type 0, BuildingBlock: WUSLED_clean_sbu_0, # of connection points: 3
#     Node 22, Type 0, BuildingBlock: WUSLED_clean_sbu_0, # of connection points: 3
#     Node 23, Type 0, BuildingBlock: WUSLED_clean_sbu_0, # of connection points: 3
#     Edge 24, Type (0, 0), BuildingBlock: ZUJKAS_clean_linker_0, # of connection points: 2
#     Edge 25, Type (0, 0), BuildingBlock: ZUJKAS_clean_linker_0, # of connection points: 2
#     Edge 26, Type (0, 0), BuildingBlock: ZUJKAS_clean_linker_0, # of connection points: 2
#     Edge 27, Type (0, 0), BuildingBlock: ZUJKAS_clean_linker_0, # of connection points: 2
#     Edge 28, Type (0, 0), BuildingBlock: ZUJKAS_clean_linker_0, # of connection points: 2
#     Edge 29, Type (0, 0), BuildingBlock: ZUJKAS_clean_linker_0, # of connection points: 2
#     Edge 30, Type (0, 0), BuildingBlock: ZUJKAS_clean_linker_0, # of connection points: 2
#     Edge 31, Type (0, 0), BuildingBlock: ZUJKAS_clean_linker_0, # of connection points: 2
#     Edge 32, Type (0, 0), BuildingBlock: ZUJKAS_clean_linker_0, # of connection points: 2
#     Edge 33, Type (0, 0), BuildingBlock: ZUJKAS_clean_linker_0, # of connection points: 2
#     Edge 34, Type (0, 0), BuildingBlock: ZUJKAS_clean_linker_0, # of connection points: 2
#     Edge 35, Type (0, 0), BuildingBlock: ZUJKAS_clean_linker_0, # of connection points: 2
#     Edge 36, Type (0, 0), BuildingBlock: ZUJKAS_clean_linker_0, # of connection points: 2
#     Edge 37, Type (0, 0), BuildingBlock: ZUJKAS_clean_linker_0, # of connection points: 2
#     Edge 38, Type (0, 0), BuildingBlock: ZUJKAS_clean_linker_0, # of connection points: 2
#     Edge 39, Type (0, 0), BuildingBlock: ZUJKAS_clean_linker_0, # of connection points: 2
#     Edge 40, Type (0, 0), BuildingBlock: ZUJKAS_clean_linker_0, # of connection points: 2
#     Edge 41, Type (0, 0), BuildingBlock: ZUJKAS_clean_linker_0, # of connection points: 2
#     Edge 42, Type (0, 0), BuildingBlock: ZUJKAS_clean_linker_0, # of connection points: 2
#     Edge 43, Type (0, 0), BuildingBlock: ZUJKAS_clean_linker_0, # of connection points: 2
#     Edge 44, Type (0, 0), BuildingBlock: ZUJKAS_clean_linker_0, # of connection points: 2
#     Edge 45, Type (0, 0), BuildingBlock: ZUJKAS_clean_linker_0, # of connection points: 2
#     Edge 46, Type (0, 0), BuildingBlock: ZUJKAS_clean_linker_0, # of connection points: 2
#     Edge 47, Type (0, 0), BuildingBlock: ZUJKAS_clean_linker_0, # of connection points: 2
#     Edge 48, Type (0, 0), BuildingBlock: ZUJKAS_clean_linker_0, # of connection points: 2
#     Edge 49, Type (0, 0), BuildingBlock: ZUJKAS_clean_linker_0, # of connection points: 2
#     Edge 50, Type (0, 0), BuildingBlock: ZUJKAS_clean_linker_0, # of connection points: 2
#     Edge 51, Type (0, 0), BuildingBlock: ZUJKAS_clean_linker_0, # of connection points: 2
#     Edge 52, Type (0, 0), BuildingBlock: ZUJKAS_clean_linker_0, # of connection points: 2
#     Edge 53, Type (0, 0), BuildingBlock: ZUJKAS_clean_linker_0, # of connection points: 2
#     Edge 54, Type (0, 0), BuildingBlock: ZUJKAS_clean_linker_0, # of connection points: 2
#     Edge 55, Type (0, 0), BuildingBlock: ZUJKAS_clean_linker_0, # of connection points: 2
#     Edge 56, Type (0, 0), BuildingBlock: ZUJKAS_clean_linker_0, # of connection points: 2
#     Edge 57, Type (0, 0), BuildingBlock: ZUJKAS_clean_linker_0, # of connection points: 2
#     Edge 58, Type (0, 0), BuildingBlock: ZUJKAS_clean_linker_0, # of connection points: 2
#     Edge 59, Type (0, 0), BuildingBlock: ZUJKAS_clean_linker_0, # of connection points: 2
# Relax obj value: 0.199
# Max RMSD: 0.187
# Mean RMSD: 0.125
data_MOF--net-sxt--node1-WUSLED_clean_sbu_0--edge1-ZUJKAS_clean_linker_0
_symmetry_space_group_name_H-M    P1
_symmetry_Int_Tables_number       1
_symmetry_cell_setting            triclinic
loop_
_symmetry_equiv_pos_as_xyz
'x, y, z'
_cell_length_a     52.940126
_cell_length_b     122.19977
_cell_length_c     52.16616
_cell_angle_alpha  90.03628
_cell_angle_beta   89.731351
_cell_angle_gamma 89.991587
loop_
_atom_site_label
_atom_site_type_symbol
_atom_site_fract_x
_atom_site_fract_y
_atom_site_fract_z
_atom_type_partial_charge
C0 C 0.41968 0.50038 0.32437 0.0
C1 C 0.41773 0.51052 0.31185 0.0
C2 C 0.45828 0.50759 0.29023 0.0
C3 C 0.43668 0.51401 0.29492 0.0
C4 C 0.46105 0.49779 0.30404 0.0
C5 C 0.44183 0.49418 0.32073 0.0
U6 U 0.36178 0.49795 0.37244 0.0
O7 O 0.32405 0.49189 0.36245 0.0
O8 O 0.34705 0.48278 0.39012 0.0
C9 C 0.32605 0.48309 0.37677 0.0
C10 C 0.39748 0.49533 0.33746 0.0
C11 C 0.31701 0.47269 0.36556 0.0
C12 C 0.30272 0.46187 0.32914 0.0
C13 C 0.31527 0.47107 0.33892 0.0
C14 C 0.29479 0.4555 0.37237 0.0
C15 C 0.29188 0.45411 0.3458 0.0
C16 C 0.30715 0.4647 0.38211 0.0
C17 C 0.34304 0.52081 0.42155 0.0
C18 C 0.32432 0.5219 0.46445 0.0
C19 C 0.31965 0.53704 0.4352 0.0
C20 C 0.33349 0.5313 0.41662 0.0
C21 C 0.31451 0.53247 0.45952 0.0
C22 C 0.33832 0.51615 0.44577 0.0
C23 C 0.35949 0.51551 0.4018 0.0
O24 O 0.39991 0.49198 0.36129 0.0
O25 O 0.37522 0.49964 0.3328 0.0
O26 O 0.35051 0.51513 0.37836 0.0
O27 O 0.3719 0.50659 0.40817 0.0
H28 H 0.40103 0.51555 0.31421 0.0
H29 H 0.43407 0.52168 0.28518 0.0
H30 H 0.47749 0.49267 0.30101 0.0
H31 H 0.44379 0.48627 0.32991 0.0
H32 H 0.30101 0.46095 0.30857 0.0
H33 H 0.3228 0.47709 0.32569 0.0
H34 H 0.28642 0.44973 0.3857 0.0
H35 H 0.30807 0.46581 0.40269 0.0
H36 H 0.32132 0.51795 0.4827 0.0
H37 H 0.3136 0.54522 0.43035 0.0
H38 H 0.33719 0.53522 0.39836 0.0
H39 H 0.34562 0.50812 0.45044 0.0
C40 C 0.30046 0.14077 0.98639 0.0
C41 C 0.27412 0.14218 0.98816 0.0
C42 C 0.27942 0.16205 0.98921 0.0
C43 C 0.26367 0.15275 0.98954 0.0
C44 C 0.30575 0.16048 0.98794 0.0
C45 C 0.31608 0.14999 0.98647 0.0
U46 U 0.29723 0.10985 0.99544 0.0
O47 O 0.31229 0.09604 0.97272 0.0
O48 O 0.32428 0.09836 0.01273 0.0
C49 C 0.32595 0.09236 0.99186 0.0
C50 C 0.31226 0.12983 0.98508 0.0
C51 C 0.35035 0.08704 0.98594 0.0
C52 C 0.39626 0.08671 0.98202 0.0
C53 C 0.37362 0.09257 0.98587 0.0
C54 C 0.37241 0.06989 0.97823 0.0
C55 C 0.39589 0.07525 0.97825 0.0
C56 C 0.35003 0.07571 0.98194 0.0
C57 C 0.23207 0.0994 0.01978 0.0
C58 C 0.22054 0.08104 0.03331 0.0
C59 C 0.19025 0.09587 0.0367 0.0
C60 C 0.20786 0.10306 0.02629 0.0
C61 C 0.19653 0.08486 0.04079 0.0
C62 C 0.23835 0.08832 0.02294 0.0
C63 C 0.25034 0.1076 0.011 0.0
O64 O 0.31614 0.12506 0.00729 0.0
O65 O 0.3034 0.12312 0.96756 0.0
O66 O 0.25705 0.10719 0.98675 0.0
O67 O 0.26918 0.10966 0.02658 0.0
H68 H 0.26168 0.13514 0.98841 0.0
H69 H 0.24333 0.15363 0.9905 0.0
H70 H 0.31854 0.16739 0.98839 0.0
H71 H 0.33642 0.14908 0.98549 0.0
H72 H 0.41399 0.09112 0.98195 0.0
H73 H 0.37432 0.10132 0.98903 0.0
H74 H 0.37129 0.06109 0.97598 0.0
H75 H 0.33231 0.07127 0.98224 0.0
H76 H 0.22577 0.07257 0.03636 0.0
H77 H 0.17176 0.09897 0.04198 0.0
H78 H 0.20273 0.11158 0.02386 0.0
H79 H 0.25705 0.08538 0.01796 0.0
C80 C 0.93757 0.58304 0.64013 0.0
C81 C 0.94397 0.57203 0.63548 0.0
C82 C 0.90142 0.56833 0.619 0.0
C83 C 0.92603 0.56475 0.62512 0.0
C84 C 0.89524 0.57934 0.62389 0.0
C85 C 0.91303 0.58656 0.63431 0.0
U86 U 1.00447 0.59484 0.6564 0.0
O87 O 0.0176 0.61191 0.65323 0.0
O88 O 0.01695 0.60386 0.69097 0.0
C89 C 0.02282 0.61267 0.67777 0.0
C90 C 0.95559 0.59113 0.65112 0.0
C91 C 0.02166 0.62357 0.69022 0.0
C92 C 1.00086 0.64079 0.70117 0.0
C93 C 0.99973 0.63006 0.69124 0.0
C94 C 0.0455 0.63851 0.70944 0.0
C95 C 0.02389 0.64512 0.71004 0.0
C96 C 0.04436 0.62787 0.69971 0.0
C97 C 0.06414 0.57789 0.63539 0.0
C98 C 0.10784 0.58341 0.62791 0.0
C99 C 0.09605 0.56435 0.62418 0.0
C100 C 0.0712 0.56702 0.63084 0.0
C101 C 0.11474 0.5725 0.62207 0.0
C102 C 0.08275 0.58608 0.6344 0.0
C103 C 0.03689 0.5803 0.63869 0.0
O104 O 0.96856 0.58816 0.6714 0.0
O105 O 0.96907 0.59684 0.63467 0.0
O106 O 0.02748 0.58825 0.62474 0.0
O107 O 0.02763 0.58 0.66209 0.0
H108 H 0.96279 0.56909 0.63974 0.0
H109 H 0.93157 0.55636 0.62143 0.0
H110 H 0.87647 0.5824 0.61983 0.0
H111 H 0.90755 0.59497 0.63785 0.0
H112 H 0.98397 0.6458 0.70135 0.0
H113 H 0.98202 0.62696 0.68391 0.0
H114 H 0.06347 0.6417 0.71593 0.0
H115 H 0.06154 0.62305 0.69893 0.0
H116 H 0.12169 0.58991 0.62698 0.0
H117 H 0.1002 0.55591 0.61948 0.0
H118 H 0.05715 0.56057 0.63141 0.0
H119 H 0.07778 0.59455 0.63795 0.0
C120 C 0.98458 0.99861 0.34458 0.0
C121 C 0.9925 1.00952 0.34236 0.0
C122 C 0.97196 0.01386 0.38322 0.0
C123 C 0.98611 0.01712 0.36153 0.0
C124 C 0.96407 1.0029 0.385 0.0
C125 C 0.97019 0.99541 0.36584 0.0
U126 U 0.00987 0.981 0.28477 0.0
O127 O 0.03319 0.96661 0.29321 0.0
O128 O 0.99513 0.96445 0.27743 0.0
C129 C 0.01624 0.95972 0.28457 0.0
C130 C 0.99269 0.98997 0.32687 0.0
C131 C 0.02604 0.95095 0.2681 0.0
C132 C 0.04193 0.93241 0.26526 0.0
C133 C 0.03163 0.94093 0.27961 0.0
C134 C 0.04094 0.94379 0.22725 0.0
C135 C 0.04667 0.93367 0.23887 0.0
C136 C 0.03075 0.9524 0.24181 0.0
C137 C 0.02697 1.00088 0.22632 0.0
C138 C 0.04606 1.00727 0.18691 0.0
C139 C 0.02297 0.01997 0.21404 0.0
C140 C 0.01781 0.01145 0.23137 0.0
C141 C 0.03708 0.0179 0.19156 0.0
C142 C 0.04101 0.99888 0.20407 0.0
C143 C 0.02267 0.9915 0.24316 0.0
O144 O 0.9777 0.98689 0.30817 0.0
O145 O 0.01693 0.98888 0.32189 0.0
O146 O 0.99941 0.98822 0.24763 0.0
O147 O 0.03857 0.98972 0.26199 0.0
H148 H 1.00386 0.0121 0.32612 0.0
H149 H 0.99235 0.02551 0.35942 0.0
H150 H 0.95379 0.99996 0.40162 0.0
H151 H 0.96431 0.98696 0.36807 0.0
H152 H 0.0467 0.9249 0.27512 0.0
H153 H 0.02836 0.93973 0.29995 0.0
H154 H 0.04424 0.94504 0.20696 0.0
H155 H 0.02668 0.96016 0.23266 0.0
H156 H 0.05759 1.00545 0.17024 0.0
H157 H 0.01595 0.02811 0.21812 0.0
H158 H 1.00692 0.01309 0.24857 0.0
H159 H 0.0483 0.99077 0.2 0.0
C160 C 0.01409 0.61981 0.3132 0.0
C161 C 0.98797 0.62196 0.31336 0.0
C162 C 0.99548 0.64018 0.29554 0.0
C163 C 0.97875 0.63211 0.30471 0.0
C164 C 0.02143 0.63789 0.29487 0.0
C165 C 0.03063 0.62784 0.30373 0.0
U166 U 0.0101 0.5915 0.34704 0.0
O167 O 0.03319 0.57656 0.34131 0.0
O168 O 0.03409 0.5853 0.37831 0.0
C169 C 0.0419 0.57685 0.36487 0.0
C170 C 0.02497 0.60963 0.32405 0.0
C171 C 0.06652 0.57169 0.37106 0.0
C172 C 0.11201 0.57182 0.37921 0.0
C173 C 0.08985 0.57722 0.37099 0.0
C174 C 0.08758 0.55549 0.38766 0.0
C175 C 0.11115 0.56084 0.38784 0.0
C176 C 0.06582 0.56079 0.37921 0.0
C177 C 0.93959 0.58235 0.36392 0.0
C178 C 0.91945 0.56618 0.38251 0.0
C179 C 0.89547 0.58287 0.37695 0.0
C180 C 0.91661 0.58793 0.36627 0.0
C181 C 0.89662 0.57202 0.38567 0.0
C182 C 0.94092 0.57134 0.37177 0.0
C183 C 0.96117 0.58865 0.35343 0.0
O184 O 0.02324 0.60857 0.34904 0.0
O185 O 0.02054 0.60045 0.31171 0.0
O186 O 0.97373 0.58474 0.33365 0.0
O187 O 0.9754 0.59399 0.36976 0.0
H188 H 0.97482 0.6159 0.3206 0.0
H189 H 0.95863 0.63371 0.3054 0.0
H190 H 0.0347 0.64402 0.28819 0.0
H191 H 0.05082 0.62641 0.30364 0.0
H192 H 0.12973 0.57624 0.37884 0.0
H193 H 0.09089 0.58568 0.36488 0.0
H194 H 0.08556 0.54723 0.39481 0.0
H195 H 0.04805 0.55639 0.37977 0.0
H196 H 0.92092 0.5578 0.38911 0.0
H197 H 0.87815 0.58754 0.37874 0.0
H198 H 0.91507 0.59638 0.36013 0.0
H199 H 0.95847 0.56684 0.37003 0.0
C200 C 0.71573 0.14295 0.02717 0.0
C201 C 0.73858 0.14476 0.01396 0.0
C202 C 0.73584 0.16426 0.02335 0.0
C203 C 0.74858 0.15536 0.01206 0.0
C204 C 0.71362 0.16226 0.03748 0.0
C205 C 0.70364 0.15173 0.03927 0.0
U206 U 0.71945 0.1122 0.01794 0.0
O207 O 0.70304 0.09855 0.03997 0.0
O208 O 0.69366 0.1006 0.99916 0.0
C209 C 0.69048 0.0948 0.02013 0.0
C210 C 0.70376 0.13209 0.0279 0.0
C211 C 0.66534 0.09001 0.02463 0.0
C212 C 0.62249 0.09002 0.04191 0.0
C213 C 0.6458 0.09534 0.03803 0.0
C214 C 0.63844 0.07412 0.01932 0.0
C215 C 0.61853 0.07934 0.0324 0.0
C216 C 0.6614 0.0794 0.0154 0.0
C217 C 0.78429 0.10123 0.99549 0.0
C218 C 0.79313 0.08318 0.97803 0.0
C219 C 0.82685 0.09647 0.98251 0.0
C220 C 0.80982 0.10395 0.9929 0.0
C221 C 0.81862 0.08611 0.97442 0.0
C222 C 0.77599 0.09074 0.98845 0.0
C223 C 0.76676 0.1098 1.00391 0.0
O224 O 0.70079 0.12733 1.0055 0.0
O225 O 0.71202 0.12541 0.04574 0.0
O226 O 0.75931 0.10942 0.02795 0.0
O227 O 0.74854 0.11218 0.98785 0.0
H228 H 0.74834 0.13804 1.00466 0.0
H229 H 0.76574 0.15663 1.00107 0.0
H230 H 0.7037 0.16888 0.04697 0.0
H231 H 0.68618 0.15046 0.04977 0.0
H232 H 0.60753 0.0943 0.05199 0.0
H233 H 0.64854 0.10354 0.0454 0.0
H234 H 0.63644 0.06582 0.01227 0.0
H235 H 0.67632 0.07512 1.00522 0.0
H236 H 0.78629 0.07525 0.97189 0.0
H237 H 0.84644 0.09887 0.98038 0.0
H238 H 0.8165 0.11201 0.99832 0.0
H239 H 0.75625 0.08852 0.99036 0.0
C240 C 0.59524 0.49822 0.68886 0.0
C241 C 0.57321 0.50222 0.6771 0.0
C242 C 0.55236 0.50424 0.71901 0.0
C243 C 0.552 0.50518 0.69205 0.0
C244 C 0.5743 0.49994 0.73039 0.0
C245 C 0.59533 0.49704 0.7156 0.0
U246 U 0.65366 0.49741 0.64017 0.0
O247 O 0.69089 0.49064 0.64961 0.0
O248 O 0.66762 0.48248 0.62062 0.0
C249 C 0.68849 0.48221 0.63418 0.0
C250 C 0.6176 0.49409 0.6744 0.0
C251 C 0.69683 0.47147 0.64425 0.0
C252 C 0.70803 0.45947 0.67979 0.0
C253 C 0.6961 0.46894 0.67055 0.0
C254 C 0.72051 0.4547 0.63653 0.0
C255 C 0.72097 0.45236 0.66295 0.0
C256 C 0.70857 0.46411 0.62735 0.0
C257 C 0.67358 0.52097 0.59349 0.0
C258 C 0.69232 0.52163 0.55074 0.0
C259 C 0.69647 0.53722 0.57863 0.0
C260 C 0.683 0.53158 0.59781 0.0
C261 C 0.70109 0.5324 0.55449 0.0
C262 C 0.67859 0.51604 0.56969 0.0
C263 C 0.65715 0.51565 0.61324 0.0
O264 O 0.61528 0.49155 0.65001 0.0
O265 O 0.6397 0.49834 0.67999 0.0
O266 O 0.66662 0.51454 0.63634 0.0
O267 O 0.64371 0.50712 0.60608 0.0
H268 H 0.57234 0.50305 0.65645 0.0
H269 H 0.53561 0.50838 0.68249 0.0
H270 H 0.5753 0.4988 0.75094 0.0
H271 H 0.61174 0.49371 0.72517 0.0
H272 H 0.70758 0.45785 0.70019 0.0
H273 H 0.68709 0.47445 0.68404 0.0
H274 H 0.73047 0.44954 0.62295 0.0
H275 H 0.70951 0.46591 0.60703 0.0
H276 H 0.69657 0.51736 0.53337 0.0
H277 H 0.70291 0.54544 0.58272 0.0
H278 H 0.67951 0.53561 0.61597 0.0
H279 H 0.67191 0.50784 0.56561 0.0
C280 C 0.0349 0.99221 0.66052 0.0
C281 C 0.02562 1.00299 0.66046 0.0
C282 C 0.04991 1.00711 0.62168 0.0
C283 C 0.03294 1.01035 0.64118 0.0
C284 C 0.05994 0.99644 0.62259 0.0
C285 C 0.05243 0.98907 0.64172 0.0
U286 U 0.00842 0.98577 0.72653 0.0
O287 O 0.978 0.97475 0.7392 0.0
O288 O 0.01648 0.97272 0.75466 0.0
C289 C 0.99281 0.96946 0.75512 0.0
C290 C 0.02607 0.98411 0.67963 0.0
C291 C 0.98704 0.95795 0.76115 0.0
C292 C 0.97003 0.94002 0.75056 0.0
C293 C 0.97871 0.95038 0.7428 0.0
C294 C 0.97825 0.94476 0.79482 0.0
C295 C 0.96925 0.93715 0.77679 0.0
C296 C 0.98715 0.95497 0.78704 0.0
C297 C 0.99714 1.01012 0.77129 0.0
C298 C 0.96862 1.01043 0.80788 0.0
C299 C 0.9974 0.02554 0.8005 0.0
C300 C 1.00699 0.02023 0.77888 0.0
C301 C 0.97761 0.02086 0.81482 0.0
C302 C 0.97837 1.00508 0.78629 0.0
C303 C 1.00577 1.00533 0.74698 0.0
O304 O 0.04035 0.98293 0.70001 0.0
O305 O 1.00179 0.98443 0.6851 0.0
O306 O 0.98802 1.00121 0.73233 0.0
O307 O 0.02607 0.99918 0.74824 0.0
H308 H 0.01224 1.00565 0.67496 0.0
H309 H 0.02457 0.01843 0.64111 0.0
H310 H 0.07345 0.99369 0.60834 0.0
H311 H 0.06006 0.98085 0.64159 0.0
H312 H 0.96359 0.93433 0.73607 0.0
H313 H 0.97834 0.95255 0.72267 0.0
H314 H 0.97747 0.94306 0.81516 0.0
H315 H 0.99315 0.96076 0.80154 0.0
H316 H 0.9533 1.00662 0.81841 0.0
H317 H 1.00512 0.03345 0.80564 0.0
H318 H 0.02167 0.02416 0.76766 0.0
H319 H 0.97069 0.9972 0.78083 0.0
C320 C 0.98559 0.13991 0.71003 0.0
C321 C 0.99022 0.14125 0.73637 0.0
C322 C 0.98899 0.16111 0.73144 0.0
C323 C 0.99185 0.15178 0.74702 0.0
C324 C 0.98479 0.15962 0.70503 0.0
C325 C 0.98299 0.14915 0.69452 0.0
U326 U 0.99496 0.10917 0.71374 0.0
O327 O 0.97264 0.09542 0.69852 0.0
O328 O 0.01225 0.09756 0.68656 0.0
C329 C 0.9914 0.09182 0.68419 0.0
C330 C 0.98408 0.129 0.69818 0.0
C331 C 0.98553 0.08761 0.65834 0.0
C332 C 0.96079 0.08701 0.61904 0.0
C333 C 0.96645 0.09197 0.6427 0.0
C334 C 0.99315 0.07341 0.62663 0.0
C335 C 0.97406 0.07762 0.61075 0.0
C336 C 0.99885 0.07838 0.64994 0.0
C337 C 0.02206 0.0994 0.77919 0.0
C338 C 0.0295 0.08097 0.79493 0.0
C339 C 0.04568 0.09661 0.81826 0.0
C340 C 0.03535 0.1036 0.80008 0.0
C341 C 0.04278 0.08521 0.8161 0.0
C342 C 0.0192 0.08804 0.77652 0.0
C343 C 0.01193 0.10727 0.76069 0.0
O344 O 1.00594 0.12427 0.69366 0.0
O345 O 0.96714 0.12231 0.70798 0.0
O346 O 0.98787 0.10644 0.75487 0.0
O347 O 0.02649 0.10949 0.74094 0.0
H348 H 0.99253 0.13418 0.74866 0.0
H349 H 0.99499 0.15259 0.76743 0.0
H350 H 0.98319 0.16657 0.69226 0.0
H351 H 0.97972 0.14828 0.67413 0.0
H352 H 0.94614 0.09056 0.60725 0.0
H353 H 0.95585 0.0991 0.64881 0.0
H354 H 1.00342 0.06607 0.62141 0.0
H355 H 0.01346 0.07483 0.66181 0.0
H356 H 0.02688 0.07223 0.79271 0.0
H357 H 0.05637 0.10018 0.83381 0.0
H358 H 0.03791 0.11235 0.80227 0.0
H359 H 0.00909 0.08466 0.76033 0.0
C360 C 0.0326 0.29849 0.23047 0.0
C361 C 0.01395 0.29488 0.24769 0.0
C362 C 0.01827 0.2763 0.23117 0.0
C363 C 1.00669 0.28387 0.24792 0.0
C364 C 0.03648 0.28013 0.21358 0.0
C365 C 0.04346 0.29112 0.2132 0.0
U366 U 0.03704 0.32599 0.2638 0.0
O367 O 0.07237 0.33373 0.27668 0.0
O368 O 0.04701 0.34244 0.24957 0.0
C369 C 0.06867 0.34226 0.26185 0.0
C370 C 0.04345 0.30946 0.23255 0.0
C371 C 0.0836 0.35222 0.2652 0.0
C372 C 0.12323 0.36154 0.25716 0.0
C373 C 0.1072 0.3527 0.25304 0.0
C374 C 0.09186 0.36979 0.28516 0.0
C375 C 0.11597 0.37008 0.27362 0.0
C376 C 0.07575 0.36085 0.28105 0.0
C377 C 0.99068 0.32882 0.32168 0.0
C378 C 0.99542 0.34053 0.35876 0.0
C379 C 0.9661 0.32527 0.35999 0.0
C380 C 0.97207 0.32282 0.33463 0.0
C381 C 0.9786 0.33382 0.37256 0.0
C382 C 1.00162 0.33798 0.33338 0.0
C383 C 1.00133 0.32401 0.29843 0.0
O384 O 0.02848 0.31773 0.22725 0.0
O385 O 0.05683 0.31092 0.25335 0.0
O386 O 0.02411 0.31992 0.30101 0.0
O387 O 0.99795 0.32922 0.27666 0.0
H388 H 1.00563 0.30048 0.26145 0.0
H389 H 0.99241 0.28126 0.26153 0.0
H390 H 0.04631 0.27458 0.20081 0.0
H391 H 0.05821 0.29377 0.20013 0.0
H392 H 0.1415 0.36162 0.24771 0.0
H393 H 0.11347 0.34609 0.24069 0.0
H394 H 0.08586 0.37625 0.29803 0.0
H395 H 0.05757 0.36054 0.29064 0.0
H396 H 1.00545 0.3471 0.36826 0.0
H397 H 0.95313 0.32001 0.37035 0.0
H398 H 0.9636 0.31568 0.32582 0.0
H399 H 0.01619 0.34263 0.3236 0.0
C400 C 0.73658 0.95187 0.01883 0.0
C401 C 0.76278 0.95296 0.02265 0.0
C402 C 0.76429 0.9349 0.04239 0.0
C403 C 0.77659 0.94448 0.03418 0.0
C404 C 0.73829 0.93375 0.03789 0.0
C405 C 0.7246 0.94213 0.02613 0.0
U406 U 0.73072 0.98195 1.00266 0.0
O407 O 0.70943 0.9911 0.97327 0.0
O408 O 0.7026 0.99427 0.01437 0.0
C409 C 0.69732 0.99694 0.9906 0.0
C410 C 0.72113 0.9611 0.00953 0.0
C411 C 0.6718 1.00113 0.98504 0.0
C412 C 0.62715 0.99923 0.97461 0.0
C413 C 0.65108 0.99447 0.9787 0.0
C414 C 0.64485 0.01717 0.9827 0.0
C415 C 0.62376 0.01064 0.97706 0.0
C416 C 0.66846 0.01247 0.98668 0.0
C417 C 0.79221 0.99847 0.01341 0.0
C418 C 0.7976 0.01704 0.02912 0.0
C419 C 0.83413 1.00628 0.01672 0.0
C420 C 0.81835 0.99764 0.00983 0.0
C421 C 0.82402 0.01588 0.02749 0.0
C422 C 0.78177 1.00837 0.02212 0.0
C423 C 0.77707 0.98843 0.01158 0.0
O424 O 0.71628 0.96862 0.02688 0.0
O425 O 0.72744 0.96523 0.9871 0.0
O426 O 0.76933 0.98549 0.98869 0.0
O427 O 0.75995 0.9871 0.02961 0.0
H428 H 0.77237 0.96047 0.0174 0.0
H429 H 0.7966 0.94558 0.03763 0.0
H430 H 0.72844 0.92642 0.04395 0.0
H431 H 0.70445 0.94114 0.02345 0.0
H432 H 0.61124 0.99399 0.97026 0.0
H433 H 0.6533 0.98569 0.97725 0.0
H434 H 0.64311 0.02598 0.98419 0.0
H435 H 0.68423 0.01775 0.99134 0.0
H436 H 0.78924 0.02433 0.03737 0.0
H437 H 0.85436 1.00523 0.01475 0.0
H438 H 0.8267 0.99007 1.00305 0.0
H439 H 0.76156 1.00918 0.02492 0.0
C440 C 0.08254 0.78126 0.77874 0.0
C441 C 0.07095 0.77803 0.75575 0.0
C442 C 0.07101 0.75888 0.76963 0.0
C443 C 0.06521 0.76697 0.75127 0.0
C444 C 0.08266 0.76223 0.79258 0.0
C445 C 0.08829 0.77327 0.79706 0.0
U446 U 0.08627 0.81084 0.75624 0.0
O447 O 0.07764 0.82652 0.7754 0.0
O448 O 0.11593 0.82337 0.76048 0.0
C449 C 0.10065 0.83031 0.77198 0.0
C450 C 0.08904 0.79285 0.78372 0.0
C451 C 0.11126 0.83766 0.79171 0.0
C452 C 0.13228 0.84157 0.8322 0.0
C453 C 0.12204 0.83399 0.81472 0.0
C454 C 0.12121 0.8564 0.80365 0.0
C455 C 0.1319 0.85291 0.82689 0.0
C456 C 0.11097 0.84889 0.78645 0.0
C457 C 0.06091 0.81337 0.68523 0.0
C458 C 0.04995 0.82863 0.65736 0.0
C459 C 0.04662 0.80998 0.6419 0.0
C460 C 0.05526 0.80612 0.66533 0.0
C461 C 0.04346 0.82123 0.63773 0.0
C462 C 0.0585 0.8247 0.68117 0.0
C463 C 0.06794 0.80847 0.70991 0.0
O464 O 0.1081 0.79673 0.7703 0.0
O465 O 0.06988 0.79968 0.78502 0.0
O466 O 0.05384 0.81076 0.73 0.0
O467 O 0.0921 0.80756 0.71509 0.0
H468 H 0.06634 0.78406 0.74129 0.0
H469 H 0.05596 0.76479 0.73351 0.0
H470 H 0.08786 0.75629 0.80702 0.0
H471 H 0.09734 0.77557 0.81485 0.0
H472 H 0.14022 0.83857 0.84995 0.0
H473 H 0.12255 0.82533 0.81912 0.0
H474 H 0.12107 0.86497 0.7984 0.0
H475 H 0.10295 0.85189 0.76872 0.0
H476 H 0.04769 0.83735 0.65454 0.0
H477 H 0.04217 0.80411 0.62702 0.0
H478 H 0.05707 0.79736 0.6681 0.0
H479 H 0.06279 0.83043 0.69639 0.0
C480 C 0.27823 0.95626 0.99552 0.0
C481 C 0.25198 0.95736 0.99236 0.0
C482 C 0.24934 0.93882 0.97485 0.0
C483 C 0.23766 0.94872 0.98223 0.0
C484 C 0.27564 0.93781 0.97831 0.0
C485 C 0.28983 0.9464 0.98858 0.0
U486 U 0.28428 0.98638 0.01073 0.0
O487 O 0.30436 0.9958 0.04056 0.0
O488 O 0.31288 0.99857 0.99965 0.0
C489 C 0.31727 1.00145 0.0235 0.0
C490 C 0.29396 0.96551 1.00435 0.0
C491 C 0.34278 1.00536 0.03007 0.0
C492 C 0.38872 1.00419 0.02951 0.0
C493 C 0.36494 0.99939 0.02509 0.0
C494 C 0.36819 0.02081 0.04393 0.0
C495 C 0.39063 0.01504 0.03873 0.0
C496 C 0.34469 0.016 0.03979 0.0
C497 C 0.22157 1.00223 1.00001 0.0
C498 C 0.21508 0.02116 0.98746 0.0
C499 C 0.17928 1.00895 0.99247 0.0
C500 C 0.19544 1.00056 0.99989 0.0
C501 C 0.18904 0.01916 0.98515 0.0
C502 C 0.23137 0.01268 0.99477 0.0
C503 C 0.23774 0.99252 1.00169 0.0
O504 O 0.29875 0.97293 0.98679 0.0
O505 O 0.28788 0.96976 0.02673 0.0
O506 O 0.24553 0.98961 0.02456 0.0
O507 O 0.2551 0.99158 0.98376 0.0
H508 H 0.24263 0.96496 0.99743 0.0
H509 H 0.21748 0.94982 0.98018 0.0
H510 H 0.28554 0.93048 0.9724 0.0
H511 H 0.31007 0.94542 0.99058 0.0
H512 H 0.40555 0.99943 0.02553 0.0
H513 H 0.36388 0.99116 0.01746 0.0
H514 H 0.36865 0.02922 0.05039 0.0
H515 H 0.32781 0.0208 0.04345 0.0
H516 H 0.22297 0.02897 0.98179 0.0
H517 H 0.15925 1.00727 0.99093 0.0
H518 H 0.18761 0.99255 1.00389 0.0
H519 H 0.25157 0.01409 0.9948 0.0
C520 C 0.98586 0.29794 0.77905 0.0
C521 C 0.99613 0.29341 0.75656 0.0
C522 C 0.99922 0.27572 0.77753 0.0
C523 C 1.00273 0.28236 0.75579 0.0
C524 C 0.99054 0.28051 0.80046 0.0
C525 C 0.98384 0.29155 0.80116 0.0
U526 U 0.97703 0.32541 0.74728 0.0
O527 O 0.94061 0.33282 0.73768 0.0
O528 O 0.96715 0.34172 0.76283 0.0
C529 C 0.94465 0.34143 0.75222 0.0
C530 C 0.97407 0.30877 0.7786 0.0
C531 C 0.93191 0.35164 0.74536 0.0
C532 C 0.89941 0.36476 0.75692 0.0
C533 C 0.91489 0.35598 0.76333 0.0
C534 C 0.91808 0.36517 0.71439 0.0
C535 C 0.90059 0.36933 0.73231 0.0
C536 C 0.93377 0.35635 0.72091 0.0
C537 C 0.02018 0.32835 0.68646 0.0
C538 C 0.0244 0.34312 0.65583 0.0
C539 C 0.03615 0.32461 0.64385 0.0
C540 C 0.03016 0.32105 0.66842 0.0
C541 C 0.03243 0.33561 0.63693 0.0
C542 C 0.01804 0.33948 0.68046 0.0
C543 C 0.01046 0.3237 0.71031 0.0
O544 O 0.98893 0.31719 0.7829 0.0
O545 O 0.95872 0.31023 0.75924 0.0
O546 O 0.98762 0.31954 0.70903 0.0
O547 O 0.015 0.32894 0.73184 0.0
H548 H 0.99785 0.29827 0.73927 0.0
H549 H 0.0097 0.27892 0.73797 0.0
H550 H 0.98744 0.27559 0.81744 0.0
H551 H 0.97585 0.29494 0.81859 0.0
H552 H 0.88582 0.36772 0.77089 0.0
H553 H 0.91288 0.35228 0.78212 0.0
H554 H 0.91931 0.36863 0.69532 0.0
H555 H 0.9467 0.35302 0.70676 0.0
H556 H 0.02177 0.35168 0.65121 0.0
H557 H 0.04185 0.31853 0.62987 0.0
H558 H 0.03198 0.31242 0.67288 0.0
H559 H 0.01052 0.34523 0.69434 0.0
C560 C 0.02985 0.09605 0.36795 0.0
C561 C 0.01575 0.08628 0.368 0.0
C562 C 0.03732 0.08016 0.40686 0.0
C563 C 0.01944 0.07841 0.3873 0.0
C564 C 0.05188 0.0898 0.40602 0.0
C565 C 0.0481 0.09764 0.38691 0.0
U566 U 0.00818 0.10669 0.30209 0.0
O567 O 0.98708 0.12159 0.29194 0.0
O568 O 0.02534 0.11893 0.27629 0.0
C569 C 1.00523 0.12523 0.27692 0.0
C570 C 0.02562 0.10486 0.34898 0.0
C571 C 0.00882 0.13712 0.27483 0.0
C572 C 0.01516 0.15536 0.29238 0.0
C573 C 0.01342 0.14397 0.29591 0.0
C574 C 0.00762 0.15299 0.24695 0.0
C575 C 0.01213 0.16 0.26779 0.0
C576 C 1.00617 0.14172 0.25044 0.0
C577 C 0.98184 0.08577 0.25363 0.0
C578 C 0.97129 0.08908 0.20892 0.0
C579 C 0.96203 0.07154 0.22845 0.0
C580 C 0.97198 0.07521 0.25155 0.0
C581 C 0.96182 0.07835 0.20675 0.0
C582 C 0.98132 0.09278 0.23227 0.0
C583 C 0.99269 0.08902 0.27835 0.0
O584 O 0.04023 0.10471 0.32853 0.0
O585 O 1.00197 0.10726 0.3438 0.0
O586 O 0.97803 0.09489 0.29339 0.0
O587 O 0.01627 0.09236 0.27792 0.0
H588 H 1.00165 0.08483 0.3534 0.0
H589 H 0.00783 0.07112 0.38725 0.0
H590 H 0.0663 0.09135 0.42021 0.0
H591 H 0.05934 0.10504 0.38711 0.0
H592 H 0.01889 0.16049 0.30886 0.0
H593 H 0.01546 0.14056 0.31494 0.0
H594 H 1.00453 0.15619 0.22787 0.0
H595 H 1.00238 0.13656 0.23399 0.0
H596 H 0.97135 0.09453 0.19254 0.0
H597 H 0.95429 0.06334 0.22768 0.0
H598 H 0.97205 0.06973 0.2679 0.0
H599 H 0.98878 0.10101 0.2336 0.0
C600 C 0.88133 0.82601 0.21424 0.0
C601 C 0.88107 0.83607 0.22737 0.0
C602 C 0.86604 0.8454 0.1888 0.0
C603 C 0.8734 0.84569 0.21476 0.0
C604 C 0.86601 0.83523 0.1761 0.0
C605 C 0.87361 0.8257 0.18864 0.0
U606 U 0.90941 0.8087 0.26953 0.0
O607 O 0.89959 0.79197 0.28197 0.0
O608 O 0.93797 0.79556 0.26749 0.0
C609 C 0.92254 0.78829 0.2775 0.0
C610 C 0.88996 0.8157 0.2262 0.0
C611 C 0.92645 0.77658 0.27189 0.0
C612 C 0.91959 0.75971 0.2479 0.0
C613 C 0.91573 0.77106 0.25094 0.0
C614 C 0.94505 0.75952 0.28634 0.0
C615 C 0.934 0.75379 0.2659 0.0
C616 C 0.94125 0.77073 0.28928 0.0
C617 C 0.92822 0.82282 0.33298 0.0
C618 C 0.94525 0.81382 0.3708 0.0
C619 C 0.94242 0.83359 0.36926 0.0
C620 C 0.93203 0.83297 0.34477 0.0
C621 C 0.9493 0.82406 0.38257 0.0
C622 C 0.93485 0.8132 0.34611 0.0
C623 C 0.91756 0.82266 0.30695 0.0
O624 O 0.91437 0.81484 0.23016 0.0
O625 O 0.87622 0.81188 0.24525 0.0
O626 O 0.89611 0.8174 0.30404 0.0
O627 O 0.93372 0.8209 0.28822 0.0
H628 H 0.88698 0.83649 0.2472 0.0
H629 H 0.87374 0.85337 0.22514 0.0
H630 H 0.85992 0.8346 0.15636 0.0
H631 H 0.87355 0.81803 0.17819 0.0
H632 H 0.91081 0.75554 0.23194 0.0
H633 H 0.90424 0.77546 0.23724 0.0
H634 H 0.9567 0.75534 0.30024 0.0
H635 H 0.94976 0.77483 0.30551 0.0
H636 H 0.95049 0.80632 0.38048 0.0
H637 H 0.94481 0.84159 0.3779 0.0
H638 H 0.92697 0.84046 0.33497 0.0
H639 H 0.93211 0.80527 0.33725 0.0
C640 C 0.25529 0.35321 0.93205 0.0
C641 C 0.27961 0.35767 0.93437 0.0
C642 C 0.26987 0.37089 0.90104 0.0
C643 C 0.28687 0.36647 0.91892 0.0
C644 C 0.24508 0.36679 0.90007 0.0
C645 C 0.23791 0.35798 0.91539 0.0
U646 U 0.26752 0.3302 0.97975 0.0
O647 O 0.24062 0.31913 0.9993 0.0
O648 O 0.26707 0.31281 0.96988 0.0
C649 C 0.24831 0.31068 0.9857 0.0
C650 C 0.24879 0.34278 0.94402 0.0
C651 C 0.24759 0.29976 0.99709 0.0
C652 C 0.22433 0.28273 0.99979 0.0
C653 C 0.22499 0.29392 0.99488 0.0
C654 C 0.26864 0.28324 0.01126 0.0
C655 C 0.2463 0.27716 0.00737 0.0
C656 C 0.26935 0.29446 1.00589 0.0
C657 C 0.32707 0.33537 0.02297 0.0
C658 C 0.36156 0.32354 0.03546 0.0
C659 C 0.36519 0.34318 0.04062 0.0
C660 C 0.34056 0.34444 0.03189 0.0
C661 C 0.37658 0.33279 0.04075 0.0
C662 C 0.33698 0.32483 0.02625 0.0
C663 C 0.30664 0.33754 1.0049 0.0
O664 O 0.26509 0.33492 0.93947 0.0
O665 O 0.24087 0.34311 0.96793 0.0
O666 O 0.28344 0.33852 0.01372 0.0
O667 O 0.30829 0.33251 0.98268 0.0
H668 H 0.29331 0.35401 0.94714 0.0
H669 H 0.30613 0.36942 0.92002 0.0
H670 H 0.23143 0.37016 0.88685 0.0
H671 H 0.21911 0.35459 0.91339 0.0
H672 H 0.2069 0.27839 0.99613 0.0
H673 H 0.20811 0.29788 0.98773 0.0
H674 H 0.28579 0.27927 0.01761 0.0
H675 H 0.28703 0.29887 0.00754 0.0
H676 H 0.36954 0.31538 0.03616 0.0
H677 H 0.37599 0.35052 0.04444 0.0
H678 H 0.33313 0.35264 0.02945 0.0
H679 H 0.32667 0.31773 0.01959 0.0
C680 C 0.7755 0.77756 0.92912 0.0
C681 C 0.75468 0.77451 0.94432 0.0
C682 C 0.76663 0.75523 0.94088 0.0
C683 C 0.75034 0.76347 0.95022 0.0
C684 C 0.78728 0.75839 0.92542 0.0
C685 C 0.79168 0.76942 0.9197 0.0
U686 U 0.75317 0.807 0.92767 0.0
O687 O 0.77231 0.82255 0.93662 0.0
O688 O 0.75585 0.81995 0.89841 0.0
C689 C 0.76812 0.82663 0.91371 0.0
C690 C 0.78038 0.78916 0.9228 0.0
C691 C 0.78772 0.83364 0.90211 0.0
C692 C 0.83115 0.83826 0.89086 0.0
C693 C 0.81348 0.83087 0.90129 0.0
C694 C 0.79741 0.85111 0.88222 0.0
C695 C 0.82324 0.84848 0.88113 0.0
C696 C 0.77995 0.84377 0.89246 0.0
C697 C 0.68443 0.80998 0.95498 0.0
C698 C 0.65672 0.82582 0.95844 0.0
C699 C 0.64319 0.80817 0.97469 0.0
C700 C 0.66595 0.80357 0.96687 0.0
C701 C 0.63836 0.81935 0.97085 0.0
C702 C 0.6798 0.82116 0.95063 0.0
C703 C 0.70791 0.80445 0.94741 0.0
O704 O 0.76667 0.7932 0.90412 0.0
O705 O 0.78221 0.79582 0.94252 0.0
O706 O 0.72801 0.80642 0.96134 0.0
O707 O 0.71266 0.8037 0.92275 0.0
H708 H 0.74185 0.78067 0.95173 0.0
H709 H 0.73442 0.76143 0.96242 0.0
H710 H 0.79997 0.75233 0.91739 0.0
H711 H 0.80772 0.7716 0.90779 0.0
H712 H 0.85088 0.83595 0.89018 0.0
H713 H 0.81989 0.82309 0.90874 0.0
H714 H 0.79063 0.85896 0.87554 0.0
H715 H 0.7602 0.84611 0.89317 0.0
H716 H 0.65336 0.83445 0.95518 0.0
H717 H 0.6292 0.80293 0.98362 0.0
H718 H 0.66913 0.79492 0.97012 0.0
H719 H 0.69392 0.82622 0.94133 0.0
C720 C 0.36435 0.46785 0.68408 0.0
C721 C 0.38208 0.46372 0.70138 0.0
C722 C 0.35187 0.45 0.71562 0.0
C723 C 0.37589 0.45488 0.71709 0.0
C724 C 0.33442 0.45399 0.69762 0.0
C725 C 0.3406 0.4629 0.68204 0.0
U726 U 0.37899 0.4951 0.64211 0.0
O727 O 0.37055 0.4936 0.60047 0.0
O728 O 0.34532 0.50308 0.62654 0.0
C729 C 0.34981 0.49944 0.60326 0.0
C730 C 0.37031 0.47767 0.6693 0.0
C731 C 0.33316 0.50252 0.58187 0.0
C732 C 0.30777 0.49764 0.54469 0.0
C733 C 0.32586 0.49486 0.56322 0.0
C734 C 0.30479 0.5158 0.56295 0.0
C735 C 0.29669 0.50813 0.54456 0.0
C736 C 0.32273 0.51303 0.58131 0.0
C737 C 0.43501 0.51593 0.66523 0.0
C738 C 0.44807 0.53285 0.68606 0.0
C739 C 0.47906 0.519 0.67611 0.0
C740 C 0.46026 0.51252 0.665 0.0
C741 C 0.47337 0.52918 0.68763 0.0
C742 C 0.42915 0.52623 0.6755 0.0
C743 C 0.41476 0.50839 0.65686 0.0
O744 O 0.35881 0.48699 0.67385 0.0
O745 O 0.38631 0.47759 0.64996 0.0
O746 O 0.41889 0.5004 0.64043 0.0
O747 O 0.39126 0.50941 0.66476 0.0
H748 H 0.40049 0.46752 0.70318 0.0
H749 H 0.38985 0.45191 0.73052 0.0
H750 H 0.3157 0.45048 0.69619 0.0
H751 H 0.32673 0.46603 0.66872 0.0
H752 H 0.3019 0.49148 0.53103 0.0
H753 H 0.33347 0.48663 0.56352 0.0
H754 H 0.29714 0.52396 0.5635 0.0
H755 H 0.32815 0.5191 0.59541 0.0
H756 H 0.44242 0.54073 0.69351 0.0
H757 H 0.49779 0.51565 0.67645 0.0
H758 H 0.46538 0.50458 0.65728 0.0
H759 H 0.40981 0.52912 0.67578 0.0
C760 C 0.78268 0.30137 0.02627 0.0
C761 C 0.76463 0.29739 0.00902 0.0
C762 C 0.78226 0.27907 0.01314 0.0
C763 C 0.76453 0.28631 1.00235 0.0
C764 C 0.80077 0.28328 0.02973 0.0
C765 C 0.80098 0.29434 0.03615 0.0
U766 U 0.74794 0.32834 0.03352 0.0
O767 O 0.73866 0.33608 0.07034 0.0
O768 O 0.76213 0.34498 0.04177 0.0
C769 C 0.75253 0.34472 0.06508 0.0
C770 C 0.78055 0.31234 0.03705 0.0
C771 C 0.74828 0.35478 0.07952 0.0
C772 C 0.76074 0.36587 0.1158 0.0
C773 C 0.76523 0.35715 0.09926 0.0
C774 C 0.72257 0.37026 0.09239 0.0
C775 C 0.73913 0.3724 0.11289 0.0
C776 C 0.72705 0.36142 0.07583 0.0
C777 C 0.68658 0.33059 0.99297 0.0
C778 C 0.65563 0.34519 0.99251 0.0
C779 C 0.64425 0.32701 0.97791 0.0
C780 C 0.66878 0.32347 0.98242 0.0
C781 C 0.63711 0.33782 0.98372 0.0
C782 C 0.68023 0.34157 0.99736 0.0
C783 C 0.71054 0.32588 1.00129 0.0
O784 O 0.78352 0.32057 0.02109 0.0
O785 O 0.76122 0.31352 0.05262 0.0
O786 O 0.71041 0.32185 0.02463 0.0
O787 O 0.73141 0.33118 0.9954 0.0
H788 H 0.75011 0.30274 1.00153 0.0
H789 H 0.75018 0.28338 0.98931 0.0
H790 H 0.81435 0.27796 0.0389 0.0
H791 H 0.81472 0.29729 0.04985 0.0
H792 H 0.77399 0.3674 0.13115 0.0
H793 H 0.78165 0.35203 0.10238 0.0
H794 H 0.70568 0.37513 0.08981 0.0
H795 H 0.71371 0.35961 0.06073 0.0
H796 H 0.65082 0.35361 0.99681 0.0
H797 H 0.63055 0.32102 0.97162 0.0
H798 H 0.67346 0.31495 0.979 0.0
H799 H 0.69388 0.34718 1.00547 0.0
C800 C 0.32678 0.61989 1.00001 0.0
C801 C 0.31783 0.62116 0.02528 0.0
C802 C 0.30739 0.64041 0.01687 0.0
C803 C 0.30817 0.63132 0.03362 0.0
C804 C 0.31668 0.63899 0.99173 0.0
C805 C 0.32606 0.62889 0.98346 0.0
U806 U 0.3573 0.59095 1.00599 0.0
O807 O 0.35099 0.57608 0.98254 0.0
O808 O 0.38838 0.58394 0.98298 0.0
C809 C 0.37454 0.57581 0.9744 0.0
C810 C 0.33721 0.60945 0.98995 0.0
C811 C 0.38029 0.57126 0.9486 0.0
C812 C 0.38921 0.57277 0.90267 0.0
C813 C 0.381 0.57754 0.92597 0.0
C814 C 0.3952 0.55546 0.92429 0.0
C815 C 0.39656 0.56168 0.90175 0.0
C816 C 0.38728 0.5602 0.94736 0.0
C817 C 0.36921 0.58063 0.07687 0.0
C818 C 0.39925 0.56808 0.09661 0.0
C819 C 0.36666 0.57661 0.12245 0.0
C820 C 0.3574 0.58192 0.10075 0.0
C821 C 0.38823 0.5699 0.12095 0.0
C822 C 0.38987 0.57344 0.07473 0.0
C823 C 0.36087 0.58787 0.0558 0.0
O824 O 0.36162 0.60798 0.99275 0.0
O825 O 0.32399 0.60049 0.99395 0.0
O826 O 0.34109 0.58486 0.04241 0.0
O827 O 0.37841 0.59272 0.04199 0.0
H828 H 0.31827 0.61433 0.03851 0.0
H829 H 0.30111 0.63201 0.05307 0.0
H830 H 0.31722 0.64575 0.97835 0.0
H831 H 0.33299 0.62814 0.96396 0.0
H832 H 0.39005 0.57774 0.8855 0.0
H833 H 0.37574 0.5861 0.92639 0.0
H834 H 0.40107 0.54697 0.92424 0.0
H835 H 0.38722 0.55523 0.96456 0.0
H836 H 0.41583 0.56296 0.09465 0.0
H837 H 0.3572 0.57801 0.14061 0.0
H838 H 0.34143 0.5874 0.10287 0.0
H839 H 0.39926 0.57229 0.05644 0.0
C840 C 0.24648 0.77617 0.08679 0.0
C841 C 0.26424 0.77292 0.06815 0.0
C842 C 0.25487 0.75366 0.07658 0.0
C843 C 0.26831 0.76178 0.06301 0.0
C844 C 0.23734 0.757 0.0954 0.0
C845 C 0.23322 0.76812 0.10043 0.0
U846 U 0.26929 0.80564 0.08834 0.0
O847 O 0.25071 0.82129 0.07929 0.0
O848 O 0.26597 0.81846 0.11791 0.0
C849 C 0.25439 0.82527 0.1024 0.0
C850 C 0.24184 0.78785 0.09262 0.0
C851 C 0.23465 0.83238 0.11339 0.0
C852 C 0.19197 0.83626 0.12851 0.0
C853 C 0.20997 0.82882 0.11888 0.0
C854 C 0.22335 0.85067 0.12751 0.0
C855 C 0.19844 0.84733 0.13263 0.0
C856 C 0.24113 0.8433 0.11797 0.0
C857 C 0.33872 0.80876 0.06337 0.0
C858 C 0.36403 0.82491 0.05388 0.0
C859 C 0.38344 0.80695 0.05453 0.0
C860 C 0.36025 0.80225 0.06048 0.0
C861 C 0.38568 0.81831 0.05132 0.0
C862 C 0.34059 0.82016 0.06008 0.0
C863 C 0.31498 0.80313 0.06955 0.0
O864 O 0.25512 0.79189 0.11162 0.0
O865 O 0.24058 0.79447 0.07278 0.0
O866 O 0.29524 0.8053 0.05524 0.0
O867 O 0.30956 0.80204 0.094 0.0
H868 H 0.27499 0.77898 0.0576 0.0
H869 H 0.28222 0.75951 0.04866 0.0
H870 H 0.22647 0.75102 0.10605 0.0
H871 H 0.21957 0.77043 0.11498 0.0
H872 H 0.17293 0.83341 0.13221 0.0
H873 H 0.20462 0.82039 0.11549 0.0
H874 H 0.22925 0.85903 0.13098 0.0
H875 H 0.2601 0.84619 0.11397 0.0
H876 H 0.36533 0.8337 0.05143 0.0
H877 H 0.39969 0.80164 0.05216 0.0
H878 H 0.3591 0.79345 0.06277 0.0
H879 H 0.32408 0.82532 0.06226 0.0
C880 C 0.64009 0.58005 0.0747 0.0
C881 C 0.622 0.57229 0.06714 0.0
C882 C 0.61892 0.56532 0.11115 0.0
C883 C 0.61152 0.56501 0.08517 0.0
C884 C 0.63758 0.57294 0.11829 0.0
C885 C 0.64793 0.58021 0.10033 0.0
U886 U 0.65356 0.59193 0.00698 0.0
O887 O 0.65069 0.60892 0.99336 0.0
O888 O 0.68742 0.60052 0.99224 0.0
C889 C 0.67484 0.60957 0.98755 0.0
C890 C 0.65035 0.58837 0.05674 0.0
C891 C 0.6878 0.62018 0.99151 0.0
C892 C 0.68899 0.63876 0.00853 0.0
C893 C 0.67901 0.62811 0.00895 0.0
C894 C 0.71727 0.63359 0.97403 0.0
C895 C 0.70781 0.64172 0.99058 0.0
C896 C 0.70741 0.62298 0.97455 0.0
C897 C 0.63122 0.57548 0.9473 0.0
C898 C 0.61779 0.58141 0.90491 0.0
C899 C 0.62599 0.56222 0.91291 0.0
C900 C 0.63248 0.56469 0.93821 0.0
C901 C 0.61798 0.57051 0.89612 0.0
C902 C 0.62444 0.58389 0.93027 0.0
C903 C 0.63474 0.57743 0.97505 0.0
O904 O 0.66995 0.58545 0.04276 0.0
O905 O 0.63368 0.59409 0.0438 0.0
O906 O 0.62138 0.58537 0.98542 0.0
O907 O 0.65797 0.57693 0.98374 0.0
H908 H 0.61565 0.57199 0.04744 0.0
H909 H 0.59707 0.55937 0.07884 0.0
H910 H 0.64424 0.57334 0.13786 0.0
H911 H 0.66193 0.58609 0.10658 0.0
H912 H 0.68154 0.64475 0.02187 0.0
H913 H 0.66387 0.62619 0.02224 0.0
H914 H 0.73146 0.63554 0.95973 0.0
H915 H 0.71429 0.61706 0.9607 0.0
H916 H 0.61205 0.58799 0.89231 0.0
H917 H 0.62612 0.55374 0.90687 0.0
H918 H 0.63759 0.55808 0.95102 0.0
H919 H 0.62352 0.5923 0.93675 0.0
C920 C 0.65747 0.46937 0.33739 0.0
C921 C 0.64278 0.46882 0.31509 0.0
C922 C 0.66584 0.45241 0.30144 0.0
C923 C 0.64687 0.46035 0.29726 0.0
C924 C 0.68006 0.45303 0.32408 0.0
C925 C 0.67579 0.46135 0.34181 0.0
U926 U 0.63801 0.49672 0.37485 0.0
O927 O 0.64143 0.49849 0.41685 0.0
O928 O 0.66679 0.50761 0.39112 0.0
C929 C 0.66055 0.50531 0.4149 0.0
C930 C 0.65615 0.47843 0.35592 0.0
C931 C 0.6811 0.50442 0.4339 0.0
C932 C 0.72574 0.50334 0.44514 0.0
C933 C 0.70621 0.50186 0.42723 0.0
C934 C 0.69508 0.50904 0.47682 0.0
C935 C 0.72045 0.50726 0.47002 0.0
C936 C 0.67576 0.50777 0.45898 0.0
C937 C 0.57969 0.51429 0.34409 0.0
C938 C 0.56694 0.53089 0.32187 0.0
C939 C 0.53518 0.518 0.33595 0.0
C940 C 0.55414 0.51135 0.34644 0.0
C941 C 0.54135 0.52772 0.32267 0.0
C942 C 0.58578 0.52425 0.33222 0.0
C943 C 0.59999 0.50748 0.35539 0.0
O944 O 0.66376 0.48815 0.34841 0.0
O945 O 0.63774 0.47864 0.37293 0.0
O946 O 0.62352 0.50882 0.34785 0.0
O947 O 0.59642 0.49973 0.37255 0.0
H948 H 0.62855 0.47497 0.31132 0.0
H949 H 0.63535 0.46007 0.28018 0.0
H950 H 0.6952 0.44731 0.32783 0.0
H951 H 0.68746 0.4617 0.35881 0.0
H952 H 0.74505 0.50172 0.43933 0.0
H953 H 0.71086 0.49918 0.40798 0.0
H954 H 0.69002 0.512 0.49547 0.0
H955 H 0.65663 0.50992 0.46452 0.0
H956 H 0.57265 0.53852 0.31308 0.0
H957 H 0.51582 0.51525 0.33754 0.0
H958 H 0.54881 0.50385 0.35612 0.0
H959 H 0.60522 0.52697 0.33095 0.0
H960 H 0.31349 0.53041 0.51287 0.0
H961 H 0.28381 0.5386 0.54287 0.0
H962 H 0.25281 0.55825 0.48247 0.0
H963 H 0.27962 0.54925 0.45175 0.0
H964 H 0.26885 0.5534 0.56554 0.0
H965 H 0.20896 0.55765 0.48659 0.0
H966 H 0.1885 0.54748 0.49996 0.0
H967 H 0.21985 0.54379 0.49058 0.0
C968 C 0.29984 0.53618 0.50552 0.0
C969 C 0.29862 0.53859 0.4791 0.0
C970 C 0.28294 0.54102 0.52304 0.0
C971 C 0.26427 0.54842 0.51495 0.0
C972 C 0.26527 0.55188 0.48927 0.0
H973 H 0.14551 0.58489 0.59079 0.0
H974 H 0.18412 0.57922 0.56882 0.0
C975 C 0.28152 0.54685 0.47156 0.0
C976 C 0.24366 0.55221 0.53309 0.0
H977 H 0.18042 0.55821 0.537 0.0
C978 C 0.24953 0.55426 0.55909 0.0
C979 C 0.21794 0.55337 0.52545 0.0
C980 C 0.20841 0.55035 0.4992 0.0
C981 C 0.2309 0.55749 0.57702 0.0
C982 C 0.20587 0.55916 0.56873 0.0
C983 C 0.19982 0.5571 0.54313 0.0
C984 C 0.18535 0.56314 0.58593 0.0
C985 C 0.23798 0.55921 0.60468 0.0
C986 C 0.17345 0.55605 0.60333 0.0
C987 C 0.15136 0.5593 0.61622 0.0
C988 C 0.14045 0.56967 0.61171 0.0
C989 C 0.15325 0.57691 0.59512 0.0
C990 C 0.17536 0.57366 0.58237 0.0
H991 H 0.25858 0.55822 0.60792 0.0
H992 H 0.23213 0.56751 0.61101 0.0
H993 H 0.22774 0.5532 0.61683 0.0
H994 H 0.18063 0.54784 0.60614 0.0
H995 H 0.14246 0.55353 0.62916 0.0
H996 H 0.17184 0.08933 0.08508 0.0
H997 H 0.14032 0.07817 0.10706 0.0
H998 H 0.14778 0.05332 0.04865 0.0
H999 H 0.18003 0.06443 0.02682 0.0
H1000 H 0.09494 0.07119 0.09148 0.0
H1001 H 0.15704 0.03573 0.11312 0.0
H1002 H 0.16926 0.0485 0.10104 0.0
H1003 H 0.15475 0.03886 0.07961 0.0
C1004 C 0.16681 0.08147 0.07697 0.0
C1005 C 0.17832 0.07771 0.0543 0.0
C1006 C 0.14878 0.07512 0.0895 0.0
C1007 C 0.14185 0.0649 0.07961 0.0
C1008 C 0.15323 0.0611 0.05687 0.0
H1009 H 0.03663 0.01708 0.13935 0.0
H1010 H 0.05878 0.02943 0.11011 0.0
C1011 C 0.17159 0.06743 0.04442 0.0
C1012 C 0.12275 0.05831 0.09344 0.0
H1013 H 0.11406 0.03414 0.12491 0.0
C1014 C 0.09909 0.06307 0.09872 0.0
C1015 C 0.12829 0.04775 0.10299 0.0
C1016 C 0.15378 0.04243 0.09914 0.0
C1017 C 0.08092 0.05757 0.11351 0.0
C1018 C 0.08657 0.04708 0.12302 0.0
C1019 C 0.10992 0.04221 0.11737 0.0
C1020 C 0.06893 0.04102 0.13961 0.0
C1021 C 0.05584 0.06296 0.11904 0.0
C1022 C 0.06669 0.04372 0.16566 0.0
C1023 C 0.05435 0.0366 0.18253 0.0
C1024 C 0.04423 0.02671 0.17345 0.0
C1025 C 0.04466 0.02456 0.14694 0.0
C1026 C 0.05716 0.03161 0.13019 0.0
H1027 H 0.05318 0.07056 0.10771 0.0
H1028 H 0.04016 0.05721 0.11477 0.0
H1029 H 0.05467 0.06504 0.13972 0.0
H1030 H 0.07589 0.05096 0.17317 0.0
H1031 H 0.05443 0.03844 0.20284 0.0
H1032 H 0.73996 0.54741 0.56011 0.0
H1033 H 0.76769 0.55487 0.52746 0.0
H1034 H 0.72632 0.53743 0.46922 0.0
H1035 H 0.69699 0.53084 0.50166 0.0
H1036 H 0.79955 0.5459 0.50251 0.0
H1037 H 0.73771 0.56262 0.42707 0.0
H1038 H 0.72526 0.55847 0.45775 0.0
H1039 H 0.73054 0.54852 0.43267 0.0
C1040 C 0.73608 0.5454 0.54033 0.0
C1041 C 0.71636 0.53816 0.53393 0.0
C1042 C 0.75231 0.54963 0.52146 0.0
C1043 C 0.74952 0.54681 0.49543 0.0
C1044 C 0.72901 0.54005 0.48882 0.0
H1045 H 0.87256 0.5521 0.37856 0.0
H1046 H 0.83488 0.54523 0.40163 0.0
C1047 C 0.71251 0.53595 0.50769 0.0
C1048 C 0.76963 0.54998 0.47619 0.0
H1049 H 0.78094 0.55975 0.41543 0.0
C1050 C 0.79508 0.54885 0.48349 0.0
C1051 C 0.76451 0.55391 0.45104 0.0
C1052 C 0.73802 0.55605 0.44179 0.0
C1053 C 0.81512 0.55112 0.46662 0.0
C1054 C 0.81003 0.55522 0.44196 0.0
C1055 C 0.7848 0.55645 0.43431 0.0
C1056 C 0.8309 0.55956 0.42569 0.0
C1057 C 0.84174 0.54917 0.47566 0.0
C1058 C 0.84127 0.56977 0.4318 0.0
C1059 C 0.86264 0.57364 0.41891 0.0
C1060 C 0.87437 0.56737 0.39959 0.0
C1061 C 0.86405 0.55708 0.39344 0.0
C1062 C 0.84236 0.55322 0.40633 0.0
H1063 H 0.84236 0.5417 0.48762 0.0
H1064 H 0.85538 0.54809 0.45965 0.0
H1065 H 0.84786 0.5562 0.48757 0.0
H1066 H 0.83306 0.57469 0.44699 0.0
H1067 H 0.87026 0.58153 0.42434 0.0
H1068 H 0.8253 0.06402 0.98132 0.0
H1069 H 0.85568 0.05211 0.95905 0.0
H1070 H 0.88194 0.07967 0.91468 0.0
H1071 H 0.85195 0.09154 0.93679 0.0
H1072 H 0.85891 0.0478 0.90765 0.0
H1073 H 0.94782 0.06708 0.94041 0.0
H1074 H 0.91772 0.06976 0.95559 0.0
H1075 H 0.92638 0.07672 0.92644 0.0
C1076 C 0.83761 0.06751 0.96685 0.0
C1077 C 0.83651 0.07872 0.96102 0.0
C1078 C 0.85501 0.06074 0.95427 0.0
C1079 C 0.87149 0.06509 0.93573 0.0
C1080 C 0.87001 0.07623 0.92954 0.0
H1081 H 0.96635 0.04266 0.81487 0.0
H1082 H 0.94267 0.05291 0.84709 0.0
C1083 C 0.85279 0.08298 0.94213 0.0
C1084 C 0.88918 0.05793 0.92156 0.0
H1085 H 0.95102 0.05524 0.90376 0.0
C1086 C 0.87911 0.04929 0.90716 0.0
C1087 C 0.9155 0.05997 0.92087 0.0
C1088 C 0.92753 0.06882 0.93686 0.0
C1089 C 0.89454 0.04287 0.89127 0.0
C1090 C 0.9207 0.04509 0.89009 0.0
C1091 C 0.93092 0.05357 0.90486 0.0
C1092 C 0.93739 0.03907 0.87235 0.0
C1093 C 0.88267 0.03405 0.87503 0.0
C1094 C 0.94271 0.02797 0.87633 0.0
C1095 C 0.95647 0.02207 0.85804 0.0
C1096 C 0.96508 0.02722 0.83552 0.0
C1097 C 0.96037 0.03846 0.83214 0.0
C1098 C 0.94673 0.04434 0.85046 0.0
H1099 H 0.86171 0.03449 0.87528 0.0
H1100 H 0.88935 0.0347 0.85487 0.0
H1101 H 0.88842 0.02591 0.88238 0.0
H1102 H 0.93578 0.02383 0.89332 0.0
H1103 H 0.96009 0.01347 0.86138 0.0
H1104 H 0.04534 0.08855 0.8679 0.0
H1105 H 0.06987 0.07823 0.899 0.0
H1106 H 0.08941 0.05468 0.84055 0.0
H1107 H 0.06639 0.0654 0.80877 0.0
H1108 H 0.06781 0.05823 0.91778 0.0
H1109 H 0.15817 0.06328 0.86509 0.0
H1110 H 0.1299 0.07057 0.85627 0.0
H1111 H 0.13464 0.05663 0.84601 0.0
C1112 C 0.05506 0.08123 0.86153 0.0
C1113 C 0.05441 0.07797 0.83564 0.0
C1114 C 0.0689 0.07529 0.87942 0.0
C1115 C 0.0821 0.06587 0.87192 0.0
C1116 C 0.08004 0.06213 0.84654 0.0
H1117 H 0.16155 0.01464 0.94324 0.0
H1118 H 0.13522 0.02709 0.91837 0.0
C1119 C 0.06652 0.06818 0.82848 0.0
C1120 C 0.09832 0.06011 0.89059 0.0
H1121 H 0.15805 0.05035 0.89945 0.0
C1122 C 0.08761 0.05662 0.91389 0.0
C1123 C 0.12429 0.0582 0.8857 0.0
C1124 C 0.13749 0.06247 0.86203 0.0
C1125 C 0.10195 0.05082 0.9319 0.0
C1126 C 0.12745 0.04846 0.92632 0.0
C1127 C 0.1384 0.05222 0.9035 0.0
C1128 C 0.14238 0.0411 0.94257 0.0
C1129 C 0.08975 0.04694 0.95644 0.0
C1130 C 0.1551 0.04497 0.96431 0.0
C1131 C 0.17037 0.03787 0.97852 0.0
C1132 C 0.17267 0.02685 0.97118 0.0
C1133 C 0.1597 0.02306 0.9495 0.0
C1134 C 0.14476 0.03014 0.93527 0.0
H1135 H 0.06958 0.04939 0.95786 0.0
H1136 H 0.09103 0.03789 0.95769 0.0
H1137 H 0.10008 0.05037 0.97309 0.0
H1138 H 0.15346 0.05347 0.97002 0.0
H1139 H 0.18027 0.04094 0.99517 0.0
H1140 H 0.96868 0.35147 0.40324 0.0
H1141 H 0.97643 0.35268 0.44957 0.0
H1142 H 0.9974 0.31855 0.45071 0.0
H1143 H 0.98895 0.31724 0.40487 0.0
H1144 H 0.97079 0.32491 0.49392 0.0
H1145 H 0.05046 0.35308 0.47204 0.0
H1146 H 0.02035 0.35757 0.46031 0.0
H1147 H 0.03439 0.3453 0.44764 0.0
C1148 C 0.97436 0.34421 0.41362 0.0
C1149 C 0.97831 0.33429 0.4007 0.0
C1150 C 0.97891 0.3449 0.43989 0.0
C1151 C 0.98807 0.33576 0.45322 0.0
C1152 C 0.99042 0.32569 0.44065 0.0
H1153 H 0.06432 0.3283 0.59869 0.0
H1154 H 0.05555 0.32888 0.55267 0.0
C1155 C 0.98551 0.32495 0.41455 0.0
C1156 C 0.99726 0.33685 0.47964 0.0
H1157 H 0.04161 0.34982 0.51596 0.0
C1158 C 0.9862 0.33037 0.49879 0.0
C1159 C 0.01791 0.34375 0.48561 0.0
C1160 C 0.03168 0.35025 0.46531 0.0
C1161 C 0.99482 0.33087 0.52406 0.0
C1162 C 0.01469 0.33811 0.53015 0.0
C1163 C 0.02617 0.34439 0.511 0.0
C1164 C 0.02302 0.33944 0.55669 0.0
C1165 C 0.98282 0.32364 0.54418 0.0
C1166 C 0.00827 0.34562 0.57361 0.0
C1167 C 0.01289 0.34519 0.59981 0.0
C1168 C 0.03245 0.33859 0.6094 0.0
C1169 C 0.04878 0.33328 0.59196 0.0
C1170 C 0.04393 0.33363 0.56571 0.0
H1171 H 0.96914 0.31776 0.53582 0.0
H1172 H 0.99763 0.31899 0.55452 0.0
H1173 H 0.97274 0.32879 0.55847 0.0
H1174 H 0.99212 0.35018 0.56669 0.0
H1175 H 0.99977 0.34931 0.61253 0.0
H1176 H 0.82108 0.03836 0.02619 0.0
H1177 H 0.84733 0.0514 0.05003 0.0
H1178 H 0.89068 0.02464 0.08091 0.0
H1179 H 0.86469 0.01165 0.0575 0.0
H1180 H 0.85206 0.05146 0.1037 0.0
H1181 H 0.94567 0.04589 0.05743 0.0
H1182 H 0.91655 0.04175 0.04231 0.0
H1183 H 0.9307 0.03329 0.06652 0.0
C1184 C 0.83639 0.03529 0.03785 0.0
C1185 C 0.84098 0.02398 0.03974 0.0
C1186 C 0.8514 0.04273 0.05133 0.0
C1187 C 0.87123 0.03898 0.06678 0.0
C1188 C 0.87598 0.02772 0.06847 0.0
H1189 H 0.96927 0.05814 0.18589 0.0
H1190 H 0.94743 0.05001 0.14958 0.0
C1191 C 0.86107 0.02031 0.05505 0.0
C1192 C 0.88557 0.04663 0.08312 0.0
H1193 H 0.94542 0.0544 0.0988 0.0
C1194 C 0.87242 0.05231 0.10237 0.0
C1195 C 0.91212 0.04758 0.08141 0.0
C1196 C 0.92709 0.04188 0.06066 0.0
C1197 C 0.88527 0.05848 0.12085 0.0
C1198 C 0.91193 0.05924 0.11952 0.0
C1199 C 0.92498 0.05386 0.09969 0.0
C1200 C 0.92676 0.0647 0.13986 0.0
C1201 C 0.87025 0.0636 0.14243 0.0
C1202 C 0.92303 0.07578 0.14596 0.0
C1203 C 0.93522 0.08043 0.1671 0.0
C1204 C 0.95146 0.07407 0.18229 0.0
C1205 C 0.95637 0.06319 0.175 0.0
C1206 C 0.94407 0.05854 0.1541 0.0
H1207 H 0.8509 0.06013 0.14386 0.0
H1208 H 0.87986 0.0624 0.1611 0.0
H1209 H 0.86848 0.07252 0.13896 0.0
H1210 H 0.9102 0.08075 0.1348 0.0
H1211 H 0.9311 0.08885 0.17215 0.0
H1212 H 0.06193 0.83662 0.60405 0.0
H1213 H 0.04649 0.84035 0.56041 0.0
H1214 H 0.98586 0.81728 0.5721 0.0
H1215 H 1.0008 0.81373 0.6154 0.0
H1216 H 0.04274 0.82493 0.52146 0.0
H1217 H 0.94882 0.84293 0.54077 0.0
H1218 H 0.97311 0.84216 0.56489 0.0
H1219 H 0.95337 0.83049 0.55835 0.0
C1220 C 0.04494 0.83259 0.59744 0.0
C1221 C 0.03255 0.82489 0.61303 0.0
C1222 C 0.03624 0.83467 0.57252 0.0
C1223 C 0.01483 0.82919 0.56312 0.0
C1224 C 1.00206 0.82178 0.57908 0.0
H1225 H 0.93919 0.81153 0.42511 0.0
H1226 H 0.9565 0.81372 0.46836 0.0
C1227 C 0.01074 0.8197 0.60377 0.0
C1228 C 1.00674 0.83038 0.53605 0.0
H1229 H 0.95441 0.83448 0.49923 0.0
C1230 C 0.02359 0.82724 0.51651 0.0
C1231 C 0.98176 0.8334 0.52962 0.0
C1232 C 0.96332 0.83754 0.54951 0.0
C1233 C 0.01566 0.82645 0.49089 0.0
C1234 C 0.99029 0.82888 0.48476 0.0
C1235 C 0.97375 0.83246 0.50409 0.0
C1236 C 0.98037 0.82746 0.45846 0.0
C1237 C 0.0341 0.82258 0.47071 0.0
C1238 C 0.98813 0.83445 0.43866 0.0
C1239 C 0.97838 0.83319 0.41397 0.0
C1240 C 0.96059 0.82494 0.4086 0.0
C1241 C 0.95304 0.81788 0.4285 0.0
C1242 C 0.96275 0.81917 0.45324 0.0
H1243 H 0.05204 0.81958 0.47915 0.0
H1244 H 0.02561 0.81592 0.45911 0.0
H1245 H 0.0386 0.82945 0.45755 0.0
H1246 H 1.00155 0.84094 0.44236 0.0
H1247 H 0.98481 0.8387 0.39905 0.0
H1248 H 0.41099 0.34506 0.06806 0.0
H1249 H 0.45602 0.347 0.05804 0.0
H1250 H 0.4507 0.32084 1.00295 0.0
H1251 H 0.40578 0.31911 0.0117 0.0
H1252 H 0.49749 0.32434 0.04699 0.0
H1253 H 0.4736 0.35563 0.97304 0.0
H1254 H 0.45669 0.3553 1.00319 0.0
H1255 H 0.45225 0.34453 0.98037 0.0
C1256 C 0.41944 0.33959 0.0541 0.0
C1257 C 0.40458 0.33199 0.04054 0.0
C1258 C 0.44512 0.34072 0.04847 0.0
C1259 C 0.45627 0.33415 0.02959 0.0
C1260 C 0.44216 0.32599 0.01754 0.0
H1261 H 0.59934 0.33129 0.95096 0.0
H1262 H 0.55405 0.33145 0.96056 0.0
C1263 C 0.4165 0.32493 0.02289 0.0
C1264 C 0.48221 0.33623 0.02098 0.0
H1265 H 0.51656 0.35094 0.97752 0.0
C1266 C 0.50178 0.3302 0.03196 0.0
C1267 C 0.48732 0.34375 1.00105 0.0
C1268 C 0.46646 0.35021 0.98856 0.0
C1269 C 0.52671 0.33155 0.02354 0.0
C1270 C 0.53191 0.3392 1.00388 0.0
C1271 C 0.51229 0.34516 0.9927 0.0
C1272 C 0.55792 0.34106 0.99513 0.0
C1273 C 0.54734 0.32472 0.03539 0.0
C1274 C 0.57457 0.34686 0.0108 0.0
C1275 C 0.6004 0.34664 1.0057 0.0
C1276 C 0.60987 0.34064 0.98472 0.0
C1277 C 0.5927 0.33578 0.96758 0.0
C1278 C 0.56685 0.33592 0.97289 0.0
H1279 H 0.53971 0.31833 0.04844 0.0
H1280 H 0.55874 0.3207 0.02015 0.0
H1281 H 0.56017 0.33008 0.04651 0.0
H1282 H 0.56776 0.3509 0.02799 0.0
H1283 H 0.61294 0.3504 0.01946 0.0
H1284 H 0.39849 0.83211 0.01186 0.0
H1285 H 0.44156 0.83612 0.9965 0.0
H1286 H 0.47227 0.81859 0.06094 0.0
H1287 H 0.42962 0.81455 0.0762 0.0
H1288 H 0.48838 0.84543 0.02015 0.0
H1289 H 0.49472 0.80133 0.99547 0.0
H1290 H 0.46506 0.80802 1.00247 0.0
H1291 H 0.48551 0.80385 0.02811 0.0
C1292 C 0.41448 0.8294 0.02306 0.0
C1293 C 0.41082 0.8229 0.04499 0.0
C1294 C 0.439 0.83165 0.01425 0.0
C1295 C 0.45997 0.82745 0.02736 0.0
C1296 C 0.45628 0.82175 0.05038 0.0
H1297 H 0.61651 0.81646 0.01745 0.0
H1298 H 0.57284 0.82035 0.02951 0.0
C1299 C 0.43195 0.81947 0.05908 0.0
C1300 C 0.48558 0.82794 0.01601 0.0
H1301 H 0.5333 0.81136 0.9953 0.0
C1302 C 0.49816 0.83803 0.01433 0.0
C1303 C 0.49811 0.81826 0.00824 0.0
C1304 C 0.4851 0.80726 0.0084 0.0
C1305 C 0.52356 0.83858 1.00634 0.0
C1306 C 0.53636 0.82882 0.99984 0.0
C1307 C 0.5234 0.81882 1.0005 0.0
C1308 C 0.56368 0.82851 0.99399 0.0
C1309 C 0.53693 0.84946 1.00586 0.0
C1310 C 0.57313 0.83212 0.97026 0.0
C1311 C 0.5982 0.82986 0.96323 0.0
C1312 C 0.61389 0.82388 0.97981 0.0
C1313 C 0.60473 0.82096 1.00419 0.0
C1314 C 0.57985 0.82321 0.01115 0.0
H1315 H 0.525 0.85616 0.0137 0.0
H1316 H 0.55466 0.84898 0.0171 0.0
H1317 H 0.54218 0.85151 0.9858 0.0
H1318 H 0.56079 0.83612 0.95669 0.0
H1319 H 0.60476 0.83214 0.94428 0.0
H1320 H 0.57527 0.57811 0.87291 0.0
H1321 H 0.55669 0.57197 0.83266 0.0
H1322 H 0.62039 0.55056 0.81999 0.0
H1323 H 0.63832 0.55625 0.86097 0.0
H1324 H 0.56703 0.57267 0.78533 0.0
H1325 H 0.56763 0.52873 0.81099 0.0
H1326 H 0.57653 0.53911 0.83364 0.0
H1327 H 0.59903 0.53412 0.81028 0.0
C1328 C 0.5854 0.57214 0.86147 0.0
C1329 C 0.60817 0.56761 0.87027 0.0
C1330 C 0.57473 0.56861 0.83841 0.0
C1331 C 0.5867 0.56055 0.82342 0.0
C1332 C 0.61017 0.55645 0.83154 0.0
H1333 H 0.52621 0.52789 0.68528 0.0
H1334 H 0.55667 0.53567 0.71483 0.0
C1335 C 0.62057 0.55979 0.8549 0.0
C1336 C 0.57432 0.55641 0.79964 0.0
H1337 H 0.55773 0.53324 0.76794 0.0
C1338 C 0.56445 0.56399 0.78196 0.0
C1339 C 0.57126 0.54508 0.79466 0.0
C1340 C 0.57894 0.53632 0.81353 0.0
C1341 C 0.5508 0.56055 0.76029 0.0
C1342 C 0.54734 0.54926 0.7558 0.0
C1343 C 0.55911 0.54178 0.77212 0.0
C1344 C 0.52922 0.54504 0.73636 0.0
C1345 C 0.5404 0.569 0.74215 0.0
C1346 C 0.50352 0.54759 0.73864 0.0
C1347 C 0.48577 0.54293 0.72216 0.0
C1348 C 0.49301 0.53536 0.70298 0.0
C1349 C 0.51915 0.5332 0.7002 0.0
C1350 C 0.53691 0.53782 0.71693 0.0
H1351 H 0.55048 0.57693 0.74396 0.0
H1352 H 0.54184 0.56613 0.72198 0.0
H1353 H 0.52015 0.57041 0.74663 0.0
H1354 H 0.49696 0.55292 0.75388 0.0
H1355 H 0.46624 0.545 0.72563 0.0
H1356 H 0.54821 0.53947 0.27829 0.0
H1357 H 0.51704 0.54785 0.25137 0.0
H1358 H 0.45811 0.53849 0.30424 0.0
H1359 H 0.48961 0.52995 0.33201 0.0
H1360 H 0.44461 0.53375 0.25674 0.0
H1361 H 0.48054 0.57581 0.25373 0.0
H1362 H 0.50566 0.56667 0.24537 0.0
H1363 H 0.49176 0.56608 0.27704 0.0
C1364 C 0.52889 0.5395 0.28511 0.0
C1365 C 0.52186 0.53404 0.30786 0.0
C1366 C 0.51084 0.54432 0.26936 0.0
C1367 C 0.48512 0.5441 0.2759 0.0
C1368 C 0.47785 0.53886 0.29877 0.0
H1369 H 0.39246 0.58034 0.1671 0.0
H1370 H 0.41149 0.57377 0.20644 0.0
C1371 C 0.496 0.53394 0.31465 0.0
C1372 C 0.46615 0.54862 0.2576 0.0
H1373 H 0.45788 0.56972 0.21561 0.0
C1374 C 0.44685 0.54176 0.24852 0.0
C1375 C 0.46911 0.55908 0.24632 0.0
C1376 C 0.48774 0.56735 0.25639 0.0
C1377 C 0.43187 0.54466 0.22736 0.0
C1378 C 0.43645 0.55472 0.21468 0.0
C1379 C 0.45457 0.5619 0.22486 0.0
C1380 C 0.42282 0.55809 0.19095 0.0
C1381 C 0.41169 0.5368 0.21865 0.0
C1382 C 0.42267 0.55148 0.16882 0.0
C1383 C 0.41122 0.55517 0.14614 0.0
C1384 C 0.39992 0.5656 0.14503 0.0
C1385 C 0.4003 0.57216 0.16724 0.0
C1386 C 0.41145 0.56845 0.18983 0.0
H1387 H 0.4051 0.53153 0.2347 0.0
H1388 H 0.39518 0.54119 0.21059 0.0
H1389 H 0.41966 0.53135 0.20362 0.0
H1390 H 0.43188 0.54357 0.16886 0.0
H1391 H 0.41127 0.54986 0.12951 0.0
H1392 H 1.00711 0.06768 0.57736 0.0
H1393 H 0.99745 0.05724 0.53884 0.0
H1394 H 0.91834 0.06456 0.5482 0.0
H1395 H 0.9276 0.0747 0.58772 0.0
H1396 H 0.95237 0.03843 0.53731 0.0
H1397 H 0.94857 0.07396 0.47056 0.0
H1398 H 0.96705 0.07488 0.49954 0.0
H1399 H 0.93329 0.07432 0.50157 0.0
C1400 C 0.98756 0.06701 0.57157 0.0
C1401 C 0.96813 0.072 0.58599 0.0
C1402 C 0.98213 0.06108 0.54939 0.0
C1403 C 0.95721 0.06012 0.5408 0.0
C1404 C 0.93771 0.06522 0.55463 0.0
H1405 H 0.92867 0.01503 0.41226 0.0
H1406 H 0.92081 0.02633 0.45003 0.0
C1407 C 0.9431 0.0711 0.57707 0.0
C1408 C 0.95212 0.05378 0.5172 0.0
H1409 H 0.95199 0.05642 0.45208 0.0
C1410 C 0.95161 0.04232 0.51865 0.0
C1411 C 0.95108 0.05893 0.49303 0.0
C1412 C 0.94995 0.07121 0.4908 0.0
C1413 C 0.95188 0.03585 0.49634 0.0
C1414 C 0.95283 0.04104 0.47211 0.0
C1415 C 0.95176 0.05249 0.47072 0.0
C1416 C 0.95672 0.03472 0.44816 0.0
C1417 C 0.95316 0.02354 0.49887 0.0
C1418 C 0.97921 0.03594 0.4341 0.0
C1419 C 0.98393 0.02942 0.41254 0.0
C1420 C 0.9661 0.0216 0.40455 0.0
C1421 C 0.94311 0.02076 0.41815 0.0
C1422 C 0.9385 0.02724 0.43974 0.0
H1423 H 0.95592 0.0209 0.51905 0.0
H1424 H 0.93533 0.01986 0.49187 0.0
H1425 H 0.9689 0.02023 0.48703 0.0
H1426 H 0.99345 0.04171 0.44029 0.0
H1427 H 1.00191 0.03024 0.40277 0.0
H1428 H 0.2549 0.45527 0.3096 0.0
H1429 H 0.22568 0.44086 0.29653 0.0
H1430 H 0.26422 0.41795 0.34567 0.0
H1431 H 0.29273 0.4325 0.3597 0.0
H1432 H 0.22913 0.42254 0.27299 0.0
H1433 H 0.19513 0.41315 0.37117 0.0
H1434 H 0.21582 0.42453 0.3647 0.0
H1435 H 0.2284 0.41089 0.36794 0.0
C1436 C 0.25724 0.44714 0.31749 0.0
C1437 C 0.27599 0.44504 0.33584 0.0
C1438 C 0.24046 0.4389 0.31007 0.0
C1439 C 0.2422 0.42835 0.32064 0.0
C1440 C 0.26178 0.4261 0.33796 0.0
H1441 H 0.16562 0.36779 0.28565 0.0
H1442 H 0.19616 0.3822 0.29544 0.0
C1443 C 0.27825 0.4344 0.34579 0.0
C1444 C 0.22348 0.4198 0.31347 0.0
H1445 H 0.18215 0.40099 0.33816 0.0
C1446 C 0.21877 0.41791 0.28731 0.0
C1447 C 0.20973 0.41374 0.3321 0.0
C1448 C 0.21233 0.41576 0.36052 0.0
C1449 C 0.20099 0.4101 0.27935 0.0
C1450 C 0.18783 0.40396 0.29797 0.0
C1451 C 0.19244 0.40576 0.32402 0.0
C1452 C 0.16948 0.39543 0.29082 0.0
C1453 C 0.19637 0.40836 0.25113 0.0
C1454 C 0.14439 0.39817 0.28513 0.0
C1455 C 0.12682 0.38995 0.27962 0.0
C1456 C 0.13422 0.37891 0.27957 0.0
C1457 C 0.15945 0.37625 0.28521 0.0
C1458 C 0.17689 0.38444 0.29087 0.0
H1459 H 0.20928 0.41332 0.23896 0.0
H1460 H 0.19883 0.39958 0.24622 0.0
H1461 H 0.17658 0.41061 0.24658 0.0
H1462 H 0.13841 0.40665 0.28518 0.0
H1463 H 0.10755 0.39223 0.27517 0.0
H1464 H 0.60357 0.0262 0.0083 0.0
H1465 H 0.56438 0.03626 1.00306 0.0
H1466 H 0.5473 0.01753 0.93534 0.0
H1467 H 0.5869 1.00726 0.94055 0.0
H1468 H 0.55098 0.04913 0.96159 0.0
H1469 H 0.48048 0.01556 0.97217 0.0
H1470 H 0.51282 0.01379 0.98247 0.0
H1471 H 0.5053 0.01418 0.94902 0.0
C1472 C 0.59146 0.02414 0.99234 0.0
C1473 C 0.59848 0.01594 0.97478 0.0
C1474 C 0.56892 0.02989 0.98944 0.0
C1475 C 0.55257 0.0276 0.96907 0.0
C1476 C 0.55923 0.01929 0.95162 0.0
H1477 H 0.40425 0.05793 0.94578 0.0
H1478 H 0.442 0.04664 0.9417 0.0
C1479 C 0.58191 0.01344 0.95457 0.0
C1480 C 0.52934 0.03438 0.96603 0.0
H1481 H 0.46498 0.03358 0.97014 0.0
C1482 C 0.53214 0.04575 0.96372 0.0
C1483 C 0.50474 0.02991 0.96736 0.0
C1484 C 0.50046 0.01771 0.96801 0.0
C1485 C 0.51127 0.05285 0.96425 0.0
C1486 C 0.48665 0.04848 0.96753 0.0
C1487 C 0.48377 0.03702 0.96828 0.0
C1488 C 0.46367 0.05558 0.96988 0.0
C1489 C 0.51608 0.06494 0.96078 0.0
C1490 C 0.46285 0.06442 0.98718 0.0
C1491 C 0.44123 0.07097 0.9895 0.0
C1492 C 0.41962 0.06875 0.97482 0.0
C1493 C 0.42041 0.05986 0.9576 0.0
C1494 C 0.44208 0.05337 0.95521 0.0
H1495 H 0.53357 0.06641 0.94945 0.0
H1496 H 0.50013 0.06905 0.95096 0.0
H1497 H 0.51881 0.06878 0.97985 0.0
H1498 H 0.47889 0.0662 0.99912 0.0
H1499 H 0.44123 0.07759 1.00331 0.0
H1500 H 0.03673 0.66239 0.68027 0.0
H1501 H 0.04407 0.68139 0.69353 0.0
H1502 H 0.02439 0.67292 0.77138 0.0
H1503 H 0.01753 0.65381 0.75806 0.0
H1504 H 0.01157 0.69604 0.71427 0.0
H1505 H 0.09028 0.68894 0.78233 0.0
H1506 H 0.07918 0.67843 0.76084 0.0
H1507 H 0.0618 0.68159 0.78959 0.0
C1508 C 0.03383 0.66464 0.70017 0.0
C1509 C 0.02627 0.65672 0.7181 0.0
C1510 C 0.03812 0.67547 0.70778 0.0
C1511 C 0.03513 0.67862 0.73354 0.0
C1512 C 0.02733 0.6707 0.7515 0.0
H1513 H 0.05511 0.74332 0.80442 0.0
H1514 H 0.04604 0.72399 0.79675 0.0
C1515 C 0.02309 0.65982 0.74386 0.0
C1516 C 0.03936 0.69028 0.74106 0.0
H1517 H 0.07537 0.70712 0.77857 0.0
C1518 C 0.02555 0.69844 0.72833 0.0
C1519 C 0.05737 0.69347 0.75967 0.0
C1520 C 0.07318 0.68517 0.77378 0.0
C1521 C 0.02933 0.70962 0.73343 0.0
C1522 C 0.04793 0.71283 0.75135 0.0
C1523 C 0.06128 0.70468 0.76465 0.0
C1524 C 0.05405 0.72458 0.7561 0.0
C1525 C 0.01303 0.71788 0.71979 0.0
C1526 C 0.06206 0.73138 0.73591 0.0
C1527 C 0.06744 0.74246 0.74023 0.0
C1528 C 0.06513 0.74704 0.76493 0.0
C1529 C 0.05742 0.74014 0.78518 0.0
C1530 C 0.05209 0.72905 0.78083 0.0
H1531 H 0.99503 0.71417 0.71319 0.0
H1532 H 0.00855 0.72495 0.73237 0.0
H1533 H 0.02328 0.72095 0.70264 0.0
H1534 H 0.06437 0.72809 0.71676 0.0
H1535 H 0.07383 0.74739 0.72423 0.0
H1536 H 0.59455 0.0664 0.99744 0.0
H1537 H 0.55663 0.05552 1.00353 0.0
H1538 H 0.54805 0.06805 0.0801 0.0
H1539 H 0.58671 0.07896 0.07457 0.0
H1540 H 0.54877 0.03913 0.04463 0.0
H1541 H 0.47782 0.07278 0.0451 0.0
H1542 H 0.50922 0.07467 0.03206 0.0
H1543 H 0.5046 0.07382 0.06607 0.0
C1544 C 0.5848 0.06685 0.01571 0.0
C1545 C 0.59396 0.07351 0.03563 0.0
C1546 C 0.56301 0.06061 0.01905 0.0
C1547 C 0.54953 0.06092 0.04216 0.0
C1548 C 0.5581 0.06774 0.06199 0.0
H1549 H 0.40454 0.02993 0.07569 0.0
H1550 H 0.44341 0.04054 0.07811 0.0
C1551 C 0.58013 0.07401 0.05875 0.0
C1552 C 0.52679 0.05392 0.04519 0.0
H1553 H 0.46241 0.05475 0.04701 0.0
C1554 C 0.52984 0.04251 0.04503 0.0
C1555 C 0.50223 0.05837 0.04656 0.0
C1556 C 0.49805 0.07058 0.04737 0.0
C1557 C 0.50897 0.03541 0.04573 0.0
C1558 C 0.48422 0.03985 0.04595 0.0
C1559 C 0.48127 0.0513 0.04673 0.0
C1560 C 0.4611 0.03285 0.04526 0.0
C1561 C 0.51389 0.02326 0.04683 0.0
C1562 C 0.4579 0.02488 0.02615 0.0
C1563 C 0.43548 0.01884 0.02444 0.0
C1564 C 0.41558 0.02064 0.04191 0.0
C1565 C 0.41914 0.02843 0.06153 0.0
C1566 C 0.44149 0.0345 0.06304 0.0
H1567 H 0.53243 0.02147 0.0558 0.0
H1568 H 0.49895 0.0189 0.05777 0.0
H1569 H 0.51452 0.01995 0.02705 0.0
H1570 H 0.47255 0.0235 0.01214 0.0
H1571 H 0.43347 0.01306 0.00884 0.0
H1572 H 0.86682 0.36912 0.69321 0.0
H1573 H 0.83478 0.38301 0.68333 0.0
H1574 H 0.86084 0.40265 0.74668 0.0
H1575 H 0.89289 0.38879 0.7565 0.0
H1576 H 0.79561 0.3911 0.71381 0.0
H1577 H 0.86265 0.42407 0.68676 0.0
H1578 H 0.87239 0.41002 0.69063 0.0
H1579 H 0.86778 0.41862 0.71826 0.0
C1580 C 0.86592 0.3765 0.70468 0.0
C1581 C 0.88251 0.37803 0.72529 0.0
C1582 C 0.84752 0.38436 0.69921 0.0
C1583 C 0.84569 0.39393 0.71403 0.0
C1584 C 0.86221 0.39542 0.73472 0.0
H1585 H 0.75006 0.45166 0.7064 0.0
H1586 H 0.77844 0.43707 0.72027 0.0
C1587 C 0.88045 0.38752 0.74034 0.0
C1588 C 0.82642 0.40233 0.70787 0.0
H1589 H 0.81941 0.42906 0.6902 0.0
C1590 C 0.80078 0.3994 0.70856 0.0
C1591 C 0.83324 0.41314 0.70106 0.0
C1592 C 0.86051 0.41665 0.69888 0.0
C1593 C 0.78175 0.40703 0.70286 0.0
C1594 C 0.78859 0.41784 0.69607 0.0
C1595 C 0.81421 0.42078 0.69553 0.0
C1596 C 0.76955 0.4262 0.68887 0.0
C1597 C 0.75447 0.40353 0.70452 0.0
C1598 C 0.75491 0.42489 0.66673 0.0
C1599 C 0.73845 0.43318 0.65883 0.0
C1600 C 0.73641 0.44303 0.6728 0.0
C1601 C 0.75075 0.44417 0.69533 0.0
C1602 C 0.76719 0.43587 0.7032 0.0
H1603 H 0.75218 0.39583 0.71564 0.0
H1604 H 0.74276 0.41002 0.71357 0.0
H1605 H 0.74719 0.40209 0.6849 0.0
H1606 H 0.75672 0.41757 0.65514 0.0
H1607 H 0.72759 0.43194 0.64154 0.0
H1608 H 0.0557 0.02962 0.62176 0.0
H1609 H 0.05978 0.04172 0.58449 0.0
H1610 H 0.0623 0.01366 0.53453 0.0
H1611 H 0.05711 1.00155 0.5712 0.0
H1612 H 0.09666 0.04206 0.53643 0.0
H1613 H 0.99629 0.03198 0.51912 0.0
H1614 H 0.01057 0.02995 0.54987 0.0
H1615 H 0.01703 0.02062 0.52394 0.0
C1616 C 0.05726 0.02599 0.60288 0.0
C1617 C 0.0558 0.01455 0.59963 0.0
C1618 C 0.06 0.03293 0.58163 0.0
C1619 C 0.06143 0.02857 0.55678 0.0
C1620 C 0.06143 0.01718 0.55358 0.0
H1621 H 0.03501 0.05752 0.40569 0.0
H1622 H 0.04205 0.04477 0.44126 0.0
C1623 C 0.05851 1.01026 0.57469 0.0
C1624 C 0.05878 0.0358 0.53409 0.0
H1625 H 0.01562 0.04341 0.48894 0.0
C1626 C 0.079 0.04238 0.52601 0.0
C1627 C 0.03582 0.03614 0.52047 0.0
C1628 C 0.01359 0.02933 0.52884 0.0
C1629 C 0.07674 0.04925 0.50444 0.0
C1630 C 0.0535 0.04972 0.49106 0.0
C1631 C 0.03344 0.04304 0.4991 0.0
C1632 C 0.04926 0.0574 0.46937 0.0
C1633 C 0.09932 0.05584 0.49586 0.0
C1634 C 0.05027 0.06872 0.47348 0.0
C1635 C 0.04601 0.07602 0.45334 0.0
C1636 C 0.04068 0.0722 0.42843 0.0
C1637 C 0.03902 0.06081 0.42451 0.0
C1638 C 0.04321 0.05349 0.44481 0.0
H1639 H 0.11719 0.05256 0.5039 0.0
H1640 H 0.10084 0.05593 0.47461 0.0
H1641 H 0.09713 0.06442 0.50251 0.0
H1642 H 0.05414 0.07194 0.49242 0.0
H1643 H 0.04667 0.0847 0.45742 0.0
H1644 H 0.94345 0.74093 0.22326 0.0
H1645 H 0.95127 0.72107 0.22219 0.0
H1646 H 0.94117 0.71961 0.30418 0.0
H1647 H 0.93231 0.73912 0.30526 0.0
H1648 H 0.98852 0.70886 0.24602 0.0
H1649 H 0.89488 0.69549 0.28097 0.0
H1650 H 0.90068 0.70921 0.2696 0.0
H1651 H 0.90863 0.70544 0.30196 0.0
C1652 C 0.94243 0.73632 0.24096 0.0
C1653 C 0.93728 0.74165 0.26435 0.0
C1654 C 0.94711 0.72499 0.24036 0.0
C1655 C 0.94643 0.71879 0.26307 0.0
C1656 C 0.94126 0.72413 0.28632 0.0
H1657 H 0.97607 0.65583 0.32689 0.0
H1658 H 0.96451 0.67467 0.31586 0.0
C1659 C 0.9365 0.73536 0.28693 0.0
C1660 C 0.95173 0.70681 0.26304 0.0
H1661 H 0.92865 0.68252 0.28552 0.0
C1662 C 0.97532 0.70304 0.25428 0.0
C1663 C 0.93444 0.6992 0.27362 0.0
C1664 C 0.90815 0.70252 0.28181 0.0
C1665 C 0.98266 0.69203 0.2573 0.0
C1666 C 0.96579 0.68453 0.26917 0.0
C1667 C 0.94177 0.68824 0.27678 0.0
C1668 C 0.97295 0.673 0.27537 0.0
C1669 C 0.00883 0.68868 0.24882 0.0
C1670 C 0.98128 0.66567 0.25632 0.0
C1671 C 0.98827 0.65493 0.26275 0.0
C1672 C 0.98639 0.65124 0.2882 0.0
C1673 C 0.97741 0.65845 0.30709 0.0
C1674 C 0.97088 0.66922 0.30077 0.0
H1675 H 0.0214 0.69586 0.24602 0.0
H1676 H 0.01765 0.6831 0.26299 0.0
H1677 H 0.00757 0.6843 0.23023 0.0
H1678 H 0.98237 0.66822 0.23648 0.0
H1679 H 0.99513 0.6495 0.24785 0.0
H1680 H 0.25896 0.37144 0.85012 0.0
H1681 H 0.27354 0.38461 0.81827 0.0
H1682 H 0.31485 0.40194 0.87669 0.0
H1683 H 0.30022 0.38876 0.90888 0.0
H1684 H 0.26655 0.40674 0.81593 0.0
H1685 H 0.36851 0.39655 0.82201 0.0
H1686 H 0.34425 0.38809 0.83619 0.0
H1687 H 0.35457 0.40033 0.85218 0.0
C1688 C 0.27092 0.37812 0.8563 0.0
C1689 C 0.27837 0.3791 0.88204 0.0
C1690 C 0.27936 0.38559 0.83803 0.0
C1691 C 0.29554 0.39413 0.84509 0.0
C1692 C 0.30279 0.39525 0.87081 0.0
H1693 H 0.36255 0.44869 0.76668 0.0
H1694 H 0.349 0.43465 0.79699 0.0
C1695 C 0.29439 0.38775 0.88915 0.0
C1696 C 0.30449 0.40192 0.82545 0.0
H1697 H 0.35766 0.41213 0.79714 0.0
C1698 C 0.28646 0.4079 0.8117 0.0
C1699 C 0.33046 0.40331 0.81994 0.0
C1700 C 0.35058 0.39666 0.83317 0.0
C1701 C 0.29373 0.41549 0.79296 0.0
C1702 C 0.31973 0.417 0.78771 0.0
C1703 C 0.33775 0.41094 0.8013 0.0
C1704 C 0.32867 0.42513 0.76886 0.0
C1705 C 0.27358 0.422 0.77941 0.0
C1706 C 0.32216 0.42426 0.74291 0.0
C1707 C 0.32999 0.43224 0.72546 0.0
C1708 C 0.3446 0.44118 0.7337 0.0
C1709 C 0.35158 0.44185 0.75963 0.0
C1710 C 0.34375 0.43387 0.77702 0.0
H1711 H 0.25528 0.42178 0.7899 0.0
H1712 H 0.27942 0.43067 0.77706 0.0
H1713 H 0.27052 0.41848 0.76006 0.0
H1714 H 0.31098 0.41742 0.73619 0.0
H1715 H 0.32466 0.43141 0.70554 0.0
H1716 H 0.74289 0.37085 0.16487 0.0
H1717 H 0.73173 0.38463 0.19687 0.0
H1718 H 0.71149 0.4071 0.13661 0.0
H1719 H 0.72243 0.39327 0.10439 0.0
H1720 H 0.74847 0.40537 0.20649 0.0
H1721 H 0.64739 0.40582 0.17915 0.0
H1722 H 0.6692 0.39559 0.16756 0.0
H1723 H 0.66829 0.40892 0.15297 0.0
C1724 C 0.73627 0.37876 0.1584 0.0
C1725 C 0.73331 0.38097 0.13211 0.0
C1726 C 0.72987 0.38662 0.17672 0.0
C1727 C 0.72032 0.3968 0.16911 0.0
C1728 C 0.71821 0.39918 0.14287 0.0
H1729 H 0.66503 0.45408 0.24884 0.0
H1730 H 0.67865 0.44043 0.21744 0.0
C1731 C 0.72446 0.39129 0.12451 0.0
C1732 C 0.71188 0.40479 0.18868 0.0
H1733 H 0.6605 0.41936 0.20885 0.0
C1734 C 0.72924 0.40843 0.20708 0.0
C1735 C 0.68668 0.40863 0.18957 0.0
C1736 C 0.66674 0.40446 0.17143 0.0
C1737 C 0.72223 0.41606 0.22594 0.0
C1738 C 0.69714 0.42007 0.22645 0.0
C1739 C 0.67977 0.41634 0.20822 0.0
C1740 C 0.68842 0.42819 0.24564 0.0
C1741 C 0.74185 0.4199 0.24482 0.0
C1742 C 0.68857 0.42568 0.27184 0.0
C1743 C 0.68037 0.43338 0.28983 0.0
C1744 C 0.67196 0.44381 0.28203 0.0
C1745 C 0.67113 0.44615 0.25563 0.0
C1746 C 0.67916 0.43839 0.23764 0.0
H1747 H 0.76135 0.4183 0.23777 0.0
H1748 H 0.73984 0.42878 0.2488 0.0
H1749 H 0.73931 0.41541 0.26314 0.0
H1750 H 0.69497 0.41774 0.27838 0.0
H1751 H 0.68071 0.43115 0.30991 0.0
H1752 H 0.31022 0.65024 0.06469 0.0
H1753 H 0.29708 0.66872 0.07676 0.0
H1754 H 0.27141 0.67445 0.9996 0.0
H1755 H 0.28213 0.65579 0.98808 0.0
H1756 H 0.31446 0.6871 0.06205 0.0
H1757 H 0.21378 0.68759 0.03505 0.0
H1758 H 0.2318 0.67508 0.03581 0.0
H1759 H 0.2329 0.68389 0.00805 0.0
C1760 C 0.30106 0.65528 0.05044 0.0
C1761 C 0.29756 0.65141 0.02524 0.0
C1762 C 0.29376 0.66594 0.05734 0.0
C1763 C 0.2829 0.67305 0.03924 0.0
C1764 C 0.27905 0.66914 0.01424 0.0
H1765 H 0.2612 0.7435 0.02991 0.0
H1766 H 0.26755 0.72393 0.0215 0.0
C1767 C 0.28581 0.65845 0.0075 0.0
C1768 C 0.27745 0.68475 0.04586 0.0
H1769 H 0.23354 0.7052 0.0401 0.0
C1770 C 0.29659 0.69097 0.05754 0.0
C1771 C 0.25416 0.68994 0.04001 0.0
C1772 C 0.23194 0.68373 0.0293 0.0
C1773 C 0.29336 0.70216 0.06291 0.0
C1774 C 0.27047 0.70736 0.05632 0.0
C1775 C 0.25121 0.70121 0.04488 0.0
C1776 C 0.26621 0.71919 0.06141 0.0
C1777 C 0.31465 0.70845 0.07518 0.0
C1778 C 0.26324 0.723 0.08662 0.0
C1779 C 0.2597 0.73416 0.0915 0.0
C1780 C 0.25902 0.74178 0.07126 0.0
C1781 C 0.26193 0.7379 0.04598 0.0
C1782 C 0.26536 0.72671 0.04111 0.0
H1783 H 0.33253 0.70369 0.07544 0.0
H1784 H 0.31797 0.71627 0.06487 0.0
H1785 H 0.30942 0.71047 0.09526 0.0
H1786 H 0.26371 0.71732 0.10254 0.0
H1787 H 0.25779 0.73683 0.11121 0.0
H1788 H 0.6792 0.66039 0.9939 0.0
H1789 H 0.69235 0.67923 0.98621 0.0
H1790 H 0.76885 0.66837 0.97311 0.0
H1791 H 0.75576 0.64945 0.98046 0.0
H1792 H 0.72366 0.69231 0.00957 0.0
H1793 H 0.75973 0.68638 0.91047 0.0
H1794 H 0.74286 0.67578 0.9274 0.0
H1795 H 0.77581 0.67818 0.93372 0.0
C1796 C 0.69889 0.66198 0.98964 0.0
C1797 C 0.71636 0.65333 0.98775 0.0
C1798 C 0.70638 0.67279 0.98506 0.0
C1799 C 0.73151 0.67526 0.97847 0.0
C1800 C 0.74919 0.6667 0.97732 0.0
H1801 H 0.80195 0.73909 0.94953 0.0
H1802 H 0.79465 0.71975 0.95881 0.0
C1803 C 0.74167 0.65585 0.98171 0.0
C1804 C 0.73899 0.68685 0.97342 0.0
H1805 H 0.76553 0.70394 0.92882 0.0
C1806 C 0.73276 0.69482 0.99185 0.0
C1807 C 0.7511 0.69019 0.95039 0.0
C1808 C 0.75757 0.6822 0.92927 0.0
C1809 C 0.73794 0.70596 0.98782 0.0
C1810 C 0.74956 0.70929 0.96466 0.0
C1811 C 0.75651 0.70135 0.94651 0.0
C1812 C 0.75394 0.72103 0.95868 0.0
C1813 C 0.73101 0.71411 0.00842 0.0
C1814 C 0.73345 0.72815 0.95516 0.0
C1815 C 0.7375 0.73921 0.94943 0.0
C1816 C 0.7622 0.74341 0.94714 0.0
C1817 C 0.78267 0.73619 0.95068 0.0
C1818 C 0.77857 0.72511 0.95618 0.0
H1819 H 0.72778 0.71007 0.02723 0.0
H1820 H 0.74606 0.72036 0.01062 0.0
H1821 H 0.71334 0.71837 1.00293 0.0
H1822 H 0.71426 0.72512 0.9566 0.0
H1823 H 0.72122 0.7444 0.94637 0.0
H1824 H 0.3764 0.54496 0.87367 0.0
H1825 H 0.39731 0.53419 0.83985 0.0
H1826 H 0.46218 0.55542 0.84395 0.0
H1827 H 0.44113 0.56627 0.87754 0.0
H1828 H 0.42009 0.53886 0.79062 0.0
H1829 H 0.4889 0.52436 0.86246 0.0
H1830 H 0.46012 0.53139 0.87115 0.0
H1831 H 0.48706 0.539 0.86 0.0
C1832 C 0.39487 0.54747 0.86687 0.0
C1833 C 0.40708 0.55649 0.87811 0.0
C1834 C 0.40683 0.5413 0.84759 0.0
C1835 C 0.43149 0.54388 0.83953 0.0
C1836 C 0.44324 0.5532 0.84994 0.0
H1837 H 0.557 0.51531 0.76346 0.0
H1838 H 0.52516 0.52384 0.78963 0.0
C1839 C 0.43114 0.55946 0.86898 0.0
C1840 C 0.44566 0.53639 0.82184 0.0
H1841 H 0.49685 0.51955 0.81978 0.0
C1842 C 0.43727 0.53478 0.79664 0.0
C1843 C 0.46716 0.53058 0.83014 0.0
C1844 C 0.47626 0.53129 0.85748 0.0
C1845 C 0.4509 0.52825 0.77889 0.0
C1846 C 0.47392 0.5231 0.78655 0.0
C1847 C 0.48058 0.52398 0.8127 0.0
C1848 C 0.49292 0.51769 0.76846 0.0
C1849 C 0.43977 0.52697 0.75256 0.0
C1850 C 0.48657 0.51115 0.74696 0.0
C1851 C 0.50549 0.50692 0.73041 0.0
C1852 C 0.53131 0.50848 0.73579 0.0
C1853 C 0.53745 0.51421 0.75815 0.0
C1854 C 0.51886 0.51898 0.77356 0.0
H1855 H 0.4293 0.51911 0.75169 0.0
H1856 H 0.42627 0.53364 0.74796 0.0
H1857 H 0.4545 0.52686 0.73768 0.0
H1858 H 0.46716 0.50912 0.7429 0.0
H1859 H 0.49992 0.50216 0.71386 0.0
H1860 H 0.98368 0.92437 0.81763 0.0
H1861 H 0.96208 0.90841 0.83522 0.0
H1862 H 0.90749 0.90994 0.77428 0.0
H1863 H 0.92849 0.92611 0.75687 0.0
H1864 H 0.91347 0.90713 0.85308 0.0
H1865 H 0.92781 0.87789 0.77322 0.0
H1866 H 0.94517 0.89055 0.7756 0.0
H1867 H 0.91357 0.89047 0.763 0.0
C1868 C 0.96708 0.92136 0.80788 0.0
C1869 C 0.95785 0.92663 0.78579 0.0
C1870 C 0.95483 0.91217 0.81794 0.0
C1871 C 0.93333 0.9079 0.80594 0.0
C1872 C 0.92436 0.91295 0.78358 0.0
H1873 H 0.81666 0.86148 0.839 0.0
H1874 H 0.84475 0.87564 0.82243 0.0
C1875 C 0.9365 0.9222 0.77358 0.0
C1876 C 0.91955 0.89852 0.81753 0.0
H1877 H 0.8967 0.87298 0.8046 0.0
C1878 C 0.91006 0.8996 0.84261 0.0
C1879 C 0.91521 0.8887 0.80389 0.0
C1880 C 0.92619 0.88676 0.77754 0.0
C1881 C 0.89559 0.89128 0.85405 0.0
C1882 C 0.89064 0.8816 0.84009 0.0
C1883 C 0.90051 0.88043 0.81523 0.0
C1884 C 0.87406 0.87284 0.85037 0.0
C1885 C 0.88491 0.89303 0.8806 0.0
C1886 C 0.88139 0.86646 0.87144 0.0
C1887 C 0.86523 0.85835 0.88116 0.0
C1888 C 0.84146 0.8565 0.86995 0.0
C1889 C 0.83458 0.86278 0.84844 0.0
C1890 C 0.85069 0.87085 0.8388 0.0
H1891 H 0.88744 0.90158 0.88733 0.0
H1892 H 0.86446 0.891 0.88102 0.0
H1893 H 0.89459 0.8875 0.89427 0.0
H1894 H 0.89953 0.86778 0.88042 0.0
H1895 H 0.87109 0.85373 0.89781 0.0
H1896 H 0.25445 0.52059 0.55306 0.0
H1897 H 0.22458 0.52751 0.52172 0.0
H1898 H 0.26256 0.5094 0.46198 0.0
H1899 H 0.29308 0.50255 0.49337 0.0
H1900 H 0.25362 0.53052 0.44755 0.0
H1901 H 0.17031 0.52027 0.50405 0.0
H1902 H 0.19733 0.51123 0.50518 0.0
H1903 H 0.1733 0.50928 0.48166 0.0
C1904 C 0.25652 0.51801 0.5333 0.0
C1905 C 0.27663 0.51118 0.52574 0.0
C1906 C 0.23924 0.52194 0.51535 0.0
C1907 C 0.2411 0.51893 0.48942 0.0
C1908 C 0.2606 0.51181 0.48187 0.0
H1909 H 0.12237 0.53886 0.38421 0.0
H1910 H 0.15513 0.52869 0.4063 0.0
C1911 C 0.27798 0.50785 0.49991 0.0
C1912 C 0.22339 0.52377 0.47032 0.0
H1913 H 0.16083 0.52894 0.45987 0.0
C1914 C 0.23335 0.53018 0.45028 0.0
C1915 C 0.1968 0.5231 0.47324 0.0
C1916 C 0.18414 0.51558 0.49232 0.0
C1917 C 0.2176 0.53657 0.43448 0.0
C1918 C 0.19113 0.53634 0.43836 0.0
C1919 C 0.18115 0.52938 0.45728 0.0
C1920 C 0.17313 0.54291 0.42266 0.0
C1921 C 0.2294 0.54358 0.41391 0.0
C1922 C 0.17238 0.55441 0.42412 0.0
C1923 C 0.15303 0.56034 0.41192 0.0
C1924 C 0.13402 0.5549 0.39795 0.0
C1925 C 0.13593 0.54342 0.39541 0.0
C1926 C 0.15494 0.53753 0.40784 0.0
H1927 H 0.24919 0.5411 0.4097 0.0
H1928 H 0.21826 0.54316 0.39595 0.0
H1929 H 0.22958 0.55223 0.42045 0.0
H1930 H 0.18608 0.55876 0.43564 0.0
H1931 H 0.15237 0.56912 0.4145 0.0
H1932 H 0.70706 0.18218 0.01337 0.0
H1933 H 0.72049 0.20117 0.00998 0.0
H1934 H 0.798 0.19142 0.02072 0.0
H1935 H 0.78462 0.17222 0.02453 0.0
H1936 H 0.74657 0.21251 0.04944 0.0
H1937 H 0.79992 0.212 0.95711 0.0
H1938 H 0.77857 0.20111 0.96613 0.0
H1939 H 0.80891 0.20219 0.98112 0.0
C1940 C 0.72698 0.18403 0.01513 0.0
C1941 C 0.74472 0.17569 0.01962 0.0
C1942 C 0.73462 0.19488 0.01299 0.0
C1943 C 0.76019 0.19766 0.01502 0.0
C1944 C 0.77818 0.18939 0.0188 0.0
H1945 H 0.82079 0.26415 0.0086 0.0
H1946 H 0.81727 0.24423 0.00955 0.0
C1947 C 0.77051 0.17845 0.02099 0.0
C1948 C 0.76732 0.20934 0.01461 0.0
H1949 H 0.79564 0.22899 0.978 0.0
C1950 C 0.75745 0.21611 0.03392 0.0
C1951 C 0.78179 0.21395 0.99452 0.0
C1952 C 0.79285 0.20699 0.9734 0.0
C1953 C 0.76102 0.22745 0.03331 0.0
C1954 C 0.77426 0.23214 0.01244 0.0
C1955 C 0.78515 0.22534 0.99373 0.0
C1956 C 0.77642 0.24412 0.00956 0.0
C1957 C 0.75056 0.23427 0.05505 0.0
C1958 C 0.7546 0.25061 0.00827 0.0
C1959 C 0.75649 0.26198 0.00835 0.0
C1960 C 0.7803 0.26708 0.00918 0.0
C1961 C 0.80215 0.26051 0.00861 0.0
C1962 C 0.80021 0.24912 0.00893 0.0
H1963 H 0.74796 0.22933 0.07274 0.0
H1964 H 0.76316 0.24128 0.05947 0.0
H1965 H 0.7318 0.23754 0.04954 0.0
H1966 H 0.73606 0.24686 0.00804 0.0
H1967 H 0.73924 0.26674 0.00896 0.0
H1968 H 0.89042 0.54686 0.63128 0.0
H1969 H 0.85965 0.53462 0.61073 0.0
H1970 H 0.83836 0.5605 0.55918 0.0
H1971 H 0.86893 0.57275 0.57948 0.0
H1972 H 0.80078 0.53945 0.59818 0.0
H1973 H 0.86727 0.53127 0.51799 0.0
H1974 H 0.87752 0.53501 0.54974 0.0
H1975 H 0.86461 0.54523 0.52906 0.0
C1976 C 0.87921 0.54995 0.61557 0.0
C1977 C 0.88235 0.56081 0.60702 0.0
C1978 C 0.86144 0.54297 0.60401 0.0
C1979 C 0.84664 0.54664 0.58344 0.0
C1980 C 0.84945 0.5575 0.5751 0.0
H1981 H 0.76153 0.51985 0.45915 0.0
H1982 H 0.79215 0.52735 0.48835 0.0
C1983 C 0.86698 0.5645 0.58678 0.0
C1984 C 0.82965 0.53898 0.56931 0.0
H1985 H 0.82608 0.52448 0.51367 0.0
C1986 C 0.80596 0.53623 0.5795 0.0
C1987 C 0.83696 0.53444 0.5456 0.0
C1988 C 0.86302 0.53652 0.53485 0.0
C1989 C 0.78874 0.52955 0.56594 0.0
C1990 C 0.79524 0.52555 0.54092 0.0
C1991 C 0.81991 0.52784 0.53186 0.0
C1992 C 0.77705 0.51974 0.52285 0.0
C1993 C 0.76421 0.52691 0.57937 0.0
C1994 C 0.7589 0.512 0.53107 0.0
C1995 C 0.74083 0.50775 0.51399 0.0
C1996 C 0.74113 0.51063 0.48788 0.0
C1997 C 0.76056 0.51748 0.47914 0.0
C1998 C 0.77807 0.52194 0.49625 0.0
H1999 H 0.76609 0.51891 0.5892 0.0
H2000 H 0.75934 0.53311 0.5942 0.0
H2001 H 0.74836 0.5264 0.56592 0.0
H2002 H 0.75846 0.50917 0.55066 0.0
H2003 H 0.72653 0.5022 0.52125 0.0
H2004 H 0.19279 0.86852 0.11684 0.0
H2005 H 0.16469 0.88248 0.13427 0.0
H2006 H 0.13227 0.85874 0.18594 0.0
H2007 H 0.16131 0.84476 0.16938 0.0
H2008 H 0.11355 0.88378 0.13554 0.0
H2009 H 0.1514 0.88321 0.23469 0.0
H2010 H 0.16727 0.87653 0.2083 0.0
H2011 H 0.14046 0.87016 0.22346 0.0
C2012 C 0.17991 0.86626 0.13213 0.0
C2013 C 0.17963 0.85552 0.14196 0.0
C2014 C 0.16369 0.87425 0.14193 0.0
C2015 C 0.14668 0.87172 0.16173 0.0
C2016 C 0.14565 0.86094 0.17104 0.0
H2017 H 0.03785 0.91169 0.24439 0.0
H2018 H 0.06092 0.89659 0.22464 0.0
C2019 C 0.16203 0.85292 0.16132 0.0
C2020 C 0.1301 0.88043 0.17238 0.0
H2021 H 0.11578 0.89442 0.22727 0.0
C2022 C 0.11405 0.8861 0.1556 0.0
C2023 C 0.13083 0.88349 0.19855 0.0
C2024 C 0.14857 0.87811 0.21728 0.0
C2025 C 0.0986 0.89469 0.16432 0.0
C2026 C 0.09943 0.89774 0.19041 0.0
C2027 C 0.11523 0.89202 0.20726 0.0
C2028 C 0.08424 0.90693 0.20069 0.0
C2029 C 0.08128 0.90037 0.1457 0.0
C2030 C 0.08959 0.91776 0.19355 0.0
C2031 C 0.07676 0.92647 0.20519 0.0
C2032 C 0.05832 0.92449 0.22416 0.0
C2033 C 0.05234 0.91357 0.23035 0.0
C2034 C 0.06536 0.9049 0.21895 0.0
H2035 H 0.0791 0.89566 0.12763 0.0
H2036 H 0.06233 0.90165 0.15442 0.0
H2037 H 0.0892 0.90852 0.14087 0.0
H2038 H 0.10432 0.91948 0.17965 0.0
H2039 H 0.08208 0.93475 0.2001 0.0
H2040 H 0.50963 0.5094 0.29498 0.0
H2041 H 0.53925 0.51789 0.26527 0.0
H2042 H 0.48058 0.51891 0.20805 0.0
H2043 H 0.45023 0.51238 0.2397 0.0
H2044 H 0.56338 0.51827 0.23001 0.0
H2045 H 0.48413 0.53458 0.18377 0.0
H2046 H 0.49346 0.54797 0.19379 0.0
H2047 H 0.48484 0.53809 0.21732 0.0
C2048 C 0.50298 0.51188 0.27636 0.0
C2049 C 0.47726 0.511 0.27045 0.0
C2050 C 0.52007 0.51661 0.25889 0.0
C2051 C 0.51213 0.52019 0.23442 0.0
C2052 C 0.48712 0.51758 0.22736 0.0
H2053 H 0.60246 0.54397 0.1058 0.0
H2054 H 0.57988 0.53272 0.13728 0.0
C2055 C 0.4697 0.51353 0.24539 0.0
C2056 C 0.52974 0.52665 0.21687 0.0
H2057 H 0.53191 0.5469 0.17112 0.0
C2058 C 0.55608 0.52462 0.21765 0.0
C2059 C 0.52128 0.53516 0.2001 0.0
C2060 C 0.49443 0.53915 0.19885 0.0
C2061 C 0.57345 0.53062 0.20254 0.0
C2062 C 0.56447 0.53853 0.18519 0.0
C2063 C 0.53862 0.54066 0.18423 0.0
C2064 C 0.58129 0.54477 0.16754 0.0
C2065 C 0.60139 0.52861 0.2053 0.0
C2066 C 0.58944 0.55532 0.17406 0.0
C2067 C 0.60205 0.56187 0.15599 0.0
C2068 C 0.60673 0.55804 0.13088 0.0
C2069 C 0.59897 0.54732 0.12471 0.0
C2070 C 0.58634 0.54079 0.14281 0.0
H2071 H 0.60563 0.52237 0.22017 0.0
H2072 H 0.60941 0.52586 0.18668 0.0
H2073 H 0.61098 0.53638 0.21052 0.0
H2074 H 0.58534 0.55864 0.19289 0.0
H2075 H 0.60727 0.5701 0.16152 0.0
H2076 H 0.20786 0.26358 0.02362 0.0
H2077 H 0.20697 0.24358 0.02257 0.0
H2078 H 0.28343 0.24315 0.99381 0.0
H2079 H 0.28429 0.26307 0.99376 0.0
H2080 H 0.21539 0.22911 0.97997 0.0
H2081 H 0.28519 0.22318 0.05751 0.0
H2082 H 0.26927 0.23604 0.0522 0.0
H2083 H 0.29612 0.23229 0.03286 0.0
C2084 C 0.2245 0.25926 0.01697 0.0
C2085 C 0.24626 0.265 0.00898 0.0
C2086 C 0.22394 0.24783 0.01648 0.0
C2087 C 0.24524 0.24192 0.00846 0.0
C2088 C 0.26695 0.24758 1.00054 0.0
H2089 H 0.29601 0.18008 0.96313 0.0
H2090 H 0.28301 0.19906 0.969 0.0
C2091 C 0.26747 0.25899 1.00076 0.0
C2092 C 0.24502 0.22983 0.0081 0.0
H2093 H 0.27757 0.2077 0.03017 0.0
C2094 C 0.22863 0.22438 0.99126 0.0
C2095 C 0.2621 0.22371 0.0231 0.0
C2096 C 0.279 0.22909 0.04264 0.0
C2097 C 0.23005 0.21298 0.98796 0.0
C2098 C 0.24824 0.20699 1.00179 0.0
C2099 C 0.2637 0.21237 0.01952 0.0
C2100 C 0.25348 0.19535 0.99634 0.0
C2101 C 0.21287 0.2074 0.96907 0.0
C2102 C 0.24084 0.18698 0.00957 0.0
C2103 C 0.24846 0.17606 1.00655 0.0
C2104 C 0.26895 0.17339 0.99035 0.0
C2105 C 0.28061 0.18183 0.97625 0.0
C2106 C 0.27307 0.19268 0.97935 0.0
H2107 H 0.19906 0.21316 0.96045 0.0
H2108 H 0.22434 0.20366 0.9535 0.0
H2109 H 0.2024 0.2007 0.9788 0.0
H2110 H 0.2257 0.18894 0.02285 0.0
H2111 H 0.23907 0.16979 0.01775 0.0
H2112 H 0.8376 0.86293 0.20596 0.0
H2113 H 0.82278 0.87866 0.18093 0.0
H2114 H 0.86264 0.86651 0.11455 0.0
H2115 H 0.87773 0.85093 0.1393 0.0
H2116 H 0.84884 0.89507 0.15312 0.0
H2117 H 0.7902 0.86958 0.08841 0.0
H2118 H 0.80285 0.86444 0.11813 0.0
H2119 H 0.82265 0.86537 0.09012 0.0
C2120 C 0.84344 0.86366 0.18612 0.0
C2121 C 0.85852 0.85551 0.17458 0.0
C2122 C 0.83485 0.87264 0.1718 0.0
C2123 C 0.84108 0.87362 0.14567 0.0
C2124 C 0.85699 0.86577 0.13445 0.0
H2125 H 0.80557 0.92269 0.028 0.0
H2126 H 0.82592 0.90791 0.05265 0.0
C2127 C 0.86558 0.85684 0.14869 0.0
C2128 C 0.83086 0.88276 0.12996 0.0
H2129 H 0.79476 0.8883 0.07727 0.0
C2130 C 0.83697 0.89358 0.1366 0.0
C2131 C 0.81538 0.88083 0.10832 0.0
C2132 C 0.80715 0.86944 0.1009 0.0
C2133 C 0.8282 0.90249 0.12205 0.0
C2134 C 0.81283 0.90054 0.10045 0.0
C2135 C 0.80679 0.88974 0.09371 0.0
C2136 C 0.8014 0.90964 0.0857 0.0
C2137 C 0.83546 0.91396 0.12968 0.0
C2138 C 0.78091 0.91542 0.09611 0.0
C2139 C 0.76915 0.92369 0.08203 0.0
C2140 C 0.77781 0.92641 0.05735 0.0
C2141 C 0.79866 0.92076 0.04705 0.0
C2142 C 0.8102 0.91234 0.06105 0.0
H2143 H 0.85046 0.91405 0.1445 0.0
H2144 H 0.84216 0.91861 0.11266 0.0
H2145 H 0.81861 0.91826 0.13744 0.0
H2146 H 0.77377 0.91342 0.11503 0.0
H2147 H 0.75319 0.92796 0.09041 0.0
H2148 H 0.1744 0.85132 0.85722 0.0
H2149 H 0.19256 0.86539 0.8851 0.0
H2150 H 0.13291 0.88762 0.86409 0.0
H2151 H 0.11387 0.8735 0.8376 0.0
H2152 H 0.21107 0.88525 0.87302 0.0
H2153 H 0.13092 0.89089 0.94031 0.0
H2154 H 0.13267 0.8795 0.91837 0.0
H2155 H 0.12181 0.89266 0.90752 0.0
C2156 C 0.16479 0.85911 0.85898 0.0
C2157 C 0.14258 0.8612 0.84505 0.0
C2158 C 0.17535 0.8672 0.87477 0.0
C2159 C 0.16391 0.87754 0.8771 0.0
C2160 C 0.1418 0.87964 0.86322 0.0
H2161 H 0.20841 0.94017 0.94225 0.0
H2162 H 0.18698 0.92521 0.91997 0.0
C2163 C 0.13113 0.87156 0.84767 0.0
C2164 C 0.17554 0.88629 0.89316 0.0
H2165 H 0.16311 0.9046 0.9413 0.0
C2166 C 0.20064 0.88939 0.88811 0.0
C2167 C 0.16195 0.89176 0.91285 0.0
C2168 C 0.13544 0.88846 0.92028 0.0
C2169 C 0.21227 0.89792 0.9018 0.0
C2170 C 0.19855 0.90347 0.92118 0.0
C2171 C 0.17353 0.90037 0.92634 0.0
C2172 C 0.2101 0.91245 0.93636 0.0
C2173 C 0.23904 0.90111 0.89513 0.0
C2174 C 0.22961 0.9102 0.95365 0.0
C2175 C 0.24163 0.9187 0.96679 0.0
C2176 C 0.23463 0.9297 0.96276 0.0
C2177 C 0.21434 0.93186 0.94607 0.0
C2178 C 0.20213 0.92331 0.93313 0.0
H2179 H 0.24538 0.89746 0.87669 0.0
H2180 H 0.24085 0.91015 0.89389 0.0
H2181 H 0.25188 0.89822 0.91047 0.0
H2182 H 0.23574 0.90185 0.95677 0.0
H2183 H 0.2566 0.91662 0.97998 0.0
H2184 H 0.96089 0.17893 0.71782 0.0
H2185 H 0.96595 0.19776 0.7317 0.0
H2186 H 0.02334 0.18779 0.78527 0.0
H2187 H 0.01981 0.16891 0.76997 0.0
H2188 H 0.9591 0.20759 0.77578 0.0
H2189 H 0.06037 0.21151 0.74815 0.0
H2190 H 0.04175 0.19973 0.73955 0.0
H2191 H 0.05387 0.20112 0.77155 0.0
C2192 C 0.97494 0.18071 0.73225 0.0
C2193 C 0.99038 0.17239 0.74226 0.0
C2194 C 0.97759 0.1915 0.74041 0.0
C2195 C 0.99543 0.19425 0.75912 0.0
C2196 C 0.00997 0.18591 0.77026 0.0
H2197 H 0.02063 0.26179 0.8124 0.0
H2198 H 0.02084 0.24171 0.81103 0.0
C2199 C 0.00763 0.17508 0.76176 0.0
C2200 C 0.99862 0.2059 0.76639 0.0
H2201 H 0.04061 0.22715 0.76522 0.0
C2202 C 0.977 0.21183 0.77369 0.0
C2203 C 0.02202 0.21144 0.7637 0.0
C2204 C 0.04579 0.20566 0.75511 0.0
C2205 C 0.97792 0.22317 0.7774 0.0
C2206 C 1.00106 0.2287 0.77387 0.0
C2207 C 0.02295 0.22279 0.76785 0.0
C2208 C 1.0023 0.24072 0.77427 0.0
C2209 C 0.95405 0.22925 0.78439 0.0
C2210 C 0.99228 0.24668 0.75378 0.0
C2211 C 0.99212 0.25808 0.75447 0.0
C2212 C 1.00203 0.26369 0.7757 0.0
C2213 C 0.01272 0.25767 0.7959 0.0
C2214 C 0.01293 0.24624 0.79514 0.0
H2215 H 0.93881 0.22363 0.79085 0.0
H2216 H 0.95781 0.23531 0.79979 0.0
H2217 H 0.94722 0.23381 0.76737 0.0
H2218 H 0.98411 0.24249 0.73748 0.0
H2219 H 0.98339 0.26247 0.7388 0.0
H2220 H 0.00777 0.26422 0.2744 0.0
H2221 H 1.00383 0.24437 0.27771 0.0
H2222 H 0.01425 0.24132 0.19606 0.0
H2223 H 0.01685 0.26119 0.19216 0.0
H2224 H 0.9695 0.22866 0.24689 0.0
H2225 H 0.07336 0.22347 0.23363 0.0
H2226 H 0.05961 0.23633 0.2436 0.0
H2227 H 0.05662 0.23187 0.21101 0.0
C2228 C 0.00854 0.25941 0.25699 0.0
C2229 C 0.01292 0.26437 0.23301 0.0
C2230 C 1.0065 0.24805 0.259 0.0
C2231 C 0.00913 0.24145 0.23717 0.0
C2232 C 0.01248 0.24632 0.21313 0.0
H2233 H 0.03133 0.17114 0.22634 0.0
H2234 H 0.02871 0.19066 0.21743 0.0
C2235 C 0.01415 0.25768 0.21102 0.0
C2236 C 0.0095 0.22945 0.2398 0.0
H2237 H 0.04936 0.20754 0.24044 0.0
C2238 C 0.98689 0.224 0.24545 0.0
C2239 C 0.03222 0.22346 0.23748 0.0
C2240 C 0.05694 0.22903 0.23122 0.0
C2241 C 0.9864 0.21262 0.24904 0.0
C2242 C 0.00933 0.20666 0.2479 0.0
C2243 C 0.03185 0.21213 0.24162 0.0
C2244 C 0.01049 0.19477 0.25338 0.0
C2245 C 0.96126 0.20711 0.25348 0.0
C2246 C 1.00156 0.19058 0.27679 0.0
C2247 C 1.00249 0.17934 0.28176 0.0
C2248 C 0.0128 0.17207 0.26358 0.0
C2249 C 0.02266 0.1764 0.24057 0.0
C2250 C 0.02137 0.1876 0.23549 0.0
H2251 H 0.94545 0.21208 0.24575 0.0
H2252 H 0.96073 0.19889 0.24442 0.0
H2253 H 0.95807 0.20614 0.27439 0.0
H2254 H 0.99379 0.196 0.29124 0.0
H2255 H 0.9946 0.17635 0.29961 0.0
loop_
_geom_bond_atom_site_label_1
_geom_bond_atom_site_label_2
_geom_bond_distance
_geom_bond_site_symmetry_2
_ccdc_geom_bond_type
C0 C1 1.264 . S
C0 C5 1.479 . S
C0 C10 1.465 . S
C1 C0 1.264 . S
C1 C3 1.339 . S
C1 H28 0.931 . S
C2 C3 1.395 . S
C2 C4 1.320 . S
C3 C1 1.339 . S
C3 C2 1.395 . S
C3 H29 0.929 . S
C4 C2 1.320 . S
C4 C5 1.405 . S
C4 H30 0.930 . S
C5 C0 1.479 . S
C5 C4 1.405 . S
C5 H31 0.931 . S
U6 O7 2.454 . S
U6 O8 2.458 . S
U6 C9 2.984 . S
U6 C10 2.847 . S
U6 C23 2.882 . S
U6 O24 2.441 . S
U6 O25 2.420 . S
U6 O26 2.455 . S
U6 O27 2.449 . S
O7 U6 2.454 . S
O7 C9 1.353 . S
O8 U6 2.458 . S
O8 C9 1.286 . S
C9 U6 2.984 . S
C9 O7 1.353 . S
C9 O8 1.286 . S
C9 C11 1.363 . S
C10 C0 1.465 . S
C10 U6 2.847 . S
C10 O24 1.249 . S
C10 O25 1.202 . S
C11 C9 1.363 . S
C11 C13 1.408 . S
C11 C16 1.342 . S
C12 C13 1.310 . S
C12 C15 1.461 . S
C12 H32 0.932 . S
C13 C11 1.408 . S
C13 C12 1.310 . S
C13 H33 0.930 . S
C14 C15 1.474 . S
C14 C16 1.285 . S
C14 H34 0.929 . S
C15 C12 1.461 . S
C15 C14 1.474 . S
C16 C11 1.342 . S
C16 C14 1.285 . S
C16 H35 0.930 . S
C17 C20 1.424 . S
C17 C22 1.245 . S
C17 C23 1.428 . S
C18 C21 1.260 . S
C18 C22 1.477 . S
C18 H36 0.932 . S
C19 C20 1.384 . S
C19 C21 1.479 . S
C19 H37 0.929 . S
C20 C17 1.424 . S
C20 C19 1.384 . S
C20 H38 0.928 . S
C21 C18 1.260 . S
C21 C19 1.479 . S
C22 C17 1.245 . S
C22 C18 1.477 . S
C22 H39 0.932 . S
C23 U6 2.882 . S
C23 C17 1.428 . S
C23 O26 1.301 . S
C23 O27 1.282 . S
O24 U6 2.441 . S
O24 C10 1.249 . S
O25 U6 2.420 . S
O25 C10 1.202 . S
O26 U6 2.455 . S
O26 C23 1.301 . S
O27 U6 2.449 . S
O27 C23 1.282 . S
H28 C1 0.931 . S
H29 C3 0.929 . S
H30 C4 0.930 . S
H31 C5 0.931 . S
H32 C12 0.932 . S
H33 C13 0.930 . S
H34 C14 0.929 . S
H35 C16 0.930 . S
H36 C18 0.932 . S
H37 C19 0.929 . S
H38 C20 0.928 . S
H39 C22 0.932 . S
C40 C41 1.264 . S
C40 C45 1.479 . S
C40 C50 1.465 . S
C41 C40 1.264 . S
C41 C43 1.339 . S
C41 H68 0.931 . S
C42 C43 1.395 . S
C42 C44 1.320 . S
C43 C41 1.339 . S
C43 C42 1.395 . S
C43 H69 0.929 . S
C44 C42 1.320 . S
C44 C45 1.405 . S
C44 H70 0.930 . S
C45 C40 1.479 . S
C45 C44 1.405 . S
C45 H71 0.931 . S
U46 O47 2.454 . S
U46 O48 2.458 . S
U46 C49 2.984 . S
U46 C50 2.847 . S
U46 C63 2.882 1_556 S
U46 O64 2.441 . S
U46 O65 2.420 . S
U46 O66 2.455 . S
U46 O67 2.449 . S
O47 U46 2.454 . S
O47 C49 1.353 . S
O48 U46 2.458 . S
O48 C49 1.286 . S
C49 U46 2.984 . S
C49 O47 1.353 . S
C49 O48 1.286 . S
C49 C51 1.363 . S
C50 C40 1.465 . S
C50 U46 2.847 . S
C50 O64 1.249 . S
C50 O65 1.202 . S
C51 C49 1.363 . S
C51 C53 1.408 . S
C51 C56 1.342 . S
C52 C53 1.310 . S
C52 C55 1.461 . S
C52 H72 0.932 . S
C53 C51 1.408 . S
C53 C52 1.310 . S
C53 H73 0.930 . S
C54 C55 1.474 . S
C54 C56 1.285 . S
C54 H74 0.929 . S
C55 C52 1.461 . S
C55 C54 1.474 . S
C56 C51 1.342 . S
C56 C54 1.285 . S
C56 H75 0.930 . S
C57 C60 1.424 . S
C57 C62 1.245 . S
C57 C63 1.428 . S
C58 C61 1.260 . S
C58 C62 1.477 . S
C58 H76 0.932 . S
C59 C60 1.384 . S
C59 C61 1.479 . S
C59 H77 0.929 . S
C60 C57 1.424 . S
C60 C59 1.384 . S
C60 H78 0.928 . S
C61 C58 1.260 . S
C61 C59 1.479 . S
C62 C57 1.245 . S
C62 C58 1.477 . S
C62 H79 0.932 . S
C63 U46 2.882 1_554 S
C63 C57 1.428 . S
C63 O66 1.301 1_554 S
C63 O67 1.282 1_554 S
O64 U46 2.441 . S
O64 C50 1.249 . S
O65 U46 2.420 . S
O65 C50 1.202 . S
O66 U46 2.455 . S
O66 C63 1.301 1_556 S
O67 U46 2.449 . S
O67 C63 1.282 1_556 S
H68 C41 0.931 . S
H69 C43 0.929 . S
H70 C44 0.930 . S
H71 C45 0.931 . S
H72 C52 0.932 . S
H73 C53 0.930 . S
H74 C54 0.929 . S
H75 C56 0.930 . S
H76 C58 0.932 . S
H77 C59 0.929 . S
H78 C60 0.928 . S
H79 C62 0.932 . S
C80 C81 1.264 . S
C80 C85 1.479 . S
C80 C90 1.465 . S
C81 C80 1.264 . S
C81 C83 1.339 . S
C81 H108 0.931 . S
C82 C83 1.395 . S
C82 C84 1.320 . S
C83 C81 1.339 . S
C83 C82 1.395 . S
C83 H109 0.929 . S
C84 C82 1.320 . S
C84 C85 1.405 . S
C84 H110 0.930 . S
C85 C80 1.479 . S
C85 C84 1.405 . S
C85 H111 0.931 . S
U86 O87 2.454 . S
U86 O88 2.458 1_655 S
U86 C89 2.984 1_655 S
U86 C90 2.847 . S
U86 C103 2.882 1_655 S
U86 O104 2.441 . S
U86 O105 2.420 . S
U86 O106 2.455 1_655 S
U86 O107 2.449 1_655 S
O87 U86 2.454 . S
O87 C89 1.353 1_655 S
O88 U86 2.458 1_455 S
O88 C89 1.286 . S
C89 U86 2.984 1_455 S
C89 O87 1.353 1_455 S
C89 O88 1.286 . S
C89 C91 1.363 . S
C90 C80 1.465 . S
C90 U86 2.847 . S
C90 O104 1.249 . S
C90 O105 1.202 . S
C91 C89 1.363 . S
C91 C93 1.408 1_455 S
C91 C96 1.342 . S
C92 C93 1.310 . S
C92 C95 1.461 1_655 S
C92 H112 0.932 . S
C93 C91 1.408 1_655 S
C93 C92 1.310 . S
C93 H113 0.930 . S
C94 C95 1.474 . S
C94 C96 1.285 . S
C94 H114 0.929 . S
C95 C92 1.461 1_455 S
C95 C94 1.474 . S
C96 C91 1.342 . S
C96 C94 1.285 . S
C96 H115 0.930 . S
C97 C100 1.424 . S
C97 C102 1.245 . S
C97 C103 1.428 . S
C98 C101 1.260 . S
C98 C102 1.477 . S
C98 H116 0.932 . S
C99 C100 1.384 . S
C99 C101 1.479 . S
C99 H117 0.929 . S
C100 C97 1.424 . S
C100 C99 1.384 . S
C100 H118 0.928 . S
C101 C98 1.260 . S
C101 C99 1.479 . S
C102 C97 1.245 . S
C102 C98 1.477 . S
C102 H119 0.932 . S
C103 U86 2.882 1_455 S
C103 C97 1.428 . S
C103 O106 1.301 . S
C103 O107 1.282 . S
O104 U86 2.441 . S
O104 C90 1.249 . S
O105 U86 2.420 . S
O105 C90 1.202 . S
O106 U86 2.455 1_455 S
O106 C103 1.301 . S
O107 U86 2.449 1_455 S
O107 C103 1.282 . S
H108 C81 0.931 . S
H109 C83 0.929 . S
H110 C84 0.930 . S
H111 C85 0.931 . S
H112 C92 0.932 . S
H113 C93 0.930 . S
H114 C94 0.929 . S
H115 C96 0.930 . S
H116 C98 0.932 . S
H117 C99 0.929 . S
H118 C100 0.928 . S
H119 C102 0.932 . S
C120 C121 1.264 . S
C120 C125 1.479 . S
C120 C130 1.465 . S
C121 C120 1.264 . S
C121 C123 1.321 1_565 S
C121 H148 0.931 1_565 S
C122 C123 1.364 1_565 S
C122 C124 1.320 . S
C123 C121 1.321 1_545 S
C123 C122 1.364 1_545 S
C123 H149 0.981 . S
C124 C122 1.320 . S
C124 C125 1.405 . S
C124 H150 0.930 . S
C125 C120 1.479 . S
C125 C124 1.405 . S
C125 H151 0.931 . S
U126 O127 2.454 . S
U126 O128 2.458 . S
U126 C129 2.984 . S
U126 C130 2.847 1_455 S
U126 C143 2.882 . S
U126 O144 2.441 1_455 S
U126 O145 2.420 . S
U126 O146 2.455 . S
U126 O147 2.449 . S
O127 U126 2.454 . S
O127 C129 1.353 . S
O128 U126 2.458 . S
O128 C129 1.286 . S
C129 U126 2.984 . S
C129 O127 1.353 . S
C129 O128 1.286 . S
C129 C131 1.363 . S
C130 C120 1.465 . S
C130 U126 2.847 1_655 S
C130 O144 1.249 . S
C130 O145 1.202 1_655 S
C131 C129 1.363 . S
C131 C133 1.408 . S
C131 C136 1.342 . S
C132 C133 1.310 . S
C132 C135 1.461 . S
C132 H152 0.932 . S
C133 C131 1.408 . S
C133 C132 1.310 . S
C133 H153 0.930 . S
C134 C135 1.474 . S
C134 C136 1.285 . S
C134 H154 0.929 . S
C135 C132 1.461 . S
C135 C134 1.474 . S
C136 C131 1.342 . S
C136 C134 1.285 . S
C136 H155 0.930 . S
C137 C140 1.424 1_565 S
C137 C142 1.245 . S
C137 C143 1.428 . S
C138 C141 1.260 . S
C138 C142 1.477 1_545 S
C138 H156 0.932 . S
C139 C140 1.384 . S
C139 C141 1.479 . S
C139 H157 0.929 . S
C140 C137 1.424 1_545 S
C140 C139 1.384 . S
C140 H158 0.928 . S
C141 C138 1.260 . S
C141 C139 1.479 . S
C142 C137 1.245 . S
C142 C138 1.477 1_565 S
C142 H159 0.932 . S
C143 U126 2.882 . S
C143 C137 1.428 . S
C143 O146 1.301 . S
C143 O147 1.282 . S
O144 U126 2.441 1_655 S
O144 C130 1.249 . S
O145 U126 2.420 . S
O145 C130 1.202 1_455 S
O146 U126 2.455 . S
O146 C143 1.301 . S
O147 U126 2.449 . S
O147 C143 1.282 . S
H148 C121 0.931 1_545 S
H149 C123 0.981 . S
H150 C124 0.930 . S
H151 C125 0.931 . S
H152 C132 0.932 . S
H153 C133 0.930 . S
H154 C134 0.929 . S
H155 C136 0.930 . S
H156 C138 0.932 . S
H157 C139 0.929 . S
H158 C140 0.928 . S
H159 C142 0.932 . S
C160 C161 1.264 . S
C160 C165 1.479 1_655 S
C160 C170 1.457 1_655 S
C161 C160 1.264 . S
C161 C163 1.339 . S
C161 H188 0.931 . S
C162 C163 1.395 . S
C162 C164 1.320 1_655 S
C163 C161 1.339 . S
C163 C162 1.395 . S
C163 H189 0.929 . S
C164 C162 1.320 1_455 S
C164 C165 1.405 . S
C164 H190 0.930 . S
C165 C160 1.479 1_455 S
C165 C164 1.405 . S
C165 H191 0.931 . S
U166 O167 2.454 . S
U166 O168 2.458 . S
U166 C169 2.984 . S
U166 C170 2.850 . S
U166 C183 2.882 1_455 S
U166 O184 2.441 . S
U166 O185 2.420 1_455 S
U166 O186 2.455 1_455 S
U166 O187 2.449 1_455 S
O167 U166 2.454 . S
O167 C169 1.353 . S
O168 U166 2.458 . S
O168 C169 1.286 . S
C169 U166 2.984 . S
C169 O167 1.353 . S
C169 O168 1.286 . S
C169 C171 1.363 . S
C170 C160 1.457 1_455 S
C170 U166 2.850 . S
C170 O184 1.286 . S
C170 O185 1.169 1_455 S
C171 C169 1.363 . S
C171 C173 1.408 . S
C171 C176 1.342 . S
C172 C173 1.310 . S
C172 C175 1.461 . S
C172 H192 0.932 . S
C173 C171 1.408 . S
C173 C172 1.310 . S
C173 H193 0.930 . S
C174 C175 1.474 . S
C174 C176 1.285 . S
C174 H194 0.929 . S
C175 C172 1.461 . S
C175 C174 1.474 . S
C176 C171 1.342 . S
C176 C174 1.285 . S
C176 H195 0.930 . S
C177 C180 1.424 . S
C177 C182 1.245 . S
C177 C183 1.428 . S
C178 C181 1.260 . S
C178 C182 1.477 . S
C178 H196 0.932 . S
C179 C180 1.384 . S
C179 C181 1.479 . S
C179 H197 0.929 . S
C180 C177 1.424 . S
C180 C179 1.384 . S
C180 H198 0.928 . S
C181 C178 1.260 . S
C181 C179 1.479 . S
C182 C177 1.245 . S
C182 C178 1.477 . S
C182 H199 0.932 . S
C183 U166 2.882 1_655 S
C183 C177 1.428 . S
C183 O186 1.301 . S
C183 O187 1.282 . S
O184 U166 2.441 . S
O184 C170 1.286 . S
O185 U166 2.420 1_655 S
O185 C170 1.169 1_655 S
O186 U166 2.455 1_655 S
O186 C183 1.301 . S
O187 U166 2.449 1_655 S
O187 C183 1.282 . S
H188 C161 0.931 . S
H189 C163 0.929 . S
H190 C164 0.930 . S
H191 C165 0.931 . S
H192 C172 0.932 . S
H193 C173 0.930 . S
H194 C174 0.929 . S
H195 C176 0.930 . S
H196 C178 0.932 . S
H197 C179 0.929 . S
H198 C180 0.928 . S
H199 C182 0.932 . S
C200 C201 1.264 . S
C200 C205 1.479 . S
C200 C210 1.465 . S
C201 C200 1.264 . S
C201 C203 1.339 . S
C201 H228 0.931 . S
C202 C203 1.395 . S
C202 C204 1.320 . S
C203 C201 1.339 . S
C203 C202 1.395 . S
C203 H229 0.929 . S
C204 C202 1.320 . S
C204 C205 1.405 . S
C204 H230 0.930 . S
C205 C200 1.479 . S
C205 C204 1.405 . S
C205 H231 0.931 . S
U206 O207 2.454 . S
U206 O208 2.458 . S
U206 C209 2.984 . S
U206 C210 2.847 . S
U206 C223 2.882 1_554 S
U206 O224 2.441 . S
U206 O225 2.420 . S
U206 O226 2.455 . S
U206 O227 2.449 . S
O207 U206 2.454 . S
O207 C209 1.353 . S
O208 U206 2.458 . S
O208 C209 1.286 . S
C209 U206 2.984 . S
C209 O207 1.353 . S
C209 O208 1.286 . S
C209 C211 1.363 . S
C210 C200 1.465 . S
C210 U206 2.847 . S
C210 O224 1.249 . S
C210 O225 1.202 . S
C211 C209 1.363 . S
C211 C213 1.408 . S
C211 C216 1.342 . S
C212 C213 1.310 . S
C212 C215 1.461 . S
C212 H232 0.932 . S
C213 C211 1.408 . S
C213 C212 1.310 . S
C213 H233 0.930 . S
C214 C215 1.474 . S
C214 C216 1.285 . S
C214 H234 0.929 . S
C215 C212 1.461 . S
C215 C214 1.474 . S
C216 C211 1.342 . S
C216 C214 1.285 . S
C216 H235 0.930 . S
C217 C220 1.424 . S
C217 C222 1.245 . S
C217 C223 1.428 . S
C218 C221 1.260 . S
C218 C222 1.477 . S
C218 H236 0.932 . S
C219 C220 1.384 . S
C219 C221 1.479 . S
C219 H237 0.929 . S
C220 C217 1.424 . S
C220 C219 1.384 . S
C220 H238 0.928 . S
C221 C218 1.260 . S
C221 C219 1.479 . S
C222 C217 1.245 . S
C222 C218 1.477 . S
C222 H239 0.932 . S
C223 U206 2.882 1_556 S
C223 C217 1.428 . S
C223 O226 1.301 1_556 S
C223 O227 1.282 1_556 S
O224 U206 2.441 . S
O224 C210 1.249 . S
O225 U206 2.420 . S
O225 C210 1.202 . S
O226 U206 2.455 . S
O226 C223 1.301 1_554 S
O227 U206 2.449 . S
O227 C223 1.282 1_554 S
H228 C201 0.931 . S
H229 C203 0.929 . S
H230 C204 0.930 . S
H231 C205 0.931 . S
H232 C212 0.932 . S
H233 C213 0.930 . S
H234 C214 0.929 . S
H235 C216 0.930 . S
H236 C218 0.932 . S
H237 C219 0.929 . S
H238 C220 0.928 . S
H239 C222 0.932 . S
C240 C241 1.264 . S
C240 C245 1.479 . S
C240 C250 1.465 . S
C241 C240 1.264 . S
C241 C243 1.339 . S
C241 H268 0.931 . S
C242 C243 1.395 . S
C242 C244 1.320 . S
C243 C241 1.339 . S
C243 C242 1.395 . S
C243 H269 0.929 . S
C244 C242 1.320 . S
C244 C245 1.405 . S
C244 H270 0.930 . S
C245 C240 1.479 . S
C245 C244 1.405 . S
C245 H271 0.931 . S
U246 O247 2.454 . S
U246 O248 2.458 . S
U246 C249 2.984 . S
U246 C250 2.847 . S
U246 C263 2.882 . S
U246 O264 2.441 . S
U246 O265 2.420 . S
U246 O266 2.455 . S
U246 O267 2.449 . S
O247 U246 2.454 . S
O247 C249 1.353 . S
O248 U246 2.458 . S
O248 C249 1.286 . S
C249 U246 2.984 . S
C249 O247 1.353 . S
C249 O248 1.286 . S
C249 C251 1.363 . S
C250 C240 1.465 . S
C250 U246 2.847 . S
C250 O264 1.249 . S
C250 O265 1.202 . S
C251 C249 1.363 . S
C251 C253 1.408 . S
C251 C256 1.342 . S
C252 C253 1.310 . S
C252 C255 1.461 . S
C252 H272 0.932 . S
C253 C251 1.408 . S
C253 C252 1.310 . S
C253 H273 0.930 . S
C254 C255 1.474 . S
C254 C256 1.285 . S
C254 H274 0.929 . S
C255 C252 1.461 . S
C255 C254 1.474 . S
C256 C251 1.342 . S
C256 C254 1.285 . S
C256 H275 0.930 . S
C257 C260 1.424 . S
C257 C262 1.245 . S
C257 C263 1.428 . S
C258 C261 1.260 . S
C258 C262 1.477 . S
C258 H276 0.932 . S
C259 C260 1.384 . S
C259 C261 1.479 . S
C259 H277 0.929 . S
C260 C257 1.424 . S
C260 C259 1.384 . S
C260 H278 0.928 . S
C261 C258 1.260 . S
C261 C259 1.479 . S
C262 C257 1.245 . S
C262 C258 1.477 . S
C262 H279 0.932 . S
C263 U246 2.882 . S
C263 C257 1.428 . S
C263 O266 1.301 . S
C263 O267 1.282 . S
O264 U246 2.441 . S
O264 C250 1.249 . S
O265 U246 2.420 . S
O265 C250 1.202 . S
O266 U246 2.455 . S
O266 C263 1.301 . S
O267 U246 2.449 . S
O267 C263 1.282 . S
H268 C241 0.931 . S
H269 C243 0.929 . S
H270 C244 0.930 . S
H271 C245 0.931 . S
H272 C252 0.932 . S
H273 C253 0.930 . S
H274 C254 0.929 . S
H275 C256 0.930 . S
H276 C258 0.932 . S
H277 C259 0.929 . S
H278 C260 0.928 . S
H279 C262 0.932 . S
C280 C281 1.264 . S
C280 C285 1.479 . S
C280 C290 1.465 . S
C281 C280 1.264 . S
C281 C283 1.339 1_565 S
C281 H308 0.931 1_565 S
C282 C283 1.395 1_565 S
C282 C284 1.320 . S
C283 C281 1.339 1_545 S
C283 C282 1.395 1_545 S
C283 H309 0.929 . S
C284 C282 1.320 . S
C284 C285 1.405 . S
C284 H310 0.930 . S
C285 C280 1.479 . S
C285 C284 1.405 . S
C285 H311 0.931 . S
U286 O287 2.454 . S
U286 O288 2.458 . S
U286 C289 2.984 . S
U286 C290 2.847 1_655 S
U286 C303 2.882 . S
U286 O304 2.441 1_655 S
U286 O305 2.420 . S
U286 O306 2.455 . S
U286 O307 2.449 . S
O287 U286 2.454 . S
O287 C289 1.353 . S
O288 U286 2.458 . S
O288 C289 1.286 . S
C289 U286 2.984 . S
C289 O287 1.353 . S
C289 O288 1.286 . S
C289 C291 1.363 . S
C290 C280 1.465 . S
C290 U286 2.847 1_455 S
C290 O304 1.249 . S
C290 O305 1.202 1_455 S
C291 C289 1.363 . S
C291 C293 1.408 . S
C291 C296 1.342 . S
C292 C293 1.310 . S
C292 C295 1.461 . S
C292 H312 0.932 . S
C293 C291 1.408 . S
C293 C292 1.310 . S
C293 H313 0.930 . S
C294 C295 1.474 . S
C294 C296 1.285 . S
C294 H314 0.929 . S
C295 C292 1.461 . S
C295 C294 1.474 . S
C296 C291 1.342 . S
C296 C294 1.285 . S
C296 H315 0.930 . S
C297 C300 1.423 1_565 S
C297 C302 1.245 . S
C297 C303 1.428 . S
C298 C301 1.260 . S
C298 C302 1.477 1_545 S
C298 H316 0.932 . S
C299 C300 1.384 . S
C299 C301 1.479 . S
C299 H317 0.929 . S
C300 C297 1.423 1_545 S
C300 C299 1.384 . S
C300 H318 0.928 . S
C301 C298 1.260 . S
C301 C299 1.479 . S
C302 C297 1.245 . S
C302 C298 1.477 1_565 S
C302 H319 0.932 . S
C303 U286 2.882 . S
C303 C297 1.428 . S
C303 O306 1.301 . S
C303 O307 1.282 . S
O304 U286 2.441 1_455 S
O304 C290 1.249 . S
O305 U286 2.420 . S
O305 C290 1.202 1_655 S
O306 U286 2.455 . S
O306 C303 1.301 . S
O307 U286 2.449 . S
O307 C303 1.282 . S
H308 C281 0.931 1_545 S
H309 C283 0.929 . S
H310 C284 0.930 . S
H311 C285 0.931 . S
H312 C292 0.932 . S
H313 C293 0.930 . S
H314 C294 0.929 . S
H315 C296 0.930 . S
H316 C298 0.932 . S
H317 C299 0.929 . S
H318 C300 0.928 . S
H319 C302 0.932 . S
C320 C321 1.264 . S
C320 C325 1.479 . S
C320 C330 1.465 . S
C321 C320 1.264 . S
C321 C323 1.339 . S
C321 H348 0.931 . S
C322 C323 1.395 . S
C322 C324 1.320 . S
C323 C321 1.339 . S
C323 C322 1.395 . S
C323 H349 0.929 . S
C324 C322 1.320 . S
C324 C325 1.405 . S
C324 H350 0.930 . S
C325 C320 1.479 . S
C325 C324 1.405 . S
C325 H351 0.931 . S
U326 O327 2.454 . S
U326 O328 2.458 . S
U326 C329 2.984 . S
U326 C330 2.847 . S
U326 C343 2.882 1_655 S
U326 O344 2.441 . S
U326 O345 2.420 . S
U326 O346 2.455 . S
U326 O347 2.449 . S
O327 U326 2.454 . S
O327 C329 1.353 . S
O328 U326 2.458 . S
O328 C329 1.286 . S
C329 U326 2.984 . S
C329 O327 1.353 . S
C329 O328 1.286 . S
C329 C331 1.363 . S
C330 C320 1.465 . S
C330 U326 2.847 . S
C330 O344 1.249 . S
C330 O345 1.202 . S
C331 C329 1.363 . S
C331 C333 1.408 . S
C331 C336 1.342 . S
C332 C333 1.310 . S
C332 C335 1.461 . S
C332 H352 0.932 . S
C333 C331 1.408 . S
C333 C332 1.310 . S
C333 H353 0.930 . S
C334 C335 1.474 . S
C334 C336 1.285 . S
C334 H354 0.929 . S
C335 C332 1.461 . S
C335 C334 1.474 . S
C336 C331 1.342 . S
C336 C334 1.285 . S
C336 H355 0.930 . S
C337 C340 1.424 . S
C337 C342 1.245 . S
C337 C343 1.428 . S
C338 C341 1.260 . S
C338 C342 1.477 . S
C338 H356 0.932 . S
C339 C340 1.384 . S
C339 C341 1.479 . S
C339 H357 0.929 . S
C340 C337 1.424 . S
C340 C339 1.384 . S
C340 H358 0.928 . S
C341 C338 1.260 . S
C341 C339 1.479 . S
C342 C337 1.245 . S
C342 C338 1.477 . S
C342 H359 0.932 . S
C343 U326 2.882 1_455 S
C343 C337 1.428 . S
C343 O346 1.301 1_455 S
C343 O347 1.282 1_455 S
O344 U326 2.441 . S
O344 C330 1.249 . S
O345 U326 2.420 . S
O345 C330 1.202 . S
O346 U326 2.455 . S
O346 C343 1.301 1_655 S
O347 U326 2.449 . S
O347 C343 1.282 1_655 S
H348 C321 0.931 . S
H349 C323 0.929 . S
H350 C324 0.930 . S
H351 C325 0.931 . S
H352 C332 0.932 . S
H353 C333 0.930 . S
H354 C334 0.929 . S
H355 C336 0.930 . S
H356 C338 0.932 . S
H357 C339 0.929 . S
H358 C340 0.928 . S
H359 C342 0.932 . S
C360 C361 1.258 1_455 S
C360 C365 1.482 . S
C360 C370 1.468 . S
C361 C360 1.258 1_655 S
C361 C363 1.339 . S
C361 H388 0.931 . S
C362 C363 1.395 . S
C362 C364 1.305 1_655 S
C363 C361 1.339 . S
C363 C362 1.395 . S
C363 H389 0.929 . S
C364 C362 1.305 1_455 S
C364 C365 1.415 . S
C364 H390 0.936 . S
C365 C360 1.482 . S
C365 C364 1.415 . S
C365 H391 0.931 . S
U366 O367 2.454 . S
U366 O368 2.458 . S
U366 C369 2.984 . S
U366 C370 2.847 . S
U366 C383 2.882 1_455 S
U366 O384 2.441 . S
U366 O385 2.420 . S
U366 O386 2.455 . S
U366 O387 2.449 1_455 S
O367 U366 2.454 . S
O367 C369 1.353 . S
O368 U366 2.458 . S
O368 C369 1.286 . S
C369 U366 2.984 . S
C369 O367 1.353 . S
C369 O368 1.286 . S
C369 C371 1.363 . S
C370 C360 1.468 . S
C370 U366 2.847 . S
C370 O384 1.249 . S
C370 O385 1.202 . S
C371 C369 1.363 . S
C371 C373 1.408 . S
C371 C376 1.342 . S
C372 C373 1.310 . S
C372 C375 1.461 . S
C372 H392 0.932 . S
C373 C371 1.408 . S
C373 C372 1.310 . S
C373 H393 0.930 . S
C374 C375 1.474 . S
C374 C376 1.285 . S
C374 H394 0.929 . S
C375 C372 1.461 . S
C375 C374 1.474 . S
C376 C371 1.342 . S
C376 C374 1.285 . S
C376 H395 0.930 . S
C377 C380 1.424 . S
C377 C382 1.245 . S
C377 C383 1.428 . S
C378 C381 1.260 . S
C378 C382 1.477 . S
C378 H396 0.932 . S
C379 C380 1.384 . S
C379 C381 1.479 . S
C379 H397 0.929 . S
C380 C377 1.424 . S
C380 C379 1.384 . S
C380 H398 0.928 . S
C381 C378 1.260 . S
C381 C379 1.479 . S
C382 C377 1.245 . S
C382 C378 1.477 . S
C382 H399 0.932 . S
C383 U366 2.882 1_655 S
C383 C377 1.428 . S
C383 O386 1.301 1_655 S
C383 O387 1.282 . S
O384 U366 2.441 . S
O384 C370 1.249 . S
O385 U366 2.420 . S
O385 C370 1.202 . S
O386 U366 2.455 . S
O386 C383 1.301 1_455 S
O387 U366 2.449 1_655 S
O387 C383 1.282 . S
H388 C361 0.931 . S
H389 C363 0.929 . S
H390 C364 0.936 . S
H391 C365 0.931 . S
H392 C372 0.932 . S
H393 C373 0.930 . S
H394 C374 0.929 . S
H395 C376 0.930 . S
H396 C378 0.932 . S
H397 C379 0.929 . S
H398 C380 0.928 . S
H399 C382 0.932 . S
C400 C401 1.256 1_556 S
C400 C405 1.482 . S
C400 C410 1.473 . S
C401 C400 1.256 1_554 S
C401 C403 1.339 . S
C401 H428 0.931 . S
C402 C403 1.395 . S
C402 C404 1.320 . S
C403 C401 1.339 . S
C403 C402 1.395 . S
C403 H429 0.929 . S
C404 C402 1.320 . S
C404 C405 1.405 1_554 S
C404 H430 0.930 . S
C405 C400 1.482 . S
C405 C404 1.405 1_556 S
C405 H431 0.931 . S
U406 O407 2.454 . S
U406 O408 2.458 . S
U406 C409 2.984 . S
U406 C410 2.847 . S
U406 C423 2.882 . S
U406 O424 2.441 . S
U406 O425 2.420 . S
U406 O426 2.455 . S
U406 O427 2.449 . S
O407 U406 2.454 . S
O407 C409 1.353 . S
O408 U406 2.458 . S
O408 C409 1.286 . S
C409 U406 2.984 . S
C409 O407 1.353 . S
C409 O408 1.286 . S
C409 C411 1.363 . S
C410 C400 1.473 . S
C410 U406 2.847 . S
C410 O424 1.249 . S
C410 O425 1.202 . S
C411 C409 1.363 . S
C411 C413 1.408 . S
C411 C416 1.342 . S
C412 C413 1.310 . S
C412 C415 1.461 . S
C412 H432 0.932 . S
C413 C411 1.408 . S
C413 C412 1.310 . S
C413 H433 0.930 . S
C414 C415 1.457 1_545 S
C414 C416 1.275 1_545 S
C414 H434 0.958 . S
C415 C412 1.461 . S
C415 C414 1.457 1_565 S
C416 C411 1.342 . S
C416 C414 1.275 1_565 S
C416 H435 0.930 1_565 S
C417 C420 1.424 . S
C417 C422 1.245 1_565 S
C417 C423 1.428 1_554 S
C418 C421 1.260 . S
C418 C422 1.477 . S
C418 H436 0.932 . S
C419 C420 1.353 1_545 S
C419 C421 1.530 . S
C419 H437 0.911 1_545 S
C420 C417 1.424 . S
C420 C419 1.353 1_565 S
C420 H438 0.928 . S
C421 C418 1.260 . S
C421 C419 1.530 . S
C422 C417 1.245 1_545 S
C422 C418 1.477 . S
C422 H439 0.932 1_554 S
C423 U406 2.882 . S
C423 C417 1.428 1_556 S
C423 O426 1.301 . S
C423 O427 1.282 . S
O424 U406 2.441 . S
O424 C410 1.249 . S
O425 U406 2.420 . S
O425 C410 1.202 . S
O426 U406 2.455 . S
O426 C423 1.301 . S
O427 U406 2.449 . S
O427 C423 1.282 . S
H428 C401 0.931 . S
H429 C403 0.929 . S
H430 C404 0.930 . S
H431 C405 0.931 . S
H432 C412 0.932 . S
H433 C413 0.930 . S
H434 C414 0.958 . S
H435 C416 0.930 1_545 S
H436 C418 0.932 . S
H437 C419 0.911 1_565 S
H438 C420 0.928 . S
H439 C422 0.932 1_556 S
C440 C441 1.264 . S
C440 C445 1.479 . S
C440 C450 1.465 . S
C441 C440 1.264 . S
C441 C443 1.339 . S
C441 H468 0.931 . S
C442 C443 1.395 . S
C442 C444 1.320 . S
C443 C441 1.339 . S
C443 C442 1.395 . S
C443 H469 0.929 . S
C444 C442 1.320 . S
C444 C445 1.405 . S
C444 H470 0.930 . S
C445 C440 1.479 . S
C445 C444 1.405 . S
C445 H471 0.931 . S
U446 O447 2.454 . S
U446 O448 2.458 . S
U446 C449 2.984 . S
U446 C450 2.847 . S
U446 C463 2.882 . S
U446 O464 2.441 . S
U446 O465 2.420 . S
U446 O466 2.455 . S
U446 O467 2.449 . S
O447 U446 2.454 . S
O447 C449 1.353 . S
O448 U446 2.458 . S
O448 C449 1.286 . S
C449 U446 2.984 . S
C449 O447 1.353 . S
C449 O448 1.286 . S
C449 C451 1.363 . S
C450 C440 1.465 . S
C450 U446 2.847 . S
C450 O464 1.249 . S
C450 O465 1.202 . S
C451 C449 1.363 . S
C451 C453 1.408 . S
C451 C456 1.342 . S
C452 C453 1.310 . S
C452 C455 1.461 . S
C452 H472 0.932 . S
C453 C451 1.408 . S
C453 C452 1.310 . S
C453 H473 0.930 . S
C454 C455 1.474 . S
C454 C456 1.285 . S
C454 H474 0.929 . S
C455 C452 1.461 . S
C455 C454 1.474 . S
C456 C451 1.342 . S
C456 C454 1.285 . S
C456 H475 0.930 . S
C457 C460 1.424 . S
C457 C462 1.245 . S
C457 C463 1.428 . S
C458 C461 1.260 . S
C458 C462 1.477 . S
C458 H476 0.932 . S
C459 C460 1.384 . S
C459 C461 1.479 . S
C459 H477 0.929 . S
C460 C457 1.424 . S
C460 C459 1.384 . S
C460 H478 0.928 . S
C461 C458 1.260 . S
C461 C459 1.479 . S
C462 C457 1.245 . S
C462 C458 1.477 . S
C462 H479 0.932 . S
C463 U446 2.882 . S
C463 C457 1.428 . S
C463 O466 1.301 . S
C463 O467 1.282 . S
O464 U446 2.441 . S
O464 C450 1.249 . S
O465 U446 2.420 . S
O465 C450 1.202 . S
O466 U446 2.455 . S
O466 C463 1.301 . S
O467 U446 2.449 . S
O467 C463 1.282 . S
H468 C441 0.931 . S
H469 C443 0.929 . S
H470 C444 0.930 . S
H471 C445 0.931 . S
H472 C452 0.932 . S
H473 C453 0.930 . S
H474 C454 0.929 . S
H475 C456 0.930 . S
H476 C458 0.932 . S
H477 C459 0.929 . S
H478 C460 0.928 . S
H479 C462 0.932 . S
C480 C481 1.264 1_554 S
C480 C485 1.479 . S
C480 C490 1.465 . S
C481 C480 1.264 1_556 S
C481 C483 1.339 . S
C481 H508 0.931 . S
C482 C483 1.395 . S
C482 C484 1.320 . S
C483 C481 1.339 . S
C483 C482 1.395 . S
C483 H509 0.929 . S
C484 C482 1.320 . S
C484 C485 1.405 1_556 S
C484 H510 0.930 . S
C485 C480 1.479 . S
C485 C484 1.405 1_554 S
C485 H511 0.931 . S
U486 O487 2.454 . S
U486 O488 2.458 . S
U486 C489 2.984 . S
U486 C490 2.847 . S
U486 C503 2.882 . S
U486 O504 2.441 . S
U486 O505 2.420 . S
U486 O506 2.455 . S
U486 O507 2.449 . S
O487 U486 2.454 . S
O487 C489 1.353 . S
O488 U486 2.458 . S
O488 C489 1.286 . S
C489 U486 2.984 . S
C489 O487 1.353 . S
C489 O488 1.286 . S
C489 C491 1.363 . S
C490 C480 1.465 . S
C490 U486 2.847 . S
C490 O504 1.249 . S
C490 O505 1.202 . S
C491 C489 1.363 . S
C491 C493 1.408 . S
C491 C496 1.342 1_565 S
C492 C493 1.310 . S
C492 C495 1.461 . S
C492 H512 0.932 . S
C493 C491 1.408 . S
C493 C492 1.310 . S
C493 H513 0.930 . S
C494 C495 1.474 1_545 S
C494 C496 1.285 . S
C494 H514 0.929 . S
C495 C492 1.461 . S
C495 C494 1.474 1_565 S
C496 C491 1.342 1_545 S
C496 C494 1.285 . S
C496 H515 0.930 . S
C497 C500 1.424 1_545 S
C497 C502 1.245 . S
C497 C503 1.428 1_546 S
C498 C501 1.260 . S
C498 C502 1.477 . S
C498 H516 0.932 . S
C499 C500 1.384 1_545 S
C499 C501 1.479 . S
C499 H517 0.929 . S
C500 C497 1.424 1_565 S
C500 C499 1.384 1_565 S
C500 H518 0.928 . S
C501 C498 1.260 . S
C501 C499 1.479 . S
C502 C497 1.245 . S
C502 C498 1.477 . S
C502 H519 0.932 1_556 S
C503 U486 2.882 . S
C503 C497 1.428 1_564 S
C503 O506 1.301 . S
C503 O507 1.282 . S
O504 U486 2.441 . S
O504 C490 1.249 . S
O505 U486 2.420 . S
O505 C490 1.202 . S
O506 U486 2.455 . S
O506 C503 1.301 . S
O507 U486 2.449 . S
O507 C503 1.282 . S
H508 C481 0.931 . S
H509 C483 0.929 . S
H510 C484 0.930 . S
H511 C485 0.931 . S
H512 C492 0.932 . S
H513 C493 0.930 . S
H514 C494 0.929 . S
H515 C496 0.930 . S
H516 C498 0.932 . S
H517 C499 0.929 . S
H518 C500 0.928 . S
H519 C502 0.932 1_554 S
C520 C521 1.261 . S
C520 C525 1.481 1_455 S
C520 C530 1.466 1_455 S
C521 C520 1.261 . S
C521 C523 1.339 . S
C521 H548 0.931 . S
C522 C523 1.395 . S
C522 C524 1.313 1_455 S
C523 C521 1.339 . S
C523 C522 1.395 . S
C523 H549 0.929 . S
C524 C522 1.313 1_655 S
C524 C525 1.410 . S
C524 H550 0.933 . S
C525 C520 1.481 1_655 S
C525 C524 1.410 . S
C525 H551 0.931 . S
U526 O527 2.454 . S
U526 O528 2.458 . S
U526 C529 2.984 . S
U526 C530 2.847 . S
U526 C543 2.882 1_655 S
U526 O544 2.441 . S
U526 O545 2.420 . S
U526 O546 2.455 . S
U526 O547 2.449 1_655 S
O527 U526 2.454 . S
O527 C529 1.353 . S
O528 U526 2.458 . S
O528 C529 1.286 . S
C529 U526 2.984 . S
C529 O527 1.353 . S
C529 O528 1.286 . S
C529 C531 1.363 . S
C530 C520 1.466 1_655 S
C530 U526 2.847 . S
C530 O544 1.249 . S
C530 O545 1.202 . S
C531 C529 1.363 . S
C531 C533 1.408 . S
C531 C536 1.342 . S
C532 C533 1.310 . S
C532 C535 1.461 . S
C532 H552 0.932 . S
C533 C531 1.408 . S
C533 C532 1.310 . S
C533 H553 0.930 . S
C534 C535 1.474 . S
C534 C536 1.285 . S
C534 H554 0.929 . S
C535 C532 1.461 . S
C535 C534 1.474 . S
C536 C531 1.342 . S
C536 C534 1.285 . S
C536 H555 0.930 . S
C537 C540 1.424 . S
C537 C542 1.245 . S
C537 C543 1.428 . S
C538 C541 1.260 . S
C538 C542 1.477 . S
C538 H556 0.932 . S
C539 C540 1.384 . S
C539 C541 1.479 . S
C539 H557 0.929 . S
C540 C537 1.424 . S
C540 C539 1.384 . S
C540 H558 0.928 . S
C541 C538 1.260 . S
C541 C539 1.479 . S
C542 C537 1.245 . S
C542 C538 1.477 . S
C542 H559 0.932 . S
C543 U526 2.882 1_455 S
C543 C537 1.428 . S
C543 O546 1.301 1_455 S
C543 O547 1.282 . S
O544 U526 2.441 . S
O544 C530 1.249 . S
O545 U526 2.420 . S
O545 C530 1.202 . S
O546 U526 2.455 . S
O546 C543 1.301 1_655 S
O547 U526 2.449 1_455 S
O547 C543 1.282 . S
H548 C521 0.931 . S
H549 C523 0.929 . S
H550 C524 0.933 . S
H551 C525 0.931 . S
H552 C532 0.932 . S
H553 C533 0.930 . S
H554 C534 0.929 . S
H555 C536 0.930 . S
H556 C538 0.932 . S
H557 C539 0.929 . S
H558 C540 0.928 . S
H559 C542 0.932 . S
C560 C561 1.264 . S
C560 C565 1.479 . S
C560 C570 1.465 1_455 S
C561 C560 1.264 . S
C561 C563 1.339 . S
C561 H588 0.931 1_455 S
C562 C563 1.395 . S
C562 C564 1.320 . S
C563 C561 1.339 . S
C563 C562 1.395 . S
C563 H589 0.929 . S
C564 C562 1.320 . S
C564 C565 1.405 . S
C564 H590 0.930 . S
C565 C560 1.479 . S
C565 C564 1.405 . S
C565 H591 0.931 . S
U566 O567 2.454 1_655 S
U566 O568 2.458 . S
U566 C569 2.984 1_655 S
U566 C570 2.847 . S
U566 C583 2.882 . S
U566 O584 2.441 1_655 S
U566 O585 2.420 . S
U566 O586 2.455 . S
U566 O587 2.449 . S
O567 U566 2.454 1_455 S
O567 C569 1.353 . S
O568 U566 2.458 . S
O568 C569 1.286 1_655 S
C569 U566 2.984 1_455 S
C569 O567 1.353 . S
C569 O568 1.286 1_455 S
C569 C571 1.363 . S
C570 C560 1.465 1_655 S
C570 U566 2.847 . S
C570 O584 1.249 1_655 S
C570 O585 1.202 . S
C571 C569 1.363 . S
C571 C573 1.408 . S
C571 C576 1.342 . S
C572 C573 1.310 . S
C572 C575 1.461 . S
C572 H592 0.932 . S
C573 C571 1.408 . S
C573 C572 1.310 . S
C573 H593 0.930 . S
C574 C575 1.474 . S
C574 C576 1.285 . S
C574 H594 0.929 . S
C575 C572 1.461 . S
C575 C574 1.474 . S
C576 C571 1.342 . S
C576 C574 1.285 . S
C576 H595 0.943 . S
C577 C580 1.424 . S
C577 C582 1.245 . S
C577 C583 1.428 . S
C578 C581 1.260 . S
C578 C582 1.477 . S
C578 H596 0.932 . S
C579 C580 1.384 . S
C579 C581 1.479 . S
C579 H597 0.929 . S
C580 C577 1.424 . S
C580 C579 1.384 . S
C580 H598 0.928 . S
C581 C578 1.260 . S
C581 C579 1.479 . S
C582 C577 1.245 . S
C582 C578 1.477 . S
C582 H599 0.932 . S
C583 U566 2.882 . S
C583 C577 1.428 . S
C583 O586 1.301 . S
C583 O587 1.282 . S
O584 U566 2.441 1_455 S
O584 C570 1.249 1_455 S
O585 U566 2.420 . S
O585 C570 1.202 . S
O586 U566 2.455 . S
O586 C583 1.301 . S
O587 U566 2.449 . S
O587 C583 1.282 . S
H588 C561 0.931 1_655 S
H589 C563 0.929 . S
H590 C564 0.930 . S
H591 C565 0.931 . S
H592 C572 0.932 . S
H593 C573 0.930 . S
H594 C574 0.929 . S
H595 C576 0.943 . S
H596 C578 0.932 . S
H597 C579 0.929 . S
H598 C580 0.928 . S
H599 C582 0.932 . S
C600 C601 1.264 . S
C600 C605 1.479 . S
C600 C610 1.465 . S
C601 C600 1.264 . S
C601 C603 1.339 . S
C601 H628 0.931 . S
C602 C603 1.395 . S
C602 C604 1.320 . S
C603 C601 1.339 . S
C603 C602 1.395 . S
C603 H629 0.929 . S
C604 C602 1.320 . S
C604 C605 1.405 . S
C604 H630 0.930 . S
C605 C600 1.479 . S
C605 C604 1.405 . S
C605 H631 0.931 . S
U606 O607 2.454 . S
U606 O608 2.458 . S
U606 C609 2.984 . S
U606 C610 2.847 . S
U606 C623 2.882 . S
U606 O624 2.441 . S
U606 O625 2.420 . S
U606 O626 2.455 . S
U606 O627 2.449 . S
O607 U606 2.454 . S
O607 C609 1.353 . S
O608 U606 2.458 . S
O608 C609 1.286 . S
C609 U606 2.984 . S
C609 O607 1.353 . S
C609 O608 1.286 . S
C609 C611 1.363 . S
C610 C600 1.465 . S
C610 U606 2.847 . S
C610 O624 1.249 . S
C610 O625 1.202 . S
C611 C609 1.363 . S
C611 C613 1.408 . S
C611 C616 1.342 . S
C612 C613 1.310 . S
C612 C615 1.461 . S
C612 H632 0.932 . S
C613 C611 1.408 . S
C613 C612 1.310 . S
C613 H633 0.930 . S
C614 C615 1.474 . S
C614 C616 1.285 . S
C614 H634 0.929 . S
C615 C612 1.461 . S
C615 C614 1.474 . S
C616 C611 1.342 . S
C616 C614 1.285 . S
C616 H635 0.930 . S
C617 C620 1.424 . S
C617 C622 1.245 . S
C617 C623 1.428 . S
C618 C621 1.260 . S
C618 C622 1.477 . S
C618 H636 0.932 . S
C619 C620 1.384 . S
C619 C621 1.479 . S
C619 H637 0.929 . S
C620 C617 1.424 . S
C620 C619 1.384 . S
C620 H638 0.928 . S
C621 C618 1.260 . S
C621 C619 1.479 . S
C622 C617 1.245 . S
C622 C618 1.477 . S
C622 H639 0.932 . S
C623 U606 2.882 . S
C623 C617 1.428 . S
C623 O626 1.301 . S
C623 O627 1.282 . S
O624 U606 2.441 . S
O624 C610 1.249 . S
O625 U606 2.420 . S
O625 C610 1.202 . S
O626 U606 2.455 . S
O626 C623 1.301 . S
O627 U606 2.449 . S
O627 C623 1.282 . S
H628 C601 0.931 . S
H629 C603 0.929 . S
H630 C604 0.930 . S
H631 C605 0.931 . S
H632 C612 0.932 . S
H633 C613 0.930 . S
H634 C614 0.929 . S
H635 C616 0.930 . S
H636 C618 0.932 . S
H637 C619 0.929 . S
H638 C620 0.928 . S
H639 C622 0.932 . S
C640 C641 1.264 . S
C640 C645 1.479 . S
C640 C650 1.465 . S
C641 C640 1.264 . S
C641 C643 1.339 . S
C641 H668 0.931 . S
C642 C643 1.395 . S
C642 C644 1.320 . S
C643 C641 1.339 . S
C643 C642 1.395 . S
C643 H669 0.929 . S
C644 C642 1.320 . S
C644 C645 1.405 . S
C644 H670 0.930 . S
C645 C640 1.479 . S
C645 C644 1.405 . S
C645 H671 0.931 . S
U646 O647 2.454 1_554 S
U646 O648 2.458 . S
U646 C649 2.984 . S
U646 C650 2.847 1_554 S
U646 C663 2.882 . S
U646 O664 2.441 1_554 S
U646 O665 2.420 1_554 S
U646 O666 2.455 . S
U646 O667 2.449 . S
O647 U646 2.454 1_556 S
O647 C649 1.353 1_556 S
O648 U646 2.458 . S
O648 C649 1.286 . S
C649 U646 2.984 . S
C649 O647 1.353 1_554 S
C649 O648 1.286 . S
C649 C651 1.363 . S
C650 C640 1.465 . S
C650 U646 2.847 1_556 S
C650 O664 1.249 . S
C650 O665 1.202 . S
C651 C649 1.363 . S
C651 C653 1.408 . S
C651 C656 1.342 . S
C652 C653 1.310 . S
C652 C655 1.461 . S
C652 H672 0.932 1_554 S
C653 C651 1.408 . S
C653 C652 1.310 . S
C653 H673 0.930 1_554 S
C654 C655 1.474 . S
C654 C656 1.285 . S
C654 H674 0.929 . S
C655 C652 1.461 . S
C655 C654 1.474 . S
C656 C651 1.342 . S
C656 C654 1.285 . S
C656 H675 0.930 . S
C657 C660 1.424 . S
C657 C662 1.245 . S
C657 C663 1.428 . S
C658 C661 1.260 . S
C658 C662 1.477 . S
C658 H676 0.932 . S
C659 C660 1.384 . S
C659 C661 1.479 . S
C659 H677 0.929 . S
C660 C657 1.424 . S
C660 C659 1.384 . S
C660 H678 0.928 . S
C661 C658 1.260 . S
C661 C659 1.479 . S
C662 C657 1.245 . S
C662 C658 1.477 . S
C662 H679 0.932 . S
C663 U646 2.882 . S
C663 C657 1.428 . S
C663 O666 1.301 . S
C663 O667 1.282 . S
O664 U646 2.441 1_556 S
O664 C650 1.249 . S
O665 U646 2.420 1_556 S
O665 C650 1.202 . S
O666 U646 2.455 . S
O666 C663 1.301 . S
O667 U646 2.449 . S
O667 C663 1.282 . S
H668 C641 0.931 . S
H669 C643 0.929 . S
H670 C644 0.930 . S
H671 C645 0.931 . S
H672 C652 0.932 1_556 S
H673 C653 0.930 1_556 S
H674 C654 0.929 . S
H675 C656 0.930 . S
H676 C658 0.932 . S
H677 C659 0.929 . S
H678 C660 0.928 . S
H679 C662 0.932 . S
C680 C681 1.264 . S
C680 C685 1.479 . S
C680 C690 1.465 . S
C681 C680 1.264 . S
C681 C683 1.339 . S
C681 H708 0.931 . S
C682 C683 1.395 . S
C682 C684 1.320 . S
C683 C681 1.339 . S
C683 C682 1.395 . S
C683 H709 0.929 . S
C684 C682 1.320 . S
C684 C685 1.405 . S
C684 H710 0.930 . S
C685 C680 1.479 . S
C685 C684 1.405 . S
C685 H711 0.931 . S
U686 O687 2.454 . S
U686 O688 2.458 . S
U686 C689 2.984 . S
U686 C690 2.847 . S
U686 C703 2.882 . S
U686 O704 2.441 . S
U686 O705 2.420 . S
U686 O706 2.455 . S
U686 O707 2.449 . S
O687 U686 2.454 . S
O687 C689 1.353 . S
O688 U686 2.458 . S
O688 C689 1.286 . S
C689 U686 2.984 . S
C689 O687 1.353 . S
C689 O688 1.286 . S
C689 C691 1.363 . S
C690 C680 1.465 . S
C690 U686 2.847 . S
C690 O704 1.249 . S
C690 O705 1.202 . S
C691 C689 1.363 . S
C691 C693 1.408 . S
C691 C696 1.342 . S
C692 C693 1.310 . S
C692 C695 1.461 . S
C692 H712 0.932 . S
C693 C691 1.408 . S
C693 C692 1.310 . S
C693 H713 0.930 . S
C694 C695 1.474 . S
C694 C696 1.285 . S
C694 H714 0.929 . S
C695 C692 1.461 . S
C695 C694 1.474 . S
C696 C691 1.342 . S
C696 C694 1.285 . S
C696 H715 0.930 . S
C697 C700 1.424 . S
C697 C702 1.245 . S
C697 C703 1.428 . S
C698 C701 1.260 . S
C698 C702 1.477 . S
C698 H716 0.932 . S
C699 C700 1.384 . S
C699 C701 1.479 . S
C699 H717 0.929 . S
C700 C697 1.424 . S
C700 C699 1.384 . S
C700 H718 0.928 . S
C701 C698 1.260 . S
C701 C699 1.479 . S
C702 C697 1.245 . S
C702 C698 1.477 . S
C702 H719 0.932 . S
C703 U686 2.882 . S
C703 C697 1.428 . S
C703 O706 1.301 . S
C703 O707 1.282 . S
O704 U686 2.441 . S
O704 C690 1.249 . S
O705 U686 2.420 . S
O705 C690 1.202 . S
O706 U686 2.455 . S
O706 C703 1.301 . S
O707 U686 2.449 . S
O707 C703 1.282 . S
H708 C681 0.931 . S
H709 C683 0.929 . S
H710 C684 0.930 . S
H711 C685 0.931 . S
H712 C692 0.932 . S
H713 C693 0.930 . S
H714 C694 0.929 . S
H715 C696 0.930 . S
H716 C698 0.932 . S
H717 C699 0.929 . S
H718 C700 0.928 . S
H719 C702 0.932 . S
C720 C721 1.264 . S
C720 C725 1.479 . S
C720 C730 1.465 . S
C721 C720 1.264 . S
C721 C723 1.339 . S
C721 H748 0.931 . S
C722 C723 1.395 . S
C722 C724 1.320 . S
C723 C721 1.339 . S
C723 C722 1.395 . S
C723 H749 0.929 . S
C724 C722 1.320 . S
C724 C725 1.405 . S
C724 H750 0.930 . S
C725 C720 1.479 . S
C725 C724 1.405 . S
C725 H751 0.931 . S
U726 O727 2.454 . S
U726 O728 2.458 . S
U726 C729 2.984 . S
U726 C730 2.847 . S
U726 C743 2.882 . S
U726 O744 2.441 . S
U726 O745 2.420 . S
U726 O746 2.455 . S
U726 O747 2.449 . S
O727 U726 2.454 . S
O727 C729 1.353 . S
O728 U726 2.458 . S
O728 C729 1.286 . S
C729 U726 2.984 . S
C729 O727 1.353 . S
C729 O728 1.286 . S
C729 C731 1.363 . S
C730 C720 1.465 . S
C730 U726 2.847 . S
C730 O744 1.249 . S
C730 O745 1.202 . S
C731 C729 1.363 . S
C731 C733 1.408 . S
C731 C736 1.342 . S
C732 C733 1.310 . S
C732 C735 1.461 . S
C732 H752 0.932 . S
C733 C731 1.408 . S
C733 C732 1.310 . S
C733 H753 0.930 . S
C734 C735 1.474 . S
C734 C736 1.285 . S
C734 H754 0.929 . S
C735 C732 1.461 . S
C735 C734 1.474 . S
C736 C731 1.342 . S
C736 C734 1.285 . S
C736 H755 0.930 . S
C737 C740 1.424 . S
C737 C742 1.245 . S
C737 C743 1.428 . S
C738 C741 1.260 . S
C738 C742 1.477 . S
C738 H756 0.932 . S
C739 C740 1.384 . S
C739 C741 1.479 . S
C739 H757 0.929 . S
C740 C737 1.424 . S
C740 C739 1.384 . S
C740 H758 0.928 . S
C741 C738 1.260 . S
C741 C739 1.479 . S
C742 C737 1.245 . S
C742 C738 1.477 . S
C742 H759 0.932 . S
C743 U726 2.882 . S
C743 C737 1.428 . S
C743 O746 1.301 . S
C743 O747 1.282 . S
O744 U726 2.441 . S
O744 C730 1.249 . S
O745 U726 2.420 . S
O745 C730 1.202 . S
O746 U726 2.455 . S
O746 C743 1.301 . S
O747 U726 2.449 . S
O747 C743 1.282 . S
H748 C721 0.931 . S
H749 C723 0.929 . S
H750 C724 0.930 . S
H751 C725 0.931 . S
H752 C732 0.932 . S
H753 C733 0.930 . S
H754 C734 0.929 . S
H755 C736 0.930 . S
H756 C738 0.932 . S
H757 C739 0.929 . S
H758 C740 0.928 . S
H759 C742 0.932 . S
C760 C761 1.262 . S
C760 C765 1.480 1_556 S
C760 C770 1.466 1_556 S
C761 C760 1.262 . S
C761 C763 1.339 . S
C761 H788 0.931 . S
C762 C763 1.395 . S
C762 C764 1.318 . S
C763 C761 1.339 . S
C763 C762 1.395 . S
C763 H789 0.929 . S
C764 C762 1.318 . S
C764 C765 1.406 1_556 S
C764 H790 0.931 1_556 S
C765 C760 1.480 1_554 S
C765 C764 1.406 1_554 S
C765 H791 0.931 . S
U766 O767 2.454 . S
U766 O768 2.458 . S
U766 C769 2.984 . S
U766 C770 2.847 . S
U766 C783 2.882 1_554 S
U766 O784 2.441 . S
U766 O785 2.420 . S
U766 O786 2.455 . S
U766 O787 2.449 1_554 S
O767 U766 2.454 . S
O767 C769 1.353 . S
O768 U766 2.458 . S
O768 C769 1.286 . S
C769 U766 2.984 . S
C769 O767 1.353 . S
C769 O768 1.286 . S
C769 C771 1.363 . S
C770 C760 1.466 1_554 S
C770 U766 2.847 . S
C770 O784 1.249 . S
C770 O785 1.202 . S
C771 C769 1.363 . S
C771 C773 1.408 . S
C771 C776 1.342 . S
C772 C773 1.310 . S
C772 C775 1.461 . S
C772 H792 0.932 . S
C773 C771 1.408 . S
C773 C772 1.310 . S
C773 H793 0.930 . S
C774 C775 1.474 . S
C774 C776 1.285 . S
C774 H794 0.929 . S
C775 C772 1.461 . S
C775 C774 1.474 . S
C776 C771 1.342 . S
C776 C774 1.285 . S
C776 H795 0.930 . S
C777 C780 1.424 . S
C777 C782 1.245 . S
C777 C783 1.428 . S
C778 C781 1.260 . S
C778 C782 1.477 . S
C778 H796 0.932 . S
C779 C780 1.384 . S
C779 C781 1.479 . S
C779 H797 0.929 . S
C780 C777 1.424 . S
C780 C779 1.384 . S
C780 H798 0.928 . S
C781 C778 1.260 . S
C781 C779 1.479 . S
C782 C777 1.245 . S
C782 C778 1.477 . S
C782 H799 0.932 . S
C783 U766 2.882 1_556 S
C783 C777 1.428 . S
C783 O786 1.301 1_556 S
C783 O787 1.282 . S
O784 U766 2.441 . S
O784 C770 1.249 . S
O785 U766 2.420 . S
O785 C770 1.202 . S
O786 U766 2.455 . S
O786 C783 1.301 1_554 S
O787 U766 2.449 1_556 S
O787 C783 1.282 . S
H788 C761 0.931 . S
H789 C763 0.929 . S
H790 C764 0.931 1_554 S
H791 C765 0.931 . S
H792 C772 0.932 . S
H793 C773 0.930 . S
H794 C774 0.929 . S
H795 C776 0.930 . S
H796 C778 0.932 . S
H797 C779 0.929 . S
H798 C780 0.928 . S
H799 C782 0.932 . S
C800 C801 1.264 . S
C800 C805 1.479 1_554 S
C800 C810 1.465 1_554 S
C801 C800 1.264 . S
C801 C803 1.339 . S
C801 H828 0.931 . S
C802 C803 1.395 . S
C802 C804 1.320 1_554 S
C803 C801 1.339 . S
C803 C802 1.395 . S
C803 H829 0.929 . S
C804 C802 1.320 1_556 S
C804 C805 1.405 . S
C804 H830 0.930 . S
C805 C800 1.479 1_556 S
C805 C804 1.405 . S
C805 H831 0.931 . S
U806 O807 2.454 . S
U806 O808 2.458 . S
U806 C809 2.984 . S
U806 C810 2.847 . S
U806 C823 2.882 1_556 S
U806 O824 2.441 . S
U806 O825 2.420 1_556 S
U806 O826 2.455 1_556 S
U806 O827 2.449 1_556 S
O807 U806 2.454 . S
O807 C809 1.353 . S
O808 U806 2.458 . S
O808 C809 1.286 . S
C809 U806 2.984 . S
C809 O807 1.353 . S
C809 O808 1.286 . S
C809 C811 1.363 . S
C810 C800 1.465 1_556 S
C810 U806 2.847 . S
C810 O824 1.249 . S
C810 O825 1.202 1_556 S
C811 C809 1.363 . S
C811 C813 1.408 . S
C811 C816 1.342 . S
C812 C813 1.310 . S
C812 C815 1.461 . S
C812 H832 0.932 . S
C813 C811 1.408 . S
C813 C812 1.310 . S
C813 H833 0.930 . S
C814 C815 1.474 . S
C814 C816 1.285 . S
C814 H834 0.929 . S
C815 C812 1.461 . S
C815 C814 1.474 . S
C816 C811 1.342 . S
C816 C814 1.285 . S
C816 H835 0.930 . S
C817 C820 1.424 . S
C817 C822 1.245 . S
C817 C823 1.428 . S
C818 C821 1.260 . S
C818 C822 1.477 . S
C818 H836 0.932 . S
C819 C820 1.384 . S
C819 C821 1.479 . S
C819 H837 0.929 . S
C820 C817 1.424 . S
C820 C819 1.384 . S
C820 H838 0.928 . S
C821 C818 1.260 . S
C821 C819 1.479 . S
C822 C817 1.245 . S
C822 C818 1.477 . S
C822 H839 0.932 . S
C823 U806 2.882 1_554 S
C823 C817 1.428 . S
C823 O826 1.301 . S
C823 O827 1.282 . S
O824 U806 2.441 . S
O824 C810 1.249 . S
O825 U806 2.420 1_554 S
O825 C810 1.202 1_554 S
O826 U806 2.455 1_554 S
O826 C823 1.301 . S
O827 U806 2.449 1_554 S
O827 C823 1.282 . S
H828 C801 0.931 . S
H829 C803 0.929 . S
H830 C804 0.930 . S
H831 C805 0.931 . S
H832 C812 0.932 . S
H833 C813 0.930 . S
H834 C814 0.929 . S
H835 C816 0.930 . S
H836 C818 0.932 . S
H837 C819 0.929 . S
H838 C820 0.928 . S
H839 C822 0.932 . S
C840 C841 1.264 . S
C840 C845 1.479 . S
C840 C850 1.465 . S
C841 C840 1.264 . S
C841 C843 1.339 . S
C841 H868 0.931 . S
C842 C843 1.395 . S
C842 C844 1.320 . S
C843 C841 1.339 . S
C843 C842 1.395 . S
C843 H869 0.929 . S
C844 C842 1.320 . S
C844 C845 1.405 . S
C844 H870 0.930 . S
C845 C840 1.479 . S
C845 C844 1.405 . S
C845 H871 0.931 . S
U846 O847 2.454 . S
U846 O848 2.458 . S
U846 C849 2.984 . S
U846 C850 2.847 . S
U846 C863 2.882 . S
U846 O864 2.441 . S
U846 O865 2.420 . S
U846 O866 2.455 . S
U846 O867 2.449 . S
O847 U846 2.454 . S
O847 C849 1.353 . S
O848 U846 2.458 . S
O848 C849 1.286 . S
C849 U846 2.984 . S
C849 O847 1.353 . S
C849 O848 1.286 . S
C849 C851 1.363 . S
C850 C840 1.465 . S
C850 U846 2.847 . S
C850 O864 1.249 . S
C850 O865 1.202 . S
C851 C849 1.363 . S
C851 C853 1.408 . S
C851 C856 1.342 . S
C852 C853 1.310 . S
C852 C855 1.461 . S
C852 H872 0.932 . S
C853 C851 1.408 . S
C853 C852 1.310 . S
C853 H873 0.930 . S
C854 C855 1.474 . S
C854 C856 1.285 . S
C854 H874 0.929 . S
C855 C852 1.461 . S
C855 C854 1.474 . S
C856 C851 1.342 . S
C856 C854 1.285 . S
C856 H875 0.930 . S
C857 C860 1.424 . S
C857 C862 1.245 . S
C857 C863 1.428 . S
C858 C861 1.260 . S
C858 C862 1.477 . S
C858 H876 0.932 . S
C859 C860 1.384 . S
C859 C861 1.479 . S
C859 H877 0.929 . S
C860 C857 1.424 . S
C860 C859 1.384 . S
C860 H878 0.928 . S
C861 C858 1.260 . S
C861 C859 1.479 . S
C862 C857 1.245 . S
C862 C858 1.477 . S
C862 H879 0.932 . S
C863 U846 2.882 . S
C863 C857 1.428 . S
C863 O866 1.301 . S
C863 O867 1.282 . S
O864 U846 2.441 . S
O864 C850 1.249 . S
O865 U846 2.420 . S
O865 C850 1.202 . S
O866 U846 2.455 . S
O866 C863 1.301 . S
O867 U846 2.449 . S
O867 C863 1.282 . S
H868 C841 0.931 . S
H869 C843 0.929 . S
H870 C844 0.930 . S
H871 C845 0.931 . S
H872 C852 0.932 . S
H873 C853 0.930 . S
H874 C854 0.929 . S
H875 C856 0.930 . S
H876 C858 0.932 . S
H877 C859 0.929 . S
H878 C860 0.928 . S
H879 C862 0.932 . S
C880 C881 1.264 . S
C880 C885 1.479 . S
C880 C890 1.465 . S
C881 C880 1.264 . S
C881 C883 1.339 . S
C881 H908 0.931 . S
C882 C883 1.395 . S
C882 C884 1.320 . S
C883 C881 1.339 . S
C883 C882 1.395 . S
C883 H909 0.929 . S
C884 C882 1.320 . S
C884 C885 1.405 . S
C884 H910 0.930 . S
C885 C880 1.479 . S
C885 C884 1.405 . S
C885 H911 0.931 . S
U886 O887 2.454 . S
U886 O888 2.458 1_554 S
U886 C889 2.984 1_554 S
U886 C890 2.847 . S
U886 C903 2.882 1_554 S
U886 O904 2.441 . S
U886 O905 2.420 . S
U886 O906 2.455 1_554 S
U886 O907 2.449 1_554 S
O887 U886 2.454 . S
O887 C889 1.353 1_554 S
O888 U886 2.458 1_556 S
O888 C889 1.286 . S
C889 U886 2.984 1_556 S
C889 O887 1.353 1_556 S
C889 O888 1.286 . S
C889 C891 1.363 . S
C890 C880 1.465 . S
C890 U886 2.847 . S
C890 O904 1.249 . S
C890 O905 1.202 . S
C891 C889 1.363 . S
C891 C893 1.408 1_556 S
C891 C896 1.342 . S
C892 C893 1.310 . S
C892 C895 1.461 1_554 S
C892 H912 0.932 . S
C893 C891 1.408 1_554 S
C893 C892 1.310 . S
C893 H913 0.930 . S
C894 C895 1.474 . S
C894 C896 1.285 . S
C894 H914 0.929 . S
C895 C892 1.461 1_556 S
C895 C894 1.474 . S
C896 C891 1.342 . S
C896 C894 1.285 . S
C896 H915 0.930 . S
C897 C900 1.424 . S
C897 C902 1.245 . S
C897 C903 1.428 . S
C898 C901 1.260 . S
C898 C902 1.477 . S
C898 H916 0.932 . S
C899 C900 1.384 . S
C899 C901 1.479 . S
C899 H917 0.929 . S
C900 C897 1.424 . S
C900 C899 1.384 . S
C900 H918 0.928 . S
C901 C898 1.260 . S
C901 C899 1.479 . S
C902 C897 1.245 . S
C902 C898 1.477 . S
C902 H919 0.932 . S
C903 U886 2.882 1_556 S
C903 C897 1.428 . S
C903 O906 1.301 . S
C903 O907 1.282 . S
O904 U886 2.441 . S
O904 C890 1.249 . S
O905 U886 2.420 . S
O905 C890 1.202 . S
O906 U886 2.455 1_556 S
O906 C903 1.301 . S
O907 U886 2.449 1_556 S
O907 C903 1.282 . S
H908 C881 0.931 . S
H909 C883 0.929 . S
H910 C884 0.930 . S
H911 C885 0.931 . S
H912 C892 0.932 . S
H913 C893 0.930 . S
H914 C894 0.929 . S
H915 C896 0.930 . S
H916 C898 0.932 . S
H917 C899 0.929 . S
H918 C900 0.928 . S
H919 C902 0.932 . S
C920 C921 1.264 . S
C920 C925 1.479 . S
C920 C930 1.465 . S
C921 C920 1.264 . S
C921 C923 1.339 . S
C921 H948 0.931 . S
C922 C923 1.395 . S
C922 C924 1.320 . S
C923 C921 1.339 . S
C923 C922 1.395 . S
C923 H949 0.929 . S
C924 C922 1.320 . S
C924 C925 1.405 . S
C924 H950 0.930 . S
C925 C920 1.479 . S
C925 C924 1.405 . S
C925 H951 0.931 . S
U926 O927 2.454 . S
U926 O928 2.458 . S
U926 C929 2.984 . S
U926 C930 2.847 . S
U926 C943 2.882 . S
U926 O944 2.441 . S
U926 O945 2.420 . S
U926 O946 2.455 . S
U926 O947 2.449 . S
O927 U926 2.454 . S
O927 C929 1.353 . S
O928 U926 2.458 . S
O928 C929 1.286 . S
C929 U926 2.984 . S
C929 O927 1.353 . S
C929 O928 1.286 . S
C929 C931 1.363 . S
C930 C920 1.465 . S
C930 U926 2.847 . S
C930 O944 1.249 . S
C930 O945 1.202 . S
C931 C929 1.363 . S
C931 C933 1.408 . S
C931 C936 1.342 . S
C932 C933 1.310 . S
C932 C935 1.461 . S
C932 H952 0.932 . S
C933 C931 1.408 . S
C933 C932 1.310 . S
C933 H953 0.930 . S
C934 C935 1.474 . S
C934 C936 1.285 . S
C934 H954 0.929 . S
C935 C932 1.461 . S
C935 C934 1.474 . S
C936 C931 1.342 . S
C936 C934 1.285 . S
C936 H955 0.930 . S
C937 C940 1.424 . S
C937 C942 1.245 . S
C937 C943 1.428 . S
C938 C941 1.260 . S
C938 C942 1.477 . S
C938 H956 0.932 . S
C939 C940 1.384 . S
C939 C941 1.479 . S
C939 H957 0.929 . S
C940 C937 1.424 . S
C940 C939 1.384 . S
C940 H958 0.928 . S
C941 C938 1.260 . S
C941 C939 1.479 . S
C942 C937 1.245 . S
C942 C938 1.477 . S
C942 H959 0.932 . S
C943 U926 2.882 . S
C943 C937 1.428 . S
C943 O946 1.301 . S
C943 O947 1.282 . S
O944 U926 2.441 . S
O944 C930 1.249 . S
O945 U926 2.420 . S
O945 C930 1.202 . S
O946 U926 2.455 . S
O946 C943 1.301 . S
O947 U926 2.449 . S
O947 C943 1.282 . S
H948 C921 0.931 . S
H949 C923 0.929 . S
H950 C924 0.930 . S
H951 C925 0.931 . S
H952 C932 0.932 . S
H953 C933 0.930 . S
H954 C934 0.929 . S
H955 C936 0.930 . S
H956 C938 0.932 . S
H957 C939 0.929 . S
H958 C940 0.928 . S
H959 C942 0.932 . S
H960 C968 0.929 . S
H961 C970 0.930 . S
H962 C972 0.930 . S
H963 C975 0.929 . S
H964 C978 0.930 . S
H965 C980 0.960 . S
H966 C980 0.960 . S
H967 C980 0.960 . S
C968 H960 0.929 . S
C968 C969 1.377 . S
C968 C970 1.384 . S
C969 C968 1.377 . S
C969 C975 1.390 . S
C970 H961 0.930 . S
C970 C968 1.384 . S
C970 C971 1.372 . S
C971 C970 1.372 . S
C971 C972 1.400 . S
C971 C976 1.490 . S
C972 H962 0.930 . S
C972 C971 1.400 . S
C972 C975 1.386 . S
H973 C989 0.930 . S
H974 C990 0.931 . S
C975 H963 0.929 . S
C975 C969 1.390 . S
C975 C972 1.386 . S
C976 C971 1.490 . S
C976 C978 1.395 . S
C976 C979 1.403 . S
H977 C983 0.930 . S
C978 H964 0.930 . S
C978 C976 1.395 . S
C978 C981 1.403 . S
C979 C976 1.403 . S
C979 C980 1.524 . S
C979 C983 1.400 . S
C980 H965 0.960 . S
C980 H966 0.960 . S
C980 H967 0.960 . S
C980 C979 1.524 . S
C981 C978 1.403 . S
C981 C982 1.392 . S
C981 C985 1.495 . S
C982 C981 1.392 . S
C982 C983 1.385 . S
C982 C984 1.478 . S
C983 H977 0.930 . S
C983 C979 1.400 . S
C983 C982 1.385 . S
C984 C982 1.478 . S
C984 C986 1.381 . S
C984 C990 1.383 . S
C985 C981 1.495 . S
C985 H991 0.959 . S
C985 H992 0.961 . S
C985 H993 0.960 . S
C986 C984 1.381 . S
C986 C987 1.394 . S
C986 H994 0.930 . S
C987 C986 1.394 . S
C987 C988 1.383 . S
C987 H995 0.929 . S
C988 C987 1.383 . S
C988 C989 1.377 . S
C989 H973 0.930 . S
C989 C988 1.377 . S
C989 C990 1.379 . S
C990 H974 0.931 . S
C990 C984 1.383 . S
C990 C989 1.379 . S
H991 C985 0.959 . S
H992 C985 0.961 . S
H993 C985 0.960 . S
H994 C986 0.930 . S
H995 C987 0.929 . S
H996 C1004 0.929 . S
H997 C1006 0.930 . S
H998 C1008 0.930 . S
H999 C1011 0.929 . S
H1000 C1014 0.930 . S
H1001 C1016 0.960 . S
H1002 C1016 0.960 . S
H1003 C1016 0.960 . S
C1004 H996 0.929 . S
C1004 C1005 1.377 . S
C1004 C1006 1.384 . S
C1005 C1004 1.377 . S
C1005 C1011 1.390 . S
C1006 H997 0.930 . S
C1006 C1004 1.384 . S
C1006 C1007 1.372 . S
C1007 C1006 1.372 . S
C1007 C1008 1.400 . S
C1007 C1012 1.490 . S
C1008 H998 0.930 . S
C1008 C1007 1.400 . S
C1008 C1011 1.386 . S
H1009 C1025 0.930 . S
H1010 C1026 0.931 . S
C1011 H999 0.929 . S
C1011 C1005 1.390 . S
C1011 C1008 1.386 . S
C1012 C1007 1.490 . S
C1012 C1014 1.395 . S
C1012 C1015 1.403 . S
H1013 C1019 0.930 . S
C1014 H1000 0.930 . S
C1014 C1012 1.395 . S
C1014 C1017 1.403 . S
C1015 C1012 1.403 . S
C1015 C1016 1.524 . S
C1015 C1019 1.400 . S
C1016 H1001 0.960 . S
C1016 H1002 0.960 . S
C1016 H1003 0.960 . S
C1016 C1015 1.524 . S
C1017 C1014 1.403 . S
C1017 C1018 1.392 . S
C1017 C1021 1.495 . S
C1018 C1017 1.392 . S
C1018 C1019 1.385 . S
C1018 C1020 1.478 . S
C1019 H1013 0.930 . S
C1019 C1015 1.400 . S
C1019 C1018 1.385 . S
C1020 C1018 1.478 . S
C1020 C1022 1.381 . S
C1020 C1026 1.383 . S
C1021 C1017 1.495 . S
C1021 H1027 0.959 . S
C1021 H1028 0.961 . S
C1021 H1029 0.960 . S
C1022 C1020 1.381 . S
C1022 C1023 1.394 . S
C1022 H1030 0.930 . S
C1023 C1022 1.394 . S
C1023 C1024 1.383 . S
C1023 H1031 0.929 . S
C1024 C1023 1.383 . S
C1024 C1025 1.377 . S
C1025 H1009 0.930 . S
C1025 C1024 1.377 . S
C1025 C1026 1.379 . S
C1026 H1010 0.931 . S
C1026 C1020 1.383 . S
C1026 C1025 1.379 . S
H1027 C1021 0.959 . S
H1028 C1021 0.961 . S
H1029 C1021 0.960 . S
H1030 C1022 0.930 . S
H1031 C1023 0.929 . S
H1032 C1040 0.929 . S
H1033 C1042 0.930 . S
H1034 C1044 0.930 . S
H1035 C1047 0.929 . S
H1036 C1050 0.930 . S
H1037 C1052 0.960 . S
H1038 C1052 0.960 . S
H1039 C1052 0.960 . S
C1040 H1032 0.929 . S
C1040 C1041 1.377 . S
C1040 C1042 1.384 . S
C1041 C1040 1.377 . S
C1041 C1047 1.390 . S
C1042 H1033 0.930 . S
C1042 C1040 1.384 . S
C1042 C1043 1.372 . S
C1043 C1042 1.372 . S
C1043 C1044 1.400 . S
C1043 C1048 1.490 . S
C1044 H1034 0.930 . S
C1044 C1043 1.400 . S
C1044 C1047 1.386 . S
H1045 C1061 0.930 . S
H1046 C1062 0.931 . S
C1047 H1035 0.929 . S
C1047 C1041 1.390 . S
C1047 C1044 1.386 . S
C1048 C1043 1.490 . S
C1048 C1050 1.395 . S
C1048 C1051 1.403 . S
H1049 C1055 0.930 . S
C1050 H1036 0.930 . S
C1050 C1048 1.395 . S
C1050 C1053 1.403 . S
C1051 C1048 1.403 . S
C1051 C1052 1.524 . S
C1051 C1055 1.400 . S
C1052 H1037 0.960 . S
C1052 H1038 0.960 . S
C1052 H1039 0.960 . S
C1052 C1051 1.524 . S
C1053 C1050 1.403 . S
C1053 C1054 1.392 . S
C1053 C1057 1.495 . S
C1054 C1053 1.392 . S
C1054 C1055 1.385 . S
C1054 C1056 1.478 . S
C1055 H1049 0.930 . S
C1055 C1051 1.400 . S
C1055 C1054 1.385 . S
C1056 C1054 1.478 . S
C1056 C1058 1.381 . S
C1056 C1062 1.383 . S
C1057 C1053 1.495 . S
C1057 H1063 0.959 . S
C1057 H1064 0.961 . S
C1057 H1065 0.960 . S
C1058 C1056 1.381 . S
C1058 C1059 1.394 . S
C1058 H1066 0.930 . S
C1059 C1058 1.394 . S
C1059 C1060 1.383 . S
C1059 H1067 0.929 . S
C1060 C1059 1.383 . S
C1060 C1061 1.377 . S
C1061 H1045 0.930 . S
C1061 C1060 1.377 . S
C1061 C1062 1.379 . S
C1062 H1046 0.931 . S
C1062 C1056 1.383 . S
C1062 C1061 1.379 . S
H1063 C1057 0.959 . S
H1064 C1057 0.961 . S
H1065 C1057 0.960 . S
H1066 C1058 0.930 . S
H1067 C1059 0.929 . S
H1068 C1076 0.929 . S
H1069 C1078 0.930 . S
H1070 C1080 0.930 . S
H1071 C1083 0.929 . S
H1072 C1086 0.930 . S
H1073 C1088 0.960 . S
H1074 C1088 0.960 . S
H1075 C1088 0.960 . S
C1076 H1068 0.929 . S
C1076 C1077 1.377 . S
C1076 C1078 1.384 . S
C1077 C1076 1.377 . S
C1077 C1083 1.390 . S
C1078 H1069 0.930 . S
C1078 C1076 1.384 . S
C1078 C1079 1.372 . S
C1079 C1078 1.372 . S
C1079 C1080 1.400 . S
C1079 C1084 1.490 . S
C1080 H1070 0.930 . S
C1080 C1079 1.400 . S
C1080 C1083 1.386 . S
H1081 C1097 0.930 . S
H1082 C1098 0.931 . S
C1083 H1071 0.929 . S
C1083 C1077 1.390 . S
C1083 C1080 1.386 . S
C1084 C1079 1.490 . S
C1084 C1086 1.395 . S
C1084 C1087 1.403 . S
H1085 C1091 0.930 . S
C1086 H1072 0.930 . S
C1086 C1084 1.395 . S
C1086 C1089 1.403 . S
C1087 C1084 1.403 . S
C1087 C1088 1.524 . S
C1087 C1091 1.400 . S
C1088 H1073 0.960 . S
C1088 H1074 0.960 . S
C1088 H1075 0.960 . S
C1088 C1087 1.524 . S
C1089 C1086 1.403 . S
C1089 C1090 1.392 . S
C1089 C1093 1.495 . S
C1090 C1089 1.392 . S
C1090 C1091 1.385 . S
C1090 C1092 1.478 . S
C1091 H1085 0.930 . S
C1091 C1087 1.400 . S
C1091 C1090 1.385 . S
C1092 C1090 1.478 . S
C1092 C1094 1.381 . S
C1092 C1098 1.383 . S
C1093 C1089 1.495 . S
C1093 H1099 0.959 . S
C1093 H1100 0.961 . S
C1093 H1101 0.960 . S
C1094 C1092 1.381 . S
C1094 C1095 1.394 . S
C1094 H1102 0.930 . S
C1095 C1094 1.394 . S
C1095 C1096 1.383 . S
C1095 H1103 0.929 . S
C1096 C1095 1.383 . S
C1096 C1097 1.377 . S
C1097 H1081 0.930 . S
C1097 C1096 1.377 . S
C1097 C1098 1.379 . S
C1098 H1082 0.931 . S
C1098 C1092 1.383 . S
C1098 C1097 1.379 . S
H1099 C1093 0.959 . S
H1100 C1093 0.961 . S
H1101 C1093 0.960 . S
H1102 C1094 0.930 . S
H1103 C1095 0.929 . S
H1104 C1112 0.929 . S
H1105 C1114 0.930 . S
H1106 C1116 0.930 . S
H1107 C1119 0.929 . S
H1108 C1122 0.930 . S
H1109 C1124 0.960 . S
H1110 C1124 0.960 . S
H1111 C1124 0.960 . S
C1112 H1104 0.929 . S
C1112 C1113 1.377 . S
C1112 C1114 1.384 . S
C1113 C1112 1.377 . S
C1113 C1119 1.390 . S
C1114 H1105 0.930 . S
C1114 C1112 1.384 . S
C1114 C1115 1.372 . S
C1115 C1114 1.372 . S
C1115 C1116 1.400 . S
C1115 C1120 1.490 . S
C1116 H1106 0.930 . S
C1116 C1115 1.400 . S
C1116 C1119 1.386 . S
H1117 C1133 0.930 . S
H1118 C1134 0.931 . S
C1119 H1107 0.929 . S
C1119 C1113 1.390 . S
C1119 C1116 1.386 . S
C1120 C1115 1.490 . S
C1120 C1122 1.395 . S
C1120 C1123 1.403 . S
H1121 C1127 0.930 . S
C1122 H1108 0.930 . S
C1122 C1120 1.395 . S
C1122 C1125 1.403 . S
C1123 C1120 1.403 . S
C1123 C1124 1.524 . S
C1123 C1127 1.400 . S
C1124 H1109 0.960 . S
C1124 H1110 0.960 . S
C1124 H1111 0.960 . S
C1124 C1123 1.524 . S
C1125 C1122 1.403 . S
C1125 C1126 1.392 . S
C1125 C1129 1.495 . S
C1126 C1125 1.392 . S
C1126 C1127 1.385 . S
C1126 C1128 1.478 . S
C1127 H1121 0.930 . S
C1127 C1123 1.400 . S
C1127 C1126 1.385 . S
C1128 C1126 1.478 . S
C1128 C1130 1.381 . S
C1128 C1134 1.383 . S
C1129 C1125 1.495 . S
C1129 H1135 0.959 . S
C1129 H1136 0.961 . S
C1129 H1137 0.960 . S
C1130 C1128 1.381 . S
C1130 C1131 1.394 . S
C1130 H1138 0.930 . S
C1131 C1130 1.394 . S
C1131 C1132 1.383 . S
C1131 H1139 0.929 . S
C1132 C1131 1.383 . S
C1132 C1133 1.377 . S
C1133 H1117 0.930 . S
C1133 C1132 1.377 . S
C1133 C1134 1.379 . S
C1134 H1118 0.931 . S
C1134 C1128 1.383 . S
C1134 C1133 1.379 . S
H1135 C1129 0.959 . S
H1136 C1129 0.961 . S
H1137 C1129 0.960 . S
H1138 C1130 0.930 . S
H1139 C1131 0.929 . S
H1140 C1148 0.929 . S
H1141 C1150 0.930 . S
H1142 C1152 0.930 . S
H1143 C1155 0.929 . S
H1144 C1158 0.930 . S
H1145 C1160 0.960 . S
H1146 C1160 0.960 . S
H1147 C1160 0.960 . S
C1148 H1140 0.929 . S
C1148 C1149 1.377 . S
C1148 C1150 1.384 . S
C1149 C1148 1.377 . S
C1149 C1155 1.390 . S
C1150 H1141 0.930 . S
C1150 C1148 1.384 . S
C1150 C1151 1.372 . S
C1151 C1150 1.372 . S
C1151 C1152 1.400 . S
C1151 C1156 1.490 . S
C1152 H1142 0.930 . S
C1152 C1151 1.400 . S
C1152 C1155 1.386 . S
H1153 C1169 0.930 . S
H1154 C1170 0.931 . S
C1155 H1143 0.929 . S
C1155 C1149 1.390 . S
C1155 C1152 1.386 . S
C1156 C1151 1.490 . S
C1156 C1158 1.395 . S
C1156 C1159 1.403 1_655 S
H1157 C1163 0.930 . S
C1158 H1144 0.930 . S
C1158 C1156 1.395 . S
C1158 C1161 1.403 . S
C1159 C1156 1.403 1_455 S
C1159 C1160 1.524 . S
C1159 C1163 1.400 . S
C1160 H1145 0.960 . S
C1160 H1146 0.960 . S
C1160 H1147 0.960 . S
C1160 C1159 1.524 . S
C1161 C1158 1.403 . S
C1161 C1162 1.392 1_655 S
C1161 C1165 1.495 . S
C1162 C1161 1.392 1_455 S
C1162 C1163 1.385 . S
C1162 C1164 1.478 . S
C1163 H1157 0.930 . S
C1163 C1159 1.400 . S
C1163 C1162 1.385 . S
C1164 C1162 1.478 . S
C1164 C1166 1.381 . S
C1164 C1170 1.383 . S
C1165 C1161 1.495 . S
C1165 H1171 0.959 . S
C1165 H1172 0.961 . S
C1165 H1173 0.960 . S
C1166 C1164 1.381 . S
C1166 C1167 1.394 . S
C1166 H1174 0.930 . S
C1167 C1166 1.394 . S
C1167 C1168 1.383 . S
C1167 H1175 0.929 . S
C1168 C1167 1.383 . S
C1168 C1169 1.377 . S
C1169 H1153 0.930 . S
C1169 C1168 1.377 . S
C1169 C1170 1.379 . S
C1170 H1154 0.931 . S
C1170 C1164 1.383 . S
C1170 C1169 1.379 . S
H1171 C1165 0.959 . S
H1172 C1165 0.961 . S
H1173 C1165 0.960 . S
H1174 C1166 0.930 . S
H1175 C1167 0.929 . S
H1176 C1184 0.929 . S
H1177 C1186 0.930 . S
H1178 C1188 0.930 . S
H1179 C1191 0.929 . S
H1180 C1194 0.930 . S
H1181 C1196 0.960 . S
H1182 C1196 0.960 . S
H1183 C1196 0.960 . S
C1184 H1176 0.929 . S
C1184 C1185 1.377 . S
C1184 C1186 1.384 . S
C1185 C1184 1.377 . S
C1185 C1191 1.390 . S
C1186 H1177 0.930 . S
C1186 C1184 1.384 . S
C1186 C1187 1.372 . S
C1187 C1186 1.372 . S
C1187 C1188 1.400 . S
C1187 C1192 1.490 . S
C1188 H1178 0.930 . S
C1188 C1187 1.400 . S
C1188 C1191 1.386 . S
H1189 C1205 0.930 . S
H1190 C1206 0.931 . S
C1191 H1179 0.929 . S
C1191 C1185 1.390 . S
C1191 C1188 1.386 . S
C1192 C1187 1.490 . S
C1192 C1194 1.395 . S
C1192 C1195 1.403 . S
H1193 C1199 0.930 . S
C1194 H1180 0.930 . S
C1194 C1192 1.395 . S
C1194 C1197 1.403 . S
C1195 C1192 1.403 . S
C1195 C1196 1.524 . S
C1195 C1199 1.400 . S
C1196 H1181 0.960 . S
C1196 H1182 0.960 . S
C1196 H1183 0.960 . S
C1196 C1195 1.524 . S
C1197 C1194 1.403 . S
C1197 C1198 1.392 . S
C1197 C1201 1.495 . S
C1198 C1197 1.392 . S
C1198 C1199 1.385 . S
C1198 C1200 1.478 . S
C1199 H1193 0.930 . S
C1199 C1195 1.400 . S
C1199 C1198 1.385 . S
C1200 C1198 1.478 . S
C1200 C1202 1.381 . S
C1200 C1206 1.383 . S
C1201 C1197 1.495 . S
C1201 H1207 0.959 . S
C1201 H1208 0.961 . S
C1201 H1209 0.960 . S
C1202 C1200 1.381 . S
C1202 C1203 1.394 . S
C1202 H1210 0.930 . S
C1203 C1202 1.394 . S
C1203 C1204 1.383 . S
C1203 H1211 0.929 . S
C1204 C1203 1.383 . S
C1204 C1205 1.377 . S
C1205 H1189 0.930 . S
C1205 C1204 1.377 . S
C1205 C1206 1.379 . S
C1206 H1190 0.931 . S
C1206 C1200 1.383 . S
C1206 C1205 1.379 . S
H1207 C1201 0.959 . S
H1208 C1201 0.961 . S
H1209 C1201 0.960 . S
H1210 C1202 0.930 . S
H1211 C1203 0.929 . S
H1212 C1220 0.929 . S
H1213 C1222 0.930 . S
H1214 C1224 0.930 1_655 S
H1215 C1227 0.929 . S
H1216 C1230 0.930 . S
H1217 C1232 0.960 . S
H1218 C1232 0.960 . S
H1219 C1232 0.960 . S
C1220 H1212 0.929 . S
C1220 C1221 1.377 . S
C1220 C1222 1.384 . S
C1221 C1220 1.377 . S
C1221 C1227 1.390 . S
C1222 H1213 0.930 . S
C1222 C1220 1.384 . S
C1222 C1223 1.372 . S
C1223 C1222 1.372 . S
C1223 C1224 1.400 . S
C1223 C1228 1.490 . S
C1224 H1214 0.930 1_455 S
C1224 C1223 1.400 . S
C1224 C1227 1.386 . S
H1225 C1241 0.930 . S
H1226 C1242 0.931 . S
C1227 H1215 0.929 . S
C1227 C1221 1.390 . S
C1227 C1224 1.386 . S
C1228 C1223 1.490 . S
C1228 C1230 1.395 . S
C1228 C1231 1.403 1_455 S
H1229 C1235 0.930 . S
C1230 H1216 0.930 . S
C1230 C1228 1.395 . S
C1230 C1233 1.403 . S
C1231 C1228 1.403 1_655 S
C1231 C1232 1.524 . S
C1231 C1235 1.400 . S
C1232 H1217 0.960 . S
C1232 H1218 0.960 . S
C1232 H1219 0.960 . S
C1232 C1231 1.524 . S
C1233 C1230 1.403 . S
C1233 C1234 1.392 1_455 S
C1233 C1237 1.495 . S
C1234 C1233 1.392 1_655 S
C1234 C1235 1.385 . S
C1234 C1236 1.478 . S
C1235 H1229 0.930 . S
C1235 C1231 1.400 . S
C1235 C1234 1.385 . S
C1236 C1234 1.478 . S
C1236 C1238 1.381 . S
C1236 C1242 1.383 . S
C1237 C1233 1.495 . S
C1237 H1243 0.959 . S
C1237 H1244 0.961 . S
C1237 H1245 0.960 . S
C1238 C1236 1.381 . S
C1238 C1239 1.394 . S
C1238 H1246 0.930 . S
C1239 C1238 1.394 . S
C1239 C1240 1.383 . S
C1239 H1247 0.929 . S
C1240 C1239 1.383 . S
C1240 C1241 1.377 . S
C1241 H1225 0.930 . S
C1241 C1240 1.377 . S
C1241 C1242 1.379 . S
C1242 H1226 0.931 . S
C1242 C1236 1.383 . S
C1242 C1241 1.379 . S
H1243 C1237 0.959 . S
H1244 C1237 0.961 . S
H1245 C1237 0.960 . S
H1246 C1238 0.930 . S
H1247 C1239 0.929 . S
H1248 C1256 0.929 . S
H1249 C1258 0.930 . S
H1250 C1260 0.930 . S
H1251 C1263 0.929 . S
H1252 C1266 0.930 . S
H1253 C1268 0.960 . S
H1254 C1268 0.960 . S
H1255 C1268 0.960 . S
C1256 H1248 0.929 . S
C1256 C1257 1.377 . S
C1256 C1258 1.384 . S
C1257 C1256 1.377 . S
C1257 C1263 1.390 . S
C1258 H1249 0.930 . S
C1258 C1256 1.384 . S
C1258 C1259 1.372 . S
C1259 C1258 1.372 . S
C1259 C1260 1.400 . S
C1259 C1264 1.490 . S
C1260 H1250 0.930 . S
C1260 C1259 1.400 . S
C1260 C1263 1.386 . S
H1261 C1277 0.930 . S
H1262 C1278 0.931 . S
C1263 H1251 0.929 . S
C1263 C1257 1.390 . S
C1263 C1260 1.386 . S
C1264 C1259 1.490 . S
C1264 C1266 1.395 . S
C1264 C1267 1.403 1_554 S
H1265 C1271 0.930 . S
C1266 H1252 0.930 . S
C1266 C1264 1.395 . S
C1266 C1269 1.403 . S
C1267 C1264 1.403 1_556 S
C1267 C1268 1.524 . S
C1267 C1271 1.400 . S
C1268 H1253 0.960 . S
C1268 H1254 0.960 . S
C1268 H1255 0.960 . S
C1268 C1267 1.524 . S
C1269 C1266 1.403 . S
C1269 C1270 1.392 1_554 S
C1269 C1273 1.495 . S
C1270 C1269 1.392 1_556 S
C1270 C1271 1.385 . S
C1270 C1272 1.478 . S
C1271 H1265 0.930 . S
C1271 C1267 1.400 . S
C1271 C1270 1.385 . S
C1272 C1270 1.478 . S
C1272 C1274 1.381 . S
C1272 C1278 1.383 . S
C1273 C1269 1.495 . S
C1273 H1279 0.959 . S
C1273 H1280 0.961 . S
C1273 H1281 0.960 . S
C1274 C1272 1.381 . S
C1274 C1275 1.394 . S
C1274 H1282 0.930 . S
C1275 C1274 1.394 . S
C1275 C1276 1.383 . S
C1275 H1283 0.929 . S
C1276 C1275 1.383 . S
C1276 C1277 1.377 . S
C1277 H1261 0.930 . S
C1277 C1276 1.377 . S
C1277 C1278 1.379 . S
C1278 H1262 0.931 . S
C1278 C1272 1.383 . S
C1278 C1277 1.379 . S
H1279 C1273 0.959 . S
H1280 C1273 0.961 . S
H1281 C1273 0.960 . S
H1282 C1274 0.930 . S
H1283 C1275 0.929 . S
H1284 C1292 0.929 . S
H1285 C1294 0.930 1_556 S
H1286 C1296 0.930 . S
H1287 C1299 0.929 . S
H1288 C1302 0.930 . S
H1289 C1304 0.960 1_556 S
H1290 C1304 0.960 1_556 S
H1291 C1304 0.960 . S
C1292 H1284 0.929 . S
C1292 C1293 1.377 . S
C1292 C1294 1.384 . S
C1293 C1292 1.377 . S
C1293 C1299 1.390 . S
C1294 H1285 0.930 1_554 S
C1294 C1292 1.384 . S
C1294 C1295 1.372 . S
C1295 C1294 1.372 . S
C1295 C1296 1.400 . S
C1295 C1300 1.490 . S
C1296 H1286 0.930 . S
C1296 C1295 1.400 . S
C1296 C1299 1.386 . S
H1297 C1313 0.930 . S
H1298 C1314 0.931 1_554 S
C1299 H1287 0.929 . S
C1299 C1293 1.390 . S
C1299 C1296 1.386 . S
C1300 C1295 1.490 . S
C1300 C1302 1.395 . S
C1300 C1303 1.403 . S
H1301 C1307 0.930 . S
C1302 H1288 0.930 . S
C1302 C1300 1.395 . S
C1302 C1305 1.410 . S
C1303 C1300 1.403 . S
C1303 C1304 1.524 . S
C1303 C1307 1.400 1_554 S
C1304 H1289 0.960 1_554 S
C1304 H1290 0.960 1_554 S
C1304 H1291 0.960 . S
C1304 C1303 1.524 . S
C1305 C1302 1.410 . S
C1305 C1306 1.387 1_554 S
C1305 C1309 1.494 1_554 S
C1306 C1305 1.387 1_556 S
C1306 C1307 1.385 . S
C1306 C1308 1.478 . S
C1307 H1301 0.930 . S
C1307 C1303 1.400 1_556 S
C1307 C1306 1.385 . S
C1308 C1306 1.478 . S
C1308 C1310 1.381 . S
C1308 C1314 1.383 . S
C1309 C1305 1.494 1_556 S
C1309 H1315 0.950 1_556 S
C1309 H1316 0.944 1_556 S
C1309 H1317 0.988 . S
C1310 C1308 1.381 . S
C1310 C1311 1.394 . S
C1310 H1318 0.930 . S
C1311 C1310 1.394 . S
C1311 C1312 1.383 . S
C1311 H1319 0.929 . S
C1312 C1311 1.383 . S
C1312 C1313 1.377 . S
C1313 H1297 0.930 . S
C1313 C1312 1.377 . S
C1313 C1314 1.379 . S
C1314 H1298 0.931 1_556 S
C1314 C1308 1.383 . S
C1314 C1313 1.379 . S
H1315 C1309 0.950 1_554 S
H1316 C1309 0.944 1_554 S
H1317 C1309 0.988 . S
H1318 C1310 0.930 . S
H1319 C1311 0.929 . S
H1320 C1328 0.929 . S
H1321 C1330 0.930 . S
H1322 C1332 0.930 . S
H1323 C1335 0.929 . S
H1324 C1338 0.930 . S
H1325 C1340 0.960 . S
H1326 C1340 0.960 . S
H1327 C1340 0.960 . S
C1328 H1320 0.929 . S
C1328 C1329 1.377 . S
C1328 C1330 1.384 . S
C1329 C1328 1.377 . S
C1329 C1335 1.390 . S
C1330 H1321 0.930 . S
C1330 C1328 1.384 . S
C1330 C1331 1.372 . S
C1331 C1330 1.372 . S
C1331 C1332 1.400 . S
C1331 C1336 1.490 . S
C1332 H1322 0.930 . S
C1332 C1331 1.400 . S
C1332 C1335 1.386 . S
H1333 C1349 0.930 . S
H1334 C1350 0.931 . S
C1335 H1323 0.929 . S
C1335 C1329 1.390 . S
C1335 C1332 1.386 . S
C1336 C1331 1.490 . S
C1336 C1338 1.395 . S
C1336 C1339 1.403 . S
H1337 C1343 0.930 . S
C1338 H1324 0.930 . S
C1338 C1336 1.395 . S
C1338 C1341 1.403 . S
C1339 C1336 1.403 . S
C1339 C1340 1.524 . S
C1339 C1343 1.400 . S
C1340 H1325 0.960 . S
C1340 H1326 0.960 . S
C1340 H1327 0.960 . S
C1340 C1339 1.524 . S
C1341 C1338 1.403 . S
C1341 C1342 1.392 . S
C1341 C1345 1.495 . S
C1342 C1341 1.392 . S
C1342 C1343 1.385 . S
C1342 C1344 1.478 . S
C1343 H1337 0.930 . S
C1343 C1339 1.400 . S
C1343 C1342 1.385 . S
C1344 C1342 1.478 . S
C1344 C1346 1.381 . S
C1344 C1350 1.383 . S
C1345 C1341 1.495 . S
C1345 H1351 0.959 . S
C1345 H1352 0.961 . S
C1345 H1353 0.960 . S
C1346 C1344 1.381 . S
C1346 C1347 1.394 . S
C1346 H1354 0.930 . S
C1347 C1346 1.394 . S
C1347 C1348 1.383 . S
C1347 H1355 0.929 . S
C1348 C1347 1.383 . S
C1348 C1349 1.377 . S
C1349 H1333 0.930 . S
C1349 C1348 1.377 . S
C1349 C1350 1.379 . S
C1350 H1334 0.931 . S
C1350 C1344 1.383 . S
C1350 C1349 1.379 . S
H1351 C1345 0.959 . S
H1352 C1345 0.961 . S
H1353 C1345 0.960 . S
H1354 C1346 0.930 . S
H1355 C1347 0.929 . S
H1356 C1364 0.929 . S
H1357 C1366 0.930 . S
H1358 C1368 0.930 . S
H1359 C1371 0.929 . S
H1360 C1374 0.930 . S
H1361 C1376 0.960 . S
H1362 C1376 0.960 . S
H1363 C1376 0.960 . S
C1364 H1356 0.929 . S
C1364 C1365 1.377 . S
C1364 C1366 1.384 . S
C1365 C1364 1.377 . S
C1365 C1371 1.390 . S
C1366 H1357 0.930 . S
C1366 C1364 1.384 . S
C1366 C1367 1.372 . S
C1367 C1366 1.372 . S
C1367 C1368 1.400 . S
C1367 C1372 1.490 . S
C1368 H1358 0.930 . S
C1368 C1367 1.400 . S
C1368 C1371 1.386 . S
H1369 C1385 0.930 . S
H1370 C1386 0.931 . S
C1371 H1359 0.929 . S
C1371 C1365 1.390 . S
C1371 C1368 1.386 . S
C1372 C1367 1.490 . S
C1372 C1374 1.395 . S
C1372 C1375 1.403 . S
H1373 C1379 0.930 . S
C1374 H1360 0.930 . S
C1374 C1372 1.395 . S
C1374 C1377 1.403 . S
C1375 C1372 1.403 . S
C1375 C1376 1.524 . S
C1375 C1379 1.400 . S
C1376 H1361 0.960 . S
C1376 H1362 0.960 . S
C1376 H1363 0.960 . S
C1376 C1375 1.524 . S
C1377 C1374 1.403 . S
C1377 C1378 1.392 . S
C1377 C1381 1.495 . S
C1378 C1377 1.392 . S
C1378 C1379 1.385 . S
C1378 C1380 1.478 . S
C1379 H1373 0.930 . S
C1379 C1375 1.400 . S
C1379 C1378 1.385 . S
C1380 C1378 1.478 . S
C1380 C1382 1.381 . S
C1380 C1386 1.383 . S
C1381 C1377 1.495 . S
C1381 H1387 0.959 . S
C1381 H1388 0.961 . S
C1381 H1389 0.960 . S
C1382 C1380 1.381 . S
C1382 C1383 1.394 . S
C1382 H1390 0.930 . S
C1383 C1382 1.394 . S
C1383 C1384 1.383 . S
C1383 H1391 0.929 . S
C1384 C1383 1.383 . S
C1384 C1385 1.377 . S
C1385 H1369 0.930 . S
C1385 C1384 1.377 . S
C1385 C1386 1.379 . S
C1386 H1370 0.931 . S
C1386 C1380 1.383 . S
C1386 C1385 1.379 . S
H1387 C1381 0.959 . S
H1388 C1381 0.961 . S
H1389 C1381 0.960 . S
H1390 C1382 0.930 . S
H1391 C1383 0.929 . S
H1392 C1400 0.929 1_455 S
H1393 C1402 0.895 1_455 S
H1394 C1404 0.930 . S
H1395 C1407 0.929 . S
H1396 C1410 0.930 . S
H1397 C1412 0.960 . S
H1398 C1412 0.960 . S
H1399 C1412 0.960 . S
C1400 H1392 0.929 1_655 S
C1400 C1401 1.377 . S
C1400 C1402 1.384 . S
C1401 C1400 1.377 . S
C1401 C1407 1.390 . S
C1402 H1393 0.895 1_655 S
C1402 C1400 1.384 . S
C1402 C1403 1.372 . S
C1403 C1402 1.372 . S
C1403 C1404 1.400 . S
C1403 C1408 1.490 . S
C1404 H1394 0.930 . S
C1404 C1403 1.400 . S
C1404 C1407 1.386 . S
H1405 C1421 0.929 . S
H1406 C1422 0.931 . S
C1407 H1395 0.929 . S
C1407 C1401 1.390 . S
C1407 C1404 1.386 . S
C1408 C1403 1.490 . S
C1408 C1410 1.395 . S
C1408 C1411 1.403 . S
H1409 C1415 0.930 . S
C1410 H1396 0.930 . S
C1410 C1408 1.395 . S
C1410 C1413 1.403 . S
C1411 C1408 1.403 . S
C1411 C1412 1.524 . S
C1411 C1415 1.400 . S
C1412 H1397 0.960 . S
C1412 H1398 0.960 . S
C1412 H1399 0.960 . S
C1412 C1411 1.524 . S
C1413 C1410 1.403 . S
C1413 C1414 1.392 . S
C1413 C1417 1.495 . S
C1414 C1413 1.392 . S
C1414 C1415 1.385 . S
C1414 C1416 1.478 . S
C1415 H1409 0.930 . S
C1415 C1411 1.400 . S
C1415 C1414 1.385 . S
C1416 C1414 1.478 . S
C1416 C1418 1.381 . S
C1416 C1422 1.383 . S
C1417 C1413 1.495 . S
C1417 H1423 0.959 1_655 S
C1417 H1424 0.961 . S
C1417 H1425 0.960 1_655 S
C1418 C1416 1.381 . S
C1418 C1419 1.394 . S
C1418 H1426 0.930 . S
C1419 C1418 1.394 . S
C1419 C1420 1.383 . S
C1419 H1427 0.929 . S
C1420 C1419 1.383 . S
C1420 C1421 1.377 . S
C1421 H1405 0.929 . S
C1421 C1420 1.377 . S
C1421 C1422 1.379 . S
C1422 H1406 0.931 . S
C1422 C1416 1.383 . S
C1422 C1421 1.379 . S
H1423 C1417 0.959 1_455 S
H1424 C1417 0.961 . S
H1425 C1417 0.960 1_455 S
H1426 C1418 0.930 . S
H1427 C1419 0.929 . S
H1428 C1436 0.929 . S
H1429 C1438 0.930 . S
H1430 C1440 0.930 . S
H1431 C1443 0.929 . S
H1432 C1446 0.930 . S
H1433 C1448 0.960 . S
H1434 C1448 0.960 . S
H1435 C1448 0.960 . S
C1436 H1428 0.929 . S
C1436 C1437 1.377 . S
C1436 C1438 1.384 . S
C1437 C1436 1.377 . S
C1437 C1443 1.390 . S
C1438 H1429 0.930 . S
C1438 C1436 1.384 . S
C1438 C1439 1.372 . S
C1439 C1438 1.372 . S
C1439 C1440 1.400 . S
C1439 C1444 1.490 . S
C1440 H1430 0.930 . S
C1440 C1439 1.400 . S
C1440 C1443 1.386 . S
H1441 C1457 0.930 . S
H1442 C1458 0.931 . S
C1443 H1431 0.929 . S
C1443 C1437 1.390 . S
C1443 C1440 1.386 . S
C1444 C1439 1.490 . S
C1444 C1446 1.395 . S
C1444 C1447 1.403 . S
H1445 C1451 0.930 . S
C1446 H1432 0.930 . S
C1446 C1444 1.395 . S
C1446 C1449 1.403 . S
C1447 C1444 1.403 . S
C1447 C1448 1.524 . S
C1447 C1451 1.400 . S
C1448 H1433 0.960 . S
C1448 H1434 0.960 . S
C1448 H1435 0.960 . S
C1448 C1447 1.524 . S
C1449 C1446 1.403 . S
C1449 C1450 1.392 . S
C1449 C1453 1.495 . S
C1450 C1449 1.392 . S
C1450 C1451 1.385 . S
C1450 C1452 1.478 . S
C1451 H1445 0.930 . S
C1451 C1447 1.400 . S
C1451 C1450 1.385 . S
C1452 C1450 1.478 . S
C1452 C1454 1.381 . S
C1452 C1458 1.383 . S
C1453 C1449 1.495 . S
C1453 H1459 0.959 . S
C1453 H1460 0.961 . S
C1453 H1461 0.960 . S
C1454 C1452 1.381 . S
C1454 C1455 1.394 . S
C1454 H1462 0.930 . S
C1455 C1454 1.394 . S
C1455 C1456 1.383 . S
C1455 H1463 0.929 . S
C1456 C1455 1.383 . S
C1456 C1457 1.377 . S
C1457 H1441 0.930 . S
C1457 C1456 1.377 . S
C1457 C1458 1.379 . S
C1458 H1442 0.931 . S
C1458 C1452 1.383 . S
C1458 C1457 1.379 . S
H1459 C1453 0.959 . S
H1460 C1453 0.961 . S
H1461 C1453 0.960 . S
H1462 C1454 0.930 . S
H1463 C1455 0.929 . S
H1464 C1472 0.929 . S
H1465 C1474 0.930 . S
H1466 C1476 0.930 . S
H1467 C1479 0.865 1_565 S
H1468 C1482 0.930 . S
H1469 C1484 0.960 . S
H1470 C1484 0.960 . S
H1471 C1484 0.960 . S
C1472 H1464 0.929 . S
C1472 C1473 1.377 . S
C1472 C1474 1.384 . S
C1473 C1472 1.377 . S
C1473 C1479 1.404 . S
C1474 H1465 0.930 . S
C1474 C1472 1.384 . S
C1474 C1475 1.372 . S
C1475 C1474 1.372 . S
C1475 C1476 1.400 . S
C1475 C1480 1.490 . S
C1476 H1466 0.930 . S
C1476 C1475 1.400 . S
C1476 C1479 1.443 . S
H1477 C1493 0.930 . S
H1478 C1494 0.931 . S
C1479 H1467 0.865 1_545 S
C1479 C1473 1.404 . S
C1479 C1476 1.443 . S
C1480 C1475 1.490 . S
C1480 C1482 1.395 . S
C1480 C1483 1.403 . S
H1481 C1487 0.930 . S
C1482 H1468 0.930 . S
C1482 C1480 1.395 . S
C1482 C1485 1.403 . S
C1483 C1480 1.403 . S
C1483 C1484 1.524 . S
C1483 C1487 1.400 . S
C1484 H1469 0.960 . S
C1484 H1470 0.960 . S
C1484 H1471 0.960 . S
C1484 C1483 1.524 . S
C1485 C1482 1.403 . S
C1485 C1486 1.392 . S
C1485 C1489 1.495 . S
C1486 C1485 1.392 . S
C1486 C1487 1.385 . S
C1486 C1488 1.478 . S
C1487 H1481 0.930 . S
C1487 C1483 1.400 . S
C1487 C1486 1.385 . S
C1488 C1486 1.478 . S
C1488 C1490 1.381 . S
C1488 C1494 1.383 . S
C1489 C1485 1.495 . S
C1489 H1495 0.959 . S
C1489 H1496 0.961 . S
C1489 H1497 0.960 . S
C1490 C1488 1.381 . S
C1490 C1491 1.394 . S
C1490 H1498 0.930 . S
C1491 C1490 1.394 . S
C1491 C1492 1.383 . S
C1491 H1499 0.929 . S
C1492 C1491 1.383 . S
C1492 C1493 1.377 . S
C1493 H1477 0.930 . S
C1493 C1492 1.377 . S
C1493 C1494 1.379 . S
C1494 H1478 0.931 . S
C1494 C1488 1.383 . S
C1494 C1493 1.379 . S
H1495 C1489 0.959 . S
H1496 C1489 0.961 . S
H1497 C1489 0.960 . S
H1498 C1490 0.930 . S
H1499 C1491 0.929 . S
H1500 C1508 0.929 . S
H1501 C1510 0.930 . S
H1502 C1512 0.930 . S
H1503 C1515 0.929 . S
H1504 C1518 0.930 . S
H1505 C1520 0.960 . S
H1506 C1520 0.960 . S
H1507 C1520 0.960 . S
C1508 H1500 0.929 . S
C1508 C1509 1.377 . S
C1508 C1510 1.384 . S
C1509 C1508 1.377 . S
C1509 C1515 1.390 . S
C1510 H1501 0.930 . S
C1510 C1508 1.384 . S
C1510 C1511 1.372 . S
C1511 C1510 1.372 . S
C1511 C1512 1.400 . S
C1511 C1516 1.490 . S
C1512 H1502 0.930 . S
C1512 C1511 1.400 . S
C1512 C1515 1.386 . S
H1513 C1529 0.930 . S
H1514 C1530 0.931 . S
C1515 H1503 0.929 . S
C1515 C1509 1.390 . S
C1515 C1512 1.386 . S
C1516 C1511 1.490 . S
C1516 C1518 1.395 . S
C1516 C1519 1.403 . S
H1517 C1523 0.930 . S
C1518 H1504 0.930 . S
C1518 C1516 1.395 . S
C1518 C1521 1.403 . S
C1519 C1516 1.403 . S
C1519 C1520 1.524 . S
C1519 C1523 1.400 . S
C1520 H1505 0.960 . S
C1520 H1506 0.960 . S
C1520 H1507 0.960 . S
C1520 C1519 1.524 . S
C1521 C1518 1.403 . S
C1521 C1522 1.392 . S
C1521 C1525 1.495 . S
C1522 C1521 1.392 . S
C1522 C1523 1.385 . S
C1522 C1524 1.478 . S
C1523 H1517 0.930 . S
C1523 C1519 1.400 . S
C1523 C1522 1.385 . S
C1524 C1522 1.478 . S
C1524 C1526 1.381 . S
C1524 C1530 1.383 . S
C1525 C1521 1.495 . S
C1525 H1531 0.959 1_455 S
C1525 H1532 0.961 . S
C1525 H1533 0.960 . S
C1526 C1524 1.381 . S
C1526 C1527 1.394 . S
C1526 H1534 0.930 . S
C1527 C1526 1.394 . S
C1527 C1528 1.383 . S
C1527 H1535 0.929 . S
C1528 C1527 1.383 . S
C1528 C1529 1.377 . S
C1529 H1513 0.930 . S
C1529 C1528 1.377 . S
C1529 C1530 1.379 . S
C1530 H1514 0.931 . S
C1530 C1524 1.383 . S
C1530 C1529 1.379 . S
H1531 C1525 0.959 1_655 S
H1532 C1525 0.961 . S
H1533 C1525 0.960 . S
H1534 C1526 0.930 . S
H1535 C1527 0.929 . S
H1536 C1544 0.906 1_556 S
H1537 C1546 0.930 . S
H1538 C1548 0.930 . S
H1539 C1551 0.929 . S
H1540 C1554 0.930 . S
H1541 C1556 0.960 . S
H1542 C1556 0.960 . S
H1543 C1556 0.960 . S
C1544 H1536 0.906 1_554 S
C1544 C1545 1.377 . S
C1544 C1546 1.384 . S
C1545 C1544 1.377 . S
C1545 C1551 1.390 . S
C1546 H1537 0.930 . S
C1546 C1544 1.384 . S
C1546 C1547 1.372 . S
C1547 C1546 1.372 . S
C1547 C1548 1.400 . S
C1547 C1552 1.490 . S
C1548 H1538 0.930 . S
C1548 C1547 1.400 . S
C1548 C1551 1.386 . S
H1549 C1565 0.930 . S
H1550 C1566 0.931 . S
C1551 H1539 0.929 . S
C1551 C1545 1.390 . S
C1551 C1548 1.386 . S
C1552 C1547 1.490 . S
C1552 C1554 1.395 . S
C1552 C1555 1.403 . S
H1553 C1559 0.930 . S
C1554 H1540 0.930 . S
C1554 C1552 1.395 . S
C1554 C1557 1.403 . S
C1555 C1552 1.403 . S
C1555 C1556 1.524 . S
C1555 C1559 1.400 . S
C1556 H1541 0.960 . S
C1556 H1542 0.960 . S
C1556 H1543 0.960 . S
C1556 C1555 1.524 . S
C1557 C1554 1.403 . S
C1557 C1558 1.392 . S
C1557 C1561 1.495 . S
C1558 C1557 1.392 . S
C1558 C1559 1.385 . S
C1558 C1560 1.478 . S
C1559 H1553 0.930 . S
C1559 C1555 1.400 . S
C1559 C1558 1.385 . S
C1560 C1558 1.478 . S
C1560 C1562 1.381 . S
C1560 C1566 1.383 . S
C1561 C1557 1.495 . S
C1561 H1567 0.959 . S
C1561 H1568 0.961 . S
C1561 H1569 0.960 . S
C1562 C1560 1.381 . S
C1562 C1563 1.394 . S
C1562 H1570 0.930 . S
C1563 C1562 1.394 . S
C1563 C1564 1.383 . S
C1563 H1571 0.978 . S
C1564 C1563 1.383 . S
C1564 C1565 1.377 . S
C1565 H1549 0.930 . S
C1565 C1564 1.377 . S
C1565 C1566 1.379 . S
C1566 H1550 0.931 . S
C1566 C1560 1.383 . S
C1566 C1565 1.379 . S
H1567 C1561 0.959 . S
H1568 C1561 0.961 . S
H1569 C1561 0.960 . S
H1570 C1562 0.930 . S
H1571 C1563 0.978 . S
H1572 C1580 0.929 . S
H1573 C1582 0.930 . S
H1574 C1584 0.930 . S
H1575 C1587 0.929 . S
H1576 C1590 0.930 . S
H1577 C1592 0.960 . S
H1578 C1592 0.960 . S
H1579 C1592 0.960 . S
C1580 H1572 0.929 . S
C1580 C1581 1.377 . S
C1580 C1582 1.384 . S
C1581 C1580 1.377 . S
C1581 C1587 1.390 . S
C1582 H1573 0.930 . S
C1582 C1580 1.384 . S
C1582 C1583 1.372 . S
C1583 C1582 1.372 . S
C1583 C1584 1.400 . S
C1583 C1588 1.490 . S
C1584 H1574 0.930 . S
C1584 C1583 1.400 . S
C1584 C1587 1.386 . S
H1585 C1601 0.930 . S
H1586 C1602 0.931 . S
C1587 H1575 0.929 . S
C1587 C1581 1.390 . S
C1587 C1584 1.386 . S
C1588 C1583 1.490 . S
C1588 C1590 1.395 . S
C1588 C1591 1.403 . S
H1589 C1595 0.930 . S
C1590 H1576 0.930 . S
C1590 C1588 1.395 . S
C1590 C1593 1.403 . S
C1591 C1588 1.403 . S
C1591 C1592 1.524 . S
C1591 C1595 1.400 . S
C1592 H1577 0.960 . S
C1592 H1578 0.960 . S
C1592 H1579 0.960 . S
C1592 C1591 1.524 . S
C1593 C1590 1.403 . S
C1593 C1594 1.392 . S
C1593 C1597 1.495 . S
C1594 C1593 1.392 . S
C1594 C1595 1.385 . S
C1594 C1596 1.478 . S
C1595 H1589 0.930 . S
C1595 C1591 1.400 . S
C1595 C1594 1.385 . S
C1596 C1594 1.478 . S
C1596 C1598 1.381 . S
C1596 C1602 1.383 . S
C1597 C1593 1.495 . S
C1597 H1603 0.959 . S
C1597 H1604 0.961 . S
C1597 H1605 0.960 . S
C1598 C1596 1.381 . S
C1598 C1599 1.394 . S
C1598 H1606 0.930 . S
C1599 C1598 1.394 . S
C1599 C1600 1.383 . S
C1599 H1607 0.929 . S
C1600 C1599 1.383 . S
C1600 C1601 1.377 . S
C1601 H1585 0.930 . S
C1601 C1600 1.377 . S
C1601 C1602 1.379 . S
C1602 H1586 0.931 . S
C1602 C1596 1.383 . S
C1602 C1601 1.379 . S
H1603 C1597 0.959 . S
H1604 C1597 0.961 . S
H1605 C1597 0.960 . S
H1606 C1598 0.930 . S
H1607 C1599 0.929 . S
H1608 C1616 0.929 . S
H1609 C1618 0.930 . S
H1610 C1620 0.930 . S
H1611 C1623 0.966 . S
H1612 C1626 0.930 . S
H1613 C1628 0.960 . S
H1614 C1628 0.960 . S
H1615 C1628 0.960 . S
C1616 H1608 0.929 . S
C1616 C1617 1.377 . S
C1616 C1618 1.384 . S
C1617 C1616 1.377 . S
C1617 C1623 1.376 1_545 S
C1618 H1609 0.930 . S
C1618 C1616 1.384 . S
C1618 C1619 1.372 . S
C1619 C1618 1.372 . S
C1619 C1620 1.400 . S
C1619 C1624 1.490 . S
C1620 H1610 0.930 . S
C1620 C1619 1.400 . S
C1620 C1623 1.364 1_545 S
H1621 C1637 0.930 . S
H1622 C1638 0.931 . S
C1623 H1611 0.966 . S
C1623 C1617 1.376 1_565 S
C1623 C1620 1.364 1_565 S
C1624 C1619 1.490 . S
C1624 C1626 1.395 . S
C1624 C1627 1.403 . S
H1625 C1631 0.930 . S
C1626 H1612 0.930 . S
C1626 C1624 1.395 . S
C1626 C1629 1.403 . S
C1627 C1624 1.403 . S
C1627 C1628 1.524 1_455 S
C1627 C1631 1.400 . S
C1628 H1613 0.960 . S
C1628 H1614 0.960 . S
C1628 H1615 0.960 . S
C1628 C1627 1.524 1_655 S
C1629 C1626 1.403 . S
C1629 C1630 1.392 . S
C1629 C1633 1.495 . S
C1630 C1629 1.392 . S
C1630 C1631 1.385 . S
C1630 C1632 1.478 . S
C1631 H1625 0.930 . S
C1631 C1627 1.400 . S
C1631 C1630 1.385 . S
C1632 C1630 1.478 . S
C1632 C1634 1.381 . S
C1632 C1638 1.383 . S
C1633 C1629 1.495 . S
C1633 H1639 0.959 . S
C1633 H1640 0.961 . S
C1633 H1641 0.960 . S
C1634 C1632 1.381 . S
C1634 C1635 1.394 . S
C1634 H1642 0.930 . S
C1635 C1634 1.394 . S
C1635 C1636 1.383 . S
C1635 H1643 0.929 . S
C1636 C1635 1.383 . S
C1636 C1637 1.377 . S
C1637 H1621 0.930 . S
C1637 C1636 1.377 . S
C1637 C1638 1.379 . S
C1638 H1622 0.931 . S
C1638 C1632 1.383 . S
C1638 C1637 1.379 . S
H1639 C1633 0.959 . S
H1640 C1633 0.961 . S
H1641 C1633 0.960 . S
H1642 C1634 0.930 . S
H1643 C1635 0.929 . S
H1644 C1652 0.929 . S
H1645 C1654 0.930 . S
H1646 C1656 0.930 . S
H1647 C1659 0.929 . S
H1648 C1662 0.930 . S
H1649 C1664 0.960 . S
H1650 C1664 0.960 . S
H1651 C1664 0.960 . S
C1652 H1644 0.929 . S
C1652 C1653 1.377 . S
C1652 C1654 1.384 . S
C1653 C1652 1.377 . S
C1653 C1659 1.390 . S
C1654 H1645 0.930 . S
C1654 C1652 1.384 . S
C1654 C1655 1.372 . S
C1655 C1654 1.372 . S
C1655 C1656 1.400 . S
C1655 C1660 1.490 . S
C1656 H1646 0.930 . S
C1656 C1655 1.400 . S
C1656 C1659 1.386 . S
H1657 C1673 0.930 . S
H1658 C1674 0.931 . S
C1659 H1647 0.929 . S
C1659 C1653 1.390 . S
C1659 C1656 1.386 . S
C1660 C1655 1.490 . S
C1660 C1662 1.395 . S
C1660 C1663 1.403 . S
H1661 C1667 0.930 . S
C1662 H1648 0.930 . S
C1662 C1660 1.395 . S
C1662 C1665 1.403 . S
C1663 C1660 1.403 . S
C1663 C1664 1.524 . S
C1663 C1667 1.400 . S
C1664 H1649 0.960 . S
C1664 H1650 0.960 . S
C1664 H1651 0.960 . S
C1664 C1663 1.524 . S
C1665 C1662 1.403 . S
C1665 C1666 1.392 . S
C1665 C1669 1.495 1_655 S
C1666 C1665 1.392 . S
C1666 C1667 1.385 . S
C1666 C1668 1.478 . S
C1667 H1661 0.930 . S
C1667 C1663 1.400 . S
C1667 C1666 1.385 . S
C1668 C1666 1.478 . S
C1668 C1670 1.381 . S
C1668 C1674 1.383 . S
C1669 C1665 1.495 1_455 S
C1669 H1675 0.959 . S
C1669 H1676 0.961 . S
C1669 H1677 0.960 . S
C1670 C1668 1.381 . S
C1670 C1671 1.394 . S
C1670 H1678 0.930 . S
C1671 C1670 1.394 . S
C1671 C1672 1.383 . S
C1671 H1679 0.929 . S
C1672 C1671 1.383 . S
C1672 C1673 1.377 . S
C1673 H1657 0.930 . S
C1673 C1672 1.377 . S
C1673 C1674 1.379 . S
C1674 H1658 0.931 . S
C1674 C1668 1.383 . S
C1674 C1673 1.379 . S
H1675 C1669 0.959 . S
H1676 C1669 0.961 . S
H1677 C1669 0.960 . S
H1678 C1670 0.930 . S
H1679 C1671 0.929 . S
H1680 C1688 0.929 . S
H1681 C1690 0.930 . S
H1682 C1692 0.930 . S
H1683 C1695 0.929 . S
H1684 C1698 0.930 . S
H1685 C1700 0.960 . S
H1686 C1700 0.960 . S
H1687 C1700 0.960 . S
C1688 H1680 0.929 . S
C1688 C1689 1.377 . S
C1688 C1690 1.384 . S
C1689 C1688 1.377 . S
C1689 C1695 1.390 . S
C1690 H1681 0.930 . S
C1690 C1688 1.384 . S
C1690 C1691 1.372 . S
C1691 C1690 1.372 . S
C1691 C1692 1.400 . S
C1691 C1696 1.490 . S
C1692 H1682 0.930 . S
C1692 C1691 1.400 . S
C1692 C1695 1.386 . S
H1693 C1709 0.930 . S
H1694 C1710 0.931 . S
C1695 H1683 0.929 . S
C1695 C1689 1.390 . S
C1695 C1692 1.386 . S
C1696 C1691 1.490 . S
C1696 C1698 1.395 . S
C1696 C1699 1.403 . S
H1697 C1703 0.930 . S
C1698 H1684 0.930 . S
C1698 C1696 1.395 . S
C1698 C1701 1.403 . S
C1699 C1696 1.403 . S
C1699 C1700 1.524 . S
C1699 C1703 1.400 . S
C1700 H1685 0.960 . S
C1700 H1686 0.960 . S
C1700 H1687 0.960 . S
C1700 C1699 1.524 . S
C1701 C1698 1.403 . S
C1701 C1702 1.392 . S
C1701 C1705 1.495 . S
C1702 C1701 1.392 . S
C1702 C1703 1.385 . S
C1702 C1704 1.478 . S
C1703 H1697 0.930 . S
C1703 C1699 1.400 . S
C1703 C1702 1.385 . S
C1704 C1702 1.478 . S
C1704 C1706 1.381 . S
C1704 C1710 1.383 . S
C1705 C1701 1.495 . S
C1705 H1711 0.959 . S
C1705 H1712 0.961 . S
C1705 H1713 0.960 . S
C1706 C1704 1.381 . S
C1706 C1707 1.394 . S
C1706 H1714 0.930 . S
C1707 C1706 1.394 . S
C1707 C1708 1.383 . S
C1707 H1715 0.929 . S
C1708 C1707 1.383 . S
C1708 C1709 1.377 . S
C1709 H1693 0.930 . S
C1709 C1708 1.377 . S
C1709 C1710 1.379 . S
C1710 H1694 0.931 . S
C1710 C1704 1.383 . S
C1710 C1709 1.379 . S
H1711 C1705 0.959 . S
H1712 C1705 0.961 . S
H1713 C1705 0.960 . S
H1714 C1706 0.930 . S
H1715 C1707 0.929 . S
H1716 C1724 0.929 . S
H1717 C1726 0.930 . S
H1718 C1728 0.930 . S
H1719 C1731 0.929 . S
H1720 C1734 0.930 . S
H1721 C1736 0.960 . S
H1722 C1736 0.960 . S
H1723 C1736 0.960 . S
C1724 H1716 0.929 . S
C1724 C1725 1.377 . S
C1724 C1726 1.384 . S
C1725 C1724 1.377 . S
C1725 C1731 1.390 . S
C1726 H1717 0.930 . S
C1726 C1724 1.384 . S
C1726 C1727 1.372 . S
C1727 C1726 1.372 . S
C1727 C1728 1.400 . S
C1727 C1732 1.490 . S
C1728 H1718 0.930 . S
C1728 C1727 1.400 . S
C1728 C1731 1.386 . S
H1729 C1745 0.930 . S
H1730 C1746 0.931 . S
C1731 H1719 0.929 . S
C1731 C1725 1.390 . S
C1731 C1728 1.386 . S
C1732 C1727 1.490 . S
C1732 C1734 1.395 . S
C1732 C1735 1.403 . S
H1733 C1739 0.930 . S
C1734 H1720 0.930 . S
C1734 C1732 1.395 . S
C1734 C1737 1.403 . S
C1735 C1732 1.403 . S
C1735 C1736 1.524 . S
C1735 C1739 1.400 . S
C1736 H1721 0.960 . S
C1736 H1722 0.960 . S
C1736 H1723 0.960 . S
C1736 C1735 1.524 . S
C1737 C1734 1.403 . S
C1737 C1738 1.392 . S
C1737 C1741 1.495 . S
C1738 C1737 1.392 . S
C1738 C1739 1.385 . S
C1738 C1740 1.478 . S
C1739 H1733 0.930 . S
C1739 C1735 1.400 . S
C1739 C1738 1.385 . S
C1740 C1738 1.478 . S
C1740 C1742 1.381 . S
C1740 C1746 1.383 . S
C1741 C1737 1.495 . S
C1741 H1747 0.959 . S
C1741 H1748 0.961 . S
C1741 H1749 0.960 . S
C1742 C1740 1.381 . S
C1742 C1743 1.394 . S
C1742 H1750 0.930 . S
C1743 C1742 1.394 . S
C1743 C1744 1.383 . S
C1743 H1751 0.929 . S
C1744 C1743 1.383 . S
C1744 C1745 1.377 . S
C1745 H1729 0.930 . S
C1745 C1744 1.377 . S
C1745 C1746 1.379 . S
C1746 H1730 0.931 . S
C1746 C1740 1.383 . S
C1746 C1745 1.379 . S
H1747 C1741 0.959 . S
H1748 C1741 0.961 . S
H1749 C1741 0.960 . S
H1750 C1742 0.930 . S
H1751 C1743 0.929 . S
H1752 C1760 0.929 . S
H1753 C1762 0.930 . S
H1754 C1764 0.930 1_556 S
H1755 C1767 0.929 . S
H1756 C1770 0.930 . S
H1757 C1772 0.960 . S
H1758 C1772 0.960 . S
H1759 C1772 0.960 . S
C1760 H1752 0.929 . S
C1760 C1761 1.377 . S
C1760 C1762 1.384 . S
C1761 C1760 1.377 . S
C1761 C1767 1.390 1_554 S
C1762 H1753 0.930 . S
C1762 C1760 1.384 . S
C1762 C1763 1.372 . S
C1763 C1762 1.372 . S
C1763 C1764 1.400 . S
C1763 C1768 1.490 . S
C1764 H1754 0.930 1_554 S
C1764 C1763 1.400 . S
C1764 C1767 1.386 1_554 S
H1765 C1781 0.930 . S
H1766 C1782 0.931 . S
C1767 H1755 0.929 . S
C1767 C1761 1.390 1_556 S
C1767 C1764 1.386 1_556 S
C1768 C1763 1.490 . S
C1768 C1770 1.395 . S
C1768 C1771 1.403 . S
H1769 C1775 0.930 . S
C1770 H1756 0.930 . S
C1770 C1768 1.395 . S
C1770 C1773 1.403 . S
C1771 C1768 1.403 . S
C1771 C1772 1.524 . S
C1771 C1775 1.400 . S
C1772 H1757 0.960 . S
C1772 H1758 0.960 . S
C1772 H1759 0.960 . S
C1772 C1771 1.524 . S
C1773 C1770 1.403 . S
C1773 C1774 1.392 . S
C1773 C1777 1.495 . S
C1774 C1773 1.392 . S
C1774 C1775 1.385 . S
C1774 C1776 1.478 . S
C1775 H1769 0.930 . S
C1775 C1771 1.400 . S
C1775 C1774 1.385 . S
C1776 C1774 1.478 . S
C1776 C1778 1.381 . S
C1776 C1782 1.383 . S
C1777 C1773 1.495 . S
C1777 H1783 0.959 . S
C1777 H1784 0.961 . S
C1777 H1785 0.960 . S
C1778 C1776 1.381 . S
C1778 C1779 1.394 . S
C1778 H1786 0.930 . S
C1779 C1778 1.394 . S
C1779 C1780 1.383 . S
C1779 H1787 0.929 . S
C1780 C1779 1.383 . S
C1780 C1781 1.377 . S
C1781 H1765 0.930 . S
C1781 C1780 1.377 . S
C1781 C1782 1.379 . S
C1782 H1766 0.931 . S
C1782 C1776 1.383 . S
C1782 C1781 1.379 . S
H1783 C1777 0.959 . S
H1784 C1777 0.961 . S
H1785 C1777 0.960 . S
H1786 C1778 0.930 . S
H1787 C1779 0.929 . S
H1788 C1796 0.929 . S
H1789 C1798 0.930 . S
H1790 C1800 0.930 . S
H1791 C1803 0.929 . S
H1792 C1806 0.930 . S
H1793 C1808 0.960 . S
H1794 C1808 0.960 . S
H1795 C1808 0.960 . S
C1796 H1788 0.929 . S
C1796 C1797 1.377 . S
C1796 C1798 1.384 . S
C1797 C1796 1.377 . S
C1797 C1803 1.390 . S
C1798 H1789 0.930 . S
C1798 C1796 1.384 . S
C1798 C1799 1.372 . S
C1799 C1798 1.372 . S
C1799 C1800 1.400 . S
C1799 C1804 1.490 . S
C1800 H1790 0.930 . S
C1800 C1799 1.400 . S
C1800 C1803 1.386 . S
H1801 C1817 0.930 . S
H1802 C1818 0.931 . S
C1803 H1791 0.929 . S
C1803 C1797 1.390 . S
C1803 C1800 1.386 . S
C1804 C1799 1.490 . S
C1804 C1806 1.395 . S
C1804 C1807 1.403 . S
H1805 C1811 0.930 . S
C1806 H1792 0.930 . S
C1806 C1804 1.395 . S
C1806 C1809 1.403 . S
C1807 C1804 1.403 . S
C1807 C1808 1.524 . S
C1807 C1811 1.400 . S
C1808 H1793 0.960 . S
C1808 H1794 0.960 . S
C1808 H1795 0.960 . S
C1808 C1807 1.524 . S
C1809 C1806 1.403 . S
C1809 C1810 1.392 . S
C1809 C1813 1.495 . S
C1810 C1809 1.392 . S
C1810 C1811 1.385 . S
C1810 C1812 1.478 . S
C1811 H1805 0.930 . S
C1811 C1807 1.400 . S
C1811 C1810 1.385 . S
C1812 C1810 1.478 . S
C1812 C1814 1.381 . S
C1812 C1818 1.383 . S
C1813 C1809 1.495 . S
C1813 H1819 0.959 1_556 S
C1813 H1820 0.961 1_556 S
C1813 H1821 0.960 . S
C1814 C1812 1.381 . S
C1814 C1815 1.394 . S
C1814 H1822 0.930 . S
C1815 C1814 1.394 . S
C1815 C1816 1.383 . S
C1815 H1823 0.929 . S
C1816 C1815 1.383 . S
C1816 C1817 1.377 . S
C1817 H1801 0.930 . S
C1817 C1816 1.377 . S
C1817 C1818 1.379 . S
C1818 H1802 0.931 . S
C1818 C1812 1.383 . S
C1818 C1817 1.379 . S
H1819 C1813 0.959 1_554 S
H1820 C1813 0.961 1_554 S
H1821 C1813 0.960 . S
H1822 C1814 0.930 . S
H1823 C1815 0.929 . S
H1824 C1832 0.929 . S
H1825 C1834 0.930 . S
H1826 C1836 0.930 . S
H1827 C1839 0.929 . S
H1828 C1842 0.930 . S
H1829 C1844 0.960 . S
H1830 C1844 0.960 . S
H1831 C1844 0.960 . S
C1832 H1824 0.929 . S
C1832 C1833 1.377 . S
C1832 C1834 1.384 . S
C1833 C1832 1.377 . S
C1833 C1839 1.390 . S
C1834 H1825 0.930 . S
C1834 C1832 1.384 . S
C1834 C1835 1.372 . S
C1835 C1834 1.372 . S
C1835 C1836 1.400 . S
C1835 C1840 1.490 . S
C1836 H1826 0.930 . S
C1836 C1835 1.400 . S
C1836 C1839 1.386 . S
H1837 C1853 0.930 . S
H1838 C1854 0.931 . S
C1839 H1827 0.929 . S
C1839 C1833 1.390 . S
C1839 C1836 1.386 . S
C1840 C1835 1.490 . S
C1840 C1842 1.395 . S
C1840 C1843 1.403 . S
H1841 C1847 0.930 . S
C1842 H1828 0.930 . S
C1842 C1840 1.395 . S
C1842 C1845 1.403 . S
C1843 C1840 1.403 . S
C1843 C1844 1.524 . S
C1843 C1847 1.400 . S
C1844 H1829 0.960 . S
C1844 H1830 0.960 . S
C1844 H1831 0.960 . S
C1844 C1843 1.524 . S
C1845 C1842 1.403 . S
C1845 C1846 1.392 . S
C1845 C1849 1.495 . S
C1846 C1845 1.392 . S
C1846 C1847 1.385 . S
C1846 C1848 1.478 . S
C1847 H1841 0.930 . S
C1847 C1843 1.400 . S
C1847 C1846 1.385 . S
C1848 C1846 1.478 . S
C1848 C1850 1.381 . S
C1848 C1854 1.383 . S
C1849 C1845 1.495 . S
C1849 H1855 0.959 . S
C1849 H1856 0.961 . S
C1849 H1857 0.960 . S
C1850 C1848 1.381 . S
C1850 C1851 1.394 . S
C1850 H1858 0.930 . S
C1851 C1850 1.394 . S
C1851 C1852 1.383 . S
C1851 H1859 0.929 . S
C1852 C1851 1.383 . S
C1852 C1853 1.377 . S
C1853 H1837 0.930 . S
C1853 C1852 1.377 . S
C1853 C1854 1.379 . S
C1854 H1838 0.931 . S
C1854 C1848 1.383 . S
C1854 C1853 1.379 . S
H1855 C1849 0.959 . S
H1856 C1849 0.961 . S
H1857 C1849 0.960 . S
H1858 C1850 0.930 . S
H1859 C1851 0.929 . S
H1860 C1868 0.929 . S
H1861 C1870 0.930 . S
H1862 C1872 0.930 . S
H1863 C1875 0.929 . S
H1864 C1878 0.930 . S
H1865 C1880 0.960 . S
H1866 C1880 0.960 . S
H1867 C1880 0.960 . S
C1868 H1860 0.929 . S
C1868 C1869 1.377 . S
C1868 C1870 1.384 . S
C1869 C1868 1.377 . S
C1869 C1875 1.390 . S
C1870 H1861 0.930 . S
C1870 C1868 1.384 . S
C1870 C1871 1.372 . S
C1871 C1870 1.372 . S
C1871 C1872 1.400 . S
C1871 C1876 1.490 . S
C1872 H1862 0.930 . S
C1872 C1871 1.400 . S
C1872 C1875 1.386 . S
H1873 C1889 0.930 . S
H1874 C1890 0.931 . S
C1875 H1863 0.929 . S
C1875 C1869 1.390 . S
C1875 C1872 1.386 . S
C1876 C1871 1.490 . S
C1876 C1878 1.395 . S
C1876 C1879 1.403 . S
H1877 C1883 0.930 . S
C1878 H1864 0.930 . S
C1878 C1876 1.395 . S
C1878 C1881 1.403 . S
C1879 C1876 1.403 . S
C1879 C1880 1.524 . S
C1879 C1883 1.400 . S
C1880 H1865 0.960 . S
C1880 H1866 0.960 . S
C1880 H1867 0.960 . S
C1880 C1879 1.524 . S
C1881 C1878 1.403 . S
C1881 C1882 1.392 . S
C1881 C1885 1.495 . S
C1882 C1881 1.392 . S
C1882 C1883 1.385 . S
C1882 C1884 1.478 . S
C1883 H1877 0.930 . S
C1883 C1879 1.400 . S
C1883 C1882 1.385 . S
C1884 C1882 1.478 . S
C1884 C1886 1.381 . S
C1884 C1890 1.383 . S
C1885 C1881 1.495 . S
C1885 H1891 0.959 . S
C1885 H1892 0.961 . S
C1885 H1893 0.960 . S
C1886 C1884 1.381 . S
C1886 C1887 1.394 . S
C1886 H1894 0.930 . S
C1887 C1886 1.394 . S
C1887 C1888 1.383 . S
C1887 H1895 0.929 . S
C1888 C1887 1.383 . S
C1888 C1889 1.377 . S
C1889 H1873 0.930 . S
C1889 C1888 1.377 . S
C1889 C1890 1.379 . S
C1890 H1874 0.931 . S
C1890 C1884 1.383 . S
C1890 C1889 1.379 . S
H1891 C1885 0.959 . S
H1892 C1885 0.961 . S
H1893 C1885 0.960 . S
H1894 C1886 0.930 . S
H1895 C1887 0.929 . S
H1896 C1904 0.929 . S
H1897 C1906 0.930 . S
H1898 C1908 0.930 . S
H1899 C1911 0.929 . S
H1900 C1914 0.930 . S
H1901 C1916 0.960 . S
H1902 C1916 0.960 . S
H1903 C1916 0.960 . S
C1904 H1896 0.929 . S
C1904 C1905 1.377 . S
C1904 C1906 1.384 . S
C1905 C1904 1.377 . S
C1905 C1911 1.390 . S
C1906 H1897 0.930 . S
C1906 C1904 1.384 . S
C1906 C1907 1.372 . S
C1907 C1906 1.372 . S
C1907 C1908 1.400 . S
C1907 C1912 1.490 . S
C1908 H1898 0.930 . S
C1908 C1907 1.400 . S
C1908 C1911 1.386 . S
H1909 C1925 0.930 . S
H1910 C1926 0.931 . S
C1911 H1899 0.929 . S
C1911 C1905 1.390 . S
C1911 C1908 1.386 . S
C1912 C1907 1.490 . S
C1912 C1914 1.395 . S
C1912 C1915 1.403 . S
H1913 C1919 0.930 . S
C1914 H1900 0.930 . S
C1914 C1912 1.395 . S
C1914 C1917 1.403 . S
C1915 C1912 1.403 . S
C1915 C1916 1.524 . S
C1915 C1919 1.400 . S
C1916 H1901 0.960 . S
C1916 H1902 0.960 . S
C1916 H1903 0.960 . S
C1916 C1915 1.524 . S
C1917 C1914 1.403 . S
C1917 C1918 1.392 . S
C1917 C1921 1.495 . S
C1918 C1917 1.392 . S
C1918 C1919 1.385 . S
C1918 C1920 1.478 . S
C1919 H1913 0.930 . S
C1919 C1915 1.400 . S
C1919 C1918 1.385 . S
C1920 C1918 1.478 . S
C1920 C1922 1.381 . S
C1920 C1926 1.383 . S
C1921 C1917 1.495 . S
C1921 H1927 0.959 . S
C1921 H1928 0.961 . S
C1921 H1929 0.960 . S
C1922 C1920 1.381 . S
C1922 C1923 1.394 . S
C1922 H1930 0.930 . S
C1923 C1922 1.394 . S
C1923 C1924 1.383 . S
C1923 H1931 0.929 . S
C1924 C1923 1.383 . S
C1924 C1925 1.377 . S
C1925 H1909 0.930 . S
C1925 C1924 1.377 . S
C1925 C1926 1.379 . S
C1926 H1910 0.931 . S
C1926 C1920 1.383 . S
C1926 C1925 1.379 . S
H1927 C1921 0.959 . S
H1928 C1921 0.961 . S
H1929 C1921 0.960 . S
H1930 C1922 0.930 . S
H1931 C1923 0.929 . S
H1932 C1940 0.929 . S
H1933 C1942 0.930 . S
H1934 C1944 0.930 . S
H1935 C1947 0.929 . S
H1936 C1950 0.930 . S
H1937 C1952 0.960 . S
H1938 C1952 0.960 . S
H1939 C1952 0.960 . S
C1940 H1932 0.929 . S
C1940 C1941 1.377 . S
C1940 C1942 1.384 . S
C1941 C1940 1.377 . S
C1941 C1947 1.390 . S
C1942 H1933 0.930 . S
C1942 C1940 1.384 . S
C1942 C1943 1.372 . S
C1943 C1942 1.372 . S
C1943 C1944 1.400 . S
C1943 C1948 1.490 . S
C1944 H1934 0.930 . S
C1944 C1943 1.400 . S
C1944 C1947 1.386 . S
H1945 C1961 0.930 . S
H1946 C1962 0.931 1_554 S
C1947 H1935 0.929 . S
C1947 C1941 1.390 . S
C1947 C1944 1.386 . S
C1948 C1943 1.490 . S
C1948 C1950 1.395 . S
C1948 C1951 1.403 1_554 S
H1949 C1955 0.930 . S
C1950 H1936 0.930 . S
C1950 C1948 1.395 . S
C1950 C1953 1.403 . S
C1951 C1948 1.403 1_556 S
C1951 C1952 1.524 . S
C1951 C1955 1.400 . S
C1952 H1937 0.960 . S
C1952 H1938 0.960 . S
C1952 H1939 0.960 . S
C1952 C1951 1.524 . S
C1953 C1950 1.403 . S
C1953 C1954 1.392 . S
C1953 C1957 1.495 . S
C1954 C1953 1.392 . S
C1954 C1955 1.385 1_554 S
C1954 C1956 1.478 1_554 S
C1955 H1949 0.930 . S
C1955 C1951 1.400 . S
C1955 C1954 1.385 1_556 S
C1956 C1954 1.478 1_556 S
C1956 C1958 1.381 . S
C1956 C1962 1.383 . S
C1957 C1953 1.495 . S
C1957 H1963 0.959 . S
C1957 H1964 0.961 . S
C1957 H1965 0.960 . S
C1958 C1956 1.381 . S
C1958 C1959 1.394 . S
C1958 H1966 0.930 . S
C1959 C1958 1.394 . S
C1959 C1960 1.383 . S
C1959 H1967 0.929 . S
C1960 C1959 1.383 . S
C1960 C1961 1.377 . S
C1961 H1945 0.930 . S
C1961 C1960 1.377 . S
C1961 C1962 1.379 . S
C1962 H1946 0.931 1_556 S
C1962 C1956 1.383 . S
C1962 C1961 1.379 . S
H1963 C1957 0.959 . S
H1964 C1957 0.961 . S
H1965 C1957 0.960 . S
H1966 C1958 0.930 . S
H1967 C1959 0.929 . S
H1968 C1976 0.929 . S
H1969 C1978 0.930 . S
H1970 C1980 0.930 . S
H1971 C1983 0.929 . S
H1972 C1986 0.930 . S
H1973 C1988 0.960 . S
H1974 C1988 0.960 . S
H1975 C1988 0.960 . S
C1976 H1968 0.929 . S
C1976 C1977 1.377 . S
C1976 C1978 1.384 . S
C1977 C1976 1.377 . S
C1977 C1983 1.390 . S
C1978 H1969 0.930 . S
C1978 C1976 1.384 . S
C1978 C1979 1.372 . S
C1979 C1978 1.372 . S
C1979 C1980 1.400 . S
C1979 C1984 1.490 . S
C1980 H1970 0.930 . S
C1980 C1979 1.400 . S
C1980 C1983 1.386 . S
H1981 C1997 0.930 . S
H1982 C1998 0.931 . S
C1983 H1971 0.929 . S
C1983 C1977 1.390 . S
C1983 C1980 1.386 . S
C1984 C1979 1.490 . S
C1984 C1986 1.395 . S
C1984 C1987 1.403 . S
H1985 C1991 0.930 . S
C1986 H1972 0.930 . S
C1986 C1984 1.395 . S
C1986 C1989 1.403 . S
C1987 C1984 1.403 . S
C1987 C1988 1.524 . S
C1987 C1991 1.400 . S
C1988 H1973 0.960 . S
C1988 H1974 0.960 . S
C1988 H1975 0.960 . S
C1988 C1987 1.524 . S
C1989 C1986 1.403 . S
C1989 C1990 1.392 . S
C1989 C1993 1.495 . S
C1990 C1989 1.392 . S
C1990 C1991 1.385 . S
C1990 C1992 1.478 . S
C1991 H1985 0.930 . S
C1991 C1987 1.400 . S
C1991 C1990 1.385 . S
C1992 C1990 1.478 . S
C1992 C1994 1.381 . S
C1992 C1998 1.383 . S
C1993 C1989 1.495 . S
C1993 H1999 0.959 . S
C1993 H2000 0.961 . S
C1993 H2001 0.960 . S
C1994 C1992 1.381 . S
C1994 C1995 1.394 . S
C1994 H2002 0.930 . S
C1995 C1994 1.394 . S
C1995 C1996 1.383 . S
C1995 H2003 0.929 . S
C1996 C1995 1.383 . S
C1996 C1997 1.377 . S
C1997 H1981 0.930 . S
C1997 C1996 1.377 . S
C1997 C1998 1.379 . S
C1998 H1982 0.931 . S
C1998 C1992 1.383 . S
C1998 C1997 1.379 . S
H1999 C1993 0.959 . S
H2000 C1993 0.961 . S
H2001 C1993 0.960 . S
H2002 C1994 0.930 . S
H2003 C1995 0.929 . S
H2004 C2012 0.929 . S
H2005 C2014 0.930 . S
H2006 C2016 0.930 . S
H2007 C2019 0.929 . S
H2008 C2022 0.930 . S
H2009 C2024 0.960 . S
H2010 C2024 0.960 . S
H2011 C2024 0.960 . S
C2012 H2004 0.929 . S
C2012 C2013 1.377 . S
C2012 C2014 1.384 . S
C2013 C2012 1.377 . S
C2013 C2019 1.390 . S
C2014 H2005 0.930 . S
C2014 C2012 1.384 . S
C2014 C2015 1.372 . S
C2015 C2014 1.372 . S
C2015 C2016 1.400 . S
C2015 C2020 1.490 . S
C2016 H2006 0.930 . S
C2016 C2015 1.400 . S
C2016 C2019 1.386 . S
H2017 C2033 0.930 . S
H2018 C2034 0.931 . S
C2019 H2007 0.929 . S
C2019 C2013 1.390 . S
C2019 C2016 1.386 . S
C2020 C2015 1.490 . S
C2020 C2022 1.395 . S
C2020 C2023 1.403 . S
H2021 C2027 0.930 . S
C2022 H2008 0.930 . S
C2022 C2020 1.395 . S
C2022 C2025 1.403 . S
C2023 C2020 1.403 . S
C2023 C2024 1.524 . S
C2023 C2027 1.400 . S
C2024 H2009 0.960 . S
C2024 H2010 0.960 . S
C2024 H2011 0.960 . S
C2024 C2023 1.524 . S
C2025 C2022 1.403 . S
C2025 C2026 1.392 . S
C2025 C2029 1.495 . S
C2026 C2025 1.392 . S
C2026 C2027 1.385 . S
C2026 C2028 1.478 . S
C2027 H2021 0.930 . S
C2027 C2023 1.400 . S
C2027 C2026 1.385 . S
C2028 C2026 1.478 . S
C2028 C2030 1.381 . S
C2028 C2034 1.383 . S
C2029 C2025 1.495 . S
C2029 H2035 0.959 . S
C2029 H2036 0.961 . S
C2029 H2037 0.960 . S
C2030 C2028 1.381 . S
C2030 C2031 1.394 . S
C2030 H2038 0.930 . S
C2031 C2030 1.394 . S
C2031 C2032 1.383 . S
C2031 H2039 0.929 . S
C2032 C2031 1.383 . S
C2032 C2033 1.377 . S
C2033 H2017 0.930 . S
C2033 C2032 1.377 . S
C2033 C2034 1.379 . S
C2034 H2018 0.931 . S
C2034 C2028 1.383 . S
C2034 C2033 1.379 . S
H2035 C2029 0.959 . S
H2036 C2029 0.961 . S
H2037 C2029 0.960 . S
H2038 C2030 0.930 . S
H2039 C2031 0.929 . S
H2040 C2048 0.929 . S
H2041 C2050 0.930 . S
H2042 C2052 0.930 . S
H2043 C2055 0.929 . S
H2044 C2058 0.930 . S
H2045 C2060 0.960 . S
H2046 C2060 0.960 . S
H2047 C2060 0.960 . S
C2048 H2040 0.929 . S
C2048 C2049 1.377 . S
C2048 C2050 1.384 . S
C2049 C2048 1.377 . S
C2049 C2055 1.390 . S
C2050 H2041 0.930 . S
C2050 C2048 1.384 . S
C2050 C2051 1.372 . S
C2051 C2050 1.372 . S
C2051 C2052 1.400 . S
C2051 C2056 1.490 . S
C2052 H2042 0.930 . S
C2052 C2051 1.400 . S
C2052 C2055 1.386 . S
H2053 C2069 0.930 . S
H2054 C2070 0.931 . S
C2055 H2043 0.929 . S
C2055 C2049 1.390 . S
C2055 C2052 1.386 . S
C2056 C2051 1.490 . S
C2056 C2058 1.395 . S
C2056 C2059 1.403 . S
H2057 C2063 0.930 . S
C2058 H2044 0.930 . S
C2058 C2056 1.395 . S
C2058 C2061 1.403 . S
C2059 C2056 1.403 . S
C2059 C2060 1.524 . S
C2059 C2063 1.400 . S
C2060 H2045 0.960 . S
C2060 H2046 0.960 . S
C2060 H2047 0.960 . S
C2060 C2059 1.524 . S
C2061 C2058 1.403 . S
C2061 C2062 1.392 . S
C2061 C2065 1.495 . S
C2062 C2061 1.392 . S
C2062 C2063 1.385 . S
C2062 C2064 1.478 . S
C2063 H2057 0.930 . S
C2063 C2059 1.400 . S
C2063 C2062 1.385 . S
C2064 C2062 1.478 . S
C2064 C2066 1.381 . S
C2064 C2070 1.383 . S
C2065 C2061 1.495 . S
C2065 H2071 0.959 . S
C2065 H2072 0.961 . S
C2065 H2073 0.960 . S
C2066 C2064 1.381 . S
C2066 C2067 1.394 . S
C2066 H2074 0.930 . S
C2067 C2066 1.394 . S
C2067 C2068 1.383 . S
C2067 H2075 0.929 . S
C2068 C2067 1.383 . S
C2068 C2069 1.377 . S
C2069 H2053 0.930 . S
C2069 C2068 1.377 . S
C2069 C2070 1.379 . S
C2070 H2054 0.931 . S
C2070 C2064 1.383 . S
C2070 C2069 1.379 . S
H2071 C2065 0.959 . S
H2072 C2065 0.961 . S
H2073 C2065 0.960 . S
H2074 C2066 0.930 . S
H2075 C2067 0.929 . S
H2076 C2084 0.929 . S
H2077 C2086 0.930 . S
H2078 C2088 0.930 1_556 S
H2079 C2091 0.929 . S
H2080 C2094 0.930 . S
H2081 C2096 0.960 . S
H2082 C2096 0.960 . S
H2083 C2096 0.960 . S
C2084 H2076 0.929 . S
C2084 C2085 1.377 . S
C2084 C2086 1.384 . S
C2085 C2084 1.377 . S
C2085 C2091 1.390 . S
C2086 H2077 0.930 . S
C2086 C2084 1.384 . S
C2086 C2087 1.372 . S
C2087 C2086 1.372 . S
C2087 C2088 1.400 . S
C2087 C2092 1.490 . S
C2088 H2078 0.930 1_554 S
C2088 C2087 1.400 . S
C2088 C2091 1.386 . S
H2089 C2105 0.930 . S
H2090 C2106 0.931 . S
C2091 H2079 0.929 . S
C2091 C2085 1.390 . S
C2091 C2088 1.386 . S
C2092 C2087 1.490 . S
C2092 C2094 1.395 1_554 S
C2092 C2095 1.403 . S
H2093 C2099 0.930 . S
C2094 H2080 0.930 . S
C2094 C2092 1.395 1_556 S
C2094 C2097 1.403 . S
C2095 C2092 1.403 . S
C2095 C2096 1.524 . S
C2095 C2099 1.400 . S
C2096 H2081 0.960 . S
C2096 H2082 0.960 . S
C2096 H2083 0.960 . S
C2096 C2095 1.524 . S
C2097 C2094 1.403 . S
C2097 C2098 1.392 . S
C2097 C2101 1.495 . S
C2098 C2097 1.392 . S
C2098 C2099 1.385 1_556 S
C2098 C2100 1.478 . S
C2099 H2093 0.930 . S
C2099 C2095 1.400 . S
C2099 C2098 1.385 1_554 S
C2100 C2098 1.478 . S
C2100 C2102 1.381 . S
C2100 C2106 1.383 . S
C2101 C2097 1.495 . S
C2101 H2107 0.959 . S
C2101 H2108 0.961 . S
C2101 H2109 0.960 . S
C2102 C2100 1.381 . S
C2102 C2103 1.394 . S
C2102 H2110 0.930 1_556 S
C2103 C2102 1.394 . S
C2103 C2104 1.383 . S
C2103 H2111 0.929 . S
C2104 C2103 1.383 . S
C2104 C2105 1.377 . S
C2105 H2089 0.930 . S
C2105 C2104 1.377 . S
C2105 C2106 1.379 . S
C2106 H2090 0.931 . S
C2106 C2100 1.383 . S
C2106 C2105 1.379 . S
H2107 C2101 0.959 . S
H2108 C2101 0.961 . S
H2109 C2101 0.960 . S
H2110 C2102 0.930 1_554 S
H2111 C2103 0.929 . S
H2112 C2120 0.929 . S
H2113 C2122 0.930 . S
H2114 C2124 0.930 . S
H2115 C2127 0.929 . S
H2116 C2130 0.930 . S
H2117 C2132 0.960 . S
H2118 C2132 0.960 . S
H2119 C2132 0.960 . S
C2120 H2112 0.929 . S
C2120 C2121 1.377 . S
C2120 C2122 1.384 . S
C2121 C2120 1.377 . S
C2121 C2127 1.390 . S
C2122 H2113 0.930 . S
C2122 C2120 1.384 . S
C2122 C2123 1.372 . S
C2123 C2122 1.372 . S
C2123 C2124 1.400 . S
C2123 C2128 1.490 . S
C2124 H2114 0.930 . S
C2124 C2123 1.400 . S
C2124 C2127 1.386 . S
H2125 C2141 0.930 . S
H2126 C2142 0.931 . S
C2127 H2115 0.929 . S
C2127 C2121 1.390 . S
C2127 C2124 1.386 . S
C2128 C2123 1.490 . S
C2128 C2130 1.395 . S
C2128 C2131 1.403 . S
H2129 C2135 0.930 . S
C2130 H2116 0.930 . S
C2130 C2128 1.395 . S
C2130 C2133 1.403 . S
C2131 C2128 1.403 . S
C2131 C2132 1.524 . S
C2131 C2135 1.400 . S
C2132 H2117 0.960 . S
C2132 H2118 0.960 . S
C2132 H2119 0.960 . S
C2132 C2131 1.524 . S
C2133 C2130 1.403 . S
C2133 C2134 1.392 . S
C2133 C2137 1.495 . S
C2134 C2133 1.392 . S
C2134 C2135 1.385 . S
C2134 C2136 1.478 . S
C2135 H2129 0.930 . S
C2135 C2131 1.400 . S
C2135 C2134 1.385 . S
C2136 C2134 1.478 . S
C2136 C2138 1.381 . S
C2136 C2142 1.383 . S
C2137 C2133 1.495 . S
C2137 H2143 0.959 . S
C2137 H2144 0.961 . S
C2137 H2145 0.960 . S
C2138 C2136 1.381 . S
C2138 C2139 1.394 . S
C2138 H2146 0.930 . S
C2139 C2138 1.394 . S
C2139 C2140 1.383 . S
C2139 H2147 0.929 . S
C2140 C2139 1.383 . S
C2140 C2141 1.377 . S
C2141 H2125 0.930 . S
C2141 C2140 1.377 . S
C2141 C2142 1.379 . S
C2142 H2126 0.931 . S
C2142 C2136 1.383 . S
C2142 C2141 1.379 . S
H2143 C2137 0.959 . S
H2144 C2137 0.961 . S
H2145 C2137 0.960 . S
H2146 C2138 0.930 . S
H2147 C2139 0.929 . S
H2148 C2156 0.929 . S
H2149 C2158 0.930 . S
H2150 C2160 0.930 . S
H2151 C2163 0.929 . S
H2152 C2166 0.930 . S
H2153 C2168 0.960 . S
H2154 C2168 0.960 . S
H2155 C2168 0.960 . S
C2156 H2148 0.929 . S
C2156 C2157 1.377 . S
C2156 C2158 1.384 . S
C2157 C2156 1.377 . S
C2157 C2163 1.390 . S
C2158 H2149 0.930 . S
C2158 C2156 1.384 . S
C2158 C2159 1.372 . S
C2159 C2158 1.372 . S
C2159 C2160 1.400 . S
C2159 C2164 1.490 . S
C2160 H2150 0.930 . S
C2160 C2159 1.400 . S
C2160 C2163 1.386 . S
H2161 C2177 0.930 . S
H2162 C2178 0.931 . S
C2163 H2151 0.929 . S
C2163 C2157 1.390 . S
C2163 C2160 1.386 . S
C2164 C2159 1.490 . S
C2164 C2166 1.395 . S
C2164 C2167 1.403 . S
H2165 C2171 0.930 . S
C2166 H2152 0.930 . S
C2166 C2164 1.395 . S
C2166 C2169 1.403 . S
C2167 C2164 1.403 . S
C2167 C2168 1.524 . S
C2167 C2171 1.400 . S
C2168 H2153 0.960 . S
C2168 H2154 0.960 . S
C2168 H2155 0.960 . S
C2168 C2167 1.524 . S
C2169 C2166 1.403 . S
C2169 C2170 1.392 . S
C2169 C2173 1.495 . S
C2170 C2169 1.392 . S
C2170 C2171 1.385 . S
C2170 C2172 1.478 . S
C2171 H2165 0.930 . S
C2171 C2167 1.400 . S
C2171 C2170 1.385 . S
C2172 C2170 1.478 . S
C2172 C2174 1.381 . S
C2172 C2178 1.383 . S
C2173 C2169 1.495 . S
C2173 H2179 0.959 . S
C2173 H2180 0.961 . S
C2173 H2181 0.960 . S
C2174 C2172 1.381 . S
C2174 C2175 1.394 . S
C2174 H2182 0.930 . S
C2175 C2174 1.394 . S
C2175 C2176 1.383 . S
C2175 H2183 0.929 . S
C2176 C2175 1.383 . S
C2176 C2177 1.377 . S
C2177 H2161 0.930 . S
C2177 C2176 1.377 . S
C2177 C2178 1.379 . S
C2178 H2162 0.931 . S
C2178 C2172 1.383 . S
C2178 C2177 1.379 . S
H2179 C2173 0.959 . S
H2180 C2173 0.961 . S
H2181 C2173 0.960 . S
H2182 C2174 0.930 . S
H2183 C2175 0.929 . S
H2184 C2192 0.929 . S
H2185 C2194 0.930 . S
H2186 C2196 0.934 . S
H2187 C2199 0.929 1_455 S
H2188 C2202 0.930 . S
H2189 C2204 0.960 . S
H2190 C2204 0.960 . S
H2191 C2204 0.960 . S
C2192 H2184 0.929 . S
C2192 C2193 1.377 . S
C2192 C2194 1.384 . S
C2193 C2192 1.377 . S
C2193 C2199 1.390 . S
C2194 H2185 0.930 . S
C2194 C2192 1.384 . S
C2194 C2195 1.372 . S
C2195 C2194 1.372 . S
C2195 C2196 1.397 1_655 S
C2195 C2200 1.490 . S
C2196 H2186 0.934 . S
C2196 C2195 1.397 1_455 S
C2196 C2199 1.385 1_455 S
H2197 C2213 0.930 . S
H2198 C2214 0.931 . S
C2199 H2187 0.929 1_655 S
C2199 C2193 1.390 . S
C2199 C2196 1.385 1_655 S
C2200 C2195 1.490 . S
C2200 C2202 1.395 . S
C2200 C2203 1.403 1_655 S
H2201 C2207 0.930 . S
C2202 H2188 0.930 . S
C2202 C2200 1.395 . S
C2202 C2205 1.403 . S
C2203 C2200 1.403 1_455 S
C2203 C2204 1.524 . S
C2203 C2207 1.400 . S
C2204 H2189 0.960 . S
C2204 H2190 0.960 . S
C2204 H2191 0.960 . S
C2204 C2203 1.524 . S
C2205 C2202 1.403 . S
C2205 C2206 1.392 . S
C2205 C2209 1.495 . S
C2206 C2205 1.392 . S
C2206 C2207 1.385 1_655 S
C2206 C2208 1.478 1_655 S
C2207 H2201 0.930 . S
C2207 C2203 1.400 . S
C2207 C2206 1.385 1_455 S
C2208 C2206 1.478 1_455 S
C2208 C2210 1.381 1_455 S
C2208 C2214 1.383 . S
C2209 C2205 1.495 . S
C2209 H2215 0.959 . S
C2209 H2216 0.961 . S
C2209 H2217 0.960 . S
C2210 C2208 1.381 1_655 S
C2210 C2211 1.394 . S
C2210 H2218 0.930 . S
C2211 C2210 1.394 . S
C2211 C2212 1.383 1_655 S
C2211 H2219 0.929 . S
C2212 C2211 1.383 1_455 S
C2212 C2213 1.377 . S
C2213 H2197 0.930 . S
C2213 C2212 1.377 . S
C2213 C2214 1.379 . S
C2214 H2198 0.931 . S
C2214 C2208 1.383 . S
C2214 C2213 1.379 . S
H2215 C2209 0.959 . S
H2216 C2209 0.961 . S
H2217 C2209 0.960 . S
H2218 C2210 0.930 . S
H2219 C2211 0.929 . S
H2220 C2228 0.929 . S
H2221 C2230 0.930 . S
H2222 C2232 0.930 . S
H2223 C2235 0.929 1_455 S
H2224 C2238 0.930 . S
H2225 C2240 0.960 . S
H2226 C2240 0.960 . S
H2227 C2240 0.960 . S
C2228 H2220 0.929 . S
C2228 C2229 1.377 . S
C2228 C2230 1.384 . S
C2229 C2228 1.377 . S
C2229 C2235 1.390 . S
C2230 H2221 0.930 . S
C2230 C2228 1.384 . S
C2230 C2231 1.372 . S
C2231 C2230 1.372 . S
C2231 C2232 1.400 1_655 S
C2231 C2236 1.490 . S
C2232 H2222 0.930 . S
C2232 C2231 1.400 1_455 S
C2232 C2235 1.386 1_455 S
H2233 C2249 0.930 . S
H2234 C2250 0.931 . S
C2235 H2223 0.929 1_655 S
C2235 C2229 1.390 . S
C2235 C2232 1.386 1_655 S
C2236 C2231 1.490 . S
C2236 C2238 1.395 . S
C2236 C2239 1.403 1_655 S
H2237 C2243 0.930 . S
C2238 H2224 0.930 . S
C2238 C2236 1.395 . S
C2238 C2241 1.403 . S
C2239 C2236 1.403 1_455 S
C2239 C2240 1.524 . S
C2239 C2243 1.400 . S
C2240 H2225 0.960 . S
C2240 H2226 0.960 . S
C2240 H2227 0.960 . S
C2240 C2239 1.524 . S
C2241 C2238 1.403 . S
C2241 C2242 1.392 1_655 S
C2241 C2245 1.495 . S
C2242 C2241 1.392 1_455 S
C2242 C2243 1.385 . S
C2242 C2244 1.478 . S
C2243 H2237 0.930 . S
C2243 C2239 1.400 . S
C2243 C2242 1.385 . S
C2244 C2242 1.478 . S
C2244 C2246 1.381 . S
C2244 C2250 1.383 . S
C2245 C2241 1.495 . S
C2245 H2251 0.959 . S
C2245 H2252 0.961 . S
C2245 H2253 0.960 . S
C2246 C2244 1.381 . S
C2246 C2247 1.394 . S
C2246 H2254 0.930 1_455 S
C2247 C2246 1.394 . S
C2247 C2248 1.383 . S
C2247 H2255 0.929 . S
C2248 C2247 1.383 . S
C2248 C2249 1.377 . S
C2249 H2233 0.930 . S
C2249 C2248 1.377 . S
C2249 C2250 1.379 . S
C2250 H2234 0.931 . S
C2250 C2244 1.383 . S
C2250 C2249 1.379 . S
H2251 C2245 0.959 . S
H2252 C2245 0.961 . S
H2253 C2245 0.960 . S
H2254 C2246 0.930 1_655 S
H2255 C2247 0.929 . S
C969 C21 1.872 . S
C988 C101 1.884 . S
C1005 C61 0.288 . S
C1024 C141 0.597 . S
C1041 C261 1.865 . S
C1060 C181 1.943 . S
C1077 C221 0.358 . S
C1096 C301 0.426 . S
C1113 C341 0.262 . S
C1132 C501 0.340 . S
C1149 C381 1.046 . S
C1168 C541 0.972 . S
C1185 C421 0.376 . S
C1204 C581 0.332 . S
C1221 C461 0.560 . S
C1240 C621 0.563 . S
C1257 C661 1.215 . S
C1276 C781 1.010 . S
C1293 C861 0.544 . S
C1312 C701 0.582 . S
C1329 C901 1.842 . S
C1348 C741 1.921 . S
C1365 C941 1.883 . S
C1384 C821 1.922 . S
C1401 C335 2.165 . S
C1420 C122 2.050 1_545 S
C1437 C15 2.957 . S
C1456 C375 2.853 . S
C1473 C415 2.128 1_545 S
C1492 C55 2.187 . S
C1509 C95 1.615 . S
C1528 C442 1.584 . S
C1545 C215 2.179 . S
C1564 C495 2.134 1_545 S
C1581 C535 2.849 . S
C1600 C255 2.983 . S
C1617 C282 2.087 1_545 S
C1636 C562 2.176 . S
C1653 C615 1.635 . S
C1672 C162 1.671 . S
C1689 C642 2.962 . S
C1708 C722 3.028 . S
C1725 C775 2.857 . S
C1744 C922 3.052 . S
C1761 C802 1.617 . S
C1780 C842 1.573 . S
C1797 C895 1.595 . S
C1816 C682 1.563 . S
C1833 C815 2.280 . S
C1852 C242 2.270 . S
C1869 C295 1.719 . S
C1888 C695 1.800 . S
C1905 C735 2.337 . S
C1924 C175 2.310 . S
C1941 C202 2.184 . S
C1960 C762 1.945 . S
C1977 C82 2.225 . S
C1996 C935 2.291 . S
C2013 C855 1.800 . S
C2032 C135 1.702 . S
C2049 C2 2.246 . S
C2068 C882 2.232 . S
C2085 C655 2.016 . S
C2104 C42 2.148 . S
C2121 C602 1.762 . S
C2140 C402 1.731 . S
C2157 C455 1.768 . S
C2176 C482 1.726 . S
C2193 C322 2.133 . S
C2212 C522 1.910 . S
C2229 C362 1.940 . S
C2248 C575 2.106 . S
