# Generated by pormake.
# Topology uof, (4)-cn, num edge types: 1
# Building blocks:
#     Node 0, Type 0, BuildingBlock: CEKHIL_clean_sbu_0, # of connection points: 4
#     Node 1, Type 0, BuildingBlock: CEKHIL_clean_sbu_0, # of connection points: 4
#     Node 2, Type 0, BuildingBlock: CEKHIL_clean_sbu_0, # of connection points: 4
#     Node 3, Type 0, BuildingBlock: CEKHIL_clean_sbu_0, # of connection points: 4
#     Node 4, Type 0, BuildingBlock: CEKHIL_clean_sbu_0, # of connection points: 4
#     Node 5, Type 0, BuildingBlock: CEKHIL_clean_sbu_0, # of connection points: 4
#     Node 6, Type 0, BuildingBlock: CEKHIL_clean_sbu_0, # of connection points: 4
#     Node 7, Type 0, BuildingBlock: CEKHIL_clean_sbu_0, # of connection points: 4
#     Node 8, Type 0, BuildingBlock: CEKHIL_clean_sbu_0, # of connection points: 4
#     Node 9, Type 0, BuildingBlock: CEKHIL_clean_sbu_0, # of connection points: 4
#     Node 10, Type 0, BuildingBlock: CEKHIL_clean_sbu_0, # of connection points: 4
#     Node 11, Type 0, BuildingBlock: CEKHIL_clean_sbu_0, # of connection points: 4
#     Edge 12, Type (0, 0), BuildingBlock: AJUNOK_clean_linker_0, # of connection points: 2
#     Edge 13, Type (0, 0), BuildingBlock: AJUNOK_clean_linker_0, # of connection points: 2
#     Edge 14, Type (0, 0), BuildingBlock: AJUNOK_clean_linker_0, # of connection points: 2
#     Edge 15, Type (0, 0), BuildingBlock: AJUNOK_clean_linker_0, # of connection points: 2
#     Edge 16, Type (0, 0), BuildingBlock: AJUNOK_clean_linker_0, # of connection points: 2
#     Edge 17, Type (0, 0), BuildingBlock: AJUNOK_clean_linker_0, # of connection points: 2
#     Edge 18, Type (0, 0), BuildingBlock: AJUNOK_clean_linker_0, # of connection points: 2
#     Edge 19, Type (0, 0), BuildingBlock: AJUNOK_clean_linker_0, # of connection points: 2
#     Edge 20, Type (0, 0), BuildingBlock: AJUNOK_clean_linker_0, # of connection points: 2
#     Edge 21, Type (0, 0), BuildingBlock: AJUNOK_clean_linker_0, # of connection points: 2
#     Edge 22, Type (0, 0), BuildingBlock: AJUNOK_clean_linker_0, # of connection points: 2
#     Edge 23, Type (0, 0), BuildingBlock: AJUNOK_clean_linker_0, # of connection points: 2
#     Edge 24, Type (0, 0), BuildingBlock: AJUNOK_clean_linker_0, # of connection points: 2
#     Edge 25, Type (0, 0), BuildingBlock: AJUNOK_clean_linker_0, # of connection points: 2
#     Edge 26, Type (0, 0), BuildingBlock: AJUNOK_clean_linker_0, # of connection points: 2
#     Edge 27, Type (0, 0), BuildingBlock: AJUNOK_clean_linker_0, # of connection points: 2
#     Edge 28, Type (0, 0), BuildingBlock: AJUNOK_clean_linker_0, # of connection points: 2
#     Edge 29, Type (0, 0), BuildingBlock: AJUNOK_clean_linker_0, # of connection points: 2
#     Edge 30, Type (0, 0), BuildingBlock: AJUNOK_clean_linker_0, # of connection points: 2
#     Edge 31, Type (0, 0), BuildingBlock: AJUNOK_clean_linker_0, # of connection points: 2
#     Edge 32, Type (0, 0), BuildingBlock: AJUNOK_clean_linker_0, # of connection points: 2
#     Edge 33, Type (0, 0), BuildingBlock: AJUNOK_clean_linker_0, # of connection points: 2
#     Edge 34, Type (0, 0), BuildingBlock: AJUNOK_clean_linker_0, # of connection points: 2
#     Edge 35, Type (0, 0), BuildingBlock: AJUNOK_clean_linker_0, # of connection points: 2
# Relax obj value: 0.191
# Max RMSD: 0.141
# Mean RMSD: 0.141
data_MOF--net-uof--node1-CEKHIL_clean_sbu_0--edge1-AJUNOK_clean_linker_0
_symmetry_space_group_name_H-M    P1
_symmetry_Int_Tables_number       1
_symmetry_cell_setting            triclinic
loop_
_symmetry_equiv_pos_as_xyz
'x, y, z'
_cell_length_a     23.052268
_cell_length_b     23.093452
_cell_length_c     45.601333
_cell_angle_alpha  89.914177
_cell_angle_beta   89.82884
_cell_angle_gamma 119.53334
loop_
_atom_site_label
_atom_site_type_symbol
_atom_site_fract_x
_atom_site_fract_y
_atom_site_fract_z
_atom_type_partial_charge
Co0 Co 0.22592 0.28906 0.25436 0.0
O1 O 0.12897 0.2483 0.24999 0.0
O2 O 0.20137 0.31434 0.21723 0.0
C3 C 0.23402 0.31709 0.30238 0.0
O4 O 0.32901 0.34091 0.25036 0.0
Co5 Co 0.29085 0.23178 0.29757 0.0
O6 O 0.3775 0.30732 0.28408 0.0
C7 C 0.21882 0.15747 0.24572 0.0
C8 C 0.13903 0.27473 0.22396 0.0
C9 C 0.38153 0.34488 0.26271 0.0
O10 O 0.22205 0.2104 0.23497 0.0
O11 O 0.23586 0.15338 0.27197 0.0
O12 O 0.23058 0.35655 0.28275 0.0
O13 O 0.22698 0.26223 0.29261 0.0
Co14 Co 0.96702 0.26791 0.54484 0.0
O15 O 0.92704 0.17118 0.54165 0.0
O16 O 0.8943 0.23001 0.51587 0.0
C17 C 0.98032 0.27819 0.59462 0.0
O18 O 0.99723 0.36917 0.54305 0.0
Co19 Co 0.11382 0.35062 0.56973 0.0
O20 O 0.10437 0.42867 0.55814 0.0
C21 C 0.07761 0.26478 0.52141 0.0
C22 C 0.88916 0.17202 0.52085 0.0
C23 C 0.05096 0.42553 0.54844 0.0
O24 O 1.03216 0.27801 0.51372 0.0
O25 O 0.09083 0.26561 0.54851 0.0
O26 O 0.92176 0.26029 0.58338 0.0
O27 O 1.0232 0.28065 0.57627 0.0
Co28 Co 0.7115 0.9234 0.90295 0.0
O29 O 0.77366 0.88762 0.90026 0.0
O30 O 0.68248 0.84908 0.87458 0.0
C31 C 0.71401 0.94034 0.95249 0.0
O32 O 0.63501 0.94786 0.89971 0.0
Co33 Co 0.76405 0.07026 0.92538 0.0
O34 O 0.67448 0.05424 0.91445 0.0
C35 C 0.82281 0.03488 0.8772 0.0
C36 C 0.73782 0.84819 0.87931 0.0
C37 C 0.62753 0.9996 0.90457 0.0
O38 O 0.7644 0.98688 0.8716 0.0
O39 O 0.83502 0.07058 0.90017 0.0
O40 O 0.67648 0.88042 0.94209 0.0
O41 O 0.75184 0.98282 0.93356 0.0
Co42 Co 0.78167 0.68045 0.21674 0.0
O43 O 0.8676 0.75855 0.20828 0.0
O44 O 0.85152 0.65801 0.20373 0.0
C45 C 0.75839 0.72077 0.25822 0.0
O46 O 0.69547 0.58907 0.22449 0.0
Co47 Co 0.65459 0.70217 0.2145 0.0
O48 O 0.61236 0.61329 0.23274 0.0
C49 C 0.73424 0.71707 0.16637 0.0
C50 C 0.89243 0.72171 0.20028 0.0
C51 C 0.63425 0.5723 0.23173 0.0
O52 O 0.75304 0.67656 0.17521 0.0
O53 O 0.67402 0.70146 0.17148 0.0
O54 O 0.79696 0.6943 0.25949 0.0
O55 O 0.74138 0.72743 0.23221 0.0
Co56 Co 0.11947 0.83541 0.56146 0.0
O57 O 0.15532 0.93197 0.56319 0.0
O58 O 0.20663 0.88553 0.54128 0.0
C59 C 0.07888 0.80923 0.60858 0.0
O60 O 0.09721 0.73676 0.55531 0.0
Co61 Co 0.96587 0.74073 0.56923 0.0
O62 O 0.98753 0.66852 0.56406 0.0
C63 C 1.02233 0.83821 0.52207 0.0
C64 C 0.20487 0.94008 0.54676 0.0
C65 C 0.04515 0.67749 0.55735 0.0
O66 O 0.07595 0.83501 0.52392 0.0
O67 O 0.97479 0.81055 0.54069 0.0
O68 O 0.14207 0.83105 0.60321 0.0
O69 O 0.04618 0.81105 0.58632 0.0
Co70 Co 0.31019 0.1026 0.90135 0.0
O71 O 0.25855 0.14911 0.89662 0.0
O72 O 0.34795 0.1725 0.87092 0.0
C73 C 0.30455 0.08924 0.95155 0.0
O74 O 0.3761 0.06491 0.8998 0.0
Co75 Co 0.24138 0.95687 0.9289 0.0
O76 O 0.32792 0.96134 0.91944 0.0
C77 C 0.19459 0.99293 0.87973 0.0
C78 C 0.297 0.18179 0.87466 0.0
C79 C 0.37737 1.01086 0.90705 0.0
O80 O 0.25269 0.03779 0.87158 0.0
O81 O 0.18138 0.98165 0.90686 0.0
O82 O 0.34939 0.14611 0.9402 0.0
O83 O 0.26404 0.04913 0.93292 0.0
Co84 Co 0.76034 0.8513 0.41342 0.0
O85 O 0.7979 0.94829 0.41507 0.0
O86 O 0.73196 0.87884 0.44877 0.0
C87 C 0.73345 0.83381 0.36514 0.0
O88 O 0.711 0.74909 0.42008 0.0
Co89 Co 0.82585 0.78611 0.37538 0.0
O90 O 0.75207 0.69996 0.39032 0.0
C91 C 0.8954 0.86884 0.42554 0.0
C92 C 0.77067 0.94048 0.44087 0.0
C93 C 0.71077 0.69653 0.40988 0.0
O94 O 0.83974 0.86185 0.43494 0.0
O95 O 0.9023 0.84969 0.40014 0.0
O96 O 0.69272 0.83933 0.38346 0.0
O97 O 0.78926 0.84562 0.37601 0.0
Co98 Co 0.93166 0.70058 0.77463 0.0
O99 O 0.91047 0.77221 0.78338 0.0
O100 O 0.85207 0.67111 0.80041 0.0
C101 C 0.95784 0.72623 0.7257 0.0
O102 O 0.93838 0.61297 0.77133 0.0
Co103 Co 0.07281 0.73023 0.74968 0.0
O104 O 0.03464 0.63374 0.74885 0.0
C105 C 0.05427 0.76579 0.80987 0.0
C106 C 0.86164 0.73162 0.80018 0.0
C107 C 0.97949 0.59414 0.76112 0.0
O108 O 0.99066 0.72817 0.80958 0.0
O109 O 0.09222 0.77721 0.78761 0.0
O110 O 0.89555 0.69031 0.73381 0.0
O111 O 0.99896 0.74671 0.74688 0.0
Co112 Co 0.2562 0.92903 0.11493 0.0
O113 O 0.16224 0.90608 0.11791 0.0
O114 O 0.19976 0.84304 0.13571 0.0
C115 C 0.27558 0.96722 0.06736 0.0
O116 O 0.35162 0.939 0.11658 0.0
Co117 Co 0.36375 0.08015 0.10385 0.0
O118 O 0.4277 0.04752 0.1087 0.0
C119 C 0.27415 0.03342 0.15436 0.0
C120 C 0.1495 0.85384 0.13333 0.0
C121 C 0.41296 0.98777 0.11451 0.0
O122 O 0.27153 0.97694 0.1527 0.0
O123 O 0.30185 0.07888 0.13487 0.0
O124 O 0.24674 0.90339 0.07277 0.0
O125 O 0.28454 1.00285 0.09009 0.0
Co126 Co 0.37479 0.29899 0.45991 0.0
O127 O 0.30072 0.21118 0.47083 0.0
O128 O 0.40516 0.23943 0.4774 0.0
C129 C 0.33263 0.30659 0.41564 0.0
O130 O 0.46391 0.38681 0.45055 0.0
Co131 Co 0.34734 0.42259 0.44716 0.0
O132 O 0.4384 0.46229 0.43115 0.0
C133 C 0.34878 0.3731 0.50175 0.0
C134 C 0.34269 0.19449 0.48101 0.0
C135 C 0.48034 0.44386 0.43809 0.0
O136 O 0.37288 0.33401 0.49987 0.0
O137 O 0.38065 0.42784 0.48827 0.0
O138 O 0.36462 0.27346 0.41819 0.0
O139 O 0.32284 0.3296 0.43963 0.0
Co140 Co 0.09599 0.29278 0.7618 0.0
O141 O 0.15109 0.24954 0.76459 0.0
O142 O 0.16486 0.33273 0.79234 0.0
C143 C 0.08396 0.29407 0.71212 0.0
O144 O 0.05002 0.35087 0.76564 0.0
Co145 Co 0.95217 0.21778 0.73505 0.0
O146 O 0.95148 0.30236 0.74197 0.0
C147 C 0.99107 0.168 0.78553 0.0
C148 C 0.18071 0.28674 0.78717 0.0
C149 C 0.99666 0.35092 0.75638 0.0
O150 O 0.03558 0.22804 0.79121 0.0
O151 O 0.95828 0.152 0.76158 0.0
O152 O 0.13852 0.34046 0.72432 0.0
O153 O 0.04572 0.24765 0.72953 0.0
Co154 Co 0.82135 0.06984 0.11758 0.0
O155 O 0.91899 0.12012 0.11889 0.0
O156 O 0.85387 0.14228 0.1463 0.0
C157 C 0.80613 0.05329 0.06811 0.0
O158 O 0.71875 0.03071 0.12202 0.0
Co159 Co 0.74446 0.92431 0.09341 0.0
O160 O 0.66255 0.93041 0.10027 0.0
C161 C 0.84053 0.96588 0.14061 0.0
C162 C 0.9142 0.15428 0.14048 0.0
C163 C 0.66342 0.97947 0.11351 0.0
O164 O 0.82434 1.00952 0.14819 0.0
O165 O 0.82644 0.93969 0.11512 0.0
O166 O 0.81685 0.11001 0.07919 0.0
O167 O 0.81224 1.01507 0.08637 0.0
C168 C 0.96193 0.19434 0.19131 0.0
C169 C 0.97231 0.19434 0.16075 0.0
C170 C 1.0157 0.22213 0.21138 0.0
C171 C 0.08288 0.25311 0.20197 0.0
H172 H 0.91158 0.16963 0.2 0.0
H173 H 1.00435 0.21798 0.23461 0.0
S174 S 0.13795 0.2714 0.12413 0.0
N175 N 0.05573 0.23051 0.12215 0.0
N176 N 0.156 0.28494 0.15936 0.0
C177 C 0.09394 0.25627 0.17135 0.0
C178 C 0.03912 0.22636 0.15098 0.0
C179 C 0.84257 0.11913 0.47114 0.0
C180 C 0.84996 0.11188 0.50147 0.0
C181 C 0.81529 0.06379 0.45183 0.0
C182 C 0.79202 0.99808 0.46197 0.0
H183 H 0.86101 0.16842 0.46194 0.0
H184 H 0.81351 0.07277 0.42862 0.0
S185 S 0.79712 0.95101 0.53953 0.0
N186 N 0.83021 0.03274 0.54057 0.0
N187 N 0.77709 0.92967 0.50494 0.0
C188 C 0.79674 0.99002 0.49243 0.0
C189 C 0.82608 0.04641 0.51191 0.0
C190 C 0.81846 0.804 0.86835 0.0
C191 C 0.76384 0.81196 0.85962 0.0
C192 C 0.84771 0.77612 0.84955 0.0
C193 C 0.82521 0.75566 0.82059 0.0
H194 H 0.83954 0.82017 0.88997 0.0
H195 H 0.8894 0.77168 0.8577 0.0
S196 S 0.68476 0.76563 0.78602 0.0
N197 N 0.68849 0.79546 0.8193 0.0
N198 N 0.74445 0.74578 0.78423 0.0
C199 C 0.77066 0.76297 0.81153 0.0
C200 C 0.7399 0.79018 0.83086 0.0
C201 C 0.98553 0.71611 0.17015 0.0
C202 C 0.96109 0.75314 0.18551 0.0
C203 C 0.0468 0.74773 0.15391 0.0
C204 C 0.08569 0.81792 0.15154 0.0
H205 H 0.95655 0.66231 0.17017 0.0
H206 H 0.06267 0.71692 0.14241 0.0
S207 S 0.0482 0.93815 0.18939 0.0
N208 N 0.98587 0.86487 0.19893 0.0
N209 N 0.09613 0.92248 0.16767 0.0
C210 C 0.06242 0.85491 0.16733 0.0
C211 C 1.00182 0.8232 0.18441 0.0
C212 C 0.30648 0.07074 0.48679 0.0
C213 C 0.31865 0.13172 0.49924 0.0
C214 C 0.27362 1.00971 0.50277 0.0
C215 C 0.24988 1.00637 0.53176 0.0
H216 H 0.32037 0.06974 0.46417 0.0
H217 H 0.26367 0.96427 0.49172 0.0
S218 S 0.27271 0.15221 0.5751 0.0
N219 N 0.30808 0.18466 0.54322 0.0
N220 N 0.24449 0.07136 0.57238 0.0
C221 C 0.26343 0.06736 0.54456 0.0
C222 C 0.29801 0.12934 0.52858 0.0
C223 C 0.23844 0.24758 0.86054 0.0
C224 C 0.27633 0.21721 0.85225 0.0
C225 C 0.21167 0.27358 0.83955 0.0
C226 C 0.21921 0.26864 0.80899 0.0
H227 H 0.22829 0.2503 0.88355 0.0
H228 H 0.18184 0.29482 0.8474 0.0
S229 S 0.31325 0.19341 0.77517 0.0
N230 N 0.32082 0.1855 0.81075 0.0
N231 N 0.26826 0.23084 0.77181 0.0
C232 C 0.25734 0.23887 0.80041 0.0
C233 C 0.28636 0.21427 0.82178 0.0
C234 C 0.56941 0.47082 0.26315 0.0
C235 C 0.58048 0.50208 0.23563 0.0
C236 C 0.50589 0.41793 0.27111 0.0
C237 C 0.45009 0.39585 0.25235 0.0
H238 H 0.60868 0.49029 0.27939 0.0
H239 H 0.49981 0.39673 0.29284 0.0
S240 S 0.45494 0.4572 0.17662 0.0
N241 N 0.53202 0.50291 0.18858 0.0
N242 N 0.41307 0.4058 0.20372 0.0
C243 C 0.46177 0.42435 0.22416 0.0
C244 C 0.52665 0.47674 0.21583 0.0
C245 C 0.98994 0.55245 0.55136 0.0
C246 C 0.04935 0.61506 0.55203 0.0
C247 C 0.99056 0.49198 0.54856 0.0
C248 C 0.0506 0.4905 0.54637 0.0
H249 H 0.94181 0.54952 0.55364 0.0
H250 H 0.94345 0.44588 0.54932 0.0
S251 S 0.22023 0.63968 0.54371 0.0
N252 N 0.16997 0.67098 0.54791 0.0
N253 N 0.17154 0.55812 0.54256 0.0
C254 C 0.11041 0.55274 0.54562 0.0
C255 C 0.10968 0.6145 0.54843 0.0
C256 C 0.50211 0.06288 0.89869 0.0
C257 C 0.43954 1.0055 0.90225 0.0
C258 C 0.5615 0.05941 0.89787 0.0
C259 C 0.56191 0.99835 0.90035 0.0
H260 H 0.50573 0.11142 0.89771 0.0
H261 H 0.60806 0.10585 0.89613 0.0
S262 S 0.411 0.83208 0.90634 0.0
N263 N 0.38146 0.88427 0.90547 0.0
N264 N 0.49289 0.8785 0.90404 0.0
C265 C 0.49952 0.94017 0.90217 0.0
C266 C 0.43872 0.9436 0.90316 0.0
C267 C 0.6375 0.57312 0.40092 0.0
C268 C 0.65859 0.62836 0.41985 0.0
C269 C 0.58398 0.50974 0.40833 0.0
C270 C 0.5506 0.49821 0.43539 0.0
H271 H 0.65987 0.57968 0.37937 0.0
H272 H 0.56575 0.47078 0.39197 0.0
S273 S 0.58956 0.62325 0.49402 0.0
N274 N 0.64391 0.66516 0.46779 0.0
N275 N 0.54484 0.54635 0.4818 0.0
C276 C 0.57387 0.55179 0.4552 0.0
C277 C 0.6273 0.6166 0.44746 0.0
C278 C 0.92862 0.47268 0.74823 0.0
C279 C 0.97034 0.52627 0.76631 0.0
C280 C 0.93608 0.41561 0.74611 0.0
C281 C 0.98648 0.40994 0.76154 0.0
H282 H 0.89277 0.47653 0.73424 0.0
H283 H 0.90377 0.3769 0.73107 0.0
S284 S 0.10574 0.53554 0.81349 0.0
N285 N 0.06123 0.56869 0.80125 0.0
N286 N 0.07559 0.46256 0.7972 0.0
C287 C 1.02647 0.46223 0.78069 0.0
C288 C 1.01833 0.51986 0.78304 0.0
C289 C 0.47727 0.92632 0.10542 0.0
C290 C 0.47201 0.97799 0.11911 0.0
C291 C 0.53855 0.92614 0.10467 0.0
C292 C 0.59744 0.97759 0.11758 0.0
H293 H 0.43488 0.88774 0.09385 0.0
H294 H 0.54007 0.88628 0.09285 0.0
S295 S 0.6074 0.11981 0.15957 0.0
N296 N 0.5293 0.07852 0.14841 0.0
N297 N 0.6433 0.07821 0.14692 0.0
C298 C 0.59146 0.0274 0.13275 0.0
C299 C 0.52926 0.02753 0.13353 0.0
C300 C 0.25713 0.03813 0.20754 0.0
C301 C 0.24212 0.04673 0.17873 0.0
C302 C 0.24101 0.06731 0.23062 0.0
C303 C 0.20955 0.10526 0.22507 0.0
H304 H 0.28671 1.01441 0.21195 0.0
H305 H 0.2596 0.06593 0.25225 0.0
S306 S 0.13913 0.11993 0.15432 0.0
N307 N 0.18028 0.08027 0.14638 0.0
N308 N 0.14771 0.13338 0.19 0.0
C309 C 0.18493 0.10439 0.19689 0.0
C310 C 0.2024 0.07593 0.17347 0.0
C311 C 0.16608 0.24322 0.50701 0.0
C312 C 0.13414 0.28067 0.50232 0.0
C313 C 0.23535 0.27354 0.50653 0.0
C314 C 0.27516 0.34131 0.49954 0.0
H315 H 0.13804 0.1927 0.51533 0.0
H316 H 0.25762 0.24449 0.51369 0.0
S317 S 0.21275 0.45779 0.48045 0.0
N318 N 0.14491 0.38605 0.48699 0.0
N319 N 0.27561 0.44344 0.48478 0.0
C320 C 0.24277 0.37749 0.4916 0.0
C321 C 0.17197 0.34651 0.49256 0.0
C322 C 0.98239 0.14387 0.83834 0.0
C323 C 0.9652 0.12002 0.80962 0.0
C324 C 0.93819 0.11153 0.86118 0.0
C325 C 0.87646 0.05447 0.85574 0.0
H326 H 1.02579 0.1917 0.84279 0.0
H327 H 0.94994 0.13522 0.88249 0.0
S328 S 0.82676 0.95529 0.78736 0.0
N329 N 0.8965 0.02394 0.77895 0.0
N330 N 0.81243 0.9626 0.82228 0.0
C331 C 0.86613 0.02263 0.82854 0.0
C332 C 0.91136 0.05562 0.80525 0.0
C333 C 0.80264 0.8985 0.18408 0.0
C334 C 0.85238 0.92669 0.16256 0.0
C335 C 0.7658 0.82943 0.18678 0.0
C336 C 0.78254 0.78815 0.17016 0.0
H337 H 0.78261 0.92761 0.194 0.0
H338 H 0.72079 0.80872 0.19989 0.0
S339 S 0.93 0.84395 0.12196 0.0
N340 N 0.93271 0.9133 0.13307 0.0
N341 N 0.86451 0.78267 0.13843 0.0
C342 C 0.8426 0.81783 0.15438 0.0
C343 C 0.87967 0.88825 0.15173 0.0
C344 C 0.93999 0.90744 0.47508 0.0
C345 C 0.94858 0.8869 0.44717 0.0
C346 C 0.97021 0.89769 0.49945 0.0
C347 C 1.01093 0.86877 0.49639 0.0
H348 H 0.9042 0.9243 0.47869 0.0
H349 H 0.95705 0.90749 0.521 0.0
S350 S 0.06897 0.83053 0.4271 0.0
N351 N 1.01495 0.85398 0.41692 0.0
N352 N 0.07278 0.83659 0.46319 0.0
C353 C 1.0297 0.85974 0.46826 0.0
C354 C 0.99832 0.86898 0.44334 0.0
C355 C 0.0904 0.90815 0.85781 0.0
C356 C 0.15918 0.93512 0.86158 0.0
C357 C 0.05348 0.84723 0.84378 0.0
C358 C 0.08462 0.81171 0.83389 0.0
H359 H 0.06551 0.93491 0.86524 0.0
H360 H 1.00176 0.8305 0.83874 0.0
S361 S 0.261 0.85586 0.84424 0.0
N362 N 0.25551 0.91886 0.85826 0.0
N363 N 0.18548 0.80295 0.83237 0.0
C364 C 0.15225 0.83574 0.83993 0.0
C365 C 0.18996 0.89822 0.85353 0.0
C366 C 0.23915 0.28336 0.38186 0.0
C367 C 0.3079 0.31764 0.38748 0.0
C368 C 0.21391 0.29065 0.35496 0.0
C369 C 0.25616 0.33414 0.33304 0.0
H370 H 0.20494 0.24821 0.39783 0.0
H371 H 0.16139 0.25848 0.35046 0.0
S372 S 0.43889 0.44409 0.33931 0.0
N373 N 0.4172 0.40197 0.3705 0.0
N374 N 0.36938 0.41776 0.32035 0.0
C375 C 0.32436 0.37296 0.3395 0.0
C376 C 0.35037 0.36416 0.36662 0.0
C377 C 0.96846 0.23694 0.64585 0.0
C378 C 0.99871 0.2901 0.62609 0.0
C379 C 0.99736 0.23951 0.67322 0.0
C380 C 0.05765 0.29564 0.68234 0.0
H381 H 0.92445 0.19131 0.63943 0.0
H382 H 0.97256 0.19574 0.68703 0.0
S383 S 0.15336 0.45078 0.63942 0.0
N384 N 0.09021 0.40237 0.61801 0.0
N385 N 0.14375 0.40747 0.66968 0.0
C386 C 0.08696 0.35028 0.66322 0.0
C387 C 0.05765 0.3474 0.63513 0.0
C388 C 0.7743 0.96419 0.03041 0.0
C389 C 0.77763 0.02495 0.03873 0.0
C390 C 0.74672 0.93282 0.00365 0.0
C391 C 0.72146 0.96084 0.98374 0.0
H392 H 0.79479 0.9409 0.04444 0.0
H393 H 0.74915 0.88863 0.99775 0.0
S394 S 0.71157 0.11511 0.9954 0.0
N395 N 0.74812 0.10875 0.02538 0.0
N396 N 0.69715 0.05054 0.97484 0.0
C397 C 0.72206 0.02012 0.99208 0.0
C398 C 0.74992 0.05202 0.01953 0.0
C399 C 0.70696 0.70724 0.30826 0.0
C400 C 0.7403 0.74772 0.28399 0.0
C401 C 0.69393 0.73418 0.33351 0.0
C402 C 0.71602 0.80283 0.33579 0.0
H403 H 0.69222 0.65486 0.30799 0.0
H404 H 0.6707 0.70184 0.35215 0.0
S405 S 0.79994 0.92839 0.27711 0.0
N406 N 0.78836 0.8581 0.26246 0.0
N407 N 0.7684 0.90927 0.3106 0.0
C408 C 0.74568 0.84267 0.31093 0.0
C409 C 0.75691 0.81499 0.28491 0.0
C410 C 0.08391 0.79111 0.66262 0.0
C411 C 0.04547 0.78365 0.63772 0.0
C412 C 0.05442 0.77132 0.69047 0.0
C413 C 0.98463 0.74153 0.69496 0.0
H414 H 0.13763 0.81408 0.6608 0.0
H415 H 0.0877 0.78105 0.70871 0.0
S416 S 0.86049 0.70946 0.63696 0.0
N417 N 0.9327 0.74423 0.61943 0.0
N418 N 0.8779 0.70504 0.67171 0.0
C419 C 0.94521 0.73234 0.6702 0.0
C420 C 0.97539 0.75379 0.64171 0.0
C421 C 0.24063 0.9676 0.01578 0.0
C422 C 0.28887 0.99777 0.03753 0.0
C423 C 0.24621 0.99959 0.98894 0.0
C424 C 0.30142 0.06273 0.98192 0.0
H425 H 0.19661 0.91992 0.01992 0.0
H426 H 0.20584 0.97389 0.97355 0.0
S427 S 0.44382 0.16184 0.03113 0.0
N428 N 0.39478 0.09445 0.05045 0.0
N429 N 0.40645 0.15314 0.99926 0.0
C430 C 0.35084 0.0932 0.00334 0.0
C431 C 0.34435 0.06103 0.03121 0.0
loop_
_geom_bond_atom_site_label_1
_geom_bond_atom_site_label_2
_geom_bond_distance
_geom_bond_site_symmetry_2
_ccdc_geom_bond_type
Co0 O1 2.216 . S
Co0 O2 2.091 . S
Co0 O4 2.004 . S
Co0 O10 2.021 . S
Co0 O12 2.137 . S
Co0 O13 2.244 . S
O1 Co0 2.216 . S
O1 C8 1.247 . S
O2 Co0 2.091 . S
O2 C8 1.261 . S
C3 O12 1.247 . S
C3 O13 1.272 . S
O4 Co0 2.004 . S
O4 C9 1.259 . S
Co5 O6 2.061 . S
Co5 O11 2.052 . S
Co5 O13 2.135 . S
O6 Co5 2.061 . S
O6 C9 1.235 . S
C7 O10 1.238 . S
C7 O11 1.241 . S
C8 O1 1.247 . S
C8 O2 1.261 . S
C9 O4 1.259 . S
C9 O6 1.235 . S
O10 Co0 2.021 . S
O10 C7 1.238 . S
O11 Co5 2.052 . S
O11 C7 1.241 . S
O12 Co0 2.137 . S
O12 C3 1.247 . S
O13 Co0 2.244 . S
O13 C3 1.272 . S
O13 Co5 2.135 . S
Co14 O15 2.216 . S
Co14 O16 2.091 . S
Co14 O18 2.004 . S
Co14 O24 2.021 1_655 S
Co14 O26 2.137 . S
Co14 O27 2.244 . S
O15 Co14 2.216 . S
O15 C22 1.247 . S
O16 Co14 2.091 . S
O16 C22 1.261 . S
C17 O26 1.247 . S
C17 O27 1.271 . S
O18 Co14 2.004 . S
O18 C23 1.259 . S
Co19 O20 2.061 . S
Co19 O25 2.052 . S
Co19 O27 2.135 1_455 S
O20 Co19 2.061 . S
O20 C23 1.235 1_455 S
C21 O24 1.238 . S
C21 O25 1.241 . S
C22 O15 1.247 . S
C22 O16 1.261 . S
C23 O18 1.259 . S
C23 O20 1.235 1_655 S
O24 Co14 2.021 1_455 S
O24 C21 1.238 . S
O25 Co19 2.052 . S
O25 C21 1.241 . S
O26 Co14 2.137 . S
O26 C17 1.247 . S
O27 Co14 2.244 . S
O27 C17 1.271 . S
O27 Co19 2.135 1_655 S
Co28 O29 2.216 . S
Co28 O30 2.091 . S
Co28 O32 2.004 . S
Co28 O38 2.021 1_565 S
Co28 O40 2.137 . S
Co28 O41 2.243 . S
O29 Co28 2.216 . S
O29 C36 1.247 . S
O30 Co28 2.091 . S
O30 C36 1.261 . S
C31 O40 1.247 . S
C31 O41 1.271 . S
O32 Co28 2.004 . S
O32 C37 1.259 . S
Co33 O34 2.061 . S
Co33 O39 2.052 . S
Co33 O41 2.136 1_545 S
O34 Co33 2.061 . S
O34 C37 1.235 1_545 S
C35 O38 1.238 . S
C35 O39 1.241 . S
C36 O29 1.247 . S
C36 O30 1.261 . S
C37 O32 1.259 . S
C37 O34 1.235 1_565 S
O38 Co28 2.021 1_545 S
O38 C35 1.238 . S
O39 Co33 2.052 . S
O39 C35 1.241 . S
O40 Co28 2.137 . S
O40 C31 1.247 . S
O41 Co28 2.243 . S
O41 C31 1.271 . S
O41 Co33 2.136 1_565 S
Co42 O43 2.216 . S
Co42 O44 2.091 . S
Co42 O46 2.004 . S
Co42 O52 2.021 . S
Co42 O54 2.137 . S
Co42 O55 2.244 . S
O43 Co42 2.216 . S
O43 C50 1.247 . S
O44 Co42 2.091 . S
O44 C50 1.261 . S
C45 O54 1.247 . S
C45 O55 1.272 . S
O46 Co42 2.004 . S
O46 C51 1.259 . S
Co47 O48 2.061 . S
Co47 O53 2.052 . S
Co47 O55 2.135 . S
O48 Co47 2.061 . S
O48 C51 1.235 . S
C49 O52 1.238 . S
C49 O53 1.241 . S
C50 O43 1.247 . S
C50 O44 1.261 . S
C51 O46 1.259 . S
C51 O48 1.235 . S
O52 Co42 2.021 . S
O52 C49 1.238 . S
O53 Co47 2.052 . S
O53 C49 1.241 . S
O54 Co42 2.137 . S
O54 C45 1.247 . S
O55 Co42 2.244 . S
O55 C45 1.272 . S
O55 Co47 2.135 . S
Co56 O57 2.216 . S
Co56 O58 2.091 . S
Co56 O60 2.004 . S
Co56 O66 2.021 1_455 S
Co56 O68 2.137 . S
Co56 O69 2.244 . S
O57 Co56 2.216 . S
O57 C64 1.247 . S
O58 Co56 2.091 . S
O58 C64 1.261 . S
C59 O68 1.247 . S
C59 O69 1.271 . S
O60 Co56 2.004 . S
O60 C65 1.259 . S
Co61 O62 2.061 . S
Co61 O67 2.052 . S
Co61 O69 2.135 1_655 S
O62 Co61 2.061 . S
O62 C65 1.235 1_655 S
C63 O66 1.238 . S
C63 O67 1.241 . S
C64 O57 1.247 . S
C64 O58 1.261 . S
C65 O60 1.259 . S
C65 O62 1.235 1_455 S
O66 Co56 2.021 1_655 S
O66 C63 1.238 . S
O67 Co61 2.052 . S
O67 C63 1.241 . S
O68 Co56 2.137 . S
O68 C59 1.247 . S
O69 Co56 2.244 . S
O69 C59 1.271 . S
O69 Co61 2.135 1_455 S
Co70 O71 2.216 . S
Co70 O72 2.091 . S
Co70 O74 2.004 . S
Co70 O80 2.021 1_545 S
Co70 O82 2.137 . S
Co70 O83 2.243 . S
O71 Co70 2.216 . S
O71 C78 1.247 . S
O72 Co70 2.091 . S
O72 C78 1.261 . S
C73 O82 1.247 . S
C73 O83 1.271 . S
O74 Co70 2.004 . S
O74 C79 1.259 . S
Co75 O76 2.061 . S
Co75 O81 2.052 . S
Co75 O83 2.136 1_565 S
O76 Co75 2.061 . S
O76 C79 1.235 1_565 S
C77 O80 1.238 . S
C77 O81 1.241 . S
C78 O71 1.247 . S
C78 O72 1.261 . S
C79 O74 1.259 . S
C79 O76 1.235 1_545 S
O80 Co70 2.021 1_565 S
O80 C77 1.238 . S
O81 Co75 2.052 . S
O81 C77 1.241 . S
O82 Co70 2.137 . S
O82 C73 1.247 . S
O83 Co70 2.243 . S
O83 C73 1.271 . S
O83 Co75 2.136 1_545 S
Co84 O85 2.216 . S
Co84 O86 2.091 . S
Co84 O88 2.004 . S
Co84 O94 2.021 . S
Co84 O96 2.137 . S
Co84 O97 2.244 . S
O85 Co84 2.216 . S
O85 C92 1.247 . S
O86 Co84 2.091 . S
O86 C92 1.261 . S
C87 O96 1.247 . S
C87 O97 1.272 . S
O88 Co84 2.004 . S
O88 C93 1.259 . S
Co89 O90 2.061 . S
Co89 O95 2.052 . S
Co89 O97 2.135 . S
O90 Co89 2.061 . S
O90 C93 1.235 . S
C91 O94 1.238 . S
C91 O95 1.241 . S
C92 O85 1.247 . S
C92 O86 1.261 . S
C93 O88 1.259 . S
C93 O90 1.235 . S
O94 Co84 2.021 . S
O94 C91 1.238 . S
O95 Co89 2.052 . S
O95 C91 1.241 . S
O96 Co84 2.137 . S
O96 C87 1.247 . S
O97 Co84 2.244 . S
O97 C87 1.272 . S
O97 Co89 2.135 . S
Co98 O99 2.216 . S
Co98 O100 2.091 . S
Co98 O102 2.004 . S
Co98 O108 2.021 1_655 S
Co98 O110 2.137 . S
Co98 O111 2.243 . S
O99 Co98 2.216 . S
O99 C106 1.247 . S
O100 Co98 2.091 . S
O100 C106 1.261 . S
C101 O110 1.247 . S
C101 O111 1.271 . S
O102 Co98 2.004 . S
O102 C107 1.259 . S
Co103 O104 2.061 . S
Co103 O109 2.052 . S
Co103 O111 2.136 1_455 S
O104 Co103 2.061 . S
O104 C107 1.235 1_455 S
C105 O108 1.238 . S
C105 O109 1.241 . S
C106 O99 1.247 . S
C106 O100 1.261 . S
C107 O102 1.259 . S
C107 O104 1.235 1_655 S
O108 Co98 2.021 1_455 S
O108 C105 1.238 . S
O109 Co103 2.052 . S
O109 C105 1.241 . S
O110 Co98 2.137 . S
O110 C101 1.247 . S
O111 Co98 2.243 . S
O111 C101 1.271 . S
O111 Co103 2.136 1_655 S
Co112 O113 2.216 . S
Co112 O114 2.091 . S
Co112 O116 2.004 . S
Co112 O122 2.021 1_565 S
Co112 O124 2.137 . S
Co112 O125 2.244 . S
O113 Co112 2.216 . S
O113 C120 1.247 . S
O114 Co112 2.091 . S
O114 C120 1.261 . S
C115 O124 1.247 . S
C115 O125 1.271 . S
O116 Co112 2.004 . S
O116 C121 1.259 . S
Co117 O118 2.061 . S
Co117 O123 2.052 . S
Co117 O125 2.135 1_545 S
O118 Co117 2.061 . S
O118 C121 1.235 1_545 S
C119 O122 1.238 . S
C119 O123 1.241 . S
C120 O113 1.247 . S
C120 O114 1.261 . S
C121 O116 1.259 . S
C121 O118 1.235 1_565 S
O122 Co112 2.021 1_545 S
O122 C119 1.238 . S
O123 Co117 2.052 . S
O123 C119 1.241 . S
O124 Co112 2.137 . S
O124 C115 1.247 . S
O125 Co112 2.244 . S
O125 C115 1.271 . S
O125 Co117 2.135 1_565 S
Co126 O127 2.216 . S
Co126 O128 2.091 . S
Co126 O130 2.004 . S
Co126 O136 2.021 . S
Co126 O138 2.137 . S
Co126 O139 2.244 . S
O127 Co126 2.216 . S
O127 C134 1.247 . S
O128 Co126 2.091 . S
O128 C134 1.261 . S
C129 O138 1.247 . S
C129 O139 1.272 . S
O130 Co126 2.004 . S
O130 C135 1.259 . S
Co131 O132 2.061 . S
Co131 O137 2.052 . S
Co131 O139 2.135 . S
O132 Co131 2.061 . S
O132 C135 1.235 . S
C133 O136 1.238 . S
C133 O137 1.241 . S
C134 O127 1.247 . S
C134 O128 1.261 . S
C135 O130 1.259 . S
C135 O132 1.235 . S
O136 Co126 2.021 . S
O136 C133 1.238 . S
O137 Co131 2.052 . S
O137 C133 1.241 . S
O138 Co126 2.137 . S
O138 C129 1.247 . S
O139 Co126 2.244 . S
O139 C129 1.272 . S
O139 Co131 2.135 . S
Co140 O141 2.216 . S
Co140 O142 2.091 . S
Co140 O144 2.004 . S
Co140 O150 2.021 1_455 S
Co140 O152 2.137 . S
Co140 O153 2.243 . S
O141 Co140 2.216 . S
O141 C148 1.247 . S
O142 Co140 2.091 . S
O142 C148 1.261 . S
C143 O152 1.247 . S
C143 O153 1.271 . S
O144 Co140 2.004 . S
O144 C149 1.259 . S
Co145 O146 2.061 . S
Co145 O151 2.052 . S
Co145 O153 2.136 1_655 S
O146 Co145 2.061 . S
O146 C149 1.235 1_655 S
C147 O150 1.238 . S
C147 O151 1.241 . S
C148 O141 1.247 . S
C148 O142 1.261 . S
C149 O144 1.259 . S
C149 O146 1.235 1_455 S
O150 Co140 2.021 1_655 S
O150 C147 1.238 . S
O151 Co145 2.052 . S
O151 C147 1.241 . S
O152 Co140 2.137 . S
O152 C143 1.247 . S
O153 Co140 2.243 . S
O153 C143 1.271 . S
O153 Co145 2.136 1_455 S
Co154 O155 2.216 . S
Co154 O156 2.091 . S
Co154 O158 2.004 . S
Co154 O164 2.021 1_545 S
Co154 O166 2.137 . S
Co154 O167 2.244 . S
O155 Co154 2.216 . S
O155 C162 1.247 . S
O156 Co154 2.091 . S
O156 C162 1.261 . S
C157 O166 1.247 . S
C157 O167 1.271 . S
O158 Co154 2.004 . S
O158 C163 1.259 . S
Co159 O160 2.061 . S
Co159 O165 2.052 . S
Co159 O167 2.135 1_565 S
O160 Co159 2.061 . S
O160 C163 1.235 1_565 S
C161 O164 1.238 . S
C161 O165 1.241 . S
C162 O155 1.247 . S
C162 O156 1.261 . S
C163 O158 1.259 . S
C163 O160 1.235 1_545 S
O164 Co154 2.021 1_565 S
O164 C161 1.238 . S
O165 Co159 2.052 . S
O165 C161 1.241 . S
O166 Co154 2.137 . S
O166 C157 1.247 . S
O167 Co154 2.244 . S
O167 C157 1.271 . S
O167 Co159 2.135 1_545 S
C168 C169 1.369 . S
C168 C170 1.419 1_655 S
C168 H172 0.930 . S
C169 C168 1.369 . S
C169 C178 1.429 1_655 S
C170 C168 1.419 1_455 S
C170 C171 1.363 . S
C170 H173 0.929 1_455 S
C171 C170 1.363 . S
C171 C177 1.428 . S
H172 C168 0.930 . S
H173 C170 0.929 1_655 S
S174 N175 1.613 . S
S174 N176 1.610 . S
N175 S174 1.613 . S
N175 C178 1.350 . S
N176 S174 1.610 . S
N176 C177 1.351 . S
C177 C171 1.428 . S
C177 N176 1.351 . S
C177 C178 1.434 . S
C178 C169 1.429 1_455 S
C178 N175 1.350 . S
C178 C177 1.434 . S
C179 C180 1.369 . S
C179 C181 1.419 1_545 S
C179 H183 0.930 . S
C180 C179 1.369 . S
C180 C189 1.429 . S
C181 C179 1.419 1_565 S
C181 C182 1.363 . S
C181 H184 0.929 . S
C182 C181 1.363 . S
C182 C188 1.428 . S
H183 C179 0.930 . S
H184 C181 0.929 . S
S185 N186 1.626 . S
S185 N187 1.610 . S
N186 S185 1.626 . S
N186 C189 1.354 1_565 S
N187 S185 1.610 . S
N187 C188 1.351 . S
C188 C182 1.428 . S
C188 N187 1.351 . S
C188 C189 1.434 1_565 S
C189 C180 1.429 . S
C189 N186 1.354 1_545 S
C189 C188 1.434 1_545 S
C190 C191 1.369 . S
C190 C192 1.419 . S
C190 H194 0.930 . S
C191 C190 1.369 . S
C191 C200 1.429 . S
C192 C190 1.419 . S
C192 C193 1.363 . S
C192 H195 0.929 . S
C193 C192 1.363 . S
C193 C199 1.428 . S
H194 C190 0.930 . S
H195 C192 0.929 . S
S196 N197 1.613 . S
S196 N198 1.610 . S
N197 S196 1.613 . S
N197 C200 1.350 . S
N198 S196 1.610 . S
N198 C199 1.351 . S
C199 C193 1.428 . S
C199 N198 1.351 . S
C199 C200 1.434 . S
C200 C191 1.429 . S
C200 N197 1.350 . S
C200 C199 1.434 . S
C201 C202 1.369 . S
C201 C203 1.419 1_655 S
C201 H205 0.930 . S
C202 C201 1.369 . S
C202 C211 1.429 . S
C203 C201 1.419 1_455 S
C203 C204 1.363 . S
C203 H206 0.929 . S
C204 C203 1.363 . S
C204 C210 1.428 . S
H205 C201 0.930 . S
H206 C203 0.929 . S
S207 N208 1.613 . S
S207 N209 1.610 1_655 S
N208 S207 1.613 . S
N208 C211 1.350 . S
N209 S207 1.610 1_455 S
N209 C210 1.351 . S
C210 C204 1.428 . S
C210 N209 1.351 . S
C210 C211 1.434 1_455 S
C211 C202 1.429 . S
C211 N208 1.350 . S
C211 C210 1.434 1_655 S
C212 C213 1.369 . S
C212 C214 1.419 1_545 S
C212 H216 0.930 . S
C213 C212 1.369 . S
C213 C222 1.429 . S
C214 C212 1.419 1_565 S
C214 C215 1.363 . S
C214 H217 0.929 . S
C215 C214 1.363 . S
C215 C221 1.440 . S
H216 C212 0.930 . S
H217 C214 0.929 . S
S218 N219 1.613 . S
S218 N220 1.610 . S
N219 S218 1.613 . S
N219 C222 1.350 . S
N220 S218 1.610 . S
N220 C221 1.348 1_545 S
C221 C215 1.440 . S
C221 N220 1.348 1_565 S
C221 C222 1.425 1_565 S
C222 C213 1.429 . S
C222 N219 1.350 . S
C222 C221 1.425 1_545 S
C223 C224 1.369 . S
C223 C225 1.419 . S
C223 H227 0.930 . S
C224 C223 1.369 . S
C224 C233 1.429 . S
C225 C223 1.419 . S
C225 C226 1.363 . S
C225 H228 0.929 . S
C226 C225 1.363 . S
C226 C232 1.428 . S
H227 C223 0.930 . S
H228 C225 0.929 . S
S229 N230 1.613 . S
S229 N231 1.610 . S
N230 S229 1.613 . S
N230 C233 1.350 . S
N231 S229 1.610 . S
N231 C232 1.351 . S
C232 C226 1.428 . S
C232 N231 1.351 . S
C232 C233 1.434 . S
C233 C224 1.429 . S
C233 N230 1.350 . S
C233 C232 1.434 . S
C234 C235 1.369 . S
C234 C236 1.419 . S
C234 H238 0.930 . S
C235 C234 1.369 . S
C235 C244 1.429 . S
C236 C234 1.419 . S
C236 C237 1.363 . S
C236 H239 0.929 . S
C237 C236 1.363 . S
C237 C243 1.428 . S
H238 C234 0.930 . S
H239 C236 0.929 . S
S240 N241 1.613 . S
S240 N242 1.610 . S
N241 S240 1.613 . S
N241 C244 1.350 . S
N242 S240 1.610 . S
N242 C243 1.351 . S
C243 C237 1.428 . S
C243 N242 1.351 . S
C243 C244 1.434 . S
C244 C235 1.429 . S
C244 N241 1.350 . S
C244 C243 1.434 . S
C245 C246 1.369 1_655 S
C245 C247 1.419 . S
C245 H249 0.930 . S
C246 C245 1.369 1_455 S
C246 C255 1.429 . S
C247 C245 1.419 . S
C247 C248 1.363 . S
C247 H250 0.929 . S
C248 C247 1.363 . S
C248 C254 1.428 1_655 S
H249 C245 0.930 . S
H250 C247 0.929 . S
S251 N252 1.613 . S
S251 N253 1.610 . S
N252 S251 1.613 . S
N252 C255 1.350 . S
N253 S251 1.610 . S
N253 C254 1.351 . S
C254 C248 1.428 1_455 S
C254 N253 1.351 . S
C254 C255 1.434 . S
C255 C246 1.429 . S
C255 N252 1.350 . S
C255 C254 1.434 . S
C256 C257 1.369 . S
C256 C258 1.419 . S
C256 H260 0.930 . S
C257 C256 1.369 . S
C257 C266 1.429 1_545 S
C258 C256 1.419 . S
C258 C259 1.363 1_545 S
C258 H261 0.929 . S
C259 C258 1.363 1_565 S
C259 C265 1.428 . S
H260 C256 0.930 . S
H261 C258 0.929 . S
S262 N263 1.613 . S
S262 N264 1.610 . S
N263 S262 1.613 . S
N263 C266 1.350 . S
N264 S262 1.610 . S
N264 C265 1.351 . S
C265 C259 1.428 . S
C265 N264 1.351 . S
C265 C266 1.434 . S
C266 C257 1.429 1_565 S
C266 N263 1.350 . S
C266 C265 1.434 . S
C267 C268 1.369 . S
C267 C269 1.419 . S
C267 H271 0.930 . S
C268 C267 1.369 . S
C268 C277 1.429 . S
C269 C267 1.419 . S
C269 C270 1.363 . S
C269 H272 0.929 . S
C270 C269 1.363 . S
C270 C276 1.428 . S
H271 C267 0.930 . S
H272 C269 0.929 . S
S273 N274 1.613 . S
S273 N275 1.610 . S
N274 S273 1.613 . S
N274 C277 1.350 . S
N275 S273 1.610 . S
N275 C276 1.351 . S
C276 C270 1.428 . S
C276 N275 1.351 . S
C276 C277 1.434 . S
C277 C268 1.429 . S
C277 N274 1.350 . S
C277 C276 1.434 . S
C278 C279 1.369 . S
C278 C280 1.419 . S
C278 H282 0.930 . S
C279 C278 1.369 . S
C279 C288 1.429 1_655 S
C280 C278 1.419 . S
C280 C281 1.363 1_655 S
C280 H283 0.929 . S
C281 C280 1.363 1_455 S
C281 C287 1.428 . S
H282 C278 0.930 . S
H283 C280 0.929 . S
S284 N285 1.613 . S
S284 N286 1.610 . S
N285 S284 1.613 . S
N285 C288 1.350 . S
N286 S284 1.610 . S
N286 C287 1.351 . S
C287 C281 1.428 . S
C287 N286 1.351 . S
C287 C288 1.434 . S
C288 C279 1.429 1_455 S
C288 N285 1.350 . S
C288 C287 1.434 . S
C289 C290 1.369 . S
C289 C291 1.419 . S
C289 H293 0.930 . S
C290 C289 1.369 . S
C290 C299 1.429 1_565 S
C291 C289 1.419 . S
C291 C292 1.363 1_565 S
C291 H294 0.929 . S
C292 C291 1.363 1_545 S
C292 C298 1.428 . S
H293 C289 0.930 . S
H294 C291 0.929 . S
S295 N296 1.613 . S
S295 N297 1.610 . S
N296 S295 1.613 . S
N296 C299 1.350 . S
N297 S295 1.610 . S
N297 C298 1.351 . S
C298 C292 1.428 . S
C298 N297 1.351 . S
C298 C299 1.434 . S
C299 C290 1.429 1_545 S
C299 N296 1.350 . S
C299 C298 1.434 . S
C300 C301 1.369 . S
C300 C302 1.419 . S
C300 H304 0.930 . S
C301 C300 1.369 . S
C301 C310 1.429 . S
C302 C300 1.419 . S
C302 C303 1.363 . S
C302 H305 0.929 . S
C303 C302 1.363 . S
C303 C309 1.428 . S
H304 C300 0.930 . S
H305 C302 0.929 . S
S306 N307 1.613 . S
S306 N308 1.610 . S
N307 S306 1.613 . S
N307 C310 1.350 . S
N308 S306 1.610 . S
N308 C309 1.351 . S
C309 C303 1.428 . S
C309 N308 1.351 . S
C309 C310 1.434 . S
C310 C301 1.429 . S
C310 N307 1.350 . S
C310 C309 1.434 . S
C311 C312 1.369 . S
C311 C313 1.419 . S
C311 H315 0.930 . S
C312 C311 1.369 . S
C312 C321 1.429 . S
C313 C311 1.419 . S
C313 C314 1.363 . S
C313 H316 0.929 . S
C314 C313 1.363 . S
C314 C320 1.428 . S
H315 C311 0.930 . S
H316 C313 0.929 . S
S317 N318 1.613 . S
S317 N319 1.610 . S
N318 S317 1.613 . S
N318 C321 1.350 . S
N319 S317 1.610 . S
N319 C320 1.351 . S
C320 C314 1.428 . S
C320 N319 1.351 . S
C320 C321 1.434 . S
C321 C312 1.429 . S
C321 N318 1.350 . S
C321 C320 1.434 . S
C322 C323 1.369 . S
C322 C324 1.419 . S
C322 H326 0.930 . S
C323 C322 1.369 . S
C323 C332 1.429 . S
C324 C322 1.419 . S
C324 C325 1.363 . S
C324 H327 0.929 . S
C325 C324 1.363 . S
C325 C331 1.428 . S
H326 C322 0.930 . S
H327 C324 0.929 . S
S328 N329 1.613 . S
S328 N330 1.610 . S
N329 S328 1.613 . S
N329 C332 1.350 . S
N330 S328 1.610 . S
N330 C331 1.351 . S
C331 C325 1.428 . S
C331 N330 1.351 . S
C331 C332 1.434 . S
C332 C323 1.429 . S
C332 N329 1.350 . S
C332 C331 1.434 . S
C333 C334 1.369 . S
C333 C335 1.419 . S
C333 H337 0.930 . S
C334 C333 1.369 . S
C334 C343 1.429 . S
C335 C333 1.419 . S
C335 C336 1.363 . S
C335 H338 0.929 . S
C336 C335 1.363 . S
C336 C342 1.428 . S
H337 C333 0.930 . S
H338 C335 0.929 . S
S339 N340 1.613 . S
S339 N341 1.610 . S
N340 S339 1.613 . S
N340 C343 1.350 . S
N341 S339 1.610 . S
N341 C342 1.351 . S
C342 C336 1.428 . S
C342 N341 1.351 . S
C342 C343 1.434 . S
C343 C334 1.429 . S
C343 N340 1.350 . S
C343 C342 1.434 . S
C344 C345 1.369 . S
C344 C346 1.419 . S
C344 H348 0.930 . S
C345 C344 1.369 . S
C345 C354 1.429 . S
C346 C344 1.419 . S
C346 C347 1.363 . S
C346 H349 0.929 . S
C347 C346 1.363 . S
C347 C353 1.428 . S
H348 C344 0.930 . S
H349 C346 0.929 . S
S350 N351 1.613 . S
S350 N352 1.610 . S
N351 S350 1.613 . S
N351 C354 1.350 . S
N352 S350 1.610 . S
N352 C353 1.351 . S
C353 C347 1.428 . S
C353 N352 1.351 . S
C353 C354 1.434 . S
C354 C345 1.429 . S
C354 N351 1.350 . S
C354 C353 1.434 . S
C355 C356 1.369 . S
C355 C357 1.419 . S
C355 H359 0.930 . S
C356 C355 1.369 . S
C356 C365 1.429 . S
C357 C355 1.419 . S
C357 C358 1.363 . S
C357 H360 0.929 . S
C358 C357 1.363 . S
C358 C364 1.428 . S
H359 C355 0.930 . S
H360 C357 0.929 . S
S361 N362 1.613 . S
S361 N363 1.610 . S
N362 S361 1.613 . S
N362 C365 1.350 . S
N363 S361 1.610 . S
N363 C364 1.351 . S
C364 C358 1.428 . S
C364 N363 1.351 . S
C364 C365 1.434 . S
C365 C356 1.429 . S
C365 N362 1.350 . S
C365 C364 1.434 . S
C366 C367 1.369 . S
C366 C368 1.419 . S
C366 H370 0.930 . S
C367 C366 1.369 . S
C367 C376 1.429 . S
C368 C366 1.419 . S
C368 C369 1.363 . S
C368 H371 0.929 . S
C369 C368 1.363 . S
C369 C375 1.428 . S
H370 C366 0.930 . S
H371 C368 0.929 . S
S372 N373 1.613 . S
S372 N374 1.610 . S
N373 S372 1.613 . S
N373 C376 1.350 . S
N374 S372 1.610 . S
N374 C375 1.351 . S
C375 C369 1.428 . S
C375 N374 1.351 . S
C375 C376 1.434 . S
C376 C367 1.429 . S
C376 N373 1.350 . S
C376 C375 1.434 . S
C377 C378 1.369 . S
C377 C379 1.419 . S
C377 H381 0.930 . S
C378 C377 1.369 . S
C378 C387 1.429 1_655 S
C379 C377 1.419 . S
C379 C380 1.363 1_655 S
C379 H382 0.929 . S
C380 C379 1.363 1_455 S
C380 C386 1.428 . S
H381 C377 0.930 . S
H382 C379 0.929 . S
S383 N384 1.613 . S
S383 N385 1.610 . S
N384 S383 1.613 . S
N384 C387 1.350 . S
N385 S383 1.610 . S
N385 C386 1.351 . S
C386 C380 1.428 . S
C386 N385 1.351 . S
C386 C387 1.434 . S
C387 C378 1.429 1_455 S
C387 N384 1.350 . S
C387 C386 1.434 . S
C388 C389 1.369 1_565 S
C388 C390 1.419 1_554 S
C388 H392 0.930 . S
C389 C388 1.369 1_545 S
C389 C398 1.429 . S
C390 C388 1.419 1_556 S
C390 C391 1.363 . S
C390 H393 0.929 . S
C391 C390 1.363 . S
C391 C397 1.428 1_565 S
H392 C388 0.930 . S
H393 C390 0.929 . S
S394 N395 1.613 1_556 S
S394 N396 1.610 . S
N395 S394 1.613 1_554 S
N395 C398 1.350 . S
N396 S394 1.610 . S
N396 C397 1.351 . S
C397 C391 1.428 1_545 S
C397 N396 1.351 . S
C397 C398 1.434 1_556 S
C398 C389 1.429 . S
C398 N395 1.350 . S
C398 C397 1.434 1_554 S
C399 C400 1.369 . S
C399 C401 1.419 . S
C399 H403 0.930 . S
C400 C399 1.369 . S
C400 C409 1.429 . S
C401 C399 1.419 . S
C401 C402 1.363 . S
C401 H404 0.929 . S
C402 C401 1.363 . S
C402 C408 1.428 . S
H403 C399 0.930 . S
H404 C401 0.929 . S
S405 N406 1.613 . S
S405 N407 1.610 . S
N406 S405 1.613 . S
N406 C409 1.350 . S
N407 S405 1.610 . S
N407 C408 1.351 . S
C408 C402 1.428 . S
C408 N407 1.351 . S
C408 C409 1.434 . S
C409 C400 1.429 . S
C409 N406 1.350 . S
C409 C408 1.434 . S
C410 C411 1.369 . S
C410 C412 1.419 . S
C410 H414 0.930 . S
C411 C410 1.369 . S
C411 C420 1.429 1_455 S
C412 C410 1.419 . S
C412 C413 1.363 1_455 S
C412 H415 0.929 . S
C413 C412 1.363 1_655 S
C413 C419 1.428 . S
H414 C410 0.930 . S
H415 C412 0.929 . S
S416 N417 1.613 . S
S416 N418 1.610 . S
N417 S416 1.613 . S
N417 C420 1.350 . S
N418 S416 1.610 . S
N418 C419 1.351 . S
C419 C413 1.428 . S
C419 N418 1.351 . S
C419 C420 1.434 . S
C420 C411 1.429 1_655 S
C420 N417 1.350 . S
C420 C419 1.434 . S
C421 C422 1.369 . S
C421 C423 1.419 1_554 S
C421 H425 0.930 . S
C422 C421 1.369 . S
C422 C431 1.429 1_565 S
C423 C421 1.419 1_556 S
C423 C424 1.363 1_565 S
C423 H426 0.929 . S
C424 C423 1.363 1_545 S
C424 C430 1.428 . S
H425 C421 0.930 . S
H426 C423 0.929 . S
S427 N428 1.613 . S
S427 N429 1.610 1_554 S
N428 S427 1.613 . S
N428 C431 1.350 . S
N429 S427 1.610 1_556 S
N429 C430 1.351 . S
C430 C424 1.428 . S
C430 N429 1.351 . S
C430 C431 1.434 1_556 S
C431 C422 1.429 1_545 S
C431 N428 1.350 . S
C431 C430 1.434 1_554 S
C169 C162 1.673 . S
C171 C8 1.670 . S
C180 C22 1.674 . S
C182 C92 1.671 . S
C191 C36 1.672 . S
C193 C106 1.674 . S
C202 C50 1.670 . S
C204 C120 1.673 . S
C213 C134 1.670 . S
C215 C64 1.673 . S
C224 C78 1.672 . S
C226 C148 1.674 . S
C235 C51 1.292 . S
C237 C9 1.291 . S
C246 C65 1.293 . S
C248 C23 1.285 . S
C257 C79 1.287 . S
C259 C37 1.294 . S
C268 C93 1.295 . S
C270 C135 1.286 . S
C279 C107 1.285 . S
C281 C149 1.293 . S
C290 C121 1.285 . S
C292 C163 1.294 . S
C301 C119 0.810 . S
C303 C7 0.809 . S
C312 C21 0.817 . S
C314 C133 0.800 . S
C323 C147 0.800 . S
C325 C35 0.815 . S
C334 C161 0.797 . S
C336 C49 0.814 . S
C345 C91 0.810 . S
C347 C63 0.802 . S
C356 C77 0.803 . S
C358 C105 0.807 . S
C367 C129 1.670 . S
C369 C3 1.672 . S
C378 C17 1.669 . S
C380 C143 1.674 . S
C389 C157 1.673 . S
C391 C31 1.670 . S
C400 C45 1.673 . S
C402 C87 1.671 . S
C411 C59 1.669 . S
C413 C101 1.674 . S
C422 C115 1.669 . S
C424 C73 1.673 . S
