# Generated by pormake.
# Topology uol, (4)-cn, num edge types: 1
# Building blocks:
#     Node 0, Type 0, BuildingBlock: QUQFOY_clean_sbu_3, # of connection points: 4
#     Node 1, Type 0, BuildingBlock: QUQFOY_clean_sbu_3, # of connection points: 4
#     Node 2, Type 0, BuildingBlock: QUQFOY_clean_sbu_3, # of connection points: 4
#     Node 3, Type 0, BuildingBlock: QUQFOY_clean_sbu_3, # of connection points: 4
#     Node 4, Type 0, BuildingBlock: QUQFOY_clean_sbu_3, # of connection points: 4
#     Node 5, Type 0, BuildingBlock: QUQFOY_clean_sbu_3, # of connection points: 4
#     Node 6, Type 0, BuildingBlock: QUQFOY_clean_sbu_3, # of connection points: 4
#     Node 7, Type 0, BuildingBlock: QUQFOY_clean_sbu_3, # of connection points: 4
#     Node 8, Type 0, BuildingBlock: QUQFOY_clean_sbu_3, # of connection points: 4
#     Node 9, Type 0, BuildingBlock: QUQFOY_clean_sbu_3, # of connection points: 4
#     Node 10, Type 0, BuildingBlock: QUQFOY_clean_sbu_3, # of connection points: 4
#     Node 11, Type 0, BuildingBlock: QUQFOY_clean_sbu_3, # of connection points: 4
#     Edge 12, Type (0, 0), BuildingBlock: OJICUG_clean_linker_0, # of connection points: 2
#     Edge 13, Type (0, 0), BuildingBlock: OJICUG_clean_linker_0, # of connection points: 2
#     Edge 14, Type (0, 0), BuildingBlock: OJICUG_clean_linker_0, # of connection points: 2
#     Edge 15, Type (0, 0), BuildingBlock: OJICUG_clean_linker_0, # of connection points: 2
#     Edge 16, Type (0, 0), BuildingBlock: OJICUG_clean_linker_0, # of connection points: 2
#     Edge 17, Type (0, 0), BuildingBlock: OJICUG_clean_linker_0, # of connection points: 2
#     Edge 18, Type (0, 0), BuildingBlock: OJICUG_clean_linker_0, # of connection points: 2
#     Edge 19, Type (0, 0), BuildingBlock: OJICUG_clean_linker_0, # of connection points: 2
#     Edge 20, Type (0, 0), BuildingBlock: OJICUG_clean_linker_0, # of connection points: 2
#     Edge 21, Type (0, 0), BuildingBlock: OJICUG_clean_linker_0, # of connection points: 2
#     Edge 22, Type (0, 0), BuildingBlock: OJICUG_clean_linker_0, # of connection points: 2
#     Edge 23, Type (0, 0), BuildingBlock: OJICUG_clean_linker_0, # of connection points: 2
#     Edge 24, Type (0, 0), BuildingBlock: OJICUG_clean_linker_0, # of connection points: 2
#     Edge 25, Type (0, 0), BuildingBlock: OJICUG_clean_linker_0, # of connection points: 2
#     Edge 26, Type (0, 0), BuildingBlock: OJICUG_clean_linker_0, # of connection points: 2
#     Edge 27, Type (0, 0), BuildingBlock: OJICUG_clean_linker_0, # of connection points: 2
#     Edge 28, Type (0, 0), BuildingBlock: OJICUG_clean_linker_0, # of connection points: 2
#     Edge 29, Type (0, 0), BuildingBlock: OJICUG_clean_linker_0, # of connection points: 2
#     Edge 30, Type (0, 0), BuildingBlock: OJICUG_clean_linker_0, # of connection points: 2
#     Edge 31, Type (0, 0), BuildingBlock: OJICUG_clean_linker_0, # of connection points: 2
#     Edge 32, Type (0, 0), BuildingBlock: OJICUG_clean_linker_0, # of connection points: 2
#     Edge 33, Type (0, 0), BuildingBlock: OJICUG_clean_linker_0, # of connection points: 2
#     Edge 34, Type (0, 0), BuildingBlock: OJICUG_clean_linker_0, # of connection points: 2
#     Edge 35, Type (0, 0), BuildingBlock: OJICUG_clean_linker_0, # of connection points: 2
# Relax obj value: 0.116
# Max RMSD: 0.172
# Mean RMSD: 0.172
data_MOF--net-uol--node1-QUQFOY_clean_sbu_3--edge1-OJICUG_clean_linker_0
_symmetry_space_group_name_H-M    P1
_symmetry_Int_Tables_number       1
_symmetry_cell_setting            triclinic
loop_
_symmetry_equiv_pos_as_xyz
'x, y, z'
_cell_length_a     26.216864
_cell_length_b     25.865012
_cell_length_c     51.065833
_cell_angle_alpha  89.861418
_cell_angle_beta   90.235142
_cell_angle_gamma 120.2499
loop_
_atom_site_label
_atom_site_type_symbol
_atom_site_fract_x
_atom_site_fract_y
_atom_site_fract_z
_atom_type_partial_charge
C0 C 0.09412 0.25483 0.01311 0.0
O1 O 0.05101 0.20361 0.01894 0.0
Cd2 Cd 0.01029 0.18014 0.0625 0.0
O3 O 0.11169 0.29845 0.02908 0.0
Cd4 Cd 0.083 0.32477 0.0715 0.0
C5 C 0.13949 0.24701 0.10012 0.0
O6 O -0.02255 0.24738 0.07437 0.0
O7 O 0.01783 0.30191 0.10864 0.0
O8 O 0.08409 0.40602 0.0469 0.0
C9 C -0.02753 0.25913 0.09808 0.0
O10 O 0.09469 0.20141 0.09027 0.0
C11 C 0.11375 0.44641 0.06369 0.0
O12 O 0.14829 0.29971 0.09651 0.0
O13 O 0.13063 0.4307 0.08405 0.0
C14 C 0.81764 0.11259 0.17925 0.0
O15 O 0.83003 0.07373 0.18733 0.0
Cd16 Cd 0.81126 0.03489 0.23139 0.0
O17 O 0.78699 0.12744 0.19333 0.0
Cd18 Cd 0.73071 0.09737 0.23546 0.0
C19 C 0.86038 0.16417 0.26831 0.0
O20 O 0.7105 -0.00567 0.24287 0.0
O21 O 0.69845 0.04037 0.27553 0.0
O22 O 0.63345 0.06759 0.2181 0.0
C23 C 0.69625 -0.0065 0.26674 0.0
O24 O 0.86614 0.12102 0.25998 0.0
C25 C 0.62991 0.11094 0.22765 0.0
O26 O 0.81558 0.16883 0.26229 0.0
O27 O 0.6746 0.15028 0.24024 0.0
C28 C 0.68364 0.83609 0.34924 0.0
O29 O 0.73171 0.83825 0.35535 0.0
Cd30 Cd 0.7496 0.80584 0.39722 0.0
O31 O 0.63877 0.80996 0.36416 0.0
Cd32 Cd 0.60564 0.74872 0.40478 0.0
C33 C 0.69452 0.87203 0.43956 0.0
O34 O 0.67296 0.70852 0.40753 0.0
O35 O 0.61934 0.69707 0.44135 0.0
O36 O 0.52318 0.67383 0.37913 0.0
C37 C 0.65992 0.69103 0.43113 0.0
O38 O 0.73552 0.86481 0.43019 0.0
C39 C 0.48374 0.66538 0.39571 0.0
O40 O 0.64088 0.83944 0.4322 0.0
O41 O 0.50056 0.69773 0.4162 0.0
C42 C 0.8009 0.69033 0.51646 0.0
O43 O 0.84103 0.74189 0.52389 0.0
Cd44 Cd 0.88664 0.76315 0.56683 0.0
O45 O 0.78556 0.64466 0.53096 0.0
Cd46 Cd 0.81472 0.61675 0.57279 0.0
C47 C 0.76354 0.69256 0.60729 0.0
O48 O 0.92013 0.69494 0.57519 0.0
O49 O 0.88337 0.63676 0.60865 0.0
O50 O 0.81258 0.53639 0.54717 0.0
C51 C 0.92736 0.68139 0.59832 0.0
O52 O 0.80905 0.73939 0.59882 0.0
C53 C 0.78348 0.49541 0.56379 0.0
O54 O 0.75127 0.64032 0.60007 0.0
O55 O 0.76721 0.5104 0.58444 0.0
C56 C 0.0818 0.82932 0.67972 0.0
O57 O 0.06977 0.86856 0.68749 0.0
Cd58 Cd 0.08985 0.90893 0.73125 0.0
O59 O 0.11263 0.81472 0.69399 0.0
Cd60 Cd 0.17 0.84573 0.73601 0.0
C61 C 0.04061 0.78069 0.76911 0.0
O62 O 0.19102 0.94929 0.74224 0.0
O63 O 0.20445 0.9052 0.77544 0.0
O64 O 0.26609 0.87473 0.71777 0.0
C65 C 0.20639 0.95161 0.76609 0.0
O66 O 0.03505 0.82375 0.76035 0.0
C67 C 0.27072 0.83217 0.72761 0.0
O68 O 0.08517 0.77551 0.76333 0.0
O69 O 0.22713 0.79349 0.7409 0.0
C70 C 0.2205 0.11433 0.84601 0.0
O71 O 0.1735 0.11575 0.85022 0.0
Cd72 Cd 0.15216 0.14146 0.89266 0.0
O73 O 0.26258 0.13621 0.86267 0.0
Cd74 Cd 0.2939 0.19507 0.90413 0.0
C75 C 0.2009 0.06328 0.9322 0.0
O76 O 0.22765 0.23668 0.90671 0.0
O77 O 0.27594 0.23994 0.94168 0.0
O78 O 0.37656 0.27126 0.87923 0.0
C79 C 0.23814 0.24987 0.93089 0.0
O80 O 0.16192 0.07252 0.92176 0.0
C81 C 0.41589 0.27987 0.89604 0.0
O82 O 0.2559 0.09991 0.92868 0.0
O83 O 0.39902 0.24715 0.91645 0.0
C84 C 0.67711 0.83876 0.77049 0.0
O85 O 0.72756 0.88205 0.76431 0.0
Cd86 Cd 0.74962 0.92133 0.72037 0.0
O87 O 0.63346 0.82135 0.75482 0.0
Cd88 Cd 0.60722 0.85065 0.71228 0.0
C89 C 0.67998 0.78916 0.68388 0.0
O90 O 0.68571 0.95552 0.7058 0.0
O91 O 0.6329 0.90713 0.67205 0.0
O92 O 0.53777 0.87739 0.72965 0.0
C93 C 0.67458 0.95536 0.68149 0.0
O94 O 0.7255 0.83428 0.69356 0.0
C95 C 0.4917 0.83443 0.71945 0.0
O96 O 0.62833 0.78138 0.68738 0.0
O97 O 0.49827 0.7964 0.70633 0.0
C98 C 0.81377 0.68866 0.9337 0.0
O99 O 0.82452 0.7406 0.92715 0.0
Cd100 Cd 0.80687 0.76402 0.88357 0.0
O101 O 0.78557 0.64434 0.91825 0.0
Cd102 Cd 0.73001 0.61883 0.87579 0.0
C103 C 0.86289 0.692 0.84572 0.0
O104 O 0.70544 0.69926 0.87315 0.0
O105 O 0.68627 0.64282 0.83918 0.0
O106 O 0.64953 0.53877 0.90062 0.0
C107 C 0.68653 0.68719 0.84972 0.0
O108 O 0.86662 0.7392 0.85536 0.0
C109 C 0.63752 0.498 0.88385 0.0
O110 O 0.81798 0.64046 0.84989 0.0
O111 O 0.66948 0.51291 0.86345 0.0
C112 C 0.08293 0.83599 0.09865 0.0
O113 O 0.03704 0.83844 0.09282 0.0
Cd114 Cd -0.01329 0.80649 0.05101 0.0
O115 O 0.10141 0.80993 0.08347 0.0
Cd116 Cd 0.07243 0.74911 0.04274 0.0
C117 C 0.1065 0.87281 0.00813 0.0
O118 O -0.03529 0.70837 0.04083 0.0
O119 O 0.00614 0.69767 0.00652 0.0
O120 O 0.081 0.67443 0.0683 0.0
C121 C -0.04033 0.69082 0.01722 0.0
O122 O 0.05859 0.86575 0.01775 0.0
C123 C 0.1113 0.66548 0.05151 0.0
O124 O 0.12753 0.83988 0.01525 0.0
O125 O 0.12595 0.69742 0.03089 0.0
C126 C 0.22214 0.11222 0.26737 0.0
O127 O 0.17138 0.07308 0.25912 0.0
Cd128 Cd 0.1517 0.03067 0.21561 0.0
O129 O 0.26801 0.12684 0.25365 0.0
Cd130 Cd 0.29551 0.09646 0.21202 0.0
C131 C 0.22965 0.15784 0.17711 0.0
O132 O 0.21452 -0.00734 0.20511 0.0
O133 O 0.27226 0.03827 0.17237 0.0
O134 O 0.36346 0.06814 0.23027 0.0
C135 C 0.22809 -0.00861 0.1813 0.0
O136 O 0.18154 0.11341 0.18517 0.0
C137 C 0.41001 0.11106 0.22044 0.0
O138 O 0.27982 0.16597 0.18438 0.0
O139 O 0.4043 0.14972 0.20732 0.0
C140 C 0.08678 0.25602 0.43301 0.0
O141 O 0.07699 0.20439 0.42657 0.0
Cd142 Cd 0.09446 0.18164 0.38293 0.0
O143 O 0.11441 0.30042 0.41757 0.0
Cd144 Cd 0.17033 0.32668 0.37536 0.0
C145 C 0.03757 0.2538 0.34534 0.0
O146 O 0.19542 0.24671 0.37213 0.0
O147 O 0.21302 0.3036 0.33836 0.0
O148 O 0.25105 0.40672 0.4001 0.0
C149 C 0.21343 0.25923 0.34862 0.0
O150 O 0.03423 0.20658 0.35485 0.0
C151 C 0.26231 0.44749 0.38337 0.0
O152 O 0.08233 0.30539 0.34959 0.0
O153 O 0.22982 0.43253 0.36304 0.0
C154 C 0.82191 0.11575 0.60095 0.0
O155 O 0.87038 0.11719 0.59688 0.0
Cd156 Cd 0.91655 0.14187 0.55422 0.0
O157 O 0.80151 0.13712 0.58408 0.0
Cd158 Cd 0.82815 0.19501 0.54246 0.0
C159 C 0.78969 0.06275 0.51507 0.0
O160 O 0.93578 0.237 0.53977 0.0
O161 O 0.89048 0.24 0.50483 0.0
O162 O 0.82032 0.27035 0.56737 0.0
C163 C 0.93824 0.2501 0.51557 0.0
O164 O 0.83792 0.07202 0.52546 0.0
C165 C 0.78907 0.27844 0.55063 0.0
O166 O 0.77138 0.09963 0.51839 0.0
O167 O 0.77386 0.24602 0.53016 0.0
C168 C 0.1244 0.59391 0.07973 0.0
C169 C 0.12272 0.61546 0.05465 0.0
H170 H 0.12471 0.52398 0.10223 0.0
C171 C 0.12475 0.58431 0.03256 0.0
H172 H 0.12288 0.61715 0.09707 0.0
C173 C 0.12418 0.53026 0.03551 0.0
C174 C 0.12332 0.50741 0.06059 0.0
H175 H 0.12309 0.59975 0.01301 0.0
H176 H 0.12262 0.50544 0.01817 0.0
C177 C 0.12559 0.54075 0.08267 0.0
C178 C 0.57453 0.1669 0.22475 0.0
C179 C 0.5745 0.11255 0.22565 0.0
H180 H 0.52203 0.20922 0.22169 0.0
C181 C 0.52037 0.05849 0.2251 0.0
H182 H 0.61576 0.20916 0.22516 0.0
C183 C 0.46724 0.05856 0.22401 0.0
C184 C 0.467 0.11265 0.22262 0.0
H185 H 0.51903 0.01596 0.22598 0.0
H186 H 0.42622 0.01605 0.22374 0.0
C187 C 0.52111 0.16693 0.22276 0.0
C188 C 0.38927 0.58455 0.41458 0.0
C189 C 0.42255 0.61554 0.39251 0.0
H190 H 0.31245 0.50609 0.42893 0.0
C191 C 0.39958 0.59404 0.36742 0.0
H192 H 0.40618 0.59995 0.43414 0.0
C193 C 0.34531 0.54118 0.36445 0.0
C194 C 0.31403 0.50805 0.38652 0.0
H195 H 0.42444 0.61714 0.3501 0.0
H196 H 0.32954 0.5245 0.34489 0.0
C197 C 0.33587 0.53076 0.41161 0.0
C198 C 0.77429 0.41293 0.5351 0.0
C199 C 0.77438 0.4347 0.56029 0.0
H200 H 0.77686 0.34478 0.51229 0.0
C201 C 0.77211 0.40071 0.5822 0.0
H202 H 0.77589 0.43827 0.51788 0.0
C203 C 0.77413 0.34811 0.57902 0.0
C204 C 0.77667 0.32771 0.55385 0.0
H205 H 0.77241 0.41661 0.60184 0.0
H206 H 0.77566 0.32441 0.59625 0.0
C207 C 0.77456 0.35937 0.5319 0.0
C208 C 0.38058 0.77746 0.72234 0.0
C209 C 0.43432 0.83206 0.72141 0.0
H210 H 0.28603 0.73447 0.72578 0.0
C211 C 0.43342 0.88584 0.72226 0.0
H212 H 0.38017 0.7354 0.72174 0.0
C213 C 0.38004 0.8853 0.7237 0.0
C214 C 0.32631 0.83099 0.72516 0.0
H215 H 0.47414 0.92857 0.7214 0.0
H216 H 0.38095 0.92764 0.7242 0.0
C217 C 0.32693 0.77694 0.72469 0.0
C218 C 0.5001 0.35117 0.86794 0.0
C219 C 0.47704 0.32995 0.89301 0.0
H220 H 0.57017 0.42039 0.84543 0.0
C221 C 0.51021 0.36131 0.9151 0.0
H222 H 0.47535 0.32779 0.8506 0.0
C223 C 0.56363 0.41512 0.91215 0.0
C224 C 0.5856 0.43751 0.88706 0.0
H225 H 0.49323 0.34615 0.93465 0.0
H226 H 0.58699 0.44002 0.92947 0.0
C227 C 0.55436 0.40403 0.865 0.0
C228 C 0.21921 0.24332 0.16111 0.0
C229 C 0.22512 0.19338 0.15578 0.0
H230 H 0.18849 0.30121 0.1469 0.0
C231 C 0.21195 0.1682 0.13067 0.0
H232 H 0.22793 0.26242 0.1806 0.0
C233 C 0.18852 0.18933 0.11172 0.0
C234 C 0.17834 0.23639 0.11751 0.0
H235 H 0.21528 0.12898 0.12636 0.0
H236 H 0.17484 0.16635 0.09307 0.0
C237 C 0.19657 0.26529 0.1419 0.0
C238 C -0.03894 0.24349 0.28172 0.0
C239 C 0.90226 0.20281 0.28843 0.0
H240 H 0.05077 0.29406 0.29526 0.0
C241 C 0.88737 0.18779 0.31479 0.0
H242 H -0.02651 0.25442 0.26138 0.0
C243 C 0.93149 0.20884 0.33395 0.0
C244 C -0.00914 0.24635 0.32706 0.0
H245 H 0.84243 0.15538 0.32024 0.0
H246 H 0.91972 0.19267 0.35386 0.0
C247 C 0.00511 0.266 0.30105 0.0
C248 C 0.77667 0.96764 0.49718 0.0
C249 C 0.7576 0.00958 0.49794 0.0
H250 H 0.77124 0.89172 0.47825 0.0
C251 C 0.71189 0.00199 0.48091 0.0
H252 H 0.81095 0.97115 0.51024 0.0
C253 C 0.68833 0.95516 0.46249 0.0
C254 C 0.71084 0.91614 0.46081 0.0
H255 H 0.69608 0.03343 0.4811 0.0
H256 H 0.65493 0.95133 0.4488 0.0
C257 C 0.75391 0.92192 0.4788 0.0
C258 C 0.75842 0.71703 0.6533 0.0
C259 C 0.73094 0.70037 0.62874 0.0
H260 H 0.76254 0.7571 0.69036 0.0
C261 C 0.6799 0.70372 0.62394 0.0
H262 H 0.79822 0.71535 0.65724 0.0
C263 C 0.65908 0.72753 0.64304 0.0
C264 C 0.68987 0.74901 0.66683 0.0
H265 H 0.65877 0.69198 0.60489 0.0
H266 H 0.62217 0.73373 0.63836 0.0
C267 C 0.73811 0.74109 0.67217 0.0
C268 C -0.03099 0.73659 0.83459 0.0
C269 C 0.90956 0.69946 0.82753 0.0
H270 H 0.05824 0.78942 0.82118 0.0
C271 C 0.89531 0.68002 0.80148 0.0
H272 H -0.01916 0.75263 0.85453 0.0
C273 C 0.93945 0.70224 0.78231 0.0
C274 C -0.0016 0.74244 0.78918 0.0
H275 H 0.84962 0.65227 0.79554 0.0
H276 H 0.92703 0.6914 0.76193 0.0
C277 C 0.01322 0.75735 0.81559 0.0
C278 C 0.19525 0.95532 -0.01524 0.0
C279 C 0.13387 0.91709 -0.01311 0.0
H280 H 0.26543 0.03283 0.9657 0.0
C281 C 0.0964 0.92369 0.96929 0.0
H282 H 0.22499 0.95089 -0.00186 0.0
C283 C 0.11905 0.96927 0.95082 0.0
C284 C 0.18 0.01036 0.94957 0.0
H285 H 0.04896 0.89414 0.97015 0.0
H286 H 0.08812 -0.0267 0.93806 0.0
C287 C 0.21824 0.00207 0.96626 0.0
C288 C 0.10284 0.22207 0.96785 0.0
C289 C 0.1284 0.26186 -0.01098 0.0
H290 H 0.11784 0.18879 0.93193 0.0
C291 C 0.18906 0.30419 -0.0117 0.0
H292 H 0.05616 0.18908 0.96783 0.0
C293 C 0.2243 0.30318 0.96807 0.0
C294 C 0.19931 0.26121 0.94773 0.0
H295 H 0.21015 0.33529 0.00432 0.0
H296 H 0.27164 0.33319 0.96902 0.0
C297 C 0.13796 0.22224 0.94718 0.0
C298 C 0.86327 0.20748 0.15338 0.0
C299 C 0.84626 0.14666 0.1551 0.0
H300 H 0.91747 0.2911 0.13383 0.0
C301 C 0.86404 0.12143 0.13528 0.0
H302 H 0.85065 0.22833 0.16842 0.0
C303 C 0.9009 0.15716 0.11498 0.0
C304 C 0.92182 0.21892 0.11465 0.0
H305 H 0.85157 0.07466 0.13611 0.0
H306 H 0.91664 0.13742 0.10078 0.0
C307 C 0.90151 0.24345 0.1336 0.0
C308 C 0.64539 0.92952 0.30529 0.0
C309 C 0.68648 0.94508 0.28497 0.0
H310 H 0.6112 0.88152 0.34112 0.0
C311 C 0.72311 0.92 0.28451 0.0
H312 H 0.61685 0.94854 0.30609 0.0
C313 C 0.72112 0.88286 0.30502 0.0
C314 C 0.68135 0.86899 0.32588 0.0
H315 H 0.75564 0.93195 0.26919 0.0
H316 H 0.75169 0.86627 0.3049 0.0
C317 C 0.6422 0.89115 0.32532 0.0
C318 C 0.79364 0.72722 0.4718 0.0
C319 C 0.76832 0.68412 0.49179 0.0
H320 H 0.77926 0.76159 0.43597 0.0
C321 C 0.70942 0.63773 0.48905 0.0
H322 H 0.83902 0.76331 0.47332 0.0
C323 C 0.67516 0.63738 0.46793 0.0
C324 C 0.69959 0.6822 0.4487 0.0
H325 H 0.6886 0.60392 0.50411 0.0
H326 H 0.62866 0.60379 0.46731 0.0
C327 C 0.7597 0.72586 0.45026 0.0
C328 C 0.03454 0.81969 0.63573 0.0
C329 C 0.05299 0.79492 0.65563 0.0
H330 H -0.01837 0.80311 0.60113 0.0
C331 C 0.03682 0.73433 0.65394 0.0
H332 H 0.04641 0.86629 0.63652 0.0
C333 C -0.00121 0.69808 0.63408 0.0
C334 C -0.02225 0.72208 0.61506 0.0
H335 H 0.05001 0.71385 0.66902 0.0
H336 H -0.01643 0.65059 0.63431 0.0
C337 C -0.00216 0.78369 0.61539 0.0
C338 C 0.26006 0.05545 0.82422 0.0
C339 C 0.22362 0.0808 0.82315 0.0
H340 H 0.28257 -0.0058 0.80697 0.0
C341 C 0.1863 0.06858 0.80131 0.0
H342 H 0.28915 0.06371 0.84078 0.0
C343 C 0.18368 0.02974 0.78155 0.0
C344 C 0.21721 0.00136 0.78368 0.0
H345 H 0.1578 0.08757 0.79991 0.0
H346 H 0.15286 0.01912 0.76548 0.0
C347 C 0.25627 0.01554 0.80489 0.0
C348 C 0.62974 0.74128 0.79448 0.0
C349 C 0.67158 0.80278 0.79409 0.0
H350 H 0.60223 0.65634 0.8125 0.0
C351 C 0.71288 0.82714 0.8147 0.0
H352 H 0.59753 0.72102 0.77887 0.0
C353 C 0.71448 0.7901 0.83439 0.0
C354 C 0.67581 0.72797 0.83339 0.0
H355 H 0.74563 0.87439 0.81494 0.0
H356 H 0.74871 0.80943 0.84924 0.0
C357 C 0.63243 0.70417 0.81371 0.0
C358 C 0.85571 0.72239 -0.02114 0.0
C359 C 0.83998 0.68119 0.95817 0.0
H360 H 0.90438 0.75606 0.01471 0.0
C361 C 0.85577 0.63679 0.95978 0.0
H362 H 0.84394 0.75695 -0.0218 0.0
C363 C 0.89115 0.63704 -0.01961 0.0
C364 C 0.90982 0.68041 0.00021 0.0
H365 H 0.84449 0.60455 0.94414 0.0
H366 H 0.90666 0.60533 -0.01991 0.0
C367 C 0.88978 0.72153 -0.00011 0.0
C368 C 0.17933 0.88995 0.12245 0.0
C369 C 0.11824 0.86826 0.12203 0.0
H370 H 0.26198 0.94648 0.14164 0.0
C371 C 0.09262 0.88192 0.14311 0.0
H372 H 0.20046 0.88043 0.10649 0.0
C373 C 0.12785 0.91848 0.16368 0.0
C374 C 0.18935 0.94316 0.16308 0.0
H375 H 0.04562 0.86565 0.14336 0.0
H376 H 0.10749 0.93036 0.17915 0.0
C377 C 0.21459 0.92772 0.14256 0.0
C378 C 0.18326 0.12144 0.31097 0.0
C379 C 0.22675 0.14642 0.29138 0.0
H380 H 0.14634 0.13765 0.34533 0.0
C381 C 0.27078 0.20699 0.29331 0.0
H382 H 0.14882 0.07485 0.30998 0.0
C383 C 0.26846 0.24299 0.31311 0.0
C384 C 0.22331 0.21874 0.33187 0.0
H385 H 0.30464 0.22764 0.27847 0.0
H386 H 0.3005 0.29047 0.31309 0.0
C387 C 0.18205 0.15718 0.33128 0.0
C388 C 0.04165 0.3055 0.45826 0.0
C389 C 0.05975 0.26282 0.45723 0.0
H390 H -0.01175 0.33452 0.47785 0.0
C391 C 0.04537 0.22238 0.47818 0.0
H392 H 0.05177 0.33705 0.44239 0.0
C393 C 0.01052 0.22231 0.49894 0.0
C394 C -0.01164 0.26167 0.4987 0.0
H395 H 0.05886 0.1891 0.47793 0.0
H396 H -0.00294 0.18839 0.51401 0.0
C397 C 0.00546 0.30424 0.47858 0.0
C398 C 0.77471 0.03395 0.66608 0.0
C399 C 0.71297 0.00482 0.66375 0.0
H400 H 0.85812 0.09167 0.64769 0.0
C401 C 0.68791 0.01751 0.64212 0.0
H402 H 0.795 0.02434 0.68248 0.0
C403 C 0.72374 0.05679 0.6226 0.0
C404 C 0.78544 0.08286 0.6239 0.0
H405 H 0.64037 -0.00456 0.63988 0.0
H406 H 0.70283 0.06394 0.60574 0.0
C407 C 0.8107 0.0721 0.64612 0.0
loop_
_geom_bond_atom_site_label_1
_geom_bond_atom_site_label_2
_geom_bond_distance
_geom_bond_site_symmetry_2
_ccdc_geom_bond_type
C0 O1 1.306 . S
C0 O3 1.160 . S
O1 C0 1.306 . S
O1 Cd2 2.228 . S
Cd2 O1 2.228 . S
Cd2 O6 2.273 . S
Cd2 O10 2.277 . S
O3 C0 1.160 . S
O3 Cd4 2.203 . S
Cd4 O3 2.203 . S
Cd4 O6 2.411 . S
Cd4 O7 2.333 . S
Cd4 O8 2.352 . S
Cd4 O12 2.277 . S
Cd4 O13 2.356 . S
C5 O10 1.209 . S
C5 O12 1.226 . S
O6 Cd2 2.273 . S
O6 Cd4 2.411 . S
O6 C9 1.320 . S
O7 Cd4 2.333 . S
O7 C9 1.214 . S
O8 Cd4 2.352 . S
O8 C11 1.258 . S
C9 O6 1.320 . S
C9 O7 1.214 . S
O10 Cd2 2.277 . S
O10 C5 1.209 . S
C11 O8 1.258 . S
C11 O13 1.282 . S
O12 Cd4 2.277 . S
O12 C5 1.226 . S
O13 Cd4 2.356 . S
O13 C11 1.282 . S
C14 O15 1.306 . S
C14 O17 1.160 . S
O15 C14 1.306 . S
O15 Cd16 2.228 . S
Cd16 O15 2.228 . S
Cd16 O20 2.273 . S
Cd16 O24 2.277 . S
O17 C14 1.160 . S
O17 Cd18 2.203 . S
Cd18 O17 2.203 . S
Cd18 O20 2.411 . S
Cd18 O21 2.333 . S
Cd18 O22 2.352 . S
Cd18 O26 2.277 . S
Cd18 O27 2.356 . S
C19 O24 1.209 . S
C19 O26 1.226 . S
O20 Cd16 2.273 . S
O20 Cd18 2.411 . S
O20 C23 1.320 . S
O21 Cd18 2.333 . S
O21 C23 1.214 . S
O22 Cd18 2.352 . S
O22 C25 1.258 . S
C23 O20 1.320 . S
C23 O21 1.214 . S
O24 Cd16 2.277 . S
O24 C19 1.209 . S
C25 O22 1.258 . S
C25 O27 1.282 . S
O26 Cd18 2.277 . S
O26 C19 1.226 . S
O27 Cd18 2.356 . S
O27 C25 1.282 . S
C28 O29 1.306 . S
C28 O31 1.160 . S
O29 C28 1.306 . S
O29 Cd30 2.228 . S
Cd30 O29 2.228 . S
Cd30 O34 2.273 . S
Cd30 O38 2.277 . S
O31 C28 1.160 . S
O31 Cd32 2.203 . S
Cd32 O31 2.203 . S
Cd32 O34 2.411 . S
Cd32 O35 2.333 . S
Cd32 O36 2.352 . S
Cd32 O40 2.277 . S
Cd32 O41 2.356 . S
C33 O38 1.209 . S
C33 O40 1.226 . S
O34 Cd30 2.273 . S
O34 Cd32 2.411 . S
O34 C37 1.320 . S
O35 Cd32 2.333 . S
O35 C37 1.214 . S
O36 Cd32 2.352 . S
O36 C39 1.258 . S
C37 O34 1.320 . S
C37 O35 1.214 . S
O38 Cd30 2.277 . S
O38 C33 1.209 . S
C39 O36 1.258 . S
C39 O41 1.282 . S
O40 Cd32 2.277 . S
O40 C33 1.226 . S
O41 Cd32 2.356 . S
O41 C39 1.282 . S
C42 O43 1.306 . S
C42 O45 1.160 . S
O43 C42 1.306 . S
O43 Cd44 2.228 . S
Cd44 O43 2.228 . S
Cd44 O48 2.273 . S
Cd44 O52 2.277 . S
O45 C42 1.160 . S
O45 Cd46 2.203 . S
Cd46 O45 2.203 . S
Cd46 O48 2.411 . S
Cd46 O49 2.333 . S
Cd46 O50 2.352 . S
Cd46 O54 2.277 . S
Cd46 O55 2.356 . S
C47 O52 1.209 . S
C47 O54 1.226 . S
O48 Cd44 2.273 . S
O48 Cd46 2.411 . S
O48 C51 1.320 . S
O49 Cd46 2.333 . S
O49 C51 1.214 . S
O50 Cd46 2.352 . S
O50 C53 1.258 . S
C51 O48 1.320 . S
C51 O49 1.214 . S
O52 Cd44 2.277 . S
O52 C47 1.209 . S
C53 O50 1.258 . S
C53 O55 1.282 . S
O54 Cd46 2.277 . S
O54 C47 1.226 . S
O55 Cd46 2.356 . S
O55 C53 1.282 . S
C56 O57 1.306 . S
C56 O59 1.160 . S
O57 C56 1.306 . S
O57 Cd58 2.228 . S
Cd58 O57 2.228 . S
Cd58 O62 2.273 . S
Cd58 O66 2.277 . S
O59 C56 1.160 . S
O59 Cd60 2.203 . S
Cd60 O59 2.203 . S
Cd60 O62 2.411 . S
Cd60 O63 2.333 . S
Cd60 O64 2.352 . S
Cd60 O68 2.277 . S
Cd60 O69 2.356 . S
C61 O66 1.209 . S
C61 O68 1.226 . S
O62 Cd58 2.273 . S
O62 Cd60 2.411 . S
O62 C65 1.320 . S
O63 Cd60 2.333 . S
O63 C65 1.214 . S
O64 Cd60 2.352 . S
O64 C67 1.258 . S
C65 O62 1.320 . S
C65 O63 1.214 . S
O66 Cd58 2.277 . S
O66 C61 1.209 . S
C67 O64 1.258 . S
C67 O69 1.282 . S
O68 Cd60 2.277 . S
O68 C61 1.226 . S
O69 Cd60 2.356 . S
O69 C67 1.282 . S
C70 O71 1.306 . S
C70 O73 1.160 . S
O71 C70 1.306 . S
O71 Cd72 2.228 . S
Cd72 O71 2.228 . S
Cd72 O76 2.273 . S
Cd72 O80 2.277 . S
O73 C70 1.160 . S
O73 Cd74 2.203 . S
Cd74 O73 2.203 . S
Cd74 O76 2.411 . S
Cd74 O77 2.333 . S
Cd74 O78 2.352 . S
Cd74 O82 2.277 . S
Cd74 O83 2.356 . S
C75 O80 1.209 . S
C75 O82 1.226 . S
O76 Cd72 2.273 . S
O76 Cd74 2.411 . S
O76 C79 1.320 . S
O77 Cd74 2.333 . S
O77 C79 1.214 . S
O78 Cd74 2.352 . S
O78 C81 1.258 . S
C79 O76 1.320 . S
C79 O77 1.214 . S
O80 Cd72 2.277 . S
O80 C75 1.209 . S
C81 O78 1.258 . S
C81 O83 1.282 . S
O82 Cd74 2.277 . S
O82 C75 1.226 . S
O83 Cd74 2.356 . S
O83 C81 1.282 . S
C84 O85 1.306 . S
C84 O87 1.160 . S
O85 C84 1.306 . S
O85 Cd86 2.228 . S
Cd86 O85 2.228 . S
Cd86 O90 2.273 . S
Cd86 O94 2.277 . S
O87 C84 1.160 . S
O87 Cd88 2.203 . S
Cd88 O87 2.203 . S
Cd88 O90 2.411 . S
Cd88 O91 2.333 . S
Cd88 O92 2.352 . S
Cd88 O96 2.277 . S
Cd88 O97 2.356 . S
C89 O94 1.209 . S
C89 O96 1.226 . S
O90 Cd86 2.273 . S
O90 Cd88 2.411 . S
O90 C93 1.320 . S
O91 Cd88 2.333 . S
O91 C93 1.214 . S
O92 Cd88 2.352 . S
O92 C95 1.258 . S
C93 O90 1.320 . S
C93 O91 1.214 . S
O94 Cd86 2.277 . S
O94 C89 1.209 . S
C95 O92 1.258 . S
C95 O97 1.282 . S
O96 Cd88 2.277 . S
O96 C89 1.226 . S
O97 Cd88 2.356 . S
O97 C95 1.282 . S
C98 O99 1.306 . S
C98 O101 1.160 . S
O99 C98 1.306 . S
O99 Cd100 2.228 . S
Cd100 O99 2.228 . S
Cd100 O104 2.273 . S
Cd100 O108 2.277 . S
O101 C98 1.160 . S
O101 Cd102 2.203 . S
Cd102 O101 2.203 . S
Cd102 O104 2.411 . S
Cd102 O105 2.333 . S
Cd102 O106 2.352 . S
Cd102 O110 2.277 . S
Cd102 O111 2.356 . S
C103 O108 1.209 . S
C103 O110 1.226 . S
O104 Cd100 2.273 . S
O104 Cd102 2.411 . S
O104 C107 1.320 . S
O105 Cd102 2.333 . S
O105 C107 1.214 . S
O106 Cd102 2.352 . S
O106 C109 1.258 . S
C107 O104 1.320 . S
C107 O105 1.214 . S
O108 Cd100 2.277 . S
O108 C103 1.209 . S
C109 O106 1.258 . S
C109 O111 1.282 . S
O110 Cd102 2.277 . S
O110 C103 1.226 . S
O111 Cd102 2.356 . S
O111 C109 1.282 . S
C112 O113 1.306 . S
C112 O115 1.160 . S
O113 C112 1.306 . S
O113 Cd114 2.228 . S
Cd114 O113 2.228 . S
Cd114 O118 2.273 . S
Cd114 O122 2.277 . S
O115 C112 1.160 . S
O115 Cd116 2.203 . S
Cd116 O115 2.203 . S
Cd116 O118 2.411 . S
Cd116 O119 2.333 . S
Cd116 O120 2.352 . S
Cd116 O124 2.277 . S
Cd116 O125 2.356 . S
C117 O122 1.209 . S
C117 O124 1.226 . S
O118 Cd114 2.273 . S
O118 Cd116 2.411 . S
O118 C121 1.320 . S
O119 Cd116 2.333 . S
O119 C121 1.214 . S
O120 Cd116 2.352 . S
O120 C123 1.258 . S
C121 O118 1.320 . S
C121 O119 1.214 . S
O122 Cd114 2.277 . S
O122 C117 1.209 . S
C123 O120 1.258 . S
C123 O125 1.282 . S
O124 Cd116 2.277 . S
O124 C117 1.226 . S
O125 Cd116 2.356 . S
O125 C123 1.282 . S
C126 O127 1.306 . S
C126 O129 1.160 . S
O127 C126 1.306 . S
O127 Cd128 2.228 . S
Cd128 O127 2.228 . S
Cd128 O132 2.273 . S
Cd128 O136 2.277 . S
O129 C126 1.160 . S
O129 Cd130 2.203 . S
Cd130 O129 2.203 . S
Cd130 O132 2.411 . S
Cd130 O133 2.333 . S
Cd130 O134 2.352 . S
Cd130 O138 2.277 . S
Cd130 O139 2.356 . S
C131 O136 1.209 . S
C131 O138 1.226 . S
O132 Cd128 2.273 . S
O132 Cd130 2.411 . S
O132 C135 1.320 . S
O133 Cd130 2.333 . S
O133 C135 1.214 . S
O134 Cd130 2.352 . S
O134 C137 1.258 . S
C135 O132 1.320 . S
C135 O133 1.214 . S
O136 Cd128 2.277 . S
O136 C131 1.209 . S
C137 O134 1.258 . S
C137 O139 1.282 . S
O138 Cd130 2.277 . S
O138 C131 1.226 . S
O139 Cd130 2.356 . S
O139 C137 1.282 . S
C140 O141 1.306 . S
C140 O143 1.160 . S
O141 C140 1.306 . S
O141 Cd142 2.228 . S
Cd142 O141 2.228 . S
Cd142 O146 2.273 . S
Cd142 O150 2.277 . S
O143 C140 1.160 . S
O143 Cd144 2.203 . S
Cd144 O143 2.203 . S
Cd144 O146 2.411 . S
Cd144 O147 2.333 . S
Cd144 O148 2.352 . S
Cd144 O152 2.277 . S
Cd144 O153 2.356 . S
C145 O150 1.209 . S
C145 O152 1.226 . S
O146 Cd142 2.273 . S
O146 Cd144 2.411 . S
O146 C149 1.320 . S
O147 Cd144 2.333 . S
O147 C149 1.214 . S
O148 Cd144 2.352 . S
O148 C151 1.258 . S
C149 O146 1.320 . S
C149 O147 1.214 . S
O150 Cd142 2.277 . S
O150 C145 1.209 . S
C151 O148 1.258 . S
C151 O153 1.282 . S
O152 Cd144 2.277 . S
O152 C145 1.226 . S
O153 Cd144 2.356 . S
O153 C151 1.282 . S
C154 O155 1.306 . S
C154 O157 1.160 . S
O155 C154 1.306 . S
O155 Cd156 2.228 . S
Cd156 O155 2.228 . S
Cd156 O160 2.273 . S
Cd156 O164 2.277 . S
O157 C154 1.160 . S
O157 Cd158 2.203 . S
Cd158 O157 2.203 . S
Cd158 O160 2.411 . S
Cd158 O161 2.333 . S
Cd158 O162 2.352 . S
Cd158 O166 2.277 . S
Cd158 O167 2.356 . S
C159 O164 1.209 . S
C159 O166 1.226 . S
O160 Cd156 2.273 . S
O160 Cd158 2.411 . S
O160 C163 1.320 . S
O161 Cd158 2.333 . S
O161 C163 1.214 . S
O162 Cd158 2.352 . S
O162 C165 1.258 . S
C163 O160 1.320 . S
C163 O161 1.214 . S
O164 Cd156 2.277 . S
O164 C159 1.209 . S
C165 O162 1.258 . S
C165 O167 1.282 . S
O166 Cd158 2.277 . S
O166 C159 1.226 . S
O167 Cd158 2.356 . S
O167 C165 1.282 . S
C168 C169 1.387 . S
C168 H172 0.950 . S
C168 C177 1.390 . S
C169 C168 1.387 . S
C169 C171 1.387 . S
H170 C177 0.950 . S
C171 C169 1.387 . S
C171 C173 1.390 . S
C171 H175 0.950 . S
H172 C168 0.950 . S
C173 C171 1.390 . S
C173 C174 1.387 . S
C173 H176 0.950 . S
C174 C173 1.387 . S
C174 C177 1.387 . S
H175 C171 0.950 . S
H176 C173 0.950 . S
C177 C168 1.390 . S
C177 H170 0.950 . S
C177 C174 1.387 . S
C178 C179 1.387 . S
C178 H182 0.950 . S
C178 C187 1.390 . S
C179 C178 1.387 . S
C179 C181 1.387 . S
H180 C187 0.950 . S
C181 C179 1.387 . S
C181 C183 1.390 . S
C181 H185 0.950 . S
H182 C178 0.950 . S
C183 C181 1.390 . S
C183 C184 1.387 . S
C183 H186 0.950 . S
C184 C183 1.387 . S
C184 C187 1.387 . S
H185 C181 0.950 . S
H186 C183 0.950 . S
C187 C178 1.390 . S
C187 H180 0.950 . S
C187 C184 1.387 . S
C188 C189 1.387 . S
C188 H192 0.950 . S
C188 C197 1.390 . S
C189 C188 1.387 . S
C189 C191 1.387 . S
H190 C197 0.950 . S
C191 C189 1.387 . S
C191 C193 1.390 . S
C191 H195 0.950 . S
H192 C188 0.950 . S
C193 C191 1.390 . S
C193 C194 1.387 . S
C193 H196 0.950 . S
C194 C193 1.387 . S
C194 C197 1.387 . S
H195 C191 0.950 . S
H196 C193 0.950 . S
C197 C188 1.390 . S
C197 H190 0.950 . S
C197 C194 1.387 . S
C198 C199 1.387 . S
C198 H202 0.950 . S
C198 C207 1.390 . S
C199 C198 1.387 . S
C199 C201 1.387 . S
H200 C207 0.950 . S
C201 C199 1.387 . S
C201 C203 1.390 . S
C201 H205 0.950 . S
H202 C198 0.950 . S
C203 C201 1.390 . S
C203 C204 1.387 . S
C203 H206 0.950 . S
C204 C203 1.387 . S
C204 C207 1.387 . S
H205 C201 0.950 . S
H206 C203 0.950 . S
C207 C198 1.390 . S
C207 H200 0.950 . S
C207 C204 1.387 . S
C208 C209 1.387 . S
C208 H212 0.950 . S
C208 C217 1.390 . S
C209 C208 1.387 . S
C209 C211 1.387 . S
H210 C217 0.950 . S
C211 C209 1.387 . S
C211 C213 1.390 . S
C211 H215 0.950 . S
H212 C208 0.950 . S
C213 C211 1.390 . S
C213 C214 1.387 . S
C213 H216 0.950 . S
C214 C213 1.387 . S
C214 C217 1.387 . S
H215 C211 0.950 . S
H216 C213 0.950 . S
C217 C208 1.390 . S
C217 H210 0.950 . S
C217 C214 1.387 . S
C218 C219 1.387 . S
C218 H222 0.950 . S
C218 C227 1.390 . S
C219 C218 1.387 . S
C219 C221 1.387 . S
H220 C227 0.950 . S
C221 C219 1.387 . S
C221 C223 1.390 . S
C221 H225 0.950 . S
H222 C218 0.950 . S
C223 C221 1.390 . S
C223 C224 1.387 . S
C223 H226 0.950 . S
C224 C223 1.387 . S
C224 C227 1.387 . S
H225 C221 0.950 . S
H226 C223 0.950 . S
C227 C218 1.390 . S
C227 H220 0.950 . S
C227 C224 1.387 . S
C228 C229 1.387 . S
C228 H232 0.950 . S
C228 C237 1.390 . S
C229 C228 1.387 . S
C229 C231 1.387 . S
H230 C237 0.950 . S
C231 C229 1.387 . S
C231 C233 1.390 . S
C231 H235 0.950 . S
H232 C228 0.950 . S
C233 C231 1.390 . S
C233 C234 1.387 . S
C233 H236 0.950 . S
C234 C233 1.387 . S
C234 C237 1.387 . S
H235 C231 0.950 . S
H236 C233 0.950 . S
C237 C228 1.390 . S
C237 H230 0.950 . S
C237 C234 1.387 . S
C238 C239 1.387 . S
C238 H242 0.950 . S
C238 C247 1.390 1_655 S
C239 C238 1.387 . S
C239 C241 1.387 . S
H240 C247 0.950 . S
C241 C239 1.387 . S
C241 C243 1.390 1_655 S
C241 H245 0.950 . S
H242 C238 0.950 . S
C243 C241 1.390 1_455 S
C243 C244 1.387 . S
C243 H246 0.950 . S
C244 C243 1.387 . S
C244 C247 1.387 . S
H245 C241 0.950 . S
H246 C243 0.950 . S
C247 C238 1.390 1_455 S
C247 H240 0.950 . S
C247 C244 1.387 . S
C248 C249 1.387 . S
C248 H252 0.950 . S
C248 C257 1.390 1_545 S
C249 C248 1.387 . S
C249 C251 1.387 . S
H250 C257 0.950 . S
C251 C249 1.387 . S
C251 C253 1.390 1_545 S
C251 H255 0.950 . S
H252 C248 0.950 . S
C253 C251 1.390 1_565 S
C253 C254 1.387 . S
C253 H256 0.950 . S
C254 C253 1.387 . S
C254 C257 1.387 . S
H255 C251 0.950 . S
H256 C253 0.950 . S
C257 C248 1.390 1_565 S
C257 H250 0.950 . S
C257 C254 1.387 . S
C258 C259 1.387 . S
C258 H262 0.950 . S
C258 C267 1.390 . S
C259 C258 1.387 . S
C259 C261 1.387 . S
H260 C267 0.950 . S
C261 C259 1.387 . S
C261 C263 1.390 . S
C261 H265 0.950 . S
H262 C258 0.950 . S
C263 C261 1.390 . S
C263 C264 1.387 . S
C263 H266 0.950 . S
C264 C263 1.387 . S
C264 C267 1.387 . S
H265 C261 0.950 . S
H266 C263 0.950 . S
C267 C258 1.390 . S
C267 H260 0.950 . S
C267 C264 1.387 . S
C268 C269 1.387 1_455 S
C268 H272 0.950 . S
C268 C277 1.390 . S
C269 C268 1.387 1_655 S
C269 C271 1.387 . S
H270 C277 0.950 . S
C271 C269 1.387 . S
C271 C273 1.390 . S
C271 H275 0.950 . S
H272 C268 0.950 . S
C273 C271 1.390 . S
C273 C274 1.387 1_655 S
C273 H276 0.950 . S
C274 C273 1.387 1_455 S
C274 C277 1.387 . S
H275 C271 0.950 . S
H276 C273 0.950 . S
C277 C268 1.390 . S
C277 H270 0.950 . S
C277 C274 1.387 . S
C278 C279 1.387 . S
C278 H282 0.950 . S
C278 C287 1.390 1_564 S
C279 C278 1.387 . S
C279 C281 1.387 . S
H280 C287 0.950 . S
C281 C279 1.387 . S
C281 C283 1.390 1_564 S
C281 H285 0.950 . S
H282 C278 0.950 . S
C283 C281 1.390 1_546 S
C283 C284 1.387 . S
C283 H286 0.950 . S
C284 C283 1.387 . S
C284 C287 1.387 . S
H285 C281 0.950 . S
H286 C283 0.950 . S
C287 C278 1.390 1_546 S
C287 H280 0.950 . S
C287 C284 1.387 . S
C288 C289 1.387 . S
C288 H292 0.950 . S
C288 C297 1.390 . S
C289 C288 1.387 . S
C289 C291 1.387 . S
H290 C297 0.950 1_556 S
C291 C289 1.387 . S
C291 C293 1.390 1_554 S
C291 H295 0.950 . S
H292 C288 0.950 . S
C293 C291 1.390 1_556 S
C293 C294 1.387 . S
C293 H296 0.950 . S
C294 C293 1.387 . S
C294 C297 1.387 1_556 S
H295 C291 0.950 . S
H296 C293 0.950 . S
C297 C288 1.390 . S
C297 H290 0.950 1_554 S
C297 C294 1.387 1_554 S
C298 C299 1.387 . S
C298 H302 0.950 . S
C298 C307 1.390 . S
C299 C298 1.387 . S
C299 C301 1.387 . S
H300 C307 0.950 . S
C301 C299 1.387 . S
C301 C303 1.390 . S
C301 H305 0.950 . S
H302 C298 0.950 . S
C303 C301 1.390 . S
C303 C304 1.387 . S
C303 H306 0.950 . S
C304 C303 1.387 . S
C304 C307 1.387 . S
H305 C301 0.950 . S
H306 C303 0.950 . S
C307 C298 1.390 . S
C307 H300 0.950 . S
C307 C304 1.387 . S
C308 C309 1.387 . S
C308 H312 0.950 . S
C308 C317 1.390 . S
C309 C308 1.387 . S
C309 C311 1.388 . S
H310 C317 0.950 . S
C311 C309 1.388 . S
C311 C313 1.391 . S
C311 H315 0.948 1_565 S
H312 C308 0.950 . S
C313 C311 1.391 . S
C313 C314 1.387 . S
C313 H316 0.950 . S
C314 C313 1.387 . S
C314 C317 1.387 . S
H315 C311 0.948 1_545 S
H316 C313 0.950 . S
C317 C308 1.390 . S
C317 H310 0.950 . S
C317 C314 1.387 . S
C318 C319 1.387 . S
C318 H322 0.950 . S
C318 C327 1.390 . S
C319 C318 1.387 . S
C319 C321 1.387 . S
H320 C327 0.950 . S
C321 C319 1.387 . S
C321 C323 1.390 . S
C321 H325 0.950 . S
H322 C318 0.950 . S
C323 C321 1.390 . S
C323 C324 1.387 . S
C323 H326 0.950 . S
C324 C323 1.387 . S
C324 C327 1.387 . S
H325 C321 0.950 . S
H326 C323 0.950 . S
C327 C318 1.390 . S
C327 H320 0.950 . S
C327 C324 1.387 . S
C328 C329 1.387 . S
C328 H332 0.950 . S
C328 C337 1.390 . S
C329 C328 1.387 . S
C329 C331 1.387 . S
H330 C337 0.950 . S
C331 C329 1.387 . S
C331 C333 1.390 . S
C331 H335 0.950 . S
H332 C328 0.950 . S
C333 C331 1.390 . S
C333 C334 1.387 . S
C333 H336 0.950 1_455 S
C334 C333 1.387 . S
C334 C337 1.387 . S
H335 C331 0.950 . S
H336 C333 0.950 1_655 S
C337 C328 1.390 . S
C337 H330 0.950 . S
C337 C334 1.387 . S
C338 C339 1.387 . S
C338 H342 0.950 . S
C338 C347 1.390 . S
C339 C338 1.387 . S
C339 C341 1.387 . S
H340 C347 0.950 1_565 S
C341 C339 1.387 . S
C341 C343 1.390 . S
C341 H345 0.950 . S
H342 C338 0.950 . S
C343 C341 1.390 . S
C343 C344 1.387 . S
C343 H346 0.950 . S
C344 C343 1.387 . S
C344 C347 1.387 . S
H345 C341 0.950 . S
H346 C343 0.950 . S
C347 C338 1.390 . S
C347 H340 0.950 1_545 S
C347 C344 1.387 . S
C348 C349 1.387 . S
C348 H352 0.950 . S
C348 C357 1.390 . S
C349 C348 1.387 . S
C349 C351 1.387 . S
H350 C357 0.950 . S
C351 C349 1.387 . S
C351 C353 1.390 . S
C351 H355 0.950 . S
H352 C348 0.950 . S
C353 C351 1.390 . S
C353 C354 1.387 . S
C353 H356 0.950 . S
C354 C353 1.387 . S
C354 C357 1.387 . S
H355 C351 0.950 . S
H356 C353 0.950 . S
C357 C348 1.390 . S
C357 H350 0.950 . S
C357 C354 1.387 . S
C358 C359 1.387 . S
C358 H362 0.950 . S
C358 C367 1.390 1_556 S
C359 C358 1.387 . S
C359 C361 1.387 . S
H360 C367 0.950 . S
C361 C359 1.387 . S
C361 C363 1.413 . S
C361 H365 0.950 . S
H362 C358 0.950 . S
C363 C361 1.413 . S
C363 C364 1.374 1_556 S
C363 H366 0.941 1_556 S
C364 C363 1.374 1_554 S
C364 C367 1.387 . S
H365 C361 0.950 . S
H366 C363 0.941 1_554 S
C367 C358 1.390 1_554 S
C367 H360 0.950 . S
C367 C364 1.387 . S
C368 C369 1.387 . S
C368 H372 0.950 . S
C368 C377 1.390 . S
C369 C368 1.387 . S
C369 C371 1.387 . S
H370 C377 0.950 . S
C371 C369 1.387 . S
C371 C373 1.390 . S
C371 H375 0.950 . S
H372 C368 0.950 . S
C373 C371 1.390 . S
C373 C374 1.387 . S
C373 H376 0.950 1_565 S
C374 C373 1.387 . S
C374 C377 1.387 . S
H375 C371 0.950 . S
H376 C373 0.950 1_545 S
C377 C368 1.390 . S
C377 H370 0.950 . S
C377 C374 1.387 . S
C378 C379 1.387 . S
C378 H382 0.950 . S
C378 C387 1.390 . S
C379 C378 1.387 . S
C379 C381 1.387 . S
H380 C387 0.950 . S
C381 C379 1.387 . S
C381 C383 1.390 . S
C381 H385 0.950 . S
H382 C378 0.950 . S
C383 C381 1.390 . S
C383 C384 1.387 . S
C383 H386 0.950 . S
C384 C383 1.387 . S
C384 C387 1.387 . S
H385 C381 0.950 . S
H386 C383 0.950 . S
C387 C378 1.390 . S
C387 H380 0.950 . S
C387 C384 1.387 . S
C388 C389 1.387 . S
C388 H392 0.950 . S
C388 C397 1.390 . S
C389 C388 1.387 . S
C389 C391 1.387 . S
H390 C397 0.950 . S
C391 C389 1.387 . S
C391 C393 1.390 . S
C391 H395 0.950 . S
H392 C388 0.950 . S
C393 C391 1.390 . S
C393 C394 1.387 . S
C393 H396 0.950 1_455 S
C394 C393 1.387 . S
C394 C397 1.387 . S
H395 C391 0.950 . S
H396 C393 0.950 1_655 S
C397 C388 1.390 . S
C397 H390 0.950 . S
C397 C394 1.387 . S
C398 C399 1.387 . S
C398 H402 0.950 1_545 S
C398 C407 1.390 . S
C399 C398 1.387 . S
C399 C401 1.387 . S
H400 C407 0.950 . S
C401 C399 1.387 . S
C401 C403 1.390 . S
C401 H405 0.950 . S
H402 C398 0.950 1_565 S
C403 C401 1.390 . S
C403 C404 1.387 . S
C403 H406 0.950 . S
C404 C403 1.387 . S
C404 C407 1.387 . S
H405 C401 0.950 . S
H406 C403 0.950 . S
C407 C398 1.390 . S
C407 H400 0.950 . S
C407 C404 1.387 . S
C169 C123 1.360 . S
C174 C11 1.359 . S
C179 C25 1.359 . S
C184 C137 1.359 . S
C189 C39 1.360 . S
C194 C151 1.360 . S
C199 C53 1.359 . S
C204 C165 1.359 . S
C209 C95 1.359 . S
C214 C67 1.359 . S
C219 C81 1.360 . S
C224 C109 1.359 . S
C229 C131 1.134 . S
C234 C5 1.136 . S
C239 C19 1.134 . S
C244 C145 1.136 . S
C249 C159 1.135 . S
C254 C33 1.135 . S
C259 C47 1.136 . S
C264 C89 1.135 . S
C269 C103 1.134 . S
C274 C61 1.136 . S
C279 C117 1.135 . S
C284 C75 1.135 . S
C289 C0 1.486 . S
C294 C79 1.482 . S
C299 C14 1.487 . S
C304 C9 1.480 1_655 S
C309 C23 1.481 1_565 S
C314 C28 1.487 . S
C319 C42 1.485 . S
C324 C37 1.482 . S
C329 C56 1.487 . S
C334 C51 1.482 1_455 S
C339 C70 1.487 . S
C344 C65 1.481 1_545 S
C349 C84 1.487 . S
C354 C107 1.480 . S
C359 C98 1.486 . S
C364 C121 1.483 1_655 S
C369 C112 1.488 . S
C374 C135 1.481 1_565 S
C379 C126 1.486 . S
C384 C149 1.482 . S
C389 C140 1.488 . S
C394 C163 1.481 1_455 S
C399 C93 1.482 1_545 S
C404 C154 1.486 . S
