# Generated by pormake.
# Topology whk, (6)-cn, num edge types: 1
# Building blocks:
#     Node 0, Type 0, BuildingBlock: BETDEL_clean_sbu_0, # of connection points: 6
#     Node 1, Type 0, BuildingBlock: BETDEL_clean_sbu_0, # of connection points: 6
#     Node 2, Type 0, BuildingBlock: BETDEL_clean_sbu_0, # of connection points: 6
#     Node 3, Type 0, BuildingBlock: BETDEL_clean_sbu_0, # of connection points: 6
#     Node 4, Type 0, BuildingBlock: BETDEL_clean_sbu_0, # of connection points: 6
#     Node 5, Type 0, BuildingBlock: BETDEL_clean_sbu_0, # of connection points: 6
#     Node 6, Type 0, BuildingBlock: BETDEL_clean_sbu_0, # of connection points: 6
#     Node 7, Type 0, BuildingBlock: BETDEL_clean_sbu_0, # of connection points: 6
#     Node 8, Type 0, BuildingBlock: BETDEL_clean_sbu_0, # of connection points: 6
#     Node 9, Type 0, BuildingBlock: BETDEL_clean_sbu_0, # of connection points: 6
#     Node 10, Type 0, BuildingBlock: BETDEL_clean_sbu_0, # of connection points: 6
#     Node 11, Type 0, BuildingBlock: BETDEL_clean_sbu_0, # of connection points: 6
#     Node 12, Type 0, BuildingBlock: BETDEL_clean_sbu_0, # of connection points: 6
#     Node 13, Type 0, BuildingBlock: BETDEL_clean_sbu_0, # of connection points: 6
#     Node 14, Type 0, BuildingBlock: BETDEL_clean_sbu_0, # of connection points: 6
#     Node 15, Type 0, BuildingBlock: BETDEL_clean_sbu_0, # of connection points: 6
#     Edge 16, Type (0, 0), BuildingBlock: TEMPAE_clean_linker_10, # of connection points: 2
#     Edge 17, Type (0, 0), BuildingBlock: TEMPAE_clean_linker_10, # of connection points: 2
#     Edge 18, Type (0, 0), BuildingBlock: TEMPAE_clean_linker_10, # of connection points: 2
#     Edge 19, Type (0, 0), BuildingBlock: TEMPAE_clean_linker_10, # of connection points: 2
#     Edge 20, Type (0, 0), BuildingBlock: TEMPAE_clean_linker_10, # of connection points: 2
#     Edge 21, Type (0, 0), BuildingBlock: TEMPAE_clean_linker_10, # of connection points: 2
#     Edge 22, Type (0, 0), BuildingBlock: TEMPAE_clean_linker_10, # of connection points: 2
#     Edge 23, Type (0, 0), BuildingBlock: TEMPAE_clean_linker_10, # of connection points: 2
#     Edge 24, Type (0, 0), BuildingBlock: TEMPAE_clean_linker_10, # of connection points: 2
#     Edge 25, Type (0, 0), BuildingBlock: TEMPAE_clean_linker_10, # of connection points: 2
#     Edge 26, Type (0, 0), BuildingBlock: TEMPAE_clean_linker_10, # of connection points: 2
#     Edge 27, Type (0, 0), BuildingBlock: TEMPAE_clean_linker_10, # of connection points: 2
#     Edge 28, Type (0, 0), BuildingBlock: TEMPAE_clean_linker_10, # of connection points: 2
#     Edge 29, Type (0, 0), BuildingBlock: TEMPAE_clean_linker_10, # of connection points: 2
#     Edge 30, Type (0, 0), BuildingBlock: TEMPAE_clean_linker_10, # of connection points: 2
#     Edge 31, Type (0, 0), BuildingBlock: TEMPAE_clean_linker_10, # of connection points: 2
#     Edge 32, Type (0, 0), BuildingBlock: TEMPAE_clean_linker_10, # of connection points: 2
#     Edge 33, Type (0, 0), BuildingBlock: TEMPAE_clean_linker_10, # of connection points: 2
#     Edge 34, Type (0, 0), BuildingBlock: TEMPAE_clean_linker_10, # of connection points: 2
#     Edge 35, Type (0, 0), BuildingBlock: TEMPAE_clean_linker_10, # of connection points: 2
#     Edge 36, Type (0, 0), BuildingBlock: TEMPAE_clean_linker_10, # of connection points: 2
#     Edge 37, Type (0, 0), BuildingBlock: TEMPAE_clean_linker_10, # of connection points: 2
#     Edge 38, Type (0, 0), BuildingBlock: TEMPAE_clean_linker_10, # of connection points: 2
#     Edge 39, Type (0, 0), BuildingBlock: TEMPAE_clean_linker_10, # of connection points: 2
#     Edge 40, Type (0, 0), BuildingBlock: TEMPAE_clean_linker_10, # of connection points: 2
#     Edge 41, Type (0, 0), BuildingBlock: TEMPAE_clean_linker_10, # of connection points: 2
#     Edge 42, Type (0, 0), BuildingBlock: TEMPAE_clean_linker_10, # of connection points: 2
#     Edge 43, Type (0, 0), BuildingBlock: TEMPAE_clean_linker_10, # of connection points: 2
#     Edge 44, Type (0, 0), BuildingBlock: TEMPAE_clean_linker_10, # of connection points: 2
#     Edge 45, Type (0, 0), BuildingBlock: TEMPAE_clean_linker_10, # of connection points: 2
#     Edge 46, Type (0, 0), BuildingBlock: TEMPAE_clean_linker_10, # of connection points: 2
#     Edge 47, Type (0, 0), BuildingBlock: TEMPAE_clean_linker_10, # of connection points: 2
#     Edge 48, Type (0, 0), BuildingBlock: TEMPAE_clean_linker_10, # of connection points: 2
#     Edge 49, Type (0, 0), BuildingBlock: TEMPAE_clean_linker_10, # of connection points: 2
#     Edge 50, Type (0, 0), BuildingBlock: TEMPAE_clean_linker_10, # of connection points: 2
#     Edge 51, Type (0, 0), BuildingBlock: TEMPAE_clean_linker_10, # of connection points: 2
#     Edge 52, Type (0, 0), BuildingBlock: TEMPAE_clean_linker_10, # of connection points: 2
#     Edge 53, Type (0, 0), BuildingBlock: TEMPAE_clean_linker_10, # of connection points: 2
#     Edge 54, Type (0, 0), BuildingBlock: TEMPAE_clean_linker_10, # of connection points: 2
#     Edge 55, Type (0, 0), BuildingBlock: TEMPAE_clean_linker_10, # of connection points: 2
#     Edge 56, Type (0, 0), BuildingBlock: TEMPAE_clean_linker_10, # of connection points: 2
#     Edge 57, Type (0, 0), BuildingBlock: TEMPAE_clean_linker_10, # of connection points: 2
#     Edge 58, Type (0, 0), BuildingBlock: TEMPAE_clean_linker_10, # of connection points: 2
#     Edge 59, Type (0, 0), BuildingBlock: TEMPAE_clean_linker_10, # of connection points: 2
#     Edge 60, Type (0, 0), BuildingBlock: TEMPAE_clean_linker_10, # of connection points: 2
#     Edge 61, Type (0, 0), BuildingBlock: TEMPAE_clean_linker_10, # of connection points: 2
#     Edge 62, Type (0, 0), BuildingBlock: TEMPAE_clean_linker_10, # of connection points: 2
#     Edge 63, Type (0, 0), BuildingBlock: TEMPAE_clean_linker_10, # of connection points: 2
# Relax obj value: 0.451
# Max RMSD: 0.288
# Mean RMSD: 0.288
data_MOF--net-whk--node1-BETDEL_clean_sbu_0--edge1-TEMPAE_clean_linker_10
_symmetry_space_group_name_H-M    P1
_symmetry_Int_Tables_number       1
_symmetry_cell_setting            triclinic
loop_
_symmetry_equiv_pos_as_xyz
'x, y, z'
_cell_length_a     38.953289
_cell_length_b     38.998559
_cell_length_c     43.711444
_cell_angle_alpha  89.94631
_cell_angle_beta   90.018976
_cell_angle_gamma 89.975488
loop_
_atom_site_label
_atom_site_type_symbol
_atom_site_fract_x
_atom_site_fract_y
_atom_site_fract_z
_atom_type_partial_charge
Dy0 Dy 0.5774 0.22245 0.38838 0.0
C1 C 0.46868 0.14088 0.41201 0.0
C2 C 0.62963 0.25851 0.36261 0.0
Dy3 Dy 0.52697 0.17939 0.41546 0.0
O4 O 0.6038 0.24567 0.34819 0.0
O5 O 0.62675 0.25211 0.39167 0.0
O6 O 0.55372 0.20729 0.344 0.0
O7 O 0.56187 0.16959 0.37657 0.0
C8 C 0.55382 0.17465 0.34885 0.0
C9 C 0.55325 0.22255 0.45679 0.0
O10 O 0.57222 0.14608 0.42687 0.0
O11 O 0.61135 0.18928 0.41756 0.0
O12 O 0.48605 0.14596 0.43712 0.0
O13 O 0.48376 0.1559 0.38925 0.0
O14 O 0.54088 0.19256 0.46405 0.0
O15 O 0.54668 0.22949 0.42919 0.0
O16 O 0.53717 0.26248 0.38929 0.0
O17 O 0.49399 0.22385 0.39822 0.0
C18 C 0.60371 0.15879 0.42907 0.0
C19 C 0.50419 0.25527 0.39084 0.0
Dy20 Dy 0.27506 0.57448 0.38909 0.0
C21 C 0.35785 0.46624 0.41277 0.0
C22 C 0.2388 0.62874 0.36726 0.0
Dy23 Dy 0.31796 0.52348 0.41634 0.0
O24 O 0.25145 0.60425 0.35093 0.0
O25 O 0.24532 0.62311 0.39593 0.0
O26 O 0.29286 0.5543 0.34389 0.0
O27 O 0.32829 0.55947 0.37854 0.0
C28 C 0.32516 0.55251 0.3504 0.0
C29 C 0.27394 0.54912 0.45721 0.0
O30 O 0.3507 0.56864 0.42924 0.0
O31 O 0.30791 0.60795 0.4189 0.0
O32 O 0.35105 0.48247 0.43813 0.0
O33 O 0.3436 0.48179 0.38984 0.0
O34 O 0.3039 0.53677 0.46479 0.0
O35 O 0.26751 0.54289 0.42943 0.0
O36 O 0.23557 0.53371 0.38747 0.0
O37 O 0.2737 0.49057 0.39858 0.0
C38 C 0.33807 0.60019 0.43108 0.0
C39 C 0.24263 0.50078 0.3899 0.0
Dy40 Dy 0.91986 0.27499 0.38691 0.0
C41 C 0.0288 0.35726 0.40956 0.0
C42 C 0.86749 0.23837 0.36202 0.0
Dy43 Dy 0.97073 0.31813 0.41285 0.0
O44 O 0.89297 0.25132 0.34721 0.0
O45 O 0.8707 0.24509 0.39099 0.0
O46 O 0.94313 0.28914 0.34207 0.0
O47 O 0.93551 0.32756 0.374 0.0
C48 C 0.9432 0.32187 0.34629 0.0
C49 C 0.94474 0.27562 0.45512 0.0
O50 O 0.92572 0.35191 0.42392 0.0
O51 O 0.8862 0.30884 0.41571 0.0
O52 O 0.01143 0.35177 0.43458 0.0
O53 O 0.01394 0.34211 0.38676 0.0
O54 O 0.95709 0.30578 0.46172 0.0
O55 O 0.95101 0.26821 0.42756 0.0
O56 O 0.95996 0.23485 0.3879 0.0
O57 O 0.00344 0.27344 0.39565 0.0
C58 C 0.89414 0.33953 0.42656 0.0
C59 C 0.99299 0.24195 0.38884 0.0
Dy60 Dy 0.2261 0.92341 0.39042 0.0
C61 C 0.13889 0.03005 0.40907 0.0
C62 C 0.26687 0.87058 0.37246 0.0
Dy63 Dy 0.18027 0.97377 0.41354 0.0
O64 O 0.2573 0.89594 0.35547 0.0
O65 O 0.25463 0.87457 0.39982 0.0
O66 O 0.21215 0.9409 0.34355 0.0
O67 O 0.17324 0.93663 0.37562 0.0
C68 C 0.17936 0.94203 0.34751 0.0
C69 C 0.22324 0.95097 0.45712 0.0
O70 O 0.14767 0.92819 0.42547 0.0
O71 O 0.19221 0.88985 0.41922 0.0
O72 O 0.14546 0.01385 0.43449 0.0
O73 O 0.15416 0.01495 0.38646 0.0
O74 O 0.19237 0.96197 0.46311 0.0
O75 O 0.23056 0.9568 0.42955 0.0
O76 O 0.26426 0.96535 0.39035 0.0
O77 O 0.22382 0.00758 0.39576 0.0
C78 C 0.16094 0.89712 0.42914 0.0
C79 C 0.25583 0.99804 0.38979 0.0
Dy80 Dy 0.07323 0.77228 0.13672 0.0
C81 C 0.96407 0.85545 0.11839 0.0
C82 C 0.12736 0.73423 0.15618 0.0
Dy83 Dy 0.02139 0.81562 0.11247 0.0
O84 O 0.10257 0.74517 0.17313 0.0
O85 O 0.12223 0.74366 0.12808 0.0
O86 O 0.05485 0.78746 0.18304 0.0
O87 O 0.05875 0.82523 0.14974 0.0
C88 C 0.05299 0.81999 0.17793 0.0
C89 C 0.04467 0.77162 0.07009 0.0
O90 O 0.06607 0.84852 0.09815 0.0
O91 O 0.10565 0.80547 0.10631 0.0
O92 O 0.97978 0.84968 0.09255 0.0
O93 O 0.98014 0.84019 0.14049 0.0
O94 O 0.03247 0.8018 0.06321 0.0
O95 O 0.03951 0.76522 0.09798 0.0
O96 O 0.03263 0.73284 0.13884 0.0
O97 O 0.98906 0.77153 0.13168 0.0
C98 C 0.09747 0.83582 0.09481 0.0
C99 C 0.99967 0.74023 0.13918 0.0
Dy100 Dy 0.73112 0.0802 0.13256 0.0
C101 C 0.63792 0.97149 0.12385 0.0
C102 C 0.77799 0.13052 0.12182 0.0
Dy103 Dy 0.67975 0.02712 0.11667 0.0
O104 O 0.75674 0.12971 0.14477 0.0
O105 O 0.77468 0.10249 0.10637 0.0
O106 O 0.72247 0.07338 0.18229 0.0
O107 O 0.6805 0.0675 0.15222 0.0
C108 C 0.6899 0.06615 0.18013 0.0
C109 C 0.7225 0.04457 0.07086 0.0
O110 O 0.64668 0.07267 0.10557 0.0
O111 O 0.69228 0.11064 0.10523 0.0
O112 O 0.64409 0.98663 0.09788 0.0
O113 O 0.65372 0.98741 0.14578 0.0
O114 O 0.69055 0.03643 0.06598 0.0
O115 O 0.72934 0.04045 0.09863 0.0
O116 O 0.76456 0.03654 0.14478 0.0
O117 O 0.72403 0.99465 0.13489 0.0
C118 C 0.65965 0.10336 0.09934 0.0
C119 C 0.75534 0.00403 0.14383 0.0
Dy120 Dy 0.42536 0.72194 0.13959 0.0
C121 C 0.53495 0.64055 0.11789 0.0
C122 C 0.37086 0.75775 0.16128 0.0
Dy123 Dy 0.47748 0.6801 0.11277 0.0
O124 O 0.39485 0.7443 0.17775 0.0
O125 O 0.37697 0.75207 0.13255 0.0
O126 O 0.44547 0.70396 0.18489 0.0
O127 O 0.44072 0.6688 0.14976 0.0
C128 C 0.44745 0.67185 0.17794 0.0
C129 C 0.45252 0.72463 0.07196 0.0
O130 O 0.43269 0.64711 0.09889 0.0
O131 O 0.39265 0.68927 0.10894 0.0
O132 O 0.51911 0.64675 0.09216 0.0
O133 O 0.51899 0.65535 0.14029 0.0
O134 O 0.46558 0.69506 0.06424 0.0
O135 O 0.45783 0.73058 0.1 0.0
O136 O 0.46558 0.76172 0.1426 0.0
O137 O 0.50952 0.7244 0.13189 0.0
C138 C 0.40096 0.65935 0.09668 0.0
C139 C 0.49866 0.75508 0.14097 0.0
Dy140 Dy 0.76764 0.41448 0.12477 0.0
C141 C 0.85978 0.52495 0.12119 0.0
C142 C 0.72554 0.36102 0.11116 0.0
Dy143 Dy 0.81869 0.46902 0.11273 0.0
O144 O 0.74087 0.3656 0.13726 0.0
O145 O 0.73168 0.38704 0.09371 0.0
O146 O 0.77556 0.41797 0.17498 0.0
O147 O 0.8179 0.42629 0.14596 0.0
C148 C 0.80801 0.42585 0.17373 0.0
C149 C 0.77717 0.45385 0.06532 0.0
O150 O 0.85282 0.42424 0.10169 0.0
O151 O 0.80693 0.38732 0.0958 0.0
O152 O 0.85404 0.51029 0.09497 0.0
O153 O 0.84395 0.5084 0.14275 0.0
O154 O 0.80929 0.46195 0.06153 0.0
O155 O 0.7696 0.4565 0.09306 0.0
O156 O 0.73238 0.45688 0.1362 0.0
O157 O 0.7739 0.49918 0.13308 0.0
C158 C 0.83979 0.39476 0.09208 0.0
C159 C 0.7419 0.48918 0.13912 0.0
Dy160 Dy 0.47286 0.81802 0.61387 0.0
C161 C 0.36441 0.74727 0.66727 0.0
C162 C 0.53156 0.85609 0.61772 0.0
Dy163 Dy 0.42066 0.77693 0.64116 0.0
O164 O 0.51459 0.85068 0.59246 0.0
O165 O 0.51611 0.84123 0.64038 0.0
O166 O 0.45945 0.80484 0.56522 0.0
O167 O 0.45119 0.7686 0.60031 0.0
C168 C 0.4455 0.77556 0.57253 0.0
C169 C 0.44642 0.82402 0.68014 0.0
O170 O 0.45896 0.73505 0.64079 0.0
O171 O 0.50368 0.77203 0.63148 0.0
O172 O 0.39158 0.75732 0.68152 0.0
O173 O 0.36897 0.75168 0.6381 0.0
O174 O 0.44557 0.79141 0.68512 0.0
O175 O 0.43825 0.82917 0.65247 0.0
O176 O 0.42854 0.85245 0.60153 0.0
O177 O 0.38816 0.81067 0.61135 0.0
C178 C 0.49223 0.74103 0.63911 0.0
C179 C 0.39664 0.84072 0.5995 0.0
Dy180 Dy 0.68203 0.47446 0.61375 0.0
C181 C 0.77723 0.37313 0.64611 0.0
C182 C 0.6382 0.52875 0.61943 0.0
Dy183 Dy 0.73098 0.42353 0.63436 0.0
O184 O 0.64617 0.51412 0.59362 0.0
O185 O 0.65346 0.51316 0.64184 0.0
O186 O 0.69381 0.46493 0.56378 0.0
O187 O 0.7324 0.45955 0.59699 0.0
C188 C 0.72507 0.45474 0.56928 0.0
C189 C 0.68468 0.43926 0.67843 0.0
O190 O 0.76671 0.46739 0.63626 0.0
O191 O 0.72485 0.50865 0.63261 0.0
O192 O 0.76589 0.39503 0.66585 0.0
O193 O 0.76275 0.37846 0.6198 0.0
O194 O 0.71743 0.43662 0.68238 0.0
O195 O 0.67812 0.43517 0.65023 0.0
O196 O 0.6511 0.42787 0.60094 0.0
O197 O 0.69674 0.39029 0.6057 0.0
C198 C 0.75716 0.49968 0.63827 0.0
C199 C 0.66513 0.39724 0.59636 0.0
Dy200 Dy 0.02671 0.68396 0.61604 0.0
C201 C 0.12998 0.77575 0.65203 0.0
C202 C 0.97002 0.64318 0.62137 0.0
Dy203 Dy 0.07904 0.73109 0.6372 0.0
O204 O 0.98618 0.64914 0.59583 0.0
O205 O 0.98557 0.65847 0.64375 0.0
O206 O 0.03629 0.69605 0.56613 0.0
O207 O 0.04337 0.73395 0.59959 0.0
C208 C 0.04786 0.72672 0.57183 0.0
C209 C 0.06148 0.68484 0.68091 0.0
O210 O 0.03601 0.76818 0.63796 0.0
O211 O 0.99381 0.72732 0.63527 0.0
O212 O 0.10587 0.76554 0.67013 0.0
O213 O 0.12666 0.76104 0.62555 0.0
O214 O 0.06474 0.71744 0.68493 0.0
O215 O 0.06564 0.67845 0.6527 0.0
O216 O 0.07244 0.65178 0.60335 0.0
O217 O 0.1112 0.69647 0.60783 0.0
C218 C 0.00347 0.75944 0.64037 0.0
C219 C 0.10335 0.66511 0.59843 0.0
Dy220 Dy 0.81743 0.02775 0.61784 0.0
C221 C 0.73875 0.13645 0.6593 0.0
C222 C 0.85711 0.97029 0.6225 0.0
Dy223 Dy 0.77271 0.0787 0.64128 0.0
O224 O 0.85128 0.98676 0.59709 0.0
O225 O 0.84212 0.98578 0.64505 0.0
O226 O 0.80566 0.03934 0.56837 0.0
O227 O 0.76741 0.04561 0.60189 0.0
C228 C 0.77501 0.05096 0.57427 0.0
C229 C 0.81923 0.05863 0.68361 0.0
O230 O 0.73303 0.03812 0.64205 0.0
O231 O 0.77264 0.9952 0.6353 0.0
O232 O 0.74704 0.11094 0.67667 0.0
O233 O 0.74623 0.12835 0.63133 0.0
O234 O 0.7864 0.05939 0.68764 0.0
O235 O 0.82543 0.06474 0.65562 0.0
O236 O 0.8507 0.07251 0.60477 0.0
O237 O 0.80659 0.1111 0.61138 0.0
C238 C 0.7408 0.00522 0.64169 0.0
C239 C 0.83754 0.10358 0.60091 0.0
Dy240 Dy 0.9753 0.17867 0.91483 0.0
C241 C 0.87096 0.27632 0.91972 0.0
C242 C 0.02871 0.1347 0.90515 0.0
Dy243 Dy 0.92203 0.23151 0.90471 0.0
O244 O 0.01576 0.14199 0.93177 0.0
O245 O 0.01197 0.15082 0.88385 0.0
O246 O 0.97034 0.18791 0.96615 0.0
O247 O 0.96533 0.22807 0.93492 0.0
C248 C 0.96362 0.22035 0.96269 0.0
C249 C 0.93006 0.19067 0.85543 0.0
O250 O 0.96523 0.26528 0.89228 0.0
O251 O 0.00651 0.22261 0.89394 0.0
O252 O 0.87565 0.26283 0.89284 0.0
O253 O 0.8956 0.26644 0.93746 0.0
O254 O 0.92313 0.22331 0.85436 0.0
O255 O 0.93112 0.18091 0.88319 0.0
O256 O 0.92997 0.14605 0.92779 0.0
O257 O 0.89422 0.19284 0.93392 0.0
C258 C 0.99714 0.25491 0.88827 0.0
C259 C 0.90104 0.15989 0.93792 0.0
Dy260 Dy 0.31773 0.97297 0.9141 0.0
C261 C 0.25089 0.86583 0.85464 0.0
C262 C 0.35497 0.03219 0.91085 0.0
Dy263 Dy 0.27905 0.92005 0.88467 0.0
O264 O 0.34979 0.01489 0.936 0.0
O265 O 0.34022 0.01688 0.8881 0.0
O266 O 0.30225 0.9591 0.96203 0.0
O267 O 0.26802 0.95009 0.92547 0.0
C268 C 0.27362 0.94454 0.95356 0.0
C269 C 0.32619 0.94927 0.84795 0.0
O270 O 0.23704 0.95812 0.88185 0.0
O271 O 0.27206 0.00314 0.89532 0.0
O272 O 0.27159 0.88806 0.84307 0.0
O273 O 0.24529 0.87304 0.88326 0.0
O274 O 0.2937 0.94791 0.84211 0.0
O275 O 0.33096 0.93969 0.87533 0.0
O276 O 0.35232 0.92919 0.92717 0.0
O277 O 0.31149 0.88814 0.91626 0.0
C278 C 0.24215 0.99134 0.88511 0.0
C279 C 0.34094 0.89719 0.92907 0.0
Dy280 Dy 0.52831 0.31577 0.91092 0.0
C281 C 0.63964 0.22886 0.88632 0.0
C282 C 0.47193 0.35699 0.90494 0.0
Dy283 Dy 0.58172 0.26811 0.89126 0.0
O284 O 0.48885 0.35228 0.93028 0.0
O285 O 0.48636 0.33991 0.88298 0.0
O286 O 0.53627 0.30514 0.96146 0.0
O287 O 0.54565 0.26672 0.929 0.0
C288 C 0.54879 0.2746 0.95687 0.0
C289 C 0.56265 0.31087 0.84569 0.0
O290 O 0.53909 0.23146 0.88408 0.0
O291 O 0.49629 0.27088 0.894 0.0
O292 O 0.63496 0.25883 0.87426 0.0
O293 O 0.61123 0.21956 0.89911 0.0
O294 O 0.56753 0.27812 0.84279 0.0
O295 O 0.56667 0.31909 0.8736 0.0
O296 O 0.57414 0.34866 0.92156 0.0
O297 O 0.60964 0.30157 0.92495 0.0
C298 C 0.50628 0.23956 0.88599 0.0
C299 C 0.60344 0.33437 0.93022 0.0
Dy300 Dy 0.18229 0.52285 0.91487 0.0
C301 C 0.26305 0.62731 0.86619 0.0
C302 C 0.14345 0.46486 0.90943 0.0
Dy303 Dy 0.22541 0.57486 0.88949 0.0
O304 O 0.14841 0.48129 0.93504 0.0
O305 O 0.15891 0.48062 0.88728 0.0
O306 O 0.19591 0.5347 0.96398 0.0
O307 O 0.23232 0.54236 0.9291 0.0
C308 C 0.22573 0.54769 0.95693 0.0
C309 C 0.17783 0.55239 0.84903 0.0
O310 O 0.26546 0.53455 0.88955 0.0
O311 O 0.22696 0.4908 0.89645 0.0
O312 O 0.25194 0.60124 0.85103 0.0
O313 O 0.25384 0.62471 0.89466 0.0
O314 O 0.21041 0.55388 0.84399 0.0
O315 O 0.17264 0.55926 0.87698 0.0
O316 O 0.14878 0.56767 0.9275 0.0
O317 O 0.19152 0.60764 0.91911 0.0
C318 C 0.25838 0.50153 0.88952 0.0
C319 C 0.16103 0.59929 0.93035 0.0
C320 C 0.57586 0.11774 0.3289 0.0
C321 C 0.56465 0.15141 0.32342 0.0
C322 C 0.59207 0.09839 0.30565 0.0
C323 C 0.59816 0.11339 0.27651 0.0
C324 C 0.58521 0.14667 0.27051 0.0
C325 C 0.56819 0.16489 0.29374 0.0
C326 C 0.6042 0.06255 0.3128 0.0
C327 C 0.59171 0.16431 0.24027 0.0
C328 C 0.67931 0.09077 0.23218 0.0
C329 C 0.66637 0.07389 0.20623 0.0
C330 C 0.65751 0.10271 0.25549 0.0
C331 C 0.6217 0.09668 0.25365 0.0
C332 C 0.60864 0.07774 0.22845 0.0
C333 C 0.63101 0.06712 0.20477 0.0
C334 C 0.67274 0.12342 0.28135 0.0
C335 C 0.57091 0.06954 0.22605 0.0
H336 H 0.57316 0.10696 0.35163 0.0
H337 H 0.55951 0.19078 0.28906 0.0
H338 H 0.59906 0.0451 0.29328 0.0
H339 H 0.63232 0.06276 0.31675 0.0
H340 H 0.59158 0.05209 0.3336 0.0
H341 H 0.57803 0.18923 0.23844 0.0
H342 H 0.61965 0.16907 0.23761 0.0
H343 H 0.58355 0.14774 0.22101 0.0
H344 H 0.70654 0.09621 0.23369 0.0
H345 H 0.62078 0.05391 0.18495 0.0
H346 H 0.66682 0.11117 0.30362 0.0
H347 H 0.66115 0.14942 0.28167 0.0
H348 H 0.70104 0.12612 0.27935 0.0
H349 H 0.561 0.06004 0.2483 0.0
H350 H 0.56568 0.05 0.20817 0.0
H351 H 0.55641 0.09314 0.22023 0.0
C352 C 0.40545 0.6283 0.19741 0.0
C353 C 0.43629 0.64637 0.2013 0.0
C354 C 0.39025 0.61022 0.22188 0.0
C355 C 0.40669 0.60928 0.25086 0.0
C356 C 0.43901 0.62564 0.25425 0.0
C357 C 0.45304 0.64452 0.22967 0.0
C358 C 0.3554 0.59415 0.21722 0.0
C359 C 0.45792 0.62482 0.28437 0.0
C360 C 0.34824 0.60184 0.32077 0.0
C361 C 0.34941 0.56667 0.3274 0.0
C362 C 0.36734 0.616 0.29653 0.0
C363 C 0.38836 0.59452 0.27823 0.0
C364 C 0.39051 0.55905 0.28551 0.0
C365 C 0.37075 0.54548 0.30985 0.0
C366 C 0.36369 0.65379 0.28977 0.0
C367 C 0.41311 0.53534 0.26718 0.0
H368 H 0.39197 0.63022 0.17577 0.0
H369 H 0.47666 0.65876 0.23292 0.0
H370 H 0.35539 0.56724 0.22543 0.0
H371 H 0.33603 0.60837 0.23085 0.0
H372 H 0.34734 0.59452 0.19284 0.0
H373 H 0.48463 0.63449 0.28218 0.0
H374 H 0.44417 0.64098 0.30128 0.0
H375 H 0.45867 0.59831 0.2936 0.0
H376 H 0.33138 0.6182 0.33407 0.0
H377 H 0.37145 0.51823 0.31475 0.0
H378 H 0.34858 0.6572 0.26844 0.0
H379 H 0.38913 0.66584 0.28606 0.0
H380 H 0.35053 0.66763 0.3086 0.0
H381 H 0.40315 0.5333 0.24347 0.0
H382 H 0.41435 0.5092 0.27725 0.0
H383 H 0.43952 0.54589 0.26571 0.0
C384 C 0.9304 0.33079 0.29071 0.0
C385 C 0.93229 0.34455 0.32039 0.0
C386 C 0.91344 0.34813 0.26685 0.0
C387 C 0.8987 0.3808 0.27224 0.0
C388 C 0.90302 0.39615 0.30146 0.0
C389 C 0.91934 0.37771 0.32529 0.0
C390 C 0.909 0.33016 0.23651 0.0
C391 C 0.88888 0.43138 0.30806 0.0
C392 C 0.8663 0.42616 0.19963 0.0
C393 C 0.83121 0.41797 0.2001 0.0
C394 C 0.88834 0.41612 0.22381 0.0
C395 C 0.87527 0.39638 0.24855 0.0
C396 C 0.83972 0.38873 0.24929 0.0
C397 C 0.8182 0.40005 0.22548 0.0
C398 C 0.92574 0.42595 0.22251 0.0
C399 C 0.82452 0.36715 0.27461 0.0
H400 H 0.94043 0.30531 0.28647 0.0
H401 H 0.92071 0.38871 0.34803 0.0
H402 H 0.88146 0.32396 0.23302 0.0
H403 H 0.917 0.34711 0.21744 0.0
H404 H 0.92401 0.30598 0.2352 0.0
H405 H 0.89989 0.44236 0.32935 0.0
H406 H 0.89422 0.44908 0.28874 0.0
H407 H 0.86062 0.42985 0.31079 0.0
H408 H 0.87658 0.44017 0.18026 0.0
H409 H 0.79118 0.3935 0.2262 0.0
H410 H 0.94149 0.40296 0.2174 0.0
H411 H 0.93433 0.43605 0.24498 0.0
H412 H 0.93083 0.44556 0.20463 0.0
H413 H 0.83716 0.34164 0.27508 0.0
H414 H 0.79643 0.36333 0.27182 0.0
H415 H 0.8292 0.37939 0.2971 0.0
C416 C 0.12166 0.93686 0.32068 0.0
C417 C 0.15673 0.92889 0.32243 0.0
C418 C 0.10084 0.92348 0.29689 0.0
C419 C 0.11514 0.90068 0.27492 0.0
C420 C 0.15051 0.89245 0.27691 0.0
C421 C 0.17076 0.90692 0.30019 0.0
C422 C 0.0635 0.93352 0.29538 0.0
C423 C 0.16693 0.86743 0.25493 0.0
C424 C 0.06241 0.83254 0.23349 0.0
C425 C 0.06268 0.84425 0.20305 0.0
C426 C 0.07769 0.85148 0.25729 0.0
C427 C 0.09328 0.88352 0.2509 0.0
C428 C 0.09144 0.89669 0.2206 0.0
C429 C 0.0764 0.87685 0.19702 0.0
C430 C 0.0793 0.8359 0.2889 0.0
C431 C 0.10706 0.93095 0.21272 0.0
H432 H 0.1106 0.95375 0.33772 0.0
H433 H 0.1977 0.90006 0.30147 0.0
H434 H 0.05719 0.94331 0.2722 0.0
H435 H 0.04715 0.9107 0.29949 0.0
H436 H 0.05684 0.95347 0.31251 0.0
H437 H 0.19487 0.86418 0.25916 0.0
H438 H 0.15439 0.84199 0.25705 0.0
H439 H 0.16326 0.87623 0.23101 0.0
H440 H 0.05178 0.80749 0.23855 0.0
H441 H 0.07679 0.88623 0.17367 0.0
H442 H 0.07081 0.85468 0.30636 0.0
H443 H 0.10625 0.82888 0.2943 0.0
H444 H 0.06317 0.81252 0.2909 0.0
H445 H 0.09962 0.95051 0.22991 0.0
H446 H 0.09911 0.93996 0.18966 0.0
H447 H 0.13546 0.92883 0.21315 0.0
C448 C 0.38406 0.92956 0.82871 0.0
C449 C 0.35094 0.94205 0.82272 0.0
C450 C 0.40437 0.91546 0.8051 0.0
C451 C 0.39102 0.91318 0.77493 0.0
C452 C 0.35864 0.92806 0.76848 0.0
C453 C 0.3393 0.94266 0.79229 0.0
C454 C 0.43914 0.90083 0.81289 0.0
C455 C 0.34291 0.92583 0.73695 0.0
C456 C 0.44279 0.88234 0.70539 0.0
C457 C 0.43484 0.84728 0.70511 0.0
C458 C 0.43008 0.90403 0.72874 0.0
C459 C 0.40783 0.89057 0.75154 0.0
C460 C 0.3997 0.85518 0.75108 0.0
C461 C 0.41372 0.83405 0.72834 0.0
C462 C 0.44015 0.94136 0.72884 0.0
C463 C 0.37517 0.83966 0.77405 0.0
H464 H 0.39341 0.92912 0.85207 0.0
H465 H 0.31388 0.95251 0.7873 0.0
H466 H 0.43749 0.87245 0.8138 0.0
H467 H 0.45821 0.90763 0.79503 0.0
H468 H 0.44853 0.91014 0.83541 0.0
H469 H 0.31914 0.94142 0.73492 0.0
H470 H 0.36142 0.9345 0.71932 0.0
H471 H 0.33645 0.89873 0.73183 0.0
H472 H 0.45903 0.89271 0.6875 0.0
H473 H 0.40699 0.80709 0.7282 0.0
H474 H 0.44943 0.94892 0.75188 0.0
H475 H 0.41743 0.95747 0.72357 0.0
H476 H 0.4605 0.94704 0.71178 0.0
H477 H 0.38492 0.84362 0.79762 0.0
H478 H 0.37138 0.81173 0.7704 0.0
H479 H 0.34981 0.85252 0.77248 0.0
C480 C 0.57202 0.37003 0.8229 0.0
C481 C 0.5716 0.33421 0.81965 0.0
C482 C 0.58514 0.39142 0.79947 0.0
C483 C 0.59928 0.37667 0.77254 0.0
C484 C 0.59761 0.34062 0.76877 0.0
C485 C 0.58333 0.32006 0.79197 0.0
C486 C 0.58507 0.42973 0.80409 0.0
C487 C 0.61303 0.32338 0.74104 0.0
C488 C 0.62561 0.4242 0.69915 0.0
C489 C 0.66104 0.42846 0.70369 0.0
C490 C 0.60457 0.40959 0.72215 0.0
C491 C 0.61943 0.3979 0.74999 0.0
C492 C 0.65495 0.40337 0.75499 0.0
C493 C 0.675 0.41902 0.73216 0.0
C494 C 0.56666 0.40556 0.7162 0.0
C495 C 0.67238 0.39074 0.78376 0.0
H496 H 0.56287 0.38129 0.84404 0.0
H497 H 0.58313 0.29248 0.78899 0.0
H498 H 0.61137 0.43851 0.80982 0.0
H499 H 0.57716 0.44306 0.78277 0.0
H500 H 0.5676 0.43752 0.82292 0.0
H501 H 0.60843 0.29527 0.74087 0.0
H502 H 0.60223 0.33448 0.71976 0.0
H503 H 0.64116 0.32791 0.74062 0.0
H504 H 0.61445 0.43155 0.67738 0.0
H505 H 0.70227 0.42224 0.73616 0.0
H506 H 0.55161 0.41296 0.73672 0.0
H507 H 0.56082 0.37831 0.71119 0.0
H508 H 0.55803 0.42132 0.69645 0.0
H509 H 0.65946 0.40131 0.80427 0.0
H510 H 0.69996 0.39791 0.78464 0.0
H511 H 0.67041 0.36238 0.78506 0.0
C512 C 0.06462 0.62614 0.70603 0.0
C513 C 0.07296 0.66114 0.70581 0.0
C514 C 0.07684 0.60417 0.72948 0.0
C515 C 0.09895 0.61721 0.75261 0.0
C516 C 0.10744 0.65253 0.75226 0.0
C517 C 0.09397 0.67396 0.72935 0.0
C518 C 0.0664 0.56694 0.72935 0.0
C519 C 0.13176 0.66765 0.7756 0.0
C520 C 0.12105 0.57567 0.82963 0.0
C521 C 0.15384 0.56222 0.82375 0.0
C522 C 0.10155 0.59129 0.80611 0.0
C523 C 0.11533 0.59412 0.77611 0.0
C524 C 0.14748 0.57866 0.76979 0.0
C525 C 0.166 0.56265 0.79347 0.0
C526 C 0.06704 0.60653 0.81382 0.0
C527 C 0.16377 0.58146 0.73853 0.0
H528 H 0.04841 0.61603 0.68801 0.0
H529 H 0.10101 0.70085 0.72935 0.0
H530 H 0.0891 0.55061 0.72467 0.0
H531 H 0.05636 0.55948 0.75216 0.0
H532 H 0.0465 0.56147 0.71181 0.0
H533 H 0.1364 0.69544 0.77182 0.0
H534 H 0.12127 0.66412 0.79898 0.0
H535 H 0.1568 0.6541 0.77471 0.0
H536 H 0.1113 0.57545 0.85285 0.0
H537 H 0.19119 0.55219 0.78853 0.0
H538 H 0.04798 0.60028 0.79579 0.0
H539 H 0.06923 0.63486 0.81488 0.0
H540 H 0.0573 0.5972 0.83621 0.0
H541 H 0.1453 0.57394 0.72045 0.0
H542 H 0.18708 0.56522 0.73642 0.0
H543 H 0.17115 0.60852 0.7342 0.0
C544 C 0.87597 0.08072 0.70453 0.0
C545 C 0.84207 0.06971 0.70939 0.0
C546 C 0.89511 0.09646 0.72824 0.0
C547 C 0.87977 0.10224 0.7573 0.0
C548 C 0.84615 0.08972 0.76258 0.0
C549 C 0.82809 0.07326 0.73888 0.0
C550 C 0.93123 0.10823 0.72168 0.0
C551 C 0.82812 0.09587 0.79268 0.0
C552 C 0.92662 0.13218 0.83007 0.0
C553 C 0.92084 0.16772 0.82925 0.0
C554 C 0.91526 0.11065 0.806 0.0
C555 C 0.8967 0.12477 0.78097 0.0
C556 C 0.89154 0.16072 0.77992 0.0
C557 C 0.90409 0.18163 0.80362 0.0
C558 C 0.92254 0.07272 0.80767 0.0
C559 C 0.87162 0.17718 0.7542 0.0
H560 H 0.88716 0.0781 0.68195 0.0
H561 H 0.80201 0.06479 0.74311 0.0
H562 H 0.93127 0.13627 0.71749 0.0
H563 H 0.94828 0.10313 0.74153 0.0
H564 H 0.94203 0.09537 0.70115 0.0
H565 H 0.8028 0.08285 0.79386 0.0
H566 H 0.84416 0.08674 0.81199 0.0
H567 H 0.82407 0.12382 0.7959 0.0
H568 H 0.93974 0.12116 0.84962 0.0
H569 H 0.89951 0.20902 0.80255 0.0
H570 H 0.93277 0.06342 0.78547 0.0
H571 H 0.89837 0.05859 0.81221 0.0
H572 H 0.94122 0.06639 0.82604 0.0
H573 H 0.88507 0.17267 0.73223 0.0
H574 H 0.86856 0.20527 0.75738 0.0
H575 H 0.84574 0.16546 0.75237 0.0
C576 C 0.42224 0.10322 0.43324 0.0
C577 C 0.43546 0.12296 0.40923 0.0
C578 C 0.391 0.08553 0.42984 0.0
C579 C 0.37253 0.08813 0.40195 0.0
C580 C 0.3853 0.10906 0.3781 0.0
C581 C 0.41672 0.12599 0.38196 0.0
C582 C 0.37832 0.06316 0.45567 0.0
C583 C 0.3663 0.11278 0.34815 0.0
C584 C 0.31698 0.01241 0.37996 0.0
C585 C 0.28413 0.02334 0.38882 0.0
C586 C 0.34575 0.03345 0.38379 0.0
C587 C 0.34166 0.0665 0.39656 0.0
C588 C 0.30838 0.07844 0.40422 0.0
C589 C 0.27991 0.05665 0.40027 0.0
C590 C 0.38073 0.01978 0.3751 0.0
C591 C 0.30302 0.11374 0.4175 0.0
H592 H 0.43665 0.10102 0.45437 0.0
H593 H 0.4267 0.14159 0.36345 0.0
H594 H 0.35149 0.06997 0.46161 0.0
H595 H 0.37832 0.03593 0.4483 0.0
H596 H 0.39449 0.06553 0.4765 0.0
H597 H 0.3781 0.1324 0.33302 0.0
H598 H 0.3662 0.08788 0.3359 0.0
H599 H 0.33914 0.11995 0.35237 0.0
H600 H 0.32046 0.98678 0.37088 0.0
H601 H 0.25465 0.06521 0.40733 0.0
H602 H 0.39743 0.01869 0.39565 0.0
H603 H 0.39321 0.03721 0.35842 0.0
H604 H 0.3794 0.99372 0.36492 0.0
H605 H 0.31559 0.11532 0.44024 0.0
H606 H 0.27538 0.12008 0.42022 0.0
H607 H 0.31515 0.13339 0.40266 0.0
C608 C 0.37737 0.41679 0.3816 0.0
C609 C 0.37702 0.4338 0.40984 0.0
C610 C 0.39537 0.386 0.37776 0.0
C611 C 0.41384 0.37207 0.4027 0.0
C612 C 0.41317 0.38886 0.43146 0.0
C613 C 0.39454 0.41953 0.43475 0.0
C614 C 0.39527 0.3688 0.3468 0.0
C615 C 0.43287 0.37491 0.45849 0.0
C616 C 0.44522 0.27964 0.39934 0.0
C617 C 0.47953 0.28419 0.39051 0.0
C618 C 0.42326 0.30799 0.40305 0.0
C619 C 0.43604 0.34152 0.39794 0.0
C620 C 0.47032 0.3461 0.38812 0.0
C621 C 0.49152 0.31744 0.38436 0.0
C622 C 0.38666 0.30215 0.41312 0.0
C623 C 0.48494 0.38142 0.38234 0.0
H624 H 0.36356 0.42762 0.36233 0.0
H625 H 0.39415 0.43262 0.45661 0.0
H626 H 0.42153 0.36922 0.33699 0.0
H627 H 0.3876 0.34153 0.3491 0.0
H628 H 0.37756 0.38157 0.33043 0.0
H629 H 0.42829 0.39 0.47965 0.0
H630 H 0.42555 0.34785 0.46281 0.0
H631 H 0.46077 0.37522 0.45339 0.0
H632 H 0.43576 0.25408 0.40421 0.0
H633 H 0.51794 0.32128 0.3774 0.0
H634 H 0.36866 0.3146 0.39687 0.0
H635 H 0.38246 0.31409 0.43584 0.0
H636 H 0.3802 0.27446 0.41471 0.0
H637 H 0.46951 0.39492 0.36473 0.0
H638 H 0.51207 0.38053 0.37456 0.0
H639 H 0.48362 0.3969 0.4036 0.0
C640 C 0.07484 0.39496 0.43145 0.0
C641 C 0.06161 0.37605 0.40693 0.0
C642 C 0.10582 0.41323 0.42842 0.0
C643 C 0.12404 0.41213 0.40034 0.0
C644 C 0.11113 0.3923 0.37583 0.0
C645 C 0.07999 0.3747 0.37937 0.0
C646 C 0.11861 0.43439 0.45498 0.0
C647 C 0.12983 0.39022 0.34562 0.0
C648 C 0.18071 0.48814 0.38082 0.0
C649 C 0.2135 0.47627 0.389 0.0
C650 C 0.15158 0.46742 0.3842 0.0
C651 C 0.15519 0.43372 0.39576 0.0
C652 C 0.18833 0.42097 0.40287 0.0
C653 C 0.21714 0.44244 0.39948 0.0
C654 C 0.11676 0.48202 0.37624 0.0
C655 C 0.19322 0.38499 0.41484 0.0
H656 H 0.06072 0.39593 0.4528 0.0
H657 H 0.06998 0.35984 0.36041 0.0
H658 H 0.14535 0.42706 0.46077 0.0
H659 H 0.11892 0.46191 0.44849 0.0
H660 H 0.10236 0.4313 0.47568 0.0
H661 H 0.11764 0.37175 0.32962 0.0
H662 H 0.13023 0.41585 0.3346 0.0
H663 H 0.1569 0.3824 0.34934 0.0
H664 H 0.17753 0.51417 0.37257 0.0
H665 H 0.24231 0.43306 0.40595 0.0
H666 H 0.10017 0.48223 0.39687 0.0
H667 H 0.10395 0.46567 0.35891 0.0
H668 H 0.1184 0.50858 0.36713 0.0
H669 H 0.1802 0.38228 0.43728 0.0
H670 H 0.22076 0.3783 0.41772 0.0
H671 H 0.18125 0.36623 0.39903 0.0
C672 C 0.11924 0.07966 0.37789 0.0
C673 C 0.11929 0.06228 0.40599 0.0
C674 C 0.10125 0.11052 0.37416 0.0
C675 C 0.08247 0.12413 0.39904 0.0
C676 C 0.0827 0.10685 0.4276 0.0
C677 C 0.10132 0.07614 0.43079 0.0
C678 C 0.10183 0.12823 0.34342 0.0
C679 C 0.06266 0.12039 0.45456 0.0
C680 C 0.05181 0.21694 0.39711 0.0
C681 C 0.0175 0.21288 0.38807 0.0
C682 C 0.07356 0.18832 0.40034 0.0
C683 C 0.06059 0.15501 0.39449 0.0
C684 C 0.02635 0.15096 0.38439 0.0
C685 C 0.00534 0.17989 0.38116 0.0
C686 C 0.11011 0.19362 0.41078 0.0
C687 C 0.01151 0.11593 0.37781 0.0
H688 H 0.13338 0.06914 0.35871 0.0
H689 H 0.10146 0.06278 0.45255 0.0
H690 H 0.07565 0.12836 0.33342 0.0
H691 H 0.10985 0.15535 0.34612 0.0
H692 H 0.11951 0.11551 0.32702 0.0
H693 H 0.06666 0.10476 0.47553 0.0
H694 H 0.07024 0.14725 0.45946 0.0
H695 H 0.03485 0.12056 0.44904 0.0
H696 H 0.06139 0.24229 0.40257 0.0
H697 H 0.97893 0.17643 0.37399 0.0
H698 H 0.12815 0.1813 0.39452 0.0
H699 H 0.11397 0.18123 0.43338 0.0
H700 H 0.11681 0.22122 0.41278 0.0
H701 H 0.02712 0.10267 0.36021 0.0
H702 H 0.98452 0.11726 0.36967 0.0
H703 H 0.01232 0.09997 0.39883 0.0
C704 C 0.91804 0.8951 0.09927 0.0
C705 C 0.93173 0.87469 0.12264 0.0
C706 C 0.8877 0.91399 0.10398 0.0
C707 C 0.87052 0.9119 0.13255 0.0
C708 C 0.88384 0.89052 0.15586 0.0
C709 C 0.9144 0.87242 0.1507 0.0
C710 C 0.87449 0.93686 0.0787 0.0
C711 C 0.86616 0.88725 0.18647 0.0
C712 C 0.81616 0.9885 0.15512 0.0
C713 C 0.78309 0.97808 0.14634 0.0
C714 C 0.84463 0.96694 0.15131 0.0
C715 C 0.83999 0.93383 0.1388 0.0
C716 C 0.80645 0.92226 0.13167 0.0
C717 C 0.77835 0.94456 0.13545 0.0
C718 C 0.87991 0.98028 0.15934 0.0
C719 C 0.80042 0.88687 0.1188 0.0
H720 H 0.93137 0.89681 0.07756 0.0
H721 H 0.92477 0.85639 0.16876 0.0
H722 H 0.84748 0.93027 0.07323 0.0
H723 H 0.87478 0.96398 0.08638 0.0
H724 H 0.89007 0.93471 0.05751 0.0
H725 H 0.87849 0.8677 0.20136 0.0
H726 H 0.86671 0.91227 0.19852 0.0
H727 H 0.83881 0.88024 0.18322 0.0
H728 H 0.82017 0.01425 0.16374 0.0
H729 H 0.75298 0.93626 0.1285 0.0
H730 H 0.89589 0.98173 0.13837 0.0
H731 H 0.89293 0.96247 0.17538 0.0
H732 H 0.87899 0.00613 0.16996 0.0
H733 H 0.81197 0.88509 0.09565 0.0
H734 H 0.77267 0.88064 0.11704 0.0
H735 H 0.81311 0.86726 0.13332 0.0
C736 C 0.50994 0.81658 0.15268 0.0
C737 C 0.52271 0.78446 0.14361 0.0
C738 C 0.53006 0.84624 0.15064 0.0
C739 C 0.56412 0.84385 0.13968 0.0
C740 C 0.5779 0.8113 0.13205 0.0
C741 C 0.55696 0.78193 0.13399 0.0
C742 C 0.51428 0.88039 0.15897 0.0
C743 C 0.61433 0.80769 0.12077 0.0
C744 C 0.60034 0.92484 0.10339 0.0
C745 C 0.61893 0.93898 0.12772 0.0
C746 C 0.58288 0.89353 0.1068 0.0
C747 C 0.58452 0.87577 0.13509 0.0
C748 C 0.60378 0.88973 0.15954 0.0
C749 C 0.62053 0.92131 0.15563 0.0
C750 C 0.56217 0.87977 0.08032 0.0
C751 C 0.60644 0.87147 0.18993 0.0
H752 H 0.48359 0.81888 0.16039 0.0
H753 H 0.56706 0.75728 0.12693 0.0
H754 H 0.53035 0.89368 0.17623 0.0
H755 H 0.51321 0.89709 0.13842 0.0
H756 H 0.48788 0.87769 0.16826 0.0
H757 H 0.62216 0.78043 0.11842 0.0
H758 H 0.61691 0.82036 0.09815 0.0
H759 H 0.63232 0.82068 0.13666 0.0
H760 H 0.5992 0.93841 0.08175 0.0
H761 H 0.63519 0.93203 0.17442 0.0
H762 H 0.53471 0.87802 0.08691 0.0
H763 H 0.57085 0.85349 0.07446 0.0
H764 H 0.56428 0.89617 0.05961 0.0
H765 H 0.58072 0.86987 0.20073 0.0
H766 H 0.62414 0.88468 0.20599 0.0
H767 H 0.61562 0.84481 0.18648 0.0
C768 C 0.58118 0.60193 0.09777 0.0
C769 C 0.56708 0.62093 0.12183 0.0
C770 C 0.61129 0.58258 0.10213 0.0
C771 C 0.62773 0.58269 0.1311 0.0
C772 C 0.61399 0.60263 0.15517 0.0
C773 C 0.58373 0.62132 0.15028 0.0
C774 C 0.62506 0.56137 0.07599 0.0
C775 C 0.63084 0.60366 0.18628 0.0
C776 C 0.68098 0.50417 0.15021 0.0
C777 C 0.71429 0.51503 0.14272 0.0
C778 C 0.65277 0.52623 0.14726 0.0
C779 C 0.65794 0.56018 0.13682 0.0
C780 C 0.6917 0.57203 0.13105 0.0
C781 C 0.71954 0.54928 0.13405 0.0
C782 C 0.61723 0.51262 0.1539 0.0
C783 C 0.69825 0.60824 0.12032 0.0
H784 H 0.56837 0.60169 0.07575 0.0
H785 H 0.57303 0.63624 0.1689 0.0
H786 H 0.65227 0.56808 0.0715 0.0
H787 H 0.62433 0.53378 0.0822 0.0
H788 H 0.61011 0.56511 0.05459 0.0
H789 H 0.61822 0.62223 0.20191 0.0
H790 H 0.62984 0.57786 0.19694 0.0
H791 H 0.65831 0.61071 0.18401 0.0
H792 H 0.67664 0.47782 0.15713 0.0
H793 H 0.74513 0.5579 0.12809 0.0
H794 H 0.60178 0.5126 0.13257 0.0
H795 H 0.60389 0.52947 0.17053 0.0
H796 H 0.61776 0.48613 0.16325 0.0
H797 H 0.68735 0.61174 0.09707 0.0
H798 H 0.72607 0.61441 0.11952 0.0
H799 H 0.68526 0.62686 0.1356 0.0
C800 C 0.98768 0.67909 0.15146 0.0
C801 C 0.97523 0.7113 0.14229 0.0
C802 C 0.9672 0.64967 0.14967 0.0
C803 C 0.93313 0.65243 0.13878 0.0
C804 C 0.91963 0.68513 0.1312 0.0
C805 C 0.94091 0.71426 0.13296 0.0
C806 C 0.98268 0.61536 0.15798 0.0
C807 C 0.88321 0.68912 0.11999 0.0
C808 C 0.8972 0.57205 0.10151 0.0
C809 C 0.87851 0.55749 0.12558 0.0
C810 C 0.91452 0.60335 0.10532 0.0
C811 C 0.91264 0.62068 0.13376 0.0
C812 C 0.89323 0.60634 0.15797 0.0
C813 C 0.87661 0.57476 0.15365 0.0
C814 C 0.93539 0.61753 0.07909 0.0
C815 C 0.89033 0.62417 0.1885 0.0
H816 H 0.01407 0.67653 0.15902 0.0
H817 H 0.93107 0.73902 0.12584 0.0
H818 H 0.96633 0.60198 0.17498 0.0
H819 H 0.98394 0.59887 0.13733 0.0
H820 H 0.00898 0.61784 0.16756 0.0
H821 H 0.87548 0.71647 0.11812 0.0
H822 H 0.88061 0.67704 0.09714 0.0
H823 H 0.86516 0.6758 0.13562 0.0
H824 H 0.89856 0.5588 0.07975 0.0
H825 H 0.86185 0.56371 0.17223 0.0
H826 H 0.96281 0.6191 0.08582 0.0
H827 H 0.92679 0.64393 0.07351 0.0
H828 H 0.93334 0.6015 0.05818 0.0
H829 H 0.91594 0.6255 0.19954 0.0
H830 H 0.87241 0.61079 0.20427 0.0
H831 H 0.8813 0.65091 0.18525 0.0
C832 C 0.71721 0.94602 0.63293 0.0
C833 C 0.7122 0.98012 0.64213 0.0
C834 C 0.68914 0.92373 0.62895 0.0
C835 C 0.65537 0.93588 0.63426 0.0
C836 C 0.65034 0.96988 0.6446 0.0
C837 C 0.67875 0.99147 0.6485 0.0
C838 C 0.69553 0.88751 0.61824 0.0
C839 C 0.6148 0.98382 0.65072 0.0
C840 C 0.57791 0.89392 0.5965 0.0
C841 C 0.564 0.87537 0.62097 0.0
C842 C 0.60825 0.91306 0.60024 0.0
C843 C 0.62507 0.91333 0.62904 0.0
C844 C 0.61151 0.89384 0.65352 0.0
C845 C 0.58109 0.87526 0.64922 0.0
C846 C 0.62182 0.93372 0.57365 0.0
C847 C 0.62869 0.89327 0.68451 0.0
H848 H 0.74291 0.93704 0.62783 0.0
H849 H 0.67455 0.01772 0.65575 0.0
H850 H 0.68327 0.86897 0.6341 0.0
H851 H 0.68371 0.88371 0.59539 0.0
H852 H 0.72334 0.88146 0.61664 0.0
H853 H 0.61533 0.01066 0.65919 0.0
H854 H 0.59931 0.98299 0.62943 0.0
H855 H 0.6015 0.96765 0.66792 0.0
H856 H 0.56478 0.89395 0.57463 0.0
H857 H 0.57054 0.86074 0.66817 0.0
H858 H 0.64904 0.92703 0.56921 0.0
H859 H 0.62096 0.96143 0.57933 0.0
H860 H 0.60679 0.92944 0.55239 0.0
H861 H 0.65613 0.88613 0.68213 0.0
H862 H 0.6162 0.87499 0.70051 0.0
H863 H 0.62781 0.91925 0.6948 0.0
C864 C 0.61582 0.5764 0.65159 0.0
C865 C 0.61753 0.56024 0.62299 0.0
C866 C 0.59732 0.60695 0.65552 0.0
C867 C 0.57976 0.62148 0.6303 0.0
C868 C 0.58141 0.60525 0.60132 0.0
C869 C 0.60047 0.57486 0.59797 0.0
C870 C 0.59638 0.62355 0.68671 0.0
C871 C 0.56267 0.61976 0.57398 0.0
C872 C 0.50278 0.67838 0.64594 0.0
C873 C 0.51595 0.71127 0.64013 0.0
C874 C 0.52339 0.64909 0.64314 0.0
C875 C 0.55822 0.65266 0.63461 0.0
C876 C 0.57212 0.68582 0.62985 0.0
C877 C 0.55077 0.71478 0.63259 0.0
C878 C 0.50755 0.61422 0.64844 0.0
C879 C 0.60928 0.69062 0.6211 0.0
H880 H 0.62921 0.56528 0.67095 0.0
H881 H 0.60187 0.56244 0.57583 0.0
H882 H 0.60525 0.65053 0.68512 0.0
H883 H 0.56962 0.62408 0.69538 0.0
H884 H 0.61267 0.60982 0.70362 0.0
H885 H 0.56715 0.60449 0.55291 0.0
H886 H 0.53467 0.62043 0.57863 0.0
H887 H 0.57101 0.64654 0.56974 0.0
H888 H 0.47595 0.67529 0.65188 0.0
H889 H 0.56118 0.74004 0.62803 0.0
H890 H 0.52207 0.60015 0.66632 0.0
H891 H 0.50901 0.59883 0.62715 0.0
H892 H 0.48025 0.61591 0.65561 0.0
H893 H 0.62619 0.67764 0.63795 0.0
H894 H 0.6166 0.71812 0.6198 0.0
H895 H 0.61415 0.67861 0.59852 0.0
C896 C 0.91835 0.62768 0.65188 0.0
C897 C 0.93701 0.62489 0.62456 0.0
C898 C 0.88666 0.61108 0.65552 0.0
C899 C 0.87361 0.59064 0.63146 0.0
C900 C 0.89216 0.5881 0.60363 0.0
C901 C 0.92357 0.60553 0.60042 0.0
C902 C 0.86753 0.6148 0.68538 0.0
C903 C 0.87936 0.56612 0.57761 0.0
C904 C 0.81736 0.51465 0.65122 0.0
C905 C 0.78486 0.5255 0.64122 0.0
C906 C 0.84614 0.53592 0.6488 0.0
C907 C 0.84243 0.56924 0.63646 0.0
C908 C 0.80935 0.58124 0.62804 0.0
C909 C 0.78086 0.55913 0.63044 0.0
C910 C 0.88085 0.52205 0.65812 0.0
C911 C 0.80433 0.61686 0.61532 0.0
H912 H 0.92849 0.64301 0.67048 0.0
H913 H 0.93788 0.60352 0.57923 0.0
H914 H 0.84051 0.62237 0.68103 0.0
H915 H 0.86699 0.5898 0.6975 0.0
H916 H 0.87952 0.63412 0.70068 0.0
H917 H 0.89585 0.56824 0.55696 0.0
H918 H 0.87866 0.53887 0.58491 0.0
H919 H 0.85278 0.57356 0.57137 0.0
H920 H 0.82065 0.4888 0.6599 0.0
H921 H 0.75588 0.56765 0.62258 0.0
H922 H 0.87915 0.49598 0.66829 0.0
H923 H 0.89313 0.53936 0.675 0.0
H924 H 0.89795 0.52086 0.63785 0.0
H925 H 0.81684 0.63609 0.63034 0.0
H926 H 0.77674 0.62355 0.61287 0.0
H927 H 0.81668 0.61872 0.59252 0.0
C928 C 0.89423 0.92376 0.60103 0.0
C929 C 0.87578 0.93754 0.62559 0.0
C930 C 0.91235 0.89279 0.60429 0.0
C931 C 0.91157 0.87513 0.63266 0.0
C932 C 0.89207 0.88851 0.6572 0.0
C933 C 0.87461 0.91967 0.65342 0.0
C934 C 0.93317 0.8795 0.57769 0.0
C935 C 0.89035 0.87035 0.68769 0.0
C936 C 0.94382 0.78285 0.63346 0.0
C937 C 0.97797 0.78746 0.64273 0.0
C938 C 0.92144 0.81106 0.6308 0.0
C939 C 0.93365 0.84446 0.63754 0.0
C940 C 0.9676 0.84892 0.64827 0.0
C941 C 0.98922 0.8204 0.65086 0.0
C942 C 0.88522 0.80533 0.61969 0.0
C943 C 0.98161 0.88403 0.65586 0.0
H944 H 0.89498 0.93748 0.57946 0.0
H945 H 0.86003 0.9301 0.67238 0.0
H946 H 0.96083 0.87956 0.58378 0.0
H947 H 0.92595 0.8526 0.57256 0.0
H948 H 0.92958 0.89518 0.55671 0.0
H949 H 0.87173 0.88258 0.70355 0.0
H950 H 0.88292 0.84313 0.68444 0.0
H951 H 0.91605 0.87051 0.69864 0.0
H952 H 0.93498 0.75751 0.62704 0.0
H953 H 0.0155 0.82417 0.65832 0.0
H954 H 0.88196 0.81721 0.5968 0.0
H955 H 0.86661 0.81785 0.63532 0.0
H956 H 0.87878 0.77764 0.61798 0.0
H957 H 0.98146 0.90034 0.63505 0.0
H958 H 0.00825 0.88293 0.66488 0.0
H959 H 0.96509 0.89676 0.67311 0.0
C960 C 0.07531 0.11303 0.87114 0.0
C961 C 0.05982 0.11387 0.90007 0.0
C962 C 0.10589 0.09474 0.86629 0.0
C963 C 0.12102 0.07657 0.89089 0.0
C964 C 0.10526 0.07713 0.9201 0.0
C965 C 0.07491 0.09596 0.92437 0.0
C966 C 0.12205 0.09494 0.8349 0.0
C967 C 0.12035 0.05769 0.94681 0.0
C968 C 0.17971 0.001 0.87548 0.0
C969 C 0.21214 0.01459 0.88256 0.0
C970 C 0.15 0.02117 0.87726 0.0
C971 C 0.15271 0.05597 0.88599 0.0
C972 C 0.18549 0.07038 0.89164 0.0
C973 C 0.21486 0.04948 0.88996 0.0
C974 C 0.11554 0.00477 0.87114 0.0
C975 C 0.18941 0.10755 0.9006 0.0
H976 H 0.06377 0.12708 0.85235 0.0
H977 H 0.06298 0.09665 0.94676 0.0
H978 H 0.14875 0.10473 0.83634 0.0
H979 H 0.12344 0.06842 0.82583 0.0
H980 H 0.10751 0.11104 0.8184 0.0
H981 H 0.105 0.06084 0.96804 0.0
H982 H 0.12185 0.02997 0.94127 0.0
H983 H 0.1469 0.06665 0.95131 0.0
H984 H 0.17725 0.97412 0.8696 0.0
H985 H 0.23977 0.06025 0.89537 0.0
H986 H 0.10108 0.01981 0.85387 0.0
H987 H 0.10007 0.00467 0.89245 0.0
H988 H 0.118 0.97796 0.86286 0.0
H989 H 0.17567 0.12428 0.8841 0.0
H990 H 0.21675 0.11557 0.9016 0.0
H991 H 0.17767 0.11179 0.92341 0.0
C992 C 0.37382 0.08181 0.87943 0.0
C993 C 0.3744 0.06452 0.90758 0.0
C994 C 0.39289 0.11184 0.87483 0.0
C995 C 0.41335 0.12481 0.89891 0.0
C996 C 0.41353 0.10784 0.92764 0.0
C997 C 0.39388 0.07788 0.93169 0.0
C998 C 0.39178 0.12921 0.84394 0.0
C999 C 0.43519 0.12083 0.95382 0.0
C1000 C 0.49165 0.17782 0.87808 0.0
C1001 C 0.48081 0.21126 0.88503 0.0
C1002 C 0.46982 0.14961 0.8822 0.0
C1003 C 0.43613 0.15486 0.89335 0.0
C1004 C 0.42443 0.18863 0.89913 0.0
C1005 C 0.44692 0.21646 0.89492 0.0
C1006 C 0.48323 0.11404 0.87552 0.0
C1007 C 0.38853 0.19527 0.91068 0.0
H1008 H 0.35859 0.07167 0.86075 0.0
H1009 H 0.39431 0.06457 0.95347 0.0
H1010 H 0.38507 0.1567 0.84659 0.0
H1011 H 0.4175 0.12805 0.8331 0.0
H1012 H 0.37289 0.11711 0.82826 0.0
H1013 H 0.43128 0.10571 0.97508 0.0
H1014 H 0.46274 0.11961 0.94747 0.0
H1015 H 0.42904 0.14809 0.95858 0.0
H1016 H 0.51773 0.17343 0.87035 0.0
H1017 H 0.43828 0.24212 0.90048 0.0
H1018 H 0.46636 0.10101 0.85871 0.0
H1019 H 0.48297 0.09843 0.89676 0.0
H1020 H 0.50982 0.11439 0.86634 0.0
H1021 H 0.36942 0.18326 0.89522 0.0
H1022 H 0.38275 0.22309 0.91251 0.0
H1023 H 0.38527 0.18339 0.93357 0.0
C1024 C 0.42617 0.39505 0.92638 0.0
C1025 C 0.43964 0.37657 0.9017 0.0
C1026 C 0.39524 0.41336 0.92345 0.0
C1027 C 0.37731 0.4129 0.89521 0.0
C1028 C 0.39061 0.39379 0.87038 0.0
C1029 C 0.42169 0.37598 0.87389 0.0
C1030 C 0.38206 0.43369 0.95038 0.0
C1031 C 0.37224 0.39255 0.83997 0.0
C1032 C 0.28406 0.44274 0.89619 0.0
C1033 C 0.2875 0.47713 0.8873 0.0
C1034 C 0.31296 0.42113 0.89813 0.0
C1035 C 0.34595 0.43431 0.89108 0.0
C1036 C 0.34928 0.46858 0.88092 0.0
C1037 C 0.32008 0.48946 0.87905 0.0
C1038 C 0.30838 0.38458 0.90872 0.0
C1039 C 0.38391 0.48367 0.87307 0.0
H1040 H 0.43993 0.39541 0.94794 0.0
H1041 H 0.43192 0.36149 0.85481 0.0
H1042 H 0.3813 0.46135 0.94443 0.0
H1043 H 0.35544 0.42578 0.95597 0.0
H1044 H 0.39831 0.43035 0.97106 0.0
H1045 H 0.38493 0.37494 0.82352 0.0
H1046 H 0.3453 0.38411 0.84325 0.0
H1047 H 0.37142 0.41858 0.82974 0.0
H1048 H 0.25903 0.43301 0.90265 0.0
H1049 H 0.32304 0.51592 0.87192 0.0
H1050 H 0.3212 0.38102 0.93117 0.0
H1051 H 0.32071 0.36666 0.89237 0.0
H1052 H 0.28089 0.3775 0.91114 0.0
H1053 H 0.40055 0.48366 0.89367 0.0
H1054 H 0.38193 0.51037 0.86438 0.0
H1055 H 0.39685 0.46778 0.85548 0.0
C1056 C 0.10462 0.41836 0.92892 0.0
C1057 C 0.12491 0.43209 0.9055 0.0
C1058 C 0.08641 0.38758 0.92451 0.0
C1059 C 0.08903 0.37001 0.89618 0.0
C1060 C 0.11034 0.38335 0.87285 0.0
C1061 C 0.12779 0.41433 0.87771 0.0
C1062 C 0.06362 0.37435 0.94983 0.0
C1063 C 0.11414 0.3653 0.84248 0.0
C1064 C 0.05699 0.27766 0.89474 0.0
C1065 C 0.0233 0.28211 0.88411 0.0
C1066 C 0.07926 0.30588 0.8978 0.0
C1067 C 0.06746 0.3392 0.89013 0.0
C1068 C 0.03424 0.3434 0.87759 0.0
C1069 C 0.0127 0.31483 0.87459 0.0
C1070 C 0.11475 0.30031 0.91075 0.0
C1071 C 0.02065 0.37838 0.8689 0.0
H1072 H 0.10246 0.432 0.95043 0.0
H1073 H 0.14374 0.4247 0.85962 0.0
H1074 H 0.03649 0.37423 0.94206 0.0
H1075 H 0.07057 0.34751 0.95556 0.0
H1076 H 0.0655 0.39015 0.9709 0.0
H1077 H 0.13375 0.3776 0.82765 0.0
H1078 H 0.12141 0.33809 0.84612 0.0
H1079 H 0.08922 0.36545 0.83019 0.0
H1080 H 0.06532 0.25253 0.90235 0.0
H1081 H 0.98678 0.31849 0.86616 0.0
H1082 H 0.11627 0.31176 0.93393 0.0
H1083 H 0.13426 0.31331 0.89634 0.0
H1084 H 0.12136 0.27266 0.91245 0.0
H1085 H 0.01875 0.39466 0.88964 0.0
H1086 H 0.99492 0.37703 0.85801 0.0
H1087 H 0.03855 0.39128 0.85288 0.0
C1088 C 0.6879 0.28295 0.36289 0.0
C1089 C 0.66249 0.26447 0.34772 0.0
C1090 C 0.72229 0.27881 0.35471 0.0
C1091 C 0.73091 0.25432 0.332 0.0
C1092 C 0.70501 0.23873 0.31426 0.0
C1093 C 0.67075 0.24465 0.322 0.0
C1094 C 0.74944 0.2974 0.37296 0.0
C1095 C 0.71316 0.21225 0.29017 0.0
C1096 C 0.82589 0.25029 0.32125 0.0
C1097 C 0.8346 0.23148 0.34749 0.0
C1098 C 0.7915 0.25552 0.31356 0.0
C1099 C 0.76594 0.24025 0.33191 0.0
C1100 C 0.77505 0.21654 0.35516 0.0
C1101 C 0.80955 0.2131 0.36326 0.0
C1102 C 0.78285 0.28116 0.28884 0.0
C1103 C 0.74826 0.19823 0.37407 0.0
H1104 H 0.68117 0.29852 0.38255 0.0
H1105 H 0.65083 0.23038 0.31022 0.0
H1106 H 0.76046 0.27972 0.39029 0.0
H1107 H 0.77064 0.30611 0.35789 0.0
H1108 H 0.73869 0.31999 0.38512 0.0
H1109 H 0.69179 0.20956 0.27349 0.0
H1110 H 0.73705 0.21855 0.2776 0.0
H1111 H 0.71707 0.18707 0.30149 0.0
H1112 H 0.84552 0.26443 0.30897 0.0
H1113 H 0.81663 0.19824 0.38329 0.0
H1114 H 0.77937 0.30674 0.29948 0.0
H1115 H 0.75864 0.27455 0.27691 0.0
H1116 H 0.80383 0.28311 0.27171 0.0
H1117 H 0.73741 0.21625 0.39117 0.0
H1118 H 0.75933 0.17598 0.38655 0.0
H1119 H 0.72689 0.18907 0.35941 0.0
C1120 C 0.21614 0.68736 0.37223 0.0
C1121 C 0.23435 0.6632 0.35523 0.0
C1122 C 0.22176 0.72232 0.36747 0.0
C1123 C 0.24729 0.73262 0.3463 0.0
C1124 C 0.26333 0.70836 0.32715 0.0
C1125 C 0.25592 0.67369 0.33135 0.0
C1126 C 0.20291 0.74793 0.38721 0.0
C1127 C 0.29127 0.71851 0.30501 0.0
C1128 C 0.25342 0.82748 0.33401 0.0
C1129 C 0.27273 0.83673 0.35973 0.0
C1130 C 0.24607 0.79314 0.3282 0.0
C1131 C 0.26036 0.76788 0.34747 0.0
C1132 C 0.28391 0.77703 0.37081 0.0
C1133 C 0.28909 0.81172 0.37727 0.0
C1134 C 0.21953 0.78454 0.30427 0.0
C1135 C 0.30089 0.7504 0.39088 0.0
H1136 H 0.19947 0.67894 0.39063 0.0
H1137 H 0.2702 0.65476 0.31836 0.0
H1138 H 0.19493 0.77056 0.37354 0.0
H1139 H 0.1798 0.73647 0.39804 0.0
H1140 H 0.22019 0.7571 0.40565 0.0
H1141 H 0.2979 0.69723 0.28928 0.0
H1142 H 0.2836 0.74118 0.2913 0.0
H1143 H 0.31467 0.72564 0.31804 0.0
H1144 H 0.24041 0.84707 0.3207 0.0
H1145 H 0.30391 0.81922 0.39719 0.0
H1146 H 0.19462 0.77943 0.3157 0.0
H1147 H 0.22662 0.76111 0.2914 0.0
H1148 H 0.21579 0.80607 0.28797 0.0
H1149 H 0.28193 0.74022 0.40751 0.0
H1150 H 0.32282 0.76126 0.40392 0.0
H1151 H 0.31025 0.72853 0.37694 0.0
C1152 C 0.32516 0.74132 0.19662 0.0
C1153 C 0.33634 0.76279 0.17293 0.0
C1154 C 0.29027 0.73462 0.20044 0.0
C1155 C 0.26651 0.75161 0.18138 0.0
C1156 C 0.2776 0.77698 0.16037 0.0
C1157 C 0.31275 0.7817 0.15583 0.0
C1158 C 0.27921 0.70668 0.22226 0.0
C1159 C 0.25257 0.7966 0.14058 0.0
C1160 C 0.18611 0.71175 0.15079 0.0
C1161 C 0.16157 0.72871 0.16837 0.0
C1162 C 0.22098 0.71633 0.15696 0.0
C1163 C 0.23083 0.73973 0.18016 0.0
C1164 C 0.20602 0.75476 0.1994 0.0
C1165 C 0.17144 0.74816 0.1938 0.0
C1166 C 0.24712 0.69869 0.13686 0.0
C1167 C 0.21543 0.78112 0.22321 0.0
H1168 H 0.34368 0.72661 0.20973 0.0
H1169 H 0.32175 0.79828 0.13758 0.0
H1170 H 0.26053 0.71694 0.23905 0.0
H1171 H 0.26609 0.68591 0.20944 0.0
H1172 H 0.30127 0.69529 0.23475 0.0
H1173 H 0.26478 0.81926 0.12965 0.0
H1174 H 0.24275 0.7796 0.12221 0.0
H1175 H 0.23023 0.80536 0.15424 0.0
H1176 H 0.17812 0.6968 0.13112 0.0
H1177 H 0.15221 0.76161 0.20714 0.0
H1178 H 0.26871 0.68859 0.15078 0.0
H1179 H 0.2579 0.71742 0.12033 0.0
H1180 H 0.2356 0.6772 0.12371 0.0
H1181 H 0.23876 0.77344 0.23602 0.0
H1182 H 0.19407 0.78547 0.23956 0.0
H1183 H 0.22114 0.80583 0.21168 0.0
C1184 C 0.74267 0.31995 0.07195 0.0
C1185 C 0.72312 0.32679 0.0982 0.0
C1186 C 0.7543 0.28684 0.06585 0.0
C1187 C 0.74556 0.26036 0.08633 0.0
C1188 C 0.72162 0.26638 0.11023 0.0
C1189 C 0.7111 0.29993 0.11623 0.0
C1190 C 0.77956 0.28149 0.04017 0.0
C1191 C 0.71025 0.23833 0.13182 0.0
C1192 C 0.76312 0.16717 0.07905 0.0
C1193 C 0.78284 0.16254 0.10553 0.0
C1194 C 0.7538 0.19989 0.06946 0.0
C1195 C 0.76531 0.22824 0.08661 0.0
C1196 C 0.79038 0.22374 0.10982 0.0
C1197 C 0.79798 0.19055 0.1199 0.0
C1198 C 0.72941 0.203 0.04278 0.0
C1199 C 0.80597 0.25388 0.12639 0.0
H1200 H 0.75241 0.34097 0.05817 0.0
H1201 H 0.69611 0.30546 0.13655 0.0
H1202 H 0.80592 0.28347 0.04959 0.0
H1203 H 0.7769 0.2558 0.02966 0.0
H1204 H 0.77639 0.30123 0.02205 0.0
H1205 H 0.68453 0.24402 0.14156 0.0
H1206 H 0.70929 0.21303 0.12032 0.0
H1207 H 0.72873 0.23654 0.15109 0.0
H1208 H 0.75174 0.1452 0.06767 0.0
H1209 H 0.81343 0.1867 0.14026 0.0
H1210 H 0.74305 0.19546 0.02165 0.0
H1211 H 0.71904 0.22918 0.03953 0.0
H1212 H 0.70789 0.18462 0.0453 0.0
H1213 H 0.81074 0.27546 0.11034 0.0
H1214 H 0.83053 0.24675 0.13765 0.0
H1215 H 0.78796 0.26295 0.14431 0.0
C1216 C 0.18756 0.79991 0.64235 0.0
C1217 C 0.16183 0.79103 0.66309 0.0
C1218 C 0.22176 0.80108 0.65195 0.0
C1219 C 0.2298 0.7913 0.68237 0.0
C1220 C 0.20339 0.78823 0.70432 0.0
C1221 C 0.16933 0.78892 0.69438 0.0
C1222 C 0.2494 0.80782 0.62848 0.0
C1223 C 0.21016 0.77984 0.73745 0.0
C1224 C 0.30347 0.73104 0.67205 0.0
C1225 C 0.33065 0.75198 0.68083 0.0
C1226 C 0.26967 0.74197 0.67652 0.0
C1227 C 0.26358 0.77547 0.68802 0.0
C1228 C 0.29094 0.79519 0.69965 0.0
C1229 C 0.32438 0.78275 0.69649 0.0
C1230 C 0.24072 0.71908 0.66601 0.0
C1231 C 0.28542 0.83084 0.71213 0.0
H1232 H 0.18144 0.80276 0.61827 0.0
H1233 H 0.14908 0.7833 0.71066 0.0
H1234 H 0.25868 0.78305 0.61911 0.0
H1235 H 0.23948 0.82346 0.60914 0.0
H1236 H 0.2716 0.82127 0.63893 0.0
H1237 H 0.19888 0.8002 0.75209 0.0
H1238 H 0.19686 0.75557 0.74337 0.0
H1239 H 0.23777 0.77737 0.74311 0.0
H1240 H 0.30862 0.70725 0.66007 0.0
H1241 H 0.34571 0.79899 0.70312 0.0
H1242 H 0.23155 0.72772 0.64323 0.0
H1243 H 0.21879 0.7204 0.68218 0.0
H1244 H 0.24909 0.69194 0.66396 0.0
H1245 H 0.28008 0.84865 0.69289 0.0
H1246 H 0.30834 0.84031 0.72467 0.0
H1247 H 0.26298 0.83156 0.72772 0.0
C1248 C 0.78025 0.17623 0.68073 0.0
C1249 C 0.747 0.17087 0.6694 0.0
C1250 C 0.79455 0.20897 0.68109 0.0
C1251 C 0.77418 0.2369 0.6717 0.0
C1252 C 0.73945 0.23188 0.66282 0.0
C1253 C 0.7265 0.19851 0.66094 0.0
C1254 C 0.83198 0.21322 0.68925 0.0
C1255 C 0.71681 0.26144 0.65316 0.0
C1256 C 0.78927 0.32979 0.68531 0.0
C1257 C 0.79243 0.34046 0.65485 0.0
C1258 C 0.78712 0.29492 0.69222 0.0
C1259 C 0.7896 0.27102 0.66811 0.0
C1260 C 0.79981 0.28174 0.63853 0.0
C1261 C 0.80069 0.31678 0.63207 0.0
C1262 C 0.77677 0.28433 0.72413 0.0
C1263 C 0.80495 0.25654 0.61273 0.0
H1264 H 0.79629 0.15439 0.68653 0.0
H1265 H 0.70111 0.19391 0.65161 0.0
H1266 H 0.84539 0.22918 0.67196 0.0
H1267 H 0.83422 0.22657 0.71152 0.0
H1268 H 0.84544 0.18818 0.69084 0.0
H1269 H 0.71834 0.28258 0.67008 0.0
H1270 H 0.72574 0.27163 0.63083 0.0
H1271 H 0.68952 0.25361 0.65072 0.0
H1272 H 0.7837 0.34839 0.70306 0.0
H1273 H 0.80408 0.32535 0.60864 0.0
H1274 H 0.78908 0.25984 0.73086 0.0
H1275 H 0.74855 0.28045 0.72478 0.0
H1276 H 0.7835 0.30428 0.74124 0.0
H1277 H 0.81821 0.23304 0.62084 0.0
H1278 H 0.8201 0.26802 0.59378 0.0
H1279 H 0.77956 0.24881 0.60349 0.0
C1280 C 0.81177 0.2987 0.91688 0.0
C1281 C 0.83632 0.27873 0.93175 0.0
C1282 C 0.77706 0.28974 0.91877 0.0
C1283 C 0.76795 0.25872 0.93363 0.0
C1284 C 0.79223 0.24112 0.95166 0.0
C1285 C 0.82611 0.25233 0.95147 0.0
C1286 C 0.75087 0.31103 0.90184 0.0
C1287 C 0.78441 0.20783 0.9677 0.0
C1288 C 0.67473 0.23488 0.93176 0.0
C1289 C 0.67206 0.2228 0.90165 0.0
C1290 C 0.70637 0.24514 0.94348 0.0
C1291 C 0.73575 0.24164 0.92498 0.0
C1292 C 0.73372 0.2247 0.89634 0.0
C1293 C 0.70145 0.2164 0.88447 0.0
C1294 C 0.70768 0.26325 0.97392 0.0
C1295 C 0.76522 0.21809 0.8771 0.0
H1296 H 0.81986 0.31937 0.90192 0.0
H1297 H 0.84529 0.23705 0.96328 0.0
H1298 H 0.74549 0.29914 0.87929 0.0
H1299 H 0.72638 0.3122 0.9148 0.0
H1300 H 0.76026 0.33756 0.89788 0.0
H1301 H 0.79494 0.2088 0.99124 0.0
H1302 H 0.75667 0.20183 0.96885 0.0
H1303 H 0.79752 0.18656 0.95553 0.0
H1304 H 0.65167 0.24045 0.94472 0.0
H1305 H 0.69904 0.20733 0.86113 0.0
H1306 H 0.72978 0.25427 0.98772 0.0
H1307 H 0.68374 0.25949 0.98732 0.0
H1308 H 0.71137 0.29107 0.9698 0.0
H1309 H 0.7738 0.24242 0.86637 0.0
H1310 H 0.76005 0.19925 0.85862 0.0
H1311 H 0.78658 0.20833 0.89152 0.0
C1312 C 0.22269 0.80907 0.85416 0.0
C1313 C 0.24508 0.83241 0.84057 0.0
C1314 C 0.22548 0.77414 0.84752 0.0
C1315 C 0.25231 0.76283 0.82805 0.0
C1316 C 0.27165 0.78678 0.81109 0.0
C1317 C 0.26728 0.82165 0.81719 0.0
C1318 C 0.20274 0.74917 0.86445 0.0
C1319 C 0.30033 0.77597 0.78999 0.0
C1320 C 0.28717 0.68574 0.86795 0.0
C1321 C 0.27108 0.65978 0.85144 0.0
C1322 C 0.28509 0.71968 0.8579 0.0
C1323 C 0.26484 0.72744 0.83179 0.0
C1324 C 0.2515 0.70081 0.81348 0.0
C1325 C 0.25575 0.66696 0.82315 0.0
C1326 C 0.30125 0.74746 0.87719 0.0
C1327 C 0.22985 0.70801 0.78559 0.0
H1328 H 0.20496 0.81769 0.87167 0.0
H1329 H 0.28419 0.83998 0.80616 0.0
H1330 H 0.19514 0.72759 0.84938 0.0
H1331 H 0.21702 0.73835 0.88421 0.0
H1332 H 0.17918 0.76182 0.87328 0.0
H1333 H 0.30446 0.79531 0.7717 0.0
H1334 H 0.32445 0.77389 0.80339 0.0
H1335 H 0.29532 0.75075 0.77925 0.0
H1336 H 0.29934 0.67982 0.88965 0.0
H1337 H 0.24357 0.64653 0.81028 0.0
H1338 H 0.28115 0.7601 0.8912 0.0
H1339 H 0.31326 0.76733 0.86249 0.0
H1340 H 0.32107 0.73698 0.89292 0.0
H1341 H 0.20848 0.72562 0.79155 0.0
H1342 H 0.21878 0.6843 0.77555 0.0
H1343 H 0.24575 0.72064 0.76787 0.0
C1344 C 0.65875 0.15857 0.45861 0.0
C1345 C 0.63044 0.14037 0.44707 0.0
C1346 C 0.68283 0.14289 0.47805 0.0
C1347 C 0.67908 0.10783 0.48579 0.0
C1348 C 0.65127 0.08893 0.47336 0.0
C1349 C 0.62706 0.10552 0.45445 0.0
C1350 C 0.7116 0.16427 0.49121 0.0
C1351 C 0.64672 0.05135 0.48054 0.0
C1352 C 0.75794 0.06374 0.51996 0.0
C1353 C 0.75034 0.06436 0.55131 0.0
C1354 C 0.73463 0.07695 0.49827 0.0
C1355 C 0.70324 0.09164 0.50821 0.0
C1356 C 0.69553 0.09224 0.53989 0.0
C1357 C 0.71902 0.07842 0.56097 0.0
C1358 C 0.7437 0.07545 0.46473 0.0
C1359 C 0.66275 0.10818 0.55163 0.0
H1360 H 0.66151 0.1856 0.45334 0.0
H1361 H 0.60537 0.09122 0.44559 0.0
H1362 H 0.70921 0.16528 0.51649 0.0
H1363 H 0.73678 0.15239 0.48593 0.0
H1364 H 0.71154 0.19093 0.48222 0.0
H1365 H 0.62543 0.03966 0.46724 0.0
H1366 H 0.67077 0.03716 0.47553 0.0
H1367 H 0.64124 0.04803 0.50527 0.0
H1368 H 0.7821 0.05289 0.51237 0.0
H1369 H 0.71307 0.07912 0.58519 0.0
H1370 H 0.74625 0.10182 0.45546 0.0
H1371 H 0.72284 0.06266 0.45176 0.0
H1372 H 0.7681 0.06146 0.46058 0.0
H1373 H 0.66175 0.13565 0.54503 0.0
H1374 H 0.66041 0.10628 0.5769 0.0
H1375 H 0.64021 0.09545 0.54108 0.0
C1376 C 0.41248 0.72223 0.56099 0.0
C1377 C 0.43134 0.75044 0.5504 0.0
C1378 C 0.39838 0.69823 0.54055 0.0
C1379 C 0.40389 0.70205 0.50867 0.0
C1380 C 0.42334 0.73032 0.49787 0.0
C1381 C 0.43648 0.7544 0.51884 0.0
C1382 C 0.37715 0.66903 0.55308 0.0
C1383 C 0.43029 0.73508 0.46417 0.0
C1384 C 0.38962 0.62157 0.46046 0.0
C1385 C 0.35651 0.62718 0.44879 0.0
C1386 C 0.40584 0.6462 0.47912 0.0
C1387 C 0.38838 0.67696 0.48673 0.0
C1388 C 0.35527 0.68304 0.47448 0.0
C1389 C 0.33991 0.65828 0.45558 0.0
C1390 C 0.44143 0.639 0.49119 0.0
C1391 C 0.33547 0.71521 0.4822 0.0
H1392 H 0.40826 0.71918 0.58536 0.0
H1393 H 0.45113 0.77613 0.51055 0.0
H1394 H 0.35093 0.66993 0.54316 0.0
H1395 H 0.3887 0.64414 0.54639 0.0
H1396 H 0.37502 0.66985 0.57841 0.0
H1397 H 0.44705 0.75754 0.45955 0.0
H1398 H 0.44275 0.71178 0.45474 0.0
H1399 H 0.40576 0.73864 0.45167 0.0
H1400 H 0.40275 0.59777 0.45531 0.0
H1401 H 0.31429 0.66299 0.44684 0.0
H1402 H 0.44059 0.63634 0.51644 0.0
H1403 H 0.45876 0.66079 0.48589 0.0
H1404 H 0.45257 0.6152 0.48138 0.0
H1405 H 0.33028 0.71598 0.50715 0.0
H1406 H 0.31061 0.71676 0.4698 0.0
H1407 H 0.35086 0.73827 0.4765 0.0
C1408 C 0.87164 0.39376 0.4508 0.0
C1409 C 0.86764 0.3588 0.44411 0.0
C1410 C 0.84768 0.41125 0.46928 0.0
C1411 C 0.81944 0.39321 0.48197 0.0
C1412 C 0.81505 0.35805 0.4749 0.0
C1413 C 0.83892 0.34144 0.45588 0.0
C1414 C 0.85296 0.44889 0.47571 0.0
C1415 C 0.78583 0.33755 0.4884 0.0
C1416 C 0.78058 0.42612 0.55639 0.0
C1417 C 0.74941 0.44035 0.54651 0.0
C1418 C 0.80347 0.41075 0.53568 0.0
C1419 C 0.79559 0.41044 0.50403 0.0
C1420 C 0.7645 0.42556 0.49379 0.0
C1421 C 0.74158 0.43997 0.5152 0.0
C1422 C 0.83578 0.39419 0.54782 0.0
C1423 C 0.75536 0.42632 0.46025 0.0
H1424 H 0.89363 0.40744 0.44176 0.0
H1425 H 0.83566 0.31436 0.45113 0.0
H1426 H 0.82917 0.46342 0.47045 0.0
H1427 H 0.85856 0.45265 0.50037 0.0
H1428 H 0.87444 0.45987 0.46218 0.0
H1429 H 0.78531 0.31073 0.47985 0.0
H1430 H 0.78821 0.33696 0.51369 0.0
H1431 H 0.7609 0.34986 0.48292 0.0
H1432 H 0.78689 0.42646 0.58053 0.0
H1433 H 0.71757 0.45102 0.50742 0.0
H1434 H 0.8379 0.39621 0.57311 0.0
H1435 H 0.85867 0.40637 0.53737 0.0
H1436 H 0.83627 0.36665 0.54146 0.0
H1437 H 0.77646 0.43829 0.44696 0.0
H1438 H 0.73126 0.44072 0.4558 0.0
H1439 H 0.7522 0.39977 0.45161 0.0
C1440 C 0.07822 0.78122 0.55905 0.0
C1441 C 0.06225 0.75102 0.54906 0.0
C1442 C 0.09317 0.80425 0.53823 0.0
C1443 C 0.09143 0.79745 0.50643 0.0
C1444 C 0.07476 0.76725 0.49613 0.0
C1445 C 0.06069 0.74418 0.5176 0.0
C1446 C 0.11136 0.83562 0.55037 0.0
C1447 C 0.07191 0.75925 0.46246 0.0
C1448 C 0.10725 0.87482 0.45462 0.0
C1449 C 0.14183 0.87034 0.44654 0.0
C1450 C 0.0901 0.85062 0.47308 0.0
C1451 C 0.10807 0.82152 0.48421 0.0
C1452 C 0.14274 0.81652 0.47557 0.0
C1453 C 0.15905 0.84077 0.45673 0.0
C1454 C 0.05294 0.85659 0.48127 0.0
C1455 C 0.16312 0.78623 0.48722 0.0
H1456 H 0.07954 0.78664 0.58334 0.0
H1457 H 0.04832 0.72091 0.50976 0.0
H1458 H 0.13854 0.83553 0.54275 0.0
H1459 H 0.09926 0.85916 0.54104 0.0
H1460 H 0.11083 0.83695 0.57575 0.0
H1461 H 0.05675 0.73563 0.45809 0.0
H1462 H 0.05961 0.781 0.45027 0.0
H1463 H 0.09788 0.75587 0.45251 0.0
H1464 H 0.09365 0.89744 0.4468 0.0
H1465 H 0.18581 0.837 0.45081 0.0
H1466 H 0.05064 0.86144 0.50619 0.0
H1467 H 0.03752 0.8334 0.47606 0.0
H1468 H 0.04178 0.87877 0.46877 0.0
H1469 H 0.16553 0.78781 0.51248 0.0
H1470 H 0.1893 0.78509 0.47718 0.0
H1471 H 0.14961 0.76194 0.4819 0.0
C1472 C 0.21864 0.9131 0.96369 0.0
C1473 C 0.24752 0.93045 0.97498 0.0
C1474 C 0.19399 0.89897 0.98362 0.0
C1475 C 0.1979 0.90274 0.0157 0.0
C1476 C 0.22679 0.92074 0.02718 0.0
C1477 C 0.25138 0.93407 1.00673 0.0
C1478 C 0.16406 0.87943 0.97031 0.0
C1479 C 0.23185 0.92573 0.06113 0.0
C1480 C 0.11834 0.88783 0.06553 0.0
C1481 C 0.12377 0.85426 0.07613 0.0
C1482 C 0.14252 0.90422 0.0464 0.0
C1483 C 0.17263 0.8865 0.0372 0.0
C1484 C 0.17833 0.85276 0.04808 0.0
C1485 C 0.15408 0.83723 0.06746 0.0
C1486 C 0.13569 0.94041 0.03577 0.0
C1487 C 0.20975 0.83264 0.03867 0.0
H1488 H 0.21558 0.91008 0.93919 0.0
H1489 H 0.27359 0.94751 0.01562 0.0
H1490 H 0.16448 0.85257 0.97873 0.0
H1491 H 0.13953 0.89102 0.97797 0.0
H1492 H 0.16448 0.87909 0.9449 0.0
H1493 H 0.25457 0.94191 0.06634 0.0
H1494 H 0.20875 0.9379 0.07126 0.0
H1495 H 0.23522 0.9005 0.07247 0.0
H1496 H 0.09512 0.90127 0.07205 0.0
H1497 H 0.15862 0.81123 0.07525 0.0
H1498 H 0.13305 0.94092 1.01051 0.0
H1499 H 0.1577 0.95716 0.04177 0.0
H1500 H 0.11199 0.95129 0.04605 0.0
H1501 H 0.21009 0.82949 1.01344 0.0
H1502 H 0.21066 0.80682 0.0494 0.0
H1503 H 0.23337 0.84678 0.04509 0.0
C1504 C 0.64983 0.16413 0.08176 0.0
C1505 C 0.63797 0.13017 0.08417 0.0
C1506 C 0.63188 0.18894 0.06457 0.0
C1507 C 0.60126 0.17977 0.04919 0.0
C1508 C 0.58789 0.14623 0.0532 0.0
C1509 C 0.60638 0.12185 0.07054 0.0
C1510 C 0.64658 0.22459 0.06155 0.0
C1511 C 0.55469 0.13569 0.03814 0.0
C1512 C 0.55082 0.25348 1.01172 0.0
C1513 C 0.56095 0.25042 0.98103 0.0
C1514 C 0.56236 0.22985 0.03408 0.0
C1515 C 0.58605 0.2037 0.02585 0.0
C1516 C 0.59661 0.20107 0.99494 0.0
C1517 C 0.58314 0.22372 0.97305 0.0
C1518 C 0.5493 0.2331 0.06643 0.0
C1519 C 0.62298 0.1749 0.98502 0.0
H1520 H 0.67378 0.17117 0.09265 0.0
H1521 H 0.59664 0.09591 0.07245 0.0
H1522 H 0.65414 0.22932 0.03743 0.0
H1523 H 0.62703 0.24407 0.06759 0.0
H1524 H 0.66923 0.22848 0.07646 0.0
H1525 H 0.54513 0.11073 0.04695 0.0
H1526 H 0.53468 0.15553 0.04188 0.0
H1527 H 0.55862 0.13337 1.01309 0.0
H1528 H 0.53336 0.27388 0.01816 0.0
H1529 H 0.59072 0.22104 0.94959 0.0
H1530 H 0.5689 0.24605 0.08072 0.0
H1531 H 0.54433 0.20749 0.07661 0.0
H1532 H 0.52532 0.24849 0.06748 0.0
H1533 H 0.6475 0.17955 0.99729 0.0
H1534 H 0.62805 0.17585 0.96002 0.0
H1535 H 0.61428 0.14868 0.99103 0.0
C1536 C 0.24652 0.55882 1.01057 0.0
C1537 C 0.25096 0.56222 0.97888 0.0
C1538 C 0.27063 0.57263 0.03126 0.0
C1539 C 0.29946 0.59096 0.02001 0.0
C1540 C 0.3038 0.59463 0.98798 0.0
C1541 C 0.27977 0.57993 0.96788 0.0
C1542 C 0.26525 0.56765 0.06516 0.0
C1543 C 0.33358 0.6146 0.97488 0.0
C1544 C 0.34352 0.65717 0.07077 0.0
C1545 C 0.37426 0.64054 0.07885 0.0
C1546 C 0.31882 0.64115 0.05217 0.0
C1547 C 0.32455 0.60732 0.04156 0.0
C1548 C 0.355 0.58994 0.05038 0.0
C1549 C 0.3796 0.60683 0.06867 0.0
C1550 C 0.28707 0.66095 0.04306 0.0
C1551 C 0.36185 0.55365 0.04009 0.0
H1552 H 0.22435 0.5451 0.0192 0.0
H1553 H 0.28326 0.5828 0.94341 0.0
H1554 H 0.28829 0.55553 0.07549 0.0
H1555 H 0.26175 0.59287 0.07644 0.0
H1556 H 0.24251 0.55143 0.07021 0.0
H1557 H 0.33314 0.61536 0.94947 0.0
H1558 H 0.33304 0.64131 0.98359 0.0
H1559 H 0.3582 0.60301 0.98238 0.0
H1560 H 0.33903 0.68326 0.0783 0.0
H1561 H 0.40312 0.59366 0.07484 0.0
H1562 H 0.26366 0.64636 0.04927 0.0
H1563 H 0.28669 0.66455 0.01787 0.0
H1564 H 0.2858 0.68656 0.05413 0.0
H1565 H 0.33975 0.53697 0.046 0.0
H1566 H 0.38543 0.54281 0.05064 0.0
H1567 H 0.36477 0.55298 0.01485 0.0
C1568 C 0.84771 0.35427 0.04873 0.0
C1569 C 0.86119 0.36983 0.07502 0.0
C1570 C 0.86674 0.32999 0.03212 0.0
C1571 C 0.8995 0.31968 0.04278 0.0
C1572 C 0.91314 0.33512 0.06956 0.0
C1573 C 0.89405 0.3605 0.08509 0.0
C1574 C 0.85186 0.31558 1.00297 0.0
C1575 C 0.94776 0.32463 0.08187 0.0
C1576 C 0.93102 0.23387 1.01092 0.0
C1577 C 0.95135 0.2447 0.98631 0.0
C1578 C 0.9149 0.25796 0.03027 0.0
C1579 C 0.91968 0.29362 0.0251 0.0
C1580 C 0.94156 0.30443 1.00107 0.0
C1581 C 0.9569 0.2799 0.98195 0.0
C1582 C 0.89132 0.24523 0.05521 0.0
C1583 C 0.94731 0.342 0.99441 0.0
H1584 H 0.82235 0.36158 0.04079 0.0
H1585 H 0.90437 0.3723 0.10556 0.0
H1586 H 0.86988 0.31979 0.98369 0.0
H1587 H 0.84836 0.28751 1.00543 0.0
H1588 H 0.82681 0.32741 0.99693 0.0
H1589 H 0.95448 0.33846 0.10325 0.0
H1590 H 0.94798 0.29664 0.08653 0.0
H1591 H 0.96793 0.32973 0.06454 0.0
H1592 H 0.92629 0.2067 0.01407 0.0
H1593 H 0.97253 0.28834 0.96283 0.0
H1594 H 0.86429 0.25047 0.04871 0.0
H1595 H 0.89642 0.25895 0.07698 0.0
H1596 H 0.89411 0.21721 0.05915 0.0
H1597 H 0.96746 0.34612 0.97679 0.0
H1598 H 0.95486 0.35579 0.01554 0.0
H1599 H 0.92305 0.35369 0.98612 0.0
C1600 C 0.3397 0.84294 0.57286 0.0
C1601 C 0.37002 0.85979 0.58174 0.0
C1602 C 0.31526 0.85895 0.55398 0.0
C1603 C 0.3207 0.89308 0.54403 0.0
C1604 C 0.3506 0.91076 0.55382 0.0
C1605 C 0.37507 0.8938 0.57225 0.0
C1606 C 0.2842 0.83878 0.54375 0.0
C1607 C 0.35701 0.94742 0.54436 0.0
C1608 C 0.27804 0.92071 0.46941 0.0
C1609 C 0.24818 0.93715 0.47971 0.0
C1610 C 0.30177 0.90641 0.49005 0.0
C1611 C 0.29609 0.90935 0.52196 0.0
C1612 C 0.26626 0.92657 0.53254 0.0
C1613 C 0.24243 0.93987 0.51128 0.0
C1614 C 0.33257 0.88748 0.47761 0.0
C1615 C 0.25949 0.93085 0.56631 0.0
H1616 H 0.33543 0.81661 0.57985 0.0
H1617 H 0.39825 0.90713 0.57907 0.0
H1618 H 0.26031 0.85271 0.5497 0.0
H1619 H 0.28463 0.83586 0.5185 0.0
H1620 H 0.28316 0.81286 0.55428 0.0
H1621 H 0.37983 0.95853 0.55594 0.0
H1622 H 0.36108 0.94875 0.51928 0.0
H1623 H 0.33427 0.96347 0.54973 0.0
H1624 H 0.28259 0.91843 0.44503 0.0
H1625 H 0.21946 0.95265 0.51938 0.0
H1626 H 0.33244 0.8606 0.48599 0.0
H1627 H 0.35656 0.89957 0.48597 0.0
H1628 H 0.33309 0.88715 0.4522 0.0
H1629 H 0.25592 0.90538 0.57716 0.0
H1630 H 0.23631 0.94666 0.57084 0.0
H1631 H 0.28192 0.9431 0.57751 0.0
C1632 C 0.61169 0.37445 0.57066 0.0
C1633 C 0.64631 0.37036 0.57881 0.0
C1634 C 0.59477 0.34998 0.55231 0.0
C1635 C 0.613 0.32094 0.54142 0.0
C1636 C 0.64776 0.31643 0.55001 0.0
C1637 C 0.66384 0.34096 0.56867 0.0
C1638 C 0.55755 0.35551 0.54408 0.0
C1639 C 0.6684 0.28619 0.53867 0.0
C1640 C 0.56633 0.24206 0.51035 0.0
C1641 C 0.5677 0.24778 0.4787 0.0
C1642 C 0.58019 0.26602 0.53109 0.0
C1643 C 0.59639 0.29608 0.5199 0.0
C1644 C 0.59791 0.3018 0.4879 0.0
C1645 C 0.58333 0.27777 0.46776 0.0
C1646 C 0.57766 0.25907 0.56499 0.0
C1647 C 0.61551 0.33306 0.47485 0.0
H1648 H 0.59784 0.39695 0.57838 0.0
H1649 H 0.69063 0.33746 0.5746 0.0
H1650 H 0.55507 0.35946 0.51904 0.0
H1651 H 0.54229 0.33242 0.55004 0.0
H1652 H 0.54634 0.37805 0.55598 0.0
H1653 H 0.6948 0.28572 0.54828 0.0
H1654 H 0.65539 0.26183 0.54478 0.0
H1655 H 0.67022 0.28711 0.51335 0.0
H1656 H 0.55425 0.21894 0.51893 0.0
H1657 H 0.58464 0.28224 0.44331 0.0
H1658 H 0.56521 0.28105 0.57666 0.0
H1659 H 0.60375 0.2563 0.57487 0.0
H1660 H 0.56281 0.23543 0.57008 0.0
H1661 H 0.60342 0.3567 0.48395 0.0
H1662 H 0.61436 0.33384 0.44946 0.0
H1663 H 0.64285 0.33337 0.48198 0.0
C1664 C 0.25485 0.56336 0.51055 0.0
C1665 C 0.24872 0.56395 0.47895 0.0
C1666 C 0.23129 0.57792 0.53126 0.0
C1667 C 0.20115 0.59404 0.52007 0.0
C1668 C 0.19491 0.59467 0.48811 0.0
C1669 C 0.2186 0.57939 0.468 0.0
C1670 C 0.23881 0.57635 0.56511 0.0
C1671 C 0.16353 0.6121 0.47507 0.0
C1672 C 0.1245 0.6112 0.57257 0.0
C1673 C 0.1293 0.64584 0.58017 0.0
C1674 C 0.14805 0.59377 0.55364 0.0
C1675 C 0.17684 0.61148 0.54158 0.0
C1676 C 0.18197 0.64632 0.54945 0.0
C1677 C 0.15837 0.66293 0.56873 0.0
C1678 C 0.14189 0.5565 0.54618 0.0
C1679 C 0.21197 0.66641 0.53684 0.0
H1680 H 0.27808 0.55144 0.51915 0.0
H1681 H 0.21379 0.58005 0.44358 0.0
H1682 H 0.24209 0.60266 0.57426 0.0
H1683 H 0.21686 0.56457 0.57741 0.0
H1684 H 0.26237 0.56136 0.57025 0.0
H1685 H 0.16225 0.6101 0.44974 0.0
H1686 H 0.13994 0.6006 0.48489 0.0
H1687 H 0.16361 0.63965 0.48143 0.0
H1688 H 0.10222 0.59772 0.58126 0.0
H1689 H 0.16233 0.68975 0.57417 0.0
H1690 H 0.16488 0.54107 0.55217 0.0
H1691 H 0.13757 0.55351 0.52124 0.0
H1692 H 0.11935 0.54589 0.55855 0.0
H1693 H 0.23646 0.65363 0.54299 0.0
H1694 H 0.21264 0.69317 0.54551 0.0
H1695 H 0.21052 0.66715 0.51149 0.0
C1696 C 0.83797 0.15909 0.5719 0.0
C1697 C 0.85587 0.12999 0.5823 0.0
C1698 C 0.85331 0.18304 0.55212 0.0
C1699 C 0.8878 0.1784 0.54278 0.0
C1700 C 0.90645 0.14972 0.55395 0.0
C1701 C 0.89019 0.12569 0.5733 0.0
C1702 C 0.83211 0.2127 0.54034 0.0
C1703 C 0.94346 0.14414 0.54506 0.0
C1704 C 0.91546 0.22024 0.46768 0.0
C1705 C 0.93099 0.25065 0.47775 0.0
C1706 C 0.90157 0.19649 0.48855 0.0
C1707 C 0.90373 0.20291 0.52042 0.0
C1708 C 0.91982 0.23342 0.53072 0.0
C1709 C 0.93296 0.25706 0.50927 0.0
C1710 C 0.88397 0.1648 0.47642 0.0
C1711 C 0.92295 0.2412 0.56443 0.0
H1712 H 0.81138 0.16274 0.57845 0.0
H1713 H 0.90431 0.10343 0.58121 0.0
H1714 H 0.84523 0.23735 0.54513 0.0
H1715 H 0.8293 0.21065 0.51515 0.0
H1716 H 0.80609 0.21348 0.55071 0.0
H1717 H 0.95508 0.12192 0.55716 0.0
H1718 H 0.9453 0.13966 0.52006 0.0
H1719 H 0.95876 0.16742 0.55026 0.0
H1720 H 0.91366 0.21521 0.44335 0.0
H1721 H 0.94494 0.2805 0.51721 0.0
H1722 H 0.85682 0.16438 0.48409 0.0
H1723 H 0.89652 0.14148 0.4857 0.0
H1724 H 0.88449 0.16351 0.45103 0.0
H1725 H 0.89704 0.24418 0.57461 0.0
H1726 H 0.93784 0.26499 0.56881 0.0
H1727 H 0.93566 0.21953 0.57639 0.0
C1728 C 0.86081 0.15429 0.98178 0.0
C1729 C 0.87621 0.13935 0.95607 0.0
C1730 C 0.83636 0.13647 0.99921 0.0
C1731 C 0.82591 0.10315 0.99033 0.0
C1732 C 0.84158 0.08777 0.96442 0.0
C1733 C 0.86693 0.10588 0.9478 0.0
C1734 C 0.82132 0.1536 0.02699 0.0
C1735 C 0.83124 0.05238 0.95406 0.0
C1736 C 0.78328 0.05094 0.05368 0.0
C1737 C 0.74822 0.05623 0.04794 0.0
C1738 C 0.80869 0.06466 0.03436 0.0
C1739 C 0.799 0.08459 1.00864 0.0
C1740 C 0.7635 0.08909 1.00219 0.0
C1741 C 0.73854 0.07469 0.02182 0.0
C1742 C 0.84599 0.059 0.04232 0.0
C1743 C 0.75174 0.11066 0.97551 0.0
H1744 H 0.86814 0.18005 0.98846 0.0
H1745 H 0.87872 0.09428 0.92788 0.0
H1746 H 0.79333 0.15648 0.02353 0.0
H1747 H 0.82523 0.13734 0.04753 0.0
H1748 H 0.83261 0.17929 0.0314 0.0
H1749 H 0.84587 0.04385 0.93362 0.0
H1750 H 0.83541 0.03364 0.97281 0.0
H1751 H 0.80343 0.05207 0.94852 0.0
H1752 H 0.79093 0.03657 0.07381 0.0
H1753 H 0.7115 0.07916 0.01745 0.0
H1754 H 0.85771 0.08365 0.04949 0.0
H1755 H 0.86037 0.04982 0.02201 0.0
H1756 H 0.8493 0.04014 0.06115 0.0
H1757 H 0.75478 0.13812 0.98143 0.0
H1758 H 0.72431 0.10605 0.96989 0.0
H1759 H 0.76752 0.10554 0.95488 0.0
C1760 C 0.34309 0.84096 0.95693 0.0
C1761 C 0.35974 0.87129 0.94787 0.0
C1762 C 0.35905 0.81716 0.97651 0.0
C1763 C 0.39286 0.82332 0.98706 0.0
C1764 C 0.41021 0.85344 0.9774 0.0
C1765 C 0.39335 0.8772 0.95819 0.0
C1766 C 0.33928 0.78577 0.98653 0.0
C1767 C 0.44648 0.86073 0.98763 0.0
C1768 C 0.4209 0.77925 0.06107 0.0
C1769 C 0.43833 0.75026 0.05015 0.0
C1770 C 0.40617 0.80324 0.04086 0.0
C1771 C 0.40956 0.79863 1.00882 0.0
C1772 C 0.42775 0.76971 0.99769 0.0
C1773 C 0.44157 0.74569 0.01845 0.0
C1774 C 0.38636 0.83317 0.05383 0.0
C1775 C 0.43244 0.76401 0.96379 0.0
H1776 H 0.31703 0.83613 0.94938 0.0
H1777 H 0.4065 0.90045 0.95133 0.0
H1778 H 0.35358 0.76219 0.98031 0.0
H1779 H 0.33642 0.78581 1.01179 0.0
H1780 H 0.31333 0.7845 0.97605 0.0
H1781 H 0.4571 0.88426 0.97686 0.0
H1782 H 0.44721 0.86389 1.01284 0.0
H1783 H 0.46337 0.83873 0.98189 0.0
H1784 H 0.4182 0.78288 0.08557 0.0
H1785 H 0.45504 0.72343 1.00987 0.0
H1786 H 0.35946 0.83243 0.04549 0.0
H1787 H 0.39774 0.85765 0.04584 0.0
H1788 H 0.38608 0.83312 0.07925 0.0
H1789 H 0.4071 0.76012 0.95275 0.0
H1790 H 0.44887 0.7414 0.95883 0.0
H1791 H 0.44422 0.78701 0.95314 0.0
C1792 C 0.71745 0.44356 0.0472 0.0
C1793 C 0.75286 0.44068 0.0419 0.0
C1794 C 0.69336 0.42805 0.02769 0.0
C1795 C 0.70479 0.40906 1.00202 0.0
C1796 C 0.74058 0.40678 0.99606 0.0
C1797 C 0.76422 0.42277 0.01601 0.0
C1798 C 0.65567 0.4307 0.03544 0.0
C1799 C 0.75397 0.38644 0.96922 0.0
C1800 C 0.64604 0.33803 0.97264 0.0
C1801 C 0.62901 0.35407 0.94825 0.0
C1802 C 0.67041 0.35569 0.99034 0.0
C1803 C 0.67925 0.38991 0.98277 0.0
C1804 C 0.66248 0.40609 0.95779 0.0
C1805 C 0.6371 0.38819 0.94115 0.0
C1806 C 0.68651 0.33773 0.01733 0.0
C1807 C 0.67141 0.44231 0.94863 0.0
H1808 H 0.70854 0.4573 0.06725 0.0
H1809 H 0.79156 0.42012 1.01203 0.0
H1810 H 0.64101 0.44046 0.0155 0.0
H1811 H 0.64547 0.40487 0.04098 0.0
H1812 H 0.65087 0.44788 0.05525 0.0
H1813 H 0.782 0.39003 0.96583 0.0
H1814 H 0.74899 0.35875 0.97298 0.0
H1815 H 0.74036 0.39399 0.94794 0.0
H1816 H 0.6397 0.31171 0.97834 0.0
H1817 H 0.62416 0.40057 0.92216 0.0
H1818 H 0.68439 0.35381 0.03816 0.0
H1819 H 0.71418 0.33367 1.01271 0.0
H1820 H 0.67448 0.31246 0.0221 0.0
H1821 H 0.66544 0.46014 0.96766 0.0
H1822 H 0.65718 0.45079 0.92793 0.0
H1823 H 0.69937 0.44429 0.94407 0.0
C1824 C 0.05809 0.7521 0.01648 0.0
C1825 C 0.05952 0.74653 0.04815 0.0
C1826 C 0.07265 0.72843 0.9958 0.0
C1827 C 0.08971 0.69883 1.00707 0.0
C1828 C 0.09127 0.69326 0.0391 0.0
C1829 C 0.0759 0.71693 0.05915 0.0
C1830 C 0.06996 0.73519 0.96189 0.0
C1831 C 0.10978 0.66259 0.05228 0.0
C1832 C 0.1072 0.62058 0.95651 0.0
C1833 C 0.14162 0.62564 0.94813 0.0
C1834 C 0.08965 0.64466 0.97485 0.0
C1835 C 0.10703 0.67427 0.9856 0.0
C1836 C 0.14164 0.67966 0.9769 0.0
C1837 C 0.15834 0.65554 0.95816 0.0
C1838 C 0.05261 0.63814 0.98314 0.0
C1839 C 0.16147 0.71045 0.98817 0.0
H1840 H 0.04545 0.77489 1.00783 0.0
H1841 H 0.07725 0.71251 0.08361 0.0
H1842 H 0.09596 0.73873 0.95205 0.0
H1843 H 0.05822 0.71279 0.95025 0.0
H1844 H 0.05438 0.75834 0.95671 0.0
H1845 H 0.10877 0.66198 0.07768 0.0
H1846 H 0.09829 0.63857 0.04337 0.0
H1847 H 0.13708 0.66294 0.04506 0.0
H1848 H 0.09397 0.59769 0.94887 0.0
H1849 H 0.18499 0.65973 0.9521 0.0
H1850 H 0.03669 0.66075 0.97708 0.0
H1851 H 0.05029 0.63428 1.0082 0.0
H1852 H 0.04204 0.61522 0.97137 0.0
H1853 H 0.14792 0.73444 0.98181 0.0
H1854 H 0.18792 0.71144 0.97872 0.0
H1855 H 0.16312 0.70979 1.01351 0.0
loop_
_geom_bond_atom_site_label_1
_geom_bond_atom_site_label_2
_geom_bond_distance
_geom_bond_site_symmetry_2
_ccdc_geom_bond_type
Dy0 O4 2.398 . S
Dy0 O5 2.491 . S
Dy0 O6 2.403 . S
Dy0 O7 2.664 . S
Dy0 O11 2.326 . S
Dy0 O15 2.310 . S
Dy0 O16 2.351 . S
C1 O12 1.185 . S
C1 O13 1.355 . S
C2 O4 1.185 . S
C2 O5 1.355 . S
Dy3 O7 2.310 . S
Dy3 O10 2.351 . S
Dy3 O12 2.398 . S
Dy3 O13 2.491 . S
Dy3 O14 2.403 . S
Dy3 O15 2.664 . S
Dy3 O17 2.326 . S
O4 Dy0 2.398 . S
O4 C2 1.185 . S
O5 Dy0 2.491 . S
O5 C2 1.355 . S
O6 Dy0 2.403 . S
O6 C8 1.254 . S
O7 Dy0 2.664 . S
O7 Dy3 2.310 . S
O7 C8 1.268 . S
C8 O6 1.254 . S
C8 O7 1.268 . S
C9 O14 1.254 . S
C9 O15 1.268 . S
O10 Dy3 2.351 . S
O10 C18 1.249 . S
O11 Dy0 2.326 . S
O11 C18 1.267 . S
O12 C1 1.185 . S
O12 Dy3 2.398 . S
O13 C1 1.355 . S
O13 Dy3 2.491 . S
O14 Dy3 2.403 . S
O14 C9 1.254 . S
O15 Dy0 2.310 . S
O15 Dy3 2.664 . S
O15 C9 1.268 . S
O16 Dy0 2.351 . S
O16 C19 1.249 . S
O17 Dy3 2.326 . S
O17 C19 1.267 . S
C18 O10 1.249 . S
C18 O11 1.267 . S
C19 O16 1.249 . S
C19 O17 1.267 . S
Dy20 O24 2.398 . S
Dy20 O25 2.491 . S
Dy20 O26 2.403 . S
Dy20 O27 2.664 . S
Dy20 O31 2.326 . S
Dy20 O35 2.310 . S
Dy20 O36 2.351 . S
C21 O32 1.185 . S
C21 O33 1.355 . S
C22 O24 1.185 . S
C22 O25 1.355 . S
Dy23 O27 2.310 . S
Dy23 O30 2.351 . S
Dy23 O32 2.398 . S
Dy23 O33 2.491 . S
Dy23 O34 2.403 . S
Dy23 O35 2.664 . S
Dy23 O37 2.326 . S
O24 Dy20 2.398 . S
O24 C22 1.185 . S
O25 Dy20 2.491 . S
O25 C22 1.355 . S
O26 Dy20 2.403 . S
O26 C28 1.254 . S
O27 Dy20 2.664 . S
O27 Dy23 2.310 . S
O27 C28 1.268 . S
C28 O26 1.254 . S
C28 O27 1.268 . S
C29 O34 1.254 . S
C29 O35 1.268 . S
O30 Dy23 2.351 . S
O30 C38 1.249 . S
O31 Dy20 2.326 . S
O31 C38 1.267 . S
O32 C21 1.185 . S
O32 Dy23 2.398 . S
O33 C21 1.355 . S
O33 Dy23 2.491 . S
O34 Dy23 2.403 . S
O34 C29 1.254 . S
O35 Dy20 2.310 . S
O35 Dy23 2.664 . S
O35 C29 1.268 . S
O36 Dy20 2.351 . S
O36 C39 1.249 . S
O37 Dy23 2.326 . S
O37 C39 1.267 . S
C38 O30 1.249 . S
C38 O31 1.267 . S
C39 O36 1.249 . S
C39 O37 1.267 . S
Dy40 O44 2.398 . S
Dy40 O45 2.491 . S
Dy40 O46 2.403 . S
Dy40 O47 2.664 . S
Dy40 O51 2.326 . S
Dy40 O55 2.310 . S
Dy40 O56 2.351 . S
C41 O52 1.185 . S
C41 O53 1.355 . S
C42 O44 1.185 . S
C42 O45 1.355 . S
Dy43 O47 2.310 . S
Dy43 O50 2.351 . S
Dy43 O52 2.398 1_655 S
Dy43 O53 2.491 1_655 S
Dy43 O54 2.403 . S
Dy43 O55 2.664 . S
Dy43 O57 2.326 1_655 S
O44 Dy40 2.398 . S
O44 C42 1.185 . S
O45 Dy40 2.491 . S
O45 C42 1.355 . S
O46 Dy40 2.403 . S
O46 C48 1.254 . S
O47 Dy40 2.664 . S
O47 Dy43 2.310 . S
O47 C48 1.268 . S
C48 O46 1.254 . S
C48 O47 1.268 . S
C49 O54 1.254 . S
C49 O55 1.268 . S
O50 Dy43 2.351 . S
O50 C58 1.249 . S
O51 Dy40 2.326 . S
O51 C58 1.267 . S
O52 C41 1.185 . S
O52 Dy43 2.398 1_455 S
O53 C41 1.355 . S
O53 Dy43 2.491 1_455 S
O54 Dy43 2.403 . S
O54 C49 1.254 . S
O55 Dy40 2.310 . S
O55 Dy43 2.664 . S
O55 C49 1.268 . S
O56 Dy40 2.351 . S
O56 C59 1.254 . S
O57 Dy43 2.326 1_455 S
O57 C59 1.266 1_455 S
C58 O50 1.249 . S
C58 O51 1.267 . S
C59 O56 1.254 . S
C59 O57 1.266 1_655 S
Dy60 O64 2.398 . S
Dy60 O65 2.491 . S
Dy60 O66 2.403 . S
Dy60 O67 2.664 . S
Dy60 O71 2.326 . S
Dy60 O75 2.310 . S
Dy60 O76 2.351 . S
C61 O72 1.185 . S
C61 O73 1.355 . S
C62 O64 1.185 . S
C62 O65 1.355 . S
Dy63 O67 2.310 . S
Dy63 O70 2.351 . S
Dy63 O72 2.398 1_565 S
Dy63 O73 2.491 1_565 S
Dy63 O74 2.403 . S
Dy63 O75 2.664 . S
Dy63 O77 2.326 1_565 S
O64 Dy60 2.398 . S
O64 C62 1.185 . S
O65 Dy60 2.491 . S
O65 C62 1.355 . S
O66 Dy60 2.403 . S
O66 C68 1.254 . S
O67 Dy60 2.664 . S
O67 Dy63 2.310 . S
O67 C68 1.268 . S
C68 O66 1.254 . S
C68 O67 1.268 . S
C69 O74 1.254 . S
C69 O75 1.268 . S
O70 Dy63 2.351 . S
O70 C78 1.249 . S
O71 Dy60 2.326 . S
O71 C78 1.267 . S
O72 C61 1.185 . S
O72 Dy63 2.398 1_545 S
O73 C61 1.355 . S
O73 Dy63 2.491 1_545 S
O74 Dy63 2.403 . S
O74 C69 1.254 . S
O75 Dy60 2.310 . S
O75 Dy63 2.664 . S
O75 C69 1.268 . S
O76 Dy60 2.351 . S
O76 C79 1.254 . S
O77 Dy63 2.326 1_545 S
O77 C79 1.266 1_545 S
C78 O70 1.249 . S
C78 O71 1.267 . S
C79 O76 1.254 . S
C79 O77 1.266 1_565 S
Dy80 O84 2.398 . S
Dy80 O85 2.491 . S
Dy80 O86 2.403 . S
Dy80 O87 2.664 . S
Dy80 O91 2.326 . S
Dy80 O95 2.310 . S
Dy80 O96 2.351 . S
C81 O92 1.185 . S
C81 O93 1.355 . S
C82 O84 1.185 . S
C82 O85 1.355 . S
Dy83 O87 2.310 . S
Dy83 O90 2.351 . S
Dy83 O92 2.398 1_455 S
Dy83 O93 2.491 1_455 S
Dy83 O94 2.403 . S
Dy83 O95 2.664 . S
Dy83 O97 2.326 1_455 S
O84 Dy80 2.398 . S
O84 C82 1.185 . S
O85 Dy80 2.491 . S
O85 C82 1.355 . S
O86 Dy80 2.403 . S
O86 C88 1.254 . S
O87 Dy80 2.664 . S
O87 Dy83 2.310 . S
O87 C88 1.268 . S
C88 O86 1.254 . S
C88 O87 1.268 . S
C89 O94 1.254 . S
C89 O95 1.268 . S
O90 Dy83 2.351 . S
O90 C98 1.249 . S
O91 Dy80 2.326 . S
O91 C98 1.267 . S
O92 C81 1.185 . S
O92 Dy83 2.398 1_655 S
O93 C81 1.355 . S
O93 Dy83 2.491 1_655 S
O94 Dy83 2.403 . S
O94 C89 1.254 . S
O95 Dy80 2.310 . S
O95 Dy83 2.664 . S
O95 C89 1.268 . S
O96 Dy80 2.351 . S
O96 C99 1.254 . S
O97 Dy83 2.326 1_655 S
O97 C99 1.266 1_655 S
C98 O90 1.249 . S
C98 O91 1.267 . S
C99 O96 1.254 . S
C99 O97 1.266 1_455 S
Dy100 O104 2.398 . S
Dy100 O105 2.491 . S
Dy100 O106 2.403 . S
Dy100 O107 2.664 . S
Dy100 O111 2.326 . S
Dy100 O115 2.310 . S
Dy100 O116 2.351 . S
C101 O112 1.185 . S
C101 O113 1.355 . S
C102 O104 1.185 . S
C102 O105 1.355 . S
Dy103 O107 2.310 . S
Dy103 O110 2.351 . S
Dy103 O112 2.398 1_545 S
Dy103 O113 2.491 1_545 S
Dy103 O114 2.403 . S
Dy103 O115 2.664 . S
Dy103 O117 2.326 1_545 S
O104 Dy100 2.398 . S
O104 C102 1.185 . S
O105 Dy100 2.491 . S
O105 C102 1.355 . S
O106 Dy100 2.403 . S
O106 C108 1.254 . S
O107 Dy100 2.664 . S
O107 Dy103 2.310 . S
O107 C108 1.268 . S
C108 O106 1.254 . S
C108 O107 1.268 . S
C109 O114 1.254 . S
C109 O115 1.268 . S
O110 Dy103 2.351 . S
O110 C118 1.249 . S
O111 Dy100 2.326 . S
O111 C118 1.267 . S
O112 C101 1.185 . S
O112 Dy103 2.398 1_565 S
O113 C101 1.355 . S
O113 Dy103 2.491 1_565 S
O114 Dy103 2.403 . S
O114 C109 1.254 . S
O115 Dy100 2.310 . S
O115 Dy103 2.664 . S
O115 C109 1.268 . S
O116 Dy100 2.351 . S
O116 C119 1.254 . S
O117 Dy103 2.326 1_565 S
O117 C119 1.266 1_565 S
C118 O110 1.249 . S
C118 O111 1.267 . S
C119 O116 1.254 . S
C119 O117 1.266 1_545 S
Dy120 O124 2.398 . S
Dy120 O125 2.491 . S
Dy120 O126 2.403 . S
Dy120 O127 2.664 . S
Dy120 O131 2.326 . S
Dy120 O135 2.310 . S
Dy120 O136 2.351 . S
C121 O132 1.185 . S
C121 O133 1.355 . S
C122 O124 1.185 . S
C122 O125 1.355 . S
Dy123 O127 2.310 . S
Dy123 O130 2.351 . S
Dy123 O132 2.398 . S
Dy123 O133 2.491 . S
Dy123 O134 2.403 . S
Dy123 O135 2.664 . S
Dy123 O137 2.326 . S
O124 Dy120 2.398 . S
O124 C122 1.185 . S
O125 Dy120 2.491 . S
O125 C122 1.355 . S
O126 Dy120 2.403 . S
O126 C128 1.254 . S
O127 Dy120 2.664 . S
O127 Dy123 2.310 . S
O127 C128 1.268 . S
C128 O126 1.254 . S
C128 O127 1.268 . S
C129 O134 1.254 . S
C129 O135 1.268 . S
O130 Dy123 2.351 . S
O130 C138 1.249 . S
O131 Dy120 2.326 . S
O131 C138 1.267 . S
O132 C121 1.185 . S
O132 Dy123 2.398 . S
O133 C121 1.355 . S
O133 Dy123 2.491 . S
O134 Dy123 2.403 . S
O134 C129 1.254 . S
O135 Dy120 2.310 . S
O135 Dy123 2.664 . S
O135 C129 1.268 . S
O136 Dy120 2.351 . S
O136 C139 1.249 . S
O137 Dy123 2.326 . S
O137 C139 1.267 . S
C138 O130 1.249 . S
C138 O131 1.267 . S
C139 O136 1.249 . S
C139 O137 1.267 . S
Dy140 O144 2.398 . S
Dy140 O145 2.491 . S
Dy140 O146 2.403 . S
Dy140 O147 2.664 . S
Dy140 O151 2.326 . S
Dy140 O155 2.310 . S
Dy140 O156 2.351 . S
C141 O152 1.185 . S
C141 O153 1.355 . S
C142 O144 1.185 . S
C142 O145 1.355 . S
Dy143 O147 2.310 . S
Dy143 O150 2.351 . S
Dy143 O152 2.398 . S
Dy143 O153 2.491 . S
Dy143 O154 2.403 . S
Dy143 O155 2.664 . S
Dy143 O157 2.326 . S
O144 Dy140 2.398 . S
O144 C142 1.185 . S
O145 Dy140 2.491 . S
O145 C142 1.355 . S
O146 Dy140 2.403 . S
O146 C148 1.254 . S
O147 Dy140 2.664 . S
O147 Dy143 2.310 . S
O147 C148 1.268 . S
C148 O146 1.254 . S
C148 O147 1.268 . S
C149 O154 1.254 . S
C149 O155 1.268 . S
O150 Dy143 2.351 . S
O150 C158 1.249 . S
O151 Dy140 2.326 . S
O151 C158 1.267 . S
O152 C141 1.185 . S
O152 Dy143 2.398 . S
O153 C141 1.355 . S
O153 Dy143 2.491 . S
O154 Dy143 2.403 . S
O154 C149 1.254 . S
O155 Dy140 2.310 . S
O155 Dy143 2.664 . S
O155 C149 1.268 . S
O156 Dy140 2.351 . S
O156 C159 1.249 . S
O157 Dy143 2.326 . S
O157 C159 1.267 . S
C158 O150 1.249 . S
C158 O151 1.267 . S
C159 O156 1.249 . S
C159 O157 1.267 . S
Dy160 O164 2.398 . S
Dy160 O165 2.491 . S
Dy160 O166 2.403 . S
Dy160 O167 2.664 . S
Dy160 O171 2.326 . S
Dy160 O175 2.310 . S
Dy160 O176 2.351 . S
C161 O172 1.185 . S
C161 O173 1.355 . S
C162 O164 1.185 . S
C162 O165 1.355 . S
Dy163 O167 2.310 . S
Dy163 O170 2.351 . S
Dy163 O172 2.398 . S
Dy163 O173 2.491 . S
Dy163 O174 2.403 . S
Dy163 O175 2.664 . S
Dy163 O177 2.326 . S
O164 Dy160 2.398 . S
O164 C162 1.185 . S
O165 Dy160 2.491 . S
O165 C162 1.355 . S
O166 Dy160 2.403 . S
O166 C168 1.254 . S
O167 Dy160 2.664 . S
O167 Dy163 2.310 . S
O167 C168 1.268 . S
C168 O166 1.254 . S
C168 O167 1.268 . S
C169 O174 1.254 . S
C169 O175 1.268 . S
O170 Dy163 2.351 . S
O170 C178 1.249 . S
O171 Dy160 2.326 . S
O171 C178 1.267 . S
O172 C161 1.185 . S
O172 Dy163 2.398 . S
O173 C161 1.355 . S
O173 Dy163 2.491 . S
O174 Dy163 2.403 . S
O174 C169 1.254 . S
O175 Dy160 2.310 . S
O175 Dy163 2.664 . S
O175 C169 1.268 . S
O176 Dy160 2.351 . S
O176 C179 1.249 . S
O177 Dy163 2.326 . S
O177 C179 1.267 . S
C178 O170 1.249 . S
C178 O171 1.267 . S
C179 O176 1.249 . S
C179 O177 1.267 . S
Dy180 O184 2.398 . S
Dy180 O185 2.491 . S
Dy180 O186 2.403 . S
Dy180 O187 2.664 . S
Dy180 O191 2.326 . S
Dy180 O195 2.310 . S
Dy180 O196 2.351 . S
C181 O192 1.185 . S
C181 O193 1.355 . S
C182 O184 1.185 . S
C182 O185 1.355 . S
Dy183 O187 2.310 . S
Dy183 O190 2.351 . S
Dy183 O192 2.398 . S
Dy183 O193 2.491 . S
Dy183 O194 2.403 . S
Dy183 O195 2.664 . S
Dy183 O197 2.326 . S
O184 Dy180 2.398 . S
O184 C182 1.185 . S
O185 Dy180 2.491 . S
O185 C182 1.355 . S
O186 Dy180 2.403 . S
O186 C188 1.254 . S
O187 Dy180 2.664 . S
O187 Dy183 2.310 . S
O187 C188 1.268 . S
C188 O186 1.254 . S
C188 O187 1.268 . S
C189 O194 1.254 . S
C189 O195 1.268 . S
O190 Dy183 2.351 . S
O190 C198 1.249 . S
O191 Dy180 2.326 . S
O191 C198 1.267 . S
O192 C181 1.185 . S
O192 Dy183 2.398 . S
O193 C181 1.355 . S
O193 Dy183 2.491 . S
O194 Dy183 2.403 . S
O194 C189 1.254 . S
O195 Dy180 2.310 . S
O195 Dy183 2.664 . S
O195 C189 1.268 . S
O196 Dy180 2.351 . S
O196 C199 1.249 . S
O197 Dy183 2.326 . S
O197 C199 1.267 . S
C198 O190 1.249 . S
C198 O191 1.267 . S
C199 O196 1.249 . S
C199 O197 1.267 . S
Dy200 O204 2.398 1_455 S
Dy200 O205 2.491 1_455 S
Dy200 O206 2.403 . S
Dy200 O207 2.664 . S
Dy200 O211 2.326 1_455 S
Dy200 O215 2.310 . S
Dy200 O216 2.351 . S
C201 O212 1.185 . S
C201 O213 1.355 . S
C202 O204 1.185 . S
C202 O205 1.355 . S
Dy203 O207 2.310 . S
Dy203 O210 2.351 . S
Dy203 O212 2.398 . S
Dy203 O213 2.491 . S
Dy203 O214 2.403 . S
Dy203 O215 2.664 . S
Dy203 O217 2.326 . S
O204 Dy200 2.398 1_655 S
O204 C202 1.185 . S
O205 Dy200 2.491 1_655 S
O205 C202 1.355 . S
O206 Dy200 2.403 . S
O206 C208 1.254 . S
O207 Dy200 2.664 . S
O207 Dy203 2.310 . S
O207 C208 1.268 . S
C208 O206 1.254 . S
C208 O207 1.268 . S
C209 O214 1.254 . S
C209 O215 1.268 . S
O210 Dy203 2.351 . S
O210 C218 1.254 . S
O211 Dy200 2.326 1_655 S
O211 C218 1.266 1_655 S
O212 C201 1.185 . S
O212 Dy203 2.398 . S
O213 C201 1.355 . S
O213 Dy203 2.491 . S
O214 Dy203 2.403 . S
O214 C209 1.254 . S
O215 Dy200 2.310 . S
O215 Dy203 2.664 . S
O215 C209 1.268 . S
O216 Dy200 2.351 . S
O216 C219 1.249 . S
O217 Dy203 2.326 . S
O217 C219 1.267 . S
C218 O210 1.254 . S
C218 O211 1.266 1_455 S
C219 O216 1.249 . S
C219 O217 1.267 . S
Dy220 O224 2.398 1_545 S
Dy220 O225 2.491 1_545 S
Dy220 O226 2.403 . S
Dy220 O227 2.664 . S
Dy220 O231 2.326 1_545 S
Dy220 O235 2.310 . S
Dy220 O236 2.351 . S
C221 O232 1.185 . S
C221 O233 1.355 . S
C222 O224 1.185 . S
C222 O225 1.355 . S
Dy223 O227 2.310 . S
Dy223 O230 2.351 . S
Dy223 O232 2.398 . S
Dy223 O233 2.491 . S
Dy223 O234 2.403 . S
Dy223 O235 2.664 . S
Dy223 O237 2.326 . S
O224 Dy220 2.398 1_565 S
O224 C222 1.185 . S
O225 Dy220 2.491 1_565 S
O225 C222 1.355 . S
O226 Dy220 2.403 . S
O226 C228 1.254 . S
O227 Dy220 2.664 . S
O227 Dy223 2.310 . S
O227 C228 1.268 . S
C228 O226 1.254 . S
C228 O227 1.268 . S
C229 O234 1.254 . S
C229 O235 1.268 . S
O230 Dy223 2.351 . S
O230 C238 1.254 . S
O231 Dy220 2.326 1_565 S
O231 C238 1.266 1_565 S
O232 C221 1.185 . S
O232 Dy223 2.398 . S
O233 C221 1.355 . S
O233 Dy223 2.491 . S
O234 Dy223 2.403 . S
O234 C229 1.254 . S
O235 Dy220 2.310 . S
O235 Dy223 2.664 . S
O235 C229 1.268 . S
O236 Dy220 2.351 . S
O236 C239 1.249 . S
O237 Dy223 2.326 . S
O237 C239 1.267 . S
C238 O230 1.254 . S
C238 O231 1.266 1_545 S
C239 O236 1.249 . S
C239 O237 1.267 . S
Dy240 O244 2.398 1_655 S
Dy240 O245 2.491 1_655 S
Dy240 O246 2.403 . S
Dy240 O247 2.664 . S
Dy240 O251 2.326 1_655 S
Dy240 O255 2.310 . S
Dy240 O256 2.351 . S
C241 O252 1.185 . S
C241 O253 1.355 . S
C242 O244 1.185 . S
C242 O245 1.355 . S
Dy243 O247 2.310 . S
Dy243 O250 2.351 . S
Dy243 O252 2.398 . S
Dy243 O253 2.491 . S
Dy243 O254 2.403 . S
Dy243 O255 2.664 . S
Dy243 O257 2.326 . S
O244 Dy240 2.398 1_455 S
O244 C242 1.185 . S
O245 Dy240 2.491 1_455 S
O245 C242 1.355 . S
O246 Dy240 2.403 . S
O246 C248 1.254 . S
O247 Dy240 2.664 . S
O247 Dy243 2.310 . S
O247 C248 1.268 . S
C248 O246 1.254 . S
C248 O247 1.268 . S
C249 O254 1.254 . S
C249 O255 1.268 . S
O250 Dy243 2.351 . S
O250 C258 1.254 . S
O251 Dy240 2.326 1_455 S
O251 C258 1.266 1_455 S
O252 C241 1.185 . S
O252 Dy243 2.398 . S
O253 C241 1.355 . S
O253 Dy243 2.491 . S
O254 Dy243 2.403 . S
O254 C249 1.254 . S
O255 Dy240 2.310 . S
O255 Dy243 2.664 . S
O255 C249 1.268 . S
O256 Dy240 2.351 . S
O256 C259 1.249 . S
O257 Dy243 2.326 . S
O257 C259 1.267 . S
C258 O250 1.254 . S
C258 O251 1.266 1_655 S
C259 O256 1.249 . S
C259 O257 1.267 . S
Dy260 O264 2.398 1_565 S
Dy260 O265 2.491 1_565 S
Dy260 O266 2.403 . S
Dy260 O267 2.664 . S
Dy260 O271 2.326 1_565 S
Dy260 O275 2.310 . S
Dy260 O276 2.351 . S
C261 O272 1.185 . S
C261 O273 1.355 . S
C262 O264 1.185 . S
C262 O265 1.355 . S
Dy263 O267 2.310 . S
Dy263 O270 2.351 . S
Dy263 O272 2.398 . S
Dy263 O273 2.491 . S
Dy263 O274 2.403 . S
Dy263 O275 2.664 . S
Dy263 O277 2.326 . S
O264 Dy260 2.398 1_545 S
O264 C262 1.185 . S
O265 Dy260 2.491 1_545 S
O265 C262 1.355 . S
O266 Dy260 2.403 . S
O266 C268 1.254 . S
O267 Dy260 2.664 . S
O267 Dy263 2.310 . S
O267 C268 1.268 . S
C268 O266 1.254 . S
C268 O267 1.268 . S
C269 O274 1.254 . S
C269 O275 1.268 . S
O270 Dy263 2.351 . S
O270 C278 1.254 . S
O271 Dy260 2.326 1_545 S
O271 C278 1.266 1_545 S
O272 C261 1.185 . S
O272 Dy263 2.398 . S
O273 C261 1.355 . S
O273 Dy263 2.491 . S
O274 Dy263 2.403 . S
O274 C269 1.254 . S
O275 Dy260 2.310 . S
O275 Dy263 2.664 . S
O275 C269 1.268 . S
O276 Dy260 2.351 . S
O276 C279 1.249 . S
O277 Dy263 2.326 . S
O277 C279 1.267 . S
C278 O270 1.254 . S
C278 O271 1.266 1_565 S
C279 O276 1.249 . S
C279 O277 1.267 . S
Dy280 O284 2.398 . S
Dy280 O285 2.491 . S
Dy280 O286 2.403 . S
Dy280 O287 2.664 . S
Dy280 O291 2.326 . S
Dy280 O295 2.310 . S
Dy280 O296 2.351 . S
C281 O292 1.185 . S
C281 O293 1.355 . S
C282 O284 1.185 . S
C282 O285 1.355 . S
Dy283 O287 2.310 . S
Dy283 O290 2.351 . S
Dy283 O292 2.398 . S
Dy283 O293 2.491 . S
Dy283 O294 2.403 . S
Dy283 O295 2.664 . S
Dy283 O297 2.326 . S
O284 Dy280 2.398 . S
O284 C282 1.185 . S
O285 Dy280 2.491 . S
O285 C282 1.355 . S
O286 Dy280 2.403 . S
O286 C288 1.254 . S
O287 Dy280 2.664 . S
O287 Dy283 2.310 . S
O287 C288 1.268 . S
C288 O286 1.254 . S
C288 O287 1.268 . S
C289 O294 1.254 . S
C289 O295 1.268 . S
O290 Dy283 2.351 . S
O290 C298 1.249 . S
O291 Dy280 2.326 . S
O291 C298 1.267 . S
O292 C281 1.185 . S
O292 Dy283 2.398 . S
O293 C281 1.355 . S
O293 Dy283 2.491 . S
O294 Dy283 2.403 . S
O294 C289 1.254 . S
O295 Dy280 2.310 . S
O295 Dy283 2.664 . S
O295 C289 1.268 . S
O296 Dy280 2.351 . S
O296 C299 1.249 . S
O297 Dy283 2.326 . S
O297 C299 1.267 . S
C298 O290 1.249 . S
C298 O291 1.267 . S
C299 O296 1.249 . S
C299 O297 1.267 . S
Dy300 O304 2.398 . S
Dy300 O305 2.491 . S
Dy300 O306 2.403 . S
Dy300 O307 2.664 . S
Dy300 O311 2.326 . S
Dy300 O315 2.310 . S
Dy300 O316 2.351 . S
C301 O312 1.185 . S
C301 O313 1.355 . S
C302 O304 1.185 . S
C302 O305 1.355 . S
Dy303 O307 2.310 . S
Dy303 O310 2.351 . S
Dy303 O312 2.398 . S
Dy303 O313 2.491 . S
Dy303 O314 2.403 . S
Dy303 O315 2.664 . S
Dy303 O317 2.326 . S
O304 Dy300 2.398 . S
O304 C302 1.185 . S
O305 Dy300 2.491 . S
O305 C302 1.355 . S
O306 Dy300 2.403 . S
O306 C308 1.254 . S
O307 Dy300 2.664 . S
O307 Dy303 2.310 . S
O307 C308 1.268 . S
C308 O306 1.254 . S
C308 O307 1.268 . S
C309 O314 1.254 . S
C309 O315 1.268 . S
O310 Dy303 2.351 . S
O310 C318 1.249 . S
O311 Dy300 2.326 . S
O311 C318 1.267 . S
O312 C301 1.185 . S
O312 Dy303 2.398 . S
O313 C301 1.355 . S
O313 Dy303 2.491 . S
O314 Dy303 2.403 . S
O314 C309 1.254 . S
O315 Dy300 2.310 . S
O315 Dy303 2.664 . S
O315 C309 1.268 . S
O316 Dy300 2.351 . S
O316 C319 1.249 . S
O317 Dy303 2.326 . S
O317 C319 1.267 . S
C318 O310 1.249 . S
C318 O311 1.267 . S
C319 O316 1.249 . S
C319 O317 1.267 . S
C320 C321 1.391 . S
C320 C322 1.394 . S
C320 H336 0.931 . S
C321 C320 1.391 . S
C321 C325 1.376 . S
C322 C320 1.394 . S
C322 C323 1.369 . S
C322 C326 1.531 . S
C323 C322 1.369 . S
C323 C324 1.410 . S
C323 C331 1.503 . S
C324 C323 1.410 . S
C324 C325 1.392 . S
C324 C327 1.511 . S
C325 C321 1.376 . S
C325 C324 1.392 . S
C325 H337 0.929 . S
C326 C322 1.531 . S
C326 H338 0.960 . S
C326 H339 0.962 . S
C326 H340 0.960 . S
C327 C324 1.511 . S
C327 H341 0.961 . S
C327 H342 0.961 . S
C327 H343 0.961 . S
C328 C329 1.370 . S
C328 C330 1.363 . S
C328 H344 0.931 . S
C329 C328 1.370 . S
C329 C333 1.408 . S
C330 C328 1.363 . S
C330 C331 1.370 . S
C330 C334 1.524 . S
C331 C323 1.503 . S
C331 C330 1.370 . S
C331 C332 1.403 . S
C332 C331 1.403 . S
C332 C333 1.404 . S
C332 C335 1.539 . S
C333 C329 1.408 . S
C333 C332 1.404 . S
C333 H345 0.930 . S
C334 C330 1.524 . S
C334 H346 0.956 . S
C334 H347 0.961 . S
C334 H348 0.961 . S
C335 C332 1.539 . S
C335 H349 0.958 . S
C335 H350 0.961 . S
C335 H351 0.960 . S
H336 C320 0.931 . S
H337 C325 0.929 . S
H338 C326 0.960 . S
H339 C326 0.962 . S
H340 C326 0.960 . S
H341 C327 0.961 . S
H342 C327 0.961 . S
H343 C327 0.961 . S
H344 C328 0.931 . S
H345 C333 0.930 . S
H346 C334 0.956 . S
H347 C334 0.961 . S
H348 C334 0.961 . S
H349 C335 0.958 . S
H350 C335 0.961 . S
H351 C335 0.960 . S
C352 C353 1.391 . S
C352 C354 1.394 . S
C352 H368 0.931 . S
C353 C352 1.391 . S
C353 C357 1.376 . S
C354 C352 1.394 . S
C354 C355 1.369 . S
C354 C358 1.531 . S
C355 C354 1.369 . S
C355 C356 1.410 . S
C355 C363 1.503 . S
C356 C355 1.410 . S
C356 C357 1.392 . S
C356 C359 1.511 . S
C357 C353 1.376 . S
C357 C356 1.392 . S
C357 H369 0.929 . S
C358 C354 1.531 . S
C358 H370 0.960 . S
C358 H371 0.962 . S
C358 H372 0.960 . S
C359 C356 1.511 . S
C359 H373 0.961 . S
C359 H374 0.961 . S
C359 H375 0.961 . S
C360 C361 1.370 . S
C360 C362 1.363 . S
C360 H376 0.931 . S
C361 C360 1.370 . S
C361 C365 1.408 . S
C362 C360 1.363 . S
C362 C363 1.370 . S
C362 C366 1.524 . S
C363 C355 1.503 . S
C363 C362 1.370 . S
C363 C364 1.403 . S
C364 C363 1.403 . S
C364 C365 1.404 . S
C364 C367 1.539 . S
C365 C361 1.408 . S
C365 C364 1.404 . S
C365 H377 0.930 . S
C366 C362 1.524 . S
C366 H378 0.956 . S
C366 H379 0.961 . S
C366 H380 0.961 . S
C367 C364 1.539 . S
C367 H381 0.958 . S
C367 H382 0.961 . S
C367 H383 0.960 . S
H368 C352 0.931 . S
H369 C357 0.929 . S
H370 C358 0.960 . S
H371 C358 0.962 . S
H372 C358 0.960 . S
H373 C359 0.961 . S
H374 C359 0.961 . S
H375 C359 0.961 . S
H376 C360 0.931 . S
H377 C365 0.930 . S
H378 C366 0.956 . S
H379 C366 0.961 . S
H380 C366 0.961 . S
H381 C367 0.958 . S
H382 C367 0.961 . S
H383 C367 0.960 . S
C384 C385 1.391 . S
C384 C386 1.394 . S
C384 H400 0.931 . S
C385 C384 1.391 . S
C385 C389 1.376 . S
C386 C384 1.394 . S
C386 C387 1.369 . S
C386 C390 1.531 . S
C387 C386 1.369 . S
C387 C388 1.410 . S
C387 C395 1.503 . S
C388 C387 1.410 . S
C388 C389 1.392 . S
C388 C391 1.511 . S
C389 C385 1.376 . S
C389 C388 1.392 . S
C389 H401 0.929 . S
C390 C386 1.531 . S
C390 H402 0.960 . S
C390 H403 0.962 . S
C390 H404 0.960 . S
C391 C388 1.511 . S
C391 H405 0.961 . S
C391 H406 0.961 . S
C391 H407 0.961 . S
C392 C393 1.370 . S
C392 C394 1.363 . S
C392 H408 0.931 . S
C393 C392 1.370 . S
C393 C397 1.408 . S
C394 C392 1.363 . S
C394 C395 1.370 . S
C394 C398 1.524 . S
C395 C387 1.503 . S
C395 C394 1.370 . S
C395 C396 1.403 . S
C396 C395 1.403 . S
C396 C397 1.404 . S
C396 C399 1.539 . S
C397 C393 1.408 . S
C397 C396 1.404 . S
C397 H409 0.930 . S
C398 C394 1.524 . S
C398 H410 0.956 . S
C398 H411 0.961 . S
C398 H412 0.961 . S
C399 C396 1.539 . S
C399 H413 0.958 . S
C399 H414 0.961 . S
C399 H415 0.960 . S
H400 C384 0.931 . S
H401 C389 0.929 . S
H402 C390 0.960 . S
H403 C390 0.962 . S
H404 C390 0.960 . S
H405 C391 0.961 . S
H406 C391 0.961 . S
H407 C391 0.961 . S
H408 C392 0.931 . S
H409 C397 0.930 . S
H410 C398 0.956 . S
H411 C398 0.961 . S
H412 C398 0.961 . S
H413 C399 0.958 . S
H414 C399 0.961 . S
H415 C399 0.960 . S
C416 C417 1.391 . S
C416 C418 1.394 . S
C416 H432 0.931 . S
C417 C416 1.391 . S
C417 C421 1.376 . S
C418 C416 1.394 . S
C418 C419 1.369 . S
C418 C422 1.531 . S
C419 C418 1.369 . S
C419 C420 1.410 . S
C419 C427 1.503 . S
C420 C419 1.410 . S
C420 C421 1.392 . S
C420 C423 1.511 . S
C421 C417 1.376 . S
C421 C420 1.392 . S
C421 H433 0.929 . S
C422 C418 1.531 . S
C422 H434 0.960 . S
C422 H435 0.962 . S
C422 H436 0.960 . S
C423 C420 1.511 . S
C423 H437 0.961 . S
C423 H438 0.961 . S
C423 H439 0.961 . S
C424 C425 1.370 . S
C424 C426 1.363 . S
C424 H440 0.931 . S
C425 C424 1.370 . S
C425 C429 1.408 . S
C426 C424 1.363 . S
C426 C427 1.370 . S
C426 C430 1.524 . S
C427 C419 1.503 . S
C427 C426 1.370 . S
C427 C428 1.403 . S
C428 C427 1.403 . S
C428 C429 1.404 . S
C428 C431 1.539 . S
C429 C425 1.408 . S
C429 C428 1.404 . S
C429 H441 0.930 . S
C430 C426 1.524 . S
C430 H442 0.956 . S
C430 H443 0.961 . S
C430 H444 0.961 . S
C431 C428 1.539 . S
C431 H445 0.958 . S
C431 H446 0.961 . S
C431 H447 0.960 . S
H432 C416 0.931 . S
H433 C421 0.929 . S
H434 C422 0.960 . S
H435 C422 0.962 . S
H436 C422 0.960 . S
H437 C423 0.961 . S
H438 C423 0.961 . S
H439 C423 0.961 . S
H440 C424 0.931 . S
H441 C429 0.930 . S
H442 C430 0.956 . S
H443 C430 0.961 . S
H444 C430 0.961 . S
H445 C431 0.958 . S
H446 C431 0.961 . S
H447 C431 0.960 . S
C448 C449 1.391 . S
C448 C450 1.394 . S
C448 H464 0.931 . S
C449 C448 1.391 . S
C449 C453 1.376 . S
C450 C448 1.394 . S
C450 C451 1.369 . S
C450 C454 1.531 . S
C451 C450 1.369 . S
C451 C452 1.410 . S
C451 C459 1.503 . S
C452 C451 1.410 . S
C452 C453 1.392 . S
C452 C455 1.511 . S
C453 C449 1.376 . S
C453 C452 1.392 . S
C453 H465 0.929 . S
C454 C450 1.531 . S
C454 H466 0.960 . S
C454 H467 0.962 . S
C454 H468 0.960 . S
C455 C452 1.511 . S
C455 H469 0.961 . S
C455 H470 0.961 . S
C455 H471 0.961 . S
C456 C457 1.370 . S
C456 C458 1.363 . S
C456 H472 0.931 . S
C457 C456 1.370 . S
C457 C461 1.408 . S
C458 C456 1.363 . S
C458 C459 1.370 . S
C458 C462 1.524 . S
C459 C451 1.503 . S
C459 C458 1.370 . S
C459 C460 1.403 . S
C460 C459 1.403 . S
C460 C461 1.404 . S
C460 C463 1.539 . S
C461 C457 1.408 . S
C461 C460 1.404 . S
C461 H473 0.930 . S
C462 C458 1.524 . S
C462 H474 0.956 . S
C462 H475 0.961 . S
C462 H476 0.961 . S
C463 C460 1.539 . S
C463 H477 0.958 . S
C463 H478 0.961 . S
C463 H479 0.960 . S
H464 C448 0.931 . S
H465 C453 0.929 . S
H466 C454 0.960 . S
H467 C454 0.962 . S
H468 C454 0.960 . S
H469 C455 0.961 . S
H470 C455 0.961 . S
H471 C455 0.961 . S
H472 C456 0.931 . S
H473 C461 0.930 . S
H474 C462 0.956 . S
H475 C462 0.961 . S
H476 C462 0.961 . S
H477 C463 0.958 . S
H478 C463 0.961 . S
H479 C463 0.960 . S
C480 C481 1.391 . S
C480 C482 1.394 . S
C480 H496 0.931 . S
C481 C480 1.391 . S
C481 C485 1.376 . S
C482 C480 1.394 . S
C482 C483 1.369 . S
C482 C486 1.531 . S
C483 C482 1.369 . S
C483 C484 1.410 . S
C483 C491 1.503 . S
C484 C483 1.410 . S
C484 C485 1.392 . S
C484 C487 1.511 . S
C485 C481 1.376 . S
C485 C484 1.392 . S
C485 H497 0.929 . S
C486 C482 1.531 . S
C486 H498 0.960 . S
C486 H499 0.962 . S
C486 H500 0.960 . S
C487 C484 1.511 . S
C487 H501 0.961 . S
C487 H502 0.961 . S
C487 H503 0.961 . S
C488 C489 1.370 . S
C488 C490 1.363 . S
C488 H504 0.931 . S
C489 C488 1.370 . S
C489 C493 1.408 . S
C490 C488 1.363 . S
C490 C491 1.370 . S
C490 C494 1.524 . S
C491 C483 1.503 . S
C491 C490 1.370 . S
C491 C492 1.403 . S
C492 C491 1.403 . S
C492 C493 1.404 . S
C492 C495 1.539 . S
C493 C489 1.408 . S
C493 C492 1.404 . S
C493 H505 0.930 . S
C494 C490 1.524 . S
C494 H506 0.956 . S
C494 H507 0.961 . S
C494 H508 0.961 . S
C495 C492 1.539 . S
C495 H509 0.958 . S
C495 H510 0.961 . S
C495 H511 0.960 . S
H496 C480 0.931 . S
H497 C485 0.929 . S
H498 C486 0.960 . S
H499 C486 0.962 . S
H500 C486 0.960 . S
H501 C487 0.961 . S
H502 C487 0.961 . S
H503 C487 0.961 . S
H504 C488 0.931 . S
H505 C493 0.930 . S
H506 C494 0.956 . S
H507 C494 0.961 . S
H508 C494 0.961 . S
H509 C495 0.958 . S
H510 C495 0.961 . S
H511 C495 0.960 . S
C512 C513 1.391 . S
C512 C514 1.394 . S
C512 H528 0.931 . S
C513 C512 1.391 . S
C513 C517 1.376 . S
C514 C512 1.394 . S
C514 C515 1.369 . S
C514 C518 1.531 . S
C515 C514 1.369 . S
C515 C516 1.410 . S
C515 C523 1.503 . S
C516 C515 1.410 . S
C516 C517 1.392 . S
C516 C519 1.511 . S
C517 C513 1.376 . S
C517 C516 1.392 . S
C517 H529 0.929 . S
C518 C514 1.531 . S
C518 H530 0.960 . S
C518 H531 0.962 . S
C518 H532 0.960 . S
C519 C516 1.511 . S
C519 H533 0.961 . S
C519 H534 0.961 . S
C519 H535 0.961 . S
C520 C521 1.370 . S
C520 C522 1.363 . S
C520 H536 0.931 . S
C521 C520 1.370 . S
C521 C525 1.408 . S
C522 C520 1.363 . S
C522 C523 1.370 . S
C522 C526 1.524 . S
C523 C515 1.503 . S
C523 C522 1.370 . S
C523 C524 1.403 . S
C524 C523 1.403 . S
C524 C525 1.404 . S
C524 C527 1.539 . S
C525 C521 1.408 . S
C525 C524 1.404 . S
C525 H537 0.930 . S
C526 C522 1.524 . S
C526 H538 0.956 . S
C526 H539 0.961 . S
C526 H540 0.961 . S
C527 C524 1.539 . S
C527 H541 0.958 . S
C527 H542 0.961 . S
C527 H543 0.960 . S
H528 C512 0.931 . S
H529 C517 0.929 . S
H530 C518 0.960 . S
H531 C518 0.962 . S
H532 C518 0.960 . S
H533 C519 0.961 . S
H534 C519 0.961 . S
H535 C519 0.961 . S
H536 C520 0.931 . S
H537 C525 0.930 . S
H538 C526 0.956 . S
H539 C526 0.961 . S
H540 C526 0.961 . S
H541 C527 0.958 . S
H542 C527 0.961 . S
H543 C527 0.960 . S
C544 C545 1.391 . S
C544 C546 1.394 . S
C544 H560 0.931 . S
C545 C544 1.391 . S
C545 C549 1.376 . S
C546 C544 1.394 . S
C546 C547 1.369 . S
C546 C550 1.531 . S
C547 C546 1.369 . S
C547 C548 1.410 . S
C547 C555 1.503 . S
C548 C547 1.410 . S
C548 C549 1.392 . S
C548 C551 1.511 . S
C549 C545 1.376 . S
C549 C548 1.392 . S
C549 H561 0.929 . S
C550 C546 1.531 . S
C550 H562 0.960 . S
C550 H563 0.962 . S
C550 H564 0.960 . S
C551 C548 1.511 . S
C551 H565 0.961 . S
C551 H566 0.961 . S
C551 H567 0.961 . S
C552 C553 1.370 . S
C552 C554 1.363 . S
C552 H568 0.931 . S
C553 C552 1.370 . S
C553 C557 1.408 . S
C554 C552 1.363 . S
C554 C555 1.370 . S
C554 C558 1.524 . S
C555 C547 1.503 . S
C555 C554 1.370 . S
C555 C556 1.403 . S
C556 C555 1.403 . S
C556 C557 1.404 . S
C556 C559 1.539 . S
C557 C553 1.408 . S
C557 C556 1.404 . S
C557 H569 0.930 . S
C558 C554 1.524 . S
C558 H570 0.956 . S
C558 H571 0.961 . S
C558 H572 0.961 . S
C559 C556 1.539 . S
C559 H573 0.958 . S
C559 H574 0.961 . S
C559 H575 0.960 . S
H560 C544 0.931 . S
H561 C549 0.929 . S
H562 C550 0.960 . S
H563 C550 0.962 . S
H564 C550 0.960 . S
H565 C551 0.961 . S
H566 C551 0.961 . S
H567 C551 0.961 . S
H568 C552 0.931 . S
H569 C557 0.930 . S
H570 C558 0.956 . S
H571 C558 0.961 . S
H572 C558 0.961 . S
H573 C559 0.958 . S
H574 C559 0.961 . S
H575 C559 0.960 . S
C576 C577 1.391 . S
C576 C578 1.394 . S
C576 H592 0.931 . S
C577 C576 1.391 . S
C577 C581 1.376 . S
C578 C576 1.394 . S
C578 C579 1.369 . S
C578 C582 1.531 . S
C579 C578 1.369 . S
C579 C580 1.410 . S
C579 C587 1.503 . S
C580 C579 1.410 . S
C580 C581 1.392 . S
C580 C583 1.511 . S
C581 C577 1.376 . S
C581 C580 1.392 . S
C581 H593 0.929 . S
C582 C578 1.531 . S
C582 H594 0.960 . S
C582 H595 0.962 . S
C582 H596 0.960 . S
C583 C580 1.511 . S
C583 H597 0.961 . S
C583 H598 0.961 . S
C583 H599 0.961 . S
C584 C585 1.370 . S
C584 C586 1.363 . S
C584 H600 0.931 . S
C585 C584 1.370 . S
C585 C589 1.408 . S
C586 C584 1.363 . S
C586 C587 1.370 . S
C586 C590 1.524 . S
C587 C579 1.503 . S
C587 C586 1.370 . S
C587 C588 1.403 . S
C588 C587 1.403 . S
C588 C589 1.404 . S
C588 C591 1.539 . S
C589 C585 1.408 . S
C589 C588 1.404 . S
C589 H601 0.930 . S
C590 C586 1.524 . S
C590 H602 0.956 . S
C590 H603 0.961 . S
C590 H604 0.961 . S
C591 C588 1.539 . S
C591 H605 0.958 . S
C591 H606 0.961 . S
C591 H607 0.960 . S
H592 C576 0.931 . S
H593 C581 0.929 . S
H594 C582 0.960 . S
H595 C582 0.962 . S
H596 C582 0.960 . S
H597 C583 0.961 . S
H598 C583 0.961 . S
H599 C583 0.961 . S
H600 C584 0.931 . S
H601 C589 0.930 . S
H602 C590 0.956 . S
H603 C590 0.961 . S
H604 C590 0.961 . S
H605 C591 0.958 . S
H606 C591 0.961 . S
H607 C591 0.960 . S
C608 C609 1.391 . S
C608 C610 1.394 . S
C608 H624 0.931 . S
C609 C608 1.391 . S
C609 C613 1.376 . S
C610 C608 1.394 . S
C610 C611 1.369 . S
C610 C614 1.531 . S
C611 C610 1.369 . S
C611 C612 1.410 . S
C611 C619 1.503 . S
C612 C611 1.410 . S
C612 C613 1.392 . S
C612 C615 1.511 . S
C613 C609 1.376 . S
C613 C612 1.392 . S
C613 H625 0.929 . S
C614 C610 1.531 . S
C614 H626 0.960 . S
C614 H627 0.962 . S
C614 H628 0.960 . S
C615 C612 1.511 . S
C615 H629 0.961 . S
C615 H630 0.961 . S
C615 H631 0.961 . S
C616 C617 1.370 . S
C616 C618 1.363 . S
C616 H632 0.931 . S
C617 C616 1.370 . S
C617 C621 1.408 . S
C618 C616 1.363 . S
C618 C619 1.370 . S
C618 C622 1.524 . S
C619 C611 1.503 . S
C619 C618 1.370 . S
C619 C620 1.403 . S
C620 C619 1.403 . S
C620 C621 1.404 . S
C620 C623 1.539 . S
C621 C617 1.408 . S
C621 C620 1.404 . S
C621 H633 0.930 . S
C622 C618 1.524 . S
C622 H634 0.956 . S
C622 H635 0.961 . S
C622 H636 0.961 . S
C623 C620 1.539 . S
C623 H637 0.958 . S
C623 H638 0.961 . S
C623 H639 0.960 . S
H624 C608 0.931 . S
H625 C613 0.929 . S
H626 C614 0.960 . S
H627 C614 0.962 . S
H628 C614 0.960 . S
H629 C615 0.961 . S
H630 C615 0.961 . S
H631 C615 0.961 . S
H632 C616 0.931 . S
H633 C621 0.930 . S
H634 C622 0.956 . S
H635 C622 0.961 . S
H636 C622 0.961 . S
H637 C623 0.958 . S
H638 C623 0.961 . S
H639 C623 0.960 . S
C640 C641 1.391 . S
C640 C642 1.394 . S
C640 H656 0.931 . S
C641 C640 1.391 . S
C641 C645 1.376 . S
C642 C640 1.394 . S
C642 C643 1.369 . S
C642 C646 1.531 . S
C643 C642 1.369 . S
C643 C644 1.410 . S
C643 C651 1.503 . S
C644 C643 1.410 . S
C644 C645 1.392 . S
C644 C647 1.511 . S
C645 C641 1.376 . S
C645 C644 1.392 . S
C645 H657 0.929 . S
C646 C642 1.531 . S
C646 H658 0.960 . S
C646 H659 0.962 . S
C646 H660 0.960 . S
C647 C644 1.511 . S
C647 H661 0.961 . S
C647 H662 0.961 . S
C647 H663 0.961 . S
C648 C649 1.370 . S
C648 C650 1.363 . S
C648 H664 0.931 . S
C649 C648 1.370 . S
C649 C653 1.408 . S
C650 C648 1.363 . S
C650 C651 1.370 . S
C650 C654 1.524 . S
C651 C643 1.503 . S
C651 C650 1.370 . S
C651 C652 1.403 . S
C652 C651 1.403 . S
C652 C653 1.404 . S
C652 C655 1.539 . S
C653 C649 1.408 . S
C653 C652 1.404 . S
C653 H665 0.930 . S
C654 C650 1.524 . S
C654 H666 0.956 . S
C654 H667 0.961 . S
C654 H668 0.961 . S
C655 C652 1.539 . S
C655 H669 0.958 . S
C655 H670 0.961 . S
C655 H671 0.960 . S
H656 C640 0.931 . S
H657 C645 0.929 . S
H658 C646 0.960 . S
H659 C646 0.962 . S
H660 C646 0.960 . S
H661 C647 0.961 . S
H662 C647 0.961 . S
H663 C647 0.961 . S
H664 C648 0.931 . S
H665 C653 0.930 . S
H666 C654 0.956 . S
H667 C654 0.961 . S
H668 C654 0.961 . S
H669 C655 0.958 . S
H670 C655 0.961 . S
H671 C655 0.960 . S
C672 C673 1.391 . S
C672 C674 1.394 . S
C672 H688 0.931 . S
C673 C672 1.391 . S
C673 C677 1.376 . S
C674 C672 1.394 . S
C674 C675 1.369 . S
C674 C678 1.531 . S
C675 C674 1.369 . S
C675 C676 1.410 . S
C675 C683 1.503 . S
C676 C675 1.410 . S
C676 C677 1.392 . S
C676 C679 1.511 . S
C677 C673 1.376 . S
C677 C676 1.392 . S
C677 H689 0.929 . S
C678 C674 1.531 . S
C678 H690 0.960 . S
C678 H691 0.962 . S
C678 H692 0.960 . S
C679 C676 1.511 . S
C679 H693 0.961 . S
C679 H694 0.961 . S
C679 H695 0.961 . S
C680 C681 1.370 . S
C680 C682 1.363 . S
C680 H696 0.931 . S
C681 C680 1.370 . S
C681 C685 1.408 . S
C682 C680 1.363 . S
C682 C683 1.370 . S
C682 C686 1.524 . S
C683 C675 1.503 . S
C683 C682 1.370 . S
C683 C684 1.403 . S
C684 C683 1.403 . S
C684 C685 1.404 . S
C684 C687 1.539 . S
C685 C681 1.408 . S
C685 C684 1.404 . S
C685 H697 0.930 1_455 S
C686 C682 1.524 . S
C686 H698 0.956 . S
C686 H699 0.961 . S
C686 H700 0.961 . S
C687 C684 1.539 . S
C687 H701 0.958 . S
C687 H702 0.961 1_455 S
C687 H703 0.960 . S
H688 C672 0.931 . S
H689 C677 0.929 . S
H690 C678 0.960 . S
H691 C678 0.962 . S
H692 C678 0.960 . S
H693 C679 0.961 . S
H694 C679 0.961 . S
H695 C679 0.961 . S
H696 C680 0.931 . S
H697 C685 0.930 1_655 S
H698 C686 0.956 . S
H699 C686 0.961 . S
H700 C686 0.961 . S
H701 C687 0.958 . S
H702 C687 0.961 1_655 S
H703 C687 0.960 . S
C704 C705 1.391 . S
C704 C706 1.394 . S
C704 H720 0.931 . S
C705 C704 1.391 . S
C705 C709 1.376 . S
C706 C704 1.394 . S
C706 C707 1.369 . S
C706 C710 1.531 . S
C707 C706 1.369 . S
C707 C708 1.410 . S
C707 C715 1.503 . S
C708 C707 1.410 . S
C708 C709 1.392 . S
C708 C711 1.511 . S
C709 C705 1.376 . S
C709 C708 1.392 . S
C709 H721 0.929 . S
C710 C706 1.531 . S
C710 H722 0.960 . S
C710 H723 0.962 . S
C710 H724 0.960 . S
C711 C708 1.511 . S
C711 H725 0.961 . S
C711 H726 0.961 . S
C711 H727 0.961 . S
C712 C713 1.370 . S
C712 C714 1.363 . S
C712 H728 0.931 1_565 S
C713 C712 1.370 . S
C713 C717 1.408 . S
C714 C712 1.363 . S
C714 C715 1.370 . S
C714 C718 1.524 . S
C715 C707 1.503 . S
C715 C714 1.370 . S
C715 C716 1.403 . S
C716 C715 1.403 . S
C716 C717 1.404 . S
C716 C719 1.539 . S
C717 C713 1.408 . S
C717 C716 1.404 . S
C717 H729 0.930 . S
C718 C714 1.524 . S
C718 H730 0.956 . S
C718 H731 0.961 . S
C718 H732 0.961 . S
C719 C716 1.539 . S
C719 H733 0.958 . S
C719 H734 0.961 . S
C719 H735 0.960 . S
H720 C704 0.931 . S
H721 C709 0.929 . S
H722 C710 0.960 . S
H723 C710 0.962 . S
H724 C710 0.960 . S
H725 C711 0.961 . S
H726 C711 0.961 . S
H727 C711 0.961 . S
H728 C712 0.931 1_545 S
H729 C717 0.930 . S
H730 C718 0.956 . S
H731 C718 0.961 . S
H732 C718 0.961 . S
H733 C719 0.958 . S
H734 C719 0.961 . S
H735 C719 0.960 . S
C736 C737 1.391 . S
C736 C738 1.394 . S
C736 H752 0.931 . S
C737 C736 1.391 . S
C737 C741 1.376 . S
C738 C736 1.394 . S
C738 C739 1.369 . S
C738 C742 1.531 . S
C739 C738 1.369 . S
C739 C740 1.410 . S
C739 C747 1.503 . S
C740 C739 1.410 . S
C740 C741 1.392 . S
C740 C743 1.511 . S
C741 C737 1.376 . S
C741 C740 1.392 . S
C741 H753 0.929 . S
C742 C738 1.531 . S
C742 H754 0.960 . S
C742 H755 0.962 . S
C742 H756 0.960 . S
C743 C740 1.511 . S
C743 H757 0.961 . S
C743 H758 0.961 . S
C743 H759 0.961 . S
C744 C745 1.370 . S
C744 C746 1.363 . S
C744 H760 0.931 . S
C745 C744 1.370 . S
C745 C749 1.408 . S
C746 C744 1.363 . S
C746 C747 1.370 . S
C746 C750 1.524 . S
C747 C739 1.503 . S
C747 C746 1.370 . S
C747 C748 1.403 . S
C748 C747 1.403 . S
C748 C749 1.404 . S
C748 C751 1.539 . S
C749 C745 1.408 . S
C749 C748 1.404 . S
C749 H761 0.930 . S
C750 C746 1.524 . S
C750 H762 0.956 . S
C750 H763 0.961 . S
C750 H764 0.961 . S
C751 C748 1.539 . S
C751 H765 0.958 . S
C751 H766 0.961 . S
C751 H767 0.960 . S
H752 C736 0.931 . S
H753 C741 0.929 . S
H754 C742 0.960 . S
H755 C742 0.962 . S
H756 C742 0.960 . S
H757 C743 0.961 . S
H758 C743 0.961 . S
H759 C743 0.961 . S
H760 C744 0.931 . S
H761 C749 0.930 . S
H762 C750 0.956 . S
H763 C750 0.961 . S
H764 C750 0.961 . S
H765 C751 0.958 . S
H766 C751 0.961 . S
H767 C751 0.960 . S
C768 C769 1.391 . S
C768 C770 1.394 . S
C768 H784 0.931 . S
C769 C768 1.391 . S
C769 C773 1.376 . S
C770 C768 1.394 . S
C770 C771 1.369 . S
C770 C774 1.531 . S
C771 C770 1.369 . S
C771 C772 1.410 . S
C771 C779 1.503 . S
C772 C771 1.410 . S
C772 C773 1.392 . S
C772 C775 1.511 . S
C773 C769 1.376 . S
C773 C772 1.392 . S
C773 H785 0.929 . S
C774 C770 1.531 . S
C774 H786 0.960 . S
C774 H787 0.962 . S
C774 H788 0.960 . S
C775 C772 1.511 . S
C775 H789 0.961 . S
C775 H790 0.961 . S
C775 H791 0.961 . S
C776 C777 1.370 . S
C776 C778 1.363 . S
C776 H792 0.931 . S
C777 C776 1.370 . S
C777 C781 1.408 . S
C778 C776 1.363 . S
C778 C779 1.370 . S
C778 C782 1.524 . S
C779 C771 1.503 . S
C779 C778 1.370 . S
C779 C780 1.403 . S
C780 C779 1.403 . S
C780 C781 1.404 . S
C780 C783 1.539 . S
C781 C777 1.408 . S
C781 C780 1.404 . S
C781 H793 0.930 . S
C782 C778 1.524 . S
C782 H794 0.956 . S
C782 H795 0.961 . S
C782 H796 0.961 . S
C783 C780 1.539 . S
C783 H797 0.958 . S
C783 H798 0.961 . S
C783 H799 0.960 . S
H784 C768 0.931 . S
H785 C773 0.929 . S
H786 C774 0.960 . S
H787 C774 0.962 . S
H788 C774 0.960 . S
H789 C775 0.961 . S
H790 C775 0.961 . S
H791 C775 0.961 . S
H792 C776 0.931 . S
H793 C781 0.930 . S
H794 C782 0.956 . S
H795 C782 0.961 . S
H796 C782 0.961 . S
H797 C783 0.958 . S
H798 C783 0.961 . S
H799 C783 0.960 . S
C800 C801 1.391 . S
C800 C802 1.394 . S
C800 H816 0.931 . S
C801 C800 1.391 . S
C801 C805 1.376 . S
C802 C800 1.394 . S
C802 C803 1.369 . S
C802 C806 1.531 . S
C803 C802 1.369 . S
C803 C804 1.410 . S
C803 C811 1.503 . S
C804 C803 1.410 . S
C804 C805 1.392 . S
C804 C807 1.511 . S
C805 C801 1.376 . S
C805 C804 1.392 . S
C805 H817 0.929 . S
C806 C802 1.531 . S
C806 H818 0.960 . S
C806 H819 0.962 . S
C806 H820 0.960 . S
C807 C804 1.511 . S
C807 H821 0.961 . S
C807 H822 0.961 . S
C807 H823 0.961 . S
C808 C809 1.370 . S
C808 C810 1.363 . S
C808 H824 0.931 . S
C809 C808 1.370 . S
C809 C813 1.408 . S
C810 C808 1.363 . S
C810 C811 1.370 . S
C810 C814 1.524 . S
C811 C803 1.503 . S
C811 C810 1.370 . S
C811 C812 1.403 . S
C812 C811 1.403 . S
C812 C813 1.404 . S
C812 C815 1.539 . S
C813 C809 1.408 . S
C813 C812 1.404 . S
C813 H825 0.930 . S
C814 C810 1.524 . S
C814 H826 0.956 . S
C814 H827 0.961 . S
C814 H828 0.961 . S
C815 C812 1.539 . S
C815 H829 0.958 . S
C815 H830 0.961 . S
C815 H831 0.960 . S
H816 C800 0.931 . S
H817 C805 0.929 . S
H818 C806 0.960 . S
H819 C806 0.962 . S
H820 C806 0.960 . S
H821 C807 0.961 . S
H822 C807 0.961 . S
H823 C807 0.961 . S
H824 C808 0.931 . S
H825 C813 0.930 . S
H826 C814 0.956 . S
H827 C814 0.961 . S
H828 C814 0.961 . S
H829 C815 0.958 . S
H830 C815 0.961 . S
H831 C815 0.960 . S
C832 C833 1.391 . S
C832 C834 1.394 . S
C832 H848 0.931 . S
C833 C832 1.391 . S
C833 C837 1.376 . S
C834 C832 1.394 . S
C834 C835 1.369 . S
C834 C838 1.531 . S
C835 C834 1.369 . S
C835 C836 1.410 . S
C835 C843 1.503 . S
C836 C835 1.410 . S
C836 C837 1.392 . S
C836 C839 1.511 . S
C837 C833 1.376 . S
C837 C836 1.392 . S
C837 H849 0.929 1_565 S
C838 C834 1.531 . S
C838 H850 0.960 . S
C838 H851 0.962 . S
C838 H852 0.960 . S
C839 C836 1.511 . S
C839 H853 0.961 1_565 S
C839 H854 0.961 . S
C839 H855 0.961 . S
C840 C841 1.370 . S
C840 C842 1.363 . S
C840 H856 0.931 . S
C841 C840 1.370 . S
C841 C845 1.408 . S
C842 C840 1.363 . S
C842 C843 1.370 . S
C842 C846 1.524 . S
C843 C835 1.503 . S
C843 C842 1.370 . S
C843 C844 1.403 . S
C844 C843 1.403 . S
C844 C845 1.404 . S
C844 C847 1.539 . S
C845 C841 1.408 . S
C845 C844 1.404 . S
C845 H857 0.930 . S
C846 C842 1.524 . S
C846 H858 0.956 . S
C846 H859 0.961 . S
C846 H860 0.961 . S
C847 C844 1.539 . S
C847 H861 0.958 . S
C847 H862 0.961 . S
C847 H863 0.960 . S
H848 C832 0.931 . S
H849 C837 0.929 1_545 S
H850 C838 0.960 . S
H851 C838 0.962 . S
H852 C838 0.960 . S
H853 C839 0.961 1_545 S
H854 C839 0.961 . S
H855 C839 0.961 . S
H856 C840 0.931 . S
H857 C845 0.930 . S
H858 C846 0.956 . S
H859 C846 0.961 . S
H860 C846 0.961 . S
H861 C847 0.958 . S
H862 C847 0.961 . S
H863 C847 0.960 . S
C864 C865 1.391 . S
C864 C866 1.394 . S
C864 H880 0.931 . S
C865 C864 1.391 . S
C865 C869 1.376 . S
C866 C864 1.394 . S
C866 C867 1.369 . S
C866 C870 1.531 . S
C867 C866 1.369 . S
C867 C868 1.410 . S
C867 C875 1.503 . S
C868 C867 1.410 . S
C868 C869 1.392 . S
C868 C871 1.511 . S
C869 C865 1.376 . S
C869 C868 1.392 . S
C869 H881 0.929 . S
C870 C866 1.531 . S
C870 H882 0.960 . S
C870 H883 0.962 . S
C870 H884 0.960 . S
C871 C868 1.511 . S
C871 H885 0.961 . S
C871 H886 0.961 . S
C871 H887 0.961 . S
C872 C873 1.370 . S
C872 C874 1.363 . S
C872 H888 0.931 . S
C873 C872 1.370 . S
C873 C877 1.408 . S
C874 C872 1.363 . S
C874 C875 1.370 . S
C874 C878 1.524 . S
C875 C867 1.503 . S
C875 C874 1.370 . S
C875 C876 1.403 . S
C876 C875 1.403 . S
C876 C877 1.404 . S
C876 C879 1.539 . S
C877 C873 1.408 . S
C877 C876 1.404 . S
C877 H889 0.930 . S
C878 C874 1.524 . S
C878 H890 0.956 . S
C878 H891 0.961 . S
C878 H892 0.961 . S
C879 C876 1.539 . S
C879 H893 0.958 . S
C879 H894 0.961 . S
C879 H895 0.960 . S
H880 C864 0.931 . S
H881 C869 0.929 . S
H882 C870 0.960 . S
H883 C870 0.962 . S
H884 C870 0.960 . S
H885 C871 0.961 . S
H886 C871 0.961 . S
H887 C871 0.961 . S
H888 C872 0.931 . S
H889 C877 0.930 . S
H890 C878 0.956 . S
H891 C878 0.961 . S
H892 C878 0.961 . S
H893 C879 0.958 . S
H894 C879 0.961 . S
H895 C879 0.960 . S
C896 C897 1.391 . S
C896 C898 1.394 . S
C896 H912 0.931 . S
C897 C896 1.391 . S
C897 C901 1.376 . S
C898 C896 1.394 . S
C898 C899 1.369 . S
C898 C902 1.531 . S
C899 C898 1.369 . S
C899 C900 1.410 . S
C899 C907 1.503 . S
C900 C899 1.410 . S
C900 C901 1.392 . S
C900 C903 1.511 . S
C901 C897 1.376 . S
C901 C900 1.392 . S
C901 H913 0.929 . S
C902 C898 1.531 . S
C902 H914 0.960 . S
C902 H915 0.962 . S
C902 H916 0.960 . S
C903 C900 1.511 . S
C903 H917 0.961 . S
C903 H918 0.961 . S
C903 H919 0.961 . S
C904 C905 1.370 . S
C904 C906 1.363 . S
C904 H920 0.931 . S
C905 C904 1.370 . S
C905 C909 1.408 . S
C906 C904 1.363 . S
C906 C907 1.370 . S
C906 C910 1.524 . S
C907 C899 1.503 . S
C907 C906 1.370 . S
C907 C908 1.403 . S
C908 C907 1.403 . S
C908 C909 1.404 . S
C908 C911 1.539 . S
C909 C905 1.408 . S
C909 C908 1.404 . S
C909 H921 0.930 . S
C910 C906 1.524 . S
C910 H922 0.956 . S
C910 H923 0.961 . S
C910 H924 0.961 . S
C911 C908 1.539 . S
C911 H925 0.958 . S
C911 H926 0.961 . S
C911 H927 0.960 . S
H912 C896 0.931 . S
H913 C901 0.929 . S
H914 C902 0.960 . S
H915 C902 0.962 . S
H916 C902 0.960 . S
H917 C903 0.961 . S
H918 C903 0.961 . S
H919 C903 0.961 . S
H920 C904 0.931 . S
H921 C909 0.930 . S
H922 C910 0.956 . S
H923 C910 0.961 . S
H924 C910 0.961 . S
H925 C911 0.958 . S
H926 C911 0.961 . S
H927 C911 0.960 . S
C928 C929 1.391 . S
C928 C930 1.394 . S
C928 H944 0.931 . S
C929 C928 1.391 . S
C929 C933 1.376 . S
C930 C928 1.394 . S
C930 C931 1.369 . S
C930 C934 1.531 . S
C931 C930 1.369 . S
C931 C932 1.410 . S
C931 C939 1.503 . S
C932 C931 1.410 . S
C932 C933 1.392 . S
C932 C935 1.511 . S
C933 C929 1.376 . S
C933 C932 1.392 . S
C933 H945 0.929 . S
C934 C930 1.531 . S
C934 H946 0.960 . S
C934 H947 0.962 . S
C934 H948 0.960 . S
C935 C932 1.511 . S
C935 H949 0.961 . S
C935 H950 0.961 . S
C935 H951 0.961 . S
C936 C937 1.370 . S
C936 C938 1.363 . S
C936 H952 0.931 . S
C937 C936 1.370 . S
C937 C941 1.408 . S
C938 C936 1.363 . S
C938 C939 1.370 . S
C938 C942 1.524 . S
C939 C931 1.503 . S
C939 C938 1.370 . S
C939 C940 1.403 . S
C940 C939 1.403 . S
C940 C941 1.404 . S
C940 C943 1.539 . S
C941 C937 1.408 . S
C941 C940 1.404 . S
C941 H953 0.930 1_655 S
C942 C938 1.524 . S
C942 H954 0.956 . S
C942 H955 0.961 . S
C942 H956 0.961 . S
C943 C940 1.539 . S
C943 H957 0.957 . S
C943 H958 0.961 1_655 S
C943 H959 0.960 . S
H944 C928 0.931 . S
H945 C933 0.929 . S
H946 C934 0.960 . S
H947 C934 0.962 . S
H948 C934 0.960 . S
H949 C935 0.961 . S
H950 C935 0.961 . S
H951 C935 0.961 . S
H952 C936 0.931 . S
H953 C941 0.930 1_455 S
H954 C942 0.956 . S
H955 C942 0.961 . S
H956 C942 0.961 . S
H957 C943 0.957 . S
H958 C943 0.961 1_455 S
H959 C943 0.960 . S
C960 C961 1.391 . S
C960 C962 1.394 . S
C960 H976 0.931 . S
C961 C960 1.391 . S
C961 C965 1.376 . S
C962 C960 1.394 . S
C962 C963 1.369 . S
C962 C966 1.531 . S
C963 C962 1.369 . S
C963 C964 1.410 . S
C963 C971 1.503 . S
C964 C963 1.410 . S
C964 C965 1.392 . S
C964 C967 1.511 . S
C965 C961 1.376 . S
C965 C964 1.392 . S
C965 H977 0.929 . S
C966 C962 1.531 . S
C966 H978 0.960 . S
C966 H979 0.962 . S
C966 H980 0.960 . S
C967 C964 1.511 . S
C967 H981 0.961 . S
C967 H982 0.961 . S
C967 H983 0.961 . S
C968 C969 1.370 . S
C968 C970 1.363 . S
C968 H984 0.931 1_545 S
C969 C968 1.370 . S
C969 C973 1.408 . S
C970 C968 1.363 . S
C970 C971 1.370 . S
C970 C974 1.524 . S
C971 C963 1.503 . S
C971 C970 1.370 . S
C971 C972 1.403 . S
C972 C971 1.403 . S
C972 C973 1.404 . S
C972 C975 1.539 . S
C973 C969 1.408 . S
C973 C972 1.404 . S
C973 H985 0.930 . S
C974 C970 1.524 . S
C974 H986 0.956 . S
C974 H987 0.961 . S
C974 H988 0.966 . S
C975 C972 1.539 . S
C975 H989 0.958 . S
C975 H990 0.961 . S
C975 H991 0.960 . S
H976 C960 0.931 . S
H977 C965 0.929 . S
H978 C966 0.960 . S
H979 C966 0.962 . S
H980 C966 0.960 . S
H981 C967 0.961 . S
H982 C967 0.961 . S
H983 C967 0.961 . S
H984 C968 0.931 1_565 S
H985 C973 0.930 . S
H986 C974 0.956 . S
H987 C974 0.961 . S
H988 C974 0.966 . S
H989 C975 0.958 . S
H990 C975 0.961 . S
H991 C975 0.960 . S
C992 C993 1.391 . S
C992 C994 1.394 . S
C992 H1008 0.931 . S
C993 C992 1.391 . S
C993 C997 1.376 . S
C994 C992 1.394 . S
C994 C995 1.369 . S
C994 C998 1.531 . S
C995 C994 1.369 . S
C995 C996 1.410 . S
C995 C1003 1.503 . S
C996 C995 1.410 . S
C996 C997 1.392 . S
C996 C999 1.511 . S
C997 C993 1.376 . S
C997 C996 1.392 . S
C997 H1009 0.929 . S
C998 C994 1.531 . S
C998 H1010 0.960 . S
C998 H1011 0.962 . S
C998 H1012 0.960 . S
C999 C996 1.511 . S
C999 H1013 0.961 . S
C999 H1014 0.961 . S
C999 H1015 0.961 . S
C1000 C1001 1.370 . S
C1000 C1002 1.363 . S
C1000 H1016 0.931 . S
C1001 C1000 1.370 . S
C1001 C1005 1.408 . S
C1002 C1000 1.363 . S
C1002 C1003 1.370 . S
C1002 C1006 1.524 . S
C1003 C995 1.503 . S
C1003 C1002 1.370 . S
C1003 C1004 1.403 . S
C1004 C1003 1.403 . S
C1004 C1005 1.404 . S
C1004 C1007 1.539 . S
C1005 C1001 1.408 . S
C1005 C1004 1.404 . S
C1005 H1017 0.930 . S
C1006 C1002 1.524 . S
C1006 H1018 0.956 . S
C1006 H1019 0.961 . S
C1006 H1020 0.961 . S
C1007 C1004 1.539 . S
C1007 H1021 0.958 . S
C1007 H1022 0.961 . S
C1007 H1023 0.960 . S
H1008 C992 0.931 . S
H1009 C997 0.929 . S
H1010 C998 0.960 . S
H1011 C998 0.962 . S
H1012 C998 0.960 . S
H1013 C999 0.961 . S
H1014 C999 0.961 . S
H1015 C999 0.961 . S
H1016 C1000 0.931 . S
H1017 C1005 0.930 . S
H1018 C1006 0.956 . S
H1019 C1006 0.961 . S
H1020 C1006 0.961 . S
H1021 C1007 0.958 . S
H1022 C1007 0.961 . S
H1023 C1007 0.960 . S
C1024 C1025 1.391 . S
C1024 C1026 1.394 . S
C1024 H1040 0.931 . S
C1025 C1024 1.391 . S
C1025 C1029 1.376 . S
C1026 C1024 1.394 . S
C1026 C1027 1.369 . S
C1026 C1030 1.531 . S
C1027 C1026 1.369 . S
C1027 C1028 1.410 . S
C1027 C1035 1.503 . S
C1028 C1027 1.410 . S
C1028 C1029 1.392 . S
C1028 C1031 1.511 . S
C1029 C1025 1.376 . S
C1029 C1028 1.392 . S
C1029 H1041 0.929 . S
C1030 C1026 1.531 . S
C1030 H1042 0.960 . S
C1030 H1043 0.962 . S
C1030 H1044 0.960 . S
C1031 C1028 1.511 . S
C1031 H1045 0.961 . S
C1031 H1046 0.961 . S
C1031 H1047 0.961 . S
C1032 C1033 1.370 . S
C1032 C1034 1.363 . S
C1032 H1048 0.931 . S
C1033 C1032 1.370 . S
C1033 C1037 1.408 . S
C1034 C1032 1.363 . S
C1034 C1035 1.370 . S
C1034 C1038 1.524 . S
C1035 C1027 1.503 . S
C1035 C1034 1.370 . S
C1035 C1036 1.403 . S
C1036 C1035 1.403 . S
C1036 C1037 1.404 . S
C1036 C1039 1.539 . S
C1037 C1033 1.408 . S
C1037 C1036 1.404 . S
C1037 H1049 0.930 . S
C1038 C1034 1.524 . S
C1038 H1050 0.956 . S
C1038 H1051 0.961 . S
C1038 H1052 0.961 . S
C1039 C1036 1.539 . S
C1039 H1053 0.958 . S
C1039 H1054 0.961 . S
C1039 H1055 0.960 . S
H1040 C1024 0.931 . S
H1041 C1029 0.929 . S
H1042 C1030 0.960 . S
H1043 C1030 0.962 . S
H1044 C1030 0.960 . S
H1045 C1031 0.961 . S
H1046 C1031 0.961 . S
H1047 C1031 0.961 . S
H1048 C1032 0.931 . S
H1049 C1037 0.930 . S
H1050 C1038 0.956 . S
H1051 C1038 0.961 . S
H1052 C1038 0.961 . S
H1053 C1039 0.958 . S
H1054 C1039 0.961 . S
H1055 C1039 0.960 . S
C1056 C1057 1.391 . S
C1056 C1058 1.394 . S
C1056 H1072 0.931 . S
C1057 C1056 1.391 . S
C1057 C1061 1.376 . S
C1058 C1056 1.394 . S
C1058 C1059 1.369 . S
C1058 C1062 1.531 . S
C1059 C1058 1.369 . S
C1059 C1060 1.410 . S
C1059 C1067 1.503 . S
C1060 C1059 1.410 . S
C1060 C1061 1.392 . S
C1060 C1063 1.511 . S
C1061 C1057 1.376 . S
C1061 C1060 1.392 . S
C1061 H1073 0.929 . S
C1062 C1058 1.531 . S
C1062 H1074 0.960 . S
C1062 H1075 0.962 . S
C1062 H1076 0.960 . S
C1063 C1060 1.511 . S
C1063 H1077 0.961 . S
C1063 H1078 0.961 . S
C1063 H1079 0.961 . S
C1064 C1065 1.370 . S
C1064 C1066 1.363 . S
C1064 H1080 0.931 . S
C1065 C1064 1.370 . S
C1065 C1069 1.408 . S
C1066 C1064 1.363 . S
C1066 C1067 1.370 . S
C1066 C1070 1.524 . S
C1067 C1059 1.503 . S
C1067 C1066 1.370 . S
C1067 C1068 1.403 . S
C1068 C1067 1.403 . S
C1068 C1069 1.404 . S
C1068 C1071 1.539 . S
C1069 C1065 1.408 . S
C1069 C1068 1.404 . S
C1069 H1081 0.927 1_455 S
C1070 C1066 1.524 . S
C1070 H1082 0.956 . S
C1070 H1083 0.961 . S
C1070 H1084 0.961 . S
C1071 C1068 1.539 . S
C1071 H1085 0.958 . S
C1071 H1086 0.993 . S
C1071 H1087 0.960 . S
H1072 C1056 0.931 . S
H1073 C1061 0.929 . S
H1074 C1062 0.960 . S
H1075 C1062 0.962 . S
H1076 C1062 0.960 . S
H1077 C1063 0.961 . S
H1078 C1063 0.961 . S
H1079 C1063 0.961 . S
H1080 C1064 0.931 . S
H1081 C1069 0.927 1_655 S
H1082 C1070 0.956 . S
H1083 C1070 0.961 . S
H1084 C1070 0.961 . S
H1085 C1071 0.958 . S
H1086 C1071 0.993 . S
H1087 C1071 0.960 . S
C1088 C1089 1.391 . S
C1088 C1090 1.394 . S
C1088 H1104 0.931 . S
C1089 C1088 1.391 . S
C1089 C1093 1.376 . S
C1090 C1088 1.394 . S
C1090 C1091 1.369 . S
C1090 C1094 1.531 . S
C1091 C1090 1.369 . S
C1091 C1092 1.410 . S
C1091 C1099 1.503 . S
C1092 C1091 1.410 . S
C1092 C1093 1.392 . S
C1092 C1095 1.511 . S
C1093 C1089 1.376 . S
C1093 C1092 1.392 . S
C1093 H1105 0.929 . S
C1094 C1090 1.531 . S
C1094 H1106 0.960 . S
C1094 H1107 0.962 . S
C1094 H1108 0.960 . S
C1095 C1092 1.511 . S
C1095 H1109 0.961 . S
C1095 H1110 0.961 . S
C1095 H1111 0.961 . S
C1096 C1097 1.370 . S
C1096 C1098 1.363 . S
C1096 H1112 0.931 . S
C1097 C1096 1.370 . S
C1097 C1101 1.408 . S
C1098 C1096 1.363 . S
C1098 C1099 1.370 . S
C1098 C1102 1.524 . S
C1099 C1091 1.503 . S
C1099 C1098 1.370 . S
C1099 C1100 1.403 . S
C1100 C1099 1.403 . S
C1100 C1101 1.404 . S
C1100 C1103 1.539 . S
C1101 C1097 1.408 . S
C1101 C1100 1.404 . S
C1101 H1113 0.930 . S
C1102 C1098 1.524 . S
C1102 H1114 0.956 . S
C1102 H1115 0.961 . S
C1102 H1116 0.961 . S
C1103 C1100 1.539 . S
C1103 H1117 0.958 . S
C1103 H1118 0.961 . S
C1103 H1119 0.960 . S
H1104 C1088 0.931 . S
H1105 C1093 0.929 . S
H1106 C1094 0.960 . S
H1107 C1094 0.962 . S
H1108 C1094 0.960 . S
H1109 C1095 0.961 . S
H1110 C1095 0.961 . S
H1111 C1095 0.961 . S
H1112 C1096 0.931 . S
H1113 C1101 0.930 . S
H1114 C1102 0.956 . S
H1115 C1102 0.961 . S
H1116 C1102 0.961 . S
H1117 C1103 0.958 . S
H1118 C1103 0.961 . S
H1119 C1103 0.960 . S
C1120 C1121 1.391 . S
C1120 C1122 1.394 . S
C1120 H1136 0.931 . S
C1121 C1120 1.391 . S
C1121 C1125 1.376 . S
C1122 C1120 1.394 . S
C1122 C1123 1.369 . S
C1122 C1126 1.531 . S
C1123 C1122 1.369 . S
C1123 C1124 1.410 . S
C1123 C1131 1.503 . S
C1124 C1123 1.410 . S
C1124 C1125 1.392 . S
C1124 C1127 1.511 . S
C1125 C1121 1.376 . S
C1125 C1124 1.392 . S
C1125 H1137 0.929 . S
C1126 C1122 1.531 . S
C1126 H1138 0.960 . S
C1126 H1139 0.962 . S
C1126 H1140 0.960 . S
C1127 C1124 1.511 . S
C1127 H1141 0.961 . S
C1127 H1142 0.961 . S
C1127 H1143 0.961 . S
C1128 C1129 1.370 . S
C1128 C1130 1.363 . S
C1128 H1144 0.931 . S
C1129 C1128 1.370 . S
C1129 C1133 1.408 . S
C1130 C1128 1.363 . S
C1130 C1131 1.370 . S
C1130 C1134 1.524 . S
C1131 C1123 1.503 . S
C1131 C1130 1.370 . S
C1131 C1132 1.403 . S
C1132 C1131 1.403 . S
C1132 C1133 1.404 . S
C1132 C1135 1.539 . S
C1133 C1129 1.408 . S
C1133 C1132 1.404 . S
C1133 H1145 0.930 . S
C1134 C1130 1.524 . S
C1134 H1146 0.956 . S
C1134 H1147 0.961 . S
C1134 H1148 0.961 . S
C1135 C1132 1.539 . S
C1135 H1149 0.958 . S
C1135 H1150 0.961 . S
C1135 H1151 0.960 . S
H1136 C1120 0.931 . S
H1137 C1125 0.929 . S
H1138 C1126 0.960 . S
H1139 C1126 0.962 . S
H1140 C1126 0.960 . S
H1141 C1127 0.961 . S
H1142 C1127 0.961 . S
H1143 C1127 0.961 . S
H1144 C1128 0.931 . S
H1145 C1133 0.930 . S
H1146 C1134 0.956 . S
H1147 C1134 0.961 . S
H1148 C1134 0.961 . S
H1149 C1135 0.958 . S
H1150 C1135 0.961 . S
H1151 C1135 0.960 . S
C1152 C1153 1.391 . S
C1152 C1154 1.394 . S
C1152 H1168 0.931 . S
C1153 C1152 1.391 . S
C1153 C1157 1.376 . S
C1154 C1152 1.394 . S
C1154 C1155 1.369 . S
C1154 C1158 1.531 . S
C1155 C1154 1.369 . S
C1155 C1156 1.410 . S
C1155 C1163 1.503 . S
C1156 C1155 1.410 . S
C1156 C1157 1.392 . S
C1156 C1159 1.511 . S
C1157 C1153 1.376 . S
C1157 C1156 1.392 . S
C1157 H1169 0.929 . S
C1158 C1154 1.531 . S
C1158 H1170 0.960 . S
C1158 H1171 0.962 . S
C1158 H1172 0.960 . S
C1159 C1156 1.511 . S
C1159 H1173 0.961 . S
C1159 H1174 0.961 . S
C1159 H1175 0.961 . S
C1160 C1161 1.370 . S
C1160 C1162 1.363 . S
C1160 H1176 0.931 . S
C1161 C1160 1.370 . S
C1161 C1165 1.408 . S
C1162 C1160 1.363 . S
C1162 C1163 1.370 . S
C1162 C1166 1.524 . S
C1163 C1155 1.503 . S
C1163 C1162 1.370 . S
C1163 C1164 1.403 . S
C1164 C1163 1.403 . S
C1164 C1165 1.404 . S
C1164 C1167 1.539 . S
C1165 C1161 1.408 . S
C1165 C1164 1.404 . S
C1165 H1177 0.930 . S
C1166 C1162 1.524 . S
C1166 H1178 0.956 . S
C1166 H1179 0.961 . S
C1166 H1180 0.961 . S
C1167 C1164 1.539 . S
C1167 H1181 0.958 . S
C1167 H1182 0.961 . S
C1167 H1183 0.960 . S
H1168 C1152 0.931 . S
H1169 C1157 0.929 . S
H1170 C1158 0.960 . S
H1171 C1158 0.962 . S
H1172 C1158 0.960 . S
H1173 C1159 0.961 . S
H1174 C1159 0.961 . S
H1175 C1159 0.961 . S
H1176 C1160 0.931 . S
H1177 C1165 0.930 . S
H1178 C1166 0.956 . S
H1179 C1166 0.961 . S
H1180 C1166 0.961 . S
H1181 C1167 0.958 . S
H1182 C1167 0.961 . S
H1183 C1167 0.960 . S
C1184 C1185 1.391 . S
C1184 C1186 1.394 . S
C1184 H1200 0.931 . S
C1185 C1184 1.391 . S
C1185 C1189 1.376 . S
C1186 C1184 1.394 . S
C1186 C1187 1.369 . S
C1186 C1190 1.531 . S
C1187 C1186 1.369 . S
C1187 C1188 1.410 . S
C1187 C1195 1.503 . S
C1188 C1187 1.410 . S
C1188 C1189 1.392 . S
C1188 C1191 1.511 . S
C1189 C1185 1.376 . S
C1189 C1188 1.392 . S
C1189 H1201 0.929 . S
C1190 C1186 1.531 . S
C1190 H1202 0.960 . S
C1190 H1203 0.962 . S
C1190 H1204 0.960 . S
C1191 C1188 1.511 . S
C1191 H1205 0.961 . S
C1191 H1206 0.961 . S
C1191 H1207 0.961 . S
C1192 C1193 1.370 . S
C1192 C1194 1.363 . S
C1192 H1208 0.931 . S
C1193 C1192 1.370 . S
C1193 C1197 1.408 . S
C1194 C1192 1.363 . S
C1194 C1195 1.370 . S
C1194 C1198 1.524 . S
C1195 C1187 1.503 . S
C1195 C1194 1.370 . S
C1195 C1196 1.403 . S
C1196 C1195 1.403 . S
C1196 C1197 1.404 . S
C1196 C1199 1.539 . S
C1197 C1193 1.408 . S
C1197 C1196 1.404 . S
C1197 H1209 0.930 . S
C1198 C1194 1.524 . S
C1198 H1210 0.956 . S
C1198 H1211 0.961 . S
C1198 H1212 0.961 . S
C1199 C1196 1.539 . S
C1199 H1213 0.958 . S
C1199 H1214 0.961 . S
C1199 H1215 0.960 . S
H1200 C1184 0.931 . S
H1201 C1189 0.929 . S
H1202 C1190 0.960 . S
H1203 C1190 0.962 . S
H1204 C1190 0.960 . S
H1205 C1191 0.961 . S
H1206 C1191 0.961 . S
H1207 C1191 0.961 . S
H1208 C1192 0.931 . S
H1209 C1197 0.930 . S
H1210 C1198 0.956 . S
H1211 C1198 0.961 . S
H1212 C1198 0.961 . S
H1213 C1199 0.958 . S
H1214 C1199 0.961 . S
H1215 C1199 0.960 . S
C1216 C1217 1.391 . S
C1216 C1218 1.394 . S
C1216 H1232 0.931 . S
C1217 C1216 1.391 . S
C1217 C1221 1.376 . S
C1218 C1216 1.394 . S
C1218 C1219 1.369 . S
C1218 C1222 1.531 . S
C1219 C1218 1.369 . S
C1219 C1220 1.410 . S
C1219 C1227 1.503 . S
C1220 C1219 1.410 . S
C1220 C1221 1.392 . S
C1220 C1223 1.511 . S
C1221 C1217 1.376 . S
C1221 C1220 1.392 . S
C1221 H1233 0.929 . S
C1222 C1218 1.531 . S
C1222 H1234 0.960 . S
C1222 H1235 0.962 . S
C1222 H1236 0.960 . S
C1223 C1220 1.511 . S
C1223 H1237 0.961 . S
C1223 H1238 0.961 . S
C1223 H1239 0.961 . S
C1224 C1225 1.370 . S
C1224 C1226 1.363 . S
C1224 H1240 0.931 . S
C1225 C1224 1.370 . S
C1225 C1229 1.408 . S
C1226 C1224 1.363 . S
C1226 C1227 1.370 . S
C1226 C1230 1.524 . S
C1227 C1219 1.503 . S
C1227 C1226 1.370 . S
C1227 C1228 1.403 . S
C1228 C1227 1.403 . S
C1228 C1229 1.404 . S
C1228 C1231 1.539 . S
C1229 C1225 1.408 . S
C1229 C1228 1.404 . S
C1229 H1241 0.930 . S
C1230 C1226 1.524 . S
C1230 H1242 0.956 . S
C1230 H1243 0.961 . S
C1230 H1244 0.961 . S
C1231 C1228 1.539 . S
C1231 H1245 0.958 . S
C1231 H1246 0.961 . S
C1231 H1247 0.960 . S
H1232 C1216 0.931 . S
H1233 C1221 0.929 . S
H1234 C1222 0.960 . S
H1235 C1222 0.962 . S
H1236 C1222 0.960 . S
H1237 C1223 0.961 . S
H1238 C1223 0.961 . S
H1239 C1223 0.961 . S
H1240 C1224 0.931 . S
H1241 C1229 0.930 . S
H1242 C1230 0.956 . S
H1243 C1230 0.961 . S
H1244 C1230 0.961 . S
H1245 C1231 0.958 . S
H1246 C1231 0.961 . S
H1247 C1231 0.960 . S
C1248 C1249 1.391 . S
C1248 C1250 1.394 . S
C1248 H1264 0.931 . S
C1249 C1248 1.391 . S
C1249 C1253 1.376 . S
C1250 C1248 1.394 . S
C1250 C1251 1.369 . S
C1250 C1254 1.531 . S
C1251 C1250 1.369 . S
C1251 C1252 1.410 . S
C1251 C1259 1.503 . S
C1252 C1251 1.410 . S
C1252 C1253 1.392 . S
C1252 C1255 1.511 . S
C1253 C1249 1.376 . S
C1253 C1252 1.392 . S
C1253 H1265 0.929 . S
C1254 C1250 1.531 . S
C1254 H1266 0.960 . S
C1254 H1267 0.962 . S
C1254 H1268 0.960 . S
C1255 C1252 1.511 . S
C1255 H1269 0.961 . S
C1255 H1270 0.961 . S
C1255 H1271 0.961 . S
C1256 C1257 1.370 . S
C1256 C1258 1.363 . S
C1256 H1272 0.931 . S
C1257 C1256 1.370 . S
C1257 C1261 1.408 . S
C1258 C1256 1.363 . S
C1258 C1259 1.370 . S
C1258 C1262 1.524 . S
C1259 C1251 1.503 . S
C1259 C1258 1.370 . S
C1259 C1260 1.403 . S
C1260 C1259 1.403 . S
C1260 C1261 1.404 . S
C1260 C1263 1.539 . S
C1261 C1257 1.408 . S
C1261 C1260 1.404 . S
C1261 H1273 0.930 . S
C1262 C1258 1.524 . S
C1262 H1274 0.956 . S
C1262 H1275 0.961 . S
C1262 H1276 0.961 . S
C1263 C1260 1.539 . S
C1263 H1277 0.958 . S
C1263 H1278 0.961 . S
C1263 H1279 0.960 . S
H1264 C1248 0.931 . S
H1265 C1253 0.929 . S
H1266 C1254 0.960 . S
H1267 C1254 0.962 . S
H1268 C1254 0.960 . S
H1269 C1255 0.961 . S
H1270 C1255 0.961 . S
H1271 C1255 0.961 . S
H1272 C1256 0.931 . S
H1273 C1261 0.930 . S
H1274 C1262 0.956 . S
H1275 C1262 0.961 . S
H1276 C1262 0.961 . S
H1277 C1263 0.958 . S
H1278 C1263 0.961 . S
H1279 C1263 0.960 . S
C1280 C1281 1.391 . S
C1280 C1282 1.394 . S
C1280 H1296 0.931 . S
C1281 C1280 1.391 . S
C1281 C1285 1.376 . S
C1282 C1280 1.394 . S
C1282 C1283 1.369 . S
C1282 C1286 1.531 . S
C1283 C1282 1.369 . S
C1283 C1284 1.410 . S
C1283 C1291 1.503 . S
C1284 C1283 1.410 . S
C1284 C1285 1.392 . S
C1284 C1287 1.511 . S
C1285 C1281 1.376 . S
C1285 C1284 1.392 . S
C1285 H1297 0.929 . S
C1286 C1282 1.531 . S
C1286 H1298 0.960 . S
C1286 H1299 0.962 . S
C1286 H1300 0.960 . S
C1287 C1284 1.511 . S
C1287 H1301 0.961 . S
C1287 H1302 0.961 . S
C1287 H1303 0.961 . S
C1288 C1289 1.370 . S
C1288 C1290 1.363 . S
C1288 H1304 0.931 . S
C1289 C1288 1.370 . S
C1289 C1293 1.408 . S
C1290 C1288 1.363 . S
C1290 C1291 1.370 . S
C1290 C1294 1.524 . S
C1291 C1283 1.503 . S
C1291 C1290 1.370 . S
C1291 C1292 1.403 . S
C1292 C1291 1.403 . S
C1292 C1293 1.404 . S
C1292 C1295 1.539 . S
C1293 C1289 1.408 . S
C1293 C1292 1.404 . S
C1293 H1305 0.930 . S
C1294 C1290 1.524 . S
C1294 H1306 0.956 . S
C1294 H1307 0.961 . S
C1294 H1308 0.961 . S
C1295 C1292 1.539 . S
C1295 H1309 0.958 . S
C1295 H1310 0.961 . S
C1295 H1311 0.960 . S
H1296 C1280 0.931 . S
H1297 C1285 0.929 . S
H1298 C1286 0.960 . S
H1299 C1286 0.962 . S
H1300 C1286 0.960 . S
H1301 C1287 0.961 . S
H1302 C1287 0.961 . S
H1303 C1287 0.961 . S
H1304 C1288 0.931 . S
H1305 C1293 0.930 . S
H1306 C1294 0.956 . S
H1307 C1294 0.961 . S
H1308 C1294 0.961 . S
H1309 C1295 0.958 . S
H1310 C1295 0.961 . S
H1311 C1295 0.960 . S
C1312 C1313 1.391 . S
C1312 C1314 1.394 . S
C1312 H1328 0.931 . S
C1313 C1312 1.391 . S
C1313 C1317 1.376 . S
C1314 C1312 1.394 . S
C1314 C1315 1.369 . S
C1314 C1318 1.531 . S
C1315 C1314 1.369 . S
C1315 C1316 1.410 . S
C1315 C1323 1.503 . S
C1316 C1315 1.410 . S
C1316 C1317 1.392 . S
C1316 C1319 1.511 . S
C1317 C1313 1.376 . S
C1317 C1316 1.392 . S
C1317 H1329 0.929 . S
C1318 C1314 1.531 . S
C1318 H1330 0.960 . S
C1318 H1331 0.962 . S
C1318 H1332 0.960 . S
C1319 C1316 1.511 . S
C1319 H1333 0.961 . S
C1319 H1334 0.961 . S
C1319 H1335 0.961 . S
C1320 C1321 1.370 . S
C1320 C1322 1.363 . S
C1320 H1336 0.931 . S
C1321 C1320 1.370 . S
C1321 C1325 1.408 . S
C1322 C1320 1.363 . S
C1322 C1323 1.370 . S
C1322 C1326 1.524 . S
C1323 C1315 1.503 . S
C1323 C1322 1.370 . S
C1323 C1324 1.403 . S
C1324 C1323 1.403 . S
C1324 C1325 1.404 . S
C1324 C1327 1.539 . S
C1325 C1321 1.408 . S
C1325 C1324 1.404 . S
C1325 H1337 0.930 . S
C1326 C1322 1.524 . S
C1326 H1338 0.956 . S
C1326 H1339 0.961 . S
C1326 H1340 0.961 . S
C1327 C1324 1.539 . S
C1327 H1341 0.958 . S
C1327 H1342 0.961 . S
C1327 H1343 0.960 . S
H1328 C1312 0.931 . S
H1329 C1317 0.929 . S
H1330 C1318 0.960 . S
H1331 C1318 0.962 . S
H1332 C1318 0.960 . S
H1333 C1319 0.961 . S
H1334 C1319 0.961 . S
H1335 C1319 0.961 . S
H1336 C1320 0.931 . S
H1337 C1325 0.930 . S
H1338 C1326 0.956 . S
H1339 C1326 0.961 . S
H1340 C1326 0.961 . S
H1341 C1327 0.958 . S
H1342 C1327 0.961 . S
H1343 C1327 0.960 . S
C1344 C1345 1.391 . S
C1344 C1346 1.394 . S
C1344 H1360 0.931 . S
C1345 C1344 1.391 . S
C1345 C1349 1.376 . S
C1346 C1344 1.394 . S
C1346 C1347 1.369 . S
C1346 C1350 1.531 . S
C1347 C1346 1.369 . S
C1347 C1348 1.410 . S
C1347 C1355 1.503 . S
C1348 C1347 1.410 . S
C1348 C1349 1.392 . S
C1348 C1351 1.511 . S
C1349 C1345 1.376 . S
C1349 C1348 1.392 . S
C1349 H1361 0.929 . S
C1350 C1346 1.531 . S
C1350 H1362 0.960 . S
C1350 H1363 0.962 . S
C1350 H1364 0.960 . S
C1351 C1348 1.511 . S
C1351 H1365 0.961 . S
C1351 H1366 0.961 . S
C1351 H1367 0.961 . S
C1352 C1353 1.370 . S
C1352 C1354 1.363 . S
C1352 H1368 0.931 . S
C1353 C1352 1.370 . S
C1353 C1357 1.408 . S
C1354 C1352 1.363 . S
C1354 C1355 1.370 . S
C1354 C1358 1.524 . S
C1355 C1347 1.503 . S
C1355 C1354 1.370 . S
C1355 C1356 1.403 . S
C1356 C1355 1.403 . S
C1356 C1357 1.404 . S
C1356 C1359 1.539 . S
C1357 C1353 1.408 . S
C1357 C1356 1.404 . S
C1357 H1369 0.930 . S
C1358 C1354 1.524 . S
C1358 H1370 0.956 . S
C1358 H1371 0.961 . S
C1358 H1372 0.961 . S
C1359 C1356 1.539 . S
C1359 H1373 0.958 . S
C1359 H1374 0.961 1_545 S
C1359 H1375 0.960 . S
H1360 C1344 0.931 . S
H1361 C1349 0.929 . S
H1362 C1350 0.960 . S
H1363 C1350 0.962 . S
H1364 C1350 0.960 . S
H1365 C1351 0.961 . S
H1366 C1351 0.961 . S
H1367 C1351 0.961 . S
H1368 C1352 0.931 . S
H1369 C1357 0.930 . S
H1370 C1358 0.956 . S
H1371 C1358 0.961 . S
H1372 C1358 0.961 . S
H1373 C1359 0.958 . S
H1374 C1359 0.961 1_565 S
H1375 C1359 0.960 . S
C1376 C1377 1.391 . S
C1376 C1378 1.394 . S
C1376 H1392 0.931 . S
C1377 C1376 1.391 . S
C1377 C1381 1.376 . S
C1378 C1376 1.394 . S
C1378 C1379 1.369 . S
C1378 C1382 1.531 . S
C1379 C1378 1.369 . S
C1379 C1380 1.410 . S
C1379 C1387 1.503 . S
C1380 C1379 1.410 . S
C1380 C1381 1.392 . S
C1380 C1383 1.511 . S
C1381 C1377 1.376 . S
C1381 C1380 1.392 . S
C1381 H1393 0.929 . S
C1382 C1378 1.531 . S
C1382 H1394 0.960 . S
C1382 H1395 0.962 . S
C1382 H1396 0.960 . S
C1383 C1380 1.511 . S
C1383 H1397 0.961 . S
C1383 H1398 0.961 . S
C1383 H1399 0.961 . S
C1384 C1385 1.370 . S
C1384 C1386 1.363 . S
C1384 H1400 0.931 . S
C1385 C1384 1.370 . S
C1385 C1389 1.408 . S
C1386 C1384 1.363 . S
C1386 C1387 1.370 . S
C1386 C1390 1.524 . S
C1387 C1379 1.503 . S
C1387 C1386 1.370 . S
C1387 C1388 1.403 . S
C1388 C1387 1.403 . S
C1388 C1389 1.404 . S
C1388 C1391 1.539 . S
C1389 C1385 1.408 . S
C1389 C1388 1.404 . S
C1389 H1401 0.930 . S
C1390 C1386 1.524 . S
C1390 H1402 0.956 . S
C1390 H1403 0.961 . S
C1390 H1404 0.961 . S
C1391 C1388 1.539 . S
C1391 H1405 0.958 . S
C1391 H1406 0.961 . S
C1391 H1407 0.960 . S
H1392 C1376 0.931 . S
H1393 C1381 0.929 . S
H1394 C1382 0.960 . S
H1395 C1382 0.962 . S
H1396 C1382 0.960 . S
H1397 C1383 0.961 . S
H1398 C1383 0.961 . S
H1399 C1383 0.961 . S
H1400 C1384 0.931 . S
H1401 C1389 0.930 . S
H1402 C1390 0.956 . S
H1403 C1390 0.961 . S
H1404 C1390 0.961 . S
H1405 C1391 0.958 . S
H1406 C1391 0.961 . S
H1407 C1391 0.960 . S
C1408 C1409 1.391 . S
C1408 C1410 1.394 . S
C1408 H1424 0.931 . S
C1409 C1408 1.391 . S
C1409 C1413 1.376 . S
C1410 C1408 1.394 . S
C1410 C1411 1.369 . S
C1410 C1414 1.531 . S
C1411 C1410 1.369 . S
C1411 C1412 1.410 . S
C1411 C1419 1.503 . S
C1412 C1411 1.410 . S
C1412 C1413 1.392 . S
C1412 C1415 1.511 . S
C1413 C1409 1.376 . S
C1413 C1412 1.392 . S
C1413 H1425 0.929 . S
C1414 C1410 1.531 . S
C1414 H1426 0.960 . S
C1414 H1427 0.962 . S
C1414 H1428 0.960 . S
C1415 C1412 1.511 . S
C1415 H1429 0.961 . S
C1415 H1430 0.961 . S
C1415 H1431 0.961 . S
C1416 C1417 1.370 . S
C1416 C1418 1.363 . S
C1416 H1432 0.931 . S
C1417 C1416 1.370 . S
C1417 C1421 1.408 . S
C1418 C1416 1.363 . S
C1418 C1419 1.370 . S
C1418 C1422 1.524 . S
C1419 C1411 1.503 . S
C1419 C1418 1.370 . S
C1419 C1420 1.403 . S
C1420 C1419 1.403 . S
C1420 C1421 1.404 . S
C1420 C1423 1.539 . S
C1421 C1417 1.408 . S
C1421 C1420 1.404 . S
C1421 H1433 0.930 . S
C1422 C1418 1.524 . S
C1422 H1434 0.956 . S
C1422 H1435 0.961 . S
C1422 H1436 0.961 . S
C1423 C1420 1.539 . S
C1423 H1437 0.958 . S
C1423 H1438 0.961 . S
C1423 H1439 0.960 . S
H1424 C1408 0.931 . S
H1425 C1413 0.929 . S
H1426 C1414 0.960 . S
H1427 C1414 0.962 . S
H1428 C1414 0.960 . S
H1429 C1415 0.961 . S
H1430 C1415 0.961 . S
H1431 C1415 0.961 . S
H1432 C1416 0.931 . S
H1433 C1421 0.930 . S
H1434 C1422 0.956 . S
H1435 C1422 0.961 . S
H1436 C1422 0.961 . S
H1437 C1423 0.958 . S
H1438 C1423 0.961 . S
H1439 C1423 0.960 . S
C1440 C1441 1.391 . S
C1440 C1442 1.394 . S
C1440 H1456 0.931 . S
C1441 C1440 1.391 . S
C1441 C1445 1.376 . S
C1442 C1440 1.394 . S
C1442 C1443 1.369 . S
C1442 C1446 1.531 . S
C1443 C1442 1.369 . S
C1443 C1444 1.410 . S
C1443 C1451 1.503 . S
C1444 C1443 1.410 . S
C1444 C1445 1.392 . S
C1444 C1447 1.511 . S
C1445 C1441 1.376 . S
C1445 C1444 1.392 . S
C1445 H1457 0.929 . S
C1446 C1442 1.531 . S
C1446 H1458 0.960 . S
C1446 H1459 0.962 . S
C1446 H1460 0.960 . S
C1447 C1444 1.511 . S
C1447 H1461 0.961 . S
C1447 H1462 0.961 . S
C1447 H1463 0.961 . S
C1448 C1449 1.370 . S
C1448 C1450 1.363 . S
C1448 H1464 0.931 . S
C1449 C1448 1.370 . S
C1449 C1453 1.408 . S
C1450 C1448 1.363 . S
C1450 C1451 1.370 . S
C1450 C1454 1.524 . S
C1451 C1443 1.503 . S
C1451 C1450 1.370 . S
C1451 C1452 1.403 . S
C1452 C1451 1.403 . S
C1452 C1453 1.404 . S
C1452 C1455 1.539 . S
C1453 C1449 1.408 . S
C1453 C1452 1.404 . S
C1453 H1465 0.930 . S
C1454 C1450 1.524 . S
C1454 H1466 0.956 . S
C1454 H1467 0.961 . S
C1454 H1468 0.961 . S
C1455 C1452 1.539 . S
C1455 H1469 0.958 . S
C1455 H1470 0.961 . S
C1455 H1471 0.960 . S
H1456 C1440 0.931 . S
H1457 C1445 0.929 . S
H1458 C1446 0.960 . S
H1459 C1446 0.962 . S
H1460 C1446 0.960 . S
H1461 C1447 0.961 . S
H1462 C1447 0.961 . S
H1463 C1447 0.961 . S
H1464 C1448 0.931 . S
H1465 C1453 0.930 . S
H1466 C1454 0.956 . S
H1467 C1454 0.961 . S
H1468 C1454 0.961 . S
H1469 C1455 0.958 . S
H1470 C1455 0.961 . S
H1471 C1455 0.960 . S
C1472 C1473 1.391 . S
C1472 C1474 1.394 . S
C1472 H1488 0.931 . S
C1473 C1472 1.391 . S
C1473 C1477 1.376 . S
C1474 C1472 1.394 . S
C1474 C1475 1.369 1_556 S
C1474 C1478 1.531 . S
C1475 C1474 1.369 1_554 S
C1475 C1476 1.410 . S
C1475 C1483 1.503 . S
C1476 C1475 1.410 . S
C1476 C1477 1.392 1_554 S
C1476 C1479 1.511 . S
C1477 C1473 1.376 . S
C1477 C1476 1.392 1_556 S
C1477 H1489 0.929 1_556 S
C1478 C1474 1.531 . S
C1478 H1490 0.960 . S
C1478 H1491 0.962 . S
C1478 H1492 0.960 . S
C1479 C1476 1.511 . S
C1479 H1493 0.961 . S
C1479 H1494 0.961 . S
C1479 H1495 0.961 . S
C1480 C1481 1.370 . S
C1480 C1482 1.363 . S
C1480 H1496 0.931 . S
C1481 C1480 1.370 . S
C1481 C1485 1.408 . S
C1482 C1480 1.363 . S
C1482 C1483 1.370 . S
C1482 C1486 1.524 . S
C1483 C1475 1.503 . S
C1483 C1482 1.370 . S
C1483 C1484 1.403 . S
C1484 C1483 1.403 . S
C1484 C1485 1.404 . S
C1484 C1487 1.539 . S
C1485 C1481 1.408 . S
C1485 C1484 1.404 . S
C1485 H1497 0.930 . S
C1486 C1482 1.524 . S
C1486 H1498 0.956 . S
C1486 H1499 0.961 . S
C1486 H1500 0.961 . S
C1487 C1484 1.539 . S
C1487 H1501 0.958 1_554 S
C1487 H1502 0.961 . S
C1487 H1503 0.963 . S
H1488 C1472 0.931 . S
H1489 C1477 0.929 1_554 S
H1490 C1478 0.960 . S
H1491 C1478 0.962 . S
H1492 C1478 0.960 . S
H1493 C1479 0.961 . S
H1494 C1479 0.961 . S
H1495 C1479 0.961 . S
H1496 C1480 0.931 . S
H1497 C1485 0.930 . S
H1498 C1486 0.956 . S
H1499 C1486 0.961 . S
H1500 C1486 0.961 . S
H1501 C1487 0.958 1_556 S
H1502 C1487 0.961 . S
H1503 C1487 0.963 . S
C1504 C1505 1.391 . S
C1504 C1506 1.394 . S
C1504 H1520 0.931 . S
C1505 C1504 1.391 . S
C1505 C1509 1.376 . S
C1506 C1504 1.394 . S
C1506 C1507 1.369 . S
C1506 C1510 1.531 . S
C1507 C1506 1.369 . S
C1507 C1508 1.410 . S
C1507 C1515 1.503 . S
C1508 C1507 1.410 . S
C1508 C1509 1.392 . S
C1508 C1511 1.511 1_554 S
C1509 C1505 1.376 . S
C1509 C1508 1.392 . S
C1509 H1521 0.929 . S
C1510 C1506 1.531 . S
C1510 H1522 0.960 . S
C1510 H1523 0.962 . S
C1510 H1524 0.960 . S
C1511 C1508 1.511 1_556 S
C1511 H1525 0.961 . S
C1511 H1526 0.961 . S
C1511 H1527 0.961 . S
C1512 C1513 1.370 . S
C1512 C1514 1.363 1_556 S
C1512 H1528 0.931 . S
C1513 C1512 1.370 . S
C1513 C1517 1.408 . S
C1514 C1512 1.363 1_554 S
C1514 C1515 1.370 . S
C1514 C1518 1.524 . S
C1515 C1507 1.503 . S
C1515 C1514 1.370 . S
C1515 C1516 1.403 1_554 S
C1516 C1515 1.403 1_556 S
C1516 C1517 1.404 . S
C1516 C1519 1.539 . S
C1517 C1513 1.408 . S
C1517 C1516 1.404 . S
C1517 H1529 0.930 . S
C1518 C1514 1.524 . S
C1518 H1530 0.956 . S
C1518 H1531 0.961 . S
C1518 H1532 0.961 . S
C1519 C1516 1.539 . S
C1519 H1533 0.958 . S
C1519 H1534 0.961 . S
C1519 H1535 0.960 . S
H1520 C1504 0.931 . S
H1521 C1509 0.929 . S
H1522 C1510 0.960 . S
H1523 C1510 0.962 . S
H1524 C1510 0.960 . S
H1525 C1511 0.961 . S
H1526 C1511 0.961 . S
H1527 C1511 0.961 . S
H1528 C1512 0.931 . S
H1529 C1517 0.930 . S
H1530 C1518 0.956 . S
H1531 C1518 0.961 . S
H1532 C1518 0.961 . S
H1533 C1519 0.958 . S
H1534 C1519 0.961 . S
H1535 C1519 0.960 . S
C1536 C1537 1.359 1_554 S
C1536 C1538 1.411 . S
C1536 H1552 0.945 . S
C1537 C1536 1.359 1_556 S
C1537 C1541 1.376 . S
C1538 C1536 1.411 . S
C1538 C1539 1.369 . S
C1538 C1542 1.531 . S
C1539 C1538 1.369 . S
C1539 C1540 1.410 1_554 S
C1539 C1547 1.503 . S
C1540 C1539 1.410 1_556 S
C1540 C1541 1.392 . S
C1540 C1543 1.511 . S
C1541 C1537 1.376 . S
C1541 C1540 1.392 . S
C1541 H1553 0.929 . S
C1542 C1538 1.531 . S
C1542 H1554 0.960 . S
C1542 H1555 0.962 . S
C1542 H1556 0.960 . S
C1543 C1540 1.511 . S
C1543 H1557 0.961 . S
C1543 H1558 0.961 . S
C1543 H1559 0.961 . S
C1544 C1545 1.370 . S
C1544 C1546 1.363 . S
C1544 H1560 0.931 . S
C1545 C1544 1.370 . S
C1545 C1549 1.408 . S
C1546 C1544 1.363 . S
C1546 C1547 1.370 . S
C1546 C1550 1.524 . S
C1547 C1539 1.503 . S
C1547 C1546 1.370 . S
C1547 C1548 1.403 . S
C1548 C1547 1.403 . S
C1548 C1549 1.404 . S
C1548 C1551 1.539 . S
C1549 C1545 1.408 . S
C1549 C1548 1.404 . S
C1549 H1561 0.930 . S
C1550 C1546 1.524 . S
C1550 H1562 0.956 . S
C1550 H1563 0.961 . S
C1550 H1564 0.961 . S
C1551 C1548 1.539 . S
C1551 H1565 0.958 . S
C1551 H1566 0.961 . S
C1551 H1567 0.960 1_554 S
H1552 C1536 0.945 . S
H1553 C1541 0.929 . S
H1554 C1542 0.960 . S
H1555 C1542 0.962 . S
H1556 C1542 0.960 . S
H1557 C1543 0.961 . S
H1558 C1543 0.961 . S
H1559 C1543 0.961 . S
H1560 C1544 0.931 . S
H1561 C1549 0.930 . S
H1562 C1550 0.956 . S
H1563 C1550 0.961 . S
H1564 C1550 0.961 . S
H1565 C1551 0.958 . S
H1566 C1551 0.961 . S
H1567 C1551 0.960 1_556 S
C1568 C1569 1.391 . S
C1568 C1570 1.394 . S
C1568 H1584 0.931 . S
C1569 C1568 1.391 . S
C1569 C1573 1.376 . S
C1570 C1568 1.394 . S
C1570 C1571 1.369 . S
C1570 C1574 1.531 1_554 S
C1571 C1570 1.369 . S
C1571 C1572 1.410 . S
C1571 C1579 1.503 . S
C1572 C1571 1.410 . S
C1572 C1573 1.392 . S
C1572 C1575 1.511 . S
C1573 C1569 1.376 . S
C1573 C1572 1.392 . S
C1573 H1585 0.929 . S
C1574 C1570 1.531 1_556 S
C1574 H1586 0.960 . S
C1574 H1587 0.962 . S
C1574 H1588 0.960 . S
C1575 C1572 1.511 . S
C1575 H1589 0.961 . S
C1575 H1590 0.961 . S
C1575 H1591 0.961 . S
C1576 C1577 1.370 . S
C1576 C1578 1.363 1_556 S
C1576 H1592 0.931 . S
C1577 C1576 1.370 . S
C1577 C1581 1.408 . S
C1578 C1576 1.363 1_554 S
C1578 C1579 1.370 . S
C1578 C1582 1.524 . S
C1579 C1571 1.503 . S
C1579 C1578 1.370 . S
C1579 C1580 1.403 1_554 S
C1580 C1579 1.403 1_556 S
C1580 C1581 1.404 . S
C1580 C1583 1.539 . S
C1581 C1577 1.408 . S
C1581 C1580 1.404 . S
C1581 H1593 0.930 . S
C1582 C1578 1.524 . S
C1582 H1594 0.956 . S
C1582 H1595 0.961 . S
C1582 H1596 0.961 . S
C1583 C1580 1.539 . S
C1583 H1597 0.958 . S
C1583 H1598 0.961 . S
C1583 H1599 0.960 . S
H1584 C1568 0.931 . S
H1585 C1573 0.929 . S
H1586 C1574 0.960 . S
H1587 C1574 0.962 . S
H1588 C1574 0.960 . S
H1589 C1575 0.961 . S
H1590 C1575 0.961 . S
H1591 C1575 0.961 . S
H1592 C1576 0.931 . S
H1593 C1581 0.930 . S
H1594 C1582 0.956 . S
H1595 C1582 0.961 . S
H1596 C1582 0.961 . S
H1597 C1583 0.958 . S
H1598 C1583 0.961 . S
H1599 C1583 0.960 . S
C1600 C1601 1.391 . S
C1600 C1602 1.394 . S
C1600 H1616 0.931 . S
C1601 C1600 1.391 . S
C1601 C1605 1.376 . S
C1602 C1600 1.394 . S
C1602 C1603 1.369 . S
C1602 C1606 1.531 . S
C1603 C1602 1.369 . S
C1603 C1604 1.410 . S
C1603 C1611 1.503 . S
C1604 C1603 1.410 . S
C1604 C1605 1.392 . S
C1604 C1607 1.511 . S
C1605 C1601 1.376 . S
C1605 C1604 1.392 . S
C1605 H1617 0.929 . S
C1606 C1602 1.531 . S
C1606 H1618 0.960 . S
C1606 H1619 0.962 . S
C1606 H1620 0.960 . S
C1607 C1604 1.511 . S
C1607 H1621 0.961 . S
C1607 H1622 0.961 . S
C1607 H1623 0.961 . S
C1608 C1609 1.370 . S
C1608 C1610 1.363 . S
C1608 H1624 0.931 . S
C1609 C1608 1.370 . S
C1609 C1613 1.408 . S
C1610 C1608 1.363 . S
C1610 C1611 1.370 . S
C1610 C1614 1.524 . S
C1611 C1603 1.503 . S
C1611 C1610 1.370 . S
C1611 C1612 1.403 . S
C1612 C1611 1.403 . S
C1612 C1613 1.404 . S
C1612 C1615 1.539 . S
C1613 C1609 1.408 . S
C1613 C1612 1.404 . S
C1613 H1625 0.930 . S
C1614 C1610 1.524 . S
C1614 H1626 0.956 . S
C1614 H1627 0.961 . S
C1614 H1628 0.961 . S
C1615 C1612 1.539 . S
C1615 H1629 0.958 . S
C1615 H1630 0.961 . S
C1615 H1631 0.960 . S
H1616 C1600 0.931 . S
H1617 C1605 0.929 . S
H1618 C1606 0.960 . S
H1619 C1606 0.962 . S
H1620 C1606 0.960 . S
H1621 C1607 0.961 . S
H1622 C1607 0.961 . S
H1623 C1607 0.961 . S
H1624 C1608 0.931 . S
H1625 C1613 0.930 . S
H1626 C1614 0.956 . S
H1627 C1614 0.961 . S
H1628 C1614 0.961 . S
H1629 C1615 0.958 . S
H1630 C1615 0.961 . S
H1631 C1615 0.960 . S
C1632 C1633 1.391 . S
C1632 C1634 1.394 . S
C1632 H1648 0.931 . S
C1633 C1632 1.391 . S
C1633 C1637 1.376 . S
C1634 C1632 1.394 . S
C1634 C1635 1.369 . S
C1634 C1638 1.531 . S
C1635 C1634 1.369 . S
C1635 C1636 1.410 . S
C1635 C1643 1.503 . S
C1636 C1635 1.410 . S
C1636 C1637 1.392 . S
C1636 C1639 1.511 . S
C1637 C1633 1.376 . S
C1637 C1636 1.392 . S
C1637 H1649 0.929 . S
C1638 C1634 1.531 . S
C1638 H1650 0.960 . S
C1638 H1651 0.962 . S
C1638 H1652 0.960 . S
C1639 C1636 1.511 . S
C1639 H1653 0.961 . S
C1639 H1654 0.961 . S
C1639 H1655 0.961 . S
C1640 C1641 1.370 . S
C1640 C1642 1.363 . S
C1640 H1656 0.931 . S
C1641 C1640 1.370 . S
C1641 C1645 1.408 . S
C1642 C1640 1.363 . S
C1642 C1643 1.370 . S
C1642 C1646 1.524 . S
C1643 C1635 1.503 . S
C1643 C1642 1.370 . S
C1643 C1644 1.403 . S
C1644 C1643 1.403 . S
C1644 C1645 1.404 . S
C1644 C1647 1.539 . S
C1645 C1641 1.408 . S
C1645 C1644 1.404 . S
C1645 H1657 0.930 . S
C1646 C1642 1.524 . S
C1646 H1658 0.956 . S
C1646 H1659 0.961 . S
C1646 H1660 0.961 . S
C1647 C1644 1.539 . S
C1647 H1661 0.958 . S
C1647 H1662 0.961 . S
C1647 H1663 0.960 . S
H1648 C1632 0.931 . S
H1649 C1637 0.929 . S
H1650 C1638 0.960 . S
H1651 C1638 0.962 . S
H1652 C1638 0.960 . S
H1653 C1639 0.961 . S
H1654 C1639 0.961 . S
H1655 C1639 0.961 . S
H1656 C1640 0.931 . S
H1657 C1645 0.930 . S
H1658 C1646 0.956 . S
H1659 C1646 0.961 . S
H1660 C1646 0.961 . S
H1661 C1647 0.958 . S
H1662 C1647 0.961 . S
H1663 C1647 0.960 . S
C1664 C1665 1.391 . S
C1664 C1666 1.394 . S
C1664 H1680 0.931 . S
C1665 C1664 1.391 . S
C1665 C1669 1.376 . S
C1666 C1664 1.394 . S
C1666 C1667 1.369 . S
C1666 C1670 1.531 . S
C1667 C1666 1.369 . S
C1667 C1668 1.410 . S
C1667 C1675 1.503 . S
C1668 C1667 1.410 . S
C1668 C1669 1.392 . S
C1668 C1671 1.511 . S
C1669 C1665 1.376 . S
C1669 C1668 1.392 . S
C1669 H1681 0.929 . S
C1670 C1666 1.531 . S
C1670 H1682 0.960 . S
C1670 H1683 0.962 . S
C1670 H1684 0.960 . S
C1671 C1668 1.511 . S
C1671 H1685 0.961 . S
C1671 H1686 0.961 . S
C1671 H1687 0.961 . S
C1672 C1673 1.370 . S
C1672 C1674 1.363 . S
C1672 H1688 0.931 . S
C1673 C1672 1.370 . S
C1673 C1677 1.408 . S
C1674 C1672 1.363 . S
C1674 C1675 1.370 . S
C1674 C1678 1.524 . S
C1675 C1667 1.503 . S
C1675 C1674 1.370 . S
C1675 C1676 1.403 . S
C1676 C1675 1.403 . S
C1676 C1677 1.404 . S
C1676 C1679 1.539 . S
C1677 C1673 1.408 . S
C1677 C1676 1.404 . S
C1677 H1689 0.930 . S
C1678 C1674 1.524 . S
C1678 H1690 0.956 . S
C1678 H1691 0.961 . S
C1678 H1692 0.961 . S
C1679 C1676 1.539 . S
C1679 H1693 0.958 . S
C1679 H1694 0.961 . S
C1679 H1695 0.960 . S
H1680 C1664 0.931 . S
H1681 C1669 0.929 . S
H1682 C1670 0.960 . S
H1683 C1670 0.962 . S
H1684 C1670 0.960 . S
H1685 C1671 0.961 . S
H1686 C1671 0.961 . S
H1687 C1671 0.961 . S
H1688 C1672 0.931 . S
H1689 C1677 0.930 . S
H1690 C1678 0.956 . S
H1691 C1678 0.961 . S
H1692 C1678 0.961 . S
H1693 C1679 0.958 . S
H1694 C1679 0.961 . S
H1695 C1679 0.960 . S
C1696 C1697 1.391 . S
C1696 C1698 1.394 . S
C1696 H1712 0.931 . S
C1697 C1696 1.391 . S
C1697 C1701 1.376 . S
C1698 C1696 1.394 . S
C1698 C1699 1.369 . S
C1698 C1702 1.531 . S
C1699 C1698 1.369 . S
C1699 C1700 1.410 . S
C1699 C1707 1.503 . S
C1700 C1699 1.410 . S
C1700 C1701 1.392 . S
C1700 C1703 1.511 . S
C1701 C1697 1.376 . S
C1701 C1700 1.392 . S
C1701 H1713 0.929 . S
C1702 C1698 1.531 . S
C1702 H1714 0.960 . S
C1702 H1715 0.962 . S
C1702 H1716 0.960 . S
C1703 C1700 1.511 . S
C1703 H1717 0.961 . S
C1703 H1718 0.961 . S
C1703 H1719 0.961 . S
C1704 C1705 1.370 . S
C1704 C1706 1.363 . S
C1704 H1720 0.931 . S
C1705 C1704 1.370 . S
C1705 C1709 1.408 . S
C1706 C1704 1.363 . S
C1706 C1707 1.370 . S
C1706 C1710 1.524 . S
C1707 C1699 1.503 . S
C1707 C1706 1.370 . S
C1707 C1708 1.403 . S
C1708 C1707 1.403 . S
C1708 C1709 1.404 . S
C1708 C1711 1.539 . S
C1709 C1705 1.408 . S
C1709 C1708 1.404 . S
C1709 H1721 0.930 . S
C1710 C1706 1.524 . S
C1710 H1722 0.956 . S
C1710 H1723 0.961 . S
C1710 H1724 0.961 . S
C1711 C1708 1.539 . S
C1711 H1725 0.958 . S
C1711 H1726 0.961 . S
C1711 H1727 0.960 . S
H1712 C1696 0.931 . S
H1713 C1701 0.929 . S
H1714 C1702 0.960 . S
H1715 C1702 0.962 . S
H1716 C1702 0.960 . S
H1717 C1703 0.961 . S
H1718 C1703 0.961 . S
H1719 C1703 0.961 . S
H1720 C1704 0.931 . S
H1721 C1709 0.930 . S
H1722 C1710 0.956 . S
H1723 C1710 0.961 . S
H1724 C1710 0.961 . S
H1725 C1711 0.958 . S
H1726 C1711 0.961 . S
H1727 C1711 0.960 . S
C1728 C1729 1.391 . S
C1728 C1730 1.394 . S
C1728 H1744 0.931 . S
C1729 C1728 1.391 . S
C1729 C1733 1.376 . S
C1730 C1728 1.394 . S
C1730 C1731 1.369 . S
C1730 C1734 1.531 1_556 S
C1731 C1730 1.369 . S
C1731 C1732 1.410 . S
C1731 C1739 1.503 . S
C1732 C1731 1.410 . S
C1732 C1733 1.392 . S
C1732 C1735 1.511 . S
C1733 C1729 1.376 . S
C1733 C1732 1.392 . S
C1733 H1745 0.929 . S
C1734 C1730 1.531 1_554 S
C1734 H1746 0.960 . S
C1734 H1747 0.962 . S
C1734 H1748 0.960 . S
C1735 C1732 1.511 . S
C1735 H1749 0.961 . S
C1735 H1750 0.961 . S
C1735 H1751 0.961 . S
C1736 C1737 1.370 . S
C1736 C1738 1.375 . S
C1736 H1752 0.931 . S
C1737 C1736 1.370 . S
C1737 C1741 1.408 . S
C1738 C1736 1.375 . S
C1738 C1739 1.366 1_554 S
C1738 C1742 1.517 1_554 S
C1739 C1731 1.503 . S
C1739 C1738 1.366 1_556 S
C1739 C1740 1.403 1_556 S
C1740 C1739 1.403 1_554 S
C1740 C1741 1.404 . S
C1740 C1743 1.539 1_554 S
C1741 C1737 1.408 . S
C1741 C1740 1.404 . S
C1741 H1753 0.930 . S
C1742 C1738 1.517 1_556 S
C1742 H1754 0.956 . S
C1742 H1755 0.961 . S
C1742 H1756 0.961 . S
C1743 C1740 1.539 1_556 S
C1743 H1757 0.958 1_556 S
C1743 H1758 0.961 . S
C1743 H1759 0.960 . S
H1744 C1728 0.931 . S
H1745 C1733 0.929 . S
H1746 C1734 0.960 . S
H1747 C1734 0.962 . S
H1748 C1734 0.960 . S
H1749 C1735 0.961 . S
H1750 C1735 0.961 . S
H1751 C1735 0.961 . S
H1752 C1736 0.931 . S
H1753 C1741 0.930 . S
H1754 C1742 0.956 . S
H1755 C1742 0.961 . S
H1756 C1742 0.961 . S
H1757 C1743 0.958 1_554 S
H1758 C1743 0.961 . S
H1759 C1743 0.960 . S
C1760 C1761 1.391 . S
C1760 C1762 1.394 . S
C1760 H1776 0.931 . S
C1761 C1760 1.391 . S
C1761 C1765 1.376 . S
C1762 C1760 1.394 . S
C1762 C1763 1.369 . S
C1762 C1766 1.531 . S
C1763 C1762 1.369 . S
C1763 C1764 1.410 . S
C1763 C1771 1.503 . S
C1764 C1763 1.410 . S
C1764 C1765 1.392 . S
C1764 C1767 1.511 . S
C1765 C1761 1.376 . S
C1765 C1764 1.392 . S
C1765 H1777 0.929 . S
C1766 C1762 1.531 . S
C1766 H1778 0.960 . S
C1766 H1779 0.962 1_556 S
C1766 H1780 0.960 . S
C1767 C1764 1.511 . S
C1767 H1781 0.961 . S
C1767 H1782 0.961 . S
C1767 H1783 0.961 . S
C1768 C1769 1.370 . S
C1768 C1770 1.363 . S
C1768 H1784 0.931 . S
C1769 C1768 1.370 . S
C1769 C1773 1.408 1_554 S
C1770 C1768 1.363 . S
C1770 C1771 1.370 1_554 S
C1770 C1774 1.524 . S
C1771 C1763 1.503 . S
C1771 C1770 1.370 1_556 S
C1771 C1772 1.403 . S
C1772 C1771 1.403 . S
C1772 C1773 1.404 . S
C1772 C1775 1.539 . S
C1773 C1769 1.408 1_556 S
C1773 C1772 1.404 . S
C1773 H1785 0.930 . S
C1774 C1770 1.524 . S
C1774 H1786 0.956 . S
C1774 H1787 0.961 . S
C1774 H1788 0.961 . S
C1775 C1772 1.539 . S
C1775 H1789 0.958 . S
C1775 H1790 0.961 . S
C1775 H1791 0.960 . S
H1776 C1760 0.931 . S
H1777 C1765 0.929 . S
H1778 C1766 0.960 . S
H1779 C1766 0.962 1_554 S
H1780 C1766 0.960 . S
H1781 C1767 0.961 . S
H1782 C1767 0.961 . S
H1783 C1767 0.961 . S
H1784 C1768 0.931 . S
H1785 C1773 0.930 . S
H1786 C1774 0.956 . S
H1787 C1774 0.961 . S
H1788 C1774 0.961 . S
H1789 C1775 0.958 . S
H1790 C1775 0.961 . S
H1791 C1775 0.960 . S
C1792 C1793 1.391 . S
C1792 C1794 1.394 . S
C1792 H1808 0.931 . S
C1793 C1792 1.391 . S
C1793 C1797 1.376 1_554 S
C1794 C1792 1.394 . S
C1794 C1795 1.369 1_554 S
C1794 C1798 1.531 . S
C1795 C1794 1.369 1_556 S
C1795 C1796 1.410 . S
C1795 C1803 1.503 . S
C1796 C1795 1.410 . S
C1796 C1797 1.392 . S
C1796 C1799 1.511 . S
C1797 C1793 1.376 1_556 S
C1797 C1796 1.392 . S
C1797 H1809 0.929 . S
C1798 C1794 1.531 . S
C1798 H1810 0.960 . S
C1798 H1811 0.962 . S
C1798 H1812 0.960 . S
C1799 C1796 1.511 . S
C1799 H1813 0.961 . S
C1799 H1814 0.961 . S
C1799 H1815 0.961 . S
C1800 C1801 1.370 . S
C1800 C1802 1.363 . S
C1800 H1816 0.931 . S
C1801 C1800 1.370 . S
C1801 C1805 1.408 . S
C1802 C1800 1.363 . S
C1802 C1803 1.370 . S
C1802 C1806 1.524 . S
C1803 C1795 1.503 . S
C1803 C1802 1.370 . S
C1803 C1804 1.403 . S
C1804 C1803 1.403 . S
C1804 C1805 1.404 . S
C1804 C1807 1.539 . S
C1805 C1801 1.408 . S
C1805 C1804 1.404 . S
C1805 H1817 0.930 . S
C1806 C1802 1.524 . S
C1806 H1818 0.956 1_556 S
C1806 H1819 0.961 . S
C1806 H1820 0.961 . S
C1807 C1804 1.539 . S
C1807 H1821 0.958 . S
C1807 H1822 0.961 . S
C1807 H1823 0.960 . S
H1808 C1792 0.931 . S
H1809 C1797 0.929 . S
H1810 C1798 0.960 . S
H1811 C1798 0.962 . S
H1812 C1798 0.960 . S
H1813 C1799 0.961 . S
H1814 C1799 0.961 . S
H1815 C1799 0.961 . S
H1816 C1800 0.931 . S
H1817 C1805 0.930 . S
H1818 C1806 0.956 1_554 S
H1819 C1806 0.961 . S
H1820 C1806 0.961 . S
H1821 C1807 0.958 . S
H1822 C1807 0.961 . S
H1823 C1807 0.960 . S
C1824 C1825 1.391 1_556 S
C1824 C1826 1.394 . S
C1824 H1840 0.931 . S
C1825 C1824 1.391 1_554 S
C1825 C1829 1.376 . S
C1826 C1824 1.394 . S
C1826 C1827 1.369 . S
C1826 C1830 1.531 . S
C1827 C1826 1.369 . S
C1827 C1828 1.410 1_556 S
C1827 C1835 1.503 . S
C1828 C1827 1.410 1_554 S
C1828 C1829 1.392 . S
C1828 C1831 1.511 . S
C1829 C1825 1.376 . S
C1829 C1828 1.392 . S
C1829 H1841 0.929 . S
C1830 C1826 1.531 . S
C1830 H1842 0.960 . S
C1830 H1843 0.962 . S
C1830 H1844 0.960 . S
C1831 C1828 1.511 . S
C1831 H1845 0.961 . S
C1831 H1846 0.961 . S
C1831 H1847 0.961 . S
C1832 C1833 1.370 . S
C1832 C1834 1.363 . S
C1832 H1848 0.931 . S
C1833 C1832 1.370 . S
C1833 C1837 1.408 . S
C1834 C1832 1.363 . S
C1834 C1835 1.370 . S
C1834 C1838 1.524 . S
C1835 C1827 1.503 . S
C1835 C1834 1.370 . S
C1835 C1836 1.403 . S
C1836 C1835 1.403 . S
C1836 C1837 1.404 . S
C1836 C1839 1.539 . S
C1837 C1833 1.408 . S
C1837 C1836 1.404 . S
C1837 H1849 0.930 . S
C1838 C1834 1.524 . S
C1838 H1850 0.956 . S
C1838 H1851 0.961 . S
C1838 H1852 0.961 . S
C1839 C1836 1.539 . S
C1839 H1853 0.958 . S
C1839 H1854 0.961 . S
C1839 H1855 0.960 1_556 S
H1840 C1824 0.931 . S
H1841 C1829 0.929 . S
H1842 C1830 0.960 . S
H1843 C1830 0.962 . S
H1844 C1830 0.960 . S
H1845 C1831 0.961 . S
H1846 C1831 0.961 . S
H1847 C1831 0.961 . S
H1848 C1832 0.931 . S
H1849 C1837 0.930 . S
H1850 C1838 0.956 . S
H1851 C1838 0.961 . S
H1852 C1838 0.961 . S
H1853 C1839 0.958 . S
H1854 C1839 0.961 . S
H1855 C1839 0.960 1_554 S
C321 C8 1.870 . S
C329 C108 1.854 . S
C353 C128 1.864 . S
C361 C28 1.853 . S
C385 C48 1.802 . S
C393 C148 1.825 . S
C417 C68 1.847 . S
C425 C88 1.841 . S
C449 C269 1.799 . S
C457 C169 1.825 . S
C481 C289 1.816 . S
C489 C189 1.830 . S
C513 C209 1.827 . S
C521 C309 1.835 . S
C545 C229 1.801 . S
C553 C249 1.825 . S
C577 C1 1.759 . S
C585 C79 1.629 1_545 S
C609 C21 1.724 . S
C617 C19 1.624 . S
C641 C41 1.772 . S
C649 C39 1.651 . S
C673 C61 1.725 . S
C681 C59 1.634 1_455 S
C705 C81 1.772 . S
C713 C119 1.644 1_565 S
C737 C139 1.675 . S
C745 C101 1.755 . S
C769 C121 1.763 . S
C777 C159 1.636 . S
C801 C99 1.663 1_655 S
C809 C141 1.762 . S
C833 C238 1.672 1_565 S
C841 C162 1.752 . S
C865 C182 1.763 . S
C873 C178 1.630 . S
C897 C202 1.763 . S
C905 C198 1.656 . S
C929 C222 1.723 . S
C937 C218 1.635 1_655 S
C961 C242 1.771 . S
C969 C278 1.647 1_545 S
C993 C262 1.770 . S
C1001 C298 1.638 . S
C1025 C282 1.729 . S
C1033 C318 1.624 . S
C1057 C302 1.733 . S
C1065 C258 1.619 1_455 S
C1089 C2 0.420 . S
C1097 C42 0.334 . S
C1121 C22 0.442 . S
C1129 C62 0.355 . S
C1153 C122 0.311 . S
C1161 C82 0.372 . S
C1185 C142 0.407 . S
C1193 C102 0.336 . S
C1217 C201 0.362 . S
C1225 C161 0.398 . S
C1249 C221 0.400 . S
C1257 C181 0.391 . S
C1281 C241 0.405 . S
C1289 C281 0.334 . S
C1313 C261 0.374 . S
C1321 C301 0.338 . S
C1345 C18 1.537 . S
C1353 C228 1.542 . S
C1377 C168 1.537 . S
C1385 C38 1.542 . S
C1409 C58 1.538 . S
C1417 C188 1.537 . S
C1441 C208 1.532 . S
C1449 C78 1.542 . S
C1473 C268 1.529 . S
C1481 C98 1.542 . S
C1505 C118 1.537 . S
C1513 C288 1.536 . S
C1537 C308 1.540 . S
C1545 C138 1.541 . S
C1569 C158 1.537 . S
C1577 C248 1.541 . S
C1601 C179 1.538 . S
C1609 C69 1.537 . S
C1633 C199 1.537 . S
C1641 C9 1.537 . S
C1665 C29 1.530 . S
C1673 C219 1.542 . S
C1697 C239 1.538 . S
C1705 C49 1.541 . S
C1729 C259 1.538 . S
C1737 C109 1.537 . S
C1761 C279 1.539 . S
C1769 C129 1.540 . S
C1793 C149 1.542 . S
C1801 C299 1.542 . S
C1825 C89 1.529 . S
C1833 C319 1.542 . S
