# Generated by pormake.
# Topology uoz, (4)-cn, num edge types: 1
# Building blocks:
#     Node 0, Type 0, BuildingBlock: QUQFOY_clean_sbu_1, # of connection points: 4
#     Node 1, Type 0, BuildingBlock: QUQFOY_clean_sbu_1, # of connection points: 4
#     Node 2, Type 0, BuildingBlock: QUQFOY_clean_sbu_1, # of connection points: 4
#     Node 3, Type 0, BuildingBlock: QUQFOY_clean_sbu_1, # of connection points: 4
#     Node 4, Type 0, BuildingBlock: QUQFOY_clean_sbu_1, # of connection points: 4
#     Node 5, Type 0, BuildingBlock: QUQFOY_clean_sbu_1, # of connection points: 4
#     Node 6, Type 0, BuildingBlock: QUQFOY_clean_sbu_1, # of connection points: 4
#     Node 7, Type 0, BuildingBlock: QUQFOY_clean_sbu_1, # of connection points: 4
#     Node 8, Type 0, BuildingBlock: QUQFOY_clean_sbu_1, # of connection points: 4
#     Node 9, Type 0, BuildingBlock: QUQFOY_clean_sbu_1, # of connection points: 4
#     Node 10, Type 0, BuildingBlock: QUQFOY_clean_sbu_1, # of connection points: 4
#     Node 11, Type 0, BuildingBlock: QUQFOY_clean_sbu_1, # of connection points: 4
#     Node 12, Type 0, BuildingBlock: QUQFOY_clean_sbu_1, # of connection points: 4
#     Node 13, Type 0, BuildingBlock: QUQFOY_clean_sbu_1, # of connection points: 4
#     Node 14, Type 0, BuildingBlock: QUQFOY_clean_sbu_1, # of connection points: 4
#     Node 15, Type 0, BuildingBlock: QUQFOY_clean_sbu_1, # of connection points: 4
#     Edge 16, Type (0, 0), BuildingBlock: TEMPAE_clean_linker_10, # of connection points: 2
#     Edge 17, Type (0, 0), BuildingBlock: TEMPAE_clean_linker_10, # of connection points: 2
#     Edge 18, Type (0, 0), BuildingBlock: TEMPAE_clean_linker_10, # of connection points: 2
#     Edge 19, Type (0, 0), BuildingBlock: TEMPAE_clean_linker_10, # of connection points: 2
#     Edge 20, Type (0, 0), BuildingBlock: TEMPAE_clean_linker_10, # of connection points: 2
#     Edge 21, Type (0, 0), BuildingBlock: TEMPAE_clean_linker_10, # of connection points: 2
#     Edge 22, Type (0, 0), BuildingBlock: TEMPAE_clean_linker_10, # of connection points: 2
#     Edge 23, Type (0, 0), BuildingBlock: TEMPAE_clean_linker_10, # of connection points: 2
#     Edge 24, Type (0, 0), BuildingBlock: TEMPAE_clean_linker_10, # of connection points: 2
#     Edge 25, Type (0, 0), BuildingBlock: TEMPAE_clean_linker_10, # of connection points: 2
#     Edge 26, Type (0, 0), BuildingBlock: TEMPAE_clean_linker_10, # of connection points: 2
#     Edge 27, Type (0, 0), BuildingBlock: TEMPAE_clean_linker_10, # of connection points: 2
#     Edge 28, Type (0, 0), BuildingBlock: TEMPAE_clean_linker_10, # of connection points: 2
#     Edge 29, Type (0, 0), BuildingBlock: TEMPAE_clean_linker_10, # of connection points: 2
#     Edge 30, Type (0, 0), BuildingBlock: TEMPAE_clean_linker_10, # of connection points: 2
#     Edge 31, Type (0, 0), BuildingBlock: TEMPAE_clean_linker_10, # of connection points: 2
#     Edge 32, Type (0, 0), BuildingBlock: TEMPAE_clean_linker_10, # of connection points: 2
#     Edge 33, Type (0, 0), BuildingBlock: TEMPAE_clean_linker_10, # of connection points: 2
#     Edge 34, Type (0, 0), BuildingBlock: TEMPAE_clean_linker_10, # of connection points: 2
#     Edge 35, Type (0, 0), BuildingBlock: TEMPAE_clean_linker_10, # of connection points: 2
#     Edge 36, Type (0, 0), BuildingBlock: TEMPAE_clean_linker_10, # of connection points: 2
#     Edge 37, Type (0, 0), BuildingBlock: TEMPAE_clean_linker_10, # of connection points: 2
#     Edge 38, Type (0, 0), BuildingBlock: TEMPAE_clean_linker_10, # of connection points: 2
#     Edge 39, Type (0, 0), BuildingBlock: TEMPAE_clean_linker_10, # of connection points: 2
#     Edge 40, Type (0, 0), BuildingBlock: TEMPAE_clean_linker_10, # of connection points: 2
#     Edge 41, Type (0, 0), BuildingBlock: TEMPAE_clean_linker_10, # of connection points: 2
#     Edge 42, Type (0, 0), BuildingBlock: TEMPAE_clean_linker_10, # of connection points: 2
#     Edge 43, Type (0, 0), BuildingBlock: TEMPAE_clean_linker_10, # of connection points: 2
#     Edge 44, Type (0, 0), BuildingBlock: TEMPAE_clean_linker_10, # of connection points: 2
#     Edge 45, Type (0, 0), BuildingBlock: TEMPAE_clean_linker_10, # of connection points: 2
#     Edge 46, Type (0, 0), BuildingBlock: TEMPAE_clean_linker_10, # of connection points: 2
#     Edge 47, Type (0, 0), BuildingBlock: TEMPAE_clean_linker_10, # of connection points: 2
# Relax obj value: 0.170
# Max RMSD: 0.208
# Mean RMSD: 0.208
data_MOF--net-uoz--node1-QUQFOY_clean_sbu_1--edge1-TEMPAE_clean_linker_10
_symmetry_space_group_name_H-M    P1
_symmetry_Int_Tables_number       1
_symmetry_cell_setting            triclinic
loop_
_symmetry_equiv_pos_as_xyz
'x, y, z'
_cell_length_a     64.919774
_cell_length_b     64.897857
_cell_length_c     22.671977
_cell_angle_alpha  90.027559
_cell_angle_beta   90.022908
_cell_angle_gamma 90.020334
loop_
_atom_site_label
_atom_site_type_symbol
_atom_site_fract_x
_atom_site_fract_y
_atom_site_fract_z
_atom_type_partial_charge
O0 O 0.1203 0.56734 0.30303 0.0
Cd1 Cd 0.11325 0.58932 0.36477 0.0
Cd2 Cd 0.08092 0.59649 0.29415 0.0
O3 O 0.08815 0.56666 0.27251 0.0
O4 O 0.12359 0.57965 0.44252 0.0
O5 O 0.09038 0.58091 0.41874 0.0
C6 C 0.10465 0.57544 0.45544 0.0
C7 C 0.04665 0.60627 0.27876 0.0
C8 C 0.1061 0.55892 0.27302 0.0
C9 C 0.11639 0.62694 0.29592 0.0
O10 O 0.10122 0.61913 0.26846 0.0
O11 O 0.12262 0.61884 0.34379 0.0
O12 O 0.05839 0.6009 0.2359 0.0
O13 O 0.0541 0.60564 0.33149 0.0
O14 O 0.75772 0.75021 0.48786 0.0
Cd15 Cd 0.74419 0.7622 0.562 0.0
Cd16 Cd 0.71009 0.73508 0.51324 0.0
O17 O 0.73324 0.72975 0.45407 0.0
O18 O 0.76797 0.77658 0.59953 0.0
O19 O 0.75192 0.75034 0.64119 0.0
C20 C 0.76673 0.76364 0.64241 0.0
C21 C 0.68629 0.70791 0.51148 0.0
C22 C 0.75119 0.73728 0.45024 0.0
C23 C 0.70368 0.78187 0.53077 0.0
O24 O 0.69725 0.76405 0.51647 0.0
O25 O 0.72179 0.78445 0.55085 0.0
O26 O 0.68739 0.72124 0.46982 0.0
O27 O 0.69845 0.71015 0.55604 0.0
O28 O 0.51577 0.4269 0.76684 0.0
Cd29 Cd 0.51802 0.40657 0.83552 0.0
Cd30 Cd 0.54947 0.38939 0.7672 0.0
O31 O 0.54642 0.41844 0.73296 0.0
O32 O 0.50781 0.42087 0.90738 0.0
O33 O 0.54076 0.41329 0.89214 0.0
C34 C 0.52682 0.42232 0.92369 0.0
C35 C 0.58159 0.37472 0.74534 0.0
C36 C 0.53079 0.43016 0.73232 0.0
C37 C 0.50864 0.36639 0.78232 0.0
O38 O 0.52555 0.36904 0.75518 0.0
O39 O 0.50322 0.37874 0.82304 0.0
O40 O 0.5685 0.37915 0.70494 0.0
O41 O 0.57661 0.3785 0.79932 0.0
O42 O 0.87139 0.26567 0.94149 0.0
Cd43 Cd 0.88573 0.25207 0.01212 0.0
Cd44 Cd 0.91908 0.279 0.96054 0.0
O45 O 0.89561 0.28551 0.9034 0.0
O46 O 0.86236 0.23565 0.04461 0.0
O47 O 0.87759 0.26047 0.0948 0.0
C48 C 0.86328 0.24668 0.09168 0.0
C49 C 0.9428 0.30602 0.96837 0.0
C50 C 0.8774 0.27849 0.90286 0.0
C51 C 0.9254 0.23228 0.97115 0.0
O52 O 0.93188 0.25004 0.9566 0.0
O53 O 0.90782 0.22997 0.99499 0.0
O54 O 0.94169 0.2946 0.92222 0.0
O55 O 0.93045 0.30208 0.01149 0.0
O56 O 0.12527 0.4566 0.90891 0.0
Cd57 Cd 0.11766 0.44136 0.83229 0.0
Cd58 Cd 0.08846 0.42123 0.90801 0.0
O59 O 0.10041 0.44305 0.96322 0.0
O60 O 0.12788 0.45849 0.76552 0.0
O61 O 0.0947 0.45398 0.78482 0.0
C62 C 0.10891 0.46271 0.75364 0.0
C63 C 0.05572 0.40882 0.93453 0.0
C64 C 0.11566 0.45513 0.95752 0.0
C65 C 0.12308 0.39622 0.85099 0.0
O66 O 0.10767 0.39766 0.88508 0.0
O67 O 0.12938 0.41183 0.82227 0.0
O68 O 0.07169 0.40588 0.96679 0.0
O69 O 0.05804 0.41955 0.88711 0.0
O70 O 0.85858 0.73742 0.11741 0.0
Cd71 Cd 0.88265 0.74738 0.06649 0.0
Cd72 Cd 0.90092 0.71519 0.14054 0.0
O73 O 0.87042 0.70756 0.14853 0.0
O74 O 0.86755 0.76779 0.01724 0.0
O75 O 0.88142 0.73961 0.98015 0.0
C76 C 0.87007 0.75575 0.97275 0.0
C77 C 0.92425 0.68816 0.15412 0.0
C78 C 0.85569 0.72019 0.14242 0.0
C79 C 0.91313 0.76019 0.15722 0.0
O80 O 0.91118 0.7422 0.17865 0.0
O81 O 0.90511 0.76473 0.10768 0.0
O82 O 0.91264 0.69456 0.19615 0.0
O83 O 0.92239 0.69677 0.1031 0.0
O84 O 0.52392 0.53936 0.37617 0.0
Cd85 Cd 0.52746 0.55657 0.30093 0.0
Cd86 Cd 0.55635 0.57863 0.37968 0.0
O87 O 0.55037 0.55218 0.42551 0.0
O88 O 0.51511 0.53964 0.23658 0.0
O89 O 0.54858 0.54591 0.24339 0.0
C90 C 0.53352 0.53662 0.21722 0.0
C91 C 0.58577 0.59632 0.41353 0.0
C92 C 0.53579 0.53925 0.42068 0.0
C93 C 0.51649 0.59934 0.33466 0.0
O94 O 0.53232 0.59865 0.36744 0.0
O95 O 0.51233 0.58459 0.29971 0.0
O96 O 0.56963 0.59407 0.44542 0.0
O97 O 0.58563 0.58804 0.36181 0.0
O98 O 0.77443 0.25207 0.57467 0.0
Cd99 Cd 0.75139 0.23951 0.52419 0.0
Cd100 Cd 0.73062 0.26997 0.59251 0.0
O101 O 0.75975 0.28212 0.58905 0.0
O102 O 0.7677 0.22181 0.47002 0.0
O103 O 0.75028 0.2491 0.43981 0.0
C104 C 0.76317 0.23447 0.42822 0.0
C105 C 0.70447 0.29394 0.6103 0.0
C106 C 0.77565 0.27082 0.59002 0.0
C107 C 0.72402 0.22452 0.61716 0.0
O108 O 0.72541 0.24273 0.63739 0.0
O109 O 0.73069 0.2203 0.56583 0.0
O110 O 0.71834 0.28996 0.64903 0.0
O111 O 0.70553 0.28461 0.56013 0.0
O112 O 0.36183 0.23665 0.54976 0.0
Cd113 Cd 0.38369 0.24983 0.49662 0.0
Cd114 Cd 0.40709 0.21645 0.57299 0.0
O115 O 0.37679 0.20774 0.57822 0.0
O116 O 0.36587 0.26822 0.44829 0.0
O117 O 0.38271 0.24177 0.41064 0.0
C118 C 0.36953 0.25649 0.40373 0.0
C119 C 0.42965 0.19274 0.61713 0.0
C120 C 0.36089 0.21897 0.57349 0.0
C121 C 0.41589 0.26414 0.57953 0.0
O122 O 0.41675 0.24554 0.59667 0.0
O123 O 0.40491 0.26924 0.53547 0.0
O124 O 0.41657 0.20315 0.64724 0.0
O125 O 0.42946 0.19499 0.5606 0.0
O126 O 0.25874 0.75769 0.06666 0.0
Cd127 Cd 0.23767 0.74587 0.00858 0.0
Cd128 Cd 0.21361 0.78014 0.08042 0.0
O129 O 0.24351 0.78488 0.10604 0.0
O130 O 0.25571 0.72573 0.96685 0.0
O131 O 0.2419 0.75258 0.92229 0.0
C132 C 0.25416 0.73692 0.92025 0.0
C133 C 0.19149 0.80695 0.10966 0.0
C134 C 0.25925 0.77355 0.09937 0.0
C135 C 0.20096 0.73353 0.08058 0.0
O136 O 0.19982 0.75217 0.09736 0.0
O137 O 0.21425 0.7279 0.04265 0.0
O138 O 0.20024 0.79496 0.14692 0.0
O139 O 0.19569 0.80426 0.05459 0.0
O140 O 0.26111 0.23578 0.91695 0.0
Cd141 Cd 0.24621 0.24998 0.98582 0.0
Cd142 Cd 0.21335 0.22392 0.93228 0.0
O143 O 0.2372 0.21554 0.87891 0.0
O144 O 0.26961 0.26549 0.02179 0.0
O145 O 0.25286 0.24098 0.06908 0.0
C146 C 0.26771 0.25423 0.06815 0.0
C147 C 0.18906 0.19773 0.94497 0.0
C148 C 0.25547 0.22241 0.87933 0.0
C149 C 0.20827 0.2708 0.93747 0.0
O150 O 0.20178 0.25318 0.92169 0.0
O151 O 0.22505 0.27275 0.96593 0.0
O152 O 0.19039 0.20798 0.89667 0.0
O153 O 0.20143 0.20246 0.98744 0.0
O154 O 0.36178 0.74046 0.43786 0.0
Cd155 Cd 0.378 0.72738 0.50603 0.0
Cd156 Cd 0.40832 0.75682 0.45792 0.0
O157 O 0.38315 0.76494 0.40921 0.0
O158 O 0.35595 0.71202 0.54854 0.0
O159 O 0.37277 0.73823 0.58798 0.0
C160 C 0.35824 0.72468 0.59183 0.0
C161 C 0.43239 0.78348 0.46616 0.0
C162 C 0.36591 0.75588 0.40548 0.0
C163 C 0.41667 0.71005 0.45553 0.0
O164 O 0.4213 0.72848 0.44219 0.0
O165 O 0.40046 0.70604 0.48482 0.0
O166 O 0.42975 0.77354 0.41781 0.0
O167 O 0.42133 0.77837 0.51109 0.0
O168 O 0.61038 0.06615 0.76592 0.0
Cd169 Cd 0.61716 0.08137 0.84246 0.0
Cd170 Cd 0.58676 0.10998 0.79179 0.0
O171 O 0.58689 0.08711 0.72958 0.0
O172 O 0.63185 0.05966 0.88771 0.0
O173 O 0.60203 0.0729 0.91604 0.0
C174 C 0.61651 0.0595 0.92379 0.0
C175 C 0.55562 0.12799 0.78609 0.0
C176 C 0.59744 0.07074 0.72616 0.0
C177 C 0.63117 0.12429 0.81731 0.0
O178 O 0.61275 0.12783 0.8012 0.0
O179 O 0.63639 0.10661 0.83638 0.0
O180 O 0.57001 0.13049 0.74804 0.0
O181 O 0.55902 0.11573 0.82976 0.0
O182 O -0.00113 0.93317 0.27827 0.0
Cd183 Cd 0.00582 0.91625 0.35214 0.0
Cd184 Cd 0.03484 0.89633 0.27574 0.0
O185 O 0.02293 0.91896 0.22272 0.0
O186 O 0.9968 0.93253 0.42184 0.0
O187 O 0.02963 0.92674 0.40022 0.0
C188 C 0.01604 0.93559 0.43333 0.0
C189 C 0.06723 0.88471 0.2438 0.0
C190 C 0.00839 0.93182 0.22952 0.0
C191 C -0.00038 0.87139 0.33032 0.0
O192 O 0.01577 0.87251 0.29897 0.0
O193 O 0.99289 0.88718 0.35738 0.0
O194 O 0.05067 0.88101 0.21485 0.0
O195 O 0.06569 0.89537 0.29161 0.0
O196 O 0.59274 0.95689 0.39197 0.0
Cd197 Cd 0.59881 0.93462 0.33019 0.0
Cd198 Cd 0.56742 0.91525 0.41059 0.0
O199 O 0.56561 0.94498 0.43967 0.0
O200 O 0.61852 0.9506 0.28111 0.0
O201 O 0.58833 0.94026 0.24765 0.0
C202 C 0.60495 0.95085 0.23979 0.0
C203 C 0.53808 0.89505 0.42626 0.0
C204 C 0.57839 0.9593 0.42931 0.0
C205 C 0.61137 0.89764 0.39955 0.0
O206 O 0.59415 0.8991 0.42575 0.0
O207 O 0.61567 0.90913 0.35584 0.0
O208 O 0.54961 0.90096 0.46908 0.0
O209 O 0.5428 0.9011 0.37376 0.0
O210 O 0.00849 0.04625 0.88677 0.0
Cd211 Cd 0.01605 0.06544 0.81786 0.0
Cd212 Cd 0.04553 0.07901 0.89769 0.0
O213 O 0.03739 0.05158 0.9356 0.0
O214 O 0.00505 0.05224 0.74517 0.0
O215 O 0.03844 0.05482 0.76471 0.0
C216 C 0.02383 0.048 0.73115 0.0
C217 C 0.07853 0.09175 0.9183 0.0
C218 C 0.02065 0.04173 0.92869 0.0
C219 C 0.00978 0.10719 0.86434 0.0
O220 O 0.02427 0.1024 0.89928 0.0
O221 O 0.00497 0.09524 0.82209 0.0
O222 O 0.06463 0.0902 0.95837 0.0
O223 O 0.0741 0.08501 0.86624 0.0
C224 C 0.18965 0.697 0.09858 0.0
C225 C 0.18741 0.71815 0.10964 0.0
C226 C 0.17793 0.68241 0.12979 0.0
C227 C 0.16368 0.68914 0.17304 0.0
C228 C 0.16112 0.71044 0.18369 0.0
C229 C 0.17295 0.72466 0.15185 0.0
C230 C 0.18094 0.65978 0.11694 0.0
C231 C 0.14602 0.71823 0.22923 0.0
C232 C 0.12032 0.65294 0.21558 0.0
C233 C 0.12776 0.64421 0.26814 0.0
C234 C 0.13179 0.66765 0.18451 0.0
C235 C 0.15118 0.67392 0.20655 0.0
C236 C 0.15855 0.66568 0.26044 0.0
C237 C 0.14675 0.6509 0.29065 0.0
C238 C 0.12334 0.67615 0.12739 0.0
C239 C 0.1791 0.67218 0.28552 0.0
H240 H 0.20079 0.69181 0.06625 0.0
H241 H 0.17104 0.74095 0.16083 0.0
H242 H 0.18603 0.65169 0.1575 0.0
H243 H 0.16612 0.65275 0.10319 0.0
H244 H 0.19251 0.65707 0.0817 0.0
H245 H 0.14584 0.73532 0.23212 0.0
H246 H 0.13025 0.71283 0.21843 0.0
H247 H 0.15 0.71192 0.27325 0.0
H248 H 0.10564 0.64794 0.1978 0.0
H249 H 0.15264 0.64422 0.33107 0.0
H250 H 0.13389 0.67229 0.09052 0.0
H251 H 0.12237 0.6932 0.12975 0.0
H252 H 0.1078 0.66997 0.11691 0.0
H253 H 0.19158 0.66808 0.25423 0.0
H254 H 0.18238 0.66476 0.32867 0.0
H255 H 0.17951 0.68914 0.29138 0.0
C256 C 0.62413 0.87416 0.47851 0.0
C257 C 0.62647 0.8824 0.42165 0.0
C258 C 0.63761 0.85909 0.49999 0.0
C259 C 0.6537 0.85184 0.46347 0.0
C260 C 0.65653 0.86046 0.40661 0.0
C261 C 0.64294 0.87578 0.38648 0.0
C262 C 0.63423 0.85048 0.56112 0.0
C263 C 0.67342 0.85294 0.36624 0.0
C264 C 0.69694 0.82003 0.53082 0.0
C265 C 0.69036 0.7999 0.51813 0.0
C266 C 0.68511 0.83716 0.51376 0.0
C267 C 0.66639 0.83405 0.48293 0.0
C268 C 0.65951 0.8138 0.47095 0.0
C269 C 0.6715 0.79701 0.48894 0.0
C270 C 0.69273 0.85856 0.52806 0.0
C271 C 0.63962 0.80983 0.43815 0.0
H272 H 0.61161 0.87941 0.50636 0.0
H273 H 0.64485 0.88211 0.3426 0.0
H274 H 0.62946 0.83409 0.55797 0.0
H275 H 0.64877 0.85096 0.5868 0.0
H276 H 0.62219 0.85905 0.58582 0.0
H277 H 0.6744 0.86212 0.32499 0.0
H278 H 0.68851 0.85361 0.38907 0.0
H279 H 0.67057 0.8366 0.35437 0.0
H280 H 0.71148 0.82243 0.5533 0.0
H281 H 0.66624 0.78156 0.47876 0.0
H282 H 0.68088 0.86706 0.5536 0.0
H283 H 0.69538 0.86728 0.48668 0.0
H284 H 0.70727 0.85835 0.55386 0.0
H285 H 0.62651 0.81671 0.46252 0.0
H286 H 0.63654 0.79313 0.43197 0.0
H287 H 0.64018 0.81729 0.39414 0.0
C288 C 0.47361 0.34999 0.77732 0.0
C289 C 0.49445 0.35014 0.76088 0.0
C290 C 0.45961 0.33635 0.75053 0.0
C291 C 0.46665 0.32258 0.70643 0.0
C292 C 0.48776 0.32221 0.69114 0.0
C293 C 0.50138 0.33593 0.7186 0.0
C294 C 0.43722 0.337 0.76832 0.0
C295 C 0.49593 0.30763 0.64472 0.0
C296 C 0.43717 0.2742 0.66662 0.0
C297 C 0.4279 0.27973 0.61285 0.0
C298 C 0.44916 0.28825 0.69857 0.0
C299 C 0.45212 0.30835 0.67621 0.0
C300 C 0.44244 0.31426 0.62276 0.0
C301 C 0.43036 0.29988 0.59175 0.0
C302 C 0.45914 0.28136 0.75546 0.0
C303 C 0.44535 0.33558 0.59749 0.0
H304 H 0.46811 0.36097 0.8097 0.0
H305 H 0.51746 0.33584 0.70573 0.0
H306 H 0.42765 0.3416 0.72997 0.0
H307 H 0.432 0.32146 0.78218 0.0
H308 H 0.43436 0.348 0.80497 0.0
H309 H 0.51283 0.30913 0.63844 0.0
H310 H 0.49243 0.29147 0.65712 0.0
H311 H 0.48821 0.31066 0.60192 0.0
H312 H 0.43521 0.25874 0.6838 0.0
H313 H 0.42321 0.3043 0.55044 0.0
H314 H 0.45547 0.29232 0.79151 0.0
H315 H 0.47613 0.28125 0.75023 0.0
H316 H 0.4541 0.2657 0.76897 0.0
H317 H 0.44138 0.3474 0.63096 0.0
H318 H 0.43577 0.33818 0.55757 0.0
H319 H 0.46177 0.33787 0.58558 0.0
C320 C 0.9556 0.21622 0.92054 0.0
C321 C 0.93802 0.214 0.95608 0.0
C322 C 0.96714 0.19905 0.90285 0.0
C323 C 0.96111 0.17917 0.92156 0.0
C324 C 0.9435 0.17677 0.95776 0.0
C325 C 0.93211 0.19422 0.97441 0.0
C326 C 0.98581 0.2022 0.86412 0.0
C327 C 0.93677 0.15579 0.97916 0.0
C328 C 0.98149 0.13222 0.83971 0.0
C329 C -0.00219 0.12617 0.87636 0.0
C330 C 0.96946 0.14957 0.85356 0.0
C331 C 0.9738 0.16097 0.90541 0.0
C332 C 0.99037 0.15507 0.94213 0.0
C333 C 0.00221 0.13785 0.92703 0.0
C334 C 0.95202 0.1556 0.81307 0.0
C335 C 0.99545 0.1668 0.99789 0.0
H336 H 0.96025 0.2314 0.90575 0.0
H337 H 0.91855 0.19234 0.00177 0.0
H338 H -0.00016 0.19676 0.88729 0.0
H339 H 0.9843 0.19296 0.82317 0.0
H340 H 0.98805 0.21862 0.85181 0.0
H341 H 0.92255 0.15652 0.0063 0.0
H342 H 0.93394 0.14546 0.94102 0.0
H343 H 0.94921 0.14872 0.00595 0.0
H344 H 0.97799 0.12331 0.80054 0.0
H345 H 0.01476 0.13333 0.95581 0.0
H346 H 0.95411 0.17172 0.79792 0.0
H347 H 0.93719 0.15494 0.83731 0.0
H348 H 0.95094 0.14541 0.77381 0.0
H349 H -0.00113 0.18313 0.98728 0.0
H350 H 0.00887 0.16018 0.02164 0.0
H351 H 0.98198 0.16671 0.02799 0.0
C352 C 0.15397 0.37501 0.8225 0.0
C353 C 0.13498 0.37672 0.85157 0.0
C354 C 0.16657 0.35762 0.83086 0.0
C355 C 0.16008 0.3418 0.86969 0.0
C356 C 0.14057 0.34306 0.89709 0.0
C357 C 0.12821 0.36037 0.88725 0.0
C358 C 0.1871 0.3565 0.79983 0.0
C359 C 0.13309 0.32657 0.939 0.0
C360 C 0.18312 0.28819 0.87087 0.0
C361 C 0.19655 0.28928 0.91931 0.0
C362 C 0.1719 0.30547 0.85238 0.0
C363 C 0.17382 0.32418 0.88388 0.0
C364 C 0.18757 0.32548 0.93231 0.0
C365 C 0.19895 0.30804 0.94909 0.0
C366 C 0.15768 0.30358 0.79993 0.0
C367 C 0.18974 0.3451 0.96763 0.0
H368 H 0.15931 0.38752 0.79478 0.0
H369 H 0.11351 0.36141 0.9097 0.0
H370 H 0.19971 0.35776 0.83266 0.0
H371 H 0.18885 0.34142 0.77733 0.0
H372 H 0.18899 0.36899 0.76677 0.0
H373 H 0.11729 0.32965 0.95555 0.0
H374 H 0.13316 0.31132 0.91689 0.0
H375 H 0.14366 0.32554 0.97737 0.0
H376 H 0.18145 0.27381 0.847 0.0
H377 H 0.20936 0.30897 0.98642 0.0
H378 H 0.16068 0.31618 0.76802 0.0
H379 H 0.14145 0.30509 0.81458 0.0
H380 H 0.15943 0.28857 0.77685 0.0
H381 H 0.19366 0.35815 0.93814 0.0
H382 H 0.20177 0.34387 0.00231 0.0
H383 H 0.17484 0.34883 0.98909 0.0
C384 C 0.96574 0.85304 0.33698 0.0
C385 C 0.98698 0.85246 0.32571 0.0
C386 C 0.95279 0.83704 0.31765 0.0
C387 C 0.96134 0.82018 0.28643 0.0
C388 C 0.98295 0.81867 0.27975 0.0
C389 C 0.9955 0.83478 0.2997 0.0
C390 C 0.92984 0.83898 0.32661 0.0
C391 C 0.99273 0.80087 0.24718 0.0
C392 C 0.93058 0.77208 0.2497 0.0
C393 C 0.92478 0.77591 0.19099 0.0
C394 C 0.94191 0.78662 0.28212 0.0
C395 C 0.94778 0.80533 0.255 0.0
C396 C 0.94171 0.80944 0.1961 0.0
C397 C 0.9302 0.79472 0.16491 0.0
C398 C 0.94791 0.78181 0.34497 0.0
C399 C 0.94781 0.82918 0.16549 0.0
H400 H 0.95902 0.86661 0.35715 0.0
H401 H 0.01194 0.83409 0.29149 0.0
H402 H 0.92242 0.84306 0.2841 0.0
H403 H 0.92316 0.82412 0.34138 0.0
H404 H 0.92596 0.85108 0.35947 0.0
H405 H 0.00978 0.80085 0.25145 0.0
H406 H 0.98671 0.78597 0.2638 0.0
H407 H 0.98876 0.80187 0.19965 0.0
H408 H 0.92631 0.75767 0.27047 0.0
H409 H 0.92576 0.79782 0.11968 0.0
H410 H 0.9432 0.79457 0.37461 0.0
H411 H 0.9649 0.78038 0.34831 0.0
H412 H 0.94084 0.76727 0.36103 0.0
H413 H 0.94249 0.84266 0.19144 0.0
H414 H 0.94131 0.83031 0.12027 0.0
H415 H 0.96484 0.83016 0.16249 0.0
C416 C 0.42929 0.67347 0.45809 0.0
C417 C 0.43005 0.69326 0.4335 0.0
C418 C 0.44247 0.65782 0.43777 0.0
C419 C 0.45642 0.66203 0.39122 0.0
C420 C 0.45669 0.68176 0.36489 0.0
C421 C 0.44364 0.69716 0.38663 0.0
C422 C 0.44197 0.63701 0.46743 0.0
C423 C 0.47117 0.6868 0.31475 0.0
C424 C 0.50608 0.63161 0.38621 0.0
C425 C 0.50176 0.61652 0.34352 0.0
C426 C 0.49145 0.64645 0.40191 0.0
C427 C 0.47205 0.64648 0.37363 0.0
C428 C 0.46778 0.63186 0.32883 0.0
C429 C 0.48268 0.61694 0.31445 0.0
C430 C 0.49662 0.66177 0.44994 0.0
C431 C 0.44736 0.63174 0.297 0.0
H432 H 0.41878 0.67036 0.49414 0.0
H433 H 0.4441 0.71233 0.36668 0.0
H434 H 0.43992 0.62465 0.43412 0.0
H435 H 0.45689 0.63416 0.48992 0.0
H436 H 0.42941 0.63581 0.50052 0.0
H437 H 0.46815 0.70227 0.29565 0.0
H438 H 0.48732 0.68638 0.33072 0.0
H439 H 0.46976 0.67511 0.27925 0.0
H440 H 0.52077 0.63151 0.40897 0.0
H441 H 0.47918 0.60536 0.28151 0.0
H442 H 0.48548 0.66025 0.48681 0.0
H443 H 0.4953 0.67771 0.43277 0.0
H444 H 0.51242 0.6596 0.46769 0.0
H445 H 0.43477 0.62849 0.32874 0.0
H446 H 0.44682 0.62002 0.2613 0.0
H447 H 0.44428 0.64713 0.27759 0.0
C448 C 0.71164 0.2115 0.71456 0.0
C449 C 0.71389 0.20854 0.65354 0.0
C450 C 0.7005 0.19748 0.74916 0.0
C451 C 0.69107 0.1803 0.72189 0.0
C452 C 0.69399 0.17677 0.66076 0.0
C453 C 0.70553 0.19085 0.62737 0.0
C454 C 0.69809 0.20155 0.81437 0.0
C455 C 0.68401 0.15869 0.62998 0.0
C456 C 0.66809 0.13527 0.80647 0.0
C457 C 0.64703 0.14011 0.80444 0.0
C458 C 0.68286 0.14872 0.78246 0.0
C459 C 0.67634 0.16729 0.75553 0.0
C460 C 0.65528 0.17285 0.75694 0.0
C461 C 0.64093 0.15929 0.78175 0.0
C462 C 0.70526 0.14252 0.78301 0.0
C463 C 0.64767 0.19255 0.72888 0.0
H464 H 0.71832 0.225 0.73525 0.0
H465 H 0.70725 0.18847 0.5803 0.0
H466 H 0.68201 0.2063 0.82379 0.0
H467 H 0.70115 0.18733 0.84006 0.0
H468 H 0.7086 0.2139 0.8301 0.0
H469 H 0.68893 0.15733 0.58321 0.0
H470 H 0.68782 0.14414 0.65314 0.0
H471 H 0.66702 0.16047 0.63117 0.0
H472 H 0.67298 0.12054 0.82407 0.0
H473 H 0.62473 0.16331 0.78049 0.0
H474 H 0.71509 0.15563 0.79694 0.0
H475 H 0.71007 0.1381 0.73779 0.0
H476 H 0.70816 0.12927 0.81289 0.0
H477 H 0.65635 0.20597 0.74627 0.0
H478 H 0.63098 0.19517 0.73674 0.0
H479 H 0.65034 0.19195 0.68056 0.0
C480 C 0.03542 0.38485 0.99743 0.0
C481 C 0.03611 0.39842 0.94928 0.0
C482 C 0.01846 0.37193 0.00661 0.0
C483 C 0.0016 0.37282 0.9672 0.0
C484 C 0.00139 0.38775 0.9216 0.0
C485 C 0.01877 0.40031 0.91284 0.0
C486 C 0.01943 0.3561 0.05539 0.0
C487 C 0.98346 0.38947 0.87953 0.0
C488 C 0.97536 0.32205 0.93461 0.0
C489 C 0.95782 0.32305 0.97041 0.0
C490 C 0.98963 0.33818 0.93333 0.0
C491 C 0.98606 0.35601 0.96782 0.0
C492 C 0.96828 0.35723 0.00387 0.0
C493 C 0.95443 0.34056 0.0053 0.0
C494 C 0.00864 0.33603 0.89533 0.0
C495 C 0.96382 0.37618 0.04027 0.0
H496 H 0.04867 0.38342 0.02624 0.0
H497 H 0.0191 0.41093 0.87597 0.0
H498 H 0.00477 0.35568 0.0804 0.0
H499 H 0.02177 0.34059 0.03585 0.0
H500 H 0.03224 0.35918 0.0867 0.0
H501 H 0.98399 0.40399 0.85366 0.0
H502 H 0.98377 0.37631 0.84826 0.0
H503 H 0.96864 0.38876 0.90379 0.0
H504 H 0.97806 0.30848 0.9078 0.0
H505 H 0.94073 0.34142 0.03251 0.0
H506 H 0.02268 0.33749 0.92296 0.0
H507 H 0.0091 0.34855 0.86207 0.0
H508 H 0.00921 0.32101 0.87187 0.0
H509 H 0.97653 0.37895 0.07201 0.0
H510 H 0.94916 0.37484 0.06519 0.0
H511 H 0.96294 0.3899 0.01116 0.0
C512 C 0.53466 0.15697 0.74849 0.0
C513 C 0.53546 0.13764 0.7757 0.0
C514 C 0.516 0.165 0.72783 0.0
C515 C 0.49781 0.1531 0.73304 0.0
C516 C 0.49839 0.13386 0.76254 0.0
C517 C 0.51727 0.12644 0.78425 0.0
C518 C 0.51593 0.18585 0.69825 0.0
C519 C 0.47937 0.12063 0.76812 0.0
C520 C 0.44839 0.18276 0.70856 0.0
C521 C 0.4454 0.18022 0.64764 0.0
C522 C 0.46489 0.17326 0.73764 0.0
C523 C 0.47851 0.16062 0.70521 0.0
C524 C 0.47485 0.15697 0.64444 0.0
C525 C 0.45842 0.16701 0.61616 0.0
C526 C 0.46846 0.17782 0.80218 0.0
C527 C 0.48884 0.14321 0.6087 0.0
H528 H 0.54879 0.16559 0.74194 0.0
H529 H 0.518 0.11132 0.8045 0.0
H530 H 0.51228 0.18404 0.65073 0.0
H531 H 0.50384 0.19581 0.71784 0.0
H532 H 0.53101 0.19383 0.70225 0.0
H533 H 0.48199 0.10699 0.79671 0.0
H534 H 0.46638 0.12971 0.78638 0.0
H535 H 0.47462 0.11519 0.72373 0.0
H536 H 0.4384 0.19298 0.73326 0.0
H537 H 0.45608 0.16488 0.56921 0.0
H538 H 0.48252 0.1874 0.80707 0.0
H539 H 0.47106 0.16337 0.82716 0.0
H540 H 0.45532 0.1862 0.82241 0.0
H541 H 0.5041 0.15069 0.60358 0.0
H542 H 0.48251 0.14 0.5641 0.0
H543 H 0.49133 0.12835 0.63186 0.0
C544 C 0.60107 0.61978 0.48868 0.0
C545 C 0.60301 0.60926 0.43484 0.0
C546 C 0.6158 0.63425 0.50669 0.0
C547 C 0.63305 0.63813 0.47034 0.0
C548 C 0.63583 0.62659 0.41784 0.0
C549 C 0.62067 0.61235 0.40045 0.0
C550 C 0.61213 0.64636 0.56264 0.0
C551 C 0.65424 0.63008 0.37846 0.0
C552 C 0.65459 0.69232 0.46992 0.0
C553 C 0.67203 0.69034 0.50585 0.0
C554 C 0.6417 0.67548 0.45882 0.0
C555 C 0.64659 0.65603 0.48331 0.0
C556 C 0.66407 0.65395 0.52028 0.0
C557 C 0.67652 0.67125 0.53166 0.0
C558 C 0.62293 0.67849 0.42032 0.0
C559 C 0.66989 0.63338 0.54644 0.0
H560 H 0.58753 0.61741 0.51581 0.0
H561 H 0.62236 0.60414 0.35908 0.0
H562 H 0.6262 0.64659 0.59036 0.0
H563 H 0.60842 0.66257 0.55128 0.0
H564 H 0.59923 0.63996 0.5891 0.0
H565 H 0.65561 0.61803 0.34386 0.0
H566 H 0.65283 0.6453 0.35651 0.0
H567 H 0.66863 0.63033 0.40487 0.0
H568 H 0.65105 0.70711 0.45012 0.0
H569 H 0.69016 0.66966 0.5589 0.0
H570 H 0.60886 0.67364 0.4444 0.0
H571 H 0.62414 0.66871 0.38033 0.0
H572 H 0.62098 0.69477 0.40624 0.0
H573 H 0.65688 0.62705 0.57245 0.0
H574 H 0.68365 0.63444 0.57541 0.0
H575 H 0.67315 0.62223 0.51051 0.0
C576 C 0.16879 0.83775 0.09307 0.0
C577 C 0.17606 0.82208 0.13013 0.0
C578 C 0.15281 0.85088 0.11154 0.0
C579 C 0.14362 0.84782 0.16756 0.0
C580 C 0.15147 0.83251 0.20584 0.0
C581 C 0.16773 0.82002 0.1869 0.0
C582 C 0.14519 0.86742 0.07021 0.0
C583 C 0.14183 0.82839 0.26534 0.0
C584 C 0.10588 0.88497 0.23939 0.0
C585 C 0.08701 0.87617 0.22303 0.0
C586 C 0.12456 0.87655 0.21924 0.0
C587 C 0.12424 0.85862 0.18353 0.0
C588 C 0.10517 0.84982 0.16671 0.0
C589 C 0.08683 0.85886 0.18606 0.0
C590 C 0.14461 0.88661 0.23673 0.0
C591 C 0.10412 0.83039 0.13002 0.0
H592 H 0.17533 0.83953 0.04939 0.0
H593 H 0.17326 0.80793 0.21583 0.0
H594 H 0.12993 0.86296 0.05224 0.0
H595 H 0.14316 0.8822 0.09419 0.0
H596 H 0.15589 0.86992 0.03267 0.0
H597 H 0.15066 0.81689 0.2914 0.0
H598 H 0.14073 0.84282 0.29131 0.0
H599 H 0.12592 0.82249 0.25914 0.0
H600 H 0.10602 0.89849 0.26748 0.0
H601 H 0.07226 0.85195 0.17352 0.0
H602 H 0.15436 0.88917 0.19721 0.0
H603 H 0.15329 0.8763 0.26679 0.0
H604 H 0.14217 0.9016 0.25934 0.0
H605 H 0.11246 0.83259 0.08782 0.0
H606 H 0.08802 0.82575 0.11995 0.0
H607 H 0.11176 0.81756 0.15386 0.0
C608 C 0.01478 0.6069 0.21806 0.0
C609 C 0.026 0.61453 0.26614 0.0
C610 C 0.9966 0.61659 0.19941 0.0
C611 C 0.99 0.63476 0.22823 0.0
C612 C 0.00095 0.64212 0.2781 0.0
C613 C 0.01869 0.63168 0.29709 0.0
C614 C 0.98492 0.60781 0.14756 0.0
C615 C 0.99464 0.6617 0.30926 0.0
C616 C 0.95969 0.67434 0.14073 0.0
C617 C 0.94017 0.6726 0.16635 0.0
C618 C 0.97602 0.66183 0.15982 0.0
C619 C 0.97247 0.64684 0.20413 0.0
C620 C 0.95242 0.64418 0.22738 0.0
C621 C 0.93658 0.65738 0.20897 0.0
C622 C 0.99728 0.66542 0.13483 0.0
C623 C 0.94786 0.62787 0.27299 0.0
H624 H 0.02045 0.59356 0.19429 0.0
H625 H 0.02754 0.6377 0.33382 0.0
H626 H 0.96824 0.60678 0.15789 0.0
H627 H 0.98659 0.61817 0.10896 0.0
H628 H 0.99057 0.59227 0.13497 0.0
H629 H 0.0044 0.66498 0.34841 0.0
H630 H 0.99581 0.67489 0.2783 0.0
H631 H 0.97836 0.6607 0.32369 0.0
H632 H 0.96248 0.68628 0.10827 0.0
H633 H 0.92141 0.65602 0.22859 0.0
H634 H 0.0035 0.65092 0.11605 0.0
H635 H 0.00787 0.67031 0.17065 0.0
H636 H -0.00264 0.67741 0.09988 0.0
H637 H 0.95406 0.61275 0.25858 0.0
H638 H 0.93108 0.62623 0.28135 0.0
H639 H 0.95554 0.63189 0.31515 0.0
C640 C 0.11387 0.10361 0.88938 0.0
C641 C 0.09783 0.10305 0.93069 0.0
C642 C 0.13072 0.11693 0.89719 0.0
C643 C 0.13121 0.13028 0.94666 0.0
C644 C 0.11568 0.12885 0.99018 0.0
C645 C 0.09931 0.11509 0.98196 0.0
C646 C 0.14732 0.11762 0.85065 0.0
C647 C 0.1154 0.14304 0.04302 0.0
C648 C 0.17862 0.16278 0.98048 0.0
C649 C 0.17395 0.18092 0.94985 0.0
C650 C 0.16498 0.14594 0.97947 0.0
C651 C 0.14608 0.14767 0.94854 0.0
C652 C 0.14109 0.16628 0.91931 0.0
C653 C 0.15523 0.18255 0.91961 0.0
C654 C 0.171 0.12616 0.00989 0.0
C655 C 0.12084 0.169 0.8873 0.0
H656 H 0.11292 0.09418 0.84999 0.0
H657 H 0.087 0.11473 0.01423 0.0
H658 H 0.14559 0.13185 0.82399 0.0
H659 H 0.1628 0.11808 0.87141 0.0
H660 H 0.14653 0.10415 0.82049 0.0
H661 H 0.10372 0.13833 0.07618 0.0
H662 H 0.13072 0.14349 0.06463 0.0
H663 H 0.11179 0.15894 0.02828 0.0
H664 H 0.19326 0.16148 0.00321 0.0
H665 H 0.15161 0.19665 0.89611 0.0
H666 H 0.17216 0.11358 0.97688 0.0
H667 H 0.15899 0.12157 0.0421 0.0
H668 H 0.18597 0.1275 0.03332 0.0
H669 H 0.11978 0.15785 0.85034 0.0
H670 H 0.11897 0.1848 0.86922 0.0
H671 H 0.10782 0.1658 0.91764 0.0
C672 C 0.6908 0.32435 0.66415 0.0
C673 C 0.6874 0.30791 0.62523 0.0
C674 C 0.67442 0.33662 0.68387 0.0
C675 C 0.65411 0.33185 0.66577 0.0
C676 C 0.65064 0.31538 0.62588 0.0
C677 C 0.66742 0.30379 0.60527 0.0
C678 C 0.67882 0.3545 0.72463 0.0
C679 C 0.62914 0.30955 0.60661 0.0
C680 C 0.60964 0.34918 0.76287 0.0
C681 C 0.60134 0.36517 0.72906 0.0
C682 C 0.62695 0.33821 0.74293 0.0
C683 C 0.63645 0.34391 0.68903 0.0
C684 C 0.62866 0.36077 0.6564 0.0
C685 C 0.61096 0.37096 0.67632 0.0
C686 C 0.63455 0.32001 0.77822 0.0
C687 C 0.63878 0.36779 0.59989 0.0
H688 H 0.70631 0.32754 0.6794 0.0
H689 H 0.66481 0.2909 0.57577 0.0
H690 H 0.67193 0.36883 0.70668 0.0
H691 H 0.67166 0.35168 0.76828 0.0
H692 H 0.6956 0.35702 0.73112 0.0
H693 H 0.62907 0.29622 0.57584 0.0
H694 H 0.6197 0.30558 0.64579 0.0
H695 H 0.6216 0.3228 0.58456 0.0
H696 H 0.60201 0.3446 0.80332 0.0
H697 H 0.60454 0.38345 0.6504 0.0
H698 H 0.65101 0.32208 0.78985 0.0
H699 H 0.6334 0.30579 0.75118 0.0
H700 H 0.6256 0.31774 0.81948 0.0
H701 H 0.65549 0.37035 0.60713 0.0
H702 H 0.63187 0.38224 0.5826 0.0
H703 H 0.63723 0.35565 0.56573 0.0
C704 C 0.46583 0.79836 0.43601 0.0
C705 C 0.4476 0.80023 0.46848 0.0
C706 C 0.47994 0.81462 0.43294 0.0
C707 C 0.47534 0.83346 0.4615 0.0
C708 C 0.45698 0.83541 0.49482 0.0
C709 C 0.44341 0.81857 0.4987 0.0
C710 C 0.49966 0.81169 0.39857 0.0
C711 C 0.45137 0.85543 0.52464 0.0
C712 C 0.52102 0.86847 0.48828 0.0
C713 C 0.52084 0.88074 0.43737 0.0
C714 C 0.50589 0.85345 0.49773 0.0
C715 C 0.4899 0.851 0.45595 0.0
C716 C 0.48905 0.86406 0.40591 0.0
C717 C 0.50474 0.87861 0.39673 0.0
C718 C 0.50767 0.83947 0.55076 0.0
C719 C 0.47192 0.86221 0.36116 0.0
H720 H 0.46906 0.78409 0.41287 0.0
H721 H 0.42914 0.82003 0.52318 0.0
H722 H 0.49998 0.82235 0.36037 0.0
H723 H 0.51313 0.81543 0.42675 0.0
H724 H 0.50141 0.79568 0.38193 0.0
H725 H 0.43672 0.85429 0.54974 0.0
H726 H 0.4638 0.86024 0.55526 0.0
H727 H 0.44978 0.86775 0.49101 0.0
H728 H 0.53352 0.87001 0.51971 0.0
H729 H 0.50447 0.88821 0.35763 0.0
H730 H 0.51081 0.82348 0.53586 0.0
H731 H 0.49299 0.83917 0.57568 0.0
H732 H 0.52022 0.8443 0.5811 0.0
H733 H 0.47346 0.84746 0.33679 0.0
H734 H 0.47211 0.87504 0.32875 0.0
H735 H 0.45673 0.86201 0.38361 0.0
C736 C 0.09535 0.53418 0.19532 0.0
C737 C 0.11064 0.54132 0.23392 0.0
C738 C 0.09969 0.51913 0.15315 0.0
C739 C 0.11978 0.51075 0.14998 0.0
C740 C 0.13513 0.51724 0.19017 0.0
C741 C 0.13041 0.53261 0.23162 0.0
C742 C 0.08285 0.51257 0.11103 0.0
C743 C 0.15658 0.50829 0.18853 0.0
C744 C 0.11739 0.46116 0.06533 0.0
C745 C 0.12138 0.46813 0.00798 0.0
C746 C 0.11902 0.47448 0.11357 0.0
C747 C 0.12431 0.49532 0.10375 0.0
C748 C 0.13009 0.50197 0.04659 0.0
C749 C 0.12872 0.48816 -0.00083 0.0
C750 C 0.1132 0.46669 0.17408 0.0
C751 C 0.13572 0.52414 0.03444 0.0
H752 H 0.08002 0.54079 0.19679 0.0
H753 H 0.14228 0.53804 0.26145 0.0
H754 H 0.08767 0.51561 0.06489 0.0
H755 H 0.08003 0.49577 0.11508 0.0
H756 H 0.0681 0.52077 0.11924 0.0
H757 H 0.16617 0.51365 0.22613 0.0
H758 H 0.15589 0.49121 0.18934 0.0
H759 H 0.1643 0.5128 0.14685 0.0
H760 H 0.1121 0.44549 0.07221 0.0
H761 H 0.1319 0.4935 0.95478 0.0
H762 H 0.09741 0.47198 0.18505 0.0
H763 H 0.12377 0.47292 0.20818 0.0
H764 H 0.11346 0.44959 0.17628 0.0
H765 H 0.12158 0.53374 0.03608 0.0
H766 H 0.14292 0.52607 0.99034 0.0
H767 H 0.14645 0.53007 0.0685 0.0
C768 C 0.81965 0.73034 0.16558 0.0
C769 C 0.83598 0.71643 0.17286 0.0
C770 C 0.80312 0.73054 0.20509 0.0
C771 C 0.80301 0.71647 0.2527 0.0
C772 C 0.81812 0.70082 0.25598 0.0
C773 C 0.83449 0.70095 0.21579 0.0
C774 C 0.78709 0.74728 0.19959 0.0
C775 C 0.81828 0.68533 0.30563 0.0
C776 C 0.78455 0.73921 0.39641 0.0
C777 C 0.76459 0.73116 0.40068 0.0
C778 C 0.79726 0.73419 0.34883 0.0
C779 C 0.78983 0.72075 0.30442 0.0
C780 C 0.76987 0.71223 0.30883 0.0
C781 C 0.75742 0.71756 0.35702 0.0
C782 C 0.81855 0.74359 0.34563 0.0
C783 C 0.76154 0.69784 0.26222 0.0
H784 H 0.82048 0.74206 0.13157 0.0
H785 H 0.8469 0.68994 0.22109 0.0
H786 H 0.77146 0.74116 0.20867 0.0
H787 H 0.7903 0.75951 0.23258 0.0
H788 H 0.78715 0.75442 0.15505 0.0
H789 H 0.82829 0.67191 0.2954 0.0
H790 H 0.82422 0.69282 0.34623 0.0
H791 H 0.8025 0.6797 0.31519 0.0
H792 H 0.79023 0.74966 0.43004 0.0
H793 H 0.74202 0.71123 0.36008 0.0
H794 H 0.81991 0.75321 0.30538 0.0
H795 H 0.83034 0.73126 0.34262 0.0
H796 H 0.82211 0.75336 0.38458 0.0
H797 H 0.75972 0.70628 0.22001 0.0
H798 H 0.74638 0.6912 0.27471 0.0
H799 H 0.77252 0.68505 0.25414 0.0
C800 C 0.51993 0.50693 0.45978 0.0
C801 C 0.5326 0.52416 0.46834 0.0
C802 C 0.51768 0.4921 0.50422 0.0
C803 C 0.52821 0.49476 0.55835 0.0
C804 C 0.54034 0.51253 0.56807 0.0
C805 C 0.54246 0.52698 0.5228 0.0
C806 C 0.50475 0.47319 0.49238 0.0
C807 C 0.55169 0.5159 0.62546 0.0
C808 C 0.51435 0.46188 0.69066 0.0
C809 C 0.52994 0.44694 0.68863 0.0
C810 C 0.51343 0.47755 0.64814 0.0
C811 C 0.52832 0.47806 0.6026 0.0
C812 C 0.54395 0.46294 0.60012 0.0
C813 C 0.54463 0.44763 0.64333 0.0
C814 C 0.49669 0.49363 0.65216 0.0
C815 C 0.56005 0.46296 0.55195 0.0
H816 H 0.51222 0.50473 0.41782 0.0
H817 H 0.55205 0.54043 0.53002 0.0
H818 H 0.51483 0.4594 0.49057 0.0
H819 H 0.49358 0.47073 0.5287 0.0
H820 H 0.49616 0.47431 0.45011 0.0
H821 H 0.55889 0.53141 0.62791 0.0
H822 H 0.54105 0.51408 0.66338 0.0
H823 H 0.56398 0.50415 0.63027 0.0
H824 H 0.50297 0.4614 0.72558 0.0
H825 H 0.55663 0.43604 0.64114 0.0
H826 H 0.48762 0.49392 0.61069 0.0
H827 H 0.50369 0.50912 0.65761 0.0
H828 H 0.48605 0.49079 0.68964 0.0
H829 H 0.55251 0.4625 0.50805 0.0
H830 H 0.57076 0.44966 0.55537 0.0
H831 H 0.56921 0.47737 0.5541 0.0
C832 C 0.8431 0.27664 0.85436 0.0
C833 C 0.86342 0.2839 0.85394 0.0
C834 C 0.83046 0.27886 0.80494 0.0
C835 C 0.8383 0.2887 0.75393 0.0
C836 C 0.85827 0.29738 0.75455 0.0
C837 C 0.87068 0.29481 0.80467 0.0
C838 C 0.80911 0.26955 0.80624 0.0
C839 C 0.867 0.30827 0.70133 0.0
C840 C 0.81173 0.26539 0.62346 0.0
C841 C 0.7946 0.27841 0.61861 0.0
C842 C 0.82754 0.2698 0.66339 0.0
C843 C 0.82614 0.28769 0.69885 0.0
C844 C 0.81032 0.30221 0.68855 0.0
C845 C 0.79463 0.29737 0.64843 0.0
C846 C 0.84443 0.25411 0.67234 0.0
C847 C 0.80873 0.32176 0.72427 0.0
H848 H 0.83728 0.26847 0.89258 0.0
H849 H 0.88633 0.30062 0.80419 0.0
H850 H 0.79747 0.28117 0.79304 0.0
H851 H 0.80822 0.25664 0.7742 0.0
H852 H 0.80495 0.26355 0.85056 0.0
H853 H 0.88026 0.31826 0.71335 0.0
H854 H 0.87246 0.29665 0.66901 0.0
H855 H 0.85512 0.31781 0.67921 0.0
H856 H 0.81206 0.25094 0.59939 0.0
H857 H 0.78165 0.30776 0.64393 0.0
H858 H 0.84159 0.24557 0.71396 0.0
H859 H 0.85963 0.26178 0.67634 0.0
H860 H 0.84513 0.2428 0.63558 0.0
H861 H 0.80198 0.31816 0.76803 0.0
H862 H 0.79872 0.33333 0.70231 0.0
H863 H 0.82415 0.32865 0.7318 0.0
C864 C 0.29017 0.22367 0.83314 0.0
C865 C 0.27003 0.21592 0.833 0.0
C866 C 0.30347 0.21992 0.78595 0.0
C867 C 0.29648 0.208 0.73757 0.0
C868 C 0.27665 0.19902 0.73871 0.0
C869 C 0.26357 0.20316 0.78648 0.0
C870 C 0.32462 0.22966 0.78654 0.0
C871 C 0.26883 0.18598 0.6883 0.0
C872 C 0.32457 0.22579 0.60261 0.0
C873 C 0.34177 0.21275 0.60382 0.0
C874 C 0.30838 0.22308 0.6425 0.0
C875 C 0.30945 0.20688 0.68411 0.0
C876 C 0.32546 0.19219 0.68064 0.0
C877 C 0.34154 0.19531 0.64043 0.0
C878 C 0.29134 0.23892 0.64428 0.0
C879 C 0.32676 0.17438 0.72326 0.0
H880 H 0.29537 0.23332 0.86924 0.0
H881 H 0.24807 0.19696 0.78629 0.0
H882 H 0.33662 0.21782 0.7787 0.0
H883 H 0.32578 0.24117 0.75048 0.0
H884 H 0.32805 0.23753 0.82897 0.0
H885 H 0.2552 0.17668 0.70131 0.0
H886 H 0.26428 0.19613 0.65118 0.0
H887 H 0.28102 0.17546 0.67189 0.0
H888 H 0.32439 0.23902 0.57342 0.0
H889 H 0.35458 0.18489 0.64078 0.0
H890 H 0.29366 0.24919 0.68289 0.0
H891 H 0.27613 0.23137 0.64945 0.0
H892 H 0.29104 0.24857 0.60383 0.0
H893 H 0.33281 0.17999 0.76615 0.0
H894 H 0.33721 0.1621 0.70684 0.0
H895 H 0.31132 0.16763 0.73139 0.0
C896 C 0.35562 0.77876 0.32178 0.0
C897 C 0.35077 0.76279 0.36119 0.0
C898 C 0.34193 0.78435 0.27673 0.0
C899 C 0.32306 0.77366 0.27113 0.0
C900 C 0.31776 0.75808 0.31207 0.0
C901 C 0.33168 0.75285 0.35665 0.0
C902 C 0.34796 0.80113 0.23397 0.0
C903 C 0.29768 0.74638 0.30755 0.0
C904 C 0.27684 0.79097 0.18373 0.0
C905 C 0.27768 0.77726 0.13593 0.0
C906 C 0.29251 0.79124 0.22621 0.0
C907 C 0.3093 0.77752 0.22038 0.0
C908 C 0.31119 0.76512 0.16936 0.0
C909 C 0.29533 0.76516 0.12763 0.0
C910 C 0.29017 0.80489 0.27975 0.0
C911 C 0.32903 0.75044 0.16133 0.0
H912 H 0.37031 0.7866 0.3252 0.0
H913 H 0.32774 0.74061 0.38719 0.0
H914 H 0.35097 0.79428 0.18998 0.0
H915 H 0.33521 0.81235 0.22864 0.0
H916 H 0.362 0.80952 0.24843 0.0
H917 H 0.29548 0.73543 0.34468 0.0
H918 H 0.28451 0.75727 0.30695 0.0
H919 H 0.29727 0.73756 0.26562 0.0
H920 H 0.26335 0.80055 0.19012 0.0
H921 H 0.29626 0.75479 0.09019 0.0
H922 H 0.30506 0.81221 0.29153 0.0
H923 H 0.28525 0.79539 0.31792 0.0
H924 H 0.27849 0.81715 0.27266 0.0
H925 H 0.34385 0.75825 0.17098 0.0
H926 H 0.32966 0.74404 0.11591 0.0
H927 H 0.32745 0.73744 0.1928 0.0
C928 C 0.5911 0.99474 0.4508 0.0
C929 C 0.57771 0.97844 0.46427 0.0
C930 C 0.59289 0.01174 0.48843 0.0
C931 C 0.58103 0.01234 0.54066 0.0
C932 C 0.56644 0.99668 0.5524 0.0
C933 C 0.56491 0.97988 0.51388 0.0
C934 C 0.60844 0.02833 0.47423 0.0
C935 C 0.55345 0.99693 0.60766 0.0
C936 C 0.6048 0.03776 0.67407 0.0
C937 C 0.59395 0.0564 0.67668 0.0
C938 C 0.60084 0.02342 0.62949 0.0
C939 C 0.58571 0.02787 0.58642 0.0
C940 C 0.57498 0.0468 0.5879 0.0
C941 C 0.57922 0.06088 0.63318 0.0
C942 C 0.61263 0.00333 0.62908 0.0
C943 C 0.55882 0.05201 0.54235 0.0
H944 H 0.60082 0.99389 0.412 0.0
H945 H 0.55439 0.96742 0.52427 0.0
H946 H 0.60159 0.04384 0.48028 0.0
H947 H 0.62169 0.02709 0.50495 0.0
H948 H 0.61432 0.02704 0.42836 0.0
H949 H 0.54118 0.985 0.60669 0.0
H950 H 0.56342 0.99405 0.64657 0.0
H951 H 0.54618 0.01224 0.61382 0.0
H952 H 0.61622 0.03419 0.70746 0.0
H953 H 0.5708 0.07528 0.63486 0.0
H954 H 0.62078 0.00143 0.58643 0.0
H955 H 0.60177 0.99022 0.63359 0.0
H956 H 0.62412 0.00243 0.66531 0.0
H957 H 0.5654 0.05073 0.49735 0.0
H958 H 0.55255 0.0678 0.54825 0.0
H959 H 0.54593 0.04084 0.54518 0.0
C960 C 0.02887 0.02058 0.01707 0.0
C961 C 0.01535 0.02518 0.97072 0.0
C962 C 0.02434 0.00502 0.05758 0.0
C963 C 0.0058 0.99374 0.05167 0.0
C964 C 0.99189 -0.00158 0.00555 0.0
C965 C 0.99685 0.01413 0.96541 0.0
C966 C 0.03962 0.00043 0.10618 0.0
C967 C 0.97199 0.98666 0.99817 0.0
C968 C 0.01131 0.942 0.12422 0.0
C969 C 0.00376 0.94618 0.18092 0.0
C970 C 0.01041 0.95687 0.07972 0.0
C971 C 0.00183 0.9764 0.09245 0.0
C972 C 0.99259 0.9801 0.14801 0.0
C973 C 0.99362 0.96486 0.19177 0.0
C974 C 0.02027 0.95227 0.02082 0.0
C975 C 0.98319 0.00072 0.16292 0.0
H976 H 0.04316 0.02908 0.0217 0.0
H977 H 0.98628 0.01766 0.92982 0.0
H978 H 0.03199 0.00158 0.14984 0.0
H979 H 0.04544 0.98443 0.10155 0.0
H980 H 0.053 0.0111 0.10565 0.0
H981 H 0.96229 0.99301 0.96215 0.0
H982 H 0.97537 0.97027 0.98821 0.0
H983 H 0.96304 0.98699 0.03984 0.0
H984 H 0.0188 0.9274 0.11525 0.0
H985 H 0.98762 0.96809 0.2354 0.0
H986 H 0.0351 0.96069 0.01748 0.0
H987 H 0.01031 0.9576 0.98411 0.0
H988 H 0.02338 0.93556 0.01497 0.0
H989 H 0.99566 0.01213 0.1703 0.0
H990 H 0.97358 -4e-05 0.20341 0.0
H991 H 0.97357 0.00643 0.12594 0.0
C992 C 0.08843 0.49294 0.71867 0.0
C993 C 0.10394 0.47834 0.70846 0.0
C994 C 0.08573 0.50978 0.68036 0.0
C995 C 0.09841 0.51163 0.62977 0.0
C996 C 0.1133 0.49621 0.61772 0.0
C997 C 0.11615 0.47999 0.65782 0.0
C998 C 0.07012 0.52615 0.69573 0.0
C999 C 0.12668 0.49717 0.5633 0.0
C1000 C 0.08503 0.54645 0.50048 0.0
C1001 C 0.10002 0.56189 0.50614 0.0
C1002 C 0.08364 0.53038 0.54185 0.0
C1003 C 0.09715 0.53014 0.59094 0.0
C1004 C 0.11112 0.54668 0.5993 0.0
C1005 C 0.11267 0.56215 0.55618 0.0
C1006 C 0.06889 0.51284 0.53036 0.0
C1007 C 0.12528 0.54744 0.65208 0.0
H1008 H 0.07918 0.49181 0.75834 0.0
H1009 H 0.12811 0.46867 0.64988 0.0
H1010 H 0.07825 0.54068 0.70691 0.0
H1011 H 0.06002 0.52944 0.65743 0.0
H1012 H 0.06035 0.52164 0.73381 0.0
H1013 H 0.13597 0.48295 0.5573 0.0
H1014 H 0.11703 0.49949 0.52344 0.0
H1015 H 0.13735 0.51048 0.56653 0.0
H1016 H 0.07542 0.54606 0.46136 0.0
H1017 H 0.12424 0.57409 0.56066 0.0
H1018 H 0.06016 0.5089 0.57082 0.0
H1019 H 0.07777 0.49894 0.51737 0.0
H1020 H 0.05779 0.51649 0.49456 0.0
H1021 H 0.11659 0.54414 0.69316 0.0
H1022 H 0.13296 0.56267 0.65662 0.0
H1023 H 0.13735 0.53546 0.64759 0.0
C1024 C 0.8435 0.7751 0.91569 0.0
C1025 C 0.858 0.75906 0.91802 0.0
C1026 C 0.82936 0.77656 0.86914 0.0
C1027 C 0.82984 0.76179 0.82326 0.0
C1028 C 0.84516 0.74624 0.82357 0.0
C1029 C 0.85901 0.74499 0.87116 0.0
C1030 C 0.81325 0.79335 0.87059 0.0
C1031 C 0.84641 0.73044 0.77481 0.0
C1032 C 0.77988 0.75155 0.74048 0.0
C1033 C 0.78255 0.76349 0.68955 0.0
C1034 C 0.79518 0.75085 0.78431 0.0
C1035 C 0.8137 0.76212 0.77658 0.0
C1036 C 0.81651 0.77409 0.7251 0.0
C1037 C 0.80085 0.77475 0.68244 0.0
C1038 C 0.79149 0.73814 0.83906 0.0
C1039 C 0.8361 0.78614 0.71495 0.0
H1040 H 0.84258 0.78606 0.95166 0.0
H1041 H 0.87016 0.73257 0.87258 0.0
H1042 H 0.81339 0.80216 0.82869 0.0
H1043 H 0.79773 0.78635 0.87506 0.0
H1044 H 0.81564 0.80427 0.90773 0.0
H1045 H 0.86025 0.72049 0.77886 0.0
H1046 H 0.83251 0.7205 0.77584 0.0
H1047 H 0.84673 0.73818 0.73118 0.0
H1048 H 0.7658 0.74281 0.74623 0.0
H1049 H 0.80312 0.78387 0.64294 0.0
H1050 H 0.79231 0.74812 0.87873 0.0
H1051 H 0.80369 0.72627 0.84353 0.0
H1052 H 0.77626 0.73032 0.83842 0.0
H1053 H 0.8382 0.79768 0.75056 0.0
H1054 H 0.83609 0.79428 0.67186 0.0
H1055 H 0.84957 0.77563 0.71646 0.0
C1056 C 0.52425 0.52062 0.12103 0.0
C1057 C 0.53713 0.52124 0.17048 0.0
C1058 C 0.52542 0.50429 0.08052 0.0
C1059 C 0.53912 0.48771 0.09131 0.0
C1060 C 0.55252 0.48853 0.14062 0.0
C1061 C 0.55161 0.50552 0.17911 0.0
C1062 C 0.51143 0.50445 0.02729 0.0
C1063 C 0.56684 0.47091 0.15489 0.0
C1064 C 0.51999 0.43795 0.02225 0.0
C1065 C 0.53246 0.43645 0.9721 0.0
C1066 C 0.52302 0.45377 0.06367 0.0
C1067 C 0.53825 0.46899 0.05316 0.0
C1068 C 0.55133 0.46712 0.00344 0.0
C1069 C 0.5485 0.45063 0.96402 0.0
C1070 C 0.50927 0.4547 0.11729 0.0
C1071 C 0.56728 0.48333 0.98944 0.0
H1072 H 0.51302 0.53278 0.11457 0.0
H1073 H 0.5613 0.50586 0.21806 0.0
H1074 H 0.52033 0.50092 0.98674 0.0
H1075 H 0.49947 0.49235 0.0321 0.0
H1076 H 0.50361 0.51953 0.02143 0.0
H1077 H 0.57745 0.47466 0.19182 0.0
H1078 H 0.55761 0.45718 0.16734 0.0
H1079 H 0.57612 0.46662 0.11571 0.0
H1080 H 0.50755 0.42699 0.02837 0.0
H1081 H 0.55791 0.44968 0.9246 0.0
H1082 H 0.49833 0.46774 0.11285 0.0
H1083 H 0.51857 0.45745 0.15763 0.0
H1084 H 0.50024 0.4403 0.12322 0.0
H1085 H 0.5594 0.49786 0.97691 0.0
H1086 H 0.57752 0.47862 0.95259 0.0
H1087 H 0.57688 0.48672 0.02871 0.0
C1088 C 0.84994 0.25422 0.19321 0.0
C1089 C 0.84783 0.24397 0.13913 0.0
C1090 C 0.83505 0.25201 0.23775 0.0
C1091 C 0.81755 0.23942 0.22766 0.0
C1092 C 0.81529 0.22914 0.17304 0.0
C1093 C 0.8305 0.23145 0.12959 0.0
C1094 C 0.83811 0.26304 0.29575 0.0
C1095 C 0.79678 0.21573 0.16044 0.0
C1096 C 0.79049 0.21926 0.36421 0.0
C1097 C 0.77469 0.23378 0.37182 0.0
C1098 C 0.80417 0.22057 0.3165 0.0
C1099 C 0.80189 0.23666 0.27496 0.0
C1100 C 0.78525 0.25065 0.2804 0.0
C1101 C 0.77187 0.2491 0.32894 0.0
C1102 C 0.82168 0.20532 0.31227 0.0
C1103 C 0.78212 0.26782 0.23638 0.0
H1104 H 0.86327 0.26392 0.20087 0.0
H1105 H 0.82866 0.22357 0.08774 0.0
H1106 H 0.82492 0.27347 0.30436 0.0
H1107 H 0.83863 0.25169 0.3323 0.0
H1108 H 0.85254 0.27225 0.29659 0.0
H1109 H 0.7971 0.20916 0.1152 0.0
H1110 H 0.7961 0.20287 0.19259 0.0
H1111 H 0.78243 0.22482 0.16573 0.0
H1112 H 0.7928 0.20735 0.39705 0.0
H1113 H 0.75971 0.26037 0.33444 0.0
H1114 H 0.83656 0.21348 0.31828 0.0
H1115 H 0.82199 0.19809 0.26795 0.0
H1116 H 0.82056 0.19296 0.34601 0.0
H1117 H 0.79505 0.27895 0.23961 0.0
H1118 H 0.76745 0.27624 0.24385 0.0
H1119 H 0.78212 0.26159 0.1908 0.0
C1120 C 0.34134 0.27328 0.34623 0.0
C1121 C 0.35706 0.25846 0.34921 0.0
C1122 C 0.3272 0.27346 0.29943 0.0
C1123 C 0.32888 0.25856 0.25413 0.0
C1124 C 0.34528 0.24416 0.25534 0.0
C1125 C 0.35916 0.24424 0.30299 0.0
C1126 C 0.30997 0.28909 0.29975 0.0
C1127 C 0.34774 0.22821 0.20738 0.0
C1128 C 0.28041 0.24436 0.16881 0.0
C1129 C 0.28283 0.25586 0.11695 0.0
C1130 C 0.29526 0.24516 0.2139 0.0
C1131 C 0.31303 0.25761 0.2067 0.0
C1132 C 0.3155 0.26931 0.15457 0.0
C1133 C 0.30035 0.26836 0.11048 0.0
C1134 C 0.29197 0.23262 0.26919 0.0
C1135 C 0.33425 0.28269 0.14512 0.0
H1136 H 0.33957 0.28434 0.3817 0.0
H1137 H 0.37123 0.23273 0.30494 0.0
H1138 H 0.30969 0.29772 0.25754 0.0
H1139 H 0.29495 0.28106 0.30393 0.0
H1140 H 0.31143 0.3003 0.33658 0.0
H1141 H 0.36207 0.21904 0.21265 0.0
H1142 H 0.33439 0.21754 0.20797 0.0
H1143 H 0.34798 0.23574 0.16346 0.0
H1144 H 0.26694 0.23467 0.17412 0.0
H1145 H 0.30243 0.27723 0.07043 0.0
H1146 H 0.29191 0.2429 0.30832 0.0
H1147 H 0.30485 0.22157 0.27497 0.0
H1148 H 0.27726 0.22388 0.2682 0.0
H1149 H 0.33537 0.29438 0.1807 0.0
H1150 H 0.3339 0.29077 0.10195 0.0
H1151 H 0.34841 0.27315 0.14728 0.0
C1152 C 0.3258 0.71219 0.63926 0.0
C1153 C 0.3435 0.7246 0.64179 0.0
C1154 C 0.31061 0.71326 0.68319 0.0
C1155 C 0.31325 0.72692 0.73124 0.0
C1156 C 0.33133 0.7391 0.73493 0.0
C1157 C 0.3462 0.73788 0.68999 0.0
C1158 C 0.29152 0.70009 0.67751 0.0
C1159 C 0.33484 0.75364 0.78597 0.0
C1160 C 0.26672 0.74551 0.81845 0.0
C1161 C 0.26771 0.73301 0.86879 0.0
C1162 C 0.28116 0.74338 0.77265 0.0
C1163 C 0.29707 0.72853 0.77761 0.0
C1164 C 0.2978 0.71549 0.82756 0.0
C1165 C 0.28307 0.71782 0.87233 0.0
C1166 C 0.27971 0.75736 0.71961 0.0
C1167 C 0.31454 0.69952 0.83465 0.0
H1168 H 0.32351 0.70195 0.60204 0.0
H1169 H 0.35981 0.74752 0.69227 0.0
H1170 H 0.28972 0.69023 0.71713 0.0
H1171 H 0.27768 0.71007 0.67483 0.0
H1172 H 0.29195 0.69003 0.63786 0.0
H1173 H 0.34997 0.76158 0.78326 0.0
H1174 H 0.3225 0.76546 0.78696 0.0
H1175 H 0.33407 0.74507 0.82825 0.0
H1176 H 0.25493 0.75728 0.81538 0.0
H1177 H 0.28403 0.70811 0.91111 0.0
H1178 H 0.27929 0.74808 0.67852 0.0
H1179 H 0.29357 0.76733 0.71734 0.0
H1180 H 0.26583 0.76735 0.72098 0.0
H1181 H 0.31477 0.68906 0.79596 0.0
H1182 H 0.31252 0.69012 0.87517 0.0
H1183 H 0.32978 0.70723 0.8367 0.0
C1184 C 0.62288 0.98006 0.19047 0.0
C1185 C 0.60753 0.96484 0.18872 0.0
C1186 C 0.6242 0.99524 0.14673 0.0
C1187 C 0.61008 0.99501 0.09922 0.0
C1188 C 0.59499 0.97926 0.09591 0.0
C1189 C 0.59375 0.96445 0.14109 0.0
C1190 C 0.64036 0.0119 0.15232 0.0
C1191 C 0.57997 0.97825 0.04515 0.0
C1192 C 0.60146 0.04546 0.01738 0.0
C1193 C 0.61499 0.04335 0.96963 0.0
C1194 C 0.59958 0.02977 0.05978 0.0
C1195 C 0.61117 0.01139 0.05341 0.0
C1196 C 0.62457 0.00907 0.00469 0.0
C1197 C 0.62649 0.02516 0.96381 0.0
C1198 C 0.58544 0.03297 0.11183 0.0
C1199 C 0.6369 0.98958 0.99574 0.0
H1200 H 0.63351 0.9806 0.22734 0.0
H1201 H 0.58184 0.95276 0.13951 0.0
H1202 H 0.65043 0.01195 0.11283 0.0
H1203 H 0.63282 0.02722 0.15474 0.0
H1204 H 0.65017 0.00989 0.19208 0.0
H1205 H 0.56992 0.96442 0.04738 0.0
H1206 H 0.57008 0.99219 0.04518 0.0
H1207 H 0.58843 0.97806 0.00263 0.0
H1208 H 0.5925 0.05946 0.02194 0.0
H1209 H 0.63676 0.0233 0.92649 0.0
H1210 H 0.59442 0.03214 0.15343 0.0
H1211 H 0.57372 0.02054 0.11342 0.0
H1212 H 0.5774 0.04807 0.11013 0.0
H1213 H 0.64784 0.98748 0.03284 0.0
H1214 H 0.64577 0.98978 0.95385 0.0
H1215 H 0.62649 0.97601 0.99544 0.0
C1216 C 0.01537 0.03384 0.63197 0.0
C1217 C 0.02803 0.03371 0.68195 0.0
C1218 C 0.01666 0.01811 0.58963 0.0
C1219 C 0.03037 0.00143 0.59875 0.0
C1220 C 0.04384 0.0017 0.64794 0.0
C1221 C 0.04272 0.01805 0.68856 0.0
C1222 C 0.00253 0.01882 0.53673 0.0
C1223 C 0.05831 0.98401 0.66015 0.0
C1224 C 0.01011 0.95194 0.53117 0.0
C1225 C 0.022 0.95033 0.4799 0.0
C1226 C 0.01364 0.96778 0.57209 0.0
C1227 C 0.0289 0.98285 0.56026 0.0
C1228 C 0.04141 0.98089 0.50937 0.0
C1229 C 0.03801 0.96442 0.47017 0.0
C1230 C 0.00041 0.96887 0.62679 0.0
C1231 C 0.05744 0.99689 0.49429 0.0
H1232 H 0.00404 0.04598 0.62682 0.0
H1233 H 0.05233 0.0178 0.72769 0.0
H1234 H 0.01124 0.01539 0.49578 0.0
H1235 H 0.99039 0.00689 0.54133 0.0
H1236 H 0.99494 0.03406 0.53186 0.0
H1237 H 0.06945 0.98768 0.69585 0.0
H1238 H 0.04922 0.97031 0.67362 0.0
H1239 H 0.06699 0.97975 0.61986 0.0
H1240 H -0.00223 0.941 0.53873 0.0
H1241 H 0.04703 0.96332 0.43005 0.0
H1242 H 0.98983 0.98224 0.62366 0.0
H1243 H 0.01017 0.97116 0.66647 0.0
H1244 H 0.99103 0.95471 0.63298 0.0
H1245 H 0.04965 0.01151 0.48218 0.0
H1246 H 0.06733 0.99202 0.45682 0.0
H1247 H 0.06739 0.00017 0.53294 0.0
loop_
_geom_bond_atom_site_label_1
_geom_bond_atom_site_label_2
_geom_bond_distance
_geom_bond_site_symmetry_2
_ccdc_geom_bond_type
O0 Cd1 2.223 . S
O0 C8 1.315 . S
Cd1 O0 2.223 . S
Cd1 O4 2.297 . S
Cd1 O5 2.439 . S
Cd1 O11 2.240 . S
Cd2 O3 2.240 . S
Cd2 O10 2.223 . S
Cd2 O12 2.297 . S
Cd2 O13 2.439 . S
O3 Cd2 2.240 . S
O3 C8 1.279 . S
O4 Cd1 2.297 . S
O4 C6 1.247 . S
O5 Cd1 2.439 . S
O5 C6 1.208 . S
C6 O4 1.247 . S
C6 O5 1.208 . S
C7 O12 1.247 . S
C7 O13 1.208 . S
C8 O0 1.315 . S
C8 O3 1.279 . S
C9 O10 1.315 . S
C9 O11 1.279 . S
O10 Cd2 2.223 . S
O10 C9 1.315 . S
O11 Cd1 2.240 . S
O11 C9 1.279 . S
O12 Cd2 2.297 . S
O12 C7 1.247 . S
O13 Cd2 2.439 . S
O13 C7 1.208 . S
O14 Cd15 2.223 . S
O14 C22 1.315 . S
Cd15 O14 2.223 . S
Cd15 O18 2.297 . S
Cd15 O19 2.439 . S
Cd15 O25 2.240 . S
Cd16 O17 2.240 . S
Cd16 O24 2.223 . S
Cd16 O26 2.297 . S
Cd16 O27 2.439 . S
O17 Cd16 2.240 . S
O17 C22 1.279 . S
O18 Cd15 2.297 . S
O18 C20 1.247 . S
O19 Cd15 2.439 . S
O19 C20 1.208 . S
C20 O18 1.247 . S
C20 O19 1.208 . S
C21 O26 1.247 . S
C21 O27 1.208 . S
C22 O14 1.315 . S
C22 O17 1.279 . S
C23 O24 1.315 . S
C23 O25 1.279 . S
O24 Cd16 2.223 . S
O24 C23 1.315 . S
O25 Cd15 2.240 . S
O25 C23 1.279 . S
O26 Cd16 2.297 . S
O26 C21 1.247 . S
O27 Cd16 2.439 . S
O27 C21 1.208 . S
O28 Cd29 2.223 . S
O28 C36 1.315 . S
Cd29 O28 2.223 . S
Cd29 O32 2.297 . S
Cd29 O33 2.439 . S
Cd29 O39 2.240 . S
Cd30 O31 2.240 . S
Cd30 O38 2.223 . S
Cd30 O40 2.297 . S
Cd30 O41 2.439 . S
O31 Cd30 2.240 . S
O31 C36 1.279 . S
O32 Cd29 2.297 . S
O32 C34 1.247 . S
O33 Cd29 2.439 . S
O33 C34 1.208 . S
C34 O32 1.247 . S
C34 O33 1.208 . S
C35 O40 1.247 . S
C35 O41 1.208 . S
C36 O28 1.315 . S
C36 O31 1.279 . S
C37 O38 1.315 . S
C37 O39 1.279 . S
O38 Cd30 2.223 . S
O38 C37 1.315 . S
O39 Cd29 2.240 . S
O39 C37 1.279 . S
O40 Cd30 2.297 . S
O40 C35 1.247 . S
O41 Cd30 2.439 . S
O41 C35 1.208 . S
O42 Cd43 2.223 1_556 S
O42 C50 1.315 . S
Cd43 O42 2.223 1_554 S
Cd43 O46 2.297 . S
Cd43 O47 2.439 . S
Cd43 O53 2.240 . S
Cd44 O45 2.240 . S
Cd44 O52 2.223 . S
Cd44 O54 2.297 . S
Cd44 O55 2.439 1_556 S
O45 Cd44 2.240 . S
O45 C50 1.279 . S
O46 Cd43 2.297 . S
O46 C48 1.247 . S
O47 Cd43 2.439 . S
O47 C48 1.208 . S
C48 O46 1.247 . S
C48 O47 1.208 . S
C49 O54 1.247 1_554 S
C49 O55 1.208 . S
C50 O42 1.315 . S
C50 O45 1.279 . S
C51 O52 1.315 . S
C51 O53 1.279 1_556 S
O52 Cd44 2.223 . S
O52 C51 1.315 . S
O53 Cd43 2.240 . S
O53 C51 1.279 1_554 S
O54 Cd44 2.297 . S
O54 C49 1.247 1_556 S
O55 Cd44 2.439 1_554 S
O55 C49 1.208 . S
O56 Cd57 2.223 . S
O56 C64 1.315 . S
Cd57 O56 2.223 . S
Cd57 O60 2.297 . S
Cd57 O61 2.439 . S
Cd57 O67 2.240 . S
Cd58 O59 2.240 . S
Cd58 O66 2.223 . S
Cd58 O68 2.297 . S
Cd58 O69 2.439 . S
O59 Cd58 2.240 . S
O59 C64 1.279 . S
O60 Cd57 2.297 . S
O60 C62 1.247 . S
O61 Cd57 2.439 . S
O61 C62 1.208 . S
C62 O60 1.247 . S
C62 O61 1.208 . S
C63 O68 1.247 . S
C63 O69 1.208 . S
C64 O56 1.315 . S
C64 O59 1.279 . S
C65 O66 1.315 . S
C65 O67 1.279 . S
O66 Cd58 2.223 . S
O66 C65 1.315 . S
O67 Cd57 2.240 . S
O67 C65 1.279 . S
O68 Cd58 2.297 . S
O68 C63 1.247 . S
O69 Cd58 2.439 . S
O69 C63 1.208 . S
O70 Cd71 2.223 . S
O70 C78 1.315 . S
Cd71 O70 2.223 . S
Cd71 O74 2.297 1_554 S
Cd71 O75 2.439 . S
Cd71 O81 2.240 . S
Cd72 O73 2.240 . S
Cd72 O80 2.223 . S
Cd72 O82 2.297 . S
Cd72 O83 2.439 . S
O73 Cd72 2.240 . S
O73 C78 1.279 . S
O74 Cd71 2.297 1_556 S
O74 C76 1.247 . S
O75 Cd71 2.439 . S
O75 C76 1.208 1_554 S
C76 O74 1.247 . S
C76 O75 1.208 1_556 S
C77 O82 1.247 . S
C77 O83 1.208 . S
C78 O70 1.315 . S
C78 O73 1.279 . S
C79 O80 1.315 . S
C79 O81 1.279 . S
O80 Cd72 2.223 . S
O80 C79 1.315 . S
O81 Cd71 2.240 . S
O81 C79 1.279 . S
O82 Cd72 2.297 . S
O82 C77 1.247 . S
O83 Cd72 2.439 . S
O83 C77 1.208 . S
O84 Cd85 2.223 . S
O84 C92 1.315 . S
Cd85 O84 2.223 . S
Cd85 O88 2.297 . S
Cd85 O89 2.439 . S
Cd85 O95 2.240 . S
Cd86 O87 2.240 . S
Cd86 O94 2.223 . S
Cd86 O96 2.297 . S
Cd86 O97 2.439 . S
O87 Cd86 2.240 . S
O87 C92 1.279 . S
O88 Cd85 2.297 . S
O88 C90 1.247 . S
O89 Cd85 2.439 . S
O89 C90 1.208 . S
C90 O88 1.247 . S
C90 O89 1.208 . S
C91 O96 1.247 . S
C91 O97 1.208 . S
C92 O84 1.315 . S
C92 O87 1.279 . S
C93 O94 1.315 . S
C93 O95 1.279 . S
O94 Cd86 2.223 . S
O94 C93 1.315 . S
O95 Cd85 2.240 . S
O95 C93 1.279 . S
O96 Cd86 2.297 . S
O96 C91 1.247 . S
O97 Cd86 2.439 . S
O97 C91 1.208 . S
O98 Cd99 2.223 . S
O98 C106 1.315 . S
Cd99 O98 2.223 . S
Cd99 O102 2.297 . S
Cd99 O103 2.439 . S
Cd99 O109 2.240 . S
Cd100 O101 2.240 . S
Cd100 O108 2.223 . S
Cd100 O110 2.297 . S
Cd100 O111 2.439 . S
O101 Cd100 2.240 . S
O101 C106 1.279 . S
O102 Cd99 2.297 . S
O102 C104 1.247 . S
O103 Cd99 2.439 . S
O103 C104 1.208 . S
C104 O102 1.247 . S
C104 O103 1.208 . S
C105 O110 1.247 . S
C105 O111 1.208 . S
C106 O98 1.315 . S
C106 O101 1.279 . S
C107 O108 1.315 . S
C107 O109 1.279 . S
O108 Cd100 2.223 . S
O108 C107 1.315 . S
O109 Cd99 2.240 . S
O109 C107 1.279 . S
O110 Cd100 2.297 . S
O110 C105 1.247 . S
O111 Cd100 2.439 . S
O111 C105 1.208 . S
O112 Cd113 2.223 . S
O112 C120 1.315 . S
Cd113 O112 2.223 . S
Cd113 O116 2.297 . S
Cd113 O117 2.439 . S
Cd113 O123 2.240 . S
Cd114 O115 2.240 . S
Cd114 O122 2.223 . S
Cd114 O124 2.297 . S
Cd114 O125 2.439 . S
O115 Cd114 2.240 . S
O115 C120 1.279 . S
O116 Cd113 2.297 . S
O116 C118 1.247 . S
O117 Cd113 2.439 . S
O117 C118 1.208 . S
C118 O116 1.247 . S
C118 O117 1.208 . S
C119 O124 1.247 . S
C119 O125 1.208 . S
C120 O112 1.315 . S
C120 O115 1.279 . S
C121 O122 1.315 . S
C121 O123 1.279 . S
O122 Cd114 2.223 . S
O122 C121 1.315 . S
O123 Cd113 2.240 . S
O123 C121 1.279 . S
O124 Cd114 2.297 . S
O124 C119 1.247 . S
O125 Cd114 2.439 . S
O125 C119 1.208 . S
O126 Cd127 2.223 . S
O126 C134 1.315 . S
Cd127 O126 2.223 . S
Cd127 O130 2.297 1_554 S
Cd127 O131 2.439 . S
Cd127 O137 2.240 . S
Cd128 O129 2.240 . S
Cd128 O136 2.223 . S
Cd128 O138 2.297 . S
Cd128 O139 2.439 . S
O129 Cd128 2.240 . S
O129 C134 1.279 . S
O130 Cd127 2.297 1_556 S
O130 C132 1.247 . S
O131 Cd127 2.439 . S
O131 C132 1.208 1_554 S
C132 O130 1.247 . S
C132 O131 1.208 1_556 S
C133 O138 1.247 . S
C133 O139 1.208 . S
C134 O126 1.315 . S
C134 O129 1.279 . S
C135 O136 1.315 . S
C135 O137 1.279 . S
O136 Cd128 2.223 . S
O136 C135 1.315 . S
O137 Cd127 2.240 . S
O137 C135 1.279 . S
O138 Cd128 2.297 . S
O138 C133 1.247 . S
O139 Cd128 2.439 . S
O139 C133 1.208 . S
O140 Cd141 2.223 1_556 S
O140 C148 1.315 . S
Cd141 O140 2.223 1_554 S
Cd141 O144 2.297 . S
Cd141 O145 2.439 . S
Cd141 O151 2.240 . S
Cd142 O143 2.240 . S
Cd142 O150 2.223 . S
Cd142 O152 2.297 . S
Cd142 O153 2.439 1_556 S
O143 Cd142 2.240 . S
O143 C148 1.279 . S
O144 Cd141 2.297 . S
O144 C146 1.247 . S
O145 Cd141 2.439 . S
O145 C146 1.208 . S
C146 O144 1.247 . S
C146 O145 1.208 . S
C147 O152 1.247 1_554 S
C147 O153 1.208 . S
C148 O140 1.315 . S
C148 O143 1.279 . S
C149 O150 1.315 . S
C149 O151 1.279 1_556 S
O150 Cd142 2.223 . S
O150 C149 1.315 . S
O151 Cd141 2.240 . S
O151 C149 1.279 1_554 S
O152 Cd142 2.297 . S
O152 C147 1.247 1_556 S
O153 Cd142 2.439 1_554 S
O153 C147 1.208 . S
O154 Cd155 2.223 . S
O154 C162 1.315 . S
Cd155 O154 2.223 . S
Cd155 O158 2.297 . S
Cd155 O159 2.439 . S
Cd155 O165 2.240 . S
Cd156 O157 2.240 . S
Cd156 O164 2.223 . S
Cd156 O166 2.297 . S
Cd156 O167 2.439 . S
O157 Cd156 2.240 . S
O157 C162 1.279 . S
O158 Cd155 2.297 . S
O158 C160 1.247 . S
O159 Cd155 2.439 . S
O159 C160 1.208 . S
C160 O158 1.247 . S
C160 O159 1.208 . S
C161 O166 1.247 . S
C161 O167 1.208 . S
C162 O154 1.315 . S
C162 O157 1.279 . S
C163 O164 1.315 . S
C163 O165 1.279 . S
O164 Cd156 2.223 . S
O164 C163 1.315 . S
O165 Cd155 2.240 . S
O165 C163 1.279 . S
O166 Cd156 2.297 . S
O166 C161 1.247 . S
O167 Cd156 2.439 . S
O167 C161 1.208 . S
O168 Cd169 2.223 . S
O168 C176 1.315 . S
Cd169 O168 2.223 . S
Cd169 O172 2.297 . S
Cd169 O173 2.439 . S
Cd169 O179 2.240 . S
Cd170 O171 2.240 . S
Cd170 O178 2.223 . S
Cd170 O180 2.297 . S
Cd170 O181 2.439 . S
O171 Cd170 2.240 . S
O171 C176 1.279 . S
O172 Cd169 2.297 . S
O172 C174 1.247 . S
O173 Cd169 2.439 . S
O173 C174 1.208 . S
C174 O172 1.247 . S
C174 O173 1.208 . S
C175 O180 1.247 . S
C175 O181 1.208 . S
C176 O168 1.315 . S
C176 O171 1.279 . S
C177 O178 1.315 . S
C177 O179 1.279 . S
O178 Cd170 2.223 . S
O178 C177 1.315 . S
O179 Cd169 2.240 . S
O179 C177 1.279 . S
O180 Cd170 2.297 . S
O180 C175 1.247 . S
O181 Cd170 2.439 . S
O181 C175 1.208 . S
O182 Cd183 2.223 . S
O182 C190 1.315 . S
Cd183 O182 2.223 . S
Cd183 O186 2.297 . S
Cd183 O187 2.439 . S
Cd183 O193 2.240 . S
Cd184 O185 2.240 . S
Cd184 O192 2.223 . S
Cd184 O194 2.297 . S
Cd184 O195 2.439 . S
O185 Cd184 2.240 . S
O185 C190 1.279 . S
O186 Cd183 2.297 . S
O186 C188 1.247 . S
O187 Cd183 2.439 . S
O187 C188 1.208 . S
C188 O186 1.247 . S
C188 O187 1.208 . S
C189 O194 1.247 . S
C189 O195 1.208 . S
C190 O182 1.315 . S
C190 O185 1.279 . S
C191 O192 1.315 . S
C191 O193 1.279 . S
O192 Cd184 2.223 . S
O192 C191 1.315 . S
O193 Cd183 2.240 . S
O193 C191 1.279 . S
O194 Cd184 2.297 . S
O194 C189 1.247 . S
O195 Cd184 2.439 . S
O195 C189 1.208 . S
O196 Cd197 2.223 . S
O196 C204 1.315 . S
Cd197 O196 2.223 . S
Cd197 O200 2.297 . S
Cd197 O201 2.439 . S
Cd197 O207 2.240 . S
Cd198 O199 2.240 . S
Cd198 O206 2.223 . S
Cd198 O208 2.297 . S
Cd198 O209 2.439 . S
O199 Cd198 2.240 . S
O199 C204 1.279 . S
O200 Cd197 2.297 . S
O200 C202 1.247 . S
O201 Cd197 2.439 . S
O201 C202 1.208 . S
C202 O200 1.247 . S
C202 O201 1.208 . S
C203 O208 1.247 . S
C203 O209 1.208 . S
C204 O196 1.315 . S
C204 O199 1.279 . S
C205 O206 1.315 . S
C205 O207 1.279 . S
O206 Cd198 2.223 . S
O206 C205 1.315 . S
O207 Cd197 2.240 . S
O207 C205 1.279 . S
O208 Cd198 2.297 . S
O208 C203 1.247 . S
O209 Cd198 2.439 . S
O209 C203 1.208 . S
O210 Cd211 2.223 . S
O210 C218 1.315 . S
Cd211 O210 2.223 . S
Cd211 O214 2.297 . S
Cd211 O215 2.439 . S
Cd211 O221 2.240 . S
Cd212 O213 2.240 . S
Cd212 O220 2.223 . S
Cd212 O222 2.297 . S
Cd212 O223 2.439 . S
O213 Cd212 2.240 . S
O213 C218 1.279 . S
O214 Cd211 2.297 . S
O214 C216 1.247 . S
O215 Cd211 2.439 . S
O215 C216 1.208 . S
C216 O214 1.247 . S
C216 O215 1.208 . S
C217 O222 1.247 . S
C217 O223 1.208 . S
C218 O210 1.315 . S
C218 O213 1.279 . S
C219 O220 1.315 . S
C219 O221 1.279 . S
O220 Cd212 2.223 . S
O220 C219 1.315 . S
O221 Cd211 2.240 . S
O221 C219 1.279 . S
O222 Cd212 2.297 . S
O222 C217 1.247 . S
O223 Cd212 2.439 . S
O223 C217 1.208 . S
C224 C225 1.391 . S
C224 C226 1.394 . S
C224 H240 0.931 . S
C225 C224 1.391 . S
C225 C229 1.376 . S
C226 C224 1.394 . S
C226 C227 1.369 . S
C226 C230 1.531 . S
C227 C226 1.369 . S
C227 C228 1.410 . S
C227 C235 1.503 . S
C228 C227 1.410 . S
C228 C229 1.392 . S
C228 C231 1.511 . S
C229 C225 1.376 . S
C229 C228 1.392 . S
C229 H241 0.929 . S
C230 C226 1.531 . S
C230 H242 0.960 . S
C230 H243 0.962 . S
C230 H244 0.960 . S
C231 C228 1.511 . S
C231 H245 0.961 . S
C231 H246 0.961 . S
C231 H247 0.961 . S
C232 C233 1.370 . S
C232 C234 1.363 . S
C232 H248 0.931 . S
C233 C232 1.370 . S
C233 C237 1.408 . S
C234 C232 1.363 . S
C234 C235 1.370 . S
C234 C238 1.524 . S
C235 C227 1.503 . S
C235 C234 1.370 . S
C235 C236 1.403 . S
C236 C235 1.403 . S
C236 C237 1.404 . S
C236 C239 1.539 . S
C237 C233 1.408 . S
C237 C236 1.404 . S
C237 H249 0.930 . S
C238 C234 1.524 . S
C238 H250 0.956 . S
C238 H251 0.961 . S
C238 H252 0.961 . S
C239 C236 1.539 . S
C239 H253 0.958 . S
C239 H254 0.961 . S
C239 H255 0.960 . S
H240 C224 0.931 . S
H241 C229 0.929 . S
H242 C230 0.960 . S
H243 C230 0.962 . S
H244 C230 0.960 . S
H245 C231 0.961 . S
H246 C231 0.961 . S
H247 C231 0.961 . S
H248 C232 0.931 . S
H249 C237 0.930 . S
H250 C238 0.956 . S
H251 C238 0.961 . S
H252 C238 0.961 . S
H253 C239 0.958 . S
H254 C239 0.961 . S
H255 C239 0.960 . S
C256 C257 1.391 . S
C256 C258 1.394 . S
C256 H272 0.931 . S
C257 C256 1.391 . S
C257 C261 1.376 . S
C258 C256 1.394 . S
C258 C259 1.369 . S
C258 C262 1.531 . S
C259 C258 1.369 . S
C259 C260 1.410 . S
C259 C267 1.503 . S
C260 C259 1.410 . S
C260 C261 1.392 . S
C260 C263 1.511 . S
C261 C257 1.376 . S
C261 C260 1.392 . S
C261 H273 0.929 . S
C262 C258 1.531 . S
C262 H274 0.960 . S
C262 H275 0.962 . S
C262 H276 0.960 . S
C263 C260 1.511 . S
C263 H277 0.961 . S
C263 H278 0.961 . S
C263 H279 0.961 . S
C264 C265 1.370 . S
C264 C266 1.363 . S
C264 H280 0.931 . S
C265 C264 1.370 . S
C265 C269 1.408 . S
C266 C264 1.363 . S
C266 C267 1.370 . S
C266 C270 1.524 . S
C267 C259 1.503 . S
C267 C266 1.370 . S
C267 C268 1.403 . S
C268 C267 1.403 . S
C268 C269 1.404 . S
C268 C271 1.539 . S
C269 C265 1.408 . S
C269 C268 1.404 . S
C269 H281 0.930 . S
C270 C266 1.524 . S
C270 H282 0.956 . S
C270 H283 0.961 . S
C270 H284 0.961 . S
C271 C268 1.539 . S
C271 H285 0.958 . S
C271 H286 0.961 . S
C271 H287 0.960 . S
H272 C256 0.931 . S
H273 C261 0.929 . S
H274 C262 0.960 . S
H275 C262 0.962 . S
H276 C262 0.960 . S
H277 C263 0.961 . S
H278 C263 0.961 . S
H279 C263 0.961 . S
H280 C264 0.931 . S
H281 C269 0.930 . S
H282 C270 0.956 . S
H283 C270 0.961 . S
H284 C270 0.961 . S
H285 C271 0.958 . S
H286 C271 0.961 . S
H287 C271 0.960 . S
C288 C289 1.391 . S
C288 C290 1.394 . S
C288 H304 0.931 . S
C289 C288 1.391 . S
C289 C293 1.376 . S
C290 C288 1.394 . S
C290 C291 1.369 . S
C290 C294 1.531 . S
C291 C290 1.369 . S
C291 C292 1.410 . S
C291 C299 1.503 . S
C292 C291 1.410 . S
C292 C293 1.392 . S
C292 C295 1.511 . S
C293 C289 1.376 . S
C293 C292 1.392 . S
C293 H305 0.929 . S
C294 C290 1.531 . S
C294 H306 0.960 . S
C294 H307 0.962 . S
C294 H308 0.960 . S
C295 C292 1.511 . S
C295 H309 0.961 . S
C295 H310 0.961 . S
C295 H311 0.961 . S
C296 C297 1.370 . S
C296 C298 1.363 . S
C296 H312 0.931 . S
C297 C296 1.370 . S
C297 C301 1.408 . S
C298 C296 1.363 . S
C298 C299 1.370 . S
C298 C302 1.524 . S
C299 C291 1.503 . S
C299 C298 1.370 . S
C299 C300 1.403 . S
C300 C299 1.403 . S
C300 C301 1.404 . S
C300 C303 1.539 . S
C301 C297 1.408 . S
C301 C300 1.404 . S
C301 H313 0.930 . S
C302 C298 1.524 . S
C302 H314 0.956 . S
C302 H315 0.961 . S
C302 H316 0.961 . S
C303 C300 1.539 . S
C303 H317 0.958 . S
C303 H318 0.961 . S
C303 H319 0.960 . S
H304 C288 0.931 . S
H305 C293 0.929 . S
H306 C294 0.960 . S
H307 C294 0.962 . S
H308 C294 0.960 . S
H309 C295 0.961 . S
H310 C295 0.961 . S
H311 C295 0.961 . S
H312 C296 0.931 . S
H313 C301 0.930 . S
H314 C302 0.956 . S
H315 C302 0.961 . S
H316 C302 0.961 . S
H317 C303 0.958 . S
H318 C303 0.961 . S
H319 C303 0.960 . S
C320 C321 1.391 . S
C320 C322 1.394 . S
C320 H336 0.931 . S
C321 C320 1.391 . S
C321 C325 1.376 . S
C322 C320 1.394 . S
C322 C323 1.369 . S
C322 C326 1.531 . S
C323 C322 1.369 . S
C323 C324 1.410 . S
C323 C331 1.503 . S
C324 C323 1.410 . S
C324 C325 1.392 . S
C324 C327 1.511 . S
C325 C321 1.376 . S
C325 C324 1.392 . S
C325 H337 0.929 . S
C326 C322 1.531 . S
C326 H338 0.960 . S
C326 H339 0.962 . S
C326 H340 0.960 1_556 S
C327 C324 1.511 . S
C327 H341 0.961 . S
C327 H342 0.961 . S
C327 H343 0.961 . S
C328 C329 1.370 . S
C328 C330 1.363 1_455 S
C328 H344 0.931 . S
C329 C328 1.370 . S
C329 C333 1.408 . S
C330 C328 1.363 1_655 S
C330 C331 1.370 . S
C330 C334 1.524 . S
C331 C323 1.503 . S
C331 C330 1.370 . S
C331 C332 1.403 . S
C332 C331 1.403 . S
C332 C333 1.404 1_655 S
C332 C335 1.539 1_556 S
C333 C329 1.408 . S
C333 C332 1.404 1_455 S
C333 H345 0.930 1_556 S
C334 C330 1.524 . S
C334 H346 0.956 . S
C334 H347 0.961 . S
C334 H348 0.961 . S
C335 C332 1.539 1_554 S
C335 H349 0.958 . S
C335 H350 0.961 . S
C335 H351 0.960 . S
H336 C320 0.931 . S
H337 C325 0.929 . S
H338 C326 0.960 . S
H339 C326 0.962 . S
H340 C326 0.960 1_554 S
H341 C327 0.961 . S
H342 C327 0.961 . S
H343 C327 0.961 . S
H344 C328 0.931 . S
H345 C333 0.930 1_554 S
H346 C334 0.956 . S
H347 C334 0.961 . S
H348 C334 0.961 . S
H349 C335 0.958 . S
H350 C335 0.961 . S
H351 C335 0.960 . S
C352 C353 1.391 . S
C352 C354 1.394 . S
C352 H368 0.931 . S
C353 C352 1.391 . S
C353 C357 1.376 . S
C354 C352 1.394 . S
C354 C355 1.369 . S
C354 C358 1.531 . S
C355 C354 1.369 . S
C355 C356 1.410 . S
C355 C363 1.503 . S
C356 C355 1.410 . S
C356 C357 1.392 . S
C356 C359 1.511 . S
C357 C353 1.376 . S
C357 C356 1.392 . S
C357 H369 0.929 . S
C358 C354 1.531 . S
C358 H370 0.960 . S
C358 H371 0.962 . S
C358 H372 0.960 . S
C359 C356 1.511 . S
C359 H373 0.961 . S
C359 H374 0.961 . S
C359 H375 0.961 1_556 S
C360 C361 1.370 . S
C360 C362 1.363 . S
C360 H376 0.931 . S
C361 C360 1.370 . S
C361 C365 1.408 1_556 S
C362 C360 1.363 . S
C362 C363 1.370 . S
C362 C366 1.524 . S
C363 C355 1.503 . S
C363 C362 1.370 . S
C363 C364 1.403 1_556 S
C364 C363 1.403 1_554 S
C364 C365 1.404 . S
C364 C367 1.539 . S
C365 C361 1.408 1_554 S
C365 C364 1.404 . S
C365 H377 0.930 . S
C366 C362 1.524 . S
C366 H378 0.956 . S
C366 H379 0.961 . S
C366 H380 0.961 . S
C367 C364 1.539 . S
C367 H381 0.958 . S
C367 H382 0.961 . S
C367 H383 0.960 . S
H368 C352 0.931 . S
H369 C357 0.929 . S
H370 C358 0.960 . S
H371 C358 0.962 . S
H372 C358 0.960 . S
H373 C359 0.961 . S
H374 C359 0.961 . S
H375 C359 0.961 1_554 S
H376 C360 0.931 . S
H377 C365 0.930 . S
H378 C366 0.956 . S
H379 C366 0.961 . S
H380 C366 0.961 . S
H381 C367 0.958 . S
H382 C367 0.961 . S
H383 C367 0.960 . S
C384 C385 1.391 1_655 S
C384 C386 1.394 . S
C384 H400 0.931 . S
C385 C384 1.391 1_455 S
C385 C389 1.376 . S
C386 C384 1.394 . S
C386 C387 1.369 . S
C386 C390 1.531 . S
C387 C386 1.369 . S
C387 C388 1.427 . S
C387 C395 1.503 . S
C388 C387 1.427 . S
C388 C389 1.379 1_655 S
C388 C391 1.507 1_655 S
C389 C385 1.376 . S
C389 C388 1.379 1_455 S
C389 H401 0.929 . S
C390 C386 1.531 . S
C390 H402 0.960 . S
C390 H403 0.962 . S
C390 H404 0.960 . S
C391 C388 1.507 1_455 S
C391 H405 0.961 . S
C391 H406 0.961 1_455 S
C391 H407 0.961 . S
C392 C393 1.370 . S
C392 C394 1.363 . S
C392 H408 0.931 . S
C393 C392 1.370 . S
C393 C397 1.408 . S
C394 C392 1.363 . S
C394 C395 1.370 . S
C394 C398 1.524 . S
C395 C387 1.503 . S
C395 C394 1.370 . S
C395 C396 1.403 . S
C396 C395 1.403 . S
C396 C397 1.404 . S
C396 C399 1.539 . S
C397 C393 1.408 . S
C397 C396 1.404 . S
C397 H409 0.930 . S
C398 C394 1.524 . S
C398 H410 0.956 . S
C398 H411 0.961 . S
C398 H412 0.961 . S
C399 C396 1.539 . S
C399 H413 0.958 . S
C399 H414 0.961 . S
C399 H415 0.960 . S
H400 C384 0.931 . S
H401 C389 0.929 . S
H402 C390 0.960 . S
H403 C390 0.962 . S
H404 C390 0.960 . S
H405 C391 0.961 . S
H406 C391 0.961 1_655 S
H407 C391 0.961 . S
H408 C392 0.931 . S
H409 C397 0.930 . S
H410 C398 0.956 . S
H411 C398 0.961 . S
H412 C398 0.961 . S
H413 C399 0.958 . S
H414 C399 0.961 . S
H415 C399 0.960 . S
C416 C417 1.391 . S
C416 C418 1.394 . S
C416 H432 0.931 . S
C417 C416 1.391 . S
C417 C421 1.376 . S
C418 C416 1.394 . S
C418 C419 1.369 . S
C418 C422 1.531 . S
C419 C418 1.369 . S
C419 C420 1.410 . S
C419 C427 1.503 . S
C420 C419 1.410 . S
C420 C421 1.392 . S
C420 C423 1.511 . S
C421 C417 1.376 . S
C421 C420 1.392 . S
C421 H433 0.929 . S
C422 C418 1.531 . S
C422 H434 0.960 . S
C422 H435 0.962 . S
C422 H436 0.960 . S
C423 C420 1.511 . S
C423 H437 0.961 . S
C423 H438 0.961 . S
C423 H439 0.961 . S
C424 C425 1.370 . S
C424 C426 1.363 . S
C424 H440 0.931 . S
C425 C424 1.370 . S
C425 C429 1.408 . S
C426 C424 1.363 . S
C426 C427 1.370 . S
C426 C430 1.524 . S
C427 C419 1.503 . S
C427 C426 1.370 . S
C427 C428 1.403 . S
C428 C427 1.403 . S
C428 C429 1.404 . S
C428 C431 1.539 . S
C429 C425 1.408 . S
C429 C428 1.404 . S
C429 H441 0.930 . S
C430 C426 1.524 . S
C430 H442 0.956 . S
C430 H443 0.961 . S
C430 H444 0.961 . S
C431 C428 1.539 . S
C431 H445 0.958 . S
C431 H446 0.961 . S
C431 H447 0.960 . S
H432 C416 0.931 . S
H433 C421 0.929 . S
H434 C422 0.960 . S
H435 C422 0.962 . S
H436 C422 0.960 . S
H437 C423 0.961 . S
H438 C423 0.961 . S
H439 C423 0.961 . S
H440 C424 0.931 . S
H441 C429 0.930 . S
H442 C430 0.956 . S
H443 C430 0.961 . S
H444 C430 0.961 . S
H445 C431 0.958 . S
H446 C431 0.961 . S
H447 C431 0.960 . S
C448 C449 1.391 . S
C448 C450 1.394 . S
C448 H464 0.931 . S
C449 C448 1.391 . S
C449 C453 1.376 . S
C450 C448 1.394 . S
C450 C451 1.369 . S
C450 C454 1.531 . S
C451 C450 1.369 . S
C451 C452 1.410 . S
C451 C459 1.503 . S
C452 C451 1.410 . S
C452 C453 1.392 . S
C452 C455 1.511 . S
C453 C449 1.376 . S
C453 C452 1.392 . S
C453 H465 0.929 . S
C454 C450 1.531 . S
C454 H466 0.960 . S
C454 H467 0.962 . S
C454 H468 0.960 . S
C455 C452 1.511 . S
C455 H469 0.961 . S
C455 H470 0.961 . S
C455 H471 0.961 . S
C456 C457 1.370 . S
C456 C458 1.363 . S
C456 H472 0.931 . S
C457 C456 1.370 . S
C457 C461 1.408 . S
C458 C456 1.363 . S
C458 C459 1.370 . S
C458 C462 1.524 . S
C459 C451 1.503 . S
C459 C458 1.370 . S
C459 C460 1.403 . S
C460 C459 1.403 . S
C460 C461 1.404 . S
C460 C463 1.539 . S
C461 C457 1.408 . S
C461 C460 1.404 . S
C461 H473 0.930 . S
C462 C458 1.524 . S
C462 H474 0.956 . S
C462 H475 0.961 . S
C462 H476 0.961 . S
C463 C460 1.539 . S
C463 H477 0.958 . S
C463 H478 0.961 . S
C463 H479 0.960 . S
H464 C448 0.931 . S
H465 C453 0.929 . S
H466 C454 0.960 . S
H467 C454 0.962 . S
H468 C454 0.960 . S
H469 C455 0.961 . S
H470 C455 0.961 . S
H471 C455 0.961 . S
H472 C456 0.931 . S
H473 C461 0.930 . S
H474 C462 0.956 . S
H475 C462 0.961 . S
H476 C462 0.961 . S
H477 C463 0.958 . S
H478 C463 0.961 . S
H479 C463 0.960 . S
C480 C481 1.391 . S
C480 C482 1.394 . S
C480 H496 0.931 . S
C481 C480 1.391 . S
C481 C485 1.376 . S
C482 C480 1.394 . S
C482 C483 1.369 1_455 S
C482 C486 1.531 1_556 S
C483 C482 1.369 1_655 S
C483 C484 1.410 . S
C483 C491 1.503 . S
C484 C483 1.410 . S
C484 C485 1.392 1_655 S
C484 C487 1.511 . S
C485 C481 1.376 . S
C485 C484 1.392 1_455 S
C485 H497 0.929 . S
C486 C482 1.531 1_554 S
C486 H498 0.960 . S
C486 H499 0.962 1_554 S
C486 H500 0.960 . S
C487 C484 1.511 . S
C487 H501 0.961 . S
C487 H502 0.961 . S
C487 H503 0.961 . S
C488 C489 1.370 . S
C488 C490 1.363 . S
C488 H504 0.931 . S
C489 C488 1.370 . S
C489 C493 1.408 1_556 S
C490 C488 1.363 . S
C490 C491 1.370 . S
C490 C494 1.524 . S
C491 C483 1.503 . S
C491 C490 1.370 . S
C491 C492 1.394 1_556 S
C492 C491 1.394 1_554 S
C492 C493 1.408 . S
C492 C495 1.543 . S
C493 C489 1.408 1_554 S
C493 C492 1.408 . S
C493 H505 0.930 . S
C494 C490 1.524 . S
C494 H506 0.956 1_655 S
C494 H507 0.961 . S
C494 H508 0.961 . S
C495 C492 1.543 . S
C495 H509 0.958 . S
C495 H510 0.961 . S
C495 H511 0.960 1_554 S
H496 C480 0.931 . S
H497 C485 0.929 . S
H498 C486 0.960 . S
H499 C486 0.962 1_556 S
H500 C486 0.960 . S
H501 C487 0.961 . S
H502 C487 0.961 . S
H503 C487 0.961 . S
H504 C488 0.931 . S
H505 C493 0.930 . S
H506 C494 0.956 1_455 S
H507 C494 0.961 . S
H508 C494 0.961 . S
H509 C495 0.958 . S
H510 C495 0.961 . S
H511 C495 0.960 1_556 S
C512 C513 1.391 . S
C512 C514 1.394 . S
C512 H528 0.931 . S
C513 C512 1.391 . S
C513 C517 1.376 . S
C514 C512 1.394 . S
C514 C515 1.369 . S
C514 C518 1.531 . S
C515 C514 1.369 . S
C515 C516 1.410 . S
C515 C523 1.503 . S
C516 C515 1.410 . S
C516 C517 1.392 . S
C516 C519 1.511 . S
C517 C513 1.376 . S
C517 C516 1.392 . S
C517 H529 0.929 . S
C518 C514 1.531 . S
C518 H530 0.960 . S
C518 H531 0.962 . S
C518 H532 0.960 . S
C519 C516 1.511 . S
C519 H533 0.961 . S
C519 H534 0.961 . S
C519 H535 0.961 . S
C520 C521 1.370 . S
C520 C522 1.363 . S
C520 H536 0.931 . S
C521 C520 1.370 . S
C521 C525 1.408 . S
C522 C520 1.363 . S
C522 C523 1.370 . S
C522 C526 1.524 . S
C523 C515 1.503 . S
C523 C522 1.370 . S
C523 C524 1.403 . S
C524 C523 1.403 . S
C524 C525 1.404 . S
C524 C527 1.539 . S
C525 C521 1.408 . S
C525 C524 1.404 . S
C525 H537 0.930 . S
C526 C522 1.524 . S
C526 H538 0.956 . S
C526 H539 0.961 . S
C526 H540 0.961 . S
C527 C524 1.539 . S
C527 H541 0.958 . S
C527 H542 0.961 . S
C527 H543 0.960 . S
H528 C512 0.931 . S
H529 C517 0.929 . S
H530 C518 0.960 . S
H531 C518 0.962 . S
H532 C518 0.960 . S
H533 C519 0.961 . S
H534 C519 0.961 . S
H535 C519 0.961 . S
H536 C520 0.931 . S
H537 C525 0.930 . S
H538 C526 0.956 . S
H539 C526 0.961 . S
H540 C526 0.961 . S
H541 C527 0.958 . S
H542 C527 0.961 . S
H543 C527 0.960 . S
C544 C545 1.391 . S
C544 C546 1.394 . S
C544 H560 0.931 . S
C545 C544 1.391 . S
C545 C549 1.376 . S
C546 C544 1.394 . S
C546 C547 1.369 . S
C546 C550 1.531 . S
C547 C546 1.369 . S
C547 C548 1.410 . S
C547 C555 1.503 . S
C548 C547 1.410 . S
C548 C549 1.392 . S
C548 C551 1.511 . S
C549 C545 1.376 . S
C549 C548 1.392 . S
C549 H561 0.929 . S
C550 C546 1.531 . S
C550 H562 0.960 . S
C550 H563 0.962 . S
C550 H564 0.960 . S
C551 C548 1.511 . S
C551 H565 0.961 . S
C551 H566 0.961 . S
C551 H567 0.961 . S
C552 C553 1.370 . S
C552 C554 1.363 . S
C552 H568 0.931 . S
C553 C552 1.370 . S
C553 C557 1.408 . S
C554 C552 1.363 . S
C554 C555 1.370 . S
C554 C558 1.524 . S
C555 C547 1.503 . S
C555 C554 1.370 . S
C555 C556 1.403 . S
C556 C555 1.403 . S
C556 C557 1.404 . S
C556 C559 1.539 . S
C557 C553 1.408 . S
C557 C556 1.404 . S
C557 H569 0.930 . S
C558 C554 1.524 . S
C558 H570 0.956 . S
C558 H571 0.961 . S
C558 H572 0.961 . S
C559 C556 1.539 . S
C559 H573 0.958 . S
C559 H574 0.961 . S
C559 H575 0.960 . S
H560 C544 0.931 . S
H561 C549 0.929 . S
H562 C550 0.960 . S
H563 C550 0.962 . S
H564 C550 0.960 . S
H565 C551 0.961 . S
H566 C551 0.961 . S
H567 C551 0.961 . S
H568 C552 0.931 . S
H569 C557 0.930 . S
H570 C558 0.956 . S
H571 C558 0.961 . S
H572 C558 0.961 . S
H573 C559 0.958 . S
H574 C559 0.961 . S
H575 C559 0.960 . S
C576 C577 1.391 . S
C576 C578 1.394 . S
C576 H592 0.931 . S
C577 C576 1.391 . S
C577 C581 1.376 . S
C578 C576 1.394 . S
C578 C579 1.369 . S
C578 C582 1.531 . S
C579 C578 1.369 . S
C579 C580 1.410 . S
C579 C587 1.503 . S
C580 C579 1.410 . S
C580 C581 1.392 . S
C580 C583 1.511 . S
C581 C577 1.376 . S
C581 C580 1.392 . S
C581 H593 0.929 . S
C582 C578 1.531 . S
C582 H594 0.960 . S
C582 H595 0.962 . S
C582 H596 0.960 . S
C583 C580 1.511 . S
C583 H597 0.961 . S
C583 H598 0.961 . S
C583 H599 0.961 . S
C584 C585 1.370 . S
C584 C586 1.363 . S
C584 H600 0.931 . S
C585 C584 1.370 . S
C585 C589 1.408 . S
C586 C584 1.363 . S
C586 C587 1.370 . S
C586 C590 1.524 . S
C587 C579 1.503 . S
C587 C586 1.370 . S
C587 C588 1.403 . S
C588 C587 1.403 . S
C588 C589 1.404 . S
C588 C591 1.539 . S
C589 C585 1.408 . S
C589 C588 1.404 . S
C589 H601 0.930 . S
C590 C586 1.524 . S
C590 H602 0.956 . S
C590 H603 0.961 . S
C590 H604 0.961 . S
C591 C588 1.539 . S
C591 H605 0.958 . S
C591 H606 0.961 . S
C591 H607 0.960 . S
H592 C576 0.931 . S
H593 C581 0.929 . S
H594 C582 0.960 . S
H595 C582 0.962 . S
H596 C582 0.960 . S
H597 C583 0.961 . S
H598 C583 0.961 . S
H599 C583 0.961 . S
H600 C584 0.931 . S
H601 C589 0.930 . S
H602 C590 0.956 . S
H603 C590 0.961 . S
H604 C590 0.961 . S
H605 C591 0.958 . S
H606 C591 0.961 . S
H607 C591 0.960 . S
C608 C609 1.391 . S
C608 C610 1.407 . S
C608 H624 0.931 . S
C609 C608 1.391 . S
C609 C613 1.376 . S
C610 C608 1.407 . S
C610 C611 1.365 1_455 S
C610 C614 1.522 1_455 S
C611 C610 1.365 1_655 S
C611 C612 1.410 1_655 S
C611 C619 1.503 . S
C612 C611 1.410 1_455 S
C612 C613 1.392 . S
C612 C615 1.511 . S
C613 C609 1.376 . S
C613 C612 1.392 . S
C613 H625 0.929 . S
C614 C610 1.522 1_655 S
C614 H626 0.960 . S
C614 H627 0.962 . S
C614 H628 0.960 . S
C615 C612 1.511 . S
C615 H629 0.961 . S
C615 H630 0.961 1_455 S
C615 H631 0.961 1_455 S
C616 C617 1.370 . S
C616 C618 1.363 . S
C616 H632 0.931 . S
C617 C616 1.370 . S
C617 C621 1.408 . S
C618 C616 1.363 . S
C618 C619 1.370 . S
C618 C622 1.524 1_655 S
C619 C611 1.503 . S
C619 C618 1.370 . S
C619 C620 1.403 . S
C620 C619 1.403 . S
C620 C621 1.404 . S
C620 C623 1.539 . S
C621 C617 1.408 . S
C621 C620 1.404 . S
C621 H633 0.930 . S
C622 C618 1.524 1_455 S
C622 H634 0.956 . S
C622 H635 0.961 . S
C622 H636 0.961 . S
C623 C620 1.539 . S
C623 H637 0.958 . S
C623 H638 0.961 . S
C623 H639 0.960 . S
H624 C608 0.931 . S
H625 C613 0.929 . S
H626 C614 0.960 . S
H627 C614 0.962 . S
H628 C614 0.960 . S
H629 C615 0.961 . S
H630 C615 0.961 1_655 S
H631 C615 0.961 1_655 S
H632 C616 0.931 . S
H633 C621 0.930 . S
H634 C622 0.956 . S
H635 C622 0.961 . S
H636 C622 0.961 . S
H637 C623 0.958 . S
H638 C623 0.961 . S
H639 C623 0.960 . S
C640 C641 1.391 . S
C640 C642 1.394 . S
C640 H656 0.931 . S
C641 C640 1.391 . S
C641 C645 1.376 . S
C642 C640 1.394 . S
C642 C643 1.369 . S
C642 C646 1.531 . S
C643 C642 1.369 . S
C643 C644 1.410 . S
C643 C651 1.503 . S
C644 C643 1.410 . S
C644 C645 1.392 . S
C644 C647 1.511 . S
C645 C641 1.376 . S
C645 C644 1.392 . S
C645 H657 0.929 . S
C646 C642 1.531 . S
C646 H658 0.960 . S
C646 H659 0.962 . S
C646 H660 0.960 . S
C647 C644 1.511 . S
C647 H661 0.961 1_556 S
C647 H662 0.961 1_556 S
C647 H663 0.961 . S
C648 C649 1.370 1_554 S
C648 C650 1.363 1_554 S
C648 H664 0.931 . S
C649 C648 1.370 1_556 S
C649 C653 1.408 . S
C650 C648 1.363 1_556 S
C650 C651 1.370 . S
C650 C654 1.524 1_556 S
C651 C643 1.503 . S
C651 C650 1.370 . S
C651 C652 1.403 . S
C652 C651 1.403 . S
C652 C653 1.404 . S
C652 C655 1.539 . S
C653 C649 1.408 . S
C653 C652 1.404 . S
C653 H665 0.930 . S
C654 C650 1.524 1_554 S
C654 H666 0.956 1_554 S
C654 H667 0.961 . S
C654 H668 0.961 . S
C655 C652 1.539 . S
C655 H669 0.958 . S
C655 H670 0.961 . S
C655 H671 0.960 . S
H656 C640 0.931 . S
H657 C645 0.929 . S
H658 C646 0.960 . S
H659 C646 0.962 . S
H660 C646 0.960 . S
H661 C647 0.961 1_554 S
H662 C647 0.961 1_554 S
H663 C647 0.961 . S
H664 C648 0.931 . S
H665 C653 0.930 . S
H666 C654 0.956 1_556 S
H667 C654 0.961 . S
H668 C654 0.961 . S
H669 C655 0.958 . S
H670 C655 0.961 . S
H671 C655 0.960 . S
C672 C673 1.391 . S
C672 C674 1.394 . S
C672 H688 0.931 . S
C673 C672 1.391 . S
C673 C677 1.376 . S
C674 C672 1.394 . S
C674 C675 1.369 . S
C674 C678 1.531 . S
C675 C674 1.369 . S
C675 C676 1.410 . S
C675 C683 1.503 . S
C676 C675 1.410 . S
C676 C677 1.392 . S
C676 C679 1.511 . S
C677 C673 1.376 . S
C677 C676 1.392 . S
C677 H689 0.929 . S
C678 C674 1.531 . S
C678 H690 0.960 . S
C678 H691 0.962 . S
C678 H692 0.960 . S
C679 C676 1.511 . S
C679 H693 0.961 . S
C679 H694 0.961 . S
C679 H695 0.961 . S
C680 C681 1.370 . S
C680 C682 1.363 . S
C680 H696 0.931 . S
C681 C680 1.370 . S
C681 C685 1.408 . S
C682 C680 1.363 . S
C682 C683 1.370 . S
C682 C686 1.524 . S
C683 C675 1.503 . S
C683 C682 1.370 . S
C683 C684 1.403 . S
C684 C683 1.403 . S
C684 C685 1.404 . S
C684 C687 1.539 . S
C685 C681 1.408 . S
C685 C684 1.404 . S
C685 H697 0.930 . S
C686 C682 1.524 . S
C686 H698 0.956 . S
C686 H699 0.961 . S
C686 H700 0.961 . S
C687 C684 1.539 . S
C687 H701 0.958 . S
C687 H702 0.961 . S
C687 H703 0.960 . S
H688 C672 0.931 . S
H689 C677 0.929 . S
H690 C678 0.960 . S
H691 C678 0.962 . S
H692 C678 0.960 . S
H693 C679 0.961 . S
H694 C679 0.961 . S
H695 C679 0.961 . S
H696 C680 0.931 . S
H697 C685 0.930 . S
H698 C686 0.956 . S
H699 C686 0.961 . S
H700 C686 0.961 . S
H701 C687 0.958 . S
H702 C687 0.961 . S
H703 C687 0.960 . S
C704 C705 1.391 . S
C704 C706 1.394 . S
C704 H720 0.931 . S
C705 C704 1.391 . S
C705 C709 1.376 . S
C706 C704 1.394 . S
C706 C707 1.369 . S
C706 C710 1.531 . S
C707 C706 1.369 . S
C707 C708 1.410 . S
C707 C715 1.503 . S
C708 C707 1.410 . S
C708 C709 1.392 . S
C708 C711 1.511 . S
C709 C705 1.376 . S
C709 C708 1.392 . S
C709 H721 0.929 . S
C710 C706 1.531 . S
C710 H722 0.960 . S
C710 H723 0.962 . S
C710 H724 0.960 . S
C711 C708 1.511 . S
C711 H725 0.961 . S
C711 H726 0.961 . S
C711 H727 0.961 . S
C712 C713 1.370 . S
C712 C714 1.363 . S
C712 H728 0.931 . S
C713 C712 1.370 . S
C713 C717 1.408 . S
C714 C712 1.363 . S
C714 C715 1.370 . S
C714 C718 1.524 . S
C715 C707 1.503 . S
C715 C714 1.370 . S
C715 C716 1.403 . S
C716 C715 1.403 . S
C716 C717 1.404 . S
C716 C719 1.539 . S
C717 C713 1.408 . S
C717 C716 1.404 . S
C717 H729 0.930 . S
C718 C714 1.524 . S
C718 H730 0.956 . S
C718 H731 0.961 . S
C718 H732 0.961 . S
C719 C716 1.539 . S
C719 H733 0.958 . S
C719 H734 0.961 . S
C719 H735 0.960 . S
H720 C704 0.931 . S
H721 C709 0.929 . S
H722 C710 0.960 . S
H723 C710 0.962 . S
H724 C710 0.960 . S
H725 C711 0.961 . S
H726 C711 0.961 . S
H727 C711 0.961 . S
H728 C712 0.931 . S
H729 C717 0.930 . S
H730 C718 0.956 . S
H731 C718 0.961 . S
H732 C718 0.961 . S
H733 C719 0.958 . S
H734 C719 0.961 . S
H735 C719 0.960 . S
C736 C737 1.391 . S
C736 C738 1.394 . S
C736 H752 0.931 . S
C737 C736 1.391 . S
C737 C741 1.376 . S
C738 C736 1.394 . S
C738 C739 1.369 . S
C738 C742 1.531 . S
C739 C738 1.369 . S
C739 C740 1.410 . S
C739 C747 1.503 . S
C740 C739 1.410 . S
C740 C741 1.392 . S
C740 C743 1.511 . S
C741 C737 1.376 . S
C741 C740 1.392 . S
C741 H753 0.929 . S
C742 C738 1.531 . S
C742 H754 0.960 . S
C742 H755 0.962 . S
C742 H756 0.960 . S
C743 C740 1.511 . S
C743 H757 0.961 . S
C743 H758 0.961 . S
C743 H759 0.961 . S
C744 C745 1.370 1_554 S
C744 C746 1.363 . S
C744 H760 0.931 . S
C745 C744 1.370 1_556 S
C745 C749 1.408 . S
C746 C744 1.363 . S
C746 C747 1.370 . S
C746 C750 1.524 . S
C747 C739 1.503 . S
C747 C746 1.370 . S
C747 C748 1.403 1_554 S
C748 C747 1.403 1_556 S
C748 C749 1.404 . S
C748 C751 1.539 . S
C749 C745 1.408 . S
C749 C748 1.404 . S
C749 H761 0.930 . S
C750 C746 1.524 . S
C750 H762 0.956 . S
C750 H763 0.961 . S
C750 H764 0.961 . S
C751 C748 1.539 . S
C751 H765 0.958 . S
C751 H766 0.961 . S
C751 H767 0.960 . S
H752 C736 0.931 . S
H753 C741 0.929 . S
H754 C742 0.960 . S
H755 C742 0.962 . S
H756 C742 0.960 . S
H757 C743 0.961 . S
H758 C743 0.961 . S
H759 C743 0.961 . S
H760 C744 0.931 . S
H761 C749 0.930 . S
H762 C750 0.956 . S
H763 C750 0.961 . S
H764 C750 0.961 . S
H765 C751 0.958 . S
H766 C751 0.961 . S
H767 C751 0.960 . S
C768 C769 1.391 . S
C768 C770 1.394 . S
C768 H784 0.931 . S
C769 C768 1.391 . S
C769 C773 1.376 . S
C770 C768 1.394 . S
C770 C771 1.369 . S
C770 C774 1.531 . S
C771 C770 1.369 . S
C771 C772 1.410 . S
C771 C779 1.503 . S
C772 C771 1.410 . S
C772 C773 1.392 . S
C772 C775 1.511 . S
C773 C769 1.376 . S
C773 C772 1.392 . S
C773 H785 0.929 . S
C774 C770 1.531 . S
C774 H786 0.960 . S
C774 H787 0.962 . S
C774 H788 0.960 . S
C775 C772 1.511 . S
C775 H789 0.961 . S
C775 H790 0.961 . S
C775 H791 0.961 . S
C776 C777 1.370 . S
C776 C778 1.363 . S
C776 H792 0.931 . S
C777 C776 1.370 . S
C777 C781 1.408 . S
C778 C776 1.363 . S
C778 C779 1.370 . S
C778 C782 1.524 . S
C779 C771 1.503 . S
C779 C778 1.370 . S
C779 C780 1.403 . S
C780 C779 1.403 . S
C780 C781 1.404 . S
C780 C783 1.539 . S
C781 C777 1.408 . S
C781 C780 1.404 . S
C781 H793 0.930 . S
C782 C778 1.524 . S
C782 H794 0.956 . S
C782 H795 0.961 . S
C782 H796 0.961 . S
C783 C780 1.539 . S
C783 H797 0.958 . S
C783 H798 0.961 . S
C783 H799 0.960 . S
H784 C768 0.931 . S
H785 C773 0.929 . S
H786 C774 0.960 . S
H787 C774 0.962 . S
H788 C774 0.960 . S
H789 C775 0.961 . S
H790 C775 0.961 . S
H791 C775 0.961 . S
H792 C776 0.931 . S
H793 C781 0.930 . S
H794 C782 0.956 . S
H795 C782 0.961 . S
H796 C782 0.961 . S
H797 C783 0.958 . S
H798 C783 0.961 . S
H799 C783 0.960 . S
C800 C801 1.391 . S
C800 C802 1.394 . S
C800 H816 0.931 . S
C801 C800 1.391 . S
C801 C805 1.376 . S
C802 C800 1.394 . S
C802 C803 1.369 . S
C802 C806 1.531 . S
C803 C802 1.369 . S
C803 C804 1.410 . S
C803 C811 1.503 . S
C804 C803 1.410 . S
C804 C805 1.392 . S
C804 C807 1.511 . S
C805 C801 1.376 . S
C805 C804 1.392 . S
C805 H817 0.929 . S
C806 C802 1.531 . S
C806 H818 0.960 . S
C806 H819 0.962 . S
C806 H820 0.960 . S
C807 C804 1.511 . S
C807 H821 0.961 . S
C807 H822 0.961 . S
C807 H823 0.961 . S
C808 C809 1.370 . S
C808 C810 1.363 . S
C808 H824 0.931 . S
C809 C808 1.370 . S
C809 C813 1.408 . S
C810 C808 1.363 . S
C810 C811 1.370 . S
C810 C814 1.524 . S
C811 C803 1.503 . S
C811 C810 1.370 . S
C811 C812 1.403 . S
C812 C811 1.403 . S
C812 C813 1.404 . S
C812 C815 1.539 . S
C813 C809 1.408 . S
C813 C812 1.404 . S
C813 H825 0.930 . S
C814 C810 1.524 . S
C814 H826 0.956 . S
C814 H827 0.961 . S
C814 H828 0.961 . S
C815 C812 1.539 . S
C815 H829 0.958 . S
C815 H830 0.961 . S
C815 H831 0.960 . S
H816 C800 0.931 . S
H817 C805 0.929 . S
H818 C806 0.960 . S
H819 C806 0.962 . S
H820 C806 0.960 . S
H821 C807 0.961 . S
H822 C807 0.961 . S
H823 C807 0.961 . S
H824 C808 0.931 . S
H825 C813 0.930 . S
H826 C814 0.956 . S
H827 C814 0.961 . S
H828 C814 0.961 . S
H829 C815 0.958 . S
H830 C815 0.961 . S
H831 C815 0.960 . S
C832 C833 1.391 . S
C832 C834 1.394 . S
C832 H848 0.931 . S
C833 C832 1.391 . S
C833 C837 1.376 . S
C834 C832 1.394 . S
C834 C835 1.369 . S
C834 C838 1.531 . S
C835 C834 1.369 . S
C835 C836 1.410 . S
C835 C843 1.503 . S
C836 C835 1.410 . S
C836 C837 1.392 . S
C836 C839 1.511 . S
C837 C833 1.376 . S
C837 C836 1.392 . S
C837 H849 0.929 . S
C838 C834 1.531 . S
C838 H850 0.960 . S
C838 H851 0.962 . S
C838 H852 0.960 . S
C839 C836 1.511 . S
C839 H853 0.961 . S
C839 H854 0.961 . S
C839 H855 0.961 . S
C840 C841 1.370 . S
C840 C842 1.363 . S
C840 H856 0.931 . S
C841 C840 1.370 . S
C841 C845 1.408 . S
C842 C840 1.363 . S
C842 C843 1.370 . S
C842 C846 1.524 . S
C843 C835 1.503 . S
C843 C842 1.370 . S
C843 C844 1.403 . S
C844 C843 1.403 . S
C844 C845 1.404 . S
C844 C847 1.539 . S
C845 C841 1.408 . S
C845 C844 1.404 . S
C845 H857 0.930 . S
C846 C842 1.524 . S
C846 H858 0.956 . S
C846 H859 0.961 . S
C846 H860 0.961 . S
C847 C844 1.539 . S
C847 H861 0.958 . S
C847 H862 0.961 . S
C847 H863 0.960 . S
H848 C832 0.931 . S
H849 C837 0.929 . S
H850 C838 0.960 . S
H851 C838 0.962 . S
H852 C838 0.960 . S
H853 C839 0.961 . S
H854 C839 0.961 . S
H855 C839 0.961 . S
H856 C840 0.931 . S
H857 C845 0.930 . S
H858 C846 0.956 . S
H859 C846 0.961 . S
H860 C846 0.961 . S
H861 C847 0.958 . S
H862 C847 0.961 . S
H863 C847 0.960 . S
C864 C865 1.391 . S
C864 C866 1.394 . S
C864 H880 0.931 . S
C865 C864 1.391 . S
C865 C869 1.376 . S
C866 C864 1.394 . S
C866 C867 1.369 . S
C866 C870 1.531 . S
C867 C866 1.369 . S
C867 C868 1.410 . S
C867 C875 1.503 . S
C868 C867 1.410 . S
C868 C869 1.392 . S
C868 C871 1.511 . S
C869 C865 1.376 . S
C869 C868 1.392 . S
C869 H881 0.929 . S
C870 C866 1.531 . S
C870 H882 0.960 . S
C870 H883 0.962 . S
C870 H884 0.960 . S
C871 C868 1.511 . S
C871 H885 0.961 . S
C871 H886 0.961 . S
C871 H887 0.961 . S
C872 C873 1.370 . S
C872 C874 1.363 . S
C872 H888 0.931 . S
C873 C872 1.370 . S
C873 C877 1.408 . S
C874 C872 1.363 . S
C874 C875 1.370 . S
C874 C878 1.524 . S
C875 C867 1.503 . S
C875 C874 1.370 . S
C875 C876 1.403 . S
C876 C875 1.403 . S
C876 C877 1.404 . S
C876 C879 1.539 . S
C877 C873 1.408 . S
C877 C876 1.404 . S
C877 H889 0.930 . S
C878 C874 1.524 . S
C878 H890 0.956 . S
C878 H891 0.961 . S
C878 H892 0.961 . S
C879 C876 1.539 . S
C879 H893 0.958 . S
C879 H894 0.961 . S
C879 H895 0.960 . S
H880 C864 0.931 . S
H881 C869 0.929 . S
H882 C870 0.960 . S
H883 C870 0.962 . S
H884 C870 0.960 . S
H885 C871 0.961 . S
H886 C871 0.961 . S
H887 C871 0.961 . S
H888 C872 0.931 . S
H889 C877 0.930 . S
H890 C878 0.956 . S
H891 C878 0.961 . S
H892 C878 0.961 . S
H893 C879 0.958 . S
H894 C879 0.961 . S
H895 C879 0.960 . S
C896 C897 1.391 . S
C896 C898 1.394 . S
C896 H912 0.931 . S
C897 C896 1.391 . S
C897 C901 1.376 . S
C898 C896 1.394 . S
C898 C899 1.369 . S
C898 C902 1.531 . S
C899 C898 1.369 . S
C899 C900 1.410 . S
C899 C907 1.503 . S
C900 C899 1.410 . S
C900 C901 1.392 . S
C900 C903 1.511 . S
C901 C897 1.376 . S
C901 C900 1.392 . S
C901 H913 0.929 . S
C902 C898 1.531 . S
C902 H914 0.960 . S
C902 H915 0.962 . S
C902 H916 0.960 . S
C903 C900 1.511 . S
C903 H917 0.961 . S
C903 H918 0.961 . S
C903 H919 0.961 . S
C904 C905 1.370 . S
C904 C906 1.363 . S
C904 H920 0.931 . S
C905 C904 1.370 . S
C905 C909 1.408 . S
C906 C904 1.363 . S
C906 C907 1.370 . S
C906 C910 1.524 . S
C907 C899 1.503 . S
C907 C906 1.370 . S
C907 C908 1.403 . S
C908 C907 1.403 . S
C908 C909 1.404 . S
C908 C911 1.539 . S
C909 C905 1.408 . S
C909 C908 1.404 . S
C909 H921 0.930 . S
C910 C906 1.524 . S
C910 H922 0.956 . S
C910 H923 0.961 . S
C910 H924 0.961 . S
C911 C908 1.539 . S
C911 H925 0.958 . S
C911 H926 0.961 . S
C911 H927 0.960 . S
H912 C896 0.931 . S
H913 C901 0.929 . S
H914 C902 0.960 . S
H915 C902 0.962 . S
H916 C902 0.960 . S
H917 C903 0.961 . S
H918 C903 0.961 . S
H919 C903 0.961 . S
H920 C904 0.931 . S
H921 C909 0.930 . S
H922 C910 0.956 . S
H923 C910 0.961 . S
H924 C910 0.961 . S
H925 C911 0.958 . S
H926 C911 0.961 . S
H927 C911 0.960 . S
C928 C929 1.391 . S
C928 C930 1.394 . S
C928 H944 0.931 . S
C929 C928 1.391 . S
C929 C933 1.376 . S
C930 C928 1.394 . S
C930 C931 1.369 . S
C930 C934 1.531 1_565 S
C931 C930 1.369 . S
C931 C932 1.410 . S
C931 C939 1.503 1_565 S
C932 C931 1.410 . S
C932 C933 1.392 . S
C932 C935 1.511 . S
C933 C929 1.376 . S
C933 C932 1.392 . S
C933 H945 0.929 . S
C934 C930 1.531 1_545 S
C934 H946 0.960 . S
C934 H947 0.962 . S
C934 H948 0.960 . S
C935 C932 1.511 . S
C935 H949 0.961 . S
C935 H950 0.961 . S
C935 H951 0.961 . S
C936 C937 1.370 . S
C936 C938 1.363 . S
C936 H952 0.931 . S
C937 C936 1.370 . S
C937 C941 1.408 . S
C938 C936 1.363 . S
C938 C939 1.370 . S
C938 C942 1.524 1_545 S
C939 C931 1.503 1_545 S
C939 C938 1.370 . S
C939 C940 1.403 . S
C940 C939 1.403 . S
C940 C941 1.404 . S
C940 C943 1.539 . S
C941 C937 1.408 . S
C941 C940 1.404 . S
C941 H953 0.930 . S
C942 C938 1.524 1_565 S
C942 H954 0.956 . S
C942 H955 0.961 . S
C942 H956 0.961 . S
C943 C940 1.539 . S
C943 H957 0.958 . S
C943 H958 0.961 . S
C943 H959 0.960 . S
H944 C928 0.931 . S
H945 C933 0.929 . S
H946 C934 0.960 . S
H947 C934 0.962 . S
H948 C934 0.960 . S
H949 C935 0.961 . S
H950 C935 0.961 . S
H951 C935 0.961 . S
H952 C936 0.931 . S
H953 C941 0.930 . S
H954 C942 0.956 . S
H955 C942 0.961 . S
H956 C942 0.961 . S
H957 C943 0.958 . S
H958 C943 0.961 . S
H959 C943 0.960 . S
C960 C961 1.391 1_554 S
C960 C962 1.394 . S
C960 H976 0.931 . S
C961 C960 1.391 1_556 S
C961 C965 1.376 . S
C962 C960 1.394 . S
C962 C963 1.369 . S
C962 C966 1.531 . S
C963 C962 1.369 . S
C963 C964 1.410 1_554 S
C963 C971 1.503 1_545 S
C964 C963 1.410 1_556 S
C964 C965 1.392 . S
C964 C967 1.511 1_545 S
C965 C961 1.376 . S
C965 C964 1.392 . S
C965 H977 0.929 . S
C966 C962 1.531 . S
C966 H978 0.960 . S
C966 H979 0.962 . S
C966 H980 0.960 . S
C967 C964 1.511 1_565 S
C967 H981 0.961 . S
C967 H982 0.961 . S
C967 H983 0.961 . S
C968 C969 1.370 . S
C968 C970 1.363 . S
C968 H984 0.931 . S
C969 C968 1.370 . S
C969 C973 1.408 . S
C970 C968 1.363 . S
C970 C971 1.370 . S
C970 C974 1.524 . S
C971 C963 1.503 1_565 S
C971 C970 1.370 . S
C971 C972 1.403 . S
C972 C971 1.403 . S
C972 C973 1.404 . S
C972 C975 1.539 1_455 S
C973 C969 1.408 . S
C973 C972 1.404 . S
C973 H985 0.930 . S
C974 C970 1.524 . S
C974 H986 0.956 1_565 S
C974 H987 0.961 . S
C974 H988 0.961 . S
C975 C972 1.539 1_655 S
C975 H989 0.958 . S
C975 H990 0.961 . S
C975 H991 0.960 . S
H976 C960 0.931 . S
H977 C965 0.929 . S
H978 C966 0.960 . S
H979 C966 0.962 . S
H980 C966 0.960 . S
H981 C967 0.961 . S
H982 C967 0.961 . S
H983 C967 0.961 . S
H984 C968 0.931 . S
H985 C973 0.930 . S
H986 C974 0.956 1_545 S
H987 C974 0.961 . S
H988 C974 0.961 . S
H989 C975 0.958 . S
H990 C975 0.961 . S
H991 C975 0.960 . S
C992 C993 1.391 . S
C992 C994 1.394 . S
C992 H1008 0.931 . S
C993 C992 1.391 . S
C993 C997 1.376 . S
C994 C992 1.394 . S
C994 C995 1.369 . S
C994 C998 1.531 . S
C995 C994 1.369 . S
C995 C996 1.410 . S
C995 C1003 1.503 . S
C996 C995 1.410 . S
C996 C997 1.392 . S
C996 C999 1.511 . S
C997 C993 1.376 . S
C997 C996 1.392 . S
C997 H1009 0.929 . S
C998 C994 1.531 . S
C998 H1010 0.960 . S
C998 H1011 0.962 . S
C998 H1012 0.960 . S
C999 C996 1.511 . S
C999 H1013 0.961 . S
C999 H1014 0.961 . S
C999 H1015 0.961 . S
C1000 C1001 1.370 . S
C1000 C1002 1.363 . S
C1000 H1016 0.931 . S
C1001 C1000 1.370 . S
C1001 C1005 1.408 . S
C1002 C1000 1.363 . S
C1002 C1003 1.370 . S
C1002 C1006 1.524 . S
C1003 C995 1.503 . S
C1003 C1002 1.370 . S
C1003 C1004 1.403 . S
C1004 C1003 1.403 . S
C1004 C1005 1.404 . S
C1004 C1007 1.539 . S
C1005 C1001 1.408 . S
C1005 C1004 1.404 . S
C1005 H1017 0.930 . S
C1006 C1002 1.524 . S
C1006 H1018 0.956 . S
C1006 H1019 0.961 . S
C1006 H1020 0.961 . S
C1007 C1004 1.539 . S
C1007 H1021 0.958 . S
C1007 H1022 0.961 . S
C1007 H1023 0.960 . S
H1008 C992 0.931 . S
H1009 C997 0.929 . S
H1010 C998 0.960 . S
H1011 C998 0.962 . S
H1012 C998 0.960 . S
H1013 C999 0.961 . S
H1014 C999 0.961 . S
H1015 C999 0.961 . S
H1016 C1000 0.931 . S
H1017 C1005 0.930 . S
H1018 C1006 0.956 . S
H1019 C1006 0.961 . S
H1020 C1006 0.961 . S
H1021 C1007 0.958 . S
H1022 C1007 0.961 . S
H1023 C1007 0.960 . S
C1024 C1025 1.391 . S
C1024 C1026 1.394 . S
C1024 H1040 0.931 . S
C1025 C1024 1.391 . S
C1025 C1029 1.376 . S
C1026 C1024 1.394 . S
C1026 C1027 1.369 . S
C1026 C1030 1.531 . S
C1027 C1026 1.369 . S
C1027 C1028 1.410 . S
C1027 C1035 1.503 . S
C1028 C1027 1.410 . S
C1028 C1029 1.392 . S
C1028 C1031 1.511 . S
C1029 C1025 1.376 . S
C1029 C1028 1.392 . S
C1029 H1041 0.929 . S
C1030 C1026 1.531 . S
C1030 H1042 0.960 . S
C1030 H1043 0.962 . S
C1030 H1044 0.960 . S
C1031 C1028 1.511 . S
C1031 H1045 0.961 . S
C1031 H1046 0.961 . S
C1031 H1047 0.961 . S
C1032 C1033 1.370 . S
C1032 C1034 1.363 . S
C1032 H1048 0.931 . S
C1033 C1032 1.370 . S
C1033 C1037 1.408 . S
C1034 C1032 1.363 . S
C1034 C1035 1.370 . S
C1034 C1038 1.524 . S
C1035 C1027 1.503 . S
C1035 C1034 1.370 . S
C1035 C1036 1.403 . S
C1036 C1035 1.403 . S
C1036 C1037 1.404 . S
C1036 C1039 1.539 . S
C1037 C1033 1.408 . S
C1037 C1036 1.404 . S
C1037 H1049 0.930 . S
C1038 C1034 1.524 . S
C1038 H1050 0.956 . S
C1038 H1051 0.961 . S
C1038 H1052 0.961 . S
C1039 C1036 1.539 . S
C1039 H1053 0.958 . S
C1039 H1054 0.961 . S
C1039 H1055 0.960 . S
H1040 C1024 0.931 . S
H1041 C1029 0.929 . S
H1042 C1030 0.960 . S
H1043 C1030 0.962 . S
H1044 C1030 0.960 . S
H1045 C1031 0.961 . S
H1046 C1031 0.961 . S
H1047 C1031 0.961 . S
H1048 C1032 0.931 . S
H1049 C1037 0.930 . S
H1050 C1038 0.956 . S
H1051 C1038 0.961 . S
H1052 C1038 0.961 . S
H1053 C1039 0.958 . S
H1054 C1039 0.961 . S
H1055 C1039 0.960 . S
C1056 C1057 1.391 . S
C1056 C1058 1.394 . S
C1056 H1072 0.931 . S
C1057 C1056 1.391 . S
C1057 C1061 1.376 . S
C1058 C1056 1.394 . S
C1058 C1059 1.369 . S
C1058 C1062 1.531 . S
C1059 C1058 1.369 . S
C1059 C1060 1.410 . S
C1059 C1067 1.503 . S
C1060 C1059 1.410 . S
C1060 C1061 1.392 . S
C1060 C1063 1.511 . S
C1061 C1057 1.376 . S
C1061 C1060 1.392 . S
C1061 H1073 0.929 . S
C1062 C1058 1.531 . S
C1062 H1074 0.960 . S
C1062 H1075 0.962 . S
C1062 H1076 0.960 . S
C1063 C1060 1.511 . S
C1063 H1077 0.961 . S
C1063 H1078 0.961 . S
C1063 H1079 0.961 . S
C1064 C1065 1.370 . S
C1064 C1066 1.363 1_556 S
C1064 H1080 0.933 . S
C1065 C1064 1.370 . S
C1065 C1069 1.408 . S
C1066 C1064 1.363 1_554 S
C1066 C1067 1.370 . S
C1066 C1070 1.524 . S
C1067 C1059 1.503 . S
C1067 C1066 1.370 . S
C1067 C1068 1.403 1_554 S
C1068 C1067 1.403 1_556 S
C1068 C1069 1.404 . S
C1068 C1071 1.539 . S
C1069 C1065 1.408 . S
C1069 C1068 1.404 . S
C1069 H1081 0.930 . S
C1070 C1066 1.524 . S
C1070 H1082 0.956 . S
C1070 H1083 0.961 . S
C1070 H1084 0.961 . S
C1071 C1068 1.539 . S
C1071 H1085 0.958 . S
C1071 H1086 0.961 . S
C1071 H1087 0.947 1_556 S
H1072 C1056 0.931 . S
H1073 C1061 0.929 . S
H1074 C1062 0.960 . S
H1075 C1062 0.962 . S
H1076 C1062 0.960 . S
H1077 C1063 0.961 . S
H1078 C1063 0.961 . S
H1079 C1063 0.961 . S
H1080 C1064 0.933 . S
H1081 C1069 0.930 . S
H1082 C1070 0.956 . S
H1083 C1070 0.961 . S
H1084 C1070 0.961 . S
H1085 C1071 0.958 . S
H1086 C1071 0.961 . S
H1087 C1071 0.947 1_554 S
C1088 C1089 1.391 . S
C1088 C1090 1.394 . S
C1088 H1104 0.931 . S
C1089 C1088 1.391 . S
C1089 C1093 1.376 . S
C1090 C1088 1.394 . S
C1090 C1091 1.369 . S
C1090 C1094 1.531 . S
C1091 C1090 1.369 . S
C1091 C1092 1.410 . S
C1091 C1099 1.503 . S
C1092 C1091 1.410 . S
C1092 C1093 1.392 . S
C1092 C1095 1.511 . S
C1093 C1089 1.376 . S
C1093 C1092 1.392 . S
C1093 H1105 0.929 . S
C1094 C1090 1.531 . S
C1094 H1106 0.960 . S
C1094 H1107 0.962 . S
C1094 H1108 0.960 . S
C1095 C1092 1.511 . S
C1095 H1109 0.961 . S
C1095 H1110 0.961 . S
C1095 H1111 0.961 . S
C1096 C1097 1.370 . S
C1096 C1098 1.363 . S
C1096 H1112 0.931 . S
C1097 C1096 1.370 . S
C1097 C1101 1.408 . S
C1098 C1096 1.363 . S
C1098 C1099 1.370 . S
C1098 C1102 1.524 . S
C1099 C1091 1.503 . S
C1099 C1098 1.370 . S
C1099 C1100 1.403 . S
C1100 C1099 1.403 . S
C1100 C1101 1.404 . S
C1100 C1103 1.539 . S
C1101 C1097 1.408 . S
C1101 C1100 1.404 . S
C1101 H1113 0.930 . S
C1102 C1098 1.524 . S
C1102 H1114 0.956 . S
C1102 H1115 0.961 . S
C1102 H1116 0.961 . S
C1103 C1100 1.539 . S
C1103 H1117 0.958 . S
C1103 H1118 0.961 . S
C1103 H1119 0.960 . S
H1104 C1088 0.931 . S
H1105 C1093 0.929 . S
H1106 C1094 0.960 . S
H1107 C1094 0.962 . S
H1108 C1094 0.960 . S
H1109 C1095 0.961 . S
H1110 C1095 0.961 . S
H1111 C1095 0.961 . S
H1112 C1096 0.931 . S
H1113 C1101 0.930 . S
H1114 C1102 0.956 . S
H1115 C1102 0.961 . S
H1116 C1102 0.961 . S
H1117 C1103 0.958 . S
H1118 C1103 0.961 . S
H1119 C1103 0.960 . S
C1120 C1121 1.391 . S
C1120 C1122 1.394 . S
C1120 H1136 0.931 . S
C1121 C1120 1.391 . S
C1121 C1125 1.376 . S
C1122 C1120 1.394 . S
C1122 C1123 1.369 . S
C1122 C1126 1.531 . S
C1123 C1122 1.369 . S
C1123 C1124 1.410 . S
C1123 C1131 1.503 . S
C1124 C1123 1.410 . S
C1124 C1125 1.392 . S
C1124 C1127 1.511 . S
C1125 C1121 1.376 . S
C1125 C1124 1.392 . S
C1125 H1137 0.929 . S
C1126 C1122 1.531 . S
C1126 H1138 0.960 . S
C1126 H1139 0.962 . S
C1126 H1140 0.960 . S
C1127 C1124 1.511 . S
C1127 H1141 0.961 . S
C1127 H1142 0.961 . S
C1127 H1143 0.961 . S
C1128 C1129 1.370 . S
C1128 C1130 1.363 . S
C1128 H1144 0.931 . S
C1129 C1128 1.370 . S
C1129 C1133 1.408 . S
C1130 C1128 1.363 . S
C1130 C1131 1.370 . S
C1130 C1134 1.524 . S
C1131 C1123 1.503 . S
C1131 C1130 1.370 . S
C1131 C1132 1.403 . S
C1132 C1131 1.403 . S
C1132 C1133 1.404 . S
C1132 C1135 1.539 . S
C1133 C1129 1.408 . S
C1133 C1132 1.404 . S
C1133 H1145 0.930 . S
C1134 C1130 1.524 . S
C1134 H1146 0.956 . S
C1134 H1147 0.961 . S
C1134 H1148 0.961 . S
C1135 C1132 1.539 . S
C1135 H1149 0.958 . S
C1135 H1150 0.961 . S
C1135 H1151 0.960 . S
H1136 C1120 0.931 . S
H1137 C1125 0.929 . S
H1138 C1126 0.960 . S
H1139 C1126 0.962 . S
H1140 C1126 0.960 . S
H1141 C1127 0.961 . S
H1142 C1127 0.961 . S
H1143 C1127 0.961 . S
H1144 C1128 0.931 . S
H1145 C1133 0.930 . S
H1146 C1134 0.956 . S
H1147 C1134 0.961 . S
H1148 C1134 0.961 . S
H1149 C1135 0.958 . S
H1150 C1135 0.961 . S
H1151 C1135 0.960 . S
C1152 C1153 1.391 . S
C1152 C1154 1.394 . S
C1152 H1168 0.931 . S
C1153 C1152 1.391 . S
C1153 C1157 1.376 . S
C1154 C1152 1.394 . S
C1154 C1155 1.369 . S
C1154 C1158 1.531 . S
C1155 C1154 1.369 . S
C1155 C1156 1.410 . S
C1155 C1163 1.503 . S
C1156 C1155 1.410 . S
C1156 C1157 1.392 . S
C1156 C1159 1.511 . S
C1157 C1153 1.376 . S
C1157 C1156 1.392 . S
C1157 H1169 0.929 . S
C1158 C1154 1.531 . S
C1158 H1170 0.960 . S
C1158 H1171 0.962 . S
C1158 H1172 0.960 . S
C1159 C1156 1.511 . S
C1159 H1173 0.961 . S
C1159 H1174 0.961 . S
C1159 H1175 0.961 . S
C1160 C1161 1.370 . S
C1160 C1162 1.363 . S
C1160 H1176 0.931 . S
C1161 C1160 1.370 . S
C1161 C1165 1.408 . S
C1162 C1160 1.363 . S
C1162 C1163 1.370 . S
C1162 C1166 1.524 . S
C1163 C1155 1.503 . S
C1163 C1162 1.370 . S
C1163 C1164 1.403 . S
C1164 C1163 1.403 . S
C1164 C1165 1.404 . S
C1164 C1167 1.539 . S
C1165 C1161 1.408 . S
C1165 C1164 1.404 . S
C1165 H1177 0.930 . S
C1166 C1162 1.524 . S
C1166 H1178 0.956 . S
C1166 H1179 0.961 . S
C1166 H1180 0.961 . S
C1167 C1164 1.539 . S
C1167 H1181 0.958 . S
C1167 H1182 0.961 . S
C1167 H1183 0.960 . S
H1168 C1152 0.931 . S
H1169 C1157 0.929 . S
H1170 C1158 0.960 . S
H1171 C1158 0.962 . S
H1172 C1158 0.960 . S
H1173 C1159 0.961 . S
H1174 C1159 0.961 . S
H1175 C1159 0.961 . S
H1176 C1160 0.931 . S
H1177 C1165 0.930 . S
H1178 C1166 0.956 . S
H1179 C1166 0.961 . S
H1180 C1166 0.961 . S
H1181 C1167 0.958 . S
H1182 C1167 0.961 . S
H1183 C1167 0.960 . S
C1184 C1185 1.391 . S
C1184 C1186 1.394 . S
C1184 H1200 0.931 . S
C1185 C1184 1.391 . S
C1185 C1189 1.376 . S
C1186 C1184 1.394 . S
C1186 C1187 1.369 . S
C1186 C1190 1.531 . S
C1187 C1186 1.369 . S
C1187 C1188 1.410 . S
C1187 C1195 1.503 1_565 S
C1188 C1187 1.410 . S
C1188 C1189 1.392 . S
C1188 C1191 1.511 . S
C1189 C1185 1.376 . S
C1189 C1188 1.392 . S
C1189 H1201 0.929 . S
C1190 C1186 1.531 . S
C1190 H1202 0.960 . S
C1190 H1203 0.962 1_565 S
C1190 H1204 0.960 . S
C1191 C1188 1.511 . S
C1191 H1205 0.961 . S
C1191 H1206 0.961 . S
C1191 H1207 0.961 . S
C1192 C1193 1.370 . S
C1192 C1194 1.363 1_556 S
C1192 H1208 0.931 1_556 S
C1193 C1192 1.370 . S
C1193 C1197 1.408 . S
C1194 C1192 1.363 1_554 S
C1194 C1195 1.370 . S
C1194 C1198 1.524 . S
C1195 C1187 1.503 1_545 S
C1195 C1194 1.370 . S
C1195 C1196 1.403 1_544 S
C1196 C1195 1.403 1_566 S
C1196 C1197 1.404 1_565 S
C1196 C1199 1.539 . S
C1197 C1193 1.408 . S
C1197 C1196 1.404 1_545 S
C1197 H1209 0.930 . S
C1198 C1194 1.524 . S
C1198 H1210 0.956 . S
C1198 H1211 0.961 . S
C1198 H1212 0.961 . S
C1199 C1196 1.539 . S
C1199 H1213 0.958 . S
C1199 H1214 0.961 . S
C1199 H1215 0.960 . S
H1200 C1184 0.931 . S
H1201 C1189 0.929 . S
H1202 C1190 0.960 . S
H1203 C1190 0.962 1_545 S
H1204 C1190 0.960 . S
H1205 C1191 0.961 . S
H1206 C1191 0.961 . S
H1207 C1191 0.961 . S
H1208 C1192 0.931 1_554 S
H1209 C1197 0.930 . S
H1210 C1198 0.956 . S
H1211 C1198 0.961 . S
H1212 C1198 0.961 . S
H1213 C1199 0.958 . S
H1214 C1199 0.961 . S
H1215 C1199 0.960 . S
C1216 C1217 1.391 . S
C1216 C1218 1.394 . S
C1216 H1232 0.931 . S
C1217 C1216 1.391 . S
C1217 C1221 1.376 . S
C1218 C1216 1.394 . S
C1218 C1219 1.369 . S
C1218 C1222 1.531 . S
C1219 C1218 1.369 . S
C1219 C1220 1.410 . S
C1219 C1227 1.503 1_545 S
C1220 C1219 1.410 . S
C1220 C1221 1.392 . S
C1220 C1223 1.493 1_545 S
C1221 C1217 1.376 . S
C1221 C1220 1.392 . S
C1221 H1233 0.929 . S
C1222 C1218 1.531 . S
C1222 H1234 0.960 . S
C1222 H1235 0.962 . S
C1222 H1236 0.960 . S
C1223 C1220 1.493 1_565 S
C1223 H1237 0.968 . S
C1223 H1238 0.992 . S
C1223 H1239 0.943 1_565 S
C1224 C1225 1.370 . S
C1224 C1226 1.363 . S
C1224 H1240 0.931 . S
C1225 C1224 1.370 . S
C1225 C1229 1.408 . S
C1226 C1224 1.363 . S
C1226 C1227 1.370 . S
C1226 C1230 1.524 . S
C1227 C1219 1.503 1_565 S
C1227 C1226 1.370 . S
C1227 C1228 1.394 1_565 S
C1228 C1227 1.394 1_545 S
C1228 C1229 1.381 1_545 S
C1228 C1231 1.570 . S
C1229 C1225 1.408 . S
C1229 C1228 1.381 1_565 S
C1229 H1241 0.930 . S
C1230 C1226 1.524 . S
C1230 H1242 0.956 . S
C1230 H1243 0.961 . S
C1230 H1244 0.961 . S
C1231 C1228 1.570 . S
C1231 H1245 0.958 . S
C1231 H1246 0.961 . S
C1231 H1247 0.960 . S
H1232 C1216 0.931 . S
H1233 C1221 0.929 . S
H1234 C1222 0.960 . S
H1235 C1222 0.962 . S
H1236 C1222 0.960 . S
H1237 C1223 0.968 . S
H1238 C1223 0.992 . S
H1239 C1223 0.943 1_545 S
H1240 C1224 0.931 . S
H1241 C1229 0.930 . S
H1242 C1230 0.956 . S
H1243 C1230 0.961 . S
H1244 C1230 0.961 . S
H1245 C1231 0.958 . S
H1246 C1231 0.961 . S
H1247 C1231 0.960 . S
C225 C135 1.334 . S
C233 C9 1.331 . S
C257 C205 1.306 . S
C265 C23 1.322 . S
C289 C37 1.322 . S
C297 C121 1.327 . S
C321 C51 1.332 . S
C329 C219 1.337 . S
C353 C65 1.333 . S
C361 C149 1.331 . S
C385 C191 1.321 . S
C393 C79 1.326 . S
C417 C163 1.323 . S
C425 C93 1.327 . S
C449 C107 1.305 . S
C457 C177 1.322 . S
C481 C63 1.607 . S
C489 C49 1.646 1_556 S
C513 C175 1.610 . S
C521 C119 1.654 . S
C545 C91 1.597 . S
C553 C21 1.655 . S
C577 C133 1.666 . S
C585 C189 1.631 . S
C609 C7 1.653 . S
C617 C77 1.627 . S
C641 C217 1.663 . S
C649 C147 1.633 1_556 S
C673 C105 1.673 . S
C681 C35 1.624 . S
C705 C161 1.596 . S
C713 C203 1.654 . S
C737 C8 1.238 . S
C745 C64 1.216 . S
C769 C78 1.211 . S
C777 C22 1.221 . S
C801 C92 1.207 . S
C809 C36 1.223 . S
C833 C50 1.232 . S
C841 C106 1.215 . S
C865 C148 1.213 . S
C873 C120 1.221 . S
C897 C162 1.238 . S
C905 C134 1.215 . S
C929 C204 1.201 . S
C937 C176 1.227 . S
C961 C218 1.221 . S
C969 C190 1.225 . S
C993 C62 1.533 . S
C1001 C6 1.545 . S
C1025 C76 1.520 . S
C1033 C20 1.540 . S
C1057 C90 1.563 . S
C1065 C34 1.557 . S
C1089 C48 1.573 . S
C1097 C104 1.561 . S
C1121 C118 1.534 . S
C1129 C146 1.545 . S
C1153 C160 1.525 . S
C1161 C132 1.541 . S
C1185 C202 1.544 . S
C1193 C174 1.549 . S
C1217 C216 1.560 . S
C1225 C188 1.556 . S
