# Generated by pormake.
# Topology wgb, (5)-cn, num edge types: 1
# Building blocks:
#     Node 0, Type 0, BuildingBlock: BEQFEK_clean_sbu_0, # of connection points: 5
#     Node 1, Type 0, BuildingBlock: BEQFEK_clean_sbu_0, # of connection points: 5
#     Node 2, Type 0, BuildingBlock: BEQFEK_clean_sbu_0, # of connection points: 5
#     Node 3, Type 0, BuildingBlock: BEQFEK_clean_sbu_0, # of connection points: 5
#     Node 4, Type 0, BuildingBlock: BEQFEK_clean_sbu_0, # of connection points: 5
#     Node 5, Type 0, BuildingBlock: BEQFEK_clean_sbu_0, # of connection points: 5
#     Node 6, Type 0, BuildingBlock: BEQFEK_clean_sbu_0, # of connection points: 5
#     Node 7, Type 0, BuildingBlock: BEQFEK_clean_sbu_0, # of connection points: 5
#     Node 8, Type 0, BuildingBlock: BEQFEK_clean_sbu_0, # of connection points: 5
#     Node 9, Type 0, BuildingBlock: BEQFEK_clean_sbu_0, # of connection points: 5
#     Node 10, Type 0, BuildingBlock: BEQFEK_clean_sbu_0, # of connection points: 5
#     Node 11, Type 0, BuildingBlock: BEQFEK_clean_sbu_0, # of connection points: 5
#     Node 12, Type 0, BuildingBlock: BEQFEK_clean_sbu_0, # of connection points: 5
#     Node 13, Type 0, BuildingBlock: BEQFEK_clean_sbu_0, # of connection points: 5
#     Node 14, Type 0, BuildingBlock: BEQFEK_clean_sbu_0, # of connection points: 5
#     Node 15, Type 0, BuildingBlock: BEQFEK_clean_sbu_0, # of connection points: 5
#     Edge 16, Type (0, 0), BuildingBlock: MIFKUJ_clean_linker_0, # of connection points: 2
#     Edge 17, Type (0, 0), BuildingBlock: MIFKUJ_clean_linker_0, # of connection points: 2
#     Edge 18, Type (0, 0), BuildingBlock: MIFKUJ_clean_linker_0, # of connection points: 2
#     Edge 19, Type (0, 0), BuildingBlock: MIFKUJ_clean_linker_0, # of connection points: 2
#     Edge 20, Type (0, 0), BuildingBlock: MIFKUJ_clean_linker_0, # of connection points: 2
#     Edge 21, Type (0, 0), BuildingBlock: MIFKUJ_clean_linker_0, # of connection points: 2
#     Edge 22, Type (0, 0), BuildingBlock: MIFKUJ_clean_linker_0, # of connection points: 2
#     Edge 23, Type (0, 0), BuildingBlock: MIFKUJ_clean_linker_0, # of connection points: 2
#     Edge 24, Type (0, 0), BuildingBlock: MIFKUJ_clean_linker_0, # of connection points: 2
#     Edge 25, Type (0, 0), BuildingBlock: MIFKUJ_clean_linker_0, # of connection points: 2
#     Edge 26, Type (0, 0), BuildingBlock: MIFKUJ_clean_linker_0, # of connection points: 2
#     Edge 27, Type (0, 0), BuildingBlock: MIFKUJ_clean_linker_0, # of connection points: 2
#     Edge 28, Type (0, 0), BuildingBlock: MIFKUJ_clean_linker_0, # of connection points: 2
#     Edge 29, Type (0, 0), BuildingBlock: MIFKUJ_clean_linker_0, # of connection points: 2
#     Edge 30, Type (0, 0), BuildingBlock: MIFKUJ_clean_linker_0, # of connection points: 2
#     Edge 31, Type (0, 0), BuildingBlock: MIFKUJ_clean_linker_0, # of connection points: 2
#     Edge 32, Type (0, 0), BuildingBlock: MIFKUJ_clean_linker_0, # of connection points: 2
#     Edge 33, Type (0, 0), BuildingBlock: MIFKUJ_clean_linker_0, # of connection points: 2
#     Edge 34, Type (0, 0), BuildingBlock: MIFKUJ_clean_linker_0, # of connection points: 2
#     Edge 35, Type (0, 0), BuildingBlock: MIFKUJ_clean_linker_0, # of connection points: 2
#     Edge 36, Type (0, 0), BuildingBlock: MIFKUJ_clean_linker_0, # of connection points: 2
#     Edge 37, Type (0, 0), BuildingBlock: MIFKUJ_clean_linker_0, # of connection points: 2
#     Edge 38, Type (0, 0), BuildingBlock: MIFKUJ_clean_linker_0, # of connection points: 2
#     Edge 39, Type (0, 0), BuildingBlock: MIFKUJ_clean_linker_0, # of connection points: 2
#     Edge 40, Type (0, 0), BuildingBlock: MIFKUJ_clean_linker_0, # of connection points: 2
#     Edge 41, Type (0, 0), BuildingBlock: MIFKUJ_clean_linker_0, # of connection points: 2
#     Edge 42, Type (0, 0), BuildingBlock: MIFKUJ_clean_linker_0, # of connection points: 2
#     Edge 43, Type (0, 0), BuildingBlock: MIFKUJ_clean_linker_0, # of connection points: 2
#     Edge 44, Type (0, 0), BuildingBlock: MIFKUJ_clean_linker_0, # of connection points: 2
#     Edge 45, Type (0, 0), BuildingBlock: MIFKUJ_clean_linker_0, # of connection points: 2
#     Edge 46, Type (0, 0), BuildingBlock: MIFKUJ_clean_linker_0, # of connection points: 2
#     Edge 47, Type (0, 0), BuildingBlock: MIFKUJ_clean_linker_0, # of connection points: 2
#     Edge 48, Type (0, 0), BuildingBlock: MIFKUJ_clean_linker_0, # of connection points: 2
#     Edge 49, Type (0, 0), BuildingBlock: MIFKUJ_clean_linker_0, # of connection points: 2
#     Edge 50, Type (0, 0), BuildingBlock: MIFKUJ_clean_linker_0, # of connection points: 2
#     Edge 51, Type (0, 0), BuildingBlock: MIFKUJ_clean_linker_0, # of connection points: 2
#     Edge 52, Type (0, 0), BuildingBlock: MIFKUJ_clean_linker_0, # of connection points: 2
#     Edge 53, Type (0, 0), BuildingBlock: MIFKUJ_clean_linker_0, # of connection points: 2
#     Edge 54, Type (0, 0), BuildingBlock: MIFKUJ_clean_linker_0, # of connection points: 2
#     Edge 55, Type (0, 0), BuildingBlock: MIFKUJ_clean_linker_0, # of connection points: 2
# Relax obj value: 0.132
# Max RMSD: 0.138
# Mean RMSD: 0.138
data_MOF--net-wgb--node1-BEQFEK_clean_sbu_0--edge1-MIFKUJ_clean_linker_0
_symmetry_space_group_name_H-M    P1
_symmetry_Int_Tables_number       1
_symmetry_cell_setting            triclinic
loop_
_symmetry_equiv_pos_as_xyz
'x, y, z'
_cell_length_a     80.302216
_cell_length_b     80.257227
_cell_length_c     26.231714
_cell_angle_alpha  90.06241
_cell_angle_beta   90.02598
_cell_angle_gamma 90.00669
loop_
_atom_site_label
_atom_site_type_symbol
_atom_site_fract_x
_atom_site_fract_y
_atom_site_fract_z
_atom_type_partial_charge
Co0 Co 0.34328 0.07398 0.12689 0.0
Co1 Co 0.33979 0.11311 0.1281 0.0
C2 C 0.32354 0.0933 0.046 0.0
O3 O 0.32912 0.07979 0.06556 0.0
O4 O 0.32732 0.1075 0.06484 0.0
C5 C 0.35814 0.04096 0.10148 0.0
O6 O 0.36586 0.04785 0.06272 0.0
C7 C 0.34037 0.15021 0.11332 0.0
C8 C 0.34279 0.15786 0.194 0.0
C9 C 0.34184 0.1641 0.14495 0.0
N10 N 0.34059 0.13645 0.14272 0.0
N11 N 0.34187 0.1412 0.19082 0.0
C12 C 0.33987 0.14983 0.05638 0.0
H13 H 0.34464 0.13772 0.04204 0.0
H14 H 0.3473 0.16023 0.04026 0.0
H15 H 0.32677 0.15123 0.04357 0.0
C16 C 0.37857 0.08356 0.14948 0.0
N17 N 0.36294 0.08731 0.13413 0.0
N18 N 0.36155 0.10363 0.13065 0.0
C19 C 0.37643 0.11067 0.1413 0.0
C20 C 0.38767 0.09823 0.15407 0.0
C21 C 0.38426 0.06644 0.16396 0.0
H22 H 0.37416 0.05975 0.18425 0.0
H23 H 0.38744 0.05943 0.12889 0.0
H24 H 0.39555 0.06676 0.18825 0.0
O25 O 0.32921 0.07721 0.18724 0.0
O26 O 0.32634 0.10461 0.18517 0.0
H27 H 0.37451 0.13335 0.18356 0.0
H28 H 0.39265 0.13225 0.14391 0.0
C29 C 0.37924 0.12905 0.14611 0.0
H30 H 0.37253 0.1357 0.11537 0.0
H31 H 0.34239 0.133 0.22159 0.0
O32 O 0.34857 0.04973 0.12921 0.0
C33 C 0.32316 0.09058 0.2053 0.0
Co34 Co 0.07364 0.66149 0.87682 0.0
Co35 Co 0.11113 0.67084 0.85389 0.0
C36 C 0.09279 0.68357 0.94802 0.0
O37 O 0.07955 0.67528 0.93827 0.0
O38 O 0.10556 0.68265 0.91902 0.0
C39 C 0.03772 0.66015 0.88217 0.0
O40 O 0.03895 0.67634 0.88856 0.0
C41 C 0.14825 0.67238 0.86262 0.0
C42 C 0.15464 0.67924 0.78345 0.0
C43 C 0.16169 0.67571 0.83041 0.0
N44 N 0.13407 0.67377 0.83546 0.0
N45 N 0.13805 0.67792 0.78829 0.0
C46 C 0.14867 0.66865 0.91845 0.0
H47 H 0.13653 0.67168 0.93631 0.0
H48 H 0.15105 0.65515 0.92399 0.0
H49 H 0.15878 0.67578 0.93738 0.0
C50 C 0.08715 0.62779 0.85344 0.0
N51 N 0.08941 0.64416 0.86294 0.0
N52 N 0.10509 0.64798 0.85407 0.0
C53 C 0.11325 0.63416 0.83855 0.0
C54 C 0.10215 0.62087 0.83763 0.0
C55 C 0.07067 0.61915 0.85644 0.0
H56 H 0.06446 0.62236 0.89291 0.0
H57 H 0.07208 0.60542 0.85381 0.0
H58 H 0.06265 0.62354 0.82473 0.0
O59 O 0.0722 0.67725 0.81879 0.0
O60 O 0.09866 0.68222 0.79971 0.0
H61 H 0.1316 0.6436 0.78707 0.0
H62 H 0.13435 0.62191 0.80265 0.0
C63 C 0.13064 0.63424 0.81798 0.0
H64 H 0.13939 0.63786 0.84875 0.0
H65 H 0.1294 0.67978 0.75913 0.0
O66 O 0.05093 0.65145 0.88019 0.0
C67 C 0.08322 0.68419 0.79125 0.0
Co68 Co 0.6587 0.93011 0.12281 0.0
Co69 Co 0.66674 0.89176 0.13218 0.0
C70 C 0.68023 0.91159 0.04519 0.0
O71 O 0.67314 0.92491 0.0613 0.0
O72 O 0.67823 0.89767 0.06797 0.0
C73 C 0.65763 0.96624 0.12077 0.0
O74 O 0.67382 0.96519 0.11427 0.0
C75 C 0.66951 0.85479 0.12126 0.0
C76 C 0.66901 0.84776 0.20275 0.0
C77 C 0.66965 0.84116 0.15405 0.0
N78 N 0.66867 0.86875 0.14963 0.0
N79 N 0.66858 0.86442 0.19822 0.0
C80 C 0.66883 0.85463 0.06431 0.0
H81 H 0.66306 0.86628 0.04996 0.0
H82 H 0.66171 0.84365 0.05047 0.0
H83 H 0.68169 0.85383 0.04911 0.0
C84 C 0.62495 0.91692 0.14726 0.0
N85 N 0.64094 0.91456 0.133 0.0
N86 N 0.6442 0.89851 0.13353 0.0
C87 C 0.63031 0.89013 0.14664 0.0
C88 C 0.61769 0.90147 0.15676 0.0
C89 C 0.61774 0.93367 0.15916 0.0
H90 H 0.62612 0.9403 0.186 0.0
H91 H 0.61703 0.94111 0.1236 0.0
H92 H 0.60517 0.93277 0.17634 0.0
O93 O 0.67368 0.93003 0.1825 0.0
O94 O 0.67887 0.90297 0.18745 0.0
H95 H 0.63477 0.8677 0.18844 0.0
H96 H 0.61613 0.86726 0.15014 0.0
C97 C 0.62926 0.87157 0.15155 0.0
H98 H 0.63629 0.86557 0.12019 0.0
H99 H 0.66781 0.87286 0.2284 0.0
O100 O 0.649 0.95296 0.12159 0.0
C101 C 0.68084 0.91775 0.20377 0.0
Co102 Co 0.93236 0.34425 0.8768 0.0
Co103 Co 0.89419 0.33553 0.86483 0.0
C104 C 0.91378 0.32316 0.9546 0.0
O105 O 0.92716 0.33012 0.93861 0.0
O106 O 0.89996 0.32494 0.93101 0.0
C107 C 0.96869 0.34672 0.88711 0.0
O108 O 0.96825 0.33121 0.90301 0.0
C109 C 0.85718 0.33451 0.87607 0.0
C110 C 0.85005 0.33007 0.79578 0.0
C111 C 0.8435 0.33283 0.84383 0.0
N112 N 0.87113 0.33298 0.84793 0.0
N113 N 0.86672 0.33011 0.80017 0.0
C114 C 0.85715 0.33886 0.93149 0.0
H115 H 0.86923 0.34454 0.94258 0.0
H116 H 0.84677 0.34753 0.9403 0.0
H117 H 0.85536 0.32732 0.95409 0.0
C118 C 0.91896 0.37799 0.85425 0.0
N119 N 0.91664 0.36176 0.8656 0.0
N120 N 0.9007 0.35822 0.86122 0.0
C121 C 0.89239 0.37211 0.84723 0.0
C122 C 0.9037 0.38511 0.84217 0.0
C123 C 0.93563 0.38628 0.85211 0.0
H124 H 0.94256 0.38373 0.88783 0.0
H125 H 0.93446 0.39996 0.84705 0.0
H126 H 0.94284 0.38101 0.81985 0.0
O127 O 0.93265 0.32888 0.81788 0.0
O128 O 0.90585 0.32265 0.81199 0.0
H129 H 0.87235 0.36358 0.80035 0.0
H130 H 0.87021 0.38492 0.82029 0.0
C131 C 0.87439 0.37237 0.83236 0.0
H132 H 0.86672 0.36825 0.86511 0.0
H133 H 0.87512 0.32865 0.77019 0.0
O134 O 0.95511 0.35423 0.87757 0.0
C135 C 0.92079 0.32093 0.79687 0.0
Co136 Co 0.34453 0.43107 0.12532 0.0
Co137 Co 0.33684 0.39272 0.11034 0.0
C138 C 0.32319 0.41203 0.20013 0.0
O139 O 0.33048 0.42549 0.18649 0.0
O140 O 0.32505 0.39852 0.17492 0.0
C141 C 0.36048 0.4643 0.15269 0.0
O142 O 0.36657 0.45863 0.19581 0.0
C143 C 0.33607 0.35551 0.12173 0.0
C144 C 0.33003 0.34857 0.04229 0.0
C145 C 0.33317 0.34187 0.08991 0.0
N146 N 0.33478 0.36952 0.09372 0.0
N147 N 0.33115 0.3652 0.04636 0.0
C148 C 0.3393 0.35541 0.17787 0.0
H149 H 0.33591 0.36758 0.19499 0.0
H150 H 0.35277 0.35326 0.18464 0.0
H151 H 0.33219 0.34524 0.19654 0.0
C152 C 0.37879 0.41859 0.10167 0.0
N153 N 0.36266 0.41592 0.11378 0.0
N154 N 0.35942 0.3999 0.10872 0.0
C155 C 0.37338 0.39192 0.09374 0.0
C156 C 0.38614 0.40348 0.08864 0.0
C157 C 0.38675 0.43543 0.09988 0.0
H158 H 0.38665 0.44089 0.13866 0.0
H159 H 0.39985 0.43484 0.08664 0.0
H160 H 0.37948 0.44371 0.07436 0.0
O161 O 0.32946 0.43066 0.06612 0.0
O162 O 0.32463 0.40376 0.05503 0.0
H163 H 0.3863 0.37011 0.06434 0.0
H164 H 0.36983 0.36604 0.10944 0.0
C165 C 0.37377 0.37405 0.07726 0.0
H166 H 0.36488 0.37222 0.04542 0.0
H167 H 0.32947 0.37362 0.01661 0.0
O168 O 0.35197 0.45477 0.12402 0.0
C169 C 0.32256 0.41883 0.04189 0.0
Co170 Co 0.42926 0.66192 0.8756 0.0
Co171 Co 0.39051 0.66881 0.87908 0.0
C172 C 0.4109 0.68169 0.79293 0.0
O173 O 0.42422 0.6755 0.81216 0.0
O174 O 0.39669 0.67933 0.81358 0.0
C175 C 0.46582 0.6608 0.86908 0.0
O176 O 0.46504 0.67616 0.85195 0.0
C177 C 0.35344 0.67008 0.86508 0.0
C178 C 0.34584 0.67019 0.94609 0.0
C179 C 0.33956 0.67004 0.89696 0.0
N180 N 0.36722 0.6701 0.89441 0.0
N181 N 0.36252 0.67037 0.94267 0.0
C182 C 0.3537 0.66878 0.80824 0.0
H183 H 0.3657 0.6634 0.79516 0.0
H184 H 0.34316 0.66103 0.79451 0.0
H185 H 0.35242 0.68143 0.7917 0.0
C186 C 0.41697 0.62822 0.90349 0.0
N187 N 0.41421 0.64387 0.88666 0.0
N188 N 0.39806 0.64652 0.88471 0.0
C189 C 0.39004 0.63247 0.89835 0.0
C190 C 0.4017 0.62042 0.91164 0.0
C191 C 0.43379 0.62204 0.91925 0.0
H192 H 0.44 0.63166 0.94296 0.0
H193 H 0.44152 0.61998 0.88476 0.0
H194 H 0.43309 0.61032 0.94144 0.0
O195 O 0.42798 0.67746 0.93342 0.0
O196 O 0.40086 0.68253 0.933 0.0
H197 H 0.36662 0.63627 0.9353 0.0
H198 H 0.36775 0.61737 0.89817 0.0
C199 C 0.37149 0.63068 0.89963 0.0
H200 H 0.36591 0.63728 0.86673 0.0
H201 H 0.37075 0.67025 0.97345 0.0
O202 O 0.45241 0.65287 0.87768 0.0
C203 C 0.41533 0.68499 0.95121 0.0
Co204 Co 0.65939 0.57579 0.13104 0.0
Co205 Co 0.67038 0.61322 0.11581 0.0
C206 C 0.6825 0.59324 0.20545 0.0
O207 O 0.67421 0.58032 0.19204 0.0
O208 O 0.68162 0.60677 0.18006 0.0
C209 C 0.65601 0.54002 0.14123 0.0
O210 O 0.67177 0.5405 0.15457 0.0
C211 C 0.67483 0.65006 0.12659 0.0
C212 C 0.67937 0.65663 0.04597 0.0
C213 C 0.67787 0.66347 0.09421 0.0
N214 N 0.67436 0.63603 0.09834 0.0
N215 N 0.67718 0.64011 0.05032 0.0
C216 C 0.67289 0.65039 0.1833 0.0
H217 H 0.67637 0.63819 0.19994 0.0
H218 H 0.65968 0.65287 0.19296 0.0
H219 H 0.68067 0.6604 0.20024 0.0
C220 C 0.62661 0.59119 0.10593 0.0
N221 N 0.64281 0.59254 0.11926 0.0
N222 N 0.64734 0.60824 0.11542 0.0
C223 C 0.63413 0.61741 0.10067 0.0
C224 C 0.62055 0.60693 0.09343 0.0
C225 C 0.61808 0.57482 0.0975 0.0
H226 H 0.62574 0.56707 0.0715 0.0
H227 H 0.61708 0.56814 0.13439 0.0
H228 H 0.6055 0.57631 0.08073 0.0
O229 O 0.67419 0.57418 0.07124 0.0
O230 O 0.68123 0.60065 0.06061 0.0
H231 H 0.64158 0.63828 0.05549 0.0
H232 H 0.62204 0.64121 0.08858 0.0
C233 C 0.63472 0.6358 0.09137 0.0
H234 H 0.64137 0.64198 0.12313 0.0
H235 H 0.67745 0.63159 0.02025 0.0
O236 O 0.64828 0.55361 0.13356 0.0
C237 C 0.68198 0.58546 0.04711 0.0
Co238 Co 0.57595 0.3439 0.87814 0.0
Co239 Co 0.61468 0.33668 0.88361 0.0
C240 C 0.5943 0.32374 0.79675 0.0
O241 O 0.58099 0.33034 0.81466 0.0
O242 O 0.60837 0.32582 0.81857 0.0
C243 C 0.54312 0.36099 0.85607 0.0
O244 O 0.54915 0.36794 0.8147 0.0
C245 C 0.65197 0.33447 0.87164 0.0
C246 C 0.65876 0.33242 0.95308 0.0
C247 C 0.66554 0.33288 0.90462 0.0
N248 N 0.63794 0.33503 0.89981 0.0
N249 N 0.64218 0.33377 0.94833 0.0
C250 C 0.65219 0.33481 0.81466 0.0
H251 H 0.64003 0.33069 0.79913 0.0
H252 H 0.65447 0.34776 0.80169 0.0
H253 H 0.66229 0.32673 0.79969 0.0
C254 C 0.58864 0.3779 0.90564 0.0
N255 N 0.59105 0.36205 0.88964 0.0
N256 N 0.60717 0.35904 0.8886 0.0
C257 C 0.61547 0.37293 0.90216 0.0
C258 C 0.60406 0.38532 0.91421 0.0
C259 C 0.57199 0.3849 0.91977 0.0
H260 H 0.56432 0.37518 0.93846 0.0
H261 H 0.5655 0.38902 0.88466 0.0
H262 H 0.57318 0.39572 0.94589 0.0
O263 O 0.57734 0.32824 0.93545 0.0
O264 O 0.6044 0.32323 0.93769 0.0
H265 H 0.63844 0.36829 0.94084 0.0
H266 H 0.63819 0.38738 0.90456 0.0
C267 C 0.63404 0.37419 0.90507 0.0
H268 H 0.63971 0.36757 0.8723 0.0
H269 H 0.63369 0.33384 0.97843 0.0
O270 O 0.55227 0.35136 0.88246 0.0
C271 C 0.5898 0.32083 0.95468 0.0
Co272 Co 0.84158 0.57464 0.63434 0.0
Co273 Co 0.8327 0.61302 0.63726 0.0
C274 C 0.82201 0.59201 0.54942 0.0
O275 O 0.8286 0.57899 0.56926 0.0
O276 O 0.8234 0.6063 0.57047 0.0
C277 C 0.85975 0.54231 0.61361 0.0
O278 O 0.86629 0.54827 0.57151 0.0
C279 C 0.82994 0.65021 0.62383 0.0
C280 C 0.82548 0.65719 0.70422 0.0
C281 C 0.82722 0.66382 0.65586 0.0
N282 N 0.82993 0.63626 0.65243 0.0
N283 N 0.82722 0.64061 0.70031 0.0
C284 C 0.83191 0.65035 0.56714 0.0
H285 H 0.82834 0.63812 0.55075 0.0
H286 H 0.84516 0.65272 0.55756 0.0
H287 H 0.82424 0.66039 0.54998 0.0
C288 C 0.87476 0.58873 0.66421 0.0
N289 N 0.85892 0.59046 0.64755 0.0
N290 N 0.85527 0.60644 0.64579 0.0
C291 C 0.86878 0.61535 0.65938 0.0
C292 C 0.88158 0.60448 0.67231 0.0
C293 C 0.88236 0.57237 0.67869 0.0
H294 H 0.87283 0.56426 0.69649 0.0
H295 H 0.88706 0.56611 0.64384 0.0
H296 H 0.89284 0.57399 0.70579 0.0
O297 O 0.82519 0.5755 0.68966 0.0
O298 O 0.81849 0.60222 0.68901 0.0
H299 H 0.86298 0.63871 0.69438 0.0
H300 H 0.88241 0.63863 0.6596 0.0
C301 C 0.86939 0.63399 0.65982 0.0
H302 H 0.8629 0.6389 0.62578 0.0
H303 H 0.82661 0.63221 0.73056 0.0
O304 O 0.84995 0.55132 0.63989 0.0
C305 C 0.81663 0.58758 0.70652 0.0
Co306 Co 0.57443 0.1622 0.37603 0.0
Co307 Co 0.61321 0.16882 0.37176 0.0
C308 C 0.59275 0.18246 0.45731 0.0
O309 O 0.5794 0.17604 0.43899 0.0
O310 O 0.60689 0.18005 0.43622 0.0
C311 C 0.54092 0.14639 0.39808 0.0
O312 O 0.546 0.14088 0.44259 0.0
C313 C 0.6503 0.16992 0.38648 0.0
C314 C 0.65795 0.17026 0.30553 0.0
C315 C 0.66422 0.17005 0.35467 0.0
N316 N 0.63654 0.1699 0.35704 0.0
N317 N 0.64128 0.17028 0.30883 0.0
C318 C 0.64994 0.16858 0.4433 0.0
H319 H 0.63788 0.16328 0.45612 0.0
H320 H 0.66039 0.16072 0.45705 0.0
H321 H 0.65128 0.1812 0.46007 0.0
C322 C 0.58657 0.12799 0.35007 0.0
N323 N 0.58925 0.14379 0.36605 0.0
N324 N 0.60541 0.14652 0.36765 0.0
C325 C 0.61349 0.13244 0.35459 0.0
C326 C 0.60189 0.12028 0.342 0.0
C327 C 0.56981 0.12134 0.33553 0.0
H328 H 0.56275 0.13098 0.31435 0.0
H329 H 0.56278 0.11825 0.37066 0.0
H330 H 0.57079 0.11 0.31156 0.0
O331 O 0.57633 0.17741 0.31791 0.0
O332 O 0.60346 0.18206 0.316 0.0
H333 H 0.63677 0.13638 0.31695 0.0
H334 H 0.63586 0.11745 0.35379 0.0
C335 C 0.63204 0.13074 0.35268 0.0
H336 H 0.6377 0.13731 0.38555 0.0
H337 H 0.63308 0.1702 0.27797 0.0
O338 O 0.55075 0.15488 0.37041 0.0
C339 C 0.58893 0.18447 0.2984 0.0
Co340 Co 0.16302 0.43129 0.62538 0.0
Co341 Co 0.17119 0.39265 0.62955 0.0
C342 C 0.18257 0.4133 0.5416 0.0
O343 O 0.17617 0.42654 0.56074 0.0
O344 O 0.1808 0.39913 0.56307 0.0
C345 C 0.14523 0.46395 0.60499 0.0
O346 O 0.13858 0.45808 0.56287 0.0
C347 C 0.17308 0.35539 0.61596 0.0
C348 C 0.17831 0.34833 0.6958 0.0
C349 C 0.17593 0.34173 0.64762 0.0
N350 N 0.17365 0.36935 0.6446 0.0
N351 N 0.17681 0.36494 0.69216 0.0
C352 C 0.17049 0.3553 0.5595 0.0
H353 H 0.17394 0.36752 0.54291 0.0
H354 H 0.15714 0.353 0.55124 0.0
H355 H 0.17791 0.34522 0.54148 0.0
C356 C 0.12969 0.41786 0.65606 0.0
N357 N 0.1454 0.41575 0.63862 0.0
N358 N 0.14878 0.39969 0.63769 0.0
C359 C 0.13524 0.39112 0.65289 0.0
C360 C 0.12273 0.40229 0.66576 0.0
C361 C 0.12245 0.43442 0.67024 0.0
H362 H 0.13207 0.44222 0.68897 0.0
H363 H 0.11826 0.44087 0.63514 0.0
H364 H 0.11168 0.4331 0.69638 0.0
O365 O 0.17924 0.43019 0.68119 0.0
O366 O 0.18532 0.40331 0.68164 0.0
H367 H 0.1414 0.36831 0.69052 0.0
H368 H 0.12142 0.36804 0.6588 0.0
C369 C 0.13446 0.37252 0.65629 0.0
H370 H 0.14033 0.36697 0.62209 0.0
H371 H 0.17792 0.37333 0.72239 0.0
O372 O 0.15497 0.4548 0.63102 0.0
C373 C 0.18742 0.41796 0.69883 0.0
Co374 Co 0.42791 0.84413 0.37597 0.0
Co375 Co 0.38947 0.83617 0.36656 0.0
C376 C 0.40961 0.82281 0.45381 0.0
O377 O 0.4229 0.82993 0.43783 0.0
O378 O 0.39571 0.82471 0.4308 0.0
C379 C 0.4642 0.84549 0.38016 0.0
O380 O 0.46346 0.82951 0.39072 0.0
C381 C 0.3523 0.8334 0.37778 0.0
C382 C 0.34546 0.83245 0.29621 0.0
C383 C 0.33869 0.83234 0.34474 0.0
N384 N 0.36631 0.83426 0.34961 0.0
N385 N 0.36206 0.83361 0.301 0.0
C386 C 0.35219 0.83305 0.43478 0.0
H387 H 0.36439 0.82881 0.44962 0.0
H388 H 0.34989 0.84582 0.44936 0.0
H389 H 0.34219 0.82471 0.44895 0.0
C390 C 0.41488 0.87793 0.35211 0.0
N391 N 0.4124 0.8619 0.36579 0.0
N392 N 0.39634 0.85871 0.36471 0.0
C393 C 0.38807 0.87268 0.35165 0.0
C394 C 0.39951 0.88533 0.34249 0.0
C395 C 0.4317 0.88499 0.34046 0.0
H396 H 0.43828 0.87651 0.31379 0.0
H397 H 0.4391 0.8857 0.37614 0.0
H398 H 0.43099 0.89753 0.32297 0.0
O399 O 0.42763 0.82899 0.31677 0.0
O400 O 0.40058 0.82383 0.31132 0.0
H401 H 0.36581 0.86805 0.30925 0.0
H402 H 0.36525 0.88689 0.34685 0.0
C403 C 0.36955 0.87375 0.34604 0.0
H404 H 0.36345 0.86683 0.37741 0.0
H405 H 0.37053 0.83409 0.2709 0.0
O406 O 0.45078 0.85378 0.37625 0.0
C407 C 0.41538 0.82178 0.29541 0.0
Co408 Co 0.84057 0.93162 0.62209 0.0
Co409 Co 0.83452 0.89277 0.62134 0.0
C410 C 0.82123 0.91298 0.70618 0.0
O411 O 0.82712 0.92623 0.68573 0.0
O412 O 0.82386 0.89863 0.68669 0.0
C413 C 0.859 0.9634 0.6419 0.0
O414 O 0.86848 0.95552 0.67482 0.0
C415 C 0.83335 0.85553 0.6334 0.0
C416 C 0.83514 0.8485 0.55204 0.0
C417 C 0.83417 0.84187 0.60061 0.0
N418 N 0.83396 0.86952 0.60512 0.0
N419 N 0.83483 0.86515 0.5566 0.0
C420 C 0.8332 0.85538 0.69038 0.0
H421 H 0.83831 0.86724 0.70555 0.0
H422 H 0.84051 0.84468 0.70515 0.0
H423 H 0.82016 0.85409 0.70379 0.0
C424 C 0.87469 0.91946 0.5923 0.0
N425 N 0.85913 0.91703 0.61061 0.0
N426 N 0.85667 0.90091 0.61598 0.0
C427 C 0.8708 0.89271 0.60432 0.0
C428 C 0.88266 0.9041 0.58785 0.0
C429 C 0.88079 0.93568 0.5712 0.0
H430 H 0.87016 0.94352 0.55897 0.0
H431 H 0.88796 0.94236 0.601 0.0
H432 H 0.88914 0.9336 0.5381 0.0
O433 O 0.82512 0.92961 0.5647 0.0
O434 O 0.82038 0.90247 0.56722 0.0
H435 H 0.86824 0.86806 0.57416 0.0
H436 H 0.88626 0.87094 0.61409 0.0
C437 C 0.87294 0.87425 0.60911 0.0
H438 H 0.86579 0.86959 0.6423 0.0
H439 H 0.8356 0.8736 0.52651 0.0
O440 O 0.84729 0.95559 0.61962 0.0
C441 C 0.81771 0.91676 0.548 0.0
Co442 Co 0.93049 0.16177 0.37729 0.0
Co443 Co 0.89256 0.17132 0.39183 0.0
C444 C 0.912 0.18376 0.30165 0.0
O445 O 0.92521 0.17612 0.31588 0.0
O446 O 0.89842 0.18247 0.32669 0.0
C447 C 0.96644 0.15972 0.37499 0.0
O448 O 0.96566 0.17603 0.37154 0.0
C449 C 0.85543 0.17457 0.38281 0.0
C450 C 0.84912 0.1775 0.46433 0.0
C451 C 0.84206 0.17654 0.41626 0.0
N452 N 0.86962 0.17419 0.41031 0.0
N453 N 0.86568 0.17604 0.45889 0.0
C454 C 0.85492 0.17355 0.32589 0.0
H455 H 0.86697 0.17756 0.30938 0.0
H456 H 0.85269 0.16044 0.31431 0.0
H457 H 0.84471 0.1814 0.31053 0.0
C458 C 0.91648 0.12851 0.4031 0.0
N459 N 0.91444 0.14463 0.38972 0.0
N460 N 0.89856 0.14848 0.39314 0.0
C461 C 0.88994 0.13484 0.40747 0.0
C462 C 0.90099 0.12173 0.415 0.0
C463 C 0.93318 0.12077 0.41216 0.0
H464 H 0.94059 0.12903 0.43735 0.0
H465 H 0.93986 0.11962 0.37531 0.0
H466 H 0.93225 0.10833 0.43024 0.0
O467 O 0.93152 0.17688 0.43646 0.0
O468 O 0.90483 0.18321 0.44603 0.0
H469 H 0.86844 0.14082 0.45187 0.0
H470 H 0.86666 0.12157 0.41647 0.0
C471 C 0.87149 0.13452 0.41541 0.0
H472 H 0.86526 0.14128 0.38397 0.0
H473 H 0.87434 0.17613 0.48856 0.0
O474 O 0.95302 0.15132 0.37408 0.0
C475 C 0.91996 0.18458 0.45972 0.0
Co476 Co 0.163 0.07379 0.61864 0.0
Co477 Co 0.1684 0.11282 0.61371 0.0
C478 C 0.1838 0.09298 0.69747 0.0
O479 O 0.17739 0.07947 0.68014 0.0
O480 O 0.18084 0.10703 0.67646 0.0
C481 C 0.14651 0.04086 0.64136 0.0
O482 O 0.13849 0.04757 0.67989 0.0
C483 C 0.16931 0.15004 0.62666 0.0
C484 C 0.16666 0.15729 0.54575 0.0
C485 C 0.16808 0.16379 0.59442 0.0
N486 N 0.16849 0.13612 0.59798 0.0
N487 N 0.1671 0.14063 0.54972 0.0
C488 C 0.17008 0.15001 0.68359 0.0
H489 H 0.16523 0.13806 0.6988 0.0
H490 H 0.16287 0.16061 0.69947 0.0
H491 H 0.18325 0.15134 0.69573 0.0
C492 C 0.12825 0.08523 0.59402 0.0
N493 N 0.14403 0.08811 0.60994 0.0
N494 N 0.14633 0.10433 0.61312 0.0
C495 C 0.13197 0.11217 0.60191 0.0
C496 C 0.1201 0.10043 0.58823 0.0
C497 C 0.122 0.06858 0.57672 0.0
H498 H 0.1323 0.06123 0.55983 0.0
H499 H 0.117 0.06172 0.61003 0.0
H500 H 0.11188 0.06989 0.54818 0.0
O501 O 0.17751 0.07599 0.55896 0.0
O502 O 0.18094 0.10333 0.55605 0.0
H503 H 0.13415 0.13609 0.56655 0.0
H504 H 0.11635 0.134 0.60768 0.0
C505 C 0.12969 0.13069 0.60292 0.0
H506 H 0.13692 0.13615 0.6348 0.0
H507 H 0.16609 0.13226 0.51941 0.0
O508 O 0.15663 0.0497 0.61565 0.0
C509 C 0.18368 0.08886 0.53829 0.0
Co510 Co 0.07236 0.84379 0.37285 0.0
Co511 Co 0.11024 0.8338 0.3817 0.0
C512 C 0.09043 0.82346 0.29127 0.0
O513 O 0.07726 0.83003 0.31009 0.0
O514 O 0.1046 0.82509 0.3129 0.0
C515 C 0.03645 0.8458 0.37418 0.0
O516 O 0.03729 0.82947 0.37186 0.0
C517 C 0.14724 0.83287 0.37253 0.0
C518 C 0.15379 0.82465 0.45043 0.0
C519 C 0.16069 0.82959 0.40453 0.0
N520 N 0.1331 0.83013 0.3988 0.0
N521 N 0.13716 0.82502 0.44506 0.0
C522 C 0.14767 0.83979 0.31966 0.0
H523 H 0.13562 0.84584 0.31028 0.0
H524 H 0.15803 0.84885 0.31566 0.0
H525 H 0.14976 0.82945 0.29227 0.0
C526 C 0.08665 0.87685 0.3993 0.0
N527 N 0.08853 0.86068 0.38638 0.0
N528 N 0.10431 0.85656 0.39122 0.0
C529 C 0.11294 0.86997 0.40783 0.0
C530 C 0.10203 0.88332 0.41348 0.0
C531 C 0.07028 0.88575 0.39959 0.0
H532 H 0.06353 0.88314 0.36356 0.0
H533 H 0.07191 0.89941 0.40368 0.0
H534 H 0.06263 0.88102 0.43169 0.0
O535 O 0.07156 0.82773 0.42979 0.0
O536 O 0.09791 0.81946 0.42938 0.0
H537 H 0.13471 0.88099 0.44398 0.0
H538 H 0.13882 0.86745 0.39048 0.0
C539 C 0.13079 0.8694 0.42432 0.0
H540 H 0.13266 0.85882 0.45078 0.0
H541 H 0.12855 0.82226 0.47356 0.0
O542 O 0.04983 0.85424 0.37168 0.0
C543 C 0.08308 0.81824 0.44583 0.0
H544 H 0.31481 0.06355 0.26379 0.0
H545 H 0.29193 0.0617 0.32511 0.0
H546 H 0.28088 0.11375 0.3015 0.0
H547 H 0.30394 0.11587 0.24182 0.0
H548 H 0.27631 0.10594 0.39754 0.0
H549 H 0.26195 0.0823 0.23455 0.0
H550 H 0.26592 0.06289 0.16286 0.0
H551 H 0.25734 0.02133 0.26231 0.0
H552 H 0.25409 0.04049 0.33528 0.0
H553 H 0.19349 0.11261 0.47054 0.0
H554 H 0.21703 0.11101 0.41182 0.0
H555 H 0.22497 0.05966 0.45388 0.0
H556 H 0.20111 0.06099 0.5116 0.0
H557 H 0.23194 0.06532 0.35329 0.0
H558 H 0.24386 0.0907 0.5158 0.0
H559 H 0.23851 0.11132 0.58345 0.0
H560 H 0.2509 0.15104 0.48086 0.0
H561 H 0.2554 0.13073 0.41162 0.0
C562 C 0.30767 0.07466 0.27235 0.0
C563 C 0.31101 0.08979 0.24737 0.0
C564 C 0.2946 0.07357 0.30726 0.0
C565 C 0.28451 0.0875 0.31691 0.0
C566 C 0.28848 0.10283 0.29442 0.0
C567 C 0.30164 0.10399 0.26011 0.0
C568 C 0.26905 0.08601 0.34717 0.0
C569 C 0.26658 0.09712 0.38774 0.0
C570 C 0.25646 0.07433 0.33462 0.0
C571 C 0.25797 0.06283 0.29052 0.0
C572 C 0.26103 0.06902 0.24126 0.0
C573 C 0.26316 0.05806 0.20037 0.0
C574 C 0.26181 0.04089 0.20792 0.0
C575 C 0.2584 0.03464 0.2565 0.0
C576 C 0.25649 0.04554 0.29771 0.0
C577 C 0.20003 0.10088 0.46646 0.0
C578 C 0.19569 0.08701 0.49628 0.0
C579 C 0.21346 0.09999 0.43298 0.0
C580 C 0.22296 0.08536 0.42973 0.0
C581 C 0.21784 0.0711 0.45627 0.0
C582 C 0.20424 0.0719 0.48926 0.0
C583 C 0.23912 0.08545 0.40294 0.0
C584 C 0.24174 0.07404 0.36329 0.0
C585 C 0.25178 0.097 0.41592 0.0
C586 C 0.24984 0.10916 0.45831 0.0
C587 C 0.24535 0.10383 0.50751 0.0
C588 C 0.24244 0.11547 0.54615 0.0
C589 C 0.24447 0.13246 0.53659 0.0
C590 C 0.24934 0.13787 0.48824 0.0
C591 C 0.25199 0.1263 0.44918 0.0
H592 H 0.24225 0.14144 0.56665 0.0
H593 H 0.26341 0.03243 0.17613 0.0
H594 H 0.09841 0.78829 0.45076 0.0
H595 H 0.09202 0.76505 0.50742 0.0
H596 H 0.05259 0.79367 0.57663 0.0
H597 H 0.05857 0.81699 0.51847 0.0
H598 H 0.0806 0.77822 0.64234 0.0
H599 H 0.03891 0.76575 0.51717 0.0
H600 H 0.02822 0.76092 0.43033 0.0
H601 H 0.06124 0.71922 0.41294 0.0
H602 H 0.07251 0.72411 0.499 0.0
H603 H 0.05915 0.70784 0.798 0.0
H604 H 0.05425 0.73083 0.73807 0.0
H605 H 0.091 0.71025 0.63602 0.0
H606 H 0.09652 0.68773 0.69687 0.0
H607 H 0.0596 0.7227 0.58928 0.0
H608 H 0.10412 0.73602 0.7017 0.0
H609 H 0.11958 0.74167 0.78076 0.0
H610 H 0.08697 0.78263 0.8141 0.0
H611 H 0.07055 0.77648 0.73705 0.0
C612 C 0.08835 0.78965 0.47796 0.0
C613 C 0.07907 0.80447 0.48072 0.0
C614 C 0.08463 0.77633 0.50987 0.0
C615 C 0.07178 0.77769 0.54563 0.0
C616 C 0.06247 0.79244 0.54875 0.0
C617 C 0.06592 0.8057 0.51582 0.0
C618 C 0.06921 0.76404 0.58224 0.0
C619 C 0.07551 0.76619 0.63153 0.0
C620 C 0.06331 0.74826 0.56661 0.0
C621 C 0.05666 0.74539 0.51451 0.0
C622 C 0.04406 0.75569 0.49459 0.0
C623 C 0.03788 0.75293 0.44547 0.0
C624 C 0.04408 0.73981 0.41604 0.0
C625 C 0.05648 0.72942 0.43567 0.0
C626 C 0.06278 0.73219 0.48461 0.0
C627 C 0.06592 0.70809 0.76228 0.0
C628 C 0.0782 0.69611 0.75175 0.0
C629 C 0.06317 0.72121 0.72835 0.0
C630 C 0.07234 0.72219 0.68299 0.0
C631 C 0.08382 0.70962 0.67092 0.0
C632 C 0.08697 0.69683 0.70556 0.0
C633 C 0.07092 0.7369 0.6497 0.0
C634 C 0.06411 0.73487 0.60086 0.0
C635 C 0.07681 0.75274 0.66525 0.0
C636 C 0.08574 0.75543 0.71418 0.0
C637 C 0.0998 0.74581 0.7268 0.0
C638 C 0.10881 0.74915 0.77126 0.0
C639 C 0.10416 0.76238 0.8028 0.0
C640 C 0.09044 0.77223 0.79005 0.0
C641 C 0.08117 0.76871 0.74627 0.0
H642 H 0.11129 0.76508 0.83683 0.0
H643 H 0.03924 0.73767 0.37808 0.0
H644 H 0.79673 0.89275 0.51222 0.0
H645 H 0.77418 0.89599 0.45118 0.0
H646 H 0.78706 0.94778 0.43127 0.0
H647 H 0.80953 0.94477 0.49372 0.0
H648 H 0.75424 0.94416 0.44303 0.0
H649 H 0.79575 0.91926 0.33788 0.0
H650 H 0.81746 0.89896 0.31427 0.0
H651 H 0.7816 0.85933 0.32042 0.0
H652 H 0.75971 0.87936 0.34477 0.0
H653 H 0.69715 0.94667 0.22825 0.0
H654 H 0.72081 0.94954 0.28668 0.0
H655 H 0.71548 0.898 0.33044 0.0
H656 H 0.69213 0.89497 0.27189 0.0
H657 H 0.74653 0.90493 0.29871 0.0
H658 H 0.70577 0.92984 0.41188 0.0
H659 H 0.68421 0.95031 0.43561 0.0
H660 H 0.71897 0.99026 0.41249 0.0
H661 H 0.74068 0.97002 0.38798 0.0
C662 C 0.79492 0.90481 0.49459 0.0
C663 C 0.80496 0.9185 0.50779 0.0
C664 C 0.78204 0.90663 0.45952 0.0
C665 C 0.77909 0.92208 0.43623 0.0
C666 C 0.78918 0.93575 0.44879 0.0
C667 C 0.80203 0.93398 0.48429 0.0
C668 C 0.76505 0.92392 0.40021 0.0
C669 C 0.75269 0.9358 0.41084 0.0
C670 C 0.76298 0.91291 0.35858 0.0
C671 C 0.7761 0.90082 0.34344 0.0
C672 C 0.79251 0.90621 0.3345 0.0
C673 C 0.80485 0.89474 0.32094 0.0
C674 C 0.80092 0.87786 0.31592 0.0
C675 C 0.78463 0.87241 0.32432 0.0
C676 C 0.77224 0.88382 0.33792 0.0
C677 C 0.70081 0.93607 0.2512 0.0
C678 C 0.69294 0.92055 0.24515 0.0
C679 C 0.71432 0.93773 0.28449 0.0
C680 C 0.71994 0.92394 0.31251 0.0
C681 C 0.71142 0.90874 0.30872 0.0
C682 C 0.69806 0.90704 0.27534 0.0
C683 C 0.73546 0.92473 0.34268 0.0
C684 C 0.74817 0.91341 0.33058 0.0
C685 C 0.73783 0.9363 0.38269 0.0
C686 C 0.72479 0.94844 0.39753 0.0
C687 C 0.70877 0.943 0.41142 0.0
C688 C 0.69653 0.95456 0.42511 0.0
C689 C 0.7002 0.97158 0.42539 0.0
C690 C 0.71613 0.97707 0.41216 0.0
C691 C 0.72841 0.96557 0.39841 0.0
H692 H 0.69071 0.9805 0.436 0.0
H693 H 0.81049 0.86901 0.30545 0.0
H694 H 0.89851 0.30088 0.74827 0.0
H695 H 0.90449 0.27713 0.69364 0.0
H696 H 0.95701 0.28796 0.70164 0.0
H697 H 0.95121 0.31188 0.75734 0.0
H698 H 0.94263 0.27821 0.59907 0.0
H699 H 0.94763 0.25945 0.77147 0.0
H700 H 0.93908 0.25722 0.86147 0.0
H701 H 0.89348 0.23349 0.81615 0.0
H702 H 0.90162 0.23584 0.72578 0.0
H703 H 0.95051 0.19777 0.48308 0.0
H704 H 0.95645 0.22 0.54461 0.0
H705 H 0.90484 0.2203 0.59028 0.0
H706 H 0.89881 0.19818 0.52929 0.0
H707 H 0.92609 0.22355 0.67177 0.0
H708 H 0.91805 0.2471 0.50294 0.0
H709 H 0.92453 0.25043 0.41162 0.0
H710 H 0.9743 0.26571 0.44926 0.0
H711 H 0.96815 0.26223 0.54086 0.0
C712 C 0.91135 0.29842 0.73807 0.0
C713 C 0.92441 0.30818 0.75772 0.0
C714 C 0.91472 0.28481 0.70687 0.0
C715 C 0.93118 0.28073 0.69444 0.0
C716 C 0.94424 0.29094 0.71124 0.0
C717 C 0.94089 0.30457 0.74298 0.0
C718 C 0.93444 0.26518 0.66621 0.0
C719 C 0.9395 0.26617 0.61521 0.0
C720 C 0.93007 0.24959 0.6874 0.0
C721 C 0.92521 0.24791 0.74179 0.0
C722 C 0.93572 0.25386 0.78066 0.0
C723 C 0.93096 0.25256 0.83175 0.0
C724 C 0.91574 0.24524 0.84452 0.0
C725 C 0.90527 0.23916 0.8062 0.0
C726 C 0.90997 0.24045 0.75503 0.0
C727 C 0.9405 0.20238 0.50688 0.0
C728 C 0.92416 0.19635 0.50105 0.0
C729 C 0.94391 0.2151 0.54182 0.0
C730 C 0.93104 0.22186 0.57151 0.0
C731 C 0.91494 0.21523 0.56766 0.0
C732 C 0.9115 0.20265 0.53261 0.0
C733 C 0.93384 0.23661 0.60414 0.0
C734 C 0.92982 0.23548 0.656 0.0
C735 C 0.93904 0.25207 0.58361 0.0
C736 C 0.94272 0.25418 0.52864 0.0
C737 C 0.93042 0.25102 0.4917 0.0
C738 C 0.93402 0.25296 0.43991 0.0
C739 C 0.94984 0.25821 0.42463 0.0
C740 C 0.96207 0.26159 0.46114 0.0
C741 C 0.95853 0.25964 0.51299 0.0
H742 H 0.9526 0.25972 0.38452 0.0
H743 H 0.91207 0.24425 0.8841 0.0
H744 H 0.30781 0.44868 0.01972 0.0
H745 H 0.28589 0.45377 0.95664 0.0
H746 H 0.28925 0.40265 0.90671 0.0
H747 H 0.31105 0.39743 0.96946 0.0
H748 H 0.28536 0.42517 0.82654 0.0
H749 H 0.26127 0.41245 0.99208 0.0
H750 H 0.25691 0.41711 0.08406 0.0
H751 H 0.23842 0.4663 0.05344 0.0
H752 H 0.24291 0.46199 0.96124 0.0
H753 H 0.21007 0.39559 0.7347 0.0
H754 H 0.23383 0.40115 0.78983 0.0
H755 H 0.21877 0.45251 0.80419 0.0
H756 H 0.19483 0.44714 0.74846 0.0
H757 H 0.22921 0.43656 0.89779 0.0
H758 H 0.24863 0.44652 0.72906 0.0
H759 H 0.25229 0.44055 0.63755 0.0
H760 H 0.27924 0.39592 0.67388 0.0
H761 H 0.2755 0.40146 0.76567 0.0
C762 C 0.30408 0.43861 0.99469 0.0
C763 C 0.311 0.4226 -0.00016 0.0
C764 C 0.29156 0.44154 0.95884 0.0
C765 C 0.28593 0.42853 0.92753 0.0
C766 C 0.29348 0.41283 0.93063 0.0
C767 C 0.30585 0.40985 0.96668 0.0
C768 C 0.27128 0.4307 0.89431 0.0
C769 C 0.27309 0.42772 0.84197 0.0
C770 C 0.25538 0.43441 0.91457 0.0
C771 C 0.25264 0.43699 0.9699 0.0
C772 C 0.25642 0.42431 0.00502 0.0
C773 C 0.2539 0.42688 0.05717 0.0
C774 C 0.24745 0.44201 0.0746 0.0
C775 C 0.24346 0.4546 0.03989 0.0
C776 C 0.24599 0.4521 0.98769 0.0
C777 C 0.21165 0.40805 0.74987 0.0
C778 C 0.20064 0.42097 0.73683 0.0
C779 C 0.22529 0.4112 0.78118 0.0
C780 C 0.22812 0.42728 0.80017 0.0
C781 C 0.21677 0.44006 0.78941 0.0
C782 C 0.20315 0.43695 0.75763 0.0
C783 C 0.24325 0.43056 0.83031 0.0
C784 C 0.24154 0.43452 0.88205 0.0
C785 C 0.25924 0.42769 0.80953 0.0
C786 C 0.26169 0.42437 0.75431 0.0
C787 C 0.25523 0.43537 0.71757 0.0
C788 C 0.25733 0.43207 0.66562 0.0
C789 C 0.26597 0.41785 0.6499 0.0
C790 C 0.27255 0.40692 0.68611 0.0
C791 C 0.27046 0.41015 0.73812 0.0
H792 H 0.26758 0.41532 0.60967 0.0
H793 H 0.2455 0.44397 0.11499 0.0
H794 H 0.44473 0.80648 0.26979 0.0
H795 H 0.44819 0.78268 0.21217 0.0
H796 H 0.39616 0.7855 0.17187 0.0
H797 H 0.39255 0.80901 0.2296 0.0
H798 H 0.4049 0.75482 0.20413 0.0
H799 H 0.42685 0.79656 0.08827 0.0
H800 H 0.44615 0.81896 0.06284 0.0
H801 H 0.48771 0.78596 0.08309 0.0
H802 H 0.46865 0.76342 0.10928 0.0
H803 H 0.39152 0.70533 0.99098 0.0
H804 H 0.39515 0.72764 0.05257 0.0
H805 H 0.44742 0.71583 0.06524 0.0
H806 H 0.444 0.69357 0.00206 0.0
H807 H 0.44276 0.74877 0.05591 0.0
H808 H 0.42072 0.70613 0.16215 0.0
H809 H 0.40157 0.68357 0.1873 0.0
H810 H 0.3606 0.71795 0.18706 0.0
H811 H 0.37946 0.74067 0.16121 0.0
C812 C 0.43412 0.80223 0.24782 0.0
C813 C 0.41832 0.80948 0.2546 0.0
C814 C 0.43612 0.78865 0.21498 0.0
C815 C 0.42239 0.7823 0.18812 0.0
C816 C 0.40687 0.79014 0.19269 0.0
C817 C 0.40484 0.80359 0.2256 0.0
C818 C 0.42368 0.76674 0.15823 0.0
C819 C 0.41309 0.75353 0.17145 0.0
C820 C 0.43492 0.76483 0.11719 0.0
C821 C 0.44634 0.77837 0.10131 0.0
C822 C 0.44011 0.79413 0.08773 0.0
C823 C 0.45101 0.80684 0.07308 0.0
C824 C 0.46815 0.8039 0.07151 0.0
C825 C 0.47443 0.78823 0.08442 0.0
C826 C 0.46359 0.77548 0.09913 0.0
C827 C 0.40379 0.70732 0.00708 0.0
C828 C 0.41747 0.69763 0.99166 0.0
C829 C 0.40583 0.72006 0.04251 0.0
C830 C 0.4215 0.72323 0.06403 0.0
C831 C 0.4352 0.71352 0.04917 0.0
C832 C 0.4332 0.70078 0.01327 0.0
C833 C 0.42346 0.73714 0.10055 0.0
C834 C 0.43474 0.74996 0.08898 0.0
C835 C 0.41289 0.73871 0.14339 0.0
C836 C 0.40151 0.7251 0.1595 0.0
C837 C 0.40761 0.70886 0.16718 0.0
C838 C 0.39681 0.69605 0.18159 0.0
C839 C 0.37988 0.69932 0.18872 0.0
C840 C 0.37372 0.71543 0.18155 0.0
C841 C 0.38447 0.72829 0.16711 0.0
H842 H 0.37153 0.68938 0.19984 0.0
H843 H 0.47656 0.81376 0.06016 0.0
H844 H 0.69288 0.60566 0.97122 0.0
H845 H 0.71411 0.59951 0.9077 0.0
H846 H 0.71786 0.54913 0.96376 0.0
H847 H 0.69639 0.55519 0.02776 0.0
H848 H 0.74829 0.56573 0.9592 0.0
H849 H 0.70349 0.55392 0.84808 0.0
H850 H 0.67629 0.55788 0.80625 0.0
H851 H 0.69354 0.60358 0.73972 0.0
H852 H 0.72077 0.60005 0.78177 0.0
H853 H 0.81003 0.55857 0.75783 0.0
H854 H 0.78609 0.55274 0.81288 0.0
H855 H 0.76892 0.60325 0.79333 0.0
H856 H 0.79272 0.60925 0.73877 0.0
H857 H 0.74438 0.57887 0.77481 0.0
H858 H 0.78654 0.5931 0.90041 0.0
H859 H 0.81358 0.58977 0.94385 0.0
H860 H 0.80089 0.53944 0.98336 0.0
H861 H 0.77384 0.54241 0.9395 0.0
C862 C 0.698 0.59318 0.96954 0.0
C863 C 0.69306 0.58093 0.00458 0.0
C864 C 0.71006 0.58966 0.93303 0.0
C865 C 0.71746 0.57385 0.93097 0.0
C866 C 0.7122 0.56138 0.96474 0.0
C867 C 0.69993 0.56484 0.00104 0.0
C868 C 0.73176 0.57117 0.89661 0.0
C869 C 0.7474 0.56811 0.91857 0.0
C870 C 0.73055 0.57452 0.84386 0.0
C871 C 0.71418 0.57674 0.81831 0.0
C872 C 0.70146 0.56488 0.82483 0.0
C873 C 0.68603 0.56704 0.80102 0.0
C874 C 0.68318 0.58098 0.77038 0.0
C875 C 0.69577 0.59279 0.76344 0.0
C876 C 0.71122 0.59069 0.7872 0.0
C877 C 0.80124 0.56848 0.76567 0.0
C878 C 0.80324 0.58436 0.7438 0.0
C879 C 0.78759 0.56511 0.79702 0.0
C880 C 0.77574 0.57755 0.80667 0.0
C881 C 0.7779 0.59347 0.78586 0.0
C882 C 0.79157 0.5969 0.75497 0.0
C883 C 0.76087 0.57409 0.83786 0.0
C884 C 0.74517 0.576 0.81515 0.0
C885 C 0.76203 0.56969 0.88987 0.0
C886 C 0.77829 0.56789 0.91606 0.0
C887 C 0.78959 0.58127 0.9179 0.0
C888 C 0.8049 0.57946 0.9427 0.0
C889 C 0.80898 0.56438 0.96618 0.0
C890 C 0.79773 0.5511 0.96503 0.0
C891 C 0.78241 0.55283 0.94022 0.0
H892 H 0.82083 0.56301 0.98539 0.0
H893 H 0.67123 0.58263 0.75198 0.0
H894 H 0.61307 0.20001 0.24296 0.0
H895 H 0.60941 0.22222 0.18072 0.0
H896 H 0.55607 0.21863 0.19691 0.0
H897 H 0.55958 0.19642 0.2598 0.0
H898 H 0.59331 0.22433 0.08919 0.0
H899 H 0.541 0.25931 0.19268 0.0
H900 H 0.52913 0.26213 0.27905 0.0
H901 H 0.57681 0.25094 0.3448 0.0
H902 H 0.58899 0.24828 0.25887 0.0
H903 H 0.56021 0.30905 0.99247 0.0
H904 H 0.55632 0.28501 0.04872 0.0
H905 H 0.60959 0.27963 0.06191 0.0
H906 H 0.61365 0.30346 0.00594 0.0
H907 H 0.56748 0.27712 0.14841 0.0
H908 H 0.61886 0.23899 0.04543 0.0
H909 H 0.63129 0.23686 0.95969 0.0
H910 H 0.58594 0.25496 0.89291 0.0
H911 H 0.57315 0.25694 0.97812 0.0
C912 C 0.60054 0.20381 0.23301 0.0
C913 C 0.58662 0.19657 0.25671 0.0
C914 C 0.59848 0.21646 0.19728 0.0
C915 C 0.58249 0.22215 0.1848 0.0
C916 C 0.56852 0.2145 0.20661 0.0
C917 C 0.57056 0.20179 0.24235 0.0
C918 C 0.58069 0.23671 0.15095 0.0
C919 C 0.58769 0.23588 0.1021 0.0
C920 C 0.57293 0.2516 0.16751 0.0
C921 C 0.56583 0.25338 0.21937 0.0
C922 C 0.54894 0.25749 0.2256 0.0
C923 C 0.54217 0.25906 0.27446 0.0
C924 C 0.55219 0.25665 0.31738 0.0
C925 C 0.56904 0.25273 0.31153 0.0
C926 C 0.57588 0.25117 0.26276 0.0
C927 C 0.57109 0.3029 0.00796 0.0
C928 C 0.58724 0.30801 0.99418 0.0
C929 C 0.56883 0.2892 0.04003 0.0
C930 C 0.58267 0.28043 0.0584 0.0
C931 C 0.59876 0.2861 0.0472 0.0
C932 C 0.60104 0.29975 0.01531 0.0
C933 C 0.58055 0.26485 0.08734 0.0
C934 C 0.57279 0.26547 0.13512 0.0
C935 C 0.58762 0.24975 0.06985 0.0
C936 C 0.59509 0.24822 0.01826 0.0
C937 C 0.6115 0.24241 0.01243 0.0
C938 C 0.61862 0.24125 0.96392 0.0
C939 C 0.60943 0.24581 0.9209 0.0
C940 C 0.59307 0.25148 0.92627 0.0
C941 C 0.58589 0.25264 0.97468 0.0
H942 H 0.61497 0.24493 0.88339 0.0
H943 H 0.54692 0.25786 0.35517 0.0
H944 H 0.31417 0.31821 0.04483 0.0
H945 H 0.31596 0.28808 0.05426 0.0
H946 H 0.35441 0.29407 0.16769 0.0
H947 H 0.35312 0.32434 0.15696 0.0
H948 H 0.36288 0.2708 0.09963 0.0
H949 H 0.31477 0.28201 0.20095 0.0
H950 H 0.28718 0.2938 0.22086 0.0
H951 H 0.26542 0.26559 0.09864 0.0
H952 H 0.29294 0.2538 0.07752 0.0
H953 H 0.36052 0.18764 0.19163 0.0
H954 H 0.35944 0.21777 0.17989 0.0
H955 H 0.3232 0.21154 0.05994 0.0
H956 H 0.32402 0.18124 0.07221 0.0
H957 H 0.31369 0.23483 0.13104 0.0
H958 H 0.36236 0.22335 0.03124 0.0
H959 H 0.39003 0.21127 0.01427 0.0
H960 H 0.41084 0.23981 0.13731 0.0
H961 H 0.38323 0.2519 0.1555 0.0
C962 C 0.3229 0.31315 0.07223 0.0
C963 C 0.33329 0.32374 0.10082 0.0
C964 C 0.32384 0.2959 0.07775 0.0
C965 C 0.33515 0.28879 0.1122 0.0
C966 C 0.34549 0.2993 0.14116 0.0
C967 C 0.34456 0.31664 0.13557 0.0
C968 C 0.33659 0.27037 0.11605 0.0
C969 C 0.35217 0.26295 0.1073 0.0
C970 C 0.32254 0.26009 0.12472 0.0
C971 C 0.30596 0.26714 0.13736 0.0
C972 C 0.30413 0.27842 0.17805 0.0
C973 C 0.2885 0.28508 0.1896 0.0
C974 C 0.27456 0.28048 0.16096 0.0
C975 C 0.27623 0.26916 0.12076 0.0
C976 C 0.29184 0.26247 0.10901 0.0
C977 C 0.35248 0.19267 0.16224 0.0
C978 C 0.3425 0.18206 0.13242 0.0
C979 C 0.35193 0.20989 0.15545 0.0
C980 C 0.34135 0.2169 0.11875 0.0
C981 C 0.33153 0.20635 0.08827 0.0
C982 C 0.33215 0.18904 0.09488 0.0
C983 C 0.33994 0.23529 0.11449 0.0
C984 C 0.32438 0.2427 0.12326 0.0
C985 C 0.35402 0.24555 0.10619 0.0
C986 C 0.37068 0.23843 0.095 0.0
C987 C 0.37281 0.22697 0.05492 0.0
C988 C 0.38849 0.22013 0.04504 0.0
C989 C 0.40218 0.22474 0.07477 0.0
C990 C 0.40022 0.23624 0.11434 0.0
C991 C 0.38456 0.24311 0.12441 0.0
H992 H 0.41431 0.21942 0.06708 0.0
H993 H 0.26247 0.28565 0.16997 0.0
H994 H 0.17963 0.6559 0.89704 0.0
H995 H 0.20984 0.65504 0.90779 0.0
H996 H 0.21537 0.69342 0.79413 0.0
H997 H 0.18518 0.69461 0.78392 0.0
H998 H 0.23653 0.66737 0.77757 0.0
H999 H 0.22071 0.70264 0.91791 0.0
H1000 H 0.20509 0.71004 0.99562 0.0
H1001 H 0.22586 0.6678 0.07331 0.0
H1002 H 0.24143 0.66002 0.99579 0.0
H1003 H 0.32254 0.68633 0.82079 0.0
H1004 H 0.29232 0.68686 0.80766 0.0
H1005 H 0.28592 0.65259 0.93281 0.0
H1006 H 0.31596 0.65235 0.94664 0.0
H1007 H 0.26499 0.67673 0.94296 0.0
H1008 H 0.28068 0.64104 0.80427 0.0
H1009 H 0.2961 0.6329 0.72686 0.0
H1010 H 0.27549 0.67466 0.64639 0.0
H1011 H 0.26013 0.68318 0.72357 0.0
C1012 C 0.18717 0.66452 0.87545 0.0
C1013 C 0.17989 0.67561 0.84046 0.0
C1014 C 0.2045 0.66388 0.88122 0.0
C1015 C 0.21486 0.67425 0.85198 0.0
C1016 C 0.20763 0.68529 0.81705 0.0
C1017 C 0.19035 0.68598 0.8114 0.0
C1018 C 0.23327 0.67341 0.85696 0.0
C1019 C 0.2428 0.6696 0.81359 0.0
C1020 C 0.24139 0.67594 0.90417 0.0
C1021 C 0.2321 0.68066 0.95089 0.0
C1022 C 0.22184 0.69486 0.95144 0.0
C1023 C 0.21302 0.69913 0.99547 0.0
C1024 C 0.21445 0.68937 0.03933 0.0
C1025 C 0.22474 0.67534 0.03929 0.0
C1026 C 0.23358 0.671 0.99533 0.0
C1027 C 0.3147 0.67864 0.84468 0.0
C1028 C 0.32161 0.66918 0.88442 0.0
C1029 C 0.29741 0.67898 0.83729 0.0
C1030 C 0.28679 0.66967 0.86905 0.0
C1031 C 0.29379 0.65994 0.90795 0.0
C1032 C 0.31098 0.65976 0.9157 0.0
C1033 C 0.26835 0.67056 0.86358 0.0
C1034 C 0.25878 0.67444 0.90688 0.0
C1035 C 0.2602 0.66796 0.81636 0.0
C1036 C 0.26939 0.66284 0.76986 0.0
C1037 C 0.27954 0.64856 0.77018 0.0
C1038 C 0.28825 0.64387 0.72633 0.0
C1039 C 0.28681 0.65328 0.68178 0.0
C1040 C 0.27662 0.66739 0.68095 0.0
C1041 C 0.26789 0.67215 0.72473 0.0
H1042 H 0.29357 0.64963 0.64786 0.0
H1043 H 0.2076 0.69271 0.07339 0.0
H1044 H 0.65231 0.8172 0.20317 0.0
H1045 H 0.65413 0.78709 0.19162 0.0
H1046 H 0.68941 0.79411 0.06948 0.0
H1047 H 0.68739 0.82441 0.08042 0.0
H1048 H 0.66797 0.76955 0.04706 0.0
H1049 H 0.70238 0.78359 0.18999 0.0
H1050 H 0.70897 0.79645 0.273 0.0
H1051 H 0.67132 0.76668 0.34506 0.0
H1052 H 0.66434 0.7538 0.26232 0.0
H1053 H 0.6972 0.68647 0.04723 0.0
H1054 H 0.69639 0.71674 0.05707 0.0
H1055 H 0.65885 0.7118 0.17361 0.0
H1056 H 0.65945 0.68152 0.16357 0.0
H1057 H 0.68242 0.73532 0.19825 0.0
H1058 H 0.64777 0.72174 0.05445 0.0
H1059 H 0.64139 0.70887 0.97131 0.0
H1060 H 0.68002 0.73777 0.90079 0.0
H1061 H 0.68679 0.75065 0.98372 0.0
C1062 C 0.66035 0.81233 0.17352 0.0
C1063 C 0.66968 0.82313 0.14258 0.0
C1064 C 0.66144 0.79512 0.16712 0.0
C1065 C 0.67218 0.78832 0.13042 0.0
C1066 C 0.68108 0.79909 0.09816 0.0
C1067 C 0.67985 0.81639 0.10421 0.0
C1068 C 0.67434 0.76999 0.1268 0.0
C1069 C 0.67138 0.7621 0.07992 0.0
C1070 C 0.67848 0.76021 0.16996 0.0
C1071 C 0.68274 0.76783 0.21986 0.0
C1072 C 0.69543 0.77987 0.22348 0.0
C1073 C 0.69925 0.78715 0.27049 0.0
C1074 C 0.69054 0.78241 0.31426 0.0
C1075 C 0.67804 0.77035 0.31112 0.0
C1076 C 0.67416 0.76304 0.26418 0.0
C1077 C 0.6889 0.69182 0.07538 0.0
C1078 C 0.67857 0.68156 0.10513 0.0
C1079 C 0.68841 0.70911 0.08081 0.0
C1080 C 0.67743 0.71652 0.11566 0.0
C1081 C 0.66747 0.70631 0.14661 0.0
C1082 C 0.66795 0.68897 0.1412 0.0
C1083 C 0.67598 0.73491 0.11862 0.0
C1084 C 0.67907 0.7428 0.16538 0.0
C1085 C 0.67202 0.74468 0.07534 0.0
C1086 C 0.66789 0.73703 0.02539 0.0
C1087 C 0.65499 0.72526 0.02129 0.0
C1088 C 0.65128 0.71798 0.97419 0.0
C1089 C 0.66032 0.72247 0.93082 0.0
C1090 C 0.67305 0.73429 0.93444 0.0
C1091 C 0.67681 0.74159 0.98147 0.0
H1092 H 0.65743 0.71682 0.89439 0.0
H1093 H 0.69352 0.78806 0.35062 0.0
H1094 H 0.82599 0.32104 0.92641 0.0
H1095 H 0.79568 0.32165 0.93845 0.0
H1096 H 0.79013 0.34833 0.79682 0.0
H1097 H 0.8203 0.34783 0.78477 0.0
H1098 H 0.76972 0.36078 0.87402 0.0
H1099 H 0.78401 0.30795 0.79719 0.0
H1100 H 0.799 0.28119 0.79192 0.0
H1101 H 0.77811 0.26618 0.93535 0.0
H1102 H 0.76317 0.29297 0.94181 0.0
H1103 H 0.68364 0.34836 0.82848 0.0
H1104 H 0.71389 0.34826 0.81783 0.0
H1105 H 0.7188 0.31637 0.94928 0.0
H1106 H 0.68862 0.31584 0.95877 0.0
H1107 H 0.73976 0.30672 0.87848 0.0
H1108 H 0.72529 0.35872 0.95665 0.0
H1109 H 0.71051 0.38552 0.96496 0.0
H1110 H 0.73186 0.40226 0.82398 0.0
H1111 H 0.74659 0.37546 0.81446 0.0
C1112 C 0.81833 0.32735 0.8985 0.0
C1113 C 0.8255 0.33448 0.85481 0.0
C1114 C 0.80102 0.32756 0.90515 0.0
C1115 C 0.79067 0.33495 0.86831 0.0
C1116 C 0.79788 0.34259 0.82569 0.0
C1117 C 0.81511 0.34222 0.81878 0.0
C1118 C 0.77226 0.33408 0.87259 0.0
C1119 C 0.76314 0.34898 0.87454 0.0
C1120 C 0.76373 0.31867 0.87422 0.0
C1121 C 0.77262 0.30253 0.87024 0.0
C1122 C 0.78272 0.299 0.82781 0.0
C1123 C 0.79119 0.28382 0.82457 0.0
C1124 C 0.78955 0.27201 0.86335 0.0
C1125 C 0.77939 0.27535 0.90538 0.0
C1126 C 0.77091 0.29052 0.90884 0.0
C1127 C 0.69108 0.34092 0.85416 0.0
C1128 C 0.68366 0.33192 0.89406 0.0
C1129 C 0.70844 0.3411 0.84857 0.0
C1130 C 0.71866 0.33248 0.88318 0.0
C1131 C 0.71122 0.32313 0.92212 0.0
C1132 C 0.69394 0.3229 0.92759 0.0
C1133 C 0.73713 0.33344 0.87993 0.0
C1134 C 0.7463 0.31855 0.87811 0.0
C1135 C 0.7457 0.34887 0.87891 0.0
C1136 C 0.7369 0.36502 0.88457 0.0
C1137 C 0.72673 0.36807 0.92722 0.0
C1138 C 0.71838 0.38327 0.93218 0.0
C1139 C 0.72021 0.39557 0.89495 0.0
C1140 C 0.73043 0.39271 0.85274 0.0
C1141 C 0.73879 0.37752 0.84756 0.0
H1142 H 0.71373 0.40733 0.89887 0.0
H1143 H 0.79611 0.26026 0.86077 0.0
H1144 H 0.81609 0.82439 0.6718 0.0
H1145 H 0.8149 0.79405 0.6819 0.0
H1146 H 0.85176 0.78835 0.56345 0.0
H1147 H 0.85272 0.81852 0.55269 0.0
H1148 H 0.8273 0.76789 0.54659 0.0
H1149 H 0.86061 0.78183 0.69267 0.0
H1150 H 0.86738 0.79646 0.77277 0.0
H1151 H 0.82391 0.77566 0.84364 0.0
H1152 H 0.81675 0.76109 0.76371 0.0
H1153 H 0.84612 0.68171 0.58743 0.0
H1154 H 0.84689 0.71201 0.57739 0.0
H1155 H 0.80842 0.71712 0.69106 0.0
H1156 H 0.80761 0.6869 0.70123 0.0
H1157 H 0.83346 0.7378 0.71048 0.0
H1158 H 0.8005 0.7236 0.56346 0.0
H1159 H 0.79423 0.70885 0.4832 0.0
H1160 H 0.83778 0.73004 0.41392 0.0
H1161 H 0.84444 0.74475 0.49403 0.0
C1162 C 0.8242 0.81667 0.64883 0.0
C1163 C 0.83462 0.82382 0.61183 0.0
C1164 C 0.82348 0.79932 0.65444 0.0
C1165 C 0.83332 0.78888 0.6236 0.0
C1166 C 0.84399 0.7961 0.58752 0.0
C1167 C 0.84457 0.81335 0.58155 0.0
C1168 C 0.83208 0.77042 0.62712 0.0
C1169 C 0.82887 0.76131 0.58237 0.0
C1170 C 0.83375 0.7618 0.67389 0.0
C1171 C 0.83806 0.77051 0.72204 0.0
C1172 C 0.85243 0.78048 0.72522 0.0
C1173 C 0.85635 0.78874 0.77061 0.0
C1174 C 0.84606 0.78703 0.81323 0.0
C1175 C 0.83185 0.777 0.81058 0.0
C1176 C 0.82787 0.76873 0.76525 0.0
C1177 C 0.83749 0.68924 0.60915 0.0
C1178 C 0.82661 0.68188 0.64452 0.0
C1179 C 0.83803 0.70659 0.60368 0.0
C1180 C 0.82764 0.71686 0.63329 0.0
C1181 C 0.81658 0.70948 0.66791 0.0
C1182 C 0.81609 0.6922 0.67352 0.0
C1183 C 0.82872 0.73531 0.62996 0.0
C1184 C 0.83189 0.7444 0.67473 0.0
C1185 C 0.82709 0.74391 0.58318 0.0
C1186 C 0.82306 0.73515 0.5349 0.0
C1187 C 0.80881 0.72501 0.53123 0.0
C1188 C 0.80518 0.71668 0.48574 0.0
C1189 C 0.81563 0.71847 0.44353 0.0
C1190 C 0.82971 0.72865 0.44667 0.0
C1191 C 0.83342 0.737 0.49209 0.0
H1192 H 0.81279 0.71201 0.40835 0.0
H1193 H 0.84911 0.79343 0.84834 0.0
H1194 H 0.81874 0.19317 0.47101 0.0
H1195 H 0.78851 0.19209 0.46192 0.0
H1196 H 0.79369 0.1596 0.33191 0.0
H1197 H 0.82395 0.16024 0.34151 0.0
H1198 H 0.76993 0.18467 0.3175 0.0
H1199 H 0.78371 0.1432 0.44224 0.0
H1200 H 0.79671 0.1325 0.52082 0.0
H1201 H 0.76802 0.16692 0.61027 0.0
H1202 H 0.75502 0.17801 0.53209 0.0
H1203 H 0.68831 0.15437 0.30098 0.0
H1204 H 0.71835 0.15572 0.31352 0.0
H1205 H 0.7112 0.18628 0.44708 0.0
H1206 H 0.68094 0.185 0.43461 0.0
H1207 H 0.73592 0.16296 0.46083 0.0
H1208 H 0.72179 0.2042 0.33668 0.0
H1209 H 0.70879 0.21506 0.2583 0.0
H1210 H 0.73816 0.18146 0.16801 0.0
H1211 H 0.75116 0.17022 0.24596 0.0
C1212 C 0.81348 0.18588 0.44018 0.0
C1213 C 0.82385 0.17702 0.40649 0.0
C1214 C 0.79619 0.18526 0.43515 0.0
C1215 C 0.78885 0.17568 0.39648 0.0
C1216 C 0.79912 0.16715 0.36187 0.0
C1217 C 0.81647 0.16769 0.36707 0.0
C1218 C 0.77046 0.17427 0.39306 0.0
C1219 C 0.7625 0.17973 0.34854 0.0
C1220 C 0.76077 0.16823 0.43417 0.0
C1221 C 0.76853 0.16156 0.48126 0.0
C1222 C 0.78028 0.14859 0.47862 0.0
C1223 C 0.78763 0.14244 0.5231 0.0
C1224 C 0.78323 0.14906 0.5705 0.0
C1225 C 0.77144 0.16182 0.57352 0.0
C1226 C 0.76407 0.16804 0.52914 0.0
C1227 C 0.6931 0.16127 0.33333 0.0
C1228 C 0.68222 0.16952 0.36693 0.0
C1229 C 0.71029 0.16207 0.34035 0.0
C1230 C 0.71704 0.17133 0.38072 0.0
C1231 C 0.70623 0.17907 0.41562 0.0
C1232 C 0.68894 0.17823 0.40868 0.0
C1233 C 0.73537 0.17328 0.38514 0.0
C1234 C 0.74333 0.16795 0.42983 0.0
C1235 C 0.74508 0.17948 0.34422 0.0
C1236 C 0.73734 0.18626 0.29722 0.0
C1237 C 0.72539 0.19904 0.30015 0.0
C1238 C 0.71803 0.20527 0.25579 0.0
C1239 C 0.72262 0.19892 0.20821 0.0
C1240 C 0.73461 0.18635 0.20489 0.0
C1241 C 0.74198 0.18005 0.24915 0.0
H1242 H 0.71691 0.20377 0.1739 0.0
H1243 H 0.78893 0.14427 0.60489 0.0
H1244 H 0.19564 0.31839 0.69119 0.0
H1245 H 0.19429 0.28821 0.68128 0.0
H1246 H 0.15515 0.29371 0.5699 0.0
H1247 H 0.15616 0.32403 0.58069 0.0
H1248 H 0.14736 0.27045 0.64031 0.0
H1249 H 0.19401 0.28197 0.53345 0.0
H1250 H 0.22121 0.29398 0.51007 0.0
H1251 H 0.24482 0.26614 0.62964 0.0
H1252 H 0.21771 0.25413 0.65424 0.0
H1253 H 0.14925 0.18728 0.54824 0.0
H1254 H 0.15048 0.21744 0.55928 0.0
H1255 H 0.1877 0.2115 0.67645 0.0
H1256 H 0.18666 0.18113 0.66505 0.0
H1257 H 0.19645 0.23487 0.60345 0.0
H1258 H 0.14923 0.22312 0.70903 0.0
H1259 H 0.12193 0.21077 0.72945 0.0
H1260 H 0.09923 0.2389 0.60888 0.0
H1261 H 0.12646 0.25125 0.58723 0.0
C1262 C 0.18688 0.3132 0.66405 0.0
C1263 C 0.1762 0.32364 0.63609 0.0
C1264 C 0.18617 0.29593 0.6583 0.0
C1265 C 0.17475 0.28867 0.62445 0.0
C1266 C 0.16415 0.29906 0.59599 0.0
C1267 C 0.1649 0.31641 0.60164 0.0
C1268 C 0.17342 0.27024 0.62083 0.0
C1269 C 0.15804 0.26269 0.63146 0.0
C1270 C 0.18745 0.26007 0.61064 0.0
C1271 C 0.20379 0.26727 0.59601 0.0
C1272 C 0.20498 0.27852 0.55506 0.0
C1273 C 0.22039 0.2853 0.54153 0.0
C1274 C 0.23473 0.28086 0.56844 0.0
C1275 C 0.23369 0.26958 0.60887 0.0
C1276 C 0.21831 0.26277 0.6226 0.0
C1277 C 0.15756 0.19237 0.57684 0.0
C1278 C 0.16772 0.18183 0.60621 0.0
C1279 C 0.1582 0.20961 0.58322 0.0
C1280 C 0.16908 0.21672 0.61896 0.0
C1281 C 0.17914 0.20624 0.64885 0.0
C1282 C 0.1784 0.1889 0.64274 0.0
C1283 C 0.17042 0.23512 0.62303 0.0
C1284 C 0.18579 0.24266 0.61242 0.0
C1285 C 0.15636 0.24527 0.63295 0.0
C1286 C 0.13993 0.238 0.64623 0.0
C1287 C 0.13845 0.22658 0.68662 0.0
C1288 C 0.12298 0.2196 0.69845 0.0
C1289 C 0.10887 0.22401 0.67039 0.0
C1290 C 0.11018 0.23548 0.63055 0.0
C1291 C 0.12563 0.24249 0.61852 0.0
H1292 H 0.0969 0.21858 0.67958 0.0
H1293 H 0.24665 0.28612 0.55789 0.0
H1294 H 0.31508 0.81785 0.28562 0.0
H1295 H 0.28494 0.81833 0.2966 0.0
H1296 H 0.29068 0.84551 0.43731 0.0
H1297 H 0.32089 0.84568 0.42576 0.0
H1298 H 0.26723 0.81826 0.44104 0.0
H1299 H 0.27966 0.86658 0.3399 0.0
H1300 H 0.29226 0.88168 0.26778 0.0
H1301 H 0.26411 0.85196 0.16229 0.0
H1302 H 0.25152 0.83649 0.23381 0.0
H1303 H 0.1835 0.84136 0.4714 0.0
H1304 H 0.21367 0.84264 0.46132 0.0
H1305 H 0.2091 0.82309 0.30865 0.0
H1306 H 0.17874 0.82207 0.31834 0.0
H1307 H 0.23226 0.84677 0.31168 0.0
H1308 H 0.22027 0.79799 0.40959 0.0
H1309 H 0.20792 0.78175 0.47978 0.0
H1310 H 0.23539 0.8107 0.58892 0.0
H1311 H 0.24773 0.82728 0.51937 0.0
C1312 C 0.31 0.82388 0.31913 0.0
C1313 C 0.32053 0.83148 0.35522 0.0
C1314 C 0.29274 0.82414 0.32526 0.0
C1315 C 0.2856 0.83202 0.36761 0.0
C1316 C 0.296 0.83927 0.40449 0.0
C1317 C 0.31332 0.83917 0.39811 0.0
C1318 C 0.26725 0.83293 0.37248 0.0
C1319 C 0.25957 0.82471 0.41328 0.0
C1320 C 0.25729 0.84093 0.33529 0.0
C1321 C 0.26477 0.85027 0.29221 0.0
C1322 C 0.27627 0.86316 0.30131 0.0
C1323 C 0.28339 0.8718 0.26054 0.0
C1324 C 0.27902 0.86775 0.21048 0.0
C1325 C 0.26749 0.85507 0.20109 0.0
C1326 C 0.26035 0.84637 0.24173 0.0
C1327 C 0.18891 0.83746 0.4355 0.0
C1328 C 0.17876 0.83166 0.39558 0.0
C1329 C 0.20617 0.83812 0.42987 0.0
C1330 C 0.2137 0.83265 0.38461 0.0
C1331 C 0.20356 0.82735 0.34397 0.0
C1332 C 0.18621 0.82686 0.34942 0.0
C1333 C 0.23215 0.83209 0.38039 0.0
C1334 C 0.23987 0.84035 0.33962 0.0
C1335 C 0.24216 0.82397 0.41736 0.0
C1336 C 0.2348 0.81398 0.45928 0.0
C1337 C 0.22358 0.80098 0.44857 0.0
C1338 C 0.2166 0.7917 0.48824 0.0
C1339 C 0.22084 0.79522 0.53879 0.0
C1340 C 0.2321 0.808 0.54975 0.0
C1341 C 0.23911 0.81734 0.51022 0.0
H1342 H 0.21542 0.78802 0.56945 0.0
H1343 H 0.28454 0.87446 0.17896 0.0
H1344 H 0.3086 0.11923 0.99538 0.0
H1345 H 0.28491 0.118 0.9371 0.0
H1346 H 0.28526 0.06434 0.94541 0.0
H1347 H 0.30885 0.06545 0.00434 0.0
H1348 H 0.27989 0.10502 0.84523 0.0
H1349 H 0.24517 0.04964 0.93551 0.0
H1350 H 0.24136 0.03593 0.01884 0.0
H1351 H 0.25278 0.08185 0.09543 0.0
H1352 H 0.25656 0.09584 0.01259 0.0
H1353 H 0.19719 0.06529 0.74427 0.0
H1354 H 0.22114 0.06429 0.8021 0.0
H1355 H 0.22386 0.11794 0.8008 0.0
H1356 H 0.20011 0.11907 0.74295 0.0
H1357 H 0.22801 0.07583 0.89576 0.0
H1358 H 0.263 0.13087 0.80199 0.0
H1359 H 0.26709 0.14348 0.71711 0.0
H1360 H 0.25589 0.09657 0.64594 0.0
H1361 H 0.25158 0.08378 0.73024 0.0
C1362 C 0.30379 0.10712 0.98448 0.0
C1363 C 0.31069 0.09244 0.0049 0.0
C1364 C 0.29017 0.10645 0.95111 0.0
C1365 C 0.28301 0.0911 0.93745 0.0
C1366 C 0.29028 0.07637 0.95611 0.0
C1367 C 0.30393 0.07703 0.98948 0.0
C1368 C 0.26795 0.09061 0.90392 0.0
C1369 C 0.26849 0.09881 0.8567 0.0
C1370 C 0.25316 0.08206 0.9178 0.0
C1371 C 0.25132 0.07372 0.96786 0.0
C1372 C 0.24689 0.05679 0.97016 0.0
C1373 C 0.24474 0.04897 0.01729 0.0
C1374 C 0.24687 0.05799 0.06239 0.0
C1375 C 0.25122 0.07485 0.06048 0.0
C1376 C 0.25341 0.08272 0.01344 0.0
C1377 C 0.20272 0.0769 0.75681 0.0
C1378 C 0.19668 0.09226 0.73852 0.0
C1379 C 0.21648 0.0763 0.78982 0.0
C1380 C 0.22459 0.09102 0.80506 0.0
C1381 C 0.21811 0.10637 0.78875 0.0
C1382 C 0.20438 0.10699 0.75588 0.0
C1383 C 0.23992 0.09041 0.83744 0.0
C1384 C 0.23943 0.08201 0.88433 0.0
C1385 C 0.25482 0.09865 0.82317 0.0
C1386 C 0.25683 0.10643 0.77235 0.0
C1387 C 0.26134 0.12329 0.76816 0.0
C1388 C 0.26366 0.13048 0.72016 0.0
C1389 C 0.26166 0.12087 0.67612 0.0
C1390 C 0.25727 0.10407 0.68 0.0
C1391 C 0.25481 0.09686 0.72787 0.0
H1392 H 0.2636 0.12643 0.63904 0.0
H1393 H 0.24506 0.05193 0.09878 0.0
H1394 H 0.06327 0.80467 0.26597 0.0
H1395 H 0.06242 0.78055 0.20862 0.0
H1396 H 0.11325 0.78984 0.1645 0.0
H1397 H 0.11442 0.81367 0.22312 0.0
H1398 H 0.08468 0.78113 0.0815 0.0
H1399 H 0.11207 0.76399 0.24181 0.0
H1400 H 0.11197 0.76115 0.33544 0.0
H1401 H 0.06739 0.73172 0.32703 0.0
H1402 H 0.06697 0.7348 0.2337 0.0
H1403 H 0.11488 0.70902 0.96288 0.0
H1404 H 0.11255 0.73239 0.02194 0.0
H1405 H 0.06818 0.71086 0.08653 0.0
H1406 H 0.07014 0.68745 0.02632 0.0
H1407 H 0.09047 0.72533 0.16113 0.0
H1408 H 0.0611 0.73914 0.01457 0.0
H1409 H 0.05407 0.7427 0.92393 0.0
H1410 H 0.09348 0.77848 0.9079 0.0
H1411 H 0.10115 0.77469 0.99809 0.0
C1412 C 0.07416 0.80185 0.24321 0.0
C1413 C 0.08891 0.81117 0.249 0.0
C1414 C 0.07368 0.78797 0.21075 0.0
C1415 C 0.08781 0.78335 0.18266 0.0
C1416 C 0.10222 0.79319 0.18597 0.0
C1417 C 0.10285 0.80683 0.21933 0.0
C1418 C 0.08784 0.76779 0.15181 0.0
C1419 C 0.08624 0.76895 0.09874 0.0
C1420 C 0.08885 0.75184 0.17469 0.0
C1421 C 0.08937 0.74981 0.23082 0.0
C1422 C 0.10214 0.75709 0.26002 0.0
C1423 C 0.10218 0.75543 0.3131 0.0
C1424 C 0.08962 0.74634 0.33732 0.0
C1425 C 0.07705 0.73884 0.30845 0.0
C1426 C 0.07691 0.74055 0.25545 0.0
C1427 C 0.10473 0.70903 0.99008 0.0
C1428 C 0.09266 0.69629 0.98957 0.0
C1429 C 0.1034 0.72249 0.02376 0.0
C1430 C 0.09012 0.72347 0.05841 0.0
C1431 C 0.07852 0.71037 0.0601 0.0
C1432 C 0.07967 0.69699 0.02562 0.0
C1433 C 0.08803 0.7387 0.09041 0.0
C1434 C 0.0891 0.7375 0.14368 0.0
C1435 C 0.08584 0.75459 0.06793 0.0
C1436 C 0.08188 0.75642 0.01298 0.0
C1437 C 0.06851 0.7475 0.99149 0.0
C1438 C 0.06438 0.74959 0.94019 0.0
C1439 C 0.07336 0.76073 0.91007 0.0
C1440 C 0.08659 0.76975 0.93112 0.0
C1441 C 0.09087 0.76761 0.98235 0.0
H1442 H 0.06993 0.76244 0.87058 0.0
H1443 H 0.08966 0.74506 0.3784 0.0
H1444 H 0.6921 0.93945 0.99564 0.0
H1445 H 0.71618 0.9411 0.93856 0.0
H1446 H 0.72168 0.88772 0.94523 0.0
H1447 H 0.69776 0.88592 0.00214 0.0
H1448 H 0.75085 0.90305 0.96432 0.0
H1449 H 0.70778 0.90703 0.83756 0.0
H1450 H 0.6826 0.91869 0.79728 0.0
H1451 H 0.70685 0.9661 0.78186 0.0
H1452 H 0.73211 0.95478 0.82271 0.0
H1453 H 0.80788 0.88771 0.76323 0.0
H1454 H 0.78451 0.88928 0.82237 0.0
H1455 H 0.78292 0.94265 0.80431 0.0
H1456 H 0.80628 0.94119 0.74445 0.0
H1457 H 0.75233 0.92942 0.7935 0.0
H1458 H 0.7959 0.92517 0.91624 0.0
H1459 H 0.82113 0.9136 0.95641 0.0
H1460 H 0.79608 0.86698 0.98006 0.0
H1461 H 0.77075 0.87819 0.93936 0.0
C1462 C 0.6982 0.92801 0.98417 0.0
C1463 C 0.69293 0.91255 0.00378 0.0
C1464 C 0.71203 0.92899 0.95154 0.0
C1465 C 0.72084 0.91454 0.93767 0.0
C1466 C 0.7152 0.89906 0.95561 0.0
C1467 C 0.7014 0.89806 0.98801 0.0
C1468 C 0.7364 0.91549 0.90661 0.0
C1469 C 0.75111 0.90865 0.9267 0.0
C1470 C 0.73695 0.92328 0.85821 0.0
C1471 C 0.72177 0.93011 0.83373 0.0
C1472 C 0.70769 0.91999 0.82601 0.0
C1473 C 0.69342 0.92652 0.80299 0.0
C1474 C 0.69311 0.94314 0.78717 0.0
C1475 C 0.7071 0.95324 0.79422 0.0
C1476 C 0.7214 0.94677 0.81728 0.0
C1477 C 0.80281 0.89985 0.77245 0.0
C1478 C 0.80905 0.91433 0.74891 0.0
C1479 C 0.7894 0.90072 0.80644 0.0
C1480 C 0.7819 0.91609 0.81802 0.0
C1481 C 0.78844 0.93064 0.79596 0.0
C1482 C 0.80192 0.92979 0.76203 0.0
C1483 C 0.76673 0.91676 0.85094 0.0
C1484 C 0.7521 0.92392 0.83126 0.0
C1485 C 0.76626 0.90929 0.89981 0.0
C1486 C 0.78146 0.90248 0.92433 0.0
C1487 C 0.79581 0.9124 0.92962 0.0
C1488 C 0.81012 0.90592 0.95256 0.0
C1489 C 0.81022 0.88955 0.97067 0.0
C1490 C 0.79599 0.87965 0.96597 0.0
C1491 C 0.78164 0.88607 0.94302 0.0
H1492 H 0.82131 0.88456 0.98843 0.0
H1493 H 0.68205 0.94817 0.76933 0.0
H1494 H 0.88624 0.20131 0.25925 0.0
H1495 H 0.88783 0.22443 0.19939 0.0
H1496 H 0.941 0.21792 0.18819 0.0
H1497 H 0.93957 0.19483 0.24911 0.0
H1498 H 0.93358 0.25006 0.2024 0.0
H1499 H 0.91463 0.20753 0.0885 0.0
H1500 H 0.89664 0.1846 0.05878 0.0
H1501 H 0.85428 0.21723 0.06058 0.0
H1502 H 0.87198 0.24032 0.09097 0.0
H1503 H 0.94147 0.30814 0.99554 0.0
H1504 H 0.94226 0.28435 0.05362 0.0
H1505 H 0.88874 0.28601 0.06698 0.0
H1506 H 0.88784 0.30947 0.00789 0.0
H1507 H 0.89785 0.25552 0.04913 0.0
H1508 H 0.91649 0.29772 0.16648 0.0
H1509 H 0.93438 0.32065 0.19688 0.0
H1510 H 0.97719 0.2887 0.18896 0.0
H1511 H 0.95958 0.26563 0.15787 0.0
C1512 C 0.89828 0.20457 0.24356 0.0
C1513 C 0.91278 0.1961 0.25916 0.0
C1514 C 0.89916 0.21784 0.20909 0.0
C1515 C 0.91453 0.22295 0.18884 0.0
C1516 C 0.92899 0.21426 0.20323 0.0
C1517 C 0.92813 0.20094 0.2378 0.0
C1518 C 0.91549 0.23783 0.15467 0.0
C1519 C 0.92597 0.25113 0.16838 0.0
C1520 C 0.90529 0.23948 0.11086 0.0
C1521 C 0.89462 0.22562 0.09243 0.0
C1522 C 0.90146 0.20979 0.08292 0.0
C1523 C 0.89131 0.19677 0.06589 0.0
C1524 C 0.87432 0.19945 0.05791 0.0
C1525 C 0.86744 0.21517 0.06682 0.0
C1526 C 0.87753 0.22824 0.08389 0.0
C1527 C 0.92989 0.30369 0.01168 0.0
C1528 C 0.91459 0.31079 0.99693 0.0
C1529 C 0.93035 0.29002 0.04499 0.0
C1530 C 0.91556 0.2833 0.06504 0.0
C1531 C 0.90034 0.29083 0.05194 0.0
C1532 C 0.89985 0.30436 0.01832 0.0
C1533 C 0.91575 0.2679 0.09724 0.0
C1534 C 0.9055 0.25446 0.08305 0.0
C1535 C 0.92614 0.26615 0.14062 0.0
C1536 C 0.93674 0.28001 0.15934 0.0
C1537 C 0.92974 0.29563 0.17083 0.0
C1538 C 0.93982 0.30864 0.18826 0.0
C1539 C 0.95692 0.30615 0.19471 0.0
C1540 C 0.96395 0.29062 0.18387 0.0
C1541 C 0.95392 0.27757 0.16639 0.0
H1542 H 0.96471 0.31624 0.20821 0.0
H1543 H 0.86649 0.18934 0.04473 0.0
H1544 H 0.19842 0.44118 0.50482 0.0
H1545 H 0.22218 0.44202 0.44655 0.0
H1546 H 0.21808 0.38897 0.42324 0.0
H1547 H 0.19461 0.38799 0.48218 0.0
H1548 H 0.24892 0.39647 0.445 0.0
H1549 H 0.20826 0.41863 0.32865 0.0
H1550 H 0.18629 0.43792 0.29988 0.0
H1551 H 0.21993 0.4792 0.31552 0.0
H1552 H 0.24205 0.46018 0.34502 0.0
H1553 H 0.3046 0.38613 0.23755 0.0
H1554 H 0.28098 0.38754 0.29569 0.0
H1555 H 0.28888 0.44033 0.31484 0.0
H1556 H 0.31242 0.4391 0.25566 0.0
H1557 H 0.25681 0.43426 0.29759 0.0
H1558 H 0.2977 0.412 0.41136 0.0
H1559 H 0.31971 0.39272 0.43983 0.0
H1560 H 0.28561 0.35164 0.42923 0.0
H1561 H 0.26344 0.37065 0.40004 0.0
C1562 C 0.20229 0.42975 0.48631 0.0
C1563 C 0.19455 0.41451 0.49836 0.0
C1564 C 0.21595 0.43024 0.45297 0.0
C1565 C 0.22204 0.41555 0.43033 0.0
C1566 C 0.21377 0.40047 0.44038 0.0
C1567 C 0.20023 0.39995 0.47393 0.0
C1568 C 0.2376 0.41559 0.39895 0.0
C1569 C 0.25051 0.40459 0.41232 0.0
C1570 C 0.24004 0.42655 0.3573 0.0
C1571 C 0.22676 0.438 0.33956 0.0
C1572 C 0.21093 0.43184 0.32636 0.0
C1573 C 0.19846 0.44272 0.30984 0.0
C1574 C 0.2017 0.45978 0.30602 0.0
C1575 C 0.21743 0.46599 0.31857 0.0
C1576 C 0.22995 0.45516 0.33515 0.0
C1577 C 0.30154 0.39803 0.25466 0.0
C1578 C 0.31052 0.4125 0.24175 0.0
C1579 C 0.28798 0.39881 0.28812 0.0
C1580 C 0.28311 0.41403 0.31007 0.0
C1581 C 0.29233 0.42843 0.29842 0.0
C1582 C 0.3059 0.42767 0.26481 0.0
C1583 C 0.268 0.41498 0.34325 0.0
C1584 C 0.25521 0.42618 0.33035 0.0
C1585 C 0.26565 0.4042 0.38538 0.0
C1586 C 0.27895 0.39274 0.40309 0.0
C1587 C 0.29492 0.39884 0.41474 0.0
C1588 C 0.30743 0.38796 0.43108 0.0
C1589 C 0.30408 0.37096 0.43623 0.0
C1590 C 0.2882 0.36481 0.42518 0.0
C1591 C 0.27565 0.37564 0.4088 0.0
H1592 H 0.31377 0.36256 0.44887 0.0
H1593 H 0.19202 0.46819 0.29321 0.0
H1594 H 0.38398 0.8053 0.49702 0.0
H1595 H 0.38578 0.78176 0.55515 0.0
H1596 H 0.43908 0.78771 0.5634 0.0
H1597 H 0.43745 0.81119 0.50396 0.0
H1598 H 0.43151 0.75584 0.54845 0.0
H1599 H 0.41327 0.7976 0.66555 0.0
H1600 H 0.39564 0.8205 0.69742 0.0
H1601 H 0.35293 0.78833 0.69479 0.0
H1602 H 0.37026 0.76529 0.66225 0.0
H1603 H 0.43893 0.69679 0.75412 0.0
H1604 H 0.44004 0.72075 0.69662 0.0
H1605 H 0.38667 0.71884 0.67912 0.0
H1606 H 0.38541 0.69512 0.7371 0.0
H1607 H 0.39603 0.74945 0.70183 0.0
H1608 H 0.41426 0.70802 0.5813 0.0
H1609 H 0.43202 0.68521 0.54944 0.0
H1610 H 0.47501 0.71687 0.55946 0.0
H1611 H 0.45753 0.73981 0.59202 0.0
C1612 C 0.39611 0.80184 0.51171 0.0
C1613 C 0.41058 0.81026 0.49565 0.0
C1614 C 0.3971 0.78832 0.5452 0.0
C1615 C 0.41256 0.78293 0.56413 0.0
C1616 C 0.427 0.79158 0.54937 0.0
C1617 C 0.42603 0.80512 0.51566 0.0
C1618 C 0.41359 0.76783 0.59734 0.0
C1619 C 0.42397 0.75457 0.58251 0.0
C1620 C 0.40351 0.76594 0.64127 0.0
C1621 C 0.39305 0.77975 0.66107 0.0
C1622 C 0.4001 0.79544 0.67143 0.0
C1623 C 0.39016 0.80844 0.68967 0.0
C1624 C 0.37317 0.80589 0.69802 0.0
C1625 C 0.36609 0.7903 0.68827 0.0
C1626 C 0.37597 0.77726 0.66999 0.0
C1627 C 0.42745 0.70121 0.73714 0.0
C1628 C 0.41207 0.69399 0.7505 0.0
C1629 C 0.42811 0.71497 0.70422 0.0
C1630 C 0.41343 0.7217 0.68345 0.0
C1631 C 0.39817 0.714 0.69485 0.0
C1632 C 0.39749 0.70033 0.72786 0.0
C1633 C 0.41374 0.73734 0.65251 0.0
C1634 C 0.40364 0.75073 0.6679 0.0
C1635 C 0.4241 0.73935 0.60923 0.0
C1636 C 0.43461 0.72558 0.58961 0.0
C1637 C 0.42752 0.71008 0.57711 0.0
C1638 C 0.43753 0.69713 0.55884 0.0
C1639 C 0.45464 0.69957 0.55257 0.0
C1640 C 0.46176 0.71498 0.56441 0.0
C1641 C 0.45181 0.72797 0.58273 0.0
H1642 H 0.46236 0.68954 0.53842 0.0
H1643 H 0.3655 0.81597 0.71214 0.0
H1644 H 0.69326 0.56538 0.25745 0.0
H1645 H 0.71725 0.56334 0.31492 0.0
H1646 H 0.72478 0.6164 0.3037 0.0
H1647 H 0.70099 0.61856 0.24637 0.0
H1648 H 0.7533 0.60007 0.2865 0.0
H1649 H 0.70994 0.59833 0.41286 0.0
H1650 H 0.68442 0.58768 0.45372 0.0
H1651 H 0.70739 0.5398 0.47321 0.0
H1652 H 0.73299 0.5501 0.43182 0.0
H1653 H 0.80919 0.61681 0.48955 0.0
H1654 H 0.78623 0.61479 0.42895 0.0
H1655 H 0.78457 0.56156 0.45043 0.0
H1656 H 0.80758 0.56348 0.51157 0.0
H1657 H 0.75378 0.57532 0.45961 0.0
H1658 H 0.79783 0.57763 0.33827 0.0
H1659 H 0.8234 0.58838 0.29801 0.0
H1660 H 0.79921 0.63512 0.26892 0.0
H1661 H 0.77355 0.62474 0.30967 0.0
C1662 C 0.6998 0.57667 0.26802 0.0
C1663 C 0.69515 0.59213 0.24699 0.0
C1664 C 0.71357 0.57548 0.30086 0.0
C1665 C 0.72293 0.58971 0.31356 0.0
C1666 C 0.71788 0.60521 0.29422 0.0
C1667 C 0.70417 0.60643 0.26156 0.0
C1668 C 0.73842 0.58851 0.3449 0.0
C1669 C 0.75334 0.59482 0.32458 0.0
C1670 C 0.73869 0.58116 0.39395 0.0
C1671 C 0.7233 0.57493 0.41869 0.0
C1672 C 0.70949 0.58548 0.42543 0.0
C1673 C 0.69503 0.57952 0.44877 0.0
C1674 C 0.69427 0.56306 0.4659 0.0
C1675 C 0.70799 0.55254 0.45983 0.0
C1676 C 0.72248 0.55843 0.43646 0.0
C1677 C 0.80421 0.60461 0.48071 0.0
C1678 C 0.81031 0.59031 0.50556 0.0
C1679 C 0.79103 0.60347 0.44592 0.0
C1680 C 0.78361 0.58802 0.43497 0.0
C1681 C 0.79005 0.57363 0.45828 0.0
C1682 C 0.80334 0.57474 0.49291 0.0
C1683 C 0.76858 0.58714 0.40151 0.0
C1684 C 0.75376 0.58044 0.42136 0.0
C1685 C 0.76839 0.59414 0.35197 0.0
C1686 C 0.7838 0.60045 0.32743 0.0
C1687 C 0.798 0.59025 0.32367 0.0
C1688 C 0.8125 0.59627 0.30068 0.0
C1689 C 0.81294 0.61244 0.28102 0.0
C1690 C 0.79886 0.62261 0.28421 0.0
C1691 C 0.78432 0.61666 0.30719 0.0
H1692 H 0.82418 0.61707 0.26323 0.0
H1693 H 0.68306 0.55847 0.48399 0.0
H1694 H 0.61987 0.30699 0.75047 0.0
H1695 H 0.61803 0.28354 0.69191 0.0
H1696 H 0.56456 0.28843 0.68826 0.0
H1697 H 0.56626 0.31181 0.74821 0.0
H1698 H 0.5728 0.25678 0.70217 0.0
H1699 H 0.58943 0.29882 0.58391 0.0
H1700 H 0.60644 0.32199 0.55086 0.0
H1701 H 0.64966 0.29049 0.55012 0.0
H1702 H 0.63295 0.26718 0.58382 0.0
H1703 H 0.56478 0.19735 0.4974 0.0
H1704 H 0.5637 0.22145 0.55448 0.0
H1705 H 0.61721 0.22047 0.56833 0.0
H1706 H 0.61842 0.19659 0.51081 0.0
H1707 H 0.60714 0.25092 0.54613 0.0
H1708 H 0.59063 0.20929 0.66804 0.0
H1709 H 0.57356 0.18619 0.70128 0.0
H1710 H 0.52993 0.21703 0.6944 0.0
H1711 H 0.54671 0.24026 0.66048 0.0
C1712 C 0.6077 0.30334 0.73666 0.0
C1713 C 0.59321 0.31141 0.75424 0.0
C1714 C 0.60667 0.28987 0.70291 0.0
C1715 C 0.59116 0.28419 0.68519 0.0
C1716 C 0.57669 0.29253 0.70135 0.0
C1717 C 0.57769 0.30602 0.73535 0.0
C1718 C 0.59011 0.26906 0.65197 0.0
C1719 C 0.58009 0.25563 0.66753 0.0
C1720 C 0.59987 0.26731 0.60729 0.0
C1721 C 0.60995 0.28129 0.58678 0.0
C1722 C 0.60258 0.29686 0.57704 0.0
C1723 C 0.61217 0.31001 0.55813 0.0
C1724 C 0.62913 0.30772 0.5485 0.0
C1725 C 0.63653 0.29225 0.55763 0.0
C1726 C 0.627 0.27906 0.57658 0.0
C1727 C 0.5763 0.20201 0.51345 0.0
C1728 C 0.59169 0.19498 0.49926 0.0
C1729 C 0.57566 0.21586 0.54614 0.0
C1730 C 0.59038 0.22288 0.56581 0.0
C1731 C 0.60568 0.21541 0.55346 0.0
C1732 C 0.60633 0.20164 0.52071 0.0
C1733 C 0.59003 0.23854 0.59673 0.0
C1734 C 0.59978 0.2521 0.58062 0.0
C1735 C 0.58 0.2404 0.64079 0.0
C1736 C 0.5699 0.22645 0.66121 0.0
C1737 C 0.57737 0.2111 0.67321 0.0
C1738 C 0.56775 0.19799 0.69226 0.0
C1739 C 0.55066 0.20012 0.6998 0.0
C1740 C 0.54316 0.21539 0.68846 0.0
C1741 C 0.55273 0.22853 0.66936 0.0
H1742 H 0.54323 0.18996 0.71456 0.0
H1743 H 0.63653 0.31792 0.53387 0.0
H1744 H 0.3395 0.02019 0.16032 0.0
H1745 H 0.34791 0.99369 0.19796 0.0
H1746 H 0.3955 0.99723 0.12232 0.0
H1747 H 0.38682 0.02349 0.0828 0.0
H1748 H 0.38649 0.9664 0.12278 0.0
H1749 H 0.39015 0.00826 0.25042 0.0
H1750 H 0.3805 0.03175 0.30338 0.0
H1751 H 0.34213 1.00093 0.3673 0.0
H1752 H 0.35138 0.97731 0.31411 0.0
H1753 H 0.41068 0.9162 0.3707 0.0
H1754 H 0.4058 0.94282 0.32703 0.0
H1755 H 0.37549 0.91752 0.2152 0.0
H1756 H 0.38109 0.89096 0.25706 0.0
H1757 H 0.37961 0.96056 0.30992 0.0
H1758 H 0.3777 0.93576 0.10087 0.0
H1759 H 0.39095 0.91373 0.04928 0.0
H1760 H 0.43271 0.91293 0.15155 0.0
H1761 H 0.41984 0.93512 0.20331 0.0
C1762 C 0.35167 0.01521 0.15114 0.0
C1763 C 0.36253 0.02396 0.11878 0.0
C1764 C 0.35653 1.00011 0.17301 0.0
C1765 C 0.37253 0.99364 0.16418 0.0
C1766 C 0.38313 1.00199 0.13003 0.0
C1767 C 0.37814 0.01698 0.10735 0.0
C1768 C 0.37828 0.97845 0.19173 0.0
C1769 C 0.38499 0.96514 0.16369 0.0
C1770 C 0.37688 0.97694 0.24542 0.0
C1771 C 0.37139 0.99105 0.27797 0.0
C1772 C 0.37959 0.00652 0.27556 0.0
C1773 C 0.3742 0.01985 0.30563 0.0
C1774 C 0.36069 0.01784 0.33861 0.0
C1775 C 0.35258 1.00247 0.3417 0.0
C1776 C 0.35791 0.9891 0.31163 0.0
C1777 C 0.40311 0.91638 0.33653 0.0
C1778 C 0.39626 0.90156 0.31728 0.0
C1779 C 0.40024 0.93158 0.31176 0.0
C1780 C 0.39044 0.9322 0.26733 0.0
C1781 C 0.38336 0.91738 0.24873 0.0
C1782 C 0.38638 0.90222 0.27312 0.0
C1783 C 0.38734 0.94832 0.24076 0.0
C1784 C 0.38116 0.96183 0.26903 0.0
C1785 C 0.38978 0.95021 0.18755 0.0
C1786 C 0.39772 0.937 0.15622 0.0
C1787 C 0.38975 0.93094 0.11221 0.0
C1788 C 0.39719 0.91841 0.08296 0.0
C1789 C 0.41264 0.9119 0.09721 0.0
C1790 C 0.42071 0.91794 0.14065 0.0
C1791 C 0.41334 0.93048 0.16999 0.0
H1792 H 0.41837 0.9022 0.07454 0.0
H1793 H 0.35653 0.02818 0.36185 0.0
H1794 H 0.91259 0.59213 0.65016 0.0
H1795 H 0.93926 0.59995 0.68972 0.0
H1796 H 0.91364 0.63466 0.78768 0.0
H1797 H 0.88703 0.62641 0.75002 0.0
H1798 H 0.94205 0.64809 0.73477 0.0
H1799 H 0.92626 0.60065 0.83791 0.0
H1800 H 0.91806 0.57136 0.85089 0.0
H1801 H 0.96374 0.55499 0.78211 0.0
H1802 H 0.9721 0.58421 0.76798 0.0
H1803 H 0.00662 0.67309 0.89782 0.0
H1804 H 0.98008 0.66212 0.86679 0.0
H1805 H 0.00551 0.61965 0.80254 0.0
H1806 H 0.03193 0.63016 0.83565 0.0
H1807 H 0.97733 0.60956 0.83575 0.0
H1808 H 0.9937 0.65495 0.72972 0.0
H1809 H 0.00269 0.68355 0.70912 0.0
H1810 H 0.95738 0.703 0.77253 0.0
H1811 H 0.94822 0.67452 0.79416 0.0
C1812 C 0.91267 0.60129 0.68052 0.0
C1813 C 0.89776 0.60881 0.69657 0.0
C1814 C 0.92788 0.60577 0.70295 0.0
C1815 C 0.92841 0.61794 0.7415 0.0
C1816 C 0.91352 0.62535 0.75773 0.0
C1817 C 0.89834 0.6207 0.73592 0.0
C1818 C 0.94446 0.62324 0.7645 0.0
C1819 C 0.94969 0.63975 0.75738 0.0
C1820 C 0.95467 0.61217 0.79245 0.0
C1821 C 0.94972 0.59462 0.80141 0.0
C1822 C 0.93449 0.59081 0.82515 0.0
C1823 C 0.92983 0.57422 0.83279 0.0
C1824 C 0.94035 0.56132 0.81721 0.0
C1825 C 0.95559 0.56499 0.79409 0.0
C1826 C 0.9603 0.58157 0.78629 0.0
C1827 C 0.00652 0.6613 0.87771 0.0
C1828 C 0.02142 0.65258 0.8689 0.0
C1829 C 0.99134 0.65509 0.85958 0.0
C1830 C 0.99078 0.64026 0.83095 0.0
C1831 C 0.00556 0.63115 0.82418 0.0
C1832 C 0.02069 0.6372 0.84316 0.0
C1833 C 0.97495 0.63457 0.80659 0.0
C1834 C 0.96976 0.61798 0.8132 0.0
C1835 C 0.96492 0.64547 0.7771 0.0
C1836 C 0.97035 0.66261 0.76402 0.0
C1837 C 0.98571 0.66534 0.73959 0.0
C1838 C 0.99082 0.68152 0.72769 0.0
C1839 C 0.98063 0.69508 0.73963 0.0
C1840 C 0.96528 0.69248 0.76338 0.0
C1841 C 0.96011 0.67632 0.77544 0.0
H1842 H 0.98461 0.7076 0.73039 0.0
H1843 H 0.93672 0.54848 0.82315 0.0
H1844 H 0.62817 0.97125 0.17048 0.0
H1845 H 0.61719 0.99732 0.204 0.0
H1846 H 0.65832 0.02399 0.1365 0.0
H1847 H 0.66987 0.99767 0.10528 0.0
H1848 H 0.65469 0.03484 0.22589 0.0
H1849 H 0.61568 0.02562 0.09111 0.0
H1850 H 0.59516 0.01005 0.03982 0.0
H1851 H 0.56316 0.00586 0.17027 0.0
H1852 H 0.58359 0.02123 0.22253 0.0
H1853 H 0.62155 0.11561 0.25896 0.0
H1854 H 0.62919 0.08932 0.21817 0.0
H1855 H 0.59712 0.06271 0.32176 0.0
H1856 H 0.58972 0.08916 0.36382 0.0
H1857 H 0.59547 0.0521 0.21488 0.0
H1858 H 0.63584 0.06235 0.34789 0.0
H1859 H 0.65625 0.07973 0.39385 0.0
H1860 H 0.6859 0.08362 0.25821 0.0
H1861 H 0.6655 0.0665 0.21117 0.0
C1862 C 0.63477 0.98267 0.16211 0.0
C1863 C 0.6499 0.98237 0.13511 0.0
C1864 C 0.62841 0.99765 0.18116 0.0
C1865 C 0.63675 0.01278 0.17236 0.0
C1866 C 0.65163 0.01253 0.14402 0.0
C1867 C 0.65819 0.99748 0.12591 0.0
C1868 C 0.63053 0.02866 0.19519 0.0
C1869 C 0.64178 0.03867 0.22261 0.0
C1870 C 0.61359 0.03364 0.19221 0.0
C1871 C 0.60125 0.02444 0.16085 0.0
C1872 C 0.60432 0.02128 0.10895 0.0
C1873 C 0.5927 0.0125 0.07969 0.0
C1874 C 0.57789 0.00693 0.10181 0.0
C1875 C 0.57465 0.01017 0.15321 0.0
C1876 C 0.58624 0.01892 0.18265 0.0
C1877 C 0.6162 0.10415 0.2733 0.0
C1878 C 0.60531 0.10435 0.31521 0.0
C1879 C 0.62048 0.08916 0.24971 0.0
C1880 C 0.61386 0.07406 0.2673 0.0
C1881 C 0.60238 0.07425 0.30771 0.0
C1882 C 0.59818 0.08931 0.33168 0.0
C1883 C 0.61966 0.0581 0.24483 0.0
C1884 C 0.60835 0.04815 0.21778 0.0
C1885 C 0.63659 0.05329 0.24732 0.0
C1886 C 0.64907 0.06325 0.2759 0.0
C1887 C 0.64666 0.067 0.32777 0.0
C1888 C 0.65823 0.0768 0.35403 0.0
C1889 C 0.67235 0.0828 0.32894 0.0
C1890 C 0.67495 0.07897 0.27758 0.0
C1891 C 0.66339 0.06921 0.25112 0.0
H1892 H 0.68129 0.0904 0.34932 0.0
H1893 H 0.5689 1.00014 0.07909 0.0
H1894 H 0.0913 0.41333 0.64344 0.0
H1895 H 0.06518 0.40574 0.68656 0.0
H1896 H 0.0927 0.37494 0.79167 0.0
H1897 H 0.1187 0.38271 0.74944 0.0
H1898 H 0.06585 0.35862 0.74991 0.0
H1899 H 0.07735 0.41145 0.82982 0.0
H1900 H 0.08345 0.44156 0.83003 0.0
H1901 H 0.03695 0.45129 0.7549 0.0
H1902 H 0.0307 0.42119 0.75341 0.0
H1903 H 1.0002 0.33707 0.91442 0.0
H1904 H 0.02662 0.34843 0.88362 0.0
H1905 H 0.99992 0.38495 0.79484 0.0
H1906 H 0.9736 0.37417 0.82729 0.0
H1907 H 0.02663 0.39881 0.82889 0.0
H1908 H 0.01543 0.34714 0.74296 0.0
H1909 H 0.00907 0.31715 0.73634 0.0
H1910 H 0.05439 0.30541 0.81548 0.0
H1911 H 0.06092 0.33536 0.82314 0.0
C1912 C 0.09172 0.40507 0.67606 0.0
C1913 C 0.10695 0.39843 0.69274 0.0
C1914 C 0.07683 0.40075 0.70065 0.0
C1915 C 0.07699 0.38975 0.74235 0.0
C1916 C 0.09226 0.38334 0.7594 0.0
C1917 C 0.10709 0.38773 0.73511 0.0
C1918 C 0.06127 0.38442 0.76737 0.0
C1919 C 0.05738 0.36738 0.76783 0.0
C1920 C 0.05 0.3959 0.78942 0.0
C1921 C 0.05362 0.41404 0.79108 0.0
C1922 C 0.06847 0.41999 0.813 0.0
C1923 C 0.07196 0.43706 0.81339 0.0
C1924 C 0.06061 0.44833 0.79239 0.0
C1925 C 0.04573 0.44255 0.7711 0.0
C1926 C 0.04221 0.42548 0.7705 0.0
C1927 C 0.99998 0.34766 0.88887 0.0
C1928 C 0.98477 0.3546 0.87303 0.0
C1929 C 0.01509 0.35409 0.87098 0.0
C1930 C 0.01531 0.36731 0.83576 0.0
C1931 C 1.00015 0.37472 0.82174 0.0
C1932 C 0.98506 0.3685 0.84033 0.0
C1933 C 0.0312 0.37292 0.81171 0.0
C1934 C 0.03511 0.39001 0.81121 0.0
C1935 C 0.04243 0.36151 0.78887 0.0
C1936 C 0.03858 0.34349 0.78407 0.0
C1937 C 0.02399 0.33816 0.75923 0.0
C1938 C 0.02036 0.32118 0.75526 0.0
C1939 C 0.0313 0.30939 0.7756 0.0
C1940 C 0.04592 0.31456 0.79982 0.0
C1941 C 0.04959 0.33154 0.80396 0.0
H1942 H 0.02847 0.29624 0.77249 0.0
H1943 H 0.06333 0.46154 0.79273 0.0
H1944 H 0.41565 0.5899 0.89235 0.0
H1945 H 0.41036 0.56362 0.93711 0.0
H1946 H 0.37459 0.58848 0.03362 0.0
H1947 H 0.3808 0.61485 0.99164 0.0
H1948 H 0.39055 0.56824 0.08905 0.0
H1949 H 0.36356 0.5632 0.9264 0.0
H1950 H 0.36171 0.56331 0.83254 0.0
H1951 H 0.39752 0.52367 0.82451 0.0
H1952 H 0.39974 0.52346 0.91836 0.0
H1953 H 0.34378 0.48241 0.08171 0.0
H1954 H 0.35157 0.50916 0.04496 0.0
H1955 H 0.39505 0.51079 0.14166 0.0
H1956 H 0.38689 0.48417 0.18009 0.0
H1957 H 0.37615 0.51758 0.99005 0.0
H1958 H 0.40703 0.551 0.16162 0.0
H1959 H 0.40465 0.55213 0.25536 0.0
H1960 H 0.35346 0.53699 0.24559 0.0
H1961 H 0.35548 0.53598 0.15183 0.0
C1962 C 0.40679 0.58973 0.92348 0.0
C1963 C 0.39849 0.60437 0.93807 0.0
C1964 C 0.40365 0.57468 0.94876 0.0
C1965 C 0.39183 0.57392 0.98831 0.0
C1966 C 0.38372 0.58864 0.00324 0.0
C1967 C 0.3871 0.6037 0.97866 0.0
C1968 C 0.38762 0.55784 0.01376 0.0
C1969 C 0.38745 0.55715 0.06732 0.0
C1970 C 0.38329 0.54338 0.98572 0.0
C1971 C 0.38195 0.54344 0.92933 0.0
C1972 C 0.37112 0.55458 0.90458 0.0
C1973 C 0.36999 0.55465 0.8514 0.0
C1974 C 0.37952 0.54354 0.82257 0.0
C1975 C 0.39017 0.53229 0.84689 0.0
C1976 C 0.39136 0.53218 0.90007 0.0
C1977 C 0.35491 0.48855 0.09563 0.0
C1978 C 0.3647 0.48119 0.13394 0.0
C1979 C 0.35941 0.50383 0.07435 0.0
C1980 C 0.37391 0.51209 0.0904 0.0
C1981 C 0.38366 0.50485 0.12909 0.0
C1982 C 0.379 0.48962 0.15105 0.0
C1983 C 0.37889 0.52801 0.06536 0.0
C1984 C 0.37933 0.52863 0.01182 0.0
C1985 C 0.38286 0.54257 0.09343 0.0
C1986 C 0.38148 0.54322 0.14977 0.0
C1987 C 0.39526 0.54795 0.1795 0.0
C1988 C 0.39398 0.54857 0.23262 0.0
C1989 C 0.37893 0.54457 0.25642 0.0
C1990 C 0.36512 0.54001 0.22713 0.0
C1991 C 0.36634 0.53939 0.174 0.0
H1992 H 0.37797 0.54505 0.29755 0.0
H1993 H 0.37863 0.54361 0.7814 0.0
H1994 H 0.58884 0.59924 0.12394 0.0
H1995 H 0.56257 0.60702 0.08192 0.0
H1996 H 0.59017 0.63234 0.96421 0.0
H1997 H 0.61632 0.62412 0.00491 0.0
H1998 H 0.56384 0.65149 0.00754 0.0
H1999 H 0.57364 0.59686 0.93617 0.0
H2000 H 0.57901 0.56666 0.94114 0.0
H2001 H 0.53314 0.55966 0.02239 0.0
H2002 H 0.52762 0.58988 0.01862 0.0
H2003 H 0.49729 0.67074 0.84211 0.0
H2004 H 0.52378 0.66027 0.87532 0.0
H2005 H 0.4973 0.62484 0.96876 0.0
H2006 H 0.47097 0.63464 0.93374 0.0
H2007 H 0.5235 0.61057 0.93778 0.0
H2008 H 0.51347 0.66375 0.01496 0.0
H2009 H 0.50758 0.6939 0.01748 0.0
H2010 H 0.55276 0.70374 0.93531 0.0
H2011 H 0.55881 0.67362 0.93174 0.0
C2012 C 0.58925 0.60631 0.08882 0.0
C2013 C 0.60459 0.6112 0.06791 0.0
C2014 C 0.57428 0.61078 0.06495 0.0
C2015 C 0.57444 0.6203 0.01999 0.0
C2016 C 0.58976 0.6251 0.99902 0.0
C2017 C 0.60468 0.62046 0.02244 0.0
C2018 C 0.55867 0.62551 0.99502 0.0
C2019 C 0.55509 0.64258 0.99168 0.0
C2020 C 0.54707 0.61384 0.97575 0.0
C2021 C 0.5503 0.59565 0.97755 0.0
C2022 C 0.56476 0.5889 0.95547 0.0
C2023 C 0.56782 0.57178 0.95801 0.0
C2024 C 0.55644 0.56125 0.98218 0.0
C2025 C 0.54195 0.56783 0.00374 0.0
C2026 C 0.53884 0.58495 0.00138 0.0
C2027 C 0.49715 0.66059 0.86929 0.0
C2028 C 0.48199 0.6536 0.88543 0.0
C2029 C 0.5123 0.65469 0.88863 0.0
C2030 C 0.51261 0.64201 0.92567 0.0
C2031 C 0.49749 0.63465 0.94042 0.0
C2032 C 0.48238 0.6403 0.92033 0.0
C2033 C 0.52855 0.63667 0.95013 0.0
C2034 C 0.5322 0.61956 0.9535 0.0
C2035 C 0.54009 0.6483 0.97044 0.0
C2036 C 0.5365 0.66642 0.97262 0.0
C2037 C 0.52209 0.67234 0.99712 0.0
C2038 C 0.51873 0.68942 0.99878 0.0
C2039 C 0.52976 0.70073 0.97644 0.0
C2040 C 0.54421 0.69497 0.95252 0.0
C2041 C 0.54762 0.67789 0.9507 0.0
H2042 H 0.52714 0.71395 0.97777 0.0
H2043 H 0.55883 0.54799 0.98411 0.0
H2044 H 0.66567 0.50852 0.16805 0.0
H2045 H 0.65487 0.48214 0.13496 0.0
H2046 H 0.61869 0.50892 0.04506 0.0
H2047 H 0.62885 0.5352 0.08007 0.0
H2048 H 0.605 0.48193 0.07528 0.0
H2049 H 0.65735 0.49403 0.99552 0.0
H2050 H 0.6873 0.50076 0.99212 0.0
H2051 H 0.69877 0.45516 0.07007 0.0
H2052 H 0.66886 0.44827 0.07453 0.0
H2053 H 0.59249 0.41647 0.89047 0.0
H2054 H 0.59947 0.44292 0.93292 0.0
H2055 H 0.63057 0.41639 0.03962 0.0
H2056 H 0.6235 0.3901 0.99782 0.0
H2057 H 0.64642 0.44331 0.99961 0.0
H2058 H 0.59284 0.43134 0.07486 0.0
H2059 H 0.56278 0.4251 0.07237 0.0
H2060 H 0.55359 0.4713 0.99491 0.0
H2061 H 0.58364 0.4777 0.99627 0.0
C2062 C 0.65525 0.50875 0.14184 0.0
C2063 C 0.64822 0.52397 0.12642 0.0
C2064 C 0.64915 0.49367 0.12258 0.0
C2065 C 0.63625 0.4935 0.08625 0.0
C2066 C 0.62871 0.50865 0.07274 0.0
C2067 C 0.63455 0.52371 0.09282 0.0
C2068 C 0.63109 0.47768 0.06074 0.0
C2069 C 0.61408 0.47359 0.05828 0.0
C2070 C 0.64286 0.46665 0.03869 0.0
C2071 C 0.66086 0.47072 0.03579 0.0
C2072 C 0.66625 0.48549 0.01222 0.0
C2073 C 0.68322 0.48933 0.01007 0.0
C2074 C 0.69493 0.47842 0.03099 0.0
C2075 C 0.68969 0.46361 0.05396 0.0
C2076 C 0.67273 0.45973 0.05628 0.0
C2077 C 0.60071 0.41635 0.92322 0.0
C2078 C 0.60763 0.40131 0.94049 0.0
C2079 C 0.60468 0.43142 0.94746 0.0
C2080 C 0.61555 0.43164 0.98952 0.0
C2081 C 0.62226 0.41656 0.00708 0.0
C2082 C 0.61827 0.40155 0.98303 0.0
C2083 C 0.62042 0.44754 0.0146 0.0
C2084 C 0.63738 0.45165 0.01675 0.0
C2085 C 0.60859 0.45869 0.03553 0.0
C2086 C 0.59051 0.45492 0.03524 0.0
C2087 C 0.58442 0.44011 0.05697 0.0
C2088 C 0.56738 0.43655 0.05581 0.0
C2089 C 0.55628 0.44778 0.03338 0.0
C2090 C 0.5622 0.46261 0.01221 0.0
C2091 C 0.57923 0.46621 0.0132 0.0
H2092 H 0.5431 0.44499 0.03251 0.0
H2093 H 0.70806 0.48141 0.02929 0.0
H2094 H 0.41055 0.3824 0.1205 0.0
H2095 H 0.43719 0.37644 0.07854 0.0
H2096 H 0.42545 0.41223 0.96124 0.0
H2097 H 0.39861 0.41783 0.00258 0.0
H2098 H 0.43761 0.38449 0.91984 0.0
H2099 H 0.45422 0.42098 0.05466 0.0
H2100 H 0.45605 0.43113 0.14323 0.0
H2101 H 0.4806 0.38591 0.18783 0.0
H2102 H 0.4787 0.37537 0.09963 0.0
H2103 H 0.52079 0.38372 0.81709 0.0
H2104 H 0.49402 0.39218 0.85392 0.0
H2105 H 0.50085 0.357 0.97633 0.0
H2106 H 0.52752 0.34864 0.94034 0.0
H2107 H 0.49137 0.38657 0.0128 0.0
H2108 H 0.47338 0.34963 0.87851 0.0
H2109 H 0.47143 0.33955 0.78986 0.0
H2110 H 0.44958 0.38603 0.74411 0.0
H2111 H 0.45161 0.39647 0.83242 0.0
C2112 C 0.41376 0.38903 0.08593 0.0
C2113 C 0.40267 0.40068 0.06499 0.0
C2114 C 0.42898 0.38569 0.06207 0.0
C2115 C 0.43346 0.39404 0.01697 0.0
C2116 C 0.42233 0.40568 0.99603 0.0
C2117 C 0.40708 0.40898 0.01986 0.0
C2118 C 0.44957 0.39033 0.9912 0.0
C2119 C 0.4494 0.38521 0.93996 0.0
C2120 C 0.46496 0.391 0.01754 0.0
C2121 C 0.46619 0.39733 0.0706 0.0
C2122 C 0.4599 0.41314 0.08342 0.0
C2123 C 0.46096 0.41897 0.13355 0.0
C2124 C 0.4684 0.40915 0.17116 0.0
C2125 C 0.47483 0.39349 0.15867 0.0
C2126 C 0.47377 0.38759 0.10861 0.0
C2127 C 0.51652 0.3777 0.8516 0.0
C2128 C 0.52634 0.3655 0.87568 0.0
C2129 C 0.50119 0.38253 0.8726 0.0
C2130 C 0.49537 0.37519 0.9179 0.0
C2131 C 0.50508 0.3629 0.94153 0.0
C2132 C 0.52034 0.35808 0.92068 0.0
C2133 C 0.47938 0.38049 0.94171 0.0
C2134 C 0.47959 0.38595 0.9926 0.0
C2135 C 0.46406 0.38016 0.91501 0.0
C2136 C 0.46282 0.3739 0.86194 0.0
C2137 C 0.46829 0.35776 0.84946 0.0
C2138 C 0.46714 0.35197 0.79929 0.0
C2139 C 0.46043 0.36216 0.76135 0.0
C2140 C 0.45481 0.37815 0.77352 0.0
C2141 C 0.45594 0.38401 0.82363 0.0
H2142 H 0.45955 0.35766 0.72254 0.0
H2143 H 0.46922 0.41369 0.20995 0.0
H2144 H 0.91726 0.39775 0.75539 0.0
H2145 H 0.91064 0.42425 0.71368 0.0
H2146 H 0.87636 0.43607 0.83517 0.0
H2147 H 0.88279 0.40937 0.87627 0.0
H2148 H 0.86246 0.44226 0.74647 0.0
H2149 H 0.91537 0.45517 0.82282 0.0
H2150 H 0.94523 0.45103 0.84071 0.0
H2151 H 0.95638 0.45604 0.68138 0.0
H2152 H 0.92654 0.45998 0.66244 0.0
H2153 H 0.84949 0.5276 0.70188 0.0
H2154 H 0.8578 0.50078 0.73661 0.0
H2155 H 0.88918 0.49213 0.60585 0.0
H2156 H 0.8811 0.51932 0.57089 0.0
H2157 H 0.90491 0.48369 0.69361 0.0
H2158 H 0.85195 0.47185 0.61805 0.0
H2159 H 0.82206 0.47609 0.60079 0.0
H2160 H 0.81101 0.46915 0.7595 0.0
H2161 H 0.84087 0.46509 0.77784 0.0
C2162 C 0.90849 0.40615 0.77338 0.0
C2163 C 0.90058 0.40164 0.81907 0.0
C2164 C 0.90471 0.42128 0.74961 0.0
C2165 C 0.89311 0.43229 0.77147 0.0
C2166 C 0.88534 0.42782 0.81751 0.0
C2167 C 0.88904 0.41263 0.84107 0.0
C2168 C 0.88861 0.4482 0.74562 0.0
C2169 C 0.87174 0.4514 0.73554 0.0
C2170 C 0.90074 0.45993 0.72978 0.0
C2171 C 0.9187 0.4577 0.74116 0.0
C2172 C 0.92417 0.45527 0.79155 0.0
C2173 C 0.9411 0.45298 0.80189 0.0
C2174 C 0.95269 0.45323 0.76219 0.0
C2175 C 0.94739 0.45583 0.71208 0.0
C2176 C 0.93047 0.4581 0.70153 0.0
C2177 C 0.85811 0.52002 0.68016 0.0
C2178 C 0.86455 0.52563 0.63331 0.0
C2179 C 0.86281 0.50461 0.70012 0.0
C2180 C 0.87394 0.49429 0.67357 0.0
C2181 C 0.88052 0.49985 0.62694 0.0
C2182 C 0.87584 0.51536 0.60689 0.0
C2183 C 0.87875 0.47783 0.69521 0.0
C2184 C 0.89565 0.4745 0.70438 0.0
C2185 C 0.86666 0.46597 0.71034 0.0
C2186 C 0.84867 0.46829 0.69936 0.0
C2187 C 0.84316 0.47134 0.64933 0.0
C2188 C 0.82622 0.47369 0.63934 0.0
C2189 C 0.81465 0.47292 0.67903 0.0
C2190 C 0.81999 0.46975 0.72879 0.0
C2191 C 0.83692 0.4674 0.73899 0.0
H2192 H 0.80154 0.47475 0.67122 0.0
H2193 H 0.96579 0.45145 0.77027 0.0
H2194 H 0.5163 0.12765 0.44347 0.0
H2195 H 0.48976 0.1188 0.40587 0.0
H2196 H 0.50195 0.14495 0.26722 0.0
H2197 H 0.52814 0.1541 0.30464 0.0
H2198 H 0.47058 0.15 0.28923 0.0
H2199 H 0.50637 0.10206 0.27941 0.0
H2200 H 0.52496 0.08023 0.31315 0.0
H2201 H 0.48556 0.06209 0.40882 0.0
H2202 H 0.4668 0.08397 0.37616 0.0
H2203 H 0.41559 0.11211 0.1136 0.0
H2204 H 0.44148 0.11932 0.15838 0.0
H2205 H 0.42213 0.09747 0.29636 0.0
H2206 H 0.39615 0.09049 0.25173 0.0
H2207 H 0.45603 0.08999 0.27922 0.0
H2208 H 0.41979 0.13756 0.2831 0.0
H2209 H 0.40144 0.15869 0.24445 0.0
H2210 H 0.44234 0.17729 0.15582 0.0
H2211 H 0.46087 0.15601 0.19312 0.0
C2212 C 0.51327 0.1316 0.40511 0.0
C2213 C 0.52441 0.14155 0.37712 0.0
C2214 C 0.49813 0.12646 0.38353 0.0
C2215 C 0.49391 0.13103 0.33338 0.0
C2216 C 0.50487 0.14125 0.30592 0.0
C2217 C 0.51991 0.14644 0.32745 0.0
C2218 C 0.47825 0.12508 0.30882 0.0
C2219 C 0.46751 0.13686 0.28671 0.0
C2220 C 0.474 0.10795 0.30619 0.0
C2221 C 0.48524 0.09477 0.32578 0.0
C2222 C 0.50171 0.09349 0.30795 0.0
C2223 C 0.51227 0.0811 0.32682 0.0
C2224 C 0.50646 0.06981 0.36322 0.0
C2225 C 0.49006 0.07087 0.38071 0.0
C2226 C 0.47945 0.08325 0.36201 0.0
C2227 C 0.41701 0.10869 0.1533 0.0
C2228 C 0.404 0.1007 0.17925 0.0
C2229 C 0.43174 0.11282 0.17885 0.0
C2230 C 0.43367 0.10905 0.23083 0.0
C2231 C 0.42092 0.10045 0.25626 0.0
C2232 C 0.40614 0.09643 0.23076 0.0
C2233 C 0.44859 0.1149 0.25922 0.0
C2234 C 0.45912 0.10312 0.28207 0.0
C2235 C 0.45272 0.13201 0.26219 0.0
C2236 C 0.44169 0.14508 0.2406 0.0
C2237 C 0.42485 0.14607 0.25511 0.0
C2238 C 0.41442 0.15808 0.23345 0.0
C2239 C 0.42072 0.1693 0.19764 0.0
C2240 C 0.43748 0.16857 0.18352 0.0
C2241 C 0.44796 0.15654 0.20492 0.0
H2242 H 0.41262 0.17859 0.1809 0.0
H2243 H 0.51465 0.06023 0.37778 0.0
H2244 H 0.15613 0.47878 0.69257 0.0
H2245 H 0.14711 0.50509 0.72968 0.0
H2246 H 0.114 0.51308 0.60259 0.0
H2247 H 0.12311 0.48663 0.56463 0.0
H2248 H 0.13027 0.54162 0.62872 0.0
H2249 H 0.09845 0.50043 0.71463 0.0
H2250 H 0.09336 0.47439 0.76191 0.0
H2251 H 0.12344 0.49225 0.88582 0.0
H2252 H 0.12895 0.5183 0.83892 0.0
H2253 H 0.08631 0.60703 0.75612 0.0
H2254 H 0.09213 0.5801 0.71533 0.0
H2255 H 0.13024 0.57028 0.82728 0.0
H2256 H 0.12447 0.5973 0.86789 0.0
H2257 H 0.10922 0.54244 0.80661 0.0
H2258 H 0.14171 0.5834 0.7158 0.0
H2259 H 0.1457 0.6094 0.6674 0.0
H2260 H 0.11249 0.59167 0.55103 0.0
H2261 H 0.10807 0.56565 0.59923 0.0
C2262 C 0.14698 0.48611 0.67219 0.0
C2263 C 0.1403 0.4805 0.62559 0.0
C2264 C 0.14176 0.50116 0.69371 0.0
C2265 C 0.12967 0.51097 0.66942 0.0
C2266 C 0.12329 0.50568 0.62218 0.0
C2267 C 0.1285 0.49055 0.60054 0.0
C2268 C 0.12376 0.52666 0.69385 0.0
C2269 C 0.1254 0.54175 0.66729 0.0
C2270 C 0.11757 0.5269 0.74446 0.0
C2271 C 0.11423 0.51128 0.77303 0.0
C2272 C 0.10409 0.49876 0.75179 0.0
C2273 C 0.10111 0.484 0.77855 0.0
C2274 C 0.10809 0.48166 0.8268 0.0
C2275 C 0.11805 0.49408 0.84842 0.0
C2276 C 0.12109 0.50886 0.82178 0.0
C2277 C 0.0958 0.59901 0.77224 0.0
C2278 C 0.10495 0.60415 0.8151 0.0
C2279 C 0.09916 0.58369 0.74884 0.0
C2280 C 0.11168 0.57321 0.7681 0.0
C2281 C 0.12051 0.57815 0.81183 0.0
C2282 C 0.11727 0.59356 0.83489 0.0
C2283 C 0.11595 0.55736 0.7417 0.0
C2284 C 0.11398 0.54225 0.76792 0.0
C2285 C 0.12166 0.55709 0.69062 0.0
C2286 C 0.12442 0.57265 0.66139 0.0
C2287 C 0.13514 0.5851 0.68011 0.0
C2288 C 0.1375 0.59983 0.65268 0.0
C2289 C 0.12932 0.6022 0.60623 0.0
C2290 C 0.1188 0.58982 0.58706 0.0
C2291 C 0.11637 0.57508 0.6144 0.0
H2292 H 0.13116 0.61362 0.58504 0.0
H2293 H 0.10576 0.47022 0.84746 0.0
H2294 H 0.61346 0.88359 0.24359 0.0
H2295 H 0.58731 0.87576 0.28482 0.0
H2296 H 0.55989 0.90386 0.17267 0.0
H2297 H 0.5862 0.91146 0.13037 0.0
H2298 H 0.54853 0.9079 0.27712 0.0
H2299 H 0.5617 0.86423 0.15682 0.0
H2300 H 0.58033 0.84335 0.11806 0.0
H2301 H 0.58432 0.81804 0.26168 0.0
H2302 H 0.56593 0.83896 0.30154 0.0
H2303 H 0.46881 0.87336 0.3224 0.0
H2304 H 0.49481 0.88423 0.28853 0.0
H2305 H 0.52208 0.84631 0.37005 0.0
H2306 H 0.49582 0.83477 0.40177 0.0
H2307 H 0.53396 0.84783 0.28135 0.0
H2308 H 0.52162 0.89023 0.40367 0.0
H2309 H 0.50462 0.91146 0.44744 0.0
H2310 H 0.50057 0.93927 0.30824 0.0
H2311 H 0.51737 0.9181 0.26346 0.0
C2312 C 0.60185 0.88803 0.22755 0.0
C2313 C 0.60179 0.8979 0.18333 0.0
C2314 C 0.58694 0.88363 0.25131 0.0
C2315 C 0.57166 0.88908 0.23149 0.0
C2316 C 0.57157 0.89952 0.1885 0.0
C2317 C 0.58654 0.90383 0.1644 0.0
C2318 C 0.55585 0.8832 0.25457 0.0
C2319 C 0.54518 0.8948 0.27756 0.0
C2320 C 0.55181 0.86606 0.2565 0.0
C2321 C 0.56255 0.85324 0.23226 0.0
C2322 C 0.56663 0.85428 0.18022 0.0
C2323 C 0.57714 0.84243 0.15804 0.0
C2324 C 0.58353 0.8294 0.18742 0.0
C2325 C 0.57937 0.82815 0.23899 0.0
C2326 C 0.56889 0.83999 0.26138 0.0
C2327 C 0.48033 0.86745 0.33376 0.0
C2328 C 0.48023 0.85321 0.36497 0.0
C2329 C 0.49528 0.87376 0.31449 0.0
C2330 C 0.51056 0.86631 0.32722 0.0
C2331 C 0.5105 0.85232 0.35952 0.0
C2332 C 0.49549 0.84576 0.37789 0.0
C2333 C 0.52645 0.87251 0.30453 0.0
C2334 C 0.5372 0.86095 0.28134 0.0
C2335 C 0.53067 0.88969 0.30323 0.0
C2336 C 0.52063 0.9025 0.33011 0.0
C2337 C 0.51701 0.90082 0.38231 0.0
C2338 C 0.50742 0.91285 0.40731 0.0
C2339 C 0.50149 0.92669 0.38061 0.0
C2340 C 0.50517 0.92854 0.32887 0.0
C2341 C 0.51474 0.91654 0.30367 0.0
H2342 H 0.49406 0.93598 0.40003 0.0
H2343 H 0.59168 0.82025 0.17019 0.0
H2344 H 0.91103 0.09064 0.38473 0.0
H2345 H 0.90507 0.06392 0.42624 0.0
H2346 H 0.87632 0.08951 0.54118 0.0
H2347 H 0.88316 0.11617 0.50169 0.0
H2348 H 0.89288 0.06662 0.58543 0.0
H2349 H 0.85825 0.06796 0.4363 0.0
H2350 H 0.8521 0.07053 0.34452 0.0
H2351 H 0.88305 0.02813 0.31296 0.0
H2352 H 0.88956 0.02544 0.40453 0.0
H2353 H 0.83964 0.98453 0.58607 0.0
H2354 H 0.8472 0.01166 0.55124 0.0
H2355 H 0.89565 0.0079 0.62148 0.0
H2356 H 0.88795 0.98087 0.65772 0.0
H2357 H 0.86929 0.01986 0.48494 0.0
H2358 H 0.91123 0.0466 0.6453 0.0
H2359 H 0.91378 0.04542 0.73898 0.0
H2360 H 0.86171 0.03395 0.75165 0.0
H2361 H 0.85881 0.03527 0.65815 0.0
C2362 C 0.90357 0.09051 0.41912 0.0
C2363 C 0.89741 0.10545 0.43966 0.0
C2364 C 0.90003 0.07524 0.4426 0.0
C2365 C 0.88998 0.07459 0.4865 0.0
C2366 C 0.88405 0.08959 0.50735 0.0
C2367 C 0.88779 0.10483 0.48436 0.0
C2368 C 0.88542 0.05838 0.51058 0.0
C2369 C 0.88776 0.05639 0.56335 0.0
C2370 C 0.87846 0.04505 0.48222 0.0
C2371 C 0.87452 0.0466 0.42718 0.0
C2372 C 0.86383 0.05925 0.40974 0.0
C2373 C 0.86027 0.06073 0.35777 0.0
C2374 C 0.86721 0.04953 0.32291 0.0
C2375 C 0.8777 0.03681 0.33999 0.0
C2376 C 0.88132 0.0353 0.39192 0.0
C2377 C 0.85184 0.98955 0.59468 0.0
C2378 C 0.86317 0.98053 0.62486 0.0
C2379 C 0.85619 0.00505 0.57446 0.0
C2380 C 0.87199 0.01192 0.58368 0.0
C2381 C 0.88328 0.00304 0.61438 0.0
C2382 C 0.87887 0.98756 0.6351 0.0
C2383 C 0.87671 0.02811 0.5598 0.0
C2384 C 0.87447 0.03006 0.507 0.0
C2385 C 0.88327 0.04157 0.58841 0.0
C2386 C 0.88486 0.04085 0.64469 0.0
C2387 C 0.90032 0.04387 0.6681 0.0
C2388 C 0.90183 0.04317 0.72116 0.0
C2389 C 0.88793 0.03955 0.75123 0.0
C2390 C 0.87248 0.03668 0.72831 0.0
C2391 C 0.87091 0.03738 0.67528 0.0
H2392 H 0.88913 0.03901 0.7923 0.0
H2393 H 0.86444 0.05069 0.28269 0.0
H2394 H 0.11503 0.12116 0.50795 0.0
H2395 H 0.08861 0.1291 0.46889 0.0
H2396 H 0.06264 0.09483 0.56731 0.0
H2397 H 0.08927 0.0871 0.60774 0.0
H2398 H 0.05177 0.09529 0.45991 0.0
H2399 H 0.06176 0.1328 0.60073 0.0
H2400 H 0.07897 0.1523 0.65083 0.0
H2401 H 0.08268 0.18489 0.52166 0.0
H2402 H 0.06573 0.16543 0.47046 0.0
H2403 H 0.97102 0.12909 0.41841 0.0
H2404 H 0.99684 0.11725 0.45089 0.0
H2405 H 0.02406 0.1596 0.3931 0.0
H2406 H 0.998 0.17195 0.36306 0.0
H2407 H 0.03428 0.15414 0.48224 0.0
H2408 H 0.02574 0.11792 0.33966 0.0
H2409 H 0.01044 0.09845 0.28395 0.0
H2410 H 0.0057 0.06387 0.4079 0.0
H2411 H 0.02079 0.08324 0.46456 0.0
C2412 C 0.10369 0.11539 0.52159 0.0
C2413 C 0.10411 0.10384 0.56179 0.0
C2414 C 0.08863 0.11984 0.49893 0.0
C2415 C 0.07365 0.11273 0.51567 0.0
C2416 C 0.07408 0.10051 0.554 0.0
C2417 C 0.08923 0.09612 0.57706 0.0
C2418 C 0.05761 0.11885 0.4947 0.0
C2419 C 0.04775 0.10808 0.46532 0.0
C2420 C 0.05272 0.13567 0.50051 0.0
C2421 C 0.06258 0.14758 0.53164 0.0
C2422 C 0.06634 0.14407 0.5829 0.0
C2423 C 0.07604 0.15512 0.6115 0.0
C2424 C 0.08195 0.16981 0.58941 0.0
C2425 C 0.07811 0.1735 0.53871 0.0
C2426 C 0.06844 0.16247 0.50989 0.0
C2427 C 0.98251 0.1358 0.41195 0.0
C2428 C 0.98243 0.15149 0.38813 0.0
C2429 C 0.99736 0.12895 0.43039 0.0
C2430 C 0.01256 0.13738 0.4241 0.0
C2431 C 0.01254 0.15282 0.39872 0.0
C2432 C 0.99764 0.15985 0.38125 0.0
C2433 C 0.02829 0.13065 0.44657 0.0
C2434 C 0.03815 0.14133 0.47654 0.0
C2435 C 0.0333 0.1138 0.44048 0.0
C2436 C 0.02425 0.10211 0.40648 0.0
C2437 C 0.02133 0.10622 0.35514 0.0
C2438 C 0.01271 0.09519 0.32337 0.0
C2439 C 0.00706 0.07995 0.34241 0.0
C2440 C 0.01006 0.07569 0.39322 0.0
C2441 C 0.01866 0.08668 0.42517 0.0
H2442 H 1.00039 0.07143 0.31775 0.0
H2443 H 0.08947 0.17835 0.61161 0.0
H2444 H 0.12589 0.90563 0.38521 0.0
H2445 H 0.13303 0.9321 0.42673 0.0
H2446 H 0.0935 0.92456 0.53563 0.0
H2447 H 0.08641 0.89808 0.49419 0.0
H2448 H 0.09462 0.95681 0.50331 0.0
H2449 H 0.13332 0.91649 0.56765 0.0
H2450 H 0.15439 0.89427 0.56052 0.0
H2451 H 0.18716 0.9277 0.48147 0.0
H2452 H 0.16614 0.95005 0.48731 0.0
H2453 H 0.12211 0.01968 0.6762 0.0
H2454 H 0.11429 0.99245 0.64112 0.0
H2455 H 0.15369 0.9963 0.53007 0.0
H2456 H 0.16169 0.02329 0.56514 0.0
H2457 H 0.15216 0.96533 0.5673 0.0
H2458 H 0.1134 0.00512 0.49907 0.0
H2459 H 0.09231 0.0274 0.50357 0.0
H2460 H 0.05978 0.99514 0.58794 0.0
H2461 H 0.08081 0.97274 0.58465 0.0
C2462 C 0.11873 0.90969 0.41792 0.0
C2463 C 0.10564 0.89983 0.4366 0.0
C2464 C 0.12281 0.92477 0.44168 0.0
C2465 C 0.11394 0.93024 0.48476 0.0
C2466 C 0.10053 0.92062 0.5025 0.0
C2467 C 0.09646 0.90552 0.47876 0.0
C2468 C 0.1189 0.94578 0.51195 0.0
C2469 C 0.10713 0.95857 0.51798 0.0
C2470 C 0.13531 0.94824 0.53034 0.0
C2471 C 0.14809 0.9349 0.52754 0.0
C2472 C 0.14497 0.91907 0.54845 0.0
C2473 C 0.15691 0.90646 0.54466 0.0
C2474 C 0.17209 0.90956 0.52047 0.0
C2475 C 0.17538 0.92531 0.50015 0.0
C2476 C 0.16347 0.93796 0.50371 0.0
C2477 C 0.12922 0.01465 0.64466 0.0
C2478 C 0.14248 0.02374 0.6234 0.0
C2479 C 0.12467 0.99912 0.62444 0.0
C2480 C 0.13326 0.99239 0.58246 0.0
C2481 C 0.14685 1.0012 0.56236 0.0
C2482 C 0.15137 0.0167 0.58245 0.0
C2483 C 0.12791 0.97643 0.55838 0.0
C2484 C 0.13961 0.96354 0.55292 0.0
C2485 C 0.11146 0.97391 0.54036 0.0
C2486 C 0.09876 0.98732 0.54212 0.0
C2487 C 0.10181 1.00282 0.51894 0.0
C2488 C 0.08986 0.01547 0.52122 0.0
C2489 C 0.07473 0.0127 0.54614 0.0
C2490 C 0.07152 0.99727 0.56873 0.0
C2491 C 0.08344 0.9846 0.56666 0.0
H2492 H 0.06549 0.0225 0.54785 0.0
H2493 H 0.18131 0.89978 0.51755 0.0
H2494 H 0.03172 0.87772 0.40835 0.0
H2495 H 0.00587 0.89015 0.43975 0.0
H2496 H 0.97917 0.84528 0.4011 0.0
H2497 H 0.00505 0.8326 0.37037 0.0
H2498 H 0.96241 0.87633 0.37462 0.0
H2499 H 0.99002 0.84939 0.51722 0.0
H2500 H 0.01387 0.8444 0.57442 0.0
H2501 H 0.01386 0.89598 0.61815 0.0
H2502 H 0.99014 0.90132 0.56055 0.0
H2503 H 0.88873 0.88018 0.5163 0.0
H2504 H 0.91513 0.87284 0.47693 0.0
H2505 H 0.93925 0.91302 0.55785 0.0
H2506 H 0.91282 0.91965 0.60045 0.0
H2507 H 0.95848 0.88732 0.56045 0.0
H2508 H 0.93002 0.91467 0.42583 0.0
H2509 H 0.90683 0.92108 0.36744 0.0
H2510 H 0.90914 0.87149 0.30624 0.0
H2511 H 0.93219 0.86469 0.36479 0.0
C2512 C 0.02033 0.87054 0.40587 0.0
C2513 C 0.02048 0.8541 0.38709 0.0
C2514 C 0.00557 0.87767 0.424 0.0
C2515 C 0.99064 0.86859 0.4231 0.0
C2516 C 0.99057 0.85249 0.40215 0.0
C2517 C 0.00538 0.84526 0.3847 0.0
C2518 C 0.97528 0.8755 0.44645 0.0
C2519 C 0.96145 0.87863 0.41528 0.0
C2520 C 0.97429 0.87904 0.49921 0.0
C2521 C 0.98844 0.87579 0.53416 0.0
C2522 C 0.9952 0.8597 0.53869 0.0
C2523 C 0.00867 0.8568 0.57125 0.0
C2524 C 0.01541 0.86988 0.59979 0.0
C2525 C 0.00865 0.88587 0.59595 0.0
C2526 C 0.99518 0.88884 0.56338 0.0
C2527 C 0.89969 0.88729 0.5265 0.0
C2528 C 0.89874 0.90031 0.56222 0.0
C2529 C 0.91477 0.88328 0.50311 0.0
C2530 C 0.92923 0.89253 0.51358 0.0
C2531 C 0.92829 0.90571 0.54892 0.0
C2532 C 0.91318 0.90957 0.573 0.0
C2533 C 0.94532 0.88799 0.48879 0.0
C2534 C 0.95936 0.88526 0.51967 0.0
C2535 C 0.94658 0.88508 0.43554 0.0
C2536 C 0.93277 0.88914 0.4 0.0
C2537 C 0.92551 0.90509 0.40016 0.0
C2538 C 0.9124 0.9088 0.367 0.0
C2539 C 0.90649 0.89669 0.33322 0.0
C2540 C 0.91372 0.88086 0.33245 0.0
C2541 C 0.92683 0.87707 0.36557 0.0
H2542 H 0.89634 0.89959 0.30758 0.0
H2543 H 0.02585 0.86761 0.62497 0.0
loop_
_geom_bond_atom_site_label_1
_geom_bond_atom_site_label_2
_geom_bond_distance
_geom_bond_site_symmetry_2
_ccdc_geom_bond_type
Co0 O3 1.970 . S
Co0 N17 1.989 . S
Co0 O25 1.967 . S
Co0 O32 1.920 . S
Co1 O4 1.966 . S
Co1 N10 2.022 . S
Co1 N18 1.993 . S
Co1 O26 1.941 . S
C2 O3 1.258 . S
C2 O4 1.263 . S
O3 Co0 1.970 . S
O3 C2 1.258 . S
O4 Co1 1.966 . S
O4 C2 1.263 . S
C5 O6 1.235 . S
C5 O32 1.289 . S
O6 C5 1.235 . S
C7 C9 1.400 . S
C7 N10 1.351 . S
C7 C12 1.501 . S
C8 C9 1.387 . S
C8 N11 1.341 . S
C9 C7 1.400 . S
C9 C8 1.387 . S
N10 Co1 2.022 . S
N10 C7 1.351 . S
N10 N11 1.365 . S
N11 C8 1.341 . S
N11 N10 1.365 . S
N11 H31 0.862 . S
C12 C7 1.501 . S
C12 H13 0.961 . S
C12 H14 0.961 . S
C12 H15 0.960 . S
H13 C12 0.961 . S
H14 C12 0.961 . S
H15 C12 0.960 . S
C16 N17 1.342 . S
C16 C20 1.401 . S
C16 C21 1.499 . S
N17 Co0 1.989 . S
N17 C16 1.342 . S
N17 N18 1.388 . S
N18 Co1 1.993 . S
N18 N17 1.388 . S
N18 C19 1.346 . S
C19 N18 1.346 . S
C19 C20 1.396 . S
C19 C29 1.510 . S
C20 C16 1.401 . S
C20 C19 1.396 . S
C21 C16 1.499 . S
C21 H22 0.959 . S
C21 H23 0.960 . S
C21 H24 0.961 . S
H22 C21 0.959 . S
H23 C21 0.960 . S
H24 C21 0.961 . S
O25 Co0 1.967 . S
O25 C33 1.258 . S
O26 Co1 1.941 . S
O26 C33 1.266 . S
H27 C29 0.959 . S
H28 C29 0.961 . S
C29 C19 1.510 . S
C29 H27 0.959 . S
C29 H28 0.961 . S
C29 H30 0.960 . S
H30 C29 0.960 . S
H31 N11 0.862 . S
O32 Co0 1.920 . S
O32 C5 1.289 . S
C33 O25 1.258 . S
C33 O26 1.266 . S
Co34 O37 1.970 . S
Co34 N51 1.989 . S
Co34 O59 1.967 . S
Co34 O66 1.920 . S
Co35 O38 1.966 . S
Co35 N44 2.022 . S
Co35 N52 1.993 . S
Co35 O60 1.941 . S
C36 O37 1.258 . S
C36 O38 1.263 . S
O37 Co34 1.970 . S
O37 C36 1.258 . S
O38 Co35 1.966 . S
O38 C36 1.263 . S
C39 O40 1.235 . S
C39 O66 1.289 . S
O40 C39 1.235 . S
C41 C43 1.400 . S
C41 N44 1.351 . S
C41 C46 1.501 . S
C42 C43 1.387 . S
C42 N45 1.341 . S
C43 C41 1.400 . S
C43 C42 1.387 . S
N44 Co35 2.022 . S
N44 C41 1.351 . S
N44 N45 1.365 . S
N45 C42 1.341 . S
N45 N44 1.365 . S
N45 H65 0.862 . S
C46 C41 1.501 . S
C46 H47 0.961 . S
C46 H48 0.961 . S
C46 H49 0.960 . S
H47 C46 0.961 . S
H48 C46 0.961 . S
H49 C46 0.960 . S
C50 N51 1.342 . S
C50 C54 1.401 . S
C50 C55 1.499 . S
N51 Co34 1.989 . S
N51 C50 1.342 . S
N51 N52 1.388 . S
N52 Co35 1.993 . S
N52 N51 1.388 . S
N52 C53 1.346 . S
C53 N52 1.346 . S
C53 C54 1.396 . S
C53 C63 1.510 . S
C54 C50 1.401 . S
C54 C53 1.396 . S
C55 C50 1.499 . S
C55 H56 0.959 . S
C55 H57 0.960 . S
C55 H58 0.961 . S
H56 C55 0.959 . S
H57 C55 0.960 . S
H58 C55 0.961 . S
O59 Co34 1.967 . S
O59 C67 1.258 . S
O60 Co35 1.941 . S
O60 C67 1.266 . S
H61 C63 0.959 . S
H62 C63 0.961 . S
C63 C53 1.510 . S
C63 H61 0.959 . S
C63 H62 0.961 . S
C63 H64 0.960 . S
H64 C63 0.960 . S
H65 N45 0.862 . S
O66 Co34 1.920 . S
O66 C39 1.289 . S
C67 O59 1.258 . S
C67 O60 1.266 . S
Co68 O71 1.970 . S
Co68 N85 1.989 . S
Co68 O93 1.967 . S
Co68 O100 1.920 . S
Co69 O72 1.966 . S
Co69 N78 2.022 . S
Co69 N86 1.993 . S
Co69 O94 1.941 . S
C70 O71 1.258 . S
C70 O72 1.263 . S
O71 Co68 1.970 . S
O71 C70 1.258 . S
O72 Co69 1.966 . S
O72 C70 1.263 . S
C73 O74 1.235 . S
C73 O100 1.289 . S
O74 C73 1.235 . S
C75 C77 1.400 . S
C75 N78 1.351 . S
C75 C80 1.501 . S
C76 C77 1.387 . S
C76 N79 1.341 . S
C77 C75 1.400 . S
C77 C76 1.387 . S
N78 Co69 2.022 . S
N78 C75 1.351 . S
N78 N79 1.365 . S
N79 C76 1.341 . S
N79 N78 1.365 . S
N79 H99 0.862 . S
C80 C75 1.501 . S
C80 H81 0.961 . S
C80 H82 0.961 . S
C80 H83 0.960 . S
H81 C80 0.961 . S
H82 C80 0.961 . S
H83 C80 0.960 . S
C84 N85 1.342 . S
C84 C88 1.401 . S
C84 C89 1.499 . S
N85 Co68 1.989 . S
N85 C84 1.342 . S
N85 N86 1.388 . S
N86 Co69 1.993 . S
N86 N85 1.388 . S
N86 C87 1.346 . S
C87 N86 1.346 . S
C87 C88 1.396 . S
C87 C97 1.510 . S
C88 C84 1.401 . S
C88 C87 1.396 . S
C89 C84 1.499 . S
C89 H90 0.959 . S
C89 H91 0.960 . S
C89 H92 0.961 . S
H90 C89 0.959 . S
H91 C89 0.960 . S
H92 C89 0.961 . S
O93 Co68 1.967 . S
O93 C101 1.258 . S
O94 Co69 1.941 . S
O94 C101 1.266 . S
H95 C97 0.959 . S
H96 C97 0.961 . S
C97 C87 1.510 . S
C97 H95 0.959 . S
C97 H96 0.961 . S
C97 H98 0.960 . S
H98 C97 0.960 . S
H99 N79 0.862 . S
O100 Co68 1.920 . S
O100 C73 1.289 . S
C101 O93 1.258 . S
C101 O94 1.266 . S
Co102 O105 1.970 . S
Co102 N119 1.989 . S
Co102 O127 1.967 . S
Co102 O134 1.920 . S
Co103 O106 1.966 . S
Co103 N112 2.022 . S
Co103 N120 1.993 . S
Co103 O128 1.941 . S
C104 O105 1.258 . S
C104 O106 1.263 . S
O105 Co102 1.970 . S
O105 C104 1.258 . S
O106 Co103 1.966 . S
O106 C104 1.263 . S
C107 O108 1.235 . S
C107 O134 1.289 . S
O108 C107 1.235 . S
C109 C111 1.400 . S
C109 N112 1.351 . S
C109 C114 1.501 . S
C110 C111 1.387 . S
C110 N113 1.341 . S
C111 C109 1.400 . S
C111 C110 1.387 . S
N112 Co103 2.022 . S
N112 C109 1.351 . S
N112 N113 1.365 . S
N113 C110 1.341 . S
N113 N112 1.365 . S
N113 H133 0.862 . S
C114 C109 1.501 . S
C114 H115 0.961 . S
C114 H116 0.961 . S
C114 H117 0.960 . S
H115 C114 0.961 . S
H116 C114 0.961 . S
H117 C114 0.960 . S
C118 N119 1.342 . S
C118 C122 1.401 . S
C118 C123 1.499 . S
N119 Co102 1.989 . S
N119 C118 1.342 . S
N119 N120 1.388 . S
N120 Co103 1.993 . S
N120 N119 1.388 . S
N120 C121 1.346 . S
C121 N120 1.346 . S
C121 C122 1.396 . S
C121 C131 1.510 . S
C122 C118 1.401 . S
C122 C121 1.396 . S
C123 C118 1.499 . S
C123 H124 0.959 . S
C123 H125 0.960 . S
C123 H126 0.961 . S
H124 C123 0.959 . S
H125 C123 0.960 . S
H126 C123 0.961 . S
O127 Co102 1.967 . S
O127 C135 1.258 . S
O128 Co103 1.941 . S
O128 C135 1.266 . S
H129 C131 0.959 . S
H130 C131 0.961 . S
C131 C121 1.510 . S
C131 H129 0.959 . S
C131 H130 0.961 . S
C131 H132 0.960 . S
H132 C131 0.960 . S
H133 N113 0.862 . S
O134 Co102 1.920 . S
O134 C107 1.289 . S
C135 O127 1.258 . S
C135 O128 1.266 . S
Co136 O139 1.970 . S
Co136 N153 1.989 . S
Co136 O161 1.967 . S
Co136 O168 1.920 . S
Co137 O140 1.966 . S
Co137 N146 2.022 . S
Co137 N154 1.993 . S
Co137 O162 1.941 . S
C138 O139 1.258 . S
C138 O140 1.263 . S
O139 Co136 1.970 . S
O139 C138 1.258 . S
O140 Co137 1.966 . S
O140 C138 1.263 . S
C141 O142 1.235 . S
C141 O168 1.289 . S
O142 C141 1.235 . S
C143 C145 1.400 . S
C143 N146 1.351 . S
C143 C148 1.501 . S
C144 C145 1.387 . S
C144 N147 1.341 . S
C145 C143 1.400 . S
C145 C144 1.387 . S
N146 Co137 2.022 . S
N146 C143 1.351 . S
N146 N147 1.365 . S
N147 C144 1.341 . S
N147 N146 1.365 . S
N147 H167 0.862 . S
C148 C143 1.501 . S
C148 H149 0.961 . S
C148 H150 0.961 . S
C148 H151 0.960 . S
H149 C148 0.961 . S
H150 C148 0.961 . S
H151 C148 0.960 . S
C152 N153 1.342 . S
C152 C156 1.401 . S
C152 C157 1.499 . S
N153 Co136 1.989 . S
N153 C152 1.342 . S
N153 N154 1.388 . S
N154 Co137 1.993 . S
N154 N153 1.388 . S
N154 C155 1.346 . S
C155 N154 1.346 . S
C155 C156 1.396 . S
C155 C165 1.510 . S
C156 C152 1.401 . S
C156 C155 1.396 . S
C157 C152 1.499 . S
C157 H158 0.959 . S
C157 H159 0.960 . S
C157 H160 0.961 . S
H158 C157 0.959 . S
H159 C157 0.960 . S
H160 C157 0.961 . S
O161 Co136 1.967 . S
O161 C169 1.258 . S
O162 Co137 1.941 . S
O162 C169 1.266 . S
H163 C165 0.959 . S
H164 C165 0.961 . S
C165 C155 1.510 . S
C165 H163 0.959 . S
C165 H164 0.961 . S
C165 H166 0.960 . S
H166 C165 0.960 . S
H167 N147 0.862 . S
O168 Co136 1.920 . S
O168 C141 1.289 . S
C169 O161 1.258 . S
C169 O162 1.266 . S
Co170 O173 1.970 . S
Co170 N187 1.989 . S
Co170 O195 1.967 . S
Co170 O202 1.920 . S
Co171 O174 1.966 . S
Co171 N180 2.022 . S
Co171 N188 1.993 . S
Co171 O196 1.941 . S
C172 O173 1.258 . S
C172 O174 1.263 . S
O173 Co170 1.970 . S
O173 C172 1.258 . S
O174 Co171 1.966 . S
O174 C172 1.263 . S
C175 O176 1.235 . S
C175 O202 1.289 . S
O176 C175 1.235 . S
C177 C179 1.400 . S
C177 N180 1.351 . S
C177 C182 1.501 . S
C178 C179 1.387 . S
C178 N181 1.341 . S
C179 C177 1.400 . S
C179 C178 1.387 . S
N180 Co171 2.022 . S
N180 C177 1.351 . S
N180 N181 1.365 . S
N181 C178 1.341 . S
N181 N180 1.365 . S
N181 H201 0.862 . S
C182 C177 1.501 . S
C182 H183 0.961 . S
C182 H184 0.961 . S
C182 H185 0.960 . S
H183 C182 0.961 . S
H184 C182 0.961 . S
H185 C182 0.960 . S
C186 N187 1.342 . S
C186 C190 1.401 . S
C186 C191 1.499 . S
N187 Co170 1.989 . S
N187 C186 1.342 . S
N187 N188 1.388 . S
N188 Co171 1.993 . S
N188 N187 1.388 . S
N188 C189 1.346 . S
C189 N188 1.346 . S
C189 C190 1.396 . S
C189 C199 1.510 . S
C190 C186 1.401 . S
C190 C189 1.396 . S
C191 C186 1.499 . S
C191 H192 0.959 . S
C191 H193 0.960 . S
C191 H194 0.961 . S
H192 C191 0.959 . S
H193 C191 0.960 . S
H194 C191 0.961 . S
O195 Co170 1.967 . S
O195 C203 1.258 . S
O196 Co171 1.941 . S
O196 C203 1.266 . S
H197 C199 0.959 . S
H198 C199 0.961 . S
C199 C189 1.510 . S
C199 H197 0.959 . S
C199 H198 0.961 . S
C199 H200 0.960 . S
H200 C199 0.960 . S
H201 N181 0.862 . S
O202 Co170 1.920 . S
O202 C175 1.289 . S
C203 O195 1.258 . S
C203 O196 1.266 . S
Co204 O207 1.970 . S
Co204 N221 1.989 . S
Co204 O229 1.967 . S
Co204 O236 1.920 . S
Co205 O208 1.966 . S
Co205 N214 2.022 . S
Co205 N222 1.993 . S
Co205 O230 1.941 . S
C206 O207 1.258 . S
C206 O208 1.263 . S
O207 Co204 1.970 . S
O207 C206 1.258 . S
O208 Co205 1.966 . S
O208 C206 1.263 . S
C209 O210 1.235 . S
C209 O236 1.289 . S
O210 C209 1.235 . S
C211 C213 1.400 . S
C211 N214 1.351 . S
C211 C216 1.501 . S
C212 C213 1.387 . S
C212 N215 1.341 . S
C213 C211 1.400 . S
C213 C212 1.387 . S
N214 Co205 2.022 . S
N214 C211 1.351 . S
N214 N215 1.365 . S
N215 C212 1.341 . S
N215 N214 1.365 . S
N215 H235 0.862 . S
C216 C211 1.501 . S
C216 H217 0.961 . S
C216 H218 0.961 . S
C216 H219 0.960 . S
H217 C216 0.961 . S
H218 C216 0.961 . S
H219 C216 0.960 . S
C220 N221 1.342 . S
C220 C224 1.401 . S
C220 C225 1.499 . S
N221 Co204 1.989 . S
N221 C220 1.342 . S
N221 N222 1.388 . S
N222 Co205 1.993 . S
N222 N221 1.388 . S
N222 C223 1.346 . S
C223 N222 1.346 . S
C223 C224 1.396 . S
C223 C233 1.510 . S
C224 C220 1.401 . S
C224 C223 1.396 . S
C225 C220 1.499 . S
C225 H226 0.959 . S
C225 H227 0.960 . S
C225 H228 0.961 . S
H226 C225 0.959 . S
H227 C225 0.960 . S
H228 C225 0.961 . S
O229 Co204 1.967 . S
O229 C237 1.258 . S
O230 Co205 1.941 . S
O230 C237 1.266 . S
H231 C233 0.959 . S
H232 C233 0.961 . S
C233 C223 1.510 . S
C233 H231 0.959 . S
C233 H232 0.961 . S
C233 H234 0.960 . S
H234 C233 0.960 . S
H235 N215 0.862 . S
O236 Co204 1.920 . S
O236 C209 1.289 . S
C237 O229 1.258 . S
C237 O230 1.266 . S
Co238 O241 1.970 . S
Co238 N255 1.989 . S
Co238 O263 1.967 . S
Co238 O270 1.920 . S
Co239 O242 1.966 . S
Co239 N248 2.022 . S
Co239 N256 1.993 . S
Co239 O264 1.941 . S
C240 O241 1.258 . S
C240 O242 1.263 . S
O241 Co238 1.970 . S
O241 C240 1.258 . S
O242 Co239 1.966 . S
O242 C240 1.263 . S
C243 O244 1.235 . S
C243 O270 1.289 . S
O244 C243 1.235 . S
C245 C247 1.400 . S
C245 N248 1.351 . S
C245 C250 1.501 . S
C246 C247 1.387 . S
C246 N249 1.341 . S
C247 C245 1.400 . S
C247 C246 1.387 . S
N248 Co239 2.022 . S
N248 C245 1.351 . S
N248 N249 1.365 . S
N249 C246 1.341 . S
N249 N248 1.365 . S
N249 H269 0.862 . S
C250 C245 1.501 . S
C250 H251 0.961 . S
C250 H252 0.961 . S
C250 H253 0.960 . S
H251 C250 0.961 . S
H252 C250 0.961 . S
H253 C250 0.960 . S
C254 N255 1.342 . S
C254 C258 1.401 . S
C254 C259 1.499 . S
N255 Co238 1.989 . S
N255 C254 1.342 . S
N255 N256 1.388 . S
N256 Co239 1.993 . S
N256 N255 1.388 . S
N256 C257 1.346 . S
C257 N256 1.346 . S
C257 C258 1.396 . S
C257 C267 1.510 . S
C258 C254 1.401 . S
C258 C257 1.396 . S
C259 C254 1.499 . S
C259 H260 0.959 . S
C259 H261 0.960 . S
C259 H262 0.961 . S
H260 C259 0.959 . S
H261 C259 0.960 . S
H262 C259 0.961 . S
O263 Co238 1.967 . S
O263 C271 1.258 . S
O264 Co239 1.941 . S
O264 C271 1.266 . S
H265 C267 0.959 . S
H266 C267 0.961 . S
C267 C257 1.510 . S
C267 H265 0.959 . S
C267 H266 0.961 . S
C267 H268 0.960 . S
H268 C267 0.960 . S
H269 N249 0.862 . S
O270 Co238 1.920 . S
O270 C243 1.289 . S
C271 O263 1.258 . S
C271 O264 1.266 . S
Co272 O275 1.970 . S
Co272 N289 1.989 . S
Co272 O297 1.967 . S
Co272 O304 1.920 . S
Co273 O276 1.966 . S
Co273 N282 2.022 . S
Co273 N290 1.993 . S
Co273 O298 1.941 . S
C274 O275 1.258 . S
C274 O276 1.263 . S
O275 Co272 1.970 . S
O275 C274 1.258 . S
O276 Co273 1.966 . S
O276 C274 1.263 . S
C277 O278 1.235 . S
C277 O304 1.289 . S
O278 C277 1.235 . S
C279 C281 1.400 . S
C279 N282 1.351 . S
C279 C284 1.501 . S
C280 C281 1.387 . S
C280 N283 1.341 . S
C281 C279 1.400 . S
C281 C280 1.387 . S
N282 Co273 2.022 . S
N282 C279 1.351 . S
N282 N283 1.365 . S
N283 C280 1.341 . S
N283 N282 1.365 . S
N283 H303 0.862 . S
C284 C279 1.501 . S
C284 H285 0.961 . S
C284 H286 0.961 . S
C284 H287 0.960 . S
H285 C284 0.961 . S
H286 C284 0.961 . S
H287 C284 0.960 . S
C288 N289 1.342 . S
C288 C292 1.401 . S
C288 C293 1.499 . S
N289 Co272 1.989 . S
N289 C288 1.342 . S
N289 N290 1.388 . S
N290 Co273 1.993 . S
N290 N289 1.388 . S
N290 C291 1.346 . S
C291 N290 1.346 . S
C291 C292 1.396 . S
C291 C301 1.510 . S
C292 C288 1.401 . S
C292 C291 1.396 . S
C293 C288 1.499 . S
C293 H294 0.959 . S
C293 H295 0.960 . S
C293 H296 0.961 . S
H294 C293 0.959 . S
H295 C293 0.960 . S
H296 C293 0.961 . S
O297 Co272 1.967 . S
O297 C305 1.258 . S
O298 Co273 1.941 . S
O298 C305 1.266 . S
H299 C301 0.959 . S
H300 C301 0.961 . S
C301 C291 1.510 . S
C301 H299 0.959 . S
C301 H300 0.961 . S
C301 H302 0.960 . S
H302 C301 0.960 . S
H303 N283 0.862 . S
O304 Co272 1.920 . S
O304 C277 1.289 . S
C305 O297 1.258 . S
C305 O298 1.266 . S
Co306 O309 1.970 . S
Co306 N323 1.989 . S
Co306 O331 1.967 . S
Co306 O338 1.920 . S
Co307 O310 1.966 . S
Co307 N316 2.022 . S
Co307 N324 1.993 . S
Co307 O332 1.941 . S
C308 O309 1.258 . S
C308 O310 1.263 . S
O309 Co306 1.970 . S
O309 C308 1.258 . S
O310 Co307 1.966 . S
O310 C308 1.263 . S
C311 O312 1.235 . S
C311 O338 1.289 . S
O312 C311 1.235 . S
C313 C315 1.400 . S
C313 N316 1.351 . S
C313 C318 1.501 . S
C314 C315 1.387 . S
C314 N317 1.341 . S
C315 C313 1.400 . S
C315 C314 1.387 . S
N316 Co307 2.022 . S
N316 C313 1.351 . S
N316 N317 1.365 . S
N317 C314 1.341 . S
N317 N316 1.365 . S
N317 H337 0.862 . S
C318 C313 1.501 . S
C318 H319 0.961 . S
C318 H320 0.961 . S
C318 H321 0.960 . S
H319 C318 0.961 . S
H320 C318 0.961 . S
H321 C318 0.960 . S
C322 N323 1.342 . S
C322 C326 1.401 . S
C322 C327 1.499 . S
N323 Co306 1.989 . S
N323 C322 1.342 . S
N323 N324 1.388 . S
N324 Co307 1.993 . S
N324 N323 1.388 . S
N324 C325 1.346 . S
C325 N324 1.346 . S
C325 C326 1.396 . S
C325 C335 1.510 . S
C326 C322 1.401 . S
C326 C325 1.396 . S
C327 C322 1.499 . S
C327 H328 0.959 . S
C327 H329 0.960 . S
C327 H330 0.961 . S
H328 C327 0.959 . S
H329 C327 0.960 . S
H330 C327 0.961 . S
O331 Co306 1.967 . S
O331 C339 1.258 . S
O332 Co307 1.941 . S
O332 C339 1.266 . S
H333 C335 0.959 . S
H334 C335 0.961 . S
C335 C325 1.510 . S
C335 H333 0.959 . S
C335 H334 0.961 . S
C335 H336 0.960 . S
H336 C335 0.960 . S
H337 N317 0.862 . S
O338 Co306 1.920 . S
O338 C311 1.289 . S
C339 O331 1.258 . S
C339 O332 1.266 . S
Co340 O343 1.970 . S
Co340 N357 1.989 . S
Co340 O365 1.967 . S
Co340 O372 1.920 . S
Co341 O344 1.966 . S
Co341 N350 2.022 . S
Co341 N358 1.993 . S
Co341 O366 1.941 . S
C342 O343 1.258 . S
C342 O344 1.263 . S
O343 Co340 1.970 . S
O343 C342 1.258 . S
O344 Co341 1.966 . S
O344 C342 1.263 . S
C345 O346 1.235 . S
C345 O372 1.289 . S
O346 C345 1.235 . S
C347 C349 1.400 . S
C347 N350 1.351 . S
C347 C352 1.501 . S
C348 C349 1.387 . S
C348 N351 1.341 . S
C349 C347 1.400 . S
C349 C348 1.387 . S
N350 Co341 2.022 . S
N350 C347 1.351 . S
N350 N351 1.365 . S
N351 C348 1.341 . S
N351 N350 1.365 . S
N351 H371 0.862 . S
C352 C347 1.501 . S
C352 H353 0.961 . S
C352 H354 0.961 . S
C352 H355 0.960 . S
H353 C352 0.961 . S
H354 C352 0.961 . S
H355 C352 0.960 . S
C356 N357 1.342 . S
C356 C360 1.401 . S
C356 C361 1.499 . S
N357 Co340 1.989 . S
N357 C356 1.342 . S
N357 N358 1.388 . S
N358 Co341 1.993 . S
N358 N357 1.388 . S
N358 C359 1.346 . S
C359 N358 1.346 . S
C359 C360 1.396 . S
C359 C369 1.510 . S
C360 C356 1.401 . S
C360 C359 1.396 . S
C361 C356 1.499 . S
C361 H362 0.959 . S
C361 H363 0.960 . S
C361 H364 0.961 . S
H362 C361 0.959 . S
H363 C361 0.960 . S
H364 C361 0.961 . S
O365 Co340 1.967 . S
O365 C373 1.258 . S
O366 Co341 1.941 . S
O366 C373 1.266 . S
H367 C369 0.959 . S
H368 C369 0.961 . S
C369 C359 1.510 . S
C369 H367 0.959 . S
C369 H368 0.961 . S
C369 H370 0.960 . S
H370 C369 0.960 . S
H371 N351 0.862 . S
O372 Co340 1.920 . S
O372 C345 1.289 . S
C373 O365 1.258 . S
C373 O366 1.266 . S
Co374 O377 1.970 . S
Co374 N391 1.989 . S
Co374 O399 1.967 . S
Co374 O406 1.920 . S
Co375 O378 1.966 . S
Co375 N384 2.022 . S
Co375 N392 1.993 . S
Co375 O400 1.941 . S
C376 O377 1.258 . S
C376 O378 1.263 . S
O377 Co374 1.970 . S
O377 C376 1.258 . S
O378 Co375 1.966 . S
O378 C376 1.263 . S
C379 O380 1.235 . S
C379 O406 1.289 . S
O380 C379 1.235 . S
C381 C383 1.400 . S
C381 N384 1.351 . S
C381 C386 1.501 . S
C382 C383 1.387 . S
C382 N385 1.341 . S
C383 C381 1.400 . S
C383 C382 1.387 . S
N384 Co375 2.022 . S
N384 C381 1.351 . S
N384 N385 1.365 . S
N385 C382 1.341 . S
N385 N384 1.365 . S
N385 H405 0.862 . S
C386 C381 1.501 . S
C386 H387 0.961 . S
C386 H388 0.961 . S
C386 H389 0.960 . S
H387 C386 0.961 . S
H388 C386 0.961 . S
H389 C386 0.960 . S
C390 N391 1.342 . S
C390 C394 1.401 . S
C390 C395 1.499 . S
N391 Co374 1.989 . S
N391 C390 1.342 . S
N391 N392 1.388 . S
N392 Co375 1.993 . S
N392 N391 1.388 . S
N392 C393 1.346 . S
C393 N392 1.346 . S
C393 C394 1.396 . S
C393 C403 1.510 . S
C394 C390 1.401 . S
C394 C393 1.396 . S
C395 C390 1.499 . S
C395 H396 0.959 . S
C395 H397 0.960 . S
C395 H398 0.961 . S
H396 C395 0.959 . S
H397 C395 0.960 . S
H398 C395 0.961 . S
O399 Co374 1.967 . S
O399 C407 1.258 . S
O400 Co375 1.941 . S
O400 C407 1.266 . S
H401 C403 0.959 . S
H402 C403 0.961 . S
C403 C393 1.510 . S
C403 H401 0.959 . S
C403 H402 0.961 . S
C403 H404 0.960 . S
H404 C403 0.960 . S
H405 N385 0.862 . S
O406 Co374 1.920 . S
O406 C379 1.289 . S
C407 O399 1.258 . S
C407 O400 1.266 . S
Co408 O411 1.970 . S
Co408 N425 1.989 . S
Co408 O433 1.967 . S
Co408 O440 1.920 . S
Co409 O412 1.966 . S
Co409 N418 2.022 . S
Co409 N426 1.993 . S
Co409 O434 1.941 . S
C410 O411 1.258 . S
C410 O412 1.263 . S
O411 Co408 1.970 . S
O411 C410 1.258 . S
O412 Co409 1.966 . S
O412 C410 1.263 . S
C413 O414 1.235 . S
C413 O440 1.289 . S
O414 C413 1.235 . S
C415 C417 1.400 . S
C415 N418 1.351 . S
C415 C420 1.501 . S
C416 C417 1.387 . S
C416 N419 1.341 . S
C417 C415 1.400 . S
C417 C416 1.387 . S
N418 Co409 2.022 . S
N418 C415 1.351 . S
N418 N419 1.365 . S
N419 C416 1.341 . S
N419 N418 1.365 . S
N419 H439 0.862 . S
C420 C415 1.501 . S
C420 H421 0.961 . S
C420 H422 0.961 . S
C420 H423 0.960 . S
H421 C420 0.961 . S
H422 C420 0.961 . S
H423 C420 0.960 . S
C424 N425 1.342 . S
C424 C428 1.401 . S
C424 C429 1.499 . S
N425 Co408 1.989 . S
N425 C424 1.342 . S
N425 N426 1.388 . S
N426 Co409 1.993 . S
N426 N425 1.388 . S
N426 C427 1.346 . S
C427 N426 1.346 . S
C427 C428 1.396 . S
C427 C437 1.510 . S
C428 C424 1.401 . S
C428 C427 1.396 . S
C429 C424 1.499 . S
C429 H430 0.959 . S
C429 H431 0.960 . S
C429 H432 0.961 . S
H430 C429 0.959 . S
H431 C429 0.960 . S
H432 C429 0.961 . S
O433 Co408 1.967 . S
O433 C441 1.258 . S
O434 Co409 1.941 . S
O434 C441 1.266 . S
H435 C437 0.959 . S
H436 C437 0.961 . S
C437 C427 1.510 . S
C437 H435 0.959 . S
C437 H436 0.961 . S
C437 H438 0.960 . S
H438 C437 0.960 . S
H439 N419 0.862 . S
O440 Co408 1.920 . S
O440 C413 1.289 . S
C441 O433 1.258 . S
C441 O434 1.266 . S
Co442 O445 1.970 . S
Co442 N459 1.989 . S
Co442 O467 1.967 . S
Co442 O474 1.920 . S
Co443 O446 1.966 . S
Co443 N452 2.022 . S
Co443 N460 1.993 . S
Co443 O468 1.941 . S
C444 O445 1.258 . S
C444 O446 1.263 . S
O445 Co442 1.970 . S
O445 C444 1.258 . S
O446 Co443 1.966 . S
O446 C444 1.263 . S
C447 O448 1.235 . S
C447 O474 1.289 . S
O448 C447 1.235 . S
C449 C451 1.400 . S
C449 N452 1.351 . S
C449 C454 1.501 . S
C450 C451 1.387 . S
C450 N453 1.341 . S
C451 C449 1.400 . S
C451 C450 1.387 . S
N452 Co443 2.022 . S
N452 C449 1.351 . S
N452 N453 1.365 . S
N453 C450 1.341 . S
N453 N452 1.365 . S
N453 H473 0.862 . S
C454 C449 1.501 . S
C454 H455 0.961 . S
C454 H456 0.961 . S
C454 H457 0.960 . S
H455 C454 0.961 . S
H456 C454 0.961 . S
H457 C454 0.960 . S
C458 N459 1.342 . S
C458 C462 1.401 . S
C458 C463 1.499 . S
N459 Co442 1.989 . S
N459 C458 1.342 . S
N459 N460 1.388 . S
N460 Co443 1.993 . S
N460 N459 1.388 . S
N460 C461 1.346 . S
C461 N460 1.346 . S
C461 C462 1.396 . S
C461 C471 1.510 . S
C462 C458 1.401 . S
C462 C461 1.396 . S
C463 C458 1.499 . S
C463 H464 0.959 . S
C463 H465 0.960 . S
C463 H466 0.961 . S
H464 C463 0.959 . S
H465 C463 0.960 . S
H466 C463 0.961 . S
O467 Co442 1.967 . S
O467 C475 1.258 . S
O468 Co443 1.941 . S
O468 C475 1.266 . S
H469 C471 0.959 . S
H470 C471 0.961 . S
C471 C461 1.510 . S
C471 H469 0.959 . S
C471 H470 0.961 . S
C471 H472 0.960 . S
H472 C471 0.960 . S
H473 N453 0.862 . S
O474 Co442 1.920 . S
O474 C447 1.289 . S
C475 O467 1.258 . S
C475 O468 1.266 . S
Co476 O479 1.970 . S
Co476 N493 1.989 . S
Co476 O501 1.967 . S
Co476 O508 1.920 . S
Co477 O480 1.966 . S
Co477 N486 2.022 . S
Co477 N494 1.993 . S
Co477 O502 1.941 . S
C478 O479 1.258 . S
C478 O480 1.263 . S
O479 Co476 1.970 . S
O479 C478 1.258 . S
O480 Co477 1.966 . S
O480 C478 1.263 . S
C481 O482 1.235 . S
C481 O508 1.289 . S
O482 C481 1.235 . S
C483 C485 1.400 . S
C483 N486 1.351 . S
C483 C488 1.501 . S
C484 C485 1.387 . S
C484 N487 1.341 . S
C485 C483 1.400 . S
C485 C484 1.387 . S
N486 Co477 2.022 . S
N486 C483 1.351 . S
N486 N487 1.365 . S
N487 C484 1.341 . S
N487 N486 1.365 . S
N487 H507 0.862 . S
C488 C483 1.501 . S
C488 H489 0.961 . S
C488 H490 0.961 . S
C488 H491 0.960 . S
H489 C488 0.961 . S
H490 C488 0.961 . S
H491 C488 0.960 . S
C492 N493 1.342 . S
C492 C496 1.401 . S
C492 C497 1.499 . S
N493 Co476 1.989 . S
N493 C492 1.342 . S
N493 N494 1.388 . S
N494 Co477 1.993 . S
N494 N493 1.388 . S
N494 C495 1.346 . S
C495 N494 1.346 . S
C495 C496 1.396 . S
C495 C505 1.510 . S
C496 C492 1.401 . S
C496 C495 1.396 . S
C497 C492 1.499 . S
C497 H498 0.959 . S
C497 H499 0.960 . S
C497 H500 0.961 . S
H498 C497 0.959 . S
H499 C497 0.960 . S
H500 C497 0.961 . S
O501 Co476 1.967 . S
O501 C509 1.258 . S
O502 Co477 1.941 . S
O502 C509 1.266 . S
H503 C505 0.959 . S
H504 C505 0.961 . S
C505 C495 1.510 . S
C505 H503 0.959 . S
C505 H504 0.961 . S
C505 H506 0.960 . S
H506 C505 0.960 . S
H507 N487 0.862 . S
O508 Co476 1.920 . S
O508 C481 1.289 . S
C509 O501 1.258 . S
C509 O502 1.266 . S
Co510 O513 1.970 . S
Co510 N527 1.989 . S
Co510 O535 1.967 . S
Co510 O542 1.920 . S
Co511 O514 1.966 . S
Co511 N520 2.022 . S
Co511 N528 1.993 . S
Co511 O536 1.941 . S
C512 O513 1.258 . S
C512 O514 1.263 . S
O513 Co510 1.970 . S
O513 C512 1.258 . S
O514 Co511 1.966 . S
O514 C512 1.263 . S
C515 O516 1.235 . S
C515 O542 1.289 . S
O516 C515 1.235 . S
C517 C519 1.400 . S
C517 N520 1.351 . S
C517 C522 1.501 . S
C518 C519 1.387 . S
C518 N521 1.341 . S
C519 C517 1.400 . S
C519 C518 1.387 . S
N520 Co511 2.022 . S
N520 C517 1.351 . S
N520 N521 1.365 . S
N521 C518 1.341 . S
N521 N520 1.365 . S
N521 H541 0.862 . S
C522 C517 1.501 . S
C522 H523 0.961 . S
C522 H524 0.961 . S
C522 H525 0.960 . S
H523 C522 0.961 . S
H524 C522 0.961 . S
H525 C522 0.960 . S
C526 N527 1.342 . S
C526 C530 1.401 . S
C526 C531 1.499 . S
N527 Co510 1.989 . S
N527 C526 1.342 . S
N527 N528 1.388 . S
N528 Co511 1.993 . S
N528 N527 1.388 . S
N528 C529 1.346 . S
C529 N528 1.346 . S
C529 C530 1.396 . S
C529 C539 1.510 . S
C530 C526 1.401 . S
C530 C529 1.396 . S
C531 C526 1.499 . S
C531 H532 0.959 . S
C531 H533 0.960 . S
C531 H534 0.961 . S
H532 C531 0.959 . S
H533 C531 0.960 . S
H534 C531 0.961 . S
O535 Co510 1.967 . S
O535 C543 1.258 . S
O536 Co511 1.941 . S
O536 C543 1.266 . S
H537 C539 0.959 . S
H538 C539 0.961 . S
C539 C529 1.510 . S
C539 H537 0.959 . S
C539 H538 0.961 . S
C539 H540 0.960 . S
H540 C539 0.960 . S
H541 N521 0.862 . S
O542 Co510 1.920 . S
O542 C515 1.289 . S
C543 O535 1.258 . S
C543 O536 1.266 . S
H544 C562 0.951 . S
H545 C564 0.951 . S
H546 C566 0.950 . S
H547 C567 0.950 . S
H548 C569 0.950 . S
H549 C572 0.950 . S
H550 C573 0.950 . S
H551 C575 0.950 . S
H552 C576 0.950 . S
H553 C577 0.951 . S
H554 C579 0.951 . S
H555 C581 0.950 . S
H556 C582 0.950 . S
H557 C584 0.950 . S
H558 C587 0.950 . S
H559 C588 0.950 . S
H560 C590 0.950 . S
H561 C591 0.950 . S
C562 H544 0.951 . S
C562 C563 1.366 . S
C562 C564 1.388 . S
C563 C562 1.366 . S
C563 C567 1.385 . S
C564 H545 0.951 . S
C564 C562 1.388 . S
C564 C565 1.366 . S
C565 C564 1.366 . S
C565 C566 1.414 . S
C565 C568 1.499 . S
C566 H546 0.950 . S
C566 C565 1.414 . S
C566 C567 1.374 . S
C567 H547 0.950 . S
C567 C563 1.385 . S
C567 C566 1.374 . S
C568 C565 1.499 . S
C568 C569 1.373 . S
C568 C570 1.389 . S
C569 H548 0.950 . S
C569 C568 1.373 . S
C569 C585 1.377 . S
C570 C568 1.389 . S
C570 C571 1.524 . S
C570 C584 1.377 . S
C571 C570 1.524 . S
C571 C572 1.397 . S
C571 C576 1.363 . S
C572 H549 0.950 . S
C572 C571 1.397 . S
C572 C573 1.334 . S
C573 H550 0.950 . S
C573 C572 1.334 . S
C573 C574 1.287 . S
C574 C573 1.287 . S
C574 C575 1.524 . S
C574 H593 0.913 . S
C575 H551 0.950 . S
C575 C574 1.524 . S
C575 C576 1.415 . S
C576 H552 0.950 . S
C576 C571 1.363 . S
C576 C575 1.415 . S
C577 H553 0.951 . S
C577 C578 1.366 . S
C577 C579 1.388 . S
C578 C577 1.366 . S
C578 C582 1.385 . S
C579 H554 0.951 . S
C579 C577 1.388 . S
C579 C580 1.366 . S
C580 C579 1.366 . S
C580 C581 1.414 . S
C580 C583 1.499 . S
C581 H555 0.950 . S
C581 C580 1.414 . S
C581 C582 1.374 . S
C582 H556 0.950 . S
C582 C578 1.385 . S
C582 C581 1.374 . S
C583 C580 1.499 . S
C583 C584 1.373 . S
C583 C585 1.389 . S
C584 H557 0.950 . S
C584 C570 1.377 . S
C584 C583 1.373 . S
C585 C569 1.377 . S
C585 C583 1.389 . S
C585 C586 1.524 . S
C586 C585 1.524 . S
C586 C587 1.397 . S
C586 C591 1.363 . S
C587 H558 0.950 . S
C587 C586 1.397 . S
C587 C588 1.334 . S
C588 H559 0.950 . S
C588 C587 1.334 . S
C588 C589 1.287 . S
C589 C588 1.287 . S
C589 C590 1.524 . S
C589 H592 0.999 . S
C590 H560 0.950 . S
C590 C589 1.524 . S
C590 C591 1.415 . S
C591 H561 0.950 . S
C591 C586 1.363 . S
C591 C590 1.415 . S
H592 C589 0.999 . S
H593 C574 0.913 . S
H594 C612 0.951 . S
H595 C614 0.951 . S
H596 C616 0.950 . S
H597 C617 0.950 . S
H598 C619 0.950 . S
H599 C622 0.950 . S
H600 C623 0.950 . S
H601 C625 0.950 . S
H602 C626 0.950 . S
H603 C627 0.951 . S
H604 C629 0.951 . S
H605 C631 0.950 . S
H606 C632 0.950 . S
H607 C634 0.950 . S
H608 C637 0.950 . S
H609 C638 0.950 . S
H610 C640 0.950 . S
H611 C641 0.950 . S
C612 H594 0.951 . S
C612 C613 1.366 . S
C612 C614 1.388 . S
C613 C612 1.366 . S
C613 C617 1.385 . S
C614 H595 0.951 . S
C614 C612 1.388 . S
C614 C615 1.366 . S
C615 C614 1.366 . S
C615 C616 1.414 . S
C615 C618 1.499 . S
C616 H596 0.950 . S
C616 C615 1.414 . S
C616 C617 1.374 . S
C617 H597 0.950 . S
C617 C613 1.385 . S
C617 C616 1.374 . S
C618 C615 1.499 . S
C618 C619 1.373 . S
C618 C620 1.389 . S
C619 H598 0.950 . S
C619 C618 1.373 . S
C619 C635 1.377 . S
C620 C618 1.389 . S
C620 C621 1.524 . S
C620 C634 1.377 . S
C621 C620 1.524 . S
C621 C622 1.397 . S
C621 C626 1.363 . S
C622 H599 0.950 . S
C622 C621 1.397 . S
C622 C623 1.334 . S
C623 H600 0.950 . S
C623 C622 1.334 . S
C623 C624 1.287 . S
C624 C623 1.287 . S
C624 C625 1.524 . S
C624 H643 0.913 . S
C625 H601 0.950 . S
C625 C624 1.524 . S
C625 C626 1.415 . S
C626 H602 0.950 . S
C626 C621 1.363 . S
C626 C625 1.415 . S
C627 H603 0.951 . S
C627 C628 1.366 . S
C627 C629 1.388 . S
C628 C627 1.366 . S
C628 C632 1.385 . S
C629 H604 0.951 . S
C629 C627 1.388 . S
C629 C630 1.366 . S
C630 C629 1.366 . S
C630 C631 1.414 . S
C630 C633 1.499 . S
C631 H605 0.950 . S
C631 C630 1.414 . S
C631 C632 1.374 . S
C632 H606 0.950 . S
C632 C628 1.385 . S
C632 C631 1.374 . S
C633 C630 1.499 . S
C633 C634 1.373 . S
C633 C635 1.389 . S
C634 H607 0.950 . S
C634 C620 1.377 . S
C634 C633 1.373 . S
C635 C619 1.377 . S
C635 C633 1.389 . S
C635 C636 1.524 . S
C636 C635 1.524 . S
C636 C637 1.397 . S
C636 C641 1.363 . S
C637 H608 0.950 . S
C637 C636 1.397 . S
C637 C638 1.334 . S
C638 H609 0.950 . S
C638 C637 1.334 . S
C638 C639 1.287 . S
C639 C638 1.287 . S
C639 C640 1.524 . S
C639 H642 0.999 . S
C640 H610 0.950 . S
C640 C639 1.524 . S
C640 C641 1.415 . S
C641 H611 0.950 . S
C641 C636 1.363 . S
C641 C640 1.415 . S
H642 C639 0.999 . S
H643 C624 0.913 . S
H644 C662 0.951 . S
H645 C664 0.951 . S
H646 C666 0.950 . S
H647 C667 0.950 . S
H648 C669 0.950 . S
H649 C672 0.950 . S
H650 C673 0.950 . S
H651 C675 0.950 . S
H652 C676 0.950 . S
H653 C677 0.951 . S
H654 C679 0.951 . S
H655 C681 0.950 . S
H656 C682 0.950 . S
H657 C684 0.950 . S
H658 C687 0.950 . S
H659 C688 0.950 . S
H660 C690 0.950 . S
H661 C691 0.950 . S
C662 H644 0.951 . S
C662 C663 1.366 . S
C662 C664 1.388 . S
C663 C662 1.366 . S
C663 C667 1.385 . S
C664 H645 0.951 . S
C664 C662 1.388 . S
C664 C665 1.366 . S
C665 C664 1.366 . S
C665 C666 1.414 . S
C665 C668 1.499 . S
C666 H646 0.950 . S
C666 C665 1.414 . S
C666 C667 1.374 . S
C667 H647 0.950 . S
C667 C663 1.385 . S
C667 C666 1.374 . S
C668 C665 1.499 . S
C668 C669 1.373 . S
C668 C670 1.389 . S
C669 H648 0.950 . S
C669 C668 1.373 . S
C669 C685 1.377 . S
C670 C668 1.389 . S
C670 C671 1.524 . S
C670 C684 1.377 . S
C671 C670 1.524 . S
C671 C672 1.397 . S
C671 C676 1.363 . S
C672 H649 0.950 . S
C672 C671 1.397 . S
C672 C673 1.334 . S
C673 H650 0.950 . S
C673 C672 1.334 . S
C673 C674 1.287 . S
C674 C673 1.287 . S
C674 C675 1.524 . S
C674 H693 0.913 . S
C675 H651 0.950 . S
C675 C674 1.524 . S
C675 C676 1.415 . S
C676 H652 0.950 . S
C676 C671 1.363 . S
C676 C675 1.415 . S
C677 H653 0.951 . S
C677 C678 1.366 . S
C677 C679 1.388 . S
C678 C677 1.366 . S
C678 C682 1.385 . S
C679 H654 0.951 . S
C679 C677 1.388 . S
C679 C680 1.366 . S
C680 C679 1.366 . S
C680 C681 1.414 . S
C680 C683 1.499 . S
C681 H655 0.950 . S
C681 C680 1.414 . S
C681 C682 1.374 . S
C682 H656 0.950 . S
C682 C678 1.385 . S
C682 C681 1.374 . S
C683 C680 1.499 . S
C683 C684 1.373 . S
C683 C685 1.389 . S
C684 H657 0.950 . S
C684 C670 1.377 . S
C684 C683 1.373 . S
C685 C669 1.377 . S
C685 C683 1.389 . S
C685 C686 1.524 . S
C686 C685 1.524 . S
C686 C687 1.397 . S
C686 C691 1.363 . S
C687 H658 0.950 . S
C687 C686 1.397 . S
C687 C688 1.334 . S
C688 H659 0.950 . S
C688 C687 1.334 . S
C688 C689 1.287 . S
C689 C688 1.287 . S
C689 C690 1.524 . S
C689 H692 0.999 . S
C690 H660 0.950 . S
C690 C689 1.524 . S
C690 C691 1.415 . S
C691 H661 0.950 . S
C691 C686 1.363 . S
C691 C690 1.415 . S
H692 C689 0.999 . S
H693 C674 0.913 . S
H694 C712 0.951 . S
H695 C714 0.951 . S
H696 C716 0.950 . S
H697 C717 0.950 . S
H698 C719 0.950 . S
H699 C722 0.950 . S
H700 C723 0.950 . S
H701 C725 0.950 . S
H702 C726 0.950 . S
H703 C727 0.951 . S
H704 C729 0.951 . S
H705 C731 0.950 . S
H706 C732 0.950 . S
H707 C734 0.950 . S
H708 C737 0.950 . S
H709 C738 0.950 . S
H710 C740 0.950 . S
H711 C741 0.950 . S
C712 H694 0.951 . S
C712 C713 1.366 . S
C712 C714 1.388 . S
C713 C712 1.366 . S
C713 C717 1.385 . S
C714 H695 0.951 . S
C714 C712 1.388 . S
C714 C715 1.366 . S
C715 C714 1.366 . S
C715 C716 1.414 . S
C715 C718 1.499 . S
C716 H696 0.950 . S
C716 C715 1.414 . S
C716 C717 1.374 . S
C717 H697 0.950 . S
C717 C713 1.385 . S
C717 C716 1.374 . S
C718 C715 1.499 . S
C718 C719 1.373 . S
C718 C720 1.389 . S
C719 H698 0.950 . S
C719 C718 1.373 . S
C719 C735 1.377 . S
C720 C718 1.389 . S
C720 C721 1.524 . S
C720 C734 1.377 . S
C721 C720 1.524 . S
C721 C722 1.397 . S
C721 C726 1.363 . S
C722 H699 0.950 . S
C722 C721 1.397 . S
C722 C723 1.334 . S
C723 H700 0.950 . S
C723 C722 1.334 . S
C723 C724 1.287 . S
C724 C723 1.287 . S
C724 C725 1.524 . S
C724 H743 0.913 . S
C725 H701 0.950 . S
C725 C724 1.524 . S
C725 C726 1.415 . S
C726 H702 0.950 . S
C726 C721 1.363 . S
C726 C725 1.415 . S
C727 H703 0.951 . S
C727 C728 1.366 . S
C727 C729 1.388 . S
C728 C727 1.366 . S
C728 C732 1.385 . S
C729 H704 0.951 . S
C729 C727 1.388 . S
C729 C730 1.366 . S
C730 C729 1.366 . S
C730 C731 1.414 . S
C730 C733 1.499 . S
C731 H705 0.950 . S
C731 C730 1.414 . S
C731 C732 1.374 . S
C732 H706 0.950 . S
C732 C728 1.385 . S
C732 C731 1.374 . S
C733 C730 1.499 . S
C733 C734 1.373 . S
C733 C735 1.389 . S
C734 H707 0.950 . S
C734 C720 1.377 . S
C734 C733 1.373 . S
C735 C719 1.377 . S
C735 C733 1.389 . S
C735 C736 1.524 . S
C736 C735 1.524 . S
C736 C737 1.397 . S
C736 C741 1.363 . S
C737 H708 0.950 . S
C737 C736 1.397 . S
C737 C738 1.334 . S
C738 H709 0.950 . S
C738 C737 1.334 . S
C738 C739 1.287 . S
C739 C738 1.287 . S
C739 C740 1.524 . S
C739 H742 0.999 . S
C740 H710 0.950 . S
C740 C739 1.524 . S
C740 C741 1.415 . S
C741 H711 0.950 . S
C741 C736 1.363 . S
C741 C740 1.415 . S
H742 C739 0.999 . S
H743 C724 0.913 . S
H744 C762 0.951 . S
H745 C764 0.951 1_554 S
H746 C766 0.950 . S
H747 C767 0.950 . S
H748 C769 0.950 . S
H749 C772 0.950 . S
H750 C773 0.950 1_554 S
H751 C775 0.950 . S
H752 C776 0.950 . S
H753 C777 0.951 . S
H754 C779 0.951 . S
H755 C781 0.950 . S
H756 C782 0.950 . S
H757 C784 0.950 . S
H758 C787 0.950 . S
H759 C788 0.950 . S
H760 C790 0.950 . S
H761 C791 0.950 . S
C762 H744 0.951 . S
C762 C763 1.366 . S
C762 C764 1.388 1_554 S
C763 C762 1.366 . S
C763 C767 1.385 1_554 S
C764 H745 0.951 1_556 S
C764 C762 1.388 1_556 S
C764 C765 1.366 . S
C765 C764 1.366 . S
C765 C766 1.414 . S
C765 C768 1.499 . S
C766 H746 0.950 . S
C766 C765 1.414 . S
C766 C767 1.374 . S
C767 H747 0.950 . S
C767 C763 1.385 1_556 S
C767 C766 1.374 . S
C768 C765 1.499 . S
C768 C769 1.373 . S
C768 C770 1.389 . S
C769 H748 0.950 . S
C769 C768 1.373 . S
C769 C785 1.377 . S
C770 C768 1.389 . S
C770 C771 1.524 . S
C770 C784 1.377 . S
C771 C770 1.524 . S
C771 C772 1.397 . S
C771 C776 1.363 . S
C772 H749 0.950 . S
C772 C771 1.397 . S
C772 C773 1.335 . S
C773 H750 0.950 1_556 S
C773 C772 1.335 . S
C773 C774 1.286 1_556 S
C774 C773 1.286 1_554 S
C774 C775 1.524 . S
C774 H793 0.913 . S
C775 H751 0.950 . S
C775 C774 1.524 . S
C775 C776 1.415 1_554 S
C776 H752 0.950 . S
C776 C771 1.363 . S
C776 C775 1.415 1_556 S
C777 H753 0.951 . S
C777 C778 1.366 . S
C777 C779 1.388 . S
C778 C777 1.366 . S
C778 C782 1.385 . S
C779 H754 0.951 . S
C779 C777 1.388 . S
C779 C780 1.366 . S
C780 C779 1.366 . S
C780 C781 1.414 . S
C780 C783 1.499 . S
C781 H755 0.950 . S
C781 C780 1.414 . S
C781 C782 1.374 . S
C782 H756 0.950 . S
C782 C778 1.385 . S
C782 C781 1.374 . S
C783 C780 1.499 . S
C783 C784 1.373 . S
C783 C785 1.389 . S
C784 H757 0.950 . S
C784 C770 1.377 . S
C784 C783 1.373 . S
C785 C769 1.377 . S
C785 C783 1.389 . S
C785 C786 1.524 . S
C786 C785 1.524 . S
C786 C787 1.397 . S
C786 C791 1.363 . S
C787 H758 0.950 . S
C787 C786 1.397 . S
C787 C788 1.334 . S
C788 H759 0.950 . S
C788 C787 1.334 . S
C788 C789 1.287 . S
C789 C788 1.287 . S
C789 C790 1.524 . S
C789 H792 0.999 . S
C790 H760 0.950 . S
C790 C789 1.524 . S
C790 C791 1.415 . S
C791 H761 0.950 . S
C791 C786 1.363 . S
C791 C790 1.415 . S
H792 C789 0.999 . S
H793 C774 0.913 . S
H794 C812 0.951 . S
H795 C814 0.951 . S
H796 C816 0.950 . S
H797 C817 0.950 . S
H798 C819 0.950 . S
H799 C822 0.950 . S
H800 C823 0.950 . S
H801 C825 0.950 . S
H802 C826 0.950 . S
H803 C827 0.951 . S
H804 C829 0.951 1_556 S
H805 C831 0.950 . S
H806 C832 0.950 . S
H807 C834 0.950 . S
H808 C837 0.950 . S
H809 C838 0.950 . S
H810 C840 0.950 1_556 S
H811 C841 0.950 . S
C812 H794 0.951 . S
C812 C813 1.366 . S
C812 C814 1.388 . S
C813 C812 1.366 . S
C813 C817 1.385 . S
C814 H795 0.951 . S
C814 C812 1.388 . S
C814 C815 1.366 . S
C815 C814 1.366 . S
C815 C816 1.414 . S
C815 C818 1.499 . S
C816 H796 0.950 . S
C816 C815 1.414 . S
C816 C817 1.374 . S
C817 H797 0.950 . S
C817 C813 1.385 . S
C817 C816 1.374 . S
C818 C815 1.499 . S
C818 C819 1.373 . S
C818 C820 1.389 . S
C819 H798 0.950 . S
C819 C818 1.373 . S
C819 C835 1.377 . S
C820 C818 1.389 . S
C820 C821 1.524 . S
C820 C834 1.377 . S
C821 C820 1.524 . S
C821 C822 1.397 . S
C821 C826 1.363 . S
C822 H799 0.950 . S
C822 C821 1.397 . S
C822 C823 1.334 . S
C823 H800 0.950 . S
C823 C822 1.334 . S
C823 C824 1.287 . S
C824 C823 1.287 . S
C824 C825 1.524 . S
C824 H843 0.913 . S
C825 H801 0.950 . S
C825 C824 1.524 . S
C825 C826 1.415 . S
C826 H802 0.950 . S
C826 C821 1.363 . S
C826 C825 1.415 . S
C827 H803 0.951 . S
C827 C828 1.366 . S
C827 C829 1.388 1_556 S
C828 C827 1.366 . S
C828 C832 1.385 1_556 S
C829 H804 0.951 1_554 S
C829 C827 1.388 1_554 S
C829 C830 1.366 . S
C830 C829 1.366 . S
C830 C831 1.414 . S
C830 C833 1.499 . S
C831 H805 0.950 . S
C831 C830 1.414 . S
C831 C832 1.374 . S
C832 H806 0.950 . S
C832 C828 1.385 1_554 S
C832 C831 1.374 . S
C833 C830 1.499 . S
C833 C834 1.373 . S
C833 C835 1.389 . S
C834 H807 0.950 . S
C834 C820 1.377 . S
C834 C833 1.373 . S
C835 C819 1.377 . S
C835 C833 1.389 . S
C835 C836 1.524 . S
C836 C835 1.524 . S
C836 C837 1.397 . S
C836 C841 1.363 . S
C837 H808 0.950 . S
C837 C836 1.397 . S
C837 C838 1.334 . S
C838 H809 0.950 . S
C838 C837 1.334 . S
C838 C839 1.287 . S
C839 C838 1.287 . S
C839 C840 1.524 . S
C839 H842 0.999 . S
C840 H810 0.950 1_554 S
C840 C839 1.524 . S
C840 C841 1.415 . S
C841 H811 0.950 . S
C841 C836 1.363 . S
C841 C840 1.415 . S
H842 C839 0.999 . S
H843 C824 0.913 . S
H844 C862 0.951 . S
H845 C864 0.951 . S
H846 C866 0.950 1_554 S
H847 C867 0.950 . S
H848 C869 0.950 . S
H849 C872 0.950 . S
H850 C873 0.950 . S
H851 C875 0.950 . S
H852 C876 0.950 . S
H853 C877 0.951 . S
H854 C879 0.951 . S
H855 C881 0.950 . S
H856 C882 0.950 . S
H857 C884 0.950 . S
H858 C887 0.950 . S
H859 C888 0.950 . S
H860 C890 0.950 . S
H861 C891 0.950 . S
C862 H844 0.951 . S
C862 C863 1.366 1_556 S
C862 C864 1.388 . S
C863 C862 1.366 1_554 S
C863 C867 1.385 . S
C864 H845 0.951 . S
C864 C862 1.388 . S
C864 C865 1.366 . S
C865 C864 1.366 . S
C865 C866 1.414 . S
C865 C868 1.499 . S
C866 H846 0.950 1_556 S
C866 C865 1.414 . S
C866 C867 1.374 1_556 S
C867 H847 0.950 . S
C867 C863 1.385 . S
C867 C866 1.374 1_554 S
C868 C865 1.499 . S
C868 C869 1.373 . S
C868 C870 1.389 . S
C869 H848 0.950 . S
C869 C868 1.373 . S
C869 C885 1.377 . S
C870 C868 1.389 . S
C870 C871 1.524 . S
C870 C884 1.377 . S
C871 C870 1.524 . S
C871 C872 1.397 . S
C871 C876 1.363 . S
C872 H849 0.950 . S
C872 C871 1.397 . S
C872 C873 1.334 . S
C873 H850 0.950 . S
C873 C872 1.334 . S
C873 C874 1.287 . S
C874 C873 1.287 . S
C874 C875 1.524 . S
C874 H893 0.913 . S
C875 H851 0.950 . S
C875 C874 1.524 . S
C875 C876 1.415 . S
C876 H852 0.950 . S
C876 C871 1.363 . S
C876 C875 1.415 . S
C877 H853 0.951 . S
C877 C878 1.366 . S
C877 C879 1.388 . S
C878 C877 1.366 . S
C878 C882 1.385 . S
C879 H854 0.951 . S
C879 C877 1.388 . S
C879 C880 1.366 . S
C880 C879 1.366 . S
C880 C881 1.414 . S
C880 C883 1.499 . S
C881 H855 0.950 . S
C881 C880 1.414 . S
C881 C882 1.374 . S
C882 H856 0.950 . S
C882 C878 1.385 . S
C882 C881 1.374 . S
C883 C880 1.499 . S
C883 C884 1.373 . S
C883 C885 1.389 . S
C884 H857 0.950 . S
C884 C870 1.377 . S
C884 C883 1.373 . S
C885 C869 1.377 . S
C885 C883 1.389 . S
C885 C886 1.524 . S
C886 C885 1.524 . S
C886 C887 1.397 . S
C886 C891 1.363 . S
C887 H858 0.950 . S
C887 C886 1.397 . S
C887 C888 1.334 . S
C888 H859 0.950 . S
C888 C887 1.334 . S
C888 C889 1.287 . S
C889 C888 1.287 . S
C889 C890 1.524 . S
C889 H892 0.999 . S
C890 H860 0.950 . S
C890 C889 1.524 . S
C890 C891 1.415 . S
C891 H861 0.950 . S
C891 C886 1.363 . S
C891 C890 1.415 . S
H892 C889 0.999 . S
H893 C874 0.913 . S
H894 C912 0.951 . S
H895 C914 0.951 . S
H896 C916 0.950 . S
H897 C917 0.950 . S
H898 C919 0.950 . S
H899 C922 0.950 . S
H900 C923 0.950 . S
H901 C925 0.950 . S
H902 C926 0.950 . S
H903 C927 0.951 . S
H904 C929 0.951 1_556 S
H905 C931 0.950 . S
H906 C932 0.950 . S
H907 C934 0.950 . S
H908 C937 0.950 . S
H909 C938 0.950 . S
H910 C940 0.950 . S
H911 C941 0.950 . S
C912 H894 0.951 . S
C912 C913 1.366 . S
C912 C914 1.388 . S
C913 C912 1.366 . S
C913 C917 1.385 . S
C914 H895 0.951 . S
C914 C912 1.388 . S
C914 C915 1.366 . S
C915 C914 1.366 . S
C915 C916 1.414 . S
C915 C918 1.499 . S
C916 H896 0.950 . S
C916 C915 1.414 . S
C916 C917 1.374 . S
C917 H897 0.950 . S
C917 C913 1.385 . S
C917 C916 1.374 . S
C918 C915 1.499 . S
C918 C919 1.373 . S
C918 C920 1.389 . S
C919 H898 0.950 . S
C919 C918 1.373 . S
C919 C935 1.377 . S
C920 C918 1.389 . S
C920 C921 1.524 . S
C920 C934 1.377 . S
C921 C920 1.524 . S
C921 C922 1.397 . S
C921 C926 1.363 . S
C922 H899 0.950 . S
C922 C921 1.397 . S
C922 C923 1.334 . S
C923 H900 0.950 . S
C923 C922 1.334 . S
C923 C924 1.287 . S
C924 C923 1.287 . S
C924 C925 1.524 . S
C924 H943 0.913 . S
C925 H901 0.950 . S
C925 C924 1.524 . S
C925 C926 1.415 . S
C926 H902 0.950 . S
C926 C921 1.363 . S
C926 C925 1.415 . S
C927 H903 0.951 . S
C927 C928 1.366 . S
C927 C929 1.388 1_556 S
C928 C927 1.366 . S
C928 C932 1.385 1_556 S
C929 H904 0.951 1_554 S
C929 C927 1.388 1_554 S
C929 C930 1.366 . S
C930 C929 1.366 . S
C930 C931 1.414 . S
C930 C933 1.499 . S
C931 H905 0.950 . S
C931 C930 1.414 . S
C931 C932 1.374 . S
C932 H906 0.950 . S
C932 C928 1.385 1_554 S
C932 C931 1.374 . S
C933 C930 1.499 . S
C933 C934 1.373 . S
C933 C935 1.389 . S
C934 H907 0.950 . S
C934 C920 1.377 . S
C934 C933 1.373 . S
C935 C919 1.377 . S
C935 C933 1.389 . S
C935 C936 1.524 . S
C936 C935 1.524 . S
C936 C937 1.397 . S
C936 C941 1.363 . S
C937 H908 0.950 . S
C937 C936 1.397 . S
C937 C938 1.334 1_554 S
C938 H909 0.950 . S
C938 C937 1.334 1_556 S
C938 C939 1.287 . S
C939 C938 1.287 . S
C939 C940 1.524 . S
C939 H942 0.999 . S
C940 H910 0.950 . S
C940 C939 1.524 . S
C940 C941 1.415 1_556 S
C941 H911 0.950 . S
C941 C936 1.363 . S
C941 C940 1.415 1_554 S
H942 C939 0.999 . S
H943 C924 0.913 . S
H944 C962 0.951 . S
H945 C964 0.951 . S
H946 C966 0.950 . S
H947 C967 0.950 . S
H948 C969 0.950 . S
H949 C972 0.950 . S
H950 C973 0.950 . S
H951 C975 0.950 . S
H952 C976 0.950 . S
H953 C977 0.951 . S
H954 C979 0.951 . S
H955 C981 0.950 . S
H956 C982 0.950 . S
H957 C984 0.950 . S
H958 C987 0.950 . S
H959 C988 0.950 1_556 S
H960 C990 0.950 . S
H961 C991 0.950 . S
C962 H944 0.951 . S
C962 C963 1.366 . S
C962 C964 1.388 . S
C963 C962 1.366 . S
C963 C967 1.385 . S
C964 H945 0.951 . S
C964 C962 1.388 . S
C964 C965 1.366 . S
C965 C964 1.366 . S
C965 C966 1.414 . S
C965 C968 1.499 . S
C966 H946 0.950 . S
C966 C965 1.414 . S
C966 C967 1.374 . S
C967 H947 0.950 . S
C967 C963 1.385 . S
C967 C966 1.374 . S
C968 C965 1.499 . S
C968 C969 1.373 . S
C968 C970 1.389 . S
C969 H948 0.950 . S
C969 C968 1.373 . S
C969 C985 1.377 . S
C970 C968 1.389 . S
C970 C971 1.524 . S
C970 C984 1.377 . S
C971 C970 1.524 . S
C971 C972 1.397 . S
C971 C976 1.363 . S
C972 H949 0.950 . S
C972 C971 1.397 . S
C972 C973 1.334 . S
C973 H950 0.950 . S
C973 C972 1.334 . S
C973 C974 1.287 . S
C974 C973 1.287 . S
C974 C975 1.524 . S
C974 H993 0.913 . S
C975 H951 0.950 . S
C975 C974 1.524 . S
C975 C976 1.415 . S
C976 H952 0.950 . S
C976 C971 1.363 . S
C976 C975 1.415 . S
C977 H953 0.951 . S
C977 C978 1.366 . S
C977 C979 1.388 . S
C978 C977 1.366 . S
C978 C982 1.385 . S
C979 H954 0.951 . S
C979 C977 1.388 . S
C979 C980 1.366 . S
C980 C979 1.366 . S
C980 C981 1.414 . S
C980 C983 1.499 . S
C981 H955 0.950 . S
C981 C980 1.414 . S
C981 C982 1.374 . S
C982 H956 0.950 . S
C982 C978 1.385 . S
C982 C981 1.374 . S
C983 C980 1.499 . S
C983 C984 1.373 . S
C983 C985 1.389 . S
C984 H957 0.950 . S
C984 C970 1.377 . S
C984 C983 1.373 . S
C985 C969 1.377 . S
C985 C983 1.389 . S
C985 C986 1.524 . S
C986 C985 1.524 . S
C986 C987 1.397 . S
C986 C991 1.363 . S
C987 H958 0.950 . S
C987 C986 1.397 . S
C987 C988 1.334 . S
C988 H959 0.950 1_554 S
C988 C987 1.334 . S
C988 C989 1.287 . S
C989 C988 1.287 . S
C989 C990 1.524 . S
C989 H992 0.999 . S
C990 H960 0.950 . S
C990 C989 1.524 . S
C990 C991 1.415 . S
C991 H961 0.950 . S
C991 C986 1.363 . S
C991 C990 1.415 . S
H992 C989 0.999 . S
H993 C974 0.913 . S
H994 C1012 0.951 . S
H995 C1014 0.951 . S
H996 C1016 0.950 . S
H997 C1017 0.950 . S
H998 C1019 0.950 . S
H999 C1022 0.950 . S
H1000 C1023 0.950 . S
H1001 C1025 0.950 . S
H1002 C1026 0.950 . S
H1003 C1027 0.951 . S
H1004 C1029 0.951 . S
H1005 C1031 0.950 . S
H1006 C1032 0.950 . S
H1007 C1034 0.950 . S
H1008 C1037 0.950 . S
H1009 C1038 0.950 . S
H1010 C1040 0.950 . S
H1011 C1041 0.950 . S
C1012 H994 0.951 . S
C1012 C1013 1.366 . S
C1012 C1014 1.388 . S
C1013 C1012 1.366 . S
C1013 C1017 1.385 . S
C1014 H995 0.951 . S
C1014 C1012 1.388 . S
C1014 C1015 1.366 . S
C1015 C1014 1.366 . S
C1015 C1016 1.414 . S
C1015 C1018 1.499 . S
C1016 H996 0.950 . S
C1016 C1015 1.414 . S
C1016 C1017 1.374 . S
C1017 H997 0.950 . S
C1017 C1013 1.385 . S
C1017 C1016 1.374 . S
C1018 C1015 1.499 . S
C1018 C1019 1.373 . S
C1018 C1020 1.389 . S
C1019 H998 0.950 . S
C1019 C1018 1.373 . S
C1019 C1035 1.377 . S
C1020 C1018 1.389 . S
C1020 C1021 1.524 . S
C1020 C1034 1.377 . S
C1021 C1020 1.524 . S
C1021 C1022 1.397 . S
C1021 C1026 1.363 1_556 S
C1022 H999 0.950 . S
C1022 C1021 1.397 . S
C1022 C1023 1.334 1_556 S
C1023 H1000 0.950 . S
C1023 C1022 1.334 1_554 S
C1023 C1024 1.287 . S
C1024 C1023 1.287 . S
C1024 C1025 1.524 . S
C1024 H1043 0.913 . S
C1025 H1001 0.950 . S
C1025 C1024 1.524 . S
C1025 C1026 1.415 . S
C1026 H1002 0.950 . S
C1026 C1021 1.363 1_554 S
C1026 C1025 1.415 . S
C1027 H1003 0.951 . S
C1027 C1028 1.366 . S
C1027 C1029 1.388 . S
C1028 C1027 1.366 . S
C1028 C1032 1.385 . S
C1029 H1004 0.951 . S
C1029 C1027 1.388 . S
C1029 C1030 1.366 . S
C1030 C1029 1.366 . S
C1030 C1031 1.414 . S
C1030 C1033 1.499 . S
C1031 H1005 0.950 . S
C1031 C1030 1.414 . S
C1031 C1032 1.374 . S
C1032 H1006 0.950 . S
C1032 C1028 1.385 . S
C1032 C1031 1.374 . S
C1033 C1030 1.499 . S
C1033 C1034 1.373 . S
C1033 C1035 1.389 . S
C1034 H1007 0.950 . S
C1034 C1020 1.377 . S
C1034 C1033 1.373 . S
C1035 C1019 1.377 . S
C1035 C1033 1.389 . S
C1035 C1036 1.524 . S
C1036 C1035 1.524 . S
C1036 C1037 1.397 . S
C1036 C1041 1.363 . S
C1037 H1008 0.950 . S
C1037 C1036 1.397 . S
C1037 C1038 1.334 . S
C1038 H1009 0.950 . S
C1038 C1037 1.334 . S
C1038 C1039 1.287 . S
C1039 C1038 1.287 . S
C1039 C1040 1.524 . S
C1039 H1042 0.999 . S
C1040 H1010 0.950 . S
C1040 C1039 1.524 . S
C1040 C1041 1.415 . S
C1041 H1011 0.950 . S
C1041 C1036 1.363 . S
C1041 C1040 1.415 . S
H1042 C1039 0.999 . S
H1043 C1024 0.913 . S
H1044 C1062 0.951 . S
H1045 C1064 0.951 . S
H1046 C1066 0.950 . S
H1047 C1067 0.950 . S
H1048 C1069 0.950 . S
H1049 C1072 0.950 . S
H1050 C1073 0.950 . S
H1051 C1075 0.950 . S
H1052 C1076 0.950 . S
H1053 C1077 0.951 . S
H1054 C1079 0.951 . S
H1055 C1081 0.950 . S
H1056 C1082 0.950 . S
H1057 C1084 0.950 . S
H1058 C1087 0.950 . S
H1059 C1088 0.950 . S
H1060 C1090 0.950 . S
H1061 C1091 0.950 . S
C1062 H1044 0.951 . S
C1062 C1063 1.366 . S
C1062 C1064 1.388 . S
C1063 C1062 1.366 . S
C1063 C1067 1.385 . S
C1064 H1045 0.951 . S
C1064 C1062 1.388 . S
C1064 C1065 1.366 . S
C1065 C1064 1.366 . S
C1065 C1066 1.414 . S
C1065 C1068 1.499 . S
C1066 H1046 0.950 . S
C1066 C1065 1.414 . S
C1066 C1067 1.374 . S
C1067 H1047 0.950 . S
C1067 C1063 1.385 . S
C1067 C1066 1.374 . S
C1068 C1065 1.499 . S
C1068 C1069 1.373 . S
C1068 C1070 1.389 . S
C1069 H1048 0.950 . S
C1069 C1068 1.373 . S
C1069 C1085 1.377 . S
C1070 C1068 1.389 . S
C1070 C1071 1.524 . S
C1070 C1084 1.377 . S
C1071 C1070 1.524 . S
C1071 C1072 1.397 . S
C1071 C1076 1.363 . S
C1072 H1049 0.950 . S
C1072 C1071 1.397 . S
C1072 C1073 1.334 . S
C1073 H1050 0.950 . S
C1073 C1072 1.334 . S
C1073 C1074 1.287 . S
C1074 C1073 1.287 . S
C1074 C1075 1.524 . S
C1074 H1093 0.913 . S
C1075 H1051 0.950 . S
C1075 C1074 1.524 . S
C1075 C1076 1.415 . S
C1076 H1052 0.950 . S
C1076 C1071 1.363 . S
C1076 C1075 1.415 . S
C1077 H1053 0.951 . S
C1077 C1078 1.366 . S
C1077 C1079 1.388 . S
C1078 C1077 1.366 . S
C1078 C1082 1.385 . S
C1079 H1054 0.951 . S
C1079 C1077 1.388 . S
C1079 C1080 1.366 . S
C1080 C1079 1.366 . S
C1080 C1081 1.414 . S
C1080 C1083 1.499 . S
C1081 H1055 0.950 . S
C1081 C1080 1.414 . S
C1081 C1082 1.374 . S
C1082 H1056 0.950 . S
C1082 C1078 1.385 . S
C1082 C1081 1.374 . S
C1083 C1080 1.499 . S
C1083 C1084 1.373 . S
C1083 C1085 1.389 . S
C1084 H1057 0.950 . S
C1084 C1070 1.377 . S
C1084 C1083 1.373 . S
C1085 C1069 1.377 . S
C1085 C1083 1.389 . S
C1085 C1086 1.524 . S
C1086 C1085 1.524 . S
C1086 C1087 1.397 . S
C1086 C1091 1.363 . S
C1087 H1058 0.950 . S
C1087 C1086 1.397 . S
C1087 C1088 1.334 1_554 S
C1088 H1059 0.950 . S
C1088 C1087 1.334 1_556 S
C1088 C1089 1.287 . S
C1089 C1088 1.287 . S
C1089 C1090 1.524 . S
C1089 H1092 0.999 . S
C1090 H1060 0.950 . S
C1090 C1089 1.524 . S
C1090 C1091 1.415 1_556 S
C1091 H1061 0.950 . S
C1091 C1086 1.363 . S
C1091 C1090 1.415 1_554 S
H1092 C1089 0.999 . S
H1093 C1074 0.913 . S
H1094 C1112 0.951 . S
H1095 C1114 0.951 . S
H1096 C1116 0.950 . S
H1097 C1117 0.950 . S
H1098 C1119 0.950 . S
H1099 C1122 0.950 . S
H1100 C1123 0.950 . S
H1101 C1125 0.950 . S
H1102 C1126 0.950 . S
H1103 C1127 0.951 . S
H1104 C1129 0.951 . S
H1105 C1131 0.950 . S
H1106 C1132 0.950 . S
H1107 C1134 0.950 . S
H1108 C1137 0.950 . S
H1109 C1138 0.950 . S
H1110 C1140 0.950 . S
H1111 C1141 0.950 . S
C1112 H1094 0.951 . S
C1112 C1113 1.366 . S
C1112 C1114 1.388 . S
C1113 C1112 1.366 . S
C1113 C1117 1.385 . S
C1114 H1095 0.951 . S
C1114 C1112 1.388 . S
C1114 C1115 1.366 . S
C1115 C1114 1.366 . S
C1115 C1116 1.414 . S
C1115 C1118 1.499 . S
C1116 H1096 0.950 . S
C1116 C1115 1.414 . S
C1116 C1117 1.374 . S
C1117 H1097 0.950 . S
C1117 C1113 1.385 . S
C1117 C1116 1.374 . S
C1118 C1115 1.499 . S
C1118 C1119 1.373 . S
C1118 C1120 1.389 . S
C1119 H1098 0.950 . S
C1119 C1118 1.373 . S
C1119 C1135 1.377 . S
C1120 C1118 1.389 . S
C1120 C1121 1.524 . S
C1120 C1134 1.377 . S
C1121 C1120 1.524 . S
C1121 C1122 1.397 . S
C1121 C1126 1.363 . S
C1122 H1099 0.950 . S
C1122 C1121 1.397 . S
C1122 C1123 1.334 . S
C1123 H1100 0.950 . S
C1123 C1122 1.334 . S
C1123 C1124 1.287 . S
C1124 C1123 1.287 . S
C1124 C1125 1.524 . S
C1124 H1143 0.913 . S
C1125 H1101 0.950 . S
C1125 C1124 1.524 . S
C1125 C1126 1.415 . S
C1126 H1102 0.950 . S
C1126 C1121 1.363 . S
C1126 C1125 1.415 . S
C1127 H1103 0.951 . S
C1127 C1128 1.366 . S
C1127 C1129 1.388 . S
C1128 C1127 1.366 . S
C1128 C1132 1.385 . S
C1129 H1104 0.951 . S
C1129 C1127 1.388 . S
C1129 C1130 1.366 . S
C1130 C1129 1.366 . S
C1130 C1131 1.414 . S
C1130 C1133 1.499 . S
C1131 H1105 0.950 . S
C1131 C1130 1.414 . S
C1131 C1132 1.374 . S
C1132 H1106 0.950 . S
C1132 C1128 1.385 . S
C1132 C1131 1.374 . S
C1133 C1130 1.499 . S
C1133 C1134 1.373 . S
C1133 C1135 1.389 . S
C1134 H1107 0.950 . S
C1134 C1120 1.377 . S
C1134 C1133 1.373 . S
C1135 C1119 1.377 . S
C1135 C1133 1.389 . S
C1135 C1136 1.524 . S
C1136 C1135 1.524 . S
C1136 C1137 1.397 . S
C1136 C1141 1.363 . S
C1137 H1108 0.950 . S
C1137 C1136 1.397 . S
C1137 C1138 1.334 . S
C1138 H1109 0.950 . S
C1138 C1137 1.334 . S
C1138 C1139 1.287 . S
C1139 C1138 1.287 . S
C1139 C1140 1.524 . S
C1139 H1142 0.999 . S
C1140 H1110 0.950 . S
C1140 C1139 1.524 . S
C1140 C1141 1.415 . S
C1141 H1111 0.950 . S
C1141 C1136 1.363 . S
C1141 C1140 1.415 . S
H1142 C1139 0.999 . S
H1143 C1124 0.913 . S
H1144 C1162 0.951 . S
H1145 C1164 0.951 . S
H1146 C1166 0.950 . S
H1147 C1167 0.950 . S
H1148 C1169 0.950 . S
H1149 C1172 0.950 . S
H1150 C1173 0.950 . S
H1151 C1175 0.950 . S
H1152 C1176 0.950 . S
H1153 C1177 0.951 . S
H1154 C1179 0.951 . S
H1155 C1181 0.950 . S
H1156 C1182 0.950 . S
H1157 C1184 0.950 . S
H1158 C1187 0.950 . S
H1159 C1188 0.950 . S
H1160 C1190 0.950 . S
H1161 C1191 0.950 . S
C1162 H1144 0.951 . S
C1162 C1163 1.366 . S
C1162 C1164 1.388 . S
C1163 C1162 1.366 . S
C1163 C1167 1.385 . S
C1164 H1145 0.951 . S
C1164 C1162 1.388 . S
C1164 C1165 1.366 . S
C1165 C1164 1.366 . S
C1165 C1166 1.414 . S
C1165 C1168 1.499 . S
C1166 H1146 0.950 . S
C1166 C1165 1.414 . S
C1166 C1167 1.374 . S
C1167 H1147 0.950 . S
C1167 C1163 1.385 . S
C1167 C1166 1.374 . S
C1168 C1165 1.499 . S
C1168 C1169 1.373 . S
C1168 C1170 1.389 . S
C1169 H1148 0.950 . S
C1169 C1168 1.373 . S
C1169 C1185 1.377 . S
C1170 C1168 1.389 . S
C1170 C1171 1.524 . S
C1170 C1184 1.377 . S
C1171 C1170 1.524 . S
C1171 C1172 1.397 . S
C1171 C1176 1.363 . S
C1172 H1149 0.950 . S
C1172 C1171 1.397 . S
C1172 C1173 1.334 . S
C1173 H1150 0.950 . S
C1173 C1172 1.334 . S
C1173 C1174 1.287 . S
C1174 C1173 1.287 . S
C1174 C1175 1.524 . S
C1174 H1193 0.913 . S
C1175 H1151 0.950 . S
C1175 C1174 1.524 . S
C1175 C1176 1.415 . S
C1176 H1152 0.950 . S
C1176 C1171 1.363 . S
C1176 C1175 1.415 . S
C1177 H1153 0.951 . S
C1177 C1178 1.366 . S
C1177 C1179 1.388 . S
C1178 C1177 1.366 . S
C1178 C1182 1.385 . S
C1179 H1154 0.951 . S
C1179 C1177 1.388 . S
C1179 C1180 1.366 . S
C1180 C1179 1.366 . S
C1180 C1181 1.414 . S
C1180 C1183 1.499 . S
C1181 H1155 0.950 . S
C1181 C1180 1.414 . S
C1181 C1182 1.374 . S
C1182 H1156 0.950 . S
C1182 C1178 1.385 . S
C1182 C1181 1.374 . S
C1183 C1180 1.499 . S
C1183 C1184 1.373 . S
C1183 C1185 1.389 . S
C1184 H1157 0.950 . S
C1184 C1170 1.377 . S
C1184 C1183 1.373 . S
C1185 C1169 1.377 . S
C1185 C1183 1.389 . S
C1185 C1186 1.524 . S
C1186 C1185 1.524 . S
C1186 C1187 1.397 . S
C1186 C1191 1.363 . S
C1187 H1158 0.950 . S
C1187 C1186 1.397 . S
C1187 C1188 1.334 . S
C1188 H1159 0.950 . S
C1188 C1187 1.334 . S
C1188 C1189 1.287 . S
C1189 C1188 1.287 . S
C1189 C1190 1.524 . S
C1189 H1192 0.999 . S
C1190 H1160 0.950 . S
C1190 C1189 1.524 . S
C1190 C1191 1.415 . S
C1191 H1161 0.950 . S
C1191 C1186 1.363 . S
C1191 C1190 1.415 . S
H1192 C1189 0.999 . S
H1193 C1174 0.913 . S
H1194 C1212 0.951 . S
H1195 C1214 0.951 . S
H1196 C1216 0.950 . S
H1197 C1217 0.950 . S
H1198 C1219 0.950 . S
H1199 C1222 0.950 . S
H1200 C1223 0.950 . S
H1201 C1225 0.950 . S
H1202 C1226 0.950 . S
H1203 C1227 0.951 . S
H1204 C1229 0.951 . S
H1205 C1231 0.950 . S
H1206 C1232 0.950 . S
H1207 C1234 0.950 . S
H1208 C1237 0.950 . S
H1209 C1238 0.950 . S
H1210 C1240 0.950 . S
H1211 C1241 0.950 . S
C1212 H1194 0.951 . S
C1212 C1213 1.366 . S
C1212 C1214 1.388 . S
C1213 C1212 1.366 . S
C1213 C1217 1.385 . S
C1214 H1195 0.951 . S
C1214 C1212 1.388 . S
C1214 C1215 1.366 . S
C1215 C1214 1.366 . S
C1215 C1216 1.414 . S
C1215 C1218 1.499 . S
C1216 H1196 0.950 . S
C1216 C1215 1.414 . S
C1216 C1217 1.374 . S
C1217 H1197 0.950 . S
C1217 C1213 1.385 . S
C1217 C1216 1.374 . S
C1218 C1215 1.499 . S
C1218 C1219 1.373 . S
C1218 C1220 1.389 . S
C1219 H1198 0.950 . S
C1219 C1218 1.373 . S
C1219 C1235 1.377 . S
C1220 C1218 1.389 . S
C1220 C1221 1.524 . S
C1220 C1234 1.377 . S
C1221 C1220 1.524 . S
C1221 C1222 1.397 . S
C1221 C1226 1.363 . S
C1222 H1199 0.950 . S
C1222 C1221 1.397 . S
C1222 C1223 1.334 . S
C1223 H1200 0.950 . S
C1223 C1222 1.334 . S
C1223 C1224 1.287 . S
C1224 C1223 1.287 . S
C1224 C1225 1.524 . S
C1224 H1243 0.913 . S
C1225 H1201 0.950 . S
C1225 C1224 1.524 . S
C1225 C1226 1.415 . S
C1226 H1202 0.950 . S
C1226 C1221 1.363 . S
C1226 C1225 1.415 . S
C1227 H1203 0.951 . S
C1227 C1228 1.366 . S
C1227 C1229 1.388 . S
C1228 C1227 1.366 . S
C1228 C1232 1.385 . S
C1229 H1204 0.951 . S
C1229 C1227 1.388 . S
C1229 C1230 1.366 . S
C1230 C1229 1.366 . S
C1230 C1231 1.414 . S
C1230 C1233 1.499 . S
C1231 H1205 0.950 . S
C1231 C1230 1.414 . S
C1231 C1232 1.374 . S
C1232 H1206 0.950 . S
C1232 C1228 1.385 . S
C1232 C1231 1.374 . S
C1233 C1230 1.499 . S
C1233 C1234 1.373 . S
C1233 C1235 1.389 . S
C1234 H1207 0.950 . S
C1234 C1220 1.377 . S
C1234 C1233 1.373 . S
C1235 C1219 1.377 . S
C1235 C1233 1.389 . S
C1235 C1236 1.524 . S
C1236 C1235 1.524 . S
C1236 C1237 1.397 . S
C1236 C1241 1.363 . S
C1237 H1208 0.950 . S
C1237 C1236 1.397 . S
C1237 C1238 1.334 . S
C1238 H1209 0.950 . S
C1238 C1237 1.334 . S
C1238 C1239 1.287 . S
C1239 C1238 1.287 . S
C1239 C1240 1.524 . S
C1239 H1242 0.999 . S
C1240 H1210 0.950 . S
C1240 C1239 1.524 . S
C1240 C1241 1.415 . S
C1241 H1211 0.950 . S
C1241 C1236 1.363 . S
C1241 C1240 1.415 . S
H1242 C1239 0.999 . S
H1243 C1224 0.913 . S
H1244 C1262 0.951 . S
H1245 C1264 0.951 . S
H1246 C1266 0.950 . S
H1247 C1267 0.950 . S
H1248 C1269 0.950 . S
H1249 C1272 0.950 . S
H1250 C1273 0.950 . S
H1251 C1275 0.950 . S
H1252 C1276 0.950 . S
H1253 C1277 0.951 . S
H1254 C1279 0.951 . S
H1255 C1281 0.950 . S
H1256 C1282 0.950 . S
H1257 C1284 0.950 . S
H1258 C1287 0.950 . S
H1259 C1288 0.950 . S
H1260 C1290 0.950 . S
H1261 C1291 0.950 . S
C1262 H1244 0.951 . S
C1262 C1263 1.366 . S
C1262 C1264 1.388 . S
C1263 C1262 1.366 . S
C1263 C1267 1.385 . S
C1264 H1245 0.951 . S
C1264 C1262 1.388 . S
C1264 C1265 1.366 . S
C1265 C1264 1.366 . S
C1265 C1266 1.414 . S
C1265 C1268 1.499 . S
C1266 H1246 0.950 . S
C1266 C1265 1.414 . S
C1266 C1267 1.374 . S
C1267 H1247 0.950 . S
C1267 C1263 1.385 . S
C1267 C1266 1.374 . S
C1268 C1265 1.499 . S
C1268 C1269 1.373 . S
C1268 C1270 1.389 . S
C1269 H1248 0.950 . S
C1269 C1268 1.373 . S
C1269 C1285 1.377 . S
C1270 C1268 1.389 . S
C1270 C1271 1.524 . S
C1270 C1284 1.377 . S
C1271 C1270 1.524 . S
C1271 C1272 1.397 . S
C1271 C1276 1.363 . S
C1272 H1249 0.950 . S
C1272 C1271 1.397 . S
C1272 C1273 1.334 . S
C1273 H1250 0.950 . S
C1273 C1272 1.334 . S
C1273 C1274 1.287 . S
C1274 C1273 1.287 . S
C1274 C1275 1.524 . S
C1274 H1293 0.913 . S
C1275 H1251 0.950 . S
C1275 C1274 1.524 . S
C1275 C1276 1.415 . S
C1276 H1252 0.950 . S
C1276 C1271 1.363 . S
C1276 C1275 1.415 . S
C1277 H1253 0.951 . S
C1277 C1278 1.366 . S
C1277 C1279 1.388 . S
C1278 C1277 1.366 . S
C1278 C1282 1.385 . S
C1279 H1254 0.951 . S
C1279 C1277 1.388 . S
C1279 C1280 1.366 . S
C1280 C1279 1.366 . S
C1280 C1281 1.414 . S
C1280 C1283 1.499 . S
C1281 H1255 0.950 . S
C1281 C1280 1.414 . S
C1281 C1282 1.374 . S
C1282 H1256 0.950 . S
C1282 C1278 1.385 . S
C1282 C1281 1.374 . S
C1283 C1280 1.499 . S
C1283 C1284 1.373 . S
C1283 C1285 1.389 . S
C1284 H1257 0.950 . S
C1284 C1270 1.377 . S
C1284 C1283 1.373 . S
C1285 C1269 1.377 . S
C1285 C1283 1.389 . S
C1285 C1286 1.524 . S
C1286 C1285 1.524 . S
C1286 C1287 1.397 . S
C1286 C1291 1.363 . S
C1287 H1258 0.950 . S
C1287 C1286 1.397 . S
C1287 C1288 1.334 . S
C1288 H1259 0.950 . S
C1288 C1287 1.334 . S
C1288 C1289 1.287 . S
C1289 C1288 1.287 . S
C1289 C1290 1.524 . S
C1289 H1292 0.999 . S
C1290 H1260 0.950 . S
C1290 C1289 1.524 . S
C1290 C1291 1.415 . S
C1291 H1261 0.950 . S
C1291 C1286 1.363 . S
C1291 C1290 1.415 . S
H1292 C1289 0.999 . S
H1293 C1274 0.913 . S
H1294 C1312 0.951 . S
H1295 C1314 0.951 . S
H1296 C1316 0.950 . S
H1297 C1317 0.950 . S
H1298 C1319 0.950 . S
H1299 C1322 0.950 . S
H1300 C1323 0.950 . S
H1301 C1325 0.950 . S
H1302 C1326 0.950 . S
H1303 C1327 0.951 . S
H1304 C1329 0.951 . S
H1305 C1331 0.950 . S
H1306 C1332 0.950 . S
H1307 C1334 0.950 . S
H1308 C1337 0.950 . S
H1309 C1338 0.950 . S
H1310 C1340 0.950 . S
H1311 C1341 0.950 . S
C1312 H1294 0.951 . S
C1312 C1313 1.366 . S
C1312 C1314 1.388 . S
C1313 C1312 1.366 . S
C1313 C1317 1.385 . S
C1314 H1295 0.951 . S
C1314 C1312 1.388 . S
C1314 C1315 1.366 . S
C1315 C1314 1.366 . S
C1315 C1316 1.414 . S
C1315 C1318 1.499 . S
C1316 H1296 0.950 . S
C1316 C1315 1.414 . S
C1316 C1317 1.374 . S
C1317 H1297 0.950 . S
C1317 C1313 1.385 . S
C1317 C1316 1.374 . S
C1318 C1315 1.499 . S
C1318 C1319 1.373 . S
C1318 C1320 1.389 . S
C1319 H1298 0.950 . S
C1319 C1318 1.373 . S
C1319 C1335 1.377 . S
C1320 C1318 1.389 . S
C1320 C1321 1.524 . S
C1320 C1334 1.377 . S
C1321 C1320 1.524 . S
C1321 C1322 1.397 . S
C1321 C1326 1.363 . S
C1322 H1299 0.950 . S
C1322 C1321 1.397 . S
C1322 C1323 1.334 . S
C1323 H1300 0.950 . S
C1323 C1322 1.334 . S
C1323 C1324 1.287 . S
C1324 C1323 1.287 . S
C1324 C1325 1.524 . S
C1324 H1343 0.913 . S
C1325 H1301 0.950 . S
C1325 C1324 1.524 . S
C1325 C1326 1.415 . S
C1326 H1302 0.950 . S
C1326 C1321 1.363 . S
C1326 C1325 1.415 . S
C1327 H1303 0.951 . S
C1327 C1328 1.366 . S
C1327 C1329 1.388 . S
C1328 C1327 1.366 . S
C1328 C1332 1.385 . S
C1329 H1304 0.951 . S
C1329 C1327 1.388 . S
C1329 C1330 1.366 . S
C1330 C1329 1.366 . S
C1330 C1331 1.414 . S
C1330 C1333 1.499 . S
C1331 H1305 0.950 . S
C1331 C1330 1.414 . S
C1331 C1332 1.374 . S
C1332 H1306 0.950 . S
C1332 C1328 1.385 . S
C1332 C1331 1.374 . S
C1333 C1330 1.499 . S
C1333 C1334 1.373 . S
C1333 C1335 1.389 . S
C1334 H1307 0.950 . S
C1334 C1320 1.377 . S
C1334 C1333 1.373 . S
C1335 C1319 1.377 . S
C1335 C1333 1.389 . S
C1335 C1336 1.524 . S
C1336 C1335 1.524 . S
C1336 C1337 1.397 . S
C1336 C1341 1.363 . S
C1337 H1308 0.950 . S
C1337 C1336 1.397 . S
C1337 C1338 1.334 . S
C1338 H1309 0.950 . S
C1338 C1337 1.334 . S
C1338 C1339 1.287 . S
C1339 C1338 1.287 . S
C1339 C1340 1.524 . S
C1339 H1342 0.999 . S
C1340 H1310 0.950 . S
C1340 C1339 1.524 . S
C1340 C1341 1.415 . S
C1341 H1311 0.950 . S
C1341 C1336 1.363 . S
C1341 C1340 1.415 . S
H1342 C1339 0.999 . S
H1343 C1324 0.913 . S
H1344 C1362 0.951 . S
H1345 C1364 0.956 . S
H1346 C1366 0.950 . S
H1347 C1367 0.950 . S
H1348 C1369 0.950 . S
H1349 C1372 0.950 . S
H1350 C1373 0.950 . S
H1351 C1375 0.950 . S
H1352 C1376 0.950 . S
H1353 C1377 0.951 . S
H1354 C1379 0.951 . S
H1355 C1381 0.950 . S
H1356 C1382 0.950 . S
H1357 C1384 0.950 . S
H1358 C1387 0.950 . S
H1359 C1388 0.950 . S
H1360 C1390 0.950 . S
H1361 C1391 0.950 . S
C1362 H1344 0.951 . S
C1362 C1363 1.366 . S
C1362 C1364 1.398 . S
C1363 C1362 1.366 . S
C1363 C1367 1.385 1_554 S
C1364 H1345 0.956 . S
C1364 C1362 1.398 . S
C1364 C1365 1.350 1_554 S
C1365 C1364 1.350 1_556 S
C1365 C1366 1.414 . S
C1365 C1368 1.499 . S
C1366 H1346 0.950 . S
C1366 C1365 1.414 . S
C1366 C1367 1.374 . S
C1367 H1347 0.950 . S
C1367 C1363 1.385 1_556 S
C1367 C1366 1.374 . S
C1368 C1365 1.499 . S
C1368 C1369 1.373 . S
C1368 C1370 1.389 . S
C1369 H1348 0.950 . S
C1369 C1368 1.373 . S
C1369 C1385 1.377 . S
C1370 C1368 1.389 . S
C1370 C1371 1.524 . S
C1370 C1384 1.377 . S
C1371 C1370 1.524 . S
C1371 C1372 1.397 . S
C1371 C1376 1.363 . S
C1372 H1349 0.950 . S
C1372 C1371 1.397 . S
C1372 C1373 1.334 . S
C1373 H1350 0.950 . S
C1373 C1372 1.334 . S
C1373 C1374 1.287 1_556 S
C1374 C1373 1.287 1_554 S
C1374 C1375 1.524 . S
C1374 H1393 0.913 . S
C1375 H1351 0.950 . S
C1375 C1374 1.524 . S
C1375 C1376 1.415 1_554 S
C1376 H1352 0.950 . S
C1376 C1371 1.363 . S
C1376 C1375 1.415 1_556 S
C1377 H1353 0.951 . S
C1377 C1378 1.366 . S
C1377 C1379 1.388 . S
C1378 C1377 1.366 . S
C1378 C1382 1.385 . S
C1379 H1354 0.951 . S
C1379 C1377 1.388 . S
C1379 C1380 1.366 . S
C1380 C1379 1.366 . S
C1380 C1381 1.414 . S
C1380 C1383 1.499 . S
C1381 H1355 0.950 . S
C1381 C1380 1.414 . S
C1381 C1382 1.374 . S
C1382 H1356 0.950 . S
C1382 C1378 1.385 . S
C1382 C1381 1.374 . S
C1383 C1380 1.499 . S
C1383 C1384 1.373 . S
C1383 C1385 1.389 . S
C1384 H1357 0.950 . S
C1384 C1370 1.377 . S
C1384 C1383 1.373 . S
C1385 C1369 1.377 . S
C1385 C1383 1.389 . S
C1385 C1386 1.524 . S
C1386 C1385 1.524 . S
C1386 C1387 1.397 . S
C1386 C1391 1.363 . S
C1387 H1358 0.950 . S
C1387 C1386 1.397 . S
C1387 C1388 1.334 . S
C1388 H1359 0.950 . S
C1388 C1387 1.334 . S
C1388 C1389 1.287 . S
C1389 C1388 1.287 . S
C1389 C1390 1.524 . S
C1389 H1392 0.999 . S
C1390 H1360 0.950 . S
C1390 C1389 1.524 . S
C1390 C1391 1.415 . S
C1391 H1361 0.950 . S
C1391 C1386 1.363 . S
C1391 C1390 1.415 . S
H1392 C1389 0.999 . S
H1393 C1374 0.913 . S
H1394 C1412 0.951 . S
H1395 C1414 0.951 . S
H1396 C1416 0.950 . S
H1397 C1417 0.950 . S
H1398 C1419 0.950 . S
H1399 C1422 0.950 . S
H1400 C1423 0.950 . S
H1401 C1425 0.950 . S
H1402 C1426 0.950 . S
H1403 C1427 0.951 . S
H1404 C1429 0.951 1_556 S
H1405 C1431 0.950 . S
H1406 C1432 0.950 . S
H1407 C1434 0.950 . S
H1408 C1437 0.950 . S
H1409 C1438 0.950 . S
H1410 C1440 0.950 . S
H1411 C1441 0.950 1_554 S
C1412 H1394 0.951 . S
C1412 C1413 1.366 . S
C1412 C1414 1.388 . S
C1413 C1412 1.366 . S
C1413 C1417 1.385 . S
C1414 H1395 0.951 . S
C1414 C1412 1.388 . S
C1414 C1415 1.366 . S
C1415 C1414 1.366 . S
C1415 C1416 1.414 . S
C1415 C1418 1.499 . S
C1416 H1396 0.950 . S
C1416 C1415 1.414 . S
C1416 C1417 1.374 . S
C1417 H1397 0.950 . S
C1417 C1413 1.385 . S
C1417 C1416 1.374 . S
C1418 C1415 1.499 . S
C1418 C1419 1.373 . S
C1418 C1420 1.389 . S
C1419 H1398 0.950 . S
C1419 C1418 1.373 . S
C1419 C1435 1.377 . S
C1420 C1418 1.389 . S
C1420 C1421 1.524 . S
C1420 C1434 1.377 . S
C1421 C1420 1.524 . S
C1421 C1422 1.397 . S
C1421 C1426 1.363 . S
C1422 H1399 0.950 . S
C1422 C1421 1.397 . S
C1422 C1423 1.334 . S
C1423 H1400 0.950 . S
C1423 C1422 1.334 . S
C1423 C1424 1.287 . S
C1424 C1423 1.287 . S
C1424 C1425 1.524 . S
C1424 H1443 0.913 . S
C1425 H1401 0.950 . S
C1425 C1424 1.524 . S
C1425 C1426 1.415 . S
C1426 H1402 0.950 . S
C1426 C1421 1.363 . S
C1426 C1425 1.415 . S
C1427 H1403 0.951 . S
C1427 C1428 1.366 . S
C1427 C1429 1.388 1_556 S
C1428 C1427 1.366 . S
C1428 C1432 1.385 1_556 S
C1429 H1404 0.951 1_554 S
C1429 C1427 1.388 1_554 S
C1429 C1430 1.366 . S
C1430 C1429 1.366 . S
C1430 C1431 1.414 . S
C1430 C1433 1.499 . S
C1431 H1405 0.950 . S
C1431 C1430 1.414 . S
C1431 C1432 1.374 . S
C1432 H1406 0.950 . S
C1432 C1428 1.385 1_554 S
C1432 C1431 1.374 . S
C1433 C1430 1.499 . S
C1433 C1434 1.373 . S
C1433 C1435 1.389 . S
C1434 H1407 0.950 . S
C1434 C1420 1.377 . S
C1434 C1433 1.373 . S
C1435 C1419 1.377 . S
C1435 C1433 1.389 . S
C1435 C1436 1.524 . S
C1436 C1435 1.524 . S
C1436 C1437 1.397 . S
C1436 C1441 1.363 1_554 S
C1437 H1408 0.950 . S
C1437 C1436 1.397 . S
C1437 C1438 1.334 1_554 S
C1438 H1409 0.950 . S
C1438 C1437 1.334 1_556 S
C1438 C1439 1.287 . S
C1439 C1438 1.287 . S
C1439 C1440 1.524 . S
C1439 H1442 0.999 . S
C1440 H1410 0.950 . S
C1440 C1439 1.524 . S
C1440 C1441 1.415 . S
C1441 H1411 0.950 1_556 S
C1441 C1436 1.363 1_556 S
C1441 C1440 1.415 . S
H1442 C1439 0.999 . S
H1443 C1424 0.913 . S
H1444 C1462 0.951 . S
H1445 C1464 0.951 . S
H1446 C1466 0.950 1_554 S
H1447 C1467 0.950 . S
H1448 C1469 0.950 . S
H1449 C1472 0.950 . S
H1450 C1473 0.950 . S
H1451 C1475 0.950 . S
H1452 C1476 0.950 . S
H1453 C1477 0.951 . S
H1454 C1479 0.951 . S
H1455 C1481 0.950 . S
H1456 C1482 0.950 . S
H1457 C1484 0.950 . S
H1458 C1487 0.950 . S
H1459 C1488 0.950 . S
H1460 C1490 0.950 1_554 S
H1461 C1491 0.950 . S
C1462 H1444 0.951 . S
C1462 C1463 1.366 1_556 S
C1462 C1464 1.388 . S
C1463 C1462 1.366 1_554 S
C1463 C1467 1.385 . S
C1464 H1445 0.951 . S
C1464 C1462 1.388 . S
C1464 C1465 1.366 . S
C1465 C1464 1.366 . S
C1465 C1466 1.414 . S
C1465 C1468 1.499 . S
C1466 H1446 0.950 1_556 S
C1466 C1465 1.414 . S
C1466 C1467 1.374 1_556 S
C1467 H1447 0.950 . S
C1467 C1463 1.385 . S
C1467 C1466 1.374 1_554 S
C1468 C1465 1.499 . S
C1468 C1469 1.373 . S
C1468 C1470 1.389 . S
C1469 H1448 0.950 . S
C1469 C1468 1.373 . S
C1469 C1485 1.377 . S
C1470 C1468 1.389 . S
C1470 C1471 1.524 . S
C1470 C1484 1.377 . S
C1471 C1470 1.524 . S
C1471 C1472 1.397 . S
C1471 C1476 1.363 . S
C1472 H1449 0.950 . S
C1472 C1471 1.397 . S
C1472 C1473 1.334 . S
C1473 H1450 0.950 . S
C1473 C1472 1.334 . S
C1473 C1474 1.287 . S
C1474 C1473 1.287 . S
C1474 C1475 1.524 . S
C1474 H1493 0.913 . S
C1475 H1451 0.950 . S
C1475 C1474 1.524 . S
C1475 C1476 1.415 . S
C1476 H1452 0.950 . S
C1476 C1471 1.363 . S
C1476 C1475 1.415 . S
C1477 H1453 0.951 . S
C1477 C1478 1.366 . S
C1477 C1479 1.388 . S
C1478 C1477 1.366 . S
C1478 C1482 1.385 . S
C1479 H1454 0.951 . S
C1479 C1477 1.388 . S
C1479 C1480 1.366 . S
C1480 C1479 1.366 . S
C1480 C1481 1.414 . S
C1480 C1483 1.499 . S
C1481 H1455 0.950 . S
C1481 C1480 1.414 . S
C1481 C1482 1.374 . S
C1482 H1456 0.950 . S
C1482 C1478 1.385 . S
C1482 C1481 1.374 . S
C1483 C1480 1.499 . S
C1483 C1484 1.373 . S
C1483 C1485 1.389 . S
C1484 H1457 0.950 . S
C1484 C1470 1.377 . S
C1484 C1483 1.373 . S
C1485 C1469 1.377 . S
C1485 C1483 1.389 . S
C1485 C1486 1.524 . S
C1486 C1485 1.524 . S
C1486 C1487 1.397 . S
C1486 C1491 1.363 . S
C1487 H1458 0.950 . S
C1487 C1486 1.397 . S
C1487 C1488 1.334 . S
C1488 H1459 0.950 . S
C1488 C1487 1.334 . S
C1488 C1489 1.287 . S
C1489 C1488 1.287 . S
C1489 C1490 1.524 . S
C1489 H1492 0.999 . S
C1490 H1460 0.950 1_556 S
C1490 C1489 1.524 . S
C1490 C1491 1.415 . S
C1491 H1461 0.950 . S
C1491 C1486 1.363 . S
C1491 C1490 1.415 . S
H1492 C1489 0.999 . S
H1493 C1474 0.913 . S
H1494 C1512 0.951 . S
H1495 C1514 0.951 . S
H1496 C1516 0.950 . S
H1497 C1517 0.950 . S
H1498 C1519 0.950 . S
H1499 C1522 0.950 . S
H1500 C1523 0.950 . S
H1501 C1525 0.950 . S
H1502 C1526 0.950 . S
H1503 C1527 0.951 . S
H1504 C1529 0.951 1_556 S
H1505 C1531 0.950 . S
H1506 C1532 0.950 . S
H1507 C1534 0.950 . S
H1508 C1537 0.950 . S
H1509 C1538 0.950 . S
H1510 C1540 0.950 . S
H1511 C1541 0.950 . S
C1512 H1494 0.951 . S
C1512 C1513 1.366 . S
C1512 C1514 1.388 . S
C1513 C1512 1.366 . S
C1513 C1517 1.385 . S
C1514 H1495 0.951 . S
C1514 C1512 1.388 . S
C1514 C1515 1.366 . S
C1515 C1514 1.366 . S
C1515 C1516 1.414 . S
C1515 C1518 1.499 . S
C1516 H1496 0.950 . S
C1516 C1515 1.414 . S
C1516 C1517 1.374 . S
C1517 H1497 0.950 . S
C1517 C1513 1.385 . S
C1517 C1516 1.374 . S
C1518 C1515 1.499 . S
C1518 C1519 1.373 . S
C1518 C1520 1.389 . S
C1519 H1498 0.950 . S
C1519 C1518 1.373 . S
C1519 C1535 1.377 . S
C1520 C1518 1.389 . S
C1520 C1521 1.524 . S
C1520 C1534 1.377 . S
C1521 C1520 1.524 . S
C1521 C1522 1.397 . S
C1521 C1526 1.363 . S
C1522 H1499 0.950 . S
C1522 C1521 1.397 . S
C1522 C1523 1.334 . S
C1523 H1500 0.950 . S
C1523 C1522 1.334 . S
C1523 C1524 1.287 . S
C1524 C1523 1.287 . S
C1524 C1525 1.524 . S
C1524 H1543 0.913 . S
C1525 H1501 0.950 . S
C1525 C1524 1.524 . S
C1525 C1526 1.415 . S
C1526 H1502 0.950 . S
C1526 C1521 1.363 . S
C1526 C1525 1.415 . S
C1527 H1503 0.951 . S
C1527 C1528 1.366 . S
C1527 C1529 1.388 1_556 S
C1528 C1527 1.366 . S
C1528 C1532 1.385 1_556 S
C1529 H1504 0.951 1_554 S
C1529 C1527 1.388 1_554 S
C1529 C1530 1.366 . S
C1530 C1529 1.366 . S
C1530 C1531 1.414 . S
C1530 C1533 1.499 . S
C1531 H1505 0.950 . S
C1531 C1530 1.414 . S
C1531 C1532 1.374 . S
C1532 H1506 0.950 . S
C1532 C1528 1.385 1_554 S
C1532 C1531 1.374 . S
C1533 C1530 1.499 . S
C1533 C1534 1.373 . S
C1533 C1535 1.389 . S
C1534 H1507 0.950 . S
C1534 C1520 1.377 . S
C1534 C1533 1.373 . S
C1535 C1519 1.377 . S
C1535 C1533 1.389 . S
C1535 C1536 1.524 . S
C1536 C1535 1.524 . S
C1536 C1537 1.397 . S
C1536 C1541 1.363 . S
C1537 H1508 0.950 . S
C1537 C1536 1.397 . S
C1537 C1538 1.334 . S
C1538 H1509 0.950 . S
C1538 C1537 1.334 . S
C1538 C1539 1.287 . S
C1539 C1538 1.287 . S
C1539 C1540 1.524 . S
C1539 H1542 0.999 . S
C1540 H1510 0.950 . S
C1540 C1539 1.524 . S
C1540 C1541 1.415 . S
C1541 H1511 0.950 . S
C1541 C1536 1.363 . S
C1541 C1540 1.415 . S
H1542 C1539 0.999 . S
H1543 C1524 0.913 . S
H1544 C1562 0.951 . S
H1545 C1564 0.951 . S
H1546 C1566 0.950 . S
H1547 C1567 0.950 . S
H1548 C1569 0.950 . S
H1549 C1572 0.950 . S
H1550 C1573 0.950 . S
H1551 C1575 0.950 . S
H1552 C1576 0.950 . S
H1553 C1577 0.951 . S
H1554 C1579 0.951 . S
H1555 C1581 0.950 . S
H1556 C1582 0.950 . S
H1557 C1584 0.950 . S
H1558 C1587 0.950 . S
H1559 C1588 0.950 . S
H1560 C1590 0.950 . S
H1561 C1591 0.950 . S
C1562 H1544 0.951 . S
C1562 C1563 1.366 . S
C1562 C1564 1.388 . S
C1563 C1562 1.366 . S
C1563 C1567 1.385 . S
C1564 H1545 0.951 . S
C1564 C1562 1.388 . S
C1564 C1565 1.366 . S
C1565 C1564 1.366 . S
C1565 C1566 1.414 . S
C1565 C1568 1.499 . S
C1566 H1546 0.950 . S
C1566 C1565 1.414 . S
C1566 C1567 1.374 . S
C1567 H1547 0.950 . S
C1567 C1563 1.385 . S
C1567 C1566 1.374 . S
C1568 C1565 1.499 . S
C1568 C1569 1.373 . S
C1568 C1570 1.389 . S
C1569 H1548 0.950 . S
C1569 C1568 1.373 . S
C1569 C1585 1.377 . S
C1570 C1568 1.389 . S
C1570 C1571 1.524 . S
C1570 C1584 1.377 . S
C1571 C1570 1.524 . S
C1571 C1572 1.397 . S
C1571 C1576 1.363 . S
C1572 H1549 0.950 . S
C1572 C1571 1.397 . S
C1572 C1573 1.334 . S
C1573 H1550 0.950 . S
C1573 C1572 1.334 . S
C1573 C1574 1.287 . S
C1574 C1573 1.287 . S
C1574 C1575 1.524 . S
C1574 H1593 0.913 . S
C1575 H1551 0.950 . S
C1575 C1574 1.524 . S
C1575 C1576 1.415 . S
C1576 H1552 0.950 . S
C1576 C1571 1.363 . S
C1576 C1575 1.415 . S
C1577 H1553 0.951 . S
C1577 C1578 1.366 . S
C1577 C1579 1.388 . S
C1578 C1577 1.366 . S
C1578 C1582 1.385 . S
C1579 H1554 0.951 . S
C1579 C1577 1.388 . S
C1579 C1580 1.366 . S
C1580 C1579 1.366 . S
C1580 C1581 1.414 . S
C1580 C1583 1.499 . S
C1581 H1555 0.950 . S
C1581 C1580 1.414 . S
C1581 C1582 1.374 . S
C1582 H1556 0.950 . S
C1582 C1578 1.385 . S
C1582 C1581 1.374 . S
C1583 C1580 1.499 . S
C1583 C1584 1.373 . S
C1583 C1585 1.389 . S
C1584 H1557 0.950 . S
C1584 C1570 1.377 . S
C1584 C1583 1.373 . S
C1585 C1569 1.377 . S
C1585 C1583 1.389 . S
C1585 C1586 1.524 . S
C1586 C1585 1.524 . S
C1586 C1587 1.397 . S
C1586 C1591 1.363 . S
C1587 H1558 0.950 . S
C1587 C1586 1.397 . S
C1587 C1588 1.334 . S
C1588 H1559 0.950 . S
C1588 C1587 1.334 . S
C1588 C1589 1.287 . S
C1589 C1588 1.287 . S
C1589 C1590 1.524 . S
C1589 H1592 0.999 . S
C1590 H1560 0.950 . S
C1590 C1589 1.524 . S
C1590 C1591 1.415 . S
C1591 H1561 0.950 . S
C1591 C1586 1.363 . S
C1591 C1590 1.415 . S
H1592 C1589 0.999 . S
H1593 C1574 0.913 . S
H1594 C1612 0.951 . S
H1595 C1614 0.951 . S
H1596 C1616 0.950 . S
H1597 C1617 0.950 . S
H1598 C1619 0.950 . S
H1599 C1622 0.950 . S
H1600 C1623 0.950 . S
H1601 C1625 0.950 . S
H1602 C1626 0.950 . S
H1603 C1627 0.951 . S
H1604 C1629 0.951 . S
H1605 C1631 0.950 . S
H1606 C1632 0.950 . S
H1607 C1634 0.950 . S
H1608 C1637 0.950 . S
H1609 C1638 0.950 . S
H1610 C1640 0.950 . S
H1611 C1641 0.950 . S
C1612 H1594 0.951 . S
C1612 C1613 1.366 . S
C1612 C1614 1.388 . S
C1613 C1612 1.366 . S
C1613 C1617 1.385 . S
C1614 H1595 0.951 . S
C1614 C1612 1.388 . S
C1614 C1615 1.366 . S
C1615 C1614 1.366 . S
C1615 C1616 1.414 . S
C1615 C1618 1.499 . S
C1616 H1596 0.950 . S
C1616 C1615 1.414 . S
C1616 C1617 1.374 . S
C1617 H1597 0.950 . S
C1617 C1613 1.385 . S
C1617 C1616 1.374 . S
C1618 C1615 1.499 . S
C1618 C1619 1.373 . S
C1618 C1620 1.389 . S
C1619 H1598 0.950 . S
C1619 C1618 1.373 . S
C1619 C1635 1.377 . S
C1620 C1618 1.389 . S
C1620 C1621 1.524 . S
C1620 C1634 1.377 . S
C1621 C1620 1.524 . S
C1621 C1622 1.397 . S
C1621 C1626 1.363 . S
C1622 H1599 0.950 . S
C1622 C1621 1.397 . S
C1622 C1623 1.334 . S
C1623 H1600 0.950 . S
C1623 C1622 1.334 . S
C1623 C1624 1.287 . S
C1624 C1623 1.287 . S
C1624 C1625 1.524 . S
C1624 H1643 0.913 . S
C1625 H1601 0.950 . S
C1625 C1624 1.524 . S
C1625 C1626 1.415 . S
C1626 H1602 0.950 . S
C1626 C1621 1.363 . S
C1626 C1625 1.415 . S
C1627 H1603 0.951 . S
C1627 C1628 1.366 . S
C1627 C1629 1.388 . S
C1628 C1627 1.366 . S
C1628 C1632 1.385 . S
C1629 H1604 0.951 . S
C1629 C1627 1.388 . S
C1629 C1630 1.366 . S
C1630 C1629 1.366 . S
C1630 C1631 1.414 . S
C1630 C1633 1.499 . S
C1631 H1605 0.950 . S
C1631 C1630 1.414 . S
C1631 C1632 1.374 . S
C1632 H1606 0.950 . S
C1632 C1628 1.385 . S
C1632 C1631 1.374 . S
C1633 C1630 1.499 . S
C1633 C1634 1.373 . S
C1633 C1635 1.389 . S
C1634 H1607 0.950 . S
C1634 C1620 1.377 . S
C1634 C1633 1.373 . S
C1635 C1619 1.377 . S
C1635 C1633 1.389 . S
C1635 C1636 1.524 . S
C1636 C1635 1.524 . S
C1636 C1637 1.397 . S
C1636 C1641 1.363 . S
C1637 H1608 0.950 . S
C1637 C1636 1.397 . S
C1637 C1638 1.334 . S
C1638 H1609 0.950 . S
C1638 C1637 1.334 . S
C1638 C1639 1.287 . S
C1639 C1638 1.287 . S
C1639 C1640 1.524 . S
C1639 H1642 0.999 . S
C1640 H1610 0.950 . S
C1640 C1639 1.524 . S
C1640 C1641 1.415 . S
C1641 H1611 0.950 . S
C1641 C1636 1.363 . S
C1641 C1640 1.415 . S
H1642 C1639 0.999 . S
H1643 C1624 0.913 . S
H1644 C1662 0.951 . S
H1645 C1664 0.951 . S
H1646 C1666 0.950 . S
H1647 C1667 0.950 . S
H1648 C1669 0.950 . S
H1649 C1672 0.950 . S
H1650 C1673 0.950 . S
H1651 C1675 0.950 . S
H1652 C1676 0.950 . S
H1653 C1677 0.951 . S
H1654 C1679 0.951 . S
H1655 C1681 0.950 . S
H1656 C1682 0.950 . S
H1657 C1684 0.950 . S
H1658 C1687 0.950 . S
H1659 C1688 0.950 . S
H1660 C1690 0.950 . S
H1661 C1691 0.950 . S
C1662 H1644 0.951 . S
C1662 C1663 1.366 . S
C1662 C1664 1.388 . S
C1663 C1662 1.366 . S
C1663 C1667 1.385 . S
C1664 H1645 0.951 . S
C1664 C1662 1.388 . S
C1664 C1665 1.366 . S
C1665 C1664 1.366 . S
C1665 C1666 1.414 . S
C1665 C1668 1.499 . S
C1666 H1646 0.950 . S
C1666 C1665 1.414 . S
C1666 C1667 1.374 . S
C1667 H1647 0.950 . S
C1667 C1663 1.385 . S
C1667 C1666 1.374 . S
C1668 C1665 1.499 . S
C1668 C1669 1.373 . S
C1668 C1670 1.389 . S
C1669 H1648 0.950 . S
C1669 C1668 1.373 . S
C1669 C1685 1.377 . S
C1670 C1668 1.389 . S
C1670 C1671 1.524 . S
C1670 C1684 1.377 . S
C1671 C1670 1.524 . S
C1671 C1672 1.397 . S
C1671 C1676 1.363 . S
C1672 H1649 0.950 . S
C1672 C1671 1.397 . S
C1672 C1673 1.334 . S
C1673 H1650 0.950 . S
C1673 C1672 1.334 . S
C1673 C1674 1.287 . S
C1674 C1673 1.287 . S
C1674 C1675 1.524 . S
C1674 H1693 0.913 . S
C1675 H1651 0.950 . S
C1675 C1674 1.524 . S
C1675 C1676 1.415 . S
C1676 H1652 0.950 . S
C1676 C1671 1.363 . S
C1676 C1675 1.415 . S
C1677 H1653 0.951 . S
C1677 C1678 1.366 . S
C1677 C1679 1.388 . S
C1678 C1677 1.366 . S
C1678 C1682 1.385 . S
C1679 H1654 0.951 . S
C1679 C1677 1.388 . S
C1679 C1680 1.366 . S
C1680 C1679 1.366 . S
C1680 C1681 1.414 . S
C1680 C1683 1.499 . S
C1681 H1655 0.950 . S
C1681 C1680 1.414 . S
C1681 C1682 1.374 . S
C1682 H1656 0.950 . S
C1682 C1678 1.385 . S
C1682 C1681 1.374 . S
C1683 C1680 1.499 . S
C1683 C1684 1.373 . S
C1683 C1685 1.389 . S
C1684 H1657 0.950 . S
C1684 C1670 1.377 . S
C1684 C1683 1.373 . S
C1685 C1669 1.377 . S
C1685 C1683 1.389 . S
C1685 C1686 1.524 . S
C1686 C1685 1.524 . S
C1686 C1687 1.397 . S
C1686 C1691 1.363 . S
C1687 H1658 0.950 . S
C1687 C1686 1.397 . S
C1687 C1688 1.334 . S
C1688 H1659 0.950 . S
C1688 C1687 1.334 . S
C1688 C1689 1.287 . S
C1689 C1688 1.287 . S
C1689 C1690 1.524 . S
C1689 H1692 0.999 . S
C1690 H1660 0.950 . S
C1690 C1689 1.524 . S
C1690 C1691 1.415 . S
C1691 H1661 0.950 . S
C1691 C1686 1.363 . S
C1691 C1690 1.415 . S
H1692 C1689 0.999 . S
H1693 C1674 0.913 . S
H1694 C1712 0.951 . S
H1695 C1714 0.951 . S
H1696 C1716 0.950 . S
H1697 C1717 0.950 . S
H1698 C1719 0.950 . S
H1699 C1722 0.950 . S
H1700 C1723 0.950 . S
H1701 C1725 0.950 . S
H1702 C1726 0.950 . S
H1703 C1727 0.951 . S
H1704 C1729 0.951 . S
H1705 C1731 0.950 . S
H1706 C1732 0.950 . S
H1707 C1734 0.950 . S
H1708 C1737 0.950 . S
H1709 C1738 0.950 . S
H1710 C1740 0.950 . S
H1711 C1741 0.950 . S
C1712 H1694 0.951 . S
C1712 C1713 1.366 . S
C1712 C1714 1.388 . S
C1713 C1712 1.366 . S
C1713 C1717 1.385 . S
C1714 H1695 0.951 . S
C1714 C1712 1.388 . S
C1714 C1715 1.366 . S
C1715 C1714 1.366 . S
C1715 C1716 1.414 . S
C1715 C1718 1.499 . S
C1716 H1696 0.950 . S
C1716 C1715 1.414 . S
C1716 C1717 1.374 . S
C1717 H1697 0.950 . S
C1717 C1713 1.385 . S
C1717 C1716 1.374 . S
C1718 C1715 1.499 . S
C1718 C1719 1.373 . S
C1718 C1720 1.389 . S
C1719 H1698 0.950 . S
C1719 C1718 1.373 . S
C1719 C1735 1.377 . S
C1720 C1718 1.389 . S
C1720 C1721 1.524 . S
C1720 C1734 1.377 . S
C1721 C1720 1.524 . S
C1721 C1722 1.397 . S
C1721 C1726 1.363 . S
C1722 H1699 0.950 . S
C1722 C1721 1.397 . S
C1722 C1723 1.334 . S
C1723 H1700 0.950 . S
C1723 C1722 1.334 . S
C1723 C1724 1.287 . S
C1724 C1723 1.287 . S
C1724 C1725 1.524 . S
C1724 H1743 0.913 . S
C1725 H1701 0.950 . S
C1725 C1724 1.524 . S
C1725 C1726 1.415 . S
C1726 H1702 0.950 . S
C1726 C1721 1.363 . S
C1726 C1725 1.415 . S
C1727 H1703 0.951 . S
C1727 C1728 1.366 . S
C1727 C1729 1.388 . S
C1728 C1727 1.366 . S
C1728 C1732 1.385 . S
C1729 H1704 0.951 . S
C1729 C1727 1.388 . S
C1729 C1730 1.366 . S
C1730 C1729 1.366 . S
C1730 C1731 1.414 . S
C1730 C1733 1.499 . S
C1731 H1705 0.950 . S
C1731 C1730 1.414 . S
C1731 C1732 1.374 . S
C1732 H1706 0.950 . S
C1732 C1728 1.385 . S
C1732 C1731 1.374 . S
C1733 C1730 1.499 . S
C1733 C1734 1.373 . S
C1733 C1735 1.389 . S
C1734 H1707 0.950 . S
C1734 C1720 1.377 . S
C1734 C1733 1.373 . S
C1735 C1719 1.377 . S
C1735 C1733 1.389 . S
C1735 C1736 1.524 . S
C1736 C1735 1.524 . S
C1736 C1737 1.397 . S
C1736 C1741 1.363 . S
C1737 H1708 0.950 . S
C1737 C1736 1.397 . S
C1737 C1738 1.334 . S
C1738 H1709 0.950 . S
C1738 C1737 1.334 . S
C1738 C1739 1.287 . S
C1739 C1738 1.287 . S
C1739 C1740 1.524 . S
C1739 H1742 0.999 . S
C1740 H1710 0.950 . S
C1740 C1739 1.524 . S
C1740 C1741 1.415 . S
C1741 H1711 0.950 . S
C1741 C1736 1.363 . S
C1741 C1740 1.415 . S
H1742 C1739 0.999 . S
H1743 C1724 0.913 . S
H1744 C1762 0.951 . S
H1745 C1764 0.956 . S
H1746 C1766 0.950 . S
H1747 C1767 0.950 . S
H1748 C1769 0.950 . S
H1749 C1772 0.950 . S
H1750 C1773 1.009 . S
H1751 C1775 0.950 . S
H1752 C1776 0.950 . S
H1753 C1777 0.951 . S
H1754 C1779 0.951 . S
H1755 C1781 0.950 . S
H1756 C1782 0.950 . S
H1757 C1784 0.950 . S
H1758 C1787 0.950 . S
H1759 C1788 0.950 . S
H1760 C1790 0.950 . S
H1761 C1791 0.950 . S
C1762 H1744 0.951 . S
C1762 C1763 1.366 . S
C1762 C1764 1.381 1_545 S
C1763 C1762 1.366 . S
C1763 C1767 1.385 . S
C1764 H1745 0.956 . S
C1764 C1762 1.381 1_565 S
C1764 C1765 1.367 . S
C1765 C1764 1.367 . S
C1765 C1766 1.414 1_565 S
C1765 C1768 1.499 . S
C1766 H1746 0.950 . S
C1766 C1765 1.414 1_545 S
C1766 C1767 1.374 . S
C1767 H1747 0.950 . S
C1767 C1763 1.385 . S
C1767 C1766 1.374 . S
C1768 C1765 1.499 . S
C1768 C1769 1.373 . S
C1768 C1770 1.389 . S
C1769 H1748 0.950 . S
C1769 C1768 1.373 . S
C1769 C1785 1.377 . S
C1770 C1768 1.389 . S
C1770 C1771 1.524 . S
C1770 C1784 1.377 . S
C1771 C1770 1.524 . S
C1771 C1772 1.397 . S
C1771 C1776 1.363 . S
C1772 H1749 0.950 . S
C1772 C1771 1.397 . S
C1772 C1773 1.306 1_565 S
C1773 H1750 1.009 . S
C1773 C1772 1.306 1_545 S
C1773 C1774 1.257 1_545 S
C1774 C1773 1.257 1_565 S
C1774 C1775 1.524 . S
C1774 H1793 0.913 . S
C1775 H1751 0.950 . S
C1775 C1774 1.524 . S
C1775 C1776 1.415 . S
C1776 H1752 0.950 . S
C1776 C1771 1.363 . S
C1776 C1775 1.415 . S
C1777 H1753 0.951 . S
C1777 C1778 1.366 . S
C1777 C1779 1.388 . S
C1778 C1777 1.366 . S
C1778 C1782 1.385 . S
C1779 H1754 0.951 . S
C1779 C1777 1.388 . S
C1779 C1780 1.366 . S
C1780 C1779 1.366 . S
C1780 C1781 1.414 . S
C1780 C1783 1.499 . S
C1781 H1755 0.950 . S
C1781 C1780 1.414 . S
C1781 C1782 1.374 . S
C1782 H1756 0.950 . S
C1782 C1778 1.385 . S
C1782 C1781 1.374 . S
C1783 C1780 1.499 . S
C1783 C1784 1.373 . S
C1783 C1785 1.389 . S
C1784 H1757 0.950 . S
C1784 C1770 1.377 . S
C1784 C1783 1.373 . S
C1785 C1769 1.377 . S
C1785 C1783 1.389 . S
C1785 C1786 1.524 . S
C1786 C1785 1.524 . S
C1786 C1787 1.397 . S
C1786 C1791 1.363 . S
C1787 H1758 0.950 . S
C1787 C1786 1.397 . S
C1787 C1788 1.334 . S
C1788 H1759 0.950 . S
C1788 C1787 1.334 . S
C1788 C1789 1.287 . S
C1789 C1788 1.287 . S
C1789 C1790 1.524 . S
C1789 H1792 0.999 . S
C1790 H1760 0.950 . S
C1790 C1789 1.524 . S
C1790 C1791 1.415 . S
C1791 H1761 0.950 . S
C1791 C1786 1.363 . S
C1791 C1790 1.415 . S
H1792 C1789 0.999 . S
H1793 C1774 0.913 . S
H1794 C1812 0.951 . S
H1795 C1814 0.951 . S
H1796 C1816 0.950 . S
H1797 C1817 0.950 . S
H1798 C1819 0.950 . S
H1799 C1822 0.950 . S
H1800 C1823 0.950 . S
H1801 C1825 0.950 . S
H1802 C1826 0.950 . S
H1803 C1827 0.951 . S
H1804 C1829 0.951 . S
H1805 C1831 0.950 . S
H1806 C1832 0.950 . S
H1807 C1834 0.950 . S
H1808 C1837 0.950 . S
H1809 C1838 0.950 . S
H1810 C1840 0.950 . S
H1811 C1841 0.950 . S
C1812 H1794 0.951 . S
C1812 C1813 1.366 . S
C1812 C1814 1.388 . S
C1813 C1812 1.366 . S
C1813 C1817 1.385 . S
C1814 H1795 0.951 . S
C1814 C1812 1.388 . S
C1814 C1815 1.366 . S
C1815 C1814 1.366 . S
C1815 C1816 1.414 . S
C1815 C1818 1.499 . S
C1816 H1796 0.950 . S
C1816 C1815 1.414 . S
C1816 C1817 1.374 . S
C1817 H1797 0.950 . S
C1817 C1813 1.385 . S
C1817 C1816 1.374 . S
C1818 C1815 1.499 . S
C1818 C1819 1.373 . S
C1818 C1820 1.389 . S
C1819 H1798 0.950 . S
C1819 C1818 1.373 . S
C1819 C1835 1.377 . S
C1820 C1818 1.389 . S
C1820 C1821 1.524 . S
C1820 C1834 1.377 . S
C1821 C1820 1.524 . S
C1821 C1822 1.397 . S
C1821 C1826 1.363 . S
C1822 H1799 0.950 . S
C1822 C1821 1.397 . S
C1822 C1823 1.334 . S
C1823 H1800 0.950 . S
C1823 C1822 1.334 . S
C1823 C1824 1.287 . S
C1824 C1823 1.287 . S
C1824 C1825 1.524 . S
C1824 H1843 0.913 . S
C1825 H1801 0.950 . S
C1825 C1824 1.524 . S
C1825 C1826 1.415 . S
C1826 H1802 0.950 . S
C1826 C1821 1.363 . S
C1826 C1825 1.415 . S
C1827 H1803 0.951 . S
C1827 C1828 1.366 . S
C1827 C1829 1.388 1_455 S
C1828 C1827 1.366 . S
C1828 C1832 1.385 . S
C1829 H1804 0.951 . S
C1829 C1827 1.388 1_655 S
C1829 C1830 1.366 . S
C1830 C1829 1.366 . S
C1830 C1831 1.414 1_655 S
C1830 C1833 1.499 . S
C1831 H1805 0.950 . S
C1831 C1830 1.414 1_455 S
C1831 C1832 1.374 . S
C1832 H1806 0.950 . S
C1832 C1828 1.385 . S
C1832 C1831 1.374 . S
C1833 C1830 1.499 . S
C1833 C1834 1.373 . S
C1833 C1835 1.389 . S
C1834 H1807 0.950 . S
C1834 C1820 1.377 . S
C1834 C1833 1.373 . S
C1835 C1819 1.377 . S
C1835 C1833 1.389 . S
C1835 C1836 1.524 . S
C1836 C1835 1.524 . S
C1836 C1837 1.397 . S
C1836 C1841 1.363 . S
C1837 H1808 0.950 . S
C1837 C1836 1.397 . S
C1837 C1838 1.334 . S
C1838 H1809 0.950 . S
C1838 C1837 1.334 . S
C1838 C1839 1.287 . S
C1839 C1838 1.287 . S
C1839 C1840 1.524 . S
C1839 H1842 0.999 . S
C1840 H1810 0.950 . S
C1840 C1839 1.524 . S
C1840 C1841 1.415 . S
C1841 H1811 0.950 . S
C1841 C1836 1.363 . S
C1841 C1840 1.415 . S
H1842 C1839 0.999 . S
H1843 C1824 0.913 . S
H1844 C1862 0.951 . S
H1845 C1864 0.951 . S
H1846 C1866 0.950 . S
H1847 C1867 0.950 . S
H1848 C1869 0.950 . S
H1849 C1872 0.950 . S
H1850 C1873 0.950 . S
H1851 C1875 0.957 . S
H1852 C1876 0.950 . S
H1853 C1877 0.951 . S
H1854 C1879 0.951 . S
H1855 C1881 0.950 . S
H1856 C1882 0.950 . S
H1857 C1884 0.950 . S
H1858 C1887 0.950 . S
H1859 C1888 0.950 . S
H1860 C1890 0.950 . S
H1861 C1891 0.950 . S
C1862 H1844 0.951 . S
C1862 C1863 1.366 . S
C1862 C1864 1.388 . S
C1863 C1862 1.366 . S
C1863 C1867 1.385 . S
C1864 H1845 0.951 . S
C1864 C1862 1.388 . S
C1864 C1865 1.366 1_565 S
C1865 C1864 1.366 1_545 S
C1865 C1866 1.414 . S
C1865 C1868 1.499 . S
C1866 H1846 0.950 . S
C1866 C1865 1.414 . S
C1866 C1867 1.374 1_545 S
C1867 H1847 0.950 . S
C1867 C1863 1.385 . S
C1867 C1866 1.374 1_565 S
C1868 C1865 1.499 . S
C1868 C1869 1.373 . S
C1868 C1870 1.389 . S
C1869 H1848 0.950 . S
C1869 C1868 1.373 . S
C1869 C1885 1.377 . S
C1870 C1868 1.389 . S
C1870 C1871 1.524 . S
C1870 C1884 1.377 . S
C1871 C1870 1.524 . S
C1871 C1872 1.397 . S
C1871 C1876 1.363 . S
C1872 H1849 0.950 . S
C1872 C1871 1.397 . S
C1872 C1873 1.334 1_545 S
C1873 H1850 0.950 . S
C1873 C1872 1.334 1_565 S
C1873 C1874 1.287 . S
C1874 C1873 1.287 . S
C1874 C1875 1.533 . S
C1874 H1893 0.913 . S
C1875 H1851 0.957 . S
C1875 C1874 1.533 . S
C1875 C1876 1.398 1_565 S
C1876 H1852 0.950 . S
C1876 C1871 1.363 . S
C1876 C1875 1.398 1_545 S
C1877 H1853 0.951 . S
C1877 C1878 1.366 . S
C1877 C1879 1.388 . S
C1878 C1877 1.366 . S
C1878 C1882 1.385 . S
C1879 H1854 0.951 . S
C1879 C1877 1.388 . S
C1879 C1880 1.366 . S
C1880 C1879 1.366 . S
C1880 C1881 1.414 . S
C1880 C1883 1.499 . S
C1881 H1855 0.950 . S
C1881 C1880 1.414 . S
C1881 C1882 1.374 . S
C1882 H1856 0.950 . S
C1882 C1878 1.385 . S
C1882 C1881 1.374 . S
C1883 C1880 1.499 . S
C1883 C1884 1.373 . S
C1883 C1885 1.389 . S
C1884 H1857 0.950 . S
C1884 C1870 1.377 . S
C1884 C1883 1.373 . S
C1885 C1869 1.377 . S
C1885 C1883 1.389 . S
C1885 C1886 1.524 . S
C1886 C1885 1.524 . S
C1886 C1887 1.397 . S
C1886 C1891 1.363 . S
C1887 H1858 0.950 . S
C1887 C1886 1.397 . S
C1887 C1888 1.334 . S
C1888 H1859 0.950 . S
C1888 C1887 1.334 . S
C1888 C1889 1.287 . S
C1889 C1888 1.287 . S
C1889 C1890 1.524 . S
C1889 H1892 0.999 . S
C1890 H1860 0.950 . S
C1890 C1889 1.524 . S
C1890 C1891 1.415 . S
C1891 H1861 0.950 . S
C1891 C1886 1.363 . S
C1891 C1890 1.415 . S
H1892 C1889 0.999 . S
H1893 C1874 0.913 . S
H1894 C1912 0.951 . S
H1895 C1914 0.951 . S
H1896 C1916 0.950 . S
H1897 C1917 0.950 . S
H1898 C1919 0.950 . S
H1899 C1922 0.950 . S
H1900 C1923 0.950 . S
H1901 C1925 0.950 . S
H1902 C1926 0.950 . S
H1903 C1927 0.951 . S
H1904 C1929 0.951 . S
H1905 C1931 0.950 . S
H1906 C1932 0.950 . S
H1907 C1934 0.950 . S
H1908 C1937 0.950 . S
H1909 C1938 0.950 . S
H1910 C1940 0.950 . S
H1911 C1941 0.950 . S
C1912 H1894 0.951 . S
C1912 C1913 1.366 . S
C1912 C1914 1.388 . S
C1913 C1912 1.366 . S
C1913 C1917 1.385 . S
C1914 H1895 0.951 . S
C1914 C1912 1.388 . S
C1914 C1915 1.366 . S
C1915 C1914 1.366 . S
C1915 C1916 1.414 . S
C1915 C1918 1.499 . S
C1916 H1896 0.950 . S
C1916 C1915 1.414 . S
C1916 C1917 1.374 . S
C1917 H1897 0.950 . S
C1917 C1913 1.385 . S
C1917 C1916 1.374 . S
C1918 C1915 1.499 . S
C1918 C1919 1.373 . S
C1918 C1920 1.389 . S
C1919 H1898 0.950 . S
C1919 C1918 1.373 . S
C1919 C1935 1.377 . S
C1920 C1918 1.389 . S
C1920 C1921 1.524 . S
C1920 C1934 1.377 . S
C1921 C1920 1.524 . S
C1921 C1922 1.397 . S
C1921 C1926 1.363 . S
C1922 H1899 0.950 . S
C1922 C1921 1.397 . S
C1922 C1923 1.334 . S
C1923 H1900 0.950 . S
C1923 C1922 1.334 . S
C1923 C1924 1.287 . S
C1924 C1923 1.287 . S
C1924 C1925 1.524 . S
C1924 H1943 0.913 . S
C1925 H1901 0.950 . S
C1925 C1924 1.524 . S
C1925 C1926 1.415 . S
C1926 H1902 0.950 . S
C1926 C1921 1.363 . S
C1926 C1925 1.415 . S
C1927 H1903 0.951 . S
C1927 C1928 1.366 . S
C1927 C1929 1.388 1_655 S
C1928 C1927 1.366 . S
C1928 C1932 1.385 . S
C1929 H1904 0.951 . S
C1929 C1927 1.388 1_455 S
C1929 C1930 1.366 . S
C1930 C1929 1.366 . S
C1930 C1931 1.414 1_455 S
C1930 C1933 1.499 . S
C1931 H1905 0.950 . S
C1931 C1930 1.414 1_655 S
C1931 C1932 1.374 . S
C1932 H1906 0.950 . S
C1932 C1928 1.385 . S
C1932 C1931 1.374 . S
C1933 C1930 1.499 . S
C1933 C1934 1.373 . S
C1933 C1935 1.389 . S
C1934 H1907 0.950 . S
C1934 C1920 1.377 . S
C1934 C1933 1.373 . S
C1935 C1919 1.377 . S
C1935 C1933 1.389 . S
C1935 C1936 1.524 . S
C1936 C1935 1.524 . S
C1936 C1937 1.397 . S
C1936 C1941 1.363 . S
C1937 H1908 0.950 . S
C1937 C1936 1.397 . S
C1937 C1938 1.334 . S
C1938 H1909 0.950 . S
C1938 C1937 1.334 . S
C1938 C1939 1.287 . S
C1939 C1938 1.287 . S
C1939 C1940 1.524 . S
C1939 H1942 0.999 . S
C1940 H1910 0.950 . S
C1940 C1939 1.524 . S
C1940 C1941 1.415 . S
C1941 H1911 0.950 . S
C1941 C1936 1.363 . S
C1941 C1940 1.415 . S
H1942 C1939 0.999 . S
H1943 C1924 0.913 . S
H1944 C1962 0.951 . S
H1945 C1964 0.951 . S
H1946 C1966 0.950 1_554 S
H1947 C1967 0.950 . S
H1948 C1969 0.950 . S
H1949 C1972 0.950 . S
H1950 C1973 0.950 . S
H1951 C1975 0.950 . S
H1952 C1976 0.950 . S
H1953 C1977 0.951 . S
H1954 C1979 0.951 . S
H1955 C1981 0.950 . S
H1956 C1982 0.950 . S
H1957 C1984 0.950 . S
H1958 C1987 0.950 . S
H1959 C1988 0.950 . S
H1960 C1990 0.950 . S
H1961 C1991 0.950 . S
C1962 H1944 0.951 . S
C1962 C1963 1.366 . S
C1962 C1964 1.388 . S
C1963 C1962 1.366 . S
C1963 C1967 1.385 . S
C1964 H1945 0.951 . S
C1964 C1962 1.388 . S
C1964 C1965 1.366 . S
C1965 C1964 1.366 . S
C1965 C1966 1.414 . S
C1965 C1968 1.499 1_556 S
C1966 H1946 0.950 1_556 S
C1966 C1965 1.414 . S
C1966 C1967 1.374 . S
C1967 H1947 0.950 . S
C1967 C1963 1.385 . S
C1967 C1966 1.374 . S
C1968 C1965 1.499 1_554 S
C1968 C1969 1.373 . S
C1968 C1970 1.389 1_554 S
C1969 H1948 0.950 . S
C1969 C1968 1.373 . S
C1969 C1985 1.377 . S
C1970 C1968 1.389 1_556 S
C1970 C1971 1.524 . S
C1970 C1984 1.377 . S
C1971 C1970 1.524 . S
C1971 C1972 1.397 . S
C1971 C1976 1.363 . S
C1972 H1949 0.950 . S
C1972 C1971 1.397 . S
C1972 C1973 1.334 . S
C1973 H1950 0.950 . S
C1973 C1972 1.334 . S
C1973 C1974 1.287 . S
C1974 C1973 1.287 . S
C1974 C1975 1.524 . S
C1974 H1993 0.913 . S
C1975 H1951 0.950 . S
C1975 C1974 1.524 . S
C1975 C1976 1.415 . S
C1976 H1952 0.950 . S
C1976 C1971 1.363 . S
C1976 C1975 1.415 . S
C1977 H1953 0.951 . S
C1977 C1978 1.366 . S
C1977 C1979 1.388 . S
C1978 C1977 1.366 . S
C1978 C1982 1.385 . S
C1979 H1954 0.951 . S
C1979 C1977 1.388 . S
C1979 C1980 1.366 . S
C1980 C1979 1.366 . S
C1980 C1981 1.414 . S
C1980 C1983 1.499 . S
C1981 H1955 0.950 . S
C1981 C1980 1.414 . S
C1981 C1982 1.374 . S
C1982 H1956 0.950 . S
C1982 C1978 1.385 . S
C1982 C1981 1.374 . S
C1983 C1980 1.499 . S
C1983 C1984 1.373 1_554 S
C1983 C1985 1.389 . S
C1984 H1957 0.950 . S
C1984 C1970 1.377 . S
C1984 C1983 1.373 1_556 S
C1985 C1969 1.377 . S
C1985 C1983 1.389 . S
C1985 C1986 1.524 . S
C1986 C1985 1.524 . S
C1986 C1987 1.397 . S
C1986 C1991 1.363 . S
C1987 H1958 0.950 . S
C1987 C1986 1.397 . S
C1987 C1988 1.334 . S
C1988 H1959 0.950 . S
C1988 C1987 1.334 . S
C1988 C1989 1.287 . S
C1989 C1988 1.287 . S
C1989 C1990 1.524 . S
C1989 H1992 0.999 . S
C1990 H1960 0.950 . S
C1990 C1989 1.524 . S
C1990 C1991 1.415 . S
C1991 H1961 0.950 . S
C1991 C1986 1.363 . S
C1991 C1990 1.415 . S
H1992 C1989 0.999 . S
H1993 C1974 0.913 . S
H1994 C2012 0.951 . S
H1995 C2014 0.951 . S
H1996 C2016 0.950 . S
H1997 C2017 0.950 . S
H1998 C2019 0.950 . S
H1999 C2022 0.950 . S
H2000 C2023 0.950 . S
H2001 C2025 0.950 . S
H2002 C2026 0.950 . S
H2003 C2027 0.951 . S
H2004 C2029 0.951 . S
H2005 C2031 0.950 1_554 S
H2006 C2032 0.950 . S
H2007 C2034 0.950 . S
H2008 C2037 0.950 1_554 S
H2009 C2038 0.950 . S
H2010 C2040 0.950 . S
H2011 C2041 0.950 . S
C2012 H1994 0.951 . S
C2012 C2013 1.366 . S
C2012 C2014 1.388 . S
C2013 C2012 1.366 . S
C2013 C2017 1.385 1_554 S
C2014 H1995 0.951 . S
C2014 C2012 1.388 . S
C2014 C2015 1.366 . S
C2015 C2014 1.366 . S
C2015 C2016 1.414 1_554 S
C2015 C2018 1.499 1_554 S
C2016 H1996 0.950 . S
C2016 C2015 1.414 1_556 S
C2016 C2017 1.374 . S
C2017 H1997 0.950 . S
C2017 C2013 1.385 1_556 S
C2017 C2016 1.374 . S
C2018 C2015 1.499 1_556 S
C2018 C2019 1.373 . S
C2018 C2020 1.389 . S
C2019 H1998 0.950 . S
C2019 C2018 1.373 . S
C2019 C2035 1.377 . S
C2020 C2018 1.389 . S
C2020 C2021 1.524 . S
C2020 C2034 1.377 . S
C2021 C2020 1.524 . S
C2021 C2022 1.397 . S
C2021 C2026 1.363 1_556 S
C2022 H1999 0.950 . S
C2022 C2021 1.397 . S
C2022 C2023 1.334 . S
C2023 H2000 0.950 . S
C2023 C2022 1.334 . S
C2023 C2024 1.287 1_556 S
C2024 C2023 1.287 1_554 S
C2024 C2025 1.524 . S
C2024 H2043 0.913 . S
C2025 H2001 0.950 . S
C2025 C2024 1.524 . S
C2025 C2026 1.415 . S
C2026 H2002 0.950 . S
C2026 C2021 1.363 1_554 S
C2026 C2025 1.415 . S
C2027 H2003 0.951 . S
C2027 C2028 1.366 . S
C2027 C2029 1.388 . S
C2028 C2027 1.366 . S
C2028 C2032 1.385 . S
C2029 H2004 0.951 . S
C2029 C2027 1.388 . S
C2029 C2030 1.366 . S
C2030 C2029 1.366 . S
C2030 C2031 1.414 . S
C2030 C2033 1.499 . S
C2031 H2005 0.950 1_556 S
C2031 C2030 1.414 . S
C2031 C2032 1.374 . S
C2032 H2006 0.950 . S
C2032 C2028 1.385 . S
C2032 C2031 1.374 . S
C2033 C2030 1.499 . S
C2033 C2034 1.373 . S
C2033 C2035 1.389 . S
C2034 H2007 0.950 . S
C2034 C2020 1.377 . S
C2034 C2033 1.373 . S
C2035 C2019 1.377 . S
C2035 C2033 1.389 . S
C2035 C2036 1.524 . S
C2036 C2035 1.524 . S
C2036 C2037 1.397 . S
C2036 C2041 1.363 . S
C2037 H2008 0.950 1_556 S
C2037 C2036 1.397 . S
C2037 C2038 1.334 . S
C2038 H2009 0.950 . S
C2038 C2037 1.334 . S
C2038 C2039 1.287 . S
C2039 C2038 1.287 . S
C2039 C2040 1.524 . S
C2039 H2042 0.999 . S
C2040 H2010 0.950 . S
C2040 C2039 1.524 . S
C2040 C2041 1.415 . S
C2041 H2011 0.950 . S
C2041 C2036 1.363 . S
C2041 C2040 1.415 . S
H2042 C2039 0.999 . S
H2043 C2024 0.913 . S
H2044 C2062 0.951 . S
H2045 C2064 0.951 . S
H2046 C2066 0.950 1_556 S
H2047 C2067 0.950 . S
H2048 C2069 0.950 1_556 S
H2049 C2072 0.950 . S
H2050 C2073 0.950 . S
H2051 C2075 0.950 . S
H2052 C2076 0.950 . S
H2053 C2077 0.951 . S
H2054 C2079 0.951 . S
H2055 C2081 0.950 . S
H2056 C2082 0.950 . S
H2057 C2084 0.950 . S
H2058 C2087 0.950 1_554 S
H2059 C2088 0.950 . S
H2060 C2090 0.950 . S
H2061 C2091 0.950 . S
C2062 H2044 0.951 . S
C2062 C2063 1.366 . S
C2062 C2064 1.388 . S
C2063 C2062 1.366 . S
C2063 C2067 1.385 . S
C2064 H2045 0.951 . S
C2064 C2062 1.388 . S
C2064 C2065 1.366 . S
C2065 C2064 1.366 . S
C2065 C2066 1.414 . S
C2065 C2068 1.499 . S
C2066 H2046 0.950 1_554 S
C2066 C2065 1.414 . S
C2066 C2067 1.374 . S
C2067 H2047 0.950 . S
C2067 C2063 1.385 . S
C2067 C2066 1.374 . S
C2068 C2065 1.499 . S
C2068 C2069 1.373 . S
C2068 C2070 1.389 . S
C2069 H2048 0.950 1_554 S
C2069 C2068 1.373 . S
C2069 C2085 1.377 1_554 S
C2070 C2068 1.389 . S
C2070 C2071 1.524 . S
C2070 C2084 1.377 . S
C2071 C2070 1.524 . S
C2071 C2072 1.397 . S
C2071 C2076 1.363 . S
C2072 H2049 0.950 . S
C2072 C2071 1.397 . S
C2072 C2073 1.334 . S
C2073 H2050 0.950 . S
C2073 C2072 1.334 . S
C2073 C2074 1.287 . S
C2074 C2073 1.287 . S
C2074 C2075 1.524 . S
C2074 H2093 0.913 . S
C2075 H2051 0.950 . S
C2075 C2074 1.524 . S
C2075 C2076 1.415 . S
C2076 H2052 0.950 . S
C2076 C2071 1.363 . S
C2076 C2075 1.415 . S
C2077 H2053 0.951 . S
C2077 C2078 1.366 . S
C2077 C2079 1.388 . S
C2078 C2077 1.366 . S
C2078 C2082 1.385 1_556 S
C2079 H2054 0.951 . S
C2079 C2077 1.388 . S
C2079 C2080 1.366 . S
C2080 C2079 1.366 . S
C2080 C2081 1.414 1_556 S
C2080 C2083 1.499 1_556 S
C2081 H2055 0.950 . S
C2081 C2080 1.414 1_554 S
C2081 C2082 1.374 . S
C2082 H2056 0.950 . S
C2082 C2078 1.385 1_554 S
C2082 C2081 1.374 . S
C2083 C2080 1.499 1_554 S
C2083 C2084 1.373 . S
C2083 C2085 1.389 1_554 S
C2084 H2057 0.950 . S
C2084 C2070 1.377 . S
C2084 C2083 1.373 . S
C2085 C2069 1.377 1_556 S
C2085 C2083 1.389 1_556 S
C2085 C2086 1.524 . S
C2086 C2085 1.524 . S
C2086 C2087 1.397 . S
C2086 C2091 1.363 . S
C2087 H2058 0.950 1_556 S
C2087 C2086 1.397 . S
C2087 C2088 1.334 . S
C2088 H2059 0.950 . S
C2088 C2087 1.334 . S
C2088 C2089 1.287 . S
C2089 C2088 1.287 . S
C2089 C2090 1.524 . S
C2089 H2092 0.999 . S
C2090 H2060 0.950 . S
C2090 C2089 1.524 . S
C2090 C2091 1.415 . S
C2091 H2061 0.950 . S
C2091 C2086 1.363 . S
C2091 C2090 1.415 . S
H2092 C2089 0.999 . S
H2093 C2074 0.913 . S
H2094 C2112 0.951 . S
H2095 C2114 0.951 . S
H2096 C2116 0.950 . S
H2097 C2117 0.950 1_556 S
H2098 C2119 0.950 . S
H2099 C2122 0.950 . S
H2100 C2123 0.950 . S
H2101 C2125 0.950 . S
H2102 C2126 0.950 . S
H2103 C2127 0.951 . S
H2104 C2129 0.951 . S
H2105 C2131 0.950 . S
H2106 C2132 0.950 . S
H2107 C2134 0.950 . S
H2108 C2137 0.950 . S
H2109 C2138 0.950 . S
H2110 C2140 0.950 . S
H2111 C2141 0.950 . S
C2112 H2094 0.951 . S
C2112 C2113 1.366 . S
C2112 C2114 1.388 . S
C2113 C2112 1.366 . S
C2113 C2117 1.385 . S
C2114 H2095 0.951 . S
C2114 C2112 1.388 . S
C2114 C2115 1.366 . S
C2115 C2114 1.366 . S
C2115 C2116 1.414 1_554 S
C2115 C2118 1.499 1_554 S
C2116 H2096 0.950 . S
C2116 C2115 1.414 1_556 S
C2116 C2117 1.374 1_556 S
C2117 H2097 0.950 1_554 S
C2117 C2113 1.385 . S
C2117 C2116 1.374 1_554 S
C2118 C2115 1.499 1_556 S
C2118 C2119 1.373 . S
C2118 C2120 1.389 1_556 S
C2119 H2098 0.950 . S
C2119 C2118 1.373 . S
C2119 C2135 1.377 . S
C2120 C2118 1.389 1_554 S
C2120 C2121 1.524 . S
C2120 C2134 1.377 . S
C2121 C2120 1.524 . S
C2121 C2122 1.397 . S
C2121 C2126 1.363 . S
C2122 H2099 0.950 . S
C2122 C2121 1.397 . S
C2122 C2123 1.334 . S
C2123 H2100 0.950 . S
C2123 C2122 1.334 . S
C2123 C2124 1.287 . S
C2124 C2123 1.287 . S
C2124 C2125 1.524 . S
C2124 H2143 0.913 . S
C2125 H2101 0.950 . S
C2125 C2124 1.524 . S
C2125 C2126 1.415 . S
C2126 H2102 0.950 . S
C2126 C2121 1.363 . S
C2126 C2125 1.415 . S
C2127 H2103 0.951 . S
C2127 C2128 1.366 . S
C2127 C2129 1.388 . S
C2128 C2127 1.366 . S
C2128 C2132 1.385 . S
C2129 H2104 0.951 . S
C2129 C2127 1.388 . S
C2129 C2130 1.366 . S
C2130 C2129 1.366 . S
C2130 C2131 1.414 . S
C2130 C2133 1.499 . S
C2131 H2105 0.950 . S
C2131 C2130 1.414 . S
C2131 C2132 1.374 . S
C2132 H2106 0.950 . S
C2132 C2128 1.385 . S
C2132 C2131 1.374 . S
C2133 C2130 1.499 . S
C2133 C2134 1.373 1_556 S
C2133 C2135 1.389 . S
C2134 H2107 0.950 . S
C2134 C2120 1.377 . S
C2134 C2133 1.373 1_554 S
C2135 C2119 1.377 . S
C2135 C2133 1.389 . S
C2135 C2136 1.524 . S
C2136 C2135 1.524 . S
C2136 C2137 1.397 . S
C2136 C2141 1.363 . S
C2137 H2108 0.950 . S
C2137 C2136 1.397 . S
C2137 C2138 1.334 . S
C2138 H2109 0.950 . S
C2138 C2137 1.334 . S
C2138 C2139 1.287 . S
C2139 C2138 1.287 . S
C2139 C2140 1.524 . S
C2139 H2142 0.999 . S
C2140 H2110 0.950 . S
C2140 C2139 1.524 . S
C2140 C2141 1.415 . S
C2141 H2111 0.950 . S
C2141 C2136 1.363 . S
C2141 C2140 1.415 . S
H2142 C2139 0.999 . S
H2143 C2124 0.913 . S
H2144 C2162 0.951 . S
H2145 C2164 0.951 . S
H2146 C2166 0.950 . S
H2147 C2167 0.950 . S
H2148 C2169 0.950 . S
H2149 C2172 0.950 . S
H2150 C2173 0.950 . S
H2151 C2175 0.950 . S
H2152 C2176 0.950 . S
H2153 C2177 0.951 . S
H2154 C2179 0.951 . S
H2155 C2181 0.950 . S
H2156 C2182 0.950 . S
H2157 C2184 0.950 . S
H2158 C2187 0.950 . S
H2159 C2188 0.950 . S
H2160 C2190 0.950 . S
H2161 C2191 0.950 . S
C2162 H2144 0.951 . S
C2162 C2163 1.366 . S
C2162 C2164 1.388 . S
C2163 C2162 1.366 . S
C2163 C2167 1.385 . S
C2164 H2145 0.951 . S
C2164 C2162 1.388 . S
C2164 C2165 1.366 . S
C2165 C2164 1.366 . S
C2165 C2166 1.414 . S
C2165 C2168 1.499 . S
C2166 H2146 0.950 . S
C2166 C2165 1.414 . S
C2166 C2167 1.374 . S
C2167 H2147 0.950 . S
C2167 C2163 1.385 . S
C2167 C2166 1.374 . S
C2168 C2165 1.499 . S
C2168 C2169 1.373 . S
C2168 C2170 1.389 . S
C2169 H2148 0.950 . S
C2169 C2168 1.373 . S
C2169 C2185 1.377 . S
C2170 C2168 1.389 . S
C2170 C2171 1.524 . S
C2170 C2184 1.377 . S
C2171 C2170 1.524 . S
C2171 C2172 1.397 . S
C2171 C2176 1.363 . S
C2172 H2149 0.950 . S
C2172 C2171 1.397 . S
C2172 C2173 1.334 . S
C2173 H2150 0.950 . S
C2173 C2172 1.334 . S
C2173 C2174 1.287 . S
C2174 C2173 1.287 . S
C2174 C2175 1.524 . S
C2174 H2193 0.913 . S
C2175 H2151 0.950 . S
C2175 C2174 1.524 . S
C2175 C2176 1.415 . S
C2176 H2152 0.950 . S
C2176 C2171 1.363 . S
C2176 C2175 1.415 . S
C2177 H2153 0.951 . S
C2177 C2178 1.366 . S
C2177 C2179 1.388 . S
C2178 C2177 1.366 . S
C2178 C2182 1.385 . S
C2179 H2154 0.951 . S
C2179 C2177 1.388 . S
C2179 C2180 1.366 . S
C2180 C2179 1.366 . S
C2180 C2181 1.414 . S
C2180 C2183 1.499 . S
C2181 H2155 0.950 . S
C2181 C2180 1.414 . S
C2181 C2182 1.374 . S
C2182 H2156 0.950 . S
C2182 C2178 1.385 . S
C2182 C2181 1.374 . S
C2183 C2180 1.499 . S
C2183 C2184 1.373 . S
C2183 C2185 1.389 . S
C2184 H2157 0.950 . S
C2184 C2170 1.377 . S
C2184 C2183 1.373 . S
C2185 C2169 1.377 . S
C2185 C2183 1.389 . S
C2185 C2186 1.524 . S
C2186 C2185 1.524 . S
C2186 C2187 1.397 . S
C2186 C2191 1.363 . S
C2187 H2158 0.950 . S
C2187 C2186 1.397 . S
C2187 C2188 1.334 . S
C2188 H2159 0.950 . S
C2188 C2187 1.334 . S
C2188 C2189 1.287 . S
C2189 C2188 1.287 . S
C2189 C2190 1.524 . S
C2189 H2192 0.999 . S
C2190 H2160 0.950 . S
C2190 C2189 1.524 . S
C2190 C2191 1.415 . S
C2191 H2161 0.950 . S
C2191 C2186 1.363 . S
C2191 C2190 1.415 . S
H2192 C2189 0.999 . S
H2193 C2174 0.913 . S
H2194 C2212 0.951 . S
H2195 C2214 0.951 . S
H2196 C2216 0.950 . S
H2197 C2217 0.950 . S
H2198 C2219 0.950 . S
H2199 C2222 0.950 . S
H2200 C2223 0.950 . S
H2201 C2225 0.950 . S
H2202 C2226 0.950 . S
H2203 C2227 0.951 . S
H2204 C2229 0.951 . S
H2205 C2231 0.950 . S
H2206 C2232 0.950 . S
H2207 C2234 0.950 . S
H2208 C2237 0.950 . S
H2209 C2238 0.950 . S
H2210 C2240 0.950 . S
H2211 C2241 0.950 . S
C2212 H2194 0.951 . S
C2212 C2213 1.366 . S
C2212 C2214 1.388 . S
C2213 C2212 1.366 . S
C2213 C2217 1.385 . S
C2214 H2195 0.951 . S
C2214 C2212 1.388 . S
C2214 C2215 1.366 . S
C2215 C2214 1.366 . S
C2215 C2216 1.414 . S
C2215 C2218 1.499 . S
C2216 H2196 0.950 . S
C2216 C2215 1.414 . S
C2216 C2217 1.374 . S
C2217 H2197 0.950 . S
C2217 C2213 1.385 . S
C2217 C2216 1.374 . S
C2218 C2215 1.499 . S
C2218 C2219 1.373 . S
C2218 C2220 1.389 . S
C2219 H2198 0.950 . S
C2219 C2218 1.373 . S
C2219 C2235 1.377 . S
C2220 C2218 1.389 . S
C2220 C2221 1.524 . S
C2220 C2234 1.377 . S
C2221 C2220 1.524 . S
C2221 C2222 1.397 . S
C2221 C2226 1.363 . S
C2222 H2199 0.950 . S
C2222 C2221 1.397 . S
C2222 C2223 1.334 . S
C2223 H2200 0.950 . S
C2223 C2222 1.334 . S
C2223 C2224 1.287 . S
C2224 C2223 1.287 . S
C2224 C2225 1.524 . S
C2224 H2243 0.913 . S
C2225 H2201 0.950 . S
C2225 C2224 1.524 . S
C2225 C2226 1.415 . S
C2226 H2202 0.950 . S
C2226 C2221 1.363 . S
C2226 C2225 1.415 . S
C2227 H2203 0.951 . S
C2227 C2228 1.366 . S
C2227 C2229 1.388 . S
C2228 C2227 1.366 . S
C2228 C2232 1.385 . S
C2229 H2204 0.951 . S
C2229 C2227 1.388 . S
C2229 C2230 1.366 . S
C2230 C2229 1.366 . S
C2230 C2231 1.414 . S
C2230 C2233 1.499 . S
C2231 H2205 0.950 . S
C2231 C2230 1.414 . S
C2231 C2232 1.374 . S
C2232 H2206 0.950 . S
C2232 C2228 1.385 . S
C2232 C2231 1.374 . S
C2233 C2230 1.499 . S
C2233 C2234 1.373 . S
C2233 C2235 1.389 . S
C2234 H2207 0.950 . S
C2234 C2220 1.377 . S
C2234 C2233 1.373 . S
C2235 C2219 1.377 . S
C2235 C2233 1.389 . S
C2235 C2236 1.524 . S
C2236 C2235 1.524 . S
C2236 C2237 1.397 . S
C2236 C2241 1.363 . S
C2237 H2208 0.950 . S
C2237 C2236 1.397 . S
C2237 C2238 1.334 . S
C2238 H2209 0.950 . S
C2238 C2237 1.334 . S
C2238 C2239 1.287 . S
C2239 C2238 1.287 . S
C2239 C2240 1.524 . S
C2239 H2242 0.999 . S
C2240 H2210 0.950 . S
C2240 C2239 1.524 . S
C2240 C2241 1.415 . S
C2241 H2211 0.950 . S
C2241 C2236 1.363 . S
C2241 C2240 1.415 . S
H2242 C2239 0.999 . S
H2243 C2224 0.913 . S
H2244 C2262 0.951 . S
H2245 C2264 0.951 . S
H2246 C2266 0.950 . S
H2247 C2267 0.950 . S
H2248 C2269 0.950 . S
H2249 C2272 0.950 . S
H2250 C2273 0.950 . S
H2251 C2275 0.950 . S
H2252 C2276 0.950 . S
H2253 C2277 0.951 . S
H2254 C2279 0.951 . S
H2255 C2281 0.950 . S
H2256 C2282 0.950 . S
H2257 C2284 0.950 . S
H2258 C2287 0.950 . S
H2259 C2288 0.950 . S
H2260 C2290 0.950 . S
H2261 C2291 0.950 . S
C2262 H2244 0.951 . S
C2262 C2263 1.366 . S
C2262 C2264 1.388 . S
C2263 C2262 1.366 . S
C2263 C2267 1.385 . S
C2264 H2245 0.951 . S
C2264 C2262 1.388 . S
C2264 C2265 1.366 . S
C2265 C2264 1.366 . S
C2265 C2266 1.414 . S
C2265 C2268 1.499 . S
C2266 H2246 0.950 . S
C2266 C2265 1.414 . S
C2266 C2267 1.374 . S
C2267 H2247 0.950 . S
C2267 C2263 1.385 . S
C2267 C2266 1.374 . S
C2268 C2265 1.499 . S
C2268 C2269 1.373 . S
C2268 C2270 1.389 . S
C2269 H2248 0.950 . S
C2269 C2268 1.373 . S
C2269 C2285 1.377 . S
C2270 C2268 1.389 . S
C2270 C2271 1.524 . S
C2270 C2284 1.377 . S
C2271 C2270 1.524 . S
C2271 C2272 1.397 . S
C2271 C2276 1.363 . S
C2272 H2249 0.950 . S
C2272 C2271 1.397 . S
C2272 C2273 1.334 . S
C2273 H2250 0.950 . S
C2273 C2272 1.334 . S
C2273 C2274 1.287 . S
C2274 C2273 1.287 . S
C2274 C2275 1.524 . S
C2274 H2293 0.913 . S
C2275 H2251 0.950 . S
C2275 C2274 1.524 . S
C2275 C2276 1.415 . S
C2276 H2252 0.950 . S
C2276 C2271 1.363 . S
C2276 C2275 1.415 . S
C2277 H2253 0.951 . S
C2277 C2278 1.366 . S
C2277 C2279 1.388 . S
C2278 C2277 1.366 . S
C2278 C2282 1.385 . S
C2279 H2254 0.951 . S
C2279 C2277 1.388 . S
C2279 C2280 1.366 . S
C2280 C2279 1.366 . S
C2280 C2281 1.414 . S
C2280 C2283 1.499 . S
C2281 H2255 0.950 . S
C2281 C2280 1.414 . S
C2281 C2282 1.374 . S
C2282 H2256 0.950 . S
C2282 C2278 1.385 . S
C2282 C2281 1.374 . S
C2283 C2280 1.499 . S
C2283 C2284 1.373 . S
C2283 C2285 1.389 . S
C2284 H2257 0.950 . S
C2284 C2270 1.377 . S
C2284 C2283 1.373 . S
C2285 C2269 1.377 . S
C2285 C2283 1.389 . S
C2285 C2286 1.524 . S
C2286 C2285 1.524 . S
C2286 C2287 1.397 . S
C2286 C2291 1.363 . S
C2287 H2258 0.950 . S
C2287 C2286 1.397 . S
C2287 C2288 1.334 . S
C2288 H2259 0.950 . S
C2288 C2287 1.334 . S
C2288 C2289 1.287 . S
C2289 C2288 1.287 . S
C2289 C2290 1.524 . S
C2289 H2292 0.999 . S
C2290 H2260 0.950 . S
C2290 C2289 1.524 . S
C2290 C2291 1.415 . S
C2291 H2261 0.950 . S
C2291 C2286 1.363 . S
C2291 C2290 1.415 . S
H2292 C2289 0.999 . S
H2293 C2274 0.913 . S
H2294 C2312 0.951 . S
H2295 C2314 0.951 . S
H2296 C2316 0.950 . S
H2297 C2317 0.950 . S
H2298 C2319 0.950 . S
H2299 C2322 0.950 . S
H2300 C2323 0.950 . S
H2301 C2325 0.950 . S
H2302 C2326 0.950 . S
H2303 C2327 0.951 . S
H2304 C2329 0.951 . S
H2305 C2331 0.950 . S
H2306 C2332 0.950 . S
H2307 C2334 0.950 . S
H2308 C2337 0.950 . S
H2309 C2338 0.950 . S
H2310 C2340 0.950 . S
H2311 C2341 0.950 . S
C2312 H2294 0.951 . S
C2312 C2313 1.366 . S
C2312 C2314 1.388 . S
C2313 C2312 1.366 . S
C2313 C2317 1.385 . S
C2314 H2295 0.951 . S
C2314 C2312 1.388 . S
C2314 C2315 1.366 . S
C2315 C2314 1.366 . S
C2315 C2316 1.414 . S
C2315 C2318 1.499 . S
C2316 H2296 0.950 . S
C2316 C2315 1.414 . S
C2316 C2317 1.374 . S
C2317 H2297 0.950 . S
C2317 C2313 1.385 . S
C2317 C2316 1.374 . S
C2318 C2315 1.499 . S
C2318 C2319 1.373 . S
C2318 C2320 1.389 . S
C2319 H2298 0.950 . S
C2319 C2318 1.373 . S
C2319 C2335 1.377 . S
C2320 C2318 1.389 . S
C2320 C2321 1.524 . S
C2320 C2334 1.377 . S
C2321 C2320 1.524 . S
C2321 C2322 1.397 . S
C2321 C2326 1.363 . S
C2322 H2299 0.950 . S
C2322 C2321 1.397 . S
C2322 C2323 1.334 . S
C2323 H2300 0.950 . S
C2323 C2322 1.334 . S
C2323 C2324 1.287 . S
C2324 C2323 1.287 . S
C2324 C2325 1.524 . S
C2324 H2343 0.913 . S
C2325 H2301 0.950 . S
C2325 C2324 1.524 . S
C2325 C2326 1.415 . S
C2326 H2302 0.950 . S
C2326 C2321 1.363 . S
C2326 C2325 1.415 . S
C2327 H2303 0.951 . S
C2327 C2328 1.366 . S
C2327 C2329 1.388 . S
C2328 C2327 1.366 . S
C2328 C2332 1.385 . S
C2329 H2304 0.951 . S
C2329 C2327 1.388 . S
C2329 C2330 1.366 . S
C2330 C2329 1.366 . S
C2330 C2331 1.414 . S
C2330 C2333 1.499 . S
C2331 H2305 0.950 . S
C2331 C2330 1.414 . S
C2331 C2332 1.374 . S
C2332 H2306 0.950 . S
C2332 C2328 1.385 . S
C2332 C2331 1.374 . S
C2333 C2330 1.499 . S
C2333 C2334 1.373 . S
C2333 C2335 1.389 . S
C2334 H2307 0.950 . S
C2334 C2320 1.377 . S
C2334 C2333 1.373 . S
C2335 C2319 1.377 . S
C2335 C2333 1.389 . S
C2335 C2336 1.524 . S
C2336 C2335 1.524 . S
C2336 C2337 1.397 . S
C2336 C2341 1.363 . S
C2337 H2308 0.950 . S
C2337 C2336 1.397 . S
C2337 C2338 1.334 . S
C2338 H2309 0.950 . S
C2338 C2337 1.334 . S
C2338 C2339 1.287 . S
C2339 C2338 1.287 . S
C2339 C2340 1.524 . S
C2339 H2342 0.999 . S
C2340 H2310 0.950 . S
C2340 C2339 1.524 . S
C2340 C2341 1.415 . S
C2341 H2311 0.950 . S
C2341 C2336 1.363 . S
C2341 C2340 1.415 . S
H2342 C2339 0.999 . S
H2343 C2324 0.913 . S
H2344 C2362 0.951 . S
H2345 C2364 0.951 . S
H2346 C2366 0.950 . S
H2347 C2367 0.950 . S
H2348 C2369 0.950 . S
H2349 C2372 0.950 . S
H2350 C2373 0.950 . S
H2351 C2375 0.950 . S
H2352 C2376 0.950 . S
H2353 C2377 0.951 . S
H2354 C2379 0.972 . S
H2355 C2381 0.950 . S
H2356 C2382 0.950 . S
H2357 C2384 0.950 . S
H2358 C2387 0.950 . S
H2359 C2388 0.950 . S
H2360 C2390 0.950 . S
H2361 C2391 0.950 . S
C2362 H2344 0.951 . S
C2362 C2363 1.366 . S
C2362 C2364 1.388 . S
C2363 C2362 1.366 . S
C2363 C2367 1.385 . S
C2364 H2345 0.951 . S
C2364 C2362 1.388 . S
C2364 C2365 1.366 . S
C2365 C2364 1.366 . S
C2365 C2366 1.414 . S
C2365 C2368 1.499 . S
C2366 H2346 0.950 . S
C2366 C2365 1.414 . S
C2366 C2367 1.374 . S
C2367 H2347 0.950 . S
C2367 C2363 1.385 . S
C2367 C2366 1.374 . S
C2368 C2365 1.499 . S
C2368 C2369 1.373 . S
C2368 C2370 1.389 . S
C2369 H2348 0.950 . S
C2369 C2368 1.373 . S
C2369 C2385 1.377 . S
C2370 C2368 1.389 . S
C2370 C2371 1.524 . S
C2370 C2384 1.377 . S
C2371 C2370 1.524 . S
C2371 C2372 1.397 . S
C2371 C2376 1.363 . S
C2372 H2349 0.950 . S
C2372 C2371 1.397 . S
C2372 C2373 1.334 . S
C2373 H2350 0.950 . S
C2373 C2372 1.334 . S
C2373 C2374 1.287 . S
C2374 C2373 1.287 . S
C2374 C2375 1.524 . S
C2374 H2393 0.913 . S
C2375 H2351 0.950 . S
C2375 C2374 1.524 . S
C2375 C2376 1.415 . S
C2376 H2352 0.950 . S
C2376 C2371 1.363 . S
C2376 C2375 1.415 . S
C2377 H2353 0.951 . S
C2377 C2378 1.366 . S
C2377 C2379 1.361 1_565 S
C2378 C2377 1.366 . S
C2378 C2382 1.385 . S
C2379 H2354 0.972 . S
C2379 C2377 1.361 1_545 S
C2379 C2380 1.372 . S
C2380 C2379 1.372 . S
C2380 C2381 1.414 1_545 S
C2380 C2383 1.499 . S
C2381 H2355 0.950 . S
C2381 C2380 1.414 1_565 S
C2381 C2382 1.374 . S
C2382 H2356 0.950 . S
C2382 C2378 1.385 . S
C2382 C2381 1.374 . S
C2383 C2380 1.499 . S
C2383 C2384 1.373 . S
C2383 C2385 1.389 . S
C2384 H2357 0.950 . S
C2384 C2370 1.377 . S
C2384 C2383 1.373 . S
C2385 C2369 1.377 . S
C2385 C2383 1.389 . S
C2385 C2386 1.524 . S
C2386 C2385 1.524 . S
C2386 C2387 1.397 . S
C2386 C2391 1.363 . S
C2387 H2358 0.950 . S
C2387 C2386 1.397 . S
C2387 C2388 1.334 . S
C2388 H2359 0.950 . S
C2388 C2387 1.334 . S
C2388 C2389 1.287 . S
C2389 C2388 1.287 . S
C2389 C2390 1.524 . S
C2389 H2392 0.999 . S
C2390 H2360 0.950 . S
C2390 C2389 1.524 . S
C2390 C2391 1.415 . S
C2391 H2361 0.950 . S
C2391 C2386 1.363 . S
C2391 C2390 1.415 . S
H2392 C2389 0.999 . S
H2393 C2374 0.913 . S
H2394 C2412 0.951 . S
H2395 C2414 0.951 . S
H2396 C2416 0.950 . S
H2397 C2417 0.950 . S
H2398 C2419 0.950 . S
H2399 C2422 0.950 . S
H2400 C2423 0.950 . S
H2401 C2425 0.950 . S
H2402 C2426 0.950 . S
H2403 C2427 0.951 . S
H2404 C2429 0.951 . S
H2405 C2431 0.950 . S
H2406 C2432 0.950 . S
H2407 C2434 0.950 . S
H2408 C2437 0.950 . S
H2409 C2438 0.950 . S
H2410 C2440 0.963 . S
H2411 C2441 0.950 . S
C2412 H2394 0.951 . S
C2412 C2413 1.366 . S
C2412 C2414 1.388 . S
C2413 C2412 1.366 . S
C2413 C2417 1.385 . S
C2414 H2395 0.951 . S
C2414 C2412 1.388 . S
C2414 C2415 1.366 . S
C2415 C2414 1.366 . S
C2415 C2416 1.414 . S
C2415 C2418 1.499 . S
C2416 H2396 0.950 . S
C2416 C2415 1.414 . S
C2416 C2417 1.374 . S
C2417 H2397 0.950 . S
C2417 C2413 1.385 . S
C2417 C2416 1.374 . S
C2418 C2415 1.499 . S
C2418 C2419 1.373 . S
C2418 C2420 1.389 . S
C2419 H2398 0.950 . S
C2419 C2418 1.373 . S
C2419 C2435 1.377 . S
C2420 C2418 1.389 . S
C2420 C2421 1.524 . S
C2420 C2434 1.377 . S
C2421 C2420 1.524 . S
C2421 C2422 1.397 . S
C2421 C2426 1.363 . S
C2422 H2399 0.950 . S
C2422 C2421 1.397 . S
C2422 C2423 1.334 . S
C2423 H2400 0.950 . S
C2423 C2422 1.334 . S
C2423 C2424 1.287 . S
C2424 C2423 1.287 . S
C2424 C2425 1.524 . S
C2424 H2443 0.913 . S
C2425 H2401 0.950 . S
C2425 C2424 1.524 . S
C2425 C2426 1.415 . S
C2426 H2402 0.950 . S
C2426 C2421 1.363 . S
C2426 C2425 1.415 . S
C2427 H2403 0.951 . S
C2427 C2428 1.366 . S
C2427 C2429 1.388 . S
C2428 C2427 1.366 . S
C2428 C2432 1.385 . S
C2429 H2404 0.951 . S
C2429 C2427 1.388 . S
C2429 C2430 1.366 1_655 S
C2430 C2429 1.366 1_455 S
C2430 C2431 1.414 . S
C2430 C2433 1.499 . S
C2431 H2405 0.950 . S
C2431 C2430 1.414 . S
C2431 C2432 1.374 1_455 S
C2432 H2406 0.950 . S
C2432 C2428 1.385 . S
C2432 C2431 1.374 1_655 S
C2433 C2430 1.499 . S
C2433 C2434 1.373 . S
C2433 C2435 1.389 . S
C2434 H2407 0.950 . S
C2434 C2420 1.377 . S
C2434 C2433 1.373 . S
C2435 C2419 1.377 . S
C2435 C2433 1.389 . S
C2435 C2436 1.524 . S
C2436 C2435 1.524 . S
C2436 C2437 1.397 . S
C2436 C2441 1.363 . S
C2437 H2408 0.950 . S
C2437 C2436 1.397 . S
C2437 C2438 1.334 1_455 S
C2438 H2409 0.950 . S
C2438 C2437 1.334 1_655 S
C2438 C2439 1.287 . S
C2439 C2438 1.287 . S
C2439 C2440 1.540 . S
C2439 H2442 0.999 . S
C2440 H2410 0.963 . S
C2440 C2439 1.540 . S
C2440 C2441 1.385 1_655 S
C2441 H2411 0.950 . S
C2441 C2436 1.363 . S
C2441 C2440 1.385 1_455 S
H2442 C2439 0.999 . S
H2443 C2424 0.913 . S
H2444 C2462 0.951 . S
H2445 C2464 0.951 . S
H2446 C2466 0.950 . S
H2447 C2467 0.950 . S
H2448 C2469 0.950 . S
H2449 C2472 0.950 . S
H2450 C2473 0.950 . S
H2451 C2475 0.950 . S
H2452 C2476 0.950 . S
H2453 C2477 0.951 . S
H2454 C2479 0.951 . S
H2455 C2481 0.950 1_565 S
H2456 C2482 0.950 . S
H2457 C2484 0.950 . S
H2458 C2487 0.950 . S
H2459 C2488 0.950 . S
H2460 C2490 0.950 . S
H2461 C2491 0.950 . S
C2462 H2444 0.951 . S
C2462 C2463 1.366 . S
C2462 C2464 1.388 . S
C2463 C2462 1.366 . S
C2463 C2467 1.385 . S
C2464 H2445 0.951 . S
C2464 C2462 1.388 . S
C2464 C2465 1.366 . S
C2465 C2464 1.366 . S
C2465 C2466 1.414 . S
C2465 C2468 1.499 . S
C2466 H2446 0.950 . S
C2466 C2465 1.414 . S
C2466 C2467 1.374 . S
C2467 H2447 0.950 . S
C2467 C2463 1.385 . S
C2467 C2466 1.374 . S
C2468 C2465 1.499 . S
C2468 C2469 1.373 . S
C2468 C2470 1.389 . S
C2469 H2448 0.950 . S
C2469 C2468 1.373 . S
C2469 C2485 1.377 . S
C2470 C2468 1.389 . S
C2470 C2471 1.524 . S
C2470 C2484 1.377 . S
C2471 C2470 1.524 . S
C2471 C2472 1.397 . S
C2471 C2476 1.363 . S
C2472 H2449 0.950 . S
C2472 C2471 1.397 . S
C2472 C2473 1.334 . S
C2473 H2450 0.950 . S
C2473 C2472 1.334 . S
C2473 C2474 1.287 . S
C2474 C2473 1.287 . S
C2474 C2475 1.524 . S
C2474 H2493 0.913 . S
C2475 H2451 0.950 . S
C2475 C2474 1.524 . S
C2475 C2476 1.415 . S
C2476 H2452 0.950 . S
C2476 C2471 1.363 . S
C2476 C2475 1.415 . S
C2477 H2453 0.951 . S
C2477 C2478 1.366 . S
C2477 C2479 1.388 . S
C2478 C2477 1.366 . S
C2478 C2482 1.385 . S
C2479 H2454 0.951 . S
C2479 C2477 1.388 . S
C2479 C2480 1.366 1_545 S
C2480 C2479 1.366 1_565 S
C2480 C2481 1.414 1_565 S
C2480 C2483 1.499 . S
C2481 H2455 0.950 1_545 S
C2481 C2480 1.414 1_545 S
C2481 C2482 1.374 . S
C2482 H2456 0.950 . S
C2482 C2478 1.385 . S
C2482 C2481 1.374 . S
C2483 C2480 1.499 . S
C2483 C2484 1.373 . S
C2483 C2485 1.389 . S
C2484 H2457 0.950 . S
C2484 C2470 1.377 . S
C2484 C2483 1.373 . S
C2485 C2469 1.377 . S
C2485 C2483 1.389 . S
C2485 C2486 1.524 . S
C2486 C2485 1.524 . S
C2486 C2487 1.397 1_565 S
C2486 C2491 1.363 . S
C2487 H2458 0.950 . S
C2487 C2486 1.397 1_545 S
C2487 C2488 1.334 . S
C2488 H2459 0.950 . S
C2488 C2487 1.334 . S
C2488 C2489 1.287 . S
C2489 C2488 1.287 . S
C2489 C2490 1.524 . S
C2489 H2492 0.999 . S
C2490 H2460 0.950 . S
C2490 C2489 1.524 . S
C2490 C2491 1.415 1_545 S
C2491 H2461 0.950 . S
C2491 C2486 1.363 . S
C2491 C2490 1.415 1_565 S
H2492 C2489 0.999 . S
H2493 C2474 0.913 . S
H2494 C2512 0.951 . S
H2495 C2514 0.951 . S
H2496 C2516 0.950 . S
H2497 C2517 0.950 . S
H2498 C2519 0.950 . S
H2499 C2522 0.950 . S
H2500 C2523 0.950 . S
H2501 C2525 0.936 1_455 S
H2502 C2526 0.950 . S
H2503 C2527 0.951 . S
H2504 C2529 0.951 . S
H2505 C2531 0.950 . S
H2506 C2532 0.950 . S
H2507 C2534 0.950 . S
H2508 C2537 0.950 . S
H2509 C2538 0.950 . S
H2510 C2540 0.950 . S
H2511 C2541 0.950 . S
C2512 H2494 0.951 . S
C2512 C2513 1.366 . S
C2512 C2514 1.388 . S
C2513 C2512 1.366 . S
C2513 C2517 1.385 . S
C2514 H2495 0.951 . S
C2514 C2512 1.388 . S
C2514 C2515 1.366 1_455 S
C2515 C2514 1.366 1_655 S
C2515 C2516 1.414 . S
C2515 C2518 1.499 . S
C2516 H2496 0.950 . S
C2516 C2515 1.414 . S
C2516 C2517 1.374 1_655 S
C2517 H2497 0.950 . S
C2517 C2513 1.385 . S
C2517 C2516 1.374 1_455 S
C2518 C2515 1.499 . S
C2518 C2519 1.373 . S
C2518 C2520 1.389 . S
C2519 H2498 0.950 . S
C2519 C2518 1.373 . S
C2519 C2535 1.377 . S
C2520 C2518 1.389 . S
C2520 C2521 1.524 . S
C2520 C2534 1.377 . S
C2521 C2520 1.524 . S
C2521 C2522 1.397 . S
C2521 C2526 1.363 . S
C2522 H2499 0.950 . S
C2522 C2521 1.397 . S
C2522 C2523 1.334 1_655 S
C2523 H2500 0.950 . S
C2523 C2522 1.334 1_455 S
C2523 C2524 1.287 . S
C2524 C2523 1.287 . S
C2524 C2525 1.507 1_455 S
C2524 H2543 0.913 . S
C2525 H2501 0.936 1_655 S
C2525 C2524 1.507 1_655 S
C2525 C2526 1.452 . S
C2526 H2502 0.950 . S
C2526 C2521 1.363 . S
C2526 C2525 1.452 . S
C2527 H2503 0.951 . S
C2527 C2528 1.366 . S
C2527 C2529 1.388 . S
C2528 C2527 1.366 . S
C2528 C2532 1.385 . S
C2529 H2504 0.951 . S
C2529 C2527 1.388 . S
C2529 C2530 1.366 . S
C2530 C2529 1.366 . S
C2530 C2531 1.414 . S
C2530 C2533 1.499 . S
C2531 H2505 0.950 . S
C2531 C2530 1.414 . S
C2531 C2532 1.374 . S
C2532 H2506 0.950 . S
C2532 C2528 1.385 . S
C2532 C2531 1.374 . S
C2533 C2530 1.499 . S
C2533 C2534 1.373 . S
C2533 C2535 1.389 . S
C2534 H2507 0.950 . S
C2534 C2520 1.377 . S
C2534 C2533 1.373 . S
C2535 C2519 1.377 . S
C2535 C2533 1.389 . S
C2535 C2536 1.524 . S
C2536 C2535 1.524 . S
C2536 C2537 1.397 . S
C2536 C2541 1.363 . S
C2537 H2508 0.950 . S
C2537 C2536 1.397 . S
C2537 C2538 1.334 . S
C2538 H2509 0.950 . S
C2538 C2537 1.334 . S
C2538 C2539 1.287 . S
C2539 C2538 1.287 . S
C2539 C2540 1.524 . S
C2539 H2542 0.999 . S
C2540 H2510 0.950 . S
C2540 C2539 1.524 . S
C2540 C2541 1.415 . S
C2541 H2511 0.950 . S
C2541 C2536 1.363 . S
C2541 C2540 1.415 . S
H2542 C2539 0.999 . S
H2543 C2524 0.913 . S
C563 C33 0.744 . S
C578 C509 0.745 . S
C613 C543 0.745 . S
C628 C67 0.745 . S
C663 C441 0.745 . S
C678 C101 0.744 . S
C713 C135 0.745 . S
C728 C475 0.745 . S
C763 C169 0.745 . S
C778 C373 0.745 . S
C813 C407 0.745 . S
C828 C203 0.745 . S
C863 C237 0.745 . S
C878 C305 0.745 . S
C913 C339 0.745 . S
C928 C271 0.745 . S
C963 C145 1.049 . S
C978 C9 1.048 . S
C1013 C43 1.048 . S
C1028 C179 1.048 . S
C1063 C77 1.050 . S
C1078 C213 1.050 . S
C1113 C111 1.050 . S
C1128 C247 1.049 . S
C1163 C417 1.048 . S
C1178 C281 1.048 . S
C1213 C451 1.049 . S
C1228 C315 1.050 . S
C1263 C349 1.048 . S
C1278 C485 1.048 . S
C1313 C383 1.049 . S
C1328 C519 1.050 . S
C1363 C2 2.006 . S
C1378 C478 2.006 . S
C1413 C512 2.006 . S
C1428 C36 2.006 . S
C1463 C70 2.006 . S
C1478 C410 2.006 . S
C1513 C444 2.006 . S
C1528 C104 2.006 . S
C1563 C342 2.005 . S
C1578 C138 2.005 . S
C1613 C376 2.005 . S
C1628 C172 2.005 . S
C1663 C206 2.005 . S
C1678 C274 2.005 . S
C1713 C240 2.005 . S
C1728 C308 2.005 . S
C1763 C5 1.623 . S
C1778 C394 1.633 . S
C1813 C292 1.633 . S
C1828 C39 1.623 . S
C1863 C73 1.623 . S
C1878 C326 1.633 . S
C1913 C360 1.633 . S
C1928 C107 1.622 . S
C1963 C190 1.633 . S
C1978 C141 1.622 . S
C2013 C224 1.632 . S
C2028 C175 1.622 . S
C2063 C209 1.622 . S
C2078 C258 1.632 . S
C2113 C156 1.633 . S
C2128 C243 1.622 . S
C2163 C122 1.633 . S
C2178 C277 1.622 . S
C2213 C311 1.623 . S
C2228 C20 1.633 . S
C2263 C345 1.623 . S
C2278 C54 1.633 . S
C2313 C88 1.633 . S
C2328 C379 1.623 . S
C2363 C462 1.633 . S
C2378 C413 1.622 . S
C2413 C496 1.633 . S
C2428 C447 1.623 . S
C2463 C530 1.633 . S
C2478 C481 1.623 . S
C2513 C515 1.623 . S
C2528 C428 1.632 . S
