# Generated by pormake.
# Topology acs-a, (4)-cn, num edge types: 1
# Building blocks:
#     Node 0, Type 0, BuildingBlock: CEKHIL_clean_sbu_0, # of connection points: 4
#     Node 1, Type 0, BuildingBlock: CEKHIL_clean_sbu_0, # of connection points: 4
#     Node 2, Type 0, BuildingBlock: CEKHIL_clean_sbu_0, # of connection points: 4
#     Node 3, Type 0, BuildingBlock: CEKHIL_clean_sbu_0, # of connection points: 4
#     Node 4, Type 0, BuildingBlock: CEKHIL_clean_sbu_0, # of connection points: 4
#     Node 5, Type 0, BuildingBlock: CEKHIL_clean_sbu_0, # of connection points: 4
#     Node 6, Type 0, BuildingBlock: CEKHIL_clean_sbu_0, # of connection points: 4
#     Node 7, Type 0, BuildingBlock: CEKHIL_clean_sbu_0, # of connection points: 4
#     Node 8, Type 0, BuildingBlock: CEKHIL_clean_sbu_0, # of connection points: 4
#     Node 9, Type 0, BuildingBlock: CEKHIL_clean_sbu_0, # of connection points: 4
#     Node 10, Type 0, BuildingBlock: CEKHIL_clean_sbu_0, # of connection points: 4
#     Node 11, Type 0, BuildingBlock: CEKHIL_clean_sbu_0, # of connection points: 4
#     Edge 12, Type (0, 0), BuildingBlock: CIFDUS_clean_linker_0, # of connection points: 2
#     Edge 13, Type (0, 0), BuildingBlock: CIFDUS_clean_linker_0, # of connection points: 2
#     Edge 14, Type (0, 0), BuildingBlock: CIFDUS_clean_linker_0, # of connection points: 2
#     Edge 15, Type (0, 0), BuildingBlock: CIFDUS_clean_linker_0, # of connection points: 2
#     Edge 16, Type (0, 0), BuildingBlock: CIFDUS_clean_linker_0, # of connection points: 2
#     Edge 17, Type (0, 0), BuildingBlock: CIFDUS_clean_linker_0, # of connection points: 2
#     Edge 18, Type (0, 0), BuildingBlock: CIFDUS_clean_linker_0, # of connection points: 2
#     Edge 19, Type (0, 0), BuildingBlock: CIFDUS_clean_linker_0, # of connection points: 2
#     Edge 20, Type (0, 0), BuildingBlock: CIFDUS_clean_linker_0, # of connection points: 2
#     Edge 21, Type (0, 0), BuildingBlock: CIFDUS_clean_linker_0, # of connection points: 2
#     Edge 22, Type (0, 0), BuildingBlock: CIFDUS_clean_linker_0, # of connection points: 2
#     Edge 23, Type (0, 0), BuildingBlock: CIFDUS_clean_linker_0, # of connection points: 2
#     Edge 24, Type (0, 0), BuildingBlock: CIFDUS_clean_linker_0, # of connection points: 2
#     Edge 25, Type (0, 0), BuildingBlock: CIFDUS_clean_linker_0, # of connection points: 2
#     Edge 26, Type (0, 0), BuildingBlock: CIFDUS_clean_linker_0, # of connection points: 2
#     Edge 27, Type (0, 0), BuildingBlock: CIFDUS_clean_linker_0, # of connection points: 2
#     Edge 28, Type (0, 0), BuildingBlock: CIFDUS_clean_linker_0, # of connection points: 2
#     Edge 29, Type (0, 0), BuildingBlock: CIFDUS_clean_linker_0, # of connection points: 2
#     Edge 30, Type (0, 0), BuildingBlock: CIFDUS_clean_linker_0, # of connection points: 2
#     Edge 31, Type (0, 0), BuildingBlock: CIFDUS_clean_linker_0, # of connection points: 2
#     Edge 32, Type (0, 0), BuildingBlock: CIFDUS_clean_linker_0, # of connection points: 2
#     Edge 33, Type (0, 0), BuildingBlock: CIFDUS_clean_linker_0, # of connection points: 2
#     Edge 34, Type (0, 0), BuildingBlock: CIFDUS_clean_linker_0, # of connection points: 2
#     Edge 35, Type (0, 0), BuildingBlock: CIFDUS_clean_linker_0, # of connection points: 2
# Relax obj value: 0.517
# Max RMSD: 0.261
# Mean RMSD: 0.236
data_MOF--net-acs-a--node1-CEKHIL_clean_sbu_0--edge1-CIFDUS_clean_linker_0
_symmetry_space_group_name_H-M    P1
_symmetry_Int_Tables_number       1
_symmetry_cell_setting            triclinic
loop_
_symmetry_equiv_pos_as_xyz
'x, y, z'
_cell_length_a     42.450155
_cell_length_b     42.409628
_cell_length_c     32.885373
_cell_angle_alpha  90.016412
_cell_angle_beta   89.982634
_cell_angle_gamma 113.96436
loop_
_atom_site_label
_atom_site_type_symbol
_atom_site_fract_x
_atom_site_fract_y
_atom_site_fract_z
_atom_type_partial_charge
Co0 Co 0.63906 0.13081 0.04603 0.0
O1 O 0.64008 0.08719 0.0312 0.0
O2 O 0.59323 0.09793 0.03716 0.0
C3 C 0.68152 0.16522 0.00499 0.0
O4 O 0.62623 0.17078 0.05795 0.0
Co5 Co 0.69951 0.19139 0.08593 0.0
O6 O 0.67256 0.21921 0.07232 0.0
C7 C 0.65562 0.13182 0.13606 0.0
C8 C 0.60673 0.07629 0.02829 0.0
C9 C 0.64059 0.20335 0.06434 0.0
O10 O 0.63539 0.11881 0.10565 0.0
O11 O 0.68392 0.15876 0.1333 0.0
O12 O 0.65081 0.14784 0.99048 0.0
O13 O 0.68629 0.15795 0.04201 0.0
Co14 Co 0.45978 0.62082 0.56813 0.0
O15 O 0.50517 0.62309 0.55562 0.0
O16 O 0.45534 0.57947 0.54131 0.0
C17 C 0.46482 0.67342 0.54791 0.0
O18 O 0.40891 0.60865 0.57281 0.0
Co19 Co 0.44742 0.66681 0.6338 0.0
O20 O 0.39902 0.64627 0.61355 0.0
C21 C 0.46575 0.61076 0.65905 0.0
C22 C 0.48874 0.59238 0.54027 0.0
C23 C 0.38891 0.62104 0.58874 0.0
O24 O 0.4599 0.59858 0.62266 0.0
O25 O 0.46695 0.64046 0.66843 0.0
O26 O 0.46069 0.64945 0.52113 0.0
O27 O 0.47209 0.66667 0.58417 0.0
Co28 Co 0.84841 0.42495 0.06513 0.0
O29 O 0.88223 0.4717 0.06969 0.0
O30 O 0.88861 0.42973 0.03491 0.0
C31 C 0.80245 0.43756 0.05349 0.0
O32 O 0.82025 0.37481 0.05145 0.0
Co33 Co 0.78496 0.39306 0.12235 0.0
O34 O 0.76744 0.35744 0.07877 0.0
C35 C 0.85464 0.40349 0.15129 0.0
C36 C 0.90151 0.46165 0.04698 0.0
C37 C 0.78876 0.35321 0.05443 0.0
O38 O 0.86736 0.41133 0.11531 0.0
O39 O 0.82359 0.39816 0.16055 0.0
O40 O 0.82291 0.43848 0.02358 0.0
O41 O 0.8121 0.43202 0.08886 0.0
Co42 Co 0.35898 0.85373 0.53124 0.0
O43 O 0.36335 0.89828 0.51088 0.0
O44 O 0.40536 0.88002 0.51408 0.0
C45 C 0.30935 0.81861 0.50067 0.0
O46 O 0.36646 0.81139 0.54728 0.0
Co47 Co 0.29965 0.8063 0.58653 0.0
O48 O 0.32319 0.77399 0.58471 0.0
C49 C 0.3521 0.86998 0.61988 0.0
C50 C 0.39579 0.90462 0.50533 0.0
C51 C 0.35195 0.7828 0.56635 0.0
O52 O 0.37097 0.87318 0.58815 0.0
O53 O 0.3209 0.84777 0.62241 0.0
O54 O 0.33823 0.83023 0.4804 0.0
O55 O 0.31089 0.83224 0.53603 0.0
Co56 Co 0.53139 0.36567 0.05692 0.0
O57 O 0.48532 0.35798 0.04081 0.0
O58 O 0.53142 0.40729 0.03388 0.0
C59 C 0.53458 0.31787 0.03197 0.0
O60 O 0.58269 0.38272 0.06811 0.0
Co61 Co 0.54223 0.3161 0.11954 0.0
O62 O 0.59187 0.34358 0.10726 0.0
C63 C 0.51693 0.36676 0.14786 0.0
C64 C 0.49833 0.39013 0.02956 0.0
C65 C 0.60269 0.37119 0.08615 0.0
O66 O 0.52357 0.38126 0.11268 0.0
O67 O 0.51833 0.33775 0.15525 0.0
O68 O 0.53865 0.34354 0.00778 0.0
O69 O 0.52271 0.31975 0.06758 0.0
Co70 Co 0.14766 0.56302 0.58527 0.0
O71 O 0.11235 0.51821 0.5959 0.0
O72 O 0.10726 0.55616 0.55301 0.0
C73 C 0.18982 0.5442 0.57909 0.0
O74 O 0.17992 0.61124 0.56517 0.0
Co75 Co 0.21095 0.59445 0.64314 0.0
O76 O 0.23129 0.62489 0.59568 0.0
C77 C 0.14258 0.59085 0.66809 0.0
C78 C 0.09379 0.52558 0.56943 0.0
C79 C 0.21255 0.62991 0.56833 0.0
O80 O 0.13053 0.58298 0.63182 0.0
O81 O 0.17248 0.59347 0.67902 0.0
O82 O 0.17055 0.54291 0.54788 0.0
O83 O 0.18164 0.55462 0.61256 0.0
Co84 Co 0.85682 0.3678 0.46014 0.0
O85 O 0.90095 0.37284 0.48213 0.0
O86 O 0.88298 0.41488 0.47439 0.0
C87 C 0.82009 0.32052 0.49285 0.0
O88 O 0.81486 0.37449 0.44176 0.0
Co89 Co 0.81055 0.30624 0.40674 0.0
O90 O 0.77788 0.32935 0.40636 0.0
C91 C 0.87199 0.35985 0.37059 0.0
C92 C 0.90723 0.40552 0.4853 0.0
C93 C 0.78644 0.35886 0.42284 0.0
O94 O 0.87655 0.37782 0.40332 0.0
O95 O 0.84938 0.32883 0.3676 0.0
O96 O 0.83337 0.35012 0.51154 0.0
O97 O 0.83446 0.31938 0.45854 0.0
Co98 Co 0.42591 0.85221 0.91857 0.0
O99 O 0.47345 0.88422 0.92163 0.0
O100 O 0.42866 0.89343 0.94465 0.0
C101 C 0.43425 0.80552 0.93888 0.0
O102 O 0.37425 0.82636 0.92405 0.0
Co103 Co 0.39799 0.78693 0.86412 0.0
O104 O 0.35925 0.77163 0.90416 0.0
C105 C 0.41959 0.85673 0.828 0.0
C106 C 0.46179 0.90445 0.94007 0.0
C107 C 0.35335 0.7945 0.9239 0.0
O108 O 0.42111 0.87055 0.86324 0.0
O109 O 0.41378 0.82492 0.82265 0.0
O110 O 0.43195 0.8269 0.96593 0.0
O111 O 0.43368 0.81433 0.90157 0.0
Co112 Co 0.62718 0.46885 0.41799 0.0
O113 O 0.63318 0.51615 0.42438 0.0
O114 O 0.58935 0.47018 0.44831 0.0
C115 C 0.6808 0.47458 0.4339 0.0
O116 O 0.61279 0.41691 0.42004 0.0
Co117 Co 0.6667 0.44795 0.35144 0.0
O118 O 0.65004 0.40377 0.38229 0.0
C119 C 0.61025 0.46676 0.32811 0.0
C120 C 0.60428 0.50351 0.44441 0.0
C121 C 0.62576 0.39586 0.40824 0.0
O122 O 0.60086 0.46475 0.36555 0.0
O123 O 0.63834 0.46513 0.31673 0.0
O124 O 0.65925 0.47353 0.46253 0.0
O125 O 0.671 0.4778 0.39753 0.0
Co126 Co 0.13962 0.64048 0.97711 0.0
O127 O 0.09546 0.64083 0.98996 0.0
O128 O 0.1095 0.59599 0.99654 0.0
C129 C 0.17355 0.69094 0.00633 0.0
O130 O 0.18155 0.62956 0.96949 0.0
Co131 Co 0.19381 0.69553 0.9228 0.0
O132 O 0.22569 0.67519 0.94356 0.0
C133 C 0.13208 0.64225 0.88543 0.0
C134 C 0.08636 0.60858 -0.00033 0.0
C135 C 0.21347 0.64535 0.95989 0.0
O136 O 0.12424 0.62586 0.91947 0.0
O137 O 0.15677 0.67209 0.88166 0.0
O138 O 0.1594 0.66334 0.02859 0.0
O139 O 0.16332 0.68768 0.96907 0.0
Co140 Co 0.55512 0.15123 0.42477 0.0
O141 O 0.5073 0.12021 0.42033 0.0
O142 O 0.54707 0.10847 0.45258 0.0
C143 C 0.54507 0.19809 0.44053 0.0
O144 O 0.60656 0.1772 0.43721 0.0
Co145 Co 0.58709 0.21539 0.36822 0.0
O146 O 0.62589 0.22956 0.40756 0.0
C147 C 0.57333 0.14565 0.33679 0.0
C148 C 0.51504 0.09851 0.44143 0.0
C149 C 0.62983 0.20791 0.43165 0.0
O150 O 0.56603 0.13248 0.37262 0.0
O151 O 0.57959 0.17712 0.32854 0.0
O152 O 0.54438 0.17654 0.46897 0.0
O153 O 0.5495 0.18954 0.40413 0.0
Co154 Co 0.37071 0.53622 0.93945 0.0
O155 O 0.37036 0.49224 0.95485 0.0
O156 O 0.41517 0.54277 0.95998 0.0
C157 C 0.32044 0.53108 0.96766 0.0
O158 O 0.3815 0.58649 0.9289 0.0
Co159 Co 0.31551 0.54195 0.88158 0.0
O160 O 0.33815 0.59211 0.89475 0.0
C161 C 0.37019 0.52393 0.84809 0.0
C162 C 0.40257 0.5095 0.96455 0.0
C163 C 0.36682 0.60483 0.91364 0.0
O164 O 0.3859 0.53092 0.88255 0.0
O165 O 0.33996 0.52301 0.84281 0.0
O166 O 0.34797 0.53967 0.99002 0.0
O167 O 0.32324 0.52148 0.93112 0.0
H168 H 0.63091 0.13682 0.32067 0.0
H169 H 0.52808 0.11241 0.27708 0.0
H170 H 0.54339 0.09688 0.21046 0.0
H171 H 0.58927 0.10345 0.16159 0.0
H172 H 0.69386 0.13493 0.2038 0.0
H173 H 0.67473 0.13355 0.27405 0.0
C174 C 0.61159 0.12661 0.29699 0.0
C175 C 0.57843 0.1253 0.30345 0.0
C176 C 0.62119 0.11962 0.25831 0.0
C177 C 0.55362 0.11305 0.2726 0.0
C178 C 0.56252 0.10457 0.23448 0.0
C179 C 0.60767 0.10868 0.18627 0.0
C180 C 0.64299 0.11974 0.17752 0.0
C181 C 0.59672 0.10962 0.22639 0.0
C182 C 0.66657 0.12669 0.20979 0.0
C183 C 0.65567 0.12613 0.24995 0.0
H184 H 0.41714 0.5466 0.66924 0.0
H185 H 0.50589 0.62437 0.7267 0.0
H186 H 0.48712 0.59663 0.79274 0.0
H187 H 0.43833 0.56025 0.83492 0.0
H188 H 0.34555 0.48835 0.77776 0.0
H189 H 0.37299 0.50301 0.71106 0.0
C190 C 0.43315 0.55643 0.69596 0.0
C191 C 0.46273 0.58745 0.69337 0.0
C192 C 0.42084 0.54178 0.73415 0.0
C193 C 0.48303 0.60044 0.72818 0.0
C194 C 0.47206 0.58481 0.76597 0.0
C195 C 0.42463 0.54678 0.80802 0.0
C196 C 0.38984 0.52364 0.8111 0.0
C197 C 0.43987 0.5569 0.76962 0.0
C198 C 0.37226 0.50655 0.77601 0.0
C199 C 0.38789 0.51509 0.73785 0.0
H200 H 0.88419 0.44438 0.21525 0.0
H201 H 0.86732 0.3466 0.16062 0.0
H202 H 0.87971 0.32573 0.22548 0.0
H203 H 0.88116 0.33112 0.29995 0.0
H204 H 0.89666 0.42884 0.35469 0.0
H205 H 0.90045 0.45441 0.28759 0.0
C206 C 0.8849 0.41914 0.21729 0.0
C207 C 0.87493 0.39694 0.18363 0.0
C208 C 0.89126 0.40715 0.25487 0.0
C209 C 0.87534 0.36411 0.18629 0.0
C210 C 0.88201 0.35209 0.22346 0.0
C211 C 0.88661 0.35834 0.29717 0.0
C212 C 0.88755 0.37772 0.33226 0.0
C213 C 0.88791 0.37269 0.25842 0.0
C214 C 0.89538 0.41314 0.32823 0.0
C215 C 0.8972 0.42775 0.28978 0.0
H216 H 0.37623 0.88528 0.80447 0.0
H217 H 0.4662 0.86973 0.76765 0.0
H218 H 0.45777 0.88278 0.69717 0.0
H219 H 0.41686 0.88367 0.64527 0.0
H220 H 0.32274 0.89155 0.68153 0.0
H221 H 0.34098 0.89762 0.75258 0.0
C222 C 0.39479 0.88641 0.78119 0.0
C223 C 0.4218 0.87673 0.79088 0.0
C224 C 0.38854 0.89193 0.74038 0.0
C225 C 0.44536 0.87737 0.7606 0.0
C226 C 0.44032 0.88449 0.72029 0.0
C227 C 0.40108 0.88827 0.66853 0.0
C228 C 0.36834 0.88669 0.65835 0.0
C229 C 0.41082 0.88966 0.70952 0.0
C230 C 0.34796 0.89237 0.68879 0.0
C231 C 0.35825 0.89553 0.72947 0.0
H232 H 0.54544 0.41868 0.32315 0.0
H233 H 0.62062 0.50544 0.25968 0.0
H234 H 0.58926 0.48543 0.19592 0.0
H235 H 0.55114 0.43555 0.15685 0.0
H236 H 0.48245 0.34413 0.21942 0.0
H237 H 0.49949 0.3737 0.28471 0.0
C238 C 0.55389 0.43399 0.29567 0.0
C239 C 0.5852 0.46332 0.29577 0.0
C240 C 0.53717 0.42087 0.25869 0.0
C241 C 0.59647 0.48278 0.26005 0.0
C242 C 0.57875 0.4711 0.22357 0.0
C243 C 0.53877 0.42262 0.18463 0.0
C244 C 0.51605 0.38757 0.18349 0.0
C245 C 0.55055 0.43896 0.22212 0.0
C246 C 0.50031 0.37103 0.21969 0.0
C247 C 0.5103 0.38785 0.25704 0.0
H248 H 0.11062 0.5522 0.73228 0.0
H249 H 0.13408 0.65035 0.67486 0.0
H250 H 0.12518 0.67437 0.73936 0.0
H251 H 0.12516 0.67069 0.81392 0.0
H252 H 0.10417 0.57285 0.87165 0.0
H253 H 0.0965 0.54504 0.80524 0.0
C254 C 0.11199 0.5783 0.73364 0.0
C255 C 0.12286 0.5996 0.69927 0.0
C256 C 0.10802 0.59211 0.77108 0.0
C257 C 0.12523 0.63351 0.70104 0.0
C258 C 0.12067 0.64733 0.73803 0.0
C259 C 0.11781 0.64307 0.81194 0.0
C260 C 0.11619 0.62403 0.84752 0.0
C261 C 0.11425 0.62744 0.77364 0.0
C262 C 0.10593 0.58816 0.8447 0.0
C263 C 0.10183 0.57228 0.80668 0.0
H264 H 0.53793 0.04981 0.02011 0.0
H265 H 0.6263 0.02554 0.00173 0.0
H266 H 0.58905 0.96993 0.97168 0.0
H267 H 0.5313 0.92901 0.94955 0.0
H268 H 0.44384 0.9548 0.96846 0.0
H269 H 0.48114 0.00953 0.99904 0.0
C270 C 0.54914 0.03236 0.00973 0.0
C271 C 0.58476 0.0417 0.01305 0.0
C272 C 0.52782 0.00095 0.99225 0.0
C273 C 0.59886 0.01879 -0.00046 0.0
C274 C 0.57763 0.98714 0.98221 0.0
C275 C 0.52052 0.94675 0.96017 0.0
C276 C 0.48496 0.93802 0.95669 0.0
C277 C 0.54209 0.97812 0.9781 0.0
C278 C 0.47117 0.96099 0.97085 0.0
C279 C 0.49243 0.99224 0.9884 0.0
H280 H 0.55562 0.61499 0.51487 0.0
H281 H 0.46133 0.52352 0.52832 0.0
H282 H 0.4891 0.48822 0.5005 0.0
H283 H 0.53946 0.48302 0.47199 0.0
H284 H 0.63374 0.57366 0.45507 0.0
H285 H 0.60668 0.60967 0.4845 0.0
C286 C 0.54132 0.58734 0.51176 0.0
C287 C 0.50655 0.57188 0.5236 0.0
C288 C 0.55734 0.56708 0.49507 0.0
C289 C 0.48811 0.53607 0.5192 0.0
C290 C 0.50394 0.5158 0.50337 0.0
C291 C 0.55418 0.51065 0.47482 0.0
C292 C 0.5885 0.52568 0.46162 0.0
C293 C 0.53844 0.53102 0.49115 0.0
C294 C 0.60717 0.56154 0.46506 0.0
C295 C 0.59175 0.5821 0.48192 0.0
H296 H 0.05704 0.53931 0.99784 0.0
H297 H 0.03598 0.62809 0.02673 0.0
H298 H 0.97651 0.59019 0.04469 0.0
H299 H 0.93062 0.53162 0.05162 0.0
H300 H 0.95192 0.44362 0.01887 0.0
H301 H 0.01138 0.48155 0.00282 0.0
C302 C 0.03951 0.55039 0.00833 0.0
C303 C 0.0508 0.58631 0.01137 0.0
C304 C 0.00546 0.52862 0.01769 0.0
C305 C 0.02775 0.6004 0.0243 0.0
C306 C 0.99383 0.57879 0.03454 0.0
C307 C 0.94835 0.52084 0.04099 0.0
C308 C 0.93704 0.48496 0.03649 0.0
C309 C 0.98241 0.54284 0.03125 0.0
C310 C 0.96005 0.47121 0.02239 0.0
C311 C 0.99405 0.49284 0.01333 0.0
H312 H 0.52501 0.04238 0.46683 0.0
H313 H 0.44527 0.07733 0.43855 0.0
H314 H 0.40101 0.02042 0.45526 0.0
H315 H 0.3849 0.96054 0.47869 0.0
H316 H 0.46526 0.9256 0.50412 0.0
H317 H 0.50906 0.98237 0.48757 0.0
C318 C 0.49795 0.03755 0.46445 0.0
C319 C 0.48845 0.06405 0.45175 0.0
C320 C 0.47264 0.00463 0.47345 0.0
C321 C 0.45327 0.05731 0.44831 0.0
C322 C 0.42791 0.02477 0.45786 0.0
C323 C 0.41198 0.96536 0.48039 0.0
C324 C 0.42169 0.93884 0.49269 0.0
C325 C 0.43727 -0.00181 0.4705 0.0
C326 C 0.45695 0.94547 0.49463 0.0
C327 C 0.48213 0.97802 0.4853 0.0
H328 H 0.38425 0.44065 0.9746 0.0
H329 H 0.47066 0.53953 0.98421 0.0
H330 H 0.50814 0.51117 0.0036 0.0
H331 H 0.51647 0.45846 0.01791 0.0
H332 H 0.43013 0.35951 0.00965 0.0
H333 H 0.39259 0.38774 0.9893 0.0
C334 C 0.41125 0.45598 0.98109 0.0
C335 C 0.42462 0.49212 0.97804 0.0
C336 C 0.43272 0.43951 0.99218 0.0
C337 C 0.45967 0.51165 0.98645 0.0
C338 C 0.48118 0.49547 0.99742 0.0
C339 C 0.4895 0.44305 0.01137 0.0
C340 C 0.47612 0.40698 0.01509 0.0
C341 C 0.46801 0.45944 0.00026 0.0
C342 C 0.44105 0.38736 0.00691 0.0
C343 C 0.41956 0.40347 0.99538 0.0
H344 H 0.95689 0.3958 0.52933 0.0
H345 H 0.93267 0.47424 0.47077 0.0
H346 H 0.98818 0.51845 0.49131 0.0
H347 H 0.04398 0.53503 0.52559 0.0
H348 H 0.06723 0.4571 0.58694 0.0
H349 H 0.01192 0.41277 0.56591 0.0
C350 C 0.96386 0.42257 0.52111 0.0
C351 C 0.94083 0.43172 0.49856 0.0
C352 C 0.99566 0.44806 0.53359 0.0
C353 C 0.94996 0.46654 0.48834 0.0
C354 C 0.98173 0.49188 0.49997 0.0
C355 C 0.03687 0.50836 0.53436 0.0
C356 C 0.05967 0.49938 0.55761 0.0
C357 C 0.00481 0.48297 0.52258 0.0
C358 C 0.05006 0.46474 0.56906 0.0
C359 C 0.01847 0.43929 0.55698 0.0
H360 H 0.64983 0.26114 0.02122 0.0
H361 H 0.58021 0.18603 0.10346 0.0
H362 H 0.53924 0.21291 0.0975 0.0
H363 H 0.52376 0.25822 0.06979 0.0
H364 H 0.5913 0.33144 0.98402 0.0
H365 H 0.63205 0.30411 0.98899 0.0
C366 C 0.62579 0.25091 0.03784 0.0
C367 C 0.61812 0.22208 0.06311 0.0
C368 C 0.60172 0.26561 0.03285 0.0
C369 C 0.58665 0.20852 0.08416 0.0
C370 C 0.56317 0.22366 0.08052 0.0
C371 C 0.54705 0.26768 0.0515 0.0
C372 C 0.55451 0.29668 0.02658 0.0
C373 C 0.57036 0.25208 0.05481 0.0
C374 C 0.58477 0.30882 0.00305 0.0
C375 C 0.60832 0.29353 0.00635 0.0
H376 H 0.33819 0.57014 0.62752 0.0
H377 H 0.36027 0.63616 0.52247 0.0
H378 H 0.29925 0.61042 0.50287 0.0
H379 H 0.23873 0.57628 0.52283 0.0
H380 H 0.21715 0.5131 0.63048 0.0
H381 H 0.27868 0.52975 0.64164 0.0
C382 C 0.32936 0.57875 0.60044 0.0
C383 C 0.3528 0.6054 0.57697 0.0
C384 C 0.29442 0.56428 0.58993 0.0
C385 C 0.34196 0.6161 0.54131 0.0
C386 C 0.30726 0.60136 0.53013 0.0
C387 C 0.24762 0.56508 0.5476 0.0
C388 C 0.22386 0.54358 0.57584 0.0
C389 C 0.28306 0.57629 0.55502 0.0
C390 C 0.23532 0.52962 0.60838 0.0
C391 C 0.27041 0.53952 0.6151 0.0
H392 H 0.73364 0.32141 0.00493 0.0
H393 H 0.82169 0.3109 0.05807 0.0
H394 H 0.79977 0.25073 0.03613 0.0
H395 H 0.74972 0.1991 0.01547 0.0
H396 H 0.66173 0.20923 0.96176 0.0
H397 H 0.69087 0.27206 0.96669 0.0
C398 C 0.74827 0.30602 0.01072 0.0
C399 C 0.77858 0.31984 0.03392 0.0
C400 C 0.73578 0.27161 0.99747 0.0
C401 C 0.79799 0.30033 0.04065 0.0
C402 C 0.78551 0.26602 0.02813 0.0
C403 C 0.73753 0.21519 0.0034 0.0
C404 C 0.70338 0.19977 0.98954 0.0
C405 C 0.7536 0.25101 0.00837 0.0
C406 C 0.68796 0.2206 0.97301 0.0
C407 C 0.70428 0.2565 0.97672 0.0
H408 H 0.37038 0.7515 0.50469 0.0
H409 H 0.37908 0.76834 0.63417 0.0
H410 H 0.42044 0.74164 0.63819 0.0
H411 H 0.45436 0.71458 0.60481 0.0
H412 H 0.43794 0.68761 0.47772 0.0
H413 H 0.40089 0.71914 0.47202 0.0
C414 C 0.38084 0.74855 0.53382 0.0
C415 C 0.37148 0.76121 0.56926 0.0
C416 C 0.4039 0.73242 0.53596 0.0
C417 C 0.38547 0.75798 0.60678 0.0
C418 C 0.40942 0.74321 0.60893 0.0
C419 C 0.44249 0.71515 0.57587 0.0
C420 C 0.44851 0.69811 0.54195 0.0
C421 C 0.41895 0.73057 0.57368 0.0
C422 C 0.43376 0.70041 0.50438 0.0
C423 C 0.41219 0.71802 0.50124 0.0
H424 H 0.64337 0.38192 0.01944 0.0
H425 H 0.64494 0.40417 0.14748 0.0
H426 H 0.70788 0.43279 0.14621 0.0
H427 H 0.76185 0.44553 0.11087 0.0
H428 H 0.76196 0.41817 0.98462 0.0
H429 H 0.69894 0.39821 0.98238 0.0
C430 C 0.6577 0.39356 0.04674 0.0
C431 C 0.64001 0.39118 0.08355 0.0
C432 C 0.69396 0.40892 0.04598 0.0
C433 C 0.65837 0.40583 0.11899 0.0
C434 C 0.69421 0.42214 0.11822 0.0
C435 C 0.74817 0.43577 0.08259 0.0
C436 C 0.76639 0.43314 0.04802 0.0
C437 C 0.71221 0.42302 0.08219 0.0
C438 C 0.74845 0.42068 0.01154 0.0
C439 C 0.71243 0.40891 0.01044 0.0
H440 H 0.19077 0.67984 0.54638 0.0
H441 H 0.27358 0.64712 0.53051 0.0
H442 H 0.30809 0.70093 0.49575 0.0
H443 H 0.31889 0.76121 0.48204 0.0
H444 H 0.24027 0.79766 0.50919 0.0
H445 H 0.19957 0.73888 0.52555 0.0
C446 C 0.21596 0.68423 0.53419 0.0
C447 C 0.22965 0.65954 0.54074 0.0
C448 C 0.23649 0.71626 0.51626 0.0
C449 C 0.26257 0.66572 0.52558 0.0
C450 C 0.28235 0.69659 0.50587 0.0
C451 C 0.29242 0.75596 0.4899 0.0
C452 C 0.28248 0.78357 0.49421 0.0
C453 C 0.27018 0.72264 0.50256 0.0
C454 C 0.24833 0.77666 0.50527 0.0
C455 C 0.22524 0.74313 0.51527 0.0
H456 H 0.75992 0.38326 0.48317 0.0
H457 H 0.76686 0.37871 0.35275 0.0
H458 H 0.74108 0.42067 0.34545 0.0
H459 H 0.71765 0.45879 0.37628 0.0
H460 H 0.70082 0.45572 0.50591 0.0
H461 H 0.73197 0.41855 0.51399 0.0
C462 C 0.75505 0.39106 0.45323 0.0
C463 C 0.7646 0.37782 0.41844 0.0
C464 C 0.73981 0.41467 0.44938 0.0
C465 C 0.75881 0.38813 0.37973 0.0
C466 C 0.74469 0.41247 0.37566 0.0
C467 C 0.72051 0.44991 0.40635 0.0
C468 C 0.70622 0.45942 0.44032 0.0
C469 C 0.73539 0.42608 0.4103 0.0
C470 C 0.71139 0.44862 0.47919 0.0
C471 C 0.72872 0.42697 0.48376 0.0
H472 H 0.32896 0.75113 0.98787 0.0
H473 H 0.30467 0.81804 0.907 0.0
H474 H 0.24688 0.79855 0.93642 0.0
H475 H 0.20091 0.75477 0.97549 0.0
H476 H 0.22415 0.68621 0.05475 0.0
H477 H 0.28556 0.71668 0.03926 0.0
C478 C 0.31099 0.7616 0.97722 0.0
C479 C 0.32015 0.78492 0.94452 0.0
C480 C 0.27806 0.75069 0.99477 0.0
C481 C 0.2975 0.79938 0.93154 0.0
C482 C 0.26467 0.78845 0.94851 0.0
C483 C 0.21964 0.74735 0.99053 0.0
C484 C 0.20809 0.71769 0.01505 0.0
C485 C 0.25428 0.7631 0.97892 0.0
C486 C 0.23241 0.70877 0.03535 0.0
C487 C 0.26744 0.72562 0.02562 0.0
H488 H 0.59957 0.24884 0.47446 0.0
H489 H 0.50045 0.2263 0.42064 0.0
H490 H 0.51524 0.28803 0.41155 0.0
H491 H 0.56035 0.34727 0.40736 0.0
H492 H 0.66299 0.36762 0.44891 0.0
H493 H 0.64368 0.30843 0.47384 0.0
C494 C 0.58104 0.2577 0.46182 0.0
C495 C 0.54901 0.23347 0.44851 0.0
C496 C 0.59095 0.29287 0.45337 0.0
C497 C 0.52508 0.24481 0.43167 0.0
C498 C 0.53376 0.27999 0.4259 0.0
C499 C 0.57816 0.33865 0.42248 0.0
C500 C 0.61292 0.36131 0.42632 0.0
C501 C 0.56721 0.3041 0.43476 0.0
C502 C 0.63614 0.35023 0.4455 0.0
C503 C 0.62508 0.31646 0.45977 0.0
H504 H 0.19877 0.57734 0.95171 0.0
H505 H 0.27992 0.67417 0.9866 0.0
H506 H 0.31713 0.6449 0.00357 0.0
H507 H 0.3294 0.59273 -0.00034 0.0
H508 H 0.25214 0.49863 0.95183 0.0
H509 H 0.21062 0.52519 0.94878 0.0
C510 C 0.22468 0.59195 0.96295 0.0
C511 C 0.23655 0.62783 0.96827 0.0
C512 C 0.24678 0.57524 0.96984 0.0
C513 C 0.27021 0.64657 0.98242 0.0
C514 C 0.2916 0.62981 0.99182 0.0
C515 C 0.30322 0.57796 0.9895 0.0
C516 C 0.2936 0.54379 0.97635 0.0
C517 C 0.2805 0.59428 0.9847 0.0
C518 C 0.25984 0.52487 0.96257 0.0
C519 C 0.23632 0.54019 0.96032 0.0
H520 H 0.66007 0.26056 0.48428 0.0
H521 H 0.67579 0.17909 0.4214 0.0
H522 H 0.73681 0.20421 0.44097 0.0
H523 H 0.78696 0.25448 0.46659 0.0
H524 H 0.77046 0.33521 0.53078 0.0
H525 H 0.7084 0.30498 0.52096 0.0
C526 C 0.67675 0.24796 0.47575 0.0
C527 C 0.66378 0.21831 0.45122 0.0
C528 C 0.71164 0.26253 0.4872 0.0
C529 C 0.68537 0.2019 0.44047 0.0
C530 C 0.72024 0.21638 0.45143 0.0
C531 C 0.76965 0.26481 0.47964 0.0
C532 C 0.78337 0.29723 0.49896 0.0
C533 C 0.7339 0.24739 0.47354 0.0
C534 C 0.76067 0.31029 0.51588 0.0
C535 C 0.72512 0.29319 0.50985 0.0
H536 H 0.36777 0.64689 0.97594 0.0
H537 H 0.40876 0.64578 0.85652 0.0
H538 H 0.43946 0.70869 0.85814 0.0
H539 H 0.44945 0.76351 0.89022 0.0
H540 H 0.40259 0.76625 0.00577 0.0
H541 H 0.37933 0.70299 0.00963 0.0
C542 C 0.38298 0.66065 0.95022 0.0
C543 C 0.38535 0.64232 0.91566 0.0
C544 C 0.39953 0.69682 0.95098 0.0
C545 C 0.40621 0.65982 0.88296 0.0
C546 C 0.42378 0.6956 0.88402 0.0
C547 C 0.43466 0.7503 0.91666 0.0
C548 C 0.42763 0.76933 0.94762 0.0
C549 C 0.41997 0.71431 0.91744 0.0
C550 C 0.40865 0.75208 0.98182 0.0
C551 C 0.39498 0.71595 0.98369 0.0
loop_
_geom_bond_atom_site_label_1
_geom_bond_atom_site_label_2
_geom_bond_distance
_geom_bond_site_symmetry_2
_ccdc_geom_bond_type
Co0 O1 2.216 . S
Co0 O2 2.091 . S
Co0 O4 2.004 . S
Co0 O10 2.021 . S
Co0 O12 2.137 1_554 S
Co0 O13 2.244 . S
O1 Co0 2.216 . S
O1 C8 1.247 . S
O2 Co0 2.091 . S
O2 C8 1.261 . S
C3 O12 1.247 1_554 S
C3 O13 1.272 . S
O4 Co0 2.004 . S
O4 C9 1.259 . S
Co5 O6 2.061 . S
Co5 O11 2.052 . S
Co5 O13 2.135 . S
O6 Co5 2.061 . S
O6 C9 1.235 . S
C7 O10 1.238 . S
C7 O11 1.241 . S
C8 O1 1.247 . S
C8 O2 1.261 . S
C9 O4 1.259 . S
C9 O6 1.235 . S
O10 Co0 2.021 . S
O10 C7 1.238 . S
O11 Co5 2.052 . S
O11 C7 1.241 . S
O12 Co0 2.137 1_556 S
O12 C3 1.247 1_556 S
O13 Co0 2.244 . S
O13 C3 1.272 . S
O13 Co5 2.135 . S
Co14 O15 2.216 . S
Co14 O16 2.091 . S
Co14 O18 2.004 . S
Co14 O24 2.021 . S
Co14 O26 2.137 . S
Co14 O27 2.244 . S
O15 Co14 2.216 . S
O15 C22 1.247 . S
O16 Co14 2.091 . S
O16 C22 1.261 . S
C17 O26 1.247 . S
C17 O27 1.272 . S
O18 Co14 2.004 . S
O18 C23 1.259 . S
Co19 O20 2.061 . S
Co19 O25 2.052 . S
Co19 O27 2.135 . S
O20 Co19 2.061 . S
O20 C23 1.235 . S
C21 O24 1.238 . S
C21 O25 1.241 . S
C22 O15 1.247 . S
C22 O16 1.261 . S
C23 O18 1.259 . S
C23 O20 1.235 . S
O24 Co14 2.021 . S
O24 C21 1.238 . S
O25 Co19 2.052 . S
O25 C21 1.241 . S
O26 Co14 2.137 . S
O26 C17 1.247 . S
O27 Co14 2.244 . S
O27 C17 1.272 . S
O27 Co19 2.135 . S
Co28 O29 2.216 . S
Co28 O30 2.091 . S
Co28 O32 2.004 . S
Co28 O38 2.021 . S
Co28 O40 2.137 1_554 S
Co28 O41 2.244 . S
O29 Co28 2.216 . S
O29 C36 1.247 . S
O30 Co28 2.091 . S
O30 C36 1.261 . S
C31 O40 1.247 1_554 S
C31 O41 1.272 . S
O32 Co28 2.004 . S
O32 C37 1.259 . S
Co33 O34 2.061 . S
Co33 O39 2.052 . S
Co33 O41 2.135 . S
O34 Co33 2.061 . S
O34 C37 1.235 . S
C35 O38 1.238 . S
C35 O39 1.241 . S
C36 O29 1.247 . S
C36 O30 1.261 . S
C37 O32 1.259 . S
C37 O34 1.235 . S
O38 Co28 2.021 . S
O38 C35 1.238 . S
O39 Co33 2.052 . S
O39 C35 1.241 . S
O40 Co28 2.137 1_556 S
O40 C31 1.247 1_556 S
O41 Co28 2.244 . S
O41 C31 1.272 . S
O41 Co33 2.135 . S
Co42 O43 2.216 . S
Co42 O44 2.091 . S
Co42 O46 2.004 . S
Co42 O52 2.021 . S
Co42 O54 2.137 . S
Co42 O55 2.244 . S
O43 Co42 2.216 . S
O43 C50 1.247 . S
O44 Co42 2.091 . S
O44 C50 1.261 . S
C45 O54 1.247 . S
C45 O55 1.272 . S
O46 Co42 2.004 . S
O46 C51 1.259 . S
Co47 O48 2.061 . S
Co47 O53 2.052 . S
Co47 O55 2.135 . S
O48 Co47 2.061 . S
O48 C51 1.235 . S
C49 O52 1.238 . S
C49 O53 1.241 . S
C50 O43 1.247 . S
C50 O44 1.261 . S
C51 O46 1.259 . S
C51 O48 1.235 . S
O52 Co42 2.021 . S
O52 C49 1.238 . S
O53 Co47 2.052 . S
O53 C49 1.241 . S
O54 Co42 2.137 . S
O54 C45 1.247 . S
O55 Co42 2.244 . S
O55 C45 1.272 . S
O55 Co47 2.135 . S
Co56 O57 2.216 . S
Co56 O58 2.091 . S
Co56 O60 2.004 . S
Co56 O66 2.021 . S
Co56 O68 2.137 1_554 S
Co56 O69 2.244 . S
O57 Co56 2.216 . S
O57 C64 1.247 . S
O58 Co56 2.091 . S
O58 C64 1.261 . S
C59 O68 1.247 1_554 S
C59 O69 1.272 . S
O60 Co56 2.004 . S
O60 C65 1.259 . S
Co61 O62 2.061 . S
Co61 O67 2.052 . S
Co61 O69 2.135 . S
O62 Co61 2.061 . S
O62 C65 1.235 . S
C63 O66 1.238 . S
C63 O67 1.241 . S
C64 O57 1.247 . S
C64 O58 1.261 . S
C65 O60 1.259 . S
C65 O62 1.235 . S
O66 Co56 2.021 . S
O66 C63 1.238 . S
O67 Co61 2.052 . S
O67 C63 1.241 . S
O68 Co56 2.137 1_556 S
O68 C59 1.247 1_556 S
O69 Co56 2.244 . S
O69 C59 1.272 . S
O69 Co61 2.135 . S
Co70 O71 2.216 . S
Co70 O72 2.091 . S
Co70 O74 2.004 . S
Co70 O80 2.021 . S
Co70 O82 2.137 . S
Co70 O83 2.244 . S
O71 Co70 2.216 . S
O71 C78 1.247 . S
O72 Co70 2.091 . S
O72 C78 1.261 . S
C73 O82 1.247 . S
C73 O83 1.272 . S
O74 Co70 2.004 . S
O74 C79 1.259 . S
Co75 O76 2.061 . S
Co75 O81 2.052 . S
Co75 O83 2.135 . S
O76 Co75 2.061 . S
O76 C79 1.235 . S
C77 O80 1.238 . S
C77 O81 1.241 . S
C78 O71 1.247 . S
C78 O72 1.261 . S
C79 O74 1.259 . S
C79 O76 1.235 . S
O80 Co70 2.021 . S
O80 C77 1.238 . S
O81 Co75 2.052 . S
O81 C77 1.241 . S
O82 Co70 2.137 . S
O82 C73 1.247 . S
O83 Co70 2.244 . S
O83 C73 1.272 . S
O83 Co75 2.135 . S
Co84 O85 2.216 . S
Co84 O86 2.091 . S
Co84 O88 2.004 . S
Co84 O94 2.021 . S
Co84 O96 2.137 . S
Co84 O97 2.244 . S
O85 Co84 2.216 . S
O85 C92 1.247 . S
O86 Co84 2.091 . S
O86 C92 1.261 . S
C87 O96 1.247 . S
C87 O97 1.272 . S
O88 Co84 2.004 . S
O88 C93 1.259 . S
Co89 O90 2.061 . S
Co89 O95 2.052 . S
Co89 O97 2.135 . S
O90 Co89 2.061 . S
O90 C93 1.235 . S
C91 O94 1.238 . S
C91 O95 1.241 . S
C92 O85 1.247 . S
C92 O86 1.261 . S
C93 O88 1.259 . S
C93 O90 1.235 . S
O94 Co84 2.021 . S
O94 C91 1.238 . S
O95 Co89 2.052 . S
O95 C91 1.241 . S
O96 Co84 2.137 . S
O96 C87 1.247 . S
O97 Co84 2.244 . S
O97 C87 1.272 . S
O97 Co89 2.135 . S
Co98 O99 2.216 . S
Co98 O100 2.091 . S
Co98 O102 2.004 . S
Co98 O108 2.021 . S
Co98 O110 2.137 1_556 S
Co98 O111 2.244 . S
O99 Co98 2.216 . S
O99 C106 1.247 . S
O100 Co98 2.091 . S
O100 C106 1.261 . S
C101 O110 1.247 1_556 S
C101 O111 1.272 . S
O102 Co98 2.004 . S
O102 C107 1.259 . S
Co103 O104 2.061 . S
Co103 O109 2.052 . S
Co103 O111 2.135 . S
O104 Co103 2.061 . S
O104 C107 1.235 . S
C105 O108 1.238 . S
C105 O109 1.241 . S
C106 O99 1.247 . S
C106 O100 1.261 . S
C107 O102 1.259 . S
C107 O104 1.235 . S
O108 Co98 2.021 . S
O108 C105 1.238 . S
O109 Co103 2.052 . S
O109 C105 1.241 . S
O110 Co98 2.137 1_554 S
O110 C101 1.247 1_554 S
O111 Co98 2.244 . S
O111 C101 1.272 . S
O111 Co103 2.135 . S
Co112 O113 2.216 . S
Co112 O114 2.091 . S
Co112 O116 2.004 . S
Co112 O122 2.021 . S
Co112 O124 2.137 . S
Co112 O125 2.244 . S
O113 Co112 2.216 . S
O113 C120 1.247 . S
O114 Co112 2.091 . S
O114 C120 1.261 . S
C115 O124 1.247 . S
C115 O125 1.272 . S
O116 Co112 2.004 . S
O116 C121 1.259 . S
Co117 O118 2.061 . S
Co117 O123 2.052 . S
Co117 O125 2.135 . S
O118 Co117 2.061 . S
O118 C121 1.235 . S
C119 O122 1.238 . S
C119 O123 1.241 . S
C120 O113 1.247 . S
C120 O114 1.261 . S
C121 O116 1.259 . S
C121 O118 1.235 . S
O122 Co112 2.021 . S
O122 C119 1.238 . S
O123 Co117 2.052 . S
O123 C119 1.241 . S
O124 Co112 2.137 . S
O124 C115 1.247 . S
O125 Co112 2.244 . S
O125 C115 1.272 . S
O125 Co117 2.135 . S
Co126 O127 2.216 . S
Co126 O128 2.091 . S
Co126 O130 2.004 . S
Co126 O136 2.021 . S
Co126 O138 2.137 1_556 S
Co126 O139 2.244 . S
O127 Co126 2.216 . S
O127 C134 1.247 . S
O128 Co126 2.091 . S
O128 C134 1.261 . S
C129 O138 1.247 1_556 S
C129 O139 1.272 . S
O130 Co126 2.004 . S
O130 C135 1.259 . S
Co131 O132 2.061 . S
Co131 O137 2.052 . S
Co131 O139 2.135 . S
O132 Co131 2.061 . S
O132 C135 1.235 . S
C133 O136 1.238 . S
C133 O137 1.241 . S
C134 O127 1.247 . S
C134 O128 1.261 . S
C135 O130 1.259 . S
C135 O132 1.235 . S
O136 Co126 2.021 . S
O136 C133 1.238 . S
O137 Co131 2.052 . S
O137 C133 1.241 . S
O138 Co126 2.137 1_554 S
O138 C129 1.247 1_554 S
O139 Co126 2.244 . S
O139 C129 1.272 . S
O139 Co131 2.135 . S
Co140 O141 2.216 . S
Co140 O142 2.091 . S
Co140 O144 2.004 . S
Co140 O150 2.021 . S
Co140 O152 2.137 . S
Co140 O153 2.244 . S
O141 Co140 2.216 . S
O141 C148 1.247 . S
O142 Co140 2.091 . S
O142 C148 1.261 . S
C143 O152 1.247 . S
C143 O153 1.272 . S
O144 Co140 2.004 . S
O144 C149 1.259 . S
Co145 O146 2.061 . S
Co145 O151 2.052 . S
Co145 O153 2.135 . S
O146 Co145 2.061 . S
O146 C149 1.235 . S
C147 O150 1.238 . S
C147 O151 1.241 . S
C148 O141 1.247 . S
C148 O142 1.261 . S
C149 O144 1.259 . S
C149 O146 1.235 . S
O150 Co140 2.021 . S
O150 C147 1.238 . S
O151 Co145 2.052 . S
O151 C147 1.241 . S
O152 Co140 2.137 . S
O152 C143 1.247 . S
O153 Co140 2.244 . S
O153 C143 1.272 . S
O153 Co145 2.135 . S
Co154 O155 2.216 . S
Co154 O156 2.091 . S
Co154 O158 2.004 . S
Co154 O164 2.021 . S
Co154 O166 2.137 1_556 S
Co154 O167 2.244 . S
O155 Co154 2.216 . S
O155 C162 1.247 . S
O156 Co154 2.091 . S
O156 C162 1.261 . S
C157 O166 1.247 1_556 S
C157 O167 1.272 . S
O158 Co154 2.004 . S
O158 C163 1.259 . S
Co159 O160 2.061 . S
Co159 O165 2.052 . S
Co159 O167 2.135 . S
O160 Co159 2.061 . S
O160 C163 1.235 . S
C161 O164 1.238 . S
C161 O165 1.241 . S
C162 O155 1.247 . S
C162 O156 1.261 . S
C163 O158 1.259 . S
C163 O160 1.235 . S
O164 Co154 2.021 . S
O164 C161 1.238 . S
O165 Co159 2.052 . S
O165 C161 1.241 . S
O166 Co154 2.137 1_554 S
O166 C157 1.247 1_554 S
O167 Co154 2.244 . S
O167 C157 1.272 . S
O167 Co159 2.135 . S
H168 C174 0.930 . S
H169 C177 0.930 . S
H170 C178 0.930 . S
H171 C179 0.930 . S
H172 C182 0.930 . S
H173 C183 0.930 . S
C174 H168 0.930 . S
C174 C175 1.355 . S
C174 C176 1.415 . S
C175 C174 1.355 . S
C175 C177 1.419 . S
C176 C174 1.415 . S
C176 C181 1.425 . S
C176 C183 1.409 . S
C177 H169 0.930 . S
C177 C175 1.419 . S
C177 C178 1.362 . S
C178 H170 0.930 . S
C178 C177 1.362 . S
C178 C181 1.409 . S
C179 H171 0.930 . S
C179 C180 1.355 . S
C179 C181 1.415 . S
C180 C179 1.355 . S
C180 C182 1.419 . S
C181 C176 1.425 . S
C181 C178 1.409 . S
C181 C179 1.415 . S
C182 H172 0.930 . S
C182 C180 1.419 . S
C182 C183 1.362 . S
C183 H173 0.930 . S
C183 C176 1.409 . S
C183 C182 1.362 . S
H184 C190 0.930 . S
H185 C193 0.930 . S
H186 C194 0.930 . S
H187 C195 0.930 . S
H188 C198 0.930 . S
H189 C199 0.930 . S
C190 H184 0.930 . S
C190 C191 1.355 . S
C190 C192 1.415 . S
C191 C190 1.355 . S
C191 C193 1.419 . S
C192 C190 1.415 . S
C192 C197 1.425 . S
C192 C199 1.409 . S
C193 H185 0.930 . S
C193 C191 1.419 . S
C193 C194 1.362 . S
C194 H186 0.930 . S
C194 C193 1.362 . S
C194 C197 1.409 . S
C195 H187 0.930 . S
C195 C196 1.355 . S
C195 C197 1.415 . S
C196 C195 1.355 . S
C196 C198 1.419 . S
C197 C192 1.425 . S
C197 C194 1.409 . S
C197 C195 1.415 . S
C198 H188 0.930 . S
C198 C196 1.419 . S
C198 C199 1.362 . S
C199 H189 0.930 . S
C199 C192 1.409 . S
C199 C198 1.362 . S
H200 C206 0.930 . S
H201 C209 0.930 . S
H202 C210 0.930 . S
H203 C211 0.930 . S
H204 C214 0.930 . S
H205 C215 0.930 . S
C206 H200 0.930 . S
C206 C207 1.355 . S
C206 C208 1.415 . S
C207 C206 1.355 . S
C207 C209 1.419 . S
C208 C206 1.415 . S
C208 C213 1.425 . S
C208 C215 1.409 . S
C209 H201 0.930 . S
C209 C207 1.419 . S
C209 C210 1.362 . S
C210 H202 0.930 . S
C210 C209 1.362 . S
C210 C213 1.409 . S
C211 H203 0.930 . S
C211 C212 1.355 . S
C211 C213 1.415 . S
C212 C211 1.355 . S
C212 C214 1.419 . S
C213 C208 1.425 . S
C213 C210 1.409 . S
C213 C211 1.415 . S
C214 H204 0.930 . S
C214 C212 1.419 . S
C214 C215 1.362 . S
C215 H205 0.930 . S
C215 C208 1.409 . S
C215 C214 1.362 . S
H216 C222 0.930 . S
H217 C225 0.930 . S
H218 C226 0.930 . S
H219 C227 0.930 . S
H220 C230 0.930 . S
H221 C231 0.930 . S
C222 H216 0.930 . S
C222 C223 1.355 . S
C222 C224 1.415 . S
C223 C222 1.355 . S
C223 C225 1.419 . S
C224 C222 1.415 . S
C224 C229 1.425 . S
C224 C231 1.409 . S
C225 H217 0.930 . S
C225 C223 1.419 . S
C225 C226 1.362 . S
C226 H218 0.930 . S
C226 C225 1.362 . S
C226 C229 1.409 . S
C227 H219 0.930 . S
C227 C228 1.355 . S
C227 C229 1.415 . S
C228 C227 1.355 . S
C228 C230 1.419 . S
C229 C224 1.425 . S
C229 C226 1.409 . S
C229 C227 1.415 . S
C230 H220 0.930 . S
C230 C228 1.419 . S
C230 C231 1.362 . S
C231 H221 0.930 . S
C231 C224 1.409 . S
C231 C230 1.362 . S
H232 C238 0.930 . S
H233 C241 0.930 . S
H234 C242 0.930 . S
H235 C243 0.930 . S
H236 C246 0.930 . S
H237 C247 0.930 . S
C238 H232 0.930 . S
C238 C239 1.355 . S
C238 C240 1.415 . S
C239 C238 1.355 . S
C239 C241 1.419 . S
C240 C238 1.415 . S
C240 C245 1.425 . S
C240 C247 1.409 . S
C241 H233 0.930 . S
C241 C239 1.419 . S
C241 C242 1.362 . S
C242 H234 0.930 . S
C242 C241 1.362 . S
C242 C245 1.409 . S
C243 H235 0.930 . S
C243 C244 1.355 . S
C243 C245 1.415 . S
C244 C243 1.355 . S
C244 C246 1.419 . S
C245 C240 1.425 . S
C245 C242 1.409 . S
C245 C243 1.415 . S
C246 H236 0.930 . S
C246 C244 1.419 . S
C246 C247 1.362 . S
C247 H237 0.930 . S
C247 C240 1.409 . S
C247 C246 1.362 . S
H248 C254 0.930 . S
H249 C257 0.930 . S
H250 C258 0.930 . S
H251 C259 0.930 . S
H252 C262 0.930 . S
H253 C263 0.930 . S
C254 H248 0.930 . S
C254 C255 1.355 . S
C254 C256 1.415 . S
C255 C254 1.355 . S
C255 C257 1.419 . S
C256 C254 1.415 . S
C256 C261 1.425 . S
C256 C263 1.409 . S
C257 H249 0.930 . S
C257 C255 1.419 . S
C257 C258 1.362 . S
C258 H250 0.930 . S
C258 C257 1.362 . S
C258 C261 1.409 . S
C259 H251 0.930 . S
C259 C260 1.355 . S
C259 C261 1.415 . S
C260 C259 1.355 . S
C260 C262 1.419 . S
C261 C256 1.425 . S
C261 C258 1.409 . S
C261 C259 1.415 . S
C262 H252 0.930 . S
C262 C260 1.419 . S
C262 C263 1.362 . S
C263 H253 0.930 . S
C263 C256 1.409 . S
C263 C262 1.362 . S
H264 C270 0.930 1_556 S
H265 C273 0.930 . S
H266 C274 0.930 . S
H267 C275 0.930 1_554 S
H268 C278 0.930 . S
H269 C279 0.930 . S
C270 H264 0.930 1_554 S
C270 C271 1.354 . S
C270 C272 1.415 1_554 S
C271 C270 1.354 . S
C271 C273 1.419 . S
C272 C270 1.415 1_556 S
C272 C277 1.425 1_546 S
C272 C279 1.409 . S
C273 H265 0.930 . S
C273 C271 1.419 . S
C273 C274 1.362 1_545 S
C274 H266 0.930 . S
C274 C273 1.362 1_565 S
C274 C277 1.409 . S
C275 H267 0.930 1_556 S
C275 C276 1.355 . S
C275 C277 1.415 1_556 S
C276 C275 1.355 . S
C276 C278 1.419 . S
C277 C272 1.425 1_564 S
C277 C274 1.409 . S
C277 C275 1.415 1_554 S
C278 H268 0.930 . S
C278 C276 1.419 . S
C278 C279 1.362 1_565 S
C279 H269 0.930 . S
C279 C272 1.409 . S
C279 C278 1.362 1_545 S
H280 C286 0.930 . S
H281 C289 0.930 . S
H282 C290 0.930 . S
H283 C291 0.930 . S
H284 C294 0.930 . S
H285 C295 0.930 . S
C286 H280 0.930 . S
C286 C287 1.355 . S
C286 C288 1.415 . S
C287 C286 1.355 . S
C287 C289 1.419 . S
C288 C286 1.415 . S
C288 C293 1.425 . S
C288 C295 1.409 . S
C289 H281 0.930 . S
C289 C287 1.419 . S
C289 C290 1.362 . S
C290 H282 0.930 . S
C290 C289 1.362 . S
C290 C293 1.409 . S
C291 H283 0.930 . S
C291 C292 1.355 . S
C291 C293 1.415 . S
C292 C291 1.355 . S
C292 C294 1.419 . S
C293 C288 1.425 . S
C293 C290 1.409 . S
C293 C291 1.415 . S
C294 H284 0.930 . S
C294 C292 1.419 . S
C294 C295 1.362 . S
C295 H285 0.930 . S
C295 C288 1.409 . S
C295 C294 1.362 . S
H296 C302 0.930 . S
H297 C305 0.930 . S
H298 C306 0.930 . S
H299 C307 0.930 . S
H300 C310 0.930 . S
H301 C311 0.930 . S
C302 H296 0.930 . S
C302 C303 1.355 1_554 S
C302 C304 1.415 . S
C303 C302 1.355 1_556 S
C303 C305 1.419 . S
C304 C302 1.415 . S
C304 C309 1.425 1_454 S
C304 C311 1.409 . S
C305 H297 0.930 . S
C305 C303 1.419 . S
C305 C306 1.362 1_455 S
C306 H298 0.930 . S
C306 C305 1.362 1_655 S
C306 C309 1.409 . S
C307 H299 0.930 . S
C307 C308 1.355 1_556 S
C307 C309 1.415 . S
C308 C307 1.355 1_554 S
C308 C310 1.419 . S
C309 C304 1.425 1_656 S
C309 C306 1.409 . S
C309 C307 1.415 . S
C310 H300 0.930 . S
C310 C308 1.419 . S
C310 C311 1.362 1_655 S
C311 H301 0.930 . S
C311 C304 1.409 . S
C311 C310 1.362 1_455 S
H312 C318 0.930 . S
H313 C321 0.930 . S
H314 C322 0.930 . S
H315 C323 0.930 . S
H316 C326 0.930 . S
H317 C327 0.930 . S
C318 H312 0.930 . S
C318 C319 1.355 . S
C318 C320 1.421 . S
C319 C318 1.355 . S
C319 C321 1.419 . S
C320 C318 1.421 . S
C320 C325 1.431 . S
C320 C327 1.398 1_545 S
C321 H313 0.930 . S
C321 C319 1.419 . S
C321 C322 1.362 . S
C322 H314 0.930 . S
C322 C321 1.362 . S
C322 C325 1.409 . S
C323 H315 0.930 . S
C323 C324 1.355 . S
C323 C325 1.415 1_565 S
C324 C323 1.355 . S
C324 C326 1.419 . S
C325 C320 1.431 . S
C325 C322 1.409 . S
C325 C323 1.415 1_545 S
C326 H316 0.930 . S
C326 C324 1.419 . S
C326 C327 1.362 . S
C327 H317 0.930 . S
C327 C320 1.398 1_565 S
C327 C326 1.362 . S
H328 C334 0.930 . S
H329 C337 0.930 . S
H330 C338 0.930 . S
H331 C339 0.930 . S
H332 C342 0.930 . S
H333 C343 0.930 . S
C334 H328 0.930 . S
C334 C335 1.355 1_554 S
C334 C336 1.415 . S
C335 C334 1.355 1_556 S
C335 C337 1.419 . S
C336 C334 1.415 . S
C336 C341 1.425 1_554 S
C336 C343 1.409 . S
C337 H329 0.930 . S
C337 C335 1.419 . S
C337 C338 1.362 . S
C338 H330 0.930 . S
C338 C337 1.362 . S
C338 C341 1.409 . S
C339 H331 0.930 . S
C339 C340 1.355 1_556 S
C339 C341 1.415 . S
C340 C339 1.355 1_554 S
C340 C342 1.419 . S
C341 C336 1.425 1_556 S
C341 C338 1.409 . S
C341 C339 1.415 . S
C342 H332 0.930 . S
C342 C340 1.419 . S
C342 C343 1.362 . S
C343 H333 0.930 . S
C343 C336 1.409 . S
C343 C342 1.362 . S
H344 C350 0.930 . S
H345 C353 0.930 . S
H346 C354 0.930 . S
H347 C355 0.930 . S
H348 C358 0.930 . S
H349 C359 0.930 . S
C350 H344 0.930 . S
C350 C351 1.355 . S
C350 C352 1.415 1_655 S
C351 C350 1.355 . S
C351 C353 1.419 . S
C352 C350 1.415 1_455 S
C352 C357 1.425 . S
C352 C359 1.409 . S
C353 H345 0.930 . S
C353 C351 1.419 . S
C353 C354 1.362 . S
C354 H346 0.930 . S
C354 C353 1.362 . S
C354 C357 1.409 1_655 S
C355 H347 0.930 . S
C355 C356 1.355 . S
C355 C357 1.415 . S
C356 C355 1.355 . S
C356 C358 1.419 . S
C357 C352 1.425 . S
C357 C354 1.409 1_455 S
C357 C355 1.415 . S
C358 H348 0.930 . S
C358 C356 1.419 . S
C358 C359 1.362 . S
C359 H349 0.930 . S
C359 C352 1.409 . S
C359 C358 1.362 . S
H360 C366 0.930 . S
H361 C369 0.930 . S
H362 C370 0.930 . S
H363 C371 0.930 . S
H364 C374 0.930 . S
H365 C375 0.930 . S
C366 H360 0.930 . S
C366 C367 1.355 . S
C366 C368 1.415 . S
C367 C366 1.355 . S
C367 C369 1.419 . S
C368 C366 1.415 . S
C368 C373 1.425 . S
C368 C375 1.409 . S
C369 H361 0.930 . S
C369 C367 1.419 . S
C369 C370 1.362 . S
C370 H362 0.930 . S
C370 C369 1.362 . S
C370 C373 1.409 . S
C371 H363 0.930 . S
C371 C372 1.355 . S
C371 C373 1.415 . S
C372 C371 1.355 . S
C372 C374 1.419 . S
C373 C368 1.425 . S
C373 C370 1.409 . S
C373 C371 1.415 . S
C374 H364 0.930 . S
C374 C372 1.419 . S
C374 C375 1.362 . S
C375 H365 0.930 . S
C375 C368 1.409 . S
C375 C374 1.362 . S
H376 C382 0.930 . S
H377 C385 0.930 . S
H378 C386 0.930 . S
H379 C387 0.930 . S
H380 C390 0.930 . S
H381 C391 0.930 . S
C382 H376 0.930 . S
C382 C383 1.355 . S
C382 C384 1.415 . S
C383 C382 1.355 . S
C383 C385 1.419 . S
C384 C382 1.415 . S
C384 C389 1.425 . S
C384 C391 1.409 . S
C385 H377 0.930 . S
C385 C383 1.419 . S
C385 C386 1.362 . S
C386 H378 0.930 . S
C386 C385 1.362 . S
C386 C389 1.409 . S
C387 H379 0.930 . S
C387 C388 1.355 . S
C387 C389 1.415 . S
C388 C387 1.355 . S
C388 C390 1.419 . S
C389 C384 1.425 . S
C389 C386 1.409 . S
C389 C387 1.415 . S
C390 H380 0.930 . S
C390 C388 1.419 . S
C390 C391 1.362 . S
C391 H381 0.930 . S
C391 C384 1.409 . S
C391 C390 1.362 . S
H392 C398 0.930 1_556 S
H393 C401 0.930 . S
H394 C402 0.930 . S
H395 C403 0.930 . S
H396 C406 0.930 . S
H397 C407 0.930 . S
C398 H392 0.930 1_554 S
C398 C399 1.355 . S
C398 C400 1.415 . S
C399 C398 1.355 . S
C399 C401 1.419 . S
C400 C398 1.415 . S
C400 C405 1.425 . S
C400 C407 1.409 1_554 S
C401 H393 0.930 . S
C401 C399 1.419 . S
C401 C402 1.362 . S
C402 H394 0.930 . S
C402 C401 1.362 . S
C402 C405 1.409 . S
C403 H395 0.930 . S
C403 C404 1.355 . S
C403 C405 1.415 . S
C404 C403 1.355 . S
C404 C406 1.419 1_554 S
C405 C400 1.425 . S
C405 C402 1.409 . S
C405 C403 1.415 . S
C406 H396 0.930 . S
C406 C404 1.419 1_556 S
C406 C407 1.362 . S
C407 H397 0.930 . S
C407 C400 1.409 1_556 S
C407 C406 1.362 . S
H408 C414 0.930 . S
H409 C417 0.930 . S
H410 C418 0.930 . S
H411 C419 0.930 . S
H412 C422 0.930 . S
H413 C423 0.930 . S
C414 H408 0.930 . S
C414 C415 1.355 . S
C414 C416 1.415 . S
C415 C414 1.355 . S
C415 C417 1.419 . S
C416 C414 1.415 . S
C416 C421 1.425 . S
C416 C423 1.409 . S
C417 H409 0.930 . S
C417 C415 1.419 . S
C417 C418 1.362 . S
C418 H410 0.930 . S
C418 C417 1.362 . S
C418 C421 1.409 . S
C419 H411 0.930 . S
C419 C420 1.355 . S
C419 C421 1.415 . S
C420 C419 1.355 . S
C420 C422 1.419 . S
C421 C416 1.425 . S
C421 C418 1.409 . S
C421 C419 1.415 . S
C422 H412 0.930 . S
C422 C420 1.419 . S
C422 C423 1.362 . S
C423 H413 0.930 . S
C423 C416 1.409 . S
C423 C422 1.362 . S
H424 C430 0.930 1_556 S
H425 C433 0.930 . S
H426 C434 0.930 . S
H427 C435 0.930 . S
H428 C438 0.930 . S
H429 C439 0.930 . S
C430 H424 0.930 1_554 S
C430 C431 1.355 . S
C430 C432 1.415 . S
C431 C430 1.355 . S
C431 C433 1.419 . S
C432 C430 1.415 . S
C432 C437 1.425 . S
C432 C439 1.409 1_554 S
C433 H425 0.930 . S
C433 C431 1.419 . S
C433 C434 1.362 . S
C434 H426 0.930 . S
C434 C433 1.362 . S
C434 C437 1.409 . S
C435 H427 0.930 . S
C435 C436 1.355 . S
C435 C437 1.415 . S
C436 C435 1.355 . S
C436 C438 1.419 1_554 S
C437 C432 1.425 . S
C437 C434 1.409 . S
C437 C435 1.415 . S
C438 H428 0.930 . S
C438 C436 1.419 1_556 S
C438 C439 1.362 . S
C439 H429 0.930 . S
C439 C432 1.409 1_556 S
C439 C438 1.362 . S
H440 C446 0.930 . S
H441 C449 0.930 . S
H442 C450 0.930 . S
H443 C451 0.930 . S
H444 C454 0.930 . S
H445 C455 0.930 . S
C446 H440 0.930 . S
C446 C447 1.355 . S
C446 C448 1.415 . S
C447 C446 1.355 . S
C447 C449 1.419 . S
C448 C446 1.415 . S
C448 C453 1.425 . S
C448 C455 1.409 . S
C449 H441 0.930 . S
C449 C447 1.419 . S
C449 C450 1.362 . S
C450 H442 0.930 . S
C450 C449 1.362 . S
C450 C453 1.409 . S
C451 H443 0.930 . S
C451 C452 1.355 . S
C451 C453 1.415 . S
C452 C451 1.355 . S
C452 C454 1.419 . S
C453 C448 1.425 . S
C453 C450 1.409 . S
C453 C451 1.415 . S
C454 H444 0.930 . S
C454 C452 1.419 . S
C454 C455 1.362 . S
C455 H445 0.930 . S
C455 C448 1.409 . S
C455 C454 1.362 . S
H456 C462 0.930 . S
H457 C465 0.930 . S
H458 C466 0.930 . S
H459 C467 0.930 . S
H460 C470 0.930 . S
H461 C471 0.930 . S
C462 H456 0.930 . S
C462 C463 1.355 . S
C462 C464 1.415 . S
C463 C462 1.355 . S
C463 C465 1.419 . S
C464 C462 1.415 . S
C464 C469 1.425 . S
C464 C471 1.409 . S
C465 H457 0.930 . S
C465 C463 1.419 . S
C465 C466 1.362 . S
C466 H458 0.930 . S
C466 C465 1.362 . S
C466 C469 1.409 . S
C467 H459 0.930 . S
C467 C468 1.355 . S
C467 C469 1.415 . S
C468 C467 1.355 . S
C468 C470 1.419 . S
C469 C464 1.425 . S
C469 C466 1.409 . S
C469 C467 1.415 . S
C470 H460 0.930 . S
C470 C468 1.419 . S
C470 C471 1.362 . S
C471 H461 0.930 . S
C471 C464 1.409 . S
C471 C470 1.362 . S
H472 C478 0.930 . S
H473 C481 0.930 . S
H474 C482 0.930 . S
H475 C483 0.930 . S
H476 C486 0.931 . S
H477 C487 0.930 . S
C478 H472 0.930 . S
C478 C479 1.355 . S
C478 C480 1.415 . S
C479 C478 1.355 . S
C479 C481 1.419 . S
C480 C478 1.415 . S
C480 C485 1.425 . S
C480 C487 1.409 . S
C481 H473 0.930 . S
C481 C479 1.419 . S
C481 C482 1.362 . S
C482 H474 0.930 . S
C482 C481 1.362 . S
C482 C485 1.409 . S
C483 H475 0.930 . S
C483 C484 1.355 . S
C483 C485 1.415 . S
C484 C483 1.355 . S
C484 C486 1.419 . S
C485 C480 1.425 . S
C485 C482 1.409 . S
C485 C483 1.415 . S
C486 H476 0.931 . S
C486 C484 1.419 . S
C486 C487 1.362 . S
C487 H477 0.930 . S
C487 C480 1.409 . S
C487 C486 1.362 . S
H488 C494 0.930 . S
H489 C497 0.930 . S
H490 C498 0.930 . S
H491 C499 0.930 . S
H492 C502 0.930 . S
H493 C503 0.930 . S
C494 H488 0.930 . S
C494 C495 1.355 . S
C494 C496 1.415 . S
C495 C494 1.355 . S
C495 C497 1.419 . S
C496 C494 1.415 . S
C496 C501 1.425 . S
C496 C503 1.409 . S
C497 H489 0.930 . S
C497 C495 1.419 . S
C497 C498 1.362 . S
C498 H490 0.930 . S
C498 C497 1.362 . S
C498 C501 1.409 . S
C499 H491 0.930 . S
C499 C500 1.355 . S
C499 C501 1.415 . S
C500 C499 1.355 . S
C500 C502 1.419 . S
C501 C496 1.425 . S
C501 C498 1.409 . S
C501 C499 1.415 . S
C502 H492 0.930 . S
C502 C500 1.419 . S
C502 C503 1.362 . S
C503 H493 0.930 . S
C503 C496 1.409 . S
C503 C502 1.362 . S
H504 C510 0.930 . S
H505 C513 0.932 . S
H506 C514 0.930 . S
H507 C515 0.930 . S
H508 C518 0.930 . S
H509 C519 0.930 . S
C510 H504 0.930 . S
C510 C511 1.355 . S
C510 C512 1.415 . S
C511 C510 1.355 . S
C511 C513 1.415 1_556 S
C512 C510 1.415 . S
C512 C517 1.425 . S
C512 C519 1.409 . S
C513 H505 0.932 . S
C513 C511 1.415 1_554 S
C513 C514 1.364 . S
C514 H506 0.930 . S
C514 C513 1.364 . S
C514 C517 1.409 1_554 S
C515 H507 0.930 . S
C515 C516 1.355 1_554 S
C515 C517 1.415 1_554 S
C516 C515 1.355 1_556 S
C516 C518 1.419 . S
C517 C512 1.425 . S
C517 C514 1.409 1_556 S
C517 C515 1.415 1_556 S
C518 H508 0.930 . S
C518 C516 1.419 . S
C518 C519 1.362 . S
C519 H509 0.930 . S
C519 C512 1.409 . S
C519 C518 1.362 . S
H520 C526 0.930 . S
H521 C529 0.930 . S
H522 C530 0.930 . S
H523 C531 0.930 . S
H524 C534 0.930 . S
H525 C535 0.930 . S
C526 H520 0.930 . S
C526 C527 1.355 . S
C526 C528 1.415 . S
C527 C526 1.355 . S
C527 C529 1.419 . S
C528 C526 1.415 . S
C528 C533 1.425 . S
C528 C535 1.409 . S
C529 H521 0.930 . S
C529 C527 1.419 . S
C529 C530 1.362 . S
C530 H522 0.930 . S
C530 C529 1.362 . S
C530 C533 1.409 . S
C531 H523 0.930 . S
C531 C532 1.355 . S
C531 C533 1.415 . S
C532 C531 1.355 . S
C532 C534 1.419 . S
C533 C528 1.425 . S
C533 C530 1.409 . S
C533 C531 1.415 . S
C534 H524 0.930 . S
C534 C532 1.419 . S
C534 C535 1.362 . S
C535 H525 0.930 . S
C535 C528 1.409 . S
C535 C534 1.362 . S
H536 C542 0.930 . S
H537 C545 0.930 . S
H538 C546 0.930 . S
H539 C547 0.930 . S
H540 C550 0.930 . S
H541 C551 0.930 . S
C542 H536 0.930 . S
C542 C543 1.355 . S
C542 C544 1.415 . S
C543 C542 1.355 . S
C543 C545 1.419 . S
C544 C542 1.415 . S
C544 C549 1.425 . S
C544 C551 1.409 1_556 S
C545 H537 0.930 . S
C545 C543 1.419 . S
C545 C546 1.362 . S
C546 H538 0.930 . S
C546 C545 1.362 . S
C546 C549 1.409 . S
C547 H539 0.930 . S
C547 C548 1.355 . S
C547 C549 1.415 . S
C548 C547 1.355 . S
C548 C550 1.419 1_556 S
C549 C544 1.425 . S
C549 C546 1.409 . S
C549 C547 1.415 . S
C550 H540 0.930 . S
C550 C548 1.419 1_554 S
C550 C551 1.362 . S
C551 H541 0.930 . S
C551 C544 1.409 1_554 S
C551 C550 1.362 . S
C175 C147 1.549 . S
C180 C7 1.511 . S
C191 C21 1.426 . S
C196 C161 1.505 . S
C207 C35 1.580 . S
C212 C91 1.522 . S
C223 C105 1.495 . S
C228 C49 1.586 . S
C239 C119 1.428 . S
C244 C63 1.491 . S
C255 C77 1.502 . S
C260 C133 1.590 . S
C271 C8 1.101 . S
C276 C106 1.103 . S
C287 C22 0.932 . S
C292 C120 0.954 . S
C303 C134 1.089 . S
C308 C36 1.097 . S
C319 C148 1.082 . S
C324 C50 1.031 . S
C335 C162 0.900 . S
C340 C64 0.930 . S
C351 C92 1.032 . S
C356 C78 1.085 . S
C367 C9 1.177 . S
C372 C59 1.079 . S
C383 C23 1.025 . S
C388 C73 0.983 . S
C399 C37 1.035 . S
C404 C3 1.113 . S
C415 C51 1.132 . S
C420 C17 1.158 . S
C431 C65 0.977 . S
C436 C31 1.071 . S
C447 C79 1.029 . S
C452 C45 1.085 . S
C463 C93 1.141 . S
C468 C115 1.152 . S
C479 C107 1.114 . S
C484 C129 1.029 . S
C495 C143 1.042 . S
C500 C121 0.970 . S
C511 C135 1.163 . S
C516 C157 1.042 . S
C527 C149 1.119 . S
C532 C87 1.018 . S
C543 C163 1.035 . S
C548 C101 1.046 . S
